# Generated by pormake.
# Topology pyc, (8)-cn, num edge types: 1
# Building blocks:
#     Node 0, Type 0, BuildingBlock: TAGTUT_clean_sbu_1, # of connection points: 8
#     Node 1, Type 0, BuildingBlock: TAGTUT_clean_sbu_1, # of connection points: 8
#     Node 2, Type 0, BuildingBlock: TAGTUT_clean_sbu_1, # of connection points: 8
#     Node 3, Type 0, BuildingBlock: TAGTUT_clean_sbu_1, # of connection points: 8
#     Node 4, Type 0, BuildingBlock: TAGTUT_clean_sbu_1, # of connection points: 8
#     Node 5, Type 0, BuildingBlock: TAGTUT_clean_sbu_1, # of connection points: 8
#     Node 6, Type 0, BuildingBlock: TAGTUT_clean_sbu_1, # of connection points: 8
#     Node 7, Type 0, BuildingBlock: TAGTUT_clean_sbu_1, # of connection points: 8
#     Node 8, Type 0, BuildingBlock: TAGTUT_clean_sbu_1, # of connection points: 8
#     Node 9, Type 0, BuildingBlock: TAGTUT_clean_sbu_1, # of connection points: 8
#     Node 10, Type 0, BuildingBlock: TAGTUT_clean_sbu_1, # of connection points: 8
#     Node 11, Type 0, BuildingBlock: TAGTUT_clean_sbu_1, # of connection points: 8
#     Node 12, Type 0, BuildingBlock: TAGTUT_clean_sbu_1, # of connection points: 8
#     Node 13, Type 0, BuildingBlock: TAGTUT_clean_sbu_1, # of connection points: 8
#     Node 14, Type 0, BuildingBlock: TAGTUT_clean_sbu_1, # of connection points: 8
#     Node 15, Type 0, BuildingBlock: TAGTUT_clean_sbu_1, # of connection points: 8
#     Node 16, Type 0, BuildingBlock: TAGTUT_clean_sbu_1, # of connection points: 8
#     Node 17, Type 0, BuildingBlock: TAGTUT_clean_sbu_1, # of connection points: 8
#     Node 18, Type 0, BuildingBlock: TAGTUT_clean_sbu_1, # of connection points: 8
#     Node 19, Type 0, BuildingBlock: TAGTUT_clean_sbu_1, # of connection points: 8
#     Node 20, Type 0, BuildingBlock: TAGTUT_clean_sbu_1, # of connection points: 8
#     Node 21, Type 0, BuildingBlock: TAGTUT_clean_sbu_1, # of connection points: 8
#     Node 22, Type 0, BuildingBlock: TAGTUT_clean_sbu_1, # of connection points: 8
#     Node 23, Type 0, BuildingBlock: TAGTUT_clean_sbu_1, # of connection points: 8
#     Node 24, Type 0, BuildingBlock: TAGTUT_clean_sbu_1, # of connection points: 8
#     Node 25, Type 0, BuildingBlock: TAGTUT_clean_sbu_1, # of connection points: 8
#     Node 26, Type 0, BuildingBlock: TAGTUT_clean_sbu_1, # of connection points: 8
#     Node 27, Type 0, BuildingBlock: TAGTUT_clean_sbu_1, # of connection points: 8
#     Node 28, Type 0, BuildingBlock: TAGTUT_clean_sbu_1, # of connection points: 8
#     Node 29, Type 0, BuildingBlock: TAGTUT_clean_sbu_1, # of connection points: 8
#     Node 30, Type 0, BuildingBlock: TAGTUT_clean_sbu_1, # of connection points: 8
#     Node 31, Type 0, BuildingBlock: TAGTUT_clean_sbu_1, # of connection points: 8
#     Node 32, Type 0, BuildingBlock: TAGTUT_clean_sbu_1, # of connection points: 8
#     Node 33, Type 0, BuildingBlock: TAGTUT_clean_sbu_1, # of connection points: 8
#     Node 34, Type 0, BuildingBlock: TAGTUT_clean_sbu_1, # of connection points: 8
#     Node 35, Type 0, BuildingBlock: TAGTUT_clean_sbu_1, # of connection points: 8
#     Node 36, Type 0, BuildingBlock: TAGTUT_clean_sbu_1, # of connection points: 8
#     Node 37, Type 0, BuildingBlock: TAGTUT_clean_sbu_1, # of connection points: 8
#     Node 38, Type 0, BuildingBlock: TAGTUT_clean_sbu_1, # of connection points: 8
#     Node 39, Type 0, BuildingBlock: TAGTUT_clean_sbu_1, # of connection points: 8
#     Node 40, Type 0, BuildingBlock: TAGTUT_clean_sbu_1, # of connection points: 8
#     Node 41, Type 0, BuildingBlock: TAGTUT_clean_sbu_1, # of connection points: 8
#     Node 42, Type 0, BuildingBlock: TAGTUT_clean_sbu_1, # of connection points: 8
#     Node 43, Type 0, BuildingBlock: TAGTUT_clean_sbu_1, # of connection points: 8
#     Node 44, Type 0, BuildingBlock: TAGTUT_clean_sbu_1, # of connection points: 8
#     Node 45, Type 0, BuildingBlock: TAGTUT_clean_sbu_1, # of connection points: 8
#     Node 46, Type 0, BuildingBlock: TAGTUT_clean_sbu_1, # of connection points: 8
#     Node 47, Type 0, BuildingBlock: TAGTUT_clean_sbu_1, # of connection points: 8
#     Edge 48, Type (0, 0), BuildingBlock: AJUNOK_clean_linker_0, # of connection points: 2
#     Edge 49, Type (0, 0), BuildingBlock: AJUNOK_clean_linker_0, # of connection points: 2
#     Edge 50, Type (0, 0), BuildingBlock: AJUNOK_clean_linker_0, # of connection points: 2
#     Edge 51, Type (0, 0), BuildingBlock: AJUNOK_clean_linker_0, # of connection points: 2
#     Edge 52, Type (0, 0), BuildingBlock: AJUNOK_clean_linker_0, # of connection points: 2
#     Edge 53, Type (0, 0), BuildingBlock: AJUNOK_clean_linker_0, # of connection points: 2
#     Edge 54, Type (0, 0), BuildingBlock: AJUNOK_clean_linker_0, # of connection points: 2
#     Edge 55, Type (0, 0), BuildingBlock: AJUNOK_clean_linker_0, # of connection points: 2
#     Edge 56, Type (0, 0), BuildingBlock: AJUNOK_clean_linker_0, # of connection points: 2
#     Edge 57, Type (0, 0), BuildingBlock: AJUNOK_clean_linker_0, # of connection points: 2
#     Edge 58, Type (0, 0), BuildingBlock: AJUNOK_clean_linker_0, # of connection points: 2
#     Edge 59, Type (0, 0), BuildingBlock: AJUNOK_clean_linker_0, # of connection points: 2
#     Edge 60, Type (0, 0), BuildingBlock: AJUNOK_clean_linker_0, # of connection points: 2
#     Edge 61, Type (0, 0), BuildingBlock: AJUNOK_clean_linker_0, # of connection points: 2
#     Edge 62, Type (0, 0), BuildingBlock: AJUNOK_clean_linker_0, # of connection points: 2
#     Edge 63, Type (0, 0), BuildingBlock: AJUNOK_clean_linker_0, # of connection points: 2
#     Edge 64, Type (0, 0), BuildingBlock: AJUNOK_clean_linker_0, # of connection points: 2
#     Edge 65, Type (0, 0), BuildingBlock: AJUNOK_clean_linker_0, # of connection points: 2
#     Edge 66, Type (0, 0), BuildingBlock: AJUNOK_clean_linker_0, # of connection points: 2
#     Edge 67, Type (0, 0), BuildingBlock: AJUNOK_clean_linker_0, # of connection points: 2
#     Edge 68, Type (0, 0), BuildingBlock: AJUNOK_clean_linker_0, # of connection points: 2
#     Edge 69, Type (0, 0), BuildingBlock: AJUNOK_clean_linker_0, # of connection points: 2
#     Edge 70, Type (0, 0), BuildingBlock: AJUNOK_clean_linker_0, # of connection points: 2
#     Edge 71, Type (0, 0), BuildingBlock: AJUNOK_clean_linker_0, # of connection points: 2
#     Edge 72, Type (0, 0), BuildingBlock: AJUNOK_clean_linker_0, # of connection points: 2
#     Edge 73, Type (0, 0), BuildingBlock: AJUNOK_clean_linker_0, # of connection points: 2
#     Edge 74, Type (0, 0), BuildingBlock: AJUNOK_clean_linker_0, # of connection points: 2
#     Edge 75, Type (0, 0), BuildingBlock: AJUNOK_clean_linker_0, # of connection points: 2
#     Edge 76, Type (0, 0), BuildingBlock: AJUNOK_clean_linker_0, # of connection points: 2
#     Edge 77, Type (0, 0), BuildingBlock: AJUNOK_clean_linker_0, # of connection points: 2
#     Edge 78, Type (0, 0), BuildingBlock: AJUNOK_clean_linker_0, # of connection points: 2
#     Edge 79, Type (0, 0), BuildingBlock: AJUNOK_clean_linker_0, # of connection points: 2
#     Edge 80, Type (0, 0), BuildingBlock: AJUNOK_clean_linker_0, # of connection points: 2
#     Edge 81, Type (0, 0), BuildingBlock: AJUNOK_clean_linker_0, # of connection points: 2
#     Edge 82, Type (0, 0), BuildingBlock: AJUNOK_clean_linker_0, # of connection points: 2
#     Edge 83, Type (0, 0), BuildingBlock: AJUNOK_clean_linker_0, # of connection points: 2
#     Edge 84, Type (0, 0), BuildingBlock: AJUNOK_clean_linker_0, # of connection points: 2
#     Edge 85, Type (0, 0), BuildingBlock: AJUNOK_clean_linker_0, # of connection points: 2
#     Edge 86, Type (0, 0), BuildingBlock: AJUNOK_clean_linker_0, # of connection points: 2
#     Edge 87, Type (0, 0), BuildingBlock: AJUNOK_clean_linker_0, # of connection points: 2
#     Edge 88, Type (0, 0), BuildingBlock: AJUNOK_clean_linker_0, # of connection points: 2
#     Edge 89, Type (0, 0), BuildingBlock: AJUNOK_clean_linker_0, # of connection points: 2
#     Edge 90, Type (0, 0), BuildingBlock: AJUNOK_clean_linker_0, # of connection points: 2
#     Edge 91, Type (0, 0), BuildingBlock: AJUNOK_clean_linker_0, # of connection points: 2
#     Edge 92, Type (0, 0), BuildingBlock: AJUNOK_clean_linker_0, # of connection points: 2
#     Edge 93, Type (0, 0), BuildingBlock: AJUNOK_clean_linker_0, # of connection points: 2
#     Edge 94, Type (0, 0), BuildingBlock: AJUNOK_clean_linker_0, # of connection points: 2
#     Edge 95, Type (0, 0), BuildingBlock: AJUNOK_clean_linker_0, # of connection points: 2
#     Edge 96, Type (0, 0), BuildingBlock: AJUNOK_clean_linker_0, # of connection points: 2
#     Edge 97, Type (0, 0), BuildingBlock: AJUNOK_clean_linker_0, # of connection points: 2
#     Edge 98, Type (0, 0), BuildingBlock: AJUNOK_clean_linker_0, # of connection points: 2
#     Edge 99, Type (0, 0), BuildingBlock: AJUNOK_clean_linker_0, # of connection points: 2
#     Edge 100, Type (0, 0), BuildingBlock: AJUNOK_clean_linker_0, # of connection points: 2
#     Edge 101, Type (0, 0), BuildingBlock: AJUNOK_clean_linker_0, # of connection points: 2
#     Edge 102, Type (0, 0), BuildingBlock: AJUNOK_clean_linker_0, # of connection points: 2
#     Edge 103, Type (0, 0), BuildingBlock: AJUNOK_clean_linker_0, # of connection points: 2
#     Edge 104, Type (0, 0), BuildingBlock: AJUNOK_clean_linker_0, # of connection points: 2
#     Edge 105, Type (0, 0), BuildingBlock: AJUNOK_clean_linker_0, # of connection points: 2
#     Edge 106, Type (0, 0), BuildingBlock: AJUNOK_clean_linker_0, # of connection points: 2
#     Edge 107, Type (0, 0), BuildingBlock: AJUNOK_clean_linker_0, # of connection points: 2
#     Edge 108, Type (0, 0), BuildingBlock: AJUNOK_clean_linker_0, # of connection points: 2
#     Edge 109, Type (0, 0), BuildingBlock: AJUNOK_clean_linker_0, # of connection points: 2
#     Edge 110, Type (0, 0), BuildingBlock: AJUNOK_clean_linker_0, # of connection points: 2
#     Edge 111, Type (0, 0), BuildingBlock: AJUNOK_clean_linker_0, # of connection points: 2
#     Edge 112, Type (0, 0), BuildingBlock: AJUNOK_clean_linker_0, # of connection points: 2
#     Edge 113, Type (0, 0), BuildingBlock: AJUNOK_clean_linker_0, # of connection points: 2
#     Edge 114, Type (0, 0), BuildingBlock: AJUNOK_clean_linker_0, # of connection points: 2
#     Edge 115, Type (0, 0), BuildingBlock: AJUNOK_clean_linker_0, # of connection points: 2
#     Edge 116, Type (0, 0), BuildingBlock: AJUNOK_clean_linker_0, # of connection points: 2
#     Edge 117, Type (0, 0), BuildingBlock: AJUNOK_clean_linker_0, # of connection points: 2
#     Edge 118, Type (0, 0), BuildingBlock: AJUNOK_clean_linker_0, # of connection points: 2
#     Edge 119, Type (0, 0), BuildingBlock: AJUNOK_clean_linker_0, # of connection points: 2
#     Edge 120, Type (0, 0), BuildingBlock: AJUNOK_clean_linker_0, # of connection points: 2
#     Edge 121, Type (0, 0), BuildingBlock: AJUNOK_clean_linker_0, # of connection points: 2
#     Edge 122, Type (0, 0), BuildingBlock: AJUNOK_clean_linker_0, # of connection points: 2
#     Edge 123, Type (0, 0), BuildingBlock: AJUNOK_clean_linker_0, # of connection points: 2
#     Edge 124, Type (0, 0), BuildingBlock: AJUNOK_clean_linker_0, # of connection points: 2
#     Edge 125, Type (0, 0), BuildingBlock: AJUNOK_clean_linker_0, # of connection points: 2
#     Edge 126, Type (0, 0), BuildingBlock: AJUNOK_clean_linker_0, # of connection points: 2
#     Edge 127, Type (0, 0), BuildingBlock: AJUNOK_clean_linker_0, # of connection points: 2
#     Edge 128, Type (0, 0), BuildingBlock: AJUNOK_clean_linker_0, # of connection points: 2
#     Edge 129, Type (0, 0), BuildingBlock: AJUNOK_clean_linker_0, # of connection points: 2
#     Edge 130, Type (0, 0), BuildingBlock: AJUNOK_clean_linker_0, # of connection points: 2
#     Edge 131, Type (0, 0), BuildingBlock: AJUNOK_clean_linker_0, # of connection points: 2
#     Edge 132, Type (0, 0), BuildingBlock: AJUNOK_clean_linker_0, # of connection points: 2
#     Edge 133, Type (0, 0), BuildingBlock: AJUNOK_clean_linker_0, # of connection points: 2
#     Edge 134, Type (0, 0), BuildingBlock: AJUNOK_clean_linker_0, # of connection points: 2
#     Edge 135, Type (0, 0), BuildingBlock: AJUNOK_clean_linker_0, # of connection points: 2
#     Edge 136, Type (0, 0), BuildingBlock: AJUNOK_clean_linker_0, # of connection points: 2
#     Edge 137, Type (0, 0), BuildingBlock: AJUNOK_clean_linker_0, # of connection points: 2
#     Edge 138, Type (0, 0), BuildingBlock: AJUNOK_clean_linker_0, # of connection points: 2
#     Edge 139, Type (0, 0), BuildingBlock: AJUNOK_clean_linker_0, # of connection points: 2
#     Edge 140, Type (0, 0), BuildingBlock: AJUNOK_clean_linker_0, # of connection points: 2
#     Edge 141, Type (0, 0), BuildingBlock: AJUNOK_clean_linker_0, # of connection points: 2
#     Edge 142, Type (0, 0), BuildingBlock: AJUNOK_clean_linker_0, # of connection points: 2
#     Edge 143, Type (0, 0), BuildingBlock: AJUNOK_clean_linker_0, # of connection points: 2
#     Edge 144, Type (0, 0), BuildingBlock: AJUNOK_clean_linker_0, # of connection points: 2
#     Edge 145, Type (0, 0), BuildingBlock: AJUNOK_clean_linker_0, # of connection points: 2
#     Edge 146, Type (0, 0), BuildingBlock: AJUNOK_clean_linker_0, # of connection points: 2
#     Edge 147, Type (0, 0), BuildingBlock: AJUNOK_clean_linker_0, # of connection points: 2
#     Edge 148, Type (0, 0), BuildingBlock: AJUNOK_clean_linker_0, # of connection points: 2
#     Edge 149, Type (0, 0), BuildingBlock: AJUNOK_clean_linker_0, # of connection points: 2
#     Edge 150, Type (0, 0), BuildingBlock: AJUNOK_clean_linker_0, # of connection points: 2
#     Edge 151, Type (0, 0), BuildingBlock: AJUNOK_clean_linker_0, # of connection points: 2
#     Edge 152, Type (0, 0), BuildingBlock: AJUNOK_clean_linker_0, # of connection points: 2
#     Edge 153, Type (0, 0), BuildingBlock: AJUNOK_clean_linker_0, # of connection points: 2
#     Edge 154, Type (0, 0), BuildingBlock: AJUNOK_clean_linker_0, # of connection points: 2
#     Edge 155, Type (0, 0), BuildingBlock: AJUNOK_clean_linker_0, # of connection points: 2
#     Edge 156, Type (0, 0), BuildingBlock: AJUNOK_clean_linker_0, # of connection points: 2
#     Edge 157, Type (0, 0), BuildingBlock: AJUNOK_clean_linker_0, # of connection points: 2
#     Edge 158, Type (0, 0), BuildingBlock: AJUNOK_clean_linker_0, # of connection points: 2
#     Edge 159, Type (0, 0), BuildingBlock: AJUNOK_clean_linker_0, # of connection points: 2
#     Edge 160, Type (0, 0), BuildingBlock: AJUNOK_clean_linker_0, # of connection points: 2
#     Edge 161, Type (0, 0), BuildingBlock: AJUNOK_clean_linker_0, # of connection points: 2
#     Edge 162, Type (0, 0), BuildingBlock: AJUNOK_clean_linker_0, # of connection points: 2
#     Edge 163, Type (0, 0), BuildingBlock: AJUNOK_clean_linker_0, # of connection points: 2
#     Edge 164, Type (0, 0), BuildingBlock: AJUNOK_clean_linker_0, # of connection points: 2
#     Edge 165, Type (0, 0), BuildingBlock: AJUNOK_clean_linker_0, # of connection points: 2
#     Edge 166, Type (0, 0), BuildingBlock: AJUNOK_clean_linker_0, # of connection points: 2
#     Edge 167, Type (0, 0), BuildingBlock: AJUNOK_clean_linker_0, # of connection points: 2
#     Edge 168, Type (0, 0), BuildingBlock: AJUNOK_clean_linker_0, # of connection points: 2
#     Edge 169, Type (0, 0), BuildingBlock: AJUNOK_clean_linker_0, # of connection points: 2
#     Edge 170, Type (0, 0), BuildingBlock: AJUNOK_clean_linker_0, # of connection points: 2
#     Edge 171, Type (0, 0), BuildingBlock: AJUNOK_clean_linker_0, # of connection points: 2
#     Edge 172, Type (0, 0), BuildingBlock: AJUNOK_clean_linker_0, # of connection points: 2
#     Edge 173, Type (0, 0), BuildingBlock: AJUNOK_clean_linker_0, # of connection points: 2
#     Edge 174, Type (0, 0), BuildingBlock: AJUNOK_clean_linker_0, # of connection points: 2
#     Edge 175, Type (0, 0), BuildingBlock: AJUNOK_clean_linker_0, # of connection points: 2
#     Edge 176, Type (0, 0), BuildingBlock: AJUNOK_clean_linker_0, # of connection points: 2
#     Edge 177, Type (0, 0), BuildingBlock: AJUNOK_clean_linker_0, # of connection points: 2
#     Edge 178, Type (0, 0), BuildingBlock: AJUNOK_clean_linker_0, # of connection points: 2
#     Edge 179, Type (0, 0), BuildingBlock: AJUNOK_clean_linker_0, # of connection points: 2
#     Edge 180, Type (0, 0), BuildingBlock: AJUNOK_clean_linker_0, # of connection points: 2
#     Edge 181, Type (0, 0), BuildingBlock: AJUNOK_clean_linker_0, # of connection points: 2
#     Edge 182, Type (0, 0), BuildingBlock: AJUNOK_clean_linker_0, # of connection points: 2
#     Edge 183, Type (0, 0), BuildingBlock: AJUNOK_clean_linker_0, # of connection points: 2
#     Edge 184, Type (0, 0), BuildingBlock: AJUNOK_clean_linker_0, # of connection points: 2
#     Edge 185, Type (0, 0), BuildingBlock: AJUNOK_clean_linker_0, # of connection points: 2
#     Edge 186, Type (0, 0), BuildingBlock: AJUNOK_clean_linker_0, # of connection points: 2
#     Edge 187, Type (0, 0), BuildingBlock: AJUNOK_clean_linker_0, # of connection points: 2
#     Edge 188, Type (0, 0), BuildingBlock: AJUNOK_clean_linker_0, # of connection points: 2
#     Edge 189, Type (0, 0), BuildingBlock: AJUNOK_clean_linker_0, # of connection points: 2
#     Edge 190, Type (0, 0), BuildingBlock: AJUNOK_clean_linker_0, # of connection points: 2
#     Edge 191, Type (0, 0), BuildingBlock: AJUNOK_clean_linker_0, # of connection points: 2
#     Edge 192, Type (0, 0), BuildingBlock: AJUNOK_clean_linker_0, # of connection points: 2
#     Edge 193, Type (0, 0), BuildingBlock: AJUNOK_clean_linker_0, # of connection points: 2
#     Edge 194, Type (0, 0), BuildingBlock: AJUNOK_clean_linker_0, # of connection points: 2
#     Edge 195, Type (0, 0), BuildingBlock: AJUNOK_clean_linker_0, # of connection points: 2
#     Edge 196, Type (0, 0), BuildingBlock: AJUNOK_clean_linker_0, # of connection points: 2
#     Edge 197, Type (0, 0), BuildingBlock: AJUNOK_clean_linker_0, # of connection points: 2
#     Edge 198, Type (0, 0), BuildingBlock: AJUNOK_clean_linker_0, # of connection points: 2
#     Edge 199, Type (0, 0), BuildingBlock: AJUNOK_clean_linker_0, # of connection points: 2
#     Edge 200, Type (0, 0), BuildingBlock: AJUNOK_clean_linker_0, # of connection points: 2
#     Edge 201, Type (0, 0), BuildingBlock: AJUNOK_clean_linker_0, # of connection points: 2
#     Edge 202, Type (0, 0), BuildingBlock: AJUNOK_clean_linker_0, # of connection points: 2
#     Edge 203, Type (0, 0), BuildingBlock: AJUNOK_clean_linker_0, # of connection points: 2
#     Edge 204, Type (0, 0), BuildingBlock: AJUNOK_clean_linker_0, # of connection points: 2
#     Edge 205, Type (0, 0), BuildingBlock: AJUNOK_clean_linker_0, # of connection points: 2
#     Edge 206, Type (0, 0), BuildingBlock: AJUNOK_clean_linker_0, # of connection points: 2
#     Edge 207, Type (0, 0), BuildingBlock: AJUNOK_clean_linker_0, # of connection points: 2
#     Edge 208, Type (0, 0), BuildingBlock: AJUNOK_clean_linker_0, # of connection points: 2
#     Edge 209, Type (0, 0), BuildingBlock: AJUNOK_clean_linker_0, # of connection points: 2
#     Edge 210, Type (0, 0), BuildingBlock: AJUNOK_clean_linker_0, # of connection points: 2
#     Edge 211, Type (0, 0), BuildingBlock: AJUNOK_clean_linker_0, # of connection points: 2
#     Edge 212, Type (0, 0), BuildingBlock: AJUNOK_clean_linker_0, # of connection points: 2
#     Edge 213, Type (0, 0), BuildingBlock: AJUNOK_clean_linker_0, # of connection points: 2
#     Edge 214, Type (0, 0), BuildingBlock: AJUNOK_clean_linker_0, # of connection points: 2
#     Edge 215, Type (0, 0), BuildingBlock: AJUNOK_clean_linker_0, # of connection points: 2
#     Edge 216, Type (0, 0), BuildingBlock: AJUNOK_clean_linker_0, # of connection points: 2
#     Edge 217, Type (0, 0), BuildingBlock: AJUNOK_clean_linker_0, # of connection points: 2
#     Edge 218, Type (0, 0), BuildingBlock: AJUNOK_clean_linker_0, # of connection points: 2
#     Edge 219, Type (0, 0), BuildingBlock: AJUNOK_clean_linker_0, # of connection points: 2
#     Edge 220, Type (0, 0), BuildingBlock: AJUNOK_clean_linker_0, # of connection points: 2
#     Edge 221, Type (0, 0), BuildingBlock: AJUNOK_clean_linker_0, # of connection points: 2
#     Edge 222, Type (0, 0), BuildingBlock: AJUNOK_clean_linker_0, # of connection points: 2
#     Edge 223, Type (0, 0), BuildingBlock: AJUNOK_clean_linker_0, # of connection points: 2
#     Edge 224, Type (0, 0), BuildingBlock: AJUNOK_clean_linker_0, # of connection points: 2
#     Edge 225, Type (0, 0), BuildingBlock: AJUNOK_clean_linker_0, # of connection points: 2
#     Edge 226, Type (0, 0), BuildingBlock: AJUNOK_clean_linker_0, # of connection points: 2
#     Edge 227, Type (0, 0), BuildingBlock: AJUNOK_clean_linker_0, # of connection points: 2
#     Edge 228, Type (0, 0), BuildingBlock: AJUNOK_clean_linker_0, # of connection points: 2
#     Edge 229, Type (0, 0), BuildingBlock: AJUNOK_clean_linker_0, # of connection points: 2
#     Edge 230, Type (0, 0), BuildingBlock: AJUNOK_clean_linker_0, # of connection points: 2
#     Edge 231, Type (0, 0), BuildingBlock: AJUNOK_clean_linker_0, # of connection points: 2
#     Edge 232, Type (0, 0), BuildingBlock: AJUNOK_clean_linker_0, # of connection points: 2
#     Edge 233, Type (0, 0), BuildingBlock: AJUNOK_clean_linker_0, # of connection points: 2
#     Edge 234, Type (0, 0), BuildingBlock: AJUNOK_clean_linker_0, # of connection points: 2
#     Edge 235, Type (0, 0), BuildingBlock: AJUNOK_clean_linker_0, # of connection points: 2
#     Edge 236, Type (0, 0), BuildingBlock: AJUNOK_clean_linker_0, # of connection points: 2
#     Edge 237, Type (0, 0), BuildingBlock: AJUNOK_clean_linker_0, # of connection points: 2
#     Edge 238, Type (0, 0), BuildingBlock: AJUNOK_clean_linker_0, # of connection points: 2
#     Edge 239, Type (0, 0), BuildingBlock: AJUNOK_clean_linker_0, # of connection points: 2
# Relax obj value: 0.360
# Max RMSD: 0.243
# Mean RMSD: 0.184
data_MOF--net-pyc--node1-TAGTUT_clean_sbu_1--edge1-AJUNOK_clean_linker_0
_symmetry_space_group_name_H-M    P1
_symmetry_Int_Tables_number       1
_symmetry_cell_setting            triclinic
loop_
_symmetry_equiv_pos_as_xyz
'x, y, z'
_cell_length_a     46.122142
_cell_length_b     47.049419
_cell_length_c     46.494608
_cell_angle_alpha  94.361873
_cell_angle_beta   95.154449
_cell_angle_gamma 101.95002
loop_
_atom_site_label
_atom_site_type_symbol
_atom_site_fract_x
_atom_site_fract_y
_atom_site_fract_z
_atom_type_partial_charge
C0 C 0.07795 0.19161 0.37863 0.0
C1 C 0.04339 0.10208 0.36802 0.0
C2 C 0.06721 0.11764 0.49508 0.0
Mg3 Mg 0.10733 0.13813 0.37704 0.0
O4 O 0.10137 0.14137 0.41671 0.0
Mg5 Mg 0.06277 0.14585 0.43087 0.0
Mg6 Mg 0.11445 0.11694 0.44484 0.0
O7 O 0.12971 0.09421 0.4738 0.0
Mg8 Mg 0.13637 0.11766 0.50928 0.0
Mg9 Mg 0.16833 0.08965 0.45806 0.0
C10 C 0.1708 0.12585 0.39967 0.0
C11 C 0.1145 0.05045 0.41386 0.0
O12 O 0.06325 0.18217 0.39942 0.0
O13 O 0.09729 0.17906 0.36799 0.0
O14 O 0.03972 0.11247 0.39341 0.0
O15 O 0.06817 0.10772 0.35711 0.0
O16 O 0.15417 0.132 0.37828 0.0
O17 O 0.16031 0.12103 0.42408 0.0
C18 C 0.11263 0.18111 0.47908 0.0
O19 O 0.12851 0.1619 0.47493 0.0
O20 O 0.08744 0.17895 0.46469 0.0
O21 O 0.16832 0.06081 0.49655 0.0
O22 O 0.14971 0.08477 0.53212 0.0
O23 O 0.19798 0.12761 0.48444 0.0
C24 C 0.15971 0.06306 0.52213 0.0
O25 O 0.17335 0.15408 0.51006 0.0
O26 O 0.09103 0.12197 0.5128 0.0
C27 C 0.19729 0.15072 0.49994 0.0
O28 O 0.06805 0.11257 0.46695 0.0
O29 O 0.09974 0.07102 0.41532 0.0
O30 O 0.1397 0.05287 0.42856 0.0
C31 C 0.85876 0.26865 0.68749 0.0
C32 C 0.81775 0.34428 0.71097 0.0
C33 C 0.79294 0.34118 0.59483 0.0
Mg34 Mg 0.8783 0.33555 0.69337 0.0
O35 O 0.86058 0.32851 0.65545 0.0
Mg36 Mg 0.81846 0.30583 0.64612 0.0
Mg37 Mg 0.86181 0.35765 0.62758 0.0
O38 O 0.86182 0.38648 0.59852 0.0
Mg39 Mg 0.84617 0.37358 0.55973 0.0
Mg40 Mg 0.904 0.40897 0.60828 0.0
C41 C 0.92812 0.37803 0.6646 0.0
C42 C 0.86746 0.4219 0.66187 0.0
O43 O 0.83452 0.27017 0.67214 0.0
O44 O 0.87862 0.29128 0.69748 0.0
O45 O 0.80601 0.32896 0.68725 0.0
O46 O 0.84593 0.35047 0.71793 0.0
O47 O 0.91923 0.36472 0.68633 0.0
O48 O 0.91157 0.37561 0.64042 0.0
C49 C 0.85707 0.29173 0.59727 0.0
O50 O 0.87122 0.31852 0.59884 0.0
O51 O 0.83145 0.28513 0.60609 0.0
O52 O 0.89147 0.44032 0.57649 0.0
O53 O 0.85072 0.41809 0.5465 0.0
O54 O 0.919 0.38154 0.57288 0.0
C55 C 0.87083 0.44087 0.55627 0.0
O56 O 0.88077 0.35089 0.54595 0.0
O57 O 0.80123 0.35145 0.57118 0.0
C58 C 0.90879 0.36031 0.55345 0.0
O59 O 0.81185 0.34195 0.61694 0.0
O60 O 0.85507 0.39466 0.65935 0.0
O61 O 0.88639 0.43269 0.64495 0.0
C62 C 0.57593 0.19114 0.88077 0.0
C63 C 0.54609 0.10204 0.87871 0.0
C64 C 0.57832 0.12768 0.00349 0.0
Mg65 Mg 0.60848 0.14013 0.88112 0.0
O66 O 0.60567 0.14653 0.92112 0.0
Mg67 Mg 0.56792 0.15049 0.9374 0.0
Mg68 Mg 0.62199 0.12497 0.95024 0.0
O69 O 0.64018 0.10458 0.97985 0.0
Mg70 Mg 0.64738 0.1261 0.01634 0.0
Mg71 Mg 0.67777 0.10026 0.96184 0.0
C72 C 0.67329 0.13064 0.90137 0.0
C73 C 0.62405 0.05749 0.9211 0.0
O74 O 0.56311 0.18259 0.9029 0.0
O75 O 0.5957 0.17926 0.87004 0.0
O76 O 0.54402 0.11335 0.90421 0.0
O77 O 0.5695 0.1079 0.86568 0.0
O78 O 0.65498 0.13426 0.8801 0.0
O79 O 0.66531 0.12882 0.92704 0.0
C80 C 0.62065 0.19257 0.97825 0.0
O81 O 0.63657 0.17294 0.97626 0.0
O82 O 0.59408 0.18757 0.96623 0.0
O83 O 0.68326 0.07215 0.00035 0.0
O84 O 0.66121 0.0914 0.03635 0.0
O85 O 0.70631 0.14006 0.98514 0.0
C86 C 0.67377 0.07182 0.02558 0.0
O87 O 0.68378 0.16319 0.01627 0.0
O88 O 0.6022 0.13089 0.02096 0.0
C89 C 0.70623 0.16213 0.0024 0.0
O90 O 0.5783 0.12161 0.97545 0.0
O91 O 0.60764 0.07678 0.92278 0.0
O92 O 0.64979 0.06204 0.93515 0.0
C93 C 0.84814 0.76845 0.18899 0.0
C94 C 0.81568 0.85229 0.20727 0.0
C95 C 0.79223 0.84067 0.0908 0.0
Mg96 Mg 0.87383 0.83443 0.19239 0.0
O97 O 0.8569 0.82545 0.15404 0.0
Mg98 Mg 0.81314 0.80753 0.1456 0.0
Mg99 Mg 0.85901 0.85491 0.12664 0.0
O100 O 0.86035 0.88511 0.09888 0.0
Mg101 Mg 0.8474 0.87457 0.05917 0.0
Mg102 Mg 0.90142 0.90899 0.11171 0.0
C103 C 0.92527 0.87596 0.16506 0.0
C104 C 0.86245 0.91577 0.1652 0.0
O105 O 0.82441 0.77196 0.17413 0.0
O106 O 0.86996 0.78963 0.19849 0.0
O107 O 0.80207 0.8362 0.18456 0.0
O108 O 0.84348 0.85469 0.2144 0.0
O109 O 0.9161 0.86237 0.18653 0.0
O110 O 0.90904 0.87329 0.14071 0.0
C111 C 0.85002 0.7887 0.09554 0.0
O112 O 0.86612 0.8149 0.09682 0.0
O113 O 0.82626 0.78307 0.10808 0.0
O114 O 0.88896 0.94214 0.08227 0.0
O115 O 0.85109 0.91986 0.04889 0.0
O116 O 0.91943 0.88601 0.07534 0.0
C117 C 0.8694 0.9429 0.06112 0.0
O118 O 0.88435 0.85532 0.04489 0.0
O119 O 0.8019 0.85092 0.06761 0.0
C120 C 0.91178 0.86628 0.05409 0.0
O121 O 0.80993 0.84144 0.1138 0.0
O122 O 0.85093 0.88868 0.16022 0.0
O123 O 0.88141 0.92885 0.14957 0.0
C124 C 0.10809 0.05809 0.93675 0.0
C125 C 0.07276 0.13919 0.92518 0.0
C126 C 0.06165 0.09 0.81182 0.0
Mg127 Mg 0.13562 0.12247 0.92456 0.0
O128 O 0.11802 0.10562 0.88734 0.0
Mg129 Mg 0.07633 0.08187 0.87891 0.0
Mg130 Mg 0.1218 0.12407 0.85088 0.0
O131 O 0.12734 0.14125 0.81384 0.0
Mg132 Mg 0.11839 0.11618 0.77936 0.0
Mg133 Mg 0.17025 0.16251 0.82247 0.0
C134 C 0.18999 0.14311 0.88591 0.0
C135 C 0.13206 0.19604 0.86219 0.0
O136 O 0.08535 0.05821 0.91882 0.0
O137 O 0.13004 0.0802 0.9421 0.0
O138 O 0.06235 0.11735 0.90641 0.0
O139 O 0.10053 0.14667 0.93515 0.0
O140 O 0.1821 0.13842 0.91139 0.0
O141 O 0.17066 0.14011 0.86401 0.0
C142 C 0.11469 0.05284 0.8359 0.0
O143 O 0.12849 0.07892 0.83274 0.0
O144 O 0.09353 0.04823 0.85196 0.0
O145 O 0.15976 0.1827 0.78042 0.0
O146 O 0.12049 0.15193 0.75403 0.0
O147 O 0.18833 0.12814 0.79813 0.0
C148 C 0.13906 0.17651 0.75904 0.0
O149 O 0.15427 0.09497 0.77027 0.0
O150 O 0.07607 0.09176 0.78939 0.0
C151 C 0.18132 0.10533 0.78036 0.0
O152 O 0.07203 0.10482 0.83643 0.0
O153 O 0.11535 0.17171 0.86748 0.0
O154 O 0.15349 0.19658 0.84677 0.0
C155 C 0.79531 0.4194 0.11125 0.0
C156 C 0.88667 0.45075 0.12338 0.0
C157 C 0.87021 0.4301 0.00022 0.0
Mg158 Mg 0.8483 0.38888 0.11649 0.0
O159 O 0.84644 0.39359 0.07684 0.0
Mg160 Mg 0.84217 0.43152 0.0613 0.0
Mg161 Mg 0.87068 0.37973 0.04884 0.0
O162 O 0.89347 0.366 0.01957 0.0
Mg163 Mg 0.87243 0.36529 0.98296 0.0
Mg164 Mg 0.89575 0.32647 0.0323 0.0
C165 C 0.86279 0.32629 0.09533 0.0
C166 C 0.93777 0.37611 0.07937 0.0
O167 O 0.80739 0.43434 0.09204 0.0
O168 O 0.80545 0.39848 0.12169 0.0
O169 O 0.87696 0.45383 0.09739 0.0
O170 O 0.87917 0.4274 0.13571 0.0
O171 O 0.85694 0.3441 0.1154 0.0
O172 O 0.86523 0.33384 0.0691 0.0
C173 C 0.80398 0.38024 0.01564 0.0
O174 O 0.82452 0.36575 0.01999 0.0
O175 O 0.80655 0.40588 0.02804 0.0
O176 O 0.92565 0.32663 0.9936 0.0
O177 O 0.90503 0.35184 0.96083 0.0
O178 O 0.85775 0.30146 -0.0006 0.0
C179 C 0.92439 0.33741 0.96884 0.0
O180 O 0.83482 0.33042 0.97501 0.0
O181 O 0.86786 0.4095 0.98005 0.0
C182 C 0.838 0.30497 0.97977 0.0
O183 O 0.87492 0.42558 0.02744 0.0
O184 O 0.91826 0.39238 0.07808 0.0
O185 O 0.93343 0.3516 0.06404 0.0
C186 C 0.61678 0.06228 0.43793 0.0
C187 C 0.57947 0.14285 0.4362 0.0
C188 C 0.55973 0.11442 0.32699 0.0
Mg189 Mg 0.64256 0.1289 0.42951 0.0
O190 O 0.6256 0.1129 0.39177 0.0
Mg191 Mg 0.5827 0.09073 0.38473 0.0
Mg192 Mg 0.62657 0.13727 0.35842 0.0
O193 O 0.62842 0.15983 0.32418 0.0
Mg194 Mg 0.6139 0.13585 0.28954 0.0
Mg195 Mg 0.67271 0.17619 0.32866 0.0
C196 C 0.69576 0.15168 0.38909 0.0
C197 C 0.64287 0.20795 0.37799 0.0
O198 O 0.59511 0.06177 0.4185 0.0
O199 O 0.63726 0.08539 0.44565 0.0
O200 O 0.56964 0.12077 0.41792 0.0
O201 O 0.60762 0.15302 0.44294 0.0
O202 O 0.68823 0.14655 0.4147 0.0
O203 O 0.67609 0.14928 0.36734 0.0
C204 C 0.61174 0.06866 0.32923 0.0
O205 O 0.62616 0.095 0.32907 0.0
O206 O 0.5953 0.06114 0.34914 0.0
O207 O 0.66066 0.19986 0.28819 0.0
O208 O 0.61893 0.17074 0.26395 0.0
O209 O 0.68418 0.14128 0.29947 0.0
C210 C 0.63928 0.19402 0.26732 0.0
O211 O 0.64584 0.10994 0.27535 0.0
O212 O 0.56951 0.11879 0.30239 0.0
C213 C 0.67388 0.11857 0.28215 0.0
O214 O 0.5763 0.12234 0.35084 0.0
O215 O 0.6265 0.1834 0.38328 0.0
O216 O 0.66127 0.20932 0.35901 0.0
C217 C 0.80334 0.91784 0.60585 0.0
C218 C 0.88794 0.95301 0.6154 0.0
C219 C 0.88058 0.92806 0.49562 0.0
Mg220 Mg 0.85727 0.88995 0.61318 0.0
O221 O 0.85262 0.89192 0.5725 0.0
Mg222 Mg 0.85213 0.93064 0.55693 0.0
Mg223 Mg 0.87559 0.87637 0.54438 0.0
O224 O 0.8976 0.86113 0.5153 0.0
Mg225 Mg 0.87886 0.8628 0.47813 0.0
Mg226 Mg 0.89604 0.82057 0.52735 0.0
C227 C 0.86793 0.8248 0.59155 0.0
C228 C 0.94004 0.86633 0.57603 0.0
O229 O 0.81722 0.93491 0.58895 0.0
O230 O 0.81308 0.89647 0.61578 0.0
O231 O 0.89195 0.94436 0.59002 0.0
O232 O 0.8811 0.93375 0.63302 0.0
O233 O 0.86597 0.84446 0.61199 0.0
O234 O 0.86661 0.8304 0.56445 0.0
C235 C 0.81008 0.88232 0.51176 0.0
O236 O 0.82937 0.86628 0.51555 0.0
O237 O 0.81425 0.908 0.52461 0.0
O238 O 0.92723 0.81899 0.49018 0.0
O239 O 0.91042 0.84643 0.45711 0.0
O240 O 0.85766 0.79903 0.49231 0.0
C241 C 0.92814 0.83068 0.46596 0.0
O242 O 0.83843 0.83191 0.47007 0.0
O243 O 0.87885 0.90791 0.47517 0.0
C244 C 0.83978 0.80556 0.47254 0.0
O245 O 0.8829 0.92228 0.52263 0.0
O246 O 0.92281 0.88488 0.57424 0.0
O247 O 0.93394 0.84196 0.56034 0.0
C248 C 0.39578 0.16923 0.06781 0.0
C249 C 0.39549 0.19667 0.14465 0.0
C250 C 0.51259 0.18886 0.16992 0.0
Mg251 Mg 0.39166 0.13537 0.1215 0.0
O252 O 0.43331 0.14499 0.11845 0.0
Mg253 Mg 0.45456 0.18645 0.11978 0.0
Mg254 Mg 0.45888 0.13282 0.14878 0.0
O255 O 0.48168 0.11907 0.18059 0.0
Mg256 Mg 0.52157 0.12967 0.19243 0.0
Mg257 Mg 0.4606 0.07712 0.17666 0.0
C258 C 0.40716 0.07476 0.13315 0.0
C259 C 0.41828 0.1158 0.20362 0.0
O260 O 0.42002 0.18673 0.07958 0.0
O261 O 0.38282 0.14685 0.07943 0.0
O262 O 0.42315 0.19842 0.1512 0.0
O263 O 0.37782 0.17175 0.14385 0.0
O264 O 0.38576 0.0882 0.1285 0.0
O265 O 0.43429 0.08802 0.13721 0.0
C266 C 0.49637 0.14692 0.08978 0.0
O267 O 0.49096 0.12958 0.11003 0.0
O268 O 0.48554 0.16988 0.08965 0.0
O269 O 0.48464 0.07075 0.22062 0.0
O270 O 0.51663 0.11383 0.23351 0.0
O271 O 0.49757 0.06761 0.15 0.0
C272 C 0.50101 0.08976 0.2397 0.0
O273 O 0.53763 0.10413 0.16064 0.0
O274 O 0.52789 0.17482 0.18561 0.0
C275 C 0.52392 0.08052 0.14579 0.0
O276 O 0.48531 0.17846 0.15985 0.0
O277 O 0.4274 0.1356 0.18667 0.0
O278 O 0.4262 0.09136 0.20213 0.0
C279 C 0.77172 0.69582 0.27746 0.0
C280 C 0.85269 0.67974 0.25416 0.0
C281 C 0.8681 0.61407 0.31008 0.0
Mg282 Mg 0.83765 0.71361 0.30679 0.0
O283 O 0.82246 0.6803 0.32393 0.0
Mg284 Mg 0.80724 0.64392 0.29609 0.0
Mg285 Mg 0.85557 0.66874 0.3478 0.0
O286 O 0.89005 0.65843 0.37087 0.0
Mg287 Mg 0.89561 0.62171 0.37804 0.0
Mg288 Mg 0.9082 0.69487 0.3969 0.0
C289 C 0.85846 0.73334 0.3747 0.0
C290 C 0.92027 0.71242 0.33418 0.0
O291 O 0.77034 0.66852 0.28025 0.0
O292 O 0.79542 0.71556 0.28503 0.0
O293 O 0.83126 0.65912 0.2579 0.0
O294 O 0.86381 0.69951 0.27461 0.0
O295 O 0.85196 0.74024 0.34895 0.0
O296 O 0.86288 0.70806 0.37942 0.0
C297 C 0.78823 0.63242 0.36095 0.0
O298 O 0.81475 0.64505 0.37275 0.0
O299 O 0.78208 0.62921 0.33343 0.0
O300 O 0.95371 0.67917 0.40758 0.0
O301 O 0.94263 0.63279 0.3884 0.0
O302 O 0.88923 0.67113 0.43263 0.0
C303 C 0.96162 0.65513 0.40048 0.0
O304 O 0.88006 0.62238 0.42195 0.0
O305 O 0.88598 0.60728 0.3301 0.0
C306 C 0.88106 0.64523 0.43958 0.0
O307 O 0.84786 0.62738 0.31683 0.0
O308 O 0.89489 0.69618 0.3233 0.0
O309 O 0.92817 0.71544 0.36116 0.0
C310 C 0.27978 0.22482 0.70472 0.0
C311 C 0.26634 0.12844 0.70895 0.0
C312 C 0.36855 0.13031 0.68975 0.0
Mg313 Mg 0.25946 0.16844 0.66129 0.0
O314 O 0.29965 0.17164 0.66119 0.0
Mg315 Mg 0.32647 0.17982 0.69806 0.0
Mg316 Mg 0.31796 0.14271 0.63921 0.0
O317 O 0.33755 0.11458 0.61857 0.0
Mg318 Mg 0.3788 0.11606 0.62276 0.0
Mg319 Mg 0.31291 0.10842 0.58041 0.0
C320 C 0.26991 0.16042 0.59429 0.0
C321 C 0.27288 0.07591 0.6255 0.0
O322 O 0.3044 0.21764 0.71233 0.0
O323 O 0.25976 0.20907 0.686 0.0
O324 O 0.29175 0.1454 0.71798 0.0
O325 O 0.25096 0.13188 0.68571 0.0
O326 O 0.25577 0.1688 0.61478 0.0
O327 O 0.28934 0.1448 0.59879 0.0
C328 C 0.35714 0.21179 0.64368 0.0
O329 O 0.34829 0.18702 0.62827 0.0
O330 O 0.35487 0.21354 0.67113 0.0
O331 O 0.33668 0.07025 0.56772 0.0
O332 O 0.37697 0.07397 0.60016 0.0
O333 O 0.34919 0.13914 0.56385 0.0
C334 C 0.35935 0.06078 0.57808 0.0
O335 O 0.39392 0.14494 0.58976 0.0
O336 O 0.38447 0.11979 0.67191 0.0
C337 C 0.37714 0.14955 0.56778 0.0
O338 O 0.34759 0.1424 0.68041 0.0
O339 O 0.28386 0.09709 0.64569 0.0
O340 O 0.27971 0.07734 0.59969 0.0
C341 C 0.85289 0.63113 0.94063 0.0
C342 C 0.80735 0.62419 0.86746 0.0
C343 C 0.79416 0.50751 0.85608 0.0
Mg344 Mg 0.87223 0.62108 0.88098 0.0
O345 O 0.85952 0.58203 0.89041 0.0
Mg346 Mg 0.81742 0.56895 0.89881 0.0
Mg347 Mg 0.8603 0.54963 0.86124 0.0
O348 O 0.86136 0.51764 0.83156 0.0
Mg349 Mg 0.84581 0.4788 0.8367 0.0
Mg350 Mg 0.90445 0.52871 0.82678 0.0
C351 C 0.92396 0.59101 0.85898 0.0
C352 C 0.87206 0.57503 0.79711 0.0
O353 O 0.83102 0.60889 0.93393 0.0
O354 O 0.87404 0.63779 0.92464 0.0
O355 O 0.80396 0.5967 0.86465 0.0
O356 O 0.83351 0.63995 0.86773 0.0
O357 O 0.9146 0.61491 0.86351 0.0
O358 O 0.90817 0.56603 0.86207 0.0
C359 C 0.85297 0.52187 0.92618 0.0
O360 O 0.86579 0.52224 0.90253 0.0
O361 O 0.83405 0.53792 0.93029 0.0
O362 O 0.89392 0.49253 0.7887 0.0
O363 O 0.85053 0.4624 0.79402 0.0
O364 O 0.91539 0.49794 0.85965 0.0
C365 C 0.87163 0.4718 0.77888 0.0
O366 O 0.87518 0.46666 0.86969 0.0
O367 O 0.8031 0.48491 0.84653 0.0
C368 C 0.90307 0.47762 0.87409 0.0
O369 O 0.81157 0.53254 0.86185 0.0
O370 O 0.85658 0.57651 0.81895 0.0
O371 O 0.8912 0.55901 0.79645 0.0
C372 C 0.1142 0.5005 0.22137 0.0
C373 C 0.09121 0.50885 0.12812 0.0
C374 C 0.06248 0.39261 0.1194 0.0
Mg375 Mg 0.14374 0.49862 0.16588 0.0
O376 O 0.12688 0.45968 0.16533 0.0
Mg377 Mg 0.08255 0.44941 0.16584 0.0
Mg378 Mg 0.13196 0.43216 0.13334 0.0
O379 O 0.13519 0.40332 0.10194 0.0
Mg380 Mg 0.11696 0.36316 0.10258 0.0
Mg381 Mg 0.17838 0.4142 0.09845 0.0
C382 C 0.19949 0.47566 0.1487 0.0
C383 C 0.1523 0.46742 0.07782 0.0
O384 O 0.09173 0.48071 0.2095 0.0
O385 O 0.13622 0.51066 0.20788 0.0
O386 O 0.0758 0.48682 0.13838 0.0
O387 O 0.1192 0.51689 0.13474 0.0
O388 O 0.18706 0.49537 0.15908 0.0
O389 O 0.18428 0.44941 0.13957 0.0
C390 C 0.11202 0.39821 0.1897 0.0
O391 O 0.13027 0.40097 0.17017 0.0
O392 O 0.09166 0.41287 0.1908 0.0
O393 O 0.16355 0.37992 0.05562 0.0
O394 O 0.11769 0.35273 0.05787 0.0
O395 O 0.18525 0.38008 0.12883 0.0
C396 C 0.14038 0.3605 0.04418 0.0
O397 O 0.15225 0.33931 0.11536 0.0
O398 O 0.07184 0.36908 0.11283 0.0
C399 C 0.17933 0.35265 0.12275 0.0
O400 O 0.08064 0.41756 0.12498 0.0
O401 O 0.13545 0.46496 0.09853 0.0
O402 O 0.16895 0.44953 0.07274 0.0
C403 C 0.52094 0.33778 0.06229 0.0
C404 C 0.60249 0.38661 0.04455 0.0
C405 C 0.65121 0.29118 0.06546 0.0
Mg406 Mg 0.57634 0.37442 0.10165 0.0
O407 O 0.58877 0.33878 0.09766 0.0
Mg408 Mg 0.5864 0.31654 0.05891 0.0
Mg409 Mg 0.62784 0.33356 0.11553 0.0
O410 O 0.66684 0.32893 0.13471 0.0
Mg411 Mg 0.67796 0.29396 0.13098 0.0
Mg412 Mg 0.66382 0.34525 0.17521 0.0
C413 C 0.60547 0.37337 0.16689 0.0
C414 C 0.6766 0.39337 0.12885 0.0
O415 O 0.53734 0.32233 0.05038 0.0
O416 O 0.53085 0.35753 0.08346 0.0
O417 O 0.60049 0.35909 0.04016 0.0
O418 O 0.59586 0.39894 0.0678 0.0
O419 O 0.58916 0.38506 0.1493 0.0
O420 O 0.61837 0.35329 0.15806 0.0
C421 C 0.58068 0.27246 0.10694 0.0
O422 O 0.60209 0.28968 0.1229 0.0
O423 O 0.57123 0.27731 0.08158 0.0
O424 O 0.71027 0.33333 0.18995 0.0
O425 O 0.72142 0.30524 0.15308 0.0
O426 O 0.64357 0.30118 0.19024 0.0
C427 C 0.7277 0.3185 0.1786 0.0
O428 O 0.65179 0.26714 0.15773 0.0
O429 O 0.66857 0.28379 0.08525 0.0
C430 C 0.6417 0.27447 0.18116 0.0
O431 O 0.63593 0.31086 0.0713 0.0
O432 O 0.65505 0.37851 0.11071 0.0
O433 O 0.68259 0.38604 0.15448 0.0
C434 C 0.63319 0.94612 0.42244 0.0
C435 C 0.61321 0.8555 0.42837 0.0
C436 C 0.72368 0.85099 0.41242 0.0
Mg437 Mg 0.61421 0.89128 0.37659 0.0
O438 O 0.65634 0.89594 0.38155 0.0
Mg439 Mg 0.67804 0.89766 0.42124 0.0
Mg440 Mg 0.67503 0.86639 0.3623 0.0
O441 O 0.69203 0.83574 0.34193 0.0
Mg442 Mg 0.73082 0.83116 0.34658 0.0
Mg443 Mg 0.67052 0.83234 0.30215 0.0
C444 C 0.6269 0.87601 0.31027 0.0
C445 C 0.62321 0.80711 0.34651 0.0
O446 O 0.65535 0.93608 0.43295 0.0
O447 O 0.6153 0.93321 0.40027 0.0
O448 O 0.64034 0.86828 0.43319 0.0
O449 O 0.59646 0.8597 0.40635 0.0
O450 O 0.60857 0.88301 0.32767 0.0
O451 O 0.65237 0.87181 0.31959 0.0
C452 C 0.72132 0.92835 0.38031 0.0
O453 O 0.71207 0.90764 0.35967 0.0
O454 O 0.71308 0.92696 0.4055 0.0
O455 O 0.68849 0.79076 0.28952 0.0
O456 O 0.72392 0.78784 0.32511 0.0
O457 O 0.71265 0.85945 0.28587 0.0
C458 C 0.70701 0.7773 0.30175 0.0
O459 O 0.75226 0.86059 0.31784 0.0
O460 O 0.73795 0.83951 0.39379 0.0
C461 C 0.74073 0.86717 0.29382 0.0
O462 O 0.7 0.86032 0.4049 0.0
O463 O 0.63625 0.82783 0.36583 0.0
O464 O 0.63167 0.80517 0.3211 0.0
C465 C 0.11151 0.97896 0.73328 0.0
C466 C 0.07042 0.97972 0.64126 0.0
C467 C 0.06163 0.87413 0.62405 0.0
Mg468 Mg 0.1316 0.98369 0.67122 0.0
O469 O 0.12379 0.9435 0.67145 0.0
Mg470 Mg 0.08103 0.92465 0.68089 0.0
Mg471 Mg 0.12842 0.9201 0.6334 0.0
O472 O 0.12948 0.8957 0.59728 0.0
Mg473 Mg 0.11802 0.85457 0.59852 0.0
Mg474 Mg 0.16965 0.91377 0.5873 0.0
C475 C 0.18877 0.97244 0.64161 0.0
C476 C 0.12984 0.96075 0.57977 0.0
O477 O 0.09121 0.95582 0.72472 0.0
O478 O 0.12824 0.99239 0.7159 0.0
O479 O 0.06403 0.957 0.6544 0.0
O480 O 0.09689 0.99483 0.64369 0.0
O481 O 0.17428 0.98797 0.656 0.0
O482 O 0.1776 0.94516 0.63209 0.0
C483 C 0.13649 0.89786 0.68627 0.0
O484 O 0.14117 0.88547 0.6625 0.0
O485 O 0.13034 0.92319 0.68552 0.0
O486 O 0.15514 0.88131 0.54409 0.0
O487 O 0.11879 0.84416 0.55339 0.0
O488 O 0.18971 0.87963 0.60674 0.0
C489 C 0.13556 0.8574 0.53596 0.0
O490 O 0.15775 0.84027 0.61767 0.0
O491 O 0.0718 0.85383 0.61069 0.0
C492 C 0.18439 0.85482 0.61656 0.0
O493 O 0.0792 0.89769 0.63566 0.0
O494 O 0.11855 0.95541 0.60365 0.0
O495 O 0.14797 0.94666 0.56948 0.0
C496 C 0.49464 0.41638 0.25925 0.0
C497 C 0.48499 0.41708 0.35568 0.0
C498 C 0.59969 0.43576 0.36756 0.0
Mg499 Mg 0.48846 0.37229 0.30582 0.0
O500 O 0.52917 0.38534 0.31041 0.0
Mg501 Mg 0.54486 0.42888 0.31826 0.0
Mg502 Mg 0.55531 0.37173 0.34012 0.0
O503 O 0.58268 0.36073 0.36972 0.0
Mg504 Mg 0.62453 0.37742 0.37471 0.0
Mg505 Mg 0.56833 0.31784 0.36581 0.0
C506 C 0.50684 0.31088 0.31365 0.0
C507 C 0.5185 0.34425 0.39255 0.0
O508 O 0.51594 0.4337 0.27559 0.0
O509 O 0.48109 0.39192 0.2667 0.0
O510 O 0.50842 0.43303 0.34789 0.0
O511 O 0.47352 0.39189 0.3428 0.0
O512 O 0.48891 0.3269 0.30542 0.0
O513 O 0.53411 0.3224 0.32493 0.0
C514 C 0.59196 0.39858 0.2871 0.0
O515 O 0.58746 0.3776 0.30362 0.0
O516 O 0.57988 0.42053 0.29052 0.0
O517 O 0.60098 0.32145 0.4108 0.0
O518 O 0.6294 0.36711 0.41765 0.0
O519 O 0.60507 0.3191 0.33743 0.0
C520 C 0.61985 0.34229 0.42676 0.0
O521 O 0.64759 0.34303 0.35917 0.0
O522 O 0.62273 0.4248 0.3737 0.0
C523 C 0.6303 0.31844 0.35004 0.0
O524 O 0.57449 0.41958 0.35703 0.0
O525 O 0.52204 0.36452 0.3752 0.0
O526 O 0.53308 0.32407 0.3924 0.0
C527 C 0.02565 0.84186 0.06428 0.0
C528 C 0.10914 0.86351 0.0376 0.0
C529 C 0.14567 0.77997 0.06972 0.0
Mg530 Mg 0.08829 0.87399 0.09698 0.0
O531 O 0.08902 0.8348 0.10222 0.0
Mg532 Mg 0.08121 0.80515 0.06741 0.0
Mg533 Mg 0.12652 0.82573 0.12056 0.0
O534 O 0.16468 0.8178 0.13749 0.0
Mg535 Mg 0.17502 0.78218 0.13286 0.0
Mg536 Mg 0.16604 0.83781 0.17629 0.0
C537 C 0.11463 0.8765 0.16556 0.0
C538 C 0.1802 0.88261 0.12788 0.0
O539 O 0.03535 0.81865 0.05787 0.0
O540 O 0.04173 0.86439 0.07975 0.0
O541 O 0.09916 0.83736 0.04154 0.0
O542 O 0.10984 0.88446 0.05715 0.0
O543 O 0.10275 0.88856 0.14462 0.0
O544 O 0.12238 0.85201 0.16092 0.0
C545 C 0.07007 0.77378 0.12361 0.0
O546 O 0.09494 0.78805 0.13666 0.0
O547 O 0.06269 0.77497 0.09685 0.0
O548 O 0.21082 0.82372 0.18999 0.0
O549 O 0.21895 0.79223 0.15444 0.0
O550 O 0.14325 0.79451 0.19252 0.0
C551 C 0.22692 0.80743 0.1789 0.0
O552 O 0.14762 0.75785 0.16046 0.0
O553 O 0.16583 0.77272 0.08661 0.0
C554 C 0.13899 0.76721 0.18401 0.0
O555 O 0.12863 0.79623 0.07935 0.0
O556 O 0.15884 0.86672 0.11005 0.0
O557 O 0.18628 0.87627 0.15385 0.0
C558 C 0.99393 0.41948 0.75571 0.0
C559 C 0.98305 0.41884 0.85283 0.0
C560 C 0.09892 0.43586 0.86482 0.0
Mg561 Mg 0.9858 0.37534 0.80181 0.0
O562 O 0.02647 0.38797 0.80779 0.0
Mg563 Mg 0.04326 0.43102 0.81532 0.0
Mg564 Mg 0.05123 0.37388 0.838 0.0
O565 O 0.07782 0.361 0.86698 0.0
Mg566 Mg 0.11981 0.37394 0.86829 0.0
Mg567 Mg 0.06112 0.31833 0.86248 0.0
C568 C 0.0016 0.31364 0.80948 0.0
C569 C 0.01416 0.34854 0.89064 0.0
O570 O 0.01547 0.43626 0.7722 0.0
O571 O 0.97932 0.39554 0.76321 0.0
O572 O 0.00623 0.43549 0.84519 0.0
O573 O 0.97162 0.39399 0.83921 0.0
O574 O 0.98436 0.32968 0.79984 0.0
O575 O 0.02803 0.32517 0.82258 0.0
C576 C 0.08914 0.39837 0.78558 0.0
O577 O 0.08341 0.37836 0.80289 0.0
O578 O 0.07843 0.42135 0.78771 0.0
O579 O 0.09496 0.31958 0.9057 0.0
O580 O 0.12607 0.36391 0.91092 0.0
O581 O 0.09489 0.3145 0.83203 0.0
C582 C 0.11555 0.33964 0.92062 0.0
O583 O 0.13856 0.33564 0.85364 0.0
O584 O 0.12029 0.4221 0.86937 0.0
C585 C 0.12021 0.31216 0.84287 0.0
O586 O 0.0725 0.42183 0.8548 0.0
O587 O 0.018 0.36839 0.87289 0.0
O588 O 0.02784 0.32766 0.89044 0.0
C589 C 0.12865 0.56165 0.44125 0.0
C590 C 0.08318 0.63606 0.42583 0.0
C591 C 0.0654 0.59757 0.32623 0.0
Mg592 Mg 0.14735 0.62975 0.42845 0.0
O593 O 0.1327 0.60802 0.39217 0.0
Mg594 Mg 0.09089 0.58268 0.38752 0.0
Mg595 Mg 0.12993 0.62962 0.35705 0.0
O596 O 0.12959 0.64804 0.32008 0.0
Mg597 Mg 0.11835 0.62083 0.28671 0.0
Mg598 Mg 0.17287 0.6689 0.32417 0.0
C599 C 0.19898 0.65081 0.38639 0.0
C600 C 0.13907 0.70134 0.36937 0.0
O601 O 0.10794 0.5568 0.42024 0.0
O602 O 0.14544 0.58724 0.44883 0.0
O603 O 0.08306 0.60947 0.42681 0.0
O604 O 0.10869 0.65367 0.42839 0.0
O605 O 0.1924 0.64725 0.41253 0.0
O606 O 0.1787 0.64623 0.36507 0.0
C607 C 0.12066 0.56073 0.33363 0.0
O608 O 0.13526 0.58689 0.33315 0.0
O609 O 0.10169 0.55405 0.3515 0.0
O610 O 0.15742 0.68776 0.28288 0.0
O611 O 0.11756 0.6553 0.2594 0.0
O612 O 0.18855 0.63513 0.297 0.0
C613 C 0.13566 0.68027 0.26256 0.0
O614 O 0.15362 0.59948 0.27366 0.0
O615 O 0.07728 0.59799 0.30213 0.0
C616 C 0.18104 0.61169 0.28024 0.0
O617 O 0.07937 0.61103 0.35025 0.0
O618 O 0.12475 0.67672 0.37675 0.0
O619 O 0.15817 0.70242 0.35119 0.0
C620 C 0.2942 0.91914 0.10297 0.0
C621 C 0.38552 0.95356 0.11777 0.0
C622 C 0.37343 0.92525 -0.00524 0.0
Mg623 Mg 0.34835 0.89038 0.11248 0.0
O624 O 0.34808 0.89356 0.07266 0.0
Mg625 Mg 0.34371 0.93063 0.05511 0.0
Mg626 Mg 0.37225 0.87761 0.04578 0.0
O627 O 0.39593 0.86205 0.01809 0.0
Mg628 Mg 0.3766 0.85983 0.98091 0.0
Mg629 Mg 0.39725 0.82301 0.03284 0.0
C630 C 0.36424 0.82686 0.09508 0.0
C631 C 0.43888 0.87472 0.0776 0.0
O632 O 0.30682 0.93372 0.08375 0.0
O633 O 0.30473 0.89933 0.11519 0.0
O634 O 0.37722 0.95525 0.09109 0.0
O635 O 0.37763 0.93075 0.13094 0.0
O636 O 0.35786 0.84566 0.11391 0.0
O637 O 0.36636 0.83278 0.06832 0.0
C638 C 0.30592 0.87828 0.01134 0.0
O639 O 0.32566 0.86302 0.01659 0.0
O640 O 0.3097 0.9043 0.0227 0.0
O641 O 0.42818 0.82045 -0.00478 0.0
O642 O 0.40807 0.84315 0.95982 0.0
O643 O 0.35932 0.79728 -0.00028 0.0
C644 C 0.42701 0.82897 0.96943 0.0
O645 O 0.33751 0.8273 0.97601 0.0
O646 O 0.37311 0.90368 0.97623 0.0
C647 C 0.34014 0.8016 0.97988 0.0
O648 O 0.37725 0.92259 0.02252 0.0
O649 O 0.41945 0.89093 0.07468 0.0
O650 O 0.43469 0.8492 0.0643 0.0
C651 C 0.07887 0.69168 0.87223 0.0
C652 C 0.04438 0.60288 0.87153 0.0
C653 C 0.07357 0.63048 -0.00195 0.0
Mg654 Mg 0.10815 0.63857 0.87607 0.0
O655 O 0.10381 0.64615 0.91563 0.0
Mg656 Mg 0.06581 0.65225 0.92995 0.0
Mg657 Mg 0.11903 0.62538 0.94601 0.0
O658 O 0.13648 0.60585 0.97683 0.0
Mg659 Mg 0.14243 0.62822 0.01262 0.0
Mg660 Mg 0.17531 0.60226 0.96065 0.0
C661 C 0.17248 0.62926 0.89873 0.0
C662 C 0.122 0.55705 0.92052 0.0
O663 O 0.06446 0.68436 0.89391 0.0
O664 O 0.09811 0.67804 0.86309 0.0
O665 O 0.04169 0.61521 0.89642 0.0
O666 O 0.06853 0.60736 0.85951 0.0
O667 O 0.15445 0.63175 0.87675 0.0
O668 O 0.16394 0.6291 0.92433 0.0
C669 C 0.11749 0.69293 0.97304 0.0
O670 O 0.13316 0.67315 0.9715 0.0
O671 O 0.0916 0.68889 0.95953 0.0
O672 O 0.18017 0.57592 -0.00012 0.0
O673 O 0.15718 0.59526 0.0349 0.0
O674 O 0.20326 0.64227 0.98516 0.0
C675 C 0.17073 0.57604 0.02509 0.0
O676 O 0.17781 0.66587 0.01284 0.0
O677 O 0.09739 0.63333 0.01548 0.0
C678 C 0.20188 0.66433 0.00193 0.0
O679 O 0.07355 0.6235 0.96998 0.0
O680 O 0.1053 0.57618 0.92009 0.0
O681 O 0.14785 0.56328 0.93455 0.0
C682 C 0.36485 0.77094 0.69227 0.0
C683 C 0.32838 0.84937 0.71853 0.0
C684 C 0.30224 0.84667 0.60326 0.0
Mg685 Mg 0.38759 0.83745 0.69998 0.0
O686 O 0.36962 0.8322 0.6621 0.0
Mg687 Mg 0.3267 0.81137 0.6533 0.0
Mg688 Mg 0.37106 0.8618 0.63442 0.0
O689 O 0.37082 0.89066 0.60547 0.0
Mg690 Mg 0.35487 0.87776 0.56679 0.0
Mg691 Mg 0.41257 0.91375 0.61547 0.0
C692 C 0.43614 0.88356 0.67296 0.0
C693 C 0.37509 0.92531 0.66815 0.0
O694 O 0.34065 0.77454 0.67837 0.0
O695 O 0.38632 0.79227 0.70222 0.0
O696 O 0.31577 0.83537 0.69446 0.0
O697 O 0.35639 0.85309 0.72553 0.0
O698 O 0.42751 0.86857 0.69375 0.0
O699 O 0.42081 0.88037 0.64791 0.0
C700 C 0.36232 0.79624 0.60153 0.0
O701 O 0.37856 0.82233 0.60455 0.0
O702 O 0.33812 0.79013 0.61311 0.0
O703 O 0.39963 0.94502 0.58363 0.0
O704 O 0.35902 0.92232 0.55374 0.0
O705 O 0.42857 0.88703 0.58045 0.0
C706 C 0.37882 0.94534 0.5635 0.0
O707 O 0.39075 0.85589 0.55339 0.0
O708 O 0.30949 0.85598 0.57888 0.0
C709 C 0.41877 0.86571 0.56106 0.0
O710 O 0.32183 0.8474 0.62455 0.0
O711 O 0.36416 0.89785 0.66604 0.0
O712 O 0.39355 0.93665 0.65112 0.0
C713 C 0.49768 0.92711 0.76741 0.0
C714 C 0.48921 0.92524 0.86382 0.0
C715 C 0.60406 0.93663 0.87125 0.0
Mg716 Mg 0.49026 0.88154 0.8125 0.0
O717 O 0.53104 0.89215 0.81531 0.0
Mg718 Mg 0.54872 0.93516 0.82504 0.0
Mg719 Mg 0.55655 0.87556 0.84324 0.0
O720 O 0.58349 0.86151 0.8709 0.0
Mg721 Mg 0.62558 0.87518 0.87361 0.0
Mg722 Mg 0.56642 0.81898 0.86684 0.0
C723 C 0.50525 0.81789 0.81656 0.0
C724 C 0.51891 0.84811 0.89512 0.0
O725 O 0.52015 0.94292 0.78353 0.0
O726 O 0.48289 0.90304 0.77459 0.0
O727 O 0.51293 0.94077 0.85601 0.0
O728 O 0.47714 0.90042 0.85055 0.0
O729 O 0.48877 0.83598 0.81094 0.0
O730 O 0.53319 0.82701 0.82664 0.0
C731 C 0.59388 0.90389 0.79115 0.0
O732 O 0.58856 0.88208 0.8066 0.0
O733 O 0.58273 0.92628 0.79584 0.0
O734 O 0.60032 0.82065 0.91077 0.0
O735 O 0.63119 0.86516 0.91634 0.0
O736 O 0.60084 0.81493 0.83709 0.0
C737 C 0.62075 0.84082 0.92594 0.0
O738 O 0.64427 0.83656 0.85914 0.0
O739 O 0.62625 0.92377 0.87492 0.0
C740 C 0.62615 0.81288 0.84833 0.0
O741 O 0.57782 0.92214 0.86197 0.0
O742 O 0.52324 0.86871 0.87826 0.0
O743 O 0.53275 0.82742 0.89455 0.0
C744 C 0.0182 0.32993 0.56997 0.0
C745 C 0.0998 0.35626 0.54098 0.0
C746 C 0.14328 0.27402 0.57309 0.0
Mg747 Mg 0.08012 0.36599 0.60067 0.0
O748 O 0.08508 0.32779 0.60592 0.0
Mg749 Mg 0.07672 0.29722 0.57232 0.0
Mg750 Mg 0.1253 0.32269 0.62186 0.0
O751 O 0.16541 0.31892 0.6383 0.0
Mg752 Mg 0.17728 0.28415 0.63496 0.0
Mg753 Mg 0.16403 0.33808 0.67788 0.0
C754 C 0.10848 0.37039 0.66722 0.0
C755 C 0.17594 0.38229 0.62825 0.0
O756 O 0.02903 0.30728 0.56431 0.0
O757 O 0.03349 0.35349 0.58427 0.0
O758 O 0.09102 0.32987 0.54499 0.0
O759 O 0.10079 0.37706 0.56079 0.0
O760 O 0.09395 0.38196 0.64785 0.0
O761 O 0.11979 0.34848 0.66081 0.0
C762 C 0.07605 0.26527 0.62891 0.0
O763 O 0.1002 0.28276 0.63927 0.0
O764 O 0.06278 0.26637 0.60403 0.0
O765 O 0.21026 0.32668 0.69224 0.0
O766 O 0.22105 0.29698 0.65645 0.0
O767 O 0.14319 0.29454 0.69479 0.0
C768 C 0.22782 0.31192 0.68117 0.0
O769 O 0.15145 0.25953 0.66308 0.0
O770 O 0.16551 0.27005 0.58966 0.0
C771 C 0.14102 0.26761 0.68605 0.0
O772 O 0.12677 0.29157 0.58144 0.0
O773 O 0.155 0.36566 0.61026 0.0
O774 O 0.18202 0.37644 0.65443 0.0
C775 C 0.27579 0.69587 0.77649 0.0
C776 C 0.36165 0.68473 0.75873 0.0
C777 C 0.37552 0.61863 0.81513 0.0
Mg778 Mg 0.33981 0.71694 0.80912 0.0
O779 O 0.32653 0.68234 0.82491 0.0
Mg780 Mg 0.31374 0.64597 0.79725 0.0
Mg781 Mg 0.35882 0.67188 0.85064 0.0
O782 O 0.39278 0.66289 0.87623 0.0
Mg783 Mg 0.40242 0.62755 0.88393 0.0
Mg784 Mg 0.40708 0.69996 0.90206 0.0
C785 C 0.35731 0.73612 0.87688 0.0
C786 C 0.42398 0.71676 0.84035 0.0
O787 O 0.27618 0.66881 0.77882 0.0
O788 O 0.29802 0.71675 0.78564 0.0
O789 O 0.34111 0.6627 0.76123 0.0
O790 O 0.36863 0.70609 0.77833 0.0
O791 O 0.35049 0.74342 0.85142 0.0
O792 O 0.36299 0.71116 0.88065 0.0
C793 C 0.29043 0.63461 0.86071 0.0
O794 O 0.31633 0.64785 0.87363 0.0
O795 O 0.28599 0.63067 0.83304 0.0
O796 O 0.45194 0.6869 0.91792 0.0
O797 O 0.44942 0.64094 0.89905 0.0
O798 O 0.386 0.67555 0.93593 0.0
C799 C 0.46371 0.66474 0.91347 0.0
O800 O 0.38398 0.62736 0.92635 0.0
O801 O 0.39411 0.61357 0.83562 0.0
C802 C 0.38092 0.64951 0.94309 0.0
O803 O 0.35399 0.63051 0.82096 0.0
O804 O 0.39957 0.69976 0.82797 0.0
O805 O 0.42962 0.72053 0.86765 0.0
C806 C 0.86489 0.13696 0.448 0.0
C807 C 0.81008 0.12982 0.37326 0.0
C808 C 0.79269 0.01869 0.35974 0.0
Mg809 Mg 0.87612 0.12518 0.38393 0.0
O810 O 0.8643 0.08687 0.3948 0.0
Mg811 Mg 0.8245 0.0752 0.41022 0.0
Mg812 Mg 0.86087 0.05409 0.36389 0.0
O813 O 0.8573 0.02177 0.33254 0.0
Mg814 Mg 0.83937 0.98355 0.33754 0.0
Mg815 Mg 0.89946 0.02987 0.3245 0.0
C816 C 0.92425 0.0924 0.35657 0.0
C817 C 0.86726 0.0786 0.29876 0.0
O818 O 0.84407 0.11359 0.44574 0.0
O819 O 0.88124 0.14434 0.42774 0.0
O820 O 0.80493 0.1076 0.38728 0.0
O821 O 0.83622 0.14052 0.36653 0.0
O822 O 0.9162 0.11673 0.36293 0.0
O823 O 0.90812 0.06771 0.36007 0.0
C824 C 0.85984 0.0244 0.42844 0.0
O825 O 0.86922 0.02486 0.40309 0.0
O826 O 0.84326 0.04167 0.43595 0.0
O827 O 0.88523 0.99213 0.28759 0.0
O828 O 0.84077 0.96473 0.29473 0.0
O829 O 0.91032 -0.00169 0.35626 0.0
C830 C 0.86234 0.97147 0.27941 0.0
O831 O 0.86961 0.96888 0.36828 0.0
O832 O 0.79897 0.9953 0.34824 0.0
C833 C 0.89786 0.9782 0.37089 0.0
O834 O 0.8128 0.04115 0.36928 0.0
O835 O 0.85472 0.08134 0.32246 0.0
O836 O 0.88501 0.06126 0.29568 0.0
C837 C 0.39431 0.66723 0.56416 0.0
C838 C 0.39127 0.69473 0.64106 0.0
C839 C 0.50203 0.6874 0.67928 0.0
Mg840 Mg 0.38766 0.63361 0.61747 0.0
O841 O 0.42967 0.64286 0.61583 0.0
Mg842 Mg 0.45122 0.68403 0.61836 0.0
Mg843 Mg 0.45397 0.62987 0.6465 0.0
O844 O 0.47485 0.61497 0.67883 0.0
Mg845 Mg 0.5137 0.62619 0.69349 0.0
Mg846 Mg 0.45374 0.57334 0.67335 0.0
C847 C 0.40215 0.57274 0.62795 0.0
C848 C 0.41144 0.61208 0.69949 0.0
O849 O 0.41812 0.68479 0.57686 0.0
O850 O 0.38077 0.64479 0.57525 0.0
O851 O 0.41826 0.69448 0.64882 0.0
O852 O 0.37229 0.67046 0.63715 0.0
O853 O 0.38092 0.58621 0.62267 0.0
O854 O 0.42925 0.58564 0.63356 0.0
C855 C 0.49351 0.64427 0.58874 0.0
O856 O 0.48689 0.62668 0.60855 0.0
O857 O 0.48372 0.66791 0.58878 0.0
O858 O 0.47634 0.56524 0.71732 0.0
O859 O 0.5089 0.60715 0.7331 0.0
O860 O 0.49266 0.56525 0.64887 0.0
C861 C 0.49325 0.58245 0.73752 0.0
O862 O 0.53176 0.60275 0.66117 0.0
O863 O 0.51659 0.67204 0.69404 0.0
C864 C 0.51929 0.57875 0.6461 0.0
O865 O 0.48042 0.67551 0.65978 0.0
O866 O 0.42166 0.63212 0.68322 0.0
O867 O 0.41835 0.58715 0.69759 0.0
C868 C 0.77067 0.1937 0.77899 0.0
C869 C 0.8594 0.18872 0.76018 0.0
C870 C 0.87538 0.1212 0.81576 0.0
Mg871 Mg 0.83478 0.21839 0.81025 0.0
O872 O 0.8248 0.18299 0.82557 0.0
Mg873 Mg 0.81278 0.14656 0.79829 0.0
Mg874 Mg 0.85732 0.17323 0.85133 0.0
O875 O 0.89099 0.16462 0.87733 0.0
Mg876 Mg 0.90032 0.12917 0.88483 0.0
Mg877 Mg 0.90499 0.20178 0.90292 0.0
C878 C 0.85293 0.23715 0.87797 0.0
C879 C 0.92206 0.21629 0.84006 0.0
O880 O 0.77357 0.16717 0.78026 0.0
O881 O 0.79162 0.21577 0.78819 0.0
O882 O 0.84065 0.16533 0.76309 0.0
O883 O 0.86412 0.21095 0.7789 0.0
O884 O 0.84492 0.2441 0.8527 0.0
O885 O 0.86063 0.21289 0.88138 0.0
C886 C 0.79014 0.13549 0.86176 0.0
O887 O 0.81591 0.14941 0.8742 0.0
O888 O 0.78533 0.13031 0.83415 0.0
O889 O 0.94981 0.18858 0.9193 0.0
O890 O 0.94672 0.14226 0.90117 0.0
O891 O 0.88376 0.17744 0.93732 0.0
C892 C 0.96113 0.16599 0.91557 0.0
O893 O 0.88109 0.12915 0.92699 0.0
O894 O 0.89409 0.11622 0.83617 0.0
C895 C 0.87818 0.15119 0.94402 0.0
O896 O 0.85331 0.13203 0.82189 0.0
O897 O 0.89739 0.19971 0.82802 0.0
O898 O 0.92756 0.22118 0.86741 0.0
C899 C 0.88273 0.65863 0.05954 0.0
C900 C 0.8822 0.68802 0.13515 0.0
C901 C 0.9941 0.69072 0.16848 0.0
Mg902 Mg 0.88112 0.62619 0.1137 0.0
O903 O 0.92274 0.63731 0.11036 0.0
Mg904 Mg 0.94097 0.67952 0.1114 0.0
Mg905 Mg 0.95003 0.62867 0.14178 0.0
O906 O 0.97489 0.61907 0.17494 0.0
Mg907 Mg 0.01488 0.63412 0.18526 0.0
Mg908 Mg 0.95774 0.57658 0.17284 0.0
C909 C 0.90259 0.56868 0.12998 0.0
C910 C 0.91038 0.61068 0.19697 0.0
O911 O 0.90581 0.67742 0.0717 0.0
O912 O 0.87152 0.6352 0.07065 0.0
O913 O 0.90927 0.68862 0.14298 0.0
O914 O 0.86405 0.66322 0.13164 0.0
O915 O 0.87987 0.58036 0.12477 0.0
O916 O 0.92926 0.58315 0.13225 0.0
C917 C 0.98669 0.64346 0.08239 0.0
O918 O 0.98276 0.62673 0.10331 0.0
O919 O 0.97408 0.66531 0.08133 0.0
O920 O 0.98393 0.57509 0.21748 0.0
O921 O 0.01551 0.61877 0.2271 0.0
O922 O 0.99593 0.56993 0.14676 0.0
C923 C 0.00162 0.59475 0.23508 0.0
O924 O 0.03252 0.61017 0.1525 0.0
O925 O 0.01299 0.67927 0.18292 0.0
C926 C 0.02074 0.58457 0.14031 0.0
O927 O 0.97215 0.67508 0.15175 0.0
O928 O 0.9176 0.6299 0.17892 0.0
O929 O 0.92136 0.58794 0.19736 0.0
C930 C 0.5824 0.69767 0.38468 0.0
C931 C 0.54809 0.60724 0.37689 0.0
C932 C 0.57359 0.62249 0.50129 0.0
Mg933 Mg 0.61088 0.64358 0.38314 0.0
O934 O 0.60714 0.64826 0.42329 0.0
Mg935 Mg 0.56905 0.65328 0.43842 0.0
Mg936 Mg 0.61953 0.62168 0.4499 0.0
O937 O 0.6348 0.59678 0.47711 0.0
Mg938 Mg 0.64166 0.61705 0.51404 0.0
Mg939 Mg 0.67372 0.59398 0.45992 0.0
C940 C 0.67346 0.62965 0.40315 0.0
C941 C 0.61892 0.55585 0.41609 0.0
O942 O 0.56925 0.6896 0.40685 0.0
O943 O 0.60027 0.68391 0.37301 0.0
O944 O 0.54498 0.61984 0.40148 0.0
O945 O 0.57247 0.61169 0.36534 0.0
O946 O 0.65656 0.6361 0.38225 0.0
O947 O 0.66411 0.62581 0.42809 0.0
C948 C 0.62021 0.6856 0.48689 0.0
O949 O 0.63414 0.66486 0.48207 0.0
O950 O 0.59548 0.68603 0.47261 0.0
O951 O 0.67806 0.56408 0.49644 0.0
O952 O 0.65702 0.58307 0.53328 0.0
O953 O 0.70369 0.63119 0.48703 0.0
C954 C 0.66997 0.56396 0.52223 0.0
O955 O 0.67878 0.65372 0.51627 0.0
O956 O 0.59648 0.62226 0.51901 0.0
C957 C 0.70263 0.65245 0.50499 0.0
O958 O 0.57449 0.61905 0.47311 0.0
O959 O 0.60396 0.57628 0.41876 0.0
O960 O 0.64452 0.55815 0.43003 0.0
C961 C 0.60904 0.55566 0.94171 0.0
C962 C 0.57672 0.63978 0.92933 0.0
C963 C 0.57822 0.59445 0.81737 0.0
Mg964 Mg 0.63911 0.62122 0.93532 0.0
O965 O 0.62603 0.60691 0.8965 0.0
Mg966 Mg 0.58448 0.58412 0.88367 0.0
Mg967 Mg 0.63508 0.62644 0.86115 0.0
O968 O 0.64535 0.64437 0.82554 0.0
Mg969 Mg 0.6389 0.61993 0.79112 0.0
Mg970 Mg 0.68774 0.66541 0.8376 0.0
C971 C 0.69882 0.6455 0.90378 0.0
C972 C 0.64499 0.69868 0.87204 0.0
O973 O 0.58756 0.55792 0.92313 0.0
O974 O 0.63135 0.57704 0.94948 0.0
O975 O 0.56802 0.61902 0.90917 0.0
O976 O 0.6032 0.64561 0.94289 0.0
O977 O 0.68691 0.63926 0.92731 0.0
O978 O 0.68311 0.64196 0.87925 0.0
C979 C 0.62556 0.55497 0.8441 0.0
O980 O 0.64163 0.5807 0.84305 0.0
O981 O 0.603 0.55101 0.85835 0.0
O982 O 0.68155 0.68708 0.79488 0.0
O983 O 0.6437 0.65637 0.76685 0.0
O984 O 0.7088 0.63124 0.81479 0.0
C985 C 0.662 0.68104 0.77244 0.0
O986 O 0.67526 0.59873 0.78559 0.0
O987 O 0.59487 0.5959 0.79659 0.0
C988 C 0.7021 0.60864 0.79657 0.0
O989 O 0.5867 0.60892 0.84235 0.0
O990 O 0.62775 0.67422 0.87626 0.0
O991 O 0.66844 0.6993 0.8595 0.0
C992 C 0.27991 0.72043 0.20497 0.0
C993 C 0.26995 0.62469 0.20876 0.0
C994 C 0.37164 0.62773 0.18614 0.0
Mg995 Mg 0.26243 0.664 0.16185 0.0
O996 O 0.30287 0.67085 0.16087 0.0
Mg997 Mg 0.32932 0.67837 0.1977 0.0
Mg998 Mg 0.32195 0.64357 0.13816 0.0
O999 O 0.3407 0.61608 0.11554 0.0
Mg1000 Mg 0.38104 0.61512 0.11801 0.0
Mg1001 Mg 0.3136 0.60893 0.0787 0.0
C1002 C 0.26849 0.65603 0.09471 0.0
C1003 C 0.27879 0.57561 0.12652 0.0
O1004 O 0.30521 0.7145 0.21238 0.0
O1005 O 0.2602 0.70385 0.18652 0.0
O1006 O 0.29525 0.64201 0.21782 0.0
O1007 O 0.25525 0.6274 0.18501 0.0
O1008 O 0.25377 0.66144 0.11584 0.0
O1009 O 0.29232 0.64614 0.09839 0.0
C1010 C 0.35935 0.71299 0.14381 0.0
O1011 O 0.35095 0.68872 0.12748 0.0
O1012 O 0.3566 0.71357 0.17119 0.0
O1013 O 0.33552 0.57018 0.06443 0.0
O1014 O 0.37684 0.57268 0.095 0.0
O1015 O 0.34908 0.63918 0.06063 0.0
C1016 C 0.35787 0.55975 0.07378 0.0
O1017 O 0.3946 0.64449 0.08508 0.0
O1018 O 0.38554 0.61662 0.16671 0.0
C1019 C 0.3771 0.64944 0.0638 0.0
O1020 O 0.35307 0.64342 0.17887 0.0
O1021 O 0.2905 0.59714 0.14602 0.0
O1022 O 0.2822 0.5777 0.09989 0.0
C1023 C 0.52996 0.83653 0.5754 0.0
C1024 C 0.613 0.85712 0.5461 0.0
C1025 C 0.64852 0.77145 0.58671 0.0
Mg1026 Mg 0.59245 0.87078 0.60627 0.0
O1027 O 0.5962 0.83275 0.61237 0.0
Mg1028 Mg 0.58682 0.80062 0.57984 0.0
Mg1029 Mg 0.63418 0.82518 0.63138 0.0
O1030 O 0.67211 0.8188 0.64991 0.0
Mg1031 Mg 0.6859 0.78538 0.64724 0.0
Mg1032 Mg 0.6749 0.84158 0.68786 0.0
C1033 C 0.62062 0.87684 0.67453 0.0
C1034 C 0.68903 0.88119 0.63421 0.0
O1035 O 0.5404 0.81361 0.56963 0.0
O1036 O 0.54554 0.85968 0.59019 0.0
O1037 O 0.60439 0.83062 0.55021 0.0
O1038 O 0.61259 0.8782 0.56525 0.0
O1039 O 0.60679 0.88747 0.65374 0.0
O1040 O 0.6309 0.85389 0.66986 0.0
C1041 C 0.57817 0.77484 0.63962 0.0
O1042 O 0.60353 0.78965 0.65089 0.0
O1043 O 0.56923 0.77377 0.61284 0.0
O1044 O 0.7204 0.82793 0.70176 0.0
O1045 O 0.731 0.80032 0.66436 0.0
O1046 O 0.65364 0.79967 0.70874 0.0
C1047 C 0.73793 0.8138 0.68972 0.0
O1048 O 0.6636 0.76373 0.67896 0.0
O1049 O 0.67021 0.76741 0.6039 0.0
C1050 C 0.65293 0.77257 0.70145 0.0
O1051 O 0.63446 0.79185 0.59247 0.0
O1052 O 0.66729 0.86449 0.61732 0.0
O1053 O 0.69468 0.8772 0.66106 0.0
C1054 C 0.62508 0.43904 0.92132 0.0
C1055 C 0.60509 0.35945 0.93284 0.0
C1056 C 0.71684 0.34233 0.91711 0.0
Mg1057 Mg 0.60822 0.38555 0.87655 0.0
O1058 O 0.65024 0.38788 0.88349 0.0
Mg1059 Mg 0.66863 0.38751 0.92361 0.0
Mg1060 Mg 0.6693 0.3579 0.86581 0.0
O1061 O 0.6866 0.32702 0.84611 0.0
Mg1062 Mg 0.72436 0.31969 0.85201 0.0
Mg1063 Mg 0.66654 0.324 0.80575 0.0
C1064 C 0.6249 0.36998 0.8119 0.0
C1065 C 0.61605 0.30053 0.84715 0.0
O1066 O 0.64429 0.42655 0.93427 0.0
O1067 O 0.61059 0.42866 0.89659 0.0
O1068 O 0.62855 0.35196 0.92636 0.0
O1069 O 0.58681 0.36301 0.91175 0.0
O1070 O 0.60526 0.37697 0.82775 0.0
O1071 O 0.64916 0.36429 0.82271 0.0
C1072 C 0.71495 0.41972 0.88543 0.0
O1073 O 0.70699 0.39826 0.8654 0.0
O1074 O 0.70515 0.41949 0.91022 0.0
O1075 O 0.68314 0.28127 0.79418 0.0
O1076 O 0.71481 0.27565 0.832 0.0
O1077 O 0.71001 0.34866 0.79062 0.0
C1078 C 0.69932 0.26623 0.80759 0.0
O1079 O 0.74875 0.34551 0.82196 0.0
O1080 O 0.7311 0.33002 0.89907 0.0
C1081 C 0.73812 0.35305 0.798 0.0
O1082 O 0.69317 0.35149 0.90888 0.0
O1083 O 0.6291 0.32021 0.86746 0.0
O1084 O 0.62596 0.29873 0.82247 0.0
C1085 C 0.98811 0.919 0.25675 0.0
C1086 C 0.97921 0.91698 0.35405 0.0
C1087 C 0.09445 0.93121 0.362 0.0
Mg1088 Mg 0.98168 0.87461 0.30264 0.0
O1089 O 0.02232 0.88656 0.30476 0.0
Mg1090 Mg 0.03859 0.92959 0.31516 0.0
Mg1091 Mg 0.04845 0.8699 0.33166 0.0
O1092 O 0.07541 0.85536 0.35854 0.0
Mg1093 Mg 0.11735 0.87079 0.3628 0.0
Mg1094 Mg 0.05918 0.81243 0.35219 0.0
C1095 C -0.00138 0.81183 0.30362 0.0
C1096 C 0.01028 0.83845 0.38124 0.0
O1097 O 0.00986 0.93603 0.27287 0.0
O1098 O 0.97328 0.89553 0.26505 0.0
O1099 O 0.00225 0.93338 0.34599 0.0
O1100 O 0.96811 0.89186 0.34102 0.0
O1101 O 0.98128 0.82943 0.29955 0.0
O1102 O 0.02672 0.82149 0.31267 0.0
C1103 C 0.08501 0.90138 0.28111 0.0
O1104 O 0.08035 0.87894 0.2957 0.0
O1105 O 0.07312 0.92316 0.28621 0.0
O1106 O 0.09074 0.81323 0.3967 0.0
O1107 O 0.12123 0.85806 0.4046 0.0
O1108 O 0.09632 0.81275 0.32466 0.0
C1109 C 0.11037 0.83316 0.41289 0.0
O1110 O 0.13907 0.83524 0.34713 0.0
O1111 O 0.11699 0.91894 0.36587 0.0
C1112 C 0.12114 0.8111 0.33755 0.0
O1113 O 0.06845 0.91648 0.35202 0.0
O1114 O 0.01587 0.86086 0.36677 0.0
O1115 O 0.02342 0.81734 0.37848 0.0
C1116 C 0.29155 0.41588 0.60413 0.0
C1117 C 0.38492 0.45218 0.61437 0.0
C1118 C 0.37366 0.42655 0.49697 0.0
Mg1119 Mg 0.34867 0.38982 0.61398 0.0
O1120 O 0.34492 0.39049 0.57329 0.0
Mg1121 Mg 0.33921 0.42692 0.55465 0.0
Mg1122 Mg 0.37134 0.37673 0.54693 0.0
O1123 O 0.39638 0.36334 0.51948 0.0
Mg1124 Mg 0.37758 0.36234 0.48191 0.0
Mg1125 Mg 0.39796 0.32402 0.53317 0.0
C1126 C 0.36426 0.32598 0.59537 0.0
C1127 C 0.43842 0.37451 0.58025 0.0
O1128 O 0.30198 0.42832 0.5827 0.0
O1129 O 0.30461 0.39889 0.61848 0.0
O1130 O 0.37132 0.45162 0.58932 0.0
O1131 O 0.3807 0.43042 0.62958 0.0
O1132 O 0.35846 0.34473 0.61472 0.0
O1133 O 0.36626 0.33216 0.56868 0.0
C1134 C 0.30493 0.37428 0.51029 0.0
O1135 O 0.32578 0.36049 0.51618 0.0
O1136 O 0.30651 0.39989 0.52184 0.0
O1137 O 0.42931 0.32259 0.49562 0.0
O1138 O 0.4102 0.34729 0.4614 0.0
O1139 O 0.36049 0.29899 0.49954 0.0
C1140 C 0.42882 0.3325 0.47041 0.0
O1141 O 0.33954 0.32843 0.47377 0.0
O1142 O 0.37393 0.40635 0.47715 0.0
C1143 C 0.34157 0.30289 0.47926 0.0
O1144 O 0.37516 0.42165 0.52421 0.0
O1145 O 0.41857 0.39048 0.57779 0.0
O1146 O 0.43479 0.34971 0.56557 0.0
C1147 C 0.35584 0.26869 0.18956 0.0
C1148 C 0.31793 0.34783 0.21064 0.0
C1149 C 0.29397 0.34019 0.09366 0.0
Mg1150 Mg 0.3774 0.33502 0.19406 0.0
O1151 O 0.36015 0.32787 0.15605 0.0
Mg1152 Mg 0.31748 0.3068 0.14743 0.0
Mg1153 Mg 0.36207 0.35691 0.128 0.0
O1154 O 0.36301 0.38595 0.09905 0.0
Mg1155 Mg 0.34765 0.37448 0.06006 0.0
Mg1156 Mg 0.40509 0.40848 0.10912 0.0
C1157 C 0.42737 0.37829 0.16649 0.0
C1158 C 0.36873 0.42099 0.16274 0.0
O1159 O 0.33159 0.27099 0.17472 0.0
O1160 O 0.3766 0.29075 0.19902 0.0
O1161 O 0.30509 0.33247 0.1873 0.0
O1162 O 0.34593 0.35177 0.2177 0.0
O1163 O 0.41796 0.36462 0.1878 0.0
O1164 O 0.41221 0.37478 0.14135 0.0
C1165 C 0.35501 0.29045 0.09752 0.0
O1166 O 0.37016 0.31695 0.0991 0.0
O1167 O 0.33055 0.28426 0.10872 0.0
O1168 O 0.39287 0.44084 0.07801 0.0
O1169 O 0.35174 0.41929 0.0483 0.0
O1170 O 0.42 0.38146 0.07311 0.0
C1171 C 0.37183 0.44195 0.0584 0.0
O1172 O 0.38175 0.3528 0.04439 0.0
O1173 O 0.3034 0.35042 0.07037 0.0
C1174 C 0.40969 0.36149 0.05244 0.0
O1175 O 0.31177 0.34189 0.11686 0.0
O1176 O 0.35598 0.39384 0.15976 0.0
O1177 O 0.38758 0.43175 0.1458 0.0
C1178 C 0.27479 0.19318 0.27944 0.0
C1179 C 0.36155 0.18554 0.26074 0.0
C1180 C 0.37808 0.11897 0.31784 0.0
Mg1181 Mg 0.3393 0.21594 0.31104 0.0
O1182 O 0.32793 0.18095 0.32686 0.0
Mg1183 Mg 0.31487 0.14448 0.2998 0.0
Mg1184 Mg 0.35982 0.17055 0.35313 0.0
O1185 O 0.39307 0.16161 0.38011 0.0
Mg1186 Mg 0.40457 0.127 0.38745 0.0
Mg1187 Mg 0.40832 0.19933 0.40482 0.0
C1188 C 0.35736 0.23494 0.3787 0.0
C1189 C 0.42606 0.21281 0.34209 0.0
O1190 O 0.27644 0.16638 0.28148 0.0
O1191 O 0.2965 0.21467 0.28839 0.0
O1192 O 0.3421 0.16282 0.2641 0.0
O1193 O 0.36883 0.20708 0.28029 0.0
O1194 O 0.34993 0.24188 0.35327 0.0
O1195 O 0.36419 0.21043 0.38257 0.0
C1196 C 0.2906 0.13407 0.36304 0.0
O1197 O 0.31641 0.14777 0.37588 0.0
O1198 O 0.28662 0.1287 0.33544 0.0
O1199 O 0.4533 0.18643 0.4222 0.0
O1200 O 0.45156 0.14067 0.40347 0.0
O1201 O 0.38714 0.17597 0.43943 0.0
C1202 C 0.46538 0.16433 0.41847 0.0
O1203 O 0.38683 0.12797 0.43052 0.0
O1204 O 0.39714 0.11478 0.33843 0.0
C1205 C 0.3832 0.15008 0.44706 0.0
O1206 O 0.35545 0.12914 0.32373 0.0
O1207 O 0.4013 0.19636 0.32992 0.0
O1208 O 0.43116 0.21786 0.36941 0.0
C1209 C 0.89514 0.17402 0.56472 0.0
C1210 C 0.89945 0.19769 0.64528 0.0
C1211 C 0.00742 0.16392 0.66328 0.0
Mg1212 Mg 0.8829 0.13689 0.61596 0.0
O1213 O 0.92369 0.13804 0.61286 0.0
Mg1214 Mg 0.9529 0.17646 0.61551 0.0
Mg1215 Mg 0.945 0.11839 0.64099 0.0
O1216 O 0.96413 0.09817 0.67046 0.0
Mg1217 Mg 0.00391 0.09877 0.6762 0.0
Mg1218 Mg 0.93455 0.06017 0.66823 0.0
C1219 C 0.88189 0.07056 0.62551 0.0
C1220 C 0.90694 0.11047 0.69881 0.0
O1221 O 0.92159 0.18605 0.57673 0.0
O1222 O 0.87766 0.15368 0.57548 0.0
O1223 O 0.92695 0.19671 0.64831 0.0
O1224 O 0.87966 0.17408 0.64461 0.0
O1225 O 0.86619 0.08946 0.61963 0.0
O1226 O 0.9103 0.07713 0.62999 0.0
C1227 C 0.9823 0.1282 0.58058 0.0
O1228 O 0.97378 0.11013 0.59967 0.0
O1229 O 0.97729 0.15397 0.58301 0.0
O1230 O 0.95909 0.04965 0.71086 0.0
O1231 O 0.0027 0.08264 0.71753 0.0
O1232 O 0.96328 0.0388 0.63868 0.0
C1233 C 0.98295 0.06312 0.7266 0.0
O1234 O 0.00835 0.06844 0.64195 0.0
O1235 O 0.01998 0.14412 0.67277 0.0
C1236 C 0.98959 0.04552 0.63089 0.0
O1237 O 0.97991 0.15908 0.65299 0.0
O1238 O 0.91817 0.12839 0.68098 0.0
O1239 O 0.90939 0.08399 0.69682 0.0
C1240 C 0.77407 0.22588 0.20303 0.0
C1241 C 0.7592 0.12902 0.20862 0.0
C1242 C 0.86329 0.12834 0.18812 0.0
Mg1243 Mg 0.75458 0.16901 0.16066 0.0
O1244 O 0.7948 0.17052 0.16182 0.0
Mg1245 Mg 0.82143 0.1803 0.19814 0.0
Mg1246 Mg 0.81421 0.1427 0.13988 0.0
O1247 O 0.83419 0.11558 0.11808 0.0
Mg1248 Mg 0.87481 0.11546 0.12063 0.0
Mg1249 Mg 0.80707 0.10641 0.0816 0.0
C1250 C 0.76588 0.15978 0.09484 0.0
C1251 C 0.77443 0.07361 0.13153 0.0
O1252 O 0.7982 0.21815 0.21158 0.0
O1253 O 0.75445 0.21022 0.18395 0.0
O1254 O 0.78553 0.14466 0.21762 0.0
O1255 O 0.74444 0.13327 0.18535 0.0
O1256 O 0.75154 0.16923 0.11452 0.0
O1257 O 0.783 0.14204 0.10001 0.0
C1258 C 0.85128 0.21207 0.14286 0.0
O1259 O 0.84204 0.18734 0.12749 0.0
O1260 O 0.84926 0.21403 0.17042 0.0
O1261 O 0.83048 0.06914 0.06793 0.0
O1262 O 0.87189 0.07282 0.09859 0.0
O1263 O 0.84168 0.13726 0.06228 0.0
C1264 C 0.85319 0.05944 0.07738 0.0
O1265 O 0.88748 0.1438 0.08634 0.0
O1266 O 0.87752 0.11679 0.1693 0.0
C1267 C 0.86961 0.14786 0.0649 0.0
O1268 O 0.84589 0.14501 0.18047 0.0
O1269 O 0.78482 0.09639 0.14994 0.0
O1270 O 0.77757 0.07453 0.10467 0.0
C1271 C 0.36139 0.63117 0.44597 0.0
C1272 C 0.31132 0.62642 0.36825 0.0
C1273 C 0.29766 0.51126 0.35476 0.0
Mg1274 Mg 0.37611 0.622 0.38287 0.0
O1275 O 0.36347 0.58329 0.39246 0.0
Mg1276 Mg 0.32267 0.57019 0.4048 0.0
Mg1277 Mg 0.36373 0.55168 0.36198 0.0
O1278 O 0.36474 0.52022 0.33133 0.0
Mg1279 Mg 0.34995 0.48144 0.33698 0.0
Mg1280 Mg 0.40809 0.53085 0.32757 0.0
C1281 C 0.42764 0.59216 0.36099 0.0
C1282 C 0.37615 0.57793 0.29826 0.0
O1283 O 0.34046 0.60775 0.44234 0.0
O1284 O 0.37813 0.63952 0.42636 0.0
O1285 O 0.30541 0.60355 0.38128 0.0
O1286 O 0.33793 0.63793 0.36354 0.0
O1287 O 0.41855 0.61611 0.36582 0.0
O1288 O 0.41147 0.56722 0.3632 0.0
C1289 C 0.35744 0.52013 0.42512 0.0
O1290 O 0.36975 0.52201 0.40131 0.0
O1291 O 0.3391 0.53607 0.43095 0.0
O1292 O 0.39824 0.49498 0.28934 0.0
O1293 O 0.35524 0.4643 0.2947 0.0
O1294 O 0.41828 0.49959 0.35994 0.0
C1295 C 0.37647 0.47368 0.27969 0.0
O1296 O 0.37818 0.46859 0.37033 0.0
O1297 O 0.30796 0.48928 0.34572 0.0
C1298 C 0.40609 0.47921 0.37439 0.0
O1299 O 0.31434 0.53643 0.36287 0.0
O1300 O 0.36058 0.57964 0.32008 0.0
O1301 O 0.39523 0.56178 0.29793 0.0
C1302 C 0.61862 0.49125 0.73507 0.0
C1303 C 0.59383 0.50617 0.6408 0.0
C1304 C 0.56238 0.3905 0.6253 0.0
Mg1305 Mg 0.64564 0.49424 0.67761 0.0
O1306 O 0.6283 0.45494 0.6743 0.0
Mg1307 Mg 0.58414 0.44493 0.67582 0.0
Mg1308 Mg 0.63247 0.42882 0.64076 0.0
O1309 O 0.63467 0.40095 0.60773 0.0
Mg1310 Mg 0.61692 0.35998 0.60852 0.0
Mg1311 Mg 0.67846 0.41092 0.60754 0.0
C1312 C 0.70093 0.47264 0.65781 0.0
C1313 C 0.65351 0.46363 0.58589 0.0
O1314 O 0.59543 0.4726 0.72261 0.0
O1315 O 0.63952 0.50298 0.72086 0.0
O1316 O 0.57863 0.48392 0.65084 0.0
O1317 O 0.62171 0.5146 0.64769 0.0
O1318 O 0.68878 0.4918 0.66969 0.0
O1319 O 0.68516 0.44672 0.64767 0.0
C1320 C 0.61051 0.39088 0.69423 0.0
O1321 O 0.62924 0.39502 0.6752 0.0
O1322 O 0.59119 0.40639 0.69709 0.0
O1323 O 0.6663 0.37615 0.56463 0.0
O1324 O 0.6191 0.35072 0.56384 0.0
O1325 O 0.67628 0.37799 0.63987 0.0
C1326 C 0.64288 0.35801 0.55154 0.0
O1327 O 0.65276 0.33558 0.62129 0.0
O1328 O 0.57158 0.36694 0.61815 0.0
C1329 C 0.67757 0.3525 0.63113 0.0
O1330 O 0.58078 0.41525 0.63229 0.0
O1331 O 0.63725 0.4624 0.60709 0.0
O1332 O 0.67015 0.44564 0.58086 0.0
C1333 C 0.12974 0.94471 0.91548 0.0
C1334 C 0.10624 0.85612 0.92096 0.0
C1335 C 0.21723 0.84418 0.91393 0.0
Mg1336 Mg 0.11296 0.89071 0.86882 0.0
O1337 O 0.15452 0.89273 0.87728 0.0
Mg1338 Mg 0.17319 0.89483 0.91787 0.0
Mg1339 Mg 0.17326 0.86189 0.86047 0.0
O1340 O 0.19041 0.83046 0.84168 0.0
Mg1341 Mg 0.22813 0.82379 0.8493 0.0
Mg1342 Mg 0.17341 0.82987 0.80058 0.0
C1343 C 0.132 0.87652 0.80506 0.0
C1344 C 0.12067 0.80346 0.83886 0.0
O1345 O 0.15119 0.93446 0.92727 0.0
O1346 O 0.11345 0.93243 0.89216 0.0
O1347 O 0.13348 0.86786 0.92687 0.0
O1348 O 0.09104 0.8604 0.89789 0.0
O1349 O 0.11226 0.88464 0.82 0.0
O1350 O 0.1549 0.86921 0.81709 0.0
C1351 C 0.22157 0.9229 0.88042 0.0
O1352 O 0.21277 0.90197 0.85996 0.0
O1353 O 0.21071 0.92273 0.9044 0.0
O1354 O 0.19086 0.78784 0.78837 0.0
O1355 O 0.22122 0.781 0.82667 0.0
O1356 O 0.2184 0.85624 0.78987 0.0
C1357 C 0.20688 0.77253 0.80157 0.0
O1358 O 0.25469 0.85324 0.82408 0.0
O1359 O 0.23134 0.83146 0.8961 0.0
C1360 C 0.24597 0.86189 0.80004 0.0
O1361 O 0.19488 0.85524 0.90506 0.0
O1362 O 0.13202 0.82298 0.86011 0.0
O1363 O 0.13176 0.80337 0.81461 0.0
C1364 C 0.60519 0.99334 0.22511 0.0
C1365 C 0.59249 0.00523 0.13119 0.0
C1366 C 0.56307 0.88974 0.11864 0.0
Mg1367 Mg 0.64155 0.99444 0.17392 0.0
O1368 O 0.62439 0.95545 0.16955 0.0
Mg1369 Mg 0.57973 0.94482 0.1663 0.0
Mg1370 Mg 0.63157 0.92945 0.13711 0.0
O1371 O 0.63617 0.90177 0.10507 0.0
Mg1372 Mg 0.61859 0.86078 0.10626 0.0
Mg1373 Mg 0.67996 0.91287 0.10616 0.0
C1374 C 0.69857 0.97324 0.15844 0.0
C1375 C 0.6561 0.96611 0.08312 0.0
O1376 O 0.58376 0.97477 0.21003 0.0
O1377 O 0.62966 0.00383 0.21533 0.0
O1378 O 0.5761 0.98258 0.13937 0.0
O1379 O 0.61986 0.01369 0.14092 0.0
O1380 O 0.68563 0.99189 0.17014 0.0
O1381 O 0.6835 0.9477 0.14677 0.0
C1382 C 0.60652 0.89306 0.19105 0.0
O1383 O 0.62654 0.89652 0.17309 0.0
O1384 O 0.58641 0.90802 0.19107 0.0
O1385 O 0.66919 0.87815 0.0628 0.0
O1386 O 0.62248 0.85148 0.0623 0.0
O1387 O 0.67719 0.879 0.13767 0.0
C1388 C 0.64616 0.85915 0.05 0.0
O1389 O 0.65357 0.83623 0.12009 0.0
O1390 O 0.57227 0.86597 0.11292 0.0
C1391 C 0.67848 0.85348 0.12883 0.0
O1392 O 0.58123 0.91445 0.12551 0.0
O1393 O 0.63765 0.96311 0.10255 0.0
O1394 O 0.67401 0.94903 0.07952 0.0
C1395 C 0.35948 0.13612 0.9498 0.0
C1396 C 0.30661 0.1261 0.87173 0.0
C1397 C 0.2968 0.01585 0.85906 0.0
Mg1398 Mg 0.37326 0.12688 0.88597 0.0
O1399 O 0.36306 0.08809 0.89683 0.0
Mg1400 Mg 0.32325 0.07368 0.91043 0.0
Mg1401 Mg 0.36247 0.05673 0.86548 0.0
O1402 O 0.3631 0.02604 0.83381 0.0
Mg1403 Mg 0.34919 0.98699 0.83973 0.0
Mg1404 Mg 0.40668 0.0376 0.83027 0.0
C1405 C 0.42609 0.09749 0.86566 0.0
C1406 C 0.3755 0.08632 0.80324 0.0
O1407 O 0.3402 0.1116 0.94705 0.0
O1408 O 0.37483 0.14536 0.92946 0.0
O1409 O 0.3036 0.10461 0.88672 0.0
O1410 O 0.3323 0.13879 0.86526 0.0
O1411 O 0.41711 0.12162 0.87016 0.0
O1412 O 0.40926 0.0727 0.8665 0.0
C1413 C 0.35944 0.02424 0.92815 0.0
O1414 O 0.36853 0.0254 0.90281 0.0
O1415 O 0.34306 0.04125 0.93662 0.0
O1416 O 0.39741 0.0023 0.79213 0.0
O1417 O 0.35508 0.97045 0.79744 0.0
O1418 O 0.41791 0.00609 0.86194 0.0
C1419 C 0.37625 0.98047 0.78255 0.0
O1420 O 0.37868 0.97414 0.87247 0.0
O1421 O 0.30656 0.99392 0.84885 0.0
C1422 C 0.4065 0.98536 0.87631 0.0
O1423 O 0.31401 0.04054 0.86788 0.0
O1424 O 0.35932 0.08615 0.82482 0.0
O1425 O 0.39413 0.06979 0.80134 0.0
C1426 C 0.78969 0.72416 0.71128 0.0
C1427 C 0.7824 0.62953 0.71973 0.0
C1428 C 0.87491 0.62585 0.68638 0.0
Mg1429 Mg 0.76739 0.66628 0.67052 0.0
O1430 O 0.80709 0.66938 0.66662 0.0
Mg1431 Mg 0.8381 0.68087 0.70008 0.0
Mg1432 Mg 0.82404 0.64133 0.64195 0.0
O1433 O 0.84166 0.61436 0.61737 0.0
Mg1434 Mg 0.8814 0.61211 0.61785 0.0
Mg1435 Mg 0.81221 0.60579 0.58253 0.0
C1436 C 0.77114 0.65714 0.60232 0.0
C1437 C 0.78325 0.57161 0.63364 0.0
O1438 O 0.81535 0.71803 0.7164 0.0
O1439 O 0.76851 0.70732 0.69464 0.0
O1440 O 0.80843 0.64645 0.72543 0.0
O1441 O 0.76427 0.632 0.69799 0.0
O1442 O 0.75863 0.66595 0.62387 0.0
O1443 O 0.78995 0.64073 0.60532 0.0
C1444 C 0.86035 0.71136 0.64137 0.0
O1445 O 0.84988 0.68624 0.62699 0.0
O1446 O 0.86121 0.71399 0.66923 0.0
O1447 O 0.83439 0.56802 0.56542 0.0
O1448 O 0.87592 0.56953 0.5953 0.0
O1449 O 0.84462 0.63724 0.56096 0.0
C1450 C 0.85688 0.55739 0.57387 0.0
O1451 O 0.89126 0.63873 0.58177 0.0
O1452 O 0.88676 0.61268 0.66663 0.0
C1453 C 0.87297 0.6445 0.56154 0.0
O1454 O 0.85978 0.64467 0.67958 0.0
O1455 O 0.7951 0.59362 0.65281 0.0
O1456 O 0.78508 0.57393 0.60679 0.0
C1457 C 0.14392 0.44769 0.4216 0.0
C1458 C 0.11009 0.35794 0.42463 0.0
C1459 C 0.21868 0.33911 0.41068 0.0
Mg1460 Mg 0.11852 0.39488 0.37425 0.0
O1461 O 0.15842 0.391 0.37939 0.0
Mg1462 Mg 0.17964 0.39153 0.41903 0.0
Mg1463 Mg 0.17289 0.35829 0.35983 0.0
O1464 O 0.18687 0.32544 0.33978 0.0
Mg1465 Mg 0.22526 0.31994 0.34522 0.0
Mg1466 Mg 0.1672 0.32436 0.29955 0.0
C1467 C 0.12814 0.37485 0.30826 0.0
C1468 C 0.11794 0.30165 0.34297 0.0
O1469 O 0.16352 0.4342 0.43175 0.0
O1470 O 0.12546 0.43745 0.399 0.0
O1471 O 0.13812 0.36631 0.4309 0.0
O1472 O 0.09602 0.36515 0.40236 0.0
O1473 O 0.11335 0.38729 0.32584 0.0
O1474 O 0.15107 0.36536 0.31705 0.0
C1475 C 0.22427 0.41766 0.37653 0.0
O1476 O 0.21274 0.39689 0.3565 0.0
O1477 O 0.21751 0.4171 0.40235 0.0
O1478 O 0.18391 0.28117 0.28689 0.0
O1479 O 0.21827 0.27729 0.32314 0.0
O1480 O 0.21064 0.35042 0.28496 0.0
C1481 C 0.20178 0.26711 0.2995 0.0
O1482 O 0.2485 0.35014 0.31853 0.0
O1483 O 0.23218 0.32655 0.39221 0.0
C1484 C 0.23842 0.35761 0.29436 0.0
O1485 O 0.19638 0.35046 0.40281 0.0
O1486 O 0.13134 0.32197 0.36269 0.0
O1487 O 0.12704 0.29923 0.31784 0.0
C1488 C 0.1272 0.98607 0.53592 0.0
C1489 C 0.12896 0.98766 0.56638 0.0
C1490 C 0.13905 0.01027 0.52178 0.0
C1491 C 0.15283 0.03699 0.53763 0.0
H1492 H 0.11835 0.96539 0.52304 0.0
H1493 H 0.13701 0.00812 0.49827 0.0
S1494 S 0.16183 0.05303 0.61749 0.0
N1495 N 0.14482 0.01828 0.6118 0.0
N1496 N 0.16627 0.06424 0.58509 0.0
C1497 C 0.15356 0.03926 0.56797 0.0
C1498 C 0.14159 0.01455 0.58237 0.0
C1499 C 0.9677 0.43655 0.71387 0.0
C1500 C 0.99012 0.42293 0.72461 0.0
C1501 C 0.95146 0.42622 0.68679 0.0
C1502 C 0.95547 0.40074 0.67139 0.0
H1503 H 0.96001 0.45229 0.72786 0.0
H1504 H 0.93182 0.43414 0.68095 0.0
S1505 S 0.01849 0.36457 0.6855 0.0
N1506 N 0.02203 0.38936 0.71349 0.0
N1507 N 0.98929 0.36841 0.66399 0.0
C1508 C 0.98173 0.39127 0.67893 0.0
C1509 C -0.00072 0.40251 0.70572 0.0
C1510 C 0.65831 0.22751 0.01368 0.0
C1511 C 0.63141 0.22148 -0.00428 0.0
C1512 C 0.66582 0.25207 0.03405 0.0
C1513 C 0.64653 0.27168 0.03772 0.0
H1514 H 0.67306 0.21255 0.01295 0.0
H1515 H 0.68628 0.25456 0.04831 0.0
S1516 S 0.57835 0.27135 0.98906 0.0
N1517 N 0.58891 0.24135 0.97777 0.0
N1518 N 0.60319 0.28715 0.01638 0.0
C1519 C 0.62158 0.26811 0.01724 0.0
C1520 C 0.61393 0.24308 -0.00373 0.0
C1521 C 0.79196 0.87857 0.27834 0.0
C1522 C 0.76108 0.87588 0.27141 0.0
C1523 C 0.81024 0.87358 0.25688 0.0
C1524 C 0.79833 0.86576 0.22771 0.0
H1525 H 0.80162 0.88157 0.30076 0.0
H1526 H 0.83327 0.87334 0.26371 0.0
S1527 S 0.7218 0.86749 0.19697 0.0
N1528 N 0.72149 0.8736 0.23235 0.0
N1529 N 0.7559 0.86386 0.19205 0.0
C1530 C 0.76875 0.86789 0.21993 0.0
C1531 C 0.75015 0.87325 0.24179 0.0
C1532 C 0.12575 0.21548 0.6935 0.0
C1533 C 0.13172 0.24487 0.70522 0.0
C1534 C 0.12702 0.19316 0.71124 0.0
C1535 C 0.13462 0.19964 0.74115 0.0
H1536 H 0.12249 0.2098 0.67027 0.0
H1537 H 0.12385 0.17098 0.7013 0.0
S1538 S 0.1457 0.27184 0.78333 0.0
N1539 N 0.14082 0.27856 0.74911 0.0
N1540 N 0.14281 0.23623 0.78262 0.0
C1541 C 0.13753 0.22837 0.75356 0.0
C1542 C 0.13601 0.25114 0.7355 0.0
C1543 C 0.74046 0.3795 0.95774 0.0
C1544 C 0.73197 0.35008 0.94682 0.0
C1545 C 0.76283 0.38872 0.98092 0.0
C1546 C 0.77751 0.36879 0.99416 0.0
H1547 H 0.73154 0.39585 0.947 0.0
H1548 H 0.76974 0.41193 0.98737 0.0
S1549 S 0.75729 0.28826 0.97853 0.0
N1550 N 0.73604 0.30037 0.95385 0.0
N1551 N 0.77713 0.31754 -0.00144 0.0
C1552 C 0.76686 0.3389 0.98546 0.0
C1553 C 0.74433 0.32959 0.96151 0.0
C1554 C 0.6162 0.02065 0.30428 0.0
C1555 C 0.60874 0.04806 0.30293 0.0
C1556 C 0.6128 0.00114 0.27907 0.0
C1557 C 0.60046 0.00807 0.25238 0.0
H1558 H 0.62566 0.01478 0.32458 0.0
H1559 H 0.62087 0.98116 0.28019 0.0
S1560 S 0.57517 0.07539 0.23759 0.0
N1561 N 0.58722 0.07978 0.27244 0.0
N1562 N 0.57989 0.04287 0.22604 0.0
C1563 C 0.59159 0.03445 0.25112 0.0
C1564 C 0.59595 0.05452 0.27621 0.0
C1565 C 0.97368 0.80925 0.40918 0.0
C1566 C 0.9897 0.83684 0.40342 0.0
C1567 C 0.95537 0.80656 0.43163 0.0
C1568 C 0.95317 0.83136 0.44909 0.0
H1569 H 0.97479 0.78968 0.39581 0.0
H1570 H 0.94181 0.78539 0.43435 0.0
S1571 S 0.992 0.90795 0.4444 0.0
N1572 N 0.00324 0.88898 0.41786 0.0
N1573 N 0.96909 0.88393 0.46044 0.0
C1574 C 0.96995 0.85882 0.4443 0.0
C1575 C 0.98809 0.86162 0.42123 0.0
C1576 C 0.52562 0.11475 0.06225 0.0
C1577 C 0.51464 0.14056 0.06512 0.0
C1578 C 0.54348 0.10933 0.03996 0.0
C1579 C 0.55103 0.12906 0.01883 0.0
H1580 H 0.52116 0.09889 0.07786 0.0
H1581 H 0.55288 0.09005 0.0402 0.0
S1582 S 0.528 0.19979 0.01565 0.0
N1583 N 0.5126 0.18601 0.04367 0.0
N1584 N 0.54576 0.17547 0.00252 0.0
C1585 C 0.53946 0.15442 0.02082 0.0
C1586 C 0.52144 0.16018 0.04359 0.0
C1587 C 0.82622 0.69268 0.2113 0.0
C1588 C 0.85364 0.68922 0.22497 0.0
C1589 C 0.82461 0.71763 0.19733 0.0
C1590 C 0.8505 0.73892 0.19577 0.0
H1591 H 0.80544 0.67891 0.21558 0.0
H1592 H 0.80282 0.72153 0.19044 0.0
S1593 S 0.92831 0.73083 0.21379 0.0
N1594 N 0.90743 0.70274 0.22667 0.0
N1595 N 0.90485 0.74899 0.19864 0.0
C1596 C 0.87835 0.732 0.20325 0.0
C1597 C 0.87984 0.70691 0.218 0.0
C1598 C 0.24228 0.18817 0.56289 0.0
C1599 C 0.26127 0.16826 0.56531 0.0
C1600 C 0.22503 0.18863 0.5369 0.0
C1601 C 0.22598 0.16847 0.51347 0.0
H1602 H 0.23812 0.20107 0.58178 0.0
H1603 H 0.20728 0.20053 0.53708 0.0
S1604 S 0.28568 0.12759 0.50404 0.0
N1605 N 0.28994 0.13918 0.53889 0.0
N1606 N 0.2577 0.14059 0.48955 0.0
C1607 C 0.2512 0.1559 0.51323 0.0
C1608 C 0.2685 0.15497 0.53979 0.0
C1609 C 0.892 0.47025 0.73108 0.0
C1610 C 0.86855 0.46098 0.74786 0.0
C1611 C 0.88968 0.46057 0.7017 0.0
C1612 C 0.8648 0.43964 0.68858 0.0
H1613 H 0.91244 0.48496 0.74064 0.0
H1614 H 0.90822 0.46857 0.68973 0.0
S1615 S 0.79273 0.41941 0.71877 0.0
N1616 N 0.81575 0.43816 0.74612 0.0
N1617 N 0.81302 0.41727 0.69151 0.0
C1618 C 0.8399 0.43297 0.70393 0.0
C1619 C 0.84153 0.44406 0.73353 0.0
C1620 C 0.50885 0.11529 0.31728 0.0
C1621 C 0.52886 0.09822 0.32639 0.0
C1622 C 0.49569 0.11036 0.28853 0.0
C1623 C 0.49958 0.08628 0.27051 0.0
H1624 H 0.50983 0.13637 0.32895 0.0
H1625 H 0.48608 0.1273 0.27944 0.0
S1626 S 0.52748 0.02323 0.29529 0.0
N1627 N 0.53578 0.0483 0.32343 0.0
N1628 N 0.51041 0.03783 0.26925 0.0
C1629 C 0.51011 0.06404 0.28347 0.0
C1630 C 0.52372 0.06972 0.31258 0.0
C1631 C 0.84759 0.79896 0.42093 0.0
C1632 C 0.83597 0.78666 0.44534 0.0
C1633 C 0.85516 0.7816 0.3983 0.0
C1634 C 0.85128 0.75136 0.39923 0.0
H1635 H 0.85308 0.82242 0.42024 0.0
H1636 H 0.86496 0.79202 0.38041 0.0
S1637 S 0.81475 0.7082 0.455 0.0
N1638 N 0.81669 0.7425 0.46709 0.0
N1639 N 0.82993 0.70927 0.42412 0.0
C1640 C 0.83727 0.73855 0.42236 0.0
C1641 C 0.82973 0.75635 0.44544 0.0
C1642 C 0.25772 0.11655 0.75869 0.0
C1643 C 0.25096 0.10886 0.72876 0.0
C1644 C 0.23544 0.11069 0.77712 0.0
C1645 C 0.20604 0.09649 0.76625 0.0
H1646 H 0.27866 0.13103 0.76733 0.0
H1647 H 0.24028 0.12145 0.79888 0.0
S1648 S 0.18218 0.05933 0.69229 0.0
N1649 N 0.21676 0.07723 0.69095 0.0
N1650 N 0.17476 0.06592 0.7259 0.0
C1651 C 0.20129 0.0828 0.73784 0.0
C1652 C 0.22395 0.08903 0.71892 0.0
C1653 C 0.8386 0.46359 0.98051 0.0
C1654 C 0.86714 0.45893 0.98961 0.0
C1655 C 0.83446 0.48463 0.96107 0.0
C1656 C 0.85854 0.50134 0.94873 0.0
H1657 H 0.81907 0.44972 0.98721 0.0
H1658 H 0.81193 0.4867 0.95448 0.0
S1659 S 0.93807 0.49947 0.96717 0.0
N1660 N 0.92004 0.47449 0.98606 0.0
N1661 N 0.91237 0.51316 0.94926 0.0
C1662 C 0.88725 0.49759 0.95838 0.0
C1663 C 0.89147 0.47666 0.97872 0.0
C1664 C 0.08803 0.55951 0.12109 0.0
C1665 C 0.0755 0.5295 0.11481 0.0
C1666 C 0.06962 0.57926 0.12504 0.0
C1667 C 0.0385 0.56928 0.12229 0.0
H1668 H 0.11172 0.56719 0.12746 0.0
H1669 H 0.07989 0.60132 0.13411 0.0
S1670 S -0.00355 0.49629 0.09002 0.0
N1671 N 0.03153 0.49313 0.09463 0.0
N1672 N -0.0033 0.53056 0.10108 0.0
C1673 C 0.02635 0.54104 0.10873 0.0
C1674 C 0.04507 0.52091 0.10511 0.0
C1675 C 0.55947 0.21127 0.1517 0.0
C1676 C 0.52984 0.21247 0.15607 0.0
C1677 C 0.57549 0.23003 0.13439 0.0
C1678 C 0.56238 0.25033 0.12094 0.0
H1679 H 0.57021 0.19509 0.16087 0.0
H1680 H 0.59816 0.22867 0.1313 0.0
S1681 S 0.4873 0.26482 0.12764 0.0
N1682 N 0.48906 0.23732 0.14734 0.0
N1683 N 0.51955 0.27268 0.11406 0.0
C1684 C 0.5332 0.2524 0.12536 0.0
C1685 C 0.51683 0.23344 0.14326 0.0
C1686 C 0.72461 0.70328 0.29395 0.0
C1687 C 0.74438 0.70695 0.27252 0.0
C1688 C 0.70925 0.72509 0.30143 0.0
C1689 C 0.71239 0.7505 0.28692 0.0
H1690 H 0.72438 0.68575 0.30782 0.0
H1691 H 0.69724 0.72341 0.32044 0.0
S1692 S 0.75608 0.76712 0.22499 0.0
N1693 N 0.76242 0.73544 0.23386 0.0
N1694 N 0.7325 0.77583 0.24713 0.0
C1695 C 0.72846 0.75225 0.26268 0.0
C1696 C 0.7446 0.73042 0.25549 0.0
C1697 C 0.23472 0.03067 0.60638 0.0
C1698 C 0.25325 0.04744 0.63039 0.0
C1699 C 0.21725 0.00279 0.60861 0.0
C1700 C 0.21734 0.99018 0.63496 0.0
H1701 H 0.23284 0.03958 0.58565 0.0
H1702 H 0.20145 0.99235 0.59029 0.0
S1703 S 0.26375 0.02306 0.70371 0.0
N1704 N 0.27243 0.0478 0.68073 0.0
N1705 N 0.23907 0.99579 0.68523 0.0
C1706 C 0.23714 0.00586 0.65865 0.0
C1707 C 0.25492 0.03439 0.65642 0.0
C1708 C 0.45667 0.47656 0.39296 0.0
C1709 C 0.42613 0.46341 0.38976 0.0
C1710 C 0.47733 0.46028 0.38546 0.0
C1711 C 0.46803 0.43032 0.37642 0.0
H1712 H 0.4639 0.50014 0.39565 0.0
H1713 H 0.49952 0.47208 0.38274 0.0
S1714 S 0.39387 0.38403 0.38336 0.0
N1715 N 0.38981 0.41789 0.39014 0.0
N1716 N 0.42909 0.38664 0.37754 0.0
C1717 C 0.43925 0.41606 0.3816 0.0
C1718 C 0.41807 0.43288 0.38855 0.0
C1719 C 0.27592 0.79432 0.18629 0.0
C1720 C 0.2495 0.79763 0.19773 0.0
C1721 C 0.28927 0.77114 0.19308 0.0
C1722 C 0.27613 0.7504 0.21095 0.0
H1723 H 0.28395 0.8072 0.16913 0.0
H1724 H 0.30739 0.76716 0.1811 0.0
S1725 S 0.21185 0.75376 0.25196 0.0
N1726 N 0.21481 0.78221 0.23281 0.0
N1727 N 0.23923 0.73773 0.24428 0.0
C1728 C 0.25252 0.75595 0.22574 0.0
C1729 C 0.23946 0.78005 0.21956 0.0
C1730 C 0.76263 0.00617 0.39612 0.0
C1731 C 0.76294 0.01531 0.36829 0.0
C1732 C 0.75123 0.97687 0.39904 0.0
C1733 C 0.73578 0.95776 0.37501 0.0
H1734 H 0.77715 0.01922 0.41412 0.0
H1735 H 0.75504 0.96907 0.4201 0.0
S1736 S 0.71284 0.98003 0.30322 0.0
N1737 N 0.73533 0.00954 0.32053 0.0
N1738 N 0.71068 0.95457 0.32604 0.0
C1739 C 0.72871 0.96979 0.34928 0.0
C1740 C 0.74123 -0.00045 0.34659 0.0
C1741 C 0.93687 0.24898 0.80167 0.0
C1742 C 0.94505 0.23251 0.82353 0.0
C1743 C 0.95731 0.27298 0.79418 0.0
C1744 C 0.98633 0.28232 0.80931 0.0
H1745 H 0.9139 0.24551 0.79256 0.0
H1746 H 0.94901 0.28609 0.77851 0.0
S1747 S 0.02124 0.24047 0.86124 0.0
N1748 N 0.98631 0.22213 0.8545 0.0
N1749 N 0.0241 0.26836 0.84145 0.0
C1750 C 0.996 0.26342 0.82793 0.0
C1751 C 0.97541 0.23836 0.83493 0.0
C1752 C 0.89187 0.9899 0.44649 0.0
C1753 C 0.86733 0.00294 0.44938 0.0
C1754 C 0.89747 0.96762 0.46362 0.0
C1755 C 0.87941 0.95764 0.48544 0.0
H1756 H 0.9067 0.99672 0.43048 0.0
H1757 H 0.91556 0.95716 0.45885 0.0
S1758 S 0.81438 0.98707 0.50502 0.0
N1759 N 0.82606 0.00567 0.47799 0.0
N1760 N 0.8373 0.96484 0.51054 0.0
C1761 C 0.85611 0.97202 0.49017 0.0
C1762 C 0.84999 0.99439 0.47225 0.0
C1763 C 0.00998 0.61589 0.28645 0.0
C1764 C 0.00516 0.59103 0.26624 0.0
C1765 C 0.02178 0.61495 0.31509 0.0
C1766 C 0.03276 0.59045 0.32235 0.0
H1767 H 0.007 0.63668 0.27956 0.0
H1768 H 0.02905 0.63544 0.32867 0.0
S1769 S 0.00739 0.51629 0.28445 0.0
N1770 N -0.00171 0.53811 0.26053 0.0
N1771 N 0.02238 0.53761 0.31429 0.0
C1772 C 0.01977 0.56396 0.30573 0.0
C1773 C 0.00678 0.56423 0.27681 0.0
C1774 C 0.35487 0.74233 0.93001 0.0
C1775 C 0.3505 0.75277 0.90271 0.0
C1776 C 0.3465 0.7555 0.95482 0.0
C1777 C 0.33451 0.78056 0.95369 0.0
H1778 H 0.36526 0.72393 0.93256 0.0
H1779 H 0.35198 0.74743 0.9754 0.0
S1780 S 0.31222 0.81284 0.88674 0.0
N1781 N 0.32852 0.78665 0.87528 0.0
N1782 N 0.31322 0.81196 0.92222 0.0
C1783 C 0.32712 0.78949 0.92615 0.0
C1784 C 0.33553 0.77586 0.9007 0.0
C1785 C 0.22814 0.69609 0.04381 0.0
C1786 C 0.23035 0.6811 0.0172 0.0
C1787 C 0.24249 0.68904 0.06893 0.0
C1788 C 0.2605 0.66817 0.0677 0.0
H1789 H 0.21048 0.70775 0.04632 0.0
H1790 H 0.23709 0.69806 0.08942 0.0
S1791 S 0.28908 0.64086 0.0015 0.0
N1792 N 0.26364 0.65855 0.98962 0.0
N1793 N 0.29011 0.64389 0.03724 0.0
C1794 C 0.26957 0.66038 0.04083 0.0
C1795 C 0.25537 0.66842 0.01521 0.0
C1796 C 0.35399 0.94215 0.74244 0.0
C1797 C 0.37452 0.9683 0.75223 0.0
C1798 C 0.3522 0.92976 0.71401 0.0
C1799 C 0.37097 0.94295 0.69438 0.0
H1800 H 0.33963 0.93077 0.75696 0.0
H1801 H 0.33692 0.90899 0.7078 0.0
S1802 S 0.42353 0.01516 0.70732 0.0
N1803 N 0.41045 0.00959 0.73876 0.0
N1804 N 0.40687 0.98624 0.68509 0.0
C1805 C 0.38941 0.97062 0.70299 0.0
C1806 C 0.39145 0.98317 0.73208 0.0
C1807 C 0.01822 0.1011 0.55673 0.0
C1808 C -0.00093 0.12074 0.55506 0.0
C1809 C 0.03777 0.09815 0.53531 0.0
C1810 C 0.03919 0.11431 0.51061 0.0
H1811 H 0.01948 0.08926 0.57567 0.0
H1812 H 0.05341 0.08418 0.5391 0.0
S1813 S 0.99025 0.16525 0.49297 0.0
N1814 N 0.98035 0.15417 0.52425 0.0
N1815 N 0.01687 0.1484 0.48459 0.0
C1816 C 0.01854 0.13229 0.50746 0.0
C1817 C -0.00129 0.13555 0.52943 0.0
C1818 C 0.50248 0.84731 0.94404 0.0
C1819 C 0.49517 0.84517 0.91384 0.0
C1820 C 0.48046 0.83898 0.96244 0.0
C1821 C 0.45075 0.82772 0.95094 0.0
H1822 H 0.52535 0.85549 0.95342 0.0
H1823 H 0.48641 0.8428 0.98571 0.0
S1824 S 0.42159 0.81311 0.87299 0.0
N1825 N 0.45733 0.82799 0.87304 0.0
N1826 N 0.41576 0.81196 0.90748 0.0
C1827 C 0.44366 0.82382 0.92062 0.0
C1828 C 0.46593 0.83273 0.90206 0.0
C1829 C 0.7482 0.88638 0.45401 0.0
C1830 C 0.7385 0.85731 0.44222 0.0
C1831 C 0.77035 0.89396 0.47754 0.0
C1832 C 0.78346 0.87267 0.49021 0.0
H1833 H 0.74053 0.90365 0.44362 0.0
H1834 H 0.77845 0.91694 0.48463 0.0
S1835 S 0.75977 0.79265 0.47177 0.0
N1836 N 0.73979 0.80663 0.44751 0.0
N1837 N 0.78041 0.82073 0.49291 0.0
C1838 C 0.77152 0.8432 0.48057 0.0
C1839 C 0.74928 0.83555 0.45626 0.0
C1840 C 0.0904 0.51215 0.26555 0.0
C1841 C 0.11625 0.51161 0.25207 0.0
C1842 C 0.0924 0.52604 0.29351 0.0
C1843 C 0.1201 0.53982 0.30864 0.0
H1844 H 0.06857 0.50319 0.25397 0.0
H1845 H 0.07212 0.52764 0.30267 0.0
S1846 S 0.19442 0.53675 0.2867 0.0
N1847 N 0.17078 0.52099 0.2584 0.0
N1848 N 0.17377 0.54689 0.31113 0.0
C1849 C 0.1461 0.53693 0.29673 0.0
C1850 C 0.14432 0.52292 0.2683 0.0
C1851 C 0.45236 0.93138 0.69951 0.0
C1852 C 0.46055 0.909 0.68225 0.0
C1853 C 0.46777 0.94196 0.72685 0.0
C1854 C 0.49295 0.93176 0.73665 0.0
H1855 H 0.43081 0.93625 0.69495 0.0
H1856 H 0.4576 0.9548 0.74171 0.0
S1857 S 0.53044 0.88281 0.69447 0.0
N1858 N 0.50001 0.88372 0.67319 0.0
N1859 N 0.53038 0.90501 0.72376 0.0
C1860 C 0.50519 0.91483 0.71674 0.0
C1861 C 0.48884 0.90337 0.68935 0.0
C1862 C 0.15719 0.24452 0.5315 0.0
C1863 C 0.13474 0.25354 0.54646 0.0
C1864 C 0.15039 0.22081 0.50987 0.0
C1865 C 0.12092 0.20523 0.50267 0.0
H1866 H 0.18032 0.25551 0.53704 0.0
H1867 H 0.16818 0.21476 0.49873 0.0
S1868 S 0.0545 0.21813 0.53727 0.0
N1869 N 0.08234 0.24379 0.55339 0.0
N1870 N 0.06935 0.19948 0.51331 0.0
C1871 C 0.09838 0.21398 0.5176 0.0
C1872 C 0.10531 0.23811 0.53928 0.0
C1873 C 0.13847 0.51412 0.06712 0.0
C1874 C 0.15657 0.49408 0.06247 0.0
C1875 C 0.14459 0.54141 0.05659 0.0
C1876 C 0.16869 0.54949 0.04018 0.0
H1877 H 0.11923 0.50865 0.07882 0.0
H1878 H 0.12945 0.55576 0.06041 0.0
S1879 S 0.22215 0.50452 0.02006 0.0
N1880 N 0.19935 0.48387 0.03924 0.0
N1881 N 0.21041 0.53527 0.01905 0.0
C1882 C 0.18675 0.52957 0.03477 0.0
C1883 C 0.18068 0.50176 0.04577 0.0
C1884 C 0.93639 0.41537 0.87647 0.0
C1885 C 0.96591 0.43027 0.87458 0.0
C1886 C 0.91503 0.43087 0.88414 0.0
C1887 C 0.92291 0.46144 0.88909 0.0
H1888 H 0.92873 0.39266 0.86812 0.0
H1889 H 0.89182 0.4196 0.88068 0.0
S1890 S -0.00031 0.50597 0.90515 0.0
N1891 N 0.00399 0.47361 0.89222 0.0
N1892 N 0.96339 0.50324 0.90508 0.0
C1893 C 0.9533 0.47463 0.8953 0.0
C1894 C 0.97511 0.45882 0.88801 0.0
C1895 C 0.49732 0.76609 0.83095 0.0
C1896 C 0.48823 0.78684 0.81414 0.0
C1897 C 0.47678 0.74062 0.83574 0.0
C1898 C 0.44623 0.73545 0.82476 0.0
H1899 H 0.5195 0.77066 0.84246 0.0
H1900 H 0.4842 0.72632 0.85066 0.0
S1901 S 0.4118 0.78194 0.77743 0.0
N1902 N 0.44752 0.79761 0.78216 0.0
N1903 N 0.4088 0.75315 0.79589 0.0
C1904 C 0.4376 0.75491 0.80628 0.0
C1905 C 0.45869 0.77969 0.79978 0.0
C1906 C 0.29006 0.27594 0.69402 0.0
C1907 C 0.27695 0.25497 0.71165 0.0
C1908 C 0.27712 0.29964 0.68824 0.0
C1909 C 0.25091 0.30297 0.70015 0.0
H1910 H 0.30772 0.27184 0.68145 0.0
H1911 H 0.28497 0.31271 0.67115 0.0
S1912 S 0.21423 0.25886 0.75471 0.0
N1913 N 0.24096 0.24242 0.74589 0.0
N1914 N 0.21714 0.28764 0.73603 0.0
C1915 C 0.24127 0.28527 0.72202 0.0
C1916 C 0.25401 0.26076 0.72731 0.0
C1917 C 0.5692 0.57469 0.63266 0.0
C1918 C 0.5382 0.5634 0.62965 0.0
C1919 C 0.58884 0.55583 0.63101 0.0
C1920 C 0.57762 0.52557 0.62609 0.0
H1921 H 0.5784 0.59738 0.64032 0.0
H1922 H 0.61228 0.56463 0.63785 0.0
S1923 S 0.4998 0.4879 0.60176 0.0
N1924 N 0.49812 0.52208 0.61074 0.0
N1925 N 0.5354 0.48688 0.60678 0.0
C1926 C 0.54751 0.51535 0.61579 0.0
C1927 C 0.52748 0.53434 0.61787 0.0
C1928 C 0.73657 0.22272 0.75843 0.0
C1929 C 0.74083 0.20024 0.77558 0.0
C1930 C 0.71869 0.24206 0.76666 0.0
C1931 C 0.70515 0.23967 0.79253 0.0
H1932 H 0.7502 0.22775 0.74091 0.0
H1933 H 0.71881 0.2611 0.75489 0.0
S1934 S 0.70387 0.18069 0.841 0.0
N1935 N 0.72518 0.1732 0.816 0.0
N1936 N 0.69256 0.21026 0.83208 0.0
C1937 C 0.70581 0.21495 0.80741 0.0
C1938 C 0.7233 0.19483 0.79858 0.0
C1939 C 0.01828 0.74752 0.12446 0.0
C1940 C 0.04657 0.75909 0.13977 0.0
C1941 C -0.00368 0.73005 0.13739 0.0
C1942 C 0.00304 0.72169 0.16493 0.0
H1943 H 0.01328 0.75049 0.1018 0.0
H1944 H 0.97615 0.71981 0.12394 0.0
S1945 S 0.06412 0.76123 0.21938 0.0
N1946 N 0.07332 0.77323 0.18819 0.0
N1947 N 0.03232 0.73704 0.21166 0.0
C1948 C 0.02763 0.73871 0.18264 0.0
C1949 C 0.04983 0.75773 0.16992 0.0
C1950 C 0.97736 0.8835 0.18255 0.0
C1951 C 0.95464 0.89636 0.17083 0.0
C1952 C 0.99287 0.89456 0.20969 0.0
C1953 C 0.9866 0.91919 0.22504 0.0
H1954 H 0.9787 0.86176 0.17404 0.0
H1955 H 0.00625 0.88127 0.22051 0.0
S1956 S 0.94715 0.97173 0.19267 0.0
N1957 N 0.94018 0.94306 0.16818 0.0
N1958 N 0.96783 0.96328 0.22035 0.0
C1959 C 0.97059 0.9364 0.20976 0.0
C1960 C 0.95541 0.92529 0.18176 0.0
C1961 C 0.63106 0.75725 0.53388 0.0
C1962 C 0.63875 0.74945 0.56155 0.0
C1963 C 0.6267 0.73672 0.50943 0.0
C1964 C 0.62973 0.70774 0.51203 0.0
H1965 H 0.62884 0.77931 0.53115 0.0
H1966 H 0.6206 0.74345 0.48835 0.0
S1967 S 0.64241 0.67507 0.58094 0.0
N1968 N 0.64462 0.70992 0.59086 0.0
N1969 N 0.63592 0.67156 0.54525 0.0
C1970 C 0.63558 0.69943 0.53991 0.0
C1971 C 0.64005 0.7202 0.56461 0.0
C1972 C 0.80883 0.3616 0.76118 0.0
C1973 C 0.79779 0.35253 0.73196 0.0
C1974 C 0.78949 0.36471 0.7823 0.0
C1975 C 0.75839 0.35903 0.775 0.0
H1976 H 0.83241 0.36478 0.76817 0.0
H1977 H 0.79889 0.36981 0.80476 0.0
S1978 S 0.71879 0.34026 0.70042 0.0
N1979 N 0.75422 0.34231 0.6961 0.0
N1980 N 0.71793 0.34756 0.73554 0.0
C1981 C 0.74739 0.35257 0.74537 0.0
C1982 C 0.76703 0.3493 0.72395 0.0
C1983 C 0.12216 0.69424 0.21348 0.0
C1984 C 0.13044 0.70215 0.24321 0.0
C1985 C 0.12191 0.71569 0.19432 0.0
C1986 C 0.12982 0.74555 0.20447 0.0
H1987 H 0.11776 0.67155 0.20478 0.0
H1988 H 0.11744 0.70887 0.17127 0.0
S1989 S 0.14601 0.77652 0.28144 0.0
N1990 N 0.1411 0.74093 0.28271 0.0
N1991 N 0.14107 0.78142 0.24676 0.0
C1992 C 0.13478 0.75337 0.23457 0.0
C1993 C 0.13505 0.73156 0.25397 0.0
C1994 C 0.64956 0.52004 0.7785 0.0
C1995 C 0.62291 0.50036 0.76683 0.0
C1996 C 0.65225 0.53516 0.8059 0.0
C1997 C 0.62856 0.53077 0.82294 0.0
H1998 H 0.66813 0.52497 0.76586 0.0
H1999 H 0.67211 0.55187 0.81281 0.0
S2000 S 0.56195 0.46951 0.8096 0.0
N2001 N 0.57804 0.46864 0.77927 0.0
N2002 N 0.58298 0.49686 0.83139 0.0
C2003 C 0.60489 0.50632 0.81449 0.0
C2004 C 0.60202 0.4911 0.78616 0.0
C2005 C 0.96248 0.34598 0.90107 0.0
C2006 C 0.99226 0.34784 0.91129 0.0
C2007 C 0.94038 0.34028 0.91967 0.0
C2008 C 0.94745 0.33675 0.9492 0.0
H2009 H 0.95615 0.34807 0.87844 0.0
H2010 H 0.91754 0.33924 0.91093 0.0
S2011 S 0.02282 0.34024 0.98613 0.0
N2012 N 0.02823 0.34541 0.9521 0.0
N2013 N 0.98654 0.33582 0.98764 0.0
C2014 C 0.97726 0.33832 0.95955 0.0
C2015 C -0.00025 0.34376 0.94044 0.0
C2016 C 0.52545 0.65981 0.5479 0.0
C2017 C 0.51173 0.63738 0.56416 0.0
C2018 C 0.54277 0.65448 0.52505 0.0
C2019 C 0.54664 0.62622 0.51632 0.0
H2020 H 0.52378 0.68213 0.55357 0.0
H2021 H 0.5546 0.67298 0.51523 0.0
S2022 S 0.51414 0.55917 0.54967 0.0
N2023 N 0.50243 0.58518 0.56822 0.0
N2024 N 0.53443 0.57537 0.52564 0.0
C2025 C 0.53218 0.60348 0.53163 0.0
C2026 C 0.51491 0.60891 0.55521 0.0
C2027 C 0.89261 0.21631 0.72926 0.0
C2028 C 0.86714 0.1946 0.73098 0.0
C2029 C 0.89077 0.23928 0.71235 0.0
C2030 C 0.86371 0.24028 0.69606 0.0
H2031 H 0.91214 0.21829 0.74466 0.0
H2032 H 0.90964 0.25764 0.71454 0.0
S2033 S 0.79734 0.1795 0.68105 0.0
N2034 N 0.81918 0.16874 0.7062 0.0
N2035 N 0.8156 0.2118 0.67387 0.0
C2036 C 0.84111 0.21482 0.69194 0.0
C2037 C 0.84318 0.19146 0.70921 0.0
C2038 C 0.88543 0.94555 0.24271 0.0
C2039 C 0.86056 0.95566 0.25078 0.0
C2040 C 0.8851 0.93198 0.21497 0.0
C2041 C 0.86071 0.92959 0.19397 0.0
H2042 H 0.90511 0.94785 0.25804 0.0
H2043 H 0.90402 0.92304 0.20995 0.0
S2044 S 0.78893 0.94976 0.20518 0.0
N2045 N 0.80957 0.95983 0.23669 0.0
N2046 N 0.80989 0.93542 0.18365 0.0
C2047 C 0.83517 0.93838 0.202 0.0
C2048 C 0.835 0.95142 0.23066 0.0
C2049 C 0.52503 0.59493 0.81259 0.0
C2050 C 0.54719 0.57882 0.8096 0.0
C2051 C 0.5016 0.59187 0.79046 0.0
C2052 C 0.49985 0.5722 0.76567 0.0
H2053 H 0.52866 0.61343 0.82886 0.0
H2054 H 0.48804 0.60813 0.79043 0.0
S2055 S 0.54571 0.5181 0.75358 0.0
N2056 N 0.56102 0.53733 0.78441 0.0
N2057 N 0.51596 0.53076 0.7438 0.0
C2058 C 0.51725 0.55131 0.76634 0.0
C2059 C 0.54149 0.55486 0.78831 0.0
C2060 C 0.84374 0.25779 0.95632 0.0
C2061 C 0.83072 0.28227 0.95487 0.0
C2062 C 0.85144 0.244 0.93142 0.0
C2063 C 0.84539 0.25327 0.90387 0.0
H2064 H 0.8508 0.25095 0.97707 0.0
H2065 H 0.86294 0.22637 0.93404 0.0
S2066 S 0.80178 0.30945 0.8875 0.0
N2067 N 0.80529 0.31045 0.92321 0.0
N2068 N 0.8191 0.28403 0.87611 0.0
C2069 C 0.82858 0.27504 0.90174 0.0
C2070 C 0.82091 0.28926 0.92725 0.0
C2071 C 0.23492 0.6156 0.2759 0.0
C2072 C 0.20516 0.60295 0.2649 0.0
C2073 C 0.2583 0.61719 0.25864 0.0
C2074 C 0.25246 0.60739 0.22912 0.0
H2075 H 0.23979 0.62798 0.29679 0.0
H2076 H 0.27991 0.63031 0.26741 0.0
S2077 S 0.18035 0.5655 0.19113 0.0
N2078 N 0.17245 0.57506 0.22396 0.0
N2079 N 0.21659 0.57764 0.19132 0.0
C2080 C 0.22393 0.59013 0.21907 0.0
C2081 C 0.2 0.58849 0.2368 0.0
C2082 C 0.03049 0.0318 0.60644 0.0
C2083 C 0.00208 0.02296 0.61582 0.0
C2084 C 0.05233 0.01573 0.61174 0.0
C2085 C 0.04591 0.99019 0.62586 0.0
H2086 H 0.03745 0.05346 0.5997 0.0
H2087 H 0.07496 0.02509 0.60777 0.0
S2088 S 0.97084 0.95156 0.64133 0.0
N2089 N 0.96563 0.98232 0.62913 0.0
N2090 N 0.00664 0.95224 0.64024 0.0
C2091 C 0.01583 0.97802 0.62899 0.0
C2092 C 0.99362 0.99427 0.62307 0.0
C2093 C 0.54528 0.72799 0.6943 0.0
C2094 C 0.51594 0.71848 0.68037 0.0
C2095 C 0.56561 0.7492 0.68291 0.0
C2096 C 0.55659 0.76113 0.65795 0.0
H2097 H 0.55381 0.71639 0.71127 0.0
H2098 H 0.58873 0.75403 0.69175 0.0
S2099 S 0.47906 0.75684 0.62641 0.0
N2100 N 0.4764 0.7323 0.65014 0.0
N2101 N 0.51477 0.77219 0.62835 0.0
C2102 C 0.52602 0.75741 0.64915 0.0
C2103 C 0.5054 0.73602 0.66079 0.0
C2104 C 0.24839 0.52512 0.11001 0.0
C2105 C 0.26309 0.54592 0.13326 0.0
C2106 C 0.23272 0.49715 0.1146 0.0
C2107 C 0.23007 0.48878 0.14266 0.0
H2108 H 0.24768 0.53081 0.08786 0.0
H2109 H 0.21942 0.48358 0.09634 0.0
S2110 S 0.27041 0.53125 0.21044 0.0
N2111 N 0.27898 0.55325 0.18498 0.0
N2112 N 0.24879 0.50101 0.19362 0.0
C2113 C 0.24817 0.50758 0.16564 0.0
C2114 C 0.26417 0.53624 0.16107 0.0
C2115 C 0.45779 0.9848 0.89599 0.0
C2116 C 0.42744 0.97064 0.89208 0.0
C2117 C 0.47977 0.969 0.89156 0.0
C2118 C 0.47173 0.93871 0.884 0.0
H2119 H 0.4642 0.0084 0.89753 0.0
H2120 H 0.5022 0.98105 0.88998 0.0
S2121 S 0.39799 0.891 0.88994 0.0
N2122 N 0.39228 0.92456 0.89347 0.0
N2123 N 0.43384 0.89449 0.88639 0.0
C2124 C 0.44284 0.92404 0.88856 0.0
C2125 C 0.4204 0.94023 0.89256 0.0
C2126 C 0.75047 0.46633 0.901 0.0
C2127 C 0.73147 0.44784 0.87881 0.0
C2128 C 0.76662 0.49336 0.89524 0.0
C2129 C 0.76539 0.50141 0.86685 0.0
H2130 H 0.75406 0.45925 0.92244 0.0
H2131 H 0.78372 0.50533 0.9117 0.0
S2132 S 0.70924 0.46752 0.80565 0.0
N2133 N 0.70445 0.44436 0.83071 0.0
N2134 N 0.73647 0.49496 0.8198 0.0
C2135 C 0.7421 0.48624 0.84654 0.0
C2136 C 0.72541 0.45879 0.85221 0.0
C2137 C 0.99237 0.76088 0.31948 0.0
C2138 C 0.98234 0.78066 0.30205 0.0
C2139 C 0.97232 0.73604 0.32638 0.0
C2140 C 0.94135 0.73076 0.31714 0.0
H2141 H 0.01496 0.76594 0.33002 0.0
H2142 H 0.98064 0.72246 0.34157 0.0
S2143 S 0.90443 0.77517 0.26937 0.0
N2144 N 0.94022 0.79015 0.27121 0.0
N2145 N 0.90247 0.74763 0.28945 0.0
C2146 C 0.93166 0.74922 0.29807 0.0
C2147 C 0.95227 0.77304 0.28914 0.0
C2148 C 0.98751 0.0821 0.77769 0.0
C2149 C 0.98782 0.05849 0.75727 0.0
C2150 C 0.00866 0.08902 0.80223 0.0
C2151 C 0.03086 0.07284 0.80618 0.0
H2152 H 0.97423 0.09787 0.77235 0.0
H2153 H 0.01107 0.11 0.81461 0.0
S2154 S 0.03347 0.00348 0.7643 0.0
N2155 N 0.00573 0.01457 0.74697 0.0
N2156 N 0.04578 0.02754 0.79281 0.0
C2157 C 0.02665 0.0457 0.78958 0.0
C2158 C 0.00511 0.03866 0.76477 0.0
C2159 C 0.35481 0.24171 0.43183 0.0
C2160 C 0.3496 0.25122 0.40423 0.0
C2161 C 0.34655 0.25539 0.45643 0.0
C2162 C 0.33399 0.28007 0.45461 0.0
H2163 H 0.36605 0.22394 0.43476 0.0
H2164 H 0.35301 0.24842 0.4773 0.0
S2165 S 0.30725 0.30804 0.38676 0.0
N2166 N 0.32454 0.28243 0.37585 0.0
N2167 N 0.30973 0.30875 0.42243 0.0
C2168 C 0.32491 0.28729 0.42684 0.0
C2169 C 0.33312 0.27316 0.40163 0.0
C2170 C 0.35174 0.43682 0.23893 0.0
C2171 C 0.37367 0.46199 0.24897 0.0
C2172 C 0.34807 0.42549 0.20993 0.0
C2173 C 0.36645 0.43842 0.18993 0.0
H2174 H 0.33758 0.42547 0.25361 0.0
H2175 H 0.33142 0.4057 0.20338 0.0
S2176 S 0.42223 0.50864 0.20355 0.0
N2177 N 0.4105 0.50249 0.23545 0.0
N2178 N 0.40351 0.48092 0.18084 0.0
C2179 C 0.38639 0.46526 0.19894 0.0
C2180 C 0.39025 0.47684 0.22857 0.0
C2181 C 0.00231 0.61569 0.03795 0.0
C2182 C 0.00778 0.63963 0.05968 0.0
C2183 C 0.02164 0.61386 0.01568 0.0
C2184 C 0.04731 0.63597 0.01389 0.0
H2185 H 0.98306 0.59812 0.03825 0.0
H2186 H 0.01728 0.59427 0.00075 0.0
S2187 S 0.07233 0.70223 0.0667 0.0
N2188 N 0.04089 0.68545 0.07783 0.0
N2189 N 0.0771 0.68185 0.03773 0.0
C2190 C 0.05247 0.65992 0.03562 0.0
C2191 C 0.03287 0.66182 0.05783 0.0
C2192 C 0.4443 0.33089 0.4211 0.0
C2193 C 0.45188 0.3304 0.45115 0.0
C2194 C 0.46619 0.33705 0.40233 0.0
C2195 C 0.49629 0.34243 0.41295 0.0
H2196 H 0.42118 0.32755 0.41217 0.0
H2197 H 0.45956 0.33708 0.37937 0.0
S2198 S 0.52811 0.34178 0.48893 0.0
N2199 N 0.49167 0.33484 0.49029 0.0
N2200 N 0.53309 0.34516 0.4545 0.0
C2201 C 0.50431 0.34065 0.44254 0.0
C2202 C 0.482 0.33478 0.4618 0.0
C2203 C 0.14177 0.03399 0.79761 0.0
C2204 C 0.11966 0.02826 0.81638 0.0
C2205 C 0.1401 0.01636 0.77183 0.0
C2206 C 0.11637 0.99204 0.76391 0.0
H2207 H 0.15932 0.05336 0.80182 0.0
H2208 H 0.15682 0.02291 0.75737 0.0
S2209 S 0.06302 0.95895 0.8134 0.0
N2210 N 0.08044 0.99058 0.83104 0.0
N2211 N 0.07747 0.95697 0.78221 0.0
C2212 C 0.09795 0.9826 0.78534 0.0
C2213 C 0.09965 0.00081 0.81182 0.0
C2214 C 0.46496 0.43406 0.22019 0.0
C2215 C 0.48872 0.42114 0.22862 0.0
C2216 C 0.4483 0.42532 0.19305 0.0
C2217 C 0.45364 0.40208 0.17477 0.0
H2218 H 0.45677 0.44786 0.23587 0.0
H2219 H 0.42765 0.43236 0.18936 0.0
S2220 S 0.51965 0.36911 0.18309 0.0
N2221 N 0.52236 0.39094 0.21324 0.0
N2222 N 0.48955 0.37319 0.16311 0.0
C2223 C 0.48087 0.39373 0.18049 0.0
C2224 C 0.49848 0.4032 0.20766 0.0
C2225 C 0.10381 0.73196 0.00491 0.0
C2226 C 0.12645 0.7197 0.99357 0.0
C2227 C 0.11027 0.75391 0.02799 0.0
C2228 C 0.13967 0.76473 0.04021 0.0
H2229 H 0.08052 0.72311 -0.00259 0.0
H2230 H 0.09198 0.76058 0.03772 0.0
S2231 S 0.20725 0.75144 0.0085 0.0
N2232 N 0.17954 0.72738 0.9896 0.0
N2233 N 0.19197 0.76916 0.033 0.0
C2234 C 0.16274 0.7562 0.02603 0.0
C2235 C 0.15609 0.73353 0.00266 0.0
C2236 C 0.90948 0.93086 0.38034 0.0
C2237 C 0.91753 0.96139 0.38517 0.0
C2238 C 0.93119 0.91492 0.375 0.0
C2239 C 0.9611 0.92941 0.37424 0.0
H2240 H 0.88625 0.91983 0.37589 0.0
H2241 H 0.92369 0.89201 0.36733 0.0
S2242 S 0.99406 0.00627 0.40184 0.0
N2243 N 0.95771 0.00337 0.4013 0.0
N2244 N -0.00137 0.97356 0.3904 0.0
C2245 C 0.96987 0.9585 0.38634 0.0
C2246 C 0.94783 0.97454 0.39224 0.0
C2247 C 0.46304 0.26987 0.29726 0.0
C2248 C 0.49166 0.27941 0.31325 0.0
C2249 C 0.44234 0.24553 0.30389 0.0
C2250 C 0.44975 0.229 0.32604 0.0
H2251 H 0.45525 0.28304 0.28136 0.0
H2252 H 0.41968 0.24175 0.29378 0.0
S2253 S 0.52468 0.23819 0.36704 0.0
N2254 N 0.52815 0.26612 0.3473 0.0
N2255 N 0.49014 0.21926 0.35874 0.0
C2256 C 0.47984 0.23528 0.3386 0.0
C2257 C 0.50064 0.26066 0.33241 0.0
C2258 C 0.59023 0.05587 0.12334 0.0
C2259 C 0.57746 0.02596 0.11722 0.0
C2260 C 0.57198 0.07555 0.1283 0.0
C2261 C 0.54088 0.06548 0.12669 0.0
H2262 H 0.61403 0.06344 0.12909 0.0
H2263 H 0.58253 0.09757 0.13729 0.0
S2264 S 0.49793 0.99312 0.09407 0.0
N2265 N 0.53303 0.98995 0.09738 0.0
N2266 N 0.49852 0.02724 0.10589 0.0
C2267 C 0.5283 0.03762 0.11269 0.0
C2268 C 0.54686 0.0176 0.10792 0.0
C2269 C 0.0703 0.21468 0.6375 0.0
C2270 C 0.06361 0.24173 0.64478 0.0
C2271 C 0.05239 0.18947 0.64494 0.0
C2272 C 0.02701 0.19094 0.65901 0.0
H2273 H 0.08834 0.2129 0.62449 0.0
H2274 H 0.05741 0.16863 0.63812 0.0
S2275 S 0.00236 0.25725 0.68524 0.0
N2276 N 0.03218 0.26942 0.6688 0.0
N2277 N -0.00249 0.22129 0.68239 0.0
C2278 C 0.02093 0.218 0.66767 0.0
C2279 C 0.03961 0.24376 0.66059 0.0
C2280 C 0.68796 0.00436 0.05856 0.0
C2281 C 0.65959 0.99181 0.0665 0.0
C2282 C 0.69285 0.03041 0.04527 0.0
C2283 C 0.6694 0.04448 0.03933 0.0
H2284 H 0.70672 0.99428 0.06307 0.0
H2285 H 0.71504 0.03977 0.04005 0.0
S2286 S 0.58967 0.01652 0.04815 0.0
N2287 N 0.607 0.99279 0.0627 0.0
N2288 N 0.61596 0.04159 0.03732 0.0
C2289 C 0.64057 0.03112 0.04522 0.0
C2290 C 0.63567 0.00479 0.05891 0.0
C2291 C 0.25886 0.86235 0.74959 0.0
C2292 C 0.26831 0.8695 0.77937 0.0
C2293 C 0.27879 0.85703 0.73008 0.0
C2294 C 0.30927 0.85996 0.73909 0.0
H2295 H 0.23542 0.85771 0.74155 0.0
H2296 H 0.26969 0.84875 0.70806 0.0
S2297 S 0.34663 0.88614 0.81333 0.0
N2298 N 0.31089 0.88447 0.81616 0.0
N2299 N 0.34884 0.87581 0.77898 0.0
C2300 C 0.31968 0.87072 0.76812 0.0
C2301 C 0.29913 0.87547 0.78829 0.0
C2302 C 0.63442 0.24226 0.25234 0.0
C2303 C 0.63808 0.21391 0.24514 0.0
C2304 C 0.63246 0.2611 0.23077 0.0
C2305 C 0.63465 0.25215 0.20152 0.0
H2306 H 0.63347 0.24999 0.27473 0.0
H2307 H 0.63103 0.2833 0.23741 0.0
S2308 S 0.64058 0.17804 0.17206 0.0
N2309 N 0.64053 0.17629 0.20735 0.0
N2310 N 0.63781 0.21166 0.1666 0.0
C2311 C 0.63641 0.22298 0.19411 0.0
C2312 C 0.63801 0.20387 0.21605 0.0
C2313 C 0.24189 0.37443 0.45252 0.0
C2314 C 0.23392 0.34547 0.44036 0.0
C2315 C 0.26427 0.38297 0.47558 0.0
C2316 C 0.27922 0.36275 0.48799 0.0
H2317 H 0.23254 0.3911 0.44288 0.0
H2318 H 0.27073 0.40607 0.48275 0.0
S2319 S 0.25926 0.28256 0.46974 0.0
N2320 N 0.23823 0.29544 0.44546 0.0
N2321 N 0.279 0.31129 0.49068 0.0
C2322 C 0.26887 0.33307 0.47826 0.0
C2323 C 0.24649 0.32448 0.45405 0.0
C2324 C 0.34165 0.71895 0.6968 0.0
C2325 C 0.36741 0.7413 0.69878 0.0
C2326 C 0.34186 0.6941 0.7114 0.0
C2327 C 0.36736 0.69205 0.72947 0.0
H2328 H 0.32054 0.72192 0.68667 0.0
H2329 H 0.3206 0.67957 0.71288 0.0
S2330 S 0.44346 0.73607 0.72833 0.0
N2331 N 0.42164 0.75329 0.7094 0.0
N2332 N 0.42109 0.7074 0.73871 0.0
C2333 C 0.39446 0.71048 0.72583 0.0
C2334 C 0.3946 0.7354 0.71038 0.0
C2335 C 0.73567 0.20049 0.03725 0.0
C2336 C 0.73559 0.18087 0.0131 0.0
C2337 C 0.74758 0.1945 0.06416 0.0
C2338 C 0.7616 0.17056 0.06632 0.0
H2339 H 0.72094 0.21563 0.03674 0.0
H2340 H 0.74333 0.20696 0.0833 0.0
S2341 S 0.78658 0.13064 0.00478 0.0
N2342 N 0.76617 0.15161 0.98969 0.0
N2343 N 0.78632 0.13736 0.04011 0.0
C2344 C 0.76989 0.1581 0.04087 0.0
C2345 C 0.75894 0.16577 0.01372 0.0
C2346 C 0.72651 0.11692 0.27692 0.0
C2347 C 0.69614 0.10669 0.26648 0.0
C2348 C 0.74894 0.11888 0.25847 0.0
C2349 C 0.74156 0.11125 0.22866 0.0
H2350 H 0.73274 0.12762 0.2985 0.0
H2351 H 0.77118 0.13064 0.26699 0.0
S2352 S 0.66762 0.07109 0.19271 0.0
N2353 N 0.66142 0.07988 0.22636 0.0
N2354 N 0.70367 0.08338 0.19125 0.0
C2355 C 0.71239 0.09506 0.21911 0.0
C2356 C 0.68947 0.09301 0.23811 0.0
C2357 C 0.34258 0.46055 0.47771 0.0
C2358 C 0.37096 0.45523 0.48609 0.0
C2359 C 0.33869 0.48189 0.45862 0.0
C2360 C 0.36285 0.49831 0.44614 0.0
H2361 H 0.32299 0.44704 0.48473 0.0
H2362 H 0.31627 0.48464 0.45257 0.0
S2363 S 0.4421 0.4947 0.46296 0.0
N2364 N 0.42386 0.46965 0.48168 0.0
N2365 N 0.41659 0.50924 0.44585 0.0
C2366 C 0.39142 0.49386 0.45507 0.0
C2367 C 0.39541 0.4725 0.47489 0.0
C2368 C 0.2272 0.6998 0.79155 0.0
C2369 C 0.24745 0.70509 0.77069 0.0
C2370 C 0.21083 0.72061 0.79952 0.0
C2371 C 0.21335 0.74658 0.78596 0.0
H2372 H 0.22743 0.6819 0.80488 0.0
H2373 H 0.19851 0.71775 0.81825 0.0
S2374 S 0.25778 0.76708 0.72535 0.0
N2375 N 0.26515 0.73549 0.73327 0.0
N2376 N 0.2333 0.77396 0.74731 0.0
C2377 C 0.22976 0.74978 0.76199 0.0
C2378 C 0.24695 0.72896 0.75437 0.0
C2379 C 0.73399 0.99306 0.12475 0.0
C2380 C 0.72929 0.9876 0.1533 0.0
C2381 C 0.749 0.0207 0.1183 0.0
C2382 C 0.76061 0.04405 0.14021 0.0
H2383 H 0.72309 0.97713 0.1071 0.0
H2384 H 0.75019 0.02404 0.09562 0.0
S2385 S 0.76291 0.03739 0.21923 0.0
N2386 N 0.74424 0.0051 0.20414 0.0
N2387 N 0.77215 0.05697 0.19212 0.0
C2388 C 0.76014 0.03729 0.16906 0.0
C2389 C 0.7453 0.00889 0.17553 0.0
C2390 C 0.76107 0.75847 0.73209 0.0
C2391 C 0.78598 0.75415 0.71842 0.0
C2392 C 0.74867 0.7828 0.72746 0.0
C2393 C 0.76005 0.80269 0.70796 0.0
H2394 H 0.7492 0.74142 0.74374 0.0
H2395 H 0.72742 0.78336 0.73549 0.0
S2396 S 0.82826 0.80402 0.67151 0.0
N2397 N 0.82482 0.77456 0.68922 0.0
N2398 N 0.80036 0.81931 0.67917 0.0
C2399 C 0.78719 0.80069 0.69747 0.0
C2400 C 0.80038 0.77647 0.70291 0.0
C2401 C 0.24696 0.99083 0.84396 0.0
C2402 C 0.26654 0.00861 0.86631 0.0
C2403 C 0.23422 0.96196 0.84801 0.0
C2404 C 0.2384 0.95158 0.87525 0.0
H2405 H 0.24635 0.99719 0.82202 0.0
H2406 H 0.2213 0.94779 0.82982 0.0
S2407 S 0.27405 0.99644 0.94366 0.0
N2408 N 0.27941 0.01885 0.91808 0.0
N2409 N 0.25543 0.96492 0.92686 0.0
C2410 C 0.25249 0.97179 0.89901 0.0
C2411 C 0.26512 0.00095 0.8945 0.0
C2412 C 0.38285 0.98059 0.99042 0.0
C2413 C 0.36671 0.95188 0.98144 0.0
C2414 C 0.38072 0.00407 0.97324 0.0
C2415 C 0.3631 -0.00037 0.94605 0.0
H2416 H 0.39803 0.98475 0.01017 0.0
H2417 H 0.39349 0.02574 0.98098 0.0
S2418 S 0.3138 0.92979 0.91414 0.0
N2419 N 0.32985 0.92162 0.94468 0.0
N2420 N 0.32749 0.96486 0.91247 0.0
C2421 C 0.34622 0.9714 0.93748 0.0
C2422 C 0.34761 0.94788 0.9551 0.0
C2423 C 0.75453 0.65379 0.52166 0.0
C2424 C 0.73104 0.66882 0.52031 0.0
C2425 C 0.76926 0.65117 0.54852 0.0
C2426 C 0.76245 0.66563 0.57369 0.0
H2427 H 0.7575 0.63943 0.50332 0.0
H2428 H 0.78368 0.63576 0.54973 0.0
S2429 S 0.71926 0.72403 0.57627 0.0
N2430 N 0.71266 0.70907 0.54237 0.0
N2431 N 0.74236 0.7065 0.59293 0.0
C2432 C 0.74595 0.68753 0.57066 0.0
C2433 C 0.73031 0.68928 0.54347 0.0
C2434 C 0.27164 0.83856 0.97731 0.0
C2435 C 0.2785 0.86722 0.99075 0.0
C2436 C 0.24898 0.83004 0.9542 0.0
C2437 C 0.23168 0.84957 0.94424 0.0
H2438 H 0.28447 0.82291 0.98378 0.0
H2439 H 0.24626 0.80854 0.94279 0.0
S2440 S 0.23385 0.92372 0.97855 0.0
N2441 N 0.26177 0.91323 -0.00378 0.0
N2442 N 0.21811 0.89598 0.95459 0.0
C2443 C 0.23527 0.87657 0.96042 0.0
C2444 C 0.25899 0.88576 0.98319 0.0
C2445 C 0.66727 0.54114 0.56827 0.0
C2446 C 0.67039 0.53851 0.53839 0.0
C2447 C 0.6605 0.51655 0.58328 0.0
C2448 C 0.65691 0.4886 0.56896 0.0
H2449 H 0.66921 0.56235 0.58003 0.0
H2450 H 0.6587 0.51948 0.60633 0.0
S2451 S 0.66451 0.46961 0.49157 0.0
N2452 N 0.67053 0.5056 0.49532 0.0
N2453 N 0.65833 0.45921 0.52399 0.0
C2454 C 0.66111 0.48553 0.53946 0.0
C2455 C 0.66789 0.51058 0.52406 0.0
C2456 C 0.77496 0.30172 0.18558 0.0
C2457 C 0.74925 0.30692 0.19737 0.0
C2458 C 0.78613 0.27691 0.19137 0.0
C2459 C 0.77183 0.25653 0.20896 0.0
H2460 H 0.7839 0.31453 0.16873 0.0
H2461 H 0.80358 0.27179 0.17905 0.0
S2462 S 0.70963 0.2645 0.25153 0.0
N2463 N 0.71447 0.29331 0.23284 0.0
N2464 N 0.73495 0.24614 0.24276 0.0
C2465 C 0.74913 0.26374 0.2242 0.0
C2466 C 0.73817 0.28935 0.21886 0.0
C2467 C 0.22478 0.24294 0.26139 0.0
C2468 C 0.20771 0.24028 0.28499 0.0
C2469 C 0.24371 0.22374 0.25599 0.0
C2470 C 0.24565 0.20108 0.27372 0.0
H2471 H 0.22665 0.26213 0.2496 0.0
H2472 H 0.25957 0.22887 0.2403 0.0
S2473 S 0.20035 0.18125 0.33394 0.0
N2474 N 0.19012 0.21066 0.32298 0.0
N2475 N 0.22489 0.174 0.31223 0.0
C2476 C 0.22521 0.19559 0.29433 0.0
C2477 C 0.20646 0.21548 0.30023 0.0
C2478 C 0.29063 0.36812 0.28175 0.0
C2479 C 0.26023 0.36707 0.27353 0.0
C2480 C 0.30988 0.36409 0.26098 0.0
C2481 C 0.29952 0.35921 0.23128 0.0
H2482 H 0.29905 0.3691 0.3044 0.0
H2483 H 0.33237 0.3625 0.26848 0.0
S2484 S 0.22536 0.366 0.19817 0.0
N2485 N 0.22306 0.36913 0.23346 0.0
N2486 N 0.25946 0.36159 0.19438 0.0
C2487 C 0.27062 0.36281 0.22262 0.0
C2488 C 0.25097 0.36701 0.2438 0.0
C2489 C 0.66684 0.73398 0.76617 0.0
C2490 C 0.65712 0.7046 0.75468 0.0
C2491 C 0.66146 0.75668 0.7501 0.0
C2492 C 0.64648 0.75066 0.72196 0.0
H2493 H 0.67912 0.73956 0.78753 0.0
H2494 H 0.6713 0.77897 0.75876 0.0
S2495 S 0.61369 0.67768 0.68307 0.0
N2496 N 0.62932 0.67084 0.71439 0.0
N2497 N 0.61984 0.71356 0.68414 0.0
C2498 C 0.6349 0.72144 0.71105 0.0
C2499 C 0.64024 0.69839 0.72733 0.0
C2500 C 0.33484 0.21726 0.19853 0.0
C2501 C 0.35978 0.23992 0.1977 0.0
C2502 C 0.33718 0.19376 0.21462 0.0
C2503 C 0.36424 0.19315 0.23104 0.0
H2504 H 0.31292 0.21914 0.18948 0.0
H2505 H 0.31669 0.17901 0.21816 0.0
S2506 S 0.43805 0.239 0.22389 0.0
N2507 N 0.41413 0.25414 0.20517 0.0
N2508 N 0.41783 0.21048 0.23671 0.0
C2509 C 0.39015 0.212 0.22512 0.0
C2510 C 0.38802 0.23566 0.20839 0.0
C2511 C 0.75633 0.61504 0.79122 0.0
C2512 C 0.72675 0.60004 0.7819 0.0
C2513 C 0.77744 0.62072 0.7713 0.0
C2514 C 0.7695 0.61107 0.74174 0.0
H2515 H 0.76205 0.62598 0.81295 0.0
H2516 H 0.7983 0.63604 0.77839 0.0
S2517 S 0.69989 0.56012 0.70926 0.0
N2518 N 0.69415 0.56812 0.74314 0.0
N2519 N 0.73424 0.57756 0.70636 0.0
C2520 C 0.74266 0.59042 0.73387 0.0
C2521 C 0.72101 0.58517 0.75388 0.0
C2522 C 0.74863 0.50713 0.67512 0.0
C2523 C 0.73215 0.48618 0.65267 0.0
C2524 C 0.76577 0.53431 0.66931 0.0
C2525 C 0.76803 0.5415 0.64072 0.0
H2526 H 0.74486 0.50421 0.69749 0.0
H2527 H 0.77608 0.55019 0.68732 0.0
S2528 S 0.74036 0.48892 0.57457 0.0
N2529 N 0.72733 0.47106 0.60149 0.0
N2530 N 0.75935 0.52098 0.58975 0.0
C2531 C 0.75601 0.51847 0.61829 0.0
C2532 C 0.73854 0.49102 0.62447 0.0
C2533 C 0.26352 0.49696 0.38818 0.0
C2534 C 0.26669 0.50386 0.35986 0.0
C2535 C 0.25122 0.46835 0.39303 0.0
C2536 C 0.23905 0.44677 0.3697 0.0
H2537 H 0.27583 0.51166 0.40634 0.0
H2538 H 0.25225 0.46302 0.41532 0.0
S2539 S 0.2314 0.45949 0.29205 0.0
N2540 N 0.24874 0.49141 0.30899 0.0
N2541 N 0.22446 0.4373 0.31764 0.0
C2542 C 0.23659 0.45568 0.34163 0.0
C2543 C 0.24902 0.48506 0.33703 0.0
C2544 C 0.1155 0.9853 0.36128 0.0
C2545 C 0.09703 0.96235 0.37293 0.0
C2546 C 0.1185 0.01458 0.37275 0.0
C2547 C 0.10309 0.02202 0.39616 0.0
H2548 H 0.12817 0.98056 0.34369 0.0
H2549 H 0.13428 0.03143 0.36426 0.0
S2550 S 0.05451 0.96963 0.43613 0.0
N2551 N 0.06408 0.94893 0.40986 0.0
N2552 N 0.07036 0.0036 0.43159 0.0
C2553 C 0.0844 -0.00078 0.40769 0.0
C2554 C 0.0812 0.96952 0.396 0.0
C2555 C 0.96244 0.31269 0.56425 0.0
C2556 C 0.9882 0.331 0.55668 0.0
C2557 C 0.93423 0.31928 0.55794 0.0
C2558 C 0.93122 0.34439 0.54423 0.0
H2559 H 0.96435 0.29493 0.57732 0.0
H2560 H 0.91535 0.3067 0.56685 0.0
S2561 S 0.99115 0.39497 0.51437 0.0
N2562 N 0.00829 0.37178 0.53012 0.0
N2563 N 0.95554 0.38428 0.51888 0.0
C2564 C 0.95633 0.36036 0.53335 0.0
C2565 C 0.98485 0.35375 0.53966 0.0
C2566 C 0.58899 0.27169 0.88305 0.0
C2567 C 0.59329 0.27558 0.8539 0.0
C2568 C 0.57868 0.24376 0.89145 0.0
C2569 C 0.57277 0.21922 0.87093 0.0
H2570 H 0.59677 0.28957 0.8999 0.0
H2571 H 0.57901 0.2411 0.91441 0.0
S2572 S 0.57026 0.21902 0.7912 0.0
N2573 N 0.58215 0.25366 0.80375 0.0
N2574 N 0.56491 0.201 0.82005 0.0
C2575 C 0.57231 0.22338 0.84146 0.0
C2576 C 0.5819 0.25179 0.83278 0.0
C2577 C 0.71099 0.82176 0.10672 0.0
C2578 C 0.70697 0.84934 0.11772 0.0
C2579 C 0.7383 0.81843 0.09669 0.0
C2580 C 0.76178 0.84281 0.09626 0.0
H2581 H 0.69327 0.80261 0.10656 0.0
H2582 H 0.74122 0.79681 0.08971 0.0
S2583 S 0.76359 0.91948 0.12248 0.0
N2584 N 0.73053 0.90123 0.12847 0.0
N2585 N 0.7797 0.89489 0.10736 0.0
C2586 C 0.75786 0.87031 0.10647 0.0
C2587 C 0.73104 0.87363 0.11776 0.0
C2588 C 0.09988 0.23021 0.85034 0.0
C2589 C 0.1244 0.22489 0.86751 0.0
C2590 C 0.09906 0.2584 0.84276 0.0
C2591 C 0.12248 0.28281 0.85235 0.0
H2592 H 0.08255 0.21208 0.84029 0.0
H2593 H 0.08029 0.26073 0.82809 0.0
S2594 S 0.1902 0.28088 0.90096 0.0
N2595 N 0.17173 0.24652 0.89581 0.0
N2596 N 0.16964 0.2997 0.88259 0.0
C2597 C 0.14616 0.27807 0.87131 0.0
C2598 C 0.14712 0.24919 0.87874 0.0
C2599 C 0.75345 0.4359 0.13302 0.0
C2600 C 0.76394 0.4188 0.11207 0.0
C2601 C 0.72279 0.4315 0.13532 0.0
C2602 C 0.70238 0.40985 0.1168 0.0
H2603 H 0.76896 0.45116 0.14872 0.0
H2604 H 0.71537 0.44253 0.15368 0.0
S2605 S 0.72027 0.3621 0.0565 0.0
N2606 N 0.75268 0.38225 0.0708 0.0
N2607 N 0.69522 0.37375 0.07475 0.0
C2608 C 0.71287 0.39533 0.09357 0.0
C2609 C 0.74384 0.3996 0.09157 0.0
C2610 C 0.59679 0.00927 0.43989 0.0
C2611 C 0.62132 0.03322 0.44526 0.0
C2612 C 0.60079 0.98075 0.43434 0.0
C2613 C 0.62946 0.97494 0.43472 0.0
H2614 H 0.57426 0.01284 0.43726 0.0
H2615 H 0.5813 0.96336 0.42813 0.0
S2616 S 0.70106 0.02886 0.45317 0.0
N2617 N 0.67532 0.0485 0.45463 0.0
N2618 N 0.68277 0.9947 0.44502 0.0
C2619 C 0.65413 -0.00192 0.44349 0.0
C2620 C 0.65007 0.02729 0.44875 0.0
C2621 C 0.99092 0.89682 0.59454 0.0
C2622 C 0.96855 0.87177 0.59557 0.0
C2623 C 0.02065 0.89806 0.60596 0.0
C2624 C 0.02925 0.87417 0.61847 0.0
H2625 H 0.98594 0.91474 0.5831 0.0
H2626 H 0.03743 0.91717 0.6031 0.0
S2627 S 0.97858 0.80457 0.6289 0.0
N2628 N 0.95664 0.82347 0.61255 0.0
N2629 N 0.01242 0.82562 0.6329 0.0
C2630 C 0.00685 0.84962 0.62087 0.0
C2631 C 0.97657 0.84853 0.60978 0.0
C2632 C 0.35465 0.15686 0.02827 0.0
C2633 C 0.38414 0.17155 0.03786 0.0
C2634 C 0.34592 0.14756 -0.00094 0.0
C2635 C 0.36631 0.15297 0.97847 0.0
H2636 H 0.33904 0.14984 0.04371 0.0
H2637 H 0.32377 0.13421 0.99295 0.0
S2638 S 0.44359 0.19778 0.99165 0.0
N2639 N 0.43179 0.1964 0.0241 0.0
N2640 N 0.41534 0.17933 0.96876 0.0
C2641 C 0.39448 0.17144 0.98721 0.0
C2642 C 0.4034 0.18078 0.01712 0.0
C2643 C 0.86823 0.59956 0.22786 0.0
C2644 C 0.8957 0.61723 0.22297 0.0
C2645 C 0.85864 0.59897 0.25591 0.0
C2646 C 0.87698 0.61485 0.28014 0.0
H2647 H 0.85471 0.58521 0.21013 0.0
H2648 H 0.83745 0.58509 0.25884 0.0
S2649 S 0.95073 0.66433 0.27888 0.0
N2650 N 0.94041 0.65153 0.24462 0.0
N2651 N 0.92336 0.64933 0.29714 0.0
C2652 C 0.90414 0.63291 0.27533 0.0
C2653 C 0.91328 0.63432 0.24683 0.0
C2654 C 0.37139 0.17091 0.494 0.0
C2655 C 0.38192 0.14881 0.47857 0.0
C2656 C 0.37523 0.17488 0.52424 0.0
C2657 C 0.38907 0.15656 0.54052 0.0
H2658 H 0.35998 0.18537 0.48256 0.0
H2659 H 0.36483 0.19066 0.53505 0.0
S2660 S 0.42258 0.09678 0.51114 0.0
N2661 N 0.40912 0.10987 0.48204 0.0
N2662 N 0.41486 0.11646 0.53926 0.0
C2663 C 0.401 0.13529 0.52554 0.0
C2664 C 0.39733 0.13131 0.49454 0.0
C2665 C 0.87047 0.58449 0.71722 0.0
C2666 C 0.87376 0.61469 0.71567 0.0
C2667 C 0.86723 0.57207 0.74348 0.0
C2668 C 0.8674 0.58909 0.76984 0.0
H2669 H 0.87015 0.57009 0.69781 0.0
H2670 H 0.86562 0.54873 0.74329 0.0
S2671 S 0.87472 0.66929 0.77805 0.0
N2672 N 0.87603 0.66148 0.74296 0.0
N2673 N 0.87062 0.63793 0.79267 0.0
C2674 C 0.86983 0.61927 0.76873 0.0
C2675 C 0.87289 0.63207 0.74163 0.0
C2676 C 0.42251 0.13815 0.25422 0.0
C2677 C 0.40411 0.12231 0.23002 0.0
C2678 C 0.41394 0.13647 0.28245 0.0
C2679 C 0.38641 0.11924 0.28763 0.0
H2680 H 0.44457 0.15041 0.25155 0.0
H2681 H 0.42916 0.14861 0.30044 0.0
S2682 S 0.32925 0.07518 0.23155 0.0
N2683 N 0.35679 0.08943 0.21307 0.0
N2684 N 0.3399 0.08771 0.26589 0.0
C2685 C 0.36712 0.10457 0.2635 0.0
C2686 C 0.37619 0.10569 0.23481 0.0
C2687 C 0.8706 0.66713 0.48674 0.0
C2688 C 0.87824 0.64349 0.47083 0.0
C2689 C 0.87228 0.6694 0.51698 0.0
C2690 C 0.88254 0.64858 0.53271 0.0
H2691 H 0.86337 0.68423 0.47567 0.0
H2692 H 0.8643 0.68688 0.52809 0.0
S2693 S 0.90682 0.58322 0.50211 0.0
N2694 N 0.89756 0.59937 0.4734 0.0
N2695 N 0.90097 0.60371 0.53055 0.0
C2696 C 0.89128 0.62533 0.51732 0.0
C2697 C 0.88894 0.62267 0.48635 0.0
C2698 C 0.34483 0.11278 0.7338 0.0
C2699 C 0.37092 0.12433 0.72102 0.0
C2700 C 0.34594 0.10331 0.76195 0.0
C2701 C 0.37335 0.10455 0.77839 0.0
H2702 H 0.32338 0.10889 0.72107 0.0
H2703 H 0.32536 0.09282 0.76982 0.0
S2704 S 0.44821 0.13409 0.75575 0.0
N2705 N 0.42485 0.13751 0.72779 0.0
N2706 N 0.42729 0.11965 0.7802 0.0
C2707 C 0.39956 0.1171 0.76624 0.0
C2708 C 0.39833 0.12677 0.7377 0.0
C2709 C 0.84279 0.64401 0.01894 0.0
C2710 C 0.87069 0.66154 0.02989 0.0
C2711 C 0.83546 0.63678 0.98922 0.0
C2712 C 0.85586 0.64695 0.96968 0.0
H2713 H 0.82772 0.63349 0.03343 0.0
H2714 H 0.81496 0.62099 0.98194 0.0
S2715 S 0.92635 0.70285 0.98723 0.0
N2716 N 0.91478 0.69566 0.019 0.0
N2717 N 0.90088 0.68239 0.96277 0.0
C2718 C 0.88127 0.66878 0.98012 0.0
C2719 C 0.88873 0.67609 0.01049 0.0
C2720 C 0.98737 0.4107 0.09533 0.0
C2721 C 0.967 0.38449 0.09788 0.0
C2722 C 0.01808 0.41415 0.10466 0.0
C2723 C 0.0296 0.39138 0.11647 0.0
H2724 H 0.98003 0.4276 0.08392 0.0
H2725 H 0.0332 0.4339 0.10046 0.0
S2726 S 0.98464 0.32057 0.13245 0.0
N2727 N 0.95999 0.33716 0.11696 0.0
N2728 N 0.01728 0.34339 0.13367 0.0
C2729 C 0.00902 0.36615 0.12128 0.0
C2730 C 0.9779 0.36283 0.11224 0.0
C2731 C 0.46658 0.31781 0.0616 0.0
C2732 C 0.4901 0.33529 0.04966 0.0
C2733 C 0.43759 0.32284 0.05747 0.0
C2734 C 0.43164 0.34586 0.04188 0.0
H2735 H 0.47111 0.30217 0.07639 0.0
H2736 H 0.42079 0.31125 0.06969 0.0
S2737 S 0.48481 0.39426 0.00243 0.0
N2738 N 0.50485 0.37325 0.01811 0.0
N2739 N 0.45058 0.38329 0.01113 0.0
C2740 C 0.45428 0.36106 0.02714 0.0
C2741 C 0.48361 0.35573 0.03102 0.0
C2742 C 0.60016 0.77861 0.38498 0.0
C2743 C 0.60215 0.78173 0.35526 0.0
C2744 C 0.5897 0.7512 0.39455 0.0
C2745 C 0.58108 0.72621 0.37466 0.0
H2746 H 0.60946 0.79673 0.40116 0.0
H2747 H 0.59154 0.74915 0.41768 0.0
S2748 S 0.57338 0.72384 0.29457 0.0
N2749 N 0.5876 0.75847 0.3059 0.0
N2750 N 0.56907 0.70686 0.3242 0.0
C2751 C 0.579 0.72962 0.34495 0.0
C2752 C 0.58917 0.75751 0.33514 0.0
C2753 C 0.21741 0.82386 0.59891 0.0
C2754 C 0.21104 0.84254 0.6216 0.0
C2755 C 0.24703 0.82421 0.59322 0.0
C2756 C 0.27109 0.84287 0.61044 0.0
H2757 H 0.19943 0.81139 0.58349 0.0
H2758 H 0.25104 0.81091 0.57455 0.0
S2759 S 0.26621 0.89585 0.67228 0.0
N2760 N 0.23128 0.87944 0.66154 0.0
N2761 N 0.28654 0.87992 0.65144 0.0
C2762 C 0.26498 0.86002 0.63441 0.0
C2763 C 0.23506 0.85969 0.64003 0.0
C2764 C 0.62331 0.48925 0.36736 0.0
C2765 C 0.60101 0.46737 0.37588 0.0
C2766 C 0.62648 0.51877 0.37789 0.0
C2767 C 0.6077 0.52773 0.39757 0.0
H2768 H 0.63903 0.48341 0.35323 0.0
H2769 H 0.64515 0.53453 0.3721 0.0
S2770 S 0.5475 0.47856 0.42854 0.0
N2771 N 0.5602 0.45659 0.40574 0.0
N2772 N 0.56685 0.51181 0.42593 0.0
C2773 C 0.58487 0.50613 0.40566 0.0
C2774 C 0.58141 0.47607 0.39475 0.0
C2775 C 0.22505 0.92222 0.13771 0.0
C2776 C 0.20348 0.90413 0.11701 0.0
C2777 C 0.25488 0.92949 0.13239 0.0
C2778 C 0.26329 0.92022 0.10574 0.0
H2779 H 0.21975 0.9272 0.15952 0.0
H2780 H 0.27162 0.94022 0.14986 0.0
S2781 S 0.21403 0.8806 0.0416 0.0
N2782 N 0.19148 0.88322 0.0668 0.0
N2783 N 0.24757 0.89769 0.05654 0.0
C2784 C 0.24125 0.90677 0.08326 0.0
C2785 C 0.211 0.89894 0.08881 0.0
C2786 C 0.8689 0.0242 0.59602 0.0
C2787 C 0.86874 0.03923 0.62311 0.0
C2788 C 0.87388 0.99591 0.59391 0.0
C2789 C 0.8785 0.98128 0.61885 0.0
H2790 H 0.86873 0.03554 0.57657 0.0
H2791 H 0.87576 0.98623 0.57246 0.0
S2792 S 0.87187 0.00875 0.69423 0.0
N2793 N 0.86723 0.03574 0.67477 0.0
N2794 N 0.87689 0.98227 0.67101 0.0
C2795 C 0.87461 0.99479 0.64576 0.0
C2796 C 0.8695 0.02379 0.64781 0.0
C2797 C 0.01709 0.67492 0.41838 0.0
C2798 C 0.9934 0.65187 0.40586 0.0
C2799 C 0.04668 0.67071 0.42391 0.0
C2800 C 0.05354 0.64328 0.41714 0.0
H2801 H 0.0127 0.6962 0.42436 0.0
H2802 H 0.06395 0.68868 0.4343 0.0
S2803 S 3e-05 0.57608 0.38239 0.0
N2804 N 0.97986 0.60085 0.38586 0.0
N2805 N 0.03397 0.59326 0.39537 0.0
C2806 C 0.0301 0.62055 0.40355 0.0
C2807 C 0.0005 0.62472 0.39819 0.0
C2808 C 0.35856 0.74373 0.10024 0.0
C2809 C 0.36666 0.74189 0.13016 0.0
C2810 C 0.35954 0.77099 0.08837 0.0
C2811 C 0.36853 0.79793 0.10579 0.0
H2812 H 0.34986 0.72389 0.08602 0.0
H2813 H 0.35163 0.77083 0.0657 0.0
S2814 S 0.3962 0.80601 0.18436 0.0
N2815 N 0.38707 0.77035 0.17594 0.0
N2816 N 0.38889 0.82061 0.1541 0.0
C2817 C 0.37842 0.79635 0.13525 0.0
C2818 C 0.3775 0.76878 0.14724 0.0
C2819 C 0.27436 0.16165 0.88101 0.0
C2820 C 0.2786 0.13612 0.86542 0.0
C2821 C 0.24567 0.16455 0.8877 0.0
C2822 C 0.22053 0.14192 0.87905 0.0
H2823 H 0.29354 0.17826 0.8903 0.0
H2824 H 0.24333 0.18403 0.90045 0.0
S2825 S 0.21971 0.07075 0.83836 0.0
N2826 N 0.25492 0.08825 0.84152 0.0
N2827 N 0.2017 0.09359 0.85384 0.0
C2828 C 0.2244 0.11704 0.86241 0.0
C2829 C 0.25319 0.11423 0.85553 0.0
C2830 C 0.89597 0.74016 0.12441 0.0
C2831 C 0.87567 0.71292 0.11952 0.0
C2832 C 0.89019 0.76473 0.11158 0.0
C2833 C 0.86393 0.76313 0.09309 0.0
H2834 H 0.91587 0.74302 0.13953 0.0
H2835 H 0.90482 0.78572 0.11877 0.0
S2836 S 0.80698 0.69581 0.06764 0.0
N2837 N 0.83062 0.68492 0.09092 0.0
N2838 N 0.82017 0.73108 0.06646 0.0
C2839 C 0.84539 0.73531 0.08519 0.0
C2840 C 0.8509 0.71033 0.09873 0.0
C2841 C 0.25807 0.64617 0.90007 0.0
C2842 C 0.2627 0.6277 0.87625 0.0
C2843 C 0.22911 0.64523 0.90879 0.0
C2844 C 0.20355 0.62613 0.89378 0.0
H2845 H 0.27649 0.66286 0.91072 0.0
H2846 H 0.22649 0.66094 0.92612 0.0
S2847 S 0.20384 0.56989 0.83356 0.0
N2848 N 0.23918 0.58678 0.84085 0.0
N2849 N 0.18553 0.58599 0.85648 0.0
C2850 C 0.20823 0.60625 0.8715 0.0
C2851 C 0.23751 0.60675 0.86303 0.0
C2852 C 0.34526 0.97991 0.55389 0.0
C2853 C 0.37431 0.97459 0.55682 0.0
C2854 C 0.34041 0.00842 0.55828 0.0
C2855 C 0.36446 0.03243 0.56583 0.0
H2856 H 0.32607 0.96183 0.55092 0.0
H2857 H 0.31771 0.01133 0.55819 0.0
S2858 S 0.44473 0.03091 0.56892 0.0
N2859 N 0.42736 0.9963 0.56222 0.0
N2860 N 0.41825 0.04962 0.57072 0.0
C2861 C 0.39353 0.02769 0.56554 0.0
C2862 C 0.39845 -0.00117 0.56089 0.0
C2863 C -0.00363 0.06783 0.35262 0.0
C2864 C 0.01584 0.09377 0.34861 0.0
C2865 C 0.96586 0.06675 0.35201 0.0
C2866 C 0.9541 0.0918 0.34773 0.0
H2867 H 0.0051 0.04969 0.36001 0.0
H2868 H 0.95216 0.04707 0.35817 0.0
S2869 S 0.99559 0.16197 0.32712 0.0
N2870 N 0.02113 0.14247 0.33289 0.0
N2871 N 0.96357 0.1408 0.33247 0.0
C2872 C 0.97286 0.11625 0.33903 0.0
C2873 C 0.00386 0.11699 0.33893 0.0
C2874 C 0.66331 0.86369 0.00047 0.0
C2875 C 0.64448 0.84828 0.01873 0.0
C2876 C 0.65693 0.85883 0.9702 0.0
C2877 C 0.63128 0.83854 0.95681 0.0
H2878 H 0.68187 0.88111 0.0095 0.0
H2879 H 0.67124 0.87264 0.95726 0.0
S2880 S 0.57896 0.78746 -0.00529 0.0
N2881 N 0.60239 0.80762 0.02103 0.0
N2882 N 0.59009 0.79941 0.9642 0.0
C2883 C 0.61425 0.82067 0.97466 0.0
C2884 C 0.62089 0.82537 0.00557 0.0
C2885 C 0.11205 0.40728 0.71013 0.0
C2886 C 0.10771 0.37822 0.69837 0.0
C2887 C 0.10906 0.4139 0.73955 0.0
C2888 C 0.10126 0.39164 0.75801 0.0
H2889 H 0.11711 0.42489 0.69643 0.0
H2890 H 0.11127 0.43658 0.74748 0.0
S2891 S 0.08619 0.31182 0.73671 0.0
N2892 N 0.09473 0.32698 0.70691 0.0
N2893 N 0.08951 0.33925 0.7619 0.0
C2894 C 0.09802 0.36248 0.74652 0.0
C2895 C 0.10095 0.35582 0.71672 0.0
C2896 C 0.5864 0.86302 0.46956 0.0
C2897 C 0.60201 0.84485 0.45467 0.0
C2898 C 0.59298 0.87062 0.49961 0.0
C2899 C 0.61558 0.86055 0.51552 0.0
H2900 H 0.57116 0.87368 0.45757 0.0
H2901 H 0.57979 0.88375 0.51056 0.0
S2902 S 0.66114 0.81073 0.48683 0.0
N2903 N 0.63791 0.81389 0.45872 0.0
N2904 N 0.65287 0.83097 0.51421 0.0
C2905 C 0.63037 0.84152 0.50089 0.0
C2906 C 0.6219 0.83187 0.47111 0.0
C2907 C 0.11106 0.35625 0.25594 0.0
C2908 C 0.12446 0.37908 0.2774 0.0
C2909 C 0.10874 0.36134 0.22637 0.0
C2910 C 0.12119 0.3889 0.21781 0.0
H2911 H 0.10158 0.33483 0.26211 0.0
H2912 H 0.09637 0.34416 0.21038 0.0
S2913 S 0.15924 0.45467 0.26595 0.0
N2914 N 0.15038 0.42947 0.28826 0.0
N2915 N 0.14768 0.43863 0.23297 0.0
C2916 C 0.13583 0.41113 0.23917 0.0
C2917 C 0.13709 0.40631 0.26893 0.0
C2918 C 0.61792 0.87569 0.75577 0.0
C2919 C 0.60803 0.90118 0.76369 0.0
C2920 C 0.62423 0.86929 0.72736 0.0
C2921 C 0.62055 0.88787 0.70542 0.0
H2922 H 0.61915 0.85966 0.77112 0.0
H2923 H 0.63007 0.8485 0.72223 0.0
S2924 S 0.60047 0.95994 0.71584 0.0
N2925 N 0.59928 0.94743 0.74802 0.0
N2926 N 0.61025 0.93463 0.69457 0.0
C2927 C 0.61313 0.91454 0.71355 0.0
C2928 C 0.60717 0.9214 0.74266 0.0
C2929 C 0.0871 0.37517 0.49446 0.0
C2930 C 0.1046 0.35982 0.51086 0.0
C2931 C 0.08275 0.36989 0.46409 0.0
C2932 C 0.09532 0.34874 0.44958 0.0
H2933 H 0.07631 0.39079 0.50512 0.0
H2934 H 0.07197 0.38425 0.45185 0.0
S2935 S 0.13907 0.2999 0.48297 0.0
N2936 N 0.13324 0.32168 0.51037 0.0
N2937 N 0.12159 0.30946 0.45395 0.0
C2938 C 0.10961 0.331 0.46609 0.0
C2939 C 0.11628 0.33798 0.49636 0.0
C2940 C 0.64387 0.8781 0.26087 0.0
C2941 C 0.62002 0.87363 0.27827 0.0
C2942 C 0.6391 0.88009 0.231 0.0
C2943 C 0.61025 0.87788 0.21739 0.0
H2944 H 0.66672 0.88224 0.27064 0.0
H2945 H 0.65832 0.88639 0.21927 0.0
S2946 S 0.53979 0.85927 0.25158 0.0
N2947 N 0.56629 0.86205 0.27866 0.0
N2948 N 0.55709 0.86557 0.22235 0.0
C2949 C 0.58601 0.87006 0.23386 0.0
C2950 C 0.59093 0.86827 0.26438 0.0
C2951 C 0.15761 0.36315 -0.00525 0.0
C2952 C 0.13801 0.34899 0.01313 0.0
C2953 C 0.1517 0.3574 0.96458 0.0
C2954 C 0.12579 0.33746 0.95146 0.0
H2955 H 0.17659 0.38024 0.00351 0.0
H2956 H 0.16657 0.37035 0.95143 0.0
S2957 S 0.07206 0.28851 0.98999 0.0
N2958 N 0.0952 0.30931 0.01613 0.0
N2959 N 0.08382 0.29928 0.95927 0.0
C2960 C 0.10804 0.32054 0.96953 0.0
C2961 C 0.11417 0.32621 0.0004 0.0
C2962 C -0.00268 0.56817 0.85868 0.0
C2963 C 0.01633 0.59374 0.85314 0.0
C2964 C 0.96682 0.56676 0.85799 0.0
C2965 C 0.95448 0.59107 0.85184 0.0
H2966 H 0.00646 0.55074 0.86711 0.0
H2967 H 0.9535 0.54751 0.86529 0.0
S2968 S 0.99486 0.66006 0.82777 0.0
N2969 N 0.02082 0.64134 0.83491 0.0
N2970 N 0.96309 0.63899 0.83399 0.0
C2971 C 0.97285 0.61515 0.84208 0.0
C2972 C 0.00393 0.61623 0.84226 0.0
C2973 C 0.51878 0.68219 0.91285 0.0
C2974 C 0.49483 0.66599 0.92544 0.0
C2975 C 0.54775 0.67708 0.91814 0.0
C2976 C 0.55367 0.65592 0.93642 0.0
H2977 H 0.51463 0.69684 0.89683 0.0
H2978 H 0.56485 0.68745 0.90549 0.0
S2979 S 0.49931 0.61113 0.97776 0.0
N2980 N 0.47949 0.63059 0.95939 0.0
N2981 N 0.53382 0.62134 0.96955 0.0
C2982 C 0.53045 0.64198 0.95135 0.0
C2983 C 0.501 0.64683 0.9457 0.0
C2984 C 0.37833 0.29415 0.63397 0.0
C2985 C 0.36723 0.29639 0.60503 0.0
C2986 C 0.37692 0.2669 0.64553 0.0
C2987 C 0.36418 0.24003 0.62894 0.0
H2988 H 0.38743 0.31384 0.6483 0.0
H2989 H 0.38487 0.26703 0.66818 0.0
S2990 S 0.33054 0.23335 0.55211 0.0
N2991 N 0.34279 0.26887 0.56009 0.0
N2992 N 0.3397 0.21806 0.58147 0.0
C2993 C 0.35369 0.24191 0.59962 0.0
C2994 C 0.35533 0.2698 0.58782 0.0
C2995 C 0.73113 0.13459 0.35815 0.0
C2996 C 0.72692 0.15267 0.38232 0.0
C2997 C 0.7595 0.13054 0.35272 0.0
C2998 C 0.78513 0.14497 0.37064 0.0
H2999 H 0.71203 0.12136 0.34463 0.0
H3000 H 0.76114 0.11372 0.33605 0.0
S3001 S 0.78684 0.1952 0.43665 0.0
N3002 N 0.7511 0.18557 0.4243 0.0
N3003 N 0.80465 0.17849 0.41364 0.0
C3004 C 0.78151 0.16432 0.39414 0.0
C3005 C 0.7524 0.16796 0.40015 0.0
C3006 C 0.3863 0.49527 0.64763 0.0
C3007 C 0.39994 0.48155 0.62624 0.0
C3008 C 0.38537 0.52494 0.64754 0.0
C3009 C 0.39766 0.54116 0.62579 0.0
H3010 H 0.37378 0.48244 0.66261 0.0
H3011 H 0.37475 0.53507 0.66417 0.0
S3012 S 0.43771 0.51597 0.56662 0.0
N3013 N 0.42843 0.48725 0.58482 0.0
N3014 N 0.42571 0.54242 0.58401 0.0
C3015 C 0.41315 0.52821 0.60577 0.0
C3016 C 0.41511 0.49869 0.60655 0.0
C3017 C 0.70911 0.10816 0.87428 0.0
C3018 C 0.70434 0.12876 0.89586 0.0
C3019 C 0.73772 0.10866 0.86566 0.0
C3020 C 0.76294 0.13013 0.87781 0.0
H3021 H 0.69035 0.09214 0.86318 0.0
H3022 H 0.73976 0.09306 0.84799 0.0
S3023 S 0.76205 0.18998 0.93439 0.0
N3024 N 0.72716 0.17128 0.92933 0.0
N3025 N 0.78066 0.17274 0.91271 0.0
C3026 C 0.75858 0.15027 0.90022 0.0
C3027 C 0.72939 0.14952 0.90925 0.0
C3028 C 0.12647 0.47803 0.89964 0.0
C3029 C 0.10397 0.4676 0.87664 0.0
C3030 C 0.13084 0.50625 0.9137 0.0
C3031 C 0.11335 0.52638 0.9055 0.0
H3032 H 0.14066 0.464 0.9076 0.0
H3033 H 0.14853 0.5122 0.93143 0.0
S3034 S 0.05196 0.51118 0.84557 0.0
N3035 N 0.06391 0.48041 0.84584 0.0
N3036 N 0.07273 0.53377 0.87205 0.0
C3037 C 0.09071 0.51655 0.88245 0.0
C3038 C 0.08595 0.48728 0.86812 0.0
C3039 C 0.9908 0.87082 0.04407 0.0
C3040 C 0.99524 0.84392 0.05269 0.0
C3041 C 0.96216 0.87616 0.03915 0.0
C3042 C 0.93681 0.85506 0.04331 0.0
H3043 H 0.00971 0.88858 0.04294 0.0
H3044 H 0.96006 0.89814 0.03538 0.0
S3045 S 0.93608 0.77885 0.05894 0.0
N3046 N 0.97183 0.79401 0.05953 0.0
N3047 N 0.91768 0.80452 0.05146 0.0
C3048 C 0.94068 0.82691 0.04838 0.0
C3049 C 0.97005 0.82126 0.05292 0.0
C3050 C 0.71061 0.32163 0.60817 0.0
C3051 C 0.70681 0.34834 0.62171 0.0
C3052 C 0.73833 0.31883 0.59865 0.0
C3053 C 0.76271 0.34288 0.6018 0.0
H3054 H 0.6922 0.30282 0.60509 0.0
H3055 H 0.74074 0.29788 0.589 0.0
S3056 S 0.76515 0.41749 0.63502 0.0
N3057 N 0.7312 0.39916 0.63796 0.0
N3058 N 0.78157 0.39381 0.61874 0.0
C3059 C 0.75915 0.36949 0.6149 0.0
C3060 C 0.7317 0.37227 0.6252 0.0
C3061 C 0.15108 0.75503 0.38091 0.0
C3062 C 0.129 0.72914 0.37367 0.0
C3063 C 0.14809 0.78163 0.37013 0.0
C3064 C 0.12299 0.78346 0.35132 0.0
H3065 H 0.17218 0.75404 0.39265 0.0
H3066 H 0.16634 0.80044 0.37532 0.0
S3067 S 0.05736 0.72239 0.32824 0.0
N3068 N 0.08001 0.70777 0.34907 0.0
N3069 N 0.07424 0.75693 0.32816 0.0
C3070 C 0.09972 0.75812 0.34579 0.0
C3071 C 0.10264 0.73133 0.35734 0.0
C3072 C 0.73475 0.92034 0.64178 0.0
C3073 C 0.71293 0.90121 0.62205 0.0
C3074 C 0.76425 0.92833 0.63551 0.0
C3075 C 0.77229 0.91867 0.60882 0.0
H3076 H 0.72995 0.92615 0.66359 0.0
H3077 H 0.78118 0.93999 0.65241 0.0
S3078 S 0.7223 0.87621 0.54651 0.0
N3079 N 0.70037 0.8783 0.57246 0.0
N3080 N 0.75576 0.89462 0.56032 0.0
C3081 C 0.74995 0.9038 0.58722 0.0
C3082 C 0.72002 0.89502 0.59379 0.0
C3083 C 0.64438 0.49011 0.94499 0.0
C3084 C 0.62013 0.46715 0.93445 0.0
C3085 C 0.64029 0.51875 0.95099 0.0
C3086 C 0.61177 0.52532 0.94683 0.0
H3087 H 0.66686 0.48643 0.94633 0.0
H3088 H 0.65993 0.53613 0.95634 0.0
S3089 S 0.54044 0.47114 0.92687 0.0
N3090 N 0.56633 0.45171 0.92519 0.0
N3091 N 0.55844 0.50507 0.93704 0.0
C3092 C 0.58711 0.50172 0.93977 0.0
C3093 C 0.59135 0.47278 0.9333 0.0
C3094 C 0.35452 0.65543 0.52339 0.0
C3095 C 0.38413 0.66919 0.53373 0.0
C3096 C 0.34669 0.64488 0.49432 0.0
C3097 C 0.36813 0.64815 0.4746 0.0
H3098 H 0.33797 0.6501 0.53838 0.0
H3099 H 0.32423 0.63244 0.48772 0.0
S3100 S 0.44688 0.68923 0.48963 0.0
N3101 N 0.43349 0.69042 0.52134 0.0
N3102 N 0.41886 0.67115 0.46627 0.0
C3103 C 0.39678 0.66552 0.48389 0.0
C3104 C 0.40474 0.6761 0.51364 0.0
C3105 C 0.86175 0.10479 0.76253 0.0
C3106 C 0.88259 0.12023 0.78522 0.0
C3107 C 0.8685 0.10423 0.73354 0.0
C3108 C 0.89575 0.12012 0.726 0.0
H3109 H 0.8406 0.09219 0.76733 0.0
H3110 H 0.8529 0.09007 0.71705 0.0
S3111 S 0.95612 0.1671 0.77702 0.0
N3112 N 0.93054 0.1537 0.79797 0.0
N3113 N 0.94264 0.15342 0.74355 0.0
C3114 C 0.91579 0.13724 0.74831 0.0
C3115 C 0.90937 0.13709 0.77787 0.0
C3116 C 0.37354 0.67442 0.0202 0.0
C3117 C 0.38815 0.65644 0.03626 0.0
C3118 C 0.36908 0.67012 0.98998 0.0
C3119 C 0.3796 0.64807 0.97446 0.0
H3120 H 0.36304 0.69011 0.03121 0.0
H3121 H 0.35729 0.68434 0.9786 0.0
S3122 S 0.42173 0.5969 0.00647 0.0
N3123 N 0.41452 0.61677 0.03469 0.0
N3124 N 0.40735 0.60953 0.97752 0.0
C3125 C 0.39562 0.63092 0.99021 0.0
C3126 C 0.40005 0.63526 0.02113 0.0
C3127 C 0.86549 0.12274 0.27059 0.0
C3128 C 0.85969 0.09225 0.27194 0.0
C3129 C 0.86607 0.13481 0.24349 0.0
C3130 C 0.86189 0.11675 0.21709 0.0
H3131 H 0.87107 0.13726 0.29043 0.0
H3132 H 0.87105 0.15831 0.24324 0.0
S3133 S 0.84212 0.03574 0.20891 0.0
N3134 N 0.84628 0.0446 0.2443 0.0
N3135 N 0.84853 0.06699 0.19424 0.0
C3136 C 0.85456 0.08639 0.21836 0.0
C3137 C 0.85318 0.07426 0.24552 0.0
C3138 C 0.37148 0.60294 0.73286 0.0
C3139 C 0.39903 0.61934 0.72665 0.0
C3140 C 0.36354 0.60288 0.76148 0.0
C3141 C 0.38358 0.61803 0.78495 0.0
H3142 H 0.35648 0.58923 0.71563 0.0
H3143 H 0.34211 0.59014 0.7654 0.0
S3144 S 0.45823 0.66446 0.78026 0.0
N3145 N 0.44587 0.65165 0.74633 0.0
N3146 N 0.43149 0.65089 0.7999 0.0
C3147 C 0.41087 0.6349 0.7789 0.0
C3148 C 0.41848 0.63568 0.74983 0.0
C3149 C 0.86296 0.1695 0.99042 0.0
C3150 C 0.87546 0.14883 0.97513 0.0
C3151 C 0.86531 0.17244 0.02071 0.0
C3152 C 0.88029 0.15493 0.03706 0.0
H3153 H 0.85111 0.18353 0.97882 0.0
H3154 H 0.85338 0.18696 0.03138 0.0
S3155 S 0.91852 0.09874 0.00788 0.0
N3156 N 0.90502 0.11177 0.97876 0.0
N3157 N 0.90869 0.11684 0.03593 0.0
C3158 C 0.89394 0.135 0.02219 0.0
C3159 C 0.89142 0.13183 0.99121 0.0
C3160 C 0.37778 0.577 0.24492 0.0
C3161 C 0.37183 0.59181 0.27061 0.0
C3162 C 0.37872 0.58951 0.21862 0.0
C3163 C 0.37329 0.61754 0.216 0.0
H3164 H 0.38214 0.55524 0.24505 0.0
H3165 H 0.38317 0.57655 0.1999 0.0
S3166 S 0.35589 0.66594 0.27618 0.0
N3167 N 0.35996 0.63627 0.2916 0.0
N3168 N 0.36127 0.65994 0.24175 0.0
C3169 C 0.36656 0.63262 0.24126 0.0
C3170 C 0.36584 0.61975 0.26853 0.0
C3171 C 0.90888 0.17944 0.51515 0.0
C3172 C 0.88685 0.17793 0.53432 0.0
C3173 C 0.90128 0.16813 0.48614 0.0
C3174 C 0.87152 0.15524 0.47573 0.0
H3175 H 0.93229 0.18595 0.52322 0.0
H3176 H 0.91906 0.16701 0.47265 0.0
S3177 S 0.80512 0.15607 0.51474 0.0
N3178 N 0.83378 0.17024 0.53913 0.0
N3179 N 0.81949 0.14861 0.4845 0.0
C3180 C 0.84905 0.15798 0.49346 0.0
C3181 C 0.85675 0.16976 0.52283 0.0
C3182 C 0.44564 0.82543 0.56514 0.0
C3183 C 0.44188 0.85055 0.55179 0.0
C3184 C 0.47412 0.81909 0.57053 0.0
C3185 C 0.4996 0.83784 0.5629 0.0
H3186 H 0.42716 0.81252 0.5744 0.0
H3187 H 0.4765 0.80105 0.583 0.0
S3188 S 0.50082 0.90288 0.52245 0.0
N3189 N 0.46538 0.89141 0.52718 0.0
N3190 N 0.51862 0.87968 0.53732 0.0
C3191 C 0.49557 0.86101 0.54673 0.0
C3192 C 0.46674 0.86722 0.54103 0.0
C3193 C 0.2449 0.35175 0.08066 0.0
C3194 C 0.26133 0.33481 0.09613 0.0
C3195 C 0.2173 0.35535 0.08834 0.0
C3196 C 0.20383 0.34114 0.11083 0.0
H3197 H 0.25464 0.36494 0.06441 0.0
H3198 H 0.20795 0.37166 0.0782 0.0
S3199 S 0.23447 0.28944 0.15443 0.0
N3200 N 0.26021 0.30027 0.1327 0.0
N3201 N 0.20728 0.30644 0.14627 0.0
C3202 C 0.21843 0.32177 0.12466 0.0
C3203 C 0.24732 0.31864 0.11741 0.0
C3204 C 0.5846 0.97966 0.8917 0.0
C3205 C 0.60778 0.96876 0.87959 0.0
C3206 C 0.5885 0.0092 0.90298 0.0
C3207 C 0.61564 0.02913 0.90218 0.0
H3208 H 0.56377 0.96487 0.89402 0.0
H3209 H 0.57093 0.01591 0.91397 0.0
S3210 S 0.68139 0.01312 0.86829 0.0
N3211 N 0.65747 0.98134 0.86472 0.0
N3212 N 0.66465 0.03652 0.88478 0.0
C3213 C 0.63802 0.01891 0.88803 0.0
C3214 C 0.63422 0.98889 0.87713 0.0
C3215 C 0.20832 0.39599 0.59004 0.0
C3216 C 0.19983 0.40331 0.61744 0.0
C3217 C 0.23839 0.40228 0.58526 0.0
C3218 C 0.26048 0.4161 0.60767 0.0
H3219 H 0.1925 0.38195 0.57363 0.0
H3220 H 0.24463 0.39389 0.56488 0.0
S3221 S 0.24852 0.44898 0.67909 0.0
N3222 N 0.21478 0.43269 0.66395 0.0
N3223 N 0.2716 0.44319 0.65518 0.0
C3224 C 0.25189 0.4276 0.63327 0.0
C3225 C 0.22125 0.42199 0.63786 0.0
C3226 C 0.9241 0.52496 0.12961 0.0
C3227 C 0.90008 0.53807 0.13564 0.0
C3228 C 0.92303 0.49566 0.13273 0.0
C3229 C 0.89743 0.47825 0.14094 0.0
H3230 H 0.94321 0.53692 0.1205 0.0
H3231 H 0.94025 0.48577 0.12448 0.0
S3232 S 0.8318 0.50291 0.16604 0.0
N3233 N 0.85276 0.53262 0.15591 0.0
N3234 N 0.85019 0.47662 0.16086 0.0
C3235 C 0.87516 0.49172 0.151 0.0
C3236 C 0.87622 0.52177 0.14785 0.0
C3237 C 0.04503 0.1789 0.92112 0.0
C3238 C 0.05026 0.15468 0.93516 0.0
C3239 C 0.01628 0.18495 0.91788 0.0
C3240 C 0.99198 0.16656 0.92789 0.0
H3241 H 0.0623 0.19121 0.90984 0.0
H3242 H 0.01246 0.20219 0.905 0.0
S3243 S 0.99526 0.10393 0.97077 0.0
N3244 N 0.02983 0.11532 0.96321 0.0
N3245 N 0.97592 0.12615 0.95627 0.0
C3246 C -0.0023 0.14441 0.94469 0.0
C3247 C 0.02689 0.13867 0.94857 0.0
C3248 C 0.23225 0.63001 0.35614 0.0
C3249 C 0.2295 0.65076 0.37865 0.0
C3250 C 0.26001 0.6252 0.34996 0.0
C3251 C 0.28648 0.6415 0.36519 0.0
H3252 H 0.2126 0.61551 0.34462 0.0
H3253 H 0.26064 0.60659 0.33493 0.0
S3254 S 0.29207 0.69889 0.42601 0.0
N3255 N 0.25582 0.68811 0.41625 0.0
N3256 N 0.30846 0.67961 0.40388 0.0
C3257 C 0.28432 0.66344 0.38684 0.0
C3258 C 0.25576 0.66787 0.39381 0.0
C3259 C 0.85795 0.23922 0.59452 0.0
C3260 C 0.87396 0.26834 0.6006 0.0
C3261 C 0.86611 0.21668 0.60922 0.0
C3262 C 0.89139 0.22197 0.62981 0.0
H3263 H 0.83723 0.23428 0.58032 0.0
H3264 H 0.85204 0.19502 0.60475 0.0
S3265 S 0.94322 0.29351 0.65118 0.0
N3266 N 0.91773 0.30075 0.62727 0.0
N3267 N 0.93398 0.258 0.65355 0.0
C3268 C 0.90913 0.25045 0.63423 0.0
C3269 C 0.90042 0.27363 0.61974 0.0
C3270 C 0.20852 0.10513 0.37321 0.0
C3271 C 0.2026 0.12452 0.39538 0.0
C3272 C 0.2376 0.10668 0.36511 0.0
C3273 C 0.2625 0.12806 0.37833 0.0
H3274 H 0.19025 0.0892 0.3612 0.0
H3275 H 0.24027 0.09184 0.34704 0.0
S3276 S 0.25901 0.1849 0.43716 0.0
N3277 N 0.2243 0.16586 0.43069 0.0
N3278 N 0.27857 0.16923 0.41514 0.0
C3279 C 0.25704 0.14703 0.4013 0.0
C3280 C 0.2273 0.14522 0.40978 0.0
C3281 C 0.39269 0.49514 0.05777 0.0
C3282 C 0.36783 0.4716 0.05254 0.0
C3283 C 0.38924 0.52397 0.06237 0.0
C3284 C 0.36079 0.53049 0.06172 0.0
H3285 H 0.41503 0.49111 0.0605 0.0
H3286 H 0.40903 0.54112 0.06816 0.0
S3287 S 0.28849 0.47733 0.04522 0.0
N3288 N 0.31376 0.45714 0.04395 0.0
N3289 N 0.30731 0.51142 0.05238 0.0
C3290 C 0.33578 0.50754 0.05374 0.0
C3291 C 0.33929 0.47806 0.04913 0.0
C3292 C 0.65451 0.36034 0.47201 0.0
C3293 C 0.62948 0.33985 0.45784 0.0
C3294 C 0.66025 0.36445 0.50236 0.0
C3295 C 0.64126 0.3482 0.51998 0.0
H3296 H 0.66893 0.37471 0.45961 0.0
H3297 H 0.67851 0.38191 0.51197 0.0
S3298 S 0.57679 0.28707 0.49381 0.0
N3299 N 0.58848 0.29988 0.46381 0.0
N3300 N 0.59936 0.3071 0.52084 0.0
C3301 C 0.61802 0.32546 0.50607 0.0
C3302 C 0.61216 0.32134 0.47504 0.0
C3303 C 0.09558 0.90786 0.20208 0.0
C3304 C 0.11394 0.88815 0.19629 0.0
C3305 C 0.08816 0.91365 0.23016 0.0
C3306 C 0.09873 0.89994 0.25367 0.0
H3307 H 0.08512 0.91744 0.18459 0.0
H3308 H 0.07229 0.92744 0.23293 0.0
S3309 S 0.15345 0.85282 0.25224 0.0
N3310 N 0.147 0.85954 0.21823 0.0
N3311 N 0.13233 0.87013 0.27062 0.0
C3312 C 0.11921 0.88252 0.24894 0.0
C3313 C 0.12703 0.87676 0.22037 0.0
C3314 C 0.58289 0.39952 -0.00118 0.0
C3315 C 0.60821 0.40219 0.01902 0.0
C3316 C 0.58226 0.38691 0.97029 0.0
C3317 C 0.60716 0.3772 0.96123 0.0
H3318 H 0.56208 0.40255 0.00633 0.0
H3319 H 0.56152 0.38262 0.95617 0.0
S3320 S 0.68209 0.39101 0.0039 0.0
N3321 N 0.66103 0.40466 0.02565 0.0
N3322 N 0.65994 0.37741 0.97414 0.0
C3323 C 0.63397 0.3845 0.98034 0.0
C3324 C 0.63473 0.39921 0.00834 0.0
C3325 C 0.15893 0.88329 0.73091 0.0
C3326 C 0.13308 0.8834 0.71292 0.0
C3327 C 0.15777 0.88034 0.76043 0.0
C3328 C 0.13071 0.87711 0.77317 0.0
H3329 H 0.1805 0.88796 0.72267 0.0
H3330 H 0.17872 0.88252 0.77367 0.0
S3331 S 0.05613 0.87246 0.73401 0.0
N3332 N 0.07918 0.87726 0.70872 0.0
N3333 N 0.07706 0.87182 0.76464 0.0
C3334 C 0.1044 0.87555 0.75499 0.0
C3335 C 0.10559 0.87852 0.72473 0.0
C3336 C 0.60831 0.36027 0.21799 0.0
C3337 C 0.60823 0.38179 0.1985 0.0
C3338 C 0.60632 0.3665 0.24768 0.0
C3339 C 0.60454 0.39461 0.25901 0.0
H3340 H 0.60786 0.33794 0.20997 0.0
H3341 H 0.60392 0.34864 0.26128 0.0
S3342 S 0.61054 0.46005 0.2178 0.0
N3343 N 0.61075 0.43302 0.19307 0.0
N3344 N 0.60832 0.44534 0.24887 0.0
C3345 C 0.60777 0.41698 0.24009 0.0
C3346 C 0.60909 0.41041 0.20981 0.0
C3347 C 0.08979 0.87753 0.99116 0.0
C3348 C 0.11173 0.86642 0.00693 0.0
C3349 C 0.08092 0.86802 0.96164 0.0
C3350 C 0.09359 0.84696 0.94713 0.0
H3351 H 0.07866 0.89279 0.00193 0.0
H3352 H 0.06649 0.87937 0.94945 0.0
S3353 S 0.14883 0.80845 0.97962 0.0
N3354 N 0.1449 0.83248 0.00593 0.0
N3355 N 0.12503 0.81182 0.95209 0.0
C3356 C 0.11218 0.83287 0.96392 0.0
C3357 C 0.1236 0.84467 0.99264 0.0
C3358 C 0.59402 0.36003 0.76348 0.0
C3359 C 0.62162 0.37016 0.78011 0.0
C3360 C 0.59126 0.36228 0.73348 0.0
C3361 C 0.61596 0.37498 0.71938 0.0
H3362 H 0.57437 0.35135 0.7738 0.0
H3363 H 0.56917 0.35659 0.72169 0.0
S3364 S 0.69307 0.40426 0.75333 0.0
N3365 N 0.67426 0.39253 0.78022 0.0
N3366 N 0.66891 0.39619 0.72402 0.0
C3367 C 0.64401 0.38299 0.73544 0.0
C3368 C 0.64681 0.38104 0.76587 0.0
C3369 C 0.14707 0.84538 0.45663 0.0
C3370 C 0.11866 0.83023 0.44376 0.0
C3371 C 0.15283 0.85302 0.48661 0.0
C3372 C 0.13051 0.84544 0.50497 0.0
H3373 H 0.16439 0.85336 0.44313 0.0
H3374 H 0.17453 0.866 0.49525 0.0
S3375 S 0.05342 0.80236 0.48239 0.0
N3376 N 0.0689 0.8055 0.4518 0.0
N3377 N 0.07958 0.81907 0.5083 0.0
C3378 C 0.10276 0.82793 0.49264 0.0
C3379 C 0.09691 0.82037 0.46199 0.0
C3380 C 0.5502 0.18147 0.43171 0.0
C3381 C 0.55568 0.15721 0.44566 0.0
C3382 C 0.52084 0.18563 0.42556 0.0
C3383 C 0.49606 0.16527 0.43234 0.0
H3384 H 0.56815 0.19535 0.42255 0.0
H3385 H 0.51734 0.20331 0.41318 0.0
S3386 S 0.49884 0.10192 0.47437 0.0
N3387 N 0.53411 0.1159 0.47078 0.0
N3388 N 0.47934 0.12302 0.45812 0.0
C3389 C 0.50156 0.14303 0.44915 0.0
C3390 C 0.53129 0.13934 0.45622 0.0
C3391 C 0.74399 0.62619 0.91337 0.0
C3392 C 0.73129 0.64847 0.90278 0.0
C3393 C 0.76953 0.6197 0.90275 0.0
C3394 C 0.78409 0.63578 0.88179 0.0
H3395 H 0.73238 0.61158 0.92755 0.0
H3396 H 0.77681 0.60068 0.90983 0.0
S3397 S 0.76332 0.70027 0.85172 0.0
N3398 N 0.73754 0.6895 0.87343 0.0
N3399 N 0.78634 0.67768 0.85407 0.0
C3400 C 0.77361 0.66017 0.87346 0.0
C3401 C 0.74705 0.66644 0.88386 0.0
C3402 C 0.42201 -0.00093 0.12703 0.0
C3403 C 0.39578 0.98185 0.13427 0.0
C3404 C 0.42518 0.02911 0.12728 0.0
C3405 C 0.40233 0.04312 0.13506 0.0
H3406 H 0.43865 0.98893 0.11797 0.0
H3407 H 0.44505 0.04123 0.11949 0.0
S3408 S 0.33118 0.00771 0.16044 0.0
N3409 N 0.34788 0.98061 0.15274 0.0
N3410 N 0.35424 0.0378 0.15382 0.0
C3411 C 0.37708 0.02644 0.14492 0.0
C3412 C 0.37391 0.99563 0.14476 0.0
C3413 C 0.72998 0.6443 0.4116 0.0
C3414 C 0.70385 0.62549 0.39744 0.0
C3415 C 0.75833 0.64449 0.40188 0.0
C3416 C 0.76168 0.62561 0.3779 0.0
H3417 H 0.72824 0.66038 0.42896 0.0
H3418 H 0.77723 0.66105 0.41171 0.0
S3419 S 0.70081 0.56857 0.33701 0.0
N3420 N 0.68377 0.58538 0.36059 0.0
N3421 N 0.73646 0.58466 0.34324 0.0
C3422 C 0.73595 0.60488 0.36558 0.0
C3423 C 0.70725 0.60517 0.37502 0.0
C3424 C 0.09375 0.27275 0.38058 0.0
C3425 C 0.09607 0.27652 0.35104 0.0
C3426 C 0.08388 0.24492 0.38954 0.0
C3427 C 0.07616 0.22025 0.36917 0.0
H3428 H 0.10255 0.29073 0.39706 0.0
H3429 H 0.08551 0.24239 0.41257 0.0
S3430 S 0.06908 0.21949 0.28923 0.0
N3431 N 0.08212 0.25413 0.30128 0.0
N3432 N 0.06518 0.20177 0.31843 0.0
C3433 C 0.0742 0.22425 0.33961 0.0
C3434 C 0.08357 0.25253 0.33044 0.0
C3435 C 0.60759 0.26766 0.36102 0.0
C3436 C 0.63228 0.29165 0.36494 0.0
C3437 C 0.609 0.24088 0.37176 0.0
C3438 C 0.63561 0.23642 0.38586 0.0
H3439 H 0.58735 0.26884 0.34796 0.0
H3440 H 0.5905 0.22249 0.36532 0.0
S3441 S 0.70475 0.29306 0.40717 0.0
N3442 N 0.68245 0.31027 0.38886 0.0
N3443 N 0.68561 0.2593 0.40763 0.0
C3444 C 0.6593 0.26097 0.39291 0.0
C3445 C 0.6577 0.28856 0.38245 0.0
C3446 C 0.1421 0.02389 0.94532 0.0
C3447 C 0.11284 0.02877 0.94293 0.0
C3448 C 0.1475 0.99598 0.9384 0.0
C3449 C 0.12384 0.97218 0.92876 0.0
H3450 H 0.16111 0.04208 0.94967 0.0
H3451 H 0.17036 0.99358 0.93831 0.0
S3452 S 0.04324 0.97157 0.92689 0.0
N3453 N 0.05994 0.00597 0.93663 0.0
N3454 N 0.07024 0.95386 0.92292 0.0
C3455 C 0.09457 0.97601 0.92977 0.0
C3456 C 0.08904 0.0042 0.93728 0.0
C3457 C 0.50872 0.87175 0.12505 0.0
C3458 C 0.53094 0.88986 0.11199 0.0
C3459 C 0.47824 0.86964 0.11607 0.0
C3460 C 0.46887 0.8855 0.09372 0.0
H3461 H 0.51493 0.8584 0.14155 0.0
H3462 H 0.46188 0.85402 0.12539 0.0
S3463 S 0.51848 0.93329 0.05049 0.0
N3464 N 0.54154 0.9229 0.07478 0.0
N3465 N 0.48454 0.91841 0.05772 0.0
C3466 C 0.49094 0.90407 0.08097 0.0
C3467 C 0.52189 0.90635 0.09015 0.0
C3468 C 0.4888 0.40825 0.59487 0.0
C3469 C 0.46732 0.3835 0.59946 0.0
C3470 C 0.51924 0.41143 0.60536 0.0
C3471 C 0.52955 0.38981 0.62043 0.0
H3472 H 0.48252 0.42393 0.58101 0.0
H3473 H 0.53521 0.42979 0.59951 0.0
S3474 S 0.48185 0.32238 0.64075 0.0
N3475 N 0.4583 0.33835 0.62258 0.0
N3476 N 0.51508 0.34404 0.64142 0.0
C3477 C 0.50801 0.36588 0.62656 0.0
C3478 C 0.4771 0.36286 0.61635 0.0
C3479 C 0.08677 0.72338 0.83233 0.0
C3480 C 0.07743 0.71943 0.85992 0.0
C3481 C 0.09717 0.75128 0.82421 0.0
C3482 C 0.0992 0.77636 0.84364 0.0
H3483 H 0.08866 0.70479 0.81791 0.0
H3484 H 0.10649 0.75277 0.80367 0.0
S3485 S 0.06542 0.77745 0.91301 0.0
N3486 N 0.06194 0.74245 0.90277 0.0
N3487 N 0.08223 0.79532 0.88774 0.0
C3488 C 0.08521 0.77272 0.86917 0.0
C3489 C 0.07405 0.74408 0.87723 0.0
C3490 C 0.88395 0.79282 0.62898 0.0
C3491 C 0.87058 0.79495 0.60083 0.0
C3492 C 0.88219 0.7658 0.641 0.0
C3493 C 0.86701 0.739 0.62565 0.0
H3494 H 0.89501 0.81252 0.64252 0.0
H3495 H 0.8919 0.76615 0.66315 0.0
S3496 S 0.82891 0.73167 0.55046 0.0
N3497 N 0.84251 0.76714 0.55743 0.0
N3498 N 0.83915 0.71668 0.57966 0.0
C3499 C 0.85474 0.74059 0.59684 0.0
C3500 C 0.85656 0.76829 0.58457 0.0
C3501 C 0.40521 0.74741 0.63315 0.0
C3502 C 0.38555 0.72012 0.62598 0.0
C3503 C 0.40121 0.77215 0.6197 0.0
C3504 C 0.37647 0.77094 0.59931 0.0
H3505 H 0.423 0.75009 0.65056 0.0
H3506 H 0.41536 0.79301 0.62823 0.0
S3507 S 0.32046 0.70434 0.56972 0.0
N3508 N 0.34234 0.69278 0.59422 0.0
N3509 N 0.33427 0.73964 0.56964 0.0
C3510 C 0.35824 0.74331 0.58987 0.0
C3511 C 0.36243 0.71798 0.60347 0.0
C3512 C 0.88936 0.99605 0.0607 0.0
C3513 C 0.86482 0.97222 0.05534 0.0
C3514 C 0.88537 0.02462 0.06572 0.0
C3515 C 0.85669 0.03048 0.06535 0.0
H3516 H 0.91184 0.99238 0.06326 0.0
H3517 H 0.90491 0.04206 0.07155 0.0
S3518 S 0.78502 0.97626 0.04909 0.0
N3519 N 0.8108 0.95669 0.04728 0.0
N3520 N 0.80329 0.01052 0.05639 0.0
C3521 C 0.83195 0.00723 0.05734 0.0
C3522 C 0.83602 0.97803 0.05233 0.0
C3523 C 0.49726 0.07036 0.87034 0.0
C3524 C 0.51751 0.09329 0.86125 0.0
C3525 C 0.46755 0.07192 0.87054 0.0
C3526 C 0.45692 0.0962 0.8612 0.0
H3527 H 0.5051 0.05325 0.88106 0.0
H3528 H 0.45343 0.05501 0.88053 0.0
S3529 S 0.5004 0.15862 0.82925 0.0
N3530 N 0.52467 0.13843 0.83786 0.0
N3531 N 0.46812 0.14124 0.83838 0.0
C3532 C 0.47626 0.11755 0.84884 0.0
C3533 C 0.50666 0.11576 0.84829 0.0
C3534 C 0.5018 0.57115 0.36631 0.0
C3535 C 0.52039 0.59607 0.35854 0.0
C3536 C 0.47115 0.5691 0.36445 0.0
C3537 C 0.4584 0.59217 0.35521 0.0
H3538 H 0.51117 0.55509 0.37736 0.0
H3539 H 0.45793 0.55069 0.37329 0.0
S3540 S 0.49765 0.65839 0.3255 0.0
N3541 N 0.52415 0.64119 0.33555 0.0
N3542 N 0.4661 0.63768 0.33274 0.0
C3543 C 0.47642 0.61524 0.34367 0.0
C3544 C 0.50763 0.6169 0.34487 0.0
C3545 C 0.87666 0.29375 0.13287 0.0
C3546 C 0.86544 0.29642 0.10408 0.0
C3547 C 0.8738 0.26647 0.14447 0.0
C3548 C 0.85949 0.24002 0.12803 0.0
H3549 H 0.88676 0.31323 0.14717 0.0
H3550 H 0.88184 0.26631 0.16706 0.0
S3551 S 0.82588 0.23447 0.05128 0.0
N3552 N 0.83972 0.26976 0.05924 0.0
N3553 N 0.83419 0.21872 0.08061 0.0
C3554 C 0.84921 0.2422 0.0987 0.0
C3555 C 0.85222 0.27018 0.08689 0.0
C3556 C 0.65532 0.78039 0.87435 0.0
C3557 C 0.62927 0.78368 0.85795 0.0
C3558 C 0.65871 0.75288 0.88243 0.0
C3559 C 0.63613 0.72737 0.87485 0.0
H3560 H 0.67373 0.79897 0.88007 0.0
H3561 H 0.68011 0.75118 0.89303 0.0
S3562 S 0.56221 0.72403 0.83482 0.0
N3563 N 0.57921 0.75873 0.83656 0.0
N3564 N 0.58603 0.70764 0.85194 0.0
C3565 C 0.60922 0.73063 0.86035 0.0
C3566 C 0.60576 0.7585 0.85175 0.0
C3567 C 0.16736 0.50012 0.43791 0.0
C3568 C 0.14273 0.47646 0.43611 0.0
C3569 C 0.16426 0.5289 0.44517 0.0
C3570 C 0.13648 0.53472 0.451 0.0
H3571 H 0.18835 0.49668 0.43112 0.0
H3572 H 0.18263 0.54674 0.44268 0.0
S3573 S 0.06746 0.47943 0.45607 0.0
N3574 N 0.09144 0.4601 0.4457 0.0
N3575 N 0.08574 0.51386 0.45993 0.0
C3576 C 0.11305 0.51073 0.45318 0.0
C3577 C 0.11603 0.48167 0.44527 0.0
C3578 C 0.39786 0.27013 0.11475 0.0
C3579 C 0.37055 0.26588 0.09717 0.0
C3580 C 0.40568 0.24745 0.12956 0.0
C3581 C 0.38681 0.21949 0.1272 0.0
H3582 H 0.41166 0.29187 0.11993 0.0
H3583 H 0.42589 0.25242 0.14441 0.0
S3584 S 0.31551 0.19575 0.07939 0.0
N3585 N 0.32695 0.23051 0.07454 0.0
N3586 N 0.34128 0.18801 0.10267 0.0
C3587 C 0.36086 0.21422 0.10744 0.0
C3588 C 0.35319 0.23722 0.09198 0.0
C3589 C 0.83505 0.50566 0.55366 0.0
C3590 C 0.86008 0.52885 0.56031 0.0
C3591 C 0.83848 0.47674 0.54842 0.0
C3592 C 0.86704 0.47026 0.54954 0.0
H3593 H 0.81283 0.50949 0.5551 0.0
H3594 H 0.81878 0.45927 0.54641 0.0
S3595 S 0.93916 0.52406 0.5587 0.0
N3596 N 0.91395 0.54399 0.56246 0.0
N3597 N 0.92034 0.48992 0.55218 0.0
C3598 C 0.89193 0.49368 0.55253 0.0
C3599 C 0.88847 0.52293 0.55813 0.0
loop_
_geom_bond_atom_site_label_1
_geom_bond_atom_site_label_2
_geom_bond_distance
_geom_bond_site_symmetry_2
_ccdc_geom_bond_type
C0 O12 1.241 . S
C0 O13 1.280 . S
C1 O14 1.277 . S
C1 O15 1.245 . S
C2 O26 1.247 . S
C2 O28 1.289 . S
Mg3 O4 1.926 . S
Mg3 O13 1.984 . S
Mg3 O15 1.988 . S
Mg3 O16 2.061 . S
O4 Mg3 1.926 . S
O4 Mg5 1.986 . S
O4 Mg6 1.917 . S
Mg5 O4 1.986 . S
Mg5 O12 2.042 . S
Mg5 O14 2.041 . S
Mg5 O20 2.038 . S
Mg5 O28 2.238 . S
Mg6 O4 1.917 . S
Mg6 O7 1.917 . S
Mg6 O17 2.106 . S
Mg6 O19 2.079 . S
Mg6 O28 2.106 . S
Mg6 O29 2.079 . S
O7 Mg6 1.917 . S
O7 Mg8 1.926 . S
O7 Mg9 1.986 . S
Mg8 O7 1.926 . S
Mg8 O22 1.984 . S
Mg8 O25 1.988 . S
Mg8 O26 2.061 . S
Mg9 O7 1.986 . S
Mg9 O17 2.238 . S
Mg9 O21 2.042 . S
Mg9 O23 2.041 . S
Mg9 O30 2.038 . S
C10 O16 1.247 . S
C10 O17 1.289 . S
C11 O29 1.245 . S
C11 O30 1.274 . S
O12 C0 1.241 . S
O12 Mg5 2.042 . S
O13 C0 1.280 . S
O13 Mg3 1.984 . S
O14 C1 1.277 . S
O14 Mg5 2.041 . S
O15 C1 1.245 . S
O15 Mg3 1.988 . S
O16 Mg3 2.061 . S
O16 C10 1.247 . S
O17 Mg6 2.106 . S
O17 Mg9 2.238 . S
O17 C10 1.289 . S
C18 O19 1.245 . S
C18 O20 1.274 . S
O19 Mg6 2.079 . S
O19 C18 1.245 . S
O20 Mg5 2.038 . S
O20 C18 1.274 . S
O21 Mg9 2.042 . S
O21 C24 1.241 . S
O22 Mg8 1.984 . S
O22 C24 1.280 . S
O23 Mg9 2.041 . S
O23 C27 1.277 . S
C24 O21 1.241 . S
C24 O22 1.280 . S
O25 Mg8 1.988 . S
O25 C27 1.245 . S
O26 C2 1.247 . S
O26 Mg8 2.061 . S
C27 O23 1.277 . S
C27 O25 1.245 . S
O28 C2 1.289 . S
O28 Mg5 2.238 . S
O28 Mg6 2.106 . S
O29 Mg6 2.079 . S
O29 C11 1.245 . S
O30 Mg9 2.038 . S
O30 C11 1.274 . S
C31 O43 1.241 . S
C31 O44 1.280 . S
C32 O45 1.277 . S
C32 O46 1.245 . S
C33 O57 1.247 . S
C33 O59 1.289 . S
Mg34 O35 1.926 . S
Mg34 O44 1.984 . S
Mg34 O46 1.988 . S
Mg34 O47 2.061 . S
O35 Mg34 1.926 . S
O35 Mg36 1.986 . S
O35 Mg37 1.917 . S
Mg36 O35 1.986 . S
Mg36 O43 2.042 . S
Mg36 O45 2.041 . S
Mg36 O51 2.038 . S
Mg36 O59 2.238 . S
Mg37 O35 1.917 . S
Mg37 O38 1.917 . S
Mg37 O48 2.106 . S
Mg37 O50 2.079 . S
Mg37 O59 2.106 . S
Mg37 O60 2.079 . S
O38 Mg37 1.917 . S
O38 Mg39 1.926 . S
O38 Mg40 1.986 . S
Mg39 O38 1.926 . S
Mg39 O53 1.984 . S
Mg39 O56 1.988 . S
Mg39 O57 2.061 . S
Mg40 O38 1.986 . S
Mg40 O48 2.238 . S
Mg40 O52 2.042 . S
Mg40 O54 2.041 . S
Mg40 O61 2.038 . S
C41 O47 1.247 . S
C41 O48 1.289 . S
C42 O60 1.245 . S
C42 O61 1.274 . S
O43 C31 1.241 . S
O43 Mg36 2.042 . S
O44 C31 1.280 . S
O44 Mg34 1.984 . S
O45 C32 1.277 . S
O45 Mg36 2.041 . S
O46 C32 1.245 . S
O46 Mg34 1.988 . S
O47 Mg34 2.061 . S
O47 C41 1.247 . S
O48 Mg37 2.106 . S
O48 Mg40 2.238 . S
O48 C41 1.289 . S
C49 O50 1.245 . S
C49 O51 1.274 . S
O50 Mg37 2.079 . S
O50 C49 1.245 . S
O51 Mg36 2.038 . S
O51 C49 1.274 . S
O52 Mg40 2.042 . S
O52 C55 1.241 . S
O53 Mg39 1.984 . S
O53 C55 1.280 . S
O54 Mg40 2.041 . S
O54 C58 1.277 . S
C55 O52 1.241 . S
C55 O53 1.280 . S
O56 Mg39 1.988 . S
O56 C58 1.245 . S
O57 C33 1.247 . S
O57 Mg39 2.061 . S
C58 O54 1.277 . S
C58 O56 1.245 . S
O59 C33 1.289 . S
O59 Mg36 2.238 . S
O59 Mg37 2.106 . S
O60 Mg37 2.079 . S
O60 C42 1.245 . S
O61 Mg40 2.038 . S
O61 C42 1.274 . S
C62 O74 1.241 . S
C62 O75 1.280 . S
C63 O76 1.277 . S
C63 O77 1.245 . S
C64 O88 1.247 1_556 S
C64 O90 1.289 . S
Mg65 O66 1.926 . S
Mg65 O75 1.984 . S
Mg65 O77 1.988 . S
Mg65 O78 2.061 . S
O66 Mg65 1.926 . S
O66 Mg67 1.986 . S
O66 Mg68 1.917 . S
Mg67 O66 1.986 . S
Mg67 O74 2.042 . S
Mg67 O76 2.041 . S
Mg67 O82 2.038 . S
Mg67 O90 2.238 . S
Mg68 O66 1.917 . S
Mg68 O69 1.917 . S
Mg68 O79 2.106 . S
Mg68 O81 2.079 . S
Mg68 O90 2.106 . S
Mg68 O91 2.079 . S
O69 Mg68 1.917 . S
O69 Mg70 1.926 1_556 S
O69 Mg71 1.986 . S
Mg70 O69 1.926 1_554 S
Mg70 O84 1.984 . S
Mg70 O87 1.988 . S
Mg70 O88 2.061 . S
Mg71 O69 1.986 . S
Mg71 O79 2.238 . S
Mg71 O83 2.042 . S
Mg71 O85 2.041 . S
Mg71 O92 2.038 . S
C72 O78 1.247 . S
C72 O79 1.289 . S
C73 O91 1.245 . S
C73 O92 1.274 . S
O74 C62 1.241 . S
O74 Mg67 2.042 . S
O75 C62 1.280 . S
O75 Mg65 1.984 . S
O76 C63 1.277 . S
O76 Mg67 2.041 . S
O77 C63 1.245 . S
O77 Mg65 1.988 . S
O78 Mg65 2.061 . S
O78 C72 1.247 . S
O79 Mg68 2.106 . S
O79 Mg71 2.238 . S
O79 C72 1.289 . S
C80 O81 1.245 . S
C80 O82 1.274 . S
O81 Mg68 2.079 . S
O81 C80 1.245 . S
O82 Mg67 2.038 . S
O82 C80 1.274 . S
O83 Mg71 2.042 . S
O83 C86 1.241 1_556 S
O84 Mg70 1.984 . S
O84 C86 1.280 . S
O85 Mg71 2.041 . S
O85 C89 1.277 1_556 S
C86 O83 1.241 1_554 S
C86 O84 1.280 . S
O87 Mg70 1.988 . S
O87 C89 1.245 . S
O88 C64 1.247 1_554 S
O88 Mg70 2.061 . S
C89 O85 1.277 1_554 S
C89 O87 1.245 . S
O90 C64 1.289 . S
O90 Mg67 2.238 . S
O90 Mg68 2.106 . S
O91 Mg68 2.079 . S
O91 C73 1.245 . S
O92 Mg71 2.038 . S
O92 C73 1.274 . S
C93 O105 1.241 . S
C93 O106 1.280 . S
C94 O107 1.277 . S
C94 O108 1.245 . S
C95 O119 1.247 . S
C95 O121 1.289 . S
Mg96 O97 1.926 . S
Mg96 O106 1.984 . S
Mg96 O108 1.988 . S
Mg96 O109 2.061 . S
O97 Mg96 1.926 . S
O97 Mg98 1.986 . S
O97 Mg99 1.917 . S
Mg98 O97 1.986 . S
Mg98 O105 2.042 . S
Mg98 O107 2.041 . S
Mg98 O113 2.038 . S
Mg98 O121 2.238 . S
Mg99 O97 1.917 . S
Mg99 O100 1.917 . S
Mg99 O110 2.106 . S
Mg99 O112 2.079 . S
Mg99 O121 2.106 . S
Mg99 O122 2.079 . S
O100 Mg99 1.917 . S
O100 Mg101 1.926 . S
O100 Mg102 1.986 . S
Mg101 O100 1.926 . S
Mg101 O115 1.984 . S
Mg101 O118 1.988 . S
Mg101 O119 2.061 . S
Mg102 O100 1.986 . S
Mg102 O110 2.238 . S
Mg102 O114 2.042 . S
Mg102 O116 2.041 . S
Mg102 O123 2.038 . S
C103 O109 1.247 . S
C103 O110 1.289 . S
C104 O122 1.245 . S
C104 O123 1.274 . S
O105 C93 1.241 . S
O105 Mg98 2.042 . S
O106 C93 1.280 . S
O106 Mg96 1.984 . S
O107 C94 1.277 . S
O107 Mg98 2.041 . S
O108 C94 1.245 . S
O108 Mg96 1.988 . S
O109 Mg96 2.061 . S
O109 C103 1.247 . S
O110 Mg99 2.106 . S
O110 Mg102 2.238 . S
O110 C103 1.289 . S
C111 O112 1.245 . S
C111 O113 1.274 . S
O112 Mg99 2.079 . S
O112 C111 1.245 . S
O113 Mg98 2.038 . S
O113 C111 1.274 . S
O114 Mg102 2.042 . S
O114 C117 1.241 . S
O115 Mg101 1.984 . S
O115 C117 1.280 . S
O116 Mg102 2.041 . S
O116 C120 1.277 . S
C117 O114 1.241 . S
C117 O115 1.280 . S
O118 Mg101 1.988 . S
O118 C120 1.245 . S
O119 C95 1.247 . S
O119 Mg101 2.061 . S
C120 O116 1.277 . S
C120 O118 1.245 . S
O121 C95 1.289 . S
O121 Mg98 2.238 . S
O121 Mg99 2.106 . S
O122 Mg99 2.079 . S
O122 C104 1.245 . S
O123 Mg102 2.038 . S
O123 C104 1.274 . S
C124 O136 1.241 . S
C124 O137 1.280 . S
C125 O138 1.277 . S
C125 O139 1.245 . S
C126 O150 1.247 . S
C126 O152 1.289 . S
Mg127 O128 1.926 . S
Mg127 O137 1.984 . S
Mg127 O139 1.988 . S
Mg127 O140 2.061 . S
O128 Mg127 1.926 . S
O128 Mg129 1.986 . S
O128 Mg130 1.917 . S
Mg129 O128 1.986 . S
Mg129 O136 2.042 . S
Mg129 O138 2.041 . S
Mg129 O144 2.038 . S
Mg129 O152 2.238 . S
Mg130 O128 1.917 . S
Mg130 O131 1.917 . S
Mg130 O141 2.106 . S
Mg130 O143 2.079 . S
Mg130 O152 2.106 . S
Mg130 O153 2.079 . S
O131 Mg130 1.917 . S
O131 Mg132 1.926 . S
O131 Mg133 1.986 . S
Mg132 O131 1.926 . S
Mg132 O146 1.984 . S
Mg132 O149 1.988 . S
Mg132 O150 2.061 . S
Mg133 O131 1.986 . S
Mg133 O141 2.238 . S
Mg133 O145 2.042 . S
Mg133 O147 2.041 . S
Mg133 O154 2.038 . S
C134 O140 1.247 . S
C134 O141 1.289 . S
C135 O153 1.245 . S
C135 O154 1.274 . S
O136 C124 1.241 . S
O136 Mg129 2.042 . S
O137 C124 1.280 . S
O137 Mg127 1.984 . S
O138 C125 1.277 . S
O138 Mg129 2.041 . S
O139 C125 1.245 . S
O139 Mg127 1.988 . S
O140 Mg127 2.061 . S
O140 C134 1.247 . S
O141 Mg130 2.106 . S
O141 Mg133 2.238 . S
O141 C134 1.289 . S
C142 O143 1.245 . S
C142 O144 1.274 . S
O143 Mg130 2.079 . S
O143 C142 1.245 . S
O144 Mg129 2.038 . S
O144 C142 1.274 . S
O145 Mg133 2.042 . S
O145 C148 1.241 . S
O146 Mg132 1.984 . S
O146 C148 1.280 . S
O147 Mg133 2.041 . S
O147 C151 1.277 . S
C148 O145 1.241 . S
C148 O146 1.280 . S
O149 Mg132 1.988 . S
O149 C151 1.245 . S
O150 C126 1.247 . S
O150 Mg132 2.061 . S
C151 O147 1.277 . S
C151 O149 1.245 . S
O152 C126 1.289 . S
O152 Mg129 2.238 . S
O152 Mg130 2.106 . S
O153 Mg130 2.079 . S
O153 C135 1.245 . S
O154 Mg133 2.038 . S
O154 C135 1.274 . S
C155 O167 1.241 . S
C155 O168 1.280 . S
C156 O169 1.277 . S
C156 O170 1.245 . S
C157 O181 1.247 1_554 S
C157 O183 1.289 . S
Mg158 O159 1.926 . S
Mg158 O168 1.984 . S
Mg158 O170 1.988 . S
Mg158 O171 2.061 . S
O159 Mg158 1.926 . S
O159 Mg160 1.986 . S
O159 Mg161 1.917 . S
Mg160 O159 1.986 . S
Mg160 O167 2.042 . S
Mg160 O169 2.041 . S
Mg160 O175 2.038 . S
Mg160 O183 2.238 . S
Mg161 O159 1.917 . S
Mg161 O162 1.917 . S
Mg161 O172 2.106 . S
Mg161 O174 2.079 . S
Mg161 O183 2.106 . S
Mg161 O184 2.079 . S
O162 Mg161 1.917 . S
O162 Mg163 1.926 1_554 S
O162 Mg164 1.986 . S
Mg163 O162 1.926 1_556 S
Mg163 O177 1.984 . S
Mg163 O180 1.988 . S
Mg163 O181 2.061 . S
Mg164 O162 1.986 . S
Mg164 O172 2.238 . S
Mg164 O176 2.042 . S
Mg164 O178 2.041 . S
Mg164 O185 2.038 . S
C165 O171 1.247 . S
C165 O172 1.289 . S
C166 O184 1.245 . S
C166 O185 1.274 . S
O167 C155 1.241 . S
O167 Mg160 2.042 . S
O168 C155 1.280 . S
O168 Mg158 1.984 . S
O169 C156 1.277 . S
O169 Mg160 2.041 . S
O170 C156 1.245 . S
O170 Mg158 1.988 . S
O171 Mg158 2.061 . S
O171 C165 1.247 . S
O172 Mg161 2.106 . S
O172 Mg164 2.238 . S
O172 C165 1.289 . S
C173 O174 1.245 . S
C173 O175 1.274 . S
O174 Mg161 2.079 . S
O174 C173 1.245 . S
O175 Mg160 2.038 . S
O175 C173 1.274 . S
O176 Mg164 2.042 . S
O176 C179 1.241 1_554 S
O177 Mg163 1.984 . S
O177 C179 1.280 . S
O178 Mg164 2.041 . S
O178 C182 1.277 1_554 S
C179 O176 1.241 1_556 S
C179 O177 1.280 . S
O180 Mg163 1.988 . S
O180 C182 1.245 . S
O181 C157 1.247 1_556 S
O181 Mg163 2.061 . S
C182 O178 1.277 1_556 S
C182 O180 1.245 . S
O183 C157 1.289 . S
O183 Mg160 2.238 . S
O183 Mg161 2.106 . S
O184 Mg161 2.079 . S
O184 C166 1.245 . S
O185 Mg164 2.038 . S
O185 C166 1.274 . S
C186 O198 1.241 . S
C186 O199 1.280 . S
C187 O200 1.277 . S
C187 O201 1.245 . S
C188 O212 1.247 . S
C188 O214 1.289 . S
Mg189 O190 1.926 . S
Mg189 O199 1.984 . S
Mg189 O201 1.988 . S
Mg189 O202 2.061 . S
O190 Mg189 1.926 . S
O190 Mg191 1.986 . S
O190 Mg192 1.917 . S
Mg191 O190 1.986 . S
Mg191 O198 2.042 . S
Mg191 O200 2.041 . S
Mg191 O206 2.038 . S
Mg191 O214 2.238 . S
Mg192 O190 1.917 . S
Mg192 O193 1.917 . S
Mg192 O203 2.106 . S
Mg192 O205 2.079 . S
Mg192 O214 2.106 . S
Mg192 O215 2.079 . S
O193 Mg192 1.917 . S
O193 Mg194 1.926 . S
O193 Mg195 1.986 . S
Mg194 O193 1.926 . S
Mg194 O208 1.984 . S
Mg194 O211 1.988 . S
Mg194 O212 2.061 . S
Mg195 O193 1.986 . S
Mg195 O203 2.238 . S
Mg195 O207 2.042 . S
Mg195 O209 2.041 . S
Mg195 O216 2.038 . S
C196 O202 1.247 . S
C196 O203 1.289 . S
C197 O215 1.245 . S
C197 O216 1.274 . S
O198 C186 1.241 . S
O198 Mg191 2.042 . S
O199 C186 1.280 . S
O199 Mg189 1.984 . S
O200 C187 1.277 . S
O200 Mg191 2.041 . S
O201 C187 1.245 . S
O201 Mg189 1.988 . S
O202 Mg189 2.061 . S
O202 C196 1.247 . S
O203 Mg192 2.106 . S
O203 Mg195 2.238 . S
O203 C196 1.289 . S
C204 O205 1.245 . S
C204 O206 1.274 . S
O205 Mg192 2.079 . S
O205 C204 1.245 . S
O206 Mg191 2.038 . S
O206 C204 1.274 . S
O207 Mg195 2.042 . S
O207 C210 1.241 . S
O208 Mg194 1.984 . S
O208 C210 1.280 . S
O209 Mg195 2.041 . S
O209 C213 1.277 . S
C210 O207 1.241 . S
C210 O208 1.280 . S
O211 Mg194 1.988 . S
O211 C213 1.245 . S
O212 C188 1.247 . S
O212 Mg194 2.061 . S
C213 O209 1.277 . S
C213 O211 1.245 . S
O214 C188 1.289 . S
O214 Mg191 2.238 . S
O214 Mg192 2.106 . S
O215 Mg192 2.079 . S
O215 C197 1.245 . S
O216 Mg195 2.038 . S
O216 C197 1.274 . S
C217 O229 1.241 . S
C217 O230 1.280 . S
C218 O231 1.277 . S
C218 O232 1.245 . S
C219 O243 1.247 . S
C219 O245 1.289 . S
Mg220 O221 1.926 . S
Mg220 O230 1.984 . S
Mg220 O232 1.988 . S
Mg220 O233 2.061 . S
O221 Mg220 1.926 . S
O221 Mg222 1.986 . S
O221 Mg223 1.917 . S
Mg222 O221 1.986 . S
Mg222 O229 2.042 . S
Mg222 O231 2.041 . S
Mg222 O237 2.038 . S
Mg222 O245 2.238 . S
Mg223 O221 1.917 . S
Mg223 O224 1.917 . S
Mg223 O234 2.106 . S
Mg223 O236 2.079 . S
Mg223 O245 2.106 . S
Mg223 O246 2.079 . S
O224 Mg223 1.917 . S
O224 Mg225 1.926 . S
O224 Mg226 1.986 . S
Mg225 O224 1.926 . S
Mg225 O239 1.984 . S
Mg225 O242 1.988 . S
Mg225 O243 2.061 . S
Mg226 O224 1.986 . S
Mg226 O234 2.238 . S
Mg226 O238 2.042 . S
Mg226 O240 2.041 . S
Mg226 O247 2.038 . S
C227 O233 1.247 . S
C227 O234 1.289 . S
C228 O246 1.245 . S
C228 O247 1.274 . S
O229 C217 1.241 . S
O229 Mg222 2.042 . S
O230 C217 1.280 . S
O230 Mg220 1.984 . S
O231 C218 1.277 . S
O231 Mg222 2.041 . S
O232 C218 1.245 . S
O232 Mg220 1.988 . S
O233 Mg220 2.061 . S
O233 C227 1.247 . S
O234 Mg223 2.106 . S
O234 Mg226 2.238 . S
O234 C227 1.289 . S
C235 O236 1.245 . S
C235 O237 1.274 . S
O236 Mg223 2.079 . S
O236 C235 1.245 . S
O237 Mg222 2.038 . S
O237 C235 1.274 . S
O238 Mg226 2.042 . S
O238 C241 1.241 . S
O239 Mg225 1.984 . S
O239 C241 1.280 . S
O240 Mg226 2.041 . S
O240 C244 1.277 . S
C241 O238 1.241 . S
C241 O239 1.280 . S
O242 Mg225 1.988 . S
O242 C244 1.245 . S
O243 C219 1.247 . S
O243 Mg225 2.061 . S
C244 O240 1.277 . S
C244 O242 1.245 . S
O245 C219 1.289 . S
O245 Mg222 2.238 . S
O245 Mg223 2.106 . S
O246 Mg223 2.079 . S
O246 C228 1.245 . S
O247 Mg226 2.038 . S
O247 C228 1.274 . S
C248 O260 1.241 . S
C248 O261 1.280 . S
C249 O262 1.277 . S
C249 O263 1.245 . S
C250 O274 1.247 . S
C250 O276 1.289 . S
Mg251 O252 1.926 . S
Mg251 O261 1.984 . S
Mg251 O263 1.988 . S
Mg251 O264 2.061 . S
O252 Mg251 1.926 . S
O252 Mg253 1.986 . S
O252 Mg254 1.917 . S
Mg253 O252 1.986 . S
Mg253 O260 2.042 . S
Mg253 O262 2.041 . S
Mg253 O268 2.038 . S
Mg253 O276 2.238 . S
Mg254 O252 1.917 . S
Mg254 O255 1.917 . S
Mg254 O265 2.106 . S
Mg254 O267 2.079 . S
Mg254 O276 2.106 . S
Mg254 O277 2.079 . S
O255 Mg254 1.917 . S
O255 Mg256 1.926 . S
O255 Mg257 1.986 . S
Mg256 O255 1.926 . S
Mg256 O270 1.984 . S
Mg256 O273 1.988 . S
Mg256 O274 2.061 . S
Mg257 O255 1.986 . S
Mg257 O265 2.238 . S
Mg257 O269 2.042 . S
Mg257 O271 2.041 . S
Mg257 O278 2.038 . S
C258 O264 1.247 . S
C258 O265 1.289 . S
C259 O277 1.245 . S
C259 O278 1.274 . S
O260 C248 1.241 . S
O260 Mg253 2.042 . S
O261 C248 1.280 . S
O261 Mg251 1.984 . S
O262 C249 1.277 . S
O262 Mg253 2.041 . S
O263 C249 1.245 . S
O263 Mg251 1.988 . S
O264 Mg251 2.061 . S
O264 C258 1.247 . S
O265 Mg254 2.106 . S
O265 Mg257 2.238 . S
O265 C258 1.289 . S
C266 O267 1.245 . S
C266 O268 1.274 . S
O267 Mg254 2.079 . S
O267 C266 1.245 . S
O268 Mg253 2.038 . S
O268 C266 1.274 . S
O269 Mg257 2.042 . S
O269 C272 1.241 . S
O270 Mg256 1.984 . S
O270 C272 1.280 . S
O271 Mg257 2.041 . S
O271 C275 1.277 . S
C272 O269 1.241 . S
C272 O270 1.280 . S
O273 Mg256 1.988 . S
O273 C275 1.245 . S
O274 C250 1.247 . S
O274 Mg256 2.061 . S
C275 O271 1.277 . S
C275 O273 1.245 . S
O276 C250 1.289 . S
O276 Mg253 2.238 . S
O276 Mg254 2.106 . S
O277 Mg254 2.079 . S
O277 C259 1.245 . S
O278 Mg257 2.038 . S
O278 C259 1.274 . S
C279 O291 1.241 . S
C279 O292 1.280 . S
C280 O293 1.277 . S
C280 O294 1.245 . S
C281 O305 1.247 . S
C281 O307 1.289 . S
Mg282 O283 1.926 . S
Mg282 O292 1.984 . S
Mg282 O294 1.988 . S
Mg282 O295 2.061 . S
O283 Mg282 1.926 . S
O283 Mg284 1.986 . S
O283 Mg285 1.917 . S
Mg284 O283 1.986 . S
Mg284 O291 2.042 . S
Mg284 O293 2.041 . S
Mg284 O299 2.038 . S
Mg284 O307 2.238 . S
Mg285 O283 1.917 . S
Mg285 O286 1.917 . S
Mg285 O296 2.106 . S
Mg285 O298 2.079 . S
Mg285 O307 2.106 . S
Mg285 O308 2.079 . S
O286 Mg285 1.917 . S
O286 Mg287 1.926 . S
O286 Mg288 1.986 . S
Mg287 O286 1.926 . S
Mg287 O301 1.984 . S
Mg287 O304 1.988 . S
Mg287 O305 2.061 . S
Mg288 O286 1.986 . S
Mg288 O296 2.238 . S
Mg288 O300 2.042 . S
Mg288 O302 2.041 . S
Mg288 O309 2.038 . S
C289 O295 1.247 . S
C289 O296 1.289 . S
C290 O308 1.245 . S
C290 O309 1.274 . S
O291 C279 1.241 . S
O291 Mg284 2.042 . S
O292 C279 1.280 . S
O292 Mg282 1.984 . S
O293 C280 1.277 . S
O293 Mg284 2.041 . S
O294 C280 1.245 . S
O294 Mg282 1.988 . S
O295 Mg282 2.061 . S
O295 C289 1.247 . S
O296 Mg285 2.106 . S
O296 Mg288 2.238 . S
O296 C289 1.289 . S
C297 O298 1.245 . S
C297 O299 1.274 . S
O298 Mg285 2.079 . S
O298 C297 1.245 . S
O299 Mg284 2.038 . S
O299 C297 1.274 . S
O300 Mg288 2.042 . S
O300 C303 1.241 . S
O301 Mg287 1.984 . S
O301 C303 1.280 . S
O302 Mg288 2.041 . S
O302 C306 1.277 . S
C303 O300 1.241 . S
C303 O301 1.280 . S
O304 Mg287 1.988 . S
O304 C306 1.245 . S
O305 C281 1.247 . S
O305 Mg287 2.061 . S
C306 O302 1.277 . S
C306 O304 1.245 . S
O307 C281 1.289 . S
O307 Mg284 2.238 . S
O307 Mg285 2.106 . S
O308 Mg285 2.079 . S
O308 C290 1.245 . S
O309 Mg288 2.038 . S
O309 C290 1.274 . S
C310 O322 1.241 . S
C310 O323 1.280 . S
C311 O324 1.277 . S
C311 O325 1.245 . S
C312 O336 1.247 . S
C312 O338 1.289 . S
Mg313 O314 1.926 . S
Mg313 O323 1.984 . S
Mg313 O325 1.988 . S
Mg313 O326 2.061 . S
O314 Mg313 1.926 . S
O314 Mg315 1.986 . S
O314 Mg316 1.917 . S
Mg315 O314 1.986 . S
Mg315 O322 2.042 . S
Mg315 O324 2.041 . S
Mg315 O330 2.038 . S
Mg315 O338 2.238 . S
Mg316 O314 1.917 . S
Mg316 O317 1.917 . S
Mg316 O327 2.106 . S
Mg316 O329 2.079 . S
Mg316 O338 2.106 . S
Mg316 O339 2.079 . S
O317 Mg316 1.917 . S
O317 Mg318 1.926 . S
O317 Mg319 1.986 . S
Mg318 O317 1.926 . S
Mg318 O332 1.984 . S
Mg318 O335 1.988 . S
Mg318 O336 2.061 . S
Mg319 O317 1.986 . S
Mg319 O327 2.238 . S
Mg319 O331 2.042 . S
Mg319 O333 2.041 . S
Mg319 O340 2.038 . S
C320 O326 1.247 . S
C320 O327 1.289 . S
C321 O339 1.245 . S
C321 O340 1.274 . S
O322 C310 1.241 . S
O322 Mg315 2.042 . S
O323 C310 1.280 . S
O323 Mg313 1.984 . S
O324 C311 1.277 . S
O324 Mg315 2.041 . S
O325 C311 1.245 . S
O325 Mg313 1.988 . S
O326 Mg313 2.061 . S
O326 C320 1.247 . S
O327 Mg316 2.106 . S
O327 Mg319 2.238 . S
O327 C320 1.289 . S
C328 O329 1.245 . S
C328 O330 1.274 . S
O329 Mg316 2.079 . S
O329 C328 1.245 . S
O330 Mg315 2.038 . S
O330 C328 1.274 . S
O331 Mg319 2.042 . S
O331 C334 1.241 . S
O332 Mg318 1.984 . S
O332 C334 1.280 . S
O333 Mg319 2.041 . S
O333 C337 1.277 . S
C334 O331 1.241 . S
C334 O332 1.280 . S
O335 Mg318 1.988 . S
O335 C337 1.245 . S
O336 C312 1.247 . S
O336 Mg318 2.061 . S
C337 O333 1.277 . S
C337 O335 1.245 . S
O338 C312 1.289 . S
O338 Mg315 2.238 . S
O338 Mg316 2.106 . S
O339 Mg316 2.079 . S
O339 C321 1.245 . S
O340 Mg319 2.038 . S
O340 C321 1.274 . S
C341 O353 1.241 . S
C341 O354 1.280 . S
C342 O355 1.277 . S
C342 O356 1.245 . S
C343 O367 1.247 . S
C343 O369 1.289 . S
Mg344 O345 1.926 . S
Mg344 O354 1.984 . S
Mg344 O356 1.988 . S
Mg344 O357 2.061 . S
O345 Mg344 1.926 . S
O345 Mg346 1.986 . S
O345 Mg347 1.917 . S
Mg346 O345 1.986 . S
Mg346 O353 2.042 . S
Mg346 O355 2.041 . S
Mg346 O361 2.038 . S
Mg346 O369 2.238 . S
Mg347 O345 1.917 . S
Mg347 O348 1.917 . S
Mg347 O358 2.106 . S
Mg347 O360 2.079 . S
Mg347 O369 2.106 . S
Mg347 O370 2.079 . S
O348 Mg347 1.917 . S
O348 Mg349 1.926 . S
O348 Mg350 1.986 . S
Mg349 O348 1.926 . S
Mg349 O363 1.984 . S
Mg349 O366 1.988 . S
Mg349 O367 2.061 . S
Mg350 O348 1.986 . S
Mg350 O358 2.238 . S
Mg350 O362 2.042 . S
Mg350 O364 2.041 . S
Mg350 O371 2.038 . S
C351 O357 1.247 . S
C351 O358 1.289 . S
C352 O370 1.245 . S
C352 O371 1.274 . S
O353 C341 1.241 . S
O353 Mg346 2.042 . S
O354 C341 1.280 . S
O354 Mg344 1.984 . S
O355 C342 1.277 . S
O355 Mg346 2.041 . S
O356 C342 1.245 . S
O356 Mg344 1.988 . S
O357 Mg344 2.061 . S
O357 C351 1.247 . S
O358 Mg347 2.106 . S
O358 Mg350 2.238 . S
O358 C351 1.289 . S
C359 O360 1.245 . S
C359 O361 1.274 . S
O360 Mg347 2.079 . S
O360 C359 1.245 . S
O361 Mg346 2.038 . S
O361 C359 1.274 . S
O362 Mg350 2.042 . S
O362 C365 1.241 . S
O363 Mg349 1.984 . S
O363 C365 1.280 . S
O364 Mg350 2.041 . S
O364 C368 1.277 . S
C365 O362 1.241 . S
C365 O363 1.280 . S
O366 Mg349 1.988 . S
O366 C368 1.245 . S
O367 C343 1.247 . S
O367 Mg349 2.061 . S
C368 O364 1.277 . S
C368 O366 1.245 . S
O369 C343 1.289 . S
O369 Mg346 2.238 . S
O369 Mg347 2.106 . S
O370 Mg347 2.079 . S
O370 C352 1.245 . S
O371 Mg350 2.038 . S
O371 C352 1.274 . S
C372 O384 1.241 . S
C372 O385 1.280 . S
C373 O386 1.277 . S
C373 O387 1.245 . S
C374 O398 1.247 . S
C374 O400 1.289 . S
Mg375 O376 1.926 . S
Mg375 O385 1.984 . S
Mg375 O387 1.988 . S
Mg375 O388 2.061 . S
O376 Mg375 1.926 . S
O376 Mg377 1.986 . S
O376 Mg378 1.917 . S
Mg377 O376 1.986 . S
Mg377 O384 2.042 . S
Mg377 O386 2.041 . S
Mg377 O392 2.038 . S
Mg377 O400 2.238 . S
Mg378 O376 1.917 . S
Mg378 O379 1.917 . S
Mg378 O389 2.106 . S
Mg378 O391 2.079 . S
Mg378 O400 2.106 . S
Mg378 O401 2.079 . S
O379 Mg378 1.917 . S
O379 Mg380 1.926 . S
O379 Mg381 1.986 . S
Mg380 O379 1.926 . S
Mg380 O394 1.984 . S
Mg380 O397 1.988 . S
Mg380 O398 2.061 . S
Mg381 O379 1.986 . S
Mg381 O389 2.238 . S
Mg381 O393 2.042 . S
Mg381 O395 2.041 . S
Mg381 O402 2.038 . S
C382 O388 1.247 . S
C382 O389 1.289 . S
C383 O401 1.245 . S
C383 O402 1.274 . S
O384 C372 1.241 . S
O384 Mg377 2.042 . S
O385 C372 1.280 . S
O385 Mg375 1.984 . S
O386 C373 1.277 . S
O386 Mg377 2.041 . S
O387 C373 1.245 . S
O387 Mg375 1.988 . S
O388 Mg375 2.061 . S
O388 C382 1.247 . S
O389 Mg378 2.106 . S
O389 Mg381 2.238 . S
O389 C382 1.289 . S
C390 O391 1.245 . S
C390 O392 1.274 . S
O391 Mg378 2.079 . S
O391 C390 1.245 . S
O392 Mg377 2.038 . S
O392 C390 1.274 . S
O393 Mg381 2.042 . S
O393 C396 1.241 . S
O394 Mg380 1.984 . S
O394 C396 1.280 . S
O395 Mg381 2.041 . S
O395 C399 1.277 . S
C396 O393 1.241 . S
C396 O394 1.280 . S
O397 Mg380 1.988 . S
O397 C399 1.245 . S
O398 C374 1.247 . S
O398 Mg380 2.061 . S
C399 O395 1.277 . S
C399 O397 1.245 . S
O400 C374 1.289 . S
O400 Mg377 2.238 . S
O400 Mg378 2.106 . S
O401 Mg378 2.079 . S
O401 C383 1.245 . S
O402 Mg381 2.038 . S
O402 C383 1.274 . S
C403 O415 1.241 . S
C403 O416 1.280 . S
C404 O417 1.277 . S
C404 O418 1.245 . S
C405 O429 1.247 . S
C405 O431 1.289 . S
Mg406 O407 1.926 . S
Mg406 O416 1.984 . S
Mg406 O418 1.988 . S
Mg406 O419 2.061 . S
O407 Mg406 1.926 . S
O407 Mg408 1.986 . S
O407 Mg409 1.917 . S
Mg408 O407 1.986 . S
Mg408 O415 2.042 . S
Mg408 O417 2.041 . S
Mg408 O423 2.038 . S
Mg408 O431 2.238 . S
Mg409 O407 1.917 . S
Mg409 O410 1.917 . S
Mg409 O420 2.106 . S
Mg409 O422 2.079 . S
Mg409 O431 2.106 . S
Mg409 O432 2.079 . S
O410 Mg409 1.917 . S
O410 Mg411 1.926 . S
O410 Mg412 1.986 . S
Mg411 O410 1.926 . S
Mg411 O425 1.984 . S
Mg411 O428 1.988 . S
Mg411 O429 2.061 . S
Mg412 O410 1.986 . S
Mg412 O420 2.238 . S
Mg412 O424 2.042 . S
Mg412 O426 2.041 . S
Mg412 O433 2.038 . S
C413 O419 1.247 . S
C413 O420 1.289 . S
C414 O432 1.245 . S
C414 O433 1.274 . S
O415 C403 1.241 . S
O415 Mg408 2.042 . S
O416 C403 1.280 . S
O416 Mg406 1.984 . S
O417 C404 1.277 . S
O417 Mg408 2.041 . S
O418 C404 1.245 . S
O418 Mg406 1.988 . S
O419 Mg406 2.061 . S
O419 C413 1.247 . S
O420 Mg409 2.106 . S
O420 Mg412 2.238 . S
O420 C413 1.289 . S
C421 O422 1.245 . S
C421 O423 1.274 . S
O422 Mg409 2.079 . S
O422 C421 1.245 . S
O423 Mg408 2.038 . S
O423 C421 1.274 . S
O424 Mg412 2.042 . S
O424 C427 1.241 . S
O425 Mg411 1.984 . S
O425 C427 1.280 . S
O426 Mg412 2.041 . S
O426 C430 1.277 . S
C427 O424 1.241 . S
C427 O425 1.280 . S
O428 Mg411 1.988 . S
O428 C430 1.245 . S
O429 C405 1.247 . S
O429 Mg411 2.061 . S
C430 O426 1.277 . S
C430 O428 1.245 . S
O431 C405 1.289 . S
O431 Mg408 2.238 . S
O431 Mg409 2.106 . S
O432 Mg409 2.079 . S
O432 C414 1.245 . S
O433 Mg412 2.038 . S
O433 C414 1.274 . S
C434 O446 1.241 . S
C434 O447 1.280 . S
C435 O448 1.277 . S
C435 O449 1.245 . S
C436 O460 1.247 . S
C436 O462 1.289 . S
Mg437 O438 1.926 . S
Mg437 O447 1.984 . S
Mg437 O449 1.988 . S
Mg437 O450 2.061 . S
O438 Mg437 1.926 . S
O438 Mg439 1.986 . S
O438 Mg440 1.917 . S
Mg439 O438 1.986 . S
Mg439 O446 2.042 . S
Mg439 O448 2.041 . S
Mg439 O454 2.038 . S
Mg439 O462 2.238 . S
Mg440 O438 1.917 . S
Mg440 O441 1.917 . S
Mg440 O451 2.106 . S
Mg440 O453 2.079 . S
Mg440 O462 2.106 . S
Mg440 O463 2.079 . S
O441 Mg440 1.917 . S
O441 Mg442 1.926 . S
O441 Mg443 1.986 . S
Mg442 O441 1.926 . S
Mg442 O456 1.984 . S
Mg442 O459 1.988 . S
Mg442 O460 2.061 . S
Mg443 O441 1.986 . S
Mg443 O451 2.238 . S
Mg443 O455 2.042 . S
Mg443 O457 2.041 . S
Mg443 O464 2.038 . S
C444 O450 1.247 . S
C444 O451 1.289 . S
C445 O463 1.245 . S
C445 O464 1.274 . S
O446 C434 1.241 . S
O446 Mg439 2.042 . S
O447 C434 1.280 . S
O447 Mg437 1.984 . S
O448 C435 1.277 . S
O448 Mg439 2.041 . S
O449 C435 1.245 . S
O449 Mg437 1.988 . S
O450 Mg437 2.061 . S
O450 C444 1.247 . S
O451 Mg440 2.106 . S
O451 Mg443 2.238 . S
O451 C444 1.289 . S
C452 O453 1.245 . S
C452 O454 1.274 . S
O453 Mg440 2.079 . S
O453 C452 1.245 . S
O454 Mg439 2.038 . S
O454 C452 1.274 . S
O455 Mg443 2.042 . S
O455 C458 1.241 . S
O456 Mg442 1.984 . S
O456 C458 1.280 . S
O457 Mg443 2.041 . S
O457 C461 1.277 . S
C458 O455 1.241 . S
C458 O456 1.280 . S
O459 Mg442 1.988 . S
O459 C461 1.245 . S
O460 C436 1.247 . S
O460 Mg442 2.061 . S
C461 O457 1.277 . S
C461 O459 1.245 . S
O462 C436 1.289 . S
O462 Mg439 2.238 . S
O462 Mg440 2.106 . S
O463 Mg440 2.079 . S
O463 C445 1.245 . S
O464 Mg443 2.038 . S
O464 C445 1.274 . S
C465 O477 1.241 . S
C465 O478 1.280 1_565 S
C466 O479 1.268 1_545 S
C466 O480 1.249 . S
C467 O491 1.247 . S
C467 O493 1.289 . S
Mg468 O469 1.926 1_545 S
Mg468 O478 1.984 . S
Mg468 O480 1.988 . S
Mg468 O481 2.061 . S
O469 Mg468 1.926 1_565 S
O469 Mg470 1.986 . S
O469 Mg471 1.917 . S
Mg470 O469 1.986 . S
Mg470 O477 2.042 . S
Mg470 O479 2.041 . S
Mg470 O485 2.038 . S
Mg470 O493 2.238 . S
Mg471 O469 1.917 . S
Mg471 O472 1.917 . S
Mg471 O482 2.106 . S
Mg471 O484 2.079 . S
Mg471 O493 2.106 . S
Mg471 O494 2.079 . S
O472 Mg471 1.917 . S
O472 Mg473 1.926 . S
O472 Mg474 1.986 . S
Mg473 O472 1.926 . S
Mg473 O487 1.984 . S
Mg473 O490 1.988 . S
Mg473 O491 2.061 . S
Mg474 O472 1.986 . S
Mg474 O482 2.238 . S
Mg474 O486 2.042 . S
Mg474 O488 2.041 . S
Mg474 O495 2.038 . S
C475 O481 1.247 1_565 S
C475 O482 1.289 . S
C476 O494 1.245 . S
C476 O495 1.274 . S
O477 C465 1.241 . S
O477 Mg470 2.042 . S
O478 C465 1.280 1_545 S
O478 Mg468 1.984 . S
O479 C466 1.268 1_565 S
O479 Mg470 2.041 . S
O480 C466 1.249 . S
O480 Mg468 1.988 . S
O481 Mg468 2.061 . S
O481 C475 1.247 1_545 S
O482 Mg471 2.106 . S
O482 Mg474 2.238 . S
O482 C475 1.289 . S
C483 O484 1.245 . S
C483 O485 1.274 . S
O484 Mg471 2.079 . S
O484 C483 1.245 . S
O485 Mg470 2.038 . S
O485 C483 1.274 . S
O486 Mg474 2.042 . S
O486 C489 1.241 . S
O487 Mg473 1.984 . S
O487 C489 1.280 . S
O488 Mg474 2.041 . S
O488 C492 1.277 . S
C489 O486 1.241 . S
C489 O487 1.280 . S
O490 Mg473 1.988 . S
O490 C492 1.245 . S
O491 C467 1.247 . S
O491 Mg473 2.061 . S
C492 O488 1.277 . S
C492 O490 1.245 . S
O493 C467 1.289 . S
O493 Mg470 2.238 . S
O493 Mg471 2.106 . S
O494 Mg471 2.079 . S
O494 C476 1.245 . S
O495 Mg474 2.038 . S
O495 C476 1.274 . S
C496 O508 1.241 . S
C496 O509 1.280 . S
C497 O510 1.277 . S
C497 O511 1.245 . S
C498 O522 1.247 . S
C498 O524 1.289 . S
Mg499 O500 1.926 . S
Mg499 O509 1.984 . S
Mg499 O511 1.988 . S
Mg499 O512 2.061 . S
O500 Mg499 1.926 . S
O500 Mg501 1.986 . S
O500 Mg502 1.917 . S
Mg501 O500 1.986 . S
Mg501 O508 2.042 . S
Mg501 O510 2.041 . S
Mg501 O516 2.038 . S
Mg501 O524 2.238 . S
Mg502 O500 1.917 . S
Mg502 O503 1.917 . S
Mg502 O513 2.106 . S
Mg502 O515 2.079 . S
Mg502 O524 2.106 . S
Mg502 O525 2.079 . S
O503 Mg502 1.917 . S
O503 Mg504 1.926 . S
O503 Mg505 1.986 . S
Mg504 O503 1.926 . S
Mg504 O518 1.984 . S
Mg504 O521 1.988 . S
Mg504 O522 2.061 . S
Mg505 O503 1.986 . S
Mg505 O513 2.238 . S
Mg505 O517 2.042 . S
Mg505 O519 2.041 . S
Mg505 O526 2.038 . S
C506 O512 1.247 . S
C506 O513 1.289 . S
C507 O525 1.245 . S
C507 O526 1.274 . S
O508 C496 1.241 . S
O508 Mg501 2.042 . S
O509 C496 1.280 . S
O509 Mg499 1.984 . S
O510 C497 1.277 . S
O510 Mg501 2.041 . S
O511 C497 1.245 . S
O511 Mg499 1.988 . S
O512 Mg499 2.061 . S
O512 C506 1.247 . S
O513 Mg502 2.106 . S
O513 Mg505 2.238 . S
O513 C506 1.289 . S
C514 O515 1.245 . S
C514 O516 1.274 . S
O515 Mg502 2.079 . S
O515 C514 1.245 . S
O516 Mg501 2.038 . S
O516 C514 1.274 . S
O517 Mg505 2.042 . S
O517 C520 1.241 . S
O518 Mg504 1.984 . S
O518 C520 1.280 . S
O519 Mg505 2.041 . S
O519 C523 1.277 . S
C520 O517 1.241 . S
C520 O518 1.280 . S
O521 Mg504 1.988 . S
O521 C523 1.245 . S
O522 C498 1.247 . S
O522 Mg504 2.061 . S
C523 O519 1.277 . S
C523 O521 1.245 . S
O524 C498 1.289 . S
O524 Mg501 2.238 . S
O524 Mg502 2.106 . S
O525 Mg502 2.079 . S
O525 C507 1.245 . S
O526 Mg505 2.038 . S
O526 C507 1.274 . S
C527 O539 1.241 . S
C527 O540 1.280 . S
C528 O541 1.277 . S
C528 O542 1.245 . S
C529 O553 1.247 . S
C529 O555 1.289 . S
Mg530 O531 1.926 . S
Mg530 O540 1.984 . S
Mg530 O542 1.988 . S
Mg530 O543 2.061 . S
O531 Mg530 1.926 . S
O531 Mg532 1.986 . S
O531 Mg533 1.917 . S
Mg532 O531 1.986 . S
Mg532 O539 2.042 . S
Mg532 O541 2.041 . S
Mg532 O547 2.038 . S
Mg532 O555 2.238 . S
Mg533 O531 1.917 . S
Mg533 O534 1.917 . S
Mg533 O544 2.106 . S
Mg533 O546 2.079 . S
Mg533 O555 2.106 . S
Mg533 O556 2.079 . S
O534 Mg533 1.917 . S
O534 Mg535 1.926 . S
O534 Mg536 1.986 . S
Mg535 O534 1.926 . S
Mg535 O549 1.984 . S
Mg535 O552 1.988 . S
Mg535 O553 2.061 . S
Mg536 O534 1.986 . S
Mg536 O544 2.238 . S
Mg536 O548 2.042 . S
Mg536 O550 2.041 . S
Mg536 O557 2.038 . S
C537 O543 1.247 . S
C537 O544 1.289 . S
C538 O556 1.245 . S
C538 O557 1.274 . S
O539 C527 1.241 . S
O539 Mg532 2.042 . S
O540 C527 1.280 . S
O540 Mg530 1.984 . S
O541 C528 1.277 . S
O541 Mg532 2.041 . S
O542 C528 1.245 . S
O542 Mg530 1.988 . S
O543 Mg530 2.061 . S
O543 C537 1.247 . S
O544 Mg533 2.106 . S
O544 Mg536 2.238 . S
O544 C537 1.289 . S
C545 O546 1.245 . S
C545 O547 1.274 . S
O546 Mg533 2.079 . S
O546 C545 1.245 . S
O547 Mg532 2.038 . S
O547 C545 1.274 . S
O548 Mg536 2.042 . S
O548 C551 1.241 . S
O549 Mg535 1.984 . S
O549 C551 1.280 . S
O550 Mg536 2.041 . S
O550 C554 1.277 . S
C551 O548 1.241 . S
C551 O549 1.280 . S
O552 Mg535 1.988 . S
O552 C554 1.245 . S
O553 C529 1.247 . S
O553 Mg535 2.061 . S
C554 O550 1.277 . S
C554 O552 1.245 . S
O555 C529 1.289 . S
O555 Mg532 2.238 . S
O555 Mg533 2.106 . S
O556 Mg533 2.079 . S
O556 C538 1.245 . S
O557 Mg536 2.038 . S
O557 C538 1.274 . S
C558 O570 1.241 . S
C558 O571 1.280 1_455 S
C559 O572 1.277 1_655 S
C559 O573 1.245 . S
C560 O584 1.247 . S
C560 O586 1.289 . S
Mg561 O562 1.926 1_655 S
Mg561 O571 1.984 . S
Mg561 O573 1.988 . S
Mg561 O574 2.061 . S
O562 Mg561 1.926 1_455 S
O562 Mg563 1.986 . S
O562 Mg564 1.917 . S
Mg563 O562 1.986 . S
Mg563 O570 2.042 . S
Mg563 O572 2.041 . S
Mg563 O578 2.038 . S
Mg563 O586 2.238 . S
Mg564 O562 1.917 . S
Mg564 O565 1.917 . S
Mg564 O575 2.106 . S
Mg564 O577 2.079 . S
Mg564 O586 2.106 . S
Mg564 O587 2.079 . S
O565 Mg564 1.917 . S
O565 Mg566 1.926 . S
O565 Mg567 1.986 . S
Mg566 O565 1.926 . S
Mg566 O580 1.984 . S
Mg566 O583 1.988 . S
Mg566 O584 2.061 . S
Mg567 O565 1.986 . S
Mg567 O575 2.238 . S
Mg567 O579 2.042 . S
Mg567 O581 2.041 . S
Mg567 O588 2.038 . S
C568 O574 1.247 1_455 S
C568 O575 1.289 . S
C569 O587 1.245 . S
C569 O588 1.274 . S
O570 C558 1.241 . S
O570 Mg563 2.042 . S
O571 C558 1.280 1_655 S
O571 Mg561 1.984 . S
O572 C559 1.277 1_455 S
O572 Mg563 2.041 . S
O573 C559 1.245 . S
O573 Mg561 1.988 . S
O574 Mg561 2.061 . S
O574 C568 1.247 1_655 S
O575 Mg564 2.106 . S
O575 Mg567 2.238 . S
O575 C568 1.289 . S
C576 O577 1.245 . S
C576 O578 1.274 . S
O577 Mg564 2.079 . S
O577 C576 1.245 . S
O578 Mg563 2.038 . S
O578 C576 1.274 . S
O579 Mg567 2.042 . S
O579 C582 1.241 . S
O580 Mg566 1.984 . S
O580 C582 1.280 . S
O581 Mg567 2.041 . S
O581 C585 1.277 . S
C582 O579 1.241 . S
C582 O580 1.280 . S
O583 Mg566 1.988 . S
O583 C585 1.245 . S
O584 C560 1.247 . S
O584 Mg566 2.061 . S
C585 O581 1.277 . S
C585 O583 1.245 . S
O586 C560 1.289 . S
O586 Mg563 2.238 . S
O586 Mg564 2.106 . S
O587 Mg564 2.079 . S
O587 C569 1.245 . S
O588 Mg567 2.038 . S
O588 C569 1.274 . S
C589 O601 1.241 . S
C589 O602 1.280 . S
C590 O603 1.277 . S
C590 O604 1.245 . S
C591 O615 1.247 . S
C591 O617 1.289 . S
Mg592 O593 1.926 . S
Mg592 O602 1.984 . S
Mg592 O604 1.988 . S
Mg592 O605 2.061 . S
O593 Mg592 1.926 . S
O593 Mg594 1.986 . S
O593 Mg595 1.917 . S
Mg594 O593 1.986 . S
Mg594 O601 2.042 . S
Mg594 O603 2.041 . S
Mg594 O609 2.038 . S
Mg594 O617 2.238 . S
Mg595 O593 1.917 . S
Mg595 O596 1.917 . S
Mg595 O606 2.106 . S
Mg595 O608 2.079 . S
Mg595 O617 2.106 . S
Mg595 O618 2.079 . S
O596 Mg595 1.917 . S
O596 Mg597 1.926 . S
O596 Mg598 1.986 . S
Mg597 O596 1.926 . S
Mg597 O611 1.984 . S
Mg597 O614 1.988 . S
Mg597 O615 2.061 . S
Mg598 O596 1.986 . S
Mg598 O606 2.238 . S
Mg598 O610 2.042 . S
Mg598 O612 2.041 . S
Mg598 O619 2.038 . S
C599 O605 1.247 . S
C599 O606 1.289 . S
C600 O618 1.245 . S
C600 O619 1.274 . S
O601 C589 1.241 . S
O601 Mg594 2.042 . S
O602 C589 1.280 . S
O602 Mg592 1.984 . S
O603 C590 1.277 . S
O603 Mg594 2.041 . S
O604 C590 1.245 . S
O604 Mg592 1.988 . S
O605 Mg592 2.061 . S
O605 C599 1.247 . S
O606 Mg595 2.106 . S
O606 Mg598 2.238 . S
O606 C599 1.289 . S
C607 O608 1.245 . S
C607 O609 1.274 . S
O608 Mg595 2.079 . S
O608 C607 1.245 . S
O609 Mg594 2.038 . S
O609 C607 1.274 . S
O610 Mg598 2.042 . S
O610 C613 1.241 . S
O611 Mg597 1.984 . S
O611 C613 1.280 . S
O612 Mg598 2.041 . S
O612 C616 1.277 . S
C613 O610 1.241 . S
C613 O611 1.280 . S
O614 Mg597 1.988 . S
O614 C616 1.245 . S
O615 C591 1.247 . S
O615 Mg597 2.061 . S
C616 O612 1.277 . S
C616 O614 1.245 . S
O617 C591 1.289 . S
O617 Mg594 2.238 . S
O617 Mg595 2.106 . S
O618 Mg595 2.079 . S
O618 C600 1.245 . S
O619 Mg598 2.038 . S
O619 C600 1.274 . S
C620 O632 1.241 . S
C620 O633 1.280 . S
C621 O634 1.277 . S
C621 O635 1.245 . S
C622 O646 1.247 1_554 S
C622 O648 1.289 . S
Mg623 O624 1.926 . S
Mg623 O633 1.984 . S
Mg623 O635 1.988 . S
Mg623 O636 2.061 . S
O624 Mg623 1.926 . S
O624 Mg625 1.986 . S
O624 Mg626 1.917 . S
Mg625 O624 1.986 . S
Mg625 O632 2.042 . S
Mg625 O634 2.041 . S
Mg625 O640 2.038 . S
Mg625 O648 2.238 . S
Mg626 O624 1.917 . S
Mg626 O627 1.917 . S
Mg626 O637 2.106 . S
Mg626 O639 2.079 . S
Mg626 O648 2.106 . S
Mg626 O649 2.079 . S
O627 Mg626 1.917 . S
O627 Mg628 1.926 1_554 S
O627 Mg629 1.986 . S
Mg628 O627 1.926 1_556 S
Mg628 O642 1.984 . S
Mg628 O645 1.988 . S
Mg628 O646 2.061 . S
Mg629 O627 1.986 . S
Mg629 O637 2.238 . S
Mg629 O641 2.042 . S
Mg629 O643 2.041 . S
Mg629 O650 2.038 . S
C630 O636 1.247 . S
C630 O637 1.289 . S
C631 O649 1.245 . S
C631 O650 1.274 . S
O632 C620 1.241 . S
O632 Mg625 2.042 . S
O633 C620 1.280 . S
O633 Mg623 1.984 . S
O634 C621 1.277 . S
O634 Mg625 2.041 . S
O635 C621 1.245 . S
O635 Mg623 1.988 . S
O636 Mg623 2.061 . S
O636 C630 1.247 . S
O637 Mg626 2.106 . S
O637 Mg629 2.238 . S
O637 C630 1.289 . S
C638 O639 1.245 . S
C638 O640 1.274 . S
O639 Mg626 2.079 . S
O639 C638 1.245 . S
O640 Mg625 2.038 . S
O640 C638 1.274 . S
O641 Mg629 2.042 . S
O641 C644 1.241 1_554 S
O642 Mg628 1.984 . S
O642 C644 1.280 . S
O643 Mg629 2.041 . S
O643 C647 1.277 1_554 S
C644 O641 1.241 1_556 S
C644 O642 1.280 . S
O645 Mg628 1.988 . S
O645 C647 1.245 . S
O646 C622 1.247 1_556 S
O646 Mg628 2.061 . S
C647 O643 1.277 1_556 S
C647 O645 1.245 . S
O648 C622 1.289 . S
O648 Mg625 2.238 . S
O648 Mg626 2.106 . S
O649 Mg626 2.079 . S
O649 C631 1.245 . S
O650 Mg629 2.038 . S
O650 C631 1.274 . S
C651 O663 1.241 . S
C651 O664 1.280 . S
C652 O665 1.277 . S
C652 O666 1.245 . S
C653 O677 1.247 1_556 S
C653 O679 1.289 . S
Mg654 O655 1.926 . S
Mg654 O664 1.984 . S
Mg654 O666 1.988 . S
Mg654 O667 2.061 . S
O655 Mg654 1.926 . S
O655 Mg656 1.986 . S
O655 Mg657 1.917 . S
Mg656 O655 1.986 . S
Mg656 O663 2.042 . S
Mg656 O665 2.041 . S
Mg656 O671 2.038 . S
Mg656 O679 2.238 . S
Mg657 O655 1.917 . S
Mg657 O658 1.917 . S
Mg657 O668 2.106 . S
Mg657 O670 2.079 . S
Mg657 O679 2.106 . S
Mg657 O680 2.079 . S
O658 Mg657 1.917 . S
O658 Mg659 1.926 1_556 S
O658 Mg660 1.986 . S
Mg659 O658 1.926 1_554 S
Mg659 O673 1.984 . S
Mg659 O676 1.988 . S
Mg659 O677 2.061 . S
Mg660 O658 1.986 . S
Mg660 O668 2.238 . S
Mg660 O672 2.042 . S
Mg660 O674 2.041 . S
Mg660 O681 2.038 . S
C661 O667 1.247 . S
C661 O668 1.289 . S
C662 O680 1.245 . S
C662 O681 1.274 . S
O663 C651 1.241 . S
O663 Mg656 2.042 . S
O664 C651 1.280 . S
O664 Mg654 1.984 . S
O665 C652 1.277 . S
O665 Mg656 2.041 . S
O666 C652 1.245 . S
O666 Mg654 1.988 . S
O667 Mg654 2.061 . S
O667 C661 1.247 . S
O668 Mg657 2.106 . S
O668 Mg660 2.238 . S
O668 C661 1.289 . S
C669 O670 1.245 . S
C669 O671 1.274 . S
O670 Mg657 2.079 . S
O670 C669 1.245 . S
O671 Mg656 2.038 . S
O671 C669 1.274 . S
O672 Mg660 2.042 . S
O672 C675 1.241 1_556 S
O673 Mg659 1.984 . S
O673 C675 1.280 . S
O674 Mg660 2.041 . S
O674 C678 1.277 1_556 S
C675 O672 1.241 1_554 S
C675 O673 1.280 . S
O676 Mg659 1.988 . S
O676 C678 1.245 . S
O677 C653 1.247 1_554 S
O677 Mg659 2.061 . S
C678 O674 1.277 1_554 S
C678 O676 1.245 . S
O679 C653 1.289 . S
O679 Mg656 2.238 . S
O679 Mg657 2.106 . S
O680 Mg657 2.079 . S
O680 C662 1.245 . S
O681 Mg660 2.038 . S
O681 C662 1.274 . S
C682 O694 1.241 . S
C682 O695 1.280 . S
C683 O696 1.277 . S
C683 O697 1.245 . S
C684 O708 1.247 . S
C684 O710 1.289 . S
Mg685 O686 1.926 . S
Mg685 O695 1.984 . S
Mg685 O697 1.988 . S
Mg685 O698 2.061 . S
O686 Mg685 1.926 . S
O686 Mg687 1.986 . S
O686 Mg688 1.917 . S
Mg687 O686 1.986 . S
Mg687 O694 2.042 . S
Mg687 O696 2.041 . S
Mg687 O702 2.038 . S
Mg687 O710 2.238 . S
Mg688 O686 1.917 . S
Mg688 O689 1.917 . S
Mg688 O699 2.106 . S
Mg688 O701 2.079 . S
Mg688 O710 2.106 . S
Mg688 O711 2.079 . S
O689 Mg688 1.917 . S
O689 Mg690 1.926 . S
O689 Mg691 1.986 . S
Mg690 O689 1.926 . S
Mg690 O704 1.984 . S
Mg690 O707 1.988 . S
Mg690 O708 2.061 . S
Mg691 O689 1.986 . S
Mg691 O699 2.238 . S
Mg691 O703 2.042 . S
Mg691 O705 2.041 . S
Mg691 O712 2.038 . S
C692 O698 1.247 . S
C692 O699 1.289 . S
C693 O711 1.245 . S
C693 O712 1.274 . S
O694 C682 1.241 . S
O694 Mg687 2.042 . S
O695 C682 1.280 . S
O695 Mg685 1.984 . S
O696 C683 1.277 . S
O696 Mg687 2.041 . S
O697 C683 1.245 . S
O697 Mg685 1.988 . S
O698 Mg685 2.061 . S
O698 C692 1.247 . S
O699 Mg688 2.106 . S
O699 Mg691 2.238 . S
O699 C692 1.289 . S
C700 O701 1.245 . S
C700 O702 1.274 . S
O701 Mg688 2.079 . S
O701 C700 1.245 . S
O702 Mg687 2.038 . S
O702 C700 1.274 . S
O703 Mg691 2.042 . S
O703 C706 1.241 . S
O704 Mg690 1.984 . S
O704 C706 1.280 . S
O705 Mg691 2.041 . S
O705 C709 1.277 . S
C706 O703 1.241 . S
C706 O704 1.280 . S
O707 Mg690 1.988 . S
O707 C709 1.245 . S
O708 C684 1.247 . S
O708 Mg690 2.061 . S
C709 O705 1.277 . S
C709 O707 1.245 . S
O710 C684 1.289 . S
O710 Mg687 2.238 . S
O710 Mg688 2.106 . S
O711 Mg688 2.079 . S
O711 C693 1.245 . S
O712 Mg691 2.038 . S
O712 C693 1.274 . S
C713 O725 1.241 . S
C713 O726 1.280 . S
C714 O727 1.277 . S
C714 O728 1.245 . S
C715 O739 1.247 . S
C715 O741 1.289 . S
Mg716 O717 1.926 . S
Mg716 O726 1.984 . S
Mg716 O728 1.988 . S
Mg716 O729 2.061 . S
O717 Mg716 1.926 . S
O717 Mg718 1.986 . S
O717 Mg719 1.917 . S
Mg718 O717 1.986 . S
Mg718 O725 2.042 . S
Mg718 O727 2.041 . S
Mg718 O733 2.038 . S
Mg718 O741 2.238 . S
Mg719 O717 1.917 . S
Mg719 O720 1.917 . S
Mg719 O730 2.106 . S
Mg719 O732 2.079 . S
Mg719 O741 2.106 . S
Mg719 O742 2.079 . S
O720 Mg719 1.917 . S
O720 Mg721 1.926 . S
O720 Mg722 1.986 . S
Mg721 O720 1.926 . S
Mg721 O735 1.984 . S
Mg721 O738 1.988 . S
Mg721 O739 2.061 . S
Mg722 O720 1.986 . S
Mg722 O730 2.238 . S
Mg722 O734 2.042 . S
Mg722 O736 2.041 . S
Mg722 O743 2.038 . S
C723 O729 1.247 . S
C723 O730 1.289 . S
C724 O742 1.245 . S
C724 O743 1.274 . S
O725 C713 1.241 . S
O725 Mg718 2.042 . S
O726 C713 1.280 . S
O726 Mg716 1.984 . S
O727 C714 1.277 . S
O727 Mg718 2.041 . S
O728 C714 1.245 . S
O728 Mg716 1.988 . S
O729 Mg716 2.061 . S
O729 C723 1.247 . S
O730 Mg719 2.106 . S
O730 Mg722 2.238 . S
O730 C723 1.289 . S
C731 O732 1.245 . S
C731 O733 1.274 . S
O732 Mg719 2.079 . S
O732 C731 1.245 . S
O733 Mg718 2.038 . S
O733 C731 1.274 . S
O734 Mg722 2.042 . S
O734 C737 1.241 . S
O735 Mg721 1.984 . S
O735 C737 1.280 . S
O736 Mg722 2.041 . S
O736 C740 1.277 . S
C737 O734 1.241 . S
C737 O735 1.280 . S
O738 Mg721 1.988 . S
O738 C740 1.245 . S
O739 C715 1.247 . S
O739 Mg721 2.061 . S
C740 O736 1.277 . S
C740 O738 1.245 . S
O741 C715 1.289 . S
O741 Mg718 2.238 . S
O741 Mg719 2.106 . S
O742 Mg719 2.079 . S
O742 C724 1.245 . S
O743 Mg722 2.038 . S
O743 C724 1.274 . S
C744 O756 1.241 . S
C744 O757 1.280 . S
C745 O758 1.277 . S
C745 O759 1.245 . S
C746 O770 1.247 . S
C746 O772 1.289 . S
Mg747 O748 1.926 . S
Mg747 O757 1.984 . S
Mg747 O759 1.988 . S
Mg747 O760 2.061 . S
O748 Mg747 1.926 . S
O748 Mg749 1.986 . S
O748 Mg750 1.917 . S
Mg749 O748 1.986 . S
Mg749 O756 2.042 . S
Mg749 O758 2.041 . S
Mg749 O764 2.038 . S
Mg749 O772 2.238 . S
Mg750 O748 1.917 . S
Mg750 O751 1.917 . S
Mg750 O761 2.106 . S
Mg750 O763 2.079 . S
Mg750 O772 2.106 . S
Mg750 O773 2.079 . S
O751 Mg750 1.917 . S
O751 Mg752 1.926 . S
O751 Mg753 1.986 . S
Mg752 O751 1.926 . S
Mg752 O766 1.984 . S
Mg752 O769 1.988 . S
Mg752 O770 2.061 . S
Mg753 O751 1.986 . S
Mg753 O761 2.238 . S
Mg753 O765 2.042 . S
Mg753 O767 2.041 . S
Mg753 O774 2.038 . S
C754 O760 1.247 . S
C754 O761 1.289 . S
C755 O773 1.245 . S
C755 O774 1.274 . S
O756 C744 1.241 . S
O756 Mg749 2.042 . S
O757 C744 1.280 . S
O757 Mg747 1.984 . S
O758 C745 1.277 . S
O758 Mg749 2.041 . S
O759 C745 1.245 . S
O759 Mg747 1.988 . S
O760 Mg747 2.061 . S
O760 C754 1.247 . S
O761 Mg750 2.106 . S
O761 Mg753 2.238 . S
O761 C754 1.289 . S
C762 O763 1.245 . S
C762 O764 1.274 . S
O763 Mg750 2.079 . S
O763 C762 1.245 . S
O764 Mg749 2.038 . S
O764 C762 1.274 . S
O765 Mg753 2.042 . S
O765 C768 1.241 . S
O766 Mg752 1.984 . S
O766 C768 1.280 . S
O767 Mg753 2.041 . S
O767 C771 1.277 . S
C768 O765 1.241 . S
C768 O766 1.280 . S
O769 Mg752 1.988 . S
O769 C771 1.245 . S
O770 C746 1.247 . S
O770 Mg752 2.061 . S
C771 O767 1.277 . S
C771 O769 1.245 . S
O772 C746 1.289 . S
O772 Mg749 2.238 . S
O772 Mg750 2.106 . S
O773 Mg750 2.079 . S
O773 C755 1.245 . S
O774 Mg753 2.038 . S
O774 C755 1.274 . S
C775 O787 1.241 . S
C775 O788 1.280 . S
C776 O789 1.277 . S
C776 O790 1.245 . S
C777 O801 1.247 . S
C777 O803 1.289 . S
Mg778 O779 1.926 . S
Mg778 O788 1.984 . S
Mg778 O790 1.988 . S
Mg778 O791 2.061 . S
O779 Mg778 1.926 . S
O779 Mg780 1.986 . S
O779 Mg781 1.917 . S
Mg780 O779 1.986 . S
Mg780 O787 2.042 . S
Mg780 O789 2.041 . S
Mg780 O795 2.038 . S
Mg780 O803 2.238 . S
Mg781 O779 1.917 . S
Mg781 O782 1.917 . S
Mg781 O792 2.106 . S
Mg781 O794 2.079 . S
Mg781 O803 2.106 . S
Mg781 O804 2.079 . S
O782 Mg781 1.917 . S
O782 Mg783 1.926 . S
O782 Mg784 1.986 . S
Mg783 O782 1.926 . S
Mg783 O797 1.984 . S
Mg783 O800 1.988 . S
Mg783 O801 2.061 . S
Mg784 O782 1.986 . S
Mg784 O792 2.238 . S
Mg784 O796 2.042 . S
Mg784 O798 2.041 . S
Mg784 O805 2.038 . S
C785 O791 1.247 . S
C785 O792 1.289 . S
C786 O804 1.245 . S
C786 O805 1.274 . S
O787 C775 1.241 . S
O787 Mg780 2.042 . S
O788 C775 1.280 . S
O788 Mg778 1.984 . S
O789 C776 1.277 . S
O789 Mg780 2.041 . S
O790 C776 1.245 . S
O790 Mg778 1.988 . S
O791 Mg778 2.061 . S
O791 C785 1.247 . S
O792 Mg781 2.106 . S
O792 Mg784 2.238 . S
O792 C785 1.289 . S
C793 O794 1.245 . S
C793 O795 1.274 . S
O794 Mg781 2.079 . S
O794 C793 1.245 . S
O795 Mg780 2.038 . S
O795 C793 1.274 . S
O796 Mg784 2.042 . S
O796 C799 1.241 . S
O797 Mg783 1.984 . S
O797 C799 1.280 . S
O798 Mg784 2.041 . S
O798 C802 1.277 . S
C799 O796 1.241 . S
C799 O797 1.280 . S
O800 Mg783 1.988 . S
O800 C802 1.245 . S
O801 C777 1.247 . S
O801 Mg783 2.061 . S
C802 O798 1.277 . S
C802 O800 1.245 . S
O803 C777 1.289 . S
O803 Mg780 2.238 . S
O803 Mg781 2.106 . S
O804 Mg781 2.079 . S
O804 C786 1.245 . S
O805 Mg784 2.038 . S
O805 C786 1.274 . S
C806 O818 1.241 . S
C806 O819 1.280 . S
C807 O820 1.277 . S
C807 O821 1.245 . S
C808 O832 1.247 1_545 S
C808 O834 1.289 . S
Mg809 O810 1.926 . S
Mg809 O819 1.984 . S
Mg809 O821 1.988 . S
Mg809 O822 2.061 . S
O810 Mg809 1.926 . S
O810 Mg811 1.986 . S
O810 Mg812 1.917 . S
Mg811 O810 1.986 . S
Mg811 O818 2.042 . S
Mg811 O820 2.041 . S
Mg811 O826 2.038 . S
Mg811 O834 2.238 . S
Mg812 O810 1.917 . S
Mg812 O813 1.917 . S
Mg812 O823 2.106 . S
Mg812 O825 2.079 . S
Mg812 O834 2.106 . S
Mg812 O835 2.079 . S
O813 Mg812 1.917 . S
O813 Mg814 1.926 1_545 S
O813 Mg815 1.986 . S
Mg814 O813 1.926 1_565 S
Mg814 O828 1.984 . S
Mg814 O831 1.988 . S
Mg814 O832 2.061 . S
Mg815 O813 1.986 . S
Mg815 O823 2.238 . S
Mg815 O827 2.042 . S
Mg815 O829 2.041 . S
Mg815 O836 2.038 . S
C816 O822 1.247 . S
C816 O823 1.289 . S
C817 O835 1.245 . S
C817 O836 1.274 . S
O818 C806 1.241 . S
O818 Mg811 2.042 . S
O819 C806 1.280 . S
O819 Mg809 1.984 . S
O820 C807 1.277 . S
O820 Mg811 2.041 . S
O821 C807 1.245 . S
O821 Mg809 1.988 . S
O822 Mg809 2.061 . S
O822 C816 1.247 . S
O823 Mg812 2.106 . S
O823 Mg815 2.238 . S
O823 C816 1.289 . S
C824 O825 1.245 . S
C824 O826 1.274 . S
O825 Mg812 2.079 . S
O825 C824 1.245 . S
O826 Mg811 2.038 . S
O826 C824 1.274 . S
O827 Mg815 2.042 . S
O827 C830 1.241 . S
O828 Mg814 1.984 . S
O828 C830 1.280 1_565 S
O829 Mg815 2.041 . S
O829 C833 1.277 1_545 S
C830 O827 1.241 . S
C830 O828 1.280 1_545 S
O831 Mg814 1.988 . S
O831 C833 1.245 . S
O832 C808 1.247 1_565 S
O832 Mg814 2.061 . S
C833 O829 1.277 1_565 S
C833 O831 1.245 . S
O834 C808 1.289 . S
O834 Mg811 2.238 . S
O834 Mg812 2.106 . S
O835 Mg812 2.079 . S
O835 C817 1.245 . S
O836 Mg815 2.038 . S
O836 C817 1.274 . S
C837 O849 1.241 . S
C837 O850 1.280 . S
C838 O851 1.277 . S
C838 O852 1.245 . S
C839 O863 1.247 . S
C839 O865 1.289 . S
Mg840 O841 1.926 . S
Mg840 O850 1.984 . S
Mg840 O852 1.988 . S
Mg840 O853 2.061 . S
O841 Mg840 1.926 . S
O841 Mg842 1.986 . S
O841 Mg843 1.917 . S
Mg842 O841 1.986 . S
Mg842 O849 2.042 . S
Mg842 O851 2.041 . S
Mg842 O857 2.038 . S
Mg842 O865 2.238 . S
Mg843 O841 1.917 . S
Mg843 O844 1.917 . S
Mg843 O854 2.106 . S
Mg843 O856 2.079 . S
Mg843 O865 2.106 . S
Mg843 O866 2.079 . S
O844 Mg843 1.917 . S
O844 Mg845 1.926 . S
O844 Mg846 1.986 . S
Mg845 O844 1.926 . S
Mg845 O859 1.984 . S
Mg845 O862 1.988 . S
Mg845 O863 2.061 . S
Mg846 O844 1.986 . S
Mg846 O854 2.238 . S
Mg846 O858 2.042 . S
Mg846 O860 2.041 . S
Mg846 O867 2.038 . S
C847 O853 1.247 . S
C847 O854 1.289 . S
C848 O866 1.245 . S
C848 O867 1.274 . S
O849 C837 1.241 . S
O849 Mg842 2.042 . S
O850 C837 1.280 . S
O850 Mg840 1.984 . S
O851 C838 1.277 . S
O851 Mg842 2.041 . S
O852 C838 1.245 . S
O852 Mg840 1.988 . S
O853 Mg840 2.061 . S
O853 C847 1.247 . S
O854 Mg843 2.106 . S
O854 Mg846 2.238 . S
O854 C847 1.289 . S
C855 O856 1.245 . S
C855 O857 1.274 . S
O856 Mg843 2.079 . S
O856 C855 1.245 . S
O857 Mg842 2.038 . S
O857 C855 1.274 . S
O858 Mg846 2.042 . S
O858 C861 1.241 . S
O859 Mg845 1.984 . S
O859 C861 1.280 . S
O860 Mg846 2.041 . S
O860 C864 1.277 . S
C861 O858 1.241 . S
C861 O859 1.280 . S
O862 Mg845 1.988 . S
O862 C864 1.245 . S
O863 C839 1.247 . S
O863 Mg845 2.061 . S
C864 O860 1.277 . S
C864 O862 1.245 . S
O865 C839 1.289 . S
O865 Mg842 2.238 . S
O865 Mg843 2.106 . S
O866 Mg843 2.079 . S
O866 C848 1.245 . S
O867 Mg846 2.038 . S
O867 C848 1.274 . S
C868 O880 1.241 . S
C868 O881 1.280 . S
C869 O882 1.277 . S
C869 O883 1.245 . S
C870 O894 1.247 . S
C870 O896 1.289 . S
Mg871 O872 1.926 . S
Mg871 O881 1.984 . S
Mg871 O883 1.988 . S
Mg871 O884 2.061 . S
O872 Mg871 1.926 . S
O872 Mg873 1.986 . S
O872 Mg874 1.917 . S
Mg873 O872 1.986 . S
Mg873 O880 2.042 . S
Mg873 O882 2.041 . S
Mg873 O888 2.038 . S
Mg873 O896 2.238 . S
Mg874 O872 1.917 . S
Mg874 O875 1.917 . S
Mg874 O885 2.106 . S
Mg874 O887 2.079 . S
Mg874 O896 2.106 . S
Mg874 O897 2.079 . S
O875 Mg874 1.917 . S
O875 Mg876 1.926 . S
O875 Mg877 1.986 . S
Mg876 O875 1.926 . S
Mg876 O890 1.984 . S
Mg876 O893 1.988 . S
Mg876 O894 2.061 . S
Mg877 O875 1.986 . S
Mg877 O885 2.238 . S
Mg877 O889 2.042 . S
Mg877 O891 2.041 . S
Mg877 O898 2.038 . S
C878 O884 1.247 . S
C878 O885 1.289 . S
C879 O897 1.245 . S
C879 O898 1.274 . S
O880 C868 1.241 . S
O880 Mg873 2.042 . S
O881 C868 1.280 . S
O881 Mg871 1.984 . S
O882 C869 1.277 . S
O882 Mg873 2.041 . S
O883 C869 1.245 . S
O883 Mg871 1.988 . S
O884 Mg871 2.061 . S
O884 C878 1.247 . S
O885 Mg874 2.106 . S
O885 Mg877 2.238 . S
O885 C878 1.289 . S
C886 O887 1.245 . S
C886 O888 1.274 . S
O887 Mg874 2.079 . S
O887 C886 1.245 . S
O888 Mg873 2.038 . S
O888 C886 1.274 . S
O889 Mg877 2.042 . S
O889 C892 1.241 . S
O890 Mg876 1.984 . S
O890 C892 1.280 . S
O891 Mg877 2.041 . S
O891 C895 1.277 . S
C892 O889 1.241 . S
C892 O890 1.280 . S
O893 Mg876 1.988 . S
O893 C895 1.245 . S
O894 C870 1.247 . S
O894 Mg876 2.061 . S
C895 O891 1.277 . S
C895 O893 1.245 . S
O896 C870 1.289 . S
O896 Mg873 2.238 . S
O896 Mg874 2.106 . S
O897 Mg874 2.079 . S
O897 C879 1.245 . S
O898 Mg877 2.038 . S
O898 C879 1.274 . S
C899 O911 1.241 . S
C899 O912 1.280 . S
C900 O913 1.277 . S
C900 O914 1.245 . S
C901 O925 1.247 1_655 S
C901 O927 1.289 . S
Mg902 O903 1.926 . S
Mg902 O912 1.984 . S
Mg902 O914 1.988 . S
Mg902 O915 2.061 . S
O903 Mg902 1.926 . S
O903 Mg904 1.986 . S
O903 Mg905 1.917 . S
Mg904 O903 1.986 . S
Mg904 O911 2.042 . S
Mg904 O913 2.041 . S
Mg904 O919 2.038 . S
Mg904 O927 2.238 . S
Mg905 O903 1.917 . S
Mg905 O906 1.917 . S
Mg905 O916 2.106 . S
Mg905 O918 2.079 . S
Mg905 O927 2.106 . S
Mg905 O928 2.079 . S
O906 Mg905 1.917 . S
O906 Mg907 1.926 1_655 S
O906 Mg908 1.986 . S
Mg907 O906 1.926 1_455 S
Mg907 O921 1.984 . S
Mg907 O924 1.988 . S
Mg907 O925 2.061 . S
Mg908 O906 1.986 . S
Mg908 O916 2.238 . S
Mg908 O920 2.042 . S
Mg908 O922 2.041 . S
Mg908 O929 2.038 . S
C909 O915 1.247 . S
C909 O916 1.289 . S
C910 O928 1.245 . S
C910 O929 1.274 . S
O911 C899 1.241 . S
O911 Mg904 2.042 . S
O912 C899 1.280 . S
O912 Mg902 1.984 . S
O913 C900 1.277 . S
O913 Mg904 2.041 . S
O914 C900 1.245 . S
O914 Mg902 1.988 . S
O915 Mg902 2.061 . S
O915 C909 1.247 . S
O916 Mg905 2.106 . S
O916 Mg908 2.238 . S
O916 C909 1.289 . S
C917 O918 1.245 . S
C917 O919 1.274 . S
O918 Mg905 2.079 . S
O918 C917 1.245 . S
O919 Mg904 2.038 . S
O919 C917 1.274 . S
O920 Mg908 2.042 . S
O920 C923 1.241 . S
O921 Mg907 1.984 . S
O921 C923 1.280 1_455 S
O922 Mg908 2.041 . S
O922 C926 1.277 1_655 S
C923 O920 1.241 . S
C923 O921 1.280 1_655 S
O924 Mg907 1.988 . S
O924 C926 1.245 . S
O925 C901 1.247 1_455 S
O925 Mg907 2.061 . S
C926 O922 1.277 1_455 S
C926 O924 1.245 . S
O927 C901 1.289 . S
O927 Mg904 2.238 . S
O927 Mg905 2.106 . S
O928 Mg905 2.079 . S
O928 C910 1.245 . S
O929 Mg908 2.038 . S
O929 C910 1.274 . S
C930 O942 1.241 . S
C930 O943 1.280 . S
C931 O944 1.277 . S
C931 O945 1.245 . S
C932 O956 1.247 . S
C932 O958 1.289 . S
Mg933 O934 1.926 . S
Mg933 O943 1.984 . S
Mg933 O945 1.988 . S
Mg933 O946 2.061 . S
O934 Mg933 1.926 . S
O934 Mg935 1.986 . S
O934 Mg936 1.917 . S
Mg935 O934 1.986 . S
Mg935 O942 2.042 . S
Mg935 O944 2.041 . S
Mg935 O950 2.038 . S
Mg935 O958 2.238 . S
Mg936 O934 1.917 . S
Mg936 O937 1.917 . S
Mg936 O947 2.106 . S
Mg936 O949 2.079 . S
Mg936 O958 2.106 . S
Mg936 O959 2.079 . S
O937 Mg936 1.917 . S
O937 Mg938 1.926 . S
O937 Mg939 1.986 . S
Mg938 O937 1.926 . S
Mg938 O952 1.984 . S
Mg938 O955 1.988 . S
Mg938 O956 2.061 . S
Mg939 O937 1.986 . S
Mg939 O947 2.238 . S
Mg939 O951 2.042 . S
Mg939 O953 2.041 . S
Mg939 O960 2.038 . S
C940 O946 1.247 . S
C940 O947 1.289 . S
C941 O959 1.245 . S
C941 O960 1.274 . S
O942 C930 1.241 . S
O942 Mg935 2.042 . S
O943 C930 1.280 . S
O943 Mg933 1.984 . S
O944 C931 1.277 . S
O944 Mg935 2.041 . S
O945 C931 1.245 . S
O945 Mg933 1.988 . S
O946 Mg933 2.061 . S
O946 C940 1.247 . S
O947 Mg936 2.106 . S
O947 Mg939 2.238 . S
O947 C940 1.289 . S
C948 O949 1.245 . S
C948 O950 1.274 . S
O949 Mg936 2.079 . S
O949 C948 1.245 . S
O950 Mg935 2.038 . S
O950 C948 1.274 . S
O951 Mg939 2.042 . S
O951 C954 1.241 . S
O952 Mg938 1.984 . S
O952 C954 1.280 . S
O953 Mg939 2.041 . S
O953 C957 1.277 . S
C954 O951 1.241 . S
C954 O952 1.280 . S
O955 Mg938 1.988 . S
O955 C957 1.245 . S
O956 C932 1.247 . S
O956 Mg938 2.061 . S
C957 O953 1.277 . S
C957 O955 1.245 . S
O958 C932 1.289 . S
O958 Mg935 2.238 . S
O958 Mg936 2.106 . S
O959 Mg936 2.079 . S
O959 C941 1.245 . S
O960 Mg939 2.038 . S
O960 C941 1.274 . S
C961 O973 1.241 . S
C961 O974 1.280 . S
C962 O975 1.277 . S
C962 O976 1.245 . S
C963 O987 1.247 . S
C963 O989 1.289 . S
Mg964 O965 1.926 . S
Mg964 O974 1.984 . S
Mg964 O976 1.988 . S
Mg964 O977 2.061 . S
O965 Mg964 1.926 . S
O965 Mg966 1.986 . S
O965 Mg967 1.917 . S
Mg966 O965 1.986 . S
Mg966 O973 2.042 . S
Mg966 O975 2.041 . S
Mg966 O981 2.038 . S
Mg966 O989 2.238 . S
Mg967 O965 1.917 . S
Mg967 O968 1.917 . S
Mg967 O978 2.106 . S
Mg967 O980 2.079 . S
Mg967 O989 2.106 . S
Mg967 O990 2.079 . S
O968 Mg967 1.917 . S
O968 Mg969 1.926 . S
O968 Mg970 1.986 . S
Mg969 O968 1.926 . S
Mg969 O983 1.984 . S
Mg969 O986 1.988 . S
Mg969 O987 2.061 . S
Mg970 O968 1.986 . S
Mg970 O978 2.238 . S
Mg970 O982 2.042 . S
Mg970 O984 2.041 . S
Mg970 O991 2.038 . S
C971 O977 1.247 . S
C971 O978 1.289 . S
C972 O990 1.245 . S
C972 O991 1.274 . S
O973 C961 1.241 . S
O973 Mg966 2.042 . S
O974 C961 1.280 . S
O974 Mg964 1.984 . S
O975 C962 1.277 . S
O975 Mg966 2.041 . S
O976 C962 1.245 . S
O976 Mg964 1.988 . S
O977 Mg964 2.061 . S
O977 C971 1.247 . S
O978 Mg967 2.106 . S
O978 Mg970 2.238 . S
O978 C971 1.289 . S
C979 O980 1.245 . S
C979 O981 1.274 . S
O980 Mg967 2.079 . S
O980 C979 1.245 . S
O981 Mg966 2.038 . S
O981 C979 1.274 . S
O982 Mg970 2.042 . S
O982 C985 1.241 . S
O983 Mg969 1.984 . S
O983 C985 1.280 . S
O984 Mg970 2.041 . S
O984 C988 1.277 . S
C985 O982 1.241 . S
C985 O983 1.280 . S
O986 Mg969 1.988 . S
O986 C988 1.245 . S
O987 C963 1.247 . S
O987 Mg969 2.061 . S
C988 O984 1.277 . S
C988 O986 1.245 . S
O989 C963 1.289 . S
O989 Mg966 2.238 . S
O989 Mg967 2.106 . S
O990 Mg967 2.079 . S
O990 C972 1.245 . S
O991 Mg970 2.038 . S
O991 C972 1.274 . S
C992 O1004 1.241 . S
C992 O1005 1.280 . S
C993 O1006 1.277 . S
C993 O1007 1.245 . S
C994 O1018 1.247 . S
C994 O1020 1.289 . S
Mg995 O996 1.926 . S
Mg995 O1005 1.984 . S
Mg995 O1007 1.988 . S
Mg995 O1008 2.061 . S
O996 Mg995 1.926 . S
O996 Mg997 1.986 . S
O996 Mg998 1.917 . S
Mg997 O996 1.986 . S
Mg997 O1004 2.042 . S
Mg997 O1006 2.041 . S
Mg997 O1012 2.038 . S
Mg997 O1020 2.238 . S
Mg998 O996 1.917 . S
Mg998 O999 1.917 . S
Mg998 O1009 2.106 . S
Mg998 O1011 2.079 . S
Mg998 O1020 2.106 . S
Mg998 O1021 2.079 . S
O999 Mg998 1.917 . S
O999 Mg1000 1.926 . S
O999 Mg1001 1.986 . S
Mg1000 O999 1.926 . S
Mg1000 O1014 1.984 . S
Mg1000 O1017 1.988 . S
Mg1000 O1018 2.061 . S
Mg1001 O999 1.986 . S
Mg1001 O1009 2.238 . S
Mg1001 O1013 2.042 . S
Mg1001 O1015 2.041 . S
Mg1001 O1022 2.038 . S
C1002 O1008 1.247 . S
C1002 O1009 1.289 . S
C1003 O1021 1.245 . S
C1003 O1022 1.274 . S
O1004 C992 1.241 . S
O1004 Mg997 2.042 . S
O1005 C992 1.280 . S
O1005 Mg995 1.984 . S
O1006 C993 1.277 . S
O1006 Mg997 2.041 . S
O1007 C993 1.245 . S
O1007 Mg995 1.988 . S
O1008 Mg995 2.061 . S
O1008 C1002 1.247 . S
O1009 Mg998 2.106 . S
O1009 Mg1001 2.238 . S
O1009 C1002 1.289 . S
C1010 O1011 1.245 . S
C1010 O1012 1.274 . S
O1011 Mg998 2.079 . S
O1011 C1010 1.245 . S
O1012 Mg997 2.038 . S
O1012 C1010 1.274 . S
O1013 Mg1001 2.042 . S
O1013 C1016 1.241 . S
O1014 Mg1000 1.984 . S
O1014 C1016 1.280 . S
O1015 Mg1001 2.041 . S
O1015 C1019 1.277 . S
C1016 O1013 1.241 . S
C1016 O1014 1.280 . S
O1017 Mg1000 1.988 . S
O1017 C1019 1.245 . S
O1018 C994 1.247 . S
O1018 Mg1000 2.061 . S
C1019 O1015 1.277 . S
C1019 O1017 1.245 . S
O1020 C994 1.289 . S
O1020 Mg997 2.238 . S
O1020 Mg998 2.106 . S
O1021 Mg998 2.079 . S
O1021 C1003 1.245 . S
O1022 Mg1001 2.038 . S
O1022 C1003 1.274 . S
C1023 O1035 1.241 . S
C1023 O1036 1.280 . S
C1024 O1037 1.277 . S
C1024 O1038 1.245 . S
C1025 O1049 1.247 . S
C1025 O1051 1.289 . S
Mg1026 O1027 1.926 . S
Mg1026 O1036 1.984 . S
Mg1026 O1038 1.988 . S
Mg1026 O1039 2.061 . S
O1027 Mg1026 1.926 . S
O1027 Mg1028 1.986 . S
O1027 Mg1029 1.917 . S
Mg1028 O1027 1.986 . S
Mg1028 O1035 2.042 . S
Mg1028 O1037 2.041 . S
Mg1028 O1043 2.038 . S
Mg1028 O1051 2.238 . S
Mg1029 O1027 1.917 . S
Mg1029 O1030 1.917 . S
Mg1029 O1040 2.106 . S
Mg1029 O1042 2.079 . S
Mg1029 O1051 2.106 . S
Mg1029 O1052 2.079 . S
O1030 Mg1029 1.917 . S
O1030 Mg1031 1.926 . S
O1030 Mg1032 1.986 . S
Mg1031 O1030 1.926 . S
Mg1031 O1045 1.984 . S
Mg1031 O1048 1.988 . S
Mg1031 O1049 2.061 . S
Mg1032 O1030 1.986 . S
Mg1032 O1040 2.238 . S
Mg1032 O1044 2.042 . S
Mg1032 O1046 2.041 . S
Mg1032 O1053 2.038 . S
C1033 O1039 1.247 . S
C1033 O1040 1.289 . S
C1034 O1052 1.245 . S
C1034 O1053 1.274 . S
O1035 C1023 1.241 . S
O1035 Mg1028 2.042 . S
O1036 C1023 1.280 . S
O1036 Mg1026 1.984 . S
O1037 C1024 1.277 . S
O1037 Mg1028 2.041 . S
O1038 C1024 1.245 . S
O1038 Mg1026 1.988 . S
O1039 Mg1026 2.061 . S
O1039 C1033 1.247 . S
O1040 Mg1029 2.106 . S
O1040 Mg1032 2.238 . S
O1040 C1033 1.289 . S
C1041 O1042 1.245 . S
C1041 O1043 1.274 . S
O1042 Mg1029 2.079 . S
O1042 C1041 1.245 . S
O1043 Mg1028 2.038 . S
O1043 C1041 1.274 . S
O1044 Mg1032 2.042 . S
O1044 C1047 1.241 . S
O1045 Mg1031 1.984 . S
O1045 C1047 1.280 . S
O1046 Mg1032 2.041 . S
O1046 C1050 1.277 . S
C1047 O1044 1.241 . S
C1047 O1045 1.280 . S
O1048 Mg1031 1.988 . S
O1048 C1050 1.245 . S
O1049 C1025 1.247 . S
O1049 Mg1031 2.061 . S
C1050 O1046 1.277 . S
C1050 O1048 1.245 . S
O1051 C1025 1.289 . S
O1051 Mg1028 2.238 . S
O1051 Mg1029 2.106 . S
O1052 Mg1029 2.079 . S
O1052 C1034 1.245 . S
O1053 Mg1032 2.038 . S
O1053 C1034 1.274 . S
C1054 O1066 1.241 . S
C1054 O1067 1.280 . S
C1055 O1068 1.277 . S
C1055 O1069 1.245 . S
C1056 O1080 1.247 . S
C1056 O1082 1.289 . S
Mg1057 O1058 1.926 . S
Mg1057 O1067 1.984 . S
Mg1057 O1069 1.988 . S
Mg1057 O1070 2.061 . S
O1058 Mg1057 1.926 . S
O1058 Mg1059 1.986 . S
O1058 Mg1060 1.917 . S
Mg1059 O1058 1.986 . S
Mg1059 O1066 2.042 . S
Mg1059 O1068 2.041 . S
Mg1059 O1074 2.038 . S
Mg1059 O1082 2.238 . S
Mg1060 O1058 1.917 . S
Mg1060 O1061 1.917 . S
Mg1060 O1071 2.106 . S
Mg1060 O1073 2.079 . S
Mg1060 O1082 2.106 . S
Mg1060 O1083 2.079 . S
O1061 Mg1060 1.917 . S
O1061 Mg1062 1.926 . S
O1061 Mg1063 1.986 . S
Mg1062 O1061 1.926 . S
Mg1062 O1076 1.984 . S
Mg1062 O1079 1.988 . S
Mg1062 O1080 2.061 . S
Mg1063 O1061 1.986 . S
Mg1063 O1071 2.238 . S
Mg1063 O1075 2.042 . S
Mg1063 O1077 2.041 . S
Mg1063 O1084 2.038 . S
C1064 O1070 1.247 . S
C1064 O1071 1.289 . S
C1065 O1083 1.245 . S
C1065 O1084 1.274 . S
O1066 C1054 1.241 . S
O1066 Mg1059 2.042 . S
O1067 C1054 1.280 . S
O1067 Mg1057 1.984 . S
O1068 C1055 1.277 . S
O1068 Mg1059 2.041 . S
O1069 C1055 1.245 . S
O1069 Mg1057 1.988 . S
O1070 Mg1057 2.061 . S
O1070 C1064 1.247 . S
O1071 Mg1060 2.106 . S
O1071 Mg1063 2.238 . S
O1071 C1064 1.289 . S
C1072 O1073 1.245 . S
C1072 O1074 1.274 . S
O1073 Mg1060 2.079 . S
O1073 C1072 1.245 . S
O1074 Mg1059 2.038 . S
O1074 C1072 1.274 . S
O1075 Mg1063 2.042 . S
O1075 C1078 1.241 . S
O1076 Mg1062 1.984 . S
O1076 C1078 1.280 . S
O1077 Mg1063 2.041 . S
O1077 C1081 1.277 . S
C1078 O1075 1.241 . S
C1078 O1076 1.280 . S
O1079 Mg1062 1.988 . S
O1079 C1081 1.245 . S
O1080 C1056 1.247 . S
O1080 Mg1062 2.061 . S
C1081 O1077 1.277 . S
C1081 O1079 1.245 . S
O1082 C1056 1.289 . S
O1082 Mg1059 2.238 . S
O1082 Mg1060 2.106 . S
O1083 Mg1060 2.079 . S
O1083 C1065 1.245 . S
O1084 Mg1063 2.038 . S
O1084 C1065 1.274 . S
C1085 O1097 1.241 . S
C1085 O1098 1.280 1_455 S
C1086 O1099 1.277 1_655 S
C1086 O1100 1.245 . S
C1087 O1111 1.247 . S
C1087 O1113 1.289 . S
Mg1088 O1089 1.926 1_655 S
Mg1088 O1098 1.984 . S
Mg1088 O1100 1.988 . S
Mg1088 O1101 2.061 . S
O1089 Mg1088 1.926 1_455 S
O1089 Mg1090 1.986 . S
O1089 Mg1091 1.917 . S
Mg1090 O1089 1.986 . S
Mg1090 O1097 2.042 . S
Mg1090 O1099 2.041 . S
Mg1090 O1105 2.038 . S
Mg1090 O1113 2.238 . S
Mg1091 O1089 1.917 . S
Mg1091 O1092 1.917 . S
Mg1091 O1102 2.106 . S
Mg1091 O1104 2.079 . S
Mg1091 O1113 2.106 . S
Mg1091 O1114 2.079 . S
O1092 Mg1091 1.917 . S
O1092 Mg1093 1.926 . S
O1092 Mg1094 1.986 . S
Mg1093 O1092 1.926 . S
Mg1093 O1107 1.984 . S
Mg1093 O1110 1.988 . S
Mg1093 O1111 2.061 . S
Mg1094 O1092 1.986 . S
Mg1094 O1102 2.238 . S
Mg1094 O1106 2.042 . S
Mg1094 O1108 2.041 . S
Mg1094 O1115 2.038 . S
C1095 O1101 1.247 1_455 S
C1095 O1102 1.289 . S
C1096 O1114 1.245 . S
C1096 O1115 1.274 . S
O1097 C1085 1.241 . S
O1097 Mg1090 2.042 . S
O1098 C1085 1.280 1_655 S
O1098 Mg1088 1.984 . S
O1099 C1086 1.277 1_455 S
O1099 Mg1090 2.041 . S
O1100 C1086 1.245 . S
O1100 Mg1088 1.988 . S
O1101 Mg1088 2.061 . S
O1101 C1095 1.247 1_655 S
O1102 Mg1091 2.106 . S
O1102 Mg1094 2.238 . S
O1102 C1095 1.289 . S
C1103 O1104 1.245 . S
C1103 O1105 1.274 . S
O1104 Mg1091 2.079 . S
O1104 C1103 1.245 . S
O1105 Mg1090 2.038 . S
O1105 C1103 1.274 . S
O1106 Mg1094 2.042 . S
O1106 C1109 1.241 . S
O1107 Mg1093 1.984 . S
O1107 C1109 1.280 . S
O1108 Mg1094 2.041 . S
O1108 C1112 1.277 . S
C1109 O1106 1.241 . S
C1109 O1107 1.280 . S
O1110 Mg1093 1.988 . S
O1110 C1112 1.245 . S
O1111 C1087 1.247 . S
O1111 Mg1093 2.061 . S
C1112 O1108 1.277 . S
C1112 O1110 1.245 . S
O1113 C1087 1.289 . S
O1113 Mg1090 2.238 . S
O1113 Mg1091 2.106 . S
O1114 Mg1091 2.079 . S
O1114 C1096 1.245 . S
O1115 Mg1094 2.038 . S
O1115 C1096 1.274 . S
C1116 O1128 1.241 . S
C1116 O1129 1.280 . S
C1117 O1130 1.277 . S
C1117 O1131 1.245 . S
C1118 O1142 1.247 . S
C1118 O1144 1.289 . S
Mg1119 O1120 1.926 . S
Mg1119 O1129 1.984 . S
Mg1119 O1131 1.988 . S
Mg1119 O1132 2.061 . S
O1120 Mg1119 1.926 . S
O1120 Mg1121 1.986 . S
O1120 Mg1122 1.917 . S
Mg1121 O1120 1.986 . S
Mg1121 O1128 2.042 . S
Mg1121 O1130 2.041 . S
Mg1121 O1136 2.038 . S
Mg1121 O1144 2.238 . S
Mg1122 O1120 1.917 . S
Mg1122 O1123 1.917 . S
Mg1122 O1133 2.106 . S
Mg1122 O1135 2.079 . S
Mg1122 O1144 2.106 . S
Mg1122 O1145 2.079 . S
O1123 Mg1122 1.917 . S
O1123 Mg1124 1.926 . S
O1123 Mg1125 1.986 . S
Mg1124 O1123 1.926 . S
Mg1124 O1138 1.984 . S
Mg1124 O1141 1.988 . S
Mg1124 O1142 2.061 . S
Mg1125 O1123 1.986 . S
Mg1125 O1133 2.238 . S
Mg1125 O1137 2.042 . S
Mg1125 O1139 2.041 . S
Mg1125 O1146 2.038 . S
C1126 O1132 1.247 . S
C1126 O1133 1.289 . S
C1127 O1145 1.245 . S
C1127 O1146 1.274 . S
O1128 C1116 1.241 . S
O1128 Mg1121 2.042 . S
O1129 C1116 1.280 . S
O1129 Mg1119 1.984 . S
O1130 C1117 1.277 . S
O1130 Mg1121 2.041 . S
O1131 C1117 1.245 . S
O1131 Mg1119 1.988 . S
O1132 Mg1119 2.061 . S
O1132 C1126 1.247 . S
O1133 Mg1122 2.106 . S
O1133 Mg1125 2.238 . S
O1133 C1126 1.289 . S
C1134 O1135 1.245 . S
C1134 O1136 1.274 . S
O1135 Mg1122 2.079 . S
O1135 C1134 1.245 . S
O1136 Mg1121 2.038 . S
O1136 C1134 1.274 . S
O1137 Mg1125 2.042 . S
O1137 C1140 1.241 . S
O1138 Mg1124 1.984 . S
O1138 C1140 1.280 . S
O1139 Mg1125 2.041 . S
O1139 C1143 1.277 . S
C1140 O1137 1.241 . S
C1140 O1138 1.280 . S
O1141 Mg1124 1.988 . S
O1141 C1143 1.245 . S
O1142 C1118 1.247 . S
O1142 Mg1124 2.061 . S
C1143 O1139 1.277 . S
C1143 O1141 1.245 . S
O1144 C1118 1.289 . S
O1144 Mg1121 2.238 . S
O1144 Mg1122 2.106 . S
O1145 Mg1122 2.079 . S
O1145 C1127 1.245 . S
O1146 Mg1125 2.038 . S
O1146 C1127 1.274 . S
C1147 O1159 1.241 . S
C1147 O1160 1.280 . S
C1148 O1161 1.277 . S
C1148 O1162 1.245 . S
C1149 O1173 1.247 . S
C1149 O1175 1.289 . S
Mg1150 O1151 1.926 . S
Mg1150 O1160 1.984 . S
Mg1150 O1162 1.988 . S
Mg1150 O1163 2.061 . S
O1151 Mg1150 1.926 . S
O1151 Mg1152 1.986 . S
O1151 Mg1153 1.917 . S
Mg1152 O1151 1.986 . S
Mg1152 O1159 2.042 . S
Mg1152 O1161 2.041 . S
Mg1152 O1167 2.038 . S
Mg1152 O1175 2.238 . S
Mg1153 O1151 1.917 . S
Mg1153 O1154 1.917 . S
Mg1153 O1164 2.106 . S
Mg1153 O1166 2.079 . S
Mg1153 O1175 2.106 . S
Mg1153 O1176 2.079 . S
O1154 Mg1153 1.917 . S
O1154 Mg1155 1.926 . S
O1154 Mg1156 1.986 . S
Mg1155 O1154 1.926 . S
Mg1155 O1169 1.984 . S
Mg1155 O1172 1.988 . S
Mg1155 O1173 2.061 . S
Mg1156 O1154 1.986 . S
Mg1156 O1164 2.238 . S
Mg1156 O1168 2.042 . S
Mg1156 O1170 2.041 . S
Mg1156 O1177 2.038 . S
C1157 O1163 1.247 . S
C1157 O1164 1.289 . S
C1158 O1176 1.245 . S
C1158 O1177 1.274 . S
O1159 C1147 1.241 . S
O1159 Mg1152 2.042 . S
O1160 C1147 1.280 . S
O1160 Mg1150 1.984 . S
O1161 C1148 1.277 . S
O1161 Mg1152 2.041 . S
O1162 C1148 1.245 . S
O1162 Mg1150 1.988 . S
O1163 Mg1150 2.061 . S
O1163 C1157 1.247 . S
O1164 Mg1153 2.106 . S
O1164 Mg1156 2.238 . S
O1164 C1157 1.289 . S
C1165 O1166 1.245 . S
C1165 O1167 1.274 . S
O1166 Mg1153 2.079 . S
O1166 C1165 1.245 . S
O1167 Mg1152 2.038 . S
O1167 C1165 1.274 . S
O1168 Mg1156 2.042 . S
O1168 C1171 1.241 . S
O1169 Mg1155 1.984 . S
O1169 C1171 1.280 . S
O1170 Mg1156 2.041 . S
O1170 C1174 1.277 . S
C1171 O1168 1.241 . S
C1171 O1169 1.280 . S
O1172 Mg1155 1.988 . S
O1172 C1174 1.245 . S
O1173 C1149 1.247 . S
O1173 Mg1155 2.061 . S
C1174 O1170 1.277 . S
C1174 O1172 1.245 . S
O1175 C1149 1.289 . S
O1175 Mg1152 2.238 . S
O1175 Mg1153 2.106 . S
O1176 Mg1153 2.079 . S
O1176 C1158 1.245 . S
O1177 Mg1156 2.038 . S
O1177 C1158 1.274 . S
C1178 O1190 1.241 . S
C1178 O1191 1.280 . S
C1179 O1192 1.277 . S
C1179 O1193 1.245 . S
C1180 O1204 1.247 . S
C1180 O1206 1.289 . S
Mg1181 O1182 1.926 . S
Mg1181 O1191 1.984 . S
Mg1181 O1193 1.988 . S
Mg1181 O1194 2.061 . S
O1182 Mg1181 1.926 . S
O1182 Mg1183 1.986 . S
O1182 Mg1184 1.917 . S
Mg1183 O1182 1.986 . S
Mg1183 O1190 2.042 . S
Mg1183 O1192 2.041 . S
Mg1183 O1198 2.038 . S
Mg1183 O1206 2.238 . S
Mg1184 O1182 1.917 . S
Mg1184 O1185 1.917 . S
Mg1184 O1195 2.106 . S
Mg1184 O1197 2.079 . S
Mg1184 O1206 2.106 . S
Mg1184 O1207 2.079 . S
O1185 Mg1184 1.917 . S
O1185 Mg1186 1.926 . S
O1185 Mg1187 1.986 . S
Mg1186 O1185 1.926 . S
Mg1186 O1200 1.984 . S
Mg1186 O1203 1.988 . S
Mg1186 O1204 2.061 . S
Mg1187 O1185 1.986 . S
Mg1187 O1195 2.238 . S
Mg1187 O1199 2.042 . S
Mg1187 O1201 2.041 . S
Mg1187 O1208 2.038 . S
C1188 O1194 1.247 . S
C1188 O1195 1.289 . S
C1189 O1207 1.245 . S
C1189 O1208 1.274 . S
O1190 C1178 1.241 . S
O1190 Mg1183 2.042 . S
O1191 C1178 1.280 . S
O1191 Mg1181 1.984 . S
O1192 C1179 1.277 . S
O1192 Mg1183 2.041 . S
O1193 C1179 1.245 . S
O1193 Mg1181 1.988 . S
O1194 Mg1181 2.061 . S
O1194 C1188 1.247 . S
O1195 Mg1184 2.106 . S
O1195 Mg1187 2.238 . S
O1195 C1188 1.289 . S
C1196 O1197 1.245 . S
C1196 O1198 1.274 . S
O1197 Mg1184 2.079 . S
O1197 C1196 1.245 . S
O1198 Mg1183 2.038 . S
O1198 C1196 1.274 . S
O1199 Mg1187 2.042 . S
O1199 C1202 1.241 . S
O1200 Mg1186 1.984 . S
O1200 C1202 1.280 . S
O1201 Mg1187 2.041 . S
O1201 C1205 1.277 . S
C1202 O1199 1.241 . S
C1202 O1200 1.280 . S
O1203 Mg1186 1.988 . S
O1203 C1205 1.245 . S
O1204 C1180 1.247 . S
O1204 Mg1186 2.061 . S
C1205 O1201 1.277 . S
C1205 O1203 1.245 . S
O1206 C1180 1.289 . S
O1206 Mg1183 2.238 . S
O1206 Mg1184 2.106 . S
O1207 Mg1184 2.079 . S
O1207 C1189 1.245 . S
O1208 Mg1187 2.038 . S
O1208 C1189 1.274 . S
C1209 O1221 1.241 . S
C1209 O1222 1.280 . S
C1210 O1223 1.277 . S
C1210 O1224 1.245 . S
C1211 O1235 1.247 1_655 S
C1211 O1237 1.289 . S
Mg1212 O1213 1.926 . S
Mg1212 O1222 1.984 . S
Mg1212 O1224 1.988 . S
Mg1212 O1225 2.061 . S
O1213 Mg1212 1.926 . S
O1213 Mg1214 1.986 . S
O1213 Mg1215 1.917 . S
Mg1214 O1213 1.986 . S
Mg1214 O1221 2.042 . S
Mg1214 O1223 2.041 . S
Mg1214 O1229 2.038 . S
Mg1214 O1237 2.238 . S
Mg1215 O1213 1.917 . S
Mg1215 O1216 1.917 . S
Mg1215 O1226 2.106 . S
Mg1215 O1228 2.079 . S
Mg1215 O1237 2.106 . S
Mg1215 O1238 2.079 . S
O1216 Mg1215 1.917 . S
O1216 Mg1217 1.926 1_655 S
O1216 Mg1218 1.986 . S
Mg1217 O1216 1.926 1_455 S
Mg1217 O1231 1.984 . S
Mg1217 O1234 1.988 . S
Mg1217 O1235 2.061 . S
Mg1218 O1216 1.986 . S
Mg1218 O1226 2.238 . S
Mg1218 O1230 2.042 . S
Mg1218 O1232 2.041 . S
Mg1218 O1239 2.038 . S
C1219 O1225 1.247 . S
C1219 O1226 1.289 . S
C1220 O1238 1.245 . S
C1220 O1239 1.274 . S
O1221 C1209 1.241 . S
O1221 Mg1214 2.042 . S
O1222 C1209 1.280 . S
O1222 Mg1212 1.984 . S
O1223 C1210 1.277 . S
O1223 Mg1214 2.041 . S
O1224 C1210 1.245 . S
O1224 Mg1212 1.988 . S
O1225 Mg1212 2.061 . S
O1225 C1219 1.247 . S
O1226 Mg1215 2.106 . S
O1226 Mg1218 2.238 . S
O1226 C1219 1.289 . S
C1227 O1228 1.245 . S
C1227 O1229 1.274 . S
O1228 Mg1215 2.079 . S
O1228 C1227 1.245 . S
O1229 Mg1214 2.038 . S
O1229 C1227 1.274 . S
O1230 Mg1218 2.042 . S
O1230 C1233 1.241 . S
O1231 Mg1217 1.984 . S
O1231 C1233 1.280 1_455 S
O1232 Mg1218 2.041 . S
O1232 C1236 1.277 1_655 S
C1233 O1230 1.241 . S
C1233 O1231 1.280 1_655 S
O1234 Mg1217 1.988 . S
O1234 C1236 1.245 . S
O1235 C1211 1.247 1_455 S
O1235 Mg1217 2.061 . S
C1236 O1232 1.277 1_455 S
C1236 O1234 1.245 . S
O1237 C1211 1.289 . S
O1237 Mg1214 2.238 . S
O1237 Mg1215 2.106 . S
O1238 Mg1215 2.079 . S
O1238 C1220 1.245 . S
O1239 Mg1218 2.038 . S
O1239 C1220 1.274 . S
C1240 O1252 1.241 . S
C1240 O1253 1.280 . S
C1241 O1254 1.277 . S
C1241 O1255 1.245 . S
C1242 O1266 1.247 . S
C1242 O1268 1.289 . S
Mg1243 O1244 1.926 . S
Mg1243 O1253 1.984 . S
Mg1243 O1255 1.988 . S
Mg1243 O1256 2.061 . S
O1244 Mg1243 1.926 . S
O1244 Mg1245 1.986 . S
O1244 Mg1246 1.917 . S
Mg1245 O1244 1.986 . S
Mg1245 O1252 2.042 . S
Mg1245 O1254 2.041 . S
Mg1245 O1260 2.038 . S
Mg1245 O1268 2.238 . S
Mg1246 O1244 1.917 . S
Mg1246 O1247 1.917 . S
Mg1246 O1257 2.106 . S
Mg1246 O1259 2.079 . S
Mg1246 O1268 2.106 . S
Mg1246 O1269 2.079 . S
O1247 Mg1246 1.917 . S
O1247 Mg1248 1.926 . S
O1247 Mg1249 1.986 . S
Mg1248 O1247 1.926 . S
Mg1248 O1262 1.984 . S
Mg1248 O1265 1.988 . S
Mg1248 O1266 2.061 . S
Mg1249 O1247 1.986 . S
Mg1249 O1257 2.238 . S
Mg1249 O1261 2.042 . S
Mg1249 O1263 2.041 . S
Mg1249 O1270 2.038 . S
C1250 O1256 1.247 . S
C1250 O1257 1.289 . S
C1251 O1269 1.245 . S
C1251 O1270 1.274 . S
O1252 C1240 1.241 . S
O1252 Mg1245 2.042 . S
O1253 C1240 1.280 . S
O1253 Mg1243 1.984 . S
O1254 C1241 1.277 . S
O1254 Mg1245 2.041 . S
O1255 C1241 1.245 . S
O1255 Mg1243 1.988 . S
O1256 Mg1243 2.061 . S
O1256 C1250 1.247 . S
O1257 Mg1246 2.106 . S
O1257 Mg1249 2.238 . S
O1257 C1250 1.289 . S
C1258 O1259 1.245 . S
C1258 O1260 1.274 . S
O1259 Mg1246 2.079 . S
O1259 C1258 1.245 . S
O1260 Mg1245 2.038 . S
O1260 C1258 1.274 . S
O1261 Mg1249 2.042 . S
O1261 C1264 1.241 . S
O1262 Mg1248 1.984 . S
O1262 C1264 1.280 . S
O1263 Mg1249 2.041 . S
O1263 C1267 1.277 . S
C1264 O1261 1.241 . S
C1264 O1262 1.280 . S
O1265 Mg1248 1.988 . S
O1265 C1267 1.245 . S
O1266 C1242 1.247 . S
O1266 Mg1248 2.061 . S
C1267 O1263 1.277 . S
C1267 O1265 1.245 . S
O1268 C1242 1.289 . S
O1268 Mg1245 2.238 . S
O1268 Mg1246 2.106 . S
O1269 Mg1246 2.079 . S
O1269 C1251 1.245 . S
O1270 Mg1249 2.038 . S
O1270 C1251 1.274 . S
C1271 O1283 1.241 . S
C1271 O1284 1.280 . S
C1272 O1285 1.277 . S
C1272 O1286 1.245 . S
C1273 O1297 1.247 . S
C1273 O1299 1.289 . S
Mg1274 O1275 1.926 . S
Mg1274 O1284 1.984 . S
Mg1274 O1286 1.988 . S
Mg1274 O1287 2.061 . S
O1275 Mg1274 1.926 . S
O1275 Mg1276 1.986 . S
O1275 Mg1277 1.917 . S
Mg1276 O1275 1.986 . S
Mg1276 O1283 2.042 . S
Mg1276 O1285 2.041 . S
Mg1276 O1291 2.038 . S
Mg1276 O1299 2.238 . S
Mg1277 O1275 1.917 . S
Mg1277 O1278 1.917 . S
Mg1277 O1288 2.106 . S
Mg1277 O1290 2.079 . S
Mg1277 O1299 2.106 . S
Mg1277 O1300 2.079 . S
O1278 Mg1277 1.917 . S
O1278 Mg1279 1.926 . S
O1278 Mg1280 1.986 . S
Mg1279 O1278 1.926 . S
Mg1279 O1293 1.984 . S
Mg1279 O1296 1.988 . S
Mg1279 O1297 2.061 . S
Mg1280 O1278 1.986 . S
Mg1280 O1288 2.238 . S
Mg1280 O1292 2.042 . S
Mg1280 O1294 2.041 . S
Mg1280 O1301 2.038 . S
C1281 O1287 1.247 . S
C1281 O1288 1.289 . S
C1282 O1300 1.245 . S
C1282 O1301 1.274 . S
O1283 C1271 1.241 . S
O1283 Mg1276 2.042 . S
O1284 C1271 1.280 . S
O1284 Mg1274 1.984 . S
O1285 C1272 1.277 . S
O1285 Mg1276 2.041 . S
O1286 C1272 1.245 . S
O1286 Mg1274 1.988 . S
O1287 Mg1274 2.061 . S
O1287 C1281 1.247 . S
O1288 Mg1277 2.106 . S
O1288 Mg1280 2.238 . S
O1288 C1281 1.289 . S
C1289 O1290 1.245 . S
C1289 O1291 1.274 . S
O1290 Mg1277 2.079 . S
O1290 C1289 1.245 . S
O1291 Mg1276 2.038 . S
O1291 C1289 1.274 . S
O1292 Mg1280 2.042 . S
O1292 C1295 1.241 . S
O1293 Mg1279 1.984 . S
O1293 C1295 1.280 . S
O1294 Mg1280 2.041 . S
O1294 C1298 1.277 . S
C1295 O1292 1.241 . S
C1295 O1293 1.280 . S
O1296 Mg1279 1.988 . S
O1296 C1298 1.245 . S
O1297 C1273 1.247 . S
O1297 Mg1279 2.061 . S
C1298 O1294 1.277 . S
C1298 O1296 1.245 . S
O1299 C1273 1.289 . S
O1299 Mg1276 2.238 . S
O1299 Mg1277 2.106 . S
O1300 Mg1277 2.079 . S
O1300 C1282 1.245 . S
O1301 Mg1280 2.038 . S
O1301 C1282 1.274 . S
C1302 O1314 1.241 . S
C1302 O1315 1.280 . S
C1303 O1316 1.277 . S
C1303 O1317 1.245 . S
C1304 O1328 1.247 . S
C1304 O1330 1.289 . S
Mg1305 O1306 1.926 . S
Mg1305 O1315 1.984 . S
Mg1305 O1317 1.988 . S
Mg1305 O1318 2.061 . S
O1306 Mg1305 1.926 . S
O1306 Mg1307 1.986 . S
O1306 Mg1308 1.917 . S
Mg1307 O1306 1.986 . S
Mg1307 O1314 2.042 . S
Mg1307 O1316 2.041 . S
Mg1307 O1322 2.038 . S
Mg1307 O1330 2.238 . S
Mg1308 O1306 1.917 . S
Mg1308 O1309 1.917 . S
Mg1308 O1319 2.106 . S
Mg1308 O1321 2.079 . S
Mg1308 O1330 2.106 . S
Mg1308 O1331 2.079 . S
O1309 Mg1308 1.917 . S
O1309 Mg1310 1.926 . S
O1309 Mg1311 1.986 . S
Mg1310 O1309 1.926 . S
Mg1310 O1324 1.984 . S
Mg1310 O1327 1.988 . S
Mg1310 O1328 2.061 . S
Mg1311 O1309 1.986 . S
Mg1311 O1319 2.238 . S
Mg1311 O1323 2.042 . S
Mg1311 O1325 2.041 . S
Mg1311 O1332 2.038 . S
C1312 O1318 1.247 . S
C1312 O1319 1.289 . S
C1313 O1331 1.245 . S
C1313 O1332 1.274 . S
O1314 C1302 1.241 . S
O1314 Mg1307 2.042 . S
O1315 C1302 1.280 . S
O1315 Mg1305 1.984 . S
O1316 C1303 1.277 . S
O1316 Mg1307 2.041 . S
O1317 C1303 1.245 . S
O1317 Mg1305 1.988 . S
O1318 Mg1305 2.061 . S
O1318 C1312 1.247 . S
O1319 Mg1308 2.106 . S
O1319 Mg1311 2.238 . S
O1319 C1312 1.289 . S
C1320 O1321 1.245 . S
C1320 O1322 1.274 . S
O1321 Mg1308 2.079 . S
O1321 C1320 1.245 . S
O1322 Mg1307 2.038 . S
O1322 C1320 1.274 . S
O1323 Mg1311 2.042 . S
O1323 C1326 1.241 . S
O1324 Mg1310 1.984 . S
O1324 C1326 1.280 . S
O1325 Mg1311 2.041 . S
O1325 C1329 1.277 . S
C1326 O1323 1.241 . S
C1326 O1324 1.280 . S
O1327 Mg1310 1.988 . S
O1327 C1329 1.245 . S
O1328 C1304 1.247 . S
O1328 Mg1310 2.061 . S
C1329 O1325 1.277 . S
C1329 O1327 1.245 . S
O1330 C1304 1.289 . S
O1330 Mg1307 2.238 . S
O1330 Mg1308 2.106 . S
O1331 Mg1308 2.079 . S
O1331 C1313 1.245 . S
O1332 Mg1311 2.038 . S
O1332 C1313 1.274 . S
C1333 O1345 1.241 . S
C1333 O1346 1.280 . S
C1334 O1347 1.277 . S
C1334 O1348 1.245 . S
C1335 O1359 1.247 . S
C1335 O1361 1.289 . S
Mg1336 O1337 1.926 . S
Mg1336 O1346 1.984 . S
Mg1336 O1348 1.988 . S
Mg1336 O1349 2.061 . S
O1337 Mg1336 1.926 . S
O1337 Mg1338 1.986 . S
O1337 Mg1339 1.917 . S
Mg1338 O1337 1.986 . S
Mg1338 O1345 2.042 . S
Mg1338 O1347 2.041 . S
Mg1338 O1353 2.038 . S
Mg1338 O1361 2.238 . S
Mg1339 O1337 1.917 . S
Mg1339 O1340 1.917 . S
Mg1339 O1350 2.106 . S
Mg1339 O1352 2.079 . S
Mg1339 O1361 2.106 . S
Mg1339 O1362 2.079 . S
O1340 Mg1339 1.917 . S
O1340 Mg1341 1.926 . S
O1340 Mg1342 1.986 . S
Mg1341 O1340 1.926 . S
Mg1341 O1355 1.984 . S
Mg1341 O1358 1.988 . S
Mg1341 O1359 2.061 . S
Mg1342 O1340 1.986 . S
Mg1342 O1350 2.238 . S
Mg1342 O1354 2.042 . S
Mg1342 O1356 2.041 . S
Mg1342 O1363 2.038 . S
C1343 O1349 1.247 . S
C1343 O1350 1.289 . S
C1344 O1362 1.245 . S
C1344 O1363 1.274 . S
O1345 C1333 1.241 . S
O1345 Mg1338 2.042 . S
O1346 C1333 1.280 . S
O1346 Mg1336 1.984 . S
O1347 C1334 1.277 . S
O1347 Mg1338 2.041 . S
O1348 C1334 1.245 . S
O1348 Mg1336 1.988 . S
O1349 Mg1336 2.061 . S
O1349 C1343 1.247 . S
O1350 Mg1339 2.106 . S
O1350 Mg1342 2.238 . S
O1350 C1343 1.289 . S
C1351 O1352 1.245 . S
C1351 O1353 1.274 . S
O1352 Mg1339 2.079 . S
O1352 C1351 1.245 . S
O1353 Mg1338 2.038 . S
O1353 C1351 1.274 . S
O1354 Mg1342 2.042 . S
O1354 C1357 1.241 . S
O1355 Mg1341 1.984 . S
O1355 C1357 1.280 . S
O1356 Mg1342 2.041 . S
O1356 C1360 1.277 . S
C1357 O1354 1.241 . S
C1357 O1355 1.280 . S
O1358 Mg1341 1.988 . S
O1358 C1360 1.245 . S
O1359 C1335 1.247 . S
O1359 Mg1341 2.061 . S
C1360 O1356 1.277 . S
C1360 O1358 1.245 . S
O1361 C1335 1.289 . S
O1361 Mg1338 2.238 . S
O1361 Mg1339 2.106 . S
O1362 Mg1339 2.079 . S
O1362 C1344 1.245 . S
O1363 Mg1342 2.038 . S
O1363 C1344 1.274 . S
C1364 O1376 1.241 . S
C1364 O1377 1.280 1_565 S
C1365 O1378 1.268 1_545 S
C1365 O1379 1.249 . S
C1366 O1390 1.247 . S
C1366 O1392 1.289 . S
Mg1367 O1368 1.926 1_545 S
Mg1367 O1377 1.984 . S
Mg1367 O1379 1.988 . S
Mg1367 O1380 2.061 . S
O1368 Mg1367 1.926 1_565 S
O1368 Mg1369 1.986 . S
O1368 Mg1370 1.917 . S
Mg1369 O1368 1.986 . S
Mg1369 O1376 2.042 . S
Mg1369 O1378 2.041 . S
Mg1369 O1384 2.038 . S
Mg1369 O1392 2.238 . S
Mg1370 O1368 1.917 . S
Mg1370 O1371 1.917 . S
Mg1370 O1381 2.106 . S
Mg1370 O1383 2.079 . S
Mg1370 O1392 2.106 . S
Mg1370 O1393 2.079 . S
O1371 Mg1370 1.917 . S
O1371 Mg1372 1.926 . S
O1371 Mg1373 1.986 . S
Mg1372 O1371 1.926 . S
Mg1372 O1386 1.984 . S
Mg1372 O1389 1.988 . S
Mg1372 O1390 2.061 . S
Mg1373 O1371 1.986 . S
Mg1373 O1381 2.238 . S
Mg1373 O1385 2.042 . S
Mg1373 O1387 2.041 . S
Mg1373 O1394 2.038 . S
C1374 O1380 1.247 1_565 S
C1374 O1381 1.289 . S
C1375 O1393 1.245 . S
C1375 O1394 1.274 . S
O1376 C1364 1.241 . S
O1376 Mg1369 2.042 . S
O1377 C1364 1.280 1_545 S
O1377 Mg1367 1.984 . S
O1378 C1365 1.268 1_565 S
O1378 Mg1369 2.041 . S
O1379 C1365 1.249 . S
O1379 Mg1367 1.988 . S
O1380 Mg1367 2.061 . S
O1380 C1374 1.247 1_545 S
O1381 Mg1370 2.106 . S
O1381 Mg1373 2.238 . S
O1381 C1374 1.289 . S
C1382 O1383 1.245 . S
C1382 O1384 1.274 . S
O1383 Mg1370 2.079 . S
O1383 C1382 1.245 . S
O1384 Mg1369 2.038 . S
O1384 C1382 1.274 . S
O1385 Mg1373 2.042 . S
O1385 C1388 1.241 . S
O1386 Mg1372 1.984 . S
O1386 C1388 1.280 . S
O1387 Mg1373 2.041 . S
O1387 C1391 1.277 . S
C1388 O1385 1.241 . S
C1388 O1386 1.280 . S
O1389 Mg1372 1.988 . S
O1389 C1391 1.245 . S
O1390 C1366 1.247 . S
O1390 Mg1372 2.061 . S
C1391 O1387 1.277 . S
C1391 O1389 1.245 . S
O1392 C1366 1.289 . S
O1392 Mg1369 2.238 . S
O1392 Mg1370 2.106 . S
O1393 Mg1370 2.079 . S
O1393 C1375 1.245 . S
O1394 Mg1373 2.038 . S
O1394 C1375 1.274 . S
C1395 O1407 1.241 . S
C1395 O1408 1.280 . S
C1396 O1409 1.277 . S
C1396 O1410 1.245 . S
C1397 O1421 1.247 1_545 S
C1397 O1423 1.289 . S
Mg1398 O1399 1.926 . S
Mg1398 O1408 1.984 . S
Mg1398 O1410 1.988 . S
Mg1398 O1411 2.061 . S
O1399 Mg1398 1.926 . S
O1399 Mg1400 1.986 . S
O1399 Mg1401 1.917 . S
Mg1400 O1399 1.986 . S
Mg1400 O1407 2.042 . S
Mg1400 O1409 2.041 . S
Mg1400 O1415 2.038 . S
Mg1400 O1423 2.238 . S
Mg1401 O1399 1.917 . S
Mg1401 O1402 1.917 . S
Mg1401 O1412 2.106 . S
Mg1401 O1414 2.079 . S
Mg1401 O1423 2.106 . S
Mg1401 O1424 2.079 . S
O1402 Mg1401 1.917 . S
O1402 Mg1403 1.926 1_545 S
O1402 Mg1404 1.986 . S
Mg1403 O1402 1.926 1_565 S
Mg1403 O1417 1.984 . S
Mg1403 O1420 1.988 . S
Mg1403 O1421 2.061 . S
Mg1404 O1402 1.986 . S
Mg1404 O1412 2.238 . S
Mg1404 O1416 2.042 . S
Mg1404 O1418 2.041 . S
Mg1404 O1425 2.038 . S
C1405 O1411 1.247 . S
C1405 O1412 1.289 . S
C1406 O1424 1.245 . S
C1406 O1425 1.274 . S
O1407 C1395 1.241 . S
O1407 Mg1400 2.042 . S
O1408 C1395 1.280 . S
O1408 Mg1398 1.984 . S
O1409 C1396 1.277 . S
O1409 Mg1400 2.041 . S
O1410 C1396 1.245 . S
O1410 Mg1398 1.988 . S
O1411 Mg1398 2.061 . S
O1411 C1405 1.247 . S
O1412 Mg1401 2.106 . S
O1412 Mg1404 2.238 . S
O1412 C1405 1.289 . S
C1413 O1414 1.245 . S
C1413 O1415 1.274 . S
O1414 Mg1401 2.079 . S
O1414 C1413 1.245 . S
O1415 Mg1400 2.038 . S
O1415 C1413 1.274 . S
O1416 Mg1404 2.042 . S
O1416 C1419 1.241 . S
O1417 Mg1403 1.984 . S
O1417 C1419 1.280 1_565 S
O1418 Mg1404 2.041 . S
O1418 C1422 1.277 1_545 S
C1419 O1416 1.241 . S
C1419 O1417 1.280 1_545 S
O1420 Mg1403 1.988 . S
O1420 C1422 1.245 . S
O1421 C1397 1.247 1_565 S
O1421 Mg1403 2.061 . S
C1422 O1418 1.277 1_565 S
C1422 O1420 1.245 . S
O1423 C1397 1.289 . S
O1423 Mg1400 2.238 . S
O1423 Mg1401 2.106 . S
O1424 Mg1401 2.079 . S
O1424 C1406 1.245 . S
O1425 Mg1404 2.038 . S
O1425 C1406 1.274 . S
C1426 O1438 1.241 . S
C1426 O1439 1.280 . S
C1427 O1440 1.277 . S
C1427 O1441 1.245 . S
C1428 O1452 1.247 . S
C1428 O1454 1.289 . S
Mg1429 O1430 1.926 . S
Mg1429 O1439 1.984 . S
Mg1429 O1441 1.988 . S
Mg1429 O1442 2.061 . S
O1430 Mg1429 1.926 . S
O1430 Mg1431 1.986 . S
O1430 Mg1432 1.917 . S
Mg1431 O1430 1.986 . S
Mg1431 O1438 2.042 . S
Mg1431 O1440 2.041 . S
Mg1431 O1446 2.038 . S
Mg1431 O1454 2.238 . S
Mg1432 O1430 1.917 . S
Mg1432 O1433 1.917 . S
Mg1432 O1443 2.106 . S
Mg1432 O1445 2.079 . S
Mg1432 O1454 2.106 . S
Mg1432 O1455 2.079 . S
O1433 Mg1432 1.917 . S
O1433 Mg1434 1.926 . S
O1433 Mg1435 1.986 . S
Mg1434 O1433 1.926 . S
Mg1434 O1448 1.984 . S
Mg1434 O1451 1.988 . S
Mg1434 O1452 2.061 . S
Mg1435 O1433 1.986 . S
Mg1435 O1443 2.238 . S
Mg1435 O1447 2.042 . S
Mg1435 O1449 2.041 . S
Mg1435 O1456 2.038 . S
C1436 O1442 1.247 . S
C1436 O1443 1.289 . S
C1437 O1455 1.245 . S
C1437 O1456 1.274 . S
O1438 C1426 1.241 . S
O1438 Mg1431 2.042 . S
O1439 C1426 1.280 . S
O1439 Mg1429 1.984 . S
O1440 C1427 1.277 . S
O1440 Mg1431 2.041 . S
O1441 C1427 1.245 . S
O1441 Mg1429 1.988 . S
O1442 Mg1429 2.061 . S
O1442 C1436 1.247 . S
O1443 Mg1432 2.106 . S
O1443 Mg1435 2.238 . S
O1443 C1436 1.289 . S
C1444 O1445 1.245 . S
C1444 O1446 1.274 . S
O1445 Mg1432 2.079 . S
O1445 C1444 1.245 . S
O1446 Mg1431 2.038 . S
O1446 C1444 1.274 . S
O1447 Mg1435 2.042 . S
O1447 C1450 1.241 . S
O1448 Mg1434 1.984 . S
O1448 C1450 1.280 . S
O1449 Mg1435 2.041 . S
O1449 C1453 1.277 . S
C1450 O1447 1.241 . S
C1450 O1448 1.280 . S
O1451 Mg1434 1.988 . S
O1451 C1453 1.245 . S
O1452 C1428 1.247 . S
O1452 Mg1434 2.061 . S
C1453 O1449 1.277 . S
C1453 O1451 1.245 . S
O1454 C1428 1.289 . S
O1454 Mg1431 2.238 . S
O1454 Mg1432 2.106 . S
O1455 Mg1432 2.079 . S
O1455 C1437 1.245 . S
O1456 Mg1435 2.038 . S
O1456 C1437 1.274 . S
C1457 O1469 1.241 . S
C1457 O1470 1.280 . S
C1458 O1471 1.277 . S
C1458 O1472 1.245 . S
C1459 O1483 1.247 . S
C1459 O1485 1.289 . S
Mg1460 O1461 1.926 . S
Mg1460 O1470 1.984 . S
Mg1460 O1472 1.988 . S
Mg1460 O1473 2.061 . S
O1461 Mg1460 1.926 . S
O1461 Mg1462 1.986 . S
O1461 Mg1463 1.917 . S
Mg1462 O1461 1.986 . S
Mg1462 O1469 2.042 . S
Mg1462 O1471 2.041 . S
Mg1462 O1477 2.038 . S
Mg1462 O1485 2.238 . S
Mg1463 O1461 1.917 . S
Mg1463 O1464 1.917 . S
Mg1463 O1474 2.106 . S
Mg1463 O1476 2.079 . S
Mg1463 O1485 2.106 . S
Mg1463 O1486 2.079 . S
O1464 Mg1463 1.917 . S
O1464 Mg1465 1.926 . S
O1464 Mg1466 1.986 . S
Mg1465 O1464 1.926 . S
Mg1465 O1479 1.984 . S
Mg1465 O1482 1.988 . S
Mg1465 O1483 2.061 . S
Mg1466 O1464 1.986 . S
Mg1466 O1474 2.238 . S
Mg1466 O1478 2.042 . S
Mg1466 O1480 2.041 . S
Mg1466 O1487 2.038 . S
C1467 O1473 1.247 . S
C1467 O1474 1.289 . S
C1468 O1486 1.245 . S
C1468 O1487 1.274 . S
O1469 C1457 1.241 . S
O1469 Mg1462 2.042 . S
O1470 C1457 1.280 . S
O1470 Mg1460 1.984 . S
O1471 C1458 1.277 . S
O1471 Mg1462 2.041 . S
O1472 C1458 1.245 . S
O1472 Mg1460 1.988 . S
O1473 Mg1460 2.061 . S
O1473 C1467 1.247 . S
O1474 Mg1463 2.106 . S
O1474 Mg1466 2.238 . S
O1474 C1467 1.289 . S
C1475 O1476 1.245 . S
C1475 O1477 1.274 . S
O1476 Mg1463 2.079 . S
O1476 C1475 1.245 . S
O1477 Mg1462 2.038 . S
O1477 C1475 1.274 . S
O1478 Mg1466 2.042 . S
O1478 C1481 1.241 . S
O1479 Mg1465 1.984 . S
O1479 C1481 1.280 . S
O1480 Mg1466 2.041 . S
O1480 C1484 1.277 . S
C1481 O1478 1.241 . S
C1481 O1479 1.280 . S
O1482 Mg1465 1.988 . S
O1482 C1484 1.245 . S
O1483 C1459 1.247 . S
O1483 Mg1465 2.061 . S
C1484 O1480 1.277 . S
C1484 O1482 1.245 . S
O1485 C1459 1.289 . S
O1485 Mg1462 2.238 . S
O1485 Mg1463 2.106 . S
O1486 Mg1463 2.079 . S
O1486 C1468 1.245 . S
O1487 Mg1466 2.038 . S
O1487 C1468 1.274 . S
C1488 C1489 1.369 . S
C1488 C1490 1.419 . S
C1488 H1492 0.930 . S
C1489 C1488 1.369 . S
C1489 C1498 1.429 1_565 S
C1490 C1488 1.419 . S
C1490 C1491 1.363 1_565 S
C1490 H1493 0.929 . S
C1491 C1490 1.363 1_545 S
C1491 C1497 1.428 . S
H1492 C1488 0.930 . S
H1493 C1490 0.929 . S
S1494 N1495 1.613 . S
S1494 N1496 1.610 . S
N1495 S1494 1.613 . S
N1495 C1498 1.350 . S
N1496 S1494 1.610 . S
N1496 C1497 1.351 . S
C1497 C1491 1.428 . S
C1497 N1496 1.351 . S
C1497 C1498 1.434 . S
C1498 C1489 1.429 1_545 S
C1498 N1495 1.350 . S
C1498 C1497 1.434 . S
C1499 C1500 1.369 . S
C1499 C1501 1.419 . S
C1499 H1503 0.930 . S
C1500 C1499 1.369 . S
C1500 C1509 1.429 . S
C1501 C1499 1.419 . S
C1501 C1502 1.363 . S
C1501 H1504 0.929 . S
C1502 C1501 1.363 . S
C1502 C1508 1.428 . S
H1503 C1499 0.930 . S
H1504 C1501 0.929 . S
S1505 N1506 1.613 . S
S1505 N1507 1.610 . S
N1506 S1505 1.613 . S
N1506 C1509 1.350 . S
N1507 S1505 1.610 . S
N1507 C1508 1.351 . S
C1508 C1502 1.428 . S
C1508 N1507 1.351 . S
C1508 C1509 1.434 . S
C1509 C1500 1.429 . S
C1509 N1506 1.350 . S
C1509 C1508 1.434 . S
C1510 C1511 1.369 . S
C1510 C1512 1.419 . S
C1510 H1514 0.930 . S
C1511 C1510 1.369 . S
C1511 C1520 1.429 . S
C1512 C1510 1.419 . S
C1512 C1513 1.363 . S
C1512 H1515 0.929 . S
C1513 C1512 1.363 . S
C1513 C1519 1.428 . S
H1514 C1510 0.930 . S
H1515 C1512 0.929 . S
S1516 N1517 1.613 . S
S1516 N1518 1.610 . S
N1517 S1516 1.613 . S
N1517 C1520 1.350 . S
N1518 S1516 1.610 . S
N1518 C1519 1.351 . S
C1519 C1513 1.428 . S
C1519 N1518 1.351 . S
C1519 C1520 1.434 . S
C1520 C1511 1.429 . S
C1520 N1517 1.350 . S
C1520 C1519 1.434 . S
C1521 C1522 1.369 . S
C1521 C1523 1.419 . S
C1521 H1525 0.930 . S
C1522 C1521 1.369 . S
C1522 C1531 1.429 . S
C1523 C1521 1.419 . S
C1523 C1524 1.363 . S
C1523 H1526 0.929 . S
C1524 C1523 1.363 . S
C1524 C1530 1.428 . S
H1525 C1521 0.930 . S
H1526 C1523 0.929 . S
S1527 N1528 1.613 . S
S1527 N1529 1.610 . S
N1528 S1527 1.613 . S
N1528 C1531 1.350 . S
N1529 S1527 1.610 . S
N1529 C1530 1.351 . S
C1530 C1524 1.428 . S
C1530 N1529 1.351 . S
C1530 C1531 1.434 . S
C1531 C1522 1.429 . S
C1531 N1528 1.350 . S
C1531 C1530 1.434 . S
C1532 C1533 1.369 . S
C1532 C1534 1.419 . S
C1532 H1536 0.930 . S
C1533 C1532 1.369 . S
C1533 C1542 1.429 . S
C1534 C1532 1.419 . S
C1534 C1535 1.363 . S
C1534 H1537 0.929 . S
C1535 C1534 1.363 . S
C1535 C1541 1.428 . S
H1536 C1532 0.930 . S
H1537 C1534 0.929 . S
S1538 N1539 1.613 . S
S1538 N1540 1.610 . S
N1539 S1538 1.613 . S
N1539 C1542 1.350 . S
N1540 S1538 1.610 . S
N1540 C1541 1.351 . S
C1541 C1535 1.428 . S
C1541 N1540 1.351 . S
C1541 C1542 1.434 . S
C1542 C1533 1.429 . S
C1542 N1539 1.350 . S
C1542 C1541 1.434 . S
C1543 C1544 1.369 . S
C1543 C1545 1.419 . S
C1543 H1547 0.930 . S
C1544 C1543 1.369 . S
C1544 C1553 1.429 . S
C1545 C1543 1.419 . S
C1545 C1546 1.363 . S
C1545 H1548 0.929 1_556 S
C1546 C1545 1.363 . S
C1546 C1552 1.428 . S
H1547 C1543 0.930 . S
H1548 C1545 0.929 1_554 S
S1549 N1550 1.613 . S
S1549 N1551 1.610 . S
N1550 S1549 1.613 . S
N1550 C1553 1.350 . S
N1551 S1549 1.610 . S
N1551 C1552 1.351 . S
C1552 C1546 1.428 . S
C1552 N1551 1.351 . S
C1552 C1553 1.434 . S
C1553 C1544 1.429 . S
C1553 N1550 1.350 . S
C1553 C1552 1.434 . S
C1554 C1555 1.369 . S
C1554 C1556 1.419 . S
C1554 H1558 0.930 . S
C1555 C1554 1.369 . S
C1555 C1564 1.429 . S
C1556 C1554 1.419 . S
C1556 C1557 1.363 . S
C1556 H1559 0.929 1_545 S
C1557 C1556 1.363 . S
C1557 C1563 1.428 . S
H1558 C1554 0.930 . S
H1559 C1556 0.929 1_565 S
S1560 N1561 1.613 . S
S1560 N1562 1.610 . S
N1561 S1560 1.613 . S
N1561 C1564 1.350 . S
N1562 S1560 1.610 . S
N1562 C1563 1.351 . S
C1563 C1557 1.428 . S
C1563 N1562 1.351 . S
C1563 C1564 1.434 . S
C1564 C1555 1.429 . S
C1564 N1561 1.350 . S
C1564 C1563 1.434 . S
C1565 C1566 1.369 . S
C1565 C1567 1.419 1_455 S
C1565 H1569 0.930 . S
C1566 C1565 1.369 . S
C1566 C1575 1.429 1_455 S
C1567 C1565 1.419 1_655 S
C1567 C1568 1.363 . S
C1567 H1570 0.929 1_655 S
C1568 C1567 1.363 . S
C1568 C1574 1.428 . S
H1569 C1565 0.930 . S
H1570 C1567 0.929 1_455 S
S1571 N1572 1.613 . S
S1571 N1573 1.610 . S
N1572 S1571 1.613 . S
N1572 C1575 1.350 . S
N1573 S1571 1.610 . S
N1573 C1574 1.351 . S
C1574 C1568 1.428 . S
C1574 N1573 1.351 . S
C1574 C1575 1.434 . S
C1575 C1566 1.429 1_655 S
C1575 N1572 1.350 . S
C1575 C1574 1.434 . S
C1576 C1577 1.369 . S
C1576 C1578 1.419 . S
C1576 H1580 0.930 . S
C1577 C1576 1.369 . S
C1577 C1586 1.429 . S
C1578 C1576 1.419 . S
C1578 C1579 1.363 . S
C1578 H1581 0.929 1_554 S
C1579 C1578 1.363 . S
C1579 C1585 1.428 . S
H1580 C1576 0.930 . S
H1581 C1578 0.929 1_556 S
S1582 N1583 1.613 . S
S1582 N1584 1.610 . S
N1583 S1582 1.613 . S
N1583 C1586 1.350 . S
N1584 S1582 1.610 . S
N1584 C1585 1.351 . S
C1585 C1579 1.428 . S
C1585 N1584 1.351 . S
C1585 C1586 1.434 . S
C1586 C1577 1.429 . S
C1586 N1583 1.350 . S
C1586 C1585 1.434 . S
C1587 C1588 1.369 . S
C1587 C1589 1.419 . S
C1587 H1591 0.930 . S
C1588 C1587 1.369 . S
C1588 C1597 1.429 . S
C1589 C1587 1.419 . S
C1589 C1590 1.363 . S
C1589 H1592 0.929 . S
C1590 C1589 1.363 . S
C1590 C1596 1.428 . S
H1591 C1587 0.930 . S
H1592 C1589 0.929 . S
S1593 N1594 1.613 . S
S1593 N1595 1.610 . S
N1594 S1593 1.613 . S
N1594 C1597 1.350 . S
N1595 S1593 1.610 . S
N1595 C1596 1.351 . S
C1596 C1590 1.428 . S
C1596 N1595 1.351 . S
C1596 C1597 1.434 . S
C1597 C1588 1.429 . S
C1597 N1594 1.350 . S
C1597 C1596 1.434 . S
C1598 C1599 1.369 . S
C1598 C1600 1.419 . S
C1598 H1602 0.930 . S
C1599 C1598 1.369 . S
C1599 C1608 1.429 . S
C1600 C1598 1.419 . S
C1600 C1601 1.363 . S
C1600 H1603 0.929 . S
C1601 C1600 1.363 . S
C1601 C1607 1.428 . S
H1602 C1598 0.930 . S
H1603 C1600 0.929 . S
S1604 N1605 1.613 . S
S1604 N1606 1.610 . S
N1605 S1604 1.613 . S
N1605 C1608 1.350 . S
N1606 S1604 1.610 . S
N1606 C1607 1.351 . S
C1607 C1601 1.428 . S
C1607 N1606 1.351 . S
C1607 C1608 1.434 . S
C1608 C1599 1.429 . S
C1608 N1605 1.350 . S
C1608 C1607 1.434 . S
C1609 C1610 1.369 . S
C1609 C1611 1.419 . S
C1609 H1613 0.930 . S
C1610 C1609 1.369 . S
C1610 C1619 1.429 . S
C1611 C1609 1.419 . S
C1611 C1612 1.363 . S
C1611 H1614 0.929 . S
C1612 C1611 1.363 . S
C1612 C1618 1.428 . S
H1613 C1609 0.930 . S
H1614 C1611 0.929 . S
S1615 N1616 1.613 . S
S1615 N1617 1.610 . S
N1616 S1615 1.613 . S
N1616 C1619 1.350 . S
N1617 S1615 1.610 . S
N1617 C1618 1.351 . S
C1618 C1612 1.428 . S
C1618 N1617 1.351 . S
C1618 C1619 1.434 . S
C1619 C1610 1.429 . S
C1619 N1616 1.350 . S
C1619 C1618 1.434 . S
C1620 C1621 1.369 . S
C1620 C1622 1.419 . S
C1620 H1624 0.930 . S
C1621 C1620 1.369 . S
C1621 C1630 1.429 . S
C1622 C1620 1.419 . S
C1622 C1623 1.363 . S
C1622 H1625 0.929 . S
C1623 C1622 1.363 . S
C1623 C1629 1.428 . S
H1624 C1620 0.930 . S
H1625 C1622 0.929 . S
S1626 N1627 1.613 . S
S1626 N1628 1.610 . S
N1627 S1626 1.613 . S
N1627 C1630 1.350 . S
N1628 S1626 1.610 . S
N1628 C1629 1.351 . S
C1629 C1623 1.428 . S
C1629 N1628 1.351 . S
C1629 C1630 1.434 . S
C1630 C1621 1.429 . S
C1630 N1627 1.350 . S
C1630 C1629 1.434 . S
C1631 C1632 1.369 . S
C1631 C1633 1.419 . S
C1631 H1635 0.930 . S
C1632 C1631 1.369 . S
C1632 C1641 1.429 . S
C1633 C1631 1.419 . S
C1633 C1634 1.363 . S
C1633 H1636 0.929 . S
C1634 C1633 1.363 . S
C1634 C1640 1.428 . S
H1635 C1631 0.930 . S
H1636 C1633 0.929 . S
S1637 N1638 1.613 . S
S1637 N1639 1.610 . S
N1638 S1637 1.613 . S
N1638 C1641 1.350 . S
N1639 S1637 1.610 . S
N1639 C1640 1.351 . S
C1640 C1634 1.428 . S
C1640 N1639 1.351 . S
C1640 C1641 1.434 . S
C1641 C1632 1.429 . S
C1641 N1638 1.350 . S
C1641 C1640 1.434 . S
C1642 C1643 1.369 . S
C1642 C1644 1.419 . S
C1642 H1646 0.930 . S
C1643 C1642 1.369 . S
C1643 C1652 1.429 . S
C1644 C1642 1.419 . S
C1644 C1645 1.363 . S
C1644 H1647 0.929 . S
C1645 C1644 1.363 . S
C1645 C1651 1.428 . S
H1646 C1642 0.930 . S
H1647 C1644 0.929 . S
S1648 N1649 1.613 . S
S1648 N1650 1.610 . S
N1649 S1648 1.613 . S
N1649 C1652 1.350 . S
N1650 S1648 1.610 . S
N1650 C1651 1.351 . S
C1651 C1645 1.428 . S
C1651 N1650 1.351 . S
C1651 C1652 1.434 . S
C1652 C1643 1.429 . S
C1652 N1649 1.350 . S
C1652 C1651 1.434 . S
C1653 C1654 1.369 . S
C1653 C1655 1.419 . S
C1653 H1657 0.930 . S
C1654 C1653 1.369 . S
C1654 C1663 1.429 . S
C1655 C1653 1.419 . S
C1655 C1656 1.363 . S
C1655 H1658 0.929 . S
C1656 C1655 1.363 . S
C1656 C1662 1.428 . S
H1657 C1653 0.930 . S
H1658 C1655 0.929 . S
S1659 N1660 1.613 . S
S1659 N1661 1.610 . S
N1660 S1659 1.613 . S
N1660 C1663 1.350 . S
N1661 S1659 1.610 . S
N1661 C1662 1.351 . S
C1662 C1656 1.428 . S
C1662 N1661 1.351 . S
C1662 C1663 1.434 . S
C1663 C1654 1.429 . S
C1663 N1660 1.350 . S
C1663 C1662 1.434 . S
C1664 C1665 1.369 . S
C1664 C1666 1.419 . S
C1664 H1668 0.930 . S
C1665 C1664 1.369 . S
C1665 C1674 1.429 . S
C1666 C1664 1.419 . S
C1666 C1667 1.363 . S
C1666 H1669 0.929 . S
C1667 C1666 1.363 . S
C1667 C1673 1.428 . S
H1668 C1664 0.930 . S
H1669 C1666 0.929 . S
S1670 N1671 1.613 1_655 S
S1670 N1672 1.610 . S
N1671 S1670 1.613 1_455 S
N1671 C1674 1.350 . S
N1672 S1670 1.610 . S
N1672 C1673 1.351 1_655 S
C1673 C1667 1.428 . S
C1673 N1672 1.351 1_455 S
C1673 C1674 1.434 . S
C1674 C1665 1.429 . S
C1674 N1671 1.350 . S
C1674 C1673 1.434 . S
C1675 C1676 1.369 . S
C1675 C1677 1.419 . S
C1675 H1679 0.930 . S
C1676 C1675 1.369 . S
C1676 C1685 1.429 . S
C1677 C1675 1.419 . S
C1677 C1678 1.363 . S
C1677 H1680 0.929 . S
C1678 C1677 1.363 . S
C1678 C1684 1.428 . S
H1679 C1675 0.930 . S
H1680 C1677 0.929 . S
S1681 N1682 1.613 . S
S1681 N1683 1.610 . S
N1682 S1681 1.613 . S
N1682 C1685 1.350 . S
N1683 S1681 1.610 . S
N1683 C1684 1.351 . S
C1684 C1678 1.428 . S
C1684 N1683 1.351 . S
C1684 C1685 1.434 . S
C1685 C1676 1.429 . S
C1685 N1682 1.350 . S
C1685 C1684 1.434 . S
C1686 C1687 1.369 . S
C1686 C1688 1.419 . S
C1686 H1690 0.930 . S
C1687 C1686 1.369 . S
C1687 C1696 1.429 . S
C1688 C1686 1.419 . S
C1688 C1689 1.363 . S
C1688 H1691 0.929 . S
C1689 C1688 1.363 . S
C1689 C1695 1.428 . S
H1690 C1686 0.930 . S
H1691 C1688 0.929 . S
S1692 N1693 1.613 . S
S1692 N1694 1.610 . S
N1693 S1692 1.613 . S
N1693 C1696 1.350 . S
N1694 S1692 1.610 . S
N1694 C1695 1.351 . S
C1695 C1689 1.428 . S
C1695 N1694 1.351 . S
C1695 C1696 1.434 . S
C1696 C1687 1.429 . S
C1696 N1693 1.350 . S
C1696 C1695 1.434 . S
C1697 C1698 1.369 . S
C1697 C1699 1.419 . S
C1697 H1701 0.930 . S
C1698 C1697 1.369 . S
C1698 C1707 1.429 . S
C1699 C1697 1.419 . S
C1699 C1700 1.363 . S
C1699 H1702 0.929 1_545 S
C1700 C1699 1.363 . S
C1700 C1706 1.428 . S
H1701 C1697 0.930 . S
H1702 C1699 0.929 1_565 S
S1703 N1704 1.613 . S
S1703 N1705 1.610 . S
N1704 S1703 1.613 . S
N1704 C1707 1.350 . S
N1705 S1703 1.610 . S
N1705 C1706 1.351 . S
C1706 C1700 1.428 . S
C1706 N1705 1.351 . S
C1706 C1707 1.434 . S
C1707 C1698 1.429 . S
C1707 N1704 1.350 . S
C1707 C1706 1.434 . S
C1708 C1709 1.369 . S
C1708 C1710 1.419 . S
C1708 H1712 0.930 . S
C1709 C1708 1.369 . S
C1709 C1718 1.429 . S
C1710 C1708 1.419 . S
C1710 C1711 1.363 . S
C1710 H1713 0.929 . S
C1711 C1710 1.363 . S
C1711 C1717 1.428 . S
H1712 C1708 0.930 . S
H1713 C1710 0.929 . S
S1714 N1715 1.613 . S
S1714 N1716 1.610 . S
N1715 S1714 1.613 . S
N1715 C1718 1.350 . S
N1716 S1714 1.610 . S
N1716 C1717 1.351 . S
C1717 C1711 1.428 . S
C1717 N1716 1.351 . S
C1717 C1718 1.434 . S
C1718 C1709 1.429 . S
C1718 N1715 1.350 . S
C1718 C1717 1.434 . S
C1719 C1720 1.369 . S
C1719 C1721 1.419 . S
C1719 H1723 0.930 . S
C1720 C1719 1.369 . S
C1720 C1729 1.429 . S
C1721 C1719 1.419 . S
C1721 C1722 1.363 . S
C1721 H1724 0.929 . S
C1722 C1721 1.363 . S
C1722 C1728 1.428 . S
H1723 C1719 0.930 . S
H1724 C1721 0.929 . S
S1725 N1726 1.613 . S
S1725 N1727 1.610 . S
N1726 S1725 1.613 . S
N1726 C1729 1.350 . S
N1727 S1725 1.610 . S
N1727 C1728 1.351 . S
C1728 C1722 1.428 . S
C1728 N1727 1.351 . S
C1728 C1729 1.434 . S
C1729 C1720 1.429 . S
C1729 N1726 1.350 . S
C1729 C1728 1.434 . S
C1730 C1731 1.369 . S
C1730 C1732 1.419 . S
C1730 H1734 0.930 1_565 S
C1731 C1730 1.369 . S
C1731 C1740 1.429 . S
C1732 C1730 1.419 . S
C1732 C1733 1.363 . S
C1732 H1735 0.929 . S
C1733 C1732 1.363 . S
C1733 C1739 1.428 . S
H1734 C1730 0.930 1_545 S
H1735 C1732 0.929 . S
S1736 N1737 1.613 . S
S1736 N1738 1.610 . S
N1737 S1736 1.613 . S
N1737 C1740 1.350 . S
N1738 S1736 1.610 . S
N1738 C1739 1.351 . S
C1739 C1733 1.428 . S
C1739 N1738 1.351 . S
C1739 C1740 1.434 . S
C1740 C1731 1.429 . S
C1740 N1737 1.350 . S
C1740 C1739 1.434 . S
C1741 C1742 1.369 . S
C1741 C1743 1.419 . S
C1741 H1745 0.930 . S
C1742 C1741 1.369 . S
C1742 C1751 1.429 . S
C1743 C1741 1.419 . S
C1743 C1744 1.363 . S
C1743 H1746 0.929 . S
C1744 C1743 1.363 . S
C1744 C1750 1.428 1_655 S
H1745 C1741 0.930 . S
H1746 C1743 0.929 . S
S1747 N1748 1.613 1_455 S
S1747 N1749 1.610 . S
N1748 S1747 1.613 1_655 S
N1748 C1751 1.350 . S
N1749 S1747 1.610 . S
N1749 C1750 1.351 . S
C1750 C1744 1.428 1_455 S
C1750 N1749 1.351 . S
C1750 C1751 1.434 1_455 S
C1751 C1742 1.429 . S
C1751 N1748 1.350 . S
C1751 C1750 1.434 1_655 S
C1752 C1753 1.349 1_565 S
C1752 C1754 1.419 . S
C1752 H1756 0.930 . S
C1753 C1752 1.349 1_545 S
C1753 C1762 1.425 1_545 S
C1754 C1752 1.419 . S
C1754 C1755 1.363 . S
C1754 H1757 0.929 . S
C1755 C1754 1.363 . S
C1755 C1761 1.428 . S
H1756 C1752 0.930 . S
H1757 C1754 0.929 . S
S1758 N1759 1.613 1_565 S
S1758 N1760 1.610 . S
N1759 S1758 1.613 1_545 S
N1759 C1762 1.350 1_545 S
N1760 S1758 1.610 . S
N1760 C1761 1.351 . S
C1761 C1755 1.428 . S
C1761 N1760 1.351 . S
C1761 C1762 1.434 . S
C1762 C1753 1.425 1_565 S
C1762 N1759 1.350 1_565 S
C1762 C1761 1.434 . S
C1763 C1764 1.369 . S
C1763 C1765 1.419 . S
C1763 H1767 0.930 . S
C1764 C1763 1.369 . S
C1764 C1773 1.429 . S
C1765 C1763 1.419 . S
C1765 C1766 1.363 . S
C1765 H1768 0.929 . S
C1766 C1765 1.363 . S
C1766 C1772 1.428 . S
H1767 C1763 0.930 . S
H1768 C1765 0.929 . S
S1769 N1770 1.613 . S
S1769 N1771 1.610 . S
N1770 S1769 1.613 . S
N1770 C1773 1.350 . S
N1771 S1769 1.610 . S
N1771 C1772 1.351 . S
C1772 C1766 1.428 . S
C1772 N1771 1.351 . S
C1772 C1773 1.434 . S
C1773 C1764 1.429 . S
C1773 N1770 1.350 . S
C1773 C1772 1.434 . S
C1774 C1775 1.369 . S
C1774 C1776 1.419 . S
C1774 H1778 0.930 . S
C1775 C1774 1.369 . S
C1775 C1784 1.429 . S
C1776 C1774 1.419 . S
C1776 C1777 1.363 . S
C1776 H1779 0.929 . S
C1777 C1776 1.363 . S
C1777 C1783 1.428 . S
H1778 C1774 0.930 . S
H1779 C1776 0.929 . S
S1780 N1781 1.613 . S
S1780 N1782 1.610 . S
N1781 S1780 1.613 . S
N1781 C1784 1.350 . S
N1782 S1780 1.610 . S
N1782 C1783 1.351 . S
C1783 C1777 1.428 . S
C1783 N1782 1.351 . S
C1783 C1784 1.434 . S
C1784 C1775 1.429 . S
C1784 N1781 1.350 . S
C1784 C1783 1.434 . S
C1785 C1786 1.369 . S
C1785 C1787 1.419 . S
C1785 H1789 0.930 . S
C1786 C1785 1.369 . S
C1786 C1795 1.429 . S
C1787 C1785 1.419 . S
C1787 C1788 1.363 . S
C1787 H1790 0.929 . S
C1788 C1787 1.363 . S
C1788 C1794 1.428 . S
H1789 C1785 0.930 . S
H1790 C1787 0.929 . S
S1791 N1792 1.613 . S
S1791 N1793 1.610 1_556 S
N1792 S1791 1.613 . S
N1792 C1795 1.350 1_556 S
N1793 S1791 1.610 1_554 S
N1793 C1794 1.351 . S
C1794 C1788 1.428 . S
C1794 N1793 1.351 . S
C1794 C1795 1.434 . S
C1795 C1786 1.429 . S
C1795 N1792 1.350 1_554 S
C1795 C1794 1.434 . S
C1796 C1797 1.369 . S
C1796 C1798 1.419 . S
C1796 H1800 0.930 . S
C1797 C1796 1.369 . S
C1797 C1806 1.429 . S
C1798 C1796 1.419 . S
C1798 C1799 1.363 . S
C1798 H1801 0.929 . S
C1799 C1798 1.363 . S
C1799 C1805 1.428 . S
H1800 C1796 0.930 . S
H1801 C1798 0.929 . S
S1802 N1803 1.613 1_565 S
S1802 N1804 1.610 . S
N1803 S1802 1.613 1_545 S
N1803 C1806 1.350 1_545 S
N1804 S1802 1.610 . S
N1804 C1805 1.351 . S
C1805 C1799 1.428 . S
C1805 N1804 1.351 . S
C1805 C1806 1.434 . S
C1806 C1797 1.429 . S
C1806 N1803 1.350 1_565 S
C1806 C1805 1.434 . S
C1807 C1808 1.345 1_455 S
C1807 C1809 1.419 . S
C1807 H1811 0.930 . S
C1808 C1807 1.345 1_655 S
C1808 C1817 1.434 . S
C1809 C1807 1.419 . S
C1809 C1810 1.363 . S
C1809 H1812 0.929 . S
C1810 C1809 1.363 . S
C1810 C1816 1.428 . S
H1811 C1807 0.930 . S
H1812 C1809 0.929 . S
S1813 N1814 1.613 . S
S1813 N1815 1.583 1_655 S
N1814 S1813 1.613 . S
N1814 C1817 1.350 . S
N1815 S1813 1.583 1_455 S
N1815 C1816 1.361 . S
C1816 C1810 1.428 . S
C1816 N1815 1.361 . S
C1816 C1817 1.434 1_455 S
C1817 C1808 1.434 . S
C1817 N1814 1.350 . S
C1817 C1816 1.434 1_655 S
C1818 C1819 1.369 . S
C1818 C1820 1.419 . S
C1818 H1822 0.930 . S
C1819 C1818 1.369 . S
C1819 C1828 1.429 . S
C1820 C1818 1.419 . S
C1820 C1821 1.363 . S
C1820 H1823 0.929 . S
C1821 C1820 1.363 . S
C1821 C1827 1.428 . S
H1822 C1818 0.930 . S
H1823 C1820 0.929 . S
S1824 N1825 1.613 . S
S1824 N1826 1.610 . S
N1825 S1824 1.613 . S
N1825 C1828 1.350 . S
N1826 S1824 1.610 . S
N1826 C1827 1.351 . S
C1827 C1821 1.428 . S
C1827 N1826 1.351 . S
C1827 C1828 1.434 . S
C1828 C1819 1.429 . S
C1828 N1825 1.350 . S
C1828 C1827 1.434 . S
C1829 C1830 1.369 . S
C1829 C1831 1.419 . S
C1829 H1833 0.930 . S
C1830 C1829 1.369 . S
C1830 C1839 1.429 . S
C1831 C1829 1.419 . S
C1831 C1832 1.363 . S
C1831 H1834 0.929 . S
C1832 C1831 1.363 . S
C1832 C1838 1.428 . S
H1833 C1829 0.930 . S
H1834 C1831 0.929 . S
S1835 N1836 1.613 . S
S1835 N1837 1.610 . S
N1836 S1835 1.613 . S
N1836 C1839 1.350 . S
N1837 S1835 1.610 . S
N1837 C1838 1.351 . S
C1838 C1832 1.428 . S
C1838 N1837 1.351 . S
C1838 C1839 1.434 . S
C1839 C1830 1.429 . S
C1839 N1836 1.350 . S
C1839 C1838 1.434 . S
C1840 C1841 1.369 . S
C1840 C1842 1.419 . S
C1840 H1844 0.930 . S
C1841 C1840 1.369 . S
C1841 C1850 1.429 . S
C1842 C1840 1.419 . S
C1842 C1843 1.363 . S
C1842 H1845 0.929 . S
C1843 C1842 1.363 . S
C1843 C1849 1.428 . S
H1844 C1840 0.930 . S
H1845 C1842 0.929 . S
S1846 N1847 1.613 . S
S1846 N1848 1.610 . S
N1847 S1846 1.613 . S
N1847 C1850 1.350 . S
N1848 S1846 1.610 . S
N1848 C1849 1.351 . S
C1849 C1843 1.428 . S
C1849 N1848 1.351 . S
C1849 C1850 1.434 . S
C1850 C1841 1.429 . S
C1850 N1847 1.350 . S
C1850 C1849 1.434 . S
C1851 C1852 1.369 . S
C1851 C1853 1.419 . S
C1851 H1855 0.930 . S
C1852 C1851 1.369 . S
C1852 C1861 1.429 . S
C1853 C1851 1.419 . S
C1853 C1854 1.363 . S
C1853 H1856 0.929 . S
C1854 C1853 1.363 . S
C1854 C1860 1.428 . S
H1855 C1851 0.930 . S
H1856 C1853 0.929 . S
S1857 N1858 1.613 . S
S1857 N1859 1.610 . S
N1858 S1857 1.613 . S
N1858 C1861 1.350 . S
N1859 S1857 1.610 . S
N1859 C1860 1.351 . S
C1860 C1854 1.428 . S
C1860 N1859 1.351 . S
C1860 C1861 1.434 . S
C1861 C1852 1.429 . S
C1861 N1858 1.350 . S
C1861 C1860 1.434 . S
C1862 C1863 1.369 . S
C1862 C1864 1.419 . S
C1862 H1866 0.930 . S
C1863 C1862 1.369 . S
C1863 C1872 1.429 . S
C1864 C1862 1.419 . S
C1864 C1865 1.363 . S
C1864 H1867 0.929 . S
C1865 C1864 1.363 . S
C1865 C1871 1.428 . S
H1866 C1862 0.930 . S
H1867 C1864 0.929 . S
S1868 N1869 1.613 . S
S1868 N1870 1.610 . S
N1869 S1868 1.613 . S
N1869 C1872 1.350 . S
N1870 S1868 1.610 . S
N1870 C1871 1.351 . S
C1871 C1865 1.428 . S
C1871 N1870 1.351 . S
C1871 C1872 1.434 . S
C1872 C1863 1.429 . S
C1872 N1869 1.350 . S
C1872 C1871 1.434 . S
C1873 C1874 1.369 . S
C1873 C1875 1.419 . S
C1873 H1877 0.930 . S
C1874 C1873 1.369 . S
C1874 C1883 1.429 . S
C1875 C1873 1.419 . S
C1875 C1876 1.363 . S
C1875 H1878 0.929 . S
C1876 C1875 1.363 . S
C1876 C1882 1.428 . S
H1877 C1873 0.930 . S
H1878 C1875 0.929 . S
S1879 N1880 1.613 . S
S1879 N1881 1.610 . S
N1880 S1879 1.613 . S
N1880 C1883 1.350 . S
N1881 S1879 1.610 . S
N1881 C1882 1.351 . S
C1882 C1876 1.428 . S
C1882 N1881 1.351 . S
C1882 C1883 1.434 . S
C1883 C1874 1.429 . S
C1883 N1880 1.350 . S
C1883 C1882 1.434 . S
C1884 C1885 1.369 . S
C1884 C1886 1.419 . S
C1884 H1888 0.930 . S
C1885 C1884 1.369 . S
C1885 C1894 1.429 . S
C1886 C1884 1.419 . S
C1886 C1887 1.363 . S
C1886 H1889 0.929 . S
C1887 C1886 1.363 . S
C1887 C1893 1.428 . S
H1888 C1884 0.930 . S
H1889 C1886 0.929 . S
S1890 N1891 1.613 . S
S1890 N1892 1.610 . S
N1891 S1890 1.613 . S
N1891 C1894 1.350 . S
N1892 S1890 1.610 . S
N1892 C1893 1.351 . S
C1893 C1887 1.428 . S
C1893 N1892 1.351 . S
C1893 C1894 1.434 . S
C1894 C1885 1.429 . S
C1894 N1891 1.350 . S
C1894 C1893 1.434 . S
C1895 C1896 1.369 . S
C1895 C1897 1.419 . S
C1895 H1899 0.930 . S
C1896 C1895 1.369 . S
C1896 C1905 1.429 . S
C1897 C1895 1.419 . S
C1897 C1898 1.363 . S
C1897 H1900 0.929 . S
C1898 C1897 1.363 . S
C1898 C1904 1.428 . S
H1899 C1895 0.930 . S
H1900 C1897 0.929 . S
S1901 N1902 1.613 . S
S1901 N1903 1.610 . S
N1902 S1901 1.613 . S
N1902 C1905 1.350 . S
N1903 S1901 1.610 . S
N1903 C1904 1.351 . S
C1904 C1898 1.428 . S
C1904 N1903 1.351 . S
C1904 C1905 1.434 . S
C1905 C1896 1.429 . S
C1905 N1902 1.350 . S
C1905 C1904 1.434 . S
C1906 C1907 1.369 . S
C1906 C1908 1.419 . S
C1906 H1910 0.930 . S
C1907 C1906 1.369 . S
C1907 C1916 1.429 . S
C1908 C1906 1.419 . S
C1908 C1909 1.363 . S
C1908 H1911 0.929 . S
C1909 C1908 1.363 . S
C1909 C1915 1.428 . S
H1910 C1906 0.930 . S
H1911 C1908 0.929 . S
S1912 N1913 1.613 . S
S1912 N1914 1.610 . S
N1913 S1912 1.613 . S
N1913 C1916 1.350 . S
N1914 S1912 1.610 . S
N1914 C1915 1.351 . S
C1915 C1909 1.428 . S
C1915 N1914 1.351 . S
C1915 C1916 1.434 . S
C1916 C1907 1.429 . S
C1916 N1913 1.350 . S
C1916 C1915 1.434 . S
C1917 C1918 1.369 . S
C1917 C1919 1.419 . S
C1917 H1921 0.930 . S
C1918 C1917 1.369 . S
C1918 C1927 1.429 . S
C1919 C1917 1.419 . S
C1919 C1920 1.363 . S
C1919 H1922 0.929 . S
C1920 C1919 1.363 . S
C1920 C1926 1.428 . S
H1921 C1917 0.930 . S
H1922 C1919 0.929 . S
S1923 N1924 1.613 . S
S1923 N1925 1.610 . S
N1924 S1923 1.613 . S
N1924 C1927 1.350 . S
N1925 S1923 1.610 . S
N1925 C1926 1.351 . S
C1926 C1920 1.428 . S
C1926 N1925 1.351 . S
C1926 C1927 1.434 . S
C1927 C1918 1.429 . S
C1927 N1924 1.350 . S
C1927 C1926 1.434 . S
C1928 C1929 1.369 . S
C1928 C1930 1.419 . S
C1928 H1932 0.930 . S
C1929 C1928 1.369 . S
C1929 C1938 1.429 . S
C1930 C1928 1.419 . S
C1930 C1931 1.363 . S
C1930 H1933 0.929 . S
C1931 C1930 1.363 . S
C1931 C1937 1.428 . S
H1932 C1928 0.930 . S
H1933 C1930 0.929 . S
S1934 N1935 1.613 . S
S1934 N1936 1.610 . S
N1935 S1934 1.613 . S
N1935 C1938 1.350 . S
N1936 S1934 1.610 . S
N1936 C1937 1.351 . S
C1937 C1931 1.428 . S
C1937 N1936 1.351 . S
C1937 C1938 1.434 . S
C1938 C1929 1.429 . S
C1938 N1935 1.350 . S
C1938 C1937 1.434 . S
C1939 C1940 1.369 . S
C1939 C1941 1.419 . S
C1939 H1943 0.930 . S
C1940 C1939 1.369 . S
C1940 C1949 1.429 . S
C1941 C1939 1.419 . S
C1941 C1942 1.363 . S
C1941 H1944 0.929 . S
C1942 C1941 1.363 . S
C1942 C1948 1.428 . S
H1943 C1939 0.930 . S
H1944 C1941 0.929 . S
S1945 N1946 1.613 . S
S1945 N1947 1.610 1_455 S
N1946 S1945 1.613 . S
N1946 C1949 1.350 . S
N1947 S1945 1.610 1_655 S
N1947 C1948 1.351 1_655 S
C1948 C1942 1.428 . S
C1948 N1947 1.351 1_455 S
C1948 C1949 1.434 . S
C1949 C1940 1.429 . S
C1949 N1946 1.350 . S
C1949 C1948 1.434 . S
C1950 C1951 1.369 . S
C1950 C1952 1.419 . S
C1950 H1954 0.930 . S
C1951 C1950 1.369 . S
C1951 C1960 1.429 . S
C1952 C1950 1.419 . S
C1952 C1953 1.363 . S
C1952 H1955 0.929 . S
C1953 C1952 1.363 . S
C1953 C1959 1.428 . S
H1954 C1950 0.930 . S
H1955 C1952 0.929 . S
S1956 N1957 1.613 . S
S1956 N1958 1.610 1_655 S
N1957 S1956 1.613 . S
N1957 C1960 1.350 . S
N1958 S1956 1.610 1_455 S
N1958 C1959 1.351 1_455 S
C1959 C1953 1.428 . S
C1959 N1958 1.351 1_655 S
C1959 C1960 1.434 . S
C1960 C1951 1.429 . S
C1960 N1957 1.350 . S
C1960 C1959 1.434 . S
C1961 C1962 1.369 . S
C1961 C1963 1.419 . S
C1961 H1965 0.930 . S
C1962 C1961 1.369 . S
C1962 C1971 1.429 . S
C1963 C1961 1.419 . S
C1963 C1964 1.363 . S
C1963 H1966 0.929 . S
C1964 C1963 1.363 . S
C1964 C1970 1.428 . S
H1965 C1961 0.930 . S
H1966 C1963 0.929 . S
S1967 N1968 1.613 . S
S1967 N1969 1.610 . S
N1968 S1967 1.613 . S
N1968 C1971 1.350 . S
N1969 S1967 1.610 . S
N1969 C1970 1.351 . S
C1970 C1964 1.428 . S
C1970 N1969 1.351 . S
C1970 C1971 1.434 . S
C1971 C1962 1.429 . S
C1971 N1968 1.350 . S
C1971 C1970 1.434 . S
C1972 C1973 1.369 . S
C1972 C1974 1.419 . S
C1972 H1976 0.930 . S
C1973 C1972 1.369 . S
C1973 C1982 1.429 . S
C1974 C1972 1.419 . S
C1974 C1975 1.363 . S
C1974 H1977 0.929 . S
C1975 C1974 1.363 . S
C1975 C1981 1.428 . S
H1976 C1972 0.930 . S
H1977 C1974 0.929 . S
S1978 N1979 1.613 . S
S1978 N1980 1.610 . S
N1979 S1978 1.613 . S
N1979 C1982 1.350 . S
N1980 S1978 1.610 . S
N1980 C1981 1.351 . S
C1981 C1975 1.428 . S
C1981 N1980 1.351 . S
C1981 C1982 1.434 . S
C1982 C1973 1.429 . S
C1982 N1979 1.350 . S
C1982 C1981 1.434 . S
C1983 C1984 1.369 . S
C1983 C1985 1.419 . S
C1983 H1987 0.930 . S
C1984 C1983 1.369 . S
C1984 C1993 1.429 . S
C1985 C1983 1.419 . S
C1985 C1986 1.363 . S
C1985 H1988 0.929 . S
C1986 C1985 1.363 . S
C1986 C1992 1.428 . S
H1987 C1983 0.930 . S
H1988 C1985 0.929 . S
S1989 N1990 1.613 . S
S1989 N1991 1.610 . S
N1990 S1989 1.613 . S
N1990 C1993 1.350 . S
N1991 S1989 1.610 . S
N1991 C1992 1.351 . S
C1992 C1986 1.428 . S
C1992 N1991 1.351 . S
C1992 C1993 1.434 . S
C1993 C1984 1.429 . S
C1993 N1990 1.350 . S
C1993 C1992 1.434 . S
C1994 C1995 1.369 . S
C1994 C1996 1.419 . S
C1994 H1998 0.930 . S
C1995 C1994 1.369 . S
C1995 C2004 1.429 . S
C1996 C1994 1.419 . S
C1996 C1997 1.363 . S
C1996 H1999 0.929 . S
C1997 C1996 1.363 . S
C1997 C2003 1.428 . S
H1998 C1994 0.930 . S
H1999 C1996 0.929 . S
S2000 N2001 1.613 . S
S2000 N2002 1.610 . S
N2001 S2000 1.613 . S
N2001 C2004 1.350 . S
N2002 S2000 1.610 . S
N2002 C2003 1.351 . S
C2003 C1997 1.428 . S
C2003 N2002 1.351 . S
C2003 C2004 1.434 . S
C2004 C1995 1.429 . S
C2004 N2001 1.350 . S
C2004 C2003 1.434 . S
C2005 C2006 1.369 1_655 S
C2005 C2007 1.419 . S
C2005 H2009 0.930 . S
C2006 C2005 1.369 1_455 S
C2006 C2015 1.429 . S
C2007 C2005 1.419 . S
C2007 C2008 1.363 . S
C2007 H2010 0.929 . S
C2008 C2007 1.363 . S
C2008 C2014 1.428 1_655 S
H2009 C2005 0.930 . S
H2010 C2007 0.929 . S
S2011 N2012 1.613 . S
S2011 N2013 1.610 . S
N2012 S2011 1.613 . S
N2012 C2015 1.350 . S
N2013 S2011 1.610 . S
N2013 C2014 1.351 . S
C2014 C2008 1.428 1_455 S
C2014 N2013 1.351 . S
C2014 C2015 1.434 . S
C2015 C2006 1.429 . S
C2015 N2012 1.350 . S
C2015 C2014 1.434 . S
C2016 C2017 1.369 . S
C2016 C2018 1.419 . S
C2016 H2020 0.930 . S
C2017 C2016 1.369 . S
C2017 C2026 1.429 . S
C2018 C2016 1.419 . S
C2018 C2019 1.363 . S
C2018 H2021 0.929 . S
C2019 C2018 1.363 . S
C2019 C2025 1.428 . S
H2020 C2016 0.930 . S
H2021 C2018 0.929 . S
S2022 N2023 1.613 . S
S2022 N2024 1.610 . S
N2023 S2022 1.613 . S
N2023 C2026 1.350 . S
N2024 S2022 1.610 . S
N2024 C2025 1.351 . S
C2025 C2019 1.428 . S
C2025 N2024 1.351 . S
C2025 C2026 1.434 . S
C2026 C2017 1.429 . S
C2026 N2023 1.350 . S
C2026 C2025 1.434 . S
C2027 C2028 1.369 . S
C2027 C2029 1.419 . S
C2027 H2031 0.930 . S
C2028 C2027 1.369 . S
C2028 C2037 1.429 . S
C2029 C2027 1.419 . S
C2029 C2030 1.363 . S
C2029 H2032 0.929 . S
C2030 C2029 1.363 . S
C2030 C2036 1.428 . S
H2031 C2027 0.930 . S
H2032 C2029 0.929 . S
S2033 N2034 1.613 . S
S2033 N2035 1.610 . S
N2034 S2033 1.613 . S
N2034 C2037 1.350 . S
N2035 S2033 1.610 . S
N2035 C2036 1.351 . S
C2036 C2030 1.428 . S
C2036 N2035 1.351 . S
C2036 C2037 1.434 . S
C2037 C2028 1.429 . S
C2037 N2034 1.350 . S
C2037 C2036 1.434 . S
C2038 C2039 1.369 . S
C2038 C2040 1.419 . S
C2038 H2042 0.930 . S
C2039 C2038 1.369 . S
C2039 C2048 1.429 . S
C2040 C2038 1.419 . S
C2040 C2041 1.363 . S
C2040 H2043 0.929 . S
C2041 C2040 1.363 . S
C2041 C2047 1.428 . S
H2042 C2038 0.930 . S
H2043 C2040 0.929 . S
S2044 N2045 1.613 . S
S2044 N2046 1.610 . S
N2045 S2044 1.613 . S
N2045 C2048 1.350 . S
N2046 S2044 1.610 . S
N2046 C2047 1.351 . S
C2047 C2041 1.428 . S
C2047 N2046 1.351 . S
C2047 C2048 1.434 . S
C2048 C2039 1.429 . S
C2048 N2045 1.350 . S
C2048 C2047 1.434 . S
C2049 C2050 1.369 . S
C2049 C2051 1.419 . S
C2049 H2053 0.930 . S
C2050 C2049 1.369 . S
C2050 C2059 1.429 . S
C2051 C2049 1.419 . S
C2051 C2052 1.363 . S
C2051 H2054 0.929 . S
C2052 C2051 1.363 . S
C2052 C2058 1.428 . S
H2053 C2049 0.930 . S
H2054 C2051 0.929 . S
S2055 N2056 1.613 . S
S2055 N2057 1.610 . S
N2056 S2055 1.613 . S
N2056 C2059 1.350 . S
N2057 S2055 1.610 . S
N2057 C2058 1.351 . S
C2058 C2052 1.428 . S
C2058 N2057 1.351 . S
C2058 C2059 1.434 . S
C2059 C2050 1.429 . S
C2059 N2056 1.350 . S
C2059 C2058 1.434 . S
C2060 C2061 1.369 . S
C2060 C2062 1.419 . S
C2060 H2064 0.930 . S
C2061 C2060 1.369 . S
C2061 C2070 1.429 . S
C2062 C2060 1.419 . S
C2062 C2063 1.363 . S
C2062 H2065 0.929 . S
C2063 C2062 1.363 . S
C2063 C2069 1.428 . S
H2064 C2060 0.930 . S
H2065 C2062 0.929 . S
S2066 N2067 1.613 . S
S2066 N2068 1.610 . S
N2067 S2066 1.613 . S
N2067 C2070 1.350 . S
N2068 S2066 1.610 . S
N2068 C2069 1.351 . S
C2069 C2063 1.428 . S
C2069 N2068 1.351 . S
C2069 C2070 1.434 . S
C2070 C2061 1.429 . S
C2070 N2067 1.350 . S
C2070 C2069 1.434 . S
C2071 C2072 1.369 . S
C2071 C2073 1.419 . S
C2071 H2075 0.930 . S
C2072 C2071 1.369 . S
C2072 C2081 1.429 . S
C2073 C2071 1.419 . S
C2073 C2074 1.363 . S
C2073 H2076 0.929 . S
C2074 C2073 1.363 . S
C2074 C2080 1.428 . S
H2075 C2071 0.930 . S
H2076 C2073 0.929 . S
S2077 N2078 1.613 . S
S2077 N2079 1.610 . S
N2078 S2077 1.613 . S
N2078 C2081 1.350 . S
N2079 S2077 1.610 . S
N2079 C2080 1.351 . S
C2080 C2074 1.428 . S
C2080 N2079 1.351 . S
C2080 C2081 1.434 . S
C2081 C2072 1.429 . S
C2081 N2078 1.350 . S
C2081 C2080 1.434 . S
C2082 C2083 1.369 . S
C2082 C2084 1.419 . S
C2082 H2086 0.930 . S
C2083 C2082 1.369 . S
C2083 C2092 1.429 . S
C2084 C2082 1.419 . S
C2084 C2085 1.363 . S
C2084 H2087 0.929 . S
C2085 C2084 1.363 . S
C2085 C2091 1.428 . S
H2086 C2082 0.930 . S
H2087 C2084 0.929 . S
S2088 N2089 1.613 . S
S2088 N2090 1.610 . S
N2089 S2088 1.613 . S
N2089 C2092 1.350 . S
N2090 S2088 1.610 . S
N2090 C2091 1.351 . S
C2091 C2085 1.428 . S
C2091 N2090 1.351 . S
C2091 C2092 1.434 . S
C2092 C2083 1.429 . S
C2092 N2089 1.350 . S
C2092 C2091 1.434 . S
C2093 C2094 1.369 . S
C2093 C2095 1.419 . S
C2093 H2097 0.930 . S
C2094 C2093 1.369 . S
C2094 C2103 1.429 . S
C2095 C2093 1.419 . S
C2095 C2096 1.363 . S
C2095 H2098 0.929 . S
C2096 C2095 1.363 . S
C2096 C2102 1.428 . S
H2097 C2093 0.930 . S
H2098 C2095 0.929 . S
S2099 N2100 1.613 . S
S2099 N2101 1.610 . S
N2100 S2099 1.613 . S
N2100 C2103 1.350 . S
N2101 S2099 1.610 . S
N2101 C2102 1.351 . S
C2102 C2096 1.428 . S
C2102 N2101 1.351 . S
C2102 C2103 1.434 . S
C2103 C2094 1.429 . S
C2103 N2100 1.350 . S
C2103 C2102 1.434 . S
C2104 C2105 1.369 . S
C2104 C2106 1.419 . S
C2104 H2108 0.930 . S
C2105 C2104 1.369 . S
C2105 C2114 1.429 . S
C2106 C2104 1.419 . S
C2106 C2107 1.363 . S
C2106 H2109 0.929 . S
C2107 C2106 1.363 . S
C2107 C2113 1.428 . S
H2108 C2104 0.930 . S
H2109 C2106 0.929 . S
S2110 N2111 1.613 . S
S2110 N2112 1.610 . S
N2111 S2110 1.613 . S
N2111 C2114 1.350 . S
N2112 S2110 1.610 . S
N2112 C2113 1.351 . S
C2113 C2107 1.428 . S
C2113 N2112 1.351 . S
C2113 C2114 1.434 . S
C2114 C2105 1.429 . S
C2114 N2111 1.350 . S
C2114 C2113 1.434 . S
C2115 C2116 1.369 . S
C2115 C2117 1.419 . S
C2115 H2119 0.930 . S
C2116 C2115 1.369 . S
C2116 C2125 1.429 . S
C2117 C2115 1.419 . S
C2117 C2118 1.363 . S
C2117 H2120 0.929 . S
C2118 C2117 1.363 . S
C2118 C2124 1.428 . S
H2119 C2115 0.930 . S
H2120 C2117 0.929 . S
S2121 N2122 1.613 . S
S2121 N2123 1.610 . S
N2122 S2121 1.613 . S
N2122 C2125 1.350 . S
N2123 S2121 1.610 . S
N2123 C2124 1.351 . S
C2124 C2118 1.428 . S
C2124 N2123 1.351 . S
C2124 C2125 1.434 . S
C2125 C2116 1.429 . S
C2125 N2122 1.350 . S
C2125 C2124 1.434 . S
C2126 C2127 1.369 . S
C2126 C2128 1.419 . S
C2126 H2130 0.930 . S
C2127 C2126 1.369 . S
C2127 C2136 1.429 . S
C2128 C2126 1.419 . S
C2128 C2129 1.363 . S
C2128 H2131 0.929 . S
C2129 C2128 1.363 . S
C2129 C2135 1.428 . S
H2130 C2126 0.930 . S
H2131 C2128 0.929 . S
S2132 N2133 1.613 . S
S2132 N2134 1.610 . S
N2133 S2132 1.613 . S
N2133 C2136 1.350 . S
N2134 S2132 1.610 . S
N2134 C2135 1.351 . S
C2135 C2129 1.428 . S
C2135 N2134 1.351 . S
C2135 C2136 1.434 . S
C2136 C2127 1.429 . S
C2136 N2133 1.350 . S
C2136 C2135 1.434 . S
C2137 C2138 1.369 . S
C2137 C2139 1.419 . S
C2137 H2141 0.930 1_655 S
C2138 C2137 1.369 . S
C2138 C2147 1.429 . S
C2139 C2137 1.419 . S
C2139 C2140 1.363 . S
C2139 H2142 0.929 . S
C2140 C2139 1.363 . S
C2140 C2146 1.428 . S
H2141 C2137 0.930 1_455 S
H2142 C2139 0.929 . S
S2143 N2144 1.613 . S
S2143 N2145 1.610 . S
N2144 S2143 1.613 . S
N2144 C2147 1.350 . S
N2145 S2143 1.610 . S
N2145 C2146 1.351 . S
C2146 C2140 1.428 . S
C2146 N2145 1.351 . S
C2146 C2147 1.434 . S
C2147 C2138 1.429 . S
C2147 N2144 1.350 . S
C2147 C2146 1.434 . S
C2148 C2149 1.369 . S
C2148 C2150 1.419 . S
C2148 H2152 0.930 . S
C2149 C2148 1.369 . S
C2149 C2158 1.429 . S
C2150 C2148 1.419 . S
C2150 C2151 1.363 . S
C2150 H2153 0.929 . S
C2151 C2150 1.363 . S
C2151 C2157 1.428 . S
H2152 C2148 0.930 . S
H2153 C2150 0.929 . S
S2154 N2155 1.613 . S
S2154 N2156 1.610 . S
N2155 S2154 1.613 . S
N2155 C2158 1.350 . S
N2156 S2154 1.610 . S
N2156 C2157 1.351 . S
C2157 C2151 1.428 . S
C2157 N2156 1.351 . S
C2157 C2158 1.434 . S
C2158 C2149 1.429 . S
C2158 N2155 1.350 . S
C2158 C2157 1.434 . S
C2159 C2160 1.369 . S
C2159 C2161 1.419 . S
C2159 H2163 0.930 . S
C2160 C2159 1.369 . S
C2160 C2169 1.429 . S
C2161 C2159 1.419 . S
C2161 C2162 1.363 . S
C2161 H2164 0.929 . S
C2162 C2161 1.363 . S
C2162 C2168 1.428 . S
H2163 C2159 0.930 . S
H2164 C2161 0.929 . S
S2165 N2166 1.613 . S
S2165 N2167 1.610 . S
N2166 S2165 1.613 . S
N2166 C2169 1.350 . S
N2167 S2165 1.610 . S
N2167 C2168 1.351 . S
C2168 C2162 1.428 . S
C2168 N2167 1.351 . S
C2168 C2169 1.434 . S
C2169 C2160 1.429 . S
C2169 N2166 1.350 . S
C2169 C2168 1.434 . S
C2170 C2171 1.369 . S
C2170 C2172 1.419 . S
C2170 H2174 0.930 . S
C2171 C2170 1.369 . S
C2171 C2180 1.429 . S
C2172 C2170 1.419 . S
C2172 C2173 1.363 . S
C2172 H2175 0.929 . S
C2173 C2172 1.363 . S
C2173 C2179 1.428 . S
H2174 C2170 0.930 . S
H2175 C2172 0.929 . S
S2176 N2177 1.613 . S
S2176 N2178 1.610 . S
N2177 S2176 1.613 . S
N2177 C2180 1.350 . S
N2178 S2176 1.610 . S
N2178 C2179 1.351 . S
C2179 C2173 1.428 . S
C2179 N2178 1.351 . S
C2179 C2180 1.434 . S
C2180 C2171 1.429 . S
C2180 N2177 1.350 . S
C2180 C2179 1.434 . S
C2181 C2182 1.369 . S
C2181 C2183 1.419 1_655 S
C2181 H2185 0.930 . S
C2182 C2181 1.369 . S
C2182 C2191 1.429 1_655 S
C2183 C2181 1.419 1_455 S
C2183 C2184 1.363 . S
C2183 H2186 0.933 1_554 S
C2184 C2183 1.363 . S
C2184 C2190 1.428 . S
H2185 C2181 0.930 . S
H2186 C2183 0.933 1_556 S
S2187 N2188 1.613 . S
S2187 N2189 1.610 . S
N2188 S2187 1.613 . S
N2188 C2191 1.350 . S
N2189 S2187 1.610 . S
N2189 C2190 1.351 . S
C2190 C2184 1.428 . S
C2190 N2189 1.351 . S
C2190 C2191 1.434 . S
C2191 C2182 1.429 1_455 S
C2191 N2188 1.350 . S
C2191 C2190 1.434 . S
C2192 C2193 1.369 . S
C2192 C2194 1.419 . S
C2192 H2196 0.930 . S
C2193 C2192 1.369 . S
C2193 C2202 1.429 . S
C2194 C2192 1.419 . S
C2194 C2195 1.363 . S
C2194 H2197 0.929 . S
C2195 C2194 1.363 . S
C2195 C2201 1.428 . S
H2196 C2192 0.930 . S
H2197 C2194 0.929 . S
S2198 N2199 1.613 . S
S2198 N2200 1.610 . S
N2199 S2198 1.613 . S
N2199 C2202 1.350 . S
N2200 S2198 1.610 . S
N2200 C2201 1.351 . S
C2201 C2195 1.428 . S
C2201 N2200 1.351 . S
C2201 C2202 1.434 . S
C2202 C2193 1.429 . S
C2202 N2199 1.350 . S
C2202 C2201 1.434 . S
C2203 C2204 1.369 . S
C2203 C2205 1.419 . S
C2203 H2207 0.930 . S
C2204 C2203 1.369 . S
C2204 C2213 1.429 . S
C2205 C2203 1.419 . S
C2205 C2206 1.363 . S
C2205 H2208 0.929 . S
C2206 C2205 1.363 . S
C2206 C2212 1.428 . S
H2207 C2203 0.930 . S
H2208 C2205 0.929 . S
S2209 N2210 1.613 . S
S2209 N2211 1.610 1_545 S
N2210 S2209 1.613 . S
N2210 C2213 1.350 . S
N2211 S2209 1.610 1_565 S
N2211 C2212 1.351 1_565 S
C2212 C2206 1.428 . S
C2212 N2211 1.351 1_545 S
C2212 C2213 1.434 . S
C2213 C2204 1.429 . S
C2213 N2210 1.350 . S
C2213 C2212 1.434 . S
C2214 C2215 1.369 . S
C2214 C2216 1.419 . S
C2214 H2218 0.930 . S
C2215 C2214 1.369 . S
C2215 C2224 1.429 . S
C2216 C2214 1.419 . S
C2216 C2217 1.363 . S
C2216 H2219 0.929 . S
C2217 C2216 1.363 . S
C2217 C2223 1.428 . S
H2218 C2214 0.930 . S
H2219 C2216 0.929 . S
S2220 N2221 1.613 . S
S2220 N2222 1.610 . S
N2221 S2220 1.613 . S
N2221 C2224 1.350 . S
N2222 S2220 1.610 . S
N2222 C2223 1.351 . S
C2223 C2217 1.428 . S
C2223 N2222 1.351 . S
C2223 C2224 1.434 . S
C2224 C2215 1.429 . S
C2224 N2221 1.350 . S
C2224 C2223 1.434 . S
C2225 C2226 1.369 . S
C2225 C2227 1.419 . S
C2225 H2229 0.935 . S
C2226 C2225 1.369 . S
C2226 C2235 1.429 . S
C2227 C2225 1.419 . S
C2227 C2228 1.363 . S
C2227 H2230 0.929 . S
C2228 C2227 1.363 . S
C2228 C2234 1.428 . S
H2229 C2225 0.935 . S
H2230 C2227 0.929 . S
S2231 N2232 1.613 . S
S2231 N2233 1.610 . S
N2232 S2231 1.613 . S
N2232 C2235 1.350 . S
N2233 S2231 1.610 . S
N2233 C2234 1.351 . S
C2234 C2228 1.428 . S
C2234 N2233 1.351 . S
C2234 C2235 1.434 . S
C2235 C2226 1.429 . S
C2235 N2232 1.350 . S
C2235 C2234 1.434 . S
C2236 C2237 1.369 . S
C2236 C2238 1.419 . S
C2236 H2240 0.930 . S
C2237 C2236 1.369 . S
C2237 C2246 1.429 . S
C2238 C2236 1.419 . S
C2238 C2239 1.363 . S
C2238 H2241 0.929 . S
C2239 C2238 1.363 . S
C2239 C2245 1.428 . S
H2240 C2236 0.930 . S
H2241 C2238 0.929 . S
S2242 N2243 1.613 1_565 S
S2242 N2244 1.610 1_655 S
N2243 S2242 1.613 1_545 S
N2243 C2246 1.350 1_545 S
N2244 S2242 1.610 1_455 S
N2244 C2245 1.351 1_455 S
C2245 C2239 1.428 . S
C2245 N2244 1.351 1_655 S
C2245 C2246 1.434 . S
C2246 C2237 1.429 . S
C2246 N2243 1.350 1_565 S
C2246 C2245 1.434 . S
C2247 C2248 1.369 . S
C2247 C2249 1.419 . S
C2247 H2251 0.930 . S
C2248 C2247 1.369 . S
C2248 C2257 1.429 . S
C2249 C2247 1.419 . S
C2249 C2250 1.363 . S
C2249 H2252 0.929 . S
C2250 C2249 1.363 . S
C2250 C2256 1.428 . S
H2251 C2247 0.930 . S
H2252 C2249 0.929 . S
S2253 N2254 1.613 . S
S2253 N2255 1.610 . S
N2254 S2253 1.613 . S
N2254 C2257 1.350 . S
N2255 S2253 1.610 . S
N2255 C2256 1.351 . S
C2256 C2250 1.428 . S
C2256 N2255 1.351 . S
C2256 C2257 1.434 . S
C2257 C2248 1.429 . S
C2257 N2254 1.350 . S
C2257 C2256 1.434 . S
C2258 C2259 1.369 . S
C2258 C2260 1.419 . S
C2258 H2262 0.930 . S
C2259 C2258 1.369 . S
C2259 C2268 1.429 . S
C2260 C2258 1.419 . S
C2260 C2261 1.363 . S
C2260 H2263 0.929 . S
C2261 C2260 1.363 . S
C2261 C2267 1.428 . S
H2262 C2258 0.930 . S
H2263 C2260 0.929 . S
S2264 N2265 1.613 . S
S2264 N2266 1.610 1_565 S
N2265 S2264 1.613 . S
N2265 C2268 1.350 1_565 S
N2266 S2264 1.610 1_545 S
N2266 C2267 1.351 . S
C2267 C2261 1.428 . S
C2267 N2266 1.351 . S
C2267 C2268 1.434 . S
C2268 C2259 1.429 . S
C2268 N2265 1.350 1_545 S
C2268 C2267 1.434 . S
C2269 C2270 1.369 . S
C2269 C2271 1.419 . S
C2269 H2273 0.930 . S
C2270 C2269 1.369 . S
C2270 C2279 1.429 . S
C2271 C2269 1.419 . S
C2271 C2272 1.363 . S
C2271 H2274 0.929 . S
C2272 C2271 1.363 . S
C2272 C2278 1.428 1_455 S
H2273 C2269 0.930 . S
H2274 C2271 0.929 . S
S2275 N2276 1.613 1_655 S
S2275 N2277 1.610 . S
N2276 S2275 1.613 1_455 S
N2276 C2279 1.350 . S
N2277 S2275 1.610 . S
N2277 C2278 1.351 . S
C2278 C2272 1.428 1_655 S
C2278 N2277 1.351 . S
C2278 C2279 1.434 1_655 S
C2279 C2270 1.429 . S
C2279 N2276 1.350 . S
C2279 C2278 1.434 1_455 S
C2280 C2281 1.369 . S
C2280 C2282 1.419 1_565 S
C2280 H2284 0.930 . S
C2281 C2280 1.369 . S
C2281 C2290 1.429 . S
C2282 C2280 1.419 1_545 S
C2282 C2283 1.363 . S
C2282 H2285 0.929 . S
C2283 C2282 1.363 . S
C2283 C2289 1.428 . S
H2284 C2280 0.930 . S
H2285 C2282 0.929 . S
S2286 N2287 1.613 1_545 S
S2286 N2288 1.610 . S
N2287 S2286 1.613 1_565 S
N2287 C2290 1.350 . S
N2288 S2286 1.610 . S
N2288 C2289 1.351 . S
C2289 C2283 1.428 . S
C2289 N2288 1.351 . S
C2289 C2290 1.434 1_545 S
C2290 C2281 1.429 . S
C2290 N2287 1.350 . S
C2290 C2289 1.434 1_565 S
C2291 C2292 1.369 . S
C2291 C2293 1.419 . S
C2291 H2295 0.930 . S
C2292 C2291 1.369 . S
C2292 C2301 1.429 . S
C2293 C2291 1.419 . S
C2293 C2294 1.363 . S
C2293 H2296 0.929 . S
C2294 C2293 1.363 . S
C2294 C2300 1.428 . S
H2295 C2291 0.930 . S
H2296 C2293 0.929 . S
S2297 N2298 1.613 . S
S2297 N2299 1.610 . S
N2298 S2297 1.613 . S
N2298 C2301 1.350 . S
N2299 S2297 1.610 . S
N2299 C2300 1.351 . S
C2300 C2294 1.428 . S
C2300 N2299 1.351 . S
C2300 C2301 1.434 . S
C2301 C2292 1.429 . S
C2301 N2298 1.350 . S
C2301 C2300 1.434 . S
C2302 C2303 1.369 . S
C2302 C2304 1.419 . S
C2302 H2306 0.930 . S
C2303 C2302 1.369 . S
C2303 C2312 1.429 . S
C2304 C2302 1.419 . S
C2304 C2305 1.363 . S
C2304 H2307 0.929 . S
C2305 C2304 1.363 . S
C2305 C2311 1.428 . S
H2306 C2302 0.930 . S
H2307 C2304 0.929 . S
S2308 N2309 1.613 . S
S2308 N2310 1.610 . S
N2309 S2308 1.613 . S
N2309 C2312 1.350 . S
N2310 S2308 1.610 . S
N2310 C2311 1.351 . S
C2311 C2305 1.428 . S
C2311 N2310 1.351 . S
C2311 C2312 1.434 . S
C2312 C2303 1.429 . S
C2312 N2309 1.350 . S
C2312 C2311 1.434 . S
C2313 C2314 1.369 . S
C2313 C2315 1.419 . S
C2313 H2317 0.930 . S
C2314 C2313 1.369 . S
C2314 C2323 1.429 . S
C2315 C2313 1.419 . S
C2315 C2316 1.363 . S
C2315 H2318 0.929 . S
C2316 C2315 1.363 . S
C2316 C2322 1.428 . S
H2317 C2313 0.930 . S
H2318 C2315 0.929 . S
S2319 N2320 1.613 . S
S2319 N2321 1.610 . S
N2320 S2319 1.613 . S
N2320 C2323 1.350 . S
N2321 S2319 1.610 . S
N2321 C2322 1.351 . S
C2322 C2316 1.428 . S
C2322 N2321 1.351 . S
C2322 C2323 1.434 . S
C2323 C2314 1.429 . S
C2323 N2320 1.350 . S
C2323 C2322 1.434 . S
C2324 C2325 1.369 . S
C2324 C2326 1.419 . S
C2324 H2328 0.930 . S
C2325 C2324 1.369 . S
C2325 C2334 1.429 . S
C2326 C2324 1.419 . S
C2326 C2327 1.363 . S
C2326 H2329 0.929 . S
C2327 C2326 1.363 . S
C2327 C2333 1.428 . S
H2328 C2324 0.930 . S
H2329 C2326 0.929 . S
S2330 N2331 1.613 . S
S2330 N2332 1.610 . S
N2331 S2330 1.613 . S
N2331 C2334 1.350 . S
N2332 S2330 1.610 . S
N2332 C2333 1.351 . S
C2333 C2327 1.428 . S
C2333 N2332 1.351 . S
C2333 C2334 1.434 . S
C2334 C2325 1.429 . S
C2334 N2331 1.350 . S
C2334 C2333 1.434 . S
C2335 C2336 1.369 . S
C2335 C2337 1.419 . S
C2335 H2339 0.930 . S
C2336 C2335 1.369 . S
C2336 C2345 1.429 . S
C2337 C2335 1.419 . S
C2337 C2338 1.363 . S
C2337 H2340 0.929 . S
C2338 C2337 1.363 . S
C2338 C2344 1.428 . S
H2339 C2335 0.930 . S
H2340 C2337 0.929 . S
S2341 N2342 1.613 . S
S2341 N2343 1.610 . S
N2342 S2341 1.613 . S
N2342 C2345 1.350 . S
N2343 S2341 1.610 . S
N2343 C2344 1.351 . S
C2344 C2338 1.428 . S
C2344 N2343 1.351 . S
C2344 C2345 1.434 . S
C2345 C2336 1.429 . S
C2345 N2342 1.350 . S
C2345 C2344 1.434 . S
C2346 C2347 1.369 . S
C2346 C2348 1.419 . S
C2346 H2350 0.930 . S
C2347 C2346 1.369 . S
C2347 C2356 1.429 . S
C2348 C2346 1.419 . S
C2348 C2349 1.363 . S
C2348 H2351 0.929 . S
C2349 C2348 1.363 . S
C2349 C2355 1.428 . S
H2350 C2346 0.930 . S
H2351 C2348 0.929 . S
S2352 N2353 1.613 . S
S2352 N2354 1.610 . S
N2353 S2352 1.613 . S
N2353 C2356 1.350 . S
N2354 S2352 1.610 . S
N2354 C2355 1.351 . S
C2355 C2349 1.428 . S
C2355 N2354 1.351 . S
C2355 C2356 1.434 . S
C2356 C2347 1.429 . S
C2356 N2353 1.350 . S
C2356 C2355 1.434 . S
C2357 C2358 1.369 . S
C2357 C2359 1.419 . S
C2357 H2361 0.930 . S
C2358 C2357 1.369 . S
C2358 C2367 1.429 . S
C2359 C2357 1.419 . S
C2359 C2360 1.363 . S
C2359 H2362 0.929 . S
C2360 C2359 1.363 . S
C2360 C2366 1.428 . S
H2361 C2357 0.930 . S
H2362 C2359 0.929 . S
S2363 N2364 1.613 . S
S2363 N2365 1.610 . S
N2364 S2363 1.613 . S
N2364 C2367 1.350 . S
N2365 S2363 1.610 . S
N2365 C2366 1.351 . S
C2366 C2360 1.428 . S
C2366 N2365 1.351 . S
C2366 C2367 1.434 . S
C2367 C2358 1.429 . S
C2367 N2364 1.350 . S
C2367 C2366 1.434 . S
C2368 C2369 1.369 . S
C2368 C2370 1.419 . S
C2368 H2372 0.930 . S
C2369 C2368 1.369 . S
C2369 C2378 1.429 . S
C2370 C2368 1.419 . S
C2370 C2371 1.363 . S
C2370 H2373 0.929 . S
C2371 C2370 1.363 . S
C2371 C2377 1.428 . S
H2372 C2368 0.930 . S
H2373 C2370 0.929 . S
S2374 N2375 1.613 . S
S2374 N2376 1.610 . S
N2375 S2374 1.613 . S
N2375 C2378 1.350 . S
N2376 S2374 1.610 . S
N2376 C2377 1.351 . S
C2377 C2371 1.428 . S
C2377 N2376 1.351 . S
C2377 C2378 1.434 . S
C2378 C2369 1.429 . S
C2378 N2375 1.350 . S
C2378 C2377 1.434 . S
C2379 C2380 1.369 . S
C2379 C2381 1.419 . S
C2379 H2383 0.930 . S
C2380 C2379 1.369 . S
C2380 C2389 1.429 . S
C2381 C2379 1.419 . S
C2381 C2382 1.363 . S
C2381 H2384 0.929 . S
C2382 C2381 1.363 . S
C2382 C2388 1.428 . S
H2383 C2379 0.930 . S
H2384 C2381 0.929 . S
S2385 N2386 1.613 1_545 S
S2385 N2387 1.610 . S
N2386 S2385 1.613 1_565 S
N2386 C2389 1.350 1_565 S
N2387 S2385 1.610 . S
N2387 C2388 1.351 . S
C2388 C2382 1.428 . S
C2388 N2387 1.351 . S
C2388 C2389 1.434 . S
C2389 C2380 1.429 . S
C2389 N2386 1.350 1_545 S
C2389 C2388 1.434 . S
C2390 C2391 1.369 . S
C2390 C2392 1.419 . S
C2390 H2394 0.930 . S
C2391 C2390 1.369 . S
C2391 C2400 1.429 . S
C2392 C2390 1.419 . S
C2392 C2393 1.363 . S
C2392 H2395 0.929 . S
C2393 C2392 1.363 . S
C2393 C2399 1.428 . S
H2394 C2390 0.930 . S
H2395 C2392 0.929 . S
S2396 N2397 1.613 . S
S2396 N2398 1.610 . S
N2397 S2396 1.613 . S
N2397 C2400 1.350 . S
N2398 S2396 1.610 . S
N2398 C2399 1.351 . S
C2399 C2393 1.428 . S
C2399 N2398 1.351 . S
C2399 C2400 1.434 . S
C2400 C2391 1.429 . S
C2400 N2397 1.350 . S
C2400 C2399 1.434 . S
C2401 C2402 1.369 . S
C2401 C2403 1.419 . S
C2401 H2405 0.930 . S
C2402 C2401 1.369 . S
C2402 C2411 1.429 . S
C2403 C2401 1.419 . S
C2403 C2404 1.363 . S
C2403 H2406 0.929 . S
C2404 C2403 1.363 . S
C2404 C2410 1.428 . S
H2405 C2401 0.930 . S
H2406 C2403 0.929 . S
S2407 N2408 1.613 . S
S2407 N2409 1.610 1_545 S
N2408 S2407 1.613 . S
N2408 C2411 1.350 1_545 S
N2409 S2407 1.610 1_565 S
N2409 C2410 1.351 . S
C2410 C2404 1.428 . S
C2410 N2409 1.351 . S
C2410 C2411 1.434 . S
C2411 C2402 1.429 . S
C2411 N2408 1.350 1_565 S
C2411 C2410 1.434 . S
C2412 C2413 1.369 . S
C2412 C2414 1.419 1_565 S
C2412 H2416 0.930 . S
C2413 C2412 1.369 . S
C2413 C2422 1.429 . S
C2414 C2412 1.419 1_545 S
C2414 C2415 1.361 . S
C2414 H2417 0.929 . S
C2415 C2414 1.361 . S
C2415 C2421 1.417 1_545 S
H2416 C2412 0.930 . S
H2417 C2414 0.929 . S
S2418 N2419 1.613 . S
S2418 N2420 1.610 . S
N2419 S2418 1.613 . S
N2419 C2422 1.350 . S
N2420 S2418 1.610 . S
N2420 C2421 1.351 . S
C2421 C2415 1.417 1_565 S
C2421 N2420 1.351 . S
C2421 C2422 1.434 . S
C2422 C2413 1.429 . S
C2422 N2419 1.350 . S
C2422 C2421 1.434 . S
C2423 C2424 1.369 . S
C2423 C2425 1.419 . S
C2423 H2427 0.930 . S
C2424 C2423 1.369 . S
C2424 C2433 1.429 . S
C2425 C2423 1.419 . S
C2425 C2426 1.363 . S
C2425 H2428 0.929 . S
C2426 C2425 1.363 . S
C2426 C2432 1.428 . S
H2427 C2423 0.930 . S
H2428 C2425 0.929 . S
S2429 N2430 1.613 . S
S2429 N2431 1.610 . S
N2430 S2429 1.613 . S
N2430 C2433 1.350 . S
N2431 S2429 1.610 . S
N2431 C2432 1.351 . S
C2432 C2426 1.428 . S
C2432 N2431 1.351 . S
C2432 C2433 1.434 . S
C2433 C2424 1.429 . S
C2433 N2430 1.350 . S
C2433 C2432 1.434 . S
C2434 C2435 1.369 . S
C2434 C2436 1.419 . S
C2434 H2438 0.930 . S
C2435 C2434 1.369 . S
C2435 C2444 1.429 . S
C2436 C2434 1.419 . S
C2436 C2437 1.363 . S
C2436 H2439 0.929 . S
C2437 C2436 1.363 . S
C2437 C2443 1.428 . S
H2438 C2434 0.930 . S
H2439 C2436 0.929 . S
S2440 N2441 1.613 . S
S2440 N2442 1.610 . S
N2441 S2440 1.613 . S
N2441 C2444 1.350 . S
N2442 S2440 1.610 . S
N2442 C2443 1.351 . S
C2443 C2437 1.428 . S
C2443 N2442 1.351 . S
C2443 C2444 1.434 . S
C2444 C2435 1.429 . S
C2444 N2441 1.350 . S
C2444 C2443 1.434 . S
C2445 C2446 1.369 . S
C2445 C2447 1.419 . S
C2445 H2449 0.930 . S
C2446 C2445 1.369 . S
C2446 C2455 1.429 . S
C2447 C2445 1.419 . S
C2447 C2448 1.363 . S
C2447 H2450 0.929 . S
C2448 C2447 1.363 . S
C2448 C2454 1.428 . S
H2449 C2445 0.930 . S
H2450 C2447 0.929 . S
S2451 N2452 1.613 . S
S2451 N2453 1.610 . S
N2452 S2451 1.613 . S
N2452 C2455 1.350 . S
N2453 S2451 1.610 . S
N2453 C2454 1.351 . S
C2454 C2448 1.428 . S
C2454 N2453 1.351 . S
C2454 C2455 1.434 . S
C2455 C2446 1.429 . S
C2455 N2452 1.350 . S
C2455 C2454 1.434 . S
C2456 C2457 1.369 . S
C2456 C2458 1.419 . S
C2456 H2460 0.930 . S
C2457 C2456 1.369 . S
C2457 C2466 1.429 . S
C2458 C2456 1.419 . S
C2458 C2459 1.363 . S
C2458 H2461 0.929 . S
C2459 C2458 1.363 . S
C2459 C2465 1.428 . S
H2460 C2456 0.930 . S
H2461 C2458 0.929 . S
S2462 N2463 1.613 . S
S2462 N2464 1.610 . S
N2463 S2462 1.613 . S
N2463 C2466 1.350 . S
N2464 S2462 1.610 . S
N2464 C2465 1.351 . S
C2465 C2459 1.428 . S
C2465 N2464 1.351 . S
C2465 C2466 1.434 . S
C2466 C2457 1.429 . S
C2466 N2463 1.350 . S
C2466 C2465 1.434 . S
C2467 C2468 1.369 . S
C2467 C2469 1.419 . S
C2467 H2471 0.930 . S
C2468 C2467 1.369 . S
C2468 C2477 1.429 . S
C2469 C2467 1.419 . S
C2469 C2470 1.363 . S
C2469 H2472 0.929 . S
C2470 C2469 1.363 . S
C2470 C2476 1.428 . S
H2471 C2467 0.930 . S
H2472 C2469 0.929 . S
S2473 N2474 1.613 . S
S2473 N2475 1.610 . S
N2474 S2473 1.613 . S
N2474 C2477 1.350 . S
N2475 S2473 1.610 . S
N2475 C2476 1.351 . S
C2476 C2470 1.428 . S
C2476 N2475 1.351 . S
C2476 C2477 1.434 . S
C2477 C2468 1.429 . S
C2477 N2474 1.350 . S
C2477 C2476 1.434 . S
C2478 C2479 1.369 . S
C2478 C2480 1.419 . S
C2478 H2482 0.930 . S
C2479 C2478 1.369 . S
C2479 C2488 1.429 . S
C2480 C2478 1.419 . S
C2480 C2481 1.363 . S
C2480 H2483 0.929 . S
C2481 C2480 1.363 . S
C2481 C2487 1.428 . S
H2482 C2478 0.930 . S
H2483 C2480 0.929 . S
S2484 N2485 1.613 . S
S2484 N2486 1.610 . S
N2485 S2484 1.613 . S
N2485 C2488 1.350 . S
N2486 S2484 1.610 . S
N2486 C2487 1.351 . S
C2487 C2481 1.428 . S
C2487 N2486 1.351 . S
C2487 C2488 1.434 . S
C2488 C2479 1.429 . S
C2488 N2485 1.350 . S
C2488 C2487 1.434 . S
C2489 C2490 1.369 . S
C2489 C2491 1.419 . S
C2489 H2493 0.930 . S
C2490 C2489 1.369 . S
C2490 C2499 1.429 . S
C2491 C2489 1.419 . S
C2491 C2492 1.363 . S
C2491 H2494 0.929 . S
C2492 C2491 1.363 . S
C2492 C2498 1.428 . S
H2493 C2489 0.930 . S
H2494 C2491 0.929 . S
S2495 N2496 1.613 . S
S2495 N2497 1.610 . S
N2496 S2495 1.613 . S
N2496 C2499 1.350 . S
N2497 S2495 1.610 . S
N2497 C2498 1.351 . S
C2498 C2492 1.428 . S
C2498 N2497 1.351 . S
C2498 C2499 1.434 . S
C2499 C2490 1.429 . S
C2499 N2496 1.350 . S
C2499 C2498 1.434 . S
C2500 C2501 1.369 . S
C2500 C2502 1.419 . S
C2500 H2504 0.930 . S
C2501 C2500 1.369 . S
C2501 C2510 1.429 . S
C2502 C2500 1.419 . S
C2502 C2503 1.363 . S
C2502 H2505 0.929 . S
C2503 C2502 1.363 . S
C2503 C2509 1.428 . S
H2504 C2500 0.930 . S
H2505 C2502 0.929 . S
S2506 N2507 1.613 . S
S2506 N2508 1.610 . S
N2507 S2506 1.613 . S
N2507 C2510 1.350 . S
N2508 S2506 1.610 . S
N2508 C2509 1.351 . S
C2509 C2503 1.428 . S
C2509 N2508 1.351 . S
C2509 C2510 1.434 . S
C2510 C2501 1.429 . S
C2510 N2507 1.350 . S
C2510 C2509 1.434 . S
C2511 C2512 1.369 . S
C2511 C2513 1.419 . S
C2511 H2515 0.930 . S
C2512 C2511 1.369 . S
C2512 C2521 1.429 . S
C2513 C2511 1.419 . S
C2513 C2514 1.363 . S
C2513 H2516 0.929 . S
C2514 C2513 1.363 . S
C2514 C2520 1.428 . S
H2515 C2511 0.930 . S
H2516 C2513 0.929 . S
S2517 N2518 1.613 . S
S2517 N2519 1.610 . S
N2518 S2517 1.613 . S
N2518 C2521 1.350 . S
N2519 S2517 1.610 . S
N2519 C2520 1.351 . S
C2520 C2514 1.428 . S
C2520 N2519 1.351 . S
C2520 C2521 1.434 . S
C2521 C2512 1.429 . S
C2521 N2518 1.350 . S
C2521 C2520 1.434 . S
C2522 C2523 1.369 . S
C2522 C2524 1.419 . S
C2522 H2526 0.930 . S
C2523 C2522 1.369 . S
C2523 C2532 1.429 . S
C2524 C2522 1.419 . S
C2524 C2525 1.363 . S
C2524 H2527 0.929 . S
C2525 C2524 1.363 . S
C2525 C2531 1.428 . S
H2526 C2522 0.930 . S
H2527 C2524 0.929 . S
S2528 N2529 1.613 . S
S2528 N2530 1.610 . S
N2529 S2528 1.613 . S
N2529 C2532 1.350 . S
N2530 S2528 1.610 . S
N2530 C2531 1.351 . S
C2531 C2525 1.428 . S
C2531 N2530 1.351 . S
C2531 C2532 1.434 . S
C2532 C2523 1.429 . S
C2532 N2529 1.350 . S
C2532 C2531 1.434 . S
C2533 C2534 1.369 . S
C2533 C2535 1.419 . S
C2533 H2537 0.930 . S
C2534 C2533 1.369 . S
C2534 C2543 1.429 . S
C2535 C2533 1.419 . S
C2535 C2536 1.363 . S
C2535 H2538 0.929 . S
C2536 C2535 1.363 . S
C2536 C2542 1.428 . S
H2537 C2533 0.930 . S
H2538 C2535 0.929 . S
S2539 N2540 1.613 . S
S2539 N2541 1.610 . S
N2540 S2539 1.613 . S
N2540 C2543 1.350 . S
N2541 S2539 1.610 . S
N2541 C2542 1.351 . S
C2542 C2536 1.428 . S
C2542 N2541 1.351 . S
C2542 C2543 1.434 . S
C2543 C2534 1.429 . S
C2543 N2540 1.350 . S
C2543 C2542 1.434 . S
C2544 C2545 1.369 . S
C2544 C2546 1.419 1_565 S
C2544 H2548 0.930 . S
C2545 C2544 1.369 . S
C2545 C2554 1.429 . S
C2546 C2544 1.419 1_545 S
C2546 C2547 1.363 . S
C2546 H2549 0.929 . S
C2547 C2546 1.363 . S
C2547 C2553 1.428 . S
H2548 C2544 0.930 . S
H2549 C2546 0.929 . S
S2550 N2551 1.613 . S
S2550 N2552 1.610 1_565 S
N2551 S2550 1.613 . S
N2551 C2554 1.350 . S
N2552 S2550 1.610 1_545 S
N2552 C2553 1.351 . S
C2553 C2547 1.428 . S
C2553 N2552 1.351 . S
C2553 C2554 1.434 1_545 S
C2554 C2545 1.429 . S
C2554 N2551 1.350 . S
C2554 C2553 1.434 1_565 S
C2555 C2556 1.369 1_655 S
C2555 C2557 1.419 . S
C2555 H2559 0.930 1_655 S
C2556 C2555 1.369 1_455 S
C2556 C2565 1.429 . S
C2557 C2555 1.419 . S
C2557 C2558 1.363 . S
C2557 H2560 0.929 . S
C2558 C2557 1.363 . S
C2558 C2564 1.428 . S
H2559 C2555 0.930 1_455 S
H2560 C2557 0.929 . S
S2561 N2562 1.593 1_655 S
S2561 N2563 1.633 . S
N2562 S2561 1.593 1_455 S
N2562 C2565 1.350 . S
N2563 S2561 1.633 . S
N2563 C2564 1.351 . S
C2564 C2558 1.428 . S
C2564 N2563 1.351 . S
C2564 C2565 1.434 1_655 S
C2565 C2556 1.429 . S
C2565 N2562 1.350 . S
C2565 C2564 1.434 1_455 S
C2566 C2567 1.369 . S
C2566 C2568 1.419 . S
C2566 H2570 0.930 . S
C2567 C2566 1.369 . S
C2567 C2576 1.429 . S
C2568 C2566 1.419 . S
C2568 C2569 1.363 . S
C2568 H2571 0.929 . S
C2569 C2568 1.363 . S
C2569 C2575 1.428 . S
H2570 C2566 0.930 . S
H2571 C2568 0.929 . S
S2572 N2573 1.613 . S
S2572 N2574 1.610 . S
N2573 S2572 1.613 . S
N2573 C2576 1.350 . S
N2574 S2572 1.610 . S
N2574 C2575 1.351 . S
C2575 C2569 1.428 . S
C2575 N2574 1.351 . S
C2575 C2576 1.434 . S
C2576 C2567 1.429 . S
C2576 N2573 1.350 . S
C2576 C2575 1.434 . S
C2577 C2578 1.369 . S
C2577 C2579 1.419 . S
C2577 H2581 0.930 . S
C2578 C2577 1.369 . S
C2578 C2587 1.429 . S
C2579 C2577 1.419 . S
C2579 C2580 1.363 . S
C2579 H2582 0.929 . S
C2580 C2579 1.363 . S
C2580 C2586 1.428 . S
H2581 C2577 0.930 . S
H2582 C2579 0.929 . S
S2583 N2584 1.613 . S
S2583 N2585 1.610 . S
N2584 S2583 1.613 . S
N2584 C2587 1.350 . S
N2585 S2583 1.610 . S
N2585 C2586 1.351 . S
C2586 C2580 1.428 . S
C2586 N2585 1.351 . S
C2586 C2587 1.434 . S
C2587 C2578 1.429 . S
C2587 N2584 1.350 . S
C2587 C2586 1.434 . S
C2588 C2589 1.369 . S
C2588 C2590 1.419 . S
C2588 H2592 0.930 . S
C2589 C2588 1.369 . S
C2589 C2598 1.429 . S
C2590 C2588 1.419 . S
C2590 C2591 1.363 . S
C2590 H2593 0.929 . S
C2591 C2590 1.363 . S
C2591 C2597 1.428 . S
H2592 C2588 0.930 . S
H2593 C2590 0.929 . S
S2594 N2595 1.613 . S
S2594 N2596 1.610 . S
N2595 S2594 1.613 . S
N2595 C2598 1.350 . S
N2596 S2594 1.610 . S
N2596 C2597 1.351 . S
C2597 C2591 1.428 . S
C2597 N2596 1.351 . S
C2597 C2598 1.434 . S
C2598 C2589 1.429 . S
C2598 N2595 1.350 . S
C2598 C2597 1.434 . S
C2599 C2600 1.369 . S
C2599 C2601 1.419 . S
C2599 H2603 0.930 . S
C2600 C2599 1.369 . S
C2600 C2609 1.429 . S
C2601 C2599 1.419 . S
C2601 C2602 1.363 . S
C2601 H2604 0.929 . S
C2602 C2601 1.363 . S
C2602 C2608 1.428 . S
H2603 C2599 0.930 . S
H2604 C2601 0.929 . S
S2605 N2606 1.613 . S
S2605 N2607 1.610 . S
N2606 S2605 1.613 . S
N2606 C2609 1.350 . S
N2607 S2605 1.610 . S
N2607 C2608 1.351 . S
C2608 C2602 1.428 . S
C2608 N2607 1.351 . S
C2608 C2609 1.434 . S
C2609 C2600 1.429 . S
C2609 N2606 1.350 . S
C2609 C2608 1.434 . S
C2610 C2611 1.369 . S
C2610 C2612 1.419 1_545 S
C2610 H2614 0.930 . S
C2611 C2610 1.369 . S
C2611 C2620 1.429 . S
C2612 C2610 1.419 1_565 S
C2612 C2613 1.363 . S
C2612 H2615 0.929 . S
C2613 C2612 1.363 . S
C2613 C2619 1.428 . S
H2614 C2610 0.930 . S
H2615 C2612 0.929 . S
S2616 N2617 1.613 . S
S2616 N2618 1.610 1_545 S
N2617 S2616 1.613 . S
N2617 C2620 1.350 . S
N2618 S2616 1.610 1_565 S
N2618 C2619 1.351 . S
C2619 C2613 1.428 . S
C2619 N2618 1.351 . S
C2619 C2620 1.434 1_565 S
C2620 C2611 1.429 . S
C2620 N2617 1.350 . S
C2620 C2619 1.434 1_545 S
C2621 C2622 1.369 1_455 S
C2621 C2623 1.419 . S
C2621 H2625 0.930 . S
C2622 C2621 1.369 1_655 S
C2622 C2631 1.429 . S
C2623 C2621 1.419 . S
C2623 C2624 1.363 . S
C2623 H2626 0.929 . S
C2624 C2623 1.363 . S
C2624 C2630 1.428 . S
H2625 C2621 0.930 . S
H2626 C2623 0.929 . S
S2627 N2628 1.613 . S
S2627 N2629 1.610 1_655 S
N2628 S2627 1.613 . S
N2628 C2631 1.350 . S
N2629 S2627 1.610 1_455 S
N2629 C2630 1.351 . S
C2630 C2624 1.428 . S
C2630 N2629 1.351 . S
C2630 C2631 1.434 1_455 S
C2631 C2622 1.429 . S
C2631 N2628 1.350 . S
C2631 C2630 1.434 1_655 S
C2632 C2633 1.369 . S
C2632 C2634 1.419 1_554 S
C2632 H2636 0.930 . S
C2633 C2632 1.369 . S
C2633 C2642 1.429 . S
C2634 C2632 1.419 1_556 S
C2634 C2635 1.363 . S
C2634 H2637 0.929 . S
C2635 C2634 1.363 . S
C2635 C2641 1.428 . S
H2636 C2632 0.930 . S
H2637 C2634 0.929 . S
S2638 N2639 1.613 1_556 S
S2638 N2640 1.610 . S
N2639 S2638 1.613 1_554 S
N2639 C2642 1.350 . S
N2640 S2638 1.610 . S
N2640 C2641 1.351 . S
C2641 C2635 1.428 . S
C2641 N2640 1.351 . S
C2641 C2642 1.434 1_556 S
C2642 C2633 1.429 . S
C2642 N2639 1.350 . S
C2642 C2641 1.434 1_554 S
C2643 C2644 1.369 . S
C2643 C2645 1.419 . S
C2643 H2647 0.930 . S
C2644 C2643 1.369 . S
C2644 C2653 1.429 . S
C2645 C2643 1.419 . S
C2645 C2646 1.363 . S
C2645 H2648 0.929 . S
C2646 C2645 1.363 . S
C2646 C2652 1.428 . S
H2647 C2643 0.930 . S
H2648 C2645 0.929 . S
S2649 N2650 1.613 . S
S2649 N2651 1.610 . S
N2650 S2649 1.613 . S
N2650 C2653 1.350 . S
N2651 S2649 1.610 . S
N2651 C2652 1.351 . S
C2652 C2646 1.428 . S
C2652 N2651 1.351 . S
C2652 C2653 1.434 . S
C2653 C2644 1.429 . S
C2653 N2650 1.350 . S
C2653 C2652 1.434 . S
C2654 C2655 1.369 . S
C2654 C2656 1.419 . S
C2654 H2658 0.930 . S
C2655 C2654 1.369 . S
C2655 C2664 1.429 . S
C2656 C2654 1.419 . S
C2656 C2657 1.363 . S
C2656 H2659 0.929 . S
C2657 C2656 1.363 . S
C2657 C2663 1.428 . S
H2658 C2654 0.930 . S
H2659 C2656 0.929 . S
S2660 N2661 1.613 . S
S2660 N2662 1.610 . S
N2661 S2660 1.613 . S
N2661 C2664 1.350 . S
N2662 S2660 1.610 . S
N2662 C2663 1.351 . S
C2663 C2657 1.428 . S
C2663 N2662 1.351 . S
C2663 C2664 1.434 . S
C2664 C2655 1.429 . S
C2664 N2661 1.350 . S
C2664 C2663 1.434 . S
C2665 C2666 1.369 . S
C2665 C2667 1.419 . S
C2665 H2669 0.930 . S
C2666 C2665 1.369 . S
C2666 C2675 1.429 . S
C2667 C2665 1.419 . S
C2667 C2668 1.363 . S
C2667 H2670 0.929 . S
C2668 C2667 1.363 . S
C2668 C2674 1.428 . S
H2669 C2665 0.930 . S
H2670 C2667 0.929 . S
S2671 N2672 1.613 . S
S2671 N2673 1.610 . S
N2672 S2671 1.613 . S
N2672 C2675 1.350 . S
N2673 S2671 1.610 . S
N2673 C2674 1.351 . S
C2674 C2668 1.428 . S
C2674 N2673 1.351 . S
C2674 C2675 1.434 . S
C2675 C2666 1.429 . S
C2675 N2672 1.350 . S
C2675 C2674 1.434 . S
C2676 C2677 1.369 . S
C2676 C2678 1.419 . S
C2676 H2680 0.930 . S
C2677 C2676 1.369 . S
C2677 C2686 1.429 . S
C2678 C2676 1.419 . S
C2678 C2679 1.363 . S
C2678 H2681 0.929 . S
C2679 C2678 1.363 . S
C2679 C2685 1.428 . S
H2680 C2676 0.930 . S
H2681 C2678 0.929 . S
S2682 N2683 1.613 . S
S2682 N2684 1.610 . S
N2683 S2682 1.613 . S
N2683 C2686 1.350 . S
N2684 S2682 1.610 . S
N2684 C2685 1.351 . S
C2685 C2679 1.428 . S
C2685 N2684 1.351 . S
C2685 C2686 1.434 . S
C2686 C2677 1.429 . S
C2686 N2683 1.350 . S
C2686 C2685 1.434 . S
C2687 C2688 1.369 . S
C2687 C2689 1.419 . S
C2687 H2691 0.930 . S
C2688 C2687 1.369 . S
C2688 C2697 1.429 . S
C2689 C2687 1.419 . S
C2689 C2690 1.363 . S
C2689 H2692 0.929 . S
C2690 C2689 1.363 . S
C2690 C2696 1.428 . S
H2691 C2687 0.930 . S
H2692 C2689 0.929 . S
S2693 N2694 1.613 . S
S2693 N2695 1.610 . S
N2694 S2693 1.613 . S
N2694 C2697 1.350 . S
N2695 S2693 1.610 . S
N2695 C2696 1.351 . S
C2696 C2690 1.428 . S
C2696 N2695 1.351 . S
C2696 C2697 1.434 . S
C2697 C2688 1.429 . S
C2697 N2694 1.350 . S
C2697 C2696 1.434 . S
C2698 C2699 1.369 . S
C2698 C2700 1.419 . S
C2698 H2702 0.930 . S
C2699 C2698 1.369 . S
C2699 C2708 1.429 . S
C2700 C2698 1.419 . S
C2700 C2701 1.363 . S
C2700 H2703 0.929 . S
C2701 C2700 1.363 . S
C2701 C2707 1.428 . S
H2702 C2698 0.930 . S
H2703 C2700 0.929 . S
S2704 N2705 1.613 . S
S2704 N2706 1.610 . S
N2705 S2704 1.613 . S
N2705 C2708 1.350 . S
N2706 S2704 1.610 . S
N2706 C2707 1.351 . S
C2707 C2701 1.428 . S
C2707 N2706 1.351 . S
C2707 C2708 1.434 . S
C2708 C2699 1.429 . S
C2708 N2705 1.350 . S
C2708 C2707 1.434 . S
C2709 C2710 1.369 . S
C2709 C2711 1.419 1_554 S
C2709 H2713 0.930 . S
C2710 C2709 1.369 . S
C2710 C2719 1.429 . S
C2711 C2709 1.419 1_556 S
C2711 C2712 1.363 . S
C2711 H2714 0.929 . S
C2712 C2711 1.363 . S
C2712 C2718 1.428 . S
H2713 C2709 0.930 . S
H2714 C2711 0.929 . S
S2715 N2716 1.606 1_556 S
S2715 N2717 1.617 . S
N2716 S2715 1.606 1_554 S
N2716 C2719 1.350 . S
N2717 S2715 1.617 . S
N2717 C2718 1.351 . S
C2718 C2712 1.428 . S
C2718 N2717 1.351 . S
C2718 C2719 1.434 1_556 S
C2719 C2710 1.429 . S
C2719 N2716 1.350 . S
C2719 C2718 1.434 1_554 S
C2720 C2721 1.369 1_455 S
C2720 C2722 1.419 . S
C2720 H2724 0.930 . S
C2721 C2720 1.369 1_655 S
C2721 C2730 1.429 . S
C2722 C2720 1.419 . S
C2722 C2723 1.363 . S
C2722 H2725 0.929 . S
C2723 C2722 1.363 . S
C2723 C2729 1.428 . S
H2724 C2720 0.930 . S
H2725 C2722 0.929 . S
S2726 N2727 1.613 . S
S2726 N2728 1.610 1_655 S
N2727 S2726 1.613 . S
N2727 C2730 1.350 . S
N2728 S2726 1.610 1_455 S
N2728 C2729 1.351 . S
C2729 C2723 1.428 . S
C2729 N2728 1.351 . S
C2729 C2730 1.434 1_455 S
C2730 C2721 1.429 . S
C2730 N2727 1.350 . S
C2730 C2729 1.434 1_655 S
C2731 C2732 1.369 . S
C2731 C2733 1.419 . S
C2731 H2735 0.930 . S
C2732 C2731 1.369 . S
C2732 C2741 1.429 . S
C2733 C2731 1.419 . S
C2733 C2734 1.363 . S
C2733 H2736 0.929 . S
C2734 C2733 1.363 . S
C2734 C2740 1.428 . S
H2735 C2731 0.930 . S
H2736 C2733 0.929 . S
S2737 N2738 1.613 . S
S2737 N2739 1.610 . S
N2738 S2737 1.613 . S
N2738 C2741 1.350 . S
N2739 S2737 1.610 . S
N2739 C2740 1.351 . S
C2740 C2734 1.428 . S
C2740 N2739 1.351 . S
C2740 C2741 1.434 . S
C2741 C2732 1.429 . S
C2741 N2738 1.350 . S
C2741 C2740 1.434 . S
C2742 C2743 1.369 . S
C2742 C2744 1.419 . S
C2742 H2746 0.930 . S
C2743 C2742 1.369 . S
C2743 C2752 1.429 . S
C2744 C2742 1.419 . S
C2744 C2745 1.363 . S
C2744 H2747 0.929 . S
C2745 C2744 1.363 . S
C2745 C2751 1.428 . S
H2746 C2742 0.930 . S
H2747 C2744 0.929 . S
S2748 N2749 1.613 . S
S2748 N2750 1.610 . S
N2749 S2748 1.613 . S
N2749 C2752 1.350 . S
N2750 S2748 1.610 . S
N2750 C2751 1.351 . S
C2751 C2745 1.428 . S
C2751 N2750 1.351 . S
C2751 C2752 1.434 . S
C2752 C2743 1.429 . S
C2752 N2749 1.350 . S
C2752 C2751 1.434 . S
C2753 C2754 1.369 . S
C2753 C2755 1.419 . S
C2753 H2757 0.930 . S
C2754 C2753 1.369 . S
C2754 C2763 1.429 . S
C2755 C2753 1.419 . S
C2755 C2756 1.363 . S
C2755 H2758 0.929 . S
C2756 C2755 1.363 . S
C2756 C2762 1.428 . S
H2757 C2753 0.930 . S
H2758 C2755 0.929 . S
S2759 N2760 1.613 . S
S2759 N2761 1.610 . S
N2760 S2759 1.613 . S
N2760 C2763 1.350 . S
N2761 S2759 1.610 . S
N2761 C2762 1.351 . S
C2762 C2756 1.428 . S
C2762 N2761 1.351 . S
C2762 C2763 1.434 . S
C2763 C2754 1.429 . S
C2763 N2760 1.350 . S
C2763 C2762 1.434 . S
C2764 C2765 1.369 . S
C2764 C2766 1.419 . S
C2764 H2768 0.930 . S
C2765 C2764 1.369 . S
C2765 C2774 1.429 . S
C2766 C2764 1.419 . S
C2766 C2767 1.363 . S
C2766 H2769 0.929 . S
C2767 C2766 1.363 . S
C2767 C2773 1.428 . S
H2768 C2764 0.930 . S
H2769 C2766 0.929 . S
S2770 N2771 1.613 . S
S2770 N2772 1.610 . S
N2771 S2770 1.613 . S
N2771 C2774 1.350 . S
N2772 S2770 1.610 . S
N2772 C2773 1.351 . S
C2773 C2767 1.428 . S
C2773 N2772 1.351 . S
C2773 C2774 1.434 . S
C2774 C2765 1.429 . S
C2774 N2771 1.350 . S
C2774 C2773 1.434 . S
C2775 C2776 1.369 . S
C2775 C2777 1.419 . S
C2775 H2779 0.930 . S
C2776 C2775 1.369 . S
C2776 C2785 1.429 . S
C2777 C2775 1.419 . S
C2777 C2778 1.363 . S
C2777 H2780 0.929 . S
C2778 C2777 1.363 . S
C2778 C2784 1.428 . S
H2779 C2775 0.930 . S
H2780 C2777 0.929 . S
S2781 N2782 1.613 . S
S2781 N2783 1.610 . S
N2782 S2781 1.613 . S
N2782 C2785 1.350 . S
N2783 S2781 1.610 . S
N2783 C2784 1.351 . S
C2784 C2778 1.428 . S
C2784 N2783 1.351 . S
C2784 C2785 1.434 . S
C2785 C2776 1.429 . S
C2785 N2782 1.350 . S
C2785 C2784 1.434 . S
C2786 C2787 1.369 . S
C2786 C2788 1.419 1_545 S
C2786 H2790 0.930 . S
C2787 C2786 1.369 . S
C2787 C2796 1.429 . S
C2788 C2786 1.419 1_565 S
C2788 C2789 1.363 . S
C2788 H2791 0.929 . S
C2789 C2788 1.363 . S
C2789 C2795 1.428 . S
H2790 C2786 0.930 . S
H2791 C2788 0.929 . S
S2792 N2793 1.613 . S
S2792 N2794 1.610 1_545 S
N2793 S2792 1.613 . S
N2793 C2796 1.350 . S
N2794 S2792 1.610 1_565 S
N2794 C2795 1.351 . S
C2795 C2789 1.428 . S
C2795 N2794 1.351 . S
C2795 C2796 1.434 1_565 S
C2796 C2787 1.429 . S
C2796 N2793 1.350 . S
C2796 C2795 1.434 1_545 S
C2797 C2798 1.369 . S
C2797 C2799 1.419 1_655 S
C2797 H2801 0.930 . S
C2798 C2797 1.369 . S
C2798 C2807 1.429 1_655 S
C2799 C2797 1.419 1_455 S
C2799 C2800 1.363 . S
C2799 H2802 0.929 . S
C2800 C2799 1.363 . S
C2800 C2806 1.428 . S
H2801 C2797 0.930 . S
H2802 C2799 0.929 . S
S2803 N2804 1.613 . S
S2803 N2805 1.610 . S
N2804 S2803 1.613 . S
N2804 C2807 1.350 . S
N2805 S2803 1.610 . S
N2805 C2806 1.351 . S
C2806 C2800 1.428 . S
C2806 N2805 1.351 . S
C2806 C2807 1.434 . S
C2807 C2798 1.429 1_455 S
C2807 N2804 1.350 . S
C2807 C2806 1.434 . S
C2808 C2809 1.369 . S
C2808 C2810 1.419 . S
C2808 H2812 0.930 . S
C2809 C2808 1.369 . S
C2809 C2818 1.429 . S
C2810 C2808 1.419 . S
C2810 C2811 1.363 . S
C2810 H2813 0.929 . S
C2811 C2810 1.363 . S
C2811 C2817 1.428 . S
H2812 C2808 0.930 . S
H2813 C2810 0.929 . S
S2814 N2815 1.613 . S
S2814 N2816 1.610 . S
N2815 S2814 1.613 . S
N2815 C2818 1.350 . S
N2816 S2814 1.610 . S
N2816 C2817 1.351 . S
C2817 C2811 1.428 . S
C2817 N2816 1.351 . S
C2817 C2818 1.434 . S
C2818 C2809 1.429 . S
C2818 N2815 1.350 . S
C2818 C2817 1.434 . S
C2819 C2820 1.369 . S
C2819 C2821 1.419 . S
C2819 H2823 0.930 . S
C2820 C2819 1.369 . S
C2820 C2829 1.429 . S
C2821 C2819 1.419 . S
C2821 C2822 1.363 . S
C2821 H2824 0.929 . S
C2822 C2821 1.363 . S
C2822 C2828 1.428 . S
H2823 C2819 0.930 . S
H2824 C2821 0.929 . S
S2825 N2826 1.613 . S
S2825 N2827 1.610 . S
N2826 S2825 1.613 . S
N2826 C2829 1.350 . S
N2827 S2825 1.610 . S
N2827 C2828 1.351 . S
C2828 C2822 1.428 . S
C2828 N2827 1.351 . S
C2828 C2829 1.434 . S
C2829 C2820 1.429 . S
C2829 N2826 1.350 . S
C2829 C2828 1.434 . S
C2830 C2831 1.369 . S
C2830 C2832 1.419 . S
C2830 H2834 0.930 . S
C2831 C2830 1.369 . S
C2831 C2840 1.429 . S
C2832 C2830 1.419 . S
C2832 C2833 1.363 . S
C2832 H2835 0.929 . S
C2833 C2832 1.363 . S
C2833 C2839 1.428 . S
H2834 C2830 0.930 . S
H2835 C2832 0.929 . S
S2836 N2837 1.613 . S
S2836 N2838 1.610 . S
N2837 S2836 1.613 . S
N2837 C2840 1.350 . S
N2838 S2836 1.610 . S
N2838 C2839 1.351 . S
C2839 C2833 1.428 . S
C2839 N2838 1.351 . S
C2839 C2840 1.434 . S
C2840 C2831 1.429 . S
C2840 N2837 1.350 . S
C2840 C2839 1.434 . S
C2841 C2842 1.369 . S
C2841 C2843 1.419 . S
C2841 H2845 0.930 . S
C2842 C2841 1.369 . S
C2842 C2851 1.429 . S
C2843 C2841 1.419 . S
C2843 C2844 1.363 . S
C2843 H2846 0.929 . S
C2844 C2843 1.363 . S
C2844 C2850 1.428 . S
H2845 C2841 0.930 . S
H2846 C2843 0.929 . S
S2847 N2848 1.613 . S
S2847 N2849 1.610 . S
N2848 S2847 1.613 . S
N2848 C2851 1.350 . S
N2849 S2847 1.610 . S
N2849 C2850 1.351 . S
C2850 C2844 1.428 . S
C2850 N2849 1.351 . S
C2850 C2851 1.434 . S
C2851 C2842 1.429 . S
C2851 N2848 1.350 . S
C2851 C2850 1.434 . S
C2852 C2853 1.369 . S
C2852 C2854 1.419 1_565 S
C2852 H2856 0.930 . S
C2853 C2852 1.369 . S
C2853 C2862 1.429 . S
C2854 C2852 1.419 1_545 S
C2854 C2855 1.363 . S
C2854 H2857 0.929 . S
C2855 C2854 1.363 . S
C2855 C2861 1.428 . S
H2856 C2852 0.930 . S
H2857 C2854 0.929 . S
S2858 N2859 1.613 . S
S2858 N2860 1.610 1_565 S
N2859 S2858 1.613 . S
N2859 C2862 1.350 . S
N2860 S2858 1.610 1_545 S
N2860 C2861 1.351 . S
C2861 C2855 1.428 . S
C2861 N2860 1.351 . S
C2861 C2862 1.434 1_545 S
C2862 C2853 1.429 . S
C2862 N2859 1.350 . S
C2862 C2861 1.434 1_565 S
C2863 C2864 1.369 1_655 S
C2863 C2865 1.419 . S
C2863 H2867 0.930 1_655 S
C2864 C2863 1.369 1_455 S
C2864 C2873 1.429 . S
C2865 C2863 1.419 . S
C2865 C2866 1.363 . S
C2865 H2868 0.929 . S
C2866 C2865 1.363 . S
C2866 C2872 1.428 . S
H2867 C2863 0.930 1_455 S
H2868 C2865 0.929 . S
S2869 N2870 1.613 . S
S2869 N2871 1.610 1_455 S
N2870 S2869 1.613 . S
N2870 C2873 1.350 . S
N2871 S2869 1.610 1_655 S
N2871 C2872 1.351 . S
C2872 C2866 1.428 . S
C2872 N2871 1.351 . S
C2872 C2873 1.434 1_655 S
C2873 C2864 1.429 . S
C2873 N2870 1.350 . S
C2873 C2872 1.434 1_455 S
C2874 C2875 1.369 . S
C2874 C2876 1.419 1_554 S
C2874 H2878 0.930 . S
C2875 C2874 1.369 . S
C2875 C2884 1.429 . S
C2876 C2874 1.419 1_556 S
C2876 C2877 1.363 . S
C2876 H2879 0.929 . S
C2877 C2876 1.363 . S
C2877 C2883 1.428 . S
H2878 C2874 0.930 . S
H2879 C2876 0.929 . S
S2880 N2881 1.613 . S
S2880 N2882 1.610 1_554 S
N2881 S2880 1.613 . S
N2881 C2884 1.350 . S
N2882 S2880 1.610 1_556 S
N2882 C2883 1.351 . S
C2883 C2877 1.428 . S
C2883 N2882 1.351 . S
C2883 C2884 1.434 1_556 S
C2884 C2875 1.429 . S
C2884 N2881 1.350 . S
C2884 C2883 1.434 1_554 S
C2885 C2886 1.369 . S
C2885 C2887 1.419 . S
C2885 H2889 0.930 . S
C2886 C2885 1.369 . S
C2886 C2895 1.429 . S
C2887 C2885 1.419 . S
C2887 C2888 1.363 . S
C2887 H2890 0.929 . S
C2888 C2887 1.363 . S
C2888 C2894 1.428 . S
H2889 C2885 0.930 . S
H2890 C2887 0.929 . S
S2891 N2892 1.613 . S
S2891 N2893 1.610 . S
N2892 S2891 1.613 . S
N2892 C2895 1.350 . S
N2893 S2891 1.610 . S
N2893 C2894 1.351 . S
C2894 C2888 1.428 . S
C2894 N2893 1.351 . S
C2894 C2895 1.434 . S
C2895 C2886 1.429 . S
C2895 N2892 1.350 . S
C2895 C2894 1.434 . S
C2896 C2897 1.369 . S
C2896 C2898 1.419 . S
C2896 H2900 0.930 . S
C2897 C2896 1.369 . S
C2897 C2906 1.429 . S
C2898 C2896 1.419 . S
C2898 C2899 1.363 . S
C2898 H2901 0.929 . S
C2899 C2898 1.363 . S
C2899 C2905 1.428 . S
H2900 C2896 0.930 . S
H2901 C2898 0.929 . S
S2902 N2903 1.613 . S
S2902 N2904 1.610 . S
N2903 S2902 1.613 . S
N2903 C2906 1.350 . S
N2904 S2902 1.610 . S
N2904 C2905 1.351 . S
C2905 C2899 1.428 . S
C2905 N2904 1.351 . S
C2905 C2906 1.434 . S
C2906 C2897 1.429 . S
C2906 N2903 1.350 . S
C2906 C2905 1.434 . S
C2907 C2908 1.369 . S
C2907 C2909 1.419 . S
C2907 H2911 0.930 . S
C2908 C2907 1.369 . S
C2908 C2917 1.429 . S
C2909 C2907 1.419 . S
C2909 C2910 1.363 . S
C2909 H2912 0.929 . S
C2910 C2909 1.363 . S
C2910 C2916 1.428 . S
H2911 C2907 0.930 . S
H2912 C2909 0.929 . S
S2913 N2914 1.613 . S
S2913 N2915 1.610 . S
N2914 S2913 1.613 . S
N2914 C2917 1.350 . S
N2915 S2913 1.610 . S
N2915 C2916 1.351 . S
C2916 C2910 1.428 . S
C2916 N2915 1.351 . S
C2916 C2917 1.434 . S
C2917 C2908 1.429 . S
C2917 N2914 1.350 . S
C2917 C2916 1.434 . S
C2918 C2919 1.369 . S
C2918 C2920 1.419 . S
C2918 H2922 0.930 . S
C2919 C2918 1.369 . S
C2919 C2928 1.429 . S
C2920 C2918 1.419 . S
C2920 C2921 1.363 . S
C2920 H2923 0.929 . S
C2921 C2920 1.363 . S
C2921 C2927 1.428 . S
H2922 C2918 0.930 . S
H2923 C2920 0.929 . S
S2924 N2925 1.613 . S
S2924 N2926 1.610 . S
N2925 S2924 1.613 . S
N2925 C2928 1.350 . S
N2926 S2924 1.610 . S
N2926 C2927 1.351 . S
C2927 C2921 1.428 . S
C2927 N2926 1.351 . S
C2927 C2928 1.434 . S
C2928 C2919 1.429 . S
C2928 N2925 1.350 . S
C2928 C2927 1.434 . S
C2929 C2930 1.369 . S
C2929 C2931 1.419 . S
C2929 H2933 0.930 . S
C2930 C2929 1.369 . S
C2930 C2939 1.429 . S
C2931 C2929 1.419 . S
C2931 C2932 1.363 . S
C2931 H2934 0.929 . S
C2932 C2931 1.363 . S
C2932 C2938 1.428 . S
H2933 C2929 0.930 . S
H2934 C2931 0.929 . S
S2935 N2936 1.613 . S
S2935 N2937 1.610 . S
N2936 S2935 1.613 . S
N2936 C2939 1.350 . S
N2937 S2935 1.610 . S
N2937 C2938 1.351 . S
C2938 C2932 1.428 . S
C2938 N2937 1.351 . S
C2938 C2939 1.434 . S
C2939 C2930 1.429 . S
C2939 N2936 1.350 . S
C2939 C2938 1.434 . S
C2940 C2941 1.369 . S
C2940 C2942 1.419 . S
C2940 H2944 0.930 . S
C2941 C2940 1.369 . S
C2941 C2950 1.429 . S
C2942 C2940 1.419 . S
C2942 C2943 1.363 . S
C2942 H2945 0.929 . S
C2943 C2942 1.363 . S
C2943 C2949 1.428 . S
H2944 C2940 0.930 . S
H2945 C2942 0.929 . S
S2946 N2947 1.613 . S
S2946 N2948 1.610 . S
N2947 S2946 1.613 . S
N2947 C2950 1.350 . S
N2948 S2946 1.610 . S
N2948 C2949 1.351 . S
C2949 C2943 1.428 . S
C2949 N2948 1.351 . S
C2949 C2950 1.434 . S
C2950 C2941 1.429 . S
C2950 N2947 1.350 . S
C2950 C2949 1.434 . S
C2951 C2952 1.369 . S
C2951 C2953 1.419 1_554 S
C2951 H2955 0.930 . S
C2952 C2951 1.369 . S
C2952 C2961 1.429 . S
C2953 C2951 1.419 1_556 S
C2953 C2954 1.363 . S
C2953 H2956 0.929 . S
C2954 C2953 1.363 . S
C2954 C2960 1.428 . S
H2955 C2951 0.930 . S
H2956 C2953 0.929 . S
S2957 N2958 1.613 . S
S2957 N2959 1.610 1_554 S
N2958 S2957 1.613 . S
N2958 C2961 1.350 . S
N2959 S2957 1.610 1_556 S
N2959 C2960 1.351 . S
C2960 C2954 1.428 . S
C2960 N2959 1.351 . S
C2960 C2961 1.434 1_556 S
C2961 C2952 1.429 . S
C2961 N2958 1.350 . S
C2961 C2960 1.434 1_554 S
C2962 C2963 1.359 1_655 S
C2962 C2964 1.442 . S
C2962 H2966 0.917 1_655 S
C2963 C2962 1.359 1_455 S
C2963 C2972 1.429 . S
C2964 C2962 1.442 . S
C2964 C2965 1.363 . S
C2964 H2967 0.929 . S
C2965 C2964 1.363 . S
C2965 C2971 1.428 . S
H2966 C2962 0.917 1_455 S
H2967 C2964 0.929 . S
S2968 N2969 1.613 1_655 S
S2968 N2970 1.610 . S
N2969 S2968 1.613 1_455 S
N2969 C2972 1.350 . S
N2970 S2968 1.610 . S
N2970 C2971 1.351 . S
C2971 C2965 1.428 . S
C2971 N2970 1.351 . S
C2971 C2972 1.434 1_655 S
C2972 C2963 1.429 . S
C2972 N2969 1.350 . S
C2972 C2971 1.434 1_455 S
C2973 C2974 1.369 . S
C2973 C2975 1.419 . S
C2973 H2977 0.930 . S
C2974 C2973 1.369 . S
C2974 C2983 1.429 . S
C2975 C2973 1.419 . S
C2975 C2976 1.363 . S
C2975 H2978 0.929 . S
C2976 C2975 1.363 . S
C2976 C2982 1.428 . S
H2977 C2973 0.930 . S
H2978 C2975 0.929 . S
S2979 N2980 1.613 . S
S2979 N2981 1.610 . S
N2980 S2979 1.613 . S
N2980 C2983 1.350 . S
N2981 S2979 1.610 . S
N2981 C2982 1.351 . S
C2982 C2976 1.428 . S
C2982 N2981 1.351 . S
C2982 C2983 1.434 . S
C2983 C2974 1.429 . S
C2983 N2980 1.350 . S
C2983 C2982 1.434 . S
C2984 C2985 1.369 . S
C2984 C2986 1.419 . S
C2984 H2988 0.930 . S
C2985 C2984 1.369 . S
C2985 C2994 1.429 . S
C2986 C2984 1.419 . S
C2986 C2987 1.363 . S
C2986 H2989 0.929 . S
C2987 C2986 1.363 . S
C2987 C2993 1.428 . S
H2988 C2984 0.930 . S
H2989 C2986 0.929 . S
S2990 N2991 1.613 . S
S2990 N2992 1.610 . S
N2991 S2990 1.613 . S
N2991 C2994 1.350 . S
N2992 S2990 1.610 . S
N2992 C2993 1.351 . S
C2993 C2987 1.428 . S
C2993 N2992 1.351 . S
C2993 C2994 1.434 . S
C2994 C2985 1.429 . S
C2994 N2991 1.350 . S
C2994 C2993 1.434 . S
C2995 C2996 1.369 . S
C2995 C2997 1.419 . S
C2995 H2999 0.930 . S
C2996 C2995 1.369 . S
C2996 C3005 1.429 . S
C2997 C2995 1.419 . S
C2997 C2998 1.363 . S
C2997 H3000 0.929 . S
C2998 C2997 1.363 . S
C2998 C3004 1.428 . S
H2999 C2995 0.930 . S
H3000 C2997 0.929 . S
S3001 N3002 1.613 . S
S3001 N3003 1.610 . S
N3002 S3001 1.613 . S
N3002 C3005 1.350 . S
N3003 S3001 1.610 . S
N3003 C3004 1.351 . S
C3004 C2998 1.428 . S
C3004 N3003 1.351 . S
C3004 C3005 1.434 . S
C3005 C2996 1.429 . S
C3005 N3002 1.350 . S
C3005 C3004 1.434 . S
C3006 C3007 1.369 . S
C3006 C3008 1.419 . S
C3006 H3010 0.930 . S
C3007 C3006 1.369 . S
C3007 C3016 1.429 . S
C3008 C3006 1.419 . S
C3008 C3009 1.363 . S
C3008 H3011 0.929 . S
C3009 C3008 1.363 . S
C3009 C3015 1.428 . S
H3010 C3006 0.930 . S
H3011 C3008 0.929 . S
S3012 N3013 1.613 . S
S3012 N3014 1.610 . S
N3013 S3012 1.613 . S
N3013 C3016 1.350 . S
N3014 S3012 1.610 . S
N3014 C3015 1.351 . S
C3015 C3009 1.428 . S
C3015 N3014 1.351 . S
C3015 C3016 1.434 . S
C3016 C3007 1.429 . S
C3016 N3013 1.350 . S
C3016 C3015 1.434 . S
C3017 C3018 1.369 . S
C3017 C3019 1.419 . S
C3017 H3021 0.930 . S
C3018 C3017 1.369 . S
C3018 C3027 1.429 . S
C3019 C3017 1.419 . S
C3019 C3020 1.363 . S
C3019 H3022 0.929 . S
C3020 C3019 1.363 . S
C3020 C3026 1.428 . S
H3021 C3017 0.930 . S
H3022 C3019 0.929 . S
S3023 N3024 1.613 . S
S3023 N3025 1.610 . S
N3024 S3023 1.613 . S
N3024 C3027 1.350 . S
N3025 S3023 1.610 . S
N3025 C3026 1.351 . S
C3026 C3020 1.428 . S
C3026 N3025 1.351 . S
C3026 C3027 1.434 . S
C3027 C3018 1.429 . S
C3027 N3024 1.350 . S
C3027 C3026 1.434 . S
C3028 C3029 1.369 . S
C3028 C3030 1.419 . S
C3028 H3032 0.930 . S
C3029 C3028 1.369 . S
C3029 C3038 1.429 . S
C3030 C3028 1.419 . S
C3030 C3031 1.363 . S
C3030 H3033 0.929 . S
C3031 C3030 1.363 . S
C3031 C3037 1.428 . S
H3032 C3028 0.930 . S
H3033 C3030 0.929 . S
S3034 N3035 1.613 . S
S3034 N3036 1.610 . S
N3035 S3034 1.613 . S
N3035 C3038 1.350 . S
N3036 S3034 1.610 . S
N3036 C3037 1.351 . S
C3037 C3031 1.428 . S
C3037 N3036 1.351 . S
C3037 C3038 1.434 . S
C3038 C3029 1.429 . S
C3038 N3035 1.350 . S
C3038 C3037 1.434 . S
C3039 C3040 1.369 1_655 S
C3039 C3041 1.419 . S
C3039 H3043 0.930 1_655 S
C3040 C3039 1.369 1_455 S
C3040 C3049 1.429 . S
C3041 C3039 1.419 . S
C3041 C3042 1.363 . S
C3041 H3044 0.929 . S
C3042 C3041 1.363 . S
C3042 C3048 1.428 . S
H3043 C3039 0.930 1_455 S
H3044 C3041 0.929 . S
S3045 N3046 1.613 1_655 S
S3045 N3047 1.610 . S
N3046 S3045 1.613 1_455 S
N3046 C3049 1.350 . S
N3047 S3045 1.610 . S
N3047 C3048 1.351 . S
C3048 C3042 1.428 . S
C3048 N3047 1.351 . S
C3048 C3049 1.434 1_655 S
C3049 C3040 1.429 . S
C3049 N3046 1.350 . S
C3049 C3048 1.434 1_455 S
C3050 C3051 1.369 . S
C3050 C3052 1.419 . S
C3050 H3054 0.930 . S
C3051 C3050 1.369 . S
C3051 C3060 1.429 . S
C3052 C3050 1.419 . S
C3052 C3053 1.363 . S
C3052 H3055 0.929 . S
C3053 C3052 1.363 . S
C3053 C3059 1.428 . S
H3054 C3050 0.930 . S
H3055 C3052 0.929 . S
S3056 N3057 1.613 . S
S3056 N3058 1.610 . S
N3057 S3056 1.613 . S
N3057 C3060 1.350 . S
N3058 S3056 1.610 . S
N3058 C3059 1.351 . S
C3059 C3053 1.428 . S
C3059 N3058 1.351 . S
C3059 C3060 1.434 . S
C3060 C3051 1.429 . S
C3060 N3057 1.350 . S
C3060 C3059 1.434 . S
C3061 C3062 1.369 . S
C3061 C3063 1.419 . S
C3061 H3065 0.930 . S
C3062 C3061 1.369 . S
C3062 C3071 1.429 . S
C3063 C3061 1.419 . S
C3063 C3064 1.363 . S
C3063 H3066 0.929 . S
C3064 C3063 1.363 . S
C3064 C3070 1.428 . S
H3065 C3061 0.930 . S
H3066 C3063 0.929 . S
S3067 N3068 1.613 . S
S3067 N3069 1.610 . S
N3068 S3067 1.613 . S
N3068 C3071 1.350 . S
N3069 S3067 1.610 . S
N3069 C3070 1.351 . S
C3070 C3064 1.428 . S
C3070 N3069 1.351 . S
C3070 C3071 1.434 . S
C3071 C3062 1.429 . S
C3071 N3068 1.350 . S
C3071 C3070 1.434 . S
C3072 C3073 1.369 . S
C3072 C3074 1.419 . S
C3072 H3076 0.930 . S
C3073 C3072 1.369 . S
C3073 C3082 1.429 . S
C3074 C3072 1.419 . S
C3074 C3075 1.363 . S
C3074 H3077 0.929 . S
C3075 C3074 1.363 . S
C3075 C3081 1.428 . S
H3076 C3072 0.930 . S
H3077 C3074 0.929 . S
S3078 N3079 1.613 . S
S3078 N3080 1.610 . S
N3079 S3078 1.613 . S
N3079 C3082 1.350 . S
N3080 S3078 1.610 . S
N3080 C3081 1.351 . S
C3081 C3075 1.428 . S
C3081 N3080 1.351 . S
C3081 C3082 1.434 . S
C3082 C3073 1.429 . S
C3082 N3079 1.350 . S
C3082 C3081 1.434 . S
C3083 C3084 1.369 . S
C3083 C3085 1.419 . S
C3083 H3087 0.930 . S
C3084 C3083 1.369 . S
C3084 C3093 1.429 . S
C3085 C3083 1.419 . S
C3085 C3086 1.363 . S
C3085 H3088 0.929 . S
C3086 C3085 1.363 . S
C3086 C3092 1.428 . S
H3087 C3083 0.930 . S
H3088 C3085 0.929 . S
S3089 N3090 1.613 . S
S3089 N3091 1.610 . S
N3090 S3089 1.613 . S
N3090 C3093 1.350 . S
N3091 S3089 1.610 . S
N3091 C3092 1.351 . S
C3092 C3086 1.428 . S
C3092 N3091 1.351 . S
C3092 C3093 1.434 . S
C3093 C3084 1.429 . S
C3093 N3090 1.350 . S
C3093 C3092 1.434 . S
C3094 C3095 1.369 . S
C3094 C3096 1.419 . S
C3094 H3098 0.930 . S
C3095 C3094 1.369 . S
C3095 C3104 1.429 . S
C3096 C3094 1.419 . S
C3096 C3097 1.363 . S
C3096 H3099 0.929 . S
C3097 C3096 1.363 . S
C3097 C3103 1.428 . S
H3098 C3094 0.930 . S
H3099 C3096 0.929 . S
S3100 N3101 1.613 . S
S3100 N3102 1.610 . S
N3101 S3100 1.613 . S
N3101 C3104 1.350 . S
N3102 S3100 1.610 . S
N3102 C3103 1.351 . S
C3103 C3097 1.428 . S
C3103 N3102 1.351 . S
C3103 C3104 1.434 . S
C3104 C3095 1.429 . S
C3104 N3101 1.350 . S
C3104 C3103 1.434 . S
C3105 C3106 1.369 . S
C3105 C3107 1.419 . S
C3105 H3109 0.930 . S
C3106 C3105 1.369 . S
C3106 C3115 1.429 . S
C3107 C3105 1.419 . S
C3107 C3108 1.363 . S
C3107 H3110 0.929 . S
C3108 C3107 1.363 . S
C3108 C3114 1.428 . S
H3109 C3105 0.930 . S
H3110 C3107 0.929 . S
S3111 N3112 1.613 . S
S3111 N3113 1.610 . S
N3112 S3111 1.613 . S
N3112 C3115 1.350 . S
N3113 S3111 1.610 . S
N3113 C3114 1.351 . S
C3114 C3108 1.428 . S
C3114 N3113 1.351 . S
C3114 C3115 1.434 . S
C3115 C3106 1.429 . S
C3115 N3112 1.350 . S
C3115 C3114 1.434 . S
C3116 C3117 1.369 . S
C3116 C3118 1.419 1_554 S
C3116 H3120 0.930 . S
C3117 C3116 1.369 . S
C3117 C3126 1.429 . S
C3118 C3116 1.419 1_556 S
C3118 C3119 1.363 . S
C3118 H3121 0.929 . S
C3119 C3118 1.363 . S
C3119 C3125 1.428 . S
H3120 C3116 0.930 . S
H3121 C3118 0.929 . S
S3122 N3123 1.613 . S
S3122 N3124 1.610 1_554 S
N3123 S3122 1.613 . S
N3123 C3126 1.350 . S
N3124 S3122 1.610 1_556 S
N3124 C3125 1.351 . S
C3125 C3119 1.428 . S
C3125 N3124 1.351 . S
C3125 C3126 1.434 1_556 S
C3126 C3117 1.429 . S
C3126 N3123 1.350 . S
C3126 C3125 1.434 1_554 S
C3127 C3128 1.369 . S
C3127 C3129 1.419 . S
C3127 H3131 0.930 . S
C3128 C3127 1.369 . S
C3128 C3137 1.429 . S
C3129 C3127 1.419 . S
C3129 C3130 1.363 . S
C3129 H3132 0.929 . S
C3130 C3129 1.363 . S
C3130 C3136 1.428 . S
H3131 C3127 0.930 . S
H3132 C3129 0.929 . S
S3133 N3134 1.613 . S
S3133 N3135 1.610 . S
N3134 S3133 1.613 . S
N3134 C3137 1.350 . S
N3135 S3133 1.610 . S
N3135 C3136 1.351 . S
C3136 C3130 1.428 . S
C3136 N3135 1.351 . S
C3136 C3137 1.434 . S
C3137 C3128 1.429 . S
C3137 N3134 1.350 . S
C3137 C3136 1.434 . S
C3138 C3139 1.369 . S
C3138 C3140 1.419 . S
C3138 H3142 0.930 . S
C3139 C3138 1.369 . S
C3139 C3148 1.429 . S
C3140 C3138 1.419 . S
C3140 C3141 1.363 . S
C3140 H3143 0.929 . S
C3141 C3140 1.363 . S
C3141 C3147 1.428 . S
H3142 C3138 0.930 . S
H3143 C3140 0.929 . S
S3144 N3145 1.613 . S
S3144 N3146 1.610 . S
N3145 S3144 1.613 . S
N3145 C3148 1.350 . S
N3146 S3144 1.610 . S
N3146 C3147 1.351 . S
C3147 C3141 1.428 . S
C3147 N3146 1.351 . S
C3147 C3148 1.434 . S
C3148 C3139 1.429 . S
C3148 N3145 1.350 . S
C3148 C3147 1.434 . S
C3149 C3150 1.369 . S
C3149 C3151 1.419 1_556 S
C3149 H3153 0.930 . S
C3150 C3149 1.369 . S
C3150 C3159 1.429 . S
C3151 C3149 1.419 1_554 S
C3151 C3152 1.363 . S
C3151 H3154 0.929 . S
C3152 C3151 1.363 . S
C3152 C3158 1.428 . S
H3153 C3149 0.930 . S
H3154 C3151 0.929 . S
S3155 N3156 1.613 1_554 S
S3155 N3157 1.610 . S
N3156 S3155 1.613 1_556 S
N3156 C3159 1.350 . S
N3157 S3155 1.610 . S
N3157 C3158 1.351 . S
C3158 C3152 1.428 . S
C3158 N3157 1.351 . S
C3158 C3159 1.434 1_554 S
C3159 C3150 1.429 . S
C3159 N3156 1.350 . S
C3159 C3158 1.434 1_556 S
C3160 C3161 1.369 . S
C3160 C3162 1.419 . S
C3160 H3164 0.930 . S
C3161 C3160 1.369 . S
C3161 C3170 1.429 . S
C3162 C3160 1.419 . S
C3162 C3163 1.363 . S
C3162 H3165 0.929 . S
C3163 C3162 1.363 . S
C3163 C3169 1.428 . S
H3164 C3160 0.930 . S
H3165 C3162 0.929 . S
S3166 N3167 1.613 . S
S3166 N3168 1.610 . S
N3167 S3166 1.613 . S
N3167 C3170 1.350 . S
N3168 S3166 1.610 . S
N3168 C3169 1.351 . S
C3169 C3163 1.428 . S
C3169 N3168 1.351 . S
C3169 C3170 1.434 . S
C3170 C3161 1.429 . S
C3170 N3167 1.350 . S
C3170 C3169 1.434 . S
C3171 C3172 1.369 . S
C3171 C3173 1.419 . S
C3171 H3175 0.930 . S
C3172 C3171 1.369 . S
C3172 C3181 1.429 . S
C3173 C3171 1.419 . S
C3173 C3174 1.363 . S
C3173 H3176 0.929 . S
C3174 C3173 1.363 . S
C3174 C3180 1.428 . S
H3175 C3171 0.930 . S
H3176 C3173 0.929 . S
S3177 N3178 1.613 . S
S3177 N3179 1.610 . S
N3178 S3177 1.613 . S
N3178 C3181 1.350 . S
N3179 S3177 1.610 . S
N3179 C3180 1.351 . S
C3180 C3174 1.428 . S
C3180 N3179 1.351 . S
C3180 C3181 1.434 . S
C3181 C3172 1.429 . S
C3181 N3178 1.350 . S
C3181 C3180 1.434 . S
C3182 C3183 1.369 . S
C3182 C3184 1.419 . S
C3182 H3186 0.930 . S
C3183 C3182 1.369 . S
C3183 C3192 1.429 . S
C3184 C3182 1.419 . S
C3184 C3185 1.363 . S
C3184 H3187 0.929 . S
C3185 C3184 1.363 . S
C3185 C3191 1.428 . S
H3186 C3182 0.930 . S
H3187 C3184 0.929 . S
S3188 N3189 1.613 . S
S3188 N3190 1.610 . S
N3189 S3188 1.613 . S
N3189 C3192 1.350 . S
N3190 S3188 1.610 . S
N3190 C3191 1.351 . S
C3191 C3185 1.428 . S
C3191 N3190 1.351 . S
C3191 C3192 1.434 . S
C3192 C3183 1.429 . S
C3192 N3189 1.350 . S
C3192 C3191 1.434 . S
C3193 C3194 1.369 . S
C3193 C3195 1.419 . S
C3193 H3197 0.930 . S
C3194 C3193 1.369 . S
C3194 C3203 1.429 . S
C3195 C3193 1.419 . S
C3195 C3196 1.363 . S
C3195 H3198 0.929 . S
C3196 C3195 1.363 . S
C3196 C3202 1.428 . S
H3197 C3193 0.930 . S
H3198 C3195 0.929 . S
S3199 N3200 1.613 . S
S3199 N3201 1.610 . S
N3200 S3199 1.613 . S
N3200 C3203 1.350 . S
N3201 S3199 1.610 . S
N3201 C3202 1.351 . S
C3202 C3196 1.428 . S
C3202 N3201 1.351 . S
C3202 C3203 1.434 . S
C3203 C3194 1.429 . S
C3203 N3200 1.350 . S
C3203 C3202 1.434 . S
C3204 C3205 1.369 . S
C3204 C3206 1.419 . S
C3204 H3208 0.930 . S
C3205 C3204 1.369 . S
C3205 C3214 1.429 . S
C3206 C3204 1.419 . S
C3206 C3207 1.363 1_565 S
C3206 H3209 0.929 . S
C3207 C3206 1.363 1_545 S
C3207 C3213 1.428 . S
H3208 C3204 0.930 . S
H3209 C3206 0.929 . S
S3210 N3211 1.613 1_545 S
S3210 N3212 1.610 . S
N3211 S3210 1.613 1_565 S
N3211 C3214 1.350 . S
N3212 S3210 1.610 . S
N3212 C3213 1.351 . S
C3213 C3207 1.428 . S
C3213 N3212 1.351 . S
C3213 C3214 1.434 1_545 S
C3214 C3205 1.429 . S
C3214 N3211 1.350 . S
C3214 C3213 1.434 1_565 S
C3215 C3216 1.369 . S
C3215 C3217 1.419 . S
C3215 H3219 0.930 . S
C3216 C3215 1.369 . S
C3216 C3225 1.429 . S
C3217 C3215 1.419 . S
C3217 C3218 1.363 . S
C3217 H3220 0.929 . S
C3218 C3217 1.363 . S
C3218 C3224 1.428 . S
H3219 C3215 0.930 . S
H3220 C3217 0.929 . S
S3221 N3222 1.613 . S
S3221 N3223 1.610 . S
N3222 S3221 1.613 . S
N3222 C3225 1.350 . S
N3223 S3221 1.610 . S
N3223 C3224 1.351 . S
C3224 C3218 1.428 . S
C3224 N3223 1.351 . S
C3224 C3225 1.434 . S
C3225 C3216 1.429 . S
C3225 N3222 1.350 . S
C3225 C3224 1.434 . S
C3226 C3227 1.369 . S
C3226 C3228 1.419 . S
C3226 H3230 0.930 . S
C3227 C3226 1.369 . S
C3227 C3236 1.429 . S
C3228 C3226 1.419 . S
C3228 C3229 1.363 . S
C3228 H3231 0.929 . S
C3229 C3228 1.363 . S
C3229 C3235 1.428 . S
H3230 C3226 0.930 . S
H3231 C3228 0.929 . S
S3232 N3233 1.613 . S
S3232 N3234 1.610 . S
N3233 S3232 1.613 . S
N3233 C3236 1.350 . S
N3234 S3232 1.610 . S
N3234 C3235 1.351 . S
C3235 C3229 1.428 . S
C3235 N3234 1.351 . S
C3235 C3236 1.434 . S
C3236 C3227 1.429 . S
C3236 N3233 1.350 . S
C3236 C3235 1.434 . S
C3237 C3238 1.369 . S
C3237 C3239 1.419 1_455 S
C3237 H3241 0.930 . S
C3238 C3237 1.369 . S
C3238 C3247 1.429 . S
C3239 C3237 1.419 1_655 S
C3239 C3240 1.363 . S
C3239 H3242 0.929 . S
C3240 C3239 1.363 . S
C3240 C3246 1.428 1_655 S
H3241 C3237 0.930 . S
H3242 C3239 0.929 . S
S3243 N3244 1.613 . S
S3243 N3245 1.610 . S
N3244 S3243 1.613 . S
N3244 C3247 1.350 . S
N3245 S3243 1.610 . S
N3245 C3246 1.351 . S
C3246 C3240 1.428 1_455 S
C3246 N3245 1.351 . S
C3246 C3247 1.434 . S
C3247 C3238 1.429 . S
C3247 N3244 1.350 . S
C3247 C3246 1.434 . S
C3248 C3249 1.369 . S
C3248 C3250 1.419 . S
C3248 H3252 0.930 . S
C3249 C3248 1.369 . S
C3249 C3258 1.429 . S
C3250 C3248 1.419 . S
C3250 C3251 1.363 . S
C3250 H3253 0.929 . S
C3251 C3250 1.363 . S
C3251 C3257 1.428 . S
H3252 C3248 0.930 . S
H3253 C3250 0.929 . S
S3254 N3255 1.613 . S
S3254 N3256 1.610 . S
N3255 S3254 1.613 . S
N3255 C3258 1.350 . S
N3256 S3254 1.610 . S
N3256 C3257 1.351 . S
C3257 C3251 1.428 . S
C3257 N3256 1.351 . S
C3257 C3258 1.434 . S
C3258 C3249 1.429 . S
C3258 N3255 1.350 . S
C3258 C3257 1.434 . S
C3259 C3260 1.369 . S
C3259 C3261 1.419 . S
C3259 H3263 0.930 . S
C3260 C3259 1.369 . S
C3260 C3269 1.429 . S
C3261 C3259 1.419 . S
C3261 C3262 1.363 . S
C3261 H3264 0.929 . S
C3262 C3261 1.363 . S
C3262 C3268 1.428 . S
H3263 C3259 0.930 . S
H3264 C3261 0.929 . S
S3265 N3266 1.613 . S
S3265 N3267 1.610 . S
N3266 S3265 1.613 . S
N3266 C3269 1.350 . S
N3267 S3265 1.610 . S
N3267 C3268 1.351 . S
C3268 C3262 1.428 . S
C3268 N3267 1.351 . S
C3268 C3269 1.434 . S
C3269 C3260 1.429 . S
C3269 N3266 1.350 . S
C3269 C3268 1.434 . S
C3270 C3271 1.369 . S
C3270 C3272 1.419 . S
C3270 H3274 0.930 . S
C3271 C3270 1.369 . S
C3271 C3280 1.429 . S
C3272 C3270 1.419 . S
C3272 C3273 1.363 . S
C3272 H3275 0.929 . S
C3273 C3272 1.363 . S
C3273 C3279 1.428 . S
H3274 C3270 0.930 . S
H3275 C3272 0.929 . S
S3276 N3277 1.613 . S
S3276 N3278 1.610 . S
N3277 S3276 1.613 . S
N3277 C3280 1.350 . S
N3278 S3276 1.610 . S
N3278 C3279 1.351 . S
C3279 C3273 1.428 . S
C3279 N3278 1.351 . S
C3279 C3280 1.434 . S
C3280 C3271 1.429 . S
C3280 N3277 1.350 . S
C3280 C3279 1.434 . S
C3281 C3282 1.369 . S
C3281 C3283 1.419 . S
C3281 H3285 0.930 . S
C3282 C3281 1.369 . S
C3282 C3291 1.429 . S
C3283 C3281 1.419 . S
C3283 C3284 1.363 . S
C3283 H3286 0.929 . S
C3284 C3283 1.363 . S
C3284 C3290 1.428 . S
H3285 C3281 0.930 . S
H3286 C3283 0.929 . S
S3287 N3288 1.613 . S
S3287 N3289 1.610 . S
N3288 S3287 1.613 . S
N3288 C3291 1.350 . S
N3289 S3287 1.610 . S
N3289 C3290 1.351 . S
C3290 C3284 1.428 . S
C3290 N3289 1.351 . S
C3290 C3291 1.434 . S
C3291 C3282 1.429 . S
C3291 N3288 1.350 . S
C3291 C3290 1.434 . S
C3292 C3293 1.369 . S
C3292 C3294 1.419 . S
C3292 H3296 0.930 . S
C3293 C3292 1.369 . S
C3293 C3302 1.429 . S
C3294 C3292 1.419 . S
C3294 C3295 1.363 . S
C3294 H3297 0.929 . S
C3295 C3294 1.363 . S
C3295 C3301 1.428 . S
H3296 C3292 0.930 . S
H3297 C3294 0.929 . S
S3298 N3299 1.613 . S
S3298 N3300 1.610 . S
N3299 S3298 1.613 . S
N3299 C3302 1.350 . S
N3300 S3298 1.610 . S
N3300 C3301 1.351 . S
C3301 C3295 1.428 . S
C3301 N3300 1.351 . S
C3301 C3302 1.434 . S
C3302 C3293 1.429 . S
C3302 N3299 1.350 . S
C3302 C3301 1.434 . S
C3303 C3304 1.369 . S
C3303 C3305 1.419 . S
C3303 H3307 0.930 . S
C3304 C3303 1.369 . S
C3304 C3313 1.429 . S
C3305 C3303 1.419 . S
C3305 C3306 1.363 . S
C3305 H3308 0.929 . S
C3306 C3305 1.363 . S
C3306 C3312 1.428 . S
H3307 C3303 0.930 . S
H3308 C3305 0.929 . S
S3309 N3310 1.613 . S
S3309 N3311 1.610 . S
N3310 S3309 1.613 . S
N3310 C3313 1.350 . S
N3311 S3309 1.610 . S
N3311 C3312 1.351 . S
C3312 C3306 1.428 . S
C3312 N3311 1.351 . S
C3312 C3313 1.434 . S
C3313 C3304 1.429 . S
C3313 N3310 1.350 . S
C3313 C3312 1.434 . S
C3314 C3315 1.369 . S
C3314 C3316 1.419 1_554 S
C3314 H3318 0.930 . S
C3315 C3314 1.369 . S
C3315 C3324 1.429 . S
C3316 C3314 1.419 1_556 S
C3316 C3317 1.363 . S
C3316 H3319 0.929 . S
C3317 C3316 1.363 . S
C3317 C3323 1.428 . S
H3318 C3314 0.930 . S
H3319 C3316 0.929 . S
S3320 N3321 1.613 1_556 S
S3320 N3322 1.610 . S
N3321 S3320 1.613 1_554 S
N3321 C3324 1.350 . S
N3322 S3320 1.610 . S
N3322 C3323 1.351 . S
C3323 C3317 1.428 . S
C3323 N3322 1.351 . S
C3323 C3324 1.434 1_556 S
C3324 C3315 1.429 . S
C3324 N3321 1.350 . S
C3324 C3323 1.434 1_554 S
C3325 C3326 1.369 . S
C3325 C3327 1.419 . S
C3325 H3329 0.930 . S
C3326 C3325 1.369 . S
C3326 C3335 1.429 . S
C3327 C3325 1.419 . S
C3327 C3328 1.363 . S
C3327 H3330 0.929 . S
C3328 C3327 1.363 . S
C3328 C3334 1.428 . S
H3329 C3325 0.930 . S
H3330 C3327 0.929 . S
S3331 N3332 1.613 . S
S3331 N3333 1.610 . S
N3332 S3331 1.613 . S
N3332 C3335 1.350 . S
N3333 S3331 1.610 . S
N3333 C3334 1.351 . S
C3334 C3328 1.428 . S
C3334 N3333 1.351 . S
C3334 C3335 1.434 . S
C3335 C3326 1.429 . S
C3335 N3332 1.350 . S
C3335 C3334 1.434 . S
C3336 C3337 1.369 . S
C3336 C3338 1.419 . S
C3336 H3340 0.930 . S
C3337 C3336 1.369 . S
C3337 C3346 1.429 . S
C3338 C3336 1.419 . S
C3338 C3339 1.363 . S
C3338 H3341 0.929 . S
C3339 C3338 1.363 . S
C3339 C3345 1.428 . S
H3340 C3336 0.930 . S
H3341 C3338 0.929 . S
S3342 N3343 1.613 . S
S3342 N3344 1.610 . S
N3343 S3342 1.613 . S
N3343 C3346 1.350 . S
N3344 S3342 1.610 . S
N3344 C3345 1.351 . S
C3345 C3339 1.428 . S
C3345 N3344 1.351 . S
C3345 C3346 1.434 . S
C3346 C3337 1.429 . S
C3346 N3343 1.350 . S
C3346 C3345 1.434 . S
C3347 C3348 1.369 . S
C3347 C3349 1.419 1_554 S
C3347 H3351 0.930 . S
C3348 C3347 1.369 . S
C3348 C3357 1.429 . S
C3349 C3347 1.419 1_556 S
C3349 C3350 1.363 . S
C3349 H3352 0.929 . S
C3350 C3349 1.363 . S
C3350 C3356 1.428 . S
H3351 C3347 0.930 . S
H3352 C3349 0.929 . S
S3353 N3354 1.613 1_556 S
S3353 N3355 1.610 . S
N3354 S3353 1.613 1_554 S
N3354 C3357 1.350 . S
N3355 S3353 1.610 . S
N3355 C3356 1.351 . S
C3356 C3350 1.428 . S
C3356 N3355 1.351 . S
C3356 C3357 1.434 1_556 S
C3357 C3348 1.429 . S
C3357 N3354 1.350 . S
C3357 C3356 1.434 1_554 S
C3358 C3359 1.369 . S
C3358 C3360 1.419 . S
C3358 H3362 0.930 . S
C3359 C3358 1.369 . S
C3359 C3368 1.429 . S
C3360 C3358 1.419 . S
C3360 C3361 1.363 . S
C3360 H3363 0.929 . S
C3361 C3360 1.363 . S
C3361 C3367 1.428 . S
H3362 C3358 0.930 . S
H3363 C3360 0.929 . S
S3364 N3365 1.613 . S
S3364 N3366 1.610 . S
N3365 S3364 1.613 . S
N3365 C3368 1.350 . S
N3366 S3364 1.610 . S
N3366 C3367 1.351 . S
C3367 C3361 1.428 . S
C3367 N3366 1.351 . S
C3367 C3368 1.434 . S
C3368 C3359 1.429 . S
C3368 N3365 1.350 . S
C3368 C3367 1.434 . S
C3369 C3370 1.369 . S
C3369 C3371 1.419 . S
C3369 H3373 0.930 . S
C3370 C3369 1.369 . S
C3370 C3379 1.429 . S
C3371 C3369 1.419 . S
C3371 C3372 1.363 . S
C3371 H3374 0.929 . S
C3372 C3371 1.363 . S
C3372 C3378 1.428 . S
H3373 C3369 0.930 . S
H3374 C3371 0.929 . S
S3375 N3376 1.613 . S
S3375 N3377 1.610 . S
N3376 S3375 1.613 . S
N3376 C3379 1.350 . S
N3377 S3375 1.610 . S
N3377 C3378 1.351 . S
C3378 C3372 1.428 . S
C3378 N3377 1.351 . S
C3378 C3379 1.434 . S
C3379 C3370 1.429 . S
C3379 N3376 1.350 . S
C3379 C3378 1.434 . S
C3380 C3381 1.369 . S
C3380 C3382 1.419 . S
C3380 H3384 0.930 . S
C3381 C3380 1.369 . S
C3381 C3390 1.429 . S
C3382 C3380 1.419 . S
C3382 C3383 1.363 . S
C3382 H3385 0.929 . S
C3383 C3382 1.363 . S
C3383 C3389 1.428 . S
H3384 C3380 0.930 . S
H3385 C3382 0.929 . S
S3386 N3387 1.613 . S
S3386 N3388 1.610 . S
N3387 S3386 1.613 . S
N3387 C3390 1.350 . S
N3388 S3386 1.610 . S
N3388 C3389 1.351 . S
C3389 C3383 1.428 . S
C3389 N3388 1.351 . S
C3389 C3390 1.434 . S
C3390 C3381 1.429 . S
C3390 N3387 1.350 . S
C3390 C3389 1.434 . S
C3391 C3392 1.369 . S
C3391 C3393 1.419 . S
C3391 H3395 0.930 . S
C3392 C3391 1.369 . S
C3392 C3401 1.429 . S
C3393 C3391 1.419 . S
C3393 C3394 1.363 . S
C3393 H3396 0.929 . S
C3394 C3393 1.363 . S
C3394 C3400 1.428 . S
H3395 C3391 0.930 . S
H3396 C3393 0.929 . S
S3397 N3398 1.613 . S
S3397 N3399 1.610 . S
N3398 S3397 1.613 . S
N3398 C3401 1.350 . S
N3399 S3397 1.610 . S
N3399 C3400 1.351 . S
C3400 C3394 1.428 . S
C3400 N3399 1.351 . S
C3400 C3401 1.434 . S
C3401 C3392 1.429 . S
C3401 N3398 1.350 . S
C3401 C3400 1.434 . S
C3402 C3403 1.369 . S
C3402 C3404 1.419 1_565 S
C3402 H3406 0.930 . S
C3403 C3402 1.369 . S
C3403 C3412 1.429 . S
C3404 C3402 1.419 1_545 S
C3404 C3405 1.363 . S
C3404 H3407 0.929 . S
C3405 C3404 1.363 . S
C3405 C3411 1.428 . S
H3406 C3402 0.930 . S
H3407 C3404 0.929 . S
S3408 N3409 1.613 1_545 S
S3408 N3410 1.610 . S
N3409 S3408 1.613 1_565 S
N3409 C3412 1.350 . S
N3410 S3408 1.610 . S
N3410 C3411 1.351 . S
C3411 C3405 1.428 . S
C3411 N3410 1.351 . S
C3411 C3412 1.434 1_545 S
C3412 C3403 1.429 . S
C3412 N3409 1.350 . S
C3412 C3411 1.434 1_565 S
C3413 C3414 1.369 . S
C3413 C3415 1.419 . S
C3413 H3417 0.930 . S
C3414 C3413 1.369 . S
C3414 C3423 1.429 . S
C3415 C3413 1.419 . S
C3415 C3416 1.363 . S
C3415 H3418 0.929 . S
C3416 C3415 1.363 . S
C3416 C3422 1.428 . S
H3417 C3413 0.930 . S
H3418 C3415 0.929 . S
S3419 N3420 1.613 . S
S3419 N3421 1.610 . S
N3420 S3419 1.613 . S
N3420 C3423 1.350 . S
N3421 S3419 1.610 . S
N3421 C3422 1.351 . S
C3422 C3416 1.428 . S
C3422 N3421 1.351 . S
C3422 C3423 1.434 . S
C3423 C3414 1.429 . S
C3423 N3420 1.350 . S
C3423 C3422 1.434 . S
C3424 C3425 1.369 . S
C3424 C3426 1.419 . S
C3424 H3428 0.930 . S
C3425 C3424 1.369 . S
C3425 C3434 1.429 . S
C3426 C3424 1.419 . S
C3426 C3427 1.363 . S
C3426 H3429 0.929 . S
C3427 C3426 1.363 . S
C3427 C3433 1.428 . S
H3428 C3424 0.930 . S
H3429 C3426 0.929 . S
S3430 N3431 1.613 . S
S3430 N3432 1.610 . S
N3431 S3430 1.613 . S
N3431 C3434 1.350 . S
N3432 S3430 1.610 . S
N3432 C3433 1.351 . S
C3433 C3427 1.428 . S
C3433 N3432 1.351 . S
C3433 C3434 1.434 . S
C3434 C3425 1.429 . S
C3434 N3431 1.350 . S
C3434 C3433 1.434 . S
C3435 C3436 1.369 . S
C3435 C3437 1.419 . S
C3435 H3439 0.930 . S
C3436 C3435 1.369 . S
C3436 C3445 1.429 . S
C3437 C3435 1.419 . S
C3437 C3438 1.363 . S
C3437 H3440 0.929 . S
C3438 C3437 1.363 . S
C3438 C3444 1.428 . S
H3439 C3435 0.930 . S
H3440 C3437 0.929 . S
S3441 N3442 1.613 . S
S3441 N3443 1.610 . S
N3442 S3441 1.613 . S
N3442 C3445 1.350 . S
N3443 S3441 1.610 . S
N3443 C3444 1.351 . S
C3444 C3438 1.428 . S
C3444 N3443 1.351 . S
C3444 C3445 1.434 . S
C3445 C3436 1.429 . S
C3445 N3442 1.350 . S
C3445 C3444 1.434 . S
C3446 C3447 1.369 . S
C3446 C3448 1.419 1_545 S
C3446 H3450 0.930 . S
C3447 C3446 1.369 . S
C3447 C3456 1.429 . S
C3448 C3446 1.419 1_565 S
C3448 C3449 1.363 . S
C3448 H3451 0.929 . S
C3449 C3448 1.363 . S
C3449 C3455 1.428 . S
H3450 C3446 0.930 . S
H3451 C3448 0.929 . S
S3452 N3453 1.613 1_565 S
S3452 N3454 1.610 . S
N3453 S3452 1.613 1_545 S
N3453 C3456 1.350 . S
N3454 S3452 1.610 . S
N3454 C3455 1.351 . S
C3455 C3449 1.428 . S
C3455 N3454 1.351 . S
C3455 C3456 1.434 1_565 S
C3456 C3447 1.429 . S
C3456 N3453 1.350 . S
C3456 C3455 1.434 1_545 S
C3457 C3458 1.369 . S
C3457 C3459 1.419 . S
C3457 H3461 0.930 . S
C3458 C3457 1.369 . S
C3458 C3467 1.429 . S
C3459 C3457 1.419 . S
C3459 C3460 1.363 . S
C3459 H3462 0.929 . S
C3460 C3459 1.363 . S
C3460 C3466 1.428 . S
H3461 C3457 0.930 . S
H3462 C3459 0.929 . S
S3463 N3464 1.613 . S
S3463 N3465 1.610 . S
N3464 S3463 1.613 . S
N3464 C3467 1.350 . S
N3465 S3463 1.610 . S
N3465 C3466 1.351 . S
C3466 C3460 1.428 . S
C3466 N3465 1.351 . S
C3466 C3467 1.434 . S
C3467 C3458 1.429 . S
C3467 N3464 1.350 . S
C3467 C3466 1.434 . S
C3468 C3469 1.369 . S
C3468 C3470 1.419 . S
C3468 H3472 0.930 . S
C3469 C3468 1.369 . S
C3469 C3478 1.429 . S
C3470 C3468 1.419 . S
C3470 C3471 1.363 . S
C3470 H3473 0.929 . S
C3471 C3470 1.363 . S
C3471 C3477 1.428 . S
H3472 C3468 0.930 . S
H3473 C3470 0.929 . S
S3474 N3475 1.613 . S
S3474 N3476 1.610 . S
N3475 S3474 1.613 . S
N3475 C3478 1.350 . S
N3476 S3474 1.610 . S
N3476 C3477 1.351 . S
C3477 C3471 1.428 . S
C3477 N3476 1.351 . S
C3477 C3478 1.434 . S
C3478 C3469 1.429 . S
C3478 N3475 1.350 . S
C3478 C3477 1.434 . S
C3479 C3480 1.369 . S
C3479 C3481 1.419 . S
C3479 H3483 0.930 . S
C3480 C3479 1.369 . S
C3480 C3489 1.429 . S
C3481 C3479 1.419 . S
C3481 C3482 1.363 . S
C3481 H3484 0.929 . S
C3482 C3481 1.363 . S
C3482 C3488 1.428 . S
H3483 C3479 0.930 . S
H3484 C3481 0.929 . S
S3485 N3486 1.613 . S
S3485 N3487 1.610 . S
N3486 S3485 1.613 . S
N3486 C3489 1.350 . S
N3487 S3485 1.610 . S
N3487 C3488 1.351 . S
C3488 C3482 1.428 . S
C3488 N3487 1.351 . S
C3488 C3489 1.434 . S
C3489 C3480 1.429 . S
C3489 N3486 1.350 . S
C3489 C3488 1.434 . S
C3490 C3491 1.369 . S
C3490 C3492 1.419 . S
C3490 H3494 0.930 . S
C3491 C3490 1.369 . S
C3491 C3500 1.429 . S
C3492 C3490 1.419 . S
C3492 C3493 1.363 . S
C3492 H3495 0.929 . S
C3493 C3492 1.363 . S
C3493 C3499 1.428 . S
H3494 C3490 0.930 . S
H3495 C3492 0.929 . S
S3496 N3497 1.613 . S
S3496 N3498 1.610 . S
N3497 S3496 1.613 . S
N3497 C3500 1.350 . S
N3498 S3496 1.610 . S
N3498 C3499 1.351 . S
C3499 C3493 1.428 . S
C3499 N3498 1.351 . S
C3499 C3500 1.434 . S
C3500 C3491 1.429 . S
C3500 N3497 1.350 . S
C3500 C3499 1.434 . S
C3501 C3502 1.369 . S
C3501 C3503 1.419 . S
C3501 H3505 0.930 . S
C3502 C3501 1.369 . S
C3502 C3511 1.429 . S
C3503 C3501 1.419 . S
C3503 C3504 1.363 . S
C3503 H3506 0.929 . S
C3504 C3503 1.363 . S
C3504 C3510 1.428 . S
H3505 C3501 0.930 . S
H3506 C3503 0.929 . S
S3507 N3508 1.613 . S
S3507 N3509 1.610 . S
N3508 S3507 1.613 . S
N3508 C3511 1.350 . S
N3509 S3507 1.610 . S
N3509 C3510 1.351 . S
C3510 C3504 1.428 . S
C3510 N3509 1.351 . S
C3510 C3511 1.434 . S
C3511 C3502 1.429 . S
C3511 N3508 1.350 . S
C3511 C3510 1.434 . S
C3512 C3513 1.369 . S
C3512 C3514 1.419 1_565 S
C3512 H3516 0.930 . S
C3513 C3512 1.369 . S
C3513 C3522 1.429 . S
C3514 C3512 1.419 1_545 S
C3514 C3515 1.363 . S
C3514 H3517 0.929 . S
C3515 C3514 1.363 . S
C3515 C3521 1.428 . S
H3516 C3512 0.930 . S
H3517 C3514 0.929 . S
S3518 N3519 1.613 1_545 S
S3518 N3520 1.610 . S
N3519 S3518 1.613 1_565 S
N3519 C3522 1.350 . S
N3520 S3518 1.610 . S
N3520 C3521 1.351 . S
C3521 C3515 1.428 . S
C3521 N3520 1.351 . S
C3521 C3522 1.434 1_545 S
C3522 C3513 1.429 . S
C3522 N3519 1.350 . S
C3522 C3521 1.434 1_565 S
C3523 C3524 1.369 . S
C3523 C3525 1.419 . S
C3523 H3527 0.930 . S
C3524 C3523 1.369 . S
C3524 C3533 1.429 . S
C3525 C3523 1.419 . S
C3525 C3526 1.363 . S
C3525 H3528 0.929 . S
C3526 C3525 1.363 . S
C3526 C3532 1.428 . S
H3527 C3523 0.930 . S
H3528 C3525 0.929 . S
S3529 N3530 1.613 . S
S3529 N3531 1.610 . S
N3530 S3529 1.613 . S
N3530 C3533 1.350 . S
N3531 S3529 1.610 . S
N3531 C3532 1.351 . S
C3532 C3526 1.428 . S
C3532 N3531 1.351 . S
C3532 C3533 1.434 . S
C3533 C3524 1.429 . S
C3533 N3530 1.350 . S
C3533 C3532 1.434 . S
C3534 C3535 1.369 . S
C3534 C3536 1.419 . S
C3534 H3538 0.930 . S
C3535 C3534 1.369 . S
C3535 C3544 1.429 . S
C3536 C3534 1.419 . S
C3536 C3537 1.363 . S
C3536 H3539 0.929 . S
C3537 C3536 1.363 . S
C3537 C3543 1.428 . S
H3538 C3534 0.930 . S
H3539 C3536 0.929 . S
S3540 N3541 1.613 . S
S3540 N3542 1.610 . S
N3541 S3540 1.613 . S
N3541 C3544 1.350 . S
N3542 S3540 1.610 . S
N3542 C3543 1.351 . S
C3543 C3537 1.428 . S
C3543 N3542 1.351 . S
C3543 C3544 1.434 . S
C3544 C3535 1.429 . S
C3544 N3541 1.350 . S
C3544 C3543 1.434 . S
C3545 C3546 1.369 . S
C3545 C3547 1.419 . S
C3545 H3549 0.930 . S
C3546 C3545 1.369 . S
C3546 C3555 1.429 . S
C3547 C3545 1.419 . S
C3547 C3548 1.363 . S
C3547 H3550 0.929 . S
C3548 C3547 1.363 . S
C3548 C3554 1.428 . S
H3549 C3545 0.930 . S
H3550 C3547 0.929 . S
S3551 N3552 1.613 . S
S3551 N3553 1.610 . S
N3552 S3551 1.613 . S
N3552 C3555 1.350 . S
N3553 S3551 1.610 . S
N3553 C3554 1.351 . S
C3554 C3548 1.428 . S
C3554 N3553 1.351 . S
C3554 C3555 1.434 . S
C3555 C3546 1.429 . S
C3555 N3552 1.350 . S
C3555 C3554 1.434 . S
C3556 C3557 1.369 . S
C3556 C3558 1.419 . S
C3556 H3560 0.930 . S
C3557 C3556 1.369 . S
C3557 C3566 1.429 . S
C3558 C3556 1.419 . S
C3558 C3559 1.363 . S
C3558 H3561 0.929 . S
C3559 C3558 1.363 . S
C3559 C3565 1.428 . S
H3560 C3556 0.930 . S
H3561 C3558 0.929 . S
S3562 N3563 1.613 . S
S3562 N3564 1.610 . S
N3563 S3562 1.613 . S
N3563 C3566 1.350 . S
N3564 S3562 1.610 . S
N3564 C3565 1.351 . S
C3565 C3559 1.428 . S
C3565 N3564 1.351 . S
C3565 C3566 1.434 . S
C3566 C3557 1.429 . S
C3566 N3563 1.350 . S
C3566 C3565 1.434 . S
C3567 C3568 1.369 . S
C3567 C3569 1.419 . S
C3567 H3571 0.930 . S
C3568 C3567 1.369 . S
C3568 C3577 1.429 . S
C3569 C3567 1.419 . S
C3569 C3570 1.363 . S
C3569 H3572 0.929 . S
C3570 C3569 1.363 . S
C3570 C3576 1.428 . S
H3571 C3567 0.930 . S
H3572 C3569 0.929 . S
S3573 N3574 1.613 . S
S3573 N3575 1.610 . S
N3574 S3573 1.613 . S
N3574 C3577 1.350 . S
N3575 S3573 1.610 . S
N3575 C3576 1.351 . S
C3576 C3570 1.428 . S
C3576 N3575 1.351 . S
C3576 C3577 1.434 . S
C3577 C3568 1.429 . S
C3577 N3574 1.350 . S
C3577 C3576 1.434 . S
C3578 C3579 1.369 . S
C3578 C3580 1.419 . S
C3578 H3582 0.930 . S
C3579 C3578 1.369 . S
C3579 C3588 1.429 . S
C3580 C3578 1.419 . S
C3580 C3581 1.363 . S
C3580 H3583 0.929 . S
C3581 C3580 1.363 . S
C3581 C3587 1.428 . S
H3582 C3578 0.930 . S
H3583 C3580 0.929 . S
S3584 N3585 1.613 . S
S3584 N3586 1.610 . S
N3585 S3584 1.613 . S
N3585 C3588 1.350 . S
N3586 S3584 1.610 . S
N3586 C3587 1.351 . S
C3587 C3581 1.428 . S
C3587 N3586 1.351 . S
C3587 C3588 1.434 . S
C3588 C3579 1.429 . S
C3588 N3585 1.350 . S
C3588 C3587 1.434 . S
C3589 C3590 1.369 . S
C3589 C3591 1.419 . S
C3589 H3593 0.930 . S
C3590 C3589 1.369 . S
C3590 C3599 1.429 . S
C3591 C3589 1.419 . S
C3591 C3592 1.363 . S
C3591 H3594 0.929 . S
C3592 C3591 1.363 . S
C3592 C3598 1.428 . S
H3593 C3589 0.930 . S
H3594 C3591 0.929 . S
S3595 N3596 1.613 . S
S3595 N3597 1.610 . S
N3596 S3595 1.613 . S
N3596 C3599 1.350 . S
N3597 S3595 1.610 . S
N3597 C3598 1.351 . S
C3598 C3592 1.428 . S
C3598 N3597 1.351 . S
C3598 C3599 1.434 . S
C3599 C3590 1.429 . S
C3599 N3596 1.350 . S
C3599 C3598 1.434 . S
C1489 C476 1.256 . S
C1491 C24 1.256 . S
C1500 C558 1.305 1_655 S
C1502 C41 1.399 . S
C1511 C80 2.068 1_554 S
C1513 C405 2.115 . S
C1522 C461 1.385 . S
C1524 C94 1.413 . S
C1533 C771 1.420 . S
C1535 C148 1.376 . S
C1544 C1056 2.076 . S
C1546 C173 2.033 1_556 S
C1555 C204 1.517 . S
C1557 C1364 1.470 1_545 S
C1566 C1096 1.224 . S
C1568 C241 1.224 . S
C1577 C266 2.056 . S
C1579 C64 1.960 1_554 S
C1588 C280 1.387 . S
C1590 C93 1.327 . S
C1599 C320 1.277 . S
C1601 C27 1.365 . S
C1610 C365 1.454 . S
C1612 C42 1.494 . S
C1621 C188 1.365 . S
C1623 C272 1.284 . S
C1632 C244 1.422 . S
C1634 C289 1.328 . S
C1643 C311 1.334 . S
C1645 C151 1.361 . S
C1654 C157 2.027 1_556 S
C1656 C359 2.120 . S
C1665 C373 1.308 . S
C1667 C926 1.309 . S
C1676 C250 1.818 . S
C1678 C421 1.873 . S
C1687 C279 1.275 . S
C1689 C458 1.288 . S
C1698 C321 1.890 . S
C1700 C475 1.783 1_545 S
C1709 C1298 1.301 . S
C1711 C497 1.306 . S
C1720 C551 1.284 . S
C1722 C992 1.294 . S
C1731 C808 1.767 1_565 S
C1733 C452 1.860 . S
C1742 C879 1.897 . S
C1744 C568 1.831 1_655 S
C1753 C824 2.140 . S
C1755 C219 2.024 . S
C1764 C923 1.285 1_455 S
C1766 C591 1.367 . S
C1775 C785 1.317 . S
C1777 C647 1.421 . S
C1786 C678 1.369 . S
C1788 C1002 1.286 . S
C1797 C1419 1.466 1_565 S
C1799 C693 1.491 . S
C1808 C1227 2.074 . S
C1810 C2 1.967 . S
C1819 C724 1.224 . S
C1821 C644 1.224 . S
C1830 C436 2.078 . S
C1832 C235 2.033 . S
C1841 C372 1.472 . S
C1843 C607 1.521 . S
C1852 C692 1.404 . S
C1854 C713 1.312 . S
C1863 C746 2.112 . S
C1865 C18 2.069 . S
C1874 C383 1.251 . S
C1876 C675 1.259 . S
C1885 C559 1.306 . S
C1887 C368 1.302 . S
C1896 C723 1.824 . S
C1898 C786 1.899 . S
C1907 C310 1.294 . S
C1909 C768 1.283 . S
C1918 C864 1.303 . S
C1920 C1303 1.302 . S
C1929 C868 1.277 . S
C1931 C1078 1.289 . S
C1940 C545 1.880 . S
C1942 C901 1.825 1_455 S
C1951 C103 1.403 . S
C1953 C1085 1.312 1_655 S
C1962 C1025 2.112 . S
C1964 C948 2.071 . S
C1973 C32 1.414 . S
C1975 C1081 1.383 . S
C1984 C613 1.383 . S
C1986 C554 1.426 . S
C1995 C1302 1.468 . S
C1997 C979 1.515 . S
C2006 C569 1.210 . S
C2008 C179 1.225 . S
C2017 C855 2.059 . S
C2019 C932 1.965 . S
C2028 C869 1.382 . S
C2030 C31 1.333 . S
C2039 C830 1.460 1_565 S
C2041 C104 1.498 . S
C2050 C963 1.366 . S
C2052 C861 1.284 . S
C2061 C182 1.427 . S
C2063 C878 1.325 . S
C2072 C616 1.360 . S
C2074 C993 1.336 . S
C2083 C1236 1.302 . S
C2085 C466 1.308 . S
C2094 C839 1.819 . S
C2096 C1041 1.873 . S
C2105 C1003 1.887 . S
C2107 C382 1.786 . S
C2116 C1422 1.300 . S
C2118 C714 1.305 . S
C2127 C1072 1.862 . S
C2129 C343 1.775 . S
C2138 C1095 1.825 1_655 S
C2140 C290 1.900 . S
C2149 C1233 1.288 1_455 S
C2151 C126 1.368 . S
C2160 C1188 1.319 . S
C2162 C1143 1.424 . S
C2171 C1295 1.464 . S
C2173 C1158 1.490 . S
C2182 C917 2.054 . S
C2184 C653 1.960 1_554 S
C2193 C1140 1.231 . S
C2195 C507 1.219 . S
C2204 C142 1.516 . S
C2206 C465 1.479 1_545 S
C2215 C496 1.304 . S
C2217 C1157 1.398 . S
C2226 C669 2.075 1_554 S
C2228 C529 2.114 . S
C2237 C833 1.308 . S
C2239 C1086 1.311 . S
C2248 C506 1.834 . S
C2250 C1189 1.901 . S
C2259 C1365 1.312 . S
C2261 C275 1.307 . S
C2270 C762 1.878 . S
C2272 C1211 1.827 1_455 S
C2281 C1375 1.263 . S
C2283 C86 1.263 . S
C2292 C1360 1.383 . S
C2294 C683 1.410 . S
C2303 C210 1.369 . S
C2305 C430 1.426 . S
C2314 C1459 2.077 . S
C2316 C1134 2.033 . S
C2325 C682 1.334 . S
C2327 C776 1.386 . S
C2336 C89 1.364 . S
C2338 C1250 1.279 . S
C2347 C213 1.364 . S
C2349 C1241 1.341 . S
C2358 C1118 2.022 . S
C2360 C1289 2.119 . S
C2369 C775 1.273 . S
C2371 C1357 1.286 . S
C2380 C1374 1.785 1_545 S
C2382 C1251 1.889 . S
C2391 C1426 1.297 . S
C2393 C1047 1.285 . S
C2402 C1397 1.770 1_565 S
C2404 C1351 1.856 . S
C2413 C622 2.019 1_556 S
C2415 C1413 2.129 . S
C2424 C957 1.368 . S
C2426 C1436 1.276 . S
C2435 C638 2.025 1_556 S
C2437 C1335 2.076 . S
C2446 C954 1.266 . S
C2448 C1313 1.260 . S
C2457 C427 1.274 . S
C2459 C1240 1.286 . S
C2468 C1481 1.297 . S
C2470 C1178 1.285 . S
C2479 C1484 1.381 . S
C2481 C1148 1.413 . S
C2490 C985 1.369 . S
C2492 C1050 1.425 . S
C2501 C1147 1.333 . S
C2503 C1179 1.387 . S
C2512 C988 1.369 . S
C2514 C1427 1.343 . S
C2523 C1312 1.780 . S
C2525 C1437 1.884 . S
C2534 C1273 1.773 . S
C2536 C1475 1.862 . S
C2545 C1087 2.066 . S
C2547 C11 1.948 . S
C2556 C744 1.672 . S
C2558 C58 1.604 . S
C2567 C1065 1.008 . S
C2569 C62 1.033 . S
C2578 C1391 1.320 . S
C2580 C95 1.406 . S
C2589 C135 1.313 . S
C2591 C585 1.390 . S
C2600 C155 0.986 . S
C2602 C414 0.943 . S
C2611 C186 1.432 . S
C2613 C434 1.423 . S
C2622 C228 1.942 . S
C2624 C467 2.066 . S
C2633 C248 1.242 . S
C2635 C1395 1.247 . S
C2644 C910 1.353 . S
C2646 C281 1.458 . S
C2655 C1205 1.843 . S
C2657 C337 1.838 . S
C2666 C1428 1.484 . S
C2668 C352 1.366 . S
C2677 C259 1.367 . S
C2679 C1180 1.455 . S
C2688 C306 1.847 . S
C2690 C1453 1.835 . S
C2699 C312 1.482 . S
C2701 C1406 1.364 . S
C2710 C899 1.242 . S
C2712 C341 1.246 . S
C2721 C166 1.942 . S
C2723 C374 2.066 . S
C2732 C403 1.669 . S
C2734 C1174 1.607 . S
C2743 C445 1.003 . S
C2745 C930 1.033 . S
C2754 C492 1.330 . S
C2756 C684 1.401 . S
C2765 C498 2.067 . S
C2767 C941 1.954 . S
C2776 C538 0.942 . S
C2778 C620 0.985 . S
C2787 C1219 1.428 . S
C2789 C218 1.397 . S
C2798 C303 1.736 . S
C2800 C590 1.664 . S
C2809 C1010 1.803 . S
C2811 C630 1.871 . S
C2820 C1396 1.405 . S
C2822 C134 1.467 . S
C2831 C900 1.466 . S
C2833 C111 1.381 . S
C2842 C793 1.753 . S
C2844 C661 1.814 . S
C2853 C706 1.496 . S
C2855 C334 1.485 . S
C2864 C1 1.385 . S
C2866 C816 1.424 . S
C2875 C1388 1.329 . S
C2877 C737 1.325 . S
C2886 C754 1.426 . S
C2888 C576 1.324 . S
C2897 C435 1.759 . S
C2899 C1024 1.753 . S
C2908 C1467 1.452 . S
C2910 C390 1.335 . S
C2919 C731 1.322 . S
C2921 C1033 1.432 . S
C2930 C745 1.762 . S
C2932 C1458 1.751 . S
C2941 C444 1.461 . S
C2943 C1382 1.332 . S
C2952 C396 1.328 . S
C2954 C582 1.324 . S
C2963 C652 1.382 . S
C2965 C351 1.424 . S
C2974 C799 1.729 . S
C2976 C962 1.670 . S
C2985 C1126 1.872 . S
C2987 C328 1.811 . S
C2996 C196 1.473 . S
C2998 C807 1.399 . S
C3007 C1117 1.394 . S
C3009 C847 1.427 . S
C3018 C72 1.820 . S
C3020 C886 1.748 . S
C3029 C560 2.069 . S
C3031 C662 1.951 . S
C3040 C527 1.666 . S
C3042 C120 1.610 . S
C3051 C1329 1.327 . S
C3053 C33 1.402 . S
C3062 C600 1.307 . S
C3064 C1112 1.394 . S
C3073 C1034 0.940 . S
C3075 C217 0.984 . S
C3084 C1054 1.425 . S
C3086 C961 1.431 . S
C3095 C837 1.242 . S
C3097 C1271 1.246 . S
C3106 C870 1.453 . S
C3108 C1220 1.365 . S
C3117 C1019 1.836 . S
C3119 C802 1.844 . S
C3128 C817 1.368 . S
C3130 C1242 1.475 . S
C3139 C848 1.355 . S
C3141 C777 1.457 . S
C3150 C895 1.847 . S
C3152 C1267 1.835 . S
C3161 C1282 1.371 . S
C3163 C994 1.481 . S
C3172 C1209 1.246 . S
C3174 C806 1.249 . S
C3183 C709 1.600 . S
C3185 C1023 1.674 . S
C3194 C1149 1.410 . S
C3196 C399 1.320 . S
C3205 C715 2.069 . S
C3207 C73 1.948 . S
C3216 C755 0.957 . S
C3218 C1116 0.978 . S
C3227 C909 1.428 . S
C3229 C156 1.393 . S
C3238 C125 1.664 . S
C3240 C892 1.735 . S
C3249 C599 1.476 . S
C3251 C1272 1.395 . S
C3260 C49 1.394 . S
C3262 C1210 1.457 . S
C3271 C10 1.820 . S
C3273 C1196 1.751 . S
C3282 C1171 1.499 . S
C3284 C1016 1.484 . S
C3293 C520 1.324 . S
C3295 C1326 1.329 . S
C3304 C537 1.428 . S
C3306 C1103 1.325 . S
C3315 C404 1.762 . S
C3317 C1055 1.750 . S
C3326 C483 1.325 . S
C3328 C1343 1.459 . S
C3337 C413 1.428 . S
C3339 C514 1.325 . S
C3348 C528 1.762 . S
C3350 C1334 1.750 . S
C3359 C1064 1.461 . S
C3361 C1320 1.327 . S
C3370 C1109 1.324 . S
C3372 C489 1.329 . S
C3381 C187 1.662 . S
C3383 C1202 1.735 . S
C3392 C971 1.470 . S
C3394 C342 1.402 . S
C3403 C621 1.390 . S
C3405 C258 1.427 . S
C3414 C940 1.817 . S
C3416 C297 1.747 . S
C3425 C1468 0.993 . S
C3427 C0 1.036 . S
C3436 C523 1.386 . S
C3438 C197 1.318 . S
C3447 C124 1.437 . S
C3449 C1333 1.418 . S
C3458 C1366 2.063 . S
C3460 C631 1.943 . S
C3469 C1127 1.941 . S
C3471 C1304 2.066 . S
C3480 C651 1.037 . S
C3482 C1344 1.004 . S
C3491 C227 1.875 . S
C3493 C1444 1.807 . S
C3502 C838 1.461 . S
C3504 C700 1.385 . S
C3513 C117 1.503 . S
C3515 C1264 1.478 . S
C3524 C63 1.384 . S
C3526 C1405 1.424 . S
C3535 C931 1.386 . S
C3537 C1281 1.424 . S
C3546 C165 1.872 . S
C3548 C1258 1.811 . S
C3557 C740 1.383 . S
C3559 C972 1.322 . S
C3568 C1457 1.425 . S
C3570 C589 1.432 . S
C3579 C1165 1.378 . S
C3581 C249 1.467 . S
C3590 C1450 1.487 . S
C3592 C55 1.497 . S
