# Generated by pormake.
# Topology wkf, (6)-cn, num edge types: 1
# Building blocks:
#     Node 0, Type 0, BuildingBlock: KUMBOL_clean_sbu_0, # of connection points: 6
#     Node 1, Type 0, BuildingBlock: KUMBOL_clean_sbu_0, # of connection points: 6
#     Node 2, Type 0, BuildingBlock: KUMBOL_clean_sbu_0, # of connection points: 6
#     Node 3, Type 0, BuildingBlock: KUMBOL_clean_sbu_0, # of connection points: 6
#     Node 4, Type 0, BuildingBlock: KUMBOL_clean_sbu_0, # of connection points: 6
#     Node 5, Type 0, BuildingBlock: KUMBOL_clean_sbu_0, # of connection points: 6
#     Node 6, Type 0, BuildingBlock: KUMBOL_clean_sbu_0, # of connection points: 6
#     Node 7, Type 0, BuildingBlock: KUMBOL_clean_sbu_0, # of connection points: 6
#     Node 8, Type 0, BuildingBlock: KUMBOL_clean_sbu_0, # of connection points: 6
#     Node 9, Type 0, BuildingBlock: KUMBOL_clean_sbu_0, # of connection points: 6
#     Node 10, Type 0, BuildingBlock: KUMBOL_clean_sbu_0, # of connection points: 6
#     Node 11, Type 0, BuildingBlock: KUMBOL_clean_sbu_0, # of connection points: 6
#     Edge 12, Type (0, 0), BuildingBlock: XUDNAN_clean_linker_2, # of connection points: 2
#     Edge 13, Type (0, 0), BuildingBlock: XUDNAN_clean_linker_2, # of connection points: 2
#     Edge 14, Type (0, 0), BuildingBlock: XUDNAN_clean_linker_2, # of connection points: 2
#     Edge 15, Type (0, 0), BuildingBlock: XUDNAN_clean_linker_2, # of connection points: 2
#     Edge 16, Type (0, 0), BuildingBlock: XUDNAN_clean_linker_2, # of connection points: 2
#     Edge 17, Type (0, 0), BuildingBlock: XUDNAN_clean_linker_2, # of connection points: 2
#     Edge 18, Type (0, 0), BuildingBlock: XUDNAN_clean_linker_2, # of connection points: 2
#     Edge 19, Type (0, 0), BuildingBlock: XUDNAN_clean_linker_2, # of connection points: 2
#     Edge 20, Type (0, 0), BuildingBlock: XUDNAN_clean_linker_2, # of connection points: 2
#     Edge 21, Type (0, 0), BuildingBlock: XUDNAN_clean_linker_2, # of connection points: 2
#     Edge 22, Type (0, 0), BuildingBlock: XUDNAN_clean_linker_2, # of connection points: 2
#     Edge 23, Type (0, 0), BuildingBlock: XUDNAN_clean_linker_2, # of connection points: 2
#     Edge 24, Type (0, 0), BuildingBlock: XUDNAN_clean_linker_2, # of connection points: 2
#     Edge 25, Type (0, 0), BuildingBlock: XUDNAN_clean_linker_2, # of connection points: 2
#     Edge 26, Type (0, 0), BuildingBlock: XUDNAN_clean_linker_2, # of connection points: 2
#     Edge 27, Type (0, 0), BuildingBlock: XUDNAN_clean_linker_2, # of connection points: 2
#     Edge 28, Type (0, 0), BuildingBlock: XUDNAN_clean_linker_2, # of connection points: 2
#     Edge 29, Type (0, 0), BuildingBlock: XUDNAN_clean_linker_2, # of connection points: 2
#     Edge 30, Type (0, 0), BuildingBlock: XUDNAN_clean_linker_2, # of connection points: 2
#     Edge 31, Type (0, 0), BuildingBlock: XUDNAN_clean_linker_2, # of connection points: 2
#     Edge 32, Type (0, 0), BuildingBlock: XUDNAN_clean_linker_2, # of connection points: 2
#     Edge 33, Type (0, 0), BuildingBlock: XUDNAN_clean_linker_2, # of connection points: 2
#     Edge 34, Type (0, 0), BuildingBlock: XUDNAN_clean_linker_2, # of connection points: 2
#     Edge 35, Type (0, 0), BuildingBlock: XUDNAN_clean_linker_2, # of connection points: 2
#     Edge 36, Type (0, 0), BuildingBlock: XUDNAN_clean_linker_2, # of connection points: 2
#     Edge 37, Type (0, 0), BuildingBlock: XUDNAN_clean_linker_2, # of connection points: 2
#     Edge 38, Type (0, 0), BuildingBlock: XUDNAN_clean_linker_2, # of connection points: 2
#     Edge 39, Type (0, 0), BuildingBlock: XUDNAN_clean_linker_2, # of connection points: 2
#     Edge 40, Type (0, 0), BuildingBlock: XUDNAN_clean_linker_2, # of connection points: 2
#     Edge 41, Type (0, 0), BuildingBlock: XUDNAN_clean_linker_2, # of connection points: 2
#     Edge 42, Type (0, 0), BuildingBlock: XUDNAN_clean_linker_2, # of connection points: 2
#     Edge 43, Type (0, 0), BuildingBlock: XUDNAN_clean_linker_2, # of connection points: 2
#     Edge 44, Type (0, 0), BuildingBlock: XUDNAN_clean_linker_2, # of connection points: 2
#     Edge 45, Type (0, 0), BuildingBlock: XUDNAN_clean_linker_2, # of connection points: 2
#     Edge 46, Type (0, 0), BuildingBlock: XUDNAN_clean_linker_2, # of connection points: 2
#     Edge 47, Type (0, 0), BuildingBlock: XUDNAN_clean_linker_2, # of connection points: 2
# Relax obj value: 0.169
# Max RMSD: 0.269
# Mean RMSD: 0.261
data_MOF--net-wkf--node1-KUMBOL_clean_sbu_0--edge1-XUDNAN_clean_linker_2
_symmetry_space_group_name_H-M    P1
_symmetry_Int_Tables_number       1
_symmetry_cell_setting            triclinic
loop_
_symmetry_equiv_pos_as_xyz
'x, y, z'
_cell_length_a     30.51749
_cell_length_b     30.56354
_cell_length_c     81.337381
_cell_angle_alpha  90.211146
_cell_angle_beta   89.787232
_cell_angle_gamma 119.69225
loop_
_atom_site_label
_atom_site_type_symbol
_atom_site_fract_x
_atom_site_fract_y
_atom_site_fract_z
_atom_type_partial_charge
Gd0 Gd 0.44631 0.96496 0.33942 0.0
Gd1 Gd 0.54216 1.00056 0.36919 0.0
C2 C 0.66075 0.99323 0.336 0.0
C3 C 0.67333 0.93016 0.34985 0.0
C4 C 0.61309 0.95346 0.36065 0.0
C5 C 0.62479 0.98786 0.34804 0.0
C6 C 0.63781 0.9248 0.3618 0.0
C7 C 0.68467 0.96419 0.33696 0.0
C8 C 0.67149 1.02733 0.3232 0.0
C9 C 0.64612 0.05445 0.32241 0.0
N10 N 0.60052 1.01517 0.34732 0.0
C11 C 0.61038 0.04746 0.33441 0.0
H12 H 0.58986 0.06679 0.33247 0.0
C13 C 0.5662 0.91531 0.38472 0.0
N14 N 0.57718 0.94744 0.37171 0.0
C15 C 0.59051 0.88709 0.38655 0.0
C16 C 0.6262 0.89152 0.37496 0.0
H17 H 0.53797 0.91035 0.39368 0.0
H18 H 0.71211 0.96783 0.32778 0.0
H19 H 0.37882 1.02007 0.34863 0.0
H20 H 0.69873 1.03244 0.31374 0.0
H21 H 0.65319 0.08006 0.31229 0.0
H22 H 0.69226 0.90814 0.35047 0.0
H23 H 0.53863 0.96638 0.31497 0.0
H24 H 0.38535 0.11072 0.30754 0.0
H25 H 0.35315 0.07674 0.33529 0.0
H26 H 0.50032 0.09611 0.27061 0.0
H27 H 0.58116 0.86139 0.39678 0.0
H28 H 0.64445 0.86903 0.37627 0.0
H29 H 0.43981 0.11713 0.28334 0.0
H30 H 0.57648 0.99957 0.28807 0.0
N31 N 0.42567 1.02353 0.32877 0.0
C32 C 0.3966 0.08593 0.31331 0.0
C33 C 0.37858 0.0671 0.32903 0.0
C34 C 0.42933 0.073 0.30529 0.0
C35 C 0.44277 1.04061 0.31332 0.0
C36 C 0.39335 1.03545 0.33659 0.0
N37 N 0.49183 0.99999 0.31487 0.0
C38 C 0.47747 1.02909 0.30628 0.0
C39 C 0.54861 1.0081 0.29304 0.0
C40 C 0.53456 1.03819 0.28419 0.0
C41 C 0.5267 0.98911 0.30839 0.0
C42 C 0.4988 0.04927 0.2908 0.0
H43 H 0.55182 0.05296 0.27234 0.0
O44 O 0.39664 0.91268 0.32048 0.0
O45 O 0.50389 0.94511 0.34896 0.0
O46 O 0.56258 0.08011 0.35782 0.0
O47 O 0.49334 0.05599 0.34061 0.0
O48 O 0.46474 0.90349 0.32976 0.0
O49 O 0.36429 0.92749 0.34184 0.0
O50 O 0.54058 0.99021 0.39549 0.0
O51 O 0.4663 0.99437 0.3655 0.0
O52 O 0.40799 0.91754 0.36272 0.0
O53 O 0.4746 0.92821 0.37945 0.0
O54 O 0.51972 0.0555 0.37873 0.0
O55 O 0.61035 0.04393 0.38348 0.0
C56 C 0.49768 0.90665 0.34033 0.0
C57 C 0.48437 0.08041 0.28252 0.0
C58 C 0.44981 0.09231 0.28975 0.0
C59 C 0.35511 0.90465 0.3276 0.0
C60 C 0.31342 0.90234 0.31704 0.0
C61 C 0.28826 0.92809 0.32216 0.0
C62 C 0.29508 0.87106 0.30269 0.0
C63 C 0.25195 0.86554 0.29401 0.0
C64 C 0.24704 0.92379 0.31346 0.0
C65 C 0.22892 0.89278 0.29966 0.0
C66 C 0.53614 0.093 0.34746 0.0
C67 C 0.4738 1.03382 0.37354 0.0
C68 C 0.58707 1.02579 0.39746 0.0
C69 C 0.59537 0.06145 0.4109 0.0
C70 C 0.57453 0.04297 0.4265 0.0
C71 C 0.62508 0.11354 0.40857 0.0
C72 C 0.63424 0.14673 0.42169 0.0
C73 C 0.58342 0.07618 0.43955 0.0
C74 C 0.61322 0.12803 0.43718 0.0
C75 C 0.42568 0.90435 0.37573 0.0
H76 H 0.2996 0.95096 0.33317 0.0
H77 H 0.31307 0.84995 0.29866 0.0
H78 H 0.22837 0.94409 0.31763 0.0
H79 H 0.19647 0.89003 0.29332 0.0
H80 H 0.55169 1.00282 0.42861 0.0
H81 H 0.64259 0.12847 0.39675 0.0
H82 H 0.56751 0.06166 0.45155 0.0
H83 H 0.62116 0.15337 0.4475 0.0
Gd84 Gd 0.52543 0.41646 0.50679 0.0
Gd85 Gd 0.57637 0.51376 0.53622 0.0
C86 C 0.70523 0.63398 0.50556 0.0
C87 C 0.7779 0.65624 0.52293 0.0
C88 C 0.69415 0.59166 0.53164 0.0
C89 C 0.67375 0.59807 0.5173 0.0
C90 C 0.74646 0.62095 0.53466 0.0
C91 C 0.75734 0.66271 0.50841 0.0
C92 C 0.68338 0.64032 0.49135 0.0
C93 C 0.6314 0.61147 0.48915 0.0
N94 N 0.62325 0.56936 0.51481 0.0
C95 C 0.60181 0.57603 0.50103 0.0
H96 H 0.56212 0.55334 0.49876 0.0
C97 C 0.68178 0.54928 0.55698 0.0
N98 N 0.66304 0.55641 0.54258 0.0
C99 C 0.73323 0.57775 0.56055 0.0
C100 C 0.76575 0.61371 0.54934 0.0
H101 H 0.65712 0.5213 0.56574 0.0
H102 H 0.78203 0.69026 0.49949 0.0
H103 H 0.40319 0.34116 0.51368 0.0
H104 H 0.70622 0.66751 0.48206 0.0
H105 H 0.61406 0.61607 0.47819 0.0
H106 H 0.81816 0.67878 0.52498 0.0
H107 H 0.61673 0.50822 0.48216 0.0
H108 H 0.32276 0.33718 0.47007 0.0
H109 H 0.32276 0.30753 0.49834 0.0
H110 H 0.45265 0.45622 0.43463 0.0
H111 H 0.74778 0.57174 0.57192 0.0
H112 H 0.80567 0.63544 0.55208 0.0
H113 H 0.37155 0.39252 0.44634 0.0
H114 H 0.62227 0.54235 0.4547 0.0
N115 N 0.44732 0.389 0.49422 0.0
C116 C 0.35801 0.35177 0.4767 0.0
C117 C 0.3578 0.33502 0.49268 0.0
C118 C 0.40362 0.38729 0.46947 0.0
C119 C 0.44848 0.40501 0.47857 0.0
C120 C 0.40315 0.35402 0.50132 0.0
N121 N 0.53713 0.45823 0.48132 0.0
C122 C 0.49452 0.44117 0.47204 0.0
C123 C 0.5861 0.51382 0.45941 0.0
C124 C 0.54288 0.49685 0.44985 0.0
C125 C 0.58262 0.49392 0.47512 0.0
C126 C 0.49636 0.46014 0.4561 0.0
H127 H 0.54582 0.51239 0.43767 0.0
O128 O 0.52578 0.3642 0.48835 0.0
O129 O 0.60036 0.47884 0.51636 0.0
O130 O 0.51282 0.52577 0.52348 0.0
O131 O 0.47292 0.45438 0.5073 0.0
O132 O 0.60652 0.43759 0.49827 0.0
O133 O 0.48715 0.33531 0.51144 0.0
O134 O 0.59083 0.54448 0.56088 0.0
O135 O 0.5033 0.44476 0.52968 0.0
O136 O 0.54238 0.38381 0.52984 0.0
O137 O 0.59185 0.45279 0.54697 0.0
O138 O 0.52651 0.45416 0.55387 0.0
O139 O 0.55917 0.57274 0.54292 0.0
C140 C 0.63423 0.4725 0.50861 0.0
C141 C 0.4518 0.4421 0.4469 0.0
C142 C 0.4056 0.40578 0.45355 0.0
C143 C 0.49742 0.32394 0.49689 0.0
C144 C 0.45789 0.27777 0.48793 0.0
C145 C 0.4115 0.24668 0.49572 0.0
C146 C 0.4674 0.26133 0.47242 0.0
C147 C 0.43129 0.21416 0.4653 0.0
C148 C 0.37593 0.20119 0.48867 0.0
C149 C 0.38577 0.18494 0.47377 0.0
C150 C 0.47504 0.49681 0.51313 0.0
C151 C 0.48959 0.42633 0.54421 0.0
C152 C 0.56956 0.57154 0.55839 0.0
C153 C 0.53076 0.56584 0.57043 0.0
C154 C 0.51116 0.52681 0.58214 0.0
C155 C 0.51295 0.6001 0.57018 0.0
C156 C 0.47597 0.59585 0.58142 0.0
C157 C 0.47475 0.52276 0.59345 0.0
C158 C 0.45735 0.55726 0.5932 0.0
C159 C 0.57198 0.40409 0.54296 0.0
H160 H 0.40276 0.257 0.50753 0.0
H161 H 0.50307 0.28419 0.46622 0.0
H162 H 0.34049 0.1779 0.49493 0.0
H163 H 0.35722 0.14925 0.46874 0.0
H164 H 0.52387 0.49948 0.58262 0.0
H165 H 0.52803 0.63027 0.56121 0.0
H166 H 0.45975 0.49257 0.60238 0.0
H167 H 0.42846 0.55302 0.60186 0.0
Gd168 Gd 0.13296 0.50277 0.67344 0.0
Gd169 Gd 0.0945 0.55051 0.70537 0.0
C170 C 0.08695 0.68035 0.67914 0.0
C171 C 0.13745 0.75108 0.69715 0.0
C172 C 0.12592 0.668 0.70312 0.0
C173 C 0.09567 0.64838 0.68951 0.0
C174 C 0.14753 0.71967 0.70706 0.0
C175 C 0.10722 0.73145 0.68319 0.0
C176 C 1.05967 0.66054 0.66468 0.0
C177 C 1.04384 0.61077 0.66052 0.0
N178 N 0.07765 0.59894 0.68581 0.0
C179 C 1.05398 0.58095 0.67108 0.0
H180 H 1.04411 0.54436 0.6669 0.0
C181 C 0.16748 0.65541 0.72544 0.0
N182 N 0.13616 0.63704 0.71212 0.0
C183 C 0.18942 0.70613 0.72991 0.0
C184 C 0.17932 0.73845 0.7207 0.0
H185 H 0.17673 0.63139 0.73256 0.0
H186 H 0.10065 0.75633 0.67541 0.0
H187 H 0.11533 0.39885 0.69248 0.0
H188 H 1.05232 0.68379 0.65637 0.0
H189 H 1.02461 0.59547 0.64898 0.0
H190 H 0.15359 0.79077 0.7 0.0
H191 H 0.09301 0.55271 0.64368 0.0
H192 H 1.02793 0.27311 0.66068 0.0
H193 H 0.07387 0.30716 0.68682 0.0
H194 H 0.99079 0.34793 0.61493 0.0
H195 H 0.21441 0.72031 0.7404 0.0
H196 H 0.1967 0.77786 0.7241 0.0
H197 H 0.99811 0.28889 0.63369 0.0
H198 H 1.04495 0.52448 0.61786 0.0
N199 N 0.09083 0.41532 0.67015 0.0
C200 C 1.0455 0.31313 0.66318 0.0
C201 C 0.0712 0.33217 0.678 0.0
C202 C 1.04239 0.34584 0.65182 0.0
C203 C 0.06574 0.39749 0.65569 0.0
C204 C 0.09405 0.38381 0.68128 0.0
N205 N 0.0802 0.47982 0.65011 0.0
C206 C 0.06119 0.43086 0.64514 0.0
C207 C 1.0488 0.49772 0.62553 0.0
C208 C 1.02801 0.44755 0.62052 0.0
C209 C 0.07531 0.51346 0.64035 0.0
C210 C 1.03373 0.41332 0.63041 0.0
H211 H 1.00732 0.43556 0.60906 0.0
O212 O 0.19584 0.53853 0.65614 0.0
O213 O 0.1591 0.57645 0.68762 0.0
O214 O 1.01418 0.49549 0.6927 0.0
O215 O 1.04226 0.46343 0.67193 0.0
O216 O 0.16366 0.58451 0.66309 0.0
O217 O 0.17755 0.46685 0.66555 0.0
O218 O 0.10924 0.54483 0.73098 0.0
O219 O 0.10294 0.48346 0.69972 0.0
O220 O 0.18043 0.50408 0.69587 0.0
O221 O 0.1695 0.55696 0.71399 0.0
O222 O 1.03529 0.47135 0.70964 0.0
O223 O 1.0531 0.56524 0.72437 0.0
C224 C 0.17632 0.61105 0.67649 0.0
C225 C 1.01189 0.3621 0.62624 0.0
C226 C 1.01605 0.32844 0.63693 0.0
C227 C 0.20419 0.50096 0.65467 0.0
C228 C 0.20626 0.48476 0.63712 0.0
C229 C 0.17261 0.48627 0.62575 0.0
C230 C 0.2428 0.47207 0.63096 0.0
C231 C 0.24345 0.4599 0.61384 0.0
C232 C 0.17088 0.47149 0.60952 0.0
C233 C 0.20511 0.45775 0.60371 0.0
C234 C 1.00318 0.46234 0.68012 0.0
C235 C 0.0605 0.44917 0.70569 0.0
C236 C 0.0736 0.55278 0.73623 0.0
C237 C 1.04023 0.51825 0.74904 0.0
C238 C 1.05351 0.48766 0.75825 0.0
C239 C 0.996 0.51863 0.75295 0.0
C240 C 0.9651 0.48949 0.76589 0.0
C241 C 1.02194 0.45728 0.7709 0.0
C242 C 0.97749 0.45784 0.77469 0.0
C243 C 0.19327 0.53207 0.70961 0.0
H244 H 0.148 0.50024 0.62925 0.0
H245 H 0.27105 0.47319 0.63922 0.0
H246 H 0.14317 0.47159 0.60127 0.0
H247 H 0.20148 0.44579 0.591 0.0
H248 H 0.08844 0.48768 0.75586 0.0
H249 H 0.98586 0.54265 0.74606 0.0
H250 H 1.03251 0.43408 0.77798 0.0
H251 H 0.95372 0.43485 0.78467 0.0
Gd252 Gd 0.68644 0.12186 0.84111 0.0
Gd253 Gd 0.57837 0.07644 0.86505 0.0
C254 C 0.47847 0.09228 0.8262 0.0
C255 C 0.45224 0.14585 0.84019 0.0
C256 C 0.50803 0.12171 0.85381 0.0
C257 C 0.5066 0.09383 0.84018 0.0
C258 C 0.481 0.14821 0.85392 0.0
C259 C 0.45101 0.11798 0.82635 0.0
C260 C 0.47977 0.06608 0.81228 0.0
C261 C 0.50964 0.04342 0.81234 0.0
N262 N 0.53507 0.07083 0.8402 0.0
C263 C 0.53744 0.04662 0.82636 0.0
H264 H 0.56166 1.03082 0.82563 0.0
C265 C 0.54204 0.15421 0.88001 0.0
N266 N 0.53803 0.12526 0.86659 0.0
C267 C 0.51517 0.18022 0.88081 0.0
C268 C 0.48452 0.17725 0.86771 0.0
H269 H 0.56615 0.15753 0.8902 0.0
H270 H 0.42932 0.11719 0.81572 0.0
H271 H 0.74946 0.08189 0.86421 0.0
H272 H 0.45879 0.06408 0.80131 0.0
H273 H 0.512 1.02412 0.80148 0.0
H274 H 0.43146 0.1661 0.84004 0.0
H275 H 0.61914 0.10442 0.8057 0.0
H276 H 0.80294 1.00583 0.83255 0.0
H277 H 0.79661 1.03587 0.86029 0.0
H278 H 0.72994 1.00529 0.7804 0.0
H279 H 0.51861 0.20303 0.89147 0.0
H280 H 0.46438 0.19812 0.86824 0.0
H281 H 0.77903 0.99589 0.80264 0.0
H282 H 0.61602 0.07068 0.77807 0.0
N283 N 0.72724 0.07473 0.83924 0.0
C284 C 0.78169 1.02527 0.83426 0.0
C285 C 0.77785 0.04179 0.84998 0.0
C286 C 0.7573 1.03318 0.82098 0.0
C287 C 0.73002 0.05852 0.82386 0.0
C288 C 0.75048 0.06695 0.85226 0.0
N289 N 0.67213 0.08437 0.81489 0.0
C290 C 0.70161 0.06344 0.81131 0.0
C291 C 0.64016 0.06835 0.78733 0.0
C292 C 0.66988 0.04669 0.7835 0.0
C293 C 0.6419 0.08732 0.80313 0.0
C294 C 0.70081 0.04364 0.79557 0.0
H295 H 0.66821 1.0319 0.77125 0.0
O296 O 0.73628 0.17661 0.82276 0.0
O297 O 0.63004 0.14452 0.85044 0.0
O298 O 0.56717 1.00022 0.85286 0.0
O299 O 0.64201 1.03134 0.83856 0.0
O300 O 0.6508 0.16425 0.82723 0.0
O301 O 0.76664 0.17215 0.84612 0.0
O302 O 0.54069 0.06728 0.88834 0.0
O303 O 0.6459 0.06684 0.86215 0.0
O304 O 0.714 0.16502 0.86579 0.0
O305 O 0.63814 0.14818 0.87837 0.0
O306 O 0.62584 0.07538 0.8857 0.0
O307 O 0.51238 1.00492 0.87133 0.0
C308 C 0.62402 0.16896 0.83869 0.0
C309 C 0.72987 1.0204 0.79247 0.0
C310 C 0.75793 1.01511 0.80514 0.0
C311 C 0.77723 0.19205 0.83137 0.0
C312 C 0.82327 0.19681 0.82258 0.0
C313 C 0.84437 0.16788 0.82813 0.0
C314 C 0.84794 0.23099 0.80916 0.0
C315 C 0.89246 0.23495 0.80169 0.0
C316 C 0.88593 0.16976 0.82038 0.0
C317 C 0.90946 0.20252 0.80734 0.0
C318 C 0.59805 0.99112 0.84337 0.0
C319 C 0.65652 0.06615 0.87747 0.0
C320 C 0.51106 1.01938 0.88635 0.0
C321 C 0.51063 0.98712 0.8999 0.0
C322 C 0.5264 1.00715 0.91575 0.0
C323 C 0.49203 0.93557 0.89727 0.0
C324 C 0.48442 0.90298 0.91052 0.0
C325 C 0.52229 0.97583 0.92876 0.0
C326 C 0.50094 0.9241 0.92627 0.0
C327 C 0.68869 0.17341 0.8777 0.0
H328 H 0.82922 0.14386 0.83869 0.0
H329 H 0.83372 0.25521 0.80498 0.0
H330 H 0.90073 0.14624 0.82476 0.0
H331 H 0.94223 0.20327 0.80184 0.0
H332 H 0.54119 0.04687 0.9182 0.0
H333 H 0.48137 0.92066 0.88494 0.0
H334 H 0.53387 0.99147 0.94097 0.0
H335 H 0.49505 0.90081 0.93694 0.0
Gd336 Gd 0.59101 0.65524 0.0102 0.0
Gd337 Gd 0.53351 0.55371 0.03689 0.0
C338 C 0.41174 0.44167 1.00177 0.0
C339 C 0.33481 0.41981 0.01683 0.0
C340 C 0.41657 0.47989 0.02832 0.0
C341 C 0.4406 0.474 0.01473 0.0
C342 C 0.36334 0.45328 0.02941 0.0
C343 C 0.35895 0.41403 1.00304 0.0
C344 C 0.43652 0.43953 0.98759 0.0
C345 C 0.48846 0.47072 0.98626 0.0
N346 N 0.49169 0.50284 0.01357 0.0
C347 C 0.5153 0.50273 0.99926 0.0
H348 H 0.55447 0.52822 0.99732 0.0
C349 C 0.42223 0.52372 0.05294 0.0
N350 N 0.44494 0.51415 0.03993 0.0
C351 C 0.36978 0.49762 0.05468 0.0
C352 C 0.34017 0.46212 0.04289 0.0
H353 H 0.44462 0.5512 0.06219 0.0
H354 H 0.33636 0.38904 0.99322 0.0
H355 H 0.69135 0.72859 0.03318 0.0
H356 H 0.41572 0.41533 0.97737 0.0
H357 H 0.50784 0.47093 0.97506 0.0
H358 H 0.29397 0.39912 0.01748 0.0
H359 H 0.54568 0.58227 0.97588 0.0
H360 H 0.82237 0.78182 1.00247 0.0
H361 H 0.784 0.77967 0.02955 0.0
H362 H 0.75535 0.69662 0.95129 0.0
H363 H 0.35223 0.50524 0.06505 0.0
H364 H 0.29946 0.44248 0.04413 0.0
H365 H 0.81111 0.75162 0.97316 0.0
H366 H 0.57853 0.57601 0.94883 0.0
N367 N 0.67865 0.70054 0.00876 0.0
C368 C 0.78192 0.75894 1.00407 0.0
C369 C 0.76045 0.75757 0.01942 0.0
C370 C 0.75106 0.73038 0.991 0.0
C371 C 0.69872 0.70126 0.99371 0.0
C372 C 0.70825 0.72812 0.02154 0.0
N373 N 0.61697 0.63907 0.98478 0.0
C374 C 0.66696 0.66985 0.98132 0.0
C375 C 0.60376 0.60244 0.95789 0.0
C376 C 0.65482 0.63337 0.95418 0.0
C377 C 0.58528 0.60592 0.97331 0.0
C378 C 0.68721 0.66735 0.96598 0.0
H379 H 0.66894 0.63033 0.94223 0.0
O380 O 0.582 0.69841 0.99025 0.0
O381 O 0.51368 0.60143 0.02108 0.0
O382 O 0.59443 0.53855 0.02349 0.0
O383 O 0.63781 0.6107 0.00792 0.0
O384 O 0.51234 0.61308 0.99698 0.0
O385 O 0.61522 0.73499 0.01326 0.0
O386 O 0.50301 0.51478 0.05992 0.0
O387 O 0.60873 0.61927 0.03159 0.0
O388 O 0.57929 0.68935 0.03431 0.0
O389 O 0.52435 0.61716 0.04908 0.0
O390 O 0.58572 0.609 0.05553 0.0
O391 O 0.55469 0.49989 0.04643 0.0
C392 C 0.48228 0.59111 0.00922 0.0
C393 C 0.73918 0.69783 0.96305 0.0
C394 C 0.77098 0.72918 0.97552 0.0
C395 C 0.6048 0.74121 0.99812 0.0
C396 C 0.64315 0.78715 0.98881 0.0
C397 C 0.69184 0.81608 0.99536 0.0
C398 C 0.63127 0.80459 0.97403 0.0
C399 C 0.66766 0.85057 0.96634 0.0
C400 C 0.72773 0.86001 0.98766 0.0
C401 C 0.71588 0.87713 0.97343 0.0
C402 C 0.63399 0.56749 0.01364 0.0
C403 C 0.62431 0.63485 0.04626 0.0
C404 C 0.53312 0.49647 0.06057 0.0
C405 C 0.56575 0.51032 0.07531 0.0
C406 C 0.57163 0.54988 0.08569 0.0
C407 C 0.59278 0.48543 0.0788 0.0
C408 C 0.62594 0.50025 0.09233 0.0
C409 C 0.60565 0.56582 0.09871 0.0
C410 C 0.63304 0.54153 0.10196 0.0
C411 C 0.54832 0.66727 0.04707 0.0
H412 H 0.70238 0.80532 0.00665 0.0
H413 H 0.59379 0.78342 0.96886 0.0
H414 H 0.76508 0.88139 0.99291 0.0
H415 H 0.745 0.9115 0.96787 0.0
H416 H 0.5504 0.56908 0.0837 0.0
H417 H 0.58678 0.45369 0.07122 0.0
H418 H 0.61027 0.59673 0.10642 0.0
H419 H 0.65902 0.55438 0.11222 0.0
Gd420 Gd 0.98238 0.58386 0.17403 0.0
Gd421 Gd 1.03075 0.52903 0.20118 0.0
C422 C 1.01724 0.40697 0.16533 0.0
C423 C 0.95921 0.33024 0.17968 0.0
C424 C 0.9842 0.41213 0.19196 0.0
C425 C 1.01434 0.43599 0.17843 0.0
C426 C 0.95664 0.35894 0.19276 0.0
C427 C 0.98937 0.35419 0.166 0.0
C428 C 1.04808 0.43176 0.15187 0.0
C429 C 0.07508 0.48413 0.15166 0.0
N430 N 1.0402 0.48727 0.17794 0.0
C431 C 0.07055 0.51131 0.16477 0.0
H432 H 0.09066 0.55135 0.16381 0.0
C433 C 0.9514 0.41821 0.21773 0.0
N434 N 0.98085 0.44071 0.20418 0.0
C435 C 0.92449 0.36579 0.2192 0.0
C436 C 0.9269 0.33599 0.20662 0.0
H437 H 0.94876 0.44064 0.22758 0.0
H438 H 0.99099 0.33151 0.15599 0.0
H439 H 1.03919 0.70605 0.18324 0.0
H440 H 1.05129 0.41085 0.14159 0.0
H441 H 0.09889 0.50375 0.14125 0.0
H442 H 0.93795 0.28946 0.18003 0.0
H443 H 0.98183 0.4948 0.148 0.0
H444 H 0.10701 0.78931 0.13916 0.0
H445 H 0.08675 0.7878 0.16872 0.0
H446 H 0.08204 0.66073 0.1003 0.0
H447 H 0.90142 0.34843 0.22995 0.0
H448 H 0.90536 0.29534 0.20767 0.0
H449 H 0.10421 0.74149 0.11359 0.0
H450 H 1.00469 0.49036 0.11945 0.0
N451 N 1.03358 0.66276 0.16207 0.0
C452 C 0.08615 0.75353 0.14545 0.0
C453 C 0.07506 0.75288 0.16217 0.0
C454 C 0.07118 0.70811 0.1371 0.0
C455 C 1.04415 0.6626 0.14582 0.0
C456 C 1.04843 0.70681 0.17035 0.0
N457 N 1.00872 0.57389 0.14759 0.0
C458 C 1.03193 0.61684 0.13842 0.0
C459 C 1.01235 0.52615 0.12461 0.0
C460 C 1.03555 0.56965 0.11505 0.0
C461 C 0.99917 0.52893 0.14091 0.0
C462 C 1.04607 0.61582 0.12195 0.0
H463 H 1.04587 0.5673 0.10245 0.0
O464 O 0.92348 0.57868 0.15773 0.0
O465 O 0.96986 0.50818 0.18255 0.0
O466 O 0.10587 0.59557 0.18956 0.0
O467 O 0.07306 0.631 0.17179 0.0
O468 O 0.92133 0.50388 0.1653 0.0
O469 O 0.9441 0.62726 0.17901 0.0
O470 O 1.04128 0.49941 0.2239 0.0
O471 O 1.0348 0.60285 0.19595 0.0
O472 O 0.93793 0.56998 0.19858 0.0
O473 O 0.95729 0.51601 0.21319 0.0
O474 O 1.02743 0.58092 0.22013 0.0
O475 O 0.10608 0.54557 0.20883 0.0
C476 C 0.92932 0.47529 0.17498 0.0
C477 C 0.0712 0.66092 0.11299 0.0
C478 C 0.08375 0.70693 0.12055 0.0
C479 C 0.91693 0.6122 0.16555 0.0
C480 C 0.91115 0.64966 0.15513 0.0
C481 C 0.93894 0.70117 0.15885 0.0
C482 C 0.8765 0.63414 0.14167 0.0
C483 C 0.87085 0.66997 0.13192 0.0
C484 C 0.93507 0.73648 0.14911 0.0
C485 C 0.90209 0.72133 0.13578 0.0
C486 C 0.11379 0.6314 0.17848 0.0
C487 C 1.0344 0.61781 0.21072 0.0
C488 C 0.08998 0.52508 0.22323 0.0
C489 C 0.11506 0.55605 0.2379 0.0
C490 C 0.08668 0.55587 0.25164 0.0
C491 C 0.16779 0.58457 0.23854 0.0
C492 C 0.19216 0.61188 0.2528 0.0
C493 C 0.11077 0.5829 0.26578 0.0
C494 C 0.16326 0.61089 0.2664 0.0
C495 C 0.92981 0.53856 0.21113 0.0
H496 H 0.96383 0.71451 0.16935 0.0
H497 H 0.85348 0.59432 0.13908 0.0
H498 H 0.95784 0.77617 0.15196 0.0
H499 H 0.90162 0.75053 0.12845 0.0
H500 H 1.04586 0.53433 0.25162 0.0
H501 H 0.1899 0.58363 0.22821 0.0
H502 H 0.08862 0.58174 0.27637 0.0
H503 H 0.18136 0.631 0.27758 0.0
Gd504 Gd 0.14537 0.65609 0.49944 0.0
Gd505 Gd 0.09997 0.55836 0.472 0.0
C506 C 0.0737 0.42196 0.50175 0.0
C507 C 0.12309 0.39294 0.4865 0.0
C508 C 0.12407 0.47006 0.47843 0.0
C509 C 0.0901 0.46315 0.4909 0.0
C510 C 0.14201 0.43572 0.47643 0.0
C511 C 0.089 0.38607 0.49914 0.0
C512 C 1.0448 0.41958 0.51545 0.0
C513 C 1.035 0.45885 0.51849 0.0
N514 N 0.07807 0.49985 0.49359 0.0
C515 C 1.05236 0.49903 0.50746 0.0
H516 H 1.04593 0.52954 0.51042 0.0
C517 C 0.18133 0.52415 0.45832 0.0
N518 N 0.14347 0.51302 0.46944 0.0
C519 C 0.20033 0.49131 0.45597 0.0
C520 C 0.18023 0.44664 0.46493 0.0
H521 H 0.19576 0.55722 0.45068 0.0
H522 H 0.07635 0.35397 0.50724 0.0
H523 H 0.0865 0.72229 0.49437 0.0
H524 H 1.03176 0.38876 0.52412 0.0
H525 H 1.01445 0.45846 0.52942 0.0
H526 H 0.13612 0.36599 0.48505 0.0
H527 H 0.16224 0.57355 0.52376 0.0
H528 H 1.01466 0.72104 0.53991 0.0
H529 H 1.0364 0.74983 0.51113 0.0
H530 H 1.04563 0.6118 0.57398 0.0
H531 H 0.23001 0.50017 0.44707 0.0
H532 H 0.1952 0.42139 0.46312 0.0
H533 H 1.01857 0.66976 0.56329 0.0
H534 H 0.13969 0.5387 0.55134 0.0
N535 N 0.09226 0.67845 0.51355 0.0
C536 C 1.03674 0.7091 0.53266 0.0
C537 C 1.04873 0.72528 0.51639 0.0
C538 C 1.05291 0.67733 0.53935 0.0
C539 C 0.08153 0.66281 0.52942 0.0
C540 C 0.07697 0.70976 0.50696 0.0
N541 N 0.12404 0.61604 0.5254 0.0
C542 C 0.09689 0.62989 0.53538 0.0
C543 C 0.12732 0.56424 0.54699 0.0
C544 C 0.09921 0.57767 0.55725 0.0
C545 C 0.13989 0.58419 0.53113 0.0
C546 C 0.08383 0.61102 0.55155 0.0
H547 H 0.08979 0.56226 0.56956 0.0
O548 O 0.19757 0.70742 0.51797 0.0
O549 O 0.15243 0.58555 0.49397 0.0
O550 O 1.02262 0.54827 0.48217 0.0
O551 O 1.05414 0.6148 0.5004 0.0
O552 O 0.21666 0.64785 0.50071 0.0
O553 O 0.18269 0.73779 0.49608 0.0
O554 O 0.09606 0.52673 0.44784 0.0
O555 O 0.09459 0.62789 0.47703 0.0
O556 O 0.19136 0.69103 0.4757 0.0
O557 O 0.17764 0.61841 0.46216 0.0
O558 O 0.10813 0.61469 0.45317 0.0
O559 O 1.0281 0.49979 0.46243 0.0
C560 C 0.2007 0.60252 0.4957 0.0
C561 C 1.05582 0.62589 0.56154 0.0
C562 C 1.0405 0.659 0.55547 0.0
C563 C 0.20588 0.74825 0.51033 0.0
C564 C 0.20906 0.79108 0.52058 0.0
C565 C 0.18178 0.81476 0.51583 0.0
C566 C 0.2416 0.81086 0.53457 0.0
C567 C 0.24547 0.85278 0.54381 0.0
C568 C 0.18373 0.85414 0.52505 0.0
C569 C 0.2145 0.87251 0.53888 0.0
C570 C 1.01366 0.57541 0.4933 0.0
C571 C 0.09927 0.644 0.46221 0.0
C572 C 1.04718 0.49999 0.44804 0.0
C573 C 1.02056 0.50465 0.43366 0.0
C574 C 1.04346 0.54552 0.42269 0.0
C575 C 0.97108 0.4667 0.43078 0.0
C576 C 0.9444 0.46844 0.41701 0.0
C577 C 1.01675 0.54794 0.40911 0.0
C578 C 0.96744 0.50938 0.40618 0.0
C579 C 0.20302 0.66844 0.46379 0.0
H580 H 0.15883 0.80312 0.50486 0.0
H581 H 0.26452 0.79434 0.53793 0.0
H582 H 0.16127 0.87089 0.52138 0.0
H583 H 0.21349 0.90236 0.54575 0.0
H584 H 0.08192 0.57536 0.42447 0.0
H585 H 0.95328 0.43549 0.43933 0.0
H586 H 1.03449 0.57956 0.40076 0.0
H587 H 0.94746 0.51139 0.39549 0.0
Gd588 Gd 0.51817 0.11825 0.66798 0.0
Gd589 Gd 0.57312 0.07018 0.64076 0.0
C590 C 0.69591 0.08153 0.6757 0.0
C591 C 0.77252 0.1377 0.66085 0.0
C592 C 0.69034 0.11432 0.64919 0.0
C593 C 0.66668 0.08502 0.66285 0.0
C594 C 0.74356 0.14071 0.64802 0.0
C595 C 0.74876 0.10818 0.67465 0.0
C596 C 0.67127 0.05128 0.68925 0.0
C597 C 0.61884 1.02562 0.68986 0.0
N598 N 0.61538 0.06033 0.66368 0.0
C599 C 0.59147 1.03088 0.67703 0.0
H600 H 0.55142 1.01246 0.67844 0.0
C601 C 0.68376 0.14587 0.62337 0.0
N602 N 0.66152 0.11756 0.63712 0.0
C603 C 0.7362 0.17189 0.62157 0.0
C604 C 0.76628 0.16951 0.63399 0.0
H605 H 0.66113 0.14871 0.61369 0.0
H606 H 0.77163 0.10607 0.68444 0.0
H607 H 0.39531 0.06569 0.66033 0.0
H608 H 0.69234 0.04759 0.69933 0.0
H609 H 0.59934 1.00249 0.70039 0.0
H610 H 0.81336 0.15797 0.6602 0.0
H611 H 0.60968 0.1207 0.6932 0.0
H612 H 0.31498 0.99545 0.70466 0.0
H613 H 0.3146 1.01911 0.67562 0.0
H614 H 0.44592 1.01565 0.74152 0.0
H615 H 0.75337 0.19423 0.61069 0.0
H616 H 0.80695 0.19021 0.63265 0.0
H617 H 0.36433 0.9948 0.72923 0.0
H618 H 0.61575 0.09675 0.72133 0.0
N619 N 0.43996 0.06767 0.68058 0.0
C620 C 0.35033 1.01598 0.69805 0.0
C621 C 0.34991 1.02905 0.68163 0.0
C622 C 0.39626 1.02899 0.70571 0.0
C623 C 0.44122 0.0558 0.69661 0.0
C624 C 0.3954 0.05524 0.67302 0.0
N625 N 0.53007 0.09159 0.69404 0.0
C626 C 0.4875 0.06741 0.70344 0.0
C627 C 0.57945 0.08841 0.71647 0.0
C628 C 0.53628 0.06369 0.7262 0.0
C629 C 0.5757 0.10224 0.7004 0.0
C630 C 0.48954 0.05269 0.71972 0.0
H631 H 0.5394 0.05295 0.73863 0.0
O632 O 0.51938 0.17345 0.68541 0.0
O633 O 0.59474 0.13168 0.6594 0.0
O634 O 0.5082 0.99526 0.65329 0.0
O635 O 0.46795 1.02726 0.66932 0.0
O636 O 0.59836 0.18054 0.67639 0.0
O637 O 0.47646 0.15807 0.66299 0.0
O638 O 0.59873 0.05831 0.61719 0.0
O639 O 0.49888 0.06553 0.64588 0.0
O640 O 0.53297 0.16388 0.64371 0.0
O641 O 0.58887 0.14548 0.62974 0.0
O642 O 0.52298 0.07783 0.62214 0.0
O643 O 0.55474 0.99456 0.63275 0.0
C644 C 0.62759 0.17298 0.66674 0.0
C645 C 0.44493 1.02705 0.72899 0.0
C646 C 0.39845 1.01523 0.722 0.0
C647 C 0.48817 0.18215 0.67711 0.0
C648 C 0.44852 0.18751 0.68669 0.0
C649 C 0.39958 0.16674 0.68026 0.0
C650 C 0.45974 0.21651 0.70158 0.0
C651 C 0.42247 0.22471 0.70956 0.0
C652 C 0.36282 0.17348 0.68822 0.0
C653 C 0.37402 0.20208 0.70258 0.0
C654 C 0.46949 0.98661 0.66335 0.0
C655 C 0.48408 0.06682 0.63116 0.0
C656 C 0.57219 1.00974 0.61797 0.0
C657 C 0.53678 0.98493 0.60418 0.0
C658 C 0.52436 1.01306 0.5934 0.0
C659 C 0.51393 0.93265 0.60198 0.0
C660 C 0.47758 0.90806 0.58952 0.0
C661 C 0.48797 0.9891 0.5813 0.0
C662 C 0.46408 0.93701 0.57952 0.0
C663 C 0.56616 0.17298 0.63156 0.0
H664 H 0.38952 0.14551 0.66889 0.0
H665 H 0.49747 0.23373 0.70663 0.0
H666 H 0.32524 0.15676 0.68309 0.0
H667 H 0.3442 0.20622 0.70834 0.0
H668 H 0.54232 0.05364 0.59433 0.0
H669 H 0.52564 0.91174 0.6098 0.0
H670 H 0.47832 1.01106 0.57325 0.0
H671 H 0.43527 0.91968 0.57018 0.0
Gd672 Gd 0.44838 0.50417 0.83491 0.0
Gd673 Gd 0.53455 0.54938 0.80396 0.0
C674 C 0.67587 0.67243 0.82809 0.0
C675 C 0.69386 0.74499 0.81127 0.0
C676 C 0.61827 0.66436 0.80622 0.0
C677 C 0.63162 0.64272 0.81888 0.0
C678 C 0.64902 0.71593 0.80248 0.0
C679 C 0.70727 0.7233 0.82401 0.0
C680 C 0.68626 0.65069 0.84154 0.0
C681 C 0.65241 0.60093 0.84578 0.0
N682 N 0.59948 0.59395 0.82301 0.0
C683 C 0.60904 0.57301 0.83635 0.0
H684 H 0.58326 0.53513 0.84003 0.0
C685 C 0.55921 0.656 0.78591 0.0
N686 N 0.57405 0.63576 0.79818 0.0
C687 C 0.58817 0.70702 0.78195 0.0
C688 C 0.6333 0.73712 0.79024 0.0
H689 H 0.52589 0.63278 0.77873 0.0
H690 H 0.74142 0.74655 0.83092 0.0
H691 H 0.37948 0.37819 0.83672 0.0
H692 H 0.71966 0.67233 0.84896 0.0
H693 H 0.65956 0.58405 0.85637 0.0
H694 H 0.71796 0.78458 0.80851 0.0
H695 H 0.53184 0.61206 0.85556 0.0
H696 H 0.4257 0.32732 0.87876 0.0
H697 H 0.3704 0.3088 0.85456 0.0
H698 H 0.55667 0.47985 0.90234 0.0
H699 H 0.57611 0.72291 0.77228 0.0
H700 H 0.65574 0.77663 0.78709 0.0
H701 H 0.49555 0.39125 0.89638 0.0
H702 H 0.58943 0.63615 0.87869 0.0
N703 N 0.43919 0.43537 0.8508 0.0
C704 C 0.42963 0.35794 0.87107 0.0
C705 C 0.39831 0.34732 0.85742 0.0
C706 C 0.46554 0.40789 0.87468 0.0
C707 C 0.4694 0.44643 0.86426 0.0
C708 C 0.40328 0.38663 0.84742 0.0
N709 N 0.50494 0.53317 0.85761 0.0
C710 C 0.50409 0.49665 0.86748 0.0
C711 C 0.56611 0.59675 0.87555 0.0
C712 C 0.5676 0.5599 0.88515 0.0
C713 C 0.53368 0.58267 0.86206 0.0
C714 C 0.53547 0.50914 0.88145 0.0
H715 H 0.59234 0.571 0.89573 0.0
O716 O 0.40962 0.52156 0.85404 0.0
O717 O 0.51537 0.58081 0.82659 0.0
O718 O 0.55153 0.4865 0.8135 0.0
O719 O 0.4902 0.4539 0.83338 0.0
O720 O 0.45187 0.58151 0.83327 0.0
O721 O 0.36657 0.45388 0.84023 0.0
O722 O 0.55028 0.55841 0.7777 0.0
O723 O 0.46844 0.47551 0.8118 0.0
O724 O 0.40395 0.50568 0.81178 0.0
O725 O 0.47159 0.5655 0.79664 0.0
O726 O 0.47329 0.49488 0.78749 0.0
O727 O 0.60112 0.55049 0.79444 0.0
C728 C 0.49665 0.61101 0.82787 0.0
C729 C 0.53264 0.47079 0.89163 0.0
C730 C 0.49767 0.42034 0.88829 0.0
C731 C 0.36607 0.4807 0.85278 0.0
C732 C 0.34264 0.45601 0.86917 0.0
C733 C 0.37479 0.45452 0.88117 0.0
C734 C 0.29201 0.44152 0.87427 0.0
C735 C 0.27492 0.42305 0.89065 0.0
C736 C 0.35768 0.43432 0.89669 0.0
C737 C 0.30826 0.41826 0.90132 0.0
C738 C 0.52853 0.45253 0.82536 0.0
C739 C 0.44788 0.45887 0.79766 0.0
C740 C 0.58917 0.55201 0.77919 0.0
C741 C 0.59277 0.51554 0.76831 0.0
C742 C 0.55071 0.47365 0.76143 0.0
C743 C 0.64052 0.52133 0.76605 0.0
C744 C 0.64761 0.4863 0.75695 0.0
C745 C 0.55725 0.43804 0.75246 0.0
C746 C 0.60547 0.44423 0.75019 0.0
C747 C 0.4221 0.53825 0.7992 0.0
H748 H 0.41439 0.47201 0.87902 0.0
H749 H 0.26699 0.44583 0.86587 0.0
H750 H 0.38367 0.43318 0.90547 0.0
H751 H 0.29672 0.4044 0.91373 0.0
H752 H 0.51314 0.46803 0.76316 0.0
H753 H 0.67222 0.55262 0.77211 0.0
H754 H 0.525 0.40519 0.7474 0.0
H755 H 0.60971 0.41625 0.74325 0.0
Gd756 Gd 0.97691 0.42274 1.00263 0.0
Gd757 Gd 1.015 0.51468 0.97185 0.0
C758 C 1.01254 0.63512 1.00479 0.0
C759 C 0.94806 0.64747 0.99179 0.0
C760 C 0.96764 0.58454 0.9811 0.0
C761 C 1.00416 0.5973 0.99314 0.0
C762 C 0.93897 0.60932 0.98043 0.0
C763 C 0.98451 0.66014 1.004 0.0
C764 C 1.04896 0.64694 0.01693 0.0
C765 C 0.07601 0.62135 0.0173 0.0
N766 N 1.03071 0.57229 0.99368 0.0
C767 C 0.0664 0.58413 1.00559 0.0
H768 H 0.08727 0.56482 0.00664 0.0
C769 C 0.92237 0.53271 0.95859 0.0
N770 N 0.95894 0.54689 0.97039 0.0
C771 C 0.89332 0.55635 0.95746 0.0
C772 C 0.90157 0.59477 0.96843 0.0
H773 H 0.91614 0.50398 0.94967 0.0
H774 H 0.9907 0.68935 0.0128 0.0
H775 H 1.03275 0.35425 0.99658 0.0
H776 H 1.05639 0.67562 0.02609 0.0
H777 H 0.10407 0.62993 0.02674 0.0
H778 H 0.92687 0.66726 0.9913 0.0
H779 H 0.97778 0.51954 0.02481 0.0
H780 H 0.11401 0.36149 0.04037 0.0
H781 H 0.08516 0.32784 0.01235 0.0
H782 H 0.09582 0.48065 0.07398 0.0
H783 H 0.86458 0.54491 0.94809 0.0
H784 H 0.87873 0.61278 0.96759 0.0
H785 H 0.11721 0.41808 0.06338 0.0
H786 H 1.00685 0.55911 0.05166 0.0
N787 N 1.03243 0.4019 0.01558 0.0
C788 C 0.09086 0.37286 0.03356 0.0
C789 C 0.07485 0.35394 0.01772 0.0
C790 C 0.07744 0.40678 0.04037 0.0
C791 C 1.0472 0.42035 0.03104 0.0
C792 C 1.04531 0.36883 0.00884 0.0
N793 N 1.00774 0.46984 0.02722 0.0
C794 C 1.03511 0.45587 0.03692 0.0
C795 C 1.01478 0.52987 0.04772 0.0
C796 C 1.04216 0.51545 0.05783 0.0
C797 C 0.99789 0.50672 0.0324 0.0
C798 C 1.05305 0.47838 0.05245 0.0
H799 H 1.05531 0.53366 0.06966 0.0
O800 O 0.92692 0.37154 0.02166 0.0
O801 O 0.95927 0.4812 0.99241 0.0
O802 O 0.09458 0.52706 0.98169 0.0
O803 O 0.06774 0.46561 1.00183 0.0
O804 O 0.91489 0.44179 0.01114 0.0
O805 O 0.93849 0.34103 0.99916 0.0
O806 O 1.01348 0.54646 0.94846 0.0
O807 O 1.02361 0.44904 0.97913 0.0
O808 O 0.92622 0.38426 0.9801 0.0
O809 O 0.9423 0.44869 0.96144 0.0
O810 O 1.01152 0.45508 0.95475 0.0
O811 O 0.08418 0.57637 0.96131 0.0
C812 C 0.91974 0.4751 1.00046 0.0
C813 C 0.08199 0.46389 0.06201 0.0
C814 C 0.09414 0.42821 0.05598 0.0
C815 C 0.91717 0.33066 0.01372 0.0
C816 C 0.91423 0.28713 0.0234 0.0
C817 C 0.93772 0.26101 0.01713 0.0
C818 C 0.88463 0.26837 0.03812 0.0
C819 C 0.87868 0.22403 0.04612 0.0
C820 C 0.9333 0.21879 0.02514 0.0
C821 C 0.90425 0.2005 0.03936 0.0
C822 C 0.10622 0.50303 0.99339 0.0
C823 C 1.02186 0.42917 0.965 0.0
C824 C 0.06154 0.57735 0.94785 0.0
C825 C 0.08616 0.58092 0.93185 0.0
C826 C 1.05717 0.55741 0.91775 0.0
C827 C 0.13861 0.61115 0.93028 0.0
C828 C 0.16218 0.61719 0.91489 0.0
C829 C 0.08028 0.56412 0.90243 0.0
C830 C 0.13245 0.59399 0.90095 0.0
C831 C 0.91544 0.40098 0.96638 0.0
H832 H 0.95918 0.27266 0.00582 0.0
H833 H 0.86519 0.28715 0.04299 0.0
H834 H 0.95216 0.19959 0.02014 0.0
H835 H 0.90204 0.16762 0.04517 0.0
H836 H 1.01652 0.53429 0.91846 0.0
H837 H 0.16103 0.63019 0.94101 0.0
H838 H 1.05767 0.54592 0.89167 0.0
H839 H 0.14966 0.59765 0.88899 0.0
Gd840 Gd 0.59602 0.97215 0.16993 0.0
Gd841 Gd 0.55324 1.0117 0.13601 0.0
C842 C 0.4141 1.00336 0.15973 0.0
C843 C 0.34803 0.94951 0.14063 0.0
C844 C 0.43483 0.96987 0.13572 0.0
C845 C 0.44982 0.99839 0.15003 0.0
C846 C 0.38381 0.94551 0.1308 0.0
C847 C 0.36313 0.97833 0.15506 0.0
C848 C 0.43079 1.03409 0.17371 0.0
C849 C 0.48206 0.05964 0.17753 0.0
N850 N 0.49934 1.02189 0.15432 0.0
C851 C 0.516 0.05327 0.1676 0.0
H852 H 0.55521 0.07288 0.17083 0.0
C853 C 0.45716 0.93933 0.11218 0.0
N854 N 0.46999 0.96565 0.12665 0.0
C855 C 0.4071 0.91469 0.1068 0.0
C856 C 0.37021 0.9176 0.11618 0.0
H857 H 0.48551 0.93712 0.10478 0.0
H858 H 0.33517 0.9815 0.16243 0.0
H859 H 0.72119 1.02666 0.16542 0.0
H860 H 0.40458 1.03897 0.18147 0.0
H861 H 0.49548 0.08405 0.18819 0.0
H862 H 0.30864 0.9307 0.13712 0.0
H863 H 0.49981 0.97868 0.19012 0.0
H864 H 0.79149 0.11338 0.20872 0.0
H865 H 0.79834 0.08086 0.1815 0.0
H866 H 0.65263 0.10381 0.23934 0.0
H867 H 0.39702 0.89348 0.09542 0.0
H868 H 0.33142 0.89827 0.11201 0.0
H869 H 0.73675 0.12123 0.23033 0.0
H870 H 0.48779 1.01344 0.21563 0.0
N871 N 0.67161 1.02807 0.18357 0.0
C872 C 0.75759 0.08936 0.2018 0.0
C873 C 0.76165 0.07123 0.18641 0.0
C874 C 0.71001 0.07757 0.20789 0.0
C875 C 0.66708 0.04629 0.19842 0.0
C876 C 0.71808 1.04064 0.17736 0.0
N877 N 0.57915 1.00898 0.19325 0.0
C878 C 0.61957 1.03755 0.20318 0.0
C879 C 0.52508 1.02039 0.2123 0.0
C880 C 0.56596 0.04928 0.22253 0.0
C881 C 0.53228 1.00039 0.19772 0.0
C882 C 0.61396 0.05835 0.21803 0.0
H883 H 0.56011 0.06461 0.23383 0.0
O884 O 0.57269 0.90686 0.18557 0.0
O885 O 0.52358 0.95677 0.15715 0.0
O886 O 0.61608 0.08957 0.1473 0.0
O887 O 0.64093 0.06244 0.16991 0.0
O888 O 0.51367 0.91606 0.17757 0.0
O889 O 0.64623 0.94023 0.17515 0.0
O890 O 0.55443 1.02835 0.11002 0.0
O891 O 0.62418 1.01751 0.14598 0.0
O892 O 0.58874 0.92135 0.1475 0.0
O893 O 0.53844 0.93345 0.12834 0.0
O894 O 0.6087 1.0003 0.12136 0.0
O895 O 0.55741 0.08143 0.12833 0.0
C896 C 0.48823 0.91909 0.16543 0.0
C897 C 0.65637 0.08774 0.22788 0.0
C898 C 0.70427 0.09746 0.2228 0.0
C899 C 0.6156 0.90771 0.18591 0.0
C900 C 0.63378 0.90604 0.20314 0.0
C901 C 0.62599 0.93406 0.21537 0.0
C902 C 0.65131 0.87255 0.20839 0.0
C903 C 0.66301 0.87064 0.22539 0.0
C904 C 0.63939 0.93389 0.23165 0.0
C905 C 0.65807 0.90292 0.23659 0.0
C906 C 0.64559 0.10082 0.16061 0.0
C907 C 0.64302 1.01186 0.13243 0.0
C908 C 0.56294 0.0739 0.11285 0.0
C909 C 0.60657 0.1157 0.10445 0.0
C910 C 0.63816 0.10716 0.09388 0.0
C911 C 0.61731 0.16533 0.10732 0.0
C912 C 0.65927 0.20621 0.09994 0.0
C913 C 0.67952 0.14771 0.08635 0.0
C914 C 0.6903 0.19695 0.08942 0.0
C915 C 0.55986 0.90751 0.13393 0.0
H916 H 0.60667 0.95425 0.21255 0.0
H917 H 0.65458 0.84771 0.19957 0.0
H918 H 0.63339 0.9566 0.24065 0.0
H919 H 0.6667 0.90255 0.24949 0.0
H920 H 0.63102 0.06934 0.09142 0.0
H921 H 0.59247 0.17205 0.11519 0.0
H922 H 0.70347 0.14125 0.07807 0.0
H923 H 0.72292 0.22776 0.08358 0.0
Gd924 Gd 0.67522 0.57827 0.33534 0.0
Gd925 Gd 0.58381 0.52154 0.30431 0.0
C926 C 0.46446 0.39666 0.33631 0.0
C927 C 0.45014 0.32165 0.32147 0.0
C928 C 0.51429 0.40459 0.31206 0.0
C929 C 0.50209 0.42696 0.3248 0.0
C930 C 0.48782 0.35173 0.31015 0.0
C931 C 0.43879 0.34403 0.3346 0.0
C932 C 0.45347 0.42006 0.34919 0.0
C933 C 0.47945 0.47238 0.35032 0.0
N934 N 0.52734 0.47809 0.32608 0.0
C935 C 0.51619 0.50085 0.33861 0.0
H936 H 0.53575 0.54075 0.34006 0.0
C937 C 0.56553 0.41348 0.289 0.0
N938 N 0.55231 0.43434 0.30165 0.0
C939 C 0.53914 0.36155 0.2863 0.0
C940 C 0.49981 0.33058 0.29683 0.0
H941 H 0.5948 0.4369 0.2804 0.0
H942 H 0.4098 0.32031 0.34332 0.0
H943 H 0.73185 0.69951 0.32456 0.0
H944 H 0.42499 0.39813 0.35829 0.0
H945 H 0.47137 0.49093 0.36028 0.0
H946 H 0.42974 0.281 0.32023 0.0
H947 H 0.58325 0.48952 0.35978 0.0
H948 H 0.72547 0.78465 0.36562 0.0
H949 H 0.75224 0.78165 0.33707 0.0
H950 H 0.62364 0.65722 0.40471 0.0
H951 H 0.54888 0.34548 0.276 0.0
H952 H 0.47902 0.29037 0.29458 0.0
H953 H 0.67891 0.73798 0.39107 0.0
H954 H 0.54755 0.48504 0.38717 0.0
N955 N 0.69305 0.65734 0.34566 0.0
C956 C 0.71648 0.74874 0.3602 0.0
C957 C 0.73133 0.74719 0.34401 0.0
C958 C 0.68906 0.70387 0.36904 0.0
C959 C 0.67804 0.65811 0.36141 0.0
C960 C 0.71956 0.70088 0.33691 0.0
N961 N 0.63163 0.56887 0.36032 0.0
C962 C 0.64595 0.61231 0.36891 0.0
C963 C 0.57551 0.52107 0.38224 0.0
C964 C 0.59043 0.56508 0.39128 0.0
C965 C 0.59637 0.52371 0.36669 0.0
C966 C 0.62539 0.61155 0.38454 0.0
H967 H 0.57373 0.56288 0.40325 0.0
O968 O 0.72363 0.57246 0.35389 0.0
O969 O 0.61793 0.50099 0.3251 0.0
O970 O 0.56848 0.58729 0.31361 0.0
O971 O 0.62574 0.61965 0.33491 0.0
O972 O 0.65562 0.49852 0.34456 0.0
O973 O 0.75804 0.62688 0.33462 0.0
O974 O 0.55788 0.49578 0.27966 0.0
O975 O 0.64773 0.59617 0.31165 0.0
O976 O 0.71542 0.56837 0.31272 0.0
O977 O 0.65105 0.51448 0.29483 0.0
O978 O 0.64303 0.57758 0.28732 0.0
O979 O 0.51689 0.52142 0.29491 0.0
C980 C 0.62417 0.46863 0.3337 0.0
C981 C 0.63886 0.65715 0.39266 0.0
C982 C 0.67044 0.70319 0.38491 0.0
C983 C 0.76587 0.60874 0.3482 0.0
C984 C 0.80275 0.64411 0.36092 0.0
C985 C 0.80565 0.69061 0.36397 0.0
C986 C 0.83455 0.63165 0.37048 0.0
C987 C 0.8671 0.66531 0.38292 0.0
C988 C 0.83612 0.72268 0.37636 0.0
C989 C 0.86625 0.71015 0.38576 0.0
C990 C 0.58979 0.62141 0.32583 0.0
C991 C 0.66747 0.61425 0.29755 0.0
C992 C 0.52083 0.50507 0.28044 0.0
C993 C 0.51216 0.52734 0.26558 0.0
C994 C 0.5204 0.5125 0.25003 0.0
C995 C 0.49137 0.55925 0.2666 0.0
C996 C 0.47752 0.57518 0.25224 0.0
C997 C 0.50765 0.52874 0.23578 0.0
C998 C 0.48577 0.55928 0.23683 0.0
C999 C 0.6993 0.53853 0.29945 0.0
H1000 H 0.7847 0.70286 0.35673 0.0
H1001 H 0.8345 0.59674 0.36813 0.0
H1002 H 0.83698 0.75808 0.37851 0.0
H1003 H 0.89046 0.7366 0.39503 0.0
H1004 H 0.53577 0.48738 0.24887 0.0
H1005 H 0.48563 0.57125 0.27856 0.0
H1006 H 0.51368 0.51665 0.22387 0.0
H1007 H 0.47443 0.56947 0.22554 0.0
H1008 H 1.02473 0.65059 0.24093 0.0
H1009 H 0.12101 0.70186 0.19799 0.0
H1010 H 0.18904 0.76845 0.21466 0.0
H1011 H 0.07191 0.78253 0.25695 0.0
H1012 H 0.06381 0.76183 0.27802 0.0
H1013 H 1.02249 0.72017 0.26233 0.0
H1014 H 1.04693 0.6515 0.27023 0.0
H1015 H 0.08456 0.69369 0.2864 0.0
H1016 H 0.11323 0.67137 0.27181 0.0
H1017 H 0.25286 0.82082 0.23842 0.0
H1018 H 0.29579 0.86746 0.26392 0.0
H1019 H 0.15421 0.78855 0.29031 0.0
C1020 C 1.0596 0.67682 0.23485 0.0
C1021 C 0.06764 0.66929 0.21807 0.0
C1022 C 0.11395 0.70487 0.21078 0.0
C1023 C 0.15314 0.74308 0.22029 0.0
C1024 C 0.14518 0.74678 0.23709 0.0
C1025 C 0.09847 0.71595 0.24407 0.0
C1026 C 0.09819 0.72898 0.26215 0.0
C1027 C 0.06196 0.74962 0.26503 0.0
C1028 C 0.08477 0.68355 0.27328 0.0
C1029 C 0.15279 0.76979 0.26459 0.0
C1030 C 0.17966 0.77954 0.25006 0.0
C1031 C 0.23162 0.81386 0.24972 0.0
C1032 C 0.25603 0.83976 0.26436 0.0
C1033 C 0.22873 0.83171 0.27924 0.0
C1034 C 0.1764 0.79572 0.2792 0.0
H1035 H 0.42866 0.12362 0.45938 0.0
H1036 H 0.44664 0.25629 0.43434 0.0
H1037 H 0.44289 0.21572 0.40743 0.0
H1038 H 0.50754 0.10074 0.43111 0.0
H1039 H 0.47022 1.03314 0.43298 0.0
H1040 H 0.47293 0.07289 0.44978 0.0
H1041 H 0.37536 1.02922 0.4493 0.0
H1042 H 0.37271 0.99091 0.43202 0.0
H1043 H 0.34388 1.0299 0.43067 0.0
H1044 H 0.4339 0.15729 0.38271 0.0
H1045 H 0.44266 0.09915 0.36365 0.0
H1046 H 0.43621 1.00674 0.40468 0.0
C1047 C 0.43242 0.14444 0.44823 0.0
C1048 C 0.43834 0.19365 0.44911 0.0
C1049 C 0.44289 0.21916 0.43413 0.0
C1050 C 0.44 0.19591 0.41874 0.0
C1051 C 0.43279 0.14689 0.41834 0.0
C1052 C 0.43038 0.12206 0.43277 0.0
C1053 C 0.42641 0.07124 0.42907 0.0
C1054 C 0.47198 0.06935 0.43617 0.0
C1055 C 0.37662 1.02775 0.43567 0.0
C1056 C 0.42728 0.07116 0.41032 0.0
C1057 C 0.4296 0.11455 0.40434 0.0
C1058 C 0.43194 0.12329 0.3874 0.0
C1059 C 0.43572 0.08908 0.37651 0.0
C1060 C 0.43865 0.04694 0.38236 0.0
C1061 C 0.43188 1.03704 0.39955 0.0
H1062 H 0.28201 0.482 0.58191 0.0
H1063 H 0.29348 0.41232 0.6269 0.0
H1064 H 0.34822 0.38606 0.61227 0.0
H1065 H 0.27228 0.37846 0.55621 0.0
H1066 H 0.30448 0.41757 0.53884 0.0
H1067 H 0.26766 0.43404 0.55224 0.0
H1068 H 0.34448 0.5227 0.5591 0.0
H1069 H 0.37672 0.50738 0.54352 0.0
H1070 H 0.40378 0.52593 0.56352 0.0
H1071 H 0.40028 0.36474 0.59202 0.0
H1072 H 0.45724 0.36541 0.57036 0.0
H1073 H 0.41291 0.45027 0.53891 0.0
C1074 C 0.29541 0.46081 0.58882 0.0
C1075 C 0.28214 0.44884 0.60577 0.0
C1076 C 0.3026 0.42237 0.6141 0.0
C1077 C 0.33335 0.40666 0.60576 0.0
C1078 C 0.34335 0.41713 0.58895 0.0
C1079 C 0.32533 0.44417 0.58063 0.0
C1080 C 0.34031 0.4495 0.56248 0.0
C1081 C 0.2934 0.41807 0.55182 0.0
C1082 C 0.36787 0.50468 0.55686 0.0
C1083 C 0.37466 0.4265 0.56227 0.0
C1084 C 0.37349 0.4055 0.57743 0.0
C1085 C 0.40123 0.38119 0.58018 0.0
C1086 C 0.43309 0.38109 0.5676 0.0
C1087 C 0.4392 0.40679 0.55249 0.0
C1088 C 0.40803 0.4284 0.54974 0.0
H1089 H 0.97049 0.36755 0.71226 0.0
H1090 H 0.126 0.44301 0.72817 0.0
H1091 H 0.09932 0.39664 0.75459 0.0
H1092 H 0.91987 0.37744 0.75055 0.0
H1093 H 0.86235 0.31884 0.74736 0.0
H1094 H 0.89926 0.35558 0.73008 0.0
H1095 H 0.9041 0.27193 0.72007 0.0
H1096 H 0.86501 0.24148 0.73778 0.0
H1097 H 0.92446 0.24312 0.73509 0.0
H1098 H 1.05235 0.35038 0.78119 0.0
H1099 H 0.99357 0.3001 0.80331 0.0
H1100 H 0.86688 0.25574 0.77046 0.0
C1101 C 0.99935 0.3724 0.72095 0.0
C1102 C 1.05084 0.40815 0.71773 0.0
C1103 C 0.08685 0.4148 0.72986 0.0
C1104 C 0.07164 0.38909 0.74511 0.0
C1105 C 1.02007 0.35699 0.74825 0.0
C1106 C 0.98461 0.34799 0.73632 0.0
C1107 C 0.93131 0.31486 0.74299 0.0
C1108 C 0.90134 0.34319 0.7427 0.0
C1109 C 0.90451 0.26493 0.73343 0.0
C1110 C 0.94171 0.3062 0.76061 0.0
C1111 C 0.99325 0.33117 0.76341 0.0
C1112 C 1.01215 0.33016 0.77889 0.0
C1113 C 0.97816 0.30165 0.79149 0.0
C1114 C 0.92511 0.27345 0.78884 0.0
C1115 C 0.90683 0.27692 0.77313 0.0
H1116 H 0.69533 0.07658 0.90831 0.0
H1117 H 0.64099 0.97208 0.86776 0.0
H1118 H 0.634 0.90424 0.88581 0.0
H1119 H 0.76977 1.02361 0.92776 0.0
H1120 H 0.75548 1.03586 0.94821 0.0
H1121 H 0.75949 0.07605 0.93144 0.0
H1122 H 0.66881 0.05887 0.93808 0.0
H1123 H 0.66579 1.0193 0.95491 0.0
H1124 H 0.61818 0.99456 0.93919 0.0
H1125 H 0.62337 0.84413 0.91037 0.0
H1126 H 0.62556 0.80373 0.93662 0.0
H1127 H 0.69021 0.94881 0.96094 0.0
C1128 C 0.68389 1.0399 0.90302 0.0
C1129 C 0.66917 1.03023 0.88621 0.0
C1130 C 0.6531 0.98113 0.88019 0.0
C1131 C 0.64849 0.942 0.89059 0.0
C1132 C 0.66087 0.95234 0.90724 0.0
C1133 C 0.67974 1.00071 0.91327 0.0
C1134 C 0.69055 1.00247 0.9316 0.0
C1135 C 0.74719 1.03651 0.93495 0.0
C1136 C 0.65897 1.0199 0.94152 0.0
C1137 C 0.67382 0.94745 0.93509 0.0
C1138 C 0.65637 0.91881 0.92094 0.0
C1139 C 0.6376 0.86663 0.92142 0.0
C1140 C 0.63836 0.8437 0.93647 0.0
C1141 C 0.65805 0.87267 0.951 0.0
C1142 C 0.67511 0.92525 0.95014 0.0
H1143 H 0.82189 0.72047 0.12007 0.0
H1144 H 0.83383 0.58652 0.11101 0.0
H1145 H 0.7774 0.56661 0.08705 0.0
H1146 H 0.69424 0.6705 0.10848 0.0
H1147 H 0.70274 0.72676 0.0985 0.0
H1148 H 0.7438 0.73126 0.11505 0.0
H1149 H 0.8221 0.78067 0.09674 0.0
H1150 H 0.78216 0.77773 0.08001 0.0
H1151 H 0.82596 0.75488 0.07718 0.0
H1152 H 0.71696 0.56041 0.06414 0.0
H1153 H 0.65704 0.56619 0.0457 0.0
H1154 H 0.69004 0.70822 0.06756 0.0
C1155 C 0.81382 0.68729 0.113 0.0
C1156 C 0.83377 0.65559 0.11768 0.0
C1157 C 0.81948 0.6116 0.10809 0.0
C1158 C 0.78765 0.60018 0.09424 0.0
C1159 C 0.77033 0.63321 0.08981 0.0
C1160 C 0.78288 0.67584 0.09897 0.0
C1161 C 0.75901 0.70511 0.09173 0.0
C1162 C 0.72277 0.7086 0.10417 0.0
C1163 C 0.79975 0.75772 0.08608 0.0
C1164 C 0.73064 0.67222 0.07707 0.0
C1165 C 0.73786 0.63101 0.07618 0.0
C1166 C 0.71295 0.59366 0.06438 0.0
C1167 C 0.67953 0.59799 0.05348 0.0
C1168 C 0.67155 0.63997 0.05383 0.0
C1169 C 0.69769 0.67743 0.06601 0.0
H1170 H 0.41838 0.07455 0.60912 0.0
H1171 H 0.45289 0.96719 0.63088 0.0
H1172 H 0.39185 0.90052 0.61329 0.0
H1173 H 0.2812 0.98269 0.59897 0.0
H1174 H 0.28527 1.01178 0.57937 0.0
H1175 H 0.32364 0.04921 0.59631 0.0
H1176 H 0.40419 0.07915 0.57849 0.0
H1177 H 0.36518 0.04221 0.56163 0.0
H1178 H 0.41568 1.03283 0.56866 0.0
H1179 H 0.33374 0.84585 0.59067 0.0
H1180 H 0.28105 0.80837 0.56604 0.0
H1181 H 0.29074 0.95239 0.55568 0.0
C1182 C 0.41064 1.03627 0.61087 0.0
C1183 C 0.43678 1.02537 0.62327 0.0
C1184 C 0.42888 0.97563 0.62366 0.0
C1185 C 0.39528 0.9375 0.613 0.0
C1186 C 0.37035 0.94933 0.60109 0.0
C1187 C 0.37753 0.9976 0.59988 0.0
C1188 C 0.34949 1.00104 0.58485 0.0
C1189 C 0.3074 1.01182 0.5902 0.0
C1190 C 0.38584 0.04119 0.57271 0.0
C1191 C 0.3274 0.94798 0.5776 0.0
C1192 C 0.33938 0.91859 0.5873 0.0
C1193 C 0.32371 0.86852 0.58307 0.0
C1194 C 0.29406 0.84755 0.56881 0.0
C1195 C 0.28029 0.87637 0.5586 0.0
C1196 C 0.29848 0.92787 0.56317 0.0
H1197 H 0.39433 0.29643 0.71612 0.0
H1198 H 0.46976 0.22338 0.73857 0.0
H1199 H 0.4737 0.26636 0.76499 0.0
H1200 H 0.46222 0.41633 0.73574 0.0
H1201 H 0.40801 0.42416 0.73833 0.0
H1202 H 0.41025 0.3864 0.72168 0.0
H1203 H 0.32583 0.31199 0.73145 0.0
H1204 H 0.32382 0.34936 0.74833 0.0
H1205 H 0.31971 0.28944 0.75224 0.0
H1206 H 0.46198 0.31426 0.7903 0.0
H1207 H 0.45881 0.37743 0.80862 0.0
H1208 H 0.39751 0.42367 0.7688 0.0
C1209 C 0.41198 0.28952 0.72655 0.0
C1210 C 0.43165 0.25599 0.72508 0.0
C1211 C 0.45473 0.24886 0.73916 0.0
C1212 C 0.4565 0.27275 0.75434 0.0
C1213 C 0.43528 0.30423 0.75542 0.0
C1214 C 0.41445 0.31341 0.7417 0.0
C1215 C 0.3956 0.35 0.7458 0.0
C1216 C 0.42057 0.39697 0.73476 0.0
C1217 C 0.33782 0.32361 0.74437 0.0
C1218 C 0.41173 0.36246 0.76369 0.0
C1219 C 0.43253 0.33415 0.76929 0.0
C1220 C 0.44774 0.33787 0.78572 0.0
C1221 C 0.44569 0.37404 0.79617 0.0
C1222 C 0.43005 0.40752 0.79016 0.0
C1223 C 0.41013 0.39912 0.77391 0.0
H1224 H 0.11203 0.49344 0.95091 0.0
H1225 H 1.01459 0.33533 0.96125 0.0
H1226 H 0.06532 0.31439 0.94202 0.0
H1227 H 0.11888 0.47332 0.90744 0.0
H1228 H 0.18086 0.52831 0.90653 0.0
H1229 H 0.13641 0.52244 0.92233 0.0
H1230 H 0.20761 0.53698 0.9445 0.0
H1231 H 0.24707 0.5416 0.92724 0.0
H1232 H 0.23395 0.49585 0.94306 0.0
H1233 H 0.12798 0.3127 0.91928 0.0
H1234 H 0.1954 0.33055 0.89885 0.0
H1235 H 0.24574 0.4897 0.90214 0.0
C1236 C 0.1027 0.45444 0.94978 0.0
C1237 C 0.06028 0.41625 0.95833 0.0
C1238 C 1.04792 0.36556 0.95554 0.0
C1239 C 0.07625 0.35335 0.94435 0.0
C1240 C 0.11652 0.39211 0.93562 0.0
C1241 C 0.12965 0.44167 0.9384 0.0
C1242 C 0.17081 0.47639 0.92654 0.0
C1243 C 0.15071 0.50174 0.91496 0.0
C1244 C 0.21766 0.51511 0.93588 0.0
C1245 C 0.18122 0.43979 0.91707 0.0
C1246 C 0.14913 0.39098 0.92224 0.0
C1247 C 0.15262 0.35095 0.91522 0.0
C1248 C 0.19068 0.36137 0.90334 0.0
C1249 C 0.22502 0.41144 0.89822 0.0
C1250 C 0.21911 0.45086 0.90511 0.0
H1251 H 0.68419 0.99725 0.10456 0.0
H1252 H 0.72001 0.10513 0.14387 0.0
H1253 H 0.78249 0.17207 0.12591 0.0
H1254 H 0.82298 0.06144 0.08996 0.0
H1255 H 0.80332 0.04245 0.06904 0.0
H1256 H 0.7661 1.00295 0.08581 0.0
H1257 H 0.68868 1.00392 0.07417 0.0
H1258 H 0.72542 0.04505 0.05772 0.0
H1259 H 0.68981 0.06262 0.07116 0.0
H1260 H 0.82945 0.23151 0.10086 0.0
H1261 H 0.87304 0.27129 0.07469 0.0
H1262 H 0.81249 0.12321 0.05267 0.0
C1263 C 0.7066 1.03468 0.10968 0.0
C1264 C 0.6951 0.04599 0.12561 0.0
C1265 C 0.72574 0.09546 0.13164 0.0
C1266 C 0.76162 0.13402 0.1214 0.0
C1267 C 0.76841 0.12255 0.10525 0.0
C1268 C 0.74352 0.0733 0.09975 0.0
C1269 C 0.75894 0.0701 0.08213 0.0
C1270 C 0.78967 0.04262 0.08171 0.0
C1271 C 0.71301 0.044 0.07064 0.0
C1272 C 0.7924 0.1257 0.07799 0.0
C1273 C 0.79818 0.15552 0.09154 0.0
C1274 C 0.82609 0.20818 0.09037 0.0
C1275 C 0.85026 0.23067 0.07532 0.0
C1276 C 0.84689 0.20087 0.06145 0.0
C1277 C 0.81666 0.14753 0.06296 0.0
H1278 H 0.60103 0.63291 0.28123 0.0
H1279 H 0.75757 0.70552 0.29599 0.0
H1280 H 0.77565 0.77841 0.27804 0.0
H1281 H 0.634 0.67103 0.238 0.0
H1282 H 0.57439 0.66904 0.23561 0.0
H1283 H 0.5819 0.62996 0.2507 0.0
H1284 H 0.5472 0.67249 0.27241 0.0
H1285 H 0.54686 0.71345 0.25656 0.0
H1286 H 0.58342 0.73984 0.27485 0.0
H1287 H 0.77544 0.843 0.25645 0.0
H1288 H 0.75627 0.89175 0.23622 0.0
H1289 H 0.60145 0.77117 0.23384 0.0
C1290 C 0.63885 0.66504 0.28124 0.0
C1291 C 0.67733 0.66422 0.29083 0.0
C1292 C 0.72679 0.706 0.28957 0.0
C1293 C 0.73752 0.74724 0.27909 0.0
C1294 C 0.69879 0.74566 0.26938 0.0
C1295 C 0.65047 0.70524 0.27041 0.0
C1296 C 0.61636 0.70925 0.25764 0.0
C1297 C 0.60053 0.66733 0.24472 0.0
C1298 C 0.57065 0.70857 0.26585 0.0
C1299 C 0.65145 0.75994 0.24995 0.0
C1300 C 0.69935 0.7801 0.25656 0.0
C1301 C 0.73806 0.82686 0.25121 0.0
C1302 C 0.72703 0.85407 0.23944 0.0
C1303 C 0.67778 0.83474 0.23283 0.0
C1304 C 0.63991 0.7864 0.23806 0.0
H1305 H 0.9961 0.61331 0.46202 0.0
H1306 H 0.13992 0.71878 0.44034 0.0
H1307 H 0.09609 0.73069 0.41686 0.0
H1308 H 0.93076 0.55487 0.42581 0.0
H1309 H 0.87191 0.54982 0.43196 0.0
H1310 H 0.91606 0.55254 0.44722 0.0
H1311 H 0.91618 0.63253 0.46039 0.0
H1312 H 0.87172 0.62728 0.44476 0.0
H1313 H 0.93038 0.68516 0.44727 0.0
H1314 H 1.03663 0.72127 0.39345 0.0
H1315 H 0.96629 0.70841 0.37533 0.0
H1316 H 0.85892 0.61501 0.4125 0.0
C1317 C 1.01829 0.64119 0.45286 0.0
C1318 C 0.07197 0.66654 0.45352 0.0
C1319 C 0.09909 0.70045 0.4406 0.0
C1320 C 0.07438 0.70663 0.42695 0.0
C1321 C 1.02183 0.67931 0.42627 0.0
C1322 C 0.99395 0.64879 0.43917 0.0
C1323 C 0.93772 0.62473 0.43535 0.0
C1324 C 0.91252 0.56706 0.43513 0.0
C1325 C 0.91238 0.64341 0.44768 0.0
C1326 C 0.9383 0.6447 0.41813 0.0
C1327 C 0.98746 0.67568 0.41306 0.0
C1328 C 0.99806 0.69742 0.39744 0.0
C1329 C 0.95771 0.68921 0.38706 0.0
C1330 C 0.90676 0.65954 0.39214 0.0
C1331 C 0.8972 0.63663 0.40794 0.0
H1332 H 0.57643 0.69441 0.30605 0.0
H1333 H 0.56778 0.64551 0.35642 0.0
H1334 H 0.54494 0.70908 0.36538 0.0
H1335 H 0.63375 0.83087 0.31658 0.0
H1336 H 0.60128 0.84334 0.3004 0.0
H1337 H 0.61527 0.79277 0.29826 0.0
H1338 H 0.51821 0.73004 0.29333 0.0
H1339 H 0.50739 0.78266 0.29549 0.0
H1340 H 0.4739 0.72795 0.30835 0.0
H1341 H 0.51353 0.77753 0.36893 0.0
H1342 H 0.49195 0.84557 0.36685 0.0
H1343 H 0.53276 0.86355 0.31551 0.0
C1344 C 0.5691 0.69634 0.31898 0.0
C1345 C 0.57325 0.66192 0.33034 0.0
C1346 C 0.5646 0.66912 0.34715 0.0
C1347 C 0.55136 0.70593 0.35245 0.0
C1348 C 0.54743 0.73859 0.3411 0.0
C1349 C 0.55701 0.73467 0.32466 0.0
C1350 C 0.55298 0.77667 0.31516 0.0
C1351 C 0.60379 0.81303 0.30709 0.0
C1352 C 0.5107 0.75298 0.3023 0.0
C1353 C 0.53955 0.80447 0.32861 0.0
C1354 C 0.53558 0.78106 0.34349 0.0
C1355 C 0.51923 0.79702 0.35737 0.0
C1356 C 0.50817 0.83752 0.35624 0.0
C1357 C 0.51528 0.86572 0.34159 0.0
C1358 C 0.52984 0.84657 0.32741 0.0
H1359 H 0.70517 0.48382 0.4838 0.0
H1360 H 0.69871 0.49603 0.53624 0.0
H1361 H 0.79099 0.52903 0.53796 0.0
H1362 H 0.7923 0.43149 0.48752 0.0
H1363 H 0.82328 0.4574 0.4682 0.0
H1364 H 0.75851 0.44158 0.4712 0.0
H1365 H 0.78022 0.53251 0.46398 0.0
H1366 H 0.8436 0.54602 0.46029 0.0
H1367 H 0.83172 0.58456 0.47448 0.0
H1368 H 0.89219 0.56595 0.53293 0.0
H1369 H 0.97724 0.58552 0.52366 0.0
H1370 H 0.91883 0.53303 0.47484 0.0
C1371 C 0.72319 0.49489 0.4957 0.0
C1372 C 0.69335 0.49354 0.50983 0.0
C1373 C 0.71982 0.50386 0.525 0.0
C1374 C 0.77295 0.52084 0.52605 0.0
C1375 C 0.80131 0.52443 0.51184 0.0
C1376 C 0.77625 0.50939 0.49701 0.0
C1377 C 0.81356 0.5105 0.48382 0.0
C1378 C 0.79583 0.45706 0.47729 0.0
C1379 C 0.81756 0.54562 0.46982 0.0
C1380 C 0.86449 0.53089 0.49313 0.0
C1381 C 0.85635 0.53887 0.50936 0.0
C1382 C 0.89768 0.55889 0.52025 0.0
C1383 C 0.94705 0.57048 0.51475 0.0
C1384 C 0.95773 0.56184 0.49833 0.0
C1385 C 0.91418 0.54089 0.48748 0.0
H1386 H 0.40295 0.89553 0.6437 0.0
H1387 H 0.43322 0.94475 0.6944 0.0
H1388 H 0.36793 0.85913 0.70313 0.0
H1389 H 0.26383 0.8213 0.64977 0.0
H1390 H 0.25515 0.7739 0.63486 0.0
H1391 H 0.30682 0.83738 0.63266 0.0
H1392 H 0.36947 0.80404 0.63179 0.0
H1393 H 0.31813 0.74043 0.63406 0.0
H1394 H 0.36986 0.76532 0.64841 0.0
H1395 H 0.30014 0.7572 0.70639 0.0
H1396 H 0.23442 0.66765 0.70361 0.0
H1397 H 0.22995 0.68727 0.6513 0.0
C1398 C 0.39631 0.8897 0.65668 0.0
C1399 C 0.4264 0.93048 0.66815 0.0
C1400 C 0.41321 0.91675 0.68498 0.0
C1401 C 0.37529 0.86704 0.69015 0.0
C1402 C 0.34685 0.82868 0.67857 0.0
C1403 C 0.35609 0.84036 0.66206 0.0
C1404 C 0.31746 0.79373 0.65197 0.0
C1405 C 0.28383 0.80739 0.64169 0.0
C1406 C 0.34538 0.77477 0.64088 0.0
C1407 C 0.28561 0.75348 0.66517 0.0
C1408 C 0.30423 0.7742 0.68048 0.0
C1409 C 0.28445 0.74265 0.69438 0.0
C1410 C 0.24518 0.6909 0.69279 0.0
C1411 C 0.22129 0.66847 0.67758 0.0
C1412 C 0.24391 0.70165 0.66348 0.0
H1413 H 0.54755 0.38362 0.80505 0.0
H1414 H 0.54915 0.42664 0.85585 0.0
H1415 H 0.57224 0.36321 0.86437 0.0
H1416 H 0.49298 0.24855 0.81275 0.0
H1417 H 0.53025 0.23558 0.79838 0.0
H1418 H 0.51751 0.28588 0.79434 0.0
H1419 H 0.60999 0.35227 0.79228 0.0
H1420 H 0.62548 0.30286 0.79467 0.0
H1421 H 0.65313 0.35682 0.80814 0.0
H1422 H 0.60295 0.29494 0.86769 0.0
H1423 H 0.62593 0.228 0.86545 0.0
H1424 H 0.5968 0.21769 0.81323 0.0
C1425 C 0.55234 0.37975 0.81803 0.0
C1426 C 0.54457 0.41153 0.82973 0.0
C1427 C 0.55249 0.40343 0.84645 0.0
C1428 C 0.56653 0.3671 0.85146 0.0
C1429 C 0.57297 0.33641 0.83983 0.0
C1430 C 0.56548 0.34198 0.82336 0.0
C1431 C 0.57387 0.30297 0.81343 0.0
C1432 C 0.52571 0.26607 0.8042 0.0
C1433 C 0.61823 0.33035 0.80141 0.0
C1434 C 0.5867 0.27458 0.82672 0.0
C1435 C 0.58694 0.2954 0.84187 0.0
C1436 C 0.60095 0.27794 0.85582 0.0
C1437 C 0.61341 0.23849 0.85449 0.0
C1438 C 0.61067 0.21319 0.83944 0.0
C1439 C 0.59795 0.23349 0.82525 0.0
H1440 H 0.19263 0.51336 0.97404 0.0
H1441 H 0.15164 0.5267 0.02402 0.0
H1442 H 0.23791 0.55038 0.03314 0.0
H1443 H 0.27414 0.4576 0.98628 0.0
H1444 H 0.31695 0.48759 0.96938 0.0
H1445 H 0.25182 0.47203 0.96782 0.0
H1446 H 0.2857 0.56914 0.96095 0.0
H1447 H 0.34905 0.58007 0.96317 0.0
H1448 H 0.32778 0.61541 0.97534 0.0
H1449 H 0.33733 0.58027 0.03697 0.0
H1450 H 0.4264 0.60026 0.03522 0.0
H1451 H 0.4053 0.5579 0.9839 0.0
C1452 C 0.20168 0.52189 0.9869 0.0
C1453 C 0.16291 0.51884 0.99809 0.0
C1454 C 0.17853 0.52896 0.01486 0.0
C1455 C 0.22852 0.54271 0.02025 0.0
C1456 C 0.26534 0.54568 0.00906 0.0
C1457 C 0.25205 0.53453 0.99268 0.0
C1458 C 0.2982 0.53753 0.98338 0.0
C1459 C 0.2845 0.48569 0.97625 0.0
C1460 C 0.31622 0.57783 0.96989 0.0
C1461 C 0.33956 0.55304 0.99677 0.0
C1462 C 0.31979 0.55805 0.01152 0.0
C1463 C 0.35161 0.57469 0.02542 0.0
C1464 C 0.40307 0.58543 0.0244 0.0
C1465 C 0.4249 0.57854 0.00977 0.0
C1466 C 0.39138 0.56262 0.99564 0.0
H1467 H 0.88525 0.39905 0.15023 0.0
H1468 H 0.87404 0.41824 0.20233 0.0
H1469 H 0.80678 0.32883 0.20442 0.0
H1470 H 0.74912 0.32062 0.1439 0.0
H1471 H 0.75592 0.28293 0.12801 0.0
H1472 H 0.80552 0.34659 0.13149 0.0
H1473 H 0.87023 0.31451 0.13637 0.0
H1474 H 0.81894 0.254 0.13088 0.0
H1475 H 0.85192 0.26186 0.15001 0.0
H1476 H 0.73709 0.23013 0.20053 0.0
H1477 H 0.67254 0.14509 0.19147 0.0
H1478 H 0.71628 0.18846 0.14083 0.0
C1479 C 0.86993 0.38422 0.16225 0.0
C1480 C 0.89046 0.41686 0.17649 0.0
C1481 C 0.86462 0.39485 0.19147 0.0
C1482 C 0.82462 0.34341 0.19264 0.0
C1483 C 0.80702 0.31223 0.17857 0.0
C1484 C 0.82858 0.33259 0.16354 0.0
C1485 C 0.80035 0.29241 0.15003 0.0
C1486 C 0.77627 0.31185 0.13762 0.0
C1487 C 0.83752 0.27983 0.14134 0.0
C1488 C 0.75914 0.24602 0.15958 0.0
C1489 C 0.76462 0.25832 0.17615 0.0
C1490 C 0.73289 0.22135 0.18753 0.0
C1491 C 0.69555 0.17201 0.18217 0.0
C1492 C 0.68681 0.15722 0.1653 0.0
C1493 C 0.71996 0.19646 0.15388 0.0
H1494 H 0.3081 0.64448 0.49514 0.0
H1495 H 0.17496 0.50393 0.50633 0.0
H1496 H 0.22655 0.4625 0.50863 0.0
H1497 H 0.3888 0.60204 0.47561 0.0
H1498 H 0.44522 0.64424 0.48673 0.0
H1499 H 0.39724 0.66122 0.4832 0.0
H1500 H 0.39166 0.67342 0.5144 0.0
H1501 H 0.43963 0.65649 0.51804 0.0
H1502 H 0.37939 0.62257 0.52821 0.0
H1503 H 0.29775 0.4342 0.50758 0.0
H1504 H 0.37373 0.42618 0.51076 0.0
H1505 H 0.46716 0.58834 0.50819 0.0
C1506 C 0.28922 0.60449 0.49764 0.0
C1507 C 0.23431 0.57637 0.49815 0.0
C1508 C 0.21417 0.52536 0.50312 0.0
C1509 C 0.24446 0.50179 0.50517 0.0
C1510 C 0.29744 0.52979 0.50363 0.0
C1511 C 0.31983 0.58089 0.50075 0.0
C1512 C 0.37803 0.60382 0.50216 0.0
C1513 C 0.40387 0.62939 0.48596 0.0
C1514 C 0.39841 0.64136 0.51655 0.0
C1515 C 0.38522 0.55778 0.50565 0.0
C1516 C 0.33786 0.51528 0.50604 0.0
C1517 C 0.33441 0.46789 0.50771 0.0
C1518 C 0.37879 0.46358 0.50942 0.0
C1519 C 0.42861 0.50595 0.51015 0.0
C1520 C 0.43083 0.55425 0.50814 0.0
H1521 H 0.7027 0.22511 0.69155 0.0
H1522 H 0.6871 0.22306 0.63888 0.0
H1523 H 0.77663 0.28997 0.63648 0.0
H1524 H 0.7801 0.36274 0.69463 0.0
H1525 H 0.81806 0.36201 0.71144 0.0
H1526 H 0.75467 0.31056 0.70877 0.0
H1527 H 0.78755 0.24741 0.70794 0.0
H1528 H 0.85049 0.29896 0.71076 0.0
H1529 H 0.83668 0.25709 0.69354 0.0
H1530 H 0.87598 0.36249 0.64028 0.0
H1531 H 0.96043 0.42918 0.64916 0.0
H1532 H 0.91346 0.39585 0.69995 0.0
C1533 C 0.71824 0.23746 0.67937 0.0
C1534 C 0.68642 0.21275 0.66518 0.0
C1535 C 0.70972 0.23504 0.64989 0.0
C1536 C 0.76129 0.27516 0.6485 0.0
C1537 C 0.79156 0.2969 0.66259 0.0
C1538 C 0.77 0.27906 0.67783 0.0
C1539 C 0.80945 0.31091 0.69119 0.0
C1540 C 0.78935 0.33815 0.70216 0.0
C1541 C 0.82173 0.27645 0.70147 0.0
C1542 C 0.85675 0.34964 0.68136 0.0
C1543 C 0.84557 0.34023 0.66478 0.0
C1544 C 0.88368 0.36955 0.65329 0.0
C1545 C 0.93279 0.40822 0.65854 0.0
C1546 C 0.94656 0.4207 0.67539 0.0
C1547 C 0.90627 0.38979 0.6869 0.0
H1548 H 0.50604 0.89078 0.83935 0.0
H1549 H 0.66884 0.96046 0.83965 0.0
H1550 H 0.66189 0.87711 0.83687 0.0
H1551 H 0.4758 0.77193 0.86001 0.0
H1552 H 0.42357 0.73184 0.84689 0.0
H1553 H 0.44021 0.79671 0.84997 0.0
H1554 H 0.44865 0.81088 0.81861 0.0
H1555 H 0.43212 0.74604 0.81548 0.0
H1556 H 0.49015 0.79592 0.8071 0.0
H1557 H 0.63569 0.77882 0.83833 0.0
H1558 H 0.59596 0.68635 0.83686 0.0
H1559 H 0.45197 0.6751 0.82768 0.0
C1560 C 0.54052 0.88895 0.83879 0.0
C1561 C 0.58878 0.9354 0.84009 0.0
C1562 C 0.63148 0.92811 0.83881 0.0
C1563 C 0.62779 0.87969 0.83734 0.0
C1564 C 0.58056 0.83553 0.83633 0.0
C1565 C 0.53748 0.83987 0.83643 0.0
C1566 C 0.49157 0.78609 0.83368 0.0
C1567 C 0.45563 0.77073 0.84851 0.0
C1568 C 0.46395 0.78465 0.81777 0.0
C1569 C 0.51529 0.75122 0.83218 0.0
C1570 C 0.56674 0.78072 0.8343 0.0
C1571 C 0.59591 0.75668 0.83551 0.0
C1572 C 0.57317 0.70296 0.83394 0.0
C1573 C 0.52153 0.67085 0.82982 0.0
C1574 C 0.49229 0.69687 0.82958 0.0
H1575 H 0.73137 0.59097 0.02791 0.0
H1576 H 0.63263 0.50645 0.98777 0.0
H1577 H 0.69335 0.47861 0.97945 0.0
H1578 H 0.85006 0.62953 0.00785 0.0
H1579 H 0.88212 0.62081 0.02506 0.0
H1580 H 0.83195 0.63484 0.02852 0.0
H1581 H 0.78266 0.55598 0.04599 0.0
H1582 H 0.83256 0.54116 0.04346 0.0
H1583 H 0.76877 0.49543 0.03796 0.0
H1584 H 0.76952 0.4572 0.9754 0.0
H1585 H 0.8434 0.44422 0.97699 0.0
H1586 H 0.89408 0.5381 0.02044 0.0
C1587 C 0.7214 0.56583 0.01752 0.0
C1588 C 0.67453 0.55104 0.0088 0.0
C1589 C 0.66656 0.51905 0.99498 0.0
C1590 C 0.70163 0.50276 0.99009 0.0
C1591 C 0.7465 0.51746 0.99902 0.0
C1592 C 0.75605 0.54809 0.01264 0.0
C1593 C 0.80646 0.55749 0.02045 0.0
C1594 C 0.84499 0.61404 0.02048 0.0
C1595 C 0.79706 0.53628 0.03801 0.0
C1596 C 0.82442 0.52827 0.00912 0.0
C1597 C 0.78912 0.50548 0.99676 0.0
C1598 C 0.79697 0.47579 0.98504 0.0
C1599 C 0.84027 0.46891 0.98592 0.0
C1600 C 0.87825 0.49175 0.99824 0.0
C1601 C 0.86836 0.52127 0.01024 0.0
H1602 H 0.41565 0.86079 0.18982 0.0
H1603 H 0.42644 0.87415 0.13713 0.0
H1604 H 0.33571 0.81105 0.13484 0.0
H1605 H 0.33853 0.72312 0.18715 0.0
H1606 H 0.3025 0.71553 0.20553 0.0
H1607 H 0.3657 0.768 0.20371 0.0
H1608 H 0.33507 0.83197 0.20889 0.0
H1609 H 0.27286 0.77915 0.21203 0.0
H1610 H 0.28271 0.82689 0.19716 0.0
H1611 H 0.23505 0.74303 0.13908 0.0
H1612 H 0.15079 0.67544 0.14792 0.0
H1613 H 0.206 0.68971 0.1977 0.0
C1614 C 0.39883 0.85191 0.17771 0.0
C1615 C 0.42959 0.87938 0.1636 0.0
C1616 C 0.40472 0.86097 0.14826 0.0
C1617 C 0.3524 0.82284 0.1469 0.0
C1618 C 0.32325 0.79866 0.161 0.0
C1619 C 0.34664 0.81172 0.17616 0.0
C1620 C 0.30921 0.77539 0.18927 0.0
C1621 C 0.33028 0.74367 0.19688 0.0
C1622 C 0.29937 0.80516 0.20263 0.0
C1623 C 0.26029 0.74121 0.17945 0.0
C1624 C 0.2692 0.75581 0.16311 0.0
C1625 C 0.22912 0.73155 0.15183 0.0
C1626 C 0.18028 0.6924 0.15706 0.0
C1627 C 0.1692 0.67445 0.17359 0.0
C1628 C 0.21136 0.70025 0.18486 0.0
H1629 H 0.6192 0.38599 0.31228 0.0
H1630 H 0.57854 0.41258 0.36087 0.0
H1631 H 0.55599 0.32684 0.3689 0.0
H1632 H 0.51445 0.24807 0.30956 0.0
H1633 H 0.55241 0.22575 0.2996 0.0
H1634 H 0.56612 0.28934 0.29619 0.0
H1635 H 0.65706 0.32425 0.30579 0.0
H1636 H 0.64465 0.26064 0.30878 0.0
H1637 H 0.66916 0.30537 0.32546 0.0
H1638 H 0.54815 0.2383 0.37384 0.0
H1639 H 0.53872 0.15344 0.37307 0.0
H1640 H 0.56586 0.16774 0.32058 0.0
C1641 C 0.60319 0.37338 0.32438 0.0
C1642 C 0.59921 0.40888 0.33556 0.0
C1643 C 0.58111 0.38867 0.35155 0.0
C1644 C 0.56837 0.33889 0.35642 0.0
C1645 C 0.57275 0.30582 0.34539 0.0
C1646 C 0.5883 0.3216 0.32943 0.0
C1647 C 0.5892 0.27683 0.32027 0.0
C1648 C 0.55336 0.25906 0.30552 0.0
C1649 C 0.64323 0.29272 0.31473 0.0
C1650 C 0.57081 0.23396 0.33332 0.0
C1651 C 0.56352 0.25281 0.3479 0.0
C1652 C 0.55199 0.22325 0.3622 0.0
C1653 C 0.54622 0.17386 0.36163 0.0
C1654 C 0.54848 0.1501 0.34677 0.0
C1655 C 0.56175 0.1822 0.3323 0.0
H1656 H 0.28774 0.76731 0.46189 0.0
H1657 H 0.18924 0.63779 0.4319 0.0
H1658 H 0.23367 0.68384 0.40705 0.0
H1659 H 0.30326 0.86483 0.43301 0.0
H1660 H 0.36949 0.90551 0.43702 0.0
H1661 H 0.32901 0.86364 0.45281 0.0
H1662 H 0.38757 0.82523 0.45537 0.0
H1663 H 0.42796 0.86704 0.43954 0.0
H1664 H 0.4017 0.79996 0.43734 0.0
H1665 H 0.28469 0.74511 0.38473 0.0
H1666 H 0.34609 0.81384 0.36695 0.0
H1667 H 0.42044 0.90273 0.4102 0.0
C1668 C 0.2757 0.74863 0.4501 0.0
C1669 C 0.23438 0.69832 0.44912 0.0
C1670 C 0.22055 0.67573 0.43329 0.0
C1671 C 0.24555 0.70185 0.41894 0.0
C1672 C 0.28573 0.75091 0.42028 0.0
C1673 C 0.30159 0.77398 0.43544 0.0
C1674 C 0.34778 0.82642 0.43317 0.0
C1675 C 0.3367 0.86753 0.43938 0.0
C1676 C 0.394 0.82986 0.44188 0.0
C1677 C 0.35472 0.82911 0.41445 0.0
C1678 C 0.31778 0.78525 0.40731 0.0
C1679 C 0.31421 0.7793 0.39023 0.0
C1680 C 0.34928 0.81871 0.38017 0.0
C1681 C 0.38871 0.86359 0.38703 0.0
C1682 C 0.39136 0.8686 0.40451 0.0
H1683 H 0.56008 0.39608 0.57728 0.0
H1684 H 0.59278 0.32981 0.53511 0.0
H1685 H 0.59675 0.26721 0.55325 0.0
H1686 H 0.63707 0.37552 0.60763 0.0
H1687 H 0.59168 0.35843 0.62404 0.0
H1688 H 0.59465 0.40064 0.60809 0.0
H1689 H 0.50002 0.34193 0.60189 0.0
H1690 H 0.49676 0.29955 0.61782 0.0
H1691 H 0.47758 0.27656 0.59717 0.0
H1692 H 0.59819 0.21208 0.57563 0.0
H1693 H 0.59133 0.16333 0.60021 0.0
H1694 H 0.55056 0.25761 0.62919 0.0
C1695 C 0.56893 0.36886 0.57195 0.0
C1696 C 0.57723 0.36875 0.55465 0.0
C1697 C 0.58695 0.33131 0.5482 0.0
C1698 C 0.58923 0.29546 0.55847 0.0
C1699 C 0.58064 0.29627 0.57533 0.0
C1700 C 0.5701 0.33156 0.58208 0.0
C1701 C 0.5594 0.32154 0.60055 0.0
C1702 C 0.598 0.36673 0.61068 0.0
C1703 C 0.50522 0.30917 0.6046 0.0
C1704 C 0.56605 0.27546 0.60311 0.0
C1705 C 0.57884 0.26227 0.58831 0.0
C1706 C 0.58811 0.22211 0.58724 0.0
C1707 C 0.58429 0.19459 0.60149 0.0
C1708 C 0.57061 0.20607 0.617 0.0
C1709 C 0.56103 0.24733 0.61768 0.0
H1710 H 0.32557 0.53264 0.79711 0.0
H1711 H 0.44629 0.53787 0.76717 0.0
H1712 H 0.40006 0.53301 0.74226 0.0
H1713 H 0.21978 0.45052 0.76961 0.0
H1714 H 0.18653 0.48504 0.77228 0.0
H1715 H 0.22609 0.48408 0.78853 0.0
H1716 H 0.27628 0.58149 0.78863 0.0
H1717 H 0.23682 0.58263 0.7724 0.0
H1718 H 0.30434 0.61462 0.76979 0.0
H1719 H 0.34136 0.5259 0.71983 0.0
H1720 H 0.27708 0.52612 0.70149 0.0
H1721 H 0.19625 0.53593 0.74403 0.0
C1722 C 0.34189 0.53213 0.78532 0.0
C1723 C 0.38976 0.53443 0.78448 0.0
C1724 C 0.40978 0.53515 0.76859 0.0
C1725 C 0.38367 0.53251 0.75413 0.0
C1726 C 0.3373 0.53056 0.7553 0.0
C1727 C 0.31662 0.53117 0.77042 0.0
C1728 C 0.26753 0.53244 0.76773 0.0
C1729 C 0.2223 0.48521 0.77497 0.0
C1730 C 0.27149 0.58067 0.77508 0.0
C1731 C 0.26444 0.5325 0.7489 0.0
C1732 C 0.3048 0.53041 0.74208 0.0
C1733 C 0.30981 0.52807 0.72504 0.0
C1734 C 0.27298 0.52815 0.71466 0.0
C1735 C 0.23178 0.53178 0.72113 0.0
C1736 C 0.22771 0.53405 0.73859 0.0
H1737 H 0.78541 0.25966 0.88024 0.0
H1738 H 0.65531 0.15749 0.90936 0.0
H1739 H 0.69859 0.20326 0.93451 0.0
H1740 H 0.8818 0.27842 0.90988 0.0
H1741 H 0.92121 0.34475 0.90588 0.0
H1742 H 0.88106 0.30347 0.88992 0.0
H1743 H 0.83976 0.35914 0.88655 0.0
H1744 H 0.87987 0.40063 0.90249 0.0
H1745 H 0.81233 0.37236 0.90422 0.0
H1746 H 0.7578 0.25716 0.95721 0.0
H1747 H 0.82481 0.32042 0.97512 0.0
H1748 H 0.91489 0.39485 0.93207 0.0
C1749 C 0.76602 0.24706 0.89191 0.0
C1750 C 0.71646 0.2045 0.89261 0.0
C1751 C 0.69277 0.18986 0.90825 0.0
C1752 C 0.71729 0.21562 0.92273 0.0
C1753 C 0.76573 0.25719 0.92166 0.0
C1754 C 0.78968 0.27349 0.90663 0.0
C1755 C 0.84115 0.32071 0.90905 0.0
C1756 C 0.88383 0.31126 0.90334 0.0
C1757 C 0.8434 0.36589 0.90004 0.0
C1758 C 0.84242 0.32794 0.92771 0.0
C1759 C 0.79869 0.29028 0.93472 0.0
C1760 C 0.79186 0.28717 0.95178 0.0
C1761 C 0.83027 0.32332 0.96192 0.0
C1762 C 0.87502 0.36325 0.95515 0.0
C1763 C 0.88082 0.36545 0.93771 0.0
H1764 H 0.56251 0.90289 0.09967 0.0
H1765 H 0.55313 0.81846 0.14352 0.0
H1766 H 0.54773 0.74925 0.12612 0.0
H1767 H 0.47977 0.79816 0.07355 0.0
H1768 H 0.51758 0.82296 0.05525 0.0
H1769 H 0.51888 0.86526 0.07099 0.0
H1770 H 0.61577 0.90569 0.07302 0.0
H1771 H 0.61486 0.86362 0.05727 0.0
H1772 H 0.64318 0.86634 0.07693 0.0
H1773 H 0.53833 0.6867 0.10393 0.0
H1774 H 0.53582 0.63935 0.0792 0.0
H1775 H 0.56068 0.76581 0.04867 0.0
C1776 C 0.55906 0.86967 0.10561 0.0
C1777 C 0.55752 0.86606 0.12313 0.0
C1778 C 0.55414 0.82231 0.13027 0.0
C1779 C 0.55093 0.78265 0.12042 0.0
C1780 C 0.55235 0.78728 0.10328 0.0
C1781 C 0.55729 0.83009 0.0959 0.0
C1782 C 0.5605 0.82624 0.07718 0.0
C1783 C 0.51656 0.82829 0.06874 0.0
C1784 C 0.61162 0.86796 0.07072 0.0
C1785 C 0.55577 0.77423 0.07515 0.0
C1786 C 0.55041 0.75241 0.09044 0.0
C1787 C 0.54308 0.70383 0.09196 0.0
C1788 C 0.5415 0.67695 0.07767 0.0
C1789 C 0.54822 0.69825 0.06172 0.0
C1790 C 0.55574 0.74811 0.06056 0.0
H1791 H 0.69999 0.53263 0.26508 0.0
H1792 H 0.78773 0.54301 0.30822 0.0
H1793 H 0.85331 0.54264 0.29039 0.0
H1794 H 0.73225 0.4532 0.24009 0.0
H1795 H 0.73751 0.4858 0.22112 0.0
H1796 H 0.69585 0.48437 0.23714 0.0
H1797 H 0.74099 0.58168 0.23711 0.0
H1798 H 0.7828 0.58343 0.22109 0.0
H1799 H 0.80833 0.61723 0.24004 0.0
H1800 H 0.90834 0.53803 0.26813 0.0
H1801 H 0.95332 0.53737 0.24317 0.0
H1802 H 0.83669 0.53845 0.21306 0.0
C1803 C 0.73283 0.53434 0.27076 0.0
C1804 C 0.7381 0.53713 0.28823 0.0
C1805 C 0.78237 0.54054 0.29502 0.0
C1806 C 0.81992 0.54029 0.28493 0.0
C1807 C 0.81372 0.53767 0.26787 0.0
C1808 C 0.77165 0.53545 0.26076 0.0
C1809 C 0.77604 0.53547 0.24198 0.0
C1810 C 0.73283 0.48681 0.23465 0.0
C1811 C 0.7771 0.58224 0.23462 0.0
C1812 C 0.82686 0.53756 0.23965 0.0
C1813 C 0.84731 0.5381 0.25486 0.0
C1814 C 0.89275 0.53801 0.2562 0.0
C1815 C 0.91808 0.53745 0.2418 0.0
C1816 C 0.89917 0.53801 0.2259 0.0
C1817 C 0.85271 0.53842 0.22491 0.0
H1818 H 0.91456 0.36927 0.41793 0.0
H1819 H 0.85863 0.47314 0.41009 0.0
H1820 H 0.77098 0.40113 0.40926 0.0
H1821 H 0.8228 0.26571 0.39272 0.0
H1822 H 0.81945 0.21903 0.40693 0.0
H1823 H 0.87693 0.27844 0.405 0.0
H1824 H 0.87547 0.29309 0.43639 0.0
H1825 H 0.81766 0.23415 0.4384 0.0
H1826 H 0.82077 0.29157 0.44548 0.0
H1827 H 0.68869 0.31663 0.41182 0.0
H1828 H 0.62077 0.2278 0.41606 0.0
H1829 H 0.73375 0.18312 0.42279 0.0
C1830 C 0.8839 0.37683 0.41581 0.0
C1831 C 0.89296 0.42643 0.41413 0.0
C1832 C 0.85216 0.43511 0.41128 0.0
C1833 C 0.80243 0.39457 0.41088 0.0
C1834 C 0.79471 0.34602 0.41323 0.0
C1835 C 0.83457 0.3372 0.41547 0.0
C1836 C 0.81696 0.28242 0.41864 0.0
C1837 C 0.8351 0.2601 0.405 0.0
C1838 C 0.83371 0.2749 0.43574 0.0
C1839 C 0.76079 0.26147 0.41796 0.0
C1840 C 0.74829 0.29841 0.41482 0.0
C1841 C 0.69812 0.28745 0.41417 0.0
C1842 C 0.65997 0.23731 0.41666 0.0
C1843 C 0.6728 0.1996 0.41976 0.0
C1844 C 0.72353 0.2118 0.42041 0.0
H1845 H 0.4611 0.83235 0.61151 0.0
H1846 H 0.4489 0.85927 0.55968 0.0
H1847 H 0.42705 0.77267 0.55337 0.0
H1848 H 0.53107 0.77645 0.60439 0.0
H1849 H 0.50582 0.73131 0.62089 0.0
H1850 H 0.50479 0.7894 0.62242 0.0
H1851 H 0.40926 0.73933 0.62731 0.0
H1852 H 0.4081 0.68014 0.62517 0.0
H1853 H 0.36822 0.69379 0.61238 0.0
H1854 H 0.42472 0.69163 0.55136 0.0
H1855 H 0.44431 0.62277 0.55391 0.0
H1856 H 0.46536 0.64964 0.60642 0.0
C1857 C 0.45309 0.82003 0.59884 0.0
C1858 C 0.45668 0.85329 0.58617 0.0
C1859 C 0.44522 0.83483 0.5698 0.0
C1860 C 0.43287 0.78538 0.56602 0.0
C1861 C 0.43239 0.75465 0.57866 0.0
C1862 C 0.44215 0.77117 0.59477 0.0
C1863 C 0.4483 0.73417 0.60552 0.0
C1864 C 0.50059 0.75934 0.61377 0.0
C1865 C 0.40586 0.71039 0.61834 0.0
C1866 C 0.44331 0.69587 0.59275 0.0
C1867 C 0.43268 0.70767 0.57742 0.0
C1868 C 0.43185 0.68123 0.56334 0.0
C1869 C 0.44345 0.64255 0.56489 0.0
C1870 C 0.45625 0.63114 0.58038 0.0
C1871 C 0.45461 0.65705 0.59453 0.0
H1872 H 0.67689 0.41391 0.75861 0.0
H1873 H 0.73518 0.57476 0.75262 0.0
H1874 H 0.82032 0.59083 0.75899 0.0
H1875 H 0.75581 0.41562 0.78993 0.0
H1876 H 0.76853 0.36856 0.78135 0.0
H1877 H 0.71031 0.36733 0.77661 0.0
H1878 H 0.72857 0.37062 0.74538 0.0
H1879 H 0.78571 0.36953 0.74995 0.0
H1880 H 0.78813 0.41928 0.73747 0.0
H1881 H 0.89485 0.59123 0.76968 0.0
H1882 H 0.96631 0.57612 0.77286 0.0
H1883 H 0.86558 0.41538 0.76709 0.0
C1884 C 0.70771 0.45237 0.7582 0.0
C1885 C 0.69906 0.49333 0.75592 0.0
C1886 C 0.74061 0.543 0.75515 0.0
C1887 C 0.78907 0.5526 0.75879 0.0
C1888 C 0.79567 0.5119 0.76236 0.0
C1889 C 0.75708 0.46267 0.76111 0.0
C1890 C 0.7765 0.42616 0.7638 0.0
C1891 C 0.75128 0.39244 0.77882 0.0
C1892 C 0.76932 0.39455 0.74822 0.0
C1893 C 0.83179 0.46298 0.767 0.0
C1894 C 0.84113 0.51207 0.7667 0.0
C1895 C 0.88853 0.55312 0.7696 0.0
C1896 C 0.92864 0.54415 0.77155 0.0
C1897 C 0.92113 0.4948 0.76994 0.0
C1898 C 0.87191 0.45335 0.76846 0.0
H1899 H 0.40798 0.85332 0.88822 0.0
H1900 H 0.48424 0.82573 0.92852 0.0
H1901 H 0.41284 0.73938 0.93075 0.0
H1902 H 0.29819 0.80376 0.90234 0.0
H1903 H 0.26179 0.77324 0.88422 0.0
H1904 H 0.32376 0.82633 0.88211 0.0
H1905 H 0.35215 0.77492 0.86418 0.0
H1906 H 0.2895 0.72126 0.86565 0.0
H1907 H 0.34335 0.71549 0.87149 0.0
H1908 H 0.3246 0.67039 0.93443 0.0
H1909 H 0.23221 0.61755 0.93594 0.0
H1910 H 0.21721 0.6855 0.89126 0.0
C1911 C 0.41194 0.82884 0.89688 0.0
C1912 C 0.45164 0.84744 0.90847 0.0
C1913 C 0.45355 0.81334 0.91984 0.0
C1914 C 0.41344 0.76381 0.92104 0.0
C1915 C 0.37291 0.74828 0.9103 0.0
C1916 C 0.37298 0.77919 0.89793 0.0
C1917 C 0.3226 0.75638 0.88927 0.0
C1918 C 0.30035 0.79205 0.88954 0.0
C1919 C 0.32718 0.74108 0.8716 0.0
C1920 C 0.29249 0.71066 0.8999 0.0
C1921 C 0.32232 0.70595 0.91176 0.0
C1922 C 0.3013 0.67209 0.92473 0.0
C1923 C 0.24872 0.64249 0.92558 0.0
C1924 C 0.21774 0.64648 0.91345 0.0
C1925 C 0.24015 0.68036 0.90033 0.0
H1926 H 0.68314 0.28 0.07707 0.0
H1927 H 0.65509 0.2484 0.12917 0.0
H1928 H 0.66173 0.33132 0.13349 0.0
H1929 H 0.76893 0.42212 0.08103 0.0
H1930 H 0.74159 0.43313 0.06302 0.0
H1931 H 0.7468 0.37701 0.06444 0.0
H1932 H 0.65078 0.32203 0.05922 0.0
H1933 H 0.64534 0.37773 0.05776 0.0
H1934 H 0.60714 0.3294 0.07237 0.0
H1935 H 0.65696 0.40904 0.13161 0.0
H1936 H 0.63473 0.47289 0.1235 0.0
H1937 H 0.66634 0.4561 0.0725 0.0
C1938 C 0.6804 0.29146 0.08947 0.0
C1939 C 0.66918 0.25815 0.10282 0.0
C1940 C 0.66358 0.2734 0.11877 0.0
C1941 C 0.66795 0.32067 0.12137 0.0
C1942 C 0.67788 0.35223 0.10789 0.0
C1943 C 0.6841 0.33835 0.09223 0.0
C1944 C 0.68658 0.37563 0.07952 0.0
C1945 C 0.73911 0.40363 0.07153 0.0
C1946 C 0.64497 0.34963 0.06646 0.0
C1947 C 0.67731 0.4106 0.09036 0.0
C1948 C 0.67415 0.39739 0.10674 0.0
C1949 C 0.66062 0.42065 0.1189 0.0
C1950 C 0.6482 0.45708 0.11415 0.0
C1951 C 0.64889 0.46955 0.09735 0.0
C1952 C 0.66548 0.44728 0.08543 0.0
H1953 H 0.41065 0.56962 0.27577 0.0
H1954 H 0.48409 0.6481 0.23079 0.0
H1955 H 0.42864 0.6851 0.22995 0.0
H1956 H 0.29559 0.53095 0.26548 0.0
H1957 H 0.27195 0.53996 0.2848 0.0
H1958 H 0.32598 0.53165 0.28454 0.0
H1959 H 0.37829 0.61625 0.30003 0.0
H1960 H 0.3238 0.62467 0.30051 0.0
H1961 H 0.38244 0.67299 0.29194 0.0
H1962 H 0.35254 0.6942 0.22986 0.0
H1963 H 0.26384 0.67537 0.23107 0.0
H1964 H 0.24324 0.5962 0.27692 0.0
C1965 C 0.41709 0.5966 0.26619 0.0
C1966 C 0.4516 0.60544 0.2533 0.0
C1967 C 0.45723 0.6397 0.24066 0.0
C1968 C 0.42646 0.6617 0.24022 0.0
C1969 C 0.39104 0.65011 0.25271 0.0
C1970 C 0.38704 0.61918 0.26568 0.0
C1971 C 0.34135 0.60637 0.27621 0.0
C1972 C 0.30671 0.54888 0.27782 0.0
C1973 C 0.35744 0.63159 0.29318 0.0
C1974 C 0.31726 0.63026 0.26614 0.0
C1975 C 0.34733 0.65688 0.25293 0.0
C1976 C 0.32944 0.67509 0.24045 0.0
C1977 C 0.27908 0.66404 0.24114 0.0
C1978 C 0.24738 0.6349 0.25416 0.0
C1979 C 0.2674 0.61997 0.26715 0.0
loop_
_geom_bond_atom_site_label_1
_geom_bond_atom_site_label_2
_geom_bond_distance
_geom_bond_site_symmetry_2
_ccdc_geom_bond_type
Gd0 N31 2.661 . S
Gd0 N37 2.601 1_565 S
Gd0 O44 2.545 . S
Gd0 O45 2.606 . S
Gd0 O47 2.429 1_565 S
Gd0 O48 2.545 . S
Gd0 O49 2.412 . S
Gd0 O51 2.362 1_565 S
Gd0 O52 2.324 . S
Gd0 C59 2.828 . S
Gd1 N10 2.661 . S
Gd1 N14 2.601 1_545 S
Gd1 O45 2.362 1_545 S
Gd1 O46 2.324 . S
Gd1 O50 2.545 . S
Gd1 O51 2.606 . S
Gd1 O53 2.429 1_545 S
Gd1 O54 2.545 . S
Gd1 O55 2.412 . S
Gd1 C68 2.828 . S
C2 C5 1.417 . S
C2 C7 1.431 . S
C2 C8 1.421 . S
C3 C6 1.437 . S
C3 C7 1.317 . S
C3 H22 0.929 . S
C4 C5 1.426 . S
C4 C6 1.413 . S
C4 N14 1.359 . S
C5 C2 1.417 . S
C5 C4 1.426 . S
C5 N10 1.350 1_565 S
C6 C3 1.437 . S
C6 C4 1.413 . S
C6 C16 1.391 . S
C7 C2 1.431 . S
C7 C3 1.317 . S
C7 H18 0.930 . S
C8 C2 1.421 . S
C8 C9 1.335 1_565 S
C8 H20 0.941 . S
C9 C8 1.335 1_545 S
C9 C11 1.402 . S
C9 H21 0.930 . S
N10 Gd1 2.661 . S
N10 C5 1.350 1_545 S
N10 C11 1.307 . S
C11 C9 1.402 . S
C11 N10 1.307 . S
C11 H12 0.930 . S
H12 C11 0.930 . S
C13 N14 1.334 . S
C13 C15 1.394 . S
C13 H17 0.930 . S
N14 Gd1 2.601 1_565 S
N14 C4 1.359 . S
N14 C13 1.334 . S
C15 C13 1.394 . S
C15 C16 1.359 . S
C15 H27 0.930 . S
C16 C6 1.391 . S
C16 C15 1.359 . S
C16 H28 0.929 . S
H17 C13 0.930 . S
H18 C7 0.930 . S
H19 C36 0.930 . S
H20 C8 0.941 . S
H21 C9 0.930 . S
H22 C3 0.929 . S
H23 C41 0.930 . S
H24 C32 0.944 . S
H25 C33 0.930 . S
H26 C57 0.929 . S
H27 C15 0.930 . S
H28 C16 0.929 . S
H29 C58 0.930 . S
H30 C39 0.930 . S
N31 Gd0 2.661 . S
N31 C35 1.350 1_565 S
N31 C36 1.307 . S
C32 H24 0.944 . S
C32 C33 1.329 1_545 S
C32 C34 1.423 . S
C33 H25 0.930 . S
C33 C32 1.329 1_565 S
C33 C36 1.402 . S
C34 C32 1.423 . S
C34 C35 1.417 . S
C34 C58 1.431 . S
C35 N31 1.350 1_545 S
C35 C34 1.417 . S
C35 C38 1.426 . S
C36 H19 0.930 . S
C36 N31 1.307 . S
C36 C33 1.402 . S
N37 Gd0 2.601 1_545 S
N37 C38 1.359 . S
N37 C41 1.334 . S
C38 C35 1.426 . S
C38 N37 1.359 . S
C38 C42 1.413 . S
C39 H30 0.930 . S
C39 C40 1.359 . S
C39 C41 1.394 . S
C40 C39 1.359 . S
C40 C42 1.391 . S
C40 H43 0.929 . S
C41 H23 0.930 . S
C41 N37 1.334 . S
C41 C39 1.394 . S
C42 C38 1.413 . S
C42 C40 1.391 . S
C42 C57 1.437 . S
H43 C40 0.929 . S
O44 Gd0 2.545 . S
O44 C59 1.258 . S
O45 Gd0 2.606 . S
O45 Gd1 2.362 1_565 S
O45 C56 1.284 . S
O46 Gd1 2.324 . S
O46 C66 1.254 . S
O47 Gd0 2.429 1_545 S
O47 C66 1.268 . S
O48 Gd0 2.545 . S
O48 C56 1.250 . S
O49 Gd0 2.412 . S
O49 C59 1.252 . S
O50 Gd1 2.545 . S
O50 C68 1.258 . S
O51 Gd0 2.362 1_545 S
O51 Gd1 2.606 . S
O51 C67 1.284 . S
O52 Gd0 2.324 . S
O52 C75 1.254 . S
O53 Gd1 2.429 1_565 S
O53 C75 1.268 . S
O54 Gd1 2.545 . S
O54 C67 1.250 . S
O55 Gd1 2.412 . S
O55 C68 1.252 . S
C56 O45 1.284 . S
C56 O48 1.250 . S
C57 H26 0.929 . S
C57 C42 1.437 . S
C57 C58 1.317 . S
C58 H29 0.930 . S
C58 C34 1.431 . S
C58 C57 1.317 . S
C59 Gd0 2.828 . S
C59 O44 1.258 . S
C59 O49 1.252 . S
C59 C60 1.497 . S
C60 C59 1.497 . S
C60 C61 1.395 . S
C60 C62 1.380 . S
C61 C60 1.395 . S
C61 C64 1.398 . S
C61 H76 0.930 . S
C62 C60 1.380 . S
C62 C63 1.391 . S
C62 H77 0.930 . S
C63 C62 1.391 . S
C63 C65 1.387 . S
C64 C61 1.398 . S
C64 C65 1.380 . S
C64 H78 0.930 . S
C65 C63 1.387 . S
C65 C64 1.380 . S
C65 H79 0.930 . S
C66 O46 1.254 . S
C66 O47 1.268 . S
C67 O51 1.284 . S
C67 O54 1.250 . S
C68 Gd1 2.828 . S
C68 O50 1.258 . S
C68 O55 1.252 . S
C68 C69 1.497 . S
C69 C68 1.497 . S
C69 C70 1.395 . S
C69 C71 1.380 . S
C70 C69 1.395 . S
C70 C73 1.398 . S
C70 H80 0.930 . S
C71 C69 1.380 . S
C71 C72 1.391 . S
C71 H81 0.930 . S
C72 C71 1.391 . S
C72 C74 1.387 . S
C73 C70 1.398 . S
C73 C74 1.380 . S
C73 H82 0.930 . S
C74 C72 1.387 . S
C74 C73 1.380 . S
C74 H83 0.930 . S
C75 O52 1.254 . S
C75 O53 1.268 . S
H76 C61 0.930 . S
H77 C62 0.930 . S
H78 C64 0.930 . S
H79 C65 0.930 . S
H80 C70 0.930 . S
H81 C71 0.930 . S
H82 C73 0.930 . S
H83 C74 0.930 . S
Gd84 N115 2.661 . S
Gd84 N121 2.601 . S
Gd84 O128 2.545 . S
Gd84 O129 2.606 . S
Gd84 O131 2.429 . S
Gd84 O132 2.545 . S
Gd84 O133 2.412 . S
Gd84 O135 2.362 . S
Gd84 O136 2.324 . S
Gd84 C143 2.828 . S
Gd85 N94 2.661 . S
Gd85 N98 2.601 . S
Gd85 O129 2.362 . S
Gd85 O130 2.324 . S
Gd85 O134 2.545 . S
Gd85 O135 2.606 . S
Gd85 O137 2.429 . S
Gd85 O138 2.545 . S
Gd85 O139 2.412 . S
Gd85 C152 2.828 . S
C86 C89 1.417 . S
C86 C91 1.431 . S
C86 C92 1.412 . S
C87 C90 1.437 . S
C87 C91 1.317 . S
C87 H106 0.929 . S
C88 C89 1.426 . S
C88 C90 1.413 . S
C88 N98 1.359 . S
C89 C86 1.417 . S
C89 C88 1.426 . S
C89 N94 1.350 . S
C90 C87 1.437 . S
C90 C88 1.413 . S
C90 C100 1.391 . S
C91 C86 1.431 . S
C91 C87 1.317 . S
C91 H102 0.930 . S
C92 C86 1.412 . S
C92 C93 1.355 . S
C92 H104 0.930 . S
C93 C92 1.355 . S
C93 C95 1.402 . S
C93 H105 0.930 . S
N94 Gd85 2.661 . S
N94 C89 1.350 . S
N94 C95 1.307 . S
C95 C93 1.402 . S
C95 N94 1.307 . S
C95 H96 0.930 . S
H96 C95 0.930 . S
C97 N98 1.334 . S
C97 C99 1.394 . S
C97 H101 0.930 . S
N98 Gd85 2.601 . S
N98 C88 1.359 . S
N98 C97 1.334 . S
C99 C97 1.394 . S
C99 C100 1.359 . S
C99 H111 0.930 . S
C100 C90 1.391 . S
C100 C99 1.359 . S
C100 H112 0.929 . S
H101 C97 0.930 . S
H102 C91 0.930 . S
H103 C120 0.930 . S
H104 C92 0.930 . S
H105 C93 0.930 . S
H106 C87 0.929 . S
H107 C125 0.930 . S
H108 C116 0.930 . S
H109 C117 0.930 . S
H110 C141 0.929 . S
H111 C99 0.930 . S
H112 C100 0.929 . S
H113 C142 0.930 . S
H114 C123 0.930 . S
N115 Gd84 2.661 . S
N115 C119 1.350 . S
N115 C120 1.307 . S
C116 H108 0.930 . S
C116 C117 1.355 . S
C116 C118 1.412 . S
C117 H109 0.930 . S
C117 C116 1.355 . S
C117 C120 1.402 . S
C118 C116 1.412 . S
C118 C119 1.417 . S
C118 C142 1.431 . S
C119 N115 1.350 . S
C119 C118 1.417 . S
C119 C122 1.426 . S
C120 H103 0.930 . S
C120 N115 1.307 . S
C120 C117 1.402 . S
N121 Gd84 2.601 . S
N121 C122 1.359 . S
N121 C125 1.334 . S
C122 C119 1.426 . S
C122 N121 1.359 . S
C122 C126 1.413 . S
C123 H114 0.930 . S
C123 C124 1.359 . S
C123 C125 1.394 . S
C124 C123 1.359 . S
C124 C126 1.391 . S
C124 H127 0.929 . S
C125 H107 0.930 . S
C125 N121 1.334 . S
C125 C123 1.394 . S
C126 C122 1.413 . S
C126 C124 1.391 . S
C126 C141 1.437 . S
H127 C124 0.929 . S
O128 Gd84 2.545 . S
O128 C143 1.258 . S
O129 Gd84 2.606 . S
O129 Gd85 2.362 . S
O129 C140 1.284 . S
O130 Gd85 2.324 . S
O130 C150 1.254 . S
O131 Gd84 2.429 . S
O131 C150 1.268 . S
O132 Gd84 2.545 . S
O132 C140 1.250 . S
O133 Gd84 2.412 . S
O133 C143 1.252 . S
O134 Gd85 2.545 . S
O134 C152 1.258 . S
O135 Gd84 2.362 . S
O135 Gd85 2.606 . S
O135 C151 1.284 . S
O136 Gd84 2.324 . S
O136 C159 1.254 . S
O137 Gd85 2.429 . S
O137 C159 1.268 . S
O138 Gd85 2.545 . S
O138 C151 1.250 . S
O139 Gd85 2.412 . S
O139 C152 1.252 . S
C140 O129 1.284 . S
C140 O132 1.250 . S
C141 H110 0.929 . S
C141 C126 1.437 . S
C141 C142 1.317 . S
C142 H113 0.930 . S
C142 C118 1.431 . S
C142 C141 1.317 . S
C143 Gd84 2.828 . S
C143 O128 1.258 . S
C143 O133 1.252 . S
C143 C144 1.497 . S
C144 C143 1.497 . S
C144 C145 1.395 . S
C144 C146 1.380 . S
C145 C144 1.395 . S
C145 C148 1.398 . S
C145 H160 0.930 . S
C146 C144 1.380 . S
C146 C147 1.391 . S
C146 H161 0.930 . S
C147 C146 1.391 . S
C147 C149 1.387 . S
C148 C145 1.398 . S
C148 C149 1.380 . S
C148 H162 0.930 . S
C149 C147 1.387 . S
C149 C148 1.380 . S
C149 H163 0.930 . S
C150 O130 1.254 . S
C150 O131 1.268 . S
C151 O135 1.284 . S
C151 O138 1.250 . S
C152 Gd85 2.828 . S
C152 O134 1.258 . S
C152 O139 1.252 . S
C152 C153 1.497 . S
C153 C152 1.497 . S
C153 C154 1.395 . S
C153 C155 1.380 . S
C154 C153 1.395 . S
C154 C157 1.398 . S
C154 H164 0.930 . S
C155 C153 1.380 . S
C155 C156 1.391 . S
C155 H165 0.930 . S
C156 C155 1.391 . S
C156 C158 1.387 . S
C157 C154 1.398 . S
C157 C158 1.380 . S
C157 H166 0.930 . S
C158 C156 1.387 . S
C158 C157 1.380 . S
C158 H167 0.930 . S
C159 O136 1.254 . S
C159 O137 1.268 . S
H160 C145 0.930 . S
H161 C146 0.930 . S
H162 C148 0.930 . S
H163 C149 0.930 . S
H164 C154 0.930 . S
H165 C155 0.930 . S
H166 C157 0.930 . S
H167 C158 0.930 . S
Gd168 N199 2.661 . S
Gd168 N205 2.601 1_455 S
Gd168 O212 2.545 . S
Gd168 O213 2.606 . S
Gd168 O215 2.429 1_455 S
Gd168 O216 2.545 . S
Gd168 O217 2.412 . S
Gd168 O219 2.362 1_455 S
Gd168 O220 2.324 . S
Gd168 C227 2.828 . S
Gd169 N178 2.661 . S
Gd169 N182 2.601 1_655 S
Gd169 O213 2.362 1_655 S
Gd169 O214 2.324 . S
Gd169 O218 2.545 . S
Gd169 O219 2.606 . S
Gd169 O221 2.429 1_655 S
Gd169 O222 2.545 . S
Gd169 O223 2.412 . S
Gd169 C236 2.828 . S
C170 C173 1.417 . S
C170 C175 1.431 . S
C170 C176 1.412 1_455 S
C171 C174 1.437 . S
C171 C175 1.317 . S
C171 H190 0.929 . S
C172 C173 1.426 . S
C172 C174 1.413 . S
C172 N182 1.359 . S
C173 C170 1.417 . S
C173 C172 1.426 . S
C173 N178 1.350 1_455 S
C174 C171 1.437 . S
C174 C172 1.413 . S
C174 C184 1.391 . S
C175 C170 1.431 . S
C175 C171 1.317 . S
C175 H186 0.930 . S
C176 C170 1.412 1_655 S
C176 C177 1.355 . S
C176 H188 0.924 . S
C177 C176 1.355 . S
C177 C179 1.402 . S
C177 H189 0.930 . S
N178 Gd169 2.661 . S
N178 C173 1.350 1_655 S
N178 C179 1.307 . S
C179 C177 1.402 . S
C179 N178 1.307 . S
C179 H180 0.930 . S
H180 C179 0.930 . S
C181 N182 1.334 . S
C181 C183 1.394 . S
C181 H185 0.930 . S
N182 Gd169 2.601 1_455 S
N182 C172 1.359 . S
N182 C181 1.334 . S
C183 C181 1.394 . S
C183 C184 1.359 . S
C183 H195 0.930 . S
C184 C174 1.391 . S
C184 C183 1.359 . S
C184 H196 0.929 . S
H185 C181 0.930 . S
H186 C175 0.930 . S
H187 C204 0.930 . S
H188 C176 0.924 . S
H189 C177 0.930 . S
H190 C171 0.929 . S
H191 C209 0.930 . S
H192 C200 0.926 . S
H193 C201 0.930 . S
H194 C225 0.929 . S
H195 C183 0.930 . S
H196 C184 0.929 . S
H197 C226 0.930 . S
H198 C207 0.930 . S
N199 Gd168 2.661 . S
N199 C203 1.350 1_455 S
N199 C204 1.307 . S
C200 H192 0.926 . S
C200 C201 1.355 . S
C200 C202 1.412 1_455 S
C201 H193 0.930 . S
C201 C200 1.355 . S
C201 C204 1.402 . S
C202 C200 1.412 1_655 S
C202 C203 1.417 . S
C202 C226 1.431 . S
C203 N199 1.350 1_655 S
C203 C202 1.417 . S
C203 C206 1.426 . S
C204 H187 0.930 . S
C204 N199 1.307 . S
C204 C201 1.402 . S
N205 Gd168 2.601 1_655 S
N205 C206 1.359 . S
N205 C209 1.334 . S
C206 C203 1.426 . S
C206 N205 1.359 . S
C206 C210 1.413 . S
C207 H198 0.930 . S
C207 C208 1.359 . S
C207 C209 1.394 . S
C208 C207 1.359 . S
C208 C210 1.391 . S
C208 H211 0.929 . S
C209 H191 0.930 . S
C209 N205 1.334 . S
C209 C207 1.394 . S
C210 C206 1.413 . S
C210 C208 1.391 . S
C210 C225 1.437 . S
H211 C208 0.929 . S
O212 Gd168 2.545 . S
O212 C227 1.258 . S
O213 Gd168 2.606 . S
O213 Gd169 2.362 1_455 S
O213 C224 1.284 . S
O214 Gd169 2.324 . S
O214 C234 1.254 . S
O215 Gd168 2.429 1_655 S
O215 C234 1.268 . S
O216 Gd168 2.545 . S
O216 C224 1.250 . S
O217 Gd168 2.412 . S
O217 C227 1.252 . S
O218 Gd169 2.545 . S
O218 C236 1.258 . S
O219 Gd168 2.362 1_655 S
O219 Gd169 2.606 . S
O219 C235 1.284 . S
O220 Gd168 2.324 . S
O220 C243 1.254 . S
O221 Gd169 2.429 1_455 S
O221 C243 1.268 . S
O222 Gd169 2.545 . S
O222 C235 1.250 . S
O223 Gd169 2.412 . S
O223 C236 1.252 . S
C224 O213 1.284 . S
C224 O216 1.250 . S
C225 H194 0.929 . S
C225 C210 1.437 . S
C225 C226 1.317 . S
C226 H197 0.930 . S
C226 C202 1.431 . S
C226 C225 1.317 . S
C227 Gd168 2.828 . S
C227 O212 1.258 . S
C227 O217 1.252 . S
C227 C228 1.497 . S
C228 C227 1.497 . S
C228 C229 1.395 . S
C228 C230 1.380 . S
C229 C228 1.395 . S
C229 C232 1.398 . S
C229 H244 0.930 . S
C230 C228 1.380 . S
C230 C231 1.391 . S
C230 H245 0.930 . S
C231 C230 1.391 . S
C231 C233 1.387 . S
C232 C229 1.398 . S
C232 C233 1.380 . S
C232 H246 0.930 . S
C233 C231 1.387 . S
C233 C232 1.380 . S
C233 H247 0.930 . S
C234 O214 1.254 . S
C234 O215 1.268 . S
C235 O219 1.284 . S
C235 O222 1.250 . S
C236 Gd169 2.828 . S
C236 O218 1.258 . S
C236 O223 1.252 . S
C236 C237 1.497 . S
C237 C236 1.497 . S
C237 C238 1.395 . S
C237 C239 1.380 . S
C238 C237 1.395 . S
C238 C241 1.398 . S
C238 H248 0.930 . S
C239 C237 1.380 . S
C239 C240 1.391 . S
C239 H249 0.930 . S
C240 C239 1.391 . S
C240 C242 1.387 . S
C241 C238 1.398 . S
C241 C242 1.380 . S
C241 H250 0.930 . S
C242 C240 1.387 . S
C242 C241 1.380 . S
C242 H251 0.930 . S
C243 O220 1.254 . S
C243 O221 1.268 . S
H244 C229 0.930 . S
H245 C230 0.930 . S
H246 C232 0.930 . S
H247 C233 0.930 . S
H248 C238 0.930 . S
H249 C239 0.930 . S
H250 C241 0.930 . S
H251 C242 0.930 . S
Gd252 N283 2.661 . S
Gd252 N289 2.601 1_545 S
Gd252 O296 2.545 . S
Gd252 O297 2.606 . S
Gd252 O299 2.429 1_545 S
Gd252 O300 2.545 . S
Gd252 O301 2.412 . S
Gd252 O303 2.362 1_545 S
Gd252 O304 2.324 . S
Gd252 C311 2.828 . S
Gd253 N262 2.661 . S
Gd253 N266 2.601 1_565 S
Gd253 O297 2.362 1_565 S
Gd253 O298 2.324 . S
Gd253 O302 2.545 . S
Gd253 O303 2.606 . S
Gd253 O305 2.429 1_565 S
Gd253 O306 2.545 . S
Gd253 O307 2.412 . S
Gd253 C320 2.828 . S
C254 C257 1.417 . S
C254 C259 1.431 . S
C254 C260 1.421 . S
C255 C258 1.437 . S
C255 C259 1.317 . S
C255 H274 0.929 . S
C256 C257 1.426 . S
C256 C258 1.413 . S
C256 N266 1.359 . S
C257 C254 1.417 . S
C257 C256 1.426 . S
C257 N262 1.350 1_545 S
C258 C255 1.437 . S
C258 C256 1.413 . S
C258 C268 1.391 . S
C259 C254 1.431 . S
C259 C255 1.317 . S
C259 H270 0.930 . S
C260 C254 1.421 . S
C260 C261 1.335 1_545 S
C260 H272 0.941 . S
C261 C260 1.335 1_565 S
C261 C263 1.402 . S
C261 H273 0.930 . S
N262 Gd253 2.661 . S
N262 C257 1.350 1_565 S
N262 C263 1.307 . S
C263 C261 1.402 . S
C263 N262 1.307 . S
C263 H264 0.930 . S
H264 C263 0.930 . S
C265 N266 1.334 . S
C265 C267 1.394 . S
C265 H269 0.930 . S
N266 Gd253 2.601 1_545 S
N266 C256 1.359 . S
N266 C265 1.334 . S
C267 C265 1.394 . S
C267 C268 1.359 . S
C267 H279 0.930 . S
C268 C258 1.391 . S
C268 C267 1.359 . S
C268 H280 0.929 . S
H269 C265 0.930 . S
H270 C259 0.930 . S
H271 C288 0.930 . S
H272 C260 0.941 . S
H273 C261 0.930 . S
H274 C255 0.929 . S
H275 C293 0.930 . S
H276 C284 0.944 . S
H277 C285 0.930 . S
H278 C309 0.929 . S
H279 C267 0.930 . S
H280 C268 0.929 . S
H281 C310 0.930 . S
H282 C291 0.930 . S
N283 Gd252 2.661 . S
N283 C287 1.350 1_545 S
N283 C288 1.307 . S
C284 H276 0.944 . S
C284 C285 1.329 1_565 S
C284 C286 1.423 . S
C285 H277 0.930 . S
C285 C284 1.329 1_545 S
C285 C288 1.402 . S
C286 C284 1.423 . S
C286 C287 1.417 . S
C286 C310 1.431 . S
C287 N283 1.350 1_565 S
C287 C286 1.417 . S
C287 C290 1.426 . S
C288 H271 0.930 . S
C288 N283 1.307 . S
C288 C285 1.402 . S
N289 Gd252 2.601 1_565 S
N289 C290 1.359 . S
N289 C293 1.334 . S
C290 C287 1.426 . S
C290 N289 1.359 . S
C290 C294 1.413 . S
C291 H282 0.930 . S
C291 C292 1.359 . S
C291 C293 1.394 . S
C292 C291 1.359 . S
C292 C294 1.391 . S
C292 H295 0.929 . S
C293 H275 0.930 . S
C293 N289 1.334 . S
C293 C291 1.394 . S
C294 C290 1.413 . S
C294 C292 1.391 . S
C294 C309 1.437 . S
H295 C292 0.929 . S
O296 Gd252 2.545 . S
O296 C311 1.258 . S
O297 Gd252 2.606 . S
O297 Gd253 2.362 1_545 S
O297 C308 1.284 . S
O298 Gd253 2.324 . S
O298 C318 1.254 . S
O299 Gd252 2.429 1_565 S
O299 C318 1.268 . S
O300 Gd252 2.545 . S
O300 C308 1.250 . S
O301 Gd252 2.412 . S
O301 C311 1.252 . S
O302 Gd253 2.545 . S
O302 C320 1.258 . S
O303 Gd252 2.362 1_565 S
O303 Gd253 2.606 . S
O303 C319 1.284 . S
O304 Gd252 2.324 . S
O304 C327 1.254 . S
O305 Gd253 2.429 1_545 S
O305 C327 1.268 . S
O306 Gd253 2.545 . S
O306 C319 1.250 . S
O307 Gd253 2.412 . S
O307 C320 1.252 . S
C308 O297 1.284 . S
C308 O300 1.250 . S
C309 H278 0.929 . S
C309 C294 1.437 . S
C309 C310 1.317 . S
C310 H281 0.930 . S
C310 C286 1.431 . S
C310 C309 1.317 . S
C311 Gd252 2.828 . S
C311 O296 1.258 . S
C311 O301 1.252 . S
C311 C312 1.497 . S
C312 C311 1.497 . S
C312 C313 1.395 . S
C312 C314 1.380 . S
C313 C312 1.395 . S
C313 C316 1.398 . S
C313 H328 0.930 . S
C314 C312 1.380 . S
C314 C315 1.391 . S
C314 H329 0.930 . S
C315 C314 1.391 . S
C315 C317 1.387 . S
C316 C313 1.398 . S
C316 C317 1.380 . S
C316 H330 0.930 . S
C317 C315 1.387 . S
C317 C316 1.380 . S
C317 H331 0.930 . S
C318 O298 1.254 . S
C318 O299 1.268 . S
C319 O303 1.284 . S
C319 O306 1.250 . S
C320 Gd253 2.828 . S
C320 O302 1.258 . S
C320 O307 1.252 . S
C320 C321 1.497 . S
C321 C320 1.497 . S
C321 C322 1.395 . S
C321 C323 1.380 . S
C322 C321 1.395 . S
C322 C325 1.398 . S
C322 H332 0.930 . S
C323 C321 1.380 . S
C323 C324 1.391 . S
C323 H333 0.930 . S
C324 C323 1.391 . S
C324 C326 1.387 . S
C325 C322 1.398 . S
C325 C326 1.380 . S
C325 H334 0.930 . S
C326 C324 1.387 . S
C326 C325 1.380 . S
C326 H335 0.930 . S
C327 O304 1.254 . S
C327 O305 1.268 . S
H328 C313 0.930 . S
H329 C314 0.930 . S
H330 C316 0.930 . S
H331 C317 0.930 . S
H332 C322 0.930 . S
H333 C323 0.930 . S
H334 C325 0.930 . S
H335 C326 0.930 . S
Gd336 N367 2.661 . S
Gd336 N373 2.601 . S
Gd336 O380 2.545 1_554 S
Gd336 O381 2.606 . S
Gd336 O383 2.429 . S
Gd336 O384 2.545 . S
Gd336 O385 2.412 . S
Gd336 O387 2.362 . S
Gd336 O388 2.324 . S
Gd336 C395 2.828 1_554 S
Gd337 N346 2.661 . S
Gd337 N350 2.601 . S
Gd337 O381 2.362 . S
Gd337 O382 2.324 . S
Gd337 O386 2.545 . S
Gd337 O387 2.606 . S
Gd337 O389 2.429 . S
Gd337 O390 2.545 . S
Gd337 O391 2.412 . S
Gd337 C404 2.828 . S
C338 C341 1.417 . S
C338 C343 1.431 . S
C338 C344 1.412 . S
C339 C342 1.437 . S
C339 C343 1.317 . S
C339 H358 0.929 . S
C340 C341 1.426 . S
C340 C342 1.413 . S
C340 N350 1.359 . S
C341 C338 1.417 . S
C341 C340 1.426 . S
C341 N346 1.350 . S
C342 C339 1.437 . S
C342 C340 1.413 . S
C342 C352 1.391 . S
C343 C338 1.431 . S
C343 C339 1.317 . S
C343 H354 0.930 . S
C344 C338 1.412 . S
C344 C345 1.355 . S
C344 H356 0.930 . S
C345 C344 1.355 . S
C345 C347 1.402 . S
C345 H357 0.930 1_554 S
N346 Gd337 2.661 . S
N346 C341 1.350 . S
N346 C347 1.307 . S
C347 C345 1.402 . S
C347 N346 1.307 . S
C347 H348 0.930 . S
H348 C347 0.930 . S
C349 N350 1.334 . S
C349 C351 1.394 . S
C349 H353 0.930 . S
N350 Gd337 2.601 . S
N350 C340 1.359 . S
N350 C349 1.334 . S
C351 C349 1.394 . S
C351 C352 1.359 . S
C351 H363 0.930 . S
C352 C342 1.391 . S
C352 C351 1.359 . S
C352 H364 0.929 . S
H353 C349 0.930 . S
H354 C343 0.930 . S
H355 C372 0.930 . S
H356 C344 0.930 . S
H357 C345 0.930 1_556 S
H358 C339 0.929 . S
H359 C377 0.930 . S
H360 C368 0.930 . S
H361 C369 0.930 . S
H362 C393 0.929 . S
H363 C351 0.930 . S
H364 C352 0.929 . S
H365 C394 0.930 . S
H366 C375 0.930 . S
N367 Gd336 2.661 . S
N367 C371 1.350 . S
N367 C372 1.307 . S
C368 H360 0.930 . S
C368 C369 1.355 . S
C368 C370 1.412 . S
C369 H361 0.930 . S
C369 C368 1.355 . S
C369 C372 1.402 . S
C370 C368 1.412 . S
C370 C371 1.417 . S
C370 C394 1.431 . S
C371 N367 1.350 . S
C371 C370 1.417 . S
C371 C374 1.426 . S
C372 H355 0.930 . S
C372 N367 1.307 . S
C372 C369 1.402 . S
N373 Gd336 2.601 . S
N373 C374 1.359 . S
N373 C377 1.334 1_554 S
C374 C371 1.426 . S
C374 N373 1.359 . S
C374 C378 1.413 . S
C375 H366 0.930 . S
C375 C376 1.359 . S
C375 C377 1.394 . S
C376 C375 1.359 . S
C376 C378 1.391 1_556 S
C376 H379 0.929 . S
C377 H359 0.930 . S
C377 N373 1.334 1_556 S
C377 C375 1.394 . S
C378 C374 1.413 . S
C378 C376 1.391 1_554 S
C378 C393 1.437 . S
H379 C376 0.929 . S
O380 Gd336 2.545 1_556 S
O380 C395 1.258 . S
O381 Gd336 2.606 . S
O381 Gd337 2.362 . S
O381 C392 1.284 . S
O382 Gd337 2.324 . S
O382 C402 1.254 . S
O383 Gd336 2.429 . S
O383 C402 1.268 . S
O384 Gd336 2.545 . S
O384 C392 1.250 . S
O385 Gd336 2.412 . S
O385 C395 1.252 1_554 S
O386 Gd337 2.545 . S
O386 C404 1.258 . S
O387 Gd336 2.362 . S
O387 Gd337 2.606 . S
O387 C403 1.284 . S
O388 Gd336 2.324 . S
O388 C411 1.254 . S
O389 Gd337 2.429 . S
O389 C411 1.268 . S
O390 Gd337 2.545 . S
O390 C403 1.250 . S
O391 Gd337 2.412 . S
O391 C404 1.252 . S
C392 O381 1.284 . S
C392 O384 1.250 . S
C393 H362 0.929 . S
C393 C378 1.437 . S
C393 C394 1.317 . S
C394 H365 0.930 . S
C394 C370 1.431 . S
C394 C393 1.317 . S
C395 Gd336 2.828 1_556 S
C395 O380 1.258 . S
C395 O385 1.252 1_556 S
C395 C396 1.497 . S
C396 C395 1.497 . S
C396 C397 1.395 . S
C396 C398 1.380 . S
C397 C396 1.395 . S
C397 C400 1.398 . S
C397 H412 0.930 . S
C398 C396 1.380 . S
C398 C399 1.391 . S
C398 H413 0.930 . S
C399 C398 1.391 . S
C399 C401 1.387 . S
C400 C397 1.398 . S
C400 C401 1.380 . S
C400 H414 0.930 . S
C401 C399 1.387 . S
C401 C400 1.380 . S
C401 H415 0.930 . S
C402 O382 1.254 . S
C402 O383 1.268 . S
C403 O387 1.284 . S
C403 O390 1.250 . S
C404 Gd337 2.828 . S
C404 O386 1.258 . S
C404 O391 1.252 . S
C404 C405 1.497 . S
C405 C404 1.497 . S
C405 C406 1.395 . S
C405 C407 1.380 . S
C406 C405 1.395 . S
C406 C409 1.398 . S
C406 H416 0.930 . S
C407 C405 1.380 . S
C407 C408 1.391 . S
C407 H417 0.930 . S
C408 C407 1.391 . S
C408 C410 1.387 . S
C409 C406 1.398 . S
C409 C410 1.380 . S
C409 H418 0.930 . S
C410 C408 1.387 . S
C410 C409 1.380 . S
C410 H419 0.930 . S
C411 O388 1.254 . S
C411 O389 1.268 . S
H412 C397 0.930 . S
H413 C398 0.930 . S
H414 C400 0.930 . S
H415 C401 0.930 . S
H416 C406 0.930 . S
H417 C407 0.930 . S
H418 C409 0.930 . S
H419 C410 0.930 . S
Gd420 N451 2.661 . S
Gd420 N457 2.601 1_655 S
Gd420 O464 2.545 . S
Gd420 O465 2.606 . S
Gd420 O467 2.429 1_655 S
Gd420 O468 2.545 . S
Gd420 O469 2.412 . S
Gd420 O471 2.362 1_655 S
Gd420 O472 2.324 . S
Gd420 C479 2.828 . S
Gd421 N430 2.661 . S
Gd421 N434 2.601 1_455 S
Gd421 O465 2.362 1_455 S
Gd421 O466 2.324 . S
Gd421 O470 2.545 . S
Gd421 O471 2.606 . S
Gd421 O473 2.429 1_455 S
Gd421 O474 2.545 . S
Gd421 O475 2.412 . S
Gd421 C488 2.828 . S
C422 C425 1.417 . S
C422 C427 1.431 . S
C422 C428 1.412 1_655 S
C423 C426 1.437 . S
C423 C427 1.317 . S
C423 H442 0.929 . S
C424 C425 1.426 . S
C424 C426 1.413 . S
C424 N434 1.359 . S
C425 C422 1.417 . S
C425 C424 1.426 . S
C425 N430 1.350 1_655 S
C426 C423 1.437 . S
C426 C424 1.413 . S
C426 C436 1.391 . S
C427 C422 1.431 . S
C427 C423 1.317 . S
C427 H438 0.930 . S
C428 C422 1.412 1_455 S
C428 C429 1.355 . S
C428 H440 0.924 . S
C429 C428 1.355 . S
C429 C431 1.402 . S
C429 H441 0.930 . S
N430 Gd421 2.661 . S
N430 C425 1.350 1_455 S
N430 C431 1.307 . S
C431 C429 1.402 . S
C431 N430 1.307 . S
C431 H432 0.930 . S
H432 C431 0.930 . S
C433 N434 1.334 . S
C433 C435 1.394 . S
C433 H437 0.930 . S
N434 Gd421 2.601 1_655 S
N434 C424 1.359 . S
N434 C433 1.334 . S
C435 C433 1.394 . S
C435 C436 1.359 . S
C435 H447 0.930 . S
C436 C426 1.391 . S
C436 C435 1.359 . S
C436 H448 0.929 . S
H437 C433 0.930 . S
H438 C427 0.930 . S
H439 C456 0.930 . S
H440 C428 0.924 . S
H441 C429 0.930 . S
H442 C423 0.929 . S
H443 C461 0.930 . S
H444 C452 0.926 . S
H445 C453 0.930 . S
H446 C477 0.929 . S
H447 C435 0.930 . S
H448 C436 0.929 . S
H449 C478 0.930 . S
H450 C459 0.930 . S
N451 Gd420 2.661 . S
N451 C455 1.350 1_655 S
N451 C456 1.307 . S
C452 H444 0.926 . S
C452 C453 1.355 . S
C452 C454 1.412 1_655 S
C453 H445 0.930 . S
C453 C452 1.355 . S
C453 C456 1.402 . S
C454 C452 1.412 1_455 S
C454 C455 1.417 . S
C454 C478 1.431 . S
C455 N451 1.350 1_455 S
C455 C454 1.417 . S
C455 C458 1.426 . S
C456 H439 0.930 . S
C456 N451 1.307 . S
C456 C453 1.402 . S
N457 Gd420 2.601 1_455 S
N457 C458 1.359 . S
N457 C461 1.334 . S
C458 C455 1.426 . S
C458 N457 1.359 . S
C458 C462 1.413 . S
C459 H450 0.930 . S
C459 C460 1.359 . S
C459 C461 1.394 . S
C460 C459 1.359 . S
C460 C462 1.391 . S
C460 H463 0.929 . S
C461 H443 0.930 . S
C461 N457 1.334 . S
C461 C459 1.394 . S
C462 C458 1.413 . S
C462 C460 1.391 . S
C462 C477 1.437 . S
H463 C460 0.929 . S
O464 Gd420 2.545 . S
O464 C479 1.258 . S
O465 Gd420 2.606 . S
O465 Gd421 2.362 1_655 S
O465 C476 1.284 . S
O466 Gd421 2.324 . S
O466 C486 1.254 . S
O467 Gd420 2.429 1_455 S
O467 C486 1.268 . S
O468 Gd420 2.545 . S
O468 C476 1.250 . S
O469 Gd420 2.412 . S
O469 C479 1.252 . S
O470 Gd421 2.545 . S
O470 C488 1.258 . S
O471 Gd420 2.362 1_455 S
O471 Gd421 2.606 . S
O471 C487 1.284 . S
O472 Gd420 2.324 . S
O472 C495 1.254 . S
O473 Gd421 2.429 1_655 S
O473 C495 1.268 . S
O474 Gd421 2.545 . S
O474 C487 1.250 . S
O475 Gd421 2.412 . S
O475 C488 1.252 . S
C476 O465 1.284 . S
C476 O468 1.250 . S
C477 H446 0.929 . S
C477 C462 1.437 . S
C477 C478 1.317 . S
C478 H449 0.930 . S
C478 C454 1.431 . S
C478 C477 1.317 . S
C479 Gd420 2.828 . S
C479 O464 1.258 . S
C479 O469 1.252 . S
C479 C480 1.497 . S
C480 C479 1.497 . S
C480 C481 1.395 . S
C480 C482 1.380 . S
C481 C480 1.395 . S
C481 C484 1.398 . S
C481 H496 0.930 . S
C482 C480 1.380 . S
C482 C483 1.391 . S
C482 H497 0.930 . S
C483 C482 1.391 . S
C483 C485 1.387 . S
C484 C481 1.398 . S
C484 C485 1.380 . S
C484 H498 0.930 . S
C485 C483 1.387 . S
C485 C484 1.380 . S
C485 H499 0.930 . S
C486 O466 1.254 . S
C486 O467 1.268 . S
C487 O471 1.284 . S
C487 O474 1.250 . S
C488 Gd421 2.828 . S
C488 O470 1.258 . S
C488 O475 1.252 . S
C488 C489 1.497 . S
C489 C488 1.497 . S
C489 C490 1.395 . S
C489 C491 1.380 . S
C490 C489 1.395 . S
C490 C493 1.398 . S
C490 H500 0.930 . S
C491 C489 1.380 . S
C491 C492 1.391 . S
C491 H501 0.930 . S
C492 C491 1.391 . S
C492 C494 1.387 . S
C493 C490 1.398 . S
C493 C494 1.380 . S
C493 H502 0.930 . S
C494 C492 1.387 . S
C494 C493 1.380 . S
C494 H503 0.930 . S
C495 O472 1.254 . S
C495 O473 1.268 . S
H496 C481 0.930 . S
H497 C482 0.930 . S
H498 C484 0.930 . S
H499 C485 0.930 . S
H500 C490 0.930 . S
H501 C491 0.930 . S
H502 C493 0.930 . S
H503 C494 0.930 . S
Gd504 N535 2.661 . S
Gd504 N541 2.601 1_455 S
Gd504 O548 2.545 . S
Gd504 O549 2.606 . S
Gd504 O551 2.429 1_455 S
Gd504 O552 2.545 . S
Gd504 O553 2.412 . S
Gd504 O555 2.362 1_455 S
Gd504 O556 2.324 . S
Gd504 C563 2.828 . S
Gd505 N514 2.661 . S
Gd505 N518 2.601 1_655 S
Gd505 O549 2.362 1_655 S
Gd505 O550 2.324 . S
Gd505 O554 2.545 . S
Gd505 O555 2.606 . S
Gd505 O557 2.429 1_655 S
Gd505 O558 2.545 . S
Gd505 O559 2.412 . S
Gd505 C572 2.828 . S
C506 C509 1.417 . S
C506 C511 1.431 . S
C506 C512 1.421 . S
C507 C510 1.437 . S
C507 C511 1.317 . S
C507 H526 0.929 . S
C508 C509 1.426 . S
C508 C510 1.413 . S
C508 N518 1.359 . S
C509 C506 1.417 . S
C509 C508 1.426 . S
C509 N514 1.350 1_455 S
C510 C507 1.437 . S
C510 C508 1.413 . S
C510 C520 1.391 . S
C511 C506 1.431 . S
C511 C507 1.317 . S
C511 H522 0.930 . S
C512 C506 1.421 . S
C512 C513 1.335 1_455 S
C512 H524 0.941 . S
C513 C512 1.335 1_655 S
C513 C515 1.402 . S
C513 H525 0.930 . S
N514 Gd505 2.661 . S
N514 C509 1.350 1_655 S
N514 C515 1.307 . S
C515 C513 1.402 . S
C515 N514 1.307 . S
C515 H516 0.930 . S
H516 C515 0.930 . S
C517 N518 1.334 . S
C517 C519 1.394 . S
C517 H521 0.930 . S
N518 Gd505 2.601 1_455 S
N518 C508 1.359 . S
N518 C517 1.334 . S
C519 C517 1.394 . S
C519 C520 1.359 . S
C519 H531 0.930 . S
C520 C510 1.391 . S
C520 C519 1.359 . S
C520 H532 0.929 . S
H521 C517 0.930 . S
H522 C511 0.930 . S
H523 C540 0.930 . S
H524 C512 0.941 . S
H525 C513 0.930 . S
H526 C507 0.929 . S
H527 C545 0.930 . S
H528 C536 0.944 . S
H529 C537 0.930 . S
H530 C561 0.929 . S
H531 C519 0.930 . S
H532 C520 0.929 . S
H533 C562 0.930 . S
H534 C543 0.930 . S
N535 Gd504 2.661 . S
N535 C539 1.350 1_455 S
N535 C540 1.307 . S
C536 H528 0.944 . S
C536 C537 1.329 1_655 S
C536 C538 1.423 . S
C537 H529 0.930 . S
C537 C536 1.329 1_455 S
C537 C540 1.402 . S
C538 C536 1.423 . S
C538 C539 1.417 . S
C538 C562 1.431 . S
C539 N535 1.350 1_655 S
C539 C538 1.417 . S
C539 C542 1.426 . S
C540 H523 0.930 . S
C540 N535 1.307 . S
C540 C537 1.402 . S
N541 Gd504 2.601 1_655 S
N541 C542 1.359 . S
N541 C545 1.334 . S
C542 C539 1.426 . S
C542 N541 1.359 . S
C542 C546 1.413 . S
C543 H534 0.930 . S
C543 C544 1.359 . S
C543 C545 1.394 . S
C544 C543 1.359 . S
C544 C546 1.391 . S
C544 H547 0.929 . S
C545 H527 0.930 . S
C545 N541 1.334 . S
C545 C543 1.394 . S
C546 C542 1.413 . S
C546 C544 1.391 . S
C546 C561 1.437 . S
H547 C544 0.929 . S
O548 Gd504 2.545 . S
O548 C563 1.258 . S
O549 Gd504 2.606 . S
O549 Gd505 2.362 1_455 S
O549 C560 1.284 . S
O550 Gd505 2.324 . S
O550 C570 1.254 . S
O551 Gd504 2.429 1_655 S
O551 C570 1.268 . S
O552 Gd504 2.545 . S
O552 C560 1.250 . S
O553 Gd504 2.412 . S
O553 C563 1.252 . S
O554 Gd505 2.545 . S
O554 C572 1.258 . S
O555 Gd504 2.362 1_655 S
O555 Gd505 2.606 . S
O555 C571 1.284 . S
O556 Gd504 2.324 . S
O556 C579 1.254 . S
O557 Gd505 2.429 1_455 S
O557 C579 1.268 . S
O558 Gd505 2.545 . S
O558 C571 1.250 . S
O559 Gd505 2.412 . S
O559 C572 1.252 . S
C560 O549 1.284 . S
C560 O552 1.250 . S
C561 H530 0.929 . S
C561 C546 1.437 . S
C561 C562 1.317 . S
C562 H533 0.930 . S
C562 C538 1.431 . S
C562 C561 1.317 . S
C563 Gd504 2.828 . S
C563 O548 1.258 . S
C563 O553 1.252 . S
C563 C564 1.497 . S
C564 C563 1.497 . S
C564 C565 1.395 . S
C564 C566 1.380 . S
C565 C564 1.395 . S
C565 C568 1.398 . S
C565 H580 0.930 . S
C566 C564 1.380 . S
C566 C567 1.391 . S
C566 H581 0.930 . S
C567 C566 1.391 . S
C567 C569 1.387 . S
C568 C565 1.398 . S
C568 C569 1.380 . S
C568 H582 0.930 . S
C569 C567 1.387 . S
C569 C568 1.380 . S
C569 H583 0.930 . S
C570 O550 1.254 . S
C570 O551 1.268 . S
C571 O555 1.284 . S
C571 O558 1.250 . S
C572 Gd505 2.828 . S
C572 O554 1.258 . S
C572 O559 1.252 . S
C572 C573 1.497 . S
C573 C572 1.497 . S
C573 C574 1.395 . S
C573 C575 1.380 . S
C574 C573 1.395 . S
C574 C577 1.398 . S
C574 H584 0.930 . S
C575 C573 1.380 . S
C575 C576 1.391 . S
C575 H585 0.930 . S
C576 C575 1.391 . S
C576 C578 1.387 . S
C577 C574 1.398 . S
C577 C578 1.380 . S
C577 H586 0.930 . S
C578 C576 1.387 . S
C578 C577 1.380 . S
C578 H587 0.930 . S
C579 O556 1.254 . S
C579 O557 1.268 . S
H580 C565 0.930 . S
H581 C566 0.930 . S
H582 C568 0.930 . S
H583 C569 0.930 . S
H584 C574 0.930 . S
H585 C575 0.930 . S
H586 C577 0.930 . S
H587 C578 0.930 . S
Gd588 N619 2.661 . S
Gd588 N625 2.601 1_545 S
Gd588 O632 2.545 . S
Gd588 O633 2.606 . S
Gd588 O635 2.429 1_545 S
Gd588 O636 2.545 . S
Gd588 O637 2.412 . S
Gd588 O639 2.362 1_545 S
Gd588 O640 2.324 . S
Gd588 C647 2.828 . S
Gd589 N598 2.661 . S
Gd589 N602 2.601 1_565 S
Gd589 O633 2.362 1_565 S
Gd589 O634 2.324 . S
Gd589 O638 2.545 . S
Gd589 O639 2.606 . S
Gd589 O641 2.429 1_565 S
Gd589 O642 2.545 . S
Gd589 O643 2.412 . S
Gd589 C656 2.828 . S
C590 C593 1.417 . S
C590 C595 1.431 . S
C590 C596 1.412 1_545 S
C591 C594 1.437 . S
C591 C595 1.317 . S
C591 H610 0.929 . S
C592 C593 1.426 . S
C592 C594 1.413 . S
C592 N602 1.359 . S
C593 C590 1.417 . S
C593 C592 1.426 . S
C593 N598 1.350 1_545 S
C594 C591 1.437 . S
C594 C592 1.413 . S
C594 C604 1.391 . S
C595 C590 1.431 . S
C595 C591 1.317 . S
C595 H606 0.930 . S
C596 C590 1.412 1_565 S
C596 C597 1.355 . S
C596 H608 0.924 . S
C597 C596 1.355 . S
C597 C599 1.402 . S
C597 H609 0.930 . S
N598 Gd589 2.661 . S
N598 C593 1.350 1_565 S
N598 C599 1.307 . S
C599 C597 1.402 . S
C599 N598 1.307 . S
C599 H600 0.930 . S
H600 C599 0.930 . S
C601 N602 1.334 . S
C601 C603 1.394 . S
C601 H605 0.930 . S
N602 Gd589 2.601 1_545 S
N602 C592 1.359 . S
N602 C601 1.334 . S
C603 C601 1.394 . S
C603 C604 1.359 . S
C603 H615 0.930 . S
C604 C594 1.391 . S
C604 C603 1.359 . S
C604 H616 0.929 . S
H605 C601 0.930 . S
H606 C595 0.930 . S
H607 C624 0.930 . S
H608 C596 0.924 . S
H609 C597 0.930 . S
H610 C591 0.929 . S
H611 C629 0.930 . S
H612 C620 0.926 . S
H613 C621 0.930 . S
H614 C645 0.929 . S
H615 C603 0.930 . S
H616 C604 0.929 . S
H617 C646 0.930 . S
H618 C627 0.930 . S
N619 Gd588 2.661 . S
N619 C623 1.350 1_545 S
N619 C624 1.307 . S
C620 H612 0.926 . S
C620 C621 1.355 . S
C620 C622 1.412 1_545 S
C621 H613 0.930 . S
C621 C620 1.355 . S
C621 C624 1.402 . S
C622 C620 1.412 1_565 S
C622 C623 1.417 . S
C622 C646 1.431 . S
C623 N619 1.350 1_565 S
C623 C622 1.417 . S
C623 C626 1.426 . S
C624 H607 0.930 . S
C624 N619 1.307 . S
C624 C621 1.402 . S
N625 Gd588 2.601 1_565 S
N625 C626 1.359 . S
N625 C629 1.334 . S
C626 C623 1.426 . S
C626 N625 1.359 . S
C626 C630 1.413 . S
C627 H618 0.930 . S
C627 C628 1.359 . S
C627 C629 1.394 . S
C628 C627 1.359 . S
C628 C630 1.391 . S
C628 H631 0.929 . S
C629 H611 0.930 . S
C629 N625 1.334 . S
C629 C627 1.394 . S
C630 C626 1.413 . S
C630 C628 1.391 . S
C630 C645 1.437 . S
H631 C628 0.929 . S
O632 Gd588 2.545 . S
O632 C647 1.258 . S
O633 Gd588 2.606 . S
O633 Gd589 2.362 1_545 S
O633 C644 1.284 . S
O634 Gd589 2.324 . S
O634 C654 1.254 . S
O635 Gd588 2.429 1_565 S
O635 C654 1.268 . S
O636 Gd588 2.545 . S
O636 C644 1.250 . S
O637 Gd588 2.412 . S
O637 C647 1.252 . S
O638 Gd589 2.545 . S
O638 C656 1.258 . S
O639 Gd588 2.362 1_565 S
O639 Gd589 2.606 . S
O639 C655 1.284 . S
O640 Gd588 2.324 . S
O640 C663 1.254 . S
O641 Gd589 2.429 1_545 S
O641 C663 1.268 . S
O642 Gd589 2.545 . S
O642 C655 1.250 . S
O643 Gd589 2.412 . S
O643 C656 1.252 . S
C644 O633 1.284 . S
C644 O636 1.250 . S
C645 H614 0.929 . S
C645 C630 1.437 . S
C645 C646 1.317 . S
C646 H617 0.930 . S
C646 C622 1.431 . S
C646 C645 1.317 . S
C647 Gd588 2.828 . S
C647 O632 1.258 . S
C647 O637 1.252 . S
C647 C648 1.497 . S
C648 C647 1.497 . S
C648 C649 1.395 . S
C648 C650 1.380 . S
C649 C648 1.395 . S
C649 C652 1.398 . S
C649 H664 0.930 . S
C650 C648 1.380 . S
C650 C651 1.391 . S
C650 H665 0.930 . S
C651 C650 1.391 . S
C651 C653 1.387 . S
C652 C649 1.398 . S
C652 C653 1.380 . S
C652 H666 0.930 . S
C653 C651 1.387 . S
C653 C652 1.380 . S
C653 H667 0.930 . S
C654 O634 1.254 . S
C654 O635 1.268 . S
C655 O639 1.284 . S
C655 O642 1.250 . S
C656 Gd589 2.828 . S
C656 O638 1.258 . S
C656 O643 1.252 . S
C656 C657 1.497 . S
C657 C656 1.497 . S
C657 C658 1.395 . S
C657 C659 1.380 . S
C658 C657 1.395 . S
C658 C661 1.398 . S
C658 H668 0.930 . S
C659 C657 1.380 . S
C659 C660 1.391 . S
C659 H669 0.930 . S
C660 C659 1.391 . S
C660 C662 1.387 . S
C661 C658 1.398 . S
C661 C662 1.380 . S
C661 H670 0.930 . S
C662 C660 1.387 . S
C662 C661 1.380 . S
C662 H671 0.930 . S
C663 O640 1.254 . S
C663 O641 1.268 . S
H664 C649 0.930 . S
H665 C650 0.930 . S
H666 C652 0.930 . S
H667 C653 0.930 . S
H668 C658 0.930 . S
H669 C659 0.930 . S
H670 C661 0.930 . S
H671 C662 0.930 . S
Gd672 N703 2.661 . S
Gd672 N709 2.601 . S
Gd672 O716 2.545 . S
Gd672 O717 2.606 . S
Gd672 O719 2.429 . S
Gd672 O720 2.545 . S
Gd672 O721 2.412 . S
Gd672 O723 2.362 . S
Gd672 O724 2.324 . S
Gd672 C731 2.828 . S
Gd673 N682 2.661 . S
Gd673 N686 2.601 . S
Gd673 O717 2.362 . S
Gd673 O718 2.324 . S
Gd673 O722 2.545 . S
Gd673 O723 2.606 . S
Gd673 O725 2.429 . S
Gd673 O726 2.545 . S
Gd673 O727 2.412 . S
Gd673 C740 2.828 . S
C674 C677 1.417 . S
C674 C679 1.431 . S
C674 C680 1.412 . S
C675 C678 1.437 . S
C675 C679 1.317 . S
C675 H694 0.929 . S
C676 C677 1.426 . S
C676 C678 1.413 . S
C676 N686 1.359 . S
C677 C674 1.417 . S
C677 C676 1.426 . S
C677 N682 1.350 . S
C678 C675 1.437 . S
C678 C676 1.413 . S
C678 C688 1.391 . S
C679 C674 1.431 . S
C679 C675 1.317 . S
C679 H690 0.930 . S
C680 C674 1.412 . S
C680 C681 1.355 . S
C680 H692 0.930 . S
C681 C680 1.355 . S
C681 C683 1.402 . S
C681 H693 0.930 . S
N682 Gd673 2.661 . S
N682 C677 1.350 . S
N682 C683 1.307 . S
C683 C681 1.402 . S
C683 N682 1.307 . S
C683 H684 0.930 . S
H684 C683 0.930 . S
C685 N686 1.334 . S
C685 C687 1.394 . S
C685 H689 0.930 . S
N686 Gd673 2.601 . S
N686 C676 1.359 . S
N686 C685 1.334 . S
C687 C685 1.394 . S
C687 C688 1.359 . S
C687 H699 0.930 . S
C688 C678 1.391 . S
C688 C687 1.359 . S
C688 H700 0.929 . S
H689 C685 0.930 . S
H690 C679 0.930 . S
H691 C708 0.930 . S
H692 C680 0.930 . S
H693 C681 0.930 . S
H694 C675 0.929 . S
H695 C713 0.930 . S
H696 C704 0.930 . S
H697 C705 0.930 . S
H698 C729 0.929 . S
H699 C687 0.930 . S
H700 C688 0.929 . S
H701 C730 0.930 . S
H702 C711 0.930 . S
N703 Gd672 2.661 . S
N703 C707 1.350 . S
N703 C708 1.307 . S
C704 H696 0.930 . S
C704 C705 1.355 . S
C704 C706 1.412 . S
C705 H697 0.930 . S
C705 C704 1.355 . S
C705 C708 1.402 . S
C706 C704 1.412 . S
C706 C707 1.417 . S
C706 C730 1.431 . S
C707 N703 1.350 . S
C707 C706 1.417 . S
C707 C710 1.426 . S
C708 H691 0.930 . S
C708 N703 1.307 . S
C708 C705 1.402 . S
N709 Gd672 2.601 . S
N709 C710 1.359 . S
N709 C713 1.334 . S
C710 C707 1.426 . S
C710 N709 1.359 . S
C710 C714 1.413 . S
C711 H702 0.930 . S
C711 C712 1.359 . S
C711 C713 1.394 . S
C712 C711 1.359 . S
C712 C714 1.391 . S
C712 H715 0.929 . S
C713 H695 0.930 . S
C713 N709 1.334 . S
C713 C711 1.394 . S
C714 C710 1.413 . S
C714 C712 1.391 . S
C714 C729 1.437 . S
H715 C712 0.929 . S
O716 Gd672 2.545 . S
O716 C731 1.258 . S
O717 Gd672 2.606 . S
O717 Gd673 2.362 . S
O717 C728 1.284 . S
O718 Gd673 2.324 . S
O718 C738 1.254 . S
O719 Gd672 2.429 . S
O719 C738 1.268 . S
O720 Gd672 2.545 . S
O720 C728 1.250 . S
O721 Gd672 2.412 . S
O721 C731 1.252 . S
O722 Gd673 2.545 . S
O722 C740 1.258 . S
O723 Gd672 2.362 . S
O723 Gd673 2.606 . S
O723 C739 1.284 . S
O724 Gd672 2.324 . S
O724 C747 1.254 . S
O725 Gd673 2.429 . S
O725 C747 1.268 . S
O726 Gd673 2.545 . S
O726 C739 1.250 . S
O727 Gd673 2.412 . S
O727 C740 1.252 . S
C728 O717 1.284 . S
C728 O720 1.250 . S
C729 H698 0.929 . S
C729 C714 1.437 . S
C729 C730 1.317 . S
C730 H701 0.930 . S
C730 C706 1.431 . S
C730 C729 1.317 . S
C731 Gd672 2.828 . S
C731 O716 1.258 . S
C731 O721 1.252 . S
C731 C732 1.497 . S
C732 C731 1.497 . S
C732 C733 1.395 . S
C732 C734 1.380 . S
C733 C732 1.395 . S
C733 C736 1.398 . S
C733 H748 0.930 . S
C734 C732 1.380 . S
C734 C735 1.391 . S
C734 H749 0.930 . S
C735 C734 1.391 . S
C735 C737 1.387 . S
C736 C733 1.398 . S
C736 C737 1.380 . S
C736 H750 0.930 . S
C737 C735 1.387 . S
C737 C736 1.380 . S
C737 H751 0.930 . S
C738 O718 1.254 . S
C738 O719 1.268 . S
C739 O723 1.284 . S
C739 O726 1.250 . S
C740 Gd673 2.828 . S
C740 O722 1.258 . S
C740 O727 1.252 . S
C740 C741 1.497 . S
C741 C740 1.497 . S
C741 C742 1.395 . S
C741 C743 1.380 . S
C742 C741 1.395 . S
C742 C745 1.398 . S
C742 H752 0.930 . S
C743 C741 1.380 . S
C743 C744 1.391 . S
C743 H753 0.930 . S
C744 C743 1.391 . S
C744 C746 1.387 . S
C745 C742 1.398 . S
C745 C746 1.380 . S
C745 H754 0.930 . S
C746 C744 1.387 . S
C746 C745 1.380 . S
C746 H755 0.930 . S
C747 O724 1.254 . S
C747 O725 1.268 . S
H748 C733 0.930 . S
H749 C734 0.930 . S
H750 C736 0.930 . S
H751 C737 0.930 . S
H752 C742 0.930 . S
H753 C743 0.930 . S
H754 C745 0.930 . S
H755 C746 0.930 . S
Gd756 N787 2.661 . S
Gd756 N793 2.601 1_655 S
Gd756 O800 2.545 1_556 S
Gd756 O801 2.606 . S
Gd756 O803 2.451 1_655 S
Gd756 O804 2.545 1_556 S
Gd756 O805 2.412 . S
Gd756 O807 2.362 1_655 S
Gd756 O808 2.324 . S
Gd756 C815 2.828 1_556 S
Gd757 N766 2.661 . S
Gd757 N770 2.601 1_455 S
Gd757 O801 2.362 1_455 S
Gd757 O802 2.324 . S
Gd757 O806 2.545 . S
Gd757 O807 2.606 . S
Gd757 O809 2.429 1_455 S
Gd757 O810 2.545 . S
Gd757 O811 2.412 . S
Gd757 C824 2.828 . S
C758 C761 1.417 . S
C758 C763 1.431 . S
C758 C764 1.421 . S
C759 C762 1.437 . S
C759 C763 1.317 . S
C759 H778 0.929 . S
C760 C761 1.426 . S
C760 C762 1.413 . S
C760 N770 1.359 . S
C761 C758 1.417 . S
C761 C760 1.426 . S
C761 N766 1.350 1_655 S
C762 C759 1.437 . S
C762 C760 1.413 . S
C762 C772 1.391 . S
C763 C758 1.431 . S
C763 C759 1.317 . S
C763 H774 0.930 . S
C764 C758 1.421 . S
C764 C765 1.334 1_656 S
C764 H776 0.941 1_556 S
C765 C764 1.334 1_454 S
C765 C767 1.402 1_554 S
C765 H777 0.931 . S
N766 Gd757 2.661 . S
N766 C761 1.350 1_455 S
N766 C767 1.307 . S
C767 C765 1.402 1_556 S
C767 N766 1.307 . S
C767 H768 0.930 . S
H768 C767 0.930 . S
C769 N770 1.334 . S
C769 C771 1.394 . S
C769 H773 0.930 . S
N770 Gd757 2.601 1_655 S
N770 C760 1.359 . S
N770 C769 1.334 . S
C771 C769 1.394 . S
C771 C772 1.359 . S
C771 H783 0.930 . S
C772 C762 1.391 . S
C772 C771 1.359 . S
C772 H784 0.929 . S
H773 C769 0.930 . S
H774 C763 0.930 . S
H775 C792 0.930 . S
H776 C764 0.941 1_554 S
H777 C765 0.931 . S
H778 C759 0.929 . S
H779 C797 0.930 . S
H780 C788 0.944 . S
H781 C789 0.930 . S
H782 C813 0.929 . S
H783 C771 0.930 . S
H784 C772 0.929 . S
H785 C814 0.930 . S
H786 C795 0.930 . S
N787 Gd756 2.661 . S
N787 C791 1.350 1_655 S
N787 C792 1.307 . S
C788 H780 0.944 . S
C788 C789 1.329 1_455 S
C788 C790 1.423 . S
C789 H781 0.930 . S
C789 C788 1.329 1_655 S
C789 C792 1.402 . S
C790 C788 1.423 . S
C790 C791 1.417 . S
C790 C814 1.431 . S
C791 N787 1.350 1_455 S
C791 C790 1.417 . S
C791 C794 1.426 . S
C792 H775 0.930 . S
C792 N787 1.307 . S
C792 C789 1.402 . S
N793 Gd756 2.601 1_455 S
N793 C794 1.359 . S
N793 C797 1.334 1_556 S
C794 C791 1.426 . S
C794 N793 1.359 . S
C794 C798 1.413 . S
C795 H786 0.930 . S
C795 C796 1.359 . S
C795 C797 1.394 . S
C796 C795 1.359 . S
C796 C798 1.391 1_554 S
C796 H799 0.929 . S
C797 H779 0.930 . S
C797 N793 1.334 1_554 S
C797 C795 1.394 . S
C798 C794 1.413 . S
C798 C796 1.391 1_556 S
C798 C813 1.437 . S
H799 C796 0.929 . S
O800 Gd756 2.545 1_554 S
O800 C815 1.258 . S
O801 Gd756 2.606 . S
O801 Gd757 2.362 1_655 S
O801 C812 1.284 . S
O802 Gd757 2.324 . S
O802 C822 1.254 . S
O803 Gd756 2.451 1_455 S
O803 C822 1.302 . S
O804 Gd756 2.545 1_554 S
O804 C812 1.250 1_554 S
O805 Gd756 2.412 . S
O805 C815 1.252 1_556 S
O806 Gd757 2.545 . S
O806 C824 1.258 . S
O807 Gd756 2.362 1_455 S
O807 Gd757 2.606 . S
O807 C823 1.284 . S
O808 Gd756 2.324 . S
O808 C831 1.254 . S
O809 Gd757 2.429 1_655 S
O809 C831 1.268 . S
O810 Gd757 2.545 . S
O810 C823 1.250 . S
O811 Gd757 2.412 . S
O811 C824 1.252 . S
C812 O801 1.284 . S
C812 O804 1.250 1_556 S
C813 H782 0.929 . S
C813 C798 1.437 . S
C813 C814 1.317 . S
C814 H785 0.930 . S
C814 C790 1.431 . S
C814 C813 1.317 . S
C815 Gd756 2.828 1_554 S
C815 O800 1.258 . S
C815 O805 1.252 1_554 S
C815 C816 1.497 . S
C816 C815 1.497 . S
C816 C817 1.395 . S
C816 C818 1.380 . S
C817 C816 1.395 . S
C817 C820 1.398 . S
C817 H832 0.930 . S
C818 C816 1.380 . S
C818 C819 1.391 . S
C818 H833 0.930 . S
C819 C818 1.391 . S
C819 C821 1.387 . S
C820 C817 1.398 . S
C820 C821 1.380 . S
C820 H834 0.930 . S
C821 C819 1.387 . S
C821 C820 1.380 . S
C821 H835 0.930 . S
C822 O802 1.254 . S
C822 O803 1.302 . S
C823 O807 1.284 . S
C823 O810 1.250 . S
C824 Gd757 2.828 . S
C824 O806 1.258 . S
C824 O811 1.252 . S
C824 C825 1.497 . S
C825 C824 1.497 . S
C825 C826 1.395 . S
C825 C827 1.380 . S
C826 C825 1.395 . S
C826 C829 1.398 . S
C826 H836 0.930 . S
C827 C825 1.380 . S
C827 C828 1.391 . S
C827 H837 0.930 . S
C828 C827 1.391 . S
C828 C830 1.387 . S
C829 C826 1.398 . S
C829 C830 1.380 . S
C829 H838 0.930 . S
C830 C828 1.387 . S
C830 C829 1.380 . S
C830 H839 0.930 . S
C831 O808 1.254 . S
C831 O809 1.268 . S
H832 C817 0.930 . S
H833 C818 0.930 . S
H834 C820 0.930 . S
H835 C821 0.930 . S
H836 C826 0.930 . S
H837 C827 0.930 . S
H838 C829 0.930 . S
H839 C830 0.930 . S
Gd840 N871 2.661 . S
Gd840 N877 2.601 1_565 S
Gd840 O884 2.545 . S
Gd840 O885 2.606 . S
Gd840 O887 2.429 1_565 S
Gd840 O888 2.545 . S
Gd840 O889 2.412 . S
Gd840 O891 2.362 1_565 S
Gd840 O892 2.324 . S
Gd840 C899 2.828 . S
Gd841 N850 2.661 . S
Gd841 N854 2.601 1_545 S
Gd841 O885 2.362 1_545 S
Gd841 O886 2.324 . S
Gd841 O890 2.545 . S
Gd841 O891 2.606 . S
Gd841 O893 2.429 1_545 S
Gd841 O894 2.545 . S
Gd841 O895 2.412 . S
Gd841 C908 2.828 . S
C842 C845 1.417 . S
C842 C847 1.431 . S
C842 C848 1.412 1_565 S
C843 C846 1.437 . S
C843 C847 1.317 . S
C843 H862 0.929 . S
C844 C845 1.426 . S
C844 C846 1.413 . S
C844 N854 1.359 . S
C845 C842 1.417 . S
C845 C844 1.426 . S
C845 N850 1.350 1_565 S
C846 C843 1.437 . S
C846 C844 1.413 . S
C846 C856 1.391 . S
C847 C842 1.431 . S
C847 C843 1.317 . S
C847 H858 0.930 . S
C848 C842 1.412 1_545 S
C848 C849 1.355 . S
C848 H860 0.924 . S
C849 C848 1.355 . S
C849 C851 1.402 . S
C849 H861 0.930 . S
N850 Gd841 2.661 . S
N850 C845 1.350 1_545 S
N850 C851 1.307 . S
C851 C849 1.402 . S
C851 N850 1.307 . S
C851 H852 0.930 . S
H852 C851 0.930 . S
C853 N854 1.334 . S
C853 C855 1.394 . S
C853 H857 0.930 . S
N854 Gd841 2.601 1_565 S
N854 C844 1.359 . S
N854 C853 1.334 . S
C855 C853 1.394 . S
C855 C856 1.359 . S
C855 H867 0.930 . S
C856 C846 1.391 . S
C856 C855 1.359 . S
C856 H868 0.929 . S
H857 C853 0.930 . S
H858 C847 0.930 . S
H859 C876 0.930 . S
H860 C848 0.924 . S
H861 C849 0.930 . S
H862 C843 0.929 . S
H863 C881 0.930 . S
H864 C872 0.926 . S
H865 C873 0.930 . S
H866 C897 0.929 . S
H867 C855 0.930 . S
H868 C856 0.929 . S
H869 C898 0.930 . S
H870 C879 0.930 . S
N871 Gd840 2.661 . S
N871 C875 1.350 1_565 S
N871 C876 1.307 . S
C872 H864 0.926 . S
C872 C873 1.355 . S
C872 C874 1.412 1_565 S
C873 H865 0.930 . S
C873 C872 1.355 . S
C873 C876 1.402 . S
C874 C872 1.412 1_545 S
C874 C875 1.417 . S
C874 C898 1.431 . S
C875 N871 1.350 1_545 S
C875 C874 1.417 . S
C875 C878 1.426 . S
C876 H859 0.930 . S
C876 N871 1.307 . S
C876 C873 1.402 . S
N877 Gd840 2.601 1_545 S
N877 C878 1.359 . S
N877 C881 1.334 . S
C878 C875 1.426 . S
C878 N877 1.359 . S
C878 C882 1.413 . S
C879 H870 0.930 . S
C879 C880 1.359 . S
C879 C881 1.394 . S
C880 C879 1.359 . S
C880 C882 1.391 . S
C880 H883 0.929 . S
C881 H863 0.930 . S
C881 N877 1.334 . S
C881 C879 1.394 . S
C882 C878 1.413 . S
C882 C880 1.391 . S
C882 C897 1.437 . S
H883 C880 0.929 . S
O884 Gd840 2.545 . S
O884 C899 1.258 . S
O885 Gd840 2.606 . S
O885 Gd841 2.362 1_565 S
O885 C896 1.284 . S
O886 Gd841 2.324 . S
O886 C906 1.254 . S
O887 Gd840 2.429 1_545 S
O887 C906 1.268 . S
O888 Gd840 2.545 . S
O888 C896 1.250 . S
O889 Gd840 2.412 . S
O889 C899 1.252 . S
O890 Gd841 2.545 . S
O890 C908 1.258 . S
O891 Gd840 2.362 1_545 S
O891 Gd841 2.606 . S
O891 C907 1.284 . S
O892 Gd840 2.324 . S
O892 C915 1.254 . S
O893 Gd841 2.429 1_565 S
O893 C915 1.268 . S
O894 Gd841 2.545 . S
O894 C907 1.250 . S
O895 Gd841 2.412 . S
O895 C908 1.252 . S
C896 O885 1.284 . S
C896 O888 1.250 . S
C897 H866 0.929 . S
C897 C882 1.437 . S
C897 C898 1.317 . S
C898 H869 0.930 . S
C898 C874 1.431 . S
C898 C897 1.317 . S
C899 Gd840 2.828 . S
C899 O884 1.258 . S
C899 O889 1.252 . S
C899 C900 1.497 . S
C900 C899 1.497 . S
C900 C901 1.395 . S
C900 C902 1.380 . S
C901 C900 1.395 . S
C901 C904 1.398 . S
C901 H916 0.930 . S
C902 C900 1.380 . S
C902 C903 1.391 . S
C902 H917 0.930 . S
C903 C902 1.391 . S
C903 C905 1.387 . S
C904 C901 1.398 . S
C904 C905 1.380 . S
C904 H918 0.930 . S
C905 C903 1.387 . S
C905 C904 1.380 . S
C905 H919 0.930 . S
C906 O886 1.254 . S
C906 O887 1.268 . S
C907 O891 1.284 . S
C907 O894 1.250 . S
C908 Gd841 2.828 . S
C908 O890 1.258 . S
C908 O895 1.252 . S
C908 C909 1.497 . S
C909 C908 1.497 . S
C909 C910 1.395 . S
C909 C911 1.380 . S
C910 C909 1.395 . S
C910 C913 1.398 . S
C910 H920 0.930 . S
C911 C909 1.380 . S
C911 C912 1.391 . S
C911 H921 0.930 . S
C912 C911 1.391 . S
C912 C914 1.387 . S
C913 C910 1.398 . S
C913 C914 1.380 . S
C913 H922 0.930 . S
C914 C912 1.387 . S
C914 C913 1.380 . S
C914 H923 0.930 . S
C915 O892 1.254 . S
C915 O893 1.268 . S
H916 C901 0.930 . S
H917 C902 0.930 . S
H918 C904 0.930 . S
H919 C905 0.930 . S
H920 C910 0.930 . S
H921 C911 0.930 . S
H922 C913 0.930 . S
H923 C914 0.930 . S
Gd924 N955 2.661 . S
Gd924 N961 2.601 . S
Gd924 O968 2.545 . S
Gd924 O969 2.606 . S
Gd924 O971 2.429 . S
Gd924 O972 2.545 . S
Gd924 O973 2.412 . S
Gd924 O975 2.362 . S
Gd924 O976 2.324 . S
Gd924 C983 2.828 . S
Gd925 N934 2.661 . S
Gd925 N938 2.601 . S
Gd925 O969 2.362 . S
Gd925 O970 2.324 . S
Gd925 O974 2.545 . S
Gd925 O975 2.606 . S
Gd925 O977 2.429 . S
Gd925 O978 2.545 . S
Gd925 O979 2.412 . S
Gd925 C992 2.828 . S
C926 C929 1.417 . S
C926 C931 1.431 . S
C926 C932 1.412 . S
C927 C930 1.437 . S
C927 C931 1.317 . S
C927 H946 0.929 . S
C928 C929 1.426 . S
C928 C930 1.413 . S
C928 N938 1.359 . S
C929 C926 1.417 . S
C929 C928 1.426 . S
C929 N934 1.350 . S
C930 C927 1.437 . S
C930 C928 1.413 . S
C930 C940 1.391 . S
C931 C926 1.431 . S
C931 C927 1.317 . S
C931 H942 0.930 . S
C932 C926 1.412 . S
C932 C933 1.355 . S
C932 H944 0.930 . S
C933 C932 1.355 . S
C933 C935 1.402 . S
C933 H945 0.930 . S
N934 Gd925 2.661 . S
N934 C929 1.350 . S
N934 C935 1.307 . S
C935 C933 1.402 . S
C935 N934 1.307 . S
C935 H936 0.930 . S
H936 C935 0.930 . S
C937 N938 1.334 . S
C937 C939 1.394 . S
C937 H941 0.930 . S
N938 Gd925 2.601 . S
N938 C928 1.359 . S
N938 C937 1.334 . S
C939 C937 1.394 . S
C939 C940 1.359 . S
C939 H951 0.930 . S
C940 C930 1.391 . S
C940 C939 1.359 . S
C940 H952 0.929 . S
H941 C937 0.930 . S
H942 C931 0.930 . S
H943 C960 0.930 . S
H944 C932 0.930 . S
H945 C933 0.930 . S
H946 C927 0.929 . S
H947 C965 0.930 . S
H948 C956 0.930 . S
H949 C957 0.930 . S
H950 C981 0.929 . S
H951 C939 0.930 . S
H952 C940 0.929 . S
H953 C982 0.930 . S
H954 C963 0.930 . S
N955 Gd924 2.661 . S
N955 C959 1.350 . S
N955 C960 1.307 . S
C956 H948 0.930 . S
C956 C957 1.355 . S
C956 C958 1.412 . S
C957 H949 0.930 . S
C957 C956 1.355 . S
C957 C960 1.402 . S
C958 C956 1.412 . S
C958 C959 1.417 . S
C958 C982 1.431 . S
C959 N955 1.350 . S
C959 C958 1.417 . S
C959 C962 1.426 . S
C960 H943 0.930 . S
C960 N955 1.307 . S
C960 C957 1.402 . S
N961 Gd924 2.601 . S
N961 C962 1.359 . S
N961 C965 1.334 . S
C962 C959 1.426 . S
C962 N961 1.359 . S
C962 C966 1.413 . S
C963 H954 0.930 . S
C963 C964 1.359 . S
C963 C965 1.394 . S
C964 C963 1.359 . S
C964 C966 1.391 . S
C964 H967 0.929 . S
C965 H947 0.930 . S
C965 N961 1.334 . S
C965 C963 1.394 . S
C966 C962 1.413 . S
C966 C964 1.391 . S
C966 C981 1.437 . S
H967 C964 0.929 . S
O968 Gd924 2.545 . S
O968 C983 1.258 . S
O969 Gd924 2.606 . S
O969 Gd925 2.362 . S
O969 C980 1.284 . S
O970 Gd925 2.324 . S
O970 C990 1.254 . S
O971 Gd924 2.429 . S
O971 C990 1.268 . S
O972 Gd924 2.545 . S
O972 C980 1.250 . S
O973 Gd924 2.412 . S
O973 C983 1.252 . S
O974 Gd925 2.545 . S
O974 C992 1.258 . S
O975 Gd924 2.362 . S
O975 Gd925 2.606 . S
O975 C991 1.284 . S
O976 Gd924 2.324 . S
O976 C999 1.254 . S
O977 Gd925 2.429 . S
O977 C999 1.268 . S
O978 Gd925 2.545 . S
O978 C991 1.250 . S
O979 Gd925 2.412 . S
O979 C992 1.252 . S
C980 O969 1.284 . S
C980 O972 1.250 . S
C981 H950 0.929 . S
C981 C966 1.437 . S
C981 C982 1.317 . S
C982 H953 0.930 . S
C982 C958 1.431 . S
C982 C981 1.317 . S
C983 Gd924 2.828 . S
C983 O968 1.258 . S
C983 O973 1.252 . S
C983 C984 1.497 . S
C984 C983 1.497 . S
C984 C985 1.395 . S
C984 C986 1.380 . S
C985 C984 1.395 . S
C985 C988 1.398 . S
C985 H1000 0.930 . S
C986 C984 1.380 . S
C986 C987 1.391 . S
C986 H1001 0.930 . S
C987 C986 1.391 . S
C987 C989 1.387 . S
C988 C985 1.398 . S
C988 C989 1.380 . S
C988 H1002 0.930 . S
C989 C987 1.387 . S
C989 C988 1.380 . S
C989 H1003 0.930 . S
C990 O970 1.254 . S
C990 O971 1.268 . S
C991 O975 1.284 . S
C991 O978 1.250 . S
C992 Gd925 2.828 . S
C992 O974 1.258 . S
C992 O979 1.252 . S
C992 C993 1.497 . S
C993 C992 1.497 . S
C993 C994 1.395 . S
C993 C995 1.380 . S
C994 C993 1.395 . S
C994 C997 1.398 . S
C994 H1004 0.930 . S
C995 C993 1.380 . S
C995 C996 1.391 . S
C995 H1005 0.930 . S
C996 C995 1.391 . S
C996 C998 1.387 . S
C997 C994 1.398 . S
C997 C998 1.380 . S
C997 H1006 0.930 . S
C998 C996 1.387 . S
C998 C997 1.380 . S
C998 H1007 0.930 . S
C999 O976 1.254 . S
C999 O977 1.268 . S
H1000 C985 0.930 . S
H1001 C986 0.930 . S
H1002 C988 0.930 . S
H1003 C989 0.930 . S
H1004 C994 0.930 . S
H1005 C995 0.930 . S
H1006 C997 0.930 . S
H1007 C998 0.930 . S
H1008 C1020 0.930 . S
H1009 C1022 0.930 . S
H1010 C1023 0.930 . S
H1011 C1027 0.959 . S
H1012 C1027 0.959 . S
H1013 C1027 0.961 . S
H1014 C1028 0.960 . S
H1015 C1028 0.961 . S
H1016 C1028 0.959 . S
H1017 C1031 0.929 . S
H1018 C1032 0.931 . S
H1019 C1034 0.930 . S
C1020 H1008 0.930 . S
C1020 C1021 1.399 . S
C1020 C1025 1.399 . S
C1021 C1020 1.399 . S
C1021 C1022 1.376 . S
C1022 H1009 0.930 . S
C1022 C1021 1.376 . S
C1022 C1023 1.388 . S
C1023 H1010 0.930 . S
C1023 C1022 1.388 . S
C1023 C1024 1.390 . S
C1024 C1023 1.390 . S
C1024 C1025 1.394 . S
C1024 C1030 1.465 . S
C1025 C1020 1.399 . S
C1025 C1024 1.394 . S
C1025 C1026 1.516 . S
C1026 C1025 1.516 . S
C1026 C1027 1.502 . S
C1026 C1028 1.561 . S
C1026 C1029 1.526 . S
C1027 H1011 0.959 . S
C1027 H1012 0.959 . S
C1027 H1013 0.961 . S
C1027 C1026 1.502 . S
C1028 H1014 0.960 . S
C1028 H1015 0.961 . S
C1028 H1016 0.959 . S
C1028 C1026 1.561 . S
C1029 C1026 1.526 . S
C1029 C1030 1.396 . S
C1029 C1034 1.390 . S
C1030 C1024 1.465 . S
C1030 C1029 1.396 . S
C1030 C1031 1.399 . S
C1031 H1017 0.929 . S
C1031 C1030 1.399 . S
C1031 C1032 1.385 . S
C1032 H1018 0.931 . S
C1032 C1031 1.385 . S
C1032 C1033 1.389 . S
C1033 C1032 1.389 . S
C1033 C1034 1.387 . S
C1034 H1019 0.930 . S
C1034 C1029 1.390 . S
C1034 C1033 1.387 . S
H1035 C1047 0.930 . S
H1036 C1049 0.930 . S
H1037 C1050 0.930 . S
H1038 C1054 0.959 . S
H1039 C1054 0.959 . S
H1040 C1054 0.961 . S
H1041 C1055 0.960 . S
H1042 C1055 0.961 . S
H1043 C1055 0.959 . S
H1044 C1058 0.929 . S
H1045 C1059 0.931 . S
H1046 C1061 0.930 . S
C1047 H1035 0.930 . S
C1047 C1048 1.399 . S
C1047 C1052 1.399 . S
C1048 C1047 1.399 . S
C1048 C1049 1.376 . S
C1049 H1036 0.930 . S
C1049 C1048 1.376 . S
C1049 C1050 1.388 . S
C1050 H1037 0.930 . S
C1050 C1049 1.388 . S
C1050 C1051 1.390 . S
C1051 C1050 1.390 . S
C1051 C1052 1.394 . S
C1051 C1057 1.465 . S
C1052 C1047 1.399 . S
C1052 C1051 1.394 . S
C1052 C1053 1.516 . S
C1053 C1052 1.516 . S
C1053 C1054 1.502 . S
C1053 C1055 1.561 . S
C1053 C1056 1.526 . S
C1054 H1038 0.959 . S
C1054 H1039 0.959 . S
C1054 H1040 0.961 . S
C1054 C1053 1.502 . S
C1055 H1041 0.960 . S
C1055 H1042 0.961 . S
C1055 H1043 0.959 . S
C1055 C1053 1.561 . S
C1056 C1053 1.526 . S
C1056 C1057 1.396 . S
C1056 C1061 1.390 . S
C1057 C1051 1.465 . S
C1057 C1056 1.396 . S
C1057 C1058 1.399 . S
C1058 H1044 0.929 . S
C1058 C1057 1.399 . S
C1058 C1059 1.385 . S
C1059 H1045 0.931 . S
C1059 C1058 1.385 . S
C1059 C1060 1.389 . S
C1060 C1059 1.389 . S
C1060 C1061 1.387 . S
C1061 H1046 0.930 . S
C1061 C1056 1.390 . S
C1061 C1060 1.387 . S
H1062 C1074 0.930 . S
H1063 C1076 0.930 . S
H1064 C1077 0.930 . S
H1065 C1081 0.959 . S
H1066 C1081 0.959 . S
H1067 C1081 0.961 . S
H1068 C1082 0.960 . S
H1069 C1082 0.961 . S
H1070 C1082 0.959 . S
H1071 C1085 0.929 . S
H1072 C1086 0.931 . S
H1073 C1088 0.930 . S
C1074 H1062 0.930 . S
C1074 C1075 1.399 . S
C1074 C1079 1.399 . S
C1075 C1074 1.399 . S
C1075 C1076 1.376 . S
C1076 H1063 0.930 . S
C1076 C1075 1.376 . S
C1076 C1077 1.388 . S
C1077 H1064 0.930 . S
C1077 C1076 1.388 . S
C1077 C1078 1.390 . S
C1078 C1077 1.390 . S
C1078 C1079 1.394 . S
C1078 C1084 1.465 . S
C1079 C1074 1.399 . S
C1079 C1078 1.394 . S
C1079 C1080 1.516 . S
C1080 C1079 1.516 . S
C1080 C1081 1.502 . S
C1080 C1082 1.561 . S
C1080 C1083 1.526 . S
C1081 H1065 0.959 . S
C1081 H1066 0.959 . S
C1081 H1067 0.961 . S
C1081 C1080 1.502 . S
C1082 H1068 0.960 . S
C1082 H1069 0.961 . S
C1082 H1070 0.959 . S
C1082 C1080 1.561 . S
C1083 C1080 1.526 . S
C1083 C1084 1.396 . S
C1083 C1088 1.390 . S
C1084 C1078 1.465 . S
C1084 C1083 1.396 . S
C1084 C1085 1.399 . S
C1085 H1071 0.929 . S
C1085 C1084 1.399 . S
C1085 C1086 1.385 . S
C1086 H1072 0.931 . S
C1086 C1085 1.385 . S
C1086 C1087 1.389 . S
C1087 C1086 1.389 . S
C1087 C1088 1.387 . S
C1088 H1073 0.930 . S
C1088 C1083 1.390 . S
C1088 C1087 1.387 . S
H1089 C1101 0.930 . S
H1090 C1103 0.930 . S
H1091 C1104 0.930 . S
H1092 C1108 0.959 . S
H1093 C1108 0.959 . S
H1094 C1108 0.961 . S
H1095 C1109 0.960 . S
H1096 C1109 0.961 . S
H1097 C1109 0.959 . S
H1098 C1112 0.929 . S
H1099 C1113 0.931 . S
H1100 C1115 0.930 . S
C1101 H1089 0.930 . S
C1101 C1102 1.399 . S
C1101 C1106 1.399 . S
C1102 C1101 1.399 . S
C1102 C1103 1.376 . S
C1103 H1090 0.930 . S
C1103 C1102 1.376 . S
C1103 C1104 1.388 . S
C1104 H1091 0.930 . S
C1104 C1103 1.388 . S
C1104 C1105 1.390 . S
C1105 C1104 1.390 . S
C1105 C1106 1.394 . S
C1105 C1111 1.465 . S
C1106 C1101 1.399 . S
C1106 C1105 1.394 . S
C1106 C1107 1.516 . S
C1107 C1106 1.516 . S
C1107 C1108 1.502 . S
C1107 C1109 1.561 . S
C1107 C1110 1.526 . S
C1108 H1092 0.959 . S
C1108 H1093 0.959 . S
C1108 H1094 0.961 . S
C1108 C1107 1.502 . S
C1109 H1095 0.960 . S
C1109 H1096 0.961 . S
C1109 H1097 0.959 . S
C1109 C1107 1.561 . S
C1110 C1107 1.526 . S
C1110 C1111 1.396 . S
C1110 C1115 1.390 . S
C1111 C1105 1.465 . S
C1111 C1110 1.396 . S
C1111 C1112 1.399 . S
C1112 H1098 0.929 . S
C1112 C1111 1.399 . S
C1112 C1113 1.385 . S
C1113 H1099 0.931 . S
C1113 C1112 1.385 . S
C1113 C1114 1.389 . S
C1114 C1113 1.389 . S
C1114 C1115 1.387 . S
C1115 H1100 0.930 . S
C1115 C1110 1.390 . S
C1115 C1114 1.387 . S
H1116 C1128 0.930 . S
H1117 C1130 0.930 . S
H1118 C1131 0.930 . S
H1119 C1135 0.959 . S
H1120 C1135 0.959 . S
H1121 C1135 0.961 . S
H1122 C1136 0.960 . S
H1123 C1136 0.961 . S
H1124 C1136 0.959 . S
H1125 C1139 0.929 . S
H1126 C1140 0.931 . S
H1127 C1142 0.930 . S
C1128 H1116 0.930 . S
C1128 C1129 1.399 . S
C1128 C1133 1.399 . S
C1129 C1128 1.399 . S
C1129 C1130 1.376 . S
C1130 H1117 0.930 . S
C1130 C1129 1.376 . S
C1130 C1131 1.388 . S
C1131 H1118 0.930 . S
C1131 C1130 1.388 . S
C1131 C1132 1.390 . S
C1132 C1131 1.390 . S
C1132 C1133 1.394 . S
C1132 C1138 1.465 . S
C1133 C1128 1.399 . S
C1133 C1132 1.394 . S
C1133 C1134 1.516 . S
C1134 C1133 1.516 . S
C1134 C1135 1.502 . S
C1134 C1136 1.561 . S
C1134 C1137 1.526 . S
C1135 H1119 0.959 . S
C1135 H1120 0.959 . S
C1135 H1121 0.961 . S
C1135 C1134 1.502 . S
C1136 H1122 0.960 . S
C1136 H1123 0.961 . S
C1136 H1124 0.959 . S
C1136 C1134 1.561 . S
C1137 C1134 1.526 . S
C1137 C1138 1.396 . S
C1137 C1142 1.390 . S
C1138 C1132 1.465 . S
C1138 C1137 1.396 . S
C1138 C1139 1.399 . S
C1139 H1125 0.929 . S
C1139 C1138 1.399 . S
C1139 C1140 1.385 . S
C1140 H1126 0.931 . S
C1140 C1139 1.385 . S
C1140 C1141 1.389 . S
C1141 C1140 1.389 . S
C1141 C1142 1.387 . S
C1142 H1127 0.930 . S
C1142 C1137 1.390 . S
C1142 C1141 1.387 . S
H1143 C1155 0.930 . S
H1144 C1157 0.930 . S
H1145 C1158 0.930 . S
H1146 C1162 0.959 . S
H1147 C1162 0.959 . S
H1148 C1162 0.961 . S
H1149 C1163 0.960 . S
H1150 C1163 0.961 . S
H1151 C1163 0.959 . S
H1152 C1166 0.929 . S
H1153 C1167 0.931 . S
H1154 C1169 0.930 . S
C1155 H1143 0.930 . S
C1155 C1156 1.399 . S
C1155 C1160 1.399 . S
C1156 C1155 1.399 . S
C1156 C1157 1.376 . S
C1157 H1144 0.930 . S
C1157 C1156 1.376 . S
C1157 C1158 1.388 . S
C1158 H1145 0.930 . S
C1158 C1157 1.388 . S
C1158 C1159 1.390 . S
C1159 C1158 1.390 . S
C1159 C1160 1.394 . S
C1159 C1165 1.465 . S
C1160 C1155 1.399 . S
C1160 C1159 1.394 . S
C1160 C1161 1.516 . S
C1161 C1160 1.516 . S
C1161 C1162 1.502 . S
C1161 C1163 1.561 . S
C1161 C1164 1.526 . S
C1162 H1146 0.959 . S
C1162 H1147 0.959 . S
C1162 H1148 0.961 . S
C1162 C1161 1.502 . S
C1163 H1149 0.960 . S
C1163 H1150 0.961 . S
C1163 H1151 0.959 . S
C1163 C1161 1.561 . S
C1164 C1161 1.526 . S
C1164 C1165 1.396 . S
C1164 C1169 1.390 . S
C1165 C1159 1.465 . S
C1165 C1164 1.396 . S
C1165 C1166 1.399 . S
C1166 H1152 0.929 . S
C1166 C1165 1.399 . S
C1166 C1167 1.385 . S
C1167 H1153 0.931 . S
C1167 C1166 1.385 . S
C1167 C1168 1.389 . S
C1168 C1167 1.389 . S
C1168 C1169 1.387 . S
C1169 H1154 0.930 . S
C1169 C1164 1.390 . S
C1169 C1168 1.387 . S
H1170 C1182 0.930 . S
H1171 C1184 0.930 . S
H1172 C1185 0.930 . S
H1173 C1189 0.959 . S
H1174 C1189 0.959 . S
H1175 C1189 0.961 . S
H1176 C1190 0.960 . S
H1177 C1190 0.961 . S
H1178 C1190 0.959 . S
H1179 C1193 0.929 . S
H1180 C1194 0.931 . S
H1181 C1196 0.930 . S
C1182 H1170 0.930 . S
C1182 C1183 1.399 . S
C1182 C1187 1.399 . S
C1183 C1182 1.399 . S
C1183 C1184 1.376 . S
C1184 H1171 0.930 . S
C1184 C1183 1.376 . S
C1184 C1185 1.388 . S
C1185 H1172 0.930 . S
C1185 C1184 1.388 . S
C1185 C1186 1.390 . S
C1186 C1185 1.390 . S
C1186 C1187 1.394 . S
C1186 C1192 1.465 . S
C1187 C1182 1.399 . S
C1187 C1186 1.394 . S
C1187 C1188 1.516 . S
C1188 C1187 1.516 . S
C1188 C1189 1.502 . S
C1188 C1190 1.561 . S
C1188 C1191 1.526 . S
C1189 H1173 0.959 . S
C1189 H1174 0.959 . S
C1189 H1175 0.961 . S
C1189 C1188 1.502 . S
C1190 H1176 0.960 . S
C1190 H1177 0.961 . S
C1190 H1178 0.959 . S
C1190 C1188 1.561 . S
C1191 C1188 1.526 . S
C1191 C1192 1.396 . S
C1191 C1196 1.390 . S
C1192 C1186 1.465 . S
C1192 C1191 1.396 . S
C1192 C1193 1.399 . S
C1193 H1179 0.929 . S
C1193 C1192 1.399 . S
C1193 C1194 1.385 . S
C1194 H1180 0.931 . S
C1194 C1193 1.385 . S
C1194 C1195 1.389 . S
C1195 C1194 1.389 . S
C1195 C1196 1.387 . S
C1196 H1181 0.930 . S
C1196 C1191 1.390 . S
C1196 C1195 1.387 . S
H1197 C1209 0.930 . S
H1198 C1211 0.930 . S
H1199 C1212 0.930 . S
H1200 C1216 0.959 . S
H1201 C1216 0.959 . S
H1202 C1216 0.961 . S
H1203 C1217 0.960 . S
H1204 C1217 0.961 . S
H1205 C1217 0.959 . S
H1206 C1220 0.929 . S
H1207 C1221 0.931 . S
H1208 C1223 0.930 . S
C1209 H1197 0.930 . S
C1209 C1210 1.399 . S
C1209 C1214 1.399 . S
C1210 C1209 1.399 . S
C1210 C1211 1.376 . S
C1211 H1198 0.930 . S
C1211 C1210 1.376 . S
C1211 C1212 1.388 . S
C1212 H1199 0.930 . S
C1212 C1211 1.388 . S
C1212 C1213 1.390 . S
C1213 C1212 1.390 . S
C1213 C1214 1.394 . S
C1213 C1219 1.465 . S
C1214 C1209 1.399 . S
C1214 C1213 1.394 . S
C1214 C1215 1.516 . S
C1215 C1214 1.516 . S
C1215 C1216 1.502 . S
C1215 C1217 1.561 . S
C1215 C1218 1.526 . S
C1216 H1200 0.959 . S
C1216 H1201 0.959 . S
C1216 H1202 0.961 . S
C1216 C1215 1.502 . S
C1217 H1203 0.960 . S
C1217 H1204 0.961 . S
C1217 H1205 0.959 . S
C1217 C1215 1.561 . S
C1218 C1215 1.526 . S
C1218 C1219 1.396 . S
C1218 C1223 1.390 . S
C1219 C1213 1.465 . S
C1219 C1218 1.396 . S
C1219 C1220 1.399 . S
C1220 H1206 0.929 . S
C1220 C1219 1.399 . S
C1220 C1221 1.385 . S
C1221 H1207 0.931 . S
C1221 C1220 1.385 . S
C1221 C1222 1.389 . S
C1222 C1221 1.389 . S
C1222 C1223 1.387 . S
C1223 H1208 0.930 . S
C1223 C1218 1.390 . S
C1223 C1222 1.387 . S
H1224 C1236 0.930 . S
H1225 C1238 0.930 . S
H1226 C1239 0.930 . S
H1227 C1243 0.959 . S
H1228 C1243 0.959 . S
H1229 C1243 0.961 . S
H1230 C1244 0.960 . S
H1231 C1244 0.961 . S
H1232 C1244 0.959 . S
H1233 C1247 0.929 . S
H1234 C1248 0.931 . S
H1235 C1250 0.930 . S
C1236 H1224 0.930 . S
C1236 C1237 1.399 . S
C1236 C1241 1.399 . S
C1237 C1236 1.399 . S
C1237 C1238 1.376 . S
C1238 H1225 0.930 . S
C1238 C1237 1.376 . S
C1238 C1239 1.388 . S
C1239 H1226 0.930 . S
C1239 C1238 1.388 . S
C1239 C1240 1.390 . S
C1240 C1239 1.390 . S
C1240 C1241 1.394 . S
C1240 C1246 1.465 . S
C1241 C1236 1.399 . S
C1241 C1240 1.394 . S
C1241 C1242 1.516 . S
C1242 C1241 1.516 . S
C1242 C1243 1.502 . S
C1242 C1244 1.561 . S
C1242 C1245 1.526 . S
C1243 H1227 0.959 . S
C1243 H1228 0.959 . S
C1243 H1229 0.961 . S
C1243 C1242 1.502 . S
C1244 H1230 0.960 . S
C1244 H1231 0.961 . S
C1244 H1232 0.959 . S
C1244 C1242 1.561 . S
C1245 C1242 1.526 . S
C1245 C1246 1.396 . S
C1245 C1250 1.390 . S
C1246 C1240 1.465 . S
C1246 C1245 1.396 . S
C1246 C1247 1.399 . S
C1247 H1233 0.929 . S
C1247 C1246 1.399 . S
C1247 C1248 1.385 . S
C1248 H1234 0.931 . S
C1248 C1247 1.385 . S
C1248 C1249 1.389 . S
C1249 C1248 1.389 . S
C1249 C1250 1.387 . S
C1250 H1235 0.930 . S
C1250 C1245 1.390 . S
C1250 C1249 1.387 . S
H1251 C1263 0.930 . S
H1252 C1265 0.930 . S
H1253 C1266 0.930 . S
H1254 C1270 0.959 . S
H1255 C1270 0.959 . S
H1256 C1270 0.961 . S
H1257 C1271 0.960 . S
H1258 C1271 0.961 . S
H1259 C1271 0.959 . S
H1260 C1274 0.929 . S
H1261 C1275 0.931 . S
H1262 C1277 0.930 . S
C1263 H1251 0.930 . S
C1263 C1264 1.399 . S
C1263 C1268 1.399 . S
C1264 C1263 1.399 . S
C1264 C1265 1.376 . S
C1265 H1252 0.930 . S
C1265 C1264 1.376 . S
C1265 C1266 1.388 . S
C1266 H1253 0.930 . S
C1266 C1265 1.388 . S
C1266 C1267 1.390 . S
C1267 C1266 1.390 . S
C1267 C1268 1.394 . S
C1267 C1273 1.465 . S
C1268 C1263 1.399 . S
C1268 C1267 1.394 . S
C1268 C1269 1.516 . S
C1269 C1268 1.516 . S
C1269 C1270 1.502 . S
C1269 C1271 1.561 . S
C1269 C1272 1.526 . S
C1270 H1254 0.959 . S
C1270 H1255 0.959 . S
C1270 H1256 0.961 . S
C1270 C1269 1.502 . S
C1271 H1257 0.960 . S
C1271 H1258 0.961 . S
C1271 H1259 0.959 . S
C1271 C1269 1.561 . S
C1272 C1269 1.526 . S
C1272 C1273 1.396 . S
C1272 C1277 1.390 . S
C1273 C1267 1.465 . S
C1273 C1272 1.396 . S
C1273 C1274 1.399 . S
C1274 H1260 0.929 . S
C1274 C1273 1.399 . S
C1274 C1275 1.385 . S
C1275 H1261 0.931 . S
C1275 C1274 1.385 . S
C1275 C1276 1.389 . S
C1276 C1275 1.389 . S
C1276 C1277 1.387 . S
C1277 H1262 0.930 . S
C1277 C1272 1.390 . S
C1277 C1276 1.387 . S
H1278 C1290 0.930 . S
H1279 C1292 0.930 . S
H1280 C1293 0.930 . S
H1281 C1297 0.959 . S
H1282 C1297 0.959 . S
H1283 C1297 0.961 . S
H1284 C1298 0.960 . S
H1285 C1298 0.961 . S
H1286 C1298 0.959 . S
H1287 C1301 0.929 . S
H1288 C1302 0.931 . S
H1289 C1304 0.930 . S
C1290 H1278 0.930 . S
C1290 C1291 1.399 . S
C1290 C1295 1.399 . S
C1291 C1290 1.399 . S
C1291 C1292 1.376 . S
C1292 H1279 0.930 . S
C1292 C1291 1.376 . S
C1292 C1293 1.388 . S
C1293 H1280 0.930 . S
C1293 C1292 1.388 . S
C1293 C1294 1.390 . S
C1294 C1293 1.390 . S
C1294 C1295 1.394 . S
C1294 C1300 1.465 . S
C1295 C1290 1.399 . S
C1295 C1294 1.394 . S
C1295 C1296 1.516 . S
C1296 C1295 1.516 . S
C1296 C1297 1.502 . S
C1296 C1298 1.561 . S
C1296 C1299 1.526 . S
C1297 H1281 0.959 . S
C1297 H1282 0.959 . S
C1297 H1283 0.961 . S
C1297 C1296 1.502 . S
C1298 H1284 0.960 . S
C1298 H1285 0.961 . S
C1298 H1286 0.959 . S
C1298 C1296 1.561 . S
C1299 C1296 1.526 . S
C1299 C1300 1.396 . S
C1299 C1304 1.390 . S
C1300 C1294 1.465 . S
C1300 C1299 1.396 . S
C1300 C1301 1.399 . S
C1301 H1287 0.929 . S
C1301 C1300 1.399 . S
C1301 C1302 1.385 . S
C1302 H1288 0.931 . S
C1302 C1301 1.385 . S
C1302 C1303 1.389 . S
C1303 C1302 1.389 . S
C1303 C1304 1.387 . S
C1304 H1289 0.930 . S
C1304 C1299 1.390 . S
C1304 C1303 1.387 . S
H1305 C1317 0.930 . S
H1306 C1319 0.930 . S
H1307 C1320 0.930 . S
H1308 C1324 0.959 . S
H1309 C1324 0.959 . S
H1310 C1324 0.961 . S
H1311 C1325 0.960 . S
H1312 C1325 0.961 . S
H1313 C1325 0.959 . S
H1314 C1328 0.929 . S
H1315 C1329 0.931 . S
H1316 C1331 0.930 . S
C1317 H1305 0.930 . S
C1317 C1318 1.399 . S
C1317 C1322 1.399 . S
C1318 C1317 1.399 . S
C1318 C1319 1.376 . S
C1319 H1306 0.930 . S
C1319 C1318 1.376 . S
C1319 C1320 1.388 . S
C1320 H1307 0.930 . S
C1320 C1319 1.388 . S
C1320 C1321 1.390 . S
C1321 C1320 1.390 . S
C1321 C1322 1.394 . S
C1321 C1327 1.465 . S
C1322 C1317 1.399 . S
C1322 C1321 1.394 . S
C1322 C1323 1.516 . S
C1323 C1322 1.516 . S
C1323 C1324 1.502 . S
C1323 C1325 1.561 . S
C1323 C1326 1.526 . S
C1324 H1308 0.959 . S
C1324 H1309 0.959 . S
C1324 H1310 0.961 . S
C1324 C1323 1.502 . S
C1325 H1311 0.960 . S
C1325 H1312 0.961 . S
C1325 H1313 0.959 . S
C1325 C1323 1.561 . S
C1326 C1323 1.526 . S
C1326 C1327 1.396 . S
C1326 C1331 1.390 . S
C1327 C1321 1.465 . S
C1327 C1326 1.396 . S
C1327 C1328 1.399 . S
C1328 H1314 0.929 . S
C1328 C1327 1.399 . S
C1328 C1329 1.385 . S
C1329 H1315 0.931 . S
C1329 C1328 1.385 . S
C1329 C1330 1.389 . S
C1330 C1329 1.389 . S
C1330 C1331 1.387 . S
C1331 H1316 0.930 . S
C1331 C1326 1.390 . S
C1331 C1330 1.387 . S
H1332 C1344 0.930 . S
H1333 C1346 0.930 . S
H1334 C1347 0.930 . S
H1335 C1351 0.959 . S
H1336 C1351 0.959 . S
H1337 C1351 0.961 . S
H1338 C1352 0.960 . S
H1339 C1352 0.961 . S
H1340 C1352 0.959 . S
H1341 C1355 0.929 . S
H1342 C1356 0.931 . S
H1343 C1358 0.930 . S
C1344 H1332 0.930 . S
C1344 C1345 1.399 . S
C1344 C1349 1.399 . S
C1345 C1344 1.399 . S
C1345 C1346 1.376 . S
C1346 H1333 0.930 . S
C1346 C1345 1.376 . S
C1346 C1347 1.388 . S
C1347 H1334 0.930 . S
C1347 C1346 1.388 . S
C1347 C1348 1.390 . S
C1348 C1347 1.390 . S
C1348 C1349 1.394 . S
C1348 C1354 1.465 . S
C1349 C1344 1.399 . S
C1349 C1348 1.394 . S
C1349 C1350 1.516 . S
C1350 C1349 1.516 . S
C1350 C1351 1.502 . S
C1350 C1352 1.561 . S
C1350 C1353 1.526 . S
C1351 H1335 0.959 . S
C1351 H1336 0.959 . S
C1351 H1337 0.961 . S
C1351 C1350 1.502 . S
C1352 H1338 0.960 . S
C1352 H1339 0.961 . S
C1352 H1340 0.959 . S
C1352 C1350 1.561 . S
C1353 C1350 1.526 . S
C1353 C1354 1.396 . S
C1353 C1358 1.390 . S
C1354 C1348 1.465 . S
C1354 C1353 1.396 . S
C1354 C1355 1.399 . S
C1355 H1341 0.929 . S
C1355 C1354 1.399 . S
C1355 C1356 1.385 . S
C1356 H1342 0.931 . S
C1356 C1355 1.385 . S
C1356 C1357 1.389 . S
C1357 C1356 1.389 . S
C1357 C1358 1.387 . S
C1358 H1343 0.930 . S
C1358 C1353 1.390 . S
C1358 C1357 1.387 . S
H1359 C1371 0.930 . S
H1360 C1373 0.930 . S
H1361 C1374 0.930 . S
H1362 C1378 0.959 . S
H1363 C1378 0.959 . S
H1364 C1378 0.961 . S
H1365 C1379 0.960 . S
H1366 C1379 0.961 . S
H1367 C1379 0.959 . S
H1368 C1382 0.929 . S
H1369 C1383 0.931 . S
H1370 C1385 0.930 . S
C1371 H1359 0.930 . S
C1371 C1372 1.399 . S
C1371 C1376 1.399 . S
C1372 C1371 1.399 . S
C1372 C1373 1.376 . S
C1373 H1360 0.930 . S
C1373 C1372 1.376 . S
C1373 C1374 1.388 . S
C1374 H1361 0.930 . S
C1374 C1373 1.388 . S
C1374 C1375 1.390 . S
C1375 C1374 1.390 . S
C1375 C1376 1.394 . S
C1375 C1381 1.465 . S
C1376 C1371 1.399 . S
C1376 C1375 1.394 . S
C1376 C1377 1.516 . S
C1377 C1376 1.516 . S
C1377 C1378 1.502 . S
C1377 C1379 1.561 . S
C1377 C1380 1.526 . S
C1378 H1362 0.959 . S
C1378 H1363 0.959 . S
C1378 H1364 0.961 . S
C1378 C1377 1.502 . S
C1379 H1365 0.960 . S
C1379 H1366 0.961 . S
C1379 H1367 0.959 . S
C1379 C1377 1.561 . S
C1380 C1377 1.526 . S
C1380 C1381 1.396 . S
C1380 C1385 1.390 . S
C1381 C1375 1.465 . S
C1381 C1380 1.396 . S
C1381 C1382 1.399 . S
C1382 H1368 0.929 . S
C1382 C1381 1.399 . S
C1382 C1383 1.385 . S
C1383 H1369 0.931 . S
C1383 C1382 1.385 . S
C1383 C1384 1.389 . S
C1384 C1383 1.389 . S
C1384 C1385 1.387 . S
C1385 H1370 0.930 . S
C1385 C1380 1.390 . S
C1385 C1384 1.387 . S
H1386 C1398 0.930 . S
H1387 C1400 0.930 . S
H1388 C1401 0.930 . S
H1389 C1405 0.959 . S
H1390 C1405 0.959 . S
H1391 C1405 0.961 . S
H1392 C1406 0.960 . S
H1393 C1406 0.961 . S
H1394 C1406 0.959 . S
H1395 C1409 0.929 . S
H1396 C1410 0.931 . S
H1397 C1412 0.930 . S
C1398 H1386 0.930 . S
C1398 C1399 1.399 . S
C1398 C1403 1.399 . S
C1399 C1398 1.399 . S
C1399 C1400 1.376 . S
C1400 H1387 0.930 . S
C1400 C1399 1.376 . S
C1400 C1401 1.388 . S
C1401 H1388 0.930 . S
C1401 C1400 1.388 . S
C1401 C1402 1.390 . S
C1402 C1401 1.390 . S
C1402 C1403 1.394 . S
C1402 C1408 1.465 . S
C1403 C1398 1.399 . S
C1403 C1402 1.394 . S
C1403 C1404 1.516 . S
C1404 C1403 1.516 . S
C1404 C1405 1.502 . S
C1404 C1406 1.561 . S
C1404 C1407 1.526 . S
C1405 H1389 0.959 . S
C1405 H1390 0.959 . S
C1405 H1391 0.961 . S
C1405 C1404 1.502 . S
C1406 H1392 0.960 . S
C1406 H1393 0.961 . S
C1406 H1394 0.959 . S
C1406 C1404 1.561 . S
C1407 C1404 1.526 . S
C1407 C1408 1.396 . S
C1407 C1412 1.390 . S
C1408 C1402 1.465 . S
C1408 C1407 1.396 . S
C1408 C1409 1.399 . S
C1409 H1395 0.929 . S
C1409 C1408 1.399 . S
C1409 C1410 1.385 . S
C1410 H1396 0.931 . S
C1410 C1409 1.385 . S
C1410 C1411 1.389 . S
C1411 C1410 1.389 . S
C1411 C1412 1.387 . S
C1412 H1397 0.930 . S
C1412 C1407 1.390 . S
C1412 C1411 1.387 . S
H1413 C1425 0.930 . S
H1414 C1427 0.930 . S
H1415 C1428 0.930 . S
H1416 C1432 0.959 . S
H1417 C1432 0.959 . S
H1418 C1432 0.961 . S
H1419 C1433 0.960 . S
H1420 C1433 0.961 . S
H1421 C1433 0.959 . S
H1422 C1436 0.929 . S
H1423 C1437 0.931 . S
H1424 C1439 0.930 . S
C1425 H1413 0.930 . S
C1425 C1426 1.399 . S
C1425 C1430 1.399 . S
C1426 C1425 1.399 . S
C1426 C1427 1.376 . S
C1427 H1414 0.930 . S
C1427 C1426 1.376 . S
C1427 C1428 1.388 . S
C1428 H1415 0.930 . S
C1428 C1427 1.388 . S
C1428 C1429 1.390 . S
C1429 C1428 1.390 . S
C1429 C1430 1.394 . S
C1429 C1435 1.465 . S
C1430 C1425 1.399 . S
C1430 C1429 1.394 . S
C1430 C1431 1.516 . S
C1431 C1430 1.516 . S
C1431 C1432 1.502 . S
C1431 C1433 1.561 . S
C1431 C1434 1.526 . S
C1432 H1416 0.959 . S
C1432 H1417 0.959 . S
C1432 H1418 0.961 . S
C1432 C1431 1.502 . S
C1433 H1419 0.960 . S
C1433 H1420 0.961 . S
C1433 H1421 0.959 . S
C1433 C1431 1.561 . S
C1434 C1431 1.526 . S
C1434 C1435 1.396 . S
C1434 C1439 1.390 . S
C1435 C1429 1.465 . S
C1435 C1434 1.396 . S
C1435 C1436 1.399 . S
C1436 H1422 0.929 . S
C1436 C1435 1.399 . S
C1436 C1437 1.385 . S
C1437 H1423 0.931 . S
C1437 C1436 1.385 . S
C1437 C1438 1.389 . S
C1438 C1437 1.389 . S
C1438 C1439 1.387 . S
C1439 H1424 0.930 . S
C1439 C1434 1.390 . S
C1439 C1438 1.387 . S
H1440 C1452 0.930 . S
H1441 C1454 0.930 . S
H1442 C1455 0.930 . S
H1443 C1459 0.959 . S
H1444 C1459 0.959 . S
H1445 C1459 0.961 . S
H1446 C1460 0.960 . S
H1447 C1460 0.961 . S
H1448 C1460 0.959 . S
H1449 C1463 0.929 . S
H1450 C1464 0.931 . S
H1451 C1466 0.930 . S
C1452 H1440 0.930 . S
C1452 C1453 1.399 . S
C1452 C1457 1.399 . S
C1453 C1452 1.399 . S
C1453 C1454 1.376 1_556 S
C1454 H1441 0.930 . S
C1454 C1453 1.376 1_554 S
C1454 C1455 1.388 . S
C1455 H1442 0.930 . S
C1455 C1454 1.388 . S
C1455 C1456 1.390 . S
C1456 C1455 1.390 . S
C1456 C1457 1.394 1_554 S
C1456 C1462 1.465 . S
C1457 C1452 1.399 . S
C1457 C1456 1.394 1_556 S
C1457 C1458 1.516 . S
C1458 C1457 1.516 . S
C1458 C1459 1.502 . S
C1458 C1460 1.561 . S
C1458 C1461 1.526 . S
C1459 H1443 0.959 . S
C1459 H1444 0.959 . S
C1459 H1445 0.961 . S
C1459 C1458 1.502 . S
C1460 H1446 0.960 . S
C1460 H1447 0.961 . S
C1460 H1448 0.959 . S
C1460 C1458 1.561 . S
C1461 C1458 1.526 . S
C1461 C1462 1.396 1_556 S
C1461 C1466 1.390 . S
C1462 C1456 1.465 . S
C1462 C1461 1.396 1_554 S
C1462 C1463 1.399 . S
C1463 H1449 0.929 . S
C1463 C1462 1.399 . S
C1463 C1464 1.385 . S
C1464 H1450 0.931 . S
C1464 C1463 1.385 . S
C1464 C1465 1.389 . S
C1465 C1464 1.389 . S
C1465 C1466 1.387 1_554 S
C1466 H1451 0.930 . S
C1466 C1461 1.390 . S
C1466 C1465 1.387 1_556 S
H1467 C1479 0.930 . S
H1468 C1481 0.930 . S
H1469 C1482 0.930 . S
H1470 C1486 0.959 . S
H1471 C1486 0.959 . S
H1472 C1486 0.961 . S
H1473 C1487 0.960 . S
H1474 C1487 0.961 . S
H1475 C1487 0.959 . S
H1476 C1490 0.929 . S
H1477 C1491 0.931 . S
H1478 C1493 0.930 . S
C1479 H1467 0.930 . S
C1479 C1480 1.399 . S
C1479 C1484 1.399 . S
C1480 C1479 1.399 . S
C1480 C1481 1.376 . S
C1481 H1468 0.930 . S
C1481 C1480 1.376 . S
C1481 C1482 1.388 . S
C1482 H1469 0.930 . S
C1482 C1481 1.388 . S
C1482 C1483 1.390 . S
C1483 C1482 1.390 . S
C1483 C1484 1.394 . S
C1483 C1489 1.465 . S
C1484 C1479 1.399 . S
C1484 C1483 1.394 . S
C1484 C1485 1.516 . S
C1485 C1484 1.516 . S
C1485 C1486 1.502 . S
C1485 C1487 1.561 . S
C1485 C1488 1.526 . S
C1486 H1470 0.959 . S
C1486 H1471 0.959 . S
C1486 H1472 0.961 . S
C1486 C1485 1.502 . S
C1487 H1473 0.960 . S
C1487 H1474 0.961 . S
C1487 H1475 0.959 . S
C1487 C1485 1.561 . S
C1488 C1485 1.526 . S
C1488 C1489 1.396 . S
C1488 C1493 1.390 . S
C1489 C1483 1.465 . S
C1489 C1488 1.396 . S
C1489 C1490 1.399 . S
C1490 H1476 0.929 . S
C1490 C1489 1.399 . S
C1490 C1491 1.385 . S
C1491 H1477 0.931 . S
C1491 C1490 1.385 . S
C1491 C1492 1.389 . S
C1492 C1491 1.389 . S
C1492 C1493 1.387 . S
C1493 H1478 0.930 . S
C1493 C1488 1.390 . S
C1493 C1492 1.387 . S
H1494 C1506 0.930 . S
H1495 C1508 0.930 . S
H1496 C1509 0.930 . S
H1497 C1513 0.959 . S
H1498 C1513 0.959 . S
H1499 C1513 0.961 . S
H1500 C1514 0.960 . S
H1501 C1514 0.961 . S
H1502 C1514 0.959 . S
H1503 C1517 0.929 . S
H1504 C1518 0.931 . S
H1505 C1520 0.930 . S
C1506 H1494 0.930 . S
C1506 C1507 1.399 . S
C1506 C1511 1.399 . S
C1507 C1506 1.399 . S
C1507 C1508 1.376 . S
C1508 H1495 0.930 . S
C1508 C1507 1.376 . S
C1508 C1509 1.388 . S
C1509 H1496 0.930 . S
C1509 C1508 1.388 . S
C1509 C1510 1.390 . S
C1510 C1509 1.390 . S
C1510 C1511 1.394 . S
C1510 C1516 1.465 . S
C1511 C1506 1.399 . S
C1511 C1510 1.394 . S
C1511 C1512 1.516 . S
C1512 C1511 1.516 . S
C1512 C1513 1.502 . S
C1512 C1514 1.561 . S
C1512 C1515 1.526 . S
C1513 H1497 0.959 . S
C1513 H1498 0.959 . S
C1513 H1499 0.961 . S
C1513 C1512 1.502 . S
C1514 H1500 0.960 . S
C1514 H1501 0.961 . S
C1514 H1502 0.959 . S
C1514 C1512 1.561 . S
C1515 C1512 1.526 . S
C1515 C1516 1.396 . S
C1515 C1520 1.390 . S
C1516 C1510 1.465 . S
C1516 C1515 1.396 . S
C1516 C1517 1.399 . S
C1517 H1503 0.929 . S
C1517 C1516 1.399 . S
C1517 C1518 1.385 . S
C1518 H1504 0.931 . S
C1518 C1517 1.385 . S
C1518 C1519 1.389 . S
C1519 C1518 1.389 . S
C1519 C1520 1.387 . S
C1520 H1505 0.930 . S
C1520 C1515 1.390 . S
C1520 C1519 1.387 . S
H1521 C1533 0.930 . S
H1522 C1535 0.930 . S
H1523 C1536 0.930 . S
H1524 C1540 0.959 . S
H1525 C1540 0.959 . S
H1526 C1540 0.961 . S
H1527 C1541 0.960 . S
H1528 C1541 0.961 . S
H1529 C1541 0.959 . S
H1530 C1544 0.929 . S
H1531 C1545 0.931 . S
H1532 C1547 0.930 . S
C1533 H1521 0.930 . S
C1533 C1534 1.399 . S
C1533 C1538 1.399 . S
C1534 C1533 1.399 . S
C1534 C1535 1.376 . S
C1535 H1522 0.930 . S
C1535 C1534 1.376 . S
C1535 C1536 1.388 . S
C1536 H1523 0.930 . S
C1536 C1535 1.388 . S
C1536 C1537 1.390 . S
C1537 C1536 1.390 . S
C1537 C1538 1.394 . S
C1537 C1543 1.465 . S
C1538 C1533 1.399 . S
C1538 C1537 1.394 . S
C1538 C1539 1.516 . S
C1539 C1538 1.516 . S
C1539 C1540 1.502 . S
C1539 C1541 1.561 . S
C1539 C1542 1.526 . S
C1540 H1524 0.959 . S
C1540 H1525 0.959 . S
C1540 H1526 0.961 . S
C1540 C1539 1.502 . S
C1541 H1527 0.960 . S
C1541 H1528 0.961 . S
C1541 H1529 0.959 . S
C1541 C1539 1.561 . S
C1542 C1539 1.526 . S
C1542 C1543 1.396 . S
C1542 C1547 1.390 . S
C1543 C1537 1.465 . S
C1543 C1542 1.396 . S
C1543 C1544 1.399 . S
C1544 H1530 0.929 . S
C1544 C1543 1.399 . S
C1544 C1545 1.385 . S
C1545 H1531 0.931 . S
C1545 C1544 1.385 . S
C1545 C1546 1.389 . S
C1546 C1545 1.389 . S
C1546 C1547 1.387 . S
C1547 H1532 0.930 . S
C1547 C1542 1.390 . S
C1547 C1546 1.387 . S
H1548 C1560 0.930 . S
H1549 C1562 0.930 . S
H1550 C1563 0.930 . S
H1551 C1567 0.959 . S
H1552 C1567 0.959 . S
H1553 C1567 0.961 . S
H1554 C1568 0.960 . S
H1555 C1568 0.961 . S
H1556 C1568 0.959 . S
H1557 C1571 0.929 . S
H1558 C1572 0.931 . S
H1559 C1574 0.930 . S
C1560 H1548 0.930 . S
C1560 C1561 1.399 . S
C1560 C1565 1.399 . S
C1561 C1560 1.399 . S
C1561 C1562 1.376 . S
C1562 H1549 0.930 . S
C1562 C1561 1.376 . S
C1562 C1563 1.388 . S
C1563 H1550 0.930 . S
C1563 C1562 1.388 . S
C1563 C1564 1.390 . S
C1564 C1563 1.390 . S
C1564 C1565 1.394 . S
C1564 C1570 1.465 . S
C1565 C1560 1.399 . S
C1565 C1564 1.394 . S
C1565 C1566 1.516 . S
C1566 C1565 1.516 . S
C1566 C1567 1.502 . S
C1566 C1568 1.561 . S
C1566 C1569 1.526 . S
C1567 H1551 0.959 . S
C1567 H1552 0.959 . S
C1567 H1553 0.961 . S
C1567 C1566 1.502 . S
C1568 H1554 0.960 . S
C1568 H1555 0.961 . S
C1568 H1556 0.959 . S
C1568 C1566 1.561 . S
C1569 C1566 1.526 . S
C1569 C1570 1.396 . S
C1569 C1574 1.390 . S
C1570 C1564 1.465 . S
C1570 C1569 1.396 . S
C1570 C1571 1.399 . S
C1571 H1557 0.929 . S
C1571 C1570 1.399 . S
C1571 C1572 1.385 . S
C1572 H1558 0.931 . S
C1572 C1571 1.385 . S
C1572 C1573 1.389 . S
C1573 C1572 1.389 . S
C1573 C1574 1.387 . S
C1574 H1559 0.930 . S
C1574 C1569 1.390 . S
C1574 C1573 1.387 . S
H1575 C1587 0.930 . S
H1576 C1589 0.930 . S
H1577 C1590 0.930 . S
H1578 C1594 0.959 . S
H1579 C1594 0.959 . S
H1580 C1594 0.961 . S
H1581 C1595 0.960 . S
H1582 C1595 0.961 . S
H1583 C1595 0.959 . S
H1584 C1598 0.929 . S
H1585 C1599 0.931 . S
H1586 C1601 0.930 . S
C1587 H1575 0.930 . S
C1587 C1588 1.399 1_556 S
C1587 C1592 1.399 . S
C1588 C1587 1.399 1_554 S
C1588 C1589 1.376 . S
C1589 H1576 0.930 . S
C1589 C1588 1.376 . S
C1589 C1590 1.388 . S
C1590 H1577 0.930 . S
C1590 C1589 1.388 . S
C1590 C1591 1.390 . S
C1591 C1590 1.390 . S
C1591 C1592 1.394 1_554 S
C1591 C1597 1.465 . S
C1592 C1587 1.399 . S
C1592 C1591 1.394 1_556 S
C1592 C1593 1.516 . S
C1593 C1592 1.516 . S
C1593 C1594 1.502 . S
C1593 C1595 1.561 . S
C1593 C1596 1.526 . S
C1594 H1578 0.959 . S
C1594 H1579 0.959 . S
C1594 H1580 0.961 . S
C1594 C1593 1.502 . S
C1595 H1581 0.960 . S
C1595 H1582 0.961 . S
C1595 H1583 0.959 . S
C1595 C1593 1.561 . S
C1596 C1593 1.526 . S
C1596 C1597 1.396 1_556 S
C1596 C1601 1.390 . S
C1597 C1591 1.465 . S
C1597 C1596 1.396 1_554 S
C1597 C1598 1.399 . S
C1598 H1584 0.929 . S
C1598 C1597 1.399 . S
C1598 C1599 1.385 . S
C1599 H1585 0.931 . S
C1599 C1598 1.385 . S
C1599 C1600 1.412 . S
C1600 C1599 1.412 . S
C1600 C1601 1.371 1_554 S
C1601 H1586 0.930 . S
C1601 C1596 1.390 . S
C1601 C1600 1.371 1_556 S
H1602 C1614 0.930 . S
H1603 C1616 0.930 . S
H1604 C1617 0.930 . S
H1605 C1621 0.959 . S
H1606 C1621 0.959 . S
H1607 C1621 0.961 . S
H1608 C1622 0.960 . S
H1609 C1622 0.961 . S
H1610 C1622 0.959 . S
H1611 C1625 0.929 . S
H1612 C1626 0.931 . S
H1613 C1628 0.930 . S
C1614 H1602 0.930 . S
C1614 C1615 1.399 . S
C1614 C1619 1.399 . S
C1615 C1614 1.399 . S
C1615 C1616 1.376 . S
C1616 H1603 0.930 . S
C1616 C1615 1.376 . S
C1616 C1617 1.388 . S
C1617 H1604 0.930 . S
C1617 C1616 1.388 . S
C1617 C1618 1.390 . S
C1618 C1617 1.390 . S
C1618 C1619 1.394 . S
C1618 C1624 1.465 . S
C1619 C1614 1.399 . S
C1619 C1618 1.394 . S
C1619 C1620 1.516 . S
C1620 C1619 1.516 . S
C1620 C1621 1.502 . S
C1620 C1622 1.561 . S
C1620 C1623 1.526 . S
C1621 H1605 0.959 . S
C1621 H1606 0.959 . S
C1621 H1607 0.961 . S
C1621 C1620 1.502 . S
C1622 H1608 0.960 . S
C1622 H1609 0.961 . S
C1622 H1610 0.959 . S
C1622 C1620 1.561 . S
C1623 C1620 1.526 . S
C1623 C1624 1.396 . S
C1623 C1628 1.390 . S
C1624 C1618 1.465 . S
C1624 C1623 1.396 . S
C1624 C1625 1.399 . S
C1625 H1611 0.929 . S
C1625 C1624 1.399 . S
C1625 C1626 1.385 . S
C1626 H1612 0.931 . S
C1626 C1625 1.385 . S
C1626 C1627 1.389 . S
C1627 C1626 1.389 . S
C1627 C1628 1.387 . S
C1628 H1613 0.930 . S
C1628 C1623 1.390 . S
C1628 C1627 1.387 . S
H1629 C1641 0.930 . S
H1630 C1643 0.930 . S
H1631 C1644 0.930 . S
H1632 C1648 0.959 . S
H1633 C1648 0.959 . S
H1634 C1648 0.961 . S
H1635 C1649 0.960 . S
H1636 C1649 0.961 . S
H1637 C1649 0.959 . S
H1638 C1652 0.929 . S
H1639 C1653 0.931 . S
H1640 C1655 0.930 . S
C1641 H1629 0.930 . S
C1641 C1642 1.399 . S
C1641 C1646 1.399 . S
C1642 C1641 1.399 . S
C1642 C1643 1.376 . S
C1643 H1630 0.930 . S
C1643 C1642 1.376 . S
C1643 C1644 1.388 . S
C1644 H1631 0.930 . S
C1644 C1643 1.388 . S
C1644 C1645 1.390 . S
C1645 C1644 1.390 . S
C1645 C1646 1.394 . S
C1645 C1651 1.465 . S
C1646 C1641 1.399 . S
C1646 C1645 1.394 . S
C1646 C1647 1.516 . S
C1647 C1646 1.516 . S
C1647 C1648 1.502 . S
C1647 C1649 1.561 . S
C1647 C1650 1.526 . S
C1648 H1632 0.959 . S
C1648 H1633 0.959 . S
C1648 H1634 0.961 . S
C1648 C1647 1.502 . S
C1649 H1635 0.960 . S
C1649 H1636 0.961 . S
C1649 H1637 0.959 . S
C1649 C1647 1.561 . S
C1650 C1647 1.526 . S
C1650 C1651 1.396 . S
C1650 C1655 1.390 . S
C1651 C1645 1.465 . S
C1651 C1650 1.396 . S
C1651 C1652 1.399 . S
C1652 H1638 0.929 . S
C1652 C1651 1.399 . S
C1652 C1653 1.385 . S
C1653 H1639 0.931 . S
C1653 C1652 1.385 . S
C1653 C1654 1.389 . S
C1654 C1653 1.389 . S
C1654 C1655 1.387 . S
C1655 H1640 0.930 . S
C1655 C1650 1.390 . S
C1655 C1654 1.387 . S
H1656 C1668 0.930 . S
H1657 C1670 0.930 . S
H1658 C1671 0.930 . S
H1659 C1675 0.959 . S
H1660 C1675 0.959 . S
H1661 C1675 0.961 . S
H1662 C1676 0.960 . S
H1663 C1676 0.961 . S
H1664 C1676 0.959 . S
H1665 C1679 0.929 . S
H1666 C1680 0.931 . S
H1667 C1682 0.930 . S
C1668 H1656 0.930 . S
C1668 C1669 1.399 . S
C1668 C1673 1.399 . S
C1669 C1668 1.399 . S
C1669 C1670 1.376 . S
C1670 H1657 0.930 . S
C1670 C1669 1.376 . S
C1670 C1671 1.388 . S
C1671 H1658 0.930 . S
C1671 C1670 1.388 . S
C1671 C1672 1.390 . S
C1672 C1671 1.390 . S
C1672 C1673 1.394 . S
C1672 C1678 1.465 . S
C1673 C1668 1.399 . S
C1673 C1672 1.394 . S
C1673 C1674 1.516 . S
C1674 C1673 1.516 . S
C1674 C1675 1.502 . S
C1674 C1676 1.561 . S
C1674 C1677 1.526 . S
C1675 H1659 0.959 . S
C1675 H1660 0.959 . S
C1675 H1661 0.961 . S
C1675 C1674 1.502 . S
C1676 H1662 0.960 . S
C1676 H1663 0.961 . S
C1676 H1664 0.959 . S
C1676 C1674 1.561 . S
C1677 C1674 1.526 . S
C1677 C1678 1.396 . S
C1677 C1682 1.390 . S
C1678 C1672 1.465 . S
C1678 C1677 1.396 . S
C1678 C1679 1.399 . S
C1679 H1665 0.929 . S
C1679 C1678 1.399 . S
C1679 C1680 1.385 . S
C1680 H1666 0.931 . S
C1680 C1679 1.385 . S
C1680 C1681 1.389 . S
C1681 C1680 1.389 . S
C1681 C1682 1.387 . S
C1682 H1667 0.930 . S
C1682 C1677 1.390 . S
C1682 C1681 1.387 . S
H1683 C1695 0.930 . S
H1684 C1697 0.930 . S
H1685 C1698 0.930 . S
H1686 C1702 0.959 . S
H1687 C1702 0.959 . S
H1688 C1702 0.961 . S
H1689 C1703 0.960 . S
H1690 C1703 0.961 . S
H1691 C1703 0.959 . S
H1692 C1706 0.929 . S
H1693 C1707 0.931 . S
H1694 C1709 0.930 . S
C1695 H1683 0.930 . S
C1695 C1696 1.399 . S
C1695 C1700 1.399 . S
C1696 C1695 1.399 . S
C1696 C1697 1.376 . S
C1697 H1684 0.930 . S
C1697 C1696 1.376 . S
C1697 C1698 1.388 . S
C1698 H1685 0.930 . S
C1698 C1697 1.388 . S
C1698 C1699 1.390 . S
C1699 C1698 1.390 . S
C1699 C1700 1.394 . S
C1699 C1705 1.465 . S
C1700 C1695 1.399 . S
C1700 C1699 1.394 . S
C1700 C1701 1.516 . S
C1701 C1700 1.516 . S
C1701 C1702 1.502 . S
C1701 C1703 1.561 . S
C1701 C1704 1.526 . S
C1702 H1686 0.959 . S
C1702 H1687 0.959 . S
C1702 H1688 0.961 . S
C1702 C1701 1.502 . S
C1703 H1689 0.960 . S
C1703 H1690 0.961 . S
C1703 H1691 0.959 . S
C1703 C1701 1.561 . S
C1704 C1701 1.526 . S
C1704 C1705 1.396 . S
C1704 C1709 1.390 . S
C1705 C1699 1.465 . S
C1705 C1704 1.396 . S
C1705 C1706 1.399 . S
C1706 H1692 0.929 . S
C1706 C1705 1.399 . S
C1706 C1707 1.385 . S
C1707 H1693 0.931 . S
C1707 C1706 1.385 . S
C1707 C1708 1.389 . S
C1708 C1707 1.389 . S
C1708 C1709 1.387 . S
C1709 H1694 0.930 . S
C1709 C1704 1.390 . S
C1709 C1708 1.387 . S
H1710 C1722 0.930 . S
H1711 C1724 0.930 . S
H1712 C1725 0.930 . S
H1713 C1729 0.959 . S
H1714 C1729 0.959 . S
H1715 C1729 0.961 . S
H1716 C1730 0.960 . S
H1717 C1730 0.961 . S
H1718 C1730 0.959 . S
H1719 C1733 0.929 . S
H1720 C1734 0.931 . S
H1721 C1736 0.930 . S
C1722 H1710 0.930 . S
C1722 C1723 1.399 . S
C1722 C1727 1.399 . S
C1723 C1722 1.399 . S
C1723 C1724 1.376 . S
C1724 H1711 0.930 . S
C1724 C1723 1.376 . S
C1724 C1725 1.388 . S
C1725 H1712 0.930 . S
C1725 C1724 1.388 . S
C1725 C1726 1.390 . S
C1726 C1725 1.390 . S
C1726 C1727 1.394 . S
C1726 C1732 1.465 . S
C1727 C1722 1.399 . S
C1727 C1726 1.394 . S
C1727 C1728 1.516 . S
C1728 C1727 1.516 . S
C1728 C1729 1.502 . S
C1728 C1730 1.561 . S
C1728 C1731 1.526 . S
C1729 H1713 0.959 . S
C1729 H1714 0.959 . S
C1729 H1715 0.961 . S
C1729 C1728 1.502 . S
C1730 H1716 0.960 . S
C1730 H1717 0.961 . S
C1730 H1718 0.959 . S
C1730 C1728 1.561 . S
C1731 C1728 1.526 . S
C1731 C1732 1.396 . S
C1731 C1736 1.390 . S
C1732 C1726 1.465 . S
C1732 C1731 1.396 . S
C1732 C1733 1.399 . S
C1733 H1719 0.929 . S
C1733 C1732 1.399 . S
C1733 C1734 1.385 . S
C1734 H1720 0.931 . S
C1734 C1733 1.385 . S
C1734 C1735 1.389 . S
C1735 C1734 1.389 . S
C1735 C1736 1.387 . S
C1736 H1721 0.930 . S
C1736 C1731 1.390 . S
C1736 C1735 1.387 . S
H1737 C1749 0.930 . S
H1738 C1751 0.930 . S
H1739 C1752 0.930 . S
H1740 C1756 0.959 . S
H1741 C1756 0.959 . S
H1742 C1756 0.961 . S
H1743 C1757 0.960 . S
H1744 C1757 0.961 . S
H1745 C1757 0.959 . S
H1746 C1760 0.929 . S
H1747 C1761 0.931 . S
H1748 C1763 0.930 . S
C1749 H1737 0.930 . S
C1749 C1750 1.399 . S
C1749 C1754 1.399 . S
C1750 C1749 1.399 . S
C1750 C1751 1.376 . S
C1751 H1738 0.930 . S
C1751 C1750 1.376 . S
C1751 C1752 1.388 . S
C1752 H1739 0.930 . S
C1752 C1751 1.388 . S
C1752 C1753 1.390 . S
C1753 C1752 1.390 . S
C1753 C1754 1.394 . S
C1753 C1759 1.465 . S
C1754 C1749 1.399 . S
C1754 C1753 1.394 . S
C1754 C1755 1.516 . S
C1755 C1754 1.516 . S
C1755 C1756 1.502 . S
C1755 C1757 1.561 . S
C1755 C1758 1.526 . S
C1756 H1740 0.959 . S
C1756 H1741 0.959 . S
C1756 H1742 0.961 . S
C1756 C1755 1.502 . S
C1757 H1743 0.960 . S
C1757 H1744 0.961 . S
C1757 H1745 0.959 . S
C1757 C1755 1.561 . S
C1758 C1755 1.526 . S
C1758 C1759 1.396 . S
C1758 C1763 1.390 . S
C1759 C1753 1.465 . S
C1759 C1758 1.396 . S
C1759 C1760 1.399 . S
C1760 H1746 0.929 . S
C1760 C1759 1.399 . S
C1760 C1761 1.385 . S
C1761 H1747 0.931 . S
C1761 C1760 1.385 . S
C1761 C1762 1.389 . S
C1762 C1761 1.389 . S
C1762 C1763 1.387 . S
C1763 H1748 0.930 . S
C1763 C1758 1.390 . S
C1763 C1762 1.387 . S
H1764 C1776 0.930 . S
H1765 C1778 0.930 . S
H1766 C1779 0.930 . S
H1767 C1783 0.959 . S
H1768 C1783 0.959 . S
H1769 C1783 0.961 . S
H1770 C1784 0.960 . S
H1771 C1784 0.961 . S
H1772 C1784 0.959 . S
H1773 C1787 0.929 . S
H1774 C1788 0.931 . S
H1775 C1790 0.930 . S
C1776 H1764 0.930 . S
C1776 C1777 1.399 . S
C1776 C1781 1.399 . S
C1777 C1776 1.399 . S
C1777 C1778 1.376 . S
C1778 H1765 0.930 . S
C1778 C1777 1.376 . S
C1778 C1779 1.388 . S
C1779 H1766 0.930 . S
C1779 C1778 1.388 . S
C1779 C1780 1.390 . S
C1780 C1779 1.390 . S
C1780 C1781 1.394 . S
C1780 C1786 1.465 . S
C1781 C1776 1.399 . S
C1781 C1780 1.394 . S
C1781 C1782 1.516 . S
C1782 C1781 1.516 . S
C1782 C1783 1.502 . S
C1782 C1784 1.561 . S
C1782 C1785 1.526 . S
C1783 H1767 0.959 . S
C1783 H1768 0.959 . S
C1783 H1769 0.961 . S
C1783 C1782 1.502 . S
C1784 H1770 0.960 . S
C1784 H1771 0.961 . S
C1784 H1772 0.959 . S
C1784 C1782 1.561 . S
C1785 C1782 1.526 . S
C1785 C1786 1.396 . S
C1785 C1790 1.390 . S
C1786 C1780 1.465 . S
C1786 C1785 1.396 . S
C1786 C1787 1.399 . S
C1787 H1773 0.929 . S
C1787 C1786 1.399 . S
C1787 C1788 1.385 . S
C1788 H1774 0.931 . S
C1788 C1787 1.385 . S
C1788 C1789 1.389 . S
C1789 C1788 1.389 . S
C1789 C1790 1.387 . S
C1790 H1775 0.930 . S
C1790 C1785 1.390 . S
C1790 C1789 1.387 . S
H1791 C1803 0.930 . S
H1792 C1805 0.930 . S
H1793 C1806 0.930 . S
H1794 C1810 0.959 . S
H1795 C1810 0.959 . S
H1796 C1810 0.961 . S
H1797 C1811 0.960 . S
H1798 C1811 0.961 . S
H1799 C1811 0.959 . S
H1800 C1814 0.929 . S
H1801 C1815 0.931 . S
H1802 C1817 0.930 . S
C1803 H1791 0.930 . S
C1803 C1804 1.399 . S
C1803 C1808 1.399 . S
C1804 C1803 1.399 . S
C1804 C1805 1.376 . S
C1805 H1792 0.930 . S
C1805 C1804 1.376 . S
C1805 C1806 1.388 . S
C1806 H1793 0.930 . S
C1806 C1805 1.388 . S
C1806 C1807 1.390 . S
C1807 C1806 1.390 . S
C1807 C1808 1.394 . S
C1807 C1813 1.465 . S
C1808 C1803 1.399 . S
C1808 C1807 1.394 . S
C1808 C1809 1.516 . S
C1809 C1808 1.516 . S
C1809 C1810 1.502 . S
C1809 C1811 1.561 . S
C1809 C1812 1.526 . S
C1810 H1794 0.959 . S
C1810 H1795 0.959 . S
C1810 H1796 0.961 . S
C1810 C1809 1.502 . S
C1811 H1797 0.960 . S
C1811 H1798 0.961 . S
C1811 H1799 0.959 . S
C1811 C1809 1.561 . S
C1812 C1809 1.526 . S
C1812 C1813 1.396 . S
C1812 C1817 1.390 . S
C1813 C1807 1.465 . S
C1813 C1812 1.396 . S
C1813 C1814 1.399 . S
C1814 H1800 0.929 . S
C1814 C1813 1.399 . S
C1814 C1815 1.385 . S
C1815 H1801 0.931 . S
C1815 C1814 1.385 . S
C1815 C1816 1.389 . S
C1816 C1815 1.389 . S
C1816 C1817 1.387 . S
C1817 H1802 0.930 . S
C1817 C1812 1.390 . S
C1817 C1816 1.387 . S
H1818 C1830 0.930 . S
H1819 C1832 0.930 . S
H1820 C1833 0.930 . S
H1821 C1837 0.959 . S
H1822 C1837 0.959 . S
H1823 C1837 0.961 . S
H1824 C1838 0.960 . S
H1825 C1838 0.961 . S
H1826 C1838 0.959 . S
H1827 C1841 0.929 . S
H1828 C1842 0.931 . S
H1829 C1844 0.930 . S
C1830 H1818 0.930 . S
C1830 C1831 1.399 . S
C1830 C1835 1.399 . S
C1831 C1830 1.399 . S
C1831 C1832 1.376 . S
C1832 H1819 0.930 . S
C1832 C1831 1.376 . S
C1832 C1833 1.388 . S
C1833 H1820 0.930 . S
C1833 C1832 1.388 . S
C1833 C1834 1.390 . S
C1834 C1833 1.390 . S
C1834 C1835 1.394 . S
C1834 C1840 1.465 . S
C1835 C1830 1.399 . S
C1835 C1834 1.394 . S
C1835 C1836 1.516 . S
C1836 C1835 1.516 . S
C1836 C1837 1.502 . S
C1836 C1838 1.561 . S
C1836 C1839 1.526 . S
C1837 H1821 0.959 . S
C1837 H1822 0.959 . S
C1837 H1823 0.961 . S
C1837 C1836 1.502 . S
C1838 H1824 0.960 . S
C1838 H1825 0.961 . S
C1838 H1826 0.959 . S
C1838 C1836 1.561 . S
C1839 C1836 1.526 . S
C1839 C1840 1.396 . S
C1839 C1844 1.390 . S
C1840 C1834 1.465 . S
C1840 C1839 1.396 . S
C1840 C1841 1.399 . S
C1841 H1827 0.929 . S
C1841 C1840 1.399 . S
C1841 C1842 1.385 . S
C1842 H1828 0.931 . S
C1842 C1841 1.385 . S
C1842 C1843 1.389 . S
C1843 C1842 1.389 . S
C1843 C1844 1.387 . S
C1844 H1829 0.930 . S
C1844 C1839 1.390 . S
C1844 C1843 1.387 . S
H1845 C1857 0.930 . S
H1846 C1859 0.930 . S
H1847 C1860 0.930 . S
H1848 C1864 0.959 . S
H1849 C1864 0.959 . S
H1850 C1864 0.961 . S
H1851 C1865 0.960 . S
H1852 C1865 0.961 . S
H1853 C1865 0.959 . S
H1854 C1868 0.929 . S
H1855 C1869 0.931 . S
H1856 C1871 0.930 . S
C1857 H1845 0.930 . S
C1857 C1858 1.399 . S
C1857 C1862 1.399 . S
C1858 C1857 1.399 . S
C1858 C1859 1.376 . S
C1859 H1846 0.930 . S
C1859 C1858 1.376 . S
C1859 C1860 1.388 . S
C1860 H1847 0.930 . S
C1860 C1859 1.388 . S
C1860 C1861 1.390 . S
C1861 C1860 1.390 . S
C1861 C1862 1.394 . S
C1861 C1867 1.465 . S
C1862 C1857 1.399 . S
C1862 C1861 1.394 . S
C1862 C1863 1.516 . S
C1863 C1862 1.516 . S
C1863 C1864 1.502 . S
C1863 C1865 1.561 . S
C1863 C1866 1.526 . S
C1864 H1848 0.959 . S
C1864 H1849 0.959 . S
C1864 H1850 0.961 . S
C1864 C1863 1.502 . S
C1865 H1851 0.960 . S
C1865 H1852 0.961 . S
C1865 H1853 0.959 . S
C1865 C1863 1.561 . S
C1866 C1863 1.526 . S
C1866 C1867 1.396 . S
C1866 C1871 1.390 . S
C1867 C1861 1.465 . S
C1867 C1866 1.396 . S
C1867 C1868 1.399 . S
C1868 H1854 0.929 . S
C1868 C1867 1.399 . S
C1868 C1869 1.385 . S
C1869 H1855 0.931 . S
C1869 C1868 1.385 . S
C1869 C1870 1.389 . S
C1870 C1869 1.389 . S
C1870 C1871 1.387 . S
C1871 H1856 0.930 . S
C1871 C1866 1.390 . S
C1871 C1870 1.387 . S
H1872 C1884 0.930 . S
H1873 C1886 0.930 . S
H1874 C1887 0.930 . S
H1875 C1891 0.959 . S
H1876 C1891 0.959 . S
H1877 C1891 0.961 . S
H1878 C1892 0.960 . S
H1879 C1892 0.961 . S
H1880 C1892 0.959 . S
H1881 C1895 0.929 . S
H1882 C1896 0.931 . S
H1883 C1898 0.930 . S
C1884 H1872 0.930 . S
C1884 C1885 1.399 . S
C1884 C1889 1.399 . S
C1885 C1884 1.399 . S
C1885 C1886 1.376 . S
C1886 H1873 0.930 . S
C1886 C1885 1.376 . S
C1886 C1887 1.388 . S
C1887 H1874 0.930 . S
C1887 C1886 1.388 . S
C1887 C1888 1.390 . S
C1888 C1887 1.390 . S
C1888 C1889 1.394 . S
C1888 C1894 1.465 . S
C1889 C1884 1.399 . S
C1889 C1888 1.394 . S
C1889 C1890 1.516 . S
C1890 C1889 1.516 . S
C1890 C1891 1.502 . S
C1890 C1892 1.561 . S
C1890 C1893 1.526 . S
C1891 H1875 0.959 . S
C1891 H1876 0.959 . S
C1891 H1877 0.961 . S
C1891 C1890 1.502 . S
C1892 H1878 0.960 . S
C1892 H1879 0.961 . S
C1892 H1880 0.959 . S
C1892 C1890 1.561 . S
C1893 C1890 1.526 . S
C1893 C1894 1.396 . S
C1893 C1898 1.390 . S
C1894 C1888 1.465 . S
C1894 C1893 1.396 . S
C1894 C1895 1.399 . S
C1895 H1881 0.929 . S
C1895 C1894 1.399 . S
C1895 C1896 1.385 . S
C1896 H1882 0.931 . S
C1896 C1895 1.385 . S
C1896 C1897 1.389 . S
C1897 C1896 1.389 . S
C1897 C1898 1.387 . S
C1898 H1883 0.930 . S
C1898 C1893 1.390 . S
C1898 C1897 1.387 . S
H1899 C1911 0.930 . S
H1900 C1913 0.930 . S
H1901 C1914 0.930 . S
H1902 C1918 0.959 . S
H1903 C1918 0.959 . S
H1904 C1918 0.961 . S
H1905 C1919 0.960 . S
H1906 C1919 0.961 . S
H1907 C1919 0.959 . S
H1908 C1922 0.929 . S
H1909 C1923 0.931 . S
H1910 C1925 0.930 . S
C1911 H1899 0.930 . S
C1911 C1912 1.399 . S
C1911 C1916 1.399 . S
C1912 C1911 1.399 . S
C1912 C1913 1.376 . S
C1913 H1900 0.930 . S
C1913 C1912 1.376 . S
C1913 C1914 1.388 . S
C1914 H1901 0.930 . S
C1914 C1913 1.388 . S
C1914 C1915 1.390 . S
C1915 C1914 1.390 . S
C1915 C1916 1.394 . S
C1915 C1921 1.465 . S
C1916 C1911 1.399 . S
C1916 C1915 1.394 . S
C1916 C1917 1.516 . S
C1917 C1916 1.516 . S
C1917 C1918 1.502 . S
C1917 C1919 1.561 . S
C1917 C1920 1.526 . S
C1918 H1902 0.959 . S
C1918 H1903 0.959 . S
C1918 H1904 0.961 . S
C1918 C1917 1.502 . S
C1919 H1905 0.960 . S
C1919 H1906 0.961 . S
C1919 H1907 0.959 . S
C1919 C1917 1.561 . S
C1920 C1917 1.526 . S
C1920 C1921 1.396 . S
C1920 C1925 1.390 . S
C1921 C1915 1.465 . S
C1921 C1920 1.396 . S
C1921 C1922 1.399 . S
C1922 H1908 0.929 . S
C1922 C1921 1.399 . S
C1922 C1923 1.385 . S
C1923 H1909 0.931 . S
C1923 C1922 1.385 . S
C1923 C1924 1.389 . S
C1924 C1923 1.389 . S
C1924 C1925 1.387 . S
C1925 H1910 0.930 . S
C1925 C1920 1.390 . S
C1925 C1924 1.387 . S
H1926 C1938 0.930 . S
H1927 C1940 0.930 . S
H1928 C1941 0.930 . S
H1929 C1945 0.959 . S
H1930 C1945 0.959 . S
H1931 C1945 0.961 . S
H1932 C1946 0.960 . S
H1933 C1946 0.961 . S
H1934 C1946 0.959 . S
H1935 C1949 0.929 . S
H1936 C1950 0.931 . S
H1937 C1952 0.930 . S
C1938 H1926 0.930 . S
C1938 C1939 1.399 . S
C1938 C1943 1.399 . S
C1939 C1938 1.399 . S
C1939 C1940 1.376 . S
C1940 H1927 0.930 . S
C1940 C1939 1.376 . S
C1940 C1941 1.388 . S
C1941 H1928 0.930 . S
C1941 C1940 1.388 . S
C1941 C1942 1.390 . S
C1942 C1941 1.390 . S
C1942 C1943 1.394 . S
C1942 C1948 1.465 . S
C1943 C1938 1.399 . S
C1943 C1942 1.394 . S
C1943 C1944 1.516 . S
C1944 C1943 1.516 . S
C1944 C1945 1.502 . S
C1944 C1946 1.561 . S
C1944 C1947 1.526 . S
C1945 H1929 0.959 . S
C1945 H1930 0.959 . S
C1945 H1931 0.961 . S
C1945 C1944 1.502 . S
C1946 H1932 0.960 . S
C1946 H1933 0.961 . S
C1946 H1934 0.959 . S
C1946 C1944 1.561 . S
C1947 C1944 1.526 . S
C1947 C1948 1.396 . S
C1947 C1952 1.390 . S
C1948 C1942 1.465 . S
C1948 C1947 1.396 . S
C1948 C1949 1.399 . S
C1949 H1935 0.929 . S
C1949 C1948 1.399 . S
C1949 C1950 1.385 . S
C1950 H1936 0.931 . S
C1950 C1949 1.385 . S
C1950 C1951 1.389 . S
C1951 C1950 1.389 . S
C1951 C1952 1.387 . S
C1952 H1937 0.930 . S
C1952 C1947 1.390 . S
C1952 C1951 1.387 . S
H1953 C1965 0.930 . S
H1954 C1967 0.930 . S
H1955 C1968 0.930 . S
H1956 C1972 0.959 . S
H1957 C1972 0.959 . S
H1958 C1972 0.961 . S
H1959 C1973 0.960 . S
H1960 C1973 0.961 . S
H1961 C1973 0.959 . S
H1962 C1976 0.929 . S
H1963 C1977 0.931 . S
H1964 C1979 0.930 . S
C1965 H1953 0.930 . S
C1965 C1966 1.399 . S
C1965 C1970 1.399 . S
C1966 C1965 1.399 . S
C1966 C1967 1.376 . S
C1967 H1954 0.930 . S
C1967 C1966 1.376 . S
C1967 C1968 1.388 . S
C1968 H1955 0.930 . S
C1968 C1967 1.388 . S
C1968 C1969 1.390 . S
C1969 C1968 1.390 . S
C1969 C1970 1.394 . S
C1969 C1975 1.465 . S
C1970 C1965 1.399 . S
C1970 C1969 1.394 . S
C1970 C1971 1.516 . S
C1971 C1970 1.516 . S
C1971 C1972 1.502 . S
C1971 C1973 1.561 . S
C1971 C1974 1.526 . S
C1972 H1956 0.959 . S
C1972 H1957 0.959 . S
C1972 H1958 0.961 . S
C1972 C1971 1.502 . S
C1973 H1959 0.960 . S
C1973 H1960 0.961 . S
C1973 H1961 0.959 . S
C1973 C1971 1.561 . S
C1974 C1971 1.526 . S
C1974 C1975 1.396 . S
C1974 C1979 1.390 . S
C1975 C1969 1.465 . S
C1975 C1974 1.396 . S
C1975 C1976 1.399 . S
C1976 H1962 0.929 . S
C1976 C1975 1.399 . S
C1976 C1977 1.385 . S
C1977 H1963 0.931 . S
C1977 C1976 1.385 . S
C1977 C1978 1.389 . S
C1978 C1977 1.389 . S
C1978 C1979 1.387 . S
C1979 H1964 0.930 . S
C1979 C1974 1.390 . S
C1979 C1978 1.387 . S
C1021 C487 1.366 . S
C1033 C63 1.185 . S
C1048 C147 1.143 . S
C1060 C67 1.383 . S
C1075 C231 1.295 . S
C1087 C151 1.443 . S
C1102 C235 1.297 . S
C1114 C315 1.303 . S
C1129 C319 1.312 . S
C1141 C399 1.223 . S
C1156 C483 1.293 . S
C1168 C403 1.409 . S
C1183 C655 1.292 . S
C1195 C567 1.274 . S
C1210 C651 1.353 . S
C1222 C739 1.363 . S
C1237 C823 1.405 . S
C1249 C735 1.141 . S
C1264 C907 1.322 . S
C1276 C819 1.236 . S
C1291 C991 1.482 . S
C1303 C903 1.227 . S
C1318 C571 1.405 . S
C1330 C987 1.140 . S
C1345 C990 3.459 . S
C1357 C56 3.443 . S
C1372 C140 2.855 . S
C1384 C570 2.846 . S
C1399 C654 3.167 . S
C1411 C224 3.132 . S
C1426 C738 3.460 . S
C1438 C308 3.442 . S
C1453 C822 2.861 . S
C1465 C392 2.838 . S
C1480 C476 3.152 . S
C1492 C906 3.155 . S
C1507 C560 3.444 . S
C1519 C150 3.453 . S
C1534 C644 3.150 . S
C1546 C234 3.156 . S
C1561 C318 2.848 . S
C1573 C728 2.851 . S
C1588 C402 3.453 . S
C1600 C812 3.439 1_554 S
C1615 C896 3.150 . S
C1627 C486 3.156 . S
C1642 C980 2.832 . S
C1654 C66 2.860 . S
C1669 C579 2.693 . S
C1681 C75 2.712 . S
C1696 C159 1.828 . S
C1708 C663 1.821 . S
C1723 C747 1.782 . S
C1735 C243 1.834 . S
C1750 C327 2.676 . S
C1762 C831 2.704 . S
C1777 C915 1.888 . S
C1789 C411 1.848 . S
C1804 C999 1.868 . S
C1816 C495 1.869 . S
C1831 C576 0.755 . S
C1843 C72 0.777 . S
C1858 C660 0.568 . S
C1870 C156 0.547 . S
C1885 C744 0.303 . S
C1897 C240 0.333 . S
C1912 C324 0.754 . S
C1924 C828 0.776 . S
C1939 C912 0.330 . S
C1951 C408 0.308 . S
C1966 C996 0.560 . S
C1978 C492 0.592 . S
