# Generated by pormake.
# Topology wjo, (5)-cn, num edge types: 1
# Building blocks:
#     Node 0, Type 0, BuildingBlock: XOMCOT_clean_sbu_0, # of connection points: 5
#     Node 1, Type 0, BuildingBlock: XOMCOT_clean_sbu_0, # of connection points: 5
#     Node 2, Type 0, BuildingBlock: XOMCOT_clean_sbu_0, # of connection points: 5
#     Node 3, Type 0, BuildingBlock: XOMCOT_clean_sbu_0, # of connection points: 5
#     Node 4, Type 0, BuildingBlock: XOMCOT_clean_sbu_0, # of connection points: 5
#     Node 5, Type 0, BuildingBlock: XOMCOT_clean_sbu_0, # of connection points: 5
#     Node 6, Type 0, BuildingBlock: XOMCOT_clean_sbu_0, # of connection points: 5
#     Node 7, Type 0, BuildingBlock: XOMCOT_clean_sbu_0, # of connection points: 5
#     Node 8, Type 0, BuildingBlock: XOMCOT_clean_sbu_0, # of connection points: 5
#     Node 9, Type 0, BuildingBlock: XOMCOT_clean_sbu_0, # of connection points: 5
#     Node 10, Type 0, BuildingBlock: XOMCOT_clean_sbu_0, # of connection points: 5
#     Node 11, Type 0, BuildingBlock: XOMCOT_clean_sbu_0, # of connection points: 5
#     Edge 12, Type (0, 0), BuildingBlock: TEMPAE_clean_linker_10, # of connection points: 2
#     Edge 13, Type (0, 0), BuildingBlock: TEMPAE_clean_linker_10, # of connection points: 2
#     Edge 14, Type (0, 0), BuildingBlock: TEMPAE_clean_linker_10, # of connection points: 2
#     Edge 15, Type (0, 0), BuildingBlock: TEMPAE_clean_linker_10, # of connection points: 2
#     Edge 16, Type (0, 0), BuildingBlock: TEMPAE_clean_linker_10, # of connection points: 2
#     Edge 17, Type (0, 0), BuildingBlock: TEMPAE_clean_linker_10, # of connection points: 2
#     Edge 18, Type (0, 0), BuildingBlock: TEMPAE_clean_linker_10, # of connection points: 2
#     Edge 19, Type (0, 0), BuildingBlock: TEMPAE_clean_linker_10, # of connection points: 2
#     Edge 20, Type (0, 0), BuildingBlock: TEMPAE_clean_linker_10, # of connection points: 2
#     Edge 21, Type (0, 0), BuildingBlock: TEMPAE_clean_linker_10, # of connection points: 2
#     Edge 22, Type (0, 0), BuildingBlock: TEMPAE_clean_linker_10, # of connection points: 2
#     Edge 23, Type (0, 0), BuildingBlock: TEMPAE_clean_linker_10, # of connection points: 2
#     Edge 24, Type (0, 0), BuildingBlock: TEMPAE_clean_linker_10, # of connection points: 2
#     Edge 25, Type (0, 0), BuildingBlock: TEMPAE_clean_linker_10, # of connection points: 2
#     Edge 26, Type (0, 0), BuildingBlock: TEMPAE_clean_linker_10, # of connection points: 2
#     Edge 27, Type (0, 0), BuildingBlock: TEMPAE_clean_linker_10, # of connection points: 2
#     Edge 28, Type (0, 0), BuildingBlock: TEMPAE_clean_linker_10, # of connection points: 2
#     Edge 29, Type (0, 0), BuildingBlock: TEMPAE_clean_linker_10, # of connection points: 2
#     Edge 30, Type (0, 0), BuildingBlock: TEMPAE_clean_linker_10, # of connection points: 2
#     Edge 31, Type (0, 0), BuildingBlock: TEMPAE_clean_linker_10, # of connection points: 2
#     Edge 32, Type (0, 0), BuildingBlock: TEMPAE_clean_linker_10, # of connection points: 2
#     Edge 33, Type (0, 0), BuildingBlock: TEMPAE_clean_linker_10, # of connection points: 2
#     Edge 34, Type (0, 0), BuildingBlock: TEMPAE_clean_linker_10, # of connection points: 2
#     Edge 35, Type (0, 0), BuildingBlock: TEMPAE_clean_linker_10, # of connection points: 2
#     Edge 36, Type (0, 0), BuildingBlock: TEMPAE_clean_linker_10, # of connection points: 2
#     Edge 37, Type (0, 0), BuildingBlock: TEMPAE_clean_linker_10, # of connection points: 2
#     Edge 38, Type (0, 0), BuildingBlock: TEMPAE_clean_linker_10, # of connection points: 2
#     Edge 39, Type (0, 0), BuildingBlock: TEMPAE_clean_linker_10, # of connection points: 2
#     Edge 40, Type (0, 0), BuildingBlock: TEMPAE_clean_linker_10, # of connection points: 2
#     Edge 41, Type (0, 0), BuildingBlock: TEMPAE_clean_linker_10, # of connection points: 2
# Relax obj value: 0.367
# Max RMSD: 0.208
# Mean RMSD: 0.207
data_MOF--net-wjo--node1-XOMCOT_clean_sbu_0--edge1-TEMPAE_clean_linker_10
_symmetry_space_group_name_H-M    P1
_symmetry_Int_Tables_number       1
_symmetry_cell_setting            triclinic
loop_
_symmetry_equiv_pos_as_xyz
'x, y, z'
_cell_length_a     47.308467
_cell_length_b     47.272394
_cell_length_c     29.792166
_cell_angle_alpha  90.039895
_cell_angle_beta   89.975061
_cell_angle_gamma 120.01888
loop_
_atom_site_label
_atom_site_type_symbol
_atom_site_fract_x
_atom_site_fract_y
_atom_site_fract_z
_atom_type_partial_charge
Co0 Co 0.26508 0.37036 0.97781 0.0
C1 C 0.28375 0.33446 0.9137 0.0
C2 C 0.2338 0.32121 0.90441 0.0
C3 C 0.24069 0.30193 0.87685 0.0
N4 N 0.26103 0.3422 0.92708 0.0
N5 N 0.27213 0.31017 0.88294 0.0
H6 H 0.30799 0.34523 0.92773 0.0
H7 H 0.20985 0.31813 0.90954 0.0
C8 C 0.2033 0.36803 0.93682 0.0
O9 O 0.21477 0.37715 0.89599 0.0
N10 N 0.26959 0.39743 0.02889 0.0
C11 C 0.29734 0.4238 0.04303 0.0
C12 C 0.29212 0.43222 0.08517 0.0
C13 C 0.24798 0.38998 0.06257 0.0
N14 N 0.26114 0.41084 0.09737 0.0
C15 C 0.31887 0.41676 0.92619 0.0
C16 C 0.30308 0.46563 0.92859 0.0
C17 C 0.33492 0.47375 0.91584 0.0
C18 C 0.34206 0.44833 0.91325 0.0
C19 C 0.28046 0.43349 0.94149 0.0
N20 N 0.28889 0.40971 0.94154 0.0
H21 H 0.32644 0.39881 0.92799 0.0
H22 H 0.25734 0.42857 0.95536 0.0
H23 H 0.32024 0.43507 0.02497 0.0
H24 H 0.22402 0.36838 0.063 0.0
O25 O 0.30158 0.36704 0.00105 0.0
O26 O 0.24936 0.33351 0.01701 0.0
O27 O 0.22078 0.36542 0.96727 0.0
C28 C 0.27974 0.34238 0.02425 0.0
H29 H 0.22325 0.28192 0.85624 0.0
H30 H 0.31001 0.45189 0.10583 0.0
H31 H 0.29614 0.48421 0.93081 0.0
H32 H 0.3663 0.45306 0.90481 0.0
Co33 Co 0.9059 0.25972 0.14053 0.0
C34 C 0.95867 0.27831 0.07315 0.0
C35 C 0.92 0.22933 0.06211 0.0
C36 C 0.94501 0.23602 0.03248 0.0
N37 N 0.9283 0.25602 0.08747 0.0
N38 N 0.96944 0.26687 0.0395 0.0
H39 H 0.9736 0.30184 0.0888 0.0
H40 H 0.89825 0.20586 0.06609 0.0
C41 C 0.8439 0.19809 0.10336 0.0
O42 O 0.84237 0.21024 0.06439 0.0
N43 N 0.88498 0.26387 0.19383 0.0
C44 C 0.88766 0.29185 0.2096 0.0
C45 C 0.87684 0.28699 0.25329 0.0
C46 C 0.87267 0.2424 0.22806 0.0
N47 N 0.86763 0.25599 0.26482 0.0
C48 C 0.91125 0.313 0.08969 0.0
C49 C 0.84695 0.29761 0.09836 0.0
C50 C 0.8701 0.32915 0.08366 0.0
C51 C 0.90242 0.33611 0.07799 0.0
C52 C 0.85692 0.27518 0.1101 0.0
N53 N 0.88896 0.28336 0.10685 0.0
H54 H 0.93674 0.32031 0.08884 0.0
H55 H 0.83937 0.25241 0.12557 0.0
H56 H 0.89869 0.31477 0.19156 0.0
H57 H 0.87 0.2183 0.2273 0.0
O58 O 0.94624 0.29639 0.16231 0.0
O59 O 0.92835 0.24411 0.17711 0.0
O60 O 0.86654 0.21523 0.13123 0.0
C61 C 0.94957 0.27455 0.18475 0.0
H62 H 0.94546 0.21902 0.00855 0.0
H63 H 0.87686 0.30518 0.27542 0.0
H64 H 0.82162 0.29078 0.10294 0.0
H65 H 0.92155 0.36014 0.0679 0.0
Co66 Co 0.65066 0.8996 0.3091 0.0
C67 C 0.68866 0.95608 0.24786 0.0
C68 C 0.68319 0.91196 0.21955 0.0
C69 C 0.70097 0.93732 0.19013 0.0
N70 N 0.67547 0.92365 0.25602 0.0
N71 N 0.7043 0.96506 0.20791 0.0
H72 H 0.68719 0.97304 0.27074 0.0
H73 H 0.67649 0.88686 0.21408 0.0
C74 C 0.65156 0.83796 0.27392 0.0
O75 O 0.63004 0.83051 0.24167 0.0
N76 N 0.62674 0.87688 0.36247 0.0
C77 C 0.60072 0.8776 0.37951 0.0
C78 C 0.59422 0.86377 0.42149 0.0
C79 C 0.63613 0.8632 0.39458 0.0
N80 N 0.61655 0.85485 0.43107 0.0
C81 C 0.6026 0.90029 0.25224 0.0
C82 C 0.55318 0.8381 0.27397 0.0
C83 C 0.54515 0.85977 0.25341 0.0
C84 C 0.5704 0.89061 0.24048 0.0
C85 C 0.58584 0.84844 0.28403 0.0
N86 N 0.6099 0.8798 0.27529 0.0
H87 H 0.62117 0.92538 0.24652 0.0
H88 H 0.59122 0.83231 0.30325 0.0
H89 H 0.5883 0.8888 0.36332 0.0
H90 H 0.65753 0.86061 0.39187 0.0
O91 O 0.65016 0.93783 0.33165 0.0
O92 O 0.68809 0.92443 0.34601 0.0
O93 O 0.66047 0.86329 0.29818 0.0
C94 C 0.67603 0.94326 0.3543 0.0
H95 H 0.71035 0.93536 0.15784 0.0
H96 H 0.57553 0.86206 0.44415 0.0
H97 H 0.53421 0.81416 0.28475 0.0
H98 H 0.56502 0.90814 0.22509 0.0
Co99 Co 0.75859 0.64574 0.47557 0.0
C100 C 0.74285 0.68665 0.41627 0.0
C101 C 0.77345 0.67203 0.38247 0.0
C102 C 0.76582 0.68975 0.35298 0.0
N103 N 0.75914 0.67016 0.42236 0.0
N104 N 0.7464 0.69878 0.37426 0.0
H105 H 0.72835 0.6896 0.44184 0.0
H106 H 0.78765 0.66058 0.37461 0.0
C107 C 0.82082 0.64586 0.43999 0.0
O108 O 0.80658 0.62269 0.40979 0.0
N109 N 0.75758 0.62196 0.52885 0.0
C110 C 0.73052 0.59669 0.54666 0.0
C111 C 0.73769 0.59071 0.58902 0.0
C112 C 0.78087 0.63119 0.56063 0.0
N113 N 0.76923 0.61248 0.59777 0.0
C114 C 0.70814 0.59795 0.42122 0.0
C115 C 0.72025 0.54767 0.44003 0.0
C116 C 0.69009 0.54026 0.42164 0.0
C117 C 0.68464 0.56587 0.41056 0.0
C118 C 0.74324 0.58022 0.45014 0.0
N119 N 0.73645 0.60474 0.44238 0.0
H120 H 0.70209 0.61695 0.41647 0.0
H121 H 0.76492 0.58514 0.46854 0.0
H122 H 0.70676 0.5846 0.53079 0.0
H123 H 0.80499 0.65247 0.5579 0.0
O124 O 0.72048 0.64611 0.49878 0.0
O125 O 0.7721 0.68363 0.51213 0.0
O126 O 0.80441 0.65519 0.46343 0.0
C127 C 0.74134 0.67218 0.52077 0.0
H128 H 0.77317 0.69466 0.31814 0.0
H129 H 0.72076 0.57248 0.61222 0.0
H130 H 0.72495 0.52832 0.44973 0.0
H131 H 0.66137 0.5609 0.39692 0.0
Co132 Co 0.12069 0.75596 0.64243 0.0
C133 C 0.06659 0.73661 0.57731 0.0
C134 C 0.10322 0.78664 0.56807 0.0
C135 C 0.07733 0.77953 0.53994 0.0
N136 N 0.09683 0.75953 0.59114 0.0
N137 N 0.05415 0.74801 0.54591 0.0
H138 H 0.05317 0.71235 0.59135 0.0
H139 H 0.12402 0.81066 0.57317 0.0
C140 C 0.18018 0.81829 0.6028 0.0
O141 O 0.17981 0.80634 0.56284 0.0
N142 N 0.14317 0.75211 0.69416 0.0
C143 C 0.14475 0.72561 0.70671 0.0
C144 C 0.158 0.73089 0.74902 0.0
C145 C 0.15485 0.77286 0.72924 0.0
N146 N 0.16408 0.76053 0.76361 0.0
C147 C 0.11521 0.7032 0.59008 0.0
C148 C 0.18011 0.72009 0.59429 0.0
C149 C 0.15698 0.68826 0.58059 0.0
C150 C 0.12432 0.68058 0.57702 0.0
C151 C 0.16987 0.74215 0.60718 0.0
N152 N 0.13753 0.73313 0.60642 0.0
H153 H 0.08958 0.69519 0.59114 0.0
H154 H 0.18757 0.76519 0.62187 0.0
H155 H 0.13565 0.7034 0.68729 0.0
H156 H 0.15469 0.79563 0.73018 0.0
O157 O 0.08115 0.71869 0.66498 0.0
O158 O 0.09838 0.77068 0.68099 0.0
O159 O 0.1593 0.8008 0.63247 0.0
C160 C 0.07743 0.74007 0.68801 0.0
H161 H 0.07496 0.79689 0.51891 0.0
H162 H 0.16189 0.71353 0.76767 0.0
H163 H 0.20567 0.72738 0.59735 0.0
H164 H 0.10526 0.65628 0.56774 0.0
Co165 Co 0.3722 0.11392 0.81016 0.0
C166 C 0.33414 0.05921 0.74651 0.0
C167 C 0.34111 0.10438 0.71998 0.0
C168 C 0.32332 0.07975 0.68942 0.0
N169 N 0.34787 0.0915 0.75601 0.0
N170 N 0.31918 0.05142 0.70611 0.0
H171 H 0.33492 0.0415 0.76861 0.0
H172 H 0.34866 0.12984 0.71567 0.0
C173 C 0.37395 0.17768 0.77979 0.0
O174 O 0.39841 0.18741 0.75161 0.0
N175 N 0.39525 0.13496 0.86488 0.0
C176 C 0.41941 0.13165 0.88351 0.0
C177 C 0.42434 0.14336 0.9267 0.0
C178 C 0.38561 0.14841 0.89707 0.0
N179 N 0.40298 0.15369 0.93521 0.0
C180 C 0.41936 0.11419 0.75001 0.0
C181 C 0.47143 0.17233 0.77971 0.0
C182 C 0.47794 0.15079 0.75508 0.0
C183 C 0.45105 0.1225 0.73762 0.0
C184 C 0.43911 0.16371 0.78975 0.0
N185 N 0.4136 0.13397 0.77729 0.0
H186 H 0.39981 0.09038 0.74054 0.0
H187 H 0.43498 0.17962 0.81145 0.0
H188 H 0.4314 0.11991 0.86753 0.0
H189 H 0.36483 0.15201 0.89377 0.0
O190 O 0.37198 0.07492 0.83049 0.0
O191 O 0.33411 0.08823 0.84566 0.0
O192 O 0.36283 0.15065 0.80072 0.0
C193 C 0.34571 0.06883 0.85267 0.0
H194 H 0.31459 0.08259 0.6571 0.0
H195 H 0.4416 0.14333 0.95053 0.0
H196 H 0.49096 0.19456 0.79408 0.0
H197 H 0.45428 0.10562 0.7167 0.0
Co198 Co 0.6532 0.75519 0.85343 0.0
C199 C 0.68902 0.73597 0.91742 0.0
C200 C 0.69277 0.78126 0.93722 0.0
C201 C 0.7107 0.77398 0.96672 0.0
N202 N 0.67894 0.75734 0.90617 0.0
N203 N 0.70832 0.74544 0.95427 0.0
H204 H 0.68317 0.71426 0.89833 0.0
H205 H 0.69096 0.80307 0.93826 0.0
C206 C 0.65311 0.81736 0.88962 0.0
O207 O 0.63479 0.80418 0.92524 0.0
N208 N 0.62839 0.75265 0.80058 0.0
C209 C 0.60318 0.72511 0.78366 0.0
C210 C 0.59763 0.73106 0.74032 0.0
C211 C 0.63784 0.775 0.76745 0.0
N212 N 0.61954 0.76232 0.73022 0.0
C213 C 0.60557 0.70324 0.90611 0.0
C214 C 0.55617 0.71762 0.89448 0.0
C215 C 0.548 0.68643 0.9105 0.0
C216 C 0.57362 0.68003 0.91771 0.0
C217 C 0.58856 0.7401 0.88272 0.0
N218 N 0.61266 0.73238 0.88742 0.0
H219 H 0.62408 0.69635 0.90821 0.0
H220 H 0.59361 0.76245 0.86608 0.0
H221 H 0.59116 0.70175 0.8006 0.0
H222 H 0.65932 0.79905 0.76921 0.0
O223 O 0.65485 0.71761 0.83061 0.0
O224 O 0.69083 0.76956 0.81615 0.0
O225 O 0.6606 0.80052 0.86392 0.0
C226 C 0.68022 0.73888 0.80792 0.0
H227 H 0.72461 0.78878 0.995 0.0
H228 H 0.57976 0.71343 0.71736 0.0
H229 H 0.53753 0.72411 0.88879 0.0
H230 H 0.56897 0.65631 0.92894 0.0
Co231 Co 0.90343 0.64532 0.01788 0.0
C232 C 0.95724 0.68048 0.08321 0.0
C233 C 0.92037 0.69355 0.09215 0.0
C234 C 0.94618 0.71254 0.12034 0.0
N235 N 0.92696 0.67288 0.06926 0.0
N236 N 0.96952 0.70442 0.11453 0.0
H237 H 0.97085 0.66985 0.06921 0.0
H238 H 0.8995 0.69659 0.08681 0.0
C239 C 0.84328 0.64699 0.05802 0.0
O240 O 0.84455 0.63681 0.09859 0.0
N241 N 0.88137 0.61885 0.96609 0.0
C242 C 0.88232 0.59229 0.95183 0.0
C243 C 0.87011 0.58503 0.90884 0.0
C244 C 0.86901 0.62763 0.93158 0.0
N245 N 0.86202 0.60746 0.89601 0.0
C246 C 0.91046 0.59837 0.06867 0.0
C247 C 0.84575 0.54967 0.06576 0.0
C248 C 0.86933 0.54141 0.07864 0.0
C249 C 0.90191 0.56672 0.08144 0.0
C250 C 0.85543 0.58188 0.05305 0.0
N251 N 0.88765 0.60558 0.05335 0.0
H252 H 0.93599 0.61626 0.06706 0.0
H253 H 0.83734 0.58691 0.0391 0.0
H254 H 0.89305 0.58029 0.97024 0.0
H255 H 0.86685 0.64934 0.93182 0.0
O256 O 0.94347 0.64901 0.99477 0.0
O257 O 0.92466 0.68257 0.97952 0.0
O258 O 0.86399 0.65011 0.02823 0.0
C259 C 0.94607 0.67366 0.97175 0.0
H260 H 0.94842 0.73229 0.14125 0.0
H261 H 0.86921 0.56596 0.88774 0.0
H262 H 0.82022 0.53116 0.06332 0.0
H263 H 0.92132 0.56185 0.08996 0.0
Co264 Co 0.26508 0.89872 0.18673 0.0
C265 C 0.27964 0.956 0.2443 0.0
C266 C 0.24755 0.91097 0.2776 0.0
C267 C 0.25494 0.93647 0.30674 0.0
N268 N 0.263 0.92317 0.23829 0.0
N269 N 0.27533 0.96481 0.28584 0.0
H270 H 0.29516 0.97324 0.21914 0.0
H271 H 0.23292 0.88533 0.28547 0.0
C272 C 0.20279 0.83625 0.2211 0.0
O273 O 0.217 0.82733 0.25129 0.0
N274 N 0.26742 0.87534 0.13475 0.0
C275 C 0.29452 0.87584 0.11971 0.0
C276 C 0.28853 0.86238 0.07756 0.0
C277 C 0.24554 0.86229 0.10108 0.0
N278 N 0.25786 0.85425 0.06542 0.0
C279 C 0.31335 0.90249 0.24735 0.0
C280 C 0.30594 0.8422 0.22647 0.0
C281 C 0.33495 0.86549 0.24766 0.0
C282 C 0.33707 0.89502 0.26099 0.0
C283 C 0.28199 0.85017 0.21512 0.0
N284 N 0.28691 0.88082 0.22291 0.0
H285 H 0.31792 0.92696 0.25315 0.0
H286 H 0.26136 0.83292 0.19532 0.0
H287 H 0.31758 0.88667 0.13736 0.0
H288 H 0.22206 0.86102 0.1016 0.0
O289 O 0.30343 0.93713 0.16364 0.0
O290 O 0.25183 0.92198 0.14778 0.0
O291 O 0.21919 0.86219 0.19803 0.0
C292 C 0.28266 0.94128 0.1397 0.0
H293 H 0.2469 0.93416 0.34124 0.0
H294 H 0.30598 0.85978 0.05711 0.0
H295 H 0.30269 0.81898 0.2153 0.0
H296 H 0.35801 0.91338 0.27929 0.0
Co297 Co 0.3698 0.25978 0.35466 0.0
C298 C 0.33326 0.27826 0.41837 0.0
C299 C 0.33091 0.23379 0.4391 0.0
C300 C 0.31288 0.24093 0.46871 0.0
N301 N 0.34391 0.2573 0.40743 0.0
N302 N 0.31449 0.26901 0.45569 0.0
H303 H 0.33851 0.29965 0.39895 0.0
H304 H 0.33354 0.21245 0.44066 0.0
C305 C 0.37122 0.1983 0.39054 0.0
O306 O 0.39039 0.21181 0.42533 0.0
N307 N 0.39469 0.26259 0.30164 0.0
C308 C 0.42046 0.28991 0.28535 0.0
C309 C 0.42732 0.28354 0.24294 0.0
C310 C 0.38583 0.24013 0.26872 0.0
N311 N 0.40542 0.2523 0.23238 0.0
C312 C 0.41639 0.31167 0.40848 0.0
C313 C 0.46755 0.3004 0.3929 0.0
C314 C 0.4744 0.33106 0.40918 0.0
C315 C 0.44811 0.33577 0.41924 0.0
C316 C 0.43521 0.27668 0.38278 0.0
N317 N 0.41029 0.28313 0.38867 0.0
H318 H 0.39722 0.31749 0.41203 0.0
H319 H 0.43079 0.25467 0.36566 0.0
H320 H 0.43234 0.31332 0.30221 0.0
H321 H 0.36468 0.21589 0.27072 0.0
O322 O 0.36746 0.29691 0.33178 0.0
O323 O 0.33202 0.24469 0.31767 0.0
O324 O 0.36305 0.21483 0.3654 0.0
C325 C 0.34208 0.27525 0.30943 0.0
H326 H 0.29956 0.22648 0.49754 0.0
H327 H 0.44585 0.30113 0.22066 0.0
H328 H 0.48715 0.29577 0.38445 0.0
H329 H 0.45222 0.35888 0.43249 0.0
Co330 Co 0.12092 0.37102 0.51648 0.0
C331 C 0.06818 0.33635 0.5835 0.0
C332 C 0.10369 0.32111 0.58802 0.0
C333 C 0.07808 0.30195 0.61635 0.0
N334 N 0.09791 0.34328 0.56791 0.0
N335 N 0.05557 0.31141 0.61331 0.0
H336 H 0.05498 0.34792 0.57131 0.0
H337 H 0.12365 0.31704 0.58025 0.0
C338 C 0.18033 0.36872 0.55714 0.0
O339 O 0.17746 0.37713 0.59821 0.0
N340 N 0.14251 0.39768 0.4647 0.0
C341 C 0.14052 0.42361 0.45033 0.0
C342 C 0.1542 0.43211 0.40826 0.0
C343 C 0.157 0.39049 0.43118 0.0
N344 N 0.16445 0.41117 0.39609 0.0
C345 C 0.11394 0.41847 0.56652 0.0
C346 C 0.17892 0.46656 0.56436 0.0
C347 C 0.15555 0.47527 0.57654 0.0
C348 C 0.12281 0.45029 0.57899 0.0
C349 C 0.16894 0.43422 0.55198 0.0
N350 N 0.13662 0.41079 0.55194 0.0
H351 H 0.08835 0.40086 0.56444 0.0
H352 H 0.18696 0.4289 0.53851 0.0
H353 H 0.12843 0.43452 0.46817 0.0
H354 H 0.16073 0.36974 0.43195 0.0
O355 O 0.08041 0.36663 0.49401 0.0
O356 O 0.09987 0.33372 0.47817 0.0
O357 O 0.16073 0.36682 0.5264 0.0
C358 C 0.07792 0.34199 0.47102 0.0
H359 H 0.07521 0.28108 0.63512 0.0
H360 H 0.15487 0.45115 0.38739 0.0
H361 H 0.20455 0.48483 0.56218 0.0
H362 H 0.10358 0.45555 0.58697 0.0
Co363 Co 0.7596 0.1171 0.68529 0.0
C364 C 0.74274 0.05986 0.74433 0.0
C365 C 0.77511 0.10484 0.77758 0.0
C366 C 0.76734 0.07932 0.80684 0.0
N367 N 0.75979 0.09269 0.73817 0.0
N368 N 0.74684 0.05101 0.78593 0.0
H369 H 0.72741 0.04259 0.71906 0.0
H370 H 0.79024 0.13043 0.78527 0.0
C371 C 0.82251 0.17853 0.72036 0.0
O372 O 0.80841 0.18756 0.75062 0.0
N373 N 0.75906 0.14036 0.63214 0.0
C374 C 0.73249 0.13966 0.61457 0.0
C375 C 0.74045 0.15435 0.57317 0.0
C376 C 0.7827 0.15494 0.60092 0.0
N377 N 0.77199 0.16389 0.56446 0.0
C378 C 0.71119 0.11647 0.74289 0.0
C379 C 0.72344 0.17853 0.7215 0.0
C380 C 0.69408 0.1569 0.74298 0.0
C381 C 0.68881 0.12611 0.75561 0.0
C382 C 0.74568 0.16825 0.71048 0.0
N383 N 0.7387 0.13698 0.71926 0.0
H384 H 0.70484 0.09142 0.74856 0.0
H385 H 0.76694 0.18441 0.69085 0.0
H386 H 0.7086 0.12798 0.63004 0.0
H387 H 0.8068 0.15787 0.60429 0.0
O388 O 0.7207 0.07925 0.66238 0.0
O389 O 0.77188 0.09208 0.64813 0.0
O390 O 0.80591 0.15273 0.69702 0.0
C391 C 0.74096 0.0735 0.63976 0.0
H392 H 0.77548 0.08159 0.84128 0.0
H393 H 0.72372 0.15626 0.5503 0.0
H394 H 0.72826 0.20248 0.71101 0.0
H395 H 0.6662 0.10856 0.77168 0.0
C396 C 0.19294 0.43743 0.32552 0.0
C397 C 0.17792 0.40971 0.35318 0.0
C398 C 0.2055 0.43634 0.28333 0.0
C399 C 0.2035 0.40694 0.26854 0.0
C400 C 0.1886 0.37889 0.29625 0.0
C401 C 0.1758 0.38054 0.33808 0.0
C402 C 0.22109 0.46676 0.25463 0.0
C403 C 0.18627 0.34717 0.28176 0.0
C404 C 0.21304 0.39855 0.14338 0.0
C405 C 0.24632 0.40866 0.14034 0.0
C406 C 0.19855 0.39732 0.18502 0.0
C407 C 0.21779 0.40598 0.22451 0.0
C408 C 0.25118 0.4152 0.2217 0.0
C409 C 0.26509 0.41665 0.1796 0.0
C410 C 0.16292 0.38761 0.1866 0.0
C411 C 0.27234 0.42394 0.26311 0.0
H412 H 0.19521 0.4602 0.33696 0.0
H413 H 0.16381 0.35879 0.35861 0.0
H414 H 0.24716 0.47463 0.24878 0.0
H415 H 0.20899 0.46151 0.22134 0.0
H416 H 0.21962 0.48731 0.2703 0.0
H417 H 0.17427 0.32768 0.30745 0.0
H418 H 0.17226 0.33855 0.25 0.0
H419 H 0.21104 0.35104 0.27509 0.0
H420 H 0.19857 0.39243 0.11298 0.0
H421 H 0.29066 0.42377 0.17738 0.0
H422 H 0.1605 0.40848 0.19885 0.0
H423 H 0.14959 0.36718 0.21054 0.0
H424 H 0.15101 0.38004 0.15318 0.0
H425 H 0.27432 0.44609 0.27902 0.0
H426 H 0.29733 0.4287 0.25542 0.0
H427 H 0.26105 0.40389 0.28808 0.0
C428 C 0.83325 0.20885 0.31318 0.0
C429 C 0.85769 0.24159 0.30861 0.0
C430 C 0.82152 0.19529 0.35575 0.0
C431 C 0.83498 0.21488 0.39456 0.0
C432 C 0.86101 0.24741 0.39013 0.0
C433 C 0.87186 0.26045 0.34715 0.0
C434 C 0.79366 0.16053 0.35902 0.0
C435 C 0.87657 0.26887 0.43065 0.0
C436 C 0.77945 0.19561 0.49544 0.0
C437 C 0.78914 0.17794 0.52303 0.0
C438 C 0.79424 0.20773 0.45372 0.0
C439 C 0.81974 0.20248 0.43925 0.0
C440 C 0.8303 0.18539 0.4673 0.0
C441 C 0.81478 0.17319 0.50881 0.0
C442 C 0.78229 0.2259 0.42488 0.0
C443 C 0.85764 0.1796 0.45316 0.0
H444 H 0.82241 0.1943 0.28331 0.0
H445 H 0.89136 0.28554 0.34361 0.0
H446 H 0.79948 0.14656 0.3836 0.0
H447 H 0.77148 0.16048 0.37128 0.0
H448 H 0.78798 0.1477 0.32617 0.0
H449 H 0.89898 0.2921 0.42178 0.0
H450 H 0.85895 0.27483 0.44648 0.0
H451 H 0.88296 0.25585 0.45606 0.0
H452 H 0.76016 0.19998 0.50647 0.0
H453 H 0.82224 0.15929 0.52957 0.0
H454 H 0.77365 0.21336 0.39206 0.0
H455 H 0.80261 0.25096 0.41799 0.0
H456 H 0.76203 0.22769 0.44091 0.0
H457 H 0.85031 0.16398 0.42273 0.0
H458 H 0.86422 0.16754 0.47989 0.0
H459 H 0.87965 0.2031 0.44429 0.0
C460 C 0.59258 0.82353 0.50038 0.0
C461 C 0.62 0.84182 0.47316 0.0
C462 C 0.59542 0.81182 0.54234 0.0
C463 C 0.62644 0.81828 0.55746 0.0
C464 C 0.65425 0.83638 0.53001 0.0
C465 C 0.65072 0.84804 0.48819 0.0
C466 C 0.56513 0.79257 0.57056 0.0
C467 C 0.6877 0.8436 0.54496 0.0
C468 C 0.63191 0.81007 0.68347 0.0
C469 C 0.62466 0.77759 0.68699 0.0
C470 C 0.63403 0.82426 0.64129 0.0
C471 C 0.62929 0.80557 0.60188 0.0
C472 C 0.62398 0.7734 0.60536 0.0
C473 C 0.62147 0.75972 0.64793 0.0
C474 C 0.63964 0.85859 0.63902 0.0
C475 C 0.61958 0.75291 0.56422 0.0
H476 H 0.56874 0.8182 0.48874 0.0
H477 H 0.6721 0.86255 0.46772 0.0
H478 H 0.56114 0.76771 0.57688 0.0
H479 H 0.5683 0.80458 0.60366 0.0
H480 H 0.54293 0.79024 0.55428 0.0
H481 H 0.70666 0.85708 0.51906 0.0
H482 H 0.69471 0.8584 0.57616 0.0
H483 H 0.68737 0.8205 0.55283 0.0
H484 H 0.6345 0.82384 0.7138 0.0
H485 H 0.61671 0.73485 0.65077 0.0
H486 H 0.61713 0.85789 0.62682 0.0
H487 H 0.6594 0.87347 0.61483 0.0
H488 H 0.64615 0.87093 0.67225 0.0
H489 H 0.61962 0.73002 0.57251 0.0
H490 H 0.63925 0.76694 0.53951 0.0
H491 H 0.59603 0.74636 0.54781 0.0
C492 C 0.76865 0.61258 0.68017 0.0
C493 C 0.78562 0.61674 0.63993 0.0
C494 C 0.78328 0.61421 0.72167 0.0
C495 C 0.81554 0.61967 0.72289 0.0
C496 C 0.83327 0.62512 0.68238 0.0
C497 C 0.81811 0.62383 0.64126 0.0
C498 C 0.76377 0.609 0.7641 0.0
C499 C 0.86767 0.63088 0.68232 0.0
C500 C 0.85803 0.64163 0.83624 0.0
C501 C 0.85129 0.61089 0.85208 0.0
C502 C 0.84727 0.64508 0.79376 0.0
C503 C 0.82955 0.61718 0.76636 0.0
C504 C 0.82337 0.58625 0.78167 0.0
C505 C 0.83419 0.58348 0.82437 0.0
C506 C 0.85428 0.67845 0.77861 0.0
C507 C 0.80467 0.55591 0.75334 0.0
H508 H 0.74376 0.60783 0.67908 0.0
H509 H 0.83114 0.62706 0.61004 0.0
H510 H 0.75873 0.58578 0.78023 0.0
H511 H 0.77793 0.62897 0.78839 0.0
H512 H 0.74012 0.6079 0.75755 0.0
H513 H 0.8791 0.63768 0.64853 0.0
H514 H 0.88311 0.65051 0.70639 0.0
H515 H 0.8674 0.60834 0.6934 0.0
H516 H 0.87187 0.66309 0.8569 0.0
H517 H 0.82867 0.55965 0.83643 0.0
H518 H 0.831 0.67848 0.77427 0.0
H519 H 0.86675 0.68449 0.74556 0.0
H520 H 0.86977 0.69793 0.80295 0.0
H521 H 0.7793 0.5508 0.74837 0.0
H522 H 0.80373 0.5341 0.76891 0.0
H523 H 0.81604 0.55972 0.71967 0.0
C524 C 0.1841 0.80731 0.81669 0.0
C525 C 0.17556 0.77475 0.80768 0.0
C526 C 0.19538 0.82129 0.85923 0.0
C527 C 0.19891 0.80258 0.89349 0.0
C528 C 0.19011 0.76976 0.88501 0.0
C529 C 0.1783 0.75621 0.84253 0.0
C530 C 0.2041 0.85629 0.86728 0.0
C531 C 0.19399 0.74912 0.9205 0.0
C532 C 0.26225 0.84588 0.9843 0.0
C533 C 0.2429 0.84249 0.02196 0.0
C534 C 0.24823 0.83345 0.94229 0.0
C535 C 0.21395 0.81782 0.93726 0.0
C536 C 0.19423 0.81531 0.97451 0.0
C537 C 0.20891 0.82742 0.01651 0.0
C538 C 0.27012 0.83633 0.90351 0.0
C539 C 0.1576 0.79931 0.9702 0.0
H540 H 0.18246 0.82225 0.79053 0.0
H541 H 0.17146 0.73101 0.83696 0.0
H542 H 0.19147 0.85794 0.89771 0.0
H543 H 0.23072 0.8716 0.87337 0.0
H544 H 0.1975 0.86669 0.83839 0.0
H545 H 0.18524 0.72372 0.90896 0.0
H546 H 0.22009 0.7603 0.93001 0.0
H547 H 0.18029 0.74821 0.9512 0.0
H548 H 0.28852 0.85821 0.98739 0.0
H549 H 0.19361 0.8245 0.04516 0.0
H550 H 0.2665 0.8493 0.87508 0.0
H551 H 0.26366 0.8116 0.8914 0.0
H552 H 0.29638 0.8496 0.91285 0.0
H553 H 0.1512 0.81048 0.94211 0.0
H554 H 0.146 0.80151 0.00143 0.0
H555 H 0.14708 0.77301 0.96226 0.0
C556 C 0.40148 0.15154 0.01772 0.0
C557 C 0.398 0.16505 0.97767 0.0
C558 C 0.39924 0.1639 0.05951 0.0
C559 C 0.39379 0.19072 0.0613 0.0
C560 C 0.38887 0.20358 0.02097 0.0
C561 C 0.39083 0.1904 0.97955 0.0
C562 C 0.40398 0.14903 0.10168 0.0
C563 C 0.38308 0.23222 0.02144 0.0
C564 C 0.37159 0.21204 0.17426 0.0
C565 C 0.40219 0.23659 0.18965 0.0
C566 C 0.36829 0.1971 0.13227 0.0
C567 C 0.39624 0.20703 0.10504 0.0
C568 C 0.4271 0.23193 0.12028 0.0
C569 C 0.42968 0.2463 0.16237 0.0
C570 C 0.33499 0.17061 0.11717 0.0
C571 C 0.45752 0.24323 0.09229 0.0
H572 H 0.40624 0.1314 0.01627 0.0
H573 H 0.38811 0.20078 0.94854 0.0
H574 H 0.42726 0.16682 0.11804 0.0
H575 H 0.38404 0.14335 0.12595 0.0
H576 H 0.40466 0.12628 0.0947 0.0
H577 H 0.37653 0.23722 0.98772 0.0
H578 H 0.36328 0.22777 0.04533 0.0
H579 H 0.40551 0.2544 0.03306 0.0
H580 H 0.35012 0.20479 0.19472 0.0
H581 H 0.45342 0.26496 0.17421 0.0
H582 H 0.3352 0.14747 0.11196 0.0
H583 H 0.32868 0.17731 0.08453 0.0
H584 H 0.31561 0.16618 0.14189 0.0
H585 H 0.46212 0.22264 0.08697 0.0
H586 H 0.47944 0.2637 0.10825 0.0
H587 H 0.45413 0.25128 0.05874 0.0
C588 C 0.27937 0.27802 0.82277 0.0
C589 C 0.2886 0.29381 0.86458 0.0
C590 C 0.29409 0.26074 0.80548 0.0
C591 C 0.31863 0.25902 0.83058 0.0
C592 C 0.32855 0.27548 0.87236 0.0
C593 C 0.31348 0.29262 0.88878 0.0
C594 C 0.28275 0.2436 0.76082 0.0
C595 C 0.3544 0.27412 0.90049 0.0
C596 C 0.33052 0.18563 0.81579 0.0
C597 C 0.35906 0.19838 0.78966 0.0
C598 C 0.31693 0.2049 0.82847 0.0
C599 C 0.33216 0.23802 0.81496 0.0
C600 C 0.36063 0.251 0.78788 0.0
C601 C 0.37369 0.23102 0.77544 0.0
C602 C 0.2865 0.18989 0.85713 0.0
C603 C 0.37769 0.2862 0.77291 0.0
H604 H 0.26051 0.27909 0.80355 0.0
H605 H 0.32055 0.30422 0.92137 0.0
H606 H 0.30392 0.25098 0.73814 0.0
H607 H 0.27103 0.2168 0.76574 0.0
H608 H 0.265 0.249 0.74408 0.0
H609 H 0.36092 0.28993 0.93073 0.0
H610 H 0.34554 0.24862 0.91153 0.0
H611 H 0.37679 0.28181 0.88029 0.0
H612 H 0.31881 0.16044 0.82694 0.0
H613 H 0.39577 0.24121 0.75545 0.0
H614 H 0.26711 0.19283 0.84063 0.0
H615 H 0.2918 0.2027 0.88992 0.0
H616 H 0.27693 0.16348 0.86346 0.0
H617 H 0.3603 0.29153 0.75508 0.0
H618 H 0.3987 0.29226 0.75041 0.0
H619 H 0.38669 0.30248 0.80267 0.0
C620 C 0.15821 0.34993 0.99319 0.0
C621 C 0.1686 0.35732 0.94831 0.0
C622 C 0.12535 0.33692 0.00533 0.0
C623 C 0.10181 0.33112 0.97191 0.0
C624 C 0.11212 0.3396 0.9267 0.0
C625 C 0.14538 0.35255 0.9154 0.0
C626 C 0.11575 0.32842 0.05397 0.0
C627 C 0.08789 0.33421 0.89013 0.0
C628 C 0.0153 0.26481 0.00212 0.0
C629 C 1.00164 0.28305 0.01913 0.0
C630 C 0.04732 0.28017 0.98499 0.0
C631 C 0.06639 0.31474 0.98454 0.0
C632 C 0.05239 0.33333 0.00017 0.0
C633 C 0.02032 0.31731 0.01733 0.0
C634 C 0.06124 0.2593 0.9691 0.0
C635 C 0.07166 0.37019 6e-05 0.0
H636 H 0.17575 0.3537 0.01916 0.0
H637 H 0.153 0.35818 0.88069 0.0
H638 H 0.10238 0.34067 0.06606 0.0
H639 H 0.09905 0.3017 0.05731 0.0
H640 H 0.13718 0.33567 0.07615 0.0
H641 H 0.09998 0.34438 0.8574 0.0
H642 H 0.07071 0.30766 0.88597 0.0
H643 H 0.07318 0.34565 0.89951 0.0
H644 H 1.0014 0.23841 0.00365 0.0
H645 H 1.00991 0.33169 0.02962 0.0
H646 H 0.08138 0.2628 0.99171 0.0
H647 H 0.07168 0.26683 0.93494 0.0
H648 H 0.04261 0.2329 0.96843 0.0
H649 H 0.09209 0.37885 0.02438 0.0
H650 H 0.0564 0.3811 0.00923 0.0
H651 H 0.08252 0.37934 0.96646 0.0
C652 C 0.7954 0.142 0.08696 0.0
C653 C 0.8205 0.16342 0.11583 0.0
C654 C 0.7742 0.10908 0.09915 0.0
C655 C 0.77825 0.09726 0.14107 0.0
C656 C 0.80326 0.11891 0.17043 0.0
C657 C 0.82389 0.15148 0.15755 0.0
C658 C 0.74761 0.08686 0.06709 0.0
C659 C 0.80864 0.10759 0.21542 0.0
C660 C 0.71157 0.02041 0.19805 0.0
C661 C 0.72151 0.99756 0.18876 0.0
C662 C 0.72885 0.05247 0.18099 0.0
C663 C 0.75708 0.06219 0.15437 0.0
C664 C 0.7668 0.03902 0.14405 0.0
C665 C 0.74885 1.00704 0.16112 0.0
C666 C 0.71738 0.0762 0.19249 0.0
C667 C 0.79698 0.04836 0.11643 0.0
H668 H 0.79244 0.15085 0.05477 0.0
H669 H 0.84306 0.16756 0.18038 0.0
H670 H 0.75153 0.06656 0.05658 0.0
H671 H 0.72353 0.07576 0.08407 0.0
H672 H 0.74679 0.09996 0.03662 0.0
H673 H 0.82891 0.12761 0.23464 0.0
H674 H 0.78609 0.09756 0.23593 0.0
H675 H 0.8143 0.08767 0.21052 0.0
H676 H 0.69018 0.01319 0.2187 0.0
H677 H 0.7569 0.98971 0.15406 0.0
H678 H 0.71535 0.08816 0.1616 0.0
H679 H 0.73553 0.09572 0.21463 0.0
H680 H 0.69339 0.06412 0.20988 0.0
H681 H 0.79598 0.05977 0.0844 0.0
H682 H 0.80002 0.02704 0.10874 0.0
H683 H 0.81889 0.06673 0.13494 0.0
C684 C 0.74691 0.73928 0.32086 0.0
C685 C 0.7317 0.71677 0.35587 0.0
C686 C 0.73351 0.75786 0.30397 0.0
C687 C 0.70407 0.75383 0.32234 0.0
C688 C 0.68814 0.73052 0.35682 0.0
C689 C 0.70212 0.71235 0.37312 0.0
C690 C 0.75143 0.78256 0.26742 0.0
C691 C 0.65668 0.72529 0.3773 0.0
C692 C 0.68858 0.82539 0.31912 0.0
C693 C 0.66569 0.81666 0.28421 0.0
C694 C 0.70141 0.80538 0.33133 0.0
C695 C 0.69128 0.7757 0.30813 0.0
C696 C 0.66854 0.76683 0.27243 0.0
C697 C 0.65599 0.78739 0.26089 0.0
C698 C 0.72552 0.81588 0.36963 0.0
C699 C 0.65712 0.73539 0.24687 0.0
H700 H 0.76983 0.74308 0.30748 0.0
H701 H 0.68976 0.69459 0.39946 0.0
H702 H 0.7347 0.77883 0.23909 0.0
H703 H 0.76026 0.80756 0.28061 0.0
H704 H 0.77269 0.78113 0.25444 0.0
H705 H 0.64625 0.70483 0.40178 0.0
H706 H 0.66108 0.74787 0.3948 0.0
H707 H 0.63835 0.72013 0.35065 0.0
H708 H 0.69639 0.84789 0.33752 0.0
H709 H 0.63833 0.78034 0.23396 0.0
H710 H 0.74845 0.81717 0.35817 0.0
H711 H 0.71539 0.79756 0.39702 0.0
H712 H 0.7315 0.84005 0.38357 0.0
H713 H 0.67837 0.73458 0.23262 0.0
H714 H 0.64015 0.73242 0.21914 0.0
H715 H 0.64452 0.7143 0.27004 0.0
C716 C 0.01527 0.74141 0.48539 0.0
C717 C 0.02161 0.73133 0.52669 0.0
C718 C 0.98347 0.72671 0.46753 0.0
C719 C 0.95718 0.70118 0.49139 0.0
C720 C 0.9635 0.69024 0.53243 0.0
C721 C 0.9955 0.70543 0.54956 0.0
C722 C 0.97787 0.73923 0.42376 0.0
C723 C 0.93623 0.66319 0.55913 0.0
C724 C 0.87169 0.68862 0.47768 0.0
C725 C 0.85639 0.66093 0.44981 0.0
C726 C 0.90448 0.70218 0.49056 0.0
C727 C 0.92276 0.68777 0.47551 0.0
C728 C 0.9078 0.66022 0.44664 0.0
C729 C 0.87482 0.64718 0.43399 0.0
C730 C 0.91936 0.73167 0.52111 0.0
C731 C 0.92639 0.64404 0.43003 0.0
H732 H 0.0352 0.761 0.46705 0.0
H733 H 0.99976 0.69759 0.58171 0.0
H734 H 0.96441 0.71872 0.39995 0.0
H735 H 0.96256 0.75056 0.42976 0.0
H736 H 1.00108 0.75765 0.40778 0.0
H737 H 0.94543 0.65576 0.58854 0.0
H738 H 0.91931 0.67136 0.57136 0.0
H739 H 0.92187 0.64148 0.53752 0.0
H740 H 0.85787 0.69965 0.49003 0.0
H741 H 0.86329 0.62575 0.41266 0.0
H742 H 0.94177 0.75175 0.50562 0.0
H743 H 0.92663 0.7254 0.55335 0.0
H744 H 0.90227 0.74076 0.52841 0.0
H745 H 0.94923 0.66222 0.41312 0.0
H746 H 0.91184 0.62377 0.40623 0.0
H747 H 0.9335 0.63415 0.45893 0.0
C748 C 0.31259 0.99671 0.6931 0.0
C749 C 0.30213 0.01936 0.68567 0.0
C750 C 0.29522 0.96481 0.67558 0.0
C751 C 0.26632 0.95501 0.65052 0.0
C752 C 0.25616 0.97807 0.64182 0.0
C753 C 0.2743 0.00999 0.65919 0.0
C754 C 0.30726 0.94127 0.68518 0.0
C755 C 0.22526 0.96861 0.61593 0.0
C756 C 0.22702 0.8748 0.58391 0.0
C757 C 0.20327 0.85324 0.61423 0.0
C758 C 0.24797 0.90796 0.59521 0.0
C759 C 0.24495 0.91989 0.63764 0.0
C760 C 0.22117 0.89815 0.66834 0.0
C761 C 0.20086 0.86532 0.65639 0.0
C762 C 0.27331 0.93024 0.56179 0.0
C763 C 0.21686 0.90962 0.71388 0.0
H764 H 0.33439 1.00395 0.71282 0.0
H765 H 0.26597 0.02727 0.65353 0.0
H766 H 0.28997 0.92179 0.70812 0.0
H767 H 0.3083 0.92924 0.65373 0.0
H768 H 0.33183 0.95354 0.70096 0.0
H769 H 0.22204 0.98992 0.609 0.0
H770 H 0.22536 0.95705 0.58357 0.0
H771 H 0.20388 0.95034 0.63539 0.0
H772 H 0.2292 0.86583 0.55136 0.0
H773 H 0.18272 0.84912 0.68033 0.0
H774 H 0.29797 0.9415 0.57711 0.0
H775 H 0.2689 0.95043 0.55251 0.0
H776 H 0.27317 0.91715 0.53074 0.0
H777 H 0.23994 0.91984 0.73324 0.0
H778 H 0.19716 0.88964 0.73386 0.0
H779 H 0.21097 0.92944 0.70981 0.0
C780 C 0.79809 0.65903 0.07759 0.0
C781 C 0.81965 0.65804 0.04604 0.0
C782 C 0.77744 0.67151 0.06598 0.0
C783 C 0.77846 0.68343 0.02191 0.0
C784 C 0.79967 0.68181 0.98983 0.0
C785 C 0.81976 0.66915 0.00218 0.0
C786 C 0.75493 0.67249 0.10105 0.0
C787 C 0.80178 0.69422 0.94249 0.0
C788 C 0.71118 0.69548 0.97098 0.0
C789 C 0.72463 0.72948 0.97426 0.0
C790 C 0.72762 0.67992 0.9883 0.0
C791 C 0.75849 0.69876 0.00915 0.0
C792 C 0.77175 0.73294 0.01368 0.0
C793 C 0.75467 0.74781 0.99637 0.0
C794 C 0.71241 0.64341 0.98303 0.0
C795 C 0.80471 0.7541 0.03513 0.0
H796 H 0.79769 0.65054 0.11148 0.0
H797 H 0.8361 0.66853 0.97725 0.0
H798 H 0.76206 0.69823 0.10835 0.0
H799 H 0.7295 0.6602 0.08827 0.0
H800 H 0.7555 0.66054 0.13286 0.0
H801 H 0.81891 0.69044 0.9212 0.0
H802 H 0.77735 0.68165 0.92647 0.0
H803 H 0.81008 0.72071 0.9432 0.0
H804 H 0.68777 0.68099 0.95468 0.0
H805 H 0.7655 0.77407 -0.00122 0.0
H806 H 0.71228 0.63206 0.01566 0.0
H807 H 0.72715 0.63796 0.95931 0.0
H808 H 0.68699 0.63185 0.97015 0.0
H809 H 0.80568 0.74426 0.06852 0.0
H810 H 0.81051 0.77981 0.03926 0.0
H811 H 0.82395 0.75388 0.01404 0.0
C812 C 0.02829 0.72103 0.11086 0.0
C813 C 1.00206 0.72055 0.13378 0.0
C814 C 0.06026 0.73799 0.12808 0.0
C815 C 0.06645 0.7551 0.16927 0.0
C816 C 0.04004 0.7541 0.19314 0.0
C817 C 1.00827 0.73687 0.17517 0.0
C818 C 0.08764 0.73848 0.10133 0.0
C819 C 0.04549 0.77204 0.23707 0.0
C820 C 0.14878 0.78344 0.22671 0.0
C821 C 0.16722 0.81571 0.21116 0.0
C822 C 0.11581 0.76349 0.214 0.0
C823 C 0.10083 0.77615 0.18534 0.0
C824 C 0.11912 0.80894 0.17058 0.0
C825 C 0.15191 0.82817 0.18352 0.0
C826 C 0.09723 0.72862 0.23028 0.0
C827 C 0.10424 0.82361 0.14027 0.0
H828 H 0.02413 0.70903 0.07863 0.0
H829 H 0.98825 0.73633 0.19351 0.0
H830 H 0.10442 0.76364 0.08919 0.0
H831 H 0.10211 0.73128 0.12287 0.0
H832 H 0.07853 0.72186 0.07187 0.0
H833 H 0.02223 0.76711 0.25299 0.0
H834 H 0.05891 0.76493 0.26082 0.0
H835 H 0.06079 0.79873 0.23133 0.0
H836 H 0.16032 0.77349 0.24788 0.0
H837 H 0.16572 0.85308 0.17138 0.0
H838 H 0.09021 0.71174 0.20122 0.0
H839 H 0.07435 0.72383 0.24717 0.0
H840 H 0.11177 0.72287 0.25401 0.0
H841 H 0.09712 0.81028 0.10784 0.0
H842 H 0.12128 0.84989 0.13332 0.0
H843 H 0.08175 0.82108 0.15574 0.0
C844 C 0.27524 1.00511 0.33916 0.0
C845 C 0.29051 0.99749 0.30457 0.0
C846 C 0.28923 0.03698 0.35669 0.0
C847 C 0.31934 0.06201 0.33941 0.0
C848 C 0.33533 0.0543 0.30537 0.0
C849 C 0.32076 0.02225 0.2884 0.0
C850 C 0.27117 0.04412 0.39267 0.0
C851 C 0.36748 0.08014 0.286 0.0
C852 C 0.33596 0.14944 0.34297 0.0
C853 C 0.35785 0.1631 0.37912 0.0
C854 C 0.32328 0.11674 0.33011 0.0
C855 C 0.33256 0.09676 0.35381 0.0
C856 C 0.35448 0.11014 0.39052 0.0
C857 C 0.36686 0.14315 0.40279 0.0
C858 C 0.30001 0.10367 0.2908 0.0
C859 C 0.36505 0.08965 0.41655 0.0
H860 H 0.25182 0.98632 0.35173 0.0
H861 H 0.33318 0.0166 0.26241 0.0
H862 H 0.28757 0.05669 0.42149 0.0
H863 H 0.26311 0.0608 0.37917 0.0
H864 H 0.24939 0.02159 0.40505 0.0
H865 H 0.37799 0.06978 0.26216 0.0
H866 H 0.364 0.09872 0.26803 0.0
H867 H 0.38537 0.09293 0.3133 0.0
H868 H 0.32862 0.16437 0.32428 0.0
H869 H 0.38375 0.15336 0.43065 0.0
H870 H 0.27655 0.08232 0.30149 0.0
H871 H 0.31034 0.09515 0.26409 0.0
H872 H 0.2949 0.12228 0.27622 0.0
H873 H 0.34338 0.06784 0.43055 0.0
H874 H 0.38187 0.10345 0.44453 0.0
H875 H 0.37748 0.08073 0.39379 0.0
C876 C 0.31203 0.31905 0.47292 0.0
C877 C 0.29831 0.28502 0.47585 0.0
C878 C 0.29571 0.33473 0.49021 0.0
C879 C 0.26464 0.31596 0.51053 0.0
C880 C 0.25111 0.28171 0.51476 0.0
C881 C 0.26814 0.26672 0.49762 0.0
C882 C 0.31125 0.3713 0.48539 0.0
C883 C 0.21789 0.26063 0.53555 0.0
C884 C 0.22483 0.35599 0.57791 0.0
C885 C 0.20395 0.35753 0.54575 0.0
C886 C 0.24533 0.34321 0.56687 0.0
C887 C 0.24475 0.33147 0.5228 0.0
C888 C 0.2242 0.33359 0.49014 0.0
C889 C 0.20432 0.34662 0.5019 0.0
C890 C 0.26723 0.34179 0.6025 0.0
C891 C 0.22253 0.32132 0.44279 0.0
H892 H 0.33557 0.33346 0.45689 0.0
H893 H 0.2572 0.24044 0.49976 0.0
H894 H 0.297 0.37707 0.46124 0.0
H895 H 0.31098 0.3825 0.51802 0.0
H896 H 0.33685 0.38277 0.47324 0.0
H897 H 0.21188 0.23485 0.53955 0.0
H898 H 0.21665 0.27036 0.56893 0.0
H899 H 0.19896 0.26109 0.51409 0.0
H900 H 0.22486 0.36432 0.6118 0.0
H901 H 0.18844 0.34758 0.47654 0.0
H902 H 0.29282 0.35391 0.59035 0.0
H903 H 0.25975 0.31595 0.60968 0.0
H904 H 0.26639 0.35366 0.63428 0.0
H905 H 0.24715 0.3338 0.4273 0.0
H906 H 0.20576 0.32534 0.42109 0.0
H907 H 0.21405 0.29479 0.44338 0.0
C908 C 0.01681 0.27735 0.67295 0.0
C909 C 0.02315 0.29529 0.63297 0.0
C910 C 0.98508 0.25987 0.69099 0.0
C911 C 0.95884 0.26026 0.66864 0.0
C912 C 0.96519 0.27907 0.62901 0.0
C913 C 0.99713 0.29625 0.61169 0.0
C914 C 0.97947 0.24016 0.73326 0.0
C915 C 0.938 0.28013 0.60394 0.0
C916 C 0.87297 0.1874 0.68047 0.0
C917 C 0.85807 0.19908 0.71026 0.0
C918 C 0.90573 0.20681 0.66748 0.0
C919 C 0.92443 0.23897 0.68447 0.0
C920 C 0.90987 0.2508 0.71527 0.0
C921 C 0.8769 0.23072 0.72788 0.0
C922 C 0.92015 0.19304 0.63476 0.0
C923 C 0.92891 0.28497 0.73406 0.0
H924 H 0.0367 0.27677 0.69007 0.0
H925 H 1.00139 0.30953 0.58053 0.0
H926 H 0.96628 0.24652 0.75846 0.0
H927 H 0.96391 0.21377 0.7256 0.0
H928 H 1.00266 0.24418 0.74835 0.0
H929 H 0.94725 0.29786 0.57572 0.0
H930 H 0.92085 0.25556 0.59022 0.0
H931 H 0.92389 0.28682 0.62706 0.0
H932 H 0.85885 0.163 0.66664 0.0
H933 H 0.86571 0.24009 0.75074 0.0
H934 H 0.94247 0.19452 0.64917 0.0
H935 H 0.92744 0.20771 0.60346 0.0
H936 H 0.90275 0.16718 0.62592 0.0
H937 H 0.95171 0.28876 0.75011 0.0
H938 H 0.91465 0.29005 0.75916 0.0
H939 H 0.93611 0.303 0.70642 0.0
C940 C 0.70172 0.99339 0.78831 0.0
C941 C 0.73198 0.01825 0.80432 0.0
C942 C 0.6875 0.96125 0.80487 0.0
C943 C 0.70391 0.95351 0.83822 0.0
C944 C 0.73411 0.97861 0.85523 0.0
C945 C 0.74769 0.01059 0.83821 0.0
C946 C 0.65522 0.93536 0.78588 0.0
C947 C 0.75266 0.97147 0.89037 0.0
C948 C 0.65749 0.87249 0.90215 0.0
C949 C 0.6662 0.85249 0.87796 0.0
C950 C 0.66954 0.90543 0.88979 0.0
C951 C 0.69089 0.91874 0.85248 0.0
C952 C 0.69986 0.89869 0.82821 0.0
C953 C 0.68746 0.86603 0.84114 0.0
C954 C 0.65925 0.92593 0.9164 0.0
C955 C 0.72254 0.91168 0.78829 0.0
H956 H 0.68902 0.99906 0.76281 0.0
H957 H 0.77115 0.02944 0.8506 0.0
H958 H 0.65864 0.91693 0.76733 0.0
H959 H 0.63764 0.92239 0.81342 0.0
H960 H 0.64438 0.94573 0.76264 0.0
H961 H 0.77466 0.99397 0.90234 0.0
H962 H 0.73669 0.95896 0.91957 0.0
H963 H 0.76046 0.95471 0.87627 0.0
H964 H 0.64107 0.86238 0.93051 0.0
H965 H 0.69453 0.85105 0.82203 0.0
H966 H 0.64661 0.93487 0.8941 0.0
H967 H 0.68106 0.94773 0.93016 0.0
H968 H 0.64269 0.91213 0.9446 0.0
H969 H 0.71171 0.91994 0.76197 0.0
H970 H 0.72759 0.8931 0.77342 0.0
H971 H 0.74607 0.93319 0.7984 0.0
C972 C 0.26489 0.31085 0.09517 0.0
C973 C 0.2887 0.32909 0.06286 0.0
C974 C 0.27331 0.30218 0.13575 0.0
C975 C 0.30624 0.31138 0.1438 0.0
C976 C 0.33026 0.32868 0.11063 0.0
C977 C 0.32122 0.33765 0.07055 0.0
C978 C 0.24709 0.28396 0.17052 0.0
C979 C 0.3655 0.33817 0.11783 0.0
C980 C 0.33324 0.31485 0.26465 0.0
C981 C 0.33053 0.28414 0.26906 0.0
C982 C 0.32512 0.32405 0.22399 0.0
C983 C 0.31527 0.30239 0.18685 0.0
C984 C 0.31295 0.27154 0.19116 0.0
C985 C 0.32012 0.2626 0.23244 0.0
C986 C 0.3271 0.35687 0.22068 0.0
C987 C 0.30339 0.24814 0.15202 0.0
H988 H 0.23973 0.30443 0.08963 0.0
H989 H 0.33966 0.35184 0.04567 0.0
H990 H 0.24572 0.26042 0.17876 0.0
H991 H 0.25327 0.29845 0.20197 0.0
H992 H 0.22264 0.27885 0.15904 0.0
H993 H 0.38085 0.35026 0.08789 0.0
H994 H 0.3756 0.35507 0.14682 0.0
H995 H 0.36731 0.31622 0.12595 0.0
H996 H 0.34166 0.33155 0.2929 0.0
H997 H 0.31883 0.23913 0.23543 0.0
H998 H 0.303 0.35355 0.2108 0.0
H999 H 0.34481 0.37183 0.19422 0.0
H1000 H 0.33468 0.3706 0.25284 0.0
H1001 H 0.2783 0.24087 0.14083 0.0
H1002 H 0.30428 0.22572 0.16053 0.0
H1003 H 0.31996 0.2603 0.12319 0.0
C1004 C 0.96084 0.26081 0.26017 0.0
C1005 C 0.9704 0.28337 0.22484 0.0
C1006 C 0.97667 0.26965 0.30168 0.0
C1007 C 1.00333 0.30157 0.30758 0.0
C1008 C 0.01373 0.32428 0.27171 0.0
C1009 C 0.99676 0.31501 0.23077 0.0
C1010 C 0.96443 0.24501 0.33945 0.0
C1011 C 0.04259 0.35833 0.27672 0.0
C1012 C 0.03016 0.3345 0.42562 0.0
C1013 C 0.05601 0.32852 0.43209 0.0
C1014 C 0.01223 0.32528 0.38542 0.0
C1015 C 0.02112 0.31062 0.35083 0.0
C1016 C 0.04689 0.30414 0.35759 0.0
C1017 C 0.06374 0.31279 0.39834 0.0
C1018 C 0.9842 0.33167 0.37963 0.0
C1019 C 0.05728 0.28886 0.32131 0.0
H1020 H 0.93994 0.2365 0.25612 0.0
H1021 H 1.00388 0.33253 0.20361 0.0
H1022 H 0.98404 0.24023 0.35055 0.0
H1023 H 0.95769 0.2549 0.36876 0.0
H1024 H 0.94282 0.22142 0.32956 0.0
H1025 H 0.04783 0.37286 0.24539 0.0
H1026 H 0.03796 0.37137 0.30415 0.0
H1027 H 0.06464 0.35708 0.2861 0.0
H1028 H 0.02427 0.34677 0.45164 0.0
H1029 H 0.08402 0.30849 0.40288 0.0
H1030 H 0.96159 0.30867 0.37078 0.0
H1031 H 0.9895 0.34903 0.35156 0.0
H1032 H 0.97956 0.34196 0.41044 0.0
H1033 H 0.03657 0.26455 0.31204 0.0
H1034 H 0.07814 0.28583 0.33185 0.0
H1035 H 0.06446 0.30427 0.29069 0.0
C1036 C 0.68237 0.99094 0.39909 0.0
C1037 C 0.68625 0.96361 0.39493 0.0
C1038 C 0.69008 0.00852 0.43962 0.0
C1039 C 0.7007 0.99761 0.47689 0.0
C1040 C 0.7038 0.96949 0.47297 0.0
C1041 C 0.69704 0.95318 0.43184 0.0
C1042 C 0.68724 0.03888 0.44245 0.0
C1043 C 0.71422 0.95656 0.5122 0.0
C1044 C 0.75326 0.05739 0.56654 0.0
C1045 C 0.73043 0.05173 0.60041 0.0
C1046 C 0.74368 0.04041 0.52587 0.0
C1047 C 0.71056 0.01656 0.5193 0.0
C1048 C 0.68744 0.01008 0.55377 0.0
C1049 C 0.69761 0.02814 0.59386 0.0
C1050 C 0.76898 0.04838 0.48968 0.0
C1051 C 0.65205 0.98418 0.5482 0.0
H1052 H 0.67362 0.99868 0.37063 0.0
H1053 H 0.69918 0.93144 0.42907 0.0
H1054 H 0.67029 0.03638 0.46989 0.0
H1055 H 0.7114 0.06028 0.45062 0.0
H1056 H 0.67835 0.0439 0.41061 0.0
H1057 H 0.71285 0.93291 0.50448 0.0
H1058 H 0.73969 0.97452 0.52176 0.0
H1059 H 0.69856 0.95312 0.54179 0.0
H1060 H 0.7786 0.07606 0.57106 0.0
H1061 H 0.67993 0.02396 0.61991 0.0
H1062 H 0.76135 0.05526 0.45824 0.0
H1063 H 0.77111 0.02653 0.48219 0.0
H1064 H 0.79344 0.06871 0.49944 0.0
H1065 H 0.64139 0.99015 0.51908 0.0
H1066 H 0.63731 0.98174 0.5785 0.0
H1067 H 0.65011 0.96022 0.54112 0.0
C1068 C 0.75528 0.70491 0.59062 0.0
C1069 C 0.73149 0.68478 0.55936 0.0
C1070 C 0.74655 0.71324 0.63127 0.0
C1071 C 0.71324 0.70175 0.6405 0.0
C1072 C 0.68912 0.68249 0.60837 0.0
C1073 C 0.69854 0.67388 0.56823 0.0
C1074 C 0.77294 0.73364 0.66484 0.0
C1075 C 0.65344 0.6706 0.61674 0.0
C1076 C 0.68944 0.69955 0.76283 0.0
C1077 C 0.69052 0.72955 0.76668 0.0
C1078 C 0.69679 0.69004 0.72175 0.0
C1079 C 0.70401 0.71052 0.68366 0.0
C1080 C 0.70421 0.74042 0.68732 0.0
C1081 C 0.69806 0.74982 0.72899 0.0
C1082 C 0.69709 0.65829 0.71913 0.0
C1083 C 0.71075 0.76244 0.64722 0.0
H1084 H 0.7808 0.71314 0.58422 0.0
H1085 H 0.68011 0.65822 0.54418 0.0
H1086 H 0.7726 0.75646 0.67226 0.0
H1087 H 0.76833 0.72005 0.69688 0.0
H1088 H 0.79769 0.74024 0.65265 0.0
H1089 H 0.63791 0.65696 0.58762 0.0
H1090 H 0.64499 0.6544 0.64657 0.0
H1091 H 0.64983 0.6916 0.62412 0.0
H1092 H 0.68313 0.68375 0.79192 0.0
H1093 H 0.69797 0.77266 0.73163 0.0
H1094 H 0.72163 0.66311 0.7087 0.0
H1095 H 0.67948 0.64214 0.69335 0.0
H1096 H 0.69078 0.64511 0.75172 0.0
H1097 H 0.73592 0.77142 0.63472 0.0
H1098 H 0.70793 0.78385 0.65527 0.0
H1099 H 0.69376 0.74858 0.61948 0.0
C1100 C 0.06099 0.75376 0.76 0.0
C1101 C 0.05502 0.73056 0.7265 0.0
C1102 C 0.04363 0.74474 0.80035 0.0
C1103 C 0.01916 0.71185 0.80694 0.0
C1104 C 0.01209 0.68848 0.77262 0.0
C1105 C 0.03044 0.69807 0.73282 0.0
C1106 C 0.05211 0.77026 0.83642 0.0
C1107 C 0.98554 0.65332 0.77827 0.0
C1108 C 0.99441 0.68252 0.92672 0.0
C1109 C 0.96681 0.68584 0.93164 0.0
C1110 C 0.01193 0.69109 0.88621 0.0
C1111 C 1.00082 0.70221 0.84974 0.0
C1112 C 0.97279 0.70531 0.85458 0.0
C1113 C 0.95641 0.69753 0.8957 0.0
C1114 C 0.04219 0.68818 0.88233 0.0
C1115 C 0.95979 0.71638 0.81617 0.0
H1116 H 0.08029 0.77887 0.75556 0.0
H1117 H 0.02591 0.68011 0.707 0.0
H1118 H 0.03032 0.7722 0.84501 0.0
H1119 H 0.0598 0.76293 0.8674 0.0
H1120 H 0.07205 0.79476 0.82601 0.0
H1121 H 0.98216 0.63855 0.74762 0.0
H1122 H 0.99159 0.64217 0.80672 0.0
H1123 H 0.96204 0.65205 0.78645 0.0
H1124 H 1.00219 0.67317 0.95442 0.0
H1125 H 0.93458 0.6994 0.89905 0.0
H1126 H 0.06348 0.71223 0.87342 0.0
H1127 H 0.0391 0.67091 0.85499 0.0
H1128 H 0.04776 0.67952 0.91397 0.0
H1129 H 0.97828 0.7415 0.80587 0.0
H1130 H 0.93688 0.71619 0.82506 0.0
H1131 H 0.95494 0.70026 0.78666 0.0
C1132 C 0.27273 0.94698 0.06005 0.0
C1133 C 0.29247 0.96042 0.09807 0.0
C1134 C 0.28192 0.9626 0.01847 0.0
C1135 C 0.311 0.99308 0.0152 0.0
C1136 C 0.33107 1.00696 0.05355 0.0
C1137 C 0.32185 0.99001 0.09459 0.0
C1138 C 0.26033 0.94652 0.97816 0.0
C1139 C 0.36186 0.03987 0.05134 0.0
C1140 C 0.34644 0.02537 0.89967 0.0
C1141 C 0.33378 0.04599 0.89086 0.0
C1142 C 0.339 1.00763 0.93995 0.0
C1143 C 0.31904 0.01124 0.97223 0.0
C1144 C 0.30574 0.03155 0.96304 0.0
C1145 C 0.31295 0.04835 0.92226 0.0
C1146 C 0.35286 0.98545 0.94829 0.0
C1147 C 0.28454 0.0362 0.99679 0.0
H1148 H 0.25035 0.92362 0.0625 0.0
H1149 H 0.33718 1.0001 0.12401 0.0
H1150 H 0.24948 0.96133 0.96667 0.0
H1151 H 0.27495 0.94524 0.94992 0.0
H1152 H 0.24022 0.9214 0.98562 0.0
H1153 H 0.37503 0.04697 0.08393 0.0
H1154 H 0.37848 0.03962 0.02527 0.0
H1155 H 0.35579 0.05886 0.04155 0.0
H1156 H 0.36269 0.02365 0.87557 0.0
H1157 H 0.30334 0.06453 0.91593 0.0
H1158 H 0.33287 0.96034 0.9559 0.0
H1159 H 0.3692 0.99415 0.97796 0.0
H1160 H 0.36689 0.98439 0.91906 0.0
H1161 H 0.2624 0.01242 0.00411 0.0
H1162 H 0.27676 0.05351 0.98479 0.0
H1163 H 0.298 0.04559 0.02884 0.0
C1164 C 0.48906 0.65701 0.88497 0.0
C1165 C 0.51316 0.65949 0.91501 0.0
C1166 C 0.45743 0.62949 0.88483 0.0
C1167 C 0.44979 0.60323 0.91451 0.0
C1168 C 0.47343 0.60612 0.94616 0.0
C1169 C 0.50448 0.63433 0.94654 0.0
C1170 C 0.43266 0.62794 0.85154 0.0
C1171 C 0.46652 0.57866 0.97822 0.0
C1172 C 0.36354 0.53339 0.93804 0.0
C1173 C 0.36177 0.50849 0.91022 0.0
C1174 C 0.39122 0.56494 0.93796 0.0
C1175 C 0.41824 0.57167 0.91028 0.0
C1176 C 0.416 0.5472 0.88062 0.0
C1177 C 0.38769 0.51624 0.88043 0.0
C1178 C 0.3921 0.59061 0.969 0.0
C1179 C 0.44424 0.55312 0.85072 0.0
H1180 H 0.49518 0.67587 0.86005 0.0
H1181 H 0.52234 0.63616 0.97086 0.0
H1182 H 0.42914 0.61034 0.82449 0.0
H1183 H 0.40866 0.61916 0.86806 0.0
H1184 H 0.44047 0.65209 0.83594 0.0
H1185 H 0.48709 0.58508 0.00173 0.0
H1186 H 0.44425 0.57204 0.99811 0.0
H1187 H 0.46189 0.55664 0.95893 0.0
H1188 H 0.34398 0.52794 0.96153 0.0
H1189 H 0.3864 0.49766 0.85781 0.0
H1190 H 0.40155 0.61424 0.95115 0.0
H1191 H 0.40885 0.59464 0.9974 0.0
H1192 H 0.36759 0.58334 0.98288 0.0
H1193 H 0.4516 0.57495 0.82944 0.0
H1194 H 0.43828 0.53194 0.82857 0.0
H1195 H 0.46562 0.55806 0.8717 0.0
C1196 C 0.83984 0.35795 0.10854 0.0
C1197 C 0.86193 0.35587 0.07896 0.0
C1198 C 0.8356 0.3854 0.10875 0.0
C1199 C 0.85449 0.4119 0.07956 0.0
C1200 C 0.87566 0.40936 0.04827 0.0
C1201 C 0.8787 0.38127 0.04788 0.0
C1202 C 0.81196 0.38661 0.14166 0.0
C1203 C 0.89649 0.43708 0.01671 0.0
C1204 C 0.83834 0.48189 0.05601 0.0
C1205 C 0.86127 0.50663 0.08418 0.0
C1206 C 0.8344 0.45031 0.05601 0.0
C1207 C 0.85439 0.44339 0.084 0.0
C1208 C 0.87637 0.46769 0.11405 0.0
C1209 C 0.87913 0.4987 0.11427 0.0
C1210 C 0.80991 0.42483 0.02451 0.0
C1211 C 0.89836 0.46156 0.14432 0.0
H1212 H 0.82685 0.33884 0.13307 0.0
H1213 H 0.89513 0.37972 0.02396 0.0
H1214 H 0.82572 0.404 0.16907 0.0
H1215 H 0.79689 0.39548 0.12496 0.0
H1216 H 0.7955 0.36232 0.15681 0.0
H1217 H 0.91086 0.43085 0.99331 0.0
H1218 H 0.88101 0.44384 0.9967 0.0
H1219 H 0.91369 0.45895 0.0364 0.0
H1220 H 0.82449 0.48749 0.03231 0.0
H1221 H 0.89626 0.51717 0.13711 0.0
H1222 H 0.79557 0.40108 0.04204 0.0
H1223 H 0.8229 0.42099 0.99627 0.0
H1224 H 0.79279 0.43218 0.01043 0.0
H1225 H 0.88368 0.43953 0.16516 0.0
H1226 H 0.91326 0.48255 0.16691 0.0
H1227 H 0.91509 0.45686 0.1236 0.0
C1228 C 0.49569 0.85192 0.21166 0.0
C1229 C 0.51094 0.8528 0.25232 0.0
C1230 C 0.46484 0.84958 0.21108 0.0
C1231 C 0.44954 0.84939 0.25215 0.0
C1232 C 0.46457 0.84937 0.29327 0.0
C1233 C 0.4949 0.85066 0.2928 0.0
C1234 C 0.44928 0.84872 0.16652 0.0
C1235 C 0.44976 0.85023 0.33779 0.0
C1236 C 0.39584 0.88802 0.24847 0.0
C1237 C 0.36408 0.86085 0.25129 0.0
C1238 C 0.42359 0.88454 0.24977 0.0
C1239 C 0.41988 0.85298 0.25215 0.0
C1240 C 0.38811 0.82533 0.25451 0.0
C1241 C 0.36067 0.82959 0.25473 0.0
C1242 C 0.45699 0.91482 0.24814 0.0
C1243 C 0.38312 0.79121 0.25606 0.0
H1244 H 0.50821 0.85369 0.1804 0.0
H1245 H 0.50699 0.85185 0.32425 0.0
H1246 H 0.4232 0.8293 0.16648 0.0
H1247 H 0.45018 0.87234 0.1608 0.0
H1248 H 0.46186 0.84435 0.13813 0.0
H1249 H 0.46304 0.84741 0.36662 0.0
H1250 H 0.45037 0.87391 0.34132 0.0
H1251 H 0.42382 0.83064 0.33946 0.0
H1252 H 0.39931 0.91228 0.24415 0.0
H1253 H 0.33655 0.80831 0.25742 0.0
H1254 H 0.46974 0.91493 0.21685 0.0
H1255 H 0.47205 0.91491 0.27675 0.0
H1256 H 0.45575 0.93766 0.24937 0.0
H1257 H 0.39461 0.78699 0.22625 0.0
H1258 H 0.35687 0.77218 0.25682 0.0
H1259 H 0.3952 0.78829 0.28616 0.0
C1260 C 0.53423 0.35681 0.42905 0.0
C1261 C 0.50837 0.35938 0.41043 0.0
C1262 C 0.56603 0.38414 0.43095 0.0
C1263 C 0.57209 0.41456 0.41337 0.0
C1264 C 0.54622 0.41689 0.39331 0.0
C1265 C 0.51482 0.3894 0.39214 0.0
C1266 C 0.59293 0.38069 0.45271 0.0
C1267 C 0.55152 0.44868 0.37378 0.0
C1268 C 0.63976 0.49606 0.45666 0.0
C1269 C 0.66232 0.50636 0.4214 0.0
C1270 C 0.61114 0.46544 0.45556 0.0
C1271 C 0.6048 0.44464 0.41807 0.0
C1272 C 0.62827 0.45448 0.38314 0.0
C1273 C 0.65684 0.48536 0.38519 0.0
C1274 C 0.5869 0.45608 0.4935 0.0
C1275 C 0.62249 0.43309 0.34262 0.0
H1276 H 0.52943 0.33367 0.44306 0.0
H1277 H 0.49515 0.39138 0.37664 0.0
H1278 H 0.61413 0.38956 0.42969 0.0
H1279 H 0.60151 0.39604 0.48338 0.0
H1280 H 0.58482 0.35501 0.46214 0.0
H1281 H 0.52919 0.44603 0.35753 0.0
H1282 H 0.55913 0.46733 0.40069 0.0
H1283 H 0.57143 0.45807 0.34855 0.0
H1284 H 0.64415 0.5125 0.48458 0.0
H1285 H 0.67434 0.49352 0.35791 0.0
H1286 H 0.57963 0.43124 0.50593 0.0
H1287 H 0.56449 0.45551 0.48115 0.0
H1288 H 0.59682 0.4735 0.52205 0.0
H1289 H 0.615 0.40779 0.35314 0.0
H1290 H 0.64453 0.44245 0.32105 0.0
H1291 H 0.60228 0.43191 0.32229 0.0
C1292 C 0.18775 0.65987 0.60445 0.0
C1293 C 0.16547 0.66185 0.57522 0.0
C1294 C 0.19174 0.63226 0.60477 0.0
C1295 C 0.1725 0.60561 0.57593 0.0
C1296 C 0.15132 0.60819 0.54473 0.0
C1297 C 0.14844 0.63637 0.54432 0.0
C1298 C 0.21537 0.63099 0.6376 0.0
C1299 C 0.13018 0.58036 0.51345 0.0
C1300 C 0.18725 0.5346 0.55332 0.0
C1301 C 0.16408 0.51022 0.58165 0.0
C1302 C 0.19172 0.56639 0.55295 0.0
C1303 C 0.1721 0.5739 0.58081 0.0
C1304 C 0.14989 0.54996 0.61103 0.0
C1305 C 0.14651 0.51869 0.61152 0.0
C1306 C 0.21637 0.59143 0.52116 0.0
C1307 C 0.12832 0.55676 0.64123 0.0
H1308 H 0.20095 0.67911 0.62877 0.0
H1309 H 0.13182 0.63787 0.52073 0.0
H1310 H 0.2016 0.61396 0.66532 0.0
H1311 H 0.23008 0.62164 0.62099 0.0
H1312 H 0.23217 0.65536 0.65231 0.0
H1313 H 0.11611 0.58676 0.48978 0.0
H1314 H 0.14538 0.57305 0.49374 0.0
H1315 H 0.1127 0.55879 0.53337 0.0
H1316 H 0.20087 0.52854 0.52976 0.0
H1317 H 0.12917 0.50045 0.63441 0.0
H1318 H 0.23102 0.61527 0.53839 0.0
H1319 H 0.20348 0.59531 0.49284 0.0
H1320 H 0.23318 0.58363 0.50722 0.0
H1321 H 0.14333 0.5789 0.66174 0.0
H1322 H 0.1133 0.53604 0.66414 0.0
H1323 H 0.1117 0.56158 0.62047 0.0
C1324 C 0.65156 0.16189 0.78712 0.0
C1325 C 0.66694 0.16404 0.74604 0.0
C1326 C 0.62305 0.16419 0.7891 0.0
C1327 C 0.60895 0.16752 0.74886 0.0
C1328 C 0.62505 0.17072 0.70747 0.0
C1329 C 0.65405 0.16934 0.70666 0.0
C1330 C 0.60724 0.16159 0.83408 0.0
C1331 C 0.6105 0.17332 0.66364 0.0
C1332 C 0.51652 0.12861 0.74963 0.0
C1333 C 0.51187 0.15578 0.75144 0.0
C1334 C 0.54781 0.13226 0.74773 0.0
C1335 C 0.57565 0.16386 0.74949 0.0
C1336 C 0.57147 0.19148 0.75193 0.0
C1337 C 0.53973 0.18716 0.7522 0.0
C1338 C 0.551 0.10207 0.74422 0.0
C1339 C 0.60053 0.22556 0.75493 0.0
H1340 H 0.66151 0.15774 0.81757 0.0
H1341 H 0.66567 0.1705 0.67478 0.0
H1342 H 0.60049 0.18086 0.83751 0.0
H1343 H 0.58444 0.13763 0.83673 0.0
H1344 H 0.62349 0.16381 0.8624 0.0
H1345 H 0.62738 0.17852 0.6349 0.0
H1346 H 0.58763 0.15 0.65696 0.0
H1347 H 0.60404 0.19283 0.66549 0.0
H1348 H 0.49568 0.10412 0.75065 0.0
H1349 H 0.53688 0.2085 0.75313 0.0
H1350 H 0.56294 0.0996 0.7748 0.0
H1351 H 0.56667 0.10424 0.71518 0.0
H1352 H 0.527 0.07942 0.74017 0.0
H1353 H 0.61556 0.22747 0.78462 0.0
H1354 H 0.59324 0.24448 0.75767 0.0
H1355 H 0.61624 0.23085 0.72489 0.0
loop_
_geom_bond_atom_site_label_1
_geom_bond_atom_site_label_2
_geom_bond_distance
_geom_bond_site_symmetry_2
_ccdc_geom_bond_type
Co0 N4 2.148 1_554 S
Co0 N10 2.128 . S
Co0 N20 2.194 1_554 S
Co0 O25 2.351 . S
Co0 O26 2.155 . S
Co0 O27 2.096 . S
C1 N4 1.301 . S
C1 N5 1.328 . S
C1 H6 0.930 . S
C2 C3 1.333 . S
C2 N4 1.317 . S
C2 H7 0.930 . S
C3 C2 1.333 . S
C3 N5 1.350 . S
C3 H29 0.931 . S
N4 Co0 2.148 1_556 S
N4 C1 1.301 . S
N4 C2 1.317 . S
N5 C1 1.328 . S
N5 C3 1.350 . S
H6 C1 0.930 . S
H7 C2 0.930 . S
C8 O9 1.224 . S
C8 O27 1.247 1_556 S
O9 C8 1.224 . S
N10 Co0 2.128 . S
N10 C11 1.355 . S
N10 C13 1.311 . S
C11 N10 1.355 . S
C11 C12 1.363 . S
C11 H23 0.929 . S
C12 C11 1.363 . S
C12 N14 1.375 . S
C12 H30 0.931 . S
C13 N10 1.311 . S
C13 N14 1.347 . S
C13 H24 0.929 . S
N14 C12 1.375 . S
N14 C13 1.347 . S
C15 C18 1.365 . S
C15 N20 1.328 . S
C15 H21 0.929 . S
C16 C17 1.362 . S
C16 C19 1.378 . S
C16 H31 0.929 . S
C17 C16 1.362 . S
C17 C18 1.366 . S
C18 C15 1.365 . S
C18 C17 1.366 . S
C18 H32 0.930 . S
C19 C16 1.378 . S
C19 N20 1.315 . S
C19 H22 0.930 . S
N20 Co0 2.194 1_556 S
N20 C15 1.328 . S
N20 C19 1.315 . S
H21 C15 0.929 . S
H22 C19 0.930 . S
H23 C11 0.929 . S
H24 C13 0.929 . S
O25 Co0 2.351 . S
O25 C28 1.244 . S
O26 Co0 2.155 . S
O26 C28 1.240 . S
O27 Co0 2.096 . S
O27 C8 1.247 1_554 S
C28 O25 1.244 . S
C28 O26 1.240 . S
H29 C3 0.931 . S
H30 C12 0.931 . S
H31 C16 0.929 . S
H32 C18 0.930 . S
Co33 N37 2.148 . S
Co33 N43 2.128 . S
Co33 N53 2.194 . S
Co33 O58 2.351 . S
Co33 O59 2.155 . S
Co33 O60 2.096 . S
C34 N37 1.301 . S
C34 N38 1.328 . S
C34 H39 0.930 . S
C35 C36 1.333 . S
C35 N37 1.317 . S
C35 H40 0.930 . S
C36 C35 1.333 . S
C36 N38 1.350 . S
C36 H62 0.931 . S
N37 Co33 2.148 . S
N37 C34 1.301 . S
N37 C35 1.317 . S
N38 C34 1.328 . S
N38 C36 1.350 . S
H39 C34 0.930 . S
H40 C35 0.930 . S
C41 O42 1.224 . S
C41 O60 1.247 . S
O42 C41 1.224 . S
N43 Co33 2.128 . S
N43 C44 1.355 . S
N43 C46 1.311 . S
C44 N43 1.355 . S
C44 C45 1.363 . S
C44 H56 0.929 . S
C45 C44 1.363 . S
C45 N47 1.375 . S
C45 H63 0.931 . S
C46 N43 1.311 . S
C46 N47 1.347 . S
C46 H57 0.929 . S
N47 C45 1.375 . S
N47 C46 1.347 . S
C48 C51 1.365 . S
C48 N53 1.328 . S
C48 H54 0.929 . S
C49 C50 1.362 . S
C49 C52 1.378 . S
C49 H64 0.929 . S
C50 C49 1.362 . S
C50 C51 1.366 . S
C51 C48 1.365 . S
C51 C50 1.366 . S
C51 H65 0.930 . S
C52 C49 1.378 . S
C52 N53 1.315 . S
C52 H55 0.930 . S
N53 Co33 2.194 . S
N53 C48 1.328 . S
N53 C52 1.315 . S
H54 C48 0.929 . S
H55 C52 0.930 . S
H56 C44 0.929 . S
H57 C46 0.929 . S
O58 Co33 2.351 . S
O58 C61 1.244 . S
O59 Co33 2.155 . S
O59 C61 1.240 . S
O60 Co33 2.096 . S
O60 C41 1.247 . S
C61 O58 1.244 . S
C61 O59 1.240 . S
H62 C36 0.931 . S
H63 C45 0.931 . S
H64 C49 0.929 . S
H65 C51 0.930 . S
Co66 N70 2.148 . S
Co66 N76 2.128 . S
Co66 N86 2.194 . S
Co66 O91 2.351 . S
Co66 O92 2.155 . S
Co66 O93 2.096 . S
C67 N70 1.301 . S
C67 N71 1.328 . S
C67 H72 0.930 . S
C68 C69 1.333 . S
C68 N70 1.317 . S
C68 H73 0.930 . S
C69 C68 1.333 . S
C69 N71 1.350 . S
C69 H95 0.931 . S
N70 Co66 2.148 . S
N70 C67 1.301 . S
N70 C68 1.317 . S
N71 C67 1.328 . S
N71 C69 1.350 . S
H72 C67 0.930 . S
H73 C68 0.930 . S
C74 O75 1.224 . S
C74 O93 1.247 . S
O75 C74 1.224 . S
N76 Co66 2.128 . S
N76 C77 1.355 . S
N76 C79 1.311 . S
C77 N76 1.355 . S
C77 C78 1.363 . S
C77 H89 0.929 . S
C78 C77 1.363 . S
C78 N80 1.375 . S
C78 H96 0.931 . S
C79 N76 1.311 . S
C79 N80 1.347 . S
C79 H90 0.929 . S
N80 C78 1.375 . S
N80 C79 1.347 . S
C81 C84 1.365 . S
C81 N86 1.328 . S
C81 H87 0.929 . S
C82 C83 1.362 . S
C82 C85 1.378 . S
C82 H97 0.929 . S
C83 C82 1.362 . S
C83 C84 1.366 . S
C84 C81 1.365 . S
C84 C83 1.366 . S
C84 H98 0.930 . S
C85 C82 1.378 . S
C85 N86 1.315 . S
C85 H88 0.930 . S
N86 Co66 2.194 . S
N86 C81 1.328 . S
N86 C85 1.315 . S
H87 C81 0.929 . S
H88 C85 0.930 . S
H89 C77 0.929 . S
H90 C79 0.929 . S
O91 Co66 2.351 . S
O91 C94 1.244 . S
O92 Co66 2.155 . S
O92 C94 1.240 . S
O93 Co66 2.096 . S
O93 C74 1.247 . S
C94 O91 1.244 . S
C94 O92 1.240 . S
H95 C69 0.931 . S
H96 C78 0.931 . S
H97 C82 0.929 . S
H98 C84 0.930 . S
Co99 N103 2.148 . S
Co99 N109 2.128 . S
Co99 N119 2.194 . S
Co99 O124 2.351 . S
Co99 O125 2.155 . S
Co99 O126 2.096 . S
C100 N103 1.301 . S
C100 N104 1.328 . S
C100 H105 0.930 . S
C101 C102 1.333 . S
C101 N103 1.317 . S
C101 H106 0.930 . S
C102 C101 1.333 . S
C102 N104 1.350 . S
C102 H128 0.931 . S
N103 Co99 2.148 . S
N103 C100 1.301 . S
N103 C101 1.317 . S
N104 C100 1.328 . S
N104 C102 1.350 . S
H105 C100 0.930 . S
H106 C101 0.930 . S
C107 O108 1.224 . S
C107 O126 1.247 . S
O108 C107 1.224 . S
N109 Co99 2.128 . S
N109 C110 1.355 . S
N109 C112 1.311 . S
C110 N109 1.355 . S
C110 C111 1.363 . S
C110 H122 0.929 . S
C111 C110 1.363 . S
C111 N113 1.375 . S
C111 H129 0.931 . S
C112 N109 1.311 . S
C112 N113 1.347 . S
C112 H123 0.929 . S
N113 C111 1.375 . S
N113 C112 1.347 . S
C114 C117 1.365 . S
C114 N119 1.328 . S
C114 H120 0.929 . S
C115 C116 1.362 . S
C115 C118 1.378 . S
C115 H130 0.929 . S
C116 C115 1.362 . S
C116 C117 1.366 . S
C117 C114 1.365 . S
C117 C116 1.366 . S
C117 H131 0.930 . S
C118 C115 1.378 . S
C118 N119 1.315 . S
C118 H121 0.930 . S
N119 Co99 2.194 . S
N119 C114 1.328 . S
N119 C118 1.315 . S
H120 C114 0.929 . S
H121 C118 0.930 . S
H122 C110 0.929 . S
H123 C112 0.929 . S
O124 Co99 2.351 . S
O124 C127 1.244 . S
O125 Co99 2.155 . S
O125 C127 1.240 . S
O126 Co99 2.096 . S
O126 C107 1.247 . S
C127 O124 1.244 . S
C127 O125 1.240 . S
H128 C102 0.931 . S
H129 C111 0.931 . S
H130 C115 0.929 . S
H131 C117 0.930 . S
Co132 N136 2.148 . S
Co132 N142 2.128 . S
Co132 N152 2.194 . S
Co132 O157 2.351 . S
Co132 O158 2.155 . S
Co132 O159 2.096 . S
C133 N136 1.301 . S
C133 N137 1.328 . S
C133 H138 0.930 . S
C134 C135 1.333 . S
C134 N136 1.317 . S
C134 H139 0.930 . S
C135 C134 1.333 . S
C135 N137 1.350 . S
C135 H161 0.931 . S
N136 Co132 2.148 . S
N136 C133 1.301 . S
N136 C134 1.317 . S
N137 C133 1.328 . S
N137 C135 1.350 . S
H138 C133 0.930 . S
H139 C134 0.930 . S
C140 O141 1.224 . S
C140 O159 1.247 . S
O141 C140 1.224 . S
N142 Co132 2.128 . S
N142 C143 1.355 . S
N142 C145 1.311 . S
C143 N142 1.355 . S
C143 C144 1.363 . S
C143 H155 0.929 . S
C144 C143 1.363 . S
C144 N146 1.375 . S
C144 H162 0.931 . S
C145 N142 1.311 . S
C145 N146 1.347 . S
C145 H156 0.929 . S
N146 C144 1.375 . S
N146 C145 1.347 . S
C147 C150 1.365 . S
C147 N152 1.328 . S
C147 H153 0.929 . S
C148 C149 1.362 . S
C148 C151 1.378 . S
C148 H163 0.929 . S
C149 C148 1.362 . S
C149 C150 1.366 . S
C150 C147 1.365 . S
C150 C149 1.366 . S
C150 H164 0.930 . S
C151 C148 1.378 . S
C151 N152 1.315 . S
C151 H154 0.930 . S
N152 Co132 2.194 . S
N152 C147 1.328 . S
N152 C151 1.315 . S
H153 C147 0.929 . S
H154 C151 0.930 . S
H155 C143 0.929 . S
H156 C145 0.929 . S
O157 Co132 2.351 . S
O157 C160 1.244 . S
O158 Co132 2.155 . S
O158 C160 1.240 . S
O159 Co132 2.096 . S
O159 C140 1.247 . S
C160 O157 1.244 . S
C160 O158 1.240 . S
H161 C135 0.931 . S
H162 C144 0.931 . S
H163 C148 0.929 . S
H164 C150 0.930 . S
Co165 N169 2.148 . S
Co165 N175 2.128 . S
Co165 N185 2.194 . S
Co165 O190 2.351 . S
Co165 O191 2.155 . S
Co165 O192 2.096 . S
C166 N169 1.301 . S
C166 N170 1.328 . S
C166 H171 0.930 . S
C167 C168 1.333 . S
C167 N169 1.317 . S
C167 H172 0.930 . S
C168 C167 1.333 . S
C168 N170 1.350 . S
C168 H194 0.931 . S
N169 Co165 2.148 . S
N169 C166 1.301 . S
N169 C167 1.317 . S
N170 C166 1.328 . S
N170 C168 1.350 . S
H171 C166 0.930 . S
H172 C167 0.930 . S
C173 O174 1.224 . S
C173 O192 1.247 . S
O174 C173 1.224 . S
N175 Co165 2.128 . S
N175 C176 1.355 . S
N175 C178 1.311 . S
C176 N175 1.355 . S
C176 C177 1.363 . S
C176 H188 0.929 . S
C177 C176 1.363 . S
C177 N179 1.375 . S
C177 H195 0.931 . S
C178 N175 1.311 . S
C178 N179 1.347 . S
C178 H189 0.929 . S
N179 C177 1.375 . S
N179 C178 1.347 . S
C180 C183 1.365 . S
C180 N185 1.328 . S
C180 H186 0.929 . S
C181 C182 1.362 . S
C181 C184 1.378 . S
C181 H196 0.929 . S
C182 C181 1.362 . S
C182 C183 1.366 . S
C183 C180 1.365 . S
C183 C182 1.366 . S
C183 H197 0.930 . S
C184 C181 1.378 . S
C184 N185 1.315 . S
C184 H187 0.930 . S
N185 Co165 2.194 . S
N185 C180 1.328 . S
N185 C184 1.315 . S
H186 C180 0.929 . S
H187 C184 0.930 . S
H188 C176 0.929 . S
H189 C178 0.929 . S
O190 Co165 2.351 . S
O190 C193 1.244 . S
O191 Co165 2.155 . S
O191 C193 1.240 . S
O192 Co165 2.096 . S
O192 C173 1.247 . S
C193 O190 1.244 . S
C193 O191 1.240 . S
H194 C168 0.931 . S
H195 C177 0.931 . S
H196 C181 0.929 . S
H197 C183 0.930 . S
Co198 N202 2.148 . S
Co198 N208 2.128 . S
Co198 N218 2.194 . S
Co198 O223 2.351 . S
Co198 O224 2.155 . S
Co198 O225 2.096 . S
C199 N202 1.301 . S
C199 N203 1.328 . S
C199 H204 0.930 . S
C200 C201 1.333 . S
C200 N202 1.317 . S
C200 H205 0.930 . S
C201 C200 1.333 . S
C201 N203 1.350 . S
C201 H227 0.931 . S
N202 Co198 2.148 . S
N202 C199 1.301 . S
N202 C200 1.317 . S
N203 C199 1.328 . S
N203 C201 1.350 . S
H204 C199 0.930 . S
H205 C200 0.930 . S
C206 O207 1.224 . S
C206 O225 1.247 . S
O207 C206 1.224 . S
N208 Co198 2.128 . S
N208 C209 1.355 . S
N208 C211 1.311 . S
C209 N208 1.355 . S
C209 C210 1.363 . S
C209 H221 0.929 . S
C210 C209 1.363 . S
C210 N212 1.375 . S
C210 H228 0.931 . S
C211 N208 1.311 . S
C211 N212 1.347 . S
C211 H222 0.929 . S
N212 C210 1.375 . S
N212 C211 1.347 . S
C213 C216 1.365 . S
C213 N218 1.328 . S
C213 H219 0.929 . S
C214 C215 1.362 . S
C214 C217 1.378 . S
C214 H229 0.929 . S
C215 C214 1.362 . S
C215 C216 1.366 . S
C216 C213 1.365 . S
C216 C215 1.366 . S
C216 H230 0.930 . S
C217 C214 1.378 . S
C217 N218 1.315 . S
C217 H220 0.930 . S
N218 Co198 2.194 . S
N218 C213 1.328 . S
N218 C217 1.315 . S
H219 C213 0.929 . S
H220 C217 0.930 . S
H221 C209 0.929 . S
H222 C211 0.929 . S
O223 Co198 2.351 . S
O223 C226 1.244 . S
O224 Co198 2.155 . S
O224 C226 1.240 . S
O225 Co198 2.096 . S
O225 C206 1.247 . S
C226 O223 1.244 . S
C226 O224 1.240 . S
H227 C201 0.931 . S
H228 C210 0.931 . S
H229 C214 0.929 . S
H230 C216 0.930 . S
Co231 N235 2.148 1_556 S
Co231 N241 2.128 . S
Co231 N251 2.194 1_556 S
Co231 O256 2.351 . S
Co231 O257 2.155 . S
Co231 O258 2.096 . S
C232 N235 1.301 . S
C232 N236 1.328 . S
C232 H237 0.930 . S
C233 C234 1.333 . S
C233 N235 1.317 . S
C233 H238 0.930 . S
C234 C233 1.333 . S
C234 N236 1.350 . S
C234 H260 0.931 . S
N235 Co231 2.148 1_554 S
N235 C232 1.301 . S
N235 C233 1.317 . S
N236 C232 1.328 . S
N236 C234 1.350 . S
H237 C232 0.930 . S
H238 C233 0.930 . S
C239 O240 1.224 . S
C239 O258 1.247 1_554 S
O240 C239 1.224 . S
N241 Co231 2.128 . S
N241 C242 1.355 . S
N241 C244 1.311 . S
C242 N241 1.355 . S
C242 C243 1.363 . S
C242 H254 0.929 . S
C243 C242 1.363 . S
C243 N245 1.375 . S
C243 H261 0.931 . S
C244 N241 1.311 . S
C244 N245 1.347 . S
C244 H255 0.929 . S
N245 C243 1.375 . S
N245 C244 1.347 . S
C246 C249 1.365 . S
C246 N251 1.328 . S
C246 H252 0.929 . S
C247 C248 1.362 . S
C247 C250 1.378 . S
C247 H262 0.929 . S
C248 C247 1.362 . S
C248 C249 1.366 . S
C249 C246 1.365 . S
C249 C248 1.366 . S
C249 H263 0.930 . S
C250 C247 1.378 . S
C250 N251 1.315 . S
C250 H253 0.930 . S
N251 Co231 2.194 1_554 S
N251 C246 1.328 . S
N251 C250 1.315 . S
H252 C246 0.929 . S
H253 C250 0.930 . S
H254 C242 0.929 . S
H255 C244 0.929 . S
O256 Co231 2.351 . S
O256 C259 1.244 . S
O257 Co231 2.155 . S
O257 C259 1.240 . S
O258 Co231 2.096 . S
O258 C239 1.247 1_556 S
C259 O256 1.244 . S
C259 O257 1.240 . S
H260 C234 0.931 . S
H261 C243 0.931 . S
H262 C247 0.929 . S
H263 C249 0.930 . S
Co264 N268 2.148 . S
Co264 N274 2.128 . S
Co264 N284 2.194 . S
Co264 O289 2.351 . S
Co264 O290 2.155 . S
Co264 O291 2.096 . S
C265 N268 1.301 . S
C265 N269 1.328 . S
C265 H270 0.930 . S
C266 C267 1.333 . S
C266 N268 1.317 . S
C266 H271 0.930 . S
C267 C266 1.333 . S
C267 N269 1.350 . S
C267 H293 0.931 . S
N268 Co264 2.148 . S
N268 C265 1.301 . S
N268 C266 1.317 . S
N269 C265 1.328 . S
N269 C267 1.350 . S
H270 C265 0.930 . S
H271 C266 0.930 . S
C272 O273 1.224 . S
C272 O291 1.247 . S
O273 C272 1.224 . S
N274 Co264 2.128 . S
N274 C275 1.355 . S
N274 C277 1.311 . S
C275 N274 1.355 . S
C275 C276 1.363 . S
C275 H287 0.929 . S
C276 C275 1.363 . S
C276 N278 1.375 . S
C276 H294 0.931 . S
C277 N274 1.311 . S
C277 N278 1.347 . S
C277 H288 0.929 . S
N278 C276 1.375 . S
N278 C277 1.347 . S
C279 C282 1.365 . S
C279 N284 1.328 . S
C279 H285 0.929 . S
C280 C281 1.362 . S
C280 C283 1.378 . S
C280 H295 0.929 . S
C281 C280 1.362 . S
C281 C282 1.366 . S
C282 C279 1.365 . S
C282 C281 1.366 . S
C282 H296 0.930 . S
C283 C280 1.378 . S
C283 N284 1.315 . S
C283 H286 0.930 . S
N284 Co264 2.194 . S
N284 C279 1.328 . S
N284 C283 1.315 . S
H285 C279 0.929 . S
H286 C283 0.930 . S
H287 C275 0.929 . S
H288 C277 0.929 . S
O289 Co264 2.351 . S
O289 C292 1.244 . S
O290 Co264 2.155 . S
O290 C292 1.240 . S
O291 Co264 2.096 . S
O291 C272 1.247 . S
C292 O289 1.244 . S
C292 O290 1.240 . S
H293 C267 0.931 . S
H294 C276 0.931 . S
H295 C280 0.929 . S
H296 C282 0.930 . S
Co297 N301 2.148 . S
Co297 N307 2.128 . S
Co297 N317 2.194 . S
Co297 O322 2.351 . S
Co297 O323 2.155 . S
Co297 O324 2.096 . S
C298 N301 1.301 . S
C298 N302 1.328 . S
C298 H303 0.930 . S
C299 C300 1.333 . S
C299 N301 1.317 . S
C299 H304 0.930 . S
C300 C299 1.333 . S
C300 N302 1.350 . S
C300 H326 0.931 . S
N301 Co297 2.148 . S
N301 C298 1.301 . S
N301 C299 1.317 . S
N302 C298 1.328 . S
N302 C300 1.350 . S
H303 C298 0.930 . S
H304 C299 0.930 . S
C305 O306 1.224 . S
C305 O324 1.247 . S
O306 C305 1.224 . S
N307 Co297 2.128 . S
N307 C308 1.355 . S
N307 C310 1.311 . S
C308 N307 1.355 . S
C308 C309 1.363 . S
C308 H320 0.929 . S
C309 C308 1.363 . S
C309 N311 1.375 . S
C309 H327 0.931 . S
C310 N307 1.311 . S
C310 N311 1.347 . S
C310 H321 0.929 . S
N311 C309 1.375 . S
N311 C310 1.347 . S
C312 C315 1.365 . S
C312 N317 1.328 . S
C312 H318 0.929 . S
C313 C314 1.362 . S
C313 C316 1.378 . S
C313 H328 0.929 . S
C314 C313 1.362 . S
C314 C315 1.366 . S
C315 C312 1.365 . S
C315 C314 1.366 . S
C315 H329 0.930 . S
C316 C313 1.378 . S
C316 N317 1.315 . S
C316 H319 0.930 . S
N317 Co297 2.194 . S
N317 C312 1.328 . S
N317 C316 1.315 . S
H318 C312 0.929 . S
H319 C316 0.930 . S
H320 C308 0.929 . S
H321 C310 0.929 . S
O322 Co297 2.351 . S
O322 C325 1.244 . S
O323 Co297 2.155 . S
O323 C325 1.240 . S
O324 Co297 2.096 . S
O324 C305 1.247 . S
C325 O322 1.244 . S
C325 O323 1.240 . S
H326 C300 0.931 . S
H327 C309 0.931 . S
H328 C313 0.929 . S
H329 C315 0.930 . S
Co330 N334 2.148 . S
Co330 N340 2.128 . S
Co330 N350 2.194 . S
Co330 O355 2.351 . S
Co330 O356 2.155 . S
Co330 O357 2.096 . S
C331 N334 1.301 . S
C331 N335 1.328 . S
C331 H336 0.930 . S
C332 C333 1.333 . S
C332 N334 1.317 . S
C332 H337 0.930 . S
C333 C332 1.333 . S
C333 N335 1.350 . S
C333 H359 0.931 . S
N334 Co330 2.148 . S
N334 C331 1.301 . S
N334 C332 1.317 . S
N335 C331 1.328 . S
N335 C333 1.350 . S
H336 C331 0.930 . S
H337 C332 0.930 . S
C338 O339 1.224 . S
C338 O357 1.247 . S
O339 C338 1.224 . S
N340 Co330 2.128 . S
N340 C341 1.355 . S
N340 C343 1.311 . S
C341 N340 1.355 . S
C341 C342 1.363 . S
C341 H353 0.929 . S
C342 C341 1.363 . S
C342 N344 1.375 . S
C342 H360 0.931 . S
C343 N340 1.311 . S
C343 N344 1.347 . S
C343 H354 0.929 . S
N344 C342 1.375 . S
N344 C343 1.347 . S
C345 C348 1.365 . S
C345 N350 1.328 . S
C345 H351 0.929 . S
C346 C347 1.362 . S
C346 C349 1.378 . S
C346 H361 0.929 . S
C347 C346 1.362 . S
C347 C348 1.366 . S
C348 C345 1.365 . S
C348 C347 1.366 . S
C348 H362 0.930 . S
C349 C346 1.378 . S
C349 N350 1.315 . S
C349 H352 0.930 . S
N350 Co330 2.194 . S
N350 C345 1.328 . S
N350 C349 1.315 . S
H351 C345 0.929 . S
H352 C349 0.930 . S
H353 C341 0.929 . S
H354 C343 0.929 . S
O355 Co330 2.351 . S
O355 C358 1.244 . S
O356 Co330 2.155 . S
O356 C358 1.240 . S
O357 Co330 2.096 . S
O357 C338 1.247 . S
C358 O355 1.244 . S
C358 O356 1.240 . S
H359 C333 0.931 . S
H360 C342 0.931 . S
H361 C346 0.929 . S
H362 C348 0.930 . S
Co363 N367 2.148 . S
Co363 N373 2.128 . S
Co363 N383 2.194 . S
Co363 O388 2.351 . S
Co363 O389 2.155 . S
Co363 O390 2.096 . S
C364 N367 1.301 . S
C364 N368 1.328 . S
C364 H369 0.930 . S
C365 C366 1.333 . S
C365 N367 1.317 . S
C365 H370 0.930 . S
C366 C365 1.333 . S
C366 N368 1.350 . S
C366 H392 0.931 . S
N367 Co363 2.148 . S
N367 C364 1.301 . S
N367 C365 1.317 . S
N368 C364 1.328 . S
N368 C366 1.350 . S
H369 C364 0.930 . S
H370 C365 0.930 . S
C371 O372 1.224 . S
C371 O390 1.247 . S
O372 C371 1.224 . S
N373 Co363 2.128 . S
N373 C374 1.355 . S
N373 C376 1.311 . S
C374 N373 1.355 . S
C374 C375 1.363 . S
C374 H386 0.929 . S
C375 C374 1.363 . S
C375 N377 1.375 . S
C375 H393 0.931 . S
C376 N373 1.311 . S
C376 N377 1.347 . S
C376 H387 0.929 . S
N377 C375 1.375 . S
N377 C376 1.347 . S
C378 C381 1.365 . S
C378 N383 1.328 . S
C378 H384 0.929 . S
C379 C380 1.362 . S
C379 C382 1.378 . S
C379 H394 0.929 . S
C380 C379 1.362 . S
C380 C381 1.366 . S
C381 C378 1.365 . S
C381 C380 1.366 . S
C381 H395 0.930 . S
C382 C379 1.378 . S
C382 N383 1.315 . S
C382 H385 0.930 . S
N383 Co363 2.194 . S
N383 C378 1.328 . S
N383 C382 1.315 . S
H384 C378 0.929 . S
H385 C382 0.930 . S
H386 C374 0.929 . S
H387 C376 0.929 . S
O388 Co363 2.351 . S
O388 C391 1.244 . S
O389 Co363 2.155 . S
O389 C391 1.240 . S
O390 Co363 2.096 . S
O390 C371 1.247 . S
C391 O388 1.244 . S
C391 O389 1.240 . S
H392 C366 0.931 . S
H393 C375 0.931 . S
H394 C379 0.929 . S
H395 C381 0.930 . S
C396 C397 1.391 . S
C396 C398 1.394 . S
C396 H412 0.931 . S
C397 C396 1.391 . S
C397 C401 1.376 . S
C398 C396 1.394 . S
C398 C399 1.369 . S
C398 C402 1.531 . S
C399 C398 1.369 . S
C399 C400 1.410 . S
C399 C407 1.503 . S
C400 C399 1.410 . S
C400 C401 1.392 . S
C400 C403 1.511 . S
C401 C397 1.376 . S
C401 C400 1.392 . S
C401 H413 0.929 . S
C402 C398 1.531 . S
C402 H414 0.960 . S
C402 H415 0.962 . S
C402 H416 0.960 . S
C403 C400 1.511 . S
C403 H417 0.961 . S
C403 H418 0.961 . S
C403 H419 0.961 . S
C404 C405 1.370 . S
C404 C406 1.363 . S
C404 H420 0.931 . S
C405 C404 1.370 . S
C405 C409 1.408 . S
C406 C404 1.363 . S
C406 C407 1.370 . S
C406 C410 1.524 . S
C407 C399 1.503 . S
C407 C406 1.370 . S
C407 C408 1.403 . S
C408 C407 1.403 . S
C408 C409 1.404 . S
C408 C411 1.539 . S
C409 C405 1.408 . S
C409 C408 1.404 . S
C409 H421 0.930 . S
C410 C406 1.524 . S
C410 H422 0.956 . S
C410 H423 0.961 . S
C410 H424 0.961 . S
C411 C408 1.539 . S
C411 H425 0.958 . S
C411 H426 0.961 . S
C411 H427 0.960 . S
H412 C396 0.931 . S
H413 C401 0.929 . S
H414 C402 0.960 . S
H415 C402 0.962 . S
H416 C402 0.960 . S
H417 C403 0.961 . S
H418 C403 0.961 . S
H419 C403 0.961 . S
H420 C404 0.931 . S
H421 C409 0.930 . S
H422 C410 0.956 . S
H423 C410 0.961 . S
H424 C410 0.961 . S
H425 C411 0.958 . S
H426 C411 0.961 . S
H427 C411 0.960 . S
C428 C429 1.391 . S
C428 C430 1.394 . S
C428 H444 0.931 . S
C429 C428 1.391 . S
C429 C433 1.376 . S
C430 C428 1.394 . S
C430 C431 1.369 . S
C430 C434 1.531 . S
C431 C430 1.369 . S
C431 C432 1.410 . S
C431 C439 1.503 . S
C432 C431 1.410 . S
C432 C433 1.392 . S
C432 C435 1.511 . S
C433 C429 1.376 . S
C433 C432 1.392 . S
C433 H445 0.929 . S
C434 C430 1.531 . S
C434 H446 0.960 . S
C434 H447 0.962 . S
C434 H448 0.960 . S
C435 C432 1.511 . S
C435 H449 0.961 . S
C435 H450 0.961 . S
C435 H451 0.961 . S
C436 C437 1.370 . S
C436 C438 1.363 . S
C436 H452 0.931 . S
C437 C436 1.370 . S
C437 C441 1.408 . S
C438 C436 1.363 . S
C438 C439 1.370 . S
C438 C442 1.524 . S
C439 C431 1.503 . S
C439 C438 1.370 . S
C439 C440 1.403 . S
C440 C439 1.403 . S
C440 C441 1.404 . S
C440 C443 1.539 . S
C441 C437 1.408 . S
C441 C440 1.404 . S
C441 H453 0.930 . S
C442 C438 1.524 . S
C442 H454 0.956 . S
C442 H455 0.961 . S
C442 H456 0.961 . S
C443 C440 1.539 . S
C443 H457 0.958 . S
C443 H458 0.961 . S
C443 H459 0.960 . S
H444 C428 0.931 . S
H445 C433 0.929 . S
H446 C434 0.960 . S
H447 C434 0.962 . S
H448 C434 0.960 . S
H449 C435 0.961 . S
H450 C435 0.961 . S
H451 C435 0.961 . S
H452 C436 0.931 . S
H453 C441 0.930 . S
H454 C442 0.956 . S
H455 C442 0.961 . S
H456 C442 0.961 . S
H457 C443 0.958 . S
H458 C443 0.961 . S
H459 C443 0.960 . S
C460 C461 1.391 . S
C460 C462 1.394 . S
C460 H476 0.931 . S
C461 C460 1.391 . S
C461 C465 1.376 . S
C462 C460 1.394 . S
C462 C463 1.369 . S
C462 C466 1.531 . S
C463 C462 1.369 . S
C463 C464 1.410 . S
C463 C471 1.503 . S
C464 C463 1.410 . S
C464 C465 1.392 . S
C464 C467 1.511 . S
C465 C461 1.376 . S
C465 C464 1.392 . S
C465 H477 0.929 . S
C466 C462 1.531 . S
C466 H478 0.960 . S
C466 H479 0.962 . S
C466 H480 0.960 . S
C467 C464 1.511 . S
C467 H481 0.961 . S
C467 H482 0.961 . S
C467 H483 0.961 . S
C468 C469 1.370 . S
C468 C470 1.363 . S
C468 H484 0.931 . S
C469 C468 1.370 . S
C469 C473 1.408 . S
C470 C468 1.363 . S
C470 C471 1.370 . S
C470 C474 1.524 . S
C471 C463 1.503 . S
C471 C470 1.370 . S
C471 C472 1.403 . S
C472 C471 1.403 . S
C472 C473 1.404 . S
C472 C475 1.539 . S
C473 C469 1.408 . S
C473 C472 1.404 . S
C473 H485 0.930 . S
C474 C470 1.524 . S
C474 H486 0.956 . S
C474 H487 0.961 . S
C474 H488 0.961 . S
C475 C472 1.539 . S
C475 H489 0.958 . S
C475 H490 0.961 . S
C475 H491 0.960 . S
H476 C460 0.931 . S
H477 C465 0.929 . S
H478 C466 0.960 . S
H479 C466 0.962 . S
H480 C466 0.960 . S
H481 C467 0.961 . S
H482 C467 0.961 . S
H483 C467 0.961 . S
H484 C468 0.931 . S
H485 C473 0.930 . S
H486 C474 0.956 . S
H487 C474 0.961 . S
H488 C474 0.961 . S
H489 C475 0.958 . S
H490 C475 0.961 . S
H491 C475 0.960 . S
C492 C493 1.391 . S
C492 C494 1.394 . S
C492 H508 0.931 . S
C493 C492 1.391 . S
C493 C497 1.376 . S
C494 C492 1.394 . S
C494 C495 1.369 . S
C494 C498 1.531 . S
C495 C494 1.369 . S
C495 C496 1.410 . S
C495 C503 1.503 . S
C496 C495 1.410 . S
C496 C497 1.392 . S
C496 C499 1.511 . S
C497 C493 1.376 . S
C497 C496 1.392 . S
C497 H509 0.929 . S
C498 C494 1.531 . S
C498 H510 0.960 . S
C498 H511 0.962 . S
C498 H512 0.960 . S
C499 C496 1.511 . S
C499 H513 0.961 . S
C499 H514 0.961 . S
C499 H515 0.961 . S
C500 C501 1.370 . S
C500 C502 1.363 . S
C500 H516 0.931 . S
C501 C500 1.370 . S
C501 C505 1.408 . S
C502 C500 1.363 . S
C502 C503 1.370 . S
C502 C506 1.524 . S
C503 C495 1.503 . S
C503 C502 1.370 . S
C503 C504 1.403 . S
C504 C503 1.403 . S
C504 C505 1.404 . S
C504 C507 1.539 . S
C505 C501 1.408 . S
C505 C504 1.404 . S
C505 H517 0.930 . S
C506 C502 1.524 . S
C506 H518 0.956 . S
C506 H519 0.961 . S
C506 H520 0.961 . S
C507 C504 1.539 . S
C507 H521 0.958 . S
C507 H522 0.961 . S
C507 H523 0.960 . S
H508 C492 0.931 . S
H509 C497 0.929 . S
H510 C498 0.960 . S
H511 C498 0.962 . S
H512 C498 0.960 . S
H513 C499 0.961 . S
H514 C499 0.961 . S
H515 C499 0.961 . S
H516 C500 0.931 . S
H517 C505 0.930 . S
H518 C506 0.956 . S
H519 C506 0.961 . S
H520 C506 0.961 . S
H521 C507 0.958 . S
H522 C507 0.961 . S
H523 C507 0.960 . S
C524 C525 1.391 . S
C524 C526 1.394 . S
C524 H540 0.931 . S
C525 C524 1.391 . S
C525 C529 1.376 . S
C526 C524 1.394 . S
C526 C527 1.369 . S
C526 C530 1.531 . S
C527 C526 1.369 . S
C527 C528 1.410 . S
C527 C535 1.503 . S
C528 C527 1.410 . S
C528 C529 1.392 . S
C528 C531 1.511 . S
C529 C525 1.376 . S
C529 C528 1.392 . S
C529 H541 0.929 . S
C530 C526 1.531 . S
C530 H542 0.960 . S
C530 H543 0.962 . S
C530 H544 0.960 . S
C531 C528 1.511 . S
C531 H545 0.961 . S
C531 H546 0.961 . S
C531 H547 0.961 . S
C532 C533 1.370 . S
C532 C534 1.363 1_554 S
C532 H548 0.931 . S
C533 C532 1.370 . S
C533 C537 1.408 . S
C534 C532 1.363 1_556 S
C534 C535 1.370 . S
C534 C538 1.524 . S
C535 C527 1.503 . S
C535 C534 1.370 . S
C535 C536 1.403 . S
C536 C535 1.403 . S
C536 C537 1.404 1_556 S
C536 C539 1.539 . S
C537 C533 1.408 . S
C537 C536 1.404 1_554 S
C537 H549 0.930 . S
C538 C534 1.524 . S
C538 H550 0.956 . S
C538 H551 0.961 . S
C538 H552 0.961 . S
C539 C536 1.539 . S
C539 H553 0.958 . S
C539 H554 0.961 . S
C539 H555 0.960 . S
H540 C524 0.931 . S
H541 C529 0.929 . S
H542 C530 0.960 . S
H543 C530 0.962 . S
H544 C530 0.960 . S
H545 C531 0.961 . S
H546 C531 0.961 . S
H547 C531 0.961 . S
H548 C532 0.931 . S
H549 C537 0.930 . S
H550 C538 0.956 . S
H551 C538 0.961 . S
H552 C538 0.961 . S
H553 C539 0.958 . S
H554 C539 0.961 . S
H555 C539 0.960 . S
C556 C557 1.391 . S
C556 C558 1.394 1_556 S
C556 H572 0.931 . S
C557 C556 1.391 . S
C557 C561 1.376 . S
C558 C556 1.394 1_554 S
C558 C559 1.369 . S
C558 C562 1.531 . S
C559 C558 1.369 . S
C559 C560 1.410 . S
C559 C567 1.503 . S
C560 C559 1.410 . S
C560 C561 1.392 1_554 S
C560 C563 1.511 . S
C561 C557 1.376 . S
C561 C560 1.392 1_556 S
C561 H573 0.929 . S
C562 C558 1.531 . S
C562 H574 0.960 . S
C562 H575 0.962 . S
C562 H576 0.960 . S
C563 C560 1.511 . S
C563 H577 0.961 . S
C563 H578 0.961 . S
C563 H579 0.961 . S
C564 C565 1.370 . S
C564 C566 1.363 . S
C564 H580 0.931 . S
C565 C564 1.370 . S
C565 C569 1.408 . S
C566 C564 1.363 . S
C566 C567 1.370 . S
C566 C570 1.524 . S
C567 C559 1.503 . S
C567 C566 1.370 . S
C567 C568 1.403 . S
C568 C567 1.403 . S
C568 C569 1.404 . S
C568 C571 1.539 . S
C569 C565 1.408 . S
C569 C568 1.404 . S
C569 H581 0.930 . S
C570 C566 1.524 . S
C570 H582 0.956 . S
C570 H583 0.961 . S
C570 H584 0.961 . S
C571 C568 1.539 . S
C571 H585 0.958 . S
C571 H586 0.961 . S
C571 H587 0.960 . S
H572 C556 0.931 . S
H573 C561 0.929 . S
H574 C562 0.960 . S
H575 C562 0.962 . S
H576 C562 0.960 . S
H577 C563 0.961 . S
H578 C563 0.961 . S
H579 C563 0.961 . S
H580 C564 0.931 . S
H581 C569 0.930 . S
H582 C570 0.956 . S
H583 C570 0.961 . S
H584 C570 0.961 . S
H585 C571 0.958 . S
H586 C571 0.961 . S
H587 C571 0.960 . S
C588 C589 1.391 . S
C588 C590 1.394 . S
C588 H604 0.931 . S
C589 C588 1.391 . S
C589 C593 1.376 . S
C590 C588 1.394 . S
C590 C591 1.369 . S
C590 C594 1.531 . S
C591 C590 1.369 . S
C591 C592 1.410 . S
C591 C599 1.503 . S
C592 C591 1.410 . S
C592 C593 1.392 . S
C592 C595 1.511 . S
C593 C589 1.376 . S
C593 C592 1.392 . S
C593 H605 0.929 . S
C594 C590 1.531 . S
C594 H606 0.960 . S
C594 H607 0.962 . S
C594 H608 0.960 . S
C595 C592 1.511 . S
C595 H609 0.961 . S
C595 H610 0.961 . S
C595 H611 0.961 . S
C596 C597 1.370 . S
C596 C598 1.363 . S
C596 H612 0.931 . S
C597 C596 1.370 . S
C597 C601 1.408 . S
C598 C596 1.363 . S
C598 C599 1.370 . S
C598 C602 1.524 . S
C599 C591 1.503 . S
C599 C598 1.370 . S
C599 C600 1.403 . S
C600 C599 1.403 . S
C600 C601 1.404 . S
C600 C603 1.539 . S
C601 C597 1.408 . S
C601 C600 1.404 . S
C601 H613 0.930 . S
C602 C598 1.524 . S
C602 H614 0.956 . S
C602 H615 0.961 . S
C602 H616 0.961 . S
C603 C600 1.539 . S
C603 H617 0.958 . S
C603 H618 0.961 . S
C603 H619 0.960 . S
H604 C588 0.931 . S
H605 C593 0.929 . S
H606 C594 0.960 . S
H607 C594 0.962 . S
H608 C594 0.960 . S
H609 C595 0.961 . S
H610 C595 0.961 . S
H611 C595 0.961 . S
H612 C596 0.931 . S
H613 C601 0.930 . S
H614 C602 0.956 . S
H615 C602 0.961 . S
H616 C602 0.961 . S
H617 C603 0.958 . S
H618 C603 0.961 . S
H619 C603 0.960 . S
C620 C621 1.391 1_554 S
C620 C622 1.394 . S
C620 H636 0.931 . S
C621 C620 1.391 1_556 S
C621 C625 1.376 . S
C622 C620 1.394 . S
C622 C623 1.369 . S
C622 C626 1.531 . S
C623 C622 1.369 . S
C623 C624 1.410 1_554 S
C623 C631 1.503 . S
C624 C623 1.410 1_556 S
C624 C625 1.392 . S
C624 C627 1.511 . S
C625 C621 1.376 . S
C625 C624 1.392 . S
C625 H637 0.929 . S
C626 C622 1.531 . S
C626 H638 0.960 . S
C626 H639 0.962 . S
C626 H640 0.960 . S
C627 C624 1.511 . S
C627 H641 0.961 . S
C627 H642 0.961 . S
C627 H643 0.961 . S
C628 C629 1.370 1_455 S
C628 C630 1.363 . S
C628 H644 0.931 1_455 S
C629 C628 1.370 1_655 S
C629 C633 1.408 1_655 S
C630 C628 1.363 . S
C630 C631 1.370 . S
C630 C634 1.524 . S
C631 C623 1.503 . S
C631 C630 1.370 . S
C631 C632 1.403 . S
C632 C631 1.403 . S
C632 C633 1.404 . S
C632 C635 1.539 . S
C633 C629 1.408 1_455 S
C633 C632 1.404 . S
C633 H645 0.930 . S
C634 C630 1.524 . S
C634 H646 0.956 . S
C634 H647 0.961 . S
C634 H648 0.961 . S
C635 C632 1.539 . S
C635 H649 0.958 . S
C635 H650 0.961 1_554 S
C635 H651 0.960 1_554 S
H636 C620 0.931 . S
H637 C625 0.929 . S
H638 C626 0.960 . S
H639 C626 0.962 . S
H640 C626 0.960 . S
H641 C627 0.961 . S
H642 C627 0.961 . S
H643 C627 0.961 . S
H644 C628 0.931 1_655 S
H645 C633 0.930 . S
H646 C634 0.956 . S
H647 C634 0.961 . S
H648 C634 0.961 . S
H649 C635 0.958 . S
H650 C635 0.961 1_556 S
H651 C635 0.960 1_556 S
C652 C653 1.391 . S
C652 C654 1.394 . S
C652 H668 0.931 . S
C653 C652 1.391 . S
C653 C657 1.376 . S
C654 C652 1.394 . S
C654 C655 1.369 . S
C654 C658 1.531 . S
C655 C654 1.369 . S
C655 C656 1.410 . S
C655 C663 1.503 . S
C656 C655 1.410 . S
C656 C657 1.392 . S
C656 C659 1.511 . S
C657 C653 1.376 . S
C657 C656 1.392 . S
C657 H669 0.929 . S
C658 C654 1.531 . S
C658 H670 0.960 . S
C658 H671 0.962 . S
C658 H672 0.960 . S
C659 C656 1.511 . S
C659 H673 0.961 . S
C659 H674 0.961 . S
C659 H675 0.961 . S
C660 C661 1.370 1_545 S
C660 C662 1.363 . S
C660 H676 0.931 . S
C661 C660 1.370 1_565 S
C661 C665 1.408 . S
C662 C660 1.363 . S
C662 C663 1.370 . S
C662 C666 1.524 . S
C663 C655 1.503 . S
C663 C662 1.370 . S
C663 C664 1.403 . S
C664 C663 1.403 . S
C664 C665 1.404 1_545 S
C664 C667 1.539 . S
C665 C661 1.408 . S
C665 C664 1.404 1_565 S
C665 H677 0.930 . S
C666 C662 1.524 . S
C666 H678 0.956 . S
C666 H679 0.961 . S
C666 H680 0.961 . S
C667 C664 1.539 . S
C667 H681 0.958 . S
C667 H682 0.961 . S
C667 H683 0.960 . S
H668 C652 0.931 . S
H669 C657 0.929 . S
H670 C658 0.960 . S
H671 C658 0.962 . S
H672 C658 0.960 . S
H673 C659 0.961 . S
H674 C659 0.961 . S
H675 C659 0.961 . S
H676 C660 0.931 . S
H677 C665 0.930 . S
H678 C666 0.956 . S
H679 C666 0.961 . S
H680 C666 0.961 . S
H681 C667 0.958 . S
H682 C667 0.961 . S
H683 C667 0.960 . S
C684 C685 1.391 . S
C684 C686 1.394 . S
C684 H700 0.931 . S
C685 C684 1.391 . S
C685 C689 1.376 . S
C686 C684 1.394 . S
C686 C687 1.369 . S
C686 C690 1.531 . S
C687 C686 1.369 . S
C687 C688 1.410 . S
C687 C695 1.503 . S
C688 C687 1.410 . S
C688 C689 1.392 . S
C688 C691 1.511 . S
C689 C685 1.376 . S
C689 C688 1.392 . S
C689 H701 0.929 . S
C690 C686 1.531 . S
C690 H702 0.960 . S
C690 H703 0.962 . S
C690 H704 0.960 . S
C691 C688 1.511 . S
C691 H705 0.961 . S
C691 H706 0.961 . S
C691 H707 0.961 . S
C692 C693 1.370 . S
C692 C694 1.363 . S
C692 H708 0.931 . S
C693 C692 1.370 . S
C693 C697 1.408 . S
C694 C692 1.363 . S
C694 C695 1.370 . S
C694 C698 1.524 . S
C695 C687 1.503 . S
C695 C694 1.370 . S
C695 C696 1.403 . S
C696 C695 1.403 . S
C696 C697 1.404 . S
C696 C699 1.539 . S
C697 C693 1.408 . S
C697 C696 1.404 . S
C697 H709 0.930 . S
C698 C694 1.524 . S
C698 H710 0.956 . S
C698 H711 0.961 . S
C698 H712 0.961 . S
C699 C696 1.539 . S
C699 H713 0.958 . S
C699 H714 0.961 . S
C699 H715 0.960 . S
H700 C684 0.931 . S
H701 C689 0.929 . S
H702 C690 0.960 . S
H703 C690 0.962 . S
H704 C690 0.960 . S
H705 C691 0.961 . S
H706 C691 0.961 . S
H707 C691 0.961 . S
H708 C692 0.931 . S
H709 C697 0.930 . S
H710 C698 0.956 . S
H711 C698 0.961 . S
H712 C698 0.961 . S
H713 C699 0.958 . S
H714 C699 0.961 . S
H715 C699 0.960 . S
C716 C717 1.391 . S
C716 C718 1.394 1_455 S
C716 H732 0.931 . S
C717 C716 1.391 . S
C717 C721 1.376 1_455 S
C718 C716 1.394 1_655 S
C718 C719 1.369 . S
C718 C722 1.531 . S
C719 C718 1.369 . S
C719 C720 1.410 . S
C719 C727 1.503 . S
C720 C719 1.410 . S
C720 C721 1.392 . S
C720 C723 1.511 . S
C721 C717 1.376 1_655 S
C721 C720 1.392 . S
C721 H733 0.929 . S
C722 C718 1.531 . S
C722 H734 0.960 . S
C722 H735 0.962 . S
C722 H736 0.960 . S
C723 C720 1.511 . S
C723 H737 0.961 . S
C723 H738 0.961 . S
C723 H739 0.961 . S
C724 C725 1.370 . S
C724 C726 1.363 . S
C724 H740 0.931 . S
C725 C724 1.370 . S
C725 C729 1.408 . S
C726 C724 1.363 . S
C726 C727 1.370 . S
C726 C730 1.524 . S
C727 C719 1.503 . S
C727 C726 1.370 . S
C727 C728 1.403 . S
C728 C727 1.403 . S
C728 C729 1.404 . S
C728 C731 1.539 . S
C729 C725 1.408 . S
C729 C728 1.404 . S
C729 H741 0.930 . S
C730 C726 1.524 . S
C730 H742 0.956 . S
C730 H743 0.961 . S
C730 H744 0.961 . S
C731 C728 1.539 . S
C731 H745 0.958 . S
C731 H746 0.961 . S
C731 H747 0.960 . S
H732 C716 0.931 . S
H733 C721 0.929 . S
H734 C722 0.960 . S
H735 C722 0.962 . S
H736 C722 0.960 . S
H737 C723 0.961 . S
H738 C723 0.961 . S
H739 C723 0.961 . S
H740 C724 0.931 . S
H741 C729 0.930 . S
H742 C730 0.956 . S
H743 C730 0.961 . S
H744 C730 0.961 . S
H745 C731 0.958 . S
H746 C731 0.961 . S
H747 C731 0.960 . S
C748 C749 1.391 1_565 S
C748 C750 1.394 . S
C748 H764 0.931 1_565 S
C749 C748 1.391 1_545 S
C749 C753 1.376 1_545 S
C750 C748 1.394 . S
C750 C751 1.369 . S
C750 C754 1.531 . S
C751 C750 1.369 . S
C751 C752 1.410 . S
C751 C759 1.503 . S
C752 C751 1.410 . S
C752 C753 1.392 . S
C752 C755 1.511 . S
C753 C749 1.376 1_565 S
C753 C752 1.392 . S
C753 H765 0.929 1_565 S
C754 C750 1.531 . S
C754 H766 0.960 . S
C754 H767 0.962 . S
C754 H768 0.960 . S
C755 C752 1.511 . S
C755 H769 0.961 . S
C755 H770 0.961 . S
C755 H771 0.961 . S
C756 C757 1.370 . S
C756 C758 1.363 . S
C756 H772 0.931 . S
C757 C756 1.370 . S
C757 C761 1.408 . S
C758 C756 1.363 . S
C758 C759 1.370 . S
C758 C762 1.524 . S
C759 C751 1.503 . S
C759 C758 1.370 . S
C759 C760 1.403 . S
C760 C759 1.403 . S
C760 C761 1.404 . S
C760 C763 1.539 . S
C761 C757 1.408 . S
C761 C760 1.404 . S
C761 H773 0.930 . S
C762 C758 1.524 . S
C762 H774 0.956 . S
C762 H775 0.961 . S
C762 H776 0.961 . S
C763 C760 1.539 . S
C763 H777 0.958 . S
C763 H778 0.961 . S
C763 H779 0.960 . S
H764 C748 0.931 1_545 S
H765 C753 0.929 1_545 S
H766 C754 0.960 . S
H767 C754 0.962 . S
H768 C754 0.960 . S
H769 C755 0.961 . S
H770 C755 0.961 . S
H771 C755 0.961 . S
H772 C756 0.931 . S
H773 C761 0.930 . S
H774 C762 0.956 . S
H775 C762 0.961 . S
H776 C762 0.961 . S
H777 C763 0.958 . S
H778 C763 0.961 . S
H779 C763 0.960 . S
C780 C781 1.391 . S
C780 C782 1.394 . S
C780 H796 0.931 . S
C781 C780 1.391 . S
C781 C785 1.376 1_554 S
C782 C780 1.394 . S
C782 C783 1.369 1_554 S
C782 C786 1.531 . S
C783 C782 1.369 1_556 S
C783 C784 1.410 . S
C783 C791 1.503 . S
C784 C783 1.410 . S
C784 C785 1.392 . S
C784 C787 1.511 . S
C785 C781 1.376 1_556 S
C785 C784 1.392 . S
C785 H797 0.929 . S
C786 C782 1.531 . S
C786 H798 0.960 . S
C786 H799 0.962 . S
C786 H800 0.960 . S
C787 C784 1.511 . S
C787 H801 0.961 . S
C787 H802 0.961 . S
C787 H803 0.961 . S
C788 C789 1.370 . S
C788 C790 1.363 . S
C788 H804 0.928 1_556 S
C789 C788 1.370 . S
C789 C793 1.408 . S
C790 C788 1.363 . S
C790 C791 1.370 . S
C790 C794 1.524 1_556 S
C791 C783 1.503 . S
C791 C790 1.370 . S
C791 C792 1.403 . S
C792 C791 1.403 . S
C792 C793 1.404 . S
C792 C795 1.539 . S
C793 C789 1.408 . S
C793 C792 1.404 . S
C793 H805 0.930 . S
C794 C790 1.524 1_554 S
C794 H806 0.956 . S
C794 H807 0.961 . S
C794 H808 0.961 . S
C795 C792 1.539 . S
C795 H809 0.958 . S
C795 H810 0.961 . S
C795 H811 0.960 . S
H796 C780 0.931 . S
H797 C785 0.929 . S
H798 C786 0.960 . S
H799 C786 0.962 . S
H800 C786 0.960 . S
H801 C787 0.961 . S
H802 C787 0.961 . S
H803 C787 0.961 . S
H804 C788 0.928 1_554 S
H805 C793 0.930 . S
H806 C794 0.956 . S
H807 C794 0.961 . S
H808 C794 0.961 . S
H809 C795 0.958 . S
H810 C795 0.961 . S
H811 C795 0.960 . S
C812 C813 1.391 1_455 S
C812 C814 1.394 . S
C812 H828 0.931 . S
C813 C812 1.391 1_655 S
C813 C817 1.380 . S
C814 C812 1.394 . S
C814 C815 1.369 . S
C814 C818 1.531 . S
C815 C814 1.369 . S
C815 C816 1.410 . S
C815 C823 1.503 . S
C816 C815 1.410 . S
C816 C817 1.382 1_455 S
C816 C819 1.511 . S
C817 C813 1.380 . S
C817 C816 1.382 1_655 S
C817 H829 0.936 . S
C818 C814 1.531 . S
C818 H830 0.960 . S
C818 H831 0.962 . S
C818 H832 0.960 . S
C819 C816 1.511 . S
C819 H833 0.961 . S
C819 H834 0.961 . S
C819 H835 0.961 . S
C820 C821 1.370 . S
C820 C822 1.363 . S
C820 H836 0.931 . S
C821 C820 1.370 . S
C821 C825 1.408 . S
C822 C820 1.363 . S
C822 C823 1.370 . S
C822 C826 1.524 . S
C823 C815 1.503 . S
C823 C822 1.370 . S
C823 C824 1.403 . S
C824 C823 1.403 . S
C824 C825 1.404 . S
C824 C827 1.539 . S
C825 C821 1.408 . S
C825 C824 1.404 . S
C825 H837 0.930 . S
C826 C822 1.524 . S
C826 H838 0.956 . S
C826 H839 0.961 . S
C826 H840 0.961 . S
C827 C824 1.539 . S
C827 H841 0.958 . S
C827 H842 0.961 . S
C827 H843 0.960 . S
H828 C812 0.931 . S
H829 C817 0.936 . S
H830 C818 0.960 . S
H831 C818 0.962 . S
H832 C818 0.960 . S
H833 C819 0.961 . S
H834 C819 0.961 . S
H835 C819 0.961 . S
H836 C820 0.931 . S
H837 C825 0.930 . S
H838 C826 0.956 . S
H839 C826 0.961 . S
H840 C826 0.961 . S
H841 C827 0.958 . S
H842 C827 0.961 . S
H843 C827 0.960 . S
C844 C845 1.391 . S
C844 C846 1.394 1_565 S
C844 H860 0.931 . S
C845 C844 1.391 . S
C845 C849 1.376 1_565 S
C846 C844 1.394 1_545 S
C846 C847 1.369 . S
C846 C850 1.531 . S
C847 C846 1.369 . S
C847 C848 1.410 . S
C847 C855 1.503 . S
C848 C847 1.410 . S
C848 C849 1.392 . S
C848 C851 1.511 . S
C849 C845 1.376 1_545 S
C849 C848 1.392 . S
C849 H861 0.929 . S
C850 C846 1.531 . S
C850 H862 0.960 . S
C850 H863 0.962 . S
C850 H864 0.960 . S
C851 C848 1.511 . S
C851 H865 0.961 . S
C851 H866 0.961 . S
C851 H867 0.961 . S
C852 C853 1.370 . S
C852 C854 1.363 . S
C852 H868 0.931 . S
C853 C852 1.370 . S
C853 C857 1.408 . S
C854 C852 1.363 . S
C854 C855 1.370 . S
C854 C858 1.524 . S
C855 C847 1.503 . S
C855 C854 1.370 . S
C855 C856 1.403 . S
C856 C855 1.403 . S
C856 C857 1.404 . S
C856 C859 1.539 . S
C857 C853 1.408 . S
C857 C856 1.404 . S
C857 H869 0.930 . S
C858 C854 1.524 . S
C858 H870 0.956 . S
C858 H871 0.961 . S
C858 H872 0.961 . S
C859 C856 1.539 . S
C859 H873 0.958 . S
C859 H874 0.961 . S
C859 H875 0.960 . S
H860 C844 0.931 . S
H861 C849 0.929 . S
H862 C850 0.960 . S
H863 C850 0.962 . S
H864 C850 0.960 . S
H865 C851 0.961 . S
H866 C851 0.961 . S
H867 C851 0.961 . S
H868 C852 0.931 . S
H869 C857 0.930 . S
H870 C858 0.956 . S
H871 C858 0.961 . S
H872 C858 0.961 . S
H873 C859 0.958 . S
H874 C859 0.961 . S
H875 C859 0.960 . S
C876 C877 1.391 . S
C876 C878 1.394 . S
C876 H892 0.931 . S
C877 C876 1.391 . S
C877 C881 1.376 . S
C878 C876 1.394 . S
C878 C879 1.369 . S
C878 C882 1.531 . S
C879 C878 1.369 . S
C879 C880 1.410 . S
C879 C887 1.503 . S
C880 C879 1.410 . S
C880 C881 1.392 . S
C880 C883 1.511 . S
C881 C877 1.376 . S
C881 C880 1.392 . S
C881 H893 0.929 . S
C882 C878 1.531 . S
C882 H894 0.960 . S
C882 H895 0.962 . S
C882 H896 0.960 . S
C883 C880 1.511 . S
C883 H897 0.961 . S
C883 H898 0.961 . S
C883 H899 0.961 . S
C884 C885 1.370 . S
C884 C886 1.363 . S
C884 H900 0.931 . S
C885 C884 1.370 . S
C885 C889 1.408 . S
C886 C884 1.363 . S
C886 C887 1.370 . S
C886 C890 1.524 . S
C887 C879 1.503 . S
C887 C886 1.370 . S
C887 C888 1.403 . S
C888 C887 1.403 . S
C888 C889 1.404 . S
C888 C891 1.539 . S
C889 C885 1.408 . S
C889 C888 1.404 . S
C889 H901 0.930 . S
C890 C886 1.524 . S
C890 H902 0.956 . S
C890 H903 0.961 . S
C890 H904 0.961 . S
C891 C888 1.539 . S
C891 H905 0.958 . S
C891 H906 0.961 . S
C891 H907 0.960 . S
H892 C876 0.931 . S
H893 C881 0.929 . S
H894 C882 0.960 . S
H895 C882 0.962 . S
H896 C882 0.960 . S
H897 C883 0.961 . S
H898 C883 0.961 . S
H899 C883 0.961 . S
H900 C884 0.931 . S
H901 C889 0.930 . S
H902 C890 0.956 . S
H903 C890 0.961 . S
H904 C890 0.961 . S
H905 C891 0.958 . S
H906 C891 0.961 . S
H907 C891 0.960 . S
C908 C909 1.391 . S
C908 C910 1.394 1_455 S
C908 H924 0.931 . S
C909 C908 1.391 . S
C909 C913 1.376 1_455 S
C910 C908 1.394 1_655 S
C910 C911 1.369 . S
C910 C914 1.531 . S
C911 C910 1.369 . S
C911 C912 1.410 . S
C911 C919 1.503 . S
C912 C911 1.410 . S
C912 C913 1.392 . S
C912 C915 1.511 . S
C913 C909 1.376 1_655 S
C913 C912 1.392 . S
C913 H925 0.929 . S
C914 C910 1.531 . S
C914 H926 0.960 . S
C914 H927 0.962 . S
C914 H928 0.960 . S
C915 C912 1.511 . S
C915 H929 0.961 . S
C915 H930 0.961 . S
C915 H931 0.961 . S
C916 C917 1.370 . S
C916 C918 1.363 . S
C916 H932 0.931 . S
C917 C916 1.370 . S
C917 C921 1.408 . S
C918 C916 1.363 . S
C918 C919 1.370 . S
C918 C922 1.524 . S
C919 C911 1.503 . S
C919 C918 1.370 . S
C919 C920 1.403 . S
C920 C919 1.403 . S
C920 C921 1.404 . S
C920 C923 1.539 . S
C921 C917 1.408 . S
C921 C920 1.404 . S
C921 H933 0.930 . S
C922 C918 1.524 . S
C922 H934 0.956 . S
C922 H935 0.961 . S
C922 H936 0.961 . S
C923 C920 1.539 . S
C923 H937 0.958 . S
C923 H938 0.961 . S
C923 H939 0.960 . S
H924 C908 0.931 . S
H925 C913 0.929 . S
H926 C914 0.960 . S
H927 C914 0.962 . S
H928 C914 0.960 . S
H929 C915 0.961 . S
H930 C915 0.961 . S
H931 C915 0.961 . S
H932 C916 0.931 . S
H933 C921 0.930 . S
H934 C922 0.956 . S
H935 C922 0.961 . S
H936 C922 0.961 . S
H937 C923 0.958 . S
H938 C923 0.961 . S
H939 C923 0.960 . S
C940 C941 1.391 1_565 S
C940 C942 1.394 . S
C940 H956 0.931 . S
C941 C940 1.391 1_545 S
C941 C945 1.386 . S
C942 C940 1.394 . S
C942 C943 1.369 . S
C942 C946 1.531 . S
C943 C942 1.369 . S
C943 C944 1.410 . S
C943 C951 1.503 . S
C944 C943 1.410 . S
C944 C945 1.378 1_565 S
C944 C947 1.511 . S
C945 C941 1.386 . S
C945 C944 1.378 1_545 S
C945 H957 0.933 . S
C946 C942 1.531 . S
C946 H958 0.960 . S
C946 H959 0.962 . S
C946 H960 0.960 . S
C947 C944 1.511 . S
C947 H961 0.961 . S
C947 H962 0.961 . S
C947 H963 0.961 . S
C948 C949 1.370 . S
C948 C950 1.363 . S
C948 H964 0.931 . S
C949 C948 1.370 . S
C949 C953 1.408 . S
C950 C948 1.363 . S
C950 C951 1.370 . S
C950 C954 1.524 . S
C951 C943 1.503 . S
C951 C950 1.370 . S
C951 C952 1.403 . S
C952 C951 1.403 . S
C952 C953 1.404 . S
C952 C955 1.539 . S
C953 C949 1.408 . S
C953 C952 1.404 . S
C953 H965 0.930 . S
C954 C950 1.524 . S
C954 H966 0.956 . S
C954 H967 0.961 . S
C954 H968 0.961 . S
C955 C952 1.539 . S
C955 H969 0.958 . S
C955 H970 0.961 . S
C955 H971 0.960 . S
H956 C940 0.931 . S
H957 C945 0.933 . S
H958 C946 0.960 . S
H959 C946 0.962 . S
H960 C946 0.960 . S
H961 C947 0.961 . S
H962 C947 0.961 . S
H963 C947 0.961 . S
H964 C948 0.931 . S
H965 C953 0.930 . S
H966 C954 0.956 . S
H967 C954 0.961 . S
H968 C954 0.961 . S
H969 C955 0.958 . S
H970 C955 0.961 . S
H971 C955 0.960 . S
C972 C973 1.391 . S
C972 C974 1.394 . S
C972 H988 0.931 . S
C973 C972 1.391 . S
C973 C977 1.376 . S
C974 C972 1.394 . S
C974 C975 1.369 . S
C974 C978 1.531 . S
C975 C974 1.369 . S
C975 C976 1.410 . S
C975 C983 1.503 . S
C976 C975 1.410 . S
C976 C977 1.392 . S
C976 C979 1.511 . S
C977 C973 1.376 . S
C977 C976 1.392 . S
C977 H989 0.929 . S
C978 C974 1.531 . S
C978 H990 0.960 . S
C978 H991 0.962 . S
C978 H992 0.960 . S
C979 C976 1.511 . S
C979 H993 0.961 . S
C979 H994 0.961 . S
C979 H995 0.961 . S
C980 C981 1.370 . S
C980 C982 1.363 . S
C980 H996 0.931 . S
C981 C980 1.370 . S
C981 C985 1.408 . S
C982 C980 1.363 . S
C982 C983 1.370 . S
C982 C986 1.524 . S
C983 C975 1.503 . S
C983 C982 1.370 . S
C983 C984 1.403 . S
C984 C983 1.403 . S
C984 C985 1.404 . S
C984 C987 1.539 . S
C985 C981 1.408 . S
C985 C984 1.404 . S
C985 H997 0.930 . S
C986 C982 1.524 . S
C986 H998 0.956 . S
C986 H999 0.961 . S
C986 H1000 0.961 . S
C987 C984 1.539 . S
C987 H1001 0.958 . S
C987 H1002 0.961 . S
C987 H1003 0.960 . S
H988 C972 0.931 . S
H989 C977 0.929 . S
H990 C978 0.960 . S
H991 C978 0.962 . S
H992 C978 0.960 . S
H993 C979 0.961 . S
H994 C979 0.961 . S
H995 C979 0.961 . S
H996 C980 0.931 . S
H997 C985 0.930 . S
H998 C986 0.956 . S
H999 C986 0.961 . S
H1000 C986 0.961 . S
H1001 C987 0.958 . S
H1002 C987 0.961 . S
H1003 C987 0.960 . S
C1004 C1005 1.391 . S
C1004 C1006 1.394 . S
C1004 H1020 0.931 . S
C1005 C1004 1.391 . S
C1005 C1009 1.376 . S
C1006 C1004 1.394 . S
C1006 C1007 1.369 . S
C1006 C1010 1.531 . S
C1007 C1006 1.369 . S
C1007 C1008 1.410 1_655 S
C1007 C1015 1.503 1_655 S
C1008 C1007 1.410 1_455 S
C1008 C1009 1.392 1_455 S
C1008 C1011 1.511 . S
C1009 C1005 1.376 . S
C1009 C1008 1.392 1_655 S
C1009 H1021 0.929 . S
C1010 C1006 1.531 . S
C1010 H1022 0.960 . S
C1010 H1023 0.962 . S
C1010 H1024 0.960 . S
C1011 C1008 1.511 . S
C1011 H1025 0.961 . S
C1011 H1026 0.961 . S
C1011 H1027 0.961 . S
C1012 C1013 1.370 . S
C1012 C1014 1.363 . S
C1012 H1028 0.931 . S
C1013 C1012 1.370 . S
C1013 C1017 1.408 . S
C1014 C1012 1.363 . S
C1014 C1015 1.370 . S
C1014 C1018 1.497 1_455 S
C1015 C1007 1.503 1_455 S
C1015 C1014 1.370 . S
C1015 C1016 1.403 . S
C1016 C1015 1.403 . S
C1016 C1017 1.404 . S
C1016 C1019 1.539 . S
C1017 C1013 1.408 . S
C1017 C1016 1.404 . S
C1017 H1029 0.930 . S
C1018 C1014 1.497 1_655 S
C1018 H1030 0.985 . S
C1018 H1031 0.955 1_655 S
C1018 H1032 0.966 1_655 S
C1019 C1016 1.539 . S
C1019 H1033 0.958 . S
C1019 H1034 0.961 . S
C1019 H1035 0.960 . S
H1020 C1004 0.931 . S
H1021 C1009 0.929 . S
H1022 C1010 0.960 . S
H1023 C1010 0.962 . S
H1024 C1010 0.960 . S
H1025 C1011 0.961 . S
H1026 C1011 0.961 . S
H1027 C1011 0.961 . S
H1028 C1012 0.931 . S
H1029 C1017 0.930 . S
H1030 C1018 0.985 . S
H1031 C1018 0.955 1_455 S
H1032 C1018 0.966 1_455 S
H1033 C1019 0.958 . S
H1034 C1019 0.961 . S
H1035 C1019 0.960 . S
C1036 C1037 1.391 . S
C1036 C1038 1.394 1_565 S
C1036 H1052 0.931 . S
C1037 C1036 1.391 . S
C1037 C1041 1.376 . S
C1038 C1036 1.394 1_545 S
C1038 C1039 1.369 1_545 S
C1038 C1042 1.531 . S
C1039 C1038 1.369 1_565 S
C1039 C1040 1.410 . S
C1039 C1047 1.503 1_565 S
C1040 C1039 1.410 . S
C1040 C1041 1.392 . S
C1040 C1043 1.511 . S
C1041 C1037 1.376 . S
C1041 C1040 1.392 . S
C1041 H1053 0.929 . S
C1042 C1038 1.531 . S
C1042 H1054 0.960 . S
C1042 H1055 0.962 . S
C1042 H1056 0.960 . S
C1043 C1040 1.511 . S
C1043 H1057 0.961 . S
C1043 H1058 0.961 . S
C1043 H1059 0.961 . S
C1044 C1045 1.370 . S
C1044 C1046 1.363 . S
C1044 H1060 0.931 . S
C1045 C1044 1.370 . S
C1045 C1049 1.408 . S
C1046 C1044 1.363 . S
C1046 C1047 1.370 . S
C1046 C1050 1.524 . S
C1047 C1039 1.503 1_545 S
C1047 C1046 1.370 . S
C1047 C1048 1.403 . S
C1048 C1047 1.403 . S
C1048 C1049 1.404 . S
C1048 C1051 1.539 1_545 S
C1049 C1045 1.408 . S
C1049 C1048 1.404 . S
C1049 H1061 0.930 . S
C1050 C1046 1.524 . S
C1050 H1062 0.956 . S
C1050 H1063 0.961 1_545 S
C1050 H1064 0.961 . S
C1051 C1048 1.539 1_565 S
C1051 H1065 0.958 1_565 S
C1051 H1066 0.961 . S
C1051 H1067 0.960 . S
H1052 C1036 0.931 . S
H1053 C1041 0.929 . S
H1054 C1042 0.960 . S
H1055 C1042 0.962 . S
H1056 C1042 0.960 . S
H1057 C1043 0.961 . S
H1058 C1043 0.961 . S
H1059 C1043 0.961 . S
H1060 C1044 0.931 . S
H1061 C1049 0.930 . S
H1062 C1050 0.956 . S
H1063 C1050 0.961 1_565 S
H1064 C1050 0.961 . S
H1065 C1051 0.958 1_545 S
H1066 C1051 0.961 . S
H1067 C1051 0.960 . S
C1068 C1069 1.391 . S
C1068 C1070 1.394 . S
C1068 H1084 0.931 . S
C1069 C1068 1.391 . S
C1069 C1073 1.376 . S
C1070 C1068 1.394 . S
C1070 C1071 1.369 . S
C1070 C1074 1.531 . S
C1071 C1070 1.369 . S
C1071 C1072 1.410 . S
C1071 C1079 1.503 . S
C1072 C1071 1.410 . S
C1072 C1073 1.392 . S
C1072 C1075 1.511 . S
C1073 C1069 1.376 . S
C1073 C1072 1.392 . S
C1073 H1085 0.929 . S
C1074 C1070 1.531 . S
C1074 H1086 0.960 . S
C1074 H1087 0.962 . S
C1074 H1088 0.960 . S
C1075 C1072 1.511 . S
C1075 H1089 0.961 . S
C1075 H1090 0.961 . S
C1075 H1091 0.961 . S
C1076 C1077 1.370 . S
C1076 C1078 1.363 . S
C1076 H1092 0.931 . S
C1077 C1076 1.370 . S
C1077 C1081 1.408 . S
C1078 C1076 1.363 . S
C1078 C1079 1.370 . S
C1078 C1082 1.524 . S
C1079 C1071 1.503 . S
C1079 C1078 1.370 . S
C1079 C1080 1.403 . S
C1080 C1079 1.403 . S
C1080 C1081 1.404 . S
C1080 C1083 1.539 . S
C1081 C1077 1.408 . S
C1081 C1080 1.404 . S
C1081 H1093 0.930 . S
C1082 C1078 1.524 . S
C1082 H1094 0.956 . S
C1082 H1095 0.961 . S
C1082 H1096 0.961 . S
C1083 C1080 1.539 . S
C1083 H1097 0.958 . S
C1083 H1098 0.961 . S
C1083 H1099 0.960 . S
H1084 C1068 0.931 . S
H1085 C1073 0.929 . S
H1086 C1074 0.960 . S
H1087 C1074 0.962 . S
H1088 C1074 0.960 . S
H1089 C1075 0.961 . S
H1090 C1075 0.961 . S
H1091 C1075 0.961 . S
H1092 C1076 0.931 . S
H1093 C1081 0.930 . S
H1094 C1082 0.956 . S
H1095 C1082 0.961 . S
H1096 C1082 0.961 . S
H1097 C1083 0.958 . S
H1098 C1083 0.961 . S
H1099 C1083 0.960 . S
C1100 C1101 1.391 . S
C1100 C1102 1.394 . S
C1100 H1116 0.931 . S
C1101 C1100 1.391 . S
C1101 C1105 1.376 . S
C1102 C1100 1.394 . S
C1102 C1103 1.369 . S
C1102 C1106 1.531 . S
C1103 C1102 1.369 . S
C1103 C1104 1.410 1_455 S
C1103 C1111 1.503 1_455 S
C1104 C1103 1.410 1_655 S
C1104 C1105 1.392 1_655 S
C1104 C1107 1.511 . S
C1105 C1101 1.376 . S
C1105 C1104 1.392 1_455 S
C1105 H1117 0.929 . S
C1106 C1102 1.531 . S
C1106 H1118 0.960 . S
C1106 H1119 0.962 . S
C1106 H1120 0.960 . S
C1107 C1104 1.511 . S
C1107 H1121 0.961 . S
C1107 H1122 0.961 . S
C1107 H1123 0.961 . S
C1108 C1109 1.370 . S
C1108 C1110 1.363 . S
C1108 H1124 0.931 . S
C1109 C1108 1.370 . S
C1109 C1113 1.408 . S
C1110 C1108 1.363 . S
C1110 C1111 1.370 . S
C1110 C1114 1.524 1_655 S
C1111 C1103 1.503 1_655 S
C1111 C1110 1.370 . S
C1111 C1112 1.403 . S
C1112 C1111 1.403 . S
C1112 C1113 1.404 . S
C1112 C1115 1.539 . S
C1113 C1109 1.408 . S
C1113 C1112 1.404 . S
C1113 H1125 0.930 . S
C1114 C1110 1.524 1_455 S
C1114 H1126 0.956 . S
C1114 H1127 0.961 . S
C1114 H1128 0.961 . S
C1115 C1112 1.539 . S
C1115 H1129 0.958 . S
C1115 H1130 0.961 . S
C1115 H1131 0.960 . S
H1116 C1100 0.931 . S
H1117 C1105 0.929 . S
H1118 C1106 0.960 . S
H1119 C1106 0.962 . S
H1120 C1106 0.960 . S
H1121 C1107 0.961 . S
H1122 C1107 0.961 . S
H1123 C1107 0.961 . S
H1124 C1108 0.931 . S
H1125 C1113 0.930 . S
H1126 C1114 0.956 . S
H1127 C1114 0.961 . S
H1128 C1114 0.961 . S
H1129 C1115 0.958 . S
H1130 C1115 0.961 . S
H1131 C1115 0.960 . S
C1132 C1133 1.391 . S
C1132 C1134 1.394 . S
C1132 H1148 0.931 . S
C1133 C1132 1.391 . S
C1133 C1137 1.376 . S
C1134 C1132 1.394 . S
C1134 C1135 1.369 . S
C1134 C1138 1.531 1_554 S
C1135 C1134 1.369 . S
C1135 C1136 1.410 . S
C1135 C1143 1.503 1_564 S
C1136 C1135 1.410 . S
C1136 C1137 1.392 . S
C1136 C1139 1.511 1_565 S
C1137 C1133 1.376 . S
C1137 C1136 1.392 . S
C1137 H1149 0.929 . S
C1138 C1134 1.531 1_556 S
C1138 H1150 0.960 . S
C1138 H1151 0.962 . S
C1138 H1152 0.960 . S
C1139 C1136 1.511 1_545 S
C1139 H1153 0.961 . S
C1139 H1154 0.961 . S
C1139 H1155 0.961 . S
C1140 C1141 1.370 . S
C1140 C1142 1.363 . S
C1140 H1156 0.931 . S
C1141 C1140 1.370 . S
C1141 C1145 1.408 . S
C1142 C1140 1.363 . S
C1142 C1143 1.370 . S
C1142 C1146 1.524 1_556 S
C1143 C1135 1.503 1_546 S
C1143 C1142 1.370 . S
C1143 C1144 1.403 . S
C1144 C1143 1.403 . S
C1144 C1145 1.404 . S
C1144 C1147 1.539 1_545 S
C1145 C1141 1.408 . S
C1145 C1144 1.404 . S
C1145 H1157 0.930 . S
C1146 C1142 1.524 1_554 S
C1146 H1158 0.956 . S
C1146 H1159 0.961 . S
C1146 H1160 0.955 1_554 S
C1147 C1144 1.539 1_565 S
C1147 H1161 0.958 . S
C1147 H1162 0.961 . S
C1147 H1163 0.960 . S
H1148 C1132 0.931 . S
H1149 C1137 0.929 . S
H1150 C1138 0.960 . S
H1151 C1138 0.962 . S
H1152 C1138 0.960 . S
H1153 C1139 0.961 . S
H1154 C1139 0.961 . S
H1155 C1139 0.961 . S
H1156 C1140 0.931 . S
H1157 C1145 0.930 . S
H1158 C1146 0.956 . S
H1159 C1146 0.961 . S
H1160 C1146 0.955 1_556 S
H1161 C1147 0.958 . S
H1162 C1147 0.961 . S
H1163 C1147 0.960 . S
C1164 C1165 1.391 . S
C1164 C1166 1.394 . S
C1164 H1180 0.931 . S
C1165 C1164 1.391 . S
C1165 C1169 1.376 . S
C1166 C1164 1.394 . S
C1166 C1167 1.369 . S
C1166 C1170 1.531 . S
C1167 C1166 1.369 . S
C1167 C1168 1.410 . S
C1167 C1175 1.503 . S
C1168 C1167 1.410 . S
C1168 C1169 1.392 . S
C1168 C1171 1.511 . S
C1169 C1165 1.376 . S
C1169 C1168 1.392 . S
C1169 H1181 0.929 . S
C1170 C1166 1.531 . S
C1170 H1182 0.960 . S
C1170 H1183 0.962 . S
C1170 H1184 0.960 . S
C1171 C1168 1.511 . S
C1171 H1185 0.961 . S
C1171 H1186 0.961 . S
C1171 H1187 0.961 . S
C1172 C1173 1.370 . S
C1172 C1174 1.363 . S
C1172 H1188 0.931 . S
C1173 C1172 1.370 . S
C1173 C1177 1.408 . S
C1174 C1172 1.363 . S
C1174 C1175 1.370 . S
C1174 C1178 1.524 . S
C1175 C1167 1.503 . S
C1175 C1174 1.370 . S
C1175 C1176 1.403 . S
C1176 C1175 1.403 . S
C1176 C1177 1.404 . S
C1176 C1179 1.539 . S
C1177 C1173 1.408 . S
C1177 C1176 1.404 . S
C1177 H1189 0.930 . S
C1178 C1174 1.524 . S
C1178 H1190 0.956 . S
C1178 H1191 0.961 . S
C1178 H1192 0.961 1_556 S
C1179 C1176 1.539 . S
C1179 H1193 0.958 . S
C1179 H1194 0.961 . S
C1179 H1195 0.960 . S
H1180 C1164 0.931 . S
H1181 C1169 0.929 . S
H1182 C1170 0.960 . S
H1183 C1170 0.962 . S
H1184 C1170 0.960 . S
H1185 C1171 0.961 . S
H1186 C1171 0.961 . S
H1187 C1171 0.961 . S
H1188 C1172 0.931 . S
H1189 C1177 0.930 . S
H1190 C1178 0.956 . S
H1191 C1178 0.961 . S
H1192 C1178 0.961 1_554 S
H1193 C1179 0.958 . S
H1194 C1179 0.961 . S
H1195 C1179 0.960 . S
C1196 C1197 1.391 . S
C1196 C1198 1.394 . S
C1196 H1212 0.931 . S
C1197 C1196 1.391 . S
C1197 C1201 1.376 . S
C1198 C1196 1.394 . S
C1198 C1199 1.369 . S
C1198 C1202 1.531 . S
C1199 C1198 1.369 . S
C1199 C1200 1.410 . S
C1199 C1207 1.503 . S
C1200 C1199 1.410 . S
C1200 C1201 1.392 . S
C1200 C1203 1.511 . S
C1201 C1197 1.376 . S
C1201 C1200 1.392 . S
C1201 H1213 0.929 . S
C1202 C1198 1.531 . S
C1202 H1214 0.960 . S
C1202 H1215 0.962 . S
C1202 H1216 0.960 . S
C1203 C1200 1.511 . S
C1203 H1217 0.961 . S
C1203 H1218 0.961 . S
C1203 H1219 0.961 . S
C1204 C1205 1.370 . S
C1204 C1206 1.363 . S
C1204 H1220 0.931 . S
C1205 C1204 1.370 . S
C1205 C1209 1.408 . S
C1206 C1204 1.363 . S
C1206 C1207 1.370 . S
C1206 C1210 1.524 . S
C1207 C1199 1.503 . S
C1207 C1206 1.370 . S
C1207 C1208 1.403 . S
C1208 C1207 1.403 . S
C1208 C1209 1.404 . S
C1208 C1211 1.539 . S
C1209 C1205 1.408 . S
C1209 C1208 1.404 . S
C1209 H1221 0.930 . S
C1210 C1206 1.524 . S
C1210 H1222 0.956 . S
C1210 H1223 0.961 . S
C1210 H1224 0.961 1_554 S
C1211 C1208 1.539 . S
C1211 H1225 0.958 . S
C1211 H1226 0.961 . S
C1211 H1227 0.960 . S
H1212 C1196 0.931 . S
H1213 C1201 0.929 . S
H1214 C1202 0.960 . S
H1215 C1202 0.962 . S
H1216 C1202 0.960 . S
H1217 C1203 0.961 . S
H1218 C1203 0.961 . S
H1219 C1203 0.961 . S
H1220 C1204 0.931 . S
H1221 C1209 0.930 . S
H1222 C1210 0.956 . S
H1223 C1210 0.961 . S
H1224 C1210 0.961 1_556 S
H1225 C1211 0.958 . S
H1226 C1211 0.961 . S
H1227 C1211 0.960 . S
C1228 C1229 1.391 . S
C1228 C1230 1.394 . S
C1228 H1244 0.931 . S
C1229 C1228 1.391 . S
C1229 C1233 1.376 . S
C1230 C1228 1.394 . S
C1230 C1231 1.369 . S
C1230 C1234 1.531 . S
C1231 C1230 1.369 . S
C1231 C1232 1.410 . S
C1231 C1239 1.503 . S
C1232 C1231 1.410 . S
C1232 C1233 1.392 . S
C1232 C1235 1.511 . S
C1233 C1229 1.376 . S
C1233 C1232 1.392 . S
C1233 H1245 0.929 . S
C1234 C1230 1.531 . S
C1234 H1246 0.960 . S
C1234 H1247 0.962 . S
C1234 H1248 0.960 . S
C1235 C1232 1.511 . S
C1235 H1249 0.961 . S
C1235 H1250 0.961 . S
C1235 H1251 0.961 . S
C1236 C1237 1.370 . S
C1236 C1238 1.363 . S
C1236 H1252 0.931 . S
C1237 C1236 1.370 . S
C1237 C1241 1.408 . S
C1238 C1236 1.363 . S
C1238 C1239 1.370 . S
C1238 C1242 1.524 . S
C1239 C1231 1.503 . S
C1239 C1238 1.370 . S
C1239 C1240 1.403 . S
C1240 C1239 1.403 . S
C1240 C1241 1.404 . S
C1240 C1243 1.539 . S
C1241 C1237 1.408 . S
C1241 C1240 1.404 . S
C1241 H1253 0.930 . S
C1242 C1238 1.524 . S
C1242 H1254 0.956 . S
C1242 H1255 0.961 . S
C1242 H1256 0.961 . S
C1243 C1240 1.539 . S
C1243 H1257 0.958 . S
C1243 H1258 0.961 . S
C1243 H1259 0.960 . S
H1244 C1228 0.931 . S
H1245 C1233 0.929 . S
H1246 C1234 0.960 . S
H1247 C1234 0.962 . S
H1248 C1234 0.960 . S
H1249 C1235 0.961 . S
H1250 C1235 0.961 . S
H1251 C1235 0.961 . S
H1252 C1236 0.931 . S
H1253 C1241 0.930 . S
H1254 C1242 0.956 . S
H1255 C1242 0.961 . S
H1256 C1242 0.961 . S
H1257 C1243 0.958 . S
H1258 C1243 0.961 . S
H1259 C1243 0.960 . S
C1260 C1261 1.391 . S
C1260 C1262 1.394 . S
C1260 H1276 0.931 . S
C1261 C1260 1.391 . S
C1261 C1265 1.376 . S
C1262 C1260 1.394 . S
C1262 C1263 1.369 . S
C1262 C1266 1.531 . S
C1263 C1262 1.369 . S
C1263 C1264 1.410 . S
C1263 C1271 1.503 . S
C1264 C1263 1.410 . S
C1264 C1265 1.392 . S
C1264 C1267 1.511 . S
C1265 C1261 1.376 . S
C1265 C1264 1.392 . S
C1265 H1277 0.929 . S
C1266 C1262 1.531 . S
C1266 H1278 0.960 . S
C1266 H1279 0.962 . S
C1266 H1280 0.960 . S
C1267 C1264 1.511 . S
C1267 H1281 0.961 . S
C1267 H1282 0.961 . S
C1267 H1283 0.961 . S
C1268 C1269 1.370 . S
C1268 C1270 1.363 . S
C1268 H1284 0.931 . S
C1269 C1268 1.370 . S
C1269 C1273 1.408 . S
C1270 C1268 1.363 . S
C1270 C1271 1.370 . S
C1270 C1274 1.524 . S
C1271 C1263 1.503 . S
C1271 C1270 1.370 . S
C1271 C1272 1.403 . S
C1272 C1271 1.403 . S
C1272 C1273 1.404 . S
C1272 C1275 1.539 . S
C1273 C1269 1.408 . S
C1273 C1272 1.404 . S
C1273 H1285 0.930 . S
C1274 C1270 1.524 . S
C1274 H1286 0.956 . S
C1274 H1287 0.961 . S
C1274 H1288 0.961 . S
C1275 C1272 1.539 . S
C1275 H1289 0.958 . S
C1275 H1290 0.961 . S
C1275 H1291 0.960 . S
H1276 C1260 0.931 . S
H1277 C1265 0.929 . S
H1278 C1266 0.960 . S
H1279 C1266 0.962 . S
H1280 C1266 0.960 . S
H1281 C1267 0.961 . S
H1282 C1267 0.961 . S
H1283 C1267 0.961 . S
H1284 C1268 0.931 . S
H1285 C1273 0.930 . S
H1286 C1274 0.956 . S
H1287 C1274 0.961 . S
H1288 C1274 0.961 . S
H1289 C1275 0.958 . S
H1290 C1275 0.961 . S
H1291 C1275 0.960 . S
C1292 C1293 1.391 . S
C1292 C1294 1.394 . S
C1292 H1308 0.931 . S
C1293 C1292 1.391 . S
C1293 C1297 1.376 . S
C1294 C1292 1.394 . S
C1294 C1295 1.369 . S
C1294 C1298 1.531 . S
C1295 C1294 1.369 . S
C1295 C1296 1.410 . S
C1295 C1303 1.503 . S
C1296 C1295 1.410 . S
C1296 C1297 1.392 . S
C1296 C1299 1.511 . S
C1297 C1293 1.376 . S
C1297 C1296 1.392 . S
C1297 H1309 0.929 . S
C1298 C1294 1.531 . S
C1298 H1310 0.960 . S
C1298 H1311 0.962 . S
C1298 H1312 0.960 . S
C1299 C1296 1.511 . S
C1299 H1313 0.961 . S
C1299 H1314 0.961 . S
C1299 H1315 0.961 . S
C1300 C1301 1.370 . S
C1300 C1302 1.363 . S
C1300 H1316 0.931 . S
C1301 C1300 1.370 . S
C1301 C1305 1.408 . S
C1302 C1300 1.363 . S
C1302 C1303 1.370 . S
C1302 C1306 1.524 . S
C1303 C1295 1.503 . S
C1303 C1302 1.370 . S
C1303 C1304 1.403 . S
C1304 C1303 1.403 . S
C1304 C1305 1.404 . S
C1304 C1307 1.539 . S
C1305 C1301 1.408 . S
C1305 C1304 1.404 . S
C1305 H1317 0.930 . S
C1306 C1302 1.524 . S
C1306 H1318 0.956 . S
C1306 H1319 0.961 . S
C1306 H1320 0.961 . S
C1307 C1304 1.539 . S
C1307 H1321 0.958 . S
C1307 H1322 0.961 . S
C1307 H1323 0.960 . S
H1308 C1292 0.931 . S
H1309 C1297 0.929 . S
H1310 C1298 0.960 . S
H1311 C1298 0.962 . S
H1312 C1298 0.960 . S
H1313 C1299 0.961 . S
H1314 C1299 0.961 . S
H1315 C1299 0.961 . S
H1316 C1300 0.931 . S
H1317 C1305 0.930 . S
H1318 C1306 0.956 . S
H1319 C1306 0.961 . S
H1320 C1306 0.961 . S
H1321 C1307 0.958 . S
H1322 C1307 0.961 . S
H1323 C1307 0.960 . S
C1324 C1325 1.391 . S
C1324 C1326 1.394 . S
C1324 H1340 0.931 . S
C1325 C1324 1.391 . S
C1325 C1329 1.376 . S
C1326 C1324 1.394 . S
C1326 C1327 1.369 . S
C1326 C1330 1.531 . S
C1327 C1326 1.369 . S
C1327 C1328 1.410 . S
C1327 C1335 1.503 . S
C1328 C1327 1.410 . S
C1328 C1329 1.392 . S
C1328 C1331 1.511 . S
C1329 C1325 1.376 . S
C1329 C1328 1.392 . S
C1329 H1341 0.929 . S
C1330 C1326 1.531 . S
C1330 H1342 0.960 . S
C1330 H1343 0.962 . S
C1330 H1344 0.960 . S
C1331 C1328 1.511 . S
C1331 H1345 0.961 . S
C1331 H1346 0.961 . S
C1331 H1347 0.961 . S
C1332 C1333 1.370 . S
C1332 C1334 1.363 . S
C1332 H1348 0.931 . S
C1333 C1332 1.370 . S
C1333 C1337 1.408 . S
C1334 C1332 1.363 . S
C1334 C1335 1.370 . S
C1334 C1338 1.524 . S
C1335 C1327 1.503 . S
C1335 C1334 1.370 . S
C1335 C1336 1.403 . S
C1336 C1335 1.403 . S
C1336 C1337 1.404 . S
C1336 C1339 1.539 . S
C1337 C1333 1.408 . S
C1337 C1336 1.404 . S
C1337 H1349 0.930 . S
C1338 C1334 1.524 . S
C1338 H1350 0.956 . S
C1338 H1351 0.961 . S
C1338 H1352 0.961 . S
C1339 C1336 1.539 . S
C1339 H1353 0.958 . S
C1339 H1354 0.961 . S
C1339 H1355 0.960 . S
H1340 C1324 0.931 . S
H1341 C1329 0.929 . S
H1342 C1330 0.960 . S
H1343 C1330 0.962 . S
H1344 C1330 0.960 . S
H1345 C1331 0.961 . S
H1346 C1331 0.961 . S
H1347 C1331 0.961 . S
H1348 C1332 0.931 . S
H1349 C1337 0.930 . S
H1350 C1338 0.956 . S
H1351 C1338 0.961 . S
H1352 C1338 0.961 . S
H1353 C1339 0.958 . S
H1354 C1339 0.961 . S
H1355 C1339 0.960 . S
C397 N344 1.118 . S
C405 N14 1.057 . S
C429 N47 1.129 . S
C437 N377 1.112 . S
C461 N80 1.154 . S
C469 N212 1.103 . S
C493 N113 1.120 . S
C501 N245 1.071 . S
C525 N146 1.070 . S
C533 N278 1.137 . S
C557 N179 1.127 . S
C565 N311 1.130 . S
C589 N5 1.703 . S
C597 C173 1.700 . S
C621 C8 1.705 . S
C629 N38 1.699 . S
C653 C41 1.726 . S
C661 N71 1.692 . S
C685 N104 1.709 . S
C693 C74 1.728 . S
C717 N137 1.745 . S
C725 C107 1.746 . S
C749 N170 1.697 . S
C757 C140 1.712 . S
C781 C239 1.704 . S
C789 N203 1.679 . S
C813 N236 1.669 . S
C821 C272 1.711 . S
C845 N269 1.724 . S
C853 C305 1.724 . S
C877 N302 1.719 . S
C885 C338 1.736 . S
C909 N335 1.719 . S
C917 C371 1.723 . S
C941 N368 1.675 . S
C949 C206 1.716 . S
C973 C28 0.769 . S
C981 C325 0.709 . S
C1005 C61 0.797 . S
C1013 C358 0.780 . S
C1037 C94 0.757 . S
C1045 C391 0.778 . S
C1069 C127 0.828 . S
C1077 C226 0.767 . S
C1101 C160 0.748 . S
C1109 C259 0.716 . S
C1133 C292 0.734 . S
C1141 C193 0.765 . S
C1165 C215 1.353 . S
C1173 C17 1.388 . S
C1197 C50 1.353 . S
C1205 C248 1.388 . S
C1229 C83 1.401 . S
C1237 C281 1.408 . S
C1261 C314 1.399 . S
C1269 C116 1.422 . S
C1293 C149 1.382 . S
C1301 C347 1.401 . S
C1325 C380 1.407 . S
C1333 C182 1.407 . S
