# Generated by pormake.
# Topology yfz, (5)-cn, num edge types: 1
# Building blocks:
#     Node 0, Type 0, BuildingBlock: XOMCOT_clean_sbu_1, # of connection points: 5
#     Node 1, Type 0, BuildingBlock: XOMCOT_clean_sbu_1, # of connection points: 5
#     Node 2, Type 0, BuildingBlock: XOMCOT_clean_sbu_1, # of connection points: 5
#     Node 3, Type 0, BuildingBlock: XOMCOT_clean_sbu_1, # of connection points: 5
#     Node 4, Type 0, BuildingBlock: XOMCOT_clean_sbu_1, # of connection points: 5
#     Node 5, Type 0, BuildingBlock: XOMCOT_clean_sbu_1, # of connection points: 5
#     Node 6, Type 0, BuildingBlock: XOMCOT_clean_sbu_1, # of connection points: 5
#     Node 7, Type 0, BuildingBlock: XOMCOT_clean_sbu_1, # of connection points: 5
#     Edge 8, Type (0, 0), BuildingBlock: EZIPEK_clean_linker_0, # of connection points: 2
#     Edge 9, Type (0, 0), BuildingBlock: EZIPEK_clean_linker_0, # of connection points: 2
#     Edge 10, Type (0, 0), BuildingBlock: EZIPEK_clean_linker_0, # of connection points: 2
#     Edge 11, Type (0, 0), BuildingBlock: EZIPEK_clean_linker_0, # of connection points: 2
#     Edge 12, Type (0, 0), BuildingBlock: EZIPEK_clean_linker_0, # of connection points: 2
#     Edge 13, Type (0, 0), BuildingBlock: EZIPEK_clean_linker_0, # of connection points: 2
#     Edge 14, Type (0, 0), BuildingBlock: EZIPEK_clean_linker_0, # of connection points: 2
#     Edge 15, Type (0, 0), BuildingBlock: EZIPEK_clean_linker_0, # of connection points: 2
#     Edge 16, Type (0, 0), BuildingBlock: EZIPEK_clean_linker_0, # of connection points: 2
#     Edge 17, Type (0, 0), BuildingBlock: EZIPEK_clean_linker_0, # of connection points: 2
#     Edge 18, Type (0, 0), BuildingBlock: EZIPEK_clean_linker_0, # of connection points: 2
#     Edge 19, Type (0, 0), BuildingBlock: EZIPEK_clean_linker_0, # of connection points: 2
#     Edge 20, Type (0, 0), BuildingBlock: EZIPEK_clean_linker_0, # of connection points: 2
#     Edge 21, Type (0, 0), BuildingBlock: EZIPEK_clean_linker_0, # of connection points: 2
#     Edge 22, Type (0, 0), BuildingBlock: EZIPEK_clean_linker_0, # of connection points: 2
#     Edge 23, Type (0, 0), BuildingBlock: EZIPEK_clean_linker_0, # of connection points: 2
#     Edge 24, Type (0, 0), BuildingBlock: EZIPEK_clean_linker_0, # of connection points: 2
#     Edge 25, Type (0, 0), BuildingBlock: EZIPEK_clean_linker_0, # of connection points: 2
#     Edge 26, Type (0, 0), BuildingBlock: EZIPEK_clean_linker_0, # of connection points: 2
#     Edge 27, Type (0, 0), BuildingBlock: EZIPEK_clean_linker_0, # of connection points: 2
# Relax obj value: 0.151
# Max RMSD: 0.137
# Mean RMSD: 0.137
data_MOF--net-yfz--node1-XOMCOT_clean_sbu_1--edge1-EZIPEK_clean_linker_0
_symmetry_space_group_name_H-M    P1
_symmetry_Int_Tables_number       1
_symmetry_cell_setting            triclinic
loop_
_symmetry_equiv_pos_as_xyz
'x, y, z'
_cell_length_a     39.676772
_cell_length_b     39.819964
_cell_length_c     13.37525
_cell_angle_alpha  90.36242
_cell_angle_beta   89.730403
_cell_angle_gamma 90.221439
loop_
_atom_site_label
_atom_site_type_symbol
_atom_site_fract_x
_atom_site_fract_y
_atom_site_fract_z
_atom_type_partial_charge
C0 C 0.54213 0.07526 0.15735 0.0
C1 C 0.54123 0.07466 0.05444 0.0
N2 N 0.54417 0.10643 0.02207 0.0
N3 N 0.54516 0.10737 0.18964 0.0
C4 C 0.54638 0.12573 0.10491 0.0
H5 H 0.54274 0.05347 0.20502 0.0
Co6 Co 0.55481 0.12282 0.31997 0.0
C7 C 0.52685 0.17943 0.29066 0.0
O8 O 0.559 0.18306 0.26919 0.0
N9 N 0.5647 0.13838 0.44925 0.0
C10 C 0.59056 0.16359 0.57678 0.0
C11 C 0.58931 0.16035 0.47406 0.0
C12 C 0.55115 0.12884 0.53776 0.0
N13 N 0.56658 0.14358 0.61606 0.0
O14 O 0.52915 0.08662 0.37827 0.0
H15 H 0.60607 0.17228 0.42095 0.0
H16 H 0.53117 0.1105 0.5459 0.0
O17 O 0.51617 0.15087 0.3186 0.0
C18 C 0.49894 0.07712 0.36222 0.0
O19 O 0.48188 0.09034 0.28834 0.0
N20 N 0.59462 0.09823 0.319 0.0
C21 C 0.66162 0.07821 0.32089 0.0
C22 C 0.64952 0.09854 0.24441 0.0
C23 C 0.61625 0.10896 0.24644 0.0
C24 C 0.60526 0.07686 0.39176 0.0
C25 C 0.6391 0.06668 0.39456 0.0
H26 H 0.60823 0.12741 0.19284 0.0
H27 H 0.58834 0.06961 0.4515 0.0
H28 H 0.55136 0.15242 0.10313 0.0
H29 H 0.54076 0.05255 1.00691 0.0
H30 H 0.6085 0.17828 0.61948 0.0
H31 H 0.66637 0.10833 0.18752 0.0
H32 H 0.64794 0.05146 0.45582 0.0
C33 C 0.40596 0.56564 0.73435 0.0
C34 C 0.40901 0.56286 0.63217 0.0
N35 N 0.37974 0.55089 0.59563 0.0
N36 N 0.37522 0.55464 0.76321 0.0
C37 C 0.36044 0.54456 0.67701 0.0
H38 H 0.42374 0.57822 0.78291 0.0
Co39 Co 0.35673 0.56351 0.89139 0.0
C40 C 0.2823 0.56127 0.85008 0.0
O41 O 0.27892 0.59193 0.88444 0.0
N42 N 0.33918 0.57252 0.02386 0.0
C43 C 0.31779 0.59731 0.16076 0.0
C44 C 0.32039 0.59856 0.05826 0.0
C45 C 0.34724 0.55581 0.10877 0.0
N46 N 0.33543 0.57075 0.1926 0.0
O47 O 0.36874 0.51925 0.93281 0.0
H48 H 0.31123 0.61907 1.01377 0.0
H49 H 0.3625 0.53359 0.11106 0.0
O50 O 0.31135 0.54719 0.84792 0.0
C51 C 0.39995 0.51758 0.95515 0.0
O52 O 0.41894 0.54428 0.94218 0.0
N53 N 0.34906 0.608 0.85084 0.0
C54 C 0.35189 0.67363 0.78071 0.0
C55 C 0.33395 0.64903 0.72828 0.0
C56 C 0.33305 0.61632 0.7643 0.0
C57 C 0.3674 0.63161 0.90132 0.0
C58 C 0.36847 0.66485 0.86895 0.0
H59 H 0.32081 0.59752 0.71988 0.0
H60 H 0.38193 0.6244 0.96592 0.0
H61 H 0.33521 0.53487 0.67286 0.0
H62 H 0.42944 0.57289 0.58731 0.0
H63 H 0.30649 0.61618 0.2088 0.0
H64 H 0.32168 0.65485 0.65832 0.0
H65 H 0.38318 0.68323 0.91006 0.0
C66 C 0.90608 0.39574 0.259 0.0
C67 C 0.90804 0.39922 0.15689 0.0
N68 N 0.9153 0.36898 0.11727 0.0
N69 N 0.91255 0.36358 0.28369 0.0
C70 C 0.91852 0.34803 0.1953 0.0
H71 H 0.89777 0.4149 0.31095 0.0
Co72 Co 0.90506 0.34633 0.41183 0.0
C73 C 0.90986 0.2719 0.36162 0.0
O74 O 0.87749 0.26714 0.37514 0.0
N75 N 0.89724 0.33028 0.54386 0.0
C76 C 0.87798 0.30324 0.67877 0.0
C77 C 0.87766 0.30452 0.57609 0.0
C78 C 0.90808 0.34489 0.62971 0.0
N79 N 0.89719 0.32871 0.71178 0.0
O80 O 0.95049 0.35921 0.44781 0.0
H81 H 0.86187 0.28899 0.52991 0.0
H82 H 0.92228 0.36794 0.63368 0.0
O83 O 0.92278 0.30127 0.37165 0.0
C84 C 0.95257 0.38986 0.47528 0.0
O85 O 0.92489 0.40776 0.48051 0.0
N86 N 0.85965 0.33735 0.37591 0.0
C87 C 0.79231 0.34031 0.31706 0.0
C88 C 0.81598 0.32321 0.25844 0.0
C89 C 0.84958 0.32228 0.28866 0.0
C90 C 0.83671 0.35429 0.4333 0.0
C91 C 0.80279 0.35562 0.40615 0.0
H92 H 0.8674 0.30987 0.24026 0.0
H93 H 0.84497 0.36806 0.49875 0.0
H94 H 0.92137 0.32129 0.1867 0.0
H95 H 0.90149 0.42131 0.11452 0.0
H96 H 0.8638 0.28618 0.72573 0.0
H97 H 0.80871 0.31155 0.18833 0.0
H98 H 0.78513 0.36957 0.45221 0.0
C99 C 0.06716 0.89526 0.73031 0.0
C100 C 0.06258 0.89452 0.62831 0.0
N101 N 0.08986 0.90855 0.58545 0.0
N102 N 0.09722 0.90958 0.75124 0.0
C103 C 0.11029 0.91785 0.66108 0.0
H104 H 0.05062 0.8841 0.78546 0.0
Co105 Co 0.11646 0.90914 0.87851 0.0
C106 C 0.18969 0.91493 0.82228 0.0
O107 O 0.19653 0.88691 0.86919 0.0
N108 N 0.1341 0.90887 1.01032 0.0
C109 C 0.16242 0.91943 0.15125 0.0
C110 C 0.16363 0.9202 0.04859 0.0
C111 C 0.11516 0.90218 0.09252 0.0
N112 N 0.13187 0.90818 0.17834 0.0
O113 O 0.10198 0.9545 0.90064 0.0
H114 H 0.18431 0.93061 1.00699 0.0
H115 H 0.08898 0.89461 0.09002 0.0
O116 O 0.15959 0.92631 0.82222 0.0
C117 C 0.07234 0.95446 0.93732 0.0
O118 O 0.05704 0.92545 0.94951 0.0
N119 N 0.12753 0.86318 0.85752 0.0
C120 C 0.12607 0.79502 0.80543 0.0
C121 C 0.14413 0.81801 0.74744 0.0
C122 C 0.14372 0.85201 0.77323 0.0
C123 C 0.1107 0.84074 0.9165 0.0
C124 C 0.10975 0.80652 0.89206 0.0
H125 H 0.15449 0.86946 0.7214 0.0
H126 H 0.09565 0.84952 0.97855 0.0
H127 H 0.13522 0.92825 0.64998 0.0
H128 H 0.04193 0.88279 0.58842 0.0
H129 H 0.1817 0.92823 0.20219 0.0
H130 H 0.15643 0.81007 0.67882 0.0
H131 H 0.09497 0.78946 0.93751 0.0
C132 C 0.55224 0.42625 0.29802 0.0
C133 C 0.55126 0.43067 0.40024 0.0
N134 N 0.5351 0.40416 0.44028 0.0
N135 N 0.53663 0.39717 0.27383 0.0
C136 C 0.52542 0.38491 0.36207 0.0
H137 H 0.56558 0.44197 0.24528 0.0
Co138 Co 0.53803 0.3775 0.14584 0.0
C139 C 0.53283 0.30578 0.21317 0.0
O140 O 0.56369 0.29883 0.18431 0.0
N141 N 0.53872 0.35946 1.0139 0.0
C142 C 0.53896 0.32833 0.87423 0.0
C143 C 0.53981 0.32771 0.977 0.0
C144 C 0.53705 0.37882 0.93102 0.0
N145 N 0.53706 0.36049 0.84589 0.0
O146 O 0.49281 0.39162 0.12453 0.0
H147 H 0.54087 0.30506 0.01974 0.0
H148 H 0.53621 0.40594 0.93271 0.0
O149 O 0.52037 0.33495 0.19983 0.0
C150 C 0.4908 0.42217 0.09853 0.0
O151 O 0.51853 0.44017 0.09228 0.0
N152 N 0.58408 0.3656 0.16686 0.0
C153 C 0.65284 0.35635 0.20153 0.0
C154 C 0.62919 0.34953 0.27627 0.0
C155 C 0.59508 0.35449 0.25775 0.0
C156 C 0.60709 0.37308 0.09385 0.0
C157 C 0.6416 0.36802 0.10896 0.0
H158 H 0.57755 0.3488 0.31685 0.0
H159 H 0.59901 0.38386 0.02418 0.0
H160 H 0.51263 0.3611 0.37004 0.0
H161 H 0.56394 0.45022 0.44246 0.0
H162 H 0.53961 0.3069 0.82405 0.0
H163 H 0.63708 0.34069 0.34892 0.0
H164 H 0.65942 0.37404 0.05008 0.0
C165 C 0.03451 0.56278 0.79736 0.0
C166 C 0.03092 0.56243 0.8996 0.0
N167 N 0.05684 0.54513 0.93672 0.0
N168 N 0.06346 0.5471 0.77036 0.0
C169 C 0.07518 0.53488 0.85751 0.0
H170 H 0.0166 0.57362 0.74669 0.0
Co171 Co 0.08153 0.54296 0.63912 0.0
C172 C 0.14666 0.54303 0.75814 0.0
O173 O 0.13618 0.56863 0.81223 0.0
N174 N 0.09762 0.5377 0.5094 0.0
C175 C 0.1214 0.51402 0.37564 0.0
C176 C 0.12027 0.51462 0.47818 0.0
C177 C 0.08417 0.54979 0.42446 0.0
N178 N 0.09809 0.53554 0.34222 0.0
O179 O 0.06774 0.49678 0.63478 0.0
H180 H 0.13328 0.49735 0.52651 0.0
H181 H 0.06299 0.56684 0.42298 0.0
O182 O 0.12722 0.53023 0.69129 0.0
C183 C 0.03654 0.49279 0.61555 0.0
O184 O 0.01685 0.51924 0.61646 0.0
N185 N 0.09306 0.5896 0.63703 0.0
C186 C 0.10554 0.65777 0.6683 0.0
C187 C 0.07246 0.64567 0.66242 0.0
C188 C 0.06685 0.6116 0.64295 0.0
C189 C 0.12503 0.60201 0.62625 0.0
C190 C 0.13201 0.63598 0.64427 0.0
H191 H 0.04139 0.60276 0.6339 0.0
H192 H 0.14553 0.58571 0.60727 0.0
H193 H 0.09681 0.51889 0.86381 0.0
H194 H 0.01128 0.57437 0.94342 0.0
H195 H 0.13591 0.49698 0.32919 0.0
H196 H 0.05124 0.66226 0.67442 0.0
H197 H 0.15782 0.64492 0.64254 0.0
C198 C 0.91803 0.01994 0.34742 0.0
C199 C 0.9207 0.01715 0.44952 0.0
N200 N 0.9325 0.04647 0.48609 0.0
N201 N 0.92898 0.05055 0.31871 0.0
C202 C 0.93866 0.06571 0.405 0.0
H203 H 0.90581 0.00198 0.29845 0.0
Co204 Co 0.92067 0.0688 0.19071 0.0
C205 C 0.9157 0.142 0.25234 0.0
O206 O 0.88376 0.14326 0.22878 0.0
N207 N 0.91261 0.08667 0.05994 0.0
C208 C 0.89088 0.11126 0.92491 0.0
C209 C 0.88923 0.10874 0.02739 0.0
C210 C 0.92814 0.07652 0.97441 0.0
N211 N 0.91513 0.09051 0.89172 0.0
O212 O 0.96707 0.06081 0.15118 0.0
H213 H 0.86981 0.12004 0.0726 0.0
H214 H 0.94806 0.05844 0.97121 0.0
O215 O 0.93255 0.11477 0.24072 0.0
C216 C 0.97487 0.02998 0.13661 0.0
O217 O 0.95396 0.00653 0.1669 0.0
N218 N 0.87432 0.07253 0.22579 0.0
C219 C 0.80579 0.06981 0.27409 0.0
C220 C 0.82912 0.08284 0.34226 0.0
C221 C 0.86319 0.08403 0.31658 0.0
C222 C 0.85212 0.05739 0.16186 0.0
C223 C 0.8176 0.0567 0.18309 0.0
H224 H 0.88051 0.09432 0.37002 0.0
H225 H 0.86118 0.04587 0.09345 0.0
H226 H 0.94725 0.09138 0.40967 0.0
H227 H 0.91088 -0.00324 0.4944 0.0
H228 H 0.87367 0.12495 0.87778 0.0
H229 H 0.82093 0.09259 0.41415 0.0
H230 H 0.8003 0.04582 0.12937 0.0
C231 C 0.43015 0.89717 0.79233 0.0
C232 C 0.43559 0.89794 0.89377 0.0
N233 N 0.41822 0.9239 0.93251 0.0
N234 N 0.4087 0.92199 0.76752 0.0
C235 C 0.40359 0.93906 0.85388 0.0
H236 H 0.43934 0.87823 0.7408 0.0
Co237 Co 0.39073 0.92624 0.6385 0.0
C238 C 0.32422 0.94222 0.7593 0.0
O239 O 0.33385 0.93689 0.85146 0.0
N240 N 0.37488 0.93104 0.50652 0.0
C241 C 0.34658 0.94666 0.37088 0.0
C242 C 0.34548 0.94398 0.47338 0.0
C243 C 0.39355 0.9267 0.42248 0.0
N244 N 0.3769 0.93593 0.3397 0.0
O245 O 0.40562 0.97163 0.63428 0.0
H246 H 0.32473 0.95212 0.51995 0.0
H247 H 0.41909 0.91732 0.42158 0.0
O248 O 0.34507 0.93921 0.68642 0.0
C249 C 0.43426 0.97249 0.5912 0.0
O250 O 0.44928 0.94373 0.57248 0.0
N251 N 0.37771 0.88033 0.64025 0.0
C252 C 0.36677 0.81142 0.65796 0.0
C253 C 0.35463 0.8336 0.73057 0.0
C254 C 0.36026 0.86782 0.72013 0.0
C255 C 0.38965 0.85891 0.56828 0.0
C256 C 0.38373 0.82431 0.57441 0.0
H257 H 0.35221 0.88387 0.7798 0.0
H258 H 0.40511 0.86816 0.50804 0.0
H259 H 0.38829 0.96137 0.86027 0.0
H260 H 0.44873 0.8792 0.93688 0.0
H261 H 0.32684 0.95595 0.3229 0.0
H262 H 0.3418 0.82443 0.79675 0.0
H263 H 0.39377 0.80764 0.51741 0.0
C264 C 0.48551 0.00513 0.54493 0.0
C265 C 0.44982 0.00384 0.5513 0.0
C266 C 0.44808 0.0566 0.45833 0.0
C267 C 0.48247 0.05257 0.4306 0.0
N268 N 0.53225 0.01742 0.43581 0.0
N269 N 0.39642 0.02762 0.49732 0.0
C270 C 0.50093 0.02545 0.47121 0.0
C271 C 0.43071 0.02949 0.50431 0.0
N272 N 0.50475 0.98707 0.60953 0.0
N273 N 0.43218 0.08658 0.44486 0.0
H274 H 0.38185 0.00815 0.52557 0.0
H275 H 0.38258 0.04422 0.45379 0.0
H276 H 0.44463 0.10803 0.41951 0.0
H277 H 0.40789 0.09121 0.47156 0.0
H278 H 0.53094 0.9892 0.61189 0.0
H279 H 0.49422 0.9734 0.66834 0.0
H280 H 0.54518 -0.00388 0.45898 0.0
H281 H 0.54345 0.02927 0.37492 0.0
C282 C 0.43921 0.43201 0.99435 0.0
C283 C 0.4582 0.43894 0.08152 0.0
C284 C 0.43176 0.49371 0.1 0.0
C285 C 0.41459 0.48835 1.00766 0.0
N286 N 0.39519 0.4496 0.88035 0.0
N287 N 0.46297 0.46893 0.23651 0.0
C288 C 0.41563 0.4563 0.96009 0.0
C289 C 0.451 0.46733 0.14092 0.0
N290 N 0.44528 0.40323 0.94142 0.0
N291 N 0.43134 0.52446 0.14623 0.0
H292 H 0.47692 0.44943 0.26752 0.0
H293 H 0.4561 0.48749 0.28782 0.0
H294 H 0.41721 0.5447 0.12167 0.0
H295 H 0.44684 0.53074 0.20618 0.0
H296 H 0.43514 0.39809 0.87144 0.0
H297 H 0.4613 0.38454 0.96719 0.0
H298 H 0.39242 0.42589 0.84827 0.0
H299 H 0.379 0.46723 0.84971 0.0
C300 C 0.99375 0.43359 0.43168 0.0
C301 C 0.98498 0.40708 0.49595 0.0
C302 C 0.02103 0.43128 0.62703 0.0
C303 C 0.02364 0.46116 0.56987 0.0
N304 N 0.01276 0.49088 0.41604 0.0
N305 N 0.99382 0.37666 0.64752 0.0
C306 C 0.01055 0.46214 0.47098 0.0
C307 C 0.00032 0.40436 0.59098 0.0
N308 N 0.98581 0.43114 0.33264 0.0
N309 N 0.03739 0.42917 0.71644 0.0
H310 H 0.98117 0.35582 0.61828 0.0
H311 H 0.00074 0.37414 0.72198 0.0
H312 H 0.05169 0.44888 0.74582 0.0
H313 H 0.03843 0.4075 0.75928 0.0
H314 H 0.99363 0.44837 0.27902 0.0
H315 H 0.97446 0.40961 0.30294 0.0
H316 H -0.00057 0.49468 0.35019 0.0
H317 H 0.02713 0.51156 0.43769 0.0
C318 C 0.99385 0.00062 0.97949 0.0
C319 C 0.00232 0.01994 0.06625 0.0
C320 C 0.06243 0.00783 0.03681 0.0
C321 C 0.05284 0.98542 0.95924 0.0
N322 N 0.01384 0.97296 0.82848 0.0
N323 N 0.04456 0.04657 0.16901 0.0
C324 C 0.01992 0.98632 0.92102 0.0
C325 C 0.03677 0.02573 0.09078 0.0
N326 N 0.96094 0.99392 0.95602 0.0
N327 N 0.09582 0.01141 0.05884 0.0
H328 H 0.02629 0.05949 0.21 0.0
H329 H 0.06886 0.05156 0.19369 0.0
H330 H 0.11458 -0.00078 0.01781 0.0
H331 H 0.10535 0.02699 0.1146 0.0
H332 H 0.95381 0.97642 0.90185 0.0
H333 H 0.94038 0.00407 0.99398 0.0
H334 H 0.99101 0.97548 0.79118 0.0
H335 H 0.03315 0.96265 0.7848 0.0
C336 C 0.49387 0.22204 0.20201 0.0
C337 C 0.50607 0.20981 0.29367 0.0
C338 C 0.51913 0.26633 0.35102 0.0
C339 C 0.51232 0.278 0.25334 0.0
N340 N 0.48142 0.27095 0.10065 0.0
N341 N 0.51608 0.21962 0.4672 0.0
C342 C 0.49504 0.25717 0.18428 0.0
C343 C 0.51295 0.2321 0.37307 0.0
N344 N 0.48414 0.19968 0.12993 0.0
N345 N 0.53417 0.28714 0.41902 0.0
H346 H 0.51203 0.19415 0.48127 0.0
H347 H 0.51957 0.23451 0.53061 0.0
H348 H 0.53892 0.31234 0.40398 0.0
H349 H 0.54305 0.27924 0.48805 0.0
H350 H 0.4784 0.20634 0.05685 0.0
H351 H 0.48264 0.17397 0.1445 0.0
H352 H 0.46725 0.25741 0.04884 0.0
H353 H 0.48195 0.29682 0.08858 0.0
C354 C 0.20637 0.53971 0.6923 0.0
C355 C 0.18267 0.5327 0.76944 0.0
C356 C 0.22839 0.53201 0.89276 0.0
C357 C 0.25108 0.54354 0.81822 0.0
N358 N 0.26398 0.55164 0.64407 0.0
N359 N 0.17246 0.51071 0.93329 0.0
C360 C 0.24085 0.54472 0.7168 0.0
C361 C 0.19429 0.52498 0.86668 0.0
N362 N 0.19558 0.54392 0.59666 0.0
N363 N 0.23924 0.52938 0.98928 0.0
H364 H 0.14803 0.50398 0.91297 0.0
H365 H 0.1792 0.50248 1.00407 0.0
H366 H 0.26447 0.53263 1.00907 0.0
H367 H 0.22339 0.525 0.05004 0.0
H368 H 0.20983 0.55436 0.53921 0.0
H369 H 0.17162 0.53712 0.57447 0.0
H370 H 0.25986 0.54877 0.56777 0.0
H371 H 0.28833 0.55884 0.66055 0.0
C372 C 0.92489 0.18228 0.39421 0.0
C373 C 0.93108 0.17327 0.29278 0.0
C374 C 0.94331 0.2323 0.2538 0.0
C375 C 0.93072 0.24125 0.34914 0.0
N376 N 0.92451 0.22644 0.52088 0.0
N377 N 0.95211 0.1879 0.1299 0.0
C378 C 0.927 0.21654 0.42324 0.0
C379 C 0.94305 0.19775 0.22426 0.0
N380 N 0.91418 0.15857 0.46043 0.0
N381 N 0.9554 0.25695 0.1931 0.0
H382 H 0.95292 0.16262 0.10877 0.0
H383 H 0.95881 0.20428 0.07291 0.0
H384 H 0.95847 0.28141 0.21982 0.0
H385 H 0.96511 0.253 0.12168 0.0
H386 H 0.90536 0.16396 0.53212 0.0
H387 H 0.9128 0.1333 0.44167 0.0
H388 H 0.92396 0.20992 0.58088 0.0
H389 H 0.92645 0.25172 0.54143 0.0
C390 C 0.26992 0.91987 0.68321 0.0
C391 C 0.28724 0.94455 0.74153 0.0
C392 C 0.23378 0.96047 0.8222 0.0
C393 C 0.21797 0.9331 0.77322 0.0
N394 N 0.21585 0.89896 0.62572 0.0
N395 N 0.28402 0.99534 0.83915 0.0
C396 C 0.23445 0.9169 0.69305 0.0
C397 C 0.26842 0.96737 0.80163 0.0
N398 N 0.28701 0.89752 0.62431 0.0
N399 N 0.21599 0.97887 0.89059 0.0
H400 H 0.30919 0.00093 0.82292 0.0
H401 H 0.27161 0.01425 0.87856 0.0
H402 H 0.19 0.97607 0.8993 0.0
H403 H 0.22676 -0.00346 0.93847 0.0
H404 H 0.27585 0.8761 0.5937 0.0
H405 H 0.31253 0.8992 0.60856 0.0
H406 H 0.22587 0.88851 0.5605 0.0
H407 H 0.18962 0.89874 0.62896 0.0
C408 C 0.392 0.75471 0.6919 0.0
C409 C 0.36313 0.77479 0.67469 0.0
C410 C 0.32656 0.72873 0.72929 0.0
C411 C 0.35531 0.70796 0.73952 0.0
N412 N 0.41407 0.69833 0.70148 0.0
N413 N 0.30296 0.77817 0.65223 0.0
C414 C 0.38765 0.72004 0.71149 0.0
C415 C 0.33036 0.76084 0.68523 0.0
N416 N 0.4234 0.76888 0.69568 0.0
N417 N 0.29599 0.71858 0.76598 0.0
H418 H 0.30501 0.80154 0.61777 0.0
H419 H 0.27877 0.76792 0.64982 0.0
H420 H 0.29229 0.6956 0.80144 0.0
H421 H 0.27504 0.73424 0.76956 0.0
H422 H 0.44465 0.75573 0.71858 0.0
H423 H 0.42789 0.79443 0.68561 0.0
H424 H 0.43737 0.70549 0.67213 0.0
H425 H 0.41163 0.6725 0.71226 0.0
C426 C 0.73512 0.31578 0.27979 0.0
C427 C 0.75704 0.344 0.282 0.0
C428 C 0.71061 0.38059 0.23221 0.0
C429 C 0.68932 0.35203 0.2227 0.0
N430 N 0.68308 0.29178 0.21688 0.0
N431 N 0.76788 0.4017 0.23737 0.0
C432 C 0.70215 0.31937 0.24023 0.0
C433 C 0.74545 0.37597 0.25121 0.0
N434 N 0.74531 0.28588 0.31898 0.0
N435 N 0.69736 0.41219 0.22783 0.0
H436 H 0.79373 0.39917 0.24895 0.0
H437 H 0.76131 0.42449 0.20512 0.0
H438 H 0.67187 0.41679 0.2155 0.0
H439 H 0.71109 0.43376 0.24537 0.0
H440 H 0.72918 0.26548 0.32927 0.0
H441 H 0.7692 0.28232 0.34929 0.0
H442 H 0.6923 0.26733 0.21867 0.0
H443 H 0.65897 0.29349 0.1865 0.0
C444 C 0.13545 0.73277 0.82434 0.0
C445 C 0.12148 0.75976 0.76983 0.0
C446 C 0.10177 0.72013 0.64132 0.0
C447 C 0.11227 0.69294 0.70143 0.0
N448 N 0.13354 0.6732 0.85949 0.0
N449 N 0.08518 0.77851 0.6369 0.0
C450 C 0.12767 0.69918 0.79556 0.0
C451 C 0.10295 0.7533 0.68101 0.0
N452 N 0.15688 0.73918 0.90189 0.0
N453 N 0.09144 0.71438 0.54537 0.0
H454 H 0.08428 0.80291 0.66557 0.0
H455 H 0.06861 0.77449 0.57781 0.0
H456 H 0.09068 0.69044 0.51331 0.0
H457 H 0.0868 0.73358 0.49475 0.0
H458 H 0.17059 0.72052 0.93754 0.0
H459 H 0.16333 0.76345 0.92472 0.0
H460 H 0.1413 0.6767 0.93313 0.0
H461 H 0.12773 0.64827 0.84232 0.0
C462 C 0.74985 0.04067 0.3017 0.0
C463 C 0.76904 0.07086 0.297 0.0
C464 C 0.71879 0.1029 0.34282 0.0
C465 C 0.69868 0.07378 0.3287 0.0
N466 N 0.69457 0.01496 0.28654 0.0
N467 N 0.76998 0.13165 0.29552 0.0
C468 C 0.71405 0.04251 0.30673 0.0
C469 C 0.75311 0.10229 0.31365 0.0
N470 N 0.76582 0.01035 0.30391 0.0
N471 N 0.70495 0.13121 0.3839 0.0
H472 H 0.79464 0.13257 0.26844 0.0
H473 H 0.75829 0.15504 0.2971 0.0
H474 H 0.67989 0.13224 0.40777 0.0
H475 H 0.71921 0.15221 0.40394 0.0
H476 H 0.75324 0.98774 0.31646 0.0
H477 H 0.792 0.00812 0.30311 0.0
H478 H 0.70436 0.99249 0.25894 0.0
H479 H 0.66833 0.01531 0.29086 0.0
C480 C 0.58534 0.11512 0.76952 0.0
C481 C 0.56154 0.13543 0.71988 0.0
C482 C 0.5254 0.13534 0.86927 0.0
C483 C 0.55029 0.11695 0.92072 0.0
N484 N 0.60674 0.09536 0.92804 0.0
N485 N 0.51137 0.16886 0.72417 0.0
C486 C 0.58112 0.10856 0.87311 0.0
C487 C 0.5322 0.14671 0.77044 0.0
N488 N 0.61119 0.10098 0.71644 0.0
N489 N 0.49496 0.14093 0.91428 0.0
H490 H 0.5161 0.1775 0.65206 0.0
H491 H 0.49108 0.18058 0.75937 0.0
H492 H 0.48952 0.13274 0.98653 0.0
H493 H 0.47442 0.15148 0.87812 0.0
H494 H 0.62745 0.08318 0.74604 0.0
H495 H 0.61458 0.10483 0.64 0.0
H496 H 0.63097 0.09166 0.89992 0.0
H497 H 0.60461 0.09106 1.00464 0.0
C498 C 0.36945 0.58771 0.44991 0.0
C499 C 0.3677 0.55547 0.49442 0.0
C500 C 0.341 0.53369 0.34134 0.0
C501 C 0.34688 0.56494 0.29371 0.0
N502 N 0.37644 0.61796 0.29562 0.0
N503 N 0.35589 0.49646 0.47764 0.0
C504 C 0.36395 0.59089 0.34597 0.0
C505 C 0.35454 0.528 0.43868 0.0
N506 N 0.37479 0.61567 0.50735 0.0
N507 N 0.32166 0.50994 0.29484 0.0
H508 H 0.36603 0.49173 0.54796 0.0
H509 H 0.34959 0.47491 0.43722 0.0
H510 H 0.31104 0.5138 0.22467 0.0
H511 H 0.31388 0.48781 0.32918 0.0
H512 H 0.37333 0.63995 0.47902 0.0
H513 H 0.37648 0.61488 0.58492 0.0
H514 H 0.39155 0.63619 0.32958 0.0
H515 H 0.37533 0.61996 0.21803 0.0
C516 C 0.93899 0.34829 0.95758 0.0
C517 C 0.91084 0.35894 1.01466 0.0
C518 C 0.8744 0.35241 0.86865 0.0
C519 C 0.9019 0.33909 0.81393 0.0
N520 N 0.95906 0.31953 0.80819 0.0
N521 N 0.85059 0.36424 0.0319 0.0
C522 C 0.93394 0.33575 0.85892 0.0
C523 C 0.87815 0.3591 0.97224 0.0
N524 N 0.9705 0.35095 0.99743 0.0
N525 N 0.84507 0.3597 0.82055 0.0
H526 H 0.85232 0.36825 0.10873 0.0
H527 H 0.8259 0.36128 1.00703 0.0
H528 H 0.84188 0.35574 0.74403 0.0
H529 H 0.82518 0.37253 0.85439 0.0
H530 H 0.99252 0.34664 0.95676 0.0
H531 H 0.97462 0.35996 0.06979 0.0
H532 H 0.98218 0.3135 0.83972 0.0
H533 H 0.95571 0.3098 0.73631 0.0
C534 C 0.10397 0.93667 0.3207 0.0
C535 C 0.11865 0.90738 0.27868 0.0
C536 C 0.11361 0.87854 0.43924 0.0
C537 C 0.09851 0.9077 0.48089 0.0
N538 N 0.07523 0.96272 0.46234 0.0
N539 N 0.13405 0.84944 0.29036 0.0
C540 C 0.09243 0.93628 0.42158 0.0
C541 C 0.12237 0.87793 0.33594 0.0
N542 N 0.10203 0.96498 0.26409 0.0
N543 N 0.12029 0.85191 0.49977 0.0
H544 H 0.14107 0.84882 0.21508 0.0
H545 H 0.13498 0.82606 0.32449 0.0
H546 H 0.11325 0.85153 0.57484 0.0
H547 H 0.13405 0.83092 0.47777 0.0
H548 H 0.09429 0.98828 0.29104 0.0
H549 H 0.10984 0.96535 0.18969 0.0
H550 H 0.06731 0.9835 0.42209 0.0
H551 H 0.06709 0.96292 0.53665 0.0
C552 C 0.56678 0.38678 0.59081 0.0
C553 C 0.53561 0.39395 0.54366 0.0
C554 C 0.50538 0.37593 0.69438 0.0
C555 C 0.53648 0.37253 0.74465 0.0
N556 N 0.59671 0.37807 0.74638 0.0
N557 N 0.47545 0.39954 0.55351 0.0
C558 C 0.56718 0.37917 0.69449 0.0
C559 C 0.50491 0.38966 0.59644 0.0
N560 N 0.5957 0.38521 0.5352 0.0
N561 N 0.47651 0.36488 0.73932 0.0
H562 H 0.4746 0.40994 0.48216 0.0
H563 H 0.45247 0.40003 0.59144 0.0
H564 H 0.47643 0.35439 0.81057 0.0
H565 H 0.45333 0.36361 0.70326 0.0
H566 H 0.61861 0.37687 0.56327 0.0
H567 H 0.59618 0.38898 0.45827 0.0
H568 H 0.61972 0.38605 0.71702 0.0
H569 H 0.59769 0.37145 0.82166 0.0
C570 C 0.05742 0.51436 0.09527 0.0
C571 C 0.06643 0.54305 0.03978 0.0
C572 C 0.09423 0.56782 0.18618 0.0
C573 C 0.08672 0.53832 0.24059 0.0
N574 N 0.06438 0.48192 0.24629 0.0
N575 N 0.09559 0.59578 0.02507 0.0
C576 C 0.06919 0.51109 0.19488 0.0
C577 C 0.08536 0.56955 0.08342 0.0
N578 N 0.03686 0.49074 0.05264 0.0
N579 N 0.11004 0.59399 0.23334 0.0
H580 H 0.08886 0.59789 0.95012 0.0
H581 H 0.11213 0.61454 0.04844 0.0
H582 H 0.11854 0.59254 0.30683 0.0
H583 H 0.11351 0.61759 0.20193 0.0
H584 H 0.02621 0.47071 0.09138 0.0
H585 H 0.02858 0.49248 0.97892 0.0
H586 H 0.05546 0.45979 0.21397 0.0
H587 H 0.07076 0.47918 0.32115 0.0
C588 C 0.89608 0.05785 0.63378 0.0
C589 C 0.92847 0.05832 0.58807 0.0
C590 C 0.95186 0.08314 0.7418 0.0
C591 C 0.92015 0.07914 0.78985 0.0
N592 N 0.86498 0.05371 0.78881 0.0
N593 N 0.98817 0.06716 0.60246 0.0
C594 C 0.89308 0.06391 0.73786 0.0
C595 C 0.95671 0.06986 0.64327 0.0
N596 N 0.86789 0.05305 0.57731 0.0
N597 N 0.9769 0.10041 0.78945 0.0
H598 H 0.99225 0.05732 0.53096 0.0
H599 H 0.0102 0.07213 0.64201 0.0
H600 H 0.97375 0.11055 0.86098 0.0
H601 H -0.00036 0.10691 0.75539 0.0
H602 H 0.84356 0.05582 0.60579 0.0
H603 H 0.86869 0.05007 0.50006 0.0
H604 H 0.84577 0.03966 0.75574 0.0
H605 H 0.86273 0.05576 0.86629 0.0
C606 C 0.4104 0.95699 0.1966 0.0
C607 C 0.3882 0.93272 0.23782 0.0
C608 C 0.38425 0.90415 0.07606 0.0
C609 C 0.40798 0.92723 0.03564 0.0
N610 N 0.44615 0.9735 0.05652 0.0
N611 N 0.35828 0.88046 0.22443 0.0
C612 C 0.42177 0.95315 0.09585 0.0
C613 C 0.37633 0.90552 0.17951 0.0
N614 N 0.41985 0.98393 0.25373 0.0
N615 N 0.36846 0.88164 1.01455 0.0
H616 H 0.35215 0.88092 0.30035 0.0
H617 H 0.35179 0.85802 0.18895 0.0
H618 H 0.37386 0.87966 0.93866 0.0
H619 H 0.3482 0.86671 0.03673 0.0
H620 H 0.43382 0.00418 0.22705 0.0
H621 H 0.41199 0.98681 0.32775 0.0
H622 H 0.45954 0.99128 0.09778 0.0
H623 H 0.45434 0.97116 0.98255 0.0
loop_
_geom_bond_atom_site_label_1
_geom_bond_atom_site_label_2
_geom_bond_distance
_geom_bond_site_symmetry_2
_ccdc_geom_bond_type
C0 C1 1.351 . S
C0 N3 1.368 . S
C0 H5 0.931 . S
C1 C0 1.351 . S
C1 N2 1.373 . S
C1 H29 0.930 . S
N2 C1 1.373 . S
N2 C4 1.340 . S
N3 C0 1.368 . S
N3 C4 1.321 . S
N3 Co6 2.135 . S
C4 N2 1.340 . S
C4 N3 1.321 . S
C4 H28 0.930 . S
H5 C0 0.931 . S
Co6 N3 2.135 . S
Co6 N9 2.121 . S
Co6 O14 2.055 . S
Co6 O17 2.039 . S
Co6 N20 2.140 . S
C7 O8 1.227 . S
C7 O17 1.265 . S
O8 C7 1.227 . S
N9 Co6 2.121 . S
N9 C11 1.375 . S
N9 C12 1.313 . S
C10 C11 1.338 . S
C10 N13 1.377 . S
C10 H30 0.930 . S
C11 N9 1.375 . S
C11 C10 1.338 . S
C11 H15 0.931 . S
C12 N9 1.313 . S
C12 N13 1.344 . S
C12 H16 0.930 . S
N13 C10 1.377 . S
N13 C12 1.344 . S
O14 Co6 2.055 . S
O14 C18 1.253 . S
H15 C11 0.931 . S
H16 C12 0.930 . S
O17 Co6 2.039 . S
O17 C7 1.265 . S
C18 O14 1.253 . S
C18 O19 1.227 . S
O19 C18 1.227 . S
N20 Co6 2.140 . S
N20 C23 1.346 . S
N20 C24 1.345 . S
C21 C22 1.387 . S
C21 C25 1.391 . S
C22 C21 1.387 . S
C22 C23 1.369 . S
C22 H31 0.929 . S
C23 N20 1.346 . S
C23 C22 1.369 . S
C23 H26 0.928 . S
C24 N20 1.345 . S
C24 C25 1.371 . S
C24 H27 0.931 . S
C25 C21 1.391 . S
C25 C24 1.371 . S
C25 H32 0.930 . S
H26 C23 0.928 . S
H27 C24 0.931 . S
H28 C4 0.930 . S
H29 C1 0.930 . S
H30 C10 0.930 . S
H31 C22 0.929 . S
H32 C25 0.930 . S
C33 C34 1.351 . S
C33 N36 1.368 . S
C33 H38 0.931 . S
C34 C33 1.351 . S
C34 N35 1.373 . S
C34 H62 0.930 . S
N35 C34 1.373 . S
N35 C37 1.340 . S
N36 C33 1.368 . S
N36 C37 1.321 . S
N36 Co39 2.135 . S
C37 N35 1.340 . S
C37 N36 1.321 . S
C37 H61 0.930 . S
H38 C33 0.931 . S
Co39 N36 2.135 . S
Co39 N42 2.121 . S
Co39 O47 2.055 . S
Co39 O50 2.039 . S
Co39 N53 2.140 . S
C40 O41 1.227 . S
C40 O50 1.265 . S
O41 C40 1.227 . S
N42 Co39 2.121 . S
N42 C44 1.374 1_556 S
N42 C45 1.313 1_556 S
C43 C44 1.341 . S
C43 N46 1.377 . S
C43 H63 0.930 . S
C44 N42 1.374 1_554 S
C44 C43 1.341 . S
C44 H48 0.929 1_554 S
C45 N42 1.313 1_554 S
C45 N46 1.344 . S
C45 H49 0.930 . S
N46 C43 1.377 . S
N46 C45 1.344 . S
O47 Co39 2.055 . S
O47 C51 1.253 . S
H48 C44 0.929 1_556 S
H49 C45 0.930 . S
O50 Co39 2.039 . S
O50 C40 1.265 . S
C51 O47 1.253 . S
C51 O52 1.227 . S
O52 C51 1.227 . S
N53 Co39 2.140 . S
N53 C56 1.346 . S
N53 C57 1.345 . S
C54 C55 1.387 . S
C54 C58 1.391 . S
C55 C54 1.387 . S
C55 C56 1.369 . S
C55 H64 0.929 . S
C56 N53 1.346 . S
C56 C55 1.369 . S
C56 H59 0.928 . S
C57 N53 1.345 . S
C57 C58 1.371 . S
C57 H60 0.931 . S
C58 C54 1.391 . S
C58 C57 1.371 . S
C58 H65 0.930 . S
H59 C56 0.928 . S
H60 C57 0.931 . S
H61 C37 0.930 . S
H62 C34 0.930 . S
H63 C43 0.930 . S
H64 C55 0.929 . S
H65 C58 0.930 . S
C66 C67 1.351 . S
C66 N69 1.368 . S
C66 H71 0.931 . S
C67 C66 1.351 . S
C67 N68 1.373 . S
C67 H95 0.930 . S
N68 C67 1.373 . S
N68 C70 1.340 . S
N69 C66 1.368 . S
N69 C70 1.321 . S
N69 Co72 2.135 . S
C70 N68 1.340 . S
C70 N69 1.321 . S
C70 H94 0.930 . S
H71 C66 0.931 . S
Co72 N69 2.135 . S
Co72 N75 2.121 . S
Co72 O80 2.055 . S
Co72 O83 2.039 . S
Co72 N86 2.140 . S
C73 O74 1.227 . S
C73 O83 1.265 . S
O74 C73 1.227 . S
N75 Co72 2.121 . S
N75 C77 1.375 . S
N75 C78 1.313 . S
C76 C77 1.338 . S
C76 N79 1.377 . S
C76 H96 0.930 . S
C77 N75 1.375 . S
C77 C76 1.338 . S
C77 H81 0.931 . S
C78 N75 1.313 . S
C78 N79 1.344 . S
C78 H82 0.930 . S
N79 C76 1.377 . S
N79 C78 1.344 . S
O80 Co72 2.055 . S
O80 C84 1.253 . S
H81 C77 0.931 . S
H82 C78 0.930 . S
O83 Co72 2.039 . S
O83 C73 1.265 . S
C84 O80 1.253 . S
C84 O85 1.227 . S
O85 C84 1.227 . S
N86 Co72 2.140 . S
N86 C89 1.346 . S
N86 C90 1.345 . S
C87 C88 1.387 . S
C87 C91 1.391 . S
C88 C87 1.387 . S
C88 C89 1.369 . S
C88 H97 0.929 . S
C89 N86 1.346 . S
C89 C88 1.369 . S
C89 H92 0.928 . S
C90 N86 1.345 . S
C90 C91 1.371 . S
C90 H93 0.931 . S
C91 C87 1.391 . S
C91 C90 1.371 . S
C91 H98 0.930 . S
H92 C89 0.928 . S
H93 C90 0.931 . S
H94 C70 0.930 . S
H95 C67 0.930 . S
H96 C76 0.930 . S
H97 C88 0.929 . S
H98 C91 0.930 . S
C99 C100 1.351 . S
C99 N102 1.368 . S
C99 H104 0.931 . S
C100 C99 1.351 . S
C100 N101 1.373 . S
C100 H128 0.930 . S
N101 C100 1.373 . S
N101 C103 1.340 . S
N102 C99 1.368 . S
N102 C103 1.321 . S
N102 Co105 2.135 . S
C103 N101 1.340 . S
C103 N102 1.321 . S
C103 H127 0.930 . S
H104 C99 0.931 . S
Co105 N102 2.135 . S
Co105 N108 2.121 . S
Co105 O113 2.055 . S
Co105 O116 2.039 . S
Co105 N119 2.140 . S
C106 O107 1.227 . S
C106 O116 1.265 . S
O107 C106 1.227 . S
N108 Co105 2.121 . S
N108 C110 1.374 1_556 S
N108 C111 1.313 1_556 S
C109 C110 1.341 . S
C109 N112 1.377 . S
C109 H129 0.930 . S
C110 N108 1.374 1_554 S
C110 C109 1.341 . S
C110 H114 0.929 1_554 S
C111 N108 1.313 1_554 S
C111 N112 1.344 . S
C111 H115 0.930 . S
N112 C109 1.377 . S
N112 C111 1.344 . S
O113 Co105 2.055 . S
O113 C117 1.253 . S
H114 C110 0.929 1_556 S
H115 C111 0.930 . S
O116 Co105 2.039 . S
O116 C106 1.265 . S
C117 O113 1.253 . S
C117 O118 1.227 . S
O118 C117 1.227 . S
N119 Co105 2.140 . S
N119 C122 1.346 . S
N119 C123 1.345 . S
C120 C121 1.387 . S
C120 C124 1.391 . S
C121 C120 1.387 . S
C121 C122 1.369 . S
C121 H130 0.929 . S
C122 N119 1.346 . S
C122 C121 1.369 . S
C122 H125 0.928 . S
C123 N119 1.345 . S
C123 C124 1.371 . S
C123 H126 0.931 . S
C124 C120 1.391 . S
C124 C123 1.371 . S
C124 H131 0.930 . S
H125 C122 0.928 . S
H126 C123 0.931 . S
H127 C103 0.930 . S
H128 C100 0.930 . S
H129 C109 0.930 . S
H130 C121 0.929 . S
H131 C124 0.930 . S
C132 C133 1.351 . S
C132 N135 1.368 . S
C132 H137 0.931 . S
C133 C132 1.351 . S
C133 N134 1.373 . S
C133 H161 0.930 . S
N134 C133 1.373 . S
N134 C136 1.340 . S
N135 C132 1.368 . S
N135 C136 1.321 . S
N135 Co138 2.135 . S
C136 N134 1.340 . S
C136 N135 1.321 . S
C136 H160 0.930 . S
H137 C132 0.931 . S
Co138 N135 2.135 . S
Co138 N141 2.121 . S
Co138 O146 2.055 . S
Co138 O149 2.039 . S
Co138 N152 2.140 . S
C139 O140 1.227 . S
C139 O149 1.265 . S
O140 C139 1.227 . S
N141 Co138 2.121 . S
N141 C143 1.374 1_554 S
N141 C144 1.313 1_554 S
C142 C143 1.341 . S
C142 N145 1.377 . S
C142 H162 0.930 . S
C143 N141 1.374 1_556 S
C143 C142 1.341 . S
C143 H147 0.929 1_556 S
C144 N141 1.313 1_556 S
C144 N145 1.344 . S
C144 H148 0.930 . S
N145 C142 1.377 . S
N145 C144 1.344 . S
O146 Co138 2.055 . S
O146 C150 1.253 . S
H147 C143 0.929 1_554 S
H148 C144 0.930 . S
O149 Co138 2.039 . S
O149 C139 1.265 . S
C150 O146 1.253 . S
C150 O151 1.227 . S
O151 C150 1.227 . S
N152 Co138 2.140 . S
N152 C155 1.346 . S
N152 C156 1.345 . S
C153 C154 1.387 . S
C153 C157 1.391 . S
C154 C153 1.387 . S
C154 C155 1.369 . S
C154 H163 0.929 . S
C155 N152 1.346 . S
C155 C154 1.369 . S
C155 H158 0.928 . S
C156 N152 1.345 . S
C156 C157 1.371 . S
C156 H159 0.931 . S
C157 C153 1.391 . S
C157 C156 1.371 . S
C157 H164 0.930 . S
H158 C155 0.928 . S
H159 C156 0.931 . S
H160 C136 0.930 . S
H161 C133 0.930 . S
H162 C142 0.930 . S
H163 C154 0.929 . S
H164 C157 0.930 . S
C165 C166 1.351 . S
C165 N168 1.368 . S
C165 H170 0.931 . S
C166 C165 1.351 . S
C166 N167 1.373 . S
C166 H194 0.930 . S
N167 C166 1.373 . S
N167 C169 1.340 . S
N168 C165 1.368 . S
N168 C169 1.321 . S
N168 Co171 2.135 . S
C169 N167 1.340 . S
C169 N168 1.321 . S
C169 H193 0.930 . S
H170 C165 0.931 . S
Co171 N168 2.135 . S
Co171 N174 2.121 . S
Co171 O179 2.055 . S
Co171 O182 2.039 . S
Co171 N185 2.140 . S
C172 O173 1.227 . S
C172 O182 1.265 . S
O173 C172 1.227 . S
N174 Co171 2.121 . S
N174 C176 1.375 . S
N174 C177 1.313 . S
C175 C176 1.338 . S
C175 N178 1.377 . S
C175 H195 0.930 . S
C176 N174 1.375 . S
C176 C175 1.338 . S
C176 H180 0.931 . S
C177 N174 1.313 . S
C177 N178 1.344 . S
C177 H181 0.930 . S
N178 C175 1.377 . S
N178 C177 1.344 . S
O179 Co171 2.055 . S
O179 C183 1.253 . S
H180 C176 0.931 . S
H181 C177 0.930 . S
O182 Co171 2.039 . S
O182 C172 1.265 . S
C183 O179 1.253 . S
C183 O184 1.227 . S
O184 C183 1.227 . S
N185 Co171 2.140 . S
N185 C188 1.346 . S
N185 C189 1.345 . S
C186 C187 1.387 . S
C186 C190 1.391 . S
C187 C186 1.387 . S
C187 C188 1.369 . S
C187 H196 0.929 . S
C188 N185 1.346 . S
C188 C187 1.369 . S
C188 H191 0.928 . S
C189 N185 1.345 . S
C189 C190 1.371 . S
C189 H192 0.931 . S
C190 C186 1.391 . S
C190 C189 1.371 . S
C190 H197 0.930 . S
H191 C188 0.928 . S
H192 C189 0.931 . S
H193 C169 0.930 . S
H194 C166 0.930 . S
H195 C175 0.930 . S
H196 C187 0.929 . S
H197 C190 0.930 . S
C198 C199 1.351 . S
C198 N201 1.368 . S
C198 H203 0.931 . S
C199 C198 1.351 . S
C199 N200 1.373 . S
C199 H227 0.930 . S
N200 C199 1.373 . S
N200 C202 1.340 . S
N201 C198 1.368 . S
N201 C202 1.321 . S
N201 Co204 2.135 . S
C202 N200 1.340 . S
C202 N201 1.321 . S
C202 H226 0.930 . S
H203 C198 0.931 . S
Co204 N201 2.135 . S
Co204 N207 2.121 . S
Co204 O212 2.055 . S
Co204 O215 2.039 . S
Co204 N218 2.140 . S
C205 O206 1.227 . S
C205 O215 1.265 . S
O206 C205 1.227 . S
N207 Co204 2.121 . S
N207 C209 1.374 1_554 S
N207 C210 1.313 1_554 S
C208 C209 1.341 . S
C208 N211 1.377 . S
C208 H228 0.930 . S
C209 N207 1.374 1_556 S
C209 C208 1.341 . S
C209 H213 0.929 1_556 S
C210 N207 1.313 1_556 S
C210 N211 1.344 . S
C210 H214 0.930 . S
N211 C208 1.377 . S
N211 C210 1.344 . S
O212 Co204 2.055 . S
O212 C216 1.253 . S
H213 C209 0.929 1_554 S
H214 C210 0.930 . S
O215 Co204 2.039 . S
O215 C205 1.265 . S
C216 O212 1.253 . S
C216 O217 1.227 . S
O217 C216 1.227 . S
N218 Co204 2.140 . S
N218 C221 1.346 . S
N218 C222 1.345 . S
C219 C220 1.387 . S
C219 C223 1.391 . S
C220 C219 1.387 . S
C220 C221 1.369 . S
C220 H229 0.929 . S
C221 N218 1.346 . S
C221 C220 1.369 . S
C221 H224 0.928 . S
C222 N218 1.345 . S
C222 C223 1.371 . S
C222 H225 0.931 . S
C223 C219 1.391 . S
C223 C222 1.371 . S
C223 H230 0.930 . S
H224 C221 0.928 . S
H225 C222 0.931 . S
H226 C202 0.930 . S
H227 C199 0.930 . S
H228 C208 0.930 . S
H229 C220 0.929 . S
H230 C223 0.930 . S
C231 C232 1.351 . S
C231 N234 1.368 . S
C231 H236 0.931 . S
C232 C231 1.351 . S
C232 N233 1.373 . S
C232 H260 0.930 . S
N233 C232 1.373 . S
N233 C235 1.340 . S
N234 C231 1.368 . S
N234 C235 1.321 . S
N234 Co237 2.135 . S
C235 N233 1.340 . S
C235 N234 1.321 . S
C235 H259 0.930 . S
H236 C231 0.931 . S
Co237 N234 2.135 . S
Co237 N240 2.121 . S
Co237 O245 2.055 . S
Co237 O248 2.039 . S
Co237 N251 2.140 . S
C238 O239 1.227 . S
C238 O248 1.265 . S
O239 C238 1.227 . S
N240 Co237 2.121 . S
N240 C242 1.375 . S
N240 C243 1.313 . S
C241 C242 1.338 . S
C241 N244 1.377 . S
C241 H261 0.930 . S
C242 N240 1.375 . S
C242 C241 1.338 . S
C242 H246 0.931 . S
C243 N240 1.313 . S
C243 N244 1.344 . S
C243 H247 0.930 . S
N244 C241 1.377 . S
N244 C243 1.344 . S
O245 Co237 2.055 . S
O245 C249 1.253 . S
H246 C242 0.931 . S
H247 C243 0.930 . S
O248 Co237 2.039 . S
O248 C238 1.265 . S
C249 O245 1.253 . S
C249 O250 1.227 . S
O250 C249 1.227 . S
N251 Co237 2.140 . S
N251 C254 1.346 . S
N251 C255 1.345 . S
C252 C253 1.387 . S
C252 C256 1.391 . S
C253 C252 1.387 . S
C253 C254 1.369 . S
C253 H262 0.929 . S
C254 N251 1.346 . S
C254 C253 1.369 . S
C254 H257 0.928 . S
C255 N251 1.345 . S
C255 C256 1.371 . S
C255 H258 0.931 . S
C256 C252 1.391 . S
C256 C255 1.371 . S
C256 H263 0.930 . S
H257 C254 0.928 . S
H258 C255 0.931 . S
H259 C235 0.930 . S
H260 C232 0.930 . S
H261 C241 0.930 . S
H262 C253 0.929 . S
H263 C256 0.930 . S
C264 C265 1.363 . S
C264 C270 1.379 . S
C264 N272 1.356 . S
C265 C264 1.363 . S
C265 C271 1.363 1_565 S
C266 C267 1.363 . S
C266 C271 1.379 . S
C266 N273 1.356 . S
C267 C266 1.363 . S
C267 C270 1.363 1_545 S
N268 C270 1.356 . S
N268 H280 0.984 . S
N268 H281 0.985 . S
N269 C271 1.356 . S
N269 H274 0.984 . S
N269 H275 0.985 . S
C270 C264 1.379 . S
C270 C267 1.363 1_565 S
C270 N268 1.356 . S
C271 C265 1.363 1_545 S
C271 C266 1.379 . S
C271 N269 1.356 . S
N272 C264 1.356 . S
N272 H278 0.984 . S
N272 H279 0.984 . S
N273 C266 1.356 . S
N273 H276 0.984 . S
N273 H277 0.985 . S
H274 N269 0.984 . S
H275 N269 0.985 . S
H276 N273 0.984 . S
H277 N273 0.985 . S
H278 N272 0.984 . S
H279 N272 0.984 . S
H280 N268 0.984 . S
H281 N268 0.985 . S
C282 C283 1.363 1_556 S
C282 C288 1.379 . S
C282 N290 1.356 . S
C283 C282 1.363 1_554 S
C283 C289 1.363 . S
C284 C285 1.363 1_554 S
C284 C289 1.379 . S
C284 N291 1.356 . S
C285 C284 1.363 1_556 S
C285 C288 1.363 . S
N286 C288 1.356 . S
N286 H298 0.984 . S
N286 H299 0.985 . S
N287 C289 1.356 . S
N287 H292 0.984 . S
N287 H293 0.985 . S
C288 C282 1.379 . S
C288 C285 1.363 . S
C288 N286 1.356 . S
C289 C283 1.363 . S
C289 C284 1.379 . S
C289 N287 1.356 . S
N290 C282 1.356 . S
N290 H296 0.984 . S
N290 H297 0.984 1_556 S
N291 C284 1.356 . S
N291 H294 0.984 1_554 S
N291 H295 0.985 . S
H292 N287 0.984 . S
H293 N287 0.985 . S
H294 N291 0.984 1_556 S
H295 N291 0.985 . S
H296 N290 0.984 . S
H297 N290 0.984 1_554 S
H298 N286 0.984 . S
H299 N286 0.985 . S
C300 C301 1.363 . S
C300 C306 1.379 1_655 S
C300 N308 1.356 . S
C301 C300 1.363 . S
C301 C307 1.363 . S
C302 C303 1.363 . S
C302 C307 1.379 1_455 S
C302 N309 1.356 . S
C303 C302 1.363 . S
C303 C306 1.363 . S
N304 C306 1.356 . S
N304 H316 0.984 . S
N304 H317 0.985 . S
N305 C307 1.356 . S
N305 H310 0.984 . S
N305 H311 0.985 . S
C306 C300 1.379 1_455 S
C306 C303 1.363 . S
C306 N304 1.356 . S
C307 C301 1.363 . S
C307 C302 1.379 1_655 S
C307 N305 1.356 . S
N308 C300 1.356 . S
N308 H314 0.984 . S
N308 H315 0.984 . S
N309 C302 1.356 . S
N309 H312 0.984 . S
N309 H313 0.985 . S
H310 N305 0.984 . S
H311 N305 0.985 . S
H312 N309 0.984 . S
H313 N309 0.985 . S
H314 N308 0.984 . S
H315 N308 0.984 . S
H316 N304 0.984 . S
H317 N304 0.985 . S
C318 C319 1.363 1_556 S
C318 C324 1.379 1_545 S
C318 N326 1.356 1_556 S
C319 C318 1.363 1_554 S
C319 C325 1.363 1_655 S
C320 C321 1.363 1_554 S
C320 C325 1.379 1_565 S
C320 N327 1.356 1_554 S
C321 C320 1.363 1_556 S
C321 C324 1.363 1_455 S
N322 C324 1.356 . S
N322 H334 0.984 . S
N322 H335 0.985 . S
N323 C325 1.356 . S
N323 H328 0.984 . S
N323 H329 0.985 . S
C324 C318 1.379 1_565 S
C324 C321 1.363 1_655 S
C324 N322 1.356 . S
C325 C319 1.363 1_455 S
C325 C320 1.379 1_545 S
C325 N323 1.356 . S
N326 C318 1.356 1_554 S
N326 H332 0.984 1_554 S
N326 H333 0.984 . S
N327 C320 1.356 1_556 S
N327 H330 0.984 . S
N327 H331 0.985 1_556 S
H328 N323 0.984 . S
H329 N323 0.985 . S
H330 N327 0.984 . S
H331 N327 0.985 1_554 S
H332 N326 0.984 1_556 S
H333 N326 0.984 . S
H334 N322 0.984 . S
H335 N322 0.985 . S
C336 C337 1.363 . S
C336 C342 1.379 . S
C336 N344 1.356 . S
C337 C336 1.363 . S
C337 C343 1.363 . S
C338 C339 1.363 . S
C338 C343 1.379 . S
C338 N345 1.356 . S
C339 C338 1.363 . S
C339 C342 1.363 . S
N340 C342 1.356 . S
N340 H352 0.984 . S
N340 H353 0.985 . S
N341 C343 1.356 . S
N341 H346 0.984 . S
N341 H347 0.985 . S
C342 C336 1.379 . S
C342 C339 1.363 . S
C342 N340 1.356 . S
C343 C337 1.363 . S
C343 C338 1.379 . S
C343 N341 1.356 . S
N344 C336 1.356 . S
N344 H350 0.984 . S
N344 H351 0.984 . S
N345 C338 1.356 . S
N345 H348 0.984 . S
N345 H349 0.985 . S
H346 N341 0.984 . S
H347 N341 0.985 . S
H348 N345 0.984 . S
H349 N345 0.985 . S
H350 N344 0.984 . S
H351 N344 0.984 . S
H352 N340 0.984 . S
H353 N340 0.985 . S
C354 C355 1.363 . S
C354 C360 1.379 . S
C354 N362 1.356 . S
C355 C354 1.363 . S
C355 C361 1.363 . S
C356 C357 1.363 . S
C356 C361 1.379 . S
C356 N363 1.356 . S
C357 C356 1.363 . S
C357 C360 1.363 . S
N358 C360 1.356 . S
N358 H370 0.984 . S
N358 H371 0.985 . S
N359 C361 1.356 . S
N359 H364 0.984 . S
N359 H365 0.985 . S
C360 C354 1.379 . S
C360 C357 1.363 . S
C360 N358 1.356 . S
C361 C355 1.363 . S
C361 C356 1.379 . S
C361 N359 1.356 . S
N362 C354 1.356 . S
N362 H368 0.984 . S
N362 H369 0.984 . S
N363 C356 1.356 . S
N363 H366 0.984 . S
N363 H367 0.985 . S
H364 N359 0.984 . S
H365 N359 0.985 . S
H366 N363 0.984 . S
H367 N363 0.985 . S
H368 N362 0.984 . S
H369 N362 0.984 . S
H370 N358 0.984 . S
H371 N358 0.985 . S
C372 C373 1.363 . S
C372 C378 1.379 . S
C372 N380 1.356 . S
C373 C372 1.363 . S
C373 C379 1.363 . S
C374 C375 1.363 . S
C374 C379 1.379 . S
C374 N381 1.356 . S
C375 C374 1.363 . S
C375 C378 1.363 . S
N376 C378 1.356 . S
N376 H388 0.984 . S
N376 H389 0.985 . S
N377 C379 1.356 . S
N377 H382 0.984 . S
N377 H383 0.985 . S
C378 C372 1.379 . S
C378 C375 1.363 . S
C378 N376 1.356 . S
C379 C373 1.363 . S
C379 C374 1.379 . S
C379 N377 1.356 . S
N380 C372 1.356 . S
N380 H386 0.984 . S
N380 H387 0.984 . S
N381 C374 1.356 . S
N381 H384 0.984 . S
N381 H385 0.985 . S
H382 N377 0.984 . S
H383 N377 0.985 . S
H384 N381 0.984 . S
H385 N381 0.985 . S
H386 N380 0.984 . S
H387 N380 0.984 . S
H388 N376 0.984 . S
H389 N376 0.985 . S
C390 C391 1.363 . S
C390 C396 1.379 . S
C390 N398 1.356 . S
C391 C390 1.363 . S
C391 C397 1.363 . S
C392 C393 1.363 . S
C392 C397 1.379 . S
C392 N399 1.356 . S
C393 C392 1.363 . S
C393 C396 1.363 . S
N394 C396 1.356 . S
N394 H406 0.984 . S
N394 H407 0.985 . S
N395 C397 1.356 . S
N395 H400 0.984 . S
N395 H401 0.985 . S
C396 C390 1.379 . S
C396 C393 1.363 . S
C396 N394 1.356 . S
C397 C391 1.363 . S
C397 C392 1.379 . S
C397 N395 1.356 . S
N398 C390 1.356 . S
N398 H404 0.984 . S
N398 H405 0.984 . S
N399 C392 1.356 . S
N399 H402 0.984 . S
N399 H403 0.985 . S
H400 N395 0.984 . S
H401 N395 0.985 . S
H402 N399 0.984 . S
H403 N399 0.985 . S
H404 N398 0.984 . S
H405 N398 0.984 . S
H406 N394 0.984 . S
H407 N394 0.985 . S
C408 C409 1.363 . S
C408 C414 1.379 . S
C408 N416 1.356 . S
C409 C408 1.363 . S
C409 C415 1.363 . S
C410 C411 1.363 . S
C410 C415 1.379 . S
C410 N417 1.356 . S
C411 C410 1.363 . S
C411 C414 1.363 . S
N412 C414 1.356 . S
N412 H424 0.984 . S
N412 H425 0.985 . S
N413 C415 1.356 . S
N413 H418 0.984 . S
N413 H419 0.985 . S
C414 C408 1.379 . S
C414 C411 1.363 . S
C414 N412 1.356 . S
C415 C409 1.363 . S
C415 C410 1.379 . S
C415 N413 1.356 . S
N416 C408 1.356 . S
N416 H422 0.984 . S
N416 H423 0.984 . S
N417 C410 1.356 . S
N417 H420 0.984 . S
N417 H421 0.985 . S
H418 N413 0.984 . S
H419 N413 0.985 . S
H420 N417 0.984 . S
H421 N417 0.985 . S
H422 N416 0.984 . S
H423 N416 0.984 . S
H424 N412 0.984 . S
H425 N412 0.985 . S
C426 C427 1.363 . S
C426 C432 1.379 . S
C426 N434 1.356 . S
C427 C426 1.363 . S
C427 C433 1.363 . S
C428 C429 1.363 . S
C428 C433 1.379 . S
C428 N435 1.356 . S
C429 C428 1.363 . S
C429 C432 1.363 . S
N430 C432 1.356 . S
N430 H442 0.984 . S
N430 H443 0.985 . S
N431 C433 1.356 . S
N431 H436 0.984 . S
N431 H437 0.985 . S
C432 C426 1.379 . S
C432 C429 1.363 . S
C432 N430 1.356 . S
C433 C427 1.363 . S
C433 C428 1.379 . S
C433 N431 1.356 . S
N434 C426 1.356 . S
N434 H440 0.984 . S
N434 H441 0.984 . S
N435 C428 1.356 . S
N435 H438 0.984 . S
N435 H439 0.985 . S
H436 N431 0.984 . S
H437 N431 0.985 . S
H438 N435 0.984 . S
H439 N435 0.985 . S
H440 N434 0.984 . S
H441 N434 0.984 . S
H442 N430 0.984 . S
H443 N430 0.985 . S
C444 C445 1.363 . S
C444 C450 1.379 . S
C444 N452 1.356 . S
C445 C444 1.363 . S
C445 C451 1.363 . S
C446 C447 1.363 . S
C446 C451 1.379 . S
C446 N453 1.356 . S
C447 C446 1.363 . S
C447 C450 1.363 . S
N448 C450 1.356 . S
N448 H460 0.984 . S
N448 H461 0.985 . S
N449 C451 1.356 . S
N449 H454 0.984 . S
N449 H455 0.985 . S
C450 C444 1.379 . S
C450 C447 1.363 . S
C450 N448 1.356 . S
C451 C445 1.363 . S
C451 C446 1.379 . S
C451 N449 1.356 . S
N452 C444 1.356 . S
N452 H458 0.984 . S
N452 H459 0.984 . S
N453 C446 1.356 . S
N453 H456 0.984 . S
N453 H457 0.985 . S
H454 N449 0.984 . S
H455 N449 0.985 . S
H456 N453 0.984 . S
H457 N453 0.985 . S
H458 N452 0.984 . S
H459 N452 0.984 . S
H460 N448 0.984 . S
H461 N448 0.985 . S
C462 C463 1.363 . S
C462 C468 1.379 . S
C462 N470 1.356 . S
C463 C462 1.363 . S
C463 C469 1.363 . S
C464 C465 1.363 . S
C464 C469 1.379 . S
C464 N471 1.356 . S
C465 C464 1.363 . S
C465 C468 1.363 . S
N466 C468 1.356 . S
N466 H478 1.005 . S
N466 H479 0.985 . S
N467 C469 1.356 . S
N467 H472 0.984 . S
N467 H473 0.985 . S
C468 C462 1.379 . S
C468 C465 1.363 . S
C468 N466 1.356 . S
C469 C463 1.363 . S
C469 C464 1.379 . S
C469 N467 1.356 . S
N470 C462 1.356 . S
N470 H476 1.005 . S
N470 H477 0.984 . S
N471 C464 1.356 . S
N471 H474 0.984 . S
N471 H475 0.985 . S
H472 N467 0.984 . S
H473 N467 0.985 . S
H474 N471 0.984 . S
H475 N471 0.985 . S
H476 N470 1.005 . S
H477 N470 0.984 . S
H478 N466 1.005 . S
H479 N466 0.985 . S
C480 C481 1.363 . S
C480 C486 1.379 . S
C480 N488 1.356 . S
C481 C480 1.363 . S
C481 C487 1.363 . S
C482 C483 1.363 . S
C482 C487 1.379 . S
C482 N489 1.356 . S
C483 C482 1.363 . S
C483 C486 1.363 . S
N484 C486 1.356 . S
N484 H496 0.984 . S
N484 H497 0.985 1_556 S
N485 C487 1.356 . S
N485 H490 0.984 . S
N485 H491 0.985 . S
C486 C480 1.379 . S
C486 C483 1.363 . S
C486 N484 1.356 . S
C487 C481 1.363 . S
C487 C482 1.379 . S
C487 N485 1.356 . S
N488 C480 1.356 . S
N488 H494 0.984 . S
N488 H495 0.984 . S
N489 C482 1.356 . S
N489 H492 0.984 . S
N489 H493 0.985 . S
H490 N485 0.984 . S
H491 N485 0.985 . S
H492 N489 0.984 . S
H493 N489 0.985 . S
H494 N488 0.984 . S
H495 N488 0.984 . S
H496 N484 0.984 . S
H497 N484 0.985 1_554 S
C498 C499 1.363 . S
C498 C504 1.379 . S
C498 N506 1.356 . S
C499 C498 1.363 . S
C499 C505 1.363 . S
C500 C501 1.363 . S
C500 C505 1.379 . S
C500 N507 1.356 . S
C501 C500 1.363 . S
C501 C504 1.363 . S
N502 C504 1.356 . S
N502 H514 0.984 . S
N502 H515 0.985 . S
N503 C505 1.356 . S
N503 H508 0.984 . S
N503 H509 0.985 . S
C504 C498 1.379 . S
C504 C501 1.363 . S
C504 N502 1.356 . S
C505 C499 1.363 . S
C505 C500 1.379 . S
C505 N503 1.356 . S
N506 C498 1.356 . S
N506 H512 0.984 . S
N506 H513 0.984 . S
N507 C500 1.356 . S
N507 H510 0.984 . S
N507 H511 0.985 . S
H508 N503 0.984 . S
H509 N503 0.985 . S
H510 N507 0.984 . S
H511 N507 0.985 . S
H512 N506 0.984 . S
H513 N506 0.984 . S
H514 N502 0.984 . S
H515 N502 0.985 . S
C516 C517 1.363 . S
C516 C522 1.379 . S
C516 N524 1.356 . S
C517 C516 1.363 . S
C517 C523 1.363 . S
C518 C519 1.363 . S
C518 C523 1.379 . S
C518 N525 1.356 . S
C519 C518 1.363 . S
C519 C522 1.363 . S
N520 C522 1.356 . S
N520 H532 0.984 . S
N520 H533 0.985 . S
N521 C523 1.356 . S
N521 H526 0.984 1_556 S
N521 H527 0.985 . S
C522 C516 1.379 . S
C522 C519 1.363 . S
C522 N520 1.356 . S
C523 C517 1.363 . S
C523 C518 1.379 . S
C523 N521 1.356 . S
N524 C516 1.356 . S
N524 H530 0.984 . S
N524 H531 0.984 1_556 S
N525 C518 1.356 . S
N525 H528 0.984 . S
N525 H529 0.985 . S
H526 N521 0.984 1_554 S
H527 N521 0.985 . S
H528 N525 0.984 . S
H529 N525 0.985 . S
H530 N524 0.984 . S
H531 N524 0.984 1_554 S
H532 N520 0.984 . S
H533 N520 0.985 . S
C534 C535 1.363 . S
C534 C540 1.379 . S
C534 N542 1.356 . S
C535 C534 1.363 . S
C535 C541 1.363 . S
C536 C537 1.363 . S
C536 C541 1.379 . S
C536 N543 1.356 . S
C537 C536 1.363 . S
C537 C540 1.363 . S
N538 C540 1.356 . S
N538 H550 0.984 . S
N538 H551 0.985 . S
N539 C541 1.356 . S
N539 H544 0.984 . S
N539 H545 0.985 . S
C540 C534 1.379 . S
C540 C537 1.363 . S
C540 N538 1.356 . S
C541 C535 1.363 . S
C541 C536 1.379 . S
C541 N539 1.356 . S
N542 C534 1.356 . S
N542 H548 0.984 . S
N542 H549 0.984 . S
N543 C536 1.356 . S
N543 H546 0.984 . S
N543 H547 0.985 . S
H544 N539 0.984 . S
H545 N539 0.985 . S
H546 N543 0.984 . S
H547 N543 0.985 . S
H548 N542 0.984 . S
H549 N542 0.984 . S
H550 N538 0.984 . S
H551 N538 0.985 . S
C552 C553 1.363 . S
C552 C558 1.379 . S
C552 N560 1.356 . S
C553 C552 1.363 . S
C553 C559 1.363 . S
C554 C555 1.363 . S
C554 C559 1.379 . S
C554 N561 1.356 . S
C555 C554 1.363 . S
C555 C558 1.363 . S
N556 C558 1.356 . S
N556 H568 0.984 . S
N556 H569 0.985 . S
N557 C559 1.356 . S
N557 H562 0.984 . S
N557 H563 0.985 . S
C558 C552 1.379 . S
C558 C555 1.363 . S
C558 N556 1.356 . S
C559 C553 1.363 . S
C559 C554 1.379 . S
C559 N557 1.356 . S
N560 C552 1.356 . S
N560 H566 0.984 . S
N560 H567 0.984 . S
N561 C554 1.356 . S
N561 H564 0.984 . S
N561 H565 0.985 . S
H562 N557 0.984 . S
H563 N557 0.985 . S
H564 N561 0.984 . S
H565 N561 0.985 . S
H566 N560 0.984 . S
H567 N560 0.984 . S
H568 N556 0.984 . S
H569 N556 0.985 . S
C570 C571 1.363 . S
C570 C576 1.379 . S
C570 N578 1.356 . S
C571 C570 1.363 . S
C571 C577 1.363 . S
C572 C573 1.363 . S
C572 C577 1.379 . S
C572 N579 1.356 . S
C573 C572 1.363 . S
C573 C576 1.363 . S
N574 C576 1.356 . S
N574 H586 0.984 . S
N574 H587 0.985 . S
N575 C577 1.356 . S
N575 H580 0.984 1_554 S
N575 H581 0.985 . S
C576 C570 1.379 . S
C576 C573 1.363 . S
C576 N574 1.356 . S
C577 C571 1.363 . S
C577 C572 1.379 . S
C577 N575 1.356 . S
N578 C570 1.356 . S
N578 H584 0.984 . S
N578 H585 0.984 . S
N579 C572 1.356 . S
N579 H582 0.984 . S
N579 H583 0.985 . S
H580 N575 0.984 1_556 S
H581 N575 0.985 . S
H582 N579 0.984 . S
H583 N579 0.985 . S
H584 N578 0.984 . S
H585 N578 0.984 . S
H586 N574 0.984 . S
H587 N574 0.985 . S
C588 C589 1.363 . S
C588 C594 1.379 . S
C588 N596 1.356 . S
C589 C588 1.363 . S
C589 C595 1.363 . S
C590 C591 1.363 . S
C590 C595 1.379 . S
C590 N597 1.356 . S
C591 C590 1.363 . S
C591 C594 1.363 . S
N592 C594 1.356 . S
N592 H604 0.984 . S
N592 H605 0.985 . S
N593 C595 1.356 . S
N593 H598 0.984 . S
N593 H599 0.985 . S
C594 C588 1.379 . S
C594 C591 1.363 . S
C594 N592 1.356 . S
C595 C589 1.363 . S
C595 C590 1.379 . S
C595 N593 1.356 . S
N596 C588 1.356 . S
N596 H602 0.984 . S
N596 H603 0.984 . S
N597 C590 1.356 . S
N597 H600 0.984 . S
N597 H601 0.985 . S
H598 N593 0.984 . S
H599 N593 0.985 . S
H600 N597 0.984 . S
H601 N597 0.985 . S
H602 N596 0.984 . S
H603 N596 0.984 . S
H604 N592 0.984 . S
H605 N592 0.985 . S
C606 C607 1.363 . S
C606 C612 1.379 . S
C606 N614 1.356 . S
C607 C606 1.363 . S
C607 C613 1.363 . S
C608 C609 1.363 . S
C608 C613 1.379 . S
C608 N615 1.356 . S
C609 C608 1.363 . S
C609 C612 1.363 . S
N610 C612 1.356 . S
N610 H622 0.984 . S
N610 H623 0.985 1_554 S
N611 C613 1.356 . S
N611 H616 0.984 . S
N611 H617 0.985 . S
C612 C606 1.379 . S
C612 C609 1.363 . S
C612 N610 1.356 . S
C613 C607 1.363 . S
C613 C608 1.379 . S
C613 N611 1.356 . S
N614 C606 1.356 . S
N614 H620 0.984 . S
N614 H621 0.984 . S
N615 C608 1.356 . S
N615 H618 0.984 1_554 S
N615 H619 0.985 . S
H616 N611 0.984 . S
H617 N611 0.985 . S
H618 N615 0.984 1_556 S
H619 N615 0.985 . S
H620 N614 0.984 . S
H621 N614 0.984 . S
H622 N610 0.984 . S
H623 N610 0.985 1_556 S
C265 C249 1.337 . S
C267 C18 1.337 . S
C283 C150 1.337 . S
C285 C51 1.337 . S
C301 C84 1.337 . S
C303 C183 1.337 . S
C319 C216 1.337 . S
C321 C117 1.337 . S
C337 C7 1.493 . S
C339 C139 1.493 . S
C355 C172 1.493 . S
C357 C40 1.493 . S
C373 C205 1.493 . S
C375 C73 1.493 . S
C391 C238 1.493 . S
C393 C106 1.493 . S
C409 C252 1.530 . S
C411 C54 1.530 . S
C427 C87 1.530 . S
C429 C153 1.530 . S
C445 C120 1.530 . S
C447 C186 1.530 . S
C463 C219 1.530 . S
C465 C21 1.530 . S
C481 N13 1.336 . S
C483 N2 1.335 1_556 S
C499 N35 1.335 . S
C501 N46 1.336 . S
C517 N68 1.335 1_556 S
C519 N79 1.336 . S
C535 N112 1.336 . S
C537 N101 1.336 . S
C553 N134 1.335 . S
C555 N145 1.336 . S
C571 N167 1.335 1_554 S
C573 N178 1.336 . S
C589 N200 1.336 . S
C591 N211 1.336 . S
C607 N244 1.336 . S
C609 N233 1.335 1_554 S
