# Generated by pormake.
# Topology unp, (4)-cn, num edge types: 1
# Building blocks:
#     Node 0, Type 0, BuildingBlock: TATPOV_clean_sbu_0, # of connection points: 4
#     Node 1, Type 0, BuildingBlock: TATPOV_clean_sbu_0, # of connection points: 4
#     Node 2, Type 0, BuildingBlock: TATPOV_clean_sbu_0, # of connection points: 4
#     Node 3, Type 0, BuildingBlock: TATPOV_clean_sbu_0, # of connection points: 4
#     Node 4, Type 0, BuildingBlock: TATPOV_clean_sbu_0, # of connection points: 4
#     Node 5, Type 0, BuildingBlock: TATPOV_clean_sbu_0, # of connection points: 4
#     Node 6, Type 0, BuildingBlock: TATPOV_clean_sbu_0, # of connection points: 4
#     Node 7, Type 0, BuildingBlock: TATPOV_clean_sbu_0, # of connection points: 4
#     Node 8, Type 0, BuildingBlock: TATPOV_clean_sbu_0, # of connection points: 4
#     Node 9, Type 0, BuildingBlock: TATPOV_clean_sbu_0, # of connection points: 4
#     Node 10, Type 0, BuildingBlock: TATPOV_clean_sbu_0, # of connection points: 4
#     Node 11, Type 0, BuildingBlock: TATPOV_clean_sbu_0, # of connection points: 4
#     Node 12, Type 0, BuildingBlock: TATPOV_clean_sbu_0, # of connection points: 4
#     Node 13, Type 0, BuildingBlock: TATPOV_clean_sbu_0, # of connection points: 4
#     Node 14, Type 0, BuildingBlock: TATPOV_clean_sbu_0, # of connection points: 4
#     Node 15, Type 0, BuildingBlock: TATPOV_clean_sbu_0, # of connection points: 4
#     Node 16, Type 0, BuildingBlock: TATPOV_clean_sbu_0, # of connection points: 4
#     Node 17, Type 0, BuildingBlock: TATPOV_clean_sbu_0, # of connection points: 4
#     Edge 18, Type (0, 0), BuildingBlock: UVAHIK_clean_linker_0, # of connection points: 2
#     Edge 19, Type (0, 0), BuildingBlock: UVAHIK_clean_linker_0, # of connection points: 2
#     Edge 20, Type (0, 0), BuildingBlock: UVAHIK_clean_linker_0, # of connection points: 2
#     Edge 21, Type (0, 0), BuildingBlock: UVAHIK_clean_linker_0, # of connection points: 2
#     Edge 22, Type (0, 0), BuildingBlock: UVAHIK_clean_linker_0, # of connection points: 2
#     Edge 23, Type (0, 0), BuildingBlock: UVAHIK_clean_linker_0, # of connection points: 2
#     Edge 24, Type (0, 0), BuildingBlock: UVAHIK_clean_linker_0, # of connection points: 2
#     Edge 25, Type (0, 0), BuildingBlock: UVAHIK_clean_linker_0, # of connection points: 2
#     Edge 26, Type (0, 0), BuildingBlock: UVAHIK_clean_linker_0, # of connection points: 2
#     Edge 27, Type (0, 0), BuildingBlock: UVAHIK_clean_linker_0, # of connection points: 2
#     Edge 28, Type (0, 0), BuildingBlock: UVAHIK_clean_linker_0, # of connection points: 2
#     Edge 29, Type (0, 0), BuildingBlock: UVAHIK_clean_linker_0, # of connection points: 2
#     Edge 30, Type (0, 0), BuildingBlock: UVAHIK_clean_linker_0, # of connection points: 2
#     Edge 31, Type (0, 0), BuildingBlock: UVAHIK_clean_linker_0, # of connection points: 2
#     Edge 32, Type (0, 0), BuildingBlock: UVAHIK_clean_linker_0, # of connection points: 2
#     Edge 33, Type (0, 0), BuildingBlock: UVAHIK_clean_linker_0, # of connection points: 2
#     Edge 34, Type (0, 0), BuildingBlock: UVAHIK_clean_linker_0, # of connection points: 2
#     Edge 35, Type (0, 0), BuildingBlock: UVAHIK_clean_linker_0, # of connection points: 2
#     Edge 36, Type (0, 0), BuildingBlock: UVAHIK_clean_linker_0, # of connection points: 2
#     Edge 37, Type (0, 0), BuildingBlock: UVAHIK_clean_linker_0, # of connection points: 2
#     Edge 38, Type (0, 0), BuildingBlock: UVAHIK_clean_linker_0, # of connection points: 2
#     Edge 39, Type (0, 0), BuildingBlock: UVAHIK_clean_linker_0, # of connection points: 2
#     Edge 40, Type (0, 0), BuildingBlock: UVAHIK_clean_linker_0, # of connection points: 2
#     Edge 41, Type (0, 0), BuildingBlock: UVAHIK_clean_linker_0, # of connection points: 2
#     Edge 42, Type (0, 0), BuildingBlock: UVAHIK_clean_linker_0, # of connection points: 2
#     Edge 43, Type (0, 0), BuildingBlock: UVAHIK_clean_linker_0, # of connection points: 2
#     Edge 44, Type (0, 0), BuildingBlock: UVAHIK_clean_linker_0, # of connection points: 2
#     Edge 45, Type (0, 0), BuildingBlock: UVAHIK_clean_linker_0, # of connection points: 2
#     Edge 46, Type (0, 0), BuildingBlock: UVAHIK_clean_linker_0, # of connection points: 2
#     Edge 47, Type (0, 0), BuildingBlock: UVAHIK_clean_linker_0, # of connection points: 2
#     Edge 48, Type (0, 0), BuildingBlock: UVAHIK_clean_linker_0, # of connection points: 2
#     Edge 49, Type (0, 0), BuildingBlock: UVAHIK_clean_linker_0, # of connection points: 2
#     Edge 50, Type (0, 0), BuildingBlock: UVAHIK_clean_linker_0, # of connection points: 2
#     Edge 51, Type (0, 0), BuildingBlock: UVAHIK_clean_linker_0, # of connection points: 2
#     Edge 52, Type (0, 0), BuildingBlock: UVAHIK_clean_linker_0, # of connection points: 2
#     Edge 53, Type (0, 0), BuildingBlock: UVAHIK_clean_linker_0, # of connection points: 2
# Relax obj value: 0.369
# Max RMSD: 0.173
# Mean RMSD: 0.173
data_MOF--net-unp--node1-TATPOV_clean_sbu_0--edge1-UVAHIK_clean_linker_0
_symmetry_space_group_name_H-M    P1
_symmetry_Int_Tables_number       1
_symmetry_cell_setting            triclinic
loop_
_symmetry_equiv_pos_as_xyz
'x, y, z'
_cell_length_a     58.261289
_cell_length_b     58.274612
_cell_length_c     85.259041
_cell_angle_alpha  90.0377
_cell_angle_beta   89.984466
_cell_angle_gamma 119.97401
loop_
_atom_site_label
_atom_site_type_symbol
_atom_site_fract_x
_atom_site_fract_y
_atom_site_fract_z
_atom_type_partial_charge
Zn0 Zn 0.11059 0.15297 0.08027 0.0
Zn1 Zn 0.15227 0.18365 0.09773 0.0
O2 O 0.14911 0.1473 0.10092 0.0
O3 O 0.11612 0.12197 0.08517 0.0
O4 O 0.18557 0.20787 0.10954 0.0
O5 O 0.12631 0.17467 0.06107 0.0
O6 O 0.16249 0.1983 0.07499 0.0
C7 C 0.13388 0.12475 0.09482 0.0
C8 C 0.09774 0.17608 0.1061 0.0
O9 O 0.12233 0.18639 0.1093 0.0
O10 O 0.08813 0.16135 0.09419 0.0
C11 C 0.18982 0.20229 0.12325 0.0
O12 O 0.17134 0.18088 0.13021 0.0
C13 C 0.1501 0.19319 0.06196 0.0
Zn14 Zn 0.85233 0.96925 0.10155 0.0
Zn15 Zn 0.81414 0.96891 0.11696 0.0
O16 O 0.84762 0.99858 0.12802 0.0
O17 O 0.87883 0.99261 0.11773 0.0
O18 O 0.78419 0.97024 0.12783 0.0
O19 O 0.84606 0.98598 0.08276 0.0
O20 O 0.80898 0.97808 0.0942 0.0
C21 C 0.87178 0.00432 0.12746 0.0
C22 C 0.81652 0.91807 0.11341 0.0
O23 O 0.80736 0.93081 0.12079 0.0
O24 O 0.83465 0.92973 0.10332 0.0
C25 C 0.78493 0.9764 0.14219 0.0
O26 O 0.80529 0.98037 0.1508 0.0
C27 C 0.82436 0.98596 0.08235 0.0
Zn28 Zn 0.99424 0.83364 0.09088 0.0
Zn29 Zn 0.00012 0.80644 0.11283 0.0
O30 O 0.96175 0.79946 0.11568 0.0
O31 O 0.9549 0.81586 0.09415 0.0
O32 O 0.0023 0.78302 0.12936 0.0
O33 O 0.00955 0.81999 0.07479 0.0
O34 O 0.00719 0.79142 0.09246 0.0
C35 C 0.94629 0.80329 0.10688 0.0
C36 C 0.03195 0.86644 0.11398 0.0
O37 O 0.02918 0.8445 0.11882 0.0
O38 O 0.01793 0.86694 0.10281 0.0
C39 C 0.99147 0.78031 0.14269 0.0
O40 O 0.98028 0.79449 0.14605 0.0
C41 C 0.01181 0.80018 0.07845 0.0
Zn42 Zn 0.12758 0.1211 0.88243 0.0
Zn43 Zn 0.17185 0.16092 0.87061 0.0
O44 O 0.14221 0.16474 0.85953 0.0
O45 O 0.10571 0.13149 0.86933 0.0
O46 O 0.20485 0.19287 0.86292 0.0
O47 O 0.13933 0.13536 0.90444 0.0
O48 O 0.17503 0.1688 0.8942 0.0
C49 C 0.117 0.15125 0.86027 0.0
C50 C 0.15927 0.10367 0.86611 0.0
O51 O 0.17558 0.12836 0.8644 0.0
O52 O 0.13747 0.09585 0.87313 0.0
C53 C 0.21482 0.19633 0.84929 0.0
O54 O 0.2037 0.17724 0.83886 0.0
C55 C 0.16096 0.15691 0.90613 0.0
Zn56 Zn 0.89591 0.059 0.90958 0.0
Zn57 Zn 0.8501 0.03662 0.89451 0.0
O58 O 0.86076 0.00822 0.8921 0.0
O59 O 0.90012 0.0276 0.90317 0.0
O60 O 0.81447 0.01975 0.88413 0.0
O61 O 0.8786 0.05883 0.9299 0.0
O62 O 0.84064 0.04135 0.91727 0.0
C63 C 0.88179 0.00804 0.8959 0.0
C64 C 0.89653 0.09004 0.88362 0.0
O65 O 0.87372 0.06998 0.8811 0.0
O66 O 0.90966 0.0909 0.89564 0.0
C67 C 0.80335 0.03278 0.87999 0.0
O68 O 0.81587 0.05858 0.88202 0.0
C69 C 0.85389 0.05011 0.92992 0.0
Zn70 Zn 0.00978 0.84138 0.92502 0.0
Zn71 Zn 0.00776 0.81126 0.90113 0.0
O72 O 0.04443 0.84465 0.89848 0.0
O73 O 0.04672 0.86942 0.91854 0.0
O74 O 0.00705 0.78733 0.88381 0.0
O75 O 0.00369 0.81337 0.94051 0.0
O76 O 0.00351 0.78855 0.92095 0.0
C77 C 0.05704 0.86602 0.90632 0.0
C78 C 0.96786 0.83099 0.90355 0.0
O79 O 0.97706 0.81849 0.89592 0.0
O80 O 0.9782 0.84207 0.91645 0.0
C81 C 0.0184 0.79622 0.87069 0.0
O82 O 0.0297 0.82175 0.86786 0.0
C83 C 0.00182 0.79205 0.93557 0.0
Zn84 Zn 0.77266 0.43873 0.45156 0.0
Zn85 Zn 0.81694 0.48473 0.45443 0.0
O86 O 0.8241 0.45716 0.46563 0.0
O87 O 0.78634 0.41954 0.46441 0.0
O88 O 0.85111 0.51845 0.45872 0.0
O89 O 0.77832 0.44256 0.42792 0.0
O90 O 0.81505 0.48096 0.43043 0.0
C91 C 0.81015 0.43261 0.46892 0.0
C92 C 0.76354 0.47738 0.46604 0.0
O93 O 0.78822 0.49234 0.46339 0.0
O94 O 0.75213 0.45311 0.46239 0.0
C95 C 0.85851 0.52277 0.47296 0.0
O96 O 0.84303 0.50612 0.48375 0.0
C97 C 0.79795 0.46252 0.42175 0.0
Zn98 Zn 0.5115 0.34826 0.40869 0.0
Zn99 Zn 0.47703 0.3376 0.43216 0.0
O100 O 0.50891 0.37409 0.43796 0.0
O101 O 0.53662 0.38382 0.4182 0.0
O102 O 0.45059 0.33245 0.44893 0.0
O103 O 0.48532 0.34653 0.39298 0.0
O104 O 0.45618 0.33603 0.41204 0.0
C105 C 0.53068 0.38994 0.43121 0.0
C106 C 0.50022 0.30156 0.4271 0.0
O107 O 0.48551 0.30758 0.43513 0.0
O108 O 0.51257 0.3153 0.41522 0.0
C109 C 0.45755 0.33994 0.46299 0.0
O110 O 0.48241 0.34924 0.46705 0.0
C111 C 0.46237 0.34052 0.39758 0.0
Zn112 Zn 0.70909 0.20942 0.42724 0.0
Zn113 Zn 0.69168 0.16683 0.44377 0.0
O114 O 0.6631 0.17709 0.44816 0.0
O115 O 0.68269 0.21715 0.43801 0.0
O116 O 0.67943 0.13287 0.45552 0.0
O117 O 0.69843 0.1889 0.40716 0.0
O118 O 0.6905 0.15392 0.42104 0.0
C119 C 0.66364 0.19891 0.44563 0.0
C120 C 0.74797 0.21374 0.44847 0.0
O121 O 0.72815 0.19267 0.45371 0.0
O122 O 0.74592 0.22398 0.43585 0.0
C123 C 0.66929 0.12822 0.46914 0.0
O124 O 0.66694 0.14675 0.47651 0.0
C125 C 0.69201 0.16474 0.40783 0.0
Zn126 Zn 0.78001 0.4323 0.22313 0.0
Zn127 Zn 0.82334 0.47944 0.22026 0.0
O128 O 0.79366 0.48344 0.20928 0.0
O129 O 0.75829 0.4438 0.21085 0.0
O130 O 0.8551 0.51535 0.21656 0.0
O131 O 0.78377 0.43722 0.2468 0.0
O132 O 0.81967 0.47628 0.24426 0.0
C133 C 0.76927 0.46759 0.20627 0.0
C134 C 0.82149 0.4293 0.2072 0.0
O135 O 0.83449 0.45404 0.21016 0.0
O136 O 0.79753 0.41552 0.21136 0.0
C137 C 0.86079 0.52224 0.20231 0.0
O138 O 0.84642 0.50545 0.19125 0.0
C139 C 0.80253 0.45793 0.25296 0.0
Zn140 Zn 0.52028 0.37204 0.24242 0.0
Zn141 Zn 0.48381 0.3559 0.21988 0.0
O142 O 0.49333 0.32648 0.21904 0.0
O143 O 0.52233 0.33862 0.23829 0.0
O144 O 0.4539 0.34487 0.20453 0.0
O145 O 0.49577 0.37244 0.25862 0.0
O146 O 0.46491 0.35659 0.24038 0.0
C147 C 0.50913 0.32253 0.22741 0.0
C148 C 0.53628 0.40852 0.21677 0.0
O149 O 0.51424 0.39106 0.21094 0.0
O150 O 0.54318 0.40538 0.2303 0.0
C151 C 0.44871 0.32918 0.19302 0.0
O152 O 0.4645 0.31973 0.18993 0.0
C153 C 0.47203 0.36394 0.25449 0.0
Zn154 Zn 0.68928 0.1984 0.23969 0.0
Zn155 Zn 0.67584 0.15896 0.22146 0.0
O156 O 0.71438 0.18639 0.21501 0.0
O157 O 0.72806 0.21393 0.23497 0.0
O158 O 0.66815 0.12751 0.20808 0.0
O159 O 0.67339 0.175 0.25841 0.0
O160 O 0.67067 0.14277 0.24368 0.0
C161 C 0.73297 0.20593 0.2223 0.0
C162 C 0.64918 0.19185 0.21793 0.0
O163 O 0.64815 0.16979 0.21535 0.0
O164 O 0.66688 0.20884 0.22686 0.0
C165 C 0.67669 0.12998 0.19411 0.0
O166 O 0.68884 0.15362 0.18767 0.0
C167 C 0.66855 0.1514 0.25701 0.0
Zn168 Zn 0.48571 0.84305 0.75386 0.0
Zn169 Zn 0.5195 0.86868 0.77721 0.0
O170 O 0.51815 0.83284 0.77765 0.0
O171 O 0.49096 0.81161 0.75816 0.0
O172 O 0.54615 0.89028 0.79379 0.0
O173 O 0.50853 0.87105 0.73847 0.0
O174 O 0.53755 0.89117 0.75739 0.0
C175 C 0.50578 0.81215 0.76921 0.0
C176 C 0.46183 0.85688 0.77864 0.0
O177 O 0.48447 0.86582 0.78506 0.0
O178 O 0.4574 0.84657 0.76512 0.0
C179 C 0.55128 0.88038 0.80563 0.0
O180 O 0.53788 0.85464 0.80782 0.0
C181 C 0.53056 0.88983 0.74311 0.0
Zn182 Zn 0.19187 0.63658 0.76012 0.0
Zn183 Zn 0.15475 0.64638 0.76867 0.0
O184 O 0.18901 0.67798 0.77764 0.0
O185 O 0.21866 0.66566 0.77399 0.0
O186 O 0.12713 0.65479 0.77647 0.0
O187 O 0.18742 0.64432 0.73779 0.0
O188 O 0.15233 0.64706 0.74435 0.0
C189 C 0.21239 0.68192 0.77955 0.0
C190 C 0.15195 0.59361 0.777 0.0
O191 O 0.14377 0.60999 0.77911 0.0
O192 O 0.1717 0.59957 0.7683 0.0
C193 C 0.12644 0.65769 0.79121 0.0
O194 O 0.14268 0.65403 0.80019 0.0
C195 C 0.16808 0.64724 0.73387 0.0
Zn196 Zn 0.33027 0.53657 0.77191 0.0
Zn197 Zn 0.33808 0.49953 0.78497 0.0
O198 O 0.30252 0.49226 0.79491 0.0
O199 O 0.2961 0.52268 0.78366 0.0
O200 O 0.34255 0.46986 0.79337 0.0
O201 O 0.33145 0.52315 0.75022 0.0
O202 O 0.33568 0.49147 0.7614 0.0
C203 C 0.28868 0.50342 0.79302 0.0
C204 C 0.37807 0.55835 0.79004 0.0
O205 O 0.37185 0.5342 0.79192 0.0
O206 O 0.36329 0.56426 0.78225 0.0
C207 C 0.34034 0.46338 0.80774 0.0
O208 O 0.3364 0.47765 0.81818 0.0
C209 C 0.33348 0.50257 0.74909 0.0
Zn210 Zn 0.47105 0.82674 0.59243 0.0
Zn211 Zn 0.50454 0.84986 0.56894 0.0
O212 O 0.47246 0.854 0.56283 0.0
O213 O 0.44383 0.83283 0.58167 0.0
O214 O 0.53121 0.87087 0.55227 0.0
O215 O 0.49581 0.8539 0.60769 0.0
O216 O 0.52538 0.87029 0.58875 0.0
C217 C 0.4497 0.84571 0.56894 0.0
C218 C 0.48374 0.79137 0.5756 0.0
O219 O 0.49653 0.81131 0.56662 0.0
O220 O 0.47253 0.79341 0.58783 0.0
C221 C 0.52487 0.87321 0.53834 0.0
O222 O 0.49999 0.85915 0.53396 0.0
C223 C 0.51887 0.87035 0.603 0.0
Zn224 Zn 0.21015 0.65624 0.54219 0.0
Zn225 Zn 0.16828 0.65927 0.53378 0.0
O226 O 0.16231 0.62373 0.52418 0.0
O227 O 0.19819 0.62238 0.53068 0.0
O228 O 0.13578 0.6598 0.52631 0.0
O229 O 0.2006 0.65704 0.56491 0.0
O230 O 0.1653 0.65907 0.55793 0.0
C231 C 0.1761 0.61229 0.52373 0.0
C232 C 0.22439 0.70289 0.52454 0.0
O233 O 0.19952 0.69433 0.5249 0.0
O234 O 0.2338 0.68978 0.53091 0.0
C235 C 0.12902 0.65409 0.51204 0.0
O236 O 0.1441 0.6494 0.50265 0.0
C237 C 0.18021 0.65833 0.56862 0.0
Zn238 Zn 0.26252 0.48285 0.57482 0.0
Zn239 Zn 0.28777 0.46257 0.55934 0.0
O240 O 0.31464 0.50219 0.55763 0.0
O241 O 0.29277 0.51953 0.56888 0.0
O242 O 0.30644 0.44561 0.54871 0.0
O243 O 0.26375 0.46582 0.59492 0.0
O244 O 0.28439 0.44871 0.58205 0.0
C245 C 0.31322 0.52243 0.56181 0.0
C246 C 0.23281 0.45252 0.54867 0.0
O247 O 0.25386 0.45155 0.54603 0.0
O248 O 0.23085 0.4637 0.5609 0.0
C249 C 0.29507 0.42447 0.54061 0.0
O250 O 0.26935 0.41266 0.53837 0.0
C251 C 0.2747 0.45178 0.59476 0.0
C252 C 0.40643 0.32929 0.18807 0.0
C253 C 0.42365 0.31976 0.18424 0.0
C254 C 0.38171 0.31882 0.18084 0.0
C255 C 0.34235 0.27986 0.14676 0.0
H256 H 0.28255 0.26297 0.17394 0.0
C257 C 0.22148 0.21164 0.14546 0.0
C258 C 0.21614 0.21843 0.13063 0.0
C259 C 0.24687 0.22574 0.15192 0.0
C260 C 0.29903 0.26749 0.16621 0.0
H261 H 0.42875 0.29238 0.1694 0.0
H262 H 0.38546 0.27399 0.15682 0.0
H263 H 0.32717 0.28428 0.18487 0.0
H264 H 0.23315 0.24584 0.11115 0.0
H265 H 0.27738 0.27052 0.1225 0.0
H266 H 0.31409 0.26246 0.12817 0.0
C267 C 0.39119 0.28969 0.16537 0.0
C268 C 0.32462 0.27996 0.17243 0.0
C269 C 0.41595 0.30016 0.17262 0.0
C270 C 0.2366 0.24002 0.12258 0.0
C271 C 0.262 0.25406 0.12902 0.0
C272 C 0.31674 0.26746 0.14052 0.0
C273 C 0.37362 0.2986 0.1696 0.0
C274 C 0.34656 0.28617 0.16279 0.0
C275 C 0.2675 0.2469 0.14369 0.0
C276 C 0.29478 0.26098 0.1502 0.0
H277 H 0.41179 0.34451 0.19689 0.0
H278 H 0.36882 0.32643 0.18416 0.0
H279 H 0.35886 0.28457 0.13901 0.0
H280 H 0.20618 0.19509 0.15196 0.0
H281 H 0.25053 0.21957 0.16318 0.0
C282 C 0.76926 0.99594 0.16284 0.0
C283 C 0.76512 0.98291 0.14837 0.0
C284 C 0.75271 0.00556 0.16762 0.0
C285 C 0.70956 0.0283 0.15054 0.0
H286 H 0.69622 0.03573 0.19425 0.0
C287 C 0.69275 0.11164 0.17299 0.0
C288 C 0.67725 0.10748 0.18645 0.0
C289 C 0.69706 0.09161 0.16732 0.0
C290 C 0.69926 0.03345 0.18195 0.0
H291 H 0.73925 0.96812 0.12808 0.0
H292 H 0.71004 0.98442 0.1366 0.0
H293 H 0.71479 0.00792 0.18718 0.0
H294 H 0.65236 0.07833 0.20377 0.0
H295 H 0.65941 0.04321 0.19365 0.0
H296 H 0.69407 0.05386 0.14532 0.0
C297 C 0.72648 0.98781 0.14406 0.0
C298 C 0.71027 0.01776 0.17792 0.0
C299 C 0.74314 0.97833 0.13922 0.0
C300 C 0.66466 0.08228 0.19347 0.0
C301 C 0.66884 0.06219 0.18773 0.0
C302 C 0.6984 0.04386 0.15456 0.0
C303 C 0.73151 0.0022 0.1581 0.0
C304 C 0.71627 0.0156 0.16221 0.0
C305 C 0.6858 0.06689 0.1749 0.0
C306 C 0.69381 0.04724 0.17036 0.0
H307 H 0.78601 -0.00019 0.17016 0.0
H308 H 0.75738 0.0168 0.17843 0.0
H309 H 0.71407 0.02727 0.13832 0.0
H310 H 0.70273 0.13081 0.16729 0.0
H311 H 0.71044 0.09608 0.1575 0.0
C312 C 0.88499 0.55786 0.1825 0.0
C313 C 0.88177 0.54936 0.19816 0.0
C314 C 0.90327 0.58399 0.17858 0.0
C315 C 0.93862 0.65088 0.19584 0.0
H316 H 0.97171 0.66804 0.15483 0.0
C317 C 0.96766 0.74871 0.16455 0.0
C318 C 0.98762 0.75837 0.15308 0.0
C319 C 0.96084 0.72524 0.17254 0.0
C320 C 0.96319 0.66382 0.16648 0.0
H321 H 0.89602 0.56133 0.22193 0.0
H322 H 0.92845 0.60695 0.21502 0.0
H323 H 0.94943 0.62251 0.1638 0.0
H324 H 0.01768 0.75238 0.14196 0.0
H325 H 0.00648 0.71195 0.15631 0.0
H326 H 0.95265 0.69229 0.19858 0.0
C327 C 0.91641 0.59352 0.20581 0.0
C328 C 0.94998 0.63753 0.17152 0.0
C329 C 0.89792 0.56734 0.20976 0.0
C330 C 0.00195 0.74519 0.15059 0.0
C331 C 0.99539 0.72191 0.15875 0.0
C332 C 0.95213 0.67726 0.19087 0.0
C333 C 0.91902 0.60226 0.19019 0.0
C334 C 0.9367 0.63059 0.18601 0.0
C335 C 0.97408 0.71109 0.1694 0.0
C336 C 0.9638 0.68396 0.17589 0.0
H337 H 0.87283 0.54456 0.17327 0.0
H338 H 0.90431 0.59005 0.16647 0.0
H339 H 0.9286 0.64631 0.20706 0.0
H340 H 0.95622 0.7584 0.16673 0.0
H341 H 0.94414 0.71747 0.18049 0.0
C342 C 0.33217 0.42843 0.82765 0.0
C343 C 0.3383 0.43787 0.81218 0.0
C344 C 0.32641 0.4027 0.83128 0.0
C345 C 0.29802 0.33815 0.81242 0.0
H346 H 0.31506 0.31649 0.85164 0.0
C347 C 0.24676 0.22817 0.82948 0.0
C348 C 0.23684 0.22281 0.84487 0.0
C349 C 0.26532 0.25404 0.82499 0.0
C350 C 0.31009 0.32221 0.84064 0.0
H351 H 0.34509 0.42835 0.78862 0.0
H352 H 0.33505 0.38354 0.79499 0.0
H353 H 0.33687 0.36348 0.84488 0.0
H354 H 0.23977 0.24015 0.86785 0.0
H355 H 0.27141 0.28501 0.86 0.0
H356 H 0.27032 0.29724 0.80846 0.0
C357 C 0.33432 0.3959 0.80425 0.0
C358 C 0.32262 0.34911 0.83677 0.0
C359 C 0.34015 0.42161 0.80063 0.0
C360 C 0.24688 0.24357 0.85587 0.0
C361 C 0.26528 0.26936 0.85138 0.0
C362 C 0.28537 0.31132 0.81632 0.0
C363 C 0.32664 0.3859 0.81951 0.0
C364 C 0.31626 0.35738 0.82278 0.0
C365 C 0.27427 0.27505 0.83581 0.0
C366 C 0.29075 0.30306 0.83066 0.0
H367 H 0.33067 0.44048 0.83683 0.0
H368 H 0.32038 0.3955 0.84313 0.0
H369 H 0.2924 0.3439 0.80164 0.0
H370 H 0.23961 0.21258 0.82076 0.0
H371 H 0.27217 0.25767 0.81296 0.0
C372 C 0.76122 0.99096 0.87398 0.0
C373 C 0.77621 0.01876 0.87347 0.0
C374 C 0.73547 0.97758 0.86804 0.0
C375 C 0.69214 0.98376 0.83964 0.0
H376 H 0.63599 0.92508 0.86258 0.0
C377 C 0.58665 0.92523 0.81447 0.0
C378 C 0.57399 0.89752 0.81584 0.0
C379 C 0.60967 0.94141 0.82298 0.0
C380 C 0.65148 0.94128 0.85597 0.0
H381 H 0.77594 0.05433 0.8663 0.0
H382 H 0.73091 0.03081 0.8557 0.0
H383 H 0.67979 0.95082 0.87442 0.0
H384 H 0.57505 0.86508 0.82761 0.0
H385 H 0.61552 0.89321 0.84216 0.0
H386 H 0.6643 0.97378 0.82096 0.0
C387 C 0.73918 0.01946 0.86075 0.0
C388 C 0.67653 0.95604 0.86277 0.0
C389 C 0.7649 0.0329 0.86685 0.0
C390 C 0.58429 0.88637 0.82632 0.0
C391 C 0.60745 0.90254 0.83473 0.0
C392 C 0.66717 0.96887 0.83277 0.0
C393 C 0.72421 0.99167 0.86133 0.0
C394 C 0.69718 0.97722 0.85459 0.0
C395 C 0.62069 0.93025 0.83295 0.0
C396 C 0.64661 0.94724 0.84078 0.0
H397 H 0.76932 0.97946 0.87904 0.0
H398 H 0.7245 0.95613 0.86846 0.0
H399 H 0.70778 -0.0002 0.833 0.0
H400 H 0.57904 0.93445 0.8066 0.0
H401 H 0.61902 0.96268 0.82157 0.0
C402 C 0.111 0.67292 0.81422 0.0
C403 C 0.10915 0.66689 0.79816 0.0
C404 C 0.09609 0.68324 0.82074 0.0
C405 C 0.06175 0.71969 0.80997 0.0
H406 H 0.0375 0.70386 0.85303 0.0
C407 C 0.00794 0.75097 0.86189 0.0
C408 C 0.02187 0.77855 0.85967 0.0
C409 C 0.01357 0.73454 0.85267 0.0
C410 C 0.04365 0.70824 0.8409 0.0
H411 H 0.08953 0.66622 0.7764 0.0
H412 H 0.06305 0.68384 0.78787 0.0
H413 H 0.05565 0.67907 0.8404 0.0
H414 H 0.05183 0.81041 0.84557 0.0
H415 H 0.0622 0.78199 0.82984 0.0
H416 H 0.04945 0.74869 0.81043 0.0
C417 C 0.07644 0.68102 0.79537 0.0
C418 C 0.05447 0.69424 0.83372 0.0
C419 C 0.0915 0.67079 0.78882 0.0
C420 C 0.0407 0.78923 0.84757 0.0
C421 C 0.04654 0.77285 0.83846 0.0
C422 C 0.05072 0.73356 0.81712 0.0
C423 C 0.07877 0.68764 0.81139 0.0
C424 C 0.0643 0.70026 0.81831 0.0
C425 C 0.03347 0.74535 0.84113 0.0
C426 C 0.04212 0.72846 0.83281 0.0
H427 H 0.12445 0.67027 0.82176 0.0
H428 H 0.09881 0.68854 0.83305 0.0
H429 H 0.06923 0.72497 0.79811 0.0
H430 H 0.99309 0.74209 0.87101 0.0
H431 H 0.00268 0.71341 0.85483 0.0
C432 C 0.90083 0.56447 0.46649 0.0
C433 C 0.88539 0.54419 0.47717 0.0
C434 C 0.9271 0.58322 0.47007 0.0
C435 C 0.97686 0.60708 0.50284 0.0
H436 H 0.02685 0.62533 0.46867 0.0
C437 C 0.08886 0.65896 0.5152 0.0
C438 C 0.10304 0.64962 0.50654 0.0
C439 C 0.06322 0.65246 0.5107 0.0
C440 C 0.01321 0.62031 0.4784 0.0
H441 H 0.88512 0.52807 0.50013 0.0
H442 H 0.93088 0.55973 0.50607 0.0
H443 H 0.97975 0.60148 0.46317 0.0
H444 H 0.10181 0.62677 0.48616 0.0
H445 H 0.05698 0.61444 0.47875 0.0
H446 H 0.01019 0.62382 0.51821 0.0
C447 C 0.92275 0.56193 0.49514 0.0
C448 C 0.98606 0.60698 0.47519 0.0
C449 C 0.89644 0.54352 0.49167 0.0
C450 C 0.09145 0.6344 0.49303 0.0
C451 C 0.0657 0.6275 0.48871 0.0
C452 C 0.00397 0.61991 0.50608 0.0
C453 C 0.93862 0.58182 0.4843 0.0
C454 C 0.96746 0.59949 0.48743 0.0
C455 C 0.05101 0.63605 0.49761 0.0
C456 C 0.02252 0.62604 0.49394 0.0
H457 H 0.89274 0.56562 0.45527 0.0
H458 H 0.93847 0.59853 0.46156 0.0
H459 H 0.96323 0.60234 0.51255 0.0
H460 H 0.09743 0.67098 0.52558 0.0
H461 H 0.05283 0.65994 0.51766 0.0
C462 C 0.33695 0.42257 0.53911 0.0
C463 C 0.31078 0.41312 0.53408 0.0
C464 C 0.35195 0.41205 0.53297 0.0
C465 C 0.34673 0.35481 0.51056 0.0
H466 H 0.42087 0.40381 0.50189 0.0
C467 C 0.41235 0.33247 0.46942 0.0
C468 C 0.43893 0.34227 0.47379 0.0
C469 C 0.39578 0.33811 0.47848 0.0
C470 C 0.4003 0.38979 0.50446 0.0
H471 H 0.27974 0.3851 0.51872 0.0
H472 H 0.30619 0.36725 0.50762 0.0
H473 H 0.39388 0.42005 0.5139 0.0
H474 H 0.46846 0.36432 0.49161 0.0
H475 H 0.4395 0.37419 0.50738 0.0
H476 H 0.35321 0.32473 0.50054 0.0
C477 C 0.31496 0.3824 0.51658 0.0
C478 C 0.38479 0.39909 0.51136 0.0
C479 C 0.29985 0.39277 0.52285 0.0
C480 C 0.44814 0.35659 0.48787 0.0
C481 C 0.43162 0.36238 0.49686 0.0
C482 C 0.36225 0.34555 0.5035 0.0
C483 C 0.34126 0.39201 0.52152 0.0
C484 C 0.35778 0.38176 0.51447 0.0
C485 C 0.4055 0.35379 0.49204 0.0
C486 C 0.38918 0.36298 0.50035 0.0
H487 H 0.34588 0.43804 0.54788 0.0
H488 H 0.37193 0.41958 0.53729 0.0
H489 H 0.32611 0.34083 0.51299 0.0
H490 H 0.4046 0.32128 0.45868 0.0
H491 H 0.37577 0.33132 0.47444 0.0
C492 C 0.66152 0.08194 0.46812 0.0
C493 C 0.65891 0.10162 0.47613 0.0
C494 C 0.65048 0.05636 0.47423 0.0
C495 C 0.62395 0.0175 0.51069 0.0
H496 H 0.58519 0.9586 0.48215 0.0
C497 C 0.53591 0.90297 0.51502 0.0
C498 C 0.54428 0.89525 0.52846 0.0
C499 C 0.55307 0.92668 0.50737 0.0
C500 C 0.59596 0.97483 0.49026 0.0
H501 H 0.64309 0.10998 0.49701 0.0
H502 H 0.62356 0.06525 0.5076 0.0
H503 H 0.60885 0.0037 0.47193 0.0
H504 H 0.5779 0.90519 0.54362 0.0
H505 H 0.60793 0.94626 0.53011 0.0
H506 H 0.61017 0.98882 0.52909 0.0
C507 C 0.63443 0.06969 0.49667 0.0
C508 C 0.60973 0.00066 0.48439 0.0
C509 C 0.6455 0.0953 0.49056 0.0
C510 C 0.57073 0.91073 0.53341 0.0
C511 C 0.5879 0.93436 0.52573 0.0
C512 C 0.61019 0.9917 0.51655 0.0
C513 C 0.63657 0.04986 0.48849 0.0
C514 C 0.62355 0.02232 0.49458 0.0
C515 C 0.57899 0.94306 0.51297 0.0
C516 C 0.59572 0.97009 0.50643 0.0
H517 H 0.67187 0.08617 0.457 0.0
H518 H 0.6528 0.04165 0.46776 0.0
H519 H 0.63468 0.03372 0.51881 0.0
H520 H 0.51568 0.89149 0.51089 0.0
H521 H 0.5455 0.93284 0.49762 0.0
C522 C 0.08173 0.17622 0.13335 0.0
C523 C 0.07902 0.17773 0.11708 0.0
C524 C 0.05975 0.16827 0.14321 0.0
C525 C 0.98626 0.14448 0.14184 0.0
H526 H 0.98227 0.08443 0.16378 0.0
C527 C 0.88859 0.04663 0.14282 0.0
C528 C 0.8924 0.02624 0.13691 0.0
C529 C 0.9101 0.06987 0.14883 0.0
C530 C 0.98297 0.10118 0.15782 0.0
H531 H 0.05274 0.1761 0.09863 0.0
H532 H 0.0148 0.16215 0.11545 0.0
H533 H 0.02516 0.12239 0.15807 0.0
H534 H 0.92095 0.013 0.13415 0.0
H535 H 0.95805 0.05305 0.14424 0.0
H536 H 0.94414 0.12174 0.13985 0.0
C537 C 0.03342 0.16689 0.12091 0.0
C538 C 0.00771 0.12329 0.15473 0.0
C539 C 0.05524 0.17474 0.11113 0.0
C540 C 0.91742 0.02849 0.13843 0.0
C541 C 0.93874 0.05149 0.14444 0.0
C542 C 0.96153 0.1221 0.14463 0.0
C543 C 0.03483 0.16173 0.13691 0.0
C544 C 0.00973 0.14433 0.14558 0.0
C545 C 0.93568 0.07297 0.14912 0.0
C546 C 0.95979 0.09939 0.15157 0.0
H547 H 0.09994 0.17857 0.13825 0.0
H548 H 0.06178 0.1652 0.15554 0.0
H549 H 0.98699 0.16079 0.13535 0.0
H550 H 0.86945 0.04537 0.1419 0.0
H551 H 0.90694 0.08586 0.15252 0.0
C552 C 0.80777 0.88309 0.13327 0.0
C553 C 0.80884 0.8906 0.11753 0.0
C554 C 0.8091 0.86036 0.13706 0.0
C555 C 0.81246 0.80312 0.11938 0.0
H556 H 0.87666 0.83049 0.1441 0.0
C557 C 0.91309 0.79426 0.12818 0.0
C558 C 0.91932 0.7961 0.11213 0.0
C559 C 0.88986 0.79369 0.13312 0.0
C560 C 0.85828 0.82191 0.13755 0.0
H561 H 0.80891 0.87898 0.09343 0.0
H562 H 0.81078 0.83943 0.09989 0.0
H563 H 0.85022 0.85192 0.14549 0.0
H564 H 0.9049 0.79586 0.08867 0.0
H565 H 0.8647 0.79483 0.09718 0.0
H566 H 0.82187 0.77441 0.11048 0.0
C567 C 0.80905 0.85079 0.10941 0.0
C568 C 0.84302 0.83425 0.13836 0.0
C569 C 0.80813 0.87359 0.10566 0.0
C570 C 0.90076 0.79473 0.10112 0.0
C571 C 0.87752 0.79387 0.10603 0.0
C572 C 0.82774 0.79077 0.11856 0.0
C573 C 0.81113 0.84474 0.12512 0.0
C574 C 0.82093 0.82608 0.1285 0.0
C575 C 0.87236 0.79459 0.12209 0.0
C576 C 0.85175 0.80115 0.12687 0.0
H577 H 0.80844 0.896 0.14263 0.0
H578 H 0.81045 0.85608 0.14927 0.0
H579 H 0.79522 0.79602 0.11188 0.0
H580 H 0.927 0.7952 0.13694 0.0
H581 H 0.88632 0.79402 0.14557 0.0
C582 C 0.12488 0.07879 0.08986 0.0
C583 C 0.13582 0.10136 0.09949 0.0
C584 C 0.12412 0.05565 0.09485 0.0
C585 C 0.13281 0.0112 0.10596 0.0
H586 H 0.09431 0.98537 0.14505 0.0
C587 C 0.07885 0.90063 0.1195 0.0
C588 C 0.0517 0.89184 0.12083 0.0
C589 C 0.09747 0.92749 0.12171 0.0
C590 C 0.10556 0.99246 0.13428 0.0
H591 H 0.15549 0.11773 0.12167 0.0
H592 H 0.15349 0.07677 0.1306 0.0
H593 H 0.11324 0.03202 0.13803 0.0
H594 H 0.0226 0.90315 0.12671 0.0
H595 H 0.05487 0.94964 0.13099 0.0
H596 H 0.12348 0.97132 0.10163 0.0
C597 C 0.14577 0.07722 0.11912 0.0
C598 C 0.1165 0.01918 0.13029 0.0
C599 C 0.14694 0.10062 0.11399 0.0
C600 C 0.04351 0.90956 0.12577 0.0
C601 C 0.06203 0.93616 0.12826 0.0
C602 C 0.12206 0.98455 0.11 0.0
C603 C 0.13398 0.0544 0.10968 0.0
C604 C 0.12901 0.02846 0.11571 0.0
C605 C 0.0891 0.94567 0.12551 0.0
C606 C 0.10712 0.97464 0.12381 0.0
H607 H 0.11629 0.0788 0.07859 0.0
H608 H 0.11457 0.03828 0.0874 0.0
H609 H 0.14262 0.01793 0.09473 0.0
H610 H 0.0855 0.88727 0.11549 0.0
H611 H 0.11822 0.93431 0.11953 0.0
C612 C 0.09503 0.91228 0.90854 0.0
C613 C 0.08235 0.88817 0.90033 0.0
C614 C 0.11599 0.93476 0.90176 0.0
C615 C 0.16198 0.98127 0.88663 0.0
H616 H 0.14406 0.98947 0.84405 0.0
C617 C 0.18858 0.08372 0.86593 0.0
C618 C 0.1654 0.08324 0.86093 0.0
C619 C 0.18993 0.06034 0.86582 0.0
C620 C 0.14959 0.98755 0.8559 0.0
H621 H 0.08344 0.86816 0.87911 0.0
H622 H 0.1205 0.9074 0.86736 0.0
H623 H 0.12432 0.9456 0.85548 0.0
H624 H 0.12695 0.05931 0.85022 0.0
H625 H 0.12907 0.01899 0.84997 0.0
H626 H 0.18476 0.02344 0.88767 0.0
C627 C 0.11375 0.90908 0.87891 0.0
C628 C 0.13847 0.96223 0.86244 0.0
C629 C 0.09257 0.88653 0.88569 0.0
C630 C 0.14503 0.06009 0.85415 0.0
C631 C 0.14639 0.03692 0.85394 0.0
C632 C 0.17268 0.00663 0.88019 0.0
C633 C 0.12507 0.93375 0.88661 0.0
C634 C 0.14314 0.95894 0.87825 0.0
C635 C 0.16813 0.03629 0.86067 0.0
C636 C 0.16512 0.01017 0.86511 0.0
H637 H 0.08783 0.91427 0.91989 0.0
H638 H 0.12376 0.95331 0.90805 0.0
H639 H 0.16685 0.97942 0.89864 0.0
H640 H 0.2045 0.10138 0.87128 0.0
H641 H 0.20718 0.06069 0.87083 0.0
C642 C 0.07693 0.13911 0.84441 0.0
C643 C 0.10024 0.15895 0.85138 0.0
C644 C 0.05724 0.14449 0.83959 0.0
C645 C 0.02974 0.18106 0.85586 0.0
H646 H 0.97594 0.14382 0.82422 0.0
C647 C 0.92519 0.13671 0.87531 0.0
C648 C 0.91066 0.1098 0.87131 0.0
C649 C 0.94682 0.15428 0.86617 0.0
C650 C 0.99068 0.15441 0.83317 0.0
H651 H 0.12244 0.20045 0.85767 0.0
H652 H 0.08739 0.20978 0.84972 0.0
H653 H 0.02131 0.15373 0.81953 0.0
H654 H 0.90513 0.08059 0.85385 0.0
H655 H 0.9435 0.11035 0.83851 0.0
H656 H 0.9993 0.17923 0.87033 0.0
C657 C 0.0846 0.19019 0.84771 0.0
C658 C 0.01677 0.16035 0.83037 0.0
C659 C 0.10463 0.18489 0.85223 0.0
C660 C 0.916 0.10134 0.8571 0.0
C661 C 0.9382 0.11864 0.84827 0.0
C662 C 0.00367 0.17469 0.85879 0.0
C663 C 0.06024 0.1697 0.84201 0.0
C664 C 0.03615 0.17227 0.84211 0.0
C665 C 0.95513 0.14489 0.85337 0.0
C666 C 0.98335 0.15962 0.84793 0.0
H667 H 0.07318 0.11895 0.84364 0.0
H668 H 0.03865 0.1282 0.83542 0.0
H669 H 0.04417 0.1902 0.86518 0.0
H670 H 0.92125 0.14368 0.88621 0.0
H671 H 0.95847 0.17461 0.87008 0.0
C672 C 0.92988 0.83842 0.90734 0.0
C673 C 0.94694 0.83539 0.89701 0.0
C674 C 0.91499 0.84966 0.90221 0.0
C675 C 0.92411 0.9008 0.87496 0.0
H676 H 0.85921 0.89034 0.89416 0.0
C677 C 0.90989 0.9869 0.89352 0.0
C678 C 0.88509 0.98514 0.89176 0.0
C679 C 0.91316 0.96535 0.88991 0.0
C680 C 0.87711 0.89336 0.88843 0.0
H681 H 0.96011 0.83949 0.8729 0.0
H682 H 0.93408 0.85949 0.86385 0.0
H683 H 0.86955 0.85456 0.89463 0.0
H684 H 0.84428 0.95937 0.88463 0.0
H685 H 0.84999 0.92144 0.87854 0.0
H686 H 0.93224 0.93997 0.86937 0.0
C687 C 0.93231 0.85318 0.87596 0.0
C688 C 0.8831 0.87291 0.88878 0.0
C689 C 0.94702 0.84155 0.88108 0.0
C690 C 0.86365 0.96135 0.88614 0.0
C691 C 0.86688 0.93963 0.88267 0.0
C692 C 0.91816 0.92123 0.87466 0.0
C693 C 0.91706 0.85843 0.88665 0.0
C694 C 0.90722 0.87682 0.88264 0.0
C695 C 0.89169 0.94142 0.88455 0.0
C696 C 0.89517 0.91812 0.88199 0.0
H697 H 0.9294 0.83373 0.91968 0.0
H698 H 0.90366 0.85354 0.91081 0.0
H699 H 0.94293 0.90459 0.8702 0.0
H700 H 0.92685 0.00491 0.89778 0.0
H701 H 0.93242 0.96722 0.89176 0.0
C702 C 0.74892 0.51078 0.46386 0.0
C703 C 0.74677 0.48824 0.47121 0.0
C704 C 0.72748 0.51533 0.46413 0.0
C705 C 0.6721 0.4945 0.45146 0.0
H706 H 0.61644 0.47194 0.48255 0.0
C707 C 0.56634 0.43723 0.43051 0.0
C708 C 0.55062 0.41416 0.43919 0.0
C709 C 0.58909 0.45822 0.43714 0.0
C710 C 0.63171 0.47825 0.47368 0.0
H711 H 0.72254 0.45506 0.48639 0.0
H712 H 0.6855 0.46316 0.48713 0.0
H713 H 0.66228 0.48949 0.49097 0.0
H714 H 0.54494 0.39549 0.46187 0.0
H715 H 0.58543 0.43102 0.47316 0.0
H716 H 0.64198 0.48087 0.43415 0.0
C717 C 0.70338 0.47728 0.48106 0.0
C718 C 0.65802 0.48861 0.47855 0.0
C719 C 0.72456 0.47251 0.48058 0.0
C720 C 0.55679 0.41317 0.45497 0.0
C721 C 0.58004 0.43377 0.46145 0.0
C722 C 0.64588 0.48377 0.44661 0.0
C723 C 0.70386 0.49757 0.47191 0.0
C724 C 0.67828 0.49553 0.46745 0.0
C725 C 0.59723 0.45605 0.45236 0.0
C726 C 0.6251 0.4741 0.45763 0.0
H727 H 0.76585 0.52315 0.45652 0.0
H728 H 0.72845 0.53126 0.45709 0.0
H729 H 0.68715 0.49937 0.44258 0.0
H730 H 0.56168 0.43855 0.41836 0.0
H731 H 0.60113 0.47541 0.42993 0.0
C732 C 0.50326 0.2731 0.44816 0.0
C733 C 0.50522 0.28021 0.43225 0.0
C734 C 0.51288 0.25665 0.45333 0.0
C735 C 0.53719 0.21178 0.43986 0.0
H736 H 0.5907 0.24626 0.47207 0.0
C737 C 0.61554 0.181 0.45197 0.0
C738 C 0.64134 0.20269 0.45039 0.0
C739 C 0.59396 0.1851 0.45391 0.0
C740 C 0.57558 0.23615 0.46322 0.0
H741 H 0.51675 0.27402 0.40915 0.0
H742 H 0.53313 0.24523 0.4181 0.0
H743 H 0.55935 0.26156 0.46686 0.0
H744 H 0.665 0.24556 0.45075 0.0
H745 H 0.62762 0.25268 0.45433 0.0
H746 H 0.5545 0.18747 0.43557 0.0
C747 C 0.52433 0.25234 0.42662 0.0
C748 C 0.55747 0.24476 0.46032 0.0
C749 C 0.51511 0.26902 0.4215 0.0
C750 C 0.64533 0.22845 0.45184 0.0
C751 C 0.62391 0.23252 0.45401 0.0
C752 C 0.55518 0.20304 0.44285 0.0
C753 C 0.52417 0.24669 0.44265 0.0
C754 C 0.53882 0.23342 0.44815 0.0
C755 C 0.59792 0.21095 0.4546 0.0
C756 C 0.57527 0.21591 0.4541 0.0
H757 H 0.49578 0.28147 0.45672 0.0
H758 H 0.51238 0.2525 0.46575 0.0
H759 H 0.52286 0.20249 0.43051 0.0
H760 H 0.61188 0.16092 0.45088 0.0
H761 H 0.57414 0.16812 0.45439 0.0
C762 C 0.84737 0.42332 0.47238 0.0
C763 C 0.82192 0.4182 0.47654 0.0
C764 C 0.85527 0.40481 0.47591 0.0
C765 C 0.83378 0.33954 0.49531 0.0
H766 H 0.83968 0.31825 0.4532 0.0
C767 C 0.76753 0.23654 0.47354 0.0
C768 C 0.7713 0.22979 0.45836 0.0
C769 C 0.78736 0.25953 0.48068 0.0
C770 C 0.83889 0.32373 0.46523 0.0
H771 H 0.78623 0.39185 0.48936 0.0
H772 H 0.80001 0.35991 0.49571 0.0
H773 H 0.85147 0.36335 0.45814 0.0
H774 H 0.79988 0.23877 0.43983 0.0
H775 H 0.83538 0.27753 0.45283 0.0
H776 H 0.81999 0.29947 0.50225 0.0
C777 C 0.81392 0.37791 0.48966 0.0
C778 C 0.84574 0.34996 0.46805 0.0
C779 C 0.80587 0.39609 0.48589 0.0
C780 C 0.79647 0.24386 0.45149 0.0
C781 C 0.81665 0.26632 0.45888 0.0
C782 C 0.82736 0.3133 0.49256 0.0
C783 C 0.83798 0.38122 0.48387 0.0
C784 C 0.84132 0.35763 0.48283 0.0
C785 C 0.81153 0.27586 0.47288 0.0
C786 C 0.82774 0.30454 0.47719 0.0
H787 H 0.86012 0.44028 0.46516 0.0
H788 H 0.87397 0.4079 0.47136 0.0
H789 H 0.8307 0.34508 0.50692 0.0
H790 H 0.74821 0.226 0.47906 0.0
H791 H 0.78236 0.26579 0.49147 0.0
C792 C 0.782 0.23364 0.22419 0.0
C793 C 0.75902 0.22244 0.21495 0.0
C794 C 0.8053 0.25549 0.21875 0.0
C795 C 0.83079 0.30611 0.18586 0.0
H796 H 0.8509 0.35366 0.22144 0.0
C797 C 0.81999 0.39544 0.1891 0.0
C798 C 0.83421 0.41543 0.20014 0.0
C799 C 0.82686 0.37614 0.18608 0.0
C800 C 0.84641 0.3409 0.2113 0.0
H801 H 0.74284 0.22324 0.19228 0.0
H802 H 0.78248 0.26225 0.18316 0.0
H803 H 0.83215 0.30709 0.22589 0.0
H804 H 0.86848 0.43295 0.21538 0.0
H805 H 0.88026 0.39865 0.21041 0.0
H806 H 0.84249 0.34038 0.17146 0.0
C807 C 0.78337 0.25403 0.19436 0.0
C808 C 0.83549 0.3138 0.21384 0.0
C809 C 0.76039 0.23158 0.1996 0.0
C810 C 0.85728 0.41769 0.20678 0.0
C811 C 0.86395 0.39803 0.20397 0.0
C812 C 0.84135 0.3333 0.18334 0.0
C813 C 0.8056 0.26739 0.20429 0.0
C814 C 0.82567 0.29578 0.20122 0.0
C815 C 0.84775 0.37616 0.19435 0.0
C816 C 0.84749 0.35067 0.19611 0.0
H817 H 0.78144 0.2266 0.23602 0.0
H818 H 0.8223 0.26436 0.22648 0.0
H819 H 0.82459 0.29306 0.17578 0.0
H820 H 0.80215 0.39342 0.18381 0.0
H821 H 0.81385 0.35958 0.17867 0.0
C822 C 0.73101 0.45906 0.18944 0.0
C823 C 0.75276 0.47688 0.19853 0.0
C824 C 0.7117 0.4652 0.18496 0.0
C825 C 0.68 0.49664 0.20324 0.0
H826 H 0.63377 0.46997 0.16702 0.0
C827 C 0.57159 0.45544 0.21356 0.0
C828 C 0.55637 0.43008 0.20709 0.0
C829 C 0.59631 0.47325 0.2072 0.0
C830 C 0.6464 0.47756 0.17725 0.0
H831 H 0.77266 0.516 0.20897 0.0
H832 H 0.73825 0.5265 0.20153 0.0
H833 H 0.67949 0.47942 0.16502 0.0
H834 H 0.55353 0.40421 0.18809 0.0
H835 H 0.59705 0.43427 0.17753 0.0
H836 H 0.64683 0.49225 0.21605 0.0
C837 C 0.73638 0.50791 0.19772 0.0
C838 C 0.67269 0.48322 0.17602 0.0
C839 C 0.75605 0.50193 0.20195 0.0
C840 C 0.56488 0.42379 0.1932 0.0
C841 C 0.59 0.44122 0.18714 0.0
C842 C 0.6537 0.49056 0.20455 0.0
C843 C 0.71349 0.48912 0.18974 0.0
C844 C 0.6893 0.49148 0.18925 0.0
C845 C 0.6068 0.46551 0.19471 0.0
C846 C 0.63604 0.47946 0.19182 0.0
H847 H 0.72814 0.43968 0.18655 0.0
H848 H 0.69422 0.45019 0.17895 0.0
H849 H 0.69222 0.5028 0.21369 0.0
H850 H 0.56526 0.46073 0.22425 0.0
H851 H 0.60807 0.49218 0.21296 0.0
C852 C 0.5082 0.28853 0.2089 0.0
C853 C 0.51361 0.30019 0.22389 0.0
C854 C 0.51567 0.2698 0.20507 0.0
C855 C 0.55573 0.25112 0.19858 0.0
H856 H 0.55008 0.19762 0.22786 0.0
C857 C 0.63585 0.22367 0.20826 0.0
C858 C 0.62882 0.19744 0.21177 0.0
C859 C 0.61638 0.23042 0.20547 0.0
C860 C 0.55138 0.21204 0.21937 0.0
H861 H 0.52961 0.30023 0.24685 0.0
H862 H 0.54221 0.26735 0.24025 0.0
H863 H 0.52404 0.21941 0.23217 0.0
H864 H 0.59606 0.15737 0.21432 0.0
H865 H 0.56169 0.16935 0.20982 0.0
H866 H 0.58432 0.24492 0.18632 0.0
C867 C 0.53232 0.27272 0.23144 0.0
C868 C 0.53665 0.22466 0.22192 0.0
C869 C 0.52529 0.29171 0.23519 0.0
C870 C 0.60196 0.17771 0.21153 0.0
C871 C 0.58235 0.18458 0.20905 0.0
C872 C 0.57069 0.23871 0.19613 0.0
C873 C 0.52818 0.26203 0.21624 0.0
C874 C 0.53939 0.24497 0.21185 0.0
C875 C 0.58941 0.21115 0.20642 0.0
C876 C 0.56934 0.21971 0.20681 0.0
H877 H 0.49926 0.29471 0.19993 0.0
H878 H 0.5122 0.26182 0.19327 0.0
H879 H 0.55835 0.26679 0.19067 0.0
H880 H 0.65644 0.23924 0.20837 0.0
H881 H 0.62245 0.25108 0.20364 0.0
C882 C 0.23301 0.73026 0.78577 0.0
C883 C 0.23301 0.70624 0.78723 0.0
C884 C 0.25512 0.75407 0.79051 0.0
C885 C 0.31828 0.78397 0.81248 0.0
H886 H 0.34864 0.82576 0.77498 0.0
C887 C 0.42877 0.83631 0.79981 0.0
C888 C 0.43912 0.85451 0.78746 0.0
C889 C 0.40253 0.82636 0.8046 0.0
C890 C 0.34052 0.81518 0.78583 0.0
H891 H 0.25486 0.68788 0.79606 0.0
H892 H 0.29308 0.72926 0.80466 0.0
H893 H 0.30243 0.79205 0.77523 0.0
H894 H 0.43176 0.87904 0.77162 0.0
H895 H 0.38674 0.86356 0.78084 0.0
H896 H 0.35647 0.80671 0.82306 0.0
C897 C 0.27622 0.72981 0.79974 0.0
C898 C 0.31383 0.79563 0.7859 0.0
C899 C 0.25445 0.70616 0.79469 0.0
C900 C 0.42406 0.86497 0.7812 0.0
C901 C 0.39811 0.8557 0.78633 0.0
C902 C 0.34492 0.80398 0.81257 0.0
C903 C 0.27721 0.75408 0.79716 0.0
C904 C 0.30282 0.779 0.79893 0.0
C905 C 0.38632 0.83484 0.79729 0.0
C906 C 0.35683 0.8189 0.79892 0.0
H907 H 0.21672 0.73086 0.78003 0.0
H908 H 0.25548 0.77256 0.78836 0.0
H909 H 0.31012 0.77151 0.82274 0.0
H910 H 0.43999 0.82771 0.80463 0.0
H911 H 0.39447 0.81029 0.81299 0.0
C912 C 0.24086 0.47073 0.79643 0.0
C913 C 0.26344 0.49413 0.80125 0.0
C914 C 0.21557 0.46652 0.80004 0.0
C915 C 0.17909 0.49548 0.82059 0.0
H916 H 0.15341 0.49571 0.77876 0.0
C917 C 0.15315 0.57157 0.80129 0.0
C918 C 0.142 0.56948 0.78645 0.0
C919 C 0.15404 0.55 0.80775 0.0
C920 C 0.15927 0.49491 0.79069 0.0
H921 H 0.27782 0.53013 0.81476 0.0
H922 H 0.23397 0.52268 0.82135 0.0
H923 H 0.1825 0.47819 0.78284 0.0
H924 H 0.11993 0.54273 0.76759 0.0
H925 H 0.11943 0.50432 0.77937 0.0
H926 H 0.15671 0.51336 0.82831 0.0
C927 C 0.23542 0.50744 0.81489 0.0
C928 C 0.1762 0.48475 0.79302 0.0
C929 C 0.26058 0.51181 0.81108 0.0
C930 C 0.12855 0.54468 0.77912 0.0
C931 C 0.12874 0.52284 0.78578 0.0
C932 C 0.16171 0.50525 0.81832 0.0
C933 C 0.21268 0.4856 0.80859 0.0
C934 C 0.18776 0.48666 0.80775 0.0
C935 C 0.14351 0.52583 0.7995 0.0
C936 C 0.1532 0.50697 0.80311 0.0
H937 H 0.2427 0.45703 0.78865 0.0
H938 H 0.19839 0.4495 0.79506 0.0
H939 H 0.18735 0.49675 0.83215 0.0
H940 H 0.16397 0.59068 0.80704 0.0
H941 H 0.16563 0.55345 0.8183 0.0
C942 C 0.49431 0.76564 0.76316 0.0
C943 C 0.50697 0.78794 0.77297 0.0
C944 C 0.4922 0.74162 0.76759 0.0
C945 C 0.49429 0.69309 0.77723 0.0
H946 H 0.46605 0.67293 0.81929 0.0
C947 C 0.42745 0.58421 0.79118 0.0
C948 C 0.40285 0.58034 0.79625 0.0
C949 C 0.45018 0.60927 0.79257 0.0
C950 C 0.47426 0.67828 0.80758 0.0
H951 H 0.52888 0.80291 0.79469 0.0
H952 H 0.52518 0.76081 0.80245 0.0
H953 H 0.48826 0.71936 0.81168 0.0
H954 H 0.38286 0.59822 0.8081 0.0
H955 H 0.42209 0.64146 0.81074 0.0
H956 H 0.47805 0.65182 0.77265 0.0
C957 C 0.51665 0.76191 0.79139 0.0
C958 C 0.48722 0.70498 0.80324 0.0
C959 C 0.51884 0.78606 0.78691 0.0
C960 C 0.40172 0.6008 0.80419 0.0
C961 C 0.42432 0.6256 0.80574 0.0
C962 C 0.48118 0.66639 0.78153 0.0
C963 C 0.50271 0.73924 0.78196 0.0
C964 C 0.49601 0.7125 0.78773 0.0
C965 C 0.44852 0.6306 0.79915 0.0
C966 C 0.46963 0.65855 0.79648 0.0
H967 H 0.48506 0.76639 0.7523 0.0
H968 H 0.48097 0.72455 0.76012 0.0
H969 H 0.50145 0.69832 0.7653 0.0
H970 H 0.42866 0.56871 0.78487 0.0
H971 H 0.46859 0.61242 0.78753 0.0
C972 C 0.47716 0.7578 0.55508 0.0
C973 C 0.47873 0.76479 0.57098 0.0
C974 C 0.46619 0.73116 0.55073 0.0
C975 C 0.44297 0.66312 0.56582 0.0
H976 H 0.38273 0.64322 0.53845 0.0
C977 C 0.36119 0.55373 0.5557 0.0
C978 C 0.33563 0.54943 0.55884 0.0
C979 C 0.38261 0.57951 0.554 0.0
C980 C 0.39964 0.64847 0.54597 0.0
H981 H 0.47254 0.74987 0.5948 0.0
H982 H 0.45389 0.70367 0.58725 0.0
H983 H 0.41614 0.68985 0.54143 0.0
H984 H 0.31234 0.56873 0.56205 0.0
H985 H 0.34953 0.61352 0.55889 0.0
H986 H 0.42566 0.62173 0.57094 0.0
C987 C 0.46087 0.71855 0.57811 0.0
C988 C 0.41892 0.67514 0.54756 0.0
C989 C 0.47143 0.74504 0.58244 0.0
C990 C 0.33179 0.57135 0.55971 0.0
C991 C 0.35306 0.59701 0.55777 0.0
C992 C 0.4238 0.63638 0.5641 0.0
C993 C 0.45707 0.7112 0.56222 0.0
C994 C 0.44028 0.68284 0.55795 0.0
C995 C 0.37875 0.60141 0.55511 0.0
C996 C 0.40144 0.62891 0.55461 0.0
H997 H 0.48258 0.7726 0.54599 0.0
H998 H 0.46368 0.72606 0.53838 0.0
H999 H 0.45931 0.66847 0.57384 0.0
H1000 H 0.36479 0.53723 0.55498 0.0
H1001 H 0.40222 0.58236 0.55193 0.0
C1002 C 0.26725 0.73295 0.51187 0.0
C1003 C 0.24334 0.72915 0.51812 0.0
C1004 C 0.28903 0.7583 0.51047 0.0
C1005 C 0.33611 0.81229 0.51103 0.0
H1006 H 0.33959 0.84393 0.55152 0.0
C1007 C 0.43301 0.85885 0.54527 0.0
C1008 C 0.42906 0.8488 0.56064 0.0
C1009 C 0.41181 0.8574 0.53668 0.0
C1010 C 0.33906 0.83544 0.54013 0.0
H1011 H 0.22219 0.74886 0.52583 0.0
H1012 H 0.26034 0.79361 0.52314 0.0
H1013 H 0.29688 0.81501 0.53979 0.0
H1014 H 0.40035 0.83154 0.57947 0.0
H1015 H 0.3637 0.82818 0.56459 0.0
H1016 H 0.37811 0.82986 0.51238 0.0
C1017 C 0.26249 0.77691 0.51967 0.0
C1018 C 0.3144 0.81911 0.5332 0.0
C1019 C 0.24052 0.75131 0.52106 0.0
C1020 C 0.40408 0.83922 0.56761 0.0
C1021 C 0.38299 0.83763 0.55905 0.0
C1022 C 0.36073 0.82799 0.51817 0.0
C1023 C 0.28749 0.78059 0.51535 0.0
C1024 C 0.31254 0.80558 0.51916 0.0
C1025 C 0.38624 0.84579 0.54327 0.0
C1026 C 0.36228 0.83801 0.5334 0.0
H1027 H 0.26982 0.71613 0.50933 0.0
H1028 H 0.3077 0.75992 0.50712 0.0
H1029 H 0.33553 0.80323 0.49983 0.0
H1030 H 0.45213 0.86665 0.53962 0.0
H1031 H 0.41523 0.86434 0.52467 0.0
C1032 C 0.18589 0.43322 0.54052 0.0
C1033 C 0.21277 0.44601 0.53638 0.0
C1034 C 0.16787 0.43668 0.53145 0.0
C1035 C 0.14761 0.47334 0.52438 0.0
H1036 H 0.16603 0.50973 0.48441 0.0
C1037 C 0.14048 0.56579 0.51795 0.0
C1038 C 0.16648 0.58669 0.51573 0.0
C1039 C 0.13379 0.53988 0.51382 0.0
C1040 C 0.16013 0.49922 0.49548 0.0
H1041 H 0.24142 0.46952 0.51863 0.0
H1042 H 0.21076 0.47693 0.50331 0.0
H1043 H 0.17582 0.47421 0.48918 0.0
H1044 H 0.20488 0.59774 0.50589 0.0
H1045 H 0.19326 0.55298 0.4985 0.0
H1046 H 0.13328 0.49922 0.53098 0.0
C1047 C 0.20292 0.46359 0.51321 0.0
C1048 C 0.16595 0.479 0.49829 0.0
C1049 C 0.22072 0.45937 0.52202 0.0
C1050 C 0.18475 0.58185 0.50782 0.0
C1051 C 0.17796 0.55619 0.50344 0.0
C1052 C 0.14147 0.49321 0.52148 0.0
C1053 C 0.17675 0.45405 0.51852 0.0
C1054 C 0.1617 0.46727 0.51324 0.0
C1055 C 0.15289 0.53472 0.50718 0.0
C1056 C 0.14949 0.50771 0.50745 0.0
H1057 H 0.1793 0.42261 0.55153 0.0
H1058 H 0.14762 0.42794 0.53553 0.0
H1059 H 0.14384 0.46501 0.53607 0.0
H1060 H 0.12608 0.56911 0.52405 0.0
H1061 H 0.1143 0.5237 0.51681 0.0
C1062 C 0.14925 0.20906 0.03509 0.0
C1063 C 0.16379 0.20627 0.04732 0.0
C1064 C 0.15942 0.21462 0.01989 0.0
C1065 C 0.18653 0.22899 0.9881 0.0
H1066 H 0.20059 0.17243 0.97748 0.0
C1067 C 0.18803 0.19536 0.92403 0.0
C1068 C 0.16972 0.16825 0.92198 0.0
C1069 C 0.19525 0.20613 0.93912 0.0
C1070 C 0.19712 0.18859 0.98028 0.0
H1071 H 0.20122 0.2093 0.05362 0.0
H1072 H 0.2189 0.21852 0.02683 0.0
H1073 H 0.20074 0.18441 0.00491 0.0
H1074 H 0.14532 0.13106 0.93407 0.0
H1075 H 0.15827 0.14975 0.96031 0.0
H1076 H 0.18139 0.232 0.96343 0.0
C1077 C 0.1997 0.21657 0.02907 0.0
C1078 C 0.19747 0.19565 0.99596 0.0
C1079 C 0.18967 0.21146 0.04438 0.0
C1080 C 0.15937 0.15202 0.93526 0.0
C1081 C 0.16696 0.16268 0.95028 0.0
C1082 C 0.1865 0.22212 0.97237 0.0
C1083 C 0.18416 0.21707 0.01658 0.0
C1084 C 0.19101 0.21511 7e-05 0.0
C1085 C 0.18473 0.18985 0.95236 0.0
C1086 C 0.19062 0.20106 0.96841 0.0
H1087 H 0.12926 0.20522 0.03708 0.0
H1088 H 0.14687 0.21467 0.01053 0.0
H1089 H 0.18158 0.24412 0.99096 0.0
H1090 H 0.19629 0.20835 0.91399 0.0
H1091 H 0.20894 0.22716 0.94044 0.0
C1092 C 0.81348 0.0305 0.94717 0.0
C1093 C 0.84058 0.0486 0.94496 0.0
C1094 C 0.80225 0.02631 0.96218 0.0
C1095 C 0.81622 0.05271 0.00317 0.0
H1096 H 0.78265 0.97869 0.01508 0.0
C1097 C 0.83809 0.01609 0.05941 0.0
C1098 C 0.81763 0.99577 0.06814 0.0
C1099 C 0.83263 0.02449 0.04533 0.0
C1100 C 0.79131 0.99938 0.01192 0.0
H1101 H 0.87663 0.07794 0.95644 0.0
H1102 H 0.8573 0.07069 0.98238 0.0
H1103 H 0.7877 0.99067 0.98736 0.0
H1104 H 0.77532 0.96862 0.06927 0.0
H1105 H 0.76582 0.98268 0.044 0.0
H1106 H 0.82192 0.06139 0.02774 0.0
C1107 C 0.84453 0.05971 0.97266 0.0
C1108 C 0.79419 0.00629 0.99603 0.0
C1109 C 0.85574 0.06369 0.95778 0.0
C1110 C 0.7914 0.98439 0.06273 0.0
C1111 C 0.78598 0.99238 0.04834 0.0
C1112 C 0.81356 0.04581 0.01901 0.0
C1113 C 0.81787 0.04043 0.97516 0.0
C1114 C 0.80798 0.03308 0.9915 0.0
C1115 C 0.80665 0.0124 0.0395 0.0
C1116 C 0.80228 0.01916 0.02347 0.0
H1117 H 0.8013 0.01861 0.93749 0.0
H1118 H 0.78161 0.01143 0.96373 0.0
H1119 H 0.82638 0.07351 5e-05 0.0
H1120 H 0.85847 0.0253 0.06337 0.0
H1121 H 0.84898 0.03968 0.03864 0.0
C1122 C 0.01623 0.76245 0.94801 0.0
C1123 C 0.99843 0.77203 0.94723 0.0
C1124 C 0.01774 0.74985 0.96167 0.0
C1125 C 0.0338 0.75552 0.99604 0.0
H1126 H 0.97572 0.72239 0.02563 0.0
C1127 C 0.03372 0.80153 0.05326 0.0
C1128 C 0.01813 0.78667 0.06598 0.0
C1129 C 0.0356 0.78896 0.03983 0.0
C1130 C 0.99233 0.73098 0.0176 0.0
H1131 H 0.96646 0.77365 0.9591 0.0
H1132 H 0.96864 0.75154 0.98262 0.0
H1133 H 0.96679 0.71528 0.99766 0.0
H1134 H 0.99389 0.74704 0.07521 0.0
H1135 H 0.99667 0.72479 0.0514 0.0
H1136 H 0.0591 0.77261 0.01595 0.0
C1137 C 0.98153 0.75352 0.97293 0.0
C1138 C 0.98716 0.72707 0.00152 0.0
C1139 C 0.98035 0.76641 0.95948 0.0
C1140 C 0.00605 0.75892 0.06553 0.0
C1141 C 0.00758 0.74622 0.05191 0.0
C1142 C 0.03899 0.75928 0.01211 0.0
C1143 C 0.00119 0.74639 0.97457 0.0
C1144 C 0.00755 0.74107 0.99058 0.0
C1145 C 0.02162 0.76116 0.03871 0.0
C1146 C 0.01803 0.7488 0.02298 0.0
H1147 H 0.03046 0.76674 0.93869 0.0
H1148 H 0.03299 0.74445 0.96255 0.0
H1149 H 0.05006 0.76646 0.98798 0.0
H1150 H 0.04338 0.82297 0.05336 0.0
H1151 H 0.0463 0.80116 0.02987 0.0
C1152 C 0.82477 0.48311 0.27762 0.0
C1153 C 0.80403 0.46069 0.27029 0.0
C1154 C 0.82561 0.48562 0.29399 0.0
C1155 C 0.78219 0.46096 0.32882 0.0
H1156 H 0.84719 0.48366 0.35213 0.0
C1157 C 0.78116 0.444 0.39501 0.0
C1158 C 0.80047 0.46431 0.40441 0.0
C1159 C 0.78285 0.44565 0.37869 0.0
C1160 C 0.82896 0.47764 0.34577 0.0
H1161 H 0.76812 0.42317 0.27449 0.0
H1162 H 0.7697 0.42749 0.30285 0.0
H1163 H 0.84794 0.4829 0.32344 0.0
H1164 H 0.83697 0.5022 0.40392 0.0
H1165 H 0.83985 0.5051 0.37527 0.0
H1166 H 0.76312 0.45544 0.35103 0.0
C1167 C 0.78513 0.44333 0.29598 0.0
C1168 C 0.82939 0.4772 0.32935 0.0
C1169 C 0.78433 0.44078 0.27969 0.0
C1170 C 0.82175 0.48621 0.39704 0.0
C1171 C 0.82346 0.48783 0.38063 0.0
C1172 C 0.78177 0.46141 0.34517 0.0
C1173 C 0.80564 0.46583 0.30334 0.0
C1174 C 0.80589 0.46838 0.3207 0.0
C1175 C 0.80388 0.46765 0.37129 0.0
C1176 C 0.80503 0.46927 0.35387 0.0
H1177 H 0.84028 0.49881 0.27073 0.0
H1178 H 0.84161 0.50325 0.29931 0.0
H1179 H 0.76386 0.45464 0.3225 0.0
H1180 H 0.76457 0.42675 0.40025 0.0
H1181 H 0.7677 0.42951 0.37186 0.0
C1182 C 0.42786 0.33784 0.26752 0.0
C1183 C 0.45267 0.36107 0.26653 0.0
C1184 C 0.41234 0.33256 0.28105 0.0
C1185 C 0.40722 0.36151 0.319 0.0
H1186 H 0.40535 0.29982 0.33743 0.0
C1187 C 0.45186 0.36354 0.37707 0.0
C1188 C 0.44383 0.34061 0.38599 0.0
C1189 C 0.43794 0.3628 0.36364 0.0
C1190 C 0.40472 0.31663 0.3325 0.0
H1191 H 0.47961 0.39807 0.27799 0.0
H1192 H 0.45248 0.3893 0.30131 0.0
H1193 H 0.40758 0.30499 0.30913 0.0
H1194 H 0.4142 0.29929 0.38865 0.0
H1195 H 0.38983 0.29768 0.36472 0.0
H1196 H 0.40658 0.37418 0.34249 0.0
C1197 C 0.44488 0.37502 0.29182 0.0
C1198 C 0.40603 0.3196 0.31621 0.0
C1199 C 0.46057 0.37999 0.27852 0.0
C1200 C 0.42054 0.31725 0.38194 0.0
C1201 C 0.40673 0.31635 0.36826 0.0
C1202 C 0.40575 0.35846 0.33529 0.0
C1203 C 0.4212 0.35075 0.29356 0.0
C1204 C 0.40927 0.343 0.30941 0.0
C1205 C 0.41592 0.33892 0.35865 0.0
C1206 C 0.40657 0.33698 0.34223 0.0
H1207 H 0.42144 0.32291 0.25841 0.0
H1208 H 0.3942 0.31369 0.28212 0.0
H1209 H 0.40923 0.37952 0.31403 0.0
H1210 H 0.46987 0.38172 0.38 0.0
H1211 H 0.44591 0.38047 0.35646 0.0
C1212 C 0.68813 0.12719 0.39125 0.0
C1213 C 0.68417 0.14892 0.3933 0.0
C1214 C 0.68109 0.11308 0.37706 0.0
C1215 C 0.63794 0.09731 0.34312 0.0
H1216 H 0.69795 0.11513 0.31599 0.0
C1217 C 0.64705 0.13844 0.28306 0.0
C1218 C 0.66133 0.13463 0.2711 0.0
C1219 C 0.64358 0.12607 0.29751 0.0
C1220 C 0.68076 0.10899 0.32342 0.0
H1221 H 0.66877 0.1722 0.38256 0.0
H1222 H 0.6559 0.14727 0.35817 0.0
H1223 H 0.70422 0.11936 0.34437 0.0
H1224 H 0.68192 0.11379 0.26444 0.0
H1225 H 0.67653 0.09257 0.29016 0.0
H1226 H 0.61491 0.08911 0.32219 0.0
C1227 C 0.66467 0.14129 0.36736 0.0
C1228 C 0.6844 0.11144 0.33967 0.0
C1229 C 0.6723 0.15572 0.38125 0.0
C1230 C 0.67078 0.11695 0.27352 0.0
C1231 C 0.66775 0.10489 0.28819 0.0
C1232 C 0.63426 0.09466 0.32692 0.0
C1233 C 0.66918 0.12004 0.36508 0.0
C1234 C 0.66338 0.10736 0.3495 0.0
C1235 C 0.65467 0.10991 0.30044 0.0
C1236 C 0.65605 0.1024 0.31688 0.0
H1237 H 0.69727 0.12161 0.40042 0.0
H1238 H 0.68499 0.09691 0.37541 0.0
H1239 H 0.62145 0.09397 0.35054 0.0
H1240 H 0.63944 0.15186 0.28144 0.0
H1241 H 0.63378 0.13074 0.30674 0.0
C1242 C 0.56371 0.89496 0.61563 0.0
C1243 C 0.53758 0.88994 0.61422 0.0
C1244 C 0.57953 0.91006 0.62824 0.0
C1245 C 0.58223 0.95284 0.66158 0.0
H1246 H 0.59316 0.90417 0.68712 0.0
C1247 C 0.53778 0.91886 0.72034 0.0
C1248 C 0.54835 0.90894 0.73141 0.0
C1249 C 0.55181 0.93105 0.70674 0.0
C1250 C 0.59128 0.91868 0.68016 0.0
H1251 H 0.50819 0.89837 0.62381 0.0
H1252 H 0.53567 0.92499 0.64545 0.0
H1253 H 0.5901 0.89881 0.65883 0.0
H1254 H 0.58258 0.90566 0.73772 0.0
H1255 H 0.60704 0.92641 0.7135 0.0
H1256 H 0.58074 0.97103 0.68309 0.0
C1257 C 0.54414 0.91739 0.63703 0.0
C1258 C 0.5895 0.91557 0.66387 0.0
C1259 C 0.52825 0.90188 0.62474 0.0
C1260 C 0.57417 0.91337 0.72934 0.0
C1261 C 0.58808 0.92514 0.71549 0.0
C1262 C 0.58404 0.95597 0.67786 0.0
C1263 C 0.56959 0.92086 0.63928 0.0
C1264 C 0.58279 0.93127 0.6546 0.0
C1265 C 0.57648 0.93302 0.70375 0.0
C1266 C 0.58637 0.93753 0.68736 0.0
H1267 H 0.57124 0.88584 0.60762 0.0
H1268 H 0.59901 0.9123 0.62978 0.0
H1269 H 0.57757 0.96555 0.65464 0.0
H1270 H 0.51787 0.91558 0.72172 0.0
H1271 H 0.54207 0.93655 0.6979 0.0
C1272 C 0.1498 0.65575 0.5905 0.0
C1273 C 0.17453 0.65973 0.58543 0.0
C1274 C 0.14497 0.6571 0.60651 0.0
C1275 C 0.18006 0.68526 0.64364 0.0
H1276 H 0.12102 0.62597 0.66444 0.0
C1277 C 0.18619 0.65891 0.70679 0.0
C1278 C 0.16479 0.65158 0.71709 0.0
C1279 C 0.1838 0.66282 0.69092 0.0
C1280 C 0.13726 0.64295 0.65876 0.0
H1281 H 0.21357 0.66848 0.59321 0.0
H1282 H 0.20525 0.67108 0.62084 0.0
H1283 H 0.12324 0.62747 0.63568 0.0
H1284 H 0.124 0.64261 0.71874 0.0
H1285 H 0.11966 0.64906 0.69057 0.0
H1286 H 0.19474 0.70024 0.66658 0.0
C1287 C 0.1896 0.66697 0.61252 0.0
C1288 C 0.13854 0.64379 0.64233 0.0
C1289 C 0.19428 0.66527 0.59666 0.0
C1290 C 0.14084 0.64831 0.71109 0.0
C1291 C 0.13833 0.65191 0.69501 0.0
C1292 C 0.17876 0.68445 0.65997 0.0
C1293 C 0.16496 0.66296 0.61764 0.0
C1294 C 0.16054 0.66444 0.63466 0.0
C1295 C 0.15991 0.65935 0.68482 0.0
C1296 C 0.15794 0.66277 0.66771 0.0
H1297 H 0.13415 0.65138 0.58213 0.0
H1298 H 0.12578 0.65388 0.61018 0.0
H1299 H 0.19698 0.70167 0.63802 0.0
H1300 H 0.20496 0.66169 0.71098 0.0
H1301 H 0.20064 0.6681 0.68333 0.0
C1302 C 0.30177 0.43992 0.61218 0.0
C1303 C 0.27902 0.44203 0.60981 0.0
C1304 C 0.30922 0.43721 0.62737 0.0
C1305 C 0.33001 0.46089 0.65971 0.0
H1306 H 0.28194 0.42358 0.69401 0.0
C1307 C 0.3373 0.50653 0.71994 0.0
C1308 C 0.3324 0.49105 0.73348 0.0
C1309 C 0.33455 0.49536 0.7051 0.0
C1310 C 0.29579 0.43378 0.68457 0.0
H1311 H 0.2448 0.44013 0.62112 0.0
H1312 H 0.25753 0.43504 0.64748 0.0
H1313 H 0.26794 0.40937 0.66699 0.0
H1314 H 0.3214 0.45186 0.74212 0.0
H1315 H 0.3159 0.43212 0.71601 0.0
H1316 H 0.35721 0.48632 0.67721 0.0
C1317 C 0.26976 0.43565 0.63774 0.0
C1318 C 0.28774 0.42573 0.66912 0.0
C1319 C 0.26254 0.43876 0.62264 0.0
C1320 C 0.32533 0.46428 0.73188 0.0
C1321 C 0.32214 0.45297 0.71698 0.0
C1322 C 0.33795 0.46908 0.67513 0.0
C1323 C 0.29378 0.43608 0.64034 0.0
C1324 C 0.30438 0.43987 0.65652 0.0
C1325 C 0.3265 0.46838 0.70346 0.0
C1326 C 0.32052 0.45626 0.68765 0.0
H1327 H 0.31484 0.44241 0.60249 0.0
H1328 H 0.32776 0.43742 0.62906 0.0
H1329 H 0.34321 0.47233 0.65026 0.0
H1330 H 0.34289 0.52723 0.72079 0.0
H1331 H 0.33769 0.50762 0.69488 0.0
loop_
_geom_bond_atom_site_label_1
_geom_bond_atom_site_label_2
_geom_bond_distance
_geom_bond_site_symmetry_2
_ccdc_geom_bond_type
Zn0 O3 2.031 . S
Zn0 O5 2.049 . S
Zn0 O10 2.067 . S
Zn1 O2 1.962 . S
Zn1 O4 1.986 . S
Zn1 O6 1.996 . S
Zn1 O9 1.943 . S
O2 Zn1 1.962 . S
O2 C7 1.254 . S
O3 Zn0 2.031 . S
O3 C7 1.269 . S
O4 Zn1 1.986 . S
O4 C11 1.262 . S
O5 Zn0 2.049 . S
O5 C13 1.260 . S
O6 Zn1 1.996 . S
O6 C13 1.257 . S
C7 O2 1.254 . S
C7 O3 1.269 . S
C8 O9 1.249 . S
C8 O10 1.270 . S
O9 Zn1 1.943 . S
O9 C8 1.249 . S
O10 Zn0 2.067 . S
O10 C8 1.270 . S
C11 O4 1.262 . S
C11 O12 1.232 . S
O12 C11 1.232 . S
C13 O5 1.260 . S
C13 O6 1.257 . S
Zn14 O17 2.031 1_565 S
Zn14 O19 2.049 . S
Zn14 O24 2.067 . S
Zn15 O16 1.962 . S
Zn15 O18 1.986 . S
Zn15 O20 1.996 . S
Zn15 O23 1.943 1_545 S
O16 Zn15 1.962 . S
O16 C21 1.254 . S
O17 Zn14 2.031 1_545 S
O17 C21 1.269 . S
O18 Zn15 1.986 . S
O18 C25 1.262 . S
O19 Zn14 2.049 . S
O19 C27 1.260 . S
O20 Zn15 1.996 . S
O20 C27 1.257 1_545 S
C21 O16 1.254 . S
C21 O17 1.269 . S
C22 O23 1.249 . S
C22 O24 1.270 . S
O23 Zn15 1.943 1_565 S
O23 C22 1.249 . S
O24 Zn14 2.067 . S
O24 C22 1.270 . S
C25 O18 1.262 . S
C25 O26 1.232 . S
O26 C25 1.232 . S
C27 O19 1.260 . S
C27 O20 1.257 1_565 S
Zn28 O31 2.053 . S
Zn28 O33 2.026 1_655 S
Zn28 O38 2.032 1_655 S
Zn29 O30 1.962 . S
Zn29 O32 1.986 . S
Zn29 O34 1.996 . S
Zn29 O37 1.943 1_655 S
O30 Zn29 1.962 . S
O30 C35 1.254 . S
O31 Zn28 2.053 . S
O31 C35 1.269 . S
O32 Zn29 1.986 . S
O32 C39 1.262 . S
O33 Zn28 2.026 1_455 S
O33 C41 1.259 . S
O34 Zn29 1.996 . S
O34 C41 1.252 1_655 S
C35 O30 1.254 . S
C35 O31 1.269 . S
C36 O37 1.249 . S
C36 O38 1.270 . S
O37 Zn29 1.943 1_455 S
O37 C36 1.249 . S
O38 Zn28 2.032 1_455 S
O38 C36 1.270 . S
C39 O32 1.262 . S
C39 O40 1.232 . S
O40 C39 1.232 . S
C41 O33 1.259 . S
C41 O34 1.252 1_455 S
Zn42 O45 2.031 . S
Zn42 O47 2.049 . S
Zn42 O52 2.067 . S
Zn43 O44 1.962 . S
Zn43 O46 1.986 . S
Zn43 O48 1.996 . S
Zn43 O51 1.943 . S
O44 Zn43 1.962 . S
O44 C49 1.254 . S
O45 Zn42 2.031 . S
O45 C49 1.269 . S
O46 Zn43 1.986 . S
O46 C53 1.262 . S
O47 Zn42 2.049 . S
O47 C55 1.260 . S
O48 Zn43 1.996 . S
O48 C55 1.257 . S
C49 O44 1.254 . S
C49 O45 1.269 . S
C50 O51 1.249 . S
C50 O52 1.270 . S
O51 Zn43 1.943 . S
O51 C50 1.249 . S
O52 Zn42 2.067 . S
O52 C50 1.270 . S
C53 O46 1.262 . S
C53 O54 1.232 . S
O54 C53 1.232 . S
C55 O47 1.260 . S
C55 O48 1.257 . S
Zn56 O59 2.053 . S
Zn56 O61 2.026 1_565 S
Zn56 O66 2.032 1_565 S
Zn57 O58 1.962 . S
Zn57 O60 1.986 . S
Zn57 O62 1.996 . S
Zn57 O65 1.943 1_565 S
O58 Zn57 1.962 . S
O58 C63 1.254 . S
O59 Zn56 2.053 . S
O59 C63 1.269 . S
O60 Zn57 1.986 . S
O60 C67 1.262 . S
O61 Zn56 2.026 1_545 S
O61 C69 1.259 . S
O62 Zn57 1.996 . S
O62 C69 1.252 1_565 S
C63 O58 1.254 . S
C63 O59 1.269 . S
C64 O65 1.249 . S
C64 O66 1.270 . S
O65 Zn57 1.943 1_545 S
O65 C64 1.249 . S
O66 Zn56 2.032 1_545 S
O66 C64 1.270 . S
C67 O60 1.262 . S
C67 O68 1.232 . S
O68 C67 1.232 . S
C69 O61 1.259 . S
C69 O62 1.252 1_545 S
Zn70 O73 2.031 1_655 S
Zn70 O75 2.049 . S
Zn70 O80 2.067 . S
Zn71 O72 1.962 . S
Zn71 O74 1.986 . S
Zn71 O76 1.996 . S
Zn71 O79 1.943 1_455 S
O72 Zn71 1.962 . S
O72 C77 1.254 . S
O73 Zn70 2.031 1_455 S
O73 C77 1.269 . S
O74 Zn71 1.986 . S
O74 C81 1.262 . S
O75 Zn70 2.049 . S
O75 C83 1.260 . S
O76 Zn71 1.996 . S
O76 C83 1.257 1_455 S
C77 O72 1.254 . S
C77 O73 1.269 . S
C78 O79 1.249 . S
C78 O80 1.270 . S
O79 Zn71 1.943 1_655 S
O79 C78 1.249 . S
O80 Zn70 2.067 . S
O80 C78 1.270 . S
C81 O74 1.262 . S
C81 O82 1.232 . S
O82 C81 1.232 . S
C83 O75 1.260 . S
C83 O76 1.257 1_655 S
Zn84 O87 2.031 . S
Zn84 O89 2.049 . S
Zn84 O94 2.067 . S
Zn85 O86 1.962 . S
Zn85 O88 1.986 . S
Zn85 O90 1.996 . S
Zn85 O93 1.943 . S
O86 Zn85 1.962 . S
O86 C91 1.254 . S
O87 Zn84 2.031 . S
O87 C91 1.269 . S
O88 Zn85 1.986 . S
O88 C95 1.262 . S
O89 Zn84 2.049 . S
O89 C97 1.260 . S
O90 Zn85 1.996 . S
O90 C97 1.257 . S
C91 O86 1.254 . S
C91 O87 1.269 . S
C92 O93 1.249 . S
C92 O94 1.270 . S
O93 Zn85 1.943 . S
O93 C92 1.249 . S
O94 Zn84 2.067 . S
O94 C92 1.270 . S
C95 O88 1.262 . S
C95 O96 1.232 . S
O96 C95 1.232 . S
C97 O89 1.260 . S
C97 O90 1.257 . S
Zn98 O101 2.031 . S
Zn98 O103 2.049 . S
Zn98 O108 2.067 . S
Zn99 O100 1.962 . S
Zn99 O102 1.986 . S
Zn99 O104 1.996 . S
Zn99 O107 1.943 . S
O100 Zn99 1.962 . S
O100 C105 1.254 . S
O101 Zn98 2.031 . S
O101 C105 1.269 . S
O102 Zn99 1.986 . S
O102 C109 1.262 . S
O103 Zn98 2.049 . S
O103 C111 1.260 . S
O104 Zn99 1.996 . S
O104 C111 1.257 . S
C105 O100 1.254 . S
C105 O101 1.269 . S
C106 O107 1.249 . S
C106 O108 1.270 . S
O107 Zn99 1.943 . S
O107 C106 1.249 . S
O108 Zn98 2.067 . S
O108 C106 1.270 . S
C109 O102 1.262 . S
C109 O110 1.232 . S
O110 C109 1.232 . S
C111 O103 1.260 . S
C111 O104 1.257 . S
Zn112 O115 2.031 . S
Zn112 O117 2.049 . S
Zn112 O122 2.067 . S
Zn113 O114 1.962 . S
Zn113 O116 1.986 . S
Zn113 O118 1.996 . S
Zn113 O121 1.943 . S
O114 Zn113 1.962 . S
O114 C119 1.254 . S
O115 Zn112 2.031 . S
O115 C119 1.269 . S
O116 Zn113 1.986 . S
O116 C123 1.262 . S
O117 Zn112 2.049 . S
O117 C125 1.260 . S
O118 Zn113 1.996 . S
O118 C125 1.257 . S
C119 O114 1.254 . S
C119 O115 1.269 . S
C120 O121 1.249 . S
C120 O122 1.270 . S
O121 Zn113 1.943 . S
O121 C120 1.249 . S
O122 Zn112 2.067 . S
O122 C120 1.270 . S
C123 O116 1.262 . S
C123 O124 1.232 . S
O124 C123 1.232 . S
C125 O117 1.260 . S
C125 O118 1.257 . S
Zn126 O129 2.031 . S
Zn126 O131 2.049 . S
Zn126 O136 2.067 . S
Zn127 O128 1.962 . S
Zn127 O130 1.986 . S
Zn127 O132 1.996 . S
Zn127 O135 1.943 . S
O128 Zn127 1.962 . S
O128 C133 1.254 . S
O129 Zn126 2.031 . S
O129 C133 1.269 . S
O130 Zn127 1.986 . S
O130 C137 1.262 . S
O131 Zn126 2.049 . S
O131 C139 1.260 . S
O132 Zn127 1.996 . S
O132 C139 1.257 . S
C133 O128 1.254 . S
C133 O129 1.269 . S
C134 O135 1.249 . S
C134 O136 1.270 . S
O135 Zn127 1.943 . S
O135 C134 1.249 . S
O136 Zn126 2.067 . S
O136 C134 1.270 . S
C137 O130 1.262 . S
C137 O138 1.232 . S
O138 C137 1.232 . S
C139 O131 1.260 . S
C139 O132 1.257 . S
Zn140 O143 2.031 . S
Zn140 O145 2.049 . S
Zn140 O150 2.067 . S
Zn141 O142 1.962 . S
Zn141 O144 1.986 . S
Zn141 O146 1.996 . S
Zn141 O149 1.943 . S
O142 Zn141 1.962 . S
O142 C147 1.254 . S
O143 Zn140 2.031 . S
O143 C147 1.269 . S
O144 Zn141 1.986 . S
O144 C151 1.262 . S
O145 Zn140 2.049 . S
O145 C153 1.260 . S
O146 Zn141 1.996 . S
O146 C153 1.257 . S
C147 O142 1.254 . S
C147 O143 1.269 . S
C148 O149 1.249 . S
C148 O150 1.270 . S
O149 Zn141 1.943 . S
O149 C148 1.249 . S
O150 Zn140 2.067 . S
O150 C148 1.270 . S
C151 O144 1.262 . S
C151 O152 1.232 . S
O152 C151 1.232 . S
C153 O145 1.260 . S
C153 O146 1.257 . S
Zn154 O157 2.031 . S
Zn154 O159 2.049 . S
Zn154 O164 2.067 . S
Zn155 O156 1.962 . S
Zn155 O158 1.986 . S
Zn155 O160 1.996 . S
Zn155 O163 1.943 . S
O156 Zn155 1.962 . S
O156 C161 1.254 . S
O157 Zn154 2.031 . S
O157 C161 1.269 . S
O158 Zn155 1.986 . S
O158 C165 1.262 . S
O159 Zn154 2.049 . S
O159 C167 1.260 . S
O160 Zn155 1.996 . S
O160 C167 1.257 . S
C161 O156 1.254 . S
C161 O157 1.269 . S
C162 O163 1.249 . S
C162 O164 1.270 . S
O163 Zn155 1.943 . S
O163 C162 1.249 . S
O164 Zn154 2.067 . S
O164 C162 1.270 . S
C165 O158 1.262 . S
C165 O166 1.232 . S
O166 C165 1.232 . S
C167 O159 1.260 . S
C167 O160 1.257 . S
Zn168 O171 2.031 . S
Zn168 O173 2.049 . S
Zn168 O178 2.067 . S
Zn169 O170 1.962 . S
Zn169 O172 1.986 . S
Zn169 O174 1.996 . S
Zn169 O177 1.943 . S
O170 Zn169 1.962 . S
O170 C175 1.254 . S
O171 Zn168 2.031 . S
O171 C175 1.269 . S
O172 Zn169 1.986 . S
O172 C179 1.262 . S
O173 Zn168 2.049 . S
O173 C181 1.260 . S
O174 Zn169 1.996 . S
O174 C181 1.257 . S
C175 O170 1.254 . S
C175 O171 1.269 . S
C176 O177 1.249 . S
C176 O178 1.270 . S
O177 Zn169 1.943 . S
O177 C176 1.249 . S
O178 Zn168 2.067 . S
O178 C176 1.270 . S
C179 O172 1.262 . S
C179 O180 1.232 . S
O180 C179 1.232 . S
C181 O173 1.260 . S
C181 O174 1.257 . S
Zn182 O185 2.031 . S
Zn182 O187 2.049 . S
Zn182 O192 2.067 . S
Zn183 O184 1.962 . S
Zn183 O186 1.986 . S
Zn183 O188 1.996 . S
Zn183 O191 1.943 . S
O184 Zn183 1.962 . S
O184 C189 1.254 . S
O185 Zn182 2.031 . S
O185 C189 1.269 . S
O186 Zn183 1.986 . S
O186 C193 1.262 . S
O187 Zn182 2.049 . S
O187 C195 1.260 . S
O188 Zn183 1.996 . S
O188 C195 1.257 . S
C189 O184 1.254 . S
C189 O185 1.269 . S
C190 O191 1.249 . S
C190 O192 1.270 . S
O191 Zn183 1.943 . S
O191 C190 1.249 . S
O192 Zn182 2.067 . S
O192 C190 1.270 . S
C193 O186 1.262 . S
C193 O194 1.232 . S
O194 C193 1.232 . S
C195 O187 1.260 . S
C195 O188 1.257 . S
Zn196 O199 2.031 . S
Zn196 O201 2.049 . S
Zn196 O206 2.067 . S
Zn197 O198 1.962 . S
Zn197 O200 1.986 . S
Zn197 O202 1.996 . S
Zn197 O205 1.943 . S
O198 Zn197 1.962 . S
O198 C203 1.254 . S
O199 Zn196 2.031 . S
O199 C203 1.269 . S
O200 Zn197 1.986 . S
O200 C207 1.262 . S
O201 Zn196 2.049 . S
O201 C209 1.260 . S
O202 Zn197 1.996 . S
O202 C209 1.257 . S
C203 O198 1.254 . S
C203 O199 1.269 . S
C204 O205 1.249 . S
C204 O206 1.270 . S
O205 Zn197 1.943 . S
O205 C204 1.249 . S
O206 Zn196 2.067 . S
O206 C204 1.270 . S
C207 O200 1.262 . S
C207 O208 1.232 . S
O208 C207 1.232 . S
C209 O201 1.260 . S
C209 O202 1.257 . S
Zn210 O213 2.031 . S
Zn210 O215 2.049 . S
Zn210 O220 2.067 . S
Zn211 O212 1.962 . S
Zn211 O214 1.986 . S
Zn211 O216 1.996 . S
Zn211 O219 1.943 . S
O212 Zn211 1.962 . S
O212 C217 1.254 . S
O213 Zn210 2.031 . S
O213 C217 1.269 . S
O214 Zn211 1.986 . S
O214 C221 1.262 . S
O215 Zn210 2.049 . S
O215 C223 1.260 . S
O216 Zn211 1.996 . S
O216 C223 1.257 . S
C217 O212 1.254 . S
C217 O213 1.269 . S
C218 O219 1.249 . S
C218 O220 1.270 . S
O219 Zn211 1.943 . S
O219 C218 1.249 . S
O220 Zn210 2.067 . S
O220 C218 1.270 . S
C221 O214 1.262 . S
C221 O222 1.232 . S
O222 C221 1.232 . S
C223 O215 1.260 . S
C223 O216 1.257 . S
Zn224 O227 2.031 . S
Zn224 O229 2.049 . S
Zn224 O234 2.067 . S
Zn225 O226 1.962 . S
Zn225 O228 1.986 . S
Zn225 O230 1.996 . S
Zn225 O233 1.943 . S
O226 Zn225 1.962 . S
O226 C231 1.254 . S
O227 Zn224 2.031 . S
O227 C231 1.269 . S
O228 Zn225 1.986 . S
O228 C235 1.262 . S
O229 Zn224 2.049 . S
O229 C237 1.260 . S
O230 Zn225 1.996 . S
O230 C237 1.257 . S
C231 O226 1.254 . S
C231 O227 1.269 . S
C232 O233 1.249 . S
C232 O234 1.270 . S
O233 Zn225 1.943 . S
O233 C232 1.249 . S
O234 Zn224 2.067 . S
O234 C232 1.270 . S
C235 O228 1.262 . S
C235 O236 1.232 . S
O236 C235 1.232 . S
C237 O229 1.260 . S
C237 O230 1.257 . S
Zn238 O241 2.031 . S
Zn238 O243 2.049 . S
Zn238 O248 2.067 . S
Zn239 O240 1.962 . S
Zn239 O242 1.986 . S
Zn239 O244 1.996 . S
Zn239 O247 1.943 . S
O240 Zn239 1.962 . S
O240 C245 1.254 . S
O241 Zn238 2.031 . S
O241 C245 1.269 . S
O242 Zn239 1.986 . S
O242 C249 1.262 . S
O243 Zn238 2.049 . S
O243 C251 1.260 . S
O244 Zn239 1.996 . S
O244 C251 1.257 . S
C245 O240 1.254 . S
C245 O241 1.269 . S
C246 O247 1.249 . S
C246 O248 1.270 . S
O247 Zn239 1.943 . S
O247 C246 1.249 . S
O248 Zn238 2.067 . S
O248 C246 1.270 . S
C249 O242 1.262 . S
C249 O250 1.232 . S
O250 C249 1.232 . S
C251 O243 1.260 . S
C251 O244 1.257 . S
C252 C253 1.349 . S
C252 C254 1.327 . S
C252 H277 0.950 . S
C253 C252 1.349 . S
C253 C269 1.349 . S
C254 C252 1.327 . S
C254 C273 1.429 . S
C254 H278 0.950 . S
C255 C272 1.574 . S
C255 C274 1.368 . S
C255 H279 0.949 . S
H256 C260 0.949 . S
C257 C258 1.349 . S
C257 C259 1.327 . S
C257 H280 0.950 . S
C258 C257 1.349 . S
C258 C270 1.349 . S
C259 C257 1.327 . S
C259 C275 1.429 . S
C259 H281 0.950 . S
C260 H256 0.949 . S
C260 C268 1.574 . S
C260 C276 1.368 . S
H261 C269 0.950 . S
H262 C267 0.950 . S
H263 C268 0.949 . S
H264 C270 0.950 . S
H265 C271 0.950 . S
H266 C272 0.949 . S
C267 H262 0.950 . S
C267 C269 1.327 . S
C267 C273 1.429 . S
C268 C260 1.574 . S
C268 H263 0.949 . S
C268 C274 1.368 . S
C269 C253 1.349 . S
C269 H261 0.950 . S
C269 C267 1.327 . S
C270 C258 1.349 . S
C270 H264 0.950 . S
C270 C271 1.327 . S
C271 H265 0.950 . S
C271 C270 1.327 . S
C271 C275 1.429 . S
C272 C255 1.574 . S
C272 H266 0.949 . S
C272 C276 1.368 . S
C273 C254 1.429 . S
C273 C267 1.429 . S
C273 C274 1.523 . S
C274 C255 1.368 . S
C274 C268 1.368 . S
C274 C273 1.523 . S
C275 C259 1.429 . S
C275 C271 1.429 . S
C275 C276 1.523 . S
C276 C260 1.368 . S
C276 C272 1.368 . S
C276 C275 1.523 . S
H277 C252 0.950 . S
H278 C254 0.950 . S
H279 C255 0.949 . S
H280 C257 0.950 . S
H281 C259 0.950 . S
C282 C283 1.349 . S
C282 C284 1.327 . S
C282 H307 0.950 . S
C283 C282 1.349 . S
C283 C299 1.349 . S
C284 C282 1.327 . S
C284 C303 1.429 . S
C284 H308 0.950 . S
C285 C302 1.574 . S
C285 C304 1.368 . S
C285 H309 0.949 . S
H286 C290 0.949 . S
C287 C288 1.349 . S
C287 C289 1.327 . S
C287 H310 0.950 . S
C288 C287 1.349 . S
C288 C300 1.349 . S
C289 C287 1.327 . S
C289 C305 1.429 . S
C289 H311 0.950 . S
C290 H286 0.949 . S
C290 C298 1.574 . S
C290 C306 1.368 . S
H291 C299 0.950 . S
H292 C297 0.950 . S
H293 C298 0.949 . S
H294 C300 0.950 . S
H295 C301 0.950 . S
H296 C302 0.949 . S
C297 H292 0.950 . S
C297 C299 1.327 . S
C297 C303 1.429 . S
C298 C290 1.574 . S
C298 H293 0.949 . S
C298 C304 1.368 . S
C299 C283 1.349 . S
C299 H291 0.950 . S
C299 C297 1.327 . S
C300 C288 1.349 . S
C300 H294 0.950 . S
C300 C301 1.327 . S
C301 H295 0.950 . S
C301 C300 1.327 . S
C301 C305 1.429 . S
C302 C285 1.574 . S
C302 H296 0.949 . S
C302 C306 1.368 . S
C303 C284 1.429 . S
C303 C297 1.429 . S
C303 C304 1.523 . S
C304 C285 1.368 . S
C304 C298 1.368 . S
C304 C303 1.523 . S
C305 C289 1.429 . S
C305 C301 1.429 . S
C305 C306 1.523 . S
C306 C290 1.368 . S
C306 C302 1.368 . S
C306 C305 1.523 . S
H307 C282 0.950 . S
H308 C284 0.950 . S
H309 C285 0.949 . S
H310 C287 0.950 . S
H311 C289 0.950 . S
C312 C313 1.349 . S
C312 C314 1.327 . S
C312 H337 0.950 . S
C313 C312 1.349 . S
C313 C329 1.349 . S
C314 C312 1.327 . S
C314 C333 1.429 . S
C314 H338 0.950 . S
C315 C332 1.574 . S
C315 C334 1.368 . S
C315 H339 0.949 . S
H316 C320 0.949 . S
C317 C318 1.349 . S
C317 C319 1.327 . S
C317 H340 0.950 . S
C318 C317 1.349 . S
C318 C330 1.349 . S
C319 C317 1.327 . S
C319 C335 1.429 . S
C319 H341 0.950 . S
C320 H316 0.949 . S
C320 C328 1.574 . S
C320 C336 1.368 . S
H321 C329 0.950 . S
H322 C327 0.950 . S
H323 C328 0.949 . S
H324 C330 0.950 . S
H325 C331 0.950 . S
H326 C332 0.949 . S
C327 H322 0.950 . S
C327 C329 1.327 . S
C327 C333 1.429 . S
C328 C320 1.574 . S
C328 H323 0.949 . S
C328 C334 1.368 . S
C329 C313 1.349 . S
C329 H321 0.950 . S
C329 C327 1.327 . S
C330 C318 1.349 . S
C330 H324 0.950 . S
C330 C331 1.327 . S
C331 H325 0.950 . S
C331 C330 1.327 . S
C331 C335 1.429 . S
C332 C315 1.574 . S
C332 H326 0.949 . S
C332 C336 1.368 . S
C333 C314 1.429 . S
C333 C327 1.429 . S
C333 C334 1.523 . S
C334 C315 1.368 . S
C334 C328 1.368 . S
C334 C333 1.523 . S
C335 C319 1.429 . S
C335 C331 1.429 . S
C335 C336 1.523 . S
C336 C320 1.368 . S
C336 C332 1.368 . S
C336 C335 1.523 . S
H337 C312 0.950 . S
H338 C314 0.950 . S
H339 C315 0.949 . S
H340 C317 0.950 . S
H341 C319 0.950 . S
C342 C343 1.349 . S
C342 C344 1.327 . S
C342 H367 0.950 . S
C343 C342 1.349 . S
C343 C359 1.349 . S
C344 C342 1.327 . S
C344 C363 1.429 . S
C344 H368 0.950 . S
C345 C362 1.574 . S
C345 C364 1.368 . S
C345 H369 0.949 . S
H346 C350 0.949 . S
C347 C348 1.349 . S
C347 C349 1.327 . S
C347 H370 0.950 . S
C348 C347 1.349 . S
C348 C360 1.349 . S
C349 C347 1.327 . S
C349 C365 1.429 . S
C349 H371 0.950 . S
C350 H346 0.949 . S
C350 C358 1.574 . S
C350 C366 1.368 . S
H351 C359 0.950 . S
H352 C357 0.950 . S
H353 C358 0.949 . S
H354 C360 0.950 . S
H355 C361 0.950 . S
H356 C362 0.949 . S
C357 H352 0.950 . S
C357 C359 1.327 . S
C357 C363 1.429 . S
C358 C350 1.574 . S
C358 H353 0.949 . S
C358 C364 1.368 . S
C359 C343 1.349 . S
C359 H351 0.950 . S
C359 C357 1.327 . S
C360 C348 1.349 . S
C360 H354 0.950 . S
C360 C361 1.327 . S
C361 H355 0.950 . S
C361 C360 1.327 . S
C361 C365 1.429 . S
C362 C345 1.574 . S
C362 H356 0.949 . S
C362 C366 1.368 . S
C363 C344 1.429 . S
C363 C357 1.429 . S
C363 C364 1.523 . S
C364 C345 1.368 . S
C364 C358 1.368 . S
C364 C363 1.523 . S
C365 C349 1.429 . S
C365 C361 1.429 . S
C365 C366 1.523 . S
C366 C350 1.368 . S
C366 C362 1.368 . S
C366 C365 1.523 . S
H367 C342 0.950 . S
H368 C344 0.950 . S
H369 C345 0.949 . S
H370 C347 0.950 . S
H371 C349 0.950 . S
C372 C373 1.349 . S
C372 C374 1.327 . S
C372 H397 0.950 . S
C373 C372 1.349 . S
C373 C389 1.349 . S
C374 C372 1.327 . S
C374 C393 1.429 . S
C374 H398 0.950 . S
C375 C392 1.574 . S
C375 C394 1.368 . S
C375 H399 0.949 . S
H376 C380 0.949 . S
C377 C378 1.349 . S
C377 C379 1.327 . S
C377 H400 0.950 . S
C378 C377 1.349 . S
C378 C390 1.349 . S
C379 C377 1.327 . S
C379 C395 1.429 . S
C379 H401 0.950 . S
C380 H376 0.949 . S
C380 C388 1.574 . S
C380 C396 1.368 . S
H381 C389 0.950 . S
H382 C387 0.950 . S
H383 C388 0.949 . S
H384 C390 0.950 . S
H385 C391 0.950 . S
H386 C392 0.949 . S
C387 H382 0.950 . S
C387 C389 1.327 . S
C387 C393 1.429 . S
C388 C380 1.574 . S
C388 H383 0.949 . S
C388 C394 1.368 . S
C389 C373 1.349 . S
C389 H381 0.950 . S
C389 C387 1.327 . S
C390 C378 1.349 . S
C390 H384 0.950 . S
C390 C391 1.327 . S
C391 H385 0.950 . S
C391 C390 1.327 . S
C391 C395 1.429 . S
C392 C375 1.574 . S
C392 H386 0.949 . S
C392 C396 1.368 . S
C393 C374 1.429 . S
C393 C387 1.429 . S
C393 C394 1.523 . S
C394 C375 1.368 . S
C394 C388 1.368 . S
C394 C393 1.523 . S
C395 C379 1.429 . S
C395 C391 1.429 . S
C395 C396 1.523 . S
C396 C380 1.368 . S
C396 C392 1.368 . S
C396 C395 1.523 . S
H397 C372 0.950 . S
H398 C374 0.950 . S
H399 C375 0.949 . S
H400 C377 0.950 . S
H401 C379 0.950 . S
C402 C403 1.349 . S
C402 C404 1.327 . S
C402 H427 0.950 . S
C403 C402 1.349 . S
C403 C419 1.349 . S
C404 C402 1.327 . S
C404 C423 1.429 . S
C404 H428 0.950 . S
C405 C422 1.574 . S
C405 C424 1.368 . S
C405 H429 0.949 . S
H406 C410 0.949 . S
C407 C408 1.349 . S
C407 C409 1.327 . S
C407 H430 0.950 1_455 S
C408 C407 1.349 . S
C408 C420 1.349 . S
C409 C407 1.327 . S
C409 C425 1.429 . S
C409 H431 0.950 . S
C410 H406 0.949 . S
C410 C418 1.574 . S
C410 C426 1.368 . S
H411 C419 0.950 . S
H412 C417 0.950 . S
H413 C418 0.949 . S
H414 C420 0.950 . S
H415 C421 0.950 . S
H416 C422 0.949 . S
C417 H412 0.950 . S
C417 C419 1.327 . S
C417 C423 1.429 . S
C418 C410 1.574 . S
C418 H413 0.949 . S
C418 C424 1.368 . S
C419 C403 1.349 . S
C419 H411 0.950 . S
C419 C417 1.327 . S
C420 C408 1.349 . S
C420 H414 0.950 . S
C420 C421 1.327 . S
C421 H415 0.950 . S
C421 C420 1.327 . S
C421 C425 1.429 . S
C422 C405 1.574 . S
C422 H416 0.949 . S
C422 C426 1.368 . S
C423 C404 1.429 . S
C423 C417 1.429 . S
C423 C424 1.523 . S
C424 C405 1.368 . S
C424 C418 1.368 . S
C424 C423 1.523 . S
C425 C409 1.429 . S
C425 C421 1.429 . S
C425 C426 1.523 . S
C426 C410 1.368 . S
C426 C422 1.368 . S
C426 C425 1.523 . S
H427 C402 0.950 . S
H428 C404 0.950 . S
H429 C405 0.949 . S
H430 C407 0.950 1_655 S
H431 C409 0.950 . S
C432 C433 1.349 . S
C432 C434 1.327 . S
C432 H457 0.950 . S
C433 C432 1.349 . S
C433 C449 1.349 . S
C434 C432 1.327 . S
C434 C453 1.429 . S
C434 H458 0.950 . S
C435 C452 1.574 1_655 S
C435 C454 1.368 . S
C435 H459 0.949 . S
H436 C440 0.949 . S
C437 C438 1.349 . S
C437 C439 1.327 . S
C437 H460 0.950 . S
C438 C437 1.349 . S
C438 C450 1.349 . S
C439 C437 1.327 . S
C439 C455 1.429 . S
C439 H461 0.950 . S
C440 H436 0.949 . S
C440 C448 1.574 1_455 S
C440 C456 1.368 . S
H441 C449 0.950 . S
H442 C447 0.950 . S
H443 C448 0.949 . S
H444 C450 0.950 . S
H445 C451 0.950 . S
H446 C452 0.949 . S
C447 H442 0.950 . S
C447 C449 1.327 . S
C447 C453 1.429 . S
C448 C440 1.574 1_655 S
C448 H443 0.949 . S
C448 C454 1.368 . S
C449 C433 1.349 . S
C449 H441 0.950 . S
C449 C447 1.327 . S
C450 C438 1.349 . S
C450 H444 0.950 . S
C450 C451 1.327 . S
C451 H445 0.950 . S
C451 C450 1.327 . S
C451 C455 1.429 . S
C452 C435 1.574 1_455 S
C452 H446 0.949 . S
C452 C456 1.368 . S
C453 C434 1.429 . S
C453 C447 1.429 . S
C453 C454 1.523 . S
C454 C435 1.368 . S
C454 C448 1.368 . S
C454 C453 1.523 . S
C455 C439 1.429 . S
C455 C451 1.429 . S
C455 C456 1.523 . S
C456 C440 1.368 . S
C456 C452 1.368 . S
C456 C455 1.523 . S
H457 C432 0.950 . S
H458 C434 0.950 . S
H459 C435 0.949 . S
H460 C437 0.950 . S
H461 C439 0.950 . S
C462 C463 1.349 . S
C462 C464 1.327 . S
C462 H487 0.950 . S
C463 C462 1.349 . S
C463 C479 1.349 . S
C464 C462 1.327 . S
C464 C483 1.429 . S
C464 H488 0.950 . S
C465 C482 1.574 . S
C465 C484 1.368 . S
C465 H489 0.949 . S
H466 C470 0.949 . S
C467 C468 1.349 . S
C467 C469 1.327 . S
C467 H490 0.950 . S
C468 C467 1.349 . S
C468 C480 1.349 . S
C469 C467 1.327 . S
C469 C485 1.429 . S
C469 H491 0.950 . S
C470 H466 0.949 . S
C470 C478 1.574 . S
C470 C486 1.368 . S
H471 C479 0.950 . S
H472 C477 0.950 . S
H473 C478 0.949 . S
H474 C480 0.950 . S
H475 C481 0.950 . S
H476 C482 0.949 . S
C477 H472 0.950 . S
C477 C479 1.327 . S
C477 C483 1.429 . S
C478 C470 1.574 . S
C478 H473 0.949 . S
C478 C484 1.368 . S
C479 C463 1.349 . S
C479 H471 0.950 . S
C479 C477 1.327 . S
C480 C468 1.349 . S
C480 H474 0.950 . S
C480 C481 1.327 . S
C481 H475 0.950 . S
C481 C480 1.327 . S
C481 C485 1.429 . S
C482 C465 1.574 . S
C482 H476 0.949 . S
C482 C486 1.368 . S
C483 C464 1.429 . S
C483 C477 1.429 . S
C483 C484 1.523 . S
C484 C465 1.368 . S
C484 C478 1.368 . S
C484 C483 1.523 . S
C485 C469 1.429 . S
C485 C481 1.429 . S
C485 C486 1.523 . S
C486 C470 1.368 . S
C486 C482 1.368 . S
C486 C485 1.523 . S
H487 C462 0.950 . S
H488 C464 0.950 . S
H489 C465 0.949 . S
H490 C467 0.950 . S
H491 C469 0.950 . S
C492 C493 1.349 . S
C492 C494 1.327 . S
C492 H517 0.950 . S
C493 C492 1.349 . S
C493 C509 1.349 . S
C494 C492 1.327 . S
C494 C513 1.429 . S
C494 H518 0.950 . S
C495 C512 1.574 1_545 S
C495 C514 1.368 . S
C495 H519 0.949 . S
H496 C500 0.949 . S
C497 C498 1.349 . S
C497 C499 1.327 . S
C497 H520 0.950 . S
C498 C497 1.349 . S
C498 C510 1.349 . S
C499 C497 1.327 . S
C499 C515 1.429 . S
C499 H521 0.950 . S
C500 H496 0.949 . S
C500 C508 1.574 1_565 S
C500 C516 1.368 . S
H501 C509 0.950 . S
H502 C507 0.950 . S
H503 C508 0.949 . S
H504 C510 0.950 . S
H505 C511 0.950 . S
H506 C512 0.949 . S
C507 H502 0.950 . S
C507 C509 1.327 . S
C507 C513 1.429 . S
C508 C500 1.574 1_545 S
C508 H503 0.949 . S
C508 C514 1.368 . S
C509 C493 1.349 . S
C509 H501 0.950 . S
C509 C507 1.327 . S
C510 C498 1.349 . S
C510 H504 0.950 . S
C510 C511 1.327 . S
C511 H505 0.950 . S
C511 C510 1.327 . S
C511 C515 1.429 . S
C512 C495 1.574 1_565 S
C512 H506 0.949 . S
C512 C516 1.368 . S
C513 C494 1.429 . S
C513 C507 1.429 . S
C513 C514 1.523 . S
C514 C495 1.368 . S
C514 C508 1.368 . S
C514 C513 1.523 . S
C515 C499 1.429 . S
C515 C511 1.429 . S
C515 C516 1.523 . S
C516 C500 1.368 . S
C516 C512 1.368 . S
C516 C515 1.523 . S
H517 C492 0.950 . S
H518 C494 0.950 . S
H519 C495 0.949 . S
H520 C497 0.950 . S
H521 C499 0.950 . S
C522 C523 1.349 . S
C522 C524 1.327 . S
C522 H547 0.950 . S
C523 C522 1.349 . S
C523 C539 1.349 . S
C524 C522 1.327 . S
C524 C543 1.429 . S
C524 H548 0.950 . S
C525 C542 1.574 1_455 S
C525 C544 1.368 . S
C525 H549 0.949 . S
H526 C530 0.949 . S
C527 C528 1.349 . S
C527 C529 1.327 . S
C527 H550 0.950 . S
C528 C527 1.349 . S
C528 C540 1.349 . S
C529 C527 1.327 . S
C529 C545 1.429 . S
C529 H551 0.950 . S
C530 H526 0.949 . S
C530 C538 1.574 1_655 S
C530 C546 1.368 . S
H531 C539 0.950 . S
H532 C537 0.950 . S
H533 C538 0.949 . S
H534 C540 0.950 . S
H535 C541 0.950 . S
H536 C542 0.949 . S
C537 H532 0.950 . S
C537 C539 1.327 . S
C537 C543 1.429 . S
C538 C530 1.574 1_455 S
C538 H533 0.949 . S
C538 C544 1.368 . S
C539 C523 1.349 . S
C539 H531 0.950 . S
C539 C537 1.327 . S
C540 C528 1.349 . S
C540 H534 0.950 . S
C540 C541 1.327 . S
C541 H535 0.950 . S
C541 C540 1.327 . S
C541 C545 1.429 . S
C542 C525 1.574 1_655 S
C542 H536 0.949 . S
C542 C546 1.368 . S
C543 C524 1.429 . S
C543 C537 1.429 . S
C543 C544 1.523 . S
C544 C525 1.368 . S
C544 C538 1.368 . S
C544 C543 1.523 . S
C545 C529 1.429 . S
C545 C541 1.429 . S
C545 C546 1.523 . S
C546 C530 1.368 . S
C546 C542 1.368 . S
C546 C545 1.523 . S
H547 C522 0.950 . S
H548 C524 0.950 . S
H549 C525 0.949 . S
H550 C527 0.950 . S
H551 C529 0.950 . S
C552 C553 1.349 . S
C552 C554 1.327 . S
C552 H577 0.950 . S
C553 C552 1.349 . S
C553 C569 1.349 . S
C554 C552 1.327 . S
C554 C573 1.429 . S
C554 H578 0.950 . S
C555 C572 1.574 . S
C555 C574 1.368 . S
C555 H579 0.949 . S
H556 C560 0.949 . S
C557 C558 1.349 . S
C557 C559 1.327 . S
C557 H580 0.950 . S
C558 C557 1.349 . S
C558 C570 1.349 . S
C559 C557 1.327 . S
C559 C575 1.429 . S
C559 H581 0.950 . S
C560 H556 0.949 . S
C560 C568 1.574 . S
C560 C576 1.368 . S
H561 C569 0.950 . S
H562 C567 0.950 . S
H563 C568 0.949 . S
H564 C570 0.950 . S
H565 C571 0.950 . S
H566 C572 0.949 . S
C567 H562 0.950 . S
C567 C569 1.327 . S
C567 C573 1.429 . S
C568 C560 1.574 . S
C568 H563 0.949 . S
C568 C574 1.368 . S
C569 C553 1.349 . S
C569 H561 0.950 . S
C569 C567 1.327 . S
C570 C558 1.349 . S
C570 H564 0.950 . S
C570 C571 1.327 . S
C571 H565 0.950 . S
C571 C570 1.327 . S
C571 C575 1.429 . S
C572 C555 1.574 . S
C572 H566 0.949 . S
C572 C576 1.368 . S
C573 C554 1.429 . S
C573 C567 1.429 . S
C573 C574 1.523 . S
C574 C555 1.368 . S
C574 C568 1.368 . S
C574 C573 1.523 . S
C575 C559 1.429 . S
C575 C571 1.429 . S
C575 C576 1.523 . S
C576 C560 1.368 . S
C576 C572 1.368 . S
C576 C575 1.523 . S
H577 C552 0.950 . S
H578 C554 0.950 . S
H579 C555 0.949 . S
H580 C557 0.950 . S
H581 C559 0.950 . S
C582 C583 1.349 . S
C582 C584 1.327 . S
C582 H607 0.950 . S
C583 C582 1.349 . S
C583 C599 1.349 . S
C584 C582 1.327 . S
C584 C603 1.429 . S
C584 H608 0.950 . S
C585 C602 1.574 1_545 S
C585 C604 1.368 . S
C585 H609 0.949 . S
H586 C590 0.949 . S
C587 C588 1.349 . S
C587 C589 1.327 . S
C587 H610 0.950 . S
C588 C587 1.349 . S
C588 C600 1.349 . S
C589 C587 1.327 . S
C589 C605 1.429 . S
C589 H611 0.950 . S
C590 H586 0.949 . S
C590 C598 1.574 1_565 S
C590 C606 1.368 . S
H591 C599 0.950 . S
H592 C597 0.950 . S
H593 C598 0.949 . S
H594 C600 0.950 . S
H595 C601 0.950 . S
H596 C602 0.949 . S
C597 H592 0.950 . S
C597 C599 1.327 . S
C597 C603 1.429 . S
C598 C590 1.574 1_545 S
C598 H593 0.949 . S
C598 C604 1.368 . S
C599 C583 1.349 . S
C599 H591 0.950 . S
C599 C597 1.327 . S
C600 C588 1.349 . S
C600 H594 0.950 . S
C600 C601 1.327 . S
C601 H595 0.950 . S
C601 C600 1.327 . S
C601 C605 1.429 . S
C602 C585 1.574 1_565 S
C602 H596 0.949 . S
C602 C606 1.368 . S
C603 C584 1.429 . S
C603 C597 1.429 . S
C603 C604 1.523 . S
C604 C585 1.368 . S
C604 C598 1.368 . S
C604 C603 1.523 . S
C605 C589 1.429 . S
C605 C601 1.429 . S
C605 C606 1.523 . S
C606 C590 1.368 . S
C606 C602 1.368 . S
C606 C605 1.523 . S
H607 C582 0.950 . S
H608 C584 0.950 . S
H609 C585 0.949 . S
H610 C587 0.950 . S
H611 C589 0.950 . S
C612 C613 1.349 . S
C612 C614 1.327 . S
C612 H637 0.950 . S
C613 C612 1.349 . S
C613 C629 1.349 . S
C614 C612 1.327 . S
C614 C633 1.429 . S
C614 H638 0.950 . S
C615 C632 1.574 1_565 S
C615 C634 1.368 . S
C615 H639 0.949 . S
H616 C620 0.949 . S
C617 C618 1.349 . S
C617 C619 1.327 . S
C617 H640 0.950 . S
C618 C617 1.349 . S
C618 C630 1.349 . S
C619 C617 1.327 . S
C619 C635 1.429 . S
C619 H641 0.950 . S
C620 H616 0.949 . S
C620 C628 1.574 1_545 S
C620 C636 1.368 . S
H621 C629 0.950 . S
H622 C627 0.950 . S
H623 C628 0.949 . S
H624 C630 0.950 . S
H625 C631 0.950 . S
H626 C632 0.949 . S
C627 H622 0.950 . S
C627 C629 1.327 . S
C627 C633 1.429 . S
C628 C620 1.574 1_565 S
C628 H623 0.949 . S
C628 C634 1.368 . S
C629 C613 1.349 . S
C629 H621 0.950 . S
C629 C627 1.327 . S
C630 C618 1.349 . S
C630 H624 0.950 . S
C630 C631 1.327 . S
C631 H625 0.950 . S
C631 C630 1.327 . S
C631 C635 1.429 . S
C632 C615 1.574 1_545 S
C632 H626 0.949 . S
C632 C636 1.368 . S
C633 C614 1.429 . S
C633 C627 1.429 . S
C633 C634 1.523 . S
C634 C615 1.368 . S
C634 C628 1.368 . S
C634 C633 1.523 . S
C635 C619 1.429 . S
C635 C631 1.429 . S
C635 C636 1.523 . S
C636 C620 1.368 . S
C636 C632 1.368 . S
C636 C635 1.523 . S
H637 C612 0.950 . S
H638 C614 0.950 . S
H639 C615 0.949 . S
H640 C617 0.950 . S
H641 C619 0.950 . S
C642 C643 1.349 . S
C642 C644 1.327 . S
C642 H667 0.950 . S
C643 C642 1.349 . S
C643 C659 1.349 . S
C644 C642 1.327 . S
C644 C663 1.429 . S
C644 H668 0.950 . S
C645 C662 1.574 1_455 S
C645 C664 1.368 . S
C645 H669 0.949 . S
H646 C650 0.949 . S
C647 C648 1.349 . S
C647 C649 1.327 . S
C647 H670 0.950 . S
C648 C647 1.349 . S
C648 C660 1.349 . S
C649 C647 1.327 . S
C649 C665 1.429 . S
C649 H671 0.950 . S
C650 H646 0.949 . S
C650 C658 1.574 1_655 S
C650 C666 1.368 . S
H651 C659 0.950 . S
H652 C657 0.950 . S
H653 C658 0.949 . S
H654 C660 0.950 . S
H655 C661 0.950 . S
H656 C662 0.949 . S
C657 H652 0.950 . S
C657 C659 1.327 . S
C657 C663 1.429 . S
C658 C650 1.574 1_455 S
C658 H653 0.949 . S
C658 C664 1.368 . S
C659 C643 1.349 . S
C659 H651 0.950 . S
C659 C657 1.327 . S
C660 C648 1.349 . S
C660 H654 0.950 . S
C660 C661 1.327 . S
C661 H655 0.950 . S
C661 C660 1.327 . S
C661 C665 1.429 . S
C662 C645 1.574 1_655 S
C662 H656 0.949 . S
C662 C666 1.368 . S
C663 C644 1.429 . S
C663 C657 1.429 . S
C663 C664 1.523 . S
C664 C645 1.368 . S
C664 C658 1.368 . S
C664 C663 1.523 . S
C665 C649 1.429 . S
C665 C661 1.429 . S
C665 C666 1.523 . S
C666 C650 1.368 . S
C666 C662 1.368 . S
C666 C665 1.523 . S
H667 C642 0.950 . S
H668 C644 0.950 . S
H669 C645 0.949 . S
H670 C647 0.950 . S
H671 C649 0.950 . S
C672 C673 1.349 . S
C672 C674 1.327 . S
C672 H697 0.950 . S
C673 C672 1.349 . S
C673 C689 1.349 . S
C674 C672 1.327 . S
C674 C693 1.429 . S
C674 H698 0.950 . S
C675 C692 1.574 . S
C675 C694 1.368 . S
C675 H699 0.949 . S
H676 C680 0.949 . S
C677 C678 1.349 . S
C677 C679 1.327 . S
C677 H700 0.950 . S
C678 C677 1.349 . S
C678 C690 1.349 . S
C679 C677 1.327 . S
C679 C695 1.429 . S
C679 H701 0.950 . S
C680 H676 0.949 . S
C680 C688 1.574 . S
C680 C696 1.368 . S
H681 C689 0.950 . S
H682 C687 0.950 . S
H683 C688 0.949 . S
H684 C690 0.950 . S
H685 C691 0.950 . S
H686 C692 0.949 . S
C687 H682 0.950 . S
C687 C689 1.327 . S
C687 C693 1.429 . S
C688 C680 1.574 . S
C688 H683 0.949 . S
C688 C694 1.368 . S
C689 C673 1.349 . S
C689 H681 0.950 . S
C689 C687 1.327 . S
C690 C678 1.349 . S
C690 H684 0.950 . S
C690 C691 1.327 . S
C691 H685 0.950 . S
C691 C690 1.327 . S
C691 C695 1.429 . S
C692 C675 1.574 . S
C692 H686 0.949 . S
C692 C696 1.368 . S
C693 C674 1.429 . S
C693 C687 1.429 . S
C693 C694 1.523 . S
C694 C675 1.368 . S
C694 C688 1.368 . S
C694 C693 1.523 . S
C695 C679 1.429 . S
C695 C691 1.429 . S
C695 C696 1.523 . S
C696 C680 1.368 . S
C696 C692 1.368 . S
C696 C695 1.523 . S
H697 C672 0.950 . S
H698 C674 0.950 . S
H699 C675 0.949 . S
H700 C677 0.950 . S
H701 C679 0.950 . S
C702 C703 1.349 . S
C702 C704 1.327 . S
C702 H727 0.950 . S
C703 C702 1.349 . S
C703 C719 1.349 . S
C704 C702 1.327 . S
C704 C723 1.429 . S
C704 H728 0.950 . S
C705 C722 1.574 . S
C705 C724 1.368 . S
C705 H729 0.949 . S
H706 C710 0.949 . S
C707 C708 1.349 . S
C707 C709 1.327 . S
C707 H730 0.950 . S
C708 C707 1.349 . S
C708 C720 1.349 . S
C709 C707 1.327 . S
C709 C725 1.429 . S
C709 H731 0.950 . S
C710 H706 0.949 . S
C710 C718 1.574 . S
C710 C726 1.368 . S
H711 C719 0.950 . S
H712 C717 0.950 . S
H713 C718 0.949 . S
H714 C720 0.950 . S
H715 C721 0.950 . S
H716 C722 0.949 . S
C717 H712 0.950 . S
C717 C719 1.327 . S
C717 C723 1.429 . S
C718 C710 1.574 . S
C718 H713 0.949 . S
C718 C724 1.368 . S
C719 C703 1.349 . S
C719 H711 0.950 . S
C719 C717 1.327 . S
C720 C708 1.349 . S
C720 H714 0.950 . S
C720 C721 1.327 . S
C721 H715 0.950 . S
C721 C720 1.327 . S
C721 C725 1.429 . S
C722 C705 1.574 . S
C722 H716 0.949 . S
C722 C726 1.368 . S
C723 C704 1.429 . S
C723 C717 1.429 . S
C723 C724 1.523 . S
C724 C705 1.368 . S
C724 C718 1.368 . S
C724 C723 1.523 . S
C725 C709 1.429 . S
C725 C721 1.429 . S
C725 C726 1.523 . S
C726 C710 1.368 . S
C726 C722 1.368 . S
C726 C725 1.523 . S
H727 C702 0.950 . S
H728 C704 0.950 . S
H729 C705 0.949 . S
H730 C707 0.950 . S
H731 C709 0.950 . S
C732 C733 1.349 . S
C732 C734 1.327 . S
C732 H757 0.950 . S
C733 C732 1.349 . S
C733 C749 1.349 . S
C734 C732 1.327 . S
C734 C753 1.429 . S
C734 H758 0.950 . S
C735 C752 1.574 . S
C735 C754 1.368 . S
C735 H759 0.949 . S
H736 C740 0.949 . S
C737 C738 1.349 . S
C737 C739 1.327 . S
C737 H760 0.950 . S
C738 C737 1.349 . S
C738 C750 1.349 . S
C739 C737 1.327 . S
C739 C755 1.429 . S
C739 H761 0.950 . S
C740 H736 0.949 . S
C740 C748 1.574 . S
C740 C756 1.368 . S
H741 C749 0.950 . S
H742 C747 0.950 . S
H743 C748 0.949 . S
H744 C750 0.950 . S
H745 C751 0.950 . S
H746 C752 0.949 . S
C747 H742 0.950 . S
C747 C749 1.327 . S
C747 C753 1.429 . S
C748 C740 1.574 . S
C748 H743 0.949 . S
C748 C754 1.368 . S
C749 C733 1.349 . S
C749 H741 0.950 . S
C749 C747 1.327 . S
C750 C738 1.349 . S
C750 H744 0.950 . S
C750 C751 1.327 . S
C751 H745 0.950 . S
C751 C750 1.327 . S
C751 C755 1.429 . S
C752 C735 1.574 . S
C752 H746 0.949 . S
C752 C756 1.368 . S
C753 C734 1.429 . S
C753 C747 1.429 . S
C753 C754 1.523 . S
C754 C735 1.368 . S
C754 C748 1.368 . S
C754 C753 1.523 . S
C755 C739 1.429 . S
C755 C751 1.429 . S
C755 C756 1.523 . S
C756 C740 1.368 . S
C756 C752 1.368 . S
C756 C755 1.523 . S
H757 C732 0.950 . S
H758 C734 0.950 . S
H759 C735 0.949 . S
H760 C737 0.950 . S
H761 C739 0.950 . S
C762 C763 1.349 . S
C762 C764 1.327 . S
C762 H787 0.950 . S
C763 C762 1.349 . S
C763 C779 1.349 . S
C764 C762 1.327 . S
C764 C783 1.429 . S
C764 H788 0.950 . S
C765 C782 1.574 . S
C765 C784 1.368 . S
C765 H789 0.949 . S
H766 C770 0.949 . S
C767 C768 1.349 . S
C767 C769 1.327 . S
C767 H790 0.950 . S
C768 C767 1.349 . S
C768 C780 1.349 . S
C769 C767 1.327 . S
C769 C785 1.429 . S
C769 H791 0.950 . S
C770 H766 0.949 . S
C770 C778 1.574 . S
C770 C786 1.368 . S
H771 C779 0.950 . S
H772 C777 0.950 . S
H773 C778 0.949 . S
H774 C780 0.950 . S
H775 C781 0.950 . S
H776 C782 0.949 . S
C777 H772 0.950 . S
C777 C779 1.327 . S
C777 C783 1.429 . S
C778 C770 1.574 . S
C778 H773 0.949 . S
C778 C784 1.368 . S
C779 C763 1.349 . S
C779 H771 0.950 . S
C779 C777 1.327 . S
C780 C768 1.349 . S
C780 H774 0.950 . S
C780 C781 1.327 . S
C781 H775 0.950 . S
C781 C780 1.327 . S
C781 C785 1.429 . S
C782 C765 1.574 . S
C782 H776 0.949 . S
C782 C786 1.368 . S
C783 C764 1.429 . S
C783 C777 1.429 . S
C783 C784 1.523 . S
C784 C765 1.368 . S
C784 C778 1.368 . S
C784 C783 1.523 . S
C785 C769 1.429 . S
C785 C781 1.429 . S
C785 C786 1.523 . S
C786 C770 1.368 . S
C786 C782 1.368 . S
C786 C785 1.523 . S
H787 C762 0.950 . S
H788 C764 0.950 . S
H789 C765 0.949 . S
H790 C767 0.950 . S
H791 C769 0.950 . S
C792 C793 1.349 . S
C792 C794 1.327 . S
C792 H817 0.950 . S
C793 C792 1.349 . S
C793 C809 1.349 . S
C794 C792 1.327 . S
C794 C813 1.429 . S
C794 H818 0.950 . S
C795 C812 1.574 . S
C795 C814 1.368 . S
C795 H819 0.949 . S
H796 C800 0.949 . S
C797 C798 1.349 . S
C797 C799 1.327 . S
C797 H820 0.950 . S
C798 C797 1.349 . S
C798 C810 1.349 . S
C799 C797 1.327 . S
C799 C815 1.429 . S
C799 H821 0.950 . S
C800 H796 0.949 . S
C800 C808 1.574 . S
C800 C816 1.368 . S
H801 C809 0.950 . S
H802 C807 0.950 . S
H803 C808 0.949 . S
H804 C810 0.950 . S
H805 C811 0.950 . S
H806 C812 0.949 . S
C807 H802 0.950 . S
C807 C809 1.327 . S
C807 C813 1.429 . S
C808 C800 1.574 . S
C808 H803 0.949 . S
C808 C814 1.368 . S
C809 C793 1.349 . S
C809 H801 0.950 . S
C809 C807 1.327 . S
C810 C798 1.349 . S
C810 H804 0.950 . S
C810 C811 1.327 . S
C811 H805 0.950 . S
C811 C810 1.327 . S
C811 C815 1.429 . S
C812 C795 1.574 . S
C812 H806 0.949 . S
C812 C816 1.368 . S
C813 C794 1.429 . S
C813 C807 1.429 . S
C813 C814 1.523 . S
C814 C795 1.368 . S
C814 C808 1.368 . S
C814 C813 1.523 . S
C815 C799 1.429 . S
C815 C811 1.429 . S
C815 C816 1.523 . S
C816 C800 1.368 . S
C816 C812 1.368 . S
C816 C815 1.523 . S
H817 C792 0.950 . S
H818 C794 0.950 . S
H819 C795 0.949 . S
H820 C797 0.950 . S
H821 C799 0.950 . S
C822 C823 1.349 . S
C822 C824 1.327 . S
C822 H847 0.950 . S
C823 C822 1.349 . S
C823 C839 1.349 . S
C824 C822 1.327 . S
C824 C843 1.429 . S
C824 H848 0.950 . S
C825 C842 1.574 . S
C825 C844 1.368 . S
C825 H849 0.949 . S
H826 C830 0.949 . S
C827 C828 1.349 . S
C827 C829 1.327 . S
C827 H850 0.950 . S
C828 C827 1.349 . S
C828 C840 1.349 . S
C829 C827 1.327 . S
C829 C845 1.429 . S
C829 H851 0.950 . S
C830 H826 0.949 . S
C830 C838 1.574 . S
C830 C846 1.368 . S
H831 C839 0.950 . S
H832 C837 0.950 . S
H833 C838 0.949 . S
H834 C840 0.950 . S
H835 C841 0.950 . S
H836 C842 0.949 . S
C837 H832 0.950 . S
C837 C839 1.327 . S
C837 C843 1.429 . S
C838 C830 1.574 . S
C838 H833 0.949 . S
C838 C844 1.368 . S
C839 C823 1.349 . S
C839 H831 0.950 . S
C839 C837 1.327 . S
C840 C828 1.349 . S
C840 H834 0.950 . S
C840 C841 1.327 . S
C841 H835 0.950 . S
C841 C840 1.327 . S
C841 C845 1.429 . S
C842 C825 1.574 . S
C842 H836 0.949 . S
C842 C846 1.368 . S
C843 C824 1.429 . S
C843 C837 1.429 . S
C843 C844 1.523 . S
C844 C825 1.368 . S
C844 C838 1.368 . S
C844 C843 1.523 . S
C845 C829 1.429 . S
C845 C841 1.429 . S
C845 C846 1.523 . S
C846 C830 1.368 . S
C846 C842 1.368 . S
C846 C845 1.523 . S
H847 C822 0.950 . S
H848 C824 0.950 . S
H849 C825 0.949 . S
H850 C827 0.950 . S
H851 C829 0.950 . S
C852 C853 1.349 . S
C852 C854 1.327 . S
C852 H877 0.950 . S
C853 C852 1.349 . S
C853 C869 1.349 . S
C854 C852 1.327 . S
C854 C873 1.429 . S
C854 H878 0.950 . S
C855 C872 1.574 . S
C855 C874 1.368 . S
C855 H879 0.949 . S
H856 C860 0.949 . S
C857 C858 1.349 . S
C857 C859 1.327 . S
C857 H880 0.950 . S
C858 C857 1.349 . S
C858 C870 1.349 . S
C859 C857 1.327 . S
C859 C875 1.429 . S
C859 H881 0.950 . S
C860 H856 0.949 . S
C860 C868 1.574 . S
C860 C876 1.368 . S
H861 C869 0.950 . S
H862 C867 0.950 . S
H863 C868 0.949 . S
H864 C870 0.950 . S
H865 C871 0.950 . S
H866 C872 0.949 . S
C867 H862 0.950 . S
C867 C869 1.327 . S
C867 C873 1.429 . S
C868 C860 1.574 . S
C868 H863 0.949 . S
C868 C874 1.368 . S
C869 C853 1.349 . S
C869 H861 0.950 . S
C869 C867 1.327 . S
C870 C858 1.349 . S
C870 H864 0.950 . S
C870 C871 1.327 . S
C871 H865 0.950 . S
C871 C870 1.327 . S
C871 C875 1.429 . S
C872 C855 1.574 . S
C872 H866 0.949 . S
C872 C876 1.368 . S
C873 C854 1.429 . S
C873 C867 1.429 . S
C873 C874 1.523 . S
C874 C855 1.368 . S
C874 C868 1.368 . S
C874 C873 1.523 . S
C875 C859 1.429 . S
C875 C871 1.429 . S
C875 C876 1.523 . S
C876 C860 1.368 . S
C876 C872 1.368 . S
C876 C875 1.523 . S
H877 C852 0.950 . S
H878 C854 0.950 . S
H879 C855 0.949 . S
H880 C857 0.950 . S
H881 C859 0.950 . S
C882 C883 1.349 . S
C882 C884 1.327 . S
C882 H907 0.950 . S
C883 C882 1.349 . S
C883 C899 1.349 . S
C884 C882 1.327 . S
C884 C903 1.429 . S
C884 H908 0.950 . S
C885 C902 1.574 . S
C885 C904 1.368 . S
C885 H909 0.949 . S
H886 C890 0.949 . S
C887 C888 1.349 . S
C887 C889 1.327 . S
C887 H910 0.950 . S
C888 C887 1.349 . S
C888 C900 1.349 . S
C889 C887 1.327 . S
C889 C905 1.429 . S
C889 H911 0.950 . S
C890 H886 0.949 . S
C890 C898 1.574 . S
C890 C906 1.368 . S
H891 C899 0.950 . S
H892 C897 0.950 . S
H893 C898 0.949 . S
H894 C900 0.950 . S
H895 C901 0.950 . S
H896 C902 0.949 . S
C897 H892 0.950 . S
C897 C899 1.327 . S
C897 C903 1.429 . S
C898 C890 1.574 . S
C898 H893 0.949 . S
C898 C904 1.368 . S
C899 C883 1.349 . S
C899 H891 0.950 . S
C899 C897 1.327 . S
C900 C888 1.349 . S
C900 H894 0.950 . S
C900 C901 1.327 . S
C901 H895 0.950 . S
C901 C900 1.327 . S
C901 C905 1.429 . S
C902 C885 1.574 . S
C902 H896 0.949 . S
C902 C906 1.368 . S
C903 C884 1.429 . S
C903 C897 1.429 . S
C903 C904 1.523 . S
C904 C885 1.368 . S
C904 C898 1.368 . S
C904 C903 1.523 . S
C905 C889 1.429 . S
C905 C901 1.429 . S
C905 C906 1.523 . S
C906 C890 1.368 . S
C906 C902 1.368 . S
C906 C905 1.523 . S
H907 C882 0.950 . S
H908 C884 0.950 . S
H909 C885 0.949 . S
H910 C887 0.950 . S
H911 C889 0.950 . S
C912 C913 1.349 . S
C912 C914 1.327 . S
C912 H937 0.950 . S
C913 C912 1.349 . S
C913 C929 1.349 . S
C914 C912 1.327 . S
C914 C933 1.429 . S
C914 H938 0.950 . S
C915 C932 1.574 . S
C915 C934 1.368 . S
C915 H939 0.949 . S
H916 C920 0.949 . S
C917 C918 1.349 . S
C917 C919 1.327 . S
C917 H940 0.950 . S
C918 C917 1.349 . S
C918 C930 1.349 . S
C919 C917 1.327 . S
C919 C935 1.429 . S
C919 H941 0.950 . S
C920 H916 0.949 . S
C920 C928 1.574 . S
C920 C936 1.368 . S
H921 C929 0.950 . S
H922 C927 0.950 . S
H923 C928 0.949 . S
H924 C930 0.950 . S
H925 C931 0.950 . S
H926 C932 0.949 . S
C927 H922 0.950 . S
C927 C929 1.327 . S
C927 C933 1.429 . S
C928 C920 1.574 . S
C928 H923 0.949 . S
C928 C934 1.368 . S
C929 C913 1.349 . S
C929 H921 0.950 . S
C929 C927 1.327 . S
C930 C918 1.349 . S
C930 H924 0.950 . S
C930 C931 1.327 . S
C931 H925 0.950 . S
C931 C930 1.327 . S
C931 C935 1.429 . S
C932 C915 1.574 . S
C932 H926 0.949 . S
C932 C936 1.368 . S
C933 C914 1.429 . S
C933 C927 1.429 . S
C933 C934 1.523 . S
C934 C915 1.368 . S
C934 C928 1.368 . S
C934 C933 1.523 . S
C935 C919 1.429 . S
C935 C931 1.429 . S
C935 C936 1.523 . S
C936 C920 1.368 . S
C936 C932 1.368 . S
C936 C935 1.523 . S
H937 C912 0.950 . S
H938 C914 0.950 . S
H939 C915 0.949 . S
H940 C917 0.950 . S
H941 C919 0.950 . S
C942 C943 1.349 . S
C942 C944 1.327 . S
C942 H967 0.950 . S
C943 C942 1.349 . S
C943 C959 1.349 . S
C944 C942 1.327 . S
C944 C963 1.429 . S
C944 H968 0.950 . S
C945 C962 1.574 . S
C945 C964 1.368 . S
C945 H969 0.949 . S
H946 C950 0.949 . S
C947 C948 1.349 . S
C947 C949 1.327 . S
C947 H970 0.950 . S
C948 C947 1.349 . S
C948 C960 1.349 . S
C949 C947 1.327 . S
C949 C965 1.429 . S
C949 H971 0.950 . S
C950 H946 0.949 . S
C950 C958 1.574 . S
C950 C966 1.368 . S
H951 C959 0.950 . S
H952 C957 0.950 . S
H953 C958 0.949 . S
H954 C960 0.950 . S
H955 C961 0.950 . S
H956 C962 0.949 . S
C957 H952 0.950 . S
C957 C959 1.327 . S
C957 C963 1.429 . S
C958 C950 1.574 . S
C958 H953 0.949 . S
C958 C964 1.368 . S
C959 C943 1.349 . S
C959 H951 0.950 . S
C959 C957 1.327 . S
C960 C948 1.349 . S
C960 H954 0.950 . S
C960 C961 1.327 . S
C961 H955 0.950 . S
C961 C960 1.327 . S
C961 C965 1.429 . S
C962 C945 1.574 . S
C962 H956 0.949 . S
C962 C966 1.368 . S
C963 C944 1.429 . S
C963 C957 1.429 . S
C963 C964 1.523 . S
C964 C945 1.368 . S
C964 C958 1.368 . S
C964 C963 1.523 . S
C965 C949 1.429 . S
C965 C961 1.429 . S
C965 C966 1.523 . S
C966 C950 1.368 . S
C966 C962 1.368 . S
C966 C965 1.523 . S
H967 C942 0.950 . S
H968 C944 0.950 . S
H969 C945 0.949 . S
H970 C947 0.950 . S
H971 C949 0.950 . S
C972 C973 1.349 . S
C972 C974 1.327 . S
C972 H997 0.950 . S
C973 C972 1.349 . S
C973 C989 1.349 . S
C974 C972 1.327 . S
C974 C993 1.429 . S
C974 H998 0.950 . S
C975 C992 1.574 . S
C975 C994 1.368 . S
C975 H999 0.949 . S
H976 C980 0.949 . S
C977 C978 1.349 . S
C977 C979 1.327 . S
C977 H1000 0.950 . S
C978 C977 1.349 . S
C978 C990 1.349 . S
C979 C977 1.327 . S
C979 C995 1.429 . S
C979 H1001 0.950 . S
C980 H976 0.949 . S
C980 C988 1.574 . S
C980 C996 1.368 . S
H981 C989 0.950 . S
H982 C987 0.950 . S
H983 C988 0.949 . S
H984 C990 0.950 . S
H985 C991 0.950 . S
H986 C992 0.949 . S
C987 H982 0.950 . S
C987 C989 1.327 . S
C987 C993 1.429 . S
C988 C980 1.574 . S
C988 H983 0.949 . S
C988 C994 1.368 . S
C989 C973 1.349 . S
C989 H981 0.950 . S
C989 C987 1.327 . S
C990 C978 1.349 . S
C990 H984 0.950 . S
C990 C991 1.327 . S
C991 H985 0.950 . S
C991 C990 1.327 . S
C991 C995 1.429 . S
C992 C975 1.574 . S
C992 H986 0.949 . S
C992 C996 1.368 . S
C993 C974 1.429 . S
C993 C987 1.429 . S
C993 C994 1.523 . S
C994 C975 1.368 . S
C994 C988 1.368 . S
C994 C993 1.523 . S
C995 C979 1.429 . S
C995 C991 1.429 . S
C995 C996 1.523 . S
C996 C980 1.368 . S
C996 C992 1.368 . S
C996 C995 1.523 . S
H997 C972 0.950 . S
H998 C974 0.950 . S
H999 C975 0.949 . S
H1000 C977 0.950 . S
H1001 C979 0.950 . S
C1002 C1003 1.349 . S
C1002 C1004 1.327 . S
C1002 H1027 0.950 . S
C1003 C1002 1.349 . S
C1003 C1019 1.349 . S
C1004 C1002 1.327 . S
C1004 C1023 1.429 . S
C1004 H1028 0.950 . S
C1005 C1022 1.574 . S
C1005 C1024 1.368 . S
C1005 H1029 0.949 . S
H1006 C1010 0.949 . S
C1007 C1008 1.349 . S
C1007 C1009 1.327 . S
C1007 H1030 0.950 . S
C1008 C1007 1.349 . S
C1008 C1020 1.349 . S
C1009 C1007 1.327 . S
C1009 C1025 1.429 . S
C1009 H1031 0.950 . S
C1010 H1006 0.949 . S
C1010 C1018 1.574 . S
C1010 C1026 1.368 . S
H1011 C1019 0.950 . S
H1012 C1017 0.950 . S
H1013 C1018 0.949 . S
H1014 C1020 0.950 . S
H1015 C1021 0.950 . S
H1016 C1022 0.949 . S
C1017 H1012 0.950 . S
C1017 C1019 1.327 . S
C1017 C1023 1.429 . S
C1018 C1010 1.574 . S
C1018 H1013 0.949 . S
C1018 C1024 1.368 . S
C1019 C1003 1.349 . S
C1019 H1011 0.950 . S
C1019 C1017 1.327 . S
C1020 C1008 1.349 . S
C1020 H1014 0.950 . S
C1020 C1021 1.327 . S
C1021 H1015 0.950 . S
C1021 C1020 1.327 . S
C1021 C1025 1.429 . S
C1022 C1005 1.574 . S
C1022 H1016 0.949 . S
C1022 C1026 1.368 . S
C1023 C1004 1.429 . S
C1023 C1017 1.429 . S
C1023 C1024 1.523 . S
C1024 C1005 1.368 . S
C1024 C1018 1.368 . S
C1024 C1023 1.523 . S
C1025 C1009 1.429 . S
C1025 C1021 1.429 . S
C1025 C1026 1.523 . S
C1026 C1010 1.368 . S
C1026 C1022 1.368 . S
C1026 C1025 1.523 . S
H1027 C1002 0.950 . S
H1028 C1004 0.950 . S
H1029 C1005 0.949 . S
H1030 C1007 0.950 . S
H1031 C1009 0.950 . S
C1032 C1033 1.349 . S
C1032 C1034 1.327 . S
C1032 H1057 0.950 . S
C1033 C1032 1.349 . S
C1033 C1049 1.349 . S
C1034 C1032 1.327 . S
C1034 C1053 1.429 . S
C1034 H1058 0.950 . S
C1035 C1052 1.574 . S
C1035 C1054 1.368 . S
C1035 H1059 0.949 . S
H1036 C1040 0.949 . S
C1037 C1038 1.349 . S
C1037 C1039 1.327 . S
C1037 H1060 0.950 . S
C1038 C1037 1.349 . S
C1038 C1050 1.349 . S
C1039 C1037 1.327 . S
C1039 C1055 1.429 . S
C1039 H1061 0.950 . S
C1040 H1036 0.949 . S
C1040 C1048 1.574 . S
C1040 C1056 1.368 . S
H1041 C1049 0.950 . S
H1042 C1047 0.950 . S
H1043 C1048 0.949 . S
H1044 C1050 0.950 . S
H1045 C1051 0.950 . S
H1046 C1052 0.949 . S
C1047 H1042 0.950 . S
C1047 C1049 1.327 . S
C1047 C1053 1.429 . S
C1048 C1040 1.574 . S
C1048 H1043 0.949 . S
C1048 C1054 1.368 . S
C1049 C1033 1.349 . S
C1049 H1041 0.950 . S
C1049 C1047 1.327 . S
C1050 C1038 1.349 . S
C1050 H1044 0.950 . S
C1050 C1051 1.327 . S
C1051 H1045 0.950 . S
C1051 C1050 1.327 . S
C1051 C1055 1.429 . S
C1052 C1035 1.574 . S
C1052 H1046 0.949 . S
C1052 C1056 1.368 . S
C1053 C1034 1.429 . S
C1053 C1047 1.429 . S
C1053 C1054 1.523 . S
C1054 C1035 1.368 . S
C1054 C1048 1.368 . S
C1054 C1053 1.523 . S
C1055 C1039 1.429 . S
C1055 C1051 1.429 . S
C1055 C1056 1.523 . S
C1056 C1040 1.368 . S
C1056 C1052 1.368 . S
C1056 C1055 1.523 . S
H1057 C1032 0.950 . S
H1058 C1034 0.950 . S
H1059 C1035 0.949 . S
H1060 C1037 0.950 . S
H1061 C1039 0.950 . S
C1062 C1063 1.349 . S
C1062 C1064 1.327 . S
C1062 H1087 0.950 . S
C1063 C1062 1.349 . S
C1063 C1079 1.349 . S
C1064 C1062 1.327 . S
C1064 C1083 1.429 . S
C1064 H1088 0.950 . S
C1065 C1082 1.574 1_554 S
C1065 C1084 1.368 . S
C1065 H1089 0.949 . S
H1066 C1070 0.949 . S
C1067 C1068 1.349 . S
C1067 C1069 1.327 . S
C1067 H1090 0.950 . S
C1068 C1067 1.349 . S
C1068 C1080 1.349 . S
C1069 C1067 1.327 . S
C1069 C1085 1.429 . S
C1069 H1091 0.950 . S
C1070 H1066 0.949 . S
C1070 C1078 1.574 1_556 S
C1070 C1086 1.368 . S
H1071 C1079 0.950 . S
H1072 C1077 0.950 . S
H1073 C1078 0.949 . S
H1074 C1080 0.950 . S
H1075 C1081 0.950 . S
H1076 C1082 0.949 . S
C1077 H1072 0.950 . S
C1077 C1079 1.327 . S
C1077 C1083 1.429 . S
C1078 C1070 1.574 1_554 S
C1078 H1073 0.949 . S
C1078 C1084 1.368 . S
C1079 C1063 1.349 . S
C1079 H1071 0.950 . S
C1079 C1077 1.327 . S
C1080 C1068 1.349 . S
C1080 H1074 0.950 . S
C1080 C1081 1.327 . S
C1081 H1075 0.950 . S
C1081 C1080 1.327 . S
C1081 C1085 1.429 . S
C1082 C1065 1.574 1_556 S
C1082 H1076 0.949 . S
C1082 C1086 1.368 . S
C1083 C1064 1.429 . S
C1083 C1077 1.429 . S
C1083 C1084 1.523 . S
C1084 C1065 1.368 . S
C1084 C1078 1.368 . S
C1084 C1083 1.523 . S
C1085 C1069 1.429 . S
C1085 C1081 1.429 . S
C1085 C1086 1.523 . S
C1086 C1070 1.368 . S
C1086 C1082 1.368 . S
C1086 C1085 1.523 . S
H1087 C1062 0.950 . S
H1088 C1064 0.950 . S
H1089 C1065 0.949 . S
H1090 C1067 0.950 . S
H1091 C1069 0.950 . S
C1092 C1093 1.349 1_565 S
C1092 C1094 1.327 . S
C1092 H1117 0.950 . S
C1093 C1092 1.349 1_545 S
C1093 C1109 1.349 . S
C1094 C1092 1.327 . S
C1094 C1113 1.453 . S
C1094 H1118 0.950 . S
C1095 C1112 1.574 1_556 S
C1095 C1114 1.368 1_545 S
C1095 H1119 0.949 . S
H1096 C1100 0.949 . S
C1097 C1098 1.349 1_545 S
C1097 C1099 1.327 . S
C1097 H1120 0.950 . S
C1098 C1097 1.349 1_565 S
C1098 C1110 1.349 . S
C1099 C1097 1.327 . S
C1099 C1115 1.429 1_545 S
C1099 H1121 0.950 . S
C1100 H1096 0.949 . S
C1100 C1108 1.574 1_554 S
C1100 C1116 1.368 . S
H1101 C1109 0.950 . S
H1102 C1107 0.950 . S
H1103 C1108 0.949 . S
H1104 C1110 0.950 . S
H1105 C1111 0.950 . S
H1106 C1112 0.949 . S
C1107 H1102 0.950 . S
C1107 C1109 1.327 . S
C1107 C1113 1.403 1_545 S
C1108 C1100 1.574 1_556 S
C1108 H1103 0.949 . S
C1108 C1114 1.368 . S
C1109 C1093 1.349 . S
C1109 H1101 0.950 . S
C1109 C1107 1.327 . S
C1110 C1098 1.349 . S
C1110 H1104 0.950 . S
C1110 C1111 1.327 . S
C1111 H1105 0.950 . S
C1111 C1110 1.327 . S
C1111 C1115 1.429 . S
C1112 C1095 1.574 1_554 S
C1112 H1106 0.949 . S
C1112 C1116 1.368 1_545 S
C1113 C1094 1.453 . S
C1113 C1107 1.403 1_565 S
C1113 C1114 1.524 . S
C1114 C1095 1.368 1_565 S
C1114 C1108 1.368 . S
C1114 C1113 1.524 . S
C1115 C1099 1.429 1_565 S
C1115 C1111 1.429 . S
C1115 C1116 1.523 . S
C1116 C1100 1.368 . S
C1116 C1112 1.368 1_565 S
C1116 C1115 1.523 . S
H1117 C1092 0.950 . S
H1118 C1094 0.950 . S
H1119 C1095 0.949 . S
H1120 C1097 0.950 . S
H1121 C1099 0.950 . S
C1122 C1123 1.349 . S
C1122 C1124 1.327 . S
C1122 H1147 0.950 . S
C1123 C1122 1.349 . S
C1123 C1139 1.349 . S
C1124 C1122 1.327 . S
C1124 C1143 1.429 . S
C1124 H1148 0.973 . S
C1125 C1142 1.574 1_556 S
C1125 C1144 1.368 . S
C1125 H1149 0.949 . S
H1126 C1130 0.957 . S
C1127 C1128 1.349 1_655 S
C1127 C1129 1.327 . S
C1127 H1150 0.950 . S
C1128 C1127 1.349 1_455 S
C1128 C1140 1.349 . S
C1129 C1127 1.327 . S
C1129 C1145 1.443 . S
C1129 H1151 0.950 . S
C1130 H1126 0.957 . S
C1130 C1138 1.573 1_454 S
C1130 C1146 1.360 1_455 S
H1131 C1139 0.950 . S
H1132 C1137 0.950 . S
H1133 C1138 0.925 1_455 S
H1134 C1140 0.950 . S
H1135 C1141 0.950 . S
H1136 C1142 0.949 . S
C1137 H1132 0.950 . S
C1137 C1139 1.327 . S
C1137 C1143 1.429 . S
C1138 C1130 1.573 1_656 S
C1138 H1133 0.925 1_655 S
C1138 C1144 1.387 . S
C1139 C1123 1.349 . S
C1139 H1131 0.950 . S
C1139 C1137 1.327 . S
C1140 C1128 1.349 . S
C1140 H1134 0.950 . S
C1140 C1141 1.327 . S
C1141 H1135 0.950 . S
C1141 C1140 1.327 . S
C1141 C1145 1.413 1_455 S
C1142 C1125 1.574 1_554 S
C1142 H1136 0.949 . S
C1142 C1146 1.368 . S
C1143 C1124 1.429 . S
C1143 C1137 1.429 . S
C1143 C1144 1.523 . S
C1144 C1125 1.368 . S
C1144 C1138 1.387 . S
C1144 C1143 1.523 . S
C1145 C1129 1.443 . S
C1145 C1141 1.413 1_655 S
C1145 C1146 1.524 . S
C1146 C1130 1.360 1_655 S
C1146 C1142 1.368 . S
C1146 C1145 1.524 . S
H1147 C1122 0.950 . S
H1148 C1124 0.973 . S
H1149 C1125 0.949 . S
H1150 C1127 0.950 . S
H1151 C1129 0.950 . S
C1152 C1153 1.349 . S
C1152 C1154 1.327 . S
C1152 H1177 0.950 . S
C1153 C1152 1.349 . S
C1153 C1169 1.349 . S
C1154 C1152 1.327 . S
C1154 C1173 1.429 . S
C1154 H1178 0.950 . S
C1155 C1172 1.574 . S
C1155 C1174 1.368 . S
C1155 H1179 0.949 . S
H1156 C1160 0.949 . S
C1157 C1158 1.349 . S
C1157 C1159 1.327 . S
C1157 H1180 0.950 . S
C1158 C1157 1.349 . S
C1158 C1170 1.349 . S
C1159 C1157 1.327 . S
C1159 C1175 1.429 . S
C1159 H1181 0.950 . S
C1160 H1156 0.949 . S
C1160 C1168 1.574 . S
C1160 C1176 1.368 . S
H1161 C1169 0.950 . S
H1162 C1167 0.950 . S
H1163 C1168 0.949 . S
H1164 C1170 0.950 . S
H1165 C1171 0.950 . S
H1166 C1172 0.949 . S
C1167 H1162 0.950 . S
C1167 C1169 1.327 . S
C1167 C1173 1.429 . S
C1168 C1160 1.574 . S
C1168 H1163 0.949 . S
C1168 C1174 1.368 . S
C1169 C1153 1.349 . S
C1169 H1161 0.950 . S
C1169 C1167 1.327 . S
C1170 C1158 1.349 . S
C1170 H1164 0.950 . S
C1170 C1171 1.327 . S
C1171 H1165 0.950 . S
C1171 C1170 1.327 . S
C1171 C1175 1.429 . S
C1172 C1155 1.574 . S
C1172 H1166 0.949 . S
C1172 C1176 1.368 . S
C1173 C1154 1.429 . S
C1173 C1167 1.429 . S
C1173 C1174 1.523 . S
C1174 C1155 1.368 . S
C1174 C1168 1.368 . S
C1174 C1173 1.523 . S
C1175 C1159 1.429 . S
C1175 C1171 1.429 . S
C1175 C1176 1.523 . S
C1176 C1160 1.368 . S
C1176 C1172 1.368 . S
C1176 C1175 1.523 . S
H1177 C1152 0.950 . S
H1178 C1154 0.950 . S
H1179 C1155 0.949 . S
H1180 C1157 0.950 . S
H1181 C1159 0.950 . S
C1182 C1183 1.349 . S
C1182 C1184 1.327 . S
C1182 H1207 0.950 . S
C1183 C1182 1.349 . S
C1183 C1199 1.349 . S
C1184 C1182 1.327 . S
C1184 C1203 1.429 . S
C1184 H1208 0.950 . S
C1185 C1202 1.574 . S
C1185 C1204 1.368 . S
C1185 H1209 0.949 . S
H1186 C1190 0.949 . S
C1187 C1188 1.349 . S
C1187 C1189 1.327 . S
C1187 H1210 0.950 . S
C1188 C1187 1.349 . S
C1188 C1200 1.349 . S
C1189 C1187 1.327 . S
C1189 C1205 1.429 . S
C1189 H1211 0.950 . S
C1190 H1186 0.949 . S
C1190 C1198 1.574 . S
C1190 C1206 1.368 . S
H1191 C1199 0.950 . S
H1192 C1197 0.950 . S
H1193 C1198 0.949 . S
H1194 C1200 0.950 . S
H1195 C1201 0.950 . S
H1196 C1202 0.949 . S
C1197 H1192 0.950 . S
C1197 C1199 1.327 . S
C1197 C1203 1.429 . S
C1198 C1190 1.574 . S
C1198 H1193 0.949 . S
C1198 C1204 1.368 . S
C1199 C1183 1.349 . S
C1199 H1191 0.950 . S
C1199 C1197 1.327 . S
C1200 C1188 1.349 . S
C1200 H1194 0.950 . S
C1200 C1201 1.327 . S
C1201 H1195 0.950 . S
C1201 C1200 1.327 . S
C1201 C1205 1.429 . S
C1202 C1185 1.574 . S
C1202 H1196 0.949 . S
C1202 C1206 1.368 . S
C1203 C1184 1.429 . S
C1203 C1197 1.429 . S
C1203 C1204 1.523 . S
C1204 C1185 1.368 . S
C1204 C1198 1.368 . S
C1204 C1203 1.523 . S
C1205 C1189 1.429 . S
C1205 C1201 1.429 . S
C1205 C1206 1.523 . S
C1206 C1190 1.368 . S
C1206 C1202 1.368 . S
C1206 C1205 1.523 . S
H1207 C1182 0.950 . S
H1208 C1184 0.950 . S
H1209 C1185 0.949 . S
H1210 C1187 0.950 . S
H1211 C1189 0.950 . S
C1212 C1213 1.349 . S
C1212 C1214 1.327 . S
C1212 H1237 0.950 . S
C1213 C1212 1.349 . S
C1213 C1229 1.349 . S
C1214 C1212 1.327 . S
C1214 C1233 1.429 . S
C1214 H1238 0.950 . S
C1215 C1232 1.574 . S
C1215 C1234 1.368 . S
C1215 H1239 0.949 . S
H1216 C1220 0.949 . S
C1217 C1218 1.349 . S
C1217 C1219 1.327 . S
C1217 H1240 0.950 . S
C1218 C1217 1.349 . S
C1218 C1230 1.349 . S
C1219 C1217 1.327 . S
C1219 C1235 1.429 . S
C1219 H1241 0.950 . S
C1220 H1216 0.949 . S
C1220 C1228 1.574 . S
C1220 C1236 1.368 . S
H1221 C1229 0.950 . S
H1222 C1227 0.950 . S
H1223 C1228 0.949 . S
H1224 C1230 0.950 . S
H1225 C1231 0.950 . S
H1226 C1232 0.949 . S
C1227 H1222 0.950 . S
C1227 C1229 1.327 . S
C1227 C1233 1.429 . S
C1228 C1220 1.574 . S
C1228 H1223 0.949 . S
C1228 C1234 1.368 . S
C1229 C1213 1.349 . S
C1229 H1221 0.950 . S
C1229 C1227 1.327 . S
C1230 C1218 1.349 . S
C1230 H1224 0.950 . S
C1230 C1231 1.327 . S
C1231 H1225 0.950 . S
C1231 C1230 1.327 . S
C1231 C1235 1.429 . S
C1232 C1215 1.574 . S
C1232 H1226 0.949 . S
C1232 C1236 1.368 . S
C1233 C1214 1.429 . S
C1233 C1227 1.429 . S
C1233 C1234 1.523 . S
C1234 C1215 1.368 . S
C1234 C1228 1.368 . S
C1234 C1233 1.523 . S
C1235 C1219 1.429 . S
C1235 C1231 1.429 . S
C1235 C1236 1.523 . S
C1236 C1220 1.368 . S
C1236 C1232 1.368 . S
C1236 C1235 1.523 . S
H1237 C1212 0.950 . S
H1238 C1214 0.950 . S
H1239 C1215 0.949 . S
H1240 C1217 0.950 . S
H1241 C1219 0.950 . S
C1242 C1243 1.349 . S
C1242 C1244 1.327 . S
C1242 H1267 0.950 . S
C1243 C1242 1.349 . S
C1243 C1259 1.349 . S
C1244 C1242 1.327 . S
C1244 C1263 1.429 . S
C1244 H1268 0.950 . S
C1245 C1262 1.574 . S
C1245 C1264 1.368 . S
C1245 H1269 0.949 . S
H1246 C1250 0.949 . S
C1247 C1248 1.349 . S
C1247 C1249 1.327 . S
C1247 H1270 0.950 . S
C1248 C1247 1.349 . S
C1248 C1260 1.349 . S
C1249 C1247 1.327 . S
C1249 C1265 1.429 . S
C1249 H1271 0.950 . S
C1250 H1246 0.949 . S
C1250 C1258 1.574 . S
C1250 C1266 1.368 . S
H1251 C1259 0.950 . S
H1252 C1257 0.950 . S
H1253 C1258 0.949 . S
H1254 C1260 0.950 . S
H1255 C1261 0.950 . S
H1256 C1262 0.949 . S
C1257 H1252 0.950 . S
C1257 C1259 1.327 . S
C1257 C1263 1.429 . S
C1258 C1250 1.574 . S
C1258 H1253 0.949 . S
C1258 C1264 1.368 . S
C1259 C1243 1.349 . S
C1259 H1251 0.950 . S
C1259 C1257 1.327 . S
C1260 C1248 1.349 . S
C1260 H1254 0.950 . S
C1260 C1261 1.327 . S
C1261 H1255 0.950 . S
C1261 C1260 1.327 . S
C1261 C1265 1.429 . S
C1262 C1245 1.574 . S
C1262 H1256 0.949 . S
C1262 C1266 1.368 . S
C1263 C1244 1.429 . S
C1263 C1257 1.429 . S
C1263 C1264 1.523 . S
C1264 C1245 1.368 . S
C1264 C1258 1.368 . S
C1264 C1263 1.523 . S
C1265 C1249 1.429 . S
C1265 C1261 1.429 . S
C1265 C1266 1.523 . S
C1266 C1250 1.368 . S
C1266 C1262 1.368 . S
C1266 C1265 1.523 . S
H1267 C1242 0.950 . S
H1268 C1244 0.950 . S
H1269 C1245 0.949 . S
H1270 C1247 0.950 . S
H1271 C1249 0.950 . S
C1272 C1273 1.349 . S
C1272 C1274 1.327 . S
C1272 H1297 0.950 . S
C1273 C1272 1.349 . S
C1273 C1289 1.349 . S
C1274 C1272 1.327 . S
C1274 C1293 1.429 . S
C1274 H1298 0.950 . S
C1275 C1292 1.574 . S
C1275 C1294 1.368 . S
C1275 H1299 0.949 . S
H1276 C1280 0.949 . S
C1277 C1278 1.349 . S
C1277 C1279 1.327 . S
C1277 H1300 0.950 . S
C1278 C1277 1.349 . S
C1278 C1290 1.349 . S
C1279 C1277 1.327 . S
C1279 C1295 1.429 . S
C1279 H1301 0.950 . S
C1280 H1276 0.949 . S
C1280 C1288 1.574 . S
C1280 C1296 1.368 . S
H1281 C1289 0.950 . S
H1282 C1287 0.950 . S
H1283 C1288 0.949 . S
H1284 C1290 0.950 . S
H1285 C1291 0.950 . S
H1286 C1292 0.949 . S
C1287 H1282 0.950 . S
C1287 C1289 1.327 . S
C1287 C1293 1.429 . S
C1288 C1280 1.574 . S
C1288 H1283 0.949 . S
C1288 C1294 1.368 . S
C1289 C1273 1.349 . S
C1289 H1281 0.950 . S
C1289 C1287 1.327 . S
C1290 C1278 1.349 . S
C1290 H1284 0.950 . S
C1290 C1291 1.327 . S
C1291 H1285 0.950 . S
C1291 C1290 1.327 . S
C1291 C1295 1.429 . S
C1292 C1275 1.574 . S
C1292 H1286 0.949 . S
C1292 C1296 1.368 . S
C1293 C1274 1.429 . S
C1293 C1287 1.429 . S
C1293 C1294 1.523 . S
C1294 C1275 1.368 . S
C1294 C1288 1.368 . S
C1294 C1293 1.523 . S
C1295 C1279 1.429 . S
C1295 C1291 1.429 . S
C1295 C1296 1.523 . S
C1296 C1280 1.368 . S
C1296 C1292 1.368 . S
C1296 C1295 1.523 . S
H1297 C1272 0.950 . S
H1298 C1274 0.950 . S
H1299 C1275 0.949 . S
H1300 C1277 0.950 . S
H1301 C1279 0.950 . S
C1302 C1303 1.349 . S
C1302 C1304 1.327 . S
C1302 H1327 0.950 . S
C1303 C1302 1.349 . S
C1303 C1319 1.349 . S
C1304 C1302 1.327 . S
C1304 C1323 1.429 . S
C1304 H1328 0.950 . S
C1305 C1322 1.574 . S
C1305 C1324 1.368 . S
C1305 H1329 0.949 . S
H1306 C1310 0.949 . S
C1307 C1308 1.349 . S
C1307 C1309 1.327 . S
C1307 H1330 0.950 . S
C1308 C1307 1.349 . S
C1308 C1320 1.349 . S
C1309 C1307 1.327 . S
C1309 C1325 1.429 . S
C1309 H1331 0.950 . S
C1310 H1306 0.949 . S
C1310 C1318 1.574 . S
C1310 C1326 1.368 . S
H1311 C1319 0.950 . S
H1312 C1317 0.950 . S
H1313 C1318 0.949 . S
H1314 C1320 0.950 . S
H1315 C1321 0.950 . S
H1316 C1322 0.949 . S
C1317 H1312 0.950 . S
C1317 C1319 1.327 . S
C1317 C1323 1.429 . S
C1318 C1310 1.574 . S
C1318 H1313 0.949 . S
C1318 C1324 1.368 . S
C1319 C1303 1.349 . S
C1319 H1311 0.950 . S
C1319 C1317 1.327 . S
C1320 C1308 1.349 . S
C1320 H1314 0.950 . S
C1320 C1321 1.327 . S
C1321 H1315 0.950 . S
C1321 C1320 1.327 . S
C1321 C1325 1.429 . S
C1322 C1305 1.574 . S
C1322 H1316 0.949 . S
C1322 C1326 1.368 . S
C1323 C1304 1.429 . S
C1323 C1317 1.429 . S
C1323 C1324 1.523 . S
C1324 C1305 1.368 . S
C1324 C1318 1.368 . S
C1324 C1323 1.523 . S
C1325 C1309 1.429 . S
C1325 C1321 1.429 . S
C1325 C1326 1.523 . S
C1326 C1310 1.368 . S
C1326 C1322 1.368 . S
C1326 C1325 1.523 . S
H1327 C1302 0.950 . S
H1328 C1304 0.950 . S
H1329 C1305 0.949 . S
H1330 C1307 0.950 . S
H1331 C1309 0.950 . S
C253 C151 0.885 . S
C258 C11 0.885 . S
C283 C25 0.885 . S
C288 C165 0.885 . S
C313 C137 0.885 . S
C318 C39 0.885 . S
C343 C207 0.885 . S
C348 C53 0.885 . S
C373 C67 0.885 . S
C378 C179 0.885 . S
C403 C193 0.884 . S
C408 C81 0.884 . S
C433 C95 0.886 . S
C438 C235 0.886 . S
C463 C249 0.885 . S
C468 C109 0.885 . S
C493 C123 0.886 . S
C498 C221 0.886 . S
C523 C8 0.756 . S
C528 C21 0.758 . S
C553 C22 0.756 . S
C558 C35 0.758 . S
C583 C7 0.759 . S
C588 C36 0.756 . S
C613 C77 0.758 . S
C618 C50 0.756 . S
C643 C49 0.759 . S
C648 C64 0.756 . S
C673 C78 0.756 . S
C678 C63 0.759 . S
C703 C92 0.756 . S
C708 C105 0.758 . S
C733 C106 0.756 . S
C738 C119 0.758 . S
C763 C91 0.758 . S
C768 C120 0.756 . S
C793 C161 0.758 . S
C798 C134 0.756 . S
C823 C133 0.759 . S
C828 C148 0.756 . S
C853 C147 0.759 . S
C858 C162 0.756 . S
C883 C189 0.758 . S
C888 C176 0.756 . S
C913 C203 0.759 . S
C918 C190 0.756 . S
C943 C175 0.759 . S
C948 C204 0.756 . S
C973 C218 0.756 . S
C978 C245 0.758 . S
C1003 C232 0.756 . S
C1008 C217 0.758 . S
C1033 C246 0.756 . S
C1038 C231 0.758 . S
C1063 C13 1.316 . S
C1068 C55 1.316 . S
C1093 C69 1.318 . S
C1098 C27 1.314 . S
C1123 C83 1.315 . S
C1128 C41 1.318 . S
C1153 C139 1.315 . S
C1158 C97 1.315 . S
C1183 C153 1.315 . S
C1188 C111 1.315 . S
C1213 C125 1.315 . S
C1218 C167 1.315 . S
C1243 C223 1.315 . S
C1248 C181 1.315 . S
C1273 C237 1.315 . S
C1278 C195 1.315 . S
C1303 C251 1.315 . S
C1308 C209 1.315 . S
