# Generated by pormake.
# Topology unf, (4)-cn, num edge types: 1
# Building blocks:
#     Node 0, Type 0, BuildingBlock: AZAVOO_clean_sbu_0, # of connection points: 4
#     Node 1, Type 0, BuildingBlock: AZAVOO_clean_sbu_0, # of connection points: 4
#     Node 2, Type 0, BuildingBlock: AZAVOO_clean_sbu_0, # of connection points: 4
#     Node 3, Type 0, BuildingBlock: AZAVOO_clean_sbu_0, # of connection points: 4
#     Node 4, Type 0, BuildingBlock: AZAVOO_clean_sbu_0, # of connection points: 4
#     Node 5, Type 0, BuildingBlock: AZAVOO_clean_sbu_0, # of connection points: 4
#     Node 6, Type 0, BuildingBlock: AZAVOO_clean_sbu_0, # of connection points: 4
#     Node 7, Type 0, BuildingBlock: AZAVOO_clean_sbu_0, # of connection points: 4
#     Node 8, Type 0, BuildingBlock: AZAVOO_clean_sbu_0, # of connection points: 4
#     Node 9, Type 0, BuildingBlock: AZAVOO_clean_sbu_0, # of connection points: 4
#     Node 10, Type 0, BuildingBlock: AZAVOO_clean_sbu_0, # of connection points: 4
#     Node 11, Type 0, BuildingBlock: AZAVOO_clean_sbu_0, # of connection points: 4
#     Edge 12, Type (0, 0), BuildingBlock: ZUJKAS_clean_linker_0, # of connection points: 2
#     Edge 13, Type (0, 0), BuildingBlock: ZUJKAS_clean_linker_0, # of connection points: 2
#     Edge 14, Type (0, 0), BuildingBlock: ZUJKAS_clean_linker_0, # of connection points: 2
#     Edge 15, Type (0, 0), BuildingBlock: ZUJKAS_clean_linker_0, # of connection points: 2
#     Edge 16, Type (0, 0), BuildingBlock: ZUJKAS_clean_linker_0, # of connection points: 2
#     Edge 17, Type (0, 0), BuildingBlock: ZUJKAS_clean_linker_0, # of connection points: 2
#     Edge 18, Type (0, 0), BuildingBlock: ZUJKAS_clean_linker_0, # of connection points: 2
#     Edge 19, Type (0, 0), BuildingBlock: ZUJKAS_clean_linker_0, # of connection points: 2
#     Edge 20, Type (0, 0), BuildingBlock: ZUJKAS_clean_linker_0, # of connection points: 2
#     Edge 21, Type (0, 0), BuildingBlock: ZUJKAS_clean_linker_0, # of connection points: 2
#     Edge 22, Type (0, 0), BuildingBlock: ZUJKAS_clean_linker_0, # of connection points: 2
#     Edge 23, Type (0, 0), BuildingBlock: ZUJKAS_clean_linker_0, # of connection points: 2
#     Edge 24, Type (0, 0), BuildingBlock: ZUJKAS_clean_linker_0, # of connection points: 2
#     Edge 25, Type (0, 0), BuildingBlock: ZUJKAS_clean_linker_0, # of connection points: 2
#     Edge 26, Type (0, 0), BuildingBlock: ZUJKAS_clean_linker_0, # of connection points: 2
#     Edge 27, Type (0, 0), BuildingBlock: ZUJKAS_clean_linker_0, # of connection points: 2
#     Edge 28, Type (0, 0), BuildingBlock: ZUJKAS_clean_linker_0, # of connection points: 2
#     Edge 29, Type (0, 0), BuildingBlock: ZUJKAS_clean_linker_0, # of connection points: 2
#     Edge 30, Type (0, 0), BuildingBlock: ZUJKAS_clean_linker_0, # of connection points: 2
#     Edge 31, Type (0, 0), BuildingBlock: ZUJKAS_clean_linker_0, # of connection points: 2
#     Edge 32, Type (0, 0), BuildingBlock: ZUJKAS_clean_linker_0, # of connection points: 2
#     Edge 33, Type (0, 0), BuildingBlock: ZUJKAS_clean_linker_0, # of connection points: 2
#     Edge 34, Type (0, 0), BuildingBlock: ZUJKAS_clean_linker_0, # of connection points: 2
#     Edge 35, Type (0, 0), BuildingBlock: ZUJKAS_clean_linker_0, # of connection points: 2
# Relax obj value: 0.262
# Max RMSD: 0.202
# Mean RMSD: 0.202
data_MOF--net-unf--node1-AZAVOO_clean_sbu_0--edge1-ZUJKAS_clean_linker_0
_symmetry_space_group_name_H-M    P1
_symmetry_Int_Tables_number       1
_symmetry_cell_setting            triclinic
loop_
_symmetry_equiv_pos_as_xyz
'x, y, z'
_cell_length_a     48.024675
_cell_length_b     48.036025
_cell_length_c     48.183127
_cell_angle_alpha  90.026363
_cell_angle_beta   90.147604
_cell_angle_gamma 119.9936
loop_
_atom_site_label
_atom_site_type_symbol
_atom_site_fract_x
_atom_site_fract_y
_atom_site_fract_z
_atom_type_partial_charge
Mg0 Mg 0.0848 0.38901 0.02591 0.0
O1 O 0.0408 0.34 0.01349 0.0
O2 O 0.04697 0.29856 0.02639 0.0
Mg3 Mg 0.08376 0.32081 0.06133 0.0
C4 C 0.03192 0.31003 0.01302 0.0
C5 C 0.06083 0.42309 0.98254 0.0
O6 O 0.08011 0.41992 0.96517 0.0
O7 O 0.06691 0.39191 0.06954 0.0
O8 O 0.0528 0.34199 0.07214 0.0
O9 O 0.11294 0.38169 0.99229 0.0
O10 O 0.11104 0.36514 0.03536 0.0
C11 C 0.06447 0.36891 0.08424 0.0
C12 C 0.12084 0.36679 0.01029 0.0
O13 O 0.059 0.41373 0.00748 0.0
Mg14 Mg 0.58661 0.72179 0.12835 0.0
O15 O 0.63337 0.72093 0.12277 0.0
O16 O 0.6757 0.77027 0.12694 0.0
Mg17 Mg 0.65559 0.8035 0.13611 0.0
C18 C 0.66365 0.7402 0.12269 0.0
C19 C 0.54087 0.65198 0.10992 0.0
O20 O 0.53397 0.66864 0.09242 0.0
O21 O 0.59391 0.72742 0.17564 0.0
O22 O 0.63519 0.77789 0.17734 0.0
O23 O 0.58697 0.73276 0.08321 0.0
O24 O 0.60963 0.77004 0.11559 0.0
C25 C 0.6144 0.75209 0.18932 0.0
C26 C 0.60396 0.76286 0.08968 0.0
O27 O 0.56062 0.66679 0.12953 0.0
Mg28 Mg 0.23488 0.82392 0.03515 0.0
O29 O 0.24172 0.87295 0.04768 0.0
O30 O 0.19633 0.86658 0.06615 0.0
Mg31 Mg 0.15988 0.81259 0.06558 0.0
C32 C 0.22551 0.88449 0.05873 0.0
C33 C 0.29739 0.84427 0.00339 0.0
O34 O 0.27491 0.82623 0.98541 0.0
O35 O 0.23884 0.81242 0.08088 0.0
O36 O 0.19138 0.80416 0.09617 0.0
O37 O 0.2148 0.8272 0.99382 0.0
O38 O 0.18542 0.80537 0.03113 0.0
C39 C 0.21798 0.80473 0.10016 0.0
C40 C 0.18689 0.81369 0.0056 0.0
O41 O 0.28901 0.84764 0.02762 0.0
Mg42 Mg 0.62546 0.92789 0.45029 0.0
O43 O 0.67086 0.96502 0.47427 0.0
O44 O 0.71405 0.96108 0.46294 0.0
Mg45 Mg 0.69973 0.9315 0.42311 0.0
C46 C 0.70035 0.97284 0.47776 0.0
C47 C 0.58977 0.94862 0.49421 0.0
O48 O 0.59727 0.93228 0.51157 0.0
O49 O 0.63769 0.96045 0.4124 0.0
O50 O 0.68536 0.96771 0.4091 0.0
O51 O 0.62144 0.88922 0.47898 0.0
O52 O 0.6498 0.9025 0.44035 0.0
C53 C 0.65756 0.95604 0.3985 0.0
C54 C 0.64057 0.8854 0.46251 0.0
O55 O 0.5973 0.95004 0.46877 0.0
Mg56 Mg 0.17777 0.747 0.44417 0.0
O57 O 0.129 0.74066 0.43155 0.0
O58 O 0.13464 0.78757 0.41767 0.0
Mg59 Mg 0.18872 0.82394 0.41888 0.0
C60 C 0.11721 0.75757 0.42259 0.0
C61 C 0.16011 0.68334 0.47193 0.0
O62 O 0.18186 0.70506 0.48856 0.0
O63 O 0.18997 0.7465 0.39811 0.0
O64 O 0.19759 0.79477 0.38603 0.0
O65 O 0.17347 0.76383 0.48673 0.0
O66 O 0.19606 0.79603 0.45107 0.0
C67 C 0.19752 0.76878 0.38015 0.0
C68 C 0.18724 0.79258 0.47658 0.0
O69 O 0.1537 0.69259 0.4493 0.0
Mg70 Mg 0.27589 0.42153 0.38357 0.0
O71 O 0.2726 0.3726 0.38749 0.0
O72 O 0.22135 0.3333 0.38869 0.0
Mg73 Mg 0.19118 0.35742 0.38181 0.0
C74 C 0.25137 0.34295 0.38957 0.0
C75 C 0.34762 0.46481 0.39633 0.0
O76 O 0.33357 0.47476 0.41392 0.0
O77 O 0.26505 0.41344 0.33688 0.0
O78 O 0.21342 0.37457 0.33878 0.0
O79 O 0.26993 0.42223 0.42961 0.0
O80 O 0.22949 0.4025 0.39985 0.0
C81 C 0.23854 0.39361 0.32502 0.0
C82 C 0.23924 0.4074 0.4252 0.0
O83 O 0.3303 0.44362 0.37845 0.0
Mg84 Mg 0.8153 0.5812 0.91707 0.0
O85 O 0.86228 0.62885 0.91272 0.0
O86 O 0.85227 0.66932 0.9091 0.0
Mg87 Mg 0.79743 0.64674 0.91047 0.0
C88 C 0.87191 0.65875 0.9102 0.0
C89 C 0.84125 0.53531 0.92881 0.0
O90 O 0.82131 0.52936 0.94954 0.0
O91 O 0.80436 0.58107 0.87075 0.0
O92 O 0.79209 0.62025 0.86945 0.0
O93 O 0.81728 0.58895 0.96306 0.0
O94 O 0.79305 0.60521 0.93362 0.0
C95 C 0.79508 0.5981 0.85754 0.0
C96 C 0.80199 0.60437 0.95865 0.0
O97 O 0.84358 0.55518 0.91028 0.0
Mg98 Mg 0.41877 0.2702 0.98538 0.0
O99 O 0.37088 0.2694 0.98178 0.0
O100 O 0.3327 0.22256 0.96456 0.0
Mg101 Mg 0.35759 0.19387 0.95421 0.0
C102 C 0.34192 0.25062 0.97413 0.0
C103 C 0.45596 0.33364 0.01973 0.0
O104 O 0.4585 0.31334 0.03636 0.0
O105 O 0.42682 0.27987 0.93849 0.0
O106 O 0.38816 0.23222 0.92237 0.0
O107 O 0.40346 0.24385 0.02635 0.0
O108 O 0.39506 0.22022 0.98554 0.0
C109 C 0.41123 0.26083 0.91849 0.0
C110 C 0.39134 0.21758 0.01195 0.0
O111 O 0.4421 0.32361 0.99636 0.0
Mg112 Mg 0.67588 0.06114 0.858 0.0
O113 O 0.68071 0.02128 0.88035 0.0
O114 O 0.72912 0.02587 0.87453 0.0
Mg115 Mg 0.74929 0.05921 0.83721 0.0
C116 C 0.7014 0.01271 0.88591 0.0
C117 C 0.61912 0.0341 0.89919 0.0
O118 O 0.64407 0.04577 0.91597 0.0
O119 O 0.66061 0.03358 0.81695 0.0
O120 O 0.70027 0.02496 0.81863 0.0
O121 O 0.70516 0.09493 0.89149 0.0
O122 O 0.72724 0.08758 0.85402 0.0
C123 C 0.68633 0.03766 0.80588 0.0
C124 C 0.73085 0.10088 0.87803 0.0
O125 O 0.62389 0.03732 0.87313 0.0
Mg126 Mg 0.40295 0.16478 0.57869 0.0
O127 O 0.35796 0.11532 0.58214 0.0
O128 O 0.31514 0.12036 0.59097 0.0
Mg129 Mg 0.33335 0.17446 0.59315 0.0
C130 C 0.3279 0.103 0.58657 0.0
C131 C 0.45109 0.14365 0.55994 0.0
O132 O 0.45297 0.16268 0.53956 0.0
O133 O 0.40517 0.17215 0.62573 0.0
O134 O 0.3635 0.18004 0.63198 0.0
O135 O 0.39289 0.16632 0.53346 0.0
O136 O 0.37492 0.18478 0.56673 0.0
C137 C 0.38771 0.17868 0.64135 0.0
C138 C 0.3759 0.17918 0.54073 0.0
O139 O 0.43309 0.14016 0.58049 0.0
Mg140 Mg 0.931 0.32294 0.64066 0.0
O141 O 0.97522 0.32047 0.62534 0.0
O142 O 0.97283 0.27379 0.63535 0.0
Mg143 Mg 0.93529 0.25398 0.66966 0.0
C144 C 0.9861 0.30108 0.6232 0.0
C145 C 0.95059 0.37825 0.59789 0.0
O146 O 0.93057 0.35331 0.5829 0.0
O147 O 0.9512 0.34105 0.68429 0.0
O148 O 0.96502 0.305 0.68552 0.0
O149 O 0.90352 0.29109 0.60564 0.0
O150 O 0.90626 0.27168 0.64654 0.0
C151 C 0.95042 0.31763 0.69714 0.0
C152 C 0.89663 0.26645 0.62106 0.0
O153 O 0.95482 0.37407 0.62329 0.0
Mg154 Mg 0.73389 0.5847 0.50523 0.0
O155 O 0.73439 0.63247 0.50311 0.0
O156 O 0.78098 0.67242 0.519 0.0
Mg157 Mg 0.81051 0.64954 0.53288 0.0
C158 C 0.753 0.66211 0.50875 0.0
C159 C 0.66912 0.54586 0.47209 0.0
O160 O 0.68883 0.54379 0.45446 0.0
O161 O 0.72532 0.58222 0.55236 0.0
O162 O 0.77339 0.62193 0.56647 0.0
O163 O 0.75951 0.59442 0.46394 0.0
O164 O 0.78396 0.60857 0.5045 0.0
C165 C 0.74485 0.59936 0.57158 0.0
C166 C 0.78611 0.60842 0.47796 0.0
O167 O 0.68008 0.55991 0.49525 0.0
H168 H 0.15418 0.37386 0.96208 0.0
H169 H 0.19101 0.35356 0.95251 0.0
H170 H 0.16816 0.30589 0.03194 0.0
H171 H 0.13297 0.32719 0.04211 0.0
H172 H 0.23054 0.33965 0.02523 0.0
H173 H 0.17601 0.26622 0.93059 0.0
H174 H 0.18541 0.30723 0.92723 0.0
H175 H 0.15531 0.28123 0.95162 0.0
C176 C 0.15672 0.35868 0.9773 0.0
C177 C 0.14046 0.35202 0.0028 0.0
C178 C 0.17762 0.34693 0.97174 0.0
C179 C 0.18208 0.32786 0.99138 0.0
C180 C 0.16512 0.32051 0.01644 0.0
H181 H 0.27613 0.21494 0.97258 0.0
H182 H 0.23796 0.23448 0.97613 0.0
C183 C 0.14476 0.33261 0.02217 0.0
C184 C 0.20598 0.31726 0.9871 0.0
H185 H 0.22704 0.27413 0.94433 0.0
C186 C 0.22971 0.32526 0.00754 0.0
C187 C 0.20471 0.29824 0.96417 0.0
C188 C 0.17882 0.28743 0.94227 0.0
C189 C 0.25197 0.31456 0.00591 0.0
C190 C 0.25131 0.2963 0.98261 0.0
C191 C 0.22768 0.28836 0.96206 0.0
C192 C 0.27453 0.28466 0.97956 0.0
C193 C 0.27527 0.32212 0.02967 0.0
C194 C 0.30775 0.30638 0.97991 0.0
C195 C 0.32957 0.29526 0.97839 0.0
C196 C 0.31862 0.2622 0.97585 0.0
C197 C 0.28534 0.24054 0.97462 0.0
C198 C 0.2635 0.25168 0.97656 0.0
H199 H 0.26641 0.32755 0.04907 0.0
H200 H 0.27953 0.30181 0.03378 0.0
H201 H 0.29858 0.34363 0.02439 0.0
H202 H 0.31684 0.332 0.98142 0.0
H203 H 0.35505 0.31265 0.97893 0.0
H204 H 0.59395 0.75556 0.03356 0.0
H205 H 0.61297 0.79792 -0.00152 0.0
H206 H 0.66291 0.86947 0.0619 0.0
H207 H 0.64278 0.82761 0.09708 0.0
H208 H 0.6297 0.88641 0.02996 0.0
H209 H 0.69941 0.84986 0.96289 0.0
H210 H 0.65852 0.8184 0.9671 0.0
H211 H 0.68503 0.83256 0.9967 0.0
C212 C 0.60924 0.7803 0.03999 0.0
C213 C 0.61709 0.78814 0.06812 0.0
C214 C 0.62032 0.80447 0.01987 0.0
C215 C 0.6399 0.83685 0.02747 0.0
C216 C 0.64802 0.84464 0.0555 0.0
H217 H 0.74151 0.99568 0.91195 0.0
H218 H 0.72709 0.95357 0.94672 0.0
C219 C 0.63662 0.82059 0.07563 0.0
C220 C 0.65028 0.86288 0.00661 0.0
H221 H 0.68844 0.88958 0.94444 0.0
C222 C 0.64274 0.8872 0.01136 0.0
C223 C 0.6677 0.86418 0.98253 0.0
C224 C 0.67845 0.84004 0.97711 0.0
C225 C 0.6517 0.91251 0.99255 0.0
C226 C 0.66772 0.91295 0.9678 0.0
C227 C 0.67579 0.88897 0.96325 0.0
C228 C 0.67633 0.93814 0.94643 0.0
C229 C 0.64442 0.93881 -0.00029 0.0
C230 C 0.65252 0.9431 0.93441 0.0
C231 C 0.66071 0.96738 0.91484 0.0
C232 C 0.69284 0.98678 0.90646 0.0
C233 C 0.71655 0.98119 0.91797 0.0
C234 C 0.70835 0.95712 0.93782 0.0
H235 H 0.64156 0.94029 0.02245 0.0
H236 H 0.66371 0.9626 0.99236 0.0
H237 H 0.6215 0.93358 0.98964 0.0
H238 H 0.62752 0.92816 0.94015 0.0
H239 H 0.64178 0.97075 0.90616 0.0
H240 H 0.18172 0.83219 0.9527 0.0
H241 H 0.13199 0.819 0.92759 0.0
H242 H 0.07641 0.76792 -0.00066 0.0
H243 H 0.12539 0.78107 0.02437 0.0
H244 H 0.08314 0.75986 0.91417 0.0
H245 H 0.03501 0.82028 0.97919 0.0
H246 H 0.07641 0.8298 0.98145 0.0
H247 H 0.04551 0.79635 0.00052 0.0
C248 C 0.15888 0.81859 0.96321 0.0
C249 C 0.15754 0.80797 0.99064 0.0
C250 C 0.13053 0.81111 0.94886 0.0
C251 C 0.10051 0.79311 0.96181 0.0
C252 C 0.09929 0.78273 0.98921 0.0
H253 H 0.92047 0.64538 0.91721 0.0
H254 H 0.97746 0.68325 0.92312 0.0
C255 C 0.12743 0.79017 0.00349 0.0
C256 C 0.07005 0.78232 0.94636 0.0
H257 H 0.99501 0.77201 0.95484 0.0
C258 C 0.06408 0.76317 0.92262 0.0
C259 C 0.04538 0.78728 0.95686 0.0
C260 C 0.05107 0.80988 0.98073 0.0
C261 C 0.03326 0.74649 0.91072 0.0
C262 C 0.00768 0.74841 0.92334 0.0
C263 C 0.0144 0.76994 0.94544 0.0
C264 C 0.97351 0.72571 0.91631 0.0
C265 C 0.0283 0.72625 0.88524 0.0
C266 C 0.952 0.73686 0.91093 0.0
C267 C 0.91905 0.71513 0.90798 0.0
C268 C 0.90701 0.68184 0.91046 0.0
C269 C 0.9288 0.6708 0.91501 0.0
C270 C 0.96158 0.69248 0.91812 0.0
H271 H 0.05032 0.7369 0.87225 0.0
H272 H 0.02326 0.70199 0.89169 0.0
H273 H 0.00789 0.72365 0.87242 0.0
H274 H 0.96061 0.76241 0.90969 0.0
H275 H 0.90297 0.72448 0.90447 0.0
H276 H 0.69126 0.64808 0.4987 0.0
H277 H 0.67167 0.68571 0.49211 0.0
H278 H 0.76833 0.76542 0.50097 0.0
H279 H 0.78807 0.72791 0.50847 0.0
H280 H 0.72636 0.77514 0.53016 0.0
H281 H 0.67953 0.73651 0.42341 0.0
H282 H 0.6624 0.70414 0.44791 0.0
H283 H 0.70474 0.72376 0.44044 0.0
C284 C 0.70844 0.67361 0.49908 0.0
C285 C 0.7413 0.68498 0.50394 0.0
C286 C 0.69718 0.6951 0.49518 0.0
C287 C 0.71861 0.72837 0.49552 0.0
C288 C 0.75139 0.73982 0.50051 0.0
H289 H 0.67951 0.87243 0.4307 0.0
H290 H 0.69865 0.83516 0.4404 0.0
C291 C 0.76264 0.71835 0.50474 0.0
C292 C 0.70679 0.75128 0.49117 0.0
H293 H 0.6655 0.77187 0.44574 0.0
C294 C 0.71314 0.77453 0.51166 0.0
C295 C 0.68986 0.75065 0.46688 0.0
C296 C 0.684 0.72764 0.44328 0.0
C297 C 0.70293 0.79712 0.50858 0.0
C298 C 0.68513 0.79583 0.48469 0.0
C299 C 0.67885 0.77261 0.46419 0.0
C300 C 0.67406 0.81924 0.47975 0.0
C301 C 0.7121 0.82265 0.53058 0.0
C302 C 0.6537 0.82267 0.49862 0.0
C303 C 0.64307 0.84451 0.49333 0.0
C304 C 0.65234 0.86295 0.46892 0.0
C305 C 0.67236 0.85909 0.44995 0.0
C306 C 0.68317 0.83757 0.45536 0.0
H307 H 0.73279 0.82569 0.54328 0.0
H308 H 0.71843 0.84618 0.52119 0.0
H309 H 0.69143 0.81552 0.54472 0.0
H310 H 0.64567 0.80817 0.51723 0.0
H311 H 0.62735 0.84667 0.50817 0.0
H312 H 0.22122 0.85534 0.46149 0.0
H313 H 0.23358 0.9024 0.48918 0.0
H314 H 0.1786 0.84156 0.55724 0.0
H315 H 0.16626 0.79376 0.52947 0.0
H316 H 0.1941 0.92188 0.51382 0.0
H317 H 0.26696 0.90066 0.59222 0.0
H318 H 0.25464 0.87879 0.55988 0.0
H319 H 0.22597 0.86931 0.58723 0.0
C320 C 0.21136 0.85176 0.48221 0.0
C321 C 0.19271 0.82075 0.49325 0.0
C322 C 0.2185 0.87879 0.49805 0.0
C323 C 0.20725 0.87553 0.52534 0.0
C324 C 0.18791 0.84461 0.53634 0.0
H325 H 0.26286 0.06643 0.59606 0.0
H326 H 0.22826 0.00872 0.58752 0.0
C327 C 0.18078 0.81737 0.52043 0.0
C328 C 0.21721 0.905 0.54199 0.0
H329 H 0.26875 0.95023 0.59376 0.0
C330 C 0.20991 0.92794 0.53167 0.0
C331 C 0.2379 0.91275 0.5652 0.0
C332 C 0.2471 0.88927 0.57681 0.0
C333 C 0.22446 0.95917 0.54267 0.0
C334 C 0.24631 0.9674 0.56509 0.0
C335 C 0.25194 0.94379 0.57661 0.0
C336 C 0.267 0.00126 0.57406 0.0
C337 C 0.2181 0.98365 0.52882 0.0
C338 C 0.3004 0.01586 0.57064 0.0
C339 C 0.32023 0.04861 0.5758 0.0
C340 C 0.30709 0.0676 0.58441 0.0
C341 C 0.27375 0.05261 0.58915 0.0
C342 C 0.2539 0.01966 0.58416 0.0
H343 H 0.20514 0.97479 0.50876 0.0
H344 H 0.2031 0.98924 0.54265 0.0
H345 H 0.24098 0.00632 0.52493 0.0
H346 H 0.31106 0.00213 0.56291 0.0
H347 H 0.34577 0.05921 0.57206 0.0
H348 H 0.02085 0.27022 0.6172 0.0
H349 H 0.06842 0.28663 0.58832 0.0
H350 H 0.06343 0.36934 0.56046 0.0
H351 H 0.01649 0.35364 0.58954 0.0
H352 H 0.07427 0.2935 0.53269 0.0
H353 H 0.15688 0.40987 0.58271 0.0
H354 H 0.1197 0.38039 0.59861 0.0
H355 H 0.11974 0.40745 0.57272 0.0
C356 C 0.03 0.29204 0.60506 0.0
C357 C 0.01491 0.3107 0.60582 0.0
C358 C 0.05722 0.30137 0.58862 0.0
C359 C 0.06987 0.32955 0.57271 0.0
C360 C 0.05466 0.34801 0.5732 0.0
H361 H 0.17447 0.38231 0.42204 0.0
H362 H 0.13556 0.36122 0.45966 0.0
C363 C 0.02761 0.33883 0.5897 0.0
C364 C 0.09786 0.33887 0.55433 0.0
H365 H 0.17074 0.40239 0.53634 0.0
C366 C 0.09558 0.31714 0.53375 0.0
C367 C 0.12595 0.36946 0.55605 0.0
C368 C 0.1309 0.39298 0.57892 0.0
C369 C 0.11983 0.32584 0.51388 0.0
C370 C 0.14672 0.35732 0.5143 0.0
C371 C 0.14988 0.37841 0.5358 0.0
C372 C 0.17066 0.3695 0.4916 0.0
C373 C 0.11624 0.30131 0.49247 0.0
C374 C 0.20352 0.38212 0.49718 0.0
C375 C 0.226 0.39449 0.47564 0.0
C376 C 0.21589 0.3945 0.44822 0.0
C377 C 0.18301 0.38216 0.44283 0.0
C378 C 0.16067 0.36993 0.46431 0.0
H379 H 0.10086 0.27641 0.50025 0.0
H380 H 0.10453 0.30414 0.47365 0.0
H381 H 0.13996 0.30447 0.48645 0.0
H382 H 0.21175 0.38231 0.51817 0.0
H383 H 0.25119 0.40395 0.48044 0.0
H384 H 0.64641 0.67992 0.10428 0.0
H385 H 0.68141 0.66095 0.08681 0.0
H386 H 0.7647 0.75207 0.10742 0.0
H387 H 0.72963 0.77176 0.12425 0.0
H388 H 0.76811 0.7369 0.05618 0.0
H389 H 0.73735 0.62998 0.11929 0.0
H390 H 0.70118 0.62686 0.10564 0.0
H391 H 0.72582 0.65904 0.12935 0.0
C392 C 0.67218 0.69582 0.10563 0.0
C393 C 0.68518 0.72748 0.11552 0.0
C394 C 0.69224 0.68476 0.09588 0.0
C395 C 0.72577 0.70484 0.09625 0.0
C396 C 0.73891 0.73606 0.10712 0.0
H397 H 0.8245 0.6146 0.01236 0.0
H398 H 0.81343 0.64312 0.04922 0.0
C399 C 0.71881 0.74729 0.11667 0.0
C400 C 0.7464 0.69451 0.08189 0.0
H401 H 0.75507 0.62894 0.07168 0.0
C402 C 0.7659 0.71364 0.06008 0.0
C403 C 0.74427 0.66452 0.08725 0.0
C404 C 0.72629 0.64417 0.1119 0.0
C405 C 0.78088 0.70235 0.04201 0.0
C406 C 0.77555 0.67082 0.04544 0.0
C407 C 0.75857 0.65286 0.06871 0.0
C408 C 0.78378 0.65476 0.02333 0.0
C409 C 0.8013 0.72387 0.01878 0.0
C410 C 0.77033 0.65141 0.99683 0.0
C411 C 0.77652 0.63525 0.97592 0.0
C412 C 0.79615 0.62182 0.98108 0.0
C413 C 0.80941 0.62485 0.00773 0.0
C414 C 0.80317 0.64114 0.02877 0.0
H415 H 0.81246 0.74962 0.02472 0.0
H416 H 0.82062 0.7187 0.01294 0.0
H417 H 0.7859 0.71996 0.00032 0.0
H418 H 0.75447 0.66084 0.99242 0.0
H419 H 0.7654 0.63284 0.95582 0.0
H420 H 0.36937 0.2016 0.0658 0.0
H421 H 0.33724 0.14699 0.08503 0.0
H422 H 0.33915 0.10675 0.00554 0.0
H423 H 0.37102 0.16033 0.98646 0.0
H424 H 0.27562 0.08137 0.03227 0.0
H425 H 0.37059 0.08065 0.0986 0.0
H426 H 0.36328 0.11395 0.10071 0.0
H427 H 0.38079 0.1083 0.06997 0.0
C428 C 0.36292 0.18105 0.05252 0.0
C429 C 0.37241 0.18532 0.02451 0.0
C430 C 0.34465 0.14996 0.06352 0.0
C431 C 0.33583 0.12295 0.04661 0.0
C432 C 0.34553 0.1273 0.01884 0.0
H433 H 0.28563 0.93053 0.04231 0.0
H434 H 0.3097 0.98873 0.04547 0.0
C435 C 0.36368 0.15805 0.00795 0.0
C436 C 0.31638 0.08971 0.05707 0.0
H437 H 0.32375 0.03109 0.09048 0.0
C438 C 0.28569 0.07039 0.04558 0.0
C439 C 0.32989 0.07565 0.07419 0.0
C440 C 0.36298 0.0955 0.08664 0.0
C441 C 0.2689 0.03697 0.04935 0.0
C442 C 0.28305 0.02262 0.06542 0.0
C443 C 0.31297 0.04221 0.07824 0.0
C444 C 0.26908 0.98725 0.06622 0.0
C445 C 0.23724 0.01711 0.03446 0.0
C446 C 0.23844 0.96706 0.07731 0.0
C447 C 0.22441 0.93363 0.07532 0.0
C448 C 0.2409 0.91983 0.06237 0.0
C449 C 0.27212 0.94023 0.05227 0.0
C450 C 0.28601 0.97356 0.05418 0.0
H451 H 0.23245 0.03147 0.0191 0.0
H452 H 0.23676 0.99653 0.02351 0.0
H453 H 0.21743 0.00732 0.04983 0.0
H454 H 0.22517 0.97715 0.08709 0.0
H455 H 0.20048 0.91866 0.08359 0.0
H456 H 0.98788 0.32304 0.98924 0.0
H457 H 0.93875 0.28597 0.96437 0.0
H458 H 0.96144 0.21024 0.9741 0.0
H459 H 0.01026 0.24692 -0.00028 0.0
H460 H 0.92798 0.25169 0.91688 0.0
H461 H 0.87186 0.16919 0.00603 0.0
H462 H 0.90757 0.20802 0.00969 0.0
H463 H 0.91024 0.17448 0.99626 0.0
C464 C 0.98249 0.29851 0.98612 0.0
C465 C 0.00288 0.28788 0.99678 0.0
C466 C 0.95439 0.27735 0.97183 0.0
C467 C 0.94611 0.24518 0.9678 0.0
C468 C 0.96693 0.23474 0.97758 0.0
H469 H 0.78942 0.11605 0.8561 0.0
H470 H 0.84251 0.15001 0.87685 0.0
C471 C 0.99491 0.25581 0.99212 0.0
C472 C 0.91543 0.2226 0.95375 0.0
H473 H 0.844 0.15329 0.96326 0.0
C474 C 0.90961 0.23013 0.92697 0.0
C475 C 0.89135 0.19469 0.9671 0.0
C476 C 0.89534 0.1862 0.99645 0.0
C477 C 0.88028 0.21062 0.91324 0.0
C478 C 0.85645 0.18242 0.92644 0.0
C479 C 0.8624 0.17478 0.9531 0.0
C480 C 0.82443 0.16137 0.91372 0.0
C481 C 0.87474 0.22101 0.88518 0.0
C482 C 0.79658 0.15566 0.9279 0.0
C483 C 0.76623 0.13582 0.91635 0.0
C484 C 0.76309 0.12127 0.89034 0.0
C485 C 0.791 0.12684 0.8762 0.0
C486 C 0.8214 0.14652 0.8879 0.0
H487 H 0.89165 0.24694 0.88134 0.0
H488 H 0.87858 0.2071 0.86875 0.0
H489 H 0.84977 0.21648 0.88323 0.0
H490 H 0.79833 0.1668 0.94787 0.0
H491 H 0.74525 0.13209 0.92778 0.0
H492 H 0.37601 0.17412 0.48398 0.0
H493 H 0.35383 0.19618 0.45014 0.0
H494 H 0.31576 0.22674 0.51699 0.0
H495 H 0.33816 0.20559 0.55071 0.0
H496 H 0.2885 0.18711 0.44131 0.0
H497 H 0.37983 0.31012 0.47448 0.0
H498 H 0.3831 0.27516 0.48258 0.0
H499 H 0.35726 0.28438 0.50273 0.0
C500 C 0.36251 0.18514 0.49143 0.0
C501 C 0.35905 0.18829 0.52007 0.0
C502 C 0.34984 0.19764 0.47208 0.0
C503 C 0.3336 0.21342 0.48118 0.0
C504 C 0.32857 0.21495 0.50963 0.0
H505 H 0.21692 0.28342 0.41307 0.0
H506 H 0.23764 0.24923 0.42968 0.0
C507 C 0.3413 0.20268 0.52889 0.0
C508 C 0.32391 0.2306 0.46144 0.0
H509 H 0.33572 0.30533 0.44801 0.0
C510 C 0.29903 0.213 0.4424 0.0
C511 C 0.3382 0.2644 0.46257 0.0
C512 C 0.3663 0.28471 0.48149 0.0
C513 C 0.28692 0.22833 0.42539 0.0
C514 C 0.29974 0.26193 0.42797 0.0
C515 C 0.3257 0.27956 0.44608 0.0
C516 C 0.28571 0.27943 0.41365 0.0
C517 C 0.26049 0.20837 0.40498 0.0
C518 C 0.30574 0.3078 0.39904 0.0
C519 C 0.29415 0.32776 0.39009 0.0
C520 C 0.26218 0.31961 0.39537 0.0
C521 C 0.24161 0.29026 0.40853 0.0
C522 C 0.25337 0.27052 0.41784 0.0
H523 H 0.26147 0.18667 0.39853 0.0
H524 H 0.23686 0.20013 0.415 0.0
H525 H 0.26197 0.22241 0.38619 0.0
H526 H 0.33079 0.3152 0.3956 0.0
H527 H 0.31054 0.35009 0.37981 0.0
H528 H 0.87918 0.20945 0.6475 0.0
H529 H 0.84865 0.1551 0.62798 0.0
H530 H 0.84236 0.19485 0.54953 0.0
H531 H 0.87339 0.24897 0.56851 0.0
H532 H 0.78805 0.12364 0.60689 0.0
H533 H 0.87398 0.13506 0.52555 0.0
H534 H 0.88494 0.16385 0.5534 0.0
H535 H 0.86446 0.16661 0.52306 0.0
C536 C 0.87165 0.2066 0.62598 0.0
C537 C 0.879 0.23354 0.60946 0.0
C538 C 0.85413 0.17554 0.61491 0.0
C539 C 0.84378 0.17095 0.58714 0.0
C540 C 0.85085 0.19783 0.57076 0.0
H541 H 0.68632 0.01523 0.50328 0.0
H542 H 0.72132 0.06016 0.53342 0.0
C543 C 0.86845 0.22878 0.58173 0.0
C544 C 0.82442 0.13817 0.57535 0.0
H545 H 0.81922 0.09275 0.51906 0.0
C546 C 0.79505 0.11664 0.58791 0.0
C547 C 0.83386 0.12876 0.55094 0.0
C548 C 0.8662 0.14968 0.53765 0.0
C549 C 0.7741 0.08663 0.57587 0.0
C550 C 0.78242 0.07834 0.55023 0.0
C551 C 0.81255 0.09921 0.53851 0.0
C552 C 0.75984 0.04907 0.53439 0.0
C553 C 0.74328 0.06422 0.59074 0.0
C554 C 0.7699 0.02803 0.52452 0.0
C555 C 0.75018 0.00266 0.50679 0.0
C556 C 0.71989 0.99774 0.49864 0.0
C557 C 0.70939 0.01817 0.5093 0.0
C558 C 0.72931 0.04378 0.52676 0.0
H559 H 0.74582 0.06854 0.6135 0.0
H560 H 0.72392 0.06865 0.58338 0.0
H561 H 0.73579 0.03865 0.58675 0.0
H562 H 0.79338 0.03168 0.53004 0.0
H563 H 0.75895 0.98728 0.49907 0.0
H564 H 0.07676 0.69565 0.40696 0.0
H565 H 0.01819 0.66808 0.40328 0.0
H566 H 0.01978 0.75556 0.427 0.0
H567 H 0.07847 0.78363 0.42895 0.0
H568 H 0.97944 0.65498 0.44218 0.0
H569 H 0.95264 0.72682 0.36943 0.0
H570 H 0.9926 0.73256 0.37301 0.0
H571 H 0.97873 0.75259 0.39619 0.0
C572 C 0.06458 0.70912 0.41083 0.0
C573 C 0.08209 0.74174 0.41829 0.0
C574 C 0.0311 0.69337 0.40867 0.0
C575 C 0.01434 0.70973 0.41446 0.0
C576 C 0.03197 0.74255 0.42145 0.0
H577 H 0.84424 0.63821 0.50378 0.0
H578 H 0.89708 0.66091 0.48339 0.0
C579 C 0.06556 0.75854 0.4229 0.0
C580 C 0.97865 0.6916 0.41678 0.0
H581 H 0.91102 0.69626 0.40398 0.0
C582 C 0.96453 0.66373 0.4332 0.0
C583 C 0.9587 0.70231 0.40472 0.0
C584 C 0.97149 0.73 0.3846 0.0
C585 C 0.93168 0.64769 0.4394 0.0
C586 C 0.91251 0.66048 0.42984 0.0
C587 C 0.92592 0.68689 0.41179 0.0
C588 C 0.87986 0.64887 0.44113 0.0
C589 C 0.91801 0.61763 0.45684 0.0
C590 C 0.85248 0.63593 0.42397 0.0
C591 C 0.82175 0.6234 0.43567 0.0
C592 C 0.81816 0.62379 0.46464 0.0
C593 C 0.84586 0.63771 0.48144 0.0
C594 C 0.87626 0.65041 0.46981 0.0
H595 H 0.93183 0.60495 0.45396 0.0
H596 H 0.91969 0.62428 0.47909 0.0
H597 H 0.8924 0.60079 0.45166 0.0
H598 H 0.85483 0.6348 0.40171 0.0
H599 H 0.80089 0.61281 0.42217 0.0
H600 H 0.26906 0.44545 0.2902 0.0
H601 H 0.25195 0.44919 0.24288 0.0
H602 H 0.18139 0.34819 0.24468 0.0
H603 H 0.19825 0.34428 0.29161 0.0
H604 H 0.21359 0.37273 0.19125 0.0
H605 H 0.16195 0.44336 0.23779 0.0
H606 H 0.20408 0.45762 0.24302 0.0
H607 H 0.17475 0.42077 0.25891 0.0
C608 C 0.25065 0.42387 0.28011 0.0
C609 C 0.23472 0.39465 0.29466 0.0
C610 C 0.24074 0.4261 0.25321 0.0
C611 C 0.21504 0.39907 0.24056 0.0
C612 C 0.20116 0.36935 0.25414 0.0
H613 H 0.0706 0.32636 0.11729 0.0
H614 H 0.11147 0.33771 0.15257 0.0
C615 C 0.2108 0.36717 0.28098 0.0
C616 C 0.19969 0.40186 0.21484 0.0
H617 H 0.14715 0.42532 0.19217 0.0
C618 C 0.19953 0.38473 0.1912 0.0
C619 C 0.18138 0.41754 0.21489 0.0
C620 C 0.18024 0.43578 0.23998 0.0
C621 C 0.1806 0.38189 0.16794 0.0
C622 C 0.16071 0.39585 0.16869 0.0
C623 C 0.16226 0.41447 0.19172 0.0
C624 C 0.13628 0.38931 0.14692 0.0
C625 C 0.18171 0.3635 0.14297 0.0
C626 C 0.13576 0.41462 0.13284 0.0
C627 C 0.1121 0.40822 0.11282 0.0
C628 C 0.08852 0.37633 0.10656 0.0
C629 C 0.08867 0.35114 0.12129 0.0
C630 C 0.11222 0.35757 0.14129 0.0
H631 H 0.20508 0.36404 0.14172 0.0
H632 H 0.16248 0.33799 0.14477 0.0
H633 H 0.17791 0.37338 0.12341 0.0
H634 H 0.15382 0.43932 0.13717 0.0
H635 H 0.11261 0.42822 0.10201 0.0
H636 H 0.56012 0.7222 0.22148 0.0
H637 H 0.55463 0.73901 0.26835 0.0
H638 H 0.65709 0.80368 0.27189 0.0
H639 H 0.66273 0.78672 0.22565 0.0
H640 H 0.63012 0.77794 0.32414 0.0
H641 H 0.56335 0.82845 0.26819 0.0
H642 H 0.54712 0.78568 0.26699 0.0
H643 H 0.58433 0.81184 0.24975 0.0
C644 C 0.58157 0.73899 0.23276 0.0
C645 C 0.6118 0.7536 0.21977 0.0
C646 C 0.57837 0.74881 0.25941 0.0
C647 C 0.60536 0.77324 0.27326 0.0
C648 C 0.6359 0.78498 0.26153 0.0
H649 H 0.69221 0.93592 0.36889 0.0
H650 H 0.67309 0.88515 0.34444 0.0
C651 C 0.63909 0.77531 0.23504 0.0
C652 C 0.60217 0.7906 0.2974 0.0
H653 H 0.5833 0.84878 0.31214 0.0
C654 C 0.61913 0.7928 0.32186 0.0
C655 C 0.58776 0.80998 0.29444 0.0
C656 C 0.56972 0.80917 0.26844 0.0
C657 C 0.62396 0.81543 0.34253 0.0
C658 C 0.61195 0.83665 0.33837 0.0
C659 C 0.59262 0.83255 0.31514 0.0
C660 C 0.62312 0.86609 0.35534 0.0
C661 C 0.64309 0.81739 0.36808 0.0
C662 C 0.60123 0.87272 0.3689 0.0
C663 C 0.61214 0.90192 0.38296 0.0
C664 C 0.64515 0.92502 0.38354 0.0
C665 C 0.66677 0.9184 0.36941 0.0
C666 C 0.65591 0.88927 0.35559 0.0
H667 H 0.64081 0.79371 0.37288 0.0
H668 H 0.6689 0.83473 0.36435 0.0
H669 H 0.63522 0.82569 0.38641 0.0
H670 H 0.57574 0.85537 0.36848 0.0
H671 H 0.59476 0.90632 0.39338 0.0
H672 H 0.26799 0.79601 0.11793 0.0
H673 H 0.27445 0.77801 0.16414 0.0
H674 H 0.18711 0.77429 0.19109 0.0
H675 H 0.18032 0.79171 0.14576 0.0
H676 H 0.2807 0.80646 0.21522 0.0
H677 H 0.17179 0.68724 0.21593 0.0
H678 H 0.18863 0.70934 0.1842 0.0
H679 H 0.16147 0.71651 0.20475 0.0
C680 C 0.25015 0.79122 0.13372 0.0
C681 C 0.22352 0.7951 0.12799 0.0
C682 C 0.25379 0.78079 0.16002 0.0
C683 C 0.23069 0.77381 0.18076 0.0
C684 C 0.20461 0.77836 0.17514 0.0
H685 H 0.21704 0.81294 0.33874 0.0
H686 H 0.23206 0.80858 0.29181 0.0
C687 C 0.20097 0.7887 0.14915 0.0
C688 C 0.23429 0.76422 0.2092 0.0
H689 H 0.18733 0.71526 0.2612 0.0
C690 C 0.2608 0.78591 0.22515 0.0
C691 C 0.20891 0.73686 0.22213 0.0
C692 C 0.18131 0.711 0.20571 0.0
C693 C 0.26057 0.78315 0.25416 0.0
C694 C 0.23282 0.75861 0.2674 0.0
C695 C 0.20829 0.73457 0.25117 0.0
C696 C 0.22605 0.76113 0.29704 0.0
C697 C 0.28925 0.80772 0.27044 0.0
C698 C 0.21647 0.73535 0.31559 0.0
C699 C 0.20732 0.73758 0.3428 0.0
C700 C 0.20726 0.76549 0.35167 0.0
C701 C 0.21685 0.79107 0.33287 0.0
C702 C 0.22593 0.78883 0.30596 0.0
H703 H 0.31184 0.81523 0.25879 0.0
H704 H 0.2871 0.82946 0.27363 0.0
H705 H 0.29103 0.7983 0.29101 0.0
H706 H 0.21582 0.71349 0.30895 0.0
H707 H 0.20003 0.71743 0.35672 0.0
H708 H 0.78005 0.63312 0.82241 0.0
H709 H 0.76108 0.62071 0.77477 0.0
H710 H 0.76875 0.53507 0.7774 0.0
H711 H 0.78828 0.54751 0.82549 0.0
H712 H 0.79436 0.57062 0.72998 0.0
H713 H 0.67291 0.55301 0.74707 0.0
H714 H 0.7033 0.59046 0.76146 0.0
H715 H 0.69796 0.55322 0.7752 0.0
C716 C 0.7777 0.61155 0.81303 0.0
C717 C 0.78553 0.59119 0.82793 0.0
C718 C 0.7665 0.60434 0.7858 0.0
C719 C 0.76254 0.57646 0.77283 0.0
C720 C 0.77113 0.55644 0.78724 0.0
H721 H 0.70641 0.54015 0.59505 0.0
H722 H 0.70402 0.52717 0.64476 0.0
C723 C 0.78246 0.56369 0.81463 0.0
C724 C 0.75126 0.56973 0.74364 0.0
H725 H 0.69402 0.56803 0.70021 0.0
C726 C 0.77199 0.56912 0.72351 0.0
C727 C 0.72191 0.56749 0.73521 0.0
C728 C 0.6976 0.56572 0.75594 0.0
C729 C 0.76536 0.56894 0.69513 0.0
C730 C 0.7374 0.56948 0.68678 0.0
C731 C 0.71552 0.56779 0.70679 0.0
C732 C 0.73343 0.57666 0.65776 0.0
C733 C 0.78921 0.57023 0.67413 0.0
C734 C 0.74965 0.60874 0.64906 0.0
C735 C 0.75113 0.61615 0.62098 0.0
C736 C 0.73625 0.59159 0.60107 0.0
C737 C 0.71786 0.55953 0.61 0.0
C738 C 0.71661 0.55208 0.63828 0.0
H739 H 0.80729 0.56513 0.68365 0.0
H740 H 0.77655 0.55265 0.65719 0.0
H741 H 0.80204 0.59455 0.6647 0.0
H742 H 0.76266 0.62797 0.6639 0.0
H743 H 0.76535 0.64106 0.6147 0.0
H744 H 0.47067 0.28409 0.89561 0.0
H745 H 0.48162 0.28299 0.84585 0.0
H746 H 0.38321 0.25512 0.8269 0.0
H747 H 0.37228 0.25581 0.87621 0.0
H748 H 0.44642 0.22381 0.81713 0.0
H749 H 0.4331 0.3187 0.76458 0.0
H750 H 0.44237 0.32034 0.80115 0.0
H751 H 0.4015 0.29681 0.78909 0.0
C752 C 0.4519 0.27919 0.88062 0.0
C753 C 0.42072 0.27028 0.88952 0.0
C754 C 0.45807 0.27831 0.8523 0.0
C755 C 0.43329 0.26922 0.83268 0.0
C756 C 0.40286 0.26282 0.84157 0.0
H757 H 0.35121 0.18277 0.68253 0.0
H758 H 0.36891 0.20678 0.72833 0.0
C759 C 0.3966 0.26319 0.86974 0.0
C760 C 0.43695 0.26107 0.80378 0.0
H761 H 0.41962 0.27115 0.73716 0.0
C762 C 0.44153 0.23471 0.79946 0.0
C763 C 0.43048 0.27529 0.78086 0.0
C764 C 0.4269 0.30457 0.7841 0.0
C765 C 0.43706 0.22048 0.77312 0.0
C766 C 0.42826 0.23333 0.7506 0.0
C767 C 0.42605 0.26114 0.75456 0.0
C768 C 0.41774 0.21648 0.72357 0.0
C769 C 0.43949 0.19052 0.76997 0.0
C770 C 0.43916 0.21318 0.70596 0.0
C771 C 0.429 0.19914 0.67966 0.0
C772 C 0.39737 0.18852 0.67056 0.0
C773 C 0.37578 0.19083 0.68878 0.0
C774 C 0.38588 0.20467 0.71495 0.0
H775 H 0.44213 0.18112 0.79028 0.0
H776 H 0.41784 0.17141 0.75925 0.0
H777 H 0.46072 0.19598 0.75707 0.0
H778 H 0.46395 0.22241 0.71215 0.0
H779 H 0.4463 0.19796 0.66605 0.0
H780 H 0.68178 0.09286 0.80629 0.0
H781 H 0.72132 0.1458 0.78805 0.0
H782 H 0.7787 0.10637 0.75753 0.0
H783 H 0.73972 0.05362 0.77597 0.0
H784 H 0.79421 0.17767 0.8039 0.0
H785 H 0.76517 0.15914 0.69119 0.0
H786 H 0.73581 0.13693 0.71776 0.0
H787 H 0.76602 0.12678 0.70929 0.0
C788 C 0.7026 0.09536 0.7954 0.0
C789 C 0.70784 0.06912 0.79276 0.0
C790 C 0.72516 0.12561 0.78509 0.0
C791 C 0.75275 0.1298 0.77144 0.0
C792 C 0.75741 0.10347 0.7679 0.0
H793 H 0.94209 0.27028 0.73221 0.0
H794 H 0.89193 0.22861 0.75267 0.0
C795 C 0.73519 0.07343 0.77847 0.0
C796 C 0.7779 0.16192 0.76213 0.0
H797 H 0.81552 0.20419 0.70386 0.0
C798 C 0.79859 0.18383 0.78207 0.0
C799 C 0.78338 0.16973 0.73368 0.0
C800 C 0.76135 0.14707 0.71163 0.0
C801 C 0.82571 0.21282 0.77415 0.0
C802 C 0.83217 0.21987 0.74561 0.0
C803 C 0.81048 0.1987 0.72574 0.0
C804 C 0.86278 0.24732 0.7358 0.0
C805 C 0.84772 0.23526 0.79633 0.0
C806 C 0.86299 0.27169 0.71958 0.0
C807 C 0.89172 0.29569 0.70795 0.0
C808 C 0.92053 0.29521 0.71196 0.0
C809 C 0.92026 0.27122 0.72881 0.0
C810 C 0.89168 0.24752 0.74061 0.0
H811 H 0.83518 0.23103 0.81656 0.0
H812 H 0.86829 0.2311 0.79924 0.0
H813 H 0.85742 0.26075 0.79025 0.0
H814 H 0.84082 0.27172 0.71545 0.0
H815 H 0.89108 0.31373 0.69492 0.0
H816 H 0.06132 0.45009 0.93216 0.0
H817 H 0.02514 0.46926 0.91646 0.0
H818 H 0.97678 0.44341 0.99542 0.0
H819 H 0.01268 0.42442 0.01134 0.0
H820 H 0.93644 0.41993 0.9427 0.0
H821 H 0.02297 0.5517 0.94796 0.0
H822 H 0.03548 0.52593 0.93174 0.0
H823 H 0.02847 0.52328 0.9684 0.0
C824 C 0.04309 0.44864 0.94622 0.0
C825 C 0.03994 0.43578 0.97302 0.0
C826 C 0.02252 0.45965 0.93723 0.0
C827 C 0.99844 0.4578 0.95486 0.0
C828 C 0.99528 0.44505 0.98156 0.0
H829 H 0.84214 0.49283 0.96581 0.0
H830 H 0.87994 0.47302 0.96803 0.0
C831 C 0.0159 0.43429 0.99062 0.0
C832 C 0.97591 0.46849 0.94556 0.0
H833 H 0.96946 0.53545 0.93614 0.0
C834 C 0.94366 0.44516 0.94096 0.0
C835 C 0.98556 0.50139 0.9431 0.0
C836 C 0.01995 0.52721 0.94812 0.0
C837 C 0.92054 0.45392 0.93461 0.0
C838 C 0.92982 0.48688 0.93353 0.0
C839 C 0.96237 0.5102 0.93704 0.0
C840 C 0.90586 0.49764 0.93093 0.0
C841 C 0.88634 0.42775 0.92927 0.0
C842 C 0.90814 0.51855 0.90957 0.0
C843 C 0.88659 0.53016 0.90832 0.0
C844 C 0.86257 0.52125 0.9286 0.0
C845 C 0.8602 0.50004 0.94976 0.0
C846 C 0.88169 0.4885 0.95098 0.0
H847 H 0.88531 0.40537 0.92179 0.0
H848 H 0.87258 0.42203 0.94893 0.0
H849 H 0.87441 0.43539 0.91372 0.0
H850 H 0.92677 0.5261 0.89401 0.0
H851 H 0.88918 0.54658 0.89183 0.0
H852 H 0.55463 0.61096 0.13882 0.0
H853 H 0.5398 0.55581 0.12618 0.0
H854 H 0.48724 0.56039 0.05529 0.0
H855 H 0.50128 0.61503 0.06803 0.0
H856 H 0.4547 0.50286 0.08248 0.0
H857 H 0.58078 0.53352 0.06256 0.0
H858 H 0.57373 0.54323 0.09686 0.0
H859 H 0.56947 0.5638 0.06743 0.0
C860 C 0.53963 0.6001 0.12071 0.0
C861 C 0.52934 0.61753 0.10433 0.0
C862 C 0.53142 0.56868 0.11337 0.0
C863 C 0.51302 0.55423 0.08943 0.0
C864 C 0.50167 0.57112 0.07373 0.0
H865 H 0.44662 0.37916 0.99389 0.0
H866 H 0.46079 0.43253 0.01134 0.0
C867 C 0.50974 0.60241 0.08108 0.0
C868 C 0.50582 0.52174 0.08031 0.0
H869 H 0.54084 0.47873 0.05844 0.0
C870 C 0.47354 0.49759 0.07724 0.0
C871 C 0.53044 0.51492 0.07338 0.0
C872 C 0.56556 0.54026 0.07495 0.0
C873 C 0.4652 0.46678 0.06758 0.0
C874 C 0.4898 0.46006 0.06049 0.0
C875 C 0.52207 0.48402 0.06388 0.0
C876 C 0.48243 0.42829 0.04937 0.0
C877 C 0.43012 0.44154 0.06529 0.0
C878 C 0.49078 0.40864 0.06458 0.0
C879 C 0.48277 0.37815 0.05466 0.0
C880 C 0.46651 0.36686 0.02919 0.0
C881 C 0.45907 0.38706 0.0136 0.0
C882 C 0.46696 0.41749 0.02361 0.0
H883 H 0.41461 0.44812 0.07743 0.0
H884 H 0.42255 0.43891 0.04322 0.0
H885 H 0.42603 0.41787 0.07263 0.0
H886 H 0.50292 0.41665 0.08441 0.0
H887 H 0.48897 0.36328 0.06715 0.0
H888 H 0.32153 0.84471 0.95214 0.0
H889 H 0.37698 0.87655 0.93652 0.0
H890 H 0.40627 0.91619 0.01878 0.0
H891 H 0.35043 0.88477 0.03456 0.0
H892 H 0.43079 0.96242 0.97854 0.0
H893 H 0.45243 0.86311 0.9502 0.0
H894 H 0.41733 0.85959 0.93363 0.0
H895 H 0.41847 0.85685 0.97083 0.0
C896 C 0.33975 0.85993 0.96706 0.0
C897 C 0.33152 0.86209 0.99466 0.0
C898 C 0.37153 0.87799 0.9581 0.0
C899 C 0.3959 0.89834 0.97658 0.0
C900 C 0.38787 0.90046 0.00421 0.0
H901 H 0.60121 0.02805 0.95358 0.0
H902 H 0.54718 0.99606 0.97281 0.0
C903 C 0.35597 0.88245 0.01321 0.0
C904 C 0.42939 0.91852 0.96656 0.0
H905 H 0.49017 0.91521 0.93283 0.0
C906 C 0.44391 0.95209 0.96881 0.0
C907 C 0.44649 0.90502 0.95386 0.0
C908 C 0.43302 0.86916 0.95222 0.0
C909 C 0.47468 0.97251 0.95799 0.0
C910 C 0.49138 0.95897 0.94474 0.0
C911 C 0.47711 0.92546 0.9428 0.0
C912 C 0.52388 0.97922 0.93296 0.0
C913 C 0.48888 0.00842 0.96019 0.0
C914 C 0.52863 0.98016 0.90418 0.0
C915 C 0.55948 0.99854 0.89306 0.0
C916 C 0.58615 0.01597 0.91062 0.0
C917 C 0.58121 0.01498 0.93946 0.0
C918 C 0.55035 0.9968 0.95051 0.0
H919 H 0.47068 0.01505 0.9664 0.0
H920 H 0.50834 0.01808 0.976 0.0
H921 H 0.49961 0.02016 0.94009 0.0
H922 H 0.50845 0.96659 0.89034 0.0
H923 H 0.56248 0.99865 0.87079 0.0
H924 H 0.56563 0.94748 0.54605 0.0
H925 H 0.54214 0.97955 0.56267 0.0
H926 H 0.55617 0.02327 0.48201 0.0
H927 H 0.57942 0.99139 0.46515 0.0
H928 H 0.58083 0.06668 0.53273 0.0
H929 H 0.45225 0.96997 0.53694 0.0
H930 H 0.4823 0.96215 0.55144 0.0
H931 H 0.48092 0.96706 0.51469 0.0
C932 C 0.56353 0.96378 0.5318 0.0
C933 C 0.57437 0.96684 0.50426 0.0
C934 C 0.55006 0.98199 0.54132 0.0
C935 C 0.54736 0.00361 0.52349 0.0
C936 C 0.55802 0.00664 0.49603 0.0
H937 H 0.49051 0.14557 0.51842 0.0
H938 H 0.51503 0.11205 0.513 0.0
C939 C 0.57123 0.98832 0.48645 0.0
C940 C 0.53427 0.0239 0.53343 0.0
H941 H 0.46411 0.02239 0.54841 0.0
C942 C 0.55536 0.05703 0.5364 0.0
C943 C 0.50111 0.01109 0.5384 0.0
C944 C 0.47761 0.97565 0.53515 0.0
C945 C 0.54403 0.07788 0.54372 0.0
C946 C 0.51064 0.06531 0.54748 0.0
C947 C 0.48969 0.03198 0.54545 0.0
C948 C 0.49678 0.08652 0.55169 0.0
C949 C 0.56796 0.11318 0.54732 0.0
C950 C 0.47784 0.08294 0.57504 0.0
C951 C 0.46356 0.10201 0.57815 0.0
C952 C 0.46777 0.12481 0.55781 0.0
C953 C 0.48692 0.12842 0.53457 0.0
C954 C 0.50114 0.10938 0.5315 0.0
H955 H 0.59225 0.11723 0.55258 0.0
H956 H 0.5699 0.12587 0.52755 0.0
H957 H 0.5603 0.12403 0.56384 0.0
H958 H 0.47398 0.06526 0.59077 0.0
H959 H 0.44881 0.09851 0.59623 0.0
H960 H 0.0017 0.43235 0.61993 0.0
H961 H 0.03668 0.48318 0.5962 0.0
H962 H 0.97954 0.44654 0.52183 0.0
H963 H 0.94442 0.39573 0.5453 0.0
H964 H 0.07189 0.48915 0.54522 0.0
H965 H 0.98725 0.53592 0.53467 0.0
H966 H 0.98125 0.50529 0.55954 0.0
H967 H 0.97236 0.49515 0.5235 0.0
C968 C 0.99631 0.43524 0.59864 0.0
C969 C 0.97022 0.40999 0.58453 0.0
C970 C 0.01639 0.46424 0.5851 0.0
C971 C 0.01053 0.46865 0.55735 0.0
C972 C 0.98422 0.44375 0.54336 0.0
H973 H 0.1082 0.63328 0.446 0.0
H974 H 0.07282 0.57935 0.46461 0.0
C975 C 0.96424 0.41469 0.55681 0.0
C976 C 0.03273 0.49878 0.54268 0.0
H977 H 0.03758 0.56535 0.51255 0.0
C978 C 0.06445 0.50587 0.53809 0.0
C979 C 0.02279 0.52028 0.53315 0.0
C980 C 0.98914 0.51404 0.53807 0.0
C981 C 0.08658 0.53397 0.52416 0.0
C982 C 0.07687 0.55588 0.51516 0.0
C983 C 0.04497 0.54851 0.5194 0.0
C984 C 0.09981 0.58741 0.5027 0.0
C985 C 0.12 0.53969 0.51892 0.0
C986 C 0.12682 0.60973 0.51782 0.0
C987 C 0.14711 0.64041 0.50723 0.0
C988 C 0.14064 0.64958 0.48136 0.0
C989 C 0.11395 0.62695 0.46592 0.0
C990 C 0.09365 0.59617 0.47656 0.0
H991 H 0.12047 0.51679 0.51891 0.0
H992 H 0.12952 0.552 0.49878 0.0
H993 H 0.13628 0.55511 0.5357 0.0
H994 H 0.13168 0.6038 0.53829 0.0
H995 H 0.16733 0.65725 0.51975 0.0
H996 H 0.38933 0.50688 0.43464 0.0
H997 H 0.44409 0.51895 0.44468 0.0
H998 H 0.43884 0.45732 0.3774 0.0
H999 H 0.38373 0.44493 0.36712 0.0
H1000 H 0.46025 0.46915 0.45813 0.0
H1001 H 0.52651 0.54346 0.3667 0.0
H1002 H 0.48814 0.5382 0.37741 0.0
H1003 H 0.49003 0.50616 0.36003 0.0
C1004 C 0.39987 0.49617 0.42167 0.0
C1005 C 0.38207 0.47488 0.40007 0.0
C1006 C 0.43118 0.50307 0.42752 0.0
C1007 C 0.44552 0.48912 0.41175 0.0
C1008 C 0.42829 0.4686 0.38963 0.0
H1009 H 0.63699 0.51115 0.42603 0.0
H1010 H 0.58201 0.49483 0.41162 0.0
C1011 C 0.39681 0.46154 0.38381 0.0
C1012 C 0.47779 0.49475 0.41966 0.0
H1013 H 0.55628 0.53226 0.39927 0.0
C1014 C 0.48127 0.48288 0.44526 0.0
C1015 C 0.50503 0.5124 0.4027 0.0
C1016 C 0.50253 0.52604 0.37522 0.0
C1017 C 0.51135 0.4883 0.45444 0.0
C1018 C 0.53886 0.50682 0.43788 0.0
C1019 C 0.53523 0.51815 0.412 0.0
C1020 C 0.57172 0.51547 0.44734 0.0
C1021 C 0.51324 0.47371 0.48162 0.0
C1022 C 0.58429 0.53257 0.4722 0.0
C1023 C 0.61561 0.54168 0.48062 0.0
C1024 C 0.6352 0.53431 0.46414 0.0
C1025 C 0.62254 0.51716 0.43926 0.0
C1026 C 0.59113 0.50787 0.43094 0.0
H1027 H 0.48973 0.45249 0.48711 0.0
H1028 H 0.53167 0.46621 0.48089 0.0
H1029 H 0.51984 0.49178 0.49841 0.0
H1030 H 0.57011 0.53944 0.48486 0.0
H1031 H 0.62469 0.55517 0.49974 0.0
loop_
_geom_bond_atom_site_label_1
_geom_bond_atom_site_label_2
_geom_bond_distance
_geom_bond_site_symmetry_2
_ccdc_geom_bond_type
Mg0 O1 2.028 . S
Mg0 O7 1.986 . S
Mg0 O9 2.114 . S
Mg0 O10 2.251 . S
Mg0 O13 2.010 . S
O1 Mg0 2.028 . S
O1 C4 1.250 . S
O2 Mg3 2.028 . S
O2 C4 1.248 . S
Mg3 O2 2.028 . S
Mg3 O8 2.032 . S
Mg3 O10 2.079 . S
C4 O1 1.250 . S
C4 O2 1.248 . S
C5 O6 1.264 . S
C5 O13 1.249 . S
O6 C5 1.264 . S
O7 Mg0 1.986 . S
O7 C11 1.246 . S
O8 Mg3 2.032 . S
O8 C11 1.259 . S
O9 Mg0 2.114 . S
O9 C12 1.252 . S
O10 Mg0 2.251 . S
O10 Mg3 2.079 . S
O10 C12 1.273 . S
C11 O7 1.246 . S
C11 O8 1.259 . S
C12 O9 1.252 . S
C12 O10 1.273 . S
O13 Mg0 2.010 . S
O13 C5 1.249 . S
Mg14 O15 2.028 . S
Mg14 O21 1.986 . S
Mg14 O23 2.114 . S
Mg14 O24 2.251 . S
Mg14 O27 2.010 . S
O15 Mg14 2.028 . S
O15 C18 1.250 . S
O16 Mg17 2.028 . S
O16 C18 1.248 . S
Mg17 O16 2.028 . S
Mg17 O22 2.032 . S
Mg17 O24 2.079 . S
C18 O15 1.250 . S
C18 O16 1.248 . S
C19 O20 1.264 . S
C19 O27 1.249 . S
O20 C19 1.264 . S
O21 Mg14 1.986 . S
O21 C25 1.246 . S
O22 Mg17 2.032 . S
O22 C25 1.259 . S
O23 Mg14 2.114 . S
O23 C26 1.252 . S
O24 Mg14 2.251 . S
O24 Mg17 2.079 . S
O24 C26 1.273 . S
C25 O21 1.246 . S
C25 O22 1.259 . S
C26 O23 1.252 . S
C26 O24 1.273 . S
O27 Mg14 2.010 . S
O27 C19 1.249 . S
Mg28 O29 2.028 . S
Mg28 O35 1.986 . S
Mg28 O37 2.114 . S
Mg28 O38 2.251 . S
Mg28 O41 2.010 . S
O29 Mg28 2.028 . S
O29 C32 1.250 . S
O30 Mg31 2.028 . S
O30 C32 1.248 . S
Mg31 O30 2.028 . S
Mg31 O36 2.032 . S
Mg31 O38 2.079 . S
C32 O29 1.250 . S
C32 O30 1.248 . S
C33 O34 1.264 . S
C33 O41 1.249 . S
O34 C33 1.264 . S
O35 Mg28 1.986 . S
O35 C39 1.246 . S
O36 Mg31 2.032 . S
O36 C39 1.259 . S
O37 Mg28 2.114 . S
O37 C40 1.252 . S
O38 Mg28 2.251 . S
O38 Mg31 2.079 . S
O38 C40 1.273 . S
C39 O35 1.246 . S
C39 O36 1.259 . S
C40 O37 1.252 . S
C40 O38 1.273 . S
O41 Mg28 2.010 . S
O41 C33 1.249 . S
Mg42 O43 2.028 . S
Mg42 O49 1.986 . S
Mg42 O51 2.114 . S
Mg42 O52 2.251 . S
Mg42 O55 2.010 . S
O43 Mg42 2.028 . S
O43 C46 1.250 . S
O44 Mg45 2.028 . S
O44 C46 1.248 . S
Mg45 O44 2.028 . S
Mg45 O50 2.032 . S
Mg45 O52 2.079 . S
C46 O43 1.250 . S
C46 O44 1.248 . S
C47 O48 1.264 . S
C47 O55 1.249 . S
O48 C47 1.264 . S
O49 Mg42 1.986 . S
O49 C53 1.246 . S
O50 Mg45 2.032 . S
O50 C53 1.259 . S
O51 Mg42 2.114 . S
O51 C54 1.252 . S
O52 Mg42 2.251 . S
O52 Mg45 2.079 . S
O52 C54 1.273 . S
C53 O49 1.246 . S
C53 O50 1.259 . S
C54 O51 1.252 . S
C54 O52 1.273 . S
O55 Mg42 2.010 . S
O55 C47 1.249 . S
Mg56 O57 2.028 . S
Mg56 O63 1.986 . S
Mg56 O65 2.114 . S
Mg56 O66 2.251 . S
Mg56 O69 2.010 . S
O57 Mg56 2.028 . S
O57 C60 1.250 . S
O58 Mg59 2.028 . S
O58 C60 1.248 . S
Mg59 O58 2.028 . S
Mg59 O64 2.032 . S
Mg59 O66 2.079 . S
C60 O57 1.250 . S
C60 O58 1.248 . S
C61 O62 1.264 . S
C61 O69 1.249 . S
O62 C61 1.264 . S
O63 Mg56 1.986 . S
O63 C67 1.246 . S
O64 Mg59 2.032 . S
O64 C67 1.259 . S
O65 Mg56 2.114 . S
O65 C68 1.252 . S
O66 Mg56 2.251 . S
O66 Mg59 2.079 . S
O66 C68 1.273 . S
C67 O63 1.246 . S
C67 O64 1.259 . S
C68 O65 1.252 . S
C68 O66 1.273 . S
O69 Mg56 2.010 . S
O69 C61 1.249 . S
Mg70 O71 2.028 . S
Mg70 O77 1.986 . S
Mg70 O79 2.114 . S
Mg70 O80 2.251 . S
Mg70 O83 2.010 . S
O71 Mg70 2.028 . S
O71 C74 1.250 . S
O72 Mg73 2.028 . S
O72 C74 1.248 . S
Mg73 O72 2.028 . S
Mg73 O78 2.032 . S
Mg73 O80 2.079 . S
C74 O71 1.250 . S
C74 O72 1.248 . S
C75 O76 1.264 . S
C75 O83 1.249 . S
O76 C75 1.264 . S
O77 Mg70 1.986 . S
O77 C81 1.246 . S
O78 Mg73 2.032 . S
O78 C81 1.259 . S
O79 Mg70 2.114 . S
O79 C82 1.252 . S
O80 Mg70 2.251 . S
O80 Mg73 2.079 . S
O80 C82 1.273 . S
C81 O77 1.246 . S
C81 O78 1.259 . S
C82 O79 1.252 . S
C82 O80 1.273 . S
O83 Mg70 2.010 . S
O83 C75 1.249 . S
Mg84 O85 2.028 . S
Mg84 O91 1.986 . S
Mg84 O93 2.114 . S
Mg84 O94 2.251 . S
Mg84 O97 2.010 . S
O85 Mg84 2.028 . S
O85 C88 1.250 . S
O86 Mg87 2.028 . S
O86 C88 1.248 . S
Mg87 O86 2.028 . S
Mg87 O92 2.032 . S
Mg87 O94 2.079 . S
C88 O85 1.250 . S
C88 O86 1.248 . S
C89 O90 1.264 . S
C89 O97 1.249 . S
O90 C89 1.264 . S
O91 Mg84 1.986 . S
O91 C95 1.246 . S
O92 Mg87 2.032 . S
O92 C95 1.259 . S
O93 Mg84 2.114 . S
O93 C96 1.252 . S
O94 Mg84 2.251 . S
O94 Mg87 2.079 . S
O94 C96 1.273 . S
C95 O91 1.246 . S
C95 O92 1.259 . S
C96 O93 1.252 . S
C96 O94 1.273 . S
O97 Mg84 2.010 . S
O97 C89 1.249 . S
Mg98 O99 2.028 . S
Mg98 O105 1.986 . S
Mg98 O107 2.114 . S
Mg98 O108 2.251 . S
Mg98 O111 2.010 . S
O99 Mg98 2.028 . S
O99 C102 1.250 . S
O100 Mg101 2.028 . S
O100 C102 1.248 . S
Mg101 O100 2.028 . S
Mg101 O106 2.032 . S
Mg101 O108 2.079 . S
C102 O99 1.250 . S
C102 O100 1.248 . S
C103 O104 1.264 . S
C103 O111 1.249 . S
O104 C103 1.264 . S
O105 Mg98 1.986 . S
O105 C109 1.246 . S
O106 Mg101 2.032 . S
O106 C109 1.259 . S
O107 Mg98 2.114 . S
O107 C110 1.252 . S
O108 Mg98 2.251 . S
O108 Mg101 2.079 . S
O108 C110 1.273 . S
C109 O105 1.246 . S
C109 O106 1.259 . S
C110 O107 1.252 . S
C110 O108 1.273 . S
O111 Mg98 2.010 . S
O111 C103 1.249 . S
Mg112 O113 2.028 . S
Mg112 O119 1.986 . S
Mg112 O121 2.114 . S
Mg112 O122 2.251 . S
Mg112 O125 2.010 . S
O113 Mg112 2.028 . S
O113 C116 1.250 . S
O114 Mg115 2.028 . S
O114 C116 1.248 . S
Mg115 O114 2.028 . S
Mg115 O120 2.032 . S
Mg115 O122 2.079 . S
C116 O113 1.250 . S
C116 O114 1.248 . S
C117 O118 1.264 . S
C117 O125 1.249 . S
O118 C117 1.264 . S
O119 Mg112 1.986 . S
O119 C123 1.246 . S
O120 Mg115 2.032 . S
O120 C123 1.259 . S
O121 Mg112 2.114 . S
O121 C124 1.252 . S
O122 Mg112 2.251 . S
O122 Mg115 2.079 . S
O122 C124 1.273 . S
C123 O119 1.246 . S
C123 O120 1.259 . S
C124 O121 1.252 . S
C124 O122 1.273 . S
O125 Mg112 2.010 . S
O125 C117 1.249 . S
Mg126 O127 2.028 . S
Mg126 O133 1.986 . S
Mg126 O135 2.114 . S
Mg126 O136 2.251 . S
Mg126 O139 2.010 . S
O127 Mg126 2.028 . S
O127 C130 1.250 . S
O128 Mg129 2.028 . S
O128 C130 1.248 . S
Mg129 O128 2.028 . S
Mg129 O134 2.032 . S
Mg129 O136 2.079 . S
C130 O127 1.250 . S
C130 O128 1.248 . S
C131 O132 1.264 . S
C131 O139 1.249 . S
O132 C131 1.264 . S
O133 Mg126 1.986 . S
O133 C137 1.246 . S
O134 Mg129 2.032 . S
O134 C137 1.259 . S
O135 Mg126 2.114 . S
O135 C138 1.252 . S
O136 Mg126 2.251 . S
O136 Mg129 2.079 . S
O136 C138 1.273 . S
C137 O133 1.246 . S
C137 O134 1.259 . S
C138 O135 1.252 . S
C138 O136 1.273 . S
O139 Mg126 2.010 . S
O139 C131 1.249 . S
Mg140 O141 2.028 . S
Mg140 O147 1.986 . S
Mg140 O149 2.114 . S
Mg140 O150 2.251 . S
Mg140 O153 2.010 . S
O141 Mg140 2.028 . S
O141 C144 1.250 . S
O142 Mg143 2.028 . S
O142 C144 1.248 . S
Mg143 O142 2.028 . S
Mg143 O148 2.032 . S
Mg143 O150 2.079 . S
C144 O141 1.250 . S
C144 O142 1.248 . S
C145 O146 1.264 . S
C145 O153 1.249 . S
O146 C145 1.264 . S
O147 Mg140 1.986 . S
O147 C151 1.246 . S
O148 Mg143 2.032 . S
O148 C151 1.259 . S
O149 Mg140 2.114 . S
O149 C152 1.252 . S
O150 Mg140 2.251 . S
O150 Mg143 2.079 . S
O150 C152 1.273 . S
C151 O147 1.246 . S
C151 O148 1.259 . S
C152 O149 1.252 . S
C152 O150 1.273 . S
O153 Mg140 2.010 . S
O153 C145 1.249 . S
Mg154 O155 2.028 . S
Mg154 O161 1.986 . S
Mg154 O163 2.114 . S
Mg154 O164 2.251 . S
Mg154 O167 2.010 . S
O155 Mg154 2.028 . S
O155 C158 1.250 . S
O156 Mg157 2.028 . S
O156 C158 1.248 . S
Mg157 O156 2.028 . S
Mg157 O162 2.032 . S
Mg157 O164 2.079 . S
C158 O155 1.250 . S
C158 O156 1.248 . S
C159 O160 1.264 . S
C159 O167 1.249 . S
O160 C159 1.264 . S
O161 Mg154 1.986 . S
O161 C165 1.246 . S
O162 Mg157 2.032 . S
O162 C165 1.259 . S
O163 Mg154 2.114 . S
O163 C166 1.252 . S
O164 Mg154 2.251 . S
O164 Mg157 2.079 . S
O164 C166 1.273 . S
C165 O161 1.246 . S
C165 O162 1.259 . S
C166 O163 1.252 . S
C166 O164 1.273 . S
O167 Mg154 2.010 . S
O167 C159 1.249 . S
H168 C176 0.929 . S
H169 C178 0.930 1_556 S
H170 C180 0.930 . S
H171 C183 0.929 . S
H172 C186 0.930 . S
H173 C188 0.960 . S
H174 C188 0.960 . S
H175 C188 0.960 . S
C176 H168 0.929 . S
C176 C177 1.377 . S
C176 C178 1.384 . S
C177 C176 1.377 . S
C177 C183 1.390 . S
C178 H169 0.930 1_554 S
C178 C176 1.384 . S
C178 C179 1.372 . S
C179 C178 1.372 . S
C179 C180 1.400 . S
C179 C184 1.479 1_554 S
C180 H170 0.930 . S
C180 C179 1.400 . S
C180 C183 1.386 . S
H181 C197 0.930 . S
H182 C198 0.931 . S
C183 H171 0.929 . S
C183 C177 1.390 . S
C183 C180 1.386 . S
C184 C179 1.479 1_556 S
C184 C186 1.392 1_556 S
C184 C187 1.418 . S
H185 C191 0.930 . S
C186 H172 0.930 . S
C186 C184 1.392 1_554 S
C186 C189 1.403 1_554 S
C187 C184 1.418 . S
C187 C188 1.524 . S
C187 C191 1.400 . S
C188 H173 0.960 . S
C188 H174 0.960 . S
C188 H175 0.960 . S
C188 C187 1.524 . S
C189 C186 1.403 1_556 S
C189 C190 1.392 . S
C189 C193 1.495 . S
C190 C189 1.392 . S
C190 C191 1.385 . S
C190 C192 1.478 . S
C191 H185 0.930 . S
C191 C187 1.400 . S
C191 C190 1.385 . S
C192 C190 1.478 . S
C192 C194 1.381 . S
C192 C198 1.383 . S
C193 C189 1.495 . S
C193 H199 0.959 1_556 S
C193 H200 0.961 1_556 S
C193 H201 0.960 . S
C194 C192 1.381 . S
C194 C195 1.394 . S
C194 H202 0.930 . S
C195 C194 1.394 . S
C195 C196 1.383 . S
C195 H203 0.929 . S
C196 C195 1.383 . S
C196 C197 1.377 . S
C197 H181 0.930 . S
C197 C196 1.377 . S
C197 C198 1.379 . S
C198 H182 0.931 . S
C198 C192 1.383 . S
C198 C197 1.379 . S
H199 C193 0.959 1_554 S
H200 C193 0.961 1_554 S
H201 C193 0.960 . S
H202 C194 0.930 . S
H203 C195 0.929 . S
H204 C212 0.929 . S
H205 C214 0.930 . S
H206 C216 0.930 . S
H207 C219 0.929 . S
H208 C222 0.930 . S
H209 C224 0.960 . S
H210 C224 0.960 . S
H211 C224 0.960 . S
C212 H204 0.929 . S
C212 C213 1.377 . S
C212 C214 1.384 1_554 S
C213 C212 1.377 . S
C213 C219 1.390 . S
C214 H205 0.930 . S
C214 C212 1.384 1_556 S
C214 C215 1.372 1_556 S
C215 C214 1.372 1_554 S
C215 C216 1.400 . S
C215 C220 1.490 1_554 S
C216 H206 0.930 . S
C216 C215 1.400 . S
C216 C219 1.386 . S
H217 C233 0.930 1_545 S
H218 C234 0.931 . S
C219 H207 0.929 . S
C219 C213 1.390 . S
C219 C216 1.386 . S
C220 C215 1.490 1_556 S
C220 C222 1.395 . S
C220 C223 1.403 1_556 S
H221 C227 0.930 . S
C222 H208 0.930 . S
C222 C220 1.395 . S
C222 C225 1.403 . S
C223 C220 1.403 1_554 S
C223 C224 1.524 . S
C223 C227 1.400 1_554 S
C224 H209 0.960 . S
C224 H210 0.960 . S
C224 H211 0.960 . S
C224 C223 1.524 . S
C225 C222 1.403 . S
C225 C226 1.392 . S
C225 C229 1.495 . S
C226 C225 1.392 . S
C226 C227 1.385 . S
C226 C228 1.478 . S
C227 H221 0.930 . S
C227 C223 1.400 1_556 S
C227 C226 1.385 . S
C228 C226 1.478 . S
C228 C230 1.381 . S
C228 C234 1.383 . S
C229 C225 1.495 . S
C229 H235 0.959 . S
C229 H236 0.961 . S
C229 H237 0.960 . S
C230 C228 1.381 . S
C230 C231 1.394 . S
C230 H238 0.930 . S
C231 C230 1.394 . S
C231 C232 1.383 1_565 S
C231 H239 0.929 . S
C232 C231 1.383 1_545 S
C232 C233 1.377 1_545 S
C233 H217 0.930 1_565 S
C233 C232 1.377 1_565 S
C233 C234 1.379 . S
C234 H218 0.931 . S
C234 C228 1.383 . S
C234 C233 1.379 . S
H235 C229 0.959 . S
H236 C229 0.961 . S
H237 C229 0.960 . S
H238 C230 0.930 . S
H239 C231 0.929 . S
H240 C248 0.929 . S
H241 C250 0.930 . S
H242 C252 0.930 . S
H243 C255 0.929 . S
H244 C258 0.930 . S
H245 C260 0.960 . S
H246 C260 0.960 . S
H247 C260 0.960 . S
C248 H240 0.929 . S
C248 C249 1.377 . S
C248 C250 1.384 1_554 S
C249 C248 1.377 . S
C249 C255 1.390 . S
C250 H241 0.930 . S
C250 C248 1.384 1_556 S
C250 C251 1.372 1_556 S
C251 C250 1.372 1_554 S
C251 C252 1.400 . S
C251 C256 1.490 1_554 S
C252 H242 0.930 . S
C252 C251 1.400 . S
C252 C255 1.386 . S
H253 C269 0.910 1_655 S
H254 C270 0.931 . S
C255 H243 0.929 . S
C255 C249 1.390 . S
C255 C252 1.386 . S
C256 C251 1.490 1_556 S
C256 C258 1.395 . S
C256 C259 1.403 . S
H257 C263 0.930 . S
C258 H244 0.930 . S
C258 C256 1.395 . S
C258 C261 1.403 . S
C259 C256 1.403 . S
C259 C260 1.524 1_556 S
C259 C263 1.400 . S
C260 H245 0.960 . S
C260 H246 0.960 . S
C260 H247 0.960 . S
C260 C259 1.524 1_554 S
C261 C258 1.403 . S
C261 C262 1.392 . S
C261 C265 1.495 . S
C262 C261 1.392 . S
C262 C263 1.385 . S
C262 C264 1.478 . S
C263 H257 0.930 . S
C263 C259 1.400 . S
C263 C262 1.385 . S
C264 C262 1.478 . S
C264 C266 1.381 . S
C264 C270 1.383 . S
C265 C261 1.495 . S
C265 H271 0.959 . S
C265 H272 0.961 . S
C265 H273 0.960 . S
C266 C264 1.381 . S
C266 C267 1.394 . S
C266 H274 0.930 . S
C267 C266 1.394 . S
C267 C268 1.383 1_455 S
C267 H275 0.929 . S
C268 C267 1.383 1_655 S
C268 C269 1.376 1_655 S
C269 H253 0.910 1_455 S
C269 C268 1.376 1_455 S
C269 C270 1.401 . S
C270 H254 0.931 . S
C270 C264 1.383 . S
C270 C269 1.401 . S
H271 C265 0.959 . S
H272 C265 0.961 . S
H273 C265 0.960 . S
H274 C266 0.930 . S
H275 C267 0.929 . S
H276 C284 0.929 . S
H277 C286 0.930 . S
H278 C288 0.930 . S
H279 C291 0.929 . S
H280 C294 0.930 . S
H281 C296 0.960 . S
H282 C296 0.960 . S
H283 C296 0.960 . S
C284 H276 0.929 . S
C284 C285 1.377 . S
C284 C286 1.384 . S
C285 C284 1.377 . S
C285 C291 1.390 . S
C286 H277 0.930 . S
C286 C284 1.384 . S
C286 C287 1.372 . S
C287 C286 1.372 . S
C287 C288 1.400 . S
C287 C292 1.490 . S
C288 H278 0.930 . S
C288 C287 1.400 . S
C288 C291 1.386 . S
H289 C305 0.930 . S
H290 C306 0.931 . S
C291 H279 0.929 . S
C291 C285 1.390 . S
C291 C288 1.386 . S
C292 C287 1.490 . S
C292 C294 1.395 . S
C292 C295 1.403 . S
H293 C299 0.930 . S
C294 H280 0.930 . S
C294 C292 1.395 . S
C294 C297 1.403 . S
C295 C292 1.403 . S
C295 C296 1.524 . S
C295 C299 1.400 . S
C296 H281 0.960 . S
C296 H282 0.960 . S
C296 H283 0.960 . S
C296 C295 1.524 . S
C297 C294 1.403 . S
C297 C298 1.392 . S
C297 C301 1.495 . S
C298 C297 1.392 . S
C298 C299 1.385 . S
C298 C300 1.478 . S
C299 H293 0.930 . S
C299 C295 1.400 . S
C299 C298 1.385 . S
C300 C298 1.478 . S
C300 C302 1.381 . S
C300 C306 1.383 . S
C301 C297 1.495 . S
C301 H307 0.959 . S
C301 H308 0.961 . S
C301 H309 0.960 . S
C302 C300 1.381 . S
C302 C303 1.394 . S
C302 H310 0.930 . S
C303 C302 1.394 . S
C303 C304 1.383 . S
C303 H311 0.929 . S
C304 C303 1.383 . S
C304 C305 1.377 . S
C305 H289 0.930 . S
C305 C304 1.377 . S
C305 C306 1.379 . S
C306 H290 0.931 . S
C306 C300 1.383 . S
C306 C305 1.379 . S
H307 C301 0.959 . S
H308 C301 0.961 . S
H309 C301 0.960 . S
H310 C302 0.930 . S
H311 C303 0.929 . S
H312 C320 0.929 . S
H313 C322 0.930 . S
H314 C324 0.930 . S
H315 C327 0.929 . S
H316 C330 0.930 . S
H317 C332 0.960 . S
H318 C332 0.960 . S
H319 C332 0.960 . S
C320 H312 0.929 . S
C320 C321 1.377 . S
C320 C322 1.384 . S
C321 C320 1.377 . S
C321 C327 1.390 . S
C322 H313 0.930 . S
C322 C320 1.384 . S
C322 C323 1.372 . S
C323 C322 1.372 . S
C323 C324 1.400 . S
C323 C328 1.490 . S
C324 H314 0.930 . S
C324 C323 1.400 . S
C324 C327 1.386 . S
H325 C341 0.930 . S
H326 C342 0.931 . S
C327 H315 0.929 . S
C327 C321 1.390 . S
C327 C324 1.386 . S
C328 C323 1.490 . S
C328 C330 1.395 . S
C328 C331 1.403 . S
H329 C335 0.930 . S
C330 H316 0.930 . S
C330 C328 1.395 . S
C330 C333 1.403 . S
C331 C328 1.403 . S
C331 C332 1.524 . S
C331 C335 1.400 . S
C332 H317 0.960 . S
C332 H318 0.960 . S
C332 H319 0.960 . S
C332 C331 1.524 . S
C333 C330 1.403 . S
C333 C334 1.392 . S
C333 C337 1.495 . S
C334 C333 1.392 . S
C334 C335 1.385 . S
C334 C336 1.478 . S
C335 H329 0.930 . S
C335 C331 1.400 . S
C335 C334 1.385 . S
C336 C334 1.478 . S
C336 C338 1.381 . S
C336 C342 1.383 . S
C337 C333 1.495 . S
C337 H343 0.959 . S
C337 H344 0.961 . S
C337 H345 0.960 . S
C338 C336 1.381 . S
C338 C339 1.394 . S
C338 H346 0.930 . S
C339 C338 1.394 . S
C339 C340 1.383 1_565 S
C339 H347 0.929 1_565 S
C340 C339 1.383 1_545 S
C340 C341 1.377 1_545 S
C341 H325 0.930 . S
C341 C340 1.377 1_565 S
C341 C342 1.379 . S
C342 H326 0.931 . S
C342 C336 1.383 . S
C342 C341 1.379 . S
H343 C337 0.959 . S
H344 C337 0.961 . S
H345 C337 0.960 . S
H346 C338 0.930 . S
H347 C339 0.929 1_545 S
H348 C356 0.929 . S
H349 C358 0.930 . S
H350 C360 0.930 . S
H351 C363 0.940 . S
H352 C366 0.930 . S
H353 C368 0.960 . S
H354 C368 0.960 . S
H355 C368 0.960 . S
C356 H348 0.929 . S
C356 C357 1.377 1_455 S
C356 C358 1.384 . S
C357 C356 1.377 1_655 S
C357 C363 1.390 1_655 S
C358 H349 0.930 . S
C358 C356 1.384 . S
C358 C359 1.372 . S
C359 C358 1.372 . S
C359 C360 1.400 . S
C359 C364 1.490 . S
C360 H350 0.930 . S
C360 C359 1.400 . S
C360 C363 1.386 . S
H361 C377 0.930 . S
H362 C378 0.931 . S
C363 H351 0.940 . S
C363 C357 1.390 1_455 S
C363 C360 1.386 . S
C364 C359 1.490 . S
C364 C366 1.395 . S
C364 C367 1.403 . S
H365 C371 0.930 . S
C366 H352 0.930 . S
C366 C364 1.395 . S
C366 C369 1.403 . S
C367 C364 1.403 . S
C367 C368 1.524 . S
C367 C371 1.400 . S
C368 H353 0.960 . S
C368 H354 0.960 . S
C368 H355 0.960 . S
C368 C367 1.524 . S
C369 C366 1.403 . S
C369 C370 1.392 . S
C369 C373 1.495 . S
C370 C369 1.392 . S
C370 C371 1.385 . S
C370 C372 1.478 . S
C371 H365 0.930 . S
C371 C367 1.400 . S
C371 C370 1.385 . S
C372 C370 1.478 . S
C372 C374 1.381 . S
C372 C378 1.383 . S
C373 C369 1.495 . S
C373 H379 0.959 . S
C373 H380 0.961 . S
C373 H381 0.960 . S
C374 C372 1.381 . S
C374 C375 1.394 . S
C374 H382 0.930 . S
C375 C374 1.394 . S
C375 C376 1.383 . S
C375 H383 0.929 . S
C376 C375 1.383 . S
C376 C377 1.377 . S
C377 H361 0.930 . S
C377 C376 1.377 . S
C377 C378 1.379 . S
C378 H362 0.931 . S
C378 C372 1.383 . S
C378 C377 1.379 . S
H379 C373 0.959 . S
H380 C373 0.961 . S
H381 C373 0.960 . S
H382 C374 0.930 . S
H383 C375 0.929 . S
H384 C392 0.929 . S
H385 C394 0.930 . S
H386 C396 0.930 . S
H387 C399 0.929 . S
H388 C402 0.930 . S
H389 C404 0.960 . S
H390 C404 0.960 . S
H391 C404 0.960 . S
C392 H384 0.929 . S
C392 C393 1.377 . S
C392 C394 1.384 . S
C393 C392 1.377 . S
C393 C399 1.390 . S
C394 H385 0.930 . S
C394 C392 1.384 . S
C394 C395 1.372 . S
C395 C394 1.372 . S
C395 C396 1.400 . S
C395 C400 1.490 . S
C396 H386 0.930 . S
C396 C395 1.400 . S
C396 C399 1.386 . S
H397 C413 0.930 . S
H398 C414 0.931 1_554 S
C399 H387 0.929 . S
C399 C393 1.390 . S
C399 C396 1.386 . S
C400 C395 1.490 . S
C400 C402 1.395 . S
C400 C403 1.403 . S
H401 C407 0.930 . S
C402 H388 0.930 . S
C402 C400 1.395 . S
C402 C405 1.403 1_554 S
C403 C400 1.403 . S
C403 C404 1.524 . S
C403 C407 1.400 . S
C404 H389 0.960 . S
C404 H390 0.960 . S
C404 H391 0.960 . S
C404 C403 1.524 . S
C405 C402 1.403 1_556 S
C405 C406 1.392 . S
C405 C409 1.495 . S
C406 C405 1.392 . S
C406 C407 1.385 1_556 S
C406 C408 1.478 . S
C407 H401 0.930 . S
C407 C403 1.400 . S
C407 C406 1.385 1_554 S
C408 C406 1.478 . S
C408 C410 1.381 . S
C408 C414 1.383 . S
C409 C405 1.495 . S
C409 H415 0.959 . S
C409 H416 0.961 . S
C409 H417 0.960 . S
C410 C408 1.381 . S
C410 C411 1.394 . S
C410 H418 0.930 . S
C411 C410 1.394 . S
C411 C412 1.383 . S
C411 H419 0.929 . S
C412 C411 1.383 . S
C412 C413 1.377 . S
C413 H397 0.930 . S
C413 C412 1.377 . S
C413 C414 1.379 . S
C414 H398 0.931 1_556 S
C414 C408 1.383 . S
C414 C413 1.379 . S
H415 C409 0.959 . S
H416 C409 0.961 . S
H417 C409 0.960 . S
H418 C410 0.930 . S
H419 C411 0.929 . S
H420 C428 0.929 . S
H421 C430 0.930 . S
H422 C432 0.930 . S
H423 C435 0.929 . S
H424 C438 0.930 . S
H425 C440 0.960 . S
H426 C440 0.960 . S
H427 C440 0.960 . S
C428 H420 0.929 . S
C428 C429 1.377 . S
C428 C430 1.384 1_556 S
C429 C428 1.377 . S
C429 C435 1.390 . S
C430 H421 0.930 . S
C430 C428 1.384 1_554 S
C430 C431 1.372 1_554 S
C431 C430 1.372 1_556 S
C431 C432 1.400 . S
C431 C436 1.490 1_556 S
C432 H422 0.930 . S
C432 C431 1.400 . S
C432 C435 1.386 . S
H433 C449 0.931 1_565 S
H434 C450 0.931 . S
C435 H423 0.929 . S
C435 C429 1.390 . S
C435 C432 1.386 . S
C436 C431 1.490 1_554 S
C436 C438 1.395 . S
C436 C439 1.403 . S
H437 C443 0.930 . S
C438 H424 0.930 . S
C438 C436 1.395 . S
C438 C441 1.403 . S
C439 C436 1.403 . S
C439 C440 1.524 1_554 S
C439 C443 1.400 . S
C440 H425 0.960 . S
C440 H426 0.960 . S
C440 H427 0.960 . S
C440 C439 1.524 1_556 S
C441 C438 1.403 . S
C441 C442 1.392 . S
C441 C445 1.495 . S
C442 C441 1.392 . S
C442 C443 1.385 . S
C442 C444 1.478 . S
C443 H437 0.930 . S
C443 C439 1.400 . S
C443 C442 1.385 . S
C444 C442 1.478 . S
C444 C446 1.381 . S
C444 C450 1.383 . S
C445 C441 1.495 . S
C445 H451 0.959 . S
C445 H452 0.961 . S
C445 H453 0.960 . S
C446 C444 1.381 . S
C446 C447 1.394 . S
C446 H454 0.930 . S
C447 C446 1.394 . S
C447 C448 1.383 1_545 S
C447 H455 0.929 . S
C448 C447 1.383 1_565 S
C448 C449 1.377 1_565 S
C449 H433 0.931 1_545 S
C449 C448 1.377 1_545 S
C449 C450 1.378 . S
C450 H434 0.931 . S
C450 C444 1.383 . S
C450 C449 1.378 . S
H451 C445 0.959 . S
H452 C445 0.961 . S
H453 C445 0.960 . S
H454 C446 0.930 . S
H455 C447 0.929 . S
H456 C464 0.929 . S
H457 C466 0.930 . S
H458 C468 0.930 . S
H459 C471 0.929 . S
H460 C474 0.930 . S
H461 C476 0.960 . S
H462 C476 0.960 . S
H463 C476 0.960 . S
C464 H456 0.929 . S
C464 C465 1.377 1_655 S
C464 C466 1.384 . S
C465 C464 1.377 1_455 S
C465 C471 1.390 . S
C466 H457 0.930 . S
C466 C464 1.384 . S
C466 C467 1.372 . S
C467 C466 1.372 . S
C467 C468 1.400 . S
C467 C472 1.490 . S
C468 H458 0.930 . S
C468 C467 1.400 . S
C468 C471 1.386 1_655 S
H469 C485 0.930 . S
H470 C486 0.931 . S
C471 H459 0.929 . S
C471 C465 1.390 . S
C471 C468 1.386 1_455 S
C472 C467 1.490 . S
C472 C474 1.395 . S
C472 C475 1.403 . S
H473 C479 0.930 . S
C474 H460 0.930 . S
C474 C472 1.395 . S
C474 C477 1.403 . S
C475 C472 1.403 . S
C475 C476 1.524 . S
C475 C479 1.400 . S
C476 H461 0.960 . S
C476 H462 0.960 . S
C476 H463 0.960 . S
C476 C475 1.524 . S
C477 C474 1.403 . S
C477 C478 1.395 . S
C477 C481 1.499 . S
C478 C477 1.395 . S
C478 C479 1.388 . S
C478 C480 1.472 1_554 S
C479 H473 0.930 . S
C479 C475 1.400 . S
C479 C478 1.388 . S
C480 C478 1.472 1_556 S
C480 C482 1.381 . S
C480 C486 1.383 . S
C481 C477 1.499 . S
C481 H487 0.965 . S
C481 H488 0.945 1_554 S
C481 H489 0.967 . S
C482 C480 1.381 . S
C482 C483 1.394 . S
C482 H490 0.930 1_556 S
C483 C482 1.394 . S
C483 C484 1.383 . S
C483 H491 0.929 . S
C484 C483 1.383 . S
C484 C485 1.377 . S
C485 H469 0.930 . S
C485 C484 1.377 . S
C485 C486 1.379 . S
C486 H470 0.931 . S
C486 C480 1.383 . S
C486 C485 1.379 . S
H487 C481 0.965 . S
H488 C481 0.945 1_556 S
H489 C481 0.967 . S
H490 C482 0.930 1_554 S
H491 C483 0.929 . S
H492 C500 0.929 . S
H493 C502 0.930 . S
H494 C504 0.930 . S
H495 C507 0.929 . S
H496 C510 0.930 . S
H497 C512 0.960 . S
H498 C512 0.960 . S
H499 C512 0.960 . S
C500 H492 0.929 . S
C500 C501 1.377 . S
C500 C502 1.384 . S
C501 C500 1.377 . S
C501 C507 1.390 . S
C502 H493 0.930 . S
C502 C500 1.384 . S
C502 C503 1.372 . S
C503 C502 1.372 . S
C503 C504 1.400 . S
C503 C508 1.490 . S
C504 H494 0.930 . S
C504 C503 1.400 . S
C504 C507 1.386 . S
H505 C521 0.930 . S
H506 C522 0.931 . S
C507 H495 0.929 . S
C507 C501 1.390 . S
C507 C504 1.386 . S
C508 C503 1.490 . S
C508 C510 1.395 . S
C508 C511 1.403 . S
H509 C515 0.930 . S
C510 H496 0.930 . S
C510 C508 1.395 . S
C510 C513 1.403 . S
C511 C508 1.403 . S
C511 C512 1.524 . S
C511 C515 1.400 . S
C512 H497 0.960 . S
C512 H498 0.960 . S
C512 H499 0.960 . S
C512 C511 1.524 . S
C513 C510 1.403 . S
C513 C514 1.392 . S
C513 C517 1.495 . S
C514 C513 1.392 . S
C514 C515 1.385 . S
C514 C516 1.478 . S
C515 H509 0.930 . S
C515 C511 1.400 . S
C515 C514 1.385 . S
C516 C514 1.478 . S
C516 C518 1.381 . S
C516 C522 1.383 . S
C517 C513 1.495 . S
C517 H523 0.959 . S
C517 H524 0.961 . S
C517 H525 0.960 . S
C518 C516 1.381 . S
C518 C519 1.394 . S
C518 H526 0.930 . S
C519 C518 1.394 . S
C519 C520 1.383 . S
C519 H527 0.929 . S
C520 C519 1.383 . S
C520 C521 1.377 . S
C521 H505 0.930 . S
C521 C520 1.377 . S
C521 C522 1.379 . S
C522 H506 0.931 . S
C522 C516 1.383 . S
C522 C521 1.379 . S
H523 C517 0.959 . S
H524 C517 0.961 . S
H525 C517 0.960 . S
H526 C518 0.930 . S
H527 C519 0.929 . S
H528 C536 0.929 . S
H529 C538 0.930 . S
H530 C540 0.930 . S
H531 C543 0.929 . S
H532 C546 0.930 . S
H533 C548 0.960 . S
H534 C548 0.960 . S
H535 C548 0.960 . S
C536 H528 0.929 . S
C536 C537 1.377 . S
C536 C538 1.384 . S
C537 C536 1.377 . S
C537 C543 1.390 . S
C538 H529 0.930 . S
C538 C536 1.384 . S
C538 C539 1.372 . S
C539 C538 1.372 . S
C539 C540 1.400 . S
C539 C544 1.490 . S
C540 H530 0.930 . S
C540 C539 1.400 . S
C540 C543 1.386 . S
H541 C557 0.930 . S
H542 C558 0.931 . S
C543 H531 0.929 . S
C543 C537 1.390 . S
C543 C540 1.386 . S
C544 C539 1.490 . S
C544 C546 1.395 . S
C544 C547 1.403 . S
H545 C551 0.930 . S
C546 H532 0.930 . S
C546 C544 1.395 . S
C546 C549 1.403 . S
C547 C544 1.403 . S
C547 C548 1.524 . S
C547 C551 1.400 . S
C548 H533 0.960 . S
C548 H534 0.960 . S
C548 H535 0.960 . S
C548 C547 1.524 . S
C549 C546 1.403 . S
C549 C550 1.392 . S
C549 C553 1.495 . S
C550 C549 1.392 . S
C550 C551 1.385 . S
C550 C552 1.478 . S
C551 H545 0.930 . S
C551 C547 1.400 . S
C551 C550 1.385 . S
C552 C550 1.478 . S
C552 C554 1.381 . S
C552 C558 1.383 . S
C553 C549 1.495 . S
C553 H559 0.959 . S
C553 H560 0.961 . S
C553 H561 0.960 . S
C554 C552 1.381 . S
C554 C555 1.394 1_545 S
C554 H562 0.930 . S
C555 C554 1.394 1_565 S
C555 C556 1.383 . S
C555 H563 0.929 . S
C556 C555 1.383 . S
C556 C557 1.377 1_565 S
C557 H541 0.930 . S
C557 C556 1.377 1_545 S
C557 C558 1.379 . S
C558 H542 0.931 . S
C558 C552 1.383 . S
C558 C557 1.379 . S
H559 C553 0.959 . S
H560 C553 0.961 . S
H561 C553 0.960 . S
H562 C554 0.930 . S
H563 C555 0.929 . S
H564 C572 0.929 . S
H565 C574 0.930 . S
H566 C576 0.930 . S
H567 C579 0.929 . S
H568 C582 0.930 . S
H569 C584 0.960 . S
H570 C584 0.960 . S
H571 C584 0.960 . S
C572 H564 0.929 . S
C572 C573 1.377 1_655 S
C572 C574 1.384 . S
C573 C572 1.377 1_455 S
C573 C579 1.390 . S
C574 H565 0.930 . S
C574 C572 1.384 . S
C574 C575 1.372 . S
C575 C574 1.372 . S
C575 C576 1.400 . S
C575 C580 1.490 . S
C576 H566 0.930 . S
C576 C575 1.400 . S
C576 C579 1.386 1_655 S
H577 C593 0.930 . S
H578 C594 0.931 . S
C579 H567 0.929 . S
C579 C573 1.390 . S
C579 C576 1.386 1_455 S
C580 C575 1.490 . S
C580 C582 1.395 . S
C580 C583 1.403 . S
H581 C587 0.930 . S
C582 H568 0.930 . S
C582 C580 1.395 . S
C582 C585 1.403 . S
C583 C580 1.403 . S
C583 C584 1.524 . S
C583 C587 1.400 . S
C584 H569 0.960 . S
C584 H570 0.960 . S
C584 H571 0.960 . S
C584 C583 1.524 . S
C585 C582 1.403 . S
C585 C586 1.392 . S
C585 C589 1.495 . S
C586 C585 1.392 . S
C586 C587 1.385 . S
C586 C588 1.478 . S
C587 H581 0.930 . S
C587 C583 1.400 . S
C587 C586 1.385 . S
C588 C586 1.478 . S
C588 C590 1.381 . S
C588 C594 1.383 . S
C589 C585 1.495 . S
C589 H595 0.959 . S
C589 H596 0.961 . S
C589 H597 0.960 . S
C590 C588 1.381 . S
C590 C591 1.394 . S
C590 H598 0.930 . S
C591 C590 1.394 . S
C591 C592 1.383 . S
C591 H599 0.929 . S
C592 C591 1.383 . S
C592 C593 1.377 . S
C593 H577 0.930 . S
C593 C592 1.377 . S
C593 C594 1.379 . S
C594 H578 0.931 . S
C594 C588 1.383 . S
C594 C593 1.379 . S
H595 C589 0.959 . S
H596 C589 0.961 . S
H597 C589 0.960 . S
H598 C590 0.930 . S
H599 C591 0.929 . S
H600 C608 0.929 . S
H601 C610 0.930 . S
H602 C612 0.930 . S
H603 C615 0.929 . S
H604 C618 0.930 . S
H605 C620 0.960 . S
H606 C620 0.960 . S
H607 C620 0.960 . S
C608 H600 0.929 . S
C608 C609 1.377 . S
C608 C610 1.384 . S
C609 C608 1.377 . S
C609 C615 1.390 . S
C610 H601 0.930 . S
C610 C608 1.384 . S
C610 C611 1.372 . S
C611 C610 1.372 . S
C611 C612 1.400 . S
C611 C616 1.490 . S
C612 H602 0.930 . S
C612 C611 1.400 . S
C612 C615 1.386 . S
H613 C629 0.930 . S
H614 C630 0.931 . S
C615 H603 0.929 . S
C615 C609 1.390 . S
C615 C612 1.386 . S
C616 C611 1.490 . S
C616 C618 1.395 . S
C616 C619 1.403 . S
H617 C623 0.930 . S
C618 H604 0.930 . S
C618 C616 1.395 . S
C618 C621 1.403 . S
C619 C616 1.403 . S
C619 C620 1.524 . S
C619 C623 1.400 . S
C620 H605 0.960 . S
C620 H606 0.960 . S
C620 H607 0.960 . S
C620 C619 1.524 . S
C621 C618 1.403 . S
C621 C622 1.392 . S
C621 C625 1.495 . S
C622 C621 1.392 . S
C622 C623 1.385 . S
C622 C624 1.478 . S
C623 H617 0.930 . S
C623 C619 1.400 . S
C623 C622 1.385 . S
C624 C622 1.478 . S
C624 C626 1.381 . S
C624 C630 1.383 . S
C625 C621 1.495 . S
C625 H631 0.959 . S
C625 H632 0.961 . S
C625 H633 0.960 . S
C626 C624 1.381 . S
C626 C627 1.394 . S
C626 H634 0.930 . S
C627 C626 1.394 . S
C627 C628 1.383 . S
C627 H635 0.929 . S
C628 C627 1.383 . S
C628 C629 1.377 . S
C629 H613 0.930 . S
C629 C628 1.377 . S
C629 C630 1.379 . S
C630 H614 0.931 . S
C630 C624 1.383 . S
C630 C629 1.379 . S
H631 C625 0.959 . S
H632 C625 0.961 . S
H633 C625 0.960 . S
H634 C626 0.930 . S
H635 C627 0.929 . S
H636 C644 0.929 . S
H637 C646 0.930 . S
H638 C648 0.930 . S
H639 C651 0.929 . S
H640 C654 0.930 . S
H641 C656 0.960 . S
H642 C656 0.960 . S
H643 C656 0.960 . S
C644 H636 0.929 . S
C644 C645 1.377 . S
C644 C646 1.384 . S
C645 C644 1.377 . S
C645 C651 1.390 . S
C646 H637 0.930 . S
C646 C644 1.384 . S
C646 C647 1.372 . S
C647 C646 1.372 . S
C647 C648 1.400 . S
C647 C652 1.490 . S
C648 H638 0.930 . S
C648 C647 1.400 . S
C648 C651 1.386 . S
H649 C665 0.930 . S
H650 C666 0.931 . S
C651 H639 0.929 . S
C651 C645 1.390 . S
C651 C648 1.386 . S
C652 C647 1.490 . S
C652 C654 1.395 . S
C652 C655 1.403 . S
H653 C659 0.930 . S
C654 H640 0.930 . S
C654 C652 1.395 . S
C654 C657 1.403 . S
C655 C652 1.403 . S
C655 C656 1.524 . S
C655 C659 1.400 . S
C656 H641 0.960 . S
C656 H642 0.960 . S
C656 H643 0.960 . S
C656 C655 1.524 . S
C657 C654 1.403 . S
C657 C658 1.392 . S
C657 C661 1.495 . S
C658 C657 1.392 . S
C658 C659 1.385 . S
C658 C660 1.478 . S
C659 H653 0.930 . S
C659 C655 1.400 . S
C659 C658 1.385 . S
C660 C658 1.478 . S
C660 C662 1.381 . S
C660 C666 1.383 . S
C661 C657 1.495 . S
C661 H667 0.959 . S
C661 H668 0.961 . S
C661 H669 0.960 . S
C662 C660 1.381 . S
C662 C663 1.394 . S
C662 H670 0.930 . S
C663 C662 1.394 . S
C663 C664 1.383 . S
C663 H671 0.929 . S
C664 C663 1.383 . S
C664 C665 1.377 . S
C665 H649 0.930 . S
C665 C664 1.377 . S
C665 C666 1.379 . S
C666 H650 0.931 . S
C666 C660 1.383 . S
C666 C665 1.379 . S
H667 C661 0.959 . S
H668 C661 0.961 . S
H669 C661 0.960 . S
H670 C662 0.930 . S
H671 C663 0.929 . S
H672 C680 0.929 . S
H673 C682 0.930 . S
H674 C684 0.930 . S
H675 C687 0.929 . S
H676 C690 0.930 . S
H677 C692 0.960 . S
H678 C692 0.960 . S
H679 C692 0.960 . S
C680 H672 0.929 . S
C680 C681 1.377 . S
C680 C682 1.384 . S
C681 C680 1.377 . S
C681 C687 1.390 . S
C682 H673 0.930 . S
C682 C680 1.384 . S
C682 C683 1.372 . S
C683 C682 1.372 . S
C683 C684 1.400 . S
C683 C688 1.490 . S
C684 H674 0.930 . S
C684 C683 1.400 . S
C684 C687 1.386 . S
H685 C701 0.930 . S
H686 C702 0.931 . S
C687 H675 0.929 . S
C687 C681 1.390 . S
C687 C684 1.386 . S
C688 C683 1.490 . S
C688 C690 1.395 . S
C688 C691 1.403 . S
H689 C695 0.930 . S
C690 H676 0.930 . S
C690 C688 1.395 . S
C690 C693 1.403 . S
C691 C688 1.403 . S
C691 C692 1.524 . S
C691 C695 1.400 . S
C692 H677 0.960 . S
C692 H678 0.960 . S
C692 H679 0.960 . S
C692 C691 1.524 . S
C693 C690 1.403 . S
C693 C694 1.392 . S
C693 C697 1.495 . S
C694 C693 1.392 . S
C694 C695 1.385 . S
C694 C696 1.478 . S
C695 H689 0.930 . S
C695 C691 1.400 . S
C695 C694 1.385 . S
C696 C694 1.478 . S
C696 C698 1.381 . S
C696 C702 1.383 . S
C697 C693 1.495 . S
C697 H703 0.959 . S
C697 H704 0.961 . S
C697 H705 0.960 . S
C698 C696 1.381 . S
C698 C699 1.394 . S
C698 H706 0.930 . S
C699 C698 1.394 . S
C699 C700 1.383 . S
C699 H707 0.929 . S
C700 C699 1.383 . S
C700 C701 1.377 . S
C701 H685 0.930 . S
C701 C700 1.377 . S
C701 C702 1.379 . S
C702 H686 0.931 . S
C702 C696 1.383 . S
C702 C701 1.379 . S
H703 C697 0.959 . S
H704 C697 0.961 . S
H705 C697 0.960 . S
H706 C698 0.930 . S
H707 C699 0.929 . S
H708 C716 0.929 . S
H709 C718 0.930 . S
H710 C720 0.930 . S
H711 C723 0.929 . S
H712 C726 0.930 . S
H713 C728 0.960 . S
H714 C728 0.960 . S
H715 C728 0.960 . S
C716 H708 0.929 . S
C716 C717 1.377 . S
C716 C718 1.384 . S
C717 C716 1.377 . S
C717 C723 1.390 . S
C718 H709 0.930 . S
C718 C716 1.384 . S
C718 C719 1.372 . S
C719 C718 1.372 . S
C719 C720 1.400 . S
C719 C724 1.490 . S
C720 H710 0.930 . S
C720 C719 1.400 . S
C720 C723 1.386 . S
H721 C737 0.930 . S
H722 C738 0.931 . S
C723 H711 0.929 . S
C723 C717 1.390 . S
C723 C720 1.386 . S
C724 C719 1.490 . S
C724 C726 1.395 . S
C724 C727 1.403 . S
H725 C731 0.930 . S
C726 H712 0.930 . S
C726 C724 1.395 . S
C726 C729 1.403 . S
C727 C724 1.403 . S
C727 C728 1.524 . S
C727 C731 1.400 . S
C728 H713 0.960 . S
C728 H714 0.960 . S
C728 H715 0.960 . S
C728 C727 1.524 . S
C729 C726 1.403 . S
C729 C730 1.392 . S
C729 C733 1.495 . S
C730 C729 1.392 . S
C730 C731 1.385 . S
C730 C732 1.478 . S
C731 H725 0.930 . S
C731 C727 1.400 . S
C731 C730 1.385 . S
C732 C730 1.478 . S
C732 C734 1.381 . S
C732 C738 1.383 . S
C733 C729 1.495 . S
C733 H739 0.959 . S
C733 H740 0.961 . S
C733 H741 0.960 . S
C734 C732 1.381 . S
C734 C735 1.394 . S
C734 H742 0.930 . S
C735 C734 1.394 . S
C735 C736 1.383 . S
C735 H743 0.929 . S
C736 C735 1.383 . S
C736 C737 1.377 . S
C737 H721 0.930 . S
C737 C736 1.377 . S
C737 C738 1.379 . S
C738 H722 0.931 . S
C738 C732 1.383 . S
C738 C737 1.379 . S
H739 C733 0.959 . S
H740 C733 0.961 . S
H741 C733 0.960 . S
H742 C734 0.930 . S
H743 C735 0.929 . S
H744 C752 0.929 . S
H745 C754 0.930 . S
H746 C756 0.930 . S
H747 C759 0.929 . S
H748 C762 0.930 . S
H749 C764 0.960 . S
H750 C764 0.960 . S
H751 C764 0.960 . S
C752 H744 0.929 . S
C752 C753 1.377 . S
C752 C754 1.384 . S
C753 C752 1.377 . S
C753 C759 1.390 . S
C754 H745 0.930 . S
C754 C752 1.384 . S
C754 C755 1.372 . S
C755 C754 1.372 . S
C755 C756 1.400 . S
C755 C760 1.490 . S
C756 H746 0.930 . S
C756 C755 1.400 . S
C756 C759 1.386 . S
H757 C773 0.930 . S
H758 C774 0.931 . S
C759 H747 0.929 . S
C759 C753 1.390 . S
C759 C756 1.386 . S
C760 C755 1.490 . S
C760 C762 1.395 . S
C760 C763 1.403 . S
H761 C767 0.930 . S
C762 H748 0.930 . S
C762 C760 1.395 . S
C762 C765 1.403 . S
C763 C760 1.403 . S
C763 C764 1.524 . S
C763 C767 1.400 . S
C764 H749 0.960 . S
C764 H750 0.960 . S
C764 H751 0.960 . S
C764 C763 1.524 . S
C765 C762 1.403 . S
C765 C766 1.392 . S
C765 C769 1.495 . S
C766 C765 1.392 . S
C766 C767 1.385 . S
C766 C768 1.478 . S
C767 H761 0.930 . S
C767 C763 1.400 . S
C767 C766 1.385 . S
C768 C766 1.478 . S
C768 C770 1.381 . S
C768 C774 1.383 . S
C769 C765 1.495 . S
C769 H775 0.959 . S
C769 H776 0.961 . S
C769 H777 0.960 . S
C770 C768 1.381 . S
C770 C771 1.394 . S
C770 H778 0.930 . S
C771 C770 1.394 . S
C771 C772 1.383 . S
C771 H779 0.929 . S
C772 C771 1.383 . S
C772 C773 1.377 . S
C773 H757 0.930 . S
C773 C772 1.377 . S
C773 C774 1.379 . S
C774 H758 0.931 . S
C774 C768 1.383 . S
C774 C773 1.379 . S
H775 C769 0.959 . S
H776 C769 0.961 . S
H777 C769 0.960 . S
H778 C770 0.930 . S
H779 C771 0.929 . S
H780 C788 0.929 . S
H781 C790 0.930 . S
H782 C792 0.930 . S
H783 C795 0.929 . S
H784 C798 0.930 . S
H785 C800 0.960 . S
H786 C800 0.960 . S
H787 C800 0.960 . S
C788 H780 0.929 . S
C788 C789 1.377 . S
C788 C790 1.384 . S
C789 C788 1.377 . S
C789 C795 1.390 . S
C790 H781 0.930 . S
C790 C788 1.384 . S
C790 C791 1.372 . S
C791 C790 1.372 . S
C791 C792 1.400 . S
C791 C796 1.490 . S
C792 H782 0.930 . S
C792 C791 1.400 . S
C792 C795 1.386 . S
H793 C809 0.930 . S
H794 C810 0.931 . S
C795 H783 0.929 . S
C795 C789 1.390 . S
C795 C792 1.386 . S
C796 C791 1.490 . S
C796 C798 1.395 . S
C796 C799 1.403 . S
H797 C803 0.930 . S
C798 H784 0.930 . S
C798 C796 1.395 . S
C798 C801 1.403 . S
C799 C796 1.403 . S
C799 C800 1.524 . S
C799 C803 1.400 . S
C800 H785 0.960 . S
C800 H786 0.960 . S
C800 H787 0.960 . S
C800 C799 1.524 . S
C801 C798 1.403 . S
C801 C802 1.392 . S
C801 C805 1.495 . S
C802 C801 1.392 . S
C802 C803 1.385 . S
C802 C804 1.478 . S
C803 H797 0.930 . S
C803 C799 1.400 . S
C803 C802 1.385 . S
C804 C802 1.478 . S
C804 C806 1.381 . S
C804 C810 1.383 . S
C805 C801 1.495 . S
C805 H811 0.959 . S
C805 H812 0.961 . S
C805 H813 0.960 . S
C806 C804 1.381 . S
C806 C807 1.394 . S
C806 H814 0.930 . S
C807 C806 1.394 . S
C807 C808 1.383 . S
C807 H815 0.929 . S
C808 C807 1.383 . S
C808 C809 1.377 . S
C809 H793 0.930 . S
C809 C808 1.377 . S
C809 C810 1.379 . S
C810 H794 0.931 . S
C810 C804 1.383 . S
C810 C809 1.379 . S
H811 C805 0.959 . S
H812 C805 0.961 . S
H813 C805 0.960 . S
H814 C806 0.930 . S
H815 C807 0.929 . S
H816 C824 0.929 . S
H817 C826 0.930 1_556 S
H818 C828 0.930 1_655 S
H819 C831 0.929 . S
H820 C834 0.930 . S
H821 C836 0.960 . S
H822 C836 0.960 . S
H823 C836 0.960 . S
C824 H816 0.929 . S
C824 C825 1.377 . S
C824 C826 1.384 . S
C825 C824 1.377 . S
C825 C831 1.390 . S
C826 H817 0.930 1_554 S
C826 C824 1.384 . S
C826 C827 1.372 . S
C827 C826 1.372 . S
C827 C828 1.400 . S
C827 C832 1.490 . S
C828 H818 0.930 1_455 S
C828 C827 1.400 . S
C828 C831 1.386 . S
H829 C845 0.930 . S
H830 C846 0.932 1_554 S
C831 H819 0.929 . S
C831 C825 1.390 . S
C831 C828 1.386 . S
C832 C827 1.490 . S
C832 C834 1.395 1_454 S
C832 C835 1.403 . S
H833 C839 0.930 . S
C834 H820 0.930 . S
C834 C832 1.395 1_656 S
C834 C837 1.403 . S
C835 C832 1.403 . S
C835 C836 1.524 . S
C835 C839 1.400 . S
C836 H821 0.960 . S
C836 H822 0.960 . S
C836 H823 0.960 . S
C836 C835 1.524 . S
C837 C834 1.403 . S
C837 C838 1.392 . S
C837 C841 1.495 . S
C838 C837 1.392 . S
C838 C839 1.385 1_656 S
C838 C840 1.478 . S
C839 H833 0.930 . S
C839 C835 1.400 . S
C839 C838 1.385 1_454 S
C840 C838 1.478 . S
C840 C842 1.381 . S
C840 C846 1.383 . S
C841 C837 1.495 . S
C841 H847 0.959 . S
C841 H848 0.961 . S
C841 H849 0.960 . S
C842 C840 1.381 . S
C842 C843 1.394 . S
C842 H850 0.930 1_655 S
C843 C842 1.394 . S
C843 C844 1.383 . S
C843 H851 0.929 . S
C844 C843 1.383 . S
C844 C845 1.377 . S
C845 H829 0.930 . S
C845 C844 1.377 . S
C845 C846 1.379 . S
C846 H830 0.932 1_556 S
C846 C840 1.383 . S
C846 C845 1.379 . S
H847 C841 0.959 . S
H848 C841 0.961 . S
H849 C841 0.960 . S
H850 C842 0.930 1_455 S
H851 C843 0.929 . S
H852 C860 0.929 . S
H853 C862 0.930 . S
H854 C864 0.930 1_556 S
H855 C867 0.929 . S
H856 C870 0.930 . S
H857 C872 0.960 . S
H858 C872 0.960 1_554 S
H859 C872 0.960 . S
C860 H852 0.929 . S
C860 C861 1.377 . S
C860 C862 1.384 . S
C861 C860 1.377 . S
C861 C867 1.390 . S
C862 H853 0.930 . S
C862 C860 1.384 . S
C862 C863 1.372 . S
C863 C862 1.372 . S
C863 C864 1.400 . S
C863 C868 1.490 . S
C864 H854 0.930 1_554 S
C864 C863 1.400 . S
C864 C867 1.386 . S
H865 C881 0.930 . S
H866 C882 0.931 . S
C867 H855 0.929 . S
C867 C861 1.390 . S
C867 C864 1.386 . S
C868 C863 1.490 . S
C868 C870 1.395 . S
C868 C871 1.403 1_554 S
H869 C875 0.930 . S
C870 H856 0.930 . S
C870 C868 1.395 . S
C870 C873 1.403 . S
C871 C868 1.403 1_556 S
C871 C872 1.524 . S
C871 C875 1.400 . S
C872 H857 0.960 . S
C872 H858 0.960 1_556 S
C872 H859 0.960 . S
C872 C871 1.524 . S
C873 C870 1.403 . S
C873 C874 1.392 1_554 S
C873 C877 1.495 . S
C874 C873 1.392 1_556 S
C874 C875 1.385 . S
C874 C876 1.478 . S
C875 H869 0.930 . S
C875 C871 1.400 . S
C875 C874 1.385 . S
C876 C874 1.478 . S
C876 C878 1.381 . S
C876 C882 1.383 . S
C877 C873 1.495 . S
C877 H883 0.959 . S
C877 H884 0.961 . S
C877 H885 0.960 . S
C878 C876 1.381 . S
C878 C879 1.394 . S
C878 H886 0.930 1_556 S
C879 C878 1.394 . S
C879 C880 1.383 . S
C879 H887 0.929 . S
C880 C879 1.383 . S
C880 C881 1.377 . S
C881 H865 0.930 . S
C881 C880 1.377 . S
C881 C882 1.379 . S
C882 H866 0.931 . S
C882 C876 1.383 . S
C882 C881 1.379 . S
H883 C877 0.959 . S
H884 C877 0.961 . S
H885 C877 0.960 . S
H886 C878 0.930 1_554 S
H887 C879 0.929 . S
H888 C896 0.929 . S
H889 C898 0.930 1_556 S
H890 C900 0.930 1_545 S
H891 C903 0.929 . S
H892 C906 0.930 . S
H893 C908 0.960 . S
H894 C908 0.960 . S
H895 C908 0.960 . S
C896 H888 0.929 . S
C896 C897 1.377 . S
C896 C898 1.384 . S
C897 C896 1.377 . S
C897 C903 1.390 . S
C898 H889 0.930 1_554 S
C898 C896 1.384 . S
C898 C899 1.372 . S
C899 C898 1.372 . S
C899 C900 1.400 . S
C899 C904 1.490 . S
C900 H890 0.930 1_565 S
C900 C899 1.400 . S
C900 C903 1.386 . S
H901 C917 0.930 . S
H902 C918 0.931 . S
C903 H891 0.929 . S
C903 C897 1.390 . S
C903 C900 1.386 . S
C904 C899 1.490 . S
C904 C906 1.395 1_564 S
C904 C907 1.403 . S
H905 C911 0.930 . S
C906 H892 0.930 . S
C906 C904 1.395 1_546 S
C906 C909 1.403 . S
C907 C904 1.403 . S
C907 C908 1.524 . S
C907 C911 1.400 . S
C908 H893 0.960 . S
C908 H894 0.960 . S
C908 H895 0.960 . S
C908 C907 1.524 . S
C909 C906 1.403 . S
C909 C910 1.392 . S
C909 C913 1.495 . S
C910 C909 1.392 . S
C910 C911 1.385 1_546 S
C910 C912 1.478 . S
C911 H905 0.930 . S
C911 C907 1.400 . S
C911 C910 1.385 1_564 S
C912 C910 1.478 . S
C912 C914 1.381 . S
C912 C918 1.383 . S
C913 C909 1.495 . S
C913 H919 0.959 . S
C913 H920 0.961 . S
C913 H921 0.960 . S
C914 C912 1.381 . S
C914 C915 1.394 . S
C914 H922 0.930 1_545 S
C915 C914 1.394 . S
C915 C916 1.383 . S
C915 H923 0.929 . S
C916 C915 1.383 . S
C916 C917 1.377 . S
C917 H901 0.930 . S
C917 C916 1.377 . S
C917 C918 1.379 . S
C918 H902 0.931 . S
C918 C912 1.383 . S
C918 C917 1.379 . S
H919 C913 0.959 . S
H920 C913 0.961 . S
H921 C913 0.960 . S
H922 C914 0.930 1_565 S
H923 C915 0.929 . S
H924 C932 0.929 . S
H925 C934 0.930 . S
H926 C936 0.930 1_545 S
H927 C939 0.929 . S
H928 C942 0.930 . S
H929 C944 0.960 . S
H930 C944 0.960 . S
H931 C944 0.960 . S
C932 H924 0.929 . S
C932 C933 1.377 . S
C932 C934 1.384 . S
C933 C932 1.377 . S
C933 C939 1.390 . S
C934 H925 0.930 . S
C934 C932 1.384 . S
C934 C935 1.372 . S
C935 C934 1.372 . S
C935 C936 1.400 . S
C935 C940 1.490 . S
C936 H926 0.930 1_565 S
C936 C935 1.400 . S
C936 C939 1.386 . S
H937 C953 0.930 . S
H938 C954 0.931 . S
C939 H927 0.929 . S
C939 C933 1.390 . S
C939 C936 1.386 . S
C940 C935 1.490 . S
C940 C942 1.395 1_565 S
C940 C943 1.403 . S
H941 C947 0.930 . S
C942 H928 0.930 . S
C942 C940 1.395 1_545 S
C942 C945 1.403 . S
C943 C940 1.403 . S
C943 C944 1.524 . S
C943 C947 1.400 . S
C944 H929 0.960 . S
C944 H930 0.960 . S
C944 H931 0.960 . S
C944 C943 1.524 . S
C945 C942 1.403 . S
C945 C946 1.392 . S
C945 C949 1.495 . S
C946 C945 1.392 . S
C946 C947 1.385 1_545 S
C946 C948 1.478 . S
C947 H941 0.930 . S
C947 C943 1.400 . S
C947 C946 1.385 1_565 S
C948 C946 1.478 . S
C948 C950 1.381 . S
C948 C954 1.383 . S
C949 C945 1.495 . S
C949 H955 0.959 . S
C949 H956 0.961 . S
C949 H957 0.960 . S
C950 C948 1.381 . S
C950 C951 1.394 . S
C950 H958 0.930 1_545 S
C951 C950 1.394 . S
C951 C952 1.383 . S
C951 H959 0.929 . S
C952 C951 1.383 . S
C952 C953 1.377 . S
C953 H937 0.930 . S
C953 C952 1.377 . S
C953 C954 1.379 . S
C954 H938 0.931 . S
C954 C948 1.383 . S
C954 C953 1.379 . S
H955 C949 0.959 . S
H956 C949 0.961 . S
H957 C949 0.960 . S
H958 C950 0.930 1_565 S
H959 C951 0.929 . S
H960 C968 0.929 1_455 S
H961 C970 0.930 . S
H962 C972 0.930 . S
H963 C975 0.929 . S
H964 C978 0.930 . S
H965 C980 0.960 . S
H966 C980 0.960 . S
H967 C980 0.960 . S
C968 H960 0.929 1_655 S
C968 C969 1.377 . S
C968 C970 1.384 1_655 S
C969 C968 1.377 . S
C969 C975 1.390 . S
C970 H961 0.930 . S
C970 C968 1.384 1_455 S
C970 C971 1.372 1_455 S
C971 C970 1.372 1_655 S
C971 C972 1.400 . S
C971 C976 1.490 . S
C972 H962 0.930 . S
C972 C971 1.400 . S
C972 C975 1.386 . S
H973 C989 0.930 1_655 S
H974 C990 0.931 1_655 S
C975 H963 0.929 . S
C975 C969 1.390 . S
C975 C972 1.386 . S
C976 C971 1.490 . S
C976 C978 1.395 1_655 S
C976 C979 1.403 . S
H977 C983 0.930 . S
C978 H964 0.930 . S
C978 C976 1.395 1_455 S
C978 C981 1.403 . S
C979 C976 1.403 . S
C979 C980 1.524 . S
C979 C983 1.400 . S
C980 H965 0.960 . S
C980 H966 0.960 . S
C980 H967 0.960 . S
C980 C979 1.524 . S
C981 C978 1.403 . S
C981 C982 1.392 . S
C981 C985 1.495 . S
C982 C981 1.392 . S
C982 C983 1.385 1_455 S
C982 C984 1.478 . S
C983 H977 0.930 . S
C983 C979 1.400 . S
C983 C982 1.385 1_655 S
C984 C982 1.478 . S
C984 C986 1.381 . S
C984 C990 1.383 . S
C985 C981 1.495 . S
C985 H991 0.959 . S
C985 H992 0.961 . S
C985 H993 0.960 . S
C986 C984 1.381 . S
C986 C987 1.394 . S
C986 H994 0.930 . S
C987 C986 1.394 . S
C987 C988 1.383 . S
C987 H995 0.929 . S
C988 C987 1.383 . S
C988 C989 1.377 . S
C989 H973 0.930 1_455 S
C989 C988 1.377 . S
C989 C990 1.379 . S
C990 H974 0.931 1_455 S
C990 C984 1.383 . S
C990 C989 1.379 . S
H991 C985 0.959 . S
H992 C985 0.961 . S
H993 C985 0.960 . S
H994 C986 0.930 . S
H995 C987 0.929 . S
H996 C1004 0.929 . S
H997 C1006 0.930 . S
H998 C1008 0.930 . S
H999 C1011 0.929 . S
H1000 C1014 0.930 . S
H1001 C1016 0.960 . S
H1002 C1016 0.960 . S
H1003 C1016 0.960 . S
C1004 H996 0.929 . S
C1004 C1005 1.377 . S
C1004 C1006 1.384 . S
C1005 C1004 1.377 . S
C1005 C1011 1.390 . S
C1006 H997 0.930 . S
C1006 C1004 1.384 . S
C1006 C1007 1.372 . S
C1007 C1006 1.372 . S
C1007 C1008 1.400 . S
C1007 C1012 1.490 . S
C1008 H998 0.930 . S
C1008 C1007 1.400 . S
C1008 C1011 1.386 . S
H1009 C1025 0.930 . S
H1010 C1026 0.931 . S
C1011 H999 0.929 . S
C1011 C1005 1.390 . S
C1011 C1008 1.386 . S
C1012 C1007 1.490 . S
C1012 C1014 1.395 . S
C1012 C1015 1.403 . S
H1013 C1019 0.930 . S
C1014 H1000 0.930 . S
C1014 C1012 1.395 . S
C1014 C1017 1.403 . S
C1015 C1012 1.403 . S
C1015 C1016 1.524 . S
C1015 C1019 1.400 . S
C1016 H1001 0.960 . S
C1016 H1002 0.960 . S
C1016 H1003 0.960 . S
C1016 C1015 1.524 . S
C1017 C1014 1.403 . S
C1017 C1018 1.392 . S
C1017 C1021 1.495 . S
C1018 C1017 1.392 . S
C1018 C1019 1.385 . S
C1018 C1020 1.478 . S
C1019 H1013 0.930 . S
C1019 C1015 1.400 . S
C1019 C1018 1.385 . S
C1020 C1018 1.478 . S
C1020 C1022 1.381 . S
C1020 C1026 1.383 . S
C1021 C1017 1.495 . S
C1021 H1027 0.959 . S
C1021 H1028 0.961 . S
C1021 H1029 0.960 . S
C1022 C1020 1.381 . S
C1022 C1023 1.394 . S
C1022 H1030 0.930 . S
C1023 C1022 1.394 . S
C1023 C1024 1.383 . S
C1023 H1031 0.929 . S
C1024 C1023 1.383 . S
C1024 C1025 1.377 . S
C1025 H1009 0.930 . S
C1025 C1024 1.377 . S
C1025 C1026 1.379 . S
C1026 H1010 0.931 . S
C1026 C1020 1.383 . S
C1026 C1025 1.379 . S
H1027 C1021 0.959 . S
H1028 C1021 0.961 . S
H1029 C1021 0.960 . S
H1030 C1022 0.930 . S
H1031 C1023 0.929 . S
C177 C12 0.257 . S
C196 C102 0.374 . S
C213 C26 0.252 . S
C232 C116 0.402 . S
C249 C40 0.254 . S
C268 C88 0.401 . S
C285 C158 0.335 . S
C304 C54 0.286 . S
C321 C68 0.253 . S
C340 C130 0.261 . S
C357 C144 0.329 . S
C376 C82 0.239 . S
C393 C18 0.331 . S
C412 C96 0.236 . S
C429 C110 0.257 . S
C448 C32 0.264 . S
C465 C4 0.322 . S
C484 C124 0.273 . S
C501 C138 0.257 . S
C520 C74 0.267 . S
C537 C152 0.245 . S
C556 C46 0.376 . S
C573 C60 0.319 . S
C592 C166 0.278 . S
C609 C81 1.580 . S
C628 C11 1.542 . S
C645 C25 1.582 . S
C664 C53 1.549 . S
C681 C39 1.575 . S
C700 C67 1.548 . S
C717 C95 1.571 . S
C736 C165 1.543 . S
C753 C109 1.583 . S
C772 C137 1.605 . S
C789 C123 1.581 . S
C808 C151 1.588 . S
C825 C5 1.427 . S
C844 C89 1.404 . S
C861 C19 1.443 . S
C880 C103 1.472 . S
C897 C33 1.427 . S
C916 C117 1.407 . S
C933 C47 1.427 . S
C952 C131 1.404 . S
C969 C145 1.437 . S
C988 C61 1.397 . S
C1005 C75 1.436 . S
C1024 C159 1.470 . S
