# Generated by pormake.
# Topology wio, (6)-cn, num edge types: 1
# Building blocks:
#     Node 0, Type 0, BuildingBlock: JUFBIX_clean_sbu_0, # of connection points: 6
#     Node 1, Type 0, BuildingBlock: JUFBIX_clean_sbu_0, # of connection points: 6
#     Node 2, Type 0, BuildingBlock: JUFBIX_clean_sbu_0, # of connection points: 6
#     Node 3, Type 0, BuildingBlock: JUFBIX_clean_sbu_0, # of connection points: 6
#     Node 4, Type 0, BuildingBlock: JUFBIX_clean_sbu_0, # of connection points: 6
#     Node 5, Type 0, BuildingBlock: JUFBIX_clean_sbu_0, # of connection points: 6
#     Node 6, Type 0, BuildingBlock: JUFBIX_clean_sbu_0, # of connection points: 6
#     Node 7, Type 0, BuildingBlock: JUFBIX_clean_sbu_0, # of connection points: 6
#     Node 8, Type 0, BuildingBlock: JUFBIX_clean_sbu_0, # of connection points: 6
#     Node 9, Type 0, BuildingBlock: JUFBIX_clean_sbu_0, # of connection points: 6
#     Node 10, Type 0, BuildingBlock: JUFBIX_clean_sbu_0, # of connection points: 6
#     Node 11, Type 0, BuildingBlock: JUFBIX_clean_sbu_0, # of connection points: 6
#     Node 12, Type 0, BuildingBlock: JUFBIX_clean_sbu_0, # of connection points: 6
#     Node 13, Type 0, BuildingBlock: JUFBIX_clean_sbu_0, # of connection points: 6
#     Node 14, Type 0, BuildingBlock: JUFBIX_clean_sbu_0, # of connection points: 6
#     Node 15, Type 0, BuildingBlock: JUFBIX_clean_sbu_0, # of connection points: 6
#     Node 16, Type 0, BuildingBlock: JUFBIX_clean_sbu_0, # of connection points: 6
#     Node 17, Type 0, BuildingBlock: JUFBIX_clean_sbu_0, # of connection points: 6
#     Node 18, Type 0, BuildingBlock: JUFBIX_clean_sbu_0, # of connection points: 6
#     Node 19, Type 0, BuildingBlock: JUFBIX_clean_sbu_0, # of connection points: 6
#     Node 20, Type 0, BuildingBlock: JUFBIX_clean_sbu_0, # of connection points: 6
#     Node 21, Type 0, BuildingBlock: JUFBIX_clean_sbu_0, # of connection points: 6
#     Node 22, Type 0, BuildingBlock: JUFBIX_clean_sbu_0, # of connection points: 6
#     Node 23, Type 0, BuildingBlock: JUFBIX_clean_sbu_0, # of connection points: 6
#     Node 24, Type 0, BuildingBlock: JUFBIX_clean_sbu_0, # of connection points: 6
#     Node 25, Type 0, BuildingBlock: JUFBIX_clean_sbu_0, # of connection points: 6
#     Node 26, Type 0, BuildingBlock: JUFBIX_clean_sbu_0, # of connection points: 6
#     Node 27, Type 0, BuildingBlock: JUFBIX_clean_sbu_0, # of connection points: 6
#     Node 28, Type 0, BuildingBlock: JUFBIX_clean_sbu_0, # of connection points: 6
#     Node 29, Type 0, BuildingBlock: JUFBIX_clean_sbu_0, # of connection points: 6
#     Node 30, Type 0, BuildingBlock: JUFBIX_clean_sbu_0, # of connection points: 6
#     Node 31, Type 0, BuildingBlock: JUFBIX_clean_sbu_0, # of connection points: 6
#     Edge 32, Type (0, 0), BuildingBlock: CIFDUS_clean_linker_0, # of connection points: 2
#     Edge 33, Type (0, 0), BuildingBlock: CIFDUS_clean_linker_0, # of connection points: 2
#     Edge 34, Type (0, 0), BuildingBlock: CIFDUS_clean_linker_0, # of connection points: 2
#     Edge 35, Type (0, 0), BuildingBlock: CIFDUS_clean_linker_0, # of connection points: 2
#     Edge 36, Type (0, 0), BuildingBlock: CIFDUS_clean_linker_0, # of connection points: 2
#     Edge 37, Type (0, 0), BuildingBlock: CIFDUS_clean_linker_0, # of connection points: 2
#     Edge 38, Type (0, 0), BuildingBlock: CIFDUS_clean_linker_0, # of connection points: 2
#     Edge 39, Type (0, 0), BuildingBlock: CIFDUS_clean_linker_0, # of connection points: 2
#     Edge 40, Type (0, 0), BuildingBlock: CIFDUS_clean_linker_0, # of connection points: 2
#     Edge 41, Type (0, 0), BuildingBlock: CIFDUS_clean_linker_0, # of connection points: 2
#     Edge 42, Type (0, 0), BuildingBlock: CIFDUS_clean_linker_0, # of connection points: 2
#     Edge 43, Type (0, 0), BuildingBlock: CIFDUS_clean_linker_0, # of connection points: 2
#     Edge 44, Type (0, 0), BuildingBlock: CIFDUS_clean_linker_0, # of connection points: 2
#     Edge 45, Type (0, 0), BuildingBlock: CIFDUS_clean_linker_0, # of connection points: 2
#     Edge 46, Type (0, 0), BuildingBlock: CIFDUS_clean_linker_0, # of connection points: 2
#     Edge 47, Type (0, 0), BuildingBlock: CIFDUS_clean_linker_0, # of connection points: 2
#     Edge 48, Type (0, 0), BuildingBlock: CIFDUS_clean_linker_0, # of connection points: 2
#     Edge 49, Type (0, 0), BuildingBlock: CIFDUS_clean_linker_0, # of connection points: 2
#     Edge 50, Type (0, 0), BuildingBlock: CIFDUS_clean_linker_0, # of connection points: 2
#     Edge 51, Type (0, 0), BuildingBlock: CIFDUS_clean_linker_0, # of connection points: 2
#     Edge 52, Type (0, 0), BuildingBlock: CIFDUS_clean_linker_0, # of connection points: 2
#     Edge 53, Type (0, 0), BuildingBlock: CIFDUS_clean_linker_0, # of connection points: 2
#     Edge 54, Type (0, 0), BuildingBlock: CIFDUS_clean_linker_0, # of connection points: 2
#     Edge 55, Type (0, 0), BuildingBlock: CIFDUS_clean_linker_0, # of connection points: 2
#     Edge 56, Type (0, 0), BuildingBlock: CIFDUS_clean_linker_0, # of connection points: 2
#     Edge 57, Type (0, 0), BuildingBlock: CIFDUS_clean_linker_0, # of connection points: 2
#     Edge 58, Type (0, 0), BuildingBlock: CIFDUS_clean_linker_0, # of connection points: 2
#     Edge 59, Type (0, 0), BuildingBlock: CIFDUS_clean_linker_0, # of connection points: 2
#     Edge 60, Type (0, 0), BuildingBlock: CIFDUS_clean_linker_0, # of connection points: 2
#     Edge 61, Type (0, 0), BuildingBlock: CIFDUS_clean_linker_0, # of connection points: 2
#     Edge 62, Type (0, 0), BuildingBlock: CIFDUS_clean_linker_0, # of connection points: 2
#     Edge 63, Type (0, 0), BuildingBlock: CIFDUS_clean_linker_0, # of connection points: 2
#     Edge 64, Type (0, 0), BuildingBlock: CIFDUS_clean_linker_0, # of connection points: 2
#     Edge 65, Type (0, 0), BuildingBlock: CIFDUS_clean_linker_0, # of connection points: 2
#     Edge 66, Type (0, 0), BuildingBlock: CIFDUS_clean_linker_0, # of connection points: 2
#     Edge 67, Type (0, 0), BuildingBlock: CIFDUS_clean_linker_0, # of connection points: 2
#     Edge 68, Type (0, 0), BuildingBlock: CIFDUS_clean_linker_0, # of connection points: 2
#     Edge 69, Type (0, 0), BuildingBlock: CIFDUS_clean_linker_0, # of connection points: 2
#     Edge 70, Type (0, 0), BuildingBlock: CIFDUS_clean_linker_0, # of connection points: 2
#     Edge 71, Type (0, 0), BuildingBlock: CIFDUS_clean_linker_0, # of connection points: 2
#     Edge 72, Type (0, 0), BuildingBlock: CIFDUS_clean_linker_0, # of connection points: 2
#     Edge 73, Type (0, 0), BuildingBlock: CIFDUS_clean_linker_0, # of connection points: 2
#     Edge 74, Type (0, 0), BuildingBlock: CIFDUS_clean_linker_0, # of connection points: 2
#     Edge 75, Type (0, 0), BuildingBlock: CIFDUS_clean_linker_0, # of connection points: 2
#     Edge 76, Type (0, 0), BuildingBlock: CIFDUS_clean_linker_0, # of connection points: 2
#     Edge 77, Type (0, 0), BuildingBlock: CIFDUS_clean_linker_0, # of connection points: 2
#     Edge 78, Type (0, 0), BuildingBlock: CIFDUS_clean_linker_0, # of connection points: 2
#     Edge 79, Type (0, 0), BuildingBlock: CIFDUS_clean_linker_0, # of connection points: 2
#     Edge 80, Type (0, 0), BuildingBlock: CIFDUS_clean_linker_0, # of connection points: 2
#     Edge 81, Type (0, 0), BuildingBlock: CIFDUS_clean_linker_0, # of connection points: 2
#     Edge 82, Type (0, 0), BuildingBlock: CIFDUS_clean_linker_0, # of connection points: 2
#     Edge 83, Type (0, 0), BuildingBlock: CIFDUS_clean_linker_0, # of connection points: 2
#     Edge 84, Type (0, 0), BuildingBlock: CIFDUS_clean_linker_0, # of connection points: 2
#     Edge 85, Type (0, 0), BuildingBlock: CIFDUS_clean_linker_0, # of connection points: 2
#     Edge 86, Type (0, 0), BuildingBlock: CIFDUS_clean_linker_0, # of connection points: 2
#     Edge 87, Type (0, 0), BuildingBlock: CIFDUS_clean_linker_0, # of connection points: 2
#     Edge 88, Type (0, 0), BuildingBlock: CIFDUS_clean_linker_0, # of connection points: 2
#     Edge 89, Type (0, 0), BuildingBlock: CIFDUS_clean_linker_0, # of connection points: 2
#     Edge 90, Type (0, 0), BuildingBlock: CIFDUS_clean_linker_0, # of connection points: 2
#     Edge 91, Type (0, 0), BuildingBlock: CIFDUS_clean_linker_0, # of connection points: 2
#     Edge 92, Type (0, 0), BuildingBlock: CIFDUS_clean_linker_0, # of connection points: 2
#     Edge 93, Type (0, 0), BuildingBlock: CIFDUS_clean_linker_0, # of connection points: 2
#     Edge 94, Type (0, 0), BuildingBlock: CIFDUS_clean_linker_0, # of connection points: 2
#     Edge 95, Type (0, 0), BuildingBlock: CIFDUS_clean_linker_0, # of connection points: 2
#     Edge 96, Type (0, 0), BuildingBlock: CIFDUS_clean_linker_0, # of connection points: 2
#     Edge 97, Type (0, 0), BuildingBlock: CIFDUS_clean_linker_0, # of connection points: 2
#     Edge 98, Type (0, 0), BuildingBlock: CIFDUS_clean_linker_0, # of connection points: 2
#     Edge 99, Type (0, 0), BuildingBlock: CIFDUS_clean_linker_0, # of connection points: 2
#     Edge 100, Type (0, 0), BuildingBlock: CIFDUS_clean_linker_0, # of connection points: 2
#     Edge 101, Type (0, 0), BuildingBlock: CIFDUS_clean_linker_0, # of connection points: 2
#     Edge 102, Type (0, 0), BuildingBlock: CIFDUS_clean_linker_0, # of connection points: 2
#     Edge 103, Type (0, 0), BuildingBlock: CIFDUS_clean_linker_0, # of connection points: 2
#     Edge 104, Type (0, 0), BuildingBlock: CIFDUS_clean_linker_0, # of connection points: 2
#     Edge 105, Type (0, 0), BuildingBlock: CIFDUS_clean_linker_0, # of connection points: 2
#     Edge 106, Type (0, 0), BuildingBlock: CIFDUS_clean_linker_0, # of connection points: 2
#     Edge 107, Type (0, 0), BuildingBlock: CIFDUS_clean_linker_0, # of connection points: 2
#     Edge 108, Type (0, 0), BuildingBlock: CIFDUS_clean_linker_0, # of connection points: 2
#     Edge 109, Type (0, 0), BuildingBlock: CIFDUS_clean_linker_0, # of connection points: 2
#     Edge 110, Type (0, 0), BuildingBlock: CIFDUS_clean_linker_0, # of connection points: 2
#     Edge 111, Type (0, 0), BuildingBlock: CIFDUS_clean_linker_0, # of connection points: 2
#     Edge 112, Type (0, 0), BuildingBlock: CIFDUS_clean_linker_0, # of connection points: 2
#     Edge 113, Type (0, 0), BuildingBlock: CIFDUS_clean_linker_0, # of connection points: 2
#     Edge 114, Type (0, 0), BuildingBlock: CIFDUS_clean_linker_0, # of connection points: 2
#     Edge 115, Type (0, 0), BuildingBlock: CIFDUS_clean_linker_0, # of connection points: 2
#     Edge 116, Type (0, 0), BuildingBlock: CIFDUS_clean_linker_0, # of connection points: 2
#     Edge 117, Type (0, 0), BuildingBlock: CIFDUS_clean_linker_0, # of connection points: 2
#     Edge 118, Type (0, 0), BuildingBlock: CIFDUS_clean_linker_0, # of connection points: 2
#     Edge 119, Type (0, 0), BuildingBlock: CIFDUS_clean_linker_0, # of connection points: 2
#     Edge 120, Type (0, 0), BuildingBlock: CIFDUS_clean_linker_0, # of connection points: 2
#     Edge 121, Type (0, 0), BuildingBlock: CIFDUS_clean_linker_0, # of connection points: 2
#     Edge 122, Type (0, 0), BuildingBlock: CIFDUS_clean_linker_0, # of connection points: 2
#     Edge 123, Type (0, 0), BuildingBlock: CIFDUS_clean_linker_0, # of connection points: 2
#     Edge 124, Type (0, 0), BuildingBlock: CIFDUS_clean_linker_0, # of connection points: 2
#     Edge 125, Type (0, 0), BuildingBlock: CIFDUS_clean_linker_0, # of connection points: 2
#     Edge 126, Type (0, 0), BuildingBlock: CIFDUS_clean_linker_0, # of connection points: 2
#     Edge 127, Type (0, 0), BuildingBlock: CIFDUS_clean_linker_0, # of connection points: 2
# Relax obj value: 0.509
# Max RMSD: 0.263
# Mean RMSD: 0.254
data_MOF--net-wio--node1-JUFBIX_clean_sbu_0--edge1-CIFDUS_clean_linker_0
_symmetry_space_group_name_H-M    P1
_symmetry_Int_Tables_number       1
_symmetry_cell_setting            triclinic
loop_
_symmetry_equiv_pos_as_xyz
'x, y, z'
_cell_length_a     48.85822
_cell_length_b     46.618974
_cell_length_c     39.87602
_cell_angle_alpha  86.845478
_cell_angle_beta   88.19894
_cell_angle_gamma 90.088068
loop_
_atom_site_label
_atom_site_type_symbol
_atom_site_fract_x
_atom_site_fract_y
_atom_site_fract_z
_atom_type_partial_charge
Co0 Co 0.1768 0.11832 0.31459 0.0
C1 C 0.16153 0.16703 0.34764 0.0
Co2 Co 0.13239 0.1205 0.32507 0.0
C3 C 0.22427 0.10579 0.27513 0.0
C4 C 0.23586 0.11872 0.32332 0.0
N5 N 0.21392 0.11528 0.30426 0.0
N6 N 0.25168 0.10266 0.27521 0.0
C7 C 0.25918 0.1111 0.30543 0.0
H8 H 0.21176 0.10097 0.25423 0.0
H9 H 0.23488 0.12553 0.34883 0.0
C10 C 0.14786 0.07342 0.2914 0.0
N11 N 0.09533 0.12209 0.33374 0.0
C12 C 0.07976 0.10073 0.34829 0.0
C13 C 0.07754 0.14295 0.32452 0.0
N14 N 0.05297 0.10726 0.3483 0.0
C15 C 0.05136 0.13381 0.33341 0.0
C16 C 0.14741 0.14462 0.26136 0.0
O17 O 0.17143 0.08386 0.2945 0.0
O18 O 0.12715 0.08554 0.30411 0.0
O19 O 0.12757 0.14046 0.28244 0.0
O20 O 0.17147 0.13814 0.27068 0.0
O21 O 0.13769 0.15618 0.3459 0.0
H22 H 0.08321 0.16329 0.3118 0.0
H23 H 0.08784 0.08044 0.35805 0.0
O24 O 0.18202 0.15392 0.3352 0.0
O25 O 0.18145 0.09708 0.35782 0.0
O26 O 0.13719 0.09932 0.36741 0.0
C27 C 0.1605 0.09022 0.37656 0.0
H28 H 0.27987 0.11096 0.31435 0.0
H29 H 0.03267 0.14589 0.32984 0.0
Co30 Co 0.15096 0.9307 0.58494 0.0
C31 C 0.18391 0.89807 0.54447 0.0
Co32 Co 0.129 0.90852 0.5465 0.0
C33 C 0.17428 0.93957 0.64892 0.0
C34 C 0.18891 0.97095 0.61156 0.0
N35 N 0.17116 0.94882 0.61659 0.0
N36 N 0.19374 0.95427 0.66403 0.0
C37 C 0.20284 0.97431 0.64061 0.0
H38 H 0.16403 0.9209 0.66063 0.0
H39 H 0.19282 0.98275 0.58779 0.0
C40 C 0.09655 0.94052 0.58921 0.0
N41 N 0.10792 0.88943 0.51757 0.0
C42 C 0.11402 0.88106 0.48653 0.0
C43 C 0.08316 0.87761 0.52577 0.0
N44 N 0.0941 0.86434 0.47518 0.0
C45 C 0.07457 0.86229 0.49971 0.0
C46 C 0.13383 0.87432 0.60577 0.0
O47 O 0.11873 0.94596 0.60318 0.0
O48 O 0.09704 0.92512 0.564 0.0
O49 O 0.12413 0.8762 0.57681 0.0
O50 O 0.14693 0.89583 0.61556 0.0
O51 O 0.16215 0.89193 0.52956 0.0
H52 H 0.07249 0.879 0.5498 0.0
H53 H 0.13287 0.88682 0.4728 0.0
O54 O 0.18296 0.91546 0.56775 0.0
O55 O 0.15453 0.96457 0.55253 0.0
O56 O 0.13318 0.94068 0.5152 0.0
C57 C 0.14495 0.96362 0.52305 0.0
H58 H 0.21943 0.98928 0.64353 0.0
H59 H 0.05591 0.84979 0.49935 0.0
Co60 Co 0.36459 0.85411 0.82582 0.0
C61 C 0.37831 0.79902 0.85051 0.0
Co62 Co 0.40887 0.84913 0.83157 0.0
C63 C 0.31822 0.87548 0.79269 0.0
C64 C 0.30596 0.85789 0.84148 0.0
N65 N 0.32769 0.86067 0.81985 0.0
N66 N 0.29176 0.88297 0.79659 0.0
C67 C 0.28372 0.87155 0.82714 0.0
H68 H 0.33106 0.88181 0.77094 0.0
H69 H 0.30666 0.84819 0.86671 0.0
C70 C 0.3952 0.90329 0.80749 0.0
N71 N 0.44575 0.84416 0.83641 0.0
C72 C 0.46321 0.86345 0.84786 0.0
C73 C 0.46146 0.82188 0.82769 0.0
N74 N 0.48932 0.85431 0.84644 0.0
C75 C 0.48833 0.82806 0.83386 0.0
C76 C 0.39199 0.83771 0.76704 0.0
O77 O 0.37146 0.89237 0.80987 0.0
O78 O 0.41549 0.88801 0.81596 0.0
O79 O 0.4125 0.83798 0.78593 0.0
O80 O 0.36837 0.84236 0.77996 0.0
O81 O 0.40223 0.80998 0.84753 0.0
H82 H 0.45389 0.80262 0.81713 0.0
H83 H 0.45687 0.88418 0.85623 0.0
O84 O 0.35788 0.81467 0.84229 0.0
O85 O 0.36135 0.86762 0.87099 0.0
O86 O 0.40542 0.8614 0.87655 0.0
C87 C 0.38261 0.87012 0.88835 0.0
H88 H 0.26376 0.87427 0.83907 0.0
H89 H 0.5057 0.81421 0.82959 0.0
Co90 Co 0.3739 0.06961 0.05979 0.0
C91 C 0.41982 0.09512 0.08543 0.0
Co92 Co 0.37166 0.11729 0.06281 0.0
C93 C 0.37015 0.01646 0.02542 0.0
C94 C 0.38792 0.00896 0.07341 0.0
N95 N 0.37699 0.02988 0.05338 0.0
N96 N 0.37647 0.98811 0.02701 0.0
C97 C 0.38769 0.9834 0.05732 0.0
H98 H 0.36147 0.0276 1.00373 0.0
H99 H 0.39598 0.01217 0.09788 0.0
C100 C 0.32595 0.09304 0.0369 0.0
N101 N 0.36773 0.15695 0.0677 0.0
C102 C 0.37315 0.17263 0.0944 0.0
C103 C 0.35528 0.17556 0.04602 0.0
N104 N 0.36415 0.20005 0.09036 0.0
C105 C 0.35296 0.2019 0.05989 0.0
C106 C 0.39302 0.10202 1.00239 0.0
O107 O 0.33898 0.06956 0.04019 0.0
O108 O 0.33643 0.11592 0.04658 0.0
O109 O 0.38583 0.12378 0.01837 0.0
O110 O 0.39038 0.07703 0.01656 0.0
O111 O 0.40671 0.11811 0.07877 0.0
H112 H 0.34761 0.17009 0.02203 0.0
H113 H 0.38252 0.16379 0.11693 0.0
O114 O 0.40927 0.07083 0.07976 0.0
O115 O 0.35686 0.06311 0.1038 0.0
O116 O 0.3577 0.11019 0.10688 0.0
C117 C 0.35233 0.08541 0.12032 0.0
H118 H 0.3952 0.96294 0.06728 0.0
H119 H 0.34369 0.22096 0.04845 0.0
Co120 Co 0.15578 0.89206 0.1578 0.0
C121 C 0.13401 0.9262 0.20724 0.0
Co122 Co 0.1387 0.86908 0.20328 0.0
C123 C 0.15758 0.93165 0.09932 0.0
C124 C 0.19601 0.91097 0.10743 0.0
N125 N 0.17034 0.91286 0.12047 0.0
N126 N 0.17422 0.94162 0.07346 0.0
C127 C 0.1985 0.92864 0.07874 0.0
H128 H 0.13629 0.9374 0.1027 0.0
H129 H 0.21186 0.89734 0.11789 0.0
C130 C 0.15955 0.83451 0.15412 0.0
N131 N 0.12457 0.84683 0.23888 0.0
C132 C 0.13179 0.84714 0.27104 0.0
C133 C 0.10591 0.82546 0.23823 0.0
N134 N 0.11842 0.82689 0.29049 0.0
C135 C 0.10178 0.81337 0.27023 0.0
C136 C 0.09944 0.88029 0.15395 0.0
O137 O 0.16541 0.85765 0.13731 0.0
O138 O 0.14831 0.83556 0.18302 0.0
O139 O 0.10335 0.86899 0.18311 0.0
O140 O 0.11999 0.89112 0.13724 0.0
O141 O 0.12887 0.90262 0.22361 0.0
H142 H 0.09596 0.81909 0.21595 0.0
H143 H 0.14597 0.86251 0.28028 0.0
O144 O 0.14578 0.92624 0.17829 0.0
O145 O 0.19132 0.89326 0.17953 0.0
O146 O 0.1741 0.86995 0.22428 0.0
C147 C 0.1945 0.88267 0.2094 0.0
H148 H 0.21696 0.93175 0.06328 0.0
H149 H 0.08751 0.79635 0.27814 0.0
Co150 Co 0.36941 0.89288 0.41601 0.0
C151 C 0.3297 0.8772 0.4641 0.0
Co152 Co 0.38628 0.87923 0.46641 0.0
C153 C 0.33028 0.88915 0.36182 0.0
C154 C 0.35836 0.92372 0.35064 0.0
N155 N 0.3527 0.90223 0.37381 0.0
N156 N 0.32148 0.90167 0.33243 0.0
C157 C 0.33944 0.92342 0.32541 0.0
H158 H 0.32039 0.87076 0.37479 0.0
H159 H 0.37473 0.93916 0.35237 0.0
C160 C 0.42694 0.89364 0.41598 0.0
N161 N 0.39982 0.86804 0.50922 0.0
C162 C 0.38814 0.87084 0.54029 0.0
C163 C 0.42256 0.85251 0.51506 0.0
N164 N 0.40258 0.8575 0.56531 0.0
C165 C 0.42432 0.84608 0.54908 0.0
C166 C 0.37921 0.83416 0.42655 0.0
O167 O 0.40616 0.89859 0.39771 0.0
O168 O 0.423 0.88562 0.44703 0.0
O169 O 0.38757 0.84135 0.45465 0.0
O170 O 0.3709 0.85336 0.40523 0.0
O171 O 0.34947 0.87295 0.48379 0.0
H172 H 0.43656 0.84543 0.49567 0.0
H173 H 0.36907 0.88208 0.54425 0.0
O174 O 0.33455 0.88664 0.43424 0.0
O175 O 0.36772 0.93279 0.42975 0.0
O176 O 0.38461 0.91712 0.478 0.0
C177 C 0.37555 0.9377 0.45936 0.0
H178 H 0.33854 0.9388 0.30414 0.0
H179 H 0.44013 0.83307 0.56058 0.0
Co180 Co 0.37314 0.10371 0.67295 0.0
C181 C 0.38667 0.06071 0.72105 0.0
Co182 Co 0.39223 0.11908 0.71819 0.0
C183 C 0.37223 0.06735 0.61733 0.0
C184 C 0.33671 0.09393 0.61741 0.0
N185 N 0.35957 0.08801 0.63449 0.0
N186 N 0.35838 0.05987 0.5902 0.0
C187 C 0.3359 0.0767 0.59025 0.0
H188 H 0.39155 0.05816 0.62477 0.0
H189 H 0.32159 0.10967 0.62426 0.0
C190 C 0.37822 0.16195 0.66925 0.0
N191 N 0.4068 0.1344 0.7554 0.0
C192 C 0.40232 0.1259 0.78793 0.0
C193 C 0.42365 0.15735 0.75583 0.0
N194 N 0.41556 0.14271 0.80864 0.0
C195 C 0.42893 0.16264 0.78862 0.0
C196 C 0.43198 0.10855 0.66919 0.0
O197 O 0.36949 0.14116 0.65328 0.0
O198 O 0.38844 0.15691 0.69793 0.0
O199 O 0.42832 0.11659 0.69885 0.0
O200 O 0.41084 0.10212 0.65294 0.0
O201 O 0.39572 0.08098 0.73774 0.0
H202 H 0.43141 0.1696 0.73373 0.0
H203 H 0.38902 0.10816 0.79631 0.0
O204 O 0.3767 0.06644 0.69249 0.0
O205 O 0.33573 0.10571 0.69478 0.0
O206 O 0.35616 0.12141 0.73835 0.0
C207 C 0.33404 0.11422 0.72489 0.0
H208 H 0.31973 0.07639 0.57235 0.0
H209 H 0.44167 0.17965 0.7971 0.0
Co210 Co 0.14257 0.12073 0.91291 0.0
C211 C 0.1844 0.13077 0.9556 0.0
Co212 Co 0.12862 0.13723 0.96295 0.0
C213 C 0.18133 0.11668 0.85437 0.0
C214 C 0.1461 0.09009 0.85004 0.0
N215 N 0.1568 0.10922 0.87008 0.0
N216 N 0.18641 0.10292 0.82549 0.0
C217 C 0.16395 0.08624 0.82301 0.0
H218 H 0.19538 0.13181 0.86425 0.0
H219 H 0.12684 0.079 0.85519 0.0
C220 C 0.08488 0.12717 0.92147 0.0
N221 N 0.11896 0.14886 1.00669 0.0
C222 C 0.13127 0.14044 0.03574 0.0
C223 C 0.10069 0.16876 1.01598 0.0
N224 N 0.12171 0.15439 0.06277 0.0
C225 C 0.10228 0.17215 0.05014 0.0
C226 C 0.13914 0.18054 0.91518 0.0
O227 O 0.10378 0.12028 0.90012 0.0
O228 O 0.09153 0.13499 0.95034 0.0
O229 O 0.13086 0.17569 0.94558 0.0
O230 O 0.14526 0.15965 0.89708 0.0
O231 O 0.16518 0.13919 0.97454 0.0
H232 H 0.0876 0.18067 0.99887 0.0
H233 H 0.14734 0.12451 0.03678 0.0
O234 O 0.17919 0.12143 0.92725 0.0
O235 O 0.13973 0.08165 0.93054 0.0
O236 O 0.12675 0.09879 0.97904 0.0
C237 C 0.13227 0.07752 0.96142 0.0
H238 H 0.16073 0.07143 0.80356 0.0
H239 H 0.09054 0.18734 0.06419 0.0
Co240 Co 0.88189 0.89232 0.7133 0.0
C241 C 0.85933 0.94012 0.73931 0.0
Co242 Co 0.83709 0.89069 0.7183 0.0
C243 C 0.93462 0.89891 0.68117 0.0
C244 C 0.93657 0.89924 0.73467 0.0
N245 N 0.91927 0.89509 0.70963 0.0
N246 N 0.9606 0.90597 0.68735 0.0
C247 C 0.96206 0.90584 0.72102 0.0
H248 H 0.9265 0.89843 0.65629 0.0
H249 H 0.93076 0.89929 0.76106 0.0
C250 C 0.8608 0.84169 0.69201 0.0
N251 N 0.7994 0.88938 0.72385 0.0
C252 C 0.78523 0.89919 0.75042 0.0
C253 C 0.78021 0.87983 0.70358 0.0
N254 N 0.75798 0.89633 0.74767 0.0
C255 C 0.75465 0.8839 0.71832 0.0
C256 C 0.85568 0.91721 0.6565 0.0
O257 O 0.88274 0.85575 0.69543 0.0
O258 O 0.8379 0.85289 0.70034 0.0
O259 O 0.83394 0.90897 0.67297 0.0
O260 O 0.8786 0.91082 0.66913 0.0
O261 O 0.83681 0.92744 0.73573 0.0
H262 H 0.78453 0.87056 0.67971 0.0
H263 H 0.79483 0.9078 0.77183 0.0
O264 O 0.88149 0.92823 0.7309 0.0
O265 O 0.88502 0.87517 0.75759 0.0
O266 O 0.84059 0.87397 0.76433 0.0
C267 C 0.86416 0.87022 0.77675 0.0
H268 H 0.97997 0.91109 0.73479 0.0
H269 H 0.73518 0.87827 0.7082 0.0
Co270 Co 0.89421 0.09719 0.48626 0.0
C271 C 0.91422 0.06747 0.43155 0.0
Co272 Co 0.86313 0.08078 0.4537 0.0
C273 C 0.92596 0.11552 0.54122 0.0
C274 C 0.94555 0.12424 0.49305 0.0
N275 N 0.92314 0.11167 0.50843 0.0
N276 N 0.94898 0.13029 0.54669 0.0
C277 C 0.96131 0.13611 0.51658 0.0
H278 H 0.91056 0.10943 0.56044 0.0
H279 H 0.94944 0.12605 0.46615 0.0
C280 C 0.84262 0.11125 0.50718 0.0
N281 N 0.83551 0.06748 0.42821 0.0
C282 C 0.83292 0.07394 0.39512 0.0
C283 C 0.81197 0.05413 0.4383 0.0
N284 N 0.80832 0.06615 0.38415 0.0
C285 C 0.79517 0.0533 0.41124 0.0
C286 C 0.87719 0.04243 0.50913 0.0
O287 O 0.86742 0.11431 0.5154 0.0
O288 O 0.83721 0.0971 0.48195 0.0
O289 O 0.86211 0.0449 0.48336 0.0
O290 O 0.89331 0.06302 0.51462 0.0
O291 O 0.88938 0.0647 0.4242 0.0
H292 H 0.80663 0.0473 0.46405 0.0
H293 H 0.84835 0.08556 0.37979 0.0
O294 O 0.91998 0.0802 0.45764 0.0
O295 O 0.89544 0.13162 0.45842 0.0
O296 O 0.86415 0.11712 0.42561 0.0
C297 C 0.88072 0.13664 0.43328 0.0
H298 H 0.9796 0.14904 0.51194 0.0
H299 H 0.77415 0.04586 0.41215 0.0
Co300 Co 0.61879 0.16113 0.21172 0.0
C301 C 0.6425 0.11085 0.23513 0.0
Co302 Co 0.66368 0.16393 0.21122 0.0
C303 C 0.56524 0.15992 0.18448 0.0
C304 C 0.5648 0.14753 0.237 0.0
N305 N 0.58117 0.15842 0.21148 0.0
N306 N 0.53993 0.14954 0.19192 0.0
C307 C 0.53942 0.14186 0.22495 0.0
H308 H 0.57271 0.16596 0.15922 0.0
H309 H 0.57152 0.14178 0.26207 0.0
C310 C 0.63941 0.2154 0.18781 0.0
N311 N 0.70139 0.16478 0.21312 0.0
C312 C 0.71466 0.15167 0.23871 0.0
C313 C 0.72136 0.17416 0.19102 0.0
N314 N 0.7419 0.15163 0.23338 0.0
C315 C 0.74653 0.16617 0.20362 0.0
C316 C 0.64411 0.14284 0.15202 0.0
O317 O 0.61774 0.2005 0.19425 0.0
O318 O 0.66263 0.20371 0.19324 0.0
O319 O 0.66612 0.14948 0.16619 0.0
O320 O 0.62134 0.14794 0.16682 0.0
O321 O 0.66425 0.12522 0.22905 0.0
H322 H 0.71784 0.18503 0.16688 0.0
H323 H 0.70441 0.14151 0.26074 0.0
O324 O 0.61971 0.12238 0.22868 0.0
O325 O 0.61658 0.17293 0.2573 0.0
O326 O 0.66115 0.17642 0.25678 0.0
C327 C 0.63835 0.17704 0.27307 0.0
H328 H 0.52247 0.13137 0.23883 0.0
H329 H 0.76641 0.16958 0.1913 0.0
Co330 Co 0.65295 0.89904 0.96641 0.0
C331 C 0.69786 0.92051 0.99664 0.0
Co332 Co 0.65134 0.9467 0.97249 0.0
C333 C 0.65087 0.84367 0.93316 0.0
C334 C 0.66653 0.84005 0.98272 0.0
N335 N 0.65587 0.85924 0.96017 0.0
N336 N 0.65847 0.81577 0.93798 0.0
C337 C 0.66827 0.81357 0.96919 0.0
H338 H 0.64264 0.85279 0.91005 0.0
H339 H 0.67318 0.84513 1.00733 0.0
C340 C 0.60684 0.92387 0.94113 0.0
N341 N 0.64917 0.98638 0.98113 0.0
C342 C 0.65577 0.9987 1.00999 0.0
C343 C 0.63863 0.00813 0.96199 0.0
N344 N 0.64964 0.02713 1.00977 0.0
C345 C 0.63883 0.03301 0.97943 0.0
C346 C 0.67556 0.93232 0.91227 0.0
O347 O 0.6194 0.90039 0.94692 0.0
O348 O 0.61657 0.94748 0.95055 0.0
O349 O 0.67011 0.95407 0.92951 0.0
O350 O 0.66965 0.90716 0.92422 0.0
O351 O 0.68567 0.94455 0.99391 0.0
H352 H 0.63076 0.00596 0.93721 0.0
H353 H 0.66408 0.98672 0.03135 0.0
O354 O 0.68696 0.89837 0.9857 0.0
O355 O 0.6359 0.89166 1.00933 0.0
O356 O 0.63323 0.93829 1.01423 0.0
C357 C 0.62884 0.91287 0.02635 0.0
H358 H 0.67604 0.79409 0.98146 0.0
H359 H 0.63154 0.05384 0.97036 0.0
Co360 Co 0.88537 0.14571 0.8152 0.0
C361 C 0.8659 0.18231 0.86227 0.0
Co362 Co 0.87244 0.12425 0.86351 0.0
C363 C 0.90249 0.15344 0.747 0.0
C364 C 0.91214 0.19018 0.77419 0.0
N365 N 0.89787 0.16524 0.77654 0.0
N366 N 0.9203 0.16898 0.72711 0.0
C367 C 0.92602 0.19256 0.74357 0.0
H368 H 0.89489 0.13251 0.74126 0.0
H369 H 0.91472 0.20411 0.79468 0.0
C370 C 0.89078 0.08775 0.81594 0.0
N371 N 0.86176 0.10443 0.9035 0.0
C372 C 0.87545 0.08179 0.91717 0.0
C373 C 0.83989 0.10765 0.92441 0.0
N374 N 0.86301 0.07038 0.94551 0.0
C375 C 0.84064 0.08673 0.95036 0.0
C376 C 0.83037 0.12944 0.81489 0.0
O377 O 0.89604 0.1105 0.79823 0.0
O378 O 0.88033 0.08924 0.84517 0.0
O379 O 0.83497 0.12162 0.84563 0.0
O380 O 0.84987 0.14118 0.79713 0.0
O381 O 0.86413 0.16001 0.88201 0.0
H382 H 0.8242 0.12376 0.92069 0.0
H383 H 0.89425 0.07367 0.90625 0.0
O384 O 0.87443 0.18033 0.83221 0.0
O385 O 0.92107 0.14969 0.83218 0.0
O386 O 0.91022 0.12631 0.87952 0.0
C387 C 0.92849 0.13858 0.86014 0.0
H388 H 0.94108 0.20875 0.73548 0.0
H389 H 0.82542 0.08322 0.97049 0.0
Co390 Co 0.63394 0.13128 0.56794 0.0
C391 C 0.59402 0.11249 0.61812 0.0
Co392 Co 0.65162 0.11267 0.616 0.0
C393 C 0.62751 0.14446 0.4946 0.0
C394 C 0.59496 0.16048 0.52544 0.0
N395 N 0.61854 0.1456 0.52723 0.0
N396 N 0.6102 0.1578 0.47275 0.0
C397 C 0.58976 0.1678 0.49235 0.0
H398 H 0.64611 0.13369 0.48698 0.0
H399 H 0.5823 0.16586 0.54692 0.0
C400 C 0.69029 0.13197 0.56635 0.0
N401 N 0.66988 0.10084 0.65646 0.0
C402 C 0.69242 0.11412 0.66784 0.0
C403 C 0.66502 0.07907 0.67957 0.0
N404 N 0.70203 0.1016 0.69677 0.0
C405 C 0.68455 0.0795 0.70419 0.0
C406 C 0.64428 0.07219 0.5688 0.0
O407 O 0.66958 0.13842 0.549 0.0
O408 O 0.68667 0.12044 0.59571 0.0
O409 O 0.65276 0.07475 0.59859 0.0
O410 O 0.63494 0.09408 0.55243 0.0
O411 O 0.61493 0.10548 0.63554 0.0
H412 H 0.64853 0.06367 0.67851 0.0
H413 H 0.70157 0.13298 0.65501 0.0
O414 O 0.59794 0.12361 0.58832 0.0
O415 O 0.63376 0.1685 0.58427 0.0
O416 O 0.65034 0.14996 0.63129 0.0
C417 C 0.64237 0.17162 0.6136 0.0
H418 H 0.57228 0.17987 0.4834 0.0
H419 H 0.68604 0.0642 0.72546 0.0
Co420 Co 0.62838 0.89083 0.30864 0.0
C421 C 0.6453 0.84782 0.35474 0.0
Co422 Co 0.64477 0.90626 0.35531 0.0
C423 C 0.61818 0.8846 0.23874 0.0
C424 C 0.59906 0.85142 0.27052 0.0
N425 N 0.61464 0.87533 0.27113 0.0
N426 N 0.60556 0.86734 0.21796 0.0
C427 C 0.59361 0.84632 0.23775 0.0
H428 H 0.63029 0.9033 0.2305 0.0
H429 H 0.59226 0.8384 0.29251 0.0
C430 C 0.62843 0.94912 0.30795 0.0
N431 N 0.65758 0.92153 0.39401 0.0
C432 C 0.64566 0.94314 0.41019 0.0
C433 C 0.6798 0.91456 0.4119 0.0
N434 N 0.6595 0.95024 0.43739 0.0
C435 C 0.68103 0.93216 0.43861 0.0
C436 C 0.6856 0.90032 0.30439 0.0
O437 O 0.62125 0.92823 0.29112 0.0
O438 O 0.63914 0.94425 0.33635 0.0
O439 O 0.6814 0.90687 0.33484 0.0
O440 O 0.66508 0.89267 0.28787 0.0
O441 O 0.65049 0.86809 0.37365 0.0
H442 H 0.6943 0.898 0.40572 0.0
H443 H 0.62699 0.95341 0.40204 0.0
O444 O 0.63575 0.8536 0.32602 0.0
O445 O 0.59191 0.88931 0.32932 0.0
O446 O 0.60799 0.90548 0.37519 0.0
C447 C 0.5876 0.89718 0.35907 0.0
H448 H 0.58171 0.82872 0.22913 0.0
H449 H 0.69694 0.93212 0.45688 0.0
Co450 Co 0.89753 0.874 0.06633 0.0
C451 C 0.93821 0.88569 0.11286 0.0
Co452 Co 0.88076 0.88904 0.11554 0.0
C453 C 0.89939 0.86887 0.99316 0.0
C454 C 0.93281 0.84705 0.01676 0.0
N455 N 0.91076 0.86326 0.02362 0.0
N456 N 0.91348 0.85684 0.96766 0.0
C457 C 0.93458 0.84318 0.98267 0.0
H458 H 0.88118 0.88174 0.98971 0.0
H459 H 0.94654 0.83826 0.03541 0.0
C460 C 0.8417 0.87762 0.06896 0.0
N461 N 0.86307 0.89923 0.15662 0.0
C462 C 0.83816 0.88911 0.16825 0.0
C463 C 0.86891 0.92 0.17753 0.0
N464 N 0.82789 0.90295 0.19497 0.0
C465 C 0.84753 0.92225 0.20102 0.0
C466 C 0.88965 0.9336 0.06812 0.0
O467 O 0.86186 0.86984 0.05107 0.0
O468 O 0.84564 0.88653 0.09778 0.0
O469 O 0.88227 0.92822 0.09881 0.0
O470 O 0.89753 0.91309 0.05033 0.0
O471 O 0.91761 0.8915 0.13215 0.0
H472 H 0.88687 0.93363 0.17489 0.0
H473 H 0.8273 0.8723 0.1565 0.0
O474 O 0.93401 0.87841 0.08293 0.0
O475 O 0.89676 0.83495 0.08347 0.0
O476 O 0.87936 0.84995 0.13103 0.0
C477 C 0.8876 0.8295 0.11346 0.0
H478 H 0.95006 0.83076 0.97003 0.0
H479 H 0.84604 0.93801 0.21993 0.0
Co480 Co 0.67559 0.61541 0.81853 0.0
C481 C 0.66277 0.66908 0.84343 0.0
Co482 Co 0.63135 0.6233 0.82372 0.0
C483 C 0.72246 0.59791 0.78099 0.0
C484 C 0.73483 0.61329 0.82775 0.0
N485 N 0.71258 0.60906 0.80949 0.0
N486 N 0.74992 0.5949 0.78047 0.0
C487 C 0.75786 0.60472 0.8099 0.0
H488 H 0.70961 0.59258 0.76061 0.0
H489 H 0.73433 0.622 0.85234 0.0
C490 C 0.64372 0.57052 0.80079 0.0
N491 N 0.59446 0.62797 0.83085 0.0
C492 C 0.57838 0.60844 0.84787 0.0
C493 C 0.57728 0.64874 0.81959 0.0
N494 N 0.55197 0.61601 0.84794 0.0
C495 C 0.55088 0.64134 0.83012 0.0
C496 C 0.64956 0.6396 0.75973 0.0
O497 O 0.66815 0.57874 0.80362 0.0
O498 O 0.6241 0.58707 0.80741 0.0
O499 O 0.62853 0.63963 0.77923 0.0
O500 O 0.6723 0.63173 0.77216 0.0
O501 O 0.6384 0.66014 0.84032 0.0
H502 H 0.58351 0.66782 0.8046 0.0
H503 H 0.58577 0.5886 0.85955 0.0
O504 O 0.68273 0.65303 0.83489 0.0
O505 O 0.67804 0.5975 0.86392 0.0
O506 O 0.63395 0.60522 0.86819 0.0
C507 C 0.65538 0.59388 0.88046 0.0
H508 H 0.77874 0.60554 0.81808 0.0
H509 H 0.53251 0.65375 0.8257 0.0
Co510 Co 0.66072 0.43775 0.09383 0.0
C511 C 0.69047 0.40598 0.04959 0.0
Co512 Co 0.63617 0.41667 0.05716 0.0
C513 C 0.68332 0.45017 0.15643 0.0
C514 C 0.70479 0.47229 0.11519 0.0
N515 N 0.68281 0.45549 0.12297 0.0
N516 N 0.70548 0.46182 0.16992 0.0
C517 C 0.71879 0.47619 0.14396 0.0
H518 H 0.66861 0.43632 0.17014 0.0
H519 H 0.71146 0.47924 0.08991 0.0
C520 C 0.60653 0.4467 0.10438 0.0
N521 N 0.61362 0.39852 0.02897 0.0
C522 C 0.61868 0.39234 0.99685 0.0
C523 C 0.58935 0.38583 0.03752 0.0
N524 N 0.59871 0.37598 0.98507 0.0
C525 C 0.58007 0.37202 1.0105 0.0
C526 C 0.64602 0.38092 0.11485 0.0
O527 O 0.62968 0.45219 0.11593 0.0
O528 O 0.60526 0.43251 0.07823 0.0
O529 O 0.63352 0.38308 0.08741 0.0
O530 O 0.65918 0.40281 0.12359 0.0
O531 O 0.66772 0.40054 0.03672 0.0
H532 H 0.5795 0.38574 0.06221 0.0
H533 H 0.63693 0.39939 0.98263 0.0
O534 O 0.69147 0.42295 0.07317 0.0
O535 O 0.66276 0.47177 0.06291 0.0
O536 O 0.63897 0.44999 0.02617 0.0
C537 C 0.65219 0.47212 0.03401 0.0
H538 H 0.73863 0.4864 0.1449 0.0
H539 H 0.56164 0.35916 1.01005 0.0
Co540 Co 0.85819 0.35289 0.32614 0.0
C541 C 0.87488 0.29795 0.34889 0.0
Co542 Co 0.9027 0.34979 0.32995 0.0
C543 C 0.80695 0.37399 0.30326 0.0
C544 C 0.80137 0.34354 0.34503 0.0
N545 N 0.82077 0.35642 0.32452 0.0
N546 N 0.77977 0.37282 0.30974 0.0
C547 C 0.77599 0.35344 0.33575 0.0
H548 H 0.81662 0.38726 0.2831 0.0
H549 H 0.80543 0.32824 0.36565 0.0
C550 C 0.88611 0.40349 0.3074 0.0
N551 N 0.94003 0.34612 0.33188 0.0
C552 C 0.95775 0.36178 0.34867 0.0
C553 C 0.95539 0.32584 0.3176 0.0
N554 N 0.98352 0.35179 0.34578 0.0
C555 C 0.98213 0.32927 0.32609 0.0
C556 C 0.88367 0.33867 0.26568 0.0
O557 O 0.86255 0.39217 0.31174 0.0
O558 O 0.90718 0.38853 0.31369 0.0
O559 O 0.90444 0.33832 0.28417 0.0
O560 O 0.86025 0.34344 0.27921 0.0
O561 O 0.89832 0.31007 0.34678 0.0
H562 H 0.94752 0.30912 0.30276 0.0
H563 H 0.95168 0.3793 0.36399 0.0
O564 O 0.85413 0.31285 0.34052 0.0
O565 O 0.8562 0.36405 0.37227 0.0
O566 O 0.90083 0.36297 0.37491 0.0
C567 C 0.87772 0.36913 0.38817 0.0
H568 H 0.7564 0.34725 0.34741 0.0
H569 H 0.99912 0.31573 0.31911 0.0
Co570 Co 0.87148 0.56977 0.5601 0.0
C571 C 0.9162 0.59609 0.58837 0.0
Co572 Co 0.86746 0.61708 0.56692 0.0
C573 C 0.88059 0.51722 0.5232 0.0
C574 C 0.87001 0.50719 0.57487 0.0
N575 N 0.87537 0.52971 0.55283 0.0
N576 N 0.87849 0.48816 0.52588 0.0
C577 C 0.87177 0.48184 0.55845 0.0
H578 H 0.88477 0.52916 0.49958 0.0
H579 H 0.86442 0.50893 0.60112 0.0
C580 C 0.82274 0.59197 0.53899 0.0
N581 N 0.86187 0.65651 0.57142 0.0
C582 C 0.86295 0.67314 0.59823 0.0
C583 C 0.85158 0.67395 0.54676 0.0
N584 N 0.85332 0.69995 0.59107 0.0
C585 C 0.84622 0.70044 0.55875 0.0
C586 C 0.89045 0.60499 0.50545 0.0
O587 O 0.83668 0.56899 0.54009 0.0
O588 O 0.83251 0.61462 0.55011 0.0
O589 O 0.88216 0.62494 0.52348 0.0
O590 O 0.88825 0.57903 0.51681 0.0
O591 O 0.90218 0.61882 0.5836 0.0
H592 H 0.84711 0.66743 0.52189 0.0
H593 H 0.86932 0.66539 0.62285 0.0
O594 O 0.90672 0.57178 0.5806 0.0
O595 O 0.85407 0.56225 0.60442 0.0
O596 O 0.85317 0.609 0.61034 0.0
C597 C 0.84856 0.5836 0.62227 0.0
H598 H 0.86834 0.4604 0.56965 0.0
H599 H 0.83726 0.71858 0.545 0.0
Co600 Co 0.65463 0.39138 0.66004 0.0
C601 C 0.63425 0.4272 0.70875 0.0
Co602 Co 0.63901 0.36985 0.70714 0.0
C603 C 0.65018 0.43293 0.60656 0.0
C604 C 0.68845 0.41129 0.60128 0.0
N605 N 0.66563 0.41216 0.62109 0.0
N606 N 0.66225 0.44544 0.57864 0.0
C607 C 0.68642 0.4318 0.57502 0.0
H608 H 0.6302 0.43871 0.61645 0.0
H609 H 0.70549 0.39694 0.60578 0.0
C610 C 0.65835 0.33376 0.65815 0.0
N611 N 0.62691 0.34915 0.74512 0.0
C612 C 0.63434 0.35304 0.7767 0.0
C613 C 0.60839 0.32756 0.74784 0.0
N614 N 0.6211 0.33494 0.79908 0.0
C615 C 0.60451 0.31897 0.78125 0.0
C616 C 0.59807 0.37835 0.66018 0.0
O617 O 0.66447 0.35662 0.64077 0.0
O618 O 0.64743 0.3354 0.68726 0.0
O619 O 0.60245 0.36898 0.69004 0.0
O620 O 0.61831 0.38812 0.64217 0.0
O621 O 0.63053 0.40429 0.72693 0.0
H622 H 0.59798 0.31906 0.72698 0.0
H623 H 0.64831 0.36972 0.78334 0.0
O624 O 0.64436 0.42602 0.67921 0.0
O625 O 0.69108 0.39471 0.67895 0.0
O626 O 0.67543 0.37139 0.72473 0.0
C627 C 0.69523 0.38431 0.70875 0.0
H628 H 0.7018 0.43675 0.55543 0.0
H629 H 0.5903 0.30276 0.79171 0.0
Co630 Co 0.87088 0.39618 0.91314 0.0
C631 C 0.83102 0.38128 0.96082 0.0
Co632 Co 0.88734 0.38417 0.96442 0.0
C633 C 0.83247 0.39108 0.85854 0.0
C634 C 0.86086 0.42524 0.84664 0.0
N635 N 0.85492 0.40421 0.8703 0.0
N636 N 0.82386 0.40319 0.82885 0.0
C637 C 0.84203 0.42465 0.82135 0.0
H638 H 0.8223 0.37312 0.87203 0.0
H639 H 0.87725 0.44068 0.84817 0.0
C640 C 0.92819 0.39766 0.91462 0.0
N641 N 0.90003 0.37452 1.00843 0.0
C642 C 0.88623 0.37497 0.03865 0.0
C643 C 0.92459 0.36336 1.0162 0.0
N644 N 0.90107 0.36434 0.06487 0.0
C645 C 0.92534 0.35725 0.05043 0.0
C646 C 0.88134 0.33802 0.92601 0.0
O647 O 0.90768 0.40197 0.89575 0.0
O648 O 0.924 0.39037 0.9458 0.0
O649 O 0.88919 0.34567 0.95422 0.0
O650 O 0.87326 0.3568 0.90409 0.0
O651 O 0.85071 0.37804 0.98073 0.0
H652 H 0.94087 0.35933 0.99808 0.0
H653 H 0.86535 0.38235 0.04119 0.0
O654 O 0.83582 0.38988 0.93066 0.0
O655 O 0.86831 0.43599 0.92479 0.0
O656 O 0.88506 0.42287 0.97413 0.0
C657 C 0.87584 0.44235 0.95396 0.0
H658 H 0.84127 0.43973 0.79979 0.0
H659 H 0.94266 0.34816 0.06342 0.0
Co660 Co 0.87144 0.60326 0.16732 0.0
C661 C 0.88098 0.55826 0.21333 0.0
Co662 Co 0.88813 0.61723 0.21451 0.0
C663 C 0.87068 0.56956 0.10976 0.0
C664 C 0.83989 0.60196 0.10627 0.0
N665 N 0.8592 0.591 0.12667 0.0
N666 N 0.85975 0.56673 0.07936 0.0
C667 C 0.84013 0.58706 0.07721 0.0
H668 H 0.88707 0.55642 0.11972 0.0
H669 H 0.82705 0.62011 0.11173 0.0
C670 C 0.8784 0.66212 0.16772 0.0
N671 N 0.90141 0.62848 0.25442 0.0
C672 C 0.89612 0.61544 0.28489 0.0
C673 C 0.91993 0.64912 0.25965 0.0
N674 N 0.9108 0.62676 0.30896 0.0
C675 C 0.92566 0.6482 0.29332 0.0
C676 C 0.92973 0.60679 0.16743 0.0
O677 O 0.87063 0.6418 0.15029 0.0
O678 O 0.8864 0.65637 0.19742 0.0
O679 O 0.92504 0.6147 0.19701 0.0
O680 O 0.9093 0.60051 0.15 0.0
O681 O 0.88979 0.57804 0.2308 0.0
H682 H 0.92919 0.66334 0.24013 0.0
H683 H 0.88181 0.59779 0.28931 0.0
O684 O 0.87212 0.5647 0.18436 0.0
O685 O 0.83385 0.60638 0.18582 0.0
O686 O 0.85109 0.61965 0.23266 0.0
C687 C 0.83011 0.6137 0.21615 0.0
H688 H 0.8274 0.59151 0.05584 0.0
H689 H 0.94017 0.66166 0.30517 0.0
Co690 Co 0.6409 0.62827 0.41712 0.0
C691 C 0.67818 0.63283 0.46711 0.0
Co692 Co 0.62202 0.63803 0.46762 0.0
C693 C 0.68463 0.62871 0.36402 0.0
C694 C 0.64957 0.60531 0.3501 0.0
N695 N 0.65866 0.62121 0.37471 0.0
N696 N 0.69225 0.61794 0.33402 0.0
C697 C 0.66989 0.60333 0.32531 0.0
H698 H 0.6979 0.64154 0.37843 0.0
H699 H 0.62972 0.59495 0.35061 0.0
C700 C 0.58307 0.63307 0.4177 0.0
N701 N 0.60764 0.64545 0.5111 0.0
C702 C 0.6185 0.63941 0.54179 0.0
C703 C 0.58498 0.66076 0.5179 0.0
N704 N 0.60348 0.65034 0.56733 0.0
C705 C 0.58235 0.6637 0.55205 0.0
C706 C 0.63559 0.68664 0.42867 0.0
O707 O 0.60432 0.62894 0.39879 0.0
O708 O 0.58618 0.63699 0.44885 0.0
O709 O 0.62456 0.67754 0.45655 0.0
O710 O 0.64403 0.66874 0.40759 0.0
O711 O 0.65728 0.63884 0.48488 0.0
H712 H 0.57158 0.66995 0.49912 0.0
H713 H 0.63719 0.62735 0.54534 0.0
O714 O 0.67565 0.62756 0.43653 0.0
O715 O 0.63784 0.58791 0.42857 0.0
O716 O 0.62026 0.59844 0.47798 0.0
C717 C 0.62882 0.57981 0.45799 0.0
H718 H 0.6685 0.59101 0.30321 0.0
H719 H 0.56637 0.6756 0.56451 0.0
Co720 Co 0.39031 0.38782 0.20998 0.0
C721 C 0.37891 0.44137 0.23253 0.0
Co722 Co 0.34629 0.39681 0.21609 0.0
C723 C 0.44319 0.40169 0.18532 0.0
C724 C 0.44388 0.3613 0.21353 0.0
N725 N 0.42697 0.38247 0.20261 0.0
N726 N 0.4694 0.39352 0.18484 0.0
C727 C 0.47029 0.36818 0.20258 0.0
H728 H 0.43608 0.42173 0.17372 0.0
H729 H 0.43745 0.34231 0.22855 0.0
C730 C 0.35809 0.34278 0.1914 0.0
N731 N 0.30914 0.40443 0.22451 0.0
C732 C 0.29319 0.39485 0.25117 0.0
C733 C 0.29487 0.42646 0.21025 0.0
N734 N 0.27004 0.41043 0.25452 0.0
C735 C 0.27095 0.43021 0.22864 0.0
C736 C 0.36671 0.41626 0.15299 0.0
O737 O 0.3826 0.35151 0.19358 0.0
O738 O 0.3384 0.35889 0.20076 0.0
O739 O 0.34416 0.41355 0.16988 0.0
O740 O 0.388 0.4053 0.16578 0.0
O741 O 0.3543 0.43361 0.22986 0.0
H742 H 0.3023 0.44051 0.18946 0.0
H743 H 0.2994 0.37836 0.26949 0.0
O744 O 0.39818 0.42419 0.22631 0.0
O745 O 0.3931 0.37111 0.25372 0.0
O746 O 0.35001 0.38133 0.26322 0.0
C747 C 0.37273 0.37161 0.27408 0.0
H748 H 0.48852 0.35546 0.20669 0.0
H749 H 0.25607 0.44709 0.22429 0.0
Co750 Co 0.39181 0.59618 0.98893 0.0
C751 C 0.41544 0.56892 0.93559 0.0
Co752 Co 0.36251 0.58285 0.95226 0.0
C753 C 0.41349 0.61748 0.04853 0.0
C754 C 0.44382 0.61661 1.00884 0.0
N755 N 0.41777 0.60863 0.01735 0.0
N756 N 0.43542 0.63137 0.0594 0.0
C757 C 0.45479 0.6305 0.03482 0.0
H758 H 0.39415 0.61515 0.06239 0.0
H759 H 0.45361 0.6145 0.9844 0.0
C760 C 0.33844 0.61117 1.00396 0.0
N761 N 0.33827 0.57157 0.92143 0.0
C762 C 0.34176 0.57804 0.88831 0.0
C763 C 0.31288 0.56034 0.92529 0.0
N764 N 0.3193 0.57252 0.87119 0.0
C765 C 0.30108 0.56097 0.89427 0.0
C766 C 0.37053 0.54182 1.00601 0.0
O767 O 0.36259 0.61263 1.01473 0.0
O768 O 0.33422 0.59854 0.97728 0.0
O769 O 0.35774 0.54656 0.97877 0.0
O770 O 0.3873 0.56068 1.01494 0.0
O771 O 0.39112 0.56731 0.92601 0.0
H772 H 0.30295 0.55419 0.94925 0.0
H773 H 0.35992 0.58854 0.87728 0.0
O774 O 0.41988 0.57991 0.9632 0.0
O775 O 0.39645 0.632 0.96335 0.0
O776 O 0.36672 0.61987 0.92706 0.0
C777 C 0.38311 0.63849 0.93724 0.0
H778 H 0.47459 0.64097 0.03467 0.0
H779 H 0.27996 0.55582 0.88965 0.0
Co780 Co 0.11814 0.6593 0.71025 0.0
C781 C 0.14023 0.60767 0.73232 0.0
Co782 Co 0.163 0.66015 0.70953 0.0
C783 C 0.06421 0.65984 0.68358 0.0
C784 C 0.06389 0.64846 0.73635 0.0
N785 N 0.08036 0.65836 0.71042 0.0
N786 N 0.03865 0.65039 0.69158 0.0
C787 C 0.03824 0.64333 0.72475 0.0
H788 H 0.07162 0.66508 0.65811 0.0
H789 H 0.07067 0.64285 0.76142 0.0
C790 C 0.14178 0.7131 0.68836 0.0
N791 N 0.20059 0.65919 0.70967 0.0
C792 C 0.21432 0.64361 0.73287 0.0
C793 C 0.2195 0.66669 0.68529 0.0
N794 N 0.24061 0.63997 0.72358 0.0
C795 C 0.24442 0.65479 0.69391 0.0
C796 C 0.14241 0.64108 0.65002 0.0
O797 O 0.11895 0.6996 0.69251 0.0
O798 O 0.16377 0.69949 0.69451 0.0
O799 O 0.16431 0.64837 0.66378 0.0
O800 O 0.11968 0.64521 0.6654 0.0
O801 O 0.16225 0.62112 0.72483 0.0
H802 H 0.21502 0.67803 0.6617 0.0
H803 H 0.20476 0.63323 0.75523 0.0
O804 O 0.1176 0.62027 0.72771 0.0
O805 O 0.11698 0.67142 0.75583 0.0
O806 O 0.1617 0.67052 0.75604 0.0
C807 C 0.13891 0.67312 0.77204 0.0
H808 H 0.02113 0.63355 0.73905 0.0
H809 H 0.26315 0.65522 0.67866 0.0
Co810 Co 0.15267 0.39444 0.47283 0.0
C811 C 0.19569 0.41899 0.50228 0.0
Co812 Co 0.14768 0.44192 0.47647 0.0
C813 C 0.15037 0.33866 0.44212 0.0
C814 C 0.16949 0.3364 0.48975 0.0
N815 N 0.15701 0.35486 0.46793 0.0
N816 N 0.15859 0.31105 0.44691 0.0
C817 C 0.17063 0.30963 0.47685 0.0
H818 H 0.14037 0.34711 0.41984 0.0
H819 H 0.1776 0.34212 0.51342 0.0
C820 C 0.10483 0.41533 0.44633 0.0
N821 N 0.14408 0.48199 0.48339 0.0
C822 C 0.14023 0.49432 0.51336 0.0
C823 C 0.14755 0.50462 0.46101 0.0
N824 N 0.14118 0.52341 0.51059 0.0
C825 C 0.1459 0.52994 0.47759 0.0
C826 C 0.17465 0.42703 0.41764 0.0
O827 O 0.11944 0.39357 0.45358 0.0
O828 O 0.11293 0.44028 0.45375 0.0
O829 O 0.16691 0.44889 0.43346 0.0
O830 O 0.16965 0.40199 0.43057 0.0
O831 O 0.18208 0.44218 0.49876 0.0
H832 H 0.15157 0.50293 0.43437 0.0
H833 H 0.13777 0.48224 0.53719 0.0
O834 O 0.18615 0.39592 0.4921 0.0
O835 O 0.13575 0.3871 0.51553 0.0
O836 O 0.1292 0.43343 0.51846 0.0
C837 C 0.12671 0.40806 0.53158 0.0
H838 H 0.17949 0.29051 0.48869 0.0
H839 H 0.14786 0.5515 0.4662 0.0
Co840 Co 0.3833 0.64382 0.32069 0.0
C841 C 0.359 0.67753 0.36906 0.0
Co842 Co 0.36781 0.62064 0.36686 0.0
C843 C 0.39093 0.66611 0.25264 0.0
C844 C 0.41374 0.68954 0.28706 0.0
N845 N 0.39635 0.66711 0.28532 0.0
N846 N 0.40439 0.68683 0.23398 0.0
C847 C 0.41913 0.70142 0.25526 0.0
H848 H 0.37843 0.64966 0.24247 0.0
H849 H 0.42239 0.69645 0.30992 0.0
C850 C 0.39219 0.58725 0.31773 0.0
N851 N 0.3559 0.5983 0.40429 0.0
C852 C 0.37048 0.57674 0.41879 0.0
C853 C 0.33287 0.59974 0.42367 0.0
N854 N 0.35765 0.5645 0.44637 0.0
C855 C 0.33392 0.57895 0.4497 0.0
C856 C 0.3286 0.62622 0.31532 0.0
O857 O 0.39516 0.61063 0.30014 0.0
O858 O 0.38093 0.58727 0.34684 0.0
O859 O 0.33256 0.61598 0.34526 0.0
O860 O 0.34806 0.64033 0.30002 0.0
O861 O 0.35501 0.6544 0.38679 0.0
H862 H 0.3165 0.61493 0.41924 0.0
H863 H 0.39051 0.57043 0.40947 0.0
O864 O 0.37121 0.67695 0.34071 0.0
O865 O 0.41882 0.64638 0.34097 0.0
O866 O 0.40289 0.62501 0.38752 0.0
C867 C 0.42302 0.63637 0.37063 0.0
H868 H 0.43336 0.71868 0.24811 0.0
H869 H 0.31828 0.57452 0.46913 0.0
Co870 Co 0.13084 0.63222 0.06751 0.0
C871 C 0.09162 0.61382 0.11828 0.0
Co872 Co 0.14908 0.61415 0.11552 0.0
C873 C 0.12457 0.64427 0.99404 0.0
C874 C 0.09182 0.66081 0.02414 0.0
N875 N 0.11532 0.64587 0.02653 0.0
N876 N 0.10756 0.65743 0.97167 0.0
C877 C 0.08699 0.66776 0.99084 0.0
H878 H 0.14324 0.63338 0.98691 0.0
H879 H 0.07903 0.66656 0.04535 0.0
C880 C 0.18695 0.63303 0.06512 0.0
N881 N 0.16769 0.60263 0.15576 0.0
C882 C 0.19051 0.61557 0.16693 0.0
C883 C 0.16288 0.58069 0.17863 0.0
N884 N 0.20029 0.60264 0.19555 0.0
C885 C 0.18265 0.58066 0.20291 0.0
C886 C 0.14125 0.57324 0.06952 0.0
O887 O 0.16603 0.6392 0.04813 0.0
O888 O 0.18383 0.62174 0.09466 0.0
O889 O 0.15006 0.5762 0.09902 0.0
O890 O 0.13177 0.59488 0.05283 0.0
O891 O 0.11264 0.60713 0.13559 0.0
H892 H 0.14629 0.5654 0.17753 0.0
H893 H 0.19978 0.63437 0.1541 0.0
O894 O 0.09519 0.62472 0.08833 0.0
O895 O 0.13077 0.66963 0.08315 0.0
O896 O 0.14799 0.65147 0.13005 0.0
C897 C 0.13987 0.67297 0.11221 0.0
H898 H 0.0697 0.67993 0.9815 0.0
H899 H 0.1842 0.56508 0.22389 0.0
Co900 Co 0.1299 0.38792 0.81319 0.0
C901 C 0.14528 0.34749 0.86321 0.0
Co902 Co 0.14578 0.40612 0.85853 0.0
C903 C 0.11956 0.37989 0.74384 0.0
C904 C 0.10197 0.34623 0.77629 0.0
N905 N 0.11671 0.37076 0.77637 0.0
N906 N 0.10727 0.36203 0.72348 0.0
C907 C 0.09632 0.34068 0.74368 0.0
H908 H 0.13083 0.39904 0.73517 0.0
H909 H 0.09572 0.33322 0.79852 0.0
C910 C 0.13015 0.44656 0.8084 0.0
N911 N 0.15833 0.42285 0.89611 0.0
C912 C 0.14592 0.44435 0.91184 0.0
C913 C 0.18066 0.41658 0.9141 0.0
N914 N 0.15953 0.45199 0.93893 0.0
C915 C 0.18146 0.43448 0.94049 0.0
C916 C 0.18698 0.39733 0.80951 0.0
O917 O 0.12339 0.42471 0.79293 0.0
O918 O 0.14052 0.4432 0.83719 0.0
O919 O 0.1824 0.40567 0.83909 0.0
O920 O 0.16679 0.38842 0.79334 0.0
O921 O 0.15096 0.36917 0.87959 0.0
H922 H 0.1954 0.40013 0.90834 0.0
H923 H 0.12699 0.45399 0.9036 0.0
O924 O 0.13638 0.35126 0.83376 0.0
O925 O 0.09335 0.38781 0.83278 0.0
O926 O 0.10899 0.40647 0.87753 0.0
C927 C 0.08881 0.39737 0.86168 0.0
H928 H 0.08485 0.3226 0.73546 0.0
H929 H 0.19724 0.43492 0.9589 0.0
Co930 Co 0.39654 0.37433 0.57109 0.0
C931 C 0.43759 0.38408 0.61682 0.0
Co932 Co 0.38006 0.38917 0.6203 0.0
C933 C 0.39567 0.37496 0.49871 0.0
C934 C 0.42612 0.3456 0.51654 0.0
N935 N 0.408 0.36509 0.52717 0.0
N936 N 0.40484 0.36222 0.4707 0.0
C937 C 0.4243 0.34383 0.4821 0.0
H938 H 0.37933 0.39054 0.49905 0.0
H939 H 0.43906 0.33268 0.53287 0.0
C940 C 0.34035 0.37963 0.57465 0.0
N941 N 0.36369 0.3984 0.6621 0.0
C942 C 0.33935 0.38743 0.67433 0.0
C943 C 0.36927 0.41947 0.6827 0.0
N944 N 0.32906 0.40111 0.70106 0.0
C945 C 0.34817 0.42113 0.70662 0.0
C946 C 0.38963 0.43412 0.57467 0.0
O947 O 0.3604 0.37149 0.55688 0.0
O948 O 0.34441 0.3882 0.60357 0.0
O949 O 0.38207 0.42867 0.60523 0.0
O950 O 0.39719 0.41363 0.55678 0.0
O951 O 0.41709 0.39023 0.63607 0.0
H952 H 0.38666 0.43385 0.67936 0.0
H953 H 0.32876 0.37034 0.66275 0.0
O954 O 0.43338 0.37727 0.58669 0.0
O955 O 0.39522 0.335 0.58639 0.0
O956 O 0.37807 0.34967 0.63424 0.0
C957 C 0.38589 0.32933 0.61623 0.0
H958 H 0.4361 0.32942 0.46704 0.0
H959 H 0.34633 0.43706 0.7253 0.0
H960 H 0.30441 0.11654 0.26056 0.0
H961 H 0.2375 0.06489 0.2294 0.0
H962 H 0.26464 0.05103 0.18054 0.0
H963 H 0.30581 0.0578 0.14325 0.0
H964 H 0.37144 0.11162 0.17325 0.0
H965 H 0.34697 0.11965 0.22626 0.0
C966 C 0.29597 0.10183 0.24344 0.0
C967 C 0.26882 0.09219 0.24841 0.0
C968 C 0.31161 0.09419 0.21513 0.0
C969 C 0.25812 0.07324 0.22578 0.0
C970 C 0.27371 0.06511 0.1979 0.0
C971 C 0.31501 0.07048 0.16196 0.0
C972 C 0.34041 0.08388 0.15471 0.0
C973 C 0.30026 0.07601 0.19183 0.0
C974 C 0.35194 0.10093 0.17861 0.0
C975 C 0.33787 0.10572 0.20875 0.0
H976 H 0.11909 0.06016 0.41024 0.0
H977 H 0.20646 0.07291 0.41097 0.0
H978 H 0.20956 0.03691 0.45801 0.0
H979 H 0.18742 0.99943 0.49776 0.0
H980 H 0.10054 0.98503 0.49251 0.0
H981 H 0.09732 0.02377 0.44913 0.0
C982 C 0.13885 0.0554 0.42084 0.0
C983 C 0.16248 0.06966 0.40693 0.0
C984 C 0.14058 0.03406 0.44736 0.0
C985 C 0.18786 0.06256 0.421 0.0
C986 C 0.18965 0.04184 0.44799 0.0
C987 C 0.16778 1.00512 0.48742 0.0
C988 C 0.14415 0.9894 0.49882 0.0
C989 C 0.16617 0.02713 0.46128 0.0
C990 C 0.11899 0.99674 0.48447 0.0
C991 C 0.11714 0.01893 0.45951 0.0
H992 H 0.23684 0.88523 0.79023 0.0
H993 H 0.31273 0.92389 0.75205 0.0
H994 H 0.28844 0.95192 0.70955 0.0
H995 H 0.24651 0.96187 0.67957 0.0
H996 H 0.17 0.92501 0.71804 0.0
H997 H 0.19358 0.9004 0.76437 0.0
C998 C 0.24798 0.90009 0.77294 0.0
C999 C 0.27669 0.90167 0.77383 0.0
C1000 C 0.2338 0.91649 0.74847 0.0
C1001 C 0.29078 0.92127 0.75129 0.0
C1002 C 0.27686 0.93762 0.72707 0.0
C1003 C 0.23478 0.94913 0.69848 0.0
C1004 C 0.20657 0.94491 0.69485 0.0
C1005 C 0.24848 0.93486 0.72488 0.0
C1006 C 0.19186 0.92811 0.71974 0.0
C1007 C 0.20532 0.91402 0.74628 0.0
H1008 H 0.34741 0.91309 0.90538 0.0
H1009 H 0.4178 0.86589 0.94021 0.0
H1010 H 0.42151 0.89742 0.9869 0.0
H1011 H 0.40663 0.94038 1.01604 0.0
H1012 H 0.33772 0.98918 0.97959 0.0
H1013 H 0.33182 0.95551 0.93548 0.0
C1014 C 0.36321 0.90932 0.9236 0.0
C1015 C 0.38207 0.88676 0.91941 0.0
C1016 C 0.36581 0.92825 0.94992 0.0
C1017 C 0.40284 0.88281 0.94287 0.0
C1018 C 0.40508 0.901 0.96953 0.0
C1019 C 0.39011 0.94352 0.99873 0.0
C1020 C 0.3727 0.96752 1.00136 0.0
C1021 C 0.38697 0.9241 0.97305 0.0
C1022 C 0.35169 0.97126 0.97814 0.0
C1023 C 0.34818 0.95183 0.95293 0.0
H1024 H 0.31064 0.91601 0.26651 0.0
H1025 H 0.27614 0.87157 0.35585 0.0
H1026 H 0.23489 0.86096 0.3259 0.0
H1027 H 0.20733 0.86523 0.27457 0.0
H1028 H 0.24163 0.90997 0.18537 0.0
H1029 H 0.28354 0.91943 0.21489 0.0
C1030 C 0.29416 0.90408 0.27964 0.0
C1031 C 0.29707 0.89471 0.31384 0.0
C1032 C 0.27007 0.89802 0.26211 0.0
C1033 C 0.27516 0.87892 0.32972 0.0
C1034 C 0.25126 0.87292 0.31252 0.0
C1035 C 0.22401 0.87688 0.2614 0.0
C1036 C 0.22095 0.88675 0.22742 0.0
C1037 C 0.24834 0.88242 0.27872 0.0
C1038 C 0.24306 0.90194 0.21126 0.0
C1039 C 0.26717 0.90746 0.22826 0.0
H1040 H 0.4019 0.95481 0.51283 0.0
H1041 H 0.34169 0.98372 0.44189 0.0
H1042 H 0.33165 0.02534 0.47568 0.0
H1043 H 0.33775 0.05113 0.52827 0.0
H1044 H 0.39607 0.01762 0.59983 0.0
H1045 H 0.40877 0.98032 0.56293 0.0
C1046 C 0.3867 0.9703 0.50437 0.0
C1047 C 0.37248 0.96597 0.47484 0.0
C1048 C 0.38043 0.99332 0.5244 0.0
C1049 C 0.35311 0.98655 0.46432 0.0
C1050 C 0.34717 0.01018 0.4839 0.0
C1051 C 0.35319 0.0357 0.53592 0.0
C1052 C 0.36589 0.03778 0.56722 0.0
C1053 C 0.36025 0.01339 0.51454 0.0
C1054 C 0.38606 0.01742 0.57608 0.0
C1055 C 0.39336 0.99572 0.55492 0.0
H1056 H 0.23779 0.1241 0.83656 0.0
H1057 H 0.19081 0.08518 0.76118 0.0
H1058 H 0.23101 0.08525 0.72358 0.0
H1059 H 0.28076 0.09555 0.71133 0.0
H1060 H 0.32693 0.13522 0.78697 0.0
H1061 H 0.2865 0.13579 0.82385 0.0
C1062 C 0.23607 0.11581 0.81187 0.0
C1063 C 0.21068 0.10439 0.80252 0.0
C1064 C 0.25961 0.11601 0.78975 0.0
C1065 C 0.20969 0.0937 0.77003 0.0
C1066 C 0.2329 0.09386 0.74809 0.0
C1067 C 0.28199 0.10451 0.73575 0.0
C1068 C 0.30746 0.11531 0.74579 0.0
C1069 C 0.25817 0.10479 0.75759 0.0
C1070 C 0.30808 0.12666 0.77794 0.0
C1071 C 0.28474 0.12701 0.7994 0.0
H1072 H 0.13036 0.97703 0.07046 0.0
H1073 H 0.20325 0.95313 1.0146 0.0
H1074 H 0.19458 0.99099 0.97185 0.0
H1075 H 0.16867 0.03417 0.95308 0.0
H1076 H 0.09639 0.05766 1.00992 0.0
H1077 H 0.1019 0.01593 0.04869 0.0
C1078 C 0.14419 0.97951 0.04877 0.0
C1079 C 0.16774 0.9623 0.04646 0.0
C1080 C 0.13905 1.00125 0.02409 0.0
C1081 C 0.18532 0.96636 0.01785 0.0
C1082 C 0.18027 0.98794 0.99308 0.0
C1083 C 0.15371 0.02954 0.97334 0.0
C1084 C 0.13216 0.04882 0.97871 0.0
C1085 C 0.15752 0.00596 0.99629 0.0
C1086 C 0.11314 0.04301 1.00539 0.0
C1087 C 0.11639 0.01931 0.0277 0.0
H1088 H 0.75896 0.9401 0.78913 0.0
H1089 H 0.71057 0.86792 0.76218 0.0
H1090 H 0.67842 0.8755 0.80897 0.0
H1091 H 0.66717 0.89899 0.86093 0.0
H1092 H 0.71537 0.9708 0.8892 0.0
H1093 H 0.74442 0.96738 0.83815 0.0
C1094 C 0.74126 0.92619 0.79344 0.0
C1095 C 0.73734 0.90319 0.77253 0.0
C1096 C 0.72296 0.9306 0.82056 0.0
C1097 C 0.714 0.88574 0.77785 0.0
C1098 C 0.69572 0.88997 0.80471 0.0
C1099 C 0.68378 0.91422 0.8556 0.0
C1100 C 0.68941 0.93492 0.87884 0.0
C1101 C 0.70043 0.91182 0.82668 0.0
C1102 C 0.71067 0.95477 0.87157 0.0
C1103 C 0.72738 0.95261 0.84258 0.0
H1104 H 0.83347 0.0075 0.53303 0.0
H1105 H 0.92064 0.01891 0.54045 0.0
H1106 H 0.92194 0.9803 0.58408 0.0
H1107 H 0.89848 0.94523 0.62303 0.0
H1108 H 0.81096 0.93476 0.61955 0.0
H1109 H 0.80972 0.97046 0.57198 0.0
C1110 C 0.85278 1.00117 0.54381 0.0
C1111 C 0.87701 0.01622 0.53301 0.0
C1112 C 0.85334 0.97909 0.57004 0.0
C1113 C 0.9017 0.0079 0.54798 0.0
C1114 C 0.90247 0.98575 0.57312 0.0
C1115 C 0.87907 0.95037 0.61172 0.0
C1116 C 0.85485 0.93689 0.62513 0.0
C1117 C 0.87843 0.97147 0.58479 0.0
C1118 C 0.83 0.94444 0.60996 0.0
C1119 C 0.82928 0.96504 0.58268 0.0
H1120 H 0.73485 0.09929 0.26275 0.0
H1121 H 0.79114 0.17057 0.25209 0.0
H1122 H 0.81897 0.14845 0.29677 0.0
H1123 H 0.82339 0.11209 0.34307 0.0
H1124 H 0.76627 0.04112 0.3541 0.0
H1125 H 0.74213 0.0602 0.30508 0.0
C1126 C 0.7534 0.10977 0.27006 0.0
C1127 C 0.76086 0.13665 0.25475 0.0
C1128 C 0.76874 0.09723 0.29599 0.0
C1129 C 0.78516 0.14986 0.26366 0.0
C1130 C 0.80083 0.13732 0.28932 0.0
C1131 C 0.80613 0.10027 0.33441 0.0
C1132 C 0.79651 0.07525 0.35261 0.0
C1133 C 0.79231 0.11144 0.30631 0.0
C1134 C 0.77381 0.06063 0.34099 0.0
C1135 C 0.76007 0.07147 0.31289 0.0
H1136 H 0.61883 0.07395 0.02327 0.0
H1137 H 0.68855 0.02515 0.05709 0.0
H1138 H 0.69477 0.05807 0.10204 0.0
H1139 H 0.67948 0.10024 0.13336 0.0
H1140 H 0.60779 0.14671 0.10156 0.0
H1141 H 0.60365 0.11588 0.05426 0.0
C1142 C 0.63556 0.07061 0.04023 0.0
C1143 C 0.65322 0.0469 0.03645 0.0
C1144 C 0.63881 0.08953 0.06648 0.0
C1145 C 0.67446 0.04288 0.05932 0.0
C1146 C 0.67813 0.0619 0.08502 0.0
C1147 C 0.6633 0.10398 0.11565 0.0
C1148 C 0.64428 0.12629 0.12078 0.0
C1149 C 0.66039 0.08529 0.08901 0.0
C1150 C 0.62293 0.13009 0.0981 0.0
C1151 C 0.62045 0.11228 0.07108 0.0
H1152 H 0.81549 0.14371 0.75019 0.0
H1153 H 0.78449 0.10072 0.84216 0.0
H1154 H 0.74234 0.08836 0.81424 0.0
H1155 H 0.71418 0.08897 0.76292 0.0
H1156 H 0.74638 0.13185 0.67131 0.0
H1157 H 0.78751 0.14493 0.6998 0.0
C1158 C 0.7995 0.13179 0.7644 0.0
C1159 C 0.80351 0.12336 0.79861 0.0
C1160 C 0.77523 0.12459 0.74804 0.0
C1161 C 0.78227 0.10777 0.81606 0.0
C1162 C 0.75806 0.10056 0.79995 0.0
C1163 C 0.73016 0.10111 0.74905 0.0
C1164 C 0.72656 0.10941 0.71461 0.0
C1165 C 0.75429 0.10868 0.7658 0.0
C1166 C 0.74783 0.12539 0.69766 0.0
C1167 C 0.77167 0.13281 0.71401 0.0
H1168 H 0.62463 0.06155 0.50829 0.0
H1169 H 0.67051 0.02186 0.58903 0.0
H1170 H 0.67881 0.97981 0.55562 0.0
H1171 H 0.6747 0.95556 0.50191 0.0
H1172 H 0.63039 0.99809 0.42141 0.0
H1173 H 0.61984 0.03769 0.45645 0.0
C1174 C 0.63633 0.04368 0.5189 0.0
C1175 C 0.647 0.04499 0.55118 0.0
C1176 C 0.64143 0.02006 0.49942 0.0
C1177 C 0.66196 0.02144 0.56433 0.0
C1178 C 0.66685 0.99748 0.54511 0.0
C1179 C 0.66283 0.97352 0.49201 0.0
C1180 C 0.65326 0.97352 0.45892 0.0
C1181 C 0.65704 0.99676 0.51234 0.0
C1182 C 0.63764 0.99698 0.44678 0.0
C1183 C 0.63171 0.01986 0.46679 0.0
H1184 H 0.8113 0.91741 0.25798 0.0
H1185 H 0.78177 0.88206 0.16808 0.0
H1186 H 0.73586 0.87785 0.1936 0.0
H1187 H 0.70317 0.88475 0.2413 0.0
H1188 H 0.73263 0.91995 0.3313 0.0
H1189 H 0.77874 0.92378 0.30595 0.0
C1190 C 0.79488 0.90885 0.24384 0.0
C1191 C 0.80055 0.89996 0.21092 0.0
C1192 C 0.76811 0.90648 0.25877 0.0
C1193 C 0.77863 0.88869 0.19348 0.0
C1194 C 0.75209 0.88644 0.20806 0.0
C1195 C 0.71964 0.89323 0.25546 0.0
C1196 C 0.71403 0.90205 0.2884 0.0
C1197 C 0.74647 0.89529 0.24069 0.0
C1198 C 0.73597 0.91292 0.30606 0.0
C1199 C 0.76253 0.91516 0.2915 0.0
H1200 H 0.85412 0.05729 1.01206 0.0
H1201 H 0.88986 0.02496 0.92132 0.0
H1202 H 0.9034 0.98111 0.95211 0.0
H1203 H 0.90343 0.95085 1.00382 0.0
H1204 H 0.86689 0.98148 0.09503 0.0
H1205 H 0.8556 0.02704 0.06518 0.0
C1206 C 0.86481 0.0406 0.9991 0.0
C1207 C 0.87104 0.04459 0.9644 0.0
C1208 C 0.87252 0.01512 0.01705 0.0
C1209 C 0.88517 0.02281 0.94804 0.0
C1210 C 0.89282 0.99757 0.96561 0.0
C1211 C 0.89327 0.96756 0.0174 0.0
C1212 C 0.88602 0.96265 0.05167 0.0
C1213 C 0.88648 0.99343 1.00002 0.0
C1214 C 0.87284 0.98466 0.0687 0.0
C1215 C 0.86621 0.01067 0.05157 0.0
H1216 H 0.80279 0.60868 0.76545 0.0
H1217 H 0.73521 0.55852 0.7332 0.0
H1218 H 0.76153 0.54667 0.68287 0.0
H1219 H 0.80209 0.5551 0.64466 0.0
H1220 H 0.86859 0.6068 0.67655 0.0
H1221 H 0.84492 0.61268 0.73056 0.0
C1222 C 0.79399 0.59467 0.74783 0.0
C1223 C 0.76682 0.58501 0.75299 0.0
C1224 C 0.80921 0.58807 0.71872 0.0
C1225 C 0.7558 0.56695 0.72958 0.0
C1226 C 0.77093 0.55997 0.7008 0.0
C1227 C 0.81168 0.56679 0.66396 0.0
C1228 C 0.8371 0.58027 0.65691 0.0
C1229 C 0.79742 0.57102 0.69461 0.0
C1230 C 0.84909 0.59605 0.68167 0.0
C1231 C 0.83547 0.59963 0.71243 0.0
H1232 H 0.68837 0.57983 0.93544 0.0
H1233 H 0.61441 0.55535 0.88796 0.0
H1234 H 0.6068 0.51639 0.93011 0.0
H1235 H 0.62099 0.488 0.98026 0.0
H1236 H 0.69295 0.51309 0.03122 0.0
H1237 H 0.70128 0.55246 0.98871 0.0
C1238 C 0.67053 0.56608 0.93452 0.0
C1239 C 0.65181 0.57108 0.90848 0.0
C1240 C 0.66584 0.5435 0.95969 0.0
C1241 C 0.62887 0.55275 0.90789 0.0
C1242 C 0.62455 0.53013 0.93198 0.0
C1243 C 0.63846 0.50213 0.98223 0.0
C1244 C 0.6563 0.49732 1.00908 0.0
C1245 C 0.64284 0.52519 0.95801 0.0
C1246 C 0.67871 0.51618 1.01107 0.0
C1247 C 0.68357 0.53874 0.98658 0.0
H1248 H 0.69205 0.41483 0.21025 0.0
H1249 H 0.74513 0.48932 0.20211 0.0
H1250 H 0.77179 0.46907 0.24833 0.0
H1251 H 0.78353 0.42726 0.28531 0.0
H1252 H 0.73056 0.35307 0.2927 0.0
H1253 H 0.69961 0.37669 0.25283 0.0
C1254 C 0.70888 0.42724 0.21891 0.0
C1255 C 0.71695 0.45332 0.20185 0.0
C1256 C 0.72422 0.41539 0.24522 0.0
C1257 C 0.73891 0.46883 0.21403 0.0
C1258 C 0.75415 0.4573 0.24051 0.0
C1259 C 0.76499 0.41652 0.27841 0.0
C1260 C 0.75943 0.38838 0.29121 0.0
C1261 C 0.74763 0.43007 0.25527 0.0
C1262 C 0.73514 0.37474 0.28296 0.0
C1263 C 0.71761 0.38817 0.26008 0.0
H1264 H 0.84899 0.43994 0.51668 0.0
H1265 H 0.91658 0.49119 0.47517 0.0
H1266 H 0.92395 0.45737 0.43086 0.0
H1267 H 0.91052 0.41368 0.40281 0.0
H1268 H 0.83992 0.36516 0.44053 0.0
H1269 H 0.83456 0.39691 0.4874 0.0
C1270 C 0.86541 0.44358 0.49803 0.0
C1271 C 0.88233 0.46811 0.49946 0.0
C1272 C 0.86908 0.42431 0.47198 0.0
C1273 C 0.90321 0.47269 0.47465 0.0
C1274 C 0.9075 0.45323 0.44937 0.0
C1275 C 0.89425 0.40975 0.42165 0.0
C1276 C 0.87602 0.38655 0.41856 0.0
C1277 C 0.89055 0.42897 0.44769 0.0
C1278 C 0.85447 0.38248 0.44255 0.0
C1279 C 0.85133 0.40079 0.46928 0.0
H1280 H 0.7091 0.36705 0.77321 0.0
H1281 H 0.74204 0.41187 0.68332 0.0
H1282 H 0.7845 0.42125 0.71195 0.0
H1283 H 0.81236 0.41762 0.76307 0.0
H1284 H 0.77865 0.37329 0.85301 0.0
H1285 H 0.73711 0.36278 0.8238 0.0
C1286 C 0.72559 0.37871 0.75965 0.0
C1287 C 0.72204 0.3886 0.7258 0.0
C1288 C 0.75012 0.38422 0.77644 0.0
C1289 C 0.74389 0.40382 0.70915 0.0
C1290 C 0.76829 0.40928 0.72564 0.0
C1291 C 0.796 0.40573 0.77649 0.0
C1292 C 0.79925 0.39633 0.81063 0.0
C1293 C 0.77165 0.39977 0.75941 0.0
C1294 C 0.77746 0.38063 0.8269 0.0
C1295 C 0.75338 0.37469 0.81014 0.0
H1296 H 0.83095 0.54965 0.02634 0.0
H1297 H 0.9083 0.53868 0.07514 0.0
H1298 H 0.92115 0.50154 0.03763 0.0
H1299 H 0.90911 0.46894 0.99461 0.0
H1300 H 0.83295 0.47951 0.9439 0.0
H1301 H 0.82147 0.52071 0.97752 0.0
C1302 C 0.85078 0.5395 0.02853 0.0
C1303 C 0.86816 0.54664 0.05453 0.0
C1304 C 0.85842 0.51816 1.00627 0.0
C1305 C 0.89389 0.53316 0.0565 0.0
C1306 C 0.9015 0.512 0.0347 0.0
C1307 C 0.89027 0.48072 0.99036 0.0
C1308 C 0.87188 0.47123 0.96691 0.0
C1309 C 0.8837 0.50387 1.01008 0.0
C1310 C 0.84758 0.48664 0.96155 0.0
C1311 C 0.84088 0.50994 0.98111 0.0
H1312 H 0.81607 0.62733 0.28081 0.0
H1313 H 0.78015 0.60121 0.18984 0.0
H1314 H 0.73472 0.60064 0.2177 0.0
H1315 H 0.70486 0.60701 0.26828 0.0
H1316 H 0.74141 0.63245 0.35934 0.0
H1317 H 0.78629 0.63411 0.331 0.0
C1318 C 0.79835 0.62161 0.26688 0.0
C1319 C 0.80192 0.61436 0.23294 0.0
C1320 C 0.77208 0.62124 0.28319 0.0
C1321 C 0.77838 0.60696 0.21576 0.0
C1322 C 0.75225 0.60659 0.2318 0.0
C1323 C 0.72253 0.61282 0.28217 0.0
C1324 C 0.71909 0.61963 0.31637 0.0
C1325 C 0.74878 0.61357 0.26561 0.0
C1326 C 0.74273 0.62741 0.3332 0.0
C1327 C 0.7687 0.62821 0.31694 0.0
H1328 H 0.67408 0.46045 0.51297 0.0
H1329 H 0.62667 0.4854 0.59987 0.0
H1330 H 0.60852 0.52613 0.56773 0.0
H1331 H 0.60858 0.55697 0.51705 0.0
H1332 H 0.65845 0.53608 0.43061 0.0
H1333 H 0.67259 0.49124 0.46013 0.0
C1334 C 0.65983 0.47483 0.52481 0.0
C1335 C 0.6517 0.46955 0.55883 0.0
C1336 C 0.64971 0.49891 0.50622 0.0
C1337 C 0.63297 0.48836 0.57367 0.0
C1338 C 0.62261 0.51189 0.55533 0.0
C1339 C 0.62223 0.54246 0.50433 0.0
C1340 C 0.63256 0.54998 0.47175 0.0
C1341 C 0.63108 0.51755 0.52181 0.0
C1342 C 0.65007 0.53076 0.45566 0.0
C1343 C 0.65842 0.50528 0.47269 0.0
H1344 H 0.19595 0.38362 0.38311 0.0
H1345 H 0.18931 0.47608 0.37916 0.0
H1346 H 0.21727 0.47902 0.32682 0.0
H1347 H 0.2452 0.45506 0.28353 0.0
H1348 H 0.25255 0.36278 0.28988 0.0
H1349 H 0.22262 0.36001 0.34023 0.0
C1350 C 0.20041 0.40453 0.37085 0.0
C1351 C 0.19048 0.42965 0.38516 0.0
C1352 C 0.2167 0.40602 0.34126 0.0
C1353 C 0.19665 0.45643 0.36877 0.0
C1354 C 0.21266 0.45809 0.33886 0.0
C1355 C 0.23989 0.43435 0.2957 0.0
C1356 C 0.251 0.40907 0.28294 0.0
C1357 C 0.22298 0.43301 0.32502 0.0
C1358 C 0.24438 0.38245 0.29934 0.0
C1359 C 0.22726 0.38089 0.32806 0.0
H1360 H 0.32746 0.44674 0.11596 0.0
H1361 H 0.4143 0.42976 0.1187 0.0
H1362 H 0.42303 0.46611 0.07396 0.0
H1363 H 0.40701 0.50564 0.03623 0.0
H1364 H 0.32053 0.52054 0.02805 0.0
H1365 H 0.31079 0.48245 0.07193 0.0
C1366 C 0.34822 0.45062 0.10638 0.0
C1367 C 0.37012 0.43544 0.12149 0.0
C1368 C 0.35332 0.47154 0.07954 0.0
C1369 C 0.39687 0.44097 0.10826 0.0
C1370 C 0.40203 0.46197 0.08248 0.0
C1371 C 0.38601 0.50022 0.04369 0.0
C1372 C 0.36456 0.51596 0.02888 0.0
C1373 C 0.38056 0.47781 0.06834 0.0
C1374 C 0.33744 0.50859 0.0388 0.0
C1375 C 0.33187 0.48689 0.0641 0.0
H1376 H 0.28932 0.65185 0.74758 0.0
H1377 H 0.23061 0.58424 0.73808 0.0
H1378 H 0.25323 0.55421 0.78106 0.0
H1379 H 0.28437 0.55136 0.82821 0.0
H1380 H 0.34095 0.62097 0.84008 0.0
H1381 H 0.32523 0.64565 0.78919 0.0
C1382 C 0.28235 0.63011 0.75415 0.0
C1383 C 0.25849 0.62011 0.74026 0.0
C1384 C 0.29481 0.61354 0.77976 0.0
C1385 C 0.24906 0.59211 0.74887 0.0
C1386 C 0.2618 0.57513 0.77355 0.0
C1387 C 0.2935 0.57168 0.81925 0.0
C1388 C 0.31348 0.58434 0.83814 0.0
C1389 C 0.28382 0.58626 0.79037 0.0
C1390 C 0.3256 0.61051 0.82603 0.0
C1391 C 0.31647 0.62487 0.79697 0.0
H1392 H 0.11082 0.59519 0.63647 0.0
H1393 H 0.17814 0.6472 0.59563 0.0
H1394 H 0.18294 0.61629 0.54792 0.0
H1395 H 0.16907 0.57296 0.51866 0.0
H1396 H 0.10499 0.51839 0.56317 0.0
H1397 H 0.09797 0.55136 0.60838 0.0
C1398 C 0.12625 0.60004 0.61682 0.0
C1399 C 0.14372 0.62395 0.61933 0.0
C1400 C 0.12968 0.58134 0.5902 0.0
C1401 C 0.16419 0.62926 0.59416 0.0
C1402 C 0.16701 0.61145 0.56692 0.0
C1403 C 0.15348 0.56842 0.53818 0.0
C1404 C 0.13747 0.54319 0.53733 0.0
C1405 C 0.15006 0.58722 0.56478 0.0
C1406 C 0.11767 0.53746 0.56321 0.0
C1407 C 0.11358 0.55642 0.58904 0.0
H1408 H 0.21285 0.58799 0.26091 0.0
H1409 H 0.24456 0.63383 0.17095 0.0
H1410 H 0.28598 0.64575 0.19982 0.0
H1411 H 0.31433 0.64267 0.25043 0.0
H1412 H 0.283 0.59649 0.34026 0.0
H1413 H 0.24101 0.5853 0.31174 0.0
C1414 C 0.22877 0.6005 0.24741 0.0
C1415 C 0.22498 0.60995 0.2134 0.0
C1416 C 0.25299 0.60733 0.2643 0.0
C1417 C 0.24619 0.62643 0.197 0.0
C1418 C 0.27019 0.63319 0.21356 0.0
C1419 C 0.2983 0.63028 0.26395 0.0
C1420 C 0.3022 0.62058 0.29781 0.0
C1421 C 0.27394 0.62376 0.24722 0.0
C1422 C 0.28092 0.60442 0.31443 0.0
C1423 C 0.25675 0.59792 0.298 0.0
H1424 H 0.17419 0.45752 1.00343 0.0
H1425 H 0.12894 0.49871 0.92286 0.0
H1426 H 0.11686 0.53774 0.95807 0.0
H1427 H 0.12095 0.56166 1.00984 0.0
H1428 H 0.16831 0.52371 0.09028 0.0
H1429 H 0.17752 0.48175 0.05707 0.0
C1430 C 0.1618 0.47508 0.99355 0.0
C1431 C 0.15242 0.47493 0.96044 0.0
C1432 C 0.15522 0.49801 1.0139 0.0
C1433 C 0.13608 0.49779 0.94828 0.0
C1434 C 0.12926 0.52032 0.96837 0.0
C1435 C 0.13315 0.54418 0.02042 0.0
C1436 C 0.14406 0.54593 0.05247 0.0
C1437 C 0.1389 0.52076 1.001 0.0
C1438 C 0.15961 0.52289 0.0657 0.0
C1439 C 0.16503 0.49901 0.04661 0.0
H1440 H 0.3124 0.41538 0.76391 0.0
H1441 H 0.2834 0.37937 0.67411 0.0
H1442 H 0.2376 0.37439 0.6996 0.0
H1443 H 0.20484 0.38107 0.74707 0.0
H1444 H 0.2336 0.41733 0.83682 0.0
H1445 H 0.27975 0.42149 0.81172 0.0
C1446 C 0.2961 0.4065 0.74982 0.0
C1447 C 0.30184 0.39764 0.71698 0.0
C1448 C 0.26941 0.40376 0.76468 0.0
C1449 C 0.28016 0.38596 0.6995 0.0
C1450 C 0.25369 0.38327 0.71404 0.0
C1451 C 0.22119 0.3898 0.76124 0.0
C1452 C 0.21543 0.39886 0.79397 0.0
C1453 C 0.24797 0.39215 0.7466 0.0
C1454 C 0.23713 0.41012 0.8117 0.0
C1455 C 0.26368 0.41256 0.7973 0.0
H1456 H 0.40623 0.45151 0.51162 0.0
H1457 H 0.36341 0.48103 0.5995 0.0
H1458 H 0.34999 0.52486 0.56745 0.0
H1459 H 0.34768 0.55301 0.51294 0.0
H1460 H 0.38934 0.52131 0.42546 0.0
H1461 H 0.40578 0.48005 0.45887 0.0
C1462 C 0.39427 0.46767 0.52403 0.0
C1463 C 0.38577 0.46291 0.55791 0.0
C1464 C 0.38609 0.49229 0.50533 0.0
C1465 C 0.37037 0.48419 0.57349 0.0
C1466 C 0.36246 0.50913 0.55508 0.0
C1467 C 0.36029 0.537 0.50128 0.0
C1468 C 0.36726 0.5403 0.46673 0.0
C1469 C 0.36965 0.51307 0.52073 0.0
C1470 C 0.38394 0.51956 0.45203 0.0
C1471 C 0.39329 0.49586 0.4711 0.0
H1472 H 0.196 0.27083 0.4333 0.0
H1473 H 0.11413 0.29854 0.41157 0.0
H1474 H 0.10749 0.25625 0.37856 0.0
H1475 H 0.1246 0.21011 0.35786 0.0
H1476 H 0.20771 0.18448 0.37712 0.0
H1477 H 0.21427 0.22706 0.40905 0.0
C1478 C 0.17675 0.26759 0.42122 0.0
C1479 C 0.15548 0.28759 0.4251 0.0
C1480 C 0.1733 0.2435 0.40195 0.0
C1481 C 0.1308 0.28347 0.40884 0.0
C1482 C 0.12698 0.25922 0.39015 0.0
C1483 C 0.14416 0.21393 0.36896 0.0
C1484 C 0.16557 0.19395 0.3653 0.0
C1485 C 0.148 0.23888 0.38683 0.0
C1486 C 0.1909 0.19945 0.37949 0.0
C1487 C 0.19466 0.22378 0.39785 0.0
H1488 H 0.04693 0.92348 0.57061 0.0
H1489 H 0.08706 0.97047 0.64557 0.0
H1490 H 0.04583 0.96663 0.68184 0.0
H1491 H 1.00202 0.94261 0.69578 0.0
H1492 H 0.96528 0.89015 0.62331 0.0
H1493 H 1.00175 0.90334 0.58241 0.0
C1494 C 0.04655 0.93341 0.59459 0.0
C1495 C 0.07017 0.9465 0.60589 0.0
C1496 C 0.02365 0.92949 0.61603 0.0
C1497 C 0.06917 0.95987 0.63661 0.0
C1498 C 0.04575 0.95742 0.65747 0.0
C1499 C 1.00207 0.93395 0.67113 0.0
C1500 C 0.98133 0.91496 0.66282 0.0
C1501 C 0.02353 0.94088 0.64815 0.0
C1502 C 0.98107 0.90475 0.63034 0.0
C1503 C 1.00192 0.91224 0.60696 0.0
H1504 H 0.41583 0.76451 0.88205 0.0
H1505 H 0.33264 0.76436 0.84901 0.0
H1506 H 0.32714 0.71433 0.87057 0.0
H1507 H 0.34579 0.67045 0.90035 0.0
H1508 H 0.42813 0.67269 0.93612 0.0
H1509 H 0.4341 0.72157 0.91186 0.0
C1510 C 0.39646 0.75359 0.87942 0.0
C1511 C 0.37471 0.76842 0.86374 0.0
C1512 C 0.39329 0.72492 0.89241 0.0
C1513 C 0.34976 0.75371 0.86095 0.0
C1514 C 0.34661 0.72498 0.87326 0.0
C1515 C 0.36511 0.68157 0.90252 0.0
C1516 C 0.38655 0.66767 0.91997 0.0
C1517 C 0.36821 0.7103 0.88918 0.0
C1518 C 0.41128 0.68269 0.92291 0.0
C1519 C 0.41472 0.71076 0.90904 0.0
H1520 H 0.45425 0.14004 0.08054 0.0
H1521 H 0.44269 0.05606 0.12998 0.0
H1522 H 0.47989 0.06558 0.16779 0.0
H1523 H 0.51252 0.09987 0.18991 0.0
H1524 H 0.5237 0.18354 0.13998 0.0
H1525 H 0.48935 0.17231 0.09915 0.0
C1526 C 0.46019 0.12363 0.09926 0.0
C1527 C 0.44572 0.09752 0.10281 0.0
C1528 C 0.481 0.12949 0.12111 0.0
C1529 C 0.45371 0.07626 0.12677 0.0
C1530 C 0.4747 0.08185 0.1486 0.0
C1531 C 0.50722 0.11558 0.17014 0.0
C1532 C 0.51994 0.1427 0.16811 0.0
C1533 C 0.48785 0.10874 0.14663 0.0
C1534 C 0.51377 0.1627 0.14195 0.0
C1535 C 0.4943 0.15624 0.11869 0.0
H1536 H 0.16065 0.78386 0.1885 0.0
H1537 H 0.1631 0.82241 0.08757 0.0
H1538 H 0.15651 0.775 0.06515 0.0
H1539 H 0.14631 0.72322 0.07519 0.0
H1540 H 0.14273 0.68627 0.17699 0.0
H1541 H 0.15265 0.73293 0.19836 0.0
C1542 C 0.16008 0.78188 0.16153 0.0
C1543 C 0.16207 0.80641 0.13966 0.0
C1544 C 0.15534 0.75508 0.14915 0.0
C1545 C 0.16172 0.80364 0.10481 0.0
C1546 C 0.15758 0.77667 0.09208 0.0
C1547 C 0.14742 0.72557 0.10203 0.0
C1548 C 0.14345 0.70162 0.12459 0.0
C1549 C 0.15354 0.7524 0.11414 0.0
C1550 C 0.14552 0.70458 0.15925 0.0
C1551 C 0.15136 0.73112 0.17146 0.0
H1552 H 0.53821 0.89663 0.32788 0.0
H1553 H 0.57291 0.89715 0.42594 0.0
H1554 H 0.52695 0.89604 0.4522 0.0
H1555 H 0.47642 0.89449 0.44761 0.0
H1556 H 0.44193 0.89684 0.34922 0.0
H1557 H 0.48783 0.89741 0.32318 0.0
C1558 C 0.53575 0.89645 0.35501 0.0
C1559 C 0.55924 0.89676 0.3748 0.0
C1560 C 0.50907 0.89642 0.37005 0.0
C1561 C 0.55541 0.8969 0.40994 0.0
C1562 C 0.52902 0.89625 0.42505 0.0
C1563 C 0.47891 0.89525 0.42046 0.0
C1564 C 0.45543 0.89557 0.40056 0.0
C1565 C 0.50563 0.89597 0.40541 0.0
C1566 C 0.45935 0.89668 0.36536 0.0
C1567 C 0.48573 0.89691 0.35034 0.0
H1568 H 0.381 0.27998 0.58322 0.0
H1569 H 0.38769 0.3121 0.68208 0.0
H1570 H 0.38573 0.26324 0.70722 0.0
H1571 H 0.38255 0.21141 0.70127 0.0
H1572 H 0.37321 0.17886 0.60305 0.0
H1573 H 0.37552 0.22778 0.57756 0.0
C1574 C 0.38209 0.27618 0.61023 0.0
C1575 C 0.38465 0.29954 0.63075 0.0
C1576 C 0.38034 0.248 0.62466 0.0
C1577 C 0.38567 0.29444 0.66576 0.0
C1578 C 0.38458 0.26652 0.68017 0.0
C1579 C 0.38093 0.21503 0.67429 0.0
C1580 C 0.37783 0.19158 0.65408 0.0
C1581 C 0.38194 0.24315 0.65989 0.0
C1582 C 0.37551 0.1966 0.61919 0.0
C1583 C 0.37695 0.22455 0.60457 0.0
H1584 H 0.05911 0.14079 0.86201 0.0
H1585 H 0.04308 0.11139 0.96508 0.0
H1586 H 0.99382 0.11183 0.95609 0.0
H1587 H 0.95449 0.1215 0.91907 0.0
H1588 H 0.97089 0.15416 0.81702 0.0
H1589 H 0.01988 0.1517 0.82557 0.0
C1590 C 0.04483 0.13419 0.88236 0.0
C1591 C 0.05499 0.1258 0.9141 0.0
C1592 C 0.0162 0.13537 0.87733 0.0
C1593 C 0.03599 0.11789 0.94033 0.0
C1594 C 1.00769 0.11819 0.93524 0.0
C1595 C 0.96875 0.1282 0.89876 0.0
C1596 C 0.95856 0.13807 0.86745 0.0
C1597 C 0.99741 0.12713 0.90391 0.0
C1598 C 0.97772 0.14662 0.84153 0.0
C1599 C 1.00599 0.14511 0.84629 0.0
H1600 H 0.82038 0.81158 0.66319 0.0
H1601 H 0.90528 0.80675 0.68954 0.0
H1602 H 0.9098 0.76066 0.66382 0.0
H1603 H 0.89057 0.72299 0.62999 0.0
H1604 H 0.80689 0.72958 0.60012 0.0
H1605 H 0.80077 0.77314 0.63114 0.0
C1606 C 0.83976 0.80028 0.6636 0.0
C1607 C 0.86244 0.81273 0.67819 0.0
C1608 C 0.84245 0.77395 0.64802 0.0
C1609 C 0.8875 0.79783 0.67827 0.0
C1610 C 0.89013 0.77138 0.6636 0.0
C1611 C 0.87093 0.73377 0.63095 0.0
C1612 C 0.84916 0.72315 0.61307 0.0
C1613 C 0.86789 0.7594 0.64791 0.0
C1614 C 0.82388 0.73749 0.61381 0.0
C1615 C 0.82043 0.76241 0.63143 0.0
H1616 H 1.00285 0.10068 0.32428 0.0
H1617 H 0.05415 0.07595 0.40685 0.0
H1618 H 0.01498 0.05381 0.43788 0.0
H1619 H 0.96518 0.05018 0.44541 0.0
H1620 H 0.91338 0.07582 0.36362 0.0
H1621 H 0.95371 0.08784 0.32769 0.0
C1622 C 1.00535 0.09 0.34884 0.0
C1623 C 0.03098 0.09043 0.36374 0.0
C1624 C 0.98274 0.07739 0.36647 0.0
C1625 C 0.03445 0.07599 0.39513 0.0
C1626 C 0.0121 0.06341 0.41286 0.0
C1627 C 0.96284 0.05727 0.41927 0.0
C1628 C 0.93657 0.06255 0.40718 0.0
C1629 C 0.98599 0.06509 0.39933 0.0
C1630 C 0.93352 0.07153 0.37333 0.0
C1631 C 0.95655 0.07889 0.353 0.0
H1632 H 0.61167 0.3348 0.1115 0.0
H1633 H 0.68368 0.36203 0.16097 0.0
H1634 H 0.68881 0.31353 0.18706 0.0
H1635 H 0.67359 0.26224 0.19446 0.0
H1636 H 0.59964 0.23682 0.14762 0.0
H1637 H 0.59473 0.28522 0.122 0.0
C1638 C 0.62838 0.33027 0.12824 0.0
C1639 C 0.64728 0.3523 0.13407 0.0
C1640 C 0.63104 0.30231 0.1435 0.0
C1641 C 0.66868 0.34577 0.15605 0.0
C1642 C 0.67174 0.31786 0.17086 0.0
C1643 C 0.65643 0.26732 0.17861 0.0
C1644 C 0.63714 0.24558 0.17284 0.0
C1645 C 0.65323 0.29576 0.1645 0.0
C1646 C 0.61482 0.25288 0.1526 0.0
C1647 C 0.61198 0.28067 0.13786 0.0
H1648 H 0.49126 0.89496 0.89212 0.0
H1649 H 0.54115 0.84828 0.82242 0.0
H1650 H 0.58221 0.87072 0.84221 0.0
H1651 H 0.60407 0.89889 0.88346 0.0
H1652 H 0.55531 0.94426 0.95503 0.0
H1653 H 0.51326 0.92819 0.92918 0.0
C1654 C 0.51103 0.89013 0.88075 0.0
C1655 C 0.51316 0.86953 0.85621 0.0
C1656 C 0.5346 0.90311 0.89234 0.0
C1657 C 0.539 0.86342 0.84194 0.0
C1658 C 0.56246 0.87645 0.853 0.0
C1659 C 0.58417 0.90589 0.89274 0.0
C1660 C 0.58245 0.92255 0.92095 0.0
C1661 C 0.5605 0.89566 0.87875 0.0
C1662 C 0.55687 0.93164 0.93303 0.0
C1663 C 0.53296 0.9221 0.91858 0.0
H1664 H 0.85603 0.31414 0.87516 0.0
H1665 H 0.90174 0.29307 0.96411 0.0
H1666 H 0.89715 0.24195 0.95504 0.0
H1667 H 0.88268 0.20345 0.91964 0.0
H1668 H 0.83921 0.22515 0.82937 0.0
H1669 H 0.8396 0.2759 0.84168 0.0
C1670 C 0.8651 0.29838 0.89249 0.0
C1671 C 0.8795 0.30731 0.91994 0.0
C1672 C 0.86235 0.26917 0.88721 0.0
C1673 C 0.89075 0.28666 0.94254 0.0
C1674 C 0.88802 0.25745 0.93751 0.0
C1675 C 0.87266 0.21931 0.90332 0.0
C1676 C 0.86075 0.21094 0.87391 0.0
C1677 C 0.87404 0.24848 0.90979 0.0
C1678 C 0.84833 0.23144 0.8523 0.0
C1679 C 0.84878 0.26036 0.85913 0.0
H1680 H 0.48055 0.10544 0.70191 0.0
H1681 H 0.44827 0.10926 0.60237 0.0
H1682 H 0.49499 0.11062 0.57793 0.0
H1683 H 0.54541 0.11229 0.58472 0.0
H1684 H 0.57738 0.10555 0.68445 0.0
H1685 H 0.53073 0.10366 0.70866 0.0
C1686 C 0.48366 0.10646 0.67482 0.0
C1687 C 0.46061 0.10746 0.6541 0.0
C1688 C 0.51073 0.10675 0.66089 0.0
C1689 C 0.46535 0.10845 0.61906 0.0
C1690 C 0.49219 0.10931 0.60504 0.0
C1691 C 0.54223 0.11024 0.61178 0.0
C1692 C 0.56524 0.10921 0.63264 0.0
C1693 C 0.5151 0.10871 0.62566 0.0
C1694 C 0.56038 0.10632 0.66764 0.0
C1695 C 0.53357 0.10534 0.68156 0.0
H1696 H 0.63721 0.82225 0.41716 0.0
H1697 H 0.66177 0.80563 0.31526 0.0
H1698 H 0.66256 0.7541 0.3296 0.0
H1699 H 0.65279 0.71367 0.36978 0.0
H1700 H 0.62545 0.72972 0.47102 0.0
H1701 H 0.62912 0.78141 0.45829 0.0
C1702 C 0.64322 0.80729 0.3984 0.0
C1703 C 0.64946 0.81752 0.36532 0.0
C1704 C 0.64272 0.77758 0.40653 0.0
C1705 C 0.65683 0.79806 0.34093 0.0
C1706 C 0.65719 0.76864 0.34905 0.0
C1707 C 0.64777 0.72846 0.38912 0.0
C1708 C 0.63867 0.71786 0.42115 0.0
C1709 C 0.64955 0.75812 0.38155 0.0
C1710 C 0.63229 0.73733 0.44598 0.0
C1711 C 0.63445 0.76691 0.4388 0.0
H1712 H 0.98712 0.88774 0.07637 0.0
H1713 H 0.95416 0.88353 0.17817 0.0
H1714 H 1.00049 0.8806 0.19953 0.0
H1715 H 0.05064 0.87851 0.18965 0.0
H1716 H 0.08405 0.88613 0.08819 0.0
H1717 H 0.03762 0.88838 0.06654 0.0
C1718 C 0.99004 0.88631 0.10326 0.0
C1719 C 0.96687 0.88578 0.12556 0.0
C1720 C 0.01699 0.88508 0.11551 0.0
C1721 C 0.97134 0.88411 0.16031 0.0
C1722 C 0.99794 0.8823 0.17259 0.0
C1723 C 0.04781 0.88056 0.16276 0.0
C1724 C 0.07103 0.88179 0.14061 0.0
C1725 C 0.02095 0.8826 0.15048 0.0
C1726 C 0.06675 0.885 0.10588 0.0
C1727 C 0.04011 0.8863 0.09347 0.0
H1728 H 0.62791 0.71489 0.84697 0.0
H1729 H 0.70824 0.68613 0.87537 0.0
H1730 H 0.71438 0.72951 0.90618 0.0
H1731 H 0.69586 0.7744 0.92796 0.0
H1732 H 0.61678 0.8047 0.89737 0.0
H1733 H 0.61129 0.76229 0.86425 0.0
C1734 C 0.64687 0.71823 0.85965 0.0
C1735 C 0.66752 0.69703 0.85901 0.0
C1736 C 0.65043 0.74354 0.87702 0.0
C1737 C 0.69204 0.70197 0.87532 0.0
C1738 C 0.69551 0.72677 0.89311 0.0
C1739 C 0.67751 0.77177 0.91384 0.0
C1740 C 0.65661 0.79256 0.91541 0.0
C1741 C 0.6747 0.74749 0.89458 0.0
C1742 C 0.63315 0.78911 0.89652 0.0
C1743 C 0.62998 0.76475 0.87775 0.0
H1744 H 0.55496 0.44906 0.08304 0.0
H1745 H 0.60247 0.449 0.17242 0.0
H1746 H 0.56244 0.43321 0.20674 0.0
H1747 H 0.51647 0.4107 0.20941 0.0
H1748 H 0.46955 0.4105 0.11991 0.0
H1749 H 0.50697 0.43454 0.08713 0.0
C1750 C 0.55624 0.44654 0.11018 0.0
C1751 C 0.58156 0.4495 0.12517 0.0
C1752 C 0.53359 0.43636 0.12944 0.0
C1753 C 0.58309 0.44671 0.16033 0.0
C1754 C 0.56036 0.43717 0.1799 0.0
C1755 C 0.51468 0.41613 0.18277 0.0
C1756 C 0.49105 0.40837 0.16654 0.0
C1757 C 0.53603 0.43033 0.16441 0.0
C1758 C 0.48806 0.41604 0.13237 0.0
C1759 C 0.50925 0.42986 0.11383 0.0
H1760 H 0.9141 0.26114 0.37367 0.0
H1761 H 0.82823 0.26474 0.35199 0.0
H1762 H 0.82247 0.21475 0.37316 0.0
H1763 H 0.8415 0.16992 0.40054 0.0
H1764 H 0.92707 0.16806 0.42401 0.0
H1765 H 0.93315 0.21669 0.39935 0.0
C1766 C 0.89411 0.25103 0.3734 0.0
C1767 C 0.87167 0.26702 0.3612 0.0
C1768 C 0.89082 0.22221 0.38601 0.0
C1769 C 0.84595 0.25324 0.36125 0.0
C1770 C 0.84261 0.2245 0.37337 0.0
C1771 C 0.86152 0.18003 0.39975 0.0
C1772 C 0.8838 0.1651 0.41412 0.0
C1773 C 0.86485 0.20871 0.38611 0.0
C1774 C 0.90952 0.17888 0.41326 0.0
C1775 C 0.91305 0.20684 0.39919 0.0
H1776 H 0.9501 0.64146 0.58334 0.0
H1777 H 0.94012 0.55699 0.63194 0.0
H1778 H 0.97813 0.56642 0.66865 0.0
H1779 H 0.01126 0.60068 0.69 0.0
H1780 H 0.02136 0.68458 0.64038 0.0
H1781 H 0.98585 0.67364 0.60085 0.0
C1782 C 0.95656 0.62494 0.60164 0.0
C1783 C 0.94233 0.59868 0.60527 0.0
C1784 C 0.97797 0.63069 0.62273 0.0
C1785 C 0.95096 0.57729 0.62867 0.0
C1786 C 0.97242 0.58282 0.64986 0.0
C1787 C 1.00549 0.61648 0.67055 0.0
C1788 C 0.01822 0.64361 0.66828 0.0
C1789 C 0.9855 0.60977 0.64772 0.0
C1790 C 0.01143 0.66375 0.64254 0.0
C1791 C 0.99128 0.65745 0.62004 0.0
H1792 H 0.65623 0.28272 0.69258 0.0
H1793 H 0.66439 0.32145 0.59193 0.0
H1794 H 0.65934 0.27416 0.56884 0.0
H1795 H 0.64978 0.22224 0.57769 0.0
H1796 H 0.64196 0.18447 0.67887 0.0
H1797 H 0.64909 0.23134 0.70145 0.0
C1798 C 0.65719 0.28082 0.66556 0.0
C1799 C 0.66046 0.30543 0.64395 0.0
C1800 C 0.65376 0.25392 0.65264 0.0
C1801 C 0.662 0.30268 0.60904 0.0
C1802 C 0.65882 0.27575 0.59586 0.0
C1803 C 0.64939 0.22443 0.60465 0.0
C1804 C 0.64499 0.2002 0.62666 0.0
C1805 C 0.65405 0.25134 0.61747 0.0
C1806 C 0.64514 0.20299 0.66152 0.0
C1807 C 0.64934 0.22967 0.67443 0.0
H1808 H 0.97686 0.39947 0.94728 0.0
H1809 H 0.94388 0.3989 0.84819 0.0
H1810 H 0.99012 0.39811 0.82328 0.0
H1811 H 0.04024 0.39664 0.82934 0.0
H1812 H 0.07345 0.4 0.92797 0.0
H1813 H 0.02714 0.40058 0.95311 0.0
C1814 C 0.97977 0.39932 0.92022 0.0
C1815 C 0.9567 0.39918 0.89976 0.0
C1816 C 1.00661 0.39921 0.90587 0.0
C1817 C 0.96106 0.39913 0.86468 0.0
C1818 C 0.9876 0.39856 0.85034 0.0
C1819 C 0.03735 0.39745 0.85635 0.0
C1820 C 0.06043 0.39802 0.8767 0.0
C1821 C 1.01056 0.39839 0.87065 0.0
C1822 C 0.05618 0.39949 0.91164 0.0
C1823 C 0.02963 0.39981 0.92607 0.0
H1824 H 0.88456 0.77974 0.08103 0.0
H1825 H 0.88815 0.8128 0.17974 0.0
H1826 H 0.88594 0.76406 0.20539 0.0
H1827 H 0.88276 0.71191 0.19991 0.0
H1828 H 0.87647 0.67899 0.10137 0.0
H1829 H 0.8798 0.72762 0.07567 0.0
C1830 C 0.88498 0.77621 0.10813 0.0
C1831 C 0.88664 0.79979 0.12842 0.0
C1832 C 0.88307 0.74812 0.12281 0.0
C1833 C 0.88681 0.79496 0.16355 0.0
C1834 C 0.88557 0.7671 0.17827 0.0
C1835 C 0.88208 0.7154 0.17283 0.0
C1836 C 0.8794 0.69185 0.15265 0.0
C1837 C 0.88362 0.7435 0.15817 0.0
C1838 C 0.87838 0.69675 0.11757 0.0
C1839 C 0.88039 0.72456 0.10278 0.0
H1840 H 0.53331 0.63051 0.45196 0.0
H1841 H 0.56896 0.63786 0.3515 0.0
H1842 H 0.5232 0.64089 0.32833 0.0
H1843 H 0.47265 0.64126 0.33632 0.0
H1844 H 0.43709 0.63097 0.43662 0.0
H1845 H 0.48286 0.62946 0.45987 0.0
C1846 C 0.53114 0.63276 0.42496 0.0
C1847 C 0.55486 0.63401 0.40361 0.0
C1848 C 0.50457 0.63409 0.41167 0.0
C1849 C 0.55132 0.63674 0.36867 0.0
C1850 C 0.52505 0.63857 0.35535 0.0
C1851 C 0.47488 0.63889 0.3633 0.0
C1852 C 0.4512 0.63652 0.38464 0.0
C1853 C 0.50147 0.63731 0.37656 0.0
C1854 C 0.45474 0.63297 0.41951 0.0
C1855 C 0.48101 0.63206 0.43286 0.0
H1856 H 0.32578 0.24004 0.10277 0.0
H1857 H 0.40624 0.21129 0.13 0.0
H1858 H 0.4109 0.25222 0.16547 0.0
H1859 H 0.39324 0.29789 0.18578 0.0
H1860 H 0.31193 0.32574 0.16047 0.0
H1861 H 0.30631 0.28342 0.12752 0.0
C1862 C 0.34427 0.24274 0.1166 0.0
C1863 C 0.3658 0.22282 0.11346 0.0
C1864 C 0.34662 0.26617 0.13726 0.0
C1865 C 0.38942 0.22625 0.13203 0.0
C1866 C 0.39211 0.24974 0.15218 0.0
C1867 C 0.37414 0.29456 0.17336 0.0
C1868 C 0.35309 0.31516 0.17544 0.0
C1869 C 0.37101 0.27006 0.1546 0.0
C1870 C 0.32842 0.31027 0.15944 0.0
C1871 C 0.32527 0.28613 0.14039 0.0
H1872 H 0.50184 0.60563 0.82595 0.0
H1873 H 0.55421 0.59178 0.91019 0.0
H1874 H 0.51679 0.56848 0.94333 0.0
H1875 H 0.46787 0.55898 0.95075 0.0
H1876 H 0.41473 0.57359 0.86721 0.0
H1877 H 0.45393 0.58826 0.83074 0.0
C1878 C 0.50488 0.59728 0.85147 0.0
C1879 C 0.53027 0.60082 0.86606 0.0
C1880 C 0.48333 0.58372 0.87022 0.0
C1881 C 0.53457 0.58938 0.89877 0.0
C1882 C 0.51328 0.57604 0.91763 0.0
C1883 C 0.46506 0.56441 0.92426 0.0
C1884 C 0.43858 0.56582 0.91179 0.0
C1885 C 0.4874 0.5739 0.90392 0.0
C1886 C 0.43503 0.57245 0.87738 0.0
C1887 C 0.45735 0.58133 0.85666 0.0
H1888 H 0.17179 0.84273 0.64154 0.0
H1889 H 0.08738 0.84275 0.61353 0.0
H1890 H 0.08153 0.7937 0.63767 0.0
H1891 H 0.10121 0.749 0.66329 0.0
H1892 H 0.18654 0.74817 0.6881 0.0
H1893 H 0.19109 0.79849 0.66888 0.0
C1894 C 0.15198 0.83221 0.64152 0.0
C1895 C 0.12995 0.84667 0.62618 0.0
C1896 C 0.14898 0.80336 0.65444 0.0
C1897 C 0.10461 0.8323 0.62549 0.0
C1898 C 0.10129 0.80409 0.63911 0.0
C1899 C 0.12076 0.75985 0.66469 0.0
C1900 C 0.14347 0.7444 0.67711 0.0
C1901 C 0.12346 0.78907 0.65305 0.0
C1902 C 0.16863 0.75913 0.67852 0.0
C1903 C 0.17132 0.78812 0.66757 0.0
H1904 H 0.99664 0.40531 0.36346 0.0
H1905 H 0.022 0.31654 0.3707 0.0
H1906 H 0.06093 0.3291 0.40319 0.0
H1907 H 0.08734 0.36409 0.42907 0.0
H1908 H 0.06541 0.45392 0.42249 0.0
H1909 H 0.0249 0.44203 0.39047 0.0
C1910 C 1.01075 0.38886 0.37228 0.0
C1911 C 1.00665 0.36005 0.3644 0.0
C1912 C 0.03337 0.39632 0.39109 0.0
C1913 C 0.02503 0.33886 0.37579 0.0
C1914 C 0.04715 0.34599 0.39462 0.0
C1915 C 0.0739 0.38141 0.42083 0.0
C1916 C 0.07949 0.40996 0.42821 0.0
C1917 C 0.05145 0.37453 0.40228 0.0
C1918 C 0.06155 0.43176 0.41719 0.0
C1919 C 0.0385 0.42494 0.39884 0.0
H1920 H 0.34868 0.80932 0.38032 0.0
H1921 H 0.40404 0.79005 0.46077 0.0
H1922 H 0.39826 0.73878 0.45423 0.0
H1923 H 0.37998 0.69947 0.42317 0.0
H1924 H 0.32717 0.71856 0.34052 0.0
H1925 H 0.32851 0.76978 0.35112 0.0
C1926 C 0.3596 0.79387 0.39622 0.0
C1927 C 0.377 0.80341 0.42064 0.0
C1928 C 0.3561 0.7644 0.39249 0.0
C1929 C 0.39067 0.7832 0.44154 0.0
C1930 C 0.38726 0.75388 0.43802 0.0
C1931 C 0.368 0.71485 0.40842 0.0
C1932 C 0.35301 0.70561 0.38172 0.0
C1933 C 0.37014 0.74424 0.4135 0.0
C1934 C 0.33833 0.7255 0.36172 0.0
C1935 C 0.33946 0.75471 0.36742 0.0
H1936 H 0.04352 0.61155 0.08478 0.0
H1937 H 0.07497 0.60799 0.18477 0.0
H1938 H 0.02817 0.6054 0.20868 0.0
H1939 H 0.97792 0.60571 0.20132 0.0
H1940 H 0.94672 0.60646 0.10129 0.0
H1941 H 0.9935 0.60846 0.07749 0.0
C1942 C 0.0402 0.61007 0.11184 0.0
C1943 C 0.063 0.61015 0.13287 0.0
C1944 C 0.0131 0.60814 0.12549 0.0
C1945 C 0.05804 0.60793 0.16787 0.0
C1946 C 0.03118 0.60654 0.18159 0.0
C1947 C 0.98132 0.60618 0.1743 0.0
C1948 C 0.95855 0.60612 0.1532 0.0
C1949 C 1.00849 0.60687 0.16069 0.0
C1950 C 0.96361 0.60647 0.11824 0.0
C1951 C 0.99047 0.60769 0.10457 0.0
H1952 H 0.14571 0.29827 0.83078 0.0
H1953 H 0.14903 0.33086 0.9298 0.0
H1954 H 0.14749 0.28173 0.95491 0.0
H1955 H 0.14307 0.22963 0.94853 0.0
H1956 H 0.14103 0.19772 0.84901 0.0
H1957 H 0.14408 0.24663 0.82425 0.0
C1958 C 0.14626 0.29465 0.85787 0.0
C1959 C 0.14727 0.31809 0.87845 0.0
C1960 C 0.14538 0.26653 0.87201 0.0
C1961 C 0.1483 0.31309 0.91345 0.0
C1962 C 0.14726 0.28505 0.9278 0.0
C1963 C 0.14328 0.23345 0.92144 0.0
C1964 C 0.14157 0.21018 0.90062 0.0
C1965 C 0.1454 0.26163 0.90732 0.0
C1966 C 0.14227 0.21531 0.86556 0.0
C1967 C 0.14401 0.24325 0.85137 0.0
H1968 H 0.549 0.37737 0.69564 0.0
H1969 H 0.58321 0.3812 0.59449 0.0
H1970 H 0.53713 0.38303 0.57215 0.0
H1971 H 0.48674 0.38372 0.58116 0.0
H1972 H 0.45274 0.38297 0.68237 0.0
H1973 H 0.49874 0.37995 0.70461 0.0
C1974 C 0.54639 0.37845 0.6687 0.0
C1975 C 0.56973 0.37886 0.64684 0.0
C1976 C 0.51969 0.38023 0.65593 0.0
C1977 C 0.56578 0.38075 0.61198 0.0
C1978 C 0.53935 0.38183 0.59915 0.0
C1979 C 0.48936 0.38296 0.60809 0.0
C1980 C 0.46605 0.38354 0.62996 0.0
C1981 C 0.51609 0.38164 0.62084 0.0
C1982 C 0.4701 0.3827 0.66481 0.0
C1983 C 0.4965 0.38086 0.67762 0.0
H1984 H 0.11343 0.02799 0.30119 0.0
H1985 H 0.1756 0.06611 0.23348 0.0
H1986 H 0.1737 0.0251 0.19835 0.0
H1987 H 0.15782 0.97687 0.19002 0.0
H1988 H 0.09913 0.93579 0.26026 0.0
H1989 H 0.09581 0.97965 0.29115 0.0
C1990 C 0.12626 0.02723 0.27854 0.0
C1991 C 0.14485 0.04947 0.26993 0.0
C1992 C 0.12571 1.00316 0.25908 0.0
C1993 C 0.16152 0.0487 0.2407 0.0
C1994 C 0.16036 0.02542 0.22057 0.0
C1995 C 0.14394 0.97767 0.21175 0.0
C1996 C 0.12887 0.95331 0.22306 0.0
C1997 C 0.14304 1.00229 0.22999 0.0
C1998 C 0.11108 0.95442 0.25134 0.0
C1999 C 0.10923 0.97939 0.269 0.0
H2000 H 0.20246 0.88173 0.4835 0.0
H2001 H 0.2251 0.8871 0.58665 0.0
H2002 H 0.27255 0.87644 0.57169 0.0
H2003 H 0.30864 0.87344 0.52803 0.0
H2004 H 0.28635 0.87062 0.42439 0.0
H2005 H 0.23802 0.87199 0.44074 0.0
C2006 C 0.21772 0.87984 0.50268 0.0
C2007 C 0.21061 0.88573 0.53583 0.0
C2008 C 0.24518 0.87456 0.49378 0.0
C2009 C 0.2304 0.88318 0.5607 0.0
C2010 C 0.25752 0.87711 0.55224 0.0
C2011 C 0.29316 0.87251 0.50919 0.0
C2012 C 0.30098 0.87262 0.47515 0.0
C2013 C 0.26535 0.87402 0.51863 0.0
C2014 C 0.28077 0.87119 0.45085 0.0
C2015 C 0.2531 0.87194 0.46011 0.0
H2016 H 0.36206 0.93194 0.76543 0.0
H2017 H 0.43624 0.9413 0.81955 0.0
H2018 H 0.43999 0.99174 0.79852 0.0
H2019 H 0.42145 0.03333 0.76473 0.0
H2020 H 0.3486 0.02135 0.70849 0.0
H2021 H 0.34488 0.97182 0.73061 0.0
C2022 C 0.37901 0.94505 0.77272 0.0
C2023 C 0.39868 0.93318 0.79417 0.0
C2024 C 0.3812 0.97355 0.7602 0.0
C2025 C 0.42086 0.95012 0.80296 0.0
C2026 C 0.42293 0.97892 0.79107 0.0
C2027 C 0.40482 0.01978 0.75749 0.0
C2028 C 0.38532 0.03089 0.73512 0.0
C2029 C 0.40312 0.99091 0.76973 0.0
C2030 C 0.36396 0.01318 0.72554 0.0
C2031 C 0.36175 0.98487 0.73819 0.0
H2032 H 0.22016 0.08715 0.95123 0.0
H2033 H 0.20897 0.17094 0.99023 0.0
H2034 H 0.25213 0.16626 0.01931 0.0
H2035 H 0.29137 0.13767 0.03555 0.0
H2036 H 0.30223 0.0526 0.9996 0.0
H2037 H 0.26024 0.05809 0.96785 0.0
C2038 C 0.22761 0.10452 0.96556 0.0
C2039 C 0.21198 0.12951 0.9684 0.0
C2040 C 0.25182 0.10116 0.98323 0.0
C2041 C 0.22108 0.15169 0.98764 0.0
C2042 C 0.24553 0.14892 1.00439 0.0
C2043 C 0.28459 0.12025 0.02082 0.0
C2044 C 0.29976 0.09477 0.01989 0.0
C2045 C 0.26075 0.12359 1.00278 0.0
C2046 C 0.29067 0.07235 1.00087 0.0
C2047 C 0.26686 0.07557 0.98253 0.0
H2048 H 0.85323 0.04689 0.82667 0.0
H2049 H 0.9273 0.06879 0.76912 0.0
H2050 H 0.92361 0.02429 0.73936 0.0
H2051 H 0.89865 0.98007 0.72965 0.0
H2052 H 0.82246 0.96078 0.78413 0.0
H2053 H 0.82722 1.00427 0.81505 0.0
C2054 C 0.86882 0.04161 0.80802 0.0
C2055 C 0.89087 0.06031 0.80042 0.0
C2056 C 0.86582 0.01705 0.79024 0.0
C2057 C 0.91047 0.05412 0.77549 0.0
C2058 C 0.90822 0.02897 0.75844 0.0
C2059 C 0.88307 0.98555 0.74821 0.0
C2060 C 0.86035 0.96751 0.75496 0.0
C2061 C 0.88585 0.01047 0.7655 0.0
C2062 C 0.84001 0.97468 0.77858 0.0
C2063 C 0.84285 0.99927 0.79638 0.0
H2064 H 0.73833 0.12454 0.59865 0.0
H2065 H 0.70535 0.14922 0.50201 0.0
H2066 H 0.75136 0.15013 0.47653 0.0
H2067 H 0.79958 0.13733 0.48008 0.0
H2068 H 0.83308 0.11063 0.57542 0.0
H2069 H 0.78826 0.11793 0.60344 0.0
C2070 C 0.74124 0.13046 0.57209 0.0
C2071 C 0.71838 0.13624 0.55209 0.0
C2072 C 0.76779 0.13064 0.55748 0.0
C2073 C 0.72253 0.14435 0.51787 0.0
C2074 C 0.74883 0.14488 0.50327 0.0
C2075 C 0.79719 0.13384 0.50717 0.0
C2076 C 0.8193 0.12328 0.52578 0.0
C2077 C 0.77141 0.13715 0.52261 0.0
C2078 C 0.81627 0.11896 0.56076 0.0
C2079 C 0.7906 0.12276 0.57661 0.0
H2080 H 0.60546 0.06794 0.23124 0.0
H2081 H 0.68226 0.0886 0.27486 0.0
H2082 H 0.68369 0.04085 0.30323 0.0
H2083 H 0.66329 0.99305 0.31518 0.0
H2084 H 0.58873 0.97077 0.26762 0.0
H2085 H 0.586 0.01941 0.24141 0.0
C2086 C 0.62247 0.06191 0.24697 0.0
C2087 C 0.64369 0.08165 0.25105 0.0
C2088 C 0.62344 0.03425 0.2626 0.0
C2089 C 0.66579 0.07362 0.27119 0.0
C2090 C 0.66655 0.04641 0.28754 0.0
C2091 C 0.64633 0.99902 0.29933 0.0
C2092 C 0.62605 0.97868 0.29357 0.0
C2093 C 0.64548 0.02657 0.28344 0.0
C2094 C 0.60448 0.98627 0.27243 0.0
C2095 C 0.60295 0.01399 0.25745 0.0
H2096 H 0.73484 0.8793 0.9867 0.0
H2097 H 0.71969 0.95459 0.04275 0.0
H2098 H 0.76242 0.94628 0.07241 0.0
H2099 H 0.80381 0.9175 0.08193 0.0
H2100 H 0.82002 0.84425 0.0228 0.0
H2101 H 0.77645 0.85151 0.99497 0.0
C2102 C 0.7409 0.89392 1.00541 0.0
C2103 C 0.72428 0.91743 1.01278 0.0
C2104 C 0.76531 0.88913 0.02194 0.0
C2105 C 0.73239 0.93645 0.03666 0.0
C2106 C 0.75662 0.93158 0.05371 0.0
C2107 C 0.79753 0.90291 0.0633 0.0
C2108 C 0.81462 0.88012 0.05462 0.0
C2109 C 0.77311 0.90789 0.04663 0.0
C2110 C 0.80687 0.86175 0.02991 0.0
C2111 C 0.78214 0.86599 1.01396 0.0
H2112 H 0.62594 0.55664 0.7412 0.0
H2113 H 0.65019 0.52116 0.83771 0.0
H2114 H 0.64524 0.4723 0.81881 0.0
H2115 H 0.6386 0.44044 0.77301 0.0
H2116 H 0.61946 0.47631 0.67451 0.0
H2117 H 0.61737 0.52446 0.69587 0.0
C2118 C 0.62969 0.53804 0.758 0.0
C2119 C 0.63833 0.54183 0.79051 0.0
C2120 C 0.6278 0.51035 0.74655 0.0
C2121 C 0.64355 0.51815 0.81245 0.0
C2122 C 0.64074 0.49043 0.80169 0.0
C2123 C 0.63343 0.45879 0.75649 0.0
C2124 C 0.62919 0.45516 0.72243 0.0
C2125 C 0.6335 0.48633 0.76855 0.0
C2126 C 0.6229 0.4789 0.7009 0.0
C2127 C 0.62177 0.50633 0.71303 0.0
H2128 H 0.81208 0.3742 0.02502 0.0
H2129 H 0.78617 0.37881 0.92233 0.0
H2130 H 0.73847 0.38157 0.94143 0.0
H2131 H 0.70525 0.39136 0.98687 0.0
H2132 H 0.73215 0.39032 0.08892 0.0
H2133 H 0.77816 0.37692 0.07067 0.0
C2134 C 0.79595 0.37521 1.00689 0.0
C2135 C 0.80253 0.37713 0.97249 0.0
C2136 C 0.76873 0.37771 0.01793 0.0
C2137 C 0.78152 0.37801 0.94911 0.0
C2138 C 0.75424 0.37958 0.95994 0.0
C2139 C 0.72111 0.38749 1.00501 0.0
C2140 C 0.71584 0.39242 0.03883 0.0
C2141 C 0.74774 0.38082 0.99422 0.0
C2142 C 0.73622 0.38724 0.06249 0.0
C2143 C 0.76246 0.37957 0.05215 0.0
H2144 H 0.91254 0.53237 0.26107 0.0
H2145 H 0.84505 0.51738 0.19691 0.0
H2146 H 0.83991 0.46854 0.22161 0.0
H2147 H 0.85447 0.43012 0.26142 0.0
H2148 H 0.92435 0.44307 0.32225 0.0
H2149 H 0.92877 0.49273 0.29897 0.0
C2150 C 0.8968 0.51831 0.25249 0.0
C2151 C 0.87918 0.52839 0.22731 0.0
C2152 C 0.89437 0.49 0.26624 0.0
C2153 C 0.85898 0.50999 0.21614 0.0
C2154 C 0.85594 0.48213 0.23032 0.0
C2155 C 0.87057 0.44392 0.26964 0.0
C2156 C 0.88889 0.43329 0.29365 0.0
C2157 C 0.87347 0.47195 0.25542 0.0
C2158 C 0.91002 0.451 0.30374 0.0
C2159 C 0.91252 0.47931 0.29048 0.0
H2160 H 0.71747 0.5946 0.45237 0.0
H2161 H 0.69704 0.66238 0.51816 0.0
H2162 H 0.73987 0.65451 0.5473 0.0
H2163 H 0.78274 0.62868 0.55372 0.0
H2164 H 0.80282 0.55917 0.49031 0.0
H2165 H 0.75988 0.56686 0.46083 0.0
C2166 C 0.72267 0.60781 0.47284 0.0
C2167 C 0.70463 0.62935 0.4829 0.0
C2168 C 0.74681 0.60253 0.49009 0.0
C2169 C 0.71094 0.64589 0.50995 0.0
C2170 C 0.73525 0.64131 0.52665 0.0
C2171 C 0.77764 0.6151 0.53354 0.0
C2172 C 0.79579 0.59355 0.52391 0.0
C2173 C 0.75323 0.61968 0.51694 0.0
C2174 C 0.78894 0.5758 0.49815 0.0
C2175 C 0.7646 0.58037 0.48117 0.0
H2176 H 0.38264 0.57263 0.25519 0.0
H2177 H 0.41451 0.54047 0.3495 0.0
H2178 H 0.41695 0.49192 0.3291 0.0
H2179 H 0.40428 0.45792 0.28704 0.0
H2180 H 0.36612 0.48952 0.19643 0.0
H2181 H 0.37187 0.53912 0.21235 0.0
C2182 C 0.39079 0.55505 0.2708 0.0
C2183 C 0.39859 0.55978 0.30351 0.0
C2184 C 0.39056 0.52714 0.25967 0.0
C2185 C 0.40853 0.537 0.32409 0.0
C2186 C 0.40977 0.50934 0.31254 0.0
C2187 C 0.39771 0.47584 0.27074 0.0
C2188 C 0.38486 0.47064 0.24084 0.0
C2189 C 0.39996 0.50402 0.28081 0.0
C2190 C 0.37596 0.49353 0.21972 0.0
C2191 C 0.37926 0.52171 0.22877 0.0
H2192 H 0.29434 0.63479 0.97618 0.0
H2193 H 0.32955 0.61286 0.07196 0.0
H2194 H 0.28524 0.62129 0.1005 0.0
H2195 H 0.23534 0.62756 0.0966 0.0
H2196 H 0.20065 0.64795 0.99982 0.0
H2197 H 0.24617 0.64765 0.97313 0.0
C2198 C 0.29239 0.63241 1.00339 0.0
C2199 C 0.31475 0.62277 0.02207 0.0
C2200 C 0.26697 0.6366 0.01925 0.0
C2201 C 0.31241 0.62022 0.05724 0.0
C2202 C 0.28708 0.62477 0.07342 0.0
C2203 C 0.23779 0.63229 0.06972 0.0
C2204 C 0.21465 0.63712 0.05005 0.0
C2205 C 0.264 0.63176 0.05447 0.0
C2206 C 0.21812 0.64381 1.01542 0.0
C2207 C 0.24412 0.64361 1.00013 0.0
H2208 H 0.16322 0.49194 0.81491 0.0
H2209 H 0.09087 0.46555 0.76553 0.0
H2210 H 0.08668 0.51373 0.7383 0.0
H2211 H 0.10425 0.56339 0.7281 0.0
H2212 H 0.17924 0.58742 0.77371 0.0
H2213 H 0.18187 0.5402 0.80275 0.0
C2214 C 0.14644 0.49685 0.79836 0.0
C2215 C 0.1272 0.47553 0.79244 0.0
C2216 C 0.14476 0.52412 0.782 0.0
C2217 C 0.10586 0.48182 0.77044 0.0
C2218 C 0.10347 0.5093 0.75491 0.0
C2219 C 0.12108 0.55817 0.74444 0.0
C2220 C 0.14147 0.57874 0.74887 0.0
C2221 C 0.12288 0.53062 0.76042 0.0
C2222 C 0.1634 0.57179 0.76977 0.0
C2223 C 0.16487 0.54486 0.7865 0.0
H2224 H 0.23467 0.38061 0.4908 0.0
H2225 H 0.21633 0.4541 0.54868 0.0
H2226 H 0.2594 0.44705 0.57832 0.0
H2227 H 0.30164 0.41906 0.58793 0.0
H2228 H 0.31962 0.34684 0.52771 0.0
H2229 H 0.27652 0.35387 0.4991 0.0
C2230 C 0.24007 0.39516 0.5099 0.0
C2231 C 0.22245 0.4177 0.51787 0.0
C2232 C 0.2644 0.39087 0.52663 0.0
C2233 C 0.22979 0.43669 0.54215 0.0
C2234 C 0.25419 0.43249 0.55921 0.0
C2235 C 0.29582 0.40467 0.56888 0.0
C2236 C 0.31335 0.38222 0.56011 0.0
C2237 C 0.27147 0.40941 0.55186 0.0
C2238 C 0.30617 0.36408 0.5349 0.0
C2239 C 0.28171 0.36819 0.51848 0.0
H2240 H 0.09565 0.17248 0.11943 0.0
H2241 H 0.16947 0.1308 0.0853 0.0
H2242 H 0.18498 0.12616 0.14284 0.0
H2243 H 0.17715 0.13238 0.20394 0.0
H2244 H 0.10304 0.17358 0.23754 0.0
H2245 H 0.08874 0.18053 0.17954 0.0
C2246 C 0.11528 0.16263 0.12424 0.0
C2247 C 0.13109 0.15192 0.09732 0.0
C2248 C 0.12432 0.16012 0.1577 0.0
C2249 C 0.15639 0.13893 0.10496 0.0
C2250 C 0.16549 0.13643 0.1381 0.0
C2251 C 0.15816 0.14346 0.19852 0.0
C2252 C 0.14141 0.15275 0.22538 0.0
C2253 C 0.14961 0.14682 0.16481 0.0
C2254 C 0.11652 0.1664 0.21762 0.0
C2255 C 0.1082 0.17023 0.18433 0.0
H2256 H 0.13795 0.84787 0.43913 0.0
H2257 H 0.04965 0.85054 0.44068 0.0
H2258 H 0.04947 0.83271 0.38435 0.0
H2259 H 0.07465 0.82383 0.33182 0.0
H2260 H 0.16275 0.8262 0.32841 0.0
H2261 H 0.16303 0.8344 0.38852 0.0
C2262 C 0.11869 0.84457 0.42712 0.0
C2263 C 0.09391 0.85109 0.44363 0.0
C2264 C 0.11879 0.83522 0.39447 0.0
C2265 C 0.06902 0.84575 0.42835 0.0
C2266 C 0.06889 0.83568 0.39612 0.0
C2267 C 0.0938 0.82522 0.34467 0.0
C2268 C 0.11862 0.82459 0.32625 0.0
C2269 C 0.09367 0.83128 0.37858 0.0
C2270 C 0.14349 0.8268 0.34255 0.0
C2271 C 0.14361 0.83165 0.37667 0.0
H2272 H 0.35692 0.85361 0.71646 0.0
H2273 H 0.43766 0.81944 0.73336 0.0
H2274 H 0.44793 0.82255 0.67299 0.0
H2275 H 0.4352 0.83711 0.61572 0.0
H2276 H 0.35447 0.87127 0.59789 0.0
H2277 H 0.34344 0.86646 0.65796 0.0
C2278 C 0.37659 0.84635 0.70693 0.0
C2279 C 0.39639 0.83606 0.72978 0.0
C2280 C 0.38265 0.84866 0.67185 0.0
C2281 C 0.42192 0.82729 0.71667 0.0
C2282 C 0.4279 0.82921 0.68201 0.0
C2283 C 0.41502 0.8433 0.62451 0.0
C2284 C 0.39586 0.85464 0.60138 0.0
C2285 C 0.40859 0.84023 0.65935 0.0
C2286 C 0.36999 0.86276 0.61439 0.0
C2287 C 0.3635 0.85984 0.64903 0.0
H2288 H 0.41513 0.09397 0.84713 0.0
H2289 H 0.4142 0.18612 0.85074 0.0
H2290 H 0.40921 0.18185 0.91213 0.0
H2291 H 0.40184 0.15165 0.96423 0.0
H2292 H 0.40327 0.05925 0.95997 0.0
H2293 H 0.41155 0.06386 0.89942 0.0
C2294 C 0.41386 0.11304 0.86148 0.0
C2295 C 0.41468 0.14026 0.84467 0.0
C2296 C 0.4111 0.11038 0.89656 0.0
C2297 C 0.41365 0.16494 0.86333 0.0
C2298 C 0.41069 0.16249 0.89833 0.0
C2299 C 0.4043 0.13254 0.9501 0.0
C2300 C 0.40168 0.10518 0.96658 0.0
C2301 C 0.40895 0.13529 0.91517 0.0
C2302 C 0.4051 0.08061 0.94795 0.0
C2303 C 0.40973 0.08318 0.91326 0.0
H2304 H 0.91203 0.86101 0.80921 0.0
H2305 H 0.82499 0.86765 0.82843 0.0
H2306 H 0.83228 0.86458 0.88914 0.0
H2307 H 0.86395 0.86167 0.93737 0.0
H2308 H 0.95084 0.85548 0.91638 0.0
H2309 H 0.94299 0.85687 0.85634 0.0
C2310 C 0.89451 0.86146 0.82655 0.0
C2311 C 0.86791 0.86442 0.81384 0.0
C2312 C 0.89889 0.86005 0.86148 0.0
C2313 C 0.84566 0.86509 0.83714 0.0
C2314 C 0.84987 0.86357 0.87201 0.0
C2315 C 0.88116 0.86075 0.91966 0.0
C2316 C 0.90806 0.85838 0.93183 0.0
C2317 C 0.87647 0.86142 0.88458 0.0
C2318 C 0.92996 0.85693 0.90817 0.0
C2319 C 0.92549 0.85782 0.87362 0.0
H2320 H 0.93629 0.2004 0.67172 0.0
H2321 H 0.93672 0.11481 0.71849 0.0
H2322 H 0.95186 0.09527 0.66575 0.0
H2323 H 0.95569 0.10165 0.6046 0.0
H2324 H 0.95428 0.18645 0.55672 0.0
H2325 H 0.94972 0.20764 0.61159 0.0
C2326 C 0.94042 0.17764 0.67033 0.0
C2327 C 0.93436 0.15886 0.69816 0.0
C2328 C 0.94885 0.16653 0.6398 0.0
C2329 C 0.94015 0.12942 0.69671 0.0
C2330 C 0.949 0.11827 0.66673 0.0
C2331 C 0.95538 0.12477 0.60659 0.0
C2332 C 0.95495 0.14262 0.57743 0.0
C2333 C 0.95198 0.13644 0.63783 0.0
C2334 C 0.95466 0.17256 0.57938 0.0
C2335 C 0.95174 0.18455 0.61058 0.0
H2336 H 0.6555 0.1664 0.43141 0.0
H2337 H 0.5679 0.15545 0.43128 0.0
H2338 H 0.56855 0.16247 0.37023 0.0
H2339 H 0.59372 0.17112 0.31632 0.0
H2340 H 0.68139 0.18228 0.31521 0.0
H2341 H 0.68091 0.17625 0.37659 0.0
C2342 C 0.63663 0.16535 0.41794 0.0
C2343 C 0.61165 0.16039 0.4362 0.0
C2344 C 0.63708 0.16982 0.38237 0.0
C2345 C 0.58737 0.15946 0.41815 0.0
C2346 C 0.58772 0.16348 0.38309 0.0
C2347 C 0.61273 0.1727 0.32942 0.0
C2348 C 0.63752 0.17747 0.31076 0.0
C2349 C 0.61239 0.16881 0.36487 0.0
C2350 C 0.6619 0.17898 0.32859 0.0
C2351 C 0.66169 0.17528 0.36385 0.0
H2352 H 0.62086 0.86207 0.06238 0.0
H2353 H 0.61408 0.954 0.06919 0.0
H2354 H 0.60446 0.94768 0.12937 0.0
H2355 H 0.60236 0.9165 0.1808 0.0
H2356 H 0.60918 0.82483 0.17479 0.0
H2357 H 0.61413 0.83049 0.11345 0.0
C2358 C 0.61684 0.88068 0.07694 0.0
C2359 C 0.61855 0.90845 0.0614 0.0
C2360 C 0.61159 0.87696 0.11168 0.0
C2361 C 0.61311 0.93236 0.08056 0.0
C2362 C 0.6077 0.92882 0.11502 0.0
C2363 C 0.60483 0.89784 0.16593 0.0
C2364 C 0.60583 0.87039 0.18201 0.0
C2365 C 0.60768 0.90131 0.13094 0.0
C2366 C 0.60838 0.84618 0.16272 0.0
C2367 C 0.61132 0.84943 0.12777 0.0
H2368 H 0.60237 0.6488 0.72581 0.0
H2369 H 0.68944 0.63951 0.709 0.0
H2370 H 0.68319 0.64152 0.64811 0.0
H2371 H 0.65244 0.64471 0.59902 0.0
H2372 H 0.56535 0.65238 0.61778 0.0
H2373 H 0.57224 0.6521 0.67787 0.0
C2374 C 0.62013 0.64758 0.70895 0.0
C2375 C 0.64643 0.6443 0.72239 0.0
C2376 C 0.61633 0.64819 0.67392 0.0
C2377 C 0.66898 0.64237 0.69971 0.0
C2378 C 0.66537 0.64331 0.66473 0.0
C2379 C 0.63496 0.64614 0.61624 0.0
C2380 C 0.60832 0.6488 0.60333 0.0
C2381 C 0.63906 0.64591 0.65143 0.0
C2382 C 0.58608 0.65082 0.62644 0.0
C2383 C 0.58999 0.65055 0.66107 0.0
H2384 H 0.5778 0.3345 0.84161 0.0
H2385 H 0.66582 0.33965 0.83561 0.0
H2386 H 0.6668 0.35053 0.89492 0.0
H2387 H 0.6423 0.36288 0.94632 0.0
H2388 H 0.55396 0.36177 0.95116 0.0
H2389 H 0.55324 0.34436 0.89453 0.0
C2390 C 0.59712 0.33732 0.85369 0.0
C2391 C 0.6217 0.33632 0.83473 0.0
C2392 C 0.59737 0.34457 0.88727 0.0
C2393 C 0.64673 0.34045 0.85009 0.0
C2394 C 0.64725 0.34675 0.88378 0.0
C2395 C 0.62288 0.35903 0.93494 0.0
C2396 C 0.59823 0.36409 0.95265 0.0
C2397 C 0.62264 0.34973 0.90225 0.0
C2398 C 0.57323 0.35805 0.938 0.0
C2399 C 0.5728 0.34821 0.90561 0.0
H2400 H 0.92683 0.33304 0.11464 0.0
H2401 H 0.85635 0.38699 0.09709 0.0
H2402 H 0.84322 0.38153 0.15661 0.0
H2403 H 0.85287 0.36346 0.21502 0.0
H2404 H 0.92483 0.31192 0.23209 0.0
H2405 H 0.93599 0.31449 0.17186 0.0
C2406 C 0.90865 0.34387 0.12348 0.0
C2407 C 0.89286 0.36063 0.10052 0.0
C2408 C 0.90128 0.34096 0.15814 0.0
C2409 C 0.86908 0.37384 0.1134 0.0
C2410 C 0.8615 0.37079 0.14777 0.0
C2411 C 0.87069 0.35231 0.20548 0.0
C2412 C 0.88779 0.33717 0.22834 0.0
C2413 C 0.87752 0.35456 0.17052 0.0
C2414 C 0.91116 0.32351 0.21533 0.0
C2415 C 0.91766 0.32511 0.18077 0.0
H2416 H 0.91821 0.65964 0.36109 0.0
H2417 H 0.90283 0.57262 0.33524 0.0
H2418 H 0.89798 0.55729 0.39466 0.0
H2419 H 0.8943 0.56953 0.45371 0.0
H2420 H 0.90807 0.65705 0.47926 0.0
H2421 H 0.91798 0.67116 0.42034 0.0
C2422 C 0.91427 0.63726 0.36854 0.0
C2423 C 0.91052 0.6174 0.3439 0.0
C2424 C 0.91119 0.6287 0.4027 0.0
C2425 C 0.9052 0.58845 0.35381 0.0
C2426 C 0.90258 0.57964 0.38776 0.0
C2427 C 0.89995 0.59155 0.44643 0.0
C2428 C 0.90029 0.61223 0.47071 0.0
C2429 C 0.90494 0.5997 0.4124 0.0
C2430 C 0.90748 0.64076 0.46094 0.0
C2431 C 0.9131 0.64888 0.42726 0.0
H2432 H 0.35117 0.39592 0.33067 0.0
H2433 H 0.40596 0.32964 0.29877 0.0
H2434 H 0.42032 0.3204 0.35642 0.0
H2435 H 0.41957 0.3328 0.41533 0.0
H2436 H 0.36654 0.40091 0.44732 0.0
H2437 H 0.3496 0.40751 0.39089 0.0
C2438 C 0.36575 0.37901 0.33652 0.0
C2439 C 0.37715 0.36324 0.31028 0.0
C2440 C 0.3747 0.37434 0.36993 0.0
C2441 C 0.39662 0.34194 0.31836 0.0
C2442 C 0.40502 0.33675 0.3514 0.0
C2443 C 0.40433 0.34915 0.41037 0.0
C2444 C 0.39469 0.3662 0.43655 0.0
C2445 C 0.39463 0.35318 0.37735 0.0
C2446 C 0.37468 0.38714 0.42854 0.0
C2447 C 0.36481 0.39105 0.39589 0.0
H2448 H 0.45091 0.67985 0.19954 0.0
H2449 H 0.3644 0.69354 0.19017 0.0
H2450 H 0.36756 0.68165 0.13108 0.0
H2451 H 0.39355 0.65982 0.0862 0.0
H2452 H 0.47899 0.63998 0.09768 0.0
H2453 H 0.47818 0.66246 0.15185 0.0
C2454 C 0.43311 0.68117 0.18396 0.0
C2455 C 0.40752 0.68756 0.19841 0.0
C2456 C 0.43493 0.67268 0.15093 0.0
C2457 C 0.38421 0.68875 0.17889 0.0
C2458 C 0.38603 0.68174 0.14545 0.0
C2459 C 0.41197 0.66039 0.10061 0.0
C2460 C 0.43606 0.64754 0.0888 0.0
C2461 C 0.41101 0.67232 0.13186 0.0
C2462 C 0.46015 0.64949 0.10676 0.0
C2463 C 0.45965 0.66222 0.13763 0.0
H2464 H 0.09365 0.67062 0.81458 0.0
H2465 H 0.1818 0.67504 0.81508 0.0
H2466 H 0.18031 0.66969 0.87655 0.0
H2467 H 0.15376 0.66252 0.93101 0.0
H2468 H 0.06568 0.65784 0.92913 0.0
H2469 H 0.06746 0.66427 0.86809 0.0
C2470 C 0.11259 0.67084 0.82803 0.0
C2471 C 0.1378 0.67355 0.80979 0.0
C2472 C 0.11163 0.66734 0.86355 0.0
C2473 C 0.16203 0.67332 0.82811 0.0
C2474 C 0.16121 0.67004 0.86344 0.0
C2475 C 0.135 0.66272 0.91721 0.0
C2476 C 0.10957 0.65977 0.93506 0.0
C2477 C 0.13612 0.6667 0.88155 0.0
C2478 C 0.08551 0.66039 0.91645 0.0
C2479 C 0.0865 0.66403 0.88134 0.0
H2480 H 0.10124 0.41094 0.6864 0.0
H2481 H 0.11207 0.3197 0.68028 0.0
H2482 H 0.11605 0.32549 0.61888 0.0
H2483 H 0.12094 0.35721 0.56783 0.0
H2484 H 0.10987 0.44868 0.57438 0.0
H2485 H 0.10114 0.44209 0.63478 0.0
C2486 C 0.10434 0.39239 0.67148 0.0
C2487 C 0.10679 0.36504 0.68755 0.0
C2488 C 0.1066 0.39594 0.63643 0.0
C2489 C 0.11016 0.34095 0.66822 0.0
C2490 C 0.11254 0.34429 0.63324 0.0
C2491 C 0.11619 0.37567 0.58236 0.0
C2492 C 0.11656 0.40344 0.5667 0.0
C2493 C 0.11141 0.37178 0.61716 0.0
C2494 C 0.11007 0.42709 0.58584 0.0
C2495 C 0.10514 0.42337 0.62042 0.0
loop_
_geom_bond_atom_site_label_1
_geom_bond_atom_site_label_2
_geom_bond_distance
_geom_bond_site_symmetry_2
_ccdc_geom_bond_type
Co0 N5 2.057 . S
Co0 O17 2.021 . S
Co0 O20 2.062 . S
Co0 O24 2.117 . S
Co0 O25 2.020 . S
C1 O21 1.259 . S
C1 O24 1.258 . S
Co2 N11 2.057 . S
Co2 O18 2.117 . S
Co2 O19 2.020 . S
Co2 O21 2.021 . S
Co2 O26 2.062 . S
C3 N5 1.316 . S
C3 N6 1.347 . S
C3 H8 0.931 . S
C4 N5 1.375 . S
C4 C7 1.350 . S
C4 H9 0.930 . S
N5 Co0 2.057 . S
N5 C3 1.316 . S
N5 C4 1.375 . S
N6 C3 1.347 . S
N6 C7 1.373 . S
C7 C4 1.350 . S
C7 N6 1.373 . S
C7 H28 0.931 . S
H8 C3 0.931 . S
H9 C4 0.930 . S
C10 O17 1.259 . S
C10 O18 1.258 . S
N11 Co2 2.057 . S
N11 C12 1.316 . S
N11 C13 1.375 . S
C12 N11 1.316 . S
C12 N14 1.347 . S
C12 H23 0.931 . S
C13 N11 1.375 . S
C13 C15 1.350 . S
C13 H22 0.930 . S
N14 C12 1.347 . S
N14 C15 1.373 . S
C15 C13 1.350 . S
C15 N14 1.373 . S
C15 H29 0.931 . S
C16 O19 1.256 . S
C16 O20 1.255 . S
O17 Co0 2.021 . S
O17 C10 1.259 . S
O18 Co2 2.117 . S
O18 C10 1.258 . S
O19 Co2 2.020 . S
O19 C16 1.256 . S
O20 Co0 2.062 . S
O20 C16 1.255 . S
O21 C1 1.259 . S
O21 Co2 2.021 . S
H22 C13 0.930 . S
H23 C12 0.931 . S
O24 Co0 2.117 . S
O24 C1 1.258 . S
O25 Co0 2.020 . S
O25 C27 1.256 . S
O26 Co2 2.062 . S
O26 C27 1.255 . S
C27 O25 1.256 . S
C27 O26 1.255 . S
H28 C7 0.931 . S
H29 C15 0.931 . S
Co30 N35 2.057 . S
Co30 O47 2.021 . S
Co30 O50 2.062 . S
Co30 O54 2.117 . S
Co30 O55 2.020 . S
C31 O51 1.259 . S
C31 O54 1.258 . S
Co32 N41 2.057 . S
Co32 O48 2.117 . S
Co32 O49 2.020 . S
Co32 O51 2.021 . S
Co32 O56 2.062 . S
C33 N35 1.316 . S
C33 N36 1.347 . S
C33 H38 0.931 . S
C34 N35 1.375 . S
C34 C37 1.350 . S
C34 H39 0.930 . S
N35 Co30 2.057 . S
N35 C33 1.316 . S
N35 C34 1.375 . S
N36 C33 1.347 . S
N36 C37 1.373 . S
C37 C34 1.350 . S
C37 N36 1.373 . S
C37 H58 0.931 . S
H38 C33 0.931 . S
H39 C34 0.930 . S
C40 O47 1.259 . S
C40 O48 1.258 . S
N41 Co32 2.057 . S
N41 C42 1.316 . S
N41 C43 1.375 . S
C42 N41 1.316 . S
C42 N44 1.347 . S
C42 H53 0.931 . S
C43 N41 1.375 . S
C43 C45 1.350 . S
C43 H52 0.930 . S
N44 C42 1.347 . S
N44 C45 1.373 . S
C45 C43 1.350 . S
C45 N44 1.373 . S
C45 H59 0.931 . S
C46 O49 1.256 . S
C46 O50 1.255 . S
O47 Co30 2.021 . S
O47 C40 1.259 . S
O48 Co32 2.117 . S
O48 C40 1.258 . S
O49 Co32 2.020 . S
O49 C46 1.256 . S
O50 Co30 2.062 . S
O50 C46 1.255 . S
O51 C31 1.259 . S
O51 Co32 2.021 . S
H52 C43 0.930 . S
H53 C42 0.931 . S
O54 Co30 2.117 . S
O54 C31 1.258 . S
O55 Co30 2.020 . S
O55 C57 1.256 . S
O56 Co32 2.062 . S
O56 C57 1.255 . S
C57 O55 1.256 . S
C57 O56 1.255 . S
H58 C37 0.931 . S
H59 C45 0.931 . S
Co60 N65 2.057 . S
Co60 O77 2.021 . S
Co60 O80 2.062 . S
Co60 O84 2.117 . S
Co60 O85 2.020 . S
C61 O81 1.259 . S
C61 O84 1.258 . S
Co62 N71 2.057 . S
Co62 O78 2.117 . S
Co62 O79 2.020 . S
Co62 O81 2.021 . S
Co62 O86 2.062 . S
C63 N65 1.316 . S
C63 N66 1.347 . S
C63 H68 0.931 . S
C64 N65 1.375 . S
C64 C67 1.350 . S
C64 H69 0.930 . S
N65 Co60 2.057 . S
N65 C63 1.316 . S
N65 C64 1.375 . S
N66 C63 1.347 . S
N66 C67 1.373 . S
C67 C64 1.350 . S
C67 N66 1.373 . S
C67 H88 0.931 . S
H68 C63 0.931 . S
H69 C64 0.930 . S
C70 O77 1.259 . S
C70 O78 1.258 . S
N71 Co62 2.057 . S
N71 C72 1.316 . S
N71 C73 1.375 . S
C72 N71 1.316 . S
C72 N74 1.347 . S
C72 H83 0.931 . S
C73 N71 1.375 . S
C73 C75 1.350 . S
C73 H82 0.930 . S
N74 C72 1.347 . S
N74 C75 1.373 . S
C75 C73 1.350 . S
C75 N74 1.373 . S
C75 H89 0.931 . S
C76 O79 1.256 . S
C76 O80 1.255 . S
O77 Co60 2.021 . S
O77 C70 1.259 . S
O78 Co62 2.117 . S
O78 C70 1.258 . S
O79 Co62 2.020 . S
O79 C76 1.256 . S
O80 Co60 2.062 . S
O80 C76 1.255 . S
O81 C61 1.259 . S
O81 Co62 2.021 . S
H82 C73 0.930 . S
H83 C72 0.931 . S
O84 Co60 2.117 . S
O84 C61 1.258 . S
O85 Co60 2.020 . S
O85 C87 1.256 . S
O86 Co62 2.062 . S
O86 C87 1.255 . S
C87 O85 1.256 . S
C87 O86 1.255 . S
H88 C67 0.931 . S
H89 C75 0.931 . S
Co90 N95 2.057 . S
Co90 O107 2.021 . S
Co90 O110 2.062 1_554 S
Co90 O114 2.117 . S
Co90 O115 2.020 . S
C91 O111 1.259 . S
C91 O114 1.258 . S
Co92 N101 2.057 . S
Co92 O108 2.117 . S
Co92 O109 2.020 . S
Co92 O111 2.021 . S
Co92 O116 2.062 . S
C93 N95 1.316 . S
C93 N96 1.347 . S
C93 H98 0.928 1_554 S
C94 N95 1.375 . S
C94 C97 1.350 . S
C94 H99 0.930 . S
N95 Co90 2.057 . S
N95 C93 1.316 . S
N95 C94 1.375 . S
N96 C93 1.347 . S
N96 C97 1.373 . S
C97 C94 1.350 . S
C97 N96 1.373 . S
C97 H118 0.931 1_545 S
H98 C93 0.928 1_556 S
H99 C94 0.930 . S
C100 O107 1.259 . S
C100 O108 1.258 . S
N101 Co92 2.057 . S
N101 C102 1.316 . S
N101 C103 1.375 . S
C102 N101 1.316 . S
C102 N104 1.347 . S
C102 H113 0.931 . S
C103 N101 1.375 . S
C103 C105 1.350 . S
C103 H112 0.930 . S
N104 C102 1.347 . S
N104 C105 1.373 . S
C105 C103 1.350 . S
C105 N104 1.373 . S
C105 H119 0.931 . S
C106 O109 1.256 1_556 S
C106 O110 1.255 . S
O107 Co90 2.021 . S
O107 C100 1.259 . S
O108 Co92 2.117 . S
O108 C100 1.258 . S
O109 Co92 2.020 . S
O109 C106 1.256 1_554 S
O110 Co90 2.062 1_556 S
O110 C106 1.255 . S
O111 C91 1.259 . S
O111 Co92 2.021 . S
H112 C103 0.930 . S
H113 C102 0.931 . S
O114 Co90 2.117 . S
O114 C91 1.258 . S
O115 Co90 2.020 . S
O115 C117 1.256 . S
O116 Co92 2.062 . S
O116 C117 1.255 . S
C117 O115 1.256 . S
C117 O116 1.255 . S
H118 C97 0.931 1_565 S
H119 C105 0.931 . S
Co120 N125 2.057 . S
Co120 O137 2.021 . S
Co120 O140 2.062 . S
Co120 O144 2.117 . S
Co120 O145 2.020 . S
C121 O141 1.259 . S
C121 O144 1.258 . S
Co122 N131 2.057 . S
Co122 O138 2.117 . S
Co122 O139 2.020 . S
Co122 O141 2.021 . S
Co122 O146 2.062 . S
C123 N125 1.316 . S
C123 N126 1.347 . S
C123 H128 0.931 . S
C124 N125 1.375 . S
C124 C127 1.350 . S
C124 H129 0.930 . S
N125 Co120 2.057 . S
N125 C123 1.316 . S
N125 C124 1.375 . S
N126 C123 1.347 . S
N126 C127 1.373 . S
C127 C124 1.350 . S
C127 N126 1.373 . S
C127 H148 0.931 . S
H128 C123 0.931 . S
H129 C124 0.930 . S
C130 O137 1.259 . S
C130 O138 1.258 . S
N131 Co122 2.057 . S
N131 C132 1.316 . S
N131 C133 1.375 . S
C132 N131 1.316 . S
C132 N134 1.347 . S
C132 H143 0.931 . S
C133 N131 1.375 . S
C133 C135 1.350 . S
C133 H142 0.930 . S
N134 C132 1.347 . S
N134 C135 1.373 . S
C135 C133 1.350 . S
C135 N134 1.373 . S
C135 H149 0.931 . S
C136 O139 1.256 . S
C136 O140 1.255 . S
O137 Co120 2.021 . S
O137 C130 1.259 . S
O138 Co122 2.117 . S
O138 C130 1.258 . S
O139 Co122 2.020 . S
O139 C136 1.256 . S
O140 Co120 2.062 . S
O140 C136 1.255 . S
O141 C121 1.259 . S
O141 Co122 2.021 . S
H142 C133 0.930 . S
H143 C132 0.931 . S
O144 Co120 2.117 . S
O144 C121 1.258 . S
O145 Co120 2.020 . S
O145 C147 1.256 . S
O146 Co122 2.062 . S
O146 C147 1.255 . S
C147 O145 1.256 . S
C147 O146 1.255 . S
H148 C127 0.931 . S
H149 C135 0.931 . S
Co150 N155 2.057 . S
Co150 O167 2.021 . S
Co150 O170 2.062 . S
Co150 O174 2.117 . S
Co150 O175 2.020 . S
C151 O171 1.259 . S
C151 O174 1.258 . S
Co152 N161 2.057 . S
Co152 O168 2.117 . S
Co152 O169 2.020 . S
Co152 O171 2.021 . S
Co152 O176 2.062 . S
C153 N155 1.316 . S
C153 N156 1.347 . S
C153 H158 0.931 . S
C154 N155 1.375 . S
C154 C157 1.350 . S
C154 H159 0.930 . S
N155 Co150 2.057 . S
N155 C153 1.316 . S
N155 C154 1.375 . S
N156 C153 1.347 . S
N156 C157 1.373 . S
C157 C154 1.350 . S
C157 N156 1.373 . S
C157 H178 0.931 . S
H158 C153 0.931 . S
H159 C154 0.930 . S
C160 O167 1.259 . S
C160 O168 1.258 . S
N161 Co152 2.057 . S
N161 C162 1.316 . S
N161 C163 1.375 . S
C162 N161 1.316 . S
C162 N164 1.347 . S
C162 H173 0.931 . S
C163 N161 1.375 . S
C163 C165 1.350 . S
C163 H172 0.930 . S
N164 C162 1.347 . S
N164 C165 1.373 . S
C165 C163 1.350 . S
C165 N164 1.373 . S
C165 H179 0.931 . S
C166 O169 1.256 . S
C166 O170 1.255 . S
O167 Co150 2.021 . S
O167 C160 1.259 . S
O168 Co152 2.117 . S
O168 C160 1.258 . S
O169 Co152 2.020 . S
O169 C166 1.256 . S
O170 Co150 2.062 . S
O170 C166 1.255 . S
O171 C151 1.259 . S
O171 Co152 2.021 . S
H172 C163 0.930 . S
H173 C162 0.931 . S
O174 Co150 2.117 . S
O174 C151 1.258 . S
O175 Co150 2.020 . S
O175 C177 1.256 . S
O176 Co152 2.062 . S
O176 C177 1.255 . S
C177 O175 1.256 . S
C177 O176 1.255 . S
H178 C157 0.931 . S
H179 C165 0.931 . S
Co180 N185 2.057 . S
Co180 O197 2.021 . S
Co180 O200 2.062 . S
Co180 O204 2.117 . S
Co180 O205 2.020 . S
C181 O201 1.259 . S
C181 O204 1.258 . S
Co182 N191 2.057 . S
Co182 O198 2.117 . S
Co182 O199 2.020 . S
Co182 O201 2.021 . S
Co182 O206 2.062 . S
C183 N185 1.316 . S
C183 N186 1.347 . S
C183 H188 0.931 . S
C184 N185 1.375 . S
C184 C187 1.350 . S
C184 H189 0.930 . S
N185 Co180 2.057 . S
N185 C183 1.316 . S
N185 C184 1.375 . S
N186 C183 1.347 . S
N186 C187 1.373 . S
C187 C184 1.350 . S
C187 N186 1.373 . S
C187 H208 0.931 . S
H188 C183 0.931 . S
H189 C184 0.930 . S
C190 O197 1.259 . S
C190 O198 1.258 . S
N191 Co182 2.057 . S
N191 C192 1.316 . S
N191 C193 1.375 . S
C192 N191 1.316 . S
C192 N194 1.347 . S
C192 H203 0.931 . S
C193 N191 1.375 . S
C193 C195 1.350 . S
C193 H202 0.930 . S
N194 C192 1.347 . S
N194 C195 1.373 . S
C195 C193 1.350 . S
C195 N194 1.373 . S
C195 H209 0.931 . S
C196 O199 1.256 . S
C196 O200 1.255 . S
O197 Co180 2.021 . S
O197 C190 1.259 . S
O198 Co182 2.117 . S
O198 C190 1.258 . S
O199 Co182 2.020 . S
O199 C196 1.256 . S
O200 Co180 2.062 . S
O200 C196 1.255 . S
O201 C181 1.259 . S
O201 Co182 2.021 . S
H202 C193 0.930 . S
H203 C192 0.931 . S
O204 Co180 2.117 . S
O204 C181 1.258 . S
O205 Co180 2.020 . S
O205 C207 1.256 . S
O206 Co182 2.062 . S
O206 C207 1.255 . S
C207 O205 1.256 . S
C207 O206 1.255 . S
H208 C187 0.931 . S
H209 C195 0.931 . S
Co210 N215 2.057 . S
Co210 O227 2.021 . S
Co210 O230 2.062 . S
Co210 O234 2.117 . S
Co210 O235 2.020 . S
C211 O231 1.259 . S
C211 O234 1.258 . S
Co212 N221 2.060 . S
Co212 O228 2.117 . S
Co212 O229 2.020 . S
Co212 O231 2.021 . S
Co212 O236 2.062 . S
C213 N215 1.316 . S
C213 N216 1.347 . S
C213 H218 0.931 . S
C214 N215 1.375 . S
C214 C217 1.350 . S
C214 H219 0.930 . S
N215 Co210 2.057 . S
N215 C213 1.316 . S
N215 C214 1.375 . S
N216 C213 1.347 . S
N216 C217 1.373 . S
C217 C214 1.350 . S
C217 N216 1.373 . S
C217 H238 0.931 . S
H218 C213 0.931 . S
H219 C214 0.930 . S
C220 O227 1.259 . S
C220 O228 1.258 . S
N221 Co212 2.060 . S
N221 C222 1.312 1_556 S
N221 C223 1.375 1_556 S
C222 N221 1.312 1_554 S
C222 N224 1.347 . S
C222 H233 0.931 . S
C223 N221 1.375 1_554 S
C223 C225 1.350 . S
C223 H232 0.930 1_554 S
N224 C222 1.347 . S
N224 C225 1.373 . S
C225 C223 1.350 . S
C225 N224 1.373 . S
C225 H239 0.931 . S
C226 O229 1.256 . S
C226 O230 1.255 . S
O227 Co210 2.021 . S
O227 C220 1.259 . S
O228 Co212 2.117 . S
O228 C220 1.258 . S
O229 Co212 2.020 . S
O229 C226 1.256 . S
O230 Co210 2.062 . S
O230 C226 1.255 . S
O231 C211 1.259 . S
O231 Co212 2.021 . S
H232 C223 0.930 1_556 S
H233 C222 0.931 . S
O234 Co210 2.117 . S
O234 C211 1.258 . S
O235 Co210 2.020 . S
O235 C237 1.256 . S
O236 Co212 2.062 . S
O236 C237 1.255 . S
C237 O235 1.256 . S
C237 O236 1.255 . S
H238 C217 0.931 . S
H239 C225 0.931 . S
Co240 N245 2.057 . S
Co240 O257 2.021 . S
Co240 O260 2.062 . S
Co240 O264 2.117 . S
Co240 O265 2.020 . S
C241 O261 1.259 . S
C241 O264 1.258 . S
Co242 N251 2.057 . S
Co242 O258 2.117 . S
Co242 O259 2.020 . S
Co242 O261 2.021 . S
Co242 O266 2.062 . S
C243 N245 1.316 . S
C243 N246 1.347 . S
C243 H248 0.931 . S
C244 N245 1.375 . S
C244 C247 1.350 . S
C244 H249 0.930 . S
N245 Co240 2.057 . S
N245 C243 1.316 . S
N245 C244 1.375 . S
N246 C243 1.347 . S
N246 C247 1.373 . S
C247 C244 1.350 . S
C247 N246 1.373 . S
C247 H268 0.931 . S
H248 C243 0.931 . S
H249 C244 0.930 . S
C250 O257 1.259 . S
C250 O258 1.258 . S
N251 Co242 2.057 . S
N251 C252 1.316 . S
N251 C253 1.375 . S
C252 N251 1.316 . S
C252 N254 1.347 . S
C252 H263 0.931 . S
C253 N251 1.375 . S
C253 C255 1.350 . S
C253 H262 0.930 . S
N254 C252 1.347 . S
N254 C255 1.373 . S
C255 C253 1.350 . S
C255 N254 1.373 . S
C255 H269 0.931 . S
C256 O259 1.256 . S
C256 O260 1.255 . S
O257 Co240 2.021 . S
O257 C250 1.259 . S
O258 Co242 2.117 . S
O258 C250 1.258 . S
O259 Co242 2.020 . S
O259 C256 1.256 . S
O260 Co240 2.062 . S
O260 C256 1.255 . S
O261 C241 1.259 . S
O261 Co242 2.021 . S
H262 C253 0.930 . S
H263 C252 0.931 . S
O264 Co240 2.117 . S
O264 C241 1.258 . S
O265 Co240 2.020 . S
O265 C267 1.256 . S
O266 Co242 2.062 . S
O266 C267 1.255 . S
C267 O265 1.256 . S
C267 O266 1.255 . S
H268 C247 0.931 . S
H269 C255 0.931 . S
Co270 N275 2.057 . S
Co270 O287 2.021 . S
Co270 O290 2.062 . S
Co270 O294 2.117 . S
Co270 O295 2.020 . S
C271 O291 1.259 . S
C271 O294 1.258 . S
Co272 N281 2.057 . S
Co272 O288 2.117 . S
Co272 O289 2.020 . S
Co272 O291 2.021 . S
Co272 O296 2.062 . S
C273 N275 1.316 . S
C273 N276 1.347 . S
C273 H278 0.931 . S
C274 N275 1.375 . S
C274 C277 1.350 . S
C274 H279 0.930 . S
N275 Co270 2.057 . S
N275 C273 1.316 . S
N275 C274 1.375 . S
N276 C273 1.347 . S
N276 C277 1.373 . S
C277 C274 1.350 . S
C277 N276 1.373 . S
C277 H298 0.931 . S
H278 C273 0.931 . S
H279 C274 0.930 . S
C280 O287 1.259 . S
C280 O288 1.258 . S
N281 Co272 2.057 . S
N281 C282 1.316 . S
N281 C283 1.375 . S
C282 N281 1.316 . S
C282 N284 1.347 . S
C282 H293 0.931 . S
C283 N281 1.375 . S
C283 C285 1.350 . S
C283 H292 0.930 . S
N284 C282 1.347 . S
N284 C285 1.373 . S
C285 C283 1.350 . S
C285 N284 1.373 . S
C285 H299 0.931 . S
C286 O289 1.256 . S
C286 O290 1.255 . S
O287 Co270 2.021 . S
O287 C280 1.259 . S
O288 Co272 2.117 . S
O288 C280 1.258 . S
O289 Co272 2.020 . S
O289 C286 1.256 . S
O290 Co270 2.062 . S
O290 C286 1.255 . S
O291 C271 1.259 . S
O291 Co272 2.021 . S
H292 C283 0.930 . S
H293 C282 0.931 . S
O294 Co270 2.117 . S
O294 C271 1.258 . S
O295 Co270 2.020 . S
O295 C297 1.256 . S
O296 Co272 2.062 . S
O296 C297 1.255 . S
C297 O295 1.256 . S
C297 O296 1.255 . S
H298 C277 0.931 . S
H299 C285 0.931 . S
Co300 N305 2.057 . S
Co300 O317 2.021 . S
Co300 O320 2.062 . S
Co300 O324 2.117 . S
Co300 O325 2.020 . S
C301 O321 1.259 . S
C301 O324 1.258 . S
Co302 N311 2.057 . S
Co302 O318 2.117 . S
Co302 O319 2.020 . S
Co302 O321 2.021 . S
Co302 O326 2.062 . S
C303 N305 1.316 . S
C303 N306 1.347 . S
C303 H308 0.931 . S
C304 N305 1.375 . S
C304 C307 1.350 . S
C304 H309 0.930 . S
N305 Co300 2.057 . S
N305 C303 1.316 . S
N305 C304 1.375 . S
N306 C303 1.347 . S
N306 C307 1.373 . S
C307 C304 1.350 . S
C307 N306 1.373 . S
C307 H328 0.931 . S
H308 C303 0.931 . S
H309 C304 0.930 . S
C310 O317 1.259 . S
C310 O318 1.258 . S
N311 Co302 2.057 . S
N311 C312 1.316 . S
N311 C313 1.375 . S
C312 N311 1.316 . S
C312 N314 1.347 . S
C312 H323 0.931 . S
C313 N311 1.375 . S
C313 C315 1.350 . S
C313 H322 0.930 . S
N314 C312 1.347 . S
N314 C315 1.373 . S
C315 C313 1.350 . S
C315 N314 1.373 . S
C315 H329 0.931 . S
C316 O319 1.256 . S
C316 O320 1.255 . S
O317 Co300 2.021 . S
O317 C310 1.259 . S
O318 Co302 2.117 . S
O318 C310 1.258 . S
O319 Co302 2.020 . S
O319 C316 1.256 . S
O320 Co300 2.062 . S
O320 C316 1.255 . S
O321 C301 1.259 . S
O321 Co302 2.021 . S
H322 C313 0.930 . S
H323 C312 0.931 . S
O324 Co300 2.117 . S
O324 C301 1.258 . S
O325 Co300 2.020 . S
O325 C327 1.256 . S
O326 Co302 2.062 . S
O326 C327 1.255 . S
C327 O325 1.256 . S
C327 O326 1.255 . S
H328 C307 0.931 . S
H329 C315 0.931 . S
Co330 N335 2.057 . S
Co330 O347 2.021 . S
Co330 O350 2.062 . S
Co330 O354 2.117 . S
Co330 O355 2.020 . S
C331 O351 1.259 . S
C331 O354 1.258 . S
Co332 N341 2.057 . S
Co332 O348 2.117 . S
Co332 O349 2.020 . S
Co332 O351 2.021 . S
Co332 O356 2.062 1_556 S
C333 N335 1.316 . S
C333 N336 1.347 . S
C333 H338 0.931 . S
C334 N335 1.375 . S
C334 C337 1.350 . S
C334 H339 0.930 . S
N335 Co330 2.057 . S
N335 C333 1.316 . S
N335 C334 1.375 . S
N336 C333 1.347 . S
N336 C337 1.373 . S
C337 C334 1.350 . S
C337 N336 1.373 . S
C337 H358 0.931 . S
H338 C333 0.931 . S
H339 C334 0.930 . S
C340 O347 1.259 . S
C340 O348 1.258 . S
N341 Co332 2.057 . S
N341 C342 1.316 . S
N341 C343 1.375 . S
C342 N341 1.316 . S
C342 N344 1.347 . S
C342 H353 0.928 1_556 S
C343 N341 1.375 . S
C343 C345 1.350 . S
C343 H352 0.930 . S
N344 C342 1.347 . S
N344 C345 1.373 . S
C345 C343 1.350 . S
C345 N344 1.373 . S
C345 H359 0.931 1_565 S
C346 O349 1.256 . S
C346 O350 1.255 . S
O347 Co330 2.021 . S
O347 C340 1.259 . S
O348 Co332 2.117 . S
O348 C340 1.258 . S
O349 Co332 2.020 . S
O349 C346 1.256 . S
O350 Co330 2.062 . S
O350 C346 1.255 . S
O351 C331 1.259 . S
O351 Co332 2.021 . S
H352 C343 0.930 . S
H353 C342 0.928 1_554 S
O354 Co330 2.117 . S
O354 C331 1.258 . S
O355 Co330 2.020 . S
O355 C357 1.256 1_556 S
O356 Co332 2.062 1_554 S
O356 C357 1.255 . S
C357 O355 1.256 1_554 S
C357 O356 1.255 . S
H358 C337 0.931 . S
H359 C345 0.931 1_545 S
Co360 N365 2.057 . S
Co360 O377 2.021 . S
Co360 O380 2.062 . S
Co360 O384 2.117 . S
Co360 O385 2.020 . S
C361 O381 1.259 . S
C361 O384 1.258 . S
Co362 N371 2.057 . S
Co362 O378 2.117 . S
Co362 O379 2.020 . S
Co362 O381 2.021 . S
Co362 O386 2.062 . S
C363 N365 1.316 . S
C363 N366 1.347 . S
C363 H368 0.931 . S
C364 N365 1.375 . S
C364 C367 1.350 . S
C364 H369 0.930 . S
N365 Co360 2.057 . S
N365 C363 1.316 . S
N365 C364 1.375 . S
N366 C363 1.347 . S
N366 C367 1.373 . S
C367 C364 1.350 . S
C367 N366 1.373 . S
C367 H388 0.931 . S
H368 C363 0.931 . S
H369 C364 0.930 . S
C370 O377 1.259 . S
C370 O378 1.258 . S
N371 Co362 2.057 . S
N371 C372 1.316 . S
N371 C373 1.375 . S
C372 N371 1.316 . S
C372 N374 1.347 . S
C372 H383 0.931 . S
C373 N371 1.375 . S
C373 C375 1.350 . S
C373 H382 0.930 . S
N374 C372 1.347 . S
N374 C375 1.373 . S
C375 C373 1.350 . S
C375 N374 1.373 . S
C375 H389 0.931 . S
C376 O379 1.256 . S
C376 O380 1.255 . S
O377 Co360 2.021 . S
O377 C370 1.259 . S
O378 Co362 2.117 . S
O378 C370 1.258 . S
O379 Co362 2.020 . S
O379 C376 1.256 . S
O380 Co360 2.062 . S
O380 C376 1.255 . S
O381 C361 1.259 . S
O381 Co362 2.021 . S
H382 C373 0.930 . S
H383 C372 0.931 . S
O384 Co360 2.117 . S
O384 C361 1.258 . S
O385 Co360 2.020 . S
O385 C387 1.256 . S
O386 Co362 2.062 . S
O386 C387 1.255 . S
C387 O385 1.256 . S
C387 O386 1.255 . S
H388 C367 0.931 . S
H389 C375 0.931 . S
Co390 N395 2.057 . S
Co390 O407 2.021 . S
Co390 O410 2.062 . S
Co390 O414 2.117 . S
Co390 O415 2.020 . S
C391 O411 1.259 . S
C391 O414 1.258 . S
Co392 N401 2.057 . S
Co392 O408 2.117 . S
Co392 O409 2.020 . S
Co392 O411 2.021 . S
Co392 O416 2.062 . S
C393 N395 1.316 . S
C393 N396 1.347 . S
C393 H398 0.931 . S
C394 N395 1.375 . S
C394 C397 1.350 . S
C394 H399 0.930 . S
N395 Co390 2.057 . S
N395 C393 1.316 . S
N395 C394 1.375 . S
N396 C393 1.347 . S
N396 C397 1.373 . S
C397 C394 1.350 . S
C397 N396 1.373 . S
C397 H418 0.931 . S
H398 C393 0.931 . S
H399 C394 0.930 . S
C400 O407 1.259 . S
C400 O408 1.258 . S
N401 Co392 2.057 . S
N401 C402 1.316 . S
N401 C403 1.375 . S
C402 N401 1.316 . S
C402 N404 1.347 . S
C402 H413 0.931 . S
C403 N401 1.375 . S
C403 C405 1.350 . S
C403 H412 0.930 . S
N404 C402 1.347 . S
N404 C405 1.373 . S
C405 C403 1.350 . S
C405 N404 1.373 . S
C405 H419 0.931 . S
C406 O409 1.256 . S
C406 O410 1.255 . S
O407 Co390 2.021 . S
O407 C400 1.259 . S
O408 Co392 2.117 . S
O408 C400 1.258 . S
O409 Co392 2.020 . S
O409 C406 1.256 . S
O410 Co390 2.062 . S
O410 C406 1.255 . S
O411 C391 1.259 . S
O411 Co392 2.021 . S
H412 C403 0.930 . S
H413 C402 0.931 . S
O414 Co390 2.117 . S
O414 C391 1.258 . S
O415 Co390 2.020 . S
O415 C417 1.256 . S
O416 Co392 2.062 . S
O416 C417 1.255 . S
C417 O415 1.256 . S
C417 O416 1.255 . S
H418 C397 0.931 . S
H419 C405 0.931 . S
Co420 N425 2.057 . S
Co420 O437 2.021 . S
Co420 O440 2.062 . S
Co420 O444 2.117 . S
Co420 O445 2.020 . S
C421 O441 1.259 . S
C421 O444 1.258 . S
Co422 N431 2.057 . S
Co422 O438 2.117 . S
Co422 O439 2.020 . S
Co422 O441 2.021 . S
Co422 O446 2.062 . S
C423 N425 1.316 . S
C423 N426 1.347 . S
C423 H428 0.931 . S
C424 N425 1.375 . S
C424 C427 1.350 . S
C424 H429 0.930 . S
N425 Co420 2.057 . S
N425 C423 1.316 . S
N425 C424 1.375 . S
N426 C423 1.347 . S
N426 C427 1.373 . S
C427 C424 1.350 . S
C427 N426 1.373 . S
C427 H448 0.931 . S
H428 C423 0.931 . S
H429 C424 0.930 . S
C430 O437 1.259 . S
C430 O438 1.258 . S
N431 Co422 2.057 . S
N431 C432 1.316 . S
N431 C433 1.375 . S
C432 N431 1.316 . S
C432 N434 1.347 . S
C432 H443 0.931 . S
C433 N431 1.375 . S
C433 C435 1.350 . S
C433 H442 0.930 . S
N434 C432 1.347 . S
N434 C435 1.373 . S
C435 C433 1.350 . S
C435 N434 1.373 . S
C435 H449 0.931 . S
C436 O439 1.256 . S
C436 O440 1.255 . S
O437 Co420 2.021 . S
O437 C430 1.259 . S
O438 Co422 2.117 . S
O438 C430 1.258 . S
O439 Co422 2.020 . S
O439 C436 1.256 . S
O440 Co420 2.062 . S
O440 C436 1.255 . S
O441 C421 1.259 . S
O441 Co422 2.021 . S
H442 C433 0.930 . S
H443 C432 0.931 . S
O444 Co420 2.117 . S
O444 C421 1.258 . S
O445 Co420 2.020 . S
O445 C447 1.256 . S
O446 Co422 2.062 . S
O446 C447 1.255 . S
C447 O445 1.256 . S
C447 O446 1.255 . S
H448 C427 0.931 . S
H449 C435 0.931 . S
Co450 N455 2.060 . S
Co450 O467 2.021 . S
Co450 O470 2.062 . S
Co450 O474 2.117 . S
Co450 O475 2.020 . S
C451 O471 1.259 . S
C451 O474 1.258 . S
Co452 N461 2.057 . S
Co452 O468 2.117 . S
Co452 O469 2.020 . S
Co452 O471 2.021 . S
Co452 O476 2.062 . S
C453 N455 1.312 1_556 S
C453 N456 1.347 . S
C453 H458 0.931 . S
C454 N455 1.375 1_556 S
C454 C457 1.350 . S
C454 H459 0.930 1_556 S
N455 Co450 2.060 . S
N455 C453 1.312 1_554 S
N455 C454 1.375 1_554 S
N456 C453 1.347 . S
N456 C457 1.373 . S
C457 C454 1.350 . S
C457 N456 1.373 . S
C457 H478 0.931 . S
H458 C453 0.931 . S
H459 C454 0.930 1_554 S
C460 O467 1.259 . S
C460 O468 1.258 . S
N461 Co452 2.057 . S
N461 C462 1.316 . S
N461 C463 1.375 . S
C462 N461 1.316 . S
C462 N464 1.347 . S
C462 H473 0.931 . S
C463 N461 1.375 . S
C463 C465 1.350 . S
C463 H472 0.930 . S
N464 C462 1.347 . S
N464 C465 1.373 . S
C465 C463 1.350 . S
C465 N464 1.373 . S
C465 H479 0.931 . S
C466 O469 1.256 . S
C466 O470 1.255 . S
O467 Co450 2.021 . S
O467 C460 1.259 . S
O468 Co452 2.117 . S
O468 C460 1.258 . S
O469 Co452 2.020 . S
O469 C466 1.256 . S
O470 Co450 2.062 . S
O470 C466 1.255 . S
O471 C451 1.259 . S
O471 Co452 2.021 . S
H472 C463 0.930 . S
H473 C462 0.931 . S
O474 Co450 2.117 . S
O474 C451 1.258 . S
O475 Co450 2.020 . S
O475 C477 1.256 . S
O476 Co452 2.062 . S
O476 C477 1.255 . S
C477 O475 1.256 . S
C477 O476 1.255 . S
H478 C457 0.931 . S
H479 C465 0.931 . S
Co480 N485 2.057 . S
Co480 O497 2.021 . S
Co480 O500 2.062 . S
Co480 O504 2.117 . S
Co480 O505 2.020 . S
C481 O501 1.259 . S
C481 O504 1.258 . S
Co482 N491 2.057 . S
Co482 O498 2.117 . S
Co482 O499 2.020 . S
Co482 O501 2.021 . S
Co482 O506 2.062 . S
C483 N485 1.316 . S
C483 N486 1.347 . S
C483 H488 0.931 . S
C484 N485 1.375 . S
C484 C487 1.350 . S
C484 H489 0.930 . S
N485 Co480 2.057 . S
N485 C483 1.316 . S
N485 C484 1.375 . S
N486 C483 1.347 . S
N486 C487 1.373 . S
C487 C484 1.350 . S
C487 N486 1.373 . S
C487 H508 0.931 . S
H488 C483 0.931 . S
H489 C484 0.930 . S
C490 O497 1.259 . S
C490 O498 1.258 . S
N491 Co482 2.057 . S
N491 C492 1.316 . S
N491 C493 1.375 . S
C492 N491 1.316 . S
C492 N494 1.347 . S
C492 H503 0.931 . S
C493 N491 1.375 . S
C493 C495 1.350 . S
C493 H502 0.930 . S
N494 C492 1.347 . S
N494 C495 1.373 . S
C495 C493 1.350 . S
C495 N494 1.373 . S
C495 H509 0.931 . S
C496 O499 1.256 . S
C496 O500 1.255 . S
O497 Co480 2.021 . S
O497 C490 1.259 . S
O498 Co482 2.117 . S
O498 C490 1.258 . S
O499 Co482 2.020 . S
O499 C496 1.256 . S
O500 Co480 2.062 . S
O500 C496 1.255 . S
O501 C481 1.259 . S
O501 Co482 2.021 . S
H502 C493 0.930 . S
H503 C492 0.931 . S
O504 Co480 2.117 . S
O504 C481 1.258 . S
O505 Co480 2.020 . S
O505 C507 1.256 . S
O506 Co482 2.062 . S
O506 C507 1.255 . S
C507 O505 1.256 . S
C507 O506 1.255 . S
H508 C487 0.931 . S
H509 C495 0.931 . S
Co510 N515 2.057 . S
Co510 O527 2.021 . S
Co510 O530 2.062 . S
Co510 O534 2.117 . S
Co510 O535 2.020 . S
C511 O531 1.259 1_554 S
C511 O534 1.258 . S
Co512 N521 2.057 1_554 S
Co512 O528 2.117 . S
Co512 O529 2.020 . S
Co512 O531 2.021 1_554 S
Co512 O536 2.062 . S
C513 N515 1.316 . S
C513 N516 1.347 . S
C513 H518 0.931 . S
C514 N515 1.375 . S
C514 C517 1.350 . S
C514 H519 0.930 . S
N515 Co510 2.057 . S
N515 C513 1.316 . S
N515 C514 1.375 . S
N516 C513 1.347 . S
N516 C517 1.373 . S
C517 C514 1.350 . S
C517 N516 1.373 . S
C517 H538 0.931 . S
H518 C513 0.931 . S
H519 C514 0.930 . S
C520 O527 1.259 . S
C520 O528 1.258 . S
N521 Co512 2.057 1_556 S
N521 C522 1.316 . S
N521 C523 1.375 . S
C522 N521 1.316 . S
C522 N524 1.347 . S
C522 H533 0.931 . S
C523 N521 1.375 . S
C523 C525 1.350 . S
C523 H532 0.930 . S
N524 C522 1.347 . S
N524 C525 1.373 . S
C525 C523 1.350 . S
C525 N524 1.373 . S
C525 H539 0.931 . S
C526 O529 1.256 . S
C526 O530 1.255 . S
O527 Co510 2.021 . S
O527 C520 1.259 . S
O528 Co512 2.117 . S
O528 C520 1.258 . S
O529 Co512 2.020 . S
O529 C526 1.256 . S
O530 Co510 2.062 . S
O530 C526 1.255 . S
O531 C511 1.259 1_556 S
O531 Co512 2.021 1_556 S
H532 C523 0.930 . S
H533 C522 0.931 . S
O534 Co510 2.117 . S
O534 C511 1.258 . S
O535 Co510 2.020 . S
O535 C537 1.256 . S
O536 Co512 2.062 . S
O536 C537 1.255 . S
C537 O535 1.256 . S
C537 O536 1.255 . S
H538 C517 0.931 . S
H539 C525 0.931 . S
Co540 N545 2.057 . S
Co540 O557 2.021 . S
Co540 O560 2.062 . S
Co540 O564 2.117 . S
Co540 O565 2.020 . S
C541 O561 1.259 . S
C541 O564 1.258 . S
Co542 N551 2.057 . S
Co542 O558 2.117 . S
Co542 O559 2.020 . S
Co542 O561 2.021 . S
Co542 O566 2.062 . S
C543 N545 1.316 . S
C543 N546 1.347 . S
C543 H548 0.931 . S
C544 N545 1.375 . S
C544 C547 1.350 . S
C544 H549 0.930 . S
N545 Co540 2.057 . S
N545 C543 1.316 . S
N545 C544 1.375 . S
N546 C543 1.347 . S
N546 C547 1.373 . S
C547 C544 1.350 . S
C547 N546 1.373 . S
C547 H568 0.931 . S
H548 C543 0.931 . S
H549 C544 0.930 . S
C550 O557 1.259 . S
C550 O558 1.258 . S
N551 Co542 2.057 . S
N551 C552 1.316 . S
N551 C553 1.375 . S
C552 N551 1.316 . S
C552 N554 1.347 . S
C552 H563 0.931 . S
C553 N551 1.375 . S
C553 C555 1.350 . S
C553 H562 0.930 . S
N554 C552 1.347 . S
N554 C555 1.373 . S
C555 C553 1.350 . S
C555 N554 1.373 . S
C555 H569 0.931 . S
C556 O559 1.256 . S
C556 O560 1.255 . S
O557 Co540 2.021 . S
O557 C550 1.259 . S
O558 Co542 2.117 . S
O558 C550 1.258 . S
O559 Co542 2.020 . S
O559 C556 1.256 . S
O560 Co540 2.062 . S
O560 C556 1.255 . S
O561 C541 1.259 . S
O561 Co542 2.021 . S
H562 C553 0.930 . S
H563 C552 0.931 . S
O564 Co540 2.117 . S
O564 C541 1.258 . S
O565 Co540 2.020 . S
O565 C567 1.256 . S
O566 Co542 2.062 . S
O566 C567 1.255 . S
C567 O565 1.256 . S
C567 O566 1.255 . S
H568 C547 0.931 . S
H569 C555 0.931 . S
Co570 N575 2.057 . S
Co570 O587 2.021 . S
Co570 O590 2.062 . S
Co570 O594 2.117 . S
Co570 O595 2.020 . S
C571 O591 1.259 . S
C571 O594 1.258 . S
Co572 N581 2.057 . S
Co572 O588 2.117 . S
Co572 O589 2.020 . S
Co572 O591 2.021 . S
Co572 O596 2.062 . S
C573 N575 1.316 . S
C573 N576 1.347 . S
C573 H578 0.931 . S
C574 N575 1.375 . S
C574 C577 1.350 . S
C574 H579 0.930 . S
N575 Co570 2.057 . S
N575 C573 1.316 . S
N575 C574 1.375 . S
N576 C573 1.347 . S
N576 C577 1.373 . S
C577 C574 1.350 . S
C577 N576 1.373 . S
C577 H598 0.931 . S
H578 C573 0.931 . S
H579 C574 0.930 . S
C580 O587 1.259 . S
C580 O588 1.258 . S
N581 Co572 2.057 . S
N581 C582 1.316 . S
N581 C583 1.375 . S
C582 N581 1.316 . S
C582 N584 1.347 . S
C582 H593 0.931 . S
C583 N581 1.375 . S
C583 C585 1.350 . S
C583 H592 0.930 . S
N584 C582 1.347 . S
N584 C585 1.373 . S
C585 C583 1.350 . S
C585 N584 1.373 . S
C585 H599 0.931 . S
C586 O589 1.256 . S
C586 O590 1.255 . S
O587 Co570 2.021 . S
O587 C580 1.259 . S
O588 Co572 2.117 . S
O588 C580 1.258 . S
O589 Co572 2.020 . S
O589 C586 1.256 . S
O590 Co570 2.062 . S
O590 C586 1.255 . S
O591 C571 1.259 . S
O591 Co572 2.021 . S
H592 C583 0.930 . S
H593 C582 0.931 . S
O594 Co570 2.117 . S
O594 C571 1.258 . S
O595 Co570 2.020 . S
O595 C597 1.256 . S
O596 Co572 2.062 . S
O596 C597 1.255 . S
C597 O595 1.256 . S
C597 O596 1.255 . S
H598 C577 0.931 . S
H599 C585 0.931 . S
Co600 N605 2.057 . S
Co600 O617 2.021 . S
Co600 O620 2.062 . S
Co600 O624 2.117 . S
Co600 O625 2.020 . S
C601 O621 1.259 . S
C601 O624 1.258 . S
Co602 N611 2.057 . S
Co602 O618 2.117 . S
Co602 O619 2.020 . S
Co602 O621 2.021 . S
Co602 O626 2.062 . S
C603 N605 1.316 . S
C603 N606 1.347 . S
C603 H608 0.931 . S
C604 N605 1.375 . S
C604 C607 1.350 . S
C604 H609 0.930 . S
N605 Co600 2.057 . S
N605 C603 1.316 . S
N605 C604 1.375 . S
N606 C603 1.347 . S
N606 C607 1.373 . S
C607 C604 1.350 . S
C607 N606 1.373 . S
C607 H628 0.931 . S
H608 C603 0.931 . S
H609 C604 0.930 . S
C610 O617 1.259 . S
C610 O618 1.258 . S
N611 Co602 2.057 . S
N611 C612 1.316 . S
N611 C613 1.375 . S
C612 N611 1.316 . S
C612 N614 1.347 . S
C612 H623 0.931 . S
C613 N611 1.375 . S
C613 C615 1.350 . S
C613 H622 0.930 . S
N614 C612 1.347 . S
N614 C615 1.373 . S
C615 C613 1.350 . S
C615 N614 1.373 . S
C615 H629 0.931 . S
C616 O619 1.256 . S
C616 O620 1.255 . S
O617 Co600 2.021 . S
O617 C610 1.259 . S
O618 Co602 2.117 . S
O618 C610 1.258 . S
O619 Co602 2.020 . S
O619 C616 1.256 . S
O620 Co600 2.062 . S
O620 C616 1.255 . S
O621 C601 1.259 . S
O621 Co602 2.021 . S
H622 C613 0.930 . S
H623 C612 0.931 . S
O624 Co600 2.117 . S
O624 C601 1.258 . S
O625 Co600 2.020 . S
O625 C627 1.256 . S
O626 Co602 2.062 . S
O626 C627 1.255 . S
C627 O625 1.256 . S
C627 O626 1.255 . S
H628 C607 0.931 . S
H629 C615 0.931 . S
Co630 N635 2.057 . S
Co630 O647 2.021 . S
Co630 O650 2.062 . S
Co630 O654 2.117 . S
Co630 O655 2.020 . S
C631 O651 1.259 . S
C631 O654 1.258 . S
Co632 N641 2.057 1_556 S
Co632 O648 2.117 . S
Co632 O649 2.020 . S
Co632 O651 2.021 . S
Co632 O656 2.062 . S
C633 N635 1.316 . S
C633 N636 1.347 . S
C633 H638 0.931 . S
C634 N635 1.375 . S
C634 C637 1.350 . S
C634 H639 0.930 . S
N635 Co630 2.057 . S
N635 C633 1.316 . S
N635 C634 1.375 . S
N636 C633 1.347 . S
N636 C637 1.373 . S
C637 C634 1.350 . S
C637 N636 1.373 . S
C637 H658 0.931 . S
H638 C633 0.931 . S
H639 C634 0.930 . S
C640 O647 1.259 . S
C640 O648 1.258 . S
N641 Co632 2.057 1_554 S
N641 C642 1.316 . S
N641 C643 1.375 . S
C642 N641 1.316 . S
C642 N644 1.347 . S
C642 H653 0.931 . S
C643 N641 1.375 . S
C643 C645 1.350 . S
C643 H652 0.930 1_554 S
N644 C642 1.347 . S
N644 C645 1.373 . S
C645 C643 1.350 . S
C645 N644 1.373 . S
C645 H659 0.931 . S
C646 O649 1.256 . S
C646 O650 1.255 . S
O647 Co630 2.021 . S
O647 C640 1.259 . S
O648 Co632 2.117 . S
O648 C640 1.258 . S
O649 Co632 2.020 . S
O649 C646 1.256 . S
O650 Co630 2.062 . S
O650 C646 1.255 . S
O651 C631 1.259 . S
O651 Co632 2.021 . S
H652 C643 0.930 1_556 S
H653 C642 0.931 . S
O654 Co630 2.117 . S
O654 C631 1.258 . S
O655 Co630 2.020 . S
O655 C657 1.256 . S
O656 Co632 2.062 . S
O656 C657 1.255 . S
C657 O655 1.256 . S
C657 O656 1.255 . S
H658 C637 0.931 . S
H659 C645 0.931 . S
Co660 N665 2.057 . S
Co660 O677 2.021 . S
Co660 O680 2.062 . S
Co660 O684 2.117 . S
Co660 O685 2.020 . S
C661 O681 1.259 . S
C661 O684 1.258 . S
Co662 N671 2.057 . S
Co662 O678 2.117 . S
Co662 O679 2.020 . S
Co662 O681 2.021 . S
Co662 O686 2.062 . S
C663 N665 1.316 . S
C663 N666 1.347 . S
C663 H668 0.931 . S
C664 N665 1.375 . S
C664 C667 1.350 . S
C664 H669 0.930 . S
N665 Co660 2.057 . S
N665 C663 1.316 . S
N665 C664 1.375 . S
N666 C663 1.347 . S
N666 C667 1.373 . S
C667 C664 1.350 . S
C667 N666 1.373 . S
C667 H688 0.931 . S
H668 C663 0.931 . S
H669 C664 0.930 . S
C670 O677 1.259 . S
C670 O678 1.258 . S
N671 Co662 2.057 . S
N671 C672 1.316 . S
N671 C673 1.375 . S
C672 N671 1.316 . S
C672 N674 1.347 . S
C672 H683 0.931 . S
C673 N671 1.375 . S
C673 C675 1.350 . S
C673 H682 0.930 . S
N674 C672 1.347 . S
N674 C675 1.373 . S
C675 C673 1.350 . S
C675 N674 1.373 . S
C675 H689 0.931 . S
C676 O679 1.256 . S
C676 O680 1.255 . S
O677 Co660 2.021 . S
O677 C670 1.259 . S
O678 Co662 2.117 . S
O678 C670 1.258 . S
O679 Co662 2.020 . S
O679 C676 1.256 . S
O680 Co660 2.062 . S
O680 C676 1.255 . S
O681 C661 1.259 . S
O681 Co662 2.021 . S
H682 C673 0.930 . S
H683 C672 0.931 . S
O684 Co660 2.117 . S
O684 C661 1.258 . S
O685 Co660 2.020 . S
O685 C687 1.256 . S
O686 Co662 2.062 . S
O686 C687 1.255 . S
C687 O685 1.256 . S
C687 O686 1.255 . S
H688 C667 0.931 . S
H689 C675 0.931 . S
Co690 N695 2.057 . S
Co690 O707 2.021 . S
Co690 O710 2.062 . S
Co690 O714 2.117 . S
Co690 O715 2.020 . S
C691 O711 1.259 . S
C691 O714 1.258 . S
Co692 N701 2.057 . S
Co692 O708 2.117 . S
Co692 O709 2.020 . S
Co692 O711 2.021 . S
Co692 O716 2.062 . S
C693 N695 1.316 . S
C693 N696 1.347 . S
C693 H698 0.931 . S
C694 N695 1.375 . S
C694 C697 1.350 . S
C694 H699 0.930 . S
N695 Co690 2.057 . S
N695 C693 1.316 . S
N695 C694 1.375 . S
N696 C693 1.347 . S
N696 C697 1.373 . S
C697 C694 1.350 . S
C697 N696 1.373 . S
C697 H718 0.931 . S
H698 C693 0.931 . S
H699 C694 0.930 . S
C700 O707 1.259 . S
C700 O708 1.258 . S
N701 Co692 2.057 . S
N701 C702 1.316 . S
N701 C703 1.375 . S
C702 N701 1.316 . S
C702 N704 1.347 . S
C702 H713 0.931 . S
C703 N701 1.375 . S
C703 C705 1.350 . S
C703 H712 0.930 . S
N704 C702 1.347 . S
N704 C705 1.373 . S
C705 C703 1.350 . S
C705 N704 1.373 . S
C705 H719 0.931 . S
C706 O709 1.256 . S
C706 O710 1.255 . S
O707 Co690 2.021 . S
O707 C700 1.259 . S
O708 Co692 2.117 . S
O708 C700 1.258 . S
O709 Co692 2.020 . S
O709 C706 1.256 . S
O710 Co690 2.062 . S
O710 C706 1.255 . S
O711 C691 1.259 . S
O711 Co692 2.021 . S
H712 C703 0.930 . S
H713 C702 0.931 . S
O714 Co690 2.117 . S
O714 C691 1.258 . S
O715 Co690 2.020 . S
O715 C717 1.256 . S
O716 Co692 2.062 . S
O716 C717 1.255 . S
C717 O715 1.256 . S
C717 O716 1.255 . S
H718 C697 0.931 . S
H719 C705 0.931 . S
Co720 N725 2.057 . S
Co720 O737 2.021 . S
Co720 O740 2.062 . S
Co720 O744 2.117 . S
Co720 O745 2.020 . S
C721 O741 1.259 . S
C721 O744 1.258 . S
Co722 N731 2.057 . S
Co722 O738 2.117 . S
Co722 O739 2.020 . S
Co722 O741 2.021 . S
Co722 O746 2.062 . S
C723 N725 1.316 . S
C723 N726 1.347 . S
C723 H728 0.931 . S
C724 N725 1.375 . S
C724 C727 1.350 . S
C724 H729 0.930 . S
N725 Co720 2.057 . S
N725 C723 1.316 . S
N725 C724 1.375 . S
N726 C723 1.347 . S
N726 C727 1.373 . S
C727 C724 1.350 . S
C727 N726 1.373 . S
C727 H748 0.931 . S
H728 C723 0.931 . S
H729 C724 0.930 . S
C730 O737 1.259 . S
C730 O738 1.258 . S
N731 Co722 2.057 . S
N731 C732 1.316 . S
N731 C733 1.375 . S
C732 N731 1.316 . S
C732 N734 1.347 . S
C732 H743 0.931 . S
C733 N731 1.375 . S
C733 C735 1.350 . S
C733 H742 0.930 . S
N734 C732 1.347 . S
N734 C735 1.373 . S
C735 C733 1.350 . S
C735 N734 1.373 . S
C735 H749 0.931 . S
C736 O739 1.256 . S
C736 O740 1.255 . S
O737 Co720 2.021 . S
O737 C730 1.259 . S
O738 Co722 2.117 . S
O738 C730 1.258 . S
O739 Co722 2.020 . S
O739 C736 1.256 . S
O740 Co720 2.062 . S
O740 C736 1.255 . S
O741 C721 1.259 . S
O741 Co722 2.021 . S
H742 C733 0.930 . S
H743 C732 0.931 . S
O744 Co720 2.117 . S
O744 C721 1.258 . S
O745 Co720 2.020 . S
O745 C747 1.256 . S
O746 Co722 2.062 . S
O746 C747 1.255 . S
C747 O745 1.256 . S
C747 O746 1.255 . S
H748 C727 0.931 . S
H749 C735 0.931 . S
Co750 N755 2.057 1_556 S
Co750 O767 2.021 1_556 S
Co750 O770 2.062 . S
Co750 O774 2.117 . S
Co750 O775 2.020 . S
C751 O771 1.259 . S
C751 O774 1.258 . S
Co752 N761 2.057 . S
Co752 O768 2.117 . S
Co752 O769 2.020 . S
Co752 O771 2.021 . S
Co752 O776 2.062 . S
C753 N755 1.316 . S
C753 N756 1.347 . S
C753 H758 0.931 . S
C754 N755 1.375 . S
C754 C757 1.350 . S
C754 H759 0.930 . S
N755 Co750 2.057 1_554 S
N755 C753 1.316 . S
N755 C754 1.375 . S
N756 C753 1.347 . S
N756 C757 1.373 . S
C757 C754 1.350 . S
C757 N756 1.373 . S
C757 H778 0.931 . S
H758 C753 0.931 . S
H759 C754 0.930 . S
C760 O767 1.259 1_556 S
C760 O768 1.258 . S
N761 Co752 2.057 . S
N761 C762 1.316 . S
N761 C763 1.375 . S
C762 N761 1.316 . S
C762 N764 1.347 . S
C762 H773 0.931 . S
C763 N761 1.375 . S
C763 C765 1.350 . S
C763 H772 0.930 . S
N764 C762 1.347 . S
N764 C765 1.373 . S
C765 C763 1.350 . S
C765 N764 1.373 . S
C765 H779 0.931 . S
C766 O769 1.256 . S
C766 O770 1.255 . S
O767 Co750 2.021 1_554 S
O767 C760 1.259 1_554 S
O768 Co752 2.117 . S
O768 C760 1.258 . S
O769 Co752 2.020 . S
O769 C766 1.256 . S
O770 Co750 2.062 . S
O770 C766 1.255 . S
O771 C751 1.259 . S
O771 Co752 2.021 . S
H772 C763 0.930 . S
H773 C762 0.931 . S
O774 Co750 2.117 . S
O774 C751 1.258 . S
O775 Co750 2.020 . S
O775 C777 1.256 . S
O776 Co752 2.062 . S
O776 C777 1.255 . S
C777 O775 1.256 . S
C777 O776 1.255 . S
H778 C757 0.931 . S
H779 C765 0.931 . S
Co780 N785 2.057 . S
Co780 O797 2.021 . S
Co780 O800 2.062 . S
Co780 O804 2.117 . S
Co780 O805 2.020 . S
C781 O801 1.259 . S
C781 O804 1.258 . S
Co782 N791 2.057 . S
Co782 O798 2.117 . S
Co782 O799 2.020 . S
Co782 O801 2.021 . S
Co782 O806 2.062 . S
C783 N785 1.316 . S
C783 N786 1.347 . S
C783 H788 0.931 . S
C784 N785 1.375 . S
C784 C787 1.350 . S
C784 H789 0.930 . S
N785 Co780 2.057 . S
N785 C783 1.316 . S
N785 C784 1.375 . S
N786 C783 1.347 . S
N786 C787 1.373 . S
C787 C784 1.350 . S
C787 N786 1.373 . S
C787 H808 0.931 . S
H788 C783 0.931 . S
H789 C784 0.930 . S
C790 O797 1.259 . S
C790 O798 1.258 . S
N791 Co782 2.057 . S
N791 C792 1.316 . S
N791 C793 1.375 . S
C792 N791 1.316 . S
C792 N794 1.347 . S
C792 H803 0.931 . S
C793 N791 1.375 . S
C793 C795 1.350 . S
C793 H802 0.930 . S
N794 C792 1.347 . S
N794 C795 1.373 . S
C795 C793 1.350 . S
C795 N794 1.373 . S
C795 H809 0.931 . S
C796 O799 1.256 . S
C796 O800 1.255 . S
O797 Co780 2.021 . S
O797 C790 1.259 . S
O798 Co782 2.117 . S
O798 C790 1.258 . S
O799 Co782 2.020 . S
O799 C796 1.256 . S
O800 Co780 2.062 . S
O800 C796 1.255 . S
O801 C781 1.259 . S
O801 Co782 2.021 . S
H802 C793 0.930 . S
H803 C792 0.931 . S
O804 Co780 2.117 . S
O804 C781 1.258 . S
O805 Co780 2.020 . S
O805 C807 1.256 . S
O806 Co782 2.062 . S
O806 C807 1.255 . S
C807 O805 1.256 . S
C807 O806 1.255 . S
H808 C787 0.931 . S
H809 C795 0.931 . S
Co810 N815 2.057 . S
Co810 O827 2.021 . S
Co810 O830 2.062 . S
Co810 O834 2.117 . S
Co810 O835 2.020 . S
C811 O831 1.259 . S
C811 O834 1.258 . S
Co812 N821 2.057 . S
Co812 O828 2.117 . S
Co812 O829 2.020 . S
Co812 O831 2.021 . S
Co812 O836 2.062 . S
C813 N815 1.316 . S
C813 N816 1.347 . S
C813 H818 0.931 . S
C814 N815 1.375 . S
C814 C817 1.350 . S
C814 H819 0.930 . S
N815 Co810 2.057 . S
N815 C813 1.316 . S
N815 C814 1.375 . S
N816 C813 1.347 . S
N816 C817 1.373 . S
C817 C814 1.350 . S
C817 N816 1.373 . S
C817 H838 0.931 . S
H818 C813 0.931 . S
H819 C814 0.930 . S
C820 O827 1.259 . S
C820 O828 1.258 . S
N821 Co812 2.057 . S
N821 C822 1.316 . S
N821 C823 1.375 . S
C822 N821 1.316 . S
C822 N824 1.347 . S
C822 H833 0.931 . S
C823 N821 1.375 . S
C823 C825 1.350 . S
C823 H832 0.930 . S
N824 C822 1.347 . S
N824 C825 1.373 . S
C825 C823 1.350 . S
C825 N824 1.373 . S
C825 H839 0.931 . S
C826 O829 1.256 . S
C826 O830 1.255 . S
O827 Co810 2.021 . S
O827 C820 1.259 . S
O828 Co812 2.117 . S
O828 C820 1.258 . S
O829 Co812 2.020 . S
O829 C826 1.256 . S
O830 Co810 2.062 . S
O830 C826 1.255 . S
O831 C811 1.259 . S
O831 Co812 2.021 . S
H832 C823 0.930 . S
H833 C822 0.931 . S
O834 Co810 2.117 . S
O834 C811 1.258 . S
O835 Co810 2.020 . S
O835 C837 1.256 . S
O836 Co812 2.062 . S
O836 C837 1.255 . S
C837 O835 1.256 . S
C837 O836 1.255 . S
H838 C817 0.931 . S
H839 C825 0.931 . S
Co840 N845 2.057 . S
Co840 O857 2.021 . S
Co840 O860 2.062 . S
Co840 O864 2.117 . S
Co840 O865 2.020 . S
C841 O861 1.259 . S
C841 O864 1.258 . S
Co842 N851 2.057 . S
Co842 O858 2.117 . S
Co842 O859 2.020 . S
Co842 O861 2.021 . S
Co842 O866 2.062 . S
C843 N845 1.316 . S
C843 N846 1.347 . S
C843 H848 0.931 . S
C844 N845 1.375 . S
C844 C847 1.350 . S
C844 H849 0.930 . S
N845 Co840 2.057 . S
N845 C843 1.316 . S
N845 C844 1.375 . S
N846 C843 1.347 . S
N846 C847 1.373 . S
C847 C844 1.350 . S
C847 N846 1.373 . S
C847 H868 0.931 . S
H848 C843 0.931 . S
H849 C844 0.930 . S
C850 O857 1.259 . S
C850 O858 1.258 . S
N851 Co842 2.057 . S
N851 C852 1.316 . S
N851 C853 1.375 . S
C852 N851 1.316 . S
C852 N854 1.347 . S
C852 H863 0.931 . S
C853 N851 1.375 . S
C853 C855 1.350 . S
C853 H862 0.930 . S
N854 C852 1.347 . S
N854 C855 1.373 . S
C855 C853 1.350 . S
C855 N854 1.373 . S
C855 H869 0.931 . S
C856 O859 1.256 . S
C856 O860 1.255 . S
O857 Co840 2.021 . S
O857 C850 1.259 . S
O858 Co842 2.117 . S
O858 C850 1.258 . S
O859 Co842 2.020 . S
O859 C856 1.256 . S
O860 Co840 2.062 . S
O860 C856 1.255 . S
O861 C841 1.259 . S
O861 Co842 2.021 . S
H862 C853 0.930 . S
H863 C852 0.931 . S
O864 Co840 2.117 . S
O864 C841 1.258 . S
O865 Co840 2.020 . S
O865 C867 1.256 . S
O866 Co842 2.062 . S
O866 C867 1.255 . S
C867 O865 1.256 . S
C867 O866 1.255 . S
H868 C847 0.931 . S
H869 C855 0.931 . S
Co870 N875 2.057 1_554 S
Co870 O887 2.021 . S
Co870 O890 2.062 . S
Co870 O894 2.117 . S
Co870 O895 2.020 . S
C871 O891 1.259 . S
C871 O894 1.258 . S
Co872 N881 2.057 . S
Co872 O888 2.117 . S
Co872 O889 2.020 . S
Co872 O891 2.021 . S
Co872 O896 2.062 . S
C873 N875 1.316 . S
C873 N876 1.347 . S
C873 H878 0.931 . S
C874 N875 1.375 . S
C874 C877 1.350 . S
C874 H879 0.930 1_556 S
N875 Co870 2.057 1_556 S
N875 C873 1.316 . S
N875 C874 1.375 . S
N876 C873 1.347 . S
N876 C877 1.373 . S
C877 C874 1.350 . S
C877 N876 1.373 . S
C877 H898 0.931 . S
H878 C873 0.931 . S
H879 C874 0.930 1_554 S
C880 O887 1.259 . S
C880 O888 1.258 . S
N881 Co872 2.057 . S
N881 C882 1.316 . S
N881 C883 1.375 . S
C882 N881 1.316 . S
C882 N884 1.347 . S
C882 H893 0.931 . S
C883 N881 1.375 . S
C883 C885 1.350 . S
C883 H892 0.930 . S
N884 C882 1.347 . S
N884 C885 1.373 . S
C885 C883 1.350 . S
C885 N884 1.373 . S
C885 H899 0.931 . S
C886 O889 1.256 . S
C886 O890 1.255 . S
O887 Co870 2.021 . S
O887 C880 1.259 . S
O888 Co872 2.117 . S
O888 C880 1.258 . S
O889 Co872 2.020 . S
O889 C886 1.256 . S
O890 Co870 2.062 . S
O890 C886 1.255 . S
O891 C871 1.259 . S
O891 Co872 2.021 . S
H892 C883 0.930 . S
H893 C882 0.931 . S
O894 Co870 2.117 . S
O894 C871 1.258 . S
O895 Co870 2.020 . S
O895 C897 1.256 . S
O896 Co872 2.062 . S
O896 C897 1.255 . S
C897 O895 1.256 . S
C897 O896 1.255 . S
H898 C877 0.931 . S
H899 C885 0.931 . S
Co900 N905 2.057 . S
Co900 O917 2.021 . S
Co900 O920 2.062 . S
Co900 O924 2.117 . S
Co900 O925 2.020 . S
C901 O921 1.259 . S
C901 O924 1.258 . S
Co902 N911 2.057 . S
Co902 O918 2.117 . S
Co902 O919 2.020 . S
Co902 O921 2.021 . S
Co902 O926 2.062 . S
C903 N905 1.316 . S
C903 N906 1.347 . S
C903 H908 0.931 . S
C904 N905 1.375 . S
C904 C907 1.350 . S
C904 H909 0.930 . S
N905 Co900 2.057 . S
N905 C903 1.316 . S
N905 C904 1.375 . S
N906 C903 1.347 . S
N906 C907 1.373 . S
C907 C904 1.350 . S
C907 N906 1.373 . S
C907 H928 0.931 . S
H908 C903 0.931 . S
H909 C904 0.930 . S
C910 O917 1.259 . S
C910 O918 1.258 . S
N911 Co902 2.057 . S
N911 C912 1.316 . S
N911 C913 1.375 . S
C912 N911 1.316 . S
C912 N914 1.347 . S
C912 H923 0.931 . S
C913 N911 1.375 . S
C913 C915 1.350 . S
C913 H922 0.930 . S
N914 C912 1.347 . S
N914 C915 1.373 . S
C915 C913 1.350 . S
C915 N914 1.373 . S
C915 H929 0.931 . S
C916 O919 1.256 . S
C916 O920 1.255 . S
O917 Co900 2.021 . S
O917 C910 1.259 . S
O918 Co902 2.117 . S
O918 C910 1.258 . S
O919 Co902 2.020 . S
O919 C916 1.256 . S
O920 Co900 2.062 . S
O920 C916 1.255 . S
O921 C901 1.259 . S
O921 Co902 2.021 . S
H922 C913 0.930 . S
H923 C912 0.931 . S
O924 Co900 2.117 . S
O924 C901 1.258 . S
O925 Co900 2.020 . S
O925 C927 1.256 . S
O926 Co902 2.062 . S
O926 C927 1.255 . S
C927 O925 1.256 . S
C927 O926 1.255 . S
H928 C907 0.931 . S
H929 C915 0.931 . S
Co930 N935 2.057 . S
Co930 O947 2.021 . S
Co930 O950 2.062 . S
Co930 O954 2.117 . S
Co930 O955 2.020 . S
C931 O951 1.259 . S
C931 O954 1.258 . S
Co932 N941 2.057 . S
Co932 O948 2.117 . S
Co932 O949 2.020 . S
Co932 O951 2.021 . S
Co932 O956 2.062 . S
C933 N935 1.316 . S
C933 N936 1.347 . S
C933 H938 0.931 . S
C934 N935 1.375 . S
C934 C937 1.350 . S
C934 H939 0.930 . S
N935 Co930 2.057 . S
N935 C933 1.316 . S
N935 C934 1.375 . S
N936 C933 1.347 . S
N936 C937 1.373 . S
C937 C934 1.350 . S
C937 N936 1.373 . S
C937 H958 0.931 . S
H938 C933 0.931 . S
H939 C934 0.930 . S
C940 O947 1.259 . S
C940 O948 1.258 . S
N941 Co932 2.057 . S
N941 C942 1.316 . S
N941 C943 1.375 . S
C942 N941 1.316 . S
C942 N944 1.347 . S
C942 H953 0.931 . S
C943 N941 1.375 . S
C943 C945 1.350 . S
C943 H952 0.930 . S
N944 C942 1.347 . S
N944 C945 1.373 . S
C945 C943 1.350 . S
C945 N944 1.373 . S
C945 H959 0.931 . S
C946 O949 1.256 . S
C946 O950 1.255 . S
O947 Co930 2.021 . S
O947 C940 1.259 . S
O948 Co932 2.117 . S
O948 C940 1.258 . S
O949 Co932 2.020 . S
O949 C946 1.256 . S
O950 Co930 2.062 . S
O950 C946 1.255 . S
O951 C931 1.259 . S
O951 Co932 2.021 . S
H952 C943 0.930 . S
H953 C942 0.931 . S
O954 Co930 2.117 . S
O954 C931 1.258 . S
O955 Co930 2.020 . S
O955 C957 1.256 . S
O956 Co932 2.062 . S
O956 C957 1.255 . S
C957 O955 1.256 . S
C957 O956 1.255 . S
H958 C937 0.931 . S
H959 C945 0.931 . S
H960 C966 0.930 . S
H961 C969 0.930 . S
H962 C970 0.930 . S
H963 C971 0.930 . S
H964 C974 0.930 . S
H965 C975 0.930 . S
C966 H960 0.930 . S
C966 C967 1.355 . S
C966 C968 1.415 . S
C967 C966 1.355 . S
C967 C969 1.419 . S
C968 C966 1.415 . S
C968 C973 1.425 . S
C968 C975 1.409 . S
C969 H961 0.930 . S
C969 C967 1.419 . S
C969 C970 1.362 . S
C970 H962 0.930 . S
C970 C969 1.362 . S
C970 C973 1.409 . S
C971 H963 0.930 . S
C971 C972 1.355 . S
C971 C973 1.415 . S
C972 C971 1.355 . S
C972 C974 1.419 . S
C973 C968 1.425 . S
C973 C970 1.409 . S
C973 C971 1.415 . S
C974 H964 0.930 . S
C974 C972 1.419 . S
C974 C975 1.362 . S
C975 H965 0.930 . S
C975 C968 1.409 . S
C975 C974 1.362 . S
H976 C982 0.930 1_565 S
H977 C985 0.930 . S
H978 C986 0.930 . S
H979 C987 0.930 . S
H980 C990 0.930 . S
H981 C991 0.930 . S
C982 H976 0.930 1_545 S
C982 C983 1.355 . S
C982 C984 1.415 1_545 S
C983 C982 1.355 . S
C983 C985 1.419 . S
C984 C982 1.415 1_565 S
C984 C989 1.425 . S
C984 C991 1.409 . S
C985 H977 0.930 . S
C985 C983 1.419 . S
C985 C986 1.362 . S
C986 H978 0.930 . S
C986 C985 1.362 . S
C986 C989 1.409 1_545 S
C987 H979 0.930 . S
C987 C988 1.355 . S
C987 C989 1.415 . S
C988 C987 1.355 . S
C988 C990 1.419 . S
C989 C984 1.425 . S
C989 C986 1.409 1_565 S
C989 C987 1.415 . S
C990 H980 0.930 . S
C990 C988 1.419 . S
C990 C991 1.362 . S
C991 H981 0.930 . S
C991 C984 1.409 . S
C991 C990 1.362 . S
H992 C998 0.930 . S
H993 C1001 0.930 . S
H994 C1002 0.930 . S
H995 C1003 0.930 . S
H996 C1006 0.930 . S
H997 C1007 0.930 . S
C998 H992 0.930 . S
C998 C999 1.355 . S
C998 C1000 1.415 . S
C999 C998 1.355 . S
C999 C1001 1.419 . S
C1000 C998 1.415 . S
C1000 C1005 1.425 . S
C1000 C1007 1.409 . S
C1001 H993 0.930 . S
C1001 C999 1.419 . S
C1001 C1002 1.362 . S
C1002 H994 0.930 . S
C1002 C1001 1.362 . S
C1002 C1005 1.409 . S
C1003 H995 0.930 . S
C1003 C1004 1.355 . S
C1003 C1005 1.415 . S
C1004 C1003 1.355 . S
C1004 C1006 1.419 . S
C1005 C1000 1.425 . S
C1005 C1002 1.409 . S
C1005 C1003 1.415 . S
C1006 H996 0.930 . S
C1006 C1004 1.419 . S
C1006 C1007 1.362 . S
C1007 H997 0.930 . S
C1007 C1000 1.409 . S
C1007 C1006 1.362 . S
H1008 C1014 0.930 . S
H1009 C1017 0.930 . S
H1010 C1018 0.930 . S
H1011 C1019 0.930 1_554 S
H1012 C1022 0.930 . S
H1013 C1023 0.930 1_545 S
C1014 H1008 0.930 . S
C1014 C1015 1.355 . S
C1014 C1016 1.415 . S
C1015 C1014 1.355 . S
C1015 C1017 1.419 . S
C1016 C1014 1.415 . S
C1016 C1021 1.425 . S
C1016 C1023 1.409 . S
C1017 H1009 0.930 . S
C1017 C1015 1.419 . S
C1017 C1018 1.362 . S
C1018 H1010 0.930 . S
C1018 C1017 1.362 . S
C1018 C1021 1.409 . S
C1019 H1011 0.930 1_556 S
C1019 C1020 1.355 . S
C1019 C1021 1.415 . S
C1020 C1019 1.355 . S
C1020 C1022 1.419 1_565 S
C1021 C1016 1.425 . S
C1021 C1018 1.409 . S
C1021 C1019 1.415 . S
C1022 H1012 0.930 . S
C1022 C1020 1.419 1_545 S
C1022 C1023 1.362 1_545 S
C1023 H1013 0.930 1_565 S
C1023 C1016 1.409 . S
C1023 C1022 1.362 1_565 S
H1024 C1030 0.930 . S
H1025 C1033 0.930 . S
H1026 C1034 0.930 . S
H1027 C1035 0.930 . S
H1028 C1038 0.930 . S
H1029 C1039 0.930 . S
C1030 H1024 0.930 . S
C1030 C1031 1.355 . S
C1030 C1032 1.415 . S
C1031 C1030 1.355 . S
C1031 C1033 1.419 . S
C1032 C1030 1.415 . S
C1032 C1037 1.425 . S
C1032 C1039 1.409 . S
C1033 H1025 0.930 . S
C1033 C1031 1.419 . S
C1033 C1034 1.362 . S
C1034 H1026 0.930 . S
C1034 C1033 1.362 . S
C1034 C1037 1.409 . S
C1035 H1027 0.930 . S
C1035 C1036 1.355 . S
C1035 C1037 1.415 . S
C1036 C1035 1.355 . S
C1036 C1038 1.419 . S
C1037 C1032 1.425 . S
C1037 C1034 1.409 . S
C1037 C1035 1.415 . S
C1038 H1028 0.930 . S
C1038 C1036 1.419 . S
C1038 C1039 1.362 . S
C1039 H1029 0.930 . S
C1039 C1032 1.409 . S
C1039 C1038 1.362 . S
H1040 C1046 0.930 . S
H1041 C1049 0.930 . S
H1042 C1050 0.930 . S
H1043 C1051 0.930 . S
H1044 C1054 0.930 . S
H1045 C1055 0.930 . S
C1046 H1040 0.930 . S
C1046 C1047 1.355 . S
C1046 C1048 1.415 . S
C1047 C1046 1.355 . S
C1047 C1049 1.419 . S
C1048 C1046 1.415 . S
C1048 C1053 1.425 1_565 S
C1048 C1055 1.409 . S
C1049 H1041 0.930 . S
C1049 C1047 1.419 . S
C1049 C1050 1.362 1_565 S
C1050 H1042 0.930 . S
C1050 C1049 1.362 1_545 S
C1050 C1053 1.409 . S
C1051 H1043 0.930 . S
C1051 C1052 1.355 . S
C1051 C1053 1.415 . S
C1052 C1051 1.355 . S
C1052 C1054 1.419 . S
C1053 C1048 1.425 1_545 S
C1053 C1050 1.409 . S
C1053 C1051 1.415 . S
C1054 H1044 0.930 . S
C1054 C1052 1.419 . S
C1054 C1055 1.362 1_545 S
C1055 H1045 0.930 . S
C1055 C1048 1.409 . S
C1055 C1054 1.362 1_565 S
H1056 C1062 0.930 . S
H1057 C1065 0.930 . S
H1058 C1066 0.930 . S
H1059 C1067 0.930 . S
H1060 C1070 0.930 . S
H1061 C1071 0.930 . S
C1062 H1056 0.930 . S
C1062 C1063 1.355 . S
C1062 C1064 1.415 . S
C1063 C1062 1.355 . S
C1063 C1065 1.419 . S
C1064 C1062 1.415 . S
C1064 C1069 1.425 . S
C1064 C1071 1.409 . S
C1065 H1057 0.930 . S
C1065 C1063 1.419 . S
C1065 C1066 1.362 . S
C1066 H1058 0.930 . S
C1066 C1065 1.362 . S
C1066 C1069 1.409 . S
C1067 H1059 0.930 . S
C1067 C1068 1.355 . S
C1067 C1069 1.415 . S
C1068 C1067 1.355 . S
C1068 C1070 1.419 . S
C1069 C1064 1.425 . S
C1069 C1066 1.409 . S
C1069 C1067 1.415 . S
C1070 H1060 0.930 . S
C1070 C1068 1.419 . S
C1070 C1071 1.362 . S
C1071 H1061 0.930 . S
C1071 C1064 1.409 . S
C1071 C1070 1.362 . S
H1072 C1078 0.930 . S
H1073 C1081 0.930 . S
H1074 C1082 0.930 1_545 S
H1075 C1083 0.930 . S
H1076 C1086 0.930 . S
H1077 C1087 0.930 1_565 S
C1078 H1072 0.930 . S
C1078 C1079 1.355 1_556 S
C1078 C1080 1.415 . S
C1079 C1078 1.355 1_554 S
C1079 C1081 1.419 . S
C1080 C1078 1.415 . S
C1080 C1085 1.425 1_565 S
C1080 C1087 1.409 1_565 S
C1081 H1073 0.930 . S
C1081 C1079 1.419 . S
C1081 C1082 1.362 . S
C1082 H1074 0.930 1_565 S
C1082 C1081 1.362 . S
C1082 C1085 1.409 1_564 S
C1083 H1075 0.930 . S
C1083 C1084 1.355 . S
C1083 C1085 1.415 . S
C1084 C1083 1.355 . S
C1084 C1086 1.419 . S
C1085 C1080 1.425 1_545 S
C1085 C1082 1.409 1_546 S
C1085 C1083 1.415 . S
C1086 H1076 0.930 . S
C1086 C1084 1.419 . S
C1086 C1087 1.362 . S
C1087 H1077 0.930 1_545 S
C1087 C1080 1.409 1_545 S
C1087 C1086 1.362 . S
H1088 C1094 0.930 . S
H1089 C1097 0.930 . S
H1090 C1098 0.930 . S
H1091 C1099 0.930 . S
H1092 C1102 0.930 . S
H1093 C1103 0.930 . S
C1094 H1088 0.930 . S
C1094 C1095 1.355 . S
C1094 C1096 1.415 . S
C1095 C1094 1.355 . S
C1095 C1097 1.419 . S
C1096 C1094 1.415 . S
C1096 C1101 1.425 . S
C1096 C1103 1.409 . S
C1097 H1089 0.930 . S
C1097 C1095 1.419 . S
C1097 C1098 1.362 . S
C1098 H1090 0.930 . S
C1098 C1097 1.362 . S
C1098 C1101 1.409 . S
C1099 H1091 0.930 . S
C1099 C1100 1.355 . S
C1099 C1101 1.415 . S
C1100 C1099 1.355 . S
C1100 C1102 1.419 . S
C1101 C1096 1.425 . S
C1101 C1098 1.409 . S
C1101 C1099 1.415 . S
C1102 H1092 0.930 . S
C1102 C1100 1.419 . S
C1102 C1103 1.362 . S
C1103 H1093 0.930 . S
C1103 C1096 1.409 . S
C1103 C1102 1.362 . S
H1104 C1110 0.930 . S
H1105 C1113 0.930 . S
H1106 C1114 0.930 . S
H1107 C1115 0.930 1_545 S
H1108 C1118 0.930 . S
H1109 C1119 0.930 . S
C1110 H1104 0.930 . S
C1110 C1111 1.355 . S
C1110 C1112 1.415 . S
C1111 C1110 1.355 . S
C1111 C1113 1.419 . S
C1112 C1110 1.415 . S
C1112 C1117 1.425 . S
C1112 C1119 1.409 1_545 S
C1113 H1105 0.930 . S
C1113 C1111 1.419 . S
C1113 C1114 1.362 . S
C1114 H1106 0.930 . S
C1114 C1113 1.362 . S
C1114 C1117 1.409 . S
C1115 H1107 0.930 1_565 S
C1115 C1116 1.355 . S
C1115 C1117 1.415 1_565 S
C1116 C1115 1.355 . S
C1116 C1118 1.419 . S
C1117 C1112 1.425 . S
C1117 C1114 1.409 . S
C1117 C1115 1.415 1_545 S
C1118 H1108 0.930 . S
C1118 C1116 1.419 . S
C1118 C1119 1.362 . S
C1119 H1109 0.930 . S
C1119 C1112 1.409 1_565 S
C1119 C1118 1.362 . S
H1120 C1126 0.930 . S
H1121 C1129 0.930 . S
H1122 C1130 0.930 . S
H1123 C1131 0.930 . S
H1124 C1134 0.930 . S
H1125 C1135 0.930 . S
C1126 H1120 0.930 . S
C1126 C1127 1.355 . S
C1126 C1128 1.415 . S
C1127 C1126 1.355 . S
C1127 C1129 1.419 . S
C1128 C1126 1.415 . S
C1128 C1133 1.425 . S
C1128 C1135 1.409 . S
C1129 H1121 0.930 . S
C1129 C1127 1.419 . S
C1129 C1130 1.362 . S
C1130 H1122 0.930 . S
C1130 C1129 1.362 . S
C1130 C1133 1.409 . S
C1131 H1123 0.930 . S
C1131 C1132 1.355 . S
C1131 C1133 1.415 . S
C1132 C1131 1.355 . S
C1132 C1134 1.419 . S
C1133 C1128 1.425 . S
C1133 C1130 1.409 . S
C1133 C1131 1.415 . S
C1134 H1124 0.930 . S
C1134 C1132 1.419 . S
C1134 C1135 1.362 . S
C1135 H1125 0.930 . S
C1135 C1128 1.409 . S
C1135 C1134 1.362 . S
H1136 C1142 0.930 1_565 S
H1137 C1145 0.930 . S
H1138 C1146 0.930 . S
H1139 C1147 0.930 . S
H1140 C1150 0.930 . S
H1141 C1151 0.930 . S
C1142 H1136 0.930 1_545 S
C1142 C1143 1.355 . S
C1142 C1144 1.415 . S
C1143 C1142 1.355 . S
C1143 C1145 1.419 1_554 S
C1144 C1142 1.415 . S
C1144 C1149 1.425 . S
C1144 C1151 1.409 . S
C1145 H1137 0.930 . S
C1145 C1143 1.419 1_556 S
C1145 C1146 1.362 1_556 S
C1146 H1138 0.930 . S
C1146 C1145 1.362 1_554 S
C1146 C1149 1.409 . S
C1147 H1139 0.930 . S
C1147 C1148 1.355 . S
C1147 C1149 1.415 . S
C1148 C1147 1.355 . S
C1148 C1150 1.419 . S
C1149 C1144 1.425 . S
C1149 C1146 1.409 . S
C1149 C1147 1.415 . S
C1150 H1140 0.930 . S
C1150 C1148 1.419 . S
C1150 C1151 1.362 . S
C1151 H1141 0.930 . S
C1151 C1144 1.409 . S
C1151 C1150 1.362 . S
H1152 C1158 0.930 . S
H1153 C1161 0.930 . S
H1154 C1162 0.930 . S
H1155 C1163 0.930 . S
H1156 C1166 0.930 . S
H1157 C1167 0.930 . S
C1158 H1152 0.930 . S
C1158 C1159 1.355 . S
C1158 C1160 1.415 . S
C1159 C1158 1.355 . S
C1159 C1161 1.419 . S
C1160 C1158 1.415 . S
C1160 C1165 1.425 . S
C1160 C1167 1.409 . S
C1161 H1153 0.930 . S
C1161 C1159 1.419 . S
C1161 C1162 1.362 . S
C1162 H1154 0.930 . S
C1162 C1161 1.362 . S
C1162 C1165 1.409 . S
C1163 H1155 0.930 . S
C1163 C1164 1.355 . S
C1163 C1165 1.415 . S
C1164 C1163 1.355 . S
C1164 C1166 1.419 . S
C1165 C1160 1.425 . S
C1165 C1162 1.409 . S
C1165 C1163 1.415 . S
C1166 H1156 0.930 . S
C1166 C1164 1.419 . S
C1166 C1167 1.362 . S
C1167 H1157 0.930 . S
C1167 C1160 1.409 . S
C1167 C1166 1.362 . S
H1168 C1174 0.930 . S
H1169 C1177 0.930 . S
H1170 C1178 0.930 . S
H1171 C1179 0.930 . S
H1172 C1182 0.930 . S
H1173 C1183 0.930 . S
C1174 H1168 0.930 . S
C1174 C1175 1.355 . S
C1174 C1176 1.415 1_545 S
C1175 C1174 1.355 . S
C1175 C1177 1.419 . S
C1176 C1174 1.415 1_565 S
C1176 C1181 1.425 1_565 S
C1176 C1183 1.409 . S
C1177 H1169 0.930 . S
C1177 C1175 1.419 . S
C1177 C1178 1.362 . S
C1178 H1170 0.930 . S
C1178 C1177 1.362 . S
C1178 C1181 1.409 . S
C1179 H1171 0.930 . S
C1179 C1180 1.355 . S
C1179 C1181 1.415 1_565 S
C1180 C1179 1.355 . S
C1180 C1182 1.419 . S
C1181 C1176 1.425 1_545 S
C1181 C1178 1.409 . S
C1181 C1179 1.415 1_545 S
C1182 H1172 0.930 . S
C1182 C1180 1.419 . S
C1182 C1183 1.362 . S
C1183 H1173 0.930 . S
C1183 C1176 1.409 . S
C1183 C1182 1.362 . S
H1184 C1190 0.930 . S
H1185 C1193 0.930 . S
H1186 C1194 0.930 . S
H1187 C1195 0.930 . S
H1188 C1198 0.930 . S
H1189 C1199 0.930 . S
C1190 H1184 0.930 . S
C1190 C1191 1.355 . S
C1190 C1192 1.415 . S
C1191 C1190 1.355 . S
C1191 C1193 1.419 . S
C1192 C1190 1.415 . S
C1192 C1197 1.425 . S
C1192 C1199 1.409 . S
C1193 H1185 0.930 . S
C1193 C1191 1.419 . S
C1193 C1194 1.362 . S
C1194 H1186 0.930 . S
C1194 C1193 1.362 . S
C1194 C1197 1.409 . S
C1195 H1187 0.930 . S
C1195 C1196 1.355 . S
C1195 C1197 1.415 . S
C1196 C1195 1.355 . S
C1196 C1198 1.419 . S
C1197 C1192 1.425 . S
C1197 C1194 1.409 . S
C1197 C1195 1.415 . S
C1198 H1188 0.930 . S
C1198 C1196 1.419 . S
C1198 C1199 1.362 . S
C1199 H1189 0.930 . S
C1199 C1192 1.409 . S
C1199 C1198 1.362 . S
H1200 C1206 0.930 . S
H1201 C1209 0.930 . S
H1202 C1210 0.930 . S
H1203 C1211 0.930 . S
H1204 C1214 0.930 . S
H1205 C1215 0.951 . S
C1206 H1200 0.930 . S
C1206 C1207 1.355 . S
C1206 C1208 1.416 1_556 S
C1207 C1206 1.355 . S
C1207 C1209 1.419 1_556 S
C1208 C1206 1.416 1_554 S
C1208 C1213 1.425 1_545 S
C1208 C1215 1.403 1_544 S
C1209 H1201 0.930 . S
C1209 C1207 1.419 1_554 S
C1209 C1210 1.362 . S
C1210 H1202 0.930 . S
C1210 C1209 1.362 . S
C1210 C1213 1.409 1_545 S
C1211 H1203 0.930 . S
C1211 C1212 1.355 . S
C1211 C1213 1.415 . S
C1212 C1211 1.355 . S
C1212 C1214 1.419 . S
C1213 C1208 1.425 1_565 S
C1213 C1210 1.409 1_565 S
C1213 C1211 1.415 . S
C1214 H1204 0.930 . S
C1214 C1212 1.419 . S
C1214 C1215 1.347 1_554 S
C1215 H1205 0.951 . S
C1215 C1208 1.403 1_566 S
C1215 C1214 1.347 1_556 S
H1216 C1222 0.930 . S
H1217 C1225 0.930 . S
H1218 C1226 0.930 . S
H1219 C1227 0.930 . S
H1220 C1230 0.930 . S
H1221 C1231 0.930 . S
C1222 H1216 0.930 . S
C1222 C1223 1.355 . S
C1222 C1224 1.415 . S
C1223 C1222 1.355 . S
C1223 C1225 1.419 . S
C1224 C1222 1.415 . S
C1224 C1229 1.425 . S
C1224 C1231 1.409 . S
C1225 H1217 0.930 . S
C1225 C1223 1.419 . S
C1225 C1226 1.362 . S
C1226 H1218 0.930 . S
C1226 C1225 1.362 . S
C1226 C1229 1.409 . S
C1227 H1219 0.930 . S
C1227 C1228 1.355 . S
C1227 C1229 1.415 . S
C1228 C1227 1.355 . S
C1228 C1230 1.419 . S
C1229 C1224 1.425 . S
C1229 C1226 1.409 . S
C1229 C1227 1.415 . S
C1230 H1220 0.930 . S
C1230 C1228 1.419 . S
C1230 C1231 1.362 . S
C1231 H1221 0.930 . S
C1231 C1224 1.409 . S
C1231 C1230 1.362 . S
H1232 C1238 0.930 . S
H1233 C1241 0.930 . S
H1234 C1242 0.930 . S
H1235 C1243 0.930 . S
H1236 C1246 0.930 . S
H1237 C1247 0.930 . S
C1238 H1232 0.930 . S
C1238 C1239 1.355 . S
C1238 C1240 1.415 . S
C1239 C1238 1.355 . S
C1239 C1241 1.419 . S
C1240 C1238 1.415 . S
C1240 C1245 1.425 . S
C1240 C1247 1.409 . S
C1241 H1233 0.930 . S
C1241 C1239 1.419 . S
C1241 C1242 1.362 . S
C1242 H1234 0.930 . S
C1242 C1241 1.362 . S
C1242 C1245 1.409 . S
C1243 H1235 0.930 . S
C1243 C1244 1.355 . S
C1243 C1245 1.415 . S
C1244 C1243 1.355 . S
C1244 C1246 1.419 . S
C1245 C1240 1.425 . S
C1245 C1242 1.409 . S
C1245 C1243 1.415 . S
C1246 H1236 0.930 . S
C1246 C1244 1.419 . S
C1246 C1247 1.362 . S
C1247 H1237 0.930 . S
C1247 C1240 1.409 . S
C1247 C1246 1.362 . S
H1248 C1254 0.930 . S
H1249 C1257 0.930 . S
H1250 C1258 0.930 . S
H1251 C1259 0.930 . S
H1252 C1262 0.930 . S
H1253 C1263 0.930 . S
C1254 H1248 0.930 . S
C1254 C1255 1.355 . S
C1254 C1256 1.415 . S
C1255 C1254 1.355 . S
C1255 C1257 1.419 . S
C1256 C1254 1.415 . S
C1256 C1261 1.425 . S
C1256 C1263 1.409 . S
C1257 H1249 0.930 . S
C1257 C1255 1.419 . S
C1257 C1258 1.362 . S
C1258 H1250 0.930 . S
C1258 C1257 1.362 . S
C1258 C1261 1.409 . S
C1259 H1251 0.930 . S
C1259 C1260 1.355 . S
C1259 C1261 1.415 . S
C1260 C1259 1.355 . S
C1260 C1262 1.419 . S
C1261 C1256 1.425 . S
C1261 C1258 1.409 . S
C1261 C1259 1.415 . S
C1262 H1252 0.930 . S
C1262 C1260 1.419 . S
C1262 C1263 1.362 . S
C1263 H1253 0.930 . S
C1263 C1256 1.409 . S
C1263 C1262 1.362 . S
H1264 C1270 0.930 . S
H1265 C1273 0.930 . S
H1266 C1274 0.930 . S
H1267 C1275 0.930 . S
H1268 C1278 0.930 . S
H1269 C1279 0.930 . S
C1270 H1264 0.930 . S
C1270 C1271 1.355 . S
C1270 C1272 1.415 . S
C1271 C1270 1.355 . S
C1271 C1273 1.419 . S
C1272 C1270 1.415 . S
C1272 C1277 1.425 . S
C1272 C1279 1.409 . S
C1273 H1265 0.930 . S
C1273 C1271 1.419 . S
C1273 C1274 1.362 . S
C1274 H1266 0.930 . S
C1274 C1273 1.362 . S
C1274 C1277 1.409 . S
C1275 H1267 0.930 . S
C1275 C1276 1.355 . S
C1275 C1277 1.415 . S
C1276 C1275 1.355 . S
C1276 C1278 1.419 . S
C1277 C1272 1.425 . S
C1277 C1274 1.409 . S
C1277 C1275 1.415 . S
C1278 H1268 0.930 . S
C1278 C1276 1.419 . S
C1278 C1279 1.362 . S
C1279 H1269 0.930 . S
C1279 C1272 1.409 . S
C1279 C1278 1.362 . S
H1280 C1286 0.930 . S
H1281 C1289 0.930 . S
H1282 C1290 0.930 . S
H1283 C1291 0.930 . S
H1284 C1294 0.930 . S
H1285 C1295 0.930 . S
C1286 H1280 0.930 . S
C1286 C1287 1.355 . S
C1286 C1288 1.415 . S
C1287 C1286 1.355 . S
C1287 C1289 1.419 . S
C1288 C1286 1.415 . S
C1288 C1293 1.425 . S
C1288 C1295 1.409 . S
C1289 H1281 0.930 . S
C1289 C1287 1.419 . S
C1289 C1290 1.362 . S
C1290 H1282 0.930 . S
C1290 C1289 1.362 . S
C1290 C1293 1.409 . S
C1291 H1283 0.930 . S
C1291 C1292 1.355 . S
C1291 C1293 1.415 . S
C1292 C1291 1.355 . S
C1292 C1294 1.419 . S
C1293 C1288 1.425 . S
C1293 C1290 1.409 . S
C1293 C1291 1.415 . S
C1294 H1284 0.930 . S
C1294 C1292 1.419 . S
C1294 C1295 1.362 . S
C1295 H1285 0.930 . S
C1295 C1288 1.409 . S
C1295 C1294 1.362 . S
H1296 C1302 0.930 . S
H1297 C1305 0.930 . S
H1298 C1306 0.930 . S
H1299 C1307 0.930 . S
H1300 C1310 0.930 . S
H1301 C1311 0.930 . S
C1302 H1296 0.930 . S
C1302 C1303 1.355 . S
C1302 C1304 1.421 . S
C1303 C1302 1.355 . S
C1303 C1305 1.419 . S
C1304 C1302 1.421 . S
C1304 C1309 1.425 1_554 S
C1304 C1311 1.403 1_554 S
C1305 H1297 0.930 . S
C1305 C1303 1.419 . S
C1305 C1306 1.362 . S
C1306 H1298 0.930 . S
C1306 C1305 1.362 . S
C1306 C1309 1.409 1_554 S
C1307 H1299 0.930 . S
C1307 C1308 1.355 . S
C1307 C1309 1.415 . S
C1308 C1307 1.355 . S
C1308 C1310 1.419 . S
C1309 C1304 1.425 1_556 S
C1309 C1306 1.409 1_556 S
C1309 C1307 1.415 . S
C1310 H1300 0.930 . S
C1310 C1308 1.419 . S
C1310 C1311 1.362 . S
C1311 H1301 0.930 . S
C1311 C1304 1.403 1_556 S
C1311 C1310 1.362 . S
H1312 C1318 0.930 . S
H1313 C1321 0.930 . S
H1314 C1322 0.930 . S
H1315 C1323 0.930 . S
H1316 C1326 0.930 . S
H1317 C1327 0.930 . S
C1318 H1312 0.930 . S
C1318 C1319 1.355 . S
C1318 C1320 1.415 . S
C1319 C1318 1.355 . S
C1319 C1321 1.419 . S
C1320 C1318 1.415 . S
C1320 C1325 1.425 . S
C1320 C1327 1.409 . S
C1321 H1313 0.930 . S
C1321 C1319 1.419 . S
C1321 C1322 1.362 . S
C1322 H1314 0.930 . S
C1322 C1321 1.362 . S
C1322 C1325 1.409 . S
C1323 H1315 0.930 . S
C1323 C1324 1.355 . S
C1323 C1325 1.415 . S
C1324 C1323 1.355 . S
C1324 C1326 1.419 . S
C1325 C1320 1.425 . S
C1325 C1322 1.409 . S
C1325 C1323 1.415 . S
C1326 H1316 0.930 . S
C1326 C1324 1.419 . S
C1326 C1327 1.362 . S
C1327 H1317 0.930 . S
C1327 C1320 1.409 . S
C1327 C1326 1.362 . S
H1328 C1334 0.930 . S
H1329 C1337 0.930 . S
H1330 C1338 0.930 . S
H1331 C1339 0.930 . S
H1332 C1342 0.930 . S
H1333 C1343 0.930 . S
C1334 H1328 0.930 . S
C1334 C1335 1.355 . S
C1334 C1336 1.415 . S
C1335 C1334 1.355 . S
C1335 C1337 1.419 . S
C1336 C1334 1.415 . S
C1336 C1341 1.425 . S
C1336 C1343 1.409 . S
C1337 H1329 0.930 . S
C1337 C1335 1.419 . S
C1337 C1338 1.362 . S
C1338 H1330 0.930 . S
C1338 C1337 1.362 . S
C1338 C1341 1.409 . S
C1339 H1331 0.930 . S
C1339 C1340 1.355 . S
C1339 C1341 1.415 . S
C1340 C1339 1.355 . S
C1340 C1342 1.419 . S
C1341 C1336 1.425 . S
C1341 C1338 1.409 . S
C1341 C1339 1.415 . S
C1342 H1332 0.930 . S
C1342 C1340 1.419 . S
C1342 C1343 1.362 . S
C1343 H1333 0.930 . S
C1343 C1336 1.409 . S
C1343 C1342 1.362 . S
H1344 C1350 0.930 . S
H1345 C1353 0.930 . S
H1346 C1354 0.930 . S
H1347 C1355 0.930 . S
H1348 C1358 0.930 . S
H1349 C1359 0.930 . S
C1350 H1344 0.930 . S
C1350 C1351 1.355 . S
C1350 C1352 1.415 . S
C1351 C1350 1.355 . S
C1351 C1353 1.419 . S
C1352 C1350 1.415 . S
C1352 C1357 1.425 . S
C1352 C1359 1.409 . S
C1353 H1345 0.930 . S
C1353 C1351 1.419 . S
C1353 C1354 1.362 . S
C1354 H1346 0.930 . S
C1354 C1353 1.362 . S
C1354 C1357 1.409 . S
C1355 H1347 0.930 . S
C1355 C1356 1.355 . S
C1355 C1357 1.415 . S
C1356 C1355 1.355 . S
C1356 C1358 1.419 . S
C1357 C1352 1.425 . S
C1357 C1354 1.409 . S
C1357 C1355 1.415 . S
C1358 H1348 0.930 . S
C1358 C1356 1.419 . S
C1358 C1359 1.362 . S
C1359 H1349 0.930 . S
C1359 C1352 1.409 . S
C1359 C1358 1.362 . S
H1360 C1366 0.930 . S
H1361 C1369 0.930 . S
H1362 C1370 0.930 . S
H1363 C1371 0.930 1_556 S
H1364 C1374 0.930 . S
H1365 C1375 0.930 . S
C1366 H1360 0.930 . S
C1366 C1367 1.355 . S
C1366 C1368 1.415 . S
C1367 C1366 1.355 . S
C1367 C1369 1.419 . S
C1368 C1366 1.415 . S
C1368 C1373 1.425 . S
C1368 C1375 1.409 . S
C1369 H1361 0.930 . S
C1369 C1367 1.419 . S
C1369 C1370 1.362 . S
C1370 H1362 0.930 . S
C1370 C1369 1.362 . S
C1370 C1373 1.409 . S
C1371 H1363 0.930 1_554 S
C1371 C1372 1.355 . S
C1371 C1373 1.415 . S
C1372 C1371 1.355 . S
C1372 C1374 1.419 . S
C1373 C1368 1.425 . S
C1373 C1370 1.409 . S
C1373 C1371 1.415 . S
C1374 H1364 0.930 . S
C1374 C1372 1.419 . S
C1374 C1375 1.362 . S
C1375 H1365 0.930 . S
C1375 C1368 1.409 . S
C1375 C1374 1.362 . S
H1376 C1382 0.930 . S
H1377 C1385 0.930 . S
H1378 C1386 0.930 . S
H1379 C1387 0.930 . S
H1380 C1390 0.930 . S
H1381 C1391 0.930 . S
C1382 H1376 0.930 . S
C1382 C1383 1.355 . S
C1382 C1384 1.415 . S
C1383 C1382 1.355 . S
C1383 C1385 1.419 . S
C1384 C1382 1.415 . S
C1384 C1389 1.425 . S
C1384 C1391 1.409 . S
C1385 H1377 0.930 . S
C1385 C1383 1.419 . S
C1385 C1386 1.362 . S
C1386 H1378 0.930 . S
C1386 C1385 1.362 . S
C1386 C1389 1.409 . S
C1387 H1379 0.930 . S
C1387 C1388 1.355 . S
C1387 C1389 1.415 . S
C1388 C1387 1.355 . S
C1388 C1390 1.419 . S
C1389 C1384 1.425 . S
C1389 C1386 1.409 . S
C1389 C1387 1.415 . S
C1390 H1380 0.930 . S
C1390 C1388 1.419 . S
C1390 C1391 1.362 . S
C1391 H1381 0.930 . S
C1391 C1384 1.409 . S
C1391 C1390 1.362 . S
H1392 C1398 0.930 . S
H1393 C1401 0.930 . S
H1394 C1402 0.930 . S
H1395 C1403 0.930 . S
H1396 C1406 0.930 . S
H1397 C1407 0.930 . S
C1398 H1392 0.930 . S
C1398 C1399 1.355 . S
C1398 C1400 1.415 . S
C1399 C1398 1.355 . S
C1399 C1401 1.419 . S
C1400 C1398 1.415 . S
C1400 C1405 1.425 . S
C1400 C1407 1.409 . S
C1401 H1393 0.930 . S
C1401 C1399 1.419 . S
C1401 C1402 1.362 . S
C1402 H1394 0.930 . S
C1402 C1401 1.362 . S
C1402 C1405 1.409 . S
C1403 H1395 0.930 . S
C1403 C1404 1.355 . S
C1403 C1405 1.415 . S
C1404 C1403 1.355 . S
C1404 C1406 1.419 . S
C1405 C1400 1.425 . S
C1405 C1402 1.409 . S
C1405 C1403 1.415 . S
C1406 H1396 0.930 . S
C1406 C1404 1.419 . S
C1406 C1407 1.362 . S
C1407 H1397 0.930 . S
C1407 C1400 1.409 . S
C1407 C1406 1.362 . S
H1408 C1414 0.930 . S
H1409 C1417 0.930 . S
H1410 C1418 0.930 . S
H1411 C1419 0.930 . S
H1412 C1422 0.930 . S
H1413 C1423 0.930 . S
C1414 H1408 0.930 . S
C1414 C1415 1.355 . S
C1414 C1416 1.415 . S
C1415 C1414 1.355 . S
C1415 C1417 1.419 . S
C1416 C1414 1.415 . S
C1416 C1421 1.425 . S
C1416 C1423 1.409 . S
C1417 H1409 0.930 . S
C1417 C1415 1.419 . S
C1417 C1418 1.362 . S
C1418 H1410 0.930 . S
C1418 C1417 1.362 . S
C1418 C1421 1.409 . S
C1419 H1411 0.930 . S
C1419 C1420 1.355 . S
C1419 C1421 1.415 . S
C1420 C1419 1.355 . S
C1420 C1422 1.419 . S
C1421 C1416 1.425 . S
C1421 C1418 1.409 . S
C1421 C1419 1.415 . S
C1422 H1412 0.930 . S
C1422 C1420 1.419 . S
C1422 C1423 1.362 . S
C1423 H1413 0.930 . S
C1423 C1416 1.409 . S
C1423 C1422 1.362 . S
H1424 C1430 0.930 . S
H1425 C1433 0.930 . S
H1426 C1434 0.930 . S
H1427 C1435 0.930 . S
H1428 C1438 0.930 . S
H1429 C1439 0.930 . S
C1430 H1424 0.930 . S
C1430 C1431 1.355 . S
C1430 C1432 1.415 1_556 S
C1431 C1430 1.355 . S
C1431 C1433 1.419 . S
C1432 C1430 1.415 1_554 S
C1432 C1437 1.425 1_554 S
C1432 C1439 1.409 . S
C1433 H1425 0.930 . S
C1433 C1431 1.419 . S
C1433 C1434 1.362 . S
C1434 H1426 0.930 . S
C1434 C1433 1.362 . S
C1434 C1437 1.409 . S
C1435 H1427 0.930 . S
C1435 C1436 1.355 . S
C1435 C1437 1.415 1_554 S
C1436 C1435 1.355 . S
C1436 C1438 1.419 . S
C1437 C1432 1.425 1_556 S
C1437 C1434 1.409 . S
C1437 C1435 1.415 1_556 S
C1438 H1428 0.930 . S
C1438 C1436 1.419 . S
C1438 C1439 1.362 . S
C1439 H1429 0.930 . S
C1439 C1432 1.409 . S
C1439 C1438 1.362 . S
H1440 C1446 0.930 . S
H1441 C1449 0.930 . S
H1442 C1450 0.930 . S
H1443 C1451 0.930 . S
H1444 C1454 0.930 . S
H1445 C1455 0.930 . S
C1446 H1440 0.930 . S
C1446 C1447 1.355 . S
C1446 C1448 1.415 . S
C1447 C1446 1.355 . S
C1447 C1449 1.419 . S
C1448 C1446 1.415 . S
C1448 C1453 1.425 . S
C1448 C1455 1.409 . S
C1449 H1441 0.930 . S
C1449 C1447 1.419 . S
C1449 C1450 1.362 . S
C1450 H1442 0.930 . S
C1450 C1449 1.362 . S
C1450 C1453 1.409 . S
C1451 H1443 0.930 . S
C1451 C1452 1.355 . S
C1451 C1453 1.415 . S
C1452 C1451 1.355 . S
C1452 C1454 1.419 . S
C1453 C1448 1.425 . S
C1453 C1450 1.409 . S
C1453 C1451 1.415 . S
C1454 H1444 0.930 . S
C1454 C1452 1.419 . S
C1454 C1455 1.362 . S
C1455 H1445 0.930 . S
C1455 C1448 1.409 . S
C1455 C1454 1.362 . S
H1456 C1462 0.930 . S
H1457 C1465 0.930 . S
H1458 C1466 0.930 . S
H1459 C1467 0.930 . S
H1460 C1470 0.930 . S
H1461 C1471 0.930 . S
C1462 H1456 0.930 . S
C1462 C1463 1.355 . S
C1462 C1464 1.415 . S
C1463 C1462 1.355 . S
C1463 C1465 1.419 . S
C1464 C1462 1.415 . S
C1464 C1469 1.425 . S
C1464 C1471 1.409 . S
C1465 H1457 0.930 . S
C1465 C1463 1.419 . S
C1465 C1466 1.362 . S
C1466 H1458 0.930 . S
C1466 C1465 1.362 . S
C1466 C1469 1.409 . S
C1467 H1459 0.930 . S
C1467 C1468 1.355 . S
C1467 C1469 1.415 . S
C1468 C1467 1.355 . S
C1468 C1470 1.419 . S
C1469 C1464 1.425 . S
C1469 C1466 1.409 . S
C1469 C1467 1.415 . S
C1470 H1460 0.930 . S
C1470 C1468 1.419 . S
C1470 C1471 1.362 . S
C1471 H1461 0.930 . S
C1471 C1464 1.409 . S
C1471 C1470 1.362 . S
H1472 C1478 0.930 . S
H1473 C1481 0.930 . S
H1474 C1482 0.930 . S
H1475 C1483 0.930 . S
H1476 C1486 0.930 . S
H1477 C1487 0.930 . S
C1478 H1472 0.930 . S
C1478 C1479 1.355 . S
C1478 C1480 1.415 . S
C1479 C1478 1.355 . S
C1479 C1481 1.419 . S
C1480 C1478 1.415 . S
C1480 C1485 1.425 . S
C1480 C1487 1.409 . S
C1481 H1473 0.930 . S
C1481 C1479 1.419 . S
C1481 C1482 1.362 . S
C1482 H1474 0.930 . S
C1482 C1481 1.362 . S
C1482 C1485 1.409 . S
C1483 H1475 0.930 . S
C1483 C1484 1.355 . S
C1483 C1485 1.415 . S
C1484 C1483 1.355 . S
C1484 C1486 1.419 . S
C1485 C1480 1.425 . S
C1485 C1482 1.409 . S
C1485 C1483 1.415 . S
C1486 H1476 0.930 . S
C1486 C1484 1.419 . S
C1486 C1487 1.362 . S
C1487 H1477 0.930 . S
C1487 C1480 1.409 . S
C1487 C1486 1.362 . S
H1488 C1494 0.930 . S
H1489 C1497 0.930 . S
H1490 C1498 0.930 . S
H1491 C1499 0.930 . S
H1492 C1502 0.930 . S
H1493 C1503 0.940 . S
C1494 H1488 0.930 . S
C1494 C1495 1.355 . S
C1494 C1496 1.415 . S
C1495 C1494 1.355 . S
C1495 C1497 1.419 . S
C1496 C1494 1.415 . S
C1496 C1501 1.425 . S
C1496 C1503 1.409 . S
C1497 H1489 0.930 . S
C1497 C1495 1.419 . S
C1497 C1498 1.362 . S
C1498 H1490 0.930 . S
C1498 C1497 1.362 . S
C1498 C1501 1.409 . S
C1499 H1491 0.930 . S
C1499 C1500 1.355 1_455 S
C1499 C1501 1.415 . S
C1500 C1499 1.355 1_655 S
C1500 C1502 1.419 . S
C1501 C1496 1.425 . S
C1501 C1498 1.409 . S
C1501 C1499 1.415 . S
C1502 H1492 0.930 . S
C1502 C1500 1.419 . S
C1502 C1503 1.362 1_655 S
C1503 H1493 0.940 . S
C1503 C1496 1.409 . S
C1503 C1502 1.362 1_455 S
H1504 C1510 0.930 . S
H1505 C1513 0.930 . S
H1506 C1514 0.930 . S
H1507 C1515 0.930 . S
H1508 C1518 0.930 . S
H1509 C1519 0.930 . S
C1510 H1504 0.930 . S
C1510 C1511 1.355 . S
C1510 C1512 1.415 . S
C1511 C1510 1.355 . S
C1511 C1513 1.419 . S
C1512 C1510 1.415 . S
C1512 C1517 1.425 . S
C1512 C1519 1.409 . S
C1513 H1505 0.930 . S
C1513 C1511 1.419 . S
C1513 C1514 1.362 . S
C1514 H1506 0.930 . S
C1514 C1513 1.362 . S
C1514 C1517 1.409 . S
C1515 H1507 0.930 . S
C1515 C1516 1.355 . S
C1515 C1517 1.415 . S
C1516 C1515 1.355 . S
C1516 C1518 1.419 . S
C1517 C1512 1.425 . S
C1517 C1514 1.409 . S
C1517 C1515 1.415 . S
C1518 H1508 0.930 . S
C1518 C1516 1.419 . S
C1518 C1519 1.362 . S
C1519 H1509 0.930 . S
C1519 C1512 1.409 . S
C1519 C1518 1.362 . S
H1520 C1526 0.930 . S
H1521 C1529 0.930 . S
H1522 C1530 0.930 . S
H1523 C1531 0.930 . S
H1524 C1534 0.930 . S
H1525 C1535 0.930 . S
C1526 H1520 0.930 . S
C1526 C1527 1.355 . S
C1526 C1528 1.415 . S
C1527 C1526 1.355 . S
C1527 C1529 1.419 . S
C1528 C1526 1.415 . S
C1528 C1533 1.425 . S
C1528 C1535 1.409 . S
C1529 H1521 0.930 . S
C1529 C1527 1.419 . S
C1529 C1530 1.362 . S
C1530 H1522 0.930 . S
C1530 C1529 1.362 . S
C1530 C1533 1.409 . S
C1531 H1523 0.930 . S
C1531 C1532 1.355 . S
C1531 C1533 1.415 . S
C1532 C1531 1.355 . S
C1532 C1534 1.419 . S
C1533 C1528 1.425 . S
C1533 C1530 1.409 . S
C1533 C1531 1.415 . S
C1534 H1524 0.930 . S
C1534 C1532 1.419 . S
C1534 C1535 1.362 . S
C1535 H1525 0.930 . S
C1535 C1528 1.409 . S
C1535 C1534 1.362 . S
H1536 C1542 0.930 . S
H1537 C1545 0.930 . S
H1538 C1546 0.930 . S
H1539 C1547 0.930 . S
H1540 C1550 0.930 . S
H1541 C1551 0.930 . S
C1542 H1536 0.930 . S
C1542 C1543 1.355 . S
C1542 C1544 1.415 . S
C1543 C1542 1.355 . S
C1543 C1545 1.419 . S
C1544 C1542 1.415 . S
C1544 C1549 1.425 . S
C1544 C1551 1.409 . S
C1545 H1537 0.930 . S
C1545 C1543 1.419 . S
C1545 C1546 1.362 . S
C1546 H1538 0.930 . S
C1546 C1545 1.362 . S
C1546 C1549 1.409 . S
C1547 H1539 0.930 . S
C1547 C1548 1.355 . S
C1547 C1549 1.415 . S
C1548 C1547 1.355 . S
C1548 C1550 1.419 . S
C1549 C1544 1.425 . S
C1549 C1546 1.409 . S
C1549 C1547 1.415 . S
C1550 H1540 0.930 . S
C1550 C1548 1.419 . S
C1550 C1551 1.362 . S
C1551 H1541 0.930 . S
C1551 C1544 1.409 . S
C1551 C1550 1.362 . S
H1552 C1558 0.930 . S
H1553 C1561 0.930 . S
H1554 C1562 0.930 . S
H1555 C1563 0.930 . S
H1556 C1566 0.930 . S
H1557 C1567 0.930 . S
C1558 H1552 0.930 . S
C1558 C1559 1.355 . S
C1558 C1560 1.415 . S
C1559 C1558 1.355 . S
C1559 C1561 1.419 . S
C1560 C1558 1.415 . S
C1560 C1565 1.425 . S
C1560 C1567 1.409 . S
C1561 H1553 0.930 . S
C1561 C1559 1.419 . S
C1561 C1562 1.362 . S
C1562 H1554 0.930 . S
C1562 C1561 1.362 . S
C1562 C1565 1.409 . S
C1563 H1555 0.930 . S
C1563 C1564 1.355 . S
C1563 C1565 1.415 . S
C1564 C1563 1.355 . S
C1564 C1566 1.419 . S
C1565 C1560 1.425 . S
C1565 C1562 1.409 . S
C1565 C1563 1.415 . S
C1566 H1556 0.930 . S
C1566 C1564 1.419 . S
C1566 C1567 1.362 . S
C1567 H1557 0.930 . S
C1567 C1560 1.409 . S
C1567 C1566 1.362 . S
H1568 C1574 0.930 . S
H1569 C1577 0.930 . S
H1570 C1578 0.930 . S
H1571 C1579 0.930 . S
H1572 C1582 0.930 . S
H1573 C1583 0.930 . S
C1574 H1568 0.930 . S
C1574 C1575 1.355 . S
C1574 C1576 1.415 . S
C1575 C1574 1.355 . S
C1575 C1577 1.419 . S
C1576 C1574 1.415 . S
C1576 C1581 1.425 . S
C1576 C1583 1.409 . S
C1577 H1569 0.930 . S
C1577 C1575 1.419 . S
C1577 C1578 1.362 . S
C1578 H1570 0.930 . S
C1578 C1577 1.362 . S
C1578 C1581 1.409 . S
C1579 H1571 0.930 . S
C1579 C1580 1.355 . S
C1579 C1581 1.415 . S
C1580 C1579 1.355 . S
C1580 C1582 1.419 . S
C1581 C1576 1.425 . S
C1581 C1578 1.409 . S
C1581 C1579 1.415 . S
C1582 H1572 0.930 . S
C1582 C1580 1.419 . S
C1582 C1583 1.362 . S
C1583 H1573 0.930 . S
C1583 C1576 1.409 . S
C1583 C1582 1.362 . S
H1584 C1590 0.930 . S
H1585 C1593 0.930 . S
H1586 C1594 0.930 . S
H1587 C1595 0.930 . S
H1588 C1598 0.930 . S
H1589 C1599 0.930 . S
C1590 H1584 0.930 . S
C1590 C1591 1.355 . S
C1590 C1592 1.415 . S
C1591 C1590 1.355 . S
C1591 C1593 1.419 . S
C1592 C1590 1.415 . S
C1592 C1597 1.433 . S
C1592 C1599 1.409 . S
C1593 H1585 0.930 . S
C1593 C1591 1.419 . S
C1593 C1594 1.362 . S
C1594 H1586 0.930 . S
C1594 C1593 1.362 . S
C1594 C1597 1.417 . S
C1595 H1587 0.930 . S
C1595 C1596 1.355 . S
C1595 C1597 1.400 1_655 S
C1596 C1595 1.355 . S
C1596 C1598 1.419 . S
C1597 C1592 1.433 . S
C1597 C1594 1.417 . S
C1597 C1595 1.400 1_455 S
C1598 H1588 0.930 . S
C1598 C1596 1.419 . S
C1598 C1599 1.362 1_655 S
C1599 H1589 0.930 . S
C1599 C1592 1.409 . S
C1599 C1598 1.362 1_455 S
H1600 C1606 0.930 . S
H1601 C1609 0.930 . S
H1602 C1610 0.930 . S
H1603 C1611 0.930 . S
H1604 C1614 0.930 . S
H1605 C1615 0.930 . S
C1606 H1600 0.930 . S
C1606 C1607 1.355 . S
C1606 C1608 1.415 . S
C1607 C1606 1.355 . S
C1607 C1609 1.419 . S
C1608 C1606 1.415 . S
C1608 C1613 1.425 . S
C1608 C1615 1.409 . S
C1609 H1601 0.930 . S
C1609 C1607 1.419 . S
C1609 C1610 1.362 . S
C1610 H1602 0.930 . S
C1610 C1609 1.362 . S
C1610 C1613 1.409 . S
C1611 H1603 0.930 . S
C1611 C1612 1.355 . S
C1611 C1613 1.415 . S
C1612 C1611 1.355 . S
C1612 C1614 1.419 . S
C1613 C1608 1.425 . S
C1613 C1610 1.409 . S
C1613 C1611 1.415 . S
C1614 H1604 0.930 . S
C1614 C1612 1.419 . S
C1614 C1615 1.362 . S
C1615 H1605 0.930 . S
C1615 C1608 1.409 . S
C1615 C1614 1.362 . S
H1616 C1622 0.930 . S
H1617 C1625 0.930 . S
H1618 C1626 0.930 . S
H1619 C1627 0.930 . S
H1620 C1630 0.930 . S
H1621 C1631 0.930 . S
C1622 H1616 0.930 . S
C1622 C1623 1.355 . S
C1622 C1624 1.415 1_455 S
C1623 C1622 1.355 . S
C1623 C1625 1.419 1_455 S
C1624 C1622 1.415 1_655 S
C1624 C1629 1.425 . S
C1624 C1631 1.409 . S
C1625 H1617 0.930 . S
C1625 C1623 1.419 1_655 S
C1625 C1626 1.362 . S
C1626 H1618 0.930 . S
C1626 C1625 1.362 . S
C1626 C1629 1.409 . S
C1627 H1619 0.930 . S
C1627 C1628 1.355 . S
C1627 C1629 1.415 . S
C1628 C1627 1.355 . S
C1628 C1630 1.419 . S
C1629 C1624 1.425 . S
C1629 C1626 1.409 . S
C1629 C1627 1.415 . S
C1630 H1620 0.930 . S
C1630 C1628 1.419 . S
C1630 C1631 1.362 . S
C1631 H1621 0.930 . S
C1631 C1624 1.409 . S
C1631 C1630 1.362 . S
H1632 C1638 0.930 . S
H1633 C1641 0.930 . S
H1634 C1642 0.930 . S
H1635 C1643 0.930 . S
H1636 C1646 0.930 . S
H1637 C1647 0.930 . S
C1638 H1632 0.930 . S
C1638 C1639 1.355 . S
C1638 C1640 1.415 . S
C1639 C1638 1.355 . S
C1639 C1641 1.419 . S
C1640 C1638 1.415 . S
C1640 C1645 1.425 . S
C1640 C1647 1.409 . S
C1641 H1633 0.930 . S
C1641 C1639 1.419 . S
C1641 C1642 1.362 . S
C1642 H1634 0.930 . S
C1642 C1641 1.362 . S
C1642 C1645 1.409 . S
C1643 H1635 0.930 . S
C1643 C1644 1.355 . S
C1643 C1645 1.415 . S
C1644 C1643 1.355 . S
C1644 C1646 1.419 . S
C1645 C1640 1.425 . S
C1645 C1642 1.409 . S
C1645 C1643 1.415 . S
C1646 H1636 0.930 . S
C1646 C1644 1.419 . S
C1646 C1647 1.362 . S
C1647 H1637 0.930 . S
C1647 C1640 1.409 . S
C1647 C1646 1.362 . S
H1648 C1654 0.930 . S
H1649 C1657 0.930 . S
H1650 C1658 0.930 . S
H1651 C1659 0.930 . S
H1652 C1662 0.930 . S
H1653 C1663 0.930 . S
C1654 H1648 0.930 . S
C1654 C1655 1.355 . S
C1654 C1656 1.415 . S
C1655 C1654 1.355 . S
C1655 C1657 1.419 . S
C1656 C1654 1.415 . S
C1656 C1661 1.425 . S
C1656 C1663 1.409 . S
C1657 H1649 0.930 . S
C1657 C1655 1.419 . S
C1657 C1658 1.362 . S
C1658 H1650 0.930 . S
C1658 C1657 1.362 . S
C1658 C1661 1.409 . S
C1659 H1651 0.930 . S
C1659 C1660 1.355 . S
C1659 C1661 1.415 . S
C1660 C1659 1.355 . S
C1660 C1662 1.419 . S
C1661 C1656 1.425 . S
C1661 C1658 1.409 . S
C1661 C1659 1.415 . S
C1662 H1652 0.930 . S
C1662 C1660 1.419 . S
C1662 C1663 1.362 . S
C1663 H1653 0.930 . S
C1663 C1656 1.409 . S
C1663 C1662 1.362 . S
H1664 C1670 0.930 . S
H1665 C1673 0.930 . S
H1666 C1674 0.930 . S
H1667 C1675 0.930 . S
H1668 C1678 0.930 . S
H1669 C1679 0.930 . S
C1670 H1664 0.930 . S
C1670 C1671 1.355 . S
C1670 C1672 1.415 . S
C1671 C1670 1.355 . S
C1671 C1673 1.419 . S
C1672 C1670 1.415 . S
C1672 C1677 1.425 . S
C1672 C1679 1.409 . S
C1673 H1665 0.930 . S
C1673 C1671 1.419 . S
C1673 C1674 1.362 . S
C1674 H1666 0.930 . S
C1674 C1673 1.362 . S
C1674 C1677 1.409 . S
C1675 H1667 0.930 . S
C1675 C1676 1.355 . S
C1675 C1677 1.415 . S
C1676 C1675 1.355 . S
C1676 C1678 1.419 . S
C1677 C1672 1.425 . S
C1677 C1674 1.409 . S
C1677 C1675 1.415 . S
C1678 H1668 0.930 . S
C1678 C1676 1.419 . S
C1678 C1679 1.362 . S
C1679 H1669 0.930 . S
C1679 C1672 1.409 . S
C1679 C1678 1.362 . S
H1680 C1686 0.930 . S
H1681 C1689 0.930 . S
H1682 C1690 0.930 . S
H1683 C1691 0.930 . S
H1684 C1694 0.930 . S
H1685 C1695 0.930 . S
C1686 H1680 0.930 . S
C1686 C1687 1.355 . S
C1686 C1688 1.415 . S
C1687 C1686 1.355 . S
C1687 C1689 1.419 . S
C1688 C1686 1.415 . S
C1688 C1693 1.425 . S
C1688 C1695 1.409 . S
C1689 H1681 0.930 . S
C1689 C1687 1.419 . S
C1689 C1690 1.362 . S
C1690 H1682 0.930 . S
C1690 C1689 1.362 . S
C1690 C1693 1.409 . S
C1691 H1683 0.930 . S
C1691 C1692 1.355 . S
C1691 C1693 1.415 . S
C1692 C1691 1.355 . S
C1692 C1694 1.419 . S
C1693 C1688 1.425 . S
C1693 C1690 1.409 . S
C1693 C1691 1.415 . S
C1694 H1684 0.930 . S
C1694 C1692 1.419 . S
C1694 C1695 1.362 . S
C1695 H1685 0.930 . S
C1695 C1688 1.409 . S
C1695 C1694 1.362 . S
H1696 C1702 0.930 . S
H1697 C1705 0.930 . S
H1698 C1706 0.930 . S
H1699 C1707 0.930 . S
H1700 C1710 0.930 . S
H1701 C1711 0.930 . S
C1702 H1696 0.930 . S
C1702 C1703 1.355 . S
C1702 C1704 1.415 . S
C1703 C1702 1.355 . S
C1703 C1705 1.419 . S
C1704 C1702 1.415 . S
C1704 C1709 1.425 . S
C1704 C1711 1.409 . S
C1705 H1697 0.930 . S
C1705 C1703 1.419 . S
C1705 C1706 1.362 . S
C1706 H1698 0.930 . S
C1706 C1705 1.362 . S
C1706 C1709 1.409 . S
C1707 H1699 0.930 . S
C1707 C1708 1.355 . S
C1707 C1709 1.415 . S
C1708 C1707 1.355 . S
C1708 C1710 1.419 . S
C1709 C1704 1.425 . S
C1709 C1706 1.409 . S
C1709 C1707 1.415 . S
C1710 H1700 0.930 . S
C1710 C1708 1.419 . S
C1710 C1711 1.362 . S
C1711 H1701 0.930 . S
C1711 C1704 1.409 . S
C1711 C1710 1.362 . S
H1712 C1718 0.930 . S
H1713 C1721 0.930 . S
H1714 C1722 0.930 . S
H1715 C1723 0.930 . S
H1716 C1726 0.930 . S
H1717 C1727 0.930 . S
C1718 H1712 0.930 . S
C1718 C1719 1.355 . S
C1718 C1720 1.415 . S
C1719 C1718 1.355 . S
C1719 C1721 1.419 . S
C1720 C1718 1.415 . S
C1720 C1725 1.425 . S
C1720 C1727 1.409 1_655 S
C1721 H1713 0.930 . S
C1721 C1719 1.419 . S
C1721 C1722 1.362 . S
C1722 H1714 0.930 . S
C1722 C1721 1.362 . S
C1722 C1725 1.409 . S
C1723 H1715 0.930 . S
C1723 C1724 1.355 . S
C1723 C1725 1.415 1_455 S
C1724 C1723 1.355 . S
C1724 C1726 1.419 . S
C1725 C1720 1.425 . S
C1725 C1722 1.409 . S
C1725 C1723 1.415 1_655 S
C1726 H1716 0.930 . S
C1726 C1724 1.419 . S
C1726 C1727 1.362 . S
C1727 H1717 0.930 . S
C1727 C1720 1.409 1_455 S
C1727 C1726 1.362 . S
H1728 C1734 0.930 . S
H1729 C1737 0.930 . S
H1730 C1738 0.930 . S
H1731 C1739 0.930 . S
H1732 C1742 0.930 . S
H1733 C1743 0.930 . S
C1734 H1728 0.930 . S
C1734 C1735 1.355 . S
C1734 C1736 1.415 . S
C1735 C1734 1.355 . S
C1735 C1737 1.419 . S
C1736 C1734 1.415 . S
C1736 C1741 1.425 . S
C1736 C1743 1.409 . S
C1737 H1729 0.930 . S
C1737 C1735 1.419 . S
C1737 C1738 1.362 . S
C1738 H1730 0.930 . S
C1738 C1737 1.362 . S
C1738 C1741 1.409 . S
C1739 H1731 0.930 . S
C1739 C1740 1.355 . S
C1739 C1741 1.415 . S
C1740 C1739 1.355 . S
C1740 C1742 1.419 . S
C1741 C1736 1.425 . S
C1741 C1738 1.409 . S
C1741 C1739 1.415 . S
C1742 H1732 0.930 . S
C1742 C1740 1.419 . S
C1742 C1743 1.362 . S
C1743 H1733 0.930 . S
C1743 C1736 1.409 . S
C1743 C1742 1.362 . S
H1744 C1750 0.930 . S
H1745 C1753 0.930 . S
H1746 C1754 0.930 . S
H1747 C1755 0.930 . S
H1748 C1758 0.930 . S
H1749 C1759 0.930 . S
C1750 H1744 0.930 . S
C1750 C1751 1.355 . S
C1750 C1752 1.415 . S
C1751 C1750 1.355 . S
C1751 C1753 1.419 . S
C1752 C1750 1.415 . S
C1752 C1757 1.425 . S
C1752 C1759 1.409 . S
C1753 H1745 0.930 . S
C1753 C1751 1.419 . S
C1753 C1754 1.362 . S
C1754 H1746 0.930 . S
C1754 C1753 1.362 . S
C1754 C1757 1.409 . S
C1755 H1747 0.930 . S
C1755 C1756 1.355 . S
C1755 C1757 1.415 . S
C1756 C1755 1.355 . S
C1756 C1758 1.419 . S
C1757 C1752 1.425 . S
C1757 C1754 1.409 . S
C1757 C1755 1.415 . S
C1758 H1748 0.930 . S
C1758 C1756 1.419 . S
C1758 C1759 1.362 . S
C1759 H1749 0.930 . S
C1759 C1752 1.409 . S
C1759 C1758 1.362 . S
H1760 C1766 0.930 . S
H1761 C1769 0.930 . S
H1762 C1770 0.930 . S
H1763 C1771 0.930 . S
H1764 C1774 0.930 . S
H1765 C1775 0.930 . S
C1766 H1760 0.930 . S
C1766 C1767 1.355 . S
C1766 C1768 1.415 . S
C1767 C1766 1.355 . S
C1767 C1769 1.419 . S
C1768 C1766 1.415 . S
C1768 C1773 1.425 . S
C1768 C1775 1.409 . S
C1769 H1761 0.930 . S
C1769 C1767 1.419 . S
C1769 C1770 1.362 . S
C1770 H1762 0.930 . S
C1770 C1769 1.362 . S
C1770 C1773 1.409 . S
C1771 H1763 0.930 . S
C1771 C1772 1.355 . S
C1771 C1773 1.415 . S
C1772 C1771 1.355 . S
C1772 C1774 1.419 . S
C1773 C1768 1.425 . S
C1773 C1770 1.409 . S
C1773 C1771 1.415 . S
C1774 H1764 0.930 . S
C1774 C1772 1.419 . S
C1774 C1775 1.362 . S
C1775 H1765 0.930 . S
C1775 C1768 1.409 . S
C1775 C1774 1.362 . S
H1776 C1782 0.930 . S
H1777 C1785 0.930 . S
H1778 C1786 0.930 . S
H1779 C1787 0.930 . S
H1780 C1790 0.942 . S
H1781 C1791 0.930 . S
C1782 H1776 0.930 . S
C1782 C1783 1.355 . S
C1782 C1784 1.415 . S
C1783 C1782 1.355 . S
C1783 C1785 1.419 . S
C1784 C1782 1.415 . S
C1784 C1789 1.425 . S
C1784 C1791 1.409 . S
C1785 H1777 0.930 . S
C1785 C1783 1.419 . S
C1785 C1786 1.362 . S
C1786 H1778 0.930 . S
C1786 C1785 1.362 . S
C1786 C1789 1.409 . S
C1787 H1779 0.930 . S
C1787 C1788 1.365 . S
C1787 C1789 1.415 . S
C1788 C1787 1.365 . S
C1788 C1790 1.419 1_655 S
C1789 C1784 1.425 . S
C1789 C1786 1.409 . S
C1789 C1787 1.415 . S
C1790 H1780 0.942 . S
C1790 C1788 1.419 1_455 S
C1790 C1791 1.350 1_455 S
C1791 H1781 0.930 . S
C1791 C1784 1.409 . S
C1791 C1790 1.350 1_655 S
H1792 C1798 0.930 . S
H1793 C1801 0.930 . S
H1794 C1802 0.930 . S
H1795 C1803 0.930 . S
H1796 C1806 0.930 . S
H1797 C1807 0.930 . S
C1798 H1792 0.930 . S
C1798 C1799 1.355 . S
C1798 C1800 1.415 . S
C1799 C1798 1.355 . S
C1799 C1801 1.419 . S
C1800 C1798 1.415 . S
C1800 C1805 1.425 . S
C1800 C1807 1.409 . S
C1801 H1793 0.930 . S
C1801 C1799 1.419 . S
C1801 C1802 1.362 . S
C1802 H1794 0.930 . S
C1802 C1801 1.362 . S
C1802 C1805 1.409 . S
C1803 H1795 0.930 . S
C1803 C1804 1.355 . S
C1803 C1805 1.415 . S
C1804 C1803 1.355 . S
C1804 C1806 1.419 . S
C1805 C1800 1.425 . S
C1805 C1802 1.409 . S
C1805 C1803 1.415 . S
C1806 H1796 0.930 . S
C1806 C1804 1.419 . S
C1806 C1807 1.362 . S
C1807 H1797 0.930 . S
C1807 C1800 1.409 . S
C1807 C1806 1.362 . S
H1808 C1814 0.930 . S
H1809 C1817 0.930 . S
H1810 C1818 0.930 . S
H1811 C1819 0.930 . S
H1812 C1822 0.930 . S
H1813 C1823 0.930 . S
C1814 H1808 0.930 . S
C1814 C1815 1.355 . S
C1814 C1816 1.415 . S
C1815 C1814 1.355 . S
C1815 C1817 1.419 . S
C1816 C1814 1.415 . S
C1816 C1821 1.425 . S
C1816 C1823 1.409 1_655 S
C1817 H1809 0.930 . S
C1817 C1815 1.419 . S
C1817 C1818 1.362 . S
C1818 H1810 0.930 . S
C1818 C1817 1.362 . S
C1818 C1821 1.409 . S
C1819 H1811 0.930 . S
C1819 C1820 1.355 . S
C1819 C1821 1.415 1_455 S
C1820 C1819 1.355 . S
C1820 C1822 1.419 . S
C1821 C1816 1.425 . S
C1821 C1818 1.409 . S
C1821 C1819 1.415 1_655 S
C1822 H1812 0.930 . S
C1822 C1820 1.419 . S
C1822 C1823 1.362 . S
C1823 H1813 0.930 . S
C1823 C1816 1.409 1_455 S
C1823 C1822 1.362 . S
H1824 C1830 0.930 . S
H1825 C1833 0.930 . S
H1826 C1834 0.930 . S
H1827 C1835 0.930 . S
H1828 C1838 0.930 . S
H1829 C1839 0.930 . S
C1830 H1824 0.930 . S
C1830 C1831 1.355 . S
C1830 C1832 1.415 . S
C1831 C1830 1.355 . S
C1831 C1833 1.419 . S
C1832 C1830 1.415 . S
C1832 C1837 1.425 . S
C1832 C1839 1.409 . S
C1833 H1825 0.930 . S
C1833 C1831 1.419 . S
C1833 C1834 1.362 . S
C1834 H1826 0.930 . S
C1834 C1833 1.362 . S
C1834 C1837 1.409 . S
C1835 H1827 0.930 . S
C1835 C1836 1.355 . S
C1835 C1837 1.415 . S
C1836 C1835 1.355 . S
C1836 C1838 1.419 . S
C1837 C1832 1.425 . S
C1837 C1834 1.409 . S
C1837 C1835 1.415 . S
C1838 H1828 0.930 . S
C1838 C1836 1.419 . S
C1838 C1839 1.362 . S
C1839 H1829 0.930 . S
C1839 C1832 1.409 . S
C1839 C1838 1.362 . S
H1840 C1846 0.930 . S
H1841 C1849 0.930 . S
H1842 C1850 0.930 . S
H1843 C1851 0.930 . S
H1844 C1854 0.930 . S
H1845 C1855 0.930 . S
C1846 H1840 0.930 . S
C1846 C1847 1.355 . S
C1846 C1848 1.415 . S
C1847 C1846 1.355 . S
C1847 C1849 1.419 . S
C1848 C1846 1.415 . S
C1848 C1853 1.425 . S
C1848 C1855 1.409 . S
C1849 H1841 0.930 . S
C1849 C1847 1.419 . S
C1849 C1850 1.362 . S
C1850 H1842 0.930 . S
C1850 C1849 1.362 . S
C1850 C1853 1.409 . S
C1851 H1843 0.930 . S
C1851 C1852 1.355 . S
C1851 C1853 1.415 . S
C1852 C1851 1.355 . S
C1852 C1854 1.419 . S
C1853 C1848 1.425 . S
C1853 C1850 1.409 . S
C1853 C1851 1.415 . S
C1854 H1844 0.930 . S
C1854 C1852 1.419 . S
C1854 C1855 1.362 . S
C1855 H1845 0.930 . S
C1855 C1848 1.409 . S
C1855 C1854 1.362 . S
H1856 C1862 0.930 . S
H1857 C1865 0.930 . S
H1858 C1866 0.930 . S
H1859 C1867 0.930 . S
H1860 C1870 0.930 . S
H1861 C1871 0.930 . S
C1862 H1856 0.930 . S
C1862 C1863 1.355 . S
C1862 C1864 1.415 . S
C1863 C1862 1.355 . S
C1863 C1865 1.419 . S
C1864 C1862 1.415 . S
C1864 C1869 1.425 . S
C1864 C1871 1.409 . S
C1865 H1857 0.930 . S
C1865 C1863 1.419 . S
C1865 C1866 1.362 . S
C1866 H1858 0.930 . S
C1866 C1865 1.362 . S
C1866 C1869 1.409 . S
C1867 H1859 0.930 . S
C1867 C1868 1.355 . S
C1867 C1869 1.415 . S
C1868 C1867 1.355 . S
C1868 C1870 1.419 . S
C1869 C1864 1.425 . S
C1869 C1866 1.409 . S
C1869 C1867 1.415 . S
C1870 H1860 0.930 . S
C1870 C1868 1.419 . S
C1870 C1871 1.362 . S
C1871 H1861 0.930 . S
C1871 C1864 1.409 . S
C1871 C1870 1.362 . S
H1872 C1878 0.930 . S
H1873 C1881 0.930 . S
H1874 C1882 0.930 . S
H1875 C1883 0.930 . S
H1876 C1886 0.930 . S
H1877 C1887 0.930 . S
C1878 H1872 0.930 . S
C1878 C1879 1.355 . S
C1878 C1880 1.415 . S
C1879 C1878 1.355 . S
C1879 C1881 1.419 . S
C1880 C1878 1.415 . S
C1880 C1885 1.425 . S
C1880 C1887 1.409 . S
C1881 H1873 0.930 . S
C1881 C1879 1.419 . S
C1881 C1882 1.362 . S
C1882 H1874 0.930 . S
C1882 C1881 1.362 . S
C1882 C1885 1.409 . S
C1883 H1875 0.930 . S
C1883 C1884 1.355 . S
C1883 C1885 1.415 . S
C1884 C1883 1.355 . S
C1884 C1886 1.419 . S
C1885 C1880 1.425 . S
C1885 C1882 1.409 . S
C1885 C1883 1.415 . S
C1886 H1876 0.930 . S
C1886 C1884 1.419 . S
C1886 C1887 1.362 . S
C1887 H1877 0.930 . S
C1887 C1880 1.409 . S
C1887 C1886 1.362 . S
H1888 C1894 0.930 . S
H1889 C1897 0.930 . S
H1890 C1898 0.930 . S
H1891 C1899 0.930 . S
H1892 C1902 0.930 . S
H1893 C1903 0.930 . S
C1894 H1888 0.930 . S
C1894 C1895 1.355 . S
C1894 C1896 1.415 . S
C1895 C1894 1.355 . S
C1895 C1897 1.419 . S
C1896 C1894 1.415 . S
C1896 C1901 1.425 . S
C1896 C1903 1.409 . S
C1897 H1889 0.930 . S
C1897 C1895 1.419 . S
C1897 C1898 1.362 . S
C1898 H1890 0.930 . S
C1898 C1897 1.362 . S
C1898 C1901 1.409 . S
C1899 H1891 0.930 . S
C1899 C1900 1.355 . S
C1899 C1901 1.415 . S
C1900 C1899 1.355 . S
C1900 C1902 1.419 . S
C1901 C1896 1.425 . S
C1901 C1898 1.409 . S
C1901 C1899 1.415 . S
C1902 H1892 0.930 . S
C1902 C1900 1.419 . S
C1902 C1903 1.362 . S
C1903 H1893 0.930 . S
C1903 C1896 1.409 . S
C1903 C1902 1.362 . S
H1904 C1910 0.930 . S
H1905 C1913 0.930 . S
H1906 C1914 0.930 . S
H1907 C1915 0.930 . S
H1908 C1918 0.930 . S
H1909 C1919 0.930 . S
C1910 H1904 0.930 . S
C1910 C1911 1.355 . S
C1910 C1912 1.415 . S
C1911 C1910 1.355 . S
C1911 C1913 1.419 . S
C1912 C1910 1.415 . S
C1912 C1917 1.425 . S
C1912 C1919 1.409 . S
C1913 H1905 0.930 . S
C1913 C1911 1.419 . S
C1913 C1914 1.362 . S
C1914 H1906 0.930 . S
C1914 C1913 1.362 . S
C1914 C1917 1.409 . S
C1915 H1907 0.930 . S
C1915 C1916 1.355 . S
C1915 C1917 1.415 . S
C1916 C1915 1.355 . S
C1916 C1918 1.419 . S
C1917 C1912 1.425 . S
C1917 C1914 1.409 . S
C1917 C1915 1.415 . S
C1918 H1908 0.930 . S
C1918 C1916 1.419 . S
C1918 C1919 1.362 . S
C1919 H1909 0.930 . S
C1919 C1912 1.409 . S
C1919 C1918 1.362 . S
H1920 C1926 0.930 . S
H1921 C1929 0.930 . S
H1922 C1930 0.930 . S
H1923 C1931 0.930 . S
H1924 C1934 0.930 . S
H1925 C1935 0.930 . S
C1926 H1920 0.930 . S
C1926 C1927 1.355 . S
C1926 C1928 1.415 . S
C1927 C1926 1.355 . S
C1927 C1929 1.419 . S
C1928 C1926 1.415 . S
C1928 C1933 1.425 . S
C1928 C1935 1.409 . S
C1929 H1921 0.930 . S
C1929 C1927 1.419 . S
C1929 C1930 1.362 . S
C1930 H1922 0.930 . S
C1930 C1929 1.362 . S
C1930 C1933 1.409 . S
C1931 H1923 0.930 . S
C1931 C1932 1.355 . S
C1931 C1933 1.415 . S
C1932 C1931 1.355 . S
C1932 C1934 1.419 . S
C1933 C1928 1.425 . S
C1933 C1930 1.409 . S
C1933 C1931 1.415 . S
C1934 H1924 0.930 . S
C1934 C1932 1.419 . S
C1934 C1935 1.362 . S
C1935 H1925 0.930 . S
C1935 C1928 1.409 . S
C1935 C1934 1.362 . S
H1936 C1942 0.930 . S
H1937 C1945 0.930 . S
H1938 C1946 0.930 . S
H1939 C1947 0.930 . S
H1940 C1950 0.930 . S
H1941 C1951 0.930 . S
C1942 H1936 0.930 . S
C1942 C1943 1.355 . S
C1942 C1944 1.415 . S
C1943 C1942 1.355 . S
C1943 C1945 1.419 . S
C1944 C1942 1.415 . S
C1944 C1949 1.425 . S
C1944 C1951 1.409 1_455 S
C1945 H1937 0.930 . S
C1945 C1943 1.419 . S
C1945 C1946 1.362 . S
C1946 H1938 0.930 . S
C1946 C1945 1.362 . S
C1946 C1949 1.409 . S
C1947 H1939 0.930 . S
C1947 C1948 1.355 . S
C1947 C1949 1.415 1_655 S
C1948 C1947 1.355 . S
C1948 C1950 1.419 . S
C1949 C1944 1.425 . S
C1949 C1946 1.409 . S
C1949 C1947 1.415 1_455 S
C1950 H1940 0.930 . S
C1950 C1948 1.419 . S
C1950 C1951 1.362 . S
C1951 H1941 0.930 . S
C1951 C1944 1.409 1_655 S
C1951 C1950 1.362 . S
H1952 C1958 0.930 . S
H1953 C1961 0.930 . S
H1954 C1962 0.930 . S
H1955 C1963 0.930 . S
H1956 C1966 0.930 . S
H1957 C1967 0.930 . S
C1958 H1952 0.930 . S
C1958 C1959 1.355 . S
C1958 C1960 1.415 . S
C1959 C1958 1.355 . S
C1959 C1961 1.419 . S
C1960 C1958 1.415 . S
C1960 C1965 1.425 . S
C1960 C1967 1.409 . S
C1961 H1953 0.930 . S
C1961 C1959 1.419 . S
C1961 C1962 1.362 . S
C1962 H1954 0.930 . S
C1962 C1961 1.362 . S
C1962 C1965 1.409 . S
C1963 H1955 0.930 . S
C1963 C1964 1.355 . S
C1963 C1965 1.415 . S
C1964 C1963 1.355 . S
C1964 C1966 1.419 . S
C1965 C1960 1.425 . S
C1965 C1962 1.409 . S
C1965 C1963 1.415 . S
C1966 H1956 0.930 . S
C1966 C1964 1.419 . S
C1966 C1967 1.362 . S
C1967 H1957 0.930 . S
C1967 C1960 1.409 . S
C1967 C1966 1.362 . S
H1968 C1974 0.930 . S
H1969 C1977 0.930 . S
H1970 C1978 0.930 . S
H1971 C1979 0.930 . S
H1972 C1982 0.930 . S
H1973 C1983 0.930 . S
C1974 H1968 0.930 . S
C1974 C1975 1.355 . S
C1974 C1976 1.415 . S
C1975 C1974 1.355 . S
C1975 C1977 1.419 . S
C1976 C1974 1.415 . S
C1976 C1981 1.425 . S
C1976 C1983 1.409 . S
C1977 H1969 0.930 . S
C1977 C1975 1.419 . S
C1977 C1978 1.362 . S
C1978 H1970 0.930 . S
C1978 C1977 1.362 . S
C1978 C1981 1.409 . S
C1979 H1971 0.930 . S
C1979 C1980 1.355 . S
C1979 C1981 1.415 . S
C1980 C1979 1.355 . S
C1980 C1982 1.419 . S
C1981 C1976 1.425 . S
C1981 C1978 1.409 . S
C1981 C1979 1.415 . S
C1982 H1972 0.930 . S
C1982 C1980 1.419 . S
C1982 C1983 1.362 . S
C1983 H1973 0.930 . S
C1983 C1976 1.409 . S
C1983 C1982 1.362 . S
H1984 C1990 0.930 . S
H1985 C1993 0.930 . S
H1986 C1994 0.930 . S
H1987 C1995 0.930 . S
H1988 C1998 0.930 . S
H1989 C1999 0.930 . S
C1990 H1984 0.930 . S
C1990 C1991 1.349 1_565 S
C1990 C1992 1.420 . S
C1991 C1990 1.349 1_545 S
C1991 C1993 1.419 . S
C1992 C1990 1.420 . S
C1992 C1997 1.425 . S
C1992 C1999 1.409 . S
C1993 H1985 0.930 . S
C1993 C1991 1.419 . S
C1993 C1994 1.362 . S
C1994 H1986 0.930 . S
C1994 C1993 1.362 . S
C1994 C1997 1.409 1_545 S
C1995 H1987 0.930 . S
C1995 C1996 1.355 . S
C1995 C1997 1.415 . S
C1996 C1995 1.355 . S
C1996 C1998 1.419 . S
C1997 C1992 1.425 . S
C1997 C1994 1.409 1_565 S
C1997 C1995 1.415 . S
C1998 H1988 0.930 . S
C1998 C1996 1.419 . S
C1998 C1999 1.362 . S
C1999 H1989 0.930 . S
C1999 C1992 1.409 . S
C1999 C1998 1.362 . S
H2000 C2006 0.930 . S
H2001 C2009 0.930 . S
H2002 C2010 0.930 . S
H2003 C2011 0.930 . S
H2004 C2014 0.930 . S
H2005 C2015 0.930 . S
C2006 H2000 0.930 . S
C2006 C2007 1.355 . S
C2006 C2008 1.415 . S
C2007 C2006 1.355 . S
C2007 C2009 1.419 . S
C2008 C2006 1.415 . S
C2008 C2013 1.425 . S
C2008 C2015 1.409 . S
C2009 H2001 0.930 . S
C2009 C2007 1.419 . S
C2009 C2010 1.362 . S
C2010 H2002 0.930 . S
C2010 C2009 1.362 . S
C2010 C2013 1.409 . S
C2011 H2003 0.930 . S
C2011 C2012 1.355 . S
C2011 C2013 1.415 . S
C2012 C2011 1.355 . S
C2012 C2014 1.419 . S
C2013 C2008 1.425 . S
C2013 C2010 1.409 . S
C2013 C2011 1.415 . S
C2014 H2004 0.930 . S
C2014 C2012 1.419 . S
C2014 C2015 1.362 . S
C2015 H2005 0.930 . S
C2015 C2008 1.409 . S
C2015 C2014 1.362 . S
H2016 C2022 0.930 . S
H2017 C2025 0.930 . S
H2018 C2026 0.930 . S
H2019 C2027 0.930 . S
H2020 C2030 0.930 . S
H2021 C2031 0.930 . S
C2022 H2016 0.930 . S
C2022 C2023 1.355 . S
C2022 C2024 1.415 . S
C2023 C2022 1.355 . S
C2023 C2025 1.419 . S
C2024 C2022 1.415 . S
C2024 C2029 1.425 1_565 S
C2024 C2031 1.409 . S
C2025 H2017 0.930 . S
C2025 C2023 1.419 . S
C2025 C2026 1.362 1_565 S
C2026 H2018 0.930 . S
C2026 C2025 1.362 1_545 S
C2026 C2029 1.409 . S
C2027 H2019 0.930 . S
C2027 C2028 1.355 . S
C2027 C2029 1.415 . S
C2028 C2027 1.355 . S
C2028 C2030 1.419 . S
C2029 C2024 1.425 1_545 S
C2029 C2026 1.409 . S
C2029 C2027 1.415 . S
C2030 H2020 0.930 . S
C2030 C2028 1.419 . S
C2030 C2031 1.362 1_545 S
C2031 H2021 0.930 . S
C2031 C2024 1.409 . S
C2031 C2030 1.362 1_565 S
H2032 C2038 0.930 . S
H2033 C2041 0.930 1_554 S
H2034 C2042 0.930 . S
H2035 C2043 0.930 . S
H2036 C2046 0.930 . S
H2037 C2047 0.930 . S
C2038 H2032 0.930 . S
C2038 C2039 1.355 . S
C2038 C2040 1.415 . S
C2039 C2038 1.355 . S
C2039 C2041 1.419 . S
C2040 C2038 1.415 . S
C2040 C2045 1.425 1_556 S
C2040 C2047 1.409 . S
C2041 H2033 0.930 1_556 S
C2041 C2039 1.419 . S
C2041 C2042 1.362 1_556 S
C2042 H2034 0.930 . S
C2042 C2041 1.362 1_554 S
C2042 C2045 1.409 . S
C2043 H2035 0.930 . S
C2043 C2044 1.355 . S
C2043 C2045 1.415 . S
C2044 C2043 1.355 . S
C2044 C2046 1.419 1_554 S
C2045 C2040 1.425 1_554 S
C2045 C2042 1.409 . S
C2045 C2043 1.415 . S
C2046 H2036 0.930 . S
C2046 C2044 1.419 1_556 S
C2046 C2047 1.362 . S
C2047 H2037 0.930 . S
C2047 C2040 1.409 . S
C2047 C2046 1.362 . S
H2048 C2054 0.930 . S
H2049 C2057 0.930 . S
H2050 C2058 0.930 . S
H2051 C2059 0.930 . S
H2052 C2062 0.930 . S
H2053 C2063 0.930 . S
C2054 H2048 0.930 . S
C2054 C2055 1.355 . S
C2054 C2056 1.415 . S
C2055 C2054 1.355 . S
C2055 C2057 1.419 . S
C2056 C2054 1.415 . S
C2056 C2061 1.425 . S
C2056 C2063 1.409 . S
C2057 H2049 0.930 . S
C2057 C2055 1.419 . S
C2057 C2058 1.362 . S
C2058 H2050 0.930 . S
C2058 C2057 1.362 . S
C2058 C2061 1.409 . S
C2059 H2051 0.930 . S
C2059 C2060 1.355 . S
C2059 C2061 1.415 1_565 S
C2060 C2059 1.355 . S
C2060 C2062 1.419 . S
C2061 C2056 1.425 . S
C2061 C2058 1.409 . S
C2061 C2059 1.415 1_545 S
C2062 H2052 0.930 . S
C2062 C2060 1.419 . S
C2062 C2063 1.362 1_565 S
C2063 H2053 0.930 . S
C2063 C2056 1.409 . S
C2063 C2062 1.362 1_545 S
H2064 C2070 0.930 . S
H2065 C2073 0.930 . S
H2066 C2074 0.930 . S
H2067 C2075 0.930 . S
H2068 C2078 0.930 . S
H2069 C2079 0.930 . S
C2070 H2064 0.930 . S
C2070 C2071 1.355 . S
C2070 C2072 1.415 . S
C2071 C2070 1.355 . S
C2071 C2073 1.419 . S
C2072 C2070 1.415 . S
C2072 C2077 1.425 . S
C2072 C2079 1.409 . S
C2073 H2065 0.930 . S
C2073 C2071 1.419 . S
C2073 C2074 1.362 . S
C2074 H2066 0.930 . S
C2074 C2073 1.362 . S
C2074 C2077 1.409 . S
C2075 H2067 0.930 . S
C2075 C2076 1.355 . S
C2075 C2077 1.415 . S
C2076 C2075 1.355 . S
C2076 C2078 1.419 . S
C2077 C2072 1.425 . S
C2077 C2074 1.409 . S
C2077 C2075 1.415 . S
C2078 H2068 0.930 . S
C2078 C2076 1.419 . S
C2078 C2079 1.362 . S
C2079 H2069 0.930 . S
C2079 C2072 1.409 . S
C2079 C2078 1.362 . S
H2080 C2086 0.930 . S
H2081 C2089 0.930 . S
H2082 C2090 0.930 . S
H2083 C2091 0.930 . S
H2084 C2094 0.930 . S
H2085 C2095 0.930 . S
C2086 H2080 0.930 . S
C2086 C2087 1.355 . S
C2086 C2088 1.415 1_545 S
C2087 C2086 1.355 . S
C2087 C2089 1.419 . S
C2088 C2086 1.415 1_565 S
C2088 C2093 1.425 1_565 S
C2088 C2095 1.409 . S
C2089 H2081 0.930 . S
C2089 C2087 1.419 . S
C2089 C2090 1.362 . S
C2090 H2082 0.930 . S
C2090 C2089 1.362 . S
C2090 C2093 1.409 . S
C2091 H2083 0.930 . S
C2091 C2092 1.355 . S
C2091 C2093 1.415 1_565 S
C2092 C2091 1.355 . S
C2092 C2094 1.419 . S
C2093 C2088 1.425 1_545 S
C2093 C2090 1.409 . S
C2093 C2091 1.415 1_545 S
C2094 H2084 0.930 . S
C2094 C2092 1.419 . S
C2094 C2095 1.362 . S
C2095 H2085 0.930 . S
C2095 C2088 1.409 . S
C2095 C2094 1.362 . S
H2096 C2102 0.930 . S
H2097 C2105 0.930 . S
H2098 C2106 0.930 . S
H2099 C2107 0.930 . S
H2100 C2110 0.930 1_556 S
H2101 C2111 0.930 . S
C2102 H2096 0.930 . S
C2102 C2103 1.355 . S
C2102 C2104 1.415 . S
C2103 C2102 1.355 . S
C2103 C2105 1.419 1_556 S
C2104 C2102 1.415 . S
C2104 C2109 1.425 1_556 S
C2104 C2111 1.409 . S
C2105 H2097 0.930 . S
C2105 C2103 1.419 1_554 S
C2105 C2106 1.362 . S
C2106 H2098 0.930 . S
C2106 C2105 1.362 . S
C2106 C2109 1.409 . S
C2107 H2099 0.930 . S
C2107 C2108 1.355 . S
C2107 C2109 1.415 . S
C2108 C2107 1.355 . S
C2108 C2110 1.419 . S
C2109 C2104 1.425 1_554 S
C2109 C2106 1.409 . S
C2109 C2107 1.415 . S
C2110 H2100 0.930 1_554 S
C2110 C2108 1.419 . S
C2110 C2111 1.362 1_554 S
C2111 H2101 0.930 . S
C2111 C2104 1.409 . S
C2111 C2110 1.362 1_556 S
H2112 C2118 0.930 . S
H2113 C2121 0.930 . S
H2114 C2122 0.930 . S
H2115 C2123 0.930 . S
H2116 C2126 0.930 . S
H2117 C2127 0.930 . S
C2118 H2112 0.930 . S
C2118 C2119 1.355 . S
C2118 C2120 1.415 . S
C2119 C2118 1.355 . S
C2119 C2121 1.419 . S
C2120 C2118 1.415 . S
C2120 C2125 1.425 . S
C2120 C2127 1.409 . S
C2121 H2113 0.930 . S
C2121 C2119 1.419 . S
C2121 C2122 1.362 . S
C2122 H2114 0.930 . S
C2122 C2121 1.362 . S
C2122 C2125 1.409 . S
C2123 H2115 0.930 . S
C2123 C2124 1.355 . S
C2123 C2125 1.415 . S
C2124 C2123 1.355 . S
C2124 C2126 1.419 . S
C2125 C2120 1.425 . S
C2125 C2122 1.409 . S
C2125 C2123 1.415 . S
C2126 H2116 0.930 . S
C2126 C2124 1.419 . S
C2126 C2127 1.362 . S
C2127 H2117 0.930 . S
C2127 C2120 1.409 . S
C2127 C2126 1.362 . S
H2128 C2134 0.930 1_554 S
H2129 C2137 0.930 . S
H2130 C2138 0.930 . S
H2131 C2139 0.930 . S
H2132 C2142 0.930 . S
H2133 C2143 0.930 . S
C2134 H2128 0.930 1_556 S
C2134 C2135 1.355 . S
C2134 C2136 1.413 1_556 S
C2135 C2134 1.355 . S
C2135 C2137 1.419 . S
C2136 C2134 1.413 1_554 S
C2136 C2141 1.420 1_554 S
C2136 C2143 1.415 . S
C2137 H2129 0.930 . S
C2137 C2135 1.419 . S
C2137 C2138 1.362 . S
C2138 H2130 0.930 . S
C2138 C2137 1.362 . S
C2138 C2141 1.409 . S
C2139 H2131 0.930 . S
C2139 C2140 1.355 1_556 S
C2139 C2141 1.415 . S
C2140 C2139 1.355 1_554 S
C2140 C2142 1.419 . S
C2141 C2136 1.420 1_556 S
C2141 C2138 1.409 . S
C2141 C2139 1.415 . S
C2142 H2132 0.930 . S
C2142 C2140 1.419 . S
C2142 C2143 1.362 . S
C2143 H2133 0.930 . S
C2143 C2136 1.415 . S
C2143 C2142 1.362 . S
H2144 C2150 0.930 . S
H2145 C2153 0.930 . S
H2146 C2154 0.930 . S
H2147 C2155 0.930 . S
H2148 C2158 0.930 . S
H2149 C2159 0.930 . S
C2150 H2144 0.930 . S
C2150 C2151 1.355 . S
C2150 C2152 1.415 . S
C2151 C2150 1.355 . S
C2151 C2153 1.419 . S
C2152 C2150 1.415 . S
C2152 C2157 1.425 . S
C2152 C2159 1.409 . S
C2153 H2145 0.930 . S
C2153 C2151 1.419 . S
C2153 C2154 1.362 . S
C2154 H2146 0.930 . S
C2154 C2153 1.362 . S
C2154 C2157 1.409 . S
C2155 H2147 0.930 . S
C2155 C2156 1.355 . S
C2155 C2157 1.415 . S
C2156 C2155 1.355 . S
C2156 C2158 1.419 . S
C2157 C2152 1.425 . S
C2157 C2154 1.409 . S
C2157 C2155 1.415 . S
C2158 H2148 0.930 . S
C2158 C2156 1.419 . S
C2158 C2159 1.362 . S
C2159 H2149 0.930 . S
C2159 C2152 1.409 . S
C2159 C2158 1.362 . S
H2160 C2166 0.930 . S
H2161 C2169 0.930 . S
H2162 C2170 0.930 . S
H2163 C2171 0.930 . S
H2164 C2174 0.930 . S
H2165 C2175 0.930 . S
C2166 H2160 0.930 . S
C2166 C2167 1.355 . S
C2166 C2168 1.415 . S
C2167 C2166 1.355 . S
C2167 C2169 1.419 . S
C2168 C2166 1.415 . S
C2168 C2173 1.425 . S
C2168 C2175 1.409 . S
C2169 H2161 0.930 . S
C2169 C2167 1.419 . S
C2169 C2170 1.362 . S
C2170 H2162 0.930 . S
C2170 C2169 1.362 . S
C2170 C2173 1.409 . S
C2171 H2163 0.930 . S
C2171 C2172 1.355 . S
C2171 C2173 1.415 . S
C2172 C2171 1.355 . S
C2172 C2174 1.419 . S
C2173 C2168 1.425 . S
C2173 C2170 1.409 . S
C2173 C2171 1.415 . S
C2174 H2164 0.930 . S
C2174 C2172 1.419 . S
C2174 C2175 1.362 . S
C2175 H2165 0.930 . S
C2175 C2168 1.409 . S
C2175 C2174 1.362 . S
H2176 C2182 0.930 . S
H2177 C2185 0.930 . S
H2178 C2186 0.930 . S
H2179 C2187 0.930 . S
H2180 C2190 0.930 . S
H2181 C2191 0.930 . S
C2182 H2176 0.930 . S
C2182 C2183 1.355 . S
C2182 C2184 1.415 . S
C2183 C2182 1.355 . S
C2183 C2185 1.419 . S
C2184 C2182 1.415 . S
C2184 C2189 1.425 . S
C2184 C2191 1.409 . S
C2185 H2177 0.930 . S
C2185 C2183 1.419 . S
C2185 C2186 1.362 . S
C2186 H2178 0.930 . S
C2186 C2185 1.362 . S
C2186 C2189 1.409 . S
C2187 H2179 0.930 . S
C2187 C2188 1.355 . S
C2187 C2189 1.415 . S
C2188 C2187 1.355 . S
C2188 C2190 1.419 . S
C2189 C2184 1.425 . S
C2189 C2186 1.409 . S
C2189 C2187 1.415 . S
C2190 H2180 0.930 . S
C2190 C2188 1.419 . S
C2190 C2191 1.362 . S
C2191 H2181 0.930 . S
C2191 C2184 1.409 . S
C2191 C2190 1.362 . S
H2192 C2198 0.930 . S
H2193 C2201 0.930 . S
H2194 C2202 0.930 . S
H2195 C2203 0.930 . S
H2196 C2206 0.930 . S
H2197 C2207 0.930 . S
C2198 H2192 0.930 . S
C2198 C2199 1.355 1_554 S
C2198 C2200 1.415 . S
C2199 C2198 1.355 1_556 S
C2199 C2201 1.419 . S
C2200 C2198 1.415 . S
C2200 C2205 1.425 . S
C2200 C2207 1.409 . S
C2201 H2193 0.930 . S
C2201 C2199 1.419 . S
C2201 C2202 1.362 . S
C2202 H2194 0.930 . S
C2202 C2201 1.362 . S
C2202 C2205 1.409 1_556 S
C2203 H2195 0.930 . S
C2203 C2204 1.355 . S
C2203 C2205 1.415 . S
C2204 C2203 1.355 . S
C2204 C2206 1.419 . S
C2205 C2200 1.425 . S
C2205 C2202 1.409 1_554 S
C2205 C2203 1.415 . S
C2206 H2196 0.930 . S
C2206 C2204 1.419 . S
C2206 C2207 1.362 . S
C2207 H2197 0.930 . S
C2207 C2200 1.409 . S
C2207 C2206 1.362 . S
H2208 C2214 0.930 . S
H2209 C2217 0.930 . S
H2210 C2218 0.930 . S
H2211 C2219 0.930 . S
H2212 C2222 0.930 . S
H2213 C2223 0.930 . S
C2214 H2208 0.930 . S
C2214 C2215 1.355 . S
C2214 C2216 1.415 . S
C2215 C2214 1.355 . S
C2215 C2217 1.419 . S
C2216 C2214 1.415 . S
C2216 C2221 1.425 . S
C2216 C2223 1.409 . S
C2217 H2209 0.930 . S
C2217 C2215 1.419 . S
C2217 C2218 1.362 . S
C2218 H2210 0.930 . S
C2218 C2217 1.362 . S
C2218 C2221 1.409 . S
C2219 H2211 0.930 . S
C2219 C2220 1.355 . S
C2219 C2221 1.415 . S
C2220 C2219 1.355 . S
C2220 C2222 1.419 . S
C2221 C2216 1.425 . S
C2221 C2218 1.409 . S
C2221 C2219 1.415 . S
C2222 H2212 0.930 . S
C2222 C2220 1.419 . S
C2222 C2223 1.362 . S
C2223 H2213 0.930 . S
C2223 C2216 1.409 . S
C2223 C2222 1.362 . S
H2224 C2230 0.930 . S
H2225 C2233 0.930 . S
H2226 C2234 0.930 . S
H2227 C2235 0.930 . S
H2228 C2238 0.930 . S
H2229 C2239 0.930 . S
C2230 H2224 0.930 . S
C2230 C2231 1.355 . S
C2230 C2232 1.415 . S
C2231 C2230 1.355 . S
C2231 C2233 1.419 . S
C2232 C2230 1.415 . S
C2232 C2237 1.425 . S
C2232 C2239 1.409 . S
C2233 H2225 0.930 . S
C2233 C2231 1.419 . S
C2233 C2234 1.362 . S
C2234 H2226 0.930 . S
C2234 C2233 1.362 . S
C2234 C2237 1.409 . S
C2235 H2227 0.930 . S
C2235 C2236 1.355 . S
C2235 C2237 1.415 . S
C2236 C2235 1.355 . S
C2236 C2238 1.419 . S
C2237 C2232 1.425 . S
C2237 C2234 1.409 . S
C2237 C2235 1.415 . S
C2238 H2228 0.930 . S
C2238 C2236 1.419 . S
C2238 C2239 1.362 . S
C2239 H2229 0.930 . S
C2239 C2232 1.409 . S
C2239 C2238 1.362 . S
H2240 C2246 0.930 . S
H2241 C2249 0.930 . S
H2242 C2250 0.930 . S
H2243 C2251 0.930 . S
H2244 C2254 0.930 . S
H2245 C2255 0.930 . S
C2246 H2240 0.930 . S
C2246 C2247 1.355 . S
C2246 C2248 1.415 . S
C2247 C2246 1.355 . S
C2247 C2249 1.419 . S
C2248 C2246 1.415 . S
C2248 C2253 1.425 . S
C2248 C2255 1.409 . S
C2249 H2241 0.930 . S
C2249 C2247 1.419 . S
C2249 C2250 1.362 . S
C2250 H2242 0.930 . S
C2250 C2249 1.362 . S
C2250 C2253 1.409 . S
C2251 H2243 0.930 . S
C2251 C2252 1.355 . S
C2251 C2253 1.415 . S
C2252 C2251 1.355 . S
C2252 C2254 1.419 . S
C2253 C2248 1.425 . S
C2253 C2250 1.409 . S
C2253 C2251 1.415 . S
C2254 H2244 0.930 . S
C2254 C2252 1.419 . S
C2254 C2255 1.362 . S
C2255 H2245 0.930 . S
C2255 C2248 1.409 . S
C2255 C2254 1.362 . S
H2256 C2262 0.930 . S
H2257 C2265 0.930 . S
H2258 C2266 0.930 . S
H2259 C2267 0.930 . S
H2260 C2270 0.930 . S
H2261 C2271 0.930 . S
C2262 H2256 0.930 . S
C2262 C2263 1.355 . S
C2262 C2264 1.415 . S
C2263 C2262 1.355 . S
C2263 C2265 1.419 . S
C2264 C2262 1.415 . S
C2264 C2269 1.425 . S
C2264 C2271 1.409 . S
C2265 H2257 0.930 . S
C2265 C2263 1.419 . S
C2265 C2266 1.362 . S
C2266 H2258 0.930 . S
C2266 C2265 1.362 . S
C2266 C2269 1.409 . S
C2267 H2259 0.930 . S
C2267 C2268 1.355 . S
C2267 C2269 1.415 . S
C2268 C2267 1.355 . S
C2268 C2270 1.419 . S
C2269 C2264 1.425 . S
C2269 C2266 1.409 . S
C2269 C2267 1.415 . S
C2270 H2260 0.930 . S
C2270 C2268 1.419 . S
C2270 C2271 1.362 . S
C2271 H2261 0.930 . S
C2271 C2264 1.409 . S
C2271 C2270 1.362 . S
H2272 C2278 0.930 . S
H2273 C2281 0.930 . S
H2274 C2282 0.930 . S
H2275 C2283 0.930 . S
H2276 C2286 0.930 . S
H2277 C2287 0.930 . S
C2278 H2272 0.930 . S
C2278 C2279 1.355 . S
C2278 C2280 1.415 . S
C2279 C2278 1.355 . S
C2279 C2281 1.419 . S
C2280 C2278 1.415 . S
C2280 C2285 1.425 . S
C2280 C2287 1.409 . S
C2281 H2273 0.930 . S
C2281 C2279 1.419 . S
C2281 C2282 1.362 . S
C2282 H2274 0.930 . S
C2282 C2281 1.362 . S
C2282 C2285 1.409 . S
C2283 H2275 0.930 . S
C2283 C2284 1.355 . S
C2283 C2285 1.415 . S
C2284 C2283 1.355 . S
C2284 C2286 1.419 . S
C2285 C2280 1.425 . S
C2285 C2282 1.409 . S
C2285 C2283 1.415 . S
C2286 H2276 0.930 . S
C2286 C2284 1.419 . S
C2286 C2287 1.362 . S
C2287 H2277 0.930 . S
C2287 C2280 1.409 . S
C2287 C2286 1.362 . S
H2288 C2294 0.930 . S
H2289 C2297 0.930 . S
H2290 C2298 0.930 . S
H2291 C2299 0.930 . S
H2292 C2302 0.930 . S
H2293 C2303 0.930 . S
C2294 H2288 0.930 . S
C2294 C2295 1.355 . S
C2294 C2296 1.415 . S
C2295 C2294 1.355 . S
C2295 C2297 1.419 . S
C2296 C2294 1.415 . S
C2296 C2301 1.425 . S
C2296 C2303 1.409 . S
C2297 H2289 0.930 . S
C2297 C2295 1.419 . S
C2297 C2298 1.362 . S
C2298 H2290 0.930 . S
C2298 C2297 1.362 . S
C2298 C2301 1.409 . S
C2299 H2291 0.930 . S
C2299 C2300 1.355 . S
C2299 C2301 1.415 . S
C2300 C2299 1.355 . S
C2300 C2302 1.419 . S
C2301 C2296 1.425 . S
C2301 C2298 1.409 . S
C2301 C2299 1.415 . S
C2302 H2292 0.930 . S
C2302 C2300 1.419 . S
C2302 C2303 1.362 . S
C2303 H2293 0.930 . S
C2303 C2296 1.409 . S
C2303 C2302 1.362 . S
H2304 C2310 0.930 . S
H2305 C2313 0.930 . S
H2306 C2314 0.930 . S
H2307 C2315 0.930 . S
H2308 C2318 0.930 . S
H2309 C2319 0.930 . S
C2310 H2304 0.930 . S
C2310 C2311 1.355 . S
C2310 C2312 1.415 . S
C2311 C2310 1.355 . S
C2311 C2313 1.419 . S
C2312 C2310 1.415 . S
C2312 C2317 1.425 . S
C2312 C2319 1.409 . S
C2313 H2305 0.930 . S
C2313 C2311 1.419 . S
C2313 C2314 1.362 . S
C2314 H2306 0.930 . S
C2314 C2313 1.362 . S
C2314 C2317 1.409 . S
C2315 H2307 0.930 . S
C2315 C2316 1.355 . S
C2315 C2317 1.415 . S
C2316 C2315 1.355 . S
C2316 C2318 1.419 . S
C2317 C2312 1.425 . S
C2317 C2314 1.409 . S
C2317 C2315 1.415 . S
C2318 H2308 0.930 . S
C2318 C2316 1.419 . S
C2318 C2319 1.362 . S
C2319 H2309 0.930 . S
C2319 C2312 1.409 . S
C2319 C2318 1.362 . S
H2320 C2326 0.930 . S
H2321 C2329 0.930 . S
H2322 C2330 0.930 . S
H2323 C2331 0.930 . S
H2324 C2334 0.930 . S
H2325 C2335 0.930 . S
C2326 H2320 0.930 . S
C2326 C2327 1.355 . S
C2326 C2328 1.415 . S
C2327 C2326 1.355 . S
C2327 C2329 1.419 . S
C2328 C2326 1.415 . S
C2328 C2333 1.425 . S
C2328 C2335 1.409 . S
C2329 H2321 0.930 . S
C2329 C2327 1.419 . S
C2329 C2330 1.362 . S
C2330 H2322 0.930 . S
C2330 C2329 1.362 . S
C2330 C2333 1.409 . S
C2331 H2323 0.930 . S
C2331 C2332 1.355 . S
C2331 C2333 1.415 . S
C2332 C2331 1.355 . S
C2332 C2334 1.419 . S
C2333 C2328 1.425 . S
C2333 C2330 1.409 . S
C2333 C2331 1.415 . S
C2334 H2324 0.930 . S
C2334 C2332 1.419 . S
C2334 C2335 1.362 . S
C2335 H2325 0.930 . S
C2335 C2328 1.409 . S
C2335 C2334 1.362 . S
H2336 C2342 0.930 . S
H2337 C2345 0.930 . S
H2338 C2346 0.930 . S
H2339 C2347 0.930 . S
H2340 C2350 0.930 . S
H2341 C2351 0.930 . S
C2342 H2336 0.930 . S
C2342 C2343 1.355 . S
C2342 C2344 1.415 . S
C2343 C2342 1.355 . S
C2343 C2345 1.419 . S
C2344 C2342 1.415 . S
C2344 C2349 1.425 . S
C2344 C2351 1.409 . S
C2345 H2337 0.930 . S
C2345 C2343 1.419 . S
C2345 C2346 1.362 . S
C2346 H2338 0.930 . S
C2346 C2345 1.362 . S
C2346 C2349 1.409 . S
C2347 H2339 0.930 . S
C2347 C2348 1.355 . S
C2347 C2349 1.415 . S
C2348 C2347 1.355 . S
C2348 C2350 1.419 . S
C2349 C2344 1.425 . S
C2349 C2346 1.409 . S
C2349 C2347 1.415 . S
C2350 H2340 0.930 . S
C2350 C2348 1.419 . S
C2350 C2351 1.362 . S
C2351 H2341 0.930 . S
C2351 C2344 1.409 . S
C2351 C2350 1.362 . S
H2352 C2358 0.930 . S
H2353 C2361 0.930 . S
H2354 C2362 0.930 . S
H2355 C2363 0.930 . S
H2356 C2366 0.930 . S
H2357 C2367 0.930 . S
C2358 H2352 0.930 . S
C2358 C2359 1.355 . S
C2358 C2360 1.415 . S
C2359 C2358 1.355 . S
C2359 C2361 1.419 . S
C2360 C2358 1.415 . S
C2360 C2365 1.425 . S
C2360 C2367 1.409 . S
C2361 H2353 0.930 . S
C2361 C2359 1.419 . S
C2361 C2362 1.362 . S
C2362 H2354 0.930 . S
C2362 C2361 1.362 . S
C2362 C2365 1.409 . S
C2363 H2355 0.930 . S
C2363 C2364 1.355 . S
C2363 C2365 1.415 . S
C2364 C2363 1.355 . S
C2364 C2366 1.419 . S
C2365 C2360 1.425 . S
C2365 C2362 1.409 . S
C2365 C2363 1.415 . S
C2366 H2356 0.930 . S
C2366 C2364 1.419 . S
C2366 C2367 1.362 . S
C2367 H2357 0.930 . S
C2367 C2360 1.409 . S
C2367 C2366 1.362 . S
H2368 C2374 0.930 . S
H2369 C2377 0.930 . S
H2370 C2378 0.930 . S
H2371 C2379 0.930 . S
H2372 C2382 0.930 . S
H2373 C2383 0.930 . S
C2374 H2368 0.930 . S
C2374 C2375 1.355 . S
C2374 C2376 1.415 . S
C2375 C2374 1.355 . S
C2375 C2377 1.419 . S
C2376 C2374 1.415 . S
C2376 C2381 1.425 . S
C2376 C2383 1.409 . S
C2377 H2369 0.930 . S
C2377 C2375 1.419 . S
C2377 C2378 1.362 . S
C2378 H2370 0.930 . S
C2378 C2377 1.362 . S
C2378 C2381 1.409 . S
C2379 H2371 0.930 . S
C2379 C2380 1.355 . S
C2379 C2381 1.415 . S
C2380 C2379 1.355 . S
C2380 C2382 1.419 . S
C2381 C2376 1.425 . S
C2381 C2378 1.409 . S
C2381 C2379 1.415 . S
C2382 H2372 0.930 . S
C2382 C2380 1.419 . S
C2382 C2383 1.362 . S
C2383 H2373 0.930 . S
C2383 C2376 1.409 . S
C2383 C2382 1.362 . S
H2384 C2390 0.930 . S
H2385 C2393 0.930 . S
H2386 C2394 0.930 . S
H2387 C2395 0.930 . S
H2388 C2398 0.930 . S
H2389 C2399 0.930 . S
C2390 H2384 0.930 . S
C2390 C2391 1.355 . S
C2390 C2392 1.415 . S
C2391 C2390 1.355 . S
C2391 C2393 1.419 . S
C2392 C2390 1.415 . S
C2392 C2397 1.425 . S
C2392 C2399 1.409 . S
C2393 H2385 0.930 . S
C2393 C2391 1.419 . S
C2393 C2394 1.362 . S
C2394 H2386 0.930 . S
C2394 C2393 1.362 . S
C2394 C2397 1.409 . S
C2395 H2387 0.930 . S
C2395 C2396 1.355 . S
C2395 C2397 1.415 . S
C2396 C2395 1.355 . S
C2396 C2398 1.419 . S
C2397 C2392 1.425 . S
C2397 C2394 1.409 . S
C2397 C2395 1.415 . S
C2398 H2388 0.930 . S
C2398 C2396 1.419 . S
C2398 C2399 1.362 . S
C2399 H2389 0.930 . S
C2399 C2392 1.409 . S
C2399 C2398 1.362 . S
H2400 C2406 0.930 . S
H2401 C2409 0.930 . S
H2402 C2410 0.930 . S
H2403 C2411 0.930 . S
H2404 C2414 0.930 . S
H2405 C2415 0.930 . S
C2406 H2400 0.930 . S
C2406 C2407 1.355 . S
C2406 C2408 1.415 . S
C2407 C2406 1.355 . S
C2407 C2409 1.419 . S
C2408 C2406 1.415 . S
C2408 C2413 1.425 . S
C2408 C2415 1.409 . S
C2409 H2401 0.930 . S
C2409 C2407 1.419 . S
C2409 C2410 1.362 . S
C2410 H2402 0.930 . S
C2410 C2409 1.362 . S
C2410 C2413 1.409 . S
C2411 H2403 0.930 . S
C2411 C2412 1.355 . S
C2411 C2413 1.415 . S
C2412 C2411 1.355 . S
C2412 C2414 1.419 . S
C2413 C2408 1.425 . S
C2413 C2410 1.409 . S
C2413 C2411 1.415 . S
C2414 H2404 0.930 . S
C2414 C2412 1.419 . S
C2414 C2415 1.362 . S
C2415 H2405 0.930 . S
C2415 C2408 1.409 . S
C2415 C2414 1.362 . S
H2416 C2422 0.930 . S
H2417 C2425 0.930 . S
H2418 C2426 0.930 . S
H2419 C2427 0.930 . S
H2420 C2430 0.930 . S
H2421 C2431 0.930 . S
C2422 H2416 0.930 . S
C2422 C2423 1.355 . S
C2422 C2424 1.415 . S
C2423 C2422 1.355 . S
C2423 C2425 1.419 . S
C2424 C2422 1.415 . S
C2424 C2429 1.425 . S
C2424 C2431 1.409 . S
C2425 H2417 0.930 . S
C2425 C2423 1.419 . S
C2425 C2426 1.362 . S
C2426 H2418 0.930 . S
C2426 C2425 1.362 . S
C2426 C2429 1.409 . S
C2427 H2419 0.930 . S
C2427 C2428 1.355 . S
C2427 C2429 1.415 . S
C2428 C2427 1.355 . S
C2428 C2430 1.419 . S
C2429 C2424 1.425 . S
C2429 C2426 1.409 . S
C2429 C2427 1.415 . S
C2430 H2420 0.930 . S
C2430 C2428 1.419 . S
C2430 C2431 1.362 . S
C2431 H2421 0.930 . S
C2431 C2424 1.409 . S
C2431 C2430 1.362 . S
H2432 C2438 0.930 . S
H2433 C2441 0.930 . S
H2434 C2442 0.930 . S
H2435 C2443 0.930 . S
H2436 C2446 0.930 . S
H2437 C2447 0.930 . S
C2438 H2432 0.930 . S
C2438 C2439 1.355 . S
C2438 C2440 1.415 . S
C2439 C2438 1.355 . S
C2439 C2441 1.419 . S
C2440 C2438 1.415 . S
C2440 C2445 1.425 . S
C2440 C2447 1.409 . S
C2441 H2433 0.930 . S
C2441 C2439 1.419 . S
C2441 C2442 1.362 . S
C2442 H2434 0.930 . S
C2442 C2441 1.362 . S
C2442 C2445 1.409 . S
C2443 H2435 0.930 . S
C2443 C2444 1.355 . S
C2443 C2445 1.415 . S
C2444 C2443 1.355 . S
C2444 C2446 1.419 . S
C2445 C2440 1.425 . S
C2445 C2442 1.409 . S
C2445 C2443 1.415 . S
C2446 H2436 0.930 . S
C2446 C2444 1.419 . S
C2446 C2447 1.362 . S
C2447 H2437 0.930 . S
C2447 C2440 1.409 . S
C2447 C2446 1.362 . S
H2448 C2454 0.930 . S
H2449 C2457 0.930 . S
H2450 C2458 0.930 . S
H2451 C2459 0.930 . S
H2452 C2462 0.930 . S
H2453 C2463 0.930 . S
C2454 H2448 0.930 . S
C2454 C2455 1.355 . S
C2454 C2456 1.415 . S
C2455 C2454 1.355 . S
C2455 C2457 1.419 . S
C2456 C2454 1.415 . S
C2456 C2461 1.425 . S
C2456 C2463 1.409 . S
C2457 H2449 0.930 . S
C2457 C2455 1.419 . S
C2457 C2458 1.362 . S
C2458 H2450 0.930 . S
C2458 C2457 1.362 . S
C2458 C2461 1.409 . S
C2459 H2451 0.930 . S
C2459 C2460 1.355 . S
C2459 C2461 1.415 . S
C2460 C2459 1.355 . S
C2460 C2462 1.419 . S
C2461 C2456 1.425 . S
C2461 C2458 1.409 . S
C2461 C2459 1.415 . S
C2462 H2452 0.930 . S
C2462 C2460 1.419 . S
C2462 C2463 1.362 . S
C2463 H2453 0.930 . S
C2463 C2456 1.409 . S
C2463 C2462 1.362 . S
H2464 C2470 0.930 . S
H2465 C2473 0.930 . S
H2466 C2474 0.930 . S
H2467 C2475 0.930 . S
H2468 C2478 0.930 . S
H2469 C2479 0.930 . S
C2470 H2464 0.930 . S
C2470 C2471 1.355 . S
C2470 C2472 1.415 . S
C2471 C2470 1.355 . S
C2471 C2473 1.419 . S
C2472 C2470 1.415 . S
C2472 C2477 1.425 . S
C2472 C2479 1.409 . S
C2473 H2465 0.930 . S
C2473 C2471 1.419 . S
C2473 C2474 1.362 . S
C2474 H2466 0.930 . S
C2474 C2473 1.362 . S
C2474 C2477 1.409 . S
C2475 H2467 0.930 . S
C2475 C2476 1.355 . S
C2475 C2477 1.415 . S
C2476 C2475 1.355 . S
C2476 C2478 1.419 . S
C2477 C2472 1.425 . S
C2477 C2474 1.409 . S
C2477 C2475 1.415 . S
C2478 H2468 0.930 . S
C2478 C2476 1.419 . S
C2478 C2479 1.362 . S
C2479 H2469 0.930 . S
C2479 C2472 1.409 . S
C2479 C2478 1.362 . S
H2480 C2486 0.930 . S
H2481 C2489 0.930 . S
H2482 C2490 0.930 . S
H2483 C2491 0.930 . S
H2484 C2494 0.930 . S
H2485 C2495 0.930 . S
C2486 H2480 0.930 . S
C2486 C2487 1.355 . S
C2486 C2488 1.415 . S
C2487 C2486 1.355 . S
C2487 C2489 1.419 . S
C2488 C2486 1.415 . S
C2488 C2493 1.425 . S
C2488 C2495 1.409 . S
C2489 H2481 0.930 . S
C2489 C2487 1.419 . S
C2489 C2490 1.362 . S
C2490 H2482 0.930 . S
C2490 C2489 1.362 . S
C2490 C2493 1.409 . S
C2491 H2483 0.930 . S
C2491 C2492 1.355 . S
C2491 C2493 1.415 . S
C2492 C2491 1.355 . S
C2492 C2494 1.419 . S
C2493 C2488 1.425 . S
C2493 C2490 1.409 . S
C2493 C2491 1.415 . S
C2494 H2484 0.930 . S
C2494 C2492 1.419 . S
C2494 C2495 1.362 . S
C2495 H2485 0.930 . S
C2495 C2488 1.409 . S
C2495 C2494 1.362 . S
C967 N6 1.235 . S
C972 C117 1.310 . S
C983 C27 1.976 . S
C988 C57 1.939 . S
C999 N66 0.788 . S
C1004 N36 0.798 . S
C1015 C87 1.260 . S
C1020 N96 1.237 1_566 S
C1031 N156 2.038 . S
C1036 C147 2.267 . S
C1047 C177 1.783 . S
C1052 N186 1.504 . S
C1063 N216 1.651 . S
C1068 C207 1.867 . S
C1079 N126 1.150 . S
C1084 C237 1.378 . S
C1095 N254 1.261 . S
C1100 C346 1.290 . S
C1111 C286 1.939 . S
C1116 C256 1.973 . S
C1127 N314 0.742 . S
C1132 N284 0.759 . S
C1143 N344 1.219 1_544 S
C1148 C316 1.217 . S
C1159 C376 2.283 . S
C1164 N404 2.008 . S
C1175 C406 1.765 . S
C1180 N434 1.599 . S
C1191 N464 1.581 . S
C1196 C436 1.875 . S
C1207 N374 1.223 . S
C1212 C466 1.363 . S
C1223 N486 1.232 . S
C1228 C597 1.309 . S
C1239 C507 1.943 . S
C1244 C537 1.967 1_556 S
C1255 N516 0.669 . S
C1260 N546 0.759 . S
C1271 N576 1.211 . S
C1276 C567 1.222 . S
C1287 C627 2.268 . S
C1292 N636 2.034 . S
C1303 N666 1.532 . S
C1308 C657 1.777 . S
C1319 C687 1.878 . S
C1324 N696 1.549 . S
C1335 N606 1.079 . S
C1340 C717 1.378 . S
C1351 C826 1.307 . S
C1356 N734 1.226 . S
C1367 C736 1.970 . S
C1372 C766 1.940 1_554 S
C1383 N794 0.778 . S
C1388 N764 0.842 . S
C1399 C796 1.259 . S
C1404 N824 1.202 . S
C1415 N884 1.999 . S
C1420 C856 2.283 . S
C1431 N914 1.554 . S
C1436 C886 1.773 . S
C1447 N944 1.535 . S
C1452 C916 1.880 . S
C1463 C946 1.364 . S
C1468 N854 1.192 . S
C1479 N816 1.304 . S
C1484 C1 1.325 . S
C1495 C40 1.084 . S
C1500 N246 1.116 . S
C1511 C61 1.426 . S
C1516 C777 1.414 . S
C1527 C91 1.045 . S
C1532 N306 1.015 . S
C1543 C130 1.307 . S
C1548 C897 1.308 . S
C1559 C447 1.771 . S
C1564 C160 1.769 . S
C1575 C957 1.334 . S
C1580 C190 1.333 . S
C1591 C220 1.672 . S
C1596 C387 1.667 . S
C1607 C250 1.306 . S
C1612 N584 1.291 . S
C1623 N14 1.125 . S
C1628 C271 1.140 . S
C1639 C526 1.421 . S
C1644 C310 1.426 . S
C1655 N74 0.997 . S
C1660 C340 1.011 . S
C1671 C646 1.293 . S
C1676 C361 1.296 . S
C1687 C196 1.765 . S
C1692 C391 1.765 . S
C1703 C421 1.325 . S
C1708 C706 1.324 . S
C1719 C451 1.679 . S
C1724 C136 1.679 . S
C1735 C481 1.327 . S
C1740 N336 1.320 . S
C1751 C520 1.084 . S
C1756 N726 1.094 . S
C1767 C541 1.417 . S
C1772 C297 1.419 . S
C1783 C571 1.052 . S
C1788 N786 1.050 1_655 S
C1799 C610 1.309 . S
C1804 C417 1.310 . S
C1815 C640 1.767 . S
C1820 C927 1.768 . S
C1831 C477 1.334 . S
C1836 C670 1.333 . S
C1847 C700 1.670 . S
C1852 C867 1.666 . S
C1863 N104 1.322 . S
C1868 C730 1.326 . S
C1879 N494 1.096 . S
C1884 C751 1.084 . S
C1895 C46 1.419 . S
C1900 C790 1.417 . S
C1911 N554 0.989 1_455 S
C1916 C820 1.031 . S
C1927 C166 1.291 . S
C1932 C841 1.294 . S
C1943 C871 1.767 . S
C1948 C676 1.768 . S
C1959 C901 1.331 . S
C1964 C226 1.331 . S
C1975 C616 1.671 . S
C1980 C931 1.673 . S
C1991 C10 0.634 . S
C1996 C121 0.586 . S
C2007 C31 0.776 . S
C2012 C151 0.777 . S
C2023 C70 0.846 . S
C2028 C181 0.837 . S
C2039 C211 0.598 . S
C2044 C100 0.639 . S
C2055 C370 0.617 . S
C2060 C241 0.662 . S
C2071 C400 0.775 . S
C2076 C280 0.780 . S
C2087 C301 0.833 . S
C2092 C430 0.797 . S
C2103 C331 0.629 . S
C2108 C460 0.597 . S
C2119 C490 0.647 . S
C2124 C601 0.702 . S
C2135 C631 0.771 . S
C2140 C511 0.763 . S
C2151 C661 0.838 . S
C2156 C550 0.804 . S
C2167 C691 0.617 . S
C2172 C580 0.660 . S
C2183 C850 0.704 . S
C2188 C721 0.690 . S
C2199 C760 0.755 . S
C2204 C880 0.764 . S
C2215 C910 0.814 . S
C2220 C781 0.778 . S
C2231 C811 0.605 . S
C2236 C940 0.650 . S
C2247 N224 1.807 . S
C2252 C16 1.817 . S
C2263 N44 0.555 . S
C2268 N134 0.569 . S
C2279 C76 1.860 . S
C2284 N164 1.896 . S
C2295 N194 1.526 . S
C2300 C106 1.534 . S
C2311 C267 1.810 . S
C2316 N456 1.831 . S
C2327 N366 0.516 . S
C2332 N276 0.525 . S
C2343 N396 1.898 . S
C2348 C327 1.849 . S
C2359 C357 1.518 . S
C2364 N426 1.541 . S
C2375 C496 1.810 . S
C2380 N704 1.831 . S
C2391 N614 0.559 . S
C2396 N524 0.549 . S
C2407 N644 1.892 . S
C2412 C556 1.873 . S
C2423 N674 1.516 . S
C2428 C586 1.535 . S
C2439 C747 1.813 . S
C2444 N936 1.811 . S
C2455 N846 0.528 . S
C2460 N756 0.532 . S
C2471 C807 1.855 . S
C2476 N876 1.895 . S
C2487 N906 1.542 . S
C2492 C837 1.516 . S
