# Generated by pormake.
# Topology svh, (7)-cn, num edge types: 1
# Building blocks:
#     Node 0, Type 0, BuildingBlock: HICVOG_clean_sbu_0, # of connection points: 7
#     Node 1, Type 0, BuildingBlock: HICVOG_clean_sbu_0, # of connection points: 7
#     Node 2, Type 0, BuildingBlock: HICVOG_clean_sbu_0, # of connection points: 7
#     Node 3, Type 0, BuildingBlock: HICVOG_clean_sbu_0, # of connection points: 7
#     Node 4, Type 0, BuildingBlock: HICVOG_clean_sbu_0, # of connection points: 7
#     Node 5, Type 0, BuildingBlock: HICVOG_clean_sbu_0, # of connection points: 7
#     Node 6, Type 0, BuildingBlock: HICVOG_clean_sbu_0, # of connection points: 7
#     Node 7, Type 0, BuildingBlock: HICVOG_clean_sbu_0, # of connection points: 7
#     Edge 8, Type (0, 0), BuildingBlock: TEMPAE_clean_linker_10, # of connection points: 2
#     Edge 9, Type (0, 0), BuildingBlock: TEMPAE_clean_linker_10, # of connection points: 2
#     Edge 10, Type (0, 0), BuildingBlock: TEMPAE_clean_linker_10, # of connection points: 2
#     Edge 11, Type (0, 0), BuildingBlock: TEMPAE_clean_linker_10, # of connection points: 2
#     Edge 12, Type (0, 0), BuildingBlock: TEMPAE_clean_linker_10, # of connection points: 2
#     Edge 13, Type (0, 0), BuildingBlock: TEMPAE_clean_linker_10, # of connection points: 2
#     Edge 14, Type (0, 0), BuildingBlock: TEMPAE_clean_linker_10, # of connection points: 2
#     Edge 15, Type (0, 0), BuildingBlock: TEMPAE_clean_linker_10, # of connection points: 2
#     Edge 16, Type (0, 0), BuildingBlock: TEMPAE_clean_linker_10, # of connection points: 2
#     Edge 17, Type (0, 0), BuildingBlock: TEMPAE_clean_linker_10, # of connection points: 2
#     Edge 18, Type (0, 0), BuildingBlock: TEMPAE_clean_linker_10, # of connection points: 2
#     Edge 19, Type (0, 0), BuildingBlock: TEMPAE_clean_linker_10, # of connection points: 2
#     Edge 20, Type (0, 0), BuildingBlock: TEMPAE_clean_linker_10, # of connection points: 2
#     Edge 21, Type (0, 0), BuildingBlock: TEMPAE_clean_linker_10, # of connection points: 2
#     Edge 22, Type (0, 0), BuildingBlock: TEMPAE_clean_linker_10, # of connection points: 2
#     Edge 23, Type (0, 0), BuildingBlock: TEMPAE_clean_linker_10, # of connection points: 2
#     Edge 24, Type (0, 0), BuildingBlock: TEMPAE_clean_linker_10, # of connection points: 2
#     Edge 25, Type (0, 0), BuildingBlock: TEMPAE_clean_linker_10, # of connection points: 2
#     Edge 26, Type (0, 0), BuildingBlock: TEMPAE_clean_linker_10, # of connection points: 2
#     Edge 27, Type (0, 0), BuildingBlock: TEMPAE_clean_linker_10, # of connection points: 2
#     Edge 28, Type (0, 0), BuildingBlock: TEMPAE_clean_linker_10, # of connection points: 2
#     Edge 29, Type (0, 0), BuildingBlock: TEMPAE_clean_linker_10, # of connection points: 2
#     Edge 30, Type (0, 0), BuildingBlock: TEMPAE_clean_linker_10, # of connection points: 2
#     Edge 31, Type (0, 0), BuildingBlock: TEMPAE_clean_linker_10, # of connection points: 2
#     Edge 32, Type (0, 0), BuildingBlock: TEMPAE_clean_linker_10, # of connection points: 2
#     Edge 33, Type (0, 0), BuildingBlock: TEMPAE_clean_linker_10, # of connection points: 2
#     Edge 34, Type (0, 0), BuildingBlock: TEMPAE_clean_linker_10, # of connection points: 2
#     Edge 35, Type (0, 0), BuildingBlock: TEMPAE_clean_linker_10, # of connection points: 2
# Relax obj value: 0.277
# Max RMSD: 0.252
# Mean RMSD: 0.252
data_MOF--net-svh--node1-HICVOG_clean_sbu_0--edge1-TEMPAE_clean_linker_10
_symmetry_space_group_name_H-M    P1
_symmetry_Int_Tables_number       1
_symmetry_cell_setting            triclinic
loop_
_symmetry_equiv_pos_as_xyz
'x, y, z'
_cell_length_a     18.741303
_cell_length_b     18.802307
_cell_length_c     102.72688
_cell_angle_alpha  89.955348
_cell_angle_beta   89.623139
_cell_angle_gamma 89.881665
loop_
_atom_site_label
_atom_site_type_symbol
_atom_site_fract_x
_atom_site_fract_y
_atom_site_fract_z
_atom_type_partial_charge
Zn0 Zn 0.11401 0.79539 0.08706 0.0
C1 C 0.96741 0.6808 0.06853 0.0
N2 N 0.96271 0.73949 0.06113 0.0
C3 C 1.0027 0.78709 0.06748 0.0
N4 N 0.03045 0.75885 0.07844 0.0
N5 N 1.00785 0.69209 0.07919 0.0
C6 C 0.10153 0.48252 0.09449 0.0
O7 O 0.1277 0.50749 0.1054 0.0
O8 O 0.12081 0.90389 0.08471 0.0
Zn9 Zn 0.02692 0.62248 0.09326 0.0
N10 N 0.19512 0.75083 0.07853 0.0
C11 C 0.23875 0.6738 0.06191 0.0
C12 C 0.18224 0.70589 0.06845 0.0
C13 C 0.2629 0.76413 0.08249 0.0
N14 N 0.30619 0.68659 0.06588 0.0
C15 C 0.32045 0.73058 0.07606 0.0
O16 O 0.07988 0.66164 0.10889 0.0
C17 C 0.10607 0.71858 0.11357 0.0
O18 O 0.1161 0.77364 0.10652 0.0
H19 H 0.12863 0.69493 0.06538 0.0
H20 H 0.27127 0.80048 0.09048 0.0
C21 C 0.87448 0.63133 0.09802 0.0
C22 C 0.81116 0.61086 0.10437 0.0
C23 C 0.87667 0.52836 0.11708 0.0
C24 C 0.93925 0.54877 0.11076 0.0
N25 N 0.93688 0.59922 0.10129 0.0
N26 N 0.81415 0.55945 0.11369 0.0
H27 H 0.87402 0.67116 0.09043 0.0
C28 C 0.07948 0.94537 0.09106 0.0
O29 O 0.03209 0.9172 0.099 0.0
O30 O 0.06333 0.52342 0.08748 0.0
H31 H 0.98951 0.52461 0.11338 0.0
H32 H 0.22915 0.63836 0.05381 0.0
H33 H 0.87765 0.48797 0.12458 0.0
Zn34 Zn 0.45756 0.84891 0.3391 0.0
C35 C 0.63827 0.88094 0.31736 0.0
N36 N 0.59966 0.93011 0.31123 0.0
C37 C 0.53471 0.92465 0.31675 0.0
N38 N 0.53397 0.87417 0.3263 0.0
N39 N 0.59942 0.84644 0.32642 0.0
C40 C 0.78558 0.78988 0.33601 0.0
O41 O 0.76108 0.84698 0.34192 0.0
O42 O 0.36565 0.79926 0.3319 0.0
Zn43 Zn 0.63045 0.7583 0.33446 0.0
N44 N 0.42176 0.93676 0.34676 0.0
C45 C 0.33543 0.99192 0.36055 0.0
C46 C 0.36464 0.9311 0.35492 0.0
C47 C 0.45204 1.00109 0.34426 0.0
N48 N 0.3645 0.0562 0.35781 0.0
C49 C 0.4224 0.06283 0.34983 0.0
O50 O 0.60695 0.75526 0.3538 0.0
C51 C 0.55106 0.76971 0.36046 0.0
O52 O 0.49684 0.79937 0.35529 0.0
H53 H 0.3418 0.87977 0.35704 0.0
H54 H 0.49741 1.00425 0.33777 0.0
C55 C 0.58398 0.61411 0.32992 0.0
C56 C 0.54521 0.56069 0.32347 0.0
C57 C 0.49971 0.64763 0.30893 0.0
C58 C 0.53717 0.70024 0.31545 0.0
N59 N 0.57912 0.68263 0.32574 0.0
N60 N 0.50446 0.57945 0.31309 0.0
H61 H 0.61792 0.60185 0.3381 0.0
C62 C 0.32501 0.76381 0.33956 0.0
O63 O 0.34947 0.74685 0.35111 0.0
O64 O 0.74064 0.74386 0.33201 0.0
H65 H 0.53288 0.75461 0.3122 0.0
H66 H 0.2897 0.98817 0.36699 0.0
H67 H 0.46665 0.66089 0.30068 0.0
Zn68 Zn 0.477 0.31848 0.59078 0.0
C69 C 0.41424 0.16289 0.56582 0.0
N70 N 0.43772 0.21062 0.5571 0.0
C71 C 0.45806 0.26478 0.56459 0.0
N72 N 0.44701 0.25191 0.57734 0.0
N73 N 0.42044 0.18665 0.57823 0.0
C74 C 0.42865 0.99364 0.59486 0.0
O75 O 0.48974 0.02271 0.59807 0.0
O76 O 0.42066 0.4128 0.59082 0.0
Zn77 Zn 0.38741 0.14293 0.59426 0.0
N78 N 0.57102 0.34791 0.58526 0.0
C79 C 0.64326 0.43242 0.57412 0.0
C80 C 0.57755 0.41184 0.57917 0.0
C81 C 0.62803 0.30388 0.58669 0.0
N82 N 0.70021 0.38873 0.57556 0.0
C83 C 0.69497 0.32475 0.58174 0.0
O84 O 0.4493 0.16287 0.6102 0.0
C85 C 0.47829 0.21746 0.61534 0.0
O86 O 0.48612 0.27559 0.60903 0.0
H87 H 0.53179 0.44596 0.57792 0.0
H88 H 0.62086 0.254 0.59177 0.0
C89 C 0.23322 0.15454 0.59682 0.0
C90 C 0.17117 0.1885 0.60142 0.0
C91 C 0.2411 0.28414 0.60927 0.0
C92 C 0.30226 0.25094 0.60457 0.0
N93 N 0.2975 0.1863 0.59872 0.0
N94 N 0.17717 0.25224 0.60759 0.0
H95 H 0.23066 0.10361 0.59195 0.0
C96 C 0.42501 0.45634 0.6003 0.0
O97 O 0.45535 0.43506 0.61112 0.0
O98 O 0.37593 0.03443 0.59243 0.0
H99 H 0.35325 0.2764 0.60567 0.0
H100 H 0.64907 0.4827 0.5691 0.0
H101 H 0.24423 0.33513 0.6141 0.0
Zn102 Zn 0.84224 0.31746 0.84061 0.0
C103 C 0.01795 0.34604 0.81753 0.0
N104 N 0.97546 0.39221 0.81132 0.0
C105 C 0.91354 0.38668 0.81788 0.0
N106 N 0.91764 0.33906 0.82772 0.0
N107 N 0.98357 0.31327 0.82742 0.0
C108 C 0.16657 0.26001 0.8388 0.0
O109 O 0.13871 0.31168 0.8458 0.0
O110 O 0.74705 0.27802 0.83348 0.0
Zn111 Zn 0.0151 0.22611 0.83555 0.0
N112 N 0.81254 0.40595 0.84855 0.0
C113 C 0.73396 0.46252 0.86362 0.0
C114 C 0.75963 0.40116 0.85762 0.0
C115 C 0.84208 0.46976 0.84544 0.0
N116 N 0.76234 0.52637 0.86032 0.0
C117 C 0.81616 0.53191 0.85141 0.0
O118 O 0.98874 0.21992 0.85488 0.0
C119 C 0.93193 0.23233 0.86144 0.0
O120 O 0.87826 0.2631 0.85634 0.0
H121 H 0.73743 0.34999 0.86016 0.0
H122 H 0.88412 0.47232 0.83823 0.0
C123 C 0.97415 0.08137 0.83035 0.0
C124 C 0.93783 0.02725 0.82362 0.0
C125 C 0.89278 0.11368 0.80892 0.0
C126 C 0.92745 0.16694 0.81577 0.0
N127 N 0.96792 0.14992 0.82627 0.0
N128 N 0.8985 0.04546 0.81302 0.0
H129 H 1.00711 0.0698 0.83869 0.0
C130 C 0.70634 0.24006 0.84065 0.0
O131 O 0.73148 0.21611 0.85173 0.0
O132 O 0.12449 0.21579 0.83343 0.0
H133 H 0.92186 0.22136 0.81264 0.0
H134 H 0.69154 0.45954 0.87079 0.0
H135 H 0.86085 0.12647 0.8005 0.0
Zn136 Zn 0.95554 0.31366 0.98395 0.0
C137 C 0.07325 0.17638 1.00551 0.0
N138 N 0.0724 0.23059 1.01397 0.0
C139 C 0.03801 0.28185 1.0075 0.0
N140 N 0.01775 0.26021 0.99554 0.0
N141 N 0.0401 0.19347 0.99424 0.0
C142 C 0.03042 0.98608 0.97289 0.0
O143 O 0.02745 0.01312 0.96111 0.0
O144 O 0.98587 0.41665 0.98221 0.0
Zn145 Zn 0.03535 0.13471 0.97848 0.0
N146 N 0.86167 0.323 0.99194 0.0
C147 C 0.78946 0.39459 1.00594 0.0
C148 C 0.85513 0.37884 1.0003 0.0
C149 C 0.80381 0.28313 0.98869 0.0
N150 N 0.73163 0.35611 1.00252 0.0
C151 C 0.73666 0.30097 0.994 0.0
O152 O 0.95369 0.15699 0.96597 0.0
C153 C 0.94103 0.21493 0.95993 0.0
O154 O 0.94725 0.27497 0.96555 0.0
H155 H 0.90012 0.41257 1.00227 0.0
H156 H 0.80926 0.24104 0.98157 0.0
C157 C 0.18769 0.14883 0.97396 0.0
C158 C 0.24925 0.15623 0.96606 0.0
C159 C 0.17531 0.16106 0.94736 0.0
C160 C 0.11514 0.15361 0.95518 0.0
N161 N 0.12212 0.14842 0.96831 0.0
N162 N 0.24046 0.16231 0.95295 0.0
H163 H 0.19107 0.14195 0.98437 0.0
C164 C 0.0436 0.44893 0.97952 0.0
O165 O 0.10206 0.4122 0.97725 0.0
O166 O 0.03252 0.02845 0.98254 0.0
H167 H 0.06344 0.15047 0.95073 0.0
H168 H 0.78388 0.43872 1.01262 0.0
H169 H 0.17041 0.16532 0.9369 0.0
Zn170 Zn 0.03654 0.75431 0.23802 0.0
C171 C 0.13914 0.91344 0.2557 0.0
N172 N 0.0775 0.91899 0.26236 0.0
C173 C 0.03467 0.87335 0.25615 0.0
N174 N 0.06858 0.84084 0.24618 0.0
N175 N 0.13451 0.8663 0.2458 0.0
C176 C 0.34551 0.76693 0.2327 0.0
O177 O 0.32067 0.74308 0.22161 0.0
O178 O 0.92725 0.74435 0.24024 0.0
Zn179 Zn 0.20925 0.84459 0.23277 0.0
N180 N 0.08383 0.67739 0.24715 0.0
C181 C 0.15952 0.63998 0.26437 0.0
C182 C 0.125 0.69376 0.25758 0.0
C183 C 0.07675 0.60896 0.24308 0.0
N184 N 0.15292 0.57188 0.26028 0.0
C185 C 0.11286 0.55429 0.24975 0.0
O186 O 0.17287 0.79077 0.21698 0.0
C187 C 0.11841 0.76107 0.21199 0.0
O188 O 0.062 0.74913 0.21868 0.0
H189 H 0.13119 0.74806 0.26071 0.0
H190 H 0.04323 0.59788 0.23481 0.0
C191 C 0.2087 0.99691 0.22797 0.0
C192 C 0.2343 0.05913 0.22199 0.0
C193 C 0.31706 0.98996 0.20982 0.0
C194 C 0.29171 0.92852 0.21582 0.0
N195 N 0.23866 0.93317 0.22487 0.0
N196 N 0.28824 0.05373 0.2131 0.0
H197 H 0.16659 0.99933 0.23516 0.0
C198 C 0.88494 0.78834 0.2348 0.0
O199 O 0.91249 0.83976 0.22772 0.0
O200 O 0.30456 0.80488 0.23985 0.0
H201 H 0.31424 0.87741 0.2133 0.0
H202 H 0.19199 0.65226 0.27274 0.0
H203 H 0.35958 0.9871 0.20266 0.0
Zn204 Zn 0.41306 0.81973 0.47718 0.0
C205 C 0.42703 0.68187 0.50735 0.0
N206 N 0.39298 0.73249 0.51404 0.0
C207 C 0.38576 0.78435 0.50519 0.0
N208 N 0.4153 0.76659 0.49352 0.0
N209 N 0.44105 0.70119 0.49497 0.0
C210 C 0.45205 0.50146 0.47246 0.0
O211 O 0.47607 0.52617 0.46131 0.0
O212 O 0.41201 0.92667 0.48017 0.0
Zn213 Zn 0.49479 0.64083 0.48304 0.0
N214 N 0.32523 0.79926 0.46801 0.0
C215 C 0.27067 0.77262 0.44776 0.0
C216 C 0.33134 0.78511 0.45507 0.0
C217 C 0.26004 0.80295 0.47393 0.0
N218 N 0.20594 0.77552 0.45364 0.0
C219 C 0.19794 0.79059 0.46655 0.0
O220 O 0.50944 0.6792 0.46464 0.0
C221 C 0.51348 0.73874 0.45872 0.0
O222 O 0.49257 0.79648 0.46407 0.0
H223 H 0.38275 0.78463 0.45032 0.0
H224 H 0.25739 0.81671 0.48413 0.0
C225 C 0.64678 0.66127 0.48862 0.0
C226 C 0.71232 0.63922 0.49394 0.0
C227 C 0.65486 0.54005 0.50364 0.0
C228 C 0.59081 0.56063 0.49804 0.0
N229 N 0.58743 0.62099 0.49075 0.0
N230 N 0.7141 0.5792 0.50134 0.0
H231 H 0.64352 0.70776 0.48243 0.0
C232 C 0.4656 0.96579 0.4776 0.0
O233 O 0.52509 0.93568 0.47357 0.0
O234 O 0.44927 0.54258 0.48228 0.0
H235 H 0.54418 0.52808 0.49947 0.0
H236 H 0.27481 0.7611 0.43747 0.0
H237 H 0.658 0.49238 0.5095 0.0
Zn238 Zn 0.4246 0.23269 0.7396 0.0
C239 C 0.51895 0.40013 0.75701 0.0
N240 N 0.45399 0.4055 0.76255 0.0
C241 C 0.41586 0.35572 0.75654 0.0
N242 N 0.45505 0.32094 0.74755 0.0
N243 N 0.5202 0.34909 0.74758 0.0
C244 C 0.73019 0.23937 0.73454 0.0
O245 O 0.70564 0.22152 0.72305 0.0
O246 O 0.31448 0.2185 0.74198 0.0
Zn247 Zn 0.59697 0.32358 0.73482 0.0
N248 N 0.47589 0.15721 0.74843 0.0
C249 C 0.5556 0.12194 0.7652 0.0
C250 C 0.51797 0.1747 0.75868 0.0
C251 C 0.47106 0.08874 0.74426 0.0
N252 N 0.55095 0.05379 0.76104 0.0
C253 C 0.51009 0.0352 0.75067 0.0
O254 O 0.55894 0.2722 0.71875 0.0
C255 C 0.50484 0.24224 0.71366 0.0
O256 O 0.44875 0.22877 0.72032 0.0
H257 H 0.52228 0.2291 0.7619 0.0
H258 H 0.43699 0.07666 0.7361 0.0
C259 C 0.60154 0.47566 0.72944 0.0
C260 C 0.63065 0.53719 0.72374 0.0
C261 C 0.71648 0.46573 0.71277 0.0
C262 C 0.68787 0.40513 0.71856 0.0
N263 N 0.63159 0.41117 0.72691 0.0
N264 N 0.68772 0.5302 0.71557 0.0
H265 H 0.55684 0.47915 0.73608 0.0
C266 C 0.26959 0.26459 0.73792 0.0
O267 O 0.29413 0.3215 0.73197 0.0
O268 O 0.68945 0.27519 0.74213 0.0
H269 H 0.71053 0.35366 0.71642 0.0
H270 H 0.58878 0.13507 0.77343 0.0
H271 H 0.76155 0.46169 0.70618 0.0
C272 C 0.18422 0.74557 0.19077 0.0
C273 C 0.11931 0.74669 0.1977 0.0
C274 C 0.18603 0.73824 0.17713 0.0
C275 C 0.12135 0.73308 0.17014 0.0
C276 C 0.05569 0.73296 0.17709 0.0
C277 C 0.05548 0.73914 0.19077 0.0
C278 C 0.25727 0.73715 0.17019 0.0
C279 C 0.98542 0.72837 0.17004 0.0
C280 C 0.11955 0.78841 0.13432 0.0
C281 C 0.11712 0.72249 0.12793 0.0
C282 C 0.12148 0.79259 0.14801 0.0
C283 C 0.12223 0.72936 0.15555 0.0
C284 C 0.12237 0.66269 0.14914 0.0
C285 C 0.11922 0.66006 0.13545 0.0
C286 C 0.12049 0.8648 0.15442 0.0
C287 C 0.12458 0.59397 0.15674 0.0
H288 H 0.23394 0.75106 0.196 0.0
H289 H 1.00502 0.74047 0.19598 0.0
H290 H 0.26166 0.68906 0.16398 0.0
H291 H 0.26178 0.78407 0.16368 0.0
H292 H 0.30278 0.73771 0.17706 0.0
H293 H 0.93907 0.72788 0.17684 0.0
H294 H 0.97981 0.77439 0.16335 0.0
H295 H 0.98383 0.67951 0.16401 0.0
H296 H 0.11732 0.83699 0.12865 0.0
H297 H 0.11757 0.60879 0.13064 0.0
H298 H 0.16728 0.87061 0.16089 0.0
H299 H 0.07198 0.87011 0.1606 0.0
H300 H 0.12107 0.9089 0.14722 0.0
H301 H 0.17078 0.59394 0.16344 0.0
H302 H 0.12856 0.54666 0.1503 0.0
H303 H 0.07567 0.589 0.1628 0.0
C304 C 0.61445 0.74699 0.38167 0.0
C305 C 0.55056 0.75755 0.37483 0.0
C306 C 0.61491 0.74168 0.39536 0.0
C307 C 0.54987 0.74596 0.40245 0.0
C308 C 0.48506 0.75449 0.39557 0.0
C309 C 0.48624 0.76068 0.38192 0.0
C310 C 0.68526 0.73343 0.40228 0.0
C311 C 0.41432 0.7582 0.40267 0.0
C312 C 0.53479 0.6766 0.43732 0.0
C313 C 0.53312 0.73991 0.44459 0.0
C314 C 0.54226 0.67757 0.42367 0.0
C315 C 0.54921 0.74336 0.41705 0.0
C316 C 0.55115 0.80718 0.42438 0.0
C317 C 0.54267 0.80475 0.438 0.0
C318 C 0.5393 0.60827 0.41628 0.0
C319 C 0.55956 0.87846 0.41777 0.0
H320 H 0.66453 0.74496 0.37634 0.0
H321 H 0.43649 0.7685 0.37678 0.0
H322 H 0.69434 0.78007 0.40866 0.0
H323 H 0.68418 0.68565 0.40861 0.0
H324 H 0.73093 0.72866 0.39538 0.0
H325 H 0.36848 0.76164 0.3959 0.0
H326 H 0.40737 0.71055 0.40893 0.0
H327 H 0.41315 0.80541 0.40914 0.0
H328 H 0.52714 0.62615 0.44223 0.0
H329 H 0.54169 0.85404 0.44347 0.0
H330 H 0.58567 0.60362 0.40957 0.0
H331 H 0.49044 0.60704 0.41024 0.0
H332 H 0.53877 0.56138 0.42287 0.0
H333 H 0.60641 0.8777 0.41112 0.0
H334 H 0.56624 0.92246 0.42487 0.0
H335 H 0.51182 0.88981 0.41178 0.0
C336 C 0.49932 0.2805 0.63652 0.0
C337 C 0.49405 0.21641 0.62957 0.0
C338 C 0.5044 0.28115 0.65018 0.0
C339 C 0.50573 0.2161 0.65715 0.0
C340 C 0.50374 0.15113 0.65017 0.0
C341 C 0.49716 0.15204 0.6365 0.0
C342 C 0.50542 0.35173 0.65718 0.0
C343 C 0.50676 0.08058 0.65716 0.0
C344 C 0.57001 0.22779 0.69231 0.0
C345 C 0.50543 0.22887 0.69934 0.0
C346 C 0.5711 0.22093 0.67865 0.0
C347 C 0.50601 0.21654 0.67176 0.0
C348 C 0.44072 0.21622 0.67882 0.0
C349 C 0.44125 0.22164 0.69249 0.0
C350 C 0.64195 0.21991 0.67158 0.0
C351 C 0.37001 0.21277 0.67189 0.0
H352 H 0.49642 0.33061 0.63133 0.0
H353 H 0.49337 0.10219 0.63126 0.0
H354 H 0.45768 0.35628 0.66358 0.0
H355 H 0.55303 0.35522 0.6635 0.0
H356 H 0.5059 0.39756 0.65035 0.0
H357 H 0.5109 0.03506 0.65031 0.0
H358 H 0.55311 0.07912 0.66382 0.0
H359 H 0.45801 0.07367 0.66321 0.0
H360 H 0.61996 0.23292 0.69748 0.0
H361 H 0.39104 0.22286 0.69778 0.0
H362 H 0.64726 0.26836 0.66549 0.0
H363 H 0.64496 0.17341 0.66495 0.0
H364 H 0.68774 0.21768 0.67839 0.0
H365 H 0.36398 0.25995 0.66549 0.0
H366 H 0.32408 0.21109 0.67877 0.0
H367 H 0.36804 0.165 0.66558 0.0
C368 C 0.93129 0.27592 0.93822 0.0
C369 C 0.92843 0.21294 0.94558 0.0
C370 C 0.92955 0.27459 0.92454 0.0
C371 C 0.92409 0.20872 0.91793 0.0
C372 C 0.91852 0.14512 0.92528 0.0
C373 C 0.92096 0.14793 0.93898 0.0
C374 C 0.9358 0.34374 0.91713 0.0
C375 C 0.91171 0.07386 0.91865 0.0
C376 C 0.86444 0.22091 0.88256 0.0
C377 C 0.92964 0.21774 0.87573 0.0
C378 C 0.86158 0.21518 0.89621 0.0
C379 C 0.92552 0.20687 0.90333 0.0
C380 C 0.9913 0.20122 0.89649 0.0
C381 C 0.99254 0.20628 0.88279 0.0
C382 C 0.7902 0.22044 0.90305 0.0
C383 C 0.06081 0.19277 0.90368 0.0
H384 H 0.93742 0.3265 0.94314 0.0
H385 H 0.9188 0.09886 0.94451 0.0
H386 H 0.98468 0.34296 0.91098 0.0
H387 H 0.88964 0.35033 0.91053 0.0
H388 H 0.9382 0.3906 0.92369 0.0
H389 H 0.90384 0.02978 0.92572 0.0
H390 H 0.86612 0.07456 0.91182 0.0
H391 H 0.96053 0.06275 0.91283 0.0
H392 H 0.81535 0.22929 0.87725 0.0
H393 H 0.04322 0.20401 0.87766 0.0
H394 H 0.78788 0.27004 0.90888 0.0
H395 H 0.78318 0.17527 0.90989 0.0
H396 H 0.74499 0.22073 0.8961 0.0
H397 H 0.07072 0.24081 0.90966 0.0
H398 H 0.10686 0.18497 0.89696 0.0
H399 H 0.0579 0.14677 0.91042 0.0
C400 C 0.03332 0.41124 1.01275 0.0
C401 C 1.00798 0.34225 1.0147 0.0
C402 C 0.0132 0.46632 1.02126 0.0
C403 C 0.97146 0.45032 1.03247 0.0
C404 C 0.94468 0.38071 1.03428 0.0
C405 C 0.96248 0.3278 1.02524 0.0
C406 C 0.03883 0.54098 1.01853 0.0
C407 C 0.89976 0.36088 0.04599 0.0
C408 C 0.01919 0.56735 0.06101 0.0
C409 C 0.95929 0.61139 0.06213 0.0
C410 C 0.02173 0.51202 0.05192 0.0
C411 C 0.96468 0.50351 0.04309 0.0
C412 C 0.90354 0.54748 0.04419 0.0
C413 C 0.90112 0.60025 0.05387 0.0
C414 C 0.08769 0.46574 0.05127 0.0
C415 C 0.84279 0.54179 1.03468 0.0
H416 H 0.07085 0.42152 1.00494 0.0
H417 H 0.94372 0.27386 1.02677 0.0
H418 H 0.99405 0.57932 1.01961 0.0
H419 H 0.08029 0.5561 1.02566 0.0
H420 H 0.06184 0.54629 1.00859 0.0
H421 H 0.89832 0.30241 0.04755 0.0
H422 H 0.91978 0.38643 0.05499 0.0
H423 H 0.84422 0.37925 0.04446 0.0
H424 H 0.06682 0.57994 0.06642 0.0
H425 H 0.85599 0.63637 0.05436 0.0
H426 H 0.12018 0.48033 0.04262 0.0
H427 H 0.07283 0.40892 0.05029 0.0
H428 H 0.12155 0.47191 0.06004 0.0
H429 H 0.86348 0.54129 1.02452 0.0
H430 H 0.80408 0.58628 1.03572 0.0
H431 H 0.81389 0.49118 1.03629 0.0
C432 C 0.69789 0.79649 0.30245 0.0
C433 C 0.70321 0.85373 0.3111 0.0
C434 C 0.75106 0.78388 0.29306 0.0
C435 C 0.81084 0.8295 0.29243 0.0
C436 C 0.81916 0.88365 0.30189 0.0
C437 C 0.76428 0.89615 0.31094 0.0
C438 C 0.74011 0.72594 0.28313 0.0
C439 C 0.88361 0.9317 0.30189 0.0
C440 C 0.97941 0.79727 0.27298 0.0
C441 C 0.97087 0.84607 0.26279 0.0
C442 C 0.92497 0.78642 0.28219 0.0
C443 C 0.86116 0.82614 0.28121 0.0
C444 C 0.85004 0.87088 0.27028 0.0
C445 C 0.90579 0.88133 0.2613 0.0
C446 C 0.93848 0.73762 0.29359 0.0
C447 C 0.78159 0.91228 0.26864 0.0
H448 H 0.64951 0.76531 0.30227 0.0
H449 H 0.76745 0.94124 0.31749 0.0
H450 H 0.72633 0.75055 0.27366 0.0
H451 H 0.78982 0.69481 0.28163 0.0
H452 H 0.69642 0.68913 0.28599 0.0
H453 H 0.88502 0.96651 0.31062 0.0
H454 H 0.93337 0.89966 0.30159 0.0
H455 H 0.88303 0.96582 0.29307 0.0
H456 H 0.03064 0.77183 0.27438 0.0
H457 H 0.89998 0.92009 0.25356 0.0
H458 H 0.89024 0.70619 0.29605 0.0
H459 H 0.9518 0.77006 0.30225 0.0
H460 H 0.98338 0.70042 0.29161 0.0
H461 H 0.73468 0.8774 0.27023 0.0
H462 H 0.7776 0.9365 0.2588 0.0
H463 H 0.77906 0.95538 0.276 0.0
C464 C 0.52779 0.33733 0.5492 0.0
C465 C 0.47436 0.33365 0.55874 0.0
C466 C 0.53063 0.39457 0.54048 0.0
C467 C 0.47865 0.44901 0.54143 0.0
C468 C 0.42703 0.44735 0.55157 0.0
C469 C 0.42515 0.38908 0.56006 0.0
C470 C 0.58702 0.39473 0.52992 0.0
C471 C 0.3706 0.5044 0.55289 0.0
C472 C 0.50195 0.62405 0.52377 0.0
C473 C 0.45163 0.61745 0.51385 0.0
C474 C 0.51377 0.5684 0.53257 0.0
C475 C 0.4742 0.50486 0.53129 0.0
C476 C 0.42571 0.49684 0.52084 0.0
C477 C 0.41416 0.55397 0.51233 0.0
C478 C 0.56658 0.57895 0.54344 0.0
C479 C 0.38266 0.42974 0.51908 0.0
H480 H 0.56483 0.2933 0.5481 0.0
H481 H 0.38194 0.38431 0.56707 0.0
H482 H 0.56448 0.41177 0.52045 0.0
H483 H 0.62945 0.43302 0.53255 0.0
H484 H 0.61207 0.34156 0.52866 0.0
H485 H 0.34253 0.5018 0.56244 0.0
H486 H 0.39436 0.55797 0.55168 0.0
H487 H 0.33022 0.49778 0.54516 0.0
H488 H 0.52972 0.67414 0.525 0.0
H489 H 0.37343 0.55024 0.50492 0.0
H490 H 0.61735 0.55195 0.54083 0.0
H491 H 0.54702 0.55556 0.55272 0.0
H492 H 0.57828 0.63615 0.54507 0.0
H493 H 0.41506 0.38183 0.52126 0.0
H494 H 0.36133 0.4253 0.50905 0.0
H495 H 0.33664 0.43019 0.52591 0.0
C496 C 0.84328 0.47718 0.806 0.0
C497 C 0.84717 0.40937 0.81162 0.0
C498 C 0.79175 0.49301 0.79656 0.0
C499 C 0.74386 0.43919 0.7926 0.0
C500 C 0.74591 0.3715 0.7987 0.0
C501 C 0.79787 0.35741 0.80808 0.0
C502 C 0.79253 0.56543 0.79022 0.0
C503 C 0.69649 0.31217 0.79465 0.0
C504 C 0.56846 0.46587 0.77585 0.0
C505 C 0.58128 0.43066 0.76395 0.0
C506 C 0.62259 0.47474 0.785 0.0
C507 C 0.69216 0.45139 0.78193 0.0
C508 C 0.70786 0.42711 0.76917 0.0
C509 C 0.6518 0.41563 0.76038 0.0
C510 C 0.60352 0.50169 0.79843 0.0
C511 C 0.78314 0.40853 0.7652 0.0
H512 H 0.88322 0.51656 0.80845 0.0
H513 H 0.804 0.30374 0.81174 0.0
H514 H 0.82418 0.56249 0.78107 0.0
H515 H 0.73803 0.58364 0.78769 0.0
H516 H 0.81762 0.60579 0.79662 0.0
H517 H 0.70103 0.26483 0.80107 0.0
H518 H 0.6403 0.33082 0.79478 0.0
H519 H 0.70943 0.29557 0.78454 0.0
H520 H 0.5146 0.48074 0.77864 0.0
H521 H 0.66301 0.39198 0.75108 0.0
H522 H 0.64333 0.54104 0.80181 0.0
H523 H 0.60408 0.45653 0.8054 0.0
H524 H 0.54975 0.52664 0.79875 0.0
H525 H 0.81903 0.454 0.76721 0.0
H526 H 0.7874 0.39471 0.75471 0.0
H527 H 0.8022 0.36303 0.77109 0.0
C528 C 0.07454 0.27027 0.80078 0.0
C529 C 0.08225 0.31905 0.81098 0.0
C530 C 0.1293 0.25996 0.79161 0.0
C531 C 0.19264 0.30014 0.79263 0.0
C532 C 0.20296 0.34486 0.80357 0.0
C533 C 0.14687 0.35482 0.81251 0.0
C534 C 0.11657 0.21127 0.78019 0.0
C535 C 0.27089 0.38673 0.80527 0.0
C536 C 0.35671 0.27134 0.77152 0.0
C537 C 0.3511 0.32854 0.76284 0.0
C538 C 0.30346 0.25853 0.78088 0.0
C539 C 0.24327 0.30388 0.78146 0.0
C540 C 0.23475 0.35806 0.77198 0.0
C541 C 0.28972 0.37079 0.76297 0.0
C542 C 0.31465 0.20061 0.79083 0.0
C543 C 0.16988 0.4058 0.77192 0.0
H544 H 0.02364 0.24448 0.79933 0.0
H545 H 0.15204 0.3936 0.82025 0.0
H546 H 0.10321 0.2438 0.77153 0.0
H547 H 0.16517 0.18013 0.77776 0.0
H548 H 0.07195 0.17381 0.7821 0.0
H549 H 0.27439 0.41082 0.81512 0.0
H550 H 0.31823 0.35223 0.8037 0.0
H551 H 0.27307 0.42998 0.79792 0.0
H552 H 0.40531 0.2403 0.77172 0.0
H553 H 0.2863 0.41585 0.7564 0.0
H554 H 0.26537 0.1688 0.79217 0.0
H555 H 0.32715 0.22527 0.80034 0.0
H556 H 0.35921 0.16442 0.78809 0.0
H557 H 0.1204 0.37352 0.77219 0.0
H558 H 0.16838 0.44064 0.76319 0.0
H559 H 0.16993 0.43988 0.78074 0.0
C560 C 0.48475 0.98922 0.29778 0.0
C561 C 0.47211 0.95438 0.30973 0.0
C562 C 0.4306 0.99775 0.28861 0.0
C563 C 0.36112 0.97445 0.2917 0.0
C564 C 0.34558 0.95018 0.30447 0.0
C565 C 0.40169 0.93905 0.31328 0.0
C566 C 0.44947 0.02471 0.27516 0.0
C567 C 0.27041 0.93153 0.30845 0.0
C568 C 0.21007 1.00267 0.26766 0.0
C569 C 0.20578 0.93518 0.26194 0.0
C570 C 0.26159 0.01752 0.27714 0.0
C571 C 0.30914 0.96305 0.28104 0.0
C572 C 0.30671 0.89568 0.27486 0.0
C573 C 0.25472 0.88254 0.26545 0.0
C574 C 0.26112 0.08962 0.28358 0.0
C575 C 0.35576 0.83568 0.27884 0.0
H576 H 0.5385 1.00426 0.29499 0.0
H577 H 0.39061 0.91559 0.3226 0.0
H578 H 0.44719 0.97996 0.26813 0.0
H579 H 0.41041 0.06536 0.27194 0.0
H580 H 0.50382 0.04811 0.27474 0.0
H581 H 0.26619 0.91802 0.31896 0.0
H582 H 0.2342 0.97683 0.30637 0.0
H583 H 0.25169 0.88579 0.30261 0.0
H584 H 0.17035 0.04256 0.26526 0.0
H585 H 0.24829 0.8291 0.26172 0.0
H586 H 0.31571 0.10735 0.28609 0.0
H587 H 0.22973 0.08638 0.29276 0.0
H588 H 0.23594 0.13048 0.27727 0.0
H589 H 0.41202 0.85386 0.27883 0.0
H590 H 0.35128 0.78885 0.27231 0.0
H591 H 0.34236 0.81846 0.2889 0.0
C592 C 0.40857 0.03384 0.56116 0.0
C593 C 0.37523 0.10037 0.56112 0.0
C594 C 0.3926 0.98312 0.55155 0.0
C595 C 0.34528 1.00134 0.54131 0.0
C596 C 0.30673 0.0659 0.54197 0.0
C597 C 0.32095 0.11377 0.55208 0.0
C598 C 0.43152 0.9128 0.55168 0.0
C599 C 0.25711 0.08866 0.53121 0.0
C600 C 0.40581 0.91135 0.51012 0.0
C601 C 0.35874 0.85388 0.50955 0.0
C602 C 0.39734 0.96429 0.51967 0.0
C603 C 0.34306 0.95696 0.52929 0.0
C604 C 0.29162 0.90262 0.52799 0.0
C605 C 0.29914 0.85286 0.5179 0.0
C606 C 0.45071 0.02418 0.5202 0.0
C607 C 0.23375 0.89149 0.53808 0.0
H608 H 0.45203 0.02407 0.56784 0.0
H609 H 0.29607 0.16594 0.55191 0.0
H610 H 0.39484 0.86874 0.54914 0.0
H611 H 0.475 0.91372 0.5443 0.0
H612 H 0.45535 0.90154 0.56135 0.0
H613 H 0.22158 0.13295 0.53433 0.0
H614 H 0.28937 0.10709 0.52276 0.0
H615 H 0.22372 0.04379 0.52784 0.0
H616 H 0.4536 0.91089 0.50414 0.0
H617 H 0.26338 0.80756 0.51762 0.0
H618 H 0.48932 0.01391 0.52812 0.0
H619 H 0.42353 0.07541 0.52233 0.0
H620 H 0.48087 0.02952 0.51089 0.0
H621 H 0.25734 0.86563 0.54677 0.0
H622 H 0.19048 0.85678 0.53438 0.0
H623 H 0.21014 0.9427 0.54129 0.0
C624 C 0.01302 0.91527 0.06137 0.0
C625 C 0.03599 0.84496 0.05997 0.0
C626 C 0.03226 0.96706 0.0521 0.0
C627 C 0.07279 0.94691 0.04095 0.0
C628 C 0.09909 0.8766 0.03991 0.0
C629 C 0.0803 0.82663 0.04944 0.0
C630 C 1.00648 0.04252 0.05392 0.0
C631 C 0.14521 0.85287 1.0286 0.0
C632 C 0.0279 0.05717 1.01115 0.0
C633 C 0.08541 0.10438 1.01063 0.0
C634 C 0.02541 1.00273 1.0205 0.0
C635 C 0.08067 0.99708 1.02981 0.0
C636 C 0.14108 0.04168 1.02878 0.0
C637 C 0.14307 0.0943 1.01908 0.0
C638 C 0.96053 0.95534 1.02104 0.0
C639 C 0.20099 0.03734 0.0385 0.0
H640 H 0.97756 0.929 0.06936 0.0
H641 H 0.09672 0.77177 0.04819 0.0
H642 H 0.05097 0.08047 0.05229 0.0
H643 H 0.9646 0.05465 0.04666 0.0
H644 H 0.984 0.05153 0.06382 0.0
H645 H 0.14227 0.79442 1.02713 0.0
H646 H 0.13036 0.87974 1.01939 0.0
H647 H 0.20157 0.86628 1.03069 0.0
H648 H 0.98165 0.06688 1.00511 0.0
H649 H 0.18673 0.13208 1.01889 0.0
H650 H 0.92381 0.97464 1.02879 0.0
H651 H 0.97549 0.89978 1.02344 0.0
H652 H 0.93124 0.95554 1.01167 0.0
H653 H 0.17944 0.04202 0.04855 0.0
H654 H 0.2416 0.07953 0.03695 0.0
H655 H 0.22766 0.98483 0.03773 0.0
C656 C 0.45056 0.72415 0.07134 0.0
C657 C 0.39552 0.7376 0.08034 0.0
C658 C 0.52115 0.71546 0.0754 0.0
C659 C 0.53727 0.72119 0.08878 0.0
C660 C 0.4833 0.74112 0.09777 0.0
C661 C 0.41275 0.74852 0.09346 0.0
C662 C 0.57713 0.69399 0.0655 0.0
C663 C 0.49887 0.74902 0.11209 0.0
C664 C 0.6816 0.59647 0.1005 0.0
C665 C 0.74126 0.64106 0.10077 0.0
C666 C 0.61477 0.62242 0.09679 0.0
C667 C 0.60717 0.69518 0.09351 0.0
C668 C 0.66675 0.74113 0.09413 0.0
C669 C 0.73347 0.71334 0.09767 0.0
C670 C 0.55267 0.57142 0.09608 0.0
C671 C 0.66006 0.81925 0.09096 0.0
H672 H 0.43794 0.71674 0.06114 0.0
H673 H 0.37095 0.75823 0.10057 0.0
H674 H 0.6264 0.72575 0.06673 0.0
H675 H 0.59154 0.63729 0.06699 0.0
H676 H 0.55811 0.70056 0.05534 0.0
H677 H 0.45533 0.77761 0.1173 0.0
H678 H 0.50478 0.69556 0.11654 0.0
H679 H 0.54965 0.77803 0.11358 0.0
H680 H 0.6876 0.54057 0.10287 0.0
H681 H 0.77929 0.7483 0.09814 0.0
H682 H 0.53223 0.5694 0.08597 0.0
H683 H 0.50836 0.59015 0.10242 0.0
H684 H 0.56753 0.51664 0.0991 0.0
H685 H 0.64508 0.82602 0.0806 0.0
H686 H 0.71049 0.8486 0.09269 0.0
H687 H 0.61697 0.84365 0.09693 0.0
C688 C 0.40211 0.19211 0.34622 0.0
C689 C 0.44991 0.13477 0.34673 0.0
C690 C 0.42544 0.26052 0.34292 0.0
C691 C 0.49861 0.27216 0.3402 0.0
C692 C 0.54762 0.215 0.34102 0.0
C693 C 0.52268 0.14681 0.34426 0.0
C694 C 0.37134 0.32002 0.34205 0.0
C695 C 0.62614 0.22575 0.33832 0.0
C696 C 0.53108 0.43183 0.31861 0.0
C697 C 0.54485 0.48533 0.32776 0.0
C698 C 0.51977 0.3613 0.32247 0.0
C699 C 0.52241 0.34366 0.33585 0.0
C700 C 0.5403 0.3964 0.34509 0.0
C701 C 0.55101 0.46681 0.34095 0.0
C702 C 0.50082 0.30658 0.31231 0.0
C703 C 0.54397 0.37939 0.35943 0.0
H704 H 0.34583 0.18317 0.34808 0.0
H705 H 0.56032 0.10321 0.34496 0.0
H706 H 0.38704 0.36472 0.34845 0.0
H707 H 0.36969 0.34077 0.33194 0.0
H708 H 0.3168 0.30253 0.34487 0.0
H709 H 0.65778 0.1766 0.34 0.0
H710 H 0.6341 0.24279 0.32807 0.0
H711 H 0.64727 0.26868 0.3446 0.0
H712 H 0.5269 0.44552 0.30838 0.0
H713 H 0.56044 0.50766 0.34816 0.0
H714 H 0.44445 0.29 0.31366 0.0
H715 H 0.53447 0.25838 0.3134 0.0
H716 H 0.50745 0.32732 0.30224 0.0
H717 H 0.48936 0.36956 0.36326 0.0
H718 H 0.56798 0.42345 0.36511 0.0
H719 H 0.57559 0.33029 0.36107 0.0
C720 C 0.75903 0.20753 0.58511 0.0
C721 C 0.76063 0.28189 0.58365 0.0
C722 C 0.82195 0.16887 0.58752 0.0
C723 C 0.88762 0.2055 0.58836 0.0
C724 C 0.88967 0.28009 0.58643 0.0
C725 C 0.82636 0.31708 0.58411 0.0
C726 C 0.81813 0.08924 0.58922 0.0
C727 C 0.95855 0.32166 0.58726 0.0
C728 C 0.047 0.16855 0.60862 0.0
C729 C 0.09892 0.16174 0.59885 0.0
C730 C 0.97454 0.17159 0.60549 0.0
C731 C 0.95433 0.1688 0.59225 0.0
C732 C 1.00568 0.15056 0.58263 0.0
C733 C 0.07801 0.14729 0.58606 0.0
C734 C 0.92139 0.18911 0.61612 0.0
C735 C 0.98596 0.14502 0.56846 0.0
H736 H 0.70892 0.17933 0.58435 0.0
H737 H 0.82833 0.37438 0.58299 0.0
H738 H 0.84649 0.06285 0.58103 0.0
H739 H 0.84516 0.07277 0.59832 0.0
H740 H 0.76224 0.06967 0.5895 0.0
H741 H 0.95099 0.37907 0.58509 0.0
H742 H 0.98111 0.31675 0.59718 0.0
H743 H 0.99847 0.29995 0.5803 0.0
H744 H 0.06342 0.17863 0.61855 0.0
H745 H 0.11822 0.14169 0.57849 0.0
H746 H 0.86996 0.16152 0.61451 0.0
H747 H 0.91079 0.24722 0.61608 0.0
H748 H 0.9419 0.17427 0.62588 0.0
H749 H 0.93255 0.12067 0.56729 0.0
H750 H 0.02587 0.1132 0.56292 0.0
H751 H 0.98413 0.19915 0.56415 0.0
C752 C 0.94553 0.93325 0.84108 0.0
C753 C 0.93794 0.95182 0.82791 0.0
C754 C 0.93534 0.86288 0.84525 0.0
C755 C 0.91604 0.81027 0.83609 0.0
C756 C 0.91186 0.82783 0.82273 0.0
C757 C 0.92313 0.89828 0.81881 0.0
C758 C 0.94098 0.84582 0.85957 0.0
C759 C 0.89111 0.7732 0.81266 0.0
C760 C 0.91571 0.61397 0.8448 0.0
C761 C 0.84342 0.60307 0.84783 0.0
C762 C 0.94073 0.68158 0.84122 0.0
C763 C 0.89214 0.73915 0.84057 0.0
C764 C 0.81936 0.72852 0.84377 0.0
C765 C 0.79604 0.66071 0.84745 0.0
C766 C 0.01887 0.69137 0.83806 0.0
C767 C 0.7657 0.78848 0.84305 0.0
H768 H 0.9557 0.97391 0.84828 0.0
H769 H 0.91787 0.91186 0.8086 0.0
H770 H 0.88686 0.83664 0.86367 0.0
H771 H 0.97231 0.79638 0.86106 0.0
H772 H 0.96636 0.88961 0.86512 0.0
H773 H 0.89675 0.79378 0.80257 0.0
H774 H 0.92433 0.72463 0.81364 0.0
H775 H 0.83474 0.75725 0.81425 0.0
H776 H 0.95293 0.56991 0.84536 0.0
H777 H 0.74012 0.65243 0.84975 0.0
H778 H 0.04163 0.73388 0.84425 0.0
H779 H 0.0253 0.70855 0.82778 0.0
H780 H 0.05017 0.64179 0.83953 0.0
H781 H 0.78239 0.833 0.84941 0.0
H782 H 0.71127 0.77147 0.84604 0.0
H783 H 0.76332 0.80929 0.83295 0.0
C784 C 0.38119 0.14814 0.96279 0.0
C785 C 0.32319 0.15899 0.97132 0.0
C786 C 0.45151 0.16043 0.96672 0.0
C787 C 0.46472 0.18305 0.97959 0.0
C788 C 0.40734 0.18882 0.98857 0.0
C789 C 0.33716 0.17754 0.98431 0.0
C790 C 0.511 0.15445 0.95678 0.0
C791 C 0.41954 0.21155 1.00247 0.0
C792 C 0.65757 0.19503 0.99094 0.0
C793 C 0.67016 0.26797 0.98951 0.0
C794 C 0.59054 0.16613 0.98786 0.0
C795 C 0.5362 0.2113 0.98299 0.0
C796 C 0.54995 0.28468 0.9812 0.0
C797 C 0.61645 0.31215 0.98464 0.0
C798 C 0.57717 0.088 0.99014 0.0
C799 C 0.49424 0.33447 0.97573 0.0
H800 H 0.37164 0.13263 0.9528 0.0
H801 H 0.29368 0.18685 0.99107 0.0
H802 H 0.53042 0.20847 0.95424 0.0
H803 H 0.55681 0.12444 0.96081 0.0
H804 H 0.49334 0.12786 0.9477 0.0
H805 H 0.3721 0.20144 1.00874 0.0
H806 H 0.4661 0.1832 1.00663 0.0
H807 H 0.43139 0.26932 1.00273 0.0
H808 H 0.69914 0.1613 0.99489 0.0
H809 H 0.62664 0.36863 0.98355 0.0
H810 H 0.55862 0.06235 0.98106 0.0
H811 H 0.53415 0.08141 0.99752 0.0
H812 H 0.62562 0.05973 0.99359 0.0
H813 H 0.47587 0.31483 0.96614 0.0
H814 H 0.51463 0.38951 0.97449 0.0
H815 H 0.44708 0.33617 0.98231 0.0
C816 C 0.25365 0.18793 0.22593 0.0
C817 C 0.20659 0.13023 0.22555 0.0
C818 C 0.22996 0.25569 0.22959 0.0
C819 C 0.1571 0.26623 0.23277 0.0
C820 C 0.10881 0.20862 0.23211 0.0
C821 C 0.13421 0.14104 0.22856 0.0
C822 C 0.28331 0.31569 0.23031 0.0
C823 C 0.03059 0.21833 0.23525 0.0
C824 C 0.12635 0.42512 0.25456 0.0
C825 C 0.11183 0.47892 0.24547 0.0
C826 C 0.1372 0.35462 0.25063 0.0
C827 C 0.13291 0.33728 0.23727 0.0
C828 C 0.11365 0.39014 0.22813 0.0
C829 C 0.10385 0.46056 0.23231 0.0
C830 C 0.15788 0.29973 0.26069 0.0
C831 C 0.10783 0.37332 0.2138 0.0
H832 H 0.30964 0.17972 0.22365 0.0
H833 H 0.09724 0.09693 0.228 0.0
H834 H 0.26642 0.36026 0.22395 0.0
H835 H 0.28558 0.3364 0.24042 0.0
H836 H 0.33784 0.29876 0.22733 0.0
H837 H 0.99953 0.16879 0.23375 0.0
H838 H 0.02399 0.23524 0.24554 0.0
H839 H 1.00771 0.26101 0.22908 0.0
H840 H 0.13184 0.43856 0.26477 0.0
H841 H 0.09382 0.50141 0.22512 0.0
H842 H 0.21433 0.28375 0.25913 0.0
H843 H 0.12481 0.25123 0.25967 0.0
H844 H 0.152 0.32011 0.27079 0.0
H845 H 0.16194 0.36433 0.20967 0.0
H846 H 0.0821 0.41718 0.20829 0.0
H847 H 0.07677 0.32385 0.21232 0.0
C848 C 0.06599 0.79474 0.46358 0.0
C849 C 0.12421 0.79132 0.47212 0.0
C850 C 0.99612 0.78272 0.46792 0.0
C851 C 0.98344 0.76844 0.48124 0.0
C852 C 0.04062 0.77193 0.49017 0.0
C853 C 0.11055 0.78238 0.4855 0.0
C854 C 0.93698 0.77873 0.45802 0.0
C855 C 0.02881 0.75931 0.50453 0.0
C856 C 0.78819 0.74865 0.49121 0.0
C857 C 0.78057 0.67454 0.4908 0.0
C858 C 0.8548 0.78046 0.48865 0.0
C859 C 0.91397 0.73701 0.48526 0.0
C860 C 0.90603 0.6622 0.48483 0.0
C861 C 0.83976 0.63201 0.48776 0.0
C862 C 0.86182 0.86023 0.48954 0.0
C863 C 0.96718 0.61382 0.481 0.0
H864 H 0.07514 0.8033 0.45327 0.0
H865 H 0.15415 0.77958 0.49233 0.0
H866 H 0.9206 0.72244 0.45679 0.0
H867 H 0.88945 0.80887 0.46138 0.0
H868 H 0.95378 0.79974 0.44837 0.0
H869 H 0.07425 0.77903 0.5104 0.0
H870 H 0.9791 0.78574 0.50794 0.0
H871 H 0.023 0.70143 0.50635 0.0
H872 H 0.74259 0.78146 0.49376 0.0
H873 H 0.8338 0.57468 0.48741 0.0
H874 H 0.87033 0.88284 0.47968 0.0
H875 H 0.90895 0.87457 0.49547 0.0
H876 H 0.8136 0.88542 0.49389 0.0
H877 H 0.98641 0.62763 0.47107 0.0
H878 H 0.95184 0.55678 0.48109 0.0
H879 H 0.01249 0.62116 0.48775 0.0
C880 C 0.65162 0.66626 0.72732 0.0
C881 C 0.60361 0.60927 0.72692 0.0
C882 C 0.62878 0.73474 0.73073 0.0
C883 C 0.55589 0.74679 0.73369 0.0
C884 C 0.50663 0.69001 0.73296 0.0
C885 C 0.5311 0.62175 0.7296 0.0
C886 C 0.68312 0.79383 0.73149 0.0
C887 C 0.42839 0.70123 0.7359 0.0
C888 C 0.52522 0.90618 0.75543 0.0
C889 C 0.51064 0.95992 0.74634 0.0
C890 C 0.53634 0.8357 0.7515 0.0
C891 C 0.53264 0.81836 0.73813 0.0
C892 C 0.51406 0.87137 0.72896 0.0
C893 C 0.50361 0.94171 0.73316 0.0
C894 C 0.55607 0.78068 0.76159 0.0
C895 C 0.50926 0.85468 0.71462 0.0
H896 H 0.7077 0.65697 0.72529 0.0
H897 H 0.49328 0.57841 0.729 0.0
H898 H 0.66703 0.83879 0.72515 0.0
H899 H 0.68566 0.81434 0.74161 0.0
H900 H 0.73738 0.77603 0.72852 0.0
H901 H 0.39647 0.65234 0.73428 0.0
H902 H 0.42136 0.71809 0.74617 0.0
H903 H 0.40683 0.74445 0.72969 0.0
H904 H 0.5301 0.91962 0.76565 0.0
H905 H 0.49361 0.98272 0.72599 0.0
H906 H 0.61227 0.76375 0.76006 0.0
H907 H 0.5222 0.73273 0.76058 0.0
H908 H 0.5504 0.80127 0.77168 0.0
H909 H 0.56354 0.84455 0.71065 0.0
H910 H 0.48493 0.89902 0.70902 0.0
H911 H 0.47736 0.80584 0.71304 0.0
C912 C 0.15059 0.36077 0.09922 0.0
C913 C 0.10728 0.40483 0.09154 0.0
C914 C 0.14995 0.2863 0.09779 0.0
C915 C 0.10502 0.25437 0.08842 0.0
C916 C 0.0641 0.29873 0.08013 0.0
C917 C 0.06522 0.37316 0.08187 0.0
C918 C 0.19526 0.2415 0.10673 0.0
C919 C 0.0161 0.26864 0.06978 0.0
C920 C 0.13428 0.0563 0.08128 0.0
C921 C 0.08443 0.02434 0.08972 0.0
C922 C 0.14061 0.13101 0.08049 0.0
C923 C 0.0961 0.175 0.0883 0.0
C924 C 0.04408 0.14296 0.09645 0.0
C925 C 0.03903 0.06842 0.09709 0.0
C926 C 0.19456 0.163 0.07125 0.0
C927 C 0.99393 0.18761 0.10462 0.0
H928 H 0.18363 0.38432 0.10668 0.0
H929 H 0.03091 0.40617 0.07593 0.0
H930 H 0.16026 0.21001 0.1133 0.0
H931 H 0.22781 0.2033 0.10097 0.0
H932 H 0.23151 0.27423 0.11278 0.0
H933 H 0.02139 0.30028 0.0607 0.0
H934 H 0.02773 0.21224 0.06743 0.0
H935 H 0.95978 0.2729 0.0731 0.0
H936 H 0.16873 0.02296 0.07535 0.0
H937 H 0.99964 0.04468 0.10351 0.0
H938 H 0.22932 0.20103 0.07648 0.0
H939 H 0.16625 0.19326 0.06356 0.0
H940 H 0.22869 0.12197 0.06654 0.0
H941 H 0.02491 0.22029 0.11157 0.0
H942 H 0.95519 0.1548 0.11022 0.0
H943 H 0.96383 0.22469 0.09827 0.0
C944 C 0.89518 0.71622 0.33018 0.0
C945 C 0.86448 0.78147 0.33388 0.0
C946 C 0.97018 0.70771 0.32928 0.0
C947 C 0.01596 0.76588 0.33203 0.0
C948 C 0.98486 0.83272 0.33503 0.0
C949 C 0.9101 0.83956 0.33596 0.0
C950 C 1.00045 0.63577 0.32581 0.0
C951 C 0.03077 0.89678 0.33779 0.0
C952 C 0.19984 0.73796 0.34711 0.0
C953 C 0.24684 0.75498 0.33685 0.0
C954 C 0.12527 0.73847 0.34547 0.0
C955 C 0.09569 0.75602 0.33321 0.0
C956 C 0.14281 0.76978 0.32261 0.0
C957 C 0.21761 0.7689 0.32454 0.0
C958 C 0.07795 0.72333 0.3571 0.0
C959 C 0.1142 0.78646 0.30926 0.0
H960 H 0.86072 0.67113 0.32838 0.0
H961 H 0.88738 0.89072 0.33855 0.0
H962 H 0.04033 0.64088 0.31785 0.0
H963 H 0.0284 0.61311 0.33436 0.0
H964 H 0.95841 0.5979 0.32273 0.0
H965 H 0.99875 0.94618 0.33897 0.0
H966 H 0.06142 0.88773 0.34686 0.0
H967 H 0.06994 0.90487 0.32978 0.0
H968 H 0.22117 0.72679 0.35668 0.0
H969 H 0.25323 0.78028 0.31647 0.0
H970 H 0.03854 0.6815 0.3547 0.0
H971 H 0.0476 0.77203 0.35975 0.0
H972 H 0.10884 0.70581 0.36573 0.0
H973 H 0.08386 0.74016 0.30562 0.0
H974 H 0.15722 0.79855 0.30212 0.0
H975 H 0.07687 0.8323 0.30973 0.0
C976 C 0.39333 0.57674 0.60916 0.0
C977 C 0.41008 0.53358 0.59843 0.0
C978 C 0.38922 0.6513 0.60797 0.0
C979 C 0.40403 0.68412 0.59582 0.0
C980 C 0.41941 0.64064 0.58487 0.0
C981 C 0.42125 0.56604 0.58628 0.0
C982 C 0.37198 0.6952 0.61988 0.0
C983 C 0.43593 0.67261 0.5717 0.0
C984 C 0.357 0.88128 0.59143 0.0
C985 C 0.42192 0.9145 0.59444 0.0
C986 C 0.3504 0.80646 0.59164 0.0
C987 C 0.41002 0.76364 0.59493 0.0
C988 C 0.47604 0.79694 0.59762 0.0
C989 C 0.4811 0.87154 0.59737 0.0
C990 C 0.27951 0.77317 0.58845 0.0
C991 C 0.54162 0.7536 0.60079 0.0
H992 H 0.38487 0.55219 0.6186 0.0
H993 H 0.43555 0.53339 0.57799 0.0
H994 H 0.4196 0.72637 0.62273 0.0
H995 H 0.32867 0.73367 0.61771 0.0
H996 H 0.35531 0.66178 0.62829 0.0
H997 H 0.46516 0.63463 0.56535 0.0
H998 H 0.3852 0.68702 0.56685 0.0
H999 H 0.4684 0.72164 0.57254 0.0
H1000 H 0.31107 0.91375 0.58903 0.0
H1001 H 0.53177 0.89622 0.5996 0.0
H1002 H 0.26081 0.74023 0.59676 0.0
H1003 H 0.28568 0.73732 0.57994 0.0
H1004 H 0.23802 0.81356 0.5862 0.0
H1005 H 0.53198 0.72165 0.60971 0.0
H1006 H 0.58942 0.78732 0.60234 0.0
H1007 H 0.55321 0.71583 0.59274 0.0
C1008 C 0.5959 0.27069 0.82764 0.0
C1009 C 0.62826 0.23336 0.83791 0.0
C1010 C 0.52094 0.27171 0.82619 0.0
C1011 C 0.47696 0.2354 0.83532 0.0
C1012 C 0.50955 0.19549 0.84537 0.0
C1013 C 0.58435 0.19464 0.84648 0.0
C1014 C 0.48859 0.31379 0.81518 0.0
C1015 C 0.46525 0.15648 0.85541 0.0
C1016 C 0.29017 0.30506 0.84318 0.0
C1017 C 0.24582 0.2549 0.83716 0.0
C1018 C 0.36499 0.30036 0.84231 0.0
C1019 C 0.39718 0.24416 0.83519 0.0
C1020 C 0.35285 0.19437 0.82876 0.0
C1021 C 0.27783 0.20037 0.8298 0.0
C1022 C 0.4097 0.3546 0.84937 0.0
C1023 C 0.38471 0.13372 0.82105 0.0
H1024 H 0.6289 0.30127 0.82101 0.0
H1025 H 0.60831 0.16547 0.85445 0.0
H1026 H 0.52971 0.33569 0.80847 0.0
H1027 H 0.45179 0.2797 0.80953 0.0
H1028 H 0.4566 0.35859 0.81915 0.0
H1029 H 0.49847 0.12381 0.86206 0.0
H1030 H 0.43458 0.19544 0.86133 0.0
H1031 H 0.4261 0.12126 0.85059 0.0
H1032 H 0.26644 0.34784 0.8488 0.0
H1033 H 0.24431 0.1617 0.82498 0.0
H1034 H 0.44758 0.38033 0.8425 0.0
H1035 H 0.44183 0.32777 0.85698 0.0
H1036 H 0.37672 0.39659 0.85408 0.0
H1037 H 0.42516 0.15399 0.81405 0.0
H1038 H 0.34361 0.1036 0.81561 0.0
H1039 H 0.4124 0.09652 0.82772 0.0
C1040 C 0.03855 0.87663 0.98705 0.0
C1041 C 0.03313 0.90756 0.97464 0.0
C1042 C 0.04145 0.80218 0.98858 0.0
C1043 C 0.04002 0.7577 0.97745 0.0
C1044 C 0.03465 0.7887 0.96493 0.0
C1045 C 0.03121 0.86296 0.96369 0.0
C1046 C 0.04708 0.7713 1.0021 0.0
C1047 C 0.03191 0.7433 0.95282 0.0
C1048 C 0.10782 0.56633 0.97835 0.0
C1049 C 0.04389 0.528 0.97939 0.0
C1050 C 0.10763 0.64122 0.97813 0.0
C1051 C 0.04196 0.67861 0.97879 0.0
C1052 C 0.97747 0.64018 0.98008 0.0
C1053 C 0.97924 0.56559 0.98044 0.0
C1054 C 0.1776 0.6804 0.97705 0.0
C1055 C 0.90635 0.6779 0.98092 0.0
H1056 H 0.04066 0.91048 0.99556 0.0
H1057 H 0.02706 0.88606 0.95406 0.0
H1058 H 0.01275 0.72371 1.00327 0.0
H1059 H 0.103 0.75442 1.00381 0.0
H1060 H 0.03176 0.81059 1.00967 0.0
H1061 H 0.0281 0.77562 0.94379 0.0
H1062 H 0.08036 0.70945 0.95216 0.0
H1063 H 0.98518 0.70722 0.95333 0.0
H1064 H 0.15806 0.53787 0.97771 0.0
H1065 H 0.92948 0.53667 0.98136 0.0
H1066 H 0.18264 0.71853 0.98523 0.0
H1067 H 0.17913 0.71171 0.9679 0.0
H1068 H 0.22421 0.6438 0.97716 0.0
H1069 H 0.90619 0.71582 0.98919 0.0
H1070 H 0.86116 0.64036 0.98222 0.0
H1071 H 0.89744 0.70923 0.97191 0.0
C1072 C 0.45553 0.79788 0.24574 0.0
C1073 C 0.42354 0.76024 0.2355 0.0
C1074 C 0.53045 0.79902 0.24723 0.0
C1075 C 0.57476 0.76252 0.23817 0.0
C1076 C 0.54254 0.72221 0.22816 0.0
C1077 C 0.46777 0.72127 0.227 0.0
C1078 C 0.5624 0.84164 0.25819 0.0
C1079 C 0.58721 0.68287 0.21821 0.0
C1080 C 0.76104 0.83264 0.23028 0.0
C1081 C 0.80572 0.78301 0.23642 0.0
C1082 C 0.68626 0.82761 0.23111 0.0
C1083 C 0.65445 0.77158 0.23831 0.0
C1084 C 0.6991 0.72234 0.24487 0.0
C1085 C 0.77407 0.72867 0.24387 0.0
C1086 C 0.64119 0.88131 0.22392 0.0
C1087 C 0.66762 0.66191 0.25267 0.0
H1088 H 0.42229 0.82867 0.25231 0.0
H1089 H 0.44408 0.69184 0.21907 0.0
H1090 H 0.52117 0.862 0.26505 0.0
H1091 H 0.601 0.80861 0.26369 0.0
H1092 H 0.59228 0.88758 0.25414 0.0
H1093 H 0.55429 0.64972 0.21163 0.0
H1094 H 0.61757 0.72165 0.21221 0.0
H1095 H 0.62665 0.64807 0.2231 0.0
H1096 H 0.7845 0.87526 0.22459 0.0
H1097 H 0.80784 0.69042 0.24878 0.0
H1098 H 0.60297 0.90717 0.23073 0.0
H1099 H 0.60944 0.854 0.21635 0.0
H1100 H 0.67388 0.92325 0.21916 0.0
H1101 H 0.62755 0.6825 0.25973 0.0
H1102 H 0.70896 0.63167 0.25807 0.0
H1103 H 0.63952 0.62476 0.24608 0.0
C1104 C 0.4564 0.39144 0.48618 0.0
C1105 C 0.44166 0.42378 0.47417 0.0
C1106 C 0.45688 0.31701 0.48753 0.0
C1107 C 0.44017 0.27377 0.47669 0.0
C1108 C 0.42215 0.30627 0.46469 0.0
C1109 C 0.42403 0.38081 0.46353 0.0
C1110 C 0.47723 0.28484 0.50046 0.0
C1111 C 0.40326 0.26218 0.45294 0.0
C1112 C 0.51816 0.08712 0.47464 0.0
C1113 C 0.45979 0.04459 0.47822 0.0
C1114 C 0.5126 0.16158 0.47431 0.0
C1115 C 0.44695 0.19472 0.47758 0.0
C1116 C 0.38831 0.1523 0.48154 0.0
C1117 C 0.39543 0.07776 0.48183 0.0
C1118 C 0.57705 0.20489 0.47039 0.0
C1119 C 0.31777 0.18562 0.48526 0.0
H1120 H 0.47108 0.42416 0.4944 0.0
H1121 H 0.41269 0.40549 0.45423 0.0
H1122 H 0.42867 0.26423 0.5054 0.0
H1123 H 0.51465 0.23957 0.49915 0.0
H1124 H 0.50269 0.32434 0.50695 0.0
H1125 H 0.38485 0.29542 0.44466 0.0
H1126 H 0.45059 0.23114 0.44971 0.0
H1127 H 0.36068 0.22355 0.45548 0.0
H1128 H 0.56828 0.06221 0.47193 0.0
H1129 H 0.35015 0.04544 0.48471 0.0
H1130 H 0.59005 0.24347 0.47819 0.0
H1131 H 0.56521 0.23595 0.46147 0.0
H1132 H 0.62475 0.1712 0.46848 0.0
H1133 H 0.3252 0.22271 0.49352 0.0
H1134 H 0.27724 0.14531 0.48808 0.0
H1135 H 0.29692 0.21722 0.47698 0.0
C1136 C 0.85535 0.21339 0.72697 0.0
C1137 C 0.80842 0.2308 0.73723 0.0
C1138 C 0.92992 0.21392 0.72858 0.0
C1139 C 0.95958 0.2319 0.7408 0.0
C1140 C 0.91256 0.24617 0.7514 0.0
C1141 C 0.83775 0.24522 0.7495 0.0
C1142 C 0.97715 0.19829 0.71695 0.0
C1143 C 0.94126 0.26331 0.76472 0.0
C1144 C 0.16007 0.19149 0.74383 0.0
C1145 C 0.1907 0.25652 0.74003 0.0
C1146 C 0.0851 0.18327 0.74476 0.0
C1147 C 0.03929 0.24152 0.74194 0.0
C1148 C 0.07031 0.30816 0.73883 0.0
C1149 C 0.14505 0.3147 0.73787 0.0
C1150 C 0.05487 0.11161 0.74835 0.0
C1151 C 0.02433 0.37229 0.736 0.0
H1152 H 0.83394 0.20185 0.71743 0.0
H1153 H 0.80217 0.25687 0.75757 0.0
H1154 H 1.00744 0.24681 0.71424 0.0
H1155 H 0.01661 0.15639 0.7194 0.0
H1156 H 0.9462 0.18061 0.70836 0.0
H1157 H 0.97014 0.2164 0.76855 0.0
H1158 H 0.97985 0.30791 0.76413 0.0
H1159 H 0.89838 0.2774 0.77176 0.0
H1160 H 0.19457 0.14635 0.7457 0.0
H1161 H 0.16773 0.36569 0.73521 0.0
H1162 H 0.02625 0.08897 0.7399 0.0
H1163 H 0.01555 0.11721 0.75641 0.0
H1164 H 0.097 0.07351 0.75138 0.0
H1165 H 0.99347 0.363 0.72698 0.0
H1166 H 0.05632 0.42151 0.73472 0.0
H1167 H 0.98535 0.38084 0.74403 0.0
loop_
_geom_bond_atom_site_label_1
_geom_bond_atom_site_label_2
_geom_bond_distance
_geom_bond_site_symmetry_2
_ccdc_geom_bond_type
Zn0 N4 2.020 . S
Zn0 O8 2.019 . S
Zn0 N10 2.119 . S
Zn0 O18 1.975 . S
C1 N2 1.334 1_655 S
C1 N5 1.336 . S
N2 C1 1.334 1_455 S
N2 C3 1.334 . S
C3 N2 1.334 . S
C3 N4 1.336 . S
N4 Zn0 2.020 . S
N4 C3 1.336 . S
N4 N5 1.354 1_455 S
N5 C1 1.336 . S
N5 N4 1.354 1_655 S
N5 Zn9 2.020 . S
C6 O7 1.244 1_655 S
C6 O30 1.257 . S
O7 C6 1.244 1_455 S
O8 Zn0 2.019 . S
O8 C28 1.257 . S
Zn9 N5 2.020 . S
Zn9 O16 1.975 . S
Zn9 N25 2.119 . S
Zn9 O30 2.019 . S
N10 Zn0 2.119 . S
N10 C12 1.334 . S
N10 C13 1.328 . S
C11 C12 1.391 . S
C11 N14 1.329 . S
C11 H32 0.930 . S
C12 N10 1.334 . S
C12 C11 1.391 . S
C12 H19 0.930 . S
C13 N10 1.328 . S
C13 C15 1.392 . S
C13 H20 0.930 . S
N14 C11 1.329 . S
N14 C15 1.331 . S
C15 C13 1.392 . S
C15 N14 1.331 . S
O16 Zn9 1.975 . S
O16 C17 1.252 1_655 S
C17 O16 1.252 1_455 S
C17 O18 1.252 . S
O18 Zn0 1.975 . S
O18 C17 1.252 . S
H19 C12 0.930 . S
H20 C13 0.930 . S
C21 C22 1.392 . S
C21 N25 1.328 . S
C21 H27 0.930 . S
C22 C21 1.392 . S
C22 N26 1.331 . S
C23 C24 1.391 . S
C23 N26 1.329 . S
C23 H33 0.930 . S
C24 C23 1.391 . S
C24 N25 1.334 . S
C24 H31 0.930 . S
N25 Zn9 2.119 . S
N25 C21 1.328 . S
N25 C24 1.334 . S
N26 C22 1.331 . S
N26 C23 1.329 . S
H27 C21 0.930 . S
C28 O8 1.257 . S
C28 O29 1.244 1_455 S
O29 C28 1.244 1_655 S
O30 C6 1.257 . S
O30 Zn9 2.019 . S
H31 C24 0.930 . S
H32 C11 0.930 . S
H33 C23 0.930 . S
Zn34 N38 2.020 . S
Zn34 O42 2.019 . S
Zn34 N44 2.119 . S
Zn34 O52 1.975 . S
C35 N36 1.334 . S
C35 N39 1.336 . S
N36 C35 1.334 . S
N36 C37 1.334 . S
C37 N36 1.334 . S
C37 N38 1.336 . S
N38 Zn34 2.020 . S
N38 C37 1.336 . S
N38 N39 1.354 . S
N39 C35 1.336 . S
N39 N38 1.354 . S
N39 Zn43 2.020 . S
C40 O41 1.244 . S
C40 O64 1.257 . S
O41 C40 1.244 . S
O42 Zn34 2.019 . S
O42 C62 1.257 . S
Zn43 N39 2.020 . S
Zn43 O50 1.975 . S
Zn43 N59 2.119 . S
Zn43 O64 2.019 . S
N44 Zn34 2.119 . S
N44 C46 1.334 . S
N44 C47 1.328 . S
C45 C46 1.391 . S
C45 N48 1.329 1_565 S
C45 H66 0.930 . S
C46 N44 1.334 . S
C46 C45 1.391 . S
C46 H53 0.930 . S
C47 N44 1.328 . S
C47 C49 1.392 1_565 S
C47 H54 0.930 . S
N48 C45 1.329 1_545 S
N48 C49 1.331 . S
C49 C47 1.392 1_545 S
C49 N48 1.331 . S
O50 Zn43 1.975 . S
O50 C51 1.252 . S
C51 O50 1.252 . S
C51 O52 1.252 . S
O52 Zn34 1.975 . S
O52 C51 1.252 . S
H53 C46 0.930 . S
H54 C47 0.930 . S
C55 C56 1.392 . S
C55 N59 1.328 . S
C55 H61 0.930 . S
C56 C55 1.392 . S
C56 N60 1.331 . S
C57 C58 1.391 . S
C57 N60 1.329 . S
C57 H67 0.930 . S
C58 C57 1.391 . S
C58 N59 1.334 . S
C58 H65 0.930 . S
N59 Zn43 2.119 . S
N59 C55 1.328 . S
N59 C58 1.334 . S
N60 C56 1.331 . S
N60 C57 1.329 . S
H61 C55 0.930 . S
C62 O42 1.257 . S
C62 O63 1.244 . S
O63 C62 1.244 . S
O64 C40 1.257 . S
O64 Zn43 2.019 . S
H65 C58 0.930 . S
H66 C45 0.930 . S
H67 C57 0.930 . S
Zn68 N72 2.020 . S
Zn68 O76 2.019 . S
Zn68 N78 2.119 . S
Zn68 O86 1.975 . S
C69 N70 1.334 . S
C69 N73 1.336 . S
N70 C69 1.334 . S
N70 C71 1.334 . S
C71 N70 1.334 . S
C71 N72 1.336 . S
N72 Zn68 2.020 . S
N72 C71 1.336 . S
N72 N73 1.354 . S
N73 C69 1.336 . S
N73 N72 1.354 . S
N73 Zn77 2.020 . S
C74 O75 1.244 . S
C74 O98 1.257 . S
O75 C74 1.244 . S
O76 Zn68 2.019 . S
O76 C96 1.257 . S
Zn77 N73 2.020 . S
Zn77 O84 1.975 . S
Zn77 N93 2.119 . S
Zn77 O98 2.019 . S
N78 Zn68 2.119 . S
N78 C80 1.334 . S
N78 C81 1.328 . S
C79 C80 1.391 . S
C79 N82 1.329 . S
C79 H100 0.930 . S
C80 N78 1.334 . S
C80 C79 1.391 . S
C80 H87 0.930 . S
C81 N78 1.328 . S
C81 C83 1.392 . S
C81 H88 0.930 . S
N82 C79 1.329 . S
N82 C83 1.331 . S
C83 C81 1.392 . S
C83 N82 1.331 . S
O84 Zn77 1.975 . S
O84 C85 1.252 . S
C85 O84 1.252 . S
C85 O86 1.252 . S
O86 Zn68 1.975 . S
O86 C85 1.252 . S
H87 C80 0.930 . S
H88 C81 0.930 . S
C89 C90 1.392 . S
C89 N93 1.328 . S
C89 H95 0.930 . S
C90 C89 1.392 . S
C90 N94 1.331 . S
C91 C92 1.391 . S
C91 N94 1.329 . S
C91 H101 0.930 . S
C92 C91 1.391 . S
C92 N93 1.334 . S
C92 H99 0.930 . S
N93 Zn77 2.119 . S
N93 C89 1.328 . S
N93 C92 1.334 . S
N94 C90 1.331 . S
N94 C91 1.329 . S
H95 C89 0.930 . S
C96 O76 1.257 . S
C96 O97 1.244 . S
O97 C96 1.244 . S
O98 C74 1.257 . S
O98 Zn77 2.019 . S
H99 C92 0.930 . S
H100 C79 0.930 . S
H101 C91 0.930 . S
Zn102 N106 2.020 . S
Zn102 O110 2.019 . S
Zn102 N112 2.119 . S
Zn102 O120 1.975 . S
C103 N104 1.334 . S
C103 N107 1.336 . S
N104 C103 1.334 . S
N104 C105 1.334 1_455 S
C105 N104 1.334 1_655 S
C105 N106 1.336 . S
N106 Zn102 2.020 . S
N106 C105 1.336 . S
N106 N107 1.354 1_655 S
N107 C103 1.336 . S
N107 N106 1.354 1_455 S
N107 Zn111 2.020 . S
C108 O109 1.244 . S
C108 O132 1.257 . S
O109 C108 1.244 . S
O110 Zn102 2.019 . S
O110 C130 1.257 . S
Zn111 N107 2.020 . S
Zn111 O118 1.975 . S
Zn111 N127 2.119 . S
Zn111 O132 2.019 . S
N112 Zn102 2.119 . S
N112 C114 1.334 1_655 S
N112 C115 1.328 . S
C113 C114 1.391 . S
C113 N116 1.329 1_455 S
C113 H134 0.930 . S
C114 N112 1.334 1_455 S
C114 C113 1.391 . S
C114 H121 0.930 . S
C115 N112 1.328 . S
C115 C117 1.392 . S
C115 H122 0.930 . S
N116 C113 1.329 1_655 S
N116 C117 1.331 . S
C117 C115 1.392 . S
C117 N116 1.331 . S
O118 Zn111 1.975 . S
O118 C119 1.252 . S
C119 O118 1.252 . S
C119 O120 1.252 1_455 S
O120 Zn102 1.975 . S
O120 C119 1.252 1_655 S
H121 C114 0.930 . S
H122 C115 0.930 . S
C123 C124 1.392 1_545 S
C123 N127 1.328 . S
C123 H129 0.930 . S
C124 C123 1.392 1_565 S
C124 N128 1.331 . S
C125 C126 1.391 . S
C125 N128 1.329 1_645 S
C125 H135 0.930 . S
C126 C125 1.391 . S
C126 N127 1.334 1_655 S
C126 H133 0.930 . S
N127 Zn111 2.119 . S
N127 C123 1.328 . S
N127 C126 1.334 1_455 S
N128 C124 1.331 . S
N128 C125 1.329 1_465 S
H129 C123 0.930 . S
C130 O110 1.257 . S
C130 O131 1.244 . S
O131 C130 1.244 . S
O132 C108 1.257 . S
O132 Zn111 2.019 . S
H133 C126 0.930 . S
H134 C113 0.930 . S
H135 C125 0.930 . S
Zn136 N140 2.020 . S
Zn136 O144 2.019 . S
Zn136 N146 2.119 . S
Zn136 O154 1.975 . S
C137 N138 1.334 . S
C137 N141 1.336 . S
N138 C137 1.334 . S
N138 C139 1.334 1_455 S
C139 N138 1.334 1_655 S
C139 N140 1.336 . S
N140 Zn136 2.020 . S
N140 C139 1.336 . S
N140 N141 1.354 1_655 S
N141 C137 1.336 . S
N141 N140 1.354 1_455 S
N141 Zn145 2.020 . S
C142 O143 1.244 1_455 S
C142 O166 1.257 . S
O143 C142 1.244 1_655 S
O144 Zn136 2.019 . S
O144 C164 1.257 . S
Zn145 N141 2.020 . S
Zn145 O152 1.975 . S
Zn145 N161 2.119 . S
Zn145 O166 2.019 . S
N146 Zn136 2.119 . S
N146 C148 1.334 . S
N146 C149 1.328 . S
C147 C148 1.391 . S
C147 N150 1.329 . S
C147 H168 0.930 . S
C148 N146 1.334 . S
C148 C147 1.391 . S
C148 H155 0.930 . S
C149 N146 1.328 . S
C149 C151 1.392 . S
C149 H156 0.930 . S
N150 C147 1.329 . S
N150 C151 1.331 . S
C151 C149 1.392 . S
C151 N150 1.331 . S
O152 Zn145 1.975 . S
O152 C153 1.252 . S
C153 O152 1.252 . S
C153 O154 1.252 1_455 S
O154 Zn136 1.975 . S
O154 C153 1.252 1_655 S
H155 C148 0.930 . S
H156 C149 0.930 . S
C157 C158 1.392 . S
C157 N161 1.328 . S
C157 H163 0.930 . S
C158 C157 1.392 . S
C158 N162 1.331 . S
C159 C160 1.391 . S
C159 N162 1.329 . S
C159 H169 0.930 . S
C160 C159 1.391 . S
C160 N161 1.334 . S
C160 H167 0.930 . S
N161 Zn145 2.119 . S
N161 C157 1.328 . S
N161 C160 1.334 . S
N162 C158 1.331 . S
N162 C159 1.329 . S
H163 C157 0.930 . S
C164 O144 1.257 . S
C164 O165 1.244 1_655 S
O165 C164 1.244 1_455 S
O166 C142 1.257 . S
O166 Zn145 2.019 . S
H167 C160 0.930 . S
H168 C147 0.930 . S
H169 C159 0.930 . S
Zn170 N174 2.020 . S
Zn170 O178 2.019 . S
Zn170 N180 2.119 . S
Zn170 O188 1.975 . S
C171 N172 1.334 . S
C171 N175 1.336 . S
N172 C171 1.334 . S
N172 C173 1.334 1_455 S
C173 N172 1.334 1_655 S
C173 N174 1.336 . S
N174 Zn170 2.020 . S
N174 C173 1.336 . S
N174 N175 1.354 1_655 S
N175 C171 1.336 . S
N175 N174 1.354 1_455 S
N175 Zn179 2.020 . S
C176 O177 1.244 . S
C176 O200 1.257 . S
O177 C176 1.244 . S
O178 Zn170 2.019 . S
O178 C198 1.257 . S
Zn179 N175 2.020 . S
Zn179 O186 1.975 . S
Zn179 N195 2.119 . S
Zn179 O200 2.019 . S
N180 Zn170 2.119 . S
N180 C182 1.334 1_655 S
N180 C183 1.328 . S
C181 C182 1.391 . S
C181 N184 1.329 1_455 S
C181 H202 0.930 . S
C182 N180 1.334 1_455 S
C182 C181 1.391 . S
C182 H189 0.930 . S
C183 N180 1.328 . S
C183 C185 1.392 . S
C183 H190 0.930 . S
N184 C181 1.329 1_655 S
N184 C185 1.331 . S
C185 C183 1.392 . S
C185 N184 1.331 . S
O186 Zn179 1.975 . S
O186 C187 1.252 . S
C187 O186 1.252 . S
C187 O188 1.252 1_455 S
O188 Zn170 1.975 . S
O188 C187 1.252 1_655 S
H189 C182 0.930 . S
H190 C183 0.930 . S
C191 C192 1.392 1_565 S
C191 N195 1.328 . S
C191 H197 0.930 . S
C192 C191 1.392 1_545 S
C192 N196 1.331 . S
C193 C194 1.391 . S
C193 N196 1.329 1_665 S
C193 H203 0.930 . S
C194 C193 1.391 . S
C194 N195 1.334 1_655 S
C194 H201 0.930 . S
N195 Zn179 2.119 . S
N195 C191 1.328 . S
N195 C194 1.334 1_455 S
N196 C192 1.331 . S
N196 C193 1.329 1_445 S
H197 C191 0.930 . S
C198 O178 1.257 . S
C198 O199 1.244 . S
O199 C198 1.244 . S
O200 C176 1.257 . S
O200 Zn179 2.019 . S
H201 C194 0.930 . S
H202 C181 0.930 . S
H203 C193 0.930 . S
Zn204 N208 2.020 . S
Zn204 O212 2.019 . S
Zn204 N214 2.119 . S
Zn204 O222 1.975 . S
C205 N206 1.334 . S
C205 N209 1.336 . S
N206 C205 1.334 . S
N206 C207 1.334 . S
C207 N206 1.334 . S
C207 N208 1.336 . S
N208 Zn204 2.020 . S
N208 C207 1.336 . S
N208 N209 1.354 . S
N209 C205 1.336 . S
N209 N208 1.354 . S
N209 Zn213 2.020 . S
C210 O211 1.244 . S
C210 O234 1.257 . S
O211 C210 1.244 . S
O212 Zn204 2.019 . S
O212 C232 1.257 . S
Zn213 N209 2.020 . S
Zn213 O220 1.975 . S
Zn213 N229 2.119 . S
Zn213 O234 2.019 . S
N214 Zn204 2.119 . S
N214 C216 1.334 . S
N214 C217 1.328 . S
C215 C216 1.391 . S
C215 N218 1.329 . S
C215 H236 0.930 . S
C216 N214 1.334 . S
C216 C215 1.391 . S
C216 H223 0.930 . S
C217 N214 1.328 . S
C217 C219 1.392 . S
C217 H224 0.930 . S
N218 C215 1.329 . S
N218 C219 1.331 . S
C219 C217 1.392 . S
C219 N218 1.331 . S
O220 Zn213 1.975 . S
O220 C221 1.252 . S
C221 O220 1.252 . S
C221 O222 1.252 . S
O222 Zn204 1.975 . S
O222 C221 1.252 . S
H223 C216 0.930 . S
H224 C217 0.930 . S
C225 C226 1.392 . S
C225 N229 1.328 . S
C225 H231 0.930 . S
C226 C225 1.392 . S
C226 N230 1.331 . S
C227 C228 1.391 . S
C227 N230 1.329 . S
C227 H237 0.930 . S
C228 C227 1.391 . S
C228 N229 1.334 . S
C228 H235 0.930 . S
N229 Zn213 2.119 . S
N229 C225 1.328 . S
N229 C228 1.334 . S
N230 C226 1.331 . S
N230 C227 1.329 . S
H231 C225 0.930 . S
C232 O212 1.257 . S
C232 O233 1.244 . S
O233 C232 1.244 . S
O234 C210 1.257 . S
O234 Zn213 2.019 . S
H235 C228 0.930 . S
H236 C215 0.930 . S
H237 C227 0.930 . S
Zn238 N242 2.020 . S
Zn238 O246 2.019 . S
Zn238 N248 2.119 . S
Zn238 O256 1.975 . S
C239 N240 1.334 . S
C239 N243 1.336 . S
N240 C239 1.334 . S
N240 C241 1.334 . S
C241 N240 1.334 . S
C241 N242 1.336 . S
N242 Zn238 2.020 . S
N242 C241 1.336 . S
N242 N243 1.354 . S
N243 C239 1.336 . S
N243 N242 1.354 . S
N243 Zn247 2.020 . S
C244 O245 1.244 . S
C244 O268 1.257 . S
O245 C244 1.244 . S
O246 Zn238 2.019 . S
O246 C266 1.257 . S
Zn247 N243 2.020 . S
Zn247 O254 1.975 . S
Zn247 N263 2.119 . S
Zn247 O268 2.019 . S
N248 Zn238 2.119 . S
N248 C250 1.334 . S
N248 C251 1.328 . S
C249 C250 1.391 . S
C249 N252 1.329 1_545 S
C249 H270 0.930 . S
C250 N248 1.334 . S
C250 C249 1.391 . S
C250 H257 0.930 . S
C251 N248 1.328 . S
C251 C253 1.392 1_545 S
C251 H258 0.930 . S
N252 C249 1.329 1_565 S
N252 C253 1.331 . S
C253 C251 1.392 1_565 S
C253 N252 1.331 . S
O254 Zn247 1.975 . S
O254 C255 1.252 . S
C255 O254 1.252 . S
C255 O256 1.252 . S
O256 Zn238 1.975 . S
O256 C255 1.252 . S
H257 C250 0.930 . S
H258 C251 0.930 . S
C259 C260 1.392 . S
C259 N263 1.328 . S
C259 H265 0.930 . S
C260 C259 1.392 . S
C260 N264 1.331 . S
C261 C262 1.391 . S
C261 N264 1.329 . S
C261 H271 0.930 . S
C262 C261 1.391 . S
C262 N263 1.334 . S
C262 H269 0.930 . S
N263 Zn247 2.119 . S
N263 C259 1.328 . S
N263 C262 1.334 . S
N264 C260 1.331 . S
N264 C261 1.329 . S
H265 C259 0.930 . S
C266 O246 1.257 . S
C266 O267 1.244 . S
O267 C266 1.244 . S
O268 C244 1.257 . S
O268 Zn247 2.019 . S
H269 C262 0.930 . S
H270 C249 0.930 . S
H271 C261 0.930 . S
C272 C273 1.391 . S
C272 C274 1.394 . S
C272 H288 0.931 . S
C273 C272 1.391 . S
C273 C277 1.376 1_455 S
C274 C272 1.394 . S
C274 C275 1.369 . S
C274 C278 1.531 . S
C275 C274 1.369 . S
C275 C276 1.410 1_455 S
C275 C283 1.503 . S
C276 C275 1.410 1_655 S
C276 C277 1.392 . S
C276 C279 1.511 . S
C277 C273 1.376 1_655 S
C277 C276 1.392 . S
C277 H289 0.929 . S
C278 C274 1.531 . S
C278 H290 0.960 . S
C278 H291 0.962 . S
C278 H292 0.960 . S
C279 C276 1.511 . S
C279 H293 0.961 . S
C279 H294 0.961 . S
C279 H295 0.973 . S
C280 C281 1.370 1_655 S
C280 C282 1.363 . S
C280 H296 0.931 . S
C281 C280 1.370 1_455 S
C281 C285 1.408 . S
C282 C280 1.363 . S
C282 C283 1.370 1_655 S
C282 C286 1.524 . S
C283 C275 1.503 . S
C283 C282 1.370 1_455 S
C283 C284 1.403 . S
C284 C283 1.403 . S
C284 C285 1.404 . S
C284 C287 1.539 . S
C285 C281 1.408 . S
C285 C284 1.404 . S
C285 H297 0.930 . S
C286 C282 1.524 . S
C286 H298 0.956 . S
C286 H299 0.961 . S
C286 H300 0.961 . S
C287 C284 1.539 . S
C287 H301 0.958 . S
C287 H302 0.961 . S
C287 H303 0.960 . S
H288 C272 0.931 . S
H289 C277 0.929 . S
H290 C278 0.960 . S
H291 C278 0.962 . S
H292 C278 0.960 . S
H293 C279 0.961 . S
H294 C279 0.961 . S
H295 C279 0.973 . S
H296 C280 0.931 . S
H297 C285 0.930 . S
H298 C286 0.956 . S
H299 C286 0.961 . S
H300 C286 0.961 . S
H301 C287 0.958 . S
H302 C287 0.961 . S
H303 C287 0.960 . S
C304 C305 1.391 . S
C304 C306 1.394 . S
C304 H320 0.931 . S
C305 C304 1.391 . S
C305 C309 1.376 . S
C306 C304 1.394 . S
C306 C307 1.369 . S
C306 C310 1.531 . S
C307 C306 1.369 . S
C307 C308 1.410 . S
C307 C315 1.503 . S
C308 C307 1.410 . S
C308 C309 1.392 . S
C308 C311 1.511 . S
C309 C305 1.376 . S
C309 C308 1.392 . S
C309 H321 0.929 . S
C310 C306 1.531 . S
C310 H322 0.960 . S
C310 H323 0.962 . S
C310 H324 0.960 . S
C311 C308 1.511 . S
C311 H325 0.961 . S
C311 H326 0.961 . S
C311 H327 0.961 . S
C312 C313 1.370 . S
C312 C314 1.363 . S
C312 H328 0.931 . S
C313 C312 1.370 . S
C313 C317 1.408 . S
C314 C312 1.363 . S
C314 C315 1.370 . S
C314 C318 1.524 . S
C315 C307 1.503 . S
C315 C314 1.370 . S
C315 C316 1.403 . S
C316 C315 1.403 . S
C316 C317 1.404 . S
C316 C319 1.539 . S
C317 C313 1.408 . S
C317 C316 1.404 . S
C317 H329 0.930 . S
C318 C314 1.524 . S
C318 H330 0.956 . S
C318 H331 0.961 . S
C318 H332 0.961 . S
C319 C316 1.539 . S
C319 H333 0.958 . S
C319 H334 0.961 . S
C319 H335 0.960 . S
H320 C304 0.931 . S
H321 C309 0.929 . S
H322 C310 0.960 . S
H323 C310 0.962 . S
H324 C310 0.960 . S
H325 C311 0.961 . S
H326 C311 0.961 . S
H327 C311 0.961 . S
H328 C312 0.931 . S
H329 C317 0.930 . S
H330 C318 0.956 . S
H331 C318 0.961 . S
H332 C318 0.961 . S
H333 C319 0.958 . S
H334 C319 0.961 . S
H335 C319 0.960 . S
C336 C337 1.391 . S
C336 C338 1.394 . S
C336 H352 0.931 . S
C337 C336 1.391 . S
C337 C341 1.376 . S
C338 C336 1.394 . S
C338 C339 1.369 . S
C338 C342 1.531 . S
C339 C338 1.369 . S
C339 C340 1.410 . S
C339 C347 1.503 . S
C340 C339 1.410 . S
C340 C341 1.392 . S
C340 C343 1.511 . S
C341 C337 1.376 . S
C341 C340 1.392 . S
C341 H353 0.929 . S
C342 C338 1.531 . S
C342 H354 0.960 . S
C342 H355 0.962 . S
C342 H356 0.960 . S
C343 C340 1.511 . S
C343 H357 0.961 . S
C343 H358 0.961 . S
C343 H359 0.961 . S
C344 C345 1.370 . S
C344 C346 1.363 . S
C344 H360 0.931 . S
C345 C344 1.370 . S
C345 C349 1.408 . S
C346 C344 1.363 . S
C346 C347 1.370 . S
C346 C350 1.524 . S
C347 C339 1.503 . S
C347 C346 1.370 . S
C347 C348 1.403 . S
C348 C347 1.403 . S
C348 C349 1.404 . S
C348 C351 1.539 . S
C349 C345 1.408 . S
C349 C348 1.404 . S
C349 H361 0.930 . S
C350 C346 1.524 . S
C350 H362 0.956 . S
C350 H363 0.961 . S
C350 H364 0.961 . S
C351 C348 1.539 . S
C351 H365 0.958 . S
C351 H366 0.961 . S
C351 H367 0.960 . S
H352 C336 0.931 . S
H353 C341 0.929 . S
H354 C342 0.960 . S
H355 C342 0.962 . S
H356 C342 0.960 . S
H357 C343 0.961 . S
H358 C343 0.961 . S
H359 C343 0.961 . S
H360 C344 0.931 . S
H361 C349 0.930 . S
H362 C350 0.956 . S
H363 C350 0.961 . S
H364 C350 0.961 . S
H365 C351 0.958 . S
H366 C351 0.961 . S
H367 C351 0.960 . S
C368 C369 1.391 1_655 S
C368 C370 1.394 . S
C368 H384 0.931 . S
C369 C368 1.391 1_455 S
C369 C373 1.376 . S
C370 C368 1.394 . S
C370 C371 1.369 1_655 S
C370 C374 1.531 . S
C371 C370 1.369 1_455 S
C371 C372 1.410 . S
C371 C379 1.503 . S
C372 C371 1.410 . S
C372 C373 1.392 . S
C372 C375 1.511 . S
C373 C369 1.376 . S
C373 C372 1.392 . S
C373 H385 0.929 . S
C374 C370 1.531 . S
C374 H386 0.960 . S
C374 H387 0.962 . S
C374 H388 0.960 . S
C375 C372 1.511 . S
C375 H389 0.961 . S
C375 H390 0.961 . S
C375 H391 0.961 . S
C376 C377 1.368 1_655 S
C376 C378 1.363 . S
C376 H392 0.931 . S
C377 C376 1.368 1_455 S
C377 C381 1.411 . S
C378 C376 1.363 . S
C378 C379 1.370 1_655 S
C378 C382 1.524 . S
C379 C371 1.503 . S
C379 C378 1.370 1_455 S
C379 C380 1.403 . S
C380 C379 1.403 . S
C380 C381 1.404 . S
C380 C383 1.539 . S
C381 C377 1.411 . S
C381 C380 1.404 . S
C381 H393 0.930 . S
C382 C378 1.524 . S
C382 H394 0.956 . S
C382 H395 0.961 1_655 S
C382 H396 0.961 . S
C383 C380 1.539 . S
C383 H397 0.958 1_455 S
C383 H398 0.961 . S
C383 H399 0.960 . S
H384 C368 0.931 . S
H385 C373 0.929 . S
H386 C374 0.960 . S
H387 C374 0.962 . S
H388 C374 0.960 . S
H389 C375 0.961 . S
H390 C375 0.961 . S
H391 C375 0.961 . S
H392 C376 0.931 . S
H393 C381 0.930 . S
H394 C382 0.956 . S
H395 C382 0.961 1_455 S
H396 C382 0.961 . S
H397 C383 0.958 1_655 S
H398 C383 0.961 . S
H399 C383 0.960 . S
C400 C401 1.391 1_455 S
C400 C402 1.394 . S
C400 H416 0.931 . S
C401 C400 1.391 1_655 S
C401 C405 1.376 . S
C402 C400 1.394 . S
C402 C403 1.369 1_455 S
C402 C406 1.531 . S
C403 C402 1.369 1_655 S
C403 C404 1.410 . S
C403 C411 1.503 1_556 S
C404 C403 1.410 . S
C404 C405 1.392 . S
C404 C407 1.502 1_556 S
C405 C401 1.376 . S
C405 C404 1.392 . S
C405 H417 0.929 . S
C406 C402 1.531 . S
C406 H418 0.960 . S
C406 H419 0.962 . S
C406 H420 0.960 . S
C407 C404 1.502 1_554 S
C407 H421 0.962 . S
C407 H422 0.975 . S
C407 H423 0.954 1_554 S
C408 C409 1.370 . S
C408 C410 1.363 . S
C408 H424 0.931 1_655 S
C409 C408 1.370 . S
C409 C413 1.408 . S
C410 C408 1.363 . S
C410 C411 1.370 . S
C410 C414 1.524 1_655 S
C411 C403 1.503 1_554 S
C411 C410 1.370 . S
C411 C412 1.403 . S
C412 C411 1.403 . S
C412 C413 1.404 . S
C412 C415 1.539 1_554 S
C413 C409 1.408 . S
C413 C412 1.404 . S
C413 H425 0.930 . S
C414 C410 1.524 1_455 S
C414 H426 0.956 . S
C414 H427 0.961 1_455 S
C414 H428 0.961 . S
C415 C412 1.539 1_556 S
C415 H429 0.958 . S
C415 H430 0.961 . S
C415 H431 0.960 . S
H416 C400 0.931 . S
H417 C405 0.929 . S
H418 C406 0.960 . S
H419 C406 0.962 . S
H420 C406 0.960 . S
H421 C407 0.962 . S
H422 C407 0.975 . S
H423 C407 0.954 1_556 S
H424 C408 0.931 1_455 S
H425 C413 0.930 . S
H426 C414 0.956 . S
H427 C414 0.961 1_655 S
H428 C414 0.961 . S
H429 C415 0.958 . S
H430 C415 0.961 . S
H431 C415 0.960 . S
C432 C433 1.391 . S
C432 C434 1.394 . S
C432 H448 0.931 . S
C433 C432 1.391 . S
C433 C437 1.376 . S
C434 C432 1.394 . S
C434 C435 1.369 . S
C434 C438 1.531 . S
C435 C434 1.369 . S
C435 C436 1.410 . S
C435 C443 1.503 . S
C436 C435 1.410 . S
C436 C437 1.392 . S
C436 C439 1.511 . S
C437 C433 1.376 . S
C437 C436 1.392 . S
C437 H449 0.929 . S
C438 C434 1.531 . S
C438 H450 0.960 . S
C438 H451 0.962 . S
C438 H452 0.960 . S
C439 C436 1.511 . S
C439 H453 0.961 . S
C439 H454 0.961 . S
C439 H455 0.961 . S
C440 C441 1.370 . S
C440 C442 1.363 . S
C440 H456 0.931 . S
C441 C440 1.370 . S
C441 C445 1.408 . S
C442 C440 1.363 . S
C442 C443 1.370 . S
C442 C446 1.524 . S
C443 C435 1.503 . S
C443 C442 1.370 . S
C443 C444 1.403 . S
C444 C443 1.403 . S
C444 C445 1.404 . S
C444 C447 1.539 . S
C445 C441 1.408 . S
C445 C444 1.404 . S
C445 H457 0.930 . S
C446 C442 1.524 . S
C446 H458 0.956 . S
C446 H459 0.961 . S
C446 H460 0.961 . S
C447 C444 1.539 . S
C447 H461 0.958 . S
C447 H462 0.961 . S
C447 H463 0.960 . S
H448 C432 0.931 . S
H449 C437 0.929 . S
H450 C438 0.960 . S
H451 C438 0.962 . S
H452 C438 0.960 . S
H453 C439 0.961 . S
H454 C439 0.961 . S
H455 C439 0.961 . S
H456 C440 0.931 . S
H457 C445 0.930 . S
H458 C446 0.956 . S
H459 C446 0.961 . S
H460 C446 0.961 . S
H461 C447 0.958 . S
H462 C447 0.961 . S
H463 C447 0.960 . S
C464 C465 1.391 . S
C464 C466 1.394 . S
C464 H480 0.931 . S
C465 C464 1.391 . S
C465 C469 1.376 . S
C466 C464 1.394 . S
C466 C467 1.369 . S
C466 C470 1.531 . S
C467 C466 1.369 . S
C467 C468 1.410 . S
C467 C475 1.503 . S
C468 C467 1.410 . S
C468 C469 1.392 . S
C468 C471 1.511 . S
C469 C465 1.376 . S
C469 C468 1.392 . S
C469 H481 0.929 . S
C470 C466 1.531 . S
C470 H482 0.960 . S
C470 H483 0.962 . S
C470 H484 0.960 . S
C471 C468 1.511 . S
C471 H485 0.961 . S
C471 H486 0.961 . S
C471 H487 0.961 . S
C472 C473 1.370 . S
C472 C474 1.363 . S
C472 H488 0.931 . S
C473 C472 1.370 . S
C473 C477 1.408 . S
C474 C472 1.363 . S
C474 C475 1.370 . S
C474 C478 1.524 . S
C475 C467 1.503 . S
C475 C474 1.370 . S
C475 C476 1.403 . S
C476 C475 1.403 . S
C476 C477 1.404 . S
C476 C479 1.539 . S
C477 C473 1.408 . S
C477 C476 1.404 . S
C477 H489 0.930 . S
C478 C474 1.524 . S
C478 H490 0.956 . S
C478 H491 0.961 . S
C478 H492 0.961 . S
C479 C476 1.539 . S
C479 H493 0.958 . S
C479 H494 0.961 . S
C479 H495 0.960 . S
H480 C464 0.931 . S
H481 C469 0.929 . S
H482 C470 0.960 . S
H483 C470 0.962 . S
H484 C470 0.960 . S
H485 C471 0.961 . S
H486 C471 0.961 . S
H487 C471 0.961 . S
H488 C472 0.931 . S
H489 C477 0.930 . S
H490 C478 0.956 . S
H491 C478 0.961 . S
H492 C478 0.961 . S
H493 C479 0.958 . S
H494 C479 0.961 . S
H495 C479 0.960 . S
C496 C497 1.391 . S
C496 C498 1.394 . S
C496 H512 0.931 . S
C497 C496 1.391 . S
C497 C501 1.376 . S
C498 C496 1.394 . S
C498 C499 1.369 . S
C498 C502 1.531 . S
C499 C498 1.369 . S
C499 C500 1.410 . S
C499 C507 1.503 . S
C500 C499 1.410 . S
C500 C501 1.392 . S
C500 C503 1.511 . S
C501 C497 1.376 . S
C501 C500 1.392 . S
C501 H513 0.929 . S
C502 C498 1.531 . S
C502 H514 0.960 . S
C502 H515 0.962 . S
C502 H516 0.960 . S
C503 C500 1.511 . S
C503 H517 0.961 . S
C503 H518 0.961 . S
C503 H519 0.961 . S
C504 C505 1.370 . S
C504 C506 1.363 . S
C504 H520 0.931 . S
C505 C504 1.370 . S
C505 C509 1.408 . S
C506 C504 1.363 . S
C506 C507 1.370 . S
C506 C510 1.524 . S
C507 C499 1.503 . S
C507 C506 1.370 . S
C507 C508 1.403 . S
C508 C507 1.403 . S
C508 C509 1.404 . S
C508 C511 1.539 . S
C509 C505 1.408 . S
C509 C508 1.404 . S
C509 H521 0.930 . S
C510 C506 1.524 . S
C510 H522 0.956 . S
C510 H523 0.961 . S
C510 H524 0.961 . S
C511 C508 1.539 . S
C511 H525 0.958 . S
C511 H526 0.961 . S
C511 H527 0.960 . S
H512 C496 0.931 . S
H513 C501 0.929 . S
H514 C502 0.960 . S
H515 C502 0.962 . S
H516 C502 0.960 . S
H517 C503 0.961 . S
H518 C503 0.961 . S
H519 C503 0.961 . S
H520 C504 0.931 . S
H521 C509 0.930 . S
H522 C510 0.956 . S
H523 C510 0.961 . S
H524 C510 0.961 . S
H525 C511 0.958 . S
H526 C511 0.961 . S
H527 C511 0.960 . S
C528 C529 1.391 . S
C528 C530 1.394 . S
C528 H544 0.931 . S
C529 C528 1.391 . S
C529 C533 1.376 . S
C530 C528 1.394 . S
C530 C531 1.369 . S
C530 C534 1.531 . S
C531 C530 1.369 . S
C531 C532 1.410 . S
C531 C539 1.503 . S
C532 C531 1.410 . S
C532 C533 1.392 . S
C532 C535 1.511 . S
C533 C529 1.376 . S
C533 C532 1.392 . S
C533 H545 0.929 . S
C534 C530 1.531 . S
C534 H546 0.960 . S
C534 H547 0.962 . S
C534 H548 0.960 . S
C535 C532 1.511 . S
C535 H549 0.961 . S
C535 H550 0.961 . S
C535 H551 0.961 . S
C536 C537 1.370 . S
C536 C538 1.363 . S
C536 H552 0.931 . S
C537 C536 1.370 . S
C537 C541 1.408 . S
C538 C536 1.363 . S
C538 C539 1.370 . S
C538 C542 1.524 . S
C539 C531 1.503 . S
C539 C538 1.370 . S
C539 C540 1.403 . S
C540 C539 1.403 . S
C540 C541 1.404 . S
C540 C543 1.539 . S
C541 C537 1.408 . S
C541 C540 1.404 . S
C541 H553 0.930 . S
C542 C538 1.524 . S
C542 H554 0.956 . S
C542 H555 0.961 . S
C542 H556 0.961 . S
C543 C540 1.539 . S
C543 H557 0.958 . S
C543 H558 0.961 . S
C543 H559 0.960 . S
H544 C528 0.931 . S
H545 C533 0.929 . S
H546 C534 0.960 . S
H547 C534 0.962 . S
H548 C534 0.960 . S
H549 C535 0.961 . S
H550 C535 0.961 . S
H551 C535 0.961 . S
H552 C536 0.931 . S
H553 C541 0.930 . S
H554 C542 0.956 . S
H555 C542 0.961 . S
H556 C542 0.961 . S
H557 C543 0.958 . S
H558 C543 0.961 . S
H559 C543 0.960 . S
C560 C561 1.391 . S
C560 C562 1.394 . S
C560 H576 0.931 . S
C561 C560 1.391 . S
C561 C565 1.376 . S
C562 C560 1.394 . S
C562 C563 1.369 . S
C562 C566 1.531 . S
C563 C562 1.369 . S
C563 C564 1.410 . S
C563 C571 1.503 . S
C564 C563 1.410 . S
C564 C565 1.392 . S
C564 C567 1.511 . S
C565 C561 1.376 . S
C565 C564 1.392 . S
C565 H577 0.929 . S
C566 C562 1.531 . S
C566 H578 0.960 . S
C566 H579 0.962 . S
C566 H580 0.960 . S
C567 C564 1.511 . S
C567 H581 0.961 . S
C567 H582 0.961 . S
C567 H583 0.961 . S
C568 C569 1.370 . S
C568 C570 1.363 . S
C568 H584 0.931 . S
C569 C568 1.370 . S
C569 C573 1.408 . S
C570 C568 1.363 . S
C570 C571 1.370 . S
C570 C574 1.524 . S
C571 C563 1.503 . S
C571 C570 1.370 . S
C571 C572 1.403 . S
C572 C571 1.403 . S
C572 C573 1.404 . S
C572 C575 1.539 . S
C573 C569 1.408 . S
C573 C572 1.404 . S
C573 H585 0.930 . S
C574 C570 1.524 . S
C574 H586 0.956 . S
C574 H587 0.961 . S
C574 H588 0.961 . S
C575 C572 1.539 . S
C575 H589 0.958 . S
C575 H590 0.961 . S
C575 H591 0.960 . S
H576 C560 0.931 . S
H577 C565 0.929 . S
H578 C566 0.960 . S
H579 C566 0.962 . S
H580 C566 0.960 . S
H581 C567 0.961 . S
H582 C567 0.961 . S
H583 C567 0.961 . S
H584 C568 0.931 . S
H585 C573 0.930 . S
H586 C574 0.956 . S
H587 C574 0.961 . S
H588 C574 0.961 . S
H589 C575 0.958 . S
H590 C575 0.961 . S
H591 C575 0.960 . S
C592 C593 1.391 . S
C592 C594 1.394 . S
C592 H608 0.931 . S
C593 C592 1.391 . S
C593 C597 1.376 . S
C594 C592 1.394 . S
C594 C595 1.369 . S
C594 C598 1.531 1_545 S
C595 C594 1.369 . S
C595 C596 1.410 . S
C595 C603 1.503 1_545 S
C596 C595 1.410 . S
C596 C597 1.392 . S
C596 C599 1.511 . S
C597 C593 1.376 . S
C597 C596 1.392 . S
C597 H609 0.929 . S
C598 C594 1.531 1_565 S
C598 H610 0.960 . S
C598 H611 0.962 1_565 S
C598 H612 0.960 . S
C599 C596 1.511 . S
C599 H613 0.961 . S
C599 H614 0.961 . S
C599 H615 0.961 1_545 S
C600 C601 1.370 . S
C600 C602 1.363 . S
C600 H616 0.931 . S
C601 C600 1.370 . S
C601 C605 1.408 . S
C602 C600 1.363 . S
C602 C603 1.370 . S
C602 C606 1.524 1_565 S
C603 C595 1.503 1_565 S
C603 C602 1.370 . S
C603 C604 1.403 . S
C604 C603 1.403 . S
C604 C605 1.404 . S
C604 C607 1.539 . S
C605 C601 1.408 . S
C605 C604 1.404 . S
C605 H617 0.930 . S
C606 C602 1.524 1_545 S
C606 H618 0.956 . S
C606 H619 0.961 . S
C606 H620 0.961 . S
C607 C604 1.539 . S
C607 H621 0.958 . S
C607 H622 0.961 . S
C607 H623 0.960 . S
H608 C592 0.931 . S
H609 C597 0.929 . S
H610 C598 0.960 . S
H611 C598 0.962 1_545 S
H612 C598 0.960 . S
H613 C599 0.961 . S
H614 C599 0.961 . S
H615 C599 0.961 1_565 S
H616 C600 0.931 . S
H617 C605 0.930 . S
H618 C606 0.956 . S
H619 C606 0.961 . S
H620 C606 0.961 . S
H621 C607 0.958 . S
H622 C607 0.961 . S
H623 C607 0.960 . S
C624 C625 1.391 . S
C624 C626 1.394 . S
C624 H640 0.931 1_455 S
C625 C624 1.391 . S
C625 C629 1.376 . S
C626 C624 1.394 . S
C626 C627 1.369 . S
C626 C630 1.531 1_465 S
C627 C626 1.369 . S
C627 C628 1.410 . S
C627 C635 1.503 1_564 S
C628 C627 1.410 . S
C628 C629 1.392 . S
C628 C631 1.511 1_554 S
C629 C625 1.376 . S
C629 C628 1.392 . S
C629 H641 0.929 . S
C630 C626 1.531 1_645 S
C630 H642 0.960 . S
C630 H643 0.962 . S
C630 H644 0.960 . S
C631 C628 1.511 1_556 S
C631 H645 0.961 . S
C631 H646 0.961 . S
C631 H647 0.961 . S
C632 C633 1.370 . S
C632 C634 1.363 . S
C632 H648 0.931 1_455 S
C633 C632 1.370 . S
C633 C637 1.408 . S
C634 C632 1.363 . S
C634 C635 1.370 . S
C634 C638 1.524 1_445 S
C635 C627 1.503 1_546 S
C635 C634 1.370 . S
C635 C636 1.403 . S
C636 C635 1.403 . S
C636 C637 1.404 . S
C636 C639 1.539 1_556 S
C637 C633 1.408 . S
C637 C636 1.404 . S
C637 H649 0.930 . S
C638 C634 1.524 1_665 S
C638 H650 0.956 . S
C638 H651 0.961 . S
C638 H652 0.961 . S
C639 C636 1.539 1_554 S
C639 H653 0.958 . S
C639 H654 0.961 . S
C639 H655 0.960 . S
H640 C624 0.931 1_655 S
H641 C629 0.929 . S
H642 C630 0.960 . S
H643 C630 0.962 . S
H644 C630 0.960 . S
H645 C631 0.961 . S
H646 C631 0.961 . S
H647 C631 0.961 . S
H648 C632 0.931 1_655 S
H649 C637 0.930 . S
H650 C638 0.956 . S
H651 C638 0.961 . S
H652 C638 0.961 . S
H653 C639 0.958 . S
H654 C639 0.961 . S
H655 C639 0.960 . S
C656 C657 1.391 . S
C656 C658 1.394 . S
C656 H672 0.931 . S
C657 C656 1.391 . S
C657 C661 1.376 . S
C658 C656 1.394 . S
C658 C659 1.369 . S
C658 C662 1.531 . S
C659 C658 1.369 . S
C659 C660 1.410 . S
C659 C667 1.503 . S
C660 C659 1.410 . S
C660 C661 1.392 . S
C660 C663 1.511 . S
C661 C657 1.376 . S
C661 C660 1.392 . S
C661 H673 0.929 . S
C662 C658 1.531 . S
C662 H674 0.960 . S
C662 H675 0.962 . S
C662 H676 0.960 . S
C663 C660 1.511 . S
C663 H677 0.961 . S
C663 H678 0.961 . S
C663 H679 0.961 . S
C664 C665 1.370 . S
C664 C666 1.363 . S
C664 H680 0.931 . S
C665 C664 1.370 . S
C665 C669 1.408 . S
C666 C664 1.363 . S
C666 C667 1.370 . S
C666 C670 1.524 . S
C667 C659 1.503 . S
C667 C666 1.370 . S
C667 C668 1.403 . S
C668 C667 1.403 . S
C668 C669 1.404 . S
C668 C671 1.539 . S
C669 C665 1.408 . S
C669 C668 1.404 . S
C669 H681 0.930 . S
C670 C666 1.524 . S
C670 H682 0.956 . S
C670 H683 0.961 . S
C670 H684 0.961 . S
C671 C668 1.539 . S
C671 H685 0.958 . S
C671 H686 0.961 . S
C671 H687 0.960 . S
H672 C656 0.931 . S
H673 C661 0.929 . S
H674 C662 0.960 . S
H675 C662 0.962 . S
H676 C662 0.960 . S
H677 C663 0.961 . S
H678 C663 0.961 . S
H679 C663 0.961 . S
H680 C664 0.931 . S
H681 C669 0.930 . S
H682 C670 0.956 . S
H683 C670 0.961 . S
H684 C670 0.961 . S
H685 C671 0.958 . S
H686 C671 0.961 . S
H687 C671 0.960 . S
C688 C689 1.391 . S
C688 C690 1.394 . S
C688 H704 0.931 . S
C689 C688 1.391 . S
C689 C693 1.376 . S
C690 C688 1.394 . S
C690 C691 1.369 . S
C690 C694 1.531 . S
C691 C690 1.369 . S
C691 C692 1.410 . S
C691 C699 1.503 . S
C692 C691 1.410 . S
C692 C693 1.392 . S
C692 C695 1.511 . S
C693 C689 1.376 . S
C693 C692 1.392 . S
C693 H705 0.929 . S
C694 C690 1.531 . S
C694 H706 0.960 . S
C694 H707 0.962 . S
C694 H708 0.960 . S
C695 C692 1.511 . S
C695 H709 0.961 . S
C695 H710 0.961 . S
C695 H711 0.961 . S
C696 C697 1.370 . S
C696 C698 1.363 . S
C696 H712 0.931 . S
C697 C696 1.370 . S
C697 C701 1.408 . S
C698 C696 1.363 . S
C698 C699 1.370 . S
C698 C702 1.524 . S
C699 C691 1.503 . S
C699 C698 1.370 . S
C699 C700 1.403 . S
C700 C699 1.403 . S
C700 C701 1.404 . S
C700 C703 1.539 . S
C701 C697 1.408 . S
C701 C700 1.404 . S
C701 H713 0.930 . S
C702 C698 1.524 . S
C702 H714 0.956 . S
C702 H715 0.961 . S
C702 H716 0.961 . S
C703 C700 1.539 . S
C703 H717 0.958 . S
C703 H718 0.961 . S
C703 H719 0.960 . S
H704 C688 0.931 . S
H705 C693 0.929 . S
H706 C694 0.960 . S
H707 C694 0.962 . S
H708 C694 0.960 . S
H709 C695 0.961 . S
H710 C695 0.961 . S
H711 C695 0.961 . S
H712 C696 0.931 . S
H713 C701 0.930 . S
H714 C702 0.956 . S
H715 C702 0.961 . S
H716 C702 0.961 . S
H717 C703 0.958 . S
H718 C703 0.961 . S
H719 C703 0.960 . S
C720 C721 1.391 . S
C720 C722 1.394 . S
C720 H736 0.931 . S
C721 C720 1.391 . S
C721 C725 1.376 . S
C722 C720 1.394 . S
C722 C723 1.369 . S
C722 C726 1.531 . S
C723 C722 1.369 . S
C723 C724 1.410 . S
C723 C731 1.503 1_655 S
C724 C723 1.410 . S
C724 C725 1.392 . S
C724 C727 1.511 1_655 S
C725 C721 1.376 . S
C725 C724 1.392 . S
C725 H737 0.929 . S
C726 C722 1.531 . S
C726 H738 0.960 . S
C726 H739 0.962 . S
C726 H740 0.960 . S
C727 C724 1.511 1_455 S
C727 H741 0.961 . S
C727 H742 0.961 . S
C727 H743 0.961 . S
C728 C729 1.370 . S
C728 C730 1.363 . S
C728 H744 0.931 . S
C729 C728 1.370 . S
C729 C733 1.408 . S
C730 C728 1.363 . S
C730 C731 1.370 . S
C730 C734 1.524 . S
C731 C723 1.503 1_455 S
C731 C730 1.370 . S
C731 C732 1.403 . S
C732 C731 1.403 . S
C732 C733 1.404 . S
C732 C735 1.539 . S
C733 C729 1.408 . S
C733 C732 1.404 . S
C733 H745 0.930 . S
C734 C730 1.524 . S
C734 H746 0.956 . S
C734 H747 0.961 . S
C734 H748 0.961 . S
C735 C732 1.539 . S
C735 H749 0.958 1_455 S
C735 H750 0.961 . S
C735 H751 0.960 1_455 S
H736 C720 0.931 . S
H737 C725 0.929 . S
H738 C726 0.960 . S
H739 C726 0.962 . S
H740 C726 0.960 . S
H741 C727 0.961 . S
H742 C727 0.961 . S
H743 C727 0.961 . S
H744 C728 0.931 . S
H745 C733 0.930 . S
H746 C734 0.956 . S
H747 C734 0.961 . S
H748 C734 0.961 . S
H749 C735 0.958 1_655 S
H750 C735 0.961 . S
H751 C735 0.960 1_655 S
C752 C753 1.391 . S
C752 C754 1.394 . S
C752 H768 0.931 . S
C753 C752 1.391 . S
C753 C757 1.376 . S
C754 C752 1.394 . S
C754 C755 1.369 . S
C754 C758 1.531 . S
C755 C754 1.369 . S
C755 C756 1.410 . S
C755 C763 1.503 1_455 S
C756 C755 1.410 . S
C756 C757 1.392 . S
C756 C759 1.511 1_455 S
C757 C753 1.376 . S
C757 C756 1.392 . S
C757 H769 0.929 . S
C758 C754 1.531 . S
C758 H770 0.960 1_455 S
C758 H771 0.962 . S
C758 H772 0.960 . S
C759 C756 1.511 1_655 S
C759 H773 0.961 . S
C759 H774 0.961 . S
C759 H775 0.961 . S
C760 C761 1.370 . S
C760 C762 1.363 1_655 S
C760 H776 0.931 1_655 S
C761 C760 1.370 . S
C761 C765 1.408 . S
C762 C760 1.363 1_455 S
C762 C763 1.370 1_455 S
C762 C766 1.524 . S
C763 C755 1.503 1_655 S
C763 C762 1.370 1_655 S
C763 C764 1.403 . S
C764 C763 1.403 . S
C764 C765 1.404 . S
C764 C767 1.539 . S
C765 C761 1.408 . S
C765 C764 1.404 . S
C765 H777 0.930 . S
C766 C762 1.524 . S
C766 H778 0.956 . S
C766 H779 0.961 . S
C766 H780 0.961 . S
C767 C764 1.539 . S
C767 H781 0.958 . S
C767 H782 0.961 . S
C767 H783 0.960 . S
H768 C752 0.931 . S
H769 C757 0.929 . S
H770 C758 0.960 1_655 S
H771 C758 0.962 . S
H772 C758 0.960 . S
H773 C759 0.961 . S
H774 C759 0.961 . S
H775 C759 0.961 . S
H776 C760 0.931 1_455 S
H777 C765 0.930 . S
H778 C766 0.956 . S
H779 C766 0.961 . S
H780 C766 0.961 . S
H781 C767 0.958 . S
H782 C767 0.961 . S
H783 C767 0.960 . S
C784 C785 1.391 . S
C784 C786 1.394 . S
C784 H800 0.931 . S
C785 C784 1.391 . S
C785 C789 1.376 . S
C786 C784 1.394 . S
C786 C787 1.369 . S
C786 C790 1.531 . S
C787 C786 1.369 . S
C787 C788 1.410 . S
C787 C795 1.503 . S
C788 C787 1.410 . S
C788 C789 1.392 . S
C788 C791 1.511 . S
C789 C785 1.376 . S
C789 C788 1.392 . S
C789 H801 0.929 . S
C790 C786 1.531 . S
C790 H802 0.960 . S
C790 H803 0.962 . S
C790 H804 0.960 . S
C791 C788 1.511 . S
C791 H805 0.961 . S
C791 H806 0.961 . S
C791 H807 0.961 . S
C792 C793 1.370 . S
C792 C794 1.363 . S
C792 H808 0.931 . S
C793 C792 1.370 . S
C793 C797 1.408 . S
C794 C792 1.363 . S
C794 C795 1.370 . S
C794 C798 1.524 . S
C795 C787 1.503 . S
C795 C794 1.370 . S
C795 C796 1.403 . S
C796 C795 1.403 . S
C796 C797 1.404 . S
C796 C799 1.539 . S
C797 C793 1.408 . S
C797 C796 1.404 . S
C797 H809 0.930 . S
C798 C794 1.524 . S
C798 H810 0.956 . S
C798 H811 0.961 . S
C798 H812 0.961 . S
C799 C796 1.539 . S
C799 H813 0.958 . S
C799 H814 0.961 . S
C799 H815 0.960 . S
H800 C784 0.931 . S
H801 C789 0.929 . S
H802 C790 0.960 . S
H803 C790 0.962 . S
H804 C790 0.960 . S
H805 C791 0.961 . S
H806 C791 0.961 . S
H807 C791 0.961 . S
H808 C792 0.931 . S
H809 C797 0.930 . S
H810 C798 0.956 . S
H811 C798 0.961 . S
H812 C798 0.961 . S
H813 C799 0.958 . S
H814 C799 0.961 . S
H815 C799 0.960 . S
C816 C817 1.391 . S
C816 C818 1.394 . S
C816 H832 0.931 . S
C817 C816 1.391 . S
C817 C821 1.376 . S
C818 C816 1.394 . S
C818 C819 1.369 . S
C818 C822 1.531 . S
C819 C818 1.369 . S
C819 C820 1.410 . S
C819 C827 1.503 1_455 S
C820 C819 1.410 . S
C820 C821 1.392 . S
C820 C823 1.511 1_455 S
C821 C817 1.376 . S
C821 C820 1.392 . S
C821 H833 0.929 . S
C822 C818 1.531 . S
C822 H834 0.960 1_455 S
C822 H835 0.962 . S
C822 H836 0.960 . S
C823 C820 1.511 1_655 S
C823 H837 0.961 . S
C823 H838 0.961 . S
C823 H839 0.961 . S
C824 C825 1.370 . S
C824 C826 1.363 1_655 S
C824 H840 0.931 1_655 S
C825 C824 1.370 . S
C825 C829 1.408 . S
C826 C824 1.363 1_455 S
C826 C827 1.370 1_455 S
C826 C830 1.524 . S
C827 C819 1.503 1_655 S
C827 C826 1.370 1_655 S
C827 C828 1.403 . S
C828 C827 1.403 . S
C828 C829 1.404 . S
C828 C831 1.539 . S
C829 C825 1.408 . S
C829 C828 1.404 . S
C829 H841 0.930 . S
C830 C826 1.524 . S
C830 H842 0.956 . S
C830 H843 0.961 . S
C830 H844 0.961 . S
C831 C828 1.539 . S
C831 H845 0.958 . S
C831 H846 0.961 . S
C831 H847 0.960 . S
H832 C816 0.931 . S
H833 C821 0.929 . S
H834 C822 0.960 1_655 S
H835 C822 0.962 . S
H836 C822 0.960 . S
H837 C823 0.961 . S
H838 C823 0.961 . S
H839 C823 0.961 . S
H840 C824 0.931 1_455 S
H841 C829 0.930 . S
H842 C830 0.956 . S
H843 C830 0.961 . S
H844 C830 0.961 . S
H845 C831 0.958 . S
H846 C831 0.961 . S
H847 C831 0.960 . S
C848 C849 1.391 . S
C848 C850 1.394 . S
C848 H864 0.931 . S
C849 C848 1.391 . S
C849 C853 1.376 . S
C850 C848 1.394 . S
C850 C851 1.369 . S
C850 C854 1.531 . S
C851 C850 1.369 . S
C851 C852 1.410 . S
C851 C859 1.503 1_455 S
C852 C851 1.410 . S
C852 C853 1.392 . S
C852 C855 1.511 . S
C853 C849 1.376 . S
C853 C852 1.392 . S
C853 H865 0.929 . S
C854 C850 1.531 . S
C854 H866 0.960 . S
C854 H867 0.962 . S
C854 H868 0.960 . S
C855 C852 1.511 . S
C855 H869 0.961 . S
C855 H870 0.961 1_455 S
C855 H871 0.961 . S
C856 C857 1.370 . S
C856 C858 1.363 . S
C856 H872 0.931 . S
C857 C856 1.370 . S
C857 C861 1.408 . S
C858 C856 1.363 . S
C858 C859 1.370 . S
C858 C862 1.524 . S
C859 C851 1.503 1_655 S
C859 C858 1.370 . S
C859 C860 1.403 . S
C860 C859 1.403 . S
C860 C861 1.404 . S
C860 C863 1.539 1_655 S
C861 C857 1.408 . S
C861 C860 1.404 . S
C861 H873 0.930 . S
C862 C858 1.524 . S
C862 H874 0.956 . S
C862 H875 0.961 . S
C862 H876 0.961 . S
C863 C860 1.539 1_455 S
C863 H877 0.958 . S
C863 H878 0.961 1_455 S
C863 H879 0.960 . S
H864 C848 0.931 . S
H865 C853 0.929 . S
H866 C854 0.960 . S
H867 C854 0.962 . S
H868 C854 0.960 . S
H869 C855 0.961 . S
H870 C855 0.961 1_655 S
H871 C855 0.961 . S
H872 C856 0.931 . S
H873 C861 0.930 . S
H874 C862 0.956 . S
H875 C862 0.961 . S
H876 C862 0.961 . S
H877 C863 0.958 . S
H878 C863 0.961 1_655 S
H879 C863 0.960 . S
C880 C881 1.391 . S
C880 C882 1.394 . S
C880 H896 0.931 . S
C881 C880 1.391 . S
C881 C885 1.376 . S
C882 C880 1.394 . S
C882 C883 1.369 . S
C882 C886 1.531 . S
C883 C882 1.369 . S
C883 C884 1.410 . S
C883 C891 1.503 . S
C884 C883 1.410 . S
C884 C885 1.392 . S
C884 C887 1.511 . S
C885 C881 1.376 . S
C885 C884 1.392 . S
C885 H897 0.929 . S
C886 C882 1.531 . S
C886 H898 0.960 . S
C886 H899 0.962 . S
C886 H900 0.960 . S
C887 C884 1.511 . S
C887 H901 0.961 . S
C887 H902 0.961 . S
C887 H903 0.961 . S
C888 C889 1.370 . S
C888 C890 1.363 . S
C888 H904 0.931 . S
C889 C888 1.370 . S
C889 C893 1.408 . S
C890 C888 1.363 . S
C890 C891 1.370 . S
C890 C894 1.524 . S
C891 C883 1.503 . S
C891 C890 1.370 . S
C891 C892 1.403 . S
C892 C891 1.403 . S
C892 C893 1.404 . S
C892 C895 1.539 . S
C893 C889 1.408 . S
C893 C892 1.404 . S
C893 H905 0.930 . S
C894 C890 1.524 . S
C894 H906 0.956 . S
C894 H907 0.961 . S
C894 H908 0.961 . S
C895 C892 1.539 . S
C895 H909 0.958 . S
C895 H910 0.961 . S
C895 H911 0.960 . S
H896 C880 0.931 . S
H897 C885 0.929 . S
H898 C886 0.960 . S
H899 C886 0.962 . S
H900 C886 0.960 . S
H901 C887 0.961 . S
H902 C887 0.961 . S
H903 C887 0.961 . S
H904 C888 0.931 . S
H905 C893 0.930 . S
H906 C894 0.956 . S
H907 C894 0.961 . S
H908 C894 0.961 . S
H909 C895 0.958 . S
H910 C895 0.961 . S
H911 C895 0.960 . S
C912 C913 1.391 1_455 S
C912 C914 1.394 . S
C912 H928 0.931 . S
C913 C912 1.391 1_655 S
C913 C917 1.376 . S
C914 C912 1.394 . S
C914 C915 1.369 1_455 S
C914 C918 1.531 . S
C915 C914 1.369 1_655 S
C915 C916 1.410 . S
C915 C923 1.503 1_655 S
C916 C915 1.410 . S
C916 C917 1.392 . S
C916 C919 1.511 . S
C917 C913 1.376 . S
C917 C916 1.392 . S
C917 H929 0.929 . S
C918 C914 1.531 . S
C918 H930 0.960 . S
C918 H931 0.962 . S
C918 H932 0.960 . S
C919 C916 1.511 . S
C919 H933 0.961 . S
C919 H934 0.961 . S
C919 H935 0.961 . S
C920 C921 1.370 . S
C920 C922 1.363 . S
C920 H936 0.931 . S
C921 C920 1.370 . S
C921 C925 1.408 . S
C922 C920 1.363 . S
C922 C923 1.370 . S
C922 C926 1.524 1_455 S
C923 C915 1.503 1_455 S
C923 C922 1.370 . S
C923 C924 1.403 . S
C924 C923 1.403 . S
C924 C925 1.404 . S
C924 C927 1.539 . S
C925 C921 1.408 . S
C925 C924 1.404 . S
C925 H937 0.930 . S
C926 C922 1.524 1_655 S
C926 H938 0.956 1_655 S
C926 H939 0.961 . S
C926 H940 0.961 . S
C927 C924 1.539 . S
C927 H941 0.958 . S
C927 H942 0.961 1_455 S
C927 H943 0.960 1_455 S
H928 C912 0.931 . S
H929 C917 0.929 . S
H930 C918 0.960 . S
H931 C918 0.962 . S
H932 C918 0.960 . S
H933 C919 0.961 . S
H934 C919 0.961 . S
H935 C919 0.961 . S
H936 C920 0.931 . S
H937 C925 0.930 . S
H938 C926 0.956 1_455 S
H939 C926 0.961 . S
H940 C926 0.961 . S
H941 C927 0.958 . S
H942 C927 0.961 1_655 S
H943 C927 0.960 1_655 S
C944 C945 1.391 . S
C944 C946 1.394 . S
C944 H960 0.931 . S
C945 C944 1.391 . S
C945 C949 1.376 . S
C946 C944 1.394 . S
C946 C947 1.369 . S
C946 C950 1.531 . S
C947 C946 1.369 . S
C947 C948 1.410 . S
C947 C955 1.503 1_655 S
C948 C947 1.410 . S
C948 C949 1.392 . S
C948 C951 1.511 . S
C949 C945 1.376 . S
C949 C948 1.392 . S
C949 H961 0.929 . S
C950 C946 1.531 . S
C950 H962 0.960 1_655 S
C950 H963 0.962 . S
C950 H964 0.960 . S
C951 C948 1.511 . S
C951 H965 0.961 . S
C951 H966 0.961 . S
C951 H967 0.961 . S
C952 C953 1.370 . S
C952 C954 1.363 . S
C952 H968 0.931 . S
C953 C952 1.370 . S
C953 C957 1.408 . S
C954 C952 1.363 . S
C954 C955 1.370 . S
C954 C958 1.524 . S
C955 C947 1.503 1_455 S
C955 C954 1.370 . S
C955 C956 1.403 . S
C956 C955 1.403 . S
C956 C957 1.404 . S
C956 C959 1.539 . S
C957 C953 1.408 . S
C957 C956 1.404 . S
C957 H969 0.930 . S
C958 C954 1.524 . S
C958 H970 0.956 . S
C958 H971 0.961 1_455 S
C958 H972 0.961 . S
C959 C956 1.539 . S
C959 H973 0.958 . S
C959 H974 0.961 . S
C959 H975 0.960 . S
H960 C944 0.931 . S
H961 C949 0.929 . S
H962 C950 0.960 1_455 S
H963 C950 0.962 . S
H964 C950 0.960 . S
H965 C951 0.961 . S
H966 C951 0.961 . S
H967 C951 0.961 . S
H968 C952 0.931 . S
H969 C957 0.930 . S
H970 C958 0.956 . S
H971 C958 0.961 1_655 S
H972 C958 0.961 . S
H973 C959 0.958 . S
H974 C959 0.961 . S
H975 C959 0.960 . S
C976 C977 1.391 . S
C976 C978 1.394 . S
C976 H992 0.931 . S
C977 C976 1.391 . S
C977 C981 1.376 . S
C978 C976 1.394 . S
C978 C979 1.369 . S
C978 C982 1.531 . S
C979 C978 1.369 . S
C979 C980 1.410 . S
C979 C987 1.503 . S
C980 C979 1.410 . S
C980 C981 1.392 . S
C980 C983 1.511 . S
C981 C977 1.376 . S
C981 C980 1.392 . S
C981 H993 0.929 . S
C982 C978 1.531 . S
C982 H994 0.960 . S
C982 H995 0.962 . S
C982 H996 0.960 . S
C983 C980 1.511 . S
C983 H997 0.961 . S
C983 H998 0.961 . S
C983 H999 0.961 . S
C984 C985 1.370 . S
C984 C986 1.363 . S
C984 H1000 0.931 . S
C985 C984 1.370 . S
C985 C989 1.408 . S
C986 C984 1.363 . S
C986 C987 1.370 . S
C986 C990 1.524 . S
C987 C979 1.503 . S
C987 C986 1.370 . S
C987 C988 1.403 . S
C988 C987 1.403 . S
C988 C989 1.404 . S
C988 C991 1.539 . S
C989 C985 1.408 . S
C989 C988 1.404 . S
C989 H1001 0.930 . S
C990 C986 1.524 . S
C990 H1002 0.956 . S
C990 H1003 0.961 . S
C990 H1004 0.961 . S
C991 C988 1.539 . S
C991 H1005 0.958 . S
C991 H1006 0.961 . S
C991 H1007 0.960 . S
H992 C976 0.931 . S
H993 C981 0.929 . S
H994 C982 0.960 . S
H995 C982 0.962 . S
H996 C982 0.960 . S
H997 C983 0.961 . S
H998 C983 0.961 . S
H999 C983 0.961 . S
H1000 C984 0.931 . S
H1001 C989 0.930 . S
H1002 C990 0.956 . S
H1003 C990 0.961 . S
H1004 C990 0.961 . S
H1005 C991 0.958 . S
H1006 C991 0.961 . S
H1007 C991 0.960 . S
C1008 C1009 1.391 . S
C1008 C1010 1.394 . S
C1008 H1024 0.931 . S
C1009 C1008 1.391 . S
C1009 C1013 1.376 . S
C1010 C1008 1.394 . S
C1010 C1011 1.369 . S
C1010 C1014 1.531 . S
C1011 C1010 1.369 . S
C1011 C1012 1.410 . S
C1011 C1019 1.503 . S
C1012 C1011 1.410 . S
C1012 C1013 1.392 . S
C1012 C1015 1.511 . S
C1013 C1009 1.376 . S
C1013 C1012 1.392 . S
C1013 H1025 0.929 . S
C1014 C1010 1.531 . S
C1014 H1026 0.960 . S
C1014 H1027 0.962 . S
C1014 H1028 0.960 . S
C1015 C1012 1.511 . S
C1015 H1029 0.961 . S
C1015 H1030 0.961 . S
C1015 H1031 0.961 . S
C1016 C1017 1.370 . S
C1016 C1018 1.363 . S
C1016 H1032 0.931 . S
C1017 C1016 1.370 . S
C1017 C1021 1.408 . S
C1018 C1016 1.363 . S
C1018 C1019 1.370 . S
C1018 C1022 1.524 . S
C1019 C1011 1.503 . S
C1019 C1018 1.370 . S
C1019 C1020 1.403 . S
C1020 C1019 1.403 . S
C1020 C1021 1.404 . S
C1020 C1023 1.539 . S
C1021 C1017 1.408 . S
C1021 C1020 1.404 . S
C1021 H1033 0.930 . S
C1022 C1018 1.524 . S
C1022 H1034 0.956 . S
C1022 H1035 0.961 . S
C1022 H1036 0.961 . S
C1023 C1020 1.539 . S
C1023 H1037 0.958 . S
C1023 H1038 0.961 . S
C1023 H1039 0.960 . S
H1024 C1008 0.931 . S
H1025 C1013 0.929 . S
H1026 C1014 0.960 . S
H1027 C1014 0.962 . S
H1028 C1014 0.960 . S
H1029 C1015 0.961 . S
H1030 C1015 0.961 . S
H1031 C1015 0.961 . S
H1032 C1016 0.931 . S
H1033 C1021 0.930 . S
H1034 C1022 0.956 . S
H1035 C1022 0.961 . S
H1036 C1022 0.961 . S
H1037 C1023 0.958 . S
H1038 C1023 0.961 . S
H1039 C1023 0.960 . S
C1040 C1041 1.391 . S
C1040 C1042 1.394 1_455 S
C1040 H1056 0.931 . S
C1041 C1040 1.391 . S
C1041 C1045 1.376 . S
C1042 C1040 1.394 1_655 S
C1042 C1043 1.369 . S
C1042 C1046 1.531 . S
C1043 C1042 1.369 . S
C1043 C1044 1.410 . S
C1043 C1051 1.503 . S
C1044 C1043 1.410 . S
C1044 C1045 1.392 1_655 S
C1044 C1047 1.511 . S
C1045 C1041 1.376 . S
C1045 C1044 1.392 1_455 S
C1045 H1057 0.929 . S
C1046 C1042 1.531 . S
C1046 H1058 0.960 . S
C1046 H1059 0.962 1_655 S
C1046 H1060 0.960 . S
C1047 C1044 1.511 . S
C1047 H1061 0.961 1_655 S
C1047 H1062 0.961 . S
C1047 H1063 0.961 . S
C1048 C1049 1.370 1_455 S
C1048 C1050 1.363 . S
C1048 H1064 0.931 . S
C1049 C1048 1.370 1_655 S
C1049 C1053 1.408 . S
C1050 C1048 1.363 . S
C1050 C1051 1.370 1_455 S
C1050 C1054 1.524 . S
C1051 C1043 1.503 . S
C1051 C1050 1.370 1_655 S
C1051 C1052 1.403 . S
C1052 C1051 1.403 . S
C1052 C1053 1.404 . S
C1052 C1055 1.539 . S
C1053 C1049 1.408 . S
C1053 C1052 1.404 . S
C1053 H1065 0.930 . S
C1054 C1050 1.524 . S
C1054 H1066 0.956 . S
C1054 H1067 0.961 . S
C1054 H1068 0.961 . S
C1055 C1052 1.539 . S
C1055 H1069 0.958 . S
C1055 H1070 0.961 . S
C1055 H1071 0.960 . S
H1056 C1040 0.931 . S
H1057 C1045 0.929 . S
H1058 C1046 0.960 . S
H1059 C1046 0.962 1_455 S
H1060 C1046 0.960 . S
H1061 C1047 0.961 1_455 S
H1062 C1047 0.961 . S
H1063 C1047 0.961 . S
H1064 C1048 0.931 . S
H1065 C1053 0.930 . S
H1066 C1054 0.956 . S
H1067 C1054 0.961 . S
H1068 C1054 0.961 . S
H1069 C1055 0.958 . S
H1070 C1055 0.961 . S
H1071 C1055 0.960 . S
C1072 C1073 1.391 . S
C1072 C1074 1.394 . S
C1072 H1088 0.931 . S
C1073 C1072 1.391 . S
C1073 C1077 1.376 . S
C1074 C1072 1.394 . S
C1074 C1075 1.369 . S
C1074 C1078 1.531 . S
C1075 C1074 1.369 . S
C1075 C1076 1.410 . S
C1075 C1083 1.503 . S
C1076 C1075 1.410 . S
C1076 C1077 1.392 . S
C1076 C1079 1.511 . S
C1077 C1073 1.376 . S
C1077 C1076 1.392 . S
C1077 H1089 0.929 . S
C1078 C1074 1.531 . S
C1078 H1090 0.960 . S
C1078 H1091 0.962 . S
C1078 H1092 0.960 . S
C1079 C1076 1.511 . S
C1079 H1093 0.961 . S
C1079 H1094 0.961 . S
C1079 H1095 0.961 . S
C1080 C1081 1.370 . S
C1080 C1082 1.363 . S
C1080 H1096 0.931 . S
C1081 C1080 1.370 . S
C1081 C1085 1.408 . S
C1082 C1080 1.363 . S
C1082 C1083 1.370 . S
C1082 C1086 1.524 . S
C1083 C1075 1.503 . S
C1083 C1082 1.370 . S
C1083 C1084 1.403 . S
C1084 C1083 1.403 . S
C1084 C1085 1.404 . S
C1084 C1087 1.539 . S
C1085 C1081 1.408 . S
C1085 C1084 1.404 . S
C1085 H1097 0.930 . S
C1086 C1082 1.524 . S
C1086 H1098 0.956 . S
C1086 H1099 0.961 . S
C1086 H1100 0.961 . S
C1087 C1084 1.539 . S
C1087 H1101 0.958 . S
C1087 H1102 0.961 . S
C1087 H1103 0.960 . S
H1088 C1072 0.931 . S
H1089 C1077 0.929 . S
H1090 C1078 0.960 . S
H1091 C1078 0.962 . S
H1092 C1078 0.960 . S
H1093 C1079 0.961 . S
H1094 C1079 0.961 . S
H1095 C1079 0.961 . S
H1096 C1080 0.931 . S
H1097 C1085 0.930 . S
H1098 C1086 0.956 . S
H1099 C1086 0.961 . S
H1100 C1086 0.961 . S
H1101 C1087 0.958 . S
H1102 C1087 0.961 . S
H1103 C1087 0.960 . S
C1104 C1105 1.391 . S
C1104 C1106 1.394 . S
C1104 H1120 0.931 . S
C1105 C1104 1.391 . S
C1105 C1109 1.376 . S
C1106 C1104 1.394 . S
C1106 C1107 1.369 . S
C1106 C1110 1.531 . S
C1107 C1106 1.369 . S
C1107 C1108 1.410 . S
C1107 C1115 1.503 . S
C1108 C1107 1.410 . S
C1108 C1109 1.392 . S
C1108 C1111 1.511 . S
C1109 C1105 1.376 . S
C1109 C1108 1.392 . S
C1109 H1121 0.929 . S
C1110 C1106 1.531 . S
C1110 H1122 0.960 . S
C1110 H1123 0.962 . S
C1110 H1124 0.960 . S
C1111 C1108 1.511 . S
C1111 H1125 0.961 . S
C1111 H1126 0.961 . S
C1111 H1127 0.961 . S
C1112 C1113 1.370 . S
C1112 C1114 1.363 . S
C1112 H1128 0.931 . S
C1113 C1112 1.370 . S
C1113 C1117 1.408 . S
C1114 C1112 1.363 . S
C1114 C1115 1.370 . S
C1114 C1118 1.524 . S
C1115 C1107 1.503 . S
C1115 C1114 1.370 . S
C1115 C1116 1.403 . S
C1116 C1115 1.403 . S
C1116 C1117 1.404 . S
C1116 C1119 1.539 . S
C1117 C1113 1.408 . S
C1117 C1116 1.404 . S
C1117 H1129 0.930 . S
C1118 C1114 1.524 . S
C1118 H1130 0.956 . S
C1118 H1131 0.961 . S
C1118 H1132 0.961 . S
C1119 C1116 1.539 . S
C1119 H1133 0.958 . S
C1119 H1134 0.961 . S
C1119 H1135 0.960 . S
H1120 C1104 0.931 . S
H1121 C1109 0.929 . S
H1122 C1110 0.960 . S
H1123 C1110 0.962 . S
H1124 C1110 0.960 . S
H1125 C1111 0.961 . S
H1126 C1111 0.961 . S
H1127 C1111 0.961 . S
H1128 C1112 0.931 . S
H1129 C1117 0.930 . S
H1130 C1118 0.956 . S
H1131 C1118 0.961 . S
H1132 C1118 0.961 . S
H1133 C1119 0.958 . S
H1134 C1119 0.961 . S
H1135 C1119 0.960 . S
C1136 C1137 1.391 . S
C1136 C1138 1.394 . S
C1136 H1152 0.931 . S
C1137 C1136 1.391 . S
C1137 C1141 1.376 . S
C1138 C1136 1.394 . S
C1138 C1139 1.369 . S
C1138 C1142 1.531 . S
C1139 C1138 1.369 . S
C1139 C1140 1.410 . S
C1139 C1147 1.503 1_655 S
C1140 C1139 1.410 . S
C1140 C1141 1.392 . S
C1140 C1143 1.511 . S
C1141 C1137 1.376 . S
C1141 C1140 1.392 . S
C1141 H1153 0.929 . S
C1142 C1138 1.531 . S
C1142 H1154 0.960 1_655 S
C1142 H1155 0.962 . S
C1142 H1156 0.960 . S
C1143 C1140 1.511 . S
C1143 H1157 0.961 . S
C1143 H1158 0.961 1_655 S
C1143 H1159 0.961 . S
C1144 C1145 1.370 . S
C1144 C1146 1.363 . S
C1144 H1160 0.931 . S
C1145 C1144 1.370 . S
C1145 C1149 1.408 . S
C1146 C1144 1.363 . S
C1146 C1147 1.370 . S
C1146 C1150 1.524 . S
C1147 C1139 1.503 1_455 S
C1147 C1146 1.370 . S
C1147 C1148 1.403 . S
C1148 C1147 1.403 . S
C1148 C1149 1.404 . S
C1148 C1151 1.539 . S
C1149 C1145 1.408 . S
C1149 C1148 1.404 . S
C1149 H1161 0.930 . S
C1150 C1146 1.524 . S
C1150 H1162 0.956 1_455 S
C1150 H1163 0.961 1_455 S
C1150 H1164 0.961 . S
C1151 C1148 1.539 . S
C1151 H1165 0.958 . S
C1151 H1166 0.961 . S
C1151 H1167 0.960 . S
H1152 C1136 0.931 . S
H1153 C1141 0.929 . S
H1154 C1142 0.960 1_455 S
H1155 C1142 0.962 . S
H1156 C1142 0.960 . S
H1157 C1143 0.961 . S
H1158 C1143 0.961 1_455 S
H1159 C1143 0.961 . S
H1160 C1144 0.931 . S
H1161 C1149 0.930 . S
H1162 C1150 0.956 1_655 S
H1163 C1150 0.961 1_655 S
H1164 C1150 0.961 . S
H1165 C1151 0.958 . S
H1166 C1151 0.961 . S
H1167 C1151 0.960 . S
C273 C187 1.544 . S
C281 C17 1.548 . S
C305 C51 1.544 . S
C313 C221 1.548 . S
C337 C85 1.544 . S
C345 C255 1.548 . S
C369 C153 1.544 . S
C377 C119 1.548 . S
C401 C139 1.924 . S
C409 C1 1.901 . S
C433 C35 1.882 . S
C441 C173 1.911 . S
C465 C71 1.869 . S
C473 C205 1.901 . S
C497 C105 1.908 . S
C505 C239 1.916 . S
C529 C103 1.872 . S
C537 C241 1.903 . S
C561 C37 1.891 . S
C569 C171 1.888 . S
C593 C69 1.921 . S
C601 C207 1.898 . S
C625 C3 1.926 . S
C633 C137 1.905 . S
C657 C15 1.200 . S
C665 C22 1.121 . S
C689 C49 1.123 . S
C697 C56 1.164 . S
C721 C83 1.105 . S
C729 C90 1.159 . S
C753 C124 1.076 . S
C761 C117 1.177 . S
C785 C158 1.075 . S
C793 C151 1.174 . S
C817 C192 1.076 . S
C825 C185 1.177 . S
C849 C219 1.078 . S
C857 C226 1.172 . S
C881 C260 1.115 . S
C889 C253 1.167 . S
C913 C6 1.907 . S
C921 C28 1.909 1_545 S
C945 C40 1.900 . S
C953 C62 1.905 . S
C977 C96 1.910 . S
C985 C74 1.904 1_565 S
C1009 C130 1.895 . S
C1017 C108 1.908 . S
C1041 C142 1.895 1_565 S
C1049 C164 1.911 . S
C1073 C176 1.896 . S
C1081 C198 1.907 . S
C1105 C210 1.894 . S
C1113 C232 1.910 1_545 S
C1137 C244 1.909 . S
C1145 C266 1.904 . S
