# Generated by pormake.
# Topology uoo, (4)-cn, num edge types: 1
# Building blocks:
#     Node 0, Type 0, BuildingBlock: QUQFOY_clean_sbu_1, # of connection points: 4
#     Node 1, Type 0, BuildingBlock: QUQFOY_clean_sbu_1, # of connection points: 4
#     Node 2, Type 0, BuildingBlock: QUQFOY_clean_sbu_1, # of connection points: 4
#     Node 3, Type 0, BuildingBlock: QUQFOY_clean_sbu_1, # of connection points: 4
#     Node 4, Type 0, BuildingBlock: QUQFOY_clean_sbu_1, # of connection points: 4
#     Node 5, Type 0, BuildingBlock: QUQFOY_clean_sbu_1, # of connection points: 4
#     Edge 6, Type (0, 0), BuildingBlock: UVAHIK_clean_linker_0, # of connection points: 2
#     Edge 7, Type (0, 0), BuildingBlock: UVAHIK_clean_linker_0, # of connection points: 2
#     Edge 8, Type (0, 0), BuildingBlock: UVAHIK_clean_linker_0, # of connection points: 2
#     Edge 9, Type (0, 0), BuildingBlock: UVAHIK_clean_linker_0, # of connection points: 2
#     Edge 10, Type (0, 0), BuildingBlock: UVAHIK_clean_linker_0, # of connection points: 2
#     Edge 11, Type (0, 0), BuildingBlock: UVAHIK_clean_linker_0, # of connection points: 2
#     Edge 12, Type (0, 0), BuildingBlock: UVAHIK_clean_linker_0, # of connection points: 2
#     Edge 13, Type (0, 0), BuildingBlock: UVAHIK_clean_linker_0, # of connection points: 2
#     Edge 14, Type (0, 0), BuildingBlock: UVAHIK_clean_linker_0, # of connection points: 2
#     Edge 15, Type (0, 0), BuildingBlock: UVAHIK_clean_linker_0, # of connection points: 2
#     Edge 16, Type (0, 0), BuildingBlock: UVAHIK_clean_linker_0, # of connection points: 2
#     Edge 17, Type (0, 0), BuildingBlock: UVAHIK_clean_linker_0, # of connection points: 2
# Relax obj value: 0.246
# Max RMSD: 0.196
# Mean RMSD: 0.196
data_MOF--net-uoo--node1-QUQFOY_clean_sbu_1--edge1-UVAHIK_clean_linker_0
_symmetry_space_group_name_H-M    P1
_symmetry_Int_Tables_number       1
_symmetry_cell_setting            triclinic
loop_
_symmetry_equiv_pos_as_xyz
'x, y, z'
_cell_length_a     31.997898
_cell_length_b     32.002431
_cell_length_c     53.049282
_cell_angle_alpha  90.018457
_cell_angle_beta   89.958956
_cell_angle_gamma 120.01165
loop_
_atom_site_label
_atom_site_type_symbol
_atom_site_fract_x
_atom_site_fract_y
_atom_site_fract_z
_atom_type_partial_charge
O0 O 0.17082 0.27498 0.95796 0.0
Cd1 Cd 0.17388 0.31937 0.98707 0.0
Cd2 Cd 0.08631 0.24185 0.99661 0.0
O3 O 0.10117 0.21014 0.96673 0.0
O4 O 0.23983 0.37634 0.98396 0.0
O5 O 0.216 0.32897 0.01742 0.0
C6 C 0.24945 0.36631 0.00594 0.0
C7 C 0.08233 0.21642 0.03785 0.0
C8 C 0.13867 0.23173 0.95304 0.0
C9 C 0.08608 0.33238 0.98595 0.0
O10 O 0.05936 0.28722 0.9893 0.0
O11 O 0.13169 0.35126 0.98532 0.0
O12 O 0.04633 0.19345 0.02265 0.0
O13 O 0.12126 0.25295 0.0292 0.0
O14 O 0.90071 0.17079 0.29423 0.0
Cd15 Cd 0.85742 0.17301 0.32263 0.0
Cd16 Cd 0.84233 0.08233 0.32978 0.0
O17 O 0.88647 0.09627 0.299 0.0
O18 O 0.86726 0.23915 0.31915 0.0
O19 O 0.88874 0.21506 0.35325 0.0
C20 C 0.88579 0.24868 0.34138 0.0
C21 C 0.86603 0.07656 0.37018 0.0
C22 C 0.90722 0.13636 0.28742 0.0
C23 C 0.7543 0.0871 0.32039 0.0
O24 O 0.77046 0.05844 0.32363 0.0
O25 O 0.783 0.13243 0.31986 0.0
O26 O 0.85106 0.04084 0.35461 0.0
O27 O 0.86877 0.11617 0.36245 0.0
O28 O 0.71005 0.77174 0.65649 0.0
Cd29 Cd 0.75769 0.84362 0.66301 0.0
Cd30 Cd 0.68353 0.85805 0.65145 0.0
O31 O 0.64913 0.78369 0.6489 0.0
O32 O 0.8049 0.85071 0.68939 0.0
O33 O 0.74821 0.87052 0.695 0.0
C34 C 0.7834 0.86629 0.70408 0.0
C35 C 0.63671 0.88743 0.66962 0.0
C36 C 0.66577 0.75523 0.65133 0.0
C37 C 0.77384 0.9073 0.61909 0.0
O38 O 0.73183 0.90036 0.62374 0.0
O39 O 0.79188 0.88758 0.63264 0.0
O40 O 0.62855 0.8698 0.64718 0.0
O41 O 0.67237 0.88923 0.6819 0.0
O42 O 0.82412 0.72929 0.96006 0.0
Cd43 Cd 0.81986 0.68251 0.98826 0.0
Cd44 Cd 0.91167 0.75584 0.99525 0.0
O45 O 0.89975 0.78754 0.96452 0.0
O46 O 0.75265 0.62818 0.98487 0.0
O47 O 0.77867 0.67339 0.01907 0.0
C48 C 0.74406 0.6376 0.00722 0.0
C49 C 0.92081 0.78716 0.0355 0.0
C50 C 0.85951 0.76956 0.95315 0.0
C51 C 0.90245 0.66077 0.98574 0.0
O52 O 0.9322 0.70529 0.98911 0.0
O53 O 0.85739 0.64557 0.98516 0.0
O54 O 0.95639 0.80463 0.01973 0.0
O55 O 0.8794 0.75259 0.02797 0.0
O56 O 0.09954 0.82306 0.28972 0.0
Cd57 Cd 0.13958 0.81886 0.31915 0.0
Cd58 Cd 0.15268 0.90786 0.3281 0.0
O59 O 0.10703 0.89402 0.29797 0.0
O60 O 0.12811 0.75209 0.31637 0.0
O61 O 0.10578 0.77767 0.34964 0.0
C62 C 0.10845 0.74334 0.33834 0.0
C63 C 0.13377 0.92281 0.36807 0.0
C64 C 0.09006 0.85621 0.28447 0.0
C65 C 0.24173 0.90358 0.31806 0.0
O66 O 0.22454 0.93141 0.3212 0.0
O67 O 0.21384 0.85817 0.31745 0.0
O68 O 0.14963 0.95558 0.35076 0.0
O69 O 0.12698 0.88059 0.36229 0.0
O70 O 0.29063 0.22554 0.65887 0.0
Cd71 Cd 0.2424 0.1531 0.66442 0.0
Cd72 Cd 0.31904 0.14089 0.65779 0.0
O73 O 0.35361 0.21509 0.65827 0.0
O74 O 0.19178 0.1461 0.68855 0.0
O75 O 0.24647 0.12489 0.69725 0.0
C76 C 0.2105 0.12967 0.70453 0.0
C77 C 0.36286 0.10841 0.67633 0.0
C78 C 0.33603 0.24292 0.65781 0.0
C79 C 0.23673 0.09503 0.61993 0.0
O80 O 0.2789 0.10477 0.62645 0.0
O81 O 0.21343 0.10956 0.63322 0.0
O82 O 0.37547 0.13111 0.6552 0.0
O83 O 0.32452 0.10343 0.68717 0.0
C84 C 0.21535 0.10456 0.74872 0.0
C85 C 0.19372 0.12047 0.73101 0.0
C86 C 0.20406 0.10234 0.77435 0.0
C87 C 0.11931 0.11099 0.81982 0.0
H88 H 0.23197 0.16949 0.8631 0.0
C89 C 0.18544 0.23202 0.91517 0.0
C90 C 0.14429 0.20758 0.9305 0.0
C91 C 0.18954 0.2112 0.89289 0.0
C92 C 0.20009 0.15302 0.85129 0.0
H93 H 0.1413 0.14395 0.72613 0.0
H94 H 0.12243 0.14111 0.77063 0.0
H95 H 0.23993 0.14998 0.81973 0.0
H96 H 0.07587 0.14114 0.93482 0.0
H97 H 0.08331 0.10452 0.89589 0.0
H98 H 0.08017 0.11698 0.85099 0.0
C99 C 0.14759 0.12962 0.76486 0.0
C100 C 0.20451 0.14118 0.82647 0.0
C101 C 0.1587 0.1316 0.73928 0.0
C102 C 0.10796 0.16106 0.92339 0.0
C103 C 0.1121 0.14015 0.90102 0.0
C104 C 0.11495 0.12309 0.84463 0.0
C105 C 0.17104 0.11618 0.78281 0.0
C106 C 0.16447 0.12132 0.81019 0.0
C107 C 0.15269 0.16528 0.88535 0.0
C108 C 0.15563 0.14561 0.86042 0.0
H109 H 0.24222 0.09536 0.74293 0.0
H110 H 0.22216 0.09101 0.78761 0.0
H111 H 0.08755 0.09496 0.80793 0.0
H112 H 0.21415 0.26789 0.92003 0.0
H113 H 0.22093 0.23199 0.88111 0.0
C114 C 0.9266 0.10331 0.24927 0.0
C115 C 0.93719 0.14262 0.26503 0.0
C116 C 0.95131 0.11038 0.2265 0.0
C117 C 0.02355 0.20859 0.18077 0.0
H118 H 0.03764 0.10831 0.1476 0.0
C119 C 0.10913 0.23719 0.08262 0.0
C120 C 0.0775 0.20368 0.06488 0.0
C121 C 0.10021 0.22838 0.10841 0.0
C122 C 0.03413 0.13666 0.15677 0.0
H123 H 0.9841 0.21946 0.27038 0.0
H124 H 0.02916 0.23154 0.23151 0.0
H125 H 0.00837 0.09656 0.19106 0.0
H126 H 0.01375 0.13325 0.06019 0.0
H127 H 0.99877 0.11753 0.10534 0.0
H128 H 0.04977 0.24872 0.14652 0.0
C129 C 0.00028 0.19553 0.23593 0.0
C130 C 0.01702 0.12988 0.18158 0.0
C131 C 0.97475 0.18863 0.25836 0.0
C132 C 0.03861 0.15984 0.07343 0.0
C133 C 0.03017 0.1507 0.09924 0.0
C134 C 0.04151 0.21567 0.15623 0.0
C135 C 0.98792 0.1568 0.21926 0.0
C136 C 0.0106 0.16543 0.19378 0.0
C137 C 0.06003 0.18555 0.11692 0.0
C138 C 0.04618 0.1795 0.14385 0.0
H139 H 0.8976 0.06745 0.25394 0.0
H140 H 0.94014 0.07967 0.21415 0.0
H141 H 0.01815 0.23642 0.18908 0.0
H142 H 0.13942 0.27129 0.07661 0.0
H143 H 0.12386 0.25568 0.12173 0.0
C144 C 0.86934 0.09704 0.41579 0.0
C145 C 0.87614 0.07073 0.39667 0.0
C146 C 0.8717 0.08641 0.44113 0.0
C147 C 0.85981 0.98493 0.48045 0.0
H148 H 0.88495 0.07583 0.53466 0.0
C149 C 0.83515 0.9282 0.58491 0.0
C150 C 0.80028 0.93594 0.59675 0.0
C151 C 0.85566 0.95078 0.562 0.0
C152 C 0.87823 0.05024 0.51966 0.0
H153 H 0.89459 0.0155 0.38884 0.0
H154 H 0.90163 0.99882 0.43294 0.0
H155 H 0.90323 0.10484 0.49123 0.0
H156 H 0.76181 0.97563 0.59477 0.0
H157 H 0.79859 0.01594 0.55503 0.0
H158 H 0.83518 0.93054 0.50906 0.0
C159 C 0.89212 0.02606 0.42858 0.0
C160 C 0.88826 0.06667 0.49475 0.0
C161 C 0.88854 0.03587 0.40326 0.0
C162 C 0.78838 0.96878 0.586 0.0
C163 C 0.80962 0.99208 0.56337 0.0
C164 C 0.8508 0.96878 0.50535 0.0
C165 C 0.882 0.04993 0.4479 0.0
C166 C 0.8779 0.03401 0.47469 0.0
C167 C 0.84246 0.9823 0.55086 0.0
C168 C 0.85877 0.00105 0.5251 0.0
H169 H 0.85949 0.12398 0.41121 0.0
H170 H 0.863 0.10525 0.45526 0.0
H171 H 0.8503 0.95831 0.4657 0.0
H172 H 0.84496 0.90302 0.59273 0.0
H173 H 0.88096 0.94276 0.55266 0.0
C174 C 0.8085 0.78736 0.92455 0.0
C175 C 0.85401 0.79412 0.93093 0.0
C176 C 0.80213 0.80675 0.90229 0.0
C177 C 0.8689 0.88832 0.84787 0.0
H178 H 0.74896 0.80475 0.81303 0.0
C179 C 0.83935 0.87879 0.73985 0.0
C180 C 0.79614 0.87498 0.73107 0.0
C181 C 0.84826 0.87999 0.76569 0.0
C182 C 0.78232 0.82888 0.82269 0.0
H183 H 0.9289 0.82753 0.9195 0.0
H184 H 0.91753 0.85916 0.87997 0.0
H185 H 0.76054 0.78493 0.8556 0.0
H186 H 0.72949 0.87188 0.7424 0.0
H187 H 0.74465 0.87274 0.78763 0.0
H188 H 0.89146 0.93023 0.81382 0.0
C189 C 0.88686 0.84038 0.89244 0.0
C190 C 0.789 0.81771 0.84722 0.0
C191 C 0.89343 0.82196 0.91506 0.0
C192 C 0.76311 0.87482 0.7486 0.0
C193 C 0.77166 0.87517 0.77445 0.0
C194 C 0.86249 0.89893 0.82307 0.0
C195 C 0.84088 0.83222 0.88549 0.0
C196 C 0.8326 0.84692 0.86012 0.0
C197 C 0.81378 0.87662 0.7832 0.0
C198 C 0.81929 0.869 0.81022 0.0
H199 H 0.77762 0.7666 0.93668 0.0
H200 H 0.7665 0.8009 0.89807 0.0
H201 H 0.90258 0.91226 0.85727 0.0
H202 H 0.86556 0.8792 0.72676 0.0
H203 H 0.88087 0.8808 0.77198 0.0
C204 C 0.04301 0.80992 0.24667 0.0
C205 C 0.06085 0.85135 0.26184 0.0
C206 C 0.01854 0.80643 0.22432 0.0
C207 C 0.95111 0.79791 0.18248 0.0
H208 H 0.00974 0.90991 0.13872 0.0
C209 C 0.89028 0.7837 0.07945 0.0
C210 C 0.92838 0.80394 0.06197 0.0
C211 C 0.89901 0.79515 0.10507 0.0
C212 C 0.99285 0.87833 0.15073 0.0
H213 H 0.0653 0.92096 0.26582 0.0
H214 H 0.02206 0.91462 0.22678 0.0
H215 H 0.03812 0.91679 0.18195 0.0
H216 H 0.005 0.85407 0.05744 0.0
H217 H 0.02038 0.87317 0.10194 0.0
H218 H 0.90804 0.75864 0.15088 0.0
C219 C 0.02765 0.88511 0.23209 0.0
C220 C 0.00872 0.88241 0.17563 0.0
C221 C 0.05224 0.88863 0.25451 0.0
C222 C 0.97484 0.83774 0.07042 0.0
C223 C 0.9836 0.84901 0.09599 0.0
C224 C 0.93542 0.79376 0.15757 0.0
C225 C 0.01108 0.8442 0.21656 0.0
C226 C 0.98907 0.84185 0.19155 0.0
C227 C 0.94605 0.82695 0.11373 0.0
C228 C 0.95711 0.83356 0.14116 0.0
H229 H 0.04894 0.78049 0.2517 0.0
H230 H 0.00704 0.77475 0.21266 0.0
H231 H 0.93457 0.76619 0.1944 0.0
H232 H 0.85397 0.75781 0.0735 0.0
H233 H 0.86912 0.77813 0.11817 0.0
C234 C 0.24569 0.06052 0.57941 0.0
C235 C 0.21652 0.06948 0.59581 0.0
C236 C 0.229 0.04091 0.55558 0.0
C237 C 0.12336 0.97122 0.51609 0.0
H238 H 0.21088 0.04424 0.46176 0.0
C239 C 0.11648 0.90148 0.4139 0.0
C240 C 0.12775 0.93493 0.39424 0.0
C241 C 0.11834 0.91569 0.43903 0.0
C242 C 0.18578 0.0237 0.47667 0.0
H243 H 0.1459 0.06248 0.60046 0.0
H244 H 0.11648 0.0274 0.55863 0.0
H245 H 0.23223 0.07198 0.50506 0.0
H246 H 0.14621 0.00844 0.38542 0.0
H247 H 0.14952 0.03305 0.42914 0.0
H248 H 0.07737 0.92227 0.48746 0.0
C249 C 0.15241 0.03603 0.56437 0.0
C250 C 0.19824 0.03934 0.50146 0.0
C251 C 0.16934 0.05625 0.58823 0.0
C252 C 0.13784 0.9819 0.40012 0.0
C253 C 0.13986 0.99608 0.42516 0.0
C254 C 0.1111 0.95511 0.49117 0.0
C255 C 0.1826 0.02931 0.54765 0.0
C256 C 0.16744 0.01309 0.52142 0.0
C257 C 0.13169 0.96361 0.44489 0.0
C258 C 0.14236 0.98121 0.47125 0.0
H259 H 0.2821 0.06999 0.58462 0.0
H260 H 0.25274 0.03549 0.54314 0.0
H261 H 0.09907 0.95037 0.53121 0.0
H262 H 0.1084 0.86497 0.40997 0.0
H263 H 0.11204 0.88996 0.45388 0.0
C264 C 0.32972 0.44143 0.00619 0.0
C265 C 0.29784 0.39651 0.01705 0.0
C266 C 0.37686 0.46878 0.01503 0.0
C267 C 0.47092 0.45281 0.04316 0.0
H268 H 0.54089 0.59276 0.04114 0.0
C269 C 0.67968 0.62543 0.03839 0.0
C270 C 0.69556 0.60818 0.01833 0.0
C271 C 0.63185 0.59881 0.04688 0.0
C272 C 0.52192 0.55375 0.04239 0.0
H273 H 0.28969 0.34583 0.04639 0.0
H274 H 0.3729 0.39364 0.0617 0.0
H275 H 0.45283 0.5491 0.04105 0.0
H276 H 0.67494 0.54852 0.99245 0.0
H277 H 0.59225 0.50238 0.0072 0.0
H278 H 0.54002 0.45743 0.04334 0.0
C279 C 0.36112 0.40755 0.04633 0.0
C280 C 0.47149 0.52874 0.04209 0.0
C281 C 0.31356 0.38028 0.03761 0.0
C282 C 0.66367 0.56294 0.00782 0.0
C283 C 0.61635 0.53621 0.01648 0.0
C284 C 0.52133 0.47782 0.0434 0.0
C285 C 0.39344 0.45178 0.03485 0.0
C286 C 0.44554 0.47801 0.04133 0.0
C287 C 0.59956 0.55421 0.03573 0.0
C288 C 0.54731 0.52847 0.04186 0.0
H289 H 0.31863 0.4551 0.99041 0.0
H290 H 0.40099 0.50229 0.00549 0.0
H291 H 0.45202 0.41375 0.04255 0.0
H292 H 0.70358 0.66019 0.04685 0.0
H293 H 0.61984 0.61349 0.06178 0.0
C294 C 0.93623 0.31366 0.37262 0.0
C295 C 0.90378 0.29719 0.35228 0.0
C296 C 0.9566 0.36151 0.38092 0.0
C297 C 0.94532 0.47152 0.37577 0.0
H298 H 0.08521 0.54043 0.3757 0.0
C299 C 0.10255 0.66286 0.33944 0.0
C300 C 0.08922 0.69499 0.34967 0.0
C301 C 0.08209 0.61578 0.34843 0.0
C302 C 0.04613 0.52166 0.3761 0.0
H303 H 0.86508 0.31684 0.32565 0.0
H304 H 0.90031 0.39962 0.34001 0.0
H305 H 0.04109 0.45243 0.37597 0.0
H306 H 0.04527 0.7036 0.37801 0.0
H307 H 0.00857 0.62036 0.39357 0.0
H308 H 0.95042 0.54072 0.3741 0.0
C309 C 0.91007 0.37593 0.3497 0.0
C310 C 0.02084 0.47125 0.37649 0.0
C311 C 0.89025 0.32854 0.34127 0.0
C312 C 0.05613 0.67953 0.36975 0.0
C313 C 0.0351 0.63197 0.3786 0.0
C314 C 0.97062 0.52194 0.37543 0.0
C315 C 0.94424 0.39332 0.36925 0.0
C316 C 0.97021 0.44567 0.37515 0.0
C317 C 0.04747 0.59946 0.36778 0.0
C318 C 0.02128 0.54744 0.37441 0.0
H319 H 0.94722 0.2902 0.38149 0.0
H320 H 0.98276 0.37393 0.39608 0.0
H321 H 0.90626 0.45272 0.3751 0.0
H322 H 0.12818 0.67375 0.32405 0.0
H323 H 0.09184 0.5915 0.33939 0.0
C324 C 0.43841 0.1044 0.67809 0.0
C325 C 0.39154 0.08827 0.68714 0.0
C326 C 0.46462 0.08293 0.68622 0.0
C327 C 0.44517 0.96685 0.70657 0.0
H328 H 0.58488 0.03755 0.71138 0.0
C329 C 0.6196 0.93357 0.70247 0.0
C330 C 0.60591 0.9051 0.68054 0.0
C331 C 0.59139 0.9526 0.7115 0.0
C332 C 0.54582 0.01712 0.71066 0.0
H333 H 0.33602 0.03837 0.71265 0.0
H334 H 0.38188 -9e-05 0.72665 0.0
H335 H 0.54035 0.08091 0.71379 0.0
H336 H 0.55097 0.87241 0.65158 0.0
H337 H 0.50223 0.90546 0.66718 0.0
H338 H 0.4508 0.90332 0.70235 0.0
C339 C 0.39822 0.0294 0.71329 0.0
C340 C 0.52036 0.04201 0.71182 0.0
C341 C 0.37207 0.05142 0.70533 0.0
C342 C 0.56269 0.89447 0.66844 0.0
C343 C 0.5344 0.91298 0.67756 0.0
C344 C 0.47064 0.94198 0.70537 0.0
C345 C 0.44449 0.04449 0.70347 0.0
C346 C 0.46998 0.01739 0.70864 0.0
C347 C 0.54874 0.94286 0.69894 0.0
C348 C 0.52136 0.96714 0.70625 0.0
H349 H 0.45455 0.13297 0.66419 0.0
H350 H 0.49981 0.09494 0.67798 0.0
H351 H 0.40639 0.94685 0.70401 0.0
H352 H 0.65268 0.94222 0.71223 0.0
H353 H 0.60325 0.97546 0.72805 0.0
C354 C 0.41935 0.31446 0.65675 0.0
C355 C 0.36914 0.29569 0.65609 0.0
C356 C 0.45106 0.36406 0.65531 0.0
C357 C 0.46063 0.47796 0.63446 0.0
H358 H 0.57028 0.53549 0.67985 0.0
C359 C 0.58287 0.68409 0.64566 0.0
C360 C 0.63261 0.70252 0.64924 0.0
C361 C 0.55094 0.63439 0.64526 0.0
C362 C 0.54028 0.51993 0.66678 0.0
H363 H 0.31291 0.3145 0.65322 0.0
H364 H 0.3686 0.40153 0.65074 0.0
H365 H 0.51351 0.44913 0.68195 0.0
H366 H 0.68793 0.683 0.65444 0.0
H367 H 0.63225 0.59618 0.65333 0.0
H368 H 0.48755 0.54879 0.6192 0.0
C369 C 0.38323 0.37757 0.65223 0.0
C370 C 0.50765 0.47045 0.66805 0.0
C371 C 0.35137 0.32778 0.6538 0.0
C372 C 0.64982 0.67004 0.65179 0.0
C373 C 0.61786 0.62026 0.65131 0.0
C374 C 0.49341 0.52749 0.63311 0.0
C375 C 0.43341 0.39618 0.6531 0.0
C376 C 0.4675 0.44892 0.6519 0.0
C377 C 0.56797 0.60187 0.64835 0.0
C378 C 0.53363 0.54905 0.64927 0.0
H379 H 0.43437 0.29085 0.65843 0.0
H380 H 0.48952 0.37725 0.65568 0.0
H381 H 0.43036 0.46225 0.62155 0.0
H382 H 0.56831 0.70805 0.64368 0.0
H383 H 0.51272 0.6215 0.64324 0.0
C384 C 0.88682 0.57611 0.98195 0.0
C385 C 0.91988 0.62595 0.98315 0.0
C386 C 0.90302 0.54297 0.98044 0.0
C387 C 0.00829 0.53139 0.96325 0.0
H388 H 0.94945 0.41925 0.00698 0.0
C389 C 0.09481 0.41406 0.98093 0.0
C390 C 0.06466 0.36386 0.98332 0.0
C391 C 0.07529 0.44436 0.97924 0.0
C392 C 0.96576 0.44992 0.99435 0.0
H393 H 0.99598 0.68 0.98331 0.0
H394 H 0.02423 0.62204 0.98064 0.0
H395 H 0.91911 0.47559 0.00706 0.0
H396 H 0.99014 0.30609 0.98542 0.0
H397 H 0.95593 0.35913 0.98212 0.0
H398 H 0.05501 0.50589 0.95056 0.0
C399 C 0.98574 0.60871 0.98074 0.0
C400 C 0.94844 0.48227 0.99444 0.0
C401 C 0.96955 0.6419 0.98241 0.0
C402 C 0.01439 0.34461 0.98367 0.0
C403 C 0.9948 0.37502 0.98192 0.0
C404 C 0.02547 0.49895 0.96307 0.0
C405 C 0.95264 0.55888 0.97993 0.0
C406 C 0.96983 0.52359 0.97907 0.0
C407 C 0.02508 0.4253 0.9798 0.0
C408 C 0.00477 0.45811 0.97883 0.0
H409 H 0.84829 0.56253 0.98245 0.0
H410 H 0.87666 0.50483 0.97955 0.0
H411 H 0.02499 0.56251 0.95091 0.0
H412 H 0.13371 0.43023 0.98069 0.0
H413 H 0.09971 0.48293 0.97806 0.0
C414 C 0.66888 0.01831 0.31764 0.0
C415 C 0.70174 0.06822 0.31789 0.0
C416 C 0.61923 0.00098 0.31609 0.0
C417 C 0.52855 0.03675 0.32908 0.0
H418 H 0.44624 0.92899 0.28575 0.0
C419 C 0.32647 0.97369 0.31597 0.0
C420 C 0.29451 0.92361 0.31582 0.0
C421 C 0.37634 0.99215 0.31478 0.0
C422 C 0.46866 0.95882 0.29813 0.0
H423 H 0.70809 0.139 0.31634 0.0
H424 H 0.62175 0.10871 0.31358 0.0
H425 H 0.53294 0.95895 0.28666 0.0
H426 H 0.29 0.85366 0.31405 0.0
H427 H 0.37664 0.88577 0.31239 0.0
H428 H 0.46441 0.0363 0.34087 0.0
C429 C 0.63432 0.08301 0.31483 0.0
C430 C 0.51831 0.97596 0.29863 0.0
C431 C 0.68386 0.10033 0.31627 0.0
C432 C 0.31352 0.89246 0.31413 0.0
C433 C 0.36329 0.91088 0.31301 0.0
C434 C 0.47892 0.01951 0.32866 0.0
C435 C 0.60144 0.03319 0.31488 0.0
C436 C 0.54876 0.01506 0.31414 0.0
C437 C 0.39534 0.96092 0.31347 0.0
C438 C 0.44834 0.98025 0.31324 0.0
H439 H 0.68144 0.99261 0.31888 0.0
H440 H 0.5947 0.96236 0.31637 0.0
H441 H 0.55101 0.06651 0.3415 0.0
H442 H 0.31303 0.99869 0.31715 0.0
H443 H 0.40002 0.03091 0.31481 0.0
loop_
_geom_bond_atom_site_label_1
_geom_bond_atom_site_label_2
_geom_bond_distance
_geom_bond_site_symmetry_2
_ccdc_geom_bond_type
O0 Cd1 2.223 . S
O0 C8 1.315 . S
Cd1 O0 2.223 . S
Cd1 O4 2.297 . S
Cd1 O5 2.439 1_556 S
Cd1 O11 2.240 1_556 S
Cd2 O3 2.240 1_554 S
Cd2 O10 2.223 1_554 S
Cd2 O12 2.297 . S
Cd2 O13 2.439 . S
O3 Cd2 2.240 1_556 S
O3 C8 1.279 . S
O4 Cd1 2.297 . S
O4 C6 1.247 1_556 S
O5 Cd1 2.439 1_554 S
O5 C6 1.208 . S
C6 O4 1.247 1_554 S
C6 O5 1.208 . S
C7 O12 1.247 . S
C7 O13 1.208 . S
C8 O0 1.315 . S
C8 O3 1.279 . S
C9 O10 1.315 . S
C9 O11 1.279 1_556 S
O10 Cd2 2.223 1_556 S
O10 C9 1.315 . S
O11 Cd1 2.240 1_554 S
O11 C9 1.279 1_554 S
O12 Cd2 2.297 . S
O12 C7 1.247 . S
O13 Cd2 2.439 . S
O13 C7 1.208 . S
O14 Cd15 2.223 . S
O14 C22 1.315 . S
Cd15 O14 2.223 . S
Cd15 O18 2.297 . S
Cd15 O19 2.439 . S
Cd15 O25 2.240 . S
Cd16 O17 2.240 . S
Cd16 O24 2.223 . S
Cd16 O26 2.297 . S
Cd16 O27 2.439 . S
O17 Cd16 2.240 . S
O17 C22 1.279 . S
O18 Cd15 2.297 . S
O18 C20 1.247 . S
O19 Cd15 2.439 . S
O19 C20 1.208 . S
C20 O18 1.247 . S
C20 O19 1.208 . S
C21 O26 1.247 . S
C21 O27 1.208 . S
C22 O14 1.315 . S
C22 O17 1.279 . S
C23 O24 1.315 . S
C23 O25 1.279 . S
O24 Cd16 2.223 . S
O24 C23 1.315 . S
O25 Cd15 2.240 . S
O25 C23 1.279 . S
O26 Cd16 2.297 . S
O26 C21 1.247 . S
O27 Cd16 2.439 . S
O27 C21 1.208 . S
O28 Cd29 2.223 . S
O28 C36 1.315 . S
Cd29 O28 2.223 . S
Cd29 O32 2.297 . S
Cd29 O33 2.439 . S
Cd29 O39 2.240 . S
Cd30 O31 2.240 . S
Cd30 O38 2.223 . S
Cd30 O40 2.297 . S
Cd30 O41 2.439 . S
O31 Cd30 2.240 . S
O31 C36 1.279 . S
O32 Cd29 2.297 . S
O32 C34 1.247 . S
O33 Cd29 2.439 . S
O33 C34 1.208 . S
C34 O32 1.247 . S
C34 O33 1.208 . S
C35 O40 1.247 . S
C35 O41 1.208 . S
C36 O28 1.315 . S
C36 O31 1.279 . S
C37 O38 1.315 . S
C37 O39 1.279 . S
O38 Cd30 2.223 . S
O38 C37 1.315 . S
O39 Cd29 2.240 . S
O39 C37 1.279 . S
O40 Cd30 2.297 . S
O40 C35 1.247 . S
O41 Cd30 2.439 . S
O41 C35 1.208 . S
O42 Cd43 2.223 . S
O42 C50 1.315 . S
Cd43 O42 2.223 . S
Cd43 O46 2.297 . S
Cd43 O47 2.439 1_556 S
Cd43 O53 2.240 1_556 S
Cd44 O45 2.240 1_554 S
Cd44 O52 2.223 1_554 S
Cd44 O54 2.297 . S
Cd44 O55 2.439 . S
O45 Cd44 2.240 1_556 S
O45 C50 1.279 . S
O46 Cd43 2.297 . S
O46 C48 1.247 1_556 S
O47 Cd43 2.439 1_554 S
O47 C48 1.208 . S
C48 O46 1.247 1_554 S
C48 O47 1.208 . S
C49 O54 1.247 . S
C49 O55 1.208 . S
C50 O42 1.315 . S
C50 O45 1.279 . S
C51 O52 1.315 . S
C51 O53 1.279 1_556 S
O52 Cd44 2.223 1_556 S
O52 C51 1.315 . S
O53 Cd43 2.240 1_554 S
O53 C51 1.279 1_554 S
O54 Cd44 2.297 . S
O54 C49 1.247 . S
O55 Cd44 2.439 . S
O55 C49 1.208 . S
O56 Cd57 2.223 . S
O56 C64 1.315 . S
Cd57 O56 2.223 . S
Cd57 O60 2.297 . S
Cd57 O61 2.439 . S
Cd57 O67 2.240 . S
Cd58 O59 2.240 . S
Cd58 O66 2.223 . S
Cd58 O68 2.297 . S
Cd58 O69 2.439 . S
O59 Cd58 2.240 . S
O59 C64 1.279 . S
O60 Cd57 2.297 . S
O60 C62 1.247 . S
O61 Cd57 2.439 . S
O61 C62 1.208 . S
C62 O60 1.247 . S
C62 O61 1.208 . S
C63 O68 1.247 . S
C63 O69 1.208 . S
C64 O56 1.315 . S
C64 O59 1.279 . S
C65 O66 1.315 . S
C65 O67 1.279 . S
O66 Cd58 2.223 . S
O66 C65 1.315 . S
O67 Cd57 2.240 . S
O67 C65 1.279 . S
O68 Cd58 2.297 . S
O68 C63 1.247 . S
O69 Cd58 2.439 . S
O69 C63 1.208 . S
O70 Cd71 2.223 . S
O70 C78 1.315 . S
Cd71 O70 2.223 . S
Cd71 O74 2.297 . S
Cd71 O75 2.439 . S
Cd71 O81 2.240 . S
Cd72 O73 2.240 . S
Cd72 O80 2.223 . S
Cd72 O82 2.297 . S
Cd72 O83 2.439 . S
O73 Cd72 2.240 . S
O73 C78 1.279 . S
O74 Cd71 2.297 . S
O74 C76 1.247 . S
O75 Cd71 2.439 . S
O75 C76 1.208 . S
C76 O74 1.247 . S
C76 O75 1.208 . S
C77 O82 1.247 . S
C77 O83 1.208 . S
C78 O70 1.315 . S
C78 O73 1.279 . S
C79 O80 1.315 . S
C79 O81 1.279 . S
O80 Cd72 2.223 . S
O80 C79 1.315 . S
O81 Cd71 2.240 . S
O81 C79 1.279 . S
O82 Cd72 2.297 . S
O82 C77 1.247 . S
O83 Cd72 2.439 . S
O83 C77 1.208 . S
C84 C85 1.349 . S
C84 C86 1.327 . S
C84 H109 0.950 . S
C85 C84 1.349 . S
C85 C101 1.349 . S
C86 C84 1.327 . S
C86 C105 1.429 . S
C86 H110 0.950 . S
C87 C104 1.574 . S
C87 C106 1.368 . S
C87 H111 0.949 . S
H88 C92 0.949 . S
C89 C90 1.349 . S
C89 C91 1.327 . S
C89 H112 0.950 . S
C90 C89 1.349 . S
C90 C102 1.349 . S
C91 C89 1.327 . S
C91 C107 1.429 . S
C91 H113 0.950 . S
C92 H88 0.949 . S
C92 C100 1.574 . S
C92 C108 1.368 . S
H93 C101 0.950 . S
H94 C99 0.950 . S
H95 C100 0.949 . S
H96 C102 0.950 . S
H97 C103 0.950 . S
H98 C104 0.949 . S
C99 H94 0.950 . S
C99 C101 1.327 . S
C99 C105 1.429 . S
C100 C92 1.574 . S
C100 H95 0.949 . S
C100 C106 1.368 . S
C101 C85 1.349 . S
C101 H93 0.950 . S
C101 C99 1.327 . S
C102 C90 1.349 . S
C102 H96 0.950 . S
C102 C103 1.327 . S
C103 H97 0.950 . S
C103 C102 1.327 . S
C103 C107 1.429 . S
C104 C87 1.574 . S
C104 H98 0.949 . S
C104 C108 1.368 . S
C105 C86 1.429 . S
C105 C99 1.429 . S
C105 C106 1.523 . S
C106 C87 1.368 . S
C106 C100 1.368 . S
C106 C105 1.523 . S
C107 C91 1.429 . S
C107 C103 1.429 . S
C107 C108 1.523 . S
C108 C92 1.368 . S
C108 C104 1.368 . S
C108 C107 1.523 . S
H109 C84 0.950 . S
H110 C86 0.950 . S
H111 C87 0.949 . S
H112 C89 0.950 . S
H113 C91 0.950 . S
C114 C115 1.349 . S
C114 C116 1.327 . S
C114 H139 0.950 . S
C115 C114 1.349 . S
C115 C131 1.349 . S
C116 C114 1.327 . S
C116 C135 1.429 . S
C116 H140 0.950 . S
C117 C134 1.574 1_655 S
C117 C136 1.368 . S
C117 H141 0.949 . S
H118 C122 0.949 . S
C119 C120 1.349 . S
C119 C121 1.327 . S
C119 H142 0.950 . S
C120 C119 1.349 . S
C120 C132 1.349 . S
C121 C119 1.327 . S
C121 C137 1.429 . S
C121 H143 0.950 . S
C122 H118 0.949 . S
C122 C130 1.574 . S
C122 C138 1.368 . S
H123 C131 0.950 . S
H124 C129 0.950 . S
H125 C130 0.949 . S
H126 C132 0.950 1_655 S
H127 C133 0.950 . S
H128 C134 0.949 . S
C129 H124 0.950 . S
C129 C131 1.327 . S
C129 C135 1.429 . S
C130 C122 1.574 . S
C130 H125 0.949 . S
C130 C136 1.368 . S
C131 C115 1.349 . S
C131 H123 0.950 . S
C131 C129 1.327 . S
C132 C120 1.349 . S
C132 H126 0.950 1_455 S
C132 C133 1.327 1_455 S
C133 H127 0.950 . S
C133 C132 1.327 1_655 S
C133 C137 1.429 1_655 S
C134 C117 1.574 1_455 S
C134 H128 0.949 . S
C134 C138 1.368 1_455 S
C135 C116 1.429 . S
C135 C129 1.429 . S
C135 C136 1.523 . S
C136 C117 1.368 . S
C136 C130 1.368 . S
C136 C135 1.523 . S
C137 C121 1.429 . S
C137 C133 1.429 1_455 S
C137 C138 1.523 1_455 S
C138 C122 1.368 . S
C138 C134 1.368 1_655 S
C138 C137 1.523 1_655 S
H139 C114 0.950 . S
H140 C116 0.950 . S
H141 C117 0.949 . S
H142 C119 0.950 . S
H143 C121 0.950 . S
C144 C145 1.349 . S
C144 C146 1.327 . S
C144 H169 0.950 . S
C145 C144 1.349 . S
C145 C161 1.349 . S
C146 C144 1.327 . S
C146 C165 1.429 . S
C146 H170 0.950 . S
C147 C164 1.574 . S
C147 C166 1.368 . S
C147 H171 0.949 . S
H148 C152 0.949 . S
C149 C150 1.349 . S
C149 C151 1.327 . S
C149 H172 0.950 . S
C150 C149 1.349 . S
C150 C162 1.349 . S
C151 C149 1.327 . S
C151 C167 1.429 . S
C151 H173 0.950 . S
C152 H148 0.949 . S
C152 C160 1.578 . S
C152 C168 1.368 . S
H153 C161 0.950 1_565 S
H154 C159 0.950 . S
H155 C160 0.940 1_545 S
H156 C162 0.950 . S
H157 C163 0.950 . S
H158 C164 0.949 . S
C159 H154 0.950 . S
C159 C161 1.327 1_565 S
C159 C165 1.429 1_565 S
C160 C152 1.578 . S
C160 H155 0.940 1_565 S
C160 C166 1.375 . S
C161 C145 1.349 . S
C161 H153 0.950 1_545 S
C161 C159 1.327 1_545 S
C162 C150 1.349 . S
C162 H156 0.950 . S
C162 C163 1.327 . S
C163 H157 0.950 . S
C163 C162 1.327 . S
C163 C167 1.429 . S
C164 C147 1.574 . S
C164 H158 0.949 . S
C164 C168 1.368 . S
C165 C146 1.429 . S
C165 C159 1.429 1_545 S
C165 C166 1.523 1_545 S
C166 C147 1.368 . S
C166 C160 1.375 . S
C166 C165 1.523 1_565 S
C167 C151 1.429 . S
C167 C163 1.429 . S
C167 C168 1.523 . S
C168 C152 1.368 . S
C168 C164 1.368 . S
C168 C167 1.523 . S
H169 C144 0.950 . S
H170 C146 0.950 . S
H171 C147 0.949 . S
H172 C149 0.950 . S
H173 C151 0.950 . S
C174 C175 1.349 . S
C174 C176 1.327 . S
C174 H199 0.950 . S
C175 C174 1.349 . S
C175 C191 1.349 . S
C176 C174 1.327 . S
C176 C195 1.429 . S
C176 H200 0.950 . S
C177 C194 1.574 . S
C177 C196 1.368 . S
C177 H201 0.949 . S
H178 C182 0.949 . S
C179 C180 1.349 . S
C179 C181 1.327 . S
C179 H202 0.950 . S
C180 C179 1.349 . S
C180 C192 1.349 . S
C181 C179 1.327 . S
C181 C197 1.429 . S
C181 H203 0.950 . S
C182 H178 0.949 . S
C182 C190 1.574 . S
C182 C198 1.368 . S
H183 C191 0.950 . S
H184 C189 0.950 . S
H185 C190 0.949 . S
H186 C192 0.950 . S
H187 C193 0.950 . S
H188 C194 0.949 . S
C189 H184 0.950 . S
C189 C191 1.327 . S
C189 C195 1.429 . S
C190 C182 1.574 . S
C190 H185 0.949 . S
C190 C196 1.368 . S
C191 C175 1.349 . S
C191 H183 0.950 . S
C191 C189 1.327 . S
C192 C180 1.349 . S
C192 H186 0.950 . S
C192 C193 1.327 . S
C193 H187 0.950 . S
C193 C192 1.327 . S
C193 C197 1.429 . S
C194 C177 1.574 . S
C194 H188 0.949 . S
C194 C198 1.368 . S
C195 C176 1.429 . S
C195 C189 1.429 . S
C195 C196 1.523 . S
C196 C177 1.368 . S
C196 C190 1.368 . S
C196 C195 1.523 . S
C197 C181 1.429 . S
C197 C193 1.429 . S
C197 C198 1.523 . S
C198 C182 1.368 . S
C198 C194 1.368 . S
C198 C197 1.523 . S
H199 C174 0.950 . S
H200 C176 0.950 . S
H201 C177 0.949 . S
H202 C179 0.950 . S
H203 C181 0.950 . S
C204 C205 1.349 . S
C204 C206 1.327 . S
C204 H229 0.950 . S
C205 C204 1.349 . S
C205 C221 1.349 . S
C206 C204 1.327 . S
C206 C225 1.429 . S
C206 H230 0.950 . S
C207 C224 1.574 1_455 S
C207 C226 1.368 . S
C207 H231 0.946 1_455 S
H208 C212 0.949 . S
C209 C210 1.349 . S
C209 C211 1.327 . S
C209 H232 0.950 . S
C210 C209 1.349 . S
C210 C222 1.334 1_655 S
C211 C209 1.327 . S
C211 C227 1.429 . S
C211 H233 0.950 . S
C212 H208 0.949 . S
C212 C220 1.574 . S
C212 C228 1.368 . S
H213 C221 0.950 . S
H214 C219 0.950 . S
H215 C220 0.949 . S
H216 C222 0.959 . S
H217 C223 0.950 . S
H218 C224 0.949 . S
C219 H214 0.950 . S
C219 C221 1.327 . S
C219 C225 1.429 . S
C220 C212 1.574 . S
C220 H215 0.949 . S
C220 C226 1.368 . S
C221 C205 1.349 . S
C221 H213 0.950 . S
C221 C219 1.327 . S
C222 C210 1.334 1_455 S
C222 H216 0.959 . S
C222 C223 1.334 . S
C223 H217 0.950 . S
C223 C222 1.334 . S
C223 C227 1.429 1_455 S
C224 C207 1.574 1_655 S
C224 H218 0.949 . S
C224 C228 1.368 1_655 S
C225 C206 1.429 . S
C225 C219 1.429 . S
C225 C226 1.523 . S
C226 C207 1.368 . S
C226 C220 1.368 . S
C226 C225 1.523 . S
C227 C211 1.429 . S
C227 C223 1.429 1_655 S
C227 C228 1.523 1_655 S
C228 C212 1.368 . S
C228 C224 1.368 1_455 S
C228 C227 1.523 1_455 S
H229 C204 0.950 . S
H230 C206 0.950 . S
H231 C207 0.946 1_655 S
H232 C209 0.950 . S
H233 C211 0.950 . S
C234 C235 1.349 . S
C234 C236 1.327 . S
C234 H259 0.950 . S
C235 C234 1.349 . S
C235 C251 1.349 . S
C236 C234 1.327 . S
C236 C255 1.429 . S
C236 H260 0.950 . S
C237 C254 1.574 . S
C237 C256 1.368 . S
C237 H261 0.949 . S
H238 C242 0.949 . S
C239 C240 1.349 . S
C239 C241 1.327 . S
C239 H262 0.950 . S
C240 C239 1.349 . S
C240 C252 1.349 . S
C241 C239 1.327 . S
C241 C257 1.429 . S
C241 H263 0.950 . S
C242 H238 0.949 . S
C242 C250 1.574 . S
C242 C258 1.368 . S
H243 C251 0.950 . S
H244 C249 0.950 . S
H245 C250 0.949 . S
H246 C252 0.950 1_545 S
H247 C253 0.950 . S
H248 C254 0.948 1_565 S
C249 H244 0.950 . S
C249 C251 1.327 . S
C249 C255 1.429 . S
C250 C242 1.574 . S
C250 H245 0.949 . S
C250 C256 1.368 . S
C251 C235 1.349 . S
C251 H243 0.950 . S
C251 C249 1.327 . S
C252 C240 1.349 . S
C252 H246 0.950 1_565 S
C252 C253 1.327 1_565 S
C253 H247 0.950 . S
C253 C252 1.327 1_545 S
C253 C257 1.429 1_545 S
C254 C237 1.574 . S
C254 H248 0.948 1_545 S
C254 C258 1.368 . S
C255 C236 1.429 . S
C255 C249 1.429 . S
C255 C256 1.523 . S
C256 C237 1.368 . S
C256 C250 1.368 . S
C256 C255 1.523 . S
C257 C241 1.429 . S
C257 C253 1.429 1_565 S
C257 C258 1.523 1_565 S
C258 C242 1.368 . S
C258 C254 1.368 . S
C258 C257 1.523 1_545 S
H259 C234 0.950 . S
H260 C236 0.950 . S
H261 C237 0.949 . S
H262 C239 0.950 . S
H263 C241 0.950 . S
C264 C265 1.349 1_556 S
C264 C266 1.327 . S
C264 H289 0.950 . S
C265 C264 1.349 1_554 S
C265 C281 1.349 . S
C266 C264 1.327 . S
C266 C285 1.429 1_556 S
C266 H290 0.950 . S
C267 C284 1.574 . S
C267 C286 1.368 . S
C267 H291 0.949 . S
H268 C272 0.949 . S
C269 C270 1.349 . S
C269 C271 1.327 . S
C269 H292 0.950 . S
C270 C269 1.349 . S
C270 C282 1.349 1_554 S
C271 C269 1.327 . S
C271 C287 1.429 . S
C271 H293 0.950 . S
C272 H268 0.949 . S
C272 C280 1.574 . S
C272 C288 1.368 1_556 S
H273 C281 0.950 . S
H274 C279 0.950 . S
H275 C280 0.949 . S
H276 C282 0.950 . S
H277 C283 0.950 . S
H278 C284 0.949 . S
C279 H274 0.950 . S
C279 C281 1.327 . S
C279 C285 1.429 . S
C280 C272 1.574 . S
C280 H275 0.949 . S
C280 C286 1.368 1_556 S
C281 C265 1.349 . S
C281 H273 0.950 . S
C281 C279 1.327 . S
C282 C270 1.349 1_556 S
C282 H276 0.950 . S
C282 C283 1.327 . S
C283 H277 0.950 . S
C283 C282 1.327 . S
C283 C287 1.429 1_556 S
C284 C267 1.574 . S
C284 H278 0.949 . S
C284 C288 1.368 . S
C285 C266 1.429 1_554 S
C285 C279 1.429 . S
C285 C286 1.523 . S
C286 C267 1.368 . S
C286 C280 1.368 1_554 S
C286 C285 1.523 . S
C287 C271 1.429 . S
C287 C283 1.429 1_554 S
C287 C288 1.523 . S
C288 C272 1.368 1_554 S
C288 C284 1.368 . S
C288 C287 1.523 . S
H289 C264 0.950 . S
H290 C266 0.950 . S
H291 C267 0.949 . S
H292 C269 0.950 . S
H293 C271 0.950 . S
C294 C295 1.349 . S
C294 C296 1.327 . S
C294 H319 0.950 . S
C295 C294 1.349 . S
C295 C311 1.349 . S
C296 C294 1.327 . S
C296 C315 1.429 . S
C296 H320 0.942 1_655 S
C297 C314 1.574 . S
C297 C316 1.368 . S
C297 H321 0.949 . S
H298 C302 0.949 . S
C299 C300 1.349 . S
C299 C301 1.327 . S
C299 H322 0.950 . S
C300 C299 1.349 . S
C300 C312 1.349 . S
C301 C299 1.327 . S
C301 C317 1.429 . S
C301 H323 0.942 1_455 S
C302 H298 0.949 . S
C302 C310 1.574 . S
C302 C318 1.368 . S
H303 C311 0.950 . S
H304 C309 0.950 . S
H305 C310 0.949 . S
H306 C312 0.950 . S
H307 C313 0.950 . S
H308 C314 0.949 . S
C309 H304 0.950 . S
C309 C311 1.327 . S
C309 C315 1.429 . S
C310 C302 1.574 . S
C310 H305 0.949 . S
C310 C316 1.368 1_455 S
C311 C295 1.349 . S
C311 H303 0.950 . S
C311 C309 1.327 . S
C312 C300 1.349 . S
C312 H306 0.950 . S
C312 C313 1.327 . S
C313 H307 0.950 . S
C313 C312 1.327 . S
C313 C317 1.429 . S
C314 C297 1.574 . S
C314 H308 0.949 . S
C314 C318 1.368 1_655 S
C315 C296 1.429 . S
C315 C309 1.429 . S
C315 C316 1.523 . S
C316 C297 1.368 . S
C316 C310 1.368 1_655 S
C316 C315 1.523 . S
C317 C301 1.429 . S
C317 C313 1.429 . S
C317 C318 1.523 . S
C318 C302 1.368 . S
C318 C314 1.368 1_455 S
C318 C317 1.523 . S
H319 C294 0.950 . S
H320 C296 0.942 1_455 S
H321 C297 0.949 . S
H322 C299 0.950 . S
H323 C301 0.942 1_655 S
C324 C325 1.349 . S
C324 C326 1.327 . S
C324 H349 0.950 . S
C325 C324 1.349 . S
C325 C341 1.349 . S
C326 C324 1.327 . S
C326 C345 1.429 . S
C326 H350 0.950 . S
C327 C344 1.574 . S
C327 C346 1.368 1_565 S
C327 H351 0.949 . S
H328 C332 0.949 . S
C329 C330 1.349 . S
C329 C331 1.327 . S
C329 H352 0.950 . S
C330 C329 1.349 . S
C330 C342 1.349 . S
C331 C329 1.327 . S
C331 C347 1.429 . S
C331 H353 0.950 . S
C332 H328 0.949 . S
C332 C340 1.574 . S
C332 C348 1.368 1_545 S
H333 C341 0.950 . S
H334 C339 0.935 1_565 S
H335 C340 0.949 . S
H336 C342 0.950 . S
H337 C343 0.935 1_545 S
H338 C344 0.949 . S
C339 H334 0.935 1_545 S
C339 C341 1.327 . S
C339 C345 1.429 . S
C340 C332 1.574 . S
C340 H335 0.949 . S
C340 C346 1.368 . S
C341 C325 1.349 . S
C341 H333 0.950 . S
C341 C339 1.327 . S
C342 C330 1.349 . S
C342 H336 0.950 . S
C342 C343 1.327 . S
C343 H337 0.935 1_565 S
C343 C342 1.327 . S
C343 C347 1.429 . S
C344 C327 1.574 . S
C344 H338 0.949 . S
C344 C348 1.368 . S
C345 C326 1.429 . S
C345 C339 1.429 . S
C345 C346 1.523 . S
C346 C327 1.368 1_545 S
C346 C340 1.368 . S
C346 C345 1.523 . S
C347 C331 1.429 . S
C347 C343 1.429 . S
C347 C348 1.523 . S
C348 C332 1.368 1_565 S
C348 C344 1.368 . S
C348 C347 1.523 . S
H349 C324 0.950 . S
H350 C326 0.950 . S
H351 C327 0.949 . S
H352 C329 0.950 . S
H353 C331 0.950 . S
C354 C355 1.349 . S
C354 C356 1.327 . S
C354 H379 0.950 . S
C355 C354 1.349 . S
C355 C371 1.349 . S
C356 C354 1.327 . S
C356 C375 1.429 . S
C356 H380 0.950 . S
C357 C374 1.574 . S
C357 C376 1.368 . S
C357 H381 0.949 . S
H358 C362 0.949 . S
C359 C360 1.349 . S
C359 C361 1.327 . S
C359 H382 0.950 . S
C360 C359 1.349 . S
C360 C372 1.349 . S
C361 C359 1.327 . S
C361 C377 1.429 . S
C361 H383 0.950 . S
C362 H358 0.949 . S
C362 C370 1.574 . S
C362 C378 1.368 . S
H363 C371 0.950 . S
H364 C369 0.950 . S
H365 C370 0.949 . S
H366 C372 0.950 . S
H367 C373 0.950 . S
H368 C374 0.949 . S
C369 H364 0.950 . S
C369 C371 1.327 . S
C369 C375 1.429 . S
C370 C362 1.574 . S
C370 H365 0.949 . S
C370 C376 1.368 . S
C371 C355 1.349 . S
C371 H363 0.950 . S
C371 C369 1.327 . S
C372 C360 1.349 . S
C372 H366 0.950 . S
C372 C373 1.327 . S
C373 H367 0.950 . S
C373 C372 1.327 . S
C373 C377 1.429 . S
C374 C357 1.574 . S
C374 H368 0.949 . S
C374 C378 1.368 . S
C375 C356 1.429 . S
C375 C369 1.429 . S
C375 C376 1.523 . S
C376 C357 1.368 . S
C376 C370 1.368 . S
C376 C375 1.523 . S
C377 C361 1.429 . S
C377 C373 1.429 . S
C377 C378 1.523 . S
C378 C362 1.368 . S
C378 C374 1.368 . S
C378 C377 1.523 . S
H379 C354 0.950 . S
H380 C356 0.950 . S
H381 C357 0.949 . S
H382 C359 0.950 . S
H383 C361 0.950 . S
C384 C385 1.349 1_554 S
C384 C386 1.327 . S
C384 H409 0.950 . S
C385 C384 1.349 1_556 S
C385 C401 1.349 . S
C386 C384 1.327 . S
C386 C405 1.429 1_554 S
C386 H410 0.950 . S
C387 C404 1.574 . S
C387 C406 1.368 1_455 S
C387 H411 0.949 . S
H388 C392 0.949 . S
C389 C390 1.349 . S
C389 C391 1.327 . S
C389 H412 0.950 . S
C390 C389 1.349 . S
C390 C402 1.349 1_556 S
C391 C389 1.327 . S
C391 C407 1.429 . S
C391 H413 0.950 . S
C392 H388 0.949 . S
C392 C400 1.574 . S
C392 C408 1.368 1_654 S
H393 C401 0.950 . S
H394 C399 0.950 1_455 S
H395 C400 0.949 . S
H396 C402 0.950 . S
H397 C403 0.950 1_655 S
H398 C404 0.949 . S
C399 H394 0.950 1_655 S
C399 C401 1.327 . S
C399 C405 1.429 . S
C400 C392 1.574 . S
C400 H395 0.949 . S
C400 C406 1.368 1_554 S
C401 C385 1.349 . S
C401 H393 0.950 . S
C401 C399 1.327 . S
C402 C390 1.349 1_554 S
C402 H396 0.950 . S
C402 C403 1.327 . S
C403 H397 0.950 1_455 S
C403 C402 1.327 . S
C403 C407 1.429 1_554 S
C404 C387 1.574 . S
C404 H398 0.949 . S
C404 C408 1.368 . S
C405 C386 1.429 1_556 S
C405 C399 1.429 . S
C405 C406 1.523 . S
C406 C387 1.368 1_655 S
C406 C400 1.368 1_556 S
C406 C405 1.523 . S
C407 C391 1.429 . S
C407 C403 1.429 1_556 S
C407 C408 1.523 . S
C408 C392 1.368 1_456 S
C408 C404 1.368 . S
C408 C407 1.523 . S
H409 C384 0.950 . S
H410 C386 0.950 . S
H411 C387 0.949 . S
H412 C389 0.950 . S
H413 C391 0.950 . S
C414 C415 1.349 . S
C414 C416 1.327 . S
C414 H439 0.950 . S
C415 C414 1.349 . S
C415 C431 1.349 . S
C416 C414 1.327 . S
C416 C435 1.429 . S
C416 H440 0.950 1_545 S
C417 C434 1.574 . S
C417 C436 1.368 . S
C417 H441 0.949 . S
H418 C422 0.949 . S
C419 C420 1.349 . S
C419 C421 1.327 . S
C419 H442 0.950 . S
C420 C419 1.349 . S
C420 C432 1.349 . S
C421 C419 1.327 . S
C421 C437 1.429 . S
C421 H443 0.950 1_565 S
C422 H418 0.949 . S
C422 C430 1.574 . S
C422 C438 1.368 . S
H423 C431 0.950 . S
H424 C429 0.950 . S
H425 C430 0.949 . S
H426 C432 0.950 . S
H427 C433 0.950 . S
H428 C434 0.949 . S
C429 H424 0.950 . S
C429 C431 1.327 . S
C429 C435 1.429 . S
C430 C422 1.574 . S
C430 H425 0.949 . S
C430 C436 1.368 1_565 S
C431 C415 1.349 . S
C431 H423 0.950 . S
C431 C429 1.327 . S
C432 C420 1.349 . S
C432 H426 0.950 . S
C432 C433 1.327 . S
C433 H427 0.950 . S
C433 C432 1.327 . S
C433 C437 1.429 . S
C434 C417 1.574 . S
C434 H428 0.949 . S
C434 C438 1.368 1_545 S
C435 C416 1.429 . S
C435 C429 1.429 . S
C435 C436 1.523 . S
C436 C417 1.368 . S
C436 C430 1.368 1_545 S
C436 C435 1.523 . S
C437 C421 1.429 . S
C437 C433 1.429 . S
C437 C438 1.523 . S
C438 C422 1.368 . S
C438 C434 1.368 1_565 S
C438 C437 1.523 . S
H439 C414 0.950 . S
H440 C416 0.950 1_565 S
H441 C417 0.949 . S
H442 C419 0.950 . S
H443 C421 0.950 1_545 S
C85 C76 1.286 . S
C90 C8 1.238 . S
C115 C22 1.239 . S
C120 C7 1.286 . S
C145 C21 1.285 . S
C150 C37 1.238 . S
C175 C50 1.239 . S
C180 C34 1.286 . S
C205 C64 1.238 . S
C210 C49 1.286 . S
C235 C79 1.239 . S
C240 C63 1.286 . S
C265 C6 1.294 . S
C270 C48 1.294 . S
C295 C20 1.294 . S
C300 C62 1.294 . S
C325 C77 1.294 . S
C330 C35 1.294 . S
C355 C78 1.376 . S
C360 C36 1.376 . S
C385 C51 1.375 . S
C390 C9 1.375 . S
C415 C23 1.376 . S
C420 C65 1.376 . S
