# Generated by pormake.
# Topology bsn, (6)-cn, num edge types: 1
# Building blocks:
#     Node 0, Type 0, BuildingBlock: UKALOJ_clean_sbu_0, # of connection points: 6
#     Node 1, Type 0, BuildingBlock: UKALOJ_clean_sbu_0, # of connection points: 6
#     Node 2, Type 0, BuildingBlock: UKALOJ_clean_sbu_0, # of connection points: 6
#     Node 3, Type 0, BuildingBlock: UKALOJ_clean_sbu_0, # of connection points: 6
#     Edge 4, Type (0, 0), BuildingBlock: EZIPEK_clean_linker_0, # of connection points: 2
#     Edge 5, Type (0, 0), BuildingBlock: EZIPEK_clean_linker_0, # of connection points: 2
#     Edge 6, Type (0, 0), BuildingBlock: EZIPEK_clean_linker_0, # of connection points: 2
#     Edge 7, Type (0, 0), BuildingBlock: EZIPEK_clean_linker_0, # of connection points: 2
#     Edge 8, Type (0, 0), BuildingBlock: EZIPEK_clean_linker_0, # of connection points: 2
#     Edge 9, Type (0, 0), BuildingBlock: EZIPEK_clean_linker_0, # of connection points: 2
#     Edge 10, Type (0, 0), BuildingBlock: EZIPEK_clean_linker_0, # of connection points: 2
#     Edge 11, Type (0, 0), BuildingBlock: EZIPEK_clean_linker_0, # of connection points: 2
#     Edge 12, Type (0, 0), BuildingBlock: EZIPEK_clean_linker_0, # of connection points: 2
#     Edge 13, Type (0, 0), BuildingBlock: EZIPEK_clean_linker_0, # of connection points: 2
#     Edge 14, Type (0, 0), BuildingBlock: EZIPEK_clean_linker_0, # of connection points: 2
#     Edge 15, Type (0, 0), BuildingBlock: EZIPEK_clean_linker_0, # of connection points: 2
# Relax obj value: 0.216
# Max RMSD: 0.164
# Mean RMSD: 0.145
data_MOF--net-bsn--node1-UKALOJ_clean_sbu_0--edge1-EZIPEK_clean_linker_0
_symmetry_space_group_name_H-M    P1
_symmetry_Int_Tables_number       1
_symmetry_cell_setting            triclinic
loop_
_symmetry_equiv_pos_as_xyz
'x, y, z'
_cell_length_a     23.235596
_cell_length_b     28.159017
_cell_length_c     11.155743
_cell_angle_alpha  89.798707
_cell_angle_beta   95.988011
_cell_angle_gamma 90.968504
loop_
_atom_site_label
_atom_site_type_symbol
_atom_site_fract_x
_atom_site_fract_y
_atom_site_fract_z
_atom_type_partial_charge
Zn0 Zn 0.0569 0.33701 0.32499 0.0
O1 O 0.96163 0.33983 0.31852 0.0
C2 C 0.05895 0.30175 0.56873 0.0
Zn3 Zn 0.04821 0.25577 0.32474 0.0
C4 C 0.92958 0.30232 0.31977 0.0
O5 O 0.95391 0.26177 0.32085 0.0
C6 C 0.17559 0.29066 0.33255 0.0
O7 O 0.04025 0.25162 0.13793 0.0
O8 O 0.05284 0.32956 0.13556 0.0
N9 N 0.04534 0.18121 0.34892 0.0
C10 C 1.02531 0.14235 0.28476 0.0
C11 C 0.06524 0.11726 0.45316 0.0
N12 N 0.07002 0.165 0.45322 0.0
N13 N 0.03743 0.10179 0.34843 0.0
C14 C 0.03527 0.45115 0.31642 0.0
C15 C 0.12127 0.4752 0.29779 0.0
N16 N 0.06804 0.41177 0.31205 0.0
N17 N 0.12127 0.42739 0.3002 0.0
N18 N 0.06787 0.49145 0.308 0.0
H19 H 0.94868 0.43176 0.24963 0.0
H20 H 0.9546 0.48619 0.33585 0.0
H21 H 0.96379 0.42907 0.41049 0.0
C22 C 0.97183 0.4499 0.32908 0.0
C23 C 0.99461 0.14429 0.16034 0.0
H24 H 0.9651 0.17498 0.1521 0.0
H25 H 0.96994 0.11082 0.13818 0.0
H26 H 1.02706 0.14945 0.09497 0.0
O27 O 0.14384 0.25301 0.3282 0.0
O28 O 0.15102 0.33074 0.33425 0.0
C29 C 0.0462 0.29002 0.07984 0.0
O30 O 0.0618 0.34104 0.51303 0.0
O31 O 0.05485 0.26283 0.5114 0.0
Zn32 Zn 0.98359 0.79407 0.31278 0.0
O33 O 0.99226 0.71613 0.31893 0.0
C34 C 0.04183 0.80133 0.56956 0.0
Zn35 Zn 0.07854 0.79998 0.33285 0.0
C36 C 0.0414 0.69638 0.32733 0.0
O37 O 0.08629 0.723 0.33475 0.0
C38 C 1.0221 0.89687 0.31377 0.0
O39 O 0.06842 0.79979 0.14094 0.0
O40 O 0.9732 0.79038 0.12464 0.0
N41 N 0.16496 0.80485 0.34075 0.0
C42 C 0.20177 0.83217 0.41342 0.0
C43 C 0.24731 0.7708 0.3678 0.0
N44 N 0.19349 0.76706 0.3115 0.0
N45 N 0.25313 0.81077 0.43437 0.0
C46 C 0.87679 0.76175 0.42051 0.0
C47 C 0.81819 0.81771 0.37437 0.0
N48 N 0.89759 0.78685 0.33069 0.0
N49 N 0.86058 0.82119 0.30059 0.0
N50 N 0.82807 0.78107 0.45167 0.0
H51 H 0.95132 0.72728 0.51254 0.0
H52 H 0.90292 0.6892 0.42075 0.0
H53 H 0.88586 0.70877 0.56544 0.0
C54 C 0.90568 0.71976 0.48369 0.0
C55 C 0.18752 0.87933 0.46413 0.0
H56 H 0.17515 0.90421 0.38888 0.0
H57 H 0.22505 0.89495 0.52101 0.0
H58 H 0.15044 0.87557 0.5185 0.0
O59 O 0.07067 0.87633 0.33068 0.0
O60 O 0.97628 0.87104 0.30029 0.0
C61 C 1.02012 0.79522 0.07608 0.0
O62 O 0.99451 0.80096 0.5028 0.0
O63 O 0.08874 0.79993 0.52226 0.0
Zn64 Zn 0.59177 0.83748 0.79013 0.0
O65 O 0.50177 0.84925 0.74064 0.0
C66 C 0.57561 0.7988 0.03185 0.0
Zn67 Zn 0.57283 0.76001 0.79072 0.0
C68 C 0.46598 0.81445 0.73325 0.0
O69 O 0.48359 0.77312 0.76109 0.0
C70 C 0.698 0.78069 0.82216 0.0
O71 O 0.5776 0.76242 0.60302 0.0
O72 O 0.60303 0.83825 0.60896 0.0
N73 N 0.55332 0.68874 0.78987 0.0
C74 C 0.56856 0.65565 0.87463 0.0
C75 C 0.4946 0.62841 0.76584 0.0
N76 N 0.50781 0.6714 0.72139 0.0
N77 N 0.53194 0.61796 0.86253 0.0
C78 C 0.5818 0.9415 0.86286 0.0
C79 C 0.66955 0.96539 0.86866 0.0
N80 N 0.61073 0.90831 0.80764 0.0
N81 N 0.66504 0.92363 0.80958 0.0
N82 N 0.61802 0.97705 0.90432 0.0
H83 H 0.4925 0.93678 0.79457 0.0
H84 H 0.50535 0.96852 0.93454 0.0
H85 H 0.51054 0.90466 0.93182 0.0
C86 C 0.51908 0.93781 0.88309 0.0
C87 C 0.61577 0.66122 -0.02346 0.0
H88 H 0.63407 0.62607 0.00275 0.0
H89 H 0.59786 0.67609 0.05635 0.0
H90 H 0.65085 0.68494 0.95244 0.0
O91 O 0.66066 0.74724 0.81162 0.0
O92 O 0.68054 0.82308 0.82725 0.0
C93 C 0.59127 0.80042 0.5494 0.0
O94 O 0.58262 0.83691 -0.02548 0.0
O95 O 0.56961 0.75973 -0.02383 0.0
Zn96 Zn 0.55288 0.25667 0.33291 0.0
O97 O 0.55395 0.25862 0.52002 0.0
C98 C 0.42954 0.28591 0.3258 0.0
Zn99 Zn 0.55162 0.33538 0.33136 0.0
C100 C 0.55761 0.29788 0.57641 0.0
O101 O 0.56045 0.33679 0.51912 0.0
C102 C 0.54677 0.29494 0.08852 0.0
O103 O 0.64546 0.34304 0.33272 0.0
O104 O 0.64832 0.26555 0.345 0.0
N105 N 0.53862 0.40686 0.31901 0.0
C106 C 0.56059 0.43901 0.24553 0.0
C107 C 0.48016 0.46551 0.29029 0.0
N108 N 0.48912 0.42383 0.34818 0.0
N109 N 0.52407 0.47557 0.22404 0.0
C110 C 0.54939 0.15304 0.24772 0.0
C111 C 0.61979 0.12415 0.36101 0.0
N112 N 0.56505 0.18522 0.33471 0.0
N113 N 0.60818 0.16686 0.40617 0.0
N114 N 0.58382 0.11497 0.26088 0.0
H115 H 0.47194 0.18669 0.16569 0.0
H116 H 0.48085 0.12564 0.12169 0.0
H117 H 0.52394 0.17172 0.0633 0.0
C118 C 0.50363 0.15993 0.14423 0.0
C119 C 0.61605 0.43352 0.18942 0.0
H120 H 0.65184 0.4269 0.26088 0.0
H121 H 0.62711 0.46595 0.13937 0.0
H122 H 0.61253 0.40298 0.12676 0.0
O123 O 0.54391 0.33367 0.14426 0.0
O124 O 0.55075 0.25625 0.14629 0.0
C125 C 0.6752 0.30528 0.33919 0.0
O126 O 0.45883 0.2482 0.32166 0.0
O127 O 0.45664 0.32578 0.33105 0.0
C128 C 0.04132 0.56354 0.41849 0.0
C129 C 0.05351 0.54157 0.30997 0.0
C130 C 0.06409 0.62074 0.2186 0.0
C131 C 0.04636 0.6429 0.32287 0.0
N132 N 1.01457 0.63442 0.52077 0.0
N133 N 0.06535 0.54863 0.09981 0.0
C134 C 1.03325 0.61385 0.42181 0.0
C135 C 0.06141 0.57017 0.20801 0.0
N136 N 0.04121 0.53668 0.52064 0.0
N137 N 0.08575 0.64774 0.13128 0.0
H138 H 0.06244 0.5118 0.08967 0.0
H139 H 0.06551 0.56718 0.01888 0.0
H140 H 0.08966 0.6846 0.13627 0.0
H141 H 0.10478 0.63338 0.05938 0.0
H142 H 0.03913 0.55086 0.60609 0.0
H143 H 0.04773 0.50014 0.52142 0.0
H144 H 0.99712 0.61545 0.58905 0.0
H145 H 1.01459 0.67097 0.53182 0.0
C146 C 0.76183 0.73001 0.71717 0.0
C147 C 0.75611 0.77203 0.78299 0.0
C148 C 0.82087 0.81273 0.65644 0.0
C149 C 0.80737 0.77669 0.5683 0.0
N150 N 0.77095 0.69771 0.51964 0.0
N151 N 0.79723 0.84778 0.84427 0.0
C152 C 0.78024 0.73388 0.60076 0.0
C153 C 0.79234 0.81145 0.76314 0.0
N154 N 0.74821 0.6873 0.76549 0.0
N155 N 0.8618 0.84675 0.63929 0.0
H156 H 0.77965 0.84479 0.92652 0.0
H157 H 0.81759 0.88022 0.83005 0.0
H158 H 0.88531 0.8469 0.56467 0.0
H159 H 0.87629 0.87213 0.70354 0.0
H160 H 0.75427 0.6549 0.72419 0.0
H161 H 0.73705 0.68495 0.85362 0.0
H162 H 0.7476 0.6669 0.53623 0.0
H163 H 0.78287 0.70033 0.4322 0.0
C164 C 0.51999 0.55972 0.16156 0.0
C165 C 0.52325 0.51124 0.13097 0.0
C166 C 0.53108 0.5331 0.92048 0.0
C167 C 0.52467 0.58131 0.95029 0.0
N168 N 0.49367 0.63832 0.08966 0.0
N169 N 0.51261 0.45148 -0.02482 0.0
C170 C 0.5131 0.594 0.06819 0.0
C171 C 0.52306 0.4977 0.00831 0.0
N172 N 0.52541 0.57311 0.2797 0.0
N173 N 0.54629 0.52131 0.80968 0.0
H174 H 0.50256 0.42527 0.03621 0.0
H175 H 0.50755 0.44034 0.88567 0.0
H176 H 0.5527 0.54671 0.74388 0.0
H177 H 0.55704 0.48691 0.78715 0.0
H178 H 0.52873 0.60851 0.30687 0.0
H179 H 0.53209 0.54875 0.35023 0.0
H180 H 0.48016 0.64828 0.172 0.0
H181 H 0.48553 0.66342 0.02122 0.0
C182 C 0.83881 0.28388 0.42538 0.0
C183 C 0.86449 0.30559 0.32745 0.0
C184 C 0.7659 0.32701 0.23699 0.0
C185 C 0.74064 0.3071 0.33713 0.0
N186 N 0.75505 0.27609 0.5387 0.0
N187 N 0.8517 0.3565 0.15232 0.0
C188 C 0.77776 0.28788 0.43424 0.0
C189 C 0.82776 0.32995 0.23752 0.0
N190 N 0.87289 0.25992 0.51197 0.0
N191 N 0.73075 0.34111 0.13778 0.0
H192 H 0.89594 0.35859 0.14626 0.0
H193 H 0.82818 0.3797 0.09396 0.0
H194 H 0.68575 0.33982 0.13327 0.0
H195 H 0.74587 0.35015 0.05594 0.0
H196 H 0.85645 0.23778 0.5756 0.0
H197 H 0.91794 0.26039 0.51775 0.0
H198 H 0.77979 0.26653 0.618 0.0
H199 H 0.71155 0.28067 0.54983 0.0
C200 C 0.32699 0.27779 0.21913 0.0
C201 C 0.36434 0.28379 0.32772 0.0
C202 C 0.27857 0.29638 0.43797 0.0
C203 C 0.24082 0.28828 0.33082 0.0
N204 N 0.22872 0.27102 0.11877 0.0
N205 N 0.37488 0.28817 0.544 0.0
C206 C 0.26513 0.27864 0.22135 0.0
C207 C 0.33978 0.29021 0.43802 0.0
N208 N 0.35096 0.27243 0.11324 0.0
N209 N 0.25608 0.31124 0.53957 0.0
H210 H 0.41909 0.28176 0.54713 0.0
H211 H 0.3597 0.28796 0.62856 0.0
H212 H 0.2119 0.31591 0.54327 0.0
H213 H 0.28133 0.32281 0.61687 0.0
H214 H 0.32774 0.27266 0.0284 0.0
H215 H 0.39539 0.26916 0.10976 0.0
H216 H 0.24164 0.25878 0.0381 0.0
H217 H 0.1843 0.27615 0.11531 0.0
C218 C 0.35821 0.82858 0.71298 0.0
C219 C 0.40953 0.81908 0.66004 0.0
C220 C 0.35651 0.82384 0.46075 0.0
C221 C 0.30405 0.82366 0.5121 0.0
N222 N 0.25403 0.81739 0.69139 0.0
N223 N 0.44866 0.78766 0.48458 0.0
C224 C 0.3042 0.82448 0.63988 0.0
C225 C 0.40683 0.81186 0.53379 0.0
N226 N 0.3608 0.83971 0.83234 0.0
N227 N 0.3573 0.83158 0.34024 0.0
H228 H 0.48002 0.76952 0.53802 0.0
H229 H 0.44584 0.77862 0.39352 0.0
H230 H 0.32004 0.84056 0.28474 0.0
H231 H 0.39568 0.83355 0.29966 0.0
H232 H 0.32485 0.85059 0.87303 0.0
H233 H 0.39986 0.8415 0.88775 0.0
H234 H 0.25284 0.81332 0.78398 0.0
H235 H 0.2143 0.81127 0.64113 0.0
C236 C 0.61577 0.06058 -0.03178 0.0
C237 C 0.60958 1.01182 -0.00518 0.0
C238 C 0.58266 1.03149 0.1951 0.0
C239 C 0.59299 0.08 0.17148 0.0
N240 N 0.63479 0.1395 0.04917 0.0
N241 N 0.60232 0.95033 0.14417 0.0
C242 C 0.61397 0.09432 0.06169 0.0
C243 C 0.5973 0.99699 0.11153 0.0
N244 N 0.62218 0.07456 0.85303 0.0
N245 N 0.55805 1.01864 0.29649 0.0
H246 H 0.61637 0.92456 0.08759 0.0
H247 H 0.59849 0.93811 0.23126 0.0
H248 H 0.54714 1.0435 0.35914 0.0
H249 H 0.54423 0.98407 0.31304 0.0
H250 H 0.62131 0.10999 0.82566 0.0
H251 H 0.62326 0.05034 0.78274 0.0
H252 H 0.65527 0.15067 -0.025 0.0
H253 H 0.63688 0.16443 0.11842 0.0
C254 C 0.05826 0.97645 0.23967 0.0
C255 C 1.01989 0.95052 0.30883 0.0
C256 C 0.98229 1.027 0.37318 0.0
C257 C 1.02616 0.05203 0.31893 0.0
N258 N 0.10933 0.05092 0.20888 0.0
N259 N 0.94881 0.95247 0.45288 0.0
C260 C 0.06476 1.0268 0.25356 0.0
C261 C 0.98212 0.97617 0.37734 0.0
N262 N 0.08721 0.95326 0.15744 0.0
N263 N 0.94071 0.05234 0.42121 0.0
H264 H 0.94773 0.91569 0.46181 0.0
H265 H 0.92576 0.9694 0.51504 0.0
H266 H 0.94061 0.08941 0.41967 0.0
H267 H 0.9039 1.03694 0.45185 0.0
H268 H 0.11102 0.97069 0.096 0.0
H269 H 0.08292 0.91685 0.14192 0.0
H270 H 0.14341 1.03429 0.1732 0.0
H271 H 0.11412 0.08776 0.21502 0.0
C272 C 0.08649 0.26204 0.89234 0.0
C273 C 0.04566 0.28952 0.94724 0.0
C274 C 1.01012 0.32246 0.74997 0.0
C275 C 0.05631 0.30031 0.69956 0.0
N276 N 0.14371 0.25473 0.72466 0.0
N277 N 0.96856 0.34649 0.9293 0.0
C278 C 0.09581 0.27154 0.77116 0.0
C279 C 1.00772 0.32016 0.87628 0.0
N280 N 0.11597 0.22639 0.95401 0.0
N281 N 0.96652 0.34307 0.67671 0.0
H282 H 0.96022 0.34144 0.01824 0.0
H283 H 0.94587 0.37443 0.88635 0.0
H284 H 0.96578 0.34492 0.58327 0.0
H285 H 0.92825 0.35463 0.70696 0.0
H286 H 0.14033 0.20178 0.9125 0.0
H287 H 0.11311 0.21844 0.04421 0.0
H288 H 0.17776 0.23863 0.77693 0.0
H289 H 0.15223 0.2608 0.63596 0.0
C290 C 0.04749 0.75808 0.76479 0.0
C291 C 0.0408 0.80154 0.70116 0.0
C292 C 1.01604 0.8413 0.88353 0.0
C293 C 1.01935 0.79693 0.94408 0.0
N294 N 1.02047 0.71178 0.93368 0.0
N295 N 1.01544 0.88416 0.69394 0.0
C296 C 1.02992 0.75487 0.88218 0.0
C297 C 1.02391 0.84314 0.75882 0.0
N298 N 0.07169 0.72018 0.71421 0.0
N299 N 1.00603 0.88151 0.9459 0.0
H300 H 1.02575 0.88753 0.60547 0.0
H301 H 0.99662 0.91427 0.72569 0.0
H302 H 0.99594 0.88063 0.03486 0.0
H303 H 1.00949 0.91573 0.91164 0.0
H304 H 0.08227 0.68895 0.7612 0.0
H305 H 0.08644 0.72163 0.62914 0.0
H306 H 1.02239 0.67966 0.88829 0.0
H307 H 1.00416 0.70867 0.0171 0.0
C308 C 0.54298 0.82949 0.22225 0.0
C309 C 0.57959 0.79967 0.16382 0.0
C310 C 0.62156 0.76874 0.3571 0.0
C311 C 0.58875 0.80148 0.41689 0.0
N312 N 0.52374 0.86854 0.40569 0.0
N313 N 0.66541 0.75195 0.17573 0.0
C314 C 0.55185 0.83415 0.34933 0.0
C315 C 0.62203 0.77216 0.23097 0.0
N316 N 0.49763 0.85112 0.15689 0.0
N317 N 0.65256 0.73432 0.41986 0.0
H318 H 0.66957 0.75603 0.08411 0.0
H319 H 0.70083 0.73567 0.22308 0.0
H320 H 0.65842 0.73265 0.51357 0.0
H321 H 0.6692 0.70546 0.37733 0.0
H322 H 0.46706 0.87128 0.19465 0.0
H323 H 0.4871 0.84516 0.065 0.0
H324 H 0.50319 0.89689 0.36 0.0
H325 H 0.52251 0.87039 0.49847 0.0
C326 C 0.59636 0.27113 0.78276 0.0
C327 C 0.55576 0.29812 0.70786 0.0
C328 C 0.50572 0.31875 0.88256 0.0
C329 C 0.54927 0.2954 -0.04215 0.0
N330 N 0.64299 0.25849 -0.01631 0.0
N331 N 0.47595 0.35325 0.68843 0.0
C332 C 0.5964 0.27386 0.90929 0.0
C333 C 0.51201 0.32398 0.75835 0.0
N334 N 0.63514 0.24291 0.73387 0.0
N335 N 0.4567 0.33366 0.92834 0.0
H336 H 0.47396 0.35514 0.59497 0.0
H337 H 0.4495 0.37786 0.72424 0.0
H338 H 0.44998 0.33021 0.01887 0.0
H339 H 0.4203 0.34555 0.87502 0.0
H340 H 0.65976 0.21764 0.78356 0.0
H341 H 0.64042 0.24218 0.6425 0.0
H342 H 0.68155 0.24795 0.95265 0.0
H343 H 0.64586 0.26053 0.07734 0.0
loop_
_geom_bond_atom_site_label_1
_geom_bond_atom_site_label_2
_geom_bond_distance
_geom_bond_site_symmetry_2
_ccdc_geom_bond_type
Zn0 O1 2.055 1_455 S
Zn0 O8 2.046 . S
Zn0 N16 2.036 . S
Zn0 O28 2.053 . S
Zn0 O30 2.066 . S
O1 Zn0 2.055 1_655 S
O1 C4 1.259 . S
C2 O30 1.256 . S
C2 O31 1.244 . S
Zn3 O5 2.046 1_455 S
Zn3 O7 2.055 . S
Zn3 N9 2.036 . S
Zn3 O27 2.066 . S
Zn3 O31 2.053 . S
C4 O1 1.259 . S
C4 O5 1.254 . S
O5 Zn3 2.046 1_655 S
O5 C4 1.254 . S
C6 O27 1.256 . S
C6 O28 1.244 . S
O7 Zn3 2.055 . S
O7 C29 1.259 . S
O8 Zn0 2.046 . S
O8 C29 1.254 . S
N9 Zn3 2.036 . S
N9 C10 1.298 . S
N9 N12 1.398 . S
C10 N9 1.298 . S
C10 N13 1.367 . S
C10 C23 1.481 . S
C11 N12 1.299 . S
C11 N13 1.379 . S
N12 N9 1.398 . S
N12 C11 1.299 . S
N13 C10 1.367 . S
N13 C11 1.379 . S
C14 N16 1.298 . S
C14 N18 1.367 . S
C14 C22 1.481 1_455 S
C15 N17 1.299 . S
C15 N18 1.379 . S
N16 Zn0 2.036 . S
N16 C14 1.298 . S
N16 N17 1.398 . S
N17 C15 1.299 . S
N17 N16 1.398 . S
N18 C14 1.367 . S
N18 C15 1.379 . S
H19 C22 0.980 . S
H20 C22 0.981 . S
H21 C22 0.981 . S
C22 C14 1.481 1_655 S
C22 H19 0.980 . S
C22 H20 0.981 . S
C22 H21 0.981 . S
C23 C10 1.481 . S
C23 H24 0.980 . S
C23 H25 0.981 . S
C23 H26 0.981 . S
H24 C23 0.980 . S
H25 C23 0.981 . S
H26 C23 0.981 . S
O27 Zn3 2.066 . S
O27 C6 1.256 . S
O28 Zn0 2.053 . S
O28 C6 1.244 . S
C29 O7 1.259 . S
C29 O8 1.254 . S
O30 Zn0 2.066 . S
O30 C2 1.256 . S
O31 C2 1.244 . S
O31 Zn3 2.053 . S
Zn32 O33 2.055 . S
Zn32 O40 2.046 . S
Zn32 N48 2.036 . S
Zn32 O60 2.053 . S
Zn32 O62 2.066 . S
O33 Zn32 2.055 . S
O33 C36 1.259 1_655 S
C34 O62 1.256 1_455 S
C34 O63 1.244 . S
Zn35 O37 2.046 . S
Zn35 O39 2.055 . S
Zn35 N41 2.036 . S
Zn35 O59 2.066 . S
Zn35 O63 2.053 . S
C36 O33 1.259 1_455 S
C36 O37 1.254 . S
O37 Zn35 2.046 . S
O37 C36 1.254 . S
C38 O59 1.256 . S
C38 O60 1.244 1_455 S
O39 Zn35 2.055 . S
O39 C61 1.259 . S
O40 Zn32 2.046 . S
O40 C61 1.254 1_655 S
N41 Zn35 2.036 . S
N41 C42 1.298 . S
N41 N44 1.398 . S
C42 N41 1.298 . S
C42 N45 1.367 . S
C42 C55 1.481 . S
C43 N44 1.299 . S
C43 N45 1.379 . S
N44 N41 1.398 . S
N44 C43 1.299 . S
N45 C42 1.367 . S
N45 C43 1.379 . S
C46 N48 1.298 . S
C46 N50 1.367 . S
C46 C54 1.481 . S
C47 N49 1.299 . S
C47 N50 1.379 . S
N48 Zn32 2.036 . S
N48 C46 1.298 . S
N48 N49 1.398 . S
N49 C47 1.299 . S
N49 N48 1.398 . S
N50 C46 1.367 . S
N50 C47 1.379 . S
H51 C54 0.980 . S
H52 C54 0.981 . S
H53 C54 0.981 . S
C54 C46 1.481 . S
C54 H51 0.980 . S
C54 H52 0.981 . S
C54 H53 0.981 . S
C55 C42 1.481 . S
C55 H56 0.980 . S
C55 H57 0.981 . S
C55 H58 0.981 . S
H56 C55 0.980 . S
H57 C55 0.981 . S
H58 C55 0.981 . S
O59 Zn35 2.066 . S
O59 C38 1.256 . S
O60 Zn32 2.053 . S
O60 C38 1.244 1_655 S
C61 O39 1.259 . S
C61 O40 1.254 1_455 S
O62 Zn32 2.066 . S
O62 C34 1.256 1_655 S
O63 C34 1.244 . S
O63 Zn35 2.053 . S
Zn64 O65 2.055 . S
Zn64 O72 2.046 . S
Zn64 N80 2.036 . S
Zn64 O92 2.053 . S
Zn64 O94 2.066 1_556 S
O65 Zn64 2.055 . S
O65 C68 1.259 . S
C66 O94 1.256 . S
C66 O95 1.244 . S
Zn67 O69 2.046 . S
Zn67 O71 2.055 . S
Zn67 N73 2.036 . S
Zn67 O91 2.066 . S
Zn67 O95 2.053 1_556 S
C68 O65 1.259 . S
C68 O69 1.254 . S
O69 Zn67 2.046 . S
O69 C68 1.254 . S
C70 O91 1.256 . S
C70 O92 1.244 . S
O71 Zn67 2.055 . S
O71 C93 1.259 . S
O72 Zn64 2.046 . S
O72 C93 1.254 . S
N73 Zn67 2.036 . S
N73 C74 1.298 . S
N73 N76 1.398 . S
C74 N73 1.298 . S
C74 N77 1.367 . S
C74 C87 1.481 . S
C75 N76 1.299 . S
C75 N77 1.379 . S
N76 N73 1.398 . S
N76 C75 1.299 . S
N77 C74 1.367 . S
N77 C75 1.379 . S
C78 N80 1.298 . S
C78 N82 1.367 . S
C78 C86 1.481 . S
C79 N81 1.299 . S
C79 N82 1.379 . S
N80 Zn64 2.036 . S
N80 C78 1.298 . S
N80 N81 1.398 . S
N81 C79 1.299 . S
N81 N80 1.398 . S
N82 C78 1.367 . S
N82 C79 1.379 . S
H83 C86 0.980 . S
H84 C86 0.981 . S
H85 C86 0.981 1_554 S
C86 C78 1.481 . S
C86 H83 0.980 . S
C86 H84 0.981 . S
C86 H85 0.981 1_556 S
C87 C74 1.481 . S
C87 H88 0.980 . S
C87 H89 0.981 . S
C87 H90 0.981 . S
H88 C87 0.980 . S
H89 C87 0.981 . S
H90 C87 0.981 . S
O91 Zn67 2.066 . S
O91 C70 1.256 . S
O92 Zn64 2.053 . S
O92 C70 1.244 . S
C93 O71 1.259 . S
C93 O72 1.254 . S
O94 Zn64 2.066 1_554 S
O94 C66 1.256 . S
O95 C66 1.244 . S
O95 Zn67 2.053 1_554 S
Zn96 O97 2.055 . S
Zn96 O104 2.046 . S
Zn96 N112 2.036 . S
Zn96 O124 2.046 1_554 S
Zn96 O126 2.066 . S
O97 Zn96 2.055 . S
O97 C100 1.259 . S
C98 O126 1.256 . S
C98 O127 1.244 . S
Zn99 O101 2.046 . S
Zn99 O103 2.055 . S
Zn99 N105 2.036 . S
Zn99 O123 2.075 . S
Zn99 O127 2.053 . S
C100 O97 1.259 . S
C100 O101 1.254 . S
O101 Zn99 2.046 . S
O101 C100 1.254 . S
C102 O123 1.252 1_556 S
C102 O124 1.247 . S
O103 Zn99 2.055 . S
O103 C125 1.259 . S
O104 Zn96 2.046 . S
O104 C125 1.254 . S
N105 Zn99 2.036 . S
N105 C106 1.298 . S
N105 N108 1.398 . S
C106 N105 1.298 . S
C106 N109 1.367 . S
C106 C119 1.481 . S
C107 N108 1.299 . S
C107 N109 1.379 . S
N108 N105 1.398 . S
N108 C107 1.299 . S
N109 C106 1.367 . S
N109 C107 1.379 . S
C110 N112 1.298 . S
C110 N114 1.367 . S
C110 C118 1.481 . S
C111 N113 1.299 . S
C111 N114 1.379 . S
N112 Zn96 2.036 . S
N112 C110 1.298 . S
N112 N113 1.398 . S
N113 C111 1.299 . S
N113 N112 1.398 . S
N114 C110 1.367 . S
N114 C111 1.379 . S
H115 C118 0.980 . S
H116 C118 0.981 . S
H117 C118 0.981 . S
C118 C110 1.481 . S
C118 H115 0.980 . S
C118 H116 0.981 . S
C118 H117 0.981 . S
C119 C106 1.481 . S
C119 H120 0.980 . S
C119 H121 0.981 . S
C119 H122 0.981 . S
H120 C119 0.980 . S
H121 C119 0.981 . S
H122 C119 0.981 . S
O123 Zn99 2.075 . S
O123 C102 1.252 1_554 S
O124 Zn96 2.046 1_556 S
O124 C102 1.247 . S
C125 O103 1.259 . S
C125 O104 1.254 . S
O126 Zn96 2.066 . S
O126 C98 1.256 . S
O127 C98 1.244 . S
O127 Zn99 2.053 . S
C128 C129 1.363 1_655 S
C128 C134 1.379 . S
C128 N136 1.356 . S
C129 C128 1.363 1_455 S
C129 C135 1.363 . S
C130 C131 1.363 . S
C130 C135 1.379 . S
C130 N137 1.356 . S
C131 C130 1.363 . S
C131 C134 1.363 1_455 S
N132 C134 1.356 . S
N132 H144 0.984 . S
N132 H145 0.985 . S
N133 C135 1.356 . S
N133 H138 0.984 . S
N133 H139 0.985 . S
C134 C128 1.379 . S
C134 C131 1.363 1_655 S
C134 N132 1.356 . S
C135 C129 1.363 . S
C135 C130 1.379 . S
C135 N133 1.356 . S
N136 C128 1.356 . S
N136 H142 0.984 . S
N136 H143 0.984 . S
N137 C130 1.356 . S
N137 H140 0.984 . S
N137 H141 0.985 . S
H138 N133 0.984 . S
H139 N133 0.985 . S
H140 N137 0.984 . S
H141 N137 0.985 . S
H142 N136 0.984 . S
H143 N136 0.984 . S
H144 N132 0.984 . S
H145 N132 0.985 . S
C146 C147 1.363 . S
C146 C152 1.379 . S
C146 N154 1.356 . S
C147 C146 1.363 . S
C147 C153 1.363 . S
C148 C149 1.363 . S
C148 C153 1.379 . S
C148 N155 1.356 . S
C149 C148 1.363 . S
C149 C152 1.363 . S
N150 C152 1.356 . S
N150 H162 0.984 . S
N150 H163 0.985 . S
N151 C153 1.356 . S
N151 H156 0.984 . S
N151 H157 0.985 . S
C152 C146 1.379 . S
C152 C149 1.363 . S
C152 N150 1.356 . S
C153 C147 1.363 . S
C153 C148 1.379 . S
C153 N151 1.356 . S
N154 C146 1.356 . S
N154 H160 0.984 . S
N154 H161 0.984 . S
N155 C148 1.356 . S
N155 H158 0.984 . S
N155 H159 0.985 . S
H156 N151 0.984 . S
H157 N151 0.985 . S
H158 N155 0.984 . S
H159 N155 0.985 . S
H160 N154 0.984 . S
H161 N154 0.984 . S
H162 N150 0.984 . S
H163 N150 0.985 . S
C164 C165 1.363 . S
C164 C170 1.379 . S
C164 N172 1.356 . S
C165 C164 1.363 . S
C165 C171 1.363 1_554 S
C166 C167 1.363 . S
C166 C171 1.379 . S
C166 N173 1.356 . S
C167 C166 1.363 . S
C167 C170 1.363 1_556 S
N168 C170 1.356 . S
N168 H180 0.984 . S
N168 H181 0.985 1_554 S
N169 C171 1.356 . S
N169 H174 0.984 1_556 S
N169 H175 0.985 . S
C170 C164 1.379 . S
C170 C167 1.363 1_554 S
C170 N168 1.356 . S
C171 C165 1.363 1_556 S
C171 C166 1.379 . S
C171 N169 1.356 . S
N172 C164 1.356 . S
N172 H178 0.984 . S
N172 H179 0.984 . S
N173 C166 1.356 . S
N173 H176 0.984 . S
N173 H177 0.985 . S
H174 N169 0.984 1_554 S
H175 N169 0.985 . S
H176 N173 0.984 . S
H177 N173 0.985 . S
H178 N172 0.984 . S
H179 N172 0.984 . S
H180 N168 0.984 . S
H181 N168 0.985 1_556 S
C182 C183 1.363 . S
C182 C188 1.379 . S
C182 N190 1.356 . S
C183 C182 1.363 . S
C183 C189 1.363 . S
C184 C185 1.363 . S
C184 C189 1.379 . S
C184 N191 1.356 . S
C185 C184 1.363 . S
C185 C188 1.363 . S
N186 C188 1.356 . S
N186 H198 0.984 . S
N186 H199 0.985 . S
N187 C189 1.356 . S
N187 H192 0.984 . S
N187 H193 0.985 . S
C188 C182 1.379 . S
C188 C185 1.363 . S
C188 N186 1.356 . S
C189 C183 1.363 . S
C189 C184 1.379 . S
C189 N187 1.356 . S
N190 C182 1.356 . S
N190 H196 0.984 . S
N190 H197 0.984 . S
N191 C184 1.356 . S
N191 H194 0.984 . S
N191 H195 0.985 . S
H192 N187 0.984 . S
H193 N187 0.985 . S
H194 N191 0.984 . S
H195 N191 0.985 . S
H196 N190 0.984 . S
H197 N190 0.984 . S
H198 N186 0.984 . S
H199 N186 0.985 . S
C200 C201 1.363 . S
C200 C206 1.379 . S
C200 N208 1.356 . S
C201 C200 1.363 . S
C201 C207 1.363 . S
C202 C203 1.363 . S
C202 C207 1.379 . S
C202 N209 1.356 . S
C203 C202 1.363 . S
C203 C206 1.363 . S
N204 C206 1.356 . S
N204 H216 0.984 . S
N204 H217 0.985 . S
N205 C207 1.356 . S
N205 H210 0.984 . S
N205 H211 0.985 . S
C206 C200 1.379 . S
C206 C203 1.363 . S
C206 N204 1.356 . S
C207 C201 1.363 . S
C207 C202 1.379 . S
C207 N205 1.356 . S
N208 C200 1.356 . S
N208 H214 0.984 . S
N208 H215 0.984 . S
N209 C202 1.356 . S
N209 H212 0.984 . S
N209 H213 0.985 . S
H210 N205 0.984 . S
H211 N205 0.985 . S
H212 N209 0.984 . S
H213 N209 0.985 . S
H214 N208 0.984 . S
H215 N208 0.984 . S
H216 N204 0.984 . S
H217 N204 0.985 . S
C218 C219 1.363 . S
C218 C224 1.379 . S
C218 N226 1.356 . S
C219 C218 1.363 . S
C219 C225 1.363 . S
C220 C221 1.363 . S
C220 C225 1.379 . S
C220 N227 1.356 . S
C221 C220 1.363 . S
C221 C224 1.363 . S
N222 C224 1.356 . S
N222 H234 0.984 . S
N222 H235 0.985 . S
N223 C225 1.356 . S
N223 H228 0.984 . S
N223 H229 0.985 . S
C224 C218 1.379 . S
C224 C221 1.363 . S
C224 N222 1.356 . S
C225 C219 1.363 . S
C225 C220 1.379 . S
C225 N223 1.356 . S
N226 C218 1.356 . S
N226 H232 0.984 . S
N226 H233 0.984 . S
N227 C220 1.356 . S
N227 H230 0.984 . S
N227 H231 0.985 . S
H228 N223 0.984 . S
H229 N223 0.985 . S
H230 N227 0.984 . S
H231 N227 0.985 . S
H232 N226 0.984 . S
H233 N226 0.984 . S
H234 N222 0.984 . S
H235 N222 0.985 . S
C236 C237 1.363 1_545 S
C236 C242 1.379 1_556 S
C236 N244 1.356 . S
C237 C236 1.363 1_565 S
C237 C243 1.363 1_556 S
C238 C239 1.363 1_565 S
C238 C243 1.379 . S
C238 N245 1.356 . S
C239 C238 1.363 1_545 S
C239 C242 1.363 . S
N240 C242 1.356 . S
N240 H252 0.984 1_554 S
N240 H253 0.985 . S
N241 C243 1.356 . S
N241 H246 0.984 1_554 S
N241 H247 0.985 . S
C242 C236 1.379 1_554 S
C242 C239 1.363 . S
C242 N240 1.356 . S
C243 C237 1.363 1_554 S
C243 C238 1.379 . S
C243 N241 1.356 . S
N244 C236 1.356 . S
N244 H250 0.984 . S
N244 H251 0.984 1_545 S
N245 C238 1.356 . S
N245 H248 0.984 1_565 S
N245 H249 0.985 . S
H246 N241 0.984 1_556 S
H247 N241 0.985 . S
H248 N245 0.984 1_545 S
H249 N245 0.985 . S
H250 N244 0.984 . S
H251 N244 0.984 1_565 S
H252 N240 0.984 1_556 S
H253 N240 0.985 . S
C254 C255 1.363 . S
C254 C260 1.379 . S
C254 N262 1.356 . S
C255 C254 1.363 . S
C255 C261 1.363 . S
C256 C257 1.363 . S
C256 C261 1.379 . S
C256 N263 1.356 1_565 S
C257 C256 1.363 . S
C257 C260 1.363 . S
N258 C260 1.356 . S
N258 H270 0.984 . S
N258 H271 0.985 1_565 S
N259 C261 1.356 1_655 S
N259 H264 0.984 . S
N259 H265 0.985 . S
C260 C254 1.379 . S
C260 C257 1.363 . S
C260 N258 1.356 . S
C261 C255 1.363 . S
C261 C256 1.379 . S
C261 N259 1.356 1_455 S
N262 C254 1.356 . S
N262 H268 0.984 . S
N262 H269 0.984 . S
N263 C256 1.356 1_545 S
N263 H266 0.984 . S
N263 H267 0.985 1_455 S
H264 N259 0.984 . S
H265 N259 0.985 . S
H266 N263 0.984 . S
H267 N263 0.985 1_655 S
H268 N262 0.984 . S
H269 N262 0.984 . S
H270 N258 0.984 . S
H271 N258 0.985 1_545 S
C272 C273 1.363 . S
C272 C278 1.379 . S
C272 N280 1.356 1_556 S
C273 C272 1.363 . S
C273 C279 1.363 . S
C274 C275 1.363 . S
C274 C279 1.379 . S
C274 N281 1.356 1_455 S
C275 C274 1.363 . S
C275 C278 1.363 . S
N276 C278 1.356 . S
N276 H288 0.984 . S
N276 H289 0.985 . S
N277 C279 1.356 1_654 S
N277 H282 0.984 . S
N277 H283 0.985 . S
C278 C272 1.379 . S
C278 C275 1.363 . S
C278 N276 1.356 . S
C279 C273 1.363 . S
C279 C274 1.379 . S
C279 N277 1.356 1_456 S
N280 C272 1.356 1_554 S
N280 H286 0.984 1_554 S
N280 H287 0.984 . S
N281 C274 1.356 1_655 S
N281 H284 0.984 . S
N281 H285 0.985 . S
H282 N277 0.984 . S
H283 N277 0.985 . S
H284 N281 0.984 . S
H285 N281 0.985 . S
H286 N280 0.984 1_556 S
H287 N280 0.984 . S
H288 N276 0.984 . S
H289 N276 0.985 . S
C290 C291 1.363 1_654 S
C290 C296 1.379 . S
C290 N298 1.356 1_554 S
C291 C290 1.363 1_456 S
C291 C297 1.363 . S
C292 C293 1.363 . S
C292 C297 1.379 1_554 S
C292 N299 1.356 . S
C293 C292 1.363 . S
C293 C296 1.363 1_455 S
N294 C296 1.356 . S
N294 H306 0.984 . S
N294 H307 0.985 . S
N295 C297 1.356 . S
N295 H300 0.984 . S
N295 H301 0.985 . S
C296 C290 1.379 . S
C296 C293 1.363 1_655 S
C296 N294 1.356 . S
C297 C291 1.363 . S
C297 C292 1.379 1_556 S
C297 N295 1.356 . S
N298 C290 1.356 1_556 S
N298 H304 0.984 . S
N298 H305 0.984 . S
N299 C292 1.356 . S
N299 H302 0.984 . S
N299 H303 0.985 . S
H300 N295 0.984 . S
H301 N295 0.985 . S
H302 N299 0.984 . S
H303 N299 0.985 . S
H304 N298 0.984 . S
H305 N298 0.984 . S
H306 N294 0.984 . S
H307 N294 0.985 . S
C308 C309 1.363 . S
C308 C314 1.379 . S
C308 N316 1.356 . S
C309 C308 1.363 . S
C309 C315 1.363 . S
C310 C311 1.363 . S
C310 C315 1.379 . S
C310 N317 1.356 . S
C311 C310 1.363 . S
C311 C314 1.363 . S
N312 C314 1.356 . S
N312 H324 0.984 . S
N312 H325 0.985 . S
N313 C315 1.356 . S
N313 H318 0.984 . S
N313 H319 0.985 . S
C314 C308 1.379 . S
C314 C311 1.363 . S
C314 N312 1.356 . S
C315 C309 1.363 . S
C315 C310 1.379 . S
C315 N313 1.356 . S
N316 C308 1.356 . S
N316 H322 0.984 . S
N316 H323 0.984 . S
N317 C310 1.356 . S
N317 H320 0.984 . S
N317 H321 0.985 . S
H318 N313 0.984 . S
H319 N313 0.985 . S
H320 N317 0.984 . S
H321 N317 0.985 . S
H322 N316 0.984 . S
H323 N316 0.984 . S
H324 N312 0.984 . S
H325 N312 0.985 . S
C326 C327 1.363 . S
C326 C332 1.379 . S
C326 N334 1.356 . S
C327 C326 1.363 . S
C327 C333 1.363 . S
C328 C329 1.363 . S
C328 C333 1.379 . S
C328 N335 1.356 . S
C329 C328 1.363 . S
C329 C332 1.363 . S
N330 C332 1.356 . S
N330 H342 0.984 . S
N330 H343 0.985 . S
N331 C333 1.356 . S
N331 H336 0.984 . S
N331 H337 0.985 . S
C332 C326 1.379 . S
C332 C329 1.363 . S
C332 N330 1.356 . S
C333 C327 1.363 . S
C333 C328 1.379 . S
C333 N331 1.356 . S
N334 C326 1.356 . S
N334 H340 0.984 . S
N334 H341 0.984 . S
N335 C328 1.356 . S
N335 H338 0.984 . S
N335 H339 0.985 . S
H336 N331 0.984 . S
H337 N331 0.985 . S
H338 N335 0.984 . S
H339 N335 0.985 . S
H340 N334 0.984 . S
H341 N334 0.984 . S
H342 N330 0.984 . S
H343 N330 0.985 . S
C129 N18 2.302 . S
C131 C36 2.250 . S
C147 C70 1.302 . S
C149 N50 1.332 . S
C165 N109 1.319 . S
C167 N77 1.118 . S
C183 C4 2.121 . S
C185 C125 2.119 . S
C201 C98 2.608 . S
C203 C6 2.607 . S
C219 C68 0.990 . S
C221 N45 0.946 . S
C237 N82 1.239 . S
C239 N114 1.043 . S
C255 C38 2.509 . S
C257 N13 2.331 1_565 S
C273 C29 1.156 1_556 S
C275 C2 1.162 . S
C291 C34 1.169 . S
C293 C61 1.161 . S
C309 C66 1.162 . S
C311 C93 1.156 . S
C327 C100 1.157 . S
C329 C102 1.163 . S
