# Generated by pormake.
# Topology rkf, (6)-cn, num edge types: 1
# Building blocks:
#     Node 0, Type 0, BuildingBlock: CUWYAW_clean_sbu_0, # of connection points: 6
#     Node 1, Type 0, BuildingBlock: CUWYAW_clean_sbu_0, # of connection points: 6
#     Node 2, Type 0, BuildingBlock: CUWYAW_clean_sbu_0, # of connection points: 6
#     Node 3, Type 0, BuildingBlock: CUWYAW_clean_sbu_0, # of connection points: 6
#     Node 4, Type 0, BuildingBlock: CUWYAW_clean_sbu_0, # of connection points: 6
#     Node 5, Type 0, BuildingBlock: CUWYAW_clean_sbu_0, # of connection points: 6
#     Edge 6, Type (0, 0), BuildingBlock: OJICUG_clean_linker_0, # of connection points: 2
#     Edge 7, Type (0, 0), BuildingBlock: OJICUG_clean_linker_0, # of connection points: 2
#     Edge 8, Type (0, 0), BuildingBlock: OJICUG_clean_linker_0, # of connection points: 2
#     Edge 9, Type (0, 0), BuildingBlock: OJICUG_clean_linker_0, # of connection points: 2
#     Edge 10, Type (0, 0), BuildingBlock: OJICUG_clean_linker_0, # of connection points: 2
#     Edge 11, Type (0, 0), BuildingBlock: OJICUG_clean_linker_0, # of connection points: 2
#     Edge 12, Type (0, 0), BuildingBlock: OJICUG_clean_linker_0, # of connection points: 2
#     Edge 13, Type (0, 0), BuildingBlock: OJICUG_clean_linker_0, # of connection points: 2
#     Edge 14, Type (0, 0), BuildingBlock: OJICUG_clean_linker_0, # of connection points: 2
#     Edge 15, Type (0, 0), BuildingBlock: OJICUG_clean_linker_0, # of connection points: 2
#     Edge 16, Type (0, 0), BuildingBlock: OJICUG_clean_linker_0, # of connection points: 2
#     Edge 17, Type (0, 0), BuildingBlock: OJICUG_clean_linker_0, # of connection points: 2
#     Edge 18, Type (0, 0), BuildingBlock: OJICUG_clean_linker_0, # of connection points: 2
#     Edge 19, Type (0, 0), BuildingBlock: OJICUG_clean_linker_0, # of connection points: 2
#     Edge 20, Type (0, 0), BuildingBlock: OJICUG_clean_linker_0, # of connection points: 2
#     Edge 21, Type (0, 0), BuildingBlock: OJICUG_clean_linker_0, # of connection points: 2
#     Edge 22, Type (0, 0), BuildingBlock: OJICUG_clean_linker_0, # of connection points: 2
#     Edge 23, Type (0, 0), BuildingBlock: OJICUG_clean_linker_0, # of connection points: 2
# Relax obj value: 1.086
# Max RMSD: 0.260
# Mean RMSD: 0.260
data_MOF--net-rkf--node1-CUWYAW_clean_sbu_0--edge1-OJICUG_clean_linker_0
_symmetry_space_group_name_H-M    P1
_symmetry_Int_Tables_number       1
_symmetry_cell_setting            triclinic
loop_
_symmetry_equiv_pos_as_xyz
'x, y, z'
_cell_length_a     21.164046
_cell_length_b     20.629069
_cell_length_c     30.629942
_cell_angle_alpha  90.204683
_cell_angle_beta   89.83074
_cell_angle_gamma 120.78988
loop_
_atom_site_label
_atom_site_type_symbol
_atom_site_fract_x
_atom_site_fract_y
_atom_site_fract_z
_atom_type_partial_charge
C0 C 0.37335 0.33109 1.21171 0.0
Eu1 Eu 0.32057 0.19282 1.23791 0.0
C2 C 0.37665 0.40257 1.22144 0.0
C3 C 0.44527 0.46966 1.2211 0.0
C4 C 0.44938 0.53936 1.21963 0.0
C5 C 0.38487 0.5429 1.21728 0.0
C6 C 0.31657 0.47576 1.22312 0.0
C7 C 0.31252 0.40618 1.2252 0.0
C8 C 0.41993 0.14603 1.24118 0.0
C9 C 0.23889 0.05003 1.1763 0.0
C10 C 0.2679 0.9328 0.30641 0.0
Eu11 Eu 0.26916 0.05379 0.28199 0.0
C12 C 0.30332 0.91472 0.34135 0.0
C13 C 0.32419 -0.04313 0.38004 0.0
C14 C 0.33704 0.92725 0.41748 0.0
C15 C 0.32815 0.8546 0.41658 0.0
C16 C 0.32291 0.82096 0.37558 0.0
C17 C 0.30877 0.85008 0.3382 0.0
C18 C 0.16157 0.08781 0.28184 0.0
C19 C 0.3085 0.19249 0.34219 0.0
O20 O 0.40857 0.31087 1.23797 0.0
O21 O 0.31086 0.2742 1.198 0.0
O22 O 0.40225 0.16706 1.20591 0.0
O23 O 0.38218 0.14729 0.27263 0.0
O24 O 0.26689 0.12355 1.17805 0.0
O25 O 0.23568 0.01185 1.21167 0.0
O26 O 0.31162 -0.02232 0.27603 0.0
O27 O 0.21852 -0.05062 0.31888 0.0
O28 O 0.17341 0.05357 0.31353 0.0
O29 O 0.20435 0.09919 1.24971 0.0
O30 O 0.31366 0.13141 0.34068 0.0
O31 O 0.29814 0.21983 0.30591 0.0
H32 H 0.49557 0.46808 1.21878 0.0
H33 H 0.50275 0.58991 1.21634 0.0
H34 H 0.26539 0.47557 1.22144 0.0
H35 H 0.25891 0.35516 1.22628 0.0
H36 H 0.32319 0.00877 0.38249 0.0
H37 H 0.34326 -0.04323 0.4479 0.0
H38 H 0.31964 0.76692 0.37328 0.0
H39 H 0.29577 0.81862 0.30787 0.0
C40 C 0.11763 0.40726 0.57007 0.0
Eu41 Eu 0.22387 0.38021 0.57826 0.0
C42 C 0.07837 0.44095 0.55045 0.0
C43 C 0.03952 0.4624 0.57833 0.0
C44 C -0.01035 0.48073 0.56134 0.0
C45 C -0.02083 0.47925 0.51612 0.0
C46 C 0.02198 0.46256 0.48811 0.0
C47 C 0.07109 0.44313 0.50519 0.0
C48 C 0.36714 0.493 0.57936 0.0
C49 C 0.28874 0.31667 0.50886 0.0
C50 C 0.44951 0.34355 0.62754 0.0
Eu51 Eu 0.32541 0.3381 0.61537 0.0
C52 C 0.5101 0.37485 0.65869 0.0
C53 C 0.50174 0.3996 0.69966 0.0
C54 C 0.54733 0.40491 0.73389 0.0
C55 C 0.60048 0.38376 0.72746 0.0
C56 C 0.61769 0.37419 0.68439 0.0
C57 C 0.57162 0.36836 0.65016 0.0
C58 C 0.18582 0.22014 0.61538 0.0
C59 C 0.23086 0.36463 0.68296 0.0
O60 O 0.11889 0.35196 0.54971 0.0
O61 O 0.1765 0.45002 0.59311 0.0
O62 O 0.3234 0.48 0.54665 0.0
O63 O 0.33291 0.44749 0.60986 0.0
O64 O 0.24007 0.33809 0.51389 0.0
O65 O 0.3272 0.3147 0.54237 0.0
O66 O 0.44321 0.39211 0.60354 0.0
O67 O 0.38627 0.28914 0.64232 0.0
O68 O 0.23374 0.23169 0.64554 0.0
O69 O 0.21481 0.26819 0.58496 0.0
O70 O 0.29826 0.37706 0.67839 0.0
O71 O 0.18837 0.34901 0.64852 0.0
H72 H 0.04472 0.46089 0.61345 0.0
H73 H -0.04248 0.4936 0.58348 0.0
H74 H 0.01398 0.45954 0.45308 0.0
H75 H 0.1004 0.4263 0.48324 0.0
H76 H 0.4553 0.40671 0.70633 0.0
H77 H 0.53293 0.41423 0.7663 0.0
H78 H 0.65979 0.36029 0.67811 0.0
H79 H 0.57971 0.35128 0.61813 0.0
C80 C 0.81542 0.18062 0.89664 0.0
Eu81 Eu -0.05004 0.28751 0.91113 0.0
C82 C 0.74376 0.14956 0.87526 0.0
C83 C 0.68066 0.11676 0.90172 0.0
C84 C 0.61153 0.06934 0.88355 0.0
C85 C 0.60466 0.05469 0.83858 0.0
C86 C 0.66713 0.09377 0.81162 0.0
C87 C 0.73638 0.14064 0.82987 0.0
C88 C -0.01307 0.43437 0.91109 0.0
C89 C 0.08707 0.35298 0.84728 0.0
C90 C 0.20894 0.51585 0.97524 0.0
Eu91 Eu 0.09136 0.39024 0.95305 0.0
C92 C 0.23114 0.56723 1.01264 0.0
C93 C 0.19163 0.54322 1.05181 0.0
C94 C 0.22255 0.58346 1.0902 0.0
C95 C 0.29376 0.64807 1.08991 0.0
C96 C 0.32743 0.67801 1.04933 0.0
C97 C 0.29665 0.63716 1.01091 0.0
C98 C 0.06132 0.24577 0.95325 0.0
C99 C -0.03847 0.2888 1.01614 0.0
O100 O 0.87167 0.18778 0.87445 0.0
O101 O 0.83327 0.23282 0.92622 0.0
O102 O -0.04276 0.38946 0.87808 0.0
O103 O -0.00644 0.39938 0.94268 0.0
O104 O 0.01674 0.30091 0.85121 0.0
O105 O 0.12474 0.39632 0.88091 0.0
O106 O 0.15742 0.51304 0.9505 0.0
O107 O 0.19926 0.44905 0.98333 0.0
O108 O 0.09616 0.29361 0.98466 0.0
O109 O 0.0483 0.27741 0.92219 0.0
O110 O 0.0192 0.35776 1.01345 0.0
O111 O -0.06406 0.2469 0.98079 0.0
H112 H 0.68541 0.12317 0.9369 0.0
H113 H 0.56424 0.04026 0.9049 0.0
H114 H 0.6637 0.08291 0.77682 0.0
H115 H 0.78433 0.16544 0.80884 0.0
H116 H 0.13999 0.48998 1.05342 0.0
H117 H 0.19421 0.55834 1.12051 0.0
H118 H 0.38126 0.72865 1.04776 0.0
H119 H 0.32679 0.65729 0.98052 0.0
C120 C 0.67539 0.86206 1.21707 0.0
Eu121 Eu 0.73337 0.00215 1.24176 0.0
C122 C 0.68145 0.79573 1.22496 0.0
C123 C 0.64197 0.73299 1.19797 0.0
C124 C 0.65624 0.67427 1.19876 0.0
C125 C 0.71084 0.67764 1.22648 0.0
C126 C 0.74562 0.73779 1.25642 0.0
C127 C 0.73116 0.79681 1.25555 0.0
C128 C 0.63816 0.05442 1.24353 0.0
C129 C 0.82216 0.14197 1.17951 0.0
C130 C 0.79981 0.26771 0.30618 0.0
Eu131 Eu 0.78998 0.14106 0.28468 0.0
C132 C 0.76811 0.29498 0.33868 0.0
C133 C 0.74929 0.26248 0.38022 0.0
C134 C 0.7425 0.30272 0.41468 0.0
C135 C 0.75615 0.3765 0.40783 0.0
C136 C 0.75829 0.40038 0.36458 0.0
C137 C 0.76603 0.36046 0.33012 0.0
C138 C -0.10543 0.10242 0.28403 0.0
C139 C 0.74861 0.00459 0.34598 0.0
O140 O 0.64913 0.88356 1.24887 0.0
O141 O 0.73141 0.91848 1.19755 0.0
O142 O 0.65489 0.03077 1.20887 0.0
O143 O 0.67434 0.05227 0.2755 0.0
O144 O 0.79206 0.06825 1.18191 0.0
O145 O 0.82539 0.18132 1.21443 0.0
O146 O 0.75496 0.22282 0.27619 0.0
O147 O 0.84436 0.24634 0.32093 0.0
O148 O 0.88443 0.1382 0.31573 0.0
O149 O 0.85155 0.0915 1.2523 0.0
O150 O 0.74522 0.06667 0.34458 0.0
O151 O 0.75728 -0.02379 0.30942 0.0
H152 H 0.60358 0.73173 1.17417 0.0
H153 H 0.62929 0.6299 1.17461 0.0
H154 H 0.78796 0.74199 0.27806 0.0
H155 H 0.76187 0.84516 0.27676 0.0
H156 H 0.74774 0.21013 0.38697 0.0
H157 H 0.73814 0.28049 0.44722 0.0
H158 H 0.76538 0.45527 0.35798 0.0
H159 H 0.77763 0.38461 0.29766 0.0
C160 C -0.08572 0.74285 0.54029 0.0
Eu161 Eu 0.83151 0.79286 0.56955 0.0
C162 C -0.01602 0.74505 0.54694 0.0
C163 C -0.01526 0.67782 0.54309 0.0
C164 C 0.05138 0.67977 0.53934 0.0
C165 C 0.11824 0.74887 0.53838 0.0
C166 C 0.1173 0.81563 0.54674 0.0
C167 C 0.05066 0.81368 0.55113 0.0
C168 C 0.68378 0.69329 0.57336 0.0
C169 C 0.77487 0.87773 0.50975 0.0
C170 C 0.63566 0.85415 0.63919 0.0
Eu171 Eu 0.74983 0.84728 0.61572 0.0
C172 C 0.57677 0.82171 0.67171 0.0
C173 C 0.59092 0.80995 0.71466 0.0
C174 C 0.54359 0.80472 0.74797 0.0
C175 C 0.48298 0.81319 0.73844 0.0
C176 C 0.46089 0.80747 0.69464 0.0
C177 C 0.50866 0.81344 0.66129 0.0
C178 C -0.10595 -0.04582 0.6149 0.0
C179 C 0.84021 0.80084 0.67491 0.0
O180 O 0.86216 0.70652 0.569 0.0
O181 O -0.08213 0.80444 0.52623 0.0
O182 O 0.72223 0.7091 0.53803 0.0
O183 O 0.72436 0.73151 0.60456 0.0
O184 O 0.81736 0.8484 0.5105 0.0
O185 O 0.74261 0.88196 0.54578 0.0
O186 O 0.63337 0.80834 0.6089 0.0
O187 O 0.70228 0.90091 0.65352 0.0
O188 O 0.84963 -0.05655 0.64713 0.0
O189 O 0.85987 0.91154 0.58271 0.0
O190 O 0.77631 0.7976 0.67364 0.0
O191 O 0.87795 0.81163 0.63849 0.0
H192 H -0.06627 0.62419 0.54015 0.0
H193 H 0.0506 0.62783 0.53378 0.0
H194 H 0.16737 0.87028 0.54591 0.0
H195 H 0.05139 0.86634 0.55464 0.0
H196 H 0.6422 0.81322 0.72304 0.0
H197 H 0.56162 0.80657 0.78124 0.0
H198 H 0.41302 0.81094 0.68624 0.0
H199 H 0.49589 0.8197 0.6279 0.0
C200 C 0.25084 0.00368 0.88388 0.0
Eu201 Eu 0.11954 0.89953 0.90524 0.0
C202 C 0.3255 0.06275 0.87175 0.0
C203 C 0.38134 0.04573 0.86635 0.0
C204 C 0.45206 0.1022 0.85431 0.0
C205 C 0.46825 0.17646 0.84801 0.0
C206 C 0.4126 0.19358 0.85479 0.0
C207 C 0.34185 0.13719 0.86645 0.0
C208 C 0.08233 0.7527 0.90777 0.0
C209 C -0.01785 0.82566 0.84191 0.0
C210 C 0.8632 0.67394 0.97497 0.0
Eu211 Eu -0.02101 0.79762 0.94899 0.0
C212 C 0.84509 0.62912 1.01496 0.0
C213 C -0.09915 0.6361 1.04279 0.0
C214 C 0.88389 0.60866 1.08549 0.0
C215 C 0.8113 0.57602 1.10121 0.0
C216 C 0.7549 0.56107 1.07119 0.0
C217 C 0.77184 0.58767 1.02848 0.0
C218 C 0.01026 -0.05812 0.94944 0.0
C219 C 0.11177 0.89949 1.01127 0.0
O220 O 0.19336 0.01037 0.87709 0.0
O221 O 0.23676 0.93964 0.9009 0.0
O222 O 0.10778 0.79451 0.87326 0.0
O223 O 0.07748 0.7899 0.93897 0.0
O224 O 0.05258 0.87749 0.84461 0.0
O225 O -0.05566 0.78691 0.8768 0.0
O226 O -0.08585 0.67491 0.95024 0.0
O227 O 0.87111 0.74077 0.97983 0.0
O228 O -0.02343 0.89471 0.98116 0.0
O229 O 0.02137 0.90971 0.91746 0.0
O230 O 0.05149 0.83225 1.00911 0.0
O231 O 0.14076 0.93938 0.97554 0.0
H232 H 0.37002 -0.01141 0.87042 0.0
H233 H 0.49358 0.08767 0.84868 0.0
H234 H 0.42269 0.24986 0.84891 0.0
H235 H 0.29974 0.15171 0.87077 0.0
H236 H -0.04206 0.6675 1.03264 0.0
H237 H -0.07151 0.61945 1.10726 0.0
H238 H 0.69828 0.53643 1.08159 0.0
H239 H 0.7282 0.5814 1.00722 0.0
C240 C -0.00469 0.09486 0.32084 0.0
C241 C -0.03842 0.09641 0.28178 0.0
H242 H 0.08431 0.09103 0.35116 0.0
C243 C -0.00527 0.09612 1.24188 0.0
H244 H -0.02882 0.095 0.35208 0.0
C245 C 0.06102 0.09541 1.24135 0.0
C246 C 0.09417 0.09325 0.28069 0.0
H247 H -0.02978 0.09785 1.21124 0.0
H248 H 0.08564 0.09537 1.2103 0.0
C249 C 0.06026 0.0927 0.3203 0.0
C250 C 0.00801 0.04969 0.65287 0.0
C251 C -0.03022 0.02039 0.61352 0.0
H252 H 0.1062 0.13525 0.68403 0.0
C253 C 0.0031 0.05729 0.57422 0.0
H254 H -0.01638 0.02241 0.68364 0.0
C255 C 0.07294 0.12333 0.57456 0.0
C256 C 0.1112 0.1521 0.61408 0.0
H257 H -0.02546 0.03618 0.54347 0.0
H258 H 0.09732 0.15134 0.54398 0.0
C259 C 0.07815 0.11426 0.6531 0.0
C260 C 0.0302 0.05826 0.91052 0.0
C261 C 0.025 0.02024 0.94956 0.0
H262 H 0.04375 0.15913 0.88107 0.0
C263 C 0.03214 0.05705 0.98953 0.0
H264 H 0.02466 0.03106 0.87928 0.0
C265 C 0.04463 0.13055 0.99055 0.0
C266 C 0.04859 0.1682 0.95164 0.0
H267 H 0.02861 0.02915 1.02012 0.0
H268 H 0.05014 0.15756 1.02186 0.0
C269 C 0.04078 0.13125 0.91157 0.0
C270 C 0.43061 0.64145 1.15972 0.0
C271 C 0.38635 0.60906 1.1969 0.0
H272 H 0.43674 0.68355 1.09589 0.0
C273 C 0.32913 0.62343 1.20485 0.0
H274 H 0.47624 0.6334 1.15253 0.0
C275 C 0.30563 0.65229 1.17149 0.0
C276 C 0.3392 0.66648 1.13012 0.0
H277 H 0.29618 0.60265 1.23423 0.0
H278 H 0.2549 0.6524 1.17598 0.0
C279 C 0.40748 0.67063 1.12665 0.0
C280 C -0.0745 0.5208 0.45832 0.0
C281 C -0.08307 0.48362 0.49798 0.0
H282 H 0.87633 0.51867 0.39786 0.0
C283 C 0.84562 0.43507 0.51404 0.0
H284 H -0.02011 0.56099 0.44612 0.0
C285 C 0.78518 0.41124 0.48646 0.0
C286 C 0.79676 0.43372 0.44245 0.0
H287 H 0.83722 0.40724 0.54525 0.0
H288 H 0.73213 0.36556 0.4972 0.0
C289 C 0.86526 0.49678 0.43082 0.0
C290 C 0.51122 0.91758 0.84005 0.0
C291 C 0.53781 -0.01135 0.82067 0.0
H292 H 0.46539 0.79966 0.82813 0.0
C293 C 0.51356 -0.00774 0.77877 0.0
H294 H 0.52768 0.9129 0.87279 0.0
C295 C 0.47672 0.92719 0.75351 0.0
C296 C 0.46716 0.85867 0.7694 0.0
H297 H 0.53191 0.0461 0.76335 0.0
H298 H 0.46902 0.93433 0.71931 0.0
C299 C 0.47505 0.85236 0.81448 0.0
C300 C 0.81944 0.66932 1.2058 0.0
C301 C 0.74376 0.63139 1.21491 0.0
H302 H -0.09813 0.68015 1.16188 0.0
C303 C 0.69901 0.55784 1.19852 0.0
H304 H 0.85611 0.72538 1.21861 0.0
C305 C 0.72573 0.53101 1.16564 0.0
C306 C 0.79686 0.57818 1.14869 0.0
H307 H 0.64088 0.52597 1.20632 0.0
H308 H 0.68752 0.47867 1.14935 0.0
C309 C 0.84593 0.64292 1.17276 0.0
C310 C 0.25544 0.81383 0.52887 0.0
C311 C 0.18478 0.75354 0.51865 0.0
H312 H 0.36258 0.89208 0.5041 0.0
C313 C 0.17654 0.70955 0.48152 0.0
H314 H 0.26474 0.84652 0.5584 0.0
C315 C 0.23263 0.73529 0.45068 0.0
C316 C 0.29693 0.8063 0.45607 0.0
H317 H 0.12374 0.66139 0.4727 0.0
H318 H 0.21946 0.70556 0.41979 0.0
C319 C 0.31175 0.83963 0.49782 0.0
C320 C 0.57118 0.30942 0.83837 0.0
C321 C 0.53735 0.23295 0.82658 0.0
H322 H 0.62643 0.4229 0.81489 0.0
C323 C 0.55667 0.21379 0.78685 0.0
H324 H 0.55912 0.32561 0.86957 0.0
C325 C 0.5955 0.26932 0.75572 0.0
C326 C 0.61294 0.34401 0.76377 0.0
H327 H 0.53206 0.15546 0.777 0.0
H328 H 0.59879 0.2506 0.72317 0.0
C329 C 0.61021 0.36516 0.80712 0.0
C330 C 0.50116 0.11073 0.28313 0.0
C331 C 0.47581 0.12272 1.24321 0.0
H332 H 0.57363 0.08091 0.31484 0.0
C333 C 0.50474 0.11257 1.20419 0.0
H334 H 0.47984 0.11807 0.31376 0.0
C335 C 0.55713 0.09048 1.20481 0.0
C336 C 0.58299 0.07877 1.24445 0.0
H337 H 0.48644 0.1212 1.17292 0.0
H338 H 0.57772 0.08288 1.17396 0.0
C339 C 0.55483 0.08957 0.28375 0.0
C340 C 0.48957 0.56776 0.61717 0.0
C341 C 0.44788 0.54613 0.57848 0.0
H342 H 0.59701 0.63243 0.64602 0.0
C343 C 0.48439 0.57383 0.53847 0.0
H344 H 0.46291 0.54711 0.64849 0.0
C345 C 0.56096 0.62103 0.537 0.0
C346 C 0.60272 0.64288 0.57557 0.0
H347 H 0.45387 0.55787 0.50812 0.0
H348 H 0.58749 0.64084 0.50557 0.0
C349 C 0.56623 0.61639 0.61576 0.0
C350 C 0.02514 0.55681 0.95009 0.0
C351 C 0.01137 0.51583 0.91094 0.0
H352 H 0.05729 0.66394 0.97986 0.0
C353 C 0.02154 0.55351 0.87111 0.0
H354 H 0.01785 0.52923 0.98128 0.0
C355 C 0.04546 0.63055 0.87028 0.0
C356 C 0.05832 0.67142 0.90929 0.0
H357 H 0.01176 0.52355 0.84044 0.0
H358 H 0.05306 0.65796 0.839 0.0
C359 C 0.04764 0.63377 0.94927 0.0
C360 C 0.2773 0.27442 0.38721 0.0
C361 C 0.30656 0.22659 0.3847 0.0
H362 H 0.24801 0.33969 0.42815 0.0
C363 C 0.33148 0.21032 0.42324 0.0
H364 H 0.25714 0.28786 0.3582 0.0
C365 C 0.3272 0.24108 0.46327 0.0
C366 C 0.2966 0.28768 0.46589 0.0
H367 H 0.35423 0.17375 0.4225 0.0
H368 H 0.3465 0.2269 0.49237 0.0
C369 C 0.27177 0.30402 0.42734 0.0
C370 C 0.1207 0.31369 0.7311 0.0
C371 C 0.19732 0.36061 0.72634 0.0
H372 H 0.0265 0.27463 0.77216 0.0
C373 C 0.23824 0.40557 0.76193 0.0
H374 H 0.08742 0.27784 0.70446 0.0
C375 C 0.20268 0.4044 0.80115 0.0
C376 C 0.12572 0.35758 0.8056 0.0
H377 H 0.29719 0.44284 0.75911 0.0
H378 H 0.23548 0.44001 0.82796 0.0
C379 C 0.08555 0.31194 0.77007 0.0
C380 C -0.0585 0.29567 1.09732 0.0
C381 C -0.07295 0.25347 1.05865 0.0
H382 H -0.08111 0.2938 1.16593 0.0
C383 C 0.87745 0.175 1.06033 0.0
H384 H -0.02075 0.3561 1.09717 0.0
C385 C 0.84349 0.13949 1.09939 0.0
C386 C 0.85742 0.18129 1.13804 0.0
H387 H 0.86492 0.14028 1.03135 0.0
H388 H 0.80603 0.07898 1.09916 0.0
C389 C -0.09339 0.25995 1.13661 0.0
C390 C 0.73251 -0.00995 0.4281 0.0
C391 C 0.75218 -0.02903 0.38826 0.0
H392 H 0.72316 -0.02514 0.49771 0.0
C393 C 0.77797 0.92013 0.38892 0.0
H394 H 0.7125 0.02898 0.4288 0.0
C395 C 0.78508 0.89012 0.42823 0.0
C396 C 0.76562 0.90909 0.4681 0.0
H397 H 0.79411 0.90428 0.35901 0.0
H398 H 0.80583 0.85181 0.42727 0.0
C399 C 0.73854 -0.0411 0.46756 0.0
C400 C 0.83306 0.77591 0.75625 0.0
C401 C 0.87469 0.80195 0.71758 0.0
H402 H 0.83386 0.76141 0.82572 0.0
C403 C -0.04876 0.83271 0.72015 0.0
H404 H 0.77404 0.75187 0.75548 0.0
C405 C -0.01448 0.83925 0.76031 0.0
C406 C -0.05576 0.81405 0.7991 0.0
H407 H -0.01471 0.85382 0.69119 0.0
H408 H 0.04475 0.86466 0.76094 0.0
C409 C 0.86736 0.78117 0.79649 0.0
C410 C 0.12546 0.8947 1.09328 0.0
C411 C 0.14476 0.93564 1.05399 0.0
H412 H 0.14082 0.89839 1.16283 0.0
C413 C 0.19593 0.01375 1.05556 0.0
H414 H 0.08616 0.8346 1.0933 0.0
C415 C 0.22633 0.05018 1.09513 0.0
C416 C 0.20737 0.00962 1.13441 0.0
H417 H 0.21198 0.04753 1.02614 0.0
H418 H 0.26498 0.11044 1.09483 0.0
C419 C 0.15696 0.93125 1.13307 0.0
loop_
_geom_bond_atom_site_label_1
_geom_bond_atom_site_label_2
_geom_bond_distance
_geom_bond_site_symmetry_2
_ccdc_geom_bond_type
C0 Eu1 2.835 . S
C0 C2 1.500 . S
C0 O20 1.257 . S
C0 O21 1.260 . S
Eu1 C0 2.835 . S
Eu1 O20 2.473 . S
Eu1 O21 2.480 . S
Eu1 O22 2.430 . S
Eu1 O23 2.670 1_556 S
Eu1 O24 2.394 . S
Eu1 O29 2.355 1_556 S
Eu1 O31 2.374 1_556 S
C2 C0 1.500 . S
C2 C3 1.377 . S
C2 C7 1.377 . S
C3 C2 1.377 . S
C3 C4 1.395 . S
C3 H32 0.931 . S
C4 C3 1.395 . S
C4 C5 1.383 . S
C4 H33 0.931 . S
C5 C4 1.383 . S
C5 C6 1.394 . S
C6 C5 1.394 . S
C6 C7 1.378 . S
C6 H34 0.931 . S
C7 C2 1.377 . S
C7 C6 1.378 . S
C7 H35 0.931 . S
C8 O22 1.259 1_554 S
C8 O23 1.270 . S
C9 O24 1.251 . S
C9 O25 1.251 . S
C10 Eu11 2.835 . S
C10 C12 1.500 . S
C10 O26 1.257 . S
C10 O27 1.260 . S
Eu11 C10 2.835 . S
Eu11 O23 2.355 . S
Eu11 O25 2.374 1_554 S
Eu11 O26 2.473 . S
Eu11 O27 2.480 . S
Eu11 O28 2.430 . S
Eu11 O29 2.670 . S
Eu11 O30 2.394 . S
C12 C10 1.500 . S
C12 C13 1.377 . S
C12 C17 1.377 . S
C13 C12 1.377 . S
C13 C14 1.395 . S
C13 H36 0.931 . S
C14 C13 1.395 . S
C14 C15 1.383 . S
C14 H37 0.931 1_545 S
C15 C14 1.383 . S
C15 C16 1.394 . S
C16 C15 1.394 . S
C16 C17 1.378 . S
C16 H38 0.931 . S
C17 C12 1.377 . S
C17 C16 1.378 . S
C17 H39 0.931 . S
C18 O28 1.259 . S
C18 O29 1.270 . S
C19 O30 1.251 . S
C19 O31 1.251 . S
O20 C0 1.257 . S
O20 Eu1 2.473 . S
O21 C0 1.260 . S
O21 Eu1 2.480 . S
O22 Eu1 2.430 . S
O22 C8 1.259 1_556 S
O23 Eu1 2.670 1_554 S
O23 C8 1.270 . S
O23 Eu11 2.355 . S
O24 Eu1 2.394 . S
O24 C9 1.251 . S
O25 C9 1.251 . S
O25 Eu11 2.374 1_556 S
O26 C10 1.257 . S
O26 Eu11 2.473 . S
O27 C10 1.260 . S
O27 Eu11 2.480 . S
O28 Eu11 2.430 . S
O28 C18 1.259 . S
O29 Eu1 2.355 1_554 S
O29 Eu11 2.670 . S
O29 C18 1.270 . S
O30 Eu11 2.394 . S
O30 C19 1.251 . S
O31 Eu1 2.374 1_554 S
O31 C19 1.251 . S
H32 C3 0.931 . S
H33 C4 0.931 . S
H34 C6 0.931 . S
H35 C7 0.931 . S
H36 C13 0.931 . S
H37 C14 0.931 1_565 S
H38 C16 0.931 . S
H39 C17 0.931 . S
C40 Eu41 2.835 . S
C40 C42 1.500 . S
C40 O60 1.257 . S
C40 O61 1.260 . S
Eu41 C40 2.835 . S
Eu41 O60 2.473 . S
Eu41 O61 2.480 . S
Eu41 O62 2.430 . S
Eu41 O63 2.670 . S
Eu41 O64 2.394 . S
Eu41 O69 2.355 . S
Eu41 O71 2.374 . S
C42 C40 1.500 . S
C42 C43 1.377 . S
C42 C47 1.377 . S
C43 C42 1.377 . S
C43 C44 1.395 . S
C43 H72 0.931 . S
C44 C43 1.395 . S
C44 C45 1.383 . S
C44 H73 0.931 . S
C45 C44 1.383 . S
C45 C46 1.394 . S
C46 C45 1.394 . S
C46 C47 1.378 . S
C46 H74 0.931 . S
C47 C42 1.377 . S
C47 C46 1.378 . S
C47 H75 0.931 . S
C48 O62 1.259 . S
C48 O63 1.270 . S
C49 O64 1.251 . S
C49 O65 1.251 . S
C50 Eu51 2.835 . S
C50 C52 1.500 . S
C50 O66 1.257 . S
C50 O67 1.260 . S
Eu51 C50 2.835 . S
Eu51 O63 2.355 . S
Eu51 O65 2.374 . S
Eu51 O66 2.473 . S
Eu51 O67 2.480 . S
Eu51 O68 2.430 . S
Eu51 O69 2.670 . S
Eu51 O70 2.394 . S
C52 C50 1.500 . S
C52 C53 1.377 . S
C52 C57 1.377 . S
C53 C52 1.377 . S
C53 C54 1.395 . S
C53 H76 0.931 . S
C54 C53 1.395 . S
C54 C55 1.383 . S
C54 H77 0.931 . S
C55 C54 1.383 . S
C55 C56 1.394 . S
C56 C55 1.394 . S
C56 C57 1.378 . S
C56 H78 0.931 . S
C57 C52 1.377 . S
C57 C56 1.378 . S
C57 H79 0.931 . S
C58 O68 1.259 . S
C58 O69 1.270 . S
C59 O70 1.251 . S
C59 O71 1.251 . S
O60 C40 1.257 . S
O60 Eu41 2.473 . S
O61 C40 1.260 . S
O61 Eu41 2.480 . S
O62 Eu41 2.430 . S
O62 C48 1.259 . S
O63 Eu41 2.670 . S
O63 C48 1.270 . S
O63 Eu51 2.355 . S
O64 Eu41 2.394 . S
O64 C49 1.251 . S
O65 C49 1.251 . S
O65 Eu51 2.374 . S
O66 C50 1.257 . S
O66 Eu51 2.473 . S
O67 C50 1.260 . S
O67 Eu51 2.480 . S
O68 Eu51 2.430 . S
O68 C58 1.259 . S
O69 Eu41 2.355 . S
O69 Eu51 2.670 . S
O69 C58 1.270 . S
O70 Eu51 2.394 . S
O70 C59 1.251 . S
O71 Eu41 2.374 . S
O71 C59 1.251 . S
H72 C43 0.931 . S
H73 C44 0.931 . S
H74 C46 0.931 . S
H75 C47 0.931 . S
H76 C53 0.931 . S
H77 C54 0.931 . S
H78 C56 0.931 . S
H79 C57 0.931 . S
C80 Eu81 2.835 . S
C80 C82 1.500 . S
C80 O100 1.257 . S
C80 O101 1.260 . S
Eu81 C80 2.835 . S
Eu81 O100 2.473 . S
Eu81 O101 2.480 . S
Eu81 O102 2.430 . S
Eu81 O103 2.670 . S
Eu81 O104 2.394 1_655 S
Eu81 O109 2.355 1_655 S
Eu81 O111 2.374 . S
C82 C80 1.500 . S
C82 C83 1.377 . S
C82 C87 1.377 . S
C83 C82 1.377 . S
C83 C84 1.395 . S
C83 H112 0.931 . S
C84 C83 1.395 . S
C84 C85 1.383 . S
C84 H113 0.931 . S
C85 C84 1.383 . S
C85 C86 1.394 . S
C86 C85 1.394 . S
C86 C87 1.378 . S
C86 H114 0.931 . S
C87 C82 1.377 . S
C87 C86 1.378 . S
C87 H115 0.931 . S
C88 O102 1.259 . S
C88 O103 1.270 . S
C89 O104 1.251 . S
C89 O105 1.251 . S
C90 Eu91 2.835 . S
C90 C92 1.500 . S
C90 O106 1.257 . S
C90 O107 1.260 . S
Eu91 C90 2.835 . S
Eu91 O103 2.355 1_455 S
Eu91 O105 2.374 . S
Eu91 O106 2.473 . S
Eu91 O107 2.480 . S
Eu91 O108 2.430 . S
Eu91 O109 2.670 . S
Eu91 O110 2.394 1_455 S
C92 C90 1.500 . S
C92 C93 1.377 . S
C92 C97 1.377 . S
C93 C92 1.377 . S
C93 C94 1.395 . S
C93 H116 0.931 . S
C94 C93 1.395 . S
C94 C95 1.383 . S
C94 H117 0.931 . S
C95 C94 1.383 . S
C95 C96 1.394 . S
C96 C95 1.394 . S
C96 C97 1.378 . S
C96 H118 0.931 . S
C97 C92 1.377 . S
C97 C96 1.378 . S
C97 H119 0.931 . S
C98 O108 1.259 . S
C98 O109 1.270 . S
C99 O110 1.251 . S
C99 O111 1.251 . S
O100 C80 1.257 . S
O100 Eu81 2.473 . S
O101 C80 1.260 . S
O101 Eu81 2.480 . S
O102 Eu81 2.430 . S
O102 C88 1.259 . S
O103 Eu81 2.670 . S
O103 C88 1.270 . S
O103 Eu91 2.355 1_655 S
O104 Eu81 2.394 1_455 S
O104 C89 1.251 . S
O105 C89 1.251 . S
O105 Eu91 2.374 . S
O106 C90 1.257 . S
O106 Eu91 2.473 . S
O107 C90 1.260 . S
O107 Eu91 2.480 . S
O108 Eu91 2.430 . S
O108 C98 1.259 . S
O109 Eu81 2.355 1_455 S
O109 Eu91 2.670 . S
O109 C98 1.270 . S
O110 Eu91 2.394 1_655 S
O110 C99 1.251 . S
O111 Eu81 2.374 . S
O111 C99 1.251 . S
H112 C83 0.931 . S
H113 C84 0.931 . S
H114 C86 0.931 . S
H115 C87 0.931 . S
H116 C93 0.931 . S
H117 C94 0.931 . S
H118 C96 0.931 . S
H119 C97 0.931 . S
C120 Eu121 2.835 . S
C120 C122 1.500 . S
C120 O140 1.257 . S
C120 O141 1.260 . S
Eu121 C120 2.835 . S
Eu121 O140 2.473 . S
Eu121 O141 2.480 . S
Eu121 O142 2.430 . S
Eu121 O143 2.670 1_566 S
Eu121 O144 2.394 1_565 S
Eu121 O149 2.355 1_566 S
Eu121 O151 2.374 1_556 S
C122 C120 1.500 . S
C122 C123 1.377 . S
C122 C127 1.377 . S
C123 C122 1.377 . S
C123 C124 1.395 . S
C123 H152 0.931 . S
C124 C123 1.395 . S
C124 C125 1.383 . S
C124 H153 0.931 . S
C125 C124 1.383 . S
C125 C126 1.394 . S
C126 C125 1.394 . S
C126 C127 1.378 . S
C126 H154 0.931 . S
C127 C122 1.377 . S
C127 C126 1.378 . S
C127 H155 0.931 . S
C128 O142 1.259 1_554 S
C128 O143 1.270 1_565 S
C129 O144 1.251 . S
C129 O145 1.251 . S
C130 Eu131 2.835 . S
C130 C132 1.500 . S
C130 O146 1.257 . S
C130 O147 1.260 . S
Eu131 C130 2.835 . S
Eu131 O143 2.355 . S
Eu131 O145 2.374 1_554 S
Eu131 O146 2.473 . S
Eu131 O147 2.480 . S
Eu131 O148 2.430 . S
Eu131 O149 2.670 . S
Eu131 O150 2.394 . S
C132 C130 1.500 . S
C132 C133 1.377 . S
C132 C137 1.377 . S
C133 C132 1.377 . S
C133 C134 1.395 . S
C133 H156 0.931 . S
C134 C133 1.395 . S
C134 C135 1.383 . S
C134 H157 0.926 1_655 S
C135 C134 1.383 . S
C135 C136 1.394 . S
C136 C135 1.394 . S
C136 C137 1.378 . S
C136 H158 0.931 . S
C137 C132 1.377 . S
C137 C136 1.378 . S
C137 H159 0.931 . S
C138 O148 1.259 . S
C138 O149 1.270 . S
C139 O150 1.251 1_565 S
C139 O151 1.251 . S
O140 C120 1.257 . S
O140 Eu121 2.473 . S
O141 C120 1.260 . S
O141 Eu121 2.480 . S
O142 Eu121 2.430 . S
O142 C128 1.259 1_556 S
O143 Eu121 2.670 1_544 S
O143 C128 1.270 1_545 S
O143 Eu131 2.355 . S
O144 Eu121 2.394 1_545 S
O144 C129 1.251 . S
O145 C129 1.251 . S
O145 Eu131 2.374 1_556 S
O146 C130 1.257 . S
O146 Eu131 2.473 . S
O147 C130 1.260 . S
O147 Eu131 2.480 . S
O148 Eu131 2.430 . S
O148 C138 1.259 . S
O149 Eu121 2.355 1_544 S
O149 Eu131 2.670 . S
O149 C138 1.270 . S
O150 Eu131 2.394 . S
O150 C139 1.251 1_545 S
O151 Eu121 2.374 1_554 S
O151 C139 1.251 . S
H152 C123 0.931 . S
H153 C124 0.931 . S
H154 C126 0.931 . S
H155 C127 0.931 . S
H156 C133 0.931 . S
H157 C134 0.926 1_455 S
H158 C136 0.931 . S
H159 C137 0.931 . S
C160 Eu161 2.835 . S
C160 C162 1.500 . S
C160 O180 1.257 . S
C160 O181 1.260 . S
Eu161 C160 2.835 . S
Eu161 O180 2.473 . S
Eu161 O181 2.480 . S
Eu161 O182 2.430 1_455 S
Eu161 O183 2.670 1_455 S
Eu161 O184 2.394 1_455 S
Eu161 O189 2.355 . S
Eu161 O191 2.374 . S
C162 C160 1.500 . S
C162 C163 1.377 . S
C162 C167 1.377 . S
C163 C162 1.377 . S
C163 C164 1.395 . S
C163 H192 0.931 . S
C164 C163 1.395 . S
C164 C165 1.383 . S
C164 H193 0.931 . S
C165 C164 1.383 . S
C165 C166 1.394 . S
C166 C165 1.394 . S
C166 C167 1.378 . S
C166 H194 0.931 . S
C167 C162 1.377 . S
C167 C166 1.378 . S
C167 H195 0.931 . S
C168 O182 1.259 . S
C168 O183 1.270 . S
C169 O184 1.251 . S
C169 O185 1.251 . S
C170 Eu171 2.835 . S
C170 C172 1.500 . S
C170 O186 1.257 . S
C170 O187 1.260 . S
Eu171 C170 2.835 . S
Eu171 O183 2.355 . S
Eu171 O185 2.374 . S
Eu171 O186 2.473 . S
Eu171 O187 2.480 . S
Eu171 O188 2.430 1_665 S
Eu171 O189 2.670 1_655 S
Eu171 O190 2.394 . S
C172 C170 1.500 . S
C172 C173 1.377 . S
C172 C177 1.377 . S
C173 C172 1.377 . S
C173 C174 1.395 . S
C173 H196 0.931 1_565 S
C174 C173 1.395 . S
C174 C175 1.383 . S
C174 H197 0.931 1_565 S
C175 C174 1.383 . S
C175 C176 1.394 . S
C176 C175 1.394 . S
C176 C177 1.378 . S
C176 H198 0.931 . S
C177 C172 1.377 . S
C177 C176 1.378 . S
C177 H199 0.931 . S
C178 O188 1.259 1_565 S
C178 O189 1.270 . S
C179 O190 1.251 1_455 S
C179 O191 1.251 . S
O180 C160 1.257 . S
O180 Eu161 2.473 . S
O181 C160 1.260 . S
O181 Eu161 2.480 . S
O182 Eu161 2.430 1_655 S
O182 C168 1.259 . S
O183 Eu161 2.670 1_655 S
O183 C168 1.270 . S
O183 Eu171 2.355 . S
O184 Eu161 2.394 1_655 S
O184 C169 1.251 . S
O185 C169 1.251 . S
O185 Eu171 2.374 . S
O186 C170 1.257 . S
O186 Eu171 2.473 . S
O187 C170 1.260 . S
O187 Eu171 2.480 . S
O188 Eu171 2.430 1_445 S
O188 C178 1.259 1_545 S
O189 Eu161 2.355 . S
O189 Eu171 2.670 1_455 S
O189 C178 1.270 . S
O190 Eu171 2.394 . S
O190 C179 1.251 1_655 S
O191 Eu161 2.374 . S
O191 C179 1.251 . S
H192 C163 0.931 . S
H193 C164 0.931 . S
H194 C166 0.931 . S
H195 C167 0.931 . S
H196 C173 0.931 1_545 S
H197 C174 0.931 1_545 S
H198 C176 0.931 . S
H199 C177 0.931 . S
C200 Eu201 2.835 . S
C200 C202 1.500 . S
C200 O220 1.257 . S
C200 O221 1.260 . S
Eu201 C200 2.835 . S
Eu201 O220 2.473 . S
Eu201 O221 2.480 . S
Eu201 O222 2.430 1_545 S
Eu201 O223 2.670 1_545 S
Eu201 O224 2.394 1_545 S
Eu201 O229 2.355 . S
Eu201 O231 2.374 . S
C202 C200 1.500 . S
C202 C203 1.377 . S
C202 C207 1.377 . S
C203 C202 1.377 . S
C203 C204 1.395 . S
C203 H232 0.931 . S
C204 C203 1.395 . S
C204 C205 1.383 . S
C204 H233 0.931 . S
C205 C204 1.383 . S
C205 C206 1.394 . S
C206 C205 1.394 . S
C206 C207 1.378 . S
C206 H234 0.931 . S
C207 C202 1.377 . S
C207 C206 1.378 . S
C207 H235 0.931 . S
C208 O222 1.259 . S
C208 O223 1.270 . S
C209 O224 1.251 . S
C209 O225 1.251 . S
C210 Eu211 2.835 . S
C210 C212 1.500 . S
C210 O226 1.257 . S
C210 O227 1.260 . S
Eu211 C210 2.835 . S
Eu211 O223 2.355 . S
Eu211 O225 2.374 . S
Eu211 O226 2.473 . S
Eu211 O227 2.480 . S
Eu211 O228 2.430 1_565 S
Eu211 O229 2.670 1_565 S
Eu211 O230 2.394 1_565 S
C212 C210 1.500 . S
C212 C213 1.377 . S
C212 C217 1.377 . S
C213 C212 1.377 . S
C213 C214 1.395 . S
C213 H236 0.931 . S
C214 C213 1.395 . S
C214 C215 1.383 . S
C214 H237 0.931 1_455 S
C215 C214 1.383 . S
C215 C216 1.394 . S
C216 C215 1.394 . S
C216 C217 1.378 . S
C216 H238 0.931 . S
C217 C212 1.377 . S
C217 C216 1.378 . S
C217 H239 0.931 . S
C218 O228 1.259 . S
C218 O229 1.270 . S
C219 O230 1.251 . S
C219 O231 1.251 . S
O220 C200 1.257 . S
O220 Eu201 2.473 . S
O221 C200 1.260 . S
O221 Eu201 2.480 . S
O222 Eu201 2.430 1_565 S
O222 C208 1.259 . S
O223 Eu201 2.670 1_565 S
O223 C208 1.270 . S
O223 Eu211 2.355 . S
O224 Eu201 2.394 1_565 S
O224 C209 1.251 . S
O225 C209 1.251 . S
O225 Eu211 2.374 . S
O226 C210 1.257 . S
O226 Eu211 2.473 . S
O227 C210 1.260 . S
O227 Eu211 2.480 . S
O228 Eu211 2.430 1_545 S
O228 C218 1.259 . S
O229 Eu201 2.355 . S
O229 Eu211 2.670 1_545 S
O229 C218 1.270 . S
O230 Eu211 2.394 1_545 S
O230 C219 1.251 . S
O231 Eu201 2.374 . S
O231 C219 1.251 . S
H232 C203 0.931 . S
H233 C204 0.931 . S
H234 C206 0.931 . S
H235 C207 0.931 . S
H236 C213 0.931 . S
H237 C214 0.931 1_655 S
H238 C216 0.931 . S
H239 C217 0.931 . S
C240 C241 1.387 . S
C240 H244 0.950 . S
C240 C249 1.390 . S
C241 C240 1.387 . S
C241 C243 1.387 1_554 S
H242 C249 0.950 . S
C243 C241 1.387 1_556 S
C243 C245 1.390 . S
C243 H247 0.950 . S
H244 C240 0.950 . S
C245 C243 1.390 . S
C245 C246 1.387 1_556 S
C245 H248 0.950 . S
C246 C245 1.387 1_554 S
C246 C249 1.387 . S
H247 C243 0.950 . S
H248 C245 0.950 . S
C249 C240 1.390 . S
C249 H242 0.950 . S
C249 C246 1.387 . S
C250 C251 1.387 . S
C250 H254 0.950 . S
C250 C259 1.390 . S
C251 C250 1.387 . S
C251 C253 1.387 . S
H252 C259 0.950 . S
C253 C251 1.387 . S
C253 C255 1.390 . S
C253 H257 0.950 . S
H254 C250 0.950 . S
C255 C253 1.390 . S
C255 C256 1.387 . S
C255 H258 0.950 . S
C256 C255 1.387 . S
C256 C259 1.387 . S
H257 C253 0.950 . S
H258 C255 0.950 . S
C259 C250 1.390 . S
C259 H252 0.950 . S
C259 C256 1.387 . S
C260 C261 1.387 . S
C260 H264 0.950 . S
C260 C269 1.390 . S
C261 C260 1.387 . S
C261 C263 1.387 . S
H262 C269 0.950 . S
C263 C261 1.387 . S
C263 C265 1.390 . S
C263 H267 0.950 . S
H264 C260 0.950 . S
C265 C263 1.390 . S
C265 C266 1.387 . S
C265 H268 0.950 . S
C266 C265 1.387 . S
C266 C269 1.387 . S
H267 C263 0.950 . S
H268 C265 0.950 . S
C269 C260 1.390 . S
C269 H262 0.950 . S
C269 C266 1.387 . S
C270 C271 1.387 . S
C270 H274 0.950 . S
C270 C279 1.390 . S
C271 C270 1.387 . S
C271 C273 1.387 . S
H272 C279 0.950 . S
C273 C271 1.387 . S
C273 C275 1.390 . S
C273 H277 0.950 . S
H274 C270 0.950 . S
C275 C273 1.390 . S
C275 C276 1.387 . S
C275 H278 0.950 . S
C276 C275 1.387 . S
C276 C279 1.387 . S
H277 C273 0.950 . S
H278 C275 0.950 . S
C279 C270 1.390 . S
C279 H272 0.950 . S
C279 C276 1.387 . S
C280 C281 1.387 . S
C280 H284 0.950 . S
C280 C289 1.390 1_455 S
C281 C280 1.387 . S
C281 C283 1.387 . S
H282 C289 0.950 . S
C283 C281 1.387 . S
C283 C285 1.390 1_455 S
C283 H287 0.950 . S
H284 C280 0.950 . S
C285 C283 1.390 1_655 S
C285 C286 1.387 . S
C285 H288 0.950 . S
C286 C285 1.387 . S
C286 C289 1.387 . S
H287 C283 0.950 . S
H288 C285 0.950 . S
C289 C280 1.390 1_655 S
C289 H282 0.950 . S
C289 C286 1.387 . S
C290 C291 1.387 . S
C290 H294 0.950 . S
C290 C299 1.390 1_545 S
C291 C290 1.387 . S
C291 C293 1.387 . S
H292 C299 0.950 . S
C293 C291 1.387 . S
C293 C295 1.390 1_545 S
C293 H297 0.950 . S
H294 C290 0.950 . S
C295 C293 1.390 1_565 S
C295 C296 1.387 . S
C295 H298 0.950 . S
C296 C295 1.387 . S
C296 C299 1.387 . S
H297 C293 0.950 . S
H298 C295 0.950 . S
C299 C290 1.390 1_565 S
C299 H292 0.950 . S
C299 C296 1.387 . S
C300 C301 1.387 . S
C300 H304 0.950 . S
C300 C309 1.390 . S
C301 C300 1.387 . S
C301 C303 1.387 . S
H302 C309 0.950 1_455 S
C303 C301 1.387 . S
C303 C305 1.390 . S
C303 H307 0.950 . S
H304 C300 0.950 . S
C305 C303 1.390 . S
C305 C306 1.387 . S
C305 H308 0.950 . S
C306 C305 1.387 . S
C306 C309 1.387 . S
H307 C303 0.950 . S
H308 C305 0.950 . S
C309 C300 1.390 . S
C309 H302 0.950 1_655 S
C309 C306 1.387 . S
C310 C311 1.387 . S
C310 H314 0.950 . S
C310 C319 1.390 . S
C311 C310 1.387 . S
C311 C313 1.387 . S
H312 C319 0.950 . S
C313 C311 1.387 . S
C313 C315 1.390 . S
C313 H317 0.950 . S
H314 C310 0.950 . S
C315 C313 1.390 . S
C315 C316 1.387 . S
C315 H318 0.950 . S
C316 C315 1.387 . S
C316 C319 1.387 . S
H317 C313 0.950 . S
H318 C315 0.950 . S
C319 C310 1.390 . S
C319 H312 0.950 . S
C319 C316 1.387 . S
C320 C321 1.387 . S
C320 H324 0.950 . S
C320 C329 1.390 . S
C321 C320 1.387 . S
C321 C323 1.387 . S
H322 C329 0.950 . S
C323 C321 1.387 . S
C323 C325 1.390 . S
C323 H327 0.950 . S
H324 C320 0.950 . S
C325 C323 1.390 . S
C325 C326 1.387 . S
C325 H328 0.950 . S
C326 C325 1.387 . S
C326 C329 1.387 . S
H327 C323 0.950 . S
H328 C325 0.950 . S
C329 C320 1.390 . S
C329 H322 0.950 . S
C329 C326 1.387 . S
C330 C331 1.387 . S
C330 H334 0.950 . S
C330 C339 1.390 . S
C331 C330 1.387 . S
C331 C333 1.387 1_554 S
H332 C339 0.950 . S
C333 C331 1.387 1_556 S
C333 C335 1.390 . S
C333 H337 0.950 . S
H334 C330 0.950 . S
C335 C333 1.390 . S
C335 C336 1.387 1_556 S
C335 H338 0.950 . S
C336 C335 1.387 1_554 S
C336 C339 1.387 . S
H337 C333 0.950 . S
H338 C335 0.950 . S
C339 C330 1.390 . S
C339 H332 0.950 . S
C339 C336 1.387 . S
C340 C341 1.387 . S
C340 H344 0.950 . S
C340 C349 1.390 . S
C341 C340 1.387 . S
C341 C343 1.387 . S
H342 C349 0.950 . S
C343 C341 1.387 . S
C343 C345 1.390 . S
C343 H347 0.950 . S
H344 C340 0.950 . S
C345 C343 1.390 . S
C345 C346 1.387 . S
C345 H348 0.950 . S
C346 C345 1.387 . S
C346 C349 1.387 . S
H347 C343 0.950 . S
H348 C345 0.950 . S
C349 C340 1.390 . S
C349 H342 0.950 . S
C349 C346 1.387 . S
C350 C351 1.387 . S
C350 H354 0.950 . S
C350 C359 1.390 . S
C351 C350 1.387 . S
C351 C353 1.387 . S
H352 C359 0.950 . S
C353 C351 1.387 . S
C353 C355 1.390 . S
C353 H357 0.950 . S
H354 C350 0.950 . S
C355 C353 1.390 . S
C355 C356 1.387 . S
C355 H358 0.950 . S
C356 C355 1.387 . S
C356 C359 1.387 . S
H357 C353 0.950 . S
H358 C355 0.950 . S
C359 C350 1.390 . S
C359 H352 0.950 . S
C359 C356 1.387 . S
C360 C361 1.387 . S
C360 H364 0.950 . S
C360 C369 1.390 . S
C361 C360 1.387 . S
C361 C363 1.387 . S
H362 C369 0.950 . S
C363 C361 1.387 . S
C363 C365 1.390 . S
C363 H367 0.950 . S
H364 C360 0.950 . S
C365 C363 1.390 . S
C365 C366 1.387 . S
C365 H368 0.950 . S
C366 C365 1.387 . S
C366 C369 1.387 . S
H367 C363 0.950 . S
H368 C365 0.950 . S
C369 C360 1.390 . S
C369 H362 0.950 . S
C369 C366 1.387 . S
C370 C371 1.387 . S
C370 H374 0.950 . S
C370 C379 1.390 . S
C371 C370 1.387 . S
C371 C373 1.387 . S
H372 C379 0.950 . S
C373 C371 1.387 . S
C373 C375 1.390 . S
C373 H377 0.950 . S
H374 C370 0.950 . S
C375 C373 1.390 . S
C375 C376 1.387 . S
C375 H378 0.950 . S
C376 C375 1.387 . S
C376 C379 1.387 . S
H377 C373 0.950 . S
H378 C375 0.950 . S
C379 C370 1.390 . S
C379 H372 0.950 . S
C379 C376 1.387 . S
C380 C381 1.387 . S
C380 H384 0.950 1_655 S
C380 C389 1.390 . S
C381 C380 1.387 . S
C381 C383 1.387 . S
H382 C389 0.950 . S
C383 C381 1.387 . S
C383 C385 1.390 . S
C383 H387 0.950 . S
H384 C380 0.950 1_455 S
C385 C383 1.390 . S
C385 C386 1.387 . S
C385 H388 0.950 . S
C386 C385 1.387 . S
C386 C389 1.387 . S
H387 C383 0.950 . S
H388 C385 0.950 . S
C389 C380 1.390 . S
C389 H382 0.950 . S
C389 C386 1.387 . S
C390 C391 1.387 . S
C390 H394 0.950 1_565 S
C390 C399 1.390 . S
C391 C390 1.387 . S
C391 C393 1.387 . S
H392 C399 0.950 1_545 S
C393 C391 1.387 . S
C393 C395 1.390 . S
C393 H397 0.950 . S
H394 C390 0.950 1_545 S
C395 C393 1.390 . S
C395 C396 1.387 . S
C395 H398 0.950 . S
C396 C395 1.387 . S
C396 C399 1.387 . S
H397 C393 0.950 . S
H398 C395 0.950 . S
C399 C390 1.390 . S
C399 H392 0.950 1_565 S
C399 C396 1.387 . S
C400 C401 1.387 . S
C400 H404 0.950 . S
C400 C409 1.390 . S
C401 C400 1.387 . S
C401 C403 1.387 . S
H402 C409 0.950 . S
C403 C401 1.387 . S
C403 C405 1.390 . S
C403 H407 0.950 . S
H404 C400 0.950 . S
C405 C403 1.390 . S
C405 C406 1.387 . S
C405 H408 0.950 . S
C406 C405 1.387 . S
C406 C409 1.387 . S
H407 C403 0.950 . S
H408 C405 0.950 . S
C409 C400 1.390 . S
C409 H402 0.950 . S
C409 C406 1.387 . S
C410 C411 1.387 . S
C410 H414 0.950 . S
C410 C419 1.390 . S
C411 C410 1.387 . S
C411 C413 1.387 . S
H412 C419 0.950 . S
C413 C411 1.387 . S
C413 C415 1.390 . S
C413 H417 0.950 . S
H414 C410 0.950 . S
C415 C413 1.390 . S
C415 C416 1.387 . S
C415 H418 0.950 . S
C416 C415 1.387 . S
C416 C419 1.387 . S
H417 C413 0.950 . S
H418 C415 0.950 . S
C419 C410 1.390 . S
C419 H412 0.950 . S
C419 C416 1.387 . S
C241 C138 1.433 1_455 S
C246 C18 1.433 . S
C251 C178 1.433 1_545 S
C256 C58 1.433 . S
C261 C218 1.439 . S
C266 C98 1.439 . S
C271 C5 1.200 . S
C276 C95 1.274 . S
C281 C45 1.198 . S
C286 C135 1.270 . S
C291 C85 1.196 . S
C296 C175 1.274 . S
C301 C125 1.199 . S
C306 C215 1.275 1_655 S
C311 C165 1.195 . S
C316 C15 1.273 1_565 S
C321 C205 1.196 . S
C326 C55 1.274 . S
C331 C8 2.016 . S
C336 C128 2.016 1_545 S
C341 C48 2.018 . S
C346 C168 2.018 . S
C351 C88 2.017 1_455 S
C356 C208 2.017 . S
C361 C19 4.200 . S
C366 C49 4.257 . S
C371 C59 4.200 . S
C376 C89 4.257 . S
C381 C99 4.200 . S
C386 C129 4.258 . S
C391 C139 4.200 . S
C396 C169 4.257 . S
C401 C179 4.200 . S
C406 C209 4.257 . S
C411 C219 4.200 . S
C416 C9 4.257 . S
