# Generated by pormake.
# Topology yfx, (5)-cn, num edge types: 1
# Building blocks:
#     Node 0, Type 0, BuildingBlock: XOMCOT_clean_sbu_1, # of connection points: 5
#     Node 1, Type 0, BuildingBlock: XOMCOT_clean_sbu_1, # of connection points: 5
#     Node 2, Type 0, BuildingBlock: XOMCOT_clean_sbu_1, # of connection points: 5
#     Node 3, Type 0, BuildingBlock: XOMCOT_clean_sbu_1, # of connection points: 5
#     Node 4, Type 0, BuildingBlock: XOMCOT_clean_sbu_1, # of connection points: 5
#     Node 5, Type 0, BuildingBlock: XOMCOT_clean_sbu_1, # of connection points: 5
#     Node 6, Type 0, BuildingBlock: XOMCOT_clean_sbu_1, # of connection points: 5
#     Node 7, Type 0, BuildingBlock: XOMCOT_clean_sbu_1, # of connection points: 5
#     Edge 8, Type (0, 0), BuildingBlock: EYOCIG_clean_linker_4, # of connection points: 2
#     Edge 9, Type (0, 0), BuildingBlock: EYOCIG_clean_linker_4, # of connection points: 2
#     Edge 10, Type (0, 0), BuildingBlock: EYOCIG_clean_linker_4, # of connection points: 2
#     Edge 11, Type (0, 0), BuildingBlock: EYOCIG_clean_linker_4, # of connection points: 2
#     Edge 12, Type (0, 0), BuildingBlock: EYOCIG_clean_linker_4, # of connection points: 2
#     Edge 13, Type (0, 0), BuildingBlock: EYOCIG_clean_linker_4, # of connection points: 2
#     Edge 14, Type (0, 0), BuildingBlock: EYOCIG_clean_linker_4, # of connection points: 2
#     Edge 15, Type (0, 0), BuildingBlock: EYOCIG_clean_linker_4, # of connection points: 2
#     Edge 16, Type (0, 0), BuildingBlock: EYOCIG_clean_linker_4, # of connection points: 2
#     Edge 17, Type (0, 0), BuildingBlock: EYOCIG_clean_linker_4, # of connection points: 2
#     Edge 18, Type (0, 0), BuildingBlock: EYOCIG_clean_linker_4, # of connection points: 2
#     Edge 19, Type (0, 0), BuildingBlock: EYOCIG_clean_linker_4, # of connection points: 2
#     Edge 20, Type (0, 0), BuildingBlock: EYOCIG_clean_linker_4, # of connection points: 2
#     Edge 21, Type (0, 0), BuildingBlock: EYOCIG_clean_linker_4, # of connection points: 2
#     Edge 22, Type (0, 0), BuildingBlock: EYOCIG_clean_linker_4, # of connection points: 2
#     Edge 23, Type (0, 0), BuildingBlock: EYOCIG_clean_linker_4, # of connection points: 2
#     Edge 24, Type (0, 0), BuildingBlock: EYOCIG_clean_linker_4, # of connection points: 2
#     Edge 25, Type (0, 0), BuildingBlock: EYOCIG_clean_linker_4, # of connection points: 2
#     Edge 26, Type (0, 0), BuildingBlock: EYOCIG_clean_linker_4, # of connection points: 2
#     Edge 27, Type (0, 0), BuildingBlock: EYOCIG_clean_linker_4, # of connection points: 2
# Relax obj value: 0.111
# Max RMSD: 0.117
# Mean RMSD: 0.117
data_MOF--net-yfx--node1-XOMCOT_clean_sbu_1--edge1-EYOCIG_clean_linker_4
_symmetry_space_group_name_H-M    P1
_symmetry_Int_Tables_number       1
_symmetry_cell_setting            triclinic
loop_
_symmetry_equiv_pos_as_xyz
'x, y, z'
_cell_length_a     29.517482
_cell_length_b     29.517334
_cell_length_c     22.986502
_cell_angle_alpha  90.004852
_cell_angle_beta   90.012131
_cell_angle_gamma 90.00217
loop_
_atom_site_label
_atom_site_type_symbol
_atom_site_fract_x
_atom_site_fract_y
_atom_site_fract_z
_atom_type_partial_charge
C0 C 0.31083 0.39516 0.97029 0.0
C1 C 0.35497 0.38078 0.97664 0.0
N2 N 0.35774 0.35771 0.02682 0.0
N3 N 0.28623 0.38102 0.01636 0.0
C4 C 0.31618 0.35859 0.05043 0.0
H5 H 0.29713 0.41328 0.93338 0.0
Co6 Co 0.22354 0.38837 0.02491 0.0
C7 C 0.21503 0.31172 0.11567 0.0
O8 O 0.19349 0.28216 0.0833 0.0
N9 N 0.1599 0.39747 0.03341 0.0
C10 C 0.08563 0.38784 0.04766 0.0
C11 C 0.12726 0.36671 0.04533 0.0
C12 C 0.13677 0.43711 0.02783 0.0
N13 N 0.09181 0.432 0.03658 0.0
O14 O 0.23508 0.44027 0.07175 0.0
H15 H 0.13273 0.33095 0.05081 0.0
H16 H 0.15235 0.46919 0.01722 0.0
O17 O 0.22562 0.35075 0.0958 0.0
C18 C 0.2436 0.47427 0.03959 0.0
O19 O 0.23835 0.47069 0.98308 0.0
N20 N 0.21462 0.33943 0.97291 0.0
C21 C 0.2288 0.28976 0.87099 0.0
C22 C 0.24735 0.27522 0.92374 0.0
C23 C 0.24011 0.30069 0.9743 0.0
C24 C 0.19404 0.35231 0.92232 0.0
C25 C 0.20053 0.32779 0.8708 0.0
H26 H 0.25898 0.29165 1.01277 0.0
H27 H 0.17613 0.38423 0.92038 0.0
H28 H 0.30761 0.34118 0.09029 0.0
H29 H 0.38237 0.38526 0.94585 0.0
H30 H 0.05328 0.37193 0.05636 0.0
H31 H 0.26996 0.24632 0.92512 0.0
H32 H 0.18616 0.34031 0.83051 0.0
C33 C 0.62223 0.31089 0.96969 0.0
C34 C 0.63637 0.35512 0.97597 0.0
N35 N 0.65913 0.35814 0.02637 0.0
N36 N 0.63622 0.28649 0.01602 0.0
C37 C 0.65831 0.31663 0.05017 0.0
H38 H 0.60437 0.29701 0.93269 0.0
Co39 Co 0.62902 0.22383 0.02482 0.0
C40 C 0.70567 0.21567 0.11565 0.0
O41 O 0.73526 0.19413 0.08334 0.0
N42 N 0.62003 0.16021 0.03355 0.0
C43 C 0.62962 0.08598 0.0482 0.0
C44 C 0.65076 0.12761 0.04582 0.0
C45 C 0.58042 0.13706 0.02781 0.0
N46 N 0.5855 0.09212 0.0368 0.0
O47 O 0.57709 0.23538 0.07159 0.0
H48 H 0.68649 0.13312 0.05155 0.0
H49 H 0.54838 0.15261 0.01693 0.0
O50 O 0.66662 0.22615 0.09575 0.0
C51 C 0.54306 0.24392 0.03947 0.0
O52 O 0.54658 0.23864 0.98296 0.0
N53 N 0.67804 0.21489 0.97293 0.0
C54 C 0.72791 0.22886 0.87112 0.0
C55 C 0.74225 0.24769 0.9238 0.0
C56 C 0.71669 0.24054 0.97431 0.0
C57 C 0.66537 0.19405 0.92243 0.0
C58 C 0.68999 0.20044 0.87097 0.0
H59 H 0.72555 0.2596 1.01269 0.0
H60 H 0.63353 0.176 0.92047 0.0
H61 H 0.67552 0.30825 0.09025 0.0
H62 H 0.63196 0.3824 0.945 0.0
H63 H 0.6455 0.05366 0.05716 0.0
H64 H 0.77106 0.27042 0.92516 0.0
H65 H 0.67763 0.18584 0.83073 0.0
C66 C 0.70635 0.62305 0.96972 0.0
C67 C 0.6622 0.63739 0.9761 0.0
N68 N 0.65934 0.66008 0.02655 0.0
N69 N 0.73087 0.63685 0.01605 0.0
C70 C 0.70087 0.65903 0.05029 0.0
H71 H 0.72011 0.60516 0.93267 0.0
Co72 Co 0.79351 0.62929 0.02482 0.0
C73 C 0.80209 0.70584 0.1157 0.0
O74 O 0.82379 0.73536 0.08346 0.0
N75 N 0.85709 0.61996 0.03353 0.0
C76 C 0.93138 0.62935 0.04791 0.0
C77 C 0.88982 0.65061 0.04556 0.0
C78 C 0.88009 0.58025 0.02792 0.0
N79 N 0.92507 0.58521 0.03674 0.0
O80 O 0.78168 0.57742 0.07157 0.0
H81 H 0.88445 0.68639 0.05108 0.0
H82 H 0.86441 0.54824 0.01721 0.0
O83 O 0.79142 0.66686 0.09573 0.0
C84 C 0.77293 0.54348 0.03938 0.0
O85 O 0.77826 0.54702 0.98289 0.0
N86 N 0.8027 0.67825 0.97295 0.0
C87 C 0.78891 0.72812 0.87111 0.0
C88 C 0.77021 0.7426 0.9238 0.0
C89 C 0.77727 0.71704 0.97432 0.0
C90 C 0.82343 0.66545 0.92244 0.0
C91 C 0.81713 0.69006 0.87096 0.0
H92 H 0.75829 0.72602 1.01271 0.0
H93 H 0.84131 0.63351 0.92049 0.0
H94 H 0.70937 0.6761 0.09044 0.0
H95 H 0.63485 0.63312 0.94518 0.0
H96 H 0.96378 0.64515 0.05666 0.0
H97 H 0.74762 0.77152 0.92514 0.0
H98 H 0.83162 0.6776 0.83072 0.0
C99 C 0.39465 0.70662 0.97038 0.0
C100 C 0.38015 0.66251 0.97672 0.0
N101 N 0.35699 0.65983 0.02683 0.0
N102 N 0.3805 0.73127 0.01641 0.0
C103 C 0.35793 0.7014 0.05042 0.0
H104 H 0.41289 0.72024 0.93354 0.0
Co105 Co 0.38809 0.79393 0.02497 0.0
C106 C 0.31159 0.80285 0.11584 0.0
O107 O 0.28209 0.82459 0.0836 0.0
N108 N 0.39741 0.85754 0.03345 0.0
C109 C 0.38797 0.93186 0.0474 0.0
C110 C 0.36671 0.8903 0.04504 0.0
C111 C 0.43715 0.88051 0.02807 0.0
N112 N 0.43216 0.92551 0.03664 0.0
O113 O 0.43994 0.7822 0.07184 0.0
H114 H 0.3309 0.88497 0.05022 0.0
H115 H 0.46922 0.86481 0.01771 0.0
O116 O 0.3505 0.79202 0.09583 0.0
C117 C 0.47394 0.7735 0.03976 0.0
O118 O 0.47046 0.77878 0.98325 0.0
N119 N 0.33916 0.80301 0.973 0.0
C120 C 0.28934 0.78887 0.8712 0.0
C121 C 0.27472 0.77053 0.92403 0.0
C122 C 0.30027 0.77775 0.97454 0.0
C123 C 0.35211 0.82341 0.92234 0.0
C124 C 0.32752 0.81693 0.87087 0.0
H125 H 0.29117 0.759 1.01307 0.0
H126 H 0.38413 0.84114 0.92031 0.0
H127 H 0.34049 0.71004 0.09025 0.0
H128 H 0.38464 0.63508 0.94598 0.0
H129 H 0.37214 0.96429 0.05585 0.0
H130 H 0.2457 0.74808 0.92552 0.0
H131 H 0.34009 0.83114 0.83052 0.0
C132 C 0.81072 0.89516 0.46927 0.0
C133 C 0.85485 0.88062 0.4751 0.0
N134 N 0.85779 0.85719 0.52498 0.0
N135 N 0.78632 0.88079 0.5154 0.0
C136 C 0.81636 0.85803 0.54895 0.0
H137 H 0.79691 0.91359 0.4327 0.0
Co138 Co 0.72373 0.88832 0.52457 0.0
C139 C 0.71537 0.81196 0.61583 0.0
O140 O 0.69334 0.78244 0.58394 0.0
N141 N 0.66017 0.89761 0.53359 0.0
C142 C 0.5859 0.88818 0.54804 0.0
C143 C 0.62746 0.86693 0.54556 0.0
C144 C 0.63715 0.93733 0.52813 0.0
N145 N 0.59219 0.93234 0.53699 0.0
O146 O 0.73571 0.94023 0.57122 0.0
H147 H 0.63283 0.83114 0.55086 0.0
H148 H 0.6528 0.96936 0.51745 0.0
O149 O 0.72611 0.85082 0.59557 0.0
C150 C 0.74423 0.97425 0.53909 0.0
O151 O 0.73853 0.97085 0.48264 0.0
N152 N 0.7144 0.83933 0.47282 0.0
C153 C 0.72846 0.78958 0.37096 0.0
C154 C 0.74679 0.77489 0.42377 0.0
C155 C 0.73961 0.80041 0.47431 0.0
C156 C 0.69396 0.85232 0.42219 0.0
C157 C 0.70041 0.82777 0.37069 0.0
H158 H 0.7584 0.79128 0.5128 0.0
H159 H 0.67626 0.88436 0.42021 0.0
H160 H 0.80793 0.84037 0.58869 0.0
H161 H 0.88212 0.88527 0.44417 0.0
H162 H 0.55351 0.87235 0.55673 0.0
H163 H 0.76923 0.74586 0.42522 0.0
H164 H 0.68621 0.84039 0.33035 0.0
C165 C 0.12265 0.81093 0.46988 0.0
C166 C 0.13705 0.85507 0.47621 0.0
N167 N 0.16015 0.85784 0.52637 0.0
N168 N 0.13681 0.78632 0.51595 0.0
C169 C 0.15927 0.81627 0.55 0.0
H170 H 0.1045 0.79724 0.43299 0.0
Co171 Co 0.12941 0.72362 0.52457 0.0
C172 C 0.20559 0.71516 0.61596 0.0
O173 O 0.23521 0.69346 0.58388 0.0
N174 N 0.12028 0.65997 0.53313 0.0
C175 C 0.12986 0.58569 0.54744 0.0
C176 C 0.15103 0.62731 0.54505 0.0
C177 C 0.08062 0.63686 0.5276 0.0
N178 N 0.08569 0.5919 0.53639 0.0
O179 O 0.07729 0.7352 0.57087 0.0
H180 H 0.1868 0.63276 0.55047 0.0
H181 H 0.04854 0.65244 0.517 0.0
O182 O 0.16668 0.72581 0.59577 0.0
C183 C 0.0435 0.74354 0.53825 0.0
O184 O 0.04747 0.73804 0.48183 0.0
N185 N 0.17858 0.71466 0.47303 0.0
C186 C 0.22831 0.72919 0.3713 0.0
C187 C 0.24283 0.74758 0.42416 0.0
C188 C 0.21732 0.74015 0.47464 0.0
C189 C 0.16578 0.6942 0.42233 0.0
C190 C 0.19033 0.70088 0.3709 0.0
H191 H 0.22629 0.75893 0.51321 0.0
H192 H 0.13386 0.6763 0.42023 0.0
H193 H 0.17671 0.8077 0.58985 0.0
H194 H 0.13255 0.88247 0.44543 0.0
H195 H 0.14575 0.55333 0.55615 0.0
H196 H 0.2717 0.77022 0.4257 0.0
H197 H 0.17784 0.68663 0.33051 0.0
C198 C 0.20661 0.12249 0.47004 0.0
C199 C 0.16244 0.13679 0.4764 0.0
N200 N 0.15959 0.1596 0.52677 0.0
N201 N 0.23114 0.13645 0.51628 0.0
C202 C 0.20113 0.15866 0.55048 0.0
H203 H 0.22038 0.10458 0.43301 0.0
Co204 Co 0.29382 0.1292 0.52489 0.0
C205 C 0.30221 0.20584 0.61568 0.0
O206 O 0.32378 0.23539 0.58334 0.0
N207 N 0.35746 0.12018 0.53344 0.0
C208 C 0.43173 0.12982 0.54778 0.0
C209 C 0.39009 0.15095 0.5454 0.0
C210 C 0.38059 0.08054 0.52789 0.0
N211 N 0.42555 0.08565 0.53669 0.0
O212 O 0.28233 0.07725 0.57166 0.0
H213 H 0.38461 0.18671 0.55088 0.0
H214 H 0.36502 0.04846 0.51727 0.0
O215 O 0.29165 0.1668 0.59582 0.0
C216 C 0.27377 0.04328 0.53944 0.0
O217 O 0.27901 0.04692 0.48294 0.0
N218 N 0.30267 0.17821 0.47298 0.0
C219 C 0.28832 0.22793 0.37114 0.0
C220 C 0.26973 0.24238 0.42391 0.0
C221 C 0.27707 0.21688 0.47443 0.0
C222 C 0.32327 0.16544 0.42237 0.0
C223 C 0.31669 0.18998 0.37089 0.0
H224 H 0.25817 0.22582 0.51291 0.0
H225 H 0.34127 0.13357 0.42037 0.0
H226 H 0.20964 0.1759 0.59049 0.0
H227 H 0.1351 0.13246 0.44549 0.0
H228 H 0.46407 0.14572 0.55653 0.0
H229 H 0.24704 0.27121 0.42534 0.0
H230 H 0.3311 0.17755 0.33059 0.0
C231 C 0.89535 0.2067 0.46967 0.0
C232 C 0.88121 0.16246 0.4759 0.0
N233 N 0.85843 0.15942 0.52626 0.0
N234 N 0.88133 0.23107 0.51601 0.0
C235 C 0.85923 0.20092 0.5501 0.0
H236 H 0.91321 0.2206 0.4327 0.0
Co237 Co 0.88854 0.29373 0.52486 0.0
C238 C 0.81191 0.30192 0.6157 0.0
O239 O 0.78235 0.32354 0.58343 0.0
N240 N 0.89758 0.35736 0.5336 0.0
C241 C 0.88809 0.4316 0.54821 0.0
C242 C 0.8669 0.38999 0.54588 0.0
C243 C 0.93721 0.38045 0.5278 0.0
N244 N 0.9322 0.4254 0.53676 0.0
O245 O 0.94045 0.28216 0.57165 0.0
H246 H 0.83116 0.38453 0.55165 0.0
H247 H 0.96922 0.36486 0.51689 0.0
O248 O 0.85095 0.2914 0.59578 0.0
C249 C 0.97448 0.27359 0.53957 0.0
O250 O 0.97099 0.27889 0.48306 0.0
N251 N 0.83952 0.30269 0.47297 0.0
C252 C 0.78964 0.28867 0.37116 0.0
C253 C 0.77529 0.2699 0.42386 0.0
C254 C 0.80086 0.27707 0.47436 0.0
C255 C 0.8522 0.32348 0.42245 0.0
C256 C 0.82758 0.31706 0.37099 0.0
H257 H 0.79199 0.25804 0.51276 0.0
H258 H 0.88406 0.3415 0.42048 0.0
H259 H 0.842 0.20929 0.59017 0.0
H260 H 0.88563 0.1352 0.4449 0.0
H261 H 0.87226 0.46395 0.55716 0.0
H262 H 0.74647 0.24718 0.42524 0.0
H263 H 0.83994 0.33161 0.33073 0.0
C264 C 0.46805 0.28565 0.06716 0.0
C265 C 0.50368 0.26628 0.06165 0.0
C266 C 0.42776 0.31072 0.06026 0.0
C267 C 0.39474 0.33205 0.04613 0.0
C268 C 0.70574 0.42838 0.05993 0.0
C269 C 0.68457 0.39528 0.04571 0.0
C270 C 0.73082 0.46865 0.06693 0.0
C271 C 0.75036 0.50419 0.0615 0.0
C272 C 0.58922 0.70671 0.06042 0.0
C273 C 0.62229 0.68554 0.04611 0.0
C274 C 0.5489 0.73171 0.06748 0.0
C275 C 0.51329 0.75111 0.06202 0.0
C276 C 0.28503 0.54947 0.06722 0.0
C277 C 0.2658 0.51377 0.06175 0.0
C278 C 0.31 0.58982 0.06029 0.0
C279 C 0.33132 0.62284 0.04617 0.0
C280 C 0.96814 0.78502 0.56491 0.0
C281 C 1.00386 0.76579 0.5598 0.0
C282 C 0.92785 0.81004 0.55783 0.0
C283 C 0.89486 0.83146 0.54389 0.0
C284 C 0.23216 0.96816 0.5669 0.0
C285 C 0.25148 1.00382 0.56152 0.0
C286 C 0.20712 0.92785 0.55988 0.0
C287 C 0.18579 0.89484 0.5457 0.0
C288 C 0.08959 0.20653 0.56035 0.0
C289 C 0.12259 0.18522 0.54614 0.0
C290 C 0.04936 0.23167 0.5673 0.0
C291 C 0.01379 0.25113 0.56178 0.0
C292 C 0.81178 0.08918 0.55967 0.0
C293 C 0.83297 0.12228 0.54552 0.0
C294 C 0.78663 0.04895 0.5666 0.0
C295 C 0.767 0.01345 0.56114 0.0
C296 C 0.26224 0.26618 0.27173 0.0
C297 C 0.27417 0.24871 0.31692 0.0
C298 C 0.24616 0.28423 0.21822 0.0
C299 C 0.23235 0.29759 0.17163 0.0
C300 C 0.73314 0.24683 0.2182 0.0
C301 C 0.71976 0.23302 0.17162 0.0
C302 C 0.75125 0.26285 0.27172 0.0
C303 C 0.76879 0.27466 0.31692 0.0
C304 C 0.77077 0.73332 0.21813 0.0
C305 C 0.78467 0.71997 0.17158 0.0
C306 C 0.75459 0.75135 0.27159 0.0
C307 C 0.74263 0.76882 0.31676 0.0
C308 C 0.28425 0.77172 0.2184 0.0
C309 C 0.2975 0.78555 0.17179 0.0
C310 C 0.26638 0.75556 0.27194 0.0
C311 C 0.24902 0.74353 0.31714 0.0
C312 C 0.74697 0.78457 0.71819 0.0
C313 C 0.73298 0.79792 0.67168 0.0
C314 C 0.7631 0.76648 0.77165 0.0
C315 C 0.77492 0.74894 0.81684 0.0
C316 C 0.2329 0.7466 0.71842 0.0
C317 C 0.21959 0.73267 0.67187 0.0
C318 C 0.25097 0.76278 0.77187 0.0
C319 C 0.2685 0.77471 0.81702 0.0
C320 C 0.27093 0.23342 0.71809 0.0
C321 C 0.2848 0.22001 0.67157 0.0
C322 C 0.25481 0.25151 0.77156 0.0
C323 C 0.2429 0.269 0.81674 0.0
C324 C 0.76629 0.25464 0.77167 0.0
C325 C 0.74874 0.24283 0.81686 0.0
C326 C 0.78441 0.27067 0.71817 0.0
C327 C 0.79781 0.28451 0.67162 0.0
C328 C 0.98994 0.52423 0.03365 0.0
C329 C 0.95919 0.55164 0.03477 0.0
C330 C 0.02681 0.49287 0.03362 0.0
C331 C 0.0576 0.4655 0.03469 0.0
C332 C 0.52461 0.02716 0.03376 0.0
C333 C 0.552 0.05792 0.03486 0.0
C334 C 0.4932 0.99033 0.03374 0.0
C335 C 0.46576 0.95962 0.03478 0.0
C336 C 0.4905 0.02474 0.53385 0.0
C337 C 0.45975 0.05214 0.53487 0.0
C338 C 0.52733 0.99333 0.53392 0.0
C339 C 0.55805 0.9659 0.53504 0.0
C340 C 0.02468 0.52703 0.53353 0.0
C341 C 0.05214 0.55774 0.53456 0.0
C342 C 0.9932 0.49026 0.5336 0.0
C343 C 0.96574 0.45956 0.53476 0.0
loop_
_geom_bond_atom_site_label_1
_geom_bond_atom_site_label_2
_geom_bond_distance
_geom_bond_site_symmetry_2
_ccdc_geom_bond_type
C0 C1 1.351 . S
C0 N3 1.368 1_556 S
C0 H5 0.931 . S
C1 C0 1.351 . S
C1 N2 1.373 1_556 S
C1 H29 0.930 . S
N2 C1 1.373 1_554 S
N2 C4 1.340 . S
N3 C0 1.368 1_554 S
N3 C4 1.321 . S
N3 Co6 2.135 . S
C4 N2 1.340 . S
C4 N3 1.321 . S
C4 H28 0.930 . S
H5 C0 0.931 . S
Co6 N3 2.135 . S
Co6 N9 2.121 . S
Co6 O14 2.055 . S
Co6 O17 2.039 . S
Co6 N20 2.140 1_554 S
C7 O8 1.227 . S
C7 O17 1.265 . S
O8 C7 1.227 . S
N9 Co6 2.121 . S
N9 C11 1.375 . S
N9 C12 1.313 . S
C10 C11 1.338 . S
C10 N13 1.377 . S
C10 H30 0.930 . S
C11 N9 1.375 . S
C11 C10 1.338 . S
C11 H15 0.931 . S
C12 N9 1.313 . S
C12 N13 1.344 . S
C12 H16 0.930 . S
N13 C10 1.377 . S
N13 C12 1.344 . S
O14 Co6 2.055 . S
O14 C18 1.244 1_554 S
H15 C11 0.931 . S
H16 C12 0.930 . S
O17 Co6 2.039 . S
O17 C7 1.265 . S
C18 O14 1.244 1_556 S
C18 O19 1.235 . S
O19 C18 1.235 . S
N20 Co6 2.140 1_556 S
N20 C23 1.346 . S
N20 C24 1.345 . S
C21 C22 1.387 . S
C21 C25 1.391 . S
C22 C21 1.387 . S
C22 C23 1.369 . S
C22 H31 0.929 . S
C23 N20 1.346 . S
C23 C22 1.369 . S
C23 H26 0.928 . S
C24 N20 1.345 . S
C24 C25 1.371 . S
C24 H27 0.931 . S
C25 C21 1.391 . S
C25 C24 1.371 . S
C25 H32 0.930 . S
H26 C23 0.928 . S
H27 C24 0.931 . S
H28 C4 0.930 . S
H29 C1 0.930 . S
H30 C10 0.930 . S
H31 C22 0.929 . S
H32 C25 0.930 . S
C33 C34 1.351 . S
C33 N36 1.368 1_556 S
C33 H38 0.931 . S
C34 C33 1.351 . S
C34 N35 1.373 1_556 S
C34 H62 0.930 . S
N35 C34 1.373 1_554 S
N35 C37 1.340 . S
N36 C33 1.368 1_554 S
N36 C37 1.321 . S
N36 Co39 2.135 . S
C37 N35 1.340 . S
C37 N36 1.321 . S
C37 H61 0.930 . S
H38 C33 0.931 . S
Co39 N36 2.135 . S
Co39 N42 2.121 . S
Co39 O47 2.055 . S
Co39 O50 2.039 . S
Co39 N53 2.140 1_554 S
C40 O41 1.227 . S
C40 O50 1.265 . S
O41 C40 1.227 . S
N42 Co39 2.121 . S
N42 C44 1.375 . S
N42 C45 1.313 . S
C43 C44 1.338 . S
C43 N46 1.377 . S
C43 H63 0.930 . S
C44 N42 1.375 . S
C44 C43 1.338 . S
C44 H48 0.931 . S
C45 N42 1.313 . S
C45 N46 1.344 . S
C45 H49 0.930 . S
N46 C43 1.377 . S
N46 C45 1.344 . S
O47 Co39 2.055 . S
O47 C51 1.244 1_554 S
H48 C44 0.931 . S
H49 C45 0.930 . S
O50 Co39 2.039 . S
O50 C40 1.265 . S
C51 O47 1.244 1_556 S
C51 O52 1.235 . S
O52 C51 1.235 . S
N53 Co39 2.140 1_556 S
N53 C56 1.346 . S
N53 C57 1.345 . S
C54 C55 1.387 . S
C54 C58 1.391 . S
C55 C54 1.387 . S
C55 C56 1.369 . S
C55 H64 0.929 . S
C56 N53 1.346 . S
C56 C55 1.369 . S
C56 H59 0.928 . S
C57 N53 1.345 . S
C57 C58 1.371 . S
C57 H60 0.931 . S
C58 C54 1.391 . S
C58 C57 1.371 . S
C58 H65 0.930 . S
H59 C56 0.928 . S
H60 C57 0.931 . S
H61 C37 0.930 . S
H62 C34 0.930 . S
H63 C43 0.930 . S
H64 C55 0.929 . S
H65 C58 0.930 . S
C66 C67 1.351 . S
C66 N69 1.368 1_556 S
C66 H71 0.931 . S
C67 C66 1.351 . S
C67 N68 1.373 1_556 S
C67 H95 0.930 . S
N68 C67 1.373 1_554 S
N68 C70 1.340 . S
N69 C66 1.368 1_554 S
N69 C70 1.321 . S
N69 Co72 2.135 . S
C70 N68 1.340 . S
C70 N69 1.321 . S
C70 H94 0.930 . S
H71 C66 0.931 . S
Co72 N69 2.135 . S
Co72 N75 2.121 . S
Co72 O80 2.055 . S
Co72 O83 2.039 . S
Co72 N86 2.140 1_554 S
C73 O74 1.227 . S
C73 O83 1.265 . S
O74 C73 1.227 . S
N75 Co72 2.121 . S
N75 C77 1.375 . S
N75 C78 1.313 . S
C76 C77 1.338 . S
C76 N79 1.377 . S
C76 H96 0.930 . S
C77 N75 1.375 . S
C77 C76 1.338 . S
C77 H81 0.931 . S
C78 N75 1.313 . S
C78 N79 1.344 . S
C78 H82 0.930 . S
N79 C76 1.377 . S
N79 C78 1.344 . S
O80 Co72 2.055 . S
O80 C84 1.244 1_554 S
H81 C77 0.931 . S
H82 C78 0.930 . S
O83 Co72 2.039 . S
O83 C73 1.265 . S
C84 O80 1.244 1_556 S
C84 O85 1.235 . S
O85 C84 1.235 . S
N86 Co72 2.140 1_556 S
N86 C89 1.346 . S
N86 C90 1.345 . S
C87 C88 1.387 . S
C87 C91 1.391 . S
C88 C87 1.387 . S
C88 C89 1.369 . S
C88 H97 0.929 . S
C89 N86 1.346 . S
C89 C88 1.369 . S
C89 H92 0.928 . S
C90 N86 1.345 . S
C90 C91 1.371 . S
C90 H93 0.931 . S
C91 C87 1.391 . S
C91 C90 1.371 . S
C91 H98 0.930 . S
H92 C89 0.928 . S
H93 C90 0.931 . S
H94 C70 0.930 . S
H95 C67 0.930 . S
H96 C76 0.930 . S
H97 C88 0.929 . S
H98 C91 0.930 . S
C99 C100 1.351 . S
C99 N102 1.368 1_556 S
C99 H104 0.931 . S
C100 C99 1.351 . S
C100 N101 1.373 1_556 S
C100 H128 0.930 . S
N101 C100 1.373 1_554 S
N101 C103 1.340 . S
N102 C99 1.368 1_554 S
N102 C103 1.321 . S
N102 Co105 2.135 . S
C103 N101 1.340 . S
C103 N102 1.321 . S
C103 H127 0.930 . S
H104 C99 0.931 . S
Co105 N102 2.135 . S
Co105 N108 2.121 . S
Co105 O113 2.055 . S
Co105 O116 2.039 . S
Co105 N119 2.140 1_554 S
C106 O107 1.227 . S
C106 O116 1.265 . S
O107 C106 1.227 . S
N108 Co105 2.121 . S
N108 C110 1.375 . S
N108 C111 1.313 . S
C109 C110 1.338 . S
C109 N112 1.377 . S
C109 H129 0.930 . S
C110 N108 1.375 . S
C110 C109 1.338 . S
C110 H114 0.931 . S
C111 N108 1.313 . S
C111 N112 1.344 . S
C111 H115 0.930 . S
N112 C109 1.377 . S
N112 C111 1.344 . S
O113 Co105 2.055 . S
O113 C117 1.244 1_554 S
H114 C110 0.931 . S
H115 C111 0.930 . S
O116 Co105 2.039 . S
O116 C106 1.265 . S
C117 O113 1.244 1_556 S
C117 O118 1.235 . S
O118 C117 1.235 . S
N119 Co105 2.140 1_556 S
N119 C122 1.346 . S
N119 C123 1.345 . S
C120 C121 1.387 . S
C120 C124 1.391 . S
C121 C120 1.387 . S
C121 C122 1.369 . S
C121 H130 0.929 . S
C122 N119 1.346 . S
C122 C121 1.369 . S
C122 H125 0.928 . S
C123 N119 1.345 . S
C123 C124 1.371 . S
C123 H126 0.931 . S
C124 C120 1.391 . S
C124 C123 1.371 . S
C124 H131 0.930 . S
H125 C122 0.928 . S
H126 C123 0.931 . S
H127 C103 0.930 . S
H128 C100 0.930 . S
H129 C109 0.930 . S
H130 C121 0.929 . S
H131 C124 0.930 . S
C132 C133 1.351 . S
C132 N135 1.368 . S
C132 H137 0.931 . S
C133 C132 1.351 . S
C133 N134 1.373 . S
C133 H161 0.930 . S
N134 C133 1.373 . S
N134 C136 1.340 . S
N135 C132 1.368 . S
N135 C136 1.321 . S
N135 Co138 2.135 . S
C136 N134 1.340 . S
C136 N135 1.321 . S
C136 H160 0.930 . S
H137 C132 0.931 . S
Co138 N135 2.135 . S
Co138 N141 2.121 . S
Co138 O146 2.055 . S
Co138 O149 2.039 . S
Co138 N152 2.140 . S
C139 O140 1.227 . S
C139 O149 1.265 . S
O140 C139 1.227 . S
N141 Co138 2.121 . S
N141 C143 1.375 . S
N141 C144 1.313 . S
C142 C143 1.338 . S
C142 N145 1.377 . S
C142 H162 0.930 . S
C143 N141 1.375 . S
C143 C142 1.338 . S
C143 H147 0.931 . S
C144 N141 1.313 . S
C144 N145 1.344 . S
C144 H148 0.930 . S
N145 C142 1.377 . S
N145 C144 1.344 . S
O146 Co138 2.055 . S
O146 C150 1.253 . S
H147 C143 0.931 . S
H148 C144 0.930 . S
O149 Co138 2.039 . S
O149 C139 1.265 . S
C150 O146 1.253 . S
C150 O151 1.227 . S
O151 C150 1.227 . S
N152 Co138 2.140 . S
N152 C155 1.346 . S
N152 C156 1.345 . S
C153 C154 1.387 . S
C153 C157 1.391 . S
C154 C153 1.387 . S
C154 C155 1.369 . S
C154 H163 0.929 . S
C155 N152 1.346 . S
C155 C154 1.369 . S
C155 H158 0.928 . S
C156 N152 1.345 . S
C156 C157 1.371 . S
C156 H159 0.931 . S
C157 C153 1.391 . S
C157 C156 1.371 . S
C157 H164 0.930 . S
H158 C155 0.928 . S
H159 C156 0.931 . S
H160 C136 0.930 . S
H161 C133 0.930 . S
H162 C142 0.930 . S
H163 C154 0.929 . S
H164 C157 0.930 . S
C165 C166 1.351 . S
C165 N168 1.368 . S
C165 H170 0.931 . S
C166 C165 1.351 . S
C166 N167 1.373 . S
C166 H194 0.930 . S
N167 C166 1.373 . S
N167 C169 1.340 . S
N168 C165 1.368 . S
N168 C169 1.321 . S
N168 Co171 2.135 . S
C169 N167 1.340 . S
C169 N168 1.321 . S
C169 H193 0.930 . S
H170 C165 0.931 . S
Co171 N168 2.135 . S
Co171 N174 2.121 . S
Co171 O179 2.055 . S
Co171 O182 2.039 . S
Co171 N185 2.140 . S
C172 O173 1.227 . S
C172 O182 1.265 . S
O173 C172 1.227 . S
N174 Co171 2.121 . S
N174 C176 1.375 . S
N174 C177 1.313 . S
C175 C176 1.338 . S
C175 N178 1.377 . S
C175 H195 0.930 . S
C176 N174 1.375 . S
C176 C175 1.338 . S
C176 H180 0.931 . S
C177 N174 1.313 . S
C177 N178 1.344 . S
C177 H181 0.930 . S
N178 C175 1.377 . S
N178 C177 1.344 . S
O179 Co171 2.055 . S
O179 C183 1.253 . S
H180 C176 0.931 . S
H181 C177 0.930 . S
O182 Co171 2.039 . S
O182 C172 1.265 . S
C183 O179 1.253 . S
C183 O184 1.227 . S
O184 C183 1.227 . S
N185 Co171 2.140 . S
N185 C188 1.346 . S
N185 C189 1.345 . S
C186 C187 1.387 . S
C186 C190 1.391 . S
C187 C186 1.387 . S
C187 C188 1.369 . S
C187 H196 0.929 . S
C188 N185 1.346 . S
C188 C187 1.369 . S
C188 H191 0.928 . S
C189 N185 1.345 . S
C189 C190 1.371 . S
C189 H192 0.931 . S
C190 C186 1.391 . S
C190 C189 1.371 . S
C190 H197 0.930 . S
H191 C188 0.928 . S
H192 C189 0.931 . S
H193 C169 0.930 . S
H194 C166 0.930 . S
H195 C175 0.930 . S
H196 C187 0.929 . S
H197 C190 0.930 . S
C198 C199 1.351 . S
C198 N201 1.368 . S
C198 H203 0.931 . S
C199 C198 1.351 . S
C199 N200 1.373 . S
C199 H227 0.930 . S
N200 C199 1.373 . S
N200 C202 1.340 . S
N201 C198 1.368 . S
N201 C202 1.321 . S
N201 Co204 2.135 . S
C202 N200 1.340 . S
C202 N201 1.321 . S
C202 H226 0.930 . S
H203 C198 0.931 . S
Co204 N201 2.135 . S
Co204 N207 2.121 . S
Co204 O212 2.055 . S
Co204 O215 2.039 . S
Co204 N218 2.140 . S
C205 O206 1.227 . S
C205 O215 1.265 . S
O206 C205 1.227 . S
N207 Co204 2.121 . S
N207 C209 1.375 . S
N207 C210 1.313 . S
C208 C209 1.338 . S
C208 N211 1.377 . S
C208 H228 0.930 . S
C209 N207 1.375 . S
C209 C208 1.338 . S
C209 H213 0.931 . S
C210 N207 1.313 . S
C210 N211 1.344 . S
C210 H214 0.930 . S
N211 C208 1.377 . S
N211 C210 1.344 . S
O212 Co204 2.055 . S
O212 C216 1.253 . S
H213 C209 0.931 . S
H214 C210 0.930 . S
O215 Co204 2.039 . S
O215 C205 1.265 . S
C216 O212 1.253 . S
C216 O217 1.227 . S
O217 C216 1.227 . S
N218 Co204 2.140 . S
N218 C221 1.346 . S
N218 C222 1.345 . S
C219 C220 1.387 . S
C219 C223 1.391 . S
C220 C219 1.387 . S
C220 C221 1.369 . S
C220 H229 0.929 . S
C221 N218 1.346 . S
C221 C220 1.369 . S
C221 H224 0.928 . S
C222 N218 1.345 . S
C222 C223 1.371 . S
C222 H225 0.931 . S
C223 C219 1.391 . S
C223 C222 1.371 . S
C223 H230 0.930 . S
H224 C221 0.928 . S
H225 C222 0.931 . S
H226 C202 0.930 . S
H227 C199 0.930 . S
H228 C208 0.930 . S
H229 C220 0.929 . S
H230 C223 0.930 . S
C231 C232 1.351 . S
C231 N234 1.368 . S
C231 H236 0.931 . S
C232 C231 1.351 . S
C232 N233 1.373 . S
C232 H260 0.930 . S
N233 C232 1.373 . S
N233 C235 1.340 . S
N234 C231 1.368 . S
N234 C235 1.321 . S
N234 Co237 2.135 . S
C235 N233 1.340 . S
C235 N234 1.321 . S
C235 H259 0.930 . S
H236 C231 0.931 . S
Co237 N234 2.135 . S
Co237 N240 2.121 . S
Co237 O245 2.055 . S
Co237 O248 2.039 . S
Co237 N251 2.140 . S
C238 O239 1.227 . S
C238 O248 1.265 . S
O239 C238 1.227 . S
N240 Co237 2.121 . S
N240 C242 1.375 . S
N240 C243 1.313 . S
C241 C242 1.338 . S
C241 N244 1.377 . S
C241 H261 0.930 . S
C242 N240 1.375 . S
C242 C241 1.338 . S
C242 H246 0.931 . S
C243 N240 1.313 . S
C243 N244 1.344 . S
C243 H247 0.930 . S
N244 C241 1.377 . S
N244 C243 1.344 . S
O245 Co237 2.055 . S
O245 C249 1.253 . S
H246 C242 0.931 . S
H247 C243 0.930 . S
O248 Co237 2.039 . S
O248 C238 1.265 . S
C249 O245 1.253 . S
C249 O250 1.227 . S
O250 C249 1.227 . S
N251 Co237 2.140 . S
N251 C254 1.346 . S
N251 C255 1.345 . S
C252 C253 1.387 . S
C252 C256 1.391 . S
C253 C252 1.387 . S
C253 C254 1.369 . S
C253 H262 0.929 . S
C254 N251 1.346 . S
C254 C253 1.369 . S
C254 H257 0.928 . S
C255 N251 1.345 . S
C255 C256 1.371 . S
C255 H258 0.931 . S
C256 C252 1.391 . S
C256 C255 1.371 . S
C256 H263 0.930 . S
H257 C254 0.928 . S
H258 C255 0.931 . S
H259 C235 0.930 . S
H260 C232 0.930 . S
H261 C241 0.930 . S
H262 C253 0.929 . S
H263 C256 0.930 . S
C264 C265 1.170 . S
C264 C266 1.380 . S
C265 C264 1.170 . S
C266 C264 1.380 . S
C266 C267 1.170 . S
C267 C266 1.170 . S
C268 C269 1.170 . S
C268 C270 1.380 . S
C269 C268 1.170 . S
C270 C268 1.380 . S
C270 C271 1.170 . S
C271 C270 1.170 . S
C272 C273 1.170 . S
C272 C274 1.380 . S
C273 C272 1.170 . S
C274 C272 1.380 . S
C274 C275 1.170 . S
C275 C274 1.170 . S
C276 C277 1.170 . S
C276 C278 1.380 . S
C277 C276 1.170 . S
C278 C276 1.380 . S
C278 C279 1.170 . S
C279 C278 1.170 . S
C280 C281 1.170 1_655 S
C280 C282 1.380 . S
C281 C280 1.170 1_455 S
C282 C280 1.380 . S
C282 C283 1.170 . S
C283 C282 1.170 . S
C284 C285 1.170 1_565 S
C284 C286 1.380 . S
C285 C284 1.170 1_545 S
C286 C284 1.380 . S
C286 C287 1.170 . S
C287 C286 1.170 . S
C288 C289 1.170 . S
C288 C290 1.380 . S
C289 C288 1.170 . S
C290 C288 1.380 . S
C290 C291 1.170 1_455 S
C291 C290 1.170 1_655 S
C292 C293 1.170 . S
C292 C294 1.380 . S
C293 C292 1.170 . S
C294 C292 1.380 . S
C294 C295 1.170 1_545 S
C295 C294 1.170 1_565 S
C296 C297 1.170 . S
C296 C298 1.380 . S
C297 C296 1.170 . S
C298 C296 1.380 . S
C298 C299 1.170 . S
C299 C298 1.170 . S
C300 C301 1.170 . S
C300 C302 1.380 . S
C301 C300 1.170 . S
C302 C300 1.380 . S
C302 C303 1.170 . S
C303 C302 1.170 . S
C304 C305 1.170 . S
C304 C306 1.380 . S
C305 C304 1.170 . S
C306 C304 1.380 . S
C306 C307 1.170 . S
C307 C306 1.170 . S
C308 C309 1.170 . S
C308 C310 1.380 . S
C309 C308 1.170 . S
C310 C308 1.380 . S
C310 C311 1.170 . S
C311 C310 1.170 . S
C312 C313 1.170 . S
C312 C314 1.380 . S
C313 C312 1.170 . S
C314 C312 1.380 . S
C314 C315 1.170 . S
C315 C314 1.170 . S
C316 C317 1.170 . S
C316 C318 1.380 . S
C317 C316 1.170 . S
C318 C316 1.380 . S
C318 C319 1.170 . S
C319 C318 1.170 . S
C320 C321 1.170 . S
C320 C322 1.380 . S
C321 C320 1.170 . S
C322 C320 1.380 . S
C322 C323 1.170 . S
C323 C322 1.170 . S
C324 C325 1.170 . S
C324 C326 1.380 . S
C325 C324 1.170 . S
C326 C324 1.380 . S
C326 C327 1.170 . S
C327 C326 1.170 . S
C328 C329 1.170 . S
C328 C330 1.380 1_655 S
C329 C328 1.170 . S
C330 C328 1.380 1_455 S
C330 C331 1.170 . S
C331 C330 1.170 . S
C332 C333 1.170 . S
C332 C334 1.380 1_545 S
C333 C332 1.170 . S
C334 C332 1.380 1_565 S
C334 C335 1.170 . S
C335 C334 1.170 . S
C336 C337 1.170 . S
C336 C338 1.380 1_545 S
C337 C336 1.170 . S
C338 C336 1.380 1_565 S
C338 C339 1.170 . S
C339 C338 1.170 . S
C340 C341 1.170 . S
C340 C342 1.380 1_455 S
C341 C340 1.170 . S
C342 C340 1.380 1_655 S
C342 C343 1.170 . S
C343 C342 1.170 . S
C265 C51 0.910 1_554 S
C267 N2 0.936 . S
C269 N35 0.906 . S
C271 C84 0.909 1_554 S
C273 N68 0.930 . S
C275 C117 0.907 1_554 S
C277 C18 0.917 1_554 S
C279 N101 0.934 . S
C281 C183 0.934 . S
C283 N134 0.896 . S
C285 C216 0.915 . S
C287 N167 0.936 . S
C289 N200 0.934 . S
C291 C249 0.910 . S
C293 N233 0.899 . S
C295 C150 0.912 . S
C297 C219 1.551 . S
C299 C7 1.559 . S
C301 C40 1.544 . S
C303 C252 1.567 . S
C305 C73 1.542 . S
C307 C153 1.568 . S
C309 C106 1.563 . S
C311 C186 1.541 . S
C313 C139 1.529 . S
C315 C87 1.577 . S
C317 C172 1.545 . S
C319 C120 1.571 . S
C321 C205 1.522 . S
C323 C21 1.573 . S
C325 C54 1.575 . S
C327 C238 1.534 . S
C329 N79 2.075 . S
C331 N13 2.066 . S
C333 N46 2.072 . S
C335 N112 2.067 . S
C337 N211 2.067 . S
C339 N145 2.070 . S
C341 N178 2.066 . S
C343 N244 2.075 . S
