# Generated by pormake.
# Topology sod, (4)-cn, num edge types: 1
# Building blocks:
#     Node 0, Type 0, BuildingBlock: CEKHIL_clean_sbu_0, # of connection points: 4
#     Node 1, Type 0, BuildingBlock: CEKHIL_clean_sbu_0, # of connection points: 4
#     Node 2, Type 0, BuildingBlock: CEKHIL_clean_sbu_0, # of connection points: 4
#     Node 3, Type 0, BuildingBlock: CEKHIL_clean_sbu_0, # of connection points: 4
#     Node 4, Type 0, BuildingBlock: CEKHIL_clean_sbu_0, # of connection points: 4
#     Node 5, Type 0, BuildingBlock: CEKHIL_clean_sbu_0, # of connection points: 4
#     Node 6, Type 0, BuildingBlock: CEKHIL_clean_sbu_0, # of connection points: 4
#     Node 7, Type 0, BuildingBlock: CEKHIL_clean_sbu_0, # of connection points: 4
#     Node 8, Type 0, BuildingBlock: CEKHIL_clean_sbu_0, # of connection points: 4
#     Node 9, Type 0, BuildingBlock: CEKHIL_clean_sbu_0, # of connection points: 4
#     Node 10, Type 0, BuildingBlock: CEKHIL_clean_sbu_0, # of connection points: 4
#     Node 11, Type 0, BuildingBlock: CEKHIL_clean_sbu_0, # of connection points: 4
#     Edge 12, Type (0, 0), BuildingBlock: XIVTED_clean_linker_0, # of connection points: 2
#     Edge 13, Type (0, 0), BuildingBlock: XIVTED_clean_linker_0, # of connection points: 2
#     Edge 14, Type (0, 0), BuildingBlock: XIVTED_clean_linker_0, # of connection points: 2
#     Edge 15, Type (0, 0), BuildingBlock: XIVTED_clean_linker_0, # of connection points: 2
#     Edge 16, Type (0, 0), BuildingBlock: XIVTED_clean_linker_0, # of connection points: 2
#     Edge 17, Type (0, 0), BuildingBlock: XIVTED_clean_linker_0, # of connection points: 2
#     Edge 18, Type (0, 0), BuildingBlock: XIVTED_clean_linker_0, # of connection points: 2
#     Edge 19, Type (0, 0), BuildingBlock: XIVTED_clean_linker_0, # of connection points: 2
#     Edge 20, Type (0, 0), BuildingBlock: XIVTED_clean_linker_0, # of connection points: 2
#     Edge 21, Type (0, 0), BuildingBlock: XIVTED_clean_linker_0, # of connection points: 2
#     Edge 22, Type (0, 0), BuildingBlock: XIVTED_clean_linker_0, # of connection points: 2
#     Edge 23, Type (0, 0), BuildingBlock: XIVTED_clean_linker_0, # of connection points: 2
#     Edge 24, Type (0, 0), BuildingBlock: XIVTED_clean_linker_0, # of connection points: 2
#     Edge 25, Type (0, 0), BuildingBlock: XIVTED_clean_linker_0, # of connection points: 2
#     Edge 26, Type (0, 0), BuildingBlock: XIVTED_clean_linker_0, # of connection points: 2
#     Edge 27, Type (0, 0), BuildingBlock: XIVTED_clean_linker_0, # of connection points: 2
#     Edge 28, Type (0, 0), BuildingBlock: XIVTED_clean_linker_0, # of connection points: 2
#     Edge 29, Type (0, 0), BuildingBlock: XIVTED_clean_linker_0, # of connection points: 2
#     Edge 30, Type (0, 0), BuildingBlock: XIVTED_clean_linker_0, # of connection points: 2
#     Edge 31, Type (0, 0), BuildingBlock: XIVTED_clean_linker_0, # of connection points: 2
#     Edge 32, Type (0, 0), BuildingBlock: XIVTED_clean_linker_0, # of connection points: 2
#     Edge 33, Type (0, 0), BuildingBlock: XIVTED_clean_linker_0, # of connection points: 2
#     Edge 34, Type (0, 0), BuildingBlock: XIVTED_clean_linker_0, # of connection points: 2
#     Edge 35, Type (0, 0), BuildingBlock: XIVTED_clean_linker_0, # of connection points: 2
# Relax obj value: 0.139
# Max RMSD: 0.179
# Mean RMSD: 0.169
data_MOF--net-sod--node1-CEKHIL_clean_sbu_0--edge1-XIVTED_clean_linker_0
_symmetry_space_group_name_H-M    P1
_symmetry_Int_Tables_number       1
_symmetry_cell_setting            triclinic
loop_
_symmetry_equiv_pos_as_xyz
'x, y, z'
_cell_length_a     42.104369
_cell_length_b     42.33538
_cell_length_c     42.171024
_cell_angle_alpha  91.882688
_cell_angle_beta   89.973297
_cell_angle_gamma 90.942694
loop_
_atom_site_label
_atom_site_type_symbol
_atom_site_fract_x
_atom_site_fract_y
_atom_site_fract_z
_atom_type_partial_charge
Co0 Co 0.00304 0.26431 0.50727 0.0
O1 O 0.97777 0.29457 0.48541 0.0
O2 O 0.0288 0.28569 0.47677 0.0
C3 C 0.96751 0.22399 0.5053 0.0
O4 O 0.03705 0.23466 0.52242 0.0
Co5 Co 0.98375 0.23503 0.57122 0.0
O6 O 0.02054 0.20695 0.56402 0.0
C7 C 0.99732 0.30316 0.56679 0.0
C8 C 0.00365 0.30148 0.47004 0.0
C9 C 0.04072 0.21261 0.54231 0.0
O10 O 0.01317 0.29788 0.54107 0.0
O11 O 0.98114 0.28164 0.58042 0.0
O12 O 0.98524 0.22931 0.48063 0.0
O13 O 0.97029 0.24425 0.52856 0.0
Co14 Co 0.75322 0.00867 0.50345 0.0
O15 O 0.78646 0.98749 0.47946 0.0
O16 O 0.77243 0.97764 0.52887 0.0
C17 C 0.7157 0.00791 0.46552 0.0
O18 O 0.72024 0.02205 0.53609 0.0
Co19 Co 0.7232 0.07275 0.48778 0.0
O20 O 0.69074 0.06212 0.52 0.0
C21 C 0.78898 0.07072 0.51149 0.0
C22 C 0.79088 0.97148 0.50493 0.0
C23 C 0.6962 0.04018 0.5391 0.0
O24 O 0.78527 0.04164 0.51879 0.0
O25 O 0.76798 0.0865 0.49724 0.0
O26 O 0.72057 0.98272 0.48166 0.0
O27 O 0.73518 0.03129 0.47089 0.0
Co28 Co 0.99365 0.76911 0.52871 0.0
O29 O 0.97008 0.7336 0.54551 0.0
O30 O 0.01793 0.75026 0.56132 0.0
C31 C 0.95349 0.80369 0.52907 0.0
O32 O 0.02563 0.8043 0.51982 0.0
Co33 Co 0.97927 0.80239 0.46604 0.0
O34 O 0.00868 0.83627 0.48232 0.0
C35 C 0.00834 0.73895 0.46455 0.0
C36 C 0.9943 0.73059 0.5643 0.0
C37 C 0.02806 0.82982 0.50423 0.0
O38 O 0.01222 0.74003 0.49485 0.0
O39 O 0.99448 0.76044 0.44928 0.0
O40 O 0.96909 0.79877 0.55502 0.0
O41 O 0.96109 0.78624 0.50469 0.0
Co42 Co 0.2596 0.02591 0.5092 0.0
O43 O 0.2264 0.04675 0.48632 0.0
O44 O 0.23972 0.05695 0.53647 0.0
C45 C 0.29687 0.02748 0.47097 0.0
O46 O 0.29265 0.0127 0.54111 0.0
Co47 Co 0.28999 0.96247 0.4891 0.0
O48 O 0.32215 0.97261 0.52244 0.0
C49 C 0.22463 0.96304 0.5145 0.0
C50 C 0.22151 0.06287 0.51265 0.0
C51 C 0.31659 0.99442 0.54308 0.0
O52 O 0.22772 0.99258 0.5224 0.0
O53 O 0.24597 0.94741 0.49947 0.0
O54 O 0.29229 0.05218 0.48951 0.0
O55 O 0.27774 0.00377 0.47465 0.0
Co56 Co 0.51018 0.02405 0.26295 0.0
O57 O 0.53439 0.04642 0.23146 0.0
O58 O 0.48351 0.0536 0.24249 0.0
C59 C 0.5468 0.02742 0.30194 0.0
O60 O 0.47696 0.00821 0.29394 0.0
Co61 Co 0.53039 0.96161 0.29323 0.0
O62 O 0.49846 0.9733 0.32623 0.0
C63 C 0.51345 0.96337 0.22532 0.0
C64 C 0.5082 0.06116 0.22576 0.0
C65 C 0.47652 0.99225 0.31934 0.0
O66 O 0.4993 0.98984 0.23008 0.0
O67 O 0.52958 0.95003 0.2467 0.0
O68 O 0.52867 0.05142 0.29701 0.0
O69 O 0.54368 0.00386 0.28209 0.0
Co70 Co 0.02228 0.50435 0.26892 0.0
O71 O 0.04619 0.48385 0.3013 0.0
O72 O 0.9942 0.47908 0.29416 0.0
C73 C 0.05587 0.49353 0.22879 0.0
O74 O 0.98898 0.51858 0.23762 0.0
Co75 Co 0.04718 0.56082 0.2305 0.0
O76 O 0.00976 0.55223 0.20283 0.0
C77 C 0.03193 0.56942 0.29872 0.0
C78 C 0.01925 0.47125 0.30983 0.0
C79 C 0.98729 0.53425 0.21206 0.0
O80 O 0.0168 0.54265 0.2985 0.0
O81 O 0.04769 0.57904 0.27483 0.0
O82 O 0.03523 0.47218 0.23716 0.0
O83 O 0.05684 0.51934 0.24576 0.0
Co84 Co 0.51956 0.00252 0.76552 0.0
O85 O 0.54547 0.98322 0.79712 0.0
O86 O 0.49537 0.97022 0.7862 0.0
C87 C 0.55563 0.00269 0.7261 0.0
O88 O 0.48559 0.0145 0.73397 0.0
Co89 Co 0.53586 0.06749 0.73693 0.0
O90 O 0.50051 0.05717 0.70697 0.0
C91 C 0.51875 0.06295 0.80412 0.0
C92 C 0.52068 0.96555 0.80288 0.0
C93 C 0.48157 0.03398 0.71159 0.0
O94 O 0.50591 0.03555 0.79829 0.0
O95 O 0.53502 0.07787 0.78363 0.0
O96 O 0.53958 0.97692 0.73169 0.0
O97 O 0.55154 0.02592 0.74612 0.0
Co98 Co 0.01511 0.53125 0.76655 0.0
O99 O 0.03856 0.55136 0.73305 0.0
O100 O 0.98971 0.56341 0.74852 0.0
C101 C 0.05387 0.53124 0.80324 0.0
O102 O 0.98345 0.51788 0.80021 0.0
Co103 Co 0.03312 0.46618 0.79297 0.0
O104 O -0.00025 0.47498 0.82522 0.0
C105 C 0.01221 0.4721 0.72698 0.0
C106 C 0.01347 0.56848 0.72964 0.0
C107 C 0.98068 0.49778 0.8223 0.0
O108 O 0.99898 0.49848 0.73441 0.0
O109 O 0.02992 0.45742 0.74603 0.0
O110 O 0.0377 0.55676 0.79917 0.0
O111 O 0.04828 0.50825 0.78316 0.0
Co112 Co 0.25435 0.51111 0.00985 0.0
O113 O 0.28804 0.49061 0.98582 0.0
O114 O 0.2764 0.48285 0.03625 0.0
C115 C 0.21602 0.50626 0.97264 0.0
O116 O 0.22192 0.52424 0.04314 0.0
Co117 Co 0.21883 0.57165 0.99263 0.0
O118 O 0.18685 0.5581 0.02434 0.0
C119 C 0.28752 0.57312 0.00712 0.0
C120 C 0.29431 0.47637 0.012 0.0
C121 C 0.19533 0.5386 0.04493 0.0
O122 O 0.28467 0.54696 0.0217 0.0
O123 O 0.26468 0.58516 0.99182 0.0
O124 O 0.22244 0.48224 0.98997 0.0
O125 O 0.234 0.53087 0.977 0.0
Co126 Co 0.49053 0.26709 0.02802 0.0
O127 O 0.46533 0.2348 0.04843 0.0
O128 O 0.51593 0.2463 0.05846 0.0
C129 C 0.45432 0.30574 0.0303 0.0
O130 O 0.52462 0.2985 0.01492 0.0
Co131 Co 0.47368 0.2986 0.96504 0.0
O132 O 0.50808 0.32975 0.97658 0.0
C133 C 0.48997 0.23102 0.966 0.0
C134 C 0.49102 0.22904 0.06431 0.0
C135 C 0.52821 0.32275 0.99767 0.0
O136 O 0.50267 0.23529 0.99361 0.0
O137 O 0.47455 0.25247 0.95218 0.0
O138 O 0.47138 0.3002 0.05522 0.0
O139 O 0.45805 0.28656 0.00632 0.0
Co140 Co 0.76177 0.51613 0.01373 0.0
O141 O 0.72833 0.53549 0.98978 0.0
O142 O 0.74057 0.54699 0.03999 0.0
C143 C 0.8 0.5178 0.97639 0.0
O144 O 0.79477 0.50468 0.04659 0.0
Co145 Co 0.79398 0.45285 0.99568 0.0
O146 O 0.82477 0.46409 0.02991 0.0
C147 C 0.72754 0.45289 0.0177 0.0
C148 C 0.72261 0.55195 0.01575 0.0
C149 C 0.81871 0.48655 0.04967 0.0
O150 O 0.73047 0.48214 0.02682 0.0
O151 O 0.74939 0.43773 0.00298 0.0
O152 O 0.79385 0.54298 0.99374 0.0
O153 O 0.78141 0.49373 0.9804 0.0
Co154 Co 0.50895 0.75842 0.00023 0.0
O155 O 0.48524 0.78974 0.97809 0.0
O156 O 0.53617 0.77938 0.97073 0.0
C157 C 0.47285 0.71877 0.99658 0.0
O158 O 0.54152 0.72755 0.01579 0.0
Co159 Co 0.48698 0.72935 0.0634 0.0
O160 O 0.52283 0.69998 0.05662 0.0
C161 C 0.50368 0.79682 0.06036 0.0
C162 C 0.5117 0.79588 0.96336 0.0
C163 C 0.54377 0.70513 0.03549 0.0
O164 O 0.51947 0.79119 0.03469 0.0
O165 O 0.48625 0.77594 0.07348 0.0
O166 O 0.49113 0.72455 0.97245 0.0
O167 O 0.475 0.73864 0.0203 0.0
H168 H 0.95457 0.33623 0.44737 0.0
H169 H 0.06806 0.4448 0.34204 0.0
H170 H 0.05601 0.32487 0.44006 0.0
H171 H 0.96579 0.44448 0.33518 0.0
H172 H 0.0641 0.40407 0.38174 0.0
H173 H 0.95813 0.37886 0.40951 0.0
C174 C 0.97756 0.34266 0.43778 0.0
C175 C 0.00501 0.3269 0.4468 0.0
C176 C 0.04251 0.41296 0.3716 0.0
C177 C 0.00931 0.37575 0.40373 0.0
C178 C 0.04477 0.4363 0.34902 0.0
C179 C 0.01723 0.44799 0.33521 0.0
C180 C 0.01249 0.40131 0.38058 0.0
C181 C 0.98766 0.43607 0.34514 0.0
C182 C 0.97959 0.36699 0.41618 0.0
C183 C 0.0342 0.33627 0.43368 0.0
N184 N 0.98606 0.41338 0.3672 0.0
N185 N 0.03559 0.36009 0.4129 0.0
H186 H 0.69477 0.06194 0.43967 0.0
H187 H 0.57239 0.97414 0.32432 0.0
H188 H 0.67333 0.96212 0.444 0.0
H189 H 0.56961 0.07497 0.34256 0.0
H190 H 0.60993 0.96962 0.36738 0.0
H191 H 0.65009 0.0676 0.40364 0.0
C192 C 0.68057 0.04118 0.43317 0.0
C193 C 0.6879 0.01141 0.4447 0.0
C194 C 0.60092 0.99273 0.36229 0.0
C195 C 0.63683 0.01782 0.40325 0.0
C196 C 0.57945 0.99541 0.33757 0.0
C197 C 0.56783 0.02506 0.32973 0.0
C198 C 0.61153 0.01996 0.37907 0.0
C199 C 0.57799 0.05169 0.34784 0.0
C200 C 0.65496 0.04453 0.4127 0.0
C201 C 0.66859 0.98545 0.43556 0.0
N202 N 0.59965 0.04857 0.3715 0.0
N203 N 0.6441 0.9892 0.41507 0.0
H204 H 0.99676 0.56464 0.35423 0.0
H205 H 0.04336 0.7398 0.41106 0.0
H206 H 0.06731 0.62308 0.30883 0.0
H207 H 0.99646 0.67613 0.47429 0.0
H208 H 0.0528 0.6957 0.37396 0.0
H209 H 0.9959 0.60338 0.39916 0.0
C210 C 0.01213 0.58538 0.35372 0.0
C211 C 0.03168 0.5908 0.32735 0.0
C212 C 0.04087 0.69106 0.39612 0.0
C213 C 0.03091 0.63485 0.37846 0.0
C214 C 0.03562 0.71627 0.41732 0.0
C215 C 0.01932 0.71142 0.44568 0.0
C216 C 0.02897 0.6608 0.40288 0.0
C217 C 0.00946 0.68059 0.45268 0.0
C218 C 0.01173 0.60737 0.37939 0.0
C219 C 0.05135 0.61797 0.32819 0.0
N220 N 0.01395 0.65637 0.43109 0.0
N221 N 0.05023 0.63893 0.35306 0.0
H222 H 0.35737 0.05204 0.47727 0.0
H223 H 0.41451 0.00199 0.30453 0.0
H224 H 0.29671 0.99663 0.41377 0.0
H225 H 0.47771 0.99365 0.38418 0.0
H226 H 0.37057 0.0121 0.34158 0.0
H227 H 0.40206 0.04325 0.44028 0.0
C228 C 0.35342 0.03846 0.45537 0.0
C229 C 0.32347 0.02506 0.44837 0.0
C230 C 0.39408 0.00799 0.35085 0.0
C231 C 0.37383 0.01536 0.40627 0.0
C232 C 0.41907 0.00222 0.32982 0.0
C233 C 0.44962 0.99666 0.34141 0.0
C234 C 0.39993 0.00919 0.38362 0.0
C235 C 0.45436 0.9974 0.37438 0.0
C236 C 0.37885 0.03325 0.43453 0.0
C237 C 0.31953 0.00729 0.41996 0.0
N238 N 0.42979 0.0039 0.39442 0.0
N239 N 0.34436 0.00318 0.39977 0.0
H240 H 0.03594 0.56446 0.66886 0.0
H241 H 0.01328 0.73951 0.62519 0.0
H242 H 0.98567 0.62588 0.73445 0.0
H243 H 0.97803 0.66768 0.5588 0.0
H244 H 0.01734 0.69945 0.66576 0.0
H245 H 0.0292 0.60357 0.62737 0.0
C246 C 0.02381 0.5863 0.67454 0.0
C247 C 0.01137 0.59217 0.70498 0.0
C248 C 0.00866 0.69258 0.64231 0.0
C249 C 0.00415 0.63663 0.65829 0.0
C250 C 0.00636 0.71527 0.61925 0.0
C251 C 0.99509 0.70674 0.58885 0.0
C252 C 0.00073 0.66103 0.63449 0.0
C253 C 0.9865 0.67508 0.58216 0.0
C254 C 0.01975 0.60831 0.65092 0.0
C255 C 0.99553 0.62057 0.7112 0.0
N256 N 0.98995 0.65311 0.60476 0.0
N257 N 0.99274 0.64203 0.68814 0.0
H258 H 0.45063 0.97794 0.69775 0.0
H259 H 0.32619 0.04892 0.57841 0.0
H260 H 0.45203 0.0764 0.67413 0.0
H261 H 0.35813 0.95272 0.56855 0.0
H262 H 0.36483 0.05868 0.62107 0.0
H263 H 0.40906 0.96777 0.6579 0.0
C264 C 0.44195 0.9975 0.68446 0.0
C265 C 0.45484 0.0281 0.68925 0.0
C266 C 0.36326 0.03543 0.60961 0.0
C267 C 0.40725 0.01656 0.64385 0.0
C268 C 0.34113 0.02975 0.5854 0.0
C269 C 0.33896 0.99994 0.56986 0.0
C270 C 0.38298 0.01098 0.61881 0.0
C271 C 0.35912 0.97608 0.57978 0.0
C272 C 0.41842 0.99159 0.66161 0.0
C273 C 0.44286 0.05245 0.67112 0.0
N274 N 0.3802 0.98207 0.60377 0.0
N275 N 0.41963 0.04618 0.64931 0.0
H276 H 0.94871 0.33 0.59921 0.0
H277 H 0.05849 0.45602 0.68571 0.0
H278 H 0.04463 0.34891 0.56835 0.0
H279 H 0.95678 0.4547 0.69684 0.0
H280 H 0.053 0.42191 0.6381 0.0
H281 H 0.94968 0.37943 0.63035 0.0
C282 C 0.96995 0.34479 0.5988 0.0
C283 C 0.99692 0.3351 0.58176 0.0
C284 C 0.03178 0.42957 0.65045 0.0
C285 C 0.99827 0.39171 0.61762 0.0
C286 C 0.03492 0.449 0.67758 0.0
C287 C 0.00803 0.45779 0.6951 0.0
C288 C 0.00156 0.41813 0.64138 0.0
C289 C 0.97802 0.44832 0.68381 0.0
C290 C 0.97039 0.37315 0.61642 0.0
C291 C 0.02349 0.35542 0.58146 0.0
N292 N 0.9756 0.42836 0.65794 0.0
N293 N 0.02376 0.38254 0.59974 0.0
H294 H 0.57732 0.9571 0.68385 0.0
H295 H 0.65373 0.08145 0.56624 0.0
H296 H 0.57782 0.05793 0.70274 0.0
H297 H 0.68784 0.98618 0.57197 0.0
H298 H 0.61774 0.07147 0.61063 0.0
H299 H 0.61047 0.96567 0.63673 0.0
C300 C 0.58424 0.98097 0.67801 0.0
C301 C 0.5749 0.00682 0.69724 0.0
C302 C 0.63313 0.05279 0.60208 0.0
C303 C 0.61217 0.01676 0.64353 0.0
C304 C 0.65358 0.05844 0.57676 0.0
C305 C 0.67401 0.03473 0.56561 0.0
C306 C 0.63272 0.02306 0.61595 0.0
C307 C 0.67277 0.00528 0.58008 0.0
C308 C 0.60316 0.98583 0.65126 0.0
C309 C 0.58451 0.03729 0.68867 0.0
N310 N 0.6524 0.00023 0.60445 0.0
N311 N 0.60248 0.04142 0.6624 0.0
H312 H 0.42709 0.32708 0.97685 0.0
H313 H 0.31822 0.45291 0.0662 0.0
H314 H 0.43414 0.34725 0.07762 0.0
H315 H 0.3302 0.44869 0.96452 0.0
H316 H 0.35977 0.4139 0.07112 0.0
H317 H 0.39104 0.37089 0.97217 0.0
C318 C 0.42119 0.34084 0.99806 0.0
C319 C 0.43362 0.3334 0.02775 0.0
C320 C 0.3535 0.42164 0.04775 0.0
C321 C 0.39187 0.38368 0.02248 0.0
C322 C 0.32967 0.44382 0.04486 0.0
C323 C 0.32057 0.4539 0.01483 0.0
C324 C 0.36816 0.40907 0.02039 0.0
C325 C 0.33641 0.44152 0.98809 0.0
C326 C 0.40059 0.36597 0.9953 0.0
C327 C 0.42508 0.35217 0.0543 0.0
N328 N 0.35927 0.41951 0.99149 0.0
N329 N 0.40445 0.37633 0.05109 0.0
H330 H 0.31112 0.60323 0.95665 0.0
H331 H 0.44839 0.69202 0.04924 0.0
H332 H 0.33508 0.57872 0.0521 0.0
H333 H 0.44799 0.68277 0.94705 0.0
H334 H 0.40761 0.6506 0.05143 0.0
H335 H 0.36109 0.63261 0.95292 0.0
C336 C 0.32701 0.60405 0.97688 0.0
C337 C 0.3188 0.58901 0.00496 0.0
C338 C 0.41679 0.65724 0.02856 0.0
C339 C 0.37605 0.62275 0.00082 0.0
C340 C 0.43997 0.68101 0.02723 0.0
C341 C 0.45129 0.69107 0.99785 0.0
C342 C 0.40432 0.64394 0.00028 0.0
C343 C 0.43976 0.67578 0.97015 0.0
C344 C 0.35566 0.62058 0.97459 0.0
C345 C 0.3405 0.59024 0.03016 0.0
N346 N 0.41642 0.65331 0.97201 0.0
N347 N 0.36801 0.60739 0.02772 0.0
H348 H 0.58272 0.3074 0.02805 0.0
H349 H 0.66747 0.47693 0.01576 0.0
H350 H 0.53924 0.38407 0.97988 0.0
H351 H 0.71803 0.39033 0.02768 0.0
H352 H 0.61732 0.44624 0.01301 0.0
H353 H 0.62975 0.3406 0.03773 0.0
C354 C 0.58301 0.33126 0.0195 0.0
C355 C 0.55701 0.34287 0.00289 0.0
C356 C 0.63941 0.43411 0.0166 0.0
C357 C 0.61089 0.38119 0.01431 0.0
C358 C 0.66792 0.45159 0.01854 0.0
C359 C 0.69688 0.43608 0.02191 0.0
C360 C 0.63999 0.40106 0.01861 0.0
C361 C 0.69623 0.40318 0.02493 0.0
C362 C 0.60992 0.35019 0.02506 0.0
C363 C 0.55886 0.37404 0.99247 0.0
N364 N 0.66828 0.38679 0.02318 0.0
N365 N 0.58535 0.3922 0.99843 0.0
H366 H 0.69725 0.57751 0.06986 0.0
H367 H 0.58278 0.69577 0.98418 0.0
H368 H 0.68852 0.57833 0.96793 0.0
H369 H 0.56693 0.66534 0.0797 0.0
H370 H 0.62643 0.65849 0.97876 0.0
H371 H 0.65421 0.61526 0.07472 0.0
C372 C 0.68631 0.5857 0.04845 0.0
C373 C 0.69647 0.57476 0.01841 0.0
C374 C 0.61338 0.66004 0.00088 0.0
C375 C 0.64729 0.6182 0.02389 0.0
C376 C 0.58861 0.68145 0.00412 0.0
C377 C 0.57117 0.68374 0.0325 0.0
C378 C 0.62111 0.64113 0.02636 0.0
C379 C 0.57965 0.66434 0.05739 0.0
C380 C 0.66166 0.60716 0.05129 0.0
C381 C 0.68132 0.5861 0.99153 0.0
N382 N 0.60412 0.64398 0.05379 0.0
N383 N 0.65756 0.60741 0.99488 0.0
H384 H 0.56492 0.81518 0.93207 0.0
H385 H 0.5707 0.9481 0.83956 0.0
H386 H 0.46464 0.83322 0.94056 0.0
H387 H 0.47137 0.92783 0.82192 0.0
H388 H 0.57067 0.90758 0.87941 0.0
H389 H 0.56947 0.85636 0.89333 0.0
C390 C 0.54386 0.82801 0.92596 0.0
C391 C 0.51437 0.82086 0.93974 0.0
C392 C 0.54899 0.91152 0.86648 0.0
C393 C 0.51955 0.86882 0.89579 0.0
C394 C 0.54894 0.93494 0.84391 0.0
C395 C 0.52108 0.94117 0.8272 0.0
C396 C 0.52095 0.89413 0.87233 0.0
C397 C 0.49346 0.92363 0.83408 0.0
C398 C 0.54656 0.85185 0.90402 0.0
C399 C 0.48787 0.83808 0.93065 0.0
N400 N 0.49409 0.90098 0.85617 0.0
N401 N 0.49107 0.86119 0.90914 0.0
H402 H 0.17959 0.45728 0.94594 0.0
H403 H 0.0725 0.57562 0.84847 0.0
H404 H 0.18967 0.55896 0.95019 0.0
H405 H 0.08265 0.47722 0.82085 0.0
H406 H 0.10841 0.56803 0.8931 0.0
H407 H 0.13665 0.46227 0.90669 0.0
C408 C 0.17254 0.48054 0.93899 0.0
C409 C 0.18832 0.50769 0.95126 0.0
C410 C 0.10265 0.54806 0.87731 0.0
C411 C 0.13951 0.5136 0.90698 0.0
C412 C 0.08218 0.55243 0.85186 0.0
C413 C 0.07483 0.52713 0.8308 0.0
C414 C 0.11567 0.51814 0.88182 0.0
C415 C 0.08789 0.49746 0.83642 0.0
C416 C 0.14822 0.4834 0.91659 0.0
C417 C 0.17836 0.53732 0.9414 0.0
N418 N 0.10774 0.49378 0.86136 0.0
N419 N 0.1547 0.53945 0.91992 0.0
H420 H 0.56432 0.09219 0.83996 0.0
H421 H 0.44553 0.20172 0.92843 0.0
H422 H 0.4639 0.07075 0.83834 0.0
H423 H 0.54008 0.19019 0.96515 0.0
H424 H 0.45141 0.15342 0.89583 0.0
H425 H 0.55655 0.12708 0.88658 0.0
C426 C 0.54069 0.09445 0.84989 0.0
C427 C 0.51463 0.07887 0.83533 0.0
C428 C 0.47069 0.16113 0.91138 0.0
C429 C 0.50548 0.11924 0.88801 0.0
C430 C 0.46748 0.18881 0.92977 0.0
C431 C 0.49257 0.20012 0.94911 0.0
C432 C 0.49953 0.14506 0.91166 0.0
C433 C 0.52028 0.1823 0.95038 0.0
C434 C 0.5363 0.11425 0.87651 0.0
C435 C 0.48454 0.08241 0.84901 0.0
N436 N 0.52331 0.15593 0.93132 0.0
N437 N 0.48063 0.10286 0.87424 0.0
H438 H 0.94575 0.55071 0.83551 0.0
H439 H 0.82526 0.4643 0.9503 0.0
H440 H 0.95613 0.45385 0.86226 0.0
H441 H 0.83755 0.56576 0.95341 0.0
H442 H 0.86991 0.45997 0.91384 0.0
H443 H 0.90279 0.55663 0.87435 0.0
C444 C 0.93894 0.53065 0.84944 0.0
C445 C 0.95449 0.50165 0.8455 0.0
C446 C 0.86299 0.48319 0.92258 0.0
C447 C 0.90535 0.50834 0.88983 0.0
C448 C 0.83741 0.48573 0.94337 0.0
C449 C 0.82768 0.51548 0.95495 0.0
C450 C 0.87875 0.51061 0.91277 0.0
C451 C 0.84437 0.54238 0.94509 0.0
C452 C 0.91458 0.53415 0.87173 0.0
C453 C 0.94486 0.47661 0.86446 0.0
N454 N 0.86901 0.53935 0.9243 0.0
N455 N 0.92076 0.48047 0.88561 0.0
H456 H 0.55668 0.08786 0.1918 0.0
H457 H 0.44207 0.19302 0.08801 0.0
H458 H 0.45492 0.08923 0.20393 0.0
H459 H 0.54368 0.20731 0.09345 0.0
H460 H 0.44611 0.15137 0.12687 0.0
H461 H 0.55227 0.12824 0.15181 0.0
C462 C 0.53343 0.09661 0.18601 0.0
C463 C 0.50616 0.08525 0.20128 0.0
C464 C 0.46749 0.16368 0.11953 0.0
C465 C 0.50088 0.13128 0.1555 0.0
C466 C 0.46519 0.18738 0.09733 0.0
C467 C 0.49255 0.20372 0.08757 0.0
C468 C 0.4974 0.15609 0.13175 0.0
C469 C 0.52193 0.19544 0.1004 0.0
C470 C 0.53091 0.11969 0.16325 0.0
C471 C 0.4766 0.09742 0.19284 0.0
N472 N 0.52358 0.17219 0.12173 0.0
N473 N 0.47474 0.11971 0.17049 0.0
H474 H 0.96227 0.57474 0.16951 0.0
H475 H 0.85701 0.44497 0.07943 0.0
H476 H 0.94897 0.48175 0.20683 0.0
H477 H 0.83113 0.5432 0.0804 0.0
H478 H 0.89565 0.45733 0.12178 0.0
H479 H 0.91856 0.56341 0.1321 0.0
C480 C 0.94999 0.55207 0.17 0.0
C481 C 0.95917 0.52919 0.19137 0.0
C482 C 0.88129 0.47607 0.11284 0.0
C483 C 0.90987 0.51589 0.14828 0.0
C484 C 0.85937 0.46908 0.08864 0.0
C485 C 0.8408 0.49308 0.07645 0.0
C486 C 0.88526 0.50741 0.12428 0.0
C487 C 0.84481 0.52395 0.08928 0.0
C488 C 0.92507 0.54567 0.14874 0.0
C489 C 0.94248 0.50017 0.19095 0.0
N490 N 0.8669 0.53032 0.11222 0.0
N491 N 0.91894 0.49416 0.16943 0.0
H492 H 0.55514 0.8372 0.06715 0.0
H493 H 0.46251 0.95624 0.18485 0.0
H494 H 0.45545 0.82797 0.08917 0.0
H495 H 0.56152 0.93392 0.19461 0.0
H496 H 0.46006 0.92195 0.13652 0.0
H497 H 0.55776 0.88575 0.1009 0.0
C498 C 0.53375 0.84578 0.07854 0.0
C499 C 0.50521 0.82841 0.07601 0.0
C500 C 0.48242 0.92512 0.14902 0.0
C501 C 0.50785 0.88364 0.1139 0.0
C502 C 0.4838 0.94465 0.17642 0.0
C503 C 0.51207 0.94728 0.19387 0.0
C504 C 0.50965 0.90883 0.13892 0.0
C505 C 0.53911 0.93192 0.18205 0.0
C506 C 0.53523 0.87332 0.09778 0.0
C507 C 0.47806 0.84046 0.09111 0.0
N508 N 0.53721 0.91318 0.1554 0.0
N509 N 0.48007 0.86724 0.1096 0.0
H510 H 0.13128 0.54958 0.05062 0.0
H511 H 0.11919 0.48655 0.22587 0.0
H512 H 0.21035 0.50952 0.09961 0.0
H513 H 0.03657 0.49783 0.16745 0.0
H514 H 0.15312 0.49545 0.17982 0.0
H515 H 0.0961 0.5332 0.09371 0.0
C516 C 0.14129 0.53761 0.07051 0.0
C517 C 0.17386 0.53109 0.07157 0.0
C518 C 0.12758 0.49538 0.1768 0.0
C519 C 0.13377 0.51206 0.12064 0.0
C520 C 0.10829 0.49 0.20299 0.0
C521 C 0.07525 0.49085 0.20005 0.0
C522 C 0.11365 0.50261 0.14771 0.0
C523 C 0.06206 0.49638 0.17029 0.0
C524 C 0.12115 0.52797 0.0949 0.0
C525 C 0.18543 0.51511 0.09774 0.0
N526 N 0.08135 0.50248 0.14523 0.0
N527 N 0.16547 0.50631 0.12124 0.0
H528 H 0.82812 0.94542 0.45758 0.0
H529 H 0.92897 0.84219 0.57635 0.0
H530 H 0.81118 0.94397 0.55848 0.0
H531 H 0.92627 0.82422 0.47503 0.0
H532 H 0.89048 0.88445 0.57028 0.0
H533 H 0.86919 0.9055 0.46349 0.0
C534 C 0.83308 0.93678 0.48092 0.0
C535 C 0.81611 0.94786 0.50752 0.0
C536 C 0.89839 0.87123 0.5494 0.0
C537 C 0.86303 0.90259 0.51452 0.0
C538 C 0.92036 0.84719 0.55287 0.0
C539 C 0.93073 0.82963 0.5262 0.0
C540 C 0.887 0.8779 0.51903 0.0
C541 C 0.91885 0.8371 0.49628 0.0
C542 C 0.85643 0.914 0.48429 0.0
C543 C 0.82352 0.93592 0.53727 0.0
N544 N 0.89768 0.86069 0.4935 0.0
N545 N 0.84643 0.914 0.53997 0.0
H546 H 0.95562 0.17455 0.46208 0.0
H547 H 0.80032 0.12101 0.55121 0.0
H548 H 0.92986 0.21091 0.55529 0.0
H549 H 0.84561 0.05812 0.48346 0.0
H550 H 0.84805 0.1547 0.5523 0.0
H551 H 0.91572 0.1318 0.46764 0.0
C552 C 0.94183 0.1734 0.48371 0.0
C553 C 0.94577 0.1965 0.50805 0.0
C554 C 0.84791 0.1332 0.53766 0.0
C555 C 0.90045 0.14817 0.51451 0.0
C556 C 0.82077 0.11398 0.53722 0.0
C557 C 0.81951 0.08674 0.51763 0.0
C558 C 0.87349 0.12562 0.51751 0.0
C559 C 0.84617 0.07881 0.49927 0.0
C560 C 0.91925 0.149 0.48695 0.0
C561 C 0.92747 0.19384 0.53572 0.0
N562 N 0.87203 0.09852 0.4992 0.0
N563 N 0.90544 0.1704 0.53802 0.0
H564 H 0.08163 0.81774 0.53807 0.0
H565 H 0.16441 0.98675 0.51482 0.0
H566 H 0.037 0.89125 0.48614 0.0
H567 H 0.21617 0.90103 0.52778 0.0
H568 H 0.11439 0.95597 0.51672 0.0
H569 H 0.128 0.85228 0.54658 0.0
C570 C 0.08142 0.84123 0.52865 0.0
C571 C 0.05545 0.85145 0.51103 0.0
C572 C 0.13674 0.94409 0.51956 0.0
C573 C 0.10851 0.8912 0.52102 0.0
C574 C 0.1652 0.96162 0.51877 0.0
C575 C 0.19439 0.94631 0.52099 0.0
C576 C 0.13764 0.91124 0.52319 0.0
C577 C 0.19415 0.91367 0.52574 0.0
C578 C 0.10796 0.8609 0.5335 0.0
C579 C 0.05662 0.88224 0.49953 0.0
N580 N 0.16625 0.89722 0.52663 0.0
N581 N 0.08278 0.90105 0.50468 0.0
H582 H 0.06666 0.17441 0.58645 0.0
H583 H 0.18617 0.08929 0.46589 0.0
H584 H 0.07852 0.20374 0.49001 0.0
H585 H 0.19817 0.08914 0.56751 0.0
H586 H 0.14299 0.12719 0.47315 0.0
H587 H 0.11146 0.13881 0.57902 0.0
C588 C 0.07873 0.17346 0.56376 0.0
C589 C 0.06884 0.19217 0.53885 0.0
C590 C 0.15522 0.11891 0.4938 0.0
C591 C 0.11984 0.15114 0.53007 0.0
C592 C 0.17974 0.09724 0.48968 0.0
C593 C 0.19578 0.0861 0.51612 0.0
C594 C 0.14638 0.12902 0.5246 0.0
C595 C 0.18653 0.09719 0.54643 0.0
C596 C 0.10434 0.15319 0.55956 0.0
C597 C 0.08545 0.18993 0.50995 0.0
N598 N 0.16232 0.11784 0.54985 0.0
N599 N 0.10995 0.16959 0.50626 0.0
loop_
_geom_bond_atom_site_label_1
_geom_bond_atom_site_label_2
_geom_bond_distance
_geom_bond_site_symmetry_2
_ccdc_geom_bond_type
Co0 O1 2.216 1_455 S
Co0 O2 2.091 . S
Co0 O4 2.004 . S
Co0 O10 2.021 . S
Co0 O12 2.137 1_455 S
Co0 O13 2.244 1_455 S
O1 Co0 2.216 1_655 S
O1 C8 1.247 . S
O2 Co0 2.091 . S
O2 C8 1.261 1_455 S
C3 O12 1.247 . S
C3 O13 1.272 . S
O4 Co0 2.004 . S
O4 C9 1.259 . S
Co5 O6 2.061 1_655 S
Co5 O11 2.052 . S
Co5 O13 2.135 . S
O6 Co5 2.061 1_455 S
O6 C9 1.235 . S
C7 O10 1.238 . S
C7 O11 1.241 1_455 S
C8 O1 1.247 . S
C8 O2 1.261 1_655 S
C9 O4 1.259 . S
C9 O6 1.235 . S
O10 Co0 2.021 . S
O10 C7 1.238 . S
O11 Co5 2.052 . S
O11 C7 1.241 1_655 S
O12 Co0 2.137 1_655 S
O12 C3 1.247 . S
O13 Co0 2.244 1_655 S
O13 C3 1.272 . S
O13 Co5 2.135 . S
Co14 O15 2.209 1_545 S
Co14 O16 2.074 1_545 S
Co14 O18 2.006 . S
Co14 O24 2.035 . S
Co14 O26 2.128 1_545 S
Co14 O27 2.256 . S
O15 Co14 2.209 1_565 S
O15 C22 1.247 . S
O16 Co14 2.074 1_565 S
O16 C22 1.261 . S
C17 O26 1.247 1_545 S
C17 O27 1.272 . S
O18 Co14 2.006 . S
O18 C23 1.259 . S
Co19 O20 2.061 . S
Co19 O25 2.052 . S
Co19 O27 2.135 . S
O20 Co19 2.061 . S
O20 C23 1.235 . S
C21 O24 1.238 . S
C21 O25 1.241 . S
C22 O15 1.247 . S
C22 O16 1.261 . S
C23 O18 1.259 . S
C23 O20 1.235 . S
O24 Co14 2.035 . S
O24 C21 1.238 . S
O25 Co19 2.052 . S
O25 C21 1.241 . S
O26 Co14 2.128 1_565 S
O26 C17 1.247 1_565 S
O27 Co14 2.256 . S
O27 C17 1.272 . S
O27 Co19 2.135 . S
Co28 O29 2.216 1_455 S
Co28 O30 2.091 . S
Co28 O32 2.004 . S
Co28 O38 2.021 . S
Co28 O40 2.137 1_455 S
Co28 O41 2.244 1_455 S
O29 Co28 2.216 1_655 S
O29 C36 1.247 1_655 S
O30 Co28 2.091 . S
O30 C36 1.261 . S
C31 O40 1.247 . S
C31 O41 1.272 . S
O32 Co28 2.004 . S
O32 C37 1.259 . S
Co33 O34 2.056 1_655 S
Co33 O39 2.051 1_655 S
Co33 O41 2.137 . S
O34 Co33 2.056 1_455 S
O34 C37 1.235 . S
C35 O38 1.238 . S
C35 O39 1.241 . S
C36 O29 1.247 1_455 S
C36 O30 1.261 . S
C37 O32 1.259 . S
C37 O34 1.235 . S
O38 Co28 2.021 . S
O38 C35 1.238 . S
O39 Co33 2.051 1_455 S
O39 C35 1.241 . S
O40 Co28 2.137 1_655 S
O40 C31 1.247 . S
O41 Co28 2.244 1_655 S
O41 C31 1.272 . S
O41 Co33 2.137 . S
Co42 O43 2.216 . S
Co42 O44 2.091 . S
Co42 O46 2.004 . S
Co42 O52 2.021 1_545 S
Co42 O54 2.137 . S
Co42 O55 2.244 . S
O43 Co42 2.216 . S
O43 C50 1.247 . S
O44 Co42 2.091 . S
O44 C50 1.261 . S
C45 O54 1.247 . S
C45 O55 1.272 . S
O46 Co42 2.004 . S
O46 C51 1.259 . S
Co47 O48 2.061 . S
Co47 O53 2.052 . S
Co47 O55 2.135 1_565 S
O48 Co47 2.061 . S
O48 C51 1.235 1_565 S
C49 O52 1.238 . S
C49 O53 1.241 . S
C50 O43 1.247 . S
C50 O44 1.261 . S
C51 O46 1.259 . S
C51 O48 1.235 1_545 S
O52 Co42 2.021 1_565 S
O52 C49 1.238 . S
O53 Co47 2.052 . S
O53 C49 1.241 . S
O54 Co42 2.137 . S
O54 C45 1.247 . S
O55 Co42 2.244 . S
O55 C45 1.272 . S
O55 Co47 2.135 1_545 S
Co56 O57 2.216 . S
Co56 O58 2.091 . S
Co56 O60 2.004 . S
Co56 O66 2.021 1_545 S
Co56 O68 2.137 . S
Co56 O69 2.244 1_545 S
O57 Co56 2.216 . S
O57 C64 1.247 . S
O58 Co56 2.091 . S
O58 C64 1.261 . S
C59 O68 1.247 . S
C59 O69 1.272 1_545 S
O60 Co56 2.004 . S
O60 C65 1.254 1_545 S
Co61 O62 2.061 . S
Co61 O67 2.052 . S
Co61 O69 2.135 . S
O62 Co61 2.061 . S
O62 C65 1.240 . S
C63 O66 1.238 . S
C63 O67 1.241 . S
C64 O57 1.247 . S
C64 O58 1.261 . S
C65 O60 1.254 1_565 S
C65 O62 1.240 . S
O66 Co56 2.021 1_565 S
O66 C63 1.238 . S
O67 Co61 2.052 . S
O67 C63 1.241 . S
O68 Co56 2.137 . S
O68 C59 1.247 . S
O69 Co56 2.244 1_565 S
O69 C59 1.272 1_565 S
O69 Co61 2.135 . S
Co70 O71 2.216 . S
Co70 O72 2.091 1_455 S
Co70 O74 2.004 1_455 S
Co70 O80 2.021 1_455 S
Co70 O82 2.137 . S
Co70 O83 2.244 . S
O71 Co70 2.216 . S
O71 C78 1.247 . S
O72 Co70 2.091 1_655 S
O72 C78 1.261 1_655 S
C73 O82 1.247 . S
C73 O83 1.272 . S
O74 Co70 2.004 1_655 S
O74 C79 1.259 . S
Co75 O76 2.061 1_455 S
Co75 O81 2.052 . S
Co75 O83 2.135 . S
O76 Co75 2.061 1_655 S
O76 C79 1.235 . S
C77 O80 1.238 1_455 S
C77 O81 1.241 . S
C78 O71 1.247 . S
C78 O72 1.261 1_455 S
C79 O74 1.259 . S
C79 O76 1.235 . S
O80 Co70 2.021 1_655 S
O80 C77 1.238 1_655 S
O81 Co75 2.052 . S
O81 C77 1.241 . S
O82 Co70 2.137 . S
O82 C73 1.247 . S
O83 Co70 2.244 . S
O83 C73 1.272 . S
O83 Co75 2.135 . S
Co84 O85 2.216 1_545 S
Co84 O86 2.091 1_545 S
Co84 O88 2.004 . S
Co84 O94 2.021 . S
Co84 O96 2.137 1_545 S
Co84 O97 2.244 . S
O85 Co84 2.216 1_565 S
O85 C92 1.247 . S
O86 Co84 2.091 1_565 S
O86 C92 1.261 . S
C87 O96 1.247 1_545 S
C87 O97 1.272 . S
O88 Co84 2.004 . S
O88 C93 1.259 . S
Co89 O90 2.061 . S
Co89 O95 2.052 . S
Co89 O97 2.135 . S
O90 Co89 2.061 . S
O90 C93 1.235 . S
C91 O94 1.238 . S
C91 O95 1.241 . S
C92 O85 1.247 . S
C92 O86 1.261 . S
C93 O88 1.259 . S
C93 O90 1.235 . S
O94 Co84 2.021 . S
O94 C91 1.238 . S
O95 Co89 2.052 . S
O95 C91 1.241 . S
O96 Co84 2.137 1_565 S
O96 C87 1.247 1_565 S
O97 Co84 2.244 . S
O97 C87 1.272 . S
O97 Co89 2.135 . S
Co98 O99 2.216 . S
Co98 O100 2.091 1_455 S
Co98 O102 2.004 1_455 S
Co98 O108 2.021 1_455 S
Co98 O110 2.137 . S
Co98 O111 2.244 . S
O99 Co98 2.216 . S
O99 C106 1.247 . S
O100 Co98 2.091 1_655 S
O100 C106 1.261 1_655 S
C101 O110 1.247 . S
C101 O111 1.272 . S
O102 Co98 2.004 1_655 S
O102 C107 1.259 . S
Co103 O104 2.061 1_455 S
Co103 O109 2.052 . S
Co103 O111 2.135 . S
O104 Co103 2.061 1_655 S
O104 C107 1.235 . S
C105 O108 1.238 . S
C105 O109 1.240 1_655 S
C106 O99 1.247 . S
C106 O100 1.261 1_455 S
C107 O102 1.259 . S
C107 O104 1.235 . S
O108 Co98 2.021 1_655 S
O108 C105 1.238 . S
O109 Co103 2.052 . S
O109 C105 1.240 1_455 S
O110 Co98 2.137 . S
O110 C101 1.247 . S
O111 Co98 2.244 . S
O111 C101 1.272 . S
O111 Co103 2.135 . S
Co112 O113 2.216 1_554 S
Co112 O114 2.091 . S
Co112 O116 2.004 . S
Co112 O122 2.021 . S
Co112 O124 2.137 1_554 S
Co112 O125 2.244 1_554 S
O113 Co112 2.216 1_556 S
O113 C120 1.247 1_556 S
O114 Co112 2.091 . S
O114 C120 1.261 . S
C115 O124 1.247 . S
C115 O125 1.272 . S
O116 Co112 2.004 . S
O116 C121 1.259 . S
Co117 O118 2.061 . S
Co117 O123 2.052 . S
Co117 O125 2.135 1_554 S
O118 Co117 2.061 . S
O118 C121 1.235 . S
C119 O122 1.238 . S
C119 O123 1.241 . S
C120 O113 1.247 1_554 S
C120 O114 1.261 . S
C121 O116 1.259 . S
C121 O118 1.235 . S
O122 Co112 2.021 . S
O122 C119 1.238 . S
O123 Co117 2.052 . S
O123 C119 1.241 . S
O124 Co112 2.137 1_556 S
O124 C115 1.247 . S
O125 Co112 2.244 1_556 S
O125 C115 1.272 . S
O125 Co117 2.135 1_556 S
Co126 O127 2.216 . S
Co126 O128 2.091 . S
Co126 O130 2.004 . S
Co126 O136 2.021 1_554 S
Co126 O138 2.137 . S
Co126 O139 2.244 1_554 S
O127 Co126 2.216 . S
O127 C134 1.247 . S
O128 Co126 2.091 . S
O128 C134 1.261 . S
C129 O138 1.247 . S
C129 O139 1.272 1_554 S
O130 Co126 2.004 . S
O130 C135 1.259 1_554 S
Co131 O132 2.061 . S
Co131 O137 2.052 . S
Co131 O139 2.135 . S
O132 Co131 2.061 . S
O132 C135 1.235 . S
C133 O136 1.238 . S
C133 O137 1.241 . S
C134 O127 1.247 . S
C134 O128 1.261 . S
C135 O130 1.259 1_556 S
C135 O132 1.235 . S
O136 Co126 2.021 1_556 S
O136 C133 1.238 . S
O137 Co131 2.052 . S
O137 C133 1.241 . S
O138 Co126 2.137 . S
O138 C129 1.247 . S
O139 Co126 2.244 1_556 S
O139 C129 1.272 1_556 S
O139 Co131 2.135 . S
Co140 O141 2.216 1_554 S
Co140 O142 2.091 . S
Co140 O144 2.004 . S
Co140 O150 2.021 . S
Co140 O152 2.137 1_554 S
Co140 O153 2.244 1_554 S
O141 Co140 2.216 1_556 S
O141 C148 1.247 1_556 S
O142 Co140 2.091 . S
O142 C148 1.261 . S
C143 O152 1.247 . S
C143 O153 1.272 . S
O144 Co140 2.004 . S
O144 C149 1.259 . S
Co145 O146 2.052 1_556 S
Co145 O151 2.051 1_556 S
Co145 O153 2.139 . S
O146 Co145 2.052 1_554 S
O146 C149 1.235 . S
C147 O150 1.238 . S
C147 O151 1.241 . S
C148 O141 1.247 1_554 S
C148 O142 1.261 . S
C149 O144 1.259 . S
C149 O146 1.235 . S
O150 Co140 2.021 . S
O150 C147 1.238 . S
O151 Co145 2.051 1_554 S
O151 C147 1.241 . S
O152 Co140 2.137 1_556 S
O152 C143 1.247 . S
O153 Co140 2.244 1_556 S
O153 C143 1.272 . S
O153 Co145 2.139 . S
Co154 O155 2.216 1_554 S
Co154 O156 2.091 1_554 S
Co154 O158 2.004 . S
Co154 O164 2.021 . S
Co154 O166 2.137 1_554 S
Co154 O167 2.244 . S
O155 Co154 2.216 1_556 S
O155 C162 1.247 . S
O156 Co154 2.091 1_556 S
O156 C162 1.261 . S
C157 O166 1.247 1_554 S
C157 O167 1.272 . S
O158 Co154 2.004 . S
O158 C163 1.259 . S
Co159 O160 2.061 . S
Co159 O165 2.052 . S
Co159 O167 2.135 . S
O160 Co159 2.061 . S
O160 C163 1.235 . S
C161 O164 1.238 . S
C161 O165 1.241 . S
C162 O155 1.247 . S
C162 O156 1.261 . S
C163 O158 1.259 . S
C163 O160 1.235 . S
O164 Co154 2.021 . S
O164 C161 1.238 . S
O165 Co159 2.052 . S
O165 C161 1.241 . S
O166 Co154 2.137 1_556 S
O166 C157 1.247 1_556 S
O167 Co154 2.244 . S
O167 C157 1.272 . S
O167 Co159 2.135 . S
H168 C174 0.930 . S
H169 C178 0.930 . S
H170 C183 0.929 . S
H171 C181 0.929 . S
H172 C176 0.929 . S
H173 C182 0.929 . S
C174 H168 0.930 . S
C174 C175 1.367 . S
C174 C182 1.378 . S
C175 C174 1.367 . S
C175 C183 1.433 1_655 S
C176 H172 0.929 . S
C176 C178 1.378 . S
C176 C180 1.350 . S
C177 C180 1.463 . S
C177 C182 1.350 1_455 S
C177 N185 1.427 . S
C178 H169 0.930 . S
C178 C176 1.378 . S
C178 C179 1.367 . S
C179 C178 1.367 . S
C179 C181 1.433 1_455 S
C180 C176 1.350 . S
C180 C177 1.463 . S
C180 N184 1.427 1_455 S
C181 H171 0.929 . S
C181 C179 1.433 1_655 S
C181 N184 1.384 . S
C182 H173 0.929 . S
C182 C174 1.378 . S
C182 C177 1.350 1_655 S
C183 H170 0.929 . S
C183 C175 1.433 1_455 S
C183 N185 1.384 . S
N184 C180 1.427 1_655 S
N184 C181 1.384 . S
N185 C177 1.427 . S
N185 C183 1.384 . S
H186 C192 0.930 . S
H187 C196 0.943 . S
H188 C201 0.929 . S
H189 C199 0.929 . S
H190 C194 0.929 . S
H191 C200 0.929 . S
C192 H186 0.930 . S
C192 C193 1.367 . S
C192 C200 1.378 . S
C193 C192 1.367 . S
C193 C201 1.433 1_545 S
C194 H190 0.929 . S
C194 C196 1.382 . S
C194 C198 1.350 1_565 S
C195 C198 1.463 . S
C195 C200 1.350 . S
C195 N203 1.427 1_545 S
C196 H187 0.943 . S
C196 C194 1.382 . S
C196 C197 1.350 1_565 S
C197 C196 1.350 1_545 S
C197 C199 1.433 . S
C198 C194 1.350 1_545 S
C198 C195 1.463 . S
C198 N202 1.427 . S
C199 H189 0.929 . S
C199 C197 1.433 . S
C199 N202 1.384 . S
C200 H191 0.929 . S
C200 C192 1.378 . S
C200 C195 1.350 . S
C201 H188 0.929 . S
C201 C193 1.433 1_565 S
C201 N203 1.384 . S
N202 C198 1.427 . S
N202 C199 1.384 . S
N203 C195 1.427 1_565 S
N203 C201 1.384 . S
H204 C210 0.930 . S
H205 C214 0.930 . S
H206 C219 0.929 1_655 S
H207 C217 0.929 . S
H208 C212 0.929 . S
H209 C218 0.929 . S
C210 H204 0.930 . S
C210 C211 1.367 . S
C210 C218 1.378 . S
C211 C210 1.367 . S
C211 C219 1.433 . S
C212 H208 0.929 . S
C212 C214 1.378 . S
C212 C216 1.350 . S
C213 C216 1.463 . S
C213 C218 1.350 . S
C213 N221 1.427 . S
C214 H205 0.930 . S
C214 C212 1.378 . S
C214 C215 1.367 . S
C215 C214 1.367 . S
C215 C217 1.433 . S
C216 C212 1.350 . S
C216 C213 1.463 . S
C216 N220 1.427 . S
C217 H207 0.929 . S
C217 C215 1.433 . S
C217 N220 1.384 . S
C218 H209 0.929 . S
C218 C210 1.378 . S
C218 C213 1.350 . S
C219 H206 0.929 1_455 S
C219 C211 1.433 . S
C219 N221 1.384 . S
N220 C216 1.427 . S
N220 C217 1.384 . S
N221 C213 1.427 . S
N221 C219 1.384 . S
H222 C228 0.930 . S
H223 C232 0.930 . S
H224 C237 0.929 . S
H225 C235 0.929 . S
H226 C230 0.929 . S
H227 C236 0.929 . S
C228 H222 0.930 . S
C228 C229 1.367 . S
C228 C236 1.378 . S
C229 C228 1.367 . S
C229 C237 1.433 . S
C230 H226 0.929 . S
C230 C232 1.378 . S
C230 C234 1.350 . S
C231 C234 1.463 . S
C231 C236 1.350 . S
C231 N239 1.427 . S
C232 H223 0.930 . S
C232 C230 1.378 . S
C232 C233 1.367 . S
C233 C232 1.367 . S
C233 C235 1.433 1_545 S
C234 C230 1.350 . S
C234 C231 1.463 . S
C234 N238 1.427 . S
C235 H225 0.929 . S
C235 C233 1.433 1_565 S
C235 N238 1.384 1_565 S
C236 H227 0.929 . S
C236 C228 1.378 . S
C236 C231 1.350 . S
C237 H224 0.929 . S
C237 C229 1.433 . S
C237 N239 1.384 . S
N238 C234 1.427 . S
N238 C235 1.384 1_545 S
N239 C231 1.427 . S
N239 C237 1.384 . S
H240 C246 0.930 . S
H241 C250 0.930 . S
H242 C255 0.929 . S
H243 C253 0.929 . S
H244 C248 0.929 . S
H245 C254 0.929 . S
C246 H240 0.930 . S
C246 C247 1.367 . S
C246 C254 1.378 . S
C247 C246 1.367 . S
C247 C255 1.433 . S
C248 H244 0.929 . S
C248 C250 1.378 . S
C248 C252 1.350 . S
C249 C252 1.463 . S
C249 C254 1.350 . S
C249 N257 1.427 . S
C250 H241 0.930 . S
C250 C248 1.378 . S
C250 C251 1.367 . S
C251 C250 1.367 . S
C251 C253 1.433 1_455 S
C252 C248 1.350 . S
C252 C249 1.463 . S
C252 N256 1.427 . S
C253 H243 0.929 . S
C253 C251 1.433 1_655 S
C253 N256 1.384 1_655 S
C254 H245 0.929 . S
C254 C246 1.378 . S
C254 C249 1.350 . S
C255 H242 0.929 . S
C255 C247 1.433 . S
C255 N257 1.384 . S
N256 C252 1.427 . S
N256 C253 1.384 1_455 S
N257 C249 1.427 . S
N257 C255 1.384 . S
H258 C264 0.914 1_565 S
H259 C268 0.930 . S
H260 C273 0.929 . S
H261 C271 0.929 . S
H262 C266 0.929 . S
H263 C272 0.929 . S
C264 H258 0.914 1_545 S
C264 C265 1.386 . S
C264 C272 1.376 1_545 S
C265 C264 1.386 . S
C265 C273 1.433 . S
C266 H262 0.929 . S
C266 C268 1.378 . S
C266 C270 1.350 . S
C267 C270 1.463 . S
C267 C272 1.350 1_545 S
C267 N275 1.427 . S
C268 H259 0.930 . S
C268 C266 1.378 . S
C268 C269 1.367 . S
C269 C268 1.367 . S
C269 C271 1.433 1_545 S
C270 C266 1.350 . S
C270 C267 1.463 . S
C270 N274 1.427 1_545 S
C271 H261 0.929 . S
C271 C269 1.433 1_565 S
C271 N274 1.384 . S
C272 H263 0.929 . S
C272 C264 1.376 1_565 S
C272 C267 1.350 1_565 S
C273 H260 0.929 . S
C273 C265 1.433 . S
C273 N275 1.384 . S
N274 C270 1.427 1_565 S
N274 C271 1.384 . S
N275 C267 1.427 . S
N275 C273 1.384 . S
H276 C282 0.930 . S
H277 C286 0.930 . S
H278 C291 0.929 . S
H279 C289 0.929 . S
H280 C284 0.929 . S
H281 C290 0.929 . S
C282 H276 0.930 . S
C282 C283 1.367 1_655 S
C282 C290 1.378 . S
C283 C282 1.367 1_455 S
C283 C291 1.433 . S
C284 H280 0.929 . S
C284 C286 1.378 . S
C284 C288 1.350 . S
C285 C288 1.463 . S
C285 C290 1.350 1_455 S
C285 N293 1.427 . S
C286 H277 0.930 . S
C286 C284 1.378 . S
C286 C287 1.367 1_455 S
C287 C286 1.367 1_655 S
C287 C289 1.433 . S
C288 C284 1.350 . S
C288 C285 1.463 . S
C288 N292 1.427 1_455 S
C289 H279 0.929 . S
C289 C287 1.433 . S
C289 N292 1.384 . S
C290 H281 0.929 . S
C290 C282 1.378 . S
C290 C285 1.350 1_655 S
C291 H278 0.929 . S
C291 C283 1.433 . S
C291 N293 1.384 . S
N292 C288 1.427 1_655 S
N292 C289 1.384 . S
N293 C285 1.427 . S
N293 C291 1.384 . S
H294 C300 0.930 . S
H295 C304 0.930 . S
H296 C309 0.929 . S
H297 C307 0.929 1_565 S
H298 C302 0.929 . S
H299 C308 0.929 . S
C300 H294 0.930 . S
C300 C301 1.367 1_565 S
C300 C308 1.378 . S
C301 C300 1.367 1_545 S
C301 C309 1.433 . S
C302 H298 0.929 . S
C302 C304 1.378 . S
C302 C306 1.350 . S
C303 C306 1.463 . S
C303 C308 1.350 1_545 S
C303 N311 1.427 . S
C304 H295 0.930 . S
C304 C302 1.378 . S
C304 C305 1.367 . S
C305 C304 1.367 . S
C305 C307 1.433 . S
C306 C302 1.350 . S
C306 C303 1.463 . S
C306 N310 1.427 . S
C307 H297 0.929 1_545 S
C307 C305 1.433 . S
C307 N310 1.384 . S
C308 H299 0.929 . S
C308 C300 1.378 . S
C308 C303 1.350 1_565 S
C309 H296 0.929 . S
C309 C301 1.433 . S
C309 N311 1.384 . S
N310 C306 1.427 . S
N310 C307 1.384 . S
N311 C303 1.427 . S
N311 C309 1.384 . S
H312 C318 0.930 . S
H313 C322 0.930 . S
H314 C327 0.929 . S
H315 C325 0.929 . S
H316 C320 0.929 . S
H317 C326 0.929 . S
C318 H312 0.930 . S
C318 C319 1.367 1_556 S
C318 C326 1.378 . S
C319 C318 1.367 1_554 S
C319 C327 1.433 . S
C320 H316 0.929 . S
C320 C322 1.378 . S
C320 C324 1.350 . S
C321 C324 1.463 . S
C321 C326 1.350 1_554 S
C321 N329 1.427 . S
C322 H313 0.930 . S
C322 C320 1.378 . S
C322 C323 1.367 . S
C323 C322 1.367 . S
C323 C325 1.433 1_554 S
C324 C320 1.350 . S
C324 C321 1.463 . S
C324 N328 1.427 1_554 S
C325 H315 0.929 . S
C325 C323 1.433 1_556 S
C325 N328 1.384 . S
C326 H317 0.929 . S
C326 C318 1.378 . S
C326 C321 1.350 1_556 S
C327 H314 0.929 . S
C327 C319 1.433 . S
C327 N329 1.384 . S
N328 C324 1.427 1_556 S
N328 C325 1.384 . S
N329 C321 1.427 . S
N329 C327 1.384 . S
H330 C336 0.930 . S
H331 C340 0.930 . S
H332 C345 0.929 . S
H333 C343 0.929 . S
H334 C338 0.929 . S
H335 C344 0.929 . S
C336 H330 0.930 . S
C336 C337 1.367 1_556 S
C336 C344 1.378 . S
C337 C336 1.367 1_554 S
C337 C345 1.433 . S
C338 H334 0.929 . S
C338 C340 1.378 . S
C338 C342 1.350 . S
C339 C342 1.463 . S
C339 C344 1.350 1_554 S
C339 N347 1.427 . S
C340 H331 0.930 . S
C340 C338 1.378 . S
C340 C341 1.367 . S
C341 C340 1.367 . S
C341 C343 1.433 1_554 S
C342 C338 1.350 . S
C342 C339 1.463 . S
C342 N346 1.427 1_554 S
C343 H333 0.929 . S
C343 C341 1.433 1_556 S
C343 N346 1.384 . S
C344 H335 0.929 . S
C344 C336 1.378 . S
C344 C339 1.350 1_556 S
C345 H332 0.929 . S
C345 C337 1.433 . S
C345 N347 1.384 . S
N346 C342 1.427 1_556 S
N346 C343 1.384 . S
N347 C339 1.427 . S
N347 C345 1.384 . S
H348 C354 0.930 . S
H349 C358 0.930 . S
H350 C363 0.929 . S
H351 C361 0.929 . S
H352 C356 0.929 . S
H353 C362 0.929 . S
C354 H348 0.930 . S
C354 C355 1.367 . S
C354 C362 1.378 . S
C355 C354 1.367 . S
C355 C363 1.433 1_554 S
C356 H352 0.929 . S
C356 C358 1.378 . S
C356 C360 1.350 1_556 S
C357 C360 1.463 . S
C357 C362 1.350 . S
C357 N365 1.427 1_554 S
C358 H349 0.930 . S
C358 C356 1.378 . S
C358 C359 1.367 1_556 S
C359 C358 1.367 1_554 S
C359 C361 1.433 . S
C360 C356 1.350 1_554 S
C360 C357 1.463 . S
C360 N364 1.427 . S
C361 H351 0.929 . S
C361 C359 1.433 . S
C361 N364 1.384 . S
C362 H353 0.929 . S
C362 C354 1.378 . S
C362 C357 1.350 . S
C363 H350 0.929 . S
C363 C355 1.433 1_556 S
C363 N365 1.384 . S
N364 C360 1.427 . S
N364 C361 1.384 . S
N365 C357 1.427 1_556 S
N365 C363 1.384 . S
H366 C372 0.930 . S
H367 C376 0.930 . S
H368 C381 0.929 . S
H369 C379 0.929 . S
H370 C374 0.929 . S
H371 C380 0.929 . S
C372 H366 0.930 . S
C372 C373 1.367 . S
C372 C380 1.378 . S
C373 C372 1.367 . S
C373 C381 1.433 1_554 S
C374 H370 0.929 . S
C374 C376 1.378 . S
C374 C378 1.350 1_556 S
C375 C378 1.463 . S
C375 C380 1.350 . S
C375 N383 1.427 1_554 S
C376 H367 0.930 . S
C376 C374 1.378 . S
C376 C377 1.367 1_556 S
C377 C376 1.367 1_554 S
C377 C379 1.433 . S
C378 C374 1.350 1_554 S
C378 C375 1.463 . S
C378 N382 1.427 . S
C379 H369 0.929 . S
C379 C377 1.433 . S
C379 N382 1.384 . S
C380 H371 0.929 . S
C380 C372 1.378 . S
C380 C375 1.350 . S
C381 H368 0.929 . S
C381 C373 1.433 1_556 S
C381 N383 1.384 . S
N382 C378 1.427 . S
N382 C379 1.384 . S
N383 C375 1.427 1_556 S
N383 C381 1.384 . S
H384 C390 0.930 . S
H385 C394 0.930 . S
H386 C399 0.929 . S
H387 C397 0.929 . S
H388 C392 0.929 . S
H389 C398 0.929 . S
C390 H384 0.930 . S
C390 C391 1.367 . S
C390 C398 1.378 . S
C391 C390 1.367 . S
C391 C399 1.433 . S
C392 H388 0.929 . S
C392 C394 1.378 . S
C392 C396 1.350 . S
C393 C396 1.463 . S
C393 C398 1.350 . S
C393 N401 1.427 . S
C394 H385 0.930 . S
C394 C392 1.378 . S
C394 C395 1.367 . S
C395 C394 1.367 . S
C395 C397 1.433 . S
C396 C392 1.350 . S
C396 C393 1.463 . S
C396 N400 1.427 . S
C397 H387 0.929 . S
C397 C395 1.433 . S
C397 N400 1.384 . S
C398 H389 0.929 . S
C398 C390 1.378 . S
C398 C393 1.350 . S
C399 H386 0.929 . S
C399 C391 1.433 . S
C399 N401 1.384 . S
N400 C396 1.427 . S
N400 C397 1.384 . S
N401 C393 1.427 . S
N401 C399 1.384 . S
H402 C408 0.930 . S
H403 C412 0.930 . S
H404 C417 0.929 . S
H405 C415 0.929 . S
H406 C410 0.929 . S
H407 C416 0.929 . S
C408 H402 0.930 . S
C408 C409 1.367 . S
C408 C416 1.378 . S
C409 C408 1.367 . S
C409 C417 1.433 . S
C410 H406 0.929 . S
C410 C412 1.378 . S
C410 C414 1.350 . S
C411 C414 1.463 . S
C411 C416 1.350 . S
C411 N419 1.427 . S
C412 H403 0.930 . S
C412 C410 1.378 . S
C412 C413 1.367 . S
C413 C412 1.367 . S
C413 C415 1.433 . S
C414 C410 1.350 . S
C414 C411 1.463 . S
C414 N418 1.427 . S
C415 H405 0.929 . S
C415 C413 1.433 . S
C415 N418 1.384 . S
C416 H407 0.929 . S
C416 C408 1.378 . S
C416 C411 1.350 . S
C417 H404 0.929 . S
C417 C409 1.433 . S
C417 N419 1.384 . S
N418 C414 1.427 . S
N418 C415 1.384 . S
N419 C411 1.427 . S
N419 C417 1.384 . S
H420 C426 0.930 . S
H421 C430 0.930 . S
H422 C435 0.929 . S
H423 C433 0.929 . S
H424 C428 0.929 . S
H425 C434 0.929 . S
C426 H420 0.930 . S
C426 C427 1.367 . S
C426 C434 1.378 . S
C427 C426 1.367 . S
C427 C435 1.433 . S
C428 H424 0.929 . S
C428 C430 1.378 . S
C428 C432 1.350 . S
C429 C432 1.463 . S
C429 C434 1.350 . S
C429 N437 1.427 . S
C430 H421 0.930 . S
C430 C428 1.378 . S
C430 C431 1.367 . S
C431 C430 1.367 . S
C431 C433 1.433 . S
C432 C428 1.350 . S
C432 C429 1.463 . S
C432 N436 1.427 . S
C433 H423 0.929 . S
C433 C431 1.433 . S
C433 N436 1.384 . S
C434 H425 0.929 . S
C434 C426 1.378 . S
C434 C429 1.350 . S
C435 H422 0.929 . S
C435 C427 1.433 . S
C435 N437 1.384 . S
N436 C432 1.427 . S
N436 C433 1.384 . S
N437 C429 1.427 . S
N437 C435 1.384 . S
H438 C444 0.930 . S
H439 C448 0.930 . S
H440 C453 0.929 . S
H441 C451 0.929 . S
H442 C446 0.929 . S
H443 C452 0.929 . S
C444 H438 0.930 . S
C444 C445 1.367 . S
C444 C452 1.378 . S
C445 C444 1.367 . S
C445 C453 1.433 . S
C446 H442 0.929 . S
C446 C448 1.378 . S
C446 C450 1.350 . S
C447 C450 1.463 . S
C447 C452 1.350 . S
C447 N455 1.427 . S
C448 H439 0.930 . S
C448 C446 1.378 . S
C448 C449 1.367 . S
C449 C448 1.367 . S
C449 C451 1.433 . S
C450 C446 1.350 . S
C450 C447 1.463 . S
C450 N454 1.427 . S
C451 H441 0.929 . S
C451 C449 1.433 . S
C451 N454 1.384 . S
C452 H443 0.929 . S
C452 C444 1.378 . S
C452 C447 1.350 . S
C453 H440 0.929 . S
C453 C445 1.433 . S
C453 N455 1.384 . S
N454 C450 1.427 . S
N454 C451 1.384 . S
N455 C447 1.427 . S
N455 C453 1.384 . S
H456 C462 0.930 . S
H457 C466 0.930 . S
H458 C471 0.929 . S
H459 C469 0.929 . S
H460 C464 0.929 . S
H461 C470 0.929 . S
C462 H456 0.930 . S
C462 C463 1.367 . S
C462 C470 1.378 . S
C463 C462 1.367 . S
C463 C471 1.433 . S
C464 H460 0.929 . S
C464 C466 1.378 . S
C464 C468 1.350 . S
C465 C468 1.463 . S
C465 C470 1.350 . S
C465 N473 1.427 . S
C466 H457 0.930 . S
C466 C464 1.378 . S
C466 C467 1.367 . S
C467 C466 1.367 . S
C467 C469 1.433 . S
C468 C464 1.350 . S
C468 C465 1.463 . S
C468 N472 1.427 . S
C469 H459 0.929 . S
C469 C467 1.433 . S
C469 N472 1.384 . S
C470 H461 0.929 . S
C470 C462 1.378 . S
C470 C465 1.350 . S
C471 H458 0.929 . S
C471 C463 1.433 . S
C471 N473 1.384 . S
N472 C468 1.427 . S
N472 C469 1.384 . S
N473 C465 1.427 . S
N473 C471 1.384 . S
H474 C480 0.930 . S
H475 C484 0.930 . S
H476 C489 0.929 . S
H477 C487 0.929 . S
H478 C482 0.929 . S
H479 C488 0.929 . S
C480 H474 0.930 . S
C480 C481 1.367 . S
C480 C488 1.378 . S
C481 C480 1.367 . S
C481 C489 1.433 . S
C482 H478 0.929 . S
C482 C484 1.378 . S
C482 C486 1.350 . S
C483 C486 1.463 . S
C483 C488 1.350 . S
C483 N491 1.427 . S
C484 H475 0.930 . S
C484 C482 1.378 . S
C484 C485 1.367 . S
C485 C484 1.367 . S
C485 C487 1.433 . S
C486 C482 1.350 . S
C486 C483 1.463 . S
C486 N490 1.427 . S
C487 H477 0.929 . S
C487 C485 1.433 . S
C487 N490 1.384 . S
C488 H479 0.929 . S
C488 C480 1.378 . S
C488 C483 1.350 . S
C489 H476 0.929 . S
C489 C481 1.433 . S
C489 N491 1.384 . S
N490 C486 1.427 . S
N490 C487 1.384 . S
N491 C483 1.427 . S
N491 C489 1.384 . S
H492 C498 0.930 . S
H493 C502 0.930 . S
H494 C507 0.929 . S
H495 C505 0.929 . S
H496 C500 0.929 . S
H497 C506 0.929 . S
C498 H492 0.930 . S
C498 C499 1.367 . S
C498 C506 1.378 . S
C499 C498 1.367 . S
C499 C507 1.433 . S
C500 H496 0.929 . S
C500 C502 1.378 . S
C500 C504 1.350 . S
C501 C504 1.463 . S
C501 C506 1.350 . S
C501 N509 1.427 . S
C502 H493 0.930 . S
C502 C500 1.378 . S
C502 C503 1.367 . S
C503 C502 1.367 . S
C503 C505 1.433 . S
C504 C500 1.350 . S
C504 C501 1.463 . S
C504 N508 1.427 . S
C505 H495 0.929 . S
C505 C503 1.433 . S
C505 N508 1.384 . S
C506 H497 0.929 . S
C506 C498 1.378 . S
C506 C501 1.350 . S
C507 H494 0.929 . S
C507 C499 1.433 . S
C507 N509 1.384 . S
N508 C504 1.427 . S
N508 C505 1.384 . S
N509 C501 1.427 . S
N509 C507 1.384 . S
H510 C516 0.930 . S
H511 C520 0.930 . S
H512 C525 0.929 . S
H513 C523 0.929 . S
H514 C518 0.929 . S
H515 C524 0.929 . S
C516 H510 0.930 . S
C516 C517 1.367 . S
C516 C524 1.378 . S
C517 C516 1.367 . S
C517 C525 1.433 . S
C518 H514 0.929 . S
C518 C520 1.378 . S
C518 C522 1.350 . S
C519 C522 1.463 . S
C519 C524 1.350 . S
C519 N527 1.427 . S
C520 H511 0.930 . S
C520 C518 1.378 . S
C520 C521 1.367 . S
C521 C520 1.367 . S
C521 C523 1.433 . S
C522 C518 1.350 . S
C522 C519 1.463 . S
C522 N526 1.427 . S
C523 H513 0.929 . S
C523 C521 1.433 . S
C523 N526 1.384 . S
C524 H515 0.929 . S
C524 C516 1.378 . S
C524 C519 1.350 . S
C525 H512 0.929 . S
C525 C517 1.433 . S
C525 N527 1.384 . S
N526 C522 1.427 . S
N526 C523 1.384 . S
N527 C519 1.427 . S
N527 C525 1.384 . S
H528 C534 0.930 . S
H529 C538 0.930 . S
H530 C543 0.929 . S
H531 C541 0.929 . S
H532 C536 0.929 . S
H533 C542 0.929 . S
C534 H528 0.930 . S
C534 C535 1.367 . S
C534 C542 1.378 . S
C535 C534 1.367 . S
C535 C543 1.433 . S
C536 H532 0.929 . S
C536 C538 1.378 . S
C536 C540 1.350 . S
C537 C540 1.463 . S
C537 C542 1.350 . S
C537 N545 1.427 . S
C538 H529 0.930 . S
C538 C536 1.378 . S
C538 C539 1.367 . S
C539 C538 1.367 . S
C539 C541 1.433 . S
C540 C536 1.350 . S
C540 C537 1.463 . S
C540 N544 1.427 . S
C541 H531 0.929 . S
C541 C539 1.433 . S
C541 N544 1.384 . S
C542 H533 0.929 . S
C542 C534 1.378 . S
C542 C537 1.350 . S
C543 H530 0.929 . S
C543 C535 1.433 . S
C543 N545 1.384 . S
N544 C540 1.427 . S
N544 C541 1.384 . S
N545 C537 1.427 . S
N545 C543 1.384 . S
H546 C552 0.930 . S
H547 C556 0.930 . S
H548 C561 0.929 . S
H549 C559 0.929 . S
H550 C554 0.929 . S
H551 C560 0.929 . S
C552 H546 0.930 . S
C552 C553 1.367 . S
C552 C560 1.378 . S
C553 C552 1.367 . S
C553 C561 1.433 . S
C554 H550 0.929 . S
C554 C556 1.378 . S
C554 C558 1.350 . S
C555 C558 1.463 . S
C555 C560 1.350 . S
C555 N563 1.427 . S
C556 H547 0.930 . S
C556 C554 1.378 . S
C556 C557 1.367 . S
C557 C556 1.367 . S
C557 C559 1.433 . S
C558 C554 1.350 . S
C558 C555 1.463 . S
C558 N562 1.427 . S
C559 H549 0.929 . S
C559 C557 1.433 . S
C559 N562 1.384 . S
C560 H551 0.929 . S
C560 C552 1.378 . S
C560 C555 1.350 . S
C561 H548 0.929 . S
C561 C553 1.433 . S
C561 N563 1.384 . S
N562 C558 1.427 . S
N562 C559 1.384 . S
N563 C555 1.427 . S
N563 C561 1.384 . S
H564 C570 0.930 . S
H565 C574 0.930 . S
H566 C579 0.929 . S
H567 C577 0.929 . S
H568 C572 0.929 . S
H569 C578 0.929 . S
C570 H564 0.930 . S
C570 C571 1.367 . S
C570 C578 1.378 . S
C571 C570 1.367 . S
C571 C579 1.433 . S
C572 H568 0.929 . S
C572 C574 1.378 . S
C572 C576 1.350 . S
C573 C576 1.463 . S
C573 C578 1.350 . S
C573 N581 1.427 . S
C574 H565 0.930 . S
C574 C572 1.378 . S
C574 C575 1.367 . S
C575 C574 1.367 . S
C575 C577 1.433 . S
C576 C572 1.350 . S
C576 C573 1.463 . S
C576 N580 1.427 . S
C577 H567 0.929 . S
C577 C575 1.433 . S
C577 N580 1.384 . S
C578 H569 0.929 . S
C578 C570 1.378 . S
C578 C573 1.350 . S
C579 H566 0.929 . S
C579 C571 1.433 . S
C579 N581 1.384 . S
N580 C576 1.427 . S
N580 C577 1.384 . S
N581 C573 1.427 . S
N581 C579 1.384 . S
H582 C588 0.930 . S
H583 C592 0.930 . S
H584 C597 0.929 . S
H585 C595 0.929 . S
H586 C590 0.929 . S
H587 C596 0.929 . S
C588 H582 0.930 . S
C588 C589 1.367 . S
C588 C596 1.378 . S
C589 C588 1.367 . S
C589 C597 1.433 . S
C590 H586 0.929 . S
C590 C592 1.378 . S
C590 C594 1.350 . S
C591 C594 1.463 . S
C591 C596 1.350 . S
C591 N599 1.427 . S
C592 H583 0.930 . S
C592 C590 1.378 . S
C592 C593 1.367 . S
C593 C592 1.367 . S
C593 C595 1.433 . S
C594 C590 1.350 . S
C594 C591 1.463 . S
C594 N598 1.427 . S
C595 H585 0.929 . S
C595 C593 1.433 . S
C595 N598 1.384 . S
C596 H587 0.929 . S
C596 C588 1.378 . S
C596 C591 1.350 . S
C597 H584 0.929 . S
C597 C589 1.433 . S
C597 N599 1.384 . S
N598 C594 1.427 . S
N598 C595 1.384 . S
N599 C591 1.427 . S
N599 C597 1.384 . S
C175 C8 1.474 . S
C179 C78 1.476 . S
C193 C17 1.540 . S
C197 C59 1.539 . S
C211 C77 1.381 . S
C215 C35 1.371 . S
C229 C45 1.444 . S
C233 C65 1.444 1_545 S
C247 C106 1.507 . S
C251 C36 1.508 . S
C265 C93 1.378 . S
C269 C51 1.376 . S
C283 C7 1.408 . S
C287 C105 1.414 . S
C301 C87 1.482 . S
C305 C23 1.480 . S
C319 C129 1.532 . S
C323 C120 1.516 . S
C337 C119 1.455 . S
C341 C157 1.488 . S
C355 C135 1.388 1_554 S
C359 C147 1.365 . S
C373 C148 1.419 . S
C377 C163 1.428 . S
C391 C162 1.471 . S
C395 C92 1.473 . S
C409 C115 1.543 . S
C413 C101 1.543 . S
C427 C91 1.377 . S
C431 C133 1.369 . S
C445 C107 1.443 . S
C449 C143 1.443 . S
C463 C64 1.509 . S
C467 C134 1.511 . S
C481 C79 1.378 . S
C485 C149 1.380 . S
C499 C161 1.413 . S
C503 C63 1.419 . S
C517 C121 1.474 . S
C521 C73 1.484 . S
C535 C22 1.524 . S
C539 C31 1.536 . S
C553 C3 1.488 . S
C557 C21 1.454 . S
C571 C37 1.389 . S
C575 C49 1.367 . S
C589 C9 1.429 . S
C593 C50 1.427 . S
