# Generated by pormake.
# Topology ukc, (4)-cn, num edge types: 1
# Building blocks:
#     Node 0, Type 0, BuildingBlock: NAHDIM_clean_sbu_0, # of connection points: 4
#     Node 1, Type 0, BuildingBlock: NAHDIM_clean_sbu_0, # of connection points: 4
#     Node 2, Type 0, BuildingBlock: NAHDIM_clean_sbu_0, # of connection points: 4
#     Node 3, Type 0, BuildingBlock: NAHDIM_clean_sbu_0, # of connection points: 4
#     Node 4, Type 0, BuildingBlock: NAHDIM_clean_sbu_0, # of connection points: 4
#     Node 5, Type 0, BuildingBlock: NAHDIM_clean_sbu_0, # of connection points: 4
#     Node 6, Type 0, BuildingBlock: NAHDIM_clean_sbu_0, # of connection points: 4
#     Node 7, Type 0, BuildingBlock: NAHDIM_clean_sbu_0, # of connection points: 4
#     Node 8, Type 0, BuildingBlock: NAHDIM_clean_sbu_0, # of connection points: 4
#     Node 9, Type 0, BuildingBlock: NAHDIM_clean_sbu_0, # of connection points: 4
#     Node 10, Type 0, BuildingBlock: NAHDIM_clean_sbu_0, # of connection points: 4
#     Node 11, Type 0, BuildingBlock: NAHDIM_clean_sbu_0, # of connection points: 4
#     Node 12, Type 0, BuildingBlock: NAHDIM_clean_sbu_0, # of connection points: 4
#     Node 13, Type 0, BuildingBlock: NAHDIM_clean_sbu_0, # of connection points: 4
#     Node 14, Type 0, BuildingBlock: NAHDIM_clean_sbu_0, # of connection points: 4
#     Node 15, Type 0, BuildingBlock: NAHDIM_clean_sbu_0, # of connection points: 4
#     Node 16, Type 0, BuildingBlock: NAHDIM_clean_sbu_0, # of connection points: 4
#     Node 17, Type 0, BuildingBlock: NAHDIM_clean_sbu_0, # of connection points: 4
#     Node 18, Type 0, BuildingBlock: NAHDIM_clean_sbu_0, # of connection points: 4
#     Node 19, Type 0, BuildingBlock: NAHDIM_clean_sbu_0, # of connection points: 4
#     Node 20, Type 0, BuildingBlock: NAHDIM_clean_sbu_0, # of connection points: 4
#     Node 21, Type 0, BuildingBlock: NAHDIM_clean_sbu_0, # of connection points: 4
#     Node 22, Type 0, BuildingBlock: NAHDIM_clean_sbu_0, # of connection points: 4
#     Node 23, Type 0, BuildingBlock: NAHDIM_clean_sbu_0, # of connection points: 4
#     Node 24, Type 0, BuildingBlock: NAHDIM_clean_sbu_0, # of connection points: 4
#     Node 25, Type 0, BuildingBlock: NAHDIM_clean_sbu_0, # of connection points: 4
#     Node 26, Type 0, BuildingBlock: NAHDIM_clean_sbu_0, # of connection points: 4
#     Node 27, Type 0, BuildingBlock: NAHDIM_clean_sbu_0, # of connection points: 4
#     Node 28, Type 0, BuildingBlock: NAHDIM_clean_sbu_0, # of connection points: 4
#     Node 29, Type 0, BuildingBlock: NAHDIM_clean_sbu_0, # of connection points: 4
#     Node 30, Type 0, BuildingBlock: NAHDIM_clean_sbu_0, # of connection points: 4
#     Node 31, Type 0, BuildingBlock: NAHDIM_clean_sbu_0, # of connection points: 4
#     Edge 32, Type (0, 0), BuildingBlock: CIFDUS_clean_linker_0, # of connection points: 2
#     Edge 33, Type (0, 0), BuildingBlock: CIFDUS_clean_linker_0, # of connection points: 2
#     Edge 34, Type (0, 0), BuildingBlock: CIFDUS_clean_linker_0, # of connection points: 2
#     Edge 35, Type (0, 0), BuildingBlock: CIFDUS_clean_linker_0, # of connection points: 2
#     Edge 36, Type (0, 0), BuildingBlock: CIFDUS_clean_linker_0, # of connection points: 2
#     Edge 37, Type (0, 0), BuildingBlock: CIFDUS_clean_linker_0, # of connection points: 2
#     Edge 38, Type (0, 0), BuildingBlock: CIFDUS_clean_linker_0, # of connection points: 2
#     Edge 39, Type (0, 0), BuildingBlock: CIFDUS_clean_linker_0, # of connection points: 2
#     Edge 40, Type (0, 0), BuildingBlock: CIFDUS_clean_linker_0, # of connection points: 2
#     Edge 41, Type (0, 0), BuildingBlock: CIFDUS_clean_linker_0, # of connection points: 2
#     Edge 42, Type (0, 0), BuildingBlock: CIFDUS_clean_linker_0, # of connection points: 2
#     Edge 43, Type (0, 0), BuildingBlock: CIFDUS_clean_linker_0, # of connection points: 2
#     Edge 44, Type (0, 0), BuildingBlock: CIFDUS_clean_linker_0, # of connection points: 2
#     Edge 45, Type (0, 0), BuildingBlock: CIFDUS_clean_linker_0, # of connection points: 2
#     Edge 46, Type (0, 0), BuildingBlock: CIFDUS_clean_linker_0, # of connection points: 2
#     Edge 47, Type (0, 0), BuildingBlock: CIFDUS_clean_linker_0, # of connection points: 2
#     Edge 48, Type (0, 0), BuildingBlock: CIFDUS_clean_linker_0, # of connection points: 2
#     Edge 49, Type (0, 0), BuildingBlock: CIFDUS_clean_linker_0, # of connection points: 2
#     Edge 50, Type (0, 0), BuildingBlock: CIFDUS_clean_linker_0, # of connection points: 2
#     Edge 51, Type (0, 0), BuildingBlock: CIFDUS_clean_linker_0, # of connection points: 2
#     Edge 52, Type (0, 0), BuildingBlock: CIFDUS_clean_linker_0, # of connection points: 2
#     Edge 53, Type (0, 0), BuildingBlock: CIFDUS_clean_linker_0, # of connection points: 2
#     Edge 54, Type (0, 0), BuildingBlock: CIFDUS_clean_linker_0, # of connection points: 2
#     Edge 55, Type (0, 0), BuildingBlock: CIFDUS_clean_linker_0, # of connection points: 2
#     Edge 56, Type (0, 0), BuildingBlock: CIFDUS_clean_linker_0, # of connection points: 2
#     Edge 57, Type (0, 0), BuildingBlock: CIFDUS_clean_linker_0, # of connection points: 2
#     Edge 58, Type (0, 0), BuildingBlock: CIFDUS_clean_linker_0, # of connection points: 2
#     Edge 59, Type (0, 0), BuildingBlock: CIFDUS_clean_linker_0, # of connection points: 2
#     Edge 60, Type (0, 0), BuildingBlock: CIFDUS_clean_linker_0, # of connection points: 2
#     Edge 61, Type (0, 0), BuildingBlock: CIFDUS_clean_linker_0, # of connection points: 2
#     Edge 62, Type (0, 0), BuildingBlock: CIFDUS_clean_linker_0, # of connection points: 2
#     Edge 63, Type (0, 0), BuildingBlock: CIFDUS_clean_linker_0, # of connection points: 2
#     Edge 64, Type (0, 0), BuildingBlock: CIFDUS_clean_linker_0, # of connection points: 2
#     Edge 65, Type (0, 0), BuildingBlock: CIFDUS_clean_linker_0, # of connection points: 2
#     Edge 66, Type (0, 0), BuildingBlock: CIFDUS_clean_linker_0, # of connection points: 2
#     Edge 67, Type (0, 0), BuildingBlock: CIFDUS_clean_linker_0, # of connection points: 2
#     Edge 68, Type (0, 0), BuildingBlock: CIFDUS_clean_linker_0, # of connection points: 2
#     Edge 69, Type (0, 0), BuildingBlock: CIFDUS_clean_linker_0, # of connection points: 2
#     Edge 70, Type (0, 0), BuildingBlock: CIFDUS_clean_linker_0, # of connection points: 2
#     Edge 71, Type (0, 0), BuildingBlock: CIFDUS_clean_linker_0, # of connection points: 2
#     Edge 72, Type (0, 0), BuildingBlock: CIFDUS_clean_linker_0, # of connection points: 2
#     Edge 73, Type (0, 0), BuildingBlock: CIFDUS_clean_linker_0, # of connection points: 2
#     Edge 74, Type (0, 0), BuildingBlock: CIFDUS_clean_linker_0, # of connection points: 2
#     Edge 75, Type (0, 0), BuildingBlock: CIFDUS_clean_linker_0, # of connection points: 2
#     Edge 76, Type (0, 0), BuildingBlock: CIFDUS_clean_linker_0, # of connection points: 2
#     Edge 77, Type (0, 0), BuildingBlock: CIFDUS_clean_linker_0, # of connection points: 2
#     Edge 78, Type (0, 0), BuildingBlock: CIFDUS_clean_linker_0, # of connection points: 2
#     Edge 79, Type (0, 0), BuildingBlock: CIFDUS_clean_linker_0, # of connection points: 2
#     Edge 80, Type (0, 0), BuildingBlock: CIFDUS_clean_linker_0, # of connection points: 2
#     Edge 81, Type (0, 0), BuildingBlock: CIFDUS_clean_linker_0, # of connection points: 2
#     Edge 82, Type (0, 0), BuildingBlock: CIFDUS_clean_linker_0, # of connection points: 2
#     Edge 83, Type (0, 0), BuildingBlock: CIFDUS_clean_linker_0, # of connection points: 2
#     Edge 84, Type (0, 0), BuildingBlock: CIFDUS_clean_linker_0, # of connection points: 2
#     Edge 85, Type (0, 0), BuildingBlock: CIFDUS_clean_linker_0, # of connection points: 2
#     Edge 86, Type (0, 0), BuildingBlock: CIFDUS_clean_linker_0, # of connection points: 2
#     Edge 87, Type (0, 0), BuildingBlock: CIFDUS_clean_linker_0, # of connection points: 2
#     Edge 88, Type (0, 0), BuildingBlock: CIFDUS_clean_linker_0, # of connection points: 2
#     Edge 89, Type (0, 0), BuildingBlock: CIFDUS_clean_linker_0, # of connection points: 2
#     Edge 90, Type (0, 0), BuildingBlock: CIFDUS_clean_linker_0, # of connection points: 2
#     Edge 91, Type (0, 0), BuildingBlock: CIFDUS_clean_linker_0, # of connection points: 2
#     Edge 92, Type (0, 0), BuildingBlock: CIFDUS_clean_linker_0, # of connection points: 2
#     Edge 93, Type (0, 0), BuildingBlock: CIFDUS_clean_linker_0, # of connection points: 2
#     Edge 94, Type (0, 0), BuildingBlock: CIFDUS_clean_linker_0, # of connection points: 2
#     Edge 95, Type (0, 0), BuildingBlock: CIFDUS_clean_linker_0, # of connection points: 2
# Relax obj value: 0.065
# Max RMSD: 0.093
# Mean RMSD: 0.093
data_MOF--net-ukc--node1-NAHDIM_clean_sbu_0--edge1-CIFDUS_clean_linker_0
_symmetry_space_group_name_H-M    P1
_symmetry_Int_Tables_number       1
_symmetry_cell_setting            triclinic
loop_
_symmetry_equiv_pos_as_xyz
'x, y, z'
_cell_length_a     40.338158
_cell_length_b     40.304323
_cell_length_c     73.204661
_cell_angle_alpha  90.170874
_cell_angle_beta   89.911609
_cell_angle_gamma 89.96035
loop_
_atom_site_label
_atom_site_type_symbol
_atom_site_fract_x
_atom_site_fract_y
_atom_site_fract_z
_atom_type_partial_charge
C0 C 0.15199 0.37782 0.02243 0.0
O1 O 0.15502 0.38007 0.04026 0.0
O2 O 0.09315 0.38282 0.05754 0.0
Zn3 Zn 0.08246 0.38606 0.03074 0.0
O4 O 0.06161 0.4301 0.02532 0.0
C5 C 0.0198 0.35393 0.03068 0.0
O6 O 0.01183 0.38093 0.03978 0.0
O7 O 0.12333 0.37974 0.01533 0.0
C8 C 0.04545 0.43389 0.0106 0.0
O9 O 0.04435 0.40936 -0.00125 0.0
C10 C 0.07902 0.40113 0.06938 0.0
O11 O 0.05743 0.42346 0.06399 0.0
O12 O 0.0494 0.35037 0.02503 0.0
C13 C 0.83934 0.90513 0.27402 0.0
O14 O 0.82224 0.90233 0.28923 0.0
O15 O 0.84601 0.84401 0.30724 0.0
Zn16 Zn 0.84853 0.83549 0.28002 0.0
O17 O 0.80791 0.81145 0.27105 0.0
C18 C 0.91722 0.81693 0.27975 0.0
O19 O 0.92017 0.84581 0.28797 0.0
O20 O 0.85282 0.87942 0.26717 0.0
C21 C 0.8051 0.78042 0.27373 0.0
O22 O 0.8284 0.76488 0.28286 0.0
C23 C 0.85904 0.82461 0.31885 0.0
O24 O 0.87311 0.79704 0.31318 0.0
O25 O 0.8887 0.80744 0.27461 0.0
C26 C 0.35527 0.61847 0.52837 0.0
O27 O 0.36287 0.6442 0.53861 0.0
O28 O 0.41977 0.61162 0.56158 0.0
Zn29 Zn 0.42341 0.60476 0.53448 0.0
O30 O 0.4527 0.56555 0.52877 0.0
C31 C 0.4729 0.65308 0.5248 0.0
O32 O 0.49305 0.63048 0.53141 0.0
O33 O 0.37772 0.59746 0.52448 0.0
C34 C 0.4628 0.5599 0.51259 0.0
O35 O 0.45401 0.58019 0.49944 0.0
C36 C 0.40525 0.59145 0.57222 0.0
O37 O 0.3929 0.56383 0.56552 0.0
O38 O 0.44205 0.64694 0.5241 0.0
C39 C 0.64207 0.10757 0.75906 0.0
O40 O 0.66727 0.11942 0.76837 0.0
O41 O 0.62036 0.15338 0.79914 0.0
Zn42 Zn 0.61624 0.16689 0.77279 0.0
O43 O 0.6555 0.19415 0.76464 0.0
C44 C 0.56505 0.211 0.78352 0.0
O45 O 0.58316 0.21033 0.79841 0.0
O46 O 0.61552 0.12454 0.75827 0.0
C47 C 0.65726 0.22544 0.76669 0.0
O48 O 0.63281 0.24125 0.77476 0.0
C49 C 0.64314 0.16209 0.81011 0.0
O50 O 0.66726 0.18122 0.80429 0.0
O51 O 0.57394 0.19349 0.76987 0.0
C52 C 0.18377 0.57382 0.47996 0.0
O53 O 0.17732 0.54905 0.4688 0.0
O54 O 0.13575 0.59543 0.44028 0.0
Zn55 Zn 0.12139 0.59257 0.46653 0.0
O56 O 0.09819 0.54945 0.47184 0.0
C57 C 0.05903 0.62513 0.46668 0.0
O58 O 0.05068 0.5963 0.45967 0.0
O59 O 0.16225 0.59659 0.48195 0.0
C60 C 0.0833 0.54749 0.48711 0.0
O61 O 0.08578 0.57233 0.4987 0.0
C62 C 0.11853 0.58441 0.42709 0.0
O63 O 0.09059 0.56892 0.43055 0.0
O64 O 0.08909 0.63006 0.47118 0.0
C65 C 0.6802 0.92369 0.72402 0.0
O66 O 0.70868 0.908 0.7228 0.0
O67 O 0.65265 0.86528 0.68167 0.0
Zn68 Zn 0.65328 0.86259 0.70902 0.0
O69 O 0.69387 0.83683 0.71637 0.0
C70 C 0.60637 0.80946 0.71397 0.0
O71 O 0.6296 0.79209 0.70573 0.0
O72 O 0.65382 0.90897 0.71913 0.0
C73 C 0.69637 0.8202 0.73103 0.0
O74 O 0.67143 0.8198 0.74258 0.0
C75 C 0.62603 0.87313 0.67351 0.0
O76 O 0.59937 0.87959 0.68322 0.0
O77 O 0.61145 0.83998 0.71728 0.0
C78 C 0.32838 0.36513 0.97346 0.0
O79 O 0.32566 0.36359 0.9556 0.0
O80 O 0.38679 0.38071 0.93915 0.0
Zn81 Zn 0.39845 0.37288 0.96561 0.0
O82 O 0.42446 0.41106 0.97603 0.0
C83 C 0.41284 0.30419 0.96092 0.0
O84 O 0.3825 0.30471 0.95441 0.0
O85 O 0.35691 0.36836 0.98058 0.0
C86 C 0.45568 0.41372 0.97422 0.0
O87 O 0.4719 0.39127 0.96472 0.0
C88 C 0.40839 0.3752 0.92686 0.0
O89 O 0.43836 0.36615 0.93178 0.0
O90 O 0.42526 0.33089 0.96712 0.0
C91 C 0.87148 0.06701 0.21381 0.0
O92 O 0.88255 0.06888 0.19695 0.0
O93 O 0.85444 0.12912 0.18177 0.0
Zn94 Zn 0.86098 0.1373 0.20879 0.0
O95 O 0.8231 0.16463 0.21858 0.0
C96 C 0.93206 0.15013 0.20972 0.0
O97 O 0.93418 0.11951 0.20364 0.0
O98 O 0.86145 0.09325 0.22178 0.0
C99 C 0.82266 0.19591 0.21645 0.0
O100 O 0.84701 0.21013 0.20747 0.0
C101 C 0.87075 0.1448 0.16969 0.0
O102 O 0.89163 0.168 0.17481 0.0
O103 O 0.90365 0.16231 0.21317 0.0
C104 C 0.82097 0.60038 0.97995 0.0
O105 O 0.82944 0.57635 0.96871 0.0
O106 O 0.86717 0.63291 0.93965 0.0
Zn107 Zn 0.8804 0.62709 0.96587 0.0
O108 O 0.90592 0.58472 0.96908 0.0
C109 C 0.93969 0.66458 0.96876 0.0
O110 O 0.9511 0.63851 0.95997 0.0
O111 O 0.83961 0.62564 0.98132 0.0
C112 C 0.9216 0.58016 0.98389 0.0
O113 O 0.91977 0.60279 0.99681 0.0
C114 C 0.8849 0.6211 0.92685 0.0
O115 O 0.91166 0.60411 0.93095 0.0
O116 O 0.90918 0.66564 0.97307 0.0
C117 C 0.14022 0.09245 0.72624 0.0
O118 O 0.15996 0.09232 0.71194 0.0
O119 O 0.13843 0.14736 0.68895 0.0
Zn120 Zn 0.12968 0.16001 0.71519 0.0
O121 O 0.16642 0.18787 0.72582 0.0
C122 C 0.06346 0.17714 0.70533 0.0
O123 O 0.06703 0.15056 0.69508 0.0
O124 O 0.12451 0.11882 0.73028 0.0
C125 C 0.16473 0.21937 0.72586 0.0
O126 O 0.13921 0.23393 0.71816 0.0
C127 C 0.13926 0.1695 0.67664 0.0
O128 O 0.13711 0.20085 0.68146 0.0
O129 O 0.08703 0.18584 0.71579 0.0
C130 C 0.66649 0.3786 0.46977 0.0
O131 O 0.6599 0.40229 0.45802 0.0
O132 O 0.62084 0.35122 0.42992 0.0
Zn133 Zn 0.60539 0.3581 0.4558 0.0
O134 O 0.58216 0.40193 0.45945 0.0
C135 C 0.55042 0.31992 0.44823 0.0
O136 O 0.5503 0.34242 0.43528 0.0
O137 O 0.64549 0.35546 0.47193 0.0
C138 C 0.57203 0.40836 0.47553 0.0
O139 O 0.57784 0.38677 0.48855 0.0
C140 C 0.61937 0.37188 0.41689 0.0
O141 O 0.60787 0.40187 0.42001 0.0
O142 O 0.57266 0.32143 0.4605 0.0
C143 C 0.33905 0.92575 0.22895 0.0
O144 O 0.31557 0.91852 0.21717 0.0
O145 O 0.35362 0.86891 0.19313 0.0
Zn146 Zn 0.35587 0.85971 0.2201 0.0
O147 O 0.3136 0.83679 0.22733 0.0
C148 C 0.39341 0.79984 0.2203 0.0
O149 O 0.36647 0.78918 0.2121 0.0
O150 O 0.36009 0.90352 0.23306 0.0
C151 C 0.31132 0.81863 0.24144 0.0
O152 O 0.33711 0.8155 0.25223 0.0
C153 C 0.37899 0.8674 0.18286 0.0
O154 O 0.40776 0.85924 0.18993 0.0
O155 O 0.39487 0.82999 0.22538 0.0
C156 C 0.84463 0.4047 0.51491 0.0
O157 O 0.86055 0.4328 0.51728 0.0
O158 O 0.88127 0.38313 0.56434 0.0
Zn159 Zn 0.89638 0.38082 0.53821 0.0
O160 O 0.92468 0.42037 0.53194 0.0
C161 C 0.95267 0.34242 0.54433 0.0
O162 O 0.95917 0.36965 0.55356 0.0
O163 O 0.85592 0.37844 0.52219 0.0
C164 C 0.94389 0.41898 0.51818 0.0
O165 O 0.9435 0.39238 0.50777 0.0
C166 C 0.89238 0.40403 0.57581 0.0
O167 O 0.91416 0.4262 0.57046 0.0
O168 O 0.92527 0.34029 0.53584 0.0
C169 C 0.32353 0.11283 0.26415 0.0
O170 O 0.29673 0.13134 0.26438 0.0
O171 O 0.34946 0.15079 0.31407 0.0
Zn172 Zn 0.34917 0.16459 0.28779 0.0
O173 O 0.30838 0.19193 0.2829 0.0
C174 C 0.41369 0.18469 0.2729 0.0
O175 O 0.41298 0.15603 0.26431 0.0
O176 O 0.3492 0.1226 0.27267 0.0
C177 C 0.30647 0.20933 0.26849 0.0
O178 O 0.33139 0.20912 0.25691 0.0
C179 C 0.34423 0.17147 0.32687 0.0
O180 O 0.33817 0.2026 0.32277 0.0
O181 O 0.38958 0.19279 0.28318 0.0
C182 C 0.65184 0.62663 0.03431 0.0
O183 O 0.64248 0.65158 0.0447 0.0
O184 O 0.5816 0.61176 0.06497 0.0
Zn185 Zn 0.58354 0.61043 0.03759 0.0
O186 O 0.5565 0.57335 0.02684 0.0
C187 C 0.5405 0.6624 0.02203 0.0
O188 O 0.51885 0.63873 0.01894 0.0
O189 O 0.6306 0.60499 0.02963 0.0
C190 C 0.52795 0.565 0.03254 0.0
O191 O 0.51465 0.58118 0.04633 0.0
C192 C 0.60027 0.59475 0.07531 0.0
O193 O 0.62064 0.57295 0.06802 0.0
O194 O 0.56835 0.65523 0.02906 0.0
C195 C 0.1427 0.91909 0.77867 0.0
O196 O 0.12716 0.92131 0.79441 0.0
O197 O 0.15353 0.8697 0.81721 0.0
Zn198 Zn 0.15333 0.85275 0.79129 0.0
O199 O 0.19198 0.82197 0.78696 0.0
C200 C 0.08393 0.83904 0.79426 0.0
O201 O 0.08513 0.86644 0.80399 0.0
O202 O 0.15615 0.89172 0.77418 0.0
C203 C 0.19887 0.81303 0.77073 0.0
O204 O 0.18059 0.82424 0.75724 0.0
C205 C 0.15213 0.8497 0.83055 0.0
O206 O 0.15238 0.81763 0.82725 0.0
O207 O 0.11047 0.82803 0.78706 0.0
C208 C 0.67842 0.8667 0.51896 0.0
O209 O 0.67254 0.83877 0.52759 0.0
O210 O 0.61609 0.87991 0.5569 0.0
Zn211 Zn 0.61134 0.87947 0.52959 0.0
O212 O 0.57923 0.91563 0.52303 0.0
C213 C 0.56408 0.82761 0.5203 0.0
O214 O 0.54225 0.85168 0.52168 0.0
O215 O 0.65554 0.88828 0.51793 0.0
C216 C 0.5676 0.92125 0.50724 0.0
O217 O 0.57671 0.90236 0.49345 0.0
C218 C 0.58988 0.88276 0.56645 0.0
O219 O 0.56119 0.88551 0.55811 0.0
O220 O 0.59465 0.83411 0.52249 0.0
C221 C 0.3263 0.41867 0.77088 0.0
O222 O 0.29818 0.40304 0.77365 0.0
O223 O 0.35557 0.36562 0.81473 0.0
Zn224 Zn 0.35362 0.36003 0.7875 0.0
O225 O 0.31445 0.3331 0.77924 0.0
C226 C 0.40098 0.31769 0.76713 0.0
O227 O 0.37847 0.31553 0.75423 0.0
O228 O 0.35331 0.40492 0.77562 0.0
C229 C 0.31322 0.30199 0.78189 0.0
O230 O 0.33713 0.28761 0.79112 0.0
C231 C 0.33276 0.37259 0.82609 0.0
O232 O 0.30226 0.37688 0.82027 0.0
O233 O 0.39534 0.33547 0.78116 0.0
C234 C 0.83862 0.09516 0.01169 0.0
O235 O 0.85045 0.06588 0.01609 0.0
O236 O 0.90341 0.1217 0.05112 0.0
Zn237 Zn 0.90305 0.11855 0.02368 0.0
O238 O 0.92727 0.07788 0.01495 0.0
C239 C 0.91739 0.18665 0.02037 0.0
O240 O 0.88975 0.18817 0.02987 0.0
O241 O 0.85666 0.12068 0.01386 0.0
C242 C 0.95802 0.07587 0.01855 0.0
O243 O 0.97194 0.09964 0.02817 0.0
C244 C 0.88051 0.11296 0.06203 0.0
O245 O 0.85373 0.09867 0.05554 0.0
O246 O 0.92794 0.1585 0.01514 0.0
C247 C 0.14204 0.60183 0.25757 0.0
O248 O 0.16868 0.62052 0.2573 0.0
O249 O 0.1139 0.63257 0.30995 0.0
Zn250 Zn 0.11887 0.64994 0.28443 0.0
O251 O 0.16148 0.67574 0.28159 0.0
C252 C 0.08163 0.7082 0.28912 0.0
O253 O 0.10681 0.71359 0.30011 0.0
O254 O 0.11759 0.6103 0.26753 0.0
C255 C 0.16367 0.69628 0.26851 0.0
O256 O 0.13869 0.69914 0.25712 0.0
C257 C 0.1366 0.63231 0.32195 0.0
O258 O 0.16598 0.6443 0.31791 0.0
O259 O 0.08066 0.68117 0.28013 0.0
C260 C 0.66527 0.1423 0.96606 0.0
O261 O 0.65519 0.17097 0.95962 0.0
O262 O 0.61393 0.12167 0.92319 0.0
Zn263 Zn 0.60429 0.11879 0.95008 0.0
O264 O 0.57806 0.07779 0.95572 0.0
C265 C 0.54672 0.15887 0.95349 0.0
O266 O 0.53405 0.13278 0.94529 0.0
O267 O 0.64725 0.11681 0.96377 0.0
C268 C 0.56926 0.07299 0.97216 0.0
O269 O 0.57826 0.09451 0.98473 0.0
C270 C 0.59563 0.10748 0.91142 0.0
O271 O 0.57019 0.08984 0.91698 0.0
O272 O 0.57743 0.15891 0.95738 0.0
C273 C 0.12346 0.41771 0.21836 0.0
O274 O 0.1464 0.41104 0.20613 0.0
O275 O 0.10595 0.36077 0.1825 0.0
Zn276 Zn 0.10709 0.35155 0.20944 0.0
O277 O 0.15032 0.32988 0.21613 0.0
C278 C 0.07131 0.29061 0.21114 0.0
O279 O 0.0988 0.27986 0.2035 0.0
O280 O 0.10282 0.39518 0.2226 0.0
C281 C 0.15407 0.31653 0.23168 0.0
O282 O 0.12948 0.31752 0.24347 0.0
C283 C 0.12319 0.34483 0.17088 0.0
O284 O 0.14306 0.32114 0.1765 0.0
O285 O 0.06897 0.32113 0.21542 0.0
C286 C 0.86128 0.87146 0.47699 0.0
O287 O 0.86888 0.90087 0.47053 0.0
O288 O 0.91753 0.84498 0.43448 0.0
Zn289 Zn 0.92465 0.85327 0.46133 0.0
O290 O 0.94421 0.89834 0.46611 0.0
C291 C 0.94794 0.78846 0.46808 0.0
O292 O 0.9179 0.78194 0.46214 0.0
O293 O 0.88154 0.84762 0.47483 0.0
C294 C 0.95561 0.90399 0.48199 0.0
O295 O 0.95353 0.8806 0.49441 0.0
C296 C 0.89631 0.85925 0.42438 0.0
O297 O 0.8774 0.88266 0.43132 0.0
O298 O 0.95688 0.81853 0.46961 0.0
C299 C 0.35846 0.59691 0.72693 0.0
O300 O 0.33229 0.60811 0.71824 0.0
O301 O 0.38663 0.64357 0.68512 0.0
Zn302 Zn 0.38853 0.65541 0.7118 0.0
O303 O 0.35103 0.68664 0.718 0.0
C304 C 0.43803 0.70658 0.72001 0.0
O305 O 0.4124 0.72637 0.72207 0.0
O306 O 0.38523 0.61346 0.72637 0.0
C307 C 0.34289 0.69323 0.7344 0.0
O308 O 0.35954 0.6795 0.74781 0.0
C309 C 0.39538 0.66523 0.6735 0.0
O310 O 0.40393 0.69491 0.67928 0.0
O311 O 0.43326 0.67617 0.71622 0.0
C312 C 0.32785 0.11688 0.47637 0.0
O313 O 0.32618 0.13641 0.46206 0.0
O314 O 0.3759 0.11175 0.43666 0.0
Zn315 Zn 0.39312 0.10599 0.46224 0.0
O316 O 0.42242 0.06585 0.46387 0.0
C317 C 0.43695 0.15869 0.45512 0.0
O318 O 0.43508 0.14461 0.43896 0.0
O319 O 0.35468 0.10142 0.47955 0.0
C320 C 0.43662 0.06065 0.47906 0.0
O321 O 0.43088 0.0811 0.49272 0.0
C322 C 0.37648 0.08965 0.42426 0.0
O323 O 0.38753 0.05984 0.42815 0.0
O324 O 0.4207 0.14631 0.46834 0.0
C325 C 0.62352 0.58158 0.22083 0.0
O326 O 0.6452 0.59099 0.20848 0.0
O327 O 0.60735 0.64295 0.18891 0.0
Zn328 Zn 0.60436 0.6485 0.21624 0.0
O329 O 0.64374 0.6735 0.22605 0.0
C330 C 0.53452 0.66131 0.21819 0.0
O331 O 0.53321 0.63143 0.211 0.0
O332 O 0.60289 0.60272 0.22698 0.0
C333 C 0.64593 0.70468 0.22379 0.0
O334 O 0.62259 0.7201 0.21463 0.0
C335 C 0.59298 0.66249 0.17787 0.0
O336 O 0.57718 0.68853 0.18433 0.0
O337 O 0.5626 0.67353 0.22223 0.0
C338 C 0.16032 0.88797 0.98911 0.0
O339 O 0.15695 0.91217 0.97727 0.0
O340 O 0.11186 0.86428 0.94856 0.0
Zn341 Zn 0.09723 0.86966 0.97465 0.0
O342 O 0.07215 0.91191 0.97946 0.0
C343 C 0.0802 0.8023 0.97639 0.0
O344 O 0.11133 0.80019 0.97118 0.0
O345 O 0.13721 0.86682 0.99074 0.0
C346 C 0.04205 0.91471 0.97461 0.0
O347 O 0.02809 0.89032 0.96549 0.0
C348 C 0.11398 0.88557 0.93586 0.0
O349 O 0.10617 0.91666 0.93919 0.0
O350 O 0.06794 0.83074 0.97965 0.0
C351 C 0.88959 0.41934 0.72283 0.0
O352 O 0.91047 0.41064 0.70987 0.0
O353 O 0.86025 0.36603 0.68804 0.0
Zn354 Zn 0.86434 0.35525 0.71473 0.0
O355 O 0.82459 0.32978 0.72395 0.0
C356 C 0.91592 0.30905 0.70595 0.0
O357 O 0.89884 0.30726 0.69072 0.0
O358 O 0.86754 0.3988 0.72789 0.0
C359 C 0.82304 0.29834 0.72266 0.0
O360 O 0.84757 0.28215 0.7149 0.0
C361 C 0.84021 0.35294 0.67676 0.0
O362 O 0.81917 0.33035 0.68245 0.0
O363 O 0.90617 0.32852 0.71857 0.0
C364 C 0.34308 0.88218 0.03029 0.0
O365 O 0.34848 0.8545 0.03925 0.0
O366 O 0.4133 0.88581 0.06426 0.0
Zn367 Zn 0.41246 0.89142 0.03699 0.0
O368 O 0.4436 0.92802 0.03011 0.0
C369 C 0.45788 0.84073 0.02626 0.0
O370 O 0.47915 0.86231 0.03288 0.0
O371 O 0.36691 0.90226 0.02787 0.0
C372 C 0.45202 0.93254 0.01358 0.0
O373 O 0.44008 0.9128 0.00089 0.0
C374 C 0.39122 0.89642 0.0752 0.0
O375 O 0.36565 0.91281 0.06875 0.0
O376 O 0.4273 0.84819 0.02602 0.0
C377 C 0.8664 0.59587 0.771 0.0
O378 O 0.84441 0.60467 0.78337 0.0
O379 O 0.89365 0.64656 0.80744 0.0
Zn380 Zn 0.88996 0.65882 0.78098 0.0
O381 O 0.8482 0.68496 0.77644 0.0
C382 C 0.93179 0.71427 0.78311 0.0
O383 O 0.90719 0.72339 0.7938 0.0
O384 O 0.88923 0.61618 0.7668 0.0
C385 C 0.84552 0.70273 0.76222 0.0
O386 O 0.87014 0.7034 0.75045 0.0
C387 C 0.87233 0.65354 0.81964 0.0
O388 O 0.8455 0.67008 0.81514 0.0
O389 O 0.93007 0.68639 0.77502 0.0
C390 C 0.1535 0.1041 0.5277 0.0
O391 O 0.15529 0.08538 0.54233 0.0
O392 O 0.10083 0.11715 0.5663 0.0
Zn393 Zn 0.08653 0.11206 0.5401 0.0
O394 O 0.06504 0.06789 0.53538 0.0
C395 C 0.06208 0.17758 0.53963 0.0
O396 O 0.09153 0.18241 0.54681 0.0
O397 O 0.12613 0.11792 0.52377 0.0
C398 C 0.05172 0.06314 0.51987 0.0
O399 O 0.05291 0.08696 0.50767 0.0
C400 C 0.10465 0.09388 0.57778 0.0
O401 O 0.09914 0.06308 0.57272 0.0
O402 O 0.05376 0.14836 0.53502 0.0
C403 C 0.64538 0.39033 0.24607 0.0
O404 O 0.67173 0.37167 0.24361 0.0
O405 O 0.63106 0.35258 0.29703 0.0
Zn406 Zn 0.62556 0.338 0.27094 0.0
O407 O 0.66434 0.31026 0.26242 0.0
C408 C 0.55755 0.3207 0.27744 0.0
O409 O 0.55851 0.34826 0.28706 0.0
O410 O 0.62221 0.38013 0.2564 0.0
C411 C 0.66392 0.2788 0.26361 0.0
O412 O 0.63805 0.2642 0.27096 0.0
C413 C 0.63614 0.33321 0.31038 0.0
O414 O 0.63943 0.30125 0.30731 0.0
O415 O 0.58338 0.31149 0.26886 0.0
H416 H 0.96426 0.56755 0.01164 0.0
H417 H 0.92731 0.52681 0.96101 0.0
H418 H 0.96326 0.47851 0.9645 0.0
H419 H 0.0046 0.44754 0.98211 0.0
H420 H 0.04154 0.48841 0.03274 0.0
H421 H 0.00633 0.53712 0.02894 0.0
C422 C 0.96399 0.54808 0.00139 0.0
C423 C 0.94301 0.55072 0.98614 0.0
C424 C 0.98483 0.52047 0.00342 0.0
C425 C 0.94317 0.52537 0.97291 0.0
C426 C 0.96375 0.49775 0.97487 0.0
C427 C 0.00511 0.46717 0.99227 0.0
C428 C 0.02566 0.46428 0.00768 0.0
C429 C 0.98464 0.49503 0.99008 0.0
C430 C 0.02597 0.48997 0.02073 0.0
C431 C 0.00577 0.51782 0.01861 0.0
H432 H 0.69582 0.681 0.24513 0.0
H433 H 0.65882 0.77092 0.22053 0.0
H434 H 0.70439 0.80232 0.23401 0.0
H435 H 0.75482 0.80431 0.25271 0.0
H436 H 0.79176 0.71436 0.27731 0.0
H437 H 0.74605 0.68304 0.26395 0.0
C438 C 0.69772 0.70746 0.24268 0.0
C439 C 0.67391 0.72353 0.2318 0.0
C440 C 0.72394 0.72543 0.25052 0.0
C441 C 0.67676 0.75787 0.22883 0.0
C442 C 0.70282 0.77589 0.23655 0.0
C443 C 0.75284 0.77787 0.2552 0.0
C444 C 0.77673 0.76176 0.26601 0.0
C445 C 0.72653 0.75993 0.24743 0.0
C446 C 0.77377 0.72745 0.26905 0.0
C447 C 0.74763 0.70947 0.2614 0.0
H448 H 0.54771 0.42853 0.50833 0.0
H449 H 0.55345 0.45706 0.45162 0.0
H450 H 0.52054 0.50666 0.45812 0.0
H451 H 0.48927 0.54138 0.47983 0.0
H452 H 0.48369 0.51245 0.53651 0.0
H453 H 0.51743 0.46357 0.53005 0.0
C454 C 0.54186 0.4456 0.49737 0.0
C455 C 0.55299 0.439 0.4795 0.0
C456 C 0.52288 0.474 0.50119 0.0
C457 C 0.5452 0.46149 0.4655 0.0
C458 C 0.52634 0.48986 0.4692 0.0
C459 C 0.49546 0.52442 0.49078 0.0
C460 C 0.48384 0.53059 0.50862 0.0
C461 C 0.51491 0.49627 0.48698 0.0
C462 C 0.49222 0.50835 0.52265 0.0
C463 C 0.51153 0.48035 0.51897 0.0
H464 H 0.7695 0.32364 0.74065 0.0
H465 H 0.81165 0.23172 0.72094 0.0
H466 H 0.76433 0.20114 0.73295 0.0
H467 H 0.71101 0.20037 0.74897 0.0
H468 H 0.66869 0.29215 0.76875 0.0
H469 H 0.71614 0.32282 0.75682 0.0
C470 C 0.76834 0.29692 0.73896 0.0
C471 C 0.7941 0.28004 0.72989 0.0
C472 C 0.74106 0.27942 0.74594 0.0
C473 C 0.7922 0.24539 0.72786 0.0
C474 C 0.76513 0.22783 0.73473 0.0
C475 C 0.71214 0.22708 0.75071 0.0
C476 C 0.6863 0.24391 0.75973 0.0
C477 C 0.73944 0.24458 0.7438 0.0
C478 C 0.68822 0.27854 0.76185 0.0
C479 C 0.71534 0.29613 0.75502 0.0
H480 H 0.98936 0.42255 0.49078 0.0
H481 H 0.95259 0.47594 0.53787 0.0
H482 H 0.99337 0.51962 0.53278 0.0
H483 H 0.03916 0.54279 0.51495 0.0
H484 H 0.0755 0.49012 0.46754 0.0
H485 H 0.03532 0.44583 0.47289 0.0
C486 C 0.99019 0.44377 0.49991 0.0
C487 C 0.96789 0.44596 0.51466 0.0
C488 C 0.01374 0.46882 0.49692 0.0
C489 C 0.96938 0.47363 0.52638 0.0
C490 C 0.99276 0.4986 0.52351 0.0
C491 C 0.03849 0.52153 0.50584 0.0
C492 C 0.06038 0.51972 0.4909 0.0
C493 C 0.01508 0.49642 0.50885 0.0
C494 C 0.05896 0.4921 0.47916 0.0
C495 C 0.03594 0.4668 0.48219 0.0
H496 H 0.70874 0.77914 0.75976 0.0
H497 H 0.75249 0.81735 0.71023 0.0
H498 H 0.80224 0.78444 0.71552 0.0
H499 H 0.83326 0.74454 0.73398 0.0
H500 H 0.78983 0.7061 0.78352 0.0
H501 H 0.74009 0.73935 0.77841 0.0
C502 C 0.72918 0.78035 0.75015 0.0
C503 C 0.7268 0.8007 0.73462 0.0
C504 C 0.75779 0.76125 0.75323 0.0
C505 C 0.75356 0.8019 0.72229 0.0
C506 C 0.78207 0.78306 0.72529 0.0
C507 C 0.81293 0.74338 0.74367 0.0
C508 C 0.8153 0.7228 0.75909 0.0
C509 C 0.78442 0.76258 0.74067 0.0
C510 C 0.7887 0.7217 0.77151 0.0
C511 C 0.76021 0.74073 0.76861 0.0
H512 H 0.43169 0.45683 -0.00033 0.0
H513 H 0.52019 0.43207 0.96929 0.0
H514 H 0.55021 0.47675 0.98462 0.0
H515 H 0.55144 0.52254 0.0067 0.0
H516 H 0.46341 0.5465 0.03768 0.0
H517 H 0.43312 0.50229 0.02206 0.0
C518 C 0.45751 0.46127 0.99634 0.0
C519 C 0.47363 0.44118 0.9833 0.0
C520 C 0.47473 0.48676 0.00534 0.0
C521 C 0.50718 0.44713 0.97927 0.0
C522 C 0.52437 0.47268 0.98803 0.0
C523 C 0.52561 0.51814 0.01005 0.0
C524 C 0.50971 0.53787 0.02332 0.0
C525 C 0.50842 0.49259 0.00111 0.0
C526 C 0.47629 0.53167 0.02755 0.0
C527 C 0.45892 0.50643 0.01859 0.0
H528 H 0.76911 0.17421 0.23566 0.0
H529 H 0.81497 0.26319 0.21483 0.0
H530 H 0.77031 0.29668 0.22784 0.0
H531 H 0.71809 0.30074 0.24497 0.0
H532 H 0.67208 0.21167 0.26559 0.0
H533 H 0.71704 0.17827 0.25286 0.0
C534 C 0.76937 0.20093 0.23395 0.0
C535 C 0.79537 0.21612 0.22425 0.0
C536 C 0.7436 0.22007 0.24146 0.0
C537 C 0.79526 0.25079 0.22219 0.0
C538 C 0.76974 0.27 0.22965 0.0
C539 C 0.71792 0.27403 0.24674 0.0
C540 C 0.69171 0.25877 0.25624 0.0
C541 C 0.74378 0.25491 0.2393 0.0
C542 C 0.69189 0.22411 0.25834 0.0
C543 C 0.7176 0.20495 0.25105 0.0
H544 H 0.26206 0.32398 0.76102 0.0
H545 H 0.30512 0.23472 0.78326 0.0
H546 H 0.2633 0.20128 0.7677 0.0
H547 H 0.21503 0.19729 0.74741 0.0
H548 H 0.17186 0.28667 0.72537 0.0
H549 H 0.21337 0.32008 0.74116 0.0
C550 C 0.26225 0.29722 0.76255 0.0
C551 C 0.28674 0.28191 0.77329 0.0
C552 C 0.23823 0.27812 0.75351 0.0
C553 C 0.28656 0.24719 0.7751 0.0
C554 C 0.2627 0.22802 0.76616 0.0
C555 C 0.21475 0.22407 0.74601 0.0
C556 C 0.19042 0.23942 0.73516 0.0
C557 C 0.23855 0.2432 0.75524 0.0
C558 C 0.1903 0.27418 0.73361 0.0
C559 C 0.21402 0.29334 0.74265 0.0
H560 H 0.17402 0.74407 0.24313 0.0
H561 H 0.22064 0.6952 0.28878 0.0
H562 H 0.27006 0.72948 0.2848 0.0
H563 H 0.30035 0.77272 0.26802 0.0
H564 H 0.2534 0.82117 0.22231 0.0
H565 H 0.20374 0.78773 0.22676 0.0
C566 C 0.19497 0.74086 0.25222 0.0
C567 C 0.19365 0.717 0.26618 0.0
C568 C 0.22325 0.76064 0.24988 0.0
C569 C 0.22101 0.71332 0.27789 0.0
C570 C 0.24928 0.73294 0.27564 0.0
C571 C 0.2792 0.77611 0.25909 0.0
C572 C 0.28067 0.79942 0.24484 0.0
C573 C 0.25071 0.75662 0.26165 0.0
C574 C 0.25302 0.8034 0.23338 0.0
C575 C 0.22458 0.78425 0.23589 0.0
H576 H 0.29331 0.24606 0.23825 0.0
H577 H 0.25142 0.2162 0.28997 0.0
H578 H 0.20096 0.2473 0.28331 0.0
H579 H 0.16833 0.28216 0.26261 0.0
H580 H 0.20996 0.31146 0.21074 0.0
H581 H 0.26092 0.28143 0.21771 0.0
C582 C 0.27319 0.2464 0.2481 0.0
C583 C 0.27617 0.22877 0.26457 0.0
C584 C 0.24416 0.26421 0.24416 0.0
C585 C 0.24981 0.2295 0.27716 0.0
C586 C 0.22091 0.24728 0.27337 0.0
C587 C 0.18857 0.28209 0.25285 0.0
C588 C 0.18527 0.29904 0.23618 0.0
C589 C 0.21776 0.26462 0.25689 0.0
C590 C 0.21178 0.29861 0.22367 0.0
C591 C 0.24096 0.28142 0.22764 0.0
H592 H 0.22117 0.79167 0.73766 0.0
H593 H 0.23975 0.78309 0.79552 0.0
H594 H 0.28584 0.7453 0.7894 0.0
H595 H 0.32082 0.71458 0.76763 0.0
H596 H 0.30225 0.72362 0.70978 0.0
H597 H 0.25623 0.76132 0.71594 0.0
C598 C 0.23526 0.78155 0.74896 0.0
C599 C 0.22694 0.79022 0.76703 0.0
C600 C 0.26177 0.75989 0.74535 0.0
C601 C 0.24558 0.77689 0.78147 0.0
C602 C 0.27196 0.75524 0.77799 0.0
C603 C 0.30672 0.72477 0.75636 0.0
C604 C 0.31503 0.71621 0.73827 0.0
C605 C 0.28027 0.74655 0.75999 0.0
C606 C 0.29647 0.72975 0.72384 0.0
C607 C 0.2701 0.75133 0.72735 0.0
H608 H 0.53441 0.93813 0.47614 0.0
H609 H 0.54662 0.96586 0.53277 0.0
H610 H 0.5071 0.01096 0.52903 0.0
H611 H 0.46932 0.0428 0.50982 0.0
H612 H 0.45638 0.01548 0.45321 0.0
H613 H 0.49584 0.96994 0.45686 0.0
C614 C 0.52845 0.95406 0.48765 0.0
C615 C 0.54357 0.9486 0.50468 0.0
C616 C 0.50553 0.98002 0.48544 0.0
C617 C 0.53543 0.96944 0.51948 0.0
C618 C 0.51279 0.99529 0.51738 0.0
C619 C 0.47506 0.02689 0.49826 0.0
C620 C 0.45994 0.03259 0.48127 0.0
C621 C 0.49773 0.00082 0.50043 0.0
C622 C 0.46766 0.01165 0.46646 0.0
C623 C 0.49026 0.98562 0.46852 0.0
H624 H 0.06221 0.96647 0.99574 0.0
H625 H 0.97721 0.92826 0.96675 0.0
H626 H 0.94369 0.97465 0.97779 0.0
H627 H 0.93819 0.02546 0.9962 0.0
H628 H 0.02331 0.06335 0.02523 0.0
H629 H 0.05698 0.01758 0.01369 0.0
C630 C 0.0364 0.96834 0.99174 0.0
C631 C 0.02228 0.94386 0.98044 0.0
C632 C 0.01719 0.99493 -0.00176 0.0
C633 C 0.98876 0.94671 0.97543 0.0
C634 C 0.96952 0.97321 0.98177 0.0
C635 C 0.96409 0.0237 2e-05 0.0
C636 C 0.97814 0.04778 0.01161 0.0
C637 C 0.98341 0.99733 0.9933 0.0
C638 C 0.0118 0.04516 0.01636 0.0
C639 C 0.03113 0.019 0.00975 0.0
H640 H 0.54694 0.05593 0.00584 0.0
H641 H 0.54394 0.02576 0.94922 0.0
H642 H 0.50768 0.97945 0.95707 0.0
H643 H 0.47611 0.94806 0.97993 0.0
H644 H 0.47925 0.97849 0.03652 0.0
H645 H 0.5162 0.02414 0.02871 0.0
C646 C 0.53844 0.0392 0.99521 0.0
C647 C 0.54811 0.04436 0.97698 0.0
C648 C 0.51756 0.01269 -0.00021 0.0
C649 C 0.53688 0.02238 0.96338 0.0
C650 C 0.51611 0.99589 0.96784 0.0
C651 C 0.48489 0.96465 0.99056 0.0
C652 C 0.47482 0.95988 0.00877 0.0
C653 C 0.50617 0.9909 0.98599 0.0
C654 C 0.48654 0.98157 0.02238 0.0
C655 C 0.50769 0.00772 0.01794 0.0
H656 H 0.02094 0.04584 0.48824 0.0
H657 H 0.04444 0.00918 0.54206 0.0
H658 H 0.01638 0.95701 0.53513 0.0
H659 H 0.98548 0.92171 0.5138 0.0
H660 H 0.96223 0.9582 0.45992 0.0
H661 H 0.98985 0.01059 0.46693 0.0
C662 C 0.01995 0.02646 0.49847 0.0
C663 C 0.03481 0.03145 0.51564 0.0
C664 C 0.00379 0.9965 0.49441 0.0
C665 C 0.03325 0.00603 0.52872 0.0
C666 C 0.01719 0.97617 0.52478 0.0
C667 C 0.98637 0.94112 0.50358 0.0
C668 C 0.97179 0.93599 0.48635 0.0
C669 C 0.0024 0.97113 0.50767 0.0
C670 C 0.97325 0.96145 0.47329 0.0
C671 C 0.98906 0.99143 0.47728 0.0
H672 H 0.90443 0.24897 0.0326 0.0
H673 H 0.97733 0.19133 0.00311 0.0
H674 H 0.0147 0.23891 0.00266 0.0
H675 H 0.02837 0.29533 0.01276 0.0
H676 H 0.95584 0.35249 0.04282 0.0
H677 H 0.91661 0.30662 0.04083 0.0
C678 C 0.92833 0.24689 0.02589 0.0
C679 C 0.93818 0.21654 0.01807 0.0
C680 C 0.9499 0.27416 0.02591 0.0
C681 C 0.96918 0.21435 0.00934 0.0
C682 C 0.99063 0.24152 0.00912 0.0
C683 C 0.0039 0.29787 0.01877 0.0
C684 C 0.99521 0.32716 0.0281 0.0
C685 C 0.98153 0.2713 0.01771 0.0
C686 C 0.96329 0.33013 0.03566 0.0
C687 C 0.94081 0.3039 0.03455 0.0
H688 H 0.02269 0.70207 0.27121 0.0
H689 H 0.08009 0.77017 0.30401 0.0
H690 H 0.03507 0.81047 0.30309 0.0
H691 H 0.97861 0.82556 0.29416 0.0
H692 H 0.92032 0.75712 0.26209 0.0
H693 H 0.96655 0.71796 0.26146 0.0
C694 C 0.02542 0.7258 0.27806 0.0
C695 C 0.05467 0.73298 0.28773 0.0
C696 C -0.00075 0.74884 0.27765 0.0
C697 C 0.05778 0.76387 0.29655 0.0
C698 C 0.03205 0.78699 0.29603 0.0
C699 C 0.97607 0.80221 0.28689 0.0
C700 C 0.94601 0.79429 0.27823 0.0
C701 C 0.00256 0.77961 0.28679 0.0
C702 C 0.94316 0.76384 0.26893 0.0
C703 C 0.96957 0.74139 0.26857 0.0
H704 H 0.537 0.67394 0.52399 0.0
H705 H 0.43656 0.7079 0.51587 0.0
H706 H 0.45629 0.76471 0.51236 0.0
H707 H 0.50144 0.80535 0.51418 0.0
H708 H 0.60185 0.77144 0.52244 0.0
H709 H 0.58271 0.71406 0.52313 0.0
C710 C 0.51944 0.6937 0.52126 0.0
C711 C 0.48533 0.68668 0.52042 0.0
C712 C 0.53091 0.72641 0.51938 0.0
C713 C 0.46296 0.71257 0.51669 0.0
C714 C 0.47419 0.74513 0.51473 0.0
C715 C 0.5192 0.7854 0.51595 0.0
C716 C 0.55296 0.79276 0.51848 0.0
C717 C 0.50802 0.75243 0.51646 0.0
C718 C 0.57567 0.76655 0.52056 0.0
C719 C 0.56475 0.73369 0.52101 0.0
H720 H 0.52075 0.21828 0.75547 0.0
H721 H 0.54366 0.2536 0.80978 0.0
H722 H 0.49602 0.29046 0.80901 0.0
H723 H 0.44755 0.31207 0.79344 0.0
H724 H 0.42264 0.2768 0.73945 0.0
H725 H 0.47154 0.24073 0.73955 0.0
C726 C 0.51529 0.23406 0.76711 0.0
C727 C 0.53577 0.23306 0.78267 0.0
C728 C 0.48759 0.25529 0.76665 0.0
C729 C 0.52834 0.2537 0.79764 0.0
C730 C 0.5011 0.2749 0.79723 0.0
C731 C 0.45281 0.29668 0.7816 0.0
C732 C 0.43143 0.29718 0.76646 0.0
C733 C 0.48055 0.27582 0.78185 0.0
C734 C 0.43869 0.27692 0.7513 0.0
C735 C 0.46661 0.25624 0.75136 0.0
H736 H 0.93723 0.72252 0.46384 0.0
H737 H 0.01278 0.79332 0.47881 0.0
H738 H 0.05361 0.74867 0.48081 0.0
H739 H 0.0686 0.68993 0.47632 0.0
H740 H 0.99275 0.61986 0.46066 0.0
H741 H 0.95138 0.66385 0.46099 0.0
C742 C 0.96255 0.72822 0.4677 0.0
C743 C 0.97195 0.76125 0.47103 0.0
C744 C 0.98595 0.70256 0.46859 0.0
C745 C 0.00487 0.76811 0.47609 0.0
C746 C 0.02828 0.7426 0.4772 0.0
C747 C 0.04297 0.68425 0.47313 0.0
C748 C 0.03389 0.65169 0.46832 0.0
C749 C 0.01922 0.70979 0.47317 0.0
C750 C 0.00054 0.64474 0.46427 0.0
C751 C 0.97679 0.66988 0.46445 0.0
H752 H 0.58863 0.74466 0.71057 0.0
H753 H 0.55051 0.84071 0.72633 0.0
H754 H 0.49541 0.81699 0.73056 0.0
H755 H 0.45733 0.76969 0.72805 0.0
H756 H 0.49558 0.67367 0.71228 0.0
H757 H 0.55128 0.69669 0.70992 0.0
C758 C 0.56834 0.76038 0.71505 0.0
C759 C 0.57369 0.79445 0.71798 0.0
C760 C 0.53665 0.74663 0.7174 0.0
C761 C 0.54712 0.8144 0.72392 0.0
C762 C 0.51554 0.80088 0.72631 0.0
C763 C 0.47788 0.75373 0.72423 0.0
C764 C 0.47217 0.72007 0.72021 0.0
C765 C 0.50991 0.76714 0.72282 0.0
C766 C 0.49917 0.69971 0.7154 0.0
C767 C 0.53108 0.71285 0.714 0.0
H768 H 0.48088 0.16559 0.94695 0.0
H769 H 0.56538 0.21816 0.96867 0.0
H770 H 0.53104 0.26736 0.97361 0.0
H771 H 0.47753 0.29609 0.97065 0.0
H772 H 0.3934 0.24335 0.94857 0.0
H773 H 0.42716 0.19355 0.94497 0.0
C774 C 0.49183 0.18774 0.95284 0.0
C775 C 0.52571 0.18821 0.95734 0.0
C776 C 0.47202 0.21596 0.95555 0.0
C777 C 0.53938 0.21712 0.96503 0.0
C778 C 0.51977 0.2453 0.96785 0.0
C779 C 0.4665 0.27365 0.96516 0.0
C780 C 0.43298 0.27354 0.95983 0.0
C781 C 0.48613 0.24509 0.96299 0.0
C782 C 0.41913 0.24421 0.95274 0.0
C783 C 0.43843 0.21569 0.95065 0.0
H784 H 0.06921 0.22443 0.20402 0.0
H785 H 0.00928 0.30576 0.22383 0.0
H786 H 0.96133 0.26903 0.22601 0.0
H787 H 0.93577 0.21455 0.22085 0.0
H788 H 0.9957 0.13337 0.20082 0.0
H789 H 0.04431 0.16935 0.20028 0.0
C790 C 0.04572 0.23413 0.20891 0.0
C791 C 0.04283 0.26788 0.21363 0.0
C792 C 0.0182 0.21292 0.21005 0.0
C793 C 0.01222 0.27993 0.22005 0.0
C794 C 0.98475 0.25894 0.22127 0.0
C795 C 0.9595 0.20462 0.21649 0.0
C796 C 0.96199 0.17132 0.21079 0.0
C797 C 0.98736 0.2255 0.2161 0.0
C798 C 0.993 0.1589 0.20524 0.0
C799 C 0.02084 0.17948 0.20489 0.0
H800 H 0.00644 0.66641 0.96496 0.0
H801 H 0.9228 0.72585 0.98201 0.0
H802 H 0.95938 0.7733 0.98702 0.0
H803 H 0.01459 0.79866 0.98487 0.0
H804 H 0.09798 0.73895 0.96765 0.0
H805 H 0.06194 0.69075 0.96455 0.0
C806 C 0.99618 0.6897 0.96984 0.0
C807 C 0.96192 0.69269 0.97293 0.0
C808 C 0.01729 0.71683 0.97265 0.0
C809 C 0.9491 0.72293 0.97945 0.0
C810 C 0.96998 0.75009 0.9823 0.0
C811 C 0.02495 0.77504 0.98061 0.0
C812 C 0.05889 0.7725 0.97637 0.0
C813 C 0.00405 0.74743 0.97871 0.0
C814 C 0.07193 0.74166 0.97094 0.0
C815 C 0.05133 0.71407 0.96911 0.0
H816 H 0.93301 0.25529 0.68582 0.0
H817 H 0.96388 0.31383 0.73222 0.0
H818 H 0.01211 0.27779 0.73634 0.0
H819 H 0.04583 0.23009 0.72643 0.0
H820 H 0.01367 0.171 0.68045 0.0
H821 H 0.96547 0.2068 0.67659 0.0
C822 C 0.95032 0.26026 0.69682 0.0
C823 C 0.94502 0.28733 0.70862 0.0
C824 C 0.97769 0.23928 0.69922 0.0
C825 C 0.96745 0.29316 0.72294 0.0
C826 C 0.99502 0.27258 0.72529 0.0
C827 C 0.02821 0.22498 0.71561 0.0
C828 C 0.03342 0.19795 0.70372 0.0
C829 C 0.00042 0.24561 0.71348 0.0
C830 C 0.01027 0.19158 0.68982 0.0
C831 C 0.98272 0.2121 0.68755 0.0
H832 H 0.5318 0.27788 0.47565 0.0
H833 H 0.51669 0.29886 0.41845 0.0
H834 H 0.48022 0.25107 0.41572 0.0
H835 H 0.45379 0.20257 0.42914 0.0
H836 H 0.46566 0.1821 0.48654 0.0
H837 H 0.50205 0.23054 0.48968 0.0
C838 C 0.5204 0.27197 0.46263 0.0
C839 C 0.52708 0.29177 0.44727 0.0
C840 C 0.49893 0.24458 0.46118 0.0
C841 C 0.5119 0.28409 0.43051 0.0
C842 C 0.4911 0.25669 0.4289 0.0
C843 C 0.46433 0.2087 0.44235 0.0
C844 C 0.45741 0.1887 0.45754 0.0
C845 C 0.48466 0.23667 0.44408 0.0
C846 C 0.47072 0.19721 0.47464 0.0
C847 C 0.49157 0.2248 0.47642 0.0
H848 H 0.39643 0.73385 0.21286 0.0
H849 H 0.45507 0.81558 0.23313 0.0
H850 H 0.50344 0.77935 0.2353 0.0
H851 H 0.52976 0.72528 0.22993 0.0
H852 H 0.47116 0.64372 0.20938 0.0
H853 H 0.42204 0.67909 0.20899 0.0
C854 C 0.41974 0.74374 0.21784 0.0
C855 C 0.42216 0.77745 0.22269 0.0
C856 C 0.44748 0.72282 0.21899 0.0
C857 C 0.45251 0.78976 0.22925 0.0
C858 C 0.48022 0.76906 0.23048 0.0
C859 C 0.5062 0.71512 0.22552 0.0
C860 C 0.50423 0.68192 0.21959 0.0
C861 C 0.47808 0.73566 0.22517 0.0
C862 C 0.47345 0.6692 0.21395 0.0
C863 C 0.44533 0.68943 0.21369 0.0
H864 H 0.94514 0.28038 0.52982 0.0
H865 H 0.01515 0.343 0.55818 0.0
H866 H 0.05539 0.29799 0.55857 0.0
H867 H 0.07036 0.24063 0.55167 0.0
H868 H 0.00049 0.17705 0.52392 0.0
H869 H 0.96066 0.22271 0.52243 0.0
C870 C 0.96924 0.28419 0.53602 0.0
C871 C 0.97704 0.315 0.54401 0.0
C872 C 0.99231 0.25804 0.53634 0.0
C873 C 0.00838 0.31952 0.55201 0.0
C874 C 0.03149 0.29379 0.55223 0.0
C875 C 0.0465 0.23674 0.5452 0.0
C876 C 0.03842 0.20546 0.53795 0.0
C877 C 0.02365 0.26292 0.54455 0.0
C878 C 0.00733 0.20088 0.52965 0.0
C879 C 0.98452 0.22697 0.5288 0.0
H880 H 0.42181 0.2456 0.28828 0.0
H881 H 0.47074 0.17409 0.25344 0.0
H882 H 0.51915 0.21027 0.25132 0.0
H883 H 0.54818 0.26153 0.26005 0.0
H884 H 0.49905 0.33274 0.29502 0.0
H885 H 0.45012 0.29733 0.29632 0.0
C886 C 0.443 0.2379 0.28018 0.0
C887 C 0.44264 0.20707 0.2711 0.0
C888 C 0.47077 0.25877 0.27905 0.0
C889 C 0.47032 0.19763 0.26061 0.0
C890 C 0.49805 0.21831 0.25939 0.0
C891 C 0.52672 0.2694 0.26789 0.0
C892 C 0.52737 0.29976 0.27745 0.0
C893 C 0.49864 0.24883 0.26866 0.0
C894 C 0.4993 0.30952 0.28753 0.0
C895 C 0.47128 0.28926 0.28831 0.0
H896 H 0.52075 0.81678 0.02629 0.0
H897 H 0.41954 0.78839 0.01527 0.0
H898 H 0.43682 0.7308 0.01107 0.0
H899 H 0.47978 0.68776 0.01361 0.0
H900 H 0.58063 0.71642 0.02551 0.0
H901 H 0.56435 0.77461 0.0261 0.0
C902 C 0.50248 0.79809 0.02277 0.0
C903 C 0.46886 0.80683 0.02135 0.0
C904 C 0.51248 0.76498 0.02064 0.0
C905 C 0.44558 0.78232 0.01659 0.0
C906 C 0.45542 0.74934 0.01423 0.0
C907 C 0.49829 0.70676 0.01607 0.0
C908 C 0.53127 0.69767 0.01975 0.0
C909 C 0.48868 0.74025 0.01669 0.0
C910 C 0.55498 0.72265 0.02282 0.0
C911 C 0.5457 0.75598 0.02319 0.0
H912 H 0.94177 0.77483 0.79829 0.0
H913 H 0.98973 0.70023 0.76507 0.0
H914 H 0.04081 0.73285 0.76499 0.0
H915 H 0.07259 0.78136 0.77562 0.0
H916 H 0.02412 0.85542 0.80905 0.0
H917 H 0.97254 0.82416 0.80773 0.0
C918 C 0.96331 0.76573 0.79093 0.0
C919 C 0.96196 0.73503 0.7818 0.0
C920 C 0.9926 0.78445 0.79105 0.0
C921 C 0.99008 0.72376 0.77225 0.0
C922 C 0.01935 0.74236 0.77223 0.0
C923 C 0.05071 0.79074 0.78254 0.0
C924 C 0.05235 0.82062 0.79252 0.0
C925 C 0.02101 0.77255 0.78179 0.0
C926 C 0.02368 0.83246 0.80133 0.0
C927 C 0.99411 0.81459 0.8006 0.0
H928 H 0.26395 0.36436 0.96258 0.0
H929 H 0.32564 0.36647 0.01073 0.0
H930 H 0.27648 0.3698 0.03008 0.0
H931 H 0.21619 0.37386 0.03333 0.0
H932 H 0.1544 0.37247 0.98521 0.0
H933 H 0.20347 0.36707 0.96588 0.0
C934 C 0.26667 0.36535 0.97731 0.0
C935 C 0.29846 0.36527 0.98517 0.0
C936 C 0.2383 0.36753 0.98837 0.0
C937 C 0.30149 0.36658 0.00429 0.0
C938 C 0.27338 0.36852 0.01539 0.0
C939 C 0.2134 0.37229 0.01862 0.0
C940 C 0.18166 0.3737 0.01075 0.0
C941 C 0.2417 0.36932 0.00757 0.0
C942 C 0.17854 0.37155 0.99165 0.0
C943 C 0.20659 0.36845 0.98057 0.0
H944 H 0.84242 0.05335 0.24649 0.0
H945 H 0.89571 0.00748 0.20188 0.0
H946 H 0.8908 0.95346 0.21663 0.0
H947 H 0.87061 0.91908 0.24194 0.0
H948 H 0.81651 0.96495 0.28627 0.0
H949 H 0.82251 0.01907 0.27184 0.0
C950 C 0.8531 0.03158 0.24001 0.0
C951 C 0.8694 0.0345 0.2231 0.0
C952 C 0.84994 0.00053 0.24848 0.0
C953 C 0.88297 0.00597 0.21488 0.0
C954 C 0.88016 0.97504 0.2233 0.0
C955 C 0.86014 0.9409 0.24846 0.0
C956 C 0.84309 0.93789 0.26515 0.0
C957 C 0.86355 0.972 0.24006 0.0
C958 C 0.82969 0.96647 0.2734 0.0
C959 C 0.83313 0.99749 0.26517 0.0
H960 H 0.20649 0.62346 0.50194 0.0
H961 H 0.23483 0.52956 0.47801 0.0
H962 H 0.29009 0.53481 0.49115 0.0
H963 H 0.33097 0.5668 0.50856 0.0
H964 H 0.30286 0.66081 0.53242 0.0
H965 H 0.24694 0.65469 0.52018 0.0
C966 C 0.22468 0.60405 0.49968 0.0
C967 C 0.21652 0.57624 0.48894 0.0
C968 C 0.25653 0.60728 0.50719 0.0
C969 C 0.24042 0.55129 0.48618 0.0
C970 C 0.27208 0.55427 0.49367 0.0
C971 C 0.31262 0.58595 0.51111 0.0
C972 C 0.32118 0.61429 0.52131 0.0
C973 C 0.28051 0.58231 0.50404 0.0
C974 C 0.297 0.63876 0.52457 0.0
C975 C 0.26499 0.6353 0.51758 0.0
H976 H 0.69585 0.06718 0.75752 0.0
H977 H 0.59283 0.0728 0.74189 0.0
H978 H 0.59569 0.01645 0.72958 0.0
H979 H 0.62703 0.96521 0.72396 0.0
H980 H 0.73016 0.95987 0.73941 0.0
H981 H 0.72757 0.0166 0.75113 0.0
C982 C 0.67401 0.05617 0.75137 0.0
C983 C 0.64413 0.07417 0.75069 0.0
C984 C 0.6758 0.02378 0.74436 0.0
C985 C 0.61615 0.05952 0.74259 0.0
C986 C 0.61773 0.02726 0.73559 0.0
C987 C 0.64897 0.97642 0.72989 0.0
C988 C 0.67871 0.95823 0.73089 0.0
C989 C 0.64736 0.00909 0.73653 0.0
C990 C 0.70694 0.97327 0.73849 0.0
C991 C 0.70549 0.00571 0.7452 0.0
H992 H 0.67854 0.57822 0.01302 0.0
H993 H 0.70183 0.67146 0.03923 0.0
H994 H 0.75687 0.67076 0.02533 0.0
H995 H 0.79721 0.64516 0.00453 0.0
H996 H 0.77362 0.55216 0.97814 0.0
H997 H 0.71985 0.5513 0.99343 0.0
C998 C 0.6957 0.59832 0.01579 0.0
C999 C 0.68598 0.62497 0.02703 0.0
C1000 C 0.72719 0.5979 0.00768 0.0
C1001 C 0.70862 0.65069 0.03057 0.0
C1002 C 0.74009 0.65036 0.02261 0.0
C1003 C 0.78039 0.62461 0.00218 0.0
C1004 C 0.78932 0.59891 0.9901 0.0
C1005 C 0.74945 0.62432 0.01094 0.0
C1006 C 0.76732 0.57235 0.98731 0.0
C1007 C 0.73654 0.57183 0.99603 0.0
H1008 H 0.11381 0.97923 0.78368 0.0
H1009 H 0.17656 0.92456 0.7464 0.0
H1010 H 0.18105 0.97331 0.7268 0.0
H1011 H 0.16779 0.03166 0.7205 0.0
H1012 H 0.10473 0.08597 0.75781 0.0
H1013 H 0.09975 0.03703 0.77712 0.0
C1014 C 0.12847 0.97791 0.77126 0.0
C1015 C 0.14491 0.94831 0.76656 0.0
C1016 C 0.13092 0.00597 0.76006 0.0
C1017 C 0.16366 0.94705 0.75037 0.0
C1018 C 0.16627 0.97492 0.73915 0.0
C1019 C 0.15293 0.03281 0.73284 0.0
C1020 C 0.13676 0.0625 0.73771 0.0
C1021 C 0.15011 0.00455 0.74391 0.0
C1022 C 0.11749 0.06347 0.75372 0.0
C1023 C 0.11462 0.0355 0.7648 0.0
H1024 H 0.79819 0.35574 0.51457 0.0
H1025 H 0.81964 0.45284 0.49282 0.0
H1026 H 0.7664 0.45328 0.47704 0.0
H1027 H 0.71367 0.42648 0.46966 0.0
H1028 H 0.69128 0.33 0.49195 0.0
H1029 H 0.74495 0.32906 0.50738 0.0
C1030 C 0.7913 0.3769 0.50629 0.0
C1031 C 0.81291 0.40416 0.50482 0.0
C1032 C 0.76043 0.37722 0.49745 0.0
C1033 C 0.80347 0.43154 0.49418 0.0
C1034 C 0.77301 0.43184 0.48516 0.0
C1035 C 0.72047 0.40523 0.4779 0.0
C1036 C 0.69849 0.37834 0.47962 0.0
C1037 C 0.75126 0.40489 0.48677 0.0
C1038 C 0.70769 0.35107 0.49042 0.0
C1039 C 0.73842 0.35047 0.49921 0.0
H1040 H 0.36841 0.06279 0.26776 0.0
H1041 H 0.27681 0.08852 0.24084 0.0
H1042 H 0.27376 0.03305 0.2275 0.0
H1043 H 0.29631 0.97697 0.22403 0.0
H1044 H 0.38715 0.95053 0.25151 0.0
H1045 H 0.39116 0.00655 0.26415 0.0
C1046 C 0.34791 0.05635 0.25887 0.0
C1047 C 0.3229 0.0798 0.25529 0.0
C1048 C 0.34603 0.02423 0.25145 0.0
C1049 C 0.29637 0.07095 0.24385 0.0
C1050 C 0.29457 0.03921 0.23623 0.0
C1051 C 0.31702 0.98341 0.23278 0.0
C1052 C 0.34135 0.95954 0.23683 0.0
C1053 C 0.31911 0.01559 0.24005 0.0
C1054 C 0.36799 0.96837 0.24821 0.0
C1055 C 0.37036 0.00043 0.25542 0.0
H1056 H 0.80957 0.91451 0.47992 0.0
H1057 H 0.84042 0.81545 0.49447 0.0
H1058 H 0.78679 0.80544 0.50889 0.0
H1059 H 0.73091 0.82446 0.51703 0.0
H1060 H 0.69968 0.92317 0.50202 0.0
H1061 H 0.75369 0.93357 0.48812 0.0
C1062 C 0.80463 0.89076 0.4863 0.0
C1063 C 0.82902 0.8658 0.48611 0.0
C1064 C 0.77363 0.88504 0.49445 0.0
C1065 C 0.82211 0.83512 0.49439 0.0
C1066 C 0.79142 0.82934 0.50264 0.0
C1067 C 0.7359 0.84828 0.51074 0.0
C1068 C 0.71124 0.87297 0.51058 0.0
C1069 C 0.76696 0.85407 0.50269 0.0
C1070 C 0.71816 0.90367 0.50233 0.0
C1071 C 0.74907 0.90968 0.49438 0.0
H1072 H 0.30525 0.5562 0.73146 0.0
H1073 H 0.40951 0.56498 0.74387 0.0
H1074 H 0.40865 0.51078 0.75856 0.0
H1075 H 0.37872 0.46047 0.76738 0.0
H1076 H 0.27435 0.45169 0.75535 0.0
H1077 H 0.27491 0.50631 0.741 0.0
C1078 C 0.32777 0.54632 0.73742 0.0
C1079 C 0.3574 0.56463 0.73649 0.0
C1080 C 0.32714 0.51508 0.74586 0.0
C1081 C 0.38633 0.55145 0.74436 0.0
C1082 C 0.38591 0.5204 0.75274 0.0
C1083 C 0.35608 0.47046 0.76162 0.0
C1084 C 0.32658 0.45193 0.76238 0.0
C1085 C 0.35652 0.50193 0.75347 0.0
C1086 C 0.29742 0.4654 0.75495 0.0
C1087 C 0.29771 0.49664 0.74673 0.0
H1088 H 0.8081 0.15178 0.00063 0.0
H1089 H 0.79314 0.04611 0.00562 0.0
H1090 H 0.73785 0.05159 0.99243 0.0
H1091 H 0.69433 0.08614 0.9789 0.0
H1092 H 0.70959 0.19171 0.97358 0.0
H1093 H 0.76423 0.18644 0.98757 0.0
C1094 C 0.79276 0.12992 -0.00112 0.0
C1095 C 0.80483 0.09856 0.00406 0.0
C1096 C 0.76106 0.13321 0.99123 0.0
C1097 C 0.78454 0.07054 0.00171 0.0
C1098 C 0.7529 0.07364 0.99417 0.0
C1099 C 0.70952 0.10805 0.98085 0.0
C1100 C 0.69787 0.13927 0.97515 0.0
C1101 C 0.74099 0.10483 0.9888 0.0
C1102 C 0.71793 0.16737 0.9778 0.0
C1103 C 0.74921 0.16438 0.98579 0.0
H1104 H 0.09742 0.55161 0.26106 0.0
H1105 H 0.18632 0.57973 0.23208 0.0
H1106 H 0.18803 0.52547 0.21721 0.0
H1107 H 0.16532 0.46957 0.21312 0.0
H1108 H 0.07721 0.44084 0.24264 0.0
H1109 H 0.07427 0.49584 0.25665 0.0
C1110 C 0.11703 0.54599 0.25138 0.0
C1111 C 0.1417 0.56973 0.24769 0.0
C1112 C 0.11815 0.51456 0.24307 0.0
C1113 C 0.16705 0.56192 0.2352 0.0
C1114 C 0.16808 0.53087 0.2267 0.0
C1115 C 0.14542 0.4753 0.22259 0.0
C1116 C 0.12157 0.45105 0.22684 0.0
C1117 C 0.14396 0.5069 0.23067 0.0
C1118 C 0.09597 0.45897 0.23916 0.0
C1119 C 0.09423 0.49045 0.24716 0.0
H1120 H 0.21563 0.07966 0.53287 0.0
H1121 H 0.15803 0.14133 0.49667 0.0
H1122 H 0.20699 0.15115 0.47785 0.0
H1123 H 0.26601 0.1421 0.47157 0.0
H1124 H 0.32362 0.0802 0.50764 0.0
H1125 H 0.27476 0.07075 0.52663 0.0
C1126 C 0.21374 0.09523 0.52086 0.0
C1127 C 0.18317 0.10969 0.5162 0.0
C1128 C 0.24201 0.10082 0.51009 0.0
C1129 C 0.18123 0.12984 0.50058 0.0
C1130 C 0.20923 0.13552 0.48981 0.0
C1131 C 0.26795 0.12662 0.48362 0.0
C1132 C 0.29845 0.11191 0.48816 0.0
C1133 C 0.23973 0.12114 0.49443 0.0
C1134 C 0.30045 0.09184 0.5038 0.0
C1135 C 0.27251 0.08639 0.51468 0.0
H1136 H 0.60156 0.43932 0.25448 0.0
H1137 H 0.68701 0.41783 0.22087 0.0
H1138 H 0.68751 0.47505 0.20998 0.0
H1139 H 0.66473 0.53146 0.21069 0.0
H1140 H 0.58007 0.55324 0.24486 0.0
H1141 H 0.57837 0.49556 0.25491 0.0
C1142 C 0.62014 0.44704 0.24465 0.0
C1143 C 0.6442 0.4243 0.23849 0.0
C1144 C 0.6206 0.48008 0.23867 0.0
C1145 C 0.66822 0.43482 0.22585 0.0
C1146 C 0.66858 0.46756 0.21964 0.0
C1147 C 0.64588 0.52363 0.22034 0.0
C1148 C 0.62263 0.54669 0.22705 0.0
C1149 C 0.64509 0.49046 0.2261 0.0
C1150 C 0.59835 0.53606 0.23952 0.0
C1151 C 0.59731 0.50305 0.24525 0.0
H1152 H 0.21472 0.92769 0.98818 0.0
H1153 H 0.17607 0.8389 0.01326 0.0
H1154 H 0.22882 0.82998 0.02874 0.0
H1155 H 0.28666 0.84596 0.03408 0.0
H1156 H 0.32536 0.9346 0.00887 0.0
H1157 H 0.27179 0.94499 0.99459 0.0
C1158 C 0.21774 0.90649 0.99711 0.0
C1159 C 0.19153 0.88392 -0.00055 0.0
C1160 C 0.2482 0.90137 0.0059 0.0
C1161 C 0.19586 0.85664 0.01115 0.0
C1162 C 0.22605 0.85146 0.02 0.0
C1163 C 0.28336 0.86763 0.02553 0.0
C1164 C 0.31007 0.88932 0.02247 0.0
C1165 C 0.25251 0.87344 0.01729 0.0
C1166 C 0.30527 0.91741 0.01143 0.0
C1167 C 0.27463 0.92338 0.00322 0.0
H1168 H 0.84541 0.44733 0.74633 0.0
H1169 H 0.93558 0.46771 0.71657 0.0
H1170 H 0.93603 0.52433 0.72853 0.0
H1171 H 0.91076 0.56809 0.74738 0.0
H1172 H 0.82041 0.54755 0.77697 0.0
H1173 H 0.82005 0.49104 0.765 0.0
C1174 C 0.86526 0.46409 0.74251 0.0
C1175 C 0.89046 0.45325 0.7306 0.0
C1176 C 0.86525 0.49667 0.74931 0.0
C1177 C 0.91587 0.47538 0.72572 0.0
C1178 C 0.91614 0.5078 0.73253 0.0
C1179 C 0.89092 0.55131 0.75116 0.0
C1180 C 0.86566 0.56209 0.76305 0.0
C1181 C 0.8909 0.51874 0.74429 0.0
C1182 C 0.84018 0.53995 0.76783 0.0
C1183 C 0.83996 0.50757 0.76103 0.0
H1184 H 0.12052 0.35611 0.08494 0.0
H1185 H 0.05176 0.43485 0.0981 0.0
H1186 H 0.06012 0.4249 0.13062 0.0
H1187 H 0.08548 0.39281 0.15526 0.0
H1188 H 0.15391 0.31375 0.14223 0.0
H1189 H 0.14715 0.32498 0.10968 0.0
C1190 C 0.10745 0.37121 0.09491 0.0
C1191 C 0.08544 0.3961 0.08907 0.0
C1192 C 0.11222 0.36525 0.1136 0.0
C1193 C 0.0688 0.41547 0.10219 0.0
C1194 C 0.07352 0.40978 0.1208 0.0
C1195 C 0.09901 0.37806 0.14533 0.0
C1196 C 0.12005 0.35237 0.15119 0.0
C1197 C 0.09493 0.38456 0.12665 0.0
C1198 C 0.13748 0.33362 0.13811 0.0
C1199 C 0.13362 0.34001 0.11948 0.0
H1200 H 0.85682 0.88672 0.39822 0.0
H1201 H 0.92701 0.80749 0.40725 0.0
H1202 H 0.92057 0.78912 0.37573 0.0
H1203 H 0.89576 0.7958 0.34548 0.0
H1204 H 0.8267 0.87572 0.33594 0.0
H1205 H 0.83182 0.89336 0.36778 0.0
C1206 C 0.8707 0.86543 0.3933 0.0
C1207 C 0.8924 0.84859 0.40512 0.0
C1208 C 0.86703 0.85501 0.37506 0.0
C1209 C 0.91022 0.82105 0.39847 0.0
C1210 C 0.90651 0.81043 0.38043 0.0
C1211 C 0.88163 0.81694 0.35038 0.0
C1212 C 0.86081 0.83433 0.33835 0.0
C1213 C 0.88504 0.82724 0.36861 0.0
C1214 C 0.84291 0.86186 0.34491 0.0
C1215 C 0.84586 0.87201 0.36312 0.0
H1216 H 0.37973 0.6065 0.65703 0.0
H1217 H 0.41693 0.70482 0.6458 0.0
H1218 H 0.42349 0.69047 0.61363 0.0
H1219 H 0.41943 0.65004 0.58878 0.0
H1220 H 0.38167 0.55185 0.59963 0.0
H1221 H 0.37467 0.56616 0.63188 0.0
C1222 C 0.38917 0.62483 0.64754 0.0
C1223 C 0.39787 0.65668 0.65386 0.0
C1224 C 0.39293 0.61642 0.62901 0.0
C1225 C 0.41002 0.68013 0.64135 0.0
C1226 C 0.41386 0.67194 0.62293 0.0
C1227 C 0.40975 0.63168 0.59818 0.0
C1228 C 0.40124 0.59986 0.5918 0.0
C1229 C 0.40557 0.64013 0.61664 0.0
C1230 C 0.38847 0.57652 0.60417 0.0
C1231 C 0.38444 0.58469 0.62262 0.0
H1232 H 0.59739 0.12185 0.82578 0.0
H1233 H 0.68359 0.18115 0.83825 0.0
H1234 H 0.67726 0.16834 0.87068 0.0
H1235 H 0.64573 0.14239 0.89557 0.0
H1236 H 0.55929 0.08352 0.88289 0.0
H1237 H 0.56739 0.09407 0.85041 0.0
C1238 C 0.61494 0.13188 0.83555 0.0
C1239 C 0.64082 0.15261 0.82959 0.0
C1240 C 0.61105 0.12459 0.85414 0.0
C1241 C 0.66341 0.16519 0.84245 0.0
C1242 C 0.65976 0.15793 0.86101 0.0
C1243 C 0.62874 0.13171 0.8857 0.0
C1244 C 0.60182 0.11235 0.89169 0.0
C1245 C 0.63344 0.13799 0.86702 0.0
C1246 C 0.58016 0.0986 0.8787 0.0
C1247 C 0.58474 0.10464 0.8601 0.0
H1248 H 0.17649 0.63417 0.35194 0.0
H1249 H 0.08041 0.60104 0.33344 0.0
H1250 H 0.06727 0.58139 0.36405 0.0
H1251 H 0.08191 0.57581 0.39634 0.0
H1252 H 0.17724 0.61034 0.41517 0.0
H1253 H 0.19185 0.62695 0.38415 0.0
C1254 C 0.15275 0.6225 0.35457 0.0
C1255 C 0.12945 0.61926 0.34042 0.0
C1256 C 0.14517 0.61149 0.37228 0.0
C1257 C 0.09878 0.60405 0.34409 0.0
C1258 C 0.09122 0.59275 0.3616 0.0
C1259 C 0.10601 0.58667 0.39365 0.0
C1260 C 0.12837 0.5919 0.40807 0.0
C1261 C 0.11407 0.59665 0.37584 0.0
C1262 C 0.15947 0.60614 0.40433 0.0
C1263 C 0.16785 0.6157 0.38659 0.0
H1264 H 0.57236 0.88464 0.65207 0.0
H1265 H 0.67744 0.8646 0.64958 0.0
H1266 H 0.67562 0.86627 0.61627 0.0
H1267 H 0.64413 0.87289 0.58784 0.0
H1268 H 0.53892 0.89222 0.59042 0.0
H1269 H 0.54095 0.89137 0.62371 0.0
C1270 C 0.5949 0.8807 0.64426 0.0
C1271 C 0.62497 0.87451 0.65332 0.0
C1272 C 0.59368 0.88153 0.62511 0.0
C1273 C 0.65392 0.86938 0.64296 0.0
C1274 C 0.65293 0.87033 0.6239 0.0
C1275 C 0.62166 0.87699 0.59567 0.0
C1276 C 0.59144 0.88261 0.58663 0.0
C1277 C 0.62293 0.87632 0.61483 0.0
C1278 C 0.56253 0.88779 0.59701 0.0
C1279 C 0.56364 0.88732 0.61606 0.0
H1280 H 0.39374 0.36857 0.84135 0.0
H1281 H 0.29064 0.38343 0.85503 0.0
H1282 H 0.30506 0.38695 0.88746 0.0
H1283 H 0.34698 0.38416 0.91195 0.0
H1284 H 0.4498 0.36871 0.89769 0.0
H1285 H 0.43534 0.36726 0.86541 0.0
C1286 C 0.37432 0.37263 0.85137 0.0
C1287 C 0.34111 0.37557 0.84574 0.0
C1288 C 0.38275 0.37455 0.86991 0.0
C1289 C 0.31639 0.381 0.85897 0.0
C1290 C 0.32463 0.38302 0.87752 0.0
C1291 C 0.36625 0.38072 0.90177 0.0
C1292 C 0.39944 0.37648 0.90727 0.0
C1293 C 0.35773 0.37963 0.88315 0.0
C1294 C 0.42406 0.37195 0.89389 0.0
C1295 C 0.41583 0.37107 0.8754 0.0
H1296 H 0.91068 0.16384 0.14183 0.0
H1297 H 0.82372 0.1054 0.1537 0.0
H1298 H 0.81906 0.09015 0.12146 0.0
H1299 H 0.83978 0.0935 0.08982 0.0
H1300 H 0.92777 0.15091 0.07847 0.0
H1301 H 0.93193 0.16628 0.11057 0.0
C1302 C 0.89061 0.14788 0.13737 0.0
C1303 C 0.86749 0.13595 0.15015 0.0
C1304 C 0.88832 0.13888 0.11889 0.0
C1305 C 0.84184 0.11498 0.14415 0.0
C1306 C 0.83916 0.10623 0.12571 0.0
C1307 C 0.85989 0.10932 0.09438 0.0
C1308 C 0.88337 0.12102 0.08171 0.0
C1309 C 0.8623 0.11801 0.11295 0.0
C1310 C 0.90937 0.14141 0.08789 0.0
C1311 C 0.91176 0.15033 0.10626 0.0
H1312 H 0.8342 0.6673 0.84946 0.0
H1313 H 0.92392 0.61704 0.83279 0.0
H1314 H 0.93494 0.60158 0.86434 0.0
H1315 H 0.92013 0.60359 0.89672 0.0
H1316 H 0.83094 0.65442 0.91368 0.0
H1317 H 0.81867 0.6682 0.88194 0.0
C1318 C 0.8561 0.65288 0.85272 0.0
C1319 C 0.87823 0.64349 0.83877 0.0
C1320 C 0.86243 0.64416 0.87094 0.0
C1321 C 0.90649 0.62475 0.84324 0.0
C1322 C 0.91285 0.61585 0.8613 0.0
C1323 C 0.89791 0.61754 0.8935 0.0
C1324 C 0.87657 0.62802 0.90757 0.0
C1325 C 0.89113 0.62561 0.87526 0.0
C1326 C 0.84787 0.64609 0.90311 0.0
C1327 C 0.84082 0.65402 0.88496 0.0
H1328 H 0.12023 0.1544 0.59169 0.0
H1329 H 0.1102 0.05139 0.60674 0.0
H1330 H 0.12253 0.06541 0.63852 0.0
H1331 H 0.13296 0.10737 0.66226 0.0
H1332 H 0.1419 0.21044 0.64708 0.0
H1333 H 0.1335 0.19579 0.61507 0.0
C1334 C 0.12088 0.13493 0.60188 0.0
C1335 C 0.11402 0.10192 0.59684 0.0
C1336 C 0.12779 0.14317 0.62011 0.0
C1337 C 0.11523 0.07703 0.61023 0.0
C1338 C 0.12227 0.08502 0.62842 0.0
C1339 C 0.13346 0.1266 0.65194 0.0
C1340 C 0.13789 0.15999 0.6571 0.0
C1341 C 0.12815 0.11808 0.63355 0.0
C1342 C 0.13842 0.18457 0.64352 0.0
C1343 C 0.13354 0.17623 0.6252 0.0
H1344 H 0.61679 0.40803 0.38549 0.0
H1345 H 0.64014 0.31046 0.40605 0.0
H1346 H 0.64902 0.29036 0.37502 0.0
H1347 H 0.64705 0.29945 0.34195 0.0
H1348 H 0.62354 0.39687 0.32128 0.0
H1349 H 0.61807 0.41794 0.3524 0.0
C1350 C 0.62408 0.38244 0.3832 0.0
C1351 C 0.62752 0.36079 0.3981 0.0
C1352 C 0.629 0.37089 0.36527 0.0
C1353 C 0.63715 0.32772 0.39486 0.0
C1354 C 0.64219 0.31611 0.37709 0.0
C1355 C 0.64095 0.32534 0.34423 0.0
C1356 C 0.63547 0.34642 0.32928 0.0
C1357 C 0.63768 0.33733 0.36218 0.0
C1358 C 0.62779 0.37999 0.33252 0.0
C1359 C 0.62459 0.39211 0.35033 0.0
H1360 H 0.3452 0.90781 0.10173 0.0
H1361 H 0.44401 0.86951 0.0931 0.0
H1362 H 0.449 0.85748 0.12559 0.0
H1363 H 0.42531 0.85745 0.15644 0.0
H1364 H 0.32606 0.89451 0.16507 0.0
H1365 H 0.32131 0.90737 0.13261 0.0
C1366 C 0.36787 0.89694 0.10696 0.0
C1367 C 0.39419 0.88967 0.09498 0.0
C1368 C 0.37051 0.88979 0.12567 0.0
C1369 C 0.42333 0.87537 0.10199 0.0
C1370 C 0.42624 0.86847 0.12059 0.0
C1371 C 0.40266 0.8684 0.15124 0.0
C1372 C 0.37613 0.87503 0.16317 0.0
C1373 C 0.39998 0.87552 0.13255 0.0
C1374 C 0.34686 0.88905 0.15617 0.0
C1375 C 0.34412 0.89647 0.13761 0.0
H1376 H 0.87792 0.4011 0.66141 0.0
H1377 H 0.80881 0.323 0.648 0.0
H1378 H 0.81743 0.33336 0.61547 0.0
H1379 H 0.84726 0.36216 0.59095 0.0
H1380 H 0.91671 0.4399 0.60451 0.0
H1381 H 0.90505 0.43217 0.63693 0.0
C1382 C 0.86455 0.38645 0.65139 0.0
C1383 C 0.84298 0.36109 0.65714 0.0
C1384 C 0.86977 0.39237 0.63275 0.0
C1385 C 0.82563 0.34259 0.64396 0.0
C1386 C 0.83061 0.34844 0.62535 0.0
C1387 C 0.85969 0.37759 0.60098 0.0
C1388 C 0.88306 0.40137 0.5953 0.0
C1389 C 0.85304 0.37289 0.61961 0.0
C1390 C 0.89872 0.42132 0.60848 0.0
C1391 C 0.89213 0.41688 0.62704 0.0
H1392 H 0.35611 0.10925 0.3396 0.0
H1393 H 0.33731 0.20972 0.35751 0.0
H1394 H 0.34376 0.19271 0.38927 0.0
H1395 H 0.35722 0.15005 0.4118 0.0
H1396 H 0.37695 0.04972 0.39396 0.0
H1397 H 0.36733 0.06599 0.36229 0.0
C1398 C 0.35326 0.12743 0.35044 0.0
C1399 C 0.34643 0.16077 0.34615 0.0
C1400 C 0.35718 0.11754 0.36868 0.0
C1401 C 0.34267 0.18393 0.3604 0.0
C1402 C 0.34637 0.17424 0.37858 0.0
C1403 C 0.35919 0.13162 0.40102 0.0
C1404 C 0.36797 0.09872 0.40526 0.0
C1405 C 0.35398 0.1412 0.38285 0.0
C1406 C 0.37032 0.07522 0.3911 0.0
C1407 C 0.36489 0.08452 0.37297 0.0
H1408 H 0.62184 0.61018 0.16034 0.0
H1409 H 0.5614 0.69698 0.15101 0.0
H1410 H 0.55746 0.68292 0.11866 0.0
H1411 H 0.57098 0.64616 0.09308 0.0
H1412 H 0.63221 0.55985 0.10204 0.0
H1413 H 0.63577 0.57347 0.13455 0.0
C1414 C 0.60789 0.6261 0.15123 0.0
C1415 C 0.59196 0.65462 0.15812 0.0
C1416 C 0.60567 0.61787 0.13261 0.0
C1417 C 0.57398 0.67493 0.1461 0.0
C1418 C 0.57161 0.66687 0.12759 0.0
C1419 C 0.58495 0.63016 0.10214 0.0
C1420 C 0.60119 0.60194 0.09514 0.0
C1421 C 0.58726 0.63836 0.12072 0.0
C1422 C 0.61943 0.58169 0.10707 0.0
C1423 C 0.62153 0.5895 0.12566 0.0
H1424 H 0.15171 0.81409 0.86195 0.0
H1425 H 0.14146 0.91385 0.84144 0.0
H1426 H 0.12969 0.93409 0.87226 0.0
H1427 H 0.12006 0.92304 0.90494 0.0
H1428 H 0.13043 0.82294 0.9251 0.0
H1429 H 0.14444 0.80346 0.89457 0.0
C1430 C 0.14708 0.8403 0.86421 0.0
C1431 C 0.14735 0.86234 0.84938 0.0
C1432 C 0.14021 0.85176 0.88194 0.0
C1433 C 0.14145 0.89628 0.8526 0.0
C1434 C 0.13461 0.90789 0.87023 0.0
C1435 C 0.12553 0.897 0.90267 0.0
C1436 C 0.12396 0.87454 0.91732 0.0
C1437 C 0.13357 0.8858 0.88499 0.0
C1438 C 0.13127 0.84086 0.91411 0.0
C1439 C 0.1393 0.82961 0.89662 0.0
loop_
_geom_bond_atom_site_label_1
_geom_bond_atom_site_label_2
_geom_bond_distance
_geom_bond_site_symmetry_2
_ccdc_geom_bond_type
C0 O1 1.160 . S
C0 O7 1.185 . S
O1 C0 1.160 . S
O2 Zn3 1.899 . S
O2 C10 1.284 . S
Zn3 O2 1.899 . S
Zn3 O4 2.032 . S
Zn3 O7 2.086 . S
Zn3 O12 1.977 . S
O4 Zn3 2.032 . S
O4 C8 1.278 . S
C5 O6 1.203 . S
C5 O12 1.267 . S
O6 C5 1.203 . S
O7 C0 1.185 . S
O7 Zn3 2.086 . S
C8 O4 1.278 . S
C8 O9 1.211 . S
O9 C8 1.211 . S
C10 O2 1.284 . S
C10 O11 1.273 . S
O11 C10 1.273 . S
O12 Zn3 1.977 . S
O12 C5 1.267 . S
C13 O14 1.160 . S
C13 O20 1.185 . S
O14 C13 1.160 . S
O15 Zn16 1.899 . S
O15 C23 1.284 . S
Zn16 O15 1.899 . S
Zn16 O17 2.032 . S
Zn16 O20 2.086 . S
Zn16 O25 1.977 . S
O17 Zn16 2.032 . S
O17 C21 1.278 . S
C18 O19 1.203 . S
C18 O25 1.267 . S
O19 C18 1.203 . S
O20 C13 1.185 . S
O20 Zn16 2.086 . S
C21 O17 1.278 . S
C21 O22 1.211 . S
O22 C21 1.211 . S
C23 O15 1.284 . S
C23 O24 1.273 . S
O24 C23 1.273 . S
O25 Zn16 1.977 . S
O25 C18 1.267 . S
C26 O27 1.160 . S
C26 O33 1.185 . S
O27 C26 1.160 . S
O28 Zn29 1.899 . S
O28 C36 1.284 . S
Zn29 O28 1.899 . S
Zn29 O30 2.032 . S
Zn29 O33 2.086 . S
Zn29 O38 1.977 . S
O30 Zn29 2.032 . S
O30 C34 1.278 . S
C31 O32 1.203 . S
C31 O38 1.267 . S
O32 C31 1.203 . S
O33 C26 1.185 . S
O33 Zn29 2.086 . S
C34 O30 1.278 . S
C34 O35 1.211 . S
O35 C34 1.211 . S
C36 O28 1.284 . S
C36 O37 1.273 . S
O37 C36 1.273 . S
O38 Zn29 1.977 . S
O38 C31 1.267 . S
C39 O40 1.160 . S
C39 O46 1.185 . S
O40 C39 1.160 . S
O41 Zn42 1.899 . S
O41 C49 1.284 . S
Zn42 O41 1.899 . S
Zn42 O43 2.032 . S
Zn42 O46 2.086 . S
Zn42 O51 1.977 . S
O43 Zn42 2.032 . S
O43 C47 1.278 . S
C44 O45 1.203 . S
C44 O51 1.267 . S
O45 C44 1.203 . S
O46 C39 1.185 . S
O46 Zn42 2.086 . S
C47 O43 1.278 . S
C47 O48 1.211 . S
O48 C47 1.211 . S
C49 O41 1.284 . S
C49 O50 1.273 . S
O50 C49 1.273 . S
O51 Zn42 1.977 . S
O51 C44 1.267 . S
C52 O53 1.160 . S
C52 O59 1.185 . S
O53 C52 1.160 . S
O54 Zn55 1.899 . S
O54 C62 1.284 . S
Zn55 O54 1.899 . S
Zn55 O56 2.032 . S
Zn55 O59 2.086 . S
Zn55 O64 1.977 . S
O56 Zn55 2.032 . S
O56 C60 1.278 . S
C57 O58 1.203 . S
C57 O64 1.267 . S
O58 C57 1.203 . S
O59 C52 1.185 . S
O59 Zn55 2.086 . S
C60 O56 1.278 . S
C60 O61 1.211 . S
O61 C60 1.211 . S
C62 O54 1.284 . S
C62 O63 1.273 . S
O63 C62 1.273 . S
O64 Zn55 1.977 . S
O64 C57 1.267 . S
C65 O66 1.160 . S
C65 O72 1.185 . S
O66 C65 1.160 . S
O67 Zn68 1.899 . S
O67 C75 1.284 . S
Zn68 O67 1.899 . S
Zn68 O69 2.032 . S
Zn68 O72 2.086 . S
Zn68 O77 1.977 . S
O69 Zn68 2.032 . S
O69 C73 1.278 . S
C70 O71 1.203 . S
C70 O77 1.267 . S
O71 C70 1.203 . S
O72 C65 1.185 . S
O72 Zn68 2.086 . S
C73 O69 1.278 . S
C73 O74 1.211 . S
O74 C73 1.211 . S
C75 O67 1.284 . S
C75 O76 1.273 . S
O76 C75 1.273 . S
O77 Zn68 1.977 . S
O77 C70 1.267 . S
C78 O79 1.160 . S
C78 O85 1.185 . S
O79 C78 1.160 . S
O80 Zn81 1.899 . S
O80 C88 1.284 . S
Zn81 O80 1.899 . S
Zn81 O82 2.032 . S
Zn81 O85 2.086 . S
Zn81 O90 1.977 . S
O82 Zn81 2.032 . S
O82 C86 1.278 . S
C83 O84 1.203 . S
C83 O90 1.267 . S
O84 C83 1.203 . S
O85 C78 1.185 . S
O85 Zn81 2.086 . S
C86 O82 1.278 . S
C86 O87 1.211 . S
O87 C86 1.211 . S
C88 O80 1.284 . S
C88 O89 1.273 . S
O89 C88 1.273 . S
O90 Zn81 1.977 . S
O90 C83 1.267 . S
C91 O92 1.160 . S
C91 O98 1.185 . S
O92 C91 1.160 . S
O93 Zn94 1.899 . S
O93 C101 1.284 . S
Zn94 O93 1.899 . S
Zn94 O95 2.032 . S
Zn94 O98 2.086 . S
Zn94 O103 1.977 . S
O95 Zn94 2.032 . S
O95 C99 1.278 . S
C96 O97 1.203 . S
C96 O103 1.267 . S
O97 C96 1.203 . S
O98 C91 1.185 . S
O98 Zn94 2.086 . S
C99 O95 1.278 . S
C99 O100 1.211 . S
O100 C99 1.211 . S
C101 O93 1.284 . S
C101 O102 1.273 . S
O102 C101 1.273 . S
O103 Zn94 1.977 . S
O103 C96 1.267 . S
C104 O105 1.160 . S
C104 O111 1.185 . S
O105 C104 1.160 . S
O106 Zn107 1.899 . S
O106 C114 1.284 . S
Zn107 O106 1.899 . S
Zn107 O108 2.032 . S
Zn107 O111 2.086 . S
Zn107 O116 1.977 . S
O108 Zn107 2.032 . S
O108 C112 1.278 . S
C109 O110 1.203 . S
C109 O116 1.267 . S
O110 C109 1.203 . S
O111 C104 1.185 . S
O111 Zn107 2.086 . S
C112 O108 1.278 . S
C112 O113 1.211 . S
O113 C112 1.211 . S
C114 O106 1.284 . S
C114 O115 1.273 . S
O115 C114 1.273 . S
O116 Zn107 1.977 . S
O116 C109 1.267 . S
C117 O118 1.160 . S
C117 O124 1.185 . S
O118 C117 1.160 . S
O119 Zn120 1.899 . S
O119 C127 1.284 . S
Zn120 O119 1.899 . S
Zn120 O121 2.032 . S
Zn120 O124 2.086 . S
Zn120 O129 1.977 . S
O121 Zn120 2.032 . S
O121 C125 1.278 . S
C122 O123 1.203 . S
C122 O129 1.267 . S
O123 C122 1.203 . S
O124 C117 1.185 . S
O124 Zn120 2.086 . S
C125 O121 1.278 . S
C125 O126 1.211 . S
O126 C125 1.211 . S
C127 O119 1.284 . S
C127 O128 1.273 . S
O128 C127 1.273 . S
O129 Zn120 1.977 . S
O129 C122 1.267 . S
C130 O131 1.160 . S
C130 O137 1.185 . S
O131 C130 1.160 . S
O132 Zn133 1.899 . S
O132 C140 1.284 . S
Zn133 O132 1.899 . S
Zn133 O134 2.032 . S
Zn133 O137 2.086 . S
Zn133 O142 1.977 . S
O134 Zn133 2.032 . S
O134 C138 1.278 . S
C135 O136 1.203 . S
C135 O142 1.267 . S
O136 C135 1.203 . S
O137 C130 1.185 . S
O137 Zn133 2.086 . S
C138 O134 1.278 . S
C138 O139 1.211 . S
O139 C138 1.211 . S
C140 O132 1.284 . S
C140 O141 1.273 . S
O141 C140 1.273 . S
O142 Zn133 1.977 . S
O142 C135 1.267 . S
C143 O144 1.160 . S
C143 O150 1.185 . S
O144 C143 1.160 . S
O145 Zn146 1.899 . S
O145 C153 1.284 . S
Zn146 O145 1.899 . S
Zn146 O147 2.032 . S
Zn146 O150 2.086 . S
Zn146 O155 1.977 . S
O147 Zn146 2.032 . S
O147 C151 1.278 . S
C148 O149 1.203 . S
C148 O155 1.267 . S
O149 C148 1.203 . S
O150 C143 1.185 . S
O150 Zn146 2.086 . S
C151 O147 1.278 . S
C151 O152 1.211 . S
O152 C151 1.211 . S
C153 O145 1.284 . S
C153 O154 1.273 . S
O154 C153 1.273 . S
O155 Zn146 1.977 . S
O155 C148 1.267 . S
C156 O157 1.160 . S
C156 O163 1.185 . S
O157 C156 1.160 . S
O158 Zn159 1.899 . S
O158 C166 1.284 . S
Zn159 O158 1.899 . S
Zn159 O160 2.032 . S
Zn159 O163 2.086 . S
Zn159 O168 1.977 . S
O160 Zn159 2.032 . S
O160 C164 1.278 . S
C161 O162 1.203 . S
C161 O168 1.267 . S
O162 C161 1.203 . S
O163 C156 1.185 . S
O163 Zn159 2.086 . S
C164 O160 1.278 . S
C164 O165 1.211 . S
O165 C164 1.211 . S
C166 O158 1.284 . S
C166 O167 1.273 . S
O167 C166 1.273 . S
O168 Zn159 1.977 . S
O168 C161 1.267 . S
C169 O170 1.160 . S
C169 O176 1.185 . S
O170 C169 1.160 . S
O171 Zn172 1.899 . S
O171 C179 1.284 . S
Zn172 O171 1.899 . S
Zn172 O173 2.032 . S
Zn172 O176 2.086 . S
Zn172 O181 1.977 . S
O173 Zn172 2.032 . S
O173 C177 1.278 . S
C174 O175 1.203 . S
C174 O181 1.267 . S
O175 C174 1.203 . S
O176 C169 1.185 . S
O176 Zn172 2.086 . S
C177 O173 1.278 . S
C177 O178 1.211 . S
O178 C177 1.211 . S
C179 O171 1.284 . S
C179 O180 1.273 . S
O180 C179 1.273 . S
O181 Zn172 1.977 . S
O181 C174 1.267 . S
C182 O183 1.160 . S
C182 O189 1.185 . S
O183 C182 1.160 . S
O184 Zn185 1.899 . S
O184 C192 1.284 . S
Zn185 O184 1.899 . S
Zn185 O186 2.032 . S
Zn185 O189 2.086 . S
Zn185 O194 1.977 . S
O186 Zn185 2.032 . S
O186 C190 1.278 . S
C187 O188 1.203 . S
C187 O194 1.267 . S
O188 C187 1.203 . S
O189 C182 1.185 . S
O189 Zn185 2.086 . S
C190 O186 1.278 . S
C190 O191 1.211 . S
O191 C190 1.211 . S
C192 O184 1.284 . S
C192 O193 1.273 . S
O193 C192 1.273 . S
O194 Zn185 1.977 . S
O194 C187 1.267 . S
C195 O196 1.160 . S
C195 O202 1.185 . S
O196 C195 1.160 . S
O197 Zn198 1.899 . S
O197 C205 1.284 . S
Zn198 O197 1.899 . S
Zn198 O199 2.032 . S
Zn198 O202 2.086 . S
Zn198 O207 1.977 . S
O199 Zn198 2.032 . S
O199 C203 1.278 . S
C200 O201 1.203 . S
C200 O207 1.267 . S
O201 C200 1.203 . S
O202 C195 1.185 . S
O202 Zn198 2.086 . S
C203 O199 1.278 . S
C203 O204 1.211 . S
O204 C203 1.211 . S
C205 O197 1.284 . S
C205 O206 1.273 . S
O206 C205 1.273 . S
O207 Zn198 1.977 . S
O207 C200 1.267 . S
C208 O209 1.160 . S
C208 O215 1.185 . S
O209 C208 1.160 . S
O210 Zn211 1.899 . S
O210 C218 1.284 . S
Zn211 O210 1.899 . S
Zn211 O212 2.032 . S
Zn211 O215 2.086 . S
Zn211 O220 1.977 . S
O212 Zn211 2.032 . S
O212 C216 1.278 . S
C213 O214 1.203 . S
C213 O220 1.267 . S
O214 C213 1.203 . S
O215 C208 1.185 . S
O215 Zn211 2.086 . S
C216 O212 1.278 . S
C216 O217 1.211 . S
O217 C216 1.211 . S
C218 O210 1.284 . S
C218 O219 1.273 . S
O219 C218 1.273 . S
O220 Zn211 1.977 . S
O220 C213 1.267 . S
C221 O222 1.160 . S
C221 O228 1.185 . S
O222 C221 1.160 . S
O223 Zn224 1.899 . S
O223 C231 1.284 . S
Zn224 O223 1.899 . S
Zn224 O225 2.032 . S
Zn224 O228 2.086 . S
Zn224 O233 1.977 . S
O225 Zn224 2.032 . S
O225 C229 1.278 . S
C226 O227 1.203 . S
C226 O233 1.267 . S
O227 C226 1.203 . S
O228 C221 1.185 . S
O228 Zn224 2.086 . S
C229 O225 1.278 . S
C229 O230 1.211 . S
O230 C229 1.211 . S
C231 O223 1.284 . S
C231 O232 1.273 . S
O232 C231 1.273 . S
O233 Zn224 1.977 . S
O233 C226 1.267 . S
C234 O235 1.160 . S
C234 O241 1.185 . S
O235 C234 1.160 . S
O236 Zn237 1.899 . S
O236 C244 1.284 . S
Zn237 O236 1.899 . S
Zn237 O238 2.032 . S
Zn237 O241 2.086 . S
Zn237 O246 1.977 . S
O238 Zn237 2.032 . S
O238 C242 1.278 . S
C239 O240 1.203 . S
C239 O246 1.267 . S
O240 C239 1.203 . S
O241 C234 1.185 . S
O241 Zn237 2.086 . S
C242 O238 1.278 . S
C242 O243 1.211 . S
O243 C242 1.211 . S
C244 O236 1.284 . S
C244 O245 1.273 . S
O245 C244 1.273 . S
O246 Zn237 1.977 . S
O246 C239 1.267 . S
C247 O248 1.160 . S
C247 O254 1.185 . S
O248 C247 1.160 . S
O249 Zn250 1.899 . S
O249 C257 1.284 . S
Zn250 O249 1.899 . S
Zn250 O251 2.032 . S
Zn250 O254 2.086 . S
Zn250 O259 1.977 . S
O251 Zn250 2.032 . S
O251 C255 1.278 . S
C252 O253 1.203 . S
C252 O259 1.267 . S
O253 C252 1.203 . S
O254 C247 1.185 . S
O254 Zn250 2.086 . S
C255 O251 1.278 . S
C255 O256 1.211 . S
O256 C255 1.211 . S
C257 O249 1.284 . S
C257 O258 1.273 . S
O258 C257 1.273 . S
O259 Zn250 1.977 . S
O259 C252 1.267 . S
C260 O261 1.160 . S
C260 O267 1.185 . S
O261 C260 1.160 . S
O262 Zn263 1.899 . S
O262 C270 1.284 . S
Zn263 O262 1.899 . S
Zn263 O264 2.032 . S
Zn263 O267 2.086 . S
Zn263 O272 1.977 . S
O264 Zn263 2.032 . S
O264 C268 1.278 . S
C265 O266 1.203 . S
C265 O272 1.267 . S
O266 C265 1.203 . S
O267 C260 1.185 . S
O267 Zn263 2.086 . S
C268 O264 1.278 . S
C268 O269 1.211 . S
O269 C268 1.211 . S
C270 O262 1.284 . S
C270 O271 1.273 . S
O271 C270 1.273 . S
O272 Zn263 1.977 . S
O272 C265 1.267 . S
C273 O274 1.160 . S
C273 O280 1.185 . S
O274 C273 1.160 . S
O275 Zn276 1.899 . S
O275 C283 1.284 . S
Zn276 O275 1.899 . S
Zn276 O277 2.032 . S
Zn276 O280 2.086 . S
Zn276 O285 1.977 . S
O277 Zn276 2.032 . S
O277 C281 1.278 . S
C278 O279 1.203 . S
C278 O285 1.267 . S
O279 C278 1.203 . S
O280 C273 1.185 . S
O280 Zn276 2.086 . S
C281 O277 1.278 . S
C281 O282 1.211 . S
O282 C281 1.211 . S
C283 O275 1.284 . S
C283 O284 1.273 . S
O284 C283 1.273 . S
O285 Zn276 1.977 . S
O285 C278 1.267 . S
C286 O287 1.160 . S
C286 O293 1.185 . S
O287 C286 1.160 . S
O288 Zn289 1.899 . S
O288 C296 1.284 . S
Zn289 O288 1.899 . S
Zn289 O290 2.032 . S
Zn289 O293 2.086 . S
Zn289 O298 1.977 . S
O290 Zn289 2.032 . S
O290 C294 1.278 . S
C291 O292 1.203 . S
C291 O298 1.267 . S
O292 C291 1.203 . S
O293 C286 1.185 . S
O293 Zn289 2.086 . S
C294 O290 1.278 . S
C294 O295 1.211 . S
O295 C294 1.211 . S
C296 O288 1.284 . S
C296 O297 1.273 . S
O297 C296 1.273 . S
O298 Zn289 1.977 . S
O298 C291 1.267 . S
C299 O300 1.160 . S
C299 O306 1.185 . S
O300 C299 1.160 . S
O301 Zn302 1.899 . S
O301 C309 1.284 . S
Zn302 O301 1.899 . S
Zn302 O303 2.032 . S
Zn302 O306 2.086 . S
Zn302 O311 1.977 . S
O303 Zn302 2.032 . S
O303 C307 1.278 . S
C304 O305 1.203 . S
C304 O311 1.267 . S
O305 C304 1.203 . S
O306 C299 1.185 . S
O306 Zn302 2.086 . S
C307 O303 1.278 . S
C307 O308 1.211 . S
O308 C307 1.211 . S
C309 O301 1.284 . S
C309 O310 1.273 . S
O310 C309 1.273 . S
O311 Zn302 1.977 . S
O311 C304 1.267 . S
C312 O313 1.160 . S
C312 O319 1.185 . S
O313 C312 1.160 . S
O314 Zn315 1.899 . S
O314 C322 1.284 . S
Zn315 O314 1.899 . S
Zn315 O316 2.032 . S
Zn315 O319 2.086 . S
Zn315 O324 1.977 . S
O316 Zn315 2.032 . S
O316 C320 1.278 . S
C317 O318 1.203 . S
C317 O324 1.267 . S
O318 C317 1.203 . S
O319 C312 1.185 . S
O319 Zn315 2.086 . S
C320 O316 1.278 . S
C320 O321 1.211 . S
O321 C320 1.211 . S
C322 O314 1.284 . S
C322 O323 1.273 . S
O323 C322 1.273 . S
O324 Zn315 1.977 . S
O324 C317 1.267 . S
C325 O326 1.160 . S
C325 O332 1.185 . S
O326 C325 1.160 . S
O327 Zn328 1.899 . S
O327 C335 1.284 . S
Zn328 O327 1.899 . S
Zn328 O329 2.032 . S
Zn328 O332 2.086 . S
Zn328 O337 1.977 . S
O329 Zn328 2.032 . S
O329 C333 1.278 . S
C330 O331 1.203 . S
C330 O337 1.267 . S
O331 C330 1.203 . S
O332 C325 1.185 . S
O332 Zn328 2.086 . S
C333 O329 1.278 . S
C333 O334 1.211 . S
O334 C333 1.211 . S
C335 O327 1.284 . S
C335 O336 1.273 . S
O336 C335 1.273 . S
O337 Zn328 1.977 . S
O337 C330 1.267 . S
C338 O339 1.160 . S
C338 O345 1.185 . S
O339 C338 1.160 . S
O340 Zn341 1.899 . S
O340 C348 1.284 . S
Zn341 O340 1.899 . S
Zn341 O342 2.032 . S
Zn341 O345 2.086 . S
Zn341 O350 1.977 . S
O342 Zn341 2.032 . S
O342 C346 1.278 . S
C343 O344 1.203 . S
C343 O350 1.267 . S
O344 C343 1.203 . S
O345 C338 1.185 . S
O345 Zn341 2.086 . S
C346 O342 1.278 . S
C346 O347 1.211 . S
O347 C346 1.211 . S
C348 O340 1.284 . S
C348 O349 1.273 . S
O349 C348 1.273 . S
O350 Zn341 1.977 . S
O350 C343 1.267 . S
C351 O352 1.160 . S
C351 O358 1.185 . S
O352 C351 1.160 . S
O353 Zn354 1.899 . S
O353 C361 1.284 . S
Zn354 O353 1.899 . S
Zn354 O355 2.032 . S
Zn354 O358 2.086 . S
Zn354 O363 1.977 . S
O355 Zn354 2.032 . S
O355 C359 1.278 . S
C356 O357 1.203 . S
C356 O363 1.267 . S
O357 C356 1.203 . S
O358 C351 1.185 . S
O358 Zn354 2.086 . S
C359 O355 1.278 . S
C359 O360 1.211 . S
O360 C359 1.211 . S
C361 O353 1.284 . S
C361 O362 1.273 . S
O362 C361 1.273 . S
O363 Zn354 1.977 . S
O363 C356 1.267 . S
C364 O365 1.160 . S
C364 O371 1.185 . S
O365 C364 1.160 . S
O366 Zn367 1.899 . S
O366 C374 1.284 . S
Zn367 O366 1.899 . S
Zn367 O368 2.032 . S
Zn367 O371 2.086 . S
Zn367 O376 1.977 . S
O368 Zn367 2.032 . S
O368 C372 1.278 . S
C369 O370 1.203 . S
C369 O376 1.267 . S
O370 C369 1.203 . S
O371 C364 1.185 . S
O371 Zn367 2.086 . S
C372 O368 1.278 . S
C372 O373 1.211 . S
O373 C372 1.211 . S
C374 O366 1.284 . S
C374 O375 1.273 . S
O375 C374 1.273 . S
O376 Zn367 1.977 . S
O376 C369 1.267 . S
C377 O378 1.160 . S
C377 O384 1.185 . S
O378 C377 1.160 . S
O379 Zn380 1.899 . S
O379 C387 1.284 . S
Zn380 O379 1.899 . S
Zn380 O381 2.032 . S
Zn380 O384 2.086 . S
Zn380 O389 1.977 . S
O381 Zn380 2.032 . S
O381 C385 1.278 . S
C382 O383 1.203 . S
C382 O389 1.267 . S
O383 C382 1.203 . S
O384 C377 1.185 . S
O384 Zn380 2.086 . S
C385 O381 1.278 . S
C385 O386 1.211 . S
O386 C385 1.211 . S
C387 O379 1.284 . S
C387 O388 1.273 . S
O388 C387 1.273 . S
O389 Zn380 1.977 . S
O389 C382 1.267 . S
C390 O391 1.160 . S
C390 O397 1.185 . S
O391 C390 1.160 . S
O392 Zn393 1.899 . S
O392 C400 1.284 . S
Zn393 O392 1.899 . S
Zn393 O394 2.032 . S
Zn393 O397 2.086 . S
Zn393 O402 1.977 . S
O394 Zn393 2.032 . S
O394 C398 1.278 . S
C395 O396 1.203 . S
C395 O402 1.267 . S
O396 C395 1.203 . S
O397 C390 1.185 . S
O397 Zn393 2.086 . S
C398 O394 1.278 . S
C398 O399 1.211 . S
O399 C398 1.211 . S
C400 O392 1.284 . S
C400 O401 1.273 . S
O401 C400 1.273 . S
O402 Zn393 1.977 . S
O402 C395 1.267 . S
C403 O404 1.160 . S
C403 O410 1.185 . S
O404 C403 1.160 . S
O405 Zn406 1.899 . S
O405 C413 1.284 . S
Zn406 O405 1.899 . S
Zn406 O407 2.032 . S
Zn406 O410 2.086 . S
Zn406 O415 1.977 . S
O407 Zn406 2.032 . S
O407 C411 1.278 . S
C408 O409 1.203 . S
C408 O415 1.267 . S
O409 C408 1.203 . S
O410 C403 1.185 . S
O410 Zn406 2.086 . S
C411 O407 1.278 . S
C411 O412 1.211 . S
O412 C411 1.211 . S
C413 O405 1.284 . S
C413 O414 1.273 . S
O414 C413 1.273 . S
O415 Zn406 1.977 . S
O415 C408 1.267 . S
H416 C422 0.930 . S
H417 C425 0.930 . S
H418 C426 0.930 . S
H419 C427 0.930 . S
H420 C430 0.930 . S
H421 C431 0.930 . S
C422 H416 0.930 . S
C422 C423 1.355 . S
C422 C424 1.415 1_655 S
C423 C422 1.355 . S
C423 C425 1.419 1_556 S
C424 C422 1.415 1_455 S
C424 C429 1.425 1_456 S
C424 C431 1.409 . S
C425 H417 0.930 . S
C425 C423 1.419 1_554 S
C425 C426 1.362 . S
C426 H418 0.930 . S
C426 C425 1.362 . S
C426 C429 1.409 . S
C427 H419 0.930 . S
C427 C428 1.355 . S
C427 C429 1.415 1_455 S
C428 C427 1.355 . S
C428 C430 1.419 1_554 S
C429 C424 1.425 1_654 S
C429 C426 1.409 . S
C429 C427 1.415 1_655 S
C430 H420 0.930 . S
C430 C428 1.419 1_556 S
C430 C431 1.362 . S
C431 H421 0.930 . S
C431 C424 1.409 . S
C431 C430 1.362 . S
H432 C438 0.930 . S
H433 C441 0.930 . S
H434 C442 0.930 . S
H435 C443 0.930 . S
H436 C446 0.930 . S
H437 C447 0.930 . S
C438 H432 0.930 . S
C438 C439 1.355 . S
C438 C440 1.415 . S
C439 C438 1.355 . S
C439 C441 1.419 . S
C440 C438 1.415 . S
C440 C445 1.425 . S
C440 C447 1.409 . S
C441 H433 0.930 . S
C441 C439 1.419 . S
C441 C442 1.362 . S
C442 H434 0.930 . S
C442 C441 1.362 . S
C442 C445 1.409 . S
C443 H435 0.930 . S
C443 C444 1.355 . S
C443 C445 1.415 . S
C444 C443 1.355 . S
C444 C446 1.419 . S
C445 C440 1.425 . S
C445 C442 1.409 . S
C445 C443 1.415 . S
C446 H436 0.930 . S
C446 C444 1.419 . S
C446 C447 1.362 . S
C447 H437 0.930 . S
C447 C440 1.409 . S
C447 C446 1.362 . S
H448 C454 0.930 . S
H449 C457 0.930 . S
H450 C458 0.930 . S
H451 C459 0.930 . S
H452 C462 0.930 . S
H453 C463 0.930 . S
C454 H448 0.930 . S
C454 C455 1.355 . S
C454 C456 1.415 . S
C455 C454 1.355 . S
C455 C457 1.419 . S
C456 C454 1.415 . S
C456 C461 1.425 . S
C456 C463 1.409 . S
C457 H449 0.930 . S
C457 C455 1.419 . S
C457 C458 1.362 . S
C458 H450 0.930 . S
C458 C457 1.362 . S
C458 C461 1.409 . S
C459 H451 0.930 . S
C459 C460 1.355 . S
C459 C461 1.415 . S
C460 C459 1.355 . S
C460 C462 1.419 . S
C461 C456 1.425 . S
C461 C458 1.409 . S
C461 C459 1.415 . S
C462 H452 0.930 . S
C462 C460 1.419 . S
C462 C463 1.362 . S
C463 H453 0.930 . S
C463 C456 1.409 . S
C463 C462 1.362 . S
H464 C470 0.930 . S
H465 C473 0.930 . S
H466 C474 0.930 . S
H467 C475 0.930 . S
H468 C478 0.930 . S
H469 C479 0.930 . S
C470 H464 0.930 . S
C470 C471 1.355 . S
C470 C472 1.415 . S
C471 C470 1.355 . S
C471 C473 1.419 . S
C472 C470 1.415 . S
C472 C477 1.425 . S
C472 C479 1.409 . S
C473 H465 0.930 . S
C473 C471 1.419 . S
C473 C474 1.362 . S
C474 H466 0.930 . S
C474 C473 1.362 . S
C474 C477 1.409 . S
C475 H467 0.930 . S
C475 C476 1.355 . S
C475 C477 1.415 . S
C476 C475 1.355 . S
C476 C478 1.419 . S
C477 C472 1.425 . S
C477 C474 1.409 . S
C477 C475 1.415 . S
C478 H468 0.930 . S
C478 C476 1.419 . S
C478 C479 1.362 . S
C479 H469 0.930 . S
C479 C472 1.409 . S
C479 C478 1.362 . S
H480 C486 0.930 1_455 S
H481 C489 0.930 . S
H482 C490 0.930 . S
H483 C491 0.930 1_655 S
H484 C494 0.930 . S
H485 C495 0.930 . S
C486 H480 0.930 1_655 S
C486 C487 1.355 . S
C486 C488 1.415 1_655 S
C487 C486 1.355 . S
C487 C489 1.419 . S
C488 C486 1.415 1_455 S
C488 C493 1.425 1_455 S
C488 C495 1.409 . S
C489 H481 0.930 . S
C489 C487 1.419 . S
C489 C490 1.362 . S
C490 H482 0.930 . S
C490 C489 1.362 . S
C490 C493 1.409 . S
C491 H483 0.930 1_455 S
C491 C492 1.355 . S
C491 C493 1.415 1_455 S
C492 C491 1.355 . S
C492 C494 1.419 . S
C493 C488 1.425 1_655 S
C493 C490 1.409 . S
C493 C491 1.415 1_655 S
C494 H484 0.930 . S
C494 C492 1.419 . S
C494 C495 1.362 . S
C495 H485 0.930 . S
C495 C488 1.409 . S
C495 C494 1.362 . S
H496 C502 0.930 . S
H497 C505 0.930 . S
H498 C506 0.930 . S
H499 C507 0.930 . S
H500 C510 0.930 . S
H501 C511 0.930 . S
C502 H496 0.930 . S
C502 C503 1.355 . S
C502 C504 1.415 . S
C503 C502 1.355 . S
C503 C505 1.419 . S
C504 C502 1.415 . S
C504 C509 1.425 . S
C504 C511 1.409 . S
C505 H497 0.930 . S
C505 C503 1.419 . S
C505 C506 1.362 . S
C506 H498 0.930 . S
C506 C505 1.362 . S
C506 C509 1.409 . S
C507 H499 0.930 . S
C507 C508 1.355 . S
C507 C509 1.415 . S
C508 C507 1.355 . S
C508 C510 1.419 . S
C509 C504 1.425 . S
C509 C506 1.409 . S
C509 C507 1.415 . S
C510 H500 0.930 . S
C510 C508 1.419 . S
C510 C511 1.362 . S
C511 H501 0.930 . S
C511 C504 1.409 . S
C511 C510 1.362 . S
H512 C518 0.921 1_554 S
H513 C521 0.930 . S
H514 C522 0.930 . S
H515 C523 0.921 1_556 S
H516 C526 0.930 . S
H517 C527 0.930 . S
C518 H512 0.921 1_556 S
C518 C519 1.355 . S
C518 C520 1.415 1_556 S
C519 C518 1.355 . S
C519 C521 1.419 . S
C520 C518 1.415 1_554 S
C520 C525 1.425 1_554 S
C520 C527 1.409 . S
C521 H513 0.930 . S
C521 C519 1.419 . S
C521 C522 1.362 . S
C522 H514 0.930 . S
C522 C521 1.362 . S
C522 C525 1.409 . S
C523 H515 0.921 1_554 S
C523 C524 1.355 . S
C523 C525 1.415 1_554 S
C524 C523 1.355 . S
C524 C526 1.419 . S
C525 C520 1.425 1_556 S
C525 C522 1.409 . S
C525 C523 1.415 1_556 S
C526 H516 0.930 . S
C526 C524 1.419 . S
C526 C527 1.362 . S
C527 H517 0.930 . S
C527 C520 1.409 . S
C527 C526 1.362 . S
H528 C534 0.930 . S
H529 C537 0.930 . S
H530 C538 0.930 . S
H531 C539 0.930 . S
H532 C542 0.930 . S
H533 C543 0.930 . S
C534 H528 0.930 . S
C534 C535 1.355 . S
C534 C536 1.415 . S
C535 C534 1.355 . S
C535 C537 1.419 . S
C536 C534 1.415 . S
C536 C541 1.425 . S
C536 C543 1.409 . S
C537 H529 0.930 . S
C537 C535 1.419 . S
C537 C538 1.362 . S
C538 H530 0.930 . S
C538 C537 1.362 . S
C538 C541 1.409 . S
C539 H531 0.930 . S
C539 C540 1.355 . S
C539 C541 1.415 . S
C540 C539 1.355 . S
C540 C542 1.419 . S
C541 C536 1.425 . S
C541 C538 1.409 . S
C541 C539 1.415 . S
C542 H532 0.930 . S
C542 C540 1.419 . S
C542 C543 1.362 . S
C543 H533 0.930 . S
C543 C536 1.409 . S
C543 C542 1.362 . S
H544 C550 0.930 . S
H545 C553 0.930 . S
H546 C554 0.930 . S
H547 C555 0.930 . S
H548 C558 0.930 . S
H549 C559 0.930 . S
C550 H544 0.930 . S
C550 C551 1.355 . S
C550 C552 1.415 . S
C551 C550 1.355 . S
C551 C553 1.419 . S
C552 C550 1.415 . S
C552 C557 1.425 . S
C552 C559 1.409 . S
C553 H545 0.930 . S
C553 C551 1.419 . S
C553 C554 1.362 . S
C554 H546 0.930 . S
C554 C553 1.362 . S
C554 C557 1.409 . S
C555 H547 0.930 . S
C555 C556 1.355 . S
C555 C557 1.415 . S
C556 C555 1.355 . S
C556 C558 1.419 . S
C557 C552 1.425 . S
C557 C554 1.409 . S
C557 C555 1.415 . S
C558 H548 0.930 . S
C558 C556 1.419 . S
C558 C559 1.362 . S
C559 H549 0.930 . S
C559 C552 1.409 . S
C559 C558 1.362 . S
H560 C566 0.930 . S
H561 C569 0.930 . S
H562 C570 0.930 . S
H563 C571 0.930 . S
H564 C574 0.930 . S
H565 C575 0.930 . S
C566 H560 0.930 . S
C566 C567 1.355 . S
C566 C568 1.415 . S
C567 C566 1.355 . S
C567 C569 1.419 . S
C568 C566 1.415 . S
C568 C573 1.425 . S
C568 C575 1.409 . S
C569 H561 0.930 . S
C569 C567 1.419 . S
C569 C570 1.362 . S
C570 H562 0.930 . S
C570 C569 1.362 . S
C570 C573 1.409 . S
C571 H563 0.930 . S
C571 C572 1.355 . S
C571 C573 1.415 . S
C572 C571 1.355 . S
C572 C574 1.419 . S
C573 C568 1.425 . S
C573 C570 1.409 . S
C573 C571 1.415 . S
C574 H564 0.930 . S
C574 C572 1.419 . S
C574 C575 1.362 . S
C575 H565 0.930 . S
C575 C568 1.409 . S
C575 C574 1.362 . S
H576 C582 0.930 . S
H577 C585 0.930 . S
H578 C586 0.930 . S
H579 C587 0.930 . S
H580 C590 0.930 . S
H581 C591 0.930 . S
C582 H576 0.930 . S
C582 C583 1.355 . S
C582 C584 1.415 . S
C583 C582 1.355 . S
C583 C585 1.419 . S
C584 C582 1.415 . S
C584 C589 1.425 . S
C584 C591 1.409 . S
C585 H577 0.930 . S
C585 C583 1.419 . S
C585 C586 1.362 . S
C586 H578 0.930 . S
C586 C585 1.362 . S
C586 C589 1.409 . S
C587 H579 0.930 . S
C587 C588 1.355 . S
C587 C589 1.415 . S
C588 C587 1.355 . S
C588 C590 1.419 . S
C589 C584 1.425 . S
C589 C586 1.409 . S
C589 C587 1.415 . S
C590 H580 0.930 . S
C590 C588 1.419 . S
C590 C591 1.362 . S
C591 H581 0.930 . S
C591 C584 1.409 . S
C591 C590 1.362 . S
H592 C598 0.930 . S
H593 C601 0.930 . S
H594 C602 0.930 . S
H595 C603 0.930 . S
H596 C606 0.930 . S
H597 C607 0.930 . S
C598 H592 0.930 . S
C598 C599 1.355 . S
C598 C600 1.415 . S
C599 C598 1.355 . S
C599 C601 1.419 . S
C600 C598 1.415 . S
C600 C605 1.425 . S
C600 C607 1.409 . S
C601 H593 0.930 . S
C601 C599 1.419 . S
C601 C602 1.362 . S
C602 H594 0.930 . S
C602 C601 1.362 . S
C602 C605 1.409 . S
C603 H595 0.930 . S
C603 C604 1.355 . S
C603 C605 1.415 . S
C604 C603 1.355 . S
C604 C606 1.419 . S
C605 C600 1.425 . S
C605 C602 1.409 . S
C605 C603 1.415 . S
C606 H596 0.930 . S
C606 C604 1.419 . S
C606 C607 1.362 . S
C607 H597 0.930 . S
C607 C600 1.409 . S
C607 C606 1.362 . S
H608 C614 0.930 . S
H609 C617 0.930 . S
H610 C618 0.930 1_545 S
H611 C619 0.930 . S
H612 C622 0.930 . S
H613 C623 0.930 1_565 S
C614 H608 0.930 . S
C614 C615 1.355 . S
C614 C616 1.415 . S
C615 C614 1.355 . S
C615 C617 1.419 . S
C616 C614 1.415 . S
C616 C621 1.425 1_565 S
C616 C623 1.409 1_565 S
C617 H609 0.930 . S
C617 C615 1.419 . S
C617 C618 1.362 . S
C618 H610 0.930 1_565 S
C618 C617 1.362 . S
C618 C621 1.409 1_565 S
C619 H611 0.930 . S
C619 C620 1.355 . S
C619 C621 1.415 . S
C620 C619 1.355 . S
C620 C622 1.419 . S
C621 C616 1.425 1_545 S
C621 C618 1.409 1_545 S
C621 C619 1.415 . S
C622 H612 0.930 . S
C622 C620 1.419 . S
C622 C623 1.362 . S
C623 H613 0.930 1_545 S
C623 C616 1.409 1_545 S
C623 C622 1.362 . S
H624 C630 0.930 1_554 S
H625 C633 0.930 . S
H626 C634 0.930 . S
H627 C635 0.930 1_556 S
H628 C638 0.930 . S
H629 C639 0.930 . S
C630 H624 0.930 1_556 S
C630 C631 1.355 . S
C630 C632 1.418 1_556 S
C631 C630 1.355 . S
C631 C633 1.419 . S
C632 C630 1.418 1_554 S
C632 C637 1.425 1_464 S
C632 C639 1.406 1_565 S
C633 H625 0.930 . S
C633 C631 1.419 . S
C633 C634 1.362 1_455 S
C634 H626 0.930 . S
C634 C633 1.362 1_655 S
C634 C637 1.406 1_565 S
C635 H627 0.930 1_554 S
C635 C636 1.355 . S
C635 C637 1.418 1_554 S
C636 C635 1.355 . S
C636 C638 1.419 . S
C637 C632 1.425 1_646 S
C637 C634 1.406 1_545 S
C637 C635 1.418 1_556 S
C638 H628 0.930 . S
C638 C636 1.419 . S
C638 C639 1.362 1_655 S
C639 H629 0.930 . S
C639 C632 1.406 1_545 S
C639 C638 1.362 1_455 S
H640 C646 0.930 . S
H641 C649 0.930 . S
H642 C650 0.930 . S
H643 C651 0.930 . S
H644 C654 0.930 . S
H645 C655 0.930 . S
C646 H640 0.930 . S
C646 C647 1.355 . S
C646 C648 1.415 . S
C647 C646 1.355 . S
C647 C649 1.419 . S
C648 C646 1.415 . S
C648 C653 1.425 1_546 S
C648 C655 1.409 . S
C649 H641 0.930 . S
C649 C647 1.419 . S
C649 C650 1.362 1_546 S
C650 H642 0.930 . S
C650 C649 1.362 1_564 S
C650 C653 1.409 . S
C651 H643 0.930 . S
C651 C652 1.355 . S
C651 C653 1.415 . S
C652 C651 1.355 . S
C652 C654 1.419 . S
C653 C648 1.425 1_564 S
C653 C650 1.409 . S
C653 C651 1.415 . S
C654 H644 0.930 . S
C654 C652 1.419 . S
C654 C655 1.362 1_564 S
C655 H645 0.930 . S
C655 C648 1.409 . S
C655 C654 1.362 1_546 S
H656 C662 0.942 . S
H657 C665 0.930 . S
H658 C666 0.930 . S
H659 C667 0.942 . S
H660 C670 0.930 . S
H661 C671 0.930 . S
C662 H656 0.942 . S
C662 C663 1.355 . S
C662 C664 1.415 1_455 S
C663 C662 1.355 . S
C663 C665 1.419 . S
C664 C662 1.415 1_655 S
C664 C669 1.425 1_645 S
C664 C671 1.409 . S
C665 H657 0.930 . S
C665 C663 1.419 . S
C665 C666 1.362 1_545 S
C666 H658 0.930 . S
C666 C665 1.362 1_565 S
C666 C669 1.409 . S
C667 H659 0.942 . S
C667 C668 1.355 . S
C667 C669 1.415 1_655 S
C668 C667 1.355 . S
C668 C670 1.419 . S
C669 C664 1.425 1_465 S
C669 C666 1.409 . S
C669 C667 1.415 1_455 S
C670 H660 0.930 . S
C670 C668 1.419 . S
C670 C671 1.362 1_565 S
C671 H661 0.930 . S
C671 C664 1.409 . S
C671 C670 1.362 1_545 S
H672 C678 0.930 . S
H673 C681 0.930 . S
H674 C682 0.930 1_556 S
H675 C683 0.930 . S
H676 C686 0.930 . S
H677 C687 0.930 . S
C678 H672 0.930 . S
C678 C679 1.355 . S
C678 C680 1.415 . S
C679 C678 1.355 . S
C679 C681 1.419 . S
C680 C678 1.415 . S
C680 C685 1.425 1_655 S
C680 C687 1.409 1_655 S
C681 H673 0.930 . S
C681 C679 1.419 . S
C681 C682 1.362 . S
C682 H674 0.930 1_554 S
C682 C681 1.362 . S
C682 C685 1.409 1_655 S
C683 H675 0.930 . S
C683 C684 1.355 . S
C683 C685 1.415 . S
C684 C683 1.355 . S
C684 C686 1.419 . S
C685 C680 1.425 1_455 S
C685 C682 1.409 1_455 S
C685 C683 1.415 . S
C686 H676 0.930 . S
C686 C684 1.419 . S
C686 C687 1.362 . S
C687 H677 0.930 . S
C687 C680 1.409 1_455 S
C687 C686 1.362 . S
H688 C694 0.930 . S
H689 C697 0.930 . S
H690 C698 0.930 . S
H691 C699 0.930 . S
H692 C702 0.930 . S
H693 C703 0.930 . S
C694 H688 0.930 . S
C694 C695 1.355 . S
C694 C696 1.415 . S
C695 C694 1.355 . S
C695 C697 1.419 . S
C696 C694 1.415 . S
C696 C701 1.425 1_455 S
C696 C703 1.409 . S
C697 H689 0.930 . S
C697 C695 1.419 . S
C697 C698 1.362 1_455 S
C698 H690 0.930 . S
C698 C697 1.362 1_655 S
C698 C701 1.409 . S
C699 H691 0.930 . S
C699 C700 1.355 . S
C699 C701 1.415 . S
C700 C699 1.355 . S
C700 C702 1.419 . S
C701 C696 1.425 1_655 S
C701 C698 1.409 . S
C701 C699 1.415 . S
C702 H692 0.930 . S
C702 C700 1.419 . S
C702 C703 1.362 1_655 S
C703 H693 0.930 . S
C703 C696 1.409 . S
C703 C702 1.362 1_455 S
H704 C710 0.930 . S
H705 C713 0.930 . S
H706 C714 0.930 . S
H707 C715 0.930 . S
H708 C718 0.930 . S
H709 C719 0.930 . S
C710 H704 0.930 . S
C710 C711 1.355 . S
C710 C712 1.415 . S
C711 C710 1.355 . S
C711 C713 1.419 . S
C712 C710 1.415 . S
C712 C717 1.425 . S
C712 C719 1.409 . S
C713 H705 0.930 . S
C713 C711 1.419 . S
C713 C714 1.362 . S
C714 H706 0.930 . S
C714 C713 1.362 . S
C714 C717 1.409 . S
C715 H707 0.930 . S
C715 C716 1.355 . S
C715 C717 1.415 . S
C716 C715 1.355 . S
C716 C718 1.419 . S
C717 C712 1.425 . S
C717 C714 1.409 . S
C717 C715 1.415 . S
C718 H708 0.930 . S
C718 C716 1.419 . S
C718 C719 1.362 . S
C719 H709 0.930 . S
C719 C712 1.409 . S
C719 C718 1.362 . S
H720 C726 0.930 . S
H721 C729 0.930 . S
H722 C730 0.930 . S
H723 C731 0.930 . S
H724 C734 0.930 . S
H725 C735 0.930 . S
C726 H720 0.930 . S
C726 C727 1.355 . S
C726 C728 1.415 . S
C727 C726 1.355 . S
C727 C729 1.419 . S
C728 C726 1.415 . S
C728 C733 1.425 . S
C728 C735 1.409 . S
C729 H721 0.930 . S
C729 C727 1.419 . S
C729 C730 1.362 . S
C730 H722 0.930 . S
C730 C729 1.362 . S
C730 C733 1.409 . S
C731 H723 0.930 . S
C731 C732 1.355 . S
C731 C733 1.415 . S
C732 C731 1.355 . S
C732 C734 1.419 . S
C733 C728 1.425 . S
C733 C730 1.409 . S
C733 C731 1.415 . S
C734 H724 0.930 . S
C734 C732 1.419 . S
C734 C735 1.362 . S
C735 H725 0.930 . S
C735 C728 1.409 . S
C735 C734 1.362 . S
H736 C742 0.930 . S
H737 C745 0.930 1_455 S
H738 C746 0.930 . S
H739 C747 0.930 . S
H740 C750 0.930 1_655 S
H741 C751 0.930 . S
C742 H736 0.930 . S
C742 C743 1.355 . S
C742 C744 1.415 . S
C743 C742 1.355 . S
C743 C745 1.419 . S
C744 C742 1.415 . S
C744 C749 1.425 1_655 S
C744 C751 1.409 . S
C745 H737 0.930 1_655 S
C745 C743 1.419 . S
C745 C746 1.362 1_655 S
C746 H738 0.930 . S
C746 C745 1.362 1_455 S
C746 C749 1.409 . S
C747 H739 0.930 . S
C747 C748 1.355 . S
C747 C749 1.415 . S
C748 C747 1.355 . S
C748 C750 1.419 . S
C749 C744 1.425 1_455 S
C749 C746 1.409 . S
C749 C747 1.415 . S
C750 H740 0.930 1_455 S
C750 C748 1.419 . S
C750 C751 1.362 1_455 S
C751 H741 0.930 . S
C751 C744 1.409 . S
C751 C750 1.362 1_655 S
H752 C758 0.930 . S
H753 C761 0.930 . S
H754 C762 0.930 . S
H755 C763 0.930 . S
H756 C766 0.930 . S
H757 C767 0.930 . S
C758 H752 0.930 . S
C758 C759 1.355 . S
C758 C760 1.415 . S
C759 C758 1.355 . S
C759 C761 1.419 . S
C760 C758 1.415 . S
C760 C765 1.425 . S
C760 C767 1.409 . S
C761 H753 0.930 . S
C761 C759 1.419 . S
C761 C762 1.362 . S
C762 H754 0.930 . S
C762 C761 1.362 . S
C762 C765 1.409 . S
C763 H755 0.930 . S
C763 C764 1.355 . S
C763 C765 1.415 . S
C764 C763 1.355 . S
C764 C766 1.419 . S
C765 C760 1.425 . S
C765 C762 1.409 . S
C765 C763 1.415 . S
C766 H756 0.930 . S
C766 C764 1.419 . S
C766 C767 1.362 . S
C767 H757 0.930 . S
C767 C760 1.409 . S
C767 C766 1.362 . S
H768 C774 0.930 . S
H769 C777 0.930 . S
H770 C778 0.930 1_554 S
H771 C779 0.930 . S
H772 C782 0.930 . S
H773 C783 0.930 . S
C774 H768 0.930 . S
C774 C775 1.355 . S
C774 C776 1.415 . S
C775 C774 1.355 . S
C775 C777 1.419 . S
C776 C774 1.415 . S
C776 C781 1.425 . S
C776 C783 1.409 . S
C777 H769 0.930 . S
C777 C775 1.419 . S
C777 C778 1.362 . S
C778 H770 0.930 1_556 S
C778 C777 1.362 . S
C778 C781 1.409 . S
C779 H771 0.930 . S
C779 C780 1.355 . S
C779 C781 1.415 . S
C780 C779 1.355 . S
C780 C782 1.419 . S
C781 C776 1.425 . S
C781 C778 1.409 . S
C781 C779 1.415 . S
C782 H772 0.930 . S
C782 C780 1.419 . S
C782 C783 1.362 . S
C783 H773 0.930 . S
C783 C776 1.409 . S
C783 C782 1.362 . S
H784 C790 0.930 . S
H785 C793 0.930 . S
H786 C794 0.930 1_655 S
H787 C795 0.930 . S
H788 C798 0.930 . S
H789 C799 0.930 1_455 S
C790 H784 0.930 . S
C790 C791 1.355 . S
C790 C792 1.415 . S
C791 C790 1.355 . S
C791 C793 1.419 . S
C792 C790 1.415 . S
C792 C797 1.425 1_455 S
C792 C799 1.409 1_455 S
C793 H785 0.930 . S
C793 C791 1.419 . S
C793 C794 1.362 . S
C794 H786 0.930 1_455 S
C794 C793 1.362 . S
C794 C797 1.409 1_455 S
C795 H787 0.930 . S
C795 C796 1.355 . S
C795 C797 1.415 . S
C796 C795 1.355 . S
C796 C798 1.419 . S
C797 C792 1.425 1_655 S
C797 C794 1.409 1_655 S
C797 C795 1.415 . S
C798 H788 0.930 . S
C798 C796 1.419 . S
C798 C799 1.362 . S
C799 H789 0.930 1_655 S
C799 C792 1.409 1_655 S
C799 C798 1.362 . S
H800 C806 0.930 . S
H801 C809 0.930 . S
H802 C810 0.930 . S
H803 C811 0.930 . S
H804 C814 0.930 . S
H805 C815 0.930 . S
C806 H800 0.930 . S
C806 C807 1.355 . S
C806 C808 1.415 1_655 S
C807 C806 1.355 . S
C807 C809 1.419 . S
C808 C806 1.415 1_455 S
C808 C813 1.425 1_455 S
C808 C815 1.409 . S
C809 H801 0.930 . S
C809 C807 1.419 . S
C809 C810 1.362 . S
C810 H802 0.930 . S
C810 C809 1.362 . S
C810 C813 1.409 . S
C811 H803 0.930 . S
C811 C812 1.355 . S
C811 C813 1.415 1_455 S
C812 C811 1.355 . S
C812 C814 1.419 . S
C813 C808 1.425 1_655 S
C813 C810 1.409 . S
C813 C811 1.415 1_655 S
C814 H804 0.930 . S
C814 C812 1.419 . S
C814 C815 1.362 . S
C815 H805 0.930 . S
C815 C808 1.409 . S
C815 C814 1.362 . S
H816 C822 0.930 . S
H817 C825 0.930 . S
H818 C826 0.930 . S
H819 C827 0.930 . S
H820 C830 0.930 . S
H821 C831 0.930 . S
C822 H816 0.930 . S
C822 C823 1.355 . S
C822 C824 1.415 . S
C823 C822 1.355 . S
C823 C825 1.419 . S
C824 C822 1.415 . S
C824 C829 1.425 1_655 S
C824 C831 1.409 . S
C825 H817 0.930 . S
C825 C823 1.419 . S
C825 C826 1.362 1_655 S
C826 H818 0.930 . S
C826 C825 1.362 1_455 S
C826 C829 1.409 . S
C827 H819 0.930 . S
C827 C828 1.355 . S
C827 C829 1.415 . S
C828 C827 1.355 . S
C828 C830 1.419 . S
C829 C824 1.425 1_455 S
C829 C826 1.409 . S
C829 C827 1.415 . S
C830 H820 0.930 . S
C830 C828 1.419 . S
C830 C831 1.362 1_455 S
C831 H821 0.930 . S
C831 C824 1.409 . S
C831 C830 1.362 1_655 S
H832 C838 0.930 . S
H833 C841 0.930 . S
H834 C842 0.930 . S
H835 C843 0.930 . S
H836 C846 0.930 . S
H837 C847 0.930 . S
C838 H832 0.930 . S
C838 C839 1.355 . S
C838 C840 1.415 . S
C839 C838 1.355 . S
C839 C841 1.419 . S
C840 C838 1.415 . S
C840 C845 1.425 . S
C840 C847 1.409 . S
C841 H833 0.930 . S
C841 C839 1.419 . S
C841 C842 1.362 . S
C842 H834 0.930 . S
C842 C841 1.362 . S
C842 C845 1.409 . S
C843 H835 0.930 . S
C843 C844 1.355 . S
C843 C845 1.415 . S
C844 C843 1.355 . S
C844 C846 1.419 . S
C845 C840 1.425 . S
C845 C842 1.409 . S
C845 C843 1.415 . S
C846 H836 0.930 . S
C846 C844 1.419 . S
C846 C847 1.362 . S
C847 H837 0.930 . S
C847 C840 1.409 . S
C847 C846 1.362 . S
H848 C854 0.930 . S
H849 C857 0.930 . S
H850 C858 0.930 . S
H851 C859 0.930 . S
H852 C862 0.930 . S
H853 C863 0.930 . S
C854 H848 0.930 . S
C854 C855 1.355 . S
C854 C856 1.415 . S
C855 C854 1.355 . S
C855 C857 1.419 . S
C856 C854 1.415 . S
C856 C861 1.425 . S
C856 C863 1.409 . S
C857 H849 0.930 . S
C857 C855 1.419 . S
C857 C858 1.362 . S
C858 H850 0.930 . S
C858 C857 1.362 . S
C858 C861 1.409 . S
C859 H851 0.930 . S
C859 C860 1.355 . S
C859 C861 1.415 . S
C860 C859 1.355 . S
C860 C862 1.419 . S
C861 C856 1.425 . S
C861 C858 1.409 . S
C861 C859 1.415 . S
C862 H852 0.930 . S
C862 C860 1.419 . S
C862 C863 1.362 . S
C863 H853 0.930 . S
C863 C856 1.409 . S
C863 C862 1.362 . S
H864 C870 0.930 . S
H865 C873 0.930 . S
H866 C874 0.930 . S
H867 C875 0.930 . S
H868 C878 0.930 . S
H869 C879 0.930 . S
C870 H864 0.930 . S
C870 C871 1.355 . S
C870 C872 1.415 . S
C871 C870 1.355 . S
C871 C873 1.419 . S
C872 C870 1.415 . S
C872 C877 1.425 1_655 S
C872 C879 1.409 1_655 S
C873 H865 0.930 . S
C873 C871 1.419 . S
C873 C874 1.362 . S
C874 H866 0.930 . S
C874 C873 1.362 . S
C874 C877 1.409 1_655 S
C875 H867 0.930 . S
C875 C876 1.355 . S
C875 C877 1.415 . S
C876 C875 1.355 . S
C876 C878 1.419 . S
C877 C872 1.425 1_455 S
C877 C874 1.409 1_455 S
C877 C875 1.415 . S
C878 H868 0.930 . S
C878 C876 1.419 . S
C878 C879 1.362 . S
C879 H869 0.930 . S
C879 C872 1.409 1_455 S
C879 C878 1.362 . S
H880 C886 0.930 . S
H881 C889 0.930 . S
H882 C890 0.930 . S
H883 C891 0.930 . S
H884 C894 0.930 . S
H885 C895 0.930 . S
C886 H880 0.930 . S
C886 C887 1.355 . S
C886 C888 1.415 . S
C887 C886 1.355 . S
C887 C889 1.419 . S
C888 C886 1.415 . S
C888 C893 1.425 . S
C888 C895 1.409 . S
C889 H881 0.930 . S
C889 C887 1.419 . S
C889 C890 1.362 . S
C890 H882 0.930 . S
C890 C889 1.362 . S
C890 C893 1.409 . S
C891 H883 0.930 . S
C891 C892 1.355 . S
C891 C893 1.415 . S
C892 C891 1.355 . S
C892 C894 1.419 . S
C893 C888 1.425 . S
C893 C890 1.409 . S
C893 C891 1.415 . S
C894 H884 0.930 . S
C894 C892 1.419 . S
C894 C895 1.362 . S
C895 H885 0.930 . S
C895 C888 1.409 . S
C895 C894 1.362 . S
H896 C902 0.930 . S
H897 C905 0.930 . S
H898 C906 0.930 . S
H899 C907 0.930 . S
H900 C910 0.930 . S
H901 C911 0.930 . S
C902 H896 0.930 . S
C902 C903 1.355 . S
C902 C904 1.415 . S
C903 C902 1.355 . S
C903 C905 1.419 . S
C904 C902 1.415 . S
C904 C909 1.425 . S
C904 C911 1.409 . S
C905 H897 0.930 . S
C905 C903 1.419 . S
C905 C906 1.362 . S
C906 H898 0.930 . S
C906 C905 1.362 . S
C906 C909 1.409 . S
C907 H899 0.930 . S
C907 C908 1.355 . S
C907 C909 1.415 . S
C908 C907 1.355 . S
C908 C910 1.419 . S
C909 C904 1.425 . S
C909 C906 1.409 . S
C909 C907 1.415 . S
C910 H900 0.930 . S
C910 C908 1.419 . S
C910 C911 1.362 . S
C911 H901 0.930 . S
C911 C904 1.409 . S
C911 C910 1.362 . S
H912 C918 0.930 . S
H913 C921 0.930 . S
H914 C922 0.930 . S
H915 C923 0.930 . S
H916 C926 0.930 . S
H917 C927 0.930 . S
C918 H912 0.930 . S
C918 C919 1.355 . S
C918 C920 1.415 . S
C919 C918 1.355 . S
C919 C921 1.419 . S
C920 C918 1.415 . S
C920 C925 1.425 1_655 S
C920 C927 1.409 . S
C921 H913 0.930 . S
C921 C919 1.419 . S
C921 C922 1.362 1_655 S
C922 H914 0.930 . S
C922 C921 1.362 1_455 S
C922 C925 1.409 . S
C923 H915 0.930 . S
C923 C924 1.355 . S
C923 C925 1.415 . S
C924 C923 1.355 . S
C924 C926 1.419 . S
C925 C920 1.425 1_455 S
C925 C922 1.409 . S
C925 C923 1.415 . S
C926 H916 0.930 . S
C926 C924 1.419 . S
C926 C927 1.362 1_455 S
C927 H917 0.930 . S
C927 C920 1.409 . S
C927 C926 1.362 1_655 S
H928 C934 0.930 . S
H929 C937 0.930 . S
H930 C938 0.930 . S
H931 C939 0.930 . S
H932 C942 0.930 . S
H933 C943 0.930 . S
C934 H928 0.930 . S
C934 C935 1.355 . S
C934 C936 1.415 . S
C935 C934 1.355 . S
C935 C937 1.419 1_556 S
C936 C934 1.415 . S
C936 C941 1.425 1_556 S
C936 C943 1.409 . S
C937 H929 0.930 . S
C937 C935 1.419 1_554 S
C937 C938 1.362 . S
C938 H930 0.930 . S
C938 C937 1.362 . S
C938 C941 1.409 . S
C939 H931 0.930 . S
C939 C940 1.355 . S
C939 C941 1.415 . S
C940 C939 1.355 . S
C940 C942 1.419 1_554 S
C941 C936 1.425 1_554 S
C941 C938 1.409 . S
C941 C939 1.415 . S
C942 H932 0.930 . S
C942 C940 1.419 1_556 S
C942 C943 1.362 . S
C943 H933 0.930 . S
C943 C936 1.409 . S
C943 C942 1.362 . S
H944 C950 0.930 . S
H945 C953 0.930 . S
H946 C954 0.930 1_565 S
H947 C955 0.930 . S
H948 C958 0.930 . S
H949 C959 0.930 1_545 S
C950 H944 0.930 . S
C950 C951 1.355 . S
C950 C952 1.415 . S
C951 C950 1.355 . S
C951 C953 1.419 . S
C952 C950 1.415 . S
C952 C957 1.425 1_545 S
C952 C959 1.409 1_545 S
C953 H945 0.930 . S
C953 C951 1.419 . S
C953 C954 1.362 . S
C954 H946 0.930 1_545 S
C954 C953 1.362 . S
C954 C957 1.409 1_545 S
C955 H947 0.930 . S
C955 C956 1.355 . S
C955 C957 1.415 . S
C956 C955 1.355 . S
C956 C958 1.419 . S
C957 C952 1.425 1_565 S
C957 C954 1.409 1_565 S
C957 C955 1.415 . S
C958 H948 0.930 . S
C958 C956 1.419 . S
C958 C959 1.362 . S
C959 H949 0.930 1_565 S
C959 C952 1.409 1_565 S
C959 C958 1.362 . S
H960 C966 0.930 . S
H961 C969 0.930 . S
H962 C970 0.930 . S
H963 C971 0.930 . S
H964 C974 0.930 . S
H965 C975 0.930 . S
C966 H960 0.930 . S
C966 C967 1.355 . S
C966 C968 1.415 . S
C967 C966 1.355 . S
C967 C969 1.419 . S
C968 C966 1.415 . S
C968 C973 1.425 . S
C968 C975 1.409 . S
C969 H961 0.930 . S
C969 C967 1.419 . S
C969 C970 1.362 . S
C970 H962 0.930 . S
C970 C969 1.362 . S
C970 C973 1.409 . S
C971 H963 0.930 . S
C971 C972 1.355 . S
C971 C973 1.415 . S
C972 C971 1.355 . S
C972 C974 1.419 . S
C973 C968 1.425 . S
C973 C970 1.409 . S
C973 C971 1.415 . S
C974 H964 0.930 . S
C974 C972 1.419 . S
C974 C975 1.362 . S
C975 H965 0.930 . S
C975 C968 1.409 . S
C975 C974 1.362 . S
H976 C982 0.930 . S
H977 C985 0.930 . S
H978 C986 0.930 . S
H979 C987 0.930 . S
H980 C990 0.930 . S
H981 C991 0.930 . S
C982 H976 0.930 . S
C982 C983 1.355 . S
C982 C984 1.415 . S
C983 C982 1.355 . S
C983 C985 1.419 . S
C984 C982 1.415 . S
C984 C989 1.425 1_545 S
C984 C991 1.409 1_545 S
C985 H977 0.930 . S
C985 C983 1.419 . S
C985 C986 1.362 . S
C986 H978 0.930 . S
C986 C985 1.362 . S
C986 C989 1.409 1_545 S
C987 H979 0.930 . S
C987 C988 1.355 . S
C987 C989 1.415 . S
C988 C987 1.355 . S
C988 C990 1.419 . S
C989 C984 1.425 1_565 S
C989 C986 1.409 1_565 S
C989 C987 1.415 . S
C990 H980 0.930 . S
C990 C988 1.419 . S
C990 C991 1.362 . S
C991 H981 0.930 . S
C991 C984 1.409 1_565 S
C991 C990 1.362 . S
H992 C998 0.930 . S
H993 C1001 0.930 . S
H994 C1002 0.930 . S
H995 C1003 0.930 . S
H996 C1006 0.930 . S
H997 C1007 0.930 . S
C998 H992 0.930 . S
C998 C999 1.355 1_556 S
C998 C1000 1.415 . S
C999 C998 1.355 1_554 S
C999 C1001 1.419 . S
C1000 C998 1.415 . S
C1000 C1005 1.425 1_556 S
C1000 C1007 1.409 . S
C1001 H993 0.930 . S
C1001 C999 1.419 . S
C1001 C1002 1.362 . S
C1002 H994 0.930 . S
C1002 C1001 1.362 . S
C1002 C1005 1.409 . S
C1003 H995 0.930 . S
C1003 C1004 1.355 1_554 S
C1003 C1005 1.415 . S
C1004 C1003 1.355 1_556 S
C1004 C1006 1.419 . S
C1005 C1000 1.425 1_554 S
C1005 C1002 1.409 . S
C1005 C1003 1.415 . S
C1006 H996 0.930 . S
C1006 C1004 1.419 . S
C1006 C1007 1.362 . S
C1007 H997 0.930 . S
C1007 C1000 1.409 . S
C1007 C1006 1.362 . S
H1008 C1014 0.930 . S
H1009 C1017 0.930 . S
H1010 C1018 0.930 . S
H1011 C1019 0.930 . S
H1012 C1022 0.930 . S
H1013 C1023 0.930 . S
C1014 H1008 0.930 . S
C1014 C1015 1.355 . S
C1014 C1016 1.415 . S
C1015 C1014 1.355 . S
C1015 C1017 1.419 . S
C1016 C1014 1.415 . S
C1016 C1021 1.425 1_565 S
C1016 C1023 1.409 1_565 S
C1017 H1009 0.930 . S
C1017 C1015 1.419 . S
C1017 C1018 1.362 . S
C1018 H1010 0.930 . S
C1018 C1017 1.362 . S
C1018 C1021 1.409 1_565 S
C1019 H1011 0.930 . S
C1019 C1020 1.355 . S
C1019 C1021 1.415 . S
C1020 C1019 1.355 . S
C1020 C1022 1.419 . S
C1021 C1016 1.425 1_545 S
C1021 C1018 1.409 1_545 S
C1021 C1019 1.415 . S
C1022 H1012 0.930 . S
C1022 C1020 1.419 . S
C1022 C1023 1.362 . S
C1023 H1013 0.930 . S
C1023 C1016 1.409 1_545 S
C1023 C1022 1.362 . S
H1024 C1030 0.930 . S
H1025 C1033 0.930 . S
H1026 C1034 0.930 . S
H1027 C1035 0.930 . S
H1028 C1038 0.930 . S
H1029 C1039 0.930 . S
C1030 H1024 0.930 . S
C1030 C1031 1.355 . S
C1030 C1032 1.415 . S
C1031 C1030 1.355 . S
C1031 C1033 1.419 . S
C1032 C1030 1.415 . S
C1032 C1037 1.425 . S
C1032 C1039 1.409 . S
C1033 H1025 0.930 . S
C1033 C1031 1.419 . S
C1033 C1034 1.362 . S
C1034 H1026 0.930 . S
C1034 C1033 1.362 . S
C1034 C1037 1.409 . S
C1035 H1027 0.930 . S
C1035 C1036 1.355 . S
C1035 C1037 1.415 . S
C1036 C1035 1.355 . S
C1036 C1038 1.419 . S
C1037 C1032 1.425 . S
C1037 C1034 1.409 . S
C1037 C1035 1.415 . S
C1038 H1028 0.930 . S
C1038 C1036 1.419 . S
C1038 C1039 1.362 . S
C1039 H1029 0.930 . S
C1039 C1032 1.409 . S
C1039 C1038 1.362 . S
H1040 C1046 0.930 . S
H1041 C1049 0.930 . S
H1042 C1050 0.930 . S
H1043 C1051 0.930 . S
H1044 C1054 0.930 . S
H1045 C1055 0.930 . S
C1046 H1040 0.930 . S
C1046 C1047 1.355 . S
C1046 C1048 1.415 . S
C1047 C1046 1.355 . S
C1047 C1049 1.419 . S
C1048 C1046 1.415 . S
C1048 C1053 1.425 1_545 S
C1048 C1055 1.409 1_545 S
C1049 H1041 0.930 . S
C1049 C1047 1.419 . S
C1049 C1050 1.362 . S
C1050 H1042 0.930 . S
C1050 C1049 1.362 . S
C1050 C1053 1.409 1_545 S
C1051 H1043 0.930 . S
C1051 C1052 1.355 . S
C1051 C1053 1.415 . S
C1052 C1051 1.355 . S
C1052 C1054 1.419 . S
C1053 C1048 1.425 1_565 S
C1053 C1050 1.409 1_565 S
C1053 C1051 1.415 . S
C1054 H1044 0.930 . S
C1054 C1052 1.419 . S
C1054 C1055 1.362 . S
C1055 H1045 0.930 . S
C1055 C1048 1.409 1_565 S
C1055 C1054 1.362 . S
H1056 C1062 0.930 . S
H1057 C1065 0.930 . S
H1058 C1066 0.930 . S
H1059 C1067 0.930 . S
H1060 C1070 0.930 . S
H1061 C1071 0.930 . S
C1062 H1056 0.930 . S
C1062 C1063 1.355 . S
C1062 C1064 1.415 . S
C1063 C1062 1.355 . S
C1063 C1065 1.419 . S
C1064 C1062 1.415 . S
C1064 C1069 1.425 . S
C1064 C1071 1.409 . S
C1065 H1057 0.930 . S
C1065 C1063 1.419 . S
C1065 C1066 1.362 . S
C1066 H1058 0.930 . S
C1066 C1065 1.362 . S
C1066 C1069 1.409 . S
C1067 H1059 0.930 . S
C1067 C1068 1.355 . S
C1067 C1069 1.415 . S
C1068 C1067 1.355 . S
C1068 C1070 1.419 . S
C1069 C1064 1.425 . S
C1069 C1066 1.409 . S
C1069 C1067 1.415 . S
C1070 H1060 0.930 . S
C1070 C1068 1.419 . S
C1070 C1071 1.362 . S
C1071 H1061 0.930 . S
C1071 C1064 1.409 . S
C1071 C1070 1.362 . S
H1072 C1078 0.930 . S
H1073 C1081 0.930 . S
H1074 C1082 0.930 . S
H1075 C1083 0.930 . S
H1076 C1086 0.930 . S
H1077 C1087 0.930 . S
C1078 H1072 0.930 . S
C1078 C1079 1.355 . S
C1078 C1080 1.415 . S
C1079 C1078 1.355 . S
C1079 C1081 1.419 . S
C1080 C1078 1.415 . S
C1080 C1085 1.425 . S
C1080 C1087 1.409 . S
C1081 H1073 0.930 . S
C1081 C1079 1.419 . S
C1081 C1082 1.362 . S
C1082 H1074 0.930 . S
C1082 C1081 1.362 . S
C1082 C1085 1.409 . S
C1083 H1075 0.930 . S
C1083 C1084 1.355 . S
C1083 C1085 1.415 . S
C1084 C1083 1.355 . S
C1084 C1086 1.419 . S
C1085 C1080 1.425 . S
C1085 C1082 1.409 . S
C1085 C1083 1.415 . S
C1086 H1076 0.930 . S
C1086 C1084 1.419 . S
C1086 C1087 1.362 . S
C1087 H1077 0.930 . S
C1087 C1080 1.409 . S
C1087 C1086 1.362 . S
H1088 C1094 0.930 . S
H1089 C1097 0.930 . S
H1090 C1098 0.930 . S
H1091 C1099 0.930 . S
H1092 C1102 0.930 . S
H1093 C1103 0.930 . S
C1094 H1088 0.930 . S
C1094 C1095 1.355 1_556 S
C1094 C1096 1.415 . S
C1095 C1094 1.355 1_554 S
C1095 C1097 1.419 . S
C1096 C1094 1.415 . S
C1096 C1101 1.425 1_556 S
C1096 C1103 1.409 . S
C1097 H1089 0.930 . S
C1097 C1095 1.419 . S
C1097 C1098 1.362 . S
C1098 H1090 0.930 . S
C1098 C1097 1.362 . S
C1098 C1101 1.409 . S
C1099 H1091 0.930 . S
C1099 C1100 1.355 1_554 S
C1099 C1101 1.415 . S
C1100 C1099 1.355 1_556 S
C1100 C1102 1.419 . S
C1101 C1096 1.425 1_554 S
C1101 C1098 1.409 . S
C1101 C1099 1.415 . S
C1102 H1092 0.930 . S
C1102 C1100 1.419 . S
C1102 C1103 1.362 . S
C1103 H1093 0.930 . S
C1103 C1096 1.409 . S
C1103 C1102 1.362 . S
H1104 C1110 0.930 . S
H1105 C1113 0.930 . S
H1106 C1114 0.930 . S
H1107 C1115 0.930 . S
H1108 C1118 0.930 . S
H1109 C1119 0.930 . S
C1110 H1104 0.930 . S
C1110 C1111 1.355 . S
C1110 C1112 1.415 . S
C1111 C1110 1.355 . S
C1111 C1113 1.419 . S
C1112 C1110 1.415 . S
C1112 C1117 1.425 . S
C1112 C1119 1.409 . S
C1113 H1105 0.930 . S
C1113 C1111 1.419 . S
C1113 C1114 1.362 . S
C1114 H1106 0.930 . S
C1114 C1113 1.362 . S
C1114 C1117 1.409 . S
C1115 H1107 0.930 . S
C1115 C1116 1.355 . S
C1115 C1117 1.415 . S
C1116 C1115 1.355 . S
C1116 C1118 1.419 . S
C1117 C1112 1.425 . S
C1117 C1114 1.409 . S
C1117 C1115 1.415 . S
C1118 H1108 0.930 . S
C1118 C1116 1.419 . S
C1118 C1119 1.362 . S
C1119 H1109 0.930 . S
C1119 C1112 1.409 . S
C1119 C1118 1.362 . S
H1120 C1126 0.930 . S
H1121 C1129 0.930 . S
H1122 C1130 0.930 . S
H1123 C1131 0.930 . S
H1124 C1134 0.930 . S
H1125 C1135 0.930 . S
C1126 H1120 0.930 . S
C1126 C1127 1.355 . S
C1126 C1128 1.415 . S
C1127 C1126 1.355 . S
C1127 C1129 1.419 . S
C1128 C1126 1.415 . S
C1128 C1133 1.425 . S
C1128 C1135 1.409 . S
C1129 H1121 0.930 . S
C1129 C1127 1.419 . S
C1129 C1130 1.362 . S
C1130 H1122 0.930 . S
C1130 C1129 1.362 . S
C1130 C1133 1.409 . S
C1131 H1123 0.930 . S
C1131 C1132 1.355 . S
C1131 C1133 1.415 . S
C1132 C1131 1.355 . S
C1132 C1134 1.419 . S
C1133 C1128 1.425 . S
C1133 C1130 1.409 . S
C1133 C1131 1.415 . S
C1134 H1124 0.930 . S
C1134 C1132 1.419 . S
C1134 C1135 1.362 . S
C1135 H1125 0.930 . S
C1135 C1128 1.409 . S
C1135 C1134 1.362 . S
H1136 C1142 0.930 . S
H1137 C1145 0.930 . S
H1138 C1146 0.930 . S
H1139 C1147 0.930 . S
H1140 C1150 0.930 . S
H1141 C1151 0.930 . S
C1142 H1136 0.930 . S
C1142 C1143 1.355 . S
C1142 C1144 1.415 . S
C1143 C1142 1.355 . S
C1143 C1145 1.419 . S
C1144 C1142 1.415 . S
C1144 C1149 1.425 . S
C1144 C1151 1.409 . S
C1145 H1137 0.930 . S
C1145 C1143 1.419 . S
C1145 C1146 1.362 . S
C1146 H1138 0.930 . S
C1146 C1145 1.362 . S
C1146 C1149 1.409 . S
C1147 H1139 0.930 . S
C1147 C1148 1.355 . S
C1147 C1149 1.415 . S
C1148 C1147 1.355 . S
C1148 C1150 1.419 . S
C1149 C1144 1.425 . S
C1149 C1146 1.409 . S
C1149 C1147 1.415 . S
C1150 H1140 0.930 . S
C1150 C1148 1.419 . S
C1150 C1151 1.362 . S
C1151 H1141 0.930 . S
C1151 C1144 1.409 . S
C1151 C1150 1.362 . S
H1152 C1158 0.930 . S
H1153 C1161 0.930 . S
H1154 C1162 0.930 . S
H1155 C1163 0.930 . S
H1156 C1166 0.930 . S
H1157 C1167 0.930 . S
C1158 H1152 0.930 . S
C1158 C1159 1.355 . S
C1158 C1160 1.415 . S
C1159 C1158 1.355 . S
C1159 C1161 1.419 1_556 S
C1160 C1158 1.415 . S
C1160 C1165 1.425 1_556 S
C1160 C1167 1.409 . S
C1161 H1153 0.930 . S
C1161 C1159 1.419 1_554 S
C1161 C1162 1.362 . S
C1162 H1154 0.930 . S
C1162 C1161 1.362 . S
C1162 C1165 1.409 . S
C1163 H1155 0.930 . S
C1163 C1164 1.355 . S
C1163 C1165 1.415 . S
C1164 C1163 1.355 . S
C1164 C1166 1.419 1_554 S
C1165 C1160 1.425 1_554 S
C1165 C1162 1.409 . S
C1165 C1163 1.415 . S
C1166 H1156 0.930 . S
C1166 C1164 1.419 1_556 S
C1166 C1167 1.362 . S
C1167 H1157 0.930 . S
C1167 C1160 1.409 . S
C1167 C1166 1.362 . S
H1168 C1174 0.930 . S
H1169 C1177 0.930 . S
H1170 C1178 0.930 . S
H1171 C1179 0.930 . S
H1172 C1182 0.930 . S
H1173 C1183 0.930 . S
C1174 H1168 0.930 . S
C1174 C1175 1.355 . S
C1174 C1176 1.415 . S
C1175 C1174 1.355 . S
C1175 C1177 1.419 . S
C1176 C1174 1.415 . S
C1176 C1181 1.425 . S
C1176 C1183 1.409 . S
C1177 H1169 0.930 . S
C1177 C1175 1.419 . S
C1177 C1178 1.362 . S
C1178 H1170 0.930 . S
C1178 C1177 1.362 . S
C1178 C1181 1.409 . S
C1179 H1171 0.930 . S
C1179 C1180 1.355 . S
C1179 C1181 1.415 . S
C1180 C1179 1.355 . S
C1180 C1182 1.419 . S
C1181 C1176 1.425 . S
C1181 C1178 1.409 . S
C1181 C1179 1.415 . S
C1182 H1172 0.930 . S
C1182 C1180 1.419 . S
C1182 C1183 1.362 . S
C1183 H1173 0.930 . S
C1183 C1176 1.409 . S
C1183 C1182 1.362 . S
H1184 C1190 0.930 . S
H1185 C1193 0.930 . S
H1186 C1194 0.930 . S
H1187 C1195 0.930 . S
H1188 C1198 0.930 . S
H1189 C1199 0.930 . S
C1190 H1184 0.930 . S
C1190 C1191 1.355 . S
C1190 C1192 1.415 . S
C1191 C1190 1.355 . S
C1191 C1193 1.419 . S
C1192 C1190 1.415 . S
C1192 C1197 1.425 . S
C1192 C1199 1.409 . S
C1193 H1185 0.930 . S
C1193 C1191 1.419 . S
C1193 C1194 1.362 . S
C1194 H1186 0.930 . S
C1194 C1193 1.362 . S
C1194 C1197 1.409 . S
C1195 H1187 0.930 . S
C1195 C1196 1.355 . S
C1195 C1197 1.415 . S
C1196 C1195 1.355 . S
C1196 C1198 1.419 . S
C1197 C1192 1.425 . S
C1197 C1194 1.409 . S
C1197 C1195 1.415 . S
C1198 H1188 0.930 . S
C1198 C1196 1.419 . S
C1198 C1199 1.362 . S
C1199 H1189 0.930 . S
C1199 C1192 1.409 . S
C1199 C1198 1.362 . S
H1200 C1206 0.930 . S
H1201 C1209 0.930 . S
H1202 C1210 0.930 . S
H1203 C1211 0.930 . S
H1204 C1214 0.930 . S
H1205 C1215 0.930 . S
C1206 H1200 0.930 . S
C1206 C1207 1.355 . S
C1206 C1208 1.415 . S
C1207 C1206 1.355 . S
C1207 C1209 1.419 . S
C1208 C1206 1.415 . S
C1208 C1213 1.425 . S
C1208 C1215 1.409 . S
C1209 H1201 0.930 . S
C1209 C1207 1.419 . S
C1209 C1210 1.362 . S
C1210 H1202 0.930 . S
C1210 C1209 1.362 . S
C1210 C1213 1.409 . S
C1211 H1203 0.930 . S
C1211 C1212 1.355 . S
C1211 C1213 1.415 . S
C1212 C1211 1.355 . S
C1212 C1214 1.419 . S
C1213 C1208 1.425 . S
C1213 C1210 1.409 . S
C1213 C1211 1.415 . S
C1214 H1204 0.930 . S
C1214 C1212 1.419 . S
C1214 C1215 1.362 . S
C1215 H1205 0.930 . S
C1215 C1208 1.409 . S
C1215 C1214 1.362 . S
H1216 C1222 0.930 . S
H1217 C1225 0.930 . S
H1218 C1226 0.930 . S
H1219 C1227 0.930 . S
H1220 C1230 0.930 . S
H1221 C1231 0.930 . S
C1222 H1216 0.930 . S
C1222 C1223 1.355 . S
C1222 C1224 1.415 . S
C1223 C1222 1.355 . S
C1223 C1225 1.419 . S
C1224 C1222 1.415 . S
C1224 C1229 1.425 . S
C1224 C1231 1.409 . S
C1225 H1217 0.930 . S
C1225 C1223 1.419 . S
C1225 C1226 1.362 . S
C1226 H1218 0.930 . S
C1226 C1225 1.362 . S
C1226 C1229 1.409 . S
C1227 H1219 0.930 . S
C1227 C1228 1.355 . S
C1227 C1229 1.415 . S
C1228 C1227 1.355 . S
C1228 C1230 1.419 . S
C1229 C1224 1.425 . S
C1229 C1226 1.409 . S
C1229 C1227 1.415 . S
C1230 H1220 0.930 . S
C1230 C1228 1.419 . S
C1230 C1231 1.362 . S
C1231 H1221 0.930 . S
C1231 C1224 1.409 . S
C1231 C1230 1.362 . S
H1232 C1238 0.930 . S
H1233 C1241 0.930 . S
H1234 C1242 0.930 . S
H1235 C1243 0.930 . S
H1236 C1246 0.930 . S
H1237 C1247 0.930 . S
C1238 H1232 0.930 . S
C1238 C1239 1.355 . S
C1238 C1240 1.415 . S
C1239 C1238 1.355 . S
C1239 C1241 1.419 . S
C1240 C1238 1.415 . S
C1240 C1245 1.425 . S
C1240 C1247 1.409 . S
C1241 H1233 0.930 . S
C1241 C1239 1.419 . S
C1241 C1242 1.362 . S
C1242 H1234 0.930 . S
C1242 C1241 1.362 . S
C1242 C1245 1.409 . S
C1243 H1235 0.930 . S
C1243 C1244 1.355 . S
C1243 C1245 1.415 . S
C1244 C1243 1.355 . S
C1244 C1246 1.419 . S
C1245 C1240 1.425 . S
C1245 C1242 1.409 . S
C1245 C1243 1.415 . S
C1246 H1236 0.930 . S
C1246 C1244 1.419 . S
C1246 C1247 1.362 . S
C1247 H1237 0.930 . S
C1247 C1240 1.409 . S
C1247 C1246 1.362 . S
H1248 C1254 0.930 . S
H1249 C1257 0.930 . S
H1250 C1258 0.930 . S
H1251 C1259 0.930 . S
H1252 C1262 0.930 . S
H1253 C1263 0.930 . S
C1254 H1248 0.930 . S
C1254 C1255 1.355 . S
C1254 C1256 1.415 . S
C1255 C1254 1.355 . S
C1255 C1257 1.419 . S
C1256 C1254 1.415 . S
C1256 C1261 1.425 . S
C1256 C1263 1.409 . S
C1257 H1249 0.930 . S
C1257 C1255 1.419 . S
C1257 C1258 1.362 . S
C1258 H1250 0.930 . S
C1258 C1257 1.362 . S
C1258 C1261 1.409 . S
C1259 H1251 0.930 . S
C1259 C1260 1.355 . S
C1259 C1261 1.415 . S
C1260 C1259 1.355 . S
C1260 C1262 1.419 . S
C1261 C1256 1.425 . S
C1261 C1258 1.409 . S
C1261 C1259 1.415 . S
C1262 H1252 0.930 . S
C1262 C1260 1.419 . S
C1262 C1263 1.362 . S
C1263 H1253 0.930 . S
C1263 C1256 1.409 . S
C1263 C1262 1.362 . S
H1264 C1270 0.930 . S
H1265 C1273 0.930 . S
H1266 C1274 0.930 . S
H1267 C1275 0.930 . S
H1268 C1278 0.930 . S
H1269 C1279 0.930 . S
C1270 H1264 0.930 . S
C1270 C1271 1.355 . S
C1270 C1272 1.415 . S
C1271 C1270 1.355 . S
C1271 C1273 1.419 . S
C1272 C1270 1.415 . S
C1272 C1277 1.425 . S
C1272 C1279 1.409 . S
C1273 H1265 0.930 . S
C1273 C1271 1.419 . S
C1273 C1274 1.362 . S
C1274 H1266 0.930 . S
C1274 C1273 1.362 . S
C1274 C1277 1.409 . S
C1275 H1267 0.930 . S
C1275 C1276 1.355 . S
C1275 C1277 1.415 . S
C1276 C1275 1.355 . S
C1276 C1278 1.419 . S
C1277 C1272 1.425 . S
C1277 C1274 1.409 . S
C1277 C1275 1.415 . S
C1278 H1268 0.930 . S
C1278 C1276 1.419 . S
C1278 C1279 1.362 . S
C1279 H1269 0.930 . S
C1279 C1272 1.409 . S
C1279 C1278 1.362 . S
H1280 C1286 0.930 . S
H1281 C1289 0.930 . S
H1282 C1290 0.930 . S
H1283 C1291 0.930 . S
H1284 C1294 0.930 . S
H1285 C1295 0.930 . S
C1286 H1280 0.930 . S
C1286 C1287 1.355 . S
C1286 C1288 1.415 . S
C1287 C1286 1.355 . S
C1287 C1289 1.419 . S
C1288 C1286 1.415 . S
C1288 C1293 1.425 . S
C1288 C1295 1.409 . S
C1289 H1281 0.930 . S
C1289 C1287 1.419 . S
C1289 C1290 1.362 . S
C1290 H1282 0.930 . S
C1290 C1289 1.362 . S
C1290 C1293 1.409 . S
C1291 H1283 0.930 . S
C1291 C1292 1.355 . S
C1291 C1293 1.415 . S
C1292 C1291 1.355 . S
C1292 C1294 1.419 . S
C1293 C1288 1.425 . S
C1293 C1290 1.409 . S
C1293 C1291 1.415 . S
C1294 H1284 0.930 . S
C1294 C1292 1.419 . S
C1294 C1295 1.362 . S
C1295 H1285 0.930 . S
C1295 C1288 1.409 . S
C1295 C1294 1.362 . S
H1296 C1302 0.930 . S
H1297 C1305 0.930 . S
H1298 C1306 0.930 . S
H1299 C1307 0.930 . S
H1300 C1310 0.930 . S
H1301 C1311 0.930 . S
C1302 H1296 0.930 . S
C1302 C1303 1.355 . S
C1302 C1304 1.415 . S
C1303 C1302 1.355 . S
C1303 C1305 1.419 . S
C1304 C1302 1.415 . S
C1304 C1309 1.425 . S
C1304 C1311 1.409 . S
C1305 H1297 0.930 . S
C1305 C1303 1.419 . S
C1305 C1306 1.362 . S
C1306 H1298 0.930 . S
C1306 C1305 1.362 . S
C1306 C1309 1.409 . S
C1307 H1299 0.930 . S
C1307 C1308 1.355 . S
C1307 C1309 1.415 . S
C1308 C1307 1.355 . S
C1308 C1310 1.419 . S
C1309 C1304 1.425 . S
C1309 C1306 1.409 . S
C1309 C1307 1.415 . S
C1310 H1300 0.930 . S
C1310 C1308 1.419 . S
C1310 C1311 1.362 . S
C1311 H1301 0.930 . S
C1311 C1304 1.409 . S
C1311 C1310 1.362 . S
H1312 C1318 0.930 . S
H1313 C1321 0.930 . S
H1314 C1322 0.930 . S
H1315 C1323 0.930 . S
H1316 C1326 0.930 . S
H1317 C1327 0.930 . S
C1318 H1312 0.930 . S
C1318 C1319 1.355 . S
C1318 C1320 1.415 . S
C1319 C1318 1.355 . S
C1319 C1321 1.419 . S
C1320 C1318 1.415 . S
C1320 C1325 1.425 . S
C1320 C1327 1.409 . S
C1321 H1313 0.930 . S
C1321 C1319 1.419 . S
C1321 C1322 1.362 . S
C1322 H1314 0.930 . S
C1322 C1321 1.362 . S
C1322 C1325 1.409 . S
C1323 H1315 0.930 . S
C1323 C1324 1.355 . S
C1323 C1325 1.415 . S
C1324 C1323 1.355 . S
C1324 C1326 1.419 . S
C1325 C1320 1.425 . S
C1325 C1322 1.409 . S
C1325 C1323 1.415 . S
C1326 H1316 0.930 . S
C1326 C1324 1.419 . S
C1326 C1327 1.362 . S
C1327 H1317 0.930 . S
C1327 C1320 1.409 . S
C1327 C1326 1.362 . S
H1328 C1334 0.930 . S
H1329 C1337 0.930 . S
H1330 C1338 0.930 . S
H1331 C1339 0.930 . S
H1332 C1342 0.930 . S
H1333 C1343 0.930 . S
C1334 H1328 0.930 . S
C1334 C1335 1.355 . S
C1334 C1336 1.415 . S
C1335 C1334 1.355 . S
C1335 C1337 1.419 . S
C1336 C1334 1.415 . S
C1336 C1341 1.425 . S
C1336 C1343 1.409 . S
C1337 H1329 0.930 . S
C1337 C1335 1.419 . S
C1337 C1338 1.362 . S
C1338 H1330 0.930 . S
C1338 C1337 1.362 . S
C1338 C1341 1.409 . S
C1339 H1331 0.930 . S
C1339 C1340 1.355 . S
C1339 C1341 1.415 . S
C1340 C1339 1.355 . S
C1340 C1342 1.419 . S
C1341 C1336 1.425 . S
C1341 C1338 1.409 . S
C1341 C1339 1.415 . S
C1342 H1332 0.930 . S
C1342 C1340 1.419 . S
C1342 C1343 1.362 . S
C1343 H1333 0.930 . S
C1343 C1336 1.409 . S
C1343 C1342 1.362 . S
H1344 C1350 0.930 . S
H1345 C1353 0.930 . S
H1346 C1354 0.930 . S
H1347 C1355 0.930 . S
H1348 C1358 0.930 . S
H1349 C1359 0.930 . S
C1350 H1344 0.930 . S
C1350 C1351 1.355 . S
C1350 C1352 1.415 . S
C1351 C1350 1.355 . S
C1351 C1353 1.419 . S
C1352 C1350 1.415 . S
C1352 C1357 1.425 . S
C1352 C1359 1.409 . S
C1353 H1345 0.930 . S
C1353 C1351 1.419 . S
C1353 C1354 1.362 . S
C1354 H1346 0.930 . S
C1354 C1353 1.362 . S
C1354 C1357 1.409 . S
C1355 H1347 0.930 . S
C1355 C1356 1.355 . S
C1355 C1357 1.415 . S
C1356 C1355 1.355 . S
C1356 C1358 1.419 . S
C1357 C1352 1.425 . S
C1357 C1354 1.409 . S
C1357 C1355 1.415 . S
C1358 H1348 0.930 . S
C1358 C1356 1.419 . S
C1358 C1359 1.362 . S
C1359 H1349 0.930 . S
C1359 C1352 1.409 . S
C1359 C1358 1.362 . S
H1360 C1366 0.930 . S
H1361 C1369 0.930 . S
H1362 C1370 0.930 . S
H1363 C1371 0.930 . S
H1364 C1374 0.930 . S
H1365 C1375 0.930 . S
C1366 H1360 0.930 . S
C1366 C1367 1.355 . S
C1366 C1368 1.415 . S
C1367 C1366 1.355 . S
C1367 C1369 1.419 . S
C1368 C1366 1.415 . S
C1368 C1373 1.425 . S
C1368 C1375 1.409 . S
C1369 H1361 0.930 . S
C1369 C1367 1.419 . S
C1369 C1370 1.362 . S
C1370 H1362 0.930 . S
C1370 C1369 1.362 . S
C1370 C1373 1.409 . S
C1371 H1363 0.930 . S
C1371 C1372 1.355 . S
C1371 C1373 1.415 . S
C1372 C1371 1.355 . S
C1372 C1374 1.419 . S
C1373 C1368 1.425 . S
C1373 C1370 1.409 . S
C1373 C1371 1.415 . S
C1374 H1364 0.930 . S
C1374 C1372 1.419 . S
C1374 C1375 1.362 . S
C1375 H1365 0.930 . S
C1375 C1368 1.409 . S
C1375 C1374 1.362 . S
H1376 C1382 0.930 . S
H1377 C1385 0.930 . S
H1378 C1386 0.930 . S
H1379 C1387 0.930 . S
H1380 C1390 0.930 . S
H1381 C1391 0.930 . S
C1382 H1376 0.930 . S
C1382 C1383 1.355 . S
C1382 C1384 1.415 . S
C1383 C1382 1.355 . S
C1383 C1385 1.419 . S
C1384 C1382 1.415 . S
C1384 C1389 1.425 . S
C1384 C1391 1.409 . S
C1385 H1377 0.930 . S
C1385 C1383 1.419 . S
C1385 C1386 1.362 . S
C1386 H1378 0.930 . S
C1386 C1385 1.362 . S
C1386 C1389 1.409 . S
C1387 H1379 0.930 . S
C1387 C1388 1.355 . S
C1387 C1389 1.415 . S
C1388 C1387 1.355 . S
C1388 C1390 1.419 . S
C1389 C1384 1.425 . S
C1389 C1386 1.409 . S
C1389 C1387 1.415 . S
C1390 H1380 0.930 . S
C1390 C1388 1.419 . S
C1390 C1391 1.362 . S
C1391 H1381 0.930 . S
C1391 C1384 1.409 . S
C1391 C1390 1.362 . S
H1392 C1398 0.930 . S
H1393 C1401 0.930 . S
H1394 C1402 0.930 . S
H1395 C1403 0.930 . S
H1396 C1406 0.930 . S
H1397 C1407 0.930 . S
C1398 H1392 0.930 . S
C1398 C1399 1.355 . S
C1398 C1400 1.415 . S
C1399 C1398 1.355 . S
C1399 C1401 1.419 . S
C1400 C1398 1.415 . S
C1400 C1405 1.425 . S
C1400 C1407 1.409 . S
C1401 H1393 0.930 . S
C1401 C1399 1.419 . S
C1401 C1402 1.362 . S
C1402 H1394 0.930 . S
C1402 C1401 1.362 . S
C1402 C1405 1.409 . S
C1403 H1395 0.930 . S
C1403 C1404 1.355 . S
C1403 C1405 1.415 . S
C1404 C1403 1.355 . S
C1404 C1406 1.419 . S
C1405 C1400 1.425 . S
C1405 C1402 1.409 . S
C1405 C1403 1.415 . S
C1406 H1396 0.930 . S
C1406 C1404 1.419 . S
C1406 C1407 1.362 . S
C1407 H1397 0.930 . S
C1407 C1400 1.409 . S
C1407 C1406 1.362 . S
H1408 C1414 0.930 . S
H1409 C1417 0.930 . S
H1410 C1418 0.930 . S
H1411 C1419 0.930 . S
H1412 C1422 0.930 . S
H1413 C1423 0.930 . S
C1414 H1408 0.930 . S
C1414 C1415 1.355 . S
C1414 C1416 1.415 . S
C1415 C1414 1.355 . S
C1415 C1417 1.419 . S
C1416 C1414 1.415 . S
C1416 C1421 1.425 . S
C1416 C1423 1.409 . S
C1417 H1409 0.930 . S
C1417 C1415 1.419 . S
C1417 C1418 1.362 . S
C1418 H1410 0.930 . S
C1418 C1417 1.362 . S
C1418 C1421 1.409 . S
C1419 H1411 0.930 . S
C1419 C1420 1.355 . S
C1419 C1421 1.415 . S
C1420 C1419 1.355 . S
C1420 C1422 1.419 . S
C1421 C1416 1.425 . S
C1421 C1418 1.409 . S
C1421 C1419 1.415 . S
C1422 H1412 0.930 . S
C1422 C1420 1.419 . S
C1422 C1423 1.362 . S
C1423 H1413 0.930 . S
C1423 C1416 1.409 . S
C1423 C1422 1.362 . S
H1424 C1430 0.930 . S
H1425 C1433 0.930 . S
H1426 C1434 0.930 . S
H1427 C1435 0.930 . S
H1428 C1438 0.930 . S
H1429 C1439 0.930 . S
C1430 H1424 0.930 . S
C1430 C1431 1.355 . S
C1430 C1432 1.415 . S
C1431 C1430 1.355 . S
C1431 C1433 1.419 . S
C1432 C1430 1.415 . S
C1432 C1437 1.425 . S
C1432 C1439 1.409 . S
C1433 H1425 0.930 . S
C1433 C1431 1.419 . S
C1433 C1434 1.362 . S
C1434 H1426 0.930 . S
C1434 C1433 1.362 . S
C1434 C1437 1.409 . S
C1435 H1427 0.930 . S
C1435 C1436 1.355 . S
C1435 C1437 1.415 . S
C1436 C1435 1.355 . S
C1436 C1438 1.419 . S
C1437 C1432 1.425 . S
C1437 C1434 1.409 . S
C1437 C1435 1.415 . S
C1438 H1428 0.930 . S
C1438 C1436 1.419 . S
C1438 C1439 1.362 . S
C1439 H1429 0.930 . S
C1439 C1432 1.409 . S
C1439 C1438 1.362 . S
C423 C112 1.636 . S
C428 C8 1.636 . S
C439 C333 1.592 . S
C444 C21 1.592 . S
C455 C138 1.630 . S
C460 C34 1.630 . S
C471 C359 1.606 . S
C476 C47 1.606 . S
C487 C164 1.654 . S
C492 C60 1.654 . S
C503 C73 1.655 . S
C508 C385 1.655 . S
C519 C86 1.609 . S
C524 C190 1.609 . S
C535 C99 1.635 . S
C540 C411 1.635 . S
C551 C229 1.642 . S
C556 C125 1.642 . S
C567 C255 1.626 . S
C572 C151 1.626 . S
C583 C177 1.644 . S
C588 C281 1.644 . S
C599 C203 1.635 . S
C604 C307 1.635 . S
C615 C216 1.627 . S
C620 C320 1.627 . S
C631 C346 1.596 . S
C636 C242 1.596 . S
C647 C268 1.645 . S
C652 C372 1.645 . S
C663 C398 1.654 . S
C668 C294 1.654 . S
C679 C239 1.254 . S
C684 C5 1.189 . S
C695 C252 1.186 . S
C700 C18 1.254 . S
C711 C31 1.208 . S
C716 C213 1.248 . S
C727 C44 1.202 . S
C732 C226 1.195 . S
C743 C291 1.223 . S
C748 C57 1.180 . S
C759 C70 1.216 . S
C764 C304 1.243 . S
C775 C265 1.254 . S
C780 C83 1.187 . S
C791 C278 1.253 . S
C796 C96 1.196 . S
C807 C109 1.254 . S
C812 C343 1.191 . S
C823 C356 1.254 . S
C828 C122 1.190 . S
C839 C135 1.223 . S
C844 C317 1.239 . S
C855 C148 1.246 . S
C860 C330 1.213 . S
C871 C161 1.186 . S
C876 C395 1.254 . S
C887 C174 1.202 . S
C892 C408 1.196 . S
C903 C369 1.246 . S
C908 C187 1.212 . S
C919 C382 1.254 . S
C924 C200 1.189 . S
C935 C78 1.305 . S
C940 C0 1.304 . S
C951 C91 1.243 . S
C956 C13 1.245 . S
C967 C52 1.227 . S
C972 C26 1.228 . S
C983 C39 1.277 . S
C988 C65 1.279 . S
C999 C182 1.229 . S
C1004 C104 1.229 . S
C1015 C195 1.308 . S
C1020 C117 1.307 . S
C1031 C156 1.305 . S
C1036 C130 1.304 . S
C1047 C169 1.266 . S
C1052 C143 1.264 . S
C1063 C286 1.306 . S
C1068 C208 1.306 . S
C1079 C299 1.259 . S
C1084 C221 1.261 . S
C1095 C234 1.235 . S
C1100 C260 1.236 . S
C1111 C247 1.286 . S
C1116 C273 1.284 . S
C1127 C390 1.298 . S
C1132 C312 1.299 . S
C1143 C403 1.281 . S
C1148 C325 1.279 . S
C1159 C338 1.309 . S
C1164 C364 1.310 . S
C1175 C351 1.227 . S
C1180 C377 1.227 . S
C1191 C10 1.498 . S
C1196 C283 1.500 . S
C1207 C296 1.498 . S
C1212 C23 1.500 . S
C1223 C309 1.497 . S
C1228 C36 1.502 . S
C1239 C49 1.496 . S
C1244 C270 1.503 . S
C1255 C257 1.500 . S
C1260 C62 1.499 . S
C1271 C75 1.504 . S
C1276 C218 1.495 . S
C1287 C231 1.503 . S
C1292 C88 1.496 . S
C1303 C101 1.497 . S
C1308 C244 1.501 . S
C1319 C387 1.494 . S
C1324 C114 1.504 . S
C1335 C400 1.496 . S
C1340 C127 1.503 . S
C1351 C140 1.494 . S
C1356 C413 1.504 . S
C1367 C374 1.496 . S
C1372 C153 1.502 . S
C1383 C361 1.500 . S
C1388 C166 1.498 . S
C1399 C179 1.496 . S
C1404 C322 1.503 . S
C1415 C335 1.495 . S
C1420 C192 1.504 . S
C1431 C205 1.501 . S
C1436 C348 1.497 . S
