# Generated by pormake.
# Topology und, (4)-cn, num edge types: 1
# Building blocks:
#     Node 0, Type 0, BuildingBlock: QUQFOY_clean_sbu_3, # of connection points: 4
#     Node 1, Type 0, BuildingBlock: QUQFOY_clean_sbu_3, # of connection points: 4
#     Node 2, Type 0, BuildingBlock: QUQFOY_clean_sbu_3, # of connection points: 4
#     Node 3, Type 0, BuildingBlock: QUQFOY_clean_sbu_3, # of connection points: 4
#     Node 4, Type 0, BuildingBlock: QUQFOY_clean_sbu_3, # of connection points: 4
#     Node 5, Type 0, BuildingBlock: QUQFOY_clean_sbu_3, # of connection points: 4
#     Node 6, Type 0, BuildingBlock: QUQFOY_clean_sbu_3, # of connection points: 4
#     Node 7, Type 0, BuildingBlock: QUQFOY_clean_sbu_3, # of connection points: 4
#     Node 8, Type 0, BuildingBlock: QUQFOY_clean_sbu_3, # of connection points: 4
#     Node 9, Type 0, BuildingBlock: QUQFOY_clean_sbu_3, # of connection points: 4
#     Node 10, Type 0, BuildingBlock: QUQFOY_clean_sbu_3, # of connection points: 4
#     Node 11, Type 0, BuildingBlock: QUQFOY_clean_sbu_3, # of connection points: 4
#     Node 12, Type 0, BuildingBlock: QUQFOY_clean_sbu_3, # of connection points: 4
#     Node 13, Type 0, BuildingBlock: QUQFOY_clean_sbu_3, # of connection points: 4
#     Node 14, Type 0, BuildingBlock: QUQFOY_clean_sbu_3, # of connection points: 4
#     Node 15, Type 0, BuildingBlock: QUQFOY_clean_sbu_3, # of connection points: 4
#     Edge 16, Type (0, 0), BuildingBlock: EZIPEK_clean_linker_0, # of connection points: 2
#     Edge 17, Type (0, 0), BuildingBlock: EZIPEK_clean_linker_0, # of connection points: 2
#     Edge 18, Type (0, 0), BuildingBlock: EZIPEK_clean_linker_0, # of connection points: 2
#     Edge 19, Type (0, 0), BuildingBlock: EZIPEK_clean_linker_0, # of connection points: 2
#     Edge 20, Type (0, 0), BuildingBlock: EZIPEK_clean_linker_0, # of connection points: 2
#     Edge 21, Type (0, 0), BuildingBlock: EZIPEK_clean_linker_0, # of connection points: 2
#     Edge 22, Type (0, 0), BuildingBlock: EZIPEK_clean_linker_0, # of connection points: 2
#     Edge 23, Type (0, 0), BuildingBlock: EZIPEK_clean_linker_0, # of connection points: 2
#     Edge 24, Type (0, 0), BuildingBlock: EZIPEK_clean_linker_0, # of connection points: 2
#     Edge 25, Type (0, 0), BuildingBlock: EZIPEK_clean_linker_0, # of connection points: 2
#     Edge 26, Type (0, 0), BuildingBlock: EZIPEK_clean_linker_0, # of connection points: 2
#     Edge 27, Type (0, 0), BuildingBlock: EZIPEK_clean_linker_0, # of connection points: 2
#     Edge 28, Type (0, 0), BuildingBlock: EZIPEK_clean_linker_0, # of connection points: 2
#     Edge 29, Type (0, 0), BuildingBlock: EZIPEK_clean_linker_0, # of connection points: 2
#     Edge 30, Type (0, 0), BuildingBlock: EZIPEK_clean_linker_0, # of connection points: 2
#     Edge 31, Type (0, 0), BuildingBlock: EZIPEK_clean_linker_0, # of connection points: 2
#     Edge 32, Type (0, 0), BuildingBlock: EZIPEK_clean_linker_0, # of connection points: 2
#     Edge 33, Type (0, 0), BuildingBlock: EZIPEK_clean_linker_0, # of connection points: 2
#     Edge 34, Type (0, 0), BuildingBlock: EZIPEK_clean_linker_0, # of connection points: 2
#     Edge 35, Type (0, 0), BuildingBlock: EZIPEK_clean_linker_0, # of connection points: 2
#     Edge 36, Type (0, 0), BuildingBlock: EZIPEK_clean_linker_0, # of connection points: 2
#     Edge 37, Type (0, 0), BuildingBlock: EZIPEK_clean_linker_0, # of connection points: 2
#     Edge 38, Type (0, 0), BuildingBlock: EZIPEK_clean_linker_0, # of connection points: 2
#     Edge 39, Type (0, 0), BuildingBlock: EZIPEK_clean_linker_0, # of connection points: 2
#     Edge 40, Type (0, 0), BuildingBlock: EZIPEK_clean_linker_0, # of connection points: 2
#     Edge 41, Type (0, 0), BuildingBlock: EZIPEK_clean_linker_0, # of connection points: 2
#     Edge 42, Type (0, 0), BuildingBlock: EZIPEK_clean_linker_0, # of connection points: 2
#     Edge 43, Type (0, 0), BuildingBlock: EZIPEK_clean_linker_0, # of connection points: 2
#     Edge 44, Type (0, 0), BuildingBlock: EZIPEK_clean_linker_0, # of connection points: 2
#     Edge 45, Type (0, 0), BuildingBlock: EZIPEK_clean_linker_0, # of connection points: 2
#     Edge 46, Type (0, 0), BuildingBlock: EZIPEK_clean_linker_0, # of connection points: 2
#     Edge 47, Type (0, 0), BuildingBlock: EZIPEK_clean_linker_0, # of connection points: 2
# Relax obj value: 0.006
# Max RMSD: 0.045
# Mean RMSD: 0.045
data_MOF--net-und--node1-QUQFOY_clean_sbu_3--edge1-EZIPEK_clean_linker_0
_symmetry_space_group_name_H-M    P1
_symmetry_Int_Tables_number       1
_symmetry_cell_setting            triclinic
loop_
_symmetry_equiv_pos_as_xyz
'x, y, z'
_cell_length_a     45.412724
_cell_length_b     45.335579
_cell_length_c     16.785534
_cell_angle_alpha  90.152693
_cell_angle_beta   89.893277
_cell_angle_gamma 96.05672
loop_
_atom_site_label
_atom_site_type_symbol
_atom_site_fract_x
_atom_site_fract_y
_atom_site_fract_z
_atom_type_partial_charge
C0 C 0.25045 0.32023 0.15645 0.0
O1 O 0.27631 0.3325 0.14109 0.0
Cd2 Cd 0.2873 0.3649 0.02866 0.0
O3 O 0.22798 0.32626 0.11712 0.0
Cd4 Cd 0.21099 0.35724 0.01164 0.0
C5 C 0.25163 0.3169 0.88954 0.0
O6 O 0.24911 0.39647 0.02909 0.0
O7 O 0.21924 0.40306 0.93278 0.0
O8 O 0.17478 0.36612 0.11013 0.0
C9 C 0.243 0.41173 0.96941 0.0
O10 O 0.27524 0.32987 0.92005 0.0
C11 C 0.15224 0.36076 0.06565 0.0
O12 O 0.22587 0.32207 0.91278 0.0
O13 O 0.15712 0.35364 -0.00622 0.0
C14 C 0.97736 0.01611 0.15113 0.0
O15 O 0.9764 0.98946 0.17446 0.0
Cd16 Cd 0.94629 0.97388 0.28704 0.0
O17 O 0.95977 0.03343 0.17955 0.0
Cd18 Cd 0.91782 0.03154 0.27182 0.0
C19 C 0.96865 0.03219 0.41108 0.0
O20 O 0.89486 0.98017 0.27017 0.0
O21 O 0.88747 0.0067 0.37481 0.0
O22 O 0.88814 0.0489 0.1662 0.0
C23 C 0.88082 0.98318 0.33481 0.0
O24 O 0.96847 0.0048 0.3942 0.0
C25 C 0.88059 0.07098 0.20485 0.0
O26 O 0.95308 0.049 0.37272 0.0
O27 O 0.89108 0.07541 0.27453 0.0
C28 C 0.22092 0.71043 0.59377 0.0
O29 O 0.19595 0.69964 0.56662 0.0
Cd30 Cd 0.19233 0.6637 0.45932 0.0
O31 O 0.24492 0.70129 0.56982 0.0
Cd32 Cd 0.26795 0.66704 0.48348 0.0
C33 C 0.24076 0.70578 0.33341 0.0
O34 O 0.22714 0.63007 0.49102 0.0
O35 O 0.26233 0.61878 0.4141 0.0
O36 O 0.2957 0.66232 0.6027 0.0
C37 C 0.23623 0.61237 0.4403 0.0
O38 O 0.21477 0.69452 0.35216 0.0
C39 C 0.32114 0.66464 0.57036 0.0
O40 O 0.26369 0.7003 0.37214 0.0
O41 O 0.32183 0.66751 0.49494 0.0
C42 C 0.51791 0.02621 0.63025 0.0
O43 O 0.51829 0.05175 0.66169 0.0
Cd44 Cd 0.54874 0.06835 0.77409 0.0
O45 O 0.53545 0.0079 0.6531 0.0
Cd46 Cd 0.57456 0.0046 0.75103 0.0
C47 C 0.52238 0.00972 0.89118 0.0
O48 O 0.59775 0.05539 0.75747 0.0
O49 O 0.6087 0.02535 0.85048 0.0
O50 O 0.60544 0.98619 0.64968 0.0
C51 C 0.61266 0.05094 0.81951 0.0
O52 O 0.52516 0.03753 0.87821 0.0
C53 C 0.60913 0.96231 0.68585 0.0
O54 O 0.53625 0.99192 0.85024 0.0
O55 O 0.59575 0.95732 0.75186 0.0
C56 C 0.70964 0.71117 0.85139 0.0
O57 O 0.68226 0.70525 0.86618 0.0
Cd58 Cd 0.66728 0.67915 0.98662 0.0
O59 O 0.72905 0.70012 0.89277 0.0
Cd60 Cd 0.73368 0.66514 0.00081 0.0
C61 C 0.71384 0.71974 0.11591 0.0
O62 O 0.68737 0.63237 0.00166 0.0
O63 O 0.71464 0.63396 0.10848 0.0
O64 O 0.76154 0.63677 0.91298 0.0
C65 C 0.69187 0.62273 0.07139 0.0
O66 O 0.68761 0.71307 0.09021 0.0
C67 C 0.78501 0.63934 0.95447 0.0
O68 O 0.73555 0.7067 0.09078 0.0
O69 O 0.78488 0.65411 0.01899 0.0
C70 C 0.06538 0.05503 0.91853 0.0
O71 O 0.07622 0.08106 0.89954 0.0
Cd72 Cd 0.10588 0.09104 0.78063 0.0
O73 O 0.07129 0.03242 0.87927 0.0
Cd74 Cd 0.09891 0.01477 0.76833 0.0
C75 C 0.05611 0.054 0.65038 0.0
O76 O 0.13838 0.05325 0.7739 0.0
O77 O 0.14117 0.02214 0.67724 0.0
O78 O 0.11465 0.97715 0.85306 0.0
C79 C 0.15124 0.0463 0.71044 0.0
O80 O 0.06881 0.07837 0.67759 0.0
C81 C 0.10256 0.95528 0.81324 0.0
O82 O 0.06245 0.02883 0.6748 0.0
O83 O 0.08798 0.96105 0.75156 0.0
C84 C 0.77141 0.31401 0.39723 0.0
O85 O 0.79817 0.31977 0.41939 0.0
Cd86 Cd 0.81182 0.35293 0.5293 0.0
O87 O 0.75063 0.32677 0.42845 0.0
Cd88 Cd 0.73707 0.3629 0.52523 0.0
C89 C 0.76229 0.3167 0.66275 0.0
O90 O 0.78262 0.39281 0.51148 0.0
O91 O 0.75278 0.40937 0.59664 0.0
O92 O 0.70454 0.37533 0.42047 0.0
C93 C 0.77842 0.41142 0.56562 0.0
O94 O 0.78872 0.32333 0.63815 0.0
C95 C 0.68094 0.37251 0.46182 0.0
O96 O 0.74017 0.32737 0.63143 0.0
O97 O 0.68406 0.36715 0.5355 0.0
C98 C 0.42849 0.98957 0.39649 0.0
O99 O 0.42027 0.96238 0.3832 0.0
Cd100 Cd 0.39001 0.94684 0.27005 0.0
O101 O 0.41892 0.00976 0.35452 0.0
Cd102 Cd 0.38632 0.01792 0.24364 0.0
C103 C 0.43503 0.98378 0.13191 0.0
O104 O 0.34882 0.97614 0.25658 0.0
O105 O 0.34807 0.00176 0.14765 0.0
O106 O 0.36677 0.05578 0.32242 0.0
C107 C 0.33701 0.98003 0.18922 0.0
O108 O 0.42518 0.95896 0.16213 0.0
C109 C 0.375 0.07694 0.27531 0.0
O110 O 0.42525 0.00798 0.15253 0.0
O111 O 0.38839 0.07072 0.21181 0.0
C112 C 0.75738 0.79814 0.62354 0.0
O113 O 0.7839 0.79878 0.59916 0.0
Cd114 Cd 0.8011 0.82963 0.48896 0.0
O115 O 0.74007 0.81578 0.59574 0.0
Cd116 Cd 0.74005 0.85666 0.50088 0.0
C117 C 0.74554 0.80589 0.35927 0.0
O118 O 0.79102 0.88018 0.50651 0.0
O119 O 0.76437 0.89072 0.40515 0.0
O120 O 0.71797 0.88533 0.60221 0.0
C121 C 0.78836 0.89536 0.44384 0.0
O122 O 0.7728 0.80698 0.37776 0.0
C123 C 0.69513 0.88927 0.56175 0.0
O124 O 0.72769 0.8206 0.39717 0.0
O125 O 0.69293 0.87788 0.49247 0.0
C126 C 0.43011 0.48997 0.6782 0.0
O127 O 0.42032 0.46451 0.70431 0.0
Cd128 Cd 0.38533 0.45717 0.81315 0.0
O129 O 0.42079 0.51352 0.70514 0.0
Cd130 Cd 0.387 0.53251 0.801 0.0
C131 C 0.42703 0.50246 0.94488 0.0
O132 O 0.35011 0.49148 0.79157 0.0
O133 O 0.34096 0.5244 0.87864 0.0
O134 O 0.37302 0.56619 0.7014 0.0
C135 C 0.33359 0.49925 0.84707 0.0
O136 O 0.41625 0.47656 0.92366 0.0
C137 C 0.38087 0.58963 0.74088 0.0
O138 O 0.42078 0.52576 0.90913 0.0
O139 O 0.39249 0.58665 0.80887 0.0
C140 C 0.72614 0.22722 0.16631 0.0
O141 O 0.69901 0.22479 0.14657 0.0
Cd142 Cd 0.68148 0.19749 0.0295 0.0
O143 O 0.74447 0.21222 0.1316 0.0
Cd144 Cd 0.74683 0.17386 0.03097 0.0
C145 C 0.73612 0.22791 0.90238 0.0
O146 O 0.69679 0.14889 0.03413 0.0
O147 O 0.72439 0.13966 0.9335 0.0
O148 O 0.77025 0.14394 0.12501 0.0
C149 C 0.69974 0.13491 0.96935 0.0
O150 O 0.70909 0.22502 0.92411 0.0
C151 C 0.7937 0.143 0.08421 0.0
O152 O 0.75526 0.21292 0.9335 0.0
O153 O 0.79566 0.15673 0.01816 0.0
C154 C 0.06138 0.54389 0.11301 0.0
O155 O 0.07452 0.56895 0.13315 0.0
Cd156 Cd 0.10594 0.57496 0.24951 0.0
O157 O 0.0657 0.52024 0.14957 0.0
Cd158 Cd 0.09247 0.49812 0.25538 0.0
C159 C 0.05425 0.5402 0.37986 0.0
O160 O 0.13407 0.53378 0.24517 0.0
O161 O 0.13792 0.5013 0.33695 0.0
O162 O 0.09809 0.4611 0.15552 0.0
C163 C 0.14827 0.52543 0.3044 0.0
O164 O 0.06926 0.56373 0.35485 0.0
C165 C 0.08871 0.43886 0.19786 0.0
O166 O 0.05776 0.51455 0.35226 0.0
O167 O 0.08166 0.44427 0.26942 0.0
C168 C 0.23027 0.22857 0.39255 0.0
O169 O 0.20501 0.21986 0.42175 0.0
Cd170 Cd 0.19921 0.18625 0.53329 0.0
O171 O 0.25357 0.21796 0.4159 0.0
Cd172 Cd 0.27312 0.18203 0.50343 0.0
C173 C 0.25236 0.22671 0.6502 0.0
O174 O 0.22943 0.14809 0.50549 0.0
O175 O 0.26394 0.13715 0.58486 0.0
O176 O 0.29658 0.16867 0.3825 0.0
C177 C 0.23762 0.1314 0.55981 0.0
O178 O 0.22564 0.21706 0.63429 0.0
C179 C 0.32251 0.16879 0.41075 0.0
O180 O 0.27425 0.21865 0.61086 0.0
O181 O 0.32546 0.17512 0.48447 0.0
C182 C 0.52327 0.5185 0.45063 0.0
O183 O 0.53054 0.54579 0.43667 0.0
Cd184 Cd 0.55715 0.56138 0.31775 0.0
O185 O 0.53366 0.4985 0.40936 0.0
Cd186 Cd 0.56966 0.49332 0.30311 0.0
C187 C 0.51602 0.51445 0.18845 0.0
O188 O 0.60236 0.53938 0.30149 0.0
O189 O 0.60034 0.51233 0.19387 0.0
O190 O 0.5999 0.46588 0.38652 0.0
C191 C 0.61153 0.53518 0.23103 0.0
O192 O 0.52333 0.54055 0.21489 0.0
C193 C 0.5962 0.44213 0.34586 0.0
O194 O 0.52847 0.4922 0.21229 0.0
O195 O 0.57927 0.44175 0.28549 0.0
C196 C 0.2439 0.80336 0.82581 0.0
O197 O 0.27065 0.81352 0.83755 0.0
Cd198 Cd 0.28472 0.84089 0.95665 0.0
O199 O 0.22326 0.81086 0.8701 0.0
Cd200 Cd 0.21479 0.8448 0.97927 0.0
C201 C 0.24462 0.79461 0.08966 0.0
O202 O 0.257 0.88236 0.97636 0.0
O203 O 0.23104 0.87866 0.08568 0.0
O204 O 0.18459 0.8704 0.89357 0.0
C205 C 0.25251 0.89169 0.04654 0.0
O206 O 0.26945 0.80491 0.06022 0.0
C207 C 0.16075 0.86515 0.93301 0.0
O208 O 0.22038 0.80417 0.06897 0.0
O209 O 0.16155 0.84913 -0.00502 0.0
C210 C 0.97127 0.51453 0.87913 0.0
O211 O 0.96815 0.48795 0.85408 0.0
Cd212 Cd 0.93731 0.47327 0.74164 0.0
O213 O 0.95554 0.53374 0.85194 0.0
Cd214 Cd 0.91447 0.53677 0.75975 0.0
C215 C 0.96515 0.53048 0.61936 0.0
O216 O 0.88836 0.48684 0.7581 0.0
O217 O 0.88003 0.5163 0.66086 0.0
O218 O 0.88681 0.55419 0.86882 0.0
C219 C 0.87365 0.49172 0.69593 0.0
O220 O 0.96219 0.50307 0.63719 0.0
C221 C 0.87992 0.57719 0.83351 0.0
O222 O 0.95121 0.54928 0.65637 0.0
O223 O 0.8908 0.58275 0.76458 0.0
C224 C 0.23175 0.30343 0.29066 0.0
C225 C 0.24606 0.29721 0.21827 0.0
C226 C 0.24522 0.24498 0.25551 0.0
C227 C 0.23341 0.25175 0.33085 0.0
N228 N 0.21976 0.28801 0.42596 0.0
N229 N 0.26936 0.26325 0.13374 0.0
C230 C 0.22762 0.2811 0.34998 0.0
C231 C 0.25379 0.26833 0.2014 0.0
N232 N 0.22195 0.33061 0.30249 0.0
N233 N 0.24714 0.21603 0.2347 0.0
H234 H 0.27498 0.27947 0.09083 0.0
H235 H 0.27855 0.24357 0.12248 0.0
H236 H 0.24051 0.1983 0.27241 0.0
H237 H 0.25274 0.20927 0.17784 0.0
H238 H 0.20814 0.33525 0.34947 0.0
H239 H 0.22607 0.34814 0.26248 0.0
H240 H 0.2187 0.30964 0.44588 0.0
H241 H 0.21654 0.27235 0.47137 0.0
C242 C 0.98068 0.04099 0.55381 0.0
C243 C 0.98908 0.04466 0.473 0.0
C244 C 0.03974 0.06267 0.51135 0.0
C245 C 0.03241 0.05464 0.59112 0.0
N246 N -0.00362 0.03808 0.6915 0.0
N247 N 0.02534 0.05963 0.37208 0.0
C248 C 0.00287 0.04466 0.61348 0.0
C249 C 0.01815 0.05624 0.45098 0.0
N250 N 0.95145 0.03416 0.57281 0.0
N251 N 0.06737 0.07606 0.49349 0.0
H252 H 0.00965 0.05651 0.32667 0.0
H253 H 0.04685 0.06435 0.35086 0.0
H254 H 0.08405 0.08017 0.53583 0.0
H255 H 0.07335 0.085 0.43804 0.0
H256 H 0.94322 0.03334 0.6307 0.0
H257 H 0.93485 0.03147 0.52968 0.0
H258 H 0.97619 0.0276 0.71108 0.0
H259 H 0.01174 0.04231 0.73734 0.0
C260 C 0.23464 0.72698 0.73116 0.0
C261 C 0.2229 0.73359 0.65589 0.0
C262 C 0.22186 0.78554 0.6954 0.0
C263 C 0.23681 0.77958 0.76675 0.0
N264 N 0.25905 0.74537 0.85237 0.0
N265 N 0.20801 0.76924 0.56163 0.0
C266 C 0.24369 0.75049 0.7846 0.0
C267 C 0.2169 0.76284 0.63688 0.0
N268 N 0.23622 0.69805 0.75225 0.0
N269 N 0.21238 0.81284 0.68375 0.0
H270 H 0.20376 0.75315 0.51742 0.0
H271 H 0.20675 0.79072 0.54115 0.0
H272 H 0.21684 0.83042 0.72364 0.0
H273 H 0.19841 0.81753 0.63739 0.0
H274 H 0.24179 0.69139 0.80906 0.0
H275 H 0.22929 0.68027 0.71478 0.0
H276 H 0.2679 0.72556 0.86391 0.0
H277 H 0.26463 0.76155 0.8956 0.0
C278 C 0.48715 0.98221 0.08525 0.0
C279 C 0.45699 0.98464 0.06756 0.0
C280 C 0.46952 4e-05 0.93159 0.0
C281 C 0.49983 -0.00199 0.94911 0.0
N282 N 0.53744 0.98221 0.03568 0.0
N283 N 0.41833 0.98781 0.97107 0.0
C284 C 0.50861 0.98721 0.02365 0.0
C285 C 0.44783 0.99098 0.98961 0.0
N286 N 0.49533 0.97662 0.16165 0.0
N287 N 0.46156 0.01156 0.8605 0.0
H288 H 0.40187 0.981 0.01258 0.0
H289 H 0.41026 0.98918 0.91334 0.0
H290 H 0.47661 0.01755 0.81494 0.0
H291 H 0.44033 0.01699 0.84822 0.0
H292 H 0.51721 0.97809 0.18091 0.0
H293 H 0.48003 0.97187 0.20745 0.0
H294 H 0.54475 0.97166 0.08578 0.0
H295 H 0.55393 0.98683 0.99283 0.0
C296 C 0.23582 0.74164 0.13125 0.0
C297 C 0.24424 0.77173 0.15144 0.0
C298 C 0.25039 0.7585 0.29103 0.0
C299 C 0.24371 0.72819 0.27007 0.0
N300 N 0.2343 0.69 0.17055 0.0
N301 N 0.26352 0.80894 0.24634 0.0
C302 C 0.23757 0.71947 0.19016 0.0
C303 C 0.25287 0.78019 0.23006 0.0
N304 N 0.22585 0.73439 0.05612 0.0
N305 N 0.25278 0.76669 0.36952 0.0
H306 H 0.2642 0.82589 0.20427 0.0
H307 H 0.27353 0.8157 0.30005 0.0
H308 H 0.25118 0.75151 0.4163 0.0
H309 H 0.25402 0.7886 0.389 0.0
H310 H 0.21641 0.71334 0.03981 0.0
H311 H 0.22527 0.74998 0.0107 0.0
H312 H 0.23271 0.6821 0.1123 0.0
H313 H 0.23554 0.67325 0.21253 0.0
C314 C 0.47788 0.01585 0.43256 0.0
C315 C 0.45161 -0.00182 0.45639 0.0
C316 C 0.4708 -0.00403 0.59195 0.0
C317 C 0.49527 0.01654 0.57021 0.0
N318 N 0.5207 0.04892 0.47276 0.0
N319 N 0.42065 0.97561 0.56127 0.0
C320 C 0.4983 0.02749 0.49145 0.0
C321 C 0.44741 0.98924 0.53676 0.0
N322 N 0.48414 0.02018 0.35342 0.0
N323 N 0.47 0.98258 0.66493 0.0
H324 H 0.40274 0.9708 0.52291 0.0
H325 H 0.41527 0.97156 0.62087 0.0
H326 H 0.48645 0.9871 0.70771 0.0
H327 H 0.45432 0.9651 0.68056 0.0
H328 H 0.50436 0.0302 0.33247 0.0
H329 H 0.4704 0.01111 0.30797 0.0
H330 H 0.52194 0.06022 0.4187 0.0
H331 H 0.53699 0.05695 0.51337 0.0
C332 C 0.25224 0.24122 0.79305 0.0
C333 C 0.25728 0.24955 0.71256 0.0
C334 C 0.26309 0.30205 0.75031 0.0
C335 C 0.25439 0.29378 0.82902 0.0
N336 N 0.23972 0.25608 0.92677 0.0
N337 N 0.26535 0.28734 0.61162 0.0
C338 C 0.24877 0.26349 0.85095 0.0
C339 C 0.26252 0.27983 0.69037 0.0
N340 N 0.25143 0.21201 0.81392 0.0
N341 N 0.27187 0.33111 0.73296 0.0
H342 H 0.26585 0.2717 0.56608 0.0
H343 H 0.26541 0.30893 0.59062 0.0
H344 H 0.27136 0.34819 0.77452 0.0
H345 H 0.28159 0.33815 0.67912 0.0
H346 H 0.25052 0.20447 0.87245 0.0
H347 H 0.25433 0.19535 0.77252 0.0
H348 H 0.23207 0.23463 0.9443 0.0
H349 H 0.23826 0.27171 0.97191 0.0
C350 C 0.01367 0.05338 0.96821 0.0
C351 C 0.04382 0.05019 0.9839 0.0
C352 C 0.03059 0.02835 0.11387 0.0
C353 C 0.0002 0.02792 0.09362 0.0
N354 N 0.96238 0.03686 -0.00153 0.0
N355 N 0.08146 0.033 0.06769 0.0
C356 C -0.00844 0.0399 0.02029 0.0
C357 C 0.05245 0.0373 0.05581 0.0
N358 N 0.00621 0.06905 0.90309 0.0
N359 N 0.03858 0.02131 0.18945 0.0
H360 H 0.09833 0.04091 0.0285 0.0
H361 H 0.0886 0.02026 0.11396 0.0
H362 H 0.02327 0.01487 0.23409 0.0
H363 H 0.0603 0.02434 0.21012 0.0
H364 H 0.98493 0.0747 0.8926 0.0
H365 H 0.02182 0.07864 0.86264 0.0
H366 H 0.955 0.0422 0.94217 0.0
H367 H 0.94556 0.02654 0.03426 0.0
C368 C 0.72034 0.76382 0.80879 0.0
C369 C 0.71975 0.73319 0.79025 0.0
C370 C 0.74277 0.74518 0.66076 0.0
C371 C 0.74563 0.77569 0.68209 0.0
N372 N 0.7413 0.81408 0.7797 0.0
N373 N 0.73319 0.69411 0.70422 0.0
C374 C 0.73539 0.78506 0.7569 0.0
C375 C 0.73182 0.72369 0.71786 0.0
N376 N 0.70656 0.77255 0.87611 0.0
N377 N 0.74924 0.73685 0.58484 0.0
H378 H 0.7239 0.67762 0.7427 0.0
H379 H 0.74503 0.68594 0.65734 0.0
H380 H 0.75743 0.75185 0.54116 0.0
H381 H 0.7443 0.71539 0.56301 0.0
H382 H 0.70334 0.79449 0.8885 0.0
H383 H 0.69637 0.75766 0.91748 0.0
H384 H 0.73731 0.82183 0.83671 0.0
H385 H 0.75266 0.83019 0.74359 0.0
C386 C 0.76158 0.26109 0.35488 0.0
C387 C 0.76337 0.29162 0.33527 0.0
C388 C 0.73856 0.28001 0.20796 0.0
C389 C 0.73756 0.24933 0.22631 0.0
N390 N 0.75084 0.21002 0.31153 0.0
N391 N 0.75858 0.33042 0.24019 0.0
C392 C 0.75004 0.23968 0.29798 0.0
C393 C 0.75323 0.30116 0.2609 0.0
N394 N 0.7696 0.25269 0.42932 0.0
N395 N 0.72546 0.28892 0.14002 0.0
H396 H 0.76958 0.34637 0.27761 0.0
H397 H 0.7545 0.33865 0.18394 0.0
H398 H 0.71613 0.27426 0.09685 0.0
H399 H 0.72225 0.31085 0.12793 0.0
H400 H 0.76532 0.23122 0.45128 0.0
H401 H 0.77921 0.26764 0.47151 0.0
H402 H 0.76291 0.20161 0.35729 0.0
H403 H 0.74052 0.19356 0.27451 0.0
C404 C 0.74124 0.2422 0.7599 0.0
C405 C 0.74543 0.24997 0.84109 0.0
C406 C 0.76395 0.30082 0.80482 0.0
C407 C 0.75687 0.29379 0.72428 0.0
N408 N 0.73711 0.25894 0.62382 0.0
N409 N 0.75897 0.28619 0.9436 0.0
C410 C 0.74504 0.26477 0.70136 0.0
C411 C 0.75649 0.27912 0.86442 0.0
N412 N 0.73444 0.2131 0.73896 0.0
N413 N 0.77791 0.32812 0.82399 0.0
H414 H 0.75495 0.2705 0.98874 0.0
H415 H 0.76346 0.30774 0.96511 0.0
H416 H 0.78257 0.34496 0.78222 0.0
H417 H 0.78655 0.33365 0.8801 0.0
H418 H 0.73393 0.20542 0.68045 0.0
H419 H 0.73176 0.19604 0.78074 0.0
H420 H 0.72525 0.23927 0.60495 0.0
H421 H 0.7408 0.27448 0.57827 0.0
C422 C 0.73522 0.77053 0.15589 0.0
C423 C 0.71926 0.74301 0.17677 0.0
C424 C 0.71845 0.75784 0.3169 0.0
C425 C 0.73422 0.7854 0.29591 0.0
N426 N 0.75315 0.82067 0.19662 0.0
N427 N 0.69158 0.71165 0.27286 0.0
C428 C 0.7413 0.79256 0.21558 0.0
C429 C 0.7094 0.73712 0.25595 0.0
N430 N 0.74481 0.77534 0.07921 0.0
N431 N 0.7135 0.75091 0.39547 0.0
H432 H 0.68593 0.69499 0.23097 0.0
H433 H 0.68078 0.70766 0.32711 0.0
H434 H 0.71903 0.76582 0.44183 0.0
H435 H 0.70555 0.72988 0.41563 0.0
H436 H 0.75942 0.79339 0.06169 0.0
H437 H 0.7392 0.76044 0.03286 0.0
H438 H 0.75634 0.82837 0.13859 0.0
H439 H 0.7578 0.83728 0.23934 0.0
C440 C 0.46406 0.49897 0.14636 0.0
C441 C 0.49339 0.51034 0.12606 0.0
C442 C 0.47951 0.51433 0.98625 0.0
C443 C 0.44967 0.50531 0.00757 0.0
N444 N 0.41235 0.4922 0.10727 0.0
N445 N 0.5291 0.53173 0.03021 0.0
C446 C 0.44159 0.49832 0.08747 0.0
C447 C 0.50113 0.51891 0.04699 0.0
N448 N 0.45783 0.4887 0.22175 0.0
N449 N 0.48735 0.51724 0.90765 0.0
H450 H 0.54613 0.53393 0.07211 0.0
H451 H 0.53505 0.54186 0.9761 0.0
H452 H 0.47214 0.51422 0.86113 0.0
H453 H 0.50919 0.52033 0.88781 0.0
H454 H 0.43766 0.4773 0.2383 0.0
H455 H 0.47356 0.48982 0.26715 0.0
H456 H 0.40463 0.48999 0.16558 0.0
H457 H 0.39535 0.49147 0.06539 0.0
C458 C 0.03862 0.55009 0.51959 0.0
C459 C 0.03088 0.54283 0.43954 0.0
C460 C 0.97853 0.53365 0.47579 0.0
C461 C 0.98635 0.54011 0.55605 0.0
N462 N 0.02185 0.56034 0.65339 0.0
N463 N -0.00626 0.53462 0.33713 0.0
C464 C 0.0158 0.5505 0.57746 0.0
C465 C 0.00084 0.53679 0.41625 0.0
N466 N 0.06781 0.55492 0.54086 0.0
N467 N 0.94991 0.52353 0.45728 0.0
H468 H 0.00965 0.53672 0.29202 0.0
H469 H 0.97216 0.53311 0.31562 0.0
H470 H 0.93274 0.52278 0.4989 0.0
H471 H 0.9433 0.5148 0.40196 0.0
H472 H 0.07514 0.55692 0.5995 0.0
H473 H 0.08509 0.55521 0.49981 0.0
H474 H 0.04232 0.57065 0.67142 0.0
H475 H 0.00562 0.56034 0.69743 0.0
C476 C 0.0101 0.547 0.06463 0.0
C477 C 0.03962 0.54146 0.04794 0.0
C478 C 0.02482 0.52242 0.91592 0.0
C479 C -0.00525 0.52404 0.93708 0.0
N480 N 0.95808 0.53497 0.03401 0.0
N481 N 0.07541 0.5222 0.96121 0.0
C482 C 0.98717 0.53586 0.01182 0.0
C483 C 0.04711 0.52877 0.9744 0.0
N484 N 0.00405 0.56275 0.1312 0.0
N485 N 0.03216 0.51602 0.83918 0.0
H486 H 0.09272 0.52816 0.00084 0.0
H487 H 0.08139 0.50947 0.91325 0.0
H488 H 0.0165 0.51175 0.7941 0.0
H489 H 0.05388 0.5176 0.81833 0.0
H490 H 0.98346 0.56999 0.14284 0.0
H491 H 0.02033 0.57086 0.1717 0.0
H492 H 0.95122 0.54026 0.09102 0.0
H493 H 0.94063 0.5265 -0.00253 0.0
C494 C 0.48297 0.48878 0.63707 0.0
C495 C 0.45341 0.49308 0.61668 0.0
C496 C 0.46981 0.51424 0.48807 0.0
C497 C 0.49938 0.50964 0.50803 0.0
N498 N 0.53387 0.48801 0.59354 0.0
N499 N 0.41747 0.50413 0.51906 0.0
C500 C 0.50587 0.49534 0.57997 0.0
C501 C 0.44648 0.50417 0.54096 0.0
N502 N 0.48936 0.47993 0.71237 0.0
N503 N 0.46408 0.52834 0.41866 0.0
H504 H 0.3999 0.49651 0.55638 0.0
H505 H 0.4106 0.50917 0.46205 0.0
H506 H 0.48013 0.5342 0.3754 0.0
H507 H 0.44371 0.53566 0.40514 0.0
H508 H 0.51079 0.48001 0.73429 0.0
H509 H 0.47314 0.47411 0.7552 0.0
H510 H 0.53926 0.4745 0.64021 0.0
H511 H 0.55157 0.49387 0.55504 0.0
C512 C 0.09899 0.38563 0.21401 0.0
C513 C 0.08952 0.40831 0.16549 0.0
C514 C 0.10356 0.38155 0.04689 0.0
C515 C 0.12263 0.36683 0.09594 0.0
N516 N 0.1312 0.34621 0.22448 0.0
N517 N 0.07276 0.42213 0.0364 0.0
C518 C 0.11748 0.36567 0.17928 0.0
C519 C 0.08813 0.40405 0.08174 0.0
N520 N 0.09005 0.38303 0.29154 0.0
N521 N 0.10011 0.37383 0.9686 0.0
H522 H 0.05924 0.43681 0.06219 0.0
H523 H 0.0735 0.42276 0.97445 0.0
H524 H 0.10899 0.35543 0.94483 0.0
H525 H 0.08572 0.38309 0.93008 0.0
H526 H 0.09542 0.36624 0.32928 0.0
H527 H 0.07407 0.39548 0.31508 0.0
H528 H 0.13143 0.34637 0.28648 0.0
H529 H 0.1428 0.32994 0.19845 0.0
C530 C 0.80695 0.94798 0.41354 0.0
C531 C 0.81217 0.91772 0.41645 0.0
C532 C 0.86332 0.93075 0.37304 0.0
C533 C 0.85723 0.96054 0.36236 0.0
N534 N 0.82152 -0.00354 0.35786 0.0
N535 N 0.84299 0.87938 0.38204 0.0
C536 C 0.82856 0.96892 0.37868 0.0
C537 C 0.83972 0.90879 0.39152 0.0
N538 N 0.78175 0.95689 0.44628 0.0
N539 N 0.89176 0.92358 0.369 0.0
H540 H 0.8258 0.8627 0.39198 0.0
H541 H 0.86166 0.87174 0.35631 0.0
H542 H 0.90983 0.9392 0.35832 0.0
H543 H 0.89773 0.90277 0.38437 0.0
H544 H 0.77831 0.97908 0.45391 0.0
H545 H 0.76537 0.94218 0.47239 0.0
H546 H 0.80005 0.00254 0.36016 0.0
H547 H 0.83651 0.01243 0.33113 0.0
C548 C 0.34456 0.65928 0.70253 0.0
C549 C 0.34752 0.65932 0.6188 0.0
C550 C 0.3856 0.62546 0.62818 0.0
C551 C 0.37598 0.61886 0.70742 0.0
N552 N 0.34896 0.63204 0.82467 0.0
N553 N 0.38179 0.65631 0.51075 0.0
C554 C 0.3571 0.63726 0.74716 0.0
C555 C 0.37173 0.64688 0.58398 0.0
N556 N 0.32964 0.68036 0.73824 0.0
N557 N 0.40707 0.61032 0.59507 0.0
H558 H 0.37385 0.67435 0.48258 0.0
H559 H 0.39997 0.64888 0.4822 0.0
H560 H 0.41881 0.59609 0.62844 0.0
H561 H 0.41309 0.61149 0.53526 0.0
H562 H 0.32837 0.68314 0.79971 0.0
H563 H 0.32133 0.69713 0.70518 0.0
H564 H 0.33223 0.64222 0.8528 0.0
H565 H 0.35793 0.61659 0.86051 0.0
C566 C 0.65703 0.09466 0.97909 0.0
C567 C 0.67494 0.11572 0.93287 0.0
C568 C 0.65235 0.09415 0.81107 0.0
C569 C 0.63264 0.07482 0.85755 0.0
N570 N 0.61008 0.06436 0.98658 0.0
N571 N 0.68155 0.14177 0.80753 0.0
C572 C 0.63302 0.07743 0.94192 0.0
C573 C 0.67009 0.11746 0.84958 0.0
N574 N 0.66361 0.08977 0.05702 0.0
N575 N 0.65559 0.08952 0.7312 0.0
H576 H 0.69277 0.16036 0.83479 0.0
H577 H 0.67659 0.14495 0.74773 0.0
H578 H 0.64457 0.07163 0.70064 0.0
H579 H 0.67181 0.10166 0.69714 0.0
H580 H 0.65265 0.07255 0.09019 0.0
H581 H 0.68189 0.10065 0.08612 0.0
H582 H 0.6084 0.06778 0.0478 0.0
H583 H 0.59105 0.05325 0.96139 0.0
C584 C 0.17286 0.55144 0.42385 0.0
C585 C 0.17263 0.5453 0.34069 0.0
C586 C 0.21337 0.5844 0.32164 0.0
C587 C 0.21584 0.58806 0.40561 0.0
N588 N 0.20273 0.56906 0.53669 0.0
N589 N 0.19804 0.55071 0.21418 0.0
C590 C 0.19713 0.56963 0.45678 0.0
C591 C 0.19464 0.56009 0.29075 0.0
N592 N 0.14919 0.54185 0.47091 0.0
N593 N 0.22711 0.60505 0.27094 0.0
H594 H 0.1854 0.53228 0.19012 0.0
H595 H 0.21556 0.55919 0.17788 0.0
H596 H 0.23931 0.6245 0.29011 0.0
H597 H 0.22345 0.60456 0.20964 0.0
H598 H 0.14745 0.5484 0.53016 0.0
H599 H 0.12979 0.53037 0.44921 0.0
H600 H 0.1912 0.55394 0.57519 0.0
H601 H 0.22093 0.58132 0.56284 0.0
C602 C 0.62147 0.91367 0.63015 0.0
C603 C 0.63083 0.94292 0.65618 0.0
C604 C 0.68148 0.93771 0.61313 0.0
C605 C 0.67275 0.90765 0.59309 0.0
N606 N 0.63577 0.86531 0.59429 0.0
N607 N 0.6705 0.98081 0.68823 0.0
C608 C 0.64306 0.89511 0.60465 0.0
C609 C 0.66107 0.9544 0.65215 0.0
N610 N 0.59194 0.90399 0.62735 0.0
N611 N 0.70891 0.95071 0.59194 0.0
H612 H 0.65633 -0.00638 0.71866 0.0
H613 H 0.69277 0.98866 0.69472 0.0
H614 H 0.72447 0.93937 0.56228 0.0
H615 H 0.71524 0.9734 0.59692 0.0
H616 H 0.58354 0.8841 0.60071 0.0
H617 H 0.57557 0.91693 0.64623 0.0
H618 H 0.61528 0.85437 0.60999 0.0
H619 H 0.65103 0.85099 0.57619 0.0
C620 C 0.29013 0.46133 0.8251 0.0
C621 C 0.30898 0.4785 0.87881 0.0
C622 C 0.28007 0.45608 0.99042 0.0
C623 C 0.26468 0.4355 0.93742 0.0
N624 N 0.26148 0.41416 0.80452 0.0
N625 N 0.32609 0.48627 0.01488 0.0
C626 C 0.27132 0.43689 0.85461 0.0
C627 C 0.30512 0.47441 0.96229 0.0
N628 N 0.28958 0.46862 0.74623 0.0
N629 N 0.27052 0.45869 0.0671 0.0
H630 H 0.34604 0.4979 -0.00259 0.0
H631 H 0.32524 0.48141 0.07556 0.0
H632 H 0.25148 0.44656 0.08924 0.0
H633 H 0.27962 0.47528 0.10561 0.0
H634 H 0.27425 0.45812 0.70644 0.0
H635 H 0.30197 0.48726 0.72266 0.0
H636 H 0.26822 0.41333 0.74522 0.0
H637 H 0.24974 0.3945 0.82379 0.0
C638 C 0.81003 0.09361 0.11407 0.0
C639 C 0.8168 0.1248 0.11061 0.0
C640 C 0.86682 0.1204 0.16002 0.0
C641 C 0.85889 0.08959 0.17165 0.0
N642 N 0.8215 0.04746 0.172 0.0
N643 N 0.84992 0.16873 0.13841 0.0
C644 C 0.83013 0.07629 0.15171 0.0
C645 C 0.84479 0.13849 0.1355 0.0
N646 N 0.78475 0.08045 0.07921 0.0
N647 N 0.89559 0.13213 0.16963 0.0
H648 H 0.83438 0.18268 0.12005 0.0
H649 H 0.86863 0.18002 0.1645 0.0
H650 H 0.91237 0.11947 0.18688 0.0
H651 H 0.90335 0.15377 0.15396 0.0
H652 H 0.78026 0.05758 0.07212 0.0
H653 H 0.76948 0.0924 0.0505 0.0
H654 H 0.79974 0.03774 0.16753 0.0
H655 H 0.83542 0.03387 0.20001 0.0
C656 C 0.83824 0.6399 0.9118 0.0
C657 C 0.81054 0.6238 0.93019 0.0
C658 C 0.82787 0.57829 0.87853 0.0
C659 C 0.85635 0.59371 0.86621 0.0
N660 N 0.89034 0.63785 0.88212 0.0
N661 N 0.78137 0.57669 0.94923 0.0
C662 C 0.86208 0.62419 0.886 0.0
C663 C 0.80609 0.59267 0.91904 0.0
N664 N 0.84139 0.67019 0.91556 0.0
N665 N 0.82109 0.55037 0.84805 0.0
H666 H 0.76515 0.5864 0.98106 0.0
H667 H 0.77848 0.55359 0.95001 0.0
H668 H 0.83602 0.53925 0.81516 0.0
H669 H 0.79973 0.53944 0.84814 0.0
H670 H 0.85999 0.68327 0.89452 0.0
H671 H 0.82445 0.68246 0.93422 0.0
H672 H 0.89646 0.65917 0.90372 0.0
H673 H 0.90822 0.62696 0.86302 0.0
C674 C 0.19639 0.09014 0.55094 0.0
C675 C 0.2164 0.10876 0.59843 0.0
C676 C 0.19691 0.08252 0.71766 0.0
C677 C 0.17405 0.06721 0.67143 0.0
N678 N 0.14776 0.06327 0.54552 0.0
N679 N 0.22973 0.12764 0.73027 0.0
C680 C 0.17254 0.07281 0.58832 0.0
C681 C 0.21513 0.10636 0.68283 0.0
N682 N 0.20049 0.08826 0.47049 0.0
N683 N 0.20187 0.07395 0.79401 0.0
H684 H 0.24145 0.14684 0.70799 0.0
H685 H 0.22712 0.12798 0.79197 0.0
H686 H 0.18989 0.05572 0.82082 0.0
H687 H 0.22005 0.08289 0.82724 0.0
H688 H 0.18783 0.07293 0.43481 0.0
H689 H 0.21851 0.0995 0.44095 0.0
H690 H 0.1449 0.06931 0.48637 0.0
H691 H 0.12863 0.05257 0.57106 0.0
C692 C 0.65064 0.38426 0.34362 0.0
C693 C 0.65214 0.3791 0.42649 0.0
C694 C 0.60811 0.40487 0.44716 0.0
C695 C 0.61163 0.41632 0.36853 0.0
N696 N 0.63616 0.4166 0.24016 0.0
N697 N 0.62267 0.36967 0.54478 0.0
C698 C 0.63226 0.40531 0.31533 0.0
C699 C 0.62789 0.38487 0.47518 0.0
N700 N 0.66583 0.36804 0.29214 0.0
N701 N 0.58635 0.41378 0.49524 0.0
H702 H 0.63431 0.35191 0.56019 0.0
H703 H 0.60455 0.37167 0.58163 0.0
H704 H 0.57005 0.42638 0.4743 0.0
H705 H 0.58482 0.40946 0.55604 0.0
H706 H 0.66378 0.36909 0.23044 0.0
H707 H 0.67729 0.35064 0.31173 0.0
H708 H 0.6535 0.41192 0.20305 0.0
H709 H 0.62356 0.43236 0.21652 0.0
C710 C 0.28521 0.96369 0.14407 0.0
C711 C 0.31495 0.95752 0.15405 0.0
C712 C 0.30236 0.90722 0.10382 0.0
C713 C 0.27356 0.91429 0.0852 0.0
N714 N 0.23789 0.95003 0.07944 0.0
N715 N 0.35338 0.92627 0.12404 0.0
C716 C 0.26497 0.94276 0.10326 0.0
C717 C 0.324 0.93007 0.12854 0.0
N718 N 0.27623 0.98922 0.17491 0.0
N719 N 0.30875 0.87846 0.10132 0.0
H720 H 0.36993 0.94328 0.13679 0.0
H721 H 0.36123 0.90758 0.09881 0.0
H722 H 0.29283 0.86088 0.08827 0.0
H723 H 0.32872 0.87182 0.12139 0.0
H724 H 0.25421 -0.00638 0.17686 0.0
H725 H 0.29065 0.00514 0.20408 0.0
H726 H 0.23152 0.97139 0.08332 0.0
H727 H 0.22246 0.9351 0.05026 0.0
C728 C 0.80729 0.43323 0.68321 0.0
C729 C 0.80332 0.43125 0.59934 0.0
C730 C 0.84936 0.46361 0.58086 0.0
C731 C 0.85033 0.46963 0.66392 0.0
N732 N 0.82591 0.4645 0.7923 0.0
N733 N 0.818 0.44937 0.46822 0.0
C734 C 0.82814 0.45564 0.71483 0.0
C735 C 0.82366 0.44775 0.54794 0.0
N736 N 0.79237 0.41293 0.73276 0.0
N737 N 0.87336 0.47198 0.53376 0.0
H738 H 0.79879 0.43916 0.44184 0.0
H739 H 0.83088 0.46347 0.42989 0.0
H740 H 0.89333 0.48207 0.55636 0.0
H741 H 0.87459 0.46575 0.47412 0.0
H742 H 0.7967 0.4121 0.79365 0.0
H743 H 0.77845 0.39479 0.71216 0.0
H744 H 0.8082 0.45677 0.82889 0.0
H745 H 0.8398 0.48176 0.81758 0.0
C746 C 0.34034 0.14929 0.28187 0.0
C747 C 0.34615 0.1566 0.36268 0.0
C748 C 0.38176 0.11999 0.36894 0.0
C749 C 0.36987 0.10764 0.29641 0.0
N750 N 0.33972 0.11167 0.17916 0.0
N751 N 0.38379 0.16096 0.46347 0.0
C752 C 0.35042 0.12312 0.25006 0.0
C753 C 0.37061 0.14576 0.40049 0.0
N754 N 0.32572 0.16782 0.23598 0.0
N755 N 0.40291 0.10643 0.40843 0.0
H756 H 0.37784 0.18165 0.48068 0.0
H757 H 0.40269 0.15521 0.49196 0.0
H758 H 0.41294 0.08882 0.38382 0.0
H759 H 0.41004 0.11203 0.4659 0.0
H760 H 0.32255 0.16504 0.17489 0.0
H761 H 0.31995 0.188 0.25808 0.0
H762 H 0.32271 0.12012 0.14785 0.0
H763 H 0.34665 0.09263 0.15345 0.0
C764 C 0.62159 0.58384 0.16154 0.0
C765 C 0.63208 0.55748 0.19001 0.0
C766 C 0.68064 0.57218 0.13056 0.0
C767 C 0.67101 0.59996 0.11001 0.0
N768 N 0.63448 0.63474 0.12194 0.0
N769 N 0.6722 0.52752 0.21036 0.0
C770 C 0.64204 0.60651 0.1297 0.0
C771 C 0.66182 0.55188 0.17694 0.0
N772 N 0.59197 0.5868 0.1622 0.0
N773 N 0.70736 0.56487 0.10357 0.0
H774 H 0.65886 0.51197 0.24372 0.0
H775 H 0.69447 0.5239 0.21028 0.0
H776 H 0.72164 0.57916 0.06908 0.0
H777 H 0.71431 0.54382 0.10948 0.0
H778 H 0.58285 0.60429 0.13465 0.0
H779 H 0.57622 0.57023 0.18292 0.0
H780 H 0.61458 0.64133 0.14296 0.0
H781 H 0.64933 0.6523 0.10242 0.0
C782 C 0.11937 0.89721 0.95732 0.0
C783 C 0.13406 0.87849 0.90626 0.0
C784 C 0.11753 0.90382 0.78879 0.0
C785 C 0.10587 0.92471 0.84003 0.0
N786 N 0.08438 0.93401 0.96747 0.0
N787 N 0.13584 0.85556 0.77756 0.0
C788 C 0.10284 0.91873 0.92262 0.0
C789 C 0.12891 0.87884 0.82319 0.0
N790 N 0.12285 0.89611 0.038 0.0
N791 N 0.12011 0.90883 0.70874 0.0
H792 H 0.1441 0.83705 0.80272 0.0
H793 H 0.13056 0.85325 0.71734 0.0
H794 H 0.11173 0.92643 0.68006 0.0
H795 H 0.13202 0.89621 0.67093 0.0
H796 H 0.11616 0.91213 0.07668 0.0
H797 H 0.13319 0.87971 0.06661 0.0
H798 H 0.07931 0.92912 0.02685 0.0
H799 H 0.07173 0.94953 0.94235 0.0
loop_
_geom_bond_atom_site_label_1
_geom_bond_atom_site_label_2
_geom_bond_distance
_geom_bond_site_symmetry_2
_ccdc_geom_bond_type
C0 O1 1.306 . S
C0 O3 1.160 . S
O1 C0 1.306 . S
O1 Cd2 2.228 . S
Cd2 O1 2.228 . S
Cd2 O6 2.273 . S
Cd2 O10 2.277 1_554 S
O3 C0 1.160 . S
O3 Cd4 2.203 . S
Cd4 O3 2.203 . S
Cd4 O6 2.411 . S
Cd4 O7 2.333 1_554 S
Cd4 O8 2.352 . S
Cd4 O12 2.277 1_554 S
Cd4 O13 2.356 . S
C5 O10 1.209 . S
C5 O12 1.226 . S
O6 Cd2 2.273 . S
O6 Cd4 2.411 . S
O6 C9 1.320 1_554 S
O7 Cd4 2.333 1_556 S
O7 C9 1.214 . S
O8 Cd4 2.352 . S
O8 C11 1.258 . S
C9 O6 1.320 1_556 S
C9 O7 1.214 . S
O10 Cd2 2.277 1_556 S
O10 C5 1.209 . S
C11 O8 1.258 . S
C11 O13 1.282 . S
O12 Cd4 2.277 1_556 S
O12 C5 1.226 . S
O13 Cd4 2.356 . S
O13 C11 1.282 . S
C14 O15 1.306 1_545 S
C14 O17 1.160 . S
O15 C14 1.306 1_565 S
O15 Cd16 2.228 . S
Cd16 O15 2.228 . S
Cd16 O20 2.273 . S
Cd16 O24 2.246 1_565 S
O17 C14 1.160 . S
O17 Cd18 2.203 . S
Cd18 O17 2.203 . S
Cd18 O20 2.411 1_545 S
Cd18 O21 2.333 . S
Cd18 O22 2.352 . S
Cd18 O26 2.277 . S
Cd18 O27 2.356 . S
C19 O24 1.243 . S
C19 O26 1.226 . S
O20 Cd16 2.273 . S
O20 Cd18 2.411 1_565 S
O20 C23 1.320 . S
O21 Cd18 2.333 . S
O21 C23 1.214 1_545 S
O22 Cd18 2.352 . S
O22 C25 1.258 . S
C23 O20 1.320 . S
C23 O21 1.214 1_565 S
O24 Cd16 2.246 1_545 S
O24 C19 1.243 . S
C25 O22 1.258 . S
C25 O27 1.282 . S
O26 Cd18 2.277 . S
O26 C19 1.226 . S
O27 Cd18 2.356 . S
O27 C25 1.282 . S
C28 O29 1.306 . S
C28 O31 1.160 . S
O29 C28 1.306 . S
O29 Cd30 2.228 . S
Cd30 O29 2.228 . S
Cd30 O34 2.273 . S
Cd30 O38 2.277 . S
O31 C28 1.160 . S
O31 Cd32 2.203 . S
Cd32 O31 2.203 . S
Cd32 O34 2.411 . S
Cd32 O35 2.333 . S
Cd32 O36 2.352 . S
Cd32 O40 2.277 . S
Cd32 O41 2.356 . S
C33 O38 1.209 . S
C33 O40 1.226 . S
O34 Cd30 2.273 . S
O34 Cd32 2.411 . S
O34 C37 1.320 . S
O35 Cd32 2.333 . S
O35 C37 1.214 . S
O36 Cd32 2.352 . S
O36 C39 1.258 . S
C37 O34 1.320 . S
C37 O35 1.214 . S
O38 Cd30 2.277 . S
O38 C33 1.209 . S
C39 O36 1.258 . S
C39 O41 1.282 . S
O40 Cd32 2.277 . S
O40 C33 1.226 . S
O41 Cd32 2.356 . S
O41 C39 1.282 . S
C42 O43 1.306 . S
C42 O45 1.160 . S
O43 C42 1.306 . S
O43 Cd44 2.228 . S
Cd44 O43 2.228 . S
Cd44 O48 2.273 . S
Cd44 O52 2.277 . S
O45 C42 1.160 . S
O45 Cd46 2.203 . S
Cd46 O45 2.203 . S
Cd46 O48 2.411 . S
Cd46 O49 2.333 . S
Cd46 O50 2.351 1_545 S
Cd46 O54 2.277 1_545 S
Cd46 O55 2.356 1_545 S
C47 O52 1.209 . S
C47 O54 1.226 1_545 S
O48 Cd44 2.273 . S
O48 Cd46 2.411 . S
O48 C51 1.320 . S
O49 Cd46 2.333 . S
O49 C51 1.214 . S
O50 Cd46 2.351 1_565 S
O50 C53 1.259 . S
C51 O48 1.320 . S
C51 O49 1.214 . S
O52 Cd44 2.277 . S
O52 C47 1.209 . S
C53 O50 1.259 . S
C53 O55 1.282 . S
O54 Cd46 2.277 1_565 S
O54 C47 1.226 1_565 S
O55 Cd46 2.356 1_565 S
O55 C53 1.282 . S
C56 O57 1.306 . S
C56 O59 1.160 . S
O57 C56 1.306 . S
O57 Cd58 2.228 1_556 S
Cd58 O57 2.228 1_554 S
Cd58 O62 2.273 . S
Cd58 O66 2.277 . S
O59 C56 1.160 . S
O59 Cd60 2.203 1_556 S
Cd60 O59 2.203 1_554 S
Cd60 O62 2.411 . S
Cd60 O63 2.333 . S
Cd60 O64 2.352 1_554 S
Cd60 O68 2.277 . S
Cd60 O69 2.356 . S
C61 O66 1.209 . S
C61 O68 1.226 . S
O62 Cd58 2.273 . S
O62 Cd60 2.411 . S
O62 C65 1.320 . S
O63 Cd60 2.333 . S
O63 C65 1.214 . S
O64 Cd60 2.352 1_556 S
O64 C67 1.258 . S
C65 O62 1.320 . S
C65 O63 1.214 . S
O66 Cd58 2.277 . S
O66 C61 1.209 . S
C67 O64 1.258 . S
C67 O69 1.282 1_556 S
O68 Cd60 2.277 . S
O68 C61 1.226 . S
O69 Cd60 2.356 . S
O69 C67 1.282 1_554 S
C70 O71 1.306 . S
C70 O73 1.160 . S
O71 C70 1.306 . S
O71 Cd72 2.228 . S
Cd72 O71 2.228 . S
Cd72 O76 2.273 . S
Cd72 O80 2.277 . S
O73 C70 1.160 . S
O73 Cd74 2.203 . S
Cd74 O73 2.203 . S
Cd74 O76 2.411 . S
Cd74 O77 2.333 . S
Cd74 O78 2.351 1_545 S
Cd74 O82 2.277 1_545 S
Cd74 O83 2.356 1_545 S
C75 O80 1.209 . S
C75 O82 1.226 1_545 S
O76 Cd72 2.273 . S
O76 Cd74 2.411 . S
O76 C79 1.320 . S
O77 Cd74 2.333 . S
O77 C79 1.214 . S
O78 Cd74 2.351 1_565 S
O78 C81 1.259 . S
C79 O76 1.320 . S
C79 O77 1.214 . S
O80 Cd72 2.277 . S
O80 C75 1.209 . S
C81 O78 1.259 . S
C81 O83 1.282 . S
O82 Cd74 2.277 1_565 S
O82 C75 1.226 1_565 S
O83 Cd74 2.356 1_565 S
O83 C81 1.282 . S
C84 O85 1.306 . S
C84 O87 1.160 . S
O85 C84 1.306 . S
O85 Cd86 2.228 . S
Cd86 O85 2.228 . S
Cd86 O90 2.273 . S
Cd86 O94 2.277 . S
O87 C84 1.160 . S
O87 Cd88 2.203 . S
Cd88 O87 2.203 . S
Cd88 O90 2.411 . S
Cd88 O91 2.333 . S
Cd88 O92 2.352 . S
Cd88 O96 2.277 . S
Cd88 O97 2.356 . S
C89 O94 1.209 . S
C89 O96 1.226 . S
O90 Cd86 2.273 . S
O90 Cd88 2.411 . S
O90 C93 1.320 . S
O91 Cd88 2.333 . S
O91 C93 1.214 . S
O92 Cd88 2.352 . S
O92 C95 1.258 . S
C93 O90 1.320 . S
C93 O91 1.214 . S
O94 Cd86 2.277 . S
O94 C89 1.209 . S
C95 O92 1.258 . S
C95 O97 1.282 . S
O96 Cd88 2.277 . S
O96 C89 1.226 . S
O97 Cd88 2.356 . S
O97 C95 1.282 . S
C98 O99 1.306 1_545 S
C98 O101 1.160 . S
O99 C98 1.306 1_565 S
O99 Cd100 2.228 . S
Cd100 O99 2.228 . S
Cd100 O104 2.273 . S
Cd100 O108 2.246 1_565 S
O101 C98 1.160 . S
O101 Cd102 2.203 . S
Cd102 O101 2.203 . S
Cd102 O104 2.411 1_545 S
Cd102 O105 2.333 . S
Cd102 O106 2.352 . S
Cd102 O110 2.277 . S
Cd102 O111 2.356 . S
C103 O108 1.243 . S
C103 O110 1.226 . S
O104 Cd100 2.273 . S
O104 Cd102 2.411 1_565 S
O104 C107 1.320 . S
O105 Cd102 2.333 . S
O105 C107 1.214 1_545 S
O106 Cd102 2.352 . S
O106 C109 1.258 . S
C107 O104 1.320 . S
C107 O105 1.214 1_565 S
O108 Cd100 2.246 1_545 S
O108 C103 1.243 . S
C109 O106 1.258 . S
C109 O111 1.282 . S
O110 Cd102 2.277 . S
O110 C103 1.226 . S
O111 Cd102 2.356 . S
O111 C109 1.282 . S
C112 O113 1.306 . S
C112 O115 1.160 . S
O113 C112 1.306 . S
O113 Cd114 2.228 . S
Cd114 O113 2.228 . S
Cd114 O118 2.273 . S
Cd114 O122 2.277 . S
O115 C112 1.160 . S
O115 Cd116 2.203 . S
Cd116 O115 2.203 . S
Cd116 O118 2.411 . S
Cd116 O119 2.333 . S
Cd116 O120 2.352 . S
Cd116 O124 2.277 . S
Cd116 O125 2.356 . S
C117 O122 1.209 . S
C117 O124 1.226 . S
O118 Cd114 2.273 . S
O118 Cd116 2.411 . S
O118 C121 1.320 . S
O119 Cd116 2.333 . S
O119 C121 1.214 . S
O120 Cd116 2.352 . S
O120 C123 1.258 . S
C121 O118 1.320 . S
C121 O119 1.214 . S
O122 Cd114 2.277 . S
O122 C117 1.209 . S
C123 O120 1.258 . S
C123 O125 1.282 . S
O124 Cd116 2.277 . S
O124 C117 1.226 . S
O125 Cd116 2.356 . S
O125 C123 1.282 . S
C126 O127 1.306 . S
C126 O129 1.160 . S
O127 C126 1.306 . S
O127 Cd128 2.228 . S
Cd128 O127 2.228 . S
Cd128 O132 2.273 . S
Cd128 O136 2.277 . S
O129 C126 1.160 . S
O129 Cd130 2.203 . S
Cd130 O129 2.203 . S
Cd130 O132 2.411 . S
Cd130 O133 2.333 . S
Cd130 O134 2.352 . S
Cd130 O138 2.277 . S
Cd130 O139 2.356 . S
C131 O136 1.209 . S
C131 O138 1.226 . S
O132 Cd128 2.273 . S
O132 Cd130 2.411 . S
O132 C135 1.320 . S
O133 Cd130 2.333 . S
O133 C135 1.214 . S
O134 Cd130 2.352 . S
O134 C137 1.258 . S
C135 O132 1.320 . S
C135 O133 1.214 . S
O136 Cd128 2.277 . S
O136 C131 1.209 . S
C137 O134 1.258 . S
C137 O139 1.282 . S
O138 Cd130 2.277 . S
O138 C131 1.226 . S
O139 Cd130 2.356 . S
O139 C137 1.282 . S
C140 O141 1.306 . S
C140 O143 1.160 . S
O141 C140 1.306 . S
O141 Cd142 2.228 . S
Cd142 O141 2.228 . S
Cd142 O146 2.273 . S
Cd142 O150 2.277 1_554 S
O143 C140 1.160 . S
O143 Cd144 2.203 . S
Cd144 O143 2.203 . S
Cd144 O146 2.411 . S
Cd144 O147 2.333 1_554 S
Cd144 O148 2.352 . S
Cd144 O152 2.277 1_554 S
Cd144 O153 2.356 . S
C145 O150 1.209 . S
C145 O152 1.226 . S
O146 Cd142 2.273 . S
O146 Cd144 2.411 . S
O146 C149 1.320 1_554 S
O147 Cd144 2.333 1_556 S
O147 C149 1.214 . S
O148 Cd144 2.352 . S
O148 C151 1.258 . S
C149 O146 1.320 1_556 S
C149 O147 1.214 . S
O150 Cd142 2.277 1_556 S
O150 C145 1.209 . S
C151 O148 1.258 . S
C151 O153 1.282 . S
O152 Cd144 2.277 1_556 S
O152 C145 1.226 . S
O153 Cd144 2.356 . S
O153 C151 1.282 . S
C154 O155 1.306 . S
C154 O157 1.160 . S
O155 C154 1.306 . S
O155 Cd156 2.228 . S
Cd156 O155 2.228 . S
Cd156 O160 2.273 . S
Cd156 O164 2.277 . S
O157 C154 1.160 . S
O157 Cd158 2.203 . S
Cd158 O157 2.203 . S
Cd158 O160 2.411 . S
Cd158 O161 2.333 . S
Cd158 O162 2.352 . S
Cd158 O166 2.277 . S
Cd158 O167 2.356 . S
C159 O164 1.209 . S
C159 O166 1.226 . S
O160 Cd156 2.273 . S
O160 Cd158 2.411 . S
O160 C163 1.320 . S
O161 Cd158 2.333 . S
O161 C163 1.214 . S
O162 Cd158 2.352 . S
O162 C165 1.258 . S
C163 O160 1.320 . S
C163 O161 1.214 . S
O164 Cd156 2.277 . S
O164 C159 1.209 . S
C165 O162 1.258 . S
C165 O167 1.282 . S
O166 Cd158 2.277 . S
O166 C159 1.226 . S
O167 Cd158 2.356 . S
O167 C165 1.282 . S
C168 O169 1.306 . S
C168 O171 1.160 . S
O169 C168 1.306 . S
O169 Cd170 2.228 . S
Cd170 O169 2.228 . S
Cd170 O174 2.273 . S
Cd170 O178 2.277 . S
O171 C168 1.160 . S
O171 Cd172 2.203 . S
Cd172 O171 2.203 . S
Cd172 O174 2.411 . S
Cd172 O175 2.333 . S
Cd172 O176 2.352 . S
Cd172 O180 2.277 . S
Cd172 O181 2.356 . S
C173 O178 1.209 . S
C173 O180 1.226 . S
O174 Cd170 2.273 . S
O174 Cd172 2.411 . S
O174 C177 1.320 . S
O175 Cd172 2.333 . S
O175 C177 1.214 . S
O176 Cd172 2.352 . S
O176 C179 1.258 . S
C177 O174 1.320 . S
C177 O175 1.214 . S
O178 Cd170 2.277 . S
O178 C173 1.209 . S
C179 O176 1.258 . S
C179 O181 1.282 . S
O180 Cd172 2.277 . S
O180 C173 1.226 . S
O181 Cd172 2.356 . S
O181 C179 1.282 . S
C182 O183 1.306 . S
C182 O185 1.160 . S
O183 C182 1.306 . S
O183 Cd184 2.228 . S
Cd184 O183 2.228 . S
Cd184 O188 2.273 . S
Cd184 O192 2.277 . S
O185 C182 1.160 . S
O185 Cd186 2.203 . S
Cd186 O185 2.203 . S
Cd186 O188 2.411 . S
Cd186 O189 2.333 . S
Cd186 O190 2.352 . S
Cd186 O194 2.277 . S
Cd186 O195 2.356 . S
C187 O192 1.209 . S
C187 O194 1.226 . S
O188 Cd184 2.273 . S
O188 Cd186 2.411 . S
O188 C191 1.320 . S
O189 Cd186 2.333 . S
O189 C191 1.214 . S
O190 Cd186 2.352 . S
O190 C193 1.258 . S
C191 O188 1.320 . S
C191 O189 1.214 . S
O192 Cd184 2.277 . S
O192 C187 1.209 . S
C193 O190 1.258 . S
C193 O195 1.282 . S
O194 Cd186 2.277 . S
O194 C187 1.226 . S
O195 Cd186 2.356 . S
O195 C193 1.282 . S
C196 O197 1.306 . S
C196 O199 1.160 . S
O197 C196 1.306 . S
O197 Cd198 2.228 1_556 S
Cd198 O197 2.228 1_554 S
Cd198 O202 2.273 . S
Cd198 O206 2.277 . S
O199 C196 1.160 . S
O199 Cd200 2.203 1_556 S
Cd200 O199 2.203 1_554 S
Cd200 O202 2.411 . S
Cd200 O203 2.333 . S
Cd200 O204 2.352 1_554 S
Cd200 O208 2.277 . S
Cd200 O209 2.356 . S
C201 O206 1.209 . S
C201 O208 1.226 . S
O202 Cd198 2.273 . S
O202 Cd200 2.411 . S
O202 C205 1.320 . S
O203 Cd200 2.333 . S
O203 C205 1.214 . S
O204 Cd200 2.352 1_556 S
O204 C207 1.258 . S
C205 O202 1.320 . S
C205 O203 1.214 . S
O206 Cd198 2.277 . S
O206 C201 1.209 . S
C207 O204 1.258 . S
C207 O209 1.282 1_556 S
O208 Cd200 2.277 . S
O208 C201 1.226 . S
O209 Cd200 2.356 . S
O209 C207 1.282 1_554 S
C210 O211 1.306 . S
C210 O213 1.160 . S
O211 C210 1.306 . S
O211 Cd212 2.228 . S
Cd212 O211 2.228 . S
Cd212 O216 2.273 . S
Cd212 O220 2.277 . S
O213 C210 1.160 . S
O213 Cd214 2.203 . S
Cd214 O213 2.203 . S
Cd214 O216 2.411 . S
Cd214 O217 2.333 . S
Cd214 O218 2.352 . S
Cd214 O222 2.277 . S
Cd214 O223 2.356 . S
C215 O220 1.209 . S
C215 O222 1.226 . S
O216 Cd212 2.273 . S
O216 Cd214 2.411 . S
O216 C219 1.320 . S
O217 Cd214 2.333 . S
O217 C219 1.214 . S
O218 Cd214 2.352 . S
O218 C221 1.258 . S
C219 O216 1.320 . S
C219 O217 1.214 . S
O220 Cd212 2.277 . S
O220 C215 1.209 . S
C221 O218 1.258 . S
C221 O223 1.282 . S
O222 Cd214 2.277 . S
O222 C215 1.226 . S
O223 Cd214 2.356 . S
O223 C221 1.282 . S
C224 C225 1.363 . S
C224 C230 1.379 . S
C224 N232 1.356 . S
C225 C224 1.363 . S
C225 C231 1.363 . S
C226 C227 1.363 . S
C226 C231 1.379 . S
C226 N233 1.356 . S
C227 C226 1.363 . S
C227 C230 1.363 . S
N228 C230 1.356 . S
N228 H240 0.984 . S
N228 H241 0.985 . S
N229 C231 1.356 . S
N229 H234 0.984 . S
N229 H235 0.985 . S
C230 C224 1.379 . S
C230 C227 1.363 . S
C230 N228 1.356 . S
C231 C225 1.363 . S
C231 C226 1.379 . S
C231 N229 1.356 . S
N232 C224 1.356 . S
N232 H238 0.984 . S
N232 H239 0.984 . S
N233 C226 1.356 . S
N233 H236 0.984 . S
N233 H237 0.985 . S
H234 N229 0.984 . S
H235 N229 0.985 . S
H236 N233 0.984 . S
H237 N233 0.985 . S
H238 N232 0.984 . S
H239 N232 0.984 . S
H240 N228 0.984 . S
H241 N228 0.985 . S
C242 C243 1.381 . S
C242 C248 1.376 1_545 S
C242 N250 1.346 1_545 S
C243 C242 1.381 . S
C243 C249 1.363 1_655 S
C244 C245 1.363 . S
C244 C249 1.379 . S
C244 N251 1.356 . S
C245 C244 1.363 . S
C245 C248 1.363 1_445 S
N246 C248 1.356 1_455 S
N246 H258 0.984 1_455 S
N246 H259 0.985 . S
N247 C249 1.356 1_655 S
N247 H252 0.984 . S
N247 H253 0.985 1_655 S
C248 C242 1.376 1_565 S
C248 C245 1.363 1_665 S
C248 N246 1.356 1_655 S
C249 C243 1.363 1_455 S
C249 C244 1.379 . S
C249 N247 1.356 1_455 S
N250 C242 1.346 1_565 S
N250 H256 0.984 . S
N250 H257 0.984 . S
N251 C244 1.356 . S
N251 H254 0.984 . S
N251 H255 0.985 . S
H252 N247 0.984 . S
H253 N247 0.985 1_455 S
H254 N251 0.984 . S
H255 N251 0.985 . S
H256 N250 0.984 . S
H257 N250 0.984 . S
H258 N246 0.984 1_655 S
H259 N246 0.985 . S
C260 C261 1.363 . S
C260 C266 1.379 . S
C260 N268 1.356 . S
C261 C260 1.363 . S
C261 C267 1.363 . S
C262 C263 1.363 . S
C262 C267 1.379 . S
C262 N269 1.356 . S
C263 C262 1.363 . S
C263 C266 1.363 . S
N264 C266 1.356 . S
N264 H276 0.984 . S
N264 H277 0.985 . S
N265 C267 1.356 . S
N265 H270 0.984 . S
N265 H271 0.985 . S
C266 C260 1.379 . S
C266 C263 1.363 . S
C266 N264 1.356 . S
C267 C261 1.363 . S
C267 C262 1.379 . S
C267 N265 1.356 . S
N268 C260 1.356 . S
N268 H274 0.984 . S
N268 H275 0.984 . S
N269 C262 1.356 . S
N269 H272 0.984 . S
N269 H273 0.985 . S
H270 N265 0.984 . S
H271 N265 0.985 . S
H272 N269 0.984 . S
H273 N269 0.985 . S
H274 N268 0.984 . S
H275 N268 0.984 . S
H276 N264 0.984 . S
H277 N264 0.985 . S
C278 C279 1.363 . S
C278 C284 1.375 1_545 S
C278 N286 1.356 1_545 S
C279 C278 1.363 . S
C279 C285 1.363 . S
C280 C281 1.363 . S
C280 C285 1.379 1_556 S
C280 N287 1.356 . S
C281 C280 1.363 . S
C281 C284 1.346 1_546 S
N282 C284 1.374 1_556 S
N282 H294 0.984 1_556 S
N282 H295 0.985 . S
N283 C285 1.356 . S
N283 H288 0.984 . S
N283 H289 0.985 . S
C284 C278 1.375 1_565 S
C284 C281 1.346 1_564 S
C284 N282 1.374 1_554 S
C285 C279 1.363 . S
C285 C280 1.379 1_554 S
C285 N283 1.356 . S
N286 C278 1.356 1_565 S
N286 H292 0.984 . S
N286 H293 0.984 . S
N287 C280 1.356 . S
N287 H290 0.984 . S
N287 H291 0.985 . S
H288 N283 0.984 . S
H289 N283 0.985 . S
H290 N287 0.984 . S
H291 N287 0.985 . S
H292 N286 0.984 . S
H293 N286 0.984 . S
H294 N282 0.984 1_554 S
H295 N282 0.985 . S
C296 C297 1.363 . S
C296 C302 1.379 . S
C296 N304 1.356 . S
C297 C296 1.363 . S
C297 C303 1.363 . S
C298 C299 1.363 . S
C298 C303 1.379 . S
C298 N305 1.356 . S
C299 C298 1.363 . S
C299 C302 1.363 . S
N300 C302 1.356 . S
N300 H312 0.984 . S
N300 H313 0.985 . S
N301 C303 1.356 . S
N301 H306 0.984 . S
N301 H307 0.985 . S
C302 C296 1.379 . S
C302 C299 1.363 . S
C302 N300 1.356 . S
C303 C297 1.363 . S
C303 C298 1.379 . S
C303 N301 1.356 . S
N304 C296 1.356 . S
N304 H310 0.984 . S
N304 H311 0.984 . S
N305 C298 1.356 . S
N305 H308 0.984 . S
N305 H309 0.985 . S
H306 N301 0.984 . S
H307 N301 0.985 . S
H308 N305 0.984 . S
H309 N305 0.985 . S
H310 N304 0.984 . S
H311 N304 0.984 . S
H312 N300 0.984 . S
H313 N300 0.985 . S
C314 C315 1.363 . S
C314 C320 1.379 . S
C314 N322 1.356 . S
C315 C314 1.363 . S
C315 C321 1.358 1_545 S
C316 C317 1.363 . S
C316 C321 1.379 1_545 S
C316 N323 1.356 1_545 S
C317 C316 1.363 . S
C317 C320 1.363 . S
N318 C320 1.356 . S
N318 H330 0.984 . S
N318 H331 0.985 . S
N319 C321 1.360 . S
N319 H324 0.984 . S
N319 H325 0.985 . S
C320 C314 1.379 . S
C320 C317 1.363 . S
C320 N318 1.356 . S
C321 C315 1.358 1_565 S
C321 C316 1.379 1_565 S
C321 N319 1.360 . S
N322 C314 1.356 . S
N322 H328 0.984 . S
N322 H329 0.984 . S
N323 C316 1.356 1_565 S
N323 H326 0.984 . S
N323 H327 0.985 . S
H324 N319 0.984 . S
H325 N319 0.985 . S
H326 N323 0.984 . S
H327 N323 0.985 . S
H328 N322 0.984 . S
H329 N322 0.984 . S
H330 N318 0.984 . S
H331 N318 0.985 . S
C332 C333 1.363 . S
C332 C338 1.379 . S
C332 N340 1.356 . S
C333 C332 1.363 . S
C333 C339 1.363 . S
C334 C335 1.363 . S
C334 C339 1.379 . S
C334 N341 1.356 . S
C335 C334 1.363 . S
C335 C338 1.363 . S
N336 C338 1.356 . S
N336 H348 0.984 . S
N336 H349 0.985 . S
N337 C339 1.356 . S
N337 H342 0.984 . S
N337 H343 0.985 . S
C338 C332 1.379 . S
C338 C335 1.363 . S
C338 N336 1.356 . S
C339 C333 1.363 . S
C339 C334 1.379 . S
C339 N337 1.356 . S
N340 C332 1.356 . S
N340 H346 0.984 . S
N340 H347 0.984 . S
N341 C334 1.356 . S
N341 H344 0.984 . S
N341 H345 0.985 . S
H342 N337 0.984 . S
H343 N337 0.985 . S
H344 N341 0.984 . S
H345 N341 0.985 . S
H346 N340 0.984 . S
H347 N340 0.984 . S
H348 N336 0.984 . S
H349 N336 0.985 . S
C350 C351 1.363 1_655 S
C350 C356 1.379 1_546 S
C350 N358 1.356 1_645 S
C351 C350 1.363 1_455 S
C351 C357 1.363 1_556 S
C352 C353 1.363 1_455 S
C352 C357 1.379 . S
C352 N359 1.356 1_455 S
C353 C352 1.363 1_655 S
C353 C356 1.357 1_545 S
N354 C356 1.361 . S
N354 H366 0.984 . S
N354 H367 0.985 . S
N355 C357 1.356 1_556 S
N355 H360 0.984 . S
N355 H361 0.985 1_556 S
C356 C350 1.379 1_564 S
C356 C353 1.357 1_565 S
C356 N354 1.361 . S
C357 C351 1.363 1_554 S
C357 C352 1.379 . S
C357 N355 1.356 1_554 S
N358 C350 1.356 1_465 S
N358 H364 0.984 1_455 S
N358 H365 0.984 . S
N359 C352 1.356 1_655 S
N359 H362 0.984 . S
N359 H363 0.985 1_655 S
H360 N355 0.984 . S
H361 N355 0.985 1_554 S
H362 N359 0.984 . S
H363 N359 0.985 1_455 S
H364 N358 0.984 1_655 S
H365 N358 0.984 . S
H366 N354 0.984 . S
H367 N354 0.985 . S
C368 C369 1.363 . S
C368 C374 1.379 . S
C368 N376 1.356 . S
C369 C368 1.363 . S
C369 C375 1.363 . S
C370 C371 1.363 . S
C370 C375 1.379 . S
C370 N377 1.356 . S
C371 C370 1.363 . S
C371 C374 1.363 . S
N372 C374 1.356 . S
N372 H384 0.984 . S
N372 H385 0.985 . S
N373 C375 1.356 . S
N373 H378 0.984 . S
N373 H379 0.985 . S
C374 C368 1.379 . S
C374 C371 1.363 . S
C374 N372 1.356 . S
C375 C369 1.363 . S
C375 C370 1.379 . S
C375 N373 1.356 . S
N376 C368 1.356 . S
N376 H382 0.984 . S
N376 H383 0.984 . S
N377 C370 1.356 . S
N377 H380 0.984 . S
N377 H381 0.985 . S
H378 N373 0.984 . S
H379 N373 0.985 . S
H380 N377 0.984 . S
H381 N377 0.985 . S
H382 N376 0.984 . S
H383 N376 0.984 . S
H384 N372 0.984 . S
H385 N372 0.985 . S
C386 C387 1.363 . S
C386 C392 1.379 . S
C386 N394 1.356 . S
C387 C386 1.363 . S
C387 C393 1.363 . S
C388 C389 1.363 . S
C388 C393 1.379 . S
C388 N395 1.356 . S
C389 C388 1.363 . S
C389 C392 1.363 . S
N390 C392 1.356 . S
N390 H402 0.984 . S
N390 H403 0.985 . S
N391 C393 1.356 . S
N391 H396 0.984 . S
N391 H397 0.985 . S
C392 C386 1.379 . S
C392 C389 1.363 . S
C392 N390 1.356 . S
C393 C387 1.363 . S
C393 C388 1.379 . S
C393 N391 1.356 . S
N394 C386 1.356 . S
N394 H400 0.984 . S
N394 H401 0.984 . S
N395 C388 1.356 . S
N395 H398 0.984 . S
N395 H399 0.985 . S
H396 N391 0.984 . S
H397 N391 0.985 . S
H398 N395 0.984 . S
H399 N395 0.985 . S
H400 N394 0.984 . S
H401 N394 0.984 . S
H402 N390 0.984 . S
H403 N390 0.985 . S
C404 C405 1.363 . S
C404 C410 1.379 . S
C404 N412 1.356 . S
C405 C404 1.363 . S
C405 C411 1.363 . S
C406 C407 1.363 . S
C406 C411 1.379 . S
C406 N413 1.356 . S
C407 C406 1.363 . S
C407 C410 1.363 . S
N408 C410 1.356 . S
N408 H420 0.984 . S
N408 H421 0.985 . S
N409 C411 1.356 . S
N409 H414 0.984 . S
N409 H415 0.985 . S
C410 C404 1.379 . S
C410 C407 1.363 . S
C410 N408 1.356 . S
C411 C405 1.363 . S
C411 C406 1.379 . S
C411 N409 1.356 . S
N412 C404 1.356 . S
N412 H418 0.984 . S
N412 H419 0.984 . S
N413 C406 1.356 . S
N413 H416 0.984 . S
N413 H417 0.985 . S
H414 N409 0.984 . S
H415 N409 0.985 . S
H416 N413 0.984 . S
H417 N413 0.985 . S
H418 N412 0.984 . S
H419 N412 0.984 . S
H420 N408 0.984 . S
H421 N408 0.985 . S
C422 C423 1.363 . S
C422 C428 1.379 . S
C422 N430 1.356 . S
C423 C422 1.363 . S
C423 C429 1.363 . S
C424 C425 1.363 . S
C424 C429 1.379 . S
C424 N431 1.356 . S
C425 C424 1.363 . S
C425 C428 1.363 . S
N426 C428 1.356 . S
N426 H438 0.984 . S
N426 H439 0.985 . S
N427 C429 1.356 . S
N427 H432 0.984 . S
N427 H433 0.985 . S
C428 C422 1.379 . S
C428 C425 1.363 . S
C428 N426 1.356 . S
C429 C423 1.363 . S
C429 C424 1.379 . S
C429 N427 1.356 . S
N430 C422 1.356 . S
N430 H436 0.984 . S
N430 H437 0.984 . S
N431 C424 1.356 . S
N431 H434 0.984 . S
N431 H435 0.985 . S
H432 N427 0.984 . S
H433 N427 0.985 . S
H434 N431 0.984 . S
H435 N431 0.985 . S
H436 N430 0.984 . S
H437 N430 0.984 . S
H438 N426 0.984 . S
H439 N426 0.985 . S
C440 C441 1.363 . S
C440 C446 1.379 . S
C440 N448 1.356 . S
C441 C440 1.363 . S
C441 C447 1.363 . S
C442 C443 1.363 . S
C442 C447 1.379 1_556 S
C442 N449 1.356 . S
C443 C442 1.363 . S
C443 C446 1.363 1_556 S
N444 C446 1.356 . S
N444 H456 0.984 . S
N444 H457 0.985 1_554 S
N445 C447 1.356 . S
N445 H450 0.984 . S
N445 H451 0.985 1_554 S
C446 C440 1.379 . S
C446 C443 1.363 1_554 S
C446 N444 1.356 . S
C447 C441 1.363 . S
C447 C442 1.379 1_554 S
C447 N445 1.356 . S
N448 C440 1.356 . S
N448 H454 0.984 . S
N448 H455 0.984 . S
N449 C442 1.356 . S
N449 H452 0.984 . S
N449 H453 0.985 . S
H450 N445 0.984 . S
H451 N445 0.985 1_556 S
H452 N449 0.984 . S
H453 N449 0.985 . S
H454 N448 0.984 . S
H455 N448 0.984 . S
H456 N444 0.984 . S
H457 N444 0.985 1_556 S
C458 C459 1.363 . S
C458 C464 1.379 1_455 S
C458 N466 1.356 . S
C459 C458 1.363 . S
C459 C465 1.363 . S
C460 C461 1.363 . S
C460 C465 1.379 1_655 S
C460 N467 1.356 . S
C461 C460 1.363 . S
C461 C464 1.363 . S
N462 C464 1.356 . S
N462 H474 0.983 1_655 S
N462 H475 0.985 . S
N463 C465 1.356 . S
N463 H468 0.984 . S
N463 H469 0.983 1_455 S
C464 C458 1.379 1_655 S
C464 C461 1.363 . S
C464 N462 1.356 . S
C465 C459 1.363 . S
C465 C460 1.379 1_455 S
C465 N463 1.356 . S
N466 C458 1.356 . S
N466 H472 0.984 . S
N466 H473 0.984 . S
N467 C460 1.356 . S
N467 H470 0.984 . S
N467 H471 0.985 . S
H468 N463 0.984 . S
H469 N463 0.983 1_655 S
H470 N467 0.984 . S
H471 N467 0.985 . S
H472 N466 0.984 . S
H473 N466 0.984 . S
H474 N462 0.983 1_455 S
H475 N462 0.985 . S
C476 C477 1.376 . S
C476 C482 1.368 1_455 S
C476 N484 1.359 . S
C477 C476 1.376 . S
C477 C483 1.363 . S
C478 C479 1.376 . S
C478 C483 1.368 1_656 S
C478 N485 1.359 . S
C479 C478 1.376 . S
C479 C482 1.363 1_556 S
N480 C482 1.356 1_556 S
N480 H492 0.984 1_556 S
N480 H493 0.985 . S
N481 C483 1.356 . S
N481 H486 0.984 . S
N481 H487 0.985 . S
C482 C476 1.368 1_655 S
C482 C479 1.363 1_554 S
C482 N480 1.356 1_554 S
C483 C477 1.363 . S
C483 C478 1.368 1_454 S
C483 N481 1.356 . S
N484 C476 1.359 . S
N484 H490 0.984 1_455 S
N484 H491 0.984 . S
N485 C478 1.359 . S
N485 H488 0.984 . S
N485 H489 0.985 1_655 S
H486 N481 0.984 . S
H487 N481 0.985 . S
H488 N485 0.984 . S
H489 N485 0.985 1_455 S
H490 N484 0.984 1_655 S
H491 N484 0.984 . S
H492 N480 0.984 1_554 S
H493 N480 0.985 . S
C494 C495 1.363 . S
C494 C500 1.379 . S
C494 N502 1.356 . S
C495 C494 1.363 . S
C495 C501 1.363 . S
C496 C497 1.363 . S
C496 C501 1.379 . S
C496 N503 1.356 . S
C497 C496 1.363 . S
C497 C500 1.363 . S
N498 C500 1.356 . S
N498 H510 0.984 . S
N498 H511 0.985 . S
N499 C501 1.356 . S
N499 H504 0.984 . S
N499 H505 0.985 . S
C500 C494 1.379 . S
C500 C497 1.363 . S
C500 N498 1.356 . S
C501 C495 1.363 . S
C501 C496 1.379 . S
C501 N499 1.356 . S
N502 C494 1.356 . S
N502 H508 0.984 . S
N502 H509 0.984 . S
N503 C496 1.356 . S
N503 H506 0.984 . S
N503 H507 0.985 . S
H504 N499 0.984 . S
H505 N499 0.985 . S
H506 N503 0.984 . S
H507 N503 0.985 . S
H508 N502 0.984 . S
H509 N502 0.984 . S
H510 N498 0.984 . S
H511 N498 0.985 . S
C512 C513 1.363 . S
C512 C518 1.379 . S
C512 N520 1.356 . S
C513 C512 1.363 . S
C513 C519 1.363 . S
C514 C515 1.363 . S
C514 C519 1.379 . S
C514 N521 1.356 . S
C515 C514 1.363 . S
C515 C518 1.363 . S
N516 C518 1.356 . S
N516 H528 0.984 . S
N516 H529 0.985 . S
N517 C519 1.356 . S
N517 H522 0.984 . S
N517 H523 0.985 . S
C518 C512 1.379 . S
C518 C515 1.363 . S
C518 N516 1.356 . S
C519 C513 1.363 . S
C519 C514 1.379 . S
C519 N517 1.356 . S
N520 C512 1.356 . S
N520 H526 0.984 . S
N520 H527 0.984 . S
N521 C514 1.356 . S
N521 H524 0.984 1_554 S
N521 H525 0.985 1_554 S
H522 N517 0.984 . S
H523 N517 0.985 . S
H524 N521 0.984 1_556 S
H525 N521 0.985 1_556 S
H526 N520 0.984 . S
H527 N520 0.984 . S
H528 N516 0.984 . S
H529 N516 0.985 . S
C530 C531 1.363 . S
C530 C536 1.379 . S
C530 N538 1.356 . S
C531 C530 1.363 . S
C531 C537 1.363 . S
C532 C533 1.363 . S
C532 C537 1.379 . S
C532 N539 1.356 . S
C533 C532 1.363 . S
C533 C536 1.363 . S
N534 C536 1.356 . S
N534 H546 0.984 1_565 S
N534 H547 0.985 1_565 S
N535 C537 1.356 . S
N535 H540 0.984 . S
N535 H541 0.985 . S
C536 C530 1.379 . S
C536 C533 1.363 . S
C536 N534 1.356 . S
C537 C531 1.363 . S
C537 C532 1.379 . S
C537 N535 1.356 . S
N538 C530 1.356 . S
N538 H544 0.984 . S
N538 H545 0.984 . S
N539 C532 1.356 . S
N539 H542 0.984 . S
N539 H543 0.985 . S
H540 N535 0.984 . S
H541 N535 0.985 . S
H542 N539 0.984 . S
H543 N539 0.985 . S
H544 N538 0.984 . S
H545 N538 0.984 . S
H546 N534 0.984 1_545 S
H547 N534 0.985 1_545 S
C548 C549 1.363 . S
C548 C554 1.379 . S
C548 N556 1.356 . S
C549 C548 1.363 . S
C549 C555 1.363 . S
C550 C551 1.363 . S
C550 C555 1.379 . S
C550 N557 1.356 . S
C551 C550 1.363 . S
C551 C554 1.363 . S
N552 C554 1.356 . S
N552 H564 0.984 . S
N552 H565 0.985 . S
N553 C555 1.356 . S
N553 H558 0.984 . S
N553 H559 0.985 . S
C554 C548 1.379 . S
C554 C551 1.363 . S
C554 N552 1.356 . S
C555 C549 1.363 . S
C555 C550 1.379 . S
C555 N553 1.356 . S
N556 C548 1.356 . S
N556 H562 0.984 . S
N556 H563 0.984 . S
N557 C550 1.356 . S
N557 H560 0.984 . S
N557 H561 0.985 . S
H558 N553 0.984 . S
H559 N553 0.985 . S
H560 N557 0.984 . S
H561 N557 0.985 . S
H562 N556 0.984 . S
H563 N556 0.984 . S
H564 N552 0.984 . S
H565 N552 0.985 . S
C566 C567 1.363 . S
C566 C572 1.379 . S
C566 N574 1.356 1_556 S
C567 C566 1.363 . S
C567 C573 1.363 . S
C568 C569 1.363 . S
C568 C573 1.379 . S
C568 N575 1.356 . S
C569 C568 1.363 . S
C569 C572 1.363 . S
N570 C572 1.356 . S
N570 H582 0.984 . S
N570 H583 0.985 . S
N571 C573 1.356 . S
N571 H576 0.984 . S
N571 H577 0.985 . S
C572 C566 1.379 . S
C572 C569 1.363 . S
C572 N570 1.356 . S
C573 C567 1.363 . S
C573 C568 1.379 . S
C573 N571 1.356 . S
N574 C566 1.356 1_554 S
N574 H580 0.984 . S
N574 H581 0.984 . S
N575 C568 1.356 . S
N575 H578 0.984 . S
N575 H579 0.985 . S
H576 N571 0.984 . S
H577 N571 0.985 . S
H578 N575 0.984 . S
H579 N575 0.985 . S
H580 N574 0.984 . S
H581 N574 0.984 . S
H582 N570 0.984 . S
H583 N570 0.985 . S
C584 C585 1.363 . S
C584 C590 1.379 . S
C584 N592 1.356 . S
C585 C584 1.363 . S
C585 C591 1.363 . S
C586 C587 1.363 . S
C586 C591 1.379 . S
C586 N593 1.356 . S
C587 C586 1.363 . S
C587 C590 1.363 . S
N588 C590 1.356 . S
N588 H600 0.984 . S
N588 H601 0.985 . S
N589 C591 1.356 . S
N589 H594 0.984 . S
N589 H595 0.985 . S
C590 C584 1.379 . S
C590 C587 1.363 . S
C590 N588 1.356 . S
C591 C585 1.363 . S
C591 C586 1.379 . S
C591 N589 1.356 . S
N592 C584 1.356 . S
N592 H598 0.984 . S
N592 H599 0.984 . S
N593 C586 1.356 . S
N593 H596 0.984 . S
N593 H597 0.985 . S
H594 N589 0.984 . S
H595 N589 0.985 . S
H596 N593 0.984 . S
H597 N593 0.985 . S
H598 N592 0.984 . S
H599 N592 0.984 . S
H600 N588 0.984 . S
H601 N588 0.985 . S
C602 C603 1.363 . S
C602 C608 1.379 . S
C602 N610 1.356 . S
C603 C602 1.363 . S
C603 C609 1.363 . S
C604 C605 1.363 . S
C604 C609 1.379 . S
C604 N611 1.356 . S
C605 C604 1.363 . S
C605 C608 1.363 . S
N606 C608 1.356 . S
N606 H618 0.984 . S
N606 H619 0.985 . S
N607 C609 1.356 . S
N607 H612 0.984 . S
N607 H613 0.985 . S
C608 C602 1.379 . S
C608 C605 1.363 . S
C608 N606 1.356 . S
C609 C603 1.363 . S
C609 C604 1.379 . S
C609 N607 1.356 . S
N610 C602 1.356 . S
N610 H616 0.984 . S
N610 H617 0.984 . S
N611 C604 1.356 . S
N611 H614 0.984 . S
N611 H615 0.985 . S
H612 N607 0.984 . S
H613 N607 0.985 . S
H614 N611 0.984 . S
H615 N611 0.985 . S
H616 N610 0.984 . S
H617 N610 0.984 . S
H618 N606 0.984 . S
H619 N606 0.985 . S
C620 C621 1.363 . S
C620 C626 1.379 . S
C620 N628 1.356 . S
C621 C620 1.363 . S
C621 C627 1.363 . S
C622 C623 1.363 . S
C622 C627 1.379 . S
C622 N629 1.356 1_556 S
C623 C622 1.363 . S
C623 C626 1.363 . S
N624 C626 1.356 . S
N624 H636 0.984 . S
N624 H637 0.985 . S
N625 C627 1.356 . S
N625 H630 0.984 . S
N625 H631 0.985 1_556 S
C626 C620 1.379 . S
C626 C623 1.363 . S
C626 N624 1.356 . S
C627 C621 1.363 . S
C627 C622 1.379 . S
C627 N625 1.356 . S
N628 C620 1.356 . S
N628 H634 0.984 . S
N628 H635 0.984 . S
N629 C622 1.356 1_554 S
N629 H632 0.984 . S
N629 H633 0.985 . S
H630 N625 0.984 . S
H631 N625 0.985 1_554 S
H632 N629 0.984 . S
H633 N629 0.985 . S
H634 N628 0.984 . S
H635 N628 0.984 . S
H636 N624 0.984 . S
H637 N624 0.985 . S
C638 C639 1.363 . S
C638 C644 1.379 . S
C638 N646 1.356 . S
C639 C638 1.363 . S
C639 C645 1.363 . S
C640 C641 1.363 . S
C640 C645 1.379 . S
C640 N647 1.356 . S
C641 C640 1.363 . S
C641 C644 1.363 . S
N642 C644 1.356 . S
N642 H654 0.984 . S
N642 H655 0.985 . S
N643 C645 1.356 . S
N643 H648 0.984 . S
N643 H649 0.985 . S
C644 C638 1.379 . S
C644 C641 1.363 . S
C644 N642 1.356 . S
C645 C639 1.363 . S
C645 C640 1.379 . S
C645 N643 1.356 . S
N646 C638 1.356 . S
N646 H652 0.984 . S
N646 H653 0.984 . S
N647 C640 1.356 . S
N647 H650 0.984 . S
N647 H651 0.985 . S
H648 N643 0.984 . S
H649 N643 0.985 . S
H650 N647 0.984 . S
H651 N647 0.985 . S
H652 N646 0.984 . S
H653 N646 0.984 . S
H654 N642 0.984 . S
H655 N642 0.985 . S
C656 C657 1.363 . S
C656 C662 1.379 . S
C656 N664 1.356 . S
C657 C656 1.363 . S
C657 C663 1.363 . S
C658 C659 1.363 . S
C658 C663 1.379 . S
C658 N665 1.356 . S
C659 C658 1.363 . S
C659 C662 1.363 . S
N660 C662 1.356 . S
N660 H672 0.984 . S
N660 H673 0.985 . S
N661 C663 1.356 . S
N661 H666 0.984 . S
N661 H667 0.985 . S
C662 C656 1.379 . S
C662 C659 1.363 . S
C662 N660 1.356 . S
C663 C657 1.363 . S
C663 C658 1.379 . S
C663 N661 1.356 . S
N664 C656 1.356 . S
N664 H670 0.984 1_556 S
N664 H671 0.984 1_556 S
N665 C658 1.356 . S
N665 H668 0.984 . S
N665 H669 0.985 . S
H666 N661 0.984 . S
H667 N661 0.985 . S
H668 N665 0.984 . S
H669 N665 0.985 . S
H670 N664 0.984 1_554 S
H671 N664 0.984 1_554 S
H672 N660 0.984 . S
H673 N660 0.985 . S
C674 C675 1.363 . S
C674 C680 1.379 . S
C674 N682 1.356 . S
C675 C674 1.363 . S
C675 C681 1.363 . S
C676 C677 1.363 . S
C676 C681 1.379 . S
C676 N683 1.356 . S
C677 C676 1.363 . S
C677 C680 1.363 . S
N678 C680 1.356 . S
N678 H690 0.984 . S
N678 H691 0.985 . S
N679 C681 1.356 . S
N679 H684 0.984 . S
N679 H685 0.985 . S
C680 C674 1.379 . S
C680 C677 1.363 . S
C680 N678 1.356 . S
C681 C675 1.363 . S
C681 C676 1.379 . S
C681 N679 1.356 . S
N682 C674 1.356 . S
N682 H688 0.984 . S
N682 H689 0.984 . S
N683 C676 1.356 . S
N683 H686 0.984 . S
N683 H687 0.985 . S
H684 N679 0.984 . S
H685 N679 0.985 . S
H686 N683 0.984 . S
H687 N683 0.985 . S
H688 N682 0.984 . S
H689 N682 0.984 . S
H690 N678 0.984 . S
H691 N678 0.985 . S
C692 C693 1.363 . S
C692 C698 1.379 . S
C692 N700 1.356 . S
C693 C692 1.363 . S
C693 C699 1.363 . S
C694 C695 1.363 . S
C694 C699 1.379 . S
C694 N701 1.356 . S
C695 C694 1.363 . S
C695 C698 1.363 . S
N696 C698 1.356 . S
N696 H708 0.984 . S
N696 H709 0.985 . S
N697 C699 1.356 . S
N697 H702 0.984 . S
N697 H703 0.985 . S
C698 C692 1.379 . S
C698 C695 1.363 . S
C698 N696 1.356 . S
C699 C693 1.363 . S
C699 C694 1.379 . S
C699 N697 1.356 . S
N700 C692 1.356 . S
N700 H706 0.984 . S
N700 H707 0.984 . S
N701 C694 1.356 . S
N701 H704 0.984 . S
N701 H705 0.985 . S
H702 N697 0.984 . S
H703 N697 0.985 . S
H704 N701 0.984 . S
H705 N701 0.985 . S
H706 N700 0.984 . S
H707 N700 0.984 . S
H708 N696 0.984 . S
H709 N696 0.985 . S
C710 C711 1.363 . S
C710 C716 1.379 . S
C710 N718 1.356 . S
C711 C710 1.363 . S
C711 C717 1.363 . S
C712 C713 1.363 . S
C712 C717 1.379 . S
C712 N719 1.356 . S
C713 C712 1.363 . S
C713 C716 1.363 . S
N714 C716 1.356 . S
N714 H726 0.984 . S
N714 H727 0.985 . S
N715 C717 1.356 . S
N715 H720 0.984 . S
N715 H721 0.985 . S
C716 C710 1.379 . S
C716 C713 1.363 . S
C716 N714 1.356 . S
C717 C711 1.363 . S
C717 C712 1.379 . S
C717 N715 1.356 . S
N718 C710 1.356 . S
N718 H724 0.984 1_565 S
N718 H725 0.984 1_565 S
N719 C712 1.356 . S
N719 H722 0.984 . S
N719 H723 0.985 . S
H720 N715 0.984 . S
H721 N715 0.985 . S
H722 N719 0.984 . S
H723 N719 0.985 . S
H724 N718 0.984 1_545 S
H725 N718 0.984 1_545 S
H726 N714 0.984 . S
H727 N714 0.985 . S
C728 C729 1.363 . S
C728 C734 1.379 . S
C728 N736 1.356 . S
C729 C728 1.363 . S
C729 C735 1.363 . S
C730 C731 1.363 . S
C730 C735 1.379 . S
C730 N737 1.356 . S
C731 C730 1.363 . S
C731 C734 1.363 . S
N732 C734 1.356 . S
N732 H744 0.984 . S
N732 H745 0.985 . S
N733 C735 1.356 . S
N733 H738 0.984 . S
N733 H739 0.985 . S
C734 C728 1.379 . S
C734 C731 1.363 . S
C734 N732 1.356 . S
C735 C729 1.363 . S
C735 C730 1.379 . S
C735 N733 1.356 . S
N736 C728 1.356 . S
N736 H742 0.984 . S
N736 H743 0.984 . S
N737 C730 1.356 . S
N737 H740 0.984 . S
N737 H741 0.985 . S
H738 N733 0.984 . S
H739 N733 0.985 . S
H740 N737 0.984 . S
H741 N737 0.985 . S
H742 N736 0.984 . S
H743 N736 0.984 . S
H744 N732 0.984 . S
H745 N732 0.985 . S
C746 C747 1.363 . S
C746 C752 1.379 . S
C746 N754 1.356 . S
C747 C746 1.363 . S
C747 C753 1.363 . S
C748 C749 1.363 . S
C748 C753 1.379 . S
C748 N755 1.356 . S
C749 C748 1.363 . S
C749 C752 1.363 . S
N750 C752 1.356 . S
N750 H762 0.984 . S
N750 H763 0.985 . S
N751 C753 1.356 . S
N751 H756 0.984 . S
N751 H757 0.985 . S
C752 C746 1.379 . S
C752 C749 1.363 . S
C752 N750 1.356 . S
C753 C747 1.363 . S
C753 C748 1.379 . S
C753 N751 1.356 . S
N754 C746 1.356 . S
N754 H760 0.984 . S
N754 H761 0.984 . S
N755 C748 1.356 . S
N755 H758 0.984 . S
N755 H759 0.985 . S
H756 N751 0.984 . S
H757 N751 0.985 . S
H758 N755 0.984 . S
H759 N755 0.985 . S
H760 N754 0.984 . S
H761 N754 0.984 . S
H762 N750 0.984 . S
H763 N750 0.985 . S
C764 C765 1.363 . S
C764 C770 1.379 . S
C764 N772 1.356 . S
C765 C764 1.363 . S
C765 C771 1.363 . S
C766 C767 1.363 . S
C766 C771 1.379 . S
C766 N773 1.356 . S
C767 C766 1.363 . S
C767 C770 1.363 . S
N768 C770 1.356 . S
N768 H780 0.984 . S
N768 H781 0.985 . S
N769 C771 1.356 . S
N769 H774 0.984 . S
N769 H775 0.985 . S
C770 C764 1.379 . S
C770 C767 1.363 . S
C770 N768 1.356 . S
C771 C765 1.363 . S
C771 C766 1.379 . S
C771 N769 1.356 . S
N772 C764 1.356 . S
N772 H778 0.984 . S
N772 H779 0.984 . S
N773 C766 1.356 . S
N773 H776 0.984 . S
N773 H777 0.985 . S
H774 N769 0.984 . S
H775 N769 0.985 . S
H776 N773 0.984 . S
H777 N773 0.985 . S
H778 N772 0.984 . S
H779 N772 0.984 . S
H780 N768 0.984 . S
H781 N768 0.985 . S
C782 C783 1.363 . S
C782 C788 1.379 . S
C782 N790 1.356 1_556 S
C783 C782 1.363 . S
C783 C789 1.363 . S
C784 C785 1.363 . S
C784 C789 1.379 . S
C784 N791 1.356 . S
C785 C784 1.363 . S
C785 C788 1.363 . S
N786 C788 1.356 . S
N786 H798 0.984 1_556 S
N786 H799 0.985 . S
N787 C789 1.356 . S
N787 H792 0.984 . S
N787 H793 0.985 . S
C788 C782 1.379 . S
C788 C785 1.363 . S
C788 N786 1.356 . S
C789 C783 1.363 . S
C789 C784 1.379 . S
C789 N787 1.356 . S
N790 C782 1.356 1_554 S
N790 H796 0.984 . S
N790 H797 0.984 . S
N791 C784 1.356 . S
N791 H794 0.984 . S
N791 H795 0.985 . S
H792 N787 0.984 . S
H793 N787 0.985 . S
H794 N791 0.984 . S
H795 N791 0.985 . S
H796 N790 0.984 . S
H797 N790 0.984 . S
H798 N786 0.984 1_554 S
H799 N786 0.985 . S
C225 C0 1.455 . S
C227 C168 1.455 . S
C243 C19 1.420 . S
C245 C75 1.420 . S
C261 C28 1.455 . S
C263 C196 1.455 . S
C279 C103 1.420 . S
C281 C47 1.420 . S
C297 C201 1.420 . S
C299 C33 1.420 . S
C315 C98 1.455 . S
C317 C42 1.455 . S
C333 C173 1.420 . S
C335 C5 1.420 . S
C351 C70 1.455 . S
C353 C14 1.455 . S
C369 C56 1.455 . S
C371 C112 1.455 . S
C387 C84 1.455 . S
C389 C140 1.455 . S
C405 C145 1.420 . S
C407 C89 1.420 . S
C423 C61 1.420 . S
C425 C117 1.420 . S
C441 C187 1.420 . S
C443 C131 1.420 . S
C459 C159 1.421 . S
C461 C215 1.421 . S
C477 C154 1.455 . S
C479 C210 1.455 . S
C495 C126 1.455 . S
C497 C182 1.455 . S
C513 C165 1.489 . S
C515 C11 1.489 . S
C531 C121 1.483 . S
C533 C23 1.483 . S
C549 C39 1.489 . S
C551 C137 1.489 . S
C567 C149 1.483 . S
C569 C51 1.483 . S
C585 C163 1.483 . S
C587 C37 1.483 . S
C603 C53 1.489 . S
C605 C123 1.489 . S
C621 C135 1.482 . S
C623 C9 1.482 . S
C639 C151 1.489 . S
C641 C25 1.489 . S
C657 C67 1.489 . S
C659 C221 1.489 . S
C675 C177 1.483 . S
C677 C79 1.483 . S
C693 C95 1.489 . S
C695 C193 1.489 . S
C711 C107 1.483 . S
C713 C205 1.483 . S
C729 C93 1.483 . S
C731 C219 1.483 . S
C747 C179 1.489 . S
C749 C109 1.489 . S
C765 C191 1.483 . S
C767 C65 1.483 . S
C783 C207 1.489 . S
C785 C81 1.489 . S
