# Generated by pormake.
# Topology fst, (5)-cn, num edge types: 1
# Building blocks:
#     Node 0, Type 0, BuildingBlock: XOMCOT_clean_sbu_1, # of connection points: 5
#     Node 1, Type 0, BuildingBlock: XOMCOT_clean_sbu_1, # of connection points: 5
#     Node 2, Type 0, BuildingBlock: XOMCOT_clean_sbu_1, # of connection points: 5
#     Node 3, Type 0, BuildingBlock: XOMCOT_clean_sbu_1, # of connection points: 5
#     Node 4, Type 0, BuildingBlock: XOMCOT_clean_sbu_1, # of connection points: 5
#     Node 5, Type 0, BuildingBlock: XOMCOT_clean_sbu_1, # of connection points: 5
#     Node 6, Type 0, BuildingBlock: XOMCOT_clean_sbu_1, # of connection points: 5
#     Node 7, Type 0, BuildingBlock: XOMCOT_clean_sbu_1, # of connection points: 5
#     Node 8, Type 0, BuildingBlock: XOMCOT_clean_sbu_1, # of connection points: 5
#     Node 9, Type 0, BuildingBlock: XOMCOT_clean_sbu_1, # of connection points: 5
#     Node 10, Type 0, BuildingBlock: XOMCOT_clean_sbu_1, # of connection points: 5
#     Node 11, Type 0, BuildingBlock: XOMCOT_clean_sbu_1, # of connection points: 5
#     Edge 12, Type (0, 0), BuildingBlock: ZUJKAS_clean_linker_0, # of connection points: 2
#     Edge 13, Type (0, 0), BuildingBlock: ZUJKAS_clean_linker_0, # of connection points: 2
#     Edge 14, Type (0, 0), BuildingBlock: ZUJKAS_clean_linker_0, # of connection points: 2
#     Edge 15, Type (0, 0), BuildingBlock: ZUJKAS_clean_linker_0, # of connection points: 2
#     Edge 16, Type (0, 0), BuildingBlock: ZUJKAS_clean_linker_0, # of connection points: 2
#     Edge 17, Type (0, 0), BuildingBlock: ZUJKAS_clean_linker_0, # of connection points: 2
#     Edge 18, Type (0, 0), BuildingBlock: ZUJKAS_clean_linker_0, # of connection points: 2
#     Edge 19, Type (0, 0), BuildingBlock: ZUJKAS_clean_linker_0, # of connection points: 2
#     Edge 20, Type (0, 0), BuildingBlock: ZUJKAS_clean_linker_0, # of connection points: 2
#     Edge 21, Type (0, 0), BuildingBlock: ZUJKAS_clean_linker_0, # of connection points: 2
#     Edge 22, Type (0, 0), BuildingBlock: ZUJKAS_clean_linker_0, # of connection points: 2
#     Edge 23, Type (0, 0), BuildingBlock: ZUJKAS_clean_linker_0, # of connection points: 2
#     Edge 24, Type (0, 0), BuildingBlock: ZUJKAS_clean_linker_0, # of connection points: 2
#     Edge 25, Type (0, 0), BuildingBlock: ZUJKAS_clean_linker_0, # of connection points: 2
#     Edge 26, Type (0, 0), BuildingBlock: ZUJKAS_clean_linker_0, # of connection points: 2
#     Edge 27, Type (0, 0), BuildingBlock: ZUJKAS_clean_linker_0, # of connection points: 2
#     Edge 28, Type (0, 0), BuildingBlock: ZUJKAS_clean_linker_0, # of connection points: 2
#     Edge 29, Type (0, 0), BuildingBlock: ZUJKAS_clean_linker_0, # of connection points: 2
#     Edge 30, Type (0, 0), BuildingBlock: ZUJKAS_clean_linker_0, # of connection points: 2
#     Edge 31, Type (0, 0), BuildingBlock: ZUJKAS_clean_linker_0, # of connection points: 2
#     Edge 32, Type (0, 0), BuildingBlock: ZUJKAS_clean_linker_0, # of connection points: 2
#     Edge 33, Type (0, 0), BuildingBlock: ZUJKAS_clean_linker_0, # of connection points: 2
#     Edge 34, Type (0, 0), BuildingBlock: ZUJKAS_clean_linker_0, # of connection points: 2
#     Edge 35, Type (0, 0), BuildingBlock: ZUJKAS_clean_linker_0, # of connection points: 2
#     Edge 36, Type (0, 0), BuildingBlock: ZUJKAS_clean_linker_0, # of connection points: 2
#     Edge 37, Type (0, 0), BuildingBlock: ZUJKAS_clean_linker_0, # of connection points: 2
#     Edge 38, Type (0, 0), BuildingBlock: ZUJKAS_clean_linker_0, # of connection points: 2
#     Edge 39, Type (0, 0), BuildingBlock: ZUJKAS_clean_linker_0, # of connection points: 2
#     Edge 40, Type (0, 0), BuildingBlock: ZUJKAS_clean_linker_0, # of connection points: 2
#     Edge 41, Type (0, 0), BuildingBlock: ZUJKAS_clean_linker_0, # of connection points: 2
# Relax obj value: 0.142
# Max RMSD: 0.125
# Mean RMSD: 0.125
data_MOF--net-fst--node1-XOMCOT_clean_sbu_1--edge1-ZUJKAS_clean_linker_0
_symmetry_space_group_name_H-M    P1
_symmetry_Int_Tables_number       1
_symmetry_cell_setting            triclinic
loop_
_symmetry_equiv_pos_as_xyz
'x, y, z'
_cell_length_a     94.268681
_cell_length_b     94.27931
_cell_length_c     22.022632
_cell_angle_alpha  89.996783
_cell_angle_beta   89.951204
_cell_angle_gamma 120.02863
loop_
_atom_site_label
_atom_site_type_symbol
_atom_site_fract_x
_atom_site_fract_y
_atom_site_fract_z
_atom_type_partial_charge
C0 C 0.13629 0.4631 0.94737 0.0
C1 C 0.14047 0.46438 0.8871 0.0
N2 N 0.13518 0.44923 0.86513 0.0
N3 N 0.12808 0.44717 0.96378 0.0
C4 C 0.12805 0.43903 0.91293 0.0
H5 H 0.13905 0.47323 0.97737 0.0
Co6 Co 0.12079 0.44018 0.04379 0.0
C7 C 0.08983 0.41505 0.97252 0.0
O8 O 0.09395 0.42168 0.91831 0.0
N9 N 0.11397 0.43363 0.12449 0.0
C10 C 0.09803 0.42526 0.20643 0.0
C11 C 0.09853 0.42777 0.14493 0.0
C12 C 0.12275 0.43489 0.17502 0.0
N13 N 0.11327 0.42975 0.2256 0.0
O14 O 0.13074 0.42666 0.04089 0.0
H15 H 0.08833 0.42611 0.11733 0.0
H16 H 0.13585 0.43977 0.17496 0.0
O17 O 0.09953 0.42171 0.01748 0.0
C18 C 0.14597 0.43532 0.05313 0.0
O19 O 0.15174 0.4508 0.0673 0.0
N20 N 0.1124 0.45459 0.04803 0.0
C21 C 0.1065 0.48085 0.05054 0.0
C22 C 0.09753 0.46745 1.01179 0.0
C23 C 0.10073 0.45447 1.01094 0.0
C24 C 0.1208 0.46721 0.08752 0.0
C25 C 0.118 0.48041 0.08974 0.0
H26 H 0.09444 0.4449 0.97815 0.0
H27 H 0.13026 0.46738 0.11573 0.0
H28 H 0.12293 0.42589 0.91098 0.0
H29 H 0.14654 0.47562 0.86103 0.0
H30 H 0.08738 0.42119 0.23526 0.0
H31 H 0.08872 0.46738 0.98009 0.0
H32 H 0.12511 0.49038 0.12085 0.0
C33 C 0.70658 0.14054 0.95978 0.0
C34 C 0.70961 0.14005 0.89918 0.0
N35 N 0.69951 0.12479 0.87862 0.0
N36 N 0.69475 0.12561 0.97817 0.0
C37 C 0.69052 0.11624 0.9274 0.0
H38 H 0.71237 0.15129 0.98829 0.0
Co39 Co 0.68687 0.12182 0.05772 0.0
C40 C 0.67307 0.08641 0.08468 0.0
O41 O 0.66223 0.0871 0.12015 0.0
N42 N 0.67924 0.11882 0.13988 0.0
C43 C 0.66481 0.11655 0.22331 0.0
C44 C 0.66604 0.11924 0.16188 0.0
C45 C 0.68599 0.11612 0.19 0.0
N46 N 0.67734 0.11458 0.24112 0.0
O47 O 0.70905 0.13007 0.08587 0.0
H48 H 0.65756 0.12127 0.13585 0.0
H49 H 0.69687 0.11502 0.18893 0.0
O50 O 0.68331 0.09919 0.05498 0.0
C51 C 0.71573 0.14455 0.10757 0.0
O52 O 0.70649 0.15118 0.11612 0.0
N53 N 0.6658 0.1155 0.02747 0.0
C54 C 0.63557 0.1114 0.99046 0.0
C55 C 0.63859 0.09824 0.98886 0.0
C56 C 0.65389 0.10059 1.00669 0.0
C57 C 0.66359 0.1287 0.02393 0.0
C58 C 0.64852 0.1269 1.00685 0.0
H59 H 0.656 0.09042 1.00297 0.0
H60 H 0.6734 0.14061 0.03785 0.0
H61 H 0.68095 0.10351 0.92602 0.0
H62 H 0.71814 0.15035 0.8717 0.0
H63 H 0.65555 0.11639 0.25289 0.0
H64 H 0.62925 0.08621 0.97378 0.0
H65 H 0.64694 0.13749 1.00875 0.0
C66 C 0.55066 0.67899 0.92814 0.0
C67 C 0.54888 0.68152 0.86789 0.0
N68 N 0.56385 0.69116 0.84384 0.0
N69 N 0.56671 0.6867 0.94247 0.0
C70 C 0.57443 0.69448 0.89052 0.0
H71 H 0.54079 0.67174 0.95938 0.0
Co72 Co 0.57462 0.68642 0.02089 0.0
C73 C 0.59796 0.67944 0.94296 0.0
O74 O 0.5903 0.67644 0.89071 0.0
N75 N 0.58215 0.68625 0.10046 0.0
C76 C 0.59262 0.68004 0.17983 0.0
C77 C 0.59097 0.67924 0.11783 0.0
C78 C 0.57853 0.69116 0.15331 0.0
N79 N 0.5847 0.68744 0.20245 0.0
O80 O 0.58851 0.70982 0.0165 0.0
H81 H 0.59542 0.67322 0.08797 0.0
H82 H 0.57078 0.69656 0.15603 0.0
O83 O 0.59238 0.68313 0.98963 0.0
C84 C 0.58092 0.71706 0.0347 0.0
O85 O 0.56588 0.70804 0.05503 0.0
N86 N 0.5599 0.66359 0.02672 0.0
C87 C 0.53336 0.63153 0.03013 0.0
C88 C 0.54628 0.63596 0.98906 0.0
C89 C 0.55941 0.65203 0.98801 0.0
C90 C 0.54771 0.65935 0.06842 0.0
C91 C 0.5344 0.64336 0.07129 0.0
H92 H 0.56853 0.65516 0.95363 0.0
H93 H 0.54785 0.66864 0.0976 0.0
H94 H 0.58758 0.70229 0.88682 0.0
H95 H 0.53742 0.67614 0.84324 0.0
H96 H 0.59893 0.67521 0.20625 0.0
H97 H 0.54601 0.62719 0.95663 0.0
H98 H 0.52458 0.64054 0.10318 0.0
C99 C 0.87629 0.54463 0.99549 0.0
C100 C 0.87622 0.5425 0.93382 0.0
N101 N 0.88645 0.55713 0.90839 0.0
N102 N 0.88667 0.56049 1.00893 0.0
C103 C 0.89258 0.56787 0.95493 0.0
H104 H 0.86913 0.53526 0.02856 0.0
Co105 Co 0.89044 0.56881 0.08678 0.0
C106 C 0.92535 0.5935 0.09565 0.0
O107 O 0.92502 0.58681 0.14838 0.0
N108 N 0.89359 0.57734 0.16641 0.0
C109 C 0.89883 0.59579 0.23886 0.0
C110 C 0.89796 0.59311 0.17751 0.0
C111 C 0.89157 0.57062 0.22234 0.0
N112 N 0.89478 0.58162 0.2672 0.0
O113 O 0.87967 0.58098 0.06651 0.0
H114 H 0.90054 0.60222 0.14286 0.0
H115 H 0.88752 0.55789 0.2306 0.0
O116 O 0.91228 0.58747 0.06321 0.0
C117 C 0.8646 0.5727 0.08159 0.0
O118 O 0.85938 0.55826 0.10667 0.0
N119 N 0.89939 0.55524 0.10518 0.0
C120 C 0.90524 0.52887 0.10793 0.0
C121 C 0.91577 0.54329 0.07633 0.0
C122 C 0.91246 0.55616 0.07445 0.0
C123 C 0.88907 0.5413 0.13626 0.0
C124 C 0.89194 0.52813 0.13932 0.0
H125 H 0.91967 0.56618 0.04392 0.0
H126 H 0.87773 0.53977 0.15437 0.0
H127 H 0.90119 0.58083 0.94983 0.0
H128 H 0.86886 0.53116 0.90943 0.0
H129 H 0.90238 0.60738 0.26066 0.0
H130 H 0.92603 0.5443 0.05053 0.0
H131 H 0.8831 0.51701 0.16224 0.0
C132 C 0.32631 0.86598 0.95739 0.0
C133 C 0.32699 0.86451 0.89556 0.0
N134 N 0.32632 0.87706 0.86921 0.0
N135 N 0.32526 0.8794 0.96996 0.0
C136 C 0.32527 0.88593 0.9154 0.0
H137 H 0.3264 0.85771 0.99124 0.0
Co138 Co 0.32301 0.88527 0.04777 0.0
C139 C 0.33858 0.92103 0.04986 0.0
O140 O 0.34556 0.92021 0.10035 0.0
N141 N 0.31995 0.89071 0.12773 0.0
C142 C 0.30972 0.89936 0.20069 0.0
C143 C 0.31018 0.89707 0.13944 0.0
C144 C 0.32516 0.88911 0.18333 0.0
N145 N 0.31917 0.89437 0.22843 0.0
O146 O 0.30006 0.87688 0.03189 0.0
H147 H 0.30371 0.89988 0.1053 0.0
H148 H 0.33324 0.88432 0.19126 0.0
O149 O 0.32886 0.9078 0.02118 0.0
C150 C 0.29205 0.86211 0.0507 0.0
O151 O 0.30022 0.85611 0.07863 0.0
N152 N 0.34521 0.89149 0.06158 0.0
C153 C 0.37599 0.89371 0.06583 0.0
C154 C 0.37341 0.90447 0.02976 0.0
C155 C 0.35789 0.90291 0.02712 0.0
C156 C 0.34739 0.88059 0.09523 0.0
C157 C 0.36271 0.88172 0.09929 0.0
H158 H 0.3559 0.91021 0.99415 0.0
H159 H 0.33693 0.87033 0.11639 0.0
H160 H 0.32406 0.89667 0.90955 0.0
H161 H 0.32792 0.85495 0.87186 0.0
H162 H 0.30264 0.90401 0.223 0.0
H163 H 0.38303 0.91339 1.00075 0.0
H164 H 0.36396 0.87289 0.12683 0.0
C165 C 0.46287 0.32945 0.97196 0.0
C166 C 0.46513 0.3316 0.91038 0.0
N167 N 0.45126 0.32978 0.88542 0.0
N168 N 0.44768 0.32633 0.98593 0.0
C169 C 0.44083 0.32653 0.93245 0.0
H170 H 0.47165 0.3299 1.00462 0.0
Co171 Co 0.43965 0.32217 0.06407 0.0
C172 C 0.41545 0.33284 0.07506 0.0
O173 O 0.42276 0.33946 0.12666 0.0
N174 N 0.43143 0.31717 0.14443 0.0
C175 C 0.41323 0.30421 0.21803 0.0
C176 C 0.41597 0.30514 0.15671 0.0
C177 C 0.43788 0.32327 0.19977 0.0
N178 N 0.427 0.31567 0.2452 0.0
O179 O 0.42725 0.29914 0.04467 0.0
H180 H 0.40704 0.29762 0.12292 0.0
H181 H 0.45009 0.33334 0.20713 0.0
O182 O 0.42097 0.32548 0.04174 0.0
C183 C 0.43541 0.2922 0.0594 0.0
O184 O 0.44983 0.30126 0.08477 0.0
N185 N 0.45351 0.34474 0.08091 0.0
C186 C 0.47989 0.37692 0.08254 0.0
C187 C 0.4656 0.37294 0.05012 0.0
C188 C 0.45267 0.35677 0.04906 0.0
C189 C 0.46745 0.34841 0.112 0.0
C190 C 0.48061 0.36448 0.11479 0.0
H191 H 0.44262 0.35385 0.01859 0.0
H192 H 0.46882 0.33864 0.13149 0.0
H193 H 0.42845 0.32432 0.92819 0.0
H194 H 0.47602 0.33383 0.88589 0.0
H195 H 0.40196 0.29564 0.24071 0.0
H196 H 0.46472 0.38212 0.02339 0.0
H197 H 0.49167 0.36691 0.13848 0.0
C198 C 0.55602 0.86153 0.05934 0.0
C199 C 0.55533 0.8583 0.12045 0.0
N200 N 0.56827 0.87097 0.14765 0.0
N201 N 0.56926 0.87624 0.04771 0.0
C202 C 0.57671 0.88158 0.10227 0.0
H203 H 0.54712 0.85392 0.02561 0.0
Co204 Co 0.57365 0.88589 0.97055 0.0
C205 C 0.59206 0.92086 0.01956 0.0
O206 O 0.57927 0.92282 0.0164 0.0
N207 N 0.57826 0.89529 0.89128 0.0
C208 C 0.58277 0.91221 0.81358 0.0
C209 C 0.58121 0.91039 0.87546 0.0
C210 C 0.57817 0.88821 0.83744 0.0
N211 N 0.58081 0.89823 0.7895 0.0
O212 O 0.58966 0.87911 0.95993 0.0
H213 H 0.58153 0.91942 0.90609 0.0
H214 H 0.57555 0.87573 0.83288 0.0
O215 O 0.59107 0.90733 1.00323 0.0
C216 C 0.58304 0.86452 0.9394 0.0
O217 O 0.56746 0.85705 0.92453 0.0
N218 N 0.5562 0.89061 0.98105 0.0
C219 C 0.52747 0.89233 0.99534 0.0
C220 C 0.53814 0.89548 0.0442 0.0
C221 C 0.5522 0.89427 0.03645 0.0
C222 C 0.54552 0.88685 0.93369 0.0
C223 C 0.53133 0.88797 0.93945 0.0
H224 H 0.56003 0.89663 0.07529 0.0
H225 H 0.54759 0.88239 0.89136 0.0
H226 H 0.58753 0.89342 0.1092 0.0
H227 H 0.54583 0.84755 0.14326 0.0
H228 H 0.58498 0.92296 0.78821 0.0
H229 H 0.53567 0.89885 0.08832 0.0
H230 H 0.52314 0.88483 0.90101 0.0
C231 C 0.6817 0.5446 0.09947 0.0
C232 C 0.68443 0.54311 0.15976 0.0
N233 N 0.69396 0.55822 0.18282 0.0
N234 N 0.68916 0.56059 0.0842 0.0
C235 C 0.69702 0.56858 0.13556 0.0
H236 H 0.67446 0.53459 0.06877 0.0
Co237 Co 0.6885 0.56794 1.00517 0.0
C238 C 0.68248 0.59245 0.08001 0.0
O239 O 0.67997 0.5856 0.1338 0.0
N240 N 0.68801 0.57493 0.92527 0.0
C241 C 0.68163 0.58493 0.84495 0.0
C242 C 0.67992 0.5826 0.90666 0.0
C243 C 0.69437 0.57256 0.87358 0.0
N244 N 0.69071 0.5786 0.8239 0.0
O245 O 0.71198 0.58146 1.00671 0.0
H246 H 0.67269 0.58581 0.93561 0.0
H247 H 0.70133 0.56629 0.87228 0.0
O248 O 0.68571 0.58617 0.03431 0.0
C249 C 0.71856 0.57297 0.99205 0.0
O250 O 0.70884 0.5575 0.97774 0.0
N251 N 0.66555 0.55354 1.00219 0.0
C252 C 0.63314 0.52744 1.00316 0.0
C253 C 0.63864 0.54 0.04658 0.0
C254 C 0.65483 0.55289 0.04528 0.0
C255 C 0.66035 0.54171 0.95857 0.0
C256 C 0.64419 0.5287 0.95772 0.0
H257 H 0.65887 0.56159 0.08167 0.0
H258 H 0.66898 0.54195 0.92561 0.0
H259 H 0.70477 0.58174 0.13838 0.0
H260 H 0.67927 0.53177 0.18515 0.0
H261 H 0.676 0.59027 0.81743 0.0
H262 H 0.63081 0.53947 0.08357 0.0
H263 H 0.64057 0.51949 0.92262 0.0
C264 C 0.14567 0.68942 0.03382 0.0
C265 C 0.14854 0.69086 0.09527 0.0
N266 N 0.13689 0.69294 0.12238 0.0
N267 N 0.13225 0.69054 0.02203 0.0
C268 C 0.1272 0.6928 0.07684 0.0
H269 H 0.15267 0.68729 0.99982 0.0
Co270 Co 0.12343 0.68774 0.94462 0.0
C271 C 0.09529 0.69265 0.96252 0.0
O272 O 0.10206 0.70508 0.92463 0.0
N273 N 0.11466 0.68465 0.86596 0.0
C274 C 0.09734 0.67325 0.78902 0.0
C275 C 0.09912 0.67346 0.85085 0.0
C276 C 0.12214 0.69105 0.81224 0.0
N277 N 0.11183 0.68426 0.76463 0.0
O278 O 0.13314 0.71117 0.93796 0.0
H279 H 0.08976 0.6655 0.88269 0.0
H280 H 0.13503 0.69992 0.80774 0.0
O281 O 0.103 0.68521 0.97696 0.0
C282 C 0.14806 0.71799 0.92096 0.0
O283 O 0.15404 0.70851 0.90599 0.0
N284 N 0.11545 0.66517 0.95118 0.0
C285 C 0.10896 0.63301 0.96423 0.0
C286 C 0.10101 0.63906 1.00106 0.0
C287 C 0.10455 0.65527 0.99422 0.0
C288 C 0.12304 0.65943 0.9142 0.0
C289 C 0.11992 0.64337 0.91973 0.0
H290 H 0.0991 0.66001 0.02537 0.0
H291 H 0.13195 0.66756 0.88138 0.0
H292 H 0.1163 0.6937 0.08358 0.0
H293 H 0.15838 0.69028 0.11826 0.0
H294 H 0.08628 0.66537 0.76386 0.0
H295 H 0.09271 0.63158 0.03674 0.0
H296 H 0.12626 0.6392 0.89009 0.0
C297 C 0.46457 0.13901 0.04282 0.0
C298 C 0.46648 0.143 0.10331 0.0
N299 N 0.45154 0.13721 0.12848 0.0
N300 N 0.44848 0.13041 0.0292 0.0
C301 C 0.44086 0.13019 0.08183 0.0
H302 H 0.47438 0.14204 1.01079 0.0
Co303 Co 0.44076 0.1223 0.95038 0.0
C304 C 0.41737 0.09161 0.02712 0.0
O305 O 0.42493 0.09647 0.07949 0.0
N306 N 0.4335 0.1147 0.87069 0.0
C307 C 0.42545 0.09808 0.79073 0.0
C308 C 0.4275 0.09905 0.85249 0.0
C309 C 0.43514 0.12307 0.81853 0.0
N310 N 0.43039 0.1132 0.76896 0.0
O311 O 0.4267 0.13162 0.95445 0.0
H312 H 0.42564 0.08906 0.8817 0.0
H313 H 0.44063 0.13625 0.81647 0.0
O314 O 0.42296 0.10091 0.98041 0.0
C315 C 0.43479 0.14671 0.9394 0.0
O316 O 0.4501 0.15272 0.92225 0.0
N317 N 0.45571 0.11451 0.94466 0.0
C318 C 0.48233 0.10913 0.93723 0.0
C319 C 0.46991 0.10092 0.98067 0.0
C320 C 0.45673 0.1038 0.9837 0.0
C321 C 0.46745 0.12231 0.90134 0.0
C322 C 0.48071 0.11966 0.89636 0.0
H323 H 0.44796 0.09808 0.01957 0.0
H324 H 0.46684 0.13112 0.87167 0.0
H325 H 0.4277 0.12448 0.08625 0.0
H326 H 0.47806 0.14959 0.12689 0.0
H327 H 0.42109 0.08708 0.76379 0.0
H328 H 0.47073 0.09293 1.01406 0.0
H329 H 0.4898 0.12612 0.86146 0.0
C330 C 0.32987 0.46408 0.06649 0.0
C331 C 0.32675 0.46533 0.12656 0.0
N332 N 0.31677 0.45016 0.14827 0.0
N333 N 0.32221 0.44817 0.05 0.0
C334 C 0.31383 0.44001 0.10045 0.0
H335 H 0.33743 0.47423 0.03673 0.0
Co336 Co 0.32306 0.44136 0.97002 0.0
C337 C 0.32833 0.41606 0.04248 0.0
O338 O 0.33 0.42245 0.09673 0.0
N339 N 0.32379 0.43505 0.88932 0.0
C340 C 0.33187 0.42714 0.80755 0.0
C341 C 0.33371 0.42958 0.86914 0.0
C342 C 0.31624 0.43614 0.8386 0.0
N343 N 0.32089 0.43128 0.78809 0.0
O344 O 0.29957 0.42781 0.97102 0.0
H345 H 0.34236 0.42817 0.89701 0.0
H346 H 0.30774 0.44068 0.83846 0.0
O347 O 0.32575 0.42278 0.99652 0.0
C348 C 0.29294 0.4364 0.9587 0.0
O349 O 0.30261 0.45195 0.94529 0.0
N350 N 0.34597 0.45577 0.968 0.0
C351 C 0.37838 0.48178 0.96957 0.0
C352 C 0.37299 0.4688 1.01124 0.0
C353 C 0.35676 0.45593 1.00971 0.0
C354 C 0.35107 0.46802 0.92613 0.0
C355 C 0.36722 0.481 0.9256 0.0
H356 H 0.35274 0.44676 0.04459 0.0
H357 H 0.34237 0.46806 0.89426 0.0
H358 H 0.30573 0.42688 0.10222 0.0
H359 H 0.33191 0.47653 0.15277 0.0
H360 H 0.33871 0.42335 0.77888 0.0
H361 H 0.38096 0.46895 0.04691 0.0
H362 H 0.37078 0.49053 0.89183 0.0
C363 C 0.87179 0.32712 0.12977 0.0
C364 C 0.86744 0.32383 0.18977 0.0
N365 N 0.87264 0.3138 0.2107 0.0
N366 N 0.88005 0.31952 0.11253 0.0
C367 C 0.87987 0.31102 0.16254 0.0
H368 H 0.86914 0.3347 0.1005 0.0
Co369 Co 0.88742 0.3205 0.03206 0.0
C370 C 0.9183 0.32515 0.1013 0.0
O371 O 0.91377 0.32595 0.15694 0.0
N372 N 0.89421 0.32143 0.95084 0.0
C373 C 0.91003 0.32982 0.86858 0.0
C374 C 0.90947 0.33173 0.93013 0.0
C375 C 0.88559 0.31358 0.90043 0.0
N376 N 0.89501 0.31841 0.84965 0.0
O377 O 0.8774 0.29702 0.03221 0.0
H378 H 0.91947 0.34059 0.95773 0.0
H379 H 0.87264 0.30468 0.90073 0.0
O380 O 0.90877 0.32312 0.0567 0.0
C381 C 0.86212 0.29049 0.02109 0.0
O382 O 0.85631 0.30026 1.00851 0.0
N383 N 0.89605 0.34341 0.0313 0.0
C384 C 0.90293 0.37588 0.03647 0.0
C385 C 0.9108 0.37025 0.07557 0.0
C386 C 0.90715 0.35396 0.07242 0.0
C387 C 0.88863 0.34877 0.99171 0.0
C388 C 0.89198 0.36499 0.99318 0.0
H389 H 0.91257 0.34973 0.10548 0.0
H390 H 0.87949 0.34021 0.96056 0.0
H391 H 0.88481 0.30285 0.16361 0.0
H392 H 0.86133 0.32885 0.21644 0.0
H393 H 0.92055 0.33685 0.83959 0.0
H394 H 0.91938 0.37824 0.10955 0.0
H395 H 0.88542 0.3687 0.96273 0.0
H396 H 0.13255 0.6243 0.96705 0.0
H397 H 0.1291 0.59718 0.98549 0.0
H398 H 0.07699 0.57702 1.00502 0.0
H399 H 0.08031 0.6042 0.98593 0.0
H400 H 0.11312 0.57658 0.09479 0.0
H401 H 0.08341 0.54738 0.87552 0.0
H402 H 0.09556 0.56935 0.88406 0.0
H403 H 0.07547 0.55841 0.9168 0.0
C404 C 0.12032 0.61408 0.97447 0.0
C405 C 0.10668 0.61639 0.97452 0.0
C406 C 0.11839 0.59862 0.98541 0.0
C407 C 0.10279 0.5851 0.99612 0.0
C408 C 0.08912 0.58729 0.99627 0.0
H409 H 0.07831 0.48254 0.03923 0.0
H410 H 0.07598 0.50725 0.03051 0.0
C411 C 0.09105 0.60282 0.98574 0.0
C412 C 0.10106 0.56884 1.00828 0.0
H413 H 0.08859 0.53143 0.9443 0.0
C414 C 0.10766 0.56665 0.06215 0.0
C415 C 0.09378 0.55589 0.96584 0.0
C416 C 0.08669 0.55777 0.90704 0.0
C417 C 0.10743 0.55192 0.07432 0.0
C418 C 0.10082 0.53919 0.03065 0.0
C419 C 0.09371 0.5412 0.97764 0.0
C420 C 0.10205 0.52416 0.03747 0.0
C421 C 0.11425 0.55014 0.13397 0.0
C422 C 0.11747 0.52543 0.04341 0.0
C423 C 0.11883 0.51139 0.04848 0.0
C424 C 0.1048 0.4957 0.04709 0.0
C425 C 0.08935 0.49443 0.04037 0.0
C426 C 0.088 0.50853 0.03555 0.0
H427 H 0.11372 0.55827 0.16932 0.0
H428 H 0.10748 0.53731 0.15066 0.0
H429 H 0.1273 0.5537 0.12771 0.0
H430 H 0.12853 0.53731 0.04311 0.0
H431 H 0.13094 0.51284 0.05199 0.0
H432 H 0.62777 0.13241 0.93207 0.0
H433 H 0.60076 0.12962 0.92022 0.0
H434 H 0.5785 0.08183 1.00343 0.0
H435 H 0.60555 0.08489 0.01877 0.0
H436 H 0.57353 0.10811 0.86023 0.0
H437 H 0.56002 0.10387 0.10712 0.0
H438 H 0.58008 0.10958 0.07818 0.0
H439 H 0.56422 0.08839 0.08005 0.0
C440 C 0.61718 0.12136 0.94853 0.0
C441 C 0.61896 0.10899 0.97727 0.0
C442 C 0.60169 0.11972 0.94119 0.0
C443 C 0.58759 0.10568 0.96216 0.0
C444 C 0.58922 0.09298 0.98831 0.0
H445 H 0.4848 0.08171 0.96083 0.0
H446 H 0.50974 0.07975 0.96468 0.0
C447 C 0.60472 0.09465 0.99618 0.0
C448 C 0.57129 0.10451 0.95712 0.0
H449 H 0.53881 0.10034 0.04064 0.0
C450 C 0.56594 0.10638 0.8997 0.0
C451 C 0.56136 0.10228 1.00866 0.0
C452 C 0.56675 0.10107 0.07205 0.0
C453 C 0.55101 0.10614 0.89247 0.0
C454 C 0.5412 0.10405 0.944 0.0
C455 C 0.54634 0.10185 1.0012 0.0
C456 C 0.52601 0.10504 0.93997 0.0
C457 C 0.54582 0.10815 0.82978 0.0
C458 C 0.52693 0.11996 0.92544 0.0
C459 C 0.51277 0.1212 0.92401 0.0
C460 C 0.49731 0.10752 0.93687 0.0
C461 C 0.49646 0.09254 0.95122 0.0
C462 C 0.51069 0.09136 0.9531 0.0
H463 H 0.5527 0.10587 0.79374 0.0
H464 H 0.5325 0.09968 0.82303 0.0
H465 H 0.54821 0.12087 0.82448 0.0
H466 H 0.53868 0.13075 0.91635 0.0
H467 H 0.51404 0.13304 0.9143 0.0
H468 H 0.38744 0.51394 0.94923 0.0
H469 H 0.41447 0.53808 0.9598 0.0
H470 H 0.43412 0.50763 0.01713 0.0
H471 H 0.40728 0.48322 1.00294 0.0
H472 H 0.43271 0.55034 0.05829 0.0
H473 H 0.46721 0.53534 0.89097 0.0
H474 H 0.44515 0.52399 0.89569 0.0
H475 H 0.45729 0.51994 0.94836 0.0
C476 C 0.39755 0.51225 0.96254 0.0
C477 C 0.3951 0.4965 0.97452 0.0
C478 C 0.41301 0.52615 0.9693 0.0
C479 C 0.42643 0.52472 0.98851 0.0
C480 C 0.42407 0.50906 1.00096 0.0
H481 H 0.51595 0.61079 0.12364 0.0
H482 H 0.49049 0.58432 0.11676 0.0
C483 C 0.40861 0.4951 0.9936 0.0
C484 C 0.44269 0.53971 0.99728 0.0
H485 H 0.48283 0.55858 0.95327 0.0
C486 C 0.44367 0.55214 0.03529 0.0
C487 C 0.45698 0.54214 0.96685 0.0
C488 C 0.45663 0.52972 0.92272 0.0
C489 C 0.45844 0.56695 0.04332 0.0
C490 C 0.47281 0.56924 1.01397 0.0
C491 C 0.47186 0.55676 0.97628 0.0
C492 C 0.48872 0.58484 0.01882 0.0
C493 C 0.45832 0.5802 0.08143 0.0
C494 C 0.49656 0.59365 0.96605 0.0
C495 C 0.5112 0.6086 0.96984 0.0
C496 C 0.51833 0.61513 0.02656 0.0
C497 C 0.51064 0.60617 0.07938 0.0
C498 C 0.49606 0.59108 0.07549 0.0
H499 H 0.44575 0.57826 0.08675 0.0
H500 H 0.46307 0.58008 0.1274 0.0
H501 H 0.46622 0.59249 0.06111 0.0
H502 H 0.49117 0.58911 0.92181 0.0
H503 H 0.5167 0.61529 0.92835 0.0
H504 H 0.90639 0.39774 0.94727 0.0
H505 H 0.90867 0.42463 0.95998 0.0
H506 H 0.90626 0.41838 0.15442 0.0
H507 H 0.9041 0.39164 0.14213 0.0
H508 H 0.88677 0.4317 1.01165 0.0
H509 H 0.94544 0.46386 0.13753 0.0
H510 H 0.93874 0.44463 0.0991 0.0
H511 H 0.9307 0.44502 0.17285 0.0
C512 C 0.90645 0.40215 0.99273 0.0
C513 C 0.90521 0.3926 0.04369 0.0
C514 C 0.90779 0.41753 0.99995 0.0
C515 C 0.90793 0.42368 0.0582 0.0
C516 C 0.90667 0.41415 0.10909 0.0
H517 H 0.90166 0.50685 0.1968 0.0
H518 H 0.90261 0.48144 0.18471 0.0
C519 C 0.90542 0.39883 0.10196 0.0
C520 C 0.90848 0.43962 0.06569 0.0
H521 H 0.92944 0.47705 0.1348 0.0
C522 C 0.89618 0.44166 0.03816 0.0
C523 C 0.92074 0.45261 0.1005 0.0
C524 C 0.93474 0.45152 0.1287 0.0
C525 C 0.89563 0.45618 0.04536 0.0
C526 C 0.90779 0.46907 0.08057 0.0
C527 C 0.9201 0.46709 0.10807 0.0
C528 C 0.90797 0.48478 0.08855 0.0
C529 C 0.88187 0.45752 0.01619 0.0
C530 C 0.91098 0.49518 0.03876 0.0
C531 C 0.91048 0.50966 0.0455 0.0
C532 C 0.90698 0.51407 0.1023 0.0
C533 C 0.90429 0.50376 0.15243 0.0
C534 C 0.90489 0.48929 0.14566 0.0
H535 H 0.87167 0.44539 1.00168 0.0
H536 H 0.87697 0.46318 0.04794 0.0
H537 H 0.88661 0.46548 0.97544 0.0
H538 H 0.91353 0.49199 0.99442 0.0
H539 H 0.91236 0.51716 1.00573 0.0
H540 H 0.38124 0.86761 0.06375 0.0
H541 H 0.40731 0.86811 0.05594 0.0
H542 H 0.43302 0.92092 0.05152 0.0
H543 H 0.407 0.92056 0.06194 0.0
H544 H 0.42942 0.88044 0.96345 0.0
H545 H 0.45869 0.91194 0.17893 0.0
H546 H 0.43713 0.90361 0.16424 0.0
H547 H 0.45191 0.92303 0.13232 0.0
C548 C 0.39244 0.87936 0.06262 0.0
C549 C 0.39198 0.89406 0.06404 0.0
C550 C 0.40734 0.87962 0.05752 0.0
C551 C 0.42215 0.89455 0.05384 0.0
C552 C 0.42178 0.90925 0.05544 0.0
H553 H 0.51403 0.90508 0.91748 0.0
H554 H 0.48866 0.90591 0.9308 0.0
C555 C 0.40687 0.90902 0.06074 0.0
C556 C 0.43783 0.89462 0.04566 0.0
H557 H 0.47557 0.90805 0.10854 0.0
C558 C 0.4395 0.88645 0.99523 0.0
C559 C 0.45092 0.90233 0.08749 0.0
C560 C 0.44958 0.91059 0.14411 0.0
C561 C 0.45392 0.88586 0.98524 0.0
C562 C 0.46717 0.89395 0.02616 0.0
C563 C 0.46546 0.90201 0.07687 0.0
C564 C 0.48273 0.89376 0.01818 0.0
C565 C 0.45466 0.87625 0.93173 0.0
C566 C 0.48805 0.88704 0.06351 0.0
C567 C 0.50257 0.88662 0.05616 0.0
C568 C 0.51212 0.89297 1.00333 0.0
C569 C 0.50684 0.89986 0.95824 0.0
C570 C 0.49233 0.90033 0.96577 0.0
H571 H 0.44223 0.86738 0.91455 0.0
H572 H 0.46155 0.88483 0.89425 0.0
H573 H 0.46104 0.86944 0.94392 0.0
H574 H 0.48084 0.8819 0.10432 0.0
H575 H 0.50617 0.88105 0.09145 0.0
H576 H 0.60445 0.52549 0.04272 0.0
H577 H 0.57807 0.50083 0.06091 0.0
H578 H 0.5972 0.47112 0.98998 0.0
H579 H 0.62389 0.49549 0.97581 0.0
H580 H 0.55615 0.47782 0.99056 0.0
H581 H 0.57957 0.44879 0.1487 0.0
H582 H 0.59195 0.4697 0.12363 0.0
H583 H 0.5898 0.45307 0.07674 0.0
C584 C 0.60316 0.51371 0.0317 0.0
C585 C 0.61649 0.51259 1.00839 0.0
C586 C 0.58798 0.4996 0.04169 0.0
C587 C 0.58572 0.48404 0.02832 0.0
C588 C 0.59874 0.48292 1.00245 0.0
H589 H 0.49326 0.39448 0.97918 0.0
H590 H 0.51834 0.42092 0.96875 0.0
C591 C 0.61398 0.49698 0.99324 0.0
C592 C 0.56975 0.469 0.04103 0.0
H593 H 0.55261 0.43149 0.10954 0.0
C594 C 0.55537 0.46775 0.01701 0.0
C595 C 0.5686 0.45597 0.07679 0.0
C596 C 0.58329 0.45701 0.1085 0.0
C597 C 0.53999 0.45367 0.0261 0.0
C598 C 0.53901 0.44021 0.05845 0.0
C599 C 0.55333 0.44167 0.08404 0.0
C600 C 0.52339 0.42437 0.06521 0.0
C601 C 0.52497 0.45353 1.00168 0.0
C602 C 0.51805 0.41713 0.12274 0.0
C603 C 0.50383 0.40181 0.12868 0.0
C604 C 0.49459 0.39349 0.07724 0.0
C605 C 0.49991 0.40077 0.01979 0.0
C606 C 0.51423 0.41594 1.0138 0.0
H607 H 0.52697 0.46615 0.99783 0.0
H608 H 0.52227 0.44809 0.95551 0.0
H609 H 0.51412 0.44622 0.03104 0.0
H610 H 0.52494 0.42331 0.16309 0.0
H611 H 0.50003 0.39646 0.17346 0.0
H612 H 0.27631 0.45128 0.92029 0.0
H613 H 0.24764 0.44276 0.93594 0.0
H614 H 0.23976 0.39823 0.02147 0.0
H615 H 0.26892 0.40695 1.00694 0.0
H616 H 0.21882 0.4161 0.89946 0.0
H617 H 0.22422 0.41822 0.15159 0.0
H618 H 0.24196 0.42642 0.10275 0.0
H619 H 0.22932 0.40467 0.11215 0.0
C620 C 0.26854 0.4396 0.94219 0.0
C621 C 0.27499 0.42988 0.96295 0.0
C622 C 0.25206 0.43471 0.95086 0.0
C623 C 0.24153 0.41996 0.98062 0.0
C624 C 0.24771 0.4098 0.9993 0.0
H625 H 0.1409 0.40625 1.0026 0.0
H626 H 0.16157 0.39788 0.9872 0.0
C627 C 0.26434 0.41474 0.99058 0.0
C628 C 0.22444 0.41605 0.99407 0.0
H629 H 0.20008 0.41535 0.11041 0.0
C630 C 0.21453 0.41558 0.94558 0.0
C631 C 0.21889 0.41543 0.0543 0.0
C632 C 0.22913 0.4163 0.10838 0.0
C633 C 0.1998 0.41561 0.95556 0.0
C634 C 0.19465 0.4158 1.01582 0.0
C635 C 0.20401 0.41515 0.06427 0.0
C636 C 0.18133 0.41947 0.02958 0.0
C637 C 0.19053 0.41669 0.90157 0.0
C638 C 0.18535 0.43401 0.06043 0.0
C639 C 0.17364 0.43871 0.06957 0.0
C640 C 0.15752 0.42898 0.04822 0.0
C641 C 0.15323 0.41403 0.01945 0.0
C642 C 0.16506 0.4093 1.01024 0.0
H643 H 0.19748 0.4189 0.8585 0.0
H644 H 0.17876 0.40502 0.89698 0.0
H645 H 0.18771 0.42671 0.90796 0.0
H646 H 0.19778 0.44207 0.07588 0.0
H647 H 0.1774 0.45023 0.09236 0.0
H648 H 0.83025 0.2741 0.98675 0.0
H649 H 0.80999 0.24555 1.00405 0.0
H650 H 0.84702 0.2373 0.0837 0.0
H651 H 0.86758 0.26635 0.06759 0.0
H652 H 0.8073 0.21688 0.96543 0.0
H653 H 0.81243 0.22156 0.2174 0.0
H654 H 0.82178 0.23941 0.1691 0.0
H655 H 0.83076 0.22659 0.17569 0.0
C656 C 0.83421 0.26627 1.00774 0.0
C657 C 0.85055 0.2726 0.02631 0.0
C658 C 0.82256 0.24987 0.01741 0.0
C659 C 0.82686 0.23926 0.04597 0.0
C660 C 0.84332 0.24531 0.06257 0.0
H661 H 0.73975 0.13931 0.05924 0.0
H662 H 0.76899 0.15968 0.04872 0.0
C663 C 0.85509 0.26187 0.05289 0.0
C664 C 0.81369 0.22219 0.05969 0.0
H665 H 0.79084 0.19747 0.17682 0.0
C666 C 0.80386 0.21245 1.01159 0.0
C667 C 0.80917 0.21647 0.12 0.0
C668 C 0.81897 0.22653 0.17373 0.0
C669 C 0.78912 0.19775 0.02212 0.0
C670 C 0.78424 0.19235 0.08259 0.0
C671 C 0.79461 0.20156 0.13053 0.0
C672 C 0.76739 0.17881 0.09725 0.0
C673 C 0.77834 0.18881 0.96854 0.0
C674 C 0.75698 0.18238 0.1313 0.0
C675 C 0.74042 0.17075 0.13813 0.0
C676 C 0.7338 0.15521 0.111 0.0
C677 C 0.74445 0.15117 0.0806 0.0
C678 C 0.76113 0.16288 0.07397 0.0
H679 H 0.78255 0.19618 0.92616 0.0
H680 H 0.77852 0.17727 0.9608 0.0
H681 H 0.76547 0.18561 0.97737 0.0
H682 H 0.76147 0.19452 0.15006 0.0
H683 H 0.73262 0.17424 0.16229 0.0
H684 H 0.57258 0.73603 0.10036 0.0
H685 H 0.57946 0.76418 0.07963 0.0
H686 H 0.61096 0.76685 0.93279 0.0
H687 H 0.60422 0.73846 0.95392 0.0
H688 H 0.62241 0.79763 1.01074 0.0
H689 H 0.55937 0.77075 0.9186 0.0
H690 H 0.56044 0.76379 0.99349 0.0
H691 H 0.56926 0.7588 0.93043 0.0
C692 C 0.58123 0.74268 0.06436 0.0
C693 C 0.58773 0.73497 0.02835 0.0
C694 C 0.58516 0.75879 0.05263 0.0
C695 C 0.59553 0.76753 1.00419 0.0
C696 C 0.60292 0.7603 0.97043 0.0
H697 H 0.58257 0.84473 0.84998 0.0
H698 H 0.58949 0.82308 0.85899 0.0
C699 C 0.59908 0.74411 0.98256 0.0
C700 C 0.59701 0.78337 0.98552 0.0
H701 H 0.57374 0.7994 0.93548 0.0
C702 C 0.61187 0.79808 0.99357 0.0
C703 C 0.5833 0.78391 0.96241 0.0
C704 C 0.56721 0.76848 0.95012 0.0
C705 C 0.61317 0.81337 0.98099 0.0
C706 C 0.59918 0.81391 0.96074 0.0
C707 C 0.58451 0.7991 0.95105 0.0
C708 C 0.59899 0.82948 0.95049 0.0
C709 C 0.62951 0.82874 0.98925 0.0
C710 C 0.60277 0.84091 0.99769 0.0
C711 C 0.59917 0.85362 0.99185 0.0
C712 C 0.59144 0.85486 0.93925 0.0
C713 C 0.58864 0.8441 0.89081 0.0
C714 C 0.59252 0.83166 0.89612 0.0
H715 H 0.63977 0.82619 0.98526 0.0
H716 H 0.63132 0.83823 0.95536 0.0
H717 H 0.63004 0.83375 0.03531 0.0
H718 H 0.60739 0.83934 0.04064 0.0
H719 H 0.60111 0.86154 0.03035 0.0
H720 H 0.74276 0.60169 0.04369 0.0
H721 H 0.77204 0.6104 0.05344 0.0
H722 H 0.76378 0.56729 0.95562 0.0
H723 H 0.735 0.5588 0.9449 0.0
H724 H 0.78495 0.59444 0.11241 0.0
H725 H 0.8049 0.60132 0.87406 0.0
H726 H 0.78604 0.60049 0.89609 0.0
H727 H 0.78667 0.58189 0.88414 0.0
C728 C 0.74732 0.5943 0.02321 0.0
C729 C 0.73653 0.57955 0.99355 0.0
C730 C 0.76403 0.59926 0.02889 0.0
C731 C 0.77024 0.58967 1.00422 0.0
C732 C 0.75949 0.57518 0.97352 0.0
H733 H 0.83304 0.55813 0.11975 0.0
H734 H 0.81298 0.56664 0.10271 0.0
C735 C 0.74291 0.57023 0.96803 0.0
C736 C 0.78742 0.59357 1.0154 0.0
H737 H 0.81943 0.59297 0.94493 0.0
C738 C 0.79268 0.59456 0.07566 0.0
C739 C 0.79778 0.59412 0.96769 0.0
C740 C 0.79361 0.59459 0.9019 0.0
C741 C 0.80722 0.59453 0.08949 0.0
C742 C 0.81658 0.59312 0.04193 0.0
C743 C 0.81214 0.59371 0.98156 0.0
C744 C 0.8295 0.5888 0.05404 0.0
C745 C 0.8121 0.59539 0.15519 0.0
C746 C 0.84551 0.59819 0.03091 0.0
C747 C 0.85716 0.59324 0.04034 0.0
C748 C 0.85289 0.57872 0.07232 0.0
C749 C 0.83685 0.56942 0.09511 0.0
C750 C 0.82533 0.57436 0.08591 0.0
H751 H 0.80777 0.60241 0.18249 0.0
H752 H 0.8063 0.58281 0.17415 0.0
H753 H 0.82559 0.6012 0.16026 0.0
H754 H 0.84896 0.60929 1.00548 0.0
H755 H 0.86939 0.60064 0.02198 0.0
H756 H 0.14239 0.74179 0.96926 0.0
H757 H 0.16262 0.77096 0.98378 0.0
H758 H 0.19947 0.76358 0.89706 0.0
H759 H 0.17948 0.73495 0.88095 0.0
H760 H 0.18926 0.7837 0.05066 0.0
H761 H 0.20935 0.80538 0.81785 0.0
H762 H 0.19096 0.78615 0.83328 0.0
H763 H 0.21064 0.78728 0.82997 0.0
C764 C 0.15471 0.74653 0.95199 0.0
C765 C 0.15929 0.73601 0.92388 0.0
C766 C 0.16628 0.76319 0.96046 0.0
C767 C 0.18257 0.76964 0.9405 0.0
C768 C 0.18694 0.75916 0.91121 0.0
H769 H 0.27267 0.83152 0.09523 0.0
H770 H 0.24452 0.812 0.06958 0.0
C771 C 0.17546 0.74264 0.9026 0.0
C772 C 0.19557 0.78671 0.9556 0.0
H773 H 0.23027 0.81909 0.89696 0.0
C774 C 0.19798 0.79161 0.01673 0.0
C775 C 0.20682 0.79741 0.91154 0.0
C776 C 0.20417 0.79383 0.84446 0.0
C777 C 0.21204 0.80607 0.03547 0.0
C778 C 0.22429 0.81567 0.99227 0.0
C779 C 0.22113 0.8116 0.9305 0.0
C780 C 0.24112 0.82847 1.01085 0.0
C781 C 0.21382 0.81061 0.10182 0.0
C782 C 0.24895 0.8443 0.98538 0.0
C783 C 0.26538 0.85562 0.99957 0.0
C784 C 0.27427 0.85119 0.03896 0.0
C785 C 0.26626 0.83544 0.06491 0.0
C786 C 0.25 0.82423 0.05074 0.0
H787 H 0.20166 0.80659 0.12277 0.0
H788 H 0.21935 0.80425 0.12613 0.0
H789 H 0.22171 0.82402 0.10858 0.0
H790 H 0.24243 0.84782 0.95388 0.0
H791 H 0.27122 0.86761 0.97851 0.0
H792 H 0.40694 0.14191 0.99961 0.0
H793 H 0.39834 0.16235 0.01624 0.0
H794 H 0.43948 0.19744 0.90997 0.0
H795 H 0.44781 0.17726 0.89234 0.0
H796 H 0.41497 0.19091 0.075 0.0
H797 H 0.40433 0.20481 0.8426 0.0
H798 H 0.40567 0.1868 0.86018 0.0
H799 H 0.42396 0.2062 0.84624 0.0
C800 C 0.41388 0.15387 0.97868 0.0
C801 C 0.42805 0.15793 0.94462 0.0
C802 C 0.409 0.16556 0.98833 0.0
C803 C 0.41807 0.1814 0.9634 0.0
C804 C 0.43196 0.18523 0.92825 0.0
H805 H 0.45043 0.27518 0.09169 0.0
H806 H 0.44202 0.2468 0.07103 0.0
C807 C 0.43682 0.17366 0.91875 0.0
C808 C 0.41438 0.19464 0.9787 0.0
H809 H 0.41382 0.22746 0.91538 0.0
C810 C 0.41429 0.19865 0.04004 0.0
C811 C 0.41308 0.20462 0.93347 0.0
C812 C 0.41157 0.20025 0.86701 0.0
C813 C 0.41444 0.21311 0.05703 0.0
C814 C 0.41511 0.22406 1.01153 0.0
C815 C 0.41366 0.2193 0.95041 0.0
C816 C 0.41941 0.2412 0.02603 0.0
C817 C 0.41442 0.21674 0.12372 0.0
C818 C 0.40976 0.24784 1.00609 0.0
C819 C 0.41467 0.26436 0.01747 0.0
C820 C 0.42941 0.27453 0.04839 0.0
C821 C 0.43896 0.26777 0.06806 0.0
C822 C 0.43408 0.2514 0.05678 0.0
H823 H 0.40771 0.20523 0.15041 0.0
H824 H 0.42723 0.22339 0.14053 0.0
H825 H 0.40873 0.22441 0.13224 0.0
H826 H 0.39848 0.24027 0.98156 0.0
H827 H 0.40707 0.2692 1.00146 0.0
H828 H 0.09498 0.40939 0.31612 0.0
H829 H 0.10169 0.41194 0.42415 0.0
H830 H 0.14937 0.45336 0.38598 0.0
H831 H 0.14256 0.45107 0.27748 0.0
H832 H 0.12743 0.41173 0.49037 0.0
H833 H 0.12918 0.47142 0.50838 0.0
H834 H 0.12063 0.45814 0.44341 0.0
H835 H 0.14246 0.47044 0.45203 0.0
C836 C 0.10691 0.41904 0.3306 0.0
C837 C 0.11814 0.43017 0.28814 0.0
C838 C 0.11077 0.42041 0.3924 0.0
C839 C 0.12592 0.43299 0.41339 0.0
C840 C 0.13749 0.4437 0.37094 0.0
H841 H 0.15856 0.46724 0.7823 0.0
H842 H 0.15754 0.46243 0.67292 0.0
C843 C 0.13365 0.44229 0.30885 0.0
C844 C 0.12915 0.43524 0.4799 0.0
H845 H 0.13471 0.46124 0.59721 0.0
C846 C 0.12911 0.42259 0.51377 0.0
C847 C 0.13127 0.44938 0.51047 0.0
C848 C 0.13077 0.4631 0.47701 0.0
C849 C 0.13123 0.42374 0.57725 0.0
C850 C 0.1331 0.43777 0.60793 0.0
C851 C 0.13333 0.45049 0.57384 0.0
C852 C 0.13453 0.43954 0.67535 0.0
C853 C 0.13168 0.41 0.61065 0.0
C854 C 0.12208 0.42814 0.71369 0.0
C855 C 0.1227 0.43085 0.77654 0.0
C856 C 0.13565 0.44513 0.80219 0.0
C857 C 0.14834 0.45622 0.76393 0.0
C858 C 0.14778 0.45346 0.70134 0.0
H859 H 0.1351 0.40284 0.57996 0.0
H860 H 0.1405 0.41474 0.64899 0.0
H861 H 0.11932 0.40152 0.62926 0.0
H862 H 0.11153 0.41749 0.6948 0.0
H863 H 0.11263 0.4222 0.80458 0.0
H864 H 0.70711 0.12657 0.2945 0.0
H865 H 0.71241 0.12505 0.40301 0.0
H866 H 0.66045 0.09572 0.43564 0.0
H867 H 0.65517 0.0971 0.32781 0.0
H868 H 0.70006 0.13706 0.4953 0.0
H869 H 0.67916 0.07129 0.53173 0.0
H870 H 0.68424 0.08073 0.4575 0.0
H871 H 0.66477 0.07502 0.49157 0.0
C872 C 0.69689 0.11948 0.32468 0.0
C873 C 0.68073 0.11202 0.30278 0.0
C874 C 0.6999 0.11868 0.38662 0.0
C875 C 0.68682 0.11013 0.42739 0.0
C876 C 0.67074 0.10215 0.40504 0.0
H877 H 0.67167 0.10394 0.81783 0.0
H878 H 0.66903 0.09928 0.70745 0.0
C879 C 0.66773 0.10308 0.34347 0.0
C880 C 0.68975 0.11091 0.49397 0.0
H881 H 0.68289 0.08731 0.62065 0.0
C882 C 0.69652 0.12621 0.52263 0.0
C883 C 0.68489 0.09671 0.52965 0.0
C884 C 0.67799 0.08001 0.5011 0.0
C885 C 0.69816 0.12769 0.58604 0.0
C886 C 0.69327 0.1135 0.62189 0.0
C887 C 0.68663 0.09818 0.59321 0.0
C888 C 0.69497 0.11448 0.68916 0.0
C889 C 0.7046 0.14441 0.61421 0.0
C890 C 0.71046 0.12394 0.71573 0.0
C891 C 0.71195 0.12663 0.77834 0.0
C892 C 0.69802 0.11976 0.81599 0.0
C893 C 0.68261 0.10934 0.78997 0.0
C894 C 0.6811 0.10674 0.72695 0.0
H895 H 0.70364 0.15307 0.58259 0.0
H896 H 0.69785 0.14364 0.65655 0.0
H897 H 0.71773 0.14955 0.62579 0.0
H898 H 0.72137 0.12969 0.68774 0.0
H899 H 0.724 0.13447 0.79729 0.0
H900 H 0.58392 0.66839 0.2961 0.0
H901 H 0.58066 0.67202 0.40372 0.0
H902 H 0.57648 0.71448 0.36285 0.0
H903 H 0.58004 0.71107 0.25406 0.0
H904 H 0.59838 0.71833 0.46394 0.0
H905 H 0.53723 0.66259 0.48602 0.0
H906 H 0.55237 0.6591 0.4504 0.0
H907 H 0.54585 0.67189 0.41353 0.0
C908 C 0.58244 0.6786 0.30969 0.0
C909 C 0.58232 0.68949 0.26614 0.0
C910 C 0.58043 0.68057 0.37141 0.0
C911 C 0.57818 0.69343 0.39143 0.0
C912 C 0.57814 0.70443 0.34839 0.0
H913 H 0.54465 0.69443 0.76002 0.0
H914 H 0.54878 0.69703 0.65016 0.0
C915 C 0.58006 0.7024 0.28624 0.0
C916 C 0.57593 0.69523 0.45741 0.0
H917 H 0.5512 0.67491 0.578 0.0
C918 C 0.588 0.70893 0.48888 0.0
C919 C 0.56231 0.68303 0.48988 0.0
C920 C 0.54861 0.66839 0.45826 0.0
C921 C 0.58705 0.71049 0.55222 0.0
C922 C 0.57377 0.69793 0.58505 0.0
C923 C 0.56147 0.68449 0.55312 0.0
C924 C 0.57232 0.69827 0.65248 0.0
C925 C 0.60023 0.7256 0.58335 0.0
C926 C 0.58428 0.69837 0.69088 0.0
C927 C 0.58193 0.69686 0.75403 0.0
C928 C 0.56747 0.69506 0.78007 0.0
C929 C 0.55581 0.69557 0.74158 0.0
C930 C 0.55819 0.69711 0.67865 0.0
H931 H 0.60679 0.7359 0.55088 0.0
H932 H 0.59501 0.72961 0.62035 0.0
H933 H 0.60933 0.72281 0.60359 0.0
H934 H 0.59514 0.69892 0.67188 0.0
H935 H 0.59105 0.6963 0.78208 0.0
H936 H 0.89705 0.55757 0.32705 0.0
H937 H 0.89584 0.55324 0.43679 0.0
H938 H 0.89058 0.59566 0.46432 0.0
H939 H 0.89092 0.59961 0.35508 0.0
H940 H 0.91619 0.57343 0.52543 0.0
H941 H 0.85305 0.56153 0.56399 0.0
H942 H 0.86089 0.5616 0.48916 0.0
H943 H 0.86579 0.58059 0.52577 0.0
C944 C 0.89533 0.56582 0.35627 0.0
C945 C 0.894 0.5789 0.3319 0.0
C946 C 0.89479 0.5634 0.41906 0.0
C947 C 0.89286 0.57398 0.45862 0.0
C948 C 0.89171 0.58714 0.43458 0.0
H949 H 0.89262 0.58488 0.84967 0.0
H950 H 0.8955 0.58959 0.73962 0.0
C951 C 0.89214 0.5895 0.37194 0.0
C952 C 0.89246 0.57156 0.52516 0.0
H953 H 0.86952 0.56634 0.6521 0.0
C954 C 0.90595 0.57177 0.5531 0.0
C955 C 0.87905 0.56937 0.5611 0.0
C956 C 0.86381 0.56809 0.53344 0.0
C957 C 0.90651 0.57014 0.61626 0.0
C958 C 0.89324 0.56826 0.65206 0.0
C959 C 0.87974 0.56798 0.62427 0.0
C960 C 0.89284 0.56597 0.71844 0.0
C961 C 0.92133 0.57067 0.64457 0.0
C962 C 0.89047 0.55119 0.74249 0.0
C963 C 0.88876 0.54846 0.80502 0.0
C964 C 0.88943 0.56049 0.84453 0.0
C965 C 0.89223 0.57547 0.82035 0.0
C966 C 0.89379 0.57814 0.75765 0.0
H967 H 0.9317 0.57503 0.61207 0.0
H968 H 0.9254 0.57881 0.68497 0.0
H969 H 0.91805 0.55819 0.65995 0.0
H970 H 0.88957 0.54161 0.71274 0.0
H971 H 0.88678 0.53687 0.82251 0.0
H972 H 0.33843 0.90639 0.81253 0.0
H973 H 0.33832 0.91109 0.70283 0.0
H974 H 0.31389 0.85901 0.67138 0.0
H975 H 0.31386 0.85421 0.78053 0.0
H976 H 0.35171 0.89697 0.60428 0.0
H977 H 0.2857 0.8784 0.58841 0.0
H978 H 0.29721 0.88576 0.65815 0.0
H979 H 0.2908 0.86541 0.63205 0.0
C980 C 0.33294 0.89596 0.78221 0.0
C981 C 0.32617 0.87994 0.80507 0.0
C982 C 0.33298 0.89867 0.71971 0.0
C983 C 0.32605 0.88538 0.67939 0.0
C984 C 0.31925 0.8694 0.702 0.0
H985 H 0.32775 0.87482 0.29042 0.0
H986 H 0.33081 0.87391 0.40037 0.0
C987 C 0.31934 0.86669 0.76426 0.0
C988 C 0.32587 0.8881 0.61345 0.0
H989 H 0.30021 0.88314 0.49605 0.0
C990 C 0.3405 0.89405 0.58048 0.0
C991 C 0.31122 0.88432 0.583 0.0
C992 C 0.29531 0.8782 0.61699 0.0
C993 C 0.34076 0.89601 0.51719 0.0
C994 C 0.32602 0.89183 0.48652 0.0
C995 C 0.31147 0.88623 0.51979 0.0
C996 C 0.32534 0.89315 0.41981 0.0
C997 C 0.35678 0.90257 0.48353 0.0
C998 C 0.32124 0.90426 0.3945 0.0
C999 C 0.31959 0.9049 0.33173 0.0
C1000 C 0.32182 0.89429 0.29296 0.0
C1001 C 0.32616 0.88331 0.31861 0.0
C1002 C 0.32788 0.88275 0.3815 0.0
H1003 H 0.36746 0.90832 0.51472 0.0
H1004 H 0.35701 0.89235 0.45944 0.0
H1005 H 0.35808 0.91174 0.44904 0.0
H1006 H 0.31923 0.91239 0.42343 0.0
H1007 H 0.31653 0.91371 0.31369 0.0
H1008 H 0.40359 0.30923 0.32977 0.0
H1009 H 0.40743 0.31349 0.43913 0.0
H1010 H 0.45955 0.33444 0.41649 0.0
H1011 H 0.45584 0.32984 0.3069 0.0
H1012 H 0.42372 0.29986 0.51403 0.0
H1013 H 0.45317 0.36776 0.52539 0.0
H1014 H 0.44094 0.35602 0.46139 0.0
H1015 H 0.46136 0.35956 0.4707 0.0
C1016 C 0.41588 0.31467 0.34783 0.0
C1017 C 0.4294 0.31907 0.30937 0.0
C1018 C 0.41804 0.31721 0.41033 0.0
C1019 C 0.43376 0.32439 0.43554 0.0
C1020 C 0.44734 0.3291 0.39753 0.0
H1021 H 0.47378 0.34511 0.79638 0.0
H1022 H 0.46873 0.34385 0.68753 0.0
C1023 C 0.44519 0.32648 0.33492 0.0
C1024 C 0.4358 0.32599 0.50207 0.0
H1025 H 0.45164 0.35391 0.61695 0.0
C1026 C 0.42974 0.31165 0.53675 0.0
C1027 C 0.44371 0.34141 0.53105 0.0
C1028 C 0.4501 0.35711 0.49549 0.0
C1029 C 0.43172 0.31231 0.59994 0.0
C1030 C 0.43958 0.32774 0.6292 0.0
C1031 C 0.44554 0.3421 0.5944 0.0
C1032 C 0.44236 0.32924 0.6956 0.0
C1033 C 0.42588 0.29649 0.63441 0.0
C1034 C 0.42918 0.32178 0.7364 0.0
C1035 C 0.43203 0.32223 0.79882 0.0
C1036 C 0.44814 0.33031 0.82159 0.0
C1037 C 0.46125 0.33842 0.78055 0.0
C1038 C 0.45838 0.33786 0.71823 0.0
H1039 H 0.42411 0.28633 0.60397 0.0
H1040 H 0.43471 0.29793 0.67056 0.0
H1041 H 0.41393 0.29292 0.65614 0.0
H1042 H 0.41668 0.31538 0.71989 0.0
H1043 H 0.42163 0.31584 0.82885 0.0
H1044 H 0.59766 0.88793 0.20496 0.0
H1045 H 0.60239 0.89169 0.31498 0.0
H1046 H 0.55026 0.86371 0.34614 0.0
H1047 H 0.54555 0.8597 0.23721 0.0
H1048 H 0.59365 0.90642 0.39659 0.0
H1049 H 0.56515 0.84138 0.46258 0.0
H1050 H 0.56957 0.84796 0.3845 0.0
H1051 H 0.55105 0.84498 0.42013 0.0
C1052 C 0.58724 0.88253 0.23541 0.0
C1053 C 0.57125 0.87331 0.21226 0.0
C1054 C 0.58995 0.88464 0.29829 0.0
C1055 C 0.5767 0.87762 0.33925 0.0
C1056 C 0.56073 0.86874 0.31595 0.0
H1057 H 0.57046 0.90979 0.69752 0.0
H1058 H 0.57094 0.90473 0.58921 0.0
C1059 C 0.55804 0.8665 0.2534 0.0
C1060 C 0.57938 0.88019 0.40609 0.0
H1061 H 0.56815 0.86018 0.54249 0.0
C1062 C 0.58825 0.89628 0.4284 0.0
C1063 C 0.57268 0.867 0.448 0.0
C1064 C 0.56425 0.84937 0.42752 0.0
C1065 C 0.5899 0.89956 0.4911 0.0
C1066 C 0.58206 0.88642 0.53291 0.0
C1067 C 0.57391 0.87029 0.51069 0.0
C1068 C 0.58162 0.88919 0.59945 0.0
C1069 C 0.60011 0.91711 0.51173 0.0
C1070 C 0.58672 0.88154 0.64204 0.0
C1071 C 0.58623 0.88424 0.70452 0.0
C1072 C 0.58067 0.8947 0.72556 0.0
C1073 C 0.5752 0.902 0.68285 0.0
C1074 C 0.57554 0.89917 0.62072 0.0
H1075 H 0.6096 0.92462 0.4775 0.0
H1076 H 0.59207 0.92249 0.51749 0.0
H1077 H 0.60627 0.91797 0.55564 0.0
H1078 H 0.5913 0.87364 0.62691 0.0
H1079 H 0.59053 0.87846 0.73626 0.0
H1080 H 0.6938 0.59936 0.73304 0.0
H1081 H 0.69738 0.59635 0.62489 0.0
H1082 H 0.70024 0.55297 0.66232 0.0
H1083 H 0.69619 0.55565 0.77083 0.0
H1084 H 0.72217 0.5951 0.55891 0.0
H1085 H 0.66286 0.53687 0.53854 0.0
H1086 H 0.66808 0.54995 0.60431 0.0
H1087 H 0.67662 0.53679 0.59479 0.0
C1088 C 0.69512 0.58912 0.71841 0.0
C1089 C 0.69445 0.57761 0.76079 0.0
C1090 C 0.6973 0.58749 0.65647 0.0
C1091 C 0.69879 0.57428 0.63519 0.0
C1092 C 0.69881 0.56311 0.67749 0.0
H1093 H 0.69822 0.53979 0.26727 0.0
H1094 H 0.70123 0.54445 0.37685 0.0
C1095 C 0.69666 0.56475 0.73967 0.0
C1096 C 0.6998 0.57202 0.56863 0.0
H1097 H 0.67925 0.54634 0.45064 0.0
C1098 C 0.71282 0.58442 0.53521 0.0
C1099 C 0.68757 0.55811 0.5376 0.0
C1100 C 0.6729 0.54471 0.57038 0.0
C1101 C 0.714 0.58321 0.47185 0.0
C1102 C 0.70166 0.56938 0.44076 0.0
C1103 C 0.68874 0.55693 0.47434 0.0
C1104 C 0.70163 0.56758 0.37342 0.0
C1105 C 0.72858 0.59666 0.43897 0.0
C1106 C 0.70109 0.57914 0.3345 0.0
C1107 C 0.6994 0.5765 0.27155 0.0
C1108 C 0.698 0.56214 0.24626 0.0
C1109 C 0.69907 0.55088 0.28521 0.0
C1110 C 0.70083 0.55355 0.34795 0.0
H1111 H 0.73906 0.60367 0.47025 0.0
H1112 H 0.73265 0.59164 0.4015 0.0
H1113 H 0.72514 0.60534 0.41919 0.0
H1114 H 0.70132 0.58989 0.35295 0.0
H1115 H 0.69839 0.58531 0.2431 0.0
H1116 H 0.14476 0.67841 0.21159 0.0
H1117 H 0.14118 0.67985 0.32067 0.0
H1118 H 0.12085 0.71127 0.28933 0.0
H1119 H 0.12415 0.70959 0.17944 0.0
H1120 H 0.15389 0.70521 0.39799 0.0
H1121 H 0.0861 0.67639 0.39549 0.0
H1122 H 0.09759 0.67647 0.32987 0.0
H1123 H 0.0966 0.69447 0.34952 0.0
C1124 C 0.13959 0.68569 0.22783 0.0
C1125 C 0.13472 0.69388 0.18683 0.0
C1126 C 0.13752 0.68648 0.29029 0.0
C1127 C 0.13057 0.69551 0.31337 0.0
C1128 C 0.12589 0.70391 0.27263 0.0
H1129 H 0.13339 0.71281 0.70946 0.0
H1130 H 0.13864 0.71742 0.59987 0.0
C1131 C 0.12781 0.70298 0.20988 0.0
C1132 C 0.12828 0.69595 0.38008 0.0
H1133 H 0.09918 0.6856 0.49017 0.0
C1134 C 0.14193 0.70099 0.41819 0.0
C1135 C 0.11266 0.69032 0.40645 0.0
C1136 C 0.09736 0.68396 0.36836 0.0
C1137 C 0.14036 0.70021 0.48177 0.0
C1138 C 0.12474 0.69463 0.50811 0.0
C1139 C 0.11116 0.68997 0.46999 0.0
C1140 C 0.12189 0.69222 0.57474 0.0
C1141 C 0.15531 0.70468 0.51995 0.0
C1142 C 0.11055 0.67664 0.59708 0.0
C1143 C 0.10741 0.67407 0.65921 0.0
C1144 C 0.11557 0.68701 0.70072 0.0
C1145 C 0.12707 0.70259 0.67857 0.0
C1146 C 0.13009 0.70522 0.61602 0.0
H1147 H 0.16532 0.70484 0.4928 0.0
H1148 H 0.15996 0.71711 0.53919 0.0
H1149 H 0.15228 0.69595 0.55819 0.0
H1150 H 0.10413 0.6664 0.5663 0.0
H1151 H 0.09868 0.66187 0.67485 0.0
H1152 H 0.47104 0.13913 0.22253 0.0
H1153 H 0.46507 0.1376 0.33029 0.0
H1154 H 0.418 0.1326 0.29094 0.0
H1155 H 0.42393 0.13418 0.18171 0.0
H1156 H 0.45835 0.15676 0.40521 0.0
H1157 H 0.40578 0.09294 0.39866 0.0
H1158 H 0.41955 0.10206 0.33524 0.0
H1159 H 0.40408 0.10741 0.35051 0.0
C1160 C 0.45948 0.13796 0.23624 0.0
C1161 C 0.448 0.13686 0.19277 0.0
C1162 C 0.45606 0.13701 0.29831 0.0
C1163 C 0.44103 0.13484 0.31906 0.0
C1164 C 0.42958 0.13399 0.27614 0.0
H1165 H 0.42883 0.13885 0.71887 0.0
H1166 H 0.43021 0.14552 0.61019 0.0
C1167 C 0.433 0.13491 0.21361 0.0
C1168 C 0.43753 0.13311 0.38564 0.0
H1169 H 0.41352 0.10556 0.49421 0.0
C1170 C 0.44842 0.14565 0.42471 0.0
C1171 C 0.42465 0.11855 0.41117 0.0
C1172 C 0.41289 0.10439 0.37197 0.0
C1173 C 0.44714 0.14382 0.4883 0.0
C1174 C 0.43444 0.12914 0.51378 0.0
C1175 C 0.42321 0.11685 0.47474 0.0
C1176 C 0.43356 0.12551 0.58012 0.0
C1177 C 0.45989 0.15727 0.52754 0.0
C1178 C 0.43481 0.11201 0.59956 0.0
C1179 C 0.43396 0.10818 0.66119 0.0
C1180 C 0.43177 0.1177 0.70543 0.0
C1181 C 0.43066 0.13135 0.68612 0.0
C1182 C 0.43146 0.13517 0.62399 0.0
H1183 H 0.47062 0.1663 0.50064 0.0
H1184 H 0.45439 0.16389 0.55016 0.0
H1185 H 0.46427 0.1521 0.56339 0.0
H1186 H 0.43657 0.10444 0.56685 0.0
H1187 H 0.43521 0.09779 0.67411 0.0
H1188 H 0.31962 0.41135 0.69729 0.0
H1189 H 0.3152 0.4137 0.58931 0.0
H1190 H 0.30736 0.45409 0.62781 0.0
H1191 H 0.31211 0.45199 0.73623 0.0
H1192 H 0.2885 0.41256 0.52401 0.0
H1193 H 0.34549 0.47308 0.50404 0.0
H1194 H 0.34129 0.45987 0.56893 0.0
H1195 H 0.33121 0.47165 0.56119 0.0
C1196 C 0.31695 0.42074 0.68289 0.0
C1197 C 0.31644 0.43162 0.72545 0.0
C1198 C 0.31431 0.422 0.62112 0.0
C1199 C 0.3112 0.43423 0.60022 0.0
C1200 C 0.30999 0.4447 0.64276 0.0
H1201 H 0.31125 0.46798 0.2314 0.0
H1202 H 0.30775 0.46319 0.34091 0.0
C1203 C 0.31255 0.4434 0.70482 0.0
C1204 C 0.30997 0.43636 0.53373 0.0
H1205 H 0.32961 0.4625 0.41579 0.0
C1206 C 0.29743 0.42351 0.5003 0.0
C1207 C 0.32166 0.45062 0.50277 0.0
C1208 C 0.33577 0.46457 0.53576 0.0
C1209 C 0.2962 0.42459 0.43689 0.0
C1210 C 0.30807 0.43875 0.40576 0.0
C1211 C 0.32048 0.45165 0.43944 0.0
C1212 C 0.30816 0.44045 0.3383 0.0
C1213 C 0.28207 0.41063 0.40408 0.0
C1214 C 0.30926 0.42913 0.29976 0.0
C1215 C 0.31115 0.43181 0.23683 0.0
C1216 C 0.31225 0.446 0.21125 0.0
C1217 C 0.3106 0.45701 0.2497 0.0
C1218 C 0.30858 0.45427 0.31238 0.0
H1219 H 0.2716 0.40338 0.4352 0.0
H1220 H 0.27775 0.41516 0.36581 0.0
H1221 H 0.28612 0.40229 0.38551 0.0
H1222 H 0.30936 0.41857 0.31851 0.0
H1223 H 0.31262 0.42323 0.20866 0.0
H1224 H 0.91396 0.3175 0.75917 0.0
H1225 H 0.90717 0.31266 0.65131 0.0
H1226 H 0.8584 0.30339 0.68967 0.0
H1227 H 0.86526 0.30854 0.79801 0.0
H1228 H 0.88201 0.28547 0.5862 0.0
H1229 H 0.87676 0.34147 0.56564 0.0
H1230 H 0.88604 0.33767 0.6306 0.0
H1231 H 0.86414 0.32704 0.62286 0.0
C1232 C 0.90177 0.31441 0.74477 0.0
C1233 C 0.89023 0.31364 0.78723 0.0
C1234 C 0.89787 0.31154 0.68307 0.0
C1235 C 0.88237 0.30791 0.66217 0.0
C1236 C 0.87054 0.30641 0.70464 0.0
H1237 H 0.84886 0.30738 0.2929 0.0
H1238 H 0.84993 0.30362 0.40232 0.0
C1239 C 0.87442 0.30921 0.76664 0.0
C1240 C 0.87902 0.30655 0.59569 0.0
H1241 H 0.87202 0.32571 0.47747 0.0
C1242 C 0.87973 0.2942 0.56238 0.0
C1243 C 0.87611 0.31798 0.56458 0.0
C1244 C 0.87583 0.33189 0.59744 0.0
C1245 C 0.87752 0.29293 0.49893 0.0
C1246 C 0.87489 0.30455 0.46768 0.0
C1247 C 0.87399 0.31676 0.50124 0.0
C1248 C 0.87338 0.30464 0.4002 0.0
C1249 C 0.8778 0.27902 0.46622 0.0
C1250 C 0.88602 0.30612 0.36195 0.0
C1251 C 0.88534 0.30814 0.29906 0.0
C1252 C 0.87215 0.309 0.27332 0.0
C1253 C 0.85925 0.30691 0.31142 0.0
C1254 C 0.85986 0.30475 0.37401 0.0
H1255 H 0.87477 0.2686 0.49732 0.0
H1256 H 0.86903 0.27453 0.42772 0.0
H1257 H 0.89029 0.28337 0.44799 0.0
H1258 H 0.89678 0.30647 0.38092 0.0
H1259 H 0.89557 0.30995 0.27111 0.0
H1260 H 0.07642 0.39823 0.07859 0.0
H1261 H 0.0474 0.3797 0.10072 0.0
H1262 H 0.03527 0.38286 0.91452 0.0
H1263 H 0.06418 0.40176 0.89218 0.0
H1264 H 0.02245 0.39035 0.07406 0.0
H1265 H 0.00941 0.33207 0.96269 0.0
H1266 H 0.0297 0.3471 0.98816 0.0
H1267 H 0.02137 0.3508 0.92083 0.0
C1268 C 0.06763 0.39499 0.04221 0.0
C1269 C 0.07267 0.40181 0.98388 0.0
C1270 C 0.05105 0.38429 0.0549 0.0
C1271 C 0.0392 0.3799 1.00925 0.0
C1272 C 0.04423 0.38599 0.95028 0.0
H1273 H 0.93305 0.32634 0.99193 0.0
H1274 H 0.96239 0.33896 0.97142 0.0
C1275 C 0.0608 0.39683 0.93767 0.0
C1276 C 0.0215 0.37025 0.02447 0.0
H1277 H 0.98674 0.33333 1.00246 0.0
C1278 C 0.01464 0.37783 0.05888 0.0
C1279 C 0.01135 0.35404 1.00379 0.0
C1280 C 0.01825 0.34539 0.96705 0.0
C1281 C 0.99781 0.36976 0.07226 0.0
C1282 C 0.98761 0.35339 0.05247 0.0
C1283 C 0.99453 0.3458 0.01807 0.0
C1284 C 0.96969 0.34423 0.06563 0.0
C1285 C 0.99108 0.37914 0.10549 0.0
C1286 C 0.96389 0.34231 0.12556 0.0
C1287 C 0.94712 0.33543 0.1373 0.0
C1288 C 0.93572 0.33007 0.08938 0.0
C1289 C 0.94147 0.33081 0.02978 0.0
C1290 C 0.95827 0.3379 0.018 0.0
H1291 H 0.99935 0.39259 0.1015 0.0
H1292 H 0.97883 0.37604 0.08782 0.0
H1293 H 0.98985 0.37595 0.15444 0.0
H1294 H 0.97238 0.34655 0.16331 0.0
H1295 H 0.94318 0.33481 0.18391 0.0
H1296 H 0.61993 0.93387 0.95082 0.0
H1297 H 0.64281 0.96232 0.95624 0.0
H1298 H 0.62195 0.96988 0.1189 0.0
H1299 H 0.59915 0.94177 0.11294 0.0
H1300 H 0.63593 0.98847 0.95051 0.0
H1301 H 0.67133 0.99373 0.15738 0.0
H1302 H 0.65872 0.97444 0.1191 0.0
H1303 H 0.64963 0.98246 0.17058 0.0
C1304 C 0.62069 0.94144 0.9891 0.0
C1305 C 0.60795 0.93563 0.032 0.0
C1306 C 0.63366 0.9577 0.99188 0.0
C1307 C 0.6342 0.9682 0.03833 0.0
C1308 C 0.62201 0.96196 0.08338 0.0
H1309 H 0.6563 0.05933 0.15444 0.0
H1310 H 0.6512 0.0318 0.13563 0.0
C1311 C 0.60898 0.94589 0.08 0.0
C1312 C 0.64575 0.98616 0.03569 0.0
H1313 H 0.67124 0.01836 0.12594 0.0
C1314 C 0.64407 0.99507 0.98788 0.0
C1315 C 0.65635 0.99472 0.08443 0.0
C1316 C 0.65926 0.98583 0.1355 0.0
C1317 C 0.65148 0.01224 0.99035 0.0
C1318 C 0.66108 0.02073 0.04151 0.0
C1319 C 0.66384 0.01188 0.08682 0.0
C1320 C 0.66591 0.0381 0.05399 0.0
C1321 C 0.64783 0.02099 0.94069 0.0
C1322 C 0.67624 0.05104 1.01503 0.0
C1323 C 0.67916 0.067 0.02558 0.0
C1324 C 0.67178 0.0702 0.07526 0.0
C1325 C 0.66205 0.05732 0.11533 0.0
C1326 C 0.65918 0.04152 0.10485 0.0
H1327 H 0.63834 0.01233 0.90867 0.0
H1328 H 0.64358 0.02906 0.96044 0.0
H1329 H 0.65918 0.02879 0.91444 0.0
H1330 H 0.6818 0.04876 0.976 0.0
H1331 H 0.68675 0.07667 0.99401 0.0
H1332 H 0.65724 0.59378 0.13329 0.0
H1333 H 0.64631 0.61157 0.10732 0.0
H1334 H 0.68563 0.63726 0.97848 0.0
H1335 H 0.69575 0.61838 1.00092 0.0
H1336 H 0.65493 0.64102 0.11616 0.0
H1337 H 0.64971 0.62853 0.86907 0.0
H1338 H 0.65551 0.61768 0.92143 0.0
H1339 H 0.67048 0.6378 0.89469 0.0
C1340 C 0.6636 0.60328 0.09958 0.0
C1341 C 0.67732 0.60469 0.06899 0.0
C1342 C 0.65733 0.61348 0.08465 0.0
C1343 C 0.66484 0.62563 0.03972 0.0
C1344 C 0.67915 0.62763 1.01149 0.0
H1345 H 0.62544 0.69341 1.01433 0.0
H1346 H 0.64397 0.68276 0.03492 0.0
C1347 C 0.6851 0.617 0.02494 0.0
C1348 C 0.65741 0.63587 0.02267 0.0
H1349 H 0.64379 0.64877 0.90259 0.0
C1350 C 0.65244 0.64262 0.06937 0.0
C1351 C 0.65396 0.63795 0.96167 0.0
C1352 C 0.65753 0.62996 0.90896 0.0
C1353 C 0.64367 0.65077 0.05727 0.0
C1354 C 0.64064 0.65325 0.9962 0.0
C1355 C 0.64614 0.64702 0.94941 0.0
C1356 C 0.63061 0.66095 0.97963 0.0
C1357 C 0.63701 0.65573 0.11052 0.0
C1358 C 0.61757 0.65299 0.93834 0.0
C1359 C 0.60753 0.65952 0.92428 0.0
C1360 C 0.61003 0.67397 0.9522 0.0
C1361 C 0.62323 0.6822 0.99244 0.0
C1362 C 0.63367 0.67596 1.00489 0.0
H1363 H 0.63605 0.64856 0.15194 0.0
H1364 H 0.64545 0.66884 0.12107 0.0
H1365 H 0.62469 0.65396 0.10054 0.0
H1366 H 0.61483 0.64143 0.91803 0.0
H1367 H 0.59733 0.65281 0.8936 0.0
H1368 H 0.07644 0.6654 0.03206 0.0
H1369 H 0.04674 0.65111 0.04541 0.0
H1370 H 0.04411 0.68825 0.94002 0.0
H1371 H 0.07388 0.70273 0.92659 0.0
H1372 H 0.02411 0.67873 0.04343 0.0
H1373 H 0.01418 0.62473 0.90983 0.0
H1374 H 0.02859 0.62969 0.97062 0.0
H1375 H 0.03334 0.64389 0.90895 0.0
C1376 C 0.06962 0.67064 1.01205 0.0
C1377 C 0.0776 0.68516 0.97771 0.0
C1378 C 0.05258 0.66237 0.01937 0.0
C1379 C 0.04315 0.66839 0.99242 0.0
C1380 C 0.05113 0.68328 0.96064 0.0
H1381 H 0.93562 0.60342 0.97782 0.0
H1382 H 0.9636 0.62356 0.94468 0.0
C1383 C 0.06818 0.69157 0.95319 0.0
C1384 C 0.02497 0.65905 0.99726 0.0
H1385 H 0.99153 0.62149 0.96951 0.0
C1386 C 0.01696 0.66629 0.02667 0.0
C1387 C 0.01557 0.64294 0.97408 0.0
C1388 C 0.02332 0.63489 0.93853 0.0
C1389 C 0.99994 0.65752 0.03654 0.0
C1390 C 0.99071 0.64102 0.01715 0.0
C1391 C 0.99859 0.6341 0.98474 0.0
C1392 C 0.97335 0.63021 0.03578 0.0
C1393 C 0.99202 0.66595 0.06846 0.0
C1394 C 0.96955 0.62733 0.0977 0.0
C1395 C 0.95374 0.61591 0.11647 0.0
C1396 C 0.94131 0.60699 0.07384 0.0
C1397 C 0.94491 0.61021 1.01168 0.0
C1398 C 0.96089 0.62164 0.99278 0.0
H1399 H 0.99918 0.67943 0.06164 0.0
H1400 H 0.97931 0.66134 0.05216 0.0
H1401 H 0.99158 0.66356 0.11796 0.0
H1402 H 0.97898 0.63348 0.13172 0.0
H1403 H 0.95139 0.61376 0.16471 0.0
H1404 H 0.3199 0.93168 0.98986 0.0
H1405 H 0.32832 0.96038 0.96444 0.0
H1406 H 0.37693 0.97586 0.03098 0.0
H1407 H 0.36864 0.94765 0.05672 0.0
H1408 H 0.34166 0.98696 0.05534 0.0
H1409 H 0.38468 0.9996 0.86474 0.0
H1410 H 0.36892 0.9791 0.88516 0.0
H1411 H 0.38784 0.98916 0.92688 0.0
C1412 C 0.33245 0.94122 0.99767 0.0
C1413 C 0.34362 0.93748 0.02529 0.0
C1414 C 0.33722 0.95757 0.98348 0.0
C1415 C 0.35331 0.97024 0.99534 0.0
C1416 C 0.36454 0.96631 0.02062 0.0
H1417 H 0.40629 0.06726 0.11225 0.0
H1418 H 0.3876 0.03807 0.09759 0.0
C1419 C 0.35975 0.95017 0.03559 0.0
C1420 C 0.35837 0.98778 0.98686 0.0
H1421 H 0.38894 0.02298 0.92384 0.0
C1422 C 0.35172 0.99482 0.02547 0.0
C1423 C 0.37141 0.99803 0.94764 0.0
C1424 C 0.37854 0.99108 0.90329 0.0
C1425 C 0.35858 0.01192 0.02906 0.0
C1426 C 0.37254 0.02223 0.99357 0.0
C1427 C 0.37836 0.01512 0.95158 0.0
C1428 C 0.38229 0.04024 1.0036 0.0
C1429 C 0.35113 0.0188 0.07224 0.0
C1430 C 0.38557 0.0513 0.95569 0.0
C1431 C 0.39631 0.06813 0.96397 0.0
C1432 C 0.40425 0.0742 0.02001 0.0
C1433 C 0.40046 0.06311 0.06841 0.0
C1434 C 0.38966 0.04635 0.06022 0.0
H1435 H 0.33794 0.00994 0.0802 0.0
H1436 H 0.35751 0.02132 0.11662 0.0
H1437 H 0.3524 0.03043 0.05476 0.0
H1438 H 0.38004 0.04688 0.91155 0.0
H1439 H 0.39866 0.07631 0.92602 0.0
H1440 H 0.32875 0.40089 0.93586 0.0
H1441 H 0.33891 0.38175 0.92108 0.0
H1442 H 0.34655 0.38155 0.1139 0.0
H1443 H 0.33688 0.40092 0.12903 0.0
H1444 H 0.37157 0.38871 0.95944 0.0
H1445 H 0.32186 0.33219 0.06422 0.0
H1446 H 0.31883 0.34858 0.03703 0.0
H1447 H 0.32833 0.35026 0.10946 0.0
C1448 C 0.33257 0.39678 0.97516 0.0
C1449 C 0.33227 0.40275 0.03353 0.0
C1450 C 0.33828 0.38575 0.96661 0.0
C1451 C 0.34341 0.38016 0.0164 0.0
C1452 C 0.34247 0.38555 0.07487 0.0
H1453 H 0.39593 0.33854 0.14831 0.0
H1454 H 0.37671 0.34744 0.12034 0.0
C1455 C 0.33697 0.3967 0.08338 0.0
C1456 C 0.35096 0.36974 1.00774 0.0
H1457 H 0.34813 0.33401 0.05605 0.0
C1458 C 0.36632 0.37657 0.9792 0.0
C1459 C 0.34403 0.35391 0.03336 0.0
C1460 C 0.32728 0.3457 0.06227 0.0
C1461 C 0.37553 0.36856 0.98001 0.0
C1462 C 0.36902 0.35312 1.00903 0.0
C1463 C 0.35314 0.34582 0.03378 0.0
C1464 C 0.37939 0.34576 0.02346 0.0
C1465 C 0.39263 0.37723 0.95388 0.0
C1466 C 0.387 0.34128 0.97827 0.0
C1467 C 0.39819 0.33615 0.99434 0.0
C1468 C 0.40189 0.33549 0.05577 0.0
C1469 C 0.39352 0.3391 0.10052 0.0
C1470 C 0.38244 0.34414 0.0846 0.0
H1471 H 0.39669 0.39012 0.94121 0.0
H1472 H 0.40151 0.37722 0.98697 0.0
H1473 H 0.39297 0.37071 0.91248 0.0
H1474 H 0.38462 0.34213 0.93073 0.0
H1475 H 0.40445 0.33344 0.95889 0.0
loop_
_geom_bond_atom_site_label_1
_geom_bond_atom_site_label_2
_geom_bond_distance
_geom_bond_site_symmetry_2
_ccdc_geom_bond_type
C0 C1 1.351 . S
C0 N3 1.368 . S
C0 H5 0.931 . S
C1 C0 1.351 . S
C1 N2 1.373 . S
C1 H29 0.930 . S
N2 C1 1.373 . S
N2 C4 1.340 . S
N3 C0 1.368 . S
N3 C4 1.321 . S
N3 Co6 2.135 1_556 S
C4 N2 1.340 . S
C4 N3 1.321 . S
C4 H28 0.930 . S
H5 C0 0.931 . S
Co6 N3 2.135 1_554 S
Co6 N9 2.121 . S
Co6 O14 2.055 . S
Co6 O17 2.039 1_554 S
Co6 N20 2.140 1_554 S
C7 O8 1.227 . S
C7 O17 1.265 . S
O8 C7 1.227 . S
N9 Co6 2.121 . S
N9 C11 1.375 . S
N9 C12 1.313 . S
C10 C11 1.338 . S
C10 N13 1.377 . S
C10 H30 0.930 . S
C11 N9 1.375 . S
C11 C10 1.338 . S
C11 H15 0.931 . S
C12 N9 1.313 . S
C12 N13 1.344 . S
C12 H16 0.930 . S
N13 C10 1.377 . S
N13 C12 1.344 . S
O14 Co6 2.055 . S
O14 C18 1.253 . S
H15 C11 0.931 . S
H16 C12 0.930 . S
O17 Co6 2.039 1_556 S
O17 C7 1.265 . S
C18 O14 1.253 . S
C18 O19 1.227 . S
O19 C18 1.227 . S
N20 Co6 2.140 1_556 S
N20 C23 1.349 . S
N20 C24 1.342 1_556 S
C21 C22 1.387 . S
C21 C25 1.391 1_556 S
C22 C21 1.387 . S
C22 C23 1.369 . S
C22 H31 0.929 . S
C23 N20 1.349 . S
C23 C22 1.369 . S
C23 H26 0.928 . S
C24 N20 1.342 1_554 S
C24 C25 1.371 . S
C24 H27 0.931 . S
C25 C21 1.391 1_554 S
C25 C24 1.371 . S
C25 H32 0.930 . S
H26 C23 0.928 . S
H27 C24 0.931 . S
H28 C4 0.930 . S
H29 C1 0.930 . S
H30 C10 0.930 . S
H31 C22 0.929 . S
H32 C25 0.930 . S
C33 C34 1.351 . S
C33 N36 1.368 . S
C33 H38 0.931 . S
C34 C33 1.351 . S
C34 N35 1.373 . S
C34 H62 0.930 . S
N35 C34 1.373 . S
N35 C37 1.340 . S
N36 C33 1.368 . S
N36 C37 1.321 . S
N36 Co39 2.135 1_556 S
C37 N35 1.340 . S
C37 N36 1.321 . S
C37 H61 0.930 . S
H38 C33 0.931 . S
Co39 N36 2.135 1_554 S
Co39 N42 2.121 . S
Co39 O47 2.055 . S
Co39 O50 2.039 1_554 S
Co39 N53 2.140 1_554 S
C40 O41 1.227 . S
C40 O50 1.265 . S
O41 C40 1.227 . S
N42 Co39 2.121 . S
N42 C44 1.375 . S
N42 C45 1.313 . S
C43 C44 1.338 . S
C43 N46 1.377 . S
C43 H63 0.930 . S
C44 N42 1.375 . S
C44 C43 1.338 . S
C44 H48 0.931 . S
C45 N42 1.313 . S
C45 N46 1.344 . S
C45 H49 0.930 . S
N46 C43 1.377 . S
N46 C45 1.344 . S
O47 Co39 2.055 . S
O47 C51 1.253 . S
H48 C44 0.931 . S
H49 C45 0.930 . S
O50 Co39 2.039 1_556 S
O50 C40 1.265 . S
C51 O47 1.253 . S
C51 O52 1.227 . S
O52 C51 1.227 . S
N53 Co39 2.140 1_556 S
N53 C56 1.348 . S
N53 C57 1.343 1_556 S
C54 C55 1.387 . S
C54 C58 1.391 1_556 S
C55 C54 1.387 . S
C55 C56 1.369 . S
C55 H64 0.929 . S
C56 N53 1.348 . S
C56 C55 1.369 . S
C56 H59 0.928 . S
C57 N53 1.343 1_554 S
C57 C58 1.371 . S
C57 H60 0.931 . S
C58 C54 1.391 1_554 S
C58 C57 1.371 . S
C58 H65 0.930 . S
H59 C56 0.928 . S
H60 C57 0.931 . S
H61 C37 0.930 . S
H62 C34 0.930 . S
H63 C43 0.930 . S
H64 C55 0.929 . S
H65 C58 0.930 . S
C66 C67 1.351 . S
C66 N69 1.368 . S
C66 H71 0.931 . S
C67 C66 1.351 . S
C67 N68 1.373 . S
C67 H95 0.930 . S
N68 C67 1.373 . S
N68 C70 1.340 . S
N69 C66 1.368 . S
N69 C70 1.321 . S
N69 Co72 2.135 1_556 S
C70 N68 1.340 . S
C70 N69 1.321 . S
C70 H94 0.930 . S
H71 C66 0.931 . S
Co72 N69 2.135 1_554 S
Co72 N75 2.121 . S
Co72 O80 2.055 . S
Co72 O83 2.039 1_554 S
Co72 N86 2.140 1_554 S
C73 O74 1.227 . S
C73 O83 1.265 . S
O74 C73 1.227 . S
N75 Co72 2.121 . S
N75 C77 1.375 . S
N75 C78 1.313 . S
C76 C77 1.338 . S
C76 N79 1.377 . S
C76 H96 0.930 . S
C77 N75 1.375 . S
C77 C76 1.338 . S
C77 H81 0.931 . S
C78 N75 1.313 . S
C78 N79 1.344 . S
C78 H82 0.930 . S
N79 C76 1.377 . S
N79 C78 1.344 . S
O80 Co72 2.055 . S
O80 C84 1.253 . S
H81 C77 0.931 . S
H82 C78 0.930 . S
O83 Co72 2.039 1_556 S
O83 C73 1.265 . S
C84 O80 1.253 . S
C84 O85 1.227 . S
O85 C84 1.227 . S
N86 Co72 2.140 1_556 S
N86 C89 1.348 . S
N86 C90 1.343 1_556 S
C87 C88 1.387 . S
C87 C91 1.391 1_556 S
C88 C87 1.387 . S
C88 C89 1.369 . S
C88 H97 0.929 . S
C89 N86 1.348 . S
C89 C88 1.369 . S
C89 H92 0.928 . S
C90 N86 1.343 1_554 S
C90 C91 1.371 . S
C90 H93 0.931 . S
C91 C87 1.391 1_554 S
C91 C90 1.371 . S
C91 H98 0.930 . S
H92 C89 0.928 . S
H93 C90 0.931 . S
H94 C70 0.930 . S
H95 C67 0.930 . S
H96 C76 0.930 . S
H97 C88 0.929 . S
H98 C91 0.930 . S
C99 C100 1.351 . S
C99 N102 1.368 . S
C99 H104 0.931 . S
C100 C99 1.351 . S
C100 N101 1.373 . S
C100 H128 0.930 . S
N101 C100 1.373 . S
N101 C103 1.340 . S
N102 C99 1.368 . S
N102 C103 1.321 . S
N102 Co105 2.135 1_556 S
C103 N101 1.340 . S
C103 N102 1.321 . S
C103 H127 0.930 . S
H104 C99 0.931 . S
Co105 N102 2.135 1_554 S
Co105 N108 2.121 . S
Co105 O113 2.055 . S
Co105 O116 2.039 1_554 S
Co105 N119 2.140 1_554 S
C106 O107 1.227 . S
C106 O116 1.265 . S
O107 C106 1.227 . S
N108 Co105 2.121 . S
N108 C110 1.375 . S
N108 C111 1.313 . S
C109 C110 1.338 . S
C109 N112 1.377 . S
C109 H129 0.930 . S
C110 N108 1.375 . S
C110 C109 1.338 . S
C110 H114 0.931 . S
C111 N108 1.313 . S
C111 N112 1.344 . S
C111 H115 0.930 . S
N112 C109 1.377 . S
N112 C111 1.344 . S
O113 Co105 2.055 . S
O113 C117 1.253 . S
H114 C110 0.931 . S
H115 C111 0.930 . S
O116 Co105 2.039 1_556 S
O116 C106 1.265 . S
C117 O113 1.253 . S
C117 O118 1.227 . S
O118 C117 1.227 . S
N119 Co105 2.140 1_556 S
N119 C122 1.349 . S
N119 C123 1.342 1_556 S
C120 C121 1.387 . S
C120 C124 1.391 1_556 S
C121 C120 1.387 . S
C121 C122 1.369 . S
C121 H130 0.929 . S
C122 N119 1.349 . S
C122 C121 1.369 . S
C122 H125 0.928 . S
C123 N119 1.342 1_554 S
C123 C124 1.371 . S
C123 H126 0.931 . S
C124 C120 1.391 1_554 S
C124 C123 1.371 . S
C124 H131 0.930 . S
H125 C122 0.928 . S
H126 C123 0.931 . S
H127 C103 0.930 . S
H128 C100 0.930 . S
H129 C109 0.930 . S
H130 C121 0.929 . S
H131 C124 0.930 . S
C132 C133 1.351 . S
C132 N135 1.368 . S
C132 H137 0.931 . S
C133 C132 1.351 . S
C133 N134 1.373 . S
C133 H161 0.930 . S
N134 C133 1.373 . S
N134 C136 1.340 . S
N135 C132 1.368 . S
N135 C136 1.321 . S
N135 Co138 2.135 1_556 S
C136 N134 1.340 . S
C136 N135 1.321 . S
C136 H160 0.930 . S
H137 C132 0.931 . S
Co138 N135 2.135 1_554 S
Co138 N141 2.121 . S
Co138 O146 2.055 . S
Co138 O149 2.039 1_554 S
Co138 N152 2.140 1_554 S
C139 O140 1.227 . S
C139 O149 1.265 . S
O140 C139 1.227 . S
N141 Co138 2.121 . S
N141 C143 1.375 . S
N141 C144 1.313 . S
C142 C143 1.338 . S
C142 N145 1.377 . S
C142 H162 0.930 . S
C143 N141 1.375 . S
C143 C142 1.338 . S
C143 H147 0.931 . S
C144 N141 1.313 . S
C144 N145 1.344 . S
C144 H148 0.930 . S
N145 C142 1.377 . S
N145 C144 1.344 . S
O146 Co138 2.055 . S
O146 C150 1.253 . S
H147 C143 0.931 . S
H148 C144 0.930 . S
O149 Co138 2.039 1_556 S
O149 C139 1.265 . S
C150 O146 1.253 . S
C150 O151 1.227 . S
O151 C150 1.227 . S
N152 Co138 2.140 1_556 S
N152 C155 1.348 . S
N152 C156 1.343 1_556 S
C153 C154 1.387 . S
C153 C157 1.391 1_556 S
C154 C153 1.387 . S
C154 C155 1.369 . S
C154 H163 0.929 . S
C155 N152 1.348 . S
C155 C154 1.369 . S
C155 H158 0.928 . S
C156 N152 1.343 1_554 S
C156 C157 1.371 . S
C156 H159 0.931 . S
C157 C153 1.391 1_554 S
C157 C156 1.371 . S
C157 H164 0.930 . S
H158 C155 0.928 . S
H159 C156 0.931 . S
H160 C136 0.930 . S
H161 C133 0.930 . S
H162 C142 0.930 . S
H163 C154 0.929 . S
H164 C157 0.930 . S
C165 C166 1.351 . S
C165 N168 1.368 . S
C165 H170 0.931 . S
C166 C165 1.351 . S
C166 N167 1.373 . S
C166 H194 0.930 . S
N167 C166 1.373 . S
N167 C169 1.340 . S
N168 C165 1.368 . S
N168 C169 1.321 . S
N168 Co171 2.135 1_556 S
C169 N167 1.340 . S
C169 N168 1.321 . S
C169 H193 0.930 . S
H170 C165 0.931 . S
Co171 N168 2.135 1_554 S
Co171 N174 2.121 . S
Co171 O179 2.055 . S
Co171 O182 2.039 1_554 S
Co171 N185 2.140 1_554 S
C172 O173 1.227 . S
C172 O182 1.265 . S
O173 C172 1.227 . S
N174 Co171 2.121 . S
N174 C176 1.375 . S
N174 C177 1.313 . S
C175 C176 1.338 . S
C175 N178 1.377 . S
C175 H195 0.930 . S
C176 N174 1.375 . S
C176 C175 1.338 . S
C176 H180 0.931 . S
C177 N174 1.313 . S
C177 N178 1.344 . S
C177 H181 0.930 . S
N178 C175 1.377 . S
N178 C177 1.344 . S
O179 Co171 2.055 . S
O179 C183 1.253 . S
H180 C176 0.931 . S
H181 C177 0.930 . S
O182 Co171 2.039 1_556 S
O182 C172 1.265 . S
C183 O179 1.253 . S
C183 O184 1.227 . S
O184 C183 1.227 . S
N185 Co171 2.140 1_556 S
N185 C188 1.348 . S
N185 C189 1.343 1_556 S
C186 C187 1.387 . S
C186 C190 1.391 1_556 S
C187 C186 1.387 . S
C187 C188 1.369 . S
C187 H196 0.929 . S
C188 N185 1.348 . S
C188 C187 1.369 . S
C188 H191 0.928 . S
C189 N185 1.343 1_554 S
C189 C190 1.371 . S
C189 H192 0.931 . S
C190 C186 1.391 1_554 S
C190 C189 1.371 . S
C190 H197 0.930 . S
H191 C188 0.928 . S
H192 C189 0.931 . S
H193 C169 0.930 . S
H194 C166 0.930 . S
H195 C175 0.930 . S
H196 C187 0.929 . S
H197 C190 0.930 . S
C198 C199 1.351 . S
C198 N201 1.368 . S
C198 H203 0.931 . S
C199 C198 1.351 . S
C199 N200 1.373 . S
C199 H227 0.930 . S
N200 C199 1.373 . S
N200 C202 1.340 . S
N201 C198 1.368 . S
N201 C202 1.321 . S
N201 Co204 2.135 . S
C202 N200 1.340 . S
C202 N201 1.321 . S
C202 H226 0.930 . S
H203 C198 0.931 . S
Co204 N201 2.135 . S
Co204 N207 2.121 1_554 S
Co204 O212 2.055 1_554 S
Co204 O215 2.039 . S
Co204 N218 2.140 . S
C205 O206 1.227 . S
C205 O215 1.265 . S
O206 C205 1.227 . S
N207 Co204 2.121 1_556 S
N207 C209 1.375 . S
N207 C210 1.313 . S
C208 C209 1.338 . S
C208 N211 1.377 . S
C208 H228 0.930 . S
C209 N207 1.375 . S
C209 C208 1.338 . S
C209 H213 0.931 . S
C210 N207 1.313 . S
C210 N211 1.344 . S
C210 H214 0.930 . S
N211 C208 1.377 . S
N211 C210 1.344 . S
O212 Co204 2.055 1_556 S
O212 C216 1.253 . S
H213 C209 0.931 . S
H214 C210 0.930 . S
O215 Co204 2.039 . S
O215 C205 1.265 . S
C216 O212 1.253 . S
C216 O217 1.227 . S
O217 C216 1.227 . S
N218 Co204 2.140 . S
N218 C221 1.346 . S
N218 C222 1.345 1_554 S
C219 C220 1.387 . S
C219 C223 1.391 1_554 S
C220 C219 1.387 . S
C220 C221 1.369 . S
C220 H229 0.929 . S
C221 N218 1.346 . S
C221 C220 1.369 . S
C221 H224 0.928 . S
C222 N218 1.345 1_556 S
C222 C223 1.371 . S
C222 H225 0.931 . S
C223 C219 1.391 1_556 S
C223 C222 1.371 . S
C223 H230 0.930 . S
H224 C221 0.928 . S
H225 C222 0.931 . S
H226 C202 0.930 . S
H227 C199 0.930 . S
H228 C208 0.930 . S
H229 C220 0.929 . S
H230 C223 0.930 . S
C231 C232 1.351 . S
C231 N234 1.368 . S
C231 H236 0.931 . S
C232 C231 1.351 . S
C232 N233 1.373 . S
C232 H260 0.930 . S
N233 C232 1.373 . S
N233 C235 1.340 . S
N234 C231 1.368 . S
N234 C235 1.321 . S
N234 Co237 2.135 . S
C235 N233 1.340 . S
C235 N234 1.321 . S
C235 H259 0.930 . S
H236 C231 0.931 . S
Co237 N234 2.135 . S
Co237 N240 2.121 1_554 S
Co237 O245 2.055 1_554 S
Co237 O248 2.039 . S
Co237 N251 2.140 . S
C238 O239 1.227 . S
C238 O248 1.265 . S
O239 C238 1.227 . S
N240 Co237 2.121 1_556 S
N240 C242 1.375 . S
N240 C243 1.313 . S
C241 C242 1.338 . S
C241 N244 1.377 . S
C241 H261 0.930 . S
C242 N240 1.375 . S
C242 C241 1.338 . S
C242 H246 0.931 . S
C243 N240 1.313 . S
C243 N244 1.344 . S
C243 H247 0.930 . S
N244 C241 1.377 . S
N244 C243 1.344 . S
O245 Co237 2.055 1_556 S
O245 C249 1.253 . S
H246 C242 0.931 . S
H247 C243 0.930 . S
O248 Co237 2.039 . S
O248 C238 1.265 . S
C249 O245 1.253 . S
C249 O250 1.227 . S
O250 C249 1.227 . S
N251 Co237 2.140 . S
N251 C254 1.346 . S
N251 C255 1.345 1_554 S
C252 C253 1.387 . S
C252 C256 1.391 1_554 S
C253 C252 1.387 . S
C253 C254 1.369 . S
C253 H262 0.929 . S
C254 N251 1.346 . S
C254 C253 1.369 . S
C254 H257 0.928 . S
C255 N251 1.345 1_556 S
C255 C256 1.371 . S
C255 H258 0.931 . S
C256 C252 1.391 1_556 S
C256 C255 1.371 . S
C256 H263 0.930 . S
H257 C254 0.928 . S
H258 C255 0.931 . S
H259 C235 0.930 . S
H260 C232 0.930 . S
H261 C241 0.930 . S
H262 C253 0.929 . S
H263 C256 0.930 . S
C264 C265 1.351 . S
C264 N267 1.368 . S
C264 H269 0.931 . S
C265 C264 1.351 . S
C265 N266 1.373 . S
C265 H293 0.930 . S
N266 C265 1.373 . S
N266 C268 1.340 . S
N267 C264 1.368 . S
N267 C268 1.321 . S
N267 Co270 2.135 . S
C268 N266 1.340 . S
C268 N267 1.321 . S
C268 H292 0.930 . S
H269 C264 0.931 . S
Co270 N267 2.135 . S
Co270 N273 2.121 1_554 S
Co270 O278 2.055 1_554 S
Co270 O281 2.039 . S
Co270 N284 2.140 . S
C271 O272 1.227 . S
C271 O281 1.265 . S
O272 C271 1.227 . S
N273 Co270 2.121 1_556 S
N273 C275 1.375 . S
N273 C276 1.313 . S
C274 C275 1.338 . S
C274 N277 1.377 . S
C274 H294 0.930 . S
C275 N273 1.375 . S
C275 C274 1.338 . S
C275 H279 0.931 . S
C276 N273 1.313 . S
C276 N277 1.344 . S
C276 H280 0.930 . S
N277 C274 1.377 . S
N277 C276 1.344 . S
O278 Co270 2.055 1_556 S
O278 C282 1.253 . S
H279 C275 0.931 . S
H280 C276 0.930 . S
O281 Co270 2.039 . S
O281 C271 1.265 . S
C282 O278 1.253 . S
C282 O283 1.227 . S
O283 C282 1.227 . S
N284 Co270 2.140 . S
N284 C287 1.346 . S
N284 C288 1.345 1_554 S
C285 C286 1.387 . S
C285 C289 1.391 1_554 S
C286 C285 1.387 . S
C286 C287 1.369 . S
C286 H295 0.929 . S
C287 N284 1.346 . S
C287 C286 1.369 . S
C287 H290 0.928 . S
C288 N284 1.345 1_556 S
C288 C289 1.371 . S
C288 H291 0.931 . S
C289 C285 1.391 1_556 S
C289 C288 1.371 . S
C289 H296 0.930 . S
H290 C287 0.928 . S
H291 C288 0.931 . S
H292 C268 0.930 . S
H293 C265 0.930 . S
H294 C274 0.930 . S
H295 C286 0.929 . S
H296 C289 0.930 . S
C297 C298 1.351 . S
C297 N300 1.368 . S
C297 H302 0.931 . S
C298 C297 1.351 . S
C298 N299 1.373 . S
C298 H326 0.930 . S
N299 C298 1.373 . S
N299 C301 1.340 . S
N300 C297 1.368 . S
N300 C301 1.321 . S
N300 Co303 2.135 . S
C301 N299 1.340 . S
C301 N300 1.321 . S
C301 H325 0.930 . S
H302 C297 0.931 . S
Co303 N300 2.135 . S
Co303 N306 2.121 1_554 S
Co303 O311 2.055 1_554 S
Co303 O314 2.039 . S
Co303 N317 2.140 . S
C304 O305 1.227 . S
C304 O314 1.265 . S
O305 C304 1.227 . S
N306 Co303 2.121 1_556 S
N306 C308 1.375 . S
N306 C309 1.313 . S
C307 C308 1.338 . S
C307 N310 1.377 . S
C307 H327 0.930 . S
C308 N306 1.375 . S
C308 C307 1.338 . S
C308 H312 0.931 . S
C309 N306 1.313 . S
C309 N310 1.344 . S
C309 H313 0.930 . S
N310 C307 1.377 . S
N310 C309 1.344 . S
O311 Co303 2.055 1_556 S
O311 C315 1.253 . S
H312 C308 0.931 . S
H313 C309 0.930 . S
O314 Co303 2.039 . S
O314 C304 1.265 . S
C315 O311 1.253 . S
C315 O316 1.227 . S
O316 C315 1.227 . S
N317 Co303 2.140 . S
N317 C320 1.346 . S
N317 C321 1.345 1_554 S
C318 C319 1.387 . S
C318 C322 1.391 1_554 S
C319 C318 1.387 . S
C319 C320 1.369 . S
C319 H328 0.929 . S
C320 N317 1.346 . S
C320 C319 1.369 . S
C320 H323 0.928 . S
C321 N317 1.345 1_556 S
C321 C322 1.371 . S
C321 H324 0.931 . S
C322 C318 1.391 1_556 S
C322 C321 1.371 . S
C322 H329 0.930 . S
H323 C320 0.928 . S
H324 C321 0.931 . S
H325 C301 0.930 . S
H326 C298 0.930 . S
H327 C307 0.930 . S
H328 C319 0.929 . S
H329 C322 0.930 . S
C330 C331 1.351 . S
C330 N333 1.368 . S
C330 H335 0.931 . S
C331 C330 1.351 . S
C331 N332 1.373 . S
C331 H359 0.930 . S
N332 C331 1.373 . S
N332 C334 1.340 . S
N333 C330 1.368 . S
N333 C334 1.321 . S
N333 Co336 2.135 . S
C334 N332 1.340 . S
C334 N333 1.321 . S
C334 H358 0.930 . S
H335 C330 0.931 . S
Co336 N333 2.135 . S
Co336 N339 2.121 1_554 S
Co336 O344 2.055 1_554 S
Co336 O347 2.039 . S
Co336 N350 2.140 . S
C337 O338 1.227 . S
C337 O347 1.265 . S
O338 C337 1.227 . S
N339 Co336 2.121 1_556 S
N339 C341 1.375 . S
N339 C342 1.313 . S
C340 C341 1.338 . S
C340 N343 1.377 . S
C340 H360 0.930 . S
C341 N339 1.375 . S
C341 C340 1.338 . S
C341 H345 0.931 . S
C342 N339 1.313 . S
C342 N343 1.344 . S
C342 H346 0.930 . S
N343 C340 1.377 . S
N343 C342 1.344 . S
O344 Co336 2.055 1_556 S
O344 C348 1.253 . S
H345 C341 0.931 . S
H346 C342 0.930 . S
O347 Co336 2.039 . S
O347 C337 1.265 . S
C348 O344 1.253 . S
C348 O349 1.227 . S
O349 C348 1.227 . S
N350 Co336 2.140 . S
N350 C353 1.346 . S
N350 C354 1.345 1_554 S
C351 C352 1.387 . S
C351 C355 1.391 1_554 S
C352 C351 1.387 . S
C352 C353 1.369 . S
C352 H361 0.929 . S
C353 N350 1.346 . S
C353 C352 1.369 . S
C353 H356 0.928 . S
C354 N350 1.345 1_556 S
C354 C355 1.371 . S
C354 H357 0.931 . S
C355 C351 1.391 1_556 S
C355 C354 1.371 . S
C355 H362 0.930 . S
H356 C353 0.928 . S
H357 C354 0.931 . S
H358 C334 0.930 . S
H359 C331 0.930 . S
H360 C340 0.930 . S
H361 C352 0.929 . S
H362 C355 0.930 . S
C363 C364 1.351 . S
C363 N366 1.368 . S
C363 H368 0.931 . S
C364 C363 1.351 . S
C364 N365 1.373 . S
C364 H392 0.930 . S
N365 C364 1.373 . S
N365 C367 1.340 . S
N366 C363 1.368 . S
N366 C367 1.321 . S
N366 Co369 2.135 . S
C367 N365 1.340 . S
C367 N366 1.321 . S
C367 H391 0.930 . S
H368 C363 0.931 . S
Co369 N366 2.135 . S
Co369 N372 2.121 1_554 S
Co369 O377 2.055 1_554 S
Co369 O380 2.039 . S
Co369 N383 2.140 . S
C370 O371 1.227 . S
C370 O380 1.265 . S
O371 C370 1.227 . S
N372 Co369 2.121 1_556 S
N372 C374 1.375 . S
N372 C375 1.313 . S
C373 C374 1.338 . S
C373 N376 1.377 . S
C373 H393 0.930 . S
C374 N372 1.375 . S
C374 C373 1.338 . S
C374 H378 0.931 . S
C375 N372 1.313 . S
C375 N376 1.344 . S
C375 H379 0.930 . S
N376 C373 1.377 . S
N376 C375 1.344 . S
O377 Co369 2.055 1_556 S
O377 C381 1.253 . S
H378 C374 0.931 . S
H379 C375 0.930 . S
O380 Co369 2.039 . S
O380 C370 1.265 . S
C381 O377 1.253 . S
C381 O382 1.227 . S
O382 C381 1.227 . S
N383 Co369 2.140 . S
N383 C386 1.346 . S
N383 C387 1.345 1_554 S
C384 C385 1.387 . S
C384 C388 1.391 1_554 S
C385 C384 1.387 . S
C385 C386 1.369 . S
C385 H394 0.929 . S
C386 N383 1.346 . S
C386 C385 1.369 . S
C386 H389 0.928 . S
C387 N383 1.345 1_556 S
C387 C388 1.371 . S
C387 H390 0.931 . S
C388 C384 1.391 1_556 S
C388 C387 1.371 . S
C388 H395 0.930 . S
H389 C386 0.928 . S
H390 C387 0.931 . S
H391 C367 0.930 . S
H392 C364 0.930 . S
H393 C373 0.930 . S
H394 C385 0.929 . S
H395 C388 0.930 . S
H396 C404 0.929 . S
H397 C406 0.930 . S
H398 C408 0.930 . S
H399 C411 0.929 . S
H400 C414 0.930 . S
H401 C416 0.960 . S
H402 C416 0.960 . S
H403 C416 0.960 . S
C404 H396 0.929 . S
C404 C405 1.377 . S
C404 C406 1.384 . S
C405 C404 1.377 . S
C405 C411 1.390 1_554 S
C406 H397 0.930 . S
C406 C404 1.384 . S
C406 C407 1.372 . S
C407 C406 1.372 . S
C407 C408 1.400 1_554 S
C407 C412 1.490 . S
C408 H398 0.930 . S
C408 C407 1.400 1_556 S
C408 C411 1.386 . S
H409 C425 0.930 . S
H410 C426 0.931 1_556 S
C411 H399 0.929 . S
C411 C405 1.390 1_556 S
C411 C408 1.386 . S
C412 C407 1.490 . S
C412 C414 1.395 . S
C412 C415 1.403 1_554 S
H413 C419 0.930 . S
C414 H400 0.930 . S
C414 C412 1.395 . S
C414 C417 1.403 . S
C415 C412 1.403 1_556 S
C415 C416 1.524 . S
C415 C419 1.400 . S
C416 H401 0.960 . S
C416 H402 0.960 . S
C416 H403 0.960 . S
C416 C415 1.524 . S
C417 C414 1.403 . S
C417 C418 1.392 . S
C417 C421 1.495 . S
C418 C417 1.392 . S
C418 C419 1.385 1_554 S
C418 C420 1.478 . S
C419 H413 0.930 . S
C419 C415 1.400 . S
C419 C418 1.385 1_556 S
C420 C418 1.478 . S
C420 C422 1.381 . S
C420 C426 1.383 . S
C421 C417 1.495 . S
C421 H427 0.959 . S
C421 H428 0.961 . S
C421 H429 0.960 . S
C422 C420 1.381 . S
C422 C423 1.394 . S
C422 H430 0.930 . S
C423 C422 1.394 . S
C423 C424 1.383 . S
C423 H431 0.929 . S
C424 C423 1.383 . S
C424 C425 1.377 1_554 S
C425 H409 0.930 . S
C425 C424 1.377 1_556 S
C425 C426 1.379 1_556 S
C426 H410 0.931 1_554 S
C426 C420 1.383 . S
C426 C425 1.379 1_554 S
H427 C421 0.959 . S
H428 C421 0.961 . S
H429 C421 0.960 . S
H430 C422 0.930 . S
H431 C423 0.929 . S
H432 C440 0.929 . S
H433 C442 0.930 . S
H434 C444 0.930 . S
H435 C447 0.929 . S
H436 C450 0.930 . S
H437 C452 0.960 . S
H438 C452 0.960 . S
H439 C452 0.960 . S
C440 H432 0.929 . S
C440 C441 1.377 1_554 S
C440 C442 1.384 . S
C441 C440 1.377 1_556 S
C441 C447 1.390 . S
C442 H433 0.930 . S
C442 C440 1.384 . S
C442 C443 1.373 . S
C443 C442 1.373 . S
C443 C444 1.399 1_554 S
C443 C448 1.490 1_554 S
C444 H434 0.930 . S
C444 C443 1.399 1_556 S
C444 C447 1.386 . S
H445 C461 0.930 . S
H446 C462 0.931 . S
C447 H435 0.929 . S
C447 C441 1.390 . S
C447 C444 1.386 . S
C448 C443 1.490 1_556 S
C448 C450 1.398 . S
C448 C451 1.399 1_556 S
H449 C455 0.930 . S
C450 H436 0.930 . S
C450 C448 1.398 . S
C450 C453 1.403 . S
C451 C448 1.399 1_554 S
C451 C452 1.524 . S
C451 C455 1.400 . S
C452 H437 0.960 . S
C452 H438 0.960 . S
C452 H439 0.960 . S
C452 C451 1.524 . S
C453 C450 1.403 . S
C453 C454 1.392 . S
C453 C457 1.495 . S
C454 C453 1.392 . S
C454 C455 1.385 1_556 S
C454 C456 1.478 . S
C455 H449 0.930 . S
C455 C451 1.400 . S
C455 C454 1.385 1_554 S
C456 C454 1.478 . S
C456 C458 1.381 1_556 S
C456 C462 1.383 . S
C457 C453 1.495 . S
C457 H463 0.959 . S
C457 H464 0.961 . S
C457 H465 0.960 . S
C458 C456 1.381 1_554 S
C458 C459 1.394 . S
C458 H466 0.930 . S
C459 C458 1.394 . S
C459 C460 1.383 . S
C459 H467 0.929 . S
C460 C459 1.383 . S
C460 C461 1.377 1_554 S
C461 H445 0.930 . S
C461 C460 1.377 1_556 S
C461 C462 1.379 . S
C462 H446 0.931 . S
C462 C456 1.383 . S
C462 C461 1.379 . S
H463 C457 0.959 . S
H464 C457 0.961 . S
H465 C457 0.960 . S
H466 C458 0.930 . S
H467 C459 0.929 . S
H468 C476 0.929 . S
H469 C478 0.930 . S
H470 C480 0.930 . S
H471 C483 0.929 . S
H472 C486 0.930 . S
H473 C488 0.960 . S
H474 C488 0.960 . S
H475 C488 0.960 . S
C476 H468 0.929 . S
C476 C477 1.377 1_556 S
C476 C478 1.384 . S
C477 C476 1.377 1_554 S
C477 C483 1.390 . S
C478 H469 0.930 . S
C478 C476 1.384 . S
C478 C479 1.369 1_556 S
C479 C478 1.369 1_554 S
C479 C480 1.402 . S
C479 C484 1.490 . S
C480 H470 0.930 . S
C480 C479 1.402 . S
C480 C483 1.386 . S
H481 C497 0.930 . S
H482 C498 0.931 . S
C483 H471 0.929 . S
C483 C477 1.390 . S
C483 C480 1.386 . S
C484 C479 1.490 . S
C484 C486 1.400 . S
C484 C487 1.398 1_554 S
H485 C491 0.930 . S
C486 H472 0.930 . S
C486 C484 1.400 . S
C486 C489 1.403 . S
C487 C484 1.398 1_556 S
C487 C488 1.524 . S
C487 C491 1.400 . S
C488 H473 0.960 . S
C488 H474 0.960 . S
C488 H475 0.960 . S
C488 C487 1.524 . S
C489 C486 1.403 . S
C489 C490 1.392 . S
C489 C493 1.495 . S
C490 C489 1.392 . S
C490 C491 1.385 1_554 S
C490 C492 1.478 . S
C491 H485 0.930 . S
C491 C487 1.400 . S
C491 C490 1.385 1_556 S
C492 C490 1.478 . S
C492 C494 1.381 1_554 S
C492 C498 1.383 . S
C493 C489 1.495 . S
C493 H499 0.959 . S
C493 H500 0.961 . S
C493 H501 0.960 . S
C494 C492 1.381 1_556 S
C494 C495 1.394 . S
C494 H502 0.930 . S
C495 C494 1.394 . S
C495 C496 1.383 1_556 S
C495 H503 0.929 . S
C496 C495 1.383 1_554 S
C496 C497 1.377 . S
C497 H481 0.930 . S
C497 C496 1.377 . S
C497 C498 1.379 . S
C498 H482 0.931 . S
C498 C492 1.383 . S
C498 C497 1.379 . S
H499 C493 0.959 . S
H500 C493 0.961 . S
H501 C493 0.960 . S
H502 C494 0.930 . S
H503 C495 0.929 . S
H504 C512 0.929 . S
H505 C514 0.930 . S
H506 C516 0.930 . S
H507 C519 0.929 . S
H508 C522 0.930 . S
H509 C524 0.960 . S
H510 C524 0.960 1_556 S
H511 C524 0.960 . S
C512 H504 0.929 . S
C512 C513 1.377 1_556 S
C512 C514 1.384 . S
C513 C512 1.377 1_554 S
C513 C519 1.390 . S
C514 H505 0.930 . S
C514 C512 1.384 . S
C514 C515 1.383 . S
C515 C514 1.383 . S
C515 C516 1.389 1_556 S
C515 C520 1.490 . S
C516 H506 0.930 . S
C516 C515 1.389 1_554 S
C516 C519 1.386 . S
H517 C533 0.930 . S
H518 C534 0.931 . S
C519 H507 0.929 . S
C519 C513 1.390 . S
C519 C516 1.386 . S
C520 C515 1.490 . S
C520 C522 1.395 . S
C520 C523 1.403 1_556 S
H521 C527 0.930 . S
C522 H508 0.930 . S
C522 C520 1.395 . S
C522 C525 1.403 . S
C523 C520 1.403 1_554 S
C523 C524 1.524 . S
C523 C527 1.400 . S
C524 H509 0.960 . S
C524 H510 0.960 1_554 S
C524 H511 0.960 . S
C524 C523 1.524 . S
C525 C522 1.403 . S
C525 C526 1.392 . S
C525 C529 1.495 . S
C526 C525 1.392 . S
C526 C527 1.385 1_556 S
C526 C528 1.478 . S
C527 H521 0.930 . S
C527 C523 1.400 . S
C527 C526 1.385 1_554 S
C528 C526 1.478 . S
C528 C530 1.381 . S
C528 C534 1.383 1_556 S
C529 C525 1.495 . S
C529 H535 0.959 . S
C529 H536 0.961 . S
C529 H537 0.960 . S
C530 C528 1.381 . S
C530 C531 1.394 . S
C530 H538 0.930 . S
C531 C530 1.394 . S
C531 C532 1.383 . S
C531 H539 0.929 . S
C532 C531 1.383 . S
C532 C533 1.377 1_556 S
C533 H517 0.930 . S
C533 C532 1.377 1_554 S
C533 C534 1.379 . S
C534 H518 0.931 . S
C534 C528 1.383 1_554 S
C534 C533 1.379 . S
H535 C529 0.959 . S
H536 C529 0.961 . S
H537 C529 0.960 . S
H538 C530 0.930 . S
H539 C531 0.929 . S
H540 C548 0.929 . S
H541 C550 0.930 . S
H542 C552 0.930 . S
H543 C555 0.929 . S
H544 C558 0.930 . S
H545 C560 0.960 . S
H546 C560 0.960 . S
H547 C560 0.960 . S
C548 H540 0.929 . S
C548 C549 1.374 1_554 S
C548 C550 1.384 . S
C549 C548 1.374 1_556 S
C549 C555 1.393 . S
C550 H541 0.930 . S
C550 C548 1.384 . S
C550 C551 1.372 . S
C551 C550 1.372 . S
C551 C552 1.400 1_554 S
C551 C556 1.490 . S
C552 H542 0.930 . S
C552 C551 1.400 1_556 S
C552 C555 1.386 . S
H553 C569 0.930 . S
H554 C570 0.931 . S
C555 H543 0.929 . S
C555 C549 1.393 . S
C555 C552 1.386 . S
C556 C551 1.490 . S
C556 C558 1.395 1_554 S
C556 C559 1.403 . S
H557 C563 0.930 . S
C558 H544 0.930 . S
C558 C556 1.395 1_556 S
C558 C561 1.403 . S
C559 C556 1.403 . S
C559 C560 1.524 . S
C559 C563 1.400 . S
C560 H545 0.960 . S
C560 H546 0.960 . S
C560 H547 0.960 . S
C560 C559 1.524 . S
C561 C558 1.403 . S
C561 C562 1.399 . S
C561 C565 1.495 . S
C562 C561 1.399 . S
C562 C563 1.379 1_556 S
C562 C564 1.478 . S
C563 H557 0.930 . S
C563 C559 1.400 . S
C563 C562 1.379 1_554 S
C564 C562 1.478 . S
C564 C566 1.381 1_556 S
C564 C570 1.383 . S
C565 C561 1.495 . S
C565 H571 0.959 . S
C565 H572 0.961 . S
C565 H573 0.960 . S
C566 C564 1.381 1_554 S
C566 C567 1.394 . S
C566 H574 0.930 . S
C567 C566 1.394 . S
C567 C568 1.383 . S
C567 H575 0.929 . S
C568 C567 1.383 . S
C568 C569 1.377 1_554 S
C569 H553 0.930 . S
C569 C568 1.377 1_556 S
C569 C570 1.379 . S
C570 H554 0.931 . S
C570 C564 1.383 . S
C570 C569 1.379 . S
H571 C565 0.959 . S
H572 C565 0.961 . S
H573 C565 0.960 . S
H574 C566 0.930 . S
H575 C567 0.929 . S
H576 C584 0.929 . S
H577 C586 0.930 . S
H578 C588 0.930 . S
H579 C591 0.929 . S
H580 C594 0.930 . S
H581 C596 0.960 . S
H582 C596 0.960 . S
H583 C596 0.960 1_556 S
C584 H576 0.929 . S
C584 C585 1.377 . S
C584 C586 1.384 . S
C585 C584 1.377 . S
C585 C591 1.390 1_554 S
C586 H577 0.930 . S
C586 C584 1.384 . S
C586 C587 1.372 . S
C587 C586 1.372 . S
C587 C588 1.400 1_554 S
C587 C592 1.490 . S
C588 H578 0.930 . S
C588 C587 1.400 1_556 S
C588 C591 1.386 . S
H589 C605 0.930 . S
H590 C606 0.931 . S
C591 H579 0.929 . S
C591 C585 1.390 1_556 S
C591 C588 1.386 . S
C592 C587 1.490 . S
C592 C594 1.395 1_554 S
C592 C595 1.403 . S
H593 C599 0.930 . S
C594 H580 0.930 . S
C594 C592 1.395 1_556 S
C594 C597 1.403 . S
C595 C592 1.403 . S
C595 C596 1.524 . S
C595 C599 1.400 . S
C596 H581 0.960 . S
C596 H582 0.960 . S
C596 H583 0.960 1_554 S
C596 C595 1.524 . S
C597 C594 1.403 . S
C597 C598 1.391 1_556 S
C597 C601 1.495 . S
C598 C597 1.391 1_554 S
C598 C599 1.388 . S
C598 C600 1.477 1_554 S
C599 H593 0.930 . S
C599 C595 1.400 . S
C599 C598 1.388 . S
C600 C598 1.477 1_556 S
C600 C602 1.381 1_556 S
C600 C606 1.383 . S
C601 C597 1.495 . S
C601 H607 0.959 . S
C601 H608 0.961 . S
C601 H609 0.960 1_556 S
C602 C600 1.381 1_554 S
C602 C603 1.394 . S
C602 H610 0.930 . S
C603 C602 1.394 . S
C603 C604 1.383 1_554 S
C603 H611 0.929 . S
C604 C603 1.383 1_556 S
C604 C605 1.377 . S
C605 H589 0.930 . S
C605 C604 1.377 . S
C605 C606 1.379 . S
C606 H590 0.931 . S
C606 C600 1.383 . S
C606 C605 1.379 . S
H607 C601 0.959 . S
H608 C601 0.961 . S
H609 C601 0.960 1_554 S
H610 C602 0.930 . S
H611 C603 0.929 . S
H612 C620 0.929 . S
H613 C622 0.930 . S
H614 C624 0.930 . S
H615 C627 0.929 . S
H616 C630 0.930 . S
H617 C632 0.960 . S
H618 C632 0.960 . S
H619 C632 0.960 . S
C620 H612 0.929 . S
C620 C621 1.377 . S
C620 C622 1.384 . S
C621 C620 1.377 . S
C621 C627 1.390 1_556 S
C622 H613 0.930 . S
C622 C620 1.384 . S
C622 C623 1.372 . S
C623 C622 1.372 . S
C623 C624 1.400 1_556 S
C623 C628 1.490 . S
C624 H614 0.930 . S
C624 C623 1.400 1_554 S
C624 C627 1.386 . S
H625 C641 0.930 . S
H626 C642 0.931 . S
C627 H615 0.929 . S
C627 C621 1.390 1_554 S
C627 C624 1.386 . S
C628 C623 1.490 . S
C628 C630 1.395 . S
C628 C631 1.403 1_556 S
H629 C635 0.930 . S
C630 H616 0.930 . S
C630 C628 1.395 . S
C630 C633 1.403 . S
C631 C628 1.403 1_554 S
C631 C632 1.524 . S
C631 C635 1.400 . S
C632 H617 0.960 . S
C632 H618 0.960 . S
C632 H619 0.960 . S
C632 C631 1.524 . S
C633 C630 1.403 . S
C633 C634 1.392 . S
C633 C637 1.495 . S
C634 C633 1.392 . S
C634 C635 1.385 1_556 S
C634 C636 1.478 . S
C635 H629 0.930 . S
C635 C631 1.400 . S
C635 C634 1.385 1_554 S
C636 C634 1.478 . S
C636 C638 1.381 . S
C636 C642 1.383 1_556 S
C637 C633 1.495 . S
C637 H643 0.959 . S
C637 H644 0.961 . S
C637 H645 0.960 . S
C638 C636 1.381 . S
C638 C639 1.394 . S
C638 H646 0.930 . S
C639 C638 1.394 . S
C639 C640 1.383 1_556 S
C639 H647 0.929 . S
C640 C639 1.383 1_554 S
C640 C641 1.377 . S
C641 H625 0.930 . S
C641 C640 1.377 . S
C641 C642 1.379 . S
C642 H626 0.931 . S
C642 C636 1.383 1_554 S
C642 C641 1.379 . S
H643 C637 0.959 . S
H644 C637 0.961 . S
H645 C637 0.960 . S
H646 C638 0.930 . S
H647 C639 0.929 . S
H648 C656 0.929 . S
H649 C658 0.930 1_554 S
H650 C660 0.930 . S
H651 C663 0.929 . S
H652 C666 0.930 . S
H653 C668 0.960 . S
H654 C668 0.960 . S
H655 C668 0.960 . S
C656 H648 0.929 . S
C656 C657 1.377 . S
C656 C658 1.384 . S
C657 C656 1.377 . S
C657 C663 1.390 . S
C658 H649 0.930 1_556 S
C658 C656 1.384 . S
C658 C659 1.372 . S
C659 C658 1.372 . S
C659 C660 1.400 . S
C659 C664 1.490 . S
C660 H650 0.930 . S
C660 C659 1.400 . S
C660 C663 1.386 . S
H661 C677 0.930 . S
H662 C678 0.931 . S
C663 H651 0.929 . S
C663 C657 1.390 . S
C663 C660 1.386 . S
C664 C659 1.490 . S
C664 C666 1.395 . S
C664 C667 1.403 1_556 S
H665 C671 0.930 . S
C666 H652 0.930 . S
C666 C664 1.395 . S
C666 C669 1.403 . S
C667 C664 1.403 1_554 S
C667 C668 1.524 . S
C667 C671 1.400 . S
C668 H653 0.960 . S
C668 H654 0.960 . S
C668 H655 0.960 . S
C668 C667 1.524 . S
C669 C666 1.403 . S
C669 C670 1.392 . S
C669 C673 1.495 . S
C670 C669 1.392 . S
C670 C671 1.385 1_556 S
C670 C672 1.478 . S
C671 H665 0.930 . S
C671 C667 1.400 . S
C671 C670 1.385 1_554 S
C672 C670 1.478 . S
C672 C674 1.378 1_556 S
C672 C678 1.385 . S
C673 C669 1.495 . S
C673 H679 0.959 . S
C673 H680 0.961 . S
C673 H681 0.960 . S
C674 C672 1.378 1_554 S
C674 C675 1.394 . S
C674 H682 0.930 . S
C675 C674 1.394 . S
C675 C676 1.383 . S
C675 H683 0.929 . S
C676 C675 1.383 . S
C676 C677 1.377 1_554 S
C677 H661 0.930 . S
C677 C676 1.377 1_556 S
C677 C678 1.379 . S
C678 H662 0.931 . S
C678 C672 1.385 . S
C678 C677 1.379 . S
H679 C673 0.959 . S
H680 C673 0.961 . S
H681 C673 0.960 . S
H682 C674 0.930 . S
H683 C675 0.929 . S
H684 C692 0.929 . S
H685 C694 0.930 . S
H686 C696 0.930 . S
H687 C699 0.929 . S
H688 C702 0.930 . S
H689 C704 0.960 . S
H690 C704 0.960 . S
H691 C704 0.960 . S
C692 H684 0.929 . S
C692 C693 1.377 . S
C692 C694 1.384 . S
C693 C692 1.377 . S
C693 C699 1.390 1_554 S
C694 H685 0.930 . S
C694 C692 1.384 . S
C694 C695 1.372 . S
C695 C694 1.372 . S
C695 C696 1.400 1_554 S
C695 C700 1.490 . S
C696 H686 0.930 . S
C696 C695 1.400 1_556 S
C696 C699 1.386 . S
H697 C713 0.930 . S
H698 C714 0.931 . S
C699 H687 0.929 . S
C699 C693 1.390 1_556 S
C699 C696 1.386 . S
C700 C695 1.490 . S
C700 C702 1.395 . S
C700 C703 1.403 1_554 S
H701 C707 0.930 . S
C702 H688 0.930 . S
C702 C700 1.395 . S
C702 C705 1.403 . S
C703 C700 1.403 1_556 S
C703 C704 1.524 . S
C703 C707 1.400 . S
C704 H689 0.960 . S
C704 H690 0.960 . S
C704 H691 0.960 . S
C704 C703 1.524 . S
C705 C702 1.403 . S
C705 C706 1.392 . S
C705 C709 1.495 . S
C706 C705 1.392 . S
C706 C707 1.385 1_554 S
C706 C708 1.478 . S
C707 H701 0.930 . S
C707 C703 1.400 . S
C707 C706 1.385 1_556 S
C708 C706 1.478 . S
C708 C710 1.381 . S
C708 C714 1.383 1_554 S
C709 C705 1.495 . S
C709 H715 0.959 . S
C709 H716 0.961 . S
C709 H717 0.960 . S
C710 C708 1.381 . S
C710 C711 1.394 . S
C710 H718 0.930 . S
C711 C710 1.394 . S
C711 C712 1.383 1_554 S
C711 H719 0.929 . S
C712 C711 1.383 1_556 S
C712 C713 1.377 . S
C713 H697 0.930 . S
C713 C712 1.377 . S
C713 C714 1.379 . S
C714 H698 0.931 . S
C714 C708 1.383 1_556 S
C714 C713 1.379 . S
H715 C709 0.959 . S
H716 C709 0.961 . S
H717 C709 0.960 . S
H718 C710 0.930 . S
H719 C711 0.929 . S
H720 C728 0.929 . S
H721 C730 0.930 . S
H722 C732 0.930 . S
H723 C735 0.929 . S
H724 C738 0.930 . S
H725 C740 0.960 . S
H726 C740 0.960 . S
H727 C740 0.960 . S
C728 H720 0.929 . S
C728 C729 1.377 . S
C728 C730 1.384 . S
C729 C728 1.377 . S
C729 C735 1.390 1_556 S
C730 H721 0.930 . S
C730 C728 1.384 . S
C730 C731 1.372 . S
C731 C730 1.372 . S
C731 C732 1.400 1_556 S
C731 C736 1.490 . S
C732 H722 0.930 . S
C732 C731 1.400 1_554 S
C732 C735 1.386 . S
H733 C749 0.930 . S
H734 C750 0.931 . S
C735 H723 0.929 . S
C735 C729 1.390 1_554 S
C735 C732 1.386 . S
C736 C731 1.490 . S
C736 C738 1.395 1_556 S
C736 C739 1.403 . S
H737 C743 0.930 . S
C738 H724 0.930 . S
C738 C736 1.395 1_554 S
C738 C741 1.403 . S
C739 C736 1.403 . S
C739 C740 1.524 . S
C739 C743 1.400 . S
C740 H725 0.960 . S
C740 H726 0.960 . S
C740 H727 0.960 . S
C740 C739 1.524 . S
C741 C738 1.403 . S
C741 C742 1.392 . S
C741 C745 1.495 . S
C742 C741 1.392 . S
C742 C743 1.385 1_554 S
C742 C744 1.478 . S
C743 H737 0.930 . S
C743 C739 1.400 . S
C743 C742 1.385 1_556 S
C744 C742 1.478 . S
C744 C746 1.381 1_554 S
C744 C750 1.383 . S
C745 C741 1.495 . S
C745 H751 0.959 . S
C745 H752 0.961 . S
C745 H753 0.960 . S
C746 C744 1.381 1_556 S
C746 C747 1.394 . S
C746 H754 0.930 . S
C747 C746 1.394 . S
C747 C748 1.383 1_556 S
C747 H755 0.929 . S
C748 C747 1.383 1_554 S
C748 C749 1.377 . S
C749 H733 0.930 . S
C749 C748 1.377 . S
C749 C750 1.379 . S
C750 H734 0.931 . S
C750 C744 1.383 . S
C750 C749 1.379 . S
H751 C745 0.959 . S
H752 C745 0.961 . S
H753 C745 0.960 . S
H754 C746 0.930 . S
H755 C747 0.929 . S
H756 C764 0.929 . S
H757 C766 0.930 . S
H758 C768 0.930 . S
H759 C771 0.929 . S
H760 C774 0.930 . S
H761 C776 0.960 . S
H762 C776 0.960 . S
H763 C776 0.960 . S
C764 H756 0.929 . S
C764 C765 1.377 . S
C764 C766 1.384 . S
C765 C764 1.377 . S
C765 C771 1.390 1_556 S
C766 H757 0.930 . S
C766 C764 1.384 . S
C766 C767 1.372 . S
C767 C766 1.372 . S
C767 C768 1.400 1_556 S
C767 C772 1.490 . S
C768 H758 0.930 . S
C768 C767 1.400 1_554 S
C768 C771 1.386 . S
H769 C785 0.930 . S
H770 C786 0.931 . S
C771 H759 0.929 . S
C771 C765 1.390 1_554 S
C771 C768 1.386 . S
C772 C767 1.490 . S
C772 C774 1.395 1_556 S
C772 C775 1.403 . S
H773 C779 0.930 . S
C774 H760 0.930 . S
C774 C772 1.395 1_554 S
C774 C777 1.403 . S
C775 C772 1.403 . S
C775 C776 1.524 . S
C775 C779 1.400 . S
C776 H761 0.960 . S
C776 H762 0.960 . S
C776 H763 0.960 . S
C776 C775 1.524 . S
C777 C774 1.403 . S
C777 C778 1.392 . S
C777 C781 1.495 . S
C778 C777 1.392 . S
C778 C779 1.385 1_554 S
C778 C780 1.478 . S
C779 H773 0.930 . S
C779 C775 1.400 . S
C779 C778 1.385 1_556 S
C780 C778 1.478 . S
C780 C782 1.381 1_554 S
C780 C786 1.383 . S
C781 C777 1.495 . S
C781 H787 0.959 . S
C781 H788 0.961 . S
C781 H789 0.960 . S
C782 C780 1.381 1_556 S
C782 C783 1.394 . S
C782 H790 0.930 . S
C783 C782 1.394 . S
C783 C784 1.383 1_556 S
C783 H791 0.929 . S
C784 C783 1.383 1_554 S
C784 C785 1.377 . S
C785 H769 0.930 . S
C785 C784 1.377 . S
C785 C786 1.379 . S
C786 H770 0.931 . S
C786 C780 1.383 . S
C786 C785 1.379 . S
H787 C781 0.959 . S
H788 C781 0.961 . S
H789 C781 0.960 . S
H790 C782 0.930 . S
H791 C783 0.929 . S
H792 C800 0.929 . S
H793 C802 0.930 . S
H794 C804 0.930 . S
H795 C807 0.929 . S
H796 C810 0.930 . S
H797 C812 0.960 . S
H798 C812 0.960 . S
H799 C812 0.960 . S
C800 H792 0.929 . S
C800 C801 1.377 . S
C800 C802 1.384 . S
C801 C800 1.377 . S
C801 C807 1.390 1_556 S
C802 H793 0.930 . S
C802 C800 1.384 . S
C802 C803 1.372 . S
C803 C802 1.372 . S
C803 C804 1.400 1_556 S
C803 C808 1.490 . S
C804 H794 0.930 . S
C804 C803 1.400 1_554 S
C804 C807 1.386 . S
H805 C821 0.930 . S
H806 C822 0.931 . S
C807 H795 0.929 . S
C807 C801 1.390 1_554 S
C807 C804 1.386 . S
C808 C803 1.490 . S
C808 C810 1.395 1_556 S
C808 C811 1.403 . S
H809 C815 0.930 . S
C810 H796 0.930 . S
C810 C808 1.395 1_554 S
C810 C813 1.403 . S
C811 C808 1.403 . S
C811 C812 1.524 . S
C811 C815 1.400 . S
C812 H797 0.960 . S
C812 H798 0.960 . S
C812 H799 0.960 . S
C812 C811 1.524 . S
C813 C810 1.403 . S
C813 C814 1.392 . S
C813 C817 1.495 . S
C814 C813 1.392 . S
C814 C815 1.385 1_554 S
C814 C816 1.478 . S
C815 H809 0.930 . S
C815 C811 1.400 . S
C815 C814 1.385 1_556 S
C816 C814 1.478 . S
C816 C818 1.381 1_554 S
C816 C822 1.383 . S
C817 C813 1.495 . S
C817 H823 0.959 . S
C817 H824 0.961 . S
C817 H825 0.960 . S
C818 C816 1.381 1_556 S
C818 C819 1.394 . S
C818 H826 0.930 . S
C819 C818 1.394 . S
C819 C820 1.383 1_556 S
C819 H827 0.929 . S
C820 C819 1.383 1_554 S
C820 C821 1.377 . S
C821 H805 0.930 . S
C821 C820 1.377 . S
C821 C822 1.379 . S
C822 H806 0.931 . S
C822 C816 1.383 . S
C822 C821 1.379 . S
H823 C817 0.959 . S
H824 C817 0.961 . S
H825 C817 0.960 . S
H826 C818 0.930 . S
H827 C819 0.929 . S
H828 C836 0.929 . S
H829 C838 0.930 . S
H830 C840 0.930 . S
H831 C843 0.929 . S
H832 C846 0.930 . S
H833 C848 0.960 . S
H834 C848 0.960 . S
H835 C848 0.960 . S
C836 H828 0.929 . S
C836 C837 1.377 . S
C836 C838 1.384 . S
C837 C836 1.377 . S
C837 C843 1.390 . S
C838 H829 0.930 . S
C838 C836 1.384 . S
C838 C839 1.372 . S
C839 C838 1.372 . S
C839 C840 1.400 . S
C839 C844 1.490 . S
C840 H830 0.930 . S
C840 C839 1.400 . S
C840 C843 1.386 . S
H841 C857 0.930 . S
H842 C858 0.931 . S
C843 H831 0.929 . S
C843 C837 1.390 . S
C843 C840 1.386 . S
C844 C839 1.490 . S
C844 C846 1.395 . S
C844 C847 1.403 . S
H845 C851 0.930 . S
C846 H832 0.930 . S
C846 C844 1.395 . S
C846 C849 1.403 . S
C847 C844 1.403 . S
C847 C848 1.524 . S
C847 C851 1.400 . S
C848 H833 0.960 . S
C848 H834 0.960 . S
C848 H835 0.960 . S
C848 C847 1.524 . S
C849 C846 1.403 . S
C849 C850 1.392 . S
C849 C853 1.495 . S
C850 C849 1.392 . S
C850 C851 1.385 . S
C850 C852 1.478 . S
C851 H845 0.930 . S
C851 C847 1.400 . S
C851 C850 1.385 . S
C852 C850 1.478 . S
C852 C854 1.381 . S
C852 C858 1.383 . S
C853 C849 1.495 . S
C853 H859 0.959 . S
C853 H860 0.961 . S
C853 H861 0.960 . S
C854 C852 1.381 . S
C854 C855 1.394 . S
C854 H862 0.930 . S
C855 C854 1.394 . S
C855 C856 1.383 . S
C855 H863 0.929 . S
C856 C855 1.383 . S
C856 C857 1.377 . S
C857 H841 0.930 . S
C857 C856 1.377 . S
C857 C858 1.379 . S
C858 H842 0.931 . S
C858 C852 1.383 . S
C858 C857 1.379 . S
H859 C853 0.959 . S
H860 C853 0.961 . S
H861 C853 0.960 . S
H862 C854 0.930 . S
H863 C855 0.929 . S
H864 C872 0.929 . S
H865 C874 0.930 . S
H866 C876 0.930 . S
H867 C879 0.929 . S
H868 C882 0.930 . S
H869 C884 0.960 . S
H870 C884 0.960 . S
H871 C884 0.960 . S
C872 H864 0.929 . S
C872 C873 1.377 . S
C872 C874 1.384 . S
C873 C872 1.377 . S
C873 C879 1.390 . S
C874 H865 0.930 . S
C874 C872 1.384 . S
C874 C875 1.372 . S
C875 C874 1.372 . S
C875 C876 1.400 . S
C875 C880 1.490 . S
C876 H866 0.930 . S
C876 C875 1.400 . S
C876 C879 1.386 . S
H877 C893 0.930 . S
H878 C894 0.931 . S
C879 H867 0.929 . S
C879 C873 1.390 . S
C879 C876 1.386 . S
C880 C875 1.490 . S
C880 C882 1.395 . S
C880 C883 1.403 . S
H881 C887 0.930 . S
C882 H868 0.930 . S
C882 C880 1.395 . S
C882 C885 1.403 . S
C883 C880 1.403 . S
C883 C884 1.524 . S
C883 C887 1.400 . S
C884 H869 0.960 . S
C884 H870 0.960 . S
C884 H871 0.960 . S
C884 C883 1.524 . S
C885 C882 1.403 . S
C885 C886 1.392 . S
C885 C889 1.495 . S
C886 C885 1.392 . S
C886 C887 1.385 . S
C886 C888 1.478 . S
C887 H881 0.930 . S
C887 C883 1.400 . S
C887 C886 1.385 . S
C888 C886 1.478 . S
C888 C890 1.381 . S
C888 C894 1.383 . S
C889 C885 1.495 . S
C889 H895 0.959 . S
C889 H896 0.961 . S
C889 H897 0.960 . S
C890 C888 1.381 . S
C890 C891 1.394 . S
C890 H898 0.930 . S
C891 C890 1.394 . S
C891 C892 1.383 . S
C891 H899 0.929 . S
C892 C891 1.383 . S
C892 C893 1.377 . S
C893 H877 0.930 . S
C893 C892 1.377 . S
C893 C894 1.379 . S
C894 H878 0.931 . S
C894 C888 1.383 . S
C894 C893 1.379 . S
H895 C889 0.959 . S
H896 C889 0.961 . S
H897 C889 0.960 . S
H898 C890 0.930 . S
H899 C891 0.929 . S
H900 C908 0.929 . S
H901 C910 0.930 . S
H902 C912 0.930 . S
H903 C915 0.929 . S
H904 C918 0.930 . S
H905 C920 0.960 . S
H906 C920 0.960 . S
H907 C920 0.960 . S
C908 H900 0.929 . S
C908 C909 1.377 . S
C908 C910 1.384 . S
C909 C908 1.377 . S
C909 C915 1.390 . S
C910 H901 0.930 . S
C910 C908 1.384 . S
C910 C911 1.372 . S
C911 C910 1.372 . S
C911 C912 1.400 . S
C911 C916 1.490 . S
C912 H902 0.930 . S
C912 C911 1.400 . S
C912 C915 1.386 . S
H913 C929 0.930 . S
H914 C930 0.931 . S
C915 H903 0.929 . S
C915 C909 1.390 . S
C915 C912 1.386 . S
C916 C911 1.490 . S
C916 C918 1.395 . S
C916 C919 1.403 . S
H917 C923 0.930 . S
C918 H904 0.930 . S
C918 C916 1.395 . S
C918 C921 1.403 . S
C919 C916 1.403 . S
C919 C920 1.524 . S
C919 C923 1.400 . S
C920 H905 0.960 . S
C920 H906 0.960 . S
C920 H907 0.960 . S
C920 C919 1.524 . S
C921 C918 1.403 . S
C921 C922 1.392 . S
C921 C925 1.495 . S
C922 C921 1.392 . S
C922 C923 1.385 . S
C922 C924 1.478 . S
C923 H917 0.930 . S
C923 C919 1.400 . S
C923 C922 1.385 . S
C924 C922 1.478 . S
C924 C926 1.381 . S
C924 C930 1.383 . S
C925 C921 1.495 . S
C925 H931 0.959 . S
C925 H932 0.961 . S
C925 H933 0.960 . S
C926 C924 1.381 . S
C926 C927 1.394 . S
C926 H934 0.930 . S
C927 C926 1.394 . S
C927 C928 1.383 . S
C927 H935 0.929 . S
C928 C927 1.383 . S
C928 C929 1.377 . S
C929 H913 0.930 . S
C929 C928 1.377 . S
C929 C930 1.379 . S
C930 H914 0.931 . S
C930 C924 1.383 . S
C930 C929 1.379 . S
H931 C925 0.959 . S
H932 C925 0.961 . S
H933 C925 0.960 . S
H934 C926 0.930 . S
H935 C927 0.929 . S
H936 C944 0.929 . S
H937 C946 0.930 . S
H938 C948 0.930 . S
H939 C951 0.929 . S
H940 C954 0.930 . S
H941 C956 0.960 . S
H942 C956 0.960 . S
H943 C956 0.960 . S
C944 H936 0.929 . S
C944 C945 1.377 . S
C944 C946 1.384 . S
C945 C944 1.377 . S
C945 C951 1.390 . S
C946 H937 0.930 . S
C946 C944 1.384 . S
C946 C947 1.372 . S
C947 C946 1.372 . S
C947 C948 1.400 . S
C947 C952 1.490 . S
C948 H938 0.930 . S
C948 C947 1.400 . S
C948 C951 1.386 . S
H949 C965 0.930 . S
H950 C966 0.931 . S
C951 H939 0.929 . S
C951 C945 1.390 . S
C951 C948 1.386 . S
C952 C947 1.490 . S
C952 C954 1.395 . S
C952 C955 1.403 . S
H953 C959 0.930 . S
C954 H940 0.930 . S
C954 C952 1.395 . S
C954 C957 1.403 . S
C955 C952 1.403 . S
C955 C956 1.524 . S
C955 C959 1.400 . S
C956 H941 0.960 . S
C956 H942 0.960 . S
C956 H943 0.960 . S
C956 C955 1.524 . S
C957 C954 1.403 . S
C957 C958 1.392 . S
C957 C961 1.495 . S
C958 C957 1.392 . S
C958 C959 1.385 . S
C958 C960 1.478 . S
C959 H953 0.930 . S
C959 C955 1.400 . S
C959 C958 1.385 . S
C960 C958 1.478 . S
C960 C962 1.381 . S
C960 C966 1.383 . S
C961 C957 1.495 . S
C961 H967 0.959 . S
C961 H968 0.961 . S
C961 H969 0.960 . S
C962 C960 1.381 . S
C962 C963 1.394 . S
C962 H970 0.930 . S
C963 C962 1.394 . S
C963 C964 1.383 . S
C963 H971 0.929 . S
C964 C963 1.383 . S
C964 C965 1.377 . S
C965 H949 0.930 . S
C965 C964 1.377 . S
C965 C966 1.379 . S
C966 H950 0.931 . S
C966 C960 1.383 . S
C966 C965 1.379 . S
H967 C961 0.959 . S
H968 C961 0.961 . S
H969 C961 0.960 . S
H970 C962 0.930 . S
H971 C963 0.929 . S
H972 C980 0.929 . S
H973 C982 0.930 . S
H974 C984 0.930 . S
H975 C987 0.929 . S
H976 C990 0.930 . S
H977 C992 0.960 . S
H978 C992 0.960 . S
H979 C992 0.960 . S
C980 H972 0.929 . S
C980 C981 1.377 . S
C980 C982 1.384 . S
C981 C980 1.377 . S
C981 C987 1.390 . S
C982 H973 0.930 . S
C982 C980 1.384 . S
C982 C983 1.372 . S
C983 C982 1.372 . S
C983 C984 1.400 . S
C983 C988 1.490 . S
C984 H974 0.930 . S
C984 C983 1.400 . S
C984 C987 1.386 . S
H985 C1001 0.930 . S
H986 C1002 0.931 . S
C987 H975 0.929 . S
C987 C981 1.390 . S
C987 C984 1.386 . S
C988 C983 1.490 . S
C988 C990 1.395 . S
C988 C991 1.403 . S
H989 C995 0.930 . S
C990 H976 0.930 . S
C990 C988 1.395 . S
C990 C993 1.403 . S
C991 C988 1.403 . S
C991 C992 1.524 . S
C991 C995 1.400 . S
C992 H977 0.960 . S
C992 H978 0.960 . S
C992 H979 0.960 . S
C992 C991 1.524 . S
C993 C990 1.403 . S
C993 C994 1.392 . S
C993 C997 1.495 . S
C994 C993 1.392 . S
C994 C995 1.385 . S
C994 C996 1.478 . S
C995 H989 0.930 . S
C995 C991 1.400 . S
C995 C994 1.385 . S
C996 C994 1.478 . S
C996 C998 1.381 . S
C996 C1002 1.383 . S
C997 C993 1.495 . S
C997 H1003 0.959 . S
C997 H1004 0.961 . S
C997 H1005 0.960 . S
C998 C996 1.381 . S
C998 C999 1.394 . S
C998 H1006 0.930 . S
C999 C998 1.394 . S
C999 C1000 1.383 . S
C999 H1007 0.929 . S
C1000 C999 1.383 . S
C1000 C1001 1.377 . S
C1001 H985 0.930 . S
C1001 C1000 1.377 . S
C1001 C1002 1.379 . S
C1002 H986 0.931 . S
C1002 C996 1.383 . S
C1002 C1001 1.379 . S
H1003 C997 0.959 . S
H1004 C997 0.961 . S
H1005 C997 0.960 . S
H1006 C998 0.930 . S
H1007 C999 0.929 . S
H1008 C1016 0.929 . S
H1009 C1018 0.930 . S
H1010 C1020 0.930 . S
H1011 C1023 0.929 . S
H1012 C1026 0.930 . S
H1013 C1028 0.960 . S
H1014 C1028 0.960 . S
H1015 C1028 0.960 . S
C1016 H1008 0.929 . S
C1016 C1017 1.377 . S
C1016 C1018 1.384 . S
C1017 C1016 1.377 . S
C1017 C1023 1.390 . S
C1018 H1009 0.930 . S
C1018 C1016 1.384 . S
C1018 C1019 1.372 . S
C1019 C1018 1.372 . S
C1019 C1020 1.400 . S
C1019 C1024 1.490 . S
C1020 H1010 0.930 . S
C1020 C1019 1.400 . S
C1020 C1023 1.386 . S
H1021 C1037 0.930 . S
H1022 C1038 0.931 . S
C1023 H1011 0.929 . S
C1023 C1017 1.390 . S
C1023 C1020 1.386 . S
C1024 C1019 1.490 . S
C1024 C1026 1.395 . S
C1024 C1027 1.403 . S
H1025 C1031 0.930 . S
C1026 H1012 0.930 . S
C1026 C1024 1.395 . S
C1026 C1029 1.403 . S
C1027 C1024 1.403 . S
C1027 C1028 1.524 . S
C1027 C1031 1.400 . S
C1028 H1013 0.960 . S
C1028 H1014 0.960 . S
C1028 H1015 0.960 . S
C1028 C1027 1.524 . S
C1029 C1026 1.403 . S
C1029 C1030 1.392 . S
C1029 C1033 1.495 . S
C1030 C1029 1.392 . S
C1030 C1031 1.385 . S
C1030 C1032 1.478 . S
C1031 H1025 0.930 . S
C1031 C1027 1.400 . S
C1031 C1030 1.385 . S
C1032 C1030 1.478 . S
C1032 C1034 1.381 . S
C1032 C1038 1.383 . S
C1033 C1029 1.495 . S
C1033 H1039 0.959 . S
C1033 H1040 0.961 . S
C1033 H1041 0.960 . S
C1034 C1032 1.381 . S
C1034 C1035 1.394 . S
C1034 H1042 0.930 . S
C1035 C1034 1.394 . S
C1035 C1036 1.383 . S
C1035 H1043 0.929 . S
C1036 C1035 1.383 . S
C1036 C1037 1.377 . S
C1037 H1021 0.930 . S
C1037 C1036 1.377 . S
C1037 C1038 1.379 . S
C1038 H1022 0.931 . S
C1038 C1032 1.383 . S
C1038 C1037 1.379 . S
H1039 C1033 0.959 . S
H1040 C1033 0.961 . S
H1041 C1033 0.960 . S
H1042 C1034 0.930 . S
H1043 C1035 0.929 . S
H1044 C1052 0.929 . S
H1045 C1054 0.930 . S
H1046 C1056 0.930 . S
H1047 C1059 0.929 . S
H1048 C1062 0.930 . S
H1049 C1064 0.960 . S
H1050 C1064 0.960 . S
H1051 C1064 0.960 . S
C1052 H1044 0.929 . S
C1052 C1053 1.377 . S
C1052 C1054 1.384 . S
C1053 C1052 1.377 . S
C1053 C1059 1.390 . S
C1054 H1045 0.930 . S
C1054 C1052 1.384 . S
C1054 C1055 1.372 . S
C1055 C1054 1.372 . S
C1055 C1056 1.400 . S
C1055 C1060 1.490 . S
C1056 H1046 0.930 . S
C1056 C1055 1.400 . S
C1056 C1059 1.386 . S
H1057 C1073 0.930 . S
H1058 C1074 0.931 . S
C1059 H1047 0.929 . S
C1059 C1053 1.390 . S
C1059 C1056 1.386 . S
C1060 C1055 1.490 . S
C1060 C1062 1.395 . S
C1060 C1063 1.403 . S
H1061 C1067 0.930 . S
C1062 H1048 0.930 . S
C1062 C1060 1.395 . S
C1062 C1065 1.403 . S
C1063 C1060 1.403 . S
C1063 C1064 1.524 . S
C1063 C1067 1.400 . S
C1064 H1049 0.960 . S
C1064 H1050 0.960 . S
C1064 H1051 0.960 . S
C1064 C1063 1.524 . S
C1065 C1062 1.403 . S
C1065 C1066 1.392 . S
C1065 C1069 1.495 . S
C1066 C1065 1.392 . S
C1066 C1067 1.385 . S
C1066 C1068 1.478 . S
C1067 H1061 0.930 . S
C1067 C1063 1.400 . S
C1067 C1066 1.385 . S
C1068 C1066 1.478 . S
C1068 C1070 1.381 . S
C1068 C1074 1.383 . S
C1069 C1065 1.495 . S
C1069 H1075 0.959 . S
C1069 H1076 0.961 . S
C1069 H1077 0.960 . S
C1070 C1068 1.381 . S
C1070 C1071 1.394 . S
C1070 H1078 0.930 . S
C1071 C1070 1.394 . S
C1071 C1072 1.383 . S
C1071 H1079 0.929 . S
C1072 C1071 1.383 . S
C1072 C1073 1.377 . S
C1073 H1057 0.930 . S
C1073 C1072 1.377 . S
C1073 C1074 1.379 . S
C1074 H1058 0.931 . S
C1074 C1068 1.383 . S
C1074 C1073 1.379 . S
H1075 C1069 0.959 . S
H1076 C1069 0.961 . S
H1077 C1069 0.960 . S
H1078 C1070 0.930 . S
H1079 C1071 0.929 . S
H1080 C1088 0.929 . S
H1081 C1090 0.930 . S
H1082 C1092 0.930 . S
H1083 C1095 0.929 . S
H1084 C1098 0.930 . S
H1085 C1100 0.960 . S
H1086 C1100 0.960 . S
H1087 C1100 0.960 . S
C1088 H1080 0.929 . S
C1088 C1089 1.377 . S
C1088 C1090 1.384 . S
C1089 C1088 1.377 . S
C1089 C1095 1.390 . S
C1090 H1081 0.930 . S
C1090 C1088 1.384 . S
C1090 C1091 1.372 . S
C1091 C1090 1.372 . S
C1091 C1092 1.400 . S
C1091 C1096 1.490 . S
C1092 H1082 0.930 . S
C1092 C1091 1.400 . S
C1092 C1095 1.386 . S
H1093 C1109 0.930 . S
H1094 C1110 0.931 . S
C1095 H1083 0.929 . S
C1095 C1089 1.390 . S
C1095 C1092 1.386 . S
C1096 C1091 1.490 . S
C1096 C1098 1.395 . S
C1096 C1099 1.403 . S
H1097 C1103 0.930 . S
C1098 H1084 0.930 . S
C1098 C1096 1.395 . S
C1098 C1101 1.403 . S
C1099 C1096 1.403 . S
C1099 C1100 1.524 . S
C1099 C1103 1.400 . S
C1100 H1085 0.960 . S
C1100 H1086 0.960 . S
C1100 H1087 0.960 . S
C1100 C1099 1.524 . S
C1101 C1098 1.403 . S
C1101 C1102 1.392 . S
C1101 C1105 1.495 . S
C1102 C1101 1.392 . S
C1102 C1103 1.385 . S
C1102 C1104 1.478 . S
C1103 H1097 0.930 . S
C1103 C1099 1.400 . S
C1103 C1102 1.385 . S
C1104 C1102 1.478 . S
C1104 C1106 1.381 . S
C1104 C1110 1.383 . S
C1105 C1101 1.495 . S
C1105 H1111 0.959 . S
C1105 H1112 0.961 . S
C1105 H1113 0.960 . S
C1106 C1104 1.381 . S
C1106 C1107 1.394 . S
C1106 H1114 0.930 . S
C1107 C1106 1.394 . S
C1107 C1108 1.383 . S
C1107 H1115 0.929 . S
C1108 C1107 1.383 . S
C1108 C1109 1.377 . S
C1109 H1093 0.930 . S
C1109 C1108 1.377 . S
C1109 C1110 1.379 . S
C1110 H1094 0.931 . S
C1110 C1104 1.383 . S
C1110 C1109 1.379 . S
H1111 C1105 0.959 . S
H1112 C1105 0.961 . S
H1113 C1105 0.960 . S
H1114 C1106 0.930 . S
H1115 C1107 0.929 . S
H1116 C1124 0.929 . S
H1117 C1126 0.930 . S
H1118 C1128 0.930 . S
H1119 C1131 0.929 . S
H1120 C1134 0.930 . S
H1121 C1136 0.960 . S
H1122 C1136 0.960 . S
H1123 C1136 0.960 . S
C1124 H1116 0.929 . S
C1124 C1125 1.377 . S
C1124 C1126 1.384 . S
C1125 C1124 1.377 . S
C1125 C1131 1.390 . S
C1126 H1117 0.930 . S
C1126 C1124 1.384 . S
C1126 C1127 1.372 . S
C1127 C1126 1.372 . S
C1127 C1128 1.400 . S
C1127 C1132 1.490 . S
C1128 H1118 0.930 . S
C1128 C1127 1.400 . S
C1128 C1131 1.386 . S
H1129 C1145 0.930 . S
H1130 C1146 0.931 . S
C1131 H1119 0.929 . S
C1131 C1125 1.390 . S
C1131 C1128 1.386 . S
C1132 C1127 1.490 . S
C1132 C1134 1.395 . S
C1132 C1135 1.403 . S
H1133 C1139 0.930 . S
C1134 H1120 0.930 . S
C1134 C1132 1.395 . S
C1134 C1137 1.403 . S
C1135 C1132 1.403 . S
C1135 C1136 1.524 . S
C1135 C1139 1.400 . S
C1136 H1121 0.960 . S
C1136 H1122 0.960 . S
C1136 H1123 0.960 . S
C1136 C1135 1.524 . S
C1137 C1134 1.403 . S
C1137 C1138 1.392 . S
C1137 C1141 1.495 . S
C1138 C1137 1.392 . S
C1138 C1139 1.385 . S
C1138 C1140 1.478 . S
C1139 H1133 0.930 . S
C1139 C1135 1.400 . S
C1139 C1138 1.385 . S
C1140 C1138 1.478 . S
C1140 C1142 1.381 . S
C1140 C1146 1.383 . S
C1141 C1137 1.495 . S
C1141 H1147 0.959 . S
C1141 H1148 0.961 . S
C1141 H1149 0.960 . S
C1142 C1140 1.381 . S
C1142 C1143 1.394 . S
C1142 H1150 0.930 . S
C1143 C1142 1.394 . S
C1143 C1144 1.383 . S
C1143 H1151 0.929 . S
C1144 C1143 1.383 . S
C1144 C1145 1.377 . S
C1145 H1129 0.930 . S
C1145 C1144 1.377 . S
C1145 C1146 1.379 . S
C1146 H1130 0.931 . S
C1146 C1140 1.383 . S
C1146 C1145 1.379 . S
H1147 C1141 0.959 . S
H1148 C1141 0.961 . S
H1149 C1141 0.960 . S
H1150 C1142 0.930 . S
H1151 C1143 0.929 . S
H1152 C1160 0.929 . S
H1153 C1162 0.930 . S
H1154 C1164 0.930 . S
H1155 C1167 0.929 . S
H1156 C1170 0.930 . S
H1157 C1172 0.960 . S
H1158 C1172 0.960 . S
H1159 C1172 0.960 . S
C1160 H1152 0.929 . S
C1160 C1161 1.377 . S
C1160 C1162 1.384 . S
C1161 C1160 1.377 . S
C1161 C1167 1.390 . S
C1162 H1153 0.930 . S
C1162 C1160 1.384 . S
C1162 C1163 1.372 . S
C1163 C1162 1.372 . S
C1163 C1164 1.400 . S
C1163 C1168 1.490 . S
C1164 H1154 0.930 . S
C1164 C1163 1.400 . S
C1164 C1167 1.386 . S
H1165 C1181 0.930 . S
H1166 C1182 0.931 . S
C1167 H1155 0.929 . S
C1167 C1161 1.390 . S
C1167 C1164 1.386 . S
C1168 C1163 1.490 . S
C1168 C1170 1.395 . S
C1168 C1171 1.403 . S
H1169 C1175 0.930 . S
C1170 H1156 0.930 . S
C1170 C1168 1.395 . S
C1170 C1173 1.403 . S
C1171 C1168 1.403 . S
C1171 C1172 1.524 . S
C1171 C1175 1.400 . S
C1172 H1157 0.960 . S
C1172 H1158 0.960 . S
C1172 H1159 0.960 . S
C1172 C1171 1.524 . S
C1173 C1170 1.403 . S
C1173 C1174 1.392 . S
C1173 C1177 1.495 . S
C1174 C1173 1.392 . S
C1174 C1175 1.385 . S
C1174 C1176 1.478 . S
C1175 H1169 0.930 . S
C1175 C1171 1.400 . S
C1175 C1174 1.385 . S
C1176 C1174 1.478 . S
C1176 C1178 1.381 . S
C1176 C1182 1.383 . S
C1177 C1173 1.495 . S
C1177 H1183 0.959 . S
C1177 H1184 0.961 . S
C1177 H1185 0.960 . S
C1178 C1176 1.381 . S
C1178 C1179 1.394 . S
C1178 H1186 0.930 . S
C1179 C1178 1.394 . S
C1179 C1180 1.383 . S
C1179 H1187 0.929 . S
C1180 C1179 1.383 . S
C1180 C1181 1.377 . S
C1181 H1165 0.930 . S
C1181 C1180 1.377 . S
C1181 C1182 1.379 . S
C1182 H1166 0.931 . S
C1182 C1176 1.383 . S
C1182 C1181 1.379 . S
H1183 C1177 0.959 . S
H1184 C1177 0.961 . S
H1185 C1177 0.960 . S
H1186 C1178 0.930 . S
H1187 C1179 0.929 . S
H1188 C1196 0.929 . S
H1189 C1198 0.930 . S
H1190 C1200 0.930 . S
H1191 C1203 0.929 . S
H1192 C1206 0.930 . S
H1193 C1208 0.960 . S
H1194 C1208 0.960 . S
H1195 C1208 0.960 . S
C1196 H1188 0.929 . S
C1196 C1197 1.377 . S
C1196 C1198 1.384 . S
C1197 C1196 1.377 . S
C1197 C1203 1.390 . S
C1198 H1189 0.930 . S
C1198 C1196 1.384 . S
C1198 C1199 1.372 . S
C1199 C1198 1.372 . S
C1199 C1200 1.400 . S
C1199 C1204 1.490 . S
C1200 H1190 0.930 . S
C1200 C1199 1.400 . S
C1200 C1203 1.386 . S
H1201 C1217 0.930 . S
H1202 C1218 0.931 . S
C1203 H1191 0.929 . S
C1203 C1197 1.390 . S
C1203 C1200 1.386 . S
C1204 C1199 1.490 . S
C1204 C1206 1.395 . S
C1204 C1207 1.403 . S
H1205 C1211 0.930 . S
C1206 H1192 0.930 . S
C1206 C1204 1.395 . S
C1206 C1209 1.403 . S
C1207 C1204 1.403 . S
C1207 C1208 1.524 . S
C1207 C1211 1.400 . S
C1208 H1193 0.960 . S
C1208 H1194 0.960 . S
C1208 H1195 0.960 . S
C1208 C1207 1.524 . S
C1209 C1206 1.403 . S
C1209 C1210 1.392 . S
C1209 C1213 1.495 . S
C1210 C1209 1.392 . S
C1210 C1211 1.385 . S
C1210 C1212 1.478 . S
C1211 H1205 0.930 . S
C1211 C1207 1.400 . S
C1211 C1210 1.385 . S
C1212 C1210 1.478 . S
C1212 C1214 1.381 . S
C1212 C1218 1.383 . S
C1213 C1209 1.495 . S
C1213 H1219 0.959 . S
C1213 H1220 0.961 . S
C1213 H1221 0.960 . S
C1214 C1212 1.381 . S
C1214 C1215 1.394 . S
C1214 H1222 0.930 . S
C1215 C1214 1.394 . S
C1215 C1216 1.383 . S
C1215 H1223 0.929 . S
C1216 C1215 1.383 . S
C1216 C1217 1.377 . S
C1217 H1201 0.930 . S
C1217 C1216 1.377 . S
C1217 C1218 1.379 . S
C1218 H1202 0.931 . S
C1218 C1212 1.383 . S
C1218 C1217 1.379 . S
H1219 C1213 0.959 . S
H1220 C1213 0.961 . S
H1221 C1213 0.960 . S
H1222 C1214 0.930 . S
H1223 C1215 0.929 . S
H1224 C1232 0.929 . S
H1225 C1234 0.930 . S
H1226 C1236 0.930 . S
H1227 C1239 0.929 . S
H1228 C1242 0.930 . S
H1229 C1244 0.960 . S
H1230 C1244 0.960 . S
H1231 C1244 0.960 . S
C1232 H1224 0.929 . S
C1232 C1233 1.377 . S
C1232 C1234 1.384 . S
C1233 C1232 1.377 . S
C1233 C1239 1.390 . S
C1234 H1225 0.930 . S
C1234 C1232 1.384 . S
C1234 C1235 1.372 . S
C1235 C1234 1.372 . S
C1235 C1236 1.400 . S
C1235 C1240 1.490 . S
C1236 H1226 0.930 . S
C1236 C1235 1.400 . S
C1236 C1239 1.386 . S
H1237 C1253 0.930 . S
H1238 C1254 0.931 . S
C1239 H1227 0.929 . S
C1239 C1233 1.390 . S
C1239 C1236 1.386 . S
C1240 C1235 1.490 . S
C1240 C1242 1.395 . S
C1240 C1243 1.403 . S
H1241 C1247 0.930 . S
C1242 H1228 0.930 . S
C1242 C1240 1.395 . S
C1242 C1245 1.403 . S
C1243 C1240 1.403 . S
C1243 C1244 1.524 . S
C1243 C1247 1.400 . S
C1244 H1229 0.960 . S
C1244 H1230 0.960 . S
C1244 H1231 0.960 . S
C1244 C1243 1.524 . S
C1245 C1242 1.403 . S
C1245 C1246 1.392 . S
C1245 C1249 1.495 . S
C1246 C1245 1.392 . S
C1246 C1247 1.385 . S
C1246 C1248 1.478 . S
C1247 H1241 0.930 . S
C1247 C1243 1.400 . S
C1247 C1246 1.385 . S
C1248 C1246 1.478 . S
C1248 C1250 1.381 . S
C1248 C1254 1.383 . S
C1249 C1245 1.495 . S
C1249 H1255 0.959 . S
C1249 H1256 0.961 . S
C1249 H1257 0.960 . S
C1250 C1248 1.381 . S
C1250 C1251 1.394 . S
C1250 H1258 0.930 . S
C1251 C1250 1.394 . S
C1251 C1252 1.383 . S
C1251 H1259 0.929 . S
C1252 C1251 1.383 . S
C1252 C1253 1.377 . S
C1253 H1237 0.930 . S
C1253 C1252 1.377 . S
C1253 C1254 1.379 . S
C1254 H1238 0.931 . S
C1254 C1248 1.383 . S
C1254 C1253 1.379 . S
H1255 C1249 0.959 . S
H1256 C1249 0.961 . S
H1257 C1249 0.960 . S
H1258 C1250 0.930 . S
H1259 C1251 0.929 . S
H1260 C1268 0.929 . S
H1261 C1270 0.930 . S
H1262 C1272 0.930 . S
H1263 C1275 0.929 . S
H1264 C1278 0.930 . S
H1265 C1280 0.960 . S
H1266 C1280 0.960 . S
H1267 C1280 0.960 . S
C1268 H1260 0.929 . S
C1268 C1269 1.377 1_554 S
C1268 C1270 1.384 . S
C1269 C1268 1.377 1_556 S
C1269 C1275 1.390 . S
C1270 H1261 0.930 . S
C1270 C1268 1.384 . S
C1270 C1271 1.356 1_554 S
C1271 C1270 1.356 1_556 S
C1271 C1272 1.417 . S
C1271 C1276 1.489 1_556 S
C1272 H1262 0.930 . S
C1272 C1271 1.417 . S
C1272 C1275 1.386 . S
H1273 C1289 0.930 . S
H1274 C1290 0.931 . S
C1275 H1263 0.929 . S
C1275 C1269 1.390 . S
C1275 C1272 1.386 . S
C1276 C1271 1.489 1_554 S
C1276 C1278 1.395 . S
C1276 C1279 1.403 1_554 S
H1277 C1283 0.930 . S
C1278 H1264 0.930 . S
C1278 C1276 1.395 . S
C1278 C1281 1.403 1_455 S
C1279 C1276 1.403 1_556 S
C1279 C1280 1.524 . S
C1279 C1283 1.400 1_455 S
C1280 H1265 0.960 . S
C1280 H1266 0.960 . S
C1280 H1267 0.960 . S
C1280 C1279 1.524 . S
C1281 C1278 1.403 1_655 S
C1281 C1282 1.392 . S
C1281 C1285 1.495 . S
C1282 C1281 1.392 . S
C1282 C1283 1.385 1_554 S
C1282 C1284 1.478 . S
C1283 H1277 0.930 . S
C1283 C1279 1.400 1_655 S
C1283 C1282 1.385 1_556 S
C1284 C1282 1.478 . S
C1284 C1286 1.381 . S
C1284 C1290 1.383 1_554 S
C1285 C1281 1.495 . S
C1285 H1291 0.959 . S
C1285 H1292 0.961 . S
C1285 H1293 0.960 . S
C1286 C1284 1.381 . S
C1286 C1287 1.394 . S
C1286 H1294 0.930 . S
C1287 C1286 1.394 . S
C1287 C1288 1.383 . S
C1287 H1295 0.929 . S
C1288 C1287 1.383 . S
C1288 C1289 1.377 1_554 S
C1289 H1273 0.930 . S
C1289 C1288 1.377 1_556 S
C1289 C1290 1.379 . S
C1290 H1274 0.931 . S
C1290 C1284 1.383 1_556 S
C1290 C1289 1.379 . S
H1291 C1285 0.959 . S
H1292 C1285 0.961 . S
H1293 C1285 0.960 . S
H1294 C1286 0.930 . S
H1295 C1287 0.929 . S
H1296 C1304 0.929 . S
H1297 C1306 0.930 . S
H1298 C1308 0.930 . S
H1299 C1311 0.929 . S
H1300 C1314 0.930 . S
H1301 C1316 0.960 . S
H1302 C1316 0.960 . S
H1303 C1316 0.960 . S
C1304 H1296 0.929 . S
C1304 C1305 1.377 1_556 S
C1304 C1306 1.384 . S
C1305 C1304 1.377 1_554 S
C1305 C1311 1.390 . S
C1306 H1297 0.930 . S
C1306 C1304 1.384 . S
C1306 C1307 1.372 1_556 S
C1307 C1306 1.372 1_554 S
C1307 C1308 1.400 . S
C1307 C1312 1.490 1_554 S
C1308 H1298 0.930 . S
C1308 C1307 1.400 . S
C1308 C1311 1.386 . S
H1309 C1325 0.930 . S
H1310 C1326 0.931 . S
C1311 H1299 0.929 . S
C1311 C1305 1.390 . S
C1311 C1308 1.386 . S
C1312 C1307 1.490 1_556 S
C1312 C1314 1.397 . S
C1312 C1315 1.401 1_556 S
H1313 C1319 0.930 . S
C1314 H1300 0.930 . S
C1314 C1312 1.397 . S
C1314 C1317 1.403 1_565 S
C1315 C1312 1.401 1_554 S
C1315 C1316 1.524 . S
C1315 C1319 1.400 1_565 S
C1316 H1301 0.960 . S
C1316 H1302 0.960 . S
C1316 H1303 0.960 . S
C1316 C1315 1.524 . S
C1317 C1314 1.403 1_545 S
C1317 C1318 1.392 . S
C1317 C1321 1.495 . S
C1318 C1317 1.392 . S
C1318 C1319 1.385 1_556 S
C1318 C1320 1.478 . S
C1319 H1313 0.930 . S
C1319 C1315 1.400 1_545 S
C1319 C1318 1.385 1_554 S
C1320 C1318 1.478 . S
C1320 C1322 1.381 . S
C1320 C1326 1.383 1_556 S
C1321 C1317 1.495 . S
C1321 H1327 0.959 . S
C1321 H1328 0.961 . S
C1321 H1329 0.960 . S
C1322 C1320 1.381 . S
C1322 C1323 1.394 . S
C1322 H1330 0.930 . S
C1323 C1322 1.394 . S
C1323 C1324 1.383 . S
C1323 H1331 0.929 . S
C1324 C1323 1.383 . S
C1324 C1325 1.377 1_556 S
C1325 H1309 0.930 . S
C1325 C1324 1.377 1_554 S
C1325 C1326 1.379 . S
C1326 H1310 0.931 . S
C1326 C1320 1.383 1_554 S
C1326 C1325 1.379 . S
H1327 C1321 0.959 . S
H1328 C1321 0.961 . S
H1329 C1321 0.960 . S
H1330 C1322 0.930 . S
H1331 C1323 0.929 . S
H1332 C1340 0.930 . S
H1333 C1342 0.930 . S
H1334 C1344 0.930 . S
H1335 C1347 0.929 . S
H1336 C1350 0.930 . S
H1337 C1352 0.960 . S
H1338 C1352 0.960 . S
H1339 C1352 0.960 . S
C1340 H1332 0.930 . S
C1340 C1341 1.377 1_556 S
C1340 C1342 1.384 . S
C1341 C1340 1.377 1_554 S
C1341 C1347 1.390 . S
C1342 H1333 0.930 . S
C1342 C1340 1.384 . S
C1342 C1343 1.372 1_556 S
C1343 C1342 1.372 1_554 S
C1343 C1344 1.400 . S
C1343 C1348 1.490 . S
C1344 H1334 0.930 . S
C1344 C1343 1.400 . S
C1344 C1347 1.386 . S
H1345 C1361 0.930 . S
H1346 C1362 0.931 . S
C1347 H1335 0.929 . S
C1347 C1341 1.390 . S
C1347 C1344 1.386 . S
C1348 C1343 1.490 . S
C1348 C1350 1.395 . S
C1348 C1351 1.403 1_554 S
H1349 C1355 0.930 . S
C1350 H1336 0.930 . S
C1350 C1348 1.395 . S
C1350 C1353 1.403 . S
C1351 C1348 1.403 1_556 S
C1351 C1352 1.524 . S
C1351 C1355 1.400 . S
C1352 H1337 0.960 . S
C1352 H1338 0.960 . S
C1352 H1339 0.960 . S
C1352 C1351 1.524 . S
C1353 C1350 1.403 . S
C1353 C1354 1.392 . S
C1353 C1357 1.495 . S
C1354 C1353 1.392 . S
C1354 C1355 1.385 1_554 S
C1354 C1356 1.478 . S
C1355 H1349 0.930 . S
C1355 C1351 1.400 . S
C1355 C1354 1.385 1_556 S
C1356 C1354 1.478 . S
C1356 C1358 1.381 1_554 S
C1356 C1362 1.383 . S
C1357 C1353 1.495 . S
C1357 H1363 0.959 . S
C1357 H1364 0.961 . S
C1357 H1365 0.960 . S
C1358 C1356 1.381 1_556 S
C1358 C1359 1.394 . S
C1358 H1366 0.930 . S
C1359 C1358 1.394 . S
C1359 C1360 1.383 . S
C1359 H1367 0.929 . S
C1360 C1359 1.383 . S
C1360 C1361 1.377 1_556 S
C1361 H1345 0.930 . S
C1361 C1360 1.377 1_554 S
C1361 C1362 1.379 . S
C1362 H1346 0.931 . S
C1362 C1356 1.383 . S
C1362 C1361 1.379 . S
H1363 C1357 0.959 . S
H1364 C1357 0.961 . S
H1365 C1357 0.960 . S
H1366 C1358 0.930 . S
H1367 C1359 0.929 . S
H1368 C1376 0.929 . S
H1369 C1378 0.930 . S
H1370 C1380 0.930 . S
H1371 C1383 0.929 . S
H1372 C1386 0.930 . S
H1373 C1388 0.960 . S
H1374 C1388 0.960 . S
H1375 C1388 0.960 . S
C1376 H1368 0.929 . S
C1376 C1377 1.377 1_556 S
C1376 C1378 1.384 . S
C1377 C1376 1.377 1_554 S
C1377 C1383 1.390 . S
C1378 H1369 0.930 . S
C1378 C1376 1.384 . S
C1378 C1379 1.372 1_556 S
C1379 C1378 1.372 1_554 S
C1379 C1380 1.400 . S
C1379 C1384 1.490 . S
C1380 H1370 0.930 . S
C1380 C1379 1.400 . S
C1380 C1383 1.386 . S
H1381 C1397 0.930 . S
H1382 C1398 0.931 . S
C1383 H1371 0.929 . S
C1383 C1377 1.390 . S
C1383 C1380 1.386 . S
C1384 C1379 1.490 . S
C1384 C1386 1.395 . S
C1384 C1387 1.403 1_554 S
H1385 C1391 0.930 . S
C1386 H1372 0.930 . S
C1386 C1384 1.395 . S
C1386 C1389 1.403 1_455 S
C1387 C1384 1.403 1_556 S
C1387 C1388 1.524 . S
C1387 C1391 1.400 1_455 S
C1388 H1373 0.960 . S
C1388 H1374 0.960 . S
C1388 H1375 0.960 . S
C1388 C1387 1.524 . S
C1389 C1386 1.403 1_655 S
C1389 C1390 1.392 . S
C1389 C1393 1.495 . S
C1390 C1389 1.392 . S
C1390 C1391 1.385 1_554 S
C1390 C1392 1.478 . S
C1391 H1385 0.930 . S
C1391 C1387 1.400 1_655 S
C1391 C1390 1.385 1_556 S
C1392 C1390 1.478 . S
C1392 C1394 1.381 1_554 S
C1392 C1398 1.383 . S
C1393 C1389 1.495 . S
C1393 H1399 0.959 . S
C1393 H1400 0.961 . S
C1393 H1401 0.960 . S
C1394 C1392 1.381 1_556 S
C1394 C1395 1.394 . S
C1394 H1402 0.930 . S
C1395 C1394 1.394 . S
C1395 C1396 1.383 . S
C1395 H1403 0.929 . S
C1396 C1395 1.383 . S
C1396 C1397 1.377 1_556 S
C1397 H1381 0.930 . S
C1397 C1396 1.377 1_554 S
C1397 C1398 1.379 . S
C1398 H1382 0.931 . S
C1398 C1392 1.383 . S
C1398 C1397 1.379 . S
H1399 C1393 0.959 . S
H1400 C1393 0.961 . S
H1401 C1393 0.960 . S
H1402 C1394 0.930 . S
H1403 C1395 0.929 . S
H1404 C1412 0.929 . S
H1405 C1414 0.930 . S
H1406 C1416 0.930 . S
H1407 C1419 0.929 . S
H1408 C1422 0.930 . S
H1409 C1424 0.960 . S
H1410 C1424 0.960 . S
H1411 C1424 0.960 . S
C1412 H1404 0.929 . S
C1412 C1413 1.377 1_554 S
C1412 C1414 1.384 . S
C1413 C1412 1.377 1_556 S
C1413 C1419 1.390 . S
C1414 H1405 0.930 . S
C1414 C1412 1.384 . S
C1414 C1415 1.372 1_554 S
C1415 C1414 1.372 1_556 S
C1415 C1416 1.400 . S
C1415 C1420 1.490 1_556 S
C1416 H1406 0.930 . S
C1416 C1415 1.400 . S
C1416 C1419 1.386 . S
H1417 C1433 0.930 1_556 S
H1418 C1434 0.931 1_556 S
C1419 H1407 0.929 . S
C1419 C1413 1.390 . S
C1419 C1416 1.386 . S
C1420 C1415 1.490 1_554 S
C1420 C1422 1.395 . S
C1420 C1423 1.403 1_554 S
H1421 C1427 0.930 . S
C1422 H1408 0.930 . S
C1422 C1420 1.395 . S
C1422 C1425 1.403 1_565 S
C1423 C1420 1.403 1_556 S
C1423 C1424 1.524 . S
C1423 C1427 1.400 1_565 S
C1424 H1409 0.960 . S
C1424 H1410 0.960 . S
C1424 H1411 0.960 . S
C1424 C1423 1.524 . S
C1425 C1422 1.403 1_545 S
C1425 C1426 1.392 . S
C1425 C1429 1.495 . S
C1426 C1425 1.392 . S
C1426 C1427 1.385 1_554 S
C1426 C1428 1.478 . S
C1427 H1421 0.930 . S
C1427 C1423 1.400 1_545 S
C1427 C1426 1.385 1_556 S
C1428 C1426 1.478 . S
C1428 C1430 1.381 . S
C1428 C1434 1.383 . S
C1429 C1425 1.495 . S
C1429 H1435 0.959 . S
C1429 H1436 0.961 . S
C1429 H1437 0.960 . S
C1430 C1428 1.381 . S
C1430 C1431 1.394 . S
C1430 H1438 0.930 . S
C1431 C1430 1.394 . S
C1431 C1432 1.383 . S
C1431 H1439 0.929 . S
C1432 C1431 1.383 . S
C1432 C1433 1.377 . S
C1433 H1417 0.930 1_554 S
C1433 C1432 1.377 . S
C1433 C1434 1.379 . S
C1434 H1418 0.931 1_554 S
C1434 C1428 1.383 . S
C1434 C1433 1.379 . S
H1435 C1429 0.959 . S
H1436 C1429 0.961 . S
H1437 C1429 0.960 . S
H1438 C1430 0.930 . S
H1439 C1431 0.929 . S
H1440 C1448 0.929 . S
H1441 C1450 0.930 . S
H1442 C1452 0.930 . S
H1443 C1455 0.929 . S
H1444 C1458 0.930 . S
H1445 C1460 0.960 . S
H1446 C1460 0.960 . S
H1447 C1460 0.960 . S
C1448 H1440 0.929 . S
C1448 C1449 1.377 1_556 S
C1448 C1450 1.384 . S
C1449 C1448 1.377 1_554 S
C1449 C1455 1.390 . S
C1450 H1441 0.930 . S
C1450 C1448 1.384 . S
C1450 C1451 1.372 1_556 S
C1451 C1450 1.372 1_554 S
C1451 C1452 1.400 . S
C1451 C1456 1.490 . S
C1452 H1442 0.930 . S
C1452 C1451 1.400 . S
C1452 C1455 1.386 . S
H1453 C1469 0.930 . S
H1454 C1470 0.931 . S
C1455 H1443 0.929 . S
C1455 C1449 1.390 . S
C1455 C1452 1.386 . S
C1456 C1451 1.490 . S
C1456 C1458 1.395 . S
C1456 C1459 1.403 1_554 S
H1457 C1463 0.930 . S
C1458 H1444 0.930 . S
C1458 C1456 1.395 . S
C1458 C1461 1.403 . S
C1459 C1456 1.403 1_556 S
C1459 C1460 1.524 . S
C1459 C1463 1.400 . S
C1460 H1445 0.960 . S
C1460 H1446 0.960 . S
C1460 H1447 0.960 . S
C1460 C1459 1.524 . S
C1461 C1458 1.403 . S
C1461 C1462 1.392 . S
C1461 C1465 1.495 . S
C1462 C1461 1.392 . S
C1462 C1463 1.385 1_554 S
C1462 C1464 1.478 . S
C1463 H1457 0.930 . S
C1463 C1459 1.400 . S
C1463 C1462 1.385 1_556 S
C1464 C1462 1.478 . S
C1464 C1466 1.381 1_554 S
C1464 C1470 1.383 . S
C1465 C1461 1.495 . S
C1465 H1471 0.959 . S
C1465 H1472 0.961 . S
C1465 H1473 0.960 . S
C1466 C1464 1.381 1_556 S
C1466 C1467 1.394 . S
C1466 H1474 0.930 . S
C1467 C1466 1.394 . S
C1467 C1468 1.383 . S
C1467 H1475 0.929 . S
C1468 C1467 1.383 . S
C1468 C1469 1.377 1_556 S
C1469 H1453 0.930 . S
C1469 C1468 1.377 1_554 S
C1469 C1470 1.379 . S
C1470 H1454 0.931 . S
C1470 C1464 1.383 . S
C1470 C1469 1.379 . S
H1471 C1465 0.959 . S
H1472 C1465 0.961 . S
H1473 C1465 0.960 . S
H1474 C1466 0.930 . S
H1475 C1467 0.929 . S
C405 C285 1.591 . S
C424 C21 1.587 1_554 S
C441 C54 1.591 . S
C460 C318 1.588 . S
C477 C351 1.590 . S
C496 C87 1.592 1_554 S
C513 C384 1.589 . S
C532 C120 1.593 . S
C549 C153 1.590 . S
C568 C219 1.592 . S
C585 C252 1.591 . S
C604 C186 1.581 . S
C621 C348 1.116 . S
C640 C18 1.117 . S
C657 C381 1.116 . S
C676 C51 1.104 . S
C693 C84 1.116 . S
C712 C216 1.117 . S
C729 C249 1.120 . S
C748 C117 1.129 . S
C765 C282 1.120 . S
C784 C150 1.129 . S
C801 C315 1.120 . S
C820 C183 1.129 . S
C837 N13 1.441 . S
C856 N2 1.437 . S
C873 N46 1.453 . S
C892 N35 1.461 . S
C909 N79 1.445 . S
C928 N68 1.460 . S
C945 N112 1.452 . S
C964 N101 1.466 . S
C981 N134 1.449 . S
C1000 N145 1.442 . S
C1017 N178 1.441 . S
C1036 N167 1.422 . S
C1053 N200 1.438 . S
C1072 N211 1.421 . S
C1089 N244 1.442 . S
C1108 N233 1.441 . S
C1125 N266 1.449 . S
C1144 N277 1.446 . S
C1161 N299 1.449 . S
C1180 N310 1.451 . S
C1197 N343 1.442 . S
C1216 N332 1.446 . S
C1233 N376 1.442 . S
C1252 N365 1.438 . S
C1269 C7 1.122 . S
C1288 C370 1.089 . S
C1305 C205 1.123 . S
C1324 C40 1.100 . S
C1341 C238 1.115 . S
C1360 C73 1.103 . S
C1377 C271 1.117 . S
C1396 C106 1.097 . S
C1413 C139 1.122 . S
C1432 C304 1.113 . S
C1449 C337 1.116 . S
C1468 C172 1.096 . S
