# Generated by pormake.
# Topology umq, (4)-cn, num edge types: 1
# Building blocks:
#     Node 0, Type 0, BuildingBlock: KUFVIS_clean_sbu_0, # of connection points: 4
#     Node 1, Type 0, BuildingBlock: KUFVIS_clean_sbu_0, # of connection points: 4
#     Node 2, Type 0, BuildingBlock: KUFVIS_clean_sbu_0, # of connection points: 4
#     Node 3, Type 0, BuildingBlock: KUFVIS_clean_sbu_0, # of connection points: 4
#     Node 4, Type 0, BuildingBlock: KUFVIS_clean_sbu_0, # of connection points: 4
#     Node 5, Type 0, BuildingBlock: KUFVIS_clean_sbu_0, # of connection points: 4
#     Node 6, Type 0, BuildingBlock: KUFVIS_clean_sbu_0, # of connection points: 4
#     Node 7, Type 0, BuildingBlock: KUFVIS_clean_sbu_0, # of connection points: 4
#     Node 8, Type 0, BuildingBlock: KUFVIS_clean_sbu_0, # of connection points: 4
#     Node 9, Type 0, BuildingBlock: KUFVIS_clean_sbu_0, # of connection points: 4
#     Node 10, Type 0, BuildingBlock: KUFVIS_clean_sbu_0, # of connection points: 4
#     Node 11, Type 0, BuildingBlock: KUFVIS_clean_sbu_0, # of connection points: 4
#     Node 12, Type 0, BuildingBlock: KUFVIS_clean_sbu_0, # of connection points: 4
#     Node 13, Type 0, BuildingBlock: KUFVIS_clean_sbu_0, # of connection points: 4
#     Node 14, Type 0, BuildingBlock: KUFVIS_clean_sbu_0, # of connection points: 4
#     Node 15, Type 0, BuildingBlock: KUFVIS_clean_sbu_0, # of connection points: 4
#     Node 16, Type 0, BuildingBlock: KUFVIS_clean_sbu_0, # of connection points: 4
#     Node 17, Type 0, BuildingBlock: KUFVIS_clean_sbu_0, # of connection points: 4
#     Node 18, Type 0, BuildingBlock: KUFVIS_clean_sbu_0, # of connection points: 4
#     Node 19, Type 0, BuildingBlock: KUFVIS_clean_sbu_0, # of connection points: 4
#     Node 20, Type 0, BuildingBlock: KUFVIS_clean_sbu_0, # of connection points: 4
#     Node 21, Type 0, BuildingBlock: KUFVIS_clean_sbu_0, # of connection points: 4
#     Node 22, Type 0, BuildingBlock: KUFVIS_clean_sbu_0, # of connection points: 4
#     Node 23, Type 0, BuildingBlock: KUFVIS_clean_sbu_0, # of connection points: 4
#     Node 24, Type 0, BuildingBlock: KUFVIS_clean_sbu_0, # of connection points: 4
#     Node 25, Type 0, BuildingBlock: KUFVIS_clean_sbu_0, # of connection points: 4
#     Node 26, Type 0, BuildingBlock: KUFVIS_clean_sbu_0, # of connection points: 4
#     Node 27, Type 0, BuildingBlock: KUFVIS_clean_sbu_0, # of connection points: 4
#     Node 28, Type 0, BuildingBlock: KUFVIS_clean_sbu_0, # of connection points: 4
#     Node 29, Type 0, BuildingBlock: KUFVIS_clean_sbu_0, # of connection points: 4
#     Node 30, Type 0, BuildingBlock: KUFVIS_clean_sbu_0, # of connection points: 4
#     Node 31, Type 0, BuildingBlock: KUFVIS_clean_sbu_0, # of connection points: 4
#     Edge 32, Type (0, 0), BuildingBlock: XUDNAN_clean_linker_2, # of connection points: 2
#     Edge 33, Type (0, 0), BuildingBlock: XUDNAN_clean_linker_2, # of connection points: 2
#     Edge 34, Type (0, 0), BuildingBlock: XUDNAN_clean_linker_2, # of connection points: 2
#     Edge 35, Type (0, 0), BuildingBlock: XUDNAN_clean_linker_2, # of connection points: 2
#     Edge 36, Type (0, 0), BuildingBlock: XUDNAN_clean_linker_2, # of connection points: 2
#     Edge 37, Type (0, 0), BuildingBlock: XUDNAN_clean_linker_2, # of connection points: 2
#     Edge 38, Type (0, 0), BuildingBlock: XUDNAN_clean_linker_2, # of connection points: 2
#     Edge 39, Type (0, 0), BuildingBlock: XUDNAN_clean_linker_2, # of connection points: 2
#     Edge 40, Type (0, 0), BuildingBlock: XUDNAN_clean_linker_2, # of connection points: 2
#     Edge 41, Type (0, 0), BuildingBlock: XUDNAN_clean_linker_2, # of connection points: 2
#     Edge 42, Type (0, 0), BuildingBlock: XUDNAN_clean_linker_2, # of connection points: 2
#     Edge 43, Type (0, 0), BuildingBlock: XUDNAN_clean_linker_2, # of connection points: 2
#     Edge 44, Type (0, 0), BuildingBlock: XUDNAN_clean_linker_2, # of connection points: 2
#     Edge 45, Type (0, 0), BuildingBlock: XUDNAN_clean_linker_2, # of connection points: 2
#     Edge 46, Type (0, 0), BuildingBlock: XUDNAN_clean_linker_2, # of connection points: 2
#     Edge 47, Type (0, 0), BuildingBlock: XUDNAN_clean_linker_2, # of connection points: 2
#     Edge 48, Type (0, 0), BuildingBlock: XUDNAN_clean_linker_2, # of connection points: 2
#     Edge 49, Type (0, 0), BuildingBlock: XUDNAN_clean_linker_2, # of connection points: 2
#     Edge 50, Type (0, 0), BuildingBlock: XUDNAN_clean_linker_2, # of connection points: 2
#     Edge 51, Type (0, 0), BuildingBlock: XUDNAN_clean_linker_2, # of connection points: 2
#     Edge 52, Type (0, 0), BuildingBlock: XUDNAN_clean_linker_2, # of connection points: 2
#     Edge 53, Type (0, 0), BuildingBlock: XUDNAN_clean_linker_2, # of connection points: 2
#     Edge 54, Type (0, 0), BuildingBlock: XUDNAN_clean_linker_2, # of connection points: 2
#     Edge 55, Type (0, 0), BuildingBlock: XUDNAN_clean_linker_2, # of connection points: 2
#     Edge 56, Type (0, 0), BuildingBlock: XUDNAN_clean_linker_2, # of connection points: 2
#     Edge 57, Type (0, 0), BuildingBlock: XUDNAN_clean_linker_2, # of connection points: 2
#     Edge 58, Type (0, 0), BuildingBlock: XUDNAN_clean_linker_2, # of connection points: 2
#     Edge 59, Type (0, 0), BuildingBlock: XUDNAN_clean_linker_2, # of connection points: 2
#     Edge 60, Type (0, 0), BuildingBlock: XUDNAN_clean_linker_2, # of connection points: 2
#     Edge 61, Type (0, 0), BuildingBlock: XUDNAN_clean_linker_2, # of connection points: 2
#     Edge 62, Type (0, 0), BuildingBlock: XUDNAN_clean_linker_2, # of connection points: 2
#     Edge 63, Type (0, 0), BuildingBlock: XUDNAN_clean_linker_2, # of connection points: 2
#     Edge 64, Type (0, 0), BuildingBlock: XUDNAN_clean_linker_2, # of connection points: 2
#     Edge 65, Type (0, 0), BuildingBlock: XUDNAN_clean_linker_2, # of connection points: 2
#     Edge 66, Type (0, 0), BuildingBlock: XUDNAN_clean_linker_2, # of connection points: 2
#     Edge 67, Type (0, 0), BuildingBlock: XUDNAN_clean_linker_2, # of connection points: 2
#     Edge 68, Type (0, 0), BuildingBlock: XUDNAN_clean_linker_2, # of connection points: 2
#     Edge 69, Type (0, 0), BuildingBlock: XUDNAN_clean_linker_2, # of connection points: 2
#     Edge 70, Type (0, 0), BuildingBlock: XUDNAN_clean_linker_2, # of connection points: 2
#     Edge 71, Type (0, 0), BuildingBlock: XUDNAN_clean_linker_2, # of connection points: 2
#     Edge 72, Type (0, 0), BuildingBlock: XUDNAN_clean_linker_2, # of connection points: 2
#     Edge 73, Type (0, 0), BuildingBlock: XUDNAN_clean_linker_2, # of connection points: 2
#     Edge 74, Type (0, 0), BuildingBlock: XUDNAN_clean_linker_2, # of connection points: 2
#     Edge 75, Type (0, 0), BuildingBlock: XUDNAN_clean_linker_2, # of connection points: 2
#     Edge 76, Type (0, 0), BuildingBlock: XUDNAN_clean_linker_2, # of connection points: 2
#     Edge 77, Type (0, 0), BuildingBlock: XUDNAN_clean_linker_2, # of connection points: 2
#     Edge 78, Type (0, 0), BuildingBlock: XUDNAN_clean_linker_2, # of connection points: 2
#     Edge 79, Type (0, 0), BuildingBlock: XUDNAN_clean_linker_2, # of connection points: 2
#     Edge 80, Type (0, 0), BuildingBlock: XUDNAN_clean_linker_2, # of connection points: 2
#     Edge 81, Type (0, 0), BuildingBlock: XUDNAN_clean_linker_2, # of connection points: 2
#     Edge 82, Type (0, 0), BuildingBlock: XUDNAN_clean_linker_2, # of connection points: 2
#     Edge 83, Type (0, 0), BuildingBlock: XUDNAN_clean_linker_2, # of connection points: 2
#     Edge 84, Type (0, 0), BuildingBlock: XUDNAN_clean_linker_2, # of connection points: 2
#     Edge 85, Type (0, 0), BuildingBlock: XUDNAN_clean_linker_2, # of connection points: 2
#     Edge 86, Type (0, 0), BuildingBlock: XUDNAN_clean_linker_2, # of connection points: 2
#     Edge 87, Type (0, 0), BuildingBlock: XUDNAN_clean_linker_2, # of connection points: 2
#     Edge 88, Type (0, 0), BuildingBlock: XUDNAN_clean_linker_2, # of connection points: 2
#     Edge 89, Type (0, 0), BuildingBlock: XUDNAN_clean_linker_2, # of connection points: 2
#     Edge 90, Type (0, 0), BuildingBlock: XUDNAN_clean_linker_2, # of connection points: 2
#     Edge 91, Type (0, 0), BuildingBlock: XUDNAN_clean_linker_2, # of connection points: 2
#     Edge 92, Type (0, 0), BuildingBlock: XUDNAN_clean_linker_2, # of connection points: 2
#     Edge 93, Type (0, 0), BuildingBlock: XUDNAN_clean_linker_2, # of connection points: 2
#     Edge 94, Type (0, 0), BuildingBlock: XUDNAN_clean_linker_2, # of connection points: 2
#     Edge 95, Type (0, 0), BuildingBlock: XUDNAN_clean_linker_2, # of connection points: 2
# Relax obj value: 0.076
# Max RMSD: 0.055
# Mean RMSD: 0.055
data_MOF--net-umq--node1-KUFVIS_clean_sbu_0--edge1-XUDNAN_clean_linker_2
_symmetry_space_group_name_H-M    P1
_symmetry_Int_Tables_number       1
_symmetry_cell_setting            triclinic
loop_
_symmetry_equiv_pos_as_xyz
'x, y, z'
_cell_length_a     65.8542
_cell_length_b     65.892692
_cell_length_c     43.490357
_cell_angle_alpha  90.053394
_cell_angle_beta   90.06373
_cell_angle_gamma 89.994591
loop_
_atom_site_label
_atom_site_type_symbol
_atom_site_fract_x
_atom_site_fract_y
_atom_site_fract_z
_atom_type_partial_charge
Mn0 Mn 0.23687 0.10269 0.18445 0.0
Mn1 Mn 0.21865 0.13817 0.13563 0.0
C2 C 0.21618 0.12884 0.20253 0.0
C3 C 0.23358 0.07048 0.20739 0.0
C4 C 0.26102 0.14026 0.16233 0.0
O5 O 0.2425 0.08973 0.14252 0.0
O6 O 0.231 0.11528 0.11314 0.0
C7 C 0.18564 0.11173 0.11244 0.0
N8 N 0.19172 0.1294 0.12587 0.0
C9 C 0.15715 0.1407 0.13105 0.0
C10 C 0.15052 0.12265 0.11719 0.0
C11 C 0.16484 0.10808 0.10792 0.0
C12 C 0.17805 0.14331 0.13547 0.0
H13 H 0.19656 0.10045 0.10531 0.0
C14 C 0.23938 0.09798 0.11647 0.0
O15 O 0.25111 0.07948 0.20569 0.0
O16 O 0.21828 0.08012 0.19567 0.0
N17 N 0.20602 0.16164 0.15285 0.0
C18 C 0.21513 0.17938 0.16114 0.0
C19 C 0.20311 0.19641 0.16773 0.0
C20 C 0.18185 0.19499 0.16614 0.0
C21 C 0.17284 0.17679 0.15662 0.0
C22 C 0.18565 0.16059 0.14908 0.0
H23 H 0.23147 0.18066 0.16192 0.0
O24 O 0.2275 0.11852 0.22126 0.0
O25 O 0.21661 0.12296 0.17401 0.0
O26 O 0.25996 0.12339 0.177 0.0
O27 O 0.24628 0.14764 0.14656 0.0
C28 C 0.15173 0.17446 0.15273 0.0
C29 C 0.14386 0.15631 0.14028 0.0
H30 H 0.1345 0.11987 0.1134 0.0
H31 H 0.15985 0.0941 0.09723 0.0
H32 H 0.21023 0.21067 0.17372 0.0
H33 H 0.17262 0.20816 0.1713 0.0
H34 H 0.14144 0.18666 0.15871 0.0
H35 H 0.12762 0.15473 0.13717 0.0
Mn36 Mn 0.91006 0.24442 0.18396 0.0
Mn37 Mn 0.87831 0.21881 0.13661 0.0
C38 C 0.8857 0.22223 0.20412 0.0
C39 C 0.94156 0.24883 0.20854 0.0
C40 C 0.87214 0.26307 0.15379 0.0
O41 O 0.92337 0.24834 0.14168 0.0
O42 O 0.90212 0.22899 0.11379 0.0
C43 C 0.90684 0.18468 0.12661 0.0
N44 N 0.88809 0.1915 0.13483 0.0
C45 C 0.87657 0.15751 0.14483 0.0
C46 C 0.89562 0.15008 0.13586 0.0
C47 C 0.91088 0.16376 0.12695 0.0
C48 C 0.8736 0.17855 0.14464 0.0
H49 H 0.91868 0.19514 0.12019 0.0
C50 C 0.91791 0.24009 0.11644 0.0
O51 O 0.92955 0.26387 0.20241 0.0
O52 O 0.93524 0.23087 0.20061 0.0
N53 N 0.8543 0.20748 0.15428 0.0
C54 C 0.8362 0.21699 0.15901 0.0
C55 C 0.81876 0.20538 0.16475 0.0
C56 C 0.82012 0.18414 0.16597 0.0
C57 C 0.83885 0.17466 0.16109 0.0
C58 C 0.85553 0.18697 0.15409 0.0
H59 H 0.8349 0.23327 0.15736 0.0
O60 O 0.8942 0.23589 0.22139 0.0
O61 O 0.89242 0.22133 0.17612 0.0
O62 O 0.88753 0.2639 0.17157 0.0
O63 O 0.86714 0.24704 0.13882 0.0
C64 C 0.8414 0.15343 0.16133 0.0
C65 C 0.86036 0.14486 0.15368 0.0
H66 H 0.89872 0.13394 0.13581 0.0
H67 H 0.9257 0.15818 0.12033 0.0
H68 H 0.80425 0.21279 0.16791 0.0
H69 H 0.80658 0.17521 0.17007 0.0
H70 H 0.82881 0.14354 0.16704 0.0
H71 H 0.86216 0.12852 0.15397 0.0
Mn72 Mn 0.77102 0.91026 0.18181 0.0
Mn73 Mn 0.79432 0.87717 0.13394 0.0
C74 C 0.79416 0.88672 0.20101 0.0
C75 C 0.76718 0.94211 0.20551 0.0
C76 C 0.75228 0.86984 0.15855 0.0
O77 O 0.76506 0.92271 0.13962 0.0
O78 O 0.77913 0.8981 0.11099 0.0
C79 C 0.82359 0.90796 0.11166 0.0
N80 N 0.81988 0.88964 0.12502 0.0
C81 C 0.85562 0.88349 0.13186 0.0
C82 C 0.85982 0.90226 0.11812 0.0
C83 C 0.84372 0.91457 0.10805 0.0
C84 C 0.83524 0.8779 0.1354 0.0
H85 H 0.81131 0.91752 0.1039 0.0
C86 C 0.76901 0.9145 0.11379 0.0
O87 O 0.75207 0.92984 0.20122 0.0
O88 O 0.78487 0.9359 0.19612 0.0
N89 N 0.80992 0.85564 0.15132 0.0
C90 C 0.80335 0.83655 0.15797 0.0
C91 C 0.81758 0.82133 0.16455 0.0
C92 C 0.8384 0.82595 0.16493 0.0
C93 C 0.84486 0.84541 0.15651 0.0
C94 C 0.82998 0.85968 0.14865 0.0
H95 H 0.78739 0.83283 0.15733 0.0
O96 O 0.78112 0.89545 0.21903 0.0
O97 O 0.79405 0.89276 0.17252 0.0
O98 O 0.75133 0.88696 0.17235 0.0
O99 O 0.76807 0.86375 0.14396 0.0
C100 C 0.86547 0.8508 0.15369 0.0
C101 C 0.87085 0.86994 0.1417 0.0
H102 H 0.87533 0.90731 0.115 0.0
H103 H 0.84683 0.92909 0.09742 0.0
H104 H 0.81251 0.806 0.16896 0.0
H105 H 0.84932 0.81418 0.17036 0.0
H106 H 0.87731 0.84016 0.15997 0.0
H107 H 0.88675 0.87384 0.13929 0.0
Mn108 Mn 0.10353 0.76795 0.18397 0.0
Mn109 Mn 0.13734 0.7938 0.14054 0.0
C110 C 0.12674 0.79006 0.207 0.0
C111 C 0.07108 0.76379 0.20555 0.0
C112 C 0.14319 0.74966 0.1586 0.0
O113 O 0.09215 0.76414 0.14034 0.0
O114 O 0.11495 0.7831 0.11484 0.0
C115 C 0.10885 0.82738 0.12669 0.0
N116 N 0.12722 0.82093 0.13732 0.0
C117 C 0.13728 0.85513 0.14935 0.0
C118 C 0.11868 0.86217 0.13784 0.0
C119 C 0.10434 0.84821 0.12667 0.0
C120 C 0.14079 0.83417 0.14915 0.0
H121 H 0.09763 0.8167 0.11869 0.0
C122 C 0.09899 0.77209 0.11569 0.0
O123 O 0.08311 0.74859 0.20037 0.0
O124 O 0.07782 0.78165 0.19806 0.0
N125 N 0.1601 0.80564 0.16113 0.0
C126 C 0.17799 0.79652 0.16865 0.0
C127 C 0.19456 0.80847 0.17778 0.0
C128 C 0.19253 0.82966 0.17951 0.0
C129 C 0.17411 0.83874 0.17127 0.0
C130 C 0.1584 0.82611 0.16107 0.0
H131 H 0.1798 0.78028 0.16691 0.0
O132 O 0.11758 0.77627 0.22311 0.0
O133 O 0.12137 0.79112 0.17831 0.0
O134 O 0.12672 0.74849 0.17393 0.0
O135 O 0.14883 0.76582 0.14453 0.0
C136 C 0.17101 0.8599 0.17158 0.0
C137 C 0.15249 0.86808 0.16098 0.0
H138 H 0.1152 0.87824 0.13765 0.0
H139 H 0.08983 0.85348 0.11813 0.0
H140 H 0.20893 0.80138 0.18327 0.0
H141 H 0.20535 0.83885 0.18656 0.0
H142 H 0.18282 0.87002 0.17968 0.0
H143 H 0.15024 0.88436 0.16139 0.0
Mn144 Mn 0.24078 0.90554 0.33611 0.0
Mn145 Mn 0.22503 0.87184 0.38941 0.0
C146 C 0.22027 0.87796 0.3218 0.0
C147 C 0.23598 0.93661 0.31041 0.0
C148 C 0.26711 0.87057 0.36135 0.0
O149 O 0.24679 0.92052 0.37636 0.0
O150 O 0.23571 0.89664 0.40913 0.0
C151 C 0.19023 0.89673 0.41026 0.0
N152 N 0.19761 0.87891 0.39894 0.0
C153 C 0.16423 0.86411 0.39819 0.0
C154 C 0.15627 0.88227 0.40992 0.0
C155 C 0.16932 0.89868 0.41583 0.0
C156 C 0.18512 0.86326 0.39231 0.0
H157 H 0.20021 0.90935 0.41496 0.0
C158 C 0.24361 0.9139 0.40343 0.0
O159 O 0.2538 0.92819 0.31208 0.0
O160 O 0.2212 0.92701 0.3236 0.0
N161 N 0.21419 0.84669 0.37507 0.0
C162 C 0.22474 0.82954 0.36792 0.0
C163 C 0.21436 0.81106 0.36488 0.0
C164 C 0.19326 0.81037 0.36933 0.0
C165 C 0.18272 0.82815 0.37684 0.0
C166 C 0.19398 0.846 0.3805 0.0
H167 H 0.24104 0.82983 0.36537 0.0
O168 O 0.23094 0.88775 0.30163 0.0
O169 O 0.22141 0.88511 0.3496 0.0
O170 O 0.26483 0.88619 0.34415 0.0
O171 O 0.25319 0.86378 0.37915 0.0
C172 C 0.16165 0.82863 0.38243 0.0
C173 C 0.15236 0.8467 0.39266 0.0
H174 H 0.14019 0.88373 0.41468 0.0
H175 H 0.16329 0.91276 0.42487 0.0
H176 H 0.22263 0.79733 0.35943 0.0
H177 H 0.18533 0.79603 0.36732 0.0
H178 H 0.15252 0.8151 0.3794 0.0
H179 H 0.13617 0.84687 0.39705 0.0
Mn180 Mn 0.10804 0.2499 0.33387 0.0
Mn181 Mn 0.13963 0.22633 0.38353 0.0
C182 C 0.1329 0.22742 0.31557 0.0
C183 C 0.07661 0.25266 0.30852 0.0
C184 C 0.14461 0.27045 0.36443 0.0
O185 O 0.09431 0.25469 0.37565 0.0
O186 O 0.11473 0.23529 0.40492 0.0
C187 C 0.11328 0.19053 0.39361 0.0
N188 N 0.13165 0.19848 0.38586 0.0
C189 C 0.14593 0.16521 0.37892 0.0
C190 C 0.12726 0.15664 0.38733 0.0
C191 C 0.11081 0.16937 0.39445 0.0
C192 C 0.1473 0.1864 0.37771 0.0
H193 H 0.10058 0.20027 0.39888 0.0
C194 C 0.099 0.24637 0.40118 0.0
O195 O 0.08817 0.26822 0.31372 0.0
O196 O 0.08334 0.23518 0.31791 0.0
N197 N 0.16462 0.21638 0.36709 0.0
C198 C 0.18199 0.2271 0.36201 0.0
C199 C 0.20038 0.21674 0.35788 0.0
C200 C 0.20076 0.19546 0.35896 0.0
C201 C 0.1827 0.1847 0.36368 0.0
C202 C 0.16495 0.19588 0.36873 0.0
H203 H 0.18197 0.24346 0.36202 0.0
O204 O 0.12431 0.24045 0.29736 0.0
O205 O 0.12604 0.22742 0.34351 0.0
O206 O 0.13003 0.27032 0.34515 0.0
O207 O 0.1492 0.25509 0.38113 0.0
C208 C 0.18179 0.16335 0.36495 0.0
C209 C 0.16332 0.1536 0.37206 0.0
H210 H 0.12539 0.14032 0.38839 0.0
H211 H 0.09629 0.16289 0.40071 0.0
H212 H 0.21429 0.22515 0.35421 0.0
H213 H 0.21505 0.18753 0.35609 0.0
H214 H 0.19524 0.15431 0.36076 0.0
H215 H 0.16277 0.13718 0.37292 0.0
Mn216 Mn 0.76929 0.10792 0.33258 0.0
Mn217 Mn 0.79144 0.13998 0.38319 0.0
C218 C 0.79279 0.13195 0.31584 0.0
C219 C 0.76604 0.07665 0.30694 0.0
C220 C 0.74983 0.14764 0.35711 0.0
O221 O 0.7627 0.09439 0.37375 0.0
O222 O 0.77591 0.11848 0.4043 0.0
C223 C 0.82033 0.10881 0.40553 0.0
N224 N 0.81684 0.12739 0.39287 0.0
C225 C 0.85267 0.13395 0.38884 0.0
C226 C 0.85665 0.11491 0.40188 0.0
C227 C 0.84039 0.10226 0.41017 0.0
C228 C 0.83236 0.13946 0.38413 0.0
H229 H 0.80793 0.099 0.41199 0.0
C230 C 0.76605 0.10205 0.40016 0.0
O231 O 0.7508 0.08878 0.31118 0.0
O232 O 0.78351 0.08268 0.31751 0.0
N233 N 0.80732 0.16189 0.3676 0.0
C234 C 0.8008 0.18103 0.36112 0.0
C235 C 0.81508 0.19649 0.35632 0.0
C236 C 0.83593 0.19209 0.35773 0.0
C237 C 0.84229 0.1725 0.36554 0.0
C238 C 0.82733 0.15793 0.37146 0.0
H239 H 0.7848 0.1846 0.36057 0.0
O240 O 0.78008 0.1237 0.29675 0.0
O241 O 0.79209 0.1252 0.34392 0.0
O242 O 0.74927 0.13084 0.34243 0.0
O243 O 0.76534 0.15355 0.37258 0.0
C244 C 0.86285 0.16722 0.36963 0.0
C245 C 0.86805 0.14785 0.3809 0.0
H246 H 0.8721 0.10991 0.40584 0.0
H247 H 0.84332 0.08753 0.42025 0.0
H248 H 0.81003 0.21184 0.35195 0.0
H249 H 0.8469 0.20408 0.35399 0.0
H250 H 0.87475 0.17811 0.36485 0.0
H251 H 0.88389 0.14402 0.38428 0.0
Mn252 Mn 0.90461 0.76639 0.33042 0.0
Mn253 Mn 0.87294 0.78987 0.38008 0.0
C254 C 0.87973 0.78894 0.31224 0.0
C255 C 0.93594 0.76324 0.30494 0.0
C256 C 0.8683 0.74567 0.36113 0.0
O257 O 0.91836 0.76173 0.37234 0.0
O258 O 0.89797 0.78129 0.40148 0.0
C259 C 0.89881 0.82607 0.38996 0.0
N260 N 0.88054 0.81783 0.38225 0.0
C261 C 0.86585 0.85088 0.37482 0.0
C262 C 0.88441 0.85974 0.38319 0.0
C263 C 0.90102 0.84726 0.39054 0.0
C264 C 0.86474 0.82967 0.37394 0.0
H265 H 0.91163 0.81652 0.39535 0.0
C266 C 0.91371 0.77021 0.39781 0.0
O267 O 0.92424 0.74786 0.31035 0.0
O268 O 0.92943 0.78085 0.31425 0.0
N269 N 0.84783 0.79942 0.36345 0.0
C270 C 0.83064 0.78845 0.3581 0.0
C271 C 0.81213 0.79854 0.35365 0.0
C272 C 0.81146 0.81982 0.35457 0.0
C273 C 0.82936 0.83084 0.35948 0.0
C274 C 0.84723 0.81992 0.36492 0.0
H275 H 0.83089 0.77209 0.35818 0.0
O276 O 0.88823 0.77592 0.2939 0.0
O277 O 0.88662 0.78885 0.34016 0.0
O278 O 0.88269 0.746 0.34162 0.0
O279 O 0.86368 0.76097 0.37796 0.0
C280 C 0.83001 0.85221 0.36046 0.0
C281 C 0.84835 0.86224 0.36763 0.0
H282 H 0.88609 0.87609 0.38402 0.0
H283 H 0.91546 0.85396 0.39675 0.0
H284 H 0.79836 0.78994 0.34983 0.0
H285 H 0.79708 0.82755 0.35151 0.0
H286 H 0.81647 0.86106 0.35596 0.0
H287 H 0.8487 0.87867 0.36823 0.0
Mn288 Mn 0.76754 0.90684 0.83138 0.0
Mn289 Mn 0.79141 0.8738 0.8785 0.0
C290 C 0.7907 0.8836 0.81164 0.0
C291 C 0.76355 0.93854 0.80761 0.0
C292 C 0.74906 0.86648 0.85493 0.0
O293 O 0.76221 0.91934 0.87369 0.0
O294 O 0.77659 0.89478 0.90212 0.0
C295 C 0.8211 0.90429 0.90072 0.0
N296 N 0.81713 0.88609 0.88705 0.0
C297 C 0.85276 0.87973 0.87951 0.0
C298 C 0.85722 0.89836 0.89357 0.0
C299 C 0.8413 0.91071 0.90415 0.0
C300 C 0.83231 0.87429 0.87626 0.0
H301 H 0.80895 0.91387 0.90887 0.0
C302 C 0.76652 0.91124 0.89946 0.0
O303 O 0.7484 0.92637 0.81228 0.0
O304 O 0.78128 0.93235 0.81684 0.0
N305 N 0.80671 0.85238 0.86013 0.0
C306 C 0.79993 0.83361 0.85193 0.0
C307 C 0.81399 0.8185 0.84403 0.0
C308 C 0.83486 0.82289 0.84417 0.0
C309 C 0.84152 0.84206 0.85377 0.0
C310 C 0.82682 0.85624 0.86263 0.0
H311 H 0.78392 0.83006 0.85217 0.0
O312 O 0.77727 0.89205 0.79396 0.0
O313 O 0.79076 0.88958 0.84017 0.0
O314 O 0.74793 0.88358 0.84119 0.0
O315 O 0.76503 0.86044 0.8691 0.0
C316 C 0.8622 0.84728 0.85643 0.0
C317 C 0.86781 0.8662 0.869 0.0
H318 H 0.87279 0.90329 0.89651 0.0
H319 H 0.84461 0.92513 0.91501 0.0
H320 H 0.80876 0.80343 0.83813 0.0
H321 H 0.84567 0.81121 0.83791 0.0
H322 H 0.8739 0.83669 0.84942 0.0
H323 H 0.88375 0.86999 0.87119 0.0
Mn324 Mn 0.10552 0.7707 0.83177 0.0
Mn325 Mn 0.14091 0.78981 0.87984 0.0
C326 C 0.13186 0.79118 0.81253 0.0
C327 C 0.0731 0.77451 0.8093 0.0
C328 C 0.14127 0.74605 0.85689 0.0
O329 O 0.09308 0.76561 0.87443 0.0
O330 O 0.11617 0.78237 0.90285 0.0
C331 C 0.11828 0.82739 0.89467 0.0
N332 N 0.13555 0.81814 0.8847 0.0
C333 C 0.15237 0.85024 0.87832 0.0
C334 C 0.13487 0.86013 0.88899 0.0
C335 C 0.11769 0.84865 0.89695 0.0
C336 C 0.15184 0.82907 0.8758 0.0
H337 H 0.10502 0.81863 0.90059 0.0
C338 C 0.09949 0.77267 0.90001 0.0
O339 O 0.08175 0.75681 0.81114 0.0
O340 O 0.08313 0.78961 0.82083 0.0
N341 N 0.16608 0.79804 0.86194 0.0
C342 C 0.18225 0.78604 0.85477 0.0
C343 C 0.20128 0.79491 0.84949 0.0
C344 C 0.20351 0.81606 0.85156 0.0
C345 C 0.18665 0.82816 0.85855 0.0
C346 C 0.16823 0.81838 0.86465 0.0
H347 H 0.18083 0.76975 0.85394 0.0
O348 O 0.12116 0.77981 0.79437 0.0
O349 O 0.12621 0.79081 0.84106 0.0
O350 O 0.12583 0.74752 0.83907 0.0
O351 O 0.14749 0.76059 0.87416 0.0
C352 C 0.18763 0.84945 0.86108 0.0
C353 C 0.17038 0.86053 0.87048 0.0
H354 H 0.13447 0.8765 0.89116 0.0
H355 H 0.10407 0.85615 0.90497 0.0
H356 H 0.21425 0.78547 0.84413 0.0
H357 H 0.21828 0.82283 0.84777 0.0
H358 H 0.20163 0.85744 0.85612 0.0
H359 H 0.17129 0.8769 0.8723 0.0
Mn360 Mn 0.2371 0.10768 0.83585 0.0
Mn361 Mn 0.21739 0.14236 0.88453 0.0
C362 C 0.21628 0.1335 0.81743 0.0
C363 C 0.23449 0.07572 0.81182 0.0
C364 C 0.26006 0.14563 0.85974 0.0
O365 O 0.24198 0.09436 0.87757 0.0
O366 O 0.23008 0.11961 0.90725 0.0
C367 C 0.18479 0.11501 0.90646 0.0
N368 N 0.19057 0.13284 0.89326 0.0
C369 C 0.15579 0.14317 0.88681 0.0
C370 C 0.14946 0.12496 0.90042 0.0
C371 C 0.16404 0.1108 0.91021 0.0
C372 C 0.17667 0.14637 0.88322 0.0
H373 H 0.1959 0.10405 0.914 0.0
C374 C 0.23859 0.10235 0.90371 0.0
O375 O 0.25195 0.08479 0.81455 0.0
O376 O 0.21897 0.08511 0.82324 0.0
N377 N 0.20435 0.1655 0.86693 0.0
C378 C 0.21307 0.18336 0.85836 0.0
C379 C 0.20066 0.19994 0.85086 0.0
C380 C 0.17943 0.19796 0.85195 0.0
C381 C 0.17082 0.17961 0.8616 0.0
C382 C 0.18398 0.16385 0.86989 0.0
H383 H 0.22937 0.18506 0.8579 0.0
O384 O 0.22827 0.12369 0.79906 0.0
O385 O 0.21626 0.12737 0.84583 0.0
O386 O 0.2597 0.12869 0.84506 0.0
O387 O 0.24485 0.15268 0.87473 0.0
C388 C 0.14973 0.17669 0.86472 0.0
C389 C 0.14221 0.15837 0.87701 0.0
H390 H 0.13347 0.12173 0.90359 0.0
H391 H 0.15929 0.09669 0.92071 0.0
H392 H 0.20744 0.2143 0.84456 0.0
H393 H 0.1699 0.2108 0.84621 0.0
H394 H 0.13918 0.18854 0.85818 0.0
H395 H 0.12597 0.15633 0.87949 0.0
Mn396 Mn 0.90668 0.2399 0.83622 0.0
Mn397 Mn 0.87297 0.22027 0.88638 0.0
C398 C 0.8801 0.21918 0.81864 0.0
C399 C 0.93835 0.23707 0.81163 0.0
C400 C 0.87154 0.26407 0.8642 0.0
O401 O 0.92037 0.24491 0.8779 0.0
O402 O 0.89821 0.22823 0.90803 0.0
C403 C 0.89662 0.18312 0.90005 0.0
N404 N 0.87899 0.19204 0.89082 0.0
C405 C 0.86279 0.15959 0.88453 0.0
C406 C 0.88068 0.15005 0.89441 0.0
C407 C 0.89772 0.16187 0.90199 0.0
C408 C 0.86277 0.18078 0.88242 0.0
H409 H 0.90977 0.19215 0.90567 0.0
C410 C 0.91474 0.23801 0.90392 0.0
O411 O 0.92937 0.25454 0.8145 0.0
O412 O 0.92902 0.22155 0.82321 0.0
N413 N 0.84758 0.21155 0.86964 0.0
C414 C 0.8311 0.2232 0.86278 0.0
C415 C 0.81225 0.21389 0.85764 0.0
C416 C 0.81053 0.19269 0.85946 0.0
C417 C 0.82772 0.18097 0.86609 0.0
C418 C 0.84595 0.19115 0.87206 0.0
H419 H 0.83217 0.2395 0.86196 0.0
O420 O 0.88996 0.23084 0.79986 0.0
O421 O 0.88666 0.21949 0.84675 0.0
O422 O 0.88648 0.2627 0.84551 0.0
O423 O 0.86565 0.2494 0.88139 0.0
C424 C 0.82729 0.15964 0.86822 0.0
C425 C 0.84492 0.14892 0.87699 0.0
H426 H 0.8815 0.13368 0.89624 0.0
H427 H 0.91164 0.15464 0.9094 0.0
H428 H 0.79903 0.22305 0.85252 0.0
H429 H 0.7959 0.18559 0.85581 0.0
H430 H 0.81345 0.15134 0.86337 0.0
H431 H 0.84444 0.13252 0.87848 0.0
Mn432 Mn 0.76886 0.10403 0.6815 0.0
Mn433 Mn 0.79318 0.13692 0.63475 0.0
C434 C 0.792 0.12711 0.70164 0.0
C435 C 0.76445 0.07234 0.70512 0.0
C436 C 0.75097 0.14474 0.65804 0.0
O437 O 0.76352 0.09165 0.63914 0.0
O438 O 0.7779 0.11631 0.61098 0.0
C439 C 0.82224 0.10588 0.61248 0.0
N440 N 0.81865 0.12411 0.62625 0.0
C441 C 0.85439 0.12961 0.63426 0.0
C442 C 0.85846 0.11092 0.62012 0.0
C443 C 0.84231 0.09899 0.60924 0.0
C444 C 0.83406 0.13551 0.63732 0.0
H445 H 0.80991 0.09661 0.60411 0.0
C446 C 0.76772 0.0999 0.61348 0.0
O447 O 0.74944 0.08466 0.70026 0.0
O448 O 0.78228 0.07837 0.69617 0.0
N449 N 0.80892 0.15802 0.65315 0.0
C450 C 0.80256 0.17703 0.66081 0.0
C451 C 0.81695 0.19183 0.66871 0.0
C452 C 0.83769 0.18689 0.66925 0.0
C453 C 0.84394 0.16752 0.65994 0.0
C454 C 0.82894 0.15367 0.65095 0.0
H455 H 0.78666 0.181 0.6601 0.0
O456 O 0.77847 0.11867 0.71909 0.0
O457 O 0.79225 0.12114 0.67309 0.0
O458 O 0.74958 0.12752 0.6714 0.0
O459 O 0.76708 0.15076 0.64426 0.0
C460 C 0.86449 0.16181 0.65755 0.0
C461 C 0.86971 0.14276 0.64501 0.0
H462 H 0.87393 0.10565 0.61732 0.0
H463 H 0.84532 0.08454 0.59831 0.0
H464 H 0.81206 0.2071 0.67406 0.0
H465 H 0.84873 0.19833 0.67564 0.0
H466 H 0.87641 0.17213 0.66467 0.0
H467 H 0.88557 0.13861 0.64299 0.0
Mn468 Mn 0.90859 0.77411 0.67697 0.0
Mn469 Mn 0.87516 0.7943 0.62666 0.0
C470 C 0.88192 0.79471 0.69457 0.0
C471 C 0.94024 0.77691 0.7021 0.0
C472 C 0.87311 0.75044 0.6484 0.0
O473 O 0.92244 0.76921 0.63542 0.0
O474 O 0.90023 0.78578 0.60521 0.0
C475 C 0.89973 0.83088 0.61334 0.0
N476 N 0.88187 0.82238 0.62243 0.0
C477 C 0.86649 0.85521 0.62887 0.0
C478 C 0.88463 0.86433 0.6192 0.0
C479 C 0.90137 0.8521 0.6116 0.0
C480 C 0.86594 0.83401 0.63083 0.0
H481 H 0.91265 0.82154 0.60766 0.0
C482 C 0.91674 0.77596 0.60934 0.0
O483 O 0.93132 0.75943 0.69891 0.0
O484 O 0.93089 0.79241 0.69049 0.0
N485 N 0.84989 0.80359 0.643 0.0
C486 C 0.833 0.79232 0.64894 0.0
C487 C 0.81434 0.80208 0.65361 0.0
C488 C 0.81323 0.82334 0.65239 0.0
C489 C 0.83079 0.83466 0.64652 0.0
C490 C 0.84881 0.82404 0.64086 0.0
H491 H 0.83362 0.77598 0.6493 0.0
O492 O 0.89174 0.78294 0.71326 0.0
O493 O 0.88862 0.79467 0.66654 0.0
O494 O 0.88823 0.75145 0.66692 0.0
O495 O 0.86725 0.76534 0.63159 0.0
C496 C 0.83092 0.856 0.64463 0.0
C497 C 0.84886 0.8663 0.63627 0.0
H498 H 0.88587 0.88068 0.61748 0.0
H499 H 0.91547 0.859 0.60431 0.0
H500 H 0.8008 0.79322 0.65792 0.0
H501 H 0.79874 0.8308 0.6557 0.0
H502 H 0.81725 0.86462 0.64925 0.0
H503 H 0.84879 0.88271 0.63488 0.0
Mn504 Mn 0.24071 0.91097 0.68162 0.0
Mn505 Mn 0.22327 0.87636 0.63073 0.0
C506 C 0.22005 0.88427 0.69802 0.0
C507 C 0.23671 0.94263 0.70601 0.0
C508 C 0.26567 0.87453 0.65768 0.0
O509 O 0.24641 0.92482 0.64042 0.0
O510 O 0.2347 0.90019 0.60934 0.0
C511 C 0.18924 0.90205 0.6091 0.0
N512 N 0.19602 0.88432 0.62153 0.0
C513 C 0.16196 0.87141 0.62549 0.0
C514 C 0.15462 0.88949 0.61264 0.0
C515 C 0.16833 0.90491 0.60453 0.0
C516 C 0.18293 0.86961 0.63011 0.0
H517 H 0.19971 0.91395 0.60281 0.0
C518 C 0.24297 0.91745 0.61385 0.0
O519 O 0.25441 0.93397 0.70425 0.0
O520 O 0.22168 0.933 0.69349 0.0
N521 N 0.21157 0.85212 0.64692 0.0
C522 C 0.2214 0.83468 0.65477 0.0
C523 C 0.21013 0.81698 0.66017 0.0
C524 C 0.18887 0.81741 0.65769 0.0
C525 C 0.1791 0.8354 0.64908 0.0
C526 C 0.19121 0.85236 0.64284 0.0
H527 H 0.23777 0.83414 0.65605 0.0
O528 O 0.23116 0.89428 0.71741 0.0
O529 O 0.22076 0.89071 0.66982 0.0
O530 O 0.26417 0.89081 0.67374 0.0
O531 O 0.25123 0.86754 0.64092 0.0
C532 C 0.15794 0.83687 0.64485 0.0
C533 C 0.14934 0.85497 0.63344 0.0
H534 H 0.13851 0.89165 0.60876 0.0
H535 H 0.16279 0.91892 0.59463 0.0
H536 H 0.21783 0.80298 0.66588 0.0
H537 H 0.18023 0.80366 0.66159 0.0
H538 H 0.14818 0.82405 0.64983 0.0
H539 H 0.13306 0.85589 0.6301 0.0
Mn540 Mn 0.10255 0.24557 0.68065 0.0
Mn541 Mn 0.13705 0.22664 0.63118 0.0
C542 C 0.12934 0.22538 0.69884 0.0
C543 C 0.07067 0.24134 0.70425 0.0
C544 C 0.1375 0.27045 0.65383 0.0
O545 O 0.08928 0.25057 0.63866 0.0
O546 O 0.11184 0.23398 0.60907 0.0
C547 C 0.11446 0.18895 0.61683 0.0
N548 N 0.13176 0.19829 0.62656 0.0
C549 C 0.14873 0.16625 0.63293 0.0
C550 C 0.13118 0.15628 0.62261 0.0
C551 C 0.11392 0.16769 0.61474 0.0
C552 C 0.14818 0.18744 0.63523 0.0
H553 H 0.10115 0.19766 0.61089 0.0
C554 C 0.09519 0.24362 0.61279 0.0
O555 O 0.07902 0.25918 0.70216 0.0
O556 O 0.08069 0.22638 0.69236 0.0
N557 N 0.16252 0.21857 0.64834 0.0
C558 C 0.17869 0.23063 0.6553 0.0
C559 C 0.19773 0.22178 0.66071 0.0
C560 C 0.19998 0.20063 0.65885 0.0
C561 C 0.18312 0.18848 0.652 0.0
C562 C 0.16466 0.19821 0.6459 0.0
H563 H 0.17724 0.24692 0.65593 0.0
O564 O 0.11894 0.23674 0.71739 0.0
O565 O 0.12313 0.22563 0.67055 0.0
O566 O 0.12247 0.2689 0.67237 0.0
O567 O 0.14355 0.2559 0.63648 0.0
C568 C 0.18411 0.16717 0.64974 0.0
C569 C 0.16682 0.15603 0.64066 0.0
H570 H 0.13079 0.1399 0.62062 0.0
H571 H 0.10026 0.16012 0.60693 0.0
H572 H 0.2107 0.23126 0.66597 0.0
H573 H 0.21476 0.19388 0.6627 0.0
H574 H 0.19814 0.15922 0.65469 0.0
H575 H 0.16774 0.13965 0.63902 0.0
Mn576 Mn 0.749 0.60723 0.6834 0.0
Mn577 Mn 0.72432 0.63862 0.63477 0.0
C578 C 0.72677 0.63192 0.70252 0.0
C579 C 0.7524 0.57609 0.70899 0.0
C580 C 0.76876 0.64382 0.65201 0.0
O581 O 0.75303 0.59345 0.64148 0.0
O582 O 0.73308 0.61381 0.61292 0.0
C583 C 0.68847 0.61211 0.62582 0.0
N584 N 0.69647 0.63048 0.63354 0.0
C585 C 0.66325 0.6444 0.64261 0.0
C586 C 0.65462 0.62573 0.63429 0.0
C587 C 0.66731 0.60946 0.62609 0.0
C588 C 0.68445 0.64596 0.6426 0.0
H589 H 0.69817 0.59954 0.61976 0.0
C590 C 0.74429 0.59813 0.61625 0.0
O591 O 0.76782 0.58763 0.70296 0.0
O592 O 0.7347 0.58259 0.70007 0.0
N593 N 0.71454 0.66347 0.6519 0.0
C594 C 0.72524 0.68086 0.65694 0.0
C595 C 0.71482 0.6991 0.66221 0.0
C596 C 0.69351 0.69928 0.66241 0.0
C597 C 0.68279 0.68118 0.6577 0.0
C598 C 0.694 0.66362 0.65143 0.0
H599 H 0.7416 0.68099 0.65604 0.0
O600 O 0.74023 0.62354 0.72024 0.0
O601 O 0.72625 0.62501 0.67461 0.0
O602 O 0.76907 0.62925 0.67123 0.0
O603 O 0.75305 0.64838 0.63602 0.0
C604 C 0.66143 0.68007 0.65766 0.0
C605 C 0.65166 0.66158 0.65061 0.0
H606 H 0.6383 0.62371 0.63413 0.0
H607 H 0.66079 0.59494 0.61988 0.0
H608 H 0.7232 0.71303 0.66582 0.0
H609 H 0.68553 0.71344 0.66612 0.0
H610 H 0.65237 0.69337 0.6628 0.0
H611 H 0.63522 0.66088 0.65072 0.0
Mn612 Mn 0.40774 0.74539 0.68319 0.0
Mn613 Mn 0.37355 0.72737 0.63235 0.0
C614 C 0.3806 0.72512 0.70022 0.0
C615 C 0.43942 0.74082 0.70736 0.0
C616 C 0.37322 0.7709 0.65631 0.0
O617 O 0.42151 0.75067 0.64166 0.0
O618 O 0.39912 0.73453 0.61119 0.0
C619 C 0.39588 0.68951 0.61808 0.0
N620 N 0.3785 0.699 0.62709 0.0
C621 C 0.3608 0.6672 0.63096 0.0
C622 C 0.3784 0.65709 0.62122 0.0
C623 C 0.39607 0.6683 0.61501 0.0
C624 C 0.3617 0.68831 0.63435 0.0
H625 H 0.4095 0.69806 0.6135 0.0
C626 C 0.41586 0.7439 0.61554 0.0
O627 O 0.43115 0.75869 0.7055 0.0
O628 O 0.42942 0.72598 0.69503 0.0
N629 N 0.34773 0.71944 0.64837 0.0
C630 C 0.33165 0.73166 0.65519 0.0
C631 C 0.31232 0.72309 0.65911 0.0
C632 C 0.30968 0.70207 0.6558 0.0
C633 C 0.32644 0.68973 0.64922 0.0
C634 C 0.34522 0.69919 0.64472 0.0
H635 H 0.3334 0.74789 0.65685 0.0
O636 O 0.39092 0.73623 0.71925 0.0
O637 O 0.38706 0.72569 0.67208 0.0
O638 O 0.38806 0.76898 0.67514 0.0
O639 O 0.3673 0.75666 0.63826 0.0
C640 C 0.32506 0.66852 0.64571 0.0
C641 C 0.34233 0.65721 0.63707 0.0
H642 H 0.37851 0.64076 0.61844 0.0
H643 H 0.40978 0.66061 0.60773 0.0
H644 H 0.29945 0.73271 0.66428 0.0
H645 H 0.29469 0.69554 0.65848 0.0
H646 H 0.31076 0.66077 0.64939 0.0
H647 H 0.34112 0.6409 0.63452 0.0
Mn648 Mn 0.27109 0.40689 0.68385 0.0
Mn649 Mn 0.28894 0.37296 0.6325 0.0
C650 C 0.29082 0.37922 0.70046 0.0
C651 C 0.27545 0.43823 0.70894 0.0
C652 C 0.24513 0.37342 0.6551 0.0
O653 O 0.26652 0.42122 0.64253 0.0
O654 O 0.28263 0.39893 0.61188 0.0
C655 C 0.32753 0.39444 0.61988 0.0
N656 N 0.31749 0.37724 0.6282 0.0
C657 C 0.34881 0.35872 0.63273 0.0
C658 C 0.35948 0.37614 0.62372 0.0
C659 C 0.34879 0.39414 0.61752 0.0
C660 C 0.32767 0.36011 0.63541 0.0
H661 H 0.31937 0.40831 0.61532 0.0
C662 C 0.27353 0.41577 0.61647 0.0
O663 O 0.2576 0.43003 0.70619 0.0
O664 O 0.29051 0.4283 0.69707 0.0
N665 N 0.29604 0.34682 0.64818 0.0
C666 C 0.28334 0.33104 0.65455 0.0
C667 C 0.29138 0.3115 0.65846 0.0
C668 C 0.31237 0.30834 0.65563 0.0
C669 C 0.3252 0.3248 0.64961 0.0
C670 C 0.31626 0.34383 0.64509 0.0
H671 H 0.26713 0.33321 0.65585 0.0
O672 O 0.27971 0.38942 0.71963 0.0
O673 O 0.29054 0.38607 0.67255 0.0
O674 O 0.2473 0.38782 0.67456 0.0
O675 O 0.25939 0.36737 0.63723 0.0
C676 C 0.34643 0.32293 0.64677 0.0
C677 C 0.35828 0.33997 0.63882 0.0
H678 H 0.37586 0.37588 0.6215 0.0
H679 H 0.35691 0.4077 0.6108 0.0
H680 H 0.28139 0.29885 0.66325 0.0
H681 H 0.31849 0.29318 0.65827 0.0
H682 H 0.35379 0.30843 0.65049 0.0
H683 H 0.37459 0.33839 0.63682 0.0
Mn684 Mn 0.60598 0.27093 0.68792 0.0
Mn685 Mn 0.63982 0.29445 0.64128 0.0
C686 C 0.63003 0.29262 0.70878 0.0
C687 C 0.57418 0.2668 0.71156 0.0
C688 C 0.64634 0.25207 0.66389 0.0
O689 O 0.59322 0.26662 0.6457 0.0
O690 O 0.61868 0.27966 0.61782 0.0
C691 C 0.60941 0.32415 0.61905 0.0
N692 N 0.62777 0.32017 0.6322 0.0
C693 C 0.63585 0.35572 0.63455 0.0
C694 C 0.61705 0.3602 0.621 0.0
C695 C 0.60372 0.34434 0.61341 0.0
C696 C 0.64043 0.33534 0.6405 0.0
H697 H 0.59917 0.31204 0.61284 0.0
C698 C 0.60179 0.2703 0.62015 0.0
O699 O 0.5862 0.25169 0.70594 0.0
O700 O 0.58059 0.28469 0.70346 0.0
N701 N 0.66173 0.30977 0.65856 0.0
C702 C 0.68044 0.30278 0.66685 0.0
C703 C 0.69591 0.31665 0.67412 0.0
C704 C 0.69236 0.33756 0.67118 0.0
C705 C 0.67354 0.34436 0.66021 0.0
C706 C 0.65855 0.32983 0.65397 0.0
H707 H 0.6835 0.2867 0.6681 0.0
O708 O 0.62085 0.27927 0.72568 0.0
O709 O 0.62419 0.29382 0.68013 0.0
O710 O 0.62894 0.25095 0.67691 0.0
O711 O 0.65294 0.26817 0.65084 0.0
C712 C 0.66938 0.36493 0.65396 0.0
C713 C 0.65042 0.37065 0.64166 0.0
H714 H 0.61277 0.37574 0.61611 0.0
H715 H 0.58918 0.34766 0.60292 0.0
H716 H 0.71061 0.31122 0.68162 0.0
H717 H 0.7044 0.34821 0.67649 0.0
H718 H 0.68071 0.37648 0.65841 0.0
H719 H 0.64739 0.38652 0.63708 0.0
Mn720 Mn 0.74783 0.4091 0.83095 0.0
Mn721 Mn 0.7231 0.37423 0.87447 0.0
C722 C 0.7274 0.38484 0.80728 0.0
C723 C 0.75125 0.44161 0.80956 0.0
C724 C 0.76791 0.37128 0.85887 0.0
O725 O 0.75033 0.42071 0.87448 0.0
O726 O 0.73081 0.39812 0.89949 0.0
C727 C 0.68631 0.39887 0.88605 0.0
N728 N 0.695 0.38134 0.87595 0.0
C729 C 0.66233 0.36614 0.86711 0.0
C730 C 0.653 0.38394 0.87773 0.0
C731 C 0.66506 0.40046 0.88695 0.0
C732 C 0.68357 0.36568 0.86584 0.0
H733 H 0.69553 0.41154 0.89331 0.0
C734 C 0.74143 0.41434 0.89863 0.0
O735 O 0.7667 0.4301 0.81548 0.0
O736 O 0.73342 0.43427 0.81606 0.0
N737 N 0.71428 0.34983 0.85463 0.0
C738 C 0.72558 0.33306 0.84784 0.0
C739 C 0.71584 0.31512 0.83851 0.0
C740 C 0.69455 0.31431 0.83742 0.0
C741 C 0.68321 0.33133 0.84626 0.0
C742 C 0.69376 0.34889 0.85494 0.0
H743 H 0.74193 0.33336 0.84935 0.0
O744 O 0.74092 0.39477 0.79168 0.0
O745 O 0.72551 0.38995 0.83604 0.0
O746 O 0.76834 0.387 0.8418 0.0
O747 O 0.75198 0.36544 0.87319 0.0
C748 C 0.66186 0.33128 0.84797 0.0
C749 C 0.65142 0.34872 0.8582 0.0
H750 H 0.63661 0.38509 0.87893 0.0
H751 H 0.65798 0.41429 0.89503 0.0
H752 H 0.72472 0.3019 0.83243 0.0
H753 H 0.68709 0.3004 0.83043 0.0
H754 H 0.6533 0.31791 0.84145 0.0
H755 H 0.63498 0.34854 0.8592 0.0
Mn756 Mn 0.605 0.73745 0.83566 0.0
Mn757 Mn 0.63941 0.71798 0.88517 0.0
C758 C 0.63042 0.71587 0.81808 0.0
C759 C 0.5729 0.73536 0.81197 0.0
C760 C 0.64367 0.75989 0.85805 0.0
O761 O 0.59192 0.74357 0.87719 0.0
O762 O 0.61707 0.7318 0.90717 0.0
C763 C 0.61109 0.68671 0.90867 0.0
N764 N 0.62909 0.69168 0.89521 0.0
C765 C 0.63826 0.65649 0.89011 0.0
C766 C 0.61986 0.65101 0.90399 0.0
C767 C 0.6062 0.66619 0.91324 0.0
C768 C 0.64215 0.67717 0.88568 0.0
H769 H 0.6005 0.6983 0.91577 0.0
C770 C 0.6 0.74063 0.90339 0.0
O771 O 0.58251 0.75255 0.81393 0.0
O772 O 0.58186 0.71975 0.82392 0.0
N773 N 0.66222 0.70391 0.86848 0.0
C774 C 0.68054 0.71189 0.86047 0.0
C775 C 0.69679 0.69884 0.85386 0.0
C776 C 0.694 0.67773 0.85511 0.0
C777 C 0.67527 0.66988 0.8646 0.0
C778 C 0.65988 0.68366 0.87214 0.0
H779 H 0.68285 0.72811 0.85984 0.0
O780 O 0.62069 0.72756 0.79918 0.0
O781 O 0.62435 0.71643 0.84651 0.0
O782 O 0.62662 0.75962 0.84366 0.0
O783 O 0.65046 0.7449 0.87381 0.0
C784 C 0.67162 0.64896 0.86844 0.0
C785 C 0.65303 0.64226 0.88089 0.0
H786 H 0.61611 0.6352 0.9078 0.0
H787 H 0.59195 0.6621 0.92395 0.0
H788 H 0.71151 0.70505 0.84813 0.0
H789 H 0.70656 0.6677 0.84983 0.0
H790 H 0.68316 0.63794 0.86246 0.0
H791 H 0.65045 0.62616 0.884 0.0
Mn792 Mn 0.27324 0.6048 0.83358 0.0
Mn793 Mn 0.29173 0.6408 0.88128 0.0
C794 C 0.29394 0.63062 0.81465 0.0
C795 C 0.27658 0.57238 0.81135 0.0
C796 C 0.24923 0.64264 0.85497 0.0
O797 O 0.26783 0.59234 0.87587 0.0
O798 O 0.27948 0.6182 0.90456 0.0
C799 C 0.32485 0.61469 0.9049 0.0
N800 N 0.31871 0.63217 0.89102 0.0
C801 C 0.35324 0.64346 0.88534 0.0
C802 C 0.35993 0.62561 0.89966 0.0
C803 C 0.34567 0.61114 0.9094 0.0
C804 C 0.33232 0.64598 0.88098 0.0
H805 H 0.31397 0.60349 0.9124 0.0
C806 C 0.27108 0.60085 0.9017 0.0
O807 O 0.25901 0.58132 0.81294 0.0
O808 O 0.29186 0.58217 0.82284 0.0
N809 N 0.30428 0.664 0.86316 0.0
C810 C 0.29512 0.68153 0.85402 0.0
C811 C 0.3071 0.69845 0.84672 0.0
C812 C 0.32836 0.69714 0.84855 0.0
C813 C 0.33742 0.67914 0.85874 0.0
C814 C 0.32465 0.66305 0.86689 0.0
H815 H 0.27878 0.68273 0.85309 0.0
O816 O 0.28248 0.62016 0.7963 0.0
O817 O 0.2936 0.6251 0.84332 0.0
O818 O 0.25017 0.62559 0.84069 0.0
O819 O 0.26407 0.65014 0.87041 0.0
C820 C 0.35854 0.67691 0.86262 0.0
C821 C 0.36647 0.65896 0.87559 0.0
H822 H 0.37597 0.62291 0.90343 0.0
H823 H 0.35071 0.59731 0.92044 0.0
H824 H 0.29995 0.71255 0.84001 0.0
H825 H 0.33755 0.71025 0.84295 0.0
H826 H 0.3688 0.68903 0.85618 0.0
H827 H 0.38273 0.65745 0.87865 0.0
Mn828 Mn 0.40755 0.26771 0.83519 0.0
Mn829 Mn 0.37465 0.29291 0.88106 0.0
C830 C 0.38385 0.29005 0.81404 0.0
C831 C 0.43954 0.26403 0.81204 0.0
C832 C 0.36853 0.249 0.86187 0.0
O833 O 0.4198 0.26329 0.87809 0.0
O834 O 0.39756 0.2819 0.90532 0.0
C835 C 0.40337 0.32634 0.89464 0.0
N836 N 0.3848 0.32001 0.88469 0.0
C837 C 0.37443 0.35434 0.87436 0.0
C838 C 0.39326 0.36126 0.8852 0.0
C839 C 0.40785 0.34718 0.89517 0.0
C840 C 0.37097 0.33337 0.87398 0.0
H841 H 0.41477 0.31558 0.90173 0.0
C842 C 0.41347 0.27089 0.9033 0.0
O843 O 0.42769 0.24869 0.81714 0.0
O844 O 0.43287 0.28173 0.82052 0.0
N845 N 0.35146 0.30498 0.86193 0.0
C846 C 0.33344 0.29593 0.85492 0.0
C847 C 0.31665 0.30797 0.8471 0.0
C848 C 0.31859 0.32918 0.84615 0.0
C849 C 0.33717 0.33819 0.85373 0.0
C850 C 0.35312 0.32545 0.86265 0.0
H851 H 0.33172 0.27966 0.85611 0.0
O852 O 0.3927 0.27652 0.79703 0.0
O853 O 0.38981 0.29074 0.84249 0.0
O854 O 0.38465 0.24806 0.84566 0.0
O855 O 0.36314 0.26497 0.87669 0.0
C856 C 0.34022 0.35935 0.85406 0.0
C857 C 0.35895 0.36742 0.86399 0.0
H858 H 0.39671 0.37733 0.8858 0.0
H859 H 0.42253 0.35236 0.90318 0.0
H860 H 0.30219 0.30092 0.84204 0.0
H861 H 0.30558 0.33845 0.84019 0.0
H862 H 0.32821 0.36956 0.84695 0.0
H863 H 0.36116 0.38371 0.86406 0.0
Mn864 Mn 0.2743 0.41122 0.33769 0.0
Mn865 Mn 0.29499 0.37728 0.38669 0.0
C866 C 0.29434 0.38458 0.31902 0.0
C867 C 0.27728 0.44301 0.31314 0.0
C868 C 0.25082 0.37553 0.36603 0.0
O869 O 0.27015 0.42484 0.37958 0.0
O870 O 0.28676 0.40217 0.40891 0.0
C871 C 0.33175 0.40177 0.39947 0.0
N872 N 0.32314 0.38397 0.3903 0.0
C873 C 0.35593 0.36886 0.38199 0.0
C874 C 0.36515 0.38692 0.39184 0.0
C875 C 0.35299 0.4035 0.40042 0.0
C876 C 0.33469 0.3682 0.38099 0.0
H877 H 0.32248 0.41461 0.40572 0.0
C878 C 0.27715 0.41884 0.40536 0.0
O879 O 0.25967 0.43435 0.3165 0.0
O880 O 0.29273 0.43333 0.32423 0.0
N881 N 0.3041 0.35219 0.36945 0.0
C882 C 0.29281 0.33536 0.36317 0.0
C883 C 0.3026 0.31689 0.35708 0.0
C884 C 0.3239 0.31591 0.35721 0.0
C885 C 0.33522 0.33339 0.36363 0.0
C886 C 0.32461 0.35119 0.37072 0.0
H887 H 0.27645 0.33588 0.36358 0.0
O888 O 0.28242 0.39459 0.30079 0.0
O889 O 0.29479 0.39106 0.34716 0.0
O890 O 0.25157 0.39093 0.34802 0.0
O891 O 0.26595 0.36943 0.38221 0.0
C892 C 0.35661 0.33363 0.36458 0.0
C893 C 0.36697 0.35146 0.37334 0.0
H894 H 0.38154 0.38823 0.39286 0.0
H895 H 0.35998 0.41755 0.40778 0.0
H896 H 0.29374 0.30337 0.35258 0.0
H897 H 0.3314 0.30157 0.35288 0.0
H898 H 0.36522 0.32013 0.35889 0.0
H899 H 0.38342 0.35149 0.37395 0.0
Mn900 Mn 0.60281 0.27368 0.33808 0.0
Mn901 Mn 0.63786 0.29431 0.38548 0.0
C902 C 0.62769 0.29521 0.31877 0.0
C903 C 0.57034 0.27545 0.31534 0.0
C904 C 0.64221 0.25206 0.35946 0.0
O905 O 0.59055 0.26795 0.38036 0.0
O906 O 0.61615 0.28049 0.40871 0.0
C907 C 0.60948 0.32552 0.4091 0.0
N908 N 0.62733 0.32061 0.39512 0.0
C909 C 0.6359 0.35584 0.38859 0.0
C910 C 0.61765 0.36127 0.40299 0.0
C911 C 0.60436 0.34603 0.41322 0.0
C912 C 0.64001 0.33515 0.38464 0.0
H913 H 0.59919 0.31389 0.41695 0.0
C914 C 0.59918 0.27133 0.40606 0.0
O915 O 0.57997 0.25827 0.31741 0.0
O916 O 0.57941 0.29114 0.32687 0.0
N917 N 0.66018 0.30845 0.36751 0.0
C918 C 0.67851 0.3006 0.35925 0.0
C919 C 0.69449 0.31377 0.35176 0.0
C920 C 0.6914 0.33485 0.35236 0.0
C921 C 0.67269 0.34259 0.36217 0.0
C922 C 0.65761 0.32871 0.37065 0.0
H923 H 0.68105 0.28441 0.35911 0.0
O924 O 0.61772 0.28317 0.30065 0.0
O925 O 0.62214 0.29504 0.34744 0.0
O926 O 0.62487 0.25184 0.34581 0.0
O927 O 0.64905 0.26741 0.37444 0.0
C928 C 0.6688 0.3635 0.3655 0.0
C929 C 0.65031 0.37013 0.37841 0.0
H930 H 0.61373 0.37707 0.40646 0.0
H931 H 0.59024 0.35009 0.42433 0.0
H932 H 0.70923 0.30767 0.34585 0.0
H933 H 0.70374 0.34496 0.34635 0.0
H934 H 0.68009 0.3746 0.3588 0.0
H935 H 0.64755 0.38624 0.38112 0.0
Mn936 Mn 0.74265 0.6009 0.33611 0.0
Mn937 Mn 0.72098 0.6349 0.38403 0.0
C938 C 0.72196 0.62673 0.31659 0.0
C939 C 0.74023 0.56876 0.31239 0.0
C940 C 0.76509 0.63764 0.36349 0.0
O941 O 0.74718 0.58797 0.37836 0.0
O942 O 0.72998 0.6106 0.407 0.0
C943 C 0.685 0.60947 0.39746 0.0
N944 N 0.69304 0.62738 0.38774 0.0
C945 C 0.6598 0.6413 0.37872 0.0
C946 C 0.65115 0.62312 0.38911 0.0
C947 C 0.66381 0.60708 0.39833 0.0
C948 C 0.68101 0.64263 0.37784 0.0
H949 H 0.69466 0.59703 0.40422 0.0
C950 C 0.74007 0.59416 0.40396 0.0
O951 O 0.75769 0.57778 0.31543 0.0
O952 O 0.72467 0.57828 0.32339 0.0
N953 N 0.7111 0.65944 0.36601 0.0
C954 C 0.72185 0.67652 0.35927 0.0
C955 C 0.71149 0.69458 0.35253 0.0
C956 C 0.69017 0.69486 0.35244 0.0
C957 C 0.6794 0.67713 0.35934 0.0
C958 C 0.69057 0.6598 0.3671 0.0
H959 H 0.73822 0.67654 0.35982 0.0
O960 O 0.73415 0.61678 0.29871 0.0
O961 O 0.72164 0.62063 0.34491 0.0
O962 O 0.76484 0.62195 0.34595 0.0
O963 O 0.74975 0.64353 0.37937 0.0
C964 C 0.65803 0.67622 0.36015 0.0
C965 C 0.64823 0.65821 0.36943 0.0
H966 H 0.63481 0.6213 0.39006 0.0
H967 H 0.65727 0.59293 0.40612 0.0
H968 H 0.71992 0.7083 0.34766 0.0
H969 H 0.68223 0.70888 0.34756 0.0
H970 H 0.64901 0.68934 0.35395 0.0
H971 H 0.63179 0.65766 0.36992 0.0
Mn972 Mn 0.41222 0.74495 0.33606 0.0
Mn973 Mn 0.37772 0.72578 0.38531 0.0
C974 C 0.38551 0.72469 0.31761 0.0
C975 C 0.44424 0.74102 0.31272 0.0
C976 C 0.37701 0.76959 0.3627 0.0
O977 O 0.42539 0.74996 0.37819 0.0
O978 O 0.4029 0.7331 0.40743 0.0
C979 C 0.40052 0.68813 0.39905 0.0
N980 N 0.38312 0.69744 0.38969 0.0
C981 C 0.36616 0.66537 0.38355 0.0
C982 C 0.3838 0.65544 0.39354 0.0
C983 C 0.40112 0.66687 0.40109 0.0
C984 C 0.36667 0.68656 0.38123 0.0
H985 H 0.41387 0.69686 0.40469 0.0
C986 C 0.41952 0.74281 0.40392 0.0
O987 O 0.43573 0.75878 0.31483 0.0
O988 O 0.43428 0.72595 0.32436 0.0
N989 N 0.35222 0.71766 0.36831 0.0
C990 C 0.33593 0.7297 0.36191 0.0
C991 C 0.31683 0.72085 0.35711 0.0
C992 C 0.31462 0.6997 0.35894 0.0
C993 C 0.33158 0.68756 0.36522 0.0
C994 C 0.35011 0.6973 0.3708 0.0
H995 H 0.33734 0.746 0.36131 0.0
O996 O 0.39596 0.73605 0.29917 0.0
O997 O 0.39165 0.72491 0.34593 0.0
O998 O 0.3921 0.76815 0.34425 0.0
O999 O 0.37111 0.75504 0.38014 0.0
C1000 C 0.33063 0.66626 0.36752 0.0
C1001 C 0.34801 0.65513 0.3762 0.0
H1002 H 0.38422 0.63905 0.39553 0.0
H1003 H 0.41484 0.65932 0.40861 0.0
H1004 H 0.30378 0.73032 0.35233 0.0
H1005 H 0.29979 0.69294 0.35555 0.0
H1006 H 0.31655 0.6583 0.36295 0.0
H1007 H 0.34712 0.63875 0.37788 0.0
Mn1008 Mn 0.2749 0.60807 0.18297 0.0
Mn1009 Mn 0.29426 0.64281 0.1341 0.0
C1010 C 0.29624 0.63367 0.20102 0.0
C1011 C 0.27762 0.57596 0.20662 0.0
C1012 C 0.25193 0.64634 0.16021 0.0
O1013 O 0.26929 0.59497 0.1412 0.0
O1014 O 0.28109 0.62027 0.11159 0.0
C1015 C 0.32633 0.61522 0.11099 0.0
N1016 N 0.32087 0.63308 0.12447 0.0
C1017 C 0.35582 0.64314 0.12979 0.0
C1018 C 0.3618 0.62489 0.11589 0.0
C1019 C 0.34698 0.61085 0.10653 0.0
C1020 C 0.33502 0.64649 0.13412 0.0
H1021 H 0.31502 0.60435 0.10377 0.0
C1022 C 0.27244 0.60309 0.11508 0.0
O1023 O 0.2602 0.58517 0.20457 0.0
O1024 O 0.29302 0.58528 0.19473 0.0
N1025 N 0.30772 0.6658 0.15146 0.0
C1026 C 0.29927 0.68375 0.16025 0.0
C1027 C 0.3119 0.70027 0.16722 0.0
C1028 C 0.33309 0.69813 0.16541 0.0
C1029 C 0.34143 0.6797 0.15557 0.0
C1030 C 0.32804 0.66401 0.14778 0.0
H1031 H 0.28299 0.68558 0.16123 0.0
O1032 O 0.28444 0.62388 0.21967 0.0
O1033 O 0.29576 0.62766 0.17257 0.0
O1034 O 0.25235 0.62934 0.17471 0.0
O1035 O 0.26701 0.65333 0.14485 0.0
C1036 C 0.36244 0.67662 0.15171 0.0
C1037 C 0.36965 0.65825 0.13915 0.0
H1038 H 0.37772 0.62155 0.11216 0.0
H1039 H 0.35147 0.59672 0.09581 0.0
H1040 H 0.30531 0.7147 0.17365 0.0
H1041 H 0.34279 0.71093 0.17074 0.0
H1042 H 0.37317 0.68842 0.15786 0.0
H1043 H 0.38583 0.65609 0.1361 0.0
Mn1044 Mn 0.40524 0.2676 0.1855 0.0
Mn1045 Mn 0.37036 0.28655 0.13652 0.0
C1046 C 0.37892 0.28844 0.20383 0.0
C1047 C 0.4374 0.27148 0.20861 0.0
C1048 C 0.36964 0.24293 0.15996 0.0
O1049 O 0.41802 0.26219 0.1432 0.0
O1050 O 0.39529 0.27891 0.11403 0.0
C1051 C 0.39314 0.32402 0.12165 0.0
N1052 N 0.37579 0.31484 0.13143 0.0
C1053 C 0.35901 0.34701 0.1374 0.0
C1054 C 0.37658 0.35681 0.12688 0.0
C1055 C 0.39378 0.34526 0.11921 0.0
C1056 C 0.35946 0.32585 0.14002 0.0
H1057 H 0.40642 0.3152 0.11603 0.0
C1058 C 0.41191 0.26916 0.11742 0.0
O1059 O 0.42876 0.25377 0.20683 0.0
O1060 O 0.42754 0.28651 0.19661 0.0
N1061 N 0.34513 0.29493 0.15409 0.0
C1062 C 0.32899 0.28302 0.16177 0.0
C1063 C 0.31002 0.29199 0.16722 0.0
C1064 C 0.30781 0.31312 0.16473 0.0
C1065 C 0.32465 0.32512 0.1573 0.0
C1066 C 0.34302 0.31525 0.15114 0.0
H1067 H 0.33041 0.26674 0.16296 0.0
O1068 O 0.3893 0.27709 0.22242 0.0
O1069 O 0.38481 0.28774 0.17545 0.0
O1070 O 0.3849 0.24446 0.17811 0.0
O1071 O 0.36366 0.25737 0.14236 0.0
C1072 C 0.32373 0.34641 0.1546 0.0
C1073 C 0.34101 0.35739 0.14512 0.0
H1074 H 0.37704 0.37318 0.12464 0.0
H1075 H 0.40747 0.3527 0.11135 0.0
H1076 H 0.29708 0.28263 0.17302 0.0
H1077 H 0.29308 0.31996 0.16863 0.0
H1078 H 0.30977 0.35447 0.15958 0.0
H1079 H 0.34016 0.37376 0.14323 0.0
Mn1080 Mn 0.74306 0.40427 0.18014 0.0
Mn1081 Mn 0.72187 0.37018 0.1319 0.0
C1082 C 0.72261 0.37802 0.19937 0.0
C1083 C 0.74034 0.43617 0.20447 0.0
C1084 C 0.76623 0.36849 0.15167 0.0
O1085 O 0.74698 0.41762 0.13801 0.0
O1086 O 0.72961 0.39506 0.1094 0.0
C1087 C 0.68471 0.39423 0.11986 0.0
N1088 N 0.69363 0.37653 0.12877 0.0
C1089 C 0.66112 0.36071 0.13648 0.0
C1090 C 0.65158 0.37865 0.12689 0.0
C1091 C 0.66344 0.39554 0.11878 0.0
C1092 C 0.68236 0.36049 0.13776 0.0
H1093 H 0.69377 0.40727 0.11386 0.0
C1094 C 0.73941 0.41167 0.11254 0.0
O1095 O 0.7579 0.42742 0.20102 0.0
O1096 O 0.72481 0.42655 0.19351 0.0
N1097 N 0.71322 0.34509 0.14957 0.0
C1098 C 0.72482 0.32857 0.15635 0.0
C1099 C 0.71543 0.30985 0.16205 0.0
C1100 C 0.69418 0.3083 0.16081 0.0
C1101 C 0.6825 0.32555 0.15439 0.0
C1102 C 0.69275 0.34364 0.1479 0.0
H1103 H 0.74115 0.32951 0.15672 0.0
O1104 O 0.73486 0.38793 0.21725 0.0
O1105 O 0.72231 0.38428 0.17115 0.0
O1106 O 0.76562 0.38381 0.16986 0.0
O1107 O 0.75099 0.36254 0.13562 0.0
C1108 C 0.66112 0.32531 0.15303 0.0
C1109 C 0.65042 0.34299 0.14454 0.0
H1110 H 0.63518 0.37963 0.1257 0.0
H1111 H 0.6562 0.40951 0.11161 0.0
H1112 H 0.72454 0.2966 0.16712 0.0
H1113 H 0.687 0.29377 0.16491 0.0
H1114 H 0.65278 0.31158 0.15829 0.0
H1115 H 0.63398 0.34266 0.14366 0.0
Mn1116 Mn 0.60901 0.74035 0.18238 0.0
Mn1117 Mn 0.64269 0.72126 0.13155 0.0
C1118 C 0.63484 0.71868 0.19883 0.0
C1119 C 0.57734 0.73784 0.20716 0.0
C1120 C 0.64683 0.76333 0.15853 0.0
O1121 O 0.59517 0.74644 0.14135 0.0
O1122 O 0.6196 0.73436 0.11033 0.0
C1123 C 0.61481 0.68914 0.10941 0.0
N1124 N 0.63294 0.69466 0.122 0.0
C1125 C 0.64359 0.65982 0.12558 0.0
C1126 C 0.62506 0.65376 0.11259 0.0
C1127 C 0.61058 0.66849 0.10457 0.0
C1128 C 0.64675 0.68059 0.1305 0.0
H1129 H 0.60362 0.70038 0.10316 0.0
C1130 C 0.6026 0.74318 0.11481 0.0
O1131 O 0.58672 0.75514 0.20509 0.0
O1132 O 0.58625 0.72237 0.1947 0.0
N1133 N 0.66616 0.70791 0.14751 0.0
C1134 C 0.68429 0.71653 0.1551 0.0
C1135 C 0.70124 0.7041 0.16022 0.0
C1136 C 0.69938 0.68293 0.15776 0.0
C1137 C 0.68071 0.67442 0.14927 0.0
C1138 C 0.66455 0.68763 0.14331 0.0
H1139 H 0.68594 0.7328 0.15641 0.0
O1140 O 0.62542 0.73036 0.21812 0.0
O1141 O 0.62829 0.71945 0.17067 0.0
O1142 O 0.63022 0.76279 0.17397 0.0
O1143 O 0.65331 0.74847 0.14218 0.0
C1144 C 0.67785 0.65343 0.1448 0.0
C1145 C 0.65919 0.64611 0.13334 0.0
H1146 H 0.62185 0.63787 0.10847 0.0
H1147 H 0.59623 0.66395 0.09455 0.0
H1148 H 0.71578 0.71085 0.16572 0.0
H1149 H 0.71255 0.6734 0.16151 0.0
H1150 H 0.69003 0.64283 0.14957 0.0
H1151 H 0.65721 0.62996 0.12977 0.0
H1152 H 0.33312 0.2355 0.13119 0.0
H1153 H 0.37775 0.20756 0.19138 0.0
H1154 H 0.35556 0.17756 0.19669 0.0
H1155 H 0.29016 0.21975 0.17318 0.0
H1156 H 0.27442 0.21563 0.13982 0.0
H1157 H 0.29459 0.23406 0.13852 0.0
H1158 H 0.30995 0.21597 0.09097 0.0
H1159 H 0.28977 0.19752 0.09204 0.0
H1160 H 0.31586 0.18929 0.09304 0.0
H1161 H 0.32745 0.15127 0.1977 0.0
H1162 H 0.29601 0.13098 0.19412 0.0
H1163 H 0.26962 0.17675 0.13435 0.0
C1164 C 0.33844 0.22301 0.1452 0.0
C1165 C 0.35729 0.224 0.16083 0.0
C1166 C 0.36344 0.20725 0.17908 0.0
C1167 C 0.35092 0.19011 0.18227 0.0
C1168 C 0.33225 0.18989 0.16712 0.0
C1169 C 0.32607 0.2059 0.14888 0.0
C1170 C 0.30488 0.20243 0.1363 0.0
C1171 C 0.29015 0.21894 0.14764 0.0
C1172 C 0.30514 0.20123 0.10099 0.0
C1173 C 0.30003 0.18201 0.15046 0.0
C1174 C 0.31603 0.17496 0.16803 0.0
C1175 C 0.31487 0.1566 0.18385 0.0
C1176 C 0.2969 0.14518 0.18169 0.0
C1177 C 0.28023 0.15216 0.16392 0.0
C1178 C 0.28201 0.17084 0.14808 0.0
H1179 H 0.83321 0.26782 0.12967 0.0
H1180 H 0.88254 0.30102 0.17319 0.0
H1181 H 0.8616 0.33177 0.17406 0.0
H1182 H 0.81458 0.31052 0.08228 0.0
H1183 H 0.78828 0.30372 0.08731 0.0
H1184 H 0.80758 0.28433 0.08787 0.0
H1185 H 0.79502 0.27248 0.14135 0.0
H1186 H 0.77575 0.29187 0.141 0.0
H1187 H 0.79358 0.29056 0.17241 0.0
H1188 H 0.83486 0.35828 0.17457 0.0
H1189 H 0.80388 0.37923 0.17308 0.0
H1190 H 0.77179 0.33002 0.12756 0.0
C1191 C 0.83971 0.28163 0.13893 0.0
C1192 C 0.85959 0.28182 0.15144 0.0
C1193 C 0.86737 0.30027 0.1636 0.0
C1194 C 0.85561 0.31794 0.16414 0.0
C1195 C 0.83603 0.31715 0.15228 0.0
C1196 C 0.82811 0.29957 0.13969 0.0
C1197 C 0.80625 0.30284 0.12966 0.0
C1198 C 0.80405 0.3002 0.0947 0.0
C1199 C 0.7918 0.28859 0.14715 0.0
C1200 C 0.80312 0.32483 0.13914 0.0
C1201 C 0.82054 0.33275 0.15208 0.0
C1202 C 0.82117 0.35235 0.16414 0.0
C1203 C 0.80344 0.36414 0.16324 0.0
C1204 C 0.78529 0.35638 0.15025 0.0
C1205 C 0.78535 0.33653 0.13758 0.0
H1206 H 0.68544 0.76911 0.13544 0.0
H1207 H 0.63735 0.79976 0.18568 0.0
H1208 H 0.65886 0.83026 0.18985 0.0
H1209 H 0.72664 0.78925 0.17957 0.0
H1210 H 0.74353 0.79172 0.14721 0.0
H1211 H 0.72411 0.77246 0.14704 0.0
H1212 H 0.71015 0.7865 0.09557 0.0
H1213 H 0.72953 0.8058 0.09556 0.0
H1214 H 0.70315 0.8129 0.09288 0.0
H1215 H 0.68557 0.85712 0.18954 0.0
H1216 H 0.71578 0.87874 0.18532 0.0
H1217 H 0.74717 0.83077 0.13578 0.0
C1218 C 0.67932 0.78224 0.14719 0.0
C1219 C 0.65958 0.78194 0.16021 0.0
C1220 C 0.65235 0.79951 0.17551 0.0
C1221 C 0.66446 0.81695 0.17798 0.0
C1222 C 0.68383 0.81663 0.16511 0.0
C1223 C 0.69126 0.79976 0.15003 0.0
C1224 C 0.71282 0.80329 0.13889 0.0
C1225 C 0.72765 0.78829 0.15409 0.0
C1226 C 0.71397 0.80205 0.10363 0.0
C1227 C 0.71638 0.82479 0.15016 0.0
C1228 C 0.6994 0.83216 0.16513 0.0
C1229 C 0.69894 0.85153 0.17783 0.0
C1230 C 0.71628 0.8637 0.17529 0.0
C1231 C 0.73401 0.85656 0.16019 0.0
C1232 C 0.73393 0.83678 0.14738 0.0
H1233 H 0.24629 0.68568 0.13994 0.0
H1234 H 0.21466 0.63532 0.18303 0.0
H1235 H 0.1834 0.6559 0.18509 0.0
H1236 H 0.22268 0.72492 0.18445 0.0
H1237 H 0.22139 0.74275 0.1531 0.0
H1238 H 0.24117 0.72388 0.15395 0.0
H1239 H 0.23022 0.71128 0.09999 0.0
H1240 H 0.21036 0.73008 0.099 0.0
H1241 H 0.20427 0.70364 0.09359 0.0
H1242 H 0.15578 0.68182 0.18321 0.0
H1243 H 0.13368 0.71172 0.17942 0.0
H1244 H 0.18301 0.74592 0.138 0.0
C1245 C 0.2328 0.67888 0.1497 0.0
C1246 C 0.23303 0.65875 0.16127 0.0
C1247 C 0.21498 0.65063 0.17403 0.0
C1248 C 0.1971 0.66221 0.17523 0.0
C1249 C 0.19744 0.68193 0.16368 0.0
C1250 C 0.21482 0.69027 0.15126 0.0
C1251 C 0.21119 0.71207 0.14126 0.0
C1252 C 0.22492 0.72677 0.15927 0.0
C1253 C 0.21419 0.7144 0.10639 0.0
C1254 C 0.18905 0.7147 0.15009 0.0
C1255 C 0.18146 0.69706 0.16284 0.0
C1256 C 0.16155 0.69571 0.17325 0.0
C1257 C 0.1491 0.71288 0.17097 0.0
C1258 C 0.15651 0.73135 0.15843 0.0
C1259 C 0.17677 0.7321 0.14755 0.0
H1260 H 0.27721 0.83526 0.39149 0.0
H1261 H 0.30137 0.87999 0.32797 0.0
H1262 H 0.33317 0.86028 0.32422 0.0
H1263 H 0.32466 0.82418 0.43121 0.0
H1264 H 0.319 0.79752 0.43475 0.0
H1265 H 0.29866 0.8158 0.43384 0.0
H1266 H 0.28233 0.79678 0.38783 0.0
H1267 H 0.30259 0.77845 0.38861 0.0
H1268 H 0.29719 0.79219 0.35374 0.0
H1269 H 0.36171 0.83447 0.32513 0.0
H1270 H 0.3842 0.80467 0.33006 0.0
H1271 H 0.34136 0.7773 0.39361 0.0
C1272 C 0.28921 0.84111 0.377 0.0
C1273 C 0.28669 0.85929 0.36008 0.0
C1274 C 0.30285 0.86617 0.34124 0.0
C1275 C 0.32102 0.85508 0.33899 0.0
C1276 C 0.32289 0.83716 0.35578 0.0
C1277 C 0.30741 0.83025 0.37446 0.0
C1278 C 0.31284 0.81011 0.38911 0.0
C1279 C 0.31385 0.81203 0.42432 0.0
C1280 C 0.29785 0.7934 0.37922 0.0
C1281 C 0.3337 0.80663 0.37549 0.0
C1282 C 0.33929 0.82242 0.35642 0.0
C1283 C 0.35755 0.82211 0.34022 0.0
C1284 C 0.37025 0.80508 0.34321 0.0
C1285 C 0.36467 0.78853 0.36226 0.0
C1286 C 0.34626 0.78964 0.37897 0.0
H1287 H 0.2445 0.33768 0.39179 0.0
H1288 H 0.21369 0.38591 0.34213 0.0
H1289 H 0.18264 0.36509 0.34017 0.0
H1290 H 0.22354 0.29733 0.34867 0.0
H1291 H 0.22127 0.28013 0.38068 0.0
H1292 H 0.24058 0.29948 0.38099 0.0
H1293 H 0.22691 0.31298 0.43295 0.0
H1294 H 0.20755 0.29365 0.43283 0.0
H1295 H 0.20054 0.32 0.43623 0.0
H1296 H 0.15576 0.33856 0.34036 0.0
H1297 H 0.13471 0.3078 0.34187 0.0
H1298 H 0.18267 0.27605 0.39088 0.0
C1299 C 0.23118 0.34402 0.38082 0.0
C1300 C 0.23166 0.36354 0.3671 0.0
C1301 C 0.21382 0.37107 0.35281 0.0
C1302 C 0.19605 0.35936 0.35164 0.0
C1303 C 0.19626 0.34009 0.36482 0.0
C1304 C 0.21333 0.33244 0.37917 0.0
C1305 C 0.20981 0.31077 0.38987 0.0
C1306 C 0.22468 0.29606 0.37411 0.0
C1307 C 0.21129 0.30927 0.42507 0.0
C1308 C 0.18818 0.30736 0.37888 0.0
C1309 C 0.18067 0.32457 0.36471 0.0
C1310 C 0.16141 0.32503 0.35158 0.0
C1311 C 0.14958 0.30739 0.35252 0.0
C1312 C 0.15696 0.28935 0.36643 0.0
C1313 C 0.17646 0.28954 0.38023 0.0
H1314 H 0.74426 0.18669 0.37982 0.0
H1315 H 0.71329 0.13813 0.33092 0.0
H1316 H 0.68265 0.15919 0.32723 0.0
H1317 H 0.7005 0.20376 0.42346 0.0
H1318 H 0.707 0.23026 0.42064 0.0
H1319 H 0.72671 0.2113 0.42007 0.0
H1320 H 0.73984 0.22551 0.36824 0.0
H1321 H 0.72017 0.2445 0.36865 0.0
H1322 H 0.7226 0.22766 0.33618 0.0
H1323 H 0.65534 0.18541 0.32775 0.0
H1324 H 0.63318 0.2154 0.33257 0.0
H1325 H 0.68133 0.24719 0.38123 0.0
C1326 C 0.73102 0.18044 0.36845 0.0
C1327 C 0.73135 0.16066 0.35568 0.0
C1328 C 0.71362 0.15319 0.34088 0.0
C1329 C 0.69603 0.16504 0.33867 0.0
C1330 C 0.69624 0.18441 0.35134 0.0
C1331 C 0.71323 0.19212 0.36596 0.0
C1332 C 0.70935 0.21359 0.37721 0.0
C1333 C 0.71099 0.21479 0.41244 0.0
C1334 C 0.72385 0.2287 0.36164 0.0
C1335 C 0.68761 0.21667 0.36652 0.0
C1336 C 0.68036 0.19962 0.35168 0.0
C1337 C 0.66081 0.19886 0.3394 0.0
C1338 C 0.64833 0.21601 0.34226 0.0
C1339 C 0.65539 0.23376 0.35731 0.0
C1340 C 0.67533 0.23392 0.36967 0.0
H1341 H 0.77012 0.67599 0.38827 0.0
H1342 H 0.80261 0.62812 0.34023 0.0
H1343 H 0.83304 0.64984 0.33825 0.0
H1344 H 0.79017 0.71647 0.34447 0.0
H1345 H 0.79172 0.73408 0.37612 0.0
H1346 H 0.77298 0.71419 0.3765 0.0
H1347 H 0.78665 0.70168 0.42904 0.0
H1348 H 0.80546 0.72155 0.42884 0.0
H1349 H 0.81319 0.69546 0.43298 0.0
H1350 H 0.85913 0.67709 0.33842 0.0
H1351 H 0.87932 0.7084 0.33968 0.0
H1352 H 0.83017 0.7394 0.38699 0.0
C1353 C 0.78367 0.66992 0.37763 0.0
C1354 C 0.78386 0.65023 0.3644 0.0
C1355 C 0.80197 0.64308 0.35054 0.0
C1356 C 0.81939 0.6553 0.34936 0.0
C1357 C 0.81854 0.6747 0.3621 0.0
C1358 C 0.80118 0.68201 0.37598 0.0
C1359 C 0.804 0.7039 0.38624 0.0
C1360 C 0.78882 0.71799 0.36985 0.0
C1361 C 0.80222 0.70575 0.42137 0.0
C1362 C 0.82559 0.7078 0.37558 0.0
C1363 C 0.83367 0.69065 0.36194 0.0
C1364 C 0.85302 0.69057 0.34921 0.0
C1365 C 0.86436 0.70853 0.35 0.0
C1366 C 0.85639 0.72652 0.36336 0.0
C1367 C 0.83681 0.72596 0.37678 0.0
H1368 H 0.74449 0.82727 0.87725 0.0
H1369 H 0.71206 0.87543 0.82974 0.0
H1370 H 0.68183 0.85374 0.82637 0.0
H1371 H 0.72333 0.78606 0.8336 0.0
H1372 H 0.72155 0.76904 0.8659 0.0
H1373 H 0.7408 0.78845 0.86534 0.0
H1374 H 0.72782 0.80216 0.91761 0.0
H1375 H 0.70854 0.78278 0.91832 0.0
H1376 H 0.70148 0.80912 0.92161 0.0
H1377 H 0.65517 0.82688 0.82688 0.0
H1378 H 0.63372 0.79641 0.8317 0.0
H1379 H 0.68285 0.76546 0.87924 0.0
C1380 C 0.73102 0.83331 0.86627 0.0
C1381 C 0.73081 0.85316 0.85379 0.0
C1382 C 0.71278 0.86034 0.8395 0.0
C1383 C 0.69544 0.84812 0.83746 0.0
C1384 C 0.69619 0.82869 0.84983 0.0
C1385 C 0.71345 0.82127 0.86401 0.0
C1386 C 0.71015 0.79968 0.87507 0.0
C1387 C 0.72483 0.78494 0.85901 0.0
C1388 C 0.71211 0.79837 0.91024 0.0
C1389 C 0.68839 0.79618 0.86476 0.0
C1390 C 0.68066 0.81313 0.85026 0.0
C1391 C 0.66102 0.81351 0.83829 0.0
C1392 C 0.64895 0.79608 0.84113 0.0
C1393 C 0.65648 0.77844 0.85588 0.0
C1394 C 0.67651 0.77865 0.86793 0.0
H1395 H 0.17787 0.73854 0.88538 0.0
H1396 H 0.13284 0.71056 0.82585 0.0
H1397 H 0.15481 0.68037 0.82067 0.0
H1398 H 0.22059 0.72222 0.84319 0.0
H1399 H 0.2364 0.71822 0.87649 0.0
H1400 H 0.21637 0.7368 0.87769 0.0
H1401 H 0.20103 0.71915 0.92559 0.0
H1402 H 0.22107 0.70055 0.92461 0.0
H1403 H 0.19492 0.6925 0.9239 0.0
H1404 H 0.18276 0.65383 0.81981 0.0
H1405 H 0.21408 0.63333 0.8235 0.0
H1406 H 0.24092 0.67936 0.88247 0.0
C1407 C 0.17242 0.72602 0.87152 0.0
C1408 C 0.15351 0.72704 0.85605 0.0
C1409 C 0.14719 0.71023 0.83802 0.0
C1410 C 0.15958 0.69298 0.83491 0.0
C1411 C 0.17831 0.69273 0.84992 0.0
C1412 C 0.18466 0.70881 0.86792 0.0
C1413 C 0.20585 0.70526 0.8804 0.0
C1414 C 0.22067 0.72159 0.86874 0.0
C1415 C 0.2057 0.7043 0.91572 0.0
C1416 C 0.21052 0.68471 0.86646 0.0
C1417 C 0.19442 0.67766 0.84909 0.0
C1418 C 0.19541 0.65918 0.83351 0.0
C1419 C 0.21331 0.64763 0.83574 0.0
C1420 C 0.23008 0.65462 0.85331 0.0
C1421 C 0.22846 0.67343 0.8689 0.0
H1422 H 0.32886 0.24511 0.88288 0.0
H1423 H 0.37821 0.21107 0.84116 0.0
H1424 H 0.35625 0.18105 0.83757 0.0
H1425 H 0.30783 0.20282 0.92736 0.0
H1426 H 0.28188 0.2105 0.92108 0.0
H1427 H 0.30177 0.22926 0.92197 0.0
H1428 H 0.29077 0.24196 0.8681 0.0
H1429 H 0.27092 0.22317 0.867 0.0
H1430 H 0.28946 0.22421 0.83659 0.0
H1431 H 0.32872 0.15507 0.83572 0.0
H1432 H 0.29744 0.13453 0.83738 0.0
H1433 H 0.26571 0.18484 0.88062 0.0
C1434 C 0.33514 0.23129 0.87334 0.0
C1435 C 0.35535 0.23062 0.86227 0.0
C1436 C 0.36282 0.21216 0.84973 0.0
C1437 C 0.35046 0.19493 0.8476 0.0
C1438 C 0.33058 0.19621 0.85815 0.0
C1439 C 0.32294 0.21384 0.87094 0.0
C1440 C 0.30079 0.21117 0.87972 0.0
C1441 C 0.29791 0.21358 0.91461 0.0
C1442 C 0.28719 0.22601 0.86178 0.0
C1443 C 0.29722 0.18939 0.8696 0.0
C1444 C 0.31462 0.18106 0.85724 0.0
C1445 C 0.315 0.16136 0.84555 0.0
C1446 C 0.29711 0.14981 0.84653 0.0
C1447 C 0.27902 0.15794 0.85918 0.0
C1448 C 0.27923 0.17803 0.87094 0.0
H1449 H 0.83377 0.27125 0.88958 0.0
H1450 H 0.88269 0.30067 0.83965 0.0
H1451 H 0.86234 0.33198 0.83656 0.0
H1452 H 0.79411 0.29197 0.84501 0.0
H1453 H 0.77664 0.29489 0.87657 0.0
H1454 H 0.79578 0.2754 0.87788 0.0
H1455 H 0.80897 0.28967 0.92972 0.0
H1456 H 0.78983 0.30921 0.9286 0.0
H1457 H 0.81623 0.316 0.93236 0.0
H1458 H 0.83611 0.35925 0.83564 0.0
H1459 H 0.80551 0.38064 0.83616 0.0
H1460 H 0.77296 0.3335 0.88562 0.0
C1461 C 0.84035 0.28432 0.87833 0.0
C1462 C 0.8599 0.2834 0.86483 0.0
C1463 C 0.86779 0.30091 0.85015 0.0
C1464 C 0.85636 0.31882 0.84834 0.0
C1465 C 0.83701 0.31904 0.86124 0.0
C1466 C 0.82904 0.30228 0.87597 0.0
C1467 C 0.80733 0.30615 0.88608 0.0
C1468 C 0.7926 0.29122 0.87045 0.0
C1469 C 0.80549 0.3052 0.92129 0.0
C1470 C 0.80428 0.32762 0.87437 0.0
C1471 C 0.82168 0.33478 0.86036 0.0
C1472 C 0.82244 0.35387 0.84675 0.0
C1473 C 0.8049 0.3659 0.84714 0.0
C1474 C 0.78671 0.35884 0.86094 0.0
C1475 C 0.78659 0.33947 0.87506 0.0
H1476 H 0.68642 0.24811 0.64514 0.0
H1477 H 0.63583 0.21406 0.68329 0.0
H1478 H 0.65694 0.18334 0.68444 0.0
H1479 H 0.70603 0.20759 0.5969 0.0
H1480 H 0.73228 0.21383 0.60383 0.0
H1481 H 0.7132 0.23341 0.60528 0.0
H1482 H 0.72469 0.24295 0.66041 0.0
H1483 H 0.74381 0.22342 0.65912 0.0
H1484 H 0.72539 0.22364 0.68973 0.0
H1485 H 0.683 0.15647 0.68235 0.0
H1486 H 0.71302 0.13465 0.67793 0.0
H1487 H 0.74762 0.18534 0.64123 0.0
C1488 C 0.67974 0.23418 0.65361 0.0
C1489 C 0.65936 0.23361 0.6641 0.0
C1490 C 0.65134 0.21503 0.67517 0.0
C1491 C 0.66321 0.19742 0.67587 0.0
C1492 C 0.68314 0.19852 0.66546 0.0
C1493 C 0.69144 0.21636 0.65457 0.0
C1494 C 0.71348 0.21325 0.6453 0.0
C1495 C 0.71641 0.21726 0.61077 0.0
C1496 C 0.72768 0.22661 0.66481 0.0
C1497 C 0.71621 0.1909 0.65283 0.0
C1498 C 0.69844 0.18279 0.66434 0.0
C1499 C 0.69703 0.16261 0.67334 0.0
C1500 C 0.71426 0.15034 0.67075 0.0
C1501 C 0.73283 0.15819 0.65926 0.0
C1502 C 0.7337 0.17879 0.64998 0.0
H1503 H 0.77378 0.68181 0.62536 0.0
H1504 H 0.80651 0.63403 0.6732 0.0
H1505 H 0.83717 0.6552 0.67388 0.0
H1506 H 0.81717 0.69984 0.57876 0.0
H1507 H 0.8099 0.72611 0.58222 0.0
H1508 H 0.79077 0.70656 0.58284 0.0
H1509 H 0.77769 0.72012 0.63513 0.0
H1510 H 0.79682 0.73964 0.63473 0.0
H1511 H 0.79514 0.7225 0.6669 0.0
H1512 H 0.86343 0.68223 0.67386 0.0
H1513 H 0.88396 0.71343 0.67187 0.0
H1514 H 0.83511 0.74391 0.62304 0.0
C1515 C 0.78747 0.67567 0.63551 0.0
C1516 C 0.78758 0.6562 0.6493 0.0
C1517 C 0.80587 0.64888 0.66259 0.0
C1518 C 0.82347 0.66078 0.66304 0.0
C1519 C 0.82272 0.68001 0.64998 0.0
C1520 C 0.80529 0.68743 0.63627 0.0
C1521 C 0.80844 0.70909 0.62535 0.0
C1522 C 0.80645 0.71047 0.5902 0.0
C1523 C 0.79364 0.7237 0.6415 0.0
C1524 C 0.83019 0.71272 0.63565 0.0
C1525 C 0.83812 0.69569 0.64968 0.0
C1526 C 0.85749 0.69561 0.66259 0.0
C1527 C 0.86903 0.71346 0.66141 0.0
C1528 C 0.86124 0.73124 0.64734 0.0
C1529 C 0.84163 0.73064 0.63386 0.0
H1530 H 0.27478 0.8388 0.62785 0.0
H1531 H 0.30023 0.88317 0.69099 0.0
H1532 H 0.3315 0.86265 0.69489 0.0
H1533 H 0.29381 0.79529 0.6656 0.0
H1534 H 0.29884 0.78139 0.63073 0.0
H1535 H 0.279 0.80018 0.63152 0.0
H1536 H 0.29569 0.81877 0.58551 0.0
H1537 H 0.3156 0.80002 0.58457 0.0
H1538 H 0.32188 0.82655 0.58812 0.0
H1539 H 0.35935 0.83608 0.69419 0.0
H1540 H 0.38116 0.80578 0.68915 0.0
H1541 H 0.33761 0.77936 0.62558 0.0
C1542 C 0.28695 0.84439 0.6423 0.0
C1543 C 0.28494 0.86272 0.65907 0.0
C1544 C 0.30132 0.86926 0.67783 0.0
C1545 C 0.31919 0.8577 0.68018 0.0
C1546 C 0.32056 0.83966 0.66352 0.0
C1547 C 0.30488 0.83308 0.64488 0.0
C1548 C 0.30981 0.8128 0.63022 0.0
C1549 C 0.29446 0.79646 0.64012 0.0
C1550 C 0.31081 0.81466 0.59502 0.0
C1551 C 0.33062 0.80884 0.64382 0.0
C1552 C 0.3366 0.82452 0.6629 0.0
C1553 C 0.35488 0.8238 0.67908 0.0
C1554 C 0.36719 0.80649 0.67604 0.0
C1555 C 0.36122 0.79007 0.65694 0.0
C1556 C 0.3428 0.79158 0.64027 0.0
H1557 H 0.17315 0.27844 0.62309 0.0
H1558 H 0.12928 0.30587 0.68502 0.0
H1559 H 0.1508 0.33644 0.68863 0.0
H1560 H 0.21648 0.29538 0.6623 0.0
H1561 H 0.23141 0.29971 0.62823 0.0
H1562 H 0.2116 0.28089 0.6279 0.0
H1563 H 0.19487 0.29855 0.58104 0.0
H1564 H 0.21469 0.31742 0.58116 0.0
H1565 H 0.18846 0.32511 0.58331 0.0
H1566 H 0.17847 0.36289 0.6889 0.0
H1567 H 0.20997 0.38302 0.68587 0.0
H1568 H 0.23573 0.33826 0.62372 0.0
C1569 C 0.16783 0.29096 0.63705 0.0
C1570 C 0.14941 0.28965 0.65373 0.0
C1571 C 0.14325 0.30643 0.67194 0.0
C1572 C 0.15538 0.3239 0.67412 0.0
C1573 C 0.17362 0.32446 0.65791 0.0
C1574 C 0.17978 0.30845 0.63963 0.0
C1575 C 0.20062 0.31231 0.62607 0.0
C1576 C 0.21592 0.29611 0.63677 0.0
C1577 C 0.19959 0.31342 0.5908 0.0
C1578 C 0.20537 0.33287 0.63995 0.0
C1579 C 0.18956 0.33968 0.65809 0.0
C1580 C 0.19086 0.35781 0.67449 0.0
C1581 C 0.20887 0.36914 0.67263 0.0
C1582 C 0.22544 0.36233 0.65452 0.0
C1583 C 0.22339 0.34406 0.63761 0.0
H1584 H 0.26465 0.11413 0.07536 0.0
H1585 H 0.22734 0.06138 0.09227 0.0
H1586 H 0.2301 0.05175 0.03723 0.0
H1587 H 0.24119 0.12882 0.01332 0.0
H1588 H 0.26274 0.13838 0.99232 0.0
H1589 H 0.26363 0.13724 0.03342 0.0
H1590 H 0.29625 0.11531 0.03108 0.0
H1591 H 0.29565 0.11659 0.98967 0.0
H1592 H 0.29643 0.0923 0.00864 0.0
H1593 H 0.22992 0.053 0.97887 0.0
H1594 H 0.22658 0.06506 0.92502 0.0
H1595 H 0.26319 0.11755 0.94705 0.0
C1596 C 0.25808 0.09992 0.06769 0.0
C1597 C 0.24622 0.08819 0.0879 0.0
C1598 C 0.23702 0.07016 0.07719 0.0
C1599 C 0.23846 0.06469 0.04593 0.0
C1600 C 0.24932 0.07734 0.026 0.0
C1601 C 0.25928 0.09445 0.03675 0.0
C1602 C 0.26686 0.10757 0.01067 0.0
C1603 C 0.25806 0.12925 0.01256 0.0
C1604 C 0.29018 0.10795 0.00997 0.0
C1605 C 0.25842 0.09602 0.9835 0.0
C1606 C 0.24888 0.07828 0.99252 0.0
C1607 C 0.23789 0.0665 0.97151 0.0
C1608 C 0.23611 0.07338 0.94096 0.0
C1609 C 0.24498 0.09199 0.93206 0.0
C1610 C 0.25676 0.103 0.95332 0.0
H1611 H 0.92578 0.21056 0.94653 0.0
H1612 H 0.92888 0.27455 0.92529 0.0
H1613 H 0.93894 0.28181 0.97918 0.0
H1614 H 0.90112 0.21482 0.01107 0.0
H1615 H 0.9133 0.19454 0.03191 0.0
H1616 H 0.9128 0.19399 0.99077 0.0
H1617 H 0.95206 0.19137 0.98935 0.0
H1618 H 0.95269 0.19176 0.03081 0.0
H1619 H 0.96725 0.21 0.00922 0.0
H1620 H 0.93967 0.28248 0.03773 0.0
H1621 H 0.9312 0.27638 0.09254 0.0
H1622 H 0.92812 0.21191 0.07446 0.0
C1623 C 0.92964 0.22597 0.95287 0.0
C1624 C 0.92689 0.24196 0.93182 0.0
C1625 C 0.93143 0.26205 0.94098 0.0
C1626 C 0.93706 0.26627 0.9716 0.0
C1627 C 0.93848 0.25017 0.99245 0.0
C1628 C 0.9353 0.23031 0.98312 0.0
C1629 C 0.93448 0.21597 0.01019 0.0
C1630 C 0.91423 0.20418 0.01102 0.0
C1631 C 0.95271 0.20142 0.00987 0.0
C1632 C 0.9361 0.23094 0.03642 0.0
C1633 C 0.93897 0.25056 0.02599 0.0
C1634 C 0.93811 0.26711 0.04616 0.0
C1635 C 0.9334 0.26355 0.07732 0.0
C1636 C 0.92932 0.24364 0.08772 0.0
C1637 C 0.93163 0.22721 0.06724 0.0
H1638 H 0.74522 0.89277 0.94375 0.0
H1639 H 0.7743 0.94964 0.92122 0.0
H1640 H 0.77104 0.96068 0.97562 0.0
H1641 H 0.71083 0.9129 1.00802 0.0
H1642 H 0.71461 0.88982 0.0295 0.0
H1643 H 0.71425 0.88916 0.98804 0.0
H1644 H 0.74955 0.87175 0.98814 0.0
H1645 H 0.75008 0.87245 0.0293 0.0
H1646 H 0.77044 0.88387 1.00771 0.0
H1647 H 0.77183 0.96159 0.03432 0.0
H1648 H 0.77635 0.95228 0.08926 0.0
H1649 H 0.74623 0.89506 0.07233 0.0
C1650 C 0.74996 0.90796 0.95008 0.0
C1651 C 0.75964 0.92055 0.92845 0.0
C1652 C 0.76634 0.94005 0.93743 0.0
C1653 C 0.7646 0.94636 0.9683 0.0
C1654 C 0.7558 0.93309 0.98958 0.0
C1655 C 0.74822 0.91441 0.98055 0.0
C1656 C 0.74217 0.9016 1.00786 0.0
C1657 C 0.71909 0.89818 1.00838 0.0
C1658 C 0.75376 0.88125 1.00826 0.0
C1659 C 0.74875 0.91534 0.03385 0.0
C1660 C 0.75615 0.93368 0.02312 0.0
C1661 C 0.76546 0.94758 0.04299 0.0
C1662 C 0.76788 0.94228 0.07419 0.0
C1663 C 0.7612 0.92317 0.08491 0.0
C1664 C 0.7509 0.91 0.06471 0.0
H1665 H 0.09142 0.80059 0.94339 0.0
H1666 H 0.08424 0.7368 0.92275 0.0
H1667 H 0.07571 0.73022 0.97746 0.0
H1668 H 0.11822 0.79474 1.00644 0.0
H1669 H 0.108 0.81583 0.02784 0.0
H1670 H 0.10738 0.81622 0.98667 0.0
H1671 H 0.06838 0.8214 0.98749 0.0
H1672 H 0.06887 0.82127 0.02895 0.0
H1673 H 0.05257 0.80392 0.00848 0.0
H1674 H 0.07575 0.73001 0.03662 0.0
H1675 H 0.08435 0.73622 0.0915 0.0
H1676 H 0.09227 0.80005 0.07163 0.0
C1677 C 0.08704 0.7854 0.95007 0.0
C1678 C 0.08815 0.76927 0.92886 0.0
C1679 C 0.08294 0.74945 0.93854 0.0
C1680 C 0.0782 0.7456 0.96964 0.0
C1681 C 0.07844 0.7618 0.99049 0.0
C1682 C 0.08238 0.78141 0.98077 0.0
C1683 C 0.08487 0.7958 1.00759 0.0
C1684 C 0.10586 0.80623 1.00709 0.0
C1685 C 0.06764 0.81152 1.00816 0.0
C1686 C 0.08303 0.78112 0.03407 0.0
C1687 C 0.07877 0.76164 0.02408 0.0
C1688 C 0.07853 0.7453 0.04465 0.0
C1689 C 0.08335 0.74894 0.07582 0.0
C1690 C 0.08873 0.76866 0.08583 0.0
C1691 C 0.08786 0.7849 0.06478 0.0
H1692 H 0.2712 0.90273 0.44515 0.0
H1693 H 0.2278 0.94986 0.42401 0.0
H1694 H 0.22995 0.9623 0.47775 0.0
H1695 H 0.25058 0.88831 0.50918 0.0
H1696 H 0.27333 0.88247 0.5305 0.0
H1697 H 0.27375 0.88187 0.48937 0.0
H1698 H 0.30339 0.90772 0.48876 0.0
H1699 H 0.3032 0.90828 0.53022 0.0
H1700 H 0.30082 0.93156 0.50876 0.0
H1701 H 0.22974 0.96326 0.53574 0.0
H1702 H 0.22725 0.95261 0.59029 0.0
H1703 H 0.27078 0.90485 0.57343 0.0
C1704 C 0.26316 0.91645 0.45152 0.0
C1705 C 0.2498 0.92574 0.43052 0.0
C1706 C 0.23864 0.94302 0.43964 0.0
C1707 C 0.23972 0.95008 0.47017 0.0
C1708 C 0.25222 0.93979 0.49102 0.0
C1709 C 0.26407 0.92352 0.48178 0.0
C1710 C 0.27339 0.91267 0.509 0.0
C1711 C 0.26738 0.89003 0.50953 0.0
C1712 C 0.29658 0.91522 0.50919 0.0
C1713 C 0.26374 0.92431 0.53516 0.0
C1714 C 0.25205 0.94031 0.52453 0.0
C1715 C 0.23943 0.95129 0.54437 0.0
C1716 C 0.23817 0.94526 0.57537 0.0
C1717 C 0.2493 0.92833 0.58598 0.0
C1718 C 0.26276 0.91832 0.56592 0.0
H1719 H 0.08482 0.2162 0.56973 0.0
H1720 H 0.08143 0.28016 0.59115 0.0
H1721 H 0.07296 0.28756 0.53674 0.0
H1722 H 0.11156 0.2204 0.50762 0.0
H1723 H 0.10009 0.20032 0.48543 0.0
H1724 H 0.09897 0.19956 0.52652 0.0
H1725 H 0.05971 0.19725 0.52447 0.0
H1726 H 0.0607 0.1978 0.48303 0.0
H1727 H 0.04544 0.21606 0.5035 0.0
H1728 H 0.07429 0.28843 0.47841 0.0
H1729 H 0.08493 0.28255 0.42441 0.0
H1730 H 0.08722 0.218 0.44186 0.0
C1731 C 0.08116 0.23162 0.56324 0.0
C1732 C 0.08342 0.24757 0.58454 0.0
C1733 C 0.07921 0.26769 0.57525 0.0
C1734 C 0.07449 0.272 0.54433 0.0
C1735 C 0.07367 0.25595 0.52328 0.0
C1736 C 0.07645 0.23605 0.53265 0.0
C1737 C 0.07823 0.2218 0.50552 0.0
C1738 C 0.0984 0.20986 0.50634 0.0
C1739 C 0.05993 0.20738 0.50405 0.0
C1740 C 0.07773 0.23687 0.47937 0.0
C1741 C 0.07446 0.25646 0.48976 0.0
C1742 C 0.07617 0.2731 0.46994 0.0
C1743 C 0.08212 0.26966 0.43924 0.0
C1744 C 0.0866 0.24979 0.42898 0.0
C1745 C 0.08347 0.23327 0.44899 0.0
H1746 H 0.74469 0.11873 0.57157 0.0
H1747 H 0.77598 0.06227 0.58931 0.0
H1748 H 0.77149 0.05235 0.53461 0.0
H1749 H 0.70918 0.09901 0.50797 0.0
H1750 H 0.71176 0.12269 0.48762 0.0
H1751 H 0.71236 0.12235 0.52908 0.0
H1752 H 0.7471 0.14084 0.52825 0.0
H1753 H 0.74665 0.14115 0.48709 0.0
H1754 H 0.76786 0.12985 0.50696 0.0
H1755 H 0.7709 0.05285 0.47609 0.0
H1756 H 0.77432 0.06375 0.42171 0.0
H1757 H 0.74289 0.11959 0.44307 0.0
C1758 C 0.74964 0.10382 0.56416 0.0
C1759 C 0.76028 0.09105 0.58449 0.0
C1760 C 0.76728 0.07197 0.5741 0.0
C1761 C 0.76483 0.06629 0.54306 0.0
C1762 C 0.75506 0.07975 0.52304 0.0
C1763 C 0.74722 0.098 0.53349 0.0
C1764 C 0.74015 0.11126 0.50722 0.0
C1765 C 0.71698 0.11397 0.50803 0.0
C1766 C 0.75111 0.13196 0.5074 0.0
C1767 C 0.74652 0.09835 0.48016 0.0
C1768 C 0.75461 0.07997 0.48951 0.0
C1769 C 0.76396 0.06686 0.4685 0.0
C1770 C 0.76575 0.07307 0.4376 0.0
C1771 C 0.75843 0.09227 0.4283 0.0
C1772 C 0.74802 0.10457 0.44958 0.0
H1773 H 0.92745 0.80264 0.56543 0.0
H1774 H 0.93019 0.73898 0.58893 0.0
H1775 H 0.93878 0.73069 0.53487 0.0
H1776 H 0.90103 0.79774 0.50286 0.0
H1777 H 0.91286 0.81741 0.48033 0.0
H1778 H 0.91367 0.81873 0.52141 0.0
H1779 H 0.95296 0.82066 0.5201 0.0
H1780 H 0.95228 0.81952 0.47867 0.0
H1781 H 0.96721 0.80143 0.50001 0.0
H1782 H 0.93762 0.72896 0.4765 0.0
H1783 H 0.92734 0.73419 0.42217 0.0
H1784 H 0.92593 0.799 0.43756 0.0
C1785 C 0.93099 0.78708 0.55949 0.0
C1786 C 0.92852 0.77148 0.58129 0.0
C1787 C 0.93257 0.75119 0.57267 0.0
C1788 C 0.93735 0.74637 0.54194 0.0
C1789 C 0.93842 0.76209 0.5204 0.0
C1790 C 0.9358 0.78215 0.52911 0.0
C1791 C 0.93435 0.79601 0.50151 0.0
C1792 C 0.91429 0.80814 0.50155 0.0
C1793 C 0.95281 0.81024 0.49998 0.0
C1794 C 0.93492 0.78056 0.47582 0.0
C1795 C 0.93785 0.76109 0.48688 0.0
C1796 C 0.93603 0.74419 0.46753 0.0
C1797 C 0.93029 0.74726 0.43662 0.0
C1798 C 0.92616 0.76703 0.42567 0.0
C1799 C 0.92944 0.78379 0.44521 0.0
H1800 H 0.71556 0.58679 0.57577 0.0
H1801 H 0.78022 0.58379 0.5925 0.0
H1802 H 0.78568 0.57335 0.53831 0.0
H1803 H 0.71278 0.54535 0.51327 0.0
H1804 H 0.69396 0.56003 0.49298 0.0
H1805 H 0.69488 0.56063 0.53442 0.0
H1806 H 0.69765 0.59984 0.53285 0.0
H1807 H 0.69694 0.59938 0.49172 0.0
H1808 H 0.71792 0.61141 0.51119 0.0
H1809 H 0.78446 0.57209 0.47991 0.0
H1810 H 0.77675 0.58046 0.42553 0.0
H1811 H 0.71294 0.58469 0.44791 0.0
C1812 C 0.73076 0.5829 0.56842 0.0
C1813 C 0.74744 0.58581 0.58827 0.0
C1814 C 0.76721 0.58116 0.57777 0.0
C1815 C 0.77041 0.5753 0.54698 0.0
C1816 C 0.75363 0.57382 0.52731 0.0
C1817 C 0.7341 0.57713 0.53797 0.0
C1818 C 0.71891 0.57807 0.51193 0.0
C1819 C 0.70427 0.55993 0.51323 0.0
C1820 C 0.70721 0.59837 0.51193 0.0
C1821 C 0.73303 0.57638 0.4847 0.0
C1822 C 0.75294 0.57327 0.4938 0.0
C1823 C 0.76886 0.57386 0.47254 0.0
C1824 C 0.76437 0.57852 0.44164 0.0
C1825 C 0.74421 0.5829 0.4326 0.0
C1826 C 0.72839 0.58095 0.45416 0.0
H1827 H 0.42946 0.71488 0.44634 0.0
H1828 H 0.43392 0.77897 0.42643 0.0
H1829 H 0.44259 0.78569 0.48099 0.0
H1830 H 0.4027 0.7191 0.50851 0.0
H1831 H 0.41374 0.69857 0.53022 0.0
H1832 H 0.41485 0.69817 0.48911 0.0
H1833 H 0.45405 0.695 0.4911 0.0
H1834 H 0.45306 0.69519 0.53255 0.0
H1835 H 0.46871 0.7133 0.51252 0.0
H1836 H 0.44147 0.78602 0.53937 0.0
H1837 H 0.4308 0.77987 0.59326 0.0
H1838 H 0.42695 0.71557 0.57427 0.0
C1839 C 0.43338 0.73018 0.45317 0.0
C1840 C 0.43136 0.74636 0.43224 0.0
C1841 C 0.43593 0.76631 0.44201 0.0
C1842 C 0.44077 0.77023 0.47303 0.0
C1843 C 0.44132 0.75398 0.4937 0.0
C1844 C 0.43815 0.73423 0.48386 0.0
C1845 C 0.43605 0.71976 0.51064 0.0
C1846 C 0.41563 0.70827 0.50954 0.0
C1847 C 0.45405 0.70494 0.51177 0.0
C1848 C 0.43687 0.73457 0.53716 0.0
C1849 C 0.44056 0.75418 0.52723 0.0
C1850 C 0.43926 0.77066 0.54746 0.0
C1851 C 0.43329 0.76706 0.5781 0.0
C1852 C 0.42838 0.7472 0.58789 0.0
C1853 C 0.43106 0.73081 0.56748 0.0
H1854 H 0.30475 0.42831 0.44872 0.0
H1855 H 0.24095 0.43377 0.42677 0.0
H1856 H 0.23373 0.44292 0.48099 0.0
H1857 H 0.29952 0.4023 0.51138 0.0
H1858 H 0.31997 0.41331 0.53337 0.0
H1859 H 0.32081 0.41399 0.49227 0.0
H1860 H 0.32445 0.45314 0.4935 0.0
H1861 H 0.32378 0.45258 0.53495 0.0
H1862 H 0.30609 0.46823 0.51403 0.0
H1863 H 0.23267 0.442 0.53924 0.0
H1864 H 0.23802 0.4313 0.59332 0.0
H1865 H 0.30255 0.42692 0.57654 0.0
C1866 C 0.28943 0.43252 0.45502 0.0
C1867 C 0.27345 0.43066 0.43364 0.0
C1868 C 0.25346 0.43564 0.44272 0.0
C1869 C 0.24925 0.44077 0.47353 0.0
C1870 C 0.26529 0.44123 0.49465 0.0
C1871 C 0.2851 0.43766 0.48547 0.0
C1872 C 0.29924 0.43566 0.51271 0.0
C1873 C 0.31051 0.41511 0.5124 0.0
C1874 C 0.31428 0.45347 0.51386 0.0
C1875 C 0.28413 0.43693 0.53876 0.0
C1876 C 0.26468 0.44077 0.52817 0.0
C1877 C 0.24792 0.4397 0.54786 0.0
C1878 C 0.25106 0.43373 0.57862 0.0
C1879 C 0.27075 0.42864 0.58906 0.0
C1880 C 0.28744 0.4312 0.56924 0.0
H1881 H 0.61995 0.24834 0.57627 0.0
H1882 H 0.56367 0.27888 0.59802 0.0
H1883 H 0.55262 0.27534 0.54365 0.0
H1884 H 0.62956 0.27263 0.51198 0.0
H1885 H 0.64052 0.25181 0.49081 0.0
H1886 H 0.64113 0.25163 0.53197 0.0
H1887 H 0.62283 0.2168 0.53258 0.0
H1888 H 0.62225 0.21682 0.49112 0.0
H1889 H 0.59904 0.2138 0.51255 0.0
H1890 H 0.55188 0.27573 0.48508 0.0
H1891 H 0.56149 0.27975 0.43019 0.0
H1892 H 0.61792 0.24829 0.44783 0.0
C1893 C 0.60488 0.25337 0.56978 0.0
C1894 C 0.59248 0.26356 0.59112 0.0
C1895 C 0.57312 0.27058 0.58198 0.0
C1896 C 0.5668 0.26866 0.55115 0.0
C1897 C 0.5799 0.25934 0.53012 0.0
C1898 C 0.59841 0.25144 0.53935 0.0
C1899 C 0.61112 0.24483 0.51223 0.0
C1900 C 0.63177 0.2559 0.51173 0.0
C1901 C 0.61397 0.22169 0.51212 0.0
C1902 C 0.59758 0.25153 0.4861 0.0
C1903 C 0.57938 0.25942 0.49661 0.0
C1904 C 0.56576 0.26897 0.47657 0.0
C1905 C 0.57123 0.27112 0.44541 0.0
C1906 C 0.59024 0.26396 0.43495 0.0
C1907 C 0.60307 0.25339 0.45529 0.0
H1908 H 0.71245 0.42053 0.94128 0.0
H1909 H 0.77621 0.43083 0.92326 0.0
H1910 H 0.78145 0.43974 0.97814 0.0
H1911 H 0.70654 0.45963 1.00622 0.0
H1912 H 0.68949 0.44272 0.02605 0.0
H1913 H 0.68994 0.44318 0.98459 0.0
H1914 H 0.6966 0.40441 0.98387 0.0
H1915 H 0.69631 0.40384 0.02502 0.0
H1916 H 0.71813 0.39438 1.00453 0.0
H1917 H 0.78092 0.43905 0.03673 0.0
H1918 H 0.77464 0.42887 0.09082 0.0
H1919 H 0.71121 0.41933 0.0693 0.0
C1920 C 0.72732 0.4256 0.94861 0.0
C1921 C 0.74388 0.4252 0.92813 0.0
C1922 C 0.76325 0.43145 0.93855 0.0
C1923 C 0.76634 0.43648 0.96971 0.0
C1924 C 0.7498 0.43558 0.98983 0.0
C1925 C 0.73054 0.43068 0.97937 0.0
C1926 C 0.71584 0.42766 1.00562 0.0
C1927 C 0.69949 0.4443 1.00562 0.0
C1928 C 0.70619 0.40632 1.0047 0.0
C1929 C 0.73007 0.43008 0.03263 0.0
C1930 C 0.7495 0.43522 0.02335 0.0
C1931 C 0.76565 0.43566 0.04428 0.0
C1932 C 0.76196 0.42996 0.07501 0.0
C1933 C 0.74238 0.42357 0.08417 0.0
C1934 C 0.72622 0.42452 0.06299 0.0
H1935 H 0.6174 0.76831 0.07221 0.0
H1936 H 0.5652 0.73128 0.09377 0.0
H1937 H 0.55346 0.73407 0.03972 0.0
H1938 H 0.59261 0.80024 1.0075 0.0
H1939 H 0.61614 0.7996 0.98637 0.0
H1940 H 0.61648 0.80024 0.02783 0.0
H1941 H 0.63871 0.76779 0.02831 0.0
H1942 H 0.63828 0.76692 0.98719 0.0
H1943 H 0.62969 0.74529 0.00895 0.0
H1944 H 0.55276 0.73331 0.9816 0.0
H1945 H 0.56322 0.72915 0.92714 0.0
H1946 H 0.61593 0.76662 0.944 0.0
C1947 C 0.60288 0.76182 0.0658 0.0
C1948 C 0.59191 0.75 0.08699 0.0
C1949 C 0.57343 0.74091 0.07792 0.0
C1950 C 0.56674 0.74238 0.04723 0.0
C1951 C 0.5786 0.75323 0.02623 0.0
C1952 C 0.59614 0.76315 0.03543 0.0
C1953 C 0.60817 0.77079 1.00821 0.0
C1954 C 0.60835 0.7941 1.00744 0.0
C1955 C 0.62996 0.76216 1.00818 0.0
C1956 C 0.59561 0.76227 0.98213 0.0
C1957 C 0.57826 0.75271 0.99274 0.0
C1958 C 0.5659 0.74136 0.97297 0.0
C1959 C 0.57185 0.73912 0.94205 0.0
C1960 C 0.59009 0.74798 0.93154 0.0
C1961 C 0.60159 0.76027 0.9515 0.0
H1962 H 0.24802 0.61919 0.07244 0.0
H1963 H 0.28344 0.56564 0.09286 0.0
H1964 H 0.27993 0.55437 0.03861 0.0
H1965 H 0.21447 0.59587 0.00921 0.0
H1966 H 0.21551 0.61932 0.98797 0.0
H1967 H 0.21581 0.61973 0.02943 0.0
H1968 H 0.24912 0.64066 0.02832 0.0
H1969 H 0.24902 0.6402 0.98716 0.0
H1970 H 0.2708 0.63081 1.00786 0.0
H1971 H 0.27961 0.55374 0.98009 0.0
H1972 H 0.28242 0.56384 0.92524 0.0
H1973 H 0.24694 0.61763 0.944 0.0
C1974 C 0.2541 0.60456 0.06574 0.0
C1975 C 0.26562 0.59304 0.08667 0.0
C1976 C 0.27407 0.57434 0.0772 0.0
C1977 C 0.27219 0.56792 0.04641 0.0
C1978 C 0.26154 0.58023 0.02573 0.0
C1979 C 0.25229 0.59803 0.03532 0.0
C1980 C 0.24449 0.61029 0.00844 0.0
C1981 C 0.22118 0.61135 0.00879 0.0
C1982 C 0.25394 0.63172 1.00793 0.0
C1983 C 0.25198 0.59742 0.98202 0.0
C1984 C 0.26133 0.57985 0.99221 0.0
C1985 C 0.27173 0.56709 0.97185 0.0
C1986 C 0.27318 0.57283 0.94071 0.0
C1987 C 0.2645 0.59125 0.93055 0.0
C1988 C 0.25317 0.60318 0.95122 0.0
H1989 H 0.42227 0.29824 0.94738 0.0
H1990 H 0.42687 0.23429 0.92611 0.0
H1991 H 0.43536 0.22718 0.98071 0.0
H1992 H 0.46203 0.29952 0.0117 0.0
H1993 H 0.44681 0.31759 0.03259 0.0
H1994 H 0.4469 0.31784 0.99113 0.0
H1995 H 0.40768 0.31458 0.99095 0.0
H1996 H 0.40746 0.31419 0.03212 0.0
H1997 H 0.39598 0.29365 0.01091 0.0
H1998 H 0.43502 0.22671 0.03956 0.0
H1999 H 0.42591 0.23298 0.09414 0.0
H2000 H 0.42211 0.2973 0.07549 0.0
C2001 C 0.42605 0.28286 0.95388 0.0
C2002 C 0.4242 0.26685 0.93255 0.0
C2003 C 0.42868 0.24682 0.94202 0.0
C2004 C 0.43343 0.24268 0.97302 0.0
C2005 C 0.43406 0.25882 0.99396 0.0
C2006 C 0.43087 0.27861 0.98445 0.0
C2007 C 0.42936 0.29303 0.01139 0.0
C2008 C 0.44735 0.30787 0.01172 0.0
C2009 C 0.40891 0.3045 0.01132 0.0
C2010 C 0.43073 0.27819 0.03775 0.0
C2011 C 0.43398 0.25856 0.02753 0.0
C2012 C 0.43314 0.2421 0.04782 0.0
C2013 C 0.42808 0.24576 0.07884 0.0
C2014 C 0.42366 0.26567 0.089 0.0
C2015 C 0.42588 0.28202 0.06843 0.0
H2016 H 0.26273 0.04351 0.22944 0.0
H2017 H 0.19765 0.05175 0.21897 0.0
H2018 H 0.1917 0.01871 0.24354 0.0
H2019 H 0.2628 0.98928 0.21379 0.0
H2020 H 0.28219 0.98354 0.24173 0.0
H2021 H 0.2817 0.00804 0.22339 0.0
H2022 H 0.28058 0.02553 0.2767 0.0
H2023 H 0.28107 1.00108 0.2952 0.0
H2024 H 0.2609 0.01872 0.30359 0.0
H2025 H 0.19225 0.98544 0.26993 0.0
H2026 H 0.19938 0.95301 0.29574 0.0
H2027 H 0.26412 0.96467 0.2888 0.0
C2028 C 0.24725 0.03834 0.23235 0.0
C2029 C 0.23066 0.05034 0.22224 0.0
C2030 C 0.21064 0.04293 0.22641 0.0
C2031 C 0.20706 0.02414 0.2404 0.0
C2032 C 0.22365 0.01271 0.25007 0.0
C2033 C 0.24336 0.01939 0.24619 0.0
C2034 C 0.25835 1.00383 0.25864 0.0
C2035 C 0.27207 0.99569 0.23285 0.0
C2036 C 0.27097 0.01283 0.28511 0.0
C2037 C 0.24392 0.98748 0.2702 0.0
C2038 C 0.22398 0.99306 0.26502 0.0
C2039 C 0.2078 0.98085 0.27401 0.0
C2040 C 0.21203 0.96242 0.28874 0.0
C2041 C 0.2323 0.95619 0.29429 0.0
C2042 C 0.24846 0.96892 0.28473 0.0
H2043 H 0.96982 0.22082 0.23049 0.0
H2044 H 0.95886 0.28545 0.21987 0.0
H2045 H 0.99188 0.29283 0.24364 0.0
H2046 H 0.99477 0.22457 0.3048 0.0
H2047 H 0.0131 0.20493 0.29691 0.0
H2048 H 0.98856 0.20429 0.27856 0.0
H2049 H 1.00589 0.20299 0.22519 0.0
H2050 H 0.03048 0.20364 0.24338 0.0
H2051 H 0.02394 0.22239 0.21489 0.0
H2052 H 0.02574 0.29378 0.26774 0.0
H2053 H 0.05879 0.28828 0.29256 0.0
H2054 H 0.04897 0.22311 0.28967 0.0
C2055 C 0.97442 0.2365 0.23317 0.0
C2056 C 0.96165 0.25255 0.22322 0.0
C2057 C 0.96824 0.27286 0.22728 0.0
C2058 C 0.98703 0.27725 0.24075 0.0
C2059 C 0.99921 0.26119 0.2503 0.0
C2060 C 0.99325 0.24121 0.24688 0.0
C2061 C 0.0094 0.22698 0.25969 0.0
C2062 C 1.00095 0.21445 0.28659 0.0
C2063 C 0.01793 0.21318 0.23427 0.0
C2064 C 0.02528 0.24215 0.2707 0.0
C2065 C 0.01898 0.26176 0.26485 0.0
C2066 C 0.03085 0.27849 0.27251 0.0
C2067 C 0.04966 0.27518 0.28662 0.0
C2068 C 0.05657 0.25527 0.29317 0.0
C2069 C 0.04414 0.23851 0.28505 0.0
H2070 H 0.79506 0.04849 0.28797 0.0
H2071 H 0.73007 0.05971 0.29046 0.0
H2072 H 0.72391 0.02701 0.26498 0.0
H2073 H 0.79537 0.02427 0.21276 0.0
H2074 H 0.81443 1.00579 0.22278 0.0
H2075 H 0.81415 0.03016 0.24161 0.0
H2076 H 0.8124 0.01242 0.29463 0.0
H2077 H 0.81268 0.98799 0.27596 0.0
H2078 H 0.79242 0.99438 0.30207 0.0
H2079 H 0.72417 0.99328 0.24046 0.0
H2080 H 0.7309 0.9602 0.21645 0.0
H2081 H 0.79576 0.96981 0.22742 0.0
C2082 C 0.77956 0.04403 0.28314 0.0
C2083 C 0.76304 0.05676 0.29132 0.0
C2084 C 0.743 0.05035 0.28446 0.0
C2085 C 0.7393 0.03174 0.26998 0.0
C2086 C 0.7558 0.01959 0.26222 0.0
C2087 C 0.77555 0.02539 0.26835 0.0
C2088 C 0.79039 0.00929 0.25711 0.0
C2089 C 0.80441 0.01789 0.23207 0.0
C2090 C 0.8027 1.0005 0.28405 0.0
C2091 C 0.77583 0.99358 0.2439 0.0
C2092 C 0.75596 0.99994 0.24729 0.0
C2093 C 0.73966 0.98814 0.23755 0.0
C2094 C 0.74367 0.9693 0.22396 0.0
C2095 C 0.76385 0.96233 0.21994 0.0
C2096 C 0.78017 0.97474 0.23 0.0
H2097 H 0.0435 0.7924 0.22733 0.0
H2098 H 0.05243 0.72758 0.21508 0.0
H2099 H 0.01908 0.72104 0.23835 0.0
H2100 H 0.01856 0.78882 0.30112 0.0
H2101 H 1.00083 0.8091 0.29377 0.0
H2102 H 0.02532 0.80913 0.27532 0.0
H2103 H 0.00789 0.81142 0.22205 0.0
H2104 H 0.98335 0.81142 0.24034 0.0
H2105 H 0.98918 0.79271 0.2114 0.0
H2106 H 0.9853 0.72097 0.26272 0.0
H2107 H 0.95263 0.72728 0.28805 0.0
H2108 H 0.9644 0.79215 0.28644 0.0
C2109 C 0.03836 0.77685 0.22944 0.0
C2110 C 0.05065 0.76049 0.21926 0.0
C2111 C 0.0434 0.74038 0.22266 0.0
C2112 C 0.02441 0.73648 0.23584 0.0
C2113 C 0.01274 0.75283 0.24573 0.0
C2114 C 0.01934 0.77263 0.24283 0.0
C2115 C 1.0037 0.78727 0.25604 0.0
C2116 C 0.01264 0.79929 0.28318 0.0
C2117 C 0.99555 0.80155 0.23096 0.0
C2118 C 0.98737 0.77254 0.26677 0.0
C2119 C 0.99301 0.75278 0.26039 0.0
C2120 C 0.98069 0.73637 0.26786 0.0
C2121 C 0.96209 0.74016 0.28228 0.0
C2122 C 0.95583 0.76022 0.28933 0.0
C2123 C 0.96872 0.77665 0.28141 0.0
H2124 H 0.79233 0.96625 0.78717 0.0
H2125 H 0.72732 0.95607 0.79386 0.0
H2126 H 0.72098 0.98883 0.76861 0.0
H2127 H 0.79094 0.02051 0.80111 0.0
H2128 H 0.81064 0.02634 0.77376 0.0
H2129 H 0.8104 1.00206 0.79277 0.0
H2130 H 0.81049 0.98393 0.73992 0.0
H2131 H 0.81071 0.00816 0.72074 0.0
H2132 H 0.79108 0.98995 0.71211 0.0
H2133 H 0.7212 0.0224 0.74329 0.0
H2134 H 0.72798 0.05512 0.7182 0.0
H2135 H 0.79286 0.04436 0.726 0.0
C2136 C 0.77678 0.97097 0.78338 0.0
C2137 C 0.76032 0.95853 0.79259 0.0
C2138 C 0.7402 0.96524 0.78704 0.0
C2139 C 0.73641 0.98387 0.77271 0.0
C2140 C 0.75288 0.99571 0.76383 0.0
C2141 C 0.77268 0.9896 0.76882 0.0
C2142 C 0.78751 1.00533 0.75651 0.0
C2143 C 0.80065 0.01407 0.7826 0.0
C2144 C 0.80073 0.9963 0.73079 0.0
C2145 C 0.77289 0.02117 0.74397 0.0
C2146 C 0.75301 0.01524 0.7486 0.0
C2147 C 0.7367 0.02723 0.73946 0.0
C2148 C 0.74074 0.04584 0.72523 0.0
C2149 C 0.76095 0.05237 0.72004 0.0
C2150 C 0.77725 0.03977 0.7295 0.0
H2151 H 0.9675 0.74753 0.72308 0.0
H2152 H 0.95759 0.81264 0.71854 0.0
H2153 H 0.98979 0.81845 0.74566 0.0
H2154 H 0.99094 0.74696 0.79888 0.0
H2155 H 0.00939 0.72776 0.78934 0.0
H2156 H 0.98523 0.72825 0.76985 0.0
H2157 H 1.00361 0.72988 0.71733 0.0
H2158 H 0.02782 0.72938 0.73666 0.0
H2159 H 0.02191 0.7497 0.71041 0.0
H2160 H 0.02248 0.81782 0.77324 0.0
H2161 H 0.05501 0.81083 0.79873 0.0
H2162 H 0.04573 0.74613 0.78549 0.0
C2163 C 0.97212 0.76298 0.7279 0.0
C2164 C 0.95989 0.77963 0.71863 0.0
C2165 C 0.96658 0.79961 0.72525 0.0
C2166 C 0.98489 0.8031 0.74075 0.0
C2167 C 0.99658 0.78649 0.7495 0.0
C2168 C 0.99062 0.7668 0.74328 0.0
C2169 C 1.00649 0.75183 0.75495 0.0
C2170 C 0.99747 0.73787 0.77973 0.0
C2171 C 0.01549 0.73947 0.72824 0.0
C2172 C 0.02219 0.76624 0.76863 0.0
C2173 C 0.01597 0.78613 0.76525 0.0
C2174 C 0.02756 0.8023 0.776 0.0
C2175 C 0.04607 0.79814 0.79053 0.0
C2176 C 0.05306 0.77793 0.7942 0.0
C2177 C 0.04087 0.76174 0.78305 0.0
H2178 H 0.26514 0.97018 0.72889 0.0
H2179 H 0.2003 0.95988 0.71889 0.0
H2180 H 0.19336 0.99229 0.74472 0.0
H2181 H 0.26281 0.99413 0.80406 0.0
H2182 H 0.28228 0.01259 0.79593 0.0
H2183 H 0.2826 0.98832 0.77682 0.0
H2184 H 0.28283 1.00634 0.72395 0.0
H2185 H 0.28251 0.03066 0.7429 0.0
H2186 H 0.26321 0.02448 0.71501 0.0
H2187 H 0.19284 0.02511 0.77169 0.0
H2188 H 0.19871 0.05766 0.79763 0.0
H2189 H 0.26389 0.04867 0.79026 0.0
C2190 C 0.24951 0.97477 0.73223 0.0
C2191 C 0.23326 0.96238 0.72182 0.0
C2192 C 0.21303 0.96901 0.72651 0.0
C2193 C 0.20889 0.98744 0.74125 0.0
C2194 C 0.22512 0.99927 0.75115 0.0
C2195 C 0.24504 0.99336 0.74682 0.0
C2196 C 0.25951 0.00936 0.75953 0.0
C2197 C 0.27257 1.00057 0.78564 0.0
C2198 C 0.2728 0.01824 0.73381 0.0
C2199 C 0.24454 0.02506 0.77165 0.0
C2200 C 0.22481 0.01875 0.76656 0.0
C2201 C 0.20821 0.03027 0.77577 0.0
C2202 C 0.21175 0.04879 0.79057 0.0
C2203 C 0.23176 0.05584 0.79605 0.0
C2204 C 0.24841 0.04376 0.78635 0.0
H2205 H 0.96485 0.2667 0.78994 0.0
H2206 H 0.95664 0.20145 0.79689 0.0
H2207 H 0.98907 0.19606 0.77024 0.0
H2208 H 0.98815 0.26668 0.7144 0.0
H2209 H 1.00605 0.28655 0.72321 0.0
H2210 H 0.98194 0.28569 0.74273 0.0
H2211 H 1.00044 0.28543 0.79529 0.0
H2212 H 0.0246 0.2863 0.77593 0.0
H2213 H 0.01931 0.26625 0.80293 0.0
H2214 H 0.02171 0.19718 0.74267 0.0
H2215 H 0.05387 0.20469 0.71661 0.0
H2216 H 0.04277 0.2693 0.72748 0.0
C2217 C 0.9699 0.25131 0.78579 0.0
C2218 C 0.9581 0.23449 0.79554 0.0
C2219 C 0.96532 0.21459 0.78977 0.0
C2220 C 0.98376 0.21134 0.77456 0.0
C2221 C 0.995 0.22813 0.76529 0.0
C2222 C 0.98849 0.24774 0.77071 0.0
C2223 C 1.00389 0.26297 0.75849 0.0
C2224 C 0.99444 0.27626 0.7332 0.0
C2225 C 0.01257 0.27601 0.78473 0.0
C2226 C 0.01996 0.24879 0.74536 0.0
C2227 C 0.01433 0.22878 0.74954 0.0
C2228 C 0.02633 0.21278 0.73931 0.0
C2229 C 0.04461 0.21725 0.72444 0.0
C2230 C 0.05096 0.23759 0.71993 0.0
C2231 C 0.0384 0.2536 0.73062 0.0
H2232 H 0.72343 0.54747 0.72612 0.0
H2233 H 0.78816 0.56015 0.72849 0.0
H2234 H 0.79418 0.5278 0.75491 0.0
H2235 H 0.72094 0.52322 0.80131 0.0
H2236 H 0.70279 0.50425 0.78959 0.0
H2237 H 0.70311 0.52866 0.77094 0.0
H2238 H 0.7073 0.51108 0.71806 0.0
H2239 H 0.70699 0.48662 0.73655 0.0
H2240 H 0.72801 0.49359 0.71226 0.0
H2241 H 0.79386 0.49438 0.77989 0.0
H2242 H 0.78723 0.46103 0.8028 0.0
H2243 H 0.72263 0.46863 0.78587 0.0
C2244 C 0.73884 0.54342 0.73229 0.0
C2245 C 0.75533 0.55644 0.72517 0.0
C2246 C 0.77526 0.55055 0.73362 0.0
C2247 C 0.77887 0.53216 0.74869 0.0
C2248 C 0.76241 0.5197 0.75533 0.0
C2249 C 0.74277 0.52497 0.74753 0.0
C2250 C 0.72796 0.50846 0.75739 0.0
C2251 C 0.7128 0.51664 0.78123 0.0
C2252 C 0.71692 0.4994 0.72939 0.0
C2253 C 0.74243 0.49314 0.77174 0.0
C2254 C 0.7622 0.50008 0.77021 0.0
C2255 C 0.77844 0.48877 0.78132 0.0
C2256 C 0.77448 0.46978 0.79429 0.0
C2257 C 0.75441 0.46212 0.79621 0.0
C2258 C 0.73813 0.47408 0.78489 0.0
H2259 H 0.5467 0.76533 0.79003 0.0
H2260 H 0.55363 0.70003 0.79888 0.0
H2261 H 0.52073 0.69495 0.77342 0.0
H2262 H 0.49234 0.76616 0.80459 0.0
H2263 H 0.48705 0.78592 0.77708 0.0
H2264 H 0.51146 0.78485 0.7958 0.0
H2265 H 0.52923 0.784 0.74275 0.0
H2266 H 0.50488 0.78506 0.72387 0.0
H2267 H 0.52228 0.76473 0.71523 0.0
H2268 H 0.4878 0.6963 0.74672 0.0
H2269 H 0.45553 0.70405 0.72099 0.0
H2270 H 0.46797 0.76857 0.72945 0.0
C2271 C 0.54127 0.74999 0.78655 0.0
C2272 C 0.55286 0.73307 0.7965 0.0
C2273 C 0.54513 0.71325 0.7916 0.0
C2274 C 0.52641 0.71018 0.77708 0.0
C2275 C 0.51538 0.72705 0.76761 0.0
C2276 C 0.52236 0.7466 0.77216 0.0
C2277 C 0.50708 0.76195 0.75986 0.0
C2278 C 0.49901 0.77552 0.78589 0.0
C2279 C 0.51643 0.77469 0.73388 0.0
C2280 C 0.49056 0.7479 0.74765 0.0
C2281 C 0.49584 0.72785 0.75238 0.0
C2282 C 0.48344 0.71194 0.74294 0.0
C2283 C 0.4651 0.71654 0.72825 0.0
C2284 C 0.4591 0.73692 0.72314 0.0
C2285 C 0.47205 0.75284 0.7331 0.0
H2286 H 0.24702 0.46643 0.72926 0.0
H2287 H 0.31184 0.45465 0.72471 0.0
H2288 H 0.3186 0.48712 0.75065 0.0
H2289 H 0.25051 0.52032 0.71444 0.0
H2290 H 0.23039 0.52718 0.74054 0.0
H2291 H 0.23026 0.50265 0.7222 0.0
H2292 H 0.22833 0.48524 0.77546 0.0
H2293 H 0.22846 0.50972 0.79397 0.0
H2294 H 0.24726 0.49101 0.80416 0.0
H2295 H 0.31883 0.5204 0.7769 0.0
H2296 H 0.3126 0.55349 0.80114 0.0
H2297 H 0.24765 0.54539 0.78857 0.0
C2298 C 0.26261 0.47068 0.73386 0.0
C2299 C 0.2789 0.4579 0.72494 0.0
C2300 C 0.29909 0.46411 0.7312 0.0
C2301 C 0.30311 0.48255 0.74601 0.0
C2302 C 0.28682 0.49481 0.75439 0.0
C2303 C 0.26696 0.48926 0.74852 0.0
C2304 C 0.25238 0.50565 0.75959 0.0
C2305 C 0.24017 0.51447 0.73258 0.0
C2306 C 0.23827 0.49741 0.7848 0.0
C2307 C 0.26721 0.52119 0.77253 0.0
C2308 C 0.28696 0.51446 0.76933 0.0
C2309 C 0.30343 0.52586 0.77952 0.0
C2310 C 0.29969 0.54469 0.79332 0.0
C2311 C 0.27963 0.55215 0.79681 0.0
C2312 C 0.26315 0.54016 0.78621 0.0
H2313 H 0.46707 0.29324 0.7924 0.0
H2314 H 0.45761 0.22811 0.79807 0.0
H2315 H 0.49064 0.22232 0.77327 0.0
H2316 H 0.49144 0.29278 0.71777 0.0
H2317 H 0.50939 0.31252 0.72705 0.0
H2318 H 0.485 0.31192 0.74576 0.0
H2319 H 0.50271 0.31165 0.79894 0.0
H2320 H 0.52715 0.31227 0.78039 0.0
H2321 H 0.5213 0.29234 0.80733 0.0
H2322 H 0.52428 0.22307 0.7484 0.0
H2323 H 0.55706 0.23027 0.72392 0.0
H2324 H 0.54581 0.29499 0.7326 0.0
C2325 C 0.47201 0.27778 0.78847 0.0
C2326 C 0.45968 0.26111 0.79727 0.0
C2327 C 0.46668 0.24113 0.79158 0.0
C2328 C 0.48546 0.23766 0.77749 0.0
C2329 C 0.49718 0.25431 0.76903 0.0
C2330 C 0.49082 0.27399 0.77418 0.0
C2331 C 0.50651 0.28906 0.7624 0.0
C2332 C 0.49755 0.30236 0.73672 0.0
C2333 C 0.51491 0.3021 0.78885 0.0
C2334 C 0.52263 0.27471 0.74992 0.0
C2335 C 0.51683 0.25476 0.75415 0.0
C2336 C 0.529 0.23863 0.74492 0.0
C2337 C 0.54766 0.24292 0.73102 0.0
C2338 C 0.55411 0.2632 0.72625 0.0
C2339 C 0.54132 0.27933 0.73581 0.0
H2340 H 0.24848 0.54923 0.23012 0.0
H2341 H 0.31349 0.5574 0.21843 0.0
H2342 H 0.31972 0.52486 0.24404 0.0
H2343 H 0.2511 0.52537 0.30527 0.0
H2344 H 0.23099 0.50746 0.29785 0.0
H2345 H 0.23112 0.53165 0.27856 0.0
H2346 H 0.22961 0.51343 0.22585 0.0
H2347 H 0.22947 0.48918 0.24499 0.0
H2348 H 0.24855 0.49467 0.21649 0.0
H2349 H 0.31966 0.49222 0.27111 0.0
H2350 H 0.31327 0.46 0.29756 0.0
H2351 H 0.24826 0.47079 0.2921 0.0
C2352 C 0.264 0.54413 0.233 0.0
C2353 C 0.28049 0.55601 0.22218 0.0
C2354 C 0.30056 0.54871 0.22635 0.0
C2355 C 0.30431 0.53018 0.24096 0.0
C2356 C 0.28785 0.51888 0.25131 0.0
C2357 C 0.26807 0.5254 0.24752 0.0
C2358 C 0.25333 0.50986 0.26078 0.0
C2359 C 0.2409 0.51914 0.28719 0.0
C2360 C 0.23942 0.50128 0.23552 0.0
C2361 C 0.26799 0.49375 0.27261 0.0
C2362 C 0.28781 0.49946 0.26686 0.0
C2363 C 0.30421 0.48752 0.27569 0.0
C2364 C 0.30038 0.46919 0.29081 0.0
C2365 C 0.28026 0.46273 0.29699 0.0
C2366 C 0.26381 0.47523 0.28765 0.0
H2367 H 0.54389 0.24559 0.29317 0.0
H2368 H 0.55136 0.31085 0.30213 0.0
H2369 H 0.5188 0.31622 0.27597 0.0
H2370 H 0.52015 0.24634 0.21788 0.0
H2371 H 0.50239 0.22625 0.2261 0.0
H2372 H 0.52655 0.22701 0.24557 0.0
H2373 H 0.50822 0.22651 0.29819 0.0
H2374 H 0.484 0.22572 0.27887 0.0
H2375 H 0.48924 0.24546 0.30648 0.0
H2376 H 0.48631 0.31527 0.24833 0.0
H2377 H 0.45417 0.30797 0.22201 0.0
H2378 H 0.46549 0.24328 0.23096 0.0
C2379 C 0.53862 0.26098 0.2896 0.0
C2380 C 0.55031 0.2778 0.29978 0.0
C2381 C 0.5428 0.29769 0.29472 0.0
C2382 C 0.52428 0.30094 0.27978 0.0
C2383 C 0.51318 0.28418 0.27003 0.0
C2384 C 0.51988 0.26456 0.27479 0.0
C2385 C 0.50451 0.24939 0.26211 0.0
C2386 C 0.51397 0.23649 0.23638 0.0
C2387 C 0.49599 0.23598 0.28796 0.0
C2388 C 0.48829 0.26364 0.24947 0.0
C2389 C 0.49381 0.28361 0.25428 0.0
C2390 C 0.48175 0.29969 0.2445 0.0
C2391 C 0.46348 0.29534 0.22946 0.0
C2392 C 0.45718 0.27505 0.22435 0.0
C2393 C 0.46982 0.25895 0.23458 0.0
H2394 H 0.76946 0.54187 0.28923 0.0
H2395 H 0.70439 0.55044 0.29976 0.0
H2396 H 0.69816 0.51808 0.27368 0.0
H2397 H 0.76723 0.51836 0.21371 0.0
H2398 H 0.78714 0.50024 0.22121 0.0
H2399 H 0.78707 0.52434 0.24084 0.0
H2400 H 0.78804 0.50585 0.29331 0.0
H2401 H 0.78813 0.4817 0.27382 0.0
H2402 H 0.76888 0.48719 0.30207 0.0
H2403 H 0.69815 0.48564 0.24629 0.0
H2404 H 0.70443 0.45349 0.21957 0.0
H2405 H 0.7695 0.46364 0.22617 0.0
C2406 C 0.75393 0.53689 0.28602 0.0
C2407 C 0.73742 0.54885 0.29665 0.0
C2408 C 0.71734 0.5417 0.29201 0.0
C2409 C 0.71359 0.52327 0.27712 0.0
C2410 C 0.73004 0.51189 0.26694 0.0
C2411 C 0.74984 0.51824 0.27118 0.0
C2412 C 0.76456 0.50265 0.25793 0.0
C2413 C 0.77725 0.51196 0.23187 0.0
C2414 C 0.77821 0.49382 0.2833 0.0
C2415 C 0.74984 0.48671 0.24562 0.0
C2416 C 0.73004 0.49257 0.25112 0.0
C2417 C 0.71359 0.48082 0.24188 0.0
C2418 C 0.71737 0.46253 0.22661 0.0
C2419 C 0.73746 0.4559 0.22067 0.0
C2420 C 0.75397 0.46822 0.23041 0.0
H2421 H 0.47209 0.76929 0.29019 0.0
H2422 H 0.4615 0.70457 0.30042 0.0
H2423 H 0.49397 0.6974 0.27502 0.0
H2424 H 0.49611 0.76655 0.21533 0.0
H2425 H 0.51468 0.78595 0.22336 0.0
H2426 H 0.49041 0.78647 0.24243 0.0
H2427 H 0.50847 0.78683 0.29533 0.0
H2428 H 0.5328 0.78631 0.27642 0.0
H2429 H 0.52654 0.76717 0.30443 0.0
H2430 H 0.52676 0.69659 0.2481 0.0
H2431 H 0.55925 0.7022 0.22185 0.0
H2432 H 0.55061 0.76741 0.22898 0.0
C2433 C 0.47665 0.75364 0.28705 0.0
C2434 C 0.46413 0.7375 0.29737 0.0
C2435 C 0.47071 0.71723 0.29287 0.0
C2436 C 0.48918 0.71295 0.27839 0.0
C2437 C 0.50112 0.72908 0.26852 0.0
C2438 C 0.49528 0.74903 0.27268 0.0
C2439 C 0.51136 0.76336 0.2599 0.0
C2440 C 0.50261 0.77635 0.2337 0.0
C2441 C 0.52032 0.7767 0.28555 0.0
C2442 C 0.52699 0.74827 0.2479 0.0
C2443 C 0.52059 0.72861 0.25314 0.0
C2444 C 0.53199 0.71191 0.24393 0.0
C2445 C 0.55047 0.71529 0.22894 0.0
C2446 C 0.55759 0.73524 0.22331 0.0
C2447 C 0.54565 0.75198 0.23305 0.0
H2448 H 0.2216 0.16653 0.22826 0.0
H2449 H 0.17597 0.12149 0.2063 0.0
H2450 H 0.15036 0.14122 0.23533 0.0
H2451 H 0.2061 0.17726 0.30228 0.0
H2452 H 0.21132 0.20432 0.2999 0.0
H2453 H 0.22483 0.18687 0.276 0.0
H2454 H 0.21304 0.20766 0.2288 0.0
H2455 H 0.19987 0.22453 0.25436 0.0
H2456 H 0.18613 0.21267 0.22368 0.0
H2457 H 0.1309 0.16363 0.27114 0.0
H2458 H 0.11624 0.19131 0.30247 0.0
H2459 H 0.173 0.22432 0.29683 0.0
C2460 C 0.20604 0.16124 0.22891 0.0
C2461 C 0.20058 0.14264 0.21496 0.0
C2462 C 0.18028 0.13583 0.21661 0.0
C2463 C 0.1657 0.1469 0.23311 0.0
C2464 C 0.17161 0.16498 0.24723 0.0
C2465 C 0.19105 0.17262 0.24414 0.0
C2466 C 0.19339 0.19237 0.26192 0.0
C2467 C 0.20983 0.19004 0.28664 0.0
C2468 C 0.1984 0.21031 0.24078 0.0
C2469 C 0.17224 0.19459 0.27557 0.0
C2470 C 0.16011 0.17834 0.26724 0.0
C2471 C 0.14013 0.17658 0.27739 0.0
C2472 C 0.13196 0.19229 0.29528 0.0
C2473 C 0.14354 0.20976 0.30222 0.0
C2474 C 0.16397 0.21092 0.2923 0.0
H2475 H 0.84667 0.22428 0.22702 0.0
H2476 H 0.89768 0.18371 0.21381 0.0
H2477 H 0.88014 0.15726 0.24415 0.0
H2478 H 0.83505 0.21134 0.30115 0.0
H2479 H 0.80756 0.21156 0.29768 0.0
H2480 H 0.82288 0.22689 0.27279 0.0
H2481 H 0.80713 0.21037 0.22484 0.0
H2482 H 0.79079 0.19686 0.25068 0.0
H2483 H 0.8053 0.18285 0.22319 0.0
H2484 H 0.8587 0.13645 0.27935 0.0
H2485 H 0.83136 0.11931 0.30839 0.0
H2486 H 0.79223 0.17136 0.29461 0.0
C2487 C 0.85383 0.20962 0.23 0.0
C2488 C 0.87348 0.20589 0.21814 0.0
C2489 C 0.8826 0.18671 0.22264 0.0
C2490 C 0.87278 0.17167 0.2399 0.0
C2491 C 0.85361 0.17589 0.25192 0.0
C2492 C 0.84378 0.19404 0.24608 0.0
C2493 C 0.8231 0.19451 0.26171 0.0
C2494 C 0.82211 0.21205 0.28486 0.0
C2495 C 0.80562 0.19626 0.23854 0.0
C2496 C 0.82292 0.17378 0.27715 0.0
C2497 C 0.84089 0.16354 0.27167 0.0
C2498 C 0.84446 0.14418 0.28344 0.0
C2499 C 0.82891 0.13459 0.29995 0.0
C2500 C 0.80987 0.1441 0.30384 0.0
C2501 C 0.80683 0.16395 0.29231 0.0
H2502 H 0.84003 0.79078 0.2913 0.0
H2503 H 0.89491 0.82624 0.3028 0.0
H2504 H 0.87945 0.85437 0.27333 0.0
H2505 H 0.82844 0.80368 0.21978 0.0
H2506 H 0.80119 0.80778 0.22207 0.0
H2507 H 0.81368 0.79075 0.24821 0.0
H2508 H 0.80113 0.8091 0.29485 0.0
H2509 H 0.78676 0.82572 0.27064 0.0
H2510 H 0.80409 0.83648 0.29809 0.0
H2511 H 0.85951 0.87722 0.2386 0.0
H2512 H 0.83369 0.8964 0.20907 0.0
H2513 H 0.7902 0.84815 0.22407 0.0
C2514 C 0.84847 0.80474 0.28835 0.0
C2515 C 0.86863 0.80648 0.29933 0.0
C2516 C 0.87942 0.82475 0.29467 0.0
C2517 C 0.87078 0.84076 0.27792 0.0
C2518 C 0.85108 0.83847 0.26669 0.0
C2519 C 0.83965 0.82133 0.27288 0.0
C2520 C 0.81877 0.82293 0.25803 0.0
C2521 C 0.81531 0.8053 0.23555 0.0
C2522 C 0.80174 0.8236 0.28199 0.0
C2523 C 0.82051 0.84334 0.24197 0.0
C2524 C 0.83936 0.85193 0.24708 0.0
C2525 C 0.8446 0.87078 0.23483 0.0
C2526 C 0.82991 0.88154 0.21804 0.0
C2527 C 0.81014 0.87363 0.21421 0.0
C2528 C 0.80536 0.85433 0.2264 0.0
H2529 H 0.2188 0.83736 0.30489 0.0
H2530 H 0.18287 0.89225 0.3113 0.0
H2531 H 0.15543 0.87585 0.28154 0.0
H2532 H 0.20862 0.82274 0.23613 0.0
H2533 H 0.20333 0.79579 0.23931 0.0
H2534 H 0.21948 0.8083 0.26674 0.0
H2535 H 0.19912 0.79704 0.31058 0.0
H2536 H 0.1814 0.78356 0.28715 0.0
H2537 H 0.17218 0.80257 0.31341 0.0
H2538 H 0.13408 0.85543 0.24556 0.0
H2539 H 0.11647 0.82946 0.21416 0.0
H2540 H 0.16378 0.78605 0.23561 0.0
C2541 C 0.20471 0.84549 0.30139 0.0
C2542 C 0.20271 0.86595 0.3109 0.0
C2543 C 0.18447 0.87647 0.30467 0.0
C2544 C 0.16886 0.8673 0.28769 0.0
C2545 C 0.17142 0.84731 0.27798 0.0
C2546 C 0.18839 0.83609 0.28596 0.0
C2547 C 0.18709 0.81478 0.27241 0.0
C2548 C 0.20566 0.81012 0.2523 0.0
C2549 C 0.18478 0.79861 0.29751 0.0
C2550 C 0.16751 0.81637 0.25401 0.0
C2551 C 0.15872 0.83526 0.25769 0.0
C2552 C 0.14061 0.84045 0.24301 0.0
C2553 C 0.13076 0.82569 0.22515 0.0
C2554 C 0.13887 0.80592 0.22247 0.0
C2555 C 0.15743 0.80118 0.23716 0.0
H2556 H 0.84207 0.79359 0.71453 0.0
H2557 H 0.89448 0.8328 0.70532 0.0
H2558 H 0.87737 0.85899 0.73673 0.0
H2559 H 0.80351 0.83729 0.71033 0.0
H2560 H 0.78669 0.82505 0.73699 0.0
H2561 H 0.80182 0.80977 0.71185 0.0
H2562 H 0.81598 0.79067 0.75698 0.0
H2563 H 0.80187 0.80593 0.7837 0.0
H2564 H 0.82926 0.80378 0.78699 0.0
H2565 H 0.85642 0.87913 0.77385 0.0
H2566 H 0.82964 0.89564 0.80503 0.0
H2567 H 0.78891 0.84566 0.78559 0.0
C2568 C 0.84953 0.80803 0.71818 0.0
C2569 C 0.86949 0.81137 0.70728 0.0
C2570 C 0.8791 0.83015 0.71318 0.0
C2571 C 0.86954 0.84504 0.7311 0.0
C2572 C 0.85009 0.84114 0.74224 0.0
C2573 C 0.83972 0.82355 0.73478 0.0
C2574 C 0.8188 0.82341 0.74965 0.0
C2575 C 0.80176 0.82392 0.72562 0.0
C2576 C 0.81634 0.8049 0.77071 0.0
C2577 C 0.81939 0.84329 0.76735 0.0
C2578 C 0.83768 0.85314 0.76298 0.0
C2579 C 0.84191 0.87172 0.777 0.0
C2580 C 0.82669 0.88095 0.79475 0.0
C2581 C 0.80739 0.87181 0.79776 0.0
C2582 C 0.80369 0.85277 0.78388 0.0
H2583 H 0.22287 0.84548 0.7211 0.0
H2584 H 0.18062 0.89442 0.70331 0.0
H2585 H 0.15422 0.87647 0.73323 0.0
H2586 H 0.18286 0.80305 0.71655 0.0
H2587 H 0.19573 0.78892 0.74591 0.0
H2588 H 0.21027 0.80461 0.72049 0.0
H2589 H 0.22565 0.82357 0.76675 0.0
H2590 H 0.21136 0.80712 0.79118 0.0
H2591 H 0.20896 0.83451 0.79497 0.0
H2592 H 0.1341 0.85551 0.77024 0.0
H2593 H 0.11813 0.82886 0.80208 0.0
H2594 H 0.17144 0.79106 0.79107 0.0
C2595 C 0.20779 0.85196 0.72263 0.0
C2596 C 0.2036 0.8712 0.70975 0.0
C2597 C 0.18395 0.87957 0.71273 0.0
C2598 C 0.16893 0.86953 0.72978 0.0
C2599 C 0.17367 0.85084 0.74301 0.0
C2600 C 0.19227 0.84161 0.73834 0.0
C2601 C 0.19335 0.82145 0.75527 0.0
C2602 C 0.19569 0.8035 0.73308 0.0
C2603 C 0.21082 0.8217 0.77858 0.0
C2604 C 0.17262 0.82101 0.77067 0.0
C2605 C 0.16171 0.83833 0.76364 0.0
C2606 C 0.14235 0.84173 0.77547 0.0
C2607 C 0.13345 0.8266 0.79368 0.0
C2608 C 0.14367 0.80811 0.7993 0.0
C2609 C 0.16353 0.80528 0.7877 0.0
H2610 H 0.16912 0.22519 0.71943 0.0
H2611 H 0.11531 0.18793 0.70972 0.0
H2612 H 0.1311 0.16144 0.74209 0.0
H2613 H 0.20544 0.18078 0.7156 0.0
H2614 H 0.22292 0.19126 0.74319 0.0
H2615 H 0.20899 0.20806 0.71876 0.0
H2616 H 0.19448 0.22748 0.76296 0.0
H2617 H 0.20852 0.21191 0.78933 0.0
H2618 H 0.18122 0.2146 0.79318 0.0
H2619 H 0.1508 0.14103 0.78028 0.0
H2620 H 0.17677 0.12354 0.81178 0.0
H2621 H 0.21982 0.17138 0.7917 0.0
C2622 C 0.16109 0.21108 0.72312 0.0
C2623 C 0.14112 0.20837 0.7118 0.0
C2624 C 0.13072 0.19006 0.71787 0.0
C2625 C 0.13951 0.17503 0.73638 0.0
C2626 C 0.15897 0.17832 0.74795 0.0
C2627 C 0.17009 0.1954 0.74036 0.0
C2628 C 0.19092 0.19481 0.75554 0.0
C2629 C 0.20802 0.19362 0.73172 0.0
C2630 C 0.19395 0.21325 0.77663 0.0
C2631 C 0.18947 0.17505 0.77338 0.0
C2632 C 0.17075 0.166 0.76905 0.0
C2633 C 0.16563 0.14779 0.78341 0.0
C2634 C 0.18038 0.13803 0.80139 0.0
C2635 C 0.2001 0.14626 0.80424 0.0
C2636 C 0.20469 0.16501 0.79014 0.0
H2637 H 0.84046 0.21925 0.79752 0.0
H2638 H 0.89353 0.18122 0.8095 0.0
H2639 H 0.87725 0.15422 0.77858 0.0
H2640 H 0.80283 0.17506 0.80244 0.0
H2641 H 0.78599 0.18623 0.77465 0.0
H2642 H 0.80039 0.20246 0.79942 0.0
H2643 H 0.81466 0.22103 0.75432 0.0
H2644 H 0.80148 0.20506 0.72741 0.0
H2645 H 0.82888 0.20788 0.72542 0.0
H2646 H 0.85711 0.13316 0.74153 0.0
H2647 H 0.83105 0.11579 0.70992 0.0
H2648 H 0.78919 0.16525 0.72656 0.0
C2649 C 0.84824 0.20491 0.79459 0.0
C2650 C 0.86815 0.20212 0.80609 0.0
C2651 C 0.87818 0.18345 0.80114 0.0
C2652 C 0.86909 0.1681 0.78351 0.0
C2653 C 0.84969 0.17144 0.77175 0.0
C2654 C 0.83891 0.18895 0.77831 0.0
C2655 C 0.81818 0.18849 0.76283 0.0
C2656 C 0.80088 0.18801 0.78638 0.0
C2657 C 0.81565 0.20664 0.74107 0.0
C2658 C 0.81934 0.16837 0.74582 0.0
C2659 C 0.83776 0.15892 0.75106 0.0
C2660 C 0.84251 0.14025 0.7377 0.0
C2661 C 0.8277 0.13054 0.71969 0.0
C2662 C 0.8083 0.13931 0.71574 0.0
C2663 C 0.80406 0.15843 0.729 0.0
H2664 H 0.72503 0.67144 0.72373 0.0
H2665 H 0.68996 0.61619 0.71401 0.0
H2666 H 0.66263 0.63102 0.74585 0.0
H2667 H 0.71339 0.6831 0.79769 0.0
H2668 H 0.70974 0.71027 0.7937 0.0
H2669 H 0.72611 0.6968 0.76775 0.0
H2670 H 0.70637 0.70976 0.72182 0.0
H2671 H 0.69023 0.724 0.74695 0.0
H2672 H 0.67895 0.70652 0.72023 0.0
H2673 H 0.64074 0.65036 0.7826 0.0
H2674 H 0.62171 0.67603 0.81259 0.0
H2675 H 0.66862 0.72038 0.794 0.0
C2676 C 0.7113 0.66279 0.72762 0.0
C2677 C 0.70943 0.64273 0.71641 0.0
C2678 C 0.69149 0.63163 0.72227 0.0
C2679 C 0.67598 0.6399 0.74043 0.0
C2680 C 0.67843 0.6595 0.75189 0.0
C2681 C 0.69517 0.67122 0.74457 0.0
C2682 C 0.69367 0.69205 0.7595 0.0
C2683 C 0.71176 0.69576 0.78107 0.0
C2684 C 0.69222 0.70904 0.73555 0.0
C2685 C 0.67372 0.69 0.77672 0.0
C2686 C 0.66538 0.67096 0.77238 0.0
C2687 C 0.64698 0.66541 0.78582 0.0
C2688 C 0.63633 0.68 0.80289 0.0
C2689 C 0.64388 0.69998 0.80575 0.0
C2690 C 0.66279 0.70504 0.79252 0.0
H2691 H 0.28948 0.66785 0.78703 0.0
H2692 H 0.33395 0.62222 0.81154 0.0
H2693 H 0.36007 0.64054 0.78152 0.0
H2694 H 0.30623 0.6777 0.71083 0.0
H2695 H 0.30031 0.7045 0.71486 0.0
H2696 H 0.28718 0.68621 0.73759 0.0
H2697 H 0.29897 0.70842 0.78464 0.0
H2698 H 0.31275 0.72461 0.75885 0.0
H2699 H 0.32596 0.71279 0.79003 0.0
H2700 H 0.38015 0.66159 0.74479 0.0
H2701 H 0.39585 0.68852 0.7133 0.0
H2702 H 0.3401 0.7233 0.71754 0.0
C2703 C 0.30489 0.66211 0.78663 0.0
C2704 C 0.30988 0.64375 0.80163 0.0
C2705 C 0.33 0.63639 0.8004 0.0
C2706 C 0.34485 0.64663 0.7833 0.0
C2707 C 0.33939 0.66445 0.7681 0.0
C2708 C 0.32016 0.67266 0.7707 0.0
C2709 C 0.31844 0.69218 0.75226 0.0
C2710 C 0.30214 0.68995 0.72728 0.0
C2711 C 0.31375 0.71053 0.77282 0.0
C2712 C 0.33973 0.69364 0.73889 0.0
C2713 C 0.35133 0.67714 0.74777 0.0
C2714 C 0.37132 0.67471 0.73803 0.0
C2715 C 0.38007 0.68999 0.72 0.0
C2716 C 0.36907 0.70773 0.71255 0.0
C2717 C 0.34861 0.70959 0.72208 0.0
H2718 H 0.34624 0.28671 0.78699 0.0
H2719 H 0.39435 0.32939 0.8077 0.0
H2720 H 0.37659 0.35581 0.77748 0.0
H2721 H 0.3363 0.30307 0.71029 0.0
H2722 H 0.30927 0.29837 0.71463 0.0
H2723 H 0.32714 0.28456 0.73735 0.0
H2724 H 0.30656 0.2976 0.78562 0.0
H2725 H 0.29022 0.3108 0.75927 0.0
H2726 H 0.30238 0.32474 0.78931 0.0
H2727 H 0.35533 0.37653 0.74199 0.0
H2728 H 0.32821 0.39317 0.71191 0.0
H2729 H 0.29151 0.33878 0.71832 0.0
C2730 C 0.35272 0.30178 0.78555 0.0
C2731 C 0.37156 0.30618 0.79965 0.0
C2732 C 0.37985 0.32588 0.79718 0.0
C2733 C 0.36991 0.3409 0.77999 0.0
C2734 C 0.35152 0.33604 0.76585 0.0
C2735 C 0.34255 0.31723 0.76941 0.0
C2736 C 0.32263 0.31608 0.75174 0.0
C2737 C 0.32396 0.29961 0.7269 0.0
C2738 C 0.30444 0.31205 0.7729 0.0
C2739 C 0.32166 0.33735 0.73814 0.0
C2740 C 0.33882 0.34832 0.74597 0.0
C2741 C 0.34173 0.3682 0.73602 0.0
C2742 C 0.32631 0.37749 0.71885 0.0
C2743 C 0.30797 0.36717 0.71251 0.0
C2744 C 0.30561 0.3468 0.7222 0.0
H2745 H 0.63184 0.33316 0.72352 0.0
H2746 H 0.6658 0.27691 0.72692 0.0
H2747 H 0.69495 0.295 0.75024 0.0
H2748 H 0.67552 0.37094 0.71516 0.0
H2749 H 0.66203 0.38761 0.74051 0.0
H2750 H 0.64807 0.37017 0.7165 0.0
H2751 H 0.63146 0.36112 0.76843 0.0
H2752 H 0.64946 0.37341 0.79356 0.0
H2753 H 0.64542 0.34632 0.79562 0.0
H2754 H 0.72219 0.3208 0.76328 0.0
H2755 H 0.74166 0.34879 0.78736 0.0
H2756 H 0.68726 0.38564 0.79029 0.0
C2757 C 0.64567 0.32489 0.7285 0.0
C2758 C 0.64724 0.30394 0.72185 0.0
C2759 C 0.66478 0.29312 0.73083 0.0
C2760 C 0.68138 0.30326 0.74388 0.0
C2761 C 0.67977 0.32406 0.74906 0.0
C2762 C 0.66212 0.33466 0.74283 0.0
C2763 C 0.66325 0.35605 0.75594 0.0
C2764 C 0.66209 0.37211 0.73044 0.0
C2765 C 0.64646 0.35947 0.77989 0.0
C2766 C 0.68434 0.35571 0.77021 0.0
C2767 C 0.69397 0.33752 0.76411 0.0
C2768 C 0.71463 0.33477 0.76961 0.0
C2769 C 0.72555 0.3507 0.78312 0.0
C2770 C 0.71557 0.36863 0.79244 0.0
C2771 C 0.69483 0.37144 0.7852 0.0
H2772 H 0.33948 0.28957 0.22574 0.0
H2773 H 0.39349 0.32599 0.21235 0.0
H2774 H 0.37829 0.35361 0.24318 0.0
H2775 H 0.3031 0.33409 0.22042 0.0
H2776 H 0.2862 0.32423 0.24923 0.0
H2777 H 0.29976 0.30689 0.22519 0.0
H2778 H 0.3148 0.28875 0.27007 0.0
H2779 H 0.30166 0.30515 0.2963 0.0
H2780 H 0.32907 0.30233 0.29853 0.0
H2781 H 0.3591 0.37548 0.28003 0.0
H2782 H 0.33371 0.39412 0.31101 0.0
H2783 H 0.29019 0.34585 0.296 0.0
C2784 C 0.34769 0.3037 0.22834 0.0
C2785 C 0.36755 0.30586 0.21645 0.0
C2786 C 0.37817 0.32425 0.22102 0.0
C2787 C 0.36969 0.33994 0.2386 0.0
C2788 C 0.35032 0.33721 0.25075 0.0
C2789 C 0.33898 0.32 0.24461 0.0
C2790 C 0.31843 0.32114 0.26049 0.0
C2791 C 0.30089 0.32164 0.23731 0.0
C2792 C 0.31583 0.30334 0.28282 0.0
C2793 C 0.32023 0.34143 0.27695 0.0
C2794 C 0.33891 0.35024 0.27135 0.0
C2795 C 0.3443 0.36889 0.28414 0.0
C2796 C 0.32986 0.37932 0.30181 0.0
C2797 C 0.31016 0.37131 0.30592 0.0
C2798 C 0.3053 0.35209 0.29347 0.0
H2799 H 0.6654 0.29029 0.29335 0.0
H2800 H 0.61887 0.33495 0.31248 0.0
H2801 H 0.63746 0.36021 0.28117 0.0
H2802 H 0.7101 0.32751 0.29482 0.0
H2803 H 0.72244 0.31321 0.26517 0.0
H2804 H 0.70614 0.3003 0.29183 0.0
H2805 H 0.68556 0.28616 0.24563 0.0
H2806 H 0.70255 0.29942 0.22071 0.0
H2807 H 0.67533 0.30364 0.2179 0.0
H2808 H 0.65883 0.37909 0.2434 0.0
H2809 H 0.68588 0.39367 0.21083 0.0
H2810 H 0.72108 0.33852 0.22081 0.0
C2811 C 0.65955 0.30561 0.2916 0.0
C2812 C 0.64089 0.31089 0.30541 0.0
C2813 C 0.63331 0.33083 0.30231 0.0
C2814 C 0.64371 0.34519 0.2845 0.0
C2815 C 0.66188 0.33942 0.27054 0.0
C2816 C 0.67026 0.32042 0.27502 0.0
C2817 C 0.69001 0.31818 0.25729 0.0
C2818 C 0.70819 0.31459 0.27869 0.0
C2819 C 0.68822 0.30088 0.23385 0.0
C2820 C 0.69135 0.33888 0.24201 0.0
C2821 C 0.67468 0.35065 0.24949 0.0
C2822 C 0.67211 0.37016 0.23779 0.0
C2823 C 0.68745 0.37826 0.2192 0.0
C2824 C 0.70534 0.36712 0.21315 0.0
C2825 C 0.70732 0.34714 0.2246 0.0
H2826 H 0.72505 0.66517 0.29238 0.0
H2827 H 0.68295 0.61585 0.30854 0.0
H2828 H 0.65718 0.63314 0.27646 0.0
H2829 H 0.68476 0.70728 0.29318 0.0
H2830 H 0.69879 0.72099 0.26467 0.0
H2831 H 0.71226 0.70529 0.29147 0.0
H2832 H 0.7287 0.68693 0.24546 0.0
H2833 H 0.71435 0.70244 0.21958 0.0
H2834 H 0.71278 0.67498 0.2172 0.0
H2835 H 0.63754 0.65373 0.23843 0.0
H2836 H 0.62151 0.68056 0.20694 0.0
H2837 H 0.67424 0.71885 0.22022 0.0
C2838 C 0.71015 0.65843 0.28987 0.0
C2839 C 0.7058 0.6393 0.30297 0.0
C2840 C 0.68638 0.63061 0.29886 0.0
C2841 C 0.67174 0.64025 0.28058 0.0
C2842 C 0.67663 0.65883 0.26718 0.0
C2843 C 0.69497 0.66836 0.2728 0.0
C2844 C 0.6962 0.68843 0.25569 0.0
C2845 C 0.69812 0.70652 0.27772 0.0
C2846 C 0.71401 0.68816 0.23299 0.0
C2847 C 0.67571 0.68863 0.23955 0.0
C2848 C 0.66493 0.67113 0.24596 0.0
C2849 C 0.64571 0.66762 0.2336 0.0
C2850 C 0.63677 0.68285 0.21561 0.0
C2851 C 0.64679 0.70154 0.2109 0.0
C2852 C 0.66653 0.70445 0.22291 0.0
H2853 H 0.29337 0.67155 0.22705 0.0
H2854 H 0.33575 0.62342 0.20525 0.0
H2855 H 0.36238 0.64078 0.23568 0.0
H2856 H 0.33239 0.71449 0.22418 0.0
H2857 H 0.3196 0.72748 0.25474 0.0
H2858 H 0.30512 0.71197 0.22881 0.0
H2859 H 0.2911 0.69154 0.27502 0.0
H2860 H 0.3054 0.7081 0.29933 0.0
H2861 H 0.30873 0.68077 0.30211 0.0
H2862 H 0.38286 0.66106 0.27313 0.0
H2863 H 0.39923 0.68728 0.30542 0.0
H2864 H 0.34547 0.72485 0.29809 0.0
C2865 C 0.30848 0.66509 0.228 0.0
C2866 C 0.3127 0.64629 0.21374 0.0
C2867 C 0.33242 0.63795 0.21578 0.0
C2868 C 0.34755 0.64765 0.23312 0.0
C2869 C 0.34281 0.66593 0.24763 0.0
C2870 C 0.32408 0.6751 0.24406 0.0
C2871 C 0.32305 0.69483 0.26212 0.0
C2872 C 0.31986 0.71323 0.24107 0.0
C2873 C 0.30612 0.6937 0.28622 0.0
C2874 C 0.34409 0.69522 0.27661 0.0
C2875 C 0.355 0.67812 0.26841 0.0
C2876 C 0.3746 0.67466 0.27931 0.0
C2877 C 0.38372 0.68954 0.29778 0.0
C2878 C 0.37349 0.70785 0.30455 0.0
C2879 C 0.35339 0.71073 0.2939 0.0
loop_
_geom_bond_atom_site_label_1
_geom_bond_atom_site_label_2
_geom_bond_distance
_geom_bond_site_symmetry_2
_ccdc_geom_bond_type
Mn0 O5 2.095 . S
Mn0 O15 2.162 . S
Mn0 O16 2.297 . S
Mn0 O24 2.385 . S
Mn0 O25 2.209 . S
Mn0 O26 2.094 . S
Mn1 O6 2.121 . S
Mn1 N8 2.257 . S
Mn1 N17 2.282 . S
Mn1 O25 2.215 . S
Mn1 O27 2.117 . S
C2 O24 1.234 . S
C2 O25 1.283 . S
C3 O15 1.281 . S
C3 O16 1.236 . S
C4 O26 1.240 . S
C4 O27 1.264 . S
O5 Mn0 2.095 . S
O5 C14 1.250 . S
O6 Mn1 2.121 . S
O6 C14 1.258 . S
C7 N8 1.326 . S
C7 C11 1.460 . S
C7 H13 0.929 . S
N8 Mn1 2.257 . S
N8 C7 1.326 . S
N8 C12 1.362 . S
C9 C10 1.258 . S
C9 C12 1.431 . S
C9 C29 1.449 . S
C10 C9 1.258 . S
C10 C11 1.477 . S
C10 H30 0.931 . S
C11 C7 1.460 . S
C11 C10 1.477 . S
C11 H31 0.930 . S
C12 N8 1.362 . S
C12 C9 1.431 . S
C12 C22 1.476 . S
H13 C7 0.929 . S
C14 O5 1.250 . S
C14 O6 1.258 . S
O15 Mn0 2.162 . S
O15 C3 1.281 . S
O16 Mn0 2.297 . S
O16 C3 1.236 . S
N17 Mn1 2.282 . S
N17 C18 1.328 . S
N17 C22 1.318 . S
C18 N17 1.328 . S
C18 C19 1.457 . S
C18 H23 0.929 . S
C19 C18 1.457 . S
C19 C20 1.291 . S
C19 H32 0.931 . S
C20 C19 1.291 . S
C20 C21 1.373 . S
C20 H33 0.929 . S
C21 C20 1.373 . S
C21 C22 1.396 . S
C21 C28 1.403 . S
C22 C12 1.476 . S
C22 N17 1.318 . S
C22 C21 1.396 . S
H23 C18 0.929 . S
O24 Mn0 2.385 . S
O24 C2 1.234 . S
O25 Mn0 2.209 . S
O25 Mn1 2.215 . S
O25 C2 1.283 . S
O26 Mn0 2.094 . S
O26 C4 1.240 . S
O27 Mn1 2.117 . S
O27 C4 1.264 . S
C28 C21 1.403 . S
C28 C29 1.399 . S
C28 H34 0.929 . S
C29 C9 1.449 . S
C29 C28 1.399 . S
C29 H35 0.930 . S
H30 C10 0.931 . S
H31 C11 0.930 . S
H32 C19 0.931 . S
H33 C20 0.929 . S
H34 C28 0.929 . S
H35 C29 0.930 . S
Mn36 O41 2.095 . S
Mn36 O51 2.162 . S
Mn36 O52 2.297 . S
Mn36 O60 2.385 . S
Mn36 O61 2.209 . S
Mn36 O62 2.094 . S
Mn37 O42 2.121 . S
Mn37 N44 2.257 . S
Mn37 N53 2.282 . S
Mn37 O61 2.215 . S
Mn37 O63 2.117 . S
C38 O60 1.234 . S
C38 O61 1.283 . S
C39 O51 1.281 . S
C39 O52 1.236 . S
C40 O62 1.240 . S
C40 O63 1.264 . S
O41 Mn36 2.095 . S
O41 C50 1.250 . S
O42 Mn37 2.121 . S
O42 C50 1.258 . S
C43 N44 1.326 . S
C43 C47 1.460 . S
C43 H49 0.929 . S
N44 Mn37 2.257 . S
N44 C43 1.326 . S
N44 C48 1.362 . S
C45 C46 1.258 . S
C45 C48 1.431 . S
C45 C65 1.449 . S
C46 C45 1.258 . S
C46 C47 1.477 . S
C46 H66 0.931 . S
C47 C43 1.460 . S
C47 C46 1.477 . S
C47 H67 0.930 . S
C48 N44 1.362 . S
C48 C45 1.431 . S
C48 C58 1.476 . S
H49 C43 0.929 . S
C50 O41 1.250 . S
C50 O42 1.258 . S
O51 Mn36 2.162 . S
O51 C39 1.281 . S
O52 Mn36 2.297 . S
O52 C39 1.236 . S
N53 Mn37 2.282 . S
N53 C54 1.328 . S
N53 C58 1.318 . S
C54 N53 1.328 . S
C54 C55 1.457 . S
C54 H59 0.929 . S
C55 C54 1.457 . S
C55 C56 1.291 . S
C55 H68 0.931 . S
C56 C55 1.291 . S
C56 C57 1.373 . S
C56 H69 0.929 . S
C57 C56 1.373 . S
C57 C58 1.396 . S
C57 C64 1.403 . S
C58 C48 1.476 . S
C58 N53 1.318 . S
C58 C57 1.396 . S
H59 C54 0.929 . S
O60 Mn36 2.385 . S
O60 C38 1.234 . S
O61 Mn36 2.209 . S
O61 Mn37 2.215 . S
O61 C38 1.283 . S
O62 Mn36 2.094 . S
O62 C40 1.240 . S
O63 Mn37 2.117 . S
O63 C40 1.264 . S
C64 C57 1.403 . S
C64 C65 1.399 . S
C64 H70 0.929 . S
C65 C45 1.449 . S
C65 C64 1.399 . S
C65 H71 0.930 . S
H66 C46 0.931 . S
H67 C47 0.930 . S
H68 C55 0.931 . S
H69 C56 0.929 . S
H70 C64 0.929 . S
H71 C65 0.930 . S
Mn72 O77 2.095 . S
Mn72 O87 2.162 . S
Mn72 O88 2.297 . S
Mn72 O96 2.385 . S
Mn72 O97 2.209 . S
Mn72 O98 2.094 . S
Mn73 O78 2.121 . S
Mn73 N80 2.257 . S
Mn73 N89 2.282 . S
Mn73 O97 2.215 . S
Mn73 O99 2.117 . S
C74 O96 1.234 . S
C74 O97 1.283 . S
C75 O87 1.281 . S
C75 O88 1.236 . S
C76 O98 1.240 . S
C76 O99 1.264 . S
O77 Mn72 2.095 . S
O77 C86 1.250 . S
O78 Mn73 2.121 . S
O78 C86 1.258 . S
C79 N80 1.326 . S
C79 C83 1.460 . S
C79 H85 0.929 . S
N80 Mn73 2.257 . S
N80 C79 1.326 . S
N80 C84 1.362 . S
C81 C82 1.258 . S
C81 C84 1.431 . S
C81 C101 1.449 . S
C82 C81 1.258 . S
C82 C83 1.477 . S
C82 H102 0.931 . S
C83 C79 1.460 . S
C83 C82 1.477 . S
C83 H103 0.930 . S
C84 N80 1.362 . S
C84 C81 1.431 . S
C84 C94 1.476 . S
H85 C79 0.929 . S
C86 O77 1.250 . S
C86 O78 1.258 . S
O87 Mn72 2.162 . S
O87 C75 1.281 . S
O88 Mn72 2.297 . S
O88 C75 1.236 . S
N89 Mn73 2.282 . S
N89 C90 1.328 . S
N89 C94 1.318 . S
C90 N89 1.328 . S
C90 C91 1.457 . S
C90 H95 0.929 . S
C91 C90 1.457 . S
C91 C92 1.291 . S
C91 H104 0.931 . S
C92 C91 1.291 . S
C92 C93 1.373 . S
C92 H105 0.929 . S
C93 C92 1.373 . S
C93 C94 1.396 . S
C93 C100 1.403 . S
C94 C84 1.476 . S
C94 N89 1.318 . S
C94 C93 1.396 . S
H95 C90 0.929 . S
O96 Mn72 2.385 . S
O96 C74 1.234 . S
O97 Mn72 2.209 . S
O97 Mn73 2.215 . S
O97 C74 1.283 . S
O98 Mn72 2.094 . S
O98 C76 1.240 . S
O99 Mn73 2.117 . S
O99 C76 1.264 . S
C100 C93 1.403 . S
C100 C101 1.399 . S
C100 H106 0.929 . S
C101 C81 1.449 . S
C101 C100 1.399 . S
C101 H107 0.930 . S
H102 C82 0.931 . S
H103 C83 0.930 . S
H104 C91 0.931 . S
H105 C92 0.929 . S
H106 C100 0.929 . S
H107 C101 0.930 . S
Mn108 O113 2.095 . S
Mn108 O123 2.162 . S
Mn108 O124 2.297 . S
Mn108 O132 2.385 . S
Mn108 O133 2.209 . S
Mn108 O134 2.094 . S
Mn109 O114 2.121 . S
Mn109 N116 2.257 . S
Mn109 N125 2.282 . S
Mn109 O133 2.215 . S
Mn109 O135 2.117 . S
C110 O132 1.234 . S
C110 O133 1.283 . S
C111 O123 1.281 . S
C111 O124 1.236 . S
C112 O134 1.240 . S
C112 O135 1.264 . S
O113 Mn108 2.095 . S
O113 C122 1.250 . S
O114 Mn109 2.121 . S
O114 C122 1.258 . S
C115 N116 1.326 . S
C115 C119 1.460 . S
C115 H121 0.929 . S
N116 Mn109 2.257 . S
N116 C115 1.326 . S
N116 C120 1.362 . S
C117 C118 1.258 . S
C117 C120 1.431 . S
C117 C137 1.449 . S
C118 C117 1.258 . S
C118 C119 1.477 . S
C118 H138 0.931 . S
C119 C115 1.460 . S
C119 C118 1.477 . S
C119 H139 0.930 . S
C120 N116 1.362 . S
C120 C117 1.431 . S
C120 C130 1.476 . S
H121 C115 0.929 . S
C122 O113 1.250 . S
C122 O114 1.258 . S
O123 Mn108 2.162 . S
O123 C111 1.281 . S
O124 Mn108 2.297 . S
O124 C111 1.236 . S
N125 Mn109 2.282 . S
N125 C126 1.328 . S
N125 C130 1.318 . S
C126 N125 1.328 . S
C126 C127 1.457 . S
C126 H131 0.929 . S
C127 C126 1.457 . S
C127 C128 1.291 . S
C127 H140 0.931 . S
C128 C127 1.291 . S
C128 C129 1.373 . S
C128 H141 0.929 . S
C129 C128 1.373 . S
C129 C130 1.396 . S
C129 C136 1.403 . S
C130 C120 1.476 . S
C130 N125 1.318 . S
C130 C129 1.396 . S
H131 C126 0.929 . S
O132 Mn108 2.385 . S
O132 C110 1.234 . S
O133 Mn108 2.209 . S
O133 Mn109 2.215 . S
O133 C110 1.283 . S
O134 Mn108 2.094 . S
O134 C112 1.240 . S
O135 Mn109 2.117 . S
O135 C112 1.264 . S
C136 C129 1.403 . S
C136 C137 1.399 . S
C136 H142 0.929 . S
C137 C117 1.449 . S
C137 C136 1.399 . S
C137 H143 0.930 . S
H138 C118 0.931 . S
H139 C119 0.930 . S
H140 C127 0.931 . S
H141 C128 0.929 . S
H142 C136 0.929 . S
H143 C137 0.930 . S
Mn144 O149 2.095 . S
Mn144 O159 2.162 . S
Mn144 O160 2.297 . S
Mn144 O168 2.385 . S
Mn144 O169 2.209 . S
Mn144 O170 2.094 . S
Mn145 O150 2.121 . S
Mn145 N152 2.257 . S
Mn145 N161 2.282 . S
Mn145 O169 2.215 . S
Mn145 O171 2.117 . S
C146 O168 1.234 . S
C146 O169 1.283 . S
C147 O159 1.281 . S
C147 O160 1.236 . S
C148 O170 1.240 . S
C148 O171 1.264 . S
O149 Mn144 2.095 . S
O149 C158 1.250 . S
O150 Mn145 2.121 . S
O150 C158 1.258 . S
C151 N152 1.326 . S
C151 C155 1.460 . S
C151 H157 0.929 . S
N152 Mn145 2.257 . S
N152 C151 1.326 . S
N152 C156 1.362 . S
C153 C154 1.258 . S
C153 C156 1.431 . S
C153 C173 1.449 . S
C154 C153 1.258 . S
C154 C155 1.477 . S
C154 H174 0.931 . S
C155 C151 1.460 . S
C155 C154 1.477 . S
C155 H175 0.930 . S
C156 N152 1.362 . S
C156 C153 1.431 . S
C156 C166 1.476 . S
H157 C151 0.929 . S
C158 O149 1.250 . S
C158 O150 1.258 . S
O159 Mn144 2.162 . S
O159 C147 1.281 . S
O160 Mn144 2.297 . S
O160 C147 1.236 . S
N161 Mn145 2.282 . S
N161 C162 1.328 . S
N161 C166 1.318 . S
C162 N161 1.328 . S
C162 C163 1.457 . S
C162 H167 0.929 . S
C163 C162 1.457 . S
C163 C164 1.291 . S
C163 H176 0.931 . S
C164 C163 1.291 . S
C164 C165 1.373 . S
C164 H177 0.929 . S
C165 C164 1.373 . S
C165 C166 1.396 . S
C165 C172 1.403 . S
C166 C156 1.476 . S
C166 N161 1.318 . S
C166 C165 1.396 . S
H167 C162 0.929 . S
O168 Mn144 2.385 . S
O168 C146 1.234 . S
O169 Mn144 2.209 . S
O169 Mn145 2.215 . S
O169 C146 1.283 . S
O170 Mn144 2.094 . S
O170 C148 1.240 . S
O171 Mn145 2.117 . S
O171 C148 1.264 . S
C172 C165 1.403 . S
C172 C173 1.399 . S
C172 H178 0.929 . S
C173 C153 1.449 . S
C173 C172 1.399 . S
C173 H179 0.930 . S
H174 C154 0.931 . S
H175 C155 0.930 . S
H176 C163 0.931 . S
H177 C164 0.929 . S
H178 C172 0.929 . S
H179 C173 0.930 . S
Mn180 O185 2.095 . S
Mn180 O195 2.162 . S
Mn180 O196 2.297 . S
Mn180 O204 2.385 . S
Mn180 O205 2.209 . S
Mn180 O206 2.094 . S
Mn181 O186 2.121 . S
Mn181 N188 2.257 . S
Mn181 N197 2.282 . S
Mn181 O205 2.215 . S
Mn181 O207 2.117 . S
C182 O204 1.234 . S
C182 O205 1.283 . S
C183 O195 1.281 . S
C183 O196 1.236 . S
C184 O206 1.240 . S
C184 O207 1.264 . S
O185 Mn180 2.095 . S
O185 C194 1.250 . S
O186 Mn181 2.121 . S
O186 C194 1.258 . S
C187 N188 1.326 . S
C187 C191 1.460 . S
C187 H193 0.929 . S
N188 Mn181 2.257 . S
N188 C187 1.326 . S
N188 C192 1.362 . S
C189 C190 1.258 . S
C189 C192 1.431 . S
C189 C209 1.449 . S
C190 C189 1.258 . S
C190 C191 1.477 . S
C190 H210 0.931 . S
C191 C187 1.460 . S
C191 C190 1.477 . S
C191 H211 0.930 . S
C192 N188 1.362 . S
C192 C189 1.431 . S
C192 C202 1.476 . S
H193 C187 0.929 . S
C194 O185 1.250 . S
C194 O186 1.258 . S
O195 Mn180 2.162 . S
O195 C183 1.281 . S
O196 Mn180 2.297 . S
O196 C183 1.236 . S
N197 Mn181 2.282 . S
N197 C198 1.328 . S
N197 C202 1.318 . S
C198 N197 1.328 . S
C198 C199 1.457 . S
C198 H203 0.929 . S
C199 C198 1.457 . S
C199 C200 1.291 . S
C199 H212 0.931 . S
C200 C199 1.291 . S
C200 C201 1.373 . S
C200 H213 0.929 . S
C201 C200 1.373 . S
C201 C202 1.396 . S
C201 C208 1.403 . S
C202 C192 1.476 . S
C202 N197 1.318 . S
C202 C201 1.396 . S
H203 C198 0.929 . S
O204 Mn180 2.385 . S
O204 C182 1.234 . S
O205 Mn180 2.209 . S
O205 Mn181 2.215 . S
O205 C182 1.283 . S
O206 Mn180 2.094 . S
O206 C184 1.240 . S
O207 Mn181 2.117 . S
O207 C184 1.264 . S
C208 C201 1.403 . S
C208 C209 1.399 . S
C208 H214 0.929 . S
C209 C189 1.449 . S
C209 C208 1.399 . S
C209 H215 0.930 . S
H210 C190 0.931 . S
H211 C191 0.930 . S
H212 C199 0.931 . S
H213 C200 0.929 . S
H214 C208 0.929 . S
H215 C209 0.930 . S
Mn216 O221 2.095 . S
Mn216 O231 2.162 . S
Mn216 O232 2.297 . S
Mn216 O240 2.385 . S
Mn216 O241 2.209 . S
Mn216 O242 2.094 . S
Mn217 O222 2.121 . S
Mn217 N224 2.257 . S
Mn217 N233 2.282 . S
Mn217 O241 2.215 . S
Mn217 O243 2.117 . S
C218 O240 1.234 . S
C218 O241 1.283 . S
C219 O231 1.281 . S
C219 O232 1.236 . S
C220 O242 1.240 . S
C220 O243 1.264 . S
O221 Mn216 2.095 . S
O221 C230 1.250 . S
O222 Mn217 2.121 . S
O222 C230 1.258 . S
C223 N224 1.326 . S
C223 C227 1.460 . S
C223 H229 0.929 . S
N224 Mn217 2.257 . S
N224 C223 1.326 . S
N224 C228 1.362 . S
C225 C226 1.258 . S
C225 C228 1.431 . S
C225 C245 1.449 . S
C226 C225 1.258 . S
C226 C227 1.477 . S
C226 H246 0.931 . S
C227 C223 1.460 . S
C227 C226 1.477 . S
C227 H247 0.930 . S
C228 N224 1.362 . S
C228 C225 1.431 . S
C228 C238 1.476 . S
H229 C223 0.929 . S
C230 O221 1.250 . S
C230 O222 1.258 . S
O231 Mn216 2.162 . S
O231 C219 1.281 . S
O232 Mn216 2.297 . S
O232 C219 1.236 . S
N233 Mn217 2.282 . S
N233 C234 1.328 . S
N233 C238 1.318 . S
C234 N233 1.328 . S
C234 C235 1.457 . S
C234 H239 0.929 . S
C235 C234 1.457 . S
C235 C236 1.291 . S
C235 H248 0.931 . S
C236 C235 1.291 . S
C236 C237 1.373 . S
C236 H249 0.929 . S
C237 C236 1.373 . S
C237 C238 1.396 . S
C237 C244 1.403 . S
C238 C228 1.476 . S
C238 N233 1.318 . S
C238 C237 1.396 . S
H239 C234 0.929 . S
O240 Mn216 2.385 . S
O240 C218 1.234 . S
O241 Mn216 2.209 . S
O241 Mn217 2.215 . S
O241 C218 1.283 . S
O242 Mn216 2.094 . S
O242 C220 1.240 . S
O243 Mn217 2.117 . S
O243 C220 1.264 . S
C244 C237 1.403 . S
C244 C245 1.399 . S
C244 H250 0.929 . S
C245 C225 1.449 . S
C245 C244 1.399 . S
C245 H251 0.930 . S
H246 C226 0.931 . S
H247 C227 0.930 . S
H248 C235 0.931 . S
H249 C236 0.929 . S
H250 C244 0.929 . S
H251 C245 0.930 . S
Mn252 O257 2.095 . S
Mn252 O267 2.162 . S
Mn252 O268 2.297 . S
Mn252 O276 2.385 . S
Mn252 O277 2.209 . S
Mn252 O278 2.094 . S
Mn253 O258 2.121 . S
Mn253 N260 2.257 . S
Mn253 N269 2.282 . S
Mn253 O277 2.215 . S
Mn253 O279 2.117 . S
C254 O276 1.234 . S
C254 O277 1.283 . S
C255 O267 1.281 . S
C255 O268 1.236 . S
C256 O278 1.240 . S
C256 O279 1.264 . S
O257 Mn252 2.095 . S
O257 C266 1.250 . S
O258 Mn253 2.121 . S
O258 C266 1.258 . S
C259 N260 1.326 . S
C259 C263 1.460 . S
C259 H265 0.929 . S
N260 Mn253 2.257 . S
N260 C259 1.326 . S
N260 C264 1.362 . S
C261 C262 1.258 . S
C261 C264 1.431 . S
C261 C281 1.449 . S
C262 C261 1.258 . S
C262 C263 1.477 . S
C262 H282 0.931 . S
C263 C259 1.460 . S
C263 C262 1.477 . S
C263 H283 0.930 . S
C264 N260 1.362 . S
C264 C261 1.431 . S
C264 C274 1.476 . S
H265 C259 0.929 . S
C266 O257 1.250 . S
C266 O258 1.258 . S
O267 Mn252 2.162 . S
O267 C255 1.281 . S
O268 Mn252 2.297 . S
O268 C255 1.236 . S
N269 Mn253 2.282 . S
N269 C270 1.328 . S
N269 C274 1.318 . S
C270 N269 1.328 . S
C270 C271 1.457 . S
C270 H275 0.929 . S
C271 C270 1.457 . S
C271 C272 1.291 . S
C271 H284 0.931 . S
C272 C271 1.291 . S
C272 C273 1.373 . S
C272 H285 0.929 . S
C273 C272 1.373 . S
C273 C274 1.396 . S
C273 C280 1.403 . S
C274 C264 1.476 . S
C274 N269 1.318 . S
C274 C273 1.396 . S
H275 C270 0.929 . S
O276 Mn252 2.385 . S
O276 C254 1.234 . S
O277 Mn252 2.209 . S
O277 Mn253 2.215 . S
O277 C254 1.283 . S
O278 Mn252 2.094 . S
O278 C256 1.240 . S
O279 Mn253 2.117 . S
O279 C256 1.264 . S
C280 C273 1.403 . S
C280 C281 1.399 . S
C280 H286 0.929 . S
C281 C261 1.449 . S
C281 C280 1.399 . S
C281 H287 0.930 . S
H282 C262 0.931 . S
H283 C263 0.930 . S
H284 C271 0.931 . S
H285 C272 0.929 . S
H286 C280 0.929 . S
H287 C281 0.930 . S
Mn288 O293 2.095 . S
Mn288 O303 2.162 . S
Mn288 O304 2.297 . S
Mn288 O312 2.385 . S
Mn288 O313 2.209 . S
Mn288 O314 2.094 . S
Mn289 O294 2.121 . S
Mn289 N296 2.257 . S
Mn289 N305 2.282 . S
Mn289 O313 2.215 . S
Mn289 O315 2.117 . S
C290 O312 1.234 . S
C290 O313 1.283 . S
C291 O303 1.281 . S
C291 O304 1.236 . S
C292 O314 1.240 . S
C292 O315 1.264 . S
O293 Mn288 2.095 . S
O293 C302 1.250 . S
O294 Mn289 2.121 . S
O294 C302 1.258 . S
C295 N296 1.326 . S
C295 C299 1.460 . S
C295 H301 0.929 . S
N296 Mn289 2.257 . S
N296 C295 1.326 . S
N296 C300 1.362 . S
C297 C298 1.258 . S
C297 C300 1.431 . S
C297 C317 1.449 . S
C298 C297 1.258 . S
C298 C299 1.477 . S
C298 H318 0.931 . S
C299 C295 1.460 . S
C299 C298 1.477 . S
C299 H319 0.930 . S
C300 N296 1.362 . S
C300 C297 1.431 . S
C300 C310 1.476 . S
H301 C295 0.929 . S
C302 O293 1.250 . S
C302 O294 1.258 . S
O303 Mn288 2.162 . S
O303 C291 1.281 . S
O304 Mn288 2.297 . S
O304 C291 1.236 . S
N305 Mn289 2.282 . S
N305 C306 1.328 . S
N305 C310 1.318 . S
C306 N305 1.328 . S
C306 C307 1.457 . S
C306 H311 0.929 . S
C307 C306 1.457 . S
C307 C308 1.291 . S
C307 H320 0.931 . S
C308 C307 1.291 . S
C308 C309 1.373 . S
C308 H321 0.929 . S
C309 C308 1.373 . S
C309 C310 1.396 . S
C309 C316 1.403 . S
C310 C300 1.476 . S
C310 N305 1.318 . S
C310 C309 1.396 . S
H311 C306 0.929 . S
O312 Mn288 2.385 . S
O312 C290 1.234 . S
O313 Mn288 2.209 . S
O313 Mn289 2.215 . S
O313 C290 1.283 . S
O314 Mn288 2.094 . S
O314 C292 1.240 . S
O315 Mn289 2.117 . S
O315 C292 1.264 . S
C316 C309 1.403 . S
C316 C317 1.399 . S
C316 H322 0.929 . S
C317 C297 1.449 . S
C317 C316 1.399 . S
C317 H323 0.930 . S
H318 C298 0.931 . S
H319 C299 0.930 . S
H320 C307 0.931 . S
H321 C308 0.929 . S
H322 C316 0.929 . S
H323 C317 0.930 . S
Mn324 O329 2.095 . S
Mn324 O339 2.162 . S
Mn324 O340 2.297 . S
Mn324 O348 2.385 . S
Mn324 O349 2.209 . S
Mn324 O350 2.094 . S
Mn325 O330 2.121 . S
Mn325 N332 2.257 . S
Mn325 N341 2.282 . S
Mn325 O349 2.215 . S
Mn325 O351 2.117 . S
C326 O348 1.234 . S
C326 O349 1.283 . S
C327 O339 1.281 . S
C327 O340 1.236 . S
C328 O350 1.240 . S
C328 O351 1.264 . S
O329 Mn324 2.095 . S
O329 C338 1.250 . S
O330 Mn325 2.121 . S
O330 C338 1.258 . S
C331 N332 1.326 . S
C331 C335 1.460 . S
C331 H337 0.929 . S
N332 Mn325 2.257 . S
N332 C331 1.326 . S
N332 C336 1.362 . S
C333 C334 1.258 . S
C333 C336 1.431 . S
C333 C353 1.449 . S
C334 C333 1.258 . S
C334 C335 1.477 . S
C334 H354 0.931 . S
C335 C331 1.460 . S
C335 C334 1.477 . S
C335 H355 0.930 . S
C336 N332 1.362 . S
C336 C333 1.431 . S
C336 C346 1.476 . S
H337 C331 0.929 . S
C338 O329 1.250 . S
C338 O330 1.258 . S
O339 Mn324 2.162 . S
O339 C327 1.281 . S
O340 Mn324 2.297 . S
O340 C327 1.236 . S
N341 Mn325 2.282 . S
N341 C342 1.328 . S
N341 C346 1.318 . S
C342 N341 1.328 . S
C342 C343 1.457 . S
C342 H347 0.929 . S
C343 C342 1.457 . S
C343 C344 1.291 . S
C343 H356 0.931 . S
C344 C343 1.291 . S
C344 C345 1.373 . S
C344 H357 0.929 . S
C345 C344 1.373 . S
C345 C346 1.396 . S
C345 C352 1.403 . S
C346 C336 1.476 . S
C346 N341 1.318 . S
C346 C345 1.396 . S
H347 C342 0.929 . S
O348 Mn324 2.385 . S
O348 C326 1.234 . S
O349 Mn324 2.209 . S
O349 Mn325 2.215 . S
O349 C326 1.283 . S
O350 Mn324 2.094 . S
O350 C328 1.240 . S
O351 Mn325 2.117 . S
O351 C328 1.264 . S
C352 C345 1.403 . S
C352 C353 1.399 . S
C352 H358 0.929 . S
C353 C333 1.449 . S
C353 C352 1.399 . S
C353 H359 0.930 . S
H354 C334 0.931 . S
H355 C335 0.930 . S
H356 C343 0.931 . S
H357 C344 0.929 . S
H358 C352 0.929 . S
H359 C353 0.930 . S
Mn360 O365 2.095 . S
Mn360 O375 2.162 . S
Mn360 O376 2.297 . S
Mn360 O384 2.385 . S
Mn360 O385 2.209 . S
Mn360 O386 2.094 . S
Mn361 O366 2.121 . S
Mn361 N368 2.257 . S
Mn361 N377 2.282 . S
Mn361 O385 2.215 . S
Mn361 O387 2.117 . S
C362 O384 1.234 . S
C362 O385 1.283 . S
C363 O375 1.281 . S
C363 O376 1.236 . S
C364 O386 1.240 . S
C364 O387 1.264 . S
O365 Mn360 2.095 . S
O365 C374 1.250 . S
O366 Mn361 2.121 . S
O366 C374 1.258 . S
C367 N368 1.326 . S
C367 C371 1.460 . S
C367 H373 0.929 . S
N368 Mn361 2.257 . S
N368 C367 1.326 . S
N368 C372 1.362 . S
C369 C370 1.258 . S
C369 C372 1.431 . S
C369 C389 1.449 . S
C370 C369 1.258 . S
C370 C371 1.477 . S
C370 H390 0.931 . S
C371 C367 1.460 . S
C371 C370 1.477 . S
C371 H391 0.930 . S
C372 N368 1.362 . S
C372 C369 1.431 . S
C372 C382 1.476 . S
H373 C367 0.929 . S
C374 O365 1.250 . S
C374 O366 1.258 . S
O375 Mn360 2.162 . S
O375 C363 1.281 . S
O376 Mn360 2.297 . S
O376 C363 1.236 . S
N377 Mn361 2.282 . S
N377 C378 1.328 . S
N377 C382 1.318 . S
C378 N377 1.328 . S
C378 C379 1.457 . S
C378 H383 0.929 . S
C379 C378 1.457 . S
C379 C380 1.291 . S
C379 H392 0.931 . S
C380 C379 1.291 . S
C380 C381 1.373 . S
C380 H393 0.929 . S
C381 C380 1.373 . S
C381 C382 1.396 . S
C381 C388 1.403 . S
C382 C372 1.476 . S
C382 N377 1.318 . S
C382 C381 1.396 . S
H383 C378 0.929 . S
O384 Mn360 2.385 . S
O384 C362 1.234 . S
O385 Mn360 2.209 . S
O385 Mn361 2.215 . S
O385 C362 1.283 . S
O386 Mn360 2.094 . S
O386 C364 1.240 . S
O387 Mn361 2.117 . S
O387 C364 1.264 . S
C388 C381 1.403 . S
C388 C389 1.399 . S
C388 H394 0.929 . S
C389 C369 1.449 . S
C389 C388 1.399 . S
C389 H395 0.930 . S
H390 C370 0.931 . S
H391 C371 0.930 . S
H392 C379 0.931 . S
H393 C380 0.929 . S
H394 C388 0.929 . S
H395 C389 0.930 . S
Mn396 O401 2.095 . S
Mn396 O411 2.162 . S
Mn396 O412 2.297 . S
Mn396 O420 2.385 . S
Mn396 O421 2.209 . S
Mn396 O422 2.094 . S
Mn397 O402 2.121 . S
Mn397 N404 2.257 . S
Mn397 N413 2.282 . S
Mn397 O421 2.215 . S
Mn397 O423 2.117 . S
C398 O420 1.234 . S
C398 O421 1.283 . S
C399 O411 1.281 . S
C399 O412 1.236 . S
C400 O422 1.240 . S
C400 O423 1.264 . S
O401 Mn396 2.095 . S
O401 C410 1.250 . S
O402 Mn397 2.121 . S
O402 C410 1.258 . S
C403 N404 1.326 . S
C403 C407 1.460 . S
C403 H409 0.929 . S
N404 Mn397 2.257 . S
N404 C403 1.326 . S
N404 C408 1.362 . S
C405 C406 1.258 . S
C405 C408 1.431 . S
C405 C425 1.449 . S
C406 C405 1.258 . S
C406 C407 1.477 . S
C406 H426 0.931 . S
C407 C403 1.460 . S
C407 C406 1.477 . S
C407 H427 0.930 . S
C408 N404 1.362 . S
C408 C405 1.431 . S
C408 C418 1.476 . S
H409 C403 0.929 . S
C410 O401 1.250 . S
C410 O402 1.258 . S
O411 Mn396 2.162 . S
O411 C399 1.281 . S
O412 Mn396 2.297 . S
O412 C399 1.236 . S
N413 Mn397 2.282 . S
N413 C414 1.328 . S
N413 C418 1.318 . S
C414 N413 1.328 . S
C414 C415 1.457 . S
C414 H419 0.929 . S
C415 C414 1.457 . S
C415 C416 1.291 . S
C415 H428 0.931 . S
C416 C415 1.291 . S
C416 C417 1.373 . S
C416 H429 0.929 . S
C417 C416 1.373 . S
C417 C418 1.396 . S
C417 C424 1.403 . S
C418 C408 1.476 . S
C418 N413 1.318 . S
C418 C417 1.396 . S
H419 C414 0.929 . S
O420 Mn396 2.385 . S
O420 C398 1.234 . S
O421 Mn396 2.209 . S
O421 Mn397 2.215 . S
O421 C398 1.283 . S
O422 Mn396 2.094 . S
O422 C400 1.240 . S
O423 Mn397 2.117 . S
O423 C400 1.264 . S
C424 C417 1.403 . S
C424 C425 1.399 . S
C424 H430 0.929 . S
C425 C405 1.449 . S
C425 C424 1.399 . S
C425 H431 0.930 . S
H426 C406 0.931 . S
H427 C407 0.930 . S
H428 C415 0.931 . S
H429 C416 0.929 . S
H430 C424 0.929 . S
H431 C425 0.930 . S
Mn432 O437 2.095 . S
Mn432 O447 2.162 . S
Mn432 O448 2.297 . S
Mn432 O456 2.385 . S
Mn432 O457 2.209 . S
Mn432 O458 2.094 . S
Mn433 O438 2.121 . S
Mn433 N440 2.257 . S
Mn433 N449 2.282 . S
Mn433 O457 2.215 . S
Mn433 O459 2.117 . S
C434 O456 1.234 . S
C434 O457 1.283 . S
C435 O447 1.281 . S
C435 O448 1.236 . S
C436 O458 1.240 . S
C436 O459 1.264 . S
O437 Mn432 2.095 . S
O437 C446 1.250 . S
O438 Mn433 2.121 . S
O438 C446 1.258 . S
C439 N440 1.326 . S
C439 C443 1.460 . S
C439 H445 0.929 . S
N440 Mn433 2.257 . S
N440 C439 1.326 . S
N440 C444 1.362 . S
C441 C442 1.258 . S
C441 C444 1.431 . S
C441 C461 1.449 . S
C442 C441 1.258 . S
C442 C443 1.477 . S
C442 H462 0.931 . S
C443 C439 1.460 . S
C443 C442 1.477 . S
C443 H463 0.930 . S
C444 N440 1.362 . S
C444 C441 1.431 . S
C444 C454 1.476 . S
H445 C439 0.929 . S
C446 O437 1.250 . S
C446 O438 1.258 . S
O447 Mn432 2.162 . S
O447 C435 1.281 . S
O448 Mn432 2.297 . S
O448 C435 1.236 . S
N449 Mn433 2.282 . S
N449 C450 1.328 . S
N449 C454 1.318 . S
C450 N449 1.328 . S
C450 C451 1.457 . S
C450 H455 0.929 . S
C451 C450 1.457 . S
C451 C452 1.291 . S
C451 H464 0.931 . S
C452 C451 1.291 . S
C452 C453 1.373 . S
C452 H465 0.929 . S
C453 C452 1.373 . S
C453 C454 1.396 . S
C453 C460 1.403 . S
C454 C444 1.476 . S
C454 N449 1.318 . S
C454 C453 1.396 . S
H455 C450 0.929 . S
O456 Mn432 2.385 . S
O456 C434 1.234 . S
O457 Mn432 2.209 . S
O457 Mn433 2.215 . S
O457 C434 1.283 . S
O458 Mn432 2.094 . S
O458 C436 1.240 . S
O459 Mn433 2.117 . S
O459 C436 1.264 . S
C460 C453 1.403 . S
C460 C461 1.399 . S
C460 H466 0.929 . S
C461 C441 1.449 . S
C461 C460 1.399 . S
C461 H467 0.930 . S
H462 C442 0.931 . S
H463 C443 0.930 . S
H464 C451 0.931 . S
H465 C452 0.929 . S
H466 C460 0.929 . S
H467 C461 0.930 . S
Mn468 O473 2.095 . S
Mn468 O483 2.162 . S
Mn468 O484 2.297 . S
Mn468 O492 2.385 . S
Mn468 O493 2.209 . S
Mn468 O494 2.094 . S
Mn469 O474 2.121 . S
Mn469 N476 2.257 . S
Mn469 N485 2.282 . S
Mn469 O493 2.215 . S
Mn469 O495 2.117 . S
C470 O492 1.234 . S
C470 O493 1.283 . S
C471 O483 1.281 . S
C471 O484 1.236 . S
C472 O494 1.240 . S
C472 O495 1.264 . S
O473 Mn468 2.095 . S
O473 C482 1.250 . S
O474 Mn469 2.121 . S
O474 C482 1.258 . S
C475 N476 1.326 . S
C475 C479 1.460 . S
C475 H481 0.929 . S
N476 Mn469 2.257 . S
N476 C475 1.326 . S
N476 C480 1.362 . S
C477 C478 1.258 . S
C477 C480 1.431 . S
C477 C497 1.449 . S
C478 C477 1.258 . S
C478 C479 1.477 . S
C478 H498 0.931 . S
C479 C475 1.460 . S
C479 C478 1.477 . S
C479 H499 0.930 . S
C480 N476 1.362 . S
C480 C477 1.431 . S
C480 C490 1.476 . S
H481 C475 0.929 . S
C482 O473 1.250 . S
C482 O474 1.258 . S
O483 Mn468 2.162 . S
O483 C471 1.281 . S
O484 Mn468 2.297 . S
O484 C471 1.236 . S
N485 Mn469 2.282 . S
N485 C486 1.328 . S
N485 C490 1.318 . S
C486 N485 1.328 . S
C486 C487 1.457 . S
C486 H491 0.929 . S
C487 C486 1.457 . S
C487 C488 1.291 . S
C487 H500 0.931 . S
C488 C487 1.291 . S
C488 C489 1.373 . S
C488 H501 0.929 . S
C489 C488 1.373 . S
C489 C490 1.396 . S
C489 C496 1.403 . S
C490 C480 1.476 . S
C490 N485 1.318 . S
C490 C489 1.396 . S
H491 C486 0.929 . S
O492 Mn468 2.385 . S
O492 C470 1.234 . S
O493 Mn468 2.209 . S
O493 Mn469 2.215 . S
O493 C470 1.283 . S
O494 Mn468 2.094 . S
O494 C472 1.240 . S
O495 Mn469 2.117 . S
O495 C472 1.264 . S
C496 C489 1.403 . S
C496 C497 1.399 . S
C496 H502 0.929 . S
C497 C477 1.449 . S
C497 C496 1.399 . S
C497 H503 0.930 . S
H498 C478 0.931 . S
H499 C479 0.930 . S
H500 C487 0.931 . S
H501 C488 0.929 . S
H502 C496 0.929 . S
H503 C497 0.930 . S
Mn504 O509 2.095 . S
Mn504 O519 2.162 . S
Mn504 O520 2.297 . S
Mn504 O528 2.385 . S
Mn504 O529 2.209 . S
Mn504 O530 2.094 . S
Mn505 O510 2.121 . S
Mn505 N512 2.257 . S
Mn505 N521 2.282 . S
Mn505 O529 2.215 . S
Mn505 O531 2.117 . S
C506 O528 1.234 . S
C506 O529 1.283 . S
C507 O519 1.281 . S
C507 O520 1.236 . S
C508 O530 1.240 . S
C508 O531 1.264 . S
O509 Mn504 2.095 . S
O509 C518 1.250 . S
O510 Mn505 2.121 . S
O510 C518 1.258 . S
C511 N512 1.326 . S
C511 C515 1.460 . S
C511 H517 0.929 . S
N512 Mn505 2.257 . S
N512 C511 1.326 . S
N512 C516 1.362 . S
C513 C514 1.258 . S
C513 C516 1.431 . S
C513 C533 1.449 . S
C514 C513 1.258 . S
C514 C515 1.477 . S
C514 H534 0.931 . S
C515 C511 1.460 . S
C515 C514 1.477 . S
C515 H535 0.930 . S
C516 N512 1.362 . S
C516 C513 1.431 . S
C516 C526 1.476 . S
H517 C511 0.929 . S
C518 O509 1.250 . S
C518 O510 1.258 . S
O519 Mn504 2.162 . S
O519 C507 1.281 . S
O520 Mn504 2.297 . S
O520 C507 1.236 . S
N521 Mn505 2.282 . S
N521 C522 1.328 . S
N521 C526 1.318 . S
C522 N521 1.328 . S
C522 C523 1.457 . S
C522 H527 0.929 . S
C523 C522 1.457 . S
C523 C524 1.291 . S
C523 H536 0.931 . S
C524 C523 1.291 . S
C524 C525 1.373 . S
C524 H537 0.929 . S
C525 C524 1.373 . S
C525 C526 1.396 . S
C525 C532 1.403 . S
C526 C516 1.476 . S
C526 N521 1.318 . S
C526 C525 1.396 . S
H527 C522 0.929 . S
O528 Mn504 2.385 . S
O528 C506 1.234 . S
O529 Mn504 2.209 . S
O529 Mn505 2.215 . S
O529 C506 1.283 . S
O530 Mn504 2.094 . S
O530 C508 1.240 . S
O531 Mn505 2.117 . S
O531 C508 1.264 . S
C532 C525 1.403 . S
C532 C533 1.399 . S
C532 H538 0.929 . S
C533 C513 1.449 . S
C533 C532 1.399 . S
C533 H539 0.930 . S
H534 C514 0.931 . S
H535 C515 0.930 . S
H536 C523 0.931 . S
H537 C524 0.929 . S
H538 C532 0.929 . S
H539 C533 0.930 . S
Mn540 O545 2.095 . S
Mn540 O555 2.162 . S
Mn540 O556 2.297 . S
Mn540 O564 2.385 . S
Mn540 O565 2.209 . S
Mn540 O566 2.094 . S
Mn541 O546 2.121 . S
Mn541 N548 2.257 . S
Mn541 N557 2.282 . S
Mn541 O565 2.215 . S
Mn541 O567 2.117 . S
C542 O564 1.234 . S
C542 O565 1.283 . S
C543 O555 1.281 . S
C543 O556 1.236 . S
C544 O566 1.240 . S
C544 O567 1.264 . S
O545 Mn540 2.095 . S
O545 C554 1.250 . S
O546 Mn541 2.121 . S
O546 C554 1.258 . S
C547 N548 1.326 . S
C547 C551 1.460 . S
C547 H553 0.929 . S
N548 Mn541 2.257 . S
N548 C547 1.326 . S
N548 C552 1.362 . S
C549 C550 1.258 . S
C549 C552 1.431 . S
C549 C569 1.449 . S
C550 C549 1.258 . S
C550 C551 1.477 . S
C550 H570 0.931 . S
C551 C547 1.460 . S
C551 C550 1.477 . S
C551 H571 0.930 . S
C552 N548 1.362 . S
C552 C549 1.431 . S
C552 C562 1.476 . S
H553 C547 0.929 . S
C554 O545 1.250 . S
C554 O546 1.258 . S
O555 Mn540 2.162 . S
O555 C543 1.281 . S
O556 Mn540 2.297 . S
O556 C543 1.236 . S
N557 Mn541 2.282 . S
N557 C558 1.328 . S
N557 C562 1.318 . S
C558 N557 1.328 . S
C558 C559 1.457 . S
C558 H563 0.929 . S
C559 C558 1.457 . S
C559 C560 1.291 . S
C559 H572 0.931 . S
C560 C559 1.291 . S
C560 C561 1.373 . S
C560 H573 0.929 . S
C561 C560 1.373 . S
C561 C562 1.396 . S
C561 C568 1.403 . S
C562 C552 1.476 . S
C562 N557 1.318 . S
C562 C561 1.396 . S
H563 C558 0.929 . S
O564 Mn540 2.385 . S
O564 C542 1.234 . S
O565 Mn540 2.209 . S
O565 Mn541 2.215 . S
O565 C542 1.283 . S
O566 Mn540 2.094 . S
O566 C544 1.240 . S
O567 Mn541 2.117 . S
O567 C544 1.264 . S
C568 C561 1.403 . S
C568 C569 1.399 . S
C568 H574 0.929 . S
C569 C549 1.449 . S
C569 C568 1.399 . S
C569 H575 0.930 . S
H570 C550 0.931 . S
H571 C551 0.930 . S
H572 C559 0.931 . S
H573 C560 0.929 . S
H574 C568 0.929 . S
H575 C569 0.930 . S
Mn576 O581 2.095 . S
Mn576 O591 2.162 . S
Mn576 O592 2.297 . S
Mn576 O600 2.385 . S
Mn576 O601 2.209 . S
Mn576 O602 2.094 . S
Mn577 O582 2.121 . S
Mn577 N584 2.257 . S
Mn577 N593 2.282 . S
Mn577 O601 2.215 . S
Mn577 O603 2.117 . S
C578 O600 1.234 . S
C578 O601 1.283 . S
C579 O591 1.281 . S
C579 O592 1.236 . S
C580 O602 1.240 . S
C580 O603 1.264 . S
O581 Mn576 2.095 . S
O581 C590 1.250 . S
O582 Mn577 2.121 . S
O582 C590 1.258 . S
C583 N584 1.326 . S
C583 C587 1.460 . S
C583 H589 0.929 . S
N584 Mn577 2.257 . S
N584 C583 1.326 . S
N584 C588 1.362 . S
C585 C586 1.258 . S
C585 C588 1.431 . S
C585 C605 1.449 . S
C586 C585 1.258 . S
C586 C587 1.477 . S
C586 H606 0.931 . S
C587 C583 1.460 . S
C587 C586 1.477 . S
C587 H607 0.930 . S
C588 N584 1.362 . S
C588 C585 1.431 . S
C588 C598 1.476 . S
H589 C583 0.929 . S
C590 O581 1.250 . S
C590 O582 1.258 . S
O591 Mn576 2.162 . S
O591 C579 1.281 . S
O592 Mn576 2.297 . S
O592 C579 1.236 . S
N593 Mn577 2.282 . S
N593 C594 1.328 . S
N593 C598 1.318 . S
C594 N593 1.328 . S
C594 C595 1.457 . S
C594 H599 0.929 . S
C595 C594 1.457 . S
C595 C596 1.291 . S
C595 H608 0.931 . S
C596 C595 1.291 . S
C596 C597 1.373 . S
C596 H609 0.929 . S
C597 C596 1.373 . S
C597 C598 1.396 . S
C597 C604 1.403 . S
C598 C588 1.476 . S
C598 N593 1.318 . S
C598 C597 1.396 . S
H599 C594 0.929 . S
O600 Mn576 2.385 . S
O600 C578 1.234 . S
O601 Mn576 2.209 . S
O601 Mn577 2.215 . S
O601 C578 1.283 . S
O602 Mn576 2.094 . S
O602 C580 1.240 . S
O603 Mn577 2.117 . S
O603 C580 1.264 . S
C604 C597 1.403 . S
C604 C605 1.399 . S
C604 H610 0.929 . S
C605 C585 1.449 . S
C605 C604 1.399 . S
C605 H611 0.930 . S
H606 C586 0.931 . S
H607 C587 0.930 . S
H608 C595 0.931 . S
H609 C596 0.929 . S
H610 C604 0.929 . S
H611 C605 0.930 . S
Mn612 O617 2.095 . S
Mn612 O627 2.162 . S
Mn612 O628 2.297 . S
Mn612 O636 2.385 . S
Mn612 O637 2.209 . S
Mn612 O638 2.094 . S
Mn613 O618 2.121 . S
Mn613 N620 2.257 . S
Mn613 N629 2.282 . S
Mn613 O637 2.215 . S
Mn613 O639 2.117 . S
C614 O636 1.234 . S
C614 O637 1.283 . S
C615 O627 1.281 . S
C615 O628 1.236 . S
C616 O638 1.240 . S
C616 O639 1.264 . S
O617 Mn612 2.095 . S
O617 C626 1.250 . S
O618 Mn613 2.121 . S
O618 C626 1.258 . S
C619 N620 1.326 . S
C619 C623 1.460 . S
C619 H625 0.929 . S
N620 Mn613 2.257 . S
N620 C619 1.326 . S
N620 C624 1.362 . S
C621 C622 1.258 . S
C621 C624 1.431 . S
C621 C641 1.449 . S
C622 C621 1.258 . S
C622 C623 1.477 . S
C622 H642 0.931 . S
C623 C619 1.460 . S
C623 C622 1.477 . S
C623 H643 0.930 . S
C624 N620 1.362 . S
C624 C621 1.431 . S
C624 C634 1.476 . S
H625 C619 0.929 . S
C626 O617 1.250 . S
C626 O618 1.258 . S
O627 Mn612 2.162 . S
O627 C615 1.281 . S
O628 Mn612 2.297 . S
O628 C615 1.236 . S
N629 Mn613 2.282 . S
N629 C630 1.328 . S
N629 C634 1.318 . S
C630 N629 1.328 . S
C630 C631 1.457 . S
C630 H635 0.929 . S
C631 C630 1.457 . S
C631 C632 1.291 . S
C631 H644 0.931 . S
C632 C631 1.291 . S
C632 C633 1.373 . S
C632 H645 0.929 . S
C633 C632 1.373 . S
C633 C634 1.396 . S
C633 C640 1.403 . S
C634 C624 1.476 . S
C634 N629 1.318 . S
C634 C633 1.396 . S
H635 C630 0.929 . S
O636 Mn612 2.385 . S
O636 C614 1.234 . S
O637 Mn612 2.209 . S
O637 Mn613 2.215 . S
O637 C614 1.283 . S
O638 Mn612 2.094 . S
O638 C616 1.240 . S
O639 Mn613 2.117 . S
O639 C616 1.264 . S
C640 C633 1.403 . S
C640 C641 1.399 . S
C640 H646 0.929 . S
C641 C621 1.449 . S
C641 C640 1.399 . S
C641 H647 0.930 . S
H642 C622 0.931 . S
H643 C623 0.930 . S
H644 C631 0.931 . S
H645 C632 0.929 . S
H646 C640 0.929 . S
H647 C641 0.930 . S
Mn648 O653 2.095 . S
Mn648 O663 2.162 . S
Mn648 O664 2.297 . S
Mn648 O672 2.385 . S
Mn648 O673 2.209 . S
Mn648 O674 2.094 . S
Mn649 O654 2.121 . S
Mn649 N656 2.257 . S
Mn649 N665 2.282 . S
Mn649 O673 2.215 . S
Mn649 O675 2.117 . S
C650 O672 1.234 . S
C650 O673 1.283 . S
C651 O663 1.281 . S
C651 O664 1.236 . S
C652 O674 1.240 . S
C652 O675 1.264 . S
O653 Mn648 2.095 . S
O653 C662 1.250 . S
O654 Mn649 2.121 . S
O654 C662 1.258 . S
C655 N656 1.326 . S
C655 C659 1.460 . S
C655 H661 0.929 . S
N656 Mn649 2.257 . S
N656 C655 1.326 . S
N656 C660 1.362 . S
C657 C658 1.258 . S
C657 C660 1.431 . S
C657 C677 1.449 . S
C658 C657 1.258 . S
C658 C659 1.477 . S
C658 H678 0.931 . S
C659 C655 1.460 . S
C659 C658 1.477 . S
C659 H679 0.930 . S
C660 N656 1.362 . S
C660 C657 1.431 . S
C660 C670 1.476 . S
H661 C655 0.929 . S
C662 O653 1.250 . S
C662 O654 1.258 . S
O663 Mn648 2.162 . S
O663 C651 1.281 . S
O664 Mn648 2.297 . S
O664 C651 1.236 . S
N665 Mn649 2.282 . S
N665 C666 1.328 . S
N665 C670 1.318 . S
C666 N665 1.328 . S
C666 C667 1.457 . S
C666 H671 0.929 . S
C667 C666 1.457 . S
C667 C668 1.291 . S
C667 H680 0.931 . S
C668 C667 1.291 . S
C668 C669 1.373 . S
C668 H681 0.929 . S
C669 C668 1.373 . S
C669 C670 1.396 . S
C669 C676 1.403 . S
C670 C660 1.476 . S
C670 N665 1.318 . S
C670 C669 1.396 . S
H671 C666 0.929 . S
O672 Mn648 2.385 . S
O672 C650 1.234 . S
O673 Mn648 2.209 . S
O673 Mn649 2.215 . S
O673 C650 1.283 . S
O674 Mn648 2.094 . S
O674 C652 1.240 . S
O675 Mn649 2.117 . S
O675 C652 1.264 . S
C676 C669 1.403 . S
C676 C677 1.399 . S
C676 H682 0.929 . S
C677 C657 1.449 . S
C677 C676 1.399 . S
C677 H683 0.930 . S
H678 C658 0.931 . S
H679 C659 0.930 . S
H680 C667 0.931 . S
H681 C668 0.929 . S
H682 C676 0.929 . S
H683 C677 0.930 . S
Mn684 O689 2.095 . S
Mn684 O699 2.162 . S
Mn684 O700 2.297 . S
Mn684 O708 2.385 . S
Mn684 O709 2.209 . S
Mn684 O710 2.094 . S
Mn685 O690 2.121 . S
Mn685 N692 2.257 . S
Mn685 N701 2.282 . S
Mn685 O709 2.215 . S
Mn685 O711 2.117 . S
C686 O708 1.234 . S
C686 O709 1.283 . S
C687 O699 1.281 . S
C687 O700 1.236 . S
C688 O710 1.240 . S
C688 O711 1.264 . S
O689 Mn684 2.095 . S
O689 C698 1.250 . S
O690 Mn685 2.121 . S
O690 C698 1.258 . S
C691 N692 1.326 . S
C691 C695 1.460 . S
C691 H697 0.929 . S
N692 Mn685 2.257 . S
N692 C691 1.326 . S
N692 C696 1.362 . S
C693 C694 1.258 . S
C693 C696 1.431 . S
C693 C713 1.449 . S
C694 C693 1.258 . S
C694 C695 1.477 . S
C694 H714 0.931 . S
C695 C691 1.460 . S
C695 C694 1.477 . S
C695 H715 0.930 . S
C696 N692 1.362 . S
C696 C693 1.431 . S
C696 C706 1.476 . S
H697 C691 0.929 . S
C698 O689 1.250 . S
C698 O690 1.258 . S
O699 Mn684 2.162 . S
O699 C687 1.281 . S
O700 Mn684 2.297 . S
O700 C687 1.236 . S
N701 Mn685 2.282 . S
N701 C702 1.328 . S
N701 C706 1.318 . S
C702 N701 1.328 . S
C702 C703 1.457 . S
C702 H707 0.929 . S
C703 C702 1.457 . S
C703 C704 1.291 . S
C703 H716 0.931 . S
C704 C703 1.291 . S
C704 C705 1.373 . S
C704 H717 0.929 . S
C705 C704 1.373 . S
C705 C706 1.396 . S
C705 C712 1.403 . S
C706 C696 1.476 . S
C706 N701 1.318 . S
C706 C705 1.396 . S
H707 C702 0.929 . S
O708 Mn684 2.385 . S
O708 C686 1.234 . S
O709 Mn684 2.209 . S
O709 Mn685 2.215 . S
O709 C686 1.283 . S
O710 Mn684 2.094 . S
O710 C688 1.240 . S
O711 Mn685 2.117 . S
O711 C688 1.264 . S
C712 C705 1.403 . S
C712 C713 1.399 . S
C712 H718 0.929 . S
C713 C693 1.449 . S
C713 C712 1.399 . S
C713 H719 0.930 . S
H714 C694 0.931 . S
H715 C695 0.930 . S
H716 C703 0.931 . S
H717 C704 0.929 . S
H718 C712 0.929 . S
H719 C713 0.930 . S
Mn720 O725 2.095 . S
Mn720 O735 2.162 . S
Mn720 O736 2.297 . S
Mn720 O744 2.385 . S
Mn720 O745 2.209 . S
Mn720 O746 2.094 . S
Mn721 O726 2.121 . S
Mn721 N728 2.257 . S
Mn721 N737 2.282 . S
Mn721 O745 2.215 . S
Mn721 O747 2.117 . S
C722 O744 1.234 . S
C722 O745 1.283 . S
C723 O735 1.281 . S
C723 O736 1.236 . S
C724 O746 1.240 . S
C724 O747 1.264 . S
O725 Mn720 2.095 . S
O725 C734 1.250 . S
O726 Mn721 2.121 . S
O726 C734 1.258 . S
C727 N728 1.326 . S
C727 C731 1.460 . S
C727 H733 0.929 . S
N728 Mn721 2.257 . S
N728 C727 1.326 . S
N728 C732 1.362 . S
C729 C730 1.258 . S
C729 C732 1.431 . S
C729 C749 1.449 . S
C730 C729 1.258 . S
C730 C731 1.477 . S
C730 H750 0.931 . S
C731 C727 1.460 . S
C731 C730 1.477 . S
C731 H751 0.930 . S
C732 N728 1.362 . S
C732 C729 1.431 . S
C732 C742 1.476 . S
H733 C727 0.929 . S
C734 O725 1.250 . S
C734 O726 1.258 . S
O735 Mn720 2.162 . S
O735 C723 1.281 . S
O736 Mn720 2.297 . S
O736 C723 1.236 . S
N737 Mn721 2.282 . S
N737 C738 1.328 . S
N737 C742 1.318 . S
C738 N737 1.328 . S
C738 C739 1.457 . S
C738 H743 0.929 . S
C739 C738 1.457 . S
C739 C740 1.291 . S
C739 H752 0.931 . S
C740 C739 1.291 . S
C740 C741 1.373 . S
C740 H753 0.929 . S
C741 C740 1.373 . S
C741 C742 1.396 . S
C741 C748 1.403 . S
C742 C732 1.476 . S
C742 N737 1.318 . S
C742 C741 1.396 . S
H743 C738 0.929 . S
O744 Mn720 2.385 . S
O744 C722 1.234 . S
O745 Mn720 2.209 . S
O745 Mn721 2.215 . S
O745 C722 1.283 . S
O746 Mn720 2.094 . S
O746 C724 1.240 . S
O747 Mn721 2.117 . S
O747 C724 1.264 . S
C748 C741 1.403 . S
C748 C749 1.399 . S
C748 H754 0.929 . S
C749 C729 1.449 . S
C749 C748 1.399 . S
C749 H755 0.930 . S
H750 C730 0.931 . S
H751 C731 0.930 . S
H752 C739 0.931 . S
H753 C740 0.929 . S
H754 C748 0.929 . S
H755 C749 0.930 . S
Mn756 O761 2.095 . S
Mn756 O771 2.162 . S
Mn756 O772 2.297 . S
Mn756 O780 2.385 . S
Mn756 O781 2.209 . S
Mn756 O782 2.094 . S
Mn757 O762 2.121 . S
Mn757 N764 2.257 . S
Mn757 N773 2.282 . S
Mn757 O781 2.215 . S
Mn757 O783 2.117 . S
C758 O780 1.234 . S
C758 O781 1.283 . S
C759 O771 1.281 . S
C759 O772 1.236 . S
C760 O782 1.240 . S
C760 O783 1.264 . S
O761 Mn756 2.095 . S
O761 C770 1.250 . S
O762 Mn757 2.121 . S
O762 C770 1.258 . S
C763 N764 1.326 . S
C763 C767 1.460 . S
C763 H769 0.929 . S
N764 Mn757 2.257 . S
N764 C763 1.326 . S
N764 C768 1.362 . S
C765 C766 1.258 . S
C765 C768 1.431 . S
C765 C785 1.449 . S
C766 C765 1.258 . S
C766 C767 1.477 . S
C766 H786 0.931 . S
C767 C763 1.460 . S
C767 C766 1.477 . S
C767 H787 0.930 . S
C768 N764 1.362 . S
C768 C765 1.431 . S
C768 C778 1.476 . S
H769 C763 0.929 . S
C770 O761 1.250 . S
C770 O762 1.258 . S
O771 Mn756 2.162 . S
O771 C759 1.281 . S
O772 Mn756 2.297 . S
O772 C759 1.236 . S
N773 Mn757 2.282 . S
N773 C774 1.328 . S
N773 C778 1.318 . S
C774 N773 1.328 . S
C774 C775 1.457 . S
C774 H779 0.929 . S
C775 C774 1.457 . S
C775 C776 1.291 . S
C775 H788 0.931 . S
C776 C775 1.291 . S
C776 C777 1.373 . S
C776 H789 0.929 . S
C777 C776 1.373 . S
C777 C778 1.396 . S
C777 C784 1.403 . S
C778 C768 1.476 . S
C778 N773 1.318 . S
C778 C777 1.396 . S
H779 C774 0.929 . S
O780 Mn756 2.385 . S
O780 C758 1.234 . S
O781 Mn756 2.209 . S
O781 Mn757 2.215 . S
O781 C758 1.283 . S
O782 Mn756 2.094 . S
O782 C760 1.240 . S
O783 Mn757 2.117 . S
O783 C760 1.264 . S
C784 C777 1.403 . S
C784 C785 1.399 . S
C784 H790 0.929 . S
C785 C765 1.449 . S
C785 C784 1.399 . S
C785 H791 0.930 . S
H786 C766 0.931 . S
H787 C767 0.930 . S
H788 C775 0.931 . S
H789 C776 0.929 . S
H790 C784 0.929 . S
H791 C785 0.930 . S
Mn792 O797 2.095 . S
Mn792 O807 2.162 . S
Mn792 O808 2.297 . S
Mn792 O816 2.385 . S
Mn792 O817 2.209 . S
Mn792 O818 2.094 . S
Mn793 O798 2.121 . S
Mn793 N800 2.257 . S
Mn793 N809 2.282 . S
Mn793 O817 2.215 . S
Mn793 O819 2.117 . S
C794 O816 1.234 . S
C794 O817 1.283 . S
C795 O807 1.281 . S
C795 O808 1.236 . S
C796 O818 1.240 . S
C796 O819 1.264 . S
O797 Mn792 2.095 . S
O797 C806 1.250 . S
O798 Mn793 2.121 . S
O798 C806 1.258 . S
C799 N800 1.326 . S
C799 C803 1.460 . S
C799 H805 0.929 . S
N800 Mn793 2.257 . S
N800 C799 1.326 . S
N800 C804 1.362 . S
C801 C802 1.258 . S
C801 C804 1.431 . S
C801 C821 1.449 . S
C802 C801 1.258 . S
C802 C803 1.477 . S
C802 H822 0.931 . S
C803 C799 1.460 . S
C803 C802 1.477 . S
C803 H823 0.930 . S
C804 N800 1.362 . S
C804 C801 1.431 . S
C804 C814 1.476 . S
H805 C799 0.929 . S
C806 O797 1.250 . S
C806 O798 1.258 . S
O807 Mn792 2.162 . S
O807 C795 1.281 . S
O808 Mn792 2.297 . S
O808 C795 1.236 . S
N809 Mn793 2.282 . S
N809 C810 1.328 . S
N809 C814 1.318 . S
C810 N809 1.328 . S
C810 C811 1.457 . S
C810 H815 0.929 . S
C811 C810 1.457 . S
C811 C812 1.291 . S
C811 H824 0.931 . S
C812 C811 1.291 . S
C812 C813 1.373 . S
C812 H825 0.929 . S
C813 C812 1.373 . S
C813 C814 1.396 . S
C813 C820 1.403 . S
C814 C804 1.476 . S
C814 N809 1.318 . S
C814 C813 1.396 . S
H815 C810 0.929 . S
O816 Mn792 2.385 . S
O816 C794 1.234 . S
O817 Mn792 2.209 . S
O817 Mn793 2.215 . S
O817 C794 1.283 . S
O818 Mn792 2.094 . S
O818 C796 1.240 . S
O819 Mn793 2.117 . S
O819 C796 1.264 . S
C820 C813 1.403 . S
C820 C821 1.399 . S
C820 H826 0.929 . S
C821 C801 1.449 . S
C821 C820 1.399 . S
C821 H827 0.930 . S
H822 C802 0.931 . S
H823 C803 0.930 . S
H824 C811 0.931 . S
H825 C812 0.929 . S
H826 C820 0.929 . S
H827 C821 0.930 . S
Mn828 O833 2.095 . S
Mn828 O843 2.162 . S
Mn828 O844 2.297 . S
Mn828 O852 2.385 . S
Mn828 O853 2.209 . S
Mn828 O854 2.094 . S
Mn829 O834 2.121 . S
Mn829 N836 2.257 . S
Mn829 N845 2.282 . S
Mn829 O853 2.215 . S
Mn829 O855 2.117 . S
C830 O852 1.234 . S
C830 O853 1.283 . S
C831 O843 1.281 . S
C831 O844 1.236 . S
C832 O854 1.240 . S
C832 O855 1.264 . S
O833 Mn828 2.095 . S
O833 C842 1.250 . S
O834 Mn829 2.121 . S
O834 C842 1.258 . S
C835 N836 1.326 . S
C835 C839 1.460 . S
C835 H841 0.929 . S
N836 Mn829 2.257 . S
N836 C835 1.326 . S
N836 C840 1.362 . S
C837 C838 1.258 . S
C837 C840 1.431 . S
C837 C857 1.449 . S
C838 C837 1.258 . S
C838 C839 1.477 . S
C838 H858 0.931 . S
C839 C835 1.460 . S
C839 C838 1.477 . S
C839 H859 0.930 . S
C840 N836 1.362 . S
C840 C837 1.431 . S
C840 C850 1.476 . S
H841 C835 0.929 . S
C842 O833 1.250 . S
C842 O834 1.258 . S
O843 Mn828 2.162 . S
O843 C831 1.281 . S
O844 Mn828 2.297 . S
O844 C831 1.236 . S
N845 Mn829 2.282 . S
N845 C846 1.328 . S
N845 C850 1.318 . S
C846 N845 1.328 . S
C846 C847 1.457 . S
C846 H851 0.929 . S
C847 C846 1.457 . S
C847 C848 1.291 . S
C847 H860 0.931 . S
C848 C847 1.291 . S
C848 C849 1.373 . S
C848 H861 0.929 . S
C849 C848 1.373 . S
C849 C850 1.396 . S
C849 C856 1.403 . S
C850 C840 1.476 . S
C850 N845 1.318 . S
C850 C849 1.396 . S
H851 C846 0.929 . S
O852 Mn828 2.385 . S
O852 C830 1.234 . S
O853 Mn828 2.209 . S
O853 Mn829 2.215 . S
O853 C830 1.283 . S
O854 Mn828 2.094 . S
O854 C832 1.240 . S
O855 Mn829 2.117 . S
O855 C832 1.264 . S
C856 C849 1.403 . S
C856 C857 1.399 . S
C856 H862 0.929 . S
C857 C837 1.449 . S
C857 C856 1.399 . S
C857 H863 0.930 . S
H858 C838 0.931 . S
H859 C839 0.930 . S
H860 C847 0.931 . S
H861 C848 0.929 . S
H862 C856 0.929 . S
H863 C857 0.930 . S
Mn864 O869 2.095 . S
Mn864 O879 2.162 . S
Mn864 O880 2.297 . S
Mn864 O888 2.385 . S
Mn864 O889 2.209 . S
Mn864 O890 2.094 . S
Mn865 O870 2.121 . S
Mn865 N872 2.257 . S
Mn865 N881 2.282 . S
Mn865 O889 2.215 . S
Mn865 O891 2.117 . S
C866 O888 1.234 . S
C866 O889 1.283 . S
C867 O879 1.281 . S
C867 O880 1.236 . S
C868 O890 1.240 . S
C868 O891 1.264 . S
O869 Mn864 2.095 . S
O869 C878 1.250 . S
O870 Mn865 2.121 . S
O870 C878 1.258 . S
C871 N872 1.326 . S
C871 C875 1.460 . S
C871 H877 0.929 . S
N872 Mn865 2.257 . S
N872 C871 1.326 . S
N872 C876 1.362 . S
C873 C874 1.258 . S
C873 C876 1.431 . S
C873 C893 1.449 . S
C874 C873 1.258 . S
C874 C875 1.477 . S
C874 H894 0.931 . S
C875 C871 1.460 . S
C875 C874 1.477 . S
C875 H895 0.930 . S
C876 N872 1.362 . S
C876 C873 1.431 . S
C876 C886 1.476 . S
H877 C871 0.929 . S
C878 O869 1.250 . S
C878 O870 1.258 . S
O879 Mn864 2.162 . S
O879 C867 1.281 . S
O880 Mn864 2.297 . S
O880 C867 1.236 . S
N881 Mn865 2.282 . S
N881 C882 1.328 . S
N881 C886 1.318 . S
C882 N881 1.328 . S
C882 C883 1.457 . S
C882 H887 0.929 . S
C883 C882 1.457 . S
C883 C884 1.291 . S
C883 H896 0.931 . S
C884 C883 1.291 . S
C884 C885 1.373 . S
C884 H897 0.929 . S
C885 C884 1.373 . S
C885 C886 1.396 . S
C885 C892 1.403 . S
C886 C876 1.476 . S
C886 N881 1.318 . S
C886 C885 1.396 . S
H887 C882 0.929 . S
O888 Mn864 2.385 . S
O888 C866 1.234 . S
O889 Mn864 2.209 . S
O889 Mn865 2.215 . S
O889 C866 1.283 . S
O890 Mn864 2.094 . S
O890 C868 1.240 . S
O891 Mn865 2.117 . S
O891 C868 1.264 . S
C892 C885 1.403 . S
C892 C893 1.399 . S
C892 H898 0.929 . S
C893 C873 1.449 . S
C893 C892 1.399 . S
C893 H899 0.930 . S
H894 C874 0.931 . S
H895 C875 0.930 . S
H896 C883 0.931 . S
H897 C884 0.929 . S
H898 C892 0.929 . S
H899 C893 0.930 . S
Mn900 O905 2.095 . S
Mn900 O915 2.162 . S
Mn900 O916 2.297 . S
Mn900 O924 2.385 . S
Mn900 O925 2.209 . S
Mn900 O926 2.094 . S
Mn901 O906 2.121 . S
Mn901 N908 2.257 . S
Mn901 N917 2.282 . S
Mn901 O925 2.215 . S
Mn901 O927 2.117 . S
C902 O924 1.234 . S
C902 O925 1.283 . S
C903 O915 1.281 . S
C903 O916 1.236 . S
C904 O926 1.240 . S
C904 O927 1.264 . S
O905 Mn900 2.095 . S
O905 C914 1.250 . S
O906 Mn901 2.121 . S
O906 C914 1.258 . S
C907 N908 1.326 . S
C907 C911 1.460 . S
C907 H913 0.929 . S
N908 Mn901 2.257 . S
N908 C907 1.326 . S
N908 C912 1.362 . S
C909 C910 1.258 . S
C909 C912 1.431 . S
C909 C929 1.449 . S
C910 C909 1.258 . S
C910 C911 1.477 . S
C910 H930 0.931 . S
C911 C907 1.460 . S
C911 C910 1.477 . S
C911 H931 0.930 . S
C912 N908 1.362 . S
C912 C909 1.431 . S
C912 C922 1.476 . S
H913 C907 0.929 . S
C914 O905 1.250 . S
C914 O906 1.258 . S
O915 Mn900 2.162 . S
O915 C903 1.281 . S
O916 Mn900 2.297 . S
O916 C903 1.236 . S
N917 Mn901 2.282 . S
N917 C918 1.328 . S
N917 C922 1.318 . S
C918 N917 1.328 . S
C918 C919 1.457 . S
C918 H923 0.929 . S
C919 C918 1.457 . S
C919 C920 1.291 . S
C919 H932 0.931 . S
C920 C919 1.291 . S
C920 C921 1.373 . S
C920 H933 0.929 . S
C921 C920 1.373 . S
C921 C922 1.396 . S
C921 C928 1.403 . S
C922 C912 1.476 . S
C922 N917 1.318 . S
C922 C921 1.396 . S
H923 C918 0.929 . S
O924 Mn900 2.385 . S
O924 C902 1.234 . S
O925 Mn900 2.209 . S
O925 Mn901 2.215 . S
O925 C902 1.283 . S
O926 Mn900 2.094 . S
O926 C904 1.240 . S
O927 Mn901 2.117 . S
O927 C904 1.264 . S
C928 C921 1.403 . S
C928 C929 1.399 . S
C928 H934 0.929 . S
C929 C909 1.449 . S
C929 C928 1.399 . S
C929 H935 0.930 . S
H930 C910 0.931 . S
H931 C911 0.930 . S
H932 C919 0.931 . S
H933 C920 0.929 . S
H934 C928 0.929 . S
H935 C929 0.930 . S
Mn936 O941 2.095 . S
Mn936 O951 2.162 . S
Mn936 O952 2.297 . S
Mn936 O960 2.385 . S
Mn936 O961 2.209 . S
Mn936 O962 2.094 . S
Mn937 O942 2.121 . S
Mn937 N944 2.257 . S
Mn937 N953 2.282 . S
Mn937 O961 2.215 . S
Mn937 O963 2.117 . S
C938 O960 1.234 . S
C938 O961 1.283 . S
C939 O951 1.281 . S
C939 O952 1.236 . S
C940 O962 1.240 . S
C940 O963 1.264 . S
O941 Mn936 2.095 . S
O941 C950 1.250 . S
O942 Mn937 2.121 . S
O942 C950 1.258 . S
C943 N944 1.326 . S
C943 C947 1.460 . S
C943 H949 0.929 . S
N944 Mn937 2.257 . S
N944 C943 1.326 . S
N944 C948 1.362 . S
C945 C946 1.258 . S
C945 C948 1.431 . S
C945 C965 1.449 . S
C946 C945 1.258 . S
C946 C947 1.477 . S
C946 H966 0.931 . S
C947 C943 1.460 . S
C947 C946 1.477 . S
C947 H967 0.930 . S
C948 N944 1.362 . S
C948 C945 1.431 . S
C948 C958 1.476 . S
H949 C943 0.929 . S
C950 O941 1.250 . S
C950 O942 1.258 . S
O951 Mn936 2.162 . S
O951 C939 1.281 . S
O952 Mn936 2.297 . S
O952 C939 1.236 . S
N953 Mn937 2.282 . S
N953 C954 1.328 . S
N953 C958 1.318 . S
C954 N953 1.328 . S
C954 C955 1.457 . S
C954 H959 0.929 . S
C955 C954 1.457 . S
C955 C956 1.291 . S
C955 H968 0.931 . S
C956 C955 1.291 . S
C956 C957 1.373 . S
C956 H969 0.929 . S
C957 C956 1.373 . S
C957 C958 1.396 . S
C957 C964 1.403 . S
C958 C948 1.476 . S
C958 N953 1.318 . S
C958 C957 1.396 . S
H959 C954 0.929 . S
O960 Mn936 2.385 . S
O960 C938 1.234 . S
O961 Mn936 2.209 . S
O961 Mn937 2.215 . S
O961 C938 1.283 . S
O962 Mn936 2.094 . S
O962 C940 1.240 . S
O963 Mn937 2.117 . S
O963 C940 1.264 . S
C964 C957 1.403 . S
C964 C965 1.399 . S
C964 H970 0.929 . S
C965 C945 1.449 . S
C965 C964 1.399 . S
C965 H971 0.930 . S
H966 C946 0.931 . S
H967 C947 0.930 . S
H968 C955 0.931 . S
H969 C956 0.929 . S
H970 C964 0.929 . S
H971 C965 0.930 . S
Mn972 O977 2.095 . S
Mn972 O987 2.162 . S
Mn972 O988 2.297 . S
Mn972 O996 2.385 . S
Mn972 O997 2.209 . S
Mn972 O998 2.094 . S
Mn973 O978 2.121 . S
Mn973 N980 2.257 . S
Mn973 N989 2.282 . S
Mn973 O997 2.215 . S
Mn973 O999 2.117 . S
C974 O996 1.234 . S
C974 O997 1.283 . S
C975 O987 1.281 . S
C975 O988 1.236 . S
C976 O998 1.240 . S
C976 O999 1.264 . S
O977 Mn972 2.095 . S
O977 C986 1.250 . S
O978 Mn973 2.121 . S
O978 C986 1.258 . S
C979 N980 1.326 . S
C979 C983 1.460 . S
C979 H985 0.929 . S
N980 Mn973 2.257 . S
N980 C979 1.326 . S
N980 C984 1.362 . S
C981 C982 1.258 . S
C981 C984 1.431 . S
C981 C1001 1.449 . S
C982 C981 1.258 . S
C982 C983 1.477 . S
C982 H1002 0.931 . S
C983 C979 1.460 . S
C983 C982 1.477 . S
C983 H1003 0.930 . S
C984 N980 1.362 . S
C984 C981 1.431 . S
C984 C994 1.476 . S
H985 C979 0.929 . S
C986 O977 1.250 . S
C986 O978 1.258 . S
O987 Mn972 2.162 . S
O987 C975 1.281 . S
O988 Mn972 2.297 . S
O988 C975 1.236 . S
N989 Mn973 2.282 . S
N989 C990 1.328 . S
N989 C994 1.318 . S
C990 N989 1.328 . S
C990 C991 1.457 . S
C990 H995 0.929 . S
C991 C990 1.457 . S
C991 C992 1.291 . S
C991 H1004 0.931 . S
C992 C991 1.291 . S
C992 C993 1.373 . S
C992 H1005 0.929 . S
C993 C992 1.373 . S
C993 C994 1.396 . S
C993 C1000 1.403 . S
C994 C984 1.476 . S
C994 N989 1.318 . S
C994 C993 1.396 . S
H995 C990 0.929 . S
O996 Mn972 2.385 . S
O996 C974 1.234 . S
O997 Mn972 2.209 . S
O997 Mn973 2.215 . S
O997 C974 1.283 . S
O998 Mn972 2.094 . S
O998 C976 1.240 . S
O999 Mn973 2.117 . S
O999 C976 1.264 . S
C1000 C993 1.403 . S
C1000 C1001 1.399 . S
C1000 H1006 0.929 . S
C1001 C981 1.449 . S
C1001 C1000 1.399 . S
C1001 H1007 0.930 . S
H1002 C982 0.931 . S
H1003 C983 0.930 . S
H1004 C991 0.931 . S
H1005 C992 0.929 . S
H1006 C1000 0.929 . S
H1007 C1001 0.930 . S
Mn1008 O1013 2.095 . S
Mn1008 O1023 2.162 . S
Mn1008 O1024 2.297 . S
Mn1008 O1032 2.385 . S
Mn1008 O1033 2.209 . S
Mn1008 O1034 2.094 . S
Mn1009 O1014 2.121 . S
Mn1009 N1016 2.257 . S
Mn1009 N1025 2.282 . S
Mn1009 O1033 2.215 . S
Mn1009 O1035 2.117 . S
C1010 O1032 1.234 . S
C1010 O1033 1.283 . S
C1011 O1023 1.281 . S
C1011 O1024 1.236 . S
C1012 O1034 1.240 . S
C1012 O1035 1.264 . S
O1013 Mn1008 2.095 . S
O1013 C1022 1.250 . S
O1014 Mn1009 2.121 . S
O1014 C1022 1.258 . S
C1015 N1016 1.326 . S
C1015 C1019 1.460 . S
C1015 H1021 0.929 . S
N1016 Mn1009 2.257 . S
N1016 C1015 1.326 . S
N1016 C1020 1.362 . S
C1017 C1018 1.258 . S
C1017 C1020 1.431 . S
C1017 C1037 1.449 . S
C1018 C1017 1.258 . S
C1018 C1019 1.477 . S
C1018 H1038 0.931 . S
C1019 C1015 1.460 . S
C1019 C1018 1.477 . S
C1019 H1039 0.930 . S
C1020 N1016 1.362 . S
C1020 C1017 1.431 . S
C1020 C1030 1.476 . S
H1021 C1015 0.929 . S
C1022 O1013 1.250 . S
C1022 O1014 1.258 . S
O1023 Mn1008 2.162 . S
O1023 C1011 1.281 . S
O1024 Mn1008 2.297 . S
O1024 C1011 1.236 . S
N1025 Mn1009 2.282 . S
N1025 C1026 1.328 . S
N1025 C1030 1.318 . S
C1026 N1025 1.328 . S
C1026 C1027 1.457 . S
C1026 H1031 0.929 . S
C1027 C1026 1.457 . S
C1027 C1028 1.291 . S
C1027 H1040 0.931 . S
C1028 C1027 1.291 . S
C1028 C1029 1.373 . S
C1028 H1041 0.929 . S
C1029 C1028 1.373 . S
C1029 C1030 1.396 . S
C1029 C1036 1.403 . S
C1030 C1020 1.476 . S
C1030 N1025 1.318 . S
C1030 C1029 1.396 . S
H1031 C1026 0.929 . S
O1032 Mn1008 2.385 . S
O1032 C1010 1.234 . S
O1033 Mn1008 2.209 . S
O1033 Mn1009 2.215 . S
O1033 C1010 1.283 . S
O1034 Mn1008 2.094 . S
O1034 C1012 1.240 . S
O1035 Mn1009 2.117 . S
O1035 C1012 1.264 . S
C1036 C1029 1.403 . S
C1036 C1037 1.399 . S
C1036 H1042 0.929 . S
C1037 C1017 1.449 . S
C1037 C1036 1.399 . S
C1037 H1043 0.930 . S
H1038 C1018 0.931 . S
H1039 C1019 0.930 . S
H1040 C1027 0.931 . S
H1041 C1028 0.929 . S
H1042 C1036 0.929 . S
H1043 C1037 0.930 . S
Mn1044 O1049 2.095 . S
Mn1044 O1059 2.162 . S
Mn1044 O1060 2.297 . S
Mn1044 O1068 2.385 . S
Mn1044 O1069 2.209 . S
Mn1044 O1070 2.094 . S
Mn1045 O1050 2.121 . S
Mn1045 N1052 2.257 . S
Mn1045 N1061 2.282 . S
Mn1045 O1069 2.215 . S
Mn1045 O1071 2.117 . S
C1046 O1068 1.234 . S
C1046 O1069 1.283 . S
C1047 O1059 1.281 . S
C1047 O1060 1.236 . S
C1048 O1070 1.240 . S
C1048 O1071 1.264 . S
O1049 Mn1044 2.095 . S
O1049 C1058 1.250 . S
O1050 Mn1045 2.121 . S
O1050 C1058 1.258 . S
C1051 N1052 1.326 . S
C1051 C1055 1.460 . S
C1051 H1057 0.929 . S
N1052 Mn1045 2.257 . S
N1052 C1051 1.326 . S
N1052 C1056 1.362 . S
C1053 C1054 1.258 . S
C1053 C1056 1.431 . S
C1053 C1073 1.449 . S
C1054 C1053 1.258 . S
C1054 C1055 1.477 . S
C1054 H1074 0.931 . S
C1055 C1051 1.460 . S
C1055 C1054 1.477 . S
C1055 H1075 0.930 . S
C1056 N1052 1.362 . S
C1056 C1053 1.431 . S
C1056 C1066 1.476 . S
H1057 C1051 0.929 . S
C1058 O1049 1.250 . S
C1058 O1050 1.258 . S
O1059 Mn1044 2.162 . S
O1059 C1047 1.281 . S
O1060 Mn1044 2.297 . S
O1060 C1047 1.236 . S
N1061 Mn1045 2.282 . S
N1061 C1062 1.328 . S
N1061 C1066 1.318 . S
C1062 N1061 1.328 . S
C1062 C1063 1.457 . S
C1062 H1067 0.929 . S
C1063 C1062 1.457 . S
C1063 C1064 1.291 . S
C1063 H1076 0.931 . S
C1064 C1063 1.291 . S
C1064 C1065 1.373 . S
C1064 H1077 0.929 . S
C1065 C1064 1.373 . S
C1065 C1066 1.396 . S
C1065 C1072 1.403 . S
C1066 C1056 1.476 . S
C1066 N1061 1.318 . S
C1066 C1065 1.396 . S
H1067 C1062 0.929 . S
O1068 Mn1044 2.385 . S
O1068 C1046 1.234 . S
O1069 Mn1044 2.209 . S
O1069 Mn1045 2.215 . S
O1069 C1046 1.283 . S
O1070 Mn1044 2.094 . S
O1070 C1048 1.240 . S
O1071 Mn1045 2.117 . S
O1071 C1048 1.264 . S
C1072 C1065 1.403 . S
C1072 C1073 1.399 . S
C1072 H1078 0.929 . S
C1073 C1053 1.449 . S
C1073 C1072 1.399 . S
C1073 H1079 0.930 . S
H1074 C1054 0.931 . S
H1075 C1055 0.930 . S
H1076 C1063 0.931 . S
H1077 C1064 0.929 . S
H1078 C1072 0.929 . S
H1079 C1073 0.930 . S
Mn1080 O1085 2.095 . S
Mn1080 O1095 2.162 . S
Mn1080 O1096 2.297 . S
Mn1080 O1104 2.385 . S
Mn1080 O1105 2.209 . S
Mn1080 O1106 2.094 . S
Mn1081 O1086 2.121 . S
Mn1081 N1088 2.257 . S
Mn1081 N1097 2.282 . S
Mn1081 O1105 2.215 . S
Mn1081 O1107 2.117 . S
C1082 O1104 1.234 . S
C1082 O1105 1.283 . S
C1083 O1095 1.281 . S
C1083 O1096 1.236 . S
C1084 O1106 1.240 . S
C1084 O1107 1.264 . S
O1085 Mn1080 2.095 . S
O1085 C1094 1.250 . S
O1086 Mn1081 2.121 . S
O1086 C1094 1.258 . S
C1087 N1088 1.326 . S
C1087 C1091 1.460 . S
C1087 H1093 0.929 . S
N1088 Mn1081 2.257 . S
N1088 C1087 1.326 . S
N1088 C1092 1.362 . S
C1089 C1090 1.258 . S
C1089 C1092 1.431 . S
C1089 C1109 1.449 . S
C1090 C1089 1.258 . S
C1090 C1091 1.477 . S
C1090 H1110 0.931 . S
C1091 C1087 1.460 . S
C1091 C1090 1.477 . S
C1091 H1111 0.930 . S
C1092 N1088 1.362 . S
C1092 C1089 1.431 . S
C1092 C1102 1.476 . S
H1093 C1087 0.929 . S
C1094 O1085 1.250 . S
C1094 O1086 1.258 . S
O1095 Mn1080 2.162 . S
O1095 C1083 1.281 . S
O1096 Mn1080 2.297 . S
O1096 C1083 1.236 . S
N1097 Mn1081 2.282 . S
N1097 C1098 1.328 . S
N1097 C1102 1.318 . S
C1098 N1097 1.328 . S
C1098 C1099 1.457 . S
C1098 H1103 0.929 . S
C1099 C1098 1.457 . S
C1099 C1100 1.291 . S
C1099 H1112 0.931 . S
C1100 C1099 1.291 . S
C1100 C1101 1.373 . S
C1100 H1113 0.929 . S
C1101 C1100 1.373 . S
C1101 C1102 1.396 . S
C1101 C1108 1.403 . S
C1102 C1092 1.476 . S
C1102 N1097 1.318 . S
C1102 C1101 1.396 . S
H1103 C1098 0.929 . S
O1104 Mn1080 2.385 . S
O1104 C1082 1.234 . S
O1105 Mn1080 2.209 . S
O1105 Mn1081 2.215 . S
O1105 C1082 1.283 . S
O1106 Mn1080 2.094 . S
O1106 C1084 1.240 . S
O1107 Mn1081 2.117 . S
O1107 C1084 1.264 . S
C1108 C1101 1.403 . S
C1108 C1109 1.399 . S
C1108 H1114 0.929 . S
C1109 C1089 1.449 . S
C1109 C1108 1.399 . S
C1109 H1115 0.930 . S
H1110 C1090 0.931 . S
H1111 C1091 0.930 . S
H1112 C1099 0.931 . S
H1113 C1100 0.929 . S
H1114 C1108 0.929 . S
H1115 C1109 0.930 . S
Mn1116 O1121 2.095 . S
Mn1116 O1131 2.162 . S
Mn1116 O1132 2.297 . S
Mn1116 O1140 2.385 . S
Mn1116 O1141 2.209 . S
Mn1116 O1142 2.094 . S
Mn1117 O1122 2.121 . S
Mn1117 N1124 2.257 . S
Mn1117 N1133 2.282 . S
Mn1117 O1141 2.215 . S
Mn1117 O1143 2.117 . S
C1118 O1140 1.234 . S
C1118 O1141 1.283 . S
C1119 O1131 1.281 . S
C1119 O1132 1.236 . S
C1120 O1142 1.240 . S
C1120 O1143 1.264 . S
O1121 Mn1116 2.095 . S
O1121 C1130 1.250 . S
O1122 Mn1117 2.121 . S
O1122 C1130 1.258 . S
C1123 N1124 1.326 . S
C1123 C1127 1.460 . S
C1123 H1129 0.929 . S
N1124 Mn1117 2.257 . S
N1124 C1123 1.326 . S
N1124 C1128 1.362 . S
C1125 C1126 1.258 . S
C1125 C1128 1.431 . S
C1125 C1145 1.449 . S
C1126 C1125 1.258 . S
C1126 C1127 1.477 . S
C1126 H1146 0.931 . S
C1127 C1123 1.460 . S
C1127 C1126 1.477 . S
C1127 H1147 0.930 . S
C1128 N1124 1.362 . S
C1128 C1125 1.431 . S
C1128 C1138 1.476 . S
H1129 C1123 0.929 . S
C1130 O1121 1.250 . S
C1130 O1122 1.258 . S
O1131 Mn1116 2.162 . S
O1131 C1119 1.281 . S
O1132 Mn1116 2.297 . S
O1132 C1119 1.236 . S
N1133 Mn1117 2.282 . S
N1133 C1134 1.328 . S
N1133 C1138 1.318 . S
C1134 N1133 1.328 . S
C1134 C1135 1.457 . S
C1134 H1139 0.929 . S
C1135 C1134 1.457 . S
C1135 C1136 1.291 . S
C1135 H1148 0.931 . S
C1136 C1135 1.291 . S
C1136 C1137 1.373 . S
C1136 H1149 0.929 . S
C1137 C1136 1.373 . S
C1137 C1138 1.396 . S
C1137 C1144 1.403 . S
C1138 C1128 1.476 . S
C1138 N1133 1.318 . S
C1138 C1137 1.396 . S
H1139 C1134 0.929 . S
O1140 Mn1116 2.385 . S
O1140 C1118 1.234 . S
O1141 Mn1116 2.209 . S
O1141 Mn1117 2.215 . S
O1141 C1118 1.283 . S
O1142 Mn1116 2.094 . S
O1142 C1120 1.240 . S
O1143 Mn1117 2.117 . S
O1143 C1120 1.264 . S
C1144 C1137 1.403 . S
C1144 C1145 1.399 . S
C1144 H1150 0.929 . S
C1145 C1125 1.449 . S
C1145 C1144 1.399 . S
C1145 H1151 0.930 . S
H1146 C1126 0.931 . S
H1147 C1127 0.930 . S
H1148 C1135 0.931 . S
H1149 C1136 0.929 . S
H1150 C1144 0.929 . S
H1151 C1145 0.930 . S
H1152 C1164 0.930 . S
H1153 C1166 0.930 . S
H1154 C1167 0.930 . S
H1155 C1171 0.959 . S
H1156 C1171 0.959 . S
H1157 C1171 0.961 . S
H1158 C1172 0.960 . S
H1159 C1172 0.961 . S
H1160 C1172 0.959 . S
H1161 C1175 0.929 . S
H1162 C1176 0.931 . S
H1163 C1178 0.930 . S
C1164 H1152 0.930 . S
C1164 C1165 1.399 . S
C1164 C1169 1.399 . S
C1165 C1164 1.399 . S
C1165 C1166 1.376 . S
C1166 H1153 0.930 . S
C1166 C1165 1.376 . S
C1166 C1167 1.388 . S
C1167 H1154 0.930 . S
C1167 C1166 1.388 . S
C1167 C1168 1.390 . S
C1168 C1167 1.390 . S
C1168 C1169 1.394 . S
C1168 C1174 1.465 . S
C1169 C1164 1.399 . S
C1169 C1168 1.394 . S
C1169 C1170 1.516 . S
C1170 C1169 1.516 . S
C1170 C1171 1.502 . S
C1170 C1172 1.561 . S
C1170 C1173 1.526 . S
C1171 H1155 0.959 . S
C1171 H1156 0.959 . S
C1171 H1157 0.961 . S
C1171 C1170 1.502 . S
C1172 H1158 0.960 . S
C1172 H1159 0.961 . S
C1172 H1160 0.959 . S
C1172 C1170 1.561 . S
C1173 C1170 1.526 . S
C1173 C1174 1.396 . S
C1173 C1178 1.390 . S
C1174 C1168 1.465 . S
C1174 C1173 1.396 . S
C1174 C1175 1.399 . S
C1175 H1161 0.929 . S
C1175 C1174 1.399 . S
C1175 C1176 1.385 . S
C1176 H1162 0.931 . S
C1176 C1175 1.385 . S
C1176 C1177 1.389 . S
C1177 C1176 1.389 . S
C1177 C1178 1.387 . S
C1178 H1163 0.930 . S
C1178 C1173 1.390 . S
C1178 C1177 1.387 . S
H1179 C1191 0.930 . S
H1180 C1193 0.930 . S
H1181 C1194 0.930 . S
H1182 C1198 0.959 . S
H1183 C1198 0.959 . S
H1184 C1198 0.961 . S
H1185 C1199 0.960 . S
H1186 C1199 0.961 . S
H1187 C1199 0.959 . S
H1188 C1202 0.929 . S
H1189 C1203 0.931 . S
H1190 C1205 0.930 . S
C1191 H1179 0.930 . S
C1191 C1192 1.399 . S
C1191 C1196 1.399 . S
C1192 C1191 1.399 . S
C1192 C1193 1.376 . S
C1193 H1180 0.930 . S
C1193 C1192 1.376 . S
C1193 C1194 1.388 . S
C1194 H1181 0.930 . S
C1194 C1193 1.388 . S
C1194 C1195 1.390 . S
C1195 C1194 1.390 . S
C1195 C1196 1.394 . S
C1195 C1201 1.465 . S
C1196 C1191 1.399 . S
C1196 C1195 1.394 . S
C1196 C1197 1.516 . S
C1197 C1196 1.516 . S
C1197 C1198 1.502 . S
C1197 C1199 1.561 . S
C1197 C1200 1.526 . S
C1198 H1182 0.959 . S
C1198 H1183 0.959 . S
C1198 H1184 0.961 . S
C1198 C1197 1.502 . S
C1199 H1185 0.960 . S
C1199 H1186 0.961 . S
C1199 H1187 0.959 . S
C1199 C1197 1.561 . S
C1200 C1197 1.526 . S
C1200 C1201 1.396 . S
C1200 C1205 1.390 . S
C1201 C1195 1.465 . S
C1201 C1200 1.396 . S
C1201 C1202 1.399 . S
C1202 H1188 0.929 . S
C1202 C1201 1.399 . S
C1202 C1203 1.385 . S
C1203 H1189 0.931 . S
C1203 C1202 1.385 . S
C1203 C1204 1.389 . S
C1204 C1203 1.389 . S
C1204 C1205 1.387 . S
C1205 H1190 0.930 . S
C1205 C1200 1.390 . S
C1205 C1204 1.387 . S
H1206 C1218 0.930 . S
H1207 C1220 0.930 . S
H1208 C1221 0.930 . S
H1209 C1225 0.959 . S
H1210 C1225 0.959 . S
H1211 C1225 0.961 . S
H1212 C1226 0.960 . S
H1213 C1226 0.961 . S
H1214 C1226 0.959 . S
H1215 C1229 0.929 . S
H1216 C1230 0.931 . S
H1217 C1232 0.930 . S
C1218 H1206 0.930 . S
C1218 C1219 1.399 . S
C1218 C1223 1.399 . S
C1219 C1218 1.399 . S
C1219 C1220 1.376 . S
C1220 H1207 0.930 . S
C1220 C1219 1.376 . S
C1220 C1221 1.388 . S
C1221 H1208 0.930 . S
C1221 C1220 1.388 . S
C1221 C1222 1.390 . S
C1222 C1221 1.390 . S
C1222 C1223 1.394 . S
C1222 C1228 1.465 . S
C1223 C1218 1.399 . S
C1223 C1222 1.394 . S
C1223 C1224 1.516 . S
C1224 C1223 1.516 . S
C1224 C1225 1.502 . S
C1224 C1226 1.561 . S
C1224 C1227 1.526 . S
C1225 H1209 0.959 . S
C1225 H1210 0.959 . S
C1225 H1211 0.961 . S
C1225 C1224 1.502 . S
C1226 H1212 0.960 . S
C1226 H1213 0.961 . S
C1226 H1214 0.959 . S
C1226 C1224 1.561 . S
C1227 C1224 1.526 . S
C1227 C1228 1.396 . S
C1227 C1232 1.390 . S
C1228 C1222 1.465 . S
C1228 C1227 1.396 . S
C1228 C1229 1.399 . S
C1229 H1215 0.929 . S
C1229 C1228 1.399 . S
C1229 C1230 1.385 . S
C1230 H1216 0.931 . S
C1230 C1229 1.385 . S
C1230 C1231 1.389 . S
C1231 C1230 1.389 . S
C1231 C1232 1.387 . S
C1232 H1217 0.930 . S
C1232 C1227 1.390 . S
C1232 C1231 1.387 . S
H1233 C1245 0.930 . S
H1234 C1247 0.930 . S
H1235 C1248 0.930 . S
H1236 C1252 0.959 . S
H1237 C1252 0.959 . S
H1238 C1252 0.961 . S
H1239 C1253 0.960 . S
H1240 C1253 0.961 . S
H1241 C1253 0.959 . S
H1242 C1256 0.929 . S
H1243 C1257 0.931 . S
H1244 C1259 0.930 . S
C1245 H1233 0.930 . S
C1245 C1246 1.399 . S
C1245 C1250 1.399 . S
C1246 C1245 1.399 . S
C1246 C1247 1.376 . S
C1247 H1234 0.930 . S
C1247 C1246 1.376 . S
C1247 C1248 1.388 . S
C1248 H1235 0.930 . S
C1248 C1247 1.388 . S
C1248 C1249 1.390 . S
C1249 C1248 1.390 . S
C1249 C1250 1.394 . S
C1249 C1255 1.465 . S
C1250 C1245 1.399 . S
C1250 C1249 1.394 . S
C1250 C1251 1.516 . S
C1251 C1250 1.516 . S
C1251 C1252 1.502 . S
C1251 C1253 1.561 . S
C1251 C1254 1.526 . S
C1252 H1236 0.959 . S
C1252 H1237 0.959 . S
C1252 H1238 0.961 . S
C1252 C1251 1.502 . S
C1253 H1239 0.960 . S
C1253 H1240 0.961 . S
C1253 H1241 0.959 . S
C1253 C1251 1.561 . S
C1254 C1251 1.526 . S
C1254 C1255 1.396 . S
C1254 C1259 1.390 . S
C1255 C1249 1.465 . S
C1255 C1254 1.396 . S
C1255 C1256 1.399 . S
C1256 H1242 0.929 . S
C1256 C1255 1.399 . S
C1256 C1257 1.385 . S
C1257 H1243 0.931 . S
C1257 C1256 1.385 . S
C1257 C1258 1.389 . S
C1258 C1257 1.389 . S
C1258 C1259 1.387 . S
C1259 H1244 0.930 . S
C1259 C1254 1.390 . S
C1259 C1258 1.387 . S
H1260 C1272 0.930 . S
H1261 C1274 0.930 . S
H1262 C1275 0.930 . S
H1263 C1279 0.959 . S
H1264 C1279 0.959 . S
H1265 C1279 0.961 . S
H1266 C1280 0.960 . S
H1267 C1280 0.961 . S
H1268 C1280 0.959 . S
H1269 C1283 0.929 . S
H1270 C1284 0.931 . S
H1271 C1286 0.930 . S
C1272 H1260 0.930 . S
C1272 C1273 1.399 . S
C1272 C1277 1.399 . S
C1273 C1272 1.399 . S
C1273 C1274 1.376 . S
C1274 H1261 0.930 . S
C1274 C1273 1.376 . S
C1274 C1275 1.388 . S
C1275 H1262 0.930 . S
C1275 C1274 1.388 . S
C1275 C1276 1.390 . S
C1276 C1275 1.390 . S
C1276 C1277 1.394 . S
C1276 C1282 1.465 . S
C1277 C1272 1.399 . S
C1277 C1276 1.394 . S
C1277 C1278 1.516 . S
C1278 C1277 1.516 . S
C1278 C1279 1.502 . S
C1278 C1280 1.561 . S
C1278 C1281 1.526 . S
C1279 H1263 0.959 . S
C1279 H1264 0.959 . S
C1279 H1265 0.961 . S
C1279 C1278 1.502 . S
C1280 H1266 0.960 . S
C1280 H1267 0.961 . S
C1280 H1268 0.959 . S
C1280 C1278 1.561 . S
C1281 C1278 1.526 . S
C1281 C1282 1.396 . S
C1281 C1286 1.390 . S
C1282 C1276 1.465 . S
C1282 C1281 1.396 . S
C1282 C1283 1.399 . S
C1283 H1269 0.929 . S
C1283 C1282 1.399 . S
C1283 C1284 1.385 . S
C1284 H1270 0.931 . S
C1284 C1283 1.385 . S
C1284 C1285 1.389 . S
C1285 C1284 1.389 . S
C1285 C1286 1.387 . S
C1286 H1271 0.930 . S
C1286 C1281 1.390 . S
C1286 C1285 1.387 . S
H1287 C1299 0.930 . S
H1288 C1301 0.930 . S
H1289 C1302 0.930 . S
H1290 C1306 0.959 . S
H1291 C1306 0.959 . S
H1292 C1306 0.961 . S
H1293 C1307 0.960 . S
H1294 C1307 0.961 . S
H1295 C1307 0.959 . S
H1296 C1310 0.929 . S
H1297 C1311 0.931 . S
H1298 C1313 0.930 . S
C1299 H1287 0.930 . S
C1299 C1300 1.399 . S
C1299 C1304 1.399 . S
C1300 C1299 1.399 . S
C1300 C1301 1.376 . S
C1301 H1288 0.930 . S
C1301 C1300 1.376 . S
C1301 C1302 1.388 . S
C1302 H1289 0.930 . S
C1302 C1301 1.388 . S
C1302 C1303 1.390 . S
C1303 C1302 1.390 . S
C1303 C1304 1.394 . S
C1303 C1309 1.465 . S
C1304 C1299 1.399 . S
C1304 C1303 1.394 . S
C1304 C1305 1.516 . S
C1305 C1304 1.516 . S
C1305 C1306 1.502 . S
C1305 C1307 1.561 . S
C1305 C1308 1.526 . S
C1306 H1290 0.959 . S
C1306 H1291 0.959 . S
C1306 H1292 0.961 . S
C1306 C1305 1.502 . S
C1307 H1293 0.960 . S
C1307 H1294 0.961 . S
C1307 H1295 0.959 . S
C1307 C1305 1.561 . S
C1308 C1305 1.526 . S
C1308 C1309 1.396 . S
C1308 C1313 1.390 . S
C1309 C1303 1.465 . S
C1309 C1308 1.396 . S
C1309 C1310 1.399 . S
C1310 H1296 0.929 . S
C1310 C1309 1.399 . S
C1310 C1311 1.385 . S
C1311 H1297 0.931 . S
C1311 C1310 1.385 . S
C1311 C1312 1.389 . S
C1312 C1311 1.389 . S
C1312 C1313 1.387 . S
C1313 H1298 0.930 . S
C1313 C1308 1.390 . S
C1313 C1312 1.387 . S
H1314 C1326 0.930 . S
H1315 C1328 0.930 . S
H1316 C1329 0.930 . S
H1317 C1333 0.959 . S
H1318 C1333 0.959 . S
H1319 C1333 0.961 . S
H1320 C1334 0.960 . S
H1321 C1334 0.961 . S
H1322 C1334 0.959 . S
H1323 C1337 0.929 . S
H1324 C1338 0.931 . S
H1325 C1340 0.930 . S
C1326 H1314 0.930 . S
C1326 C1327 1.399 . S
C1326 C1331 1.399 . S
C1327 C1326 1.399 . S
C1327 C1328 1.376 . S
C1328 H1315 0.930 . S
C1328 C1327 1.376 . S
C1328 C1329 1.388 . S
C1329 H1316 0.930 . S
C1329 C1328 1.388 . S
C1329 C1330 1.390 . S
C1330 C1329 1.390 . S
C1330 C1331 1.394 . S
C1330 C1336 1.465 . S
C1331 C1326 1.399 . S
C1331 C1330 1.394 . S
C1331 C1332 1.516 . S
C1332 C1331 1.516 . S
C1332 C1333 1.502 . S
C1332 C1334 1.561 . S
C1332 C1335 1.526 . S
C1333 H1317 0.959 . S
C1333 H1318 0.959 . S
C1333 H1319 0.961 . S
C1333 C1332 1.502 . S
C1334 H1320 0.960 . S
C1334 H1321 0.961 . S
C1334 H1322 0.959 . S
C1334 C1332 1.561 . S
C1335 C1332 1.526 . S
C1335 C1336 1.396 . S
C1335 C1340 1.390 . S
C1336 C1330 1.465 . S
C1336 C1335 1.396 . S
C1336 C1337 1.399 . S
C1337 H1323 0.929 . S
C1337 C1336 1.399 . S
C1337 C1338 1.385 . S
C1338 H1324 0.931 . S
C1338 C1337 1.385 . S
C1338 C1339 1.389 . S
C1339 C1338 1.389 . S
C1339 C1340 1.387 . S
C1340 H1325 0.930 . S
C1340 C1335 1.390 . S
C1340 C1339 1.387 . S
H1341 C1353 0.930 . S
H1342 C1355 0.930 . S
H1343 C1356 0.930 . S
H1344 C1360 0.959 . S
H1345 C1360 0.959 . S
H1346 C1360 0.961 . S
H1347 C1361 0.960 . S
H1348 C1361 0.961 . S
H1349 C1361 0.959 . S
H1350 C1364 0.929 . S
H1351 C1365 0.931 . S
H1352 C1367 0.930 . S
C1353 H1341 0.930 . S
C1353 C1354 1.399 . S
C1353 C1358 1.399 . S
C1354 C1353 1.399 . S
C1354 C1355 1.376 . S
C1355 H1342 0.930 . S
C1355 C1354 1.376 . S
C1355 C1356 1.388 . S
C1356 H1343 0.930 . S
C1356 C1355 1.388 . S
C1356 C1357 1.390 . S
C1357 C1356 1.390 . S
C1357 C1358 1.394 . S
C1357 C1363 1.465 . S
C1358 C1353 1.399 . S
C1358 C1357 1.394 . S
C1358 C1359 1.516 . S
C1359 C1358 1.516 . S
C1359 C1360 1.502 . S
C1359 C1361 1.561 . S
C1359 C1362 1.526 . S
C1360 H1344 0.959 . S
C1360 H1345 0.959 . S
C1360 H1346 0.961 . S
C1360 C1359 1.502 . S
C1361 H1347 0.960 . S
C1361 H1348 0.961 . S
C1361 H1349 0.959 . S
C1361 C1359 1.561 . S
C1362 C1359 1.526 . S
C1362 C1363 1.396 . S
C1362 C1367 1.390 . S
C1363 C1357 1.465 . S
C1363 C1362 1.396 . S
C1363 C1364 1.399 . S
C1364 H1350 0.929 . S
C1364 C1363 1.399 . S
C1364 C1365 1.385 . S
C1365 H1351 0.931 . S
C1365 C1364 1.385 . S
C1365 C1366 1.389 . S
C1366 C1365 1.389 . S
C1366 C1367 1.387 . S
C1367 H1352 0.930 . S
C1367 C1362 1.390 . S
C1367 C1366 1.387 . S
H1368 C1380 0.930 . S
H1369 C1382 0.930 . S
H1370 C1383 0.930 . S
H1371 C1387 0.959 . S
H1372 C1387 0.959 . S
H1373 C1387 0.961 . S
H1374 C1388 0.960 . S
H1375 C1388 0.961 . S
H1376 C1388 0.959 . S
H1377 C1391 0.929 . S
H1378 C1392 0.931 . S
H1379 C1394 0.930 . S
C1380 H1368 0.930 . S
C1380 C1381 1.399 . S
C1380 C1385 1.399 . S
C1381 C1380 1.399 . S
C1381 C1382 1.376 . S
C1382 H1369 0.930 . S
C1382 C1381 1.376 . S
C1382 C1383 1.388 . S
C1383 H1370 0.930 . S
C1383 C1382 1.388 . S
C1383 C1384 1.390 . S
C1384 C1383 1.390 . S
C1384 C1385 1.394 . S
C1384 C1390 1.465 . S
C1385 C1380 1.399 . S
C1385 C1384 1.394 . S
C1385 C1386 1.516 . S
C1386 C1385 1.516 . S
C1386 C1387 1.502 . S
C1386 C1388 1.561 . S
C1386 C1389 1.526 . S
C1387 H1371 0.959 . S
C1387 H1372 0.959 . S
C1387 H1373 0.961 . S
C1387 C1386 1.502 . S
C1388 H1374 0.960 . S
C1388 H1375 0.961 . S
C1388 H1376 0.959 . S
C1388 C1386 1.561 . S
C1389 C1386 1.526 . S
C1389 C1390 1.396 . S
C1389 C1394 1.390 . S
C1390 C1384 1.465 . S
C1390 C1389 1.396 . S
C1390 C1391 1.399 . S
C1391 H1377 0.929 . S
C1391 C1390 1.399 . S
C1391 C1392 1.385 . S
C1392 H1378 0.931 . S
C1392 C1391 1.385 . S
C1392 C1393 1.389 . S
C1393 C1392 1.389 . S
C1393 C1394 1.387 . S
C1394 H1379 0.930 . S
C1394 C1389 1.390 . S
C1394 C1393 1.387 . S
H1395 C1407 0.930 . S
H1396 C1409 0.930 . S
H1397 C1410 0.930 . S
H1398 C1414 0.959 . S
H1399 C1414 0.959 . S
H1400 C1414 0.961 . S
H1401 C1415 0.960 . S
H1402 C1415 0.961 . S
H1403 C1415 0.959 . S
H1404 C1418 0.929 . S
H1405 C1419 0.931 . S
H1406 C1421 0.930 . S
C1407 H1395 0.930 . S
C1407 C1408 1.399 . S
C1407 C1412 1.399 . S
C1408 C1407 1.399 . S
C1408 C1409 1.376 . S
C1409 H1396 0.930 . S
C1409 C1408 1.376 . S
C1409 C1410 1.388 . S
C1410 H1397 0.930 . S
C1410 C1409 1.388 . S
C1410 C1411 1.390 . S
C1411 C1410 1.390 . S
C1411 C1412 1.394 . S
C1411 C1417 1.465 . S
C1412 C1407 1.399 . S
C1412 C1411 1.394 . S
C1412 C1413 1.516 . S
C1413 C1412 1.516 . S
C1413 C1414 1.502 . S
C1413 C1415 1.561 . S
C1413 C1416 1.526 . S
C1414 H1398 0.959 . S
C1414 H1399 0.959 . S
C1414 H1400 0.961 . S
C1414 C1413 1.502 . S
C1415 H1401 0.960 . S
C1415 H1402 0.961 . S
C1415 H1403 0.959 . S
C1415 C1413 1.561 . S
C1416 C1413 1.526 . S
C1416 C1417 1.396 . S
C1416 C1421 1.390 . S
C1417 C1411 1.465 . S
C1417 C1416 1.396 . S
C1417 C1418 1.399 . S
C1418 H1404 0.929 . S
C1418 C1417 1.399 . S
C1418 C1419 1.385 . S
C1419 H1405 0.931 . S
C1419 C1418 1.385 . S
C1419 C1420 1.389 . S
C1420 C1419 1.389 . S
C1420 C1421 1.387 . S
C1421 H1406 0.930 . S
C1421 C1416 1.390 . S
C1421 C1420 1.387 . S
H1422 C1434 0.930 . S
H1423 C1436 0.930 . S
H1424 C1437 0.930 . S
H1425 C1441 0.959 . S
H1426 C1441 0.959 . S
H1427 C1441 0.961 . S
H1428 C1442 0.960 . S
H1429 C1442 0.961 . S
H1430 C1442 0.959 . S
H1431 C1445 0.929 . S
H1432 C1446 0.931 . S
H1433 C1448 0.930 . S
C1434 H1422 0.930 . S
C1434 C1435 1.399 . S
C1434 C1439 1.399 . S
C1435 C1434 1.399 . S
C1435 C1436 1.376 . S
C1436 H1423 0.930 . S
C1436 C1435 1.376 . S
C1436 C1437 1.388 . S
C1437 H1424 0.930 . S
C1437 C1436 1.388 . S
C1437 C1438 1.390 . S
C1438 C1437 1.390 . S
C1438 C1439 1.394 . S
C1438 C1444 1.465 . S
C1439 C1434 1.399 . S
C1439 C1438 1.394 . S
C1439 C1440 1.516 . S
C1440 C1439 1.516 . S
C1440 C1441 1.502 . S
C1440 C1442 1.561 . S
C1440 C1443 1.526 . S
C1441 H1425 0.959 . S
C1441 H1426 0.959 . S
C1441 H1427 0.961 . S
C1441 C1440 1.502 . S
C1442 H1428 0.960 . S
C1442 H1429 0.961 . S
C1442 H1430 0.959 . S
C1442 C1440 1.561 . S
C1443 C1440 1.526 . S
C1443 C1444 1.396 . S
C1443 C1448 1.390 . S
C1444 C1438 1.465 . S
C1444 C1443 1.396 . S
C1444 C1445 1.399 . S
C1445 H1431 0.929 . S
C1445 C1444 1.399 . S
C1445 C1446 1.385 . S
C1446 H1432 0.931 . S
C1446 C1445 1.385 . S
C1446 C1447 1.389 . S
C1447 C1446 1.389 . S
C1447 C1448 1.387 . S
C1448 H1433 0.930 . S
C1448 C1443 1.390 . S
C1448 C1447 1.387 . S
H1449 C1461 0.930 . S
H1450 C1463 0.930 . S
H1451 C1464 0.930 . S
H1452 C1468 0.959 . S
H1453 C1468 0.959 . S
H1454 C1468 0.961 . S
H1455 C1469 0.960 . S
H1456 C1469 0.961 . S
H1457 C1469 0.959 . S
H1458 C1472 0.929 . S
H1459 C1473 0.931 . S
H1460 C1475 0.930 . S
C1461 H1449 0.930 . S
C1461 C1462 1.399 . S
C1461 C1466 1.399 . S
C1462 C1461 1.399 . S
C1462 C1463 1.376 . S
C1463 H1450 0.930 . S
C1463 C1462 1.376 . S
C1463 C1464 1.388 . S
C1464 H1451 0.930 . S
C1464 C1463 1.388 . S
C1464 C1465 1.390 . S
C1465 C1464 1.390 . S
C1465 C1466 1.394 . S
C1465 C1471 1.465 . S
C1466 C1461 1.399 . S
C1466 C1465 1.394 . S
C1466 C1467 1.516 . S
C1467 C1466 1.516 . S
C1467 C1468 1.502 . S
C1467 C1469 1.561 . S
C1467 C1470 1.526 . S
C1468 H1452 0.959 . S
C1468 H1453 0.959 . S
C1468 H1454 0.961 . S
C1468 C1467 1.502 . S
C1469 H1455 0.960 . S
C1469 H1456 0.961 . S
C1469 H1457 0.959 . S
C1469 C1467 1.561 . S
C1470 C1467 1.526 . S
C1470 C1471 1.396 . S
C1470 C1475 1.390 . S
C1471 C1465 1.465 . S
C1471 C1470 1.396 . S
C1471 C1472 1.399 . S
C1472 H1458 0.929 . S
C1472 C1471 1.399 . S
C1472 C1473 1.385 . S
C1473 H1459 0.931 . S
C1473 C1472 1.385 . S
C1473 C1474 1.389 . S
C1474 C1473 1.389 . S
C1474 C1475 1.387 . S
C1475 H1460 0.930 . S
C1475 C1470 1.390 . S
C1475 C1474 1.387 . S
H1476 C1488 0.930 . S
H1477 C1490 0.930 . S
H1478 C1491 0.930 . S
H1479 C1495 0.959 . S
H1480 C1495 0.959 . S
H1481 C1495 0.961 . S
H1482 C1496 0.960 . S
H1483 C1496 0.961 . S
H1484 C1496 0.959 . S
H1485 C1499 0.929 . S
H1486 C1500 0.931 . S
H1487 C1502 0.930 . S
C1488 H1476 0.930 . S
C1488 C1489 1.399 . S
C1488 C1493 1.399 . S
C1489 C1488 1.399 . S
C1489 C1490 1.376 . S
C1490 H1477 0.930 . S
C1490 C1489 1.376 . S
C1490 C1491 1.388 . S
C1491 H1478 0.930 . S
C1491 C1490 1.388 . S
C1491 C1492 1.390 . S
C1492 C1491 1.390 . S
C1492 C1493 1.394 . S
C1492 C1498 1.465 . S
C1493 C1488 1.399 . S
C1493 C1492 1.394 . S
C1493 C1494 1.516 . S
C1494 C1493 1.516 . S
C1494 C1495 1.502 . S
C1494 C1496 1.561 . S
C1494 C1497 1.526 . S
C1495 H1479 0.959 . S
C1495 H1480 0.959 . S
C1495 H1481 0.961 . S
C1495 C1494 1.502 . S
C1496 H1482 0.960 . S
C1496 H1483 0.961 . S
C1496 H1484 0.959 . S
C1496 C1494 1.561 . S
C1497 C1494 1.526 . S
C1497 C1498 1.396 . S
C1497 C1502 1.390 . S
C1498 C1492 1.465 . S
C1498 C1497 1.396 . S
C1498 C1499 1.399 . S
C1499 H1485 0.929 . S
C1499 C1498 1.399 . S
C1499 C1500 1.385 . S
C1500 H1486 0.931 . S
C1500 C1499 1.385 . S
C1500 C1501 1.389 . S
C1501 C1500 1.389 . S
C1501 C1502 1.387 . S
C1502 H1487 0.930 . S
C1502 C1497 1.390 . S
C1502 C1501 1.387 . S
H1503 C1515 0.930 . S
H1504 C1517 0.930 . S
H1505 C1518 0.930 . S
H1506 C1522 0.959 . S
H1507 C1522 0.959 . S
H1508 C1522 0.961 . S
H1509 C1523 0.960 . S
H1510 C1523 0.961 . S
H1511 C1523 0.959 . S
H1512 C1526 0.929 . S
H1513 C1527 0.931 . S
H1514 C1529 0.930 . S
C1515 H1503 0.930 . S
C1515 C1516 1.399 . S
C1515 C1520 1.399 . S
C1516 C1515 1.399 . S
C1516 C1517 1.376 . S
C1517 H1504 0.930 . S
C1517 C1516 1.376 . S
C1517 C1518 1.388 . S
C1518 H1505 0.930 . S
C1518 C1517 1.388 . S
C1518 C1519 1.390 . S
C1519 C1518 1.390 . S
C1519 C1520 1.394 . S
C1519 C1525 1.465 . S
C1520 C1515 1.399 . S
C1520 C1519 1.394 . S
C1520 C1521 1.516 . S
C1521 C1520 1.516 . S
C1521 C1522 1.502 . S
C1521 C1523 1.561 . S
C1521 C1524 1.526 . S
C1522 H1506 0.959 . S
C1522 H1507 0.959 . S
C1522 H1508 0.961 . S
C1522 C1521 1.502 . S
C1523 H1509 0.960 . S
C1523 H1510 0.961 . S
C1523 H1511 0.959 . S
C1523 C1521 1.561 . S
C1524 C1521 1.526 . S
C1524 C1525 1.396 . S
C1524 C1529 1.390 . S
C1525 C1519 1.465 . S
C1525 C1524 1.396 . S
C1525 C1526 1.399 . S
C1526 H1512 0.929 . S
C1526 C1525 1.399 . S
C1526 C1527 1.385 . S
C1527 H1513 0.931 . S
C1527 C1526 1.385 . S
C1527 C1528 1.389 . S
C1528 C1527 1.389 . S
C1528 C1529 1.387 . S
C1529 H1514 0.930 . S
C1529 C1524 1.390 . S
C1529 C1528 1.387 . S
H1530 C1542 0.930 . S
H1531 C1544 0.930 . S
H1532 C1545 0.930 . S
H1533 C1549 0.959 . S
H1534 C1549 0.959 . S
H1535 C1549 0.961 . S
H1536 C1550 0.960 . S
H1537 C1550 0.961 . S
H1538 C1550 0.959 . S
H1539 C1553 0.929 . S
H1540 C1554 0.931 . S
H1541 C1556 0.930 . S
C1542 H1530 0.930 . S
C1542 C1543 1.399 . S
C1542 C1547 1.399 . S
C1543 C1542 1.399 . S
C1543 C1544 1.376 . S
C1544 H1531 0.930 . S
C1544 C1543 1.376 . S
C1544 C1545 1.388 . S
C1545 H1532 0.930 . S
C1545 C1544 1.388 . S
C1545 C1546 1.390 . S
C1546 C1545 1.390 . S
C1546 C1547 1.394 . S
C1546 C1552 1.465 . S
C1547 C1542 1.399 . S
C1547 C1546 1.394 . S
C1547 C1548 1.516 . S
C1548 C1547 1.516 . S
C1548 C1549 1.502 . S
C1548 C1550 1.561 . S
C1548 C1551 1.526 . S
C1549 H1533 0.959 . S
C1549 H1534 0.959 . S
C1549 H1535 0.961 . S
C1549 C1548 1.502 . S
C1550 H1536 0.960 . S
C1550 H1537 0.961 . S
C1550 H1538 0.959 . S
C1550 C1548 1.561 . S
C1551 C1548 1.526 . S
C1551 C1552 1.396 . S
C1551 C1556 1.390 . S
C1552 C1546 1.465 . S
C1552 C1551 1.396 . S
C1552 C1553 1.399 . S
C1553 H1539 0.929 . S
C1553 C1552 1.399 . S
C1553 C1554 1.385 . S
C1554 H1540 0.931 . S
C1554 C1553 1.385 . S
C1554 C1555 1.389 . S
C1555 C1554 1.389 . S
C1555 C1556 1.387 . S
C1556 H1541 0.930 . S
C1556 C1551 1.390 . S
C1556 C1555 1.387 . S
H1557 C1569 0.930 . S
H1558 C1571 0.930 . S
H1559 C1572 0.930 . S
H1560 C1576 0.959 . S
H1561 C1576 0.959 . S
H1562 C1576 0.961 . S
H1563 C1577 0.960 . S
H1564 C1577 0.961 . S
H1565 C1577 0.959 . S
H1566 C1580 0.929 . S
H1567 C1581 0.931 . S
H1568 C1583 0.930 . S
C1569 H1557 0.930 . S
C1569 C1570 1.399 . S
C1569 C1574 1.399 . S
C1570 C1569 1.399 . S
C1570 C1571 1.376 . S
C1571 H1558 0.930 . S
C1571 C1570 1.376 . S
C1571 C1572 1.388 . S
C1572 H1559 0.930 . S
C1572 C1571 1.388 . S
C1572 C1573 1.390 . S
C1573 C1572 1.390 . S
C1573 C1574 1.394 . S
C1573 C1579 1.465 . S
C1574 C1569 1.399 . S
C1574 C1573 1.394 . S
C1574 C1575 1.516 . S
C1575 C1574 1.516 . S
C1575 C1576 1.502 . S
C1575 C1577 1.561 . S
C1575 C1578 1.526 . S
C1576 H1560 0.959 . S
C1576 H1561 0.959 . S
C1576 H1562 0.961 . S
C1576 C1575 1.502 . S
C1577 H1563 0.960 . S
C1577 H1564 0.961 . S
C1577 H1565 0.959 . S
C1577 C1575 1.561 . S
C1578 C1575 1.526 . S
C1578 C1579 1.396 . S
C1578 C1583 1.390 . S
C1579 C1573 1.465 . S
C1579 C1578 1.396 . S
C1579 C1580 1.399 . S
C1580 H1566 0.929 . S
C1580 C1579 1.399 . S
C1580 C1581 1.385 . S
C1581 H1567 0.931 . S
C1581 C1580 1.385 . S
C1581 C1582 1.389 . S
C1582 C1581 1.389 . S
C1582 C1583 1.387 . S
C1583 H1568 0.930 . S
C1583 C1578 1.390 . S
C1583 C1582 1.387 . S
H1584 C1596 0.930 . S
H1585 C1598 0.930 . S
H1586 C1599 0.930 . S
H1587 C1603 0.962 . S
H1588 C1603 0.980 . S
H1589 C1603 0.938 1_554 S
H1590 C1604 0.956 1_554 S
H1591 C1604 0.964 . S
H1592 C1604 0.959 . S
H1593 C1607 0.929 . S
H1594 C1608 0.931 . S
H1595 C1610 0.930 . S
C1596 H1584 0.930 . S
C1596 C1597 1.399 . S
C1596 C1601 1.399 . S
C1597 C1596 1.399 . S
C1597 C1598 1.376 . S
C1598 H1585 0.930 . S
C1598 C1597 1.376 . S
C1598 C1599 1.388 . S
C1599 H1586 0.930 . S
C1599 C1598 1.388 . S
C1599 C1600 1.390 . S
C1600 C1599 1.390 . S
C1600 C1601 1.394 . S
C1600 C1606 1.465 1_554 S
C1601 C1596 1.399 . S
C1601 C1600 1.394 . S
C1601 C1602 1.516 1_554 S
C1602 C1601 1.516 1_556 S
C1602 C1603 1.502 . S
C1602 C1604 1.561 . S
C1602 C1605 1.526 . S
C1603 H1587 0.962 . S
C1603 H1588 0.980 . S
C1603 H1589 0.938 1_556 S
C1603 C1602 1.502 . S
C1604 H1590 0.956 1_556 S
C1604 H1591 0.964 . S
C1604 H1592 0.959 . S
C1604 C1602 1.561 . S
C1605 C1602 1.526 . S
C1605 C1606 1.396 . S
C1605 C1610 1.390 . S
C1606 C1600 1.465 1_556 S
C1606 C1605 1.396 . S
C1606 C1607 1.399 . S
C1607 H1593 0.929 . S
C1607 C1606 1.399 . S
C1607 C1608 1.385 . S
C1608 H1594 0.931 . S
C1608 C1607 1.385 . S
C1608 C1609 1.389 . S
C1609 C1608 1.389 . S
C1609 C1610 1.387 . S
C1610 H1595 0.930 . S
C1610 C1605 1.390 . S
C1610 C1609 1.387 . S
H1611 C1623 0.930 . S
H1612 C1625 0.930 . S
H1613 C1626 0.930 . S
H1614 C1630 0.962 . S
H1615 C1630 0.980 . S
H1616 C1630 0.938 1_556 S
H1617 C1631 0.956 1_556 S
H1618 C1631 0.964 . S
H1619 C1631 0.959 . S
H1620 C1634 0.929 . S
H1621 C1635 0.931 . S
H1622 C1637 0.930 . S
C1623 H1611 0.930 . S
C1623 C1624 1.399 . S
C1623 C1628 1.399 . S
C1624 C1623 1.399 . S
C1624 C1625 1.376 . S
C1625 H1612 0.930 . S
C1625 C1624 1.376 . S
C1625 C1626 1.388 . S
C1626 H1613 0.930 . S
C1626 C1625 1.388 . S
C1626 C1627 1.390 . S
C1627 C1626 1.390 . S
C1627 C1628 1.394 . S
C1627 C1633 1.465 1_556 S
C1628 C1623 1.399 . S
C1628 C1627 1.394 . S
C1628 C1629 1.516 1_556 S
C1629 C1628 1.516 1_554 S
C1629 C1630 1.502 . S
C1629 C1631 1.561 . S
C1629 C1632 1.526 . S
C1630 H1614 0.962 . S
C1630 H1615 0.980 . S
C1630 H1616 0.938 1_554 S
C1630 C1629 1.502 . S
C1631 H1617 0.956 1_554 S
C1631 H1618 0.964 . S
C1631 H1619 0.959 . S
C1631 C1629 1.561 . S
C1632 C1629 1.526 . S
C1632 C1633 1.396 . S
C1632 C1637 1.390 . S
C1633 C1627 1.465 1_554 S
C1633 C1632 1.396 . S
C1633 C1634 1.399 . S
C1634 H1620 0.929 . S
C1634 C1633 1.399 . S
C1634 C1635 1.385 . S
C1635 H1621 0.931 . S
C1635 C1634 1.385 . S
C1635 C1636 1.389 . S
C1636 C1635 1.389 . S
C1636 C1637 1.387 . S
C1637 H1622 0.930 . S
C1637 C1632 1.390 . S
C1637 C1636 1.387 . S
H1638 C1650 0.930 . S
H1639 C1652 0.930 . S
H1640 C1653 0.930 . S
H1641 C1657 0.962 . S
H1642 C1657 0.980 . S
H1643 C1657 0.938 1_556 S
H1644 C1658 0.956 1_556 S
H1645 C1658 0.964 . S
H1646 C1658 0.959 . S
H1647 C1661 0.929 . S
H1648 C1662 0.931 . S
H1649 C1664 0.930 . S
C1650 H1638 0.930 . S
C1650 C1651 1.399 . S
C1650 C1655 1.399 . S
C1651 C1650 1.399 . S
C1651 C1652 1.376 . S
C1652 H1639 0.930 . S
C1652 C1651 1.376 . S
C1652 C1653 1.388 . S
C1653 H1640 0.930 . S
C1653 C1652 1.388 . S
C1653 C1654 1.390 . S
C1654 C1653 1.390 . S
C1654 C1655 1.394 . S
C1654 C1660 1.465 1_556 S
C1655 C1650 1.399 . S
C1655 C1654 1.394 . S
C1655 C1656 1.516 1_556 S
C1656 C1655 1.516 1_554 S
C1656 C1657 1.502 . S
C1656 C1658 1.561 . S
C1656 C1659 1.526 . S
C1657 H1641 0.962 . S
C1657 H1642 0.980 . S
C1657 H1643 0.938 1_554 S
C1657 C1656 1.502 . S
C1658 H1644 0.956 1_554 S
C1658 H1645 0.964 . S
C1658 H1646 0.959 . S
C1658 C1656 1.561 . S
C1659 C1656 1.526 . S
C1659 C1660 1.396 . S
C1659 C1664 1.390 . S
C1660 C1654 1.465 1_554 S
C1660 C1659 1.396 . S
C1660 C1661 1.399 . S
C1661 H1647 0.929 . S
C1661 C1660 1.399 . S
C1661 C1662 1.385 . S
C1662 H1648 0.931 . S
C1662 C1661 1.385 . S
C1662 C1663 1.389 . S
C1663 C1662 1.389 . S
C1663 C1664 1.387 . S
C1664 H1649 0.930 . S
C1664 C1659 1.390 . S
C1664 C1663 1.387 . S
H1665 C1677 0.930 . S
H1666 C1679 0.930 . S
H1667 C1680 0.930 . S
H1668 C1684 0.962 . S
H1669 C1684 0.980 . S
H1670 C1684 0.938 1_556 S
H1671 C1685 0.956 1_556 S
H1672 C1685 0.964 . S
H1673 C1685 0.959 . S
H1674 C1688 0.929 . S
H1675 C1689 0.931 . S
H1676 C1691 0.930 . S
C1677 H1665 0.930 . S
C1677 C1678 1.399 . S
C1677 C1682 1.399 . S
C1678 C1677 1.399 . S
C1678 C1679 1.376 . S
C1679 H1666 0.930 . S
C1679 C1678 1.376 . S
C1679 C1680 1.388 . S
C1680 H1667 0.930 . S
C1680 C1679 1.388 . S
C1680 C1681 1.390 . S
C1681 C1680 1.390 . S
C1681 C1682 1.394 . S
C1681 C1687 1.465 1_556 S
C1682 C1677 1.399 . S
C1682 C1681 1.394 . S
C1682 C1683 1.516 1_556 S
C1683 C1682 1.516 1_554 S
C1683 C1684 1.502 . S
C1683 C1685 1.561 . S
C1683 C1686 1.526 . S
C1684 H1668 0.962 . S
C1684 H1669 0.980 . S
C1684 H1670 0.938 1_554 S
C1684 C1683 1.502 . S
C1685 H1671 0.956 1_554 S
C1685 H1672 0.964 . S
C1685 H1673 0.959 . S
C1685 C1683 1.561 . S
C1686 C1683 1.526 . S
C1686 C1687 1.396 . S
C1686 C1691 1.390 . S
C1687 C1681 1.465 1_554 S
C1687 C1686 1.396 . S
C1687 C1688 1.399 . S
C1688 H1674 0.929 . S
C1688 C1687 1.399 . S
C1688 C1689 1.385 . S
C1689 H1675 0.931 . S
C1689 C1688 1.385 . S
C1689 C1690 1.389 . S
C1690 C1689 1.389 . S
C1690 C1691 1.387 . S
C1691 H1676 0.930 . S
C1691 C1686 1.390 . S
C1691 C1690 1.387 . S
H1692 C1704 0.930 . S
H1693 C1706 0.930 . S
H1694 C1707 0.930 . S
H1695 C1711 0.959 . S
H1696 C1711 0.959 . S
H1697 C1711 0.961 . S
H1698 C1712 0.960 . S
H1699 C1712 0.961 . S
H1700 C1712 0.959 . S
H1701 C1715 0.929 . S
H1702 C1716 0.931 . S
H1703 C1718 0.930 . S
C1704 H1692 0.930 . S
C1704 C1705 1.399 . S
C1704 C1709 1.399 . S
C1705 C1704 1.399 . S
C1705 C1706 1.376 . S
C1706 H1693 0.930 . S
C1706 C1705 1.376 . S
C1706 C1707 1.388 . S
C1707 H1694 0.930 . S
C1707 C1706 1.388 . S
C1707 C1708 1.390 . S
C1708 C1707 1.390 . S
C1708 C1709 1.394 . S
C1708 C1714 1.465 . S
C1709 C1704 1.399 . S
C1709 C1708 1.394 . S
C1709 C1710 1.516 . S
C1710 C1709 1.516 . S
C1710 C1711 1.502 . S
C1710 C1712 1.561 . S
C1710 C1713 1.526 . S
C1711 H1695 0.959 . S
C1711 H1696 0.959 . S
C1711 H1697 0.961 . S
C1711 C1710 1.502 . S
C1712 H1698 0.960 . S
C1712 H1699 0.961 . S
C1712 H1700 0.959 . S
C1712 C1710 1.561 . S
C1713 C1710 1.526 . S
C1713 C1714 1.396 . S
C1713 C1718 1.390 . S
C1714 C1708 1.465 . S
C1714 C1713 1.396 . S
C1714 C1715 1.399 . S
C1715 H1701 0.929 . S
C1715 C1714 1.399 . S
C1715 C1716 1.385 . S
C1716 H1702 0.931 . S
C1716 C1715 1.385 . S
C1716 C1717 1.389 . S
C1717 C1716 1.389 . S
C1717 C1718 1.387 . S
C1718 H1703 0.930 . S
C1718 C1713 1.390 . S
C1718 C1717 1.387 . S
H1719 C1731 0.930 . S
H1720 C1733 0.930 . S
H1721 C1734 0.930 . S
H1722 C1738 0.959 . S
H1723 C1738 0.959 . S
H1724 C1738 0.961 . S
H1725 C1739 0.960 . S
H1726 C1739 0.961 . S
H1727 C1739 0.959 . S
H1728 C1742 0.929 . S
H1729 C1743 0.931 . S
H1730 C1745 0.930 . S
C1731 H1719 0.930 . S
C1731 C1732 1.399 . S
C1731 C1736 1.399 . S
C1732 C1731 1.399 . S
C1732 C1733 1.376 . S
C1733 H1720 0.930 . S
C1733 C1732 1.376 . S
C1733 C1734 1.388 . S
C1734 H1721 0.930 . S
C1734 C1733 1.388 . S
C1734 C1735 1.390 . S
C1735 C1734 1.390 . S
C1735 C1736 1.394 . S
C1735 C1741 1.465 . S
C1736 C1731 1.399 . S
C1736 C1735 1.394 . S
C1736 C1737 1.516 . S
C1737 C1736 1.516 . S
C1737 C1738 1.502 . S
C1737 C1739 1.561 . S
C1737 C1740 1.526 . S
C1738 H1722 0.959 . S
C1738 H1723 0.959 . S
C1738 H1724 0.961 . S
C1738 C1737 1.502 . S
C1739 H1725 0.960 . S
C1739 H1726 0.961 . S
C1739 H1727 0.959 . S
C1739 C1737 1.561 . S
C1740 C1737 1.526 . S
C1740 C1741 1.396 . S
C1740 C1745 1.390 . S
C1741 C1735 1.465 . S
C1741 C1740 1.396 . S
C1741 C1742 1.399 . S
C1742 H1728 0.929 . S
C1742 C1741 1.399 . S
C1742 C1743 1.385 . S
C1743 H1729 0.931 . S
C1743 C1742 1.385 . S
C1743 C1744 1.389 . S
C1744 C1743 1.389 . S
C1744 C1745 1.387 . S
C1745 H1730 0.930 . S
C1745 C1740 1.390 . S
C1745 C1744 1.387 . S
H1746 C1758 0.930 . S
H1747 C1760 0.930 . S
H1748 C1761 0.930 . S
H1749 C1765 0.959 . S
H1750 C1765 0.959 . S
H1751 C1765 0.961 . S
H1752 C1766 0.960 . S
H1753 C1766 0.961 . S
H1754 C1766 0.959 . S
H1755 C1769 0.929 . S
H1756 C1770 0.931 . S
H1757 C1772 0.930 . S
C1758 H1746 0.930 . S
C1758 C1759 1.399 . S
C1758 C1763 1.399 . S
C1759 C1758 1.399 . S
C1759 C1760 1.376 . S
C1760 H1747 0.930 . S
C1760 C1759 1.376 . S
C1760 C1761 1.388 . S
C1761 H1748 0.930 . S
C1761 C1760 1.388 . S
C1761 C1762 1.390 . S
C1762 C1761 1.390 . S
C1762 C1763 1.394 . S
C1762 C1768 1.465 . S
C1763 C1758 1.399 . S
C1763 C1762 1.394 . S
C1763 C1764 1.516 . S
C1764 C1763 1.516 . S
C1764 C1765 1.502 . S
C1764 C1766 1.561 . S
C1764 C1767 1.526 . S
C1765 H1749 0.959 . S
C1765 H1750 0.959 . S
C1765 H1751 0.961 . S
C1765 C1764 1.502 . S
C1766 H1752 0.960 . S
C1766 H1753 0.961 . S
C1766 H1754 0.959 . S
C1766 C1764 1.561 . S
C1767 C1764 1.526 . S
C1767 C1768 1.396 . S
C1767 C1772 1.390 . S
C1768 C1762 1.465 . S
C1768 C1767 1.396 . S
C1768 C1769 1.399 . S
C1769 H1755 0.929 . S
C1769 C1768 1.399 . S
C1769 C1770 1.385 . S
C1770 H1756 0.931 . S
C1770 C1769 1.385 . S
C1770 C1771 1.389 . S
C1771 C1770 1.389 . S
C1771 C1772 1.387 . S
C1772 H1757 0.930 . S
C1772 C1767 1.390 . S
C1772 C1771 1.387 . S
H1773 C1785 0.930 . S
H1774 C1787 0.930 . S
H1775 C1788 0.930 . S
H1776 C1792 0.959 . S
H1777 C1792 0.959 . S
H1778 C1792 0.961 . S
H1779 C1793 0.960 . S
H1780 C1793 0.961 . S
H1781 C1793 0.959 . S
H1782 C1796 0.929 . S
H1783 C1797 0.931 . S
H1784 C1799 0.930 . S
C1785 H1773 0.930 . S
C1785 C1786 1.399 . S
C1785 C1790 1.399 . S
C1786 C1785 1.399 . S
C1786 C1787 1.376 . S
C1787 H1774 0.930 . S
C1787 C1786 1.376 . S
C1787 C1788 1.388 . S
C1788 H1775 0.930 . S
C1788 C1787 1.388 . S
C1788 C1789 1.390 . S
C1789 C1788 1.390 . S
C1789 C1790 1.394 . S
C1789 C1795 1.465 . S
C1790 C1785 1.399 . S
C1790 C1789 1.394 . S
C1790 C1791 1.516 . S
C1791 C1790 1.516 . S
C1791 C1792 1.502 . S
C1791 C1793 1.561 . S
C1791 C1794 1.526 . S
C1792 H1776 0.959 . S
C1792 H1777 0.959 . S
C1792 H1778 0.961 . S
C1792 C1791 1.502 . S
C1793 H1779 0.960 . S
C1793 H1780 0.961 . S
C1793 H1781 0.959 . S
C1793 C1791 1.561 . S
C1794 C1791 1.526 . S
C1794 C1795 1.396 . S
C1794 C1799 1.390 . S
C1795 C1789 1.465 . S
C1795 C1794 1.396 . S
C1795 C1796 1.399 . S
C1796 H1782 0.929 . S
C1796 C1795 1.399 . S
C1796 C1797 1.385 . S
C1797 H1783 0.931 . S
C1797 C1796 1.385 . S
C1797 C1798 1.389 . S
C1798 C1797 1.389 . S
C1798 C1799 1.387 . S
C1799 H1784 0.930 . S
C1799 C1794 1.390 . S
C1799 C1798 1.387 . S
H1800 C1812 0.930 . S
H1801 C1814 0.930 . S
H1802 C1815 0.930 . S
H1803 C1819 0.959 . S
H1804 C1819 0.959 . S
H1805 C1819 0.961 . S
H1806 C1820 0.960 . S
H1807 C1820 0.961 . S
H1808 C1820 0.959 . S
H1809 C1823 0.929 . S
H1810 C1824 0.931 . S
H1811 C1826 0.930 . S
C1812 H1800 0.930 . S
C1812 C1813 1.399 . S
C1812 C1817 1.399 . S
C1813 C1812 1.399 . S
C1813 C1814 1.376 . S
C1814 H1801 0.930 . S
C1814 C1813 1.376 . S
C1814 C1815 1.388 . S
C1815 H1802 0.930 . S
C1815 C1814 1.388 . S
C1815 C1816 1.390 . S
C1816 C1815 1.390 . S
C1816 C1817 1.394 . S
C1816 C1822 1.465 . S
C1817 C1812 1.399 . S
C1817 C1816 1.394 . S
C1817 C1818 1.516 . S
C1818 C1817 1.516 . S
C1818 C1819 1.502 . S
C1818 C1820 1.561 . S
C1818 C1821 1.526 . S
C1819 H1803 0.959 . S
C1819 H1804 0.959 . S
C1819 H1805 0.961 . S
C1819 C1818 1.502 . S
C1820 H1806 0.960 . S
C1820 H1807 0.961 . S
C1820 H1808 0.959 . S
C1820 C1818 1.561 . S
C1821 C1818 1.526 . S
C1821 C1822 1.396 . S
C1821 C1826 1.390 . S
C1822 C1816 1.465 . S
C1822 C1821 1.396 . S
C1822 C1823 1.399 . S
C1823 H1809 0.929 . S
C1823 C1822 1.399 . S
C1823 C1824 1.385 . S
C1824 H1810 0.931 . S
C1824 C1823 1.385 . S
C1824 C1825 1.389 . S
C1825 C1824 1.389 . S
C1825 C1826 1.387 . S
C1826 H1811 0.930 . S
C1826 C1821 1.390 . S
C1826 C1825 1.387 . S
H1827 C1839 0.930 . S
H1828 C1841 0.930 . S
H1829 C1842 0.930 . S
H1830 C1846 0.959 . S
H1831 C1846 0.959 . S
H1832 C1846 0.961 . S
H1833 C1847 0.960 . S
H1834 C1847 0.961 . S
H1835 C1847 0.959 . S
H1836 C1850 0.929 . S
H1837 C1851 0.931 . S
H1838 C1853 0.930 . S
C1839 H1827 0.930 . S
C1839 C1840 1.399 . S
C1839 C1844 1.399 . S
C1840 C1839 1.399 . S
C1840 C1841 1.376 . S
C1841 H1828 0.930 . S
C1841 C1840 1.376 . S
C1841 C1842 1.388 . S
C1842 H1829 0.930 . S
C1842 C1841 1.388 . S
C1842 C1843 1.390 . S
C1843 C1842 1.390 . S
C1843 C1844 1.394 . S
C1843 C1849 1.465 . S
C1844 C1839 1.399 . S
C1844 C1843 1.394 . S
C1844 C1845 1.516 . S
C1845 C1844 1.516 . S
C1845 C1846 1.502 . S
C1845 C1847 1.561 . S
C1845 C1848 1.526 . S
C1846 H1830 0.959 . S
C1846 H1831 0.959 . S
C1846 H1832 0.961 . S
C1846 C1845 1.502 . S
C1847 H1833 0.960 . S
C1847 H1834 0.961 . S
C1847 H1835 0.959 . S
C1847 C1845 1.561 . S
C1848 C1845 1.526 . S
C1848 C1849 1.396 . S
C1848 C1853 1.390 . S
C1849 C1843 1.465 . S
C1849 C1848 1.396 . S
C1849 C1850 1.399 . S
C1850 H1836 0.929 . S
C1850 C1849 1.399 . S
C1850 C1851 1.385 . S
C1851 H1837 0.931 . S
C1851 C1850 1.385 . S
C1851 C1852 1.389 . S
C1852 C1851 1.389 . S
C1852 C1853 1.387 . S
C1853 H1838 0.930 . S
C1853 C1848 1.390 . S
C1853 C1852 1.387 . S
H1854 C1866 0.930 . S
H1855 C1868 0.930 . S
H1856 C1869 0.930 . S
H1857 C1873 0.959 . S
H1858 C1873 0.959 . S
H1859 C1873 0.961 . S
H1860 C1874 0.960 . S
H1861 C1874 0.961 . S
H1862 C1874 0.959 . S
H1863 C1877 0.929 . S
H1864 C1878 0.931 . S
H1865 C1880 0.930 . S
C1866 H1854 0.930 . S
C1866 C1867 1.399 . S
C1866 C1871 1.399 . S
C1867 C1866 1.399 . S
C1867 C1868 1.376 . S
C1868 H1855 0.930 . S
C1868 C1867 1.376 . S
C1868 C1869 1.388 . S
C1869 H1856 0.930 . S
C1869 C1868 1.388 . S
C1869 C1870 1.390 . S
C1870 C1869 1.390 . S
C1870 C1871 1.394 . S
C1870 C1876 1.465 . S
C1871 C1866 1.399 . S
C1871 C1870 1.394 . S
C1871 C1872 1.516 . S
C1872 C1871 1.516 . S
C1872 C1873 1.502 . S
C1872 C1874 1.561 . S
C1872 C1875 1.526 . S
C1873 H1857 0.959 . S
C1873 H1858 0.959 . S
C1873 H1859 0.961 . S
C1873 C1872 1.502 . S
C1874 H1860 0.960 . S
C1874 H1861 0.961 . S
C1874 H1862 0.959 . S
C1874 C1872 1.561 . S
C1875 C1872 1.526 . S
C1875 C1876 1.396 . S
C1875 C1880 1.390 . S
C1876 C1870 1.465 . S
C1876 C1875 1.396 . S
C1876 C1877 1.399 . S
C1877 H1863 0.929 . S
C1877 C1876 1.399 . S
C1877 C1878 1.385 . S
C1878 H1864 0.931 . S
C1878 C1877 1.385 . S
C1878 C1879 1.389 . S
C1879 C1878 1.389 . S
C1879 C1880 1.387 . S
C1880 H1865 0.930 . S
C1880 C1875 1.390 . S
C1880 C1879 1.387 . S
H1881 C1893 0.930 . S
H1882 C1895 0.930 . S
H1883 C1896 0.930 . S
H1884 C1900 0.959 . S
H1885 C1900 0.959 . S
H1886 C1900 0.961 . S
H1887 C1901 0.960 . S
H1888 C1901 0.961 . S
H1889 C1901 0.959 . S
H1890 C1904 0.929 . S
H1891 C1905 0.931 . S
H1892 C1907 0.930 . S
C1893 H1881 0.930 . S
C1893 C1894 1.399 . S
C1893 C1898 1.399 . S
C1894 C1893 1.399 . S
C1894 C1895 1.376 . S
C1895 H1882 0.930 . S
C1895 C1894 1.376 . S
C1895 C1896 1.388 . S
C1896 H1883 0.930 . S
C1896 C1895 1.388 . S
C1896 C1897 1.390 . S
C1897 C1896 1.390 . S
C1897 C1898 1.394 . S
C1897 C1903 1.465 . S
C1898 C1893 1.399 . S
C1898 C1897 1.394 . S
C1898 C1899 1.516 . S
C1899 C1898 1.516 . S
C1899 C1900 1.502 . S
C1899 C1901 1.561 . S
C1899 C1902 1.526 . S
C1900 H1884 0.959 . S
C1900 H1885 0.959 . S
C1900 H1886 0.961 . S
C1900 C1899 1.502 . S
C1901 H1887 0.960 . S
C1901 H1888 0.961 . S
C1901 H1889 0.959 . S
C1901 C1899 1.561 . S
C1902 C1899 1.526 . S
C1902 C1903 1.396 . S
C1902 C1907 1.390 . S
C1903 C1897 1.465 . S
C1903 C1902 1.396 . S
C1903 C1904 1.399 . S
C1904 H1890 0.929 . S
C1904 C1903 1.399 . S
C1904 C1905 1.385 . S
C1905 H1891 0.931 . S
C1905 C1904 1.385 . S
C1905 C1906 1.389 . S
C1906 C1905 1.389 . S
C1906 C1907 1.387 . S
C1907 H1892 0.930 . S
C1907 C1902 1.390 . S
C1907 C1906 1.387 . S
H1908 C1920 0.930 . S
H1909 C1922 0.930 . S
H1910 C1923 0.930 . S
H1911 C1927 0.962 . S
H1912 C1927 0.980 . S
H1913 C1927 0.938 1_556 S
H1914 C1928 0.956 1_556 S
H1915 C1928 0.964 . S
H1916 C1928 0.959 . S
H1917 C1931 0.929 . S
H1918 C1932 0.931 . S
H1919 C1934 0.930 . S
C1920 H1908 0.930 . S
C1920 C1921 1.399 . S
C1920 C1925 1.399 . S
C1921 C1920 1.399 . S
C1921 C1922 1.376 . S
C1922 H1909 0.930 . S
C1922 C1921 1.376 . S
C1922 C1923 1.388 . S
C1923 H1910 0.930 . S
C1923 C1922 1.388 . S
C1923 C1924 1.390 . S
C1924 C1923 1.390 . S
C1924 C1925 1.394 . S
C1924 C1930 1.465 1_556 S
C1925 C1920 1.399 . S
C1925 C1924 1.394 . S
C1925 C1926 1.516 1_556 S
C1926 C1925 1.516 1_554 S
C1926 C1927 1.502 . S
C1926 C1928 1.561 . S
C1926 C1929 1.526 . S
C1927 H1911 0.962 . S
C1927 H1912 0.980 . S
C1927 H1913 0.938 1_554 S
C1927 C1926 1.502 . S
C1928 H1914 0.956 1_554 S
C1928 H1915 0.964 . S
C1928 H1916 0.959 . S
C1928 C1926 1.561 . S
C1929 C1926 1.526 . S
C1929 C1930 1.396 . S
C1929 C1934 1.390 . S
C1930 C1924 1.465 1_554 S
C1930 C1929 1.396 . S
C1930 C1931 1.399 . S
C1931 H1917 0.929 . S
C1931 C1930 1.399 . S
C1931 C1932 1.385 . S
C1932 H1918 0.931 . S
C1932 C1931 1.385 . S
C1932 C1933 1.389 . S
C1933 C1932 1.389 . S
C1933 C1934 1.387 . S
C1934 H1919 0.930 . S
C1934 C1929 1.390 . S
C1934 C1933 1.387 . S
H1935 C1947 0.930 . S
H1936 C1949 0.930 . S
H1937 C1950 0.930 . S
H1938 C1954 0.962 . S
H1939 C1954 0.980 . S
H1940 C1954 0.938 1_554 S
H1941 C1955 0.956 1_554 S
H1942 C1955 0.964 . S
H1943 C1955 0.959 . S
H1944 C1958 0.929 . S
H1945 C1959 0.931 . S
H1946 C1961 0.930 . S
C1947 H1935 0.930 . S
C1947 C1948 1.399 . S
C1947 C1952 1.399 . S
C1948 C1947 1.399 . S
C1948 C1949 1.376 . S
C1949 H1936 0.930 . S
C1949 C1948 1.376 . S
C1949 C1950 1.388 . S
C1950 H1937 0.930 . S
C1950 C1949 1.388 . S
C1950 C1951 1.390 . S
C1951 C1950 1.390 . S
C1951 C1952 1.394 . S
C1951 C1957 1.465 1_554 S
C1952 C1947 1.399 . S
C1952 C1951 1.394 . S
C1952 C1953 1.516 1_554 S
C1953 C1952 1.516 1_556 S
C1953 C1954 1.502 . S
C1953 C1955 1.561 . S
C1953 C1956 1.526 . S
C1954 H1938 0.962 . S
C1954 H1939 0.980 . S
C1954 H1940 0.938 1_556 S
C1954 C1953 1.502 . S
C1955 H1941 0.956 1_556 S
C1955 H1942 0.964 . S
C1955 H1943 0.959 . S
C1955 C1953 1.561 . S
C1956 C1953 1.526 . S
C1956 C1957 1.396 . S
C1956 C1961 1.390 . S
C1957 C1951 1.465 1_556 S
C1957 C1956 1.396 . S
C1957 C1958 1.399 . S
C1958 H1944 0.929 . S
C1958 C1957 1.399 . S
C1958 C1959 1.385 . S
C1959 H1945 0.931 . S
C1959 C1958 1.385 . S
C1959 C1960 1.389 . S
C1960 C1959 1.389 . S
C1960 C1961 1.387 . S
C1961 H1946 0.930 . S
C1961 C1956 1.390 . S
C1961 C1960 1.387 . S
H1962 C1974 0.930 . S
H1963 C1976 0.930 . S
H1964 C1977 0.930 . S
H1965 C1981 0.962 . S
H1966 C1981 0.980 . S
H1967 C1981 0.938 1_554 S
H1968 C1982 0.957 1_554 S
H1969 C1982 0.964 . S
H1970 C1982 0.959 . S
H1971 C1985 0.929 . S
H1972 C1986 0.931 . S
H1973 C1988 0.930 . S
C1974 H1962 0.930 . S
C1974 C1975 1.399 . S
C1974 C1979 1.399 . S
C1975 C1974 1.399 . S
C1975 C1976 1.376 . S
C1976 H1963 0.930 . S
C1976 C1975 1.376 . S
C1976 C1977 1.388 . S
C1977 H1964 0.930 . S
C1977 C1976 1.388 . S
C1977 C1978 1.390 . S
C1978 C1977 1.390 . S
C1978 C1979 1.394 . S
C1978 C1984 1.465 1_554 S
C1979 C1974 1.399 . S
C1979 C1978 1.394 . S
C1979 C1980 1.516 1_554 S
C1980 C1979 1.516 1_556 S
C1980 C1981 1.502 . S
C1980 C1982 1.561 . S
C1980 C1983 1.526 . S
C1981 H1965 0.962 . S
C1981 H1966 0.980 . S
C1981 H1967 0.938 1_556 S
C1981 C1980 1.502 . S
C1982 H1968 0.957 1_556 S
C1982 H1969 0.964 . S
C1982 H1970 0.959 . S
C1982 C1980 1.561 . S
C1983 C1980 1.526 . S
C1983 C1984 1.396 . S
C1983 C1988 1.390 . S
C1984 C1978 1.465 1_556 S
C1984 C1983 1.396 . S
C1984 C1985 1.399 . S
C1985 H1971 0.929 . S
C1985 C1984 1.399 . S
C1985 C1986 1.385 . S
C1986 H1972 0.931 . S
C1986 C1985 1.385 . S
C1986 C1987 1.389 . S
C1987 C1986 1.389 . S
C1987 C1988 1.387 . S
C1988 H1973 0.930 . S
C1988 C1983 1.390 . S
C1988 C1987 1.387 . S
H1989 C2001 0.930 . S
H1990 C2003 0.930 . S
H1991 C2004 0.930 . S
H1992 C2008 0.962 . S
H1993 C2008 0.980 . S
H1994 C2008 0.938 1_556 S
H1995 C2009 0.956 1_556 S
H1996 C2009 0.964 . S
H1997 C2009 0.959 . S
H1998 C2012 0.929 . S
H1999 C2013 0.931 . S
H2000 C2015 0.930 . S
C2001 H1989 0.930 . S
C2001 C2002 1.399 . S
C2001 C2006 1.399 . S
C2002 C2001 1.399 . S
C2002 C2003 1.376 . S
C2003 H1990 0.930 . S
C2003 C2002 1.376 . S
C2003 C2004 1.388 . S
C2004 H1991 0.930 . S
C2004 C2003 1.388 . S
C2004 C2005 1.390 . S
C2005 C2004 1.390 . S
C2005 C2006 1.394 . S
C2005 C2011 1.465 1_556 S
C2006 C2001 1.399 . S
C2006 C2005 1.394 . S
C2006 C2007 1.516 1_556 S
C2007 C2006 1.516 1_554 S
C2007 C2008 1.502 . S
C2007 C2009 1.561 . S
C2007 C2010 1.526 . S
C2008 H1992 0.962 . S
C2008 H1993 0.980 . S
C2008 H1994 0.938 1_554 S
C2008 C2007 1.502 . S
C2009 H1995 0.956 1_554 S
C2009 H1996 0.964 . S
C2009 H1997 0.959 . S
C2009 C2007 1.561 . S
C2010 C2007 1.526 . S
C2010 C2011 1.396 . S
C2010 C2015 1.390 . S
C2011 C2005 1.465 1_554 S
C2011 C2010 1.396 . S
C2011 C2012 1.399 . S
C2012 H1998 0.929 . S
C2012 C2011 1.399 . S
C2012 C2013 1.385 . S
C2013 H1999 0.931 . S
C2013 C2012 1.385 . S
C2013 C2014 1.389 . S
C2014 C2013 1.389 . S
C2014 C2015 1.387 . S
C2015 H2000 0.930 . S
C2015 C2010 1.390 . S
C2015 C2014 1.387 . S
H2016 C2028 0.930 . S
H2017 C2030 0.930 . S
H2018 C2031 0.930 . S
H2019 C2035 0.959 . S
H2020 C2035 0.959 . S
H2021 C2035 0.961 . S
H2022 C2036 0.960 . S
H2023 C2036 0.961 . S
H2024 C2036 0.959 . S
H2025 C2039 0.929 1_545 S
H2026 C2040 0.931 . S
H2027 C2042 0.930 . S
C2028 H2016 0.930 . S
C2028 C2029 1.399 . S
C2028 C2033 1.399 . S
C2029 C2028 1.399 . S
C2029 C2030 1.376 . S
C2030 H2017 0.930 . S
C2030 C2029 1.376 . S
C2030 C2031 1.388 . S
C2031 H2018 0.930 . S
C2031 C2030 1.388 . S
C2031 C2032 1.390 . S
C2032 C2031 1.390 . S
C2032 C2033 1.394 . S
C2032 C2038 1.465 1_545 S
C2033 C2028 1.399 . S
C2033 C2032 1.394 . S
C2033 C2034 1.516 1_545 S
C2034 C2033 1.516 1_565 S
C2034 C2035 1.502 . S
C2034 C2036 1.561 . S
C2034 C2037 1.526 . S
C2035 H2019 0.959 . S
C2035 H2020 0.959 . S
C2035 H2021 0.961 . S
C2035 C2034 1.502 . S
C2036 H2022 0.960 . S
C2036 H2023 0.961 . S
C2036 H2024 0.959 . S
C2036 C2034 1.561 . S
C2037 C2034 1.526 . S
C2037 C2038 1.396 . S
C2037 C2042 1.390 . S
C2038 C2032 1.465 1_565 S
C2038 C2037 1.396 . S
C2038 C2039 1.399 . S
C2039 H2025 0.929 1_565 S
C2039 C2038 1.399 . S
C2039 C2040 1.385 . S
C2040 H2026 0.931 . S
C2040 C2039 1.385 . S
C2040 C2041 1.389 . S
C2041 C2040 1.389 . S
C2041 C2042 1.387 . S
C2042 H2027 0.930 . S
C2042 C2037 1.390 . S
C2042 C2041 1.387 . S
H2043 C2055 0.930 . S
H2044 C2057 0.930 . S
H2045 C2058 0.930 . S
H2046 C2062 0.959 . S
H2047 C2062 0.959 1_455 S
H2048 C2062 0.961 . S
H2049 C2063 0.960 . S
H2050 C2063 0.961 . S
H2051 C2063 0.959 . S
H2052 C2066 0.929 . S
H2053 C2067 0.931 . S
H2054 C2069 0.930 . S
C2055 H2043 0.930 . S
C2055 C2056 1.399 . S
C2055 C2060 1.399 . S
C2056 C2055 1.399 . S
C2056 C2057 1.376 . S
C2057 H2044 0.930 . S
C2057 C2056 1.376 . S
C2057 C2058 1.388 . S
C2058 H2045 0.930 . S
C2058 C2057 1.388 . S
C2058 C2059 1.390 . S
C2059 C2058 1.390 . S
C2059 C2060 1.394 . S
C2059 C2065 1.465 1_655 S
C2060 C2055 1.399 . S
C2060 C2059 1.394 . S
C2060 C2061 1.516 1_655 S
C2061 C2060 1.516 1_455 S
C2061 C2062 1.502 1_455 S
C2061 C2063 1.561 . S
C2061 C2064 1.526 . S
C2062 H2046 0.959 . S
C2062 H2047 0.959 1_655 S
C2062 H2048 0.961 . S
C2062 C2061 1.502 1_655 S
C2063 H2049 0.960 . S
C2063 H2050 0.961 . S
C2063 H2051 0.959 . S
C2063 C2061 1.561 . S
C2064 C2061 1.526 . S
C2064 C2065 1.396 . S
C2064 C2069 1.390 . S
C2065 C2059 1.465 1_455 S
C2065 C2064 1.396 . S
C2065 C2066 1.399 . S
C2066 H2052 0.929 . S
C2066 C2065 1.399 . S
C2066 C2067 1.385 . S
C2067 H2053 0.931 . S
C2067 C2066 1.385 . S
C2067 C2068 1.389 . S
C2068 C2067 1.389 . S
C2068 C2069 1.387 . S
C2069 H2054 0.930 . S
C2069 C2064 1.390 . S
C2069 C2068 1.387 . S
H2070 C2082 0.930 . S
H2071 C2084 0.930 . S
H2072 C2085 0.930 . S
H2073 C2089 0.959 . S
H2074 C2089 0.959 . S
H2075 C2089 0.961 . S
H2076 C2090 0.960 . S
H2077 C2090 0.961 . S
H2078 C2090 0.959 . S
H2079 C2093 0.929 1_545 S
H2080 C2094 0.931 . S
H2081 C2096 0.930 . S
C2082 H2070 0.930 . S
C2082 C2083 1.399 . S
C2082 C2087 1.399 . S
C2083 C2082 1.399 . S
C2083 C2084 1.376 . S
C2084 H2071 0.930 . S
C2084 C2083 1.376 . S
C2084 C2085 1.388 . S
C2085 H2072 0.930 . S
C2085 C2084 1.388 . S
C2085 C2086 1.390 . S
C2086 C2085 1.390 . S
C2086 C2087 1.394 . S
C2086 C2092 1.465 1_545 S
C2087 C2082 1.399 . S
C2087 C2086 1.394 . S
C2087 C2088 1.516 1_545 S
C2088 C2087 1.516 1_565 S
C2088 C2089 1.502 . S
C2088 C2090 1.561 . S
C2088 C2091 1.526 . S
C2089 H2073 0.959 . S
C2089 H2074 0.959 . S
C2089 H2075 0.961 . S
C2089 C2088 1.502 . S
C2090 H2076 0.960 . S
C2090 H2077 0.961 . S
C2090 H2078 0.959 . S
C2090 C2088 1.561 . S
C2091 C2088 1.526 . S
C2091 C2092 1.396 . S
C2091 C2096 1.390 . S
C2092 C2086 1.465 1_565 S
C2092 C2091 1.396 . S
C2092 C2093 1.399 . S
C2093 H2079 0.929 1_565 S
C2093 C2092 1.399 . S
C2093 C2094 1.385 . S
C2094 H2080 0.931 . S
C2094 C2093 1.385 . S
C2094 C2095 1.389 . S
C2095 C2094 1.389 . S
C2095 C2096 1.387 . S
C2096 H2081 0.930 . S
C2096 C2091 1.390 . S
C2096 C2095 1.387 . S
H2097 C2109 0.930 . S
H2098 C2111 0.930 . S
H2099 C2112 0.930 . S
H2100 C2116 0.959 . S
H2101 C2116 0.938 1_655 S
H2102 C2116 0.961 . S
H2103 C2117 0.988 . S
H2104 C2117 0.961 . S
H2105 C2117 0.959 . S
H2106 C2120 0.929 . S
H2107 C2121 0.931 . S
H2108 C2123 0.930 . S
C2109 H2097 0.930 . S
C2109 C2110 1.399 . S
C2109 C2114 1.399 . S
C2110 C2109 1.399 . S
C2110 C2111 1.376 . S
C2111 H2098 0.930 . S
C2111 C2110 1.376 . S
C2111 C2112 1.388 . S
C2112 H2099 0.930 . S
C2112 C2111 1.388 . S
C2112 C2113 1.390 . S
C2113 C2112 1.390 . S
C2113 C2114 1.394 . S
C2113 C2119 1.465 1_455 S
C2114 C2109 1.399 . S
C2114 C2113 1.394 . S
C2114 C2115 1.518 1_455 S
C2115 C2114 1.518 1_655 S
C2115 C2116 1.503 1_655 S
C2115 C2117 1.560 . S
C2115 C2118 1.524 . S
C2116 H2100 0.959 . S
C2116 H2101 0.938 1_455 S
C2116 H2102 0.961 . S
C2116 C2115 1.503 1_455 S
C2117 H2103 0.988 . S
C2117 H2104 0.961 . S
C2117 H2105 0.959 . S
C2117 C2115 1.560 . S
C2118 C2115 1.524 . S
C2118 C2119 1.396 . S
C2118 C2123 1.390 . S
C2119 C2113 1.465 1_655 S
C2119 C2118 1.396 . S
C2119 C2120 1.399 . S
C2120 H2106 0.929 . S
C2120 C2119 1.399 . S
C2120 C2121 1.385 . S
C2121 H2107 0.931 . S
C2121 C2120 1.385 . S
C2121 C2122 1.389 . S
C2122 C2121 1.389 . S
C2122 C2123 1.387 . S
C2123 H2108 0.930 . S
C2123 C2118 1.390 . S
C2123 C2122 1.387 . S
H2124 C2136 0.930 . S
H2125 C2138 0.930 . S
H2126 C2139 0.969 . S
H2127 C2143 0.959 . S
H2128 C2143 0.959 . S
H2129 C2143 0.961 . S
H2130 C2144 0.960 . S
H2131 C2144 0.961 . S
H2132 C2144 0.959 . S
H2133 C2147 0.929 . S
H2134 C2148 0.931 . S
H2135 C2150 0.930 . S
C2136 H2124 0.930 . S
C2136 C2137 1.399 . S
C2136 C2141 1.399 . S
C2137 C2136 1.399 . S
C2137 C2138 1.376 . S
C2138 H2125 0.930 . S
C2138 C2137 1.376 . S
C2138 C2139 1.388 . S
C2139 H2126 0.969 . S
C2139 C2138 1.388 . S
C2139 C2140 1.390 . S
C2140 C2139 1.390 . S
C2140 C2141 1.394 . S
C2140 C2146 1.465 1_565 S
C2141 C2136 1.399 . S
C2141 C2140 1.394 . S
C2141 C2142 1.516 . S
C2142 C2141 1.516 . S
C2142 C2143 1.502 . S
C2142 C2144 1.561 . S
C2142 C2145 1.526 1_565 S
C2143 H2127 0.959 . S
C2143 H2128 0.959 . S
C2143 H2129 0.961 . S
C2143 C2142 1.502 . S
C2144 H2130 0.960 . S
C2144 H2131 0.961 . S
C2144 H2132 0.959 . S
C2144 C2142 1.561 . S
C2145 C2142 1.526 1_545 S
C2145 C2146 1.396 . S
C2145 C2150 1.390 . S
C2146 C2140 1.465 1_545 S
C2146 C2145 1.396 . S
C2146 C2147 1.399 . S
C2147 H2133 0.929 . S
C2147 C2146 1.399 . S
C2147 C2148 1.385 . S
C2148 H2134 0.931 . S
C2148 C2147 1.385 . S
C2148 C2149 1.389 . S
C2149 C2148 1.389 . S
C2149 C2150 1.387 . S
C2150 H2135 0.930 . S
C2150 C2145 1.390 . S
C2150 C2149 1.387 . S
H2151 C2163 0.930 . S
H2152 C2165 0.930 . S
H2153 C2166 0.930 . S
H2154 C2170 0.959 . S
H2155 C2170 0.959 . S
H2156 C2170 0.961 . S
H2157 C2171 0.960 1_655 S
H2158 C2171 0.961 . S
H2159 C2171 0.959 . S
H2160 C2174 0.929 . S
H2161 C2175 0.931 . S
H2162 C2177 0.930 . S
C2163 H2151 0.930 . S
C2163 C2164 1.399 . S
C2163 C2168 1.399 . S
C2164 C2163 1.399 . S
C2164 C2165 1.376 . S
C2165 H2152 0.930 . S
C2165 C2164 1.376 . S
C2165 C2166 1.388 . S
C2166 H2153 0.930 . S
C2166 C2165 1.388 . S
C2166 C2167 1.390 . S
C2167 C2166 1.390 . S
C2167 C2168 1.394 . S
C2167 C2173 1.465 1_655 S
C2168 C2163 1.399 . S
C2168 C2167 1.394 . S
C2168 C2169 1.516 . S
C2169 C2168 1.516 . S
C2169 C2170 1.502 . S
C2169 C2171 1.561 1_655 S
C2169 C2172 1.526 1_655 S
C2170 H2154 0.959 . S
C2170 H2155 0.959 . S
C2170 H2156 0.961 . S
C2170 C2169 1.502 . S
C2171 H2157 0.960 1_455 S
C2171 H2158 0.961 . S
C2171 H2159 0.959 . S
C2171 C2169 1.561 1_455 S
C2172 C2169 1.526 1_455 S
C2172 C2173 1.396 . S
C2172 C2177 1.390 . S
C2173 C2167 1.465 1_455 S
C2173 C2172 1.396 . S
C2173 C2174 1.399 . S
C2174 H2160 0.929 . S
C2174 C2173 1.399 . S
C2174 C2175 1.385 . S
C2175 H2161 0.931 . S
C2175 C2174 1.385 . S
C2175 C2176 1.389 . S
C2176 C2175 1.389 . S
C2176 C2177 1.387 . S
C2177 H2162 0.930 . S
C2177 C2172 1.390 . S
C2177 C2176 1.387 . S
H2178 C2190 0.930 . S
H2179 C2192 0.930 . S
H2180 C2193 0.930 1_545 S
H2181 C2197 0.959 . S
H2182 C2197 0.959 . S
H2183 C2197 0.961 . S
H2184 C2198 0.960 . S
H2185 C2198 0.961 . S
H2186 C2198 0.959 . S
H2187 C2201 0.929 . S
H2188 C2202 0.931 . S
H2189 C2204 0.930 . S
C2190 H2178 0.930 . S
C2190 C2191 1.399 . S
C2190 C2195 1.399 . S
C2191 C2190 1.399 . S
C2191 C2192 1.376 . S
C2192 H2179 0.930 . S
C2192 C2191 1.376 . S
C2192 C2193 1.388 . S
C2193 H2180 0.930 1_565 S
C2193 C2192 1.388 . S
C2193 C2194 1.390 . S
C2194 C2193 1.390 . S
C2194 C2195 1.394 . S
C2194 C2200 1.465 1_565 S
C2195 C2190 1.399 . S
C2195 C2194 1.394 . S
C2195 C2196 1.516 . S
C2196 C2195 1.516 . S
C2196 C2197 1.502 . S
C2196 C2198 1.561 . S
C2196 C2199 1.526 1_565 S
C2197 H2181 0.959 . S
C2197 H2182 0.959 . S
C2197 H2183 0.961 . S
C2197 C2196 1.502 . S
C2198 H2184 0.960 . S
C2198 H2185 0.961 . S
C2198 H2186 0.959 . S
C2198 C2196 1.561 . S
C2199 C2196 1.526 1_545 S
C2199 C2200 1.396 . S
C2199 C2204 1.390 . S
C2200 C2194 1.465 1_545 S
C2200 C2199 1.396 . S
C2200 C2201 1.399 . S
C2201 H2187 0.929 . S
C2201 C2200 1.399 . S
C2201 C2202 1.385 . S
C2202 H2188 0.931 . S
C2202 C2201 1.385 . S
C2202 C2203 1.389 . S
C2203 C2202 1.389 . S
C2203 C2204 1.387 . S
C2204 H2189 0.930 . S
C2204 C2199 1.390 . S
C2204 C2203 1.387 . S
H2205 C2217 0.930 . S
H2206 C2219 0.930 . S
H2207 C2220 0.930 . S
H2208 C2224 0.959 . S
H2209 C2224 0.959 . S
H2210 C2224 0.961 . S
H2211 C2225 0.960 1_655 S
H2212 C2225 0.961 . S
H2213 C2225 0.959 . S
H2214 C2228 0.929 . S
H2215 C2229 0.931 . S
H2216 C2231 0.930 . S
C2217 H2205 0.930 . S
C2217 C2218 1.399 . S
C2217 C2222 1.399 . S
C2218 C2217 1.399 . S
C2218 C2219 1.376 . S
C2219 H2206 0.930 . S
C2219 C2218 1.376 . S
C2219 C2220 1.388 . S
C2220 H2207 0.930 . S
C2220 C2219 1.388 . S
C2220 C2221 1.390 . S
C2221 C2220 1.390 . S
C2221 C2222 1.394 . S
C2221 C2227 1.465 1_655 S
C2222 C2217 1.399 . S
C2222 C2221 1.394 . S
C2222 C2223 1.516 . S
C2223 C2222 1.516 . S
C2223 C2224 1.502 . S
C2223 C2225 1.561 1_655 S
C2223 C2226 1.526 1_655 S
C2224 H2208 0.959 . S
C2224 H2209 0.959 . S
C2224 H2210 0.961 . S
C2224 C2223 1.502 . S
C2225 H2211 0.960 1_455 S
C2225 H2212 0.961 . S
C2225 H2213 0.959 . S
C2225 C2223 1.561 1_455 S
C2226 C2223 1.526 1_455 S
C2226 C2227 1.396 . S
C2226 C2231 1.390 . S
C2227 C2221 1.465 1_455 S
C2227 C2226 1.396 . S
C2227 C2228 1.399 . S
C2228 H2214 0.929 . S
C2228 C2227 1.399 . S
C2228 C2229 1.385 . S
C2229 H2215 0.931 . S
C2229 C2228 1.385 . S
C2229 C2230 1.389 . S
C2230 C2229 1.389 . S
C2230 C2231 1.387 . S
C2231 H2216 0.930 . S
C2231 C2226 1.390 . S
C2231 C2230 1.387 . S
H2232 C2244 0.930 . S
H2233 C2246 0.930 . S
H2234 C2247 0.930 . S
H2235 C2251 0.959 . S
H2236 C2251 0.959 . S
H2237 C2251 0.961 . S
H2238 C2252 0.960 . S
H2239 C2252 0.961 . S
H2240 C2252 0.959 . S
H2241 C2255 0.929 . S
H2242 C2256 0.931 . S
H2243 C2258 0.930 . S
C2244 H2232 0.930 . S
C2244 C2245 1.399 . S
C2244 C2249 1.399 . S
C2245 C2244 1.399 . S
C2245 C2246 1.376 . S
C2246 H2233 0.930 . S
C2246 C2245 1.376 . S
C2246 C2247 1.388 . S
C2247 H2234 0.930 . S
C2247 C2246 1.388 . S
C2247 C2248 1.390 . S
C2248 C2247 1.390 . S
C2248 C2249 1.394 . S
C2248 C2254 1.465 . S
C2249 C2244 1.399 . S
C2249 C2248 1.394 . S
C2249 C2250 1.516 . S
C2250 C2249 1.516 . S
C2250 C2251 1.502 . S
C2250 C2252 1.561 . S
C2250 C2253 1.526 . S
C2251 H2235 0.959 . S
C2251 H2236 0.959 . S
C2251 H2237 0.961 . S
C2251 C2250 1.502 . S
C2252 H2238 0.960 . S
C2252 H2239 0.961 . S
C2252 H2240 0.959 . S
C2252 C2250 1.561 . S
C2253 C2250 1.526 . S
C2253 C2254 1.396 . S
C2253 C2258 1.390 . S
C2254 C2248 1.465 . S
C2254 C2253 1.396 . S
C2254 C2255 1.399 . S
C2255 H2241 0.929 . S
C2255 C2254 1.399 . S
C2255 C2256 1.385 . S
C2256 H2242 0.931 . S
C2256 C2255 1.385 . S
C2256 C2257 1.389 . S
C2257 C2256 1.389 . S
C2257 C2258 1.387 . S
C2258 H2243 0.930 . S
C2258 C2253 1.390 . S
C2258 C2257 1.387 . S
H2259 C2271 0.930 . S
H2260 C2273 0.930 . S
H2261 C2274 0.930 . S
H2262 C2278 0.959 . S
H2263 C2278 0.959 . S
H2264 C2278 0.961 . S
H2265 C2279 0.960 . S
H2266 C2279 0.961 . S
H2267 C2279 0.959 . S
H2268 C2282 0.929 . S
H2269 C2283 0.931 . S
H2270 C2285 0.930 . S
C2271 H2259 0.930 . S
C2271 C2272 1.399 . S
C2271 C2276 1.399 . S
C2272 C2271 1.399 . S
C2272 C2273 1.376 . S
C2273 H2260 0.930 . S
C2273 C2272 1.376 . S
C2273 C2274 1.388 . S
C2274 H2261 0.930 . S
C2274 C2273 1.388 . S
C2274 C2275 1.390 . S
C2275 C2274 1.390 . S
C2275 C2276 1.394 . S
C2275 C2281 1.465 . S
C2276 C2271 1.399 . S
C2276 C2275 1.394 . S
C2276 C2277 1.516 . S
C2277 C2276 1.516 . S
C2277 C2278 1.502 . S
C2277 C2279 1.561 . S
C2277 C2280 1.526 . S
C2278 H2262 0.959 . S
C2278 H2263 0.959 . S
C2278 H2264 0.961 . S
C2278 C2277 1.502 . S
C2279 H2265 0.960 . S
C2279 H2266 0.961 . S
C2279 H2267 0.959 . S
C2279 C2277 1.561 . S
C2280 C2277 1.526 . S
C2280 C2281 1.396 . S
C2280 C2285 1.390 . S
C2281 C2275 1.465 . S
C2281 C2280 1.396 . S
C2281 C2282 1.399 . S
C2282 H2268 0.929 . S
C2282 C2281 1.399 . S
C2282 C2283 1.385 . S
C2283 H2269 0.931 . S
C2283 C2282 1.385 . S
C2283 C2284 1.389 . S
C2284 C2283 1.389 . S
C2284 C2285 1.387 . S
C2285 H2270 0.930 . S
C2285 C2280 1.390 . S
C2285 C2284 1.387 . S
H2286 C2298 0.930 . S
H2287 C2300 0.930 . S
H2288 C2301 0.930 . S
H2289 C2305 0.959 . S
H2290 C2305 0.959 . S
H2291 C2305 0.961 . S
H2292 C2306 0.960 . S
H2293 C2306 0.961 . S
H2294 C2306 0.959 . S
H2295 C2309 0.929 . S
H2296 C2310 0.931 . S
H2297 C2312 0.930 . S
C2298 H2286 0.930 . S
C2298 C2299 1.399 . S
C2298 C2303 1.399 . S
C2299 C2298 1.399 . S
C2299 C2300 1.376 . S
C2300 H2287 0.930 . S
C2300 C2299 1.376 . S
C2300 C2301 1.388 . S
C2301 H2288 0.930 . S
C2301 C2300 1.388 . S
C2301 C2302 1.390 . S
C2302 C2301 1.390 . S
C2302 C2303 1.394 . S
C2302 C2308 1.465 . S
C2303 C2298 1.399 . S
C2303 C2302 1.394 . S
C2303 C2304 1.516 . S
C2304 C2303 1.516 . S
C2304 C2305 1.502 . S
C2304 C2306 1.561 . S
C2304 C2307 1.526 . S
C2305 H2289 0.959 . S
C2305 H2290 0.959 . S
C2305 H2291 0.961 . S
C2305 C2304 1.502 . S
C2306 H2292 0.960 . S
C2306 H2293 0.961 . S
C2306 H2294 0.959 . S
C2306 C2304 1.561 . S
C2307 C2304 1.526 . S
C2307 C2308 1.396 . S
C2307 C2312 1.390 . S
C2308 C2302 1.465 . S
C2308 C2307 1.396 . S
C2308 C2309 1.399 . S
C2309 H2295 0.929 . S
C2309 C2308 1.399 . S
C2309 C2310 1.385 . S
C2310 H2296 0.931 . S
C2310 C2309 1.385 . S
C2310 C2311 1.389 . S
C2311 C2310 1.389 . S
C2311 C2312 1.387 . S
C2312 H2297 0.930 . S
C2312 C2307 1.390 . S
C2312 C2311 1.387 . S
H2313 C2325 0.930 . S
H2314 C2327 0.930 . S
H2315 C2328 0.930 . S
H2316 C2332 0.959 . S
H2317 C2332 0.959 . S
H2318 C2332 0.961 . S
H2319 C2333 0.960 . S
H2320 C2333 0.961 . S
H2321 C2333 0.959 . S
H2322 C2336 0.929 . S
H2323 C2337 0.931 . S
H2324 C2339 0.930 . S
C2325 H2313 0.930 . S
C2325 C2326 1.399 . S
C2325 C2330 1.399 . S
C2326 C2325 1.399 . S
C2326 C2327 1.376 . S
C2327 H2314 0.930 . S
C2327 C2326 1.376 . S
C2327 C2328 1.388 . S
C2328 H2315 0.930 . S
C2328 C2327 1.388 . S
C2328 C2329 1.390 . S
C2329 C2328 1.390 . S
C2329 C2330 1.394 . S
C2329 C2335 1.465 . S
C2330 C2325 1.399 . S
C2330 C2329 1.394 . S
C2330 C2331 1.516 . S
C2331 C2330 1.516 . S
C2331 C2332 1.502 . S
C2331 C2333 1.561 . S
C2331 C2334 1.526 . S
C2332 H2316 0.959 . S
C2332 H2317 0.959 . S
C2332 H2318 0.961 . S
C2332 C2331 1.502 . S
C2333 H2319 0.960 . S
C2333 H2320 0.961 . S
C2333 H2321 0.959 . S
C2333 C2331 1.561 . S
C2334 C2331 1.526 . S
C2334 C2335 1.396 . S
C2334 C2339 1.390 . S
C2335 C2329 1.465 . S
C2335 C2334 1.396 . S
C2335 C2336 1.399 . S
C2336 H2322 0.929 . S
C2336 C2335 1.399 . S
C2336 C2337 1.385 . S
C2337 H2323 0.931 . S
C2337 C2336 1.385 . S
C2337 C2338 1.389 . S
C2338 C2337 1.389 . S
C2338 C2339 1.387 . S
C2339 H2324 0.930 . S
C2339 C2334 1.390 . S
C2339 C2338 1.387 . S
H2340 C2352 0.930 . S
H2341 C2354 0.930 . S
H2342 C2355 0.930 . S
H2343 C2359 0.959 . S
H2344 C2359 0.959 . S
H2345 C2359 0.961 . S
H2346 C2360 0.960 . S
H2347 C2360 0.961 . S
H2348 C2360 0.959 . S
H2349 C2363 0.929 . S
H2350 C2364 0.931 . S
H2351 C2366 0.930 . S
C2352 H2340 0.930 . S
C2352 C2353 1.399 . S
C2352 C2357 1.399 . S
C2353 C2352 1.399 . S
C2353 C2354 1.376 . S
C2354 H2341 0.930 . S
C2354 C2353 1.376 . S
C2354 C2355 1.388 . S
C2355 H2342 0.930 . S
C2355 C2354 1.388 . S
C2355 C2356 1.390 . S
C2356 C2355 1.390 . S
C2356 C2357 1.394 . S
C2356 C2362 1.465 . S
C2357 C2352 1.399 . S
C2357 C2356 1.394 . S
C2357 C2358 1.516 . S
C2358 C2357 1.516 . S
C2358 C2359 1.502 . S
C2358 C2360 1.561 . S
C2358 C2361 1.526 . S
C2359 H2343 0.959 . S
C2359 H2344 0.959 . S
C2359 H2345 0.961 . S
C2359 C2358 1.502 . S
C2360 H2346 0.960 . S
C2360 H2347 0.961 . S
C2360 H2348 0.959 . S
C2360 C2358 1.561 . S
C2361 C2358 1.526 . S
C2361 C2362 1.396 . S
C2361 C2366 1.390 . S
C2362 C2356 1.465 . S
C2362 C2361 1.396 . S
C2362 C2363 1.399 . S
C2363 H2349 0.929 . S
C2363 C2362 1.399 . S
C2363 C2364 1.385 . S
C2364 H2350 0.931 . S
C2364 C2363 1.385 . S
C2364 C2365 1.389 . S
C2365 C2364 1.389 . S
C2365 C2366 1.387 . S
C2366 H2351 0.930 . S
C2366 C2361 1.390 . S
C2366 C2365 1.387 . S
H2367 C2379 0.930 . S
H2368 C2381 0.930 . S
H2369 C2382 0.930 . S
H2370 C2386 0.959 . S
H2371 C2386 0.959 . S
H2372 C2386 0.961 . S
H2373 C2387 0.960 . S
H2374 C2387 0.961 . S
H2375 C2387 0.959 . S
H2376 C2390 0.929 . S
H2377 C2391 0.931 . S
H2378 C2393 0.930 . S
C2379 H2367 0.930 . S
C2379 C2380 1.399 . S
C2379 C2384 1.399 . S
C2380 C2379 1.399 . S
C2380 C2381 1.376 . S
C2381 H2368 0.930 . S
C2381 C2380 1.376 . S
C2381 C2382 1.388 . S
C2382 H2369 0.930 . S
C2382 C2381 1.388 . S
C2382 C2383 1.390 . S
C2383 C2382 1.390 . S
C2383 C2384 1.394 . S
C2383 C2389 1.465 . S
C2384 C2379 1.399 . S
C2384 C2383 1.394 . S
C2384 C2385 1.516 . S
C2385 C2384 1.516 . S
C2385 C2386 1.502 . S
C2385 C2387 1.561 . S
C2385 C2388 1.526 . S
C2386 H2370 0.959 . S
C2386 H2371 0.959 . S
C2386 H2372 0.961 . S
C2386 C2385 1.502 . S
C2387 H2373 0.960 . S
C2387 H2374 0.961 . S
C2387 H2375 0.959 . S
C2387 C2385 1.561 . S
C2388 C2385 1.526 . S
C2388 C2389 1.396 . S
C2388 C2393 1.390 . S
C2389 C2383 1.465 . S
C2389 C2388 1.396 . S
C2389 C2390 1.399 . S
C2390 H2376 0.929 . S
C2390 C2389 1.399 . S
C2390 C2391 1.385 . S
C2391 H2377 0.931 . S
C2391 C2390 1.385 . S
C2391 C2392 1.389 . S
C2392 C2391 1.389 . S
C2392 C2393 1.387 . S
C2393 H2378 0.930 . S
C2393 C2388 1.390 . S
C2393 C2392 1.387 . S
H2394 C2406 0.930 . S
H2395 C2408 0.930 . S
H2396 C2409 0.930 . S
H2397 C2413 0.959 . S
H2398 C2413 0.959 . S
H2399 C2413 0.961 . S
H2400 C2414 0.960 . S
H2401 C2414 0.961 . S
H2402 C2414 0.959 . S
H2403 C2417 0.929 . S
H2404 C2418 0.931 . S
H2405 C2420 0.930 . S
C2406 H2394 0.930 . S
C2406 C2407 1.399 . S
C2406 C2411 1.399 . S
C2407 C2406 1.399 . S
C2407 C2408 1.376 . S
C2408 H2395 0.930 . S
C2408 C2407 1.376 . S
C2408 C2409 1.388 . S
C2409 H2396 0.930 . S
C2409 C2408 1.388 . S
C2409 C2410 1.390 . S
C2410 C2409 1.390 . S
C2410 C2411 1.394 . S
C2410 C2416 1.465 . S
C2411 C2406 1.399 . S
C2411 C2410 1.394 . S
C2411 C2412 1.516 . S
C2412 C2411 1.516 . S
C2412 C2413 1.502 . S
C2412 C2414 1.561 . S
C2412 C2415 1.526 . S
C2413 H2397 0.959 . S
C2413 H2398 0.959 . S
C2413 H2399 0.961 . S
C2413 C2412 1.502 . S
C2414 H2400 0.960 . S
C2414 H2401 0.961 . S
C2414 H2402 0.959 . S
C2414 C2412 1.561 . S
C2415 C2412 1.526 . S
C2415 C2416 1.396 . S
C2415 C2420 1.390 . S
C2416 C2410 1.465 . S
C2416 C2415 1.396 . S
C2416 C2417 1.399 . S
C2417 H2403 0.929 . S
C2417 C2416 1.399 . S
C2417 C2418 1.385 . S
C2418 H2404 0.931 . S
C2418 C2417 1.385 . S
C2418 C2419 1.389 . S
C2419 C2418 1.389 . S
C2419 C2420 1.387 . S
C2420 H2405 0.930 . S
C2420 C2415 1.390 . S
C2420 C2419 1.387 . S
H2421 C2433 0.930 . S
H2422 C2435 0.930 . S
H2423 C2436 0.930 . S
H2424 C2440 0.959 . S
H2425 C2440 0.959 . S
H2426 C2440 0.961 . S
H2427 C2441 0.960 . S
H2428 C2441 0.961 . S
H2429 C2441 0.959 . S
H2430 C2444 0.929 . S
H2431 C2445 0.931 . S
H2432 C2447 0.930 . S
C2433 H2421 0.930 . S
C2433 C2434 1.399 . S
C2433 C2438 1.399 . S
C2434 C2433 1.399 . S
C2434 C2435 1.376 . S
C2435 H2422 0.930 . S
C2435 C2434 1.376 . S
C2435 C2436 1.388 . S
C2436 H2423 0.930 . S
C2436 C2435 1.388 . S
C2436 C2437 1.390 . S
C2437 C2436 1.390 . S
C2437 C2438 1.394 . S
C2437 C2443 1.465 . S
C2438 C2433 1.399 . S
C2438 C2437 1.394 . S
C2438 C2439 1.516 . S
C2439 C2438 1.516 . S
C2439 C2440 1.502 . S
C2439 C2441 1.561 . S
C2439 C2442 1.526 . S
C2440 H2424 0.959 . S
C2440 H2425 0.959 . S
C2440 H2426 0.961 . S
C2440 C2439 1.502 . S
C2441 H2427 0.960 . S
C2441 H2428 0.961 . S
C2441 H2429 0.959 . S
C2441 C2439 1.561 . S
C2442 C2439 1.526 . S
C2442 C2443 1.396 . S
C2442 C2447 1.390 . S
C2443 C2437 1.465 . S
C2443 C2442 1.396 . S
C2443 C2444 1.399 . S
C2444 H2430 0.929 . S
C2444 C2443 1.399 . S
C2444 C2445 1.385 . S
C2445 H2431 0.931 . S
C2445 C2444 1.385 . S
C2445 C2446 1.389 . S
C2446 C2445 1.389 . S
C2446 C2447 1.387 . S
C2447 H2432 0.930 . S
C2447 C2442 1.390 . S
C2447 C2446 1.387 . S
H2448 C2460 0.930 . S
H2449 C2462 0.930 . S
H2450 C2463 0.930 . S
H2451 C2467 0.959 . S
H2452 C2467 0.959 . S
H2453 C2467 0.961 . S
H2454 C2468 0.960 . S
H2455 C2468 0.961 . S
H2456 C2468 0.959 . S
H2457 C2471 0.929 . S
H2458 C2472 0.931 . S
H2459 C2474 0.930 . S
C2460 H2448 0.930 . S
C2460 C2461 1.399 . S
C2460 C2465 1.399 . S
C2461 C2460 1.399 . S
C2461 C2462 1.376 . S
C2462 H2449 0.930 . S
C2462 C2461 1.376 . S
C2462 C2463 1.388 . S
C2463 H2450 0.930 . S
C2463 C2462 1.388 . S
C2463 C2464 1.390 . S
C2464 C2463 1.390 . S
C2464 C2465 1.394 . S
C2464 C2470 1.465 . S
C2465 C2460 1.399 . S
C2465 C2464 1.394 . S
C2465 C2466 1.516 . S
C2466 C2465 1.516 . S
C2466 C2467 1.502 . S
C2466 C2468 1.561 . S
C2466 C2469 1.526 . S
C2467 H2451 0.959 . S
C2467 H2452 0.959 . S
C2467 H2453 0.961 . S
C2467 C2466 1.502 . S
C2468 H2454 0.960 . S
C2468 H2455 0.961 . S
C2468 H2456 0.959 . S
C2468 C2466 1.561 . S
C2469 C2466 1.526 . S
C2469 C2470 1.396 . S
C2469 C2474 1.390 . S
C2470 C2464 1.465 . S
C2470 C2469 1.396 . S
C2470 C2471 1.399 . S
C2471 H2457 0.929 . S
C2471 C2470 1.399 . S
C2471 C2472 1.385 . S
C2472 H2458 0.931 . S
C2472 C2471 1.385 . S
C2472 C2473 1.389 . S
C2473 C2472 1.389 . S
C2473 C2474 1.387 . S
C2474 H2459 0.930 . S
C2474 C2469 1.390 . S
C2474 C2473 1.387 . S
H2475 C2487 0.930 . S
H2476 C2489 0.930 . S
H2477 C2490 0.930 . S
H2478 C2494 0.959 . S
H2479 C2494 0.959 . S
H2480 C2494 0.961 . S
H2481 C2495 0.960 . S
H2482 C2495 0.961 . S
H2483 C2495 0.959 . S
H2484 C2498 0.929 . S
H2485 C2499 0.931 . S
H2486 C2501 0.930 . S
C2487 H2475 0.930 . S
C2487 C2488 1.399 . S
C2487 C2492 1.399 . S
C2488 C2487 1.399 . S
C2488 C2489 1.376 . S
C2489 H2476 0.930 . S
C2489 C2488 1.376 . S
C2489 C2490 1.388 . S
C2490 H2477 0.930 . S
C2490 C2489 1.388 . S
C2490 C2491 1.390 . S
C2491 C2490 1.390 . S
C2491 C2492 1.394 . S
C2491 C2497 1.465 . S
C2492 C2487 1.399 . S
C2492 C2491 1.394 . S
C2492 C2493 1.516 . S
C2493 C2492 1.516 . S
C2493 C2494 1.502 . S
C2493 C2495 1.561 . S
C2493 C2496 1.526 . S
C2494 H2478 0.959 . S
C2494 H2479 0.959 . S
C2494 H2480 0.961 . S
C2494 C2493 1.502 . S
C2495 H2481 0.960 . S
C2495 H2482 0.961 . S
C2495 H2483 0.959 . S
C2495 C2493 1.561 . S
C2496 C2493 1.526 . S
C2496 C2497 1.396 . S
C2496 C2501 1.390 . S
C2497 C2491 1.465 . S
C2497 C2496 1.396 . S
C2497 C2498 1.399 . S
C2498 H2484 0.929 . S
C2498 C2497 1.399 . S
C2498 C2499 1.385 . S
C2499 H2485 0.931 . S
C2499 C2498 1.385 . S
C2499 C2500 1.389 . S
C2500 C2499 1.389 . S
C2500 C2501 1.387 . S
C2501 H2486 0.930 . S
C2501 C2496 1.390 . S
C2501 C2500 1.387 . S
H2502 C2514 0.930 . S
H2503 C2516 0.930 . S
H2504 C2517 0.930 . S
H2505 C2521 0.959 . S
H2506 C2521 0.959 . S
H2507 C2521 0.961 . S
H2508 C2522 0.960 . S
H2509 C2522 0.961 . S
H2510 C2522 0.959 . S
H2511 C2525 0.929 . S
H2512 C2526 0.931 . S
H2513 C2528 0.930 . S
C2514 H2502 0.930 . S
C2514 C2515 1.399 . S
C2514 C2519 1.399 . S
C2515 C2514 1.399 . S
C2515 C2516 1.376 . S
C2516 H2503 0.930 . S
C2516 C2515 1.376 . S
C2516 C2517 1.388 . S
C2517 H2504 0.930 . S
C2517 C2516 1.388 . S
C2517 C2518 1.390 . S
C2518 C2517 1.390 . S
C2518 C2519 1.394 . S
C2518 C2524 1.465 . S
C2519 C2514 1.399 . S
C2519 C2518 1.394 . S
C2519 C2520 1.516 . S
C2520 C2519 1.516 . S
C2520 C2521 1.502 . S
C2520 C2522 1.561 . S
C2520 C2523 1.526 . S
C2521 H2505 0.959 . S
C2521 H2506 0.959 . S
C2521 H2507 0.961 . S
C2521 C2520 1.502 . S
C2522 H2508 0.960 . S
C2522 H2509 0.961 . S
C2522 H2510 0.959 . S
C2522 C2520 1.561 . S
C2523 C2520 1.526 . S
C2523 C2524 1.396 . S
C2523 C2528 1.390 . S
C2524 C2518 1.465 . S
C2524 C2523 1.396 . S
C2524 C2525 1.399 . S
C2525 H2511 0.929 . S
C2525 C2524 1.399 . S
C2525 C2526 1.385 . S
C2526 H2512 0.931 . S
C2526 C2525 1.385 . S
C2526 C2527 1.389 . S
C2527 C2526 1.389 . S
C2527 C2528 1.387 . S
C2528 H2513 0.930 . S
C2528 C2523 1.390 . S
C2528 C2527 1.387 . S
H2529 C2541 0.930 . S
H2530 C2543 0.930 . S
H2531 C2544 0.930 . S
H2532 C2548 0.959 . S
H2533 C2548 0.959 . S
H2534 C2548 0.961 . S
H2535 C2549 0.960 . S
H2536 C2549 0.961 . S
H2537 C2549 0.959 . S
H2538 C2552 0.929 . S
H2539 C2553 0.931 . S
H2540 C2555 0.930 . S
C2541 H2529 0.930 . S
C2541 C2542 1.399 . S
C2541 C2546 1.399 . S
C2542 C2541 1.399 . S
C2542 C2543 1.376 . S
C2543 H2530 0.930 . S
C2543 C2542 1.376 . S
C2543 C2544 1.388 . S
C2544 H2531 0.930 . S
C2544 C2543 1.388 . S
C2544 C2545 1.390 . S
C2545 C2544 1.390 . S
C2545 C2546 1.394 . S
C2545 C2551 1.465 . S
C2546 C2541 1.399 . S
C2546 C2545 1.394 . S
C2546 C2547 1.516 . S
C2547 C2546 1.516 . S
C2547 C2548 1.502 . S
C2547 C2549 1.561 . S
C2547 C2550 1.526 . S
C2548 H2532 0.959 . S
C2548 H2533 0.959 . S
C2548 H2534 0.961 . S
C2548 C2547 1.502 . S
C2549 H2535 0.960 . S
C2549 H2536 0.961 . S
C2549 H2537 0.959 . S
C2549 C2547 1.561 . S
C2550 C2547 1.526 . S
C2550 C2551 1.396 . S
C2550 C2555 1.390 . S
C2551 C2545 1.465 . S
C2551 C2550 1.396 . S
C2551 C2552 1.399 . S
C2552 H2538 0.929 . S
C2552 C2551 1.399 . S
C2552 C2553 1.385 . S
C2553 H2539 0.931 . S
C2553 C2552 1.385 . S
C2553 C2554 1.389 . S
C2554 C2553 1.389 . S
C2554 C2555 1.387 . S
C2555 H2540 0.930 . S
C2555 C2550 1.390 . S
C2555 C2554 1.387 . S
H2556 C2568 0.930 . S
H2557 C2570 0.930 . S
H2558 C2571 0.930 . S
H2559 C2575 0.959 . S
H2560 C2575 0.959 . S
H2561 C2575 0.961 . S
H2562 C2576 0.960 . S
H2563 C2576 0.961 . S
H2564 C2576 0.959 . S
H2565 C2579 0.929 . S
H2566 C2580 0.931 . S
H2567 C2582 0.930 . S
C2568 H2556 0.930 . S
C2568 C2569 1.399 . S
C2568 C2573 1.399 . S
C2569 C2568 1.399 . S
C2569 C2570 1.376 . S
C2570 H2557 0.930 . S
C2570 C2569 1.376 . S
C2570 C2571 1.388 . S
C2571 H2558 0.930 . S
C2571 C2570 1.388 . S
C2571 C2572 1.390 . S
C2572 C2571 1.390 . S
C2572 C2573 1.394 . S
C2572 C2578 1.465 . S
C2573 C2568 1.399 . S
C2573 C2572 1.394 . S
C2573 C2574 1.516 . S
C2574 C2573 1.516 . S
C2574 C2575 1.502 . S
C2574 C2576 1.561 . S
C2574 C2577 1.526 . S
C2575 H2559 0.959 . S
C2575 H2560 0.959 . S
C2575 H2561 0.961 . S
C2575 C2574 1.502 . S
C2576 H2562 0.960 . S
C2576 H2563 0.961 . S
C2576 H2564 0.959 . S
C2576 C2574 1.561 . S
C2577 C2574 1.526 . S
C2577 C2578 1.396 . S
C2577 C2582 1.390 . S
C2578 C2572 1.465 . S
C2578 C2577 1.396 . S
C2578 C2579 1.399 . S
C2579 H2565 0.929 . S
C2579 C2578 1.399 . S
C2579 C2580 1.385 . S
C2580 H2566 0.931 . S
C2580 C2579 1.385 . S
C2580 C2581 1.389 . S
C2581 C2580 1.389 . S
C2581 C2582 1.387 . S
C2582 H2567 0.930 . S
C2582 C2577 1.390 . S
C2582 C2581 1.387 . S
H2583 C2595 0.930 . S
H2584 C2597 0.930 . S
H2585 C2598 0.930 . S
H2586 C2602 0.959 . S
H2587 C2602 0.959 . S
H2588 C2602 0.961 . S
H2589 C2603 0.960 . S
H2590 C2603 0.961 . S
H2591 C2603 0.959 . S
H2592 C2606 0.929 . S
H2593 C2607 0.931 . S
H2594 C2609 0.930 . S
C2595 H2583 0.930 . S
C2595 C2596 1.399 . S
C2595 C2600 1.399 . S
C2596 C2595 1.399 . S
C2596 C2597 1.376 . S
C2597 H2584 0.930 . S
C2597 C2596 1.376 . S
C2597 C2598 1.388 . S
C2598 H2585 0.930 . S
C2598 C2597 1.388 . S
C2598 C2599 1.390 . S
C2599 C2598 1.390 . S
C2599 C2600 1.394 . S
C2599 C2605 1.465 . S
C2600 C2595 1.399 . S
C2600 C2599 1.394 . S
C2600 C2601 1.516 . S
C2601 C2600 1.516 . S
C2601 C2602 1.502 . S
C2601 C2603 1.561 . S
C2601 C2604 1.526 . S
C2602 H2586 0.959 . S
C2602 H2587 0.959 . S
C2602 H2588 0.961 . S
C2602 C2601 1.502 . S
C2603 H2589 0.960 . S
C2603 H2590 0.961 . S
C2603 H2591 0.959 . S
C2603 C2601 1.561 . S
C2604 C2601 1.526 . S
C2604 C2605 1.396 . S
C2604 C2609 1.390 . S
C2605 C2599 1.465 . S
C2605 C2604 1.396 . S
C2605 C2606 1.399 . S
C2606 H2592 0.929 . S
C2606 C2605 1.399 . S
C2606 C2607 1.385 . S
C2607 H2593 0.931 . S
C2607 C2606 1.385 . S
C2607 C2608 1.389 . S
C2608 C2607 1.389 . S
C2608 C2609 1.387 . S
C2609 H2594 0.930 . S
C2609 C2604 1.390 . S
C2609 C2608 1.387 . S
H2610 C2622 0.930 . S
H2611 C2624 0.930 . S
H2612 C2625 0.930 . S
H2613 C2629 0.959 . S
H2614 C2629 0.959 . S
H2615 C2629 0.961 . S
H2616 C2630 0.960 . S
H2617 C2630 0.961 . S
H2618 C2630 0.959 . S
H2619 C2633 0.929 . S
H2620 C2634 0.931 . S
H2621 C2636 0.930 . S
C2622 H2610 0.930 . S
C2622 C2623 1.399 . S
C2622 C2627 1.399 . S
C2623 C2622 1.399 . S
C2623 C2624 1.376 . S
C2624 H2611 0.930 . S
C2624 C2623 1.376 . S
C2624 C2625 1.388 . S
C2625 H2612 0.930 . S
C2625 C2624 1.388 . S
C2625 C2626 1.390 . S
C2626 C2625 1.390 . S
C2626 C2627 1.394 . S
C2626 C2632 1.465 . S
C2627 C2622 1.399 . S
C2627 C2626 1.394 . S
C2627 C2628 1.516 . S
C2628 C2627 1.516 . S
C2628 C2629 1.502 . S
C2628 C2630 1.561 . S
C2628 C2631 1.526 . S
C2629 H2613 0.959 . S
C2629 H2614 0.959 . S
C2629 H2615 0.961 . S
C2629 C2628 1.502 . S
C2630 H2616 0.960 . S
C2630 H2617 0.961 . S
C2630 H2618 0.959 . S
C2630 C2628 1.561 . S
C2631 C2628 1.526 . S
C2631 C2632 1.396 . S
C2631 C2636 1.390 . S
C2632 C2626 1.465 . S
C2632 C2631 1.396 . S
C2632 C2633 1.399 . S
C2633 H2619 0.929 . S
C2633 C2632 1.399 . S
C2633 C2634 1.385 . S
C2634 H2620 0.931 . S
C2634 C2633 1.385 . S
C2634 C2635 1.389 . S
C2635 C2634 1.389 . S
C2635 C2636 1.387 . S
C2636 H2621 0.930 . S
C2636 C2631 1.390 . S
C2636 C2635 1.387 . S
H2637 C2649 0.930 . S
H2638 C2651 0.930 . S
H2639 C2652 0.930 . S
H2640 C2656 0.959 . S
H2641 C2656 0.959 . S
H2642 C2656 0.961 . S
H2643 C2657 0.960 . S
H2644 C2657 0.961 . S
H2645 C2657 0.959 . S
H2646 C2660 0.929 . S
H2647 C2661 0.931 . S
H2648 C2663 0.930 . S
C2649 H2637 0.930 . S
C2649 C2650 1.399 . S
C2649 C2654 1.399 . S
C2650 C2649 1.399 . S
C2650 C2651 1.376 . S
C2651 H2638 0.930 . S
C2651 C2650 1.376 . S
C2651 C2652 1.388 . S
C2652 H2639 0.930 . S
C2652 C2651 1.388 . S
C2652 C2653 1.390 . S
C2653 C2652 1.390 . S
C2653 C2654 1.394 . S
C2653 C2659 1.465 . S
C2654 C2649 1.399 . S
C2654 C2653 1.394 . S
C2654 C2655 1.516 . S
C2655 C2654 1.516 . S
C2655 C2656 1.502 . S
C2655 C2657 1.561 . S
C2655 C2658 1.526 . S
C2656 H2640 0.959 . S
C2656 H2641 0.959 . S
C2656 H2642 0.961 . S
C2656 C2655 1.502 . S
C2657 H2643 0.960 . S
C2657 H2644 0.961 . S
C2657 H2645 0.959 . S
C2657 C2655 1.561 . S
C2658 C2655 1.526 . S
C2658 C2659 1.396 . S
C2658 C2663 1.390 . S
C2659 C2653 1.465 . S
C2659 C2658 1.396 . S
C2659 C2660 1.399 . S
C2660 H2646 0.929 . S
C2660 C2659 1.399 . S
C2660 C2661 1.385 . S
C2661 H2647 0.931 . S
C2661 C2660 1.385 . S
C2661 C2662 1.389 . S
C2662 C2661 1.389 . S
C2662 C2663 1.387 . S
C2663 H2648 0.930 . S
C2663 C2658 1.390 . S
C2663 C2662 1.387 . S
H2664 C2676 0.930 . S
H2665 C2678 0.930 . S
H2666 C2679 0.930 . S
H2667 C2683 0.959 . S
H2668 C2683 0.959 . S
H2669 C2683 0.961 . S
H2670 C2684 0.960 . S
H2671 C2684 0.961 . S
H2672 C2684 0.959 . S
H2673 C2687 0.929 . S
H2674 C2688 0.931 . S
H2675 C2690 0.930 . S
C2676 H2664 0.930 . S
C2676 C2677 1.399 . S
C2676 C2681 1.399 . S
C2677 C2676 1.399 . S
C2677 C2678 1.376 . S
C2678 H2665 0.930 . S
C2678 C2677 1.376 . S
C2678 C2679 1.388 . S
C2679 H2666 0.930 . S
C2679 C2678 1.388 . S
C2679 C2680 1.390 . S
C2680 C2679 1.390 . S
C2680 C2681 1.394 . S
C2680 C2686 1.465 . S
C2681 C2676 1.399 . S
C2681 C2680 1.394 . S
C2681 C2682 1.516 . S
C2682 C2681 1.516 . S
C2682 C2683 1.502 . S
C2682 C2684 1.561 . S
C2682 C2685 1.526 . S
C2683 H2667 0.959 . S
C2683 H2668 0.959 . S
C2683 H2669 0.961 . S
C2683 C2682 1.502 . S
C2684 H2670 0.960 . S
C2684 H2671 0.961 . S
C2684 H2672 0.959 . S
C2684 C2682 1.561 . S
C2685 C2682 1.526 . S
C2685 C2686 1.396 . S
C2685 C2690 1.390 . S
C2686 C2680 1.465 . S
C2686 C2685 1.396 . S
C2686 C2687 1.399 . S
C2687 H2673 0.929 . S
C2687 C2686 1.399 . S
C2687 C2688 1.385 . S
C2688 H2674 0.931 . S
C2688 C2687 1.385 . S
C2688 C2689 1.389 . S
C2689 C2688 1.389 . S
C2689 C2690 1.387 . S
C2690 H2675 0.930 . S
C2690 C2685 1.390 . S
C2690 C2689 1.387 . S
H2691 C2703 0.930 . S
H2692 C2705 0.930 . S
H2693 C2706 0.930 . S
H2694 C2710 0.959 . S
H2695 C2710 0.959 . S
H2696 C2710 0.961 . S
H2697 C2711 0.960 . S
H2698 C2711 0.961 . S
H2699 C2711 0.959 . S
H2700 C2714 0.929 . S
H2701 C2715 0.931 . S
H2702 C2717 0.930 . S
C2703 H2691 0.930 . S
C2703 C2704 1.399 . S
C2703 C2708 1.399 . S
C2704 C2703 1.399 . S
C2704 C2705 1.376 . S
C2705 H2692 0.930 . S
C2705 C2704 1.376 . S
C2705 C2706 1.388 . S
C2706 H2693 0.930 . S
C2706 C2705 1.388 . S
C2706 C2707 1.390 . S
C2707 C2706 1.390 . S
C2707 C2708 1.394 . S
C2707 C2713 1.465 . S
C2708 C2703 1.399 . S
C2708 C2707 1.394 . S
C2708 C2709 1.516 . S
C2709 C2708 1.516 . S
C2709 C2710 1.502 . S
C2709 C2711 1.561 . S
C2709 C2712 1.526 . S
C2710 H2694 0.959 . S
C2710 H2695 0.959 . S
C2710 H2696 0.961 . S
C2710 C2709 1.502 . S
C2711 H2697 0.960 . S
C2711 H2698 0.961 . S
C2711 H2699 0.959 . S
C2711 C2709 1.561 . S
C2712 C2709 1.526 . S
C2712 C2713 1.396 . S
C2712 C2717 1.390 . S
C2713 C2707 1.465 . S
C2713 C2712 1.396 . S
C2713 C2714 1.399 . S
C2714 H2700 0.929 . S
C2714 C2713 1.399 . S
C2714 C2715 1.385 . S
C2715 H2701 0.931 . S
C2715 C2714 1.385 . S
C2715 C2716 1.389 . S
C2716 C2715 1.389 . S
C2716 C2717 1.387 . S
C2717 H2702 0.930 . S
C2717 C2712 1.390 . S
C2717 C2716 1.387 . S
H2718 C2730 0.930 . S
H2719 C2732 0.930 . S
H2720 C2733 0.930 . S
H2721 C2737 0.959 . S
H2722 C2737 0.959 . S
H2723 C2737 0.961 . S
H2724 C2738 0.960 . S
H2725 C2738 0.961 . S
H2726 C2738 0.959 . S
H2727 C2741 0.929 . S
H2728 C2742 0.931 . S
H2729 C2744 0.930 . S
C2730 H2718 0.930 . S
C2730 C2731 1.399 . S
C2730 C2735 1.399 . S
C2731 C2730 1.399 . S
C2731 C2732 1.376 . S
C2732 H2719 0.930 . S
C2732 C2731 1.376 . S
C2732 C2733 1.388 . S
C2733 H2720 0.930 . S
C2733 C2732 1.388 . S
C2733 C2734 1.390 . S
C2734 C2733 1.390 . S
C2734 C2735 1.394 . S
C2734 C2740 1.465 . S
C2735 C2730 1.399 . S
C2735 C2734 1.394 . S
C2735 C2736 1.516 . S
C2736 C2735 1.516 . S
C2736 C2737 1.502 . S
C2736 C2738 1.561 . S
C2736 C2739 1.526 . S
C2737 H2721 0.959 . S
C2737 H2722 0.959 . S
C2737 H2723 0.961 . S
C2737 C2736 1.502 . S
C2738 H2724 0.960 . S
C2738 H2725 0.961 . S
C2738 H2726 0.959 . S
C2738 C2736 1.561 . S
C2739 C2736 1.526 . S
C2739 C2740 1.396 . S
C2739 C2744 1.390 . S
C2740 C2734 1.465 . S
C2740 C2739 1.396 . S
C2740 C2741 1.399 . S
C2741 H2727 0.929 . S
C2741 C2740 1.399 . S
C2741 C2742 1.385 . S
C2742 H2728 0.931 . S
C2742 C2741 1.385 . S
C2742 C2743 1.389 . S
C2743 C2742 1.389 . S
C2743 C2744 1.387 . S
C2744 H2729 0.930 . S
C2744 C2739 1.390 . S
C2744 C2743 1.387 . S
H2745 C2757 0.930 . S
H2746 C2759 0.930 . S
H2747 C2760 0.930 . S
H2748 C2764 0.959 . S
H2749 C2764 0.959 . S
H2750 C2764 0.961 . S
H2751 C2765 0.960 . S
H2752 C2765 0.961 . S
H2753 C2765 0.959 . S
H2754 C2768 0.929 . S
H2755 C2769 0.931 . S
H2756 C2771 0.930 . S
C2757 H2745 0.930 . S
C2757 C2758 1.399 . S
C2757 C2762 1.399 . S
C2758 C2757 1.399 . S
C2758 C2759 1.376 . S
C2759 H2746 0.930 . S
C2759 C2758 1.376 . S
C2759 C2760 1.388 . S
C2760 H2747 0.930 . S
C2760 C2759 1.388 . S
C2760 C2761 1.390 . S
C2761 C2760 1.390 . S
C2761 C2762 1.394 . S
C2761 C2767 1.465 . S
C2762 C2757 1.399 . S
C2762 C2761 1.394 . S
C2762 C2763 1.516 . S
C2763 C2762 1.516 . S
C2763 C2764 1.502 . S
C2763 C2765 1.561 . S
C2763 C2766 1.526 . S
C2764 H2748 0.959 . S
C2764 H2749 0.959 . S
C2764 H2750 0.961 . S
C2764 C2763 1.502 . S
C2765 H2751 0.960 . S
C2765 H2752 0.961 . S
C2765 H2753 0.959 . S
C2765 C2763 1.561 . S
C2766 C2763 1.526 . S
C2766 C2767 1.396 . S
C2766 C2771 1.390 . S
C2767 C2761 1.465 . S
C2767 C2766 1.396 . S
C2767 C2768 1.399 . S
C2768 H2754 0.929 . S
C2768 C2767 1.399 . S
C2768 C2769 1.385 . S
C2769 H2755 0.931 . S
C2769 C2768 1.385 . S
C2769 C2770 1.389 . S
C2770 C2769 1.389 . S
C2770 C2771 1.387 . S
C2771 H2756 0.930 . S
C2771 C2766 1.390 . S
C2771 C2770 1.387 . S
H2772 C2784 0.930 . S
H2773 C2786 0.930 . S
H2774 C2787 0.930 . S
H2775 C2791 0.959 . S
H2776 C2791 0.959 . S
H2777 C2791 0.961 . S
H2778 C2792 0.960 . S
H2779 C2792 0.961 . S
H2780 C2792 0.959 . S
H2781 C2795 0.929 . S
H2782 C2796 0.931 . S
H2783 C2798 0.930 . S
C2784 H2772 0.930 . S
C2784 C2785 1.399 . S
C2784 C2789 1.399 . S
C2785 C2784 1.399 . S
C2785 C2786 1.376 . S
C2786 H2773 0.930 . S
C2786 C2785 1.376 . S
C2786 C2787 1.388 . S
C2787 H2774 0.930 . S
C2787 C2786 1.388 . S
C2787 C2788 1.390 . S
C2788 C2787 1.390 . S
C2788 C2789 1.394 . S
C2788 C2794 1.465 . S
C2789 C2784 1.399 . S
C2789 C2788 1.394 . S
C2789 C2790 1.516 . S
C2790 C2789 1.516 . S
C2790 C2791 1.502 . S
C2790 C2792 1.561 . S
C2790 C2793 1.526 . S
C2791 H2775 0.959 . S
C2791 H2776 0.959 . S
C2791 H2777 0.961 . S
C2791 C2790 1.502 . S
C2792 H2778 0.960 . S
C2792 H2779 0.961 . S
C2792 H2780 0.959 . S
C2792 C2790 1.561 . S
C2793 C2790 1.526 . S
C2793 C2794 1.396 . S
C2793 C2798 1.390 . S
C2794 C2788 1.465 . S
C2794 C2793 1.396 . S
C2794 C2795 1.399 . S
C2795 H2781 0.929 . S
C2795 C2794 1.399 . S
C2795 C2796 1.385 . S
C2796 H2782 0.931 . S
C2796 C2795 1.385 . S
C2796 C2797 1.389 . S
C2797 C2796 1.389 . S
C2797 C2798 1.387 . S
C2798 H2783 0.930 . S
C2798 C2793 1.390 . S
C2798 C2797 1.387 . S
H2799 C2811 0.930 . S
H2800 C2813 0.930 . S
H2801 C2814 0.930 . S
H2802 C2818 0.959 . S
H2803 C2818 0.959 . S
H2804 C2818 0.961 . S
H2805 C2819 0.960 . S
H2806 C2819 0.961 . S
H2807 C2819 0.959 . S
H2808 C2822 0.929 . S
H2809 C2823 0.931 . S
H2810 C2825 0.930 . S
C2811 H2799 0.930 . S
C2811 C2812 1.399 . S
C2811 C2816 1.399 . S
C2812 C2811 1.399 . S
C2812 C2813 1.376 . S
C2813 H2800 0.930 . S
C2813 C2812 1.376 . S
C2813 C2814 1.388 . S
C2814 H2801 0.930 . S
C2814 C2813 1.388 . S
C2814 C2815 1.390 . S
C2815 C2814 1.390 . S
C2815 C2816 1.394 . S
C2815 C2821 1.465 . S
C2816 C2811 1.399 . S
C2816 C2815 1.394 . S
C2816 C2817 1.516 . S
C2817 C2816 1.516 . S
C2817 C2818 1.502 . S
C2817 C2819 1.561 . S
C2817 C2820 1.526 . S
C2818 H2802 0.959 . S
C2818 H2803 0.959 . S
C2818 H2804 0.961 . S
C2818 C2817 1.502 . S
C2819 H2805 0.960 . S
C2819 H2806 0.961 . S
C2819 H2807 0.959 . S
C2819 C2817 1.561 . S
C2820 C2817 1.526 . S
C2820 C2821 1.396 . S
C2820 C2825 1.390 . S
C2821 C2815 1.465 . S
C2821 C2820 1.396 . S
C2821 C2822 1.399 . S
C2822 H2808 0.929 . S
C2822 C2821 1.399 . S
C2822 C2823 1.385 . S
C2823 H2809 0.931 . S
C2823 C2822 1.385 . S
C2823 C2824 1.389 . S
C2824 C2823 1.389 . S
C2824 C2825 1.387 . S
C2825 H2810 0.930 . S
C2825 C2820 1.390 . S
C2825 C2824 1.387 . S
H2826 C2838 0.930 . S
H2827 C2840 0.930 . S
H2828 C2841 0.930 . S
H2829 C2845 0.959 . S
H2830 C2845 0.959 . S
H2831 C2845 0.961 . S
H2832 C2846 0.960 . S
H2833 C2846 0.961 . S
H2834 C2846 0.959 . S
H2835 C2849 0.929 . S
H2836 C2850 0.931 . S
H2837 C2852 0.930 . S
C2838 H2826 0.930 . S
C2838 C2839 1.399 . S
C2838 C2843 1.399 . S
C2839 C2838 1.399 . S
C2839 C2840 1.376 . S
C2840 H2827 0.930 . S
C2840 C2839 1.376 . S
C2840 C2841 1.388 . S
C2841 H2828 0.930 . S
C2841 C2840 1.388 . S
C2841 C2842 1.390 . S
C2842 C2841 1.390 . S
C2842 C2843 1.394 . S
C2842 C2848 1.465 . S
C2843 C2838 1.399 . S
C2843 C2842 1.394 . S
C2843 C2844 1.516 . S
C2844 C2843 1.516 . S
C2844 C2845 1.502 . S
C2844 C2846 1.561 . S
C2844 C2847 1.526 . S
C2845 H2829 0.959 . S
C2845 H2830 0.959 . S
C2845 H2831 0.961 . S
C2845 C2844 1.502 . S
C2846 H2832 0.960 . S
C2846 H2833 0.961 . S
C2846 H2834 0.959 . S
C2846 C2844 1.561 . S
C2847 C2844 1.526 . S
C2847 C2848 1.396 . S
C2847 C2852 1.390 . S
C2848 C2842 1.465 . S
C2848 C2847 1.396 . S
C2848 C2849 1.399 . S
C2849 H2835 0.929 . S
C2849 C2848 1.399 . S
C2849 C2850 1.385 . S
C2850 H2836 0.931 . S
C2850 C2849 1.385 . S
C2850 C2851 1.389 . S
C2851 C2850 1.389 . S
C2851 C2852 1.387 . S
C2852 H2837 0.930 . S
C2852 C2847 1.390 . S
C2852 C2851 1.387 . S
H2853 C2865 0.930 . S
H2854 C2867 0.930 . S
H2855 C2868 0.930 . S
H2856 C2872 0.959 . S
H2857 C2872 0.959 . S
H2858 C2872 0.961 . S
H2859 C2873 0.960 . S
H2860 C2873 0.961 . S
H2861 C2873 0.959 . S
H2862 C2876 0.929 . S
H2863 C2877 0.931 . S
H2864 C2879 0.930 . S
C2865 H2853 0.930 . S
C2865 C2866 1.399 . S
C2865 C2870 1.399 . S
C2866 C2865 1.399 . S
C2866 C2867 1.376 . S
C2867 H2854 0.930 . S
C2867 C2866 1.376 . S
C2867 C2868 1.388 . S
C2868 H2855 0.930 . S
C2868 C2867 1.388 . S
C2868 C2869 1.390 . S
C2869 C2868 1.390 . S
C2869 C2870 1.394 . S
C2869 C2875 1.465 . S
C2870 C2865 1.399 . S
C2870 C2869 1.394 . S
C2870 C2871 1.516 . S
C2871 C2870 1.516 . S
C2871 C2872 1.502 . S
C2871 C2873 1.561 . S
C2871 C2874 1.526 . S
C2872 H2856 0.959 . S
C2872 H2857 0.959 . S
C2872 H2858 0.961 . S
C2872 C2871 1.502 . S
C2873 H2859 0.960 . S
C2873 H2860 0.961 . S
C2873 H2861 0.959 . S
C2873 C2871 1.561 . S
C2874 C2871 1.526 . S
C2874 C2875 1.396 . S
C2874 C2879 1.390 . S
C2875 C2869 1.465 . S
C2875 C2874 1.396 . S
C2875 C2876 1.399 . S
C2876 H2862 0.929 . S
C2876 C2875 1.399 . S
C2876 C2877 1.385 . S
C2877 H2863 0.931 . S
C2877 C2876 1.385 . S
C2877 C2878 1.389 . S
C2878 C2877 1.389 . S
C2878 C2879 1.387 . S
C2879 H2864 0.930 . S
C2879 C2874 1.390 . S
C2879 C2878 1.387 . S
C1165 C1048 1.521 . S
C1177 C4 1.526 . S
C1192 C40 1.526 . S
C1204 C1084 1.521 . S
C1219 C1120 1.499 . S
C1231 C76 1.502 . S
C1246 C1012 1.536 . S
C1258 C112 1.533 . S
C1273 C148 1.514 . S
C1285 C976 1.520 . S
C1300 C868 1.535 . S
C1312 C184 1.532 . S
C1327 C220 1.536 . S
C1339 C904 1.536 . S
C1354 C940 1.530 . S
C1366 C256 1.525 . S
C1381 C292 1.499 . S
C1393 C760 1.502 . S
C1408 C328 1.500 . S
C1420 C796 1.504 . S
C1435 C832 1.507 . S
C1447 C364 1.513 . S
C1462 C400 1.531 . S
C1474 C724 1.527 . S
C1489 C688 1.503 . S
C1501 C436 1.508 . S
C1516 C580 1.515 . S
C1528 C472 1.521 . S
C1543 C508 1.535 . S
C1555 C616 1.532 . S
C1570 C544 1.506 . S
C1582 C652 1.502 . S
C1597 C14 1.338 . S
C1609 C374 1.346 . S
C1624 C410 1.335 . S
C1636 C50 1.321 . S
C1651 C302 1.344 . S
C1663 C86 1.350 . S
C1678 C338 1.335 . S
C1690 C122 1.321 . S
C1705 C158 1.267 . S
C1717 C518 1.256 . S
C1732 C554 1.284 . S
C1744 C194 1.270 . S
C1759 C446 1.342 . S
C1771 C230 1.349 . S
C1786 C482 1.333 . S
C1798 C266 1.318 . S
C1813 C590 1.322 . S
C1825 C950 1.336 . S
C1840 C986 1.336 . S
C1852 C626 1.322 . S
C1867 C878 1.265 . S
C1879 C662 1.255 . S
C1894 C698 1.339 . S
C1906 C914 1.326 . S
C1921 C734 1.259 . S
C1933 C1094 1.251 . S
C1948 C1130 1.257 . S
C1960 C770 1.271 . S
C1975 C1022 1.334 . S
C1987 C806 1.344 . S
C2002 C842 1.266 . S
C2014 C1058 1.282 . S
C2029 C3 1.415 . S
C2041 C147 1.432 . S
C2056 C39 1.422 . S
C2068 C183 1.418 . S
C2083 C219 1.415 . S
C2095 C75 1.431 . S
C2110 C111 1.424 . S
C2122 C255 1.417 . S
C2137 C291 1.423 . S
C2149 C435 1.415 . S
C2164 C471 1.440 . S
C2176 C327 1.430 . S
C2191 C507 1.430 . S
C2203 C363 1.417 . S
C2218 C399 1.440 . S
C2230 C543 1.433 . S
C2245 C579 1.416 . S
C2257 C723 1.425 . S
C2272 C759 1.429 . S
C2284 C615 1.440 . S
C2299 C651 1.440 . S
C2311 C795 1.426 . S
C2326 C831 1.433 . S
C2338 C687 1.416 . S
C2353 C1011 1.434 . S
C2365 C867 1.421 . S
C2380 C903 1.440 . S
C2392 C1047 1.434 . S
C2407 C939 1.428 . S
C2419 C1083 1.439 . S
C2434 C975 1.425 . S
C2446 C1119 1.438 . S
C2461 C2 1.353 . S
C2473 C182 1.337 . S
C2488 C38 1.362 . S
C2500 C218 1.344 . S
C2515 C254 1.352 . S
C2527 C74 1.336 . S
C2542 C146 1.363 . S
C2554 C110 1.377 . S
C2569 C470 1.332 . S
C2581 C290 1.351 . S
C2596 C506 1.378 . S
C2608 C326 1.351 . S
C2623 C542 1.332 . S
C2635 C362 1.358 . S
C2650 C398 1.332 . S
C2662 C434 1.352 . S
C2677 C578 1.366 . S
C2689 C758 1.378 . S
C2704 C794 1.343 . S
C2716 C614 1.333 . S
C2731 C830 1.351 . S
C2743 C650 1.335 . S
C2758 C686 1.334 . S
C2770 C722 1.334 . S
C2785 C1046 1.334 . S
C2797 C866 1.364 . S
C2812 C902 1.365 . S
C2824 C1082 1.336 . S
C2839 C938 1.375 . S
C2851 C1118 1.345 . S
C2866 C1010 1.364 . S
C2878 C974 1.335 . S
