# Generated by pormake.
# Topology smn, (6)-cn, num edge types: 1
# Building blocks:
#     Node 0, Type 0, BuildingBlock: IZENUY_clean_sbu_0, # of connection points: 6
#     Node 1, Type 0, BuildingBlock: IZENUY_clean_sbu_0, # of connection points: 6
#     Node 2, Type 0, BuildingBlock: IZENUY_clean_sbu_0, # of connection points: 6
#     Node 3, Type 0, BuildingBlock: IZENUY_clean_sbu_0, # of connection points: 6
#     Node 4, Type 0, BuildingBlock: IZENUY_clean_sbu_0, # of connection points: 6
#     Node 5, Type 0, BuildingBlock: IZENUY_clean_sbu_0, # of connection points: 6
#     Node 6, Type 0, BuildingBlock: IZENUY_clean_sbu_0, # of connection points: 6
#     Node 7, Type 0, BuildingBlock: IZENUY_clean_sbu_0, # of connection points: 6
#     Node 8, Type 0, BuildingBlock: IZENUY_clean_sbu_0, # of connection points: 6
#     Node 9, Type 0, BuildingBlock: IZENUY_clean_sbu_0, # of connection points: 6
#     Node 10, Type 0, BuildingBlock: IZENUY_clean_sbu_0, # of connection points: 6
#     Node 11, Type 0, BuildingBlock: IZENUY_clean_sbu_0, # of connection points: 6
#     Node 12, Type 0, BuildingBlock: IZENUY_clean_sbu_0, # of connection points: 6
#     Node 13, Type 0, BuildingBlock: IZENUY_clean_sbu_0, # of connection points: 6
#     Node 14, Type 0, BuildingBlock: IZENUY_clean_sbu_0, # of connection points: 6
#     Node 15, Type 0, BuildingBlock: IZENUY_clean_sbu_0, # of connection points: 6
#     Node 16, Type 0, BuildingBlock: IZENUY_clean_sbu_0, # of connection points: 6
#     Node 17, Type 0, BuildingBlock: IZENUY_clean_sbu_0, # of connection points: 6
#     Edge 18, Type (0, 0), None
#     Edge 19, Type (0, 0), None
#     Edge 20, Type (0, 0), None
#     Edge 21, Type (0, 0), None
#     Edge 22, Type (0, 0), None
#     Edge 23, Type (0, 0), None
#     Edge 24, Type (0, 0), None
#     Edge 25, Type (0, 0), None
#     Edge 26, Type (0, 0), None
#     Edge 27, Type (0, 0), None
#     Edge 28, Type (0, 0), None
#     Edge 29, Type (0, 0), None
#     Edge 30, Type (0, 0), None
#     Edge 31, Type (0, 0), None
#     Edge 32, Type (0, 0), None
#     Edge 33, Type (0, 0), None
#     Edge 34, Type (0, 0), None
#     Edge 35, Type (0, 0), None
#     Edge 36, Type (0, 0), None
#     Edge 37, Type (0, 0), None
#     Edge 38, Type (0, 0), None
#     Edge 39, Type (0, 0), None
#     Edge 40, Type (0, 0), None
#     Edge 41, Type (0, 0), None
#     Edge 42, Type (0, 0), None
#     Edge 43, Type (0, 0), None
#     Edge 44, Type (0, 0), None
#     Edge 45, Type (0, 0), None
#     Edge 46, Type (0, 0), None
#     Edge 47, Type (0, 0), None
#     Edge 48, Type (0, 0), None
#     Edge 49, Type (0, 0), None
#     Edge 50, Type (0, 0), None
#     Edge 51, Type (0, 0), None
#     Edge 52, Type (0, 0), None
#     Edge 53, Type (0, 0), None
#     Edge 54, Type (0, 0), None
#     Edge 55, Type (0, 0), None
#     Edge 56, Type (0, 0), None
#     Edge 57, Type (0, 0), None
#     Edge 58, Type (0, 0), None
#     Edge 59, Type (0, 0), None
#     Edge 60, Type (0, 0), None
#     Edge 61, Type (0, 0), None
#     Edge 62, Type (0, 0), None
#     Edge 63, Type (0, 0), None
#     Edge 64, Type (0, 0), None
#     Edge 65, Type (0, 0), None
#     Edge 66, Type (0, 0), None
#     Edge 67, Type (0, 0), None
#     Edge 68, Type (0, 0), None
#     Edge 69, Type (0, 0), None
#     Edge 70, Type (0, 0), None
#     Edge 71, Type (0, 0), None
# Relax obj value: 0.165
# Max RMSD: 0.235
# Mean RMSD: 0.233
data_MOF--net-smn--node1-IZENUY_clean_sbu_0--edge1-none
_symmetry_space_group_name_H-M    P1
_symmetry_Int_Tables_number       1
_symmetry_cell_setting            triclinic
loop_
_symmetry_equiv_pos_as_xyz
'x, y, z'
_cell_length_a     27.566224
_cell_length_b     27.55706
_cell_length_c     9.2354708
_cell_angle_alpha  90.014211
_cell_angle_beta   89.994868
_cell_angle_gamma 120.03716
loop_
_atom_site_label
_atom_site_type_symbol
_atom_site_fract_x
_atom_site_fract_y
_atom_site_fract_z
_atom_type_partial_charge
Fe0 Fe 1.06591 0.27261 0.61729 0.0
Fe1 Fe 0.10506 0.19896 0.75024 0.0
O2 O 0.10513 0.26277 0.75017 0.0
Fe3 Fe 0.14437 0.31191 0.88304 0.0
O4 O 0.09284 0.33193 0.92263 0.0
O5 O 1.02855 0.2941 0.75188 0.0
O6 O 1.00425 0.20077 0.63409 0.0
C7 C 1.00616 0.15693 0.61107 0.0
C8 C 0.1659 0.37761 0.62251 0.0
O9 O 1.05342 0.16242 0.61654 0.0
C10 C 0.20399 0.25589 0.88934 0.0
O11 O 0.10625 0.25515 0.47871 0.0
O12 O 0.15623 0.22753 0.61376 0.0
O13 O 0.18178 0.37076 0.74835 0.0
O14 O 0.11748 0.34417 0.57761 0.0
C15 C 1.05922 0.20541 0.99888 0.0
O16 O 0.15668 0.21412 0.88397 0.0
O17 O 0.20599 0.30171 0.86644 0.0
C18 C 0.15093 0.25111 0.50148 0.0
O19 O 1.05391 0.17646 0.8867 0.0
O20 O 0.10399 0.25413 0.02167 0.0
C21 C 1.04441 0.31686 0.87772 0.0
Fe22 Fe 0.86503 0.87103 0.88291 0.0
Fe23 Fe 0.97785 0.94471 0.74983 0.0
O24 O 0.91409 0.8809 0.74999 0.0
Fe25 Fe 0.90417 0.83176 0.61715 0.0
O26 O 0.83258 0.81164 0.57786 0.0
O27 O 0.80621 0.84964 0.7483 0.0
O28 O 0.87527 0.94288 0.86639 0.0
C29 C 0.92107 0.98672 0.88931 0.0
C30 C 0.86008 0.76611 0.87766 0.0
O31 O 0.96282 0.98122 0.88375 0.0
C32 C 1.01983 0.88786 0.61051 0.0
O33 O 0.92285 0.88842 0.02138 0.0
O34 O 1.00047 0.91613 0.88617 0.0
O35 O 0.88285 0.77298 0.75188 0.0
O36 O 0.84495 0.79944 0.92235 0.0
C37 C 0.92543 0.93822 0.5014 0.0
O38 O 1.01426 0.92959 0.61585 0.0
O39 O 0.97602 0.84204 0.63351 0.0
C40 C 0.97159 0.8925 0.99846 0.0
O41 O 0.94912 0.96718 0.61357 0.0
O42 O 0.92148 0.88952 0.47853 0.0
C43 C 0.7993 0.82685 0.6225 0.0
Fe44 Fe 0.30595 1.03264 0.88274 0.0
Fe45 Fe 0.23237 0.07188 0.74997 0.0
O46 O 0.29611 0.07188 0.74993 0.0
Fe47 Fe 0.34522 0.11114 0.6171 0.0
O48 O 0.36524 1.05961 0.57756 0.0
O49 O 0.32731 0.99521 0.74802 0.0
O50 O 0.23409 0.97099 0.86616 0.0
C51 C 0.1903 0.97298 0.8892 0.0
C52 C 0.41091 0.13264 0.87751 0.0
O53 O 0.19586 1.02028 0.88376 0.0
C54 C 0.28925 0.17079 0.61078 0.0
O55 O 0.28861 0.07305 0.02139 0.0
O56 O 0.26104 0.12309 0.88636 0.0
O57 O 0.40403 0.14857 0.75179 0.0
O58 O 0.37753 0.08416 0.92222 0.0
C59 C 0.23868 1.02597 0.50133 0.0
O60 O 0.24748 0.12348 0.61619 0.0
O61 O 0.33503 0.17278 0.63372 0.0
C62 C 0.28462 0.11777 0.99862 0.0
O63 O 0.20978 1.02068 0.61357 0.0
O64 O 0.28741 0.07072 0.47851 0.0
C65 C 0.3501 1.01113 0.62226 0.0
Fe66 Fe 1.06581 0.83177 0.11705 0.0
Fe67 Fe 0.14422 0.87105 0.38287 0.0
O68 O 0.10504 0.88092 0.24993 0.0
Fe69 Fe 0.10512 0.94474 0.24981 0.0
O70 O 0.15632 0.96724 0.11348 0.0
O71 O 0.10626 0.88956 0.97845 0.0
O72 O 0.11731 0.81171 0.07767 0.0
C73 C 0.16576 0.82684 0.12247 0.0
C74 C 1.00626 0.88783 0.11053 0.0
O75 O 0.18163 0.84961 0.2483 0.0
C76 C 1.05917 0.89253 0.49843 0.0
O77 O 1.02833 0.77295 0.25175 0.0
O78 O 0.09265 0.79948 0.4224 0.0
O79 O 1.05355 0.92962 0.11594 0.0
O80 O 1.0042 0.842 0.1334 0.0
C81 C 0.20395 0.98671 0.38918 0.0
O82 O 0.10383 0.88848 0.52135 0.0
O83 O 1.05392 0.91616 0.38619 0.0
C84 C 1.04421 0.76609 0.37758 0.0
O85 O 0.2059 0.94288 0.36631 0.0
O86 O 0.15672 0.98128 0.38362 0.0
C87 C 0.15102 0.93827 0.00134 0.0
Fe88 Fe 0.34514 0.2727 0.11715 0.0
Fe89 Fe 0.23226 0.19894 0.25007 0.0
O90 O 0.29602 0.26278 0.25003 0.0
Fe91 Fe 0.3059 0.3119 0.3829 0.0
O92 O 0.37748 0.33201 0.42235 0.0
O93 O 0.40394 0.29412 0.25183 0.0
O94 O 0.33498 0.20088 0.13362 0.0
C95 C 0.28918 0.15704 0.11079 0.0
C96 C 0.35003 0.3776 0.12242 0.0
O97 O 0.24737 0.16244 0.11631 0.0
C98 C 0.19025 0.25578 0.38931 0.0
O99 O 0.28736 0.25527 0.97857 0.0
O100 O 0.2097 0.22753 0.11363 0.0
O101 O 0.32725 0.37071 0.24821 0.0
O102 O 0.36517 0.34428 0.07771 0.0
C103 C 0.2846 0.20543 0.49862 0.0
O104 O 0.19574 0.21401 0.38386 0.0
O105 O 0.23405 0.30162 0.36643 0.0
C106 C 0.23863 0.25121 0.00145 0.0
O107 O 0.26092 0.17645 0.38648 0.0
O108 O 0.28854 0.25413 0.52149 0.0
C109 C 0.4108 0.31686 0.37767 0.0
Fe110 Fe 0.97784 0.07181 0.25023 0.0
Fe111 Fe 0.86493 1.0326 0.38291 0.0
O112 O 0.91409 0.07184 0.25012 0.0
Fe113 Fe 0.9043 0.11111 0.11724 0.0
O114 O 0.97616 0.17275 0.13394 0.0
O115 O 1.01445 0.12345 0.1166 0.0
O116 O 1.00039 0.12298 0.38671 0.0
C117 C 0.97144 0.11769 0.49885 0.0
C118 C 0.92566 1.02599 0.00149 0.0
O119 O 0.9227 0.07296 0.52161 0.0
C120 C 0.79928 1.01114 0.12236 0.0
O121 O 0.96264 1.02017 0.38389 0.0
O122 O 0.87503 0.97092 0.36639 0.0
O123 O 0.9217 0.07072 0.97867 0.0
O124 O 0.94922 1.02065 0.11374 0.0
C125 C 0.86007 0.13264 0.37761 0.0
O126 O 0.80612 0.99522 0.24815 0.0
O127 O 0.83273 1.05959 0.07755 0.0
C128 C 0.92082 0.97289 0.38927 0.0
O129 O 0.84496 0.08417 0.42242 0.0
O130 O 0.88289 0.14853 0.25186 0.0
C131 C 1.01994 0.17073 0.11105 0.0
Fe132 Fe 0.81096 0.64532 0.2164 0.0
Fe133 Fe 0.77163 0.53236 0.08369 0.0
O134 O 0.77171 0.59616 0.08358 0.0
Fe135 Fe 0.73251 0.606 0.95066 0.0
O136 O 0.78406 0.67756 0.91104 0.0
O137 O 0.84841 0.70412 0.08166 0.0
O138 O 0.87255 0.63508 0.19996 0.0
C139 C 0.87051 0.58925 0.22296 0.0
C140 C 0.71101 0.65027 0.21098 0.0
O141 O 0.82321 0.54749 0.21751 0.0
C142 C 0.67276 0.49031 0.94449 0.0
O143 O 0.77054 0.58756 0.35506 0.0
O144 O 0.72045 0.50987 0.22007 0.0
O145 O 0.69512 0.62745 0.08522 0.0
O146 O 0.75946 0.66538 0.25581 0.0
C147 C 0.81759 0.58456 0.83503 0.0
O148 O 0.72003 0.49584 0.9499 0.0
O149 O 0.67084 0.53416 0.9674 0.0
C150 C 0.7258 0.53882 0.33231 0.0
O151 O 0.82283 0.56093 0.94728 0.0
O152 O 0.77288 0.58855 0.81214 0.0
C153 C 0.83252 0.71093 0.9558 0.0
Fe154 Fe 0.53173 0.20439 0.21612 0.0
Fe155 Fe 0.64457 0.2781 0.0832 0.0
O156 O 0.58082 0.21428 0.08327 0.0
Fe157 Fe 0.57094 0.16516 0.95043 0.0
O158 O 0.49935 0.14501 0.91108 0.0
O159 O 0.47294 0.18303 0.08143 0.0
O160 O 0.54197 0.27625 0.19967 0.0
C161 C 0.58776 0.32009 0.22268 0.0
C162 C 0.52679 0.09947 0.21088 0.0
O163 O 0.62952 0.31459 0.21715 0.0
C164 C 0.6866 0.22129 0.94383 0.0
O165 O 0.58953 0.22176 0.35466 0.0
O166 O 0.66717 0.24949 0.21951 0.0
O167 O 0.54961 0.10636 0.08516 0.0
O168 O 0.51163 0.13279 0.2555 0.0
C169 C 0.59217 0.27162 0.83475 0.0
O170 O 0.68102 0.26302 0.9492 0.0
O171 O 0.6428 0.17546 0.96687 0.0
C172 C 0.63827 0.22583 0.33176 0.0
O173 O 0.61586 0.30059 0.94692 0.0
O174 O 0.58825 0.22293 0.81185 0.0
C175 C 0.46608 0.16024 0.95565 0.0
Fe176 Fe 0.97255 0.36597 0.21615 0.0
Fe177 Fe 0.89896 0.40515 0.08308 0.0
O178 O 0.96273 0.4052 0.08322 0.0
Fe179 Fe 1.01186 0.44444 0.95039 0.0
O180 O 1.03185 0.39289 0.91082 0.0
O181 O 0.99405 0.32859 0.08161 0.0
O182 O 0.90073 0.30429 0.19931 0.0
C183 C 0.8569 0.30623 0.22224 0.0
C184 C 1.07752 0.46597 0.21096 0.0
O185 O 0.86241 0.35351 0.21672 0.0
C186 C 0.95589 0.5041 0.94405 0.0
O187 O 0.95508 0.40633 0.35468 0.0
O188 O 0.92751 0.45633 0.21957 0.0
O189 O 1.07068 0.48185 0.08511 0.0
O190 O 1.04408 0.41755 0.2559 0.0
C191 C 0.90538 0.35931 0.83444 0.0
O192 O 0.91413 0.45678 0.94938 0.0
O193 O 1.00169 0.5061 0.96698 0.0
C194 C 0.95105 0.45102 0.33191 0.0
O195 O 0.87646 0.35397 0.94664 0.0
O196 O 0.9541 0.40407 0.81171 0.0
C197 C 1.01681 0.34446 0.95579 0.0
Fe198 Fe 0.73248 0.16509 0.45028 0.0
Fe199 Fe 0.81093 0.20442 0.71606 0.0
O200 O 0.77173 0.21426 0.58313 0.0
Fe201 Fe 0.77182 0.27809 0.58296 0.0
O202 O 0.82298 0.30054 0.44655 0.0
O203 O 0.77288 0.22285 0.31162 0.0
O204 O 0.784 0.14505 0.41087 0.0
C205 C 0.83246 0.16021 0.45567 0.0
C206 C 0.67292 0.22115 0.44383 0.0
O207 O 0.84832 0.18296 0.58151 0.0
C208 C 0.72593 0.22596 0.8317 0.0
O209 O 0.69504 0.10629 0.58503 0.0
O210 O 0.75936 0.13286 0.75569 0.0
O211 O 0.72021 0.26294 0.4492 0.0
O212 O 0.67087 0.17531 0.46668 0.0
C213 C 0.87068 0.32008 0.72222 0.0
O214 O 0.77058 0.22188 0.85457 0.0
O215 O 0.72066 0.24957 0.71944 0.0
C216 C 0.71092 0.09945 0.71087 0.0
O217 O 0.87261 0.27624 0.69937 0.0
O218 O 0.82346 0.31467 0.71663 0.0
C219 C 0.81766 0.27155 0.33444 0.0
Fe220 Fe 0.89884 0.53229 0.58346 0.0
Fe221 Fe 1.0117 0.60601 0.45052 0.0
O222 O 0.96262 0.59611 0.58342 0.0
Fe223 Fe 0.97253 0.64525 0.71628 0.0
O224 O 0.90068 0.63498 0.69999 0.0
O225 O 0.86236 0.54735 0.7174 0.0
O226 O 0.87627 0.56093 0.44716 0.0
C227 C 0.90521 0.58464 0.33501 0.0
C228 C 0.95121 0.53875 0.83194 0.0
O229 O 0.9539 0.58862 0.31202 0.0
C230 C 1.07742 0.65021 0.71092 0.0
O231 O 0.9139 0.49579 0.44953 0.0
O232 O 1.00148 0.53416 0.46696 0.0
O233 O 0.95522 0.58747 0.85486 0.0
O234 O 0.92752 0.50979 0.71977 0.0
C235 C 1.0166 0.7109 0.45572 0.0
O236 O 1.07052 0.62739 0.58516 0.0
O237 O 1.04412 0.66538 0.75559 0.0
C238 C 0.95567 0.49033 0.44408 0.0
O239 O 1.03178 0.6776 0.4111 0.0
O240 O 0.99385 0.70405 0.58154 0.0
C241 C 0.85689 0.58914 0.72294 0.0
Fe242 Fe 0.53161 0.36595 0.71637 0.0
Fe243 Fe 0.64452 0.40524 0.58354 0.0
O244 O 0.58075 0.4052 0.58351 0.0
Fe245 Fe 0.5709 0.44444 0.45063 0.0
O246 O 0.49936 0.39287 0.41096 0.0
O247 O 0.47278 0.32854 0.58168 0.0
O248 O 0.54177 0.30429 0.69979 0.0
C249 C 0.58758 0.30632 0.72265 0.0
C250 C 0.52666 0.46593 0.71103 0.0
O251 O 0.6294 0.35359 0.71715 0.0
C252 C 0.68653 0.50417 0.44452 0.0
O253 O 0.58938 0.40631 0.85501 0.0
O254 O 0.66705 0.45639 0.72005 0.0
O255 O 0.54944 0.48182 0.58524 0.0
O256 O 0.51163 0.4175 0.75595 0.0
C257 C 0.59232 0.35936 0.33485 0.0
O258 O 0.68106 0.45691 0.44993 0.0
O259 O 0.64272 0.50613 0.46736 0.0
C260 C 0.63812 0.45104 0.83226 0.0
O261 O 0.61594 0.35407 0.44704 0.0
O262 O 0.58835 0.40409 0.31203 0.0
C263 C 0.46596 0.34443 0.45583 0.0
Fe264 Fe 0.47765 0.97864 0.54959 0.0
Fe265 Fe 0.39919 0.93932 0.28384 0.0
O266 O 0.43839 0.92948 0.41678 0.0
Fe267 Fe 0.4383 0.86567 0.41697 0.0
O268 O 0.38711 0.8432 0.55334 0.0
O269 O 0.43721 0.92089 0.68828 0.0
O270 O 0.42616 0.99871 0.58897 0.0
C271 C 0.3777 0.98356 0.54418 0.0
C272 C 0.5372 0.92257 0.55616 0.0
O273 O 0.3618 0.96078 0.41838 0.0
C274 C 0.48423 0.91782 0.16825 0.0
O275 O 0.5151 1.03744 0.41483 0.0
O276 O 0.45075 1.01089 0.24421 0.0
O277 O 0.48987 0.88082 0.55083 0.0
O278 O 0.53924 0.96839 0.53315 0.0
C279 C 0.33943 0.82364 0.27768 0.0
O280 O 0.43956 0.92187 0.14536 0.0
O281 O 0.48949 0.89422 0.28055 0.0
C282 C 0.49921 1.04428 0.28901 0.0
O283 O 0.33752 0.86749 0.30057 0.0
O284 O 0.38669 0.82913 0.28321 0.0
C285 C 0.39244 0.87217 0.66551 0.0
Fe286 Fe 0.19836 0.5377 0.54956 0.0
Fe287 Fe 0.3112 0.6114 0.41655 0.0
O288 O 0.24744 0.54758 0.41666 0.0
Fe289 Fe 0.23754 0.49845 0.28383 0.0
O290 O 0.16595 0.47832 0.24451 0.0
O291 O 0.13956 0.51632 0.4149 0.0
O292 O 0.2086 0.60956 0.53306 0.0
C293 C 0.2544 0.6534 0.55599 0.0
C294 C 0.19345 0.4328 0.54436 0.0
O295 O 0.29615 0.64789 0.55046 0.0
C296 C 0.35321 0.55458 0.27722 0.0
O297 O 0.25617 0.55509 0.68807 0.0
O298 O 0.33379 0.58279 0.55289 0.0
O299 O 0.21623 0.43967 0.41858 0.0
O300 O 0.17828 0.46611 0.589 0.0
C301 C 0.25882 0.60493 0.16806 0.0
O302 O 0.34764 0.59631 0.28258 0.0
O303 O 0.30941 0.50875 0.30022 0.0
C304 C 0.30489 0.55915 0.66516 0.0
O305 O 0.28249 0.63389 0.28025 0.0
O306 O 0.25485 0.55622 0.14521 0.0
C307 C 0.13269 0.49355 0.2891 0.0
Fe308 Fe 0.67849 0.77782 0.28382 0.0
Fe309 Fe 0.63916 0.6993 0.54947 0.0
O310 O 0.62935 0.73856 0.41661 0.0
Fe311 Fe 0.5656 0.73854 0.4165 0.0
O312 O 0.54307 0.68736 0.28004 0.0
O313 O 0.62072 0.73745 0.14512 0.0
O314 O 0.69848 0.72627 0.24422 0.0
C315 C 0.68339 0.67782 0.28905 0.0
C316 C 0.62255 0.8375 0.27749 0.0
O317 O 0.66062 0.66192 0.41485 0.0
C318 C 0.61774 0.78439 0.66527 0.0
O319 O 0.73731 0.81521 0.41856 0.0
O320 O 0.71071 0.75085 0.58921 0.0
O321 O 0.58078 0.79018 0.2828 0.0
O322 O 0.66833 0.83947 0.3005 0.0
C323 C 0.52352 0.6396 0.55563 0.0
O324 O 0.62173 0.73967 0.68805 0.0
O325 O 0.59419 0.78971 0.55299 0.0
C326 C 0.74413 0.79929 0.54436 0.0
O327 O 0.56733 0.63764 0.53263 0.0
O328 O 0.52904 0.68688 0.55015 0.0
C329 C 0.572 0.69269 0.16785 0.0
Fe330 Fe 0.47758 0.53776 0.04948 0.0
Fe331 Fe 0.43844 0.61142 0.91638 0.0
O332 O 0.43836 0.5476 0.91655 0.0
Fe333 Fe 0.39911 0.49843 0.78371 0.0
O334 O 0.45062 0.47839 0.74428 0.0
O335 O 0.51496 0.5163 0.91491 0.0
O336 O 0.53925 0.6096 0.0328 0.0
C337 C 0.5373 0.65343 0.05565 0.0
C338 C 0.37758 0.43279 0.04429 0.0
O339 O 0.49007 0.648 0.05007 0.0
C340 C 0.33955 0.55447 0.77724 0.0
O341 O 0.43722 0.55522 0.18798 0.0
O342 O 0.38727 0.58287 0.05285 0.0
O343 O 0.36168 0.43962 0.91846 0.0
O344 O 0.42602 0.4662 0.08912 0.0
C345 C 0.48427 0.6049 0.66784 0.0
O346 O 0.38684 0.59627 0.78262 0.0
O347 O 0.3375 0.50864 0.80012 0.0
C348 C 0.39254 0.55926 0.1651 0.0
O349 O 0.4896 0.63389 0.77997 0.0
O350 O 0.43951 0.55619 0.64504 0.0
C351 C 0.49908 0.49353 0.7891 0.0
Fe352 Fe 0.67839 0.93936 0.78381 0.0
Fe353 Fe 0.56553 0.86565 0.91686 0.0
O354 O 0.62931 0.92948 0.91673 0.0
Fe355 Fe 0.63923 0.97863 0.04957 0.0
O356 O 0.71082 0.99876 0.08887 0.0
O357 O 0.73721 0.96076 0.91843 0.0
O358 O 0.66816 0.8675 0.80026 0.0
C359 C 0.62235 0.82368 0.77743 0.0
C360 C 0.68333 1.04427 0.78903 0.0
O361 O 0.58056 0.82912 0.78302 0.0
C362 C 0.52357 0.92251 0.05616 0.0
O363 O 0.62058 0.92195 0.64531 0.0
O364 O 0.54294 0.89424 0.78048 0.0
O365 O 0.66055 1.03741 0.91481 0.0
O366 O 0.69847 1.01094 0.74435 0.0
C367 C 0.61793 0.87216 0.16532 0.0
O368 O 0.52908 0.88074 0.05076 0.0
O369 O 0.56737 0.96835 0.03327 0.0
C370 C 0.57185 0.91789 0.66825 0.0
O371 O 0.59424 0.84318 0.05319 0.0
O372 O 0.62191 0.92087 0.18819 0.0
C373 C 0.74411 0.98356 0.04421 0.0
Fe374 Fe 0.31116 0.73854 0.91687 0.0
Fe375 Fe 0.19824 0.69926 0.04961 0.0
O376 O 0.24739 0.73852 0.91678 0.0
Fe377 Fe 0.23756 0.77777 0.78391 0.0
O378 O 0.30939 0.83944 0.80062 0.0
O379 O 0.34774 0.79021 0.78326 0.0
O380 O 0.33368 0.7897 0.05334 0.0
C381 C 0.30473 0.78438 0.16548 0.0
C382 C 0.259 0.69269 0.66814 0.0
O383 O 0.25602 0.73962 0.18827 0.0
C384 C 0.1326 0.67777 0.78906 0.0
O385 O 0.296 0.68689 0.05053 0.0
O386 O 0.20839 0.63759 0.03301 0.0
O387 O 0.25499 0.7374 0.64532 0.0
O388 O 0.28258 0.68738 0.78038 0.0
C389 C 0.19336 0.79926 0.04437 0.0
O390 O 0.13942 0.66186 0.91488 0.0
O391 O 0.16602 0.72621 0.74422 0.0
C392 C 0.25419 0.6396 0.05591 0.0
O393 O 0.17826 0.75081 0.08919 0.0
O394 O 0.21611 0.81515 0.91855 0.0
C395 C 0.35319 0.83746 0.77772 0.0
loop_
_geom_bond_atom_site_label_1
_geom_bond_atom_site_label_2
_geom_bond_distance
_geom_bond_site_symmetry_2
_ccdc_geom_bond_type
Fe0 O2 1.918 . S
Fe0 O5 1.997 1_455 S
Fe0 O6 2.002 1_455 S
Fe0 O11 1.976 . S
Fe0 O14 1.996 . S
Fe1 O2 1.918 . S
Fe1 O9 1.997 1_455 S
Fe1 O12 1.996 . S
Fe1 O16 1.976 . S
Fe1 O19 2.002 1_455 S
O2 Fe0 1.918 . S
O2 Fe1 1.918 . S
O2 Fe3 1.918 . S
Fe3 O2 1.918 . S
Fe3 O4 2.002 1_455 S
Fe3 O13 1.976 . S
Fe3 O17 1.996 1_556 S
Fe3 O20 1.997 1_456 S
O4 Fe3 2.002 1_655 S
O4 C21 1.295 . S
O5 Fe0 1.997 1_655 S
O5 C21 1.235 . S
O6 Fe0 2.002 1_655 S
O6 C7 1.295 . S
C7 O6 1.295 . S
C7 O9 1.235 . S
C8 O13 1.287 . S
C8 O14 1.255 . S
O9 Fe1 1.997 1_655 S
O9 C7 1.235 . S
C10 O16 1.287 . S
C10 O17 1.255 1_556 S
O11 Fe0 1.976 . S
O11 C18 1.287 . S
O12 Fe1 1.996 . S
O12 C18 1.255 . S
O13 Fe3 1.976 . S
O13 C8 1.287 . S
O14 Fe0 1.996 . S
O14 C8 1.255 . S
C15 O19 1.295 1_554 S
C15 O20 1.235 . S
O16 Fe1 1.976 . S
O16 C10 1.287 . S
O17 Fe3 1.996 1_554 S
O17 C10 1.255 1_554 S
C18 O11 1.287 . S
C18 O12 1.255 . S
O19 Fe1 2.002 1_655 S
O19 C15 1.295 1_556 S
O20 Fe3 1.997 1_654 S
O20 C15 1.235 . S
C21 O4 1.295 . S
C21 O5 1.235 . S
Fe22 O24 1.918 . S
Fe22 O27 1.997 . S
Fe22 O28 2.002 1_556 S
Fe22 O33 1.976 1_556 S
Fe22 O36 1.996 . S
Fe23 O24 1.918 . S
Fe23 O31 1.997 . S
Fe23 O34 1.996 . S
Fe23 O38 1.976 . S
Fe23 O41 2.002 . S
O24 Fe22 1.918 . S
O24 Fe23 1.918 . S
O24 Fe25 1.918 . S
Fe25 O24 1.918 . S
Fe25 O26 2.002 . S
Fe25 O35 1.976 . S
Fe25 O39 1.996 . S
Fe25 O42 1.997 . S
O26 Fe25 2.002 . S
O26 C43 1.295 . S
O27 Fe22 1.997 . S
O27 C43 1.235 . S
O28 Fe22 2.002 1_554 S
O28 C29 1.295 1_554 S
C29 O28 1.295 1_556 S
C29 O31 1.235 . S
C30 O35 1.287 . S
C30 O36 1.255 . S
O31 Fe23 1.997 . S
O31 C29 1.235 . S
C32 O38 1.287 . S
C32 O39 1.255 . S
O33 Fe22 1.976 1_554 S
O33 C40 1.287 . S
O34 Fe23 1.996 . S
O34 C40 1.255 1_556 S
O35 Fe25 1.976 . S
O35 C30 1.287 . S
O36 Fe22 1.996 . S
O36 C30 1.255 . S
C37 O41 1.295 . S
C37 O42 1.235 . S
O38 Fe23 1.976 . S
O38 C32 1.287 . S
O39 Fe25 1.996 . S
O39 C32 1.255 . S
C40 O33 1.287 . S
C40 O34 1.255 1_554 S
O41 Fe23 2.002 . S
O41 C37 1.295 . S
O42 Fe25 1.997 . S
O42 C37 1.235 . S
C43 O26 1.295 . S
C43 O27 1.235 . S
Fe44 O46 1.918 . S
Fe44 O49 1.997 1_545 S
Fe44 O50 2.002 1_546 S
Fe44 O55 1.976 1_556 S
Fe44 O58 1.996 . S
Fe45 O46 1.918 . S
Fe45 O53 1.997 1_545 S
Fe45 O56 1.996 . S
Fe45 O60 1.976 . S
Fe45 O63 2.002 1_545 S
O46 Fe44 1.918 . S
O46 Fe45 1.918 . S
O46 Fe47 1.918 . S
Fe47 O46 1.918 . S
Fe47 O48 2.002 1_545 S
Fe47 O57 1.976 . S
Fe47 O61 1.996 . S
Fe47 O64 1.997 1_545 S
O48 Fe47 2.002 1_565 S
O48 C65 1.295 . S
O49 Fe44 1.997 1_565 S
O49 C65 1.235 . S
O50 Fe44 2.002 1_564 S
O50 C51 1.295 1_554 S
C51 O50 1.295 1_556 S
C51 O53 1.235 . S
C52 O57 1.287 . S
C52 O58 1.255 . S
O53 Fe45 1.997 1_565 S
O53 C51 1.235 . S
C54 O60 1.287 . S
C54 O61 1.255 . S
O55 Fe44 1.976 1_554 S
O55 C62 1.287 . S
O56 Fe45 1.996 . S
O56 C62 1.255 1_556 S
O57 Fe47 1.976 . S
O57 C52 1.287 . S
O58 Fe44 1.996 . S
O58 C52 1.255 . S
C59 O63 1.295 . S
C59 O64 1.235 . S
O60 Fe45 1.976 . S
O60 C54 1.287 . S
O61 Fe47 1.996 . S
O61 C54 1.255 . S
C62 O55 1.287 . S
C62 O56 1.255 1_554 S
O63 Fe45 2.002 1_565 S
O63 C59 1.295 . S
O64 Fe47 1.997 1_565 S
O64 C59 1.235 . S
C65 O48 1.295 . S
C65 O49 1.235 . S
Fe66 O68 1.918 . S
Fe66 O71 1.997 1_554 S
Fe66 O72 2.002 . S
Fe66 O77 1.976 1_455 S
Fe66 O80 1.996 1_454 S
Fe67 O68 1.918 . S
Fe67 O75 1.997 . S
Fe67 O78 1.996 1_455 S
Fe67 O82 1.976 1_455 S
Fe67 O85 2.002 . S
O68 Fe66 1.918 . S
O68 Fe67 1.918 . S
O68 Fe69 1.918 . S
Fe69 O68 1.918 . S
Fe69 O70 2.002 . S
Fe69 O79 1.976 1_455 S
Fe69 O83 1.996 1_455 S
Fe69 O86 1.997 . S
O70 Fe69 2.002 . S
O70 C87 1.295 1_554 S
O71 Fe66 1.997 1_556 S
O71 C87 1.235 . S
O72 Fe66 2.002 . S
O72 C73 1.295 . S
C73 O72 1.295 . S
C73 O75 1.235 . S
C74 O79 1.287 . S
C74 O80 1.255 1_554 S
O75 Fe67 1.997 . S
O75 C73 1.235 . S
C76 O82 1.287 . S
C76 O83 1.255 . S
O77 Fe66 1.976 1_655 S
O77 C84 1.287 . S
O78 Fe67 1.996 1_655 S
O78 C84 1.255 . S
O79 Fe69 1.976 1_655 S
O79 C74 1.287 . S
O80 Fe66 1.996 1_656 S
O80 C74 1.255 1_556 S
C81 O85 1.295 . S
C81 O86 1.235 . S
O82 Fe67 1.976 1_655 S
O82 C76 1.287 . S
O83 Fe69 1.996 1_655 S
O83 C76 1.255 . S
C84 O77 1.287 . S
C84 O78 1.255 . S
O85 Fe67 2.002 . S
O85 C81 1.295 . S
O86 Fe69 1.997 . S
O86 C81 1.235 . S
C87 O70 1.295 1_556 S
C87 O71 1.235 . S
Fe88 O90 1.918 . S
Fe88 O93 1.997 . S
Fe88 O94 2.002 1_554 S
Fe88 O99 1.976 1_554 S
Fe88 O102 1.996 . S
Fe89 O90 1.918 . S
Fe89 O97 1.997 . S
Fe89 O100 1.996 . S
Fe89 O104 1.976 . S
Fe89 O107 2.002 . S
O90 Fe88 1.918 . S
O90 Fe89 1.918 . S
O90 Fe91 1.918 . S
Fe91 O90 1.918 . S
Fe91 O92 2.002 . S
Fe91 O101 1.976 . S
Fe91 O105 1.996 . S
Fe91 O108 1.997 . S
O92 Fe91 2.002 . S
O92 C109 1.295 . S
O93 Fe88 1.997 . S
O93 C109 1.235 . S
O94 Fe88 2.002 1_556 S
O94 C95 1.295 1_556 S
C95 O94 1.295 1_554 S
C95 O97 1.235 . S
C96 O101 1.287 . S
C96 O102 1.255 . S
O97 Fe89 1.997 . S
O97 C95 1.235 . S
C98 O104 1.287 . S
C98 O105 1.255 . S
O99 Fe88 1.976 1_556 S
O99 C106 1.287 . S
O100 Fe89 1.996 . S
O100 C106 1.255 1_554 S
O101 Fe91 1.976 . S
O101 C96 1.287 . S
O102 Fe88 1.996 . S
O102 C96 1.255 . S
C103 O107 1.295 . S
C103 O108 1.235 . S
O104 Fe89 1.976 . S
O104 C98 1.287 . S
O105 Fe91 1.996 . S
O105 C98 1.255 . S
C106 O99 1.287 . S
C106 O100 1.255 1_556 S
O107 Fe89 2.002 . S
O107 C103 1.295 . S
O108 Fe91 1.997 . S
O108 C103 1.235 . S
C109 O92 1.295 . S
C109 O93 1.235 . S
Fe110 O112 1.918 . S
Fe110 O115 1.997 . S
Fe110 O116 2.002 . S
Fe110 O121 1.976 1_545 S
Fe110 O124 1.996 1_545 S
Fe111 O112 1.918 . S
Fe111 O119 1.997 . S
Fe111 O122 1.996 1_545 S
Fe111 O126 1.976 1_545 S
Fe111 O129 2.002 . S
O112 Fe110 1.918 . S
O112 Fe111 1.918 . S
O112 Fe113 1.918 . S
Fe113 O112 1.918 . S
Fe113 O114 2.002 1_554 S
Fe113 O123 1.976 1_544 S
Fe113 O127 1.996 1_545 S
Fe113 O130 1.997 . S
O114 Fe113 2.002 1_556 S
O114 C131 1.295 1_556 S
O115 Fe110 1.997 . S
O115 C131 1.235 . S
O116 Fe110 2.002 . S
O116 C117 1.295 . S
C117 O116 1.295 . S
C117 O119 1.235 . S
C118 O123 1.287 . S
C118 O124 1.255 1_556 S
O119 Fe111 1.997 . S
O119 C117 1.235 . S
C120 O126 1.287 . S
C120 O127 1.255 . S
O121 Fe110 1.976 1_565 S
O121 C128 1.287 . S
O122 Fe111 1.996 1_565 S
O122 C128 1.255 . S
O123 Fe113 1.976 1_566 S
O123 C118 1.287 . S
O124 Fe110 1.996 1_565 S
O124 C118 1.255 1_554 S
C125 O129 1.295 . S
C125 O130 1.235 . S
O126 Fe111 1.976 1_565 S
O126 C120 1.287 . S
O127 Fe113 1.996 1_565 S
O127 C120 1.255 . S
C128 O121 1.287 . S
C128 O122 1.255 . S
O129 Fe111 2.002 . S
O129 C125 1.295 . S
O130 Fe113 1.997 . S
O130 C125 1.235 . S
C131 O114 1.295 1_554 S
C131 O115 1.235 . S
Fe132 O134 1.918 . S
Fe132 O137 1.997 . S
Fe132 O138 2.002 . S
Fe132 O143 1.976 . S
Fe132 O146 1.996 . S
Fe133 O134 1.918 . S
Fe133 O141 1.997 . S
Fe133 O144 1.996 . S
Fe133 O148 1.976 1_554 S
Fe133 O151 2.002 1_554 S
O134 Fe132 1.918 . S
O134 Fe133 1.918 . S
O134 Fe135 1.918 1_554 S
Fe135 O134 1.918 1_556 S
Fe135 O136 2.002 . S
Fe135 O145 1.976 . S
Fe135 O149 1.996 . S
Fe135 O152 1.997 . S
O136 Fe135 2.002 . S
O136 C153 1.295 1_556 S
O137 Fe132 1.997 . S
O137 C153 1.235 . S
O138 Fe132 2.002 . S
O138 C139 1.295 . S
C139 O138 1.295 . S
C139 O141 1.235 . S
C140 O145 1.287 1_554 S
C140 O146 1.255 . S
O141 Fe133 1.997 . S
O141 C139 1.235 . S
C142 O148 1.287 . S
C142 O149 1.255 . S
O143 Fe132 1.976 . S
O143 C150 1.287 . S
O144 Fe133 1.996 . S
O144 C150 1.255 . S
O145 Fe135 1.976 . S
O145 C140 1.287 1_556 S
O146 Fe132 1.996 . S
O146 C140 1.255 . S
C147 O151 1.295 . S
C147 O152 1.235 . S
O148 Fe133 1.976 1_556 S
O148 C142 1.287 . S
O149 Fe135 1.996 . S
O149 C142 1.255 . S
C150 O143 1.287 . S
C150 O144 1.255 . S
O151 Fe133 2.002 1_556 S
O151 C147 1.295 . S
O152 Fe135 1.997 . S
O152 C147 1.235 . S
C153 O136 1.295 1_554 S
C153 O137 1.235 . S
Fe154 O156 1.918 . S
Fe154 O159 1.997 . S
Fe154 O160 2.002 . S
Fe154 O165 1.976 . S
Fe154 O168 1.996 . S
Fe155 O156 1.918 . S
Fe155 O163 1.997 . S
Fe155 O166 1.996 . S
Fe155 O170 1.976 1_554 S
Fe155 O173 2.002 1_554 S
O156 Fe154 1.918 . S
O156 Fe155 1.918 . S
O156 Fe157 1.918 1_554 S
Fe157 O156 1.918 1_556 S
Fe157 O158 2.002 . S
Fe157 O167 1.976 . S
Fe157 O171 1.996 . S
Fe157 O174 1.997 . S
O158 Fe157 2.002 . S
O158 C175 1.295 1_556 S
O159 Fe154 1.997 . S
O159 C175 1.235 . S
O160 Fe154 2.002 . S
O160 C161 1.295 . S
C161 O160 1.295 . S
C161 O163 1.235 . S
C162 O167 1.287 1_554 S
C162 O168 1.255 . S
O163 Fe155 1.997 . S
O163 C161 1.235 . S
C164 O170 1.287 . S
C164 O171 1.255 . S
O165 Fe154 1.976 . S
O165 C172 1.287 . S
O166 Fe155 1.996 . S
O166 C172 1.255 . S
O167 Fe157 1.976 . S
O167 C162 1.287 1_556 S
O168 Fe154 1.996 . S
O168 C162 1.255 . S
C169 O173 1.295 . S
C169 O174 1.235 . S
O170 Fe155 1.976 1_556 S
O170 C164 1.287 . S
O171 Fe157 1.996 . S
O171 C164 1.255 . S
C172 O165 1.287 . S
C172 O166 1.255 . S
O173 Fe155 2.002 1_556 S
O173 C169 1.295 . S
O174 Fe157 1.997 . S
O174 C169 1.235 . S
C175 O158 1.295 1_554 S
C175 O159 1.235 . S
Fe176 O178 1.918 . S
Fe176 O181 1.997 . S
Fe176 O182 2.002 . S
Fe176 O187 1.976 . S
Fe176 O190 1.996 . S
Fe177 O178 1.918 . S
Fe177 O185 1.997 . S
Fe177 O188 1.996 . S
Fe177 O192 1.976 1_554 S
Fe177 O195 2.002 1_554 S
O178 Fe176 1.918 . S
O178 Fe177 1.918 . S
O178 Fe179 1.918 1_554 S
Fe179 O178 1.918 1_556 S
Fe179 O180 2.002 . S
Fe179 O189 1.976 . S
Fe179 O193 1.996 . S
Fe179 O196 1.997 . S
O180 Fe179 2.002 . S
O180 C197 1.295 1_556 S
O181 Fe176 1.997 . S
O181 C197 1.235 . S
O182 Fe176 2.002 . S
O182 C183 1.295 . S
C183 O182 1.295 . S
C183 O185 1.235 . S
C184 O189 1.287 1_554 S
C184 O190 1.255 . S
O185 Fe177 1.997 . S
O185 C183 1.235 . S
C186 O192 1.287 . S
C186 O193 1.255 . S
O187 Fe176 1.976 . S
O187 C194 1.287 . S
O188 Fe177 1.996 . S
O188 C194 1.255 . S
O189 Fe179 1.976 . S
O189 C184 1.287 1_556 S
O190 Fe176 1.996 . S
O190 C184 1.255 . S
C191 O195 1.295 . S
C191 O196 1.235 . S
O192 Fe177 1.976 1_556 S
O192 C186 1.287 . S
O193 Fe179 1.996 . S
O193 C186 1.255 . S
C194 O187 1.287 . S
C194 O188 1.255 . S
O195 Fe177 2.002 1_556 S
O195 C191 1.295 . S
O196 Fe179 1.997 . S
O196 C191 1.235 . S
C197 O180 1.295 1_554 S
C197 O181 1.235 . S
Fe198 O200 1.918 . S
Fe198 O203 1.997 . S
Fe198 O204 2.002 . S
Fe198 O209 1.976 . S
Fe198 O212 1.996 . S
Fe199 O200 1.918 . S
Fe199 O207 1.997 . S
Fe199 O210 1.996 . S
Fe199 O214 1.976 . S
Fe199 O217 2.002 . S
O200 Fe198 1.918 . S
O200 Fe199 1.918 . S
O200 Fe201 1.918 . S
Fe201 O200 1.918 . S
Fe201 O202 2.002 . S
Fe201 O211 1.976 . S
Fe201 O215 1.996 . S
Fe201 O218 1.997 . S
O202 Fe201 2.002 . S
O202 C219 1.295 . S
O203 Fe198 1.997 . S
O203 C219 1.235 . S
O204 Fe198 2.002 . S
O204 C205 1.295 . S
C205 O204 1.295 . S
C205 O207 1.235 . S
C206 O211 1.287 . S
C206 O212 1.255 . S
O207 Fe199 1.997 . S
O207 C205 1.235 . S
C208 O214 1.287 . S
C208 O215 1.255 . S
O209 Fe198 1.976 . S
O209 C216 1.287 . S
O210 Fe199 1.996 . S
O210 C216 1.255 . S
O211 Fe201 1.976 . S
O211 C206 1.287 . S
O212 Fe198 1.996 . S
O212 C206 1.255 . S
C213 O217 1.295 . S
C213 O218 1.235 . S
O214 Fe199 1.976 . S
O214 C208 1.287 . S
O215 Fe201 1.996 . S
O215 C208 1.255 . S
C216 O209 1.287 . S
C216 O210 1.255 . S
O217 Fe199 2.002 . S
O217 C213 1.295 . S
O218 Fe201 1.997 . S
O218 C213 1.235 . S
C219 O202 1.295 . S
C219 O203 1.235 . S
Fe220 O222 1.918 . S
Fe220 O225 1.997 . S
Fe220 O226 2.002 . S
Fe220 O231 1.976 . S
Fe220 O234 1.996 . S
Fe221 O222 1.918 . S
Fe221 O229 1.997 . S
Fe221 O232 1.996 . S
Fe221 O236 1.976 . S
Fe221 O239 2.002 . S
O222 Fe220 1.918 . S
O222 Fe221 1.918 . S
O222 Fe223 1.918 . S
Fe223 O222 1.918 . S
Fe223 O224 2.002 . S
Fe223 O233 1.976 . S
Fe223 O237 1.996 . S
Fe223 O240 1.997 . S
O224 Fe223 2.002 . S
O224 C241 1.295 . S
O225 Fe220 1.997 . S
O225 C241 1.235 . S
O226 Fe220 2.002 . S
O226 C227 1.295 . S
C227 O226 1.295 . S
C227 O229 1.235 . S
C228 O233 1.287 . S
C228 O234 1.255 . S
O229 Fe221 1.997 . S
O229 C227 1.235 . S
C230 O236 1.287 . S
C230 O237 1.255 . S
O231 Fe220 1.976 . S
O231 C238 1.287 . S
O232 Fe221 1.996 . S
O232 C238 1.255 . S
O233 Fe223 1.976 . S
O233 C228 1.287 . S
O234 Fe220 1.996 . S
O234 C228 1.255 . S
C235 O239 1.295 . S
C235 O240 1.235 . S
O236 Fe221 1.976 . S
O236 C230 1.287 . S
O237 Fe223 1.996 . S
O237 C230 1.255 . S
C238 O231 1.287 . S
C238 O232 1.255 . S
O239 Fe221 2.002 . S
O239 C235 1.295 . S
O240 Fe223 1.997 . S
O240 C235 1.235 . S
C241 O224 1.295 . S
C241 O225 1.235 . S
Fe242 O244 1.918 . S
Fe242 O247 1.997 . S
Fe242 O248 2.002 . S
Fe242 O253 1.976 . S
Fe242 O256 1.996 . S
Fe243 O244 1.918 . S
Fe243 O251 1.997 . S
Fe243 O254 1.996 . S
Fe243 O258 1.976 . S
Fe243 O261 2.002 . S
O244 Fe242 1.918 . S
O244 Fe243 1.918 . S
O244 Fe245 1.918 . S
Fe245 O244 1.918 . S
Fe245 O246 2.002 . S
Fe245 O255 1.976 . S
Fe245 O259 1.996 . S
Fe245 O262 1.997 . S
O246 Fe245 2.002 . S
O246 C263 1.295 . S
O247 Fe242 1.997 . S
O247 C263 1.235 . S
O248 Fe242 2.002 . S
O248 C249 1.295 . S
C249 O248 1.295 . S
C249 O251 1.235 . S
C250 O255 1.287 . S
C250 O256 1.255 . S
O251 Fe243 1.997 . S
O251 C249 1.235 . S
C252 O258 1.287 . S
C252 O259 1.255 . S
O253 Fe242 1.976 . S
O253 C260 1.287 . S
O254 Fe243 1.996 . S
O254 C260 1.255 . S
O255 Fe245 1.976 . S
O255 C250 1.287 . S
O256 Fe242 1.996 . S
O256 C250 1.255 . S
C257 O261 1.295 . S
C257 O262 1.235 . S
O258 Fe243 1.976 . S
O258 C252 1.287 . S
O259 Fe245 1.996 . S
O259 C252 1.255 . S
C260 O253 1.287 . S
C260 O254 1.255 . S
O261 Fe243 2.002 . S
O261 C257 1.295 . S
O262 Fe245 1.997 . S
O262 C257 1.235 . S
C263 O246 1.295 . S
C263 O247 1.235 . S
Fe264 O266 1.918 . S
Fe264 O269 1.997 . S
Fe264 O270 2.002 . S
Fe264 O275 1.976 . S
Fe264 O278 1.996 . S
Fe265 O266 1.918 . S
Fe265 O273 1.997 . S
Fe265 O276 1.996 . S
Fe265 O280 1.976 . S
Fe265 O283 2.002 . S
O266 Fe264 1.918 . S
O266 Fe265 1.918 . S
O266 Fe267 1.918 . S
Fe267 O266 1.918 . S
Fe267 O268 2.002 . S
Fe267 O277 1.976 . S
Fe267 O281 1.996 . S
Fe267 O284 1.997 . S
O268 Fe267 2.002 . S
O268 C285 1.295 . S
O269 Fe264 1.997 . S
O269 C285 1.235 . S
O270 Fe264 2.002 . S
O270 C271 1.295 . S
C271 O270 1.295 . S
C271 O273 1.235 . S
C272 O277 1.287 . S
C272 O278 1.255 . S
O273 Fe265 1.997 . S
O273 C271 1.235 . S
C274 O280 1.287 . S
C274 O281 1.255 . S
O275 Fe264 1.976 . S
O275 C282 1.287 . S
O276 Fe265 1.996 . S
O276 C282 1.255 . S
O277 Fe267 1.976 . S
O277 C272 1.287 . S
O278 Fe264 1.996 . S
O278 C272 1.255 . S
C279 O283 1.295 . S
C279 O284 1.235 . S
O280 Fe265 1.976 . S
O280 C274 1.287 . S
O281 Fe267 1.996 . S
O281 C274 1.255 . S
C282 O275 1.287 . S
C282 O276 1.255 . S
O283 Fe265 2.002 . S
O283 C279 1.295 . S
O284 Fe267 1.997 . S
O284 C279 1.235 . S
C285 O268 1.295 . S
C285 O269 1.235 . S
Fe286 O288 1.918 . S
Fe286 O291 1.997 . S
Fe286 O292 2.002 . S
Fe286 O297 1.976 . S
Fe286 O300 1.996 . S
Fe287 O288 1.918 . S
Fe287 O295 1.997 . S
Fe287 O298 1.996 . S
Fe287 O302 1.976 . S
Fe287 O305 2.002 . S
O288 Fe286 1.918 . S
O288 Fe287 1.918 . S
O288 Fe289 1.918 . S
Fe289 O288 1.918 . S
Fe289 O290 2.002 . S
Fe289 O299 1.976 . S
Fe289 O303 1.996 . S
Fe289 O306 1.997 . S
O290 Fe289 2.002 . S
O290 C307 1.295 . S
O291 Fe286 1.997 . S
O291 C307 1.235 . S
O292 Fe286 2.002 . S
O292 C293 1.295 . S
C293 O292 1.295 . S
C293 O295 1.235 . S
C294 O299 1.287 . S
C294 O300 1.255 . S
O295 Fe287 1.997 . S
O295 C293 1.235 . S
C296 O302 1.287 . S
C296 O303 1.255 . S
O297 Fe286 1.976 . S
O297 C304 1.287 . S
O298 Fe287 1.996 . S
O298 C304 1.255 . S
O299 Fe289 1.976 . S
O299 C294 1.287 . S
O300 Fe286 1.996 . S
O300 C294 1.255 . S
C301 O305 1.295 . S
C301 O306 1.235 . S
O302 Fe287 1.976 . S
O302 C296 1.287 . S
O303 Fe289 1.996 . S
O303 C296 1.255 . S
C304 O297 1.287 . S
C304 O298 1.255 . S
O305 Fe287 2.002 . S
O305 C301 1.295 . S
O306 Fe289 1.997 . S
O306 C301 1.235 . S
C307 O290 1.295 . S
C307 O291 1.235 . S
Fe308 O310 1.918 . S
Fe308 O313 1.997 . S
Fe308 O314 2.002 . S
Fe308 O319 1.976 . S
Fe308 O322 1.996 . S
Fe309 O310 1.918 . S
Fe309 O317 1.997 . S
Fe309 O320 1.996 . S
Fe309 O324 1.976 . S
Fe309 O327 2.002 . S
O310 Fe308 1.918 . S
O310 Fe309 1.918 . S
O310 Fe311 1.918 . S
Fe311 O310 1.918 . S
Fe311 O312 2.002 . S
Fe311 O321 1.976 . S
Fe311 O325 1.996 . S
Fe311 O328 1.997 . S
O312 Fe311 2.002 . S
O312 C329 1.295 . S
O313 Fe308 1.997 . S
O313 C329 1.235 . S
O314 Fe308 2.002 . S
O314 C315 1.295 . S
C315 O314 1.295 . S
C315 O317 1.235 . S
C316 O321 1.287 . S
C316 O322 1.255 . S
O317 Fe309 1.997 . S
O317 C315 1.235 . S
C318 O324 1.287 . S
C318 O325 1.255 . S
O319 Fe308 1.976 . S
O319 C326 1.287 . S
O320 Fe309 1.996 . S
O320 C326 1.255 . S
O321 Fe311 1.976 . S
O321 C316 1.287 . S
O322 Fe308 1.996 . S
O322 C316 1.255 . S
C323 O327 1.295 . S
C323 O328 1.235 . S
O324 Fe309 1.976 . S
O324 C318 1.287 . S
O325 Fe311 1.996 . S
O325 C318 1.255 . S
C326 O319 1.287 . S
C326 O320 1.255 . S
O327 Fe309 2.002 . S
O327 C323 1.295 . S
O328 Fe311 1.997 . S
O328 C323 1.235 . S
C329 O312 1.295 . S
C329 O313 1.235 . S
Fe330 O332 1.918 1_554 S
Fe330 O335 1.997 . S
Fe330 O336 2.002 . S
Fe330 O341 1.976 . S
Fe330 O344 1.996 . S
Fe331 O332 1.918 . S
Fe331 O339 1.997 1_556 S
Fe331 O342 1.996 1_556 S
Fe331 O346 1.976 . S
Fe331 O349 2.002 . S
O332 Fe330 1.918 1_556 S
O332 Fe331 1.918 . S
O332 Fe333 1.918 . S
Fe333 O332 1.918 . S
Fe333 O334 2.002 . S
Fe333 O343 1.976 . S
Fe333 O347 1.996 . S
Fe333 O350 1.997 . S
O334 Fe333 2.002 . S
O334 C351 1.295 . S
O335 Fe330 1.997 . S
O335 C351 1.235 1_554 S
O336 Fe330 2.002 . S
O336 C337 1.295 . S
C337 O336 1.295 . S
C337 O339 1.235 . S
C338 O343 1.287 . S
C338 O344 1.255 1_556 S
O339 Fe331 1.997 1_554 S
O339 C337 1.235 . S
C340 O346 1.287 . S
C340 O347 1.255 . S
O341 Fe330 1.976 . S
O341 C348 1.287 . S
O342 Fe331 1.996 1_554 S
O342 C348 1.255 . S
O343 Fe333 1.976 . S
O343 C338 1.287 . S
O344 Fe330 1.996 . S
O344 C338 1.255 1_554 S
C345 O349 1.295 . S
C345 O350 1.235 . S
O346 Fe331 1.976 . S
O346 C340 1.287 . S
O347 Fe333 1.996 . S
O347 C340 1.255 . S
C348 O341 1.287 . S
C348 O342 1.255 . S
O349 Fe331 2.002 . S
O349 C345 1.295 . S
O350 Fe333 1.997 . S
O350 C345 1.235 . S
C351 O334 1.295 . S
C351 O335 1.235 1_556 S
Fe352 O354 1.918 . S
Fe352 O357 1.997 . S
Fe352 O358 2.002 . S
Fe352 O363 1.976 . S
Fe352 O366 1.996 . S
Fe353 O354 1.918 . S
Fe353 O361 1.997 . S
Fe353 O364 1.996 . S
Fe353 O368 1.976 1_556 S
Fe353 O371 2.002 1_556 S
O354 Fe352 1.918 . S
O354 Fe353 1.918 . S
O354 Fe355 1.918 1_556 S
Fe355 O354 1.918 1_554 S
Fe355 O356 2.002 . S
Fe355 O365 1.976 . S
Fe355 O369 1.996 . S
Fe355 O372 1.997 . S
O356 Fe355 2.002 . S
O356 C373 1.295 1_554 S
O357 Fe352 1.997 . S
O357 C373 1.235 . S
O358 Fe352 2.002 . S
O358 C359 1.295 . S
C359 O358 1.295 . S
C359 O361 1.235 . S
C360 O365 1.287 1_556 S
C360 O366 1.255 . S
O361 Fe353 1.997 . S
O361 C359 1.235 . S
C362 O368 1.287 . S
C362 O369 1.255 . S
O363 Fe352 1.976 . S
O363 C370 1.287 . S
O364 Fe353 1.996 . S
O364 C370 1.255 . S
O365 Fe355 1.976 . S
O365 C360 1.287 1_554 S
O366 Fe352 1.996 . S
O366 C360 1.255 . S
C367 O371 1.295 . S
C367 O372 1.235 . S
O368 Fe353 1.976 1_554 S
O368 C362 1.287 . S
O369 Fe355 1.996 . S
O369 C362 1.255 . S
C370 O363 1.287 . S
C370 O364 1.255 . S
O371 Fe353 2.002 1_554 S
O371 C367 1.295 . S
O372 Fe355 1.997 . S
O372 C367 1.235 . S
C373 O356 1.295 1_556 S
C373 O357 1.235 . S
Fe374 O376 1.918 . S
Fe374 O379 1.997 . S
Fe374 O380 2.002 1_556 S
Fe374 O385 1.976 1_556 S
Fe374 O388 1.996 . S
Fe375 O376 1.918 1_554 S
Fe375 O383 1.997 . S
Fe375 O386 1.996 . S
Fe375 O390 1.976 . S
Fe375 O393 2.002 . S
O376 Fe374 1.918 . S
O376 Fe375 1.918 1_556 S
O376 Fe377 1.918 . S
Fe377 O376 1.918 . S
Fe377 O378 2.002 . S
Fe377 O387 1.976 . S
Fe377 O391 1.996 . S
Fe377 O394 1.997 . S
O378 Fe377 2.002 . S
O378 C395 1.295 . S
O379 Fe374 1.997 . S
O379 C395 1.235 . S
O380 Fe374 2.002 1_554 S
O380 C381 1.295 . S
C381 O380 1.295 . S
C381 O383 1.235 . S
C382 O387 1.287 . S
C382 O388 1.255 . S
O383 Fe375 1.997 . S
O383 C381 1.235 . S
C384 O390 1.287 1_556 S
C384 O391 1.255 . S
O385 Fe374 1.976 1_554 S
O385 C392 1.287 . S
O386 Fe375 1.996 . S
O386 C392 1.255 . S
O387 Fe377 1.976 . S
O387 C382 1.287 . S
O388 Fe374 1.996 . S
O388 C382 1.255 . S
C389 O393 1.295 1_556 S
C389 O394 1.235 . S
O390 Fe375 1.976 . S
O390 C384 1.287 1_554 S
O391 Fe377 1.996 . S
O391 C384 1.255 . S
C392 O385 1.287 . S
C392 O386 1.255 . S
O393 Fe375 2.002 . S
O393 C389 1.295 1_554 S
O394 Fe377 1.997 . S
O394 C389 1.235 . S
C395 O378 1.295 . S
C395 O379 1.235 . S
C18 C98 1.512 . S
C128 C37 1.542 . S
C59 C81 1.519 . S
C62 C95 1.487 . S
C131 C15 1.531 . S
C40 C74 1.481 . S
C32 C76 1.474 . S
C54 C103 1.517 . S
C117 C7 1.523 . S
C118 C29 1.498 . S
C51 C87 1.527 . S
C10 C106 1.520 . S
C241 C147 1.540 . S
C169 C249 1.548 . S
C191 C213 1.504 . S
C238 C194 1.478 . S
C252 C150 1.486 . S
C206 C172 1.521 . S
C164 C208 1.510 . S
C186 C228 1.519 . S
C142 C260 1.474 . S
C161 C257 1.508 . S
C183 C219 1.516 . S
C227 C139 1.552 . S
C274 C362 1.496 . S
C301 C392 1.539 . S
C337 C329 1.545 . S
C359 C318 1.485 . S
C285 C395 1.514 . S
C304 C340 1.506 . S
C296 C348 1.499 . S
C316 C367 1.528 . S
C279 C381 1.506 . S
C382 C293 1.508 . S
C345 C323 1.552 . S
C272 C370 1.503 . S
C8 C294 2.762 . S
C43 C326 2.762 . S
C65 C271 2.761 . S
C52 C175 2.739 1_556 S
C21 C197 2.756 1_556 S
C30 C153 2.758 1_556 S
C235 C84 2.762 . S
C109 C263 2.780 . S
C125 C205 2.760 . S
C373 C120 2.761 1_556 S
C73 C389 2.761 1_554 S
C96 C338 2.762 1_554 S
C184 C307 2.784 1_655 S
C140 C315 2.764 . S
C282 C162 2.768 1_565 S
C360 C216 2.764 1_565 S
C384 C230 2.743 1_455 S
C250 C351 2.760 . S
