# Generated by pormake.
# Topology smw, (6)-cn, num edge types: 1
# Building blocks:
#     Node 0, Type 0, BuildingBlock: OJICUG_clean_sbu_0, # of connection points: 6
#     Node 1, Type 0, BuildingBlock: OJICUG_clean_sbu_0, # of connection points: 6
#     Node 2, Type 0, BuildingBlock: OJICUG_clean_sbu_0, # of connection points: 6
#     Node 3, Type 0, BuildingBlock: OJICUG_clean_sbu_0, # of connection points: 6
#     Node 4, Type 0, BuildingBlock: OJICUG_clean_sbu_0, # of connection points: 6
#     Node 5, Type 0, BuildingBlock: OJICUG_clean_sbu_0, # of connection points: 6
#     Node 6, Type 0, BuildingBlock: OJICUG_clean_sbu_0, # of connection points: 6
#     Node 7, Type 0, BuildingBlock: OJICUG_clean_sbu_0, # of connection points: 6
#     Node 8, Type 0, BuildingBlock: OJICUG_clean_sbu_0, # of connection points: 6
#     Node 9, Type 0, BuildingBlock: OJICUG_clean_sbu_0, # of connection points: 6
#     Node 10, Type 0, BuildingBlock: OJICUG_clean_sbu_0, # of connection points: 6
#     Node 11, Type 0, BuildingBlock: OJICUG_clean_sbu_0, # of connection points: 6
#     Edge 12, Type (0, 0), BuildingBlock: OJICUG_clean_linker_0, # of connection points: 2
#     Edge 13, Type (0, 0), BuildingBlock: OJICUG_clean_linker_0, # of connection points: 2
#     Edge 14, Type (0, 0), BuildingBlock: OJICUG_clean_linker_0, # of connection points: 2
#     Edge 15, Type (0, 0), BuildingBlock: OJICUG_clean_linker_0, # of connection points: 2
#     Edge 16, Type (0, 0), BuildingBlock: OJICUG_clean_linker_0, # of connection points: 2
#     Edge 17, Type (0, 0), BuildingBlock: OJICUG_clean_linker_0, # of connection points: 2
#     Edge 18, Type (0, 0), BuildingBlock: OJICUG_clean_linker_0, # of connection points: 2
#     Edge 19, Type (0, 0), BuildingBlock: OJICUG_clean_linker_0, # of connection points: 2
#     Edge 20, Type (0, 0), BuildingBlock: OJICUG_clean_linker_0, # of connection points: 2
#     Edge 21, Type (0, 0), BuildingBlock: OJICUG_clean_linker_0, # of connection points: 2
#     Edge 22, Type (0, 0), BuildingBlock: OJICUG_clean_linker_0, # of connection points: 2
#     Edge 23, Type (0, 0), BuildingBlock: OJICUG_clean_linker_0, # of connection points: 2
#     Edge 24, Type (0, 0), BuildingBlock: OJICUG_clean_linker_0, # of connection points: 2
#     Edge 25, Type (0, 0), BuildingBlock: OJICUG_clean_linker_0, # of connection points: 2
#     Edge 26, Type (0, 0), BuildingBlock: OJICUG_clean_linker_0, # of connection points: 2
#     Edge 27, Type (0, 0), BuildingBlock: OJICUG_clean_linker_0, # of connection points: 2
#     Edge 28, Type (0, 0), BuildingBlock: OJICUG_clean_linker_0, # of connection points: 2
#     Edge 29, Type (0, 0), BuildingBlock: OJICUG_clean_linker_0, # of connection points: 2
#     Edge 30, Type (0, 0), BuildingBlock: OJICUG_clean_linker_0, # of connection points: 2
#     Edge 31, Type (0, 0), BuildingBlock: OJICUG_clean_linker_0, # of connection points: 2
#     Edge 32, Type (0, 0), BuildingBlock: OJICUG_clean_linker_0, # of connection points: 2
#     Edge 33, Type (0, 0), BuildingBlock: OJICUG_clean_linker_0, # of connection points: 2
#     Edge 34, Type (0, 0), BuildingBlock: OJICUG_clean_linker_0, # of connection points: 2
#     Edge 35, Type (0, 0), BuildingBlock: OJICUG_clean_linker_0, # of connection points: 2
#     Edge 36, Type (0, 0), BuildingBlock: OJICUG_clean_linker_0, # of connection points: 2
#     Edge 37, Type (0, 0), BuildingBlock: OJICUG_clean_linker_0, # of connection points: 2
#     Edge 38, Type (0, 0), BuildingBlock: OJICUG_clean_linker_0, # of connection points: 2
#     Edge 39, Type (0, 0), BuildingBlock: OJICUG_clean_linker_0, # of connection points: 2
#     Edge 40, Type (0, 0), BuildingBlock: OJICUG_clean_linker_0, # of connection points: 2
#     Edge 41, Type (0, 0), BuildingBlock: OJICUG_clean_linker_0, # of connection points: 2
#     Edge 42, Type (0, 0), BuildingBlock: OJICUG_clean_linker_0, # of connection points: 2
#     Edge 43, Type (0, 0), BuildingBlock: OJICUG_clean_linker_0, # of connection points: 2
#     Edge 44, Type (0, 0), BuildingBlock: OJICUG_clean_linker_0, # of connection points: 2
#     Edge 45, Type (0, 0), BuildingBlock: OJICUG_clean_linker_0, # of connection points: 2
#     Edge 46, Type (0, 0), BuildingBlock: OJICUG_clean_linker_0, # of connection points: 2
#     Edge 47, Type (0, 0), BuildingBlock: OJICUG_clean_linker_0, # of connection points: 2
# Relax obj value: 0.103
# Max RMSD: 0.108
# Mean RMSD: 0.108
data_MOF--net-smw--node1-OJICUG_clean_sbu_0--edge1-OJICUG_clean_linker_0
_symmetry_space_group_name_H-M    P1
_symmetry_Int_Tables_number       1
_symmetry_cell_setting            triclinic
loop_
_symmetry_equiv_pos_as_xyz
'x, y, z'
_cell_length_a     40.731186
_cell_length_b     40.844457
_cell_length_c     17.279121
_cell_angle_alpha  89.998536
_cell_angle_beta   90.042756
_cell_angle_gamma 119.90534
loop_
_atom_site_label
_atom_site_type_symbol
_atom_site_fract_x
_atom_site_fract_y
_atom_site_fract_z
_atom_type_partial_charge
Sc0 Sc 0.50265 0.16656 -0.02223 0.0
Sc1 Sc 0.40255 0.11573 -0.02185 0.0
Sc2 Sc 0.45402 0.06724 0.97398 0.0
O3 O 0.45302 0.1165 -0.02332 0.0
C4 C 0.52186 0.11872 0.85908 0.0
C5 C 0.45181 0.18382 0.86232 0.0
C6 C 0.38642 0.04986 0.85878 0.0
C7 C 0.45219 0.18253 0.09637 0.0
C8 C 0.5205 0.11617 0.09337 0.0
C9 C 0.38528 0.04691 0.08899 0.0
O10 O 0.5271 0.14994 0.88592 0.0
O11 O 0.42031 0.15795 0.88863 0.0
O12 O 0.41308 0.04492 0.88281 0.0
O13 O 0.48389 0.18897 0.06942 0.0
O14 O 0.49501 0.0847 0.06626 0.0
O15 O 0.37954 0.07348 0.06819 0.0
O16 O 0.52693 0.14777 0.06616 0.0
O17 O 0.42067 0.15744 0.06858 0.0
O18 O 0.41047 0.04121 0.05928 0.0
O19 O 0.48356 0.19049 0.88966 0.0
O20 O 0.49719 0.08701 0.88641 0.0
O21 O 0.37875 0.07394 0.88725 0.0
Sc22 Sc 0.34239 0.50078 -0.02374 0.0
Sc23 Sc 0.29183 0.40105 -0.02309 0.0
Sc24 Sc 0.39184 0.45048 0.97461 0.0
O25 O 0.34199 0.45072 0.97595 0.0
C26 C 0.40944 0.5181 0.85826 0.0
C27 C 0.27448 0.45112 0.86004 0.0
C28 C 0.34107 0.3829 0.86017 0.0
C29 C 0.27525 0.4515 0.09407 0.0
C30 C 0.41011 0.51761 0.09259 0.0
C31 C 0.34218 0.38269 0.08996 0.0
O32 O 0.38407 0.52432 0.88547 0.0
O33 O 0.26816 0.41955 0.88711 0.0
O34 O 0.37281 0.40858 0.88549 0.0
O35 O 0.30072 0.48293 0.06697 0.0
O36 O 0.41599 0.49205 0.06542 0.0
O37 O 0.31018 0.37728 0.06722 0.0
O38 O 0.38494 0.52423 0.06555 0.0
O39 O 0.26868 0.4199 0.06685 0.0
O40 O 0.37351 0.40767 0.06172 0.0
O41 O 0.29993 0.48262 0.88701 0.0
O42 O 0.41572 0.4928 0.88532 0.0
O43 O 0.30938 0.37673 0.88644 0.0
Sc44 Sc 0.847 0.33649 0.97487 0.0
Sc45 Sc 0.89718 0.28666 0.97515 0.0
Sc46 Sc 0.94668 0.38647 -0.02383 0.0
O47 O 0.89698 0.33651 0.97541 0.0
C48 C 0.89703 0.40403 0.85836 0.0
C49 C 0.83017 0.26962 0.85699 0.0
C50 C 0.96538 0.337 0.86148 0.0
C51 C 0.82929 0.26886 0.0911 0.0
C52 C 0.89629 0.40364 0.09275 0.0
C53 C 0.96445 0.33661 0.09162 0.0
O54 O 0.86545 0.3788 0.88555 0.0
O55 O 0.85534 0.26317 0.88458 0.0
O56 O 0.97122 0.36828 0.8888 0.0
O57 O 0.82304 0.29417 0.06397 0.0
O58 O 0.92796 0.41015 0.06551 0.0
O59 O 0.939 0.30477 0.0662 0.0
O60 O 0.86478 0.37813 0.06571 0.0
O61 O 0.85485 0.26276 0.06451 0.0
O62 O 0.97023 0.36803 0.06525 0.0
O63 O 0.82383 0.29489 0.88409 0.0
O64 O 0.92864 0.41018 0.88541 0.0
O65 O 0.93939 0.30508 0.88516 0.0
Sc66 Sc 0.5133 0.84152 0.97464 0.0
Sc67 Sc 0.61344 0.89245 0.97404 0.0
Sc68 Sc 0.56184 0.94079 -0.02122 0.0
O69 O 0.56292 0.89158 0.97576 0.0
C70 C 0.49548 0.89199 0.85914 0.0
C71 C 0.56378 0.8257 0.85573 0.0
C72 C 0.63075 0.96146 0.86391 0.0
C73 C 0.56425 0.82425 0.08976 0.0
C74 C 0.49396 0.88921 0.09341 0.0
C75 C 0.62935 0.958 0.09406 0.0
O76 O 0.48897 0.86038 0.88652 0.0
O77 O 0.59529 0.85078 0.88354 0.0
O78 O 0.60558 0.96707 0.894 0.0
O79 O 0.53249 0.81755 0.06247 0.0
O80 O 0.51851 0.92091 0.06588 0.0
O81 O 0.63728 0.93422 0.06497 0.0
O82 O 0.48885 0.85801 0.0668 0.0
O83 O 0.59573 0.85018 0.0635 0.0
O84 O 0.60253 0.96277 0.07045 0.0
O85 O 0.53207 0.81923 0.88274 0.0
O86 O 0.52106 0.92346 0.88612 0.0
O87 O 0.63642 0.93477 0.8841 0.0
Sc88 Sc 0.67363 0.50737 0.97608 0.0
Sc89 Sc 0.7242 0.6071 0.97534 0.0
Sc90 Sc 0.62419 0.55767 -0.02211 0.0
O91 O 0.67403 0.55743 -0.02359 0.0
C92 C 0.6059 0.49057 0.85981 0.0
C93 C 0.7407 0.55663 0.85811 0.0
C94 C 0.67379 0.62551 0.86257 0.0
C95 C 0.7416 0.55703 0.09214 0.0
C96 C 0.6066 0.49003 0.09413 0.0
C97 C 0.67502 0.6252 0.09237 0.0
O98 O 0.63103 0.48392 0.8869 0.0
O99 O 0.74729 0.58824 0.88533 0.0
O100 O 0.6425 0.60055 0.89096 0.0
O101 O 0.71613 0.52554 0.06521 0.0
O102 O 0.60029 0.5153 0.06702 0.0
O103 O 0.70669 0.63144 0.06587 0.0
O104 O 0.632 0.48384 0.06698 0.0
O105 O 0.74792 0.5886 0.06507 0.0
O106 O 0.64326 0.59949 0.0672 0.0
O107 O 0.71525 0.52521 0.88526 0.0
O108 O 0.60004 0.51616 0.88693 0.0
O109 O 0.7058 0.63088 0.8851 0.0
Sc110 Sc 0.16897 0.67157 -0.02255 0.0
Sc111 Sc 0.11881 0.72141 -0.02292 0.0
Sc112 Sc 0.06928 0.6216 -0.02362 0.0
O113 O 0.119 0.67156 -0.02304 0.0
C114 C 0.11959 0.60439 0.85967 0.0
C115 C 0.18662 0.73911 0.86103 0.0
C116 C 0.0514 0.67141 0.86096 0.0
C117 C 0.18588 0.73852 0.09513 0.0
C118 C 0.119 0.60406 0.09405 0.0
C119 C 0.05074 0.67115 0.09111 0.0
O120 O 0.15111 0.62985 0.88681 0.0
O121 O 0.16111 0.74526 0.88768 0.0
O122 O 0.04558 0.64001 0.88758 0.0
O123 O 0.19222 0.71325 0.06805 0.0
O124 O 0.08739 0.59786 0.06691 0.0
O125 O 0.07662 0.70305 0.0671 0.0
O126 O 0.15058 0.62933 0.06696 0.0
O127 O 0.16068 0.74494 0.06761 0.0
O128 O 0.04491 0.63983 0.06404 0.0
O129 O 0.19288 0.71381 0.88817 0.0
O130 O 0.08792 0.59794 0.88682 0.0
O131 O 0.07697 0.70326 0.88606 0.0
Sc132 Sc 0.94551 0.5577 0.4754 0.0
Sc133 Sc 0.89485 0.60707 0.47634 0.0
Sc134 Sc 0.84575 0.50736 0.47576 0.0
O135 O 0.8954 0.55743 0.47585 0.0
C136 C 0.8959 0.49023 0.35838 0.0
C137 C 0.96276 0.62542 0.361 0.0
C138 C 0.82774 0.55696 0.35889 0.0
C139 C 0.96311 0.62533 0.59077 0.0
C140 C 0.89627 0.4904 0.59273 0.0
C141 C 0.82756 0.55666 0.59293 0.0
O142 O 0.92743 0.51565 0.38548 0.0
O143 O 0.93689 0.63133 0.38618 0.0
O144 O 0.8217 0.52547 0.38588 0.0
O145 O 0.96947 0.60022 0.56329 0.0
O146 O 0.86454 0.48391 0.56563 0.0
O147 O 0.85269 0.58827 0.56594 0.0
O148 O 0.92775 0.51586 0.5656 0.0
O149 O 0.9368 0.63093 0.56698 0.0
O150 O 0.82165 0.52523 0.56586 0.0
O151 O 0.96892 0.59994 0.38709 0.0
O152 O 0.86425 0.48386 0.38555 0.0
O153 O 0.85286 0.58853 0.38621 0.0
Sc154 Sc 0.39083 0.94085 0.47396 0.0
Sc155 Sc 0.29087 0.89236 0.47799 0.0
Sc156 Sc 0.34016 0.84153 0.47755 0.0
O157 O 0.34057 0.89158 0.47655 0.0
C158 C 0.40725 0.88938 0.35907 0.0
C159 C 0.34064 0.95824 0.35874 0.0
C160 C 0.27213 0.82434 0.36192 0.0
C161 C 0.34237 0.96116 0.58895 0.0
C162 C 0.40834 0.89192 0.59337 0.0
C163 C 0.27365 0.82548 0.59597 0.0
O164 O 0.41427 0.92109 0.38643 0.0
O165 O 0.30889 0.93419 0.38722 0.0
O166 O 0.29719 0.81765 0.38928 0.0
O167 O 0.37327 0.96689 0.55924 0.0
O168 O 0.38318 0.86031 0.56608 0.0
O169 O 0.26724 0.8506 0.56828 0.0
O170 O 0.41432 0.92339 0.56629 0.0
O171 O 0.31008 0.93456 0.56817 0.0
O172 O 0.29893 0.81906 0.56905 0.0
O173 O 0.37223 0.96315 0.38275 0.0
O174 O 0.38127 0.85817 0.38583 0.0
O175 O 0.26648 0.85019 0.38832 0.0
Sc176 Sc 0.45184 0.38654 0.47563 0.0
Sc177 Sc 0.40147 0.28674 0.47751 0.0
Sc178 Sc 0.50148 0.3365 0.4778 0.0
O179 O 0.45154 0.33656 0.47698 0.0
C180 C 0.51959 0.40354 0.35968 0.0
C181 C 0.38435 0.33653 0.36009 0.0
C182 C 0.45149 0.26874 0.36177 0.0
C183 C 0.38352 0.33731 0.59024 0.0
C184 C 0.51882 0.40417 0.59404 0.0
C185 C 0.45144 0.2698 0.59587 0.0
O186 O 0.49453 0.41018 0.38691 0.0
O187 O 0.37767 0.30474 0.38641 0.0
O188 O 0.48306 0.29399 0.38902 0.0
O189 O 0.4088 0.36849 0.56227 0.0
O190 O 0.52531 0.37902 0.56681 0.0
O191 O 0.41983 0.26329 0.56812 0.0
O192 O 0.49329 0.41022 0.56697 0.0
O193 O 0.3778 0.30533 0.56744 0.0
O194 O 0.48305 0.29509 0.56888 0.0
O195 O 0.41022 0.368 0.38582 0.0
O196 O 0.52542 0.37791 0.38666 0.0
O197 O 0.41983 0.26275 0.38818 0.0
Sc198 Sc 0.07047 0.45036 0.47713 0.0
Sc199 Sc 0.12114 0.40101 0.47589 0.0
Sc200 Sc 0.17023 0.50072 0.47661 0.0
O201 O 0.12059 0.45065 0.47652 0.0
C202 C 0.11965 0.51764 0.3597 0.0
C203 C 0.05277 0.38269 0.36178 0.0
C204 C 0.18838 0.45146 0.35924 0.0
C205 C 0.05336 0.3827 0.59157 0.0
C206 C 0.12011 0.51787 0.59404 0.0
C207 C 0.1883 0.45112 0.59328 0.0
O208 O 0.08817 0.49214 0.38676 0.0
O209 O 0.07916 0.37716 0.3853 0.0
O210 O 0.1943 0.48288 0.38637 0.0
O211 O 0.0472 0.40821 0.56568 0.0
O212 O 0.15176 0.5242 0.56695 0.0
O213 O 0.16318 0.41955 0.56597 0.0
O214 O 0.08859 0.49248 0.56688 0.0
O215 O 0.07914 0.37673 0.5661 0.0
O216 O 0.19432 0.48261 0.56635 0.0
O217 O 0.0464 0.40777 0.38947 0.0
O218 O 0.15138 0.52418 0.38686 0.0
O219 O 0.16326 0.41985 0.38623 0.0
Sc220 Sc 0.62512 0.06733 0.47879 0.0
Sc221 Sc 0.72506 0.11569 0.4742 0.0
Sc222 Sc 0.67583 0.1666 0.47486 0.0
O223 O 0.67539 0.11654 0.47588 0.0
C224 C 0.6076 0.11613 0.35915 0.0
C225 C 0.6734 0.0467 0.36393 0.0
C226 C 0.7422 0.18251 0.35612 0.0
C227 C 0.67539 0.05012 0.59409 0.0
C228 C 0.60874 0.11889 0.59342 0.0
C229 C 0.74396 0.18381 0.59016 0.0
O230 O 0.6017 0.08466 0.38609 0.0
O231 O 0.70575 0.07341 0.38412 0.0
O232 O 0.71694 0.18896 0.3831 0.0
O233 O 0.6438 0.04538 0.57051 0.0
O234 O 0.63484 0.1501 0.56689 0.0
O235 O 0.74955 0.15791 0.56381 0.0
O236 O 0.60161 0.0872 0.56586 0.0
O237 O 0.7071 0.07387 0.56499 0.0
O238 O 0.71892 0.19053 0.56284 0.0
O239 O 0.64262 0.04105 0.39404 0.0
O240 O 0.63267 0.14774 0.3866 0.0
O241 O 0.74862 0.15742 0.38385 0.0
Sc242 Sc 0.56417 0.62162 0.47688 0.0
Sc243 Sc 0.61457 0.72142 0.47474 0.0
Sc244 Sc 0.51455 0.67167 0.47452 0.0
O245 O 0.56449 0.67161 0.47538 0.0
C246 C 0.49723 0.60397 0.35836 0.0
C247 C 0.63255 0.67078 0.3623 0.0
C248 C 0.5646 0.7383 0.35628 0.0
C249 C 0.63162 0.67168 0.59245 0.0
C250 C 0.49639 0.60465 0.59271 0.0
C251 C 0.56457 0.7395 0.59037 0.0
O252 O 0.5228 0.59796 0.38536 0.0
O253 O 0.63822 0.70278 0.38485 0.0
O254 O 0.53299 0.71302 0.38328 0.0
O255 O 0.60569 0.64019 0.5669 0.0
O256 O 0.49061 0.63032 0.56581 0.0
O257 O 0.59622 0.74546 0.56402 0.0
O258 O 0.52141 0.59796 0.5654 0.0
O259 O 0.63838 0.70345 0.56587 0.0
O260 O 0.53299 0.71425 0.56313 0.0
O261 O 0.60731 0.63964 0.39046 0.0
O262 O 0.49071 0.62908 0.38565 0.0
O263 O 0.59621 0.74483 0.38408 0.0
C264 C 0.48617 0.23218 0.19768 0.0
C265 C 0.45197 0.20466 0.16413 0.0
H266 H 0.5129 0.27377 0.28619 0.0
C267 C 0.41759 0.19805 0.19686 0.0
H268 H 0.5132 0.23798 0.17422 0.0
C269 C 0.41742 0.21856 0.26138 0.0
C270 C 0.45162 0.24616 0.29478 0.0
H271 H 0.3907 0.177 0.17275 0.0
H272 H 0.3904 0.21282 0.28478 0.0
C273 C 0.486 0.25268 0.26219 0.0
C274 C 0.20449 0.41743 0.25886 0.0
C275 C 0.21099 0.4516 0.29198 0.0
H276 H 0.21937 0.39054 0.17069 0.0
C277 C 0.23871 0.48582 0.25907 0.0
H278 H 0.18332 0.39052 0.28245 0.0
C279 C 0.2594 0.48583 0.19461 0.0
C280 C 0.25285 0.45163 0.16149 0.0
H281 H 0.24443 0.51269 0.2829 0.0
H282 H 0.28058 0.5127 0.17091 0.0
C283 C 0.22514 0.41744 0.19445 0.0
C284 C 0.81309 0.21861 0.19132 0.0
C285 C 0.80656 0.24628 0.15805 0.0
H286 H 0.79814 0.17696 0.27972 0.0
C287 C 0.77871 0.25282 0.19066 0.0
H288 H 0.83435 0.21285 0.16791 0.0
C289 C 0.75798 0.23227 0.25504 0.0
C290 C 0.76458 0.20467 0.28845 0.0
H291 H 0.77295 0.27395 0.16675 0.0
H292 H 0.73676 0.23808 0.27851 0.0
C293 C 0.79235 0.19806 0.25571 0.0
C294 C 0.53028 0.75339 0.2543 0.0
C295 C 0.56458 0.76043 0.28825 0.0
H296 H 0.50321 0.76767 0.16524 0.0
C297 C 0.59883 0.78828 0.25552 0.0
H298 H 0.50334 0.73208 0.27768 0.0
C299 C 0.59877 0.80869 0.19067 0.0
C300 C 0.56445 0.80173 0.1569 0.0
H301 H 0.62581 0.79439 0.2799 0.0
H302 H 0.62569 0.83005 0.16732 0.0
C303 C 0.53021 0.77377 0.18948 0.0
C304 C 0.75739 0.52276 0.19287 0.0
C305 C 0.76404 0.55697 0.15964 0.0
H306 H 0.77199 0.49585 0.2817 0.0
C307 C 0.79163 0.59114 0.19295 0.0
H308 H 0.73629 0.49588 0.16896 0.0
C309 C 0.81203 0.59112 0.25789 0.0
C310 C 0.80537 0.55692 0.29117 0.0
H311 H 0.79745 0.61804 0.16913 0.0
H312 H 0.83312 0.61801 0.28178 0.0
C313 C 0.77782 0.52274 0.25782 0.0
C314 C 0.2221 0.80884 0.26094 0.0
C315 C 0.2495 0.80191 0.29459 0.0
H316 H 0.18074 0.79456 0.17175 0.0
C317 C 0.25587 0.77405 0.26176 0.0
H318 H 0.21649 0.83014 0.28447 0.0
C319 C 0.23545 0.75372 0.19684 0.0
C320 C 0.20811 0.7607 0.16307 0.0
H321 H 0.27682 0.76798 0.2859 0.0
H322 H 0.24112 0.73246 0.1733 0.0
C323 C 0.20165 0.78848 0.196 0.0
C324 C 0.53002 0.75559 0.68983 0.0
C325 C 0.56441 0.7621 0.6573 0.0
H326 H 0.50279 0.77028 0.77775 0.0
C327 C 0.5986 0.78972 0.69072 0.0
H328 H 0.50313 0.73449 0.66581 0.0
C329 C 0.5984 0.81022 0.75522 0.0
C330 C 0.56401 0.80361 0.78792 0.0
H331 H 0.62563 0.79546 0.66737 0.0
H332 H 0.62529 0.83128 0.77937 0.0
C333 C 0.52983 0.77608 0.75432 0.0
C334 C 0.79072 0.59069 0.75757 0.0
C335 C 0.76308 0.55651 0.79065 0.0
H336 H 0.8325 0.6176 0.66947 0.0
C337 C 0.75658 0.5223 0.75763 0.0
H338 H 0.79645 0.61759 0.78123 0.0
C339 C 0.77727 0.52231 0.69317 0.0
C340 C 0.80493 0.55652 0.66016 0.0
H341 H 0.73545 0.49543 0.78143 0.0
H342 H 0.7716 0.49544 0.66944 0.0
C343 C 0.81138 0.5907 0.69316 0.0
C344 C 0.22349 0.80989 0.69637 0.0
C345 C 0.25125 0.80328 0.66359 0.0
H346 H 0.18151 0.7951 0.78424 0.0
C347 C 0.25784 0.77567 0.69694 0.0
H348 H 0.21769 0.831 0.67241 0.0
C349 C 0.23713 0.75512 0.76133 0.0
C350 C 0.20931 0.76167 0.79401 0.0
H351 H 0.27906 0.76986 0.67342 0.0
H352 H 0.2429 0.73398 0.78521 0.0
C353 C 0.20277 0.78934 0.76078 0.0
C354 C 0.41723 0.21981 0.6966 0.0
C355 C 0.45147 0.24764 0.66383 0.0
H356 H 0.39038 0.17805 0.78482 0.0
C357 C 0.48578 0.25463 0.69769 0.0
H358 H 0.39024 0.21372 0.67228 0.0
C359 C 0.48586 0.23424 0.76249 0.0
C360 C 0.45162 0.20632 0.79514 0.0
H361 H 0.51272 0.27593 0.67426 0.0
H362 H 0.51286 0.24032 0.78668 0.0
C363 C 0.4173 0.19939 0.76143 0.0
C364 C 0.23822 0.48537 0.69436 0.0
C365 C 0.2107 0.45117 0.66097 0.0
H366 H 0.27971 0.51225 0.78328 0.0
C367 C 0.20411 0.41699 0.69418 0.0
H368 H 0.24399 0.51225 0.67053 0.0
C369 C 0.22452 0.41698 0.75912 0.0
C370 C 0.25205 0.45117 0.7925 0.0
H371 H 0.18306 0.39009 0.67024 0.0
H372 H 0.21874 0.39009 0.7829 0.0
C373 C 0.25865 0.48537 0.75932 0.0
C374 C 0.81443 0.21967 0.75611 0.0
C375 C 0.80799 0.24747 0.78899 0.0
H376 H 0.79959 0.17799 0.66768 0.0
C377 C 0.78069 0.25449 0.75513 0.0
H378 H 0.83532 0.21357 0.78042 0.0
C379 C 0.76028 0.23416 0.6902 0.0
C380 C 0.76663 0.20627 0.65743 0.0
H381 H 0.77503 0.27577 0.77863 0.0
H382 H 0.73937 0.24025 0.66601 0.0
C383 C 0.794 0.19931 0.69115 0.0
C384 C 0.35253 0.01711 0.2928 0.0
C385 C 0.34146 0.97868 0.28885 0.0
H386 H 0.37412 0.06918 0.23004 0.0
C387 C 0.33907 0.96182 0.21696 0.0
H388 H 0.35515 0.03058 0.34827 0.0
C389 C 0.35062 0.98383 0.15015 0.0
C390 C 0.36408 0.02279 0.15445 0.0
H391 H 0.33114 0.93228 0.21331 0.0
H392 H 0.35122 0.97087 0.09583 0.0
C393 C 0.3633 0.03905 0.22549 0.0
C394 C 0.33991 0.35252 0.29522 0.0
C395 C 0.36444 0.33778 0.29089 0.0
H396 H 0.31219 0.37724 0.23246 0.0
C397 C 0.37643 0.33224 0.2186 0.0
H398 H 0.33103 0.35758 0.35091 0.0
C399 C 0.36664 0.34439 0.15155 0.0
C400 C 0.34403 0.36132 0.15616 0.0
H401 H 0.39596 0.32154 0.21458 0.0
H402 H 0.37854 0.34264 0.09666 0.0
C403 C 0.32921 0.36371 0.22782 0.0
C404 C 0.99027 0.34317 0.29998 0.0
C405 C 0.02989 0.36141 0.29518 0.0
H406 H 0.93797 0.31929 0.23711 0.0
C407 C 0.04732 0.36528 0.22318 0.0
H408 H 0.97648 0.34035 0.35516 0.0
C409 C 0.02543 0.35417 0.15579 0.0
C410 C 0.98598 0.33805 0.16037 0.0
H411 H 0.07791 0.37985 0.21849 0.0
H412 H 0.03942 0.3603 0.10002 0.0
C413 C 0.96835 0.33107 0.23284 0.0
C414 C 0.63306 0.96155 0.23585 0.0
C415 C 0.64874 0.97809 0.16443 0.0
H416 H 0.62917 0.9709 0.35648 0.0
C417 C 0.67729 0.01611 0.16106 0.0
H418 H 0.61057 0.93235 0.23901 0.0
C419 C 0.68842 0.03806 0.2284 0.0
C420 C 0.67024 0.02225 0.29883 0.0
H421 H 0.68911 0.02934 0.10588 0.0
H422 H 0.7087 0.06798 0.22418 0.0
C423 C 0.64357 0.98356 0.30265 0.0
C424 C 0.65822 0.66924 0.15565 0.0
C425 C 0.67434 0.64594 0.16051 0.0
H426 H 0.63358 0.69699 0.2183 0.0
C427 C 0.68255 0.63643 0.23303 0.0
H428 H 0.65122 0.67628 0.09987 0.0
C429 C 0.67159 0.64731 0.30026 0.0
C430 C 0.6533 0.66864 0.29536 0.0
H431 H 0.69441 0.61793 0.2375 0.0
H432 H 0.67523 0.63714 0.35573 0.0
C433 C 0.64827 0.68108 0.22303 0.0
C434 C 0.96717 0.63993 0.2214 0.0
C435 C 0.98491 0.64653 0.29379 0.0
H436 H 0.97495 0.64275 0.09832 0.0
C437 C 0.02454 0.66716 0.29876 0.0
H438 H 0.93659 0.62347 0.21672 0.0
C439 C 0.04634 0.67911 0.2315 0.0
C440 C 0.0286 0.66946 0.15894 0.0
H441 H 0.03856 0.67198 0.35434 0.0
H442 H 0.07691 0.69284 0.23608 0.0
C443 C 0.98897 0.65086 0.15406 0.0
C444 C 0.67541 0.04658 0.73589 0.0
C445 C 0.67469 0.03006 0.66448 0.0
H446 H 0.66209 0.03723 0.85645 0.0
C447 C 0.66535 0.99208 0.66113 0.0
H448 H 0.68203 0.07576 0.73903 0.0
C449 C 0.65452 0.97013 0.72846 0.0
C450 C 0.65203 0.98592 0.79886 0.0
H451 H 0.66403 0.97885 0.60597 0.0
H452 H 0.64498 0.94024 0.72424 0.0
C453 C 0.66392 0.02458 0.80266 0.0
C454 C 0.6872 0.64519 0.72506 0.0
C455 C 0.67185 0.64694 0.79655 0.0
H456 H 0.68583 0.6518 0.60202 0.0
C457 C 0.6487 0.66328 0.80104 0.0
H458 H 0.70465 0.63212 0.72051 0.0
C459 C 0.63889 0.67541 0.73402 0.0
C460 C 0.65144 0.67049 0.66183 0.0
H461 H 0.63641 0.66456 0.85578 0.0
H462 H 0.61896 0.68563 0.7379 0.0
C463 C 0.67651 0.65638 0.65765 0.0
C464 C 0.9683 0.64196 0.7297 0.0
C465 C 0.98582 0.64654 0.65757 0.0
H466 H 0.97617 0.6464 0.85286 0.0
C467 C 0.02546 0.66544 0.65273 0.0
H468 H 0.9377 0.62687 0.73441 0.0
C469 C 0.04736 0.67755 0.7199 0.0
C470 C 0.02969 0.66988 0.79242 0.0
H471 H 0.03932 0.6688 0.59742 0.0
H472 H 0.07781 0.68987 0.71554 0.0
C473 C 0.99017 0.65305 0.79709 0.0
C474 C 0.32831 0.969 0.7255 0.0
C475 C 0.34529 0.98527 0.65445 0.0
H476 H 0.32868 0.97747 0.8483 0.0
C477 C 0.37073 0.02425 0.65017 0.0
H478 H 0.30905 0.93886 0.73001 0.0
C479 C 0.38118 0.04627 0.71701 0.0
C480 C 0.36678 0.0294 0.7889 0.0
H481 H 0.38423 0.03722 0.59584 0.0
H482 H 0.40275 0.07581 0.71338 0.0
C483 C 0.33947 0.99095 0.79282 0.0
C484 C 0.35859 0.33936 0.79714 0.0
C485 C 0.34182 0.36207 0.79222 0.0
H486 H 0.3837 0.31207 0.73451 0.0
C487 C 0.33297 0.37097 0.7197 0.0
H488 H 0.36607 0.33279 0.8529 0.0
C489 C 0.34394 0.3601 0.65245 0.0
C490 C 0.36284 0.33936 0.65737 0.0
H491 H 0.32061 0.38904 0.71516 0.0
H492 H 0.33981 0.36984 0.59689 0.0
C493 C 0.36853 0.32751 0.72978 0.0
C494 C 0.97003 0.32837 0.72136 0.0
C495 C 0.98772 0.33881 0.79389 0.0
H496 H 0.97776 0.33485 0.5984 0.0
C497 C 0.02737 0.35819 0.7988 0.0
H498 H 0.93943 0.31401 0.71673 0.0
C499 C 0.04918 0.36911 0.73149 0.0
C500 C 0.0314 0.3617 0.65903 0.0
H501 H 0.04135 0.36689 0.8545 0.0
H502 H 0.07972 0.38616 0.73615 0.0
C503 C 0.99181 0.3403 0.65406 0.0
C504 C 0.53661 0.08186 0.19382 0.0
C505 C 0.54304 0.11606 0.16085 0.0
H506 H 0.55165 0.05497 0.28202 0.0
C507 C 0.57071 0.15023 0.19411 0.0
H508 H 0.51549 0.05498 0.16995 0.0
C509 C 0.5914 0.15022 0.25863 0.0
C510 C 0.58499 0.11604 0.29163 0.0
H511 H 0.57641 0.17713 0.17053 0.0
H512 H 0.61251 0.17711 0.28244 0.0
C513 C 0.55733 0.08185 0.25837 0.0
C514 C 0.42634 0.56768 0.19327 0.0
C515 C 0.4328 0.53996 0.16001 0.0
H516 H 0.44129 0.60935 0.28161 0.0
C517 C 0.4605 0.53327 0.19301 0.0
H518 H 0.40519 0.57357 0.16965 0.0
C519 C 0.48122 0.5538 0.25762 0.0
C520 C 0.47473 0.58151 0.29086 0.0
H521 H 0.46621 0.51209 0.16914 0.0
H522 H 0.50239 0.54795 0.28133 0.0
C523 C 0.44703 0.58817 0.25782 0.0
C524 C 0.86178 0.43993 0.25802 0.0
C525 C 0.89601 0.46778 0.29096 0.0
H526 H 0.83493 0.39808 0.16989 0.0
C527 C 0.93034 0.4745 0.25769 0.0
H528 H 0.83478 0.43401 0.28189 0.0
C529 C 0.93042 0.45393 0.19315 0.0
C530 C 0.89617 0.42609 0.16019 0.0
H531 H 0.95727 0.49577 0.28128 0.0
H532 H 0.95742 0.45986 0.16929 0.0
C533 C 0.86186 0.41935 0.19349 0.0
C534 C 0.4231 0.85481 0.25875 0.0
C535 C 0.42962 0.88904 0.29169 0.0
H536 H 0.43807 0.82789 0.17038 0.0
C537 C 0.45721 0.92318 0.25836 0.0
H538 H 0.402 0.82797 0.28274 0.0
C539 C 0.47774 0.92313 0.1938 0.0
C540 C 0.47129 0.88894 0.16081 0.0
H541 H 0.46298 0.95013 0.28187 0.0
H542 H 0.49881 0.95004 0.17002 0.0
C543 C 0.44373 0.85475 0.1941 0.0
C544 C 0.55645 0.47429 0.19476 0.0
C545 C 0.58407 0.46757 0.16155 0.0
H546 H 0.51472 0.45969 0.28305 0.0
C547 C 0.59049 0.43976 0.19455 0.0
H548 H 0.55076 0.49553 0.17114 0.0
C549 C 0.56981 0.4192 0.25908 0.0
C550 C 0.54221 0.42594 0.29229 0.0
H551 H 0.61158 0.43385 0.17071 0.0
H552 H 0.57546 0.39794 0.28274 0.0
C553 C 0.5358 0.45376 0.25928 0.0
C554 C 0.15358 0.56779 0.25922 0.0
C555 C 0.11939 0.54002 0.29227 0.0
H556 H 0.18034 0.60952 0.17103 0.0
C557 C 0.08502 0.53329 0.25909 0.0
H558 H 0.18061 0.5737 0.28299 0.0
C559 C 0.08487 0.55383 0.19452 0.0
C560 C 0.11908 0.5816 0.16148 0.0
H561 H 0.05812 0.51207 0.2828 0.0
H562 H 0.05785 0.54793 0.17071 0.0
C563 C 0.15343 0.5883 0.19468 0.0
C564 C 0.47946 0.92625 0.75845 0.0
C565 C 0.47294 0.89207 0.79166 0.0
H566 H 0.46448 0.95311 0.67007 0.0
C567 C 0.44517 0.85789 0.75863 0.0
H568 H 0.50067 0.95314 0.78213 0.0
C569 C 0.42447 0.85787 0.69411 0.0
C570 C 0.43096 0.89203 0.66088 0.0
H571 H 0.4394 0.831 0.7824 0.0
H572 H 0.40327 0.83096 0.67049 0.0
C573 C 0.45873 0.92623 0.6939 0.0
C574 C 0.58965 0.44046 0.75924 0.0
C575 C 0.58322 0.46822 0.79238 0.0
H576 H 0.57469 0.39875 0.67098 0.0
C577 C 0.55556 0.47493 0.75927 0.0
H578 H 0.61077 0.43454 0.78294 0.0
C579 C 0.53485 0.45439 0.69465 0.0
C580 C 0.54132 0.42664 0.66153 0.0
H581 H 0.54988 0.49615 0.78305 0.0
H582 H 0.51372 0.46027 0.67086 0.0
C583 C 0.56898 0.41995 0.69468 0.0
C584 C 0.15419 0.5681 0.69454 0.0
C585 C 0.11997 0.54031 0.66145 0.0
H586 H 0.18098 0.6099 0.78278 0.0
C587 C 0.08563 0.53362 0.69458 0.0
H588 H 0.18119 0.57399 0.67078 0.0
C589 C 0.08551 0.55417 0.75912 0.0
C590 C 0.11973 0.58196 0.79222 0.0
H591 H 0.0587 0.51239 0.67088 0.0
H592 H 0.05849 0.54827 0.78286 0.0
C593 C 0.15407 0.58866 0.75907 0.0
C594 C 0.59295 0.15335 0.69415 0.0
C595 C 0.58633 0.11916 0.66079 0.0
H596 H 0.57802 0.18014 0.78285 0.0
C597 C 0.55857 0.08497 0.69369 0.0
H598 H 0.61417 0.18022 0.67049 0.0
C599 C 0.53799 0.08492 0.75825 0.0
C600 C 0.54455 0.11906 0.79167 0.0
H601 H 0.55271 0.05806 0.66985 0.0
H602 H 0.51681 0.05798 0.7817 0.0
C603 C 0.57227 0.1533 0.75879 0.0
C604 C 0.48016 0.55437 0.69299 0.0
C605 C 0.47378 0.58224 0.6601 0.0
H606 H 0.46519 0.51255 0.78102 0.0
C607 C 0.44623 0.589 0.69344 0.0
H608 H 0.50121 0.54841 0.66911 0.0
C609 C 0.42556 0.56842 0.75797 0.0
C610 C 0.43195 0.54057 0.79084 0.0
H611 H 0.4406 0.61029 0.66987 0.0
H612 H 0.40451 0.57435 0.7819 0.0
C613 C 0.45952 0.53382 0.7575 0.0
C614 C 0.86237 0.44031 0.69334 0.0
C615 C 0.89654 0.46803 0.66014 0.0
H616 H 0.83566 0.39863 0.78164 0.0
C617 C 0.93093 0.47471 0.69318 0.0
H618 H 0.83533 0.43443 0.66969 0.0
C619 C 0.93112 0.45419 0.75775 0.0
C620 C 0.89693 0.42648 0.79093 0.0
H621 H 0.95783 0.49589 0.66936 0.0
H622 H 0.95815 0.46006 0.78145 0.0
C623 C 0.86256 0.41981 0.75787 0.0
loop_
_geom_bond_atom_site_label_1
_geom_bond_atom_site_label_2
_geom_bond_distance
_geom_bond_site_symmetry_2
_ccdc_geom_bond_type
Sc0 O3 2.025 . S
Sc0 O10 2.105 1_554 S
Sc0 O13 2.105 . S
Sc0 O16 2.105 . S
Sc0 O19 2.105 1_554 S
Sc1 O3 2.025 . S
Sc1 O11 2.105 1_554 S
Sc1 O15 2.105 . S
Sc1 O17 2.105 . S
Sc1 O21 2.105 1_554 S
Sc2 O3 2.025 . S
Sc2 O12 2.105 1_554 S
Sc2 O14 2.105 . S
Sc2 O18 2.105 . S
Sc2 O20 2.105 1_554 S
O3 Sc0 2.025 . S
O3 Sc1 2.025 . S
O3 Sc2 2.025 . S
C4 O10 1.268 . S
C4 O20 1.268 . S
C5 O11 1.268 . S
C5 O19 1.268 . S
C6 O12 1.268 . S
C6 O21 1.268 . S
C7 O13 1.268 . S
C7 O17 1.268 . S
C8 O14 1.268 . S
C8 O16 1.268 . S
C9 O15 1.268 . S
C9 O18 1.268 . S
O10 Sc0 2.105 1_556 S
O10 C4 1.268 . S
O11 Sc1 2.105 1_556 S
O11 C5 1.268 . S
O12 Sc2 2.105 1_556 S
O12 C6 1.268 . S
O13 Sc0 2.105 . S
O13 C7 1.268 . S
O14 Sc2 2.105 . S
O14 C8 1.268 . S
O15 Sc1 2.105 . S
O15 C9 1.268 . S
O16 Sc0 2.105 . S
O16 C8 1.268 . S
O17 Sc1 2.105 . S
O17 C7 1.268 . S
O18 Sc2 2.105 . S
O18 C9 1.268 . S
O19 Sc0 2.105 1_556 S
O19 C5 1.268 . S
O20 Sc2 2.105 1_556 S
O20 C4 1.268 . S
O21 Sc1 2.105 1_556 S
O21 C6 1.268 . S
Sc22 O25 2.025 . S
Sc22 O32 2.105 1_554 S
Sc22 O35 2.105 . S
Sc22 O38 2.105 . S
Sc22 O41 2.105 1_554 S
Sc23 O25 2.025 . S
Sc23 O33 2.105 1_554 S
Sc23 O37 2.105 . S
Sc23 O39 2.105 . S
Sc23 O43 2.105 1_554 S
Sc24 O25 2.025 . S
Sc24 O34 2.105 1_554 S
Sc24 O36 2.105 . S
Sc24 O40 2.105 . S
Sc24 O42 2.105 1_554 S
O25 Sc22 2.025 . S
O25 Sc23 2.025 . S
O25 Sc24 2.025 . S
C26 O32 1.268 . S
C26 O42 1.268 . S
C27 O33 1.268 . S
C27 O41 1.268 . S
C28 O34 1.268 . S
C28 O43 1.268 . S
C29 O35 1.268 . S
C29 O39 1.268 . S
C30 O36 1.268 . S
C30 O38 1.268 . S
C31 O37 1.268 . S
C31 O40 1.268 . S
O32 Sc22 2.105 1_556 S
O32 C26 1.268 . S
O33 Sc23 2.105 1_556 S
O33 C27 1.268 . S
O34 Sc24 2.105 1_556 S
O34 C28 1.268 . S
O35 Sc22 2.105 . S
O35 C29 1.268 . S
O36 Sc24 2.105 . S
O36 C30 1.268 . S
O37 Sc23 2.105 . S
O37 C31 1.268 . S
O38 Sc22 2.105 . S
O38 C30 1.268 . S
O39 Sc23 2.105 . S
O39 C29 1.268 . S
O40 Sc24 2.105 . S
O40 C31 1.268 . S
O41 Sc22 2.105 1_556 S
O41 C27 1.268 . S
O42 Sc24 2.105 1_556 S
O42 C26 1.268 . S
O43 Sc23 2.105 1_556 S
O43 C28 1.268 . S
Sc44 O47 2.025 . S
Sc44 O54 2.105 1_554 S
Sc44 O57 2.105 . S
Sc44 O60 2.105 . S
Sc44 O63 2.105 1_554 S
Sc45 O47 2.025 . S
Sc45 O55 2.105 1_554 S
Sc45 O59 2.105 . S
Sc45 O61 2.105 . S
Sc45 O65 2.105 1_554 S
Sc46 O47 2.025 . S
Sc46 O56 2.105 1_554 S
Sc46 O58 2.105 . S
Sc46 O62 2.105 . S
Sc46 O64 2.105 1_554 S
O47 Sc44 2.025 . S
O47 Sc45 2.025 . S
O47 Sc46 2.025 . S
C48 O54 1.268 . S
C48 O64 1.268 . S
C49 O55 1.268 . S
C49 O63 1.268 . S
C50 O56 1.268 . S
C50 O65 1.268 . S
C51 O57 1.268 . S
C51 O61 1.268 . S
C52 O58 1.268 . S
C52 O60 1.268 . S
C53 O59 1.268 . S
C53 O62 1.268 . S
O54 Sc44 2.105 1_556 S
O54 C48 1.268 . S
O55 Sc45 2.105 1_556 S
O55 C49 1.268 . S
O56 Sc46 2.105 1_556 S
O56 C50 1.268 . S
O57 Sc44 2.105 . S
O57 C51 1.268 . S
O58 Sc46 2.105 . S
O58 C52 1.268 . S
O59 Sc45 2.105 . S
O59 C53 1.268 . S
O60 Sc44 2.105 . S
O60 C52 1.268 . S
O61 Sc45 2.105 . S
O61 C51 1.268 . S
O62 Sc46 2.105 . S
O62 C53 1.268 . S
O63 Sc44 2.105 1_556 S
O63 C49 1.268 . S
O64 Sc46 2.105 1_556 S
O64 C48 1.268 . S
O65 Sc45 2.105 1_556 S
O65 C50 1.268 . S
Sc66 O69 2.025 . S
Sc66 O76 2.105 1_554 S
Sc66 O79 2.105 . S
Sc66 O82 2.105 . S
Sc66 O85 2.105 1_554 S
Sc67 O69 2.025 . S
Sc67 O77 2.105 1_554 S
Sc67 O81 2.105 . S
Sc67 O83 2.105 . S
Sc67 O87 2.105 1_554 S
Sc68 O69 2.025 . S
Sc68 O78 2.105 1_554 S
Sc68 O80 2.105 . S
Sc68 O84 2.105 . S
Sc68 O86 2.105 1_554 S
O69 Sc66 2.025 . S
O69 Sc67 2.025 . S
O69 Sc68 2.025 . S
C70 O76 1.268 . S
C70 O86 1.268 . S
C71 O77 1.268 . S
C71 O85 1.268 . S
C72 O78 1.268 . S
C72 O87 1.268 . S
C73 O79 1.268 . S
C73 O83 1.268 . S
C74 O80 1.268 . S
C74 O82 1.268 . S
C75 O81 1.268 . S
C75 O84 1.268 . S
O76 Sc66 2.105 1_556 S
O76 C70 1.268 . S
O77 Sc67 2.105 1_556 S
O77 C71 1.268 . S
O78 Sc68 2.105 1_556 S
O78 C72 1.268 . S
O79 Sc66 2.105 . S
O79 C73 1.268 . S
O80 Sc68 2.105 . S
O80 C74 1.268 . S
O81 Sc67 2.105 . S
O81 C75 1.268 . S
O82 Sc66 2.105 . S
O82 C74 1.268 . S
O83 Sc67 2.105 . S
O83 C73 1.268 . S
O84 Sc68 2.105 . S
O84 C75 1.268 . S
O85 Sc66 2.105 1_556 S
O85 C71 1.268 . S
O86 Sc68 2.105 1_556 S
O86 C70 1.268 . S
O87 Sc67 2.105 1_556 S
O87 C72 1.268 . S
Sc88 O91 2.025 . S
Sc88 O98 2.105 1_554 S
Sc88 O101 2.105 . S
Sc88 O104 2.105 . S
Sc88 O107 2.105 1_554 S
Sc89 O91 2.025 . S
Sc89 O99 2.105 1_554 S
Sc89 O103 2.105 . S
Sc89 O105 2.105 . S
Sc89 O109 2.105 1_554 S
Sc90 O91 2.025 . S
Sc90 O100 2.105 1_554 S
Sc90 O102 2.105 . S
Sc90 O106 2.105 . S
Sc90 O108 2.105 1_554 S
O91 Sc88 2.025 . S
O91 Sc89 2.025 . S
O91 Sc90 2.025 . S
C92 O98 1.268 . S
C92 O108 1.268 . S
C93 O99 1.268 . S
C93 O107 1.268 . S
C94 O100 1.268 . S
C94 O109 1.268 . S
C95 O101 1.268 . S
C95 O105 1.268 . S
C96 O102 1.268 . S
C96 O104 1.268 . S
C97 O103 1.268 . S
C97 O106 1.268 . S
O98 Sc88 2.105 1_556 S
O98 C92 1.268 . S
O99 Sc89 2.105 1_556 S
O99 C93 1.268 . S
O100 Sc90 2.105 1_556 S
O100 C94 1.268 . S
O101 Sc88 2.105 . S
O101 C95 1.268 . S
O102 Sc90 2.105 . S
O102 C96 1.268 . S
O103 Sc89 2.105 . S
O103 C97 1.268 . S
O104 Sc88 2.105 . S
O104 C96 1.268 . S
O105 Sc89 2.105 . S
O105 C95 1.268 . S
O106 Sc90 2.105 . S
O106 C97 1.268 . S
O107 Sc88 2.105 1_556 S
O107 C93 1.268 . S
O108 Sc90 2.105 1_556 S
O108 C92 1.268 . S
O109 Sc89 2.105 1_556 S
O109 C94 1.268 . S
Sc110 O113 2.025 . S
Sc110 O120 2.105 1_554 S
Sc110 O123 2.105 . S
Sc110 O126 2.105 . S
Sc110 O129 2.105 1_554 S
Sc111 O113 2.025 . S
Sc111 O121 2.105 1_554 S
Sc111 O125 2.105 . S
Sc111 O127 2.105 . S
Sc111 O131 2.105 1_554 S
Sc112 O113 2.025 . S
Sc112 O122 2.105 1_554 S
Sc112 O124 2.105 . S
Sc112 O128 2.105 . S
Sc112 O130 2.105 1_554 S
O113 Sc110 2.025 . S
O113 Sc111 2.025 . S
O113 Sc112 2.025 . S
C114 O120 1.268 . S
C114 O130 1.268 . S
C115 O121 1.268 . S
C115 O129 1.268 . S
C116 O122 1.268 . S
C116 O131 1.268 . S
C117 O123 1.268 . S
C117 O127 1.268 . S
C118 O124 1.268 . S
C118 O126 1.268 . S
C119 O125 1.268 . S
C119 O128 1.268 . S
O120 Sc110 2.105 1_556 S
O120 C114 1.268 . S
O121 Sc111 2.105 1_556 S
O121 C115 1.268 . S
O122 Sc112 2.105 1_556 S
O122 C116 1.268 . S
O123 Sc110 2.105 . S
O123 C117 1.268 . S
O124 Sc112 2.105 . S
O124 C118 1.268 . S
O125 Sc111 2.105 . S
O125 C119 1.268 . S
O126 Sc110 2.105 . S
O126 C118 1.268 . S
O127 Sc111 2.105 . S
O127 C117 1.268 . S
O128 Sc112 2.105 . S
O128 C119 1.268 . S
O129 Sc110 2.105 1_556 S
O129 C115 1.268 . S
O130 Sc112 2.105 1_556 S
O130 C114 1.268 . S
O131 Sc111 2.105 1_556 S
O131 C116 1.268 . S
Sc132 O135 2.025 . S
Sc132 O142 2.105 . S
Sc132 O145 2.105 . S
Sc132 O148 2.105 . S
Sc132 O151 2.105 . S
Sc133 O135 2.025 . S
Sc133 O143 2.105 . S
Sc133 O147 2.105 . S
Sc133 O149 2.105 . S
Sc133 O153 2.105 . S
Sc134 O135 2.025 . S
Sc134 O144 2.105 . S
Sc134 O146 2.105 . S
Sc134 O150 2.105 . S
Sc134 O152 2.105 . S
O135 Sc132 2.025 . S
O135 Sc133 2.025 . S
O135 Sc134 2.025 . S
C136 O142 1.268 . S
C136 O152 1.268 . S
C137 O143 1.268 . S
C137 O151 1.268 . S
C138 O144 1.268 . S
C138 O153 1.268 . S
C139 O145 1.268 . S
C139 O149 1.268 . S
C140 O146 1.268 . S
C140 O148 1.268 . S
C141 O147 1.268 . S
C141 O150 1.268 . S
O142 Sc132 2.105 . S
O142 C136 1.268 . S
O143 Sc133 2.105 . S
O143 C137 1.268 . S
O144 Sc134 2.105 . S
O144 C138 1.268 . S
O145 Sc132 2.105 . S
O145 C139 1.268 . S
O146 Sc134 2.105 . S
O146 C140 1.268 . S
O147 Sc133 2.105 . S
O147 C141 1.268 . S
O148 Sc132 2.105 . S
O148 C140 1.268 . S
O149 Sc133 2.105 . S
O149 C139 1.268 . S
O150 Sc134 2.105 . S
O150 C141 1.268 . S
O151 Sc132 2.105 . S
O151 C137 1.268 . S
O152 Sc134 2.105 . S
O152 C136 1.268 . S
O153 Sc133 2.105 . S
O153 C138 1.268 . S
Sc154 O157 2.025 . S
Sc154 O164 2.105 . S
Sc154 O167 2.105 . S
Sc154 O170 2.105 . S
Sc154 O173 2.105 . S
Sc155 O157 2.025 . S
Sc155 O165 2.105 . S
Sc155 O169 2.105 . S
Sc155 O171 2.105 . S
Sc155 O175 2.105 . S
Sc156 O157 2.025 . S
Sc156 O166 2.105 . S
Sc156 O168 2.105 . S
Sc156 O172 2.105 . S
Sc156 O174 2.105 . S
O157 Sc154 2.025 . S
O157 Sc155 2.025 . S
O157 Sc156 2.025 . S
C158 O164 1.268 . S
C158 O174 1.268 . S
C159 O165 1.268 . S
C159 O173 1.268 . S
C160 O166 1.268 . S
C160 O175 1.268 . S
C161 O167 1.268 . S
C161 O171 1.268 . S
C162 O168 1.268 . S
C162 O170 1.268 . S
C163 O169 1.268 . S
C163 O172 1.268 . S
O164 Sc154 2.105 . S
O164 C158 1.268 . S
O165 Sc155 2.105 . S
O165 C159 1.268 . S
O166 Sc156 2.105 . S
O166 C160 1.268 . S
O167 Sc154 2.105 . S
O167 C161 1.268 . S
O168 Sc156 2.105 . S
O168 C162 1.268 . S
O169 Sc155 2.105 . S
O169 C163 1.268 . S
O170 Sc154 2.105 . S
O170 C162 1.268 . S
O171 Sc155 2.105 . S
O171 C161 1.268 . S
O172 Sc156 2.105 . S
O172 C163 1.268 . S
O173 Sc154 2.105 . S
O173 C159 1.268 . S
O174 Sc156 2.105 . S
O174 C158 1.268 . S
O175 Sc155 2.105 . S
O175 C160 1.268 . S
Sc176 O179 2.025 . S
Sc176 O186 2.105 . S
Sc176 O189 2.105 . S
Sc176 O192 2.105 . S
Sc176 O195 2.105 . S
Sc177 O179 2.025 . S
Sc177 O187 2.105 . S
Sc177 O191 2.105 . S
Sc177 O193 2.105 . S
Sc177 O197 2.105 . S
Sc178 O179 2.025 . S
Sc178 O188 2.105 . S
Sc178 O190 2.105 . S
Sc178 O194 2.105 . S
Sc178 O196 2.105 . S
O179 Sc176 2.025 . S
O179 Sc177 2.025 . S
O179 Sc178 2.025 . S
C180 O186 1.268 . S
C180 O196 1.268 . S
C181 O187 1.268 . S
C181 O195 1.268 . S
C182 O188 1.268 . S
C182 O197 1.268 . S
C183 O189 1.268 . S
C183 O193 1.268 . S
C184 O190 1.268 . S
C184 O192 1.268 . S
C185 O191 1.268 . S
C185 O194 1.268 . S
O186 Sc176 2.105 . S
O186 C180 1.268 . S
O187 Sc177 2.105 . S
O187 C181 1.268 . S
O188 Sc178 2.105 . S
O188 C182 1.268 . S
O189 Sc176 2.105 . S
O189 C183 1.268 . S
O190 Sc178 2.105 . S
O190 C184 1.268 . S
O191 Sc177 2.105 . S
O191 C185 1.268 . S
O192 Sc176 2.105 . S
O192 C184 1.268 . S
O193 Sc177 2.105 . S
O193 C183 1.268 . S
O194 Sc178 2.105 . S
O194 C185 1.268 . S
O195 Sc176 2.105 . S
O195 C181 1.268 . S
O196 Sc178 2.105 . S
O196 C180 1.268 . S
O197 Sc177 2.105 . S
O197 C182 1.268 . S
Sc198 O201 2.025 . S
Sc198 O208 2.105 . S
Sc198 O211 2.105 . S
Sc198 O214 2.105 . S
Sc198 O217 2.105 . S
Sc199 O201 2.025 . S
Sc199 O209 2.105 . S
Sc199 O213 2.105 . S
Sc199 O215 2.105 . S
Sc199 O219 2.105 . S
Sc200 O201 2.025 . S
Sc200 O210 2.105 . S
Sc200 O212 2.105 . S
Sc200 O216 2.105 . S
Sc200 O218 2.105 . S
O201 Sc198 2.025 . S
O201 Sc199 2.025 . S
O201 Sc200 2.025 . S
C202 O208 1.268 . S
C202 O218 1.268 . S
C203 O209 1.268 . S
C203 O217 1.268 . S
C204 O210 1.268 . S
C204 O219 1.268 . S
C205 O211 1.268 . S
C205 O215 1.268 . S
C206 O212 1.268 . S
C206 O214 1.268 . S
C207 O213 1.268 . S
C207 O216 1.268 . S
O208 Sc198 2.105 . S
O208 C202 1.268 . S
O209 Sc199 2.105 . S
O209 C203 1.268 . S
O210 Sc200 2.105 . S
O210 C204 1.268 . S
O211 Sc198 2.105 . S
O211 C205 1.268 . S
O212 Sc200 2.105 . S
O212 C206 1.268 . S
O213 Sc199 2.105 . S
O213 C207 1.268 . S
O214 Sc198 2.105 . S
O214 C206 1.268 . S
O215 Sc199 2.105 . S
O215 C205 1.268 . S
O216 Sc200 2.105 . S
O216 C207 1.268 . S
O217 Sc198 2.105 . S
O217 C203 1.268 . S
O218 Sc200 2.105 . S
O218 C202 1.268 . S
O219 Sc199 2.105 . S
O219 C204 1.268 . S
Sc220 O223 2.025 . S
Sc220 O230 2.105 . S
Sc220 O233 2.105 . S
Sc220 O236 2.105 . S
Sc220 O239 2.105 . S
Sc221 O223 2.025 . S
Sc221 O231 2.105 . S
Sc221 O235 2.105 . S
Sc221 O237 2.105 . S
Sc221 O241 2.105 . S
Sc222 O223 2.025 . S
Sc222 O232 2.105 . S
Sc222 O234 2.105 . S
Sc222 O238 2.105 . S
Sc222 O240 2.105 . S
O223 Sc220 2.025 . S
O223 Sc221 2.025 . S
O223 Sc222 2.025 . S
C224 O230 1.268 . S
C224 O240 1.268 . S
C225 O231 1.268 . S
C225 O239 1.268 . S
C226 O232 1.268 . S
C226 O241 1.268 . S
C227 O233 1.268 . S
C227 O237 1.268 . S
C228 O234 1.268 . S
C228 O236 1.268 . S
C229 O235 1.268 . S
C229 O238 1.268 . S
O230 Sc220 2.105 . S
O230 C224 1.268 . S
O231 Sc221 2.105 . S
O231 C225 1.268 . S
O232 Sc222 2.105 . S
O232 C226 1.268 . S
O233 Sc220 2.105 . S
O233 C227 1.268 . S
O234 Sc222 2.105 . S
O234 C228 1.268 . S
O235 Sc221 2.105 . S
O235 C229 1.268 . S
O236 Sc220 2.105 . S
O236 C228 1.268 . S
O237 Sc221 2.105 . S
O237 C227 1.268 . S
O238 Sc222 2.105 . S
O238 C229 1.268 . S
O239 Sc220 2.105 . S
O239 C225 1.268 . S
O240 Sc222 2.105 . S
O240 C224 1.268 . S
O241 Sc221 2.105 . S
O241 C226 1.268 . S
Sc242 O245 2.025 . S
Sc242 O252 2.105 . S
Sc242 O255 2.105 . S
Sc242 O258 2.105 . S
Sc242 O261 2.105 . S
Sc243 O245 2.025 . S
Sc243 O253 2.105 . S
Sc243 O257 2.105 . S
Sc243 O259 2.105 . S
Sc243 O263 2.105 . S
Sc244 O245 2.025 . S
Sc244 O254 2.105 . S
Sc244 O256 2.105 . S
Sc244 O260 2.105 . S
Sc244 O262 2.105 . S
O245 Sc242 2.025 . S
O245 Sc243 2.025 . S
O245 Sc244 2.025 . S
C246 O252 1.268 . S
C246 O262 1.268 . S
C247 O253 1.268 . S
C247 O261 1.268 . S
C248 O254 1.268 . S
C248 O263 1.268 . S
C249 O255 1.268 . S
C249 O259 1.268 . S
C250 O256 1.268 . S
C250 O258 1.268 . S
C251 O257 1.268 . S
C251 O260 1.268 . S
O252 Sc242 2.105 . S
O252 C246 1.268 . S
O253 Sc243 2.105 . S
O253 C247 1.268 . S
O254 Sc244 2.105 . S
O254 C248 1.268 . S
O255 Sc242 2.105 . S
O255 C249 1.268 . S
O256 Sc244 2.105 . S
O256 C250 1.268 . S
O257 Sc243 2.105 . S
O257 C251 1.268 . S
O258 Sc242 2.105 . S
O258 C250 1.268 . S
O259 Sc243 2.105 . S
O259 C249 1.268 . S
O260 Sc244 2.105 . S
O260 C251 1.268 . S
O261 Sc242 2.105 . S
O261 C247 1.268 . S
O262 Sc244 2.105 . S
O262 C246 1.268 . S
O263 Sc243 2.105 . S
O263 C248 1.268 . S
C264 C265 1.387 . S
C264 H268 0.950 . S
C264 C273 1.390 . S
C265 C264 1.387 . S
C265 C267 1.387 . S
H266 C273 0.950 . S
C267 C265 1.387 . S
C267 C269 1.390 . S
C267 H271 0.950 . S
H268 C264 0.950 . S
C269 C267 1.390 . S
C269 C270 1.387 . S
C269 H272 0.950 . S
C270 C269 1.387 . S
C270 C273 1.387 . S
H271 C267 0.950 . S
H272 C269 0.950 . S
C273 C264 1.390 . S
C273 H266 0.950 . S
C273 C270 1.387 . S
C274 C275 1.387 . S
C274 H278 0.950 . S
C274 C283 1.390 . S
C275 C274 1.387 . S
C275 C277 1.387 . S
H276 C283 0.950 . S
C277 C275 1.387 . S
C277 C279 1.390 . S
C277 H281 0.950 . S
H278 C274 0.950 . S
C279 C277 1.390 . S
C279 C280 1.387 . S
C279 H282 0.950 . S
C280 C279 1.387 . S
C280 C283 1.387 . S
H281 C277 0.950 . S
H282 C279 0.950 . S
C283 C274 1.390 . S
C283 H276 0.950 . S
C283 C280 1.387 . S
C284 C285 1.387 . S
C284 H288 0.950 . S
C284 C293 1.390 . S
C285 C284 1.387 . S
C285 C287 1.387 . S
H286 C293 0.950 . S
C287 C285 1.387 . S
C287 C289 1.390 . S
C287 H291 0.950 . S
H288 C284 0.950 . S
C289 C287 1.390 . S
C289 C290 1.387 . S
C289 H292 0.950 . S
C290 C289 1.387 . S
C290 C293 1.387 . S
H291 C287 0.950 . S
H292 C289 0.950 . S
C293 C284 1.390 . S
C293 H286 0.950 . S
C293 C290 1.387 . S
C294 C295 1.387 . S
C294 H298 0.950 . S
C294 C303 1.390 . S
C295 C294 1.387 . S
C295 C297 1.387 . S
H296 C303 0.950 . S
C297 C295 1.387 . S
C297 C299 1.390 . S
C297 H301 0.950 . S
H298 C294 0.950 . S
C299 C297 1.390 . S
C299 C300 1.387 . S
C299 H302 0.950 . S
C300 C299 1.387 . S
C300 C303 1.387 . S
H301 C297 0.950 . S
H302 C299 0.950 . S
C303 C294 1.390 . S
C303 H296 0.950 . S
C303 C300 1.387 . S
C304 C305 1.387 . S
C304 H308 0.950 . S
C304 C313 1.390 . S
C305 C304 1.387 . S
C305 C307 1.387 . S
H306 C313 0.950 . S
C307 C305 1.387 . S
C307 C309 1.390 . S
C307 H311 0.950 . S
H308 C304 0.950 . S
C309 C307 1.390 . S
C309 C310 1.387 . S
C309 H312 0.950 . S
C310 C309 1.387 . S
C310 C313 1.387 . S
H311 C307 0.950 . S
H312 C309 0.950 . S
C313 C304 1.390 . S
C313 H306 0.950 . S
C313 C310 1.387 . S
C314 C315 1.387 . S
C314 H318 0.950 . S
C314 C323 1.390 . S
C315 C314 1.387 . S
C315 C317 1.387 . S
H316 C323 0.950 . S
C317 C315 1.387 . S
C317 C319 1.390 . S
C317 H321 0.950 . S
H318 C314 0.950 . S
C319 C317 1.390 . S
C319 C320 1.387 . S
C319 H322 0.950 . S
C320 C319 1.387 . S
C320 C323 1.387 . S
H321 C317 0.950 . S
H322 C319 0.950 . S
C323 C314 1.390 . S
C323 H316 0.950 . S
C323 C320 1.387 . S
C324 C325 1.387 . S
C324 H328 0.950 . S
C324 C333 1.390 . S
C325 C324 1.387 . S
C325 C327 1.387 . S
H326 C333 0.950 . S
C327 C325 1.387 . S
C327 C329 1.390 . S
C327 H331 0.950 . S
H328 C324 0.950 . S
C329 C327 1.390 . S
C329 C330 1.387 . S
C329 H332 0.950 . S
C330 C329 1.387 . S
C330 C333 1.387 . S
H331 C327 0.950 . S
H332 C329 0.950 . S
C333 C324 1.390 . S
C333 H326 0.950 . S
C333 C330 1.387 . S
C334 C335 1.387 . S
C334 H338 0.950 . S
C334 C343 1.390 . S
C335 C334 1.387 . S
C335 C337 1.387 . S
H336 C343 0.950 . S
C337 C335 1.387 . S
C337 C339 1.390 . S
C337 H341 0.950 . S
H338 C334 0.950 . S
C339 C337 1.390 . S
C339 C340 1.387 . S
C339 H342 0.950 . S
C340 C339 1.387 . S
C340 C343 1.387 . S
H341 C337 0.950 . S
H342 C339 0.950 . S
C343 C334 1.390 . S
C343 H336 0.950 . S
C343 C340 1.387 . S
C344 C345 1.387 . S
C344 H348 0.950 . S
C344 C353 1.390 . S
C345 C344 1.387 . S
C345 C347 1.387 . S
H346 C353 0.950 . S
C347 C345 1.387 . S
C347 C349 1.390 . S
C347 H351 0.950 . S
H348 C344 0.950 . S
C349 C347 1.390 . S
C349 C350 1.387 . S
C349 H352 0.950 . S
C350 C349 1.387 . S
C350 C353 1.387 . S
H351 C347 0.950 . S
H352 C349 0.950 . S
C353 C344 1.390 . S
C353 H346 0.950 . S
C353 C350 1.387 . S
C354 C355 1.387 . S
C354 H358 0.950 . S
C354 C363 1.390 . S
C355 C354 1.387 . S
C355 C357 1.387 . S
H356 C363 0.950 . S
C357 C355 1.387 . S
C357 C359 1.390 . S
C357 H361 0.950 . S
H358 C354 0.950 . S
C359 C357 1.390 . S
C359 C360 1.387 . S
C359 H362 0.950 . S
C360 C359 1.387 . S
C360 C363 1.387 . S
H361 C357 0.950 . S
H362 C359 0.950 . S
C363 C354 1.390 . S
C363 H356 0.950 . S
C363 C360 1.387 . S
C364 C365 1.387 . S
C364 H368 0.950 . S
C364 C373 1.390 . S
C365 C364 1.387 . S
C365 C367 1.387 . S
H366 C373 0.950 . S
C367 C365 1.387 . S
C367 C369 1.390 . S
C367 H371 0.950 . S
H368 C364 0.950 . S
C369 C367 1.390 . S
C369 C370 1.387 . S
C369 H372 0.950 . S
C370 C369 1.387 . S
C370 C373 1.387 . S
H371 C367 0.950 . S
H372 C369 0.950 . S
C373 C364 1.390 . S
C373 H366 0.950 . S
C373 C370 1.387 . S
C374 C375 1.387 . S
C374 H378 0.950 . S
C374 C383 1.390 . S
C375 C374 1.387 . S
C375 C377 1.387 . S
H376 C383 0.950 . S
C377 C375 1.387 . S
C377 C379 1.390 . S
C377 H381 0.950 . S
H378 C374 0.950 . S
C379 C377 1.390 . S
C379 C380 1.387 . S
C379 H382 0.950 . S
C380 C379 1.387 . S
C380 C383 1.387 . S
H381 C377 0.950 . S
H382 C379 0.950 . S
C383 C374 1.390 . S
C383 H376 0.950 . S
C383 C380 1.387 . S
C384 C385 1.387 . S
C384 H388 0.950 . S
C384 C393 1.390 1_565 S
C385 C384 1.387 . S
C385 C387 1.387 . S
H386 C393 0.950 . S
C387 C385 1.387 . S
C387 C389 1.390 1_565 S
C387 H391 0.950 . S
H388 C384 0.950 . S
C389 C387 1.390 1_545 S
C389 C390 1.387 . S
C389 H392 0.950 . S
C390 C389 1.387 . S
C390 C393 1.387 . S
H391 C387 0.950 . S
H392 C389 0.950 . S
C393 C384 1.390 1_545 S
C393 H386 0.950 . S
C393 C390 1.387 . S
C394 C395 1.387 . S
C394 H398 0.950 . S
C394 C403 1.390 . S
C395 C394 1.387 . S
C395 C397 1.387 . S
H396 C403 0.950 . S
C397 C395 1.387 . S
C397 C399 1.390 . S
C397 H401 0.950 . S
H398 C394 0.950 . S
C399 C397 1.390 . S
C399 C400 1.387 . S
C399 H402 0.950 . S
C400 C399 1.387 . S
C400 C403 1.387 . S
H401 C397 0.950 . S
H402 C399 0.950 . S
C403 C394 1.390 . S
C403 H396 0.950 . S
C403 C400 1.387 . S
C404 C405 1.387 1_655 S
C404 H408 0.950 . S
C404 C413 1.390 . S
C405 C404 1.387 1_455 S
C405 C407 1.387 . S
H406 C413 0.950 . S
C407 C405 1.387 . S
C407 C409 1.390 . S
C407 H411 0.950 . S
H408 C404 0.950 . S
C409 C407 1.390 . S
C409 C410 1.387 1_455 S
C409 H412 0.950 . S
C410 C409 1.387 1_655 S
C410 C413 1.387 . S
H411 C407 0.950 . S
H412 C409 0.950 . S
C413 C404 1.390 . S
C413 H406 0.950 . S
C413 C410 1.387 . S
C414 C415 1.387 . S
C414 H418 0.950 . S
C414 C423 1.390 1_565 S
C415 C414 1.387 . S
C415 C417 1.387 . S
H416 C423 0.950 . S
C417 C415 1.387 . S
C417 C419 1.390 1_565 S
C417 H421 0.950 . S
H418 C414 0.950 . S
C419 C417 1.390 1_545 S
C419 C420 1.387 . S
C419 H422 0.950 . S
C420 C419 1.387 . S
C420 C423 1.387 . S
H421 C417 0.950 . S
H422 C419 0.950 . S
C423 C414 1.390 1_545 S
C423 H416 0.950 . S
C423 C420 1.387 . S
C424 C425 1.387 . S
C424 H428 0.950 . S
C424 C433 1.390 . S
C425 C424 1.387 . S
C425 C427 1.387 . S
H426 C433 0.950 . S
C427 C425 1.387 . S
C427 C429 1.390 . S
C427 H431 0.950 . S
H428 C424 0.950 . S
C429 C427 1.390 . S
C429 C430 1.387 . S
C429 H432 0.950 . S
C430 C429 1.387 . S
C430 C433 1.387 . S
H431 C427 0.950 . S
H432 C429 0.950 . S
C433 C424 1.390 . S
C433 H426 0.950 . S
C433 C430 1.387 . S
C434 C435 1.387 . S
C434 H438 0.950 . S
C434 C443 1.390 . S
C435 C434 1.387 . S
C435 C437 1.387 1_655 S
H436 C443 0.950 . S
C437 C435 1.387 1_455 S
C437 C439 1.390 . S
C437 H441 0.950 . S
H438 C434 0.950 . S
C439 C437 1.390 . S
C439 C440 1.387 . S
C439 H442 0.950 . S
C440 C439 1.387 . S
C440 C443 1.387 1_455 S
H441 C437 0.950 . S
H442 C439 0.950 . S
C443 C434 1.390 . S
C443 H436 0.950 . S
C443 C440 1.387 1_655 S
C444 C445 1.387 . S
C444 H448 0.950 . S
C444 C453 1.390 1_545 S
C445 C444 1.387 . S
C445 C447 1.387 . S
H446 C453 0.950 . S
C447 C445 1.387 . S
C447 C449 1.390 1_545 S
C447 H451 0.950 . S
H448 C444 0.950 . S
C449 C447 1.390 1_565 S
C449 C450 1.387 . S
C449 H452 0.950 . S
C450 C449 1.387 . S
C450 C453 1.387 . S
H451 C447 0.950 . S
H452 C449 0.950 . S
C453 C444 1.390 1_565 S
C453 H446 0.950 . S
C453 C450 1.387 . S
C454 C455 1.387 . S
C454 H458 0.950 . S
C454 C463 1.390 . S
C455 C454 1.387 . S
C455 C457 1.387 . S
H456 C463 0.950 . S
C457 C455 1.387 . S
C457 C459 1.390 . S
C457 H461 0.950 . S
H458 C454 0.950 . S
C459 C457 1.390 . S
C459 C460 1.387 . S
C459 H462 0.950 . S
C460 C459 1.387 . S
C460 C463 1.387 . S
H461 C457 0.950 . S
H462 C459 0.950 . S
C463 C454 1.390 . S
C463 H456 0.950 . S
C463 C460 1.387 . S
C464 C465 1.387 . S
C464 H468 0.950 . S
C464 C473 1.390 1_655 S
C465 C464 1.387 . S
C465 C467 1.387 . S
H466 C473 0.950 . S
C467 C465 1.387 . S
C467 C469 1.390 1_655 S
C467 H471 0.950 . S
H468 C464 0.950 . S
C469 C467 1.390 1_455 S
C469 C470 1.387 . S
C469 H472 0.950 . S
C470 C469 1.387 . S
C470 C473 1.387 . S
H471 C467 0.950 . S
H472 C469 0.950 . S
C473 C464 1.390 1_455 S
C473 H466 0.950 . S
C473 C470 1.387 . S
C474 C475 1.387 . S
C474 H478 0.950 . S
C474 C483 1.390 1_565 S
C475 C474 1.387 . S
C475 C477 1.387 . S
H476 C483 0.950 . S
C477 C475 1.387 . S
C477 C479 1.390 1_565 S
C477 H481 0.950 . S
H478 C474 0.950 . S
C479 C477 1.390 1_545 S
C479 C480 1.387 . S
C479 H482 0.950 . S
C480 C479 1.387 . S
C480 C483 1.387 . S
H481 C477 0.950 . S
H482 C479 0.950 . S
C483 C474 1.390 1_545 S
C483 H476 0.950 . S
C483 C480 1.387 . S
C484 C485 1.387 . S
C484 H488 0.950 . S
C484 C493 1.390 . S
C485 C484 1.387 . S
C485 C487 1.387 . S
H486 C493 0.950 . S
C487 C485 1.387 . S
C487 C489 1.390 . S
C487 H491 0.950 . S
H488 C484 0.950 . S
C489 C487 1.390 . S
C489 C490 1.387 . S
C489 H492 0.950 . S
C490 C489 1.387 . S
C490 C493 1.387 . S
H491 C487 0.950 . S
H492 C489 0.950 . S
C493 C484 1.390 . S
C493 H486 0.950 . S
C493 C490 1.387 . S
C494 C495 1.387 . S
C494 H498 0.950 . S
C494 C503 1.390 . S
C495 C494 1.387 . S
C495 C497 1.387 1_655 S
H496 C503 0.950 . S
C497 C495 1.387 1_455 S
C497 C499 1.390 . S
C497 H501 0.950 . S
H498 C494 0.950 . S
C499 C497 1.390 . S
C499 C500 1.387 . S
C499 H502 0.950 . S
C500 C499 1.387 . S
C500 C503 1.387 1_455 S
H501 C497 0.950 . S
H502 C499 0.950 . S
C503 C494 1.390 . S
C503 H496 0.950 . S
C503 C500 1.387 1_655 S
C504 C505 1.387 . S
C504 H508 0.950 . S
C504 C513 1.390 . S
C505 C504 1.387 . S
C505 C507 1.387 . S
H506 C513 0.950 . S
C507 C505 1.387 . S
C507 C509 1.390 . S
C507 H511 0.950 . S
H508 C504 0.950 . S
C509 C507 1.390 . S
C509 C510 1.387 . S
C509 H512 0.950 . S
C510 C509 1.387 . S
C510 C513 1.387 . S
H511 C507 0.950 . S
H512 C509 0.950 . S
C513 C504 1.390 . S
C513 H506 0.950 . S
C513 C510 1.387 . S
C514 C515 1.387 . S
C514 H518 0.950 . S
C514 C523 1.390 . S
C515 C514 1.387 . S
C515 C517 1.387 . S
H516 C523 0.950 . S
C517 C515 1.387 . S
C517 C519 1.390 . S
C517 H521 0.950 . S
H518 C514 0.950 . S
C519 C517 1.390 . S
C519 C520 1.387 . S
C519 H522 0.950 . S
C520 C519 1.387 . S
C520 C523 1.387 . S
H521 C517 0.950 . S
H522 C519 0.950 . S
C523 C514 1.390 . S
C523 H516 0.950 . S
C523 C520 1.387 . S
C524 C525 1.387 . S
C524 H528 0.950 . S
C524 C533 1.390 . S
C525 C524 1.387 . S
C525 C527 1.387 . S
H526 C533 0.950 . S
C527 C525 1.387 . S
C527 C529 1.390 . S
C527 H531 0.950 . S
H528 C524 0.950 . S
C529 C527 1.390 . S
C529 C530 1.387 . S
C529 H532 0.950 . S
C530 C529 1.387 . S
C530 C533 1.387 . S
H531 C527 0.950 . S
H532 C529 0.950 . S
C533 C524 1.390 . S
C533 H526 0.950 . S
C533 C530 1.387 . S
C534 C535 1.387 . S
C534 H538 0.950 . S
C534 C543 1.390 . S
C535 C534 1.387 . S
C535 C537 1.387 . S
H536 C543 0.950 . S
C537 C535 1.387 . S
C537 C539 1.390 . S
C537 H541 0.950 . S
H538 C534 0.950 . S
C539 C537 1.390 . S
C539 C540 1.387 . S
C539 H542 0.950 . S
C540 C539 1.387 . S
C540 C543 1.387 . S
H541 C537 0.950 . S
H542 C539 0.950 . S
C543 C534 1.390 . S
C543 H536 0.950 . S
C543 C540 1.387 . S
C544 C545 1.387 . S
C544 H548 0.950 . S
C544 C553 1.390 . S
C545 C544 1.387 . S
C545 C547 1.387 . S
H546 C553 0.950 . S
C547 C545 1.387 . S
C547 C549 1.390 . S
C547 H551 0.950 . S
H548 C544 0.950 . S
C549 C547 1.390 . S
C549 C550 1.387 . S
C549 H552 0.950 . S
C550 C549 1.387 . S
C550 C553 1.387 . S
H551 C547 0.950 . S
H552 C549 0.950 . S
C553 C544 1.390 . S
C553 H546 0.950 . S
C553 C550 1.387 . S
C554 C555 1.387 . S
C554 H558 0.950 . S
C554 C563 1.390 . S
C555 C554 1.387 . S
C555 C557 1.387 . S
H556 C563 0.950 . S
C557 C555 1.387 . S
C557 C559 1.390 . S
C557 H561 0.950 . S
H558 C554 0.950 . S
C559 C557 1.390 . S
C559 C560 1.387 . S
C559 H562 0.950 . S
C560 C559 1.387 . S
C560 C563 1.387 . S
H561 C557 0.950 . S
H562 C559 0.950 . S
C563 C554 1.390 . S
C563 H556 0.950 . S
C563 C560 1.387 . S
C564 C565 1.387 . S
C564 H568 0.950 . S
C564 C573 1.390 . S
C565 C564 1.387 . S
C565 C567 1.387 . S
H566 C573 0.950 . S
C567 C565 1.387 . S
C567 C569 1.390 . S
C567 H571 0.950 . S
H568 C564 0.950 . S
C569 C567 1.390 . S
C569 C570 1.387 . S
C569 H572 0.950 . S
C570 C569 1.387 . S
C570 C573 1.387 . S
H571 C567 0.950 . S
H572 C569 0.950 . S
C573 C564 1.390 . S
C573 H566 0.950 . S
C573 C570 1.387 . S
C574 C575 1.387 . S
C574 H578 0.950 . S
C574 C583 1.390 . S
C575 C574 1.387 . S
C575 C577 1.387 . S
H576 C583 0.950 . S
C577 C575 1.387 . S
C577 C579 1.390 . S
C577 H581 0.950 . S
H578 C574 0.950 . S
C579 C577 1.390 . S
C579 C580 1.387 . S
C579 H582 0.950 . S
C580 C579 1.387 . S
C580 C583 1.387 . S
H581 C577 0.950 . S
H582 C579 0.950 . S
C583 C574 1.390 . S
C583 H576 0.950 . S
C583 C580 1.387 . S
C584 C585 1.387 . S
C584 H588 0.950 . S
C584 C593 1.390 . S
C585 C584 1.387 . S
C585 C587 1.387 . S
H586 C593 0.950 . S
C587 C585 1.387 . S
C587 C589 1.390 . S
C587 H591 0.950 . S
H588 C584 0.950 . S
C589 C587 1.390 . S
C589 C590 1.387 . S
C589 H592 0.950 . S
C590 C589 1.387 . S
C590 C593 1.387 . S
H591 C587 0.950 . S
H592 C589 0.950 . S
C593 C584 1.390 . S
C593 H586 0.950 . S
C593 C590 1.387 . S
C594 C595 1.387 . S
C594 H598 0.950 . S
C594 C603 1.390 . S
C595 C594 1.387 . S
C595 C597 1.387 . S
H596 C603 0.950 . S
C597 C595 1.387 . S
C597 C599 1.390 . S
C597 H601 0.950 . S
H598 C594 0.950 . S
C599 C597 1.390 . S
C599 C600 1.387 . S
C599 H602 0.950 . S
C600 C599 1.387 . S
C600 C603 1.387 . S
H601 C597 0.950 . S
H602 C599 0.950 . S
C603 C594 1.390 . S
C603 H596 0.950 . S
C603 C600 1.387 . S
C604 C605 1.387 . S
C604 H608 0.950 . S
C604 C613 1.390 . S
C605 C604 1.387 . S
C605 C607 1.387 . S
H606 C613 0.950 . S
C607 C605 1.387 . S
C607 C609 1.390 . S
C607 H611 0.950 . S
H608 C604 0.950 . S
C609 C607 1.390 . S
C609 C610 1.387 . S
C609 H612 0.950 . S
C610 C609 1.387 . S
C610 C613 1.387 . S
H611 C607 0.950 . S
H612 C609 0.950 . S
C613 C604 1.390 . S
C613 H606 0.950 . S
C613 C610 1.387 . S
C614 C615 1.387 . S
C614 H618 0.950 . S
C614 C623 1.390 . S
C615 C614 1.387 . S
C615 C617 1.387 . S
H616 C623 0.950 . S
C617 C615 1.387 . S
C617 C619 1.390 . S
C617 H621 0.950 . S
H618 C614 0.950 . S
C619 C617 1.390 . S
C619 C620 1.387 . S
C619 H622 0.950 . S
C620 C619 1.387 . S
C620 C623 1.387 . S
H621 C617 0.950 . S
H622 C619 0.950 . S
C623 C614 1.390 . S
C623 H616 0.950 . S
C623 C620 1.387 . S
C265 C7 1.318 . S
C270 C182 1.317 . S
C275 C204 1.317 . S
C280 C29 1.316 . S
C285 C51 1.317 . S
C290 C226 1.317 . S
C295 C248 1.318 . S
C300 C73 1.317 . S
C305 C95 1.318 . S
C310 C138 1.317 . S
C315 C160 1.317 . S
C320 C117 1.316 . S
C325 C251 1.317 . S
C330 C71 1.318 . S
C335 C93 1.318 . S
C340 C141 1.320 . S
C345 C163 1.318 . S
C350 C115 1.319 . S
C355 C185 1.318 . S
C360 C5 1.320 . S
C365 C207 1.317 . S
C370 C27 1.318 . S
C375 C49 1.317 . S
C380 C229 1.319 . S
C385 C159 1.384 . S
C390 C9 1.383 . S
C395 C181 1.385 . S
C400 C31 1.383 . S
C405 C203 1.385 . S
C410 C53 1.383 . S
C415 C75 1.384 . S
C420 C225 1.383 . S
C425 C97 1.386 . S
C430 C247 1.383 . S
C435 C137 1.384 . S
C440 C119 1.384 . S
C445 C227 1.386 . S
C450 C72 1.387 . S
C455 C94 1.386 . S
C460 C249 1.386 . S
C465 C139 1.386 . S
C470 C116 1.387 . S
C475 C161 1.386 . S
C480 C6 1.387 . S
C485 C28 1.384 . S
C490 C183 1.386 . S
C495 C50 1.385 . S
C500 C205 1.385 . S
C505 C8 1.541 . S
C510 C224 1.540 . S
C515 C30 1.540 . S
C520 C246 1.539 . S
C525 C136 1.539 . S
C530 C52 1.538 . S
C535 C158 1.539 . S
C540 C74 1.538 . S
C545 C96 1.541 . S
C550 C180 1.540 . S
C555 C202 1.540 . S
C560 C118 1.539 . S
C565 C70 1.539 . S
C570 C162 1.541 . S
C575 C92 1.541 . S
C580 C184 1.542 . S
C585 C206 1.541 . S
C590 C114 1.543 . S
C595 C228 1.541 . S
C600 C4 1.543 . S
C605 C250 1.540 . S
C610 C26 1.542 . S
C615 C140 1.541 . S
C620 C48 1.543 . S
