# Generated by pormake.
# Topology ukh, (4)-cn, num edge types: 1
# Building blocks:
#     Node 0, Type 0, BuildingBlock: QUQFOY_clean_sbu_1, # of connection points: 4
#     Node 1, Type 0, BuildingBlock: QUQFOY_clean_sbu_1, # of connection points: 4
#     Node 2, Type 0, BuildingBlock: QUQFOY_clean_sbu_1, # of connection points: 4
#     Node 3, Type 0, BuildingBlock: QUQFOY_clean_sbu_1, # of connection points: 4
#     Node 4, Type 0, BuildingBlock: QUQFOY_clean_sbu_1, # of connection points: 4
#     Node 5, Type 0, BuildingBlock: QUQFOY_clean_sbu_1, # of connection points: 4
#     Node 6, Type 0, BuildingBlock: QUQFOY_clean_sbu_1, # of connection points: 4
#     Node 7, Type 0, BuildingBlock: QUQFOY_clean_sbu_1, # of connection points: 4
#     Node 8, Type 0, BuildingBlock: QUQFOY_clean_sbu_1, # of connection points: 4
#     Node 9, Type 0, BuildingBlock: QUQFOY_clean_sbu_1, # of connection points: 4
#     Node 10, Type 0, BuildingBlock: QUQFOY_clean_sbu_1, # of connection points: 4
#     Node 11, Type 0, BuildingBlock: QUQFOY_clean_sbu_1, # of connection points: 4
#     Edge 12, Type (0, 0), BuildingBlock: EYOCIG_clean_linker_4, # of connection points: 2
#     Edge 13, Type (0, 0), BuildingBlock: EYOCIG_clean_linker_4, # of connection points: 2
#     Edge 14, Type (0, 0), BuildingBlock: EYOCIG_clean_linker_4, # of connection points: 2
#     Edge 15, Type (0, 0), BuildingBlock: EYOCIG_clean_linker_4, # of connection points: 2
#     Edge 16, Type (0, 0), BuildingBlock: EYOCIG_clean_linker_4, # of connection points: 2
#     Edge 17, Type (0, 0), BuildingBlock: EYOCIG_clean_linker_4, # of connection points: 2
#     Edge 18, Type (0, 0), BuildingBlock: EYOCIG_clean_linker_4, # of connection points: 2
#     Edge 19, Type (0, 0), BuildingBlock: EYOCIG_clean_linker_4, # of connection points: 2
#     Edge 20, Type (0, 0), BuildingBlock: EYOCIG_clean_linker_4, # of connection points: 2
#     Edge 21, Type (0, 0), BuildingBlock: EYOCIG_clean_linker_4, # of connection points: 2
#     Edge 22, Type (0, 0), BuildingBlock: EYOCIG_clean_linker_4, # of connection points: 2
#     Edge 23, Type (0, 0), BuildingBlock: EYOCIG_clean_linker_4, # of connection points: 2
#     Edge 24, Type (0, 0), BuildingBlock: EYOCIG_clean_linker_4, # of connection points: 2
#     Edge 25, Type (0, 0), BuildingBlock: EYOCIG_clean_linker_4, # of connection points: 2
#     Edge 26, Type (0, 0), BuildingBlock: EYOCIG_clean_linker_4, # of connection points: 2
#     Edge 27, Type (0, 0), BuildingBlock: EYOCIG_clean_linker_4, # of connection points: 2
#     Edge 28, Type (0, 0), BuildingBlock: EYOCIG_clean_linker_4, # of connection points: 2
#     Edge 29, Type (0, 0), BuildingBlock: EYOCIG_clean_linker_4, # of connection points: 2
#     Edge 30, Type (0, 0), BuildingBlock: EYOCIG_clean_linker_4, # of connection points: 2
#     Edge 31, Type (0, 0), BuildingBlock: EYOCIG_clean_linker_4, # of connection points: 2
#     Edge 32, Type (0, 0), BuildingBlock: EYOCIG_clean_linker_4, # of connection points: 2
#     Edge 33, Type (0, 0), BuildingBlock: EYOCIG_clean_linker_4, # of connection points: 2
#     Edge 34, Type (0, 0), BuildingBlock: EYOCIG_clean_linker_4, # of connection points: 2
#     Edge 35, Type (0, 0), BuildingBlock: EYOCIG_clean_linker_4, # of connection points: 2
# Relax obj value: 0.063
# Max RMSD: 0.077
# Mean RMSD: 0.077
data_MOF--net-ukh--node1-QUQFOY_clean_sbu_1--edge1-EYOCIG_clean_linker_4
_symmetry_space_group_name_H-M    P1
_symmetry_Int_Tables_number       1
_symmetry_cell_setting            triclinic
loop_
_symmetry_equiv_pos_as_xyz
'x, y, z'
_cell_length_a     25.974548
_cell_length_b     25.970343
_cell_length_c     52.87473
_cell_angle_alpha  90.010626
_cell_angle_beta   90.015899
_cell_angle_gamma 119.98852
loop_
_atom_site_label
_atom_site_type_symbol
_atom_site_fract_x
_atom_site_fract_y
_atom_site_fract_z
_atom_type_partial_charge
O0 O 0.32745 0.14525 0.05269 0.0
Cd1 Cd 0.32034 0.20739 0.07432 0.0
Cd2 Cd 0.39056 0.2766 0.03762 0.0
O3 O 0.40419 0.20603 0.02906 0.0
O4 O 0.28618 0.16547 0.10686 0.0
O5 O 0.37588 0.24524 0.10376 0.0
C6 C 0.33542 0.20337 0.11741 0.0
C7 C 0.45962 0.3751 0.04618 0.0
C8 C 0.36663 0.15371 0.03632 0.0
C9 C 0.26691 0.25406 0.03853 0.0
O10 O 0.31192 0.26755 0.02483 0.0
O11 O 0.26342 0.2349 0.0609 0.0
O12 O 0.45284 0.35427 0.02351 0.0
O13 O 0.43134 0.33882 0.06446 0.0
O14 O 0.20571 0.31562 0.386 0.0
Cd15 Cd 0.13638 0.30832 0.4076 0.0
Cd16 Cd 0.13732 0.37865 0.37095 0.0
O17 O 0.22156 0.3924 0.36241 0.0
O18 O 0.14418 0.27413 0.44014 0.0
O19 O 0.15392 0.36377 0.43706 0.0
C20 C 0.15542 0.32333 0.4507 0.0
C21 C 0.10785 0.4477 0.37954 0.0
C22 C 0.23641 0.35488 0.36967 0.0
C23 C 0.03637 0.25488 0.37177 0.0
O24 O 0.06781 0.3 0.35812 0.0
O25 O 0.05205 0.2513 0.39413 0.0
O26 O 0.1219 0.44098 0.35686 0.0
O27 O 0.11582 0.41935 0.3978 0.0
O28 O 0.91328 0.19383 0.71918 0.0
Cd29 Cd 0.85114 0.12473 0.74085 0.0
Cd30 Cd 0.78194 0.12565 0.70411 0.0
O31 O 0.85251 0.20978 0.69552 0.0
O32 O 0.89316 0.13255 0.77338 0.0
O33 O 0.81348 0.14265 0.77028 0.0
C34 C 0.85536 0.14403 0.78392 0.0
C35 C 0.68351 0.09633 0.71269 0.0
C36 C 0.90482 0.22453 0.7028 0.0
C37 C 0.80429 0.02443 0.70515 0.0
O38 O 0.79088 0.05594 0.6914 0.0
O39 O 0.82349 0.0402 0.72752 0.0
O40 O 0.70424 0.11027 0.69001 0.0
O41 O 0.71985 0.10439 0.73096 0.0
O42 O 0.7437 0.90169 0.05247 0.0
Cd43 Cd 0.7507 0.83953 0.07412 0.0
Cd44 Cd 0.68057 0.77034 0.0374 0.0
O45 O 0.66697 0.84092 0.02881 0.0
O46 O 0.78476 0.88142 0.10669 0.0
O47 O 0.69505 0.8017 0.1035 0.0
C48 C 0.73546 0.84354 0.11719 0.0
C49 C 0.61152 0.67191 0.04602 0.0
C50 C 0.70454 0.89324 0.03609 0.0
C51 C 0.80418 0.79282 0.03838 0.0
O52 O 0.75921 0.77935 0.02465 0.0
O53 O 0.80763 0.81199 0.06076 0.0
O54 O 0.61824 0.69259 0.02333 0.0
O55 O 0.63987 0.70829 0.06427 0.0
O56 O 0.86517 0.73189 0.38594 0.0
Cd57 Cd 0.93438 0.73918 0.40765 0.0
Cd58 Cd 0.93371 0.66895 0.37098 0.0
O59 O 0.84951 0.65519 0.36232 0.0
O60 O 0.92634 0.77328 0.44017 0.0
O61 O 0.91667 0.68367 0.43708 0.0
C62 C 0.91506 0.72406 0.45071 0.0
C63 C 0.96316 0.59988 0.37955 0.0
C64 C 0.83459 0.69267 0.36956 0.0
C65 C 1.03463 0.79275 0.37197 0.0
O66 O 1.00329 0.74767 0.35827 0.0
O67 O 1.01879 0.79626 0.39432 0.0
O68 O 0.94925 0.60673 0.35686 0.0
O69 O 0.95505 0.62811 0.39782 0.0
O70 O 0.15695 0.85366 0.71928 0.0
Cd71 Cd 0.21913 0.92273 0.74097 0.0
Cd72 Cd 0.28825 0.92198 0.70419 0.0
O73 O 0.2177 0.83785 0.69555 0.0
O74 O 0.17728 0.91474 0.77356 0.0
O75 O 0.25702 0.90479 0.77032 0.0
C76 C 0.21519 0.9033 0.78402 0.0
C77 C 0.38673 0.95138 0.71272 0.0
C78 C 0.1654 0.82304 0.70284 0.0
C79 C 0.26572 1.0231 0.70535 0.0
O80 O 0.27916 0.99166 0.69156 0.0
O81 O 0.24662 1.00727 0.72772 0.0
O82 O 0.36593 0.93749 0.69004 0.0
O83 O 0.35044 0.94324 0.73101 0.0
O84 O 0.91313 0.73203 0.63766 0.0
Cd85 Cd 0.85083 0.73896 0.61608 0.0
Cd86 Cd 0.78185 0.66865 0.65276 0.0
O87 O 0.85251 0.65513 0.66125 0.0
O88 O 0.89263 0.77322 0.58352 0.0
O89 O 0.81305 0.68339 0.58664 0.0
C90 C 0.85483 0.72392 0.57299 0.0
C91 C 0.68342 0.59956 0.64413 0.0
C92 C 0.90479 0.6928 0.65398 0.0
C93 C 0.80407 0.79218 0.65193 0.0
O94 O 0.79078 0.74721 0.66562 0.0
O95 O 0.82314 0.7957 0.62953 0.0
O96 O 0.70419 0.60619 0.66681 0.0
O97 O 0.71973 0.62801 0.62589 0.0
O98 O 0.20556 0.90169 0.971 0.0
Cd99 Cd 0.13634 0.8395 0.94938 0.0
Cd100 Cd 0.13736 0.77035 0.98608 0.0
O101 O 0.22153 0.84091 0.99465 0.0
O102 O 0.14411 0.8813 0.91679 0.0
O103 O 0.15408 0.80154 0.92 0.0
C104 C 0.15548 0.84336 0.9063 0.0
C105 C 0.108 0.67189 0.97746 0.0
C106 C 0.23629 0.89323 0.98737 0.0
C107 C 0.03624 0.79286 0.98513 0.0
O108 O 0.06776 0.77938 0.99884 0.0
O109 O 0.05192 0.81202 0.96275 0.0
O110 O 0.12201 0.69264 1.00015 0.0
O111 O 0.11598 0.70822 0.95921 0.0
O112 O 0.32745 0.19402 0.30445 0.0
Cd113 Cd 0.32017 0.12467 0.28285 0.0
Cd114 Cd 0.39041 0.12558 0.31954 0.0
O115 O 0.40414 0.20983 0.32811 0.0
O116 O 0.28607 0.13248 0.25028 0.0
O117 O 0.37568 0.14219 0.25343 0.0
C118 C 0.33528 0.14369 0.23976 0.0
C119 C 0.45944 0.09611 0.31095 0.0
C120 C 0.36666 0.22469 0.32083 0.0
C121 C 0.26666 0.02463 0.31864 0.0
O122 O 0.31175 0.05605 0.33232 0.0
O123 O 0.26313 0.04033 0.29628 0.0
O124 O 0.45271 0.11014 0.33364 0.0
O125 O 0.4311 0.10411 0.29269 0.0
O126 O 0.15694 0.31545 0.63771 0.0
Cd127 Cd 0.21915 0.30836 0.61615 0.0
Cd128 Cd 0.28824 0.37878 0.65281 0.0
O129 O 0.21765 0.39243 0.66126 0.0
O130 O 0.17732 0.27408 0.58358 0.0
O131 O 0.25698 0.36386 0.58671 0.0
C132 C 0.21517 0.32335 0.57305 0.0
C133 C 0.38667 0.44775 0.64416 0.0
C134 C 0.16535 0.35476 0.65401 0.0
C135 C 0.26582 0.25518 0.65205 0.0
O136 O 0.27923 0.30024 0.66571 0.0
O137 O 0.24674 0.25158 0.62964 0.0
O138 O 0.36596 0.44124 0.66684 0.0
O139 O 0.35031 0.41925 0.62592 0.0
O140 O 0.86574 0.14528 0.97088 0.0
Cd141 Cd 0.93494 0.20747 0.94929 0.0
Cd142 Cd 0.93391 0.27662 0.98598 0.0
O143 O 0.84972 0.20606 0.9945 0.0
O144 O 0.92714 0.16574 0.91667 0.0
O145 O 0.91717 0.24548 0.91994 0.0
C146 C 0.91573 0.20369 0.90622 0.0
C147 C 0.96329 0.37509 0.9774 0.0
C148 C 0.83498 0.15374 0.98723 0.0
C149 C 1.03502 0.25409 0.98507 0.0
O150 O 1.00349 0.26756 0.99878 0.0
O151 O 1.01937 0.23495 0.96269 0.0
O152 O 0.94926 0.35433 1.00008 0.0
O153 O 0.95533 0.33877 0.95914 0.0
O154 O 0.74358 0.85345 0.3042 0.0
Cd155 Cd 0.75078 0.92271 0.28257 0.0
Cd156 Cd 0.68071 0.92196 0.31929 0.0
O157 O 0.66699 0.83774 0.32787 0.0
O158 O 0.78475 0.91475 0.25 0.0
O159 O 0.69516 0.90507 0.25316 0.0
C160 C 0.7355 0.9035 0.23949 0.0
C161 C 0.61162 0.95142 0.3108 0.0
C162 C 0.70443 0.82283 0.32058 0.0
C163 C 0.80447 1.02291 0.31831 0.0
O164 O 0.75944 0.99153 0.33202 0.0
O165 O 0.80789 1.00712 0.29595 0.0
O166 O 0.61853 0.93746 0.33347 0.0
O167 O 0.6398 0.94335 0.2925 0.0
C168 C 0.55086 0.55504 0.0521 0.0
C169 C 0.5789 0.60861 0.05023 0.0
C170 C 0.52029 0.492 0.05214 0.0
C171 C 0.49225 0.43842 0.05034 0.0
C172 C 0.05171 0.50847 0.38555 0.0
C173 C 0.0772 0.48038 0.38372 0.0
C174 C 1.01929 0.5391 0.38555 0.0
C175 C 0.99379 0.56719 0.38373 0.0
C176 C 0.50362 1.00763 0.7187 0.0
C177 C 0.45005 0.98208 0.71689 0.0
C178 C 0.56665 0.04012 0.7187 0.0
C179 C 0.62021 0.06565 0.71687 0.0
C180 C 0.56656 0.53889 0.6381 0.0
C181 C 0.62012 0.56694 0.63994 0.0
C182 C 0.50352 0.50834 0.63811 0.0
C183 C 0.44996 0.48033 0.63996 0.0
C184 C 1.01944 0.49197 0.97141 0.0
C185 C 0.99394 0.4384 0.97323 0.0
C186 C 0.05187 0.55501 0.97142 0.0
C187 C 0.07736 0.60858 0.97326 0.0
C188 C 0.52019 0.03997 0.30491 0.0
C189 C 0.49212 0.06547 0.30676 0.0
C190 C 0.55083 1.00755 0.30487 0.0
C191 C 0.57892 0.98206 0.30666 0.0
C192 C 0.34893 0.173 0.19145 0.0
C193 C 0.34521 0.1599 0.21352 0.0
C194 C 0.34897 0.1876 0.16572 0.0
C195 C 0.3453 0.19703 0.14365 0.0
C196 C 0.18477 0.33689 0.49901 0.0
C197 C 0.17165 0.33321 0.47694 0.0
C198 C 0.19938 0.33689 0.52474 0.0
C199 C 0.2088 0.33321 0.54681 0.0
C200 C 0.87137 0.17351 0.83221 0.0
C201 C 0.86182 0.16035 0.81015 0.0
C202 C 0.88613 0.1881 0.85794 0.0
C203 C 0.89936 0.19744 0.88 0.0
C204 C 0.72175 0.85935 0.16547 0.0
C205 C 0.72548 0.8499 0.14341 0.0
C206 C 0.72175 0.87401 0.1912 0.0
C207 C 0.72549 0.88719 0.21326 0.0
C208 C 0.87071 0.71037 0.52469 0.0
C209 C 0.86123 0.71403 0.54676 0.0
C210 C 0.88543 0.7104 0.49898 0.0
C211 C 0.89867 0.71413 0.47693 0.0
C212 C 0.18489 0.85902 0.85801 0.0
C213 C 0.17176 0.84962 0.88008 0.0
C214 C 0.1995 0.87368 0.83229 0.0
C215 C 0.20891 0.88691 0.81024 0.0
C216 C 0.31872 0.99372 1.00741 0.0
C217 C 0.28327 0.94467 0.99977 0.0
C218 C 0.34849 0.0532 0.01627 0.0
C219 C 0.36215 0.10227 0.02392 0.0
C220 C 0.31893 0.33695 0.34966 0.0
C221 C 0.28345 0.35054 0.35729 0.0
C222 C 0.34868 0.3072 0.34085 0.0
C223 C 0.36228 0.27173 0.33322 0.0
C224 C 1.00531 0.30689 0.68278 0.0
C225 C 0.95626 0.27147 0.69041 0.0
C226 C 0.0648 0.33665 0.67397 0.0
C227 C 0.11388 0.35031 0.66636 0.0
C228 C 0.72273 0.99376 0.01604 0.0
C229 C 0.70905 0.94469 0.02368 0.0
C230 C 0.75253 0.05324 1.00722 0.0
C231 C 0.78799 0.1023 0.99959 0.0
C232 C 0.72241 0.74035 0.34061 0.0
C233 C 0.70882 0.77582 0.33298 0.0
C234 C 0.75214 0.71059 0.34946 0.0
C235 C 0.78759 0.697 0.35712 0.0
C236 C 0.06489 0.74074 0.68277 0.0
C237 C 0.11395 0.77614 0.69042 0.0
C238 C 1.00539 0.711 0.67395 0.0
C239 C 0.9563 0.69732 0.66633 0.0
C240 C 0.13035 0.26085 1.00566 0.0
C241 C 0.08707 0.25731 0.99574 0.0
C242 C 0.17836 0.26084 0.01793 0.0
C243 C 0.21809 0.25729 0.02785 0.0
C244 C 0.89315 0.11823 0.33886 0.0
C245 C 0.85336 0.07495 0.32895 0.0
C246 C 0.94115 0.16626 0.35112 0.0
C247 C 0.98439 0.20604 0.36105 0.0
C248 C 0.79721 0.88071 0.67251 0.0
C249 C 0.80077 0.84095 0.66262 0.0
C250 C 0.79727 0.92883 0.6847 0.0
C251 C 0.80093 0.97224 0.69455 0.0
C252 C 0.89279 0.78604 0.01787 0.0
C253 C 0.85302 0.78958 0.02775 0.0
C254 C 0.94085 0.78605 1.00565 0.0
C255 C 0.98416 0.78961 0.99577 0.0
C256 C 0.12997 0.8814 0.35146 0.0
C257 C 0.08668 0.84163 0.36134 0.0
C258 C 0.17801 0.9294 0.33923 0.0
C259 C 0.2178 0.97264 0.32932 0.0
C260 C 0.27256 0.11862 0.68494 0.0
C261 C 0.26897 0.07526 0.6948 0.0
C262 C 0.27259 0.16668 0.67271 0.0
C263 C 0.26911 0.20643 0.66277 0.0
loop_
_geom_bond_atom_site_label_1
_geom_bond_atom_site_label_2
_geom_bond_distance
_geom_bond_site_symmetry_2
_ccdc_geom_bond_type
O0 Cd1 2.223 . S
O0 C8 1.315 . S
Cd1 O0 2.223 . S
Cd1 O4 2.297 . S
Cd1 O5 2.439 . S
Cd1 O11 2.240 . S
Cd2 O3 2.240 . S
Cd2 O10 2.207 1_554 S
Cd2 O12 2.297 . S
Cd2 O13 2.439 . S
O3 Cd2 2.240 . S
O3 C8 1.279 . S
O4 Cd1 2.297 . S
O4 C6 1.247 . S
O5 Cd1 2.439 . S
O5 C6 1.208 . S
C6 O4 1.247 . S
C6 O5 1.208 . S
C7 O12 1.247 . S
C7 O13 1.208 . S
C8 O0 1.315 . S
C8 O3 1.279 . S
C9 O10 1.285 1_554 S
C9 O11 1.279 . S
O10 Cd2 2.207 1_556 S
O10 C9 1.285 1_556 S
O11 Cd1 2.240 . S
O11 C9 1.279 . S
O12 Cd2 2.297 . S
O12 C7 1.247 . S
O13 Cd2 2.439 . S
O13 C7 1.208 . S
O14 Cd15 2.223 . S
O14 C22 1.315 . S
Cd15 O14 2.223 . S
Cd15 O18 2.297 . S
Cd15 O19 2.439 . S
Cd15 O25 2.240 . S
Cd16 O17 2.240 . S
Cd16 O24 2.223 . S
Cd16 O26 2.297 . S
Cd16 O27 2.439 . S
O17 Cd16 2.240 . S
O17 C22 1.279 . S
O18 Cd15 2.297 . S
O18 C20 1.247 . S
O19 Cd15 2.439 . S
O19 C20 1.208 . S
C20 O18 1.247 . S
C20 O19 1.208 . S
C21 O26 1.247 . S
C21 O27 1.208 . S
C22 O14 1.315 . S
C22 O17 1.279 . S
C23 O24 1.315 1_655 S
C23 O25 1.279 1_655 S
O24 Cd16 2.223 . S
O24 C23 1.315 1_455 S
O25 Cd15 2.240 . S
O25 C23 1.279 1_455 S
O26 Cd16 2.297 . S
O26 C21 1.247 . S
O27 Cd16 2.439 . S
O27 C21 1.208 . S
O28 Cd29 2.223 . S
O28 C36 1.315 . S
Cd29 O28 2.223 . S
Cd29 O32 2.297 . S
Cd29 O33 2.439 . S
Cd29 O39 2.240 . S
Cd30 O31 2.240 . S
Cd30 O38 2.223 . S
Cd30 O40 2.297 . S
Cd30 O41 2.439 . S
O31 Cd30 2.240 . S
O31 C36 1.279 . S
O32 Cd29 2.297 . S
O32 C34 1.247 . S
O33 Cd29 2.439 . S
O33 C34 1.208 . S
C34 O32 1.247 . S
C34 O33 1.208 . S
C35 O40 1.247 . S
C35 O41 1.208 . S
C36 O28 1.315 . S
C36 O31 1.279 . S
C37 O38 1.315 1_565 S
C37 O39 1.279 1_565 S
O38 Cd30 2.223 . S
O38 C37 1.315 1_545 S
O39 Cd29 2.240 . S
O39 C37 1.279 1_545 S
O40 Cd30 2.297 . S
O40 C35 1.247 . S
O41 Cd30 2.439 . S
O41 C35 1.208 . S
O42 Cd43 2.223 . S
O42 C50 1.315 . S
Cd43 O42 2.223 . S
Cd43 O46 2.297 . S
Cd43 O47 2.439 . S
Cd43 O53 2.240 . S
Cd44 O45 2.240 . S
Cd44 O52 2.207 1_554 S
Cd44 O54 2.297 . S
Cd44 O55 2.439 . S
O45 Cd44 2.240 . S
O45 C50 1.279 . S
O46 Cd43 2.297 . S
O46 C48 1.247 . S
O47 Cd43 2.439 . S
O47 C48 1.208 . S
C48 O46 1.247 . S
C48 O47 1.208 . S
C49 O54 1.247 . S
C49 O55 1.208 . S
C50 O42 1.315 . S
C50 O45 1.279 . S
C51 O52 1.285 1_554 S
C51 O53 1.279 . S
O52 Cd44 2.207 1_556 S
O52 C51 1.285 1_556 S
O53 Cd43 2.240 . S
O53 C51 1.279 . S
O54 Cd44 2.297 . S
O54 C49 1.247 . S
O55 Cd44 2.439 . S
O55 C49 1.208 . S
O56 Cd57 2.223 . S
O56 C64 1.315 . S
Cd57 O56 2.223 . S
Cd57 O60 2.297 . S
Cd57 O61 2.439 . S
Cd57 O67 2.240 . S
Cd58 O59 2.240 . S
Cd58 O66 2.223 . S
Cd58 O68 2.297 . S
Cd58 O69 2.439 . S
O59 Cd58 2.240 . S
O59 C64 1.279 . S
O60 Cd57 2.297 . S
O60 C62 1.247 . S
O61 Cd57 2.439 . S
O61 C62 1.208 . S
C62 O60 1.247 . S
C62 O61 1.208 . S
C63 O68 1.247 . S
C63 O69 1.208 . S
C64 O56 1.315 . S
C64 O59 1.279 . S
C65 O66 1.315 1_455 S
C65 O67 1.279 1_455 S
O66 Cd58 2.223 . S
O66 C65 1.315 1_655 S
O67 Cd57 2.240 . S
O67 C65 1.279 1_655 S
O68 Cd58 2.297 . S
O68 C63 1.247 . S
O69 Cd58 2.439 . S
O69 C63 1.208 . S
O70 Cd71 2.223 . S
O70 C78 1.315 . S
Cd71 O70 2.223 . S
Cd71 O74 2.297 . S
Cd71 O75 2.439 . S
Cd71 O81 2.240 . S
Cd72 O73 2.240 . S
Cd72 O80 2.223 . S
Cd72 O82 2.297 . S
Cd72 O83 2.439 . S
O73 Cd72 2.240 . S
O73 C78 1.279 . S
O74 Cd71 2.297 . S
O74 C76 1.247 . S
O75 Cd71 2.439 . S
O75 C76 1.208 . S
C76 O74 1.247 . S
C76 O75 1.208 . S
C77 O82 1.247 . S
C77 O83 1.208 . S
C78 O70 1.315 . S
C78 O73 1.279 . S
C79 O80 1.315 1_545 S
C79 O81 1.279 1_545 S
O80 Cd72 2.223 . S
O80 C79 1.315 1_565 S
O81 Cd71 2.240 . S
O81 C79 1.279 1_565 S
O82 Cd72 2.297 . S
O82 C77 1.247 . S
O83 Cd72 2.439 . S
O83 C77 1.208 . S
O84 Cd85 2.223 . S
O84 C92 1.315 . S
Cd85 O84 2.223 . S
Cd85 O88 2.297 . S
Cd85 O89 2.439 . S
Cd85 O95 2.240 . S
Cd86 O87 2.240 . S
Cd86 O94 2.223 . S
Cd86 O96 2.297 . S
Cd86 O97 2.439 . S
O87 Cd86 2.240 . S
O87 C92 1.279 . S
O88 Cd85 2.297 . S
O88 C90 1.247 . S
O89 Cd85 2.439 . S
O89 C90 1.208 . S
C90 O88 1.247 . S
C90 O89 1.208 . S
C91 O96 1.247 . S
C91 O97 1.208 . S
C92 O84 1.315 . S
C92 O87 1.279 . S
C93 O94 1.315 . S
C93 O95 1.279 . S
O94 Cd86 2.223 . S
O94 C93 1.315 . S
O95 Cd85 2.240 . S
O95 C93 1.279 . S
O96 Cd86 2.297 . S
O96 C91 1.247 . S
O97 Cd86 2.439 . S
O97 C91 1.208 . S
O98 Cd99 2.223 . S
O98 C106 1.315 . S
Cd99 O98 2.223 . S
Cd99 O102 2.297 . S
Cd99 O103 2.439 . S
Cd99 O109 2.240 . S
Cd100 O101 2.240 . S
Cd100 O108 2.207 1_556 S
Cd100 O110 2.297 . S
Cd100 O111 2.439 . S
O101 Cd100 2.240 . S
O101 C106 1.279 . S
O102 Cd99 2.297 . S
O102 C104 1.247 . S
O103 Cd99 2.439 . S
O103 C104 1.208 . S
C104 O102 1.247 . S
C104 O103 1.208 . S
C105 O110 1.247 . S
C105 O111 1.208 . S
C106 O98 1.315 . S
C106 O101 1.279 . S
C107 O108 1.285 1_656 S
C107 O109 1.279 1_655 S
O108 Cd100 2.207 1_554 S
O108 C107 1.285 1_454 S
O109 Cd99 2.240 . S
O109 C107 1.279 1_455 S
O110 Cd100 2.297 . S
O110 C105 1.247 . S
O111 Cd100 2.439 . S
O111 C105 1.208 . S
O112 Cd113 2.223 . S
O112 C120 1.315 . S
Cd113 O112 2.223 . S
Cd113 O116 2.297 . S
Cd113 O117 2.439 . S
Cd113 O123 2.240 . S
Cd114 O115 2.240 . S
Cd114 O122 2.223 . S
Cd114 O124 2.297 . S
Cd114 O125 2.439 . S
O115 Cd114 2.240 . S
O115 C120 1.279 . S
O116 Cd113 2.297 . S
O116 C118 1.247 . S
O117 Cd113 2.439 . S
O117 C118 1.208 . S
C118 O116 1.247 . S
C118 O117 1.208 . S
C119 O124 1.247 . S
C119 O125 1.208 . S
C120 O112 1.315 . S
C120 O115 1.279 . S
C121 O122 1.315 1_565 S
C121 O123 1.279 1_565 S
O122 Cd114 2.223 . S
O122 C121 1.315 1_545 S
O123 Cd113 2.240 . S
O123 C121 1.279 1_545 S
O124 Cd114 2.297 . S
O124 C119 1.247 . S
O125 Cd114 2.439 . S
O125 C119 1.208 . S
O126 Cd127 2.223 . S
O126 C134 1.315 . S
Cd127 O126 2.223 . S
Cd127 O130 2.297 . S
Cd127 O131 2.439 . S
Cd127 O137 2.240 . S
Cd128 O129 2.240 . S
Cd128 O136 2.223 . S
Cd128 O138 2.297 . S
Cd128 O139 2.439 . S
O129 Cd128 2.240 . S
O129 C134 1.279 . S
O130 Cd127 2.297 . S
O130 C132 1.247 . S
O131 Cd127 2.439 . S
O131 C132 1.208 . S
C132 O130 1.247 . S
C132 O131 1.208 . S
C133 O138 1.247 . S
C133 O139 1.208 . S
C134 O126 1.315 . S
C134 O129 1.279 . S
C135 O136 1.315 . S
C135 O137 1.279 . S
O136 Cd128 2.223 . S
O136 C135 1.315 . S
O137 Cd127 2.240 . S
O137 C135 1.279 . S
O138 Cd128 2.297 . S
O138 C133 1.247 . S
O139 Cd128 2.439 . S
O139 C133 1.208 . S
O140 Cd141 2.223 . S
O140 C148 1.315 . S
Cd141 O140 2.223 . S
Cd141 O144 2.297 . S
Cd141 O145 2.439 . S
Cd141 O151 2.240 . S
Cd142 O143 2.240 . S
Cd142 O150 2.207 1_556 S
Cd142 O152 2.297 . S
Cd142 O153 2.439 . S
O143 Cd142 2.240 . S
O143 C148 1.279 . S
O144 Cd141 2.297 . S
O144 C146 1.247 . S
O145 Cd141 2.439 . S
O145 C146 1.208 . S
C146 O144 1.247 . S
C146 O145 1.208 . S
C147 O152 1.247 . S
C147 O153 1.208 . S
C148 O140 1.315 . S
C148 O143 1.279 . S
C149 O150 1.285 1_456 S
C149 O151 1.279 1_455 S
O150 Cd142 2.207 1_554 S
O150 C149 1.285 1_654 S
O151 Cd141 2.240 . S
O151 C149 1.279 1_655 S
O152 Cd142 2.297 . S
O152 C147 1.247 . S
O153 Cd142 2.439 . S
O153 C147 1.208 . S
O154 Cd155 2.223 . S
O154 C162 1.315 . S
Cd155 O154 2.223 . S
Cd155 O158 2.297 . S
Cd155 O159 2.439 . S
Cd155 O165 2.240 . S
Cd156 O157 2.240 . S
Cd156 O164 2.223 . S
Cd156 O166 2.297 . S
Cd156 O167 2.439 . S
O157 Cd156 2.240 . S
O157 C162 1.279 . S
O158 Cd155 2.297 . S
O158 C160 1.247 . S
O159 Cd155 2.439 . S
O159 C160 1.208 . S
C160 O158 1.247 . S
C160 O159 1.208 . S
C161 O166 1.247 . S
C161 O167 1.208 . S
C162 O154 1.315 . S
C162 O157 1.279 . S
C163 O164 1.315 1_545 S
C163 O165 1.279 1_545 S
O164 Cd156 2.223 . S
O164 C163 1.315 1_565 S
O165 Cd155 2.240 . S
O165 C163 1.279 1_565 S
O166 Cd156 2.297 . S
O166 C161 1.247 . S
O167 Cd156 2.439 . S
O167 C161 1.208 . S
C168 C169 1.170 . S
C168 C170 1.380 . S
C169 C168 1.170 . S
C170 C168 1.380 . S
C170 C171 1.170 . S
C171 C170 1.170 . S
C172 C173 1.170 . S
C172 C174 1.380 1_455 S
C173 C172 1.170 . S
C174 C172 1.380 1_655 S
C174 C175 1.170 . S
C175 C174 1.170 . S
C176 C177 1.170 . S
C176 C178 1.380 1_565 S
C177 C176 1.170 . S
C178 C176 1.380 1_545 S
C178 C179 1.170 . S
C179 C178 1.170 . S
C180 C181 1.170 . S
C180 C182 1.380 . S
C181 C180 1.170 . S
C182 C180 1.380 . S
C182 C183 1.170 . S
C183 C182 1.170 . S
C184 C185 1.170 . S
C184 C186 1.380 1_655 S
C185 C184 1.170 . S
C186 C184 1.380 1_455 S
C186 C187 1.170 . S
C187 C186 1.170 . S
C188 C189 1.170 . S
C188 C190 1.380 1_545 S
C189 C188 1.170 . S
C190 C188 1.380 1_565 S
C190 C191 1.170 . S
C191 C190 1.170 . S
C192 C193 1.170 . S
C192 C194 1.380 . S
C193 C192 1.170 . S
C194 C192 1.380 . S
C194 C195 1.170 . S
C195 C194 1.170 . S
C196 C197 1.170 . S
C196 C198 1.380 . S
C197 C196 1.170 . S
C198 C196 1.380 . S
C198 C199 1.170 . S
C199 C198 1.170 . S
C200 C201 1.170 . S
C200 C202 1.380 . S
C201 C200 1.170 . S
C202 C200 1.380 . S
C202 C203 1.170 . S
C203 C202 1.170 . S
C204 C205 1.170 . S
C204 C206 1.380 . S
C205 C204 1.170 . S
C206 C204 1.380 . S
C206 C207 1.170 . S
C207 C206 1.170 . S
C208 C209 1.170 . S
C208 C210 1.380 . S
C209 C208 1.170 . S
C210 C208 1.380 . S
C210 C211 1.170 . S
C211 C210 1.170 . S
C212 C213 1.170 . S
C212 C214 1.380 . S
C213 C212 1.170 . S
C214 C212 1.380 . S
C214 C215 1.170 . S
C215 C214 1.170 . S
C216 C217 1.170 . S
C216 C218 1.380 1_566 S
C217 C216 1.170 . S
C218 C216 1.380 1_544 S
C218 C219 1.170 . S
C219 C218 1.170 . S
C220 C221 1.170 . S
C220 C222 1.380 . S
C221 C220 1.170 . S
C222 C220 1.380 . S
C222 C223 1.170 . S
C223 C222 1.170 . S
C224 C225 1.170 . S
C224 C226 1.380 1_655 S
C225 C224 1.170 . S
C226 C224 1.380 1_455 S
C226 C227 1.170 . S
C227 C226 1.170 . S
C228 C229 1.170 . S
C228 C230 1.380 1_564 S
C229 C228 1.170 . S
C230 C228 1.380 1_546 S
C230 C231 1.170 . S
C231 C230 1.170 . S
C232 C233 1.170 . S
C232 C234 1.380 . S
C233 C232 1.170 . S
C234 C232 1.380 . S
C234 C235 1.170 . S
C235 C234 1.170 . S
C236 C237 1.170 . S
C236 C238 1.380 1_455 S
C237 C236 1.170 . S
C238 C236 1.380 1_655 S
C238 C239 1.170 . S
C239 C238 1.170 . S
C240 C241 1.170 . S
C240 C242 1.380 1_556 S
C241 C240 1.170 . S
C242 C240 1.380 1_554 S
C242 C243 1.170 . S
C243 C242 1.170 . S
C244 C245 1.170 . S
C244 C246 1.380 . S
C245 C244 1.170 . S
C246 C244 1.380 . S
C246 C247 1.170 . S
C247 C246 1.170 . S
C248 C249 1.170 . S
C248 C250 1.380 . S
C249 C248 1.170 . S
C250 C248 1.380 . S
C250 C251 1.170 . S
C251 C250 1.170 . S
C252 C253 1.170 . S
C252 C254 1.380 1_554 S
C253 C252 1.170 . S
C254 C252 1.380 1_556 S
C254 C255 1.170 . S
C255 C254 1.170 . S
C256 C257 1.170 . S
C256 C258 1.380 . S
C257 C256 1.170 . S
C258 C256 1.380 . S
C258 C259 1.170 . S
C259 C258 1.170 . S
C260 C261 1.170 . S
C260 C262 1.380 . S
C261 C260 1.170 . S
C262 C260 1.380 . S
C262 C263 1.170 . S
C263 C262 1.170 . S
C169 C49 1.352 . S
C171 C7 1.356 . S
C173 C21 1.351 . S
C175 C63 1.355 . S
C177 C77 1.352 . S
C179 C35 1.350 . S
C181 C91 1.357 . S
C183 C133 1.352 . S
C185 C147 1.366 . S
C187 C105 1.362 . S
C189 C119 1.360 . S
C191 C161 1.365 . S
C193 C118 1.573 . S
C195 C6 1.595 . S
C197 C20 1.593 . S
C199 C132 1.583 . S
C201 C34 1.590 . S
C203 C146 1.562 . S
C205 C48 1.588 . S
C207 C160 1.589 . S
C209 C90 1.560 . S
C211 C62 1.582 . S
C213 C104 1.585 . S
C215 C76 1.592 . S
C217 C106 1.592 . S
C219 C8 1.612 . S
C221 C22 1.582 . S
C223 C120 1.614 . S
C225 C36 1.594 . S
C227 C134 1.588 . S
C229 C50 1.605 . S
C231 C148 1.581 . S
C233 C162 1.600 . S
C235 C64 1.607 . S
C237 C78 1.602 . S
C239 C92 1.583 . S
C241 C149 1.496 . S
C243 C9 1.496 . S
C245 C163 1.498 . S
C247 C23 1.498 . S
C249 C93 1.493 . S
C251 C37 1.493 . S
C253 C51 1.497 . S
C255 C107 1.497 . S
C257 C65 1.500 . S
C259 C121 1.500 . S
C261 C79 1.499 . S
C263 C135 1.499 . S
