# Generated by pormake.
# Topology zfn, (5)-cn, num edge types: 1
# Building blocks:
#     Node 0, Type 0, BuildingBlock: BEQFEK_clean_sbu_0, # of connection points: 5
#     Node 1, Type 0, BuildingBlock: BEQFEK_clean_sbu_0, # of connection points: 5
#     Node 2, Type 0, BuildingBlock: BEQFEK_clean_sbu_0, # of connection points: 5
#     Node 3, Type 0, BuildingBlock: BEQFEK_clean_sbu_0, # of connection points: 5
#     Node 4, Type 0, BuildingBlock: BEQFEK_clean_sbu_0, # of connection points: 5
#     Node 5, Type 0, BuildingBlock: BEQFEK_clean_sbu_0, # of connection points: 5
#     Node 6, Type 0, BuildingBlock: BEQFEK_clean_sbu_0, # of connection points: 5
#     Node 7, Type 0, BuildingBlock: BEQFEK_clean_sbu_0, # of connection points: 5
#     Node 8, Type 0, BuildingBlock: BEQFEK_clean_sbu_0, # of connection points: 5
#     Node 9, Type 0, BuildingBlock: BEQFEK_clean_sbu_0, # of connection points: 5
#     Node 10, Type 0, BuildingBlock: BEQFEK_clean_sbu_0, # of connection points: 5
#     Node 11, Type 0, BuildingBlock: BEQFEK_clean_sbu_0, # of connection points: 5
#     Node 12, Type 0, BuildingBlock: BEQFEK_clean_sbu_0, # of connection points: 5
#     Node 13, Type 0, BuildingBlock: BEQFEK_clean_sbu_0, # of connection points: 5
#     Node 14, Type 0, BuildingBlock: BEQFEK_clean_sbu_0, # of connection points: 5
#     Node 15, Type 0, BuildingBlock: BEQFEK_clean_sbu_0, # of connection points: 5
#     Edge 16, Type (0, 0), BuildingBlock: ZUJKAS_clean_linker_0, # of connection points: 2
#     Edge 17, Type (0, 0), BuildingBlock: ZUJKAS_clean_linker_0, # of connection points: 2
#     Edge 18, Type (0, 0), BuildingBlock: ZUJKAS_clean_linker_0, # of connection points: 2
#     Edge 19, Type (0, 0), BuildingBlock: ZUJKAS_clean_linker_0, # of connection points: 2
#     Edge 20, Type (0, 0), BuildingBlock: ZUJKAS_clean_linker_0, # of connection points: 2
#     Edge 21, Type (0, 0), BuildingBlock: ZUJKAS_clean_linker_0, # of connection points: 2
#     Edge 22, Type (0, 0), BuildingBlock: ZUJKAS_clean_linker_0, # of connection points: 2
#     Edge 23, Type (0, 0), BuildingBlock: ZUJKAS_clean_linker_0, # of connection points: 2
#     Edge 24, Type (0, 0), BuildingBlock: ZUJKAS_clean_linker_0, # of connection points: 2
#     Edge 25, Type (0, 0), BuildingBlock: ZUJKAS_clean_linker_0, # of connection points: 2
#     Edge 26, Type (0, 0), BuildingBlock: ZUJKAS_clean_linker_0, # of connection points: 2
#     Edge 27, Type (0, 0), BuildingBlock: ZUJKAS_clean_linker_0, # of connection points: 2
#     Edge 28, Type (0, 0), BuildingBlock: ZUJKAS_clean_linker_0, # of connection points: 2
#     Edge 29, Type (0, 0), BuildingBlock: ZUJKAS_clean_linker_0, # of connection points: 2
#     Edge 30, Type (0, 0), BuildingBlock: ZUJKAS_clean_linker_0, # of connection points: 2
#     Edge 31, Type (0, 0), BuildingBlock: ZUJKAS_clean_linker_0, # of connection points: 2
#     Edge 32, Type (0, 0), BuildingBlock: ZUJKAS_clean_linker_0, # of connection points: 2
#     Edge 33, Type (0, 0), BuildingBlock: ZUJKAS_clean_linker_0, # of connection points: 2
#     Edge 34, Type (0, 0), BuildingBlock: ZUJKAS_clean_linker_0, # of connection points: 2
#     Edge 35, Type (0, 0), BuildingBlock: ZUJKAS_clean_linker_0, # of connection points: 2
#     Edge 36, Type (0, 0), BuildingBlock: ZUJKAS_clean_linker_0, # of connection points: 2
#     Edge 37, Type (0, 0), BuildingBlock: ZUJKAS_clean_linker_0, # of connection points: 2
#     Edge 38, Type (0, 0), BuildingBlock: ZUJKAS_clean_linker_0, # of connection points: 2
#     Edge 39, Type (0, 0), BuildingBlock: ZUJKAS_clean_linker_0, # of connection points: 2
#     Edge 40, Type (0, 0), BuildingBlock: ZUJKAS_clean_linker_0, # of connection points: 2
#     Edge 41, Type (0, 0), BuildingBlock: ZUJKAS_clean_linker_0, # of connection points: 2
#     Edge 42, Type (0, 0), BuildingBlock: ZUJKAS_clean_linker_0, # of connection points: 2
#     Edge 43, Type (0, 0), BuildingBlock: ZUJKAS_clean_linker_0, # of connection points: 2
#     Edge 44, Type (0, 0), BuildingBlock: ZUJKAS_clean_linker_0, # of connection points: 2
#     Edge 45, Type (0, 0), BuildingBlock: ZUJKAS_clean_linker_0, # of connection points: 2
#     Edge 46, Type (0, 0), BuildingBlock: ZUJKAS_clean_linker_0, # of connection points: 2
#     Edge 47, Type (0, 0), BuildingBlock: ZUJKAS_clean_linker_0, # of connection points: 2
#     Edge 48, Type (0, 0), BuildingBlock: ZUJKAS_clean_linker_0, # of connection points: 2
#     Edge 49, Type (0, 0), BuildingBlock: ZUJKAS_clean_linker_0, # of connection points: 2
#     Edge 50, Type (0, 0), BuildingBlock: ZUJKAS_clean_linker_0, # of connection points: 2
#     Edge 51, Type (0, 0), BuildingBlock: ZUJKAS_clean_linker_0, # of connection points: 2
#     Edge 52, Type (0, 0), BuildingBlock: ZUJKAS_clean_linker_0, # of connection points: 2
#     Edge 53, Type (0, 0), BuildingBlock: ZUJKAS_clean_linker_0, # of connection points: 2
#     Edge 54, Type (0, 0), BuildingBlock: ZUJKAS_clean_linker_0, # of connection points: 2
#     Edge 55, Type (0, 0), BuildingBlock: ZUJKAS_clean_linker_0, # of connection points: 2
# Relax obj value: 0.129
# Max RMSD: 0.169
# Mean RMSD: 0.169
data_MOF--net-zfn--node1-BEQFEK_clean_sbu_0--edge1-ZUJKAS_clean_linker_0
_symmetry_space_group_name_H-M    P1
_symmetry_Int_Tables_number       1
_symmetry_cell_setting            triclinic
loop_
_symmetry_equiv_pos_as_xyz
'x, y, z'
_cell_length_a     95.335521
_cell_length_b     95.342474
_cell_length_c     23.319065
_cell_angle_alpha  90.004657
_cell_angle_beta   90.008696
_cell_angle_gamma 89.99069
loop_
_atom_site_label
_atom_site_type_symbol
_atom_site_fract_x
_atom_site_fract_y
_atom_site_fract_z
_atom_type_partial_charge
Co0 Co -0.00141 0.35802 0.08449 0.0
Co1 Co 0.00856 0.36438 0.20977 0.0
C2 C 0.98186 0.37648 0.16069 0.0
O3 O 0.98341 0.37024 0.11288 0.0
O4 O 0.99085 0.37515 0.20073 0.0
C5 C 0.98311 0.35449 0.97878 0.0
O6 O 0.97312 0.36152 0.00476 0.0
C7 C 0.00453 0.36382 0.33298 0.0
C8 C 0.02609 0.36584 0.36675 0.0
C9 C 0.01222 0.36419 0.38346 0.0
N10 N 0.01342 0.36518 0.28871 0.0
N11 N 0.02629 0.36653 0.30905 0.0
C12 C 0.98922 0.36076 0.326 0.0
H13 H 0.98717 0.356 0.2834 0.0
H14 H 0.98548 0.35357 0.36017 0.0
H15 H 0.98324 0.37072 0.3289 0.0
C16 C 0.00073 0.32891 0.12625 0.0
N17 N 0.00163 0.34285 0.13441 0.0
N18 N 0.00624 0.34537 0.1866 0.0
C19 C 0.00864 0.33304 0.21316 0.0
C20 C 0.00517 0.32224 0.17582 0.0
C21 C 0.99651 0.32227 0.07072 0.0
H22 H 0.00377 0.32579 0.03641 0.0
H23 H 0.98582 0.32586 0.05898 0.0
H24 H 0.99673 0.31066 0.07308 0.0
O25 O 0.01602 0.36899 0.07634 0.0
O26 O 0.02362 0.37345 0.16441 0.0
H27 H 0.02339 0.33818 0.27915 0.0
H28 H 0.01634 0.32063 0.28473 0.0
C29 C 0.01388 0.33164 0.27342 0.0
H30 H 0.00571 0.33544 0.30337 0.0
H31 H 0.03522 0.36759 0.28356 0.0
O32 O 0.99424 0.35146 0.00608 0.0
C33 C 0.02499 0.37438 0.11022 0.0
Co34 Co 0.13936 -0.00123 0.58729 0.0
Co35 Co 0.13179 0.00726 0.71292 0.0
C36 C 0.1203 0.9811 0.65563 0.0
O37 O 0.12716 0.9831 0.60961 0.0
O38 O 0.12106 0.9897 0.69731 0.0
C39 C 0.14647 0.98397 0.48287 0.0
O40 O 0.14226 0.97263 0.50982 0.0
C41 C 0.13374 0.00213 0.83593 0.0
C42 C 0.12753 0.02256 0.87268 0.0
C43 C 0.13219 0.00926 0.88744 0.0
N44 N 0.13044 0.0109 0.7929 0.0
N45 N 0.12664 0.02307 0.8151 0.0
C46 C 0.13784 0.98709 0.82735 0.0
H47 H 0.13381 0.98307 0.78604 0.0
H48 H 0.14943 0.9862 0.82639 0.0
H49 H 0.13379 0.9805 0.8629 0.0
C50 C 0.16807 0.00011 0.63451 0.0
N51 N 0.15407 0.00112 0.64018 0.0
N52 N 0.15103 0.00548 0.69223 0.0
C53 C 0.16309 0.00785 0.72085 0.0
C54 C 0.17427 0.00435 0.68549 0.0
C55 C 0.17521 0.99472 0.58178 0.0
H56 H 0.17525 0.00307 0.54864 0.0
H57 H 0.16932 0.98562 0.56452 0.0
H58 H 0.18616 0.99146 0.5908 0.0
O59 O 0.12812 0.01617 0.58146 0.0
O60 O 0.12306 0.02289 0.67017 0.0
H61 H 0.15531 0.02244 0.78356 0.0
H62 H 0.17412 0.02053 0.78298 0.0
C63 C 0.16402 0.01487 0.77821 0.0
H64 H 0.16338 0.00686 0.81253 0.0
H65 H 0.12364 0.03178 0.79093 0.0
O66 O 0.14657 0.99564 0.50916 0.0
C67 C 0.12242 0.02476 0.61617 0.0
Co68 Co 0.49726 0.13913 0.07968 0.0
Co69 Co 0.48928 0.13243 0.20707 0.0
C70 C 0.51501 0.12027 0.14988 0.0
O71 O 0.51275 0.12669 0.10296 0.0
O72 O 0.50672 0.12157 0.1924 0.0
C73 C 0.51241 0.14577 0.97559 0.0
O74 O 0.52364 0.14171 0.00373 0.0
C75 C 0.49471 0.13296 0.33015 0.0
C76 C 0.47346 0.13078 0.36698 0.0
C77 C 0.48741 0.13274 0.38162 0.0
N78 N 0.48544 0.13151 0.28712 0.0
N79 N 0.47278 0.13007 0.30936 0.0
C80 C 0.51025 0.13385 0.3212 0.0
H81 H 0.51383 0.12432 0.29832 0.0
H82 H 0.51273 0.14299 0.29354 0.0
H83 H 0.51613 0.13454 0.36205 0.0
C84 C 0.49635 0.1681 0.1238 0.0
N85 N 0.49521 0.15416 0.1312 0.0
N86 N 0.4914 0.15152 0.18437 0.0
C87 C 0.48976 0.16379 0.21235 0.0
C88 C 0.49292 0.17466 0.17492 0.0
C89 C 0.49995 0.17491 0.06789 0.0
H90 H 0.49249 0.17132 0.03448 0.0
H91 H 0.51062 0.17157 0.05464 0.0
H92 H 0.49955 0.18652 0.07066 0.0
O93 O 0.47966 0.1283 0.0754 0.0
O94 O 0.47351 0.12355 0.16508 0.0
H95 H 0.4762 0.15854 0.28236 0.0
H96 H 0.48332 0.17608 0.28629 0.0
C97 C 0.48559 0.16508 0.27403 0.0
H98 H 0.49427 0.16127 0.30145 0.0
H99 H 0.46365 0.12888 0.28518 0.0
O100 O 0.50061 0.14587 0.00088 0.0
C101 C 0.47126 0.12279 0.11132 0.0
Co102 Co 0.35813 0.49687 0.58667 0.0
Co103 Co 0.3644 0.48879 0.71401 0.0
C104 C 0.3758 0.51518 0.65921 0.0
O105 O 0.36969 0.51287 0.61163 0.0
O106 O 0.37467 0.50665 0.701 0.0
C107 C 0.35072 0.51186 0.48262 0.0
O108 O 0.35371 0.52338 0.51102 0.0
C109 C 0.36312 0.49387 0.83711 0.0
C110 C 0.36562 0.47257 0.87315 0.0
C111 C 0.36323 0.48643 0.88822 0.0
N112 N 0.36503 0.48477 0.79383 0.0
N113 N 0.36666 0.47208 0.81559 0.0
C114 C 0.36189 0.50941 0.8288 0.0
H115 H 0.35272 0.51175 0.8011 0.0
H116 H 0.36102 0.51517 0.86987 0.0
H117 H 0.37136 0.51327 0.8063 0.0
C118 C 0.32895 0.4946 0.62784 0.0
N119 N 0.34288 0.49403 0.6365 0.0
N120 N 0.34539 0.49021 0.68975 0.0
C121 C 0.33305 0.488 0.71652 0.0
C122 C 0.32226 0.49077 0.6782 0.0
C123 C 0.32227 0.49813 0.57159 0.0
H124 H 0.32635 0.49097 0.53802 0.0
H125 H 0.3252 0.50899 0.55934 0.0
H126 H 0.31068 0.49722 0.57335 0.0
O127 O 0.36979 0.47976 0.5825 0.0
O128 O 0.37401 0.47344 0.6724 0.0
H129 H 0.33836 0.47445 0.78652 0.0
H130 H 0.32061 0.48108 0.78932 0.0
C131 C 0.33159 0.48368 0.77797 0.0
H132 H 0.33505 0.4924 0.80592 0.0
H133 H 0.36821 0.46305 0.79109 0.0
O134 O 0.35161 0.50007 0.50769 0.0
C135 C 0.3753 0.47142 0.61867 0.0
Co136 Co 0.00089 0.14065 0.40059 0.0
Co137 Co 0.00939 0.13297 0.27472 0.0
C138 C 0.98299 0.1219 0.33167 0.0
O139 O 0.98509 0.12865 0.37789 0.0
O140 O 0.99161 0.12257 0.29006 0.0
C141 C 0.98621 0.14756 0.5055 0.0
O142 O 0.97491 0.14319 0.47862 0.0
C143 C 0.00413 0.13527 0.15183 0.0
C144 C 0.02413 0.12807 0.11413 0.0
C145 C 0.011 0.13329 0.09996 0.0
N146 N 0.01289 0.13163 0.1945 0.0
N147 N 0.02481 0.12726 0.17173 0.0
C148 C 0.9893 0.13998 0.16103 0.0
H149 H 0.98882 0.15159 0.16014 0.0
H150 H 0.98239 0.13585 0.12663 0.0
H151 H 0.98537 0.13651 0.20332 0.0
C152 C 0.00273 0.16931 0.3536 0.0
N153 N 0.00351 0.1553 0.34777 0.0
N154 N 0.00792 0.15222 0.29583 0.0
C155 C 0.01057 0.16426 0.26747 0.0
C156 C 0.0072 0.17547 0.30288 0.0
C157 C 0.99738 0.1765 0.40627 0.0
H158 H 0.00576 0.17659 0.43929 0.0
H159 H 0.9883 0.17064 0.42378 0.0
H160 H 0.99412 0.18745 0.39707 0.0
O161 O 0.01816 0.12924 0.40608 0.0
O162 O 0.02487 0.1239 0.31759 0.0
H163 H 0.02503 0.15617 0.20487 0.0
H164 H 0.0237 0.17504 0.20629 0.0
C165 C 0.01773 0.16511 0.21039 0.0
H166 H 0.00978 0.16482 0.17577 0.0
H167 H 0.03343 0.12387 0.19549 0.0
O168 O 0.99785 0.14784 0.47905 0.0
C169 C 0.02669 0.12335 0.37166 0.0
Co170 Co 0.35667 0.99836 0.91038 0.0
Co171 Co 0.36301 0.00761 0.78423 0.0
C172 C 0.37507 0.98119 0.83507 0.0
O173 O 0.36884 0.98307 0.88268 0.0
O174 O 0.3738 0.98992 0.7941 0.0
C175 C 0.35283 0.98279 0.01549 0.0
O176 O 0.35961 0.97271 0.98894 0.0
C177 C 0.3626 0.00343 0.661 0.0
C178 C 0.36471 0.02496 0.62709 0.0
C179 C 0.36309 0.01108 0.61043 0.0
N180 N 0.36387 0.01235 0.70521 0.0
N181 N 0.36526 0.0252 0.68479 0.0
C182 C 0.35959 0.98811 0.66814 0.0
H183 H 0.35478 0.98608 0.71068 0.0
H184 H 0.35246 0.98431 0.63389 0.0
H185 H 0.36958 0.98217 0.66561 0.0
C186 C 0.32755 0.00024 0.86834 0.0
N187 N 0.34148 0.00119 0.86022 0.0
N188 N 0.344 0.00544 0.80752 0.0
C189 C 0.33166 0.00756 0.7806 0.0
C190 C 0.32086 0.00428 0.81822 0.0
C191 C 0.3209 0.99623 0.92411 0.0
H192 H 0.32451 0.00353 0.9581 0.0
H193 H 0.32438 0.98553 0.93625 0.0
H194 H 0.30928 0.99655 0.92182 0.0
O195 O 0.36772 0.0158 0.91774 0.0
O196 O 0.37209 0.02278 0.82876 0.0
H197 H 0.33675 0.02181 0.71275 0.0
H198 H 0.31923 0.01466 0.70804 0.0
C199 C 0.33025 0.01233 0.71969 0.0
H200 H 0.33409 0.00394 0.69082 0.0
H201 H 0.36628 0.03414 0.71023 0.0
O202 O 0.35008 0.99409 0.98885 0.0
C203 C 0.37312 0.02451 0.88275 0.0
Co204 Co 0.49863 0.35668 0.40466 0.0
Co205 Co 0.48841 0.3634 0.27999 0.0
C206 C 0.51523 0.37534 0.32902 0.0
O207 O 0.51375 0.36896 0.37658 0.0
O208 O 0.50617 0.37414 0.28916 0.0
C209 C 0.51377 0.35342 0.51111 0.0
O210 O 0.52345 0.36107 0.48609 0.0
C211 C 0.49246 0.36243 0.15701 0.0
C212 C 0.47117 0.36605 0.12267 0.0
C213 C 0.48491 0.36339 0.10629 0.0
N214 N 0.48362 0.36444 0.20103 0.0
N215 N 0.47092 0.36671 0.18037 0.0
C216 C 0.50754 0.35843 0.16449 0.0
H217 H 0.50924 0.35367 0.20736 0.0
H218 H 0.51086 0.35094 0.13068 0.0
H219 H 0.51414 0.36798 0.16142 0.0
C220 C 0.49739 0.32774 0.3601 0.0
N221 N 0.49573 0.34166 0.35377 0.0
N222 N 0.49086 0.34433 0.3021 0.0
C223 C 0.48895 0.33209 0.27425 0.0
C224 C 0.49313 0.32119 0.30988 0.0
C225 C 0.5036 0.32105 0.4123 0.0
H226 H 0.49548 0.32046 0.44629 0.0
H227 H 0.51237 0.32756 0.42862 0.0
H228 H 0.50752 0.31033 0.40302 0.0
O229 O 0.48118 0.36765 0.41344 0.0
O230 O 0.47339 0.37235 0.32587 0.0
H231 H 0.47386 0.33864 0.21138 0.0
H232 H 0.47778 0.32015 0.20993 0.0
C233 C 0.48231 0.33075 0.21632 0.0
H234 H 0.49035 0.33258 0.1828 0.0
H235 H 0.46206 0.36843 0.20563 0.0
O236 O 0.50291 0.34991 0.48298 0.0
C237 C 0.47215 0.37315 0.38014 0.0
Co238 Co 0.14035 0.49645 0.90274 0.0
Co239 Co 0.13312 0.48833 0.77638 0.0
C240 C 0.12117 0.51412 0.83461 0.0
O241 O 0.12791 0.51198 0.88083 0.0
O242 O 0.12218 0.50572 0.79232 0.0
C243 C 0.14748 0.51134 0.00679 0.0
O244 O 0.14356 0.52268 0.97912 0.0
C245 C 0.13525 0.49375 0.65367 0.0
C246 C 0.12908 0.4734 0.61601 0.0
C247 C 0.13372 0.48674 0.60186 0.0
N248 N 0.13192 0.48486 0.69629 0.0
N249 N 0.12815 0.47275 0.67355 0.0
C250 C 0.13931 0.50877 0.66294 0.0
H251 H 0.13534 0.51264 0.70459 0.0
H252 H 0.1509 0.50969 0.66361 0.0
H253 H 0.13518 0.51546 0.62782 0.0
C254 C 0.16917 0.49542 0.85654 0.0
N255 N 0.15518 0.49444 0.85019 0.0
N256 N 0.15228 0.49022 0.79781 0.0
C257 C 0.16441 0.48792 0.76963 0.0
C258 C 0.1755 0.4913 0.80566 0.0
C259 C 0.17618 0.50058 0.90995 0.0
H260 H 0.17038 0.50975 0.92701 0.0
H261 H 0.18722 0.50365 0.90186 0.0
H262 H 0.17591 0.49217 0.94285 0.0
O263 O 0.1294 0.47884 0.90746 0.0
O264 O 0.12446 0.47253 0.81812 0.0
H265 H 0.1756 0.47534 0.70758 0.0
H266 H 0.16491 0.48905 0.67799 0.0
C267 C 0.16548 0.48099 0.71212 0.0
H268 H 0.15679 0.47342 0.70622 0.0
H269 H 0.12513 0.46398 0.69732 0.0
O270 O 0.14739 0.49959 0.98112 0.0
C271 C 0.12382 0.47037 0.87193 0.0
Co272 Co 0.99669 0.63874 0.91219 0.0
Co273 Co 0.98827 0.63182 0.78589 0.0
C274 C 0.01395 0.61937 0.84334 0.0
O275 O 0.01202 0.6261 0.88975 0.0
O276 O 0.00548 0.62055 0.80138 0.0
C277 C 0.01176 0.64548 0.01631 0.0
O278 O 0.02302 0.64131 0.98862 0.0
C279 C 0.99373 0.6339 0.66313 0.0
C280 C 0.97323 0.62825 0.62545 0.0
C281 C 0.98668 0.63256 0.61131 0.0
N282 N 0.98476 0.63078 0.70575 0.0
N283 N 0.97255 0.62733 0.68299 0.0
C284 C 0.00885 0.63756 0.67234 0.0
H285 H 0.01263 0.63353 0.71401 0.0
H286 H 0.01008 0.64912 0.67286 0.0
H287 H 0.01542 0.63324 0.63726 0.0
C288 C 0.99637 0.66763 0.8663 0.0
N289 N 0.99491 0.65368 0.85996 0.0
N290 N 0.99058 0.65091 0.80761 0.0
C291 C 0.98867 0.66312 0.77944 0.0
C292 C 0.99246 0.67408 0.81542 0.0
C293 C 0.00187 0.67445 0.91952 0.0
H294 H 0.0109 0.66837 0.93618 0.0
H295 H 0.00525 0.6854 0.9114 0.0
H296 H 0.99354 0.67442 0.95277 0.0
O297 O 0.97889 0.62808 0.91697 0.0
O298 O 0.97233 0.6234 0.82769 0.0
H299 H 0.97651 0.67471 0.71731 0.0
H300 H 0.98991 0.66363 0.68782 0.0
C301 C 0.98184 0.66442 0.72183 0.0
H302 H 0.97402 0.65597 0.71573 0.0
H303 H 0.96372 0.62452 0.70675 0.0
O304 O 1e-05 0.64565 0.99064 0.0
C305 C 0.97025 0.62271 0.88156 0.0
Co306 Co 0.8595 0.99777 0.41581 0.0
Co307 Co 0.86361 0.99089 0.28637 0.0
C308 C 0.87643 0.01637 0.33831 0.0
O309 O 0.8709 0.01362 0.38677 0.0
O310 O 0.87468 0.00829 0.29542 0.0
C311 C 0.84926 0.01179 0.52036 0.0
O312 O 0.84432 0.0221 0.4889 0.0
C313 C 0.86252 0.99447 0.16157 0.0
C314 C 0.8571 0.97297 0.13367 0.0
C315 C 0.85895 0.98654 0.11399 0.0
N316 N 0.86258 0.98597 0.20755 0.0
N317 N 0.85965 0.97308 0.1904 0.0
C318 C 0.8639 0.01009 0.16485 0.0
H319 H 0.85955 0.01402 0.20592 0.0
H320 H 0.85844 0.0153 0.12861 0.0
H321 H 0.87519 0.0129 0.1632 0.0
C322 C 0.8295 0.99424 0.38372 0.0
N323 N 0.84328 0.99492 0.37109 0.0
N324 N 0.845 0.99319 0.31559 0.0
C325 C 0.83229 0.99214 0.29063 0.0
C326 C 0.82203 0.99249 0.33302 0.0
C327 C 0.82381 0.99395 0.44352 0.0
H328 H 0.83154 0.98914 0.47307 0.0
H329 H 0.82171 0.00485 0.45785 0.0
H330 H 0.81387 0.98791 0.44555 0.0
O331 O 0.87066 0.98059 0.41701 0.0
O332 O 0.87341 0.97503 0.32551 0.0
H333 H 0.83203 0.9814 0.21002 0.0
H334 H 0.81915 0.99524 0.2157 0.0
C335 C 0.82998 0.99206 0.2271 0.0
H336 H 0.83721 -0.00043 0.2065 0.0
H337 H 0.85864 0.96452 0.21796 0.0
O338 O 0.85519 0.00137 0.4967 0.0
C339 C 0.87539 0.97246 0.3785 0.0
Co340 Co 0.49798 0.85668 0.91197 0.0
Co341 Co 0.50824 0.864 0.78789 0.0
C342 C 0.48106 0.87517 0.83717 0.0
O343 O 0.48255 0.8686 0.88427 0.0
O344 O 0.49025 0.87437 0.79764 0.0
C345 C 0.48296 0.85269 0.01841 0.0
O346 O 0.47287 0.85978 0.99333 0.0
C347 C 0.5042 0.86306 0.66484 0.0
C348 C 0.52542 0.86711 0.63057 0.0
C349 C 0.51175 0.86412 0.61416 0.0
N350 N 0.51298 0.86531 0.7089 0.0
N351 N 0.52563 0.86786 0.68826 0.0
C352 C 0.48924 0.85867 0.67224 0.0
H353 H 0.48763 0.85395 0.71523 0.0
H354 H 0.48615 0.85103 0.6386 0.0
H355 H 0.48238 0.86804 0.66873 0.0
C356 C 0.50031 0.82789 0.86657 0.0
N357 N 0.50139 0.84187 0.86059 0.0
N358 N 0.50623 0.84481 0.80912 0.0
C359 C 0.50867 0.8327 0.78102 0.0
C360 C 0.5049 0.82159 0.81631 0.0
C361 C 0.49445 0.82086 0.9187 0.0
H362 H 0.48542 0.82696 0.9353 0.0
H363 H 0.49101 0.80999 0.9092 0.0
H364 H 0.50263 0.82058 0.95256 0.0
O365 O 0.51507 0.86814 0.92127 0.0
O366 O 0.5231 0.87308 0.83434 0.0
H367 H 0.52371 0.83986 0.71912 0.0
H368 H 0.52037 0.82126 0.7167 0.0
C369 C 0.5155 0.83171 0.72334 0.0
H370 H 0.50749 0.83337 0.68954 0.0
H371 H 0.53445 0.86978 0.71354 0.0
O372 O 0.49397 0.8497 0.9902 0.0
C373 C 0.52411 0.87387 0.88871 0.0
Co374 Co 0.63778 0.4981 0.41527 0.0
Co375 Co 0.63458 0.50719 0.28767 0.0
C376 C 0.62129 0.4809 0.33269 0.0
O377 O 0.62652 0.48282 0.38225 0.0
O378 O 0.62337 0.48962 0.29226 0.0
C379 C 0.64642 0.48272 0.5195 0.0
O380 O 0.65155 0.47252 0.48797 0.0
C381 C 0.63682 0.50385 0.16392 0.0
C382 C 0.63924 0.52575 0.13431 0.0
C383 C 0.63901 0.51197 0.11551 0.0
N384 N 0.63588 0.51244 0.20938 0.0
N385 N 0.63713 0.52553 0.19139 0.0
C386 C 0.63726 0.48819 0.16822 0.0
H387 H 0.64165 0.48497 0.21026 0.0
H388 H 0.64366 0.48359 0.13322 0.0
H389 H 0.62641 0.48404 0.1649 0.0
C390 C 0.6681 0.50065 0.38631 0.0
N391 N 0.65436 0.50113 0.37281 0.0
N392 N 0.653 0.50477 0.31861 0.0
C393 C 0.66587 0.5066 0.29582 0.0
C394 C 0.67581 0.50406 0.33798 0.0
C395 C 0.67374 0.49786 0.44506 0.0
H396 H 0.66676 0.50255 0.47784 0.0
H397 H 0.67424 0.48637 0.45209 0.0
H398 H 0.68447 0.50222 0.45002 0.0
O399 O 0.62671 0.51549 0.41825 0.0
O400 O 0.62452 0.52252 0.32815 0.0
H401 H 0.6642 0.5206 0.2245 0.0
H402 H 0.67999 0.51013 0.22404 0.0
C403 C 0.66864 0.51012 0.23429 0.0
H404 H 0.66347 0.50226 0.2065 0.0
H405 H 0.63701 0.53426 0.21835 0.0
O406 O 0.64115 0.49353 0.49614 0.0
C407 C 0.62222 0.52424 0.38146 0.0
Co408 Co 0.99746 0.85525 0.57672 0.0
Co409 Co 0.98833 0.86271 0.70208 0.0
C410 C 0.01465 0.87441 0.64731 0.0
O411 O 0.01289 0.86763 0.60088 0.0
O412 O 0.00589 0.87349 0.68838 0.0
C413 C 0.01255 0.84884 0.47175 0.0
O414 O 0.02371 0.85379 0.49786 0.0
C415 C 0.99284 0.86269 0.82594 0.0
C416 C 0.97127 0.86451 0.85979 0.0
C417 C 0.98512 0.86272 0.87637 0.0
N418 N 0.98393 0.86401 0.78163 0.0
N419 N 0.97106 0.86529 0.80212 0.0
C420 C 0.00846 0.86189 0.81931 0.0
H421 H 0.01131 0.85203 0.79686 0.0
H422 H 0.01399 0.86251 0.86102 0.0
H423 H 0.01211 0.87074 0.79247 0.0
C424 C 0.99601 0.82656 0.6231 0.0
N425 N 0.99485 0.84053 0.62914 0.0
N426 N 0.99056 0.84348 0.68141 0.0
C427 C 0.98861 0.83135 0.71014 0.0
C428 C 0.99208 0.82027 0.67417 0.0
C429 C 0.00013 0.81947 0.56837 0.0
H430 H 0.99276 0.82264 0.53389 0.0
H431 H 0.01077 0.82302 0.55568 0.0
H432 H 1e-05 0.80788 0.57239 0.0
O433 O 0.98005 0.86624 0.56928 0.0
O434 O 0.9729 0.87142 0.65727 0.0
H435 H 0.97439 0.83696 0.77745 0.0
H436 H 0.98145 0.81945 0.78402 0.0
C437 C 0.98385 0.83038 0.7712 0.0
H438 H 0.99226 0.83433 0.79965 0.0
H439 H 0.96212 0.8663 0.77669 0.0
O440 O 0.00101 0.8481 0.49877 0.0
C441 C 0.97127 0.87194 0.60309 0.0
Co442 Co 0.63972 0.99483 0.09678 0.0
Co443 Co 0.63246 0.98869 0.22519 0.0
C444 C 0.62104 0.01388 0.1651 0.0
O445 O 0.62752 0.0108 0.11904 0.0
O446 O 0.62197 0.00615 0.20946 0.0
C447 C 0.64726 0.01005 0.9942 0.0
O448 O 0.64397 0.02135 0.02355 0.0
C449 C 0.63063 0.9934 0.34921 0.0
C450 C 0.63334 0.97193 0.38311 0.0
C451 C 0.63207 0.98582 0.39963 0.0
N452 N 0.6314 0.98443 0.30489 0.0
N453 N 0.63278 0.97158 0.32544 0.0
C454 C 0.62827 0.00885 0.34262 0.0
H455 H 0.61838 0.01052 0.31869 0.0
H456 H 0.63689 0.01351 0.31702 0.0
H457 H 0.62736 0.01427 0.38447 0.0
C458 C 0.66861 0.99208 0.14146 0.0
N459 N 0.65462 0.99235 0.14877 0.0
N460 N 0.65166 0.99064 0.20339 0.0
C461 C 0.66377 0.98986 0.23314 0.0
C462 C 0.67495 0.99055 0.19483 0.0
C463 C 0.67556 0.99221 0.08389 0.0
H464 H 0.66914 0.98624 0.05266 0.0
H465 H 0.67638 0.0032 0.06856 0.0
H466 H 0.68619 0.9875 0.08568 0.0
O467 O 0.62851 0.97765 0.09261 0.0
O468 O 0.62336 0.97286 0.18325 0.0
H469 H 0.66167 0.97914 0.31333 0.0
H470 H 0.67515 0.99251 0.31316 0.0
C471 C 0.66456 0.9897 0.29728 0.0
H472 H 0.65711 0.99746 0.31493 0.0
H473 H 0.63385 0.96264 0.30001 0.0
O474 O 0.64661 0.99812 0.01828 0.0
C475 C 0.62265 0.96992 0.13001 0.0
Co476 Co 0.49871 0.64015 0.58337 0.0
Co477 Co 0.50788 0.63289 0.70872 0.0
C478 C 0.48129 0.62146 0.65415 0.0
O479 O 0.483 0.62814 0.60747 0.0
O480 O 0.4902 0.62233 0.6947 0.0
C481 C 0.48377 0.64704 0.47861 0.0
O482 O 0.47243 0.64259 0.50494 0.0
C483 C 0.50325 0.63425 0.83274 0.0
C484 C 0.52442 0.62991 0.867 0.0
C485 C 0.51088 0.63341 0.88331 0.0
N486 N 0.51197 0.63171 0.78859 0.0
N487 N 0.52457 0.62899 0.80938 0.0
C488 C 0.48785 0.63704 0.82641 0.0
H489 H 0.48363 0.63187 0.78772 0.0
H490 H 0.48604 0.64847 0.82185 0.0
H491 H 0.482 0.63323 0.86451 0.0
C492 C 0.50076 0.66896 0.62856 0.0
N493 N 0.50159 0.65497 0.63519 0.0
N494 N 0.50615 0.65208 0.68711 0.0
C495 C 0.50878 0.66423 0.71475 0.0
C496 C 0.50531 0.67528 0.67869 0.0
C497 C 0.49643 0.676 0.57403 0.0
H498 H 0.50376 0.67294 0.53929 0.0
H499 H 0.4858 0.67233 0.56169 0.0
H500 H 0.49643 0.68759 0.57814 0.0
O501 O 0.51596 0.62878 0.57663 0.0
O502 O 0.52319 0.62383 0.6648 0.0
H503 H 0.52305 0.65753 0.78038 0.0
H504 H 0.51851 0.67589 0.78416 0.0
C505 C 0.51449 0.66526 0.77445 0.0
H506 H 0.50603 0.66291 0.80549 0.0
H507 H 0.53334 0.62678 0.78417 0.0
O508 O 0.49537 0.64726 0.50533 0.0
C509 C 0.52471 0.62307 0.61062 0.0
Co510 Co 0.85656 0.4994 0.09972 0.0
Co511 Co 0.86433 0.5089 0.22412 0.0
C512 C 0.87608 0.48251 0.16886 0.0
O513 O 0.8691 0.48403 0.12279 0.0
O514 O 0.87525 0.49143 0.20939 0.0
C515 C 0.8501 0.48453 0.99445 0.0
O516 O 0.85524 0.4734 0.02014 0.0
C517 C 0.86265 0.50408 0.34742 0.0
C518 C 0.86852 0.52471 0.38322 0.0
C519 C 0.8641 0.51137 0.39862 0.0
N520 N 0.86578 0.5128 0.30395 0.0
N521 N 0.86938 0.52509 0.3256 0.0
C522 C 0.85879 0.48896 0.33957 0.0
H523 H 0.86291 0.48487 0.29854 0.0
H524 H 0.84722 0.4879 0.33847 0.0
H525 H 0.86291 0.48253 0.37549 0.0
C526 C 0.828 0.50008 0.14897 0.0
N527 N 0.84198 0.50174 0.1532 0.0
N528 N 0.8451 0.50663 0.20437 0.0
C529 C 0.8331 0.50875 0.23373 0.0
C530 C 0.8219 0.50446 0.19997 0.0
C531 C 0.82084 0.49388 0.09782 0.0
H532 H 0.81966 0.50209 0.06443 0.0
H533 H 0.82733 0.4853 0.0798 0.0
H534 H 0.81033 0.48971 0.10904 0.0
O535 O 0.86745 0.517 0.09226 0.0
O536 O 0.87274 0.52444 0.17977 0.0
H537 H 0.84072 0.524 0.29413 0.0
H538 H 0.82196 0.52163 0.29473 0.0
C539 C 0.83219 0.51618 0.29021 0.0
H540 H 0.8331 0.50847 0.32555 0.0
H541 H 0.8722 0.53379 0.30103 0.0
O542 O 0.8492 0.49601 0.02187 0.0
C543 C 0.87313 0.52593 0.12553 0.0
H544 H 0.96124 0.38291 0.08339 0.0
H545 H 0.94217 0.39977 0.0949 0.0
H546 H 0.95564 0.40816 0.26806 0.0
H547 H 0.97489 0.39143 0.25691 0.0
H548 H 0.92 0.4012 0.17652 0.0
H549 H 0.95606 0.44697 0.19014 0.0
H550 H 0.96177 0.42997 0.16538 0.0
H551 H 0.95931 0.43312 0.24065 0.0
C552 C 0.96014 0.38827 0.12408 0.0
C553 C 0.9697 0.38592 0.16903 0.0
C554 C 0.94921 0.39788 0.13058 0.0
C555 C 0.94766 0.40534 0.18199 0.0
C556 C 0.95684 0.40267 0.22769 0.0
H557 H 0.89236 0.47559 0.26138 0.0
H558 H 0.90885 0.45605 0.26957 0.0
C559 C 0.9678 0.39307 0.22125 0.0
C560 C 0.93667 0.41622 0.1868 0.0
H561 H 0.9319 0.45156 0.19904 0.0
C562 C 0.92257 0.41221 0.1817 0.0
C563 C 0.94011 0.43056 0.19362 0.0
C564 C 0.95513 0.43549 0.19733 0.0
C565 C 0.91176 0.4222 0.183 0.0
C566 C 0.91522 0.43656 0.18854 0.0
C567 C 0.92931 0.44053 0.19489 0.0
C568 C 0.90449 0.44774 0.18511 0.0
C569 C 0.89675 0.41731 0.17866 0.0
C570 C 0.89663 0.44953 0.13481 0.0
C571 C 0.88721 0.46068 0.12989 0.0
C572 C 0.88557 0.47032 0.17508 0.0
C573 C 0.89338 0.46839 0.22571 0.0
C574 C 0.90279 0.45722 0.23055 0.0
H575 H 0.89567 0.40613 0.19136 0.0
H576 H 0.88975 0.42376 0.20607 0.0
H577 H 0.89318 0.41832 0.13357 0.0
H578 H 0.89802 0.4425 0.09877 0.0
H579 H 0.88141 0.46188 0.09024 0.0
H580 H 0.10309 0.97382 0.74494 0.0
H581 H 0.08634 0.95441 0.74837 0.0
H582 H 0.09947 0.94113 0.57995 0.0
H583 H 0.11609 0.96057 0.57561 0.0
H584 H 0.0706 0.94428 0.59135 0.0
H585 H 0.09239 0.91211 0.76892 0.0
H586 H 0.08977 0.9303 0.78596 0.0
H587 H 0.10249 0.92546 0.73269 0.0
C588 C 0.10253 0.96669 0.70884 0.0
C589 C 0.1109 0.96879 0.65988 0.0
C590 C 0.09301 0.95555 0.71109 0.0
C591 C 0.0918 0.94626 0.66468 0.0
C592 C 0.10031 0.94817 0.61629 0.0
H593 H 0.03595 0.87845 0.57046 0.0
H594 H 0.05506 0.89545 0.57648 0.0
C595 C 0.1098 0.95929 0.61393 0.0
C596 C 0.08094 0.93519 0.66456 0.0
H597 H 0.06987 0.90566 0.73396 0.0
C598 C 0.07048 0.93578 0.62231 0.0
C599 C 0.08078 0.92421 0.70532 0.0
C600 C 0.09202 0.92286 0.75055 0.0
C601 C 0.05976 0.92575 0.61997 0.0
C602 C 0.05966 0.9147 0.66039 0.0
C603 C 0.07005 0.91414 0.70296 0.0
C604 C 0.04876 0.90369 0.65898 0.0
C605 C 0.04847 0.92722 0.57496 0.0
C606 C 0.0392 0.9024 0.70435 0.0
C607 C 0.02828 0.89266 0.70121 0.0
C608 C 0.02678 0.88401 0.65267 0.0
C609 C 0.03671 0.88502 0.60823 0.0
C610 C 0.04762 0.89475 0.61147 0.0
H611 H 0.04816 0.93798 0.55661 0.0
H612 H 0.05059 0.91977 0.53946 0.0
H613 H 0.03799 0.92473 0.59306 0.0
H614 H 0.03997 0.90919 0.74147 0.0
H615 H 0.02084 0.89215 0.73625 0.0
H616 H 0.61725 0.03362 0.08105 0.0
H617 H 0.60055 0.05309 0.0809 0.0
H618 H 0.58704 0.04174 0.25113 0.0
H619 H 0.60344 0.02213 0.25139 0.0
H620 H 0.56521 0.04489 0.1725 0.0
H621 H 0.60118 0.09071 0.16711 0.0
H622 H 0.60442 0.07769 0.11302 0.0
H623 H 0.60695 0.07335 0.18729 0.0
C624 C 0.61084 0.03535 0.11874 0.0
C625 C 0.61173 0.02631 0.16634 0.0
C626 C 0.60138 0.04654 0.1187 0.0
C627 C 0.59271 0.04895 0.16631 0.0
C628 C 0.59372 0.0401 0.21414 0.0
H629 H 0.52248 0.10376 0.24098 0.0
H630 H 0.54178 0.08697 0.24598 0.0
C631 C 0.60315 0.02892 0.21424 0.0
C632 C 0.58186 0.06002 0.16481 0.0
H633 H 0.57692 0.09538 0.15346 0.0
C634 C 0.56776 0.05594 0.16869 0.0
C635 C 0.58526 0.0744 0.15945 0.0
C636 C 0.60027 0.07936 0.15695 0.0
C637 C 0.55691 0.06584 0.16663 0.0
C638 C 0.5603 0.08022 0.1616 0.0
C639 C 0.5744 0.08433 0.15748 0.0
C640 C 0.54927 0.09112 0.16007 0.0
C641 C 0.54191 0.06079 0.1686 0.0
C642 C 0.54742 0.09934 0.11082 0.0
C643 C 0.53646 0.10903 0.10788 0.0
C644 C 0.52718 0.11069 0.15434 0.0
C645 C 0.52937 0.10273 0.20435 0.0
C646 C 0.54035 0.09307 0.20721 0.0
H647 H 0.54107 0.04945 0.1583 0.0
H648 H 0.53767 0.06242 0.21241 0.0
H649 H 0.53526 0.06677 0.13808 0.0
H650 H 0.55426 0.09801 0.07411 0.0
H651 H 0.53512 0.11503 0.06882 0.0
H652 H 0.39205 0.52259 0.7512 0.0
H653 H 0.40816 0.54243 0.75843 0.0
H654 H 0.39658 0.55569 0.58809 0.0
H655 H 0.38026 0.53604 0.58066 0.0
H656 H 0.43083 0.54668 0.68633 0.0
H657 H 0.39475 0.59229 0.67931 0.0
H658 H 0.38881 0.57471 0.69492 0.0
H659 H 0.39209 0.57997 0.62209 0.0
C660 C 0.39273 0.52984 0.71558 0.0
C661 C 0.38484 0.52772 0.66533 0.0
C662 C 0.40196 0.54116 0.71982 0.0
C663 C 0.40342 0.55061 0.67412 0.0
C664 C 0.39539 0.54868 0.62433 0.0
H665 H 0.46093 0.61558 0.57487 0.0
H666 H 0.44165 0.59883 0.58396 0.0
C667 C 0.38614 0.53737 0.62002 0.0
C668 C 0.41418 0.56176 0.67652 0.0
H669 H 0.41909 0.59711 0.66464 0.0
C670 C 0.42827 0.55773 0.68228 0.0
C671 C 0.41077 0.57613 0.67095 0.0
C672 C 0.39578 0.58108 0.667 0.0
C673 C 0.4391 0.56765 0.68086 0.0
C674 C 0.43571 0.58201 0.67448 0.0
C675 C 0.42162 0.58608 0.66951 0.0
C676 C 0.44674 0.59286 0.67099 0.0
C677 C 0.4541 0.56265 0.68423 0.0
C678 C 0.45576 0.59526 0.71747 0.0
C679 C 0.46683 0.60477 0.71242 0.0
C680 C 0.46901 0.61211 0.66082 0.0
C681 C 0.45961 0.61005 0.61509 0.0
C682 C 0.44856 0.60052 0.6202 0.0
H683 H 0.455 0.5512 0.67608 0.0
H684 H 0.46078 0.5683 0.65281 0.0
H685 H 0.45828 0.56478 0.72779 0.0
H686 H 0.45436 0.58962 0.75737 0.0
H687 H 0.47378 0.6062 0.74869 0.0
H688 H 0.89217 0.02425 0.24541 0.0
H689 H 0.90904 0.04355 0.24006 0.0
H690 H 0.89826 0.05597 0.41229 0.0
H691 H 0.88154 0.03665 0.41854 0.0
H692 H 0.90628 0.07306 0.25552 0.0
H693 H 0.94075 0.0487 0.41968 0.0
H694 H 0.92676 0.03921 0.3848 0.0
H695 H 0.92292 0.05113 0.44245 0.0
C696 C 0.89331 0.03114 0.28205 0.0
C697 C 0.88564 0.02878 0.33273 0.0
C698 C 0.90294 0.04217 0.27883 0.0
C699 C 0.90506 0.05099 0.32615 0.0
C700 C 0.89696 0.04908 0.37573 0.0
H701 H 0.9629 0.11713 0.413 0.0
H702 H 0.94328 0.10073 0.408 0.0
C703 C 0.88738 0.03805 0.37912 0.0
C704 C 0.91615 0.06182 0.3247 0.0
H705 H 0.94661 0.0717 0.38995 0.0
C706 C 0.91513 0.07278 0.28471 0.0
C707 C 0.92771 0.06132 0.36265 0.0
C708 C 0.92972 0.0494 0.40449 0.0
C709 C 0.92524 0.08348 0.28269 0.0
C710 C 0.93669 0.08305 0.32122 0.0
C711 C 0.93774 0.07203 0.36078 0.0
C712 C 0.94778 0.09388 0.32152 0.0
C713 C 0.92347 0.0953 0.2403 0.0
C714 C 0.95676 0.09549 0.27433 0.0
C715 C 0.96802 0.10485 0.277 0.0
C716 C 0.97053 0.11269 0.3271 0.0
C717 C 0.9613 0.11125 0.37379 0.0
C718 C 0.95007 0.10189 0.37105 0.0
H719 H 0.9126 0.09582 0.22325 0.0
H720 H 0.92611 0.10553 0.26034 0.0
H721 H 0.93071 0.09363 0.20366 0.0
H722 H 0.9553 0.08921 0.23609 0.0
H723 H 0.97492 0.10571 0.24026 0.0
H724 H 0.45972 0.87993 0.91296 0.0
H725 H 0.44053 0.89669 0.90377 0.0
H726 H 0.45535 0.90844 0.73582 0.0
H727 H 0.47457 0.89156 0.74419 0.0
H728 H 0.44503 0.92571 0.88816 0.0
H729 H 0.41266 0.90308 0.71257 0.0
H730 H 0.4253 0.89283 0.75231 0.0
H731 H 0.43109 0.90481 0.69786 0.0
C732 C 0.45883 0.88592 0.87368 0.0
C733 C 0.46875 0.88444 0.82943 0.0
C734 C 0.44784 0.89549 0.86853 0.0
C735 C 0.44647 0.9037 0.81898 0.0
C736 C 0.4561 0.90202 0.77402 0.0
H737 H 0.39181 0.97463 0.74321 0.0
H738 H 0.40894 0.95555 0.73661 0.0
C739 C 0.46713 0.89243 0.77909 0.0
C740 C 0.43569 0.91483 0.81682 0.0
H741 H 0.40612 0.92557 0.74678 0.0
C742 C 0.4365 0.92567 0.85735 0.0
C743 C 0.4247 0.91479 0.77613 0.0
C744 C 0.42325 0.90322 0.73242 0.0
C745 C 0.42657 0.93648 0.85848 0.0
C746 C 0.41538 0.93629 0.81868 0.0
C747 C 0.41469 0.9256 0.77738 0.0
C748 C 0.4042 0.94703 0.82036 0.0
C749 C 0.42823 0.94812 0.90186 0.0
C750 C 0.39563 0.94826 0.86893 0.0
C751 C 0.38591 0.95915 0.87303 0.0
C752 C 0.38451 0.96897 0.82837 0.0
C753 C 0.39269 0.96731 0.77855 0.0
C754 C 0.40245 0.95641 0.7746 0.0
H755 H 0.43912 0.94869 0.91866 0.0
H756 H 0.42545 0.95844 0.88288 0.0
H757 H 0.42111 0.94615 0.93862 0.0
H758 H 0.39666 0.94095 0.90423 0.0
H759 H 0.37969 0.96 0.91173 0.0
H760 H 0.6056 0.47465 0.23724 0.0
H761 H 0.58831 0.45578 0.22704 0.0
H762 H 0.59869 0.44072 0.3961 0.0
H763 H 0.61584 0.45948 0.40706 0.0
H764 H 0.59059 0.42513 0.23965 0.0
H765 H 0.55606 0.45025 0.40158 0.0
H766 H 0.57023 0.45948 0.36675 0.0
H767 H 0.57383 0.44767 0.42499 0.0
C768 C 0.60431 0.46724 0.27202 0.0
C769 C 0.61196 0.4687 0.32332 0.0
C770 C 0.59445 0.45647 0.26604 0.0
C771 C 0.5921 0.44705 0.31122 0.0
C772 C 0.60022 0.44805 0.36116 0.0
H773 H 0.5361 0.38113 0.40572 0.0
H774 H 0.55513 0.39803 0.39535 0.0
C775 C 0.61003 0.45878 0.36726 0.0
C776 C 0.58068 0.43662 0.30799 0.0
H777 H 0.5502 0.42703 0.37368 0.0
C778 C 0.58168 0.42556 0.26849 0.0
C779 C 0.56905 0.43734 0.34548 0.0
C780 C 0.56711 0.44939 0.38677 0.0
C781 C 0.57157 0.41484 0.26722 0.0
C782 C 0.56019 0.41536 0.30602 0.0
C783 C 0.55903 0.42662 0.34435 0.0
C784 C 0.54949 0.40418 0.3091 0.0
C785 C 0.57335 0.40281 0.22584 0.0
C786 C 0.54008 0.40198 0.26374 0.0
C787 C 0.52914 0.39232 0.2695 0.0
C788 C 0.5274 0.38477 0.3209 0.0
C789 C 0.53709 0.38677 0.36562 0.0
C790 C 0.54799 0.39642 0.3598 0.0
H791 H 0.58401 0.40259 0.20662 0.0
H792 H 0.57139 0.39264 0.24766 0.0
H793 H 0.56559 0.40387 0.19062 0.0
H794 H 0.54095 0.40804 0.22461 0.0
H795 H 0.52187 0.39102 0.2342 0.0
H796 H 0.02127 0.60281 0.75205 0.0
H797 H 0.04046 0.58581 0.74718 0.0
H798 H 0.05328 0.59717 0.91831 0.0
H799 H 0.03407 0.61406 0.92406 0.0
H800 H 0.07003 0.58937 0.76141 0.0
H801 H 0.0469 0.55447 0.92701 0.0
H802 H 0.03697 0.56813 0.89204 0.0
H803 H 0.04892 0.5724 0.94907 0.0
C804 C 0.02818 0.60173 0.78865 0.0
C805 C 0.02603 0.60969 0.83872 0.0
C806 C 0.03915 0.59203 0.78568 0.0
C807 C 0.0481 0.5901 0.83273 0.0
C808 C 0.04629 0.59834 0.88197 0.0
H809 H 0.11582 0.53379 0.91708 0.0
H810 H 0.09879 0.55289 0.9133 0.0
C811 C 0.03534 0.60802 0.88505 0.0
C812 C 0.05916 0.57925 0.83095 0.0
H813 H 0.06993 0.54907 0.89605 0.0
C814 C 0.07001 0.58052 0.79062 0.0
C815 C 0.05903 0.56771 0.86904 0.0
C816 C 0.04727 0.56547 0.91143 0.0
C817 C 0.08097 0.57069 0.78834 0.0
C818 C 0.0809 0.55924 0.82688 0.0
C819 C 0.06998 0.55793 0.86683 0.0
C820 C 0.092 0.54841 0.82671 0.0
C821 C 0.09268 0.57278 0.74568 0.0
C822 C 0.09384 0.53962 0.77908 0.0
C823 C 0.10358 0.52867 0.78102 0.0
C824 C 0.11156 0.52628 0.83085 0.0
C825 C 0.10985 0.5353 0.87806 0.0
C826 C 0.10012 0.54623 0.87602 0.0
H827 H 0.09296 0.5837 0.7291 0.0
H828 H 0.103 0.57028 0.76525 0.0
H829 H 0.09107 0.56562 0.70874 0.0
H830 H 0.08748 0.54098 0.74099 0.0
H831 H 0.10462 0.52191 0.74393 0.0
H832 H 0.04459 0.39037 0.16656 0.0
H833 H 0.06314 0.4047 0.12348 0.0
H834 H 0.05111 0.39024 0.95535 0.0
H835 H 0.03249 0.37607 0.99752 0.0
H836 H 0.08614 0.3975 0.04896 0.0
H837 H 0.04767 0.43325 0.94534 0.0
H838 H 0.04281 0.42115 0.00143 0.0
H839 H 0.04526 0.41499 0.92929 0.0
C840 C 0.04594 0.39017 0.12045 0.0
C841 C 0.03693 0.38222 0.08544 0.0
C842 C 0.05655 0.39834 0.09598 0.0
C843 C 0.0583 0.39868 0.03625 0.0
C844 C 0.04973 0.39031 0.00146 0.0
H845 H 0.10874 0.45095 0.81086 0.0
H846 H 0.09406 0.4321 0.84917 0.0
C847 C 0.03911 0.3822 0.02575 0.0
C848 C 0.06869 0.4082 0.00994 0.0
H849 H 0.07154 0.43674 0.92253 0.0
C850 C 0.08299 0.40609 0.02132 0.0
C851 C 0.06449 0.41936 0.97387 0.0
C852 C 0.04922 0.42245 0.96203 0.0
C853 C 0.09325 0.41483 0.99705 0.0
C854 C 0.08902 0.42605 0.96132 0.0
C855 C 0.07473 0.42806 0.94962 0.0
C856 C 0.0991 0.43635 0.93796 0.0
C857 C 0.1085 0.41191 0.00934 0.0
C858 C 0.10683 0.4449 0.97524 0.0
C859 C 0.11519 0.45568 0.9536 0.0
C860 C 0.1159 0.45817 0.89418 0.0
C861 C 0.10842 0.44933 0.85681 0.0
C862 C 0.10004 0.43855 0.87858 0.0
H863 H 0.11017 0.40088 0.02315 0.0
H864 H 0.1151 0.414 0.97104 0.0
H865 H 0.1121 0.41887 0.04453 0.0
H866 H 0.10601 0.44357 0.02125 0.0
H867 H 0.1208 0.46228 0.98366 0.0
H868 H 0.10863 0.04547 0.67542 0.0
H869 H 0.09417 0.06432 0.63554 0.0
H870 H 0.10353 0.05001 0.46436 0.0
H871 H 0.11816 0.03132 0.50345 0.0
H872 H 0.10442 0.07935 0.47632 0.0
H873 H 0.05541 0.05656 0.56586 0.0
H874 H 0.06891 0.06003 0.61769 0.0
H875 H 0.0717 0.04695 0.56339 0.0
C876 C 0.10769 0.04638 0.62928 0.0
C877 C 0.11443 0.03678 0.59268 0.0
C878 C 0.09939 0.05712 0.60661 0.0
C879 C 0.09761 0.05838 0.54708 0.0
C880 C 0.10473 0.04916 0.51044 0.0
H881 H 0.04552 0.10654 0.31474 0.0
H882 H 0.06378 0.09176 0.35723 0.0
C883 C 0.11306 0.03846 0.53297 0.0
C884 C 0.08791 0.06892 0.52272 0.0
H885 H 0.05337 0.07814 0.51724 0.0
C886 C 0.09325 0.07914 0.48527 0.0
C887 C 0.07336 0.06851 0.53431 0.0
C888 C 0.06694 0.05736 0.57208 0.0
C889 C 0.08441 0.08909 0.45952 0.0
C890 C 0.06986 0.08863 0.47102 0.0
C891 C 0.06455 0.07847 0.5087 0.0
C892 C 0.05983 0.09851 0.44437 0.0
C893 C 0.0907 0.1001 0.42088 0.0
C894 C 0.05155 0.10713 0.47932 0.0
C895 C 0.04106 0.11547 0.45536 0.0
C896 C 0.03859 0.11532 0.39585 0.0
C897 C 0.04717 0.10694 0.36067 0.0
C898 C 0.05766 0.09855 0.38482 0.0
H899 H 0.10218 0.1012 0.42782 0.0
H900 H 0.08898 0.09705 0.3755 0.0
H901 H 0.08564 0.11045 0.42793 0.0
H902 H 0.05303 0.1072 0.52539 0.0
H903 H 0.03472 0.12184 0.48377 0.0
H904 H 0.45313 0.10594 0.17153 0.0
H905 H 0.43455 0.09099 0.13215 0.0
H906 H 0.44317 0.10683 0.9626 0.0
H907 H 0.46178 0.12162 0.00105 0.0
H908 H 0.41003 0.09725 0.06308 0.0
H909 H 0.44902 0.06398 0.94945 0.0
H910 H 0.4539 0.0761 0.00547 0.0
H911 H 0.4503 0.08241 0.93436 0.0
C912 C 0.45099 0.10634 0.12595 0.0
C913 C 0.45908 0.11482 0.08933 0.0
C914 C 0.44037 0.09781 0.10359 0.0
C915 C 0.43771 0.09766 0.04442 0.0
C916 C 0.44527 0.10662 0.00826 0.0
H917 H 0.38723 0.04478 0.82252 0.0
H918 H 0.40172 0.0637 0.86141 0.0
C919 C 0.45589 0.11508 0.03041 0.0
C920 C 0.42752 0.08765 0.01984 0.0
H921 H 0.42512 0.0594 0.9306 0.0
C922 C 0.41329 0.08895 0.03418 0.0
C923 C 0.43186 0.07686 0.9822 0.0
C924 C 0.44711 0.07462 0.96723 0.0
C925 C 0.40321 0.07981 0.01106 0.0
C926 C 0.40758 0.06901 0.97346 0.0
C927 C 0.42181 0.06776 0.9591 0.0
C928 C 0.39772 0.05848 0.9502 0.0
C929 C 0.38798 0.0819 0.02637 0.0
C930 C 0.39068 0.04931 0.98732 0.0
C931 C 0.38242 0.0385 0.96533 0.0
C932 C 0.38113 0.03657 0.90571 0.0
C933 C 0.38799 0.04595 0.86861 0.0
C934 C 0.39627 0.05678 0.89072 0.0
H935 H 0.38595 0.09271 0.0421 0.0
H936 H 0.38109 0.07981 0.98892 0.0
H937 H 0.38508 0.07448 0.06105 0.0
H938 H 0.39191 0.05026 0.03333 0.0
H939 H 0.3773 0.03146 0.99519 0.0
H940 H 0.38929 0.45149 0.6815 0.0
H941 H 0.40414 0.43252 0.64498 0.0
H942 H 0.39519 0.44535 0.47148 0.0
H943 H 0.38023 0.46415 0.5072 0.0
H944 H 0.39422 0.41594 0.48881 0.0
H945 H 0.44309 0.43994 0.5748 0.0
H946 H 0.42943 0.43695 0.62644 0.0
H947 H 0.42679 0.44948 0.56995 0.0
C948 C 0.39042 0.45023 0.63557 0.0
C949 C 0.38367 0.45943 0.59731 0.0
C950 C 0.39894 0.43942 0.61483 0.0
C951 C 0.4009 0.43769 0.5556 0.0
C952 C 0.39384 0.44655 0.51735 0.0
H953 H 0.45233 0.38908 0.32489 0.0
H954 H 0.43408 0.40358 0.36881 0.0
C955 C 0.38532 0.45733 0.53795 0.0
C956 C 0.41068 0.42699 0.53309 0.0
H957 H 0.44535 0.41828 0.52728 0.0
C958 C 0.4054 0.41639 0.49733 0.0
C959 C 0.42524 0.42768 0.54425 0.0
C960 C 0.43155 0.43917 0.58055 0.0
C961 C 0.41433 0.40639 0.47247 0.0
C962 C 0.42891 0.4072 0.48299 0.0
C963 C 0.43415 0.41769 0.5194 0.0
C964 C 0.43906 0.39751 0.45591 0.0
C965 C 0.40808 0.39498 0.43563 0.0
C966 C 0.44795 0.38938 0.49035 0.0
C967 C 0.45845 0.38121 0.46551 0.0
C968 C 0.46031 0.38104 0.40564 0.0
C969 C 0.45115 0.38894 0.37109 0.0
C970 C 0.44066 0.39716 0.39608 0.0
H971 H 0.39673 0.3935 0.44459 0.0
H972 H 0.40921 0.39791 0.38982 0.0
H973 H 0.41357 0.38484 0.44248 0.0
H974 H 0.44692 0.38956 0.53662 0.0
H975 H 0.46527 0.37522 0.49346 0.0
H976 H 0.8739 0.5336 0.01279 0.0
H977 H 0.88809 0.55198 0.96891 0.0
H978 H 0.90406 0.56365 0.13519 0.0
H979 H 0.88973 0.54534 0.17996 0.0
H980 H 0.89692 0.58684 0.06133 0.0
H981 H 0.93096 0.54742 0.95401 0.0
H982 H 0.91252 0.54554 0.94014 0.0
H983 H 0.91913 0.54289 0.0115 0.0
C984 C 0.88035 0.54012 0.04026 0.0
C985 C 0.88081 0.53788 0.0999 0.0
C986 C 0.88847 0.55059 0.01499 0.0
C987 C 0.89729 0.55896 0.04873 0.0
C988 C 0.89735 0.55721 0.10847 0.0
H989 H 0.96233 0.61967 0.99347 0.0
H990 H 0.94332 0.60533 0.03134 0.0
C991 C 0.88918 0.54674 0.13392 0.0
C992 C 0.90691 0.56911 0.02131 0.0
H993 H 0.93514 0.57118 0.93184 0.0
C994 C 0.90528 0.58345 0.03297 0.0
C995 C 0.91776 0.56461 0.98427 0.0
C996 C 0.92033 0.54927 0.97198 0.0
C997 C 0.91422 0.59346 0.00821 0.0
C998 C 0.92517 0.58894 0.9717 0.0
C999 C 0.92667 0.57461 0.95956 0.0
C1000 C 0.93574 0.59872 0.94815 0.0
C1001 C 0.9118 0.60879 0.02091 0.0
C1002 C 0.93787 0.59967 0.88873 0.0
C1003 C 0.94883 0.6078 0.86678 0.0
C1004 C 0.95793 0.61502 0.90402 0.0
C1005 C 0.95554 0.61427 0.9635 0.0
C1006 C 0.94458 0.60616 0.98531 0.0
H1007 H 0.90085 0.61078 0.03501 0.0
H1008 H 0.91891 0.61211 0.05605 0.0
H1009 H 0.91405 0.61537 0.98273 0.0
H1010 H 0.93121 0.5939 0.85939 0.0
H1011 H 0.95038 0.60814 0.82078 0.0
H1012 H 0.96324 0.87271 0.49084 0.0
H1013 H 0.94511 0.88732 0.4475 0.0
H1014 H 0.93432 0.90376 0.61397 0.0
H1015 H 0.9524 0.88902 0.65823 0.0
H1016 H 0.91076 0.89695 0.54063 0.0
H1017 H 0.95073 0.93011 0.43189 0.0
H1018 H 0.95209 0.9116 0.41859 0.0
H1019 H 0.95511 0.91828 0.48957 0.0
C1020 C 0.95697 0.87935 0.51848 0.0
C1021 C 0.95939 0.87984 0.57801 0.0
C1022 C 0.94664 0.88771 0.49351 0.0
C1023 C 0.93859 0.89678 0.52744 0.0
C1024 C 0.94051 0.89686 0.58711 0.0
H1025 H 0.87993 0.96333 0.48764 0.0
H1026 H 0.89419 0.94362 0.51886 0.0
C1027 C 0.95084 0.88845 0.61228 0.0
C1028 C 0.92862 0.90662 0.50031 0.0
H1029 H 0.92703 0.93525 0.41277 0.0
C1030 C 0.91428 0.90531 0.51253 0.0
C1031 C 0.93329 0.91743 0.46341 0.0
C1032 C 0.94865 0.91957 0.45029 0.0
C1033 C 0.90444 0.91462 0.48897 0.0
C1034 C 0.90916 0.92564 0.45321 0.0
C1035 C 0.92346 0.92674 0.43995 0.0
C1036 C 0.89966 0.93689 0.43314 0.0
C1037 C 0.88911 0.91258 0.50255 0.0
C1038 C 0.8982 0.93981 0.37442 0.0
C1039 C 0.89009 0.95121 0.35619 0.0
C1040 C 0.88345 0.95994 0.39655 0.0
C1041 C 0.88487 0.95684 0.45528 0.0
C1042 C 0.89292 0.94548 0.47333 0.0
H1043 H 0.88682 0.90154 0.51448 0.0
H1044 H 0.88623 0.91932 0.53953 0.0
H1045 H 0.8824 0.91555 0.46555 0.0
H1046 H 0.90346 0.93336 0.34279 0.0
H1047 H 0.88923 0.95332 0.31069 0.0
H1048 H 0.62102 0.95943 0.02139 0.0
H1049 H 0.60557 0.94098 0.98621 0.0
H1050 H 0.59005 0.93419 0.15765 0.0
H1051 H 0.60543 0.95284 0.19354 0.0
H1052 H 0.60245 0.91221 0.01654 0.0
H1053 H 0.55476 0.94396 0.06236 0.0
H1054 H 0.57216 0.95141 0.06237 0.0
H1055 H 0.56629 0.94112 0.12226 0.0
C1056 C 0.61441 0.95398 0.05187 0.0
C1057 C 0.61433 0.95775 0.11025 0.0
C1058 C 0.60562 0.94339 0.03162 0.0
C1059 C 0.59655 0.9364 0.06919 0.0
C1060 C 0.59685 0.93965 0.12789 0.0
H1061 H 0.52858 0.87844 0.00276 0.0
H1062 H 0.54695 0.89252 0.04713 0.0
C1063 C 0.60568 0.95026 0.14832 0.0
C1064 C 0.58629 0.92626 0.04597 0.0
H1065 H 0.55125 0.92141 0.02377 0.0
C1066 C 0.59125 0.91416 0.01826 0.0
C1067 C 0.57171 0.92894 0.04798 0.0
C1068 C 0.56586 0.94211 0.07488 0.0
C1069 C 0.58195 0.90459 0.99275 0.0
C1070 C 0.5674 0.90735 0.99447 0.0
C1071 C 0.56244 0.91936 0.02267 0.0
C1072 C 0.55702 0.89797 0.96713 0.0
C1073 C 0.58773 0.89157 0.96467 0.0
C1074 C 0.55664 0.89637 0.90732 0.0
C1075 C 0.5461 0.88835 0.88156 0.0
C1076 C 0.53575 0.88183 0.91532 0.0
C1077 C 0.53636 0.88331 0.97535 0.0
C1078 C 0.54685 0.89134 0.00091 0.0
H1079 H 0.5987 0.88942 0.97818 0.0
H1080 H 0.58115 0.8823 0.97507 0.0
H1081 H 0.58763 0.89297 0.91743 0.0
H1082 H 0.56429 0.90162 0.8805 0.0
H1083 H 0.54593 0.88744 0.83526 0.0
H1084 H 0.60832 0.54392 0.31683 0.0
H1085 H 0.59363 0.56321 0.35185 0.0
H1086 H 0.6026 0.55121 0.52631 0.0
H1087 H 0.61732 0.53208 0.49215 0.0
H1088 H 0.56982 0.55976 0.42156 0.0
H1089 H 0.60922 0.59369 0.52801 0.0
H1090 H 0.61395 0.58036 0.47647 0.0
H1091 H 0.61015 0.57563 0.5495 0.0
C1092 C 0.6073 0.5455 0.36264 0.0
C1093 C 0.61397 0.53643 0.40166 0.0
C1094 C 0.59892 0.55652 0.38253 0.0
C1095 C 0.59722 0.55874 0.44162 0.0
C1096 C 0.60403 0.54986 0.48056 0.0
H1097 H 0.54361 0.60622 0.66676 0.0
H1098 H 0.56176 0.59139 0.62353 0.0
C1099 C 0.61235 0.53884 0.46083 0.0
C1100 C 0.58744 0.56958 0.46301 0.0
H1101 H 0.58517 0.59802 0.55153 0.0
C1102 C 0.57318 0.56825 0.44934 0.0
C1103 C 0.59189 0.58054 0.49959 0.0
C1104 C 0.60716 0.58275 0.5139 0.0
C1105 C 0.56314 0.57732 0.47283 0.0
C1106 C 0.56756 0.58817 0.51009 0.0
C1107 C 0.58185 0.58966 0.52306 0.0
C1108 C 0.55739 0.59794 0.53649 0.0
C1109 C 0.54785 0.57492 0.45916 0.0
C1110 C 0.54925 0.60678 0.50193 0.0
C1111 C 0.53887 0.61518 0.52631 0.0
C1112 C 0.53651 0.61499 0.5859 0.0
C1113 C 0.54512 0.60657 0.62074 0.0
C1114 C 0.55549 0.59811 0.59617 0.0
H1115 H 0.54597 0.56427 0.4414 0.0
H1116 H 0.54125 0.57628 0.498 0.0
H1117 H 0.54439 0.58269 0.42668 0.0
H1118 H 0.55077 0.607 0.4559 0.0
H1119 H 0.53256 0.62166 0.49823 0.0
H1120 H 0.98399 0.30329 0.17292 0.0
H1121 H 0.9854 0.2781 0.19427 0.0
H1122 H 0.02989 0.28207 0.22401 0.0
H1123 H 0.02851 0.30723 0.20203 0.0
H1124 H 0.02161 0.25861 0.15375 0.0
H1125 H 0.99188 0.26203 0.35824 0.0
H1126 H 0.98337 0.26988 0.29739 0.0
H1127 H -0.00051 0.27719 0.32381 0.0
C1128 C 0.99405 0.29871 0.18378 0.0
C1129 C 0.00613 0.30706 0.18645 0.0
C1130 C 0.99484 0.28441 0.19624 0.0
C1131 C 0.00771 0.27833 0.21149 0.0
C1132 C 0.01986 0.28663 0.21268 0.0
H1133 H 0.01896 0.19621 0.3675 0.0
H1134 H 0.01999 0.22133 0.34495 0.0
C1135 C 0.01906 0.30093 0.20036 0.0
C1136 C 0.0085 0.26332 0.2264 0.0
H1137 H 0.99688 0.23919 0.32334 0.0
C1138 C 0.01626 0.25434 0.19091 0.0
C1139 C 0.00166 0.25789 0.27539 0.0
C1140 C 0.99372 0.26724 0.3163 0.0
C1141 C 0.01708 0.23992 0.20238 0.0
C1142 C 0.00982 0.23442 0.25019 0.0
C1143 C 0.00235 0.24346 0.28648 0.0
C1144 C 0.00961 0.21925 0.26286 0.0
C1145 C 0.02577 0.23071 0.16354 0.0
C1146 C 0.00332 0.20987 0.22432 0.0
C1147 C 0.00264 0.1956 0.23731 0.0
C1148 C 0.00816 0.19054 0.28912 0.0
C1149 C 0.01448 0.19993 0.32759 0.0
C1150 C 0.01514 0.21421 0.31465 0.0
H1151 H 0.03344 0.23692 0.13821 0.0
H1152 H 0.03154 0.22267 0.18863 0.0
H1153 H 0.01873 0.2252 0.13303 0.0
H1154 H -0.00126 0.21362 0.18467 0.0
H1155 H 0.99756 0.18856 0.20734 0.0
H1156 H 0.30233 0.98276 0.82301 0.0
H1157 H 0.27715 0.98352 0.80072 0.0
H1158 H 0.28029 0.02786 0.76615 0.0
H1159 H 0.30545 0.02712 0.78896 0.0
H1160 H 0.25684 0.01938 0.83729 0.0
H1161 H 0.26129 0.98878 0.63513 0.0
H1162 H 0.26927 0.98086 0.69702 0.0
H1163 H 0.2762 0.99699 0.66913 0.0
C1164 C 0.29756 0.99264 0.81089 0.0
C1165 C 0.30569 0.00486 0.8071 0.0
C1166 C 0.28328 0.99306 0.79791 0.0
C1167 C 0.27698 0.0057 0.78106 0.0
C1168 C 0.28503 0.018 0.77874 0.0
H1169 H 0.1952 0.01598 0.62152 0.0
H1170 H 0.22028 0.01695 0.64501 0.0
C1171 C 0.29933 0.01757 0.79154 0.0
C1172 C 0.26197 0.00609 0.76564 0.0
H1173 H 0.2383 0.99373 0.66829 0.0
C1174 C 0.25276 0.01382 0.80029 0.0
C1175 C 0.25679 -0.00103 0.71689 0.0
C1176 C 0.26639 0.99102 0.67699 0.0
C1177 C 0.23836 0.01435 0.78812 0.0
C1178 C 0.23312 0.00684 0.74042 0.0
C1179 C 0.24238 -0.00062 0.70506 0.0
C1180 C 0.21801 0.00647 0.72679 0.0
C1181 C 0.2289 0.023 0.82603 0.0
C1182 C 0.20854 0.00012 0.76478 0.0
C1183 C 0.1943 -0.00054 0.75124 0.0
C1184 C 0.18934 0.00509 0.69944 0.0
C1185 C 0.19883 0.01142 0.6614 0.0
C1186 C 0.21309 0.01205 0.67488 0.0
H1187 H 0.23491 0.03073 0.85182 0.0
H1188 H 0.22095 0.02869 0.80012 0.0
H1189 H 0.22327 0.01595 0.85609 0.0
H1190 H 0.2122 0.99552 0.80454 0.0
H1191 H 0.18718 0.99438 0.78089 0.0
H1192 H 0.48288 0.29981 0.37509 0.0
H1193 H 0.48303 0.27469 0.3522 0.0
H1194 H 0.50361 0.28354 0.19149 0.0
H1195 H 0.50364 0.30863 0.21456 0.0
H1196 H 0.47961 0.26536 0.18422 0.0
H1197 H 0.51804 0.24857 0.35007 0.0
H1198 H 0.5036 0.25897 0.37566 0.0
H1199 H 0.51619 0.26662 0.32773 0.0
C1200 C 0.48756 0.29634 0.33523 0.0
C1201 C 0.49328 0.30607 0.29658 0.0
C1202 C 0.48764 0.28204 0.32221 0.0
C1203 C 0.49346 0.27731 0.27045 0.0
C1204 C 0.49909 0.28703 0.23167 0.0
H1205 H 0.51483 0.19267 0.16783 0.0
H1206 H 0.5148 0.21789 0.18956 0.0
C1207 C 0.49906 0.30131 0.24476 0.0
C1208 C 0.49345 0.26224 0.2561 0.0
H1209 H 0.5068 0.23059 0.2971 0.0
C1210 C 0.48555 0.25774 0.20879 0.0
C1211 C 0.50133 0.25242 0.28805 0.0
C1212 C 0.51038 0.25684 0.33797 0.0
C1213 C 0.4852 0.24356 0.19292 0.0
C1214 C 0.49285 0.2337 0.22558 0.0
C1215 C 0.50088 0.23822 0.27247 0.0
C1216 C 0.49276 0.21861 0.21149 0.0
C1217 C 0.47682 0.23925 0.14094 0.0
C1218 C 0.48038 0.21076 0.21693 0.0
C1219 C 0.4804 0.19644 0.20458 0.0
C1220 C 0.49281 0.18981 0.18694 0.0
C1221 C 0.50516 0.19766 0.18128 0.0
C1222 C 0.50516 0.21198 0.19379 0.0
H1223 H 0.47408 0.24838 0.11352 0.0
H1224 H 0.48272 0.23152 0.11473 0.0
H1225 H 0.46691 0.23421 0.15512 0.0
H1226 H 0.47076 0.2157 0.23121 0.0
H1227 H 0.47076 0.19052 0.20889 0.0
H1228 H 0.30357 0.5121 0.67108 0.0
H1229 H 0.27838 0.51127 0.69298 0.0
H1230 H 0.28183 0.46714 0.73153 0.0
H1231 H 0.30702 0.46796 0.70929 0.0
H1232 H 0.25832 0.47548 0.6579 0.0
H1233 H 0.26248 0.5063 0.85968 0.0
H1234 H 0.27072 0.51398 0.79783 0.0
H1235 H 0.2774 0.49785 0.82669 0.0
C1236 C 0.29887 0.50224 0.684 0.0
C1237 C 0.30709 0.49011 0.6891 0.0
C1238 C 0.28458 0.50179 0.69672 0.0
C1239 C 0.27836 0.48918 0.71453 0.0
C1240 C 0.28651 0.47697 0.71817 0.0
H1241 H 0.19608 0.47926 0.87029 0.0
H1242 H 0.22122 0.47803 0.84809 0.0
C1243 C 0.30082 0.47744 0.70568 0.0
C1244 C 0.26335 0.48878 0.72962 0.0
H1245 H 0.23954 0.50132 0.82601 0.0
C1246 C 0.25419 0.48107 0.69472 0.0
C1247 C 0.25811 0.49596 0.77812 0.0
C1248 C 0.26767 0.50391 0.81815 0.0
C1249 C 0.23976 0.48064 0.70635 0.0
C1250 C 0.23446 0.4882 0.75377 0.0
C1251 C 0.24368 0.49562 0.78946 0.0
C1252 C 0.21932 0.48873 0.76663 0.0
C1253 C 0.23031 0.47205 0.66811 0.0
C1254 C 0.21005 0.49529 0.72839 0.0
C1255 C 0.19578 0.49612 0.74123 0.0
C1256 C 0.1906 0.49043 0.79255 0.0
C1257 C 0.19989 0.48388 0.83081 0.0
C1258 C 0.21418 0.4831 0.81806 0.0
H1259 H 0.23634 0.46431 0.64238 0.0
H1260 H 0.22231 0.46638 0.69378 0.0
H1261 H 0.22475 0.47915 0.638 0.0
H1262 H 0.21389 0.49992 0.68898 0.0
H1263 H 0.18882 0.50135 0.7114 0.0
H1264 H 0.01401 0.80221 0.67221 0.0
H1265 H 0.01373 0.7771 0.69577 0.0
H1266 H 0.96932 0.77954 0.73014 0.0
H1267 H 0.96958 0.80462 0.70593 0.0
H1268 H 0.00475 0.7648 0.80246 0.0
H1269 H 0.97362 0.74643 0.61526 0.0
H1270 H 0.98222 0.7633 0.61682 0.0
H1271 H 0.9661 0.76071 0.65517 0.0
C1272 C 0.00421 0.7973 0.68448 0.0
C1273 C 0.99182 0.80519 0.68747 0.0
C1274 C 0.00406 0.78305 0.69803 0.0
C1275 C 0.99148 0.7765 0.71418 0.0
C1276 C 0.97908 0.7844 0.71707 0.0
H1277 H 0.98125 0.69531 0.87908 0.0
H1278 H 0.98105 0.72042 0.85577 0.0
C1279 C 0.97925 0.79867 0.70365 0.0
C1280 C 0.99143 0.76147 0.72918 0.0
H1281 H 0.97871 0.72964 0.68718 0.0
C1282 C -0.00093 0.75709 0.77734 0.0
C1283 C 0.98408 0.7515 0.69589 0.0
C1284 C 0.97612 0.75564 0.64259 0.0
C1285 C -0.00052 0.74293 0.79347 0.0
C1286 C 0.99194 0.73299 0.76076 0.0
C1287 C 0.98439 0.73735 0.71231 0.0
C1288 C 0.99206 0.71792 0.77525 0.0
C1289 C 0.00817 0.73866 0.84468 0.0
C1290 C 0.99812 0.70828 0.73724 0.0
C1291 C 0.99829 0.69402 0.75057 0.0
C1292 C 0.99233 0.6892 0.80194 0.0
C1293 C 0.98613 0.69884 0.83971 0.0
C1294 C 0.98599 0.71313 0.82642 0.0
H1295 H 0.01563 0.74703 0.85769 0.0
H1296 H 0.00111 0.73649 0.88146 0.0
H1297 H 0.01418 0.72895 0.83542 0.0
H1298 H 0.00283 0.71181 0.6975 0.0
H1299 H 0.0032 0.68676 0.72098 0.0
H1300 H 0.80834 0.97447 0.26162 0.0
H1301 H 0.78347 0.97414 0.23857 0.0
H1302 H 0.77577 0.00491 0.37082 0.0
H1303 H 0.80096 0.00676 0.38795 0.0
H1304 H 0.76159 0.96725 0.28475 0.0
H1305 H 0.75604 0.02425 0.2484 0.0
H1306 H 0.77285 0.01624 0.26099 0.0
H1307 H 0.7616 0.02087 0.32037 0.0
C1308 C 0.80138 0.98146 0.2847 0.0
C1309 C 0.80667 0.99099 0.32519 0.0
C1310 C 0.7871 0.9811 0.27215 0.0
C1311 C 0.77768 0.98986 0.30153 0.0
C1312 C 0.78283 -0.00147 0.34553 0.0
H1313 H 0.68797 0.97314 0.27113 0.0
H1314 H 0.71256 0.97321 0.29915 0.0
C1315 C 0.79723 -0.00065 0.3563 0.0
C1316 C 0.76257 0.98985 0.28558 0.0
H1317 H 0.73486 0.01121 0.25512 0.0
C1318 C 0.75581 0.97689 0.2776 0.0
C1319 C 0.755 0.00238 0.27498 0.0
C1320 C 0.7618 0.01669 0.27598 0.0
C1321 C 0.74185 0.97609 0.25899 0.0
C1322 C 0.73401 0.98862 0.25228 0.0
C1323 C 0.74074 0.00157 0.26067 0.0
C1324 C 0.71892 0.98866 0.23603 0.0
C1325 C 0.73597 0.96181 0.24455 0.0
C1326 C 0.71401 0.99787 0.1934 0.0
C1327 C 0.69974 -0.00145 0.18024 0.0
C1328 C 0.69013 0.98972 0.20809 0.0
C1329 C 0.69508 0.98027 0.24963 0.0
C1330 C 0.70924 0.98004 0.26468 0.0
H1331 H 0.7444 0.95449 0.2309 0.0
H1332 H 0.731 0.95725 0.28331 0.0
H1333 H 0.72806 0.96239 0.20968 0.0
H1334 H 0.72119 0.00468 0.17064 0.0
H1335 H 0.69622 0.00612 0.1488 0.0
H1336 H 0.51633 0.80079 0.88136 0.0
H1337 H 0.51756 0.7757 0.85828 0.0
H1338 H 0.49625 0.78347 0.69815 0.0
H1339 H 0.49495 0.80851 0.72125 0.0
H1340 H 0.49518 0.75725 0.8357 0.0
H1341 H 0.53144 0.76132 0.65024 0.0
H1342 H 0.52906 0.77537 0.70126 0.0
H1343 H 0.51636 0.77255 0.64546 0.0
C1344 C 0.51187 0.79708 0.8414 0.0
C1345 C 0.50559 0.80649 0.80291 0.0
C1346 C 0.51263 0.78282 0.82818 0.0
C1347 C 0.50719 0.77781 0.77615 0.0
C1348 C 0.50078 0.7872 0.73794 0.0
H1349 H 0.48362 0.69358 0.68134 0.0
H1350 H 0.48444 0.71861 0.7059 0.0
C1351 C 0.50002 0.80144 0.75117 0.0
C1352 C 0.50782 0.7627 0.76249 0.0
H1353 H 0.52015 0.73928 0.664 0.0
C1354 C 0.5007 0.75329 0.79838 0.0
C1355 C 0.51518 0.75761 0.71416 0.0
C1356 C 0.52356 0.76721 0.6758 0.0
C1357 C 0.50044 0.73889 0.78632 0.0
C1358 C 0.50732 0.73387 0.73669 0.0
C1359 C 0.51476 0.74323 0.70166 0.0
C1360 C 0.50687 0.71892 0.72036 0.0
C1361 C 0.49289 0.72915 0.82691 0.0
C1362 C 0.51926 0.71099 0.71879 0.0
C1363 C 0.5188 0.69678 0.70452 0.0
C1364 C 0.50595 0.69037 0.69148 0.0
C1365 C 0.49361 0.69837 0.6916 0.0
C1366 C 0.49407 0.71258 0.70593 0.0
H1367 H 0.49121 0.73406 0.86956 0.0
H1368 H 0.48247 0.72647 0.80873 0.0
H1369 H 0.49885 0.71924 0.83283 0.0
H1370 H 0.52925 0.71577 0.72935 0.0
H1371 H 0.52844 0.69076 0.70393 0.0
H1372 H 0.81045 0.49481 0.299 0.0
H1373 H 0.78565 0.49486 0.32659 0.0
H1374 H 0.77484 0.51373 0.16441 0.0
H1375 H 0.7997 0.51397 0.13706 0.0
H1376 H 0.76688 0.5191 0.33144 0.0
H1377 H 0.74977 0.47771 0.17845 0.0
H1378 H 0.76791 0.48016 0.19853 0.0
H1379 H 0.7598 0.49189 0.14828 0.0
C1380 C 0.80278 0.49906 0.26946 0.0
C1381 C 0.80691 0.50435 0.21588 0.0
C1382 C 0.78866 0.49903 0.28515 0.0
C1383 C 0.77847 0.50418 0.24727 0.0
C1384 C 0.78257 0.50953 0.19381 0.0
H1385 H 0.69167 0.52601 0.30191 0.0
H1386 H 0.71706 0.52615 0.28431 0.0
C1387 C 0.79672 0.50963 0.1782 0.0
C1388 C 0.76356 0.50403 0.26402 0.0
H1389 H 0.73197 0.48931 0.23106 0.0
C1390 C 0.75923 0.51258 0.30967 0.0
C1391 C 0.75371 0.49538 0.23578 0.0
C1392 C 0.75798 0.48566 0.18779 0.0
C1393 C 0.74516 0.51291 0.32718 0.0
C1394 C 0.73526 0.5045 0.29804 0.0
C1395 C 0.73964 0.49576 0.25309 0.0
C1396 C 0.72022 0.50477 0.31277 0.0
C1397 C 0.74097 0.52213 0.37686 0.0
C1398 C 0.71369 0.49272 0.33459 0.0
C1399 C 0.69925 0.49264 0.3446 0.0
C1400 C 0.69117 0.50455 0.3321 0.0
C1401 C 0.69775 0.5167 0.31147 0.0
C1402 C 0.7122 0.51681 0.30177 0.0
H1403 H 0.75021 0.5256 0.40223 0.0
H1404 H 0.73556 0.5316 0.36022 0.0
H1405 H 0.73358 0.51655 0.4057 0.0
H1406 H 0.71974 0.48332 0.34307 0.0
H1407 H 0.69432 0.48316 0.36039 0.0
H1408 H 0.00234 0.34088 0.9122 0.0
H1409 H 0.0037 0.34088 0.80772 0.0
H1410 H 0.96425 0.36289 0.79842 0.0
H1411 H 0.96287 0.36317 0.90326 0.0
H1412 H 0.98583 0.3316 0.7179 0.0
H1413 H 0.99243 0.38962 0.72069 0.0
H1414 H 0.9937 0.3791 0.78477 0.0
H1415 H 0.97683 0.38302 0.75442 0.0
C1416 C 0.99383 0.34556 0.88803 0.0
C1417 C 0.98261 0.35225 0.91607 0.0
C1418 C 0.99462 0.34551 0.8283 0.0
C1419 C 0.98423 0.35214 0.79556 0.0
C1420 C 0.97251 0.35796 0.82313 0.0
H1421 H 0.98809 0.37429 0.4323 0.0
H1422 H 0.97979 0.37045 0.53033 0.0
C1423 C 0.97171 0.35804 0.883 0.0
C1424 C 0.98631 0.35386 0.73313 0.0
H1425 H 0.99342 0.37849 0.63095 0.0
C1426 C 0.98737 0.34184 0.6987 0.0
C1427 C 0.98837 0.36726 0.70841 0.0
C1428 C 0.9879 0.38051 0.74387 0.0
C1429 C 0.99058 0.34286 0.64011 0.0
C1430 C 0.99299 0.35623 0.6158 0.0
C1431 C 0.99155 0.36826 0.64986 0.0
C1432 C 0.99769 0.35798 0.5558 0.0
C1433 C 0.99138 0.32963 0.60475 0.0
C1434 C 0.01062 0.35244 0.53808 0.0
C1435 C 0.01535 0.35455 0.48206 0.0
C1436 C 0.00719 0.36219 0.44282 0.0
C1437 C 0.99438 0.36796 0.46099 0.0
C1438 C 0.98967 0.36587 0.51707 0.0
H1439 H 0.9855 0.32089 0.62512 0.0
H1440 H 0.98715 0.33138 0.56094 0.0
H1441 H 0.00251 0.32637 0.60076 0.0
H1442 H 0.01714 0.34663 0.5678 0.0
H1443 H 0.02532 0.35009 0.4693 0.0
H1444 H 0.11842 0.01665 0.98464 0.0
H1445 H 0.12353 0.00937 0.08298 0.0
H1446 H 0.15755 0.98354 0.02193 0.0
H1447 H 0.15307 0.99143 0.92422 0.0
H1448 H 0.12322 0.98332 0.13084 0.0
H1449 H 0.17658 0.00654 0.1449 0.0
H1450 H 0.16467 0.01051 0.08703 0.0
H1451 H 0.17425 0.99427 0.0873 0.0
C1452 C 0.12701 0.00945 0.99221 0.0
C1453 C 0.13511 0.00436 0.94642 0.0
C1454 C 0.12988 0.00525 0.04833 0.0
C1455 C 0.14096 0.99596 0.05975 0.0
C1456 C 0.14904 0.99082 0.01414 0.0
H1457 H 0.14522 0.96145 0.40968 0.0
H1458 H 0.14595 0.96212 0.30466 0.0
C1459 C 0.14626 0.99512 0.95803 0.0
C1460 C 0.14397 0.99178 0.11961 0.0
H1461 H 0.16861 0.99391 0.22546 0.0
C1462 C 0.13317 0.98553 0.15152 0.0
C1463 C 0.15696 0.99474 0.14632 0.0
C1464 C 0.16875 0.00199 0.11489 0.0
C1465 C 0.13483 0.98259 0.21002 0.0
C1466 C 0.14779 0.98563 0.23688 0.0
C1467 C 0.15875 0.99145 0.2045 0.0
C1468 C 0.14955 0.98451 0.29977 0.0
C1469 C 0.12242 0.97697 0.24309 0.0
C1470 C 0.15217 0.9967 0.33161 0.0
C1471 C 0.15197 0.99632 0.39131 0.0
C1472 C 0.14905 0.98374 0.42039 0.0
C1473 C 0.14734 0.97134 0.3885 0.0
C1474 C 0.14766 0.97171 0.32854 0.0
H1475 H 0.11248 0.97794 0.21857 0.0
H1476 H 0.12413 0.96569 0.25251 0.0
H1477 H 0.12119 0.98259 0.28449 0.0
H1478 H 0.15374 0.00667 0.31024 0.0
H1479 H 0.15347 0.00605 0.41452 0.0
H1480 H 0.535 0.14305 0.90368 0.0
H1481 H 0.53483 0.14412 0.79872 0.0
H1482 H 0.49086 0.15477 0.80169 0.0
H1483 H 0.49099 0.15404 0.90595 0.0
H1484 H 0.51961 0.12692 0.73202 0.0
H1485 H 0.50514 0.18163 0.68208 0.0
H1486 H 0.5113 0.17636 0.7521 0.0
H1487 H 0.49314 0.17413 0.73266 0.0
C1488 C 0.52539 0.14595 0.88198 0.0
C1489 C 0.51299 0.14838 0.91313 0.0
C1490 C 0.52531 0.14654 0.82204 0.0
C1491 C 0.51287 0.14968 0.7924 0.0
C1492 C 0.50065 0.15265 0.82358 0.0
H1493 H 0.48006 0.11875 0.47831 0.0
H1494 H 0.4881 0.1232 0.57639 0.0
C1495 C 0.50073 0.1521 0.88332 0.0
C1496 C 0.51212 0.14824 0.72924 0.0
H1497 H 0.49959 0.16437 0.6091 0.0
C1498 C 0.51549 0.1352 0.70493 0.0
C1499 C 0.50693 0.15909 0.69373 0.0
C1500 C 0.50407 0.17363 0.71646 0.0
C1501 C 0.51303 0.13246 0.64673 0.0
C1502 C 0.50675 0.14294 0.61234 0.0
C1503 C 0.50417 0.15625 0.63579 0.0
C1504 C 0.50216 0.14009 0.55281 0.0
C1505 C 0.51702 0.1183 0.62287 0.0
C1506 C 0.50701 0.14842 0.50739 0.0
C1507 C 0.5023 0.14599 0.45154 0.0
C1508 C 0.49275 0.13512 0.4402 0.0
C1509 C 0.48765 0.127 0.48585 0.0
C1510 C 0.49232 0.12946 0.54171 0.0
H1511 H 0.52557 0.1134 0.64835 0.0
H1512 H 0.50779 0.11122 0.6248 0.0
H1513 H 0.52047 0.1191 0.57751 0.0
H1514 H 0.51439 0.15685 0.51521 0.0
H1515 H 0.50591 0.15281 0.41745 0.0
H1516 H 0.37695 0.47906 0.98541 0.0
H1517 H 0.37203 0.48682 0.0835 0.0
H1518 H 0.33832 0.51289 0.02109 0.0
H1519 H 0.34278 0.50462 0.92336 0.0
H1520 H 0.37256 0.51357 0.12884 0.0
H1521 H 0.31933 0.49008 0.14622 0.0
H1522 H 0.33126 0.48571 0.0889 0.0
H1523 H 0.32177 0.50199 0.08738 0.0
C1524 C 0.3685 0.48645 0.99275 0.0
C1525 C 0.36049 0.49154 0.94683 0.0
C1526 C 0.36573 0.4909 0.04861 0.0
C1527 C 0.35479 0.5004 0.0595 0.0
C1528 C 0.34674 0.50548 0.01366 0.0
H1529 H 0.35111 0.53466 0.41065 0.0
H1530 H 0.34996 0.53434 0.30559 0.0
C1531 C 0.34946 0.50095 0.95779 0.0
C1532 C 0.35189 0.50483 0.11912 0.0
H1533 H 0.32771 0.50246 0.22656 0.0
C1534 C 0.36271 0.51128 0.15018 0.0
C1535 C 0.33902 0.50178 0.1466 0.0
C1536 C 0.3272 0.49441 0.11585 0.0
C1537 C 0.36124 0.51427 0.20873 0.0
C1538 C 0.34846 0.51101 0.23652 0.0
C1539 C 0.33743 0.50506 0.20489 0.0
C1540 C 0.34705 0.51187 0.29959 0.0
C1541 C 0.37367 0.52014 0.24094 0.0
C1542 C 0.34503 0.49948 0.33084 0.0
C1543 C 0.34552 0.49964 0.39052 0.0
C1544 C 0.34809 0.51222 0.42019 0.0
C1545 C 0.34925 0.52479 0.38898 0.0
C1546 C 0.34868 0.52461 0.32901 0.0
H1547 H 0.38349 0.51959 0.21538 0.0
H1548 H 0.37166 0.53131 0.25147 0.0
H1549 H 0.37532 0.51437 0.28175 0.0
H1550 H 0.34369 0.48954 0.30897 0.0
H1551 H 0.34443 0.48979 0.41321 0.0
H1552 H 0.96369 0.14605 0.57835 0.0
H1553 H 0.96415 0.14723 0.68323 0.0
H1554 H 0.00861 0.15557 0.67843 0.0
H1555 H 0.00818 0.1548 0.57422 0.0
H1556 H 0.97822 0.12948 0.74983 0.0
H1557 H 0.99639 0.18312 0.79828 0.0
H1558 H 0.98994 0.17819 0.72833 0.0
H1559 H 0.00791 0.17481 0.74794 0.0
C1560 C 0.97349 0.14847 0.59962 0.0
C1561 C 0.98591 0.15026 0.56794 0.0
C1562 C 0.97374 0.14912 0.65954 0.0
C1563 C 0.98638 0.15164 0.68869 0.0
C1564 C -0.00134 0.15396 0.65697 0.0
H1565 H 0.01705 0.11863 0.00326 0.0
H1566 H 0.00935 0.12356 0.90529 0.0
C1567 C 0.99842 0.15339 0.59724 0.0
C1568 C 0.98719 0.15023 0.75188 0.0
H1569 H 0.00102 0.16558 0.87134 0.0
C1570 C 0.98296 0.13748 0.7766 0.0
C1571 C 0.99318 0.16073 0.78704 0.0
C1572 C 0.99696 0.17503 0.76405 0.0
C1573 C 0.98529 0.13466 0.83482 0.0
C1574 C 0.99236 0.1447 0.86881 0.0
C1575 C 0.99584 0.15777 0.84497 0.0
C1576 C 0.9968 0.14163 0.92838 0.0
C1577 C 0.98028 0.12087 0.85911 0.0
C1578 C 0.99272 0.15045 0.97355 0.0
C1579 C 0.99728 0.14776 0.02942 0.0
C1580 C 0.00592 0.13615 0.04117 0.0
C1581 C 0.01022 0.12752 0.99565 0.0
C1582 C 0.00572 0.13025 0.93977 0.0
H1583 H 0.97132 0.11663 0.83408 0.0
H1584 H 0.98893 0.1131 0.85689 0.0
H1585 H 0.97702 0.12198 0.90459 0.0
H1586 H 0.98608 0.15945 0.9655 0.0
H1587 H 0.99431 0.15502 0.0629 0.0
H1588 H 0.36211 0.96273 0.09038 0.0
H1589 H 0.36158 0.96381 0.1952 0.0
H1590 H 0.3382 0.00249 0.1868 0.0
H1591 H 0.33853 0.00144 0.08234 0.0
H1592 H 0.37398 0.98587 0.25386 0.0
H1593 H 0.31799 0.9812 0.31424 0.0
H1594 H 0.32457 0.97576 0.24507 0.0
H1595 H 0.321 0.99397 0.25905 0.0
C1596 C 0.35655 0.97128 0.11083 0.0
C1597 C 0.35046 0.98206 0.07806 0.0
C1598 C 0.35628 0.97188 0.17071 0.0
C1599 C 0.34977 0.98317 0.1987 0.0
C1600 C 0.34306 0.99355 0.16609 0.0
H1601 H 0.34961 0.02443 0.52361 0.0
H1602 H 0.34645 0.01634 0.42479 0.0
C1603 C 0.34335 0.99298 0.10632 0.0
C1604 C 0.35147 0.98511 0.26123 0.0
H1605 H 0.33333 0.99135 0.38473 0.0
C1606 C 0.36511 0.98683 0.28277 0.0
C1607 C 0.33988 0.98644 0.29857 0.0
C1608 C 0.32504 0.98411 0.27821 0.0
C1609 C 0.36745 0.99047 0.34022 0.0
C1610 C 0.35583 0.99219 0.37721 0.0
C1611 C 0.3422 0.99007 0.35611 0.0
C1612 C 0.35759 0.99681 0.43729 0.0
C1613 C 0.38229 0.99307 0.36018 0.0
C1614 C 0.36488 0.98848 0.47688 0.0
C1615 C 0.36679 0.99312 0.53317 0.0
C1616 C 0.36125 0.00607 0.55093 0.0
C1617 C 0.35397 0.01439 0.51111 0.0
C1618 C 0.35208 0.00976 0.45484 0.0
H1619 H 0.38967 0.9943 0.32366 0.0
H1620 H 0.38285 0.00262 0.38733 0.0
H1621 H 0.38586 0.98403 0.38633 0.0
H1622 H 0.36914 0.97842 0.46418 0.0
H1623 H 0.37279 0.98665 0.56235 0.0
H1624 H 0.53358 0.3625 0.58757 0.0
H1625 H 0.53217 0.36169 0.69227 0.0
H1626 H 0.49345 0.33847 0.68077 0.0
H1627 H 0.49487 0.339 0.57644 0.0
H1628 H 0.51057 0.37403 0.75075 0.0
H1629 H 0.51368 0.3178 0.80842 0.0
H1630 H 0.51918 0.32437 0.73933 0.0
H1631 H 0.50091 0.32119 0.75365 0.0
C1632 C 0.52495 0.35691 0.60731 0.0
C1633 C 0.51428 0.35091 0.57367 0.0
C1634 C 0.52416 0.35648 0.66714 0.0
C1635 C 0.51277 0.34993 0.69428 0.0
C1636 C 0.50248 0.34333 0.6608 0.0
H1637 H 0.47093 0.3508 0.01886 0.0
H1638 H 0.4789 0.34742 0.91995 0.0
C1639 C 0.50326 0.34374 0.60106 0.0
C1640 C 0.51066 0.35148 0.75686 0.0
H1641 H 0.50366 0.33315 0.8793 0.0
C1642 C 0.5093 0.3651 0.77911 0.0
C1643 C 0.50892 0.33981 0.79359 0.0
C1644 C 0.51088 0.32497 0.77266 0.0
C1645 C 0.50567 0.36736 0.83662 0.0
C1646 C 0.50355 0.35569 0.87295 0.0
C1647 C 0.50525 0.34207 0.85116 0.0
C1648 C 0.49901 0.35743 0.93315 0.0
C1649 C 0.50356 0.38221 0.85745 0.0
C1650 C 0.50772 0.36412 0.97317 0.0
C1651 C 0.50316 0.36613 0.0295 0.0
C1652 C 0.48989 0.3613 0.04687 0.0
C1653 C 0.48121 0.3546 0.00666 0.0
C1654 C 0.48578 0.35259 0.95034 0.0
H1655 H 0.50271 0.38977 0.82139 0.0
H1656 H 0.49396 0.383 0.88419 0.0
H1657 H 0.51265 0.38533 0.8843 0.0
H1658 H 0.518 0.36788 0.96071 0.0
H1659 H 0.50992 0.37169 0.05898 0.0
H1660 H 0.15409 0.48937 0.07637 0.0
H1661 H 0.15457 0.48914 0.18066 0.0
H1662 H 0.14766 0.53385 0.18366 0.0
H1663 H 0.14673 0.53414 0.07862 0.0
H1664 H 0.16994 0.50204 0.26402 0.0
H1665 H 0.11407 0.51894 0.27192 0.0
H1666 H 0.12254 0.51386 0.20599 0.0
H1667 H 0.12589 0.53082 0.23676 0.0
C1668 C 0.15282 0.49921 0.099 0.0
C1669 C 0.1501 0.51174 0.06922 0.0
C1670 C 0.15315 0.49906 0.15871 0.0
C1671 C 0.15085 0.51142 0.18985 0.0
C1672 C 0.14913 0.52414 0.16033 0.0
H1673 H 0.15458 0.50468 0.56574 0.0
H1674 H 0.15906 0.51275 0.46825 0.0
C1675 C 0.14869 0.52429 0.10037 0.0
C1676 C 0.14922 0.51057 0.25284 0.0
H1677 H 0.12483 0.51338 0.35937 0.0
C1678 C 0.16015 0.50468 0.28515 0.0
C1679 C 0.13634 0.51386 0.27993 0.0
C1680 C 0.12398 0.51961 0.24698 0.0
C1681 C 0.15841 0.50151 0.34346 0.0
C1682 C 0.14548 0.50466 0.37033 0.0
C1683 C 0.13473 0.51103 0.33853 0.0
C1684 C 0.14244 0.50043 0.43009 0.0
C1685 C 0.17014 0.49416 0.37488 0.0
C1686 C 0.13135 0.49115 0.44121 0.0
C1687 C 0.12849 0.48684 0.49717 0.0
C1688 C 0.13661 0.49181 0.5431 0.0
C1689 C 0.14775 0.50107 0.53182 0.0
C1690 C 0.15053 0.50548 0.47584 0.0
H1691 H 0.17798 0.48962 0.34489 0.0
H1692 H 0.17565 0.50182 0.40276 0.0
H1693 H 0.166 0.48563 0.40247 0.0
H1694 H 0.12499 0.48711 0.40642 0.0
H1695 H 0.1199 0.47962 0.5045 0.0
H1696 H 0.00511 0.65298 0.57521 0.0
H1697 H 0.01335 0.65722 0.47777 0.0
H1698 H 0.98695 0.62374 0.41593 0.0
H1699 H 0.97928 0.61888 0.51398 0.0
H1700 H 0.01327 0.62295 0.36919 0.0
H1701 H 0.99072 0.67661 0.354 0.0
H1702 H 0.00283 0.67402 0.41203 0.0
H1703 H 0.98642 0.66475 0.41161 0.0
C1704 C 0.00137 0.64623 0.5413 0.0
C1705 C 0.99183 0.63532 0.55257 0.0
C1706 C 0.00588 0.64888 0.48535 0.0
C1707 C 0.00067 0.64088 0.4396 0.0
C1708 C 0.99112 0.63001 0.45072 0.0
H1709 H 0.98995 0.65257 0.08588 0.0
H1710 H 0.98973 0.6531 0.19016 0.0
C1711 C 0.9867 0.62729 0.50665 0.0
C1712 C 0.005 0.64379 0.37987 0.0
H1713 H 0.00298 0.66824 0.27329 0.0
C1714 C 0.01115 0.63289 0.34824 0.0
C1715 C 0.00216 0.65677 0.35284 0.0
C1716 C 0.99507 0.66869 0.38409 0.0
C1717 C 0.01405 0.6344 0.28963 0.0
C1718 C 0.01105 0.64732 0.26238 0.0
C1719 C 0.00539 0.65841 0.29454 0.0
C1720 C 0.01193 0.64889 0.19936 0.0
C1721 C 0.01955 0.62189 0.25686 0.0
C1722 C 0.02461 0.64688 0.16985 0.0
C1723 C 0.02475 0.64641 0.10988 0.0
C1724 C 0.01223 0.64809 0.07873 0.0
C1725 C -0.00024 0.65109 0.10851 0.0
C1726 C -0.00038 0.65145 0.16821 0.0
H1727 H 0.01866 0.61202 0.28192 0.0
H1728 H 0.01377 0.62054 0.21588 0.0
H1729 H 0.03079 0.62356 0.24664 0.0
H1730 H 0.03429 0.64521 0.19318 0.0
H1731 H 0.03455 0.64423 0.08814 0.0
H1732 H 0.87447 0.00321 0.04359 0.0
H1733 H 0.86855 0.0106 0.94594 0.0
H1734 H 0.8288 0.98911 0.95904 0.0
H1735 H 0.83507 0.98115 0.05546 0.0
H1736 H 0.84048 0.9823 0.86543 0.0
H1737 H 0.84387 0.0399 0.8794 0.0
H1738 H 0.85992 0.03223 0.90408 0.0
H1739 H 0.84382 0.02891 0.94241 0.0
C1740 C 0.86443 0.00022 0.02557 0.0
C1741 C 0.85522 0.99162 0.05648 0.0
C1742 C 0.86096 0.00458 0.97016 0.0
C1743 C 0.84807 0.0007 0.94552 0.0
C1744 C 0.83876 0.99232 0.9772 0.0
H1745 H 0.83107 0.02704 0.58757 0.0
H1746 H 0.82834 0.02537 0.69242 0.0
C1747 C 0.84236 0.98772 0.03204 0.0
C1748 C 0.84503 0.00397 0.88462 0.0
H1749 H 0.84716 0.0299 0.78392 0.0
C1750 C 0.84164 0.99279 0.84801 0.0
C1751 C 0.84622 0.01768 0.86168 0.0
C1752 C 0.84849 0.03036 0.89921 0.0
C1753 C 0.84037 0.99475 0.78883 0.0
C1754 C 0.84303 0.00816 0.76535 0.0
C1755 C 0.84541 0.01957 0.80204 0.0
C1756 C 0.84489 0.01003 0.70296 0.0
C1757 C 0.83657 0.98232 0.75182 0.0
C1758 C 0.85536 0.00234 0.67495 0.0
C1759 C 0.85683 0.00317 0.61579 0.0
C1760 C 0.84802 0.01191 0.58335 0.0
C1761 C 0.83795 0.02018 0.61161 0.0
C1762 C 0.83638 0.01923 0.67127 0.0
H1763 H 0.83023 0.97456 0.77615 0.0
H1764 H 0.83056 0.9856 0.71326 0.0
H1765 H 0.84631 0.977 0.73758 0.0
H1766 H 0.8623 0.99551 0.69889 0.0
H1767 H 0.86486 0.99685 0.59543 0.0
H1768 H 0.48673 0.87195 0.56579 0.0
H1769 H 0.47877 0.86756 0.46764 0.0
H1770 H 0.51811 0.84727 0.42938 0.0
H1771 H 0.52599 0.85131 0.52795 0.0
H1772 H 0.49187 0.87706 0.36716 0.0
H1773 H 0.4887 0.81898 0.37093 0.0
H1774 H 0.48933 0.82944 0.43548 0.0
H1775 H 0.50512 0.82587 0.396 0.0
C1776 C 0.49355 0.86626 0.53691 0.0
C1777 C 0.50685 0.86167 0.55486 0.0
C1778 C 0.48903 0.86386 0.48075 0.0
C1779 C 0.49773 0.85681 0.44173 0.0
C1780 C 0.5111 0.85241 0.45929 0.0
H1781 H 0.50308 0.84017 0.08432 0.0
H1782 H 0.50466 0.84022 0.18875 0.0
C1783 C 0.51564 0.85485 0.51536 0.0
C1784 C 0.49321 0.85481 0.3816 0.0
H1785 H 0.48796 0.82988 0.27871 0.0
C1786 C 0.49082 0.86675 0.34791 0.0
C1787 C 0.49187 0.84134 0.35683 0.0
C1788 C 0.49376 0.82816 0.39175 0.0
C1789 C 0.48772 0.86562 0.28931 0.0
C1790 C 0.48669 0.85214 0.26415 0.0
C1791 C 0.48872 0.84018 0.29821 0.0
C1792 C 0.48461 0.85036 0.20168 0.0
C1793 C 0.48623 0.87886 0.25432 0.0
C1794 C 0.47252 0.85551 0.17449 0.0
C1795 C 0.4716 0.85557 0.11465 0.0
C1796 C 0.48273 0.85041 0.08115 0.0
C1797 C 0.49437 0.84435 0.10879 0.0
C1798 C 0.49529 0.84434 0.16852 0.0
H1799 H 0.49024 0.88821 0.27755 0.0
H1800 H 0.49196 0.87792 0.21302 0.0
H1801 H 0.47498 0.88065 0.24459 0.0
H1802 H 0.46403 0.85993 0.19949 0.0
H1803 H 0.46244 0.86019 0.09472 0.0
H1804 H 0.65933 0.52111 0.04327 0.0
H1805 H 0.66351 0.51361 0.94423 0.0
H1806 H 0.62856 0.48498 0.95568 0.0
H1807 H 0.62466 0.49213 0.05531 0.0
H1808 H 0.65056 0.47341 0.89784 0.0
H1809 H 0.63896 0.52678 0.81482 0.0
H1810 H 0.6533 0.52627 0.86455 0.0
H1811 H 0.63588 0.52193 0.88842 0.0
C1812 C 0.65259 0.51318 0.02452 0.0
C1813 C 0.64167 0.50718 0.05653 0.0
C1814 C 0.65497 0.50893 0.9681 0.0
C1815 C 0.6462 0.49891 0.94237 0.0
C1816 C 0.63547 0.49271 0.97479 0.0
H1817 H 0.62615 0.49195 0.59015 0.0
H1818 H 0.62704 0.49393 0.69419 0.0
C1819 C 0.63323 0.49679 0.03154 0.0
C1820 C 0.64768 0.49544 0.88085 0.0
H1821 H 0.64606 0.50987 0.74736 0.0
C1822 C 0.64961 0.48136 0.86479 0.0
C1823 C 0.64632 0.50584 0.83798 0.0
C1824 C 0.64337 0.52102 0.85214 0.0
C1825 C 0.64995 0.47737 0.8068 0.0
C1826 C 0.64863 0.48781 0.7641 0.0
C1827 C 0.6471 0.5019 0.7803 0.0
C1828 C 0.64759 0.48447 0.7023 0.0
C1829 C 0.65118 0.46203 0.79179 0.0
C1830 C 0.65868 0.47804 0.67245 0.0
C1831 C 0.65806 0.47665 0.61265 0.0
C1832 C 0.64649 0.48197 0.58238 0.0
C1833 C 0.63524 0.48788 0.61262 0.0
C1834 C 0.63573 0.48902 0.67199 0.0
H1835 H 0.64898 0.45518 0.82927 0.0
H1836 H 0.64385 0.45924 0.7566 0.0
H1837 H 0.66201 0.45983 0.77693 0.0
H1838 H 0.66803 0.47468 0.69493 0.0
H1839 H 0.66689 0.47216 0.58995 0.0
H1840 H 0.03444 0.85207 0.3964 0.0
H1841 H 0.03314 0.85167 0.29144 0.0
H1842 H 0.98943 0.84026 0.30099 0.0
H1843 H 0.9907 0.8402 0.4052 0.0
H1844 H 0.0028 0.82683 0.21372 0.0
H1845 H 0.01409 0.88408 0.20935 0.0
H1846 H 0.02747 0.87339 0.24144 0.0
H1847 H 0.01055 0.87476 0.27504 0.0
C1848 C 0.02462 0.84923 0.37609 0.0
C1849 C 0.01261 0.84641 0.40914 0.0
C1850 C 0.02388 0.8491 0.31616 0.0
C1851 C 0.01109 0.8463 0.28855 0.0
C1852 C -0.00063 0.84256 0.32144 0.0
H1853 H 0.97617 0.87562 0.97343 0.0
H1854 H 0.98353 0.87087 0.07222 0.0
C1855 C 0.00012 0.84257 0.38112 0.0
C1856 C 0.00945 0.8482 0.22589 0.0
H1857 H 0.00945 0.87319 0.12107 0.0
C1858 C 0.00438 0.83692 0.19322 0.0
C1859 C 0.01132 0.86145 0.19962 0.0
C1860 C 0.01604 0.87416 0.2331 0.0
C1861 C 0.00081 0.8386 0.13525 0.0
C1862 C 0.00268 0.85186 0.10904 0.0
C1863 C 0.00808 0.86304 0.14133 0.0
C1864 C 0.99836 0.85462 0.0491 0.0
C1865 C 0.99446 0.82636 0.10344 0.0
C1866 C 0.00427 0.84708 0.00347 0.0
C1867 C -3e-05 0.84968 0.94721 0.0
C1868 C 0.98996 0.86013 0.93555 0.0
C1869 C 0.98403 0.86763 0.98127 0.0
C1870 C 0.98825 0.86496 0.03755 0.0
H1871 H 0.99051 0.81817 0.13324 0.0
H1872 H 0.98567 0.82983 0.07564 0.0
H1873 H 0.00259 0.8215 0.07578 0.0
H1874 H 0.01218 0.83916 0.01134 0.0
H1875 H 0.00432 0.84335 0.91302 0.0
H1876 H 0.64409 0.03281 0.92341 0.0
H1877 H 0.64397 0.03268 0.8183 0.0
H1878 H 0.65494 0.9888 0.81874 0.0
H1879 H 0.65532 0.98885 0.92322 0.0
H1880 H 0.66846 0.00437 0.73237 0.0
H1881 H 0.61074 0.0134 0.7371 0.0
H1882 H 0.62142 0.02633 0.77232 0.0
H1883 H 0.62058 0.00882 0.80049 0.0
C1884 C 0.64674 0.02321 0.90109 0.0
C1885 C 0.64948 0.01078 0.93159 0.0
C1886 C 0.64659 0.02314 0.84111 0.0
C1887 C 0.64915 0.01066 0.81099 0.0
C1888 C 0.65285 -0.00148 0.84129 0.0
H1889 H 0.62102 0.97519 0.49754 0.0
H1890 H 0.62563 0.98287 0.59613 0.0
C1891 C 0.65301 -0.00144 0.90103 0.0
C1892 C 0.64689 0.00974 0.7484 0.0
H1893 H 0.62102 0.00939 0.64721 0.0
C1894 C 0.65815 0.00565 0.71344 0.0
C1895 C 0.63336 0.01124 0.72429 0.0
C1896 C 0.62078 0.01509 0.76035 0.0
C1897 C 0.65615 0.00265 0.65511 0.0
C1898 C 0.64258 0.00397 0.63123 0.0
C1899 C 0.63141 0.00845 0.66581 0.0
C1900 C 0.63952 -0.00021 0.57151 0.0
C1901 C 0.66843 0.99745 0.62018 0.0
C1902 C 0.64571 0.00686 0.52528 0.0
C1903 C 0.64312 0.00247 0.46915 0.0
C1904 C 0.6341 0.9911 0.45845 0.0
C1905 C 0.62786 0.98409 0.50477 0.0
C1906 C 0.63047 0.98848 0.56088 0.0
H1907 H 0.67742 0.99433 0.64766 0.0
H1908 H 0.66533 0.98833 0.5934 0.0
H1909 H 0.67201 0.00593 0.59108 0.0
H1910 H 0.65265 0.01567 0.53264 0.0
H1911 H 0.64846 0.00773 0.43428 0.0
H1912 H 0.49223 0.65341 0.92061 0.0
H1913 H 0.48443 0.65762 0.0187 0.0
H1914 H 0.51229 0.62517 0.07917 0.0
H1915 H 0.51954 0.62032 0.98044 0.0
H1916 H 0.4863 0.62337 0.12745 0.0
H1917 H 0.50642 0.67794 0.1414 0.0
H1918 H 0.49432 0.67498 0.08369 0.0
H1919 H 0.51105 0.66627 0.08352 0.0
C1920 C 0.49642 0.64689 0.95447 0.0
C1921 C 0.50619 0.63622 0.94262 0.0
C1922 C 0.49216 0.64953 0.01073 0.0
C1923 C 0.49787 0.6418 0.05623 0.0
C1924 C 0.50773 0.63124 0.04458 0.0
H1925 H 0.50577 0.6553 0.41225 0.0
H1926 H 0.50698 0.65548 0.30806 0.0
C1927 C 0.5119 0.62852 0.98828 0.0
C1928 C 0.49355 0.64456 0.11612 0.0
H1929 H 0.49385 0.66943 0.22143 0.0
C1930 C 0.48787 0.63345 0.148 0.0
C1931 C 0.49567 0.65774 0.14269 0.0
C1932 C 0.50231 0.66989 0.11132 0.0
C1933 C 0.48461 0.63502 0.20627 0.0
C1934 C 0.48675 0.64819 0.2329 0.0
C1935 C 0.49207 0.65941 0.20062 0.0
C1936 C 0.48516 0.65 0.29559 0.0
C1937 C 0.4796 0.62236 0.23935 0.0
C1938 C 0.47233 0.64744 0.32318 0.0
C1939 C 0.47162 0.64718 0.38311 0.0
C1940 C 0.48372 0.64961 0.41612 0.0
C1941 C 0.49628 0.65322 0.38816 0.0
C1942 C 0.49699 0.65337 0.32851 0.0
H1943 H 0.48131 0.61245 0.21528 0.0
H1944 H 0.48508 0.62156 0.28124 0.0
H1945 H 0.46819 0.62339 0.24777 0.0
H1946 H 0.46299 0.64515 0.29843 0.0
H1947 H 0.46175 0.64452 0.40339 0.0
H1948 H 0.84353 0.4933 0.43616 0.0
H1949 H 0.83927 0.48545 0.53405 0.0
H1950 H 0.87282 0.512 0.59421 0.0
H1951 H 0.87773 0.51923 0.49561 0.0
H1952 H 0.87379 0.48618 0.64258 0.0
H1953 H 0.81983 0.50784 0.65722 0.0
H1954 H 0.82233 0.49558 0.59973 0.0
H1955 H 0.83153 0.51205 0.59894 0.0
C1956 C 0.85029 0.49716 0.4698 0.0
C1957 C 0.86126 0.50658 0.45784 0.0
C1958 C 0.84762 0.49289 0.52604 0.0
C1959 C 0.85563 0.49824 0.57148 0.0
C1960 C 0.86652 0.50772 0.55971 0.0
H1961 H 0.84217 0.50663 0.92776 0.0
H1962 H 0.84208 0.5078 0.82355 0.0
C1963 C 0.86928 0.51189 0.50345 0.0
C1964 C 0.85279 0.49399 0.63144 0.0
H1965 H 0.82805 0.49506 0.73717 0.0
C1966 C 0.86377 0.48804 0.66326 0.0
C1967 C 0.83971 0.4965 0.65822 0.0
C1968 C 0.8277 0.50346 0.62702 0.0
C1969 C 0.86219 0.48491 0.72164 0.0
C1970 C 0.84911 0.48742 0.74849 0.0
C1971 C 0.838 0.493 0.71625 0.0
C1972 C 0.8473 0.48591 0.81126 0.0
C1973 C 0.87477 0.47962 0.75457 0.0
C1974 C 0.8497 0.47306 0.83901 0.0
C1975 C 0.84993 0.47238 0.89895 0.0
C1976 C 0.84759 0.48451 0.93188 0.0
C1977 C 0.84415 0.4971 0.90377 0.0
C1978 C 0.84405 0.49779 0.84409 0.0
H1979 H 0.8847 0.48115 0.73043 0.0
H1980 H 0.87571 0.48504 0.79653 0.0
H1981 H 0.87353 0.46823 0.7628 0.0
H1982 H 0.85187 0.46368 0.81438 0.0
H1983 H 0.85245 0.46249 0.91933 0.0
loop_
_geom_bond_atom_site_label_1
_geom_bond_atom_site_label_2
_geom_bond_distance
_geom_bond_site_symmetry_2
_ccdc_geom_bond_type
Co0 O3 1.970 1_455 S
Co0 N17 1.989 . S
Co0 O25 1.967 . S
Co0 O32 1.920 . S
Co1 O4 1.966 1_455 S
Co1 N10 2.022 . S
Co1 N18 1.993 . S
Co1 O26 1.941 . S
C2 O3 1.258 . S
C2 O4 1.263 . S
O3 Co0 1.970 1_655 S
O3 C2 1.258 . S
O4 Co1 1.966 1_655 S
O4 C2 1.263 . S
C5 O6 1.235 1_556 S
C5 O32 1.289 1_656 S
O6 C5 1.235 1_554 S
C7 C9 1.400 . S
C7 N10 1.351 . S
C7 C12 1.501 1_455 S
C8 C9 1.387 . S
C8 N11 1.341 . S
C9 C7 1.400 . S
C9 C8 1.387 . S
N10 Co1 2.022 . S
N10 C7 1.351 . S
N10 N11 1.365 . S
N11 C8 1.341 . S
N11 N10 1.365 . S
N11 H31 0.862 . S
C12 C7 1.501 1_655 S
C12 H13 0.961 . S
C12 H14 0.961 . S
C12 H15 0.960 . S
H13 C12 0.961 . S
H14 C12 0.961 . S
H15 C12 0.960 . S
C16 N17 1.342 . S
C16 C20 1.401 . S
C16 C21 1.499 . S
N17 Co0 1.989 . S
N17 C16 1.342 . S
N17 N18 1.388 . S
N18 Co1 1.993 . S
N18 N17 1.388 . S
N18 C19 1.346 . S
C19 N18 1.346 . S
C19 C20 1.396 . S
C19 C29 1.510 . S
C20 C16 1.401 . S
C20 C19 1.396 . S
C21 C16 1.499 . S
C21 H22 0.959 . S
C21 H23 0.960 . S
C21 H24 0.961 . S
H22 C21 0.959 . S
H23 C21 0.960 . S
H24 C21 0.961 . S
O25 Co0 1.967 . S
O25 C33 1.258 . S
O26 Co1 1.941 . S
O26 C33 1.266 . S
H27 C29 0.959 . S
H28 C29 0.961 . S
C29 C19 1.510 . S
C29 H27 0.959 . S
C29 H28 0.961 . S
C29 H30 0.960 . S
H30 C29 0.960 . S
H31 N11 0.862 . S
O32 Co0 1.920 . S
O32 C5 1.289 1_454 S
C33 O25 1.258 . S
C33 O26 1.266 . S
Co34 O37 1.970 1_545 S
Co34 N51 1.989 . S
Co34 O59 1.967 . S
Co34 O66 1.920 . S
Co35 O38 1.966 1_545 S
Co35 N44 2.022 . S
Co35 N52 1.993 . S
Co35 O60 1.941 . S
C36 O37 1.258 . S
C36 O38 1.263 . S
O37 Co34 1.970 1_565 S
O37 C36 1.258 . S
O38 Co35 1.966 1_565 S
O38 C36 1.263 . S
C39 O40 1.235 . S
C39 O66 1.289 1_565 S
O40 C39 1.235 . S
C41 C43 1.400 . S
C41 N44 1.351 . S
C41 C46 1.501 1_545 S
C42 C43 1.387 . S
C42 N45 1.341 . S
C43 C41 1.400 . S
C43 C42 1.387 . S
N44 Co35 2.022 . S
N44 C41 1.351 . S
N44 N45 1.365 . S
N45 C42 1.341 . S
N45 N44 1.365 . S
N45 H65 0.862 . S
C46 C41 1.501 1_565 S
C46 H47 0.961 . S
C46 H48 0.961 . S
C46 H49 0.960 . S
H47 C46 0.961 . S
H48 C46 0.961 . S
H49 C46 0.960 . S
C50 N51 1.342 . S
C50 C54 1.401 . S
C50 C55 1.499 . S
N51 Co34 1.989 . S
N51 C50 1.342 . S
N51 N52 1.388 . S
N52 Co35 1.993 . S
N52 N51 1.388 . S
N52 C53 1.346 . S
C53 N52 1.346 . S
C53 C54 1.396 . S
C53 C63 1.510 . S
C54 C50 1.401 . S
C54 C53 1.396 . S
C55 C50 1.499 . S
C55 H56 0.959 . S
C55 H57 0.960 . S
C55 H58 0.961 . S
H56 C55 0.959 . S
H57 C55 0.960 . S
H58 C55 0.961 . S
O59 Co34 1.967 . S
O59 C67 1.258 . S
O60 Co35 1.941 . S
O60 C67 1.266 . S
H61 C63 0.959 . S
H62 C63 0.961 . S
C63 C53 1.510 . S
C63 H61 0.959 . S
C63 H62 0.961 . S
C63 H64 0.960 . S
H64 C63 0.960 . S
H65 N45 0.862 . S
O66 Co34 1.920 . S
O66 C39 1.289 1_545 S
C67 O59 1.258 . S
C67 O60 1.266 . S
Co68 O71 1.970 . S
Co68 N85 1.989 . S
Co68 O93 1.967 . S
Co68 O100 1.920 . S
Co69 O72 1.966 . S
Co69 N78 2.022 . S
Co69 N86 1.993 . S
Co69 O94 1.941 . S
C70 O71 1.258 . S
C70 O72 1.263 . S
O71 Co68 1.970 . S
O71 C70 1.258 . S
O72 Co69 1.966 . S
O72 C70 1.263 . S
C73 O74 1.235 1_556 S
C73 O100 1.289 1_556 S
O74 C73 1.235 1_554 S
C75 C77 1.400 . S
C75 N78 1.351 . S
C75 C80 1.501 . S
C76 C77 1.387 . S
C76 N79 1.341 . S
C77 C75 1.400 . S
C77 C76 1.387 . S
N78 Co69 2.022 . S
N78 C75 1.351 . S
N78 N79 1.365 . S
N79 C76 1.341 . S
N79 N78 1.365 . S
N79 H99 0.862 . S
C80 C75 1.501 . S
C80 H81 0.961 . S
C80 H82 0.961 . S
C80 H83 0.960 . S
H81 C80 0.961 . S
H82 C80 0.961 . S
H83 C80 0.960 . S
C84 N85 1.342 . S
C84 C88 1.401 . S
C84 C89 1.499 . S
N85 Co68 1.989 . S
N85 C84 1.342 . S
N85 N86 1.388 . S
N86 Co69 1.993 . S
N86 N85 1.388 . S
N86 C87 1.346 . S
C87 N86 1.346 . S
C87 C88 1.396 . S
C87 C97 1.510 . S
C88 C84 1.401 . S
C88 C87 1.396 . S
C89 C84 1.499 . S
C89 H90 0.959 . S
C89 H91 0.960 . S
C89 H92 0.961 . S
H90 C89 0.959 . S
H91 C89 0.960 . S
H92 C89 0.961 . S
O93 Co68 1.967 . S
O93 C101 1.258 . S
O94 Co69 1.941 . S
O94 C101 1.266 . S
H95 C97 0.959 . S
H96 C97 0.961 . S
C97 C87 1.510 . S
C97 H95 0.959 . S
C97 H96 0.961 . S
C97 H98 0.960 . S
H98 C97 0.960 . S
H99 N79 0.862 . S
O100 Co68 1.920 . S
O100 C73 1.289 1_554 S
C101 O93 1.258 . S
C101 O94 1.266 . S
Co102 O105 1.970 . S
Co102 N119 1.989 . S
Co102 O127 1.967 . S
Co102 O134 1.920 . S
Co103 O106 1.966 . S
Co103 N112 2.022 . S
Co103 N120 1.993 . S
Co103 O128 1.941 . S
C104 O105 1.258 . S
C104 O106 1.263 . S
O105 Co102 1.970 . S
O105 C104 1.258 . S
O106 Co103 1.966 . S
O106 C104 1.263 . S
C107 O108 1.235 . S
C107 O134 1.289 . S
O108 C107 1.235 . S
C109 C111 1.400 . S
C109 N112 1.351 . S
C109 C114 1.501 . S
C110 C111 1.387 . S
C110 N113 1.341 . S
C111 C109 1.400 . S
C111 C110 1.387 . S
N112 Co103 2.022 . S
N112 C109 1.351 . S
N112 N113 1.365 . S
N113 C110 1.341 . S
N113 N112 1.365 . S
N113 H133 0.862 . S
C114 C109 1.501 . S
C114 H115 0.961 . S
C114 H116 0.961 . S
C114 H117 0.960 . S
H115 C114 0.961 . S
H116 C114 0.961 . S
H117 C114 0.960 . S
C118 N119 1.342 . S
C118 C122 1.401 . S
C118 C123 1.499 . S
N119 Co102 1.989 . S
N119 C118 1.342 . S
N119 N120 1.388 . S
N120 Co103 1.993 . S
N120 N119 1.388 . S
N120 C121 1.346 . S
C121 N120 1.346 . S
C121 C122 1.396 . S
C121 C131 1.510 . S
C122 C118 1.401 . S
C122 C121 1.396 . S
C123 C118 1.499 . S
C123 H124 0.959 . S
C123 H125 0.960 . S
C123 H126 0.961 . S
H124 C123 0.959 . S
H125 C123 0.960 . S
H126 C123 0.961 . S
O127 Co102 1.967 . S
O127 C135 1.258 . S
O128 Co103 1.941 . S
O128 C135 1.266 . S
H129 C131 0.959 . S
H130 C131 0.961 . S
C131 C121 1.510 . S
C131 H129 0.959 . S
C131 H130 0.961 . S
C131 H132 0.960 . S
H132 C131 0.960 . S
H133 N113 0.862 . S
O134 Co102 1.920 . S
O134 C107 1.289 . S
C135 O127 1.258 . S
C135 O128 1.266 . S
Co136 O139 1.970 1_455 S
Co136 N153 1.989 . S
Co136 O161 1.967 . S
Co136 O168 1.920 . S
Co137 O140 1.966 1_455 S
Co137 N146 2.022 . S
Co137 N154 1.993 . S
Co137 O162 1.941 . S
C138 O139 1.258 . S
C138 O140 1.263 . S
O139 Co136 1.970 1_655 S
O139 C138 1.258 . S
O140 Co137 1.966 1_655 S
O140 C138 1.263 . S
C141 O142 1.235 . S
C141 O168 1.289 1_655 S
O142 C141 1.235 . S
C143 C145 1.400 . S
C143 N146 1.351 . S
C143 C148 1.501 1_455 S
C144 C145 1.387 . S
C144 N147 1.341 . S
C145 C143 1.400 . S
C145 C144 1.387 . S
N146 Co137 2.022 . S
N146 C143 1.351 . S
N146 N147 1.365 . S
N147 C144 1.341 . S
N147 N146 1.365 . S
N147 H167 0.862 . S
C148 C143 1.501 1_655 S
C148 H149 0.961 . S
C148 H150 0.961 . S
C148 H151 0.960 . S
H149 C148 0.961 . S
H150 C148 0.961 . S
H151 C148 0.960 . S
C152 N153 1.342 . S
C152 C156 1.401 . S
C152 C157 1.499 . S
N153 Co136 1.989 . S
N153 C152 1.342 . S
N153 N154 1.388 . S
N154 Co137 1.993 . S
N154 N153 1.388 . S
N154 C155 1.346 . S
C155 N154 1.346 . S
C155 C156 1.396 . S
C155 C165 1.510 . S
C156 C152 1.401 . S
C156 C155 1.396 . S
C157 C152 1.499 . S
C157 H158 0.959 . S
C157 H159 0.960 . S
C157 H160 0.961 . S
H158 C157 0.959 . S
H159 C157 0.960 . S
H160 C157 0.961 . S
O161 Co136 1.967 . S
O161 C169 1.258 . S
O162 Co137 1.941 . S
O162 C169 1.266 . S
H163 C165 0.959 . S
H164 C165 0.961 . S
C165 C155 1.510 . S
C165 H163 0.959 . S
C165 H164 0.961 . S
C165 H166 0.960 . S
H166 C165 0.960 . S
H167 N147 0.862 . S
O168 Co136 1.920 . S
O168 C141 1.289 1_455 S
C169 O161 1.258 . S
C169 O162 1.266 . S
Co170 O173 1.970 1_545 S
Co170 N187 1.989 . S
Co170 O195 1.967 . S
Co170 O202 1.920 . S
Co171 O174 1.966 1_545 S
Co171 N180 2.022 . S
Co171 N188 1.993 . S
Co171 O196 1.941 . S
C172 O173 1.258 . S
C172 O174 1.263 . S
O173 Co170 1.970 1_565 S
O173 C172 1.258 . S
O174 Co171 1.966 1_565 S
O174 C172 1.263 . S
C175 O176 1.235 1_554 S
C175 O202 1.289 1_564 S
O176 C175 1.235 1_556 S
C177 C179 1.400 . S
C177 N180 1.351 . S
C177 C182 1.501 1_545 S
C178 C179 1.387 . S
C178 N181 1.341 . S
C179 C177 1.400 . S
C179 C178 1.387 . S
N180 Co171 2.022 . S
N180 C177 1.351 . S
N180 N181 1.365 . S
N181 C178 1.341 . S
N181 N180 1.365 . S
N181 H201 0.862 . S
C182 C177 1.501 1_565 S
C182 H183 0.961 . S
C182 H184 0.961 . S
C182 H185 0.960 . S
H183 C182 0.961 . S
H184 C182 0.961 . S
H185 C182 0.960 . S
C186 N187 1.342 . S
C186 C190 1.401 . S
C186 C191 1.499 . S
N187 Co170 1.989 . S
N187 C186 1.342 . S
N187 N188 1.388 . S
N188 Co171 1.993 . S
N188 N187 1.388 . S
N188 C189 1.346 . S
C189 N188 1.346 . S
C189 C190 1.396 . S
C189 C199 1.510 . S
C190 C186 1.401 . S
C190 C189 1.396 . S
C191 C186 1.499 . S
C191 H192 0.959 . S
C191 H193 0.960 . S
C191 H194 0.961 . S
H192 C191 0.959 . S
H193 C191 0.960 . S
H194 C191 0.961 . S
O195 Co170 1.967 . S
O195 C203 1.258 . S
O196 Co171 1.941 . S
O196 C203 1.266 . S
H197 C199 0.959 . S
H198 C199 0.961 . S
C199 C189 1.510 . S
C199 H197 0.959 . S
C199 H198 0.961 . S
C199 H200 0.960 . S
H200 C199 0.960 . S
H201 N181 0.862 . S
O202 Co170 1.920 . S
O202 C175 1.289 1_546 S
C203 O195 1.258 . S
C203 O196 1.266 . S
Co204 O207 1.970 . S
Co204 N221 1.989 . S
Co204 O229 1.967 . S
Co204 O236 1.920 . S
Co205 O208 1.966 . S
Co205 N214 2.022 . S
Co205 N222 1.993 . S
Co205 O230 1.941 . S
C206 O207 1.258 . S
C206 O208 1.263 . S
O207 Co204 1.970 . S
O207 C206 1.258 . S
O208 Co205 1.966 . S
O208 C206 1.263 . S
C209 O210 1.235 . S
C209 O236 1.289 . S
O210 C209 1.235 . S
C211 C213 1.400 . S
C211 N214 1.351 . S
C211 C216 1.501 . S
C212 C213 1.387 . S
C212 N215 1.341 . S
C213 C211 1.400 . S
C213 C212 1.387 . S
N214 Co205 2.022 . S
N214 C211 1.351 . S
N214 N215 1.365 . S
N215 C212 1.341 . S
N215 N214 1.365 . S
N215 H235 0.862 . S
C216 C211 1.501 . S
C216 H217 0.961 . S
C216 H218 0.961 . S
C216 H219 0.960 . S
H217 C216 0.961 . S
H218 C216 0.961 . S
H219 C216 0.960 . S
C220 N221 1.342 . S
C220 C224 1.401 . S
C220 C225 1.499 . S
N221 Co204 1.989 . S
N221 C220 1.342 . S
N221 N222 1.388 . S
N222 Co205 1.993 . S
N222 N221 1.388 . S
N222 C223 1.346 . S
C223 N222 1.346 . S
C223 C224 1.396 . S
C223 C233 1.510 . S
C224 C220 1.401 . S
C224 C223 1.396 . S
C225 C220 1.499 . S
C225 H226 0.959 . S
C225 H227 0.960 . S
C225 H228 0.961 . S
H226 C225 0.959 . S
H227 C225 0.960 . S
H228 C225 0.961 . S
O229 Co204 1.967 . S
O229 C237 1.258 . S
O230 Co205 1.941 . S
O230 C237 1.266 . S
H231 C233 0.959 . S
H232 C233 0.961 . S
C233 C223 1.510 . S
C233 H231 0.959 . S
C233 H232 0.961 . S
C233 H234 0.960 . S
H234 C233 0.960 . S
H235 N215 0.862 . S
O236 Co204 1.920 . S
O236 C209 1.289 . S
C237 O229 1.258 . S
C237 O230 1.266 . S
Co238 O241 1.970 . S
Co238 N255 1.989 . S
Co238 O263 1.967 . S
Co238 O270 1.920 . S
Co239 O242 1.966 . S
Co239 N248 2.022 . S
Co239 N256 1.993 . S
Co239 O264 1.941 . S
C240 O241 1.258 . S
C240 O242 1.263 . S
O241 Co238 1.970 . S
O241 C240 1.258 . S
O242 Co239 1.966 . S
O242 C240 1.263 . S
C243 O244 1.235 1_554 S
C243 O270 1.289 1_554 S
O244 C243 1.235 1_556 S
C245 C247 1.400 . S
C245 N248 1.351 . S
C245 C250 1.501 . S
C246 C247 1.387 . S
C246 N249 1.341 . S
C247 C245 1.400 . S
C247 C246 1.387 . S
N248 Co239 2.022 . S
N248 C245 1.351 . S
N248 N249 1.365 . S
N249 C246 1.341 . S
N249 N248 1.365 . S
N249 H269 0.862 . S
C250 C245 1.501 . S
C250 H251 0.961 . S
C250 H252 0.961 . S
C250 H253 0.960 . S
H251 C250 0.961 . S
H252 C250 0.961 . S
H253 C250 0.960 . S
C254 N255 1.342 . S
C254 C258 1.401 . S
C254 C259 1.499 . S
N255 Co238 1.989 . S
N255 C254 1.342 . S
N255 N256 1.388 . S
N256 Co239 1.993 . S
N256 N255 1.388 . S
N256 C257 1.346 . S
C257 N256 1.346 . S
C257 C258 1.396 . S
C257 C267 1.510 . S
C258 C254 1.401 . S
C258 C257 1.396 . S
C259 C254 1.499 . S
C259 H260 0.959 . S
C259 H261 0.960 . S
C259 H262 0.961 . S
H260 C259 0.959 . S
H261 C259 0.960 . S
H262 C259 0.961 . S
O263 Co238 1.967 . S
O263 C271 1.258 . S
O264 Co239 1.941 . S
O264 C271 1.266 . S
H265 C267 0.959 . S
H266 C267 0.961 . S
C267 C257 1.510 . S
C267 H265 0.959 . S
C267 H266 0.961 . S
C267 H268 0.960 . S
H268 C267 0.960 . S
H269 N249 0.862 . S
O270 Co238 1.920 . S
O270 C243 1.289 1_556 S
C271 O263 1.258 . S
C271 O264 1.266 . S
Co272 O275 1.970 1_655 S
Co272 N289 1.989 . S
Co272 O297 1.967 . S
Co272 O304 1.920 . S
Co273 O276 1.966 1_655 S
Co273 N282 2.022 . S
Co273 N290 1.993 . S
Co273 O298 1.941 . S
C274 O275 1.258 . S
C274 O276 1.263 . S
O275 Co272 1.970 1_455 S
O275 C274 1.258 . S
O276 Co273 1.966 1_455 S
O276 C274 1.263 . S
C277 O278 1.235 1_554 S
C277 O304 1.289 1_454 S
O278 C277 1.235 1_556 S
C279 C281 1.400 . S
C279 N282 1.351 . S
C279 C284 1.501 1_655 S
C280 C281 1.387 . S
C280 N283 1.341 . S
C281 C279 1.400 . S
C281 C280 1.387 . S
N282 Co273 2.022 . S
N282 C279 1.351 . S
N282 N283 1.365 . S
N283 C280 1.341 . S
N283 N282 1.365 . S
N283 H303 0.862 . S
C284 C279 1.501 1_455 S
C284 H285 0.961 . S
C284 H286 0.961 . S
C284 H287 0.960 . S
H285 C284 0.961 . S
H286 C284 0.961 . S
H287 C284 0.960 . S
C288 N289 1.342 . S
C288 C292 1.401 . S
C288 C293 1.499 . S
N289 Co272 1.989 . S
N289 C288 1.342 . S
N289 N290 1.388 . S
N290 Co273 1.993 . S
N290 N289 1.388 . S
N290 C291 1.346 . S
C291 N290 1.346 . S
C291 C292 1.396 . S
C291 C301 1.510 . S
C292 C288 1.401 . S
C292 C291 1.396 . S
C293 C288 1.499 . S
C293 H294 0.959 . S
C293 H295 0.960 . S
C293 H296 0.961 . S
H294 C293 0.959 . S
H295 C293 0.960 . S
H296 C293 0.961 . S
O297 Co272 1.967 . S
O297 C305 1.258 . S
O298 Co273 1.941 . S
O298 C305 1.266 . S
H299 C301 0.959 . S
H300 C301 0.961 . S
C301 C291 1.510 . S
C301 H299 0.959 . S
C301 H300 0.961 . S
C301 H302 0.960 . S
H302 C301 0.960 . S
H303 N283 0.862 . S
O304 Co272 1.920 . S
O304 C277 1.289 1_656 S
C305 O297 1.258 . S
C305 O298 1.266 . S
Co306 O309 1.970 1_565 S
Co306 N323 1.989 . S
Co306 O331 1.967 . S
Co306 O338 1.920 . S
Co307 O310 1.966 1_565 S
Co307 N316 2.022 . S
Co307 N324 1.993 . S
Co307 O332 1.941 . S
C308 O309 1.258 . S
C308 O310 1.263 . S
O309 Co306 1.970 1_545 S
O309 C308 1.258 . S
O310 Co307 1.966 1_545 S
O310 C308 1.263 . S
C311 O312 1.235 . S
C311 O338 1.289 1_545 S
O312 C311 1.235 . S
C313 C315 1.400 . S
C313 N316 1.351 . S
C313 C318 1.501 1_565 S
C314 C315 1.387 . S
C314 N317 1.341 . S
C315 C313 1.400 . S
C315 C314 1.387 . S
N316 Co307 2.022 . S
N316 C313 1.351 . S
N316 N317 1.365 . S
N317 C314 1.341 . S
N317 N316 1.365 . S
N317 H337 0.862 . S
C318 C313 1.501 1_545 S
C318 H319 0.961 . S
C318 H320 0.961 . S
C318 H321 0.960 . S
H319 C318 0.961 . S
H320 C318 0.961 . S
H321 C318 0.960 . S
C322 N323 1.342 . S
C322 C326 1.401 . S
C322 C327 1.499 . S
N323 Co306 1.989 . S
N323 C322 1.342 . S
N323 N324 1.388 . S
N324 Co307 1.993 . S
N324 N323 1.388 . S
N324 C325 1.346 . S
C325 N324 1.346 . S
C325 C326 1.396 . S
C325 C335 1.510 . S
C326 C322 1.401 . S
C326 C325 1.396 . S
C327 C322 1.499 . S
C327 H328 0.959 . S
C327 H329 0.960 . S
C327 H330 0.961 . S
H328 C327 0.959 . S
H329 C327 0.960 . S
H330 C327 0.961 . S
O331 Co306 1.967 . S
O331 C339 1.258 . S
O332 Co307 1.941 . S
O332 C339 1.266 . S
H333 C335 0.959 . S
H334 C335 0.961 . S
C335 C325 1.510 . S
C335 H333 0.959 . S
C335 H334 0.961 . S
C335 H336 0.960 . S
H336 C335 0.960 . S
H337 N317 0.862 . S
O338 Co306 1.920 . S
O338 C311 1.289 1_565 S
C339 O331 1.258 . S
C339 O332 1.266 . S
Co340 O343 1.970 . S
Co340 N357 1.989 . S
Co340 O365 1.967 . S
Co340 O372 1.920 . S
Co341 O344 1.966 . S
Co341 N350 2.022 . S
Co341 N358 1.993 . S
Co341 O366 1.941 . S
C342 O343 1.258 . S
C342 O344 1.263 . S
O343 Co340 1.970 . S
O343 C342 1.258 . S
O344 Co341 1.966 . S
O344 C342 1.263 . S
C345 O346 1.235 1_554 S
C345 O372 1.289 1_554 S
O346 C345 1.235 1_556 S
C347 C349 1.400 . S
C347 N350 1.351 . S
C347 C352 1.501 . S
C348 C349 1.387 . S
C348 N351 1.341 . S
C349 C347 1.400 . S
C349 C348 1.387 . S
N350 Co341 2.022 . S
N350 C347 1.351 . S
N350 N351 1.365 . S
N351 C348 1.341 . S
N351 N350 1.365 . S
N351 H371 0.862 . S
C352 C347 1.501 . S
C352 H353 0.961 . S
C352 H354 0.961 . S
C352 H355 0.960 . S
H353 C352 0.961 . S
H354 C352 0.961 . S
H355 C352 0.960 . S
C356 N357 1.342 . S
C356 C360 1.401 . S
C356 C361 1.499 . S
N357 Co340 1.989 . S
N357 C356 1.342 . S
N357 N358 1.388 . S
N358 Co341 1.993 . S
N358 N357 1.388 . S
N358 C359 1.346 . S
C359 N358 1.346 . S
C359 C360 1.396 . S
C359 C369 1.510 . S
C360 C356 1.401 . S
C360 C359 1.396 . S
C361 C356 1.499 . S
C361 H362 0.959 . S
C361 H363 0.960 . S
C361 H364 0.961 . S
H362 C361 0.959 . S
H363 C361 0.960 . S
H364 C361 0.961 . S
O365 Co340 1.967 . S
O365 C373 1.258 . S
O366 Co341 1.941 . S
O366 C373 1.266 . S
H367 C369 0.959 . S
H368 C369 0.961 . S
C369 C359 1.510 . S
C369 H367 0.959 . S
C369 H368 0.961 . S
C369 H370 0.960 . S
H370 C369 0.960 . S
H371 N351 0.862 . S
O372 Co340 1.920 . S
O372 C345 1.289 1_556 S
C373 O365 1.258 . S
C373 O366 1.266 . S
Co374 O377 1.970 . S
Co374 N391 1.989 . S
Co374 O399 1.967 . S
Co374 O406 1.920 . S
Co375 O378 1.966 . S
Co375 N384 2.022 . S
Co375 N392 1.993 . S
Co375 O400 1.941 . S
C376 O377 1.258 . S
C376 O378 1.263 . S
O377 Co374 1.970 . S
O377 C376 1.258 . S
O378 Co375 1.966 . S
O378 C376 1.263 . S
C379 O380 1.235 . S
C379 O406 1.289 . S
O380 C379 1.235 . S
C381 C383 1.400 . S
C381 N384 1.351 . S
C381 C386 1.501 . S
C382 C383 1.387 . S
C382 N385 1.341 . S
C383 C381 1.400 . S
C383 C382 1.387 . S
N384 Co375 2.022 . S
N384 C381 1.351 . S
N384 N385 1.365 . S
N385 C382 1.341 . S
N385 N384 1.365 . S
N385 H405 0.862 . S
C386 C381 1.501 . S
C386 H387 0.961 . S
C386 H388 0.961 . S
C386 H389 0.960 . S
H387 C386 0.961 . S
H388 C386 0.961 . S
H389 C386 0.960 . S
C390 N391 1.342 . S
C390 C394 1.401 . S
C390 C395 1.499 . S
N391 Co374 1.989 . S
N391 C390 1.342 . S
N391 N392 1.388 . S
N392 Co375 1.993 . S
N392 N391 1.388 . S
N392 C393 1.346 . S
C393 N392 1.346 . S
C393 C394 1.396 . S
C393 C403 1.510 . S
C394 C390 1.401 . S
C394 C393 1.396 . S
C395 C390 1.499 . S
C395 H396 0.959 . S
C395 H397 0.960 . S
C395 H398 0.961 . S
H396 C395 0.959 . S
H397 C395 0.960 . S
H398 C395 0.961 . S
O399 Co374 1.967 . S
O399 C407 1.258 . S
O400 Co375 1.941 . S
O400 C407 1.266 . S
H401 C403 0.959 . S
H402 C403 0.961 . S
C403 C393 1.510 . S
C403 H401 0.959 . S
C403 H402 0.961 . S
C403 H404 0.960 . S
H404 C403 0.960 . S
H405 N385 0.862 . S
O406 Co374 1.920 . S
O406 C379 1.289 . S
C407 O399 1.258 . S
C407 O400 1.266 . S
Co408 O411 1.970 1_655 S
Co408 N425 1.989 . S
Co408 O433 1.967 . S
Co408 O440 1.920 . S
Co409 O412 1.966 1_655 S
Co409 N418 2.022 . S
Co409 N426 1.993 . S
Co409 O434 1.941 . S
C410 O411 1.258 . S
C410 O412 1.263 . S
O411 Co408 1.970 1_455 S
O411 C410 1.258 . S
O412 Co409 1.966 1_455 S
O412 C410 1.263 . S
C413 O414 1.235 . S
C413 O440 1.289 1_455 S
O414 C413 1.235 . S
C415 C417 1.400 . S
C415 N418 1.351 . S
C415 C420 1.501 1_655 S
C416 C417 1.387 . S
C416 N419 1.341 . S
C417 C415 1.400 . S
C417 C416 1.387 . S
N418 Co409 2.022 . S
N418 C415 1.351 . S
N418 N419 1.365 . S
N419 C416 1.341 . S
N419 N418 1.365 . S
N419 H439 0.862 . S
C420 C415 1.501 1_455 S
C420 H421 0.961 . S
C420 H422 0.961 . S
C420 H423 0.960 . S
H421 C420 0.961 . S
H422 C420 0.961 . S
H423 C420 0.960 . S
C424 N425 1.342 . S
C424 C428 1.401 . S
C424 C429 1.499 . S
N425 Co408 1.989 . S
N425 C424 1.342 . S
N425 N426 1.388 . S
N426 Co409 1.993 . S
N426 N425 1.388 . S
N426 C427 1.346 . S
C427 N426 1.346 . S
C427 C428 1.396 . S
C427 C437 1.510 . S
C428 C424 1.401 . S
C428 C427 1.396 . S
C429 C424 1.499 . S
C429 H430 0.959 . S
C429 H431 0.960 . S
C429 H432 0.961 . S
H430 C429 0.959 . S
H431 C429 0.960 . S
H432 C429 0.961 . S
O433 Co408 1.967 . S
O433 C441 1.258 . S
O434 Co409 1.941 . S
O434 C441 1.266 . S
H435 C437 0.959 . S
H436 C437 0.961 . S
C437 C427 1.510 . S
C437 H435 0.959 . S
C437 H436 0.961 . S
C437 H438 0.960 . S
H438 C437 0.960 . S
H439 N419 0.862 . S
O440 Co408 1.920 . S
O440 C413 1.289 1_655 S
C441 O433 1.258 . S
C441 O434 1.266 . S
Co442 O445 1.970 1_565 S
Co442 N459 1.989 . S
Co442 O467 1.967 . S
Co442 O474 1.920 . S
Co443 O446 1.966 1_565 S
Co443 N452 2.022 . S
Co443 N460 1.993 . S
Co443 O468 1.941 . S
C444 O445 1.258 . S
C444 O446 1.263 . S
O445 Co442 1.970 1_545 S
O445 C444 1.258 . S
O446 Co443 1.966 1_545 S
O446 C444 1.263 . S
C447 O448 1.235 1_556 S
C447 O474 1.289 1_546 S
O448 C447 1.235 1_554 S
C449 C451 1.400 . S
C449 N452 1.351 . S
C449 C454 1.501 1_565 S
C450 C451 1.387 . S
C450 N453 1.341 . S
C451 C449 1.400 . S
C451 C450 1.387 . S
N452 Co443 2.022 . S
N452 C449 1.351 . S
N452 N453 1.365 . S
N453 C450 1.341 . S
N453 N452 1.365 . S
N453 H473 0.862 . S
C454 C449 1.501 1_545 S
C454 H455 0.961 . S
C454 H456 0.961 . S
C454 H457 0.960 . S
H455 C454 0.961 . S
H456 C454 0.961 . S
H457 C454 0.960 . S
C458 N459 1.342 . S
C458 C462 1.401 . S
C458 C463 1.499 . S
N459 Co442 1.989 . S
N459 C458 1.342 . S
N459 N460 1.388 . S
N460 Co443 1.993 . S
N460 N459 1.388 . S
N460 C461 1.346 . S
C461 N460 1.346 . S
C461 C462 1.396 . S
C461 C471 1.510 . S
C462 C458 1.401 . S
C462 C461 1.396 . S
C463 C458 1.499 . S
C463 H464 0.959 . S
C463 H465 0.960 . S
C463 H466 0.961 . S
H464 C463 0.959 . S
H465 C463 0.960 . S
H466 C463 0.961 . S
O467 Co442 1.967 . S
O467 C475 1.258 . S
O468 Co443 1.941 . S
O468 C475 1.266 . S
H469 C471 0.959 . S
H470 C471 0.961 . S
C471 C461 1.510 . S
C471 H469 0.959 . S
C471 H470 0.961 . S
C471 H472 0.960 . S
H472 C471 0.960 . S
H473 N453 0.862 . S
O474 Co442 1.920 . S
O474 C447 1.289 1_564 S
C475 O467 1.258 . S
C475 O468 1.266 . S
Co476 O479 1.970 . S
Co476 N493 1.989 . S
Co476 O501 1.967 . S
Co476 O508 1.920 . S
Co477 O480 1.966 . S
Co477 N486 2.022 . S
Co477 N494 1.993 . S
Co477 O502 1.941 . S
C478 O479 1.258 . S
C478 O480 1.263 . S
O479 Co476 1.970 . S
O479 C478 1.258 . S
O480 Co477 1.966 . S
O480 C478 1.263 . S
C481 O482 1.235 . S
C481 O508 1.289 . S
O482 C481 1.235 . S
C483 C485 1.400 . S
C483 N486 1.351 . S
C483 C488 1.501 . S
C484 C485 1.387 . S
C484 N487 1.341 . S
C485 C483 1.400 . S
C485 C484 1.387 . S
N486 Co477 2.022 . S
N486 C483 1.351 . S
N486 N487 1.365 . S
N487 C484 1.341 . S
N487 N486 1.365 . S
N487 H507 0.862 . S
C488 C483 1.501 . S
C488 H489 0.961 . S
C488 H490 0.961 . S
C488 H491 0.960 . S
H489 C488 0.961 . S
H490 C488 0.961 . S
H491 C488 0.960 . S
C492 N493 1.342 . S
C492 C496 1.401 . S
C492 C497 1.499 . S
N493 Co476 1.989 . S
N493 C492 1.342 . S
N493 N494 1.388 . S
N494 Co477 1.993 . S
N494 N493 1.388 . S
N494 C495 1.346 . S
C495 N494 1.346 . S
C495 C496 1.396 . S
C495 C505 1.510 . S
C496 C492 1.401 . S
C496 C495 1.396 . S
C497 C492 1.499 . S
C497 H498 0.959 . S
C497 H499 0.960 . S
C497 H500 0.961 . S
H498 C497 0.959 . S
H499 C497 0.960 . S
H500 C497 0.961 . S
O501 Co476 1.967 . S
O501 C509 1.258 . S
O502 Co477 1.941 . S
O502 C509 1.266 . S
H503 C505 0.959 . S
H504 C505 0.961 . S
C505 C495 1.510 . S
C505 H503 0.959 . S
C505 H504 0.961 . S
C505 H506 0.960 . S
H506 C505 0.960 . S
H507 N487 0.862 . S
O508 Co476 1.920 . S
O508 C481 1.289 . S
C509 O501 1.258 . S
C509 O502 1.266 . S
Co510 O513 1.970 . S
Co510 N527 1.989 . S
Co510 O535 1.967 . S
Co510 O542 1.920 . S
Co511 O514 1.966 . S
Co511 N520 2.022 . S
Co511 N528 1.993 . S
Co511 O536 1.941 . S
C512 O513 1.258 . S
C512 O514 1.263 . S
O513 Co510 1.970 . S
O513 C512 1.258 . S
O514 Co511 1.966 . S
O514 C512 1.263 . S
C515 O516 1.235 1_556 S
C515 O542 1.289 1_556 S
O516 C515 1.235 1_554 S
C517 C519 1.400 . S
C517 N520 1.351 . S
C517 C522 1.501 . S
C518 C519 1.387 . S
C518 N521 1.341 . S
C519 C517 1.400 . S
C519 C518 1.387 . S
N520 Co511 2.022 . S
N520 C517 1.351 . S
N520 N521 1.365 . S
N521 C518 1.341 . S
N521 N520 1.365 . S
N521 H541 0.862 . S
C522 C517 1.501 . S
C522 H523 0.961 . S
C522 H524 0.961 . S
C522 H525 0.960 . S
H523 C522 0.961 . S
H524 C522 0.961 . S
H525 C522 0.960 . S
C526 N527 1.342 . S
C526 C530 1.401 . S
C526 C531 1.499 . S
N527 Co510 1.989 . S
N527 C526 1.342 . S
N527 N528 1.388 . S
N528 Co511 1.993 . S
N528 N527 1.388 . S
N528 C529 1.346 . S
C529 N528 1.346 . S
C529 C530 1.396 . S
C529 C539 1.510 . S
C530 C526 1.401 . S
C530 C529 1.396 . S
C531 C526 1.499 . S
C531 H532 0.959 . S
C531 H533 0.960 . S
C531 H534 0.961 . S
H532 C531 0.959 . S
H533 C531 0.960 . S
H534 C531 0.961 . S
O535 Co510 1.967 . S
O535 C543 1.258 . S
O536 Co511 1.941 . S
O536 C543 1.266 . S
H537 C539 0.959 . S
H538 C539 0.961 . S
C539 C529 1.510 . S
C539 H537 0.959 . S
C539 H538 0.961 . S
C539 H540 0.960 . S
H540 C539 0.960 . S
H541 N521 0.862 . S
O542 Co510 1.920 . S
O542 C515 1.289 1_554 S
C543 O535 1.258 . S
C543 O536 1.266 . S
H544 C552 0.929 . S
H545 C554 0.930 . S
H546 C556 0.930 . S
H547 C559 0.929 . S
H548 C562 0.930 . S
H549 C564 0.960 . S
H550 C564 0.960 . S
H551 C564 0.960 . S
C552 H544 0.929 . S
C552 C553 1.377 . S
C552 C554 1.384 . S
C553 C552 1.377 . S
C553 C559 1.390 . S
C554 H545 0.930 . S
C554 C552 1.384 . S
C554 C555 1.372 . S
C555 C554 1.372 . S
C555 C556 1.400 . S
C555 C560 1.490 . S
C556 H546 0.930 . S
C556 C555 1.400 . S
C556 C559 1.386 . S
H557 C573 0.930 . S
H558 C574 0.931 . S
C559 H547 0.929 . S
C559 C553 1.390 . S
C559 C556 1.386 . S
C560 C555 1.490 . S
C560 C562 1.395 . S
C560 C563 1.403 . S
H561 C567 0.930 . S
C562 H548 0.930 . S
C562 C560 1.395 . S
C562 C565 1.403 . S
C563 C560 1.403 . S
C563 C564 1.524 . S
C563 C567 1.400 . S
C564 H549 0.960 . S
C564 H550 0.960 . S
C564 H551 0.960 . S
C564 C563 1.524 . S
C565 C562 1.403 . S
C565 C566 1.392 . S
C565 C569 1.495 . S
C566 C565 1.392 . S
C566 C567 1.385 . S
C566 C568 1.478 . S
C567 H561 0.930 . S
C567 C563 1.400 . S
C567 C566 1.385 . S
C568 C566 1.478 . S
C568 C570 1.381 . S
C568 C574 1.383 . S
C569 C565 1.495 . S
C569 H575 0.959 . S
C569 H576 0.961 . S
C569 H577 0.960 . S
C570 C568 1.381 . S
C570 C571 1.394 . S
C570 H578 0.930 . S
C571 C570 1.394 . S
C571 C572 1.383 . S
C571 H579 0.929 . S
C572 C571 1.383 . S
C572 C573 1.377 . S
C573 H557 0.930 . S
C573 C572 1.377 . S
C573 C574 1.379 . S
C574 H558 0.931 . S
C574 C568 1.383 . S
C574 C573 1.379 . S
H575 C569 0.959 . S
H576 C569 0.961 . S
H577 C569 0.960 . S
H578 C570 0.930 . S
H579 C571 0.929 . S
H580 C588 0.929 . S
H581 C590 0.930 . S
H582 C592 0.930 . S
H583 C595 0.929 . S
H584 C598 0.930 . S
H585 C600 0.960 . S
H586 C600 0.960 . S
H587 C600 0.960 . S
C588 H580 0.929 . S
C588 C589 1.377 . S
C588 C590 1.384 . S
C589 C588 1.377 . S
C589 C595 1.390 . S
C590 H581 0.930 . S
C590 C588 1.384 . S
C590 C591 1.372 . S
C591 C590 1.372 . S
C591 C592 1.400 . S
C591 C596 1.490 . S
C592 H582 0.930 . S
C592 C591 1.400 . S
C592 C595 1.386 . S
H593 C609 0.930 . S
H594 C610 0.931 . S
C595 H583 0.929 . S
C595 C589 1.390 . S
C595 C592 1.386 . S
C596 C591 1.490 . S
C596 C598 1.395 . S
C596 C599 1.403 . S
H597 C603 0.930 . S
C598 H584 0.930 . S
C598 C596 1.395 . S
C598 C601 1.403 . S
C599 C596 1.403 . S
C599 C600 1.524 . S
C599 C603 1.400 . S
C600 H585 0.960 . S
C600 H586 0.960 . S
C600 H587 0.960 . S
C600 C599 1.524 . S
C601 C598 1.403 . S
C601 C602 1.392 . S
C601 C605 1.495 . S
C602 C601 1.392 . S
C602 C603 1.385 . S
C602 C604 1.478 . S
C603 H597 0.930 . S
C603 C599 1.400 . S
C603 C602 1.385 . S
C604 C602 1.478 . S
C604 C606 1.381 . S
C604 C610 1.383 . S
C605 C601 1.495 . S
C605 H611 0.959 . S
C605 H612 0.961 . S
C605 H613 0.960 . S
C606 C604 1.381 . S
C606 C607 1.394 . S
C606 H614 0.930 . S
C607 C606 1.394 . S
C607 C608 1.383 . S
C607 H615 0.929 . S
C608 C607 1.383 . S
C608 C609 1.377 . S
C609 H593 0.930 . S
C609 C608 1.377 . S
C609 C610 1.379 . S
C610 H594 0.931 . S
C610 C604 1.383 . S
C610 C609 1.379 . S
H611 C605 0.959 . S
H612 C605 0.961 . S
H613 C605 0.960 . S
H614 C606 0.930 . S
H615 C607 0.929 . S
H616 C624 0.929 . S
H617 C626 0.930 . S
H618 C628 0.930 . S
H619 C631 0.929 . S
H620 C634 0.930 . S
H621 C636 0.960 . S
H622 C636 0.960 . S
H623 C636 0.960 . S
C624 H616 0.929 . S
C624 C625 1.377 . S
C624 C626 1.384 . S
C625 C624 1.377 . S
C625 C631 1.390 . S
C626 H617 0.930 . S
C626 C624 1.384 . S
C626 C627 1.372 . S
C627 C626 1.372 . S
C627 C628 1.400 . S
C627 C632 1.490 . S
C628 H618 0.930 . S
C628 C627 1.400 . S
C628 C631 1.386 . S
H629 C645 0.930 . S
H630 C646 0.931 . S
C631 H619 0.929 . S
C631 C625 1.390 . S
C631 C628 1.386 . S
C632 C627 1.490 . S
C632 C634 1.395 . S
C632 C635 1.403 . S
H633 C639 0.930 . S
C634 H620 0.930 . S
C634 C632 1.395 . S
C634 C637 1.403 . S
C635 C632 1.403 . S
C635 C636 1.524 . S
C635 C639 1.400 . S
C636 H621 0.960 . S
C636 H622 0.960 . S
C636 H623 0.960 . S
C636 C635 1.524 . S
C637 C634 1.403 . S
C637 C638 1.392 . S
C637 C641 1.495 . S
C638 C637 1.392 . S
C638 C639 1.385 . S
C638 C640 1.478 . S
C639 H633 0.930 . S
C639 C635 1.400 . S
C639 C638 1.385 . S
C640 C638 1.478 . S
C640 C642 1.381 . S
C640 C646 1.383 . S
C641 C637 1.495 . S
C641 H647 0.959 . S
C641 H648 0.961 . S
C641 H649 0.960 . S
C642 C640 1.381 . S
C642 C643 1.394 . S
C642 H650 0.930 . S
C643 C642 1.394 . S
C643 C644 1.383 . S
C643 H651 0.929 . S
C644 C643 1.383 . S
C644 C645 1.377 . S
C645 H629 0.930 . S
C645 C644 1.377 . S
C645 C646 1.379 . S
C646 H630 0.931 . S
C646 C640 1.383 . S
C646 C645 1.379 . S
H647 C641 0.959 . S
H648 C641 0.961 . S
H649 C641 0.960 . S
H650 C642 0.930 . S
H651 C643 0.929 . S
H652 C660 0.929 . S
H653 C662 0.930 . S
H654 C664 0.930 . S
H655 C667 0.929 . S
H656 C670 0.930 . S
H657 C672 0.960 . S
H658 C672 0.960 . S
H659 C672 0.960 . S
C660 H652 0.929 . S
C660 C661 1.377 . S
C660 C662 1.384 . S
C661 C660 1.377 . S
C661 C667 1.390 . S
C662 H653 0.930 . S
C662 C660 1.384 . S
C662 C663 1.372 . S
C663 C662 1.372 . S
C663 C664 1.400 . S
C663 C668 1.490 . S
C664 H654 0.930 . S
C664 C663 1.400 . S
C664 C667 1.386 . S
H665 C681 0.930 . S
H666 C682 0.931 . S
C667 H655 0.929 . S
C667 C661 1.390 . S
C667 C664 1.386 . S
C668 C663 1.490 . S
C668 C670 1.395 . S
C668 C671 1.403 . S
H669 C675 0.930 . S
C670 H656 0.930 . S
C670 C668 1.395 . S
C670 C673 1.403 . S
C671 C668 1.403 . S
C671 C672 1.524 . S
C671 C675 1.400 . S
C672 H657 0.960 . S
C672 H658 0.960 . S
C672 H659 0.960 . S
C672 C671 1.524 . S
C673 C670 1.403 . S
C673 C674 1.392 . S
C673 C677 1.495 . S
C674 C673 1.392 . S
C674 C675 1.385 . S
C674 C676 1.478 . S
C675 H669 0.930 . S
C675 C671 1.400 . S
C675 C674 1.385 . S
C676 C674 1.478 . S
C676 C678 1.381 . S
C676 C682 1.383 . S
C677 C673 1.495 . S
C677 H683 0.959 . S
C677 H684 0.961 . S
C677 H685 0.960 . S
C678 C676 1.381 . S
C678 C679 1.394 . S
C678 H686 0.930 . S
C679 C678 1.394 . S
C679 C680 1.383 . S
C679 H687 0.929 . S
C680 C679 1.383 . S
C680 C681 1.377 . S
C681 H665 0.930 . S
C681 C680 1.377 . S
C681 C682 1.379 . S
C682 H666 0.931 . S
C682 C676 1.383 . S
C682 C681 1.379 . S
H683 C677 0.959 . S
H684 C677 0.961 . S
H685 C677 0.960 . S
H686 C678 0.930 . S
H687 C679 0.929 . S
H688 C696 0.929 . S
H689 C698 0.930 . S
H690 C700 0.930 . S
H691 C703 0.929 . S
H692 C706 0.930 . S
H693 C708 0.960 . S
H694 C708 0.960 . S
H695 C708 0.960 . S
C696 H688 0.929 . S
C696 C697 1.377 . S
C696 C698 1.384 . S
C697 C696 1.377 . S
C697 C703 1.390 . S
C698 H689 0.930 . S
C698 C696 1.384 . S
C698 C699 1.372 . S
C699 C698 1.372 . S
C699 C700 1.400 . S
C699 C704 1.490 . S
C700 H690 0.930 . S
C700 C699 1.400 . S
C700 C703 1.386 . S
H701 C717 0.930 . S
H702 C718 0.931 . S
C703 H691 0.929 . S
C703 C697 1.390 . S
C703 C700 1.386 . S
C704 C699 1.490 . S
C704 C706 1.395 . S
C704 C707 1.403 . S
H705 C711 0.930 . S
C706 H692 0.930 . S
C706 C704 1.395 . S
C706 C709 1.403 . S
C707 C704 1.403 . S
C707 C708 1.524 . S
C707 C711 1.400 . S
C708 H693 0.960 . S
C708 H694 0.960 . S
C708 H695 0.960 . S
C708 C707 1.524 . S
C709 C706 1.403 . S
C709 C710 1.392 . S
C709 C713 1.495 . S
C710 C709 1.392 . S
C710 C711 1.385 . S
C710 C712 1.478 . S
C711 H705 0.930 . S
C711 C707 1.400 . S
C711 C710 1.385 . S
C712 C710 1.478 . S
C712 C714 1.381 . S
C712 C718 1.383 . S
C713 C709 1.495 . S
C713 H719 0.959 . S
C713 H720 0.961 . S
C713 H721 0.960 . S
C714 C712 1.381 . S
C714 C715 1.394 . S
C714 H722 0.930 . S
C715 C714 1.394 . S
C715 C716 1.383 . S
C715 H723 0.929 . S
C716 C715 1.383 . S
C716 C717 1.377 . S
C717 H701 0.930 . S
C717 C716 1.377 . S
C717 C718 1.379 . S
C718 H702 0.931 . S
C718 C712 1.383 . S
C718 C717 1.379 . S
H719 C713 0.959 . S
H720 C713 0.961 . S
H721 C713 0.960 . S
H722 C714 0.930 . S
H723 C715 0.929 . S
H724 C732 0.929 . S
H725 C734 0.930 . S
H726 C736 0.930 . S
H727 C739 0.929 . S
H728 C742 0.930 . S
H729 C744 0.960 . S
H730 C744 0.960 . S
H731 C744 0.960 . S
C732 H724 0.929 . S
C732 C733 1.377 . S
C732 C734 1.384 . S
C733 C732 1.377 . S
C733 C739 1.390 . S
C734 H725 0.930 . S
C734 C732 1.384 . S
C734 C735 1.372 . S
C735 C734 1.372 . S
C735 C736 1.400 . S
C735 C740 1.490 . S
C736 H726 0.930 . S
C736 C735 1.400 . S
C736 C739 1.386 . S
H737 C753 0.930 . S
H738 C754 0.931 . S
C739 H727 0.929 . S
C739 C733 1.390 . S
C739 C736 1.386 . S
C740 C735 1.490 . S
C740 C742 1.395 . S
C740 C743 1.403 . S
H741 C747 0.930 . S
C742 H728 0.930 . S
C742 C740 1.395 . S
C742 C745 1.403 . S
C743 C740 1.403 . S
C743 C744 1.524 . S
C743 C747 1.400 . S
C744 H729 0.960 . S
C744 H730 0.960 . S
C744 H731 0.960 . S
C744 C743 1.524 . S
C745 C742 1.403 . S
C745 C746 1.392 . S
C745 C749 1.495 . S
C746 C745 1.392 . S
C746 C747 1.385 . S
C746 C748 1.478 . S
C747 H741 0.930 . S
C747 C743 1.400 . S
C747 C746 1.385 . S
C748 C746 1.478 . S
C748 C750 1.381 . S
C748 C754 1.383 . S
C749 C745 1.495 . S
C749 H755 0.959 . S
C749 H756 0.961 . S
C749 H757 0.960 . S
C750 C748 1.381 . S
C750 C751 1.394 . S
C750 H758 0.930 . S
C751 C750 1.394 . S
C751 C752 1.383 . S
C751 H759 0.929 . S
C752 C751 1.383 . S
C752 C753 1.377 . S
C753 H737 0.930 . S
C753 C752 1.377 . S
C753 C754 1.379 . S
C754 H738 0.931 . S
C754 C748 1.383 . S
C754 C753 1.379 . S
H755 C749 0.959 . S
H756 C749 0.961 . S
H757 C749 0.960 . S
H758 C750 0.930 . S
H759 C751 0.929 . S
H760 C768 0.929 . S
H761 C770 0.930 . S
H762 C772 0.930 . S
H763 C775 0.929 . S
H764 C778 0.930 . S
H765 C780 0.960 . S
H766 C780 0.960 . S
H767 C780 0.960 . S
C768 H760 0.929 . S
C768 C769 1.377 . S
C768 C770 1.384 . S
C769 C768 1.377 . S
C769 C775 1.390 . S
C770 H761 0.930 . S
C770 C768 1.384 . S
C770 C771 1.372 . S
C771 C770 1.372 . S
C771 C772 1.400 . S
C771 C776 1.490 . S
C772 H762 0.930 . S
C772 C771 1.400 . S
C772 C775 1.386 . S
H773 C789 0.930 . S
H774 C790 0.931 . S
C775 H763 0.929 . S
C775 C769 1.390 . S
C775 C772 1.386 . S
C776 C771 1.490 . S
C776 C778 1.395 . S
C776 C779 1.403 . S
H777 C783 0.930 . S
C778 H764 0.930 . S
C778 C776 1.395 . S
C778 C781 1.403 . S
C779 C776 1.403 . S
C779 C780 1.524 . S
C779 C783 1.400 . S
C780 H765 0.960 . S
C780 H766 0.960 . S
C780 H767 0.960 . S
C780 C779 1.524 . S
C781 C778 1.403 . S
C781 C782 1.392 . S
C781 C785 1.495 . S
C782 C781 1.392 . S
C782 C783 1.385 . S
C782 C784 1.478 . S
C783 H777 0.930 . S
C783 C779 1.400 . S
C783 C782 1.385 . S
C784 C782 1.478 . S
C784 C786 1.381 . S
C784 C790 1.383 . S
C785 C781 1.495 . S
C785 H791 0.959 . S
C785 H792 0.961 . S
C785 H793 0.960 . S
C786 C784 1.381 . S
C786 C787 1.394 . S
C786 H794 0.930 . S
C787 C786 1.394 . S
C787 C788 1.383 . S
C787 H795 0.929 . S
C788 C787 1.383 . S
C788 C789 1.377 . S
C789 H773 0.930 . S
C789 C788 1.377 . S
C789 C790 1.379 . S
C790 H774 0.931 . S
C790 C784 1.383 . S
C790 C789 1.379 . S
H791 C785 0.959 . S
H792 C785 0.961 . S
H793 C785 0.960 . S
H794 C786 0.930 . S
H795 C787 0.929 . S
H796 C804 0.929 . S
H797 C806 0.930 . S
H798 C808 0.930 . S
H799 C811 0.929 . S
H800 C814 0.930 . S
H801 C816 0.960 . S
H802 C816 0.960 . S
H803 C816 0.960 . S
C804 H796 0.929 . S
C804 C805 1.377 . S
C804 C806 1.384 . S
C805 C804 1.377 . S
C805 C811 1.390 . S
C806 H797 0.930 . S
C806 C804 1.384 . S
C806 C807 1.372 . S
C807 C806 1.372 . S
C807 C808 1.400 . S
C807 C812 1.490 . S
C808 H798 0.930 . S
C808 C807 1.400 . S
C808 C811 1.386 . S
H809 C825 0.930 . S
H810 C826 0.931 . S
C811 H799 0.929 . S
C811 C805 1.390 . S
C811 C808 1.386 . S
C812 C807 1.490 . S
C812 C814 1.395 . S
C812 C815 1.403 . S
H813 C819 0.930 . S
C814 H800 0.930 . S
C814 C812 1.395 . S
C814 C817 1.403 . S
C815 C812 1.403 . S
C815 C816 1.524 . S
C815 C819 1.400 . S
C816 H801 0.960 . S
C816 H802 0.960 . S
C816 H803 0.960 . S
C816 C815 1.524 . S
C817 C814 1.403 . S
C817 C818 1.392 . S
C817 C821 1.495 . S
C818 C817 1.392 . S
C818 C819 1.385 . S
C818 C820 1.478 . S
C819 H813 0.930 . S
C819 C815 1.400 . S
C819 C818 1.385 . S
C820 C818 1.478 . S
C820 C822 1.381 . S
C820 C826 1.383 . S
C821 C817 1.495 . S
C821 H827 0.959 . S
C821 H828 0.961 . S
C821 H829 0.960 . S
C822 C820 1.381 . S
C822 C823 1.394 . S
C822 H830 0.930 . S
C823 C822 1.394 . S
C823 C824 1.383 . S
C823 H831 0.929 . S
C824 C823 1.383 . S
C824 C825 1.377 . S
C825 H809 0.930 . S
C825 C824 1.377 . S
C825 C826 1.379 . S
C826 H810 0.931 . S
C826 C820 1.383 . S
C826 C825 1.379 . S
H827 C821 0.959 . S
H828 C821 0.961 . S
H829 C821 0.960 . S
H830 C822 0.930 . S
H831 C823 0.929 . S
H832 C840 0.929 . S
H833 C842 0.930 . S
H834 C844 0.930 1_556 S
H835 C847 0.929 . S
H836 C850 0.930 . S
H837 C852 0.960 . S
H838 C852 0.960 1_554 S
H839 C852 0.960 . S
C840 H832 0.929 . S
C840 C841 1.377 . S
C840 C842 1.384 . S
C841 C840 1.377 . S
C841 C847 1.390 . S
C842 H833 0.930 . S
C842 C840 1.384 . S
C842 C843 1.372 . S
C843 C842 1.372 . S
C843 C844 1.400 . S
C843 C848 1.490 . S
C844 H834 0.930 1_554 S
C844 C843 1.400 . S
C844 C847 1.386 . S
H845 C861 0.930 . S
H846 C862 0.931 . S
C847 H835 0.929 . S
C847 C841 1.390 . S
C847 C844 1.386 . S
C848 C843 1.490 . S
C848 C850 1.395 . S
C848 C851 1.403 1_554 S
H849 C855 0.930 . S
C850 H836 0.930 . S
C850 C848 1.395 . S
C850 C853 1.403 . S
C851 C848 1.403 1_556 S
C851 C852 1.524 . S
C851 C855 1.400 . S
C852 H837 0.960 . S
C852 H838 0.960 1_556 S
C852 H839 0.960 . S
C852 C851 1.524 . S
C853 C850 1.403 . S
C853 C854 1.392 1_554 S
C853 C857 1.495 . S
C854 C853 1.392 1_556 S
C854 C855 1.385 . S
C854 C856 1.478 . S
C855 H849 0.930 . S
C855 C851 1.400 . S
C855 C854 1.385 . S
C856 C854 1.478 . S
C856 C858 1.381 . S
C856 C862 1.383 . S
C857 C853 1.495 . S
C857 H863 0.959 . S
C857 H864 0.961 . S
C857 H865 0.960 . S
C858 C856 1.381 . S
C858 C859 1.394 . S
C858 H866 0.930 1_556 S
C859 C858 1.394 . S
C859 C860 1.383 . S
C859 H867 0.929 . S
C860 C859 1.383 . S
C860 C861 1.377 . S
C861 H845 0.930 . S
C861 C860 1.377 . S
C861 C862 1.379 . S
C862 H846 0.931 . S
C862 C856 1.383 . S
C862 C861 1.379 . S
H863 C857 0.959 . S
H864 C857 0.961 . S
H865 C857 0.960 . S
H866 C858 0.930 1_554 S
H867 C859 0.929 . S
H868 C876 0.929 . S
H869 C878 0.930 . S
H870 C880 0.930 . S
H871 C883 0.929 . S
H872 C886 0.930 . S
H873 C888 0.960 . S
H874 C888 0.960 . S
H875 C888 0.960 . S
C876 H868 0.929 . S
C876 C877 1.377 . S
C876 C878 1.384 . S
C877 C876 1.377 . S
C877 C883 1.390 . S
C878 H869 0.930 . S
C878 C876 1.384 . S
C878 C879 1.372 . S
C879 C878 1.372 . S
C879 C880 1.400 . S
C879 C884 1.490 . S
C880 H870 0.930 . S
C880 C879 1.400 . S
C880 C883 1.386 . S
H881 C897 0.930 . S
H882 C898 0.931 . S
C883 H871 0.929 . S
C883 C877 1.390 . S
C883 C880 1.386 . S
C884 C879 1.490 . S
C884 C886 1.395 . S
C884 C887 1.403 . S
H885 C891 0.930 . S
C886 H872 0.930 . S
C886 C884 1.395 . S
C886 C889 1.403 . S
C887 C884 1.403 . S
C887 C888 1.524 . S
C887 C891 1.400 . S
C888 H873 0.960 . S
C888 H874 0.960 . S
C888 H875 0.960 . S
C888 C887 1.524 . S
C889 C886 1.403 . S
C889 C890 1.392 . S
C889 C893 1.495 . S
C890 C889 1.392 . S
C890 C891 1.385 . S
C890 C892 1.478 . S
C891 H885 0.930 . S
C891 C887 1.400 . S
C891 C890 1.385 . S
C892 C890 1.478 . S
C892 C894 1.381 . S
C892 C898 1.383 . S
C893 C889 1.495 . S
C893 H899 0.959 . S
C893 H900 0.961 . S
C893 H901 0.960 . S
C894 C892 1.381 . S
C894 C895 1.394 . S
C894 H902 0.930 . S
C895 C894 1.394 . S
C895 C896 1.383 . S
C895 H903 0.929 . S
C896 C895 1.383 . S
C896 C897 1.377 . S
C897 H881 0.930 . S
C897 C896 1.377 . S
C897 C898 1.379 . S
C898 H882 0.931 . S
C898 C892 1.383 . S
C898 C897 1.379 . S
H899 C893 0.959 . S
H900 C893 0.961 . S
H901 C893 0.960 . S
H902 C894 0.930 . S
H903 C895 0.929 . S
H904 C912 0.929 . S
H905 C914 0.930 . S
H906 C916 0.930 1_556 S
H907 C919 0.929 . S
H908 C922 0.930 . S
H909 C924 0.960 1_556 S
H910 C924 0.960 . S
H911 C924 0.960 1_556 S
C912 H904 0.929 . S
C912 C913 1.377 . S
C912 C914 1.384 . S
C913 C912 1.377 . S
C913 C919 1.390 . S
C914 H905 0.930 . S
C914 C912 1.384 . S
C914 C915 1.372 . S
C915 C914 1.372 . S
C915 C916 1.400 . S
C915 C920 1.490 . S
C916 H906 0.930 1_554 S
C916 C915 1.400 . S
C916 C919 1.386 . S
H917 C933 0.930 . S
H918 C934 0.931 . S
C919 H907 0.929 . S
C919 C913 1.390 . S
C919 C916 1.386 . S
C920 C915 1.490 . S
C920 C922 1.395 . S
C920 C923 1.403 . S
H921 C927 0.930 . S
C922 H908 0.930 . S
C922 C920 1.395 . S
C922 C925 1.403 . S
C923 C920 1.403 . S
C923 C924 1.524 . S
C923 C927 1.400 1_554 S
C924 H909 0.960 1_554 S
C924 H910 0.960 . S
C924 H911 0.960 1_554 S
C924 C923 1.524 . S
C925 C922 1.403 . S
C925 C926 1.392 1_554 S
C925 C929 1.495 . S
C926 C925 1.392 1_556 S
C926 C927 1.385 . S
C926 C928 1.478 . S
C927 H921 0.930 . S
C927 C923 1.400 1_556 S
C927 C926 1.385 . S
C928 C926 1.478 . S
C928 C930 1.381 . S
C928 C934 1.383 . S
C929 C925 1.495 . S
C929 H935 0.959 . S
C929 H936 0.961 1_554 S
C929 H937 0.960 . S
C930 C928 1.381 . S
C930 C931 1.394 . S
C930 H938 0.930 1_556 S
C931 C930 1.394 . S
C931 C932 1.383 . S
C931 H939 0.929 . S
C932 C931 1.383 . S
C932 C933 1.377 . S
C933 H917 0.930 . S
C933 C932 1.377 . S
C933 C934 1.379 . S
C934 H918 0.931 . S
C934 C928 1.383 . S
C934 C933 1.379 . S
H935 C929 0.959 . S
H936 C929 0.961 1_556 S
H937 C929 0.960 . S
H938 C930 0.930 1_554 S
H939 C931 0.929 . S
H940 C948 0.929 . S
H941 C950 0.930 . S
H942 C952 0.930 . S
H943 C955 0.929 . S
H944 C958 0.930 . S
H945 C960 0.960 . S
H946 C960 0.960 . S
H947 C960 0.960 . S
C948 H940 0.929 . S
C948 C949 1.377 . S
C948 C950 1.384 . S
C949 C948 1.377 . S
C949 C955 1.390 . S
C950 H941 0.930 . S
C950 C948 1.384 . S
C950 C951 1.372 . S
C951 C950 1.372 . S
C951 C952 1.400 . S
C951 C956 1.490 . S
C952 H942 0.930 . S
C952 C951 1.400 . S
C952 C955 1.386 . S
H953 C969 0.930 . S
H954 C970 0.931 . S
C955 H943 0.929 . S
C955 C949 1.390 . S
C955 C952 1.386 . S
C956 C951 1.490 . S
C956 C958 1.395 . S
C956 C959 1.403 . S
H957 C963 0.930 . S
C958 H944 0.930 . S
C958 C956 1.395 . S
C958 C961 1.403 . S
C959 C956 1.403 . S
C959 C960 1.524 . S
C959 C963 1.400 . S
C960 H945 0.960 . S
C960 H946 0.960 . S
C960 H947 0.960 . S
C960 C959 1.524 . S
C961 C958 1.403 . S
C961 C962 1.392 . S
C961 C965 1.495 . S
C962 C961 1.392 . S
C962 C963 1.385 . S
C962 C964 1.478 . S
C963 H957 0.930 . S
C963 C959 1.400 . S
C963 C962 1.385 . S
C964 C962 1.478 . S
C964 C966 1.381 . S
C964 C970 1.383 . S
C965 C961 1.495 . S
C965 H971 0.959 . S
C965 H972 0.961 . S
C965 H973 0.960 . S
C966 C964 1.381 . S
C966 C967 1.394 . S
C966 H974 0.930 . S
C967 C966 1.394 . S
C967 C968 1.383 . S
C967 H975 0.929 . S
C968 C967 1.383 . S
C968 C969 1.377 . S
C969 H953 0.930 . S
C969 C968 1.377 . S
C969 C970 1.379 . S
C970 H954 0.931 . S
C970 C964 1.383 . S
C970 C969 1.379 . S
H971 C965 0.959 . S
H972 C965 0.961 . S
H973 C965 0.960 . S
H974 C966 0.930 . S
H975 C967 0.929 . S
H976 C984 0.929 . S
H977 C986 0.930 . S
H978 C988 0.930 . S
H979 C991 0.929 . S
H980 C994 0.930 . S
H981 C996 0.960 . S
H982 C996 0.960 . S
H983 C996 0.960 1_554 S
C984 H976 0.929 . S
C984 C985 1.377 . S
C984 C986 1.384 . S
C985 C984 1.377 . S
C985 C991 1.390 . S
C986 H977 0.930 . S
C986 C984 1.384 . S
C986 C987 1.372 . S
C987 C986 1.372 . S
C987 C988 1.400 . S
C987 C992 1.490 . S
C988 H978 0.930 . S
C988 C987 1.400 . S
C988 C991 1.386 . S
H989 C1005 0.930 . S
H990 C1006 0.931 . S
C991 H979 0.929 . S
C991 C985 1.390 . S
C991 C988 1.386 . S
C992 C987 1.490 . S
C992 C994 1.395 . S
C992 C995 1.403 1_554 S
H993 C999 0.930 . S
C994 H980 0.930 . S
C994 C992 1.395 . S
C994 C997 1.403 . S
C995 C992 1.403 1_556 S
C995 C996 1.524 . S
C995 C999 1.400 . S
C996 H981 0.960 . S
C996 H982 0.960 . S
C996 H983 0.960 1_556 S
C996 C995 1.524 . S
C997 C994 1.403 . S
C997 C998 1.392 1_554 S
C997 C1001 1.495 . S
C998 C997 1.392 1_556 S
C998 C999 1.385 . S
C998 C1000 1.478 . S
C999 H993 0.930 . S
C999 C995 1.400 . S
C999 C998 1.385 . S
C1000 C998 1.478 . S
C1000 C1002 1.381 . S
C1000 C1006 1.383 . S
C1001 C997 1.495 . S
C1001 H1007 0.959 . S
C1001 H1008 0.961 . S
C1001 H1009 0.960 1_554 S
C1002 C1000 1.381 . S
C1002 C1003 1.394 . S
C1002 H1010 0.930 . S
C1003 C1002 1.394 . S
C1003 C1004 1.383 . S
C1003 H1011 0.929 . S
C1004 C1003 1.383 . S
C1004 C1005 1.377 . S
C1005 H989 0.930 . S
C1005 C1004 1.377 . S
C1005 C1006 1.379 . S
C1006 H990 0.931 . S
C1006 C1000 1.383 . S
C1006 C1005 1.379 . S
H1007 C1001 0.959 . S
H1008 C1001 0.961 . S
H1009 C1001 0.960 1_556 S
H1010 C1002 0.930 . S
H1011 C1003 0.929 . S
H1012 C1020 0.929 . S
H1013 C1022 0.930 . S
H1014 C1024 0.930 . S
H1015 C1027 0.929 . S
H1016 C1030 0.930 . S
H1017 C1032 0.960 . S
H1018 C1032 0.960 . S
H1019 C1032 0.960 . S
C1020 H1012 0.929 . S
C1020 C1021 1.377 . S
C1020 C1022 1.384 . S
C1021 C1020 1.377 . S
C1021 C1027 1.390 . S
C1022 H1013 0.930 . S
C1022 C1020 1.384 . S
C1022 C1023 1.372 . S
C1023 C1022 1.372 . S
C1023 C1024 1.400 . S
C1023 C1028 1.490 . S
C1024 H1014 0.930 . S
C1024 C1023 1.400 . S
C1024 C1027 1.386 . S
H1025 C1041 0.930 . S
H1026 C1042 0.931 . S
C1027 H1015 0.929 . S
C1027 C1021 1.390 . S
C1027 C1024 1.386 . S
C1028 C1023 1.490 . S
C1028 C1030 1.395 . S
C1028 C1031 1.403 . S
H1029 C1035 0.930 . S
C1030 H1016 0.930 . S
C1030 C1028 1.395 . S
C1030 C1033 1.403 . S
C1031 C1028 1.403 . S
C1031 C1032 1.524 . S
C1031 C1035 1.400 . S
C1032 H1017 0.960 . S
C1032 H1018 0.960 . S
C1032 H1019 0.960 . S
C1032 C1031 1.524 . S
C1033 C1030 1.403 . S
C1033 C1034 1.392 . S
C1033 C1037 1.495 . S
C1034 C1033 1.392 . S
C1034 C1035 1.385 . S
C1034 C1036 1.478 . S
C1035 H1029 0.930 . S
C1035 C1031 1.400 . S
C1035 C1034 1.385 . S
C1036 C1034 1.478 . S
C1036 C1038 1.381 . S
C1036 C1042 1.383 . S
C1037 C1033 1.495 . S
C1037 H1043 0.959 . S
C1037 H1044 0.961 . S
C1037 H1045 0.960 . S
C1038 C1036 1.381 . S
C1038 C1039 1.394 . S
C1038 H1046 0.930 . S
C1039 C1038 1.394 . S
C1039 C1040 1.383 . S
C1039 H1047 0.929 . S
C1040 C1039 1.383 . S
C1040 C1041 1.377 . S
C1041 H1025 0.930 . S
C1041 C1040 1.377 . S
C1041 C1042 1.379 . S
C1042 H1026 0.931 . S
C1042 C1036 1.383 . S
C1042 C1041 1.379 . S
H1043 C1037 0.959 . S
H1044 C1037 0.961 . S
H1045 C1037 0.960 . S
H1046 C1038 0.930 . S
H1047 C1039 0.929 . S
H1048 C1056 0.929 . S
H1049 C1058 0.930 . S
H1050 C1060 0.930 . S
H1051 C1063 0.929 . S
H1052 C1066 0.930 . S
H1053 C1068 0.960 . S
H1054 C1068 0.960 . S
H1055 C1068 0.960 1_554 S
C1056 H1048 0.929 . S
C1056 C1057 1.377 . S
C1056 C1058 1.384 . S
C1057 C1056 1.377 . S
C1057 C1063 1.390 . S
C1058 H1049 0.930 . S
C1058 C1056 1.384 . S
C1058 C1059 1.372 . S
C1059 C1058 1.372 . S
C1059 C1060 1.400 . S
C1059 C1064 1.490 . S
C1060 H1050 0.930 . S
C1060 C1059 1.400 . S
C1060 C1063 1.386 . S
H1061 C1077 0.930 . S
H1062 C1078 0.931 . S
C1063 H1051 0.929 . S
C1063 C1057 1.390 . S
C1063 C1060 1.386 . S
C1064 C1059 1.490 . S
C1064 C1066 1.395 . S
C1064 C1067 1.403 1_554 S
H1065 C1071 0.930 . S
C1066 H1052 0.930 . S
C1066 C1064 1.395 . S
C1066 C1069 1.400 1_554 S
C1067 C1064 1.403 1_556 S
C1067 C1068 1.524 . S
C1067 C1071 1.400 . S
C1068 H1053 0.960 . S
C1068 H1054 0.960 . S
C1068 H1055 0.960 1_556 S
C1068 C1067 1.524 . S
C1069 C1066 1.400 1_556 S
C1069 C1070 1.395 . S
C1069 C1073 1.495 1_556 S
C1070 C1069 1.395 . S
C1070 C1071 1.385 . S
C1070 C1072 1.478 . S
C1071 H1065 0.930 . S
C1071 C1067 1.400 . S
C1071 C1070 1.385 . S
C1072 C1070 1.478 . S
C1072 C1074 1.381 . S
C1072 C1078 1.383 . S
C1073 C1069 1.495 1_554 S
C1073 H1079 0.959 . S
C1073 H1080 0.961 . S
C1073 H1081 0.960 1_554 S
C1074 C1072 1.381 . S
C1074 C1075 1.394 . S
C1074 H1082 0.930 . S
C1075 C1074 1.394 . S
C1075 C1076 1.383 . S
C1075 H1083 0.929 . S
C1076 C1075 1.383 . S
C1076 C1077 1.377 . S
C1077 H1061 0.930 . S
C1077 C1076 1.377 . S
C1077 C1078 1.379 . S
C1078 H1062 0.931 . S
C1078 C1072 1.383 . S
C1078 C1077 1.379 . S
H1079 C1073 0.959 . S
H1080 C1073 0.961 . S
H1081 C1073 0.960 1_556 S
H1082 C1074 0.930 . S
H1083 C1075 0.929 . S
H1084 C1092 0.929 . S
H1085 C1094 0.930 . S
H1086 C1096 0.930 . S
H1087 C1099 0.929 . S
H1088 C1102 0.930 . S
H1089 C1104 0.960 . S
H1090 C1104 0.960 . S
H1091 C1104 0.960 . S
C1092 H1084 0.929 . S
C1092 C1093 1.377 . S
C1092 C1094 1.384 . S
C1093 C1092 1.377 . S
C1093 C1099 1.390 . S
C1094 H1085 0.930 . S
C1094 C1092 1.384 . S
C1094 C1095 1.372 . S
C1095 C1094 1.372 . S
C1095 C1096 1.400 . S
C1095 C1100 1.490 . S
C1096 H1086 0.930 . S
C1096 C1095 1.400 . S
C1096 C1099 1.386 . S
H1097 C1113 0.930 . S
H1098 C1114 0.931 . S
C1099 H1087 0.929 . S
C1099 C1093 1.390 . S
C1099 C1096 1.386 . S
C1100 C1095 1.490 . S
C1100 C1102 1.395 . S
C1100 C1103 1.403 . S
H1101 C1107 0.930 . S
C1102 H1088 0.930 . S
C1102 C1100 1.395 . S
C1102 C1105 1.403 . S
C1103 C1100 1.403 . S
C1103 C1104 1.524 . S
C1103 C1107 1.400 . S
C1104 H1089 0.960 . S
C1104 H1090 0.960 . S
C1104 H1091 0.960 . S
C1104 C1103 1.524 . S
C1105 C1102 1.403 . S
C1105 C1106 1.392 . S
C1105 C1109 1.495 . S
C1106 C1105 1.392 . S
C1106 C1107 1.385 . S
C1106 C1108 1.478 . S
C1107 H1101 0.930 . S
C1107 C1103 1.400 . S
C1107 C1106 1.385 . S
C1108 C1106 1.478 . S
C1108 C1110 1.381 . S
C1108 C1114 1.383 . S
C1109 C1105 1.495 . S
C1109 H1115 0.959 . S
C1109 H1116 0.961 . S
C1109 H1117 0.960 . S
C1110 C1108 1.381 . S
C1110 C1111 1.394 . S
C1110 H1118 0.930 . S
C1111 C1110 1.394 . S
C1111 C1112 1.383 . S
C1111 H1119 0.929 . S
C1112 C1111 1.383 . S
C1112 C1113 1.377 . S
C1113 H1097 0.930 . S
C1113 C1112 1.377 . S
C1113 C1114 1.379 . S
C1114 H1098 0.931 . S
C1114 C1108 1.383 . S
C1114 C1113 1.379 . S
H1115 C1109 0.959 . S
H1116 C1109 0.961 . S
H1117 C1109 0.960 . S
H1118 C1110 0.930 . S
H1119 C1111 0.929 . S
H1120 C1128 0.902 1_655 S
H1121 C1130 0.894 1_655 S
H1122 C1132 0.930 . S
H1123 C1135 0.929 . S
H1124 C1138 0.930 . S
H1125 C1140 0.960 . S
H1126 C1140 1.015 . S
H1127 C1140 0.960 . S
C1128 H1120 0.902 1_455 S
C1128 C1129 1.377 . S
C1128 C1130 1.384 . S
C1129 C1128 1.377 . S
C1129 C1135 1.390 . S
C1130 H1121 0.894 1_455 S
C1130 C1128 1.384 . S
C1130 C1131 1.372 . S
C1131 C1130 1.372 . S
C1131 C1132 1.400 . S
C1131 C1136 1.490 . S
C1132 H1122 0.930 . S
C1132 C1131 1.400 . S
C1132 C1135 1.386 . S
H1133 C1149 0.930 . S
H1134 C1150 0.931 . S
C1135 H1123 0.929 . S
C1135 C1129 1.390 . S
C1135 C1132 1.386 . S
C1136 C1131 1.490 . S
C1136 C1138 1.395 . S
C1136 C1139 1.403 . S
H1137 C1143 0.930 . S
C1138 H1124 0.930 . S
C1138 C1136 1.395 . S
C1138 C1141 1.403 . S
C1139 C1136 1.403 . S
C1139 C1140 1.524 . S
C1139 C1143 1.400 . S
C1140 H1125 0.960 . S
C1140 H1126 1.015 . S
C1140 H1127 0.960 . S
C1140 C1139 1.524 . S
C1141 C1138 1.403 . S
C1141 C1142 1.392 . S
C1141 C1145 1.495 . S
C1142 C1141 1.392 . S
C1142 C1143 1.385 . S
C1142 C1144 1.478 . S
C1143 H1137 0.930 . S
C1143 C1139 1.400 . S
C1143 C1142 1.385 . S
C1144 C1142 1.478 . S
C1144 C1146 1.381 . S
C1144 C1150 1.383 . S
C1145 C1141 1.495 . S
C1145 H1151 0.959 . S
C1145 H1152 0.961 . S
C1145 H1153 0.960 . S
C1146 C1144 1.381 . S
C1146 C1147 1.394 . S
C1146 H1154 0.873 1_455 S
C1147 C1146 1.394 . S
C1147 C1148 1.383 . S
C1147 H1155 0.929 1_455 S
C1148 C1147 1.383 . S
C1148 C1149 1.377 . S
C1149 H1133 0.930 . S
C1149 C1148 1.377 . S
C1149 C1150 1.379 . S
C1150 H1134 0.931 . S
C1150 C1144 1.383 . S
C1150 C1149 1.379 . S
H1151 C1145 0.959 . S
H1152 C1145 0.961 . S
H1153 C1145 0.960 . S
H1154 C1146 0.873 1_655 S
H1155 C1147 0.929 1_655 S
H1156 C1164 0.929 1_565 S
H1157 C1166 0.930 1_565 S
H1158 C1168 0.930 . S
H1159 C1171 0.929 . S
H1160 C1174 0.930 . S
H1161 C1176 0.960 . S
H1162 C1176 0.960 . S
H1163 C1176 0.960 . S
C1164 H1156 0.929 1_545 S
C1164 C1165 1.377 . S
C1164 C1166 1.384 . S
C1165 C1164 1.377 . S
C1165 C1171 1.390 . S
C1166 H1157 0.930 1_545 S
C1166 C1164 1.384 . S
C1166 C1167 1.372 . S
C1167 C1166 1.372 . S
C1167 C1168 1.400 . S
C1167 C1172 1.490 . S
C1168 H1158 0.930 . S
C1168 C1167 1.400 . S
C1168 C1171 1.386 . S
H1169 C1185 0.930 . S
H1170 C1186 0.931 . S
C1171 H1159 0.929 . S
C1171 C1165 1.390 . S
C1171 C1168 1.386 . S
C1172 C1167 1.490 . S
C1172 C1174 1.395 . S
C1172 C1175 1.403 . S
H1173 C1179 0.930 . S
C1174 H1160 0.930 . S
C1174 C1172 1.395 . S
C1174 C1177 1.403 . S
C1175 C1172 1.403 . S
C1175 C1176 1.524 . S
C1175 C1179 1.400 . S
C1176 H1161 0.960 . S
C1176 H1162 0.960 . S
C1176 H1163 0.960 . S
C1176 C1175 1.524 . S
C1177 C1174 1.403 . S
C1177 C1178 1.392 . S
C1177 C1181 1.495 . S
C1178 C1177 1.392 . S
C1178 C1179 1.385 . S
C1178 C1180 1.478 . S
C1179 H1173 0.930 . S
C1179 C1175 1.400 . S
C1179 C1178 1.385 . S
C1180 C1178 1.478 . S
C1180 C1182 1.381 . S
C1180 C1186 1.383 . S
C1181 C1177 1.495 . S
C1181 H1187 0.959 . S
C1181 H1188 0.961 . S
C1181 H1189 0.960 . S
C1182 C1180 1.381 . S
C1182 C1183 1.394 . S
C1182 H1190 0.930 1_545 S
C1183 C1182 1.394 . S
C1183 C1184 1.383 . S
C1183 H1191 0.929 1_545 S
C1184 C1183 1.383 . S
C1184 C1185 1.377 . S
C1185 H1169 0.930 . S
C1185 C1184 1.377 . S
C1185 C1186 1.379 . S
C1186 H1170 0.931 . S
C1186 C1180 1.383 . S
C1186 C1185 1.379 . S
H1187 C1181 0.959 . S
H1188 C1181 0.961 . S
H1189 C1181 0.960 . S
H1190 C1182 0.930 1_565 S
H1191 C1183 0.929 1_565 S
H1192 C1200 0.929 . S
H1193 C1202 0.930 . S
H1194 C1204 0.930 . S
H1195 C1207 0.929 . S
H1196 C1210 0.930 . S
H1197 C1212 0.960 . S
H1198 C1212 0.960 . S
H1199 C1212 0.960 . S
C1200 H1192 0.929 . S
C1200 C1201 1.377 . S
C1200 C1202 1.384 . S
C1201 C1200 1.377 . S
C1201 C1207 1.390 . S
C1202 H1193 0.930 . S
C1202 C1200 1.384 . S
C1202 C1203 1.372 . S
C1203 C1202 1.372 . S
C1203 C1204 1.400 . S
C1203 C1208 1.490 . S
C1204 H1194 0.930 . S
C1204 C1203 1.400 . S
C1204 C1207 1.386 . S
H1205 C1221 0.930 . S
H1206 C1222 0.931 . S
C1207 H1195 0.929 . S
C1207 C1201 1.390 . S
C1207 C1204 1.386 . S
C1208 C1203 1.490 . S
C1208 C1210 1.395 . S
C1208 C1211 1.403 . S
H1209 C1215 0.930 . S
C1210 H1196 0.930 . S
C1210 C1208 1.395 . S
C1210 C1213 1.403 . S
C1211 C1208 1.403 . S
C1211 C1212 1.524 . S
C1211 C1215 1.400 . S
C1212 H1197 0.960 . S
C1212 H1198 0.960 . S
C1212 H1199 0.960 . S
C1212 C1211 1.524 . S
C1213 C1210 1.403 . S
C1213 C1214 1.392 . S
C1213 C1217 1.495 . S
C1214 C1213 1.392 . S
C1214 C1215 1.385 . S
C1214 C1216 1.478 . S
C1215 H1209 0.930 . S
C1215 C1211 1.400 . S
C1215 C1214 1.385 . S
C1216 C1214 1.478 . S
C1216 C1218 1.381 . S
C1216 C1222 1.383 . S
C1217 C1213 1.495 . S
C1217 H1223 0.959 . S
C1217 H1224 0.961 . S
C1217 H1225 0.960 . S
C1218 C1216 1.381 . S
C1218 C1219 1.394 . S
C1218 H1226 0.930 . S
C1219 C1218 1.394 . S
C1219 C1220 1.383 . S
C1219 H1227 0.929 . S
C1220 C1219 1.383 . S
C1220 C1221 1.377 . S
C1221 H1205 0.930 . S
C1221 C1220 1.377 . S
C1221 C1222 1.379 . S
C1222 H1206 0.931 . S
C1222 C1216 1.383 . S
C1222 C1221 1.379 . S
H1223 C1217 0.959 . S
H1224 C1217 0.961 . S
H1225 C1217 0.960 . S
H1226 C1218 0.930 . S
H1227 C1219 0.929 . S
H1228 C1236 0.929 . S
H1229 C1238 0.930 . S
H1230 C1240 0.930 . S
H1231 C1243 0.929 . S
H1232 C1246 0.930 . S
H1233 C1248 0.960 . S
H1234 C1248 0.960 . S
H1235 C1248 0.960 . S
C1236 H1228 0.929 . S
C1236 C1237 1.377 . S
C1236 C1238 1.384 . S
C1237 C1236 1.377 . S
C1237 C1243 1.390 . S
C1238 H1229 0.930 . S
C1238 C1236 1.384 . S
C1238 C1239 1.372 . S
C1239 C1238 1.372 . S
C1239 C1240 1.400 . S
C1239 C1244 1.490 . S
C1240 H1230 0.930 . S
C1240 C1239 1.400 . S
C1240 C1243 1.386 . S
H1241 C1257 0.930 . S
H1242 C1258 0.931 . S
C1243 H1231 0.929 . S
C1243 C1237 1.390 . S
C1243 C1240 1.386 . S
C1244 C1239 1.490 . S
C1244 C1246 1.395 . S
C1244 C1247 1.403 . S
H1245 C1251 0.930 . S
C1246 H1232 0.930 . S
C1246 C1244 1.395 . S
C1246 C1249 1.403 . S
C1247 C1244 1.403 . S
C1247 C1248 1.524 . S
C1247 C1251 1.400 . S
C1248 H1233 0.960 . S
C1248 H1234 0.960 . S
C1248 H1235 0.960 . S
C1248 C1247 1.524 . S
C1249 C1246 1.403 . S
C1249 C1250 1.392 . S
C1249 C1253 1.495 . S
C1250 C1249 1.392 . S
C1250 C1251 1.385 . S
C1250 C1252 1.478 . S
C1251 H1245 0.930 . S
C1251 C1247 1.400 . S
C1251 C1250 1.385 . S
C1252 C1250 1.478 . S
C1252 C1254 1.381 . S
C1252 C1258 1.383 . S
C1253 C1249 1.495 . S
C1253 H1259 0.959 . S
C1253 H1260 0.961 . S
C1253 H1261 0.960 . S
C1254 C1252 1.381 . S
C1254 C1255 1.394 . S
C1254 H1262 0.930 . S
C1255 C1254 1.394 . S
C1255 C1256 1.383 . S
C1255 H1263 0.929 . S
C1256 C1255 1.383 . S
C1256 C1257 1.377 . S
C1257 H1241 0.930 . S
C1257 C1256 1.377 . S
C1257 C1258 1.379 . S
C1258 H1242 0.931 . S
C1258 C1252 1.383 . S
C1258 C1257 1.379 . S
H1259 C1253 0.959 . S
H1260 C1253 0.961 . S
H1261 C1253 0.960 . S
H1262 C1254 0.930 . S
H1263 C1255 0.929 . S
H1264 C1272 0.929 . S
H1265 C1274 0.930 . S
H1266 C1276 0.930 . S
H1267 C1279 0.929 . S
H1268 C1282 0.930 1_455 S
H1269 C1284 0.960 . S
H1270 C1284 0.960 . S
H1271 C1284 0.960 . S
C1272 H1264 0.929 . S
C1272 C1273 1.377 . S
C1272 C1274 1.384 . S
C1273 C1272 1.377 . S
C1273 C1279 1.390 . S
C1274 H1265 0.930 . S
C1274 C1272 1.384 . S
C1274 C1275 1.372 . S
C1275 C1274 1.372 . S
C1275 C1276 1.400 . S
C1275 C1280 1.490 . S
C1276 H1266 0.930 . S
C1276 C1275 1.400 . S
C1276 C1279 1.386 . S
H1277 C1293 0.930 . S
H1278 C1294 0.931 . S
C1279 H1267 0.929 . S
C1279 C1273 1.390 . S
C1279 C1276 1.386 . S
C1280 C1275 1.490 . S
C1280 C1282 1.395 . S
C1280 C1283 1.403 . S
H1281 C1287 0.930 . S
C1282 H1268 0.930 1_655 S
C1282 C1280 1.395 . S
C1282 C1285 1.410 . S
C1283 C1280 1.403 . S
C1283 C1284 1.524 . S
C1283 C1287 1.400 . S
C1284 H1269 0.960 . S
C1284 H1270 0.960 . S
C1284 H1271 0.960 . S
C1284 C1283 1.524 . S
C1285 C1282 1.410 . S
C1285 C1286 1.442 . S
C1285 C1289 1.442 1_655 S
C1286 C1285 1.442 . S
C1286 C1287 1.385 . S
C1286 C1288 1.478 . S
C1287 H1281 0.930 . S
C1287 C1283 1.400 . S
C1287 C1286 1.385 . S
C1288 C1286 1.478 . S
C1288 C1290 1.381 . S
C1288 C1294 1.383 . S
C1289 C1285 1.442 1_455 S
C1289 H1295 0.959 . S
C1289 H1296 0.961 . S
C1289 H1297 0.960 . S
C1290 C1288 1.381 . S
C1290 C1291 1.394 . S
C1290 H1298 0.930 . S
C1291 C1290 1.394 . S
C1291 C1292 1.383 . S
C1291 H1299 0.929 . S
C1292 C1291 1.383 . S
C1292 C1293 1.377 . S
C1293 H1277 0.930 . S
C1293 C1292 1.377 . S
C1293 C1294 1.379 . S
C1294 H1278 0.931 . S
C1294 C1288 1.383 . S
C1294 C1293 1.379 . S
H1295 C1289 0.959 . S
H1296 C1289 0.961 . S
H1297 C1289 0.960 . S
H1298 C1290 0.930 . S
H1299 C1291 0.929 . S
H1300 C1308 0.929 . S
H1301 C1310 0.930 . S
H1302 C1312 0.930 . S
H1303 C1315 0.929 . S
H1304 C1318 0.930 . S
H1305 C1320 0.960 . S
H1306 C1320 0.960 . S
H1307 C1320 0.960 . S
C1308 H1300 0.929 . S
C1308 C1309 1.377 . S
C1308 C1310 1.384 . S
C1309 C1308 1.377 . S
C1309 C1315 1.390 . S
C1310 H1301 0.930 . S
C1310 C1308 1.384 . S
C1310 C1311 1.372 . S
C1311 C1310 1.372 . S
C1311 C1312 1.400 . S
C1311 C1316 1.490 . S
C1312 H1302 0.930 . S
C1312 C1311 1.400 . S
C1312 C1315 1.386 . S
H1313 C1329 0.930 . S
H1314 C1330 0.931 . S
C1315 H1303 0.929 . S
C1315 C1309 1.390 . S
C1315 C1312 1.386 . S
C1316 C1311 1.490 . S
C1316 C1318 1.395 . S
C1316 C1319 1.403 . S
H1317 C1323 0.907 1_545 S
C1318 H1304 0.930 . S
C1318 C1316 1.395 . S
C1318 C1321 1.403 . S
C1319 C1316 1.403 . S
C1319 C1320 1.524 1_565 S
C1319 C1323 1.400 . S
C1320 H1305 0.960 . S
C1320 H1306 0.960 . S
C1320 H1307 0.960 . S
C1320 C1319 1.524 1_545 S
C1321 C1318 1.403 . S
C1321 C1322 1.392 . S
C1321 C1325 1.495 . S
C1322 C1321 1.392 . S
C1322 C1323 1.385 . S
C1322 C1324 1.478 . S
C1323 H1317 0.907 1_565 S
C1323 C1319 1.400 . S
C1323 C1322 1.385 . S
C1324 C1322 1.478 . S
C1324 C1326 1.381 . S
C1324 C1330 1.383 . S
C1325 C1321 1.495 . S
C1325 H1331 0.959 . S
C1325 H1332 0.961 . S
C1325 H1333 0.960 . S
C1326 C1324 1.381 . S
C1326 C1327 1.394 . S
C1326 H1334 0.930 . S
C1327 C1326 1.394 . S
C1327 C1328 1.383 . S
C1327 H1335 0.929 . S
C1328 C1327 1.383 . S
C1328 C1329 1.377 . S
C1329 H1313 0.930 . S
C1329 C1328 1.377 . S
C1329 C1330 1.379 . S
C1330 H1314 0.931 . S
C1330 C1324 1.383 . S
C1330 C1329 1.379 . S
H1331 C1325 0.959 . S
H1332 C1325 0.961 . S
H1333 C1325 0.960 . S
H1334 C1326 0.930 . S
H1335 C1327 0.929 . S
H1336 C1344 0.929 . S
H1337 C1346 0.930 . S
H1338 C1348 0.930 . S
H1339 C1351 0.929 . S
H1340 C1354 0.930 . S
H1341 C1356 0.960 . S
H1342 C1356 0.960 . S
H1343 C1356 0.960 . S
C1344 H1336 0.929 . S
C1344 C1345 1.377 . S
C1344 C1346 1.384 . S
C1345 C1344 1.377 . S
C1345 C1351 1.390 . S
C1346 H1337 0.930 . S
C1346 C1344 1.384 . S
C1346 C1347 1.372 . S
C1347 C1346 1.372 . S
C1347 C1348 1.400 . S
C1347 C1352 1.490 . S
C1348 H1338 0.930 . S
C1348 C1347 1.400 . S
C1348 C1351 1.386 . S
H1349 C1365 0.930 . S
H1350 C1366 0.931 . S
C1351 H1339 0.929 . S
C1351 C1345 1.390 . S
C1351 C1348 1.386 . S
C1352 C1347 1.490 . S
C1352 C1354 1.395 . S
C1352 C1355 1.403 . S
H1353 C1359 0.930 . S
C1354 H1340 0.930 . S
C1354 C1352 1.395 . S
C1354 C1357 1.403 . S
C1355 C1352 1.403 . S
C1355 C1356 1.524 . S
C1355 C1359 1.400 . S
C1356 H1341 0.960 . S
C1356 H1342 0.960 . S
C1356 H1343 0.960 . S
C1356 C1355 1.524 . S
C1357 C1354 1.403 . S
C1357 C1358 1.392 . S
C1357 C1361 1.495 . S
C1358 C1357 1.392 . S
C1358 C1359 1.385 . S
C1358 C1360 1.478 . S
C1359 H1353 0.930 . S
C1359 C1355 1.400 . S
C1359 C1358 1.385 . S
C1360 C1358 1.478 . S
C1360 C1362 1.381 . S
C1360 C1366 1.383 . S
C1361 C1357 1.495 . S
C1361 H1367 0.959 . S
C1361 H1368 0.961 . S
C1361 H1369 0.960 . S
C1362 C1360 1.381 . S
C1362 C1363 1.394 . S
C1362 H1370 0.930 . S
C1363 C1362 1.394 . S
C1363 C1364 1.383 . S
C1363 H1371 0.929 . S
C1364 C1363 1.383 . S
C1364 C1365 1.377 . S
C1365 H1349 0.930 . S
C1365 C1364 1.377 . S
C1365 C1366 1.379 . S
C1366 H1350 0.931 . S
C1366 C1360 1.383 . S
C1366 C1365 1.379 . S
H1367 C1361 0.959 . S
H1368 C1361 0.961 . S
H1369 C1361 0.960 . S
H1370 C1362 0.930 . S
H1371 C1363 0.929 . S
H1372 C1380 0.929 . S
H1373 C1382 0.930 . S
H1374 C1384 0.930 . S
H1375 C1387 0.929 . S
H1376 C1390 0.930 . S
H1377 C1392 0.960 . S
H1378 C1392 0.960 . S
H1379 C1392 0.960 . S
C1380 H1372 0.929 . S
C1380 C1381 1.377 . S
C1380 C1382 1.384 . S
C1381 C1380 1.377 . S
C1381 C1387 1.390 . S
C1382 H1373 0.930 . S
C1382 C1380 1.384 . S
C1382 C1383 1.372 . S
C1383 C1382 1.372 . S
C1383 C1384 1.400 . S
C1383 C1388 1.490 . S
C1384 H1374 0.930 . S
C1384 C1383 1.400 . S
C1384 C1387 1.386 . S
H1385 C1401 0.930 . S
H1386 C1402 0.931 . S
C1387 H1375 0.929 . S
C1387 C1381 1.390 . S
C1387 C1384 1.386 . S
C1388 C1383 1.490 . S
C1388 C1390 1.395 . S
C1388 C1391 1.403 . S
H1389 C1395 0.930 . S
C1390 H1376 0.930 . S
C1390 C1388 1.395 . S
C1390 C1393 1.403 . S
C1391 C1388 1.403 . S
C1391 C1392 1.524 . S
C1391 C1395 1.400 . S
C1392 H1377 0.960 . S
C1392 H1378 0.960 . S
C1392 H1379 0.960 . S
C1392 C1391 1.524 . S
C1393 C1390 1.403 . S
C1393 C1394 1.392 . S
C1393 C1397 1.495 . S
C1394 C1393 1.392 . S
C1394 C1395 1.385 . S
C1394 C1396 1.478 . S
C1395 H1389 0.930 . S
C1395 C1391 1.400 . S
C1395 C1394 1.385 . S
C1396 C1394 1.478 . S
C1396 C1398 1.381 . S
C1396 C1402 1.383 . S
C1397 C1393 1.495 . S
C1397 H1403 0.959 . S
C1397 H1404 0.961 . S
C1397 H1405 0.960 . S
C1398 C1396 1.381 . S
C1398 C1399 1.394 . S
C1398 H1406 0.930 . S
C1399 C1398 1.394 . S
C1399 C1400 1.383 . S
C1399 H1407 0.929 . S
C1400 C1399 1.383 . S
C1400 C1401 1.377 . S
C1401 H1385 0.930 . S
C1401 C1400 1.377 . S
C1401 C1402 1.379 . S
C1402 H1386 0.931 . S
C1402 C1396 1.383 . S
C1402 C1401 1.379 . S
H1403 C1397 0.959 . S
H1404 C1397 0.961 . S
H1405 C1397 0.960 . S
H1406 C1398 0.930 . S
H1407 C1399 0.929 . S
H1408 C1416 0.929 . S
H1409 C1418 0.930 . S
H1410 C1420 0.930 . S
H1411 C1423 0.929 . S
H1412 C1426 0.930 . S
H1413 C1428 0.960 . S
H1414 C1428 0.960 . S
H1415 C1428 0.960 . S
C1416 H1408 0.929 . S
C1416 C1417 1.377 1_455 S
C1416 C1418 1.384 . S
C1417 C1416 1.377 1_655 S
C1417 C1423 1.390 . S
C1418 H1409 0.930 . S
C1418 C1416 1.384 . S
C1418 C1419 1.381 . S
C1419 C1418 1.381 . S
C1419 C1420 1.389 1_455 S
C1419 C1424 1.492 . S
C1420 H1410 0.930 . S
C1420 C1419 1.389 1_655 S
C1420 C1423 1.386 . S
H1421 C1437 0.930 . S
H1422 C1438 0.931 . S
C1423 H1411 0.929 . S
C1423 C1417 1.390 . S
C1423 C1420 1.386 . S
C1424 C1419 1.492 . S
C1424 C1426 1.395 1_455 S
C1424 C1427 1.403 . S
H1425 C1431 0.930 . S
C1426 H1412 0.930 . S
C1426 C1424 1.395 1_655 S
C1426 C1429 1.403 . S
C1427 C1424 1.403 . S
C1427 C1428 1.524 . S
C1427 C1431 1.400 . S
C1428 H1413 0.960 . S
C1428 H1414 0.960 . S
C1428 H1415 0.960 . S
C1428 C1427 1.524 . S
C1429 C1426 1.403 . S
C1429 C1430 1.392 1_655 S
C1429 C1433 1.495 . S
C1430 C1429 1.392 1_455 S
C1430 C1431 1.385 . S
C1430 C1432 1.478 . S
C1431 H1425 0.930 . S
C1431 C1427 1.400 . S
C1431 C1430 1.385 . S
C1432 C1430 1.478 . S
C1432 C1434 1.381 . S
C1432 C1438 1.383 1_455 S
C1433 C1429 1.495 . S
C1433 H1439 0.959 . S
C1433 H1440 0.961 . S
C1433 H1441 0.960 . S
C1434 C1432 1.381 . S
C1434 C1435 1.394 . S
C1434 H1442 0.930 . S
C1435 C1434 1.394 . S
C1435 C1436 1.383 . S
C1435 H1443 0.929 . S
C1436 C1435 1.383 . S
C1436 C1437 1.377 1_455 S
C1437 H1421 0.930 . S
C1437 C1436 1.377 1_655 S
C1437 C1438 1.379 . S
C1438 H1422 0.931 . S
C1438 C1432 1.383 1_655 S
C1438 C1437 1.379 . S
H1439 C1433 0.959 . S
H1440 C1433 0.961 . S
H1441 C1433 0.960 . S
H1442 C1434 0.930 . S
H1443 C1435 0.929 . S
H1444 C1452 0.929 . S
H1445 C1454 0.930 . S
H1446 C1456 0.930 . S
H1447 C1459 0.929 . S
H1448 C1462 0.930 . S
H1449 C1464 0.960 . S
H1450 C1464 0.960 . S
H1451 C1464 0.960 1_565 S
C1452 H1444 0.929 . S
C1452 C1453 1.377 . S
C1452 C1454 1.384 1_556 S
C1453 C1452 1.377 . S
C1453 C1459 1.390 1_545 S
C1454 H1445 0.930 . S
C1454 C1452 1.384 1_554 S
C1454 C1455 1.372 . S
C1455 C1454 1.372 . S
C1455 C1456 1.400 1_545 S
C1455 C1460 1.490 . S
C1456 H1446 0.930 . S
C1456 C1455 1.400 1_565 S
C1456 C1459 1.386 1_554 S
H1457 C1473 0.930 . S
H1458 C1474 0.931 . S
C1459 H1447 0.929 . S
C1459 C1453 1.390 1_565 S
C1459 C1456 1.386 1_556 S
C1460 C1455 1.490 . S
C1460 C1462 1.395 . S
C1460 C1463 1.403 . S
H1461 C1467 0.933 . S
C1462 H1448 0.930 . S
C1462 C1460 1.395 . S
C1462 C1465 1.403 . S
C1463 C1460 1.403 . S
C1463 C1464 1.524 . S
C1463 C1467 1.400 . S
C1464 H1449 0.960 . S
C1464 H1450 0.960 . S
C1464 H1451 0.960 1_545 S
C1464 C1463 1.524 . S
C1465 C1462 1.403 . S
C1465 C1466 1.392 . S
C1465 C1469 1.495 . S
C1466 C1465 1.392 . S
C1466 C1467 1.385 . S
C1466 C1468 1.479 . S
C1467 H1461 0.933 . S
C1467 C1463 1.400 . S
C1467 C1466 1.385 . S
C1468 C1466 1.479 . S
C1468 C1470 1.389 . S
C1468 C1474 1.374 1_545 S
C1469 C1465 1.495 . S
C1469 H1475 0.959 . S
C1469 H1476 0.961 1_545 S
C1469 H1477 0.960 . S
C1470 C1468 1.389 . S
C1470 C1471 1.394 . S
C1470 H1478 0.930 . S
C1471 C1470 1.394 . S
C1471 C1472 1.383 1_545 S
C1471 H1479 0.929 . S
C1472 C1471 1.383 1_565 S
C1472 C1473 1.377 . S
C1473 H1457 0.930 . S
C1473 C1472 1.377 . S
C1473 C1474 1.379 . S
C1474 H1458 0.931 . S
C1474 C1468 1.374 1_565 S
C1474 C1473 1.379 . S
H1475 C1469 0.959 . S
H1476 C1469 0.961 1_565 S
H1477 C1469 0.960 . S
H1478 C1470 0.930 . S
H1479 C1471 0.929 . S
H1480 C1488 0.929 . S
H1481 C1490 0.930 . S
H1482 C1492 0.930 . S
H1483 C1495 0.929 . S
H1484 C1498 0.930 . S
H1485 C1500 0.960 . S
H1486 C1500 0.960 . S
H1487 C1500 0.960 . S
C1488 H1480 0.929 . S
C1488 C1489 1.377 . S
C1488 C1490 1.384 . S
C1489 C1488 1.377 . S
C1489 C1495 1.390 . S
C1490 H1481 0.930 . S
C1490 C1488 1.384 . S
C1490 C1491 1.372 . S
C1491 C1490 1.372 . S
C1491 C1492 1.400 . S
C1491 C1496 1.490 . S
C1492 H1482 0.930 . S
C1492 C1491 1.400 . S
C1492 C1495 1.386 . S
H1493 C1509 0.930 . S
H1494 C1510 0.931 . S
C1495 H1483 0.929 . S
C1495 C1489 1.390 . S
C1495 C1492 1.386 . S
C1496 C1491 1.490 . S
C1496 C1498 1.395 . S
C1496 C1499 1.403 . S
H1497 C1503 0.930 . S
C1498 H1484 0.930 . S
C1498 C1496 1.395 . S
C1498 C1501 1.403 . S
C1499 C1496 1.403 . S
C1499 C1500 1.524 . S
C1499 C1503 1.400 . S
C1500 H1485 0.960 . S
C1500 H1486 0.960 . S
C1500 H1487 0.960 . S
C1500 C1499 1.524 . S
C1501 C1498 1.403 . S
C1501 C1502 1.392 . S
C1501 C1505 1.495 . S
C1502 C1501 1.392 . S
C1502 C1503 1.385 . S
C1502 C1504 1.478 . S
C1503 H1497 0.930 . S
C1503 C1499 1.400 . S
C1503 C1502 1.385 . S
C1504 C1502 1.478 . S
C1504 C1506 1.381 . S
C1504 C1510 1.383 . S
C1505 C1501 1.495 . S
C1505 H1511 0.959 . S
C1505 H1512 0.961 . S
C1505 H1513 0.960 . S
C1506 C1504 1.381 . S
C1506 C1507 1.394 . S
C1506 H1514 0.930 . S
C1507 C1506 1.394 . S
C1507 C1508 1.383 . S
C1507 H1515 0.929 . S
C1508 C1507 1.383 . S
C1508 C1509 1.377 . S
C1509 H1493 0.930 . S
C1509 C1508 1.377 . S
C1509 C1510 1.379 . S
C1510 H1494 0.931 . S
C1510 C1504 1.383 . S
C1510 C1509 1.379 . S
H1511 C1505 0.959 . S
H1512 C1505 0.961 . S
H1513 C1505 0.960 . S
H1514 C1506 0.930 . S
H1515 C1507 0.929 . S
H1516 C1524 0.929 . S
H1517 C1526 0.930 . S
H1518 C1528 0.930 . S
H1519 C1531 0.929 . S
H1520 C1534 0.930 . S
H1521 C1536 0.960 . S
H1522 C1536 0.960 . S
H1523 C1536 0.960 . S
C1524 H1516 0.929 . S
C1524 C1525 1.377 . S
C1524 C1526 1.384 1_556 S
C1525 C1524 1.377 . S
C1525 C1531 1.390 . S
C1526 H1517 0.930 . S
C1526 C1524 1.384 1_554 S
C1526 C1527 1.372 . S
C1527 C1526 1.372 . S
C1527 C1528 1.400 . S
C1527 C1532 1.490 . S
C1528 H1518 0.930 . S
C1528 C1527 1.400 . S
C1528 C1531 1.386 1_554 S
H1529 C1545 0.930 . S
H1530 C1546 0.931 . S
C1531 H1519 0.929 . S
C1531 C1525 1.390 . S
C1531 C1528 1.386 1_556 S
C1532 C1527 1.490 . S
C1532 C1534 1.395 . S
C1532 C1535 1.403 . S
H1533 C1539 0.930 . S
C1534 H1520 0.930 . S
C1534 C1532 1.395 . S
C1534 C1537 1.403 . S
C1535 C1532 1.403 . S
C1535 C1536 1.524 . S
C1535 C1539 1.400 . S
C1536 H1521 0.960 . S
C1536 H1522 0.960 . S
C1536 H1523 0.960 . S
C1536 C1535 1.524 . S
C1537 C1534 1.403 . S
C1537 C1538 1.392 . S
C1537 C1541 1.495 . S
C1538 C1537 1.392 . S
C1538 C1539 1.385 . S
C1538 C1540 1.478 . S
C1539 H1533 0.930 . S
C1539 C1535 1.400 . S
C1539 C1538 1.385 . S
C1540 C1538 1.478 . S
C1540 C1542 1.381 . S
C1540 C1546 1.383 . S
C1541 C1537 1.495 . S
C1541 H1547 0.959 . S
C1541 H1548 0.961 . S
C1541 H1549 0.960 . S
C1542 C1540 1.381 . S
C1542 C1543 1.394 . S
C1542 H1550 0.930 . S
C1543 C1542 1.394 . S
C1543 C1544 1.383 . S
C1543 H1551 0.929 . S
C1544 C1543 1.383 . S
C1544 C1545 1.377 . S
C1545 H1529 0.930 . S
C1545 C1544 1.377 . S
C1545 C1546 1.379 . S
C1546 H1530 0.931 . S
C1546 C1540 1.383 . S
C1546 C1545 1.379 . S
H1547 C1541 0.959 . S
H1548 C1541 0.961 . S
H1549 C1541 0.960 . S
H1550 C1542 0.930 . S
H1551 C1543 0.929 . S
H1552 C1560 0.929 . S
H1553 C1562 0.930 . S
H1554 C1564 0.930 . S
H1555 C1567 0.929 . S
H1556 C1570 0.930 . S
H1557 C1572 0.960 . S
H1558 C1572 0.960 . S
H1559 C1572 0.960 . S
C1560 H1552 0.929 . S
C1560 C1561 1.377 . S
C1560 C1562 1.384 . S
C1561 C1560 1.377 . S
C1561 C1567 1.390 1_655 S
C1562 H1553 0.930 . S
C1562 C1560 1.384 . S
C1562 C1563 1.371 . S
C1563 C1562 1.371 . S
C1563 C1564 1.401 1_655 S
C1563 C1568 1.489 1_655 S
C1564 H1554 0.930 . S
C1564 C1563 1.401 1_455 S
C1564 C1567 1.386 . S
H1565 C1581 0.930 . S
H1566 C1582 0.931 . S
C1567 H1555 0.929 . S
C1567 C1561 1.390 1_455 S
C1567 C1564 1.386 . S
C1568 C1563 1.489 1_455 S
C1568 C1570 1.368 1_455 S
C1568 C1571 1.430 . S
H1569 C1575 0.930 . S
C1570 H1556 0.930 . S
C1570 C1568 1.368 1_655 S
C1570 C1573 1.403 . S
C1571 C1568 1.430 . S
C1571 C1572 1.524 . S
C1571 C1575 1.400 . S
C1572 H1557 0.960 . S
C1572 H1558 0.960 . S
C1572 H1559 0.960 . S
C1572 C1571 1.524 . S
C1573 C1570 1.403 . S
C1573 C1574 1.381 1_655 S
C1573 C1577 1.495 . S
C1574 C1573 1.381 1_455 S
C1574 C1575 1.397 . S
C1574 C1576 1.478 . S
C1575 H1569 0.930 . S
C1575 C1571 1.400 . S
C1575 C1574 1.397 . S
C1576 C1574 1.478 . S
C1576 C1578 1.379 1_455 S
C1576 C1582 1.383 . S
C1577 C1573 1.495 . S
C1577 H1583 0.959 . S
C1577 H1584 0.961 . S
C1577 H1585 0.960 . S
C1578 C1576 1.379 1_655 S
C1578 C1579 1.391 1_656 S
C1578 H1586 0.936 . S
C1579 C1578 1.391 1_454 S
C1579 C1580 1.383 . S
C1579 H1587 0.936 . S
C1580 C1579 1.383 . S
C1580 C1581 1.377 . S
C1581 H1565 0.930 . S
C1581 C1580 1.377 . S
C1581 C1582 1.379 1_554 S
C1582 H1566 0.931 . S
C1582 C1576 1.383 . S
C1582 C1581 1.379 1_556 S
H1583 C1577 0.959 . S
H1584 C1577 0.961 . S
H1585 C1577 0.960 . S
H1586 C1578 0.936 . S
H1587 C1579 0.936 . S
H1588 C1596 0.929 . S
H1589 C1598 0.930 . S
H1590 C1600 0.930 . S
H1591 C1603 0.929 . S
H1592 C1606 0.930 . S
H1593 C1608 0.960 . S
H1594 C1608 0.960 . S
H1595 C1608 0.960 1_545 S
C1596 H1588 0.929 . S
C1596 C1597 1.377 . S
C1596 C1598 1.384 . S
C1597 C1596 1.377 . S
C1597 C1603 1.390 1_565 S
C1598 H1589 0.930 . S
C1598 C1596 1.384 . S
C1598 C1599 1.408 . S
C1599 C1598 1.408 . S
C1599 C1600 1.367 1_565 S
C1599 C1604 1.486 1_565 S
C1600 H1590 0.930 . S
C1600 C1599 1.367 1_545 S
C1600 C1603 1.386 . S
H1601 C1617 0.930 . S
H1602 C1618 0.931 . S
C1603 H1591 0.929 . S
C1603 C1597 1.390 1_545 S
C1603 C1600 1.386 . S
C1604 C1599 1.486 1_545 S
C1604 C1606 1.401 . S
C1604 C1607 1.399 1_545 S
H1605 C1611 0.925 1_565 S
C1606 H1592 0.930 . S
C1606 C1604 1.401 . S
C1606 C1609 1.403 . S
C1607 C1604 1.399 1_565 S
C1607 C1608 1.524 . S
C1607 C1611 1.400 1_565 S
C1608 H1593 0.960 . S
C1608 H1594 0.960 . S
C1608 H1595 0.960 1_565 S
C1608 C1607 1.524 . S
C1609 C1606 1.403 . S
C1609 C1610 1.392 . S
C1609 C1613 1.495 . S
C1610 C1609 1.392 . S
C1610 C1611 1.385 . S
C1610 C1612 1.478 . S
C1611 H1605 0.925 1_545 S
C1611 C1607 1.400 1_545 S
C1611 C1610 1.385 . S
C1612 C1610 1.478 . S
C1612 C1614 1.381 1_545 S
C1612 C1618 1.383 . S
C1613 C1609 1.495 . S
C1613 H1619 0.959 . S
C1613 H1620 0.961 . S
C1613 H1621 1.006 . S
C1614 C1612 1.381 1_565 S
C1614 C1615 1.394 . S
C1614 H1622 0.930 . S
C1615 C1614 1.394 . S
C1615 C1616 1.383 1_565 S
C1615 H1623 0.929 . S
C1616 C1615 1.383 1_545 S
C1616 C1617 1.377 . S
C1617 H1601 0.930 . S
C1617 C1616 1.377 . S
C1617 C1618 1.379 . S
C1618 H1602 0.931 . S
C1618 C1612 1.383 . S
C1618 C1617 1.379 . S
H1619 C1613 0.959 . S
H1620 C1613 0.961 . S
H1621 C1613 1.006 . S
H1622 C1614 0.930 . S
H1623 C1615 0.929 . S
H1624 C1632 0.929 . S
H1625 C1634 0.930 . S
H1626 C1636 0.930 . S
H1627 C1639 0.929 . S
H1628 C1642 0.930 . S
H1629 C1644 0.960 . S
H1630 C1644 0.960 . S
H1631 C1644 0.960 . S
C1632 H1624 0.929 . S
C1632 C1633 1.377 . S
C1632 C1634 1.384 . S
C1633 C1632 1.377 . S
C1633 C1639 1.390 . S
C1634 H1625 0.930 . S
C1634 C1632 1.384 . S
C1634 C1635 1.372 . S
C1635 C1634 1.372 . S
C1635 C1636 1.400 . S
C1635 C1640 1.490 . S
C1636 H1626 0.930 . S
C1636 C1635 1.400 . S
C1636 C1639 1.386 . S
H1637 C1653 0.930 . S
H1638 C1654 0.931 . S
C1639 H1627 0.929 . S
C1639 C1633 1.390 . S
C1639 C1636 1.386 . S
C1640 C1635 1.490 . S
C1640 C1642 1.395 . S
C1640 C1643 1.403 . S
H1641 C1647 0.930 . S
C1642 H1628 0.930 . S
C1642 C1640 1.395 . S
C1642 C1645 1.403 . S
C1643 C1640 1.403 . S
C1643 C1644 1.524 . S
C1643 C1647 1.400 . S
C1644 H1629 0.960 . S
C1644 H1630 0.960 . S
C1644 H1631 0.960 . S
C1644 C1643 1.524 . S
C1645 C1642 1.403 . S
C1645 C1646 1.392 . S
C1645 C1649 1.495 . S
C1646 C1645 1.392 . S
C1646 C1647 1.385 . S
C1646 C1648 1.478 . S
C1647 H1641 0.930 . S
C1647 C1643 1.400 . S
C1647 C1646 1.385 . S
C1648 C1646 1.478 . S
C1648 C1650 1.381 . S
C1648 C1654 1.383 . S
C1649 C1645 1.495 . S
C1649 H1655 0.959 . S
C1649 H1656 0.961 . S
C1649 H1657 0.960 . S
C1650 C1648 1.381 . S
C1650 C1651 1.394 1_556 S
C1650 H1658 0.930 . S
C1651 C1650 1.394 1_554 S
C1651 C1652 1.383 . S
C1651 H1659 0.929 . S
C1652 C1651 1.383 . S
C1652 C1653 1.377 . S
C1653 H1637 0.930 . S
C1653 C1652 1.377 . S
C1653 C1654 1.379 1_554 S
C1654 H1638 0.931 . S
C1654 C1648 1.383 . S
C1654 C1653 1.379 1_556 S
H1655 C1649 0.959 . S
H1656 C1649 0.961 . S
H1657 C1649 0.960 . S
H1658 C1650 0.930 . S
H1659 C1651 0.929 . S
H1660 C1668 0.929 . S
H1661 C1670 0.930 . S
H1662 C1672 0.930 . S
H1663 C1675 0.929 . S
H1664 C1678 0.930 . S
H1665 C1680 0.960 . S
H1666 C1680 0.960 . S
H1667 C1680 0.960 . S
C1668 H1660 0.929 . S
C1668 C1669 1.377 . S
C1668 C1670 1.384 . S
C1669 C1668 1.377 . S
C1669 C1675 1.390 . S
C1670 H1661 0.930 . S
C1670 C1668 1.384 . S
C1670 C1671 1.372 . S
C1671 C1670 1.372 . S
C1671 C1672 1.400 . S
C1671 C1676 1.490 . S
C1672 H1662 0.930 . S
C1672 C1671 1.400 . S
C1672 C1675 1.386 . S
H1673 C1689 0.930 . S
H1674 C1690 0.931 . S
C1675 H1663 0.929 . S
C1675 C1669 1.390 . S
C1675 C1672 1.386 . S
C1676 C1671 1.490 . S
C1676 C1678 1.395 . S
C1676 C1679 1.403 . S
H1677 C1683 0.930 . S
C1678 H1664 0.930 . S
C1678 C1676 1.395 . S
C1678 C1681 1.403 . S
C1679 C1676 1.403 . S
C1679 C1680 1.524 . S
C1679 C1683 1.400 . S
C1680 H1665 0.960 . S
C1680 H1666 0.960 . S
C1680 H1667 0.960 . S
C1680 C1679 1.524 . S
C1681 C1678 1.403 . S
C1681 C1682 1.392 . S
C1681 C1685 1.495 . S
C1682 C1681 1.392 . S
C1682 C1683 1.385 . S
C1682 C1684 1.478 . S
C1683 H1677 0.930 . S
C1683 C1679 1.400 . S
C1683 C1682 1.385 . S
C1684 C1682 1.478 . S
C1684 C1686 1.381 . S
C1684 C1690 1.383 . S
C1685 C1681 1.495 . S
C1685 H1691 0.959 . S
C1685 H1692 0.961 . S
C1685 H1693 0.960 . S
C1686 C1684 1.381 . S
C1686 C1687 1.394 . S
C1686 H1694 0.930 . S
C1687 C1686 1.394 . S
C1687 C1688 1.383 . S
C1687 H1695 0.929 . S
C1688 C1687 1.383 . S
C1688 C1689 1.377 . S
C1689 H1673 0.930 . S
C1689 C1688 1.377 . S
C1689 C1690 1.379 . S
C1690 H1674 0.931 . S
C1690 C1684 1.383 . S
C1690 C1689 1.379 . S
H1691 C1685 0.959 . S
H1692 C1685 0.961 . S
H1693 C1685 0.960 . S
H1694 C1686 0.930 . S
H1695 C1687 0.929 . S
H1696 C1704 0.929 . S
H1697 C1706 0.930 . S
H1698 C1708 0.930 . S
H1699 C1711 0.929 . S
H1700 C1714 0.930 . S
H1701 C1716 0.960 . S
H1702 C1716 0.960 . S
H1703 C1716 0.960 . S
C1704 H1696 0.929 . S
C1704 C1705 1.377 1_455 S
C1704 C1706 1.384 . S
C1705 C1704 1.377 1_655 S
C1705 C1711 1.390 . S
C1706 H1697 0.930 . S
C1706 C1704 1.384 . S
C1706 C1707 1.372 1_455 S
C1707 C1706 1.372 1_655 S
C1707 C1708 1.400 . S
C1707 C1712 1.490 . S
C1708 H1698 0.930 . S
C1708 C1707 1.400 . S
C1708 C1711 1.386 . S
H1709 C1725 0.930 . S
H1710 C1726 0.931 . S
C1711 H1699 0.929 . S
C1711 C1705 1.390 . S
C1711 C1708 1.386 . S
C1712 C1707 1.490 . S
C1712 C1714 1.395 1_655 S
C1712 C1715 1.403 . S
H1713 C1719 0.930 . S
C1714 H1700 0.930 . S
C1714 C1712 1.395 1_455 S
C1714 C1717 1.403 . S
C1715 C1712 1.403 . S
C1715 C1716 1.524 . S
C1715 C1719 1.400 . S
C1716 H1701 0.960 . S
C1716 H1702 0.960 . S
C1716 H1703 0.960 . S
C1716 C1715 1.524 . S
C1717 C1714 1.403 . S
C1717 C1718 1.392 . S
C1717 C1721 1.495 . S
C1718 C1717 1.392 . S
C1718 C1719 1.385 1_455 S
C1718 C1720 1.478 . S
C1719 H1713 0.930 . S
C1719 C1715 1.400 . S
C1719 C1718 1.385 1_655 S
C1720 C1718 1.478 . S
C1720 C1722 1.381 . S
C1720 C1726 1.383 1_455 S
C1721 C1717 1.495 . S
C1721 H1727 0.959 . S
C1721 H1728 0.961 . S
C1721 H1729 0.960 . S
C1722 C1720 1.381 . S
C1722 C1723 1.394 . S
C1722 H1730 0.930 . S
C1723 C1722 1.394 . S
C1723 C1724 1.383 . S
C1723 H1731 0.929 . S
C1724 C1723 1.383 . S
C1724 C1725 1.377 1_455 S
C1725 H1709 0.930 . S
C1725 C1724 1.377 1_655 S
C1725 C1726 1.379 . S
C1726 H1710 0.931 . S
C1726 C1720 1.383 1_655 S
C1726 C1725 1.379 . S
H1727 C1721 0.959 . S
H1728 C1721 0.961 . S
H1729 C1721 0.960 . S
H1730 C1722 0.930 . S
H1731 C1723 0.929 . S
H1732 C1740 0.929 . S
H1733 C1742 0.930 . S
H1734 C1744 0.939 . S
H1735 C1747 0.929 . S
H1736 C1750 0.930 . S
H1737 C1752 0.960 . S
H1738 C1752 0.960 . S
H1739 C1752 0.960 . S
C1740 H1732 0.929 . S
C1740 C1741 1.377 . S
C1740 C1742 1.384 1_554 S
C1741 C1740 1.377 . S
C1741 C1747 1.390 . S
C1742 H1733 0.930 . S
C1742 C1740 1.384 1_556 S
C1742 C1743 1.372 . S
C1743 C1742 1.372 . S
C1743 C1744 1.400 . S
C1743 C1748 1.490 . S
C1744 H1734 0.939 . S
C1744 C1743 1.400 . S
C1744 C1747 1.386 1_556 S
H1745 C1761 0.932 . S
H1746 C1762 0.931 . S
C1747 H1735 0.929 . S
C1747 C1741 1.390 . S
C1747 C1744 1.386 1_554 S
C1748 C1743 1.490 . S
C1748 C1750 1.395 . S
C1748 C1751 1.403 1_565 S
H1749 C1755 0.930 . S
C1750 H1736 0.930 . S
C1750 C1748 1.395 . S
C1750 C1753 1.403 . S
C1751 C1748 1.403 1_545 S
C1751 C1752 1.524 . S
C1751 C1755 1.400 . S
C1752 H1737 0.960 . S
C1752 H1738 0.960 . S
C1752 H1739 0.960 . S
C1752 C1751 1.524 . S
C1753 C1750 1.403 . S
C1753 C1754 1.392 . S
C1753 C1757 1.495 . S
C1754 C1753 1.392 . S
C1754 C1755 1.385 1_565 S
C1754 C1756 1.478 . S
C1755 H1749 0.930 . S
C1755 C1751 1.400 . S
C1755 C1754 1.385 1_545 S
C1756 C1754 1.478 . S
C1756 C1758 1.381 . S
C1756 C1762 1.383 . S
C1757 C1753 1.495 . S
C1757 H1763 0.959 . S
C1757 H1764 0.961 . S
C1757 H1765 0.960 . S
C1758 C1756 1.381 . S
C1758 C1759 1.398 . S
C1758 H1766 0.930 . S
C1759 C1758 1.398 . S
C1759 C1760 1.378 1_565 S
C1759 H1767 0.929 1_565 S
C1760 C1759 1.378 1_545 S
C1760 C1761 1.376 . S
C1761 H1745 0.932 . S
C1761 C1760 1.376 . S
C1761 C1762 1.377 1_545 S
C1762 H1746 0.931 . S
C1762 C1756 1.383 . S
C1762 C1761 1.377 1_565 S
H1763 C1757 0.959 . S
H1764 C1757 0.961 . S
H1765 C1757 0.960 . S
H1766 C1758 0.930 . S
H1767 C1759 0.929 1_545 S
H1768 C1776 0.929 . S
H1769 C1778 0.930 . S
H1770 C1780 0.930 . S
H1771 C1783 0.929 . S
H1772 C1786 0.930 . S
H1773 C1788 0.960 . S
H1774 C1788 0.960 . S
H1775 C1788 0.960 . S
C1776 H1768 0.929 . S
C1776 C1777 1.377 . S
C1776 C1778 1.384 . S
C1777 C1776 1.377 . S
C1777 C1783 1.390 . S
C1778 H1769 0.930 . S
C1778 C1776 1.384 . S
C1778 C1779 1.372 . S
C1779 C1778 1.372 . S
C1779 C1780 1.400 . S
C1779 C1784 1.490 . S
C1780 H1770 0.930 . S
C1780 C1779 1.400 . S
C1780 C1783 1.386 . S
H1781 C1797 0.930 . S
H1782 C1798 0.931 . S
C1783 H1771 0.929 . S
C1783 C1777 1.390 . S
C1783 C1780 1.386 . S
C1784 C1779 1.490 . S
C1784 C1786 1.395 . S
C1784 C1787 1.403 . S
H1785 C1791 0.930 . S
C1786 H1772 0.930 . S
C1786 C1784 1.395 . S
C1786 C1789 1.403 . S
C1787 C1784 1.403 . S
C1787 C1788 1.524 . S
C1787 C1791 1.400 . S
C1788 H1773 0.960 . S
C1788 H1774 0.960 . S
C1788 H1775 0.960 . S
C1788 C1787 1.524 . S
C1789 C1786 1.403 . S
C1789 C1790 1.392 . S
C1789 C1793 1.495 . S
C1790 C1789 1.392 . S
C1790 C1791 1.385 . S
C1790 C1792 1.478 . S
C1791 H1785 0.930 . S
C1791 C1787 1.400 . S
C1791 C1790 1.385 . S
C1792 C1790 1.478 . S
C1792 C1794 1.381 . S
C1792 C1798 1.383 . S
C1793 C1789 1.495 . S
C1793 H1799 0.959 . S
C1793 H1800 0.961 . S
C1793 H1801 0.960 . S
C1794 C1792 1.381 . S
C1794 C1795 1.394 . S
C1794 H1802 0.930 . S
C1795 C1794 1.394 . S
C1795 C1796 1.383 . S
C1795 H1803 0.929 . S
C1796 C1795 1.383 . S
C1796 C1797 1.377 . S
C1797 H1781 0.930 . S
C1797 C1796 1.377 . S
C1797 C1798 1.379 . S
C1798 H1782 0.931 . S
C1798 C1792 1.383 . S
C1798 C1797 1.379 . S
H1799 C1793 0.959 . S
H1800 C1793 0.961 . S
H1801 C1793 0.960 . S
H1802 C1794 0.930 . S
H1803 C1795 0.929 . S
H1804 C1812 0.929 . S
H1805 C1814 0.930 . S
H1806 C1816 0.930 . S
H1807 C1819 0.929 . S
H1808 C1822 0.930 . S
H1809 C1824 0.960 . S
H1810 C1824 0.960 . S
H1811 C1824 0.960 . S
C1812 H1804 0.929 . S
C1812 C1813 1.377 . S
C1812 C1814 1.384 1_554 S
C1813 C1812 1.377 . S
C1813 C1819 1.390 . S
C1814 H1805 0.930 . S
C1814 C1812 1.384 1_556 S
C1814 C1815 1.372 . S
C1815 C1814 1.372 . S
C1815 C1816 1.400 . S
C1815 C1820 1.490 . S
C1816 H1806 0.930 . S
C1816 C1815 1.400 . S
C1816 C1819 1.386 1_556 S
H1817 C1833 0.930 . S
H1818 C1834 0.931 . S
C1819 H1807 0.929 . S
C1819 C1813 1.390 . S
C1819 C1816 1.386 1_554 S
C1820 C1815 1.490 . S
C1820 C1822 1.395 . S
C1820 C1823 1.403 . S
H1821 C1827 0.930 . S
C1822 H1808 0.930 . S
C1822 C1820 1.395 . S
C1822 C1825 1.403 . S
C1823 C1820 1.403 . S
C1823 C1824 1.524 . S
C1823 C1827 1.400 . S
C1824 H1809 0.960 . S
C1824 H1810 0.960 . S
C1824 H1811 0.960 . S
C1824 C1823 1.524 . S
C1825 C1822 1.403 . S
C1825 C1826 1.392 . S
C1825 C1829 1.495 . S
C1826 C1825 1.392 . S
C1826 C1827 1.385 . S
C1826 C1828 1.478 . S
C1827 H1821 0.930 . S
C1827 C1823 1.400 . S
C1827 C1826 1.385 . S
C1828 C1826 1.478 . S
C1828 C1830 1.381 . S
C1828 C1834 1.383 . S
C1829 C1825 1.495 . S
C1829 H1835 0.959 . S
C1829 H1836 0.961 . S
C1829 H1837 0.960 . S
C1830 C1828 1.381 . S
C1830 C1831 1.394 . S
C1830 H1838 0.930 . S
C1831 C1830 1.394 . S
C1831 C1832 1.383 . S
C1831 H1839 0.929 . S
C1832 C1831 1.383 . S
C1832 C1833 1.377 . S
C1833 H1817 0.930 . S
C1833 C1832 1.377 . S
C1833 C1834 1.379 . S
C1834 H1818 0.931 . S
C1834 C1828 1.383 . S
C1834 C1833 1.379 . S
H1835 C1829 0.959 . S
H1836 C1829 0.961 . S
H1837 C1829 0.960 . S
H1838 C1830 0.930 . S
H1839 C1831 0.929 . S
H1840 C1848 0.929 . S
H1841 C1850 0.930 . S
H1842 C1852 0.942 . S
H1843 C1855 0.925 . S
H1844 C1858 0.930 . S
H1845 C1860 0.960 . S
H1846 C1860 0.960 . S
H1847 C1860 0.960 . S
C1848 H1840 0.929 . S
C1848 C1849 1.377 . S
C1848 C1850 1.384 . S
C1849 C1848 1.377 . S
C1849 C1855 1.390 1_455 S
C1850 H1841 0.930 . S
C1850 C1848 1.384 . S
C1850 C1851 1.374 . S
C1851 C1850 1.374 . S
C1851 C1852 1.396 1_455 S
C1851 C1856 1.489 1_455 S
C1852 H1842 0.942 . S
C1852 C1851 1.396 1_655 S
C1852 C1855 1.384 . S
H1853 C1869 0.930 . S
H1854 C1870 0.931 . S
C1855 H1843 0.925 . S
C1855 C1849 1.390 1_655 S
C1855 C1852 1.384 . S
C1856 C1851 1.489 1_655 S
C1856 C1858 1.395 . S
C1856 C1859 1.403 1_655 S
H1857 C1863 0.930 . S
C1858 H1844 0.930 . S
C1858 C1856 1.395 . S
C1858 C1861 1.403 . S
C1859 C1856 1.403 1_455 S
C1859 C1860 1.524 . S
C1859 C1863 1.400 . S
C1860 H1845 0.960 . S
C1860 H1846 0.960 . S
C1860 H1847 0.960 . S
C1860 C1859 1.524 . S
C1861 C1858 1.403 . S
C1861 C1862 1.392 . S
C1861 C1865 1.495 . S
C1862 C1861 1.392 . S
C1862 C1863 1.385 1_655 S
C1862 C1864 1.478 . S
C1863 H1857 0.930 . S
C1863 C1859 1.400 . S
C1863 C1862 1.385 1_455 S
C1864 C1862 1.478 . S
C1864 C1866 1.381 . S
C1864 C1870 1.383 . S
C1865 C1861 1.495 . S
C1865 H1871 0.959 . S
C1865 H1872 0.961 . S
C1865 H1873 0.960 . S
C1866 C1864 1.381 . S
C1866 C1867 1.394 1_554 S
C1866 H1874 0.930 . S
C1867 C1866 1.394 1_556 S
C1867 C1868 1.383 . S
C1867 H1875 0.929 . S
C1868 C1867 1.383 . S
C1868 C1869 1.377 . S
C1869 H1853 0.930 . S
C1869 C1868 1.377 . S
C1869 C1870 1.379 1_556 S
C1870 H1854 0.931 . S
C1870 C1864 1.383 . S
C1870 C1869 1.379 1_554 S
H1871 C1865 0.959 . S
H1872 C1865 0.961 . S
H1873 C1865 0.960 . S
H1874 C1866 0.930 . S
H1875 C1867 0.929 . S
H1876 C1884 0.929 . S
H1877 C1886 0.930 . S
H1878 C1888 0.930 . S
H1879 C1891 0.929 . S
H1880 C1894 0.930 . S
H1881 C1896 0.960 . S
H1882 C1896 0.960 . S
H1883 C1896 0.970 . S
C1884 H1876 0.929 . S
C1884 C1885 1.377 . S
C1884 C1886 1.384 . S
C1885 C1884 1.377 . S
C1885 C1891 1.390 1_545 S
C1886 H1877 0.930 . S
C1886 C1884 1.384 . S
C1886 C1887 1.405 . S
C1887 C1886 1.405 . S
C1887 C1888 1.371 1_545 S
C1887 C1892 1.486 1_545 S
C1888 H1878 0.930 . S
C1888 C1887 1.371 1_565 S
C1888 C1891 1.386 . S
H1889 C1905 0.930 . S
H1890 C1906 0.931 . S
C1891 H1879 0.929 . S
C1891 C1885 1.390 1_565 S
C1891 C1888 1.386 . S
C1892 C1887 1.486 1_565 S
C1892 C1894 1.405 . S
C1892 C1895 1.396 1_565 S
H1893 C1899 0.939 . S
C1894 H1880 0.930 . S
C1894 C1892 1.405 . S
C1894 C1897 1.403 . S
C1895 C1892 1.396 1_545 S
C1895 C1896 1.524 . S
C1895 C1899 1.406 . S
C1896 H1881 0.960 . S
C1896 H1882 0.960 . S
C1896 H1883 0.970 . S
C1896 C1895 1.524 . S
C1897 C1894 1.403 . S
C1897 C1898 1.392 . S
C1897 C1901 1.495 . S
C1898 C1897 1.392 . S
C1898 C1899 1.374 1_565 S
C1898 C1900 1.478 . S
C1899 H1893 0.939 . S
C1899 C1895 1.406 . S
C1899 C1898 1.374 1_545 S
C1900 C1898 1.478 . S
C1900 C1902 1.381 1_565 S
C1900 C1906 1.383 . S
C1901 C1897 1.495 . S
C1901 H1907 0.959 . S
C1901 H1908 0.961 . S
C1901 H1909 0.960 . S
C1902 C1900 1.381 1_545 S
C1902 C1903 1.394 . S
C1902 H1910 0.930 . S
C1903 C1902 1.394 . S
C1903 C1904 1.383 1_545 S
C1903 H1911 0.929 . S
C1904 C1903 1.383 1_565 S
C1904 C1905 1.377 . S
C1905 H1889 0.930 . S
C1905 C1904 1.377 . S
C1905 C1906 1.379 . S
C1906 H1890 0.931 . S
C1906 C1900 1.383 . S
C1906 C1905 1.379 . S
H1907 C1901 0.959 . S
H1908 C1901 0.961 . S
H1909 C1901 0.960 . S
H1910 C1902 0.930 . S
H1911 C1903 0.929 . S
H1912 C1920 0.929 . S
H1913 C1922 0.930 . S
H1914 C1924 0.930 . S
H1915 C1927 0.929 . S
H1916 C1930 0.930 . S
H1917 C1932 0.960 . S
H1918 C1932 0.960 . S
H1919 C1932 0.960 . S
C1920 H1912 0.929 . S
C1920 C1921 1.377 . S
C1920 C1922 1.384 1_556 S
C1921 C1920 1.377 . S
C1921 C1927 1.390 . S
C1922 H1913 0.930 . S
C1922 C1920 1.384 1_554 S
C1922 C1923 1.372 . S
C1923 C1922 1.372 . S
C1923 C1924 1.400 . S
C1923 C1928 1.490 . S
C1924 H1914 0.930 . S
C1924 C1923 1.400 . S
C1924 C1927 1.386 1_554 S
H1925 C1941 0.930 . S
H1926 C1942 0.931 . S
C1927 H1915 0.929 . S
C1927 C1921 1.390 . S
C1927 C1924 1.386 1_556 S
C1928 C1923 1.490 . S
C1928 C1930 1.395 . S
C1928 C1931 1.403 . S
H1929 C1935 0.930 . S
C1930 H1916 0.930 . S
C1930 C1928 1.395 . S
C1930 C1933 1.403 . S
C1931 C1928 1.403 . S
C1931 C1932 1.524 . S
C1931 C1935 1.400 . S
C1932 H1917 0.960 . S
C1932 H1918 0.960 . S
C1932 H1919 0.960 . S
C1932 C1931 1.524 . S
C1933 C1930 1.403 . S
C1933 C1934 1.392 . S
C1933 C1937 1.495 . S
C1934 C1933 1.392 . S
C1934 C1935 1.385 . S
C1934 C1936 1.478 . S
C1935 H1929 0.930 . S
C1935 C1931 1.400 . S
C1935 C1934 1.385 . S
C1936 C1934 1.478 . S
C1936 C1938 1.381 . S
C1936 C1942 1.383 . S
C1937 C1933 1.495 . S
C1937 H1943 0.959 . S
C1937 H1944 0.961 . S
C1937 H1945 0.960 . S
C1938 C1936 1.381 . S
C1938 C1939 1.394 . S
C1938 H1946 0.930 . S
C1939 C1938 1.394 . S
C1939 C1940 1.383 . S
C1939 H1947 0.929 . S
C1940 C1939 1.383 . S
C1940 C1941 1.377 . S
C1941 H1925 0.930 . S
C1941 C1940 1.377 . S
C1941 C1942 1.379 . S
C1942 H1926 0.931 . S
C1942 C1936 1.383 . S
C1942 C1941 1.379 . S
H1943 C1937 0.959 . S
H1944 C1937 0.961 . S
H1945 C1937 0.960 . S
H1946 C1938 0.930 . S
H1947 C1939 0.929 . S
H1948 C1956 0.929 . S
H1949 C1958 0.930 . S
H1950 C1960 0.930 . S
H1951 C1963 0.929 . S
H1952 C1966 0.930 . S
H1953 C1968 0.960 . S
H1954 C1968 0.960 . S
H1955 C1968 0.960 . S
C1956 H1948 0.929 . S
C1956 C1957 1.377 . S
C1956 C1958 1.384 . S
C1957 C1956 1.377 . S
C1957 C1963 1.390 . S
C1958 H1949 0.930 . S
C1958 C1956 1.384 . S
C1958 C1959 1.372 . S
C1959 C1958 1.372 . S
C1959 C1960 1.400 . S
C1959 C1964 1.490 . S
C1960 H1950 0.930 . S
C1960 C1959 1.400 . S
C1960 C1963 1.386 . S
H1961 C1977 0.930 . S
H1962 C1978 0.931 . S
C1963 H1951 0.929 . S
C1963 C1957 1.390 . S
C1963 C1960 1.386 . S
C1964 C1959 1.490 . S
C1964 C1966 1.395 . S
C1964 C1967 1.403 . S
H1965 C1971 0.930 . S
C1966 H1952 0.930 . S
C1966 C1964 1.395 . S
C1966 C1969 1.403 . S
C1967 C1964 1.403 . S
C1967 C1968 1.524 . S
C1967 C1971 1.400 . S
C1968 H1953 0.960 . S
C1968 H1954 0.960 . S
C1968 H1955 0.960 . S
C1968 C1967 1.524 . S
C1969 C1966 1.403 . S
C1969 C1970 1.392 . S
C1969 C1973 1.495 . S
C1970 C1969 1.392 . S
C1970 C1971 1.385 . S
C1970 C1972 1.478 . S
C1971 H1965 0.930 . S
C1971 C1967 1.400 . S
C1971 C1970 1.385 . S
C1972 C1970 1.478 . S
C1972 C1974 1.381 . S
C1972 C1978 1.383 . S
C1973 C1969 1.495 . S
C1973 H1979 0.959 . S
C1973 H1980 0.961 . S
C1973 H1981 0.960 . S
C1974 C1972 1.381 . S
C1974 C1975 1.394 . S
C1974 H1982 0.930 . S
C1975 C1974 1.394 . S
C1975 C1976 1.383 . S
C1975 H1983 0.929 . S
C1976 C1975 1.383 . S
C1976 C1977 1.377 . S
C1977 H1961 0.930 . S
C1977 C1976 1.377 . S
C1977 C1978 1.379 . S
C1978 H1962 0.931 . S
C1978 C1972 1.383 . S
C1978 C1977 1.379 . S
H1979 C1973 0.959 . S
H1980 C1973 0.961 . S
H1981 C1973 0.960 . S
H1982 C1974 0.930 . S
H1983 C1975 0.929 . S
C553 C2 1.770 . S
C572 C512 1.767 . S
C589 C36 1.771 . S
C608 C410 1.765 . S
C625 C444 1.770 . S
C644 C70 1.768 . S
C661 C104 1.770 . S
C680 C478 1.767 . S
C697 C308 1.770 . S
C716 C138 1.768 . S
C733 C342 1.770 . S
C752 C172 1.764 . S
C769 C376 1.770 . S
C788 C206 1.767 . S
C805 C274 1.771 . S
C824 C240 1.766 . S
C841 C33 1.153 . S
C860 C271 1.154 . S
C877 C67 1.158 . S
C896 C169 1.170 . S
C913 C101 1.155 . S
C932 C203 1.160 . S
C949 C135 1.157 . S
C968 C237 1.170 . S
C985 C543 1.151 . S
C1004 C305 1.155 . S
C1021 C441 1.152 . S
C1040 C339 1.149 . S
C1057 C475 1.151 . S
C1076 C373 1.157 . S
C1093 C407 1.158 . S
C1112 C509 1.142 . S
C1129 C20 1.529 . S
C1148 C156 1.525 . S
C1165 C190 1.529 . S
C1184 C54 1.523 . S
C1201 C224 1.533 . S
C1220 C88 1.540 . S
C1237 C122 1.529 . S
C1256 C258 1.529 . S
C1273 C428 1.533 . S
C1292 C292 1.518 . S
C1309 C326 1.529 . S
C1328 C462 1.541 . S
C1345 C360 1.533 . S
C1364 C496 1.519 . S
C1381 C530 1.530 . S
C1400 C394 1.533 . S
C1417 C5 1.158 . S
C1436 C9 1.146 . S
C1453 C43 1.118 . S
C1472 C39 1.146 . S
C1489 C73 1.158 . S
C1508 C77 1.132 . S
C1525 C111 1.118 . S
C1544 C107 1.150 . S
C1561 C141 1.159 . S
C1580 C145 1.155 . S
C1597 C175 1.157 . S
C1616 C179 1.113 . S
C1633 C209 1.158 . S
C1652 C213 1.123 . S
C1669 C243 1.156 . S
C1688 C247 1.108 . S
C1705 C281 1.125 . S
C1724 C277 1.150 . S
C1741 C315 1.129 . S
C1760 C311 1.166 . S
C1777 C349 1.131 . S
C1796 C345 1.146 . S
C1813 C383 1.119 . S
C1832 C379 1.158 . S
C1849 C413 1.158 . S
C1868 C417 1.094 . S
C1885 C447 1.157 . S
C1904 C451 1.111 . S
C1921 C485 1.126 . S
C1940 C481 1.149 . S
C1957 C519 1.127 . S
C1976 C515 1.148 . S
