# Generated by pormake.
# Topology vbn, (6)-cn, num edge types: 1
# Building blocks:
#     Node 0, Type 0, BuildingBlock: IZENUY_clean_sbu_0, # of connection points: 6
#     Node 1, Type 0, BuildingBlock: IZENUY_clean_sbu_0, # of connection points: 6
#     Node 2, Type 0, BuildingBlock: IZENUY_clean_sbu_0, # of connection points: 6
#     Node 3, Type 0, BuildingBlock: IZENUY_clean_sbu_0, # of connection points: 6
#     Node 4, Type 0, BuildingBlock: IZENUY_clean_sbu_0, # of connection points: 6
#     Node 5, Type 0, BuildingBlock: IZENUY_clean_sbu_0, # of connection points: 6
#     Node 6, Type 0, BuildingBlock: IZENUY_clean_sbu_0, # of connection points: 6
#     Node 7, Type 0, BuildingBlock: IZENUY_clean_sbu_0, # of connection points: 6
#     Edge 8, Type (0, 0), BuildingBlock: XUDNAN_clean_linker_2, # of connection points: 2
#     Edge 9, Type (0, 0), BuildingBlock: XUDNAN_clean_linker_2, # of connection points: 2
#     Edge 10, Type (0, 0), BuildingBlock: XUDNAN_clean_linker_2, # of connection points: 2
#     Edge 11, Type (0, 0), BuildingBlock: XUDNAN_clean_linker_2, # of connection points: 2
#     Edge 12, Type (0, 0), BuildingBlock: XUDNAN_clean_linker_2, # of connection points: 2
#     Edge 13, Type (0, 0), BuildingBlock: XUDNAN_clean_linker_2, # of connection points: 2
#     Edge 14, Type (0, 0), BuildingBlock: XUDNAN_clean_linker_2, # of connection points: 2
#     Edge 15, Type (0, 0), BuildingBlock: XUDNAN_clean_linker_2, # of connection points: 2
#     Edge 16, Type (0, 0), BuildingBlock: XUDNAN_clean_linker_2, # of connection points: 2
#     Edge 17, Type (0, 0), BuildingBlock: XUDNAN_clean_linker_2, # of connection points: 2
#     Edge 18, Type (0, 0), BuildingBlock: XUDNAN_clean_linker_2, # of connection points: 2
#     Edge 19, Type (0, 0), BuildingBlock: XUDNAN_clean_linker_2, # of connection points: 2
#     Edge 20, Type (0, 0), BuildingBlock: XUDNAN_clean_linker_2, # of connection points: 2
#     Edge 21, Type (0, 0), BuildingBlock: XUDNAN_clean_linker_2, # of connection points: 2
#     Edge 22, Type (0, 0), BuildingBlock: XUDNAN_clean_linker_2, # of connection points: 2
#     Edge 23, Type (0, 0), BuildingBlock: XUDNAN_clean_linker_2, # of connection points: 2
#     Edge 24, Type (0, 0), BuildingBlock: XUDNAN_clean_linker_2, # of connection points: 2
#     Edge 25, Type (0, 0), BuildingBlock: XUDNAN_clean_linker_2, # of connection points: 2
#     Edge 26, Type (0, 0), BuildingBlock: XUDNAN_clean_linker_2, # of connection points: 2
#     Edge 27, Type (0, 0), BuildingBlock: XUDNAN_clean_linker_2, # of connection points: 2
#     Edge 28, Type (0, 0), BuildingBlock: XUDNAN_clean_linker_2, # of connection points: 2
#     Edge 29, Type (0, 0), BuildingBlock: XUDNAN_clean_linker_2, # of connection points: 2
#     Edge 30, Type (0, 0), BuildingBlock: XUDNAN_clean_linker_2, # of connection points: 2
#     Edge 31, Type (0, 0), BuildingBlock: XUDNAN_clean_linker_2, # of connection points: 2
# Relax obj value: 0.241
# Max RMSD: 0.242
# Mean RMSD: 0.242
data_MOF--net-vbn--node1-IZENUY_clean_sbu_0--edge1-XUDNAN_clean_linker_2
_symmetry_space_group_name_H-M    P1
_symmetry_Int_Tables_number       1
_symmetry_cell_setting            triclinic
loop_
_symmetry_equiv_pos_as_xyz
'x, y, z'
_cell_length_a     25.203147
_cell_length_b     27.856323
_cell_length_c     45.810987
_cell_angle_alpha  89.723442
_cell_angle_beta   90.177609
_cell_angle_gamma 90.177053
loop_
_atom_site_label
_atom_site_type_symbol
_atom_site_fract_x
_atom_site_fract_y
_atom_site_fract_z
_atom_type_partial_charge
Fe0 Fe 0.43292 0.35249 0.41232 0.0
Fe1 Fe 0.40013 0.27475 0.4559 0.0
O2 O 0.38838 0.30698 0.42309 0.0
Fe3 Fe 0.3317 0.29502 0.40182 0.0
O4 O 0.30811 0.35524 0.40649 0.0
O5 O 0.38232 0.3914 0.39494 0.0
O6 O 0.41861 0.38428 0.44537 0.0
C7 C 0.43667 0.36989 0.46931 0.0
C8 C 0.41371 0.31137 0.35974 0.0
O9 O 0.43674 0.32495 0.47465 0.0
C10 C 0.35771 0.20427 0.41733 0.0
O11 O 0.49201 0.32192 0.42827 0.0
O12 O 0.46111 0.25123 0.44121 0.0
O13 O 0.36472 0.30883 0.36651 0.0
O14 O 0.448 0.32274 0.37855 0.0
C15 C 0.29446 0.29082 0.46046 0.0
O16 O 0.36663 0.21894 0.44315 0.0
O17 O 0.35181 0.23359 0.39661 0.0
C18 C 0.49988 0.27836 0.43563 0.0
O19 O 0.33957 0.29651 0.47193 0.0
O20 O 0.28929 0.27995 0.43361 0.0
C21 C 0.33339 0.39307 0.40106 0.0
Fe22 Fe 0.18769 0.22397 0.89514 0.0
Fe23 Fe 0.09832 0.15871 0.91753 0.0
O24 O 0.14096 0.20848 0.92257 0.0
Fe25 Fe 0.13696 0.24187 0.95539 0.0
O26 O 0.2043 0.22767 0.96469 0.0
O27 O 0.23956 0.24292 0.92148 0.0
O28 O 0.21833 0.16536 0.89696 0.0
C29 C 0.19499 0.12556 0.89531 0.0
C30 C 0.15939 0.3137 0.91238 0.0
O31 O 0.1449 0.12339 0.89563 0.0
C32 C 0.03241 0.22566 0.94799 0.0
O33 O 0.14318 0.20731 0.86423 0.0
O34 O 0.06869 0.18639 0.88598 0.0
O35 O 0.15766 0.29935 0.93865 0.0
O36 O 0.16155 0.28426 0.89166 0.0
C37 C 0.12011 0.14512 0.97451 0.0
O38 O 0.04365 0.18396 0.93894 0.0
O39 O 0.06794 0.2578 0.94849 0.0
C40 C 0.09299 0.20165 0.8638 0.0
O41 O 0.12573 0.12862 0.94919 0.0
O42 O 0.11676 0.19016 0.97821 0.0
C43 C 0.244 0.23523 0.94876 0.0
Fe44 Fe 0.93821 0.17408 0.61824 0.0
Fe45 Fe 0.89138 0.24754 0.57551 0.0
O46 O 0.88703 0.21446 0.60835 0.0
Fe47 Fe 0.83133 0.2221 0.6312 0.0
O48 O 0.81305 0.16001 0.62739 0.0
O49 O 0.8926 0.13021 0.63593 0.0
O50 O 0.92852 0.13968 0.58577 0.0
C51 C 0.93245 0.1562 0.5604 0.0
C52 C 0.91745 0.2127 0.67143 0.0
O53 O 0.92827 0.2008 0.55531 0.0
C54 C 0.8489 0.31455 0.61555 0.0
O55 O 0.99229 0.21023 0.60096 0.0
O56 O 0.95131 0.27624 0.58782 0.0
O57 O 0.86816 0.21044 0.66554 0.0
O58 O 0.95143 0.20573 0.65183 0.0
C59 C 0.78756 0.22312 0.57401 0.0
O60 O 0.8551 0.30055 0.58945 0.0
O61 O 0.84663 0.28485 0.63625 0.0
C62 C 0.9938 0.25366 0.59209 0.0
O63 O 0.83184 0.22012 0.56169 0.0
O64 O 0.78422 0.23484 0.60073 0.0
C65 C 0.84281 0.1247 0.63231 0.0
Fe66 Fe 0.595 0.36075 0.11327 0.0
Fe67 Fe 0.6486 0.2822 0.07823 0.0
O68 O 0.64367 0.31587 0.11057 0.0
Fe69 Fe 0.68801 0.30494 0.13969 0.0
O70 O 0.71354 0.3651 0.13782 0.0
O71 O 0.63626 0.40145 0.13578 0.0
O72 O 0.62255 0.39224 0.08246 0.0
C73 C 0.61989 0.37543 0.05721 0.0
C74 C 0.58908 0.32111 0.16776 0.0
O75 O 0.62228 0.33026 0.05373 0.0
C76 C 0.67169 0.21338 0.12303 0.0
O77 O 0.54528 0.32791 0.09044 0.0
O78 O 0.58315 0.25794 0.08371 0.0
O79 O 0.63957 0.32015 0.16879 0.0
O80 O 0.56537 0.33179 0.14441 0.0
C81 C 0.75254 0.29766 0.08868 0.0
O82 O 0.67482 0.22721 0.09655 0.0
O83 O 0.66529 0.24376 0.14296 0.0
C84 C 0.54237 0.28397 0.08281 0.0
O85 O 0.71438 0.30558 0.07153 0.0
O86 O 0.74386 0.28762 0.11543 0.0
C87 C 0.68649 0.4029 0.13831 0.0
Fe88 Fe 0.59556 0.6644 0.62517 0.0
Fe89 Fe 0.63909 0.73047 0.57745 0.0
O90 O 0.64244 0.70739 0.6134 0.0
Fe91 Fe 0.69288 0.72681 0.63772 0.0
O92 O 0.71877 0.66669 0.64083 0.0
O93 O 0.64177 0.63289 0.6499 0.0
O94 O 0.6159 0.62252 0.59787 0.0
C95 C 0.61374 0.63074 0.57094 0.0
C96 C 0.60085 0.72073 0.67323 0.0
O97 O 0.61359 0.67367 0.56118 0.0
C98 C 0.66841 0.81181 0.61218 0.0
O99 O 0.54155 0.6869 0.60182 0.0
O100 O 0.57247 0.75368 0.58285 0.0
O101 O 0.65122 0.72027 0.67113 0.0
O102 O 0.5723 0.70424 0.65307 0.0
C103 C 0.74567 0.71968 0.58306 0.0
O104 O 0.66529 0.791 0.58751 0.0
O105 O 0.66989 0.78784 0.63553 0.0
C106 C 0.53391 0.72618 0.58838 0.0
O107 O 0.7042 0.70816 0.56955 0.0
O108 O 0.74341 0.73711 0.60864 0.0
C109 C 0.69185 0.63036 0.64785 0.0
Fe110 Fe 0.92848 0.85897 0.12561 0.0
Fe111 Fe 0.88803 0.79688 0.07561 0.0
O112 O 0.88203 0.81779 0.11171 0.0
Fe113 Fe 0.82882 0.79877 0.13396 0.0
O114 O 0.80428 0.85961 0.13614 0.0
O115 O 0.88086 0.88952 0.14981 0.0
O116 O 0.91021 0.90238 0.0985 0.0
C117 C 0.91523 0.89602 0.07155 0.0
C118 C 0.9175 0.80046 0.1724 0.0
O119 O 0.91713 0.85378 0.06112 0.0
C120 C 0.8557 0.71469 0.10868 0.0
O121 O 0.98432 0.83688 0.10339 0.0
O122 O 0.95288 0.77182 0.08284 0.0
O123 O 0.86737 0.80316 0.16885 0.0
O124 O 0.9485 0.81697 0.15336 0.0
C125 C 0.78148 0.80913 0.07784 0.0
O126 O 0.85979 0.73647 0.08423 0.0
O127 O 0.85076 0.73754 0.13215 0.0
C128 C 0.99181 0.79779 0.08986 0.0
O129 O 0.82428 0.82127 0.06595 0.0
O130 O 0.78141 0.79011 0.10313 0.0
C131 C 0.83149 0.89427 0.14538 0.0
Fe132 Fe 0.08853 0.85415 0.41079 0.0
Fe133 Fe 0.13606 0.78956 0.45807 0.0
O134 O 0.13754 0.81296 0.42216 0.0
Fe135 Fe 0.18906 0.79633 0.39815 0.0
O136 O 0.21209 0.85751 0.39563 0.0
O137 O 0.13381 0.88995 0.38762 0.0
O138 O 0.10698 0.89499 0.43926 0.0
C139 C 0.10015 0.88583 0.46569 0.0
C140 C 0.09799 0.80184 0.36105 0.0
O141 O 0.10357 0.84281 0.4747 0.0
C142 C 0.16964 0.71024 0.42352 0.0
O143 O 0.03481 0.82574 0.43296 0.0
O144 O 0.07276 0.76144 0.45148 0.0
O145 O 0.14806 0.80177 0.36468 0.0
O146 O 0.0677 0.81626 0.38097 0.0
C147 C 0.24175 0.80301 0.45341 0.0
O148 O 0.16611 0.73164 0.4479 0.0
O149 O 0.16972 0.73374 0.39988 0.0
C150 C 0.03157 0.78463 0.44513 0.0
O151 O 0.20029 0.81613 0.46651 0.0
O152 O 0.2387 0.78748 0.42742 0.0
C153 C 0.184 0.8933 0.38921 0.0
Fe154 Fe 0.39188 0.73141 0.95895 0.0
Fe155 Fe 0.33302 0.72565 0.90069 0.0
O156 O 0.38526 0.70671 0.92374 0.0
Fe157 Fe 0.43037 0.66272 0.91183 0.0
O158 O 0.41175 0.62333 0.94099 0.0
O159 O 0.4206 0.67596 0.976 0.0
O160 O 0.32728 0.70922 0.96936 0.0
C161 C 0.28541 0.72394 0.95732 0.0
C162 C 0.49514 0.72967 0.94322 0.0
O163 O 0.28655 0.73897 0.93106 0.0
C164 C 0.42009 0.71478 0.86182 0.0
O165 O 0.36508 0.79131 0.9482 0.0
O166 O 0.35809 0.78646 0.90043 0.0
O167 O 0.48804 0.68788 0.93263 0.0
O168 O 0.45625 0.75514 0.95024 0.0
C169 C 0.33013 0.62867 0.89268 0.0
O170 O 0.37036 0.71641 0.8664 0.0
O171 O 0.45113 0.69938 0.88129 0.0
C172 C 0.36228 0.81132 0.9232 0.0
O173 O 0.3053 0.66593 0.89992 0.0
O174 O 0.38041 0.62935 0.88998 0.0
C175 C 0.41732 0.63258 0.96752 0.0
H176 H 0.16991 0.97298 0.42246 0.0
H177 H 0.26184 0.91648 0.35073 0.0
H178 H 0.31806 0.9896 0.35104 0.0
H179 H 0.17655 0.10058 0.40259 0.0
H180 H 0.18413 0.11968 0.43992 0.0
H181 H 0.14806 0.06544 0.43179 0.0
H182 H 0.20967 0.01819 0.46673 0.0
H183 H 0.24648 0.07213 0.47461 0.0
H184 H 0.28043 0.0199 0.46112 0.0
H185 H 0.36432 0.06812 0.35942 0.0
H186 H 0.3979 0.14747 0.37517 0.0
H187 H 0.28193 0.14978 0.44477 0.0
C188 C 0.20083 0.97688 0.40625 0.0
C189 C 0.21073 0.94006 0.38588 0.0
C190 C 0.25303 0.94504 0.36591 0.0
C191 C 0.28528 0.9862 0.36612 0.0
C192 C 0.27541 0.02142 0.38694 0.0
C193 C 0.23426 0.01722 0.40668 0.0
C194 C 0.23436 0.05886 0.42797 0.0
C195 C 0.18271 0.08787 0.42539 0.0
C196 C 0.24329 0.04119 0.45947 0.0
C197 C 0.28174 0.08734 0.41692 0.0
C198 C 0.30458 0.06514 0.39313 0.0
C199 C 0.34722 0.08556 0.37822 0.0
C200 C 0.36625 0.13038 0.38739 0.0
C201 C 0.34345 0.15383 0.41159 0.0
C202 C 0.30118 0.1317 0.42682 0.0
H203 H 0.25536 0.35423 0.92231 0.0
H204 H 0.09892 0.38455 0.88762 0.0
H205 H 0.12754 0.46786 0.87572 0.0
H206 H 0.28253 0.46843 0.95447 0.0
H207 H 0.35137 0.46792 0.94393 0.0
H208 H 0.31687 0.41221 0.94994 0.0
H209 H 0.3447 0.3858 0.89795 0.0
H210 H 0.37773 0.44248 0.89205 0.0
H211 H 0.32704 0.42266 0.86698 0.0
H212 H 0.17248 0.54876 0.87034 0.0
H213 H 0.22976 0.62087 0.87101 0.0
H214 H 0.35938 0.53608 0.90603 0.0
C215 C 0.22717 0.3787 0.91236 0.0
C216 C 0.17474 0.36375 0.90626 0.0
C217 C 0.13902 0.39591 0.89271 0.0
C218 C 0.15507 0.44303 0.8858 0.0
C219 C 0.20728 0.45676 0.89201 0.0
C220 C 0.24289 0.42537 0.90477 0.0
C221 C 0.29682 0.44869 0.90886 0.0
C222 C 0.31272 0.44935 0.94127 0.0
C223 C 0.33906 0.42339 0.89035 0.0
C224 C 0.28572 0.49881 0.89733 0.0
C225 C 0.23384 0.50259 0.88759 0.0
C226 C 0.21332 0.546 0.8775 0.0
C227 C 0.24619 0.58675 0.87792 0.0
C228 C 0.29928 0.58391 0.88806 0.0
C229 C 0.31947 0.53906 0.89738 0.0
H230 H 0.66253 0.54518 0.62339 0.0
H231 H 0.78468 0.61222 0.67624 0.0
H232 H 0.83819 0.53798 0.6738 0.0
H233 H 0.67826 0.42073 0.65047 0.0
H234 H 0.6673 0.39615 0.61459 0.0
H235 H 0.63684 0.45211 0.62461 0.0
H236 H 0.67969 0.49144 0.57889 0.0
H237 H 0.71203 0.43596 0.56985 0.0
H238 H 0.75079 0.48985 0.57475 0.0
H239 H 0.87874 0.4573 0.665 0.0
H240 H 0.90498 0.37575 0.64937 0.0
H241 H 0.76125 0.36435 0.5977 0.0
C242 C 0.69981 0.54361 0.63516 0.0
C243 C 0.71908 0.58382 0.65067 0.0
C244 C 0.76898 0.58133 0.66478 0.0
C245 C 0.79964 0.53947 0.66337 0.0
C246 C 0.78029 0.50089 0.64719 0.0
C247 C 0.73159 0.50257 0.63325 0.0
C248 C 0.72185 0.45751 0.61549 0.0
C249 C 0.67319 0.42997 0.62698 0.0
C250 C 0.71576 0.46943 0.58281 0.0
C251 C 0.7728 0.43032 0.62158 0.0
C252 C 0.80558 0.45578 0.64024 0.0
C253 C 0.85373 0.43725 0.65015 0.0
C254 C 0.86845 0.39117 0.64109 0.0
C255 C 0.83574 0.36477 0.62186 0.0
C256 C 0.78756 0.38467 0.61177 0.0
H257 H 0.69761 0.13637 0.08773 0.0
H258 H 0.6842 0.17889 0.17855 0.0
H259 H 0.72272 0.10199 0.19399 0.0
H260 H 0.66416 1.00896 0.1008 0.0
H261 H 0.70993 0.98785 0.07361 0.0
H262 H 0.67921 0.04582 0.06942 0.0
H263 H 0.77219 0.08635 0.0655 0.0
H264 H 0.80194 0.02799 0.06886 0.0
H265 H 0.82076 0.07519 0.09367 0.0
H266 H 0.7713 0.0242 0.19984 0.0
H267 H 0.81585 0.94517 0.19539 0.0
H268 H 0.79183 0.94955 0.10173 0.0
C269 C 0.70192 0.12918 0.11086 0.0
C270 C 0.68797 0.16407 0.13182 0.0
C271 C 0.69451 0.15307 0.16192 0.0
C272 C 0.7166 0.10941 0.17101 0.0
C273 C 0.73129 0.07647 0.14985 0.0
C274 C 0.72329 0.08526 0.12042 0.0
C275 C 0.7425 0.0434 0.10226 0.0
C276 C 0.69618 0.02013 0.08554 0.0
C277 C 0.78701 0.0592 0.08137 0.0
C278 C 0.76332 1.01032 0.12608 0.0
C279 C 0.75694 0.03031 0.15337 0.0
C280 C 0.77572 1.00773 0.17865 0.0
C281 C 0.80107 0.96312 0.17599 0.0
C282 C 0.80638 0.94152 0.14836 0.0
C283 C 0.78732 0.96534 0.12315 0.0
H284 H 0.8583 0.04238 0.60045 0.0
H285 H 0.76516 0.10297 0.67051 0.0
H286 H 0.70755 0.03111 0.67067 0.0
H287 H 0.74929 0.99277 0.56157 0.0
H288 H 0.7825 0.93877 0.55027 0.0
H289 H 0.82031 0.99263 0.55695 0.0
H290 H 0.87914 0.94752 0.59422 0.0
H291 H 0.84221 0.89322 0.58744 0.0
H292 H 0.84854 0.9156 0.62412 0.0
H293 H 0.65848 0.95511 0.66259 0.0
H294 H 0.62448 0.87489 0.6494 0.0
H295 H 0.74525 0.86313 0.58266 0.0
C296 C 0.82683 0.03953 0.61642 0.0
C297 C 0.8168 0.07753 0.63605 0.0
C298 C 0.77398 0.07372 0.6558 0.0
C299 C 0.74084 0.03328 0.65585 0.0
C300 C 0.75054 0.99709 0.6357 0.0
C301 C 0.79273 0.99938 0.61651 0.0
C302 C 0.79283 0.95586 0.59654 0.0
C303 C 0.78581 0.97093 0.56443 0.0
C304 C 0.84372 0.92631 0.60086 0.0
C305 C 0.7443 0.92886 0.60766 0.0
C306 C 0.72059 0.95358 0.63021 0.0
C307 C 0.67644 0.93552 0.64486 0.0
C308 C 0.6571 0.89015 0.63707 0.0
C309 C 0.68138 0.86342 0.61461 0.0
C310 C 0.72488 0.88351 0.59926 0.0
H311 H 0.77218 0.66555 0.08511 0.0
H312 H 0.91222 0.64944 0.13923 0.0
H313 H 0.8829 0.56784 0.15347 0.0
H314 H 0.68558 0.61312 0.1345 0.0
H315 H 0.64391 0.58249 0.10859 0.0
H316 H 0.67867 0.63637 0.09792 0.0
H317 H 0.72361 0.59283 0.05525 0.0
H318 H 0.6891 0.53823 0.06457 0.0
H319 H 0.7603 0.53846 0.06201 0.0
H320 H 0.83575 0.49106 0.16448 0.0
H321 H 0.77691 0.42044 0.16875 0.0
H322 H 0.66369 0.48779 0.1101 0.0
C323 C 0.79761 0.64388 0.09892 0.0
C324 C 0.84529 0.66283 0.1104 0.0
C325 C 0.8764 0.63469 0.12963 0.0
C326 C 0.85978 0.58862 0.13803 0.0
C327 C 0.81148 0.5716 0.12732 0.0
C328 C 0.78105 0.59803 0.10795 0.0
C329 C 0.72905 0.57261 0.10139 0.0
C330 C 0.68148 0.60296 0.11115 0.0
C331 C 0.72531 0.5598 0.06887 0.0
C332 C 0.73488 0.52795 0.12019 0.0
C333 C 0.78288 0.52815 0.13487 0.0
C334 C 0.79807 0.49047 0.15309 0.0
C335 C 0.76424 0.45069 0.15555 0.0
C336 C 0.71545 0.449 0.14014 0.0
C337 C 0.7001 0.48866 0.12272 0.0
H338 H 0.32796 0.47793 0.36884 0.0
H339 H 0.28185 0.41114 0.45064 0.0
H340 H 0.23169 0.48333 0.46406 0.0
H341 H 0.34395 0.59884 0.39831 0.0
H342 H 0.31769 0.62816 0.36625 0.0
H343 H 0.35081 0.57122 0.36302 0.0
H344 H 0.26771 0.53599 0.33734 0.0
H345 H 0.23415 0.59269 0.34082 0.0
H346 H 0.20425 0.53879 0.35531 0.0
H347 H 0.18701 0.56144 0.46912 0.0
H348 H 0.15224 0.64401 0.46628 0.0
H349 H 0.22475 0.66183 0.38103 0.0
C350 C 0.30752 0.47893 0.38958 0.0
C351 C 0.30772 0.4388 0.40854 0.0
C352 C 0.28076 0.44115 0.43555 0.0
C353 C 0.25248 0.48206 0.44344 0.0
C354 C 0.25161 0.52059 0.42409 0.0
C355 C 0.27855 0.51978 0.39781 0.0
C356 C 0.2707 0.5666 0.38128 0.0
C357 C 0.32396 0.59275 0.37697 0.0
C358 C 0.24252 0.55798 0.35195 0.0
C359 C 0.2352 0.5934 0.40238 0.0
C360 C 0.2249 0.56608 0.42693 0.0
C361 C 0.19453 0.58325 0.44996 0.0
C362 C 0.17485 0.63011 0.44813 0.0
C363 C 0.18527 0.65914 0.42337 0.0
C364 C 0.21526 0.64018 0.40002 0.0
H365 H 0.17307 0.03998 0.92243 0.0
H366 H 0.2906 0.112 0.86878 0.0
H367 H 0.34853 0.04059 0.87216 0.0
H368 H 0.26887 0.9849 0.97122 0.0
H369 H 0.22974 0.93117 0.9761 0.0
H370 H 0.19772 0.9875 0.96803 0.0
H371 H 0.15143 0.94789 0.92344 0.0
H372 H 0.18436 0.89207 0.93141 0.0
H373 H 0.19141 0.91952 0.89591 0.0
H374 H 0.39213 0.96023 0.87999 0.0
H375 H 0.41891 0.87708 0.89246 0.0
H376 H 0.2773 0.86003 0.94485 0.0
C377 C 0.21056 0.04027 0.91093 0.0
C378 C 0.22697 0.08108 0.89478 0.0
C379 C 0.27706 0.08083 0.8809 0.0
C380 C 0.31027 0.04054 0.88282 0.0
C381 C 0.29337 1.00118 0.89931 0.0
C382 C 0.24483 1.0008 0.91328 0.0
C383 C 0.23712 0.95472 0.9306 0.0
C384 C 0.23314 0.96519 0.96345 0.0
C385 C 0.18819 0.9269 0.91967 0.0
C386 C 0.28827 0.92867 0.92354 0.0
C387 C 0.32015 0.95616 0.90544 0.0
C388 C 0.36796 0.93874 0.89455 0.0
C389 C 0.38305 0.8917 0.90186 0.0
C390 C 0.35104 0.86302 0.92032 0.0
C391 C 0.30343 0.882 0.93161 0.0
H392 H 0.45451 0.39405 0.52765 0.0
H393 H 0.51054 0.41894 0.43935 0.0
H394 H 0.56976 0.48253 0.45668 0.0
H395 H 0.44775 0.51189 0.548 0.0
H396 H 0.47218 0.50517 0.5848 0.0
H397 H 0.4404 0.45538 0.56696 0.0
H398 H 0.52397 0.40201 0.57557 0.0
H399 H 0.55397 0.45176 0.59455 0.0
H400 H 0.58808 0.42434 0.56444 0.0
H401 H 0.60951 0.55293 0.48081 0.0
H402 H 0.63583 0.6206 0.51269 0.0
H403 H 0.56019 0.54924 0.58605 0.0
C404 C 0.48052 0.41195 0.51227 0.0
C405 C 0.47752 0.40177 0.48217 0.0
C406 C 0.51168 0.42645 0.46253 0.0
C407 C 0.54583 0.46255 0.47212 0.0
C408 C 0.54625 0.4735 0.50159 0.0
C409 C 0.51553 0.44841 0.5216 0.0
C410 C 0.52125 0.47026 0.55171 0.0
C411 C 0.46718 0.48665 0.56354 0.0
C412 C 0.54845 0.43496 0.57281 0.0
C413 C 0.55716 0.51275 0.54492 0.0
C414 C 0.57149 0.51369 0.51592 0.0
C415 C 0.59995 0.55201 0.50381 0.0
C416 C 0.61441 0.59042 0.52193 0.0
C417 C 0.60078 0.58983 0.55179 0.0
C418 C 0.57231 0.55015 0.56339 0.0
H419 H 0.98668 0.89969 0.02613 0.0
H420 H 0.88701 0.98779 0.08123 0.0
H421 H 0.93529 0.06005 0.06527 0.0
H422 H 0.10531 0.96062 0.039 0.0
H423 H 0.13055 0.95733 1.00233 0.0
H424 H 0.08539 0.91205 1.01549 0.0
H425 H 0.0208 0.92899 0.97254 0.0
H426 H 0.06687 0.97299 0.95865 0.0
H427 H 0.99903 0.98962 0.96568 0.0
H428 H 1.00146 0.12016 0.04971 0.0
H429 H 0.06481 0.17098 0.02307 0.0
H430 H 0.11941 0.04625 0.97519 0.0
C431 C 0.9737 0.93441 0.03383 0.0
C432 C 0.93305 0.93829 0.05484 0.0
C433 C 0.91789 0.98422 0.065 0.0
C434 C 0.94551 0.02536 0.05639 0.0
C435 C 0.98782 0.02003 0.03733 0.0
C436 C 1.00072 0.97621 0.02523 0.0
C437 C 0.048 0.98108 1.00502 0.0
C438 C 0.09508 0.95099 1.01613 0.0
C439 C 0.03274 0.96738 0.97361 0.0
C440 C 0.05927 0.03444 1.00772 0.0
C441 C 0.02491 0.05572 0.02714 0.0
C442 C 0.02805 0.10423 0.03401 0.0
C443 C 0.06474 0.13272 0.01897 0.0
C444 C 0.09654 0.1128 0.99666 0.0
C445 C 0.09545 0.06257 0.99201 0.0
H446 H 0.03106 0.11929 0.5577 0.0
H447 H 0.87626 0.11566 0.51641 0.0
H448 H 0.90261 0.04324 0.48884 0.0
H449 H 0.10769 0.07475 0.49341 0.0
H450 H 0.15214 0.04039 0.51621 0.0
H451 H 0.12319 0.09474 0.52979 0.0
H452 H 0.08681 0.04845 0.57438 0.0
H453 H 0.11413 0.9933 0.56076 0.0
H454 H 0.04425 0.99717 0.56867 0.0
H455 H 0.9426 0.96893 0.46944 0.0
H456 H 0.99776 0.90186 0.45345 0.0
H457 H 0.12706 0.95099 0.5084 0.0
C458 C 1.0037 0.10418 0.54189 0.0
C459 C 0.95221 0.12322 0.53835 0.0
C460 C 0.91634 0.10208 0.51851 0.0
C461 C 0.9308 0.06077 0.50314 0.0
C462 C 0.98118 0.0416 0.50801 0.0
C463 C 0.01763 0.06314 0.52634 0.0
C464 C 0.0684 0.03411 0.52843 0.0
C465 C 0.11566 0.06268 0.51619 0.0
C466 C 0.07899 0.01727 0.55994 0.0
C467 C 0.05444 0.99234 0.50889 0.0
C468 C 1.00385 0.99754 0.49746 0.0
C469 C 0.98206 0.96434 0.47838 0.0
C470 C 1.01349 0.9258 0.46984 0.0
C471 C 0.0658 0.92009 0.48073 0.0
C472 C 0.0865 0.95359 0.5007 0.0
H473 H 0.50016 0.62598 1.00673 0.0
H474 H 0.37214 0.54483 0.96719 0.0
H475 H 0.41509 0.46894 0.98246 0.0
H476 H 0.60464 0.54639 0.98598 0.0
H477 H 0.64069 0.55786 0.01927 0.0
H478 H 0.59509 0.60176 1.00486 0.0
H479 H 0.54891 0.59896 0.05725 0.0
H480 H 0.59294 0.55159 0.06854 0.0
H481 H 0.5223 0.54238 0.06956 0.0
H482 H 0.47996 0.40285 0.99355 0.0
H483 H 0.54518 0.34856 1.01685 0.0
H484 H 0.6298 0.47227 0.0507 0.0
C485 C 0.4801 0.59232 1.00243 0.0
C486 C 0.43281 0.59116 0.98587 0.0
C487 C 0.40833 0.54631 0.97999 0.0
C488 C 0.43273 0.50311 0.98811 0.0
C489 C 0.48145 0.50532 1.00232 0.0
C490 C 0.50388 0.5486 1.0105 0.0
C491 C 0.55661 0.54054 0.02567 0.0
C492 C 0.60208 0.56294 1.00797 0.0
C493 C 0.55512 0.55954 0.0571 0.0
C494 C 0.55988 0.48631 0.02502 0.0
C495 C 0.51696 0.46673 1.01061 0.0
C496 C 0.51266 0.41747 1.00591 0.0
C497 C 0.55076 0.38703 0.01853 0.0
C498 C 0.59257 0.40624 0.03561 0.0
C499 C 0.5983 0.45664 0.03771 0.0
H500 H 0.61836 0.3266 0.2262 0.0
H501 H 0.48457 0.29698 0.16905 0.0
H502 H 0.4265 0.28741 0.21173 0.0
H503 H 0.57957 0.24352 0.28505 0.0
H504 H 0.60104 0.28353 0.31359 0.0
H505 H 0.63346 0.2849 0.27858 0.0
H506 H 0.61382 0.37587 0.27397 0.0
H507 H 0.58125 0.37472 0.30889 0.0
H508 H 0.54641 0.39665 0.27713 0.0
H509 H 0.38118 0.28485 0.2603 0.0
H510 H 0.35235 0.28991 0.31172 0.0
H511 H 0.51458 0.32165 0.3377 0.0
C512 C 0.57705 0.31743 0.22273 0.0
C513 C 0.55618 0.31259 0.19418 0.0
C514 C 0.50161 0.30117 0.19063 0.0
C515 C 0.46818 0.29546 0.21477 0.0
C516 C 0.48962 0.30126 0.24253 0.0
C517 C 0.54277 0.31191 0.24671 0.0
C518 C 0.55492 0.31834 0.27892 0.0
C519 C 0.5946 0.2803 0.28966 0.0
C520 C 0.57529 0.36943 0.28508 0.0
C521 C 0.5003 0.31017 0.29199 0.0
C522 C 0.46327 0.30009 0.27063 0.0
C523 C 0.40989 0.29244 0.27729 0.0
C524 C 0.39383 0.29545 0.30657 0.0
C525 C 0.43098 0.30617 0.32888 0.0
C526 C 0.48501 0.31322 0.32129 0.0
H527 H 0.12354 0.19858 0.80543 0.0
H528 H 0.98908 0.22559 0.86198 0.0
H529 H 0.93142 0.23595 0.81908 0.0
H530 H 0.08429 0.28278 0.74661 0.0
H531 H 0.10603 0.24344 0.71793 0.0
H532 H 0.1385 0.24194 0.75304 0.0
H533 H 0.11958 0.15071 0.75708 0.0
H534 H 0.08695 0.15198 0.72206 0.0
H535 H 0.05232 0.12918 0.75361 0.0
H536 H 0.88636 0.23846 0.77076 0.0
H537 H 0.85703 0.23311 0.71943 0.0
H538 H 0.01927 0.20414 0.69321 0.0
C539 C 0.0822 0.20748 0.80868 0.0
C540 C 0.06092 0.21123 0.83714 0.0
C541 C 1.00634 0.22221 0.84046 0.0
C542 C 0.97317 0.22839 0.8162 0.0
C543 C 0.99488 0.22349 0.78853 0.0
C544 C 0.04809 0.21341 0.78451 0.0
C545 C 0.06023 0.2076 0.75226 0.0
C546 C 0.0996 0.24625 0.74185 0.0
C547 C 0.08099 0.15685 0.74589 0.0
C548 C 1.0055 0.21532 0.73903 0.0
C549 C 0.96852 0.22473 0.76038 0.0
C550 C 0.91501 0.23148 0.75376 0.0
C551 C 0.89867 0.22827 0.72452 0.0
C552 C 0.93565 0.2183 0.70216 0.0
C553 C 0.98991 0.21218 0.70967 0.0
H554 H 0.51966 0.69482 0.8405 0.0
H555 H 0.36963 0.76053 0.8165 0.0
H556 H 0.40472 0.77756 0.76723 0.0
H557 H 0.6062 0.77538 0.79783 0.0
H558 H 0.6504 0.72765 0.78754 0.0
H559 H 0.61557 0.7246 0.82182 0.0
H560 H 0.57632 0.64189 0.80755 0.0
H561 H 0.61121 0.64457 0.77337 0.0
H562 H 0.54028 0.63608 0.77369 0.0
H563 H 0.45287 0.78189 0.71985 0.0
H564 H 0.50903 0.76978 0.67656 0.0
H565 H 0.62882 0.70149 0.73056 0.0
C566 C 0.49437 0.71344 0.82505 0.0
C567 C 0.44179 0.72652 0.83248 0.0
C568 C 0.4099 0.75014 0.81139 0.0
C569 C 0.42963 0.76021 0.78338 0.0
C570 C 0.4814 0.74651 0.77675 0.0
C571 C 0.51334 0.72352 0.79692 0.0
C572 C 0.56615 0.70954 0.78352 0.0
C573 C 0.61231 0.73588 0.79858 0.0
C574 C 0.57391 0.65478 0.7846 0.0
C575 C 0.55849 0.72733 0.75243 0.0
C576 C 0.50947 0.74905 0.74919 0.0
C577 C 0.49156 0.76557 0.72221 0.0
C578 C 0.52377 0.75856 0.69776 0.0
C579 C 0.57351 0.73532 0.7003 0.0
C580 C 0.59165 0.72053 0.72815 0.0
H581 H 0.89009 0.82293 0.22914 0.0
H582 H 1.00307 0.74345 0.1773 0.0
H583 H 0.05766 0.72867 0.22115 0.0
H584 H 0.98294 0.88295 0.27077 0.0
H585 H 0.94706 0.88156 0.30474 0.0
H586 H 0.91151 0.87912 0.27066 0.0
H587 H 0.86596 0.79985 0.28666 0.0
H588 H 0.90088 0.80235 0.32103 0.0
H589 H 0.90609 0.74984 0.2984 0.0
H590 H 0.10674 0.73266 0.26834 0.0
H591 H 0.14399 0.75045 0.31708 0.0
H592 H 0.99976 0.82659 0.33935 0.0
C593 C 0.92512 0.80072 0.2274 0.0
C594 C 0.94199 0.78358 0.19997 0.0
C595 C 0.98923 0.75634 0.19822 0.0
C596 C 0.02054 0.74783 0.22299 0.0
C597 C 1.00419 0.76677 0.24952 0.0
C598 C 0.95726 0.79212 0.25207 0.0
C599 C 0.9515 0.81202 0.28271 0.0
C600 C 0.94806 0.86717 0.28216 0.0
C601 C 0.90324 0.78967 0.29811 0.0
C602 C 1.0031 0.79516 0.29654 0.0
C603 C 0.03274 0.76888 0.27704 0.0
C604 C 0.08347 0.75241 0.28402 0.0
C605 C 0.10447 0.76292 0.3117 0.0
C606 C 0.07478 0.78956 0.33216 0.0
C607 C 0.02319 0.80544 0.32442 0.0
H608 H 0.56093 0.3318 0.47238 0.0
H609 H 0.54957 0.19206 0.43166 0.0
H610 H 0.62134 0.16216 0.4639 0.0
H611 H 0.70491 0.33251 0.48739 0.0
H612 H 0.69636 0.36092 0.52234 0.0
H613 H 0.64993 0.37261 0.49321 0.0
H614 H 0.57327 0.3465 0.52702 0.0
H615 H 0.61937 0.33328 0.55605 0.0
H616 H 0.57407 0.28759 0.54346 0.0
H617 H 0.69042 0.14645 0.50209 0.0
H618 H 0.75659 0.14705 0.54209 0.0
H619 H 0.71732 0.29491 0.56112 0.0
C620 C 0.57507 0.29554 0.46945 0.0
C621 C 0.5509 0.26451 0.44897 0.0
C622 C 0.56866 0.21657 0.44672 0.0
C623 C 0.60894 0.19925 0.46512 0.0
C624 C 0.63024 0.23014 0.486 0.0
C625 C 0.61425 0.27739 0.48817 0.0
C626 C 0.64065 0.30204 0.51391 0.0
C627 C 0.67504 0.34452 0.50358 0.0
C628 C 0.59936 0.31829 0.53644 0.0
C629 C 0.67429 0.26128 0.52577 0.0
C630 C 0.66767 0.2202 0.50927 0.0
C631 C 0.69565 0.17824 0.51529 0.0
C632 C 0.73266 0.17871 0.53816 0.0
C633 C 0.74059 0.22049 0.55504 0.0
C634 C 0.71046 0.26205 0.54911 0.0
H635 H 0.98139 0.30771 0.96816 0.0
H636 H 0.97952 0.15188 0.97399 0.0
H637 H 0.91648 0.15574 1.01438 0.0
H638 H 0.96679 0.33415 0.04391 0.0
H639 H 0.92024 0.38252 0.03893 0.0
H640 H 0.96752 0.36914 1.01069 0.0
H641 H 0.89145 0.35874 0.97306 0.0
H642 H 0.84413 0.37336 1.001 0.0
H643 H 0.83766 0.31799 0.98108 0.0
H644 H 0.86056 0.17535 0.05704 0.0
H645 H 0.79368 0.20865 0.09053 0.0
H646 H 0.81923 0.35043 0.05361 0.0
C647 C 0.96708 0.27449 0.97769 0.0
C648 C 0.98637 0.2296 0.96805 0.0
C649 C 0.96593 0.18688 0.98089 0.0
C650 C 0.93037 0.18856 1.00418 0.0
C651 C 0.91387 0.23318 1.01393 0.0
C652 C 0.92961 0.27533 1.00041 0.0
C653 C 0.90146 0.31807 1.01375 0.0
C654 C 0.94141 0.35303 0.02764 0.0
C655 C 0.86659 0.34353 0.99086 0.0
C656 C 0.86805 0.29313 0.0369 0.0
C657 C 0.87734 0.2443 0.03715 0.0
C658 C 0.85251 0.2135 0.05695 0.0
C659 C 0.81515 0.23277 0.07614 0.0
C660 C 0.80208 0.28205 0.07484 0.0
C661 C 0.82939 0.31276 0.05529 0.0
H662 H 0.09391 0.21268 0.58683 0.0
H663 H 1.00259 0.33953 0.56371 0.0
H664 H 0.07108 0.36347 0.52878 0.0
H665 H 0.22747 0.27737 0.57936 0.0
H666 H 0.25885 0.22385 0.56587 0.0
H667 H 0.20533 0.21916 0.59176 0.0
H668 H 0.15531 0.16358 0.55625 0.0
H669 H 0.2074 0.16892 0.52964 0.0
H670 H 0.14024 0.18426 0.51976 0.0
H671 H 0.13759 0.36412 0.48888 0.0
H672 H 0.21271 0.35323 0.45492 0.0
H673 H 0.26995 0.23458 0.50764 0.0
C674 C 0.08926 0.24638 0.57523 0.0
C675 C 0.04215 0.2736 0.57784 0.0
C676 C 0.03777 0.31749 0.56207 0.0
C677 C 0.0765 0.33154 0.54199 0.0
C678 C 0.12069 0.30249 0.53861 0.0
C679 C 0.12869 0.26204 0.55565 0.0
C680 C 0.18015 0.23747 0.54731 0.0
C681 C 0.22034 0.23961 0.57258 0.0
C682 C 0.17015 0.18548 0.53764 0.0
C683 C 0.19772 0.26879 0.52188 0.0
C684 C 0.16244 0.30585 0.51711 0.0
C685 C 0.1667 0.33642 0.49302 0.0
C686 C 0.20918 0.32988 0.47377 0.0
C687 C 0.24743 0.29401 0.47922 0.0
C688 C 0.24159 0.26296 0.50349 0.0
H689 H 0.44873 0.33093 0.06827 0.0
H690 H 0.53488 0.19782 0.05501 0.0
H691 H 0.47095 0.17412 1.01732 0.0
H692 H 0.31714 0.27463 0.0594 0.0
H693 H 0.28889 0.32646 0.04159 0.0
H694 H 0.3416 0.33388 0.06785 0.0
H695 H 0.39922 0.37979 0.02882 0.0
H696 H 0.34379 0.37371 1.00416 0.0
H697 H 0.40795 0.35211 0.99354 0.0
H698 H 0.40382 0.16781 0.97743 0.0
H699 H 0.32475 0.17161 0.94513 0.0
H700 H 0.2767 0.30387 0.98666 0.0
C701 C 0.45359 0.29644 0.05782 0.0
C702 C 0.49742 0.26665 0.06455 0.0
C703 C 0.50204 0.22165 0.05032 0.0
C704 C 0.46608 0.20784 0.02862 0.0
C705 C 0.42478 0.23877 0.02168 0.0
C706 C 0.41721 0.28144 0.03638 0.0
C707 C 0.36755 0.3066 0.0255 0.0
C708 C 0.32635 0.3106 0.05005 0.0
C709 C 0.3805 0.35604 1.01228 0.0
C710 C 0.34953 0.27192 1.00202 0.0
C711 C 0.38367 0.23345 0.99985 0.0
C712 C 0.37648 0.19754 0.97904 0.0
C713 C 0.33208 0.20024 0.96057 0.0
C714 C 0.29563 0.23827 0.96334 0.0
C715 C 0.30468 0.27475 0.98406 0.0
H716 H 0.48065 0.80875 0.57073 0.0
H717 H 0.47837 0.65315 0.56456 0.0
H718 H 0.40555 0.65761 0.52904 0.0
H719 H 0.33404 0.82104 0.5658 0.0
H720 H 0.33745 0.8761 0.54506 0.0
H721 H 0.38944 0.86134 0.57064 0.0
H722 H 0.45884 0.87032 0.5294 0.0
H723 H 0.40701 0.8844 0.5036 0.0
H724 H 0.45159 0.83532 0.49661 0.0
H725 H 0.34172 0.67773 0.49048 0.0
H726 H 0.27525 0.71194 0.45706 0.0
H727 H 0.30746 0.85434 0.49095 0.0
C728 C 0.46402 0.77574 0.56222 0.0
C729 C 0.48509 0.7306 0.57055 0.0
C730 C 0.46252 0.68811 0.5589 0.0
C731 C 0.4214 0.69022 0.53845 0.0
C732 C 0.40222 0.73504 0.53027 0.0
C733 C 0.42143 0.77706 0.54229 0.0
C734 C 0.39167 0.8202 0.53005 0.0
C735 C 0.36134 0.8462 0.55433 0.0
C736 C 0.42955 0.85459 0.51396 0.0
C737 C 0.35381 0.79567 0.50888 0.0
C738 C 0.36165 0.74658 0.50913 0.0
C739 C 0.3344 0.71599 0.49042 0.0
C740 C 0.29702 0.73583 0.47136 0.0
C741 C 0.28622 0.78565 0.47154 0.0
C742 C 0.31496 0.8161 0.49054 0.0
H743 H 0.01808 0.72608 0.05123 0.0
H744 H 0.08181 0.8525 0.09432 0.0
H745 H 0.1622 0.84743 0.0641 0.0
H746 H 0.14466 0.66279 0.04342 0.0
H747 H 0.12743 0.63923 1.00804 0.0
H748 H 0.07619 0.65101 0.03437 0.0
H749 H 0.02837 0.70537 0.99663 0.0
H750 H 0.07991 0.69448 0.97035 0.0
H751 H 0.06369 0.75514 0.98044 0.0
H752 H 0.23293 0.83198 0.02789 0.0
H753 H 0.2945 0.80262 0.99038 0.0
H754 H 0.18626 0.68625 0.96981 0.0
C755 C 0.04939 0.75212 0.0548 0.0
C756 C 0.04354 0.78963 0.07534 0.0
C757 C 0.08532 0.82326 0.07896 0.0
C758 C 0.13108 0.82086 0.06175 0.0
C759 C 0.13472 0.78445 0.04113 0.0
C760 C 0.09545 0.75026 0.03779 0.0
C761 C 0.10907 0.71544 1.01353 0.0
C762 C 0.11469 0.66407 0.02557 0.0
C763 C 0.06779 0.71777 0.98877 0.0
C764 C 0.16213 0.73552 1.00372 0.0
C765 C 0.17583 0.77551 0.01993 0.0
C766 C 0.22275 0.80066 1.01513 0.0
C767 C 0.25727 0.7839 0.99367 0.0
C768 C 0.24467 0.7426 0.97714 0.0
C769 C 0.19631 0.71825 0.98199 0.0
H770 H 0.96996 0.83595 0.4828 0.0
H771 H 0.98731 0.69592 0.44338 0.0
H772 H 0.91918 0.66322 0.47684 0.0
H773 H 0.95914 0.7943 0.55463 0.0
H774 H 0.91098 0.83762 0.56649 0.0
H775 H 0.95617 0.8526 0.53743 0.0
H776 H 0.87836 0.87277 0.50279 0.0
H777 H 0.83253 0.85981 0.53189 0.0
H778 H 0.826 0.82941 0.49742 0.0
H779 H 0.85284 0.64502 0.51563 0.0
H780 H 0.78519 0.64375 0.55449 0.0
H781 H 0.81328 0.79482 0.57085 0.0
C782 C 0.95761 0.79907 0.48029 0.0
C783 C 0.98244 0.7688 0.45977 0.0
C784 C 0.96759 0.71986 0.45841 0.0
C785 C 0.92941 0.70095 0.47752 0.0
C786 C 0.90701 0.73136 0.49816 0.0
C787 C 0.91997 0.77951 0.49949 0.0
C788 C 0.89182 0.80377 0.52471 0.0
C789 C 0.93193 0.82322 0.54713 0.0
C790 C 0.85497 0.8438 0.51353 0.0
C791 C 0.86055 0.76176 0.53715 0.0
C792 C 0.87031 0.72033 0.52153 0.0
C793 C 0.84508 0.67711 0.52811 0.0
C794 C 0.80717 0.67659 0.55038 0.0
C795 C 0.79516 0.71881 0.56606 0.0
C796 C 0.82309 0.76171 0.55984 0.0
H797 H 0.71812 0.73198 0.06568 0.0
H798 H 0.74286 0.88225 0.04497 0.0
H799 H 0.67701 0.87648 1.0049 0.0
H800 H 0.71369 0.69663 0.99301 0.0
H801 H 0.66421 0.65069 0.99579 0.0
H802 H 0.70588 0.66412 0.02678 0.0
H803 H 0.62859 0.68141 0.06018 0.0
H804 H 0.58032 0.66867 0.03222 0.0
H805 H 0.57969 0.72565 0.05015 0.0
H806 H 0.60943 0.85362 0.96676 0.0
H807 H 0.53926 0.81742 0.93611 0.0
H808 H 0.56368 0.68017 0.97879 0.0
C809 C 0.70825 0.76396 0.05331 0.0
C810 C 0.73433 0.80788 0.05879 0.0
C811 C 0.72227 0.84857 0.04139 0.0
C812 C 0.6854 0.84547 0.01844 0.0
C813 C 0.66181 0.80113 1.01283 0.0
C814 C 0.67243 0.76124 0.02989 0.0
C815 C 0.64381 0.71738 0.01835 0.0
C816 C 0.68416 0.6799 1.00794 0.0
C817 C 0.60596 0.697 0.0416 0.0
C818 C 0.61371 0.73898 0.99277 0.0
C819 C 0.62525 0.78732 0.98979 0.0
C820 C 0.60052 0.81571 0.96869 0.0
C821 C 0.56115 0.79475 0.95116 0.0
C822 C 0.54708 0.74579 0.9546 0.0
C823 C 0.57497 0.71721 0.97503 0.0
loop_
_geom_bond_atom_site_label_1
_geom_bond_atom_site_label_2
_geom_bond_distance
_geom_bond_site_symmetry_2
_ccdc_geom_bond_type
Fe0 O2 1.918 . S
Fe0 O5 1.997 . S
Fe0 O6 2.002 . S
Fe0 O11 1.976 . S
Fe0 O14 1.996 . S
Fe1 O2 1.918 . S
Fe1 O9 1.997 . S
Fe1 O12 1.996 . S
Fe1 O16 1.976 . S
Fe1 O19 2.002 . S
O2 Fe0 1.918 . S
O2 Fe1 1.918 . S
O2 Fe3 1.918 . S
Fe3 O2 1.918 . S
Fe3 O4 2.002 . S
Fe3 O13 1.976 . S
Fe3 O17 1.996 . S
Fe3 O20 1.997 . S
O4 Fe3 2.002 . S
O4 C21 1.295 . S
O5 Fe0 1.997 . S
O5 C21 1.235 . S
O6 Fe0 2.002 . S
O6 C7 1.295 . S
C7 O6 1.295 . S
C7 O9 1.235 . S
C8 O13 1.287 . S
C8 O14 1.255 . S
O9 Fe1 1.997 . S
O9 C7 1.235 . S
C10 O16 1.287 . S
C10 O17 1.255 . S
O11 Fe0 1.976 . S
O11 C18 1.287 . S
O12 Fe1 1.996 . S
O12 C18 1.255 . S
O13 Fe3 1.976 . S
O13 C8 1.287 . S
O14 Fe0 1.996 . S
O14 C8 1.255 . S
C15 O19 1.295 . S
C15 O20 1.235 . S
O16 Fe1 1.976 . S
O16 C10 1.287 . S
O17 Fe3 1.996 . S
O17 C10 1.255 . S
C18 O11 1.287 . S
C18 O12 1.255 . S
O19 Fe1 2.002 . S
O19 C15 1.295 . S
O20 Fe3 1.997 . S
O20 C15 1.235 . S
C21 O4 1.295 . S
C21 O5 1.235 . S
Fe22 O24 1.918 . S
Fe22 O27 1.997 . S
Fe22 O28 2.002 . S
Fe22 O33 1.976 . S
Fe22 O36 1.996 . S
Fe23 O24 1.918 . S
Fe23 O31 1.997 . S
Fe23 O34 1.996 . S
Fe23 O38 1.976 . S
Fe23 O41 2.002 . S
O24 Fe22 1.918 . S
O24 Fe23 1.918 . S
O24 Fe25 1.918 . S
Fe25 O24 1.918 . S
Fe25 O26 2.002 . S
Fe25 O35 1.976 . S
Fe25 O39 1.996 . S
Fe25 O42 1.997 . S
O26 Fe25 2.002 . S
O26 C43 1.295 . S
O27 Fe22 1.997 . S
O27 C43 1.235 . S
O28 Fe22 2.002 . S
O28 C29 1.295 . S
C29 O28 1.295 . S
C29 O31 1.235 . S
C30 O35 1.287 . S
C30 O36 1.255 . S
O31 Fe23 1.997 . S
O31 C29 1.235 . S
C32 O38 1.287 1_655 S
C32 O39 1.255 1_655 S
O33 Fe22 1.976 . S
O33 C40 1.287 . S
O34 Fe23 1.996 . S
O34 C40 1.255 . S
O35 Fe25 1.976 . S
O35 C30 1.287 . S
O36 Fe22 1.996 . S
O36 C30 1.255 . S
C37 O41 1.295 . S
C37 O42 1.235 . S
O38 Fe23 1.976 . S
O38 C32 1.287 1_455 S
O39 Fe25 1.996 . S
O39 C32 1.255 1_455 S
C40 O33 1.287 . S
C40 O34 1.255 . S
O41 Fe23 2.002 . S
O41 C37 1.295 . S
O42 Fe25 1.997 . S
O42 C37 1.235 . S
C43 O26 1.295 . S
C43 O27 1.235 . S
Fe44 O46 1.918 . S
Fe44 O49 1.997 . S
Fe44 O50 2.002 . S
Fe44 O55 1.976 . S
Fe44 O58 1.996 . S
Fe45 O46 1.918 . S
Fe45 O53 1.997 . S
Fe45 O56 1.996 . S
Fe45 O60 1.976 . S
Fe45 O63 2.002 . S
O46 Fe44 1.918 . S
O46 Fe45 1.918 . S
O46 Fe47 1.918 . S
Fe47 O46 1.918 . S
Fe47 O48 2.002 . S
Fe47 O57 1.976 . S
Fe47 O61 1.996 . S
Fe47 O64 1.997 . S
O48 Fe47 2.002 . S
O48 C65 1.295 . S
O49 Fe44 1.997 . S
O49 C65 1.235 . S
O50 Fe44 2.002 . S
O50 C51 1.295 . S
C51 O50 1.295 . S
C51 O53 1.235 . S
C52 O57 1.287 . S
C52 O58 1.255 . S
O53 Fe45 1.997 . S
O53 C51 1.235 . S
C54 O60 1.287 . S
C54 O61 1.255 . S
O55 Fe44 1.976 . S
O55 C62 1.287 1_655 S
O56 Fe45 1.996 . S
O56 C62 1.255 1_655 S
O57 Fe47 1.976 . S
O57 C52 1.287 . S
O58 Fe44 1.996 . S
O58 C52 1.255 . S
C59 O63 1.295 . S
C59 O64 1.235 . S
O60 Fe45 1.976 . S
O60 C54 1.287 . S
O61 Fe47 1.996 . S
O61 C54 1.255 . S
C62 O55 1.287 1_455 S
C62 O56 1.255 1_455 S
O63 Fe45 2.002 . S
O63 C59 1.295 . S
O64 Fe47 1.997 . S
O64 C59 1.235 . S
C65 O48 1.295 . S
C65 O49 1.235 . S
Fe66 O68 1.918 . S
Fe66 O71 1.997 . S
Fe66 O72 2.002 . S
Fe66 O77 1.976 . S
Fe66 O80 1.996 . S
Fe67 O68 1.918 . S
Fe67 O75 1.997 . S
Fe67 O78 1.996 . S
Fe67 O82 1.976 . S
Fe67 O85 2.002 . S
O68 Fe66 1.918 . S
O68 Fe67 1.918 . S
O68 Fe69 1.918 . S
Fe69 O68 1.918 . S
Fe69 O70 2.002 . S
Fe69 O79 1.976 . S
Fe69 O83 1.996 . S
Fe69 O86 1.997 . S
O70 Fe69 2.002 . S
O70 C87 1.295 . S
O71 Fe66 1.997 . S
O71 C87 1.235 . S
O72 Fe66 2.002 . S
O72 C73 1.295 . S
C73 O72 1.295 . S
C73 O75 1.235 . S
C74 O79 1.287 . S
C74 O80 1.255 . S
O75 Fe67 1.997 . S
O75 C73 1.235 . S
C76 O82 1.287 . S
C76 O83 1.255 . S
O77 Fe66 1.976 . S
O77 C84 1.287 . S
O78 Fe67 1.996 . S
O78 C84 1.255 . S
O79 Fe69 1.976 . S
O79 C74 1.287 . S
O80 Fe66 1.996 . S
O80 C74 1.255 . S
C81 O85 1.295 . S
C81 O86 1.235 . S
O82 Fe67 1.976 . S
O82 C76 1.287 . S
O83 Fe69 1.996 . S
O83 C76 1.255 . S
C84 O77 1.287 . S
C84 O78 1.255 . S
O85 Fe67 2.002 . S
O85 C81 1.295 . S
O86 Fe69 1.997 . S
O86 C81 1.235 . S
C87 O70 1.295 . S
C87 O71 1.235 . S
Fe88 O90 1.918 . S
Fe88 O93 1.997 . S
Fe88 O94 2.002 . S
Fe88 O99 1.976 . S
Fe88 O102 1.996 . S
Fe89 O90 1.918 . S
Fe89 O97 1.997 . S
Fe89 O100 1.996 . S
Fe89 O104 1.976 . S
Fe89 O107 2.002 . S
O90 Fe88 1.918 . S
O90 Fe89 1.918 . S
O90 Fe91 1.918 . S
Fe91 O90 1.918 . S
Fe91 O92 2.002 . S
Fe91 O101 1.976 . S
Fe91 O105 1.996 . S
Fe91 O108 1.997 . S
O92 Fe91 2.002 . S
O92 C109 1.295 . S
O93 Fe88 1.997 . S
O93 C109 1.235 . S
O94 Fe88 2.002 . S
O94 C95 1.295 . S
C95 O94 1.295 . S
C95 O97 1.235 . S
C96 O101 1.287 . S
C96 O102 1.255 . S
O97 Fe89 1.997 . S
O97 C95 1.235 . S
C98 O104 1.287 . S
C98 O105 1.255 . S
O99 Fe88 1.976 . S
O99 C106 1.287 . S
O100 Fe89 1.996 . S
O100 C106 1.255 . S
O101 Fe91 1.976 . S
O101 C96 1.287 . S
O102 Fe88 1.996 . S
O102 C96 1.255 . S
C103 O107 1.295 . S
C103 O108 1.235 . S
O104 Fe89 1.976 . S
O104 C98 1.287 . S
O105 Fe91 1.996 . S
O105 C98 1.255 . S
C106 O99 1.287 . S
C106 O100 1.255 . S
O107 Fe89 2.002 . S
O107 C103 1.295 . S
O108 Fe91 1.997 . S
O108 C103 1.235 . S
C109 O92 1.295 . S
C109 O93 1.235 . S
Fe110 O112 1.918 . S
Fe110 O115 1.997 . S
Fe110 O116 2.002 . S
Fe110 O121 1.976 . S
Fe110 O124 1.996 . S
Fe111 O112 1.918 . S
Fe111 O119 1.997 . S
Fe111 O122 1.996 . S
Fe111 O126 1.976 . S
Fe111 O129 2.002 . S
O112 Fe110 1.918 . S
O112 Fe111 1.918 . S
O112 Fe113 1.918 . S
Fe113 O112 1.918 . S
Fe113 O114 2.002 . S
Fe113 O123 1.976 . S
Fe113 O127 1.996 . S
Fe113 O130 1.997 . S
O114 Fe113 2.002 . S
O114 C131 1.295 . S
O115 Fe110 1.997 . S
O115 C131 1.235 . S
O116 Fe110 2.002 . S
O116 C117 1.295 . S
C117 O116 1.295 . S
C117 O119 1.235 . S
C118 O123 1.287 . S
C118 O124 1.255 . S
O119 Fe111 1.997 . S
O119 C117 1.235 . S
C120 O126 1.287 . S
C120 O127 1.255 . S
O121 Fe110 1.976 . S
O121 C128 1.287 1_655 S
O122 Fe111 1.996 . S
O122 C128 1.255 1_655 S
O123 Fe113 1.976 . S
O123 C118 1.287 . S
O124 Fe110 1.996 . S
O124 C118 1.255 . S
C125 O129 1.295 . S
C125 O130 1.235 . S
O126 Fe111 1.976 . S
O126 C120 1.287 . S
O127 Fe113 1.996 . S
O127 C120 1.255 . S
C128 O121 1.287 1_455 S
C128 O122 1.255 1_455 S
O129 Fe111 2.002 . S
O129 C125 1.295 . S
O130 Fe113 1.997 . S
O130 C125 1.235 . S
C131 O114 1.295 . S
C131 O115 1.235 . S
Fe132 O134 1.918 . S
Fe132 O137 1.997 . S
Fe132 O138 2.002 . S
Fe132 O143 1.976 . S
Fe132 O146 1.996 . S
Fe133 O134 1.918 . S
Fe133 O141 1.997 . S
Fe133 O144 1.996 . S
Fe133 O148 1.976 . S
Fe133 O151 2.002 . S
O134 Fe132 1.918 . S
O134 Fe133 1.918 . S
O134 Fe135 1.918 . S
Fe135 O134 1.918 . S
Fe135 O136 2.002 . S
Fe135 O145 1.976 . S
Fe135 O149 1.996 . S
Fe135 O152 1.997 . S
O136 Fe135 2.002 . S
O136 C153 1.295 . S
O137 Fe132 1.997 . S
O137 C153 1.235 . S
O138 Fe132 2.002 . S
O138 C139 1.295 . S
C139 O138 1.295 . S
C139 O141 1.235 . S
C140 O145 1.287 . S
C140 O146 1.255 . S
O141 Fe133 1.997 . S
O141 C139 1.235 . S
C142 O148 1.287 . S
C142 O149 1.255 . S
O143 Fe132 1.976 . S
O143 C150 1.287 1_455 S
O144 Fe133 1.996 . S
O144 C150 1.255 1_455 S
O145 Fe135 1.976 . S
O145 C140 1.287 . S
O146 Fe132 1.996 . S
O146 C140 1.255 . S
C147 O151 1.295 . S
C147 O152 1.235 . S
O148 Fe133 1.976 . S
O148 C142 1.287 . S
O149 Fe135 1.996 . S
O149 C142 1.255 . S
C150 O143 1.287 1_655 S
C150 O144 1.255 1_655 S
O151 Fe133 2.002 . S
O151 C147 1.295 . S
O152 Fe135 1.997 . S
O152 C147 1.235 . S
C153 O136 1.295 . S
C153 O137 1.235 . S
Fe154 O156 1.918 . S
Fe154 O159 1.997 . S
Fe154 O160 2.002 . S
Fe154 O165 1.976 . S
Fe154 O168 1.996 . S
Fe155 O156 1.918 . S
Fe155 O163 1.997 . S
Fe155 O166 1.996 . S
Fe155 O170 1.976 . S
Fe155 O173 2.002 . S
O156 Fe154 1.918 . S
O156 Fe155 1.918 . S
O156 Fe157 1.918 . S
Fe157 O156 1.918 . S
Fe157 O158 2.002 . S
Fe157 O167 1.976 . S
Fe157 O171 1.996 . S
Fe157 O174 1.997 . S
O158 Fe157 2.002 . S
O158 C175 1.295 . S
O159 Fe154 1.997 . S
O159 C175 1.235 . S
O160 Fe154 2.002 . S
O160 C161 1.295 . S
C161 O160 1.295 . S
C161 O163 1.235 . S
C162 O167 1.287 . S
C162 O168 1.255 . S
O163 Fe155 1.997 . S
O163 C161 1.235 . S
C164 O170 1.287 . S
C164 O171 1.255 . S
O165 Fe154 1.976 . S
O165 C172 1.287 . S
O166 Fe155 1.996 . S
O166 C172 1.255 . S
O167 Fe157 1.976 . S
O167 C162 1.287 . S
O168 Fe154 1.996 . S
O168 C162 1.255 . S
C169 O173 1.295 . S
C169 O174 1.235 . S
O170 Fe155 1.976 . S
O170 C164 1.287 . S
O171 Fe157 1.996 . S
O171 C164 1.255 . S
C172 O165 1.287 . S
C172 O166 1.255 . S
O173 Fe155 2.002 . S
O173 C169 1.295 . S
O174 Fe157 1.997 . S
O174 C169 1.235 . S
C175 O158 1.295 . S
C175 O159 1.235 . S
H176 C188 0.929 1_545 S
H177 C190 0.930 . S
H178 C191 0.930 . S
H179 C195 0.959 . S
H180 C195 0.959 . S
H181 C195 0.961 . S
H182 C196 0.960 . S
H183 C196 0.961 . S
H184 C196 0.959 . S
H185 C199 0.929 . S
H186 C200 0.931 . S
H187 C202 0.930 . S
C188 H176 0.929 1_565 S
C188 C189 1.399 . S
C188 C193 1.399 1_565 S
C189 C188 1.399 . S
C189 C190 1.376 . S
C190 H177 0.930 . S
C190 C189 1.376 . S
C190 C191 1.388 . S
C191 H178 0.930 . S
C191 C190 1.388 . S
C191 C192 1.390 1_565 S
C192 C191 1.390 1_545 S
C192 C193 1.394 . S
C192 C198 1.465 . S
C193 C188 1.399 1_545 S
C193 C192 1.394 . S
C193 C194 1.516 . S
C194 C193 1.516 . S
C194 C195 1.502 . S
C194 C196 1.561 . S
C194 C197 1.526 . S
C195 H179 0.959 . S
C195 H180 0.959 . S
C195 H181 0.961 . S
C195 C194 1.502 . S
C196 H182 0.960 . S
C196 H183 0.961 . S
C196 H184 0.959 . S
C196 C194 1.561 . S
C197 C194 1.526 . S
C197 C198 1.396 . S
C197 C202 1.390 . S
C198 C192 1.465 . S
C198 C197 1.396 . S
C198 C199 1.399 . S
C199 H185 0.929 . S
C199 C198 1.399 . S
C199 C200 1.385 . S
C200 H186 0.931 . S
C200 C199 1.385 . S
C200 C201 1.389 . S
C201 C200 1.389 . S
C201 C202 1.387 . S
C202 H187 0.930 . S
C202 C197 1.390 . S
C202 C201 1.387 . S
H203 C215 0.930 . S
H204 C217 0.930 . S
H205 C218 0.930 . S
H206 C222 0.959 . S
H207 C222 0.959 . S
H208 C222 0.961 . S
H209 C223 0.960 . S
H210 C223 0.961 . S
H211 C223 0.959 . S
H212 C226 0.929 . S
H213 C227 0.931 . S
H214 C229 0.930 . S
C215 H203 0.930 . S
C215 C216 1.399 . S
C215 C220 1.399 . S
C216 C215 1.399 . S
C216 C217 1.376 . S
C217 H204 0.930 . S
C217 C216 1.376 . S
C217 C218 1.388 . S
C218 H205 0.930 . S
C218 C217 1.388 . S
C218 C219 1.390 . S
C219 C218 1.390 . S
C219 C220 1.394 . S
C219 C225 1.465 . S
C220 C215 1.399 . S
C220 C219 1.394 . S
C220 C221 1.516 . S
C221 C220 1.516 . S
C221 C222 1.502 . S
C221 C223 1.561 . S
C221 C224 1.526 . S
C222 H206 0.959 . S
C222 H207 0.959 . S
C222 H208 0.961 . S
C222 C221 1.502 . S
C223 H209 0.960 . S
C223 H210 0.961 . S
C223 H211 0.959 . S
C223 C221 1.561 . S
C224 C221 1.526 . S
C224 C225 1.396 . S
C224 C229 1.390 . S
C225 C219 1.465 . S
C225 C224 1.396 . S
C225 C226 1.399 . S
C226 H212 0.929 . S
C226 C225 1.399 . S
C226 C227 1.385 . S
C227 H213 0.931 . S
C227 C226 1.385 . S
C227 C228 1.389 . S
C228 C227 1.389 . S
C228 C229 1.387 . S
C229 H214 0.930 . S
C229 C224 1.390 . S
C229 C228 1.387 . S
H230 C242 0.930 . S
H231 C244 0.930 . S
H232 C245 0.930 . S
H233 C249 0.959 . S
H234 C249 0.959 . S
H235 C249 0.961 . S
H236 C250 0.960 . S
H237 C250 0.961 . S
H238 C250 0.959 . S
H239 C253 0.929 . S
H240 C254 0.931 . S
H241 C256 0.930 . S
C242 H230 0.930 . S
C242 C243 1.399 . S
C242 C247 1.399 . S
C243 C242 1.399 . S
C243 C244 1.376 . S
C244 H231 0.930 . S
C244 C243 1.376 . S
C244 C245 1.388 . S
C245 H232 0.930 . S
C245 C244 1.388 . S
C245 C246 1.390 . S
C246 C245 1.390 . S
C246 C247 1.394 . S
C246 C252 1.465 . S
C247 C242 1.399 . S
C247 C246 1.394 . S
C247 C248 1.516 . S
C248 C247 1.516 . S
C248 C249 1.502 . S
C248 C250 1.561 . S
C248 C251 1.526 . S
C249 H233 0.959 . S
C249 H234 0.959 . S
C249 H235 0.961 . S
C249 C248 1.502 . S
C250 H236 0.960 . S
C250 H237 0.961 . S
C250 H238 0.959 . S
C250 C248 1.561 . S
C251 C248 1.526 . S
C251 C252 1.396 . S
C251 C256 1.390 . S
C252 C246 1.465 . S
C252 C251 1.396 . S
C252 C253 1.399 . S
C253 H239 0.929 . S
C253 C252 1.399 . S
C253 C254 1.385 . S
C254 H240 0.931 . S
C254 C253 1.385 . S
C254 C255 1.389 . S
C255 C254 1.389 . S
C255 C256 1.387 . S
C256 H241 0.930 . S
C256 C251 1.390 . S
C256 C255 1.387 . S
H257 C269 0.930 . S
H258 C271 0.930 . S
H259 C272 0.930 . S
H260 C276 0.959 . S
H261 C276 0.959 1_565 S
H262 C276 0.961 . S
H263 C277 0.960 . S
H264 C277 0.961 . S
H265 C277 0.959 . S
H266 C280 0.929 . S
H267 C281 0.931 . S
H268 C283 0.930 . S
C269 H257 0.930 . S
C269 C270 1.399 . S
C269 C274 1.399 . S
C270 C269 1.399 . S
C270 C271 1.376 . S
C271 H258 0.930 . S
C271 C270 1.376 . S
C271 C272 1.388 . S
C272 H259 0.930 . S
C272 C271 1.388 . S
C272 C273 1.390 . S
C273 C272 1.390 . S
C273 C274 1.394 . S
C273 C279 1.465 . S
C274 C269 1.399 . S
C274 C273 1.394 . S
C274 C275 1.516 . S
C275 C274 1.516 . S
C275 C276 1.502 . S
C275 C277 1.561 . S
C275 C278 1.526 . S
C276 H260 0.959 . S
C276 H261 0.959 1_545 S
C276 H262 0.961 . S
C276 C275 1.502 . S
C277 H263 0.960 . S
C277 H264 0.961 . S
C277 H265 0.959 . S
C277 C275 1.561 . S
C278 C275 1.526 . S
C278 C279 1.396 . S
C278 C283 1.390 1_545 S
C279 C273 1.465 . S
C279 C278 1.396 . S
C279 C280 1.399 . S
C280 H266 0.929 . S
C280 C279 1.399 . S
C280 C281 1.385 1_545 S
C281 H267 0.931 . S
C281 C280 1.385 1_565 S
C281 C282 1.389 . S
C282 C281 1.389 . S
C282 C283 1.387 . S
C283 H268 0.930 . S
C283 C278 1.390 1_565 S
C283 C282 1.387 . S
H284 C296 0.930 . S
H285 C298 0.930 . S
H286 C299 0.930 . S
H287 C303 0.959 . S
H288 C303 0.959 . S
H289 C303 0.961 . S
H290 C304 0.960 . S
H291 C304 0.961 . S
H292 C304 0.959 . S
H293 C307 0.929 . S
H294 C308 0.931 . S
H295 C310 0.930 . S
C296 H284 0.930 . S
C296 C297 1.399 . S
C296 C301 1.399 1_545 S
C297 C296 1.399 . S
C297 C298 1.376 . S
C298 H285 0.930 . S
C298 C297 1.376 . S
C298 C299 1.388 1_545 S
C299 H286 0.930 . S
C299 C298 1.388 1_565 S
C299 C300 1.390 . S
C300 C299 1.390 . S
C300 C301 1.394 . S
C300 C306 1.465 . S
C301 C296 1.399 1_565 S
C301 C300 1.394 . S
C301 C302 1.516 . S
C302 C301 1.516 . S
C302 C303 1.502 . S
C302 C304 1.561 . S
C302 C305 1.526 . S
C303 H287 0.959 . S
C303 H288 0.959 . S
C303 H289 0.961 . S
C303 C302 1.502 . S
C304 H290 0.960 . S
C304 H291 0.961 . S
C304 H292 0.959 . S
C304 C302 1.561 . S
C305 C302 1.526 . S
C305 C306 1.396 . S
C305 C310 1.390 . S
C306 C300 1.465 . S
C306 C305 1.396 . S
C306 C307 1.399 . S
C307 H293 0.929 . S
C307 C306 1.399 . S
C307 C308 1.385 . S
C308 H294 0.931 . S
C308 C307 1.385 . S
C308 C309 1.389 . S
C309 C308 1.389 . S
C309 C310 1.387 . S
C310 H295 0.930 . S
C310 C305 1.390 . S
C310 C309 1.387 . S
H311 C323 0.930 . S
H312 C325 0.930 . S
H313 C326 0.930 . S
H314 C330 0.959 . S
H315 C330 0.959 . S
H316 C330 0.961 . S
H317 C331 0.960 . S
H318 C331 0.961 . S
H319 C331 0.959 . S
H320 C334 0.929 . S
H321 C335 0.931 . S
H322 C337 0.930 . S
C323 H311 0.930 . S
C323 C324 1.399 . S
C323 C328 1.399 . S
C324 C323 1.399 . S
C324 C325 1.376 . S
C325 H312 0.930 . S
C325 C324 1.376 . S
C325 C326 1.388 . S
C326 H313 0.930 . S
C326 C325 1.388 . S
C326 C327 1.390 . S
C327 C326 1.390 . S
C327 C328 1.394 . S
C327 C333 1.465 . S
C328 C323 1.399 . S
C328 C327 1.394 . S
C328 C329 1.516 . S
C329 C328 1.516 . S
C329 C330 1.502 . S
C329 C331 1.561 . S
C329 C332 1.526 . S
C330 H314 0.959 . S
C330 H315 0.959 . S
C330 H316 0.961 . S
C330 C329 1.502 . S
C331 H317 0.960 . S
C331 H318 0.961 . S
C331 H319 0.959 . S
C331 C329 1.561 . S
C332 C329 1.526 . S
C332 C333 1.396 . S
C332 C337 1.390 . S
C333 C327 1.465 . S
C333 C332 1.396 . S
C333 C334 1.399 . S
C334 H320 0.929 . S
C334 C333 1.399 . S
C334 C335 1.385 . S
C335 H321 0.931 . S
C335 C334 1.385 . S
C335 C336 1.389 . S
C336 C335 1.389 . S
C336 C337 1.387 . S
C337 H322 0.930 . S
C337 C332 1.390 . S
C337 C336 1.387 . S
H338 C350 0.930 . S
H339 C352 0.930 . S
H340 C353 0.930 . S
H341 C357 0.959 . S
H342 C357 0.959 . S
H343 C357 0.961 . S
H344 C358 0.960 . S
H345 C358 0.961 . S
H346 C358 0.959 . S
H347 C361 0.929 . S
H348 C362 0.931 . S
H349 C364 0.930 . S
C350 H338 0.930 . S
C350 C351 1.399 . S
C350 C355 1.399 . S
C351 C350 1.399 . S
C351 C352 1.376 . S
C352 H339 0.930 . S
C352 C351 1.376 . S
C352 C353 1.388 . S
C353 H340 0.930 . S
C353 C352 1.388 . S
C353 C354 1.390 . S
C354 C353 1.390 . S
C354 C355 1.394 . S
C354 C360 1.465 . S
C355 C350 1.399 . S
C355 C354 1.394 . S
C355 C356 1.516 . S
C356 C355 1.516 . S
C356 C357 1.502 . S
C356 C358 1.561 . S
C356 C359 1.526 . S
C357 H341 0.959 . S
C357 H342 0.959 . S
C357 H343 0.961 . S
C357 C356 1.502 . S
C358 H344 0.960 . S
C358 H345 0.961 . S
C358 H346 0.959 . S
C358 C356 1.561 . S
C359 C356 1.526 . S
C359 C360 1.396 . S
C359 C364 1.390 . S
C360 C354 1.465 . S
C360 C359 1.396 . S
C360 C361 1.399 . S
C361 H347 0.929 . S
C361 C360 1.399 . S
C361 C362 1.385 . S
C362 H348 0.931 . S
C362 C361 1.385 . S
C362 C363 1.389 . S
C363 C362 1.389 . S
C363 C364 1.387 . S
C364 H349 0.930 . S
C364 C359 1.390 . S
C364 C363 1.387 . S
H365 C377 0.930 . S
H366 C379 0.930 . S
H367 C380 0.930 . S
H368 C384 0.959 . S
H369 C384 0.959 . S
H370 C384 0.961 1_545 S
H371 C385 0.960 . S
H372 C385 0.961 . S
H373 C385 0.959 . S
H374 C388 0.929 . S
H375 C389 0.931 . S
H376 C391 0.930 . S
C377 H365 0.930 . S
C377 C378 1.399 . S
C377 C382 1.399 1_545 S
C378 C377 1.399 . S
C378 C379 1.376 . S
C379 H366 0.930 . S
C379 C378 1.376 . S
C379 C380 1.388 1_545 S
C380 H367 0.930 . S
C380 C379 1.388 1_565 S
C380 C381 1.390 . S
C381 C380 1.390 . S
C381 C382 1.394 . S
C381 C387 1.465 . S
C382 C377 1.399 1_565 S
C382 C381 1.394 . S
C382 C383 1.516 . S
C383 C382 1.516 . S
C383 C384 1.502 . S
C383 C385 1.561 . S
C383 C386 1.526 . S
C384 H368 0.959 . S
C384 H369 0.959 . S
C384 H370 0.961 1_565 S
C384 C383 1.502 . S
C385 H371 0.960 . S
C385 H372 0.961 . S
C385 H373 0.959 . S
C385 C383 1.561 . S
C386 C383 1.526 . S
C386 C387 1.396 . S
C386 C391 1.390 . S
C387 C381 1.465 . S
C387 C386 1.396 . S
C387 C388 1.399 . S
C388 H374 0.929 . S
C388 C387 1.399 . S
C388 C389 1.385 . S
C389 H375 0.931 . S
C389 C388 1.385 . S
C389 C390 1.389 . S
C390 C389 1.389 . S
C390 C391 1.387 . S
C391 H376 0.930 . S
C391 C386 1.390 . S
C391 C390 1.387 . S
H392 C404 0.930 . S
H393 C406 0.930 . S
H394 C407 0.930 . S
H395 C411 0.959 . S
H396 C411 0.959 . S
H397 C411 0.961 . S
H398 C412 0.960 . S
H399 C412 0.961 . S
H400 C412 0.959 . S
H401 C415 0.929 . S
H402 C416 0.931 . S
H403 C418 0.930 . S
C404 H392 0.930 . S
C404 C405 1.399 . S
C404 C409 1.399 . S
C405 C404 1.399 . S
C405 C406 1.376 . S
C406 H393 0.930 . S
C406 C405 1.376 . S
C406 C407 1.388 . S
C407 H394 0.930 . S
C407 C406 1.388 . S
C407 C408 1.390 . S
C408 C407 1.390 . S
C408 C409 1.394 . S
C408 C414 1.465 . S
C409 C404 1.399 . S
C409 C408 1.394 . S
C409 C410 1.516 . S
C410 C409 1.516 . S
C410 C411 1.502 . S
C410 C412 1.561 . S
C410 C413 1.526 . S
C411 H395 0.959 . S
C411 H396 0.959 . S
C411 H397 0.961 . S
C411 C410 1.502 . S
C412 H398 0.960 . S
C412 H399 0.961 . S
C412 H400 0.959 . S
C412 C410 1.561 . S
C413 C410 1.526 . S
C413 C414 1.396 . S
C413 C418 1.390 . S
C414 C408 1.465 . S
C414 C413 1.396 . S
C414 C415 1.399 . S
C415 H401 0.929 . S
C415 C414 1.399 . S
C415 C416 1.385 . S
C416 H402 0.931 . S
C416 C415 1.385 . S
C416 C417 1.389 . S
C417 C416 1.389 . S
C417 C418 1.387 . S
C418 H403 0.930 . S
C418 C413 1.390 . S
C418 C417 1.387 . S
H419 C431 0.927 . S
H420 C433 0.930 . S
H421 C434 0.930 1_545 S
H422 C438 0.959 . S
H423 C438 0.959 . S
H424 C438 0.961 . S
H425 C439 0.960 . S
H426 C439 0.961 . S
H427 C439 0.959 1_545 S
H428 C442 0.927 1_655 S
H429 C443 0.931 . S
H430 C445 0.930 . S
C431 H419 0.927 . S
C431 C432 1.402 1_556 S
C431 C436 1.398 . S
C432 C431 1.402 1_554 S
C432 C433 1.376 . S
C433 H420 0.930 . S
C433 C432 1.376 . S
C433 C434 1.388 . S
C434 H421 0.930 1_565 S
C434 C433 1.388 . S
C434 C435 1.390 . S
C435 C434 1.390 . S
C435 C436 1.394 1_554 S
C435 C441 1.465 1_665 S
C436 C431 1.398 . S
C436 C435 1.394 1_556 S
C436 C437 1.516 1_655 S
C437 C436 1.516 1_455 S
C437 C438 1.502 . S
C437 C439 1.561 1_455 S
C437 C440 1.526 1_565 S
C438 H422 0.959 . S
C438 H423 0.959 . S
C438 H424 0.961 . S
C438 C437 1.502 . S
C439 H425 0.960 . S
C439 H426 0.961 . S
C439 H427 0.959 1_565 S
C439 C437 1.561 1_655 S
C440 C437 1.526 1_545 S
C440 C441 1.396 1_556 S
C440 C445 1.390 . S
C441 C435 1.465 1_445 S
C441 C440 1.396 1_554 S
C441 C442 1.399 . S
C442 H428 0.927 1_455 S
C442 C441 1.399 . S
C442 C443 1.385 . S
C443 H429 0.931 . S
C443 C442 1.385 . S
C443 C444 1.389 1_554 S
C444 C443 1.389 1_556 S
C444 C445 1.387 . S
C445 H430 0.930 . S
C445 C440 1.390 . S
C445 C444 1.387 . S
H446 C458 0.930 . S
H447 C460 0.930 . S
H448 C461 0.930 . S
H449 C465 0.959 . S
H450 C465 0.959 1_565 S
H451 C465 0.961 . S
H452 C466 0.960 . S
H453 C466 0.961 . S
H454 C466 0.959 1_655 S
H455 C469 0.929 . S
H456 C470 0.931 . S
H457 C472 0.930 . S
C458 H446 0.930 . S
C458 C459 1.399 . S
C458 C463 1.399 . S
C459 C458 1.399 . S
C459 C460 1.376 . S
C460 H447 0.930 . S
C460 C459 1.376 . S
C460 C461 1.388 . S
C461 H448 0.930 . S
C461 C460 1.388 . S
C461 C462 1.390 . S
C462 C461 1.390 . S
C462 C463 1.394 . S
C462 C468 1.465 1_545 S
C463 C458 1.399 . S
C463 C462 1.394 . S
C463 C464 1.516 1_645 S
C464 C463 1.516 1_465 S
C464 C465 1.502 1_565 S
C464 C466 1.561 . S
C464 C467 1.526 . S
C465 H449 0.959 . S
C465 H450 0.959 1_545 S
C465 H451 0.961 . S
C465 C464 1.502 1_545 S
C466 H452 0.960 . S
C466 H453 0.961 . S
C466 H454 0.959 1_455 S
C466 C464 1.561 . S
C467 C464 1.526 . S
C467 C468 1.396 1_455 S
C467 C472 1.390 . S
C468 C462 1.465 1_565 S
C468 C467 1.396 1_655 S
C468 C469 1.399 . S
C469 H455 0.929 . S
C469 C468 1.399 . S
C469 C470 1.385 1_655 S
C470 H456 0.931 . S
C470 C469 1.385 1_455 S
C470 C471 1.389 . S
C471 C470 1.389 . S
C471 C472 1.387 . S
C472 H457 0.930 . S
C472 C467 1.390 . S
C472 C471 1.387 . S
H473 C485 0.930 . S
H474 C487 0.930 1_554 S
H475 C488 0.930 . S
H476 C492 0.959 . S
H477 C492 0.959 . S
H478 C492 0.961 . S
H479 C493 0.960 1_556 S
H480 C493 0.962 . S
H481 C493 0.959 . S
H482 C496 0.929 . S
H483 C497 0.931 . S
H484 C499 0.946 . S
C485 H473 0.930 . S
C485 C486 1.399 . S
C485 C490 1.399 . S
C486 C485 1.399 . S
C486 C487 1.376 . S
C487 H474 0.930 1_556 S
C487 C486 1.376 . S
C487 C488 1.388 1_556 S
C488 H475 0.930 . S
C488 C487 1.388 1_554 S
C488 C489 1.390 . S
C489 C488 1.390 . S
C489 C490 1.394 1_554 S
C489 C495 1.465 . S
C490 C485 1.399 . S
C490 C489 1.394 1_556 S
C490 C491 1.516 . S
C491 C490 1.516 . S
C491 C492 1.502 . S
C491 C493 1.561 1_556 S
C491 C494 1.526 1_556 S
C492 H476 0.959 . S
C492 H477 0.959 . S
C492 H478 0.961 . S
C492 C491 1.502 . S
C493 H479 0.960 1_554 S
C493 H480 0.962 . S
C493 H481 0.959 . S
C493 C491 1.561 1_554 S
C494 C491 1.526 1_554 S
C494 C495 1.396 . S
C494 C499 1.390 . S
C495 C489 1.465 . S
C495 C494 1.396 . S
C495 C496 1.399 . S
C496 H482 0.929 . S
C496 C495 1.399 . S
C496 C497 1.385 . S
C497 H483 0.931 . S
C497 C496 1.385 . S
C497 C498 1.389 . S
C498 C497 1.389 . S
C498 C499 1.387 . S
C499 H484 0.946 . S
C499 C494 1.390 . S
C499 C498 1.387 . S
H500 C512 0.930 . S
H501 C514 0.930 . S
H502 C515 0.930 . S
H503 C519 0.959 . S
H504 C519 0.959 . S
H505 C519 0.961 . S
H506 C520 0.960 . S
H507 C520 0.961 . S
H508 C520 0.959 . S
H509 C523 0.929 . S
H510 C524 0.931 . S
H511 C526 0.930 . S
C512 H500 0.930 . S
C512 C513 1.399 . S
C512 C517 1.399 . S
C513 C512 1.399 . S
C513 C514 1.376 . S
C514 H501 0.930 . S
C514 C513 1.376 . S
C514 C515 1.388 . S
C515 H502 0.930 . S
C515 C514 1.388 . S
C515 C516 1.390 . S
C516 C515 1.390 . S
C516 C517 1.394 . S
C516 C522 1.465 . S
C517 C512 1.399 . S
C517 C516 1.394 . S
C517 C518 1.516 . S
C518 C517 1.516 . S
C518 C519 1.502 . S
C518 C520 1.561 . S
C518 C521 1.526 . S
C519 H503 0.959 . S
C519 H504 0.959 . S
C519 H505 0.961 . S
C519 C518 1.502 . S
C520 H506 0.960 . S
C520 H507 0.961 . S
C520 H508 0.959 . S
C520 C518 1.561 . S
C521 C518 1.526 . S
C521 C522 1.396 . S
C521 C526 1.390 . S
C522 C516 1.465 . S
C522 C521 1.396 . S
C522 C523 1.399 . S
C523 H509 0.929 . S
C523 C522 1.399 . S
C523 C524 1.385 . S
C524 H510 0.931 . S
C524 C523 1.385 . S
C524 C525 1.389 . S
C525 C524 1.389 . S
C525 C526 1.387 . S
C526 H511 0.930 . S
C526 C521 1.390 . S
C526 C525 1.387 . S
H527 C539 0.930 . S
H528 C541 0.930 . S
H529 C542 0.930 1_655 S
H530 C546 0.959 . S
H531 C546 0.959 . S
H532 C546 0.961 . S
H533 C547 0.960 . S
H534 C547 0.961 . S
H535 C547 0.959 . S
H536 C550 0.929 . S
H537 C551 0.931 . S
H538 C553 0.930 . S
C539 H527 0.930 . S
C539 C540 1.399 . S
C539 C544 1.399 . S
C540 C539 1.399 . S
C540 C541 1.376 . S
C541 H528 0.930 . S
C541 C540 1.376 . S
C541 C542 1.388 . S
C542 H529 0.930 1_455 S
C542 C541 1.388 . S
C542 C543 1.390 . S
C543 C542 1.390 . S
C543 C544 1.394 . S
C543 C549 1.465 1_455 S
C544 C539 1.399 . S
C544 C543 1.394 . S
C544 C545 1.516 . S
C545 C544 1.516 . S
C545 C546 1.502 . S
C545 C547 1.561 1_455 S
C545 C548 1.526 1_455 S
C546 H530 0.959 . S
C546 H531 0.959 . S
C546 H532 0.961 . S
C546 C545 1.502 . S
C547 H533 0.960 . S
C547 H534 0.961 . S
C547 H535 0.959 . S
C547 C545 1.561 1_655 S
C548 C545 1.526 1_655 S
C548 C549 1.396 . S
C548 C553 1.390 . S
C549 C543 1.465 1_655 S
C549 C548 1.396 . S
C549 C550 1.399 . S
C550 H536 0.929 . S
C550 C549 1.399 . S
C550 C551 1.385 . S
C551 H537 0.931 . S
C551 C550 1.385 . S
C551 C552 1.389 . S
C552 C551 1.389 . S
C552 C553 1.387 . S
C553 H538 0.930 . S
C553 C548 1.390 . S
C553 C552 1.387 . S
H554 C566 0.930 . S
H555 C568 0.930 . S
H556 C569 0.930 . S
H557 C573 0.959 . S
H558 C573 0.959 . S
H559 C573 0.961 . S
H560 C574 0.960 . S
H561 C574 0.961 . S
H562 C574 0.959 . S
H563 C577 0.929 . S
H564 C578 0.931 . S
H565 C580 0.930 . S
C566 H554 0.930 . S
C566 C567 1.399 . S
C566 C571 1.399 . S
C567 C566 1.399 . S
C567 C568 1.376 . S
C568 H555 0.930 . S
C568 C567 1.376 . S
C568 C569 1.388 . S
C569 H556 0.930 . S
C569 C568 1.388 . S
C569 C570 1.390 . S
C570 C569 1.390 . S
C570 C571 1.394 . S
C570 C576 1.465 . S
C571 C566 1.399 . S
C571 C570 1.394 . S
C571 C572 1.516 . S
C572 C571 1.516 . S
C572 C573 1.502 . S
C572 C574 1.561 . S
C572 C575 1.526 . S
C573 H557 0.959 . S
C573 H558 0.959 . S
C573 H559 0.961 . S
C573 C572 1.502 . S
C574 H560 0.960 . S
C574 H561 0.961 . S
C574 H562 0.959 . S
C574 C572 1.561 . S
C575 C572 1.526 . S
C575 C576 1.396 . S
C575 C580 1.390 . S
C576 C570 1.465 . S
C576 C575 1.396 . S
C576 C577 1.399 . S
C577 H563 0.929 . S
C577 C576 1.399 . S
C577 C578 1.385 . S
C578 H564 0.931 . S
C578 C577 1.385 . S
C578 C579 1.389 . S
C579 C578 1.389 . S
C579 C580 1.387 . S
C580 H565 0.930 . S
C580 C575 1.390 . S
C580 C579 1.387 . S
H581 C593 0.930 . S
H582 C595 0.930 . S
H583 C596 0.930 . S
H584 C600 0.959 . S
H585 C600 0.959 . S
H586 C600 0.961 . S
H587 C601 0.960 1_655 S
H588 C601 0.961 . S
H589 C601 0.959 . S
H590 C604 0.929 . S
H591 C605 0.931 . S
H592 C607 0.930 . S
C593 H581 0.930 . S
C593 C594 1.399 . S
C593 C598 1.399 . S
C594 C593 1.399 . S
C594 C595 1.376 . S
C595 H582 0.930 . S
C595 C594 1.376 . S
C595 C596 1.388 1_655 S
C596 H583 0.930 . S
C596 C595 1.388 1_455 S
C596 C597 1.390 . S
C597 C596 1.390 . S
C597 C598 1.394 1_455 S
C597 C603 1.465 . S
C598 C593 1.399 . S
C598 C597 1.394 1_655 S
C598 C599 1.516 . S
C599 C598 1.516 . S
C599 C600 1.502 . S
C599 C601 1.561 1_655 S
C599 C602 1.526 1_655 S
C600 H584 0.959 . S
C600 H585 0.959 . S
C600 H586 0.961 . S
C600 C599 1.502 . S
C601 H587 0.960 1_455 S
C601 H588 0.961 . S
C601 H589 0.959 . S
C601 C599 1.561 1_455 S
C602 C599 1.526 1_455 S
C602 C603 1.396 . S
C602 C607 1.390 . S
C603 C597 1.465 . S
C603 C602 1.396 . S
C603 C604 1.399 . S
C604 H590 0.929 . S
C604 C603 1.399 . S
C604 C605 1.385 . S
C605 H591 0.931 . S
C605 C604 1.385 . S
C605 C606 1.389 . S
C606 C605 1.389 . S
C606 C607 1.387 . S
C607 H592 0.930 . S
C607 C602 1.390 . S
C607 C606 1.387 . S
H608 C620 0.930 . S
H609 C622 0.930 . S
H610 C623 0.930 . S
H611 C627 0.959 . S
H612 C627 0.959 . S
H613 C627 0.961 . S
H614 C628 0.960 . S
H615 C628 0.961 . S
H616 C628 0.959 . S
H617 C631 0.929 . S
H618 C632 0.931 . S
H619 C634 0.930 . S
C620 H608 0.930 . S
C620 C621 1.399 . S
C620 C625 1.399 . S
C621 C620 1.399 . S
C621 C622 1.376 . S
C622 H609 0.930 . S
C622 C621 1.376 . S
C622 C623 1.388 . S
C623 H610 0.930 . S
C623 C622 1.388 . S
C623 C624 1.390 . S
C624 C623 1.390 . S
C624 C625 1.394 . S
C624 C630 1.465 . S
C625 C620 1.399 . S
C625 C624 1.394 . S
C625 C626 1.516 . S
C626 C625 1.516 . S
C626 C627 1.502 . S
C626 C628 1.561 . S
C626 C629 1.526 . S
C627 H611 0.959 . S
C627 H612 0.959 . S
C627 H613 0.961 . S
C627 C626 1.502 . S
C628 H614 0.960 . S
C628 H615 0.961 . S
C628 H616 0.959 . S
C628 C626 1.561 . S
C629 C626 1.526 . S
C629 C630 1.396 . S
C629 C634 1.390 . S
C630 C624 1.465 . S
C630 C629 1.396 . S
C630 C631 1.399 . S
C631 H617 0.929 . S
C631 C630 1.399 . S
C631 C632 1.385 . S
C632 H618 0.931 . S
C632 C631 1.385 . S
C632 C633 1.389 . S
C633 C632 1.389 . S
C633 C634 1.387 . S
C634 H619 0.930 . S
C634 C629 1.390 . S
C634 C633 1.387 . S
H635 C647 0.930 . S
H636 C649 0.930 . S
H637 C650 0.930 . S
H638 C654 0.959 1_554 S
H639 C654 0.959 1_554 S
H640 C654 0.961 . S
H641 C655 0.960 . S
H642 C655 0.961 . S
H643 C655 0.959 . S
H644 C658 0.929 . S
H645 C659 0.931 . S
H646 C661 0.930 . S
C647 H635 0.930 . S
C647 C648 1.399 . S
C647 C652 1.399 . S
C648 C647 1.399 . S
C648 C649 1.376 . S
C649 H636 0.930 . S
C649 C648 1.376 . S
C649 C650 1.388 . S
C650 H637 0.930 . S
C650 C649 1.388 . S
C650 C651 1.390 . S
C651 C650 1.390 . S
C651 C652 1.394 . S
C651 C657 1.465 . S
C652 C647 1.399 . S
C652 C651 1.394 . S
C652 C653 1.516 . S
C653 C652 1.516 . S
C653 C654 1.502 . S
C653 C655 1.561 . S
C653 C656 1.526 1_556 S
C654 H638 0.959 1_556 S
C654 H639 0.959 1_556 S
C654 H640 0.961 . S
C654 C653 1.502 . S
C655 H641 0.960 . S
C655 H642 0.961 . S
C655 H643 0.959 . S
C655 C653 1.561 . S
C656 C653 1.526 1_554 S
C656 C657 1.396 1_554 S
C656 C661 1.390 . S
C657 C651 1.465 . S
C657 C656 1.396 1_556 S
C657 C658 1.399 1_556 S
C658 H644 0.929 . S
C658 C657 1.399 1_554 S
C658 C659 1.385 . S
C659 H645 0.931 . S
C659 C658 1.385 . S
C659 C660 1.389 . S
C660 C659 1.389 . S
C660 C661 1.387 . S
C661 H646 0.930 . S
C661 C656 1.390 . S
C661 C660 1.387 . S
H662 C674 0.930 . S
H663 C676 0.930 1_655 S
H664 C677 0.930 . S
H665 C681 0.959 . S
H666 C681 0.959 . S
H667 C681 0.961 . S
H668 C682 0.960 . S
H669 C682 0.961 . S
H670 C682 0.959 . S
H671 C685 0.929 . S
H672 C686 0.931 . S
H673 C688 0.930 . S
C674 H662 0.930 . S
C674 C675 1.399 . S
C674 C679 1.399 . S
C675 C674 1.399 . S
C675 C676 1.376 . S
C676 H663 0.930 1_455 S
C676 C675 1.376 . S
C676 C677 1.388 . S
C677 H664 0.930 . S
C677 C676 1.388 . S
C677 C678 1.390 . S
C678 C677 1.390 . S
C678 C679 1.394 . S
C678 C684 1.465 . S
C679 C674 1.399 . S
C679 C678 1.394 . S
C679 C680 1.516 . S
C680 C679 1.516 . S
C680 C681 1.502 . S
C680 C682 1.561 . S
C680 C683 1.526 . S
C681 H665 0.959 . S
C681 H666 0.959 . S
C681 H667 0.961 . S
C681 C680 1.502 . S
C682 H668 0.960 . S
C682 H669 0.961 . S
C682 H670 0.959 . S
C682 C680 1.561 . S
C683 C680 1.526 . S
C683 C684 1.396 . S
C683 C688 1.390 . S
C684 C678 1.465 . S
C684 C683 1.396 . S
C684 C685 1.399 . S
C685 H671 0.929 . S
C685 C684 1.399 . S
C685 C686 1.385 . S
C686 H672 0.931 . S
C686 C685 1.385 . S
C686 C687 1.389 . S
C687 C686 1.389 . S
C687 C688 1.387 . S
C688 H673 0.930 . S
C688 C683 1.390 . S
C688 C687 1.387 . S
H689 C701 0.930 . S
H690 C703 0.930 . S
H691 C704 0.930 1_556 S
H692 C708 0.959 . S
H693 C708 0.959 . S
H694 C708 0.961 . S
H695 C709 0.960 . S
H696 C709 0.961 . S
H697 C709 0.959 . S
H698 C712 0.929 . S
H699 C713 0.931 . S
H700 C715 0.930 . S
C701 H689 0.930 . S
C701 C702 1.399 . S
C701 C706 1.399 . S
C702 C701 1.399 . S
C702 C703 1.376 . S
C703 H690 0.930 . S
C703 C702 1.376 . S
C703 C704 1.388 . S
C704 H691 0.930 1_554 S
C704 C703 1.388 . S
C704 C705 1.390 . S
C705 C704 1.390 . S
C705 C706 1.394 . S
C705 C711 1.465 1_554 S
C706 C701 1.399 . S
C706 C705 1.394 . S
C706 C707 1.516 . S
C707 C706 1.516 . S
C707 C708 1.502 . S
C707 C709 1.561 . S
C707 C710 1.526 . S
C708 H692 0.959 . S
C708 H693 0.959 . S
C708 H694 0.961 . S
C708 C707 1.502 . S
C709 H695 0.960 . S
C709 H696 0.961 . S
C709 H697 0.959 . S
C709 C707 1.561 . S
C710 C707 1.526 . S
C710 C711 1.396 1_554 S
C710 C715 1.390 1_554 S
C711 C705 1.465 1_556 S
C711 C710 1.396 1_556 S
C711 C712 1.399 . S
C712 H698 0.929 . S
C712 C711 1.399 . S
C712 C713 1.385 . S
C713 H699 0.931 . S
C713 C712 1.385 . S
C713 C714 1.389 . S
C714 C713 1.389 . S
C714 C715 1.387 . S
C715 H700 0.930 . S
C715 C710 1.390 1_556 S
C715 C714 1.387 . S
H716 C728 0.930 . S
H717 C730 0.930 . S
H718 C731 0.930 . S
H719 C735 0.959 . S
H720 C735 0.959 . S
H721 C735 0.961 . S
H722 C736 0.960 . S
H723 C736 0.961 . S
H724 C736 0.959 . S
H725 C739 0.929 . S
H726 C740 0.931 . S
H727 C742 0.930 . S
C728 H716 0.930 . S
C728 C729 1.399 . S
C728 C733 1.399 . S
C729 C728 1.399 . S
C729 C730 1.376 . S
C730 H717 0.930 . S
C730 C729 1.376 . S
C730 C731 1.388 . S
C731 H718 0.930 . S
C731 C730 1.388 . S
C731 C732 1.390 . S
C732 C731 1.390 . S
C732 C733 1.394 . S
C732 C738 1.465 . S
C733 C728 1.399 . S
C733 C732 1.394 . S
C733 C734 1.516 . S
C734 C733 1.516 . S
C734 C735 1.502 . S
C734 C736 1.561 . S
C734 C737 1.526 . S
C735 H719 0.959 . S
C735 H720 0.959 . S
C735 H721 0.961 . S
C735 C734 1.502 . S
C736 H722 0.960 . S
C736 H723 0.961 . S
C736 H724 0.959 . S
C736 C734 1.561 . S
C737 C734 1.526 . S
C737 C738 1.396 . S
C737 C742 1.390 . S
C738 C732 1.465 . S
C738 C737 1.396 . S
C738 C739 1.399 . S
C739 H725 0.929 . S
C739 C738 1.399 . S
C739 C740 1.385 . S
C740 H726 0.931 . S
C740 C739 1.385 . S
C740 C741 1.389 . S
C741 C740 1.389 . S
C741 C742 1.387 . S
C742 H727 0.930 . S
C742 C737 1.390 . S
C742 C741 1.387 . S
H743 C755 0.930 . S
H744 C757 0.930 . S
H745 C758 0.930 1_556 S
H746 C762 0.959 . S
H747 C762 0.959 . S
H748 C762 0.961 . S
H749 C763 0.960 . S
H750 C763 0.961 . S
H751 C763 0.959 . S
H752 C766 0.929 . S
H753 C767 0.931 . S
H754 C769 0.930 . S
C755 H743 0.930 . S
C755 C756 1.399 . S
C755 C760 1.399 . S
C756 C755 1.399 . S
C756 C757 1.376 . S
C757 H744 0.930 . S
C757 C756 1.376 . S
C757 C758 1.388 . S
C758 H745 0.930 1_554 S
C758 C757 1.388 . S
C758 C759 1.390 . S
C759 C758 1.390 . S
C759 C760 1.394 . S
C759 C765 1.465 1_554 S
C760 C755 1.399 . S
C760 C759 1.394 . S
C760 C761 1.516 . S
C761 C760 1.516 . S
C761 C762 1.502 . S
C761 C763 1.561 . S
C761 C764 1.526 . S
C762 H746 0.959 . S
C762 H747 0.959 . S
C762 H748 0.961 . S
C762 C761 1.502 . S
C763 H749 0.960 . S
C763 H750 0.961 . S
C763 H751 0.959 . S
C763 C761 1.561 . S
C764 C761 1.526 . S
C764 C765 1.396 1_554 S
C764 C769 1.390 1_554 S
C765 C759 1.465 1_556 S
C765 C764 1.396 1_556 S
C765 C766 1.399 . S
C766 H752 0.929 . S
C766 C765 1.399 . S
C766 C767 1.385 . S
C767 H753 0.931 . S
C767 C766 1.385 . S
C767 C768 1.389 . S
C768 C767 1.389 . S
C768 C769 1.387 . S
C769 H754 0.930 . S
C769 C764 1.390 1_556 S
C769 C768 1.387 . S
H770 C782 0.930 . S
H771 C784 0.930 . S
H772 C785 0.930 . S
H773 C789 0.959 . S
H774 C789 0.959 . S
H775 C789 0.961 . S
H776 C790 0.960 . S
H777 C790 0.961 . S
H778 C790 0.959 . S
H779 C793 0.929 . S
H780 C794 0.931 . S
H781 C796 0.930 . S
C782 H770 0.930 . S
C782 C783 1.399 . S
C782 C787 1.399 . S
C783 C782 1.399 . S
C783 C784 1.376 . S
C784 H771 0.930 . S
C784 C783 1.376 . S
C784 C785 1.388 . S
C785 H772 0.930 . S
C785 C784 1.388 . S
C785 C786 1.390 . S
C786 C785 1.390 . S
C786 C787 1.394 . S
C786 C792 1.465 . S
C787 C782 1.399 . S
C787 C786 1.394 . S
C787 C788 1.516 . S
C788 C787 1.516 . S
C788 C789 1.502 . S
C788 C790 1.561 . S
C788 C791 1.526 . S
C789 H773 0.959 . S
C789 H774 0.959 . S
C789 H775 0.961 . S
C789 C788 1.502 . S
C790 H776 0.960 . S
C790 H777 0.961 . S
C790 H778 0.959 . S
C790 C788 1.561 . S
C791 C788 1.526 . S
C791 C792 1.396 . S
C791 C796 1.390 . S
C792 C786 1.465 . S
C792 C791 1.396 . S
C792 C793 1.399 . S
C793 H779 0.929 . S
C793 C792 1.399 . S
C793 C794 1.385 . S
C794 H780 0.931 . S
C794 C793 1.385 . S
C794 C795 1.389 . S
C795 C794 1.389 . S
C795 C796 1.387 . S
C796 H781 0.930 . S
C796 C791 1.390 . S
C796 C795 1.387 . S
H797 C809 0.930 . S
H798 C811 0.930 . S
H799 C812 0.930 . S
H800 C816 0.959 . S
H801 C816 0.959 . S
H802 C816 0.961 . S
H803 C817 0.960 . S
H804 C817 0.961 . S
H805 C817 0.959 . S
H806 C820 0.929 . S
H807 C821 0.931 . S
H808 C823 0.930 . S
C809 H797 0.930 . S
C809 C810 1.399 . S
C809 C814 1.399 . S
C810 C809 1.399 . S
C810 C811 1.376 . S
C811 H798 0.930 . S
C811 C810 1.376 . S
C811 C812 1.388 . S
C812 H799 0.930 . S
C812 C811 1.388 . S
C812 C813 1.390 . S
C813 C812 1.390 . S
C813 C814 1.394 . S
C813 C819 1.465 1_554 S
C814 C809 1.399 . S
C814 C813 1.394 . S
C814 C815 1.516 1_554 S
C815 C814 1.516 1_556 S
C815 C816 1.502 . S
C815 C817 1.561 1_556 S
C815 C818 1.526 . S
C816 H800 0.959 . S
C816 H801 0.959 . S
C816 H802 0.961 . S
C816 C815 1.502 . S
C817 H803 0.960 . S
C817 H804 0.961 . S
C817 H805 0.959 . S
C817 C815 1.561 1_554 S
C818 C815 1.526 . S
C818 C819 1.396 . S
C818 C823 1.390 . S
C819 C813 1.465 1_556 S
C819 C818 1.396 . S
C819 C820 1.399 . S
C820 H806 0.929 . S
C820 C819 1.399 . S
C820 C821 1.385 . S
C821 H807 0.931 . S
C821 C820 1.385 . S
C821 C822 1.389 . S
C822 C821 1.389 . S
C822 C823 1.387 . S
C823 H808 0.930 . S
C823 C818 1.390 . S
C823 C822 1.387 . S
C189 C153 1.545 . S
C201 C10 1.562 . S
C216 C30 1.548 . S
C228 C169 1.532 . S
C243 C109 1.559 . S
C255 C54 1.550 . S
C270 C76 1.516 . S
C282 C131 1.573 . S
C297 C65 1.573 . S
C309 C98 1.537 . S
C324 C120 1.550 . S
C336 C87 1.569 . S
C351 C21 1.531 . S
C363 C142 1.545 . S
C378 C29 1.572 . S
C390 C172 1.525 . S
C405 C7 0.927 . S
C417 C95 1.056 . S
C432 C117 0.977 . S
C444 C37 1.025 . S
C459 C51 1.049 . S
C471 C139 0.925 . S
C486 C175 1.057 . S
C498 C73 0.929 . S
C513 C74 1.541 . S
C525 C8 1.561 . S
C540 C40 1.542 . S
C552 C52 1.560 . S
C567 C164 1.562 . S
C579 C96 1.545 . S
C594 C118 1.529 . S
C606 C140 1.546 . S
C621 C18 1.486 . S
C633 C59 1.521 . S
C648 C32 1.485 . S
C660 C81 1.468 . S
C675 C62 1.427 . S
C687 C15 1.525 . S
C702 C84 1.426 . S
C714 C43 1.522 . S
C729 C106 1.426 . S
C741 C147 1.498 . S
C756 C128 1.427 . S
C768 C161 1.492 . S
C783 C150 1.503 . S
C795 C103 1.524 . S
C810 C125 1.534 . S
C822 C162 1.465 . S
