# Generated by pormake.
# Topology uns, (4)-cn, num edge types: 1
# Building blocks:
#     Node 0, Type 0, BuildingBlock: CEKHIL_clean_sbu_0, # of connection points: 4
#     Node 1, Type 0, BuildingBlock: CEKHIL_clean_sbu_0, # of connection points: 4
#     Node 2, Type 0, BuildingBlock: CEKHIL_clean_sbu_0, # of connection points: 4
#     Node 3, Type 0, BuildingBlock: CEKHIL_clean_sbu_0, # of connection points: 4
#     Node 4, Type 0, BuildingBlock: CEKHIL_clean_sbu_0, # of connection points: 4
#     Node 5, Type 0, BuildingBlock: CEKHIL_clean_sbu_0, # of connection points: 4
#     Node 6, Type 0, BuildingBlock: CEKHIL_clean_sbu_0, # of connection points: 4
#     Node 7, Type 0, BuildingBlock: CEKHIL_clean_sbu_0, # of connection points: 4
#     Node 8, Type 0, BuildingBlock: CEKHIL_clean_sbu_0, # of connection points: 4
#     Node 9, Type 0, BuildingBlock: CEKHIL_clean_sbu_0, # of connection points: 4
#     Node 10, Type 0, BuildingBlock: CEKHIL_clean_sbu_0, # of connection points: 4
#     Node 11, Type 0, BuildingBlock: CEKHIL_clean_sbu_0, # of connection points: 4
#     Node 12, Type 0, BuildingBlock: CEKHIL_clean_sbu_0, # of connection points: 4
#     Node 13, Type 0, BuildingBlock: CEKHIL_clean_sbu_0, # of connection points: 4
#     Node 14, Type 0, BuildingBlock: CEKHIL_clean_sbu_0, # of connection points: 4
#     Node 15, Type 0, BuildingBlock: CEKHIL_clean_sbu_0, # of connection points: 4
#     Node 16, Type 0, BuildingBlock: CEKHIL_clean_sbu_0, # of connection points: 4
#     Node 17, Type 0, BuildingBlock: CEKHIL_clean_sbu_0, # of connection points: 4
#     Node 18, Type 0, BuildingBlock: CEKHIL_clean_sbu_0, # of connection points: 4
#     Node 19, Type 0, BuildingBlock: CEKHIL_clean_sbu_0, # of connection points: 4
#     Node 20, Type 0, BuildingBlock: CEKHIL_clean_sbu_0, # of connection points: 4
#     Node 21, Type 0, BuildingBlock: CEKHIL_clean_sbu_0, # of connection points: 4
#     Node 22, Type 0, BuildingBlock: CEKHIL_clean_sbu_0, # of connection points: 4
#     Node 23, Type 0, BuildingBlock: CEKHIL_clean_sbu_0, # of connection points: 4
#     Node 24, Type 0, BuildingBlock: CEKHIL_clean_sbu_0, # of connection points: 4
#     Node 25, Type 0, BuildingBlock: CEKHIL_clean_sbu_0, # of connection points: 4
#     Node 26, Type 0, BuildingBlock: CEKHIL_clean_sbu_0, # of connection points: 4
#     Node 27, Type 0, BuildingBlock: CEKHIL_clean_sbu_0, # of connection points: 4
#     Node 28, Type 0, BuildingBlock: CEKHIL_clean_sbu_0, # of connection points: 4
#     Node 29, Type 0, BuildingBlock: CEKHIL_clean_sbu_0, # of connection points: 4
#     Node 30, Type 0, BuildingBlock: CEKHIL_clean_sbu_0, # of connection points: 4
#     Node 31, Type 0, BuildingBlock: CEKHIL_clean_sbu_0, # of connection points: 4
#     Node 32, Type 0, BuildingBlock: CEKHIL_clean_sbu_0, # of connection points: 4
#     Node 33, Type 0, BuildingBlock: CEKHIL_clean_sbu_0, # of connection points: 4
#     Node 34, Type 0, BuildingBlock: CEKHIL_clean_sbu_0, # of connection points: 4
#     Node 35, Type 0, BuildingBlock: CEKHIL_clean_sbu_0, # of connection points: 4
#     Edge 36, Type (0, 0), BuildingBlock: OJICUG_clean_linker_0, # of connection points: 2
#     Edge 37, Type (0, 0), BuildingBlock: OJICUG_clean_linker_0, # of connection points: 2
#     Edge 38, Type (0, 0), BuildingBlock: OJICUG_clean_linker_0, # of connection points: 2
#     Edge 39, Type (0, 0), BuildingBlock: OJICUG_clean_linker_0, # of connection points: 2
#     Edge 40, Type (0, 0), BuildingBlock: OJICUG_clean_linker_0, # of connection points: 2
#     Edge 41, Type (0, 0), BuildingBlock: OJICUG_clean_linker_0, # of connection points: 2
#     Edge 42, Type (0, 0), BuildingBlock: OJICUG_clean_linker_0, # of connection points: 2
#     Edge 43, Type (0, 0), BuildingBlock: OJICUG_clean_linker_0, # of connection points: 2
#     Edge 44, Type (0, 0), BuildingBlock: OJICUG_clean_linker_0, # of connection points: 2
#     Edge 45, Type (0, 0), BuildingBlock: OJICUG_clean_linker_0, # of connection points: 2
#     Edge 46, Type (0, 0), BuildingBlock: OJICUG_clean_linker_0, # of connection points: 2
#     Edge 47, Type (0, 0), BuildingBlock: OJICUG_clean_linker_0, # of connection points: 2
#     Edge 48, Type (0, 0), BuildingBlock: OJICUG_clean_linker_0, # of connection points: 2
#     Edge 49, Type (0, 0), BuildingBlock: OJICUG_clean_linker_0, # of connection points: 2
#     Edge 50, Type (0, 0), BuildingBlock: OJICUG_clean_linker_0, # of connection points: 2
#     Edge 51, Type (0, 0), BuildingBlock: OJICUG_clean_linker_0, # of connection points: 2
#     Edge 52, Type (0, 0), BuildingBlock: OJICUG_clean_linker_0, # of connection points: 2
#     Edge 53, Type (0, 0), BuildingBlock: OJICUG_clean_linker_0, # of connection points: 2
#     Edge 54, Type (0, 0), BuildingBlock: OJICUG_clean_linker_0, # of connection points: 2
#     Edge 55, Type (0, 0), BuildingBlock: OJICUG_clean_linker_0, # of connection points: 2
#     Edge 56, Type (0, 0), BuildingBlock: OJICUG_clean_linker_0, # of connection points: 2
#     Edge 57, Type (0, 0), BuildingBlock: OJICUG_clean_linker_0, # of connection points: 2
#     Edge 58, Type (0, 0), BuildingBlock: OJICUG_clean_linker_0, # of connection points: 2
#     Edge 59, Type (0, 0), BuildingBlock: OJICUG_clean_linker_0, # of connection points: 2
#     Edge 60, Type (0, 0), BuildingBlock: OJICUG_clean_linker_0, # of connection points: 2
#     Edge 61, Type (0, 0), BuildingBlock: OJICUG_clean_linker_0, # of connection points: 2
#     Edge 62, Type (0, 0), BuildingBlock: OJICUG_clean_linker_0, # of connection points: 2
#     Edge 63, Type (0, 0), BuildingBlock: OJICUG_clean_linker_0, # of connection points: 2
#     Edge 64, Type (0, 0), BuildingBlock: OJICUG_clean_linker_0, # of connection points: 2
#     Edge 65, Type (0, 0), BuildingBlock: OJICUG_clean_linker_0, # of connection points: 2
#     Edge 66, Type (0, 0), BuildingBlock: OJICUG_clean_linker_0, # of connection points: 2
#     Edge 67, Type (0, 0), BuildingBlock: OJICUG_clean_linker_0, # of connection points: 2
#     Edge 68, Type (0, 0), BuildingBlock: OJICUG_clean_linker_0, # of connection points: 2
#     Edge 69, Type (0, 0), BuildingBlock: OJICUG_clean_linker_0, # of connection points: 2
#     Edge 70, Type (0, 0), BuildingBlock: OJICUG_clean_linker_0, # of connection points: 2
#     Edge 71, Type (0, 0), BuildingBlock: OJICUG_clean_linker_0, # of connection points: 2
#     Edge 72, Type (0, 0), BuildingBlock: OJICUG_clean_linker_0, # of connection points: 2
#     Edge 73, Type (0, 0), BuildingBlock: OJICUG_clean_linker_0, # of connection points: 2
#     Edge 74, Type (0, 0), BuildingBlock: OJICUG_clean_linker_0, # of connection points: 2
#     Edge 75, Type (0, 0), BuildingBlock: OJICUG_clean_linker_0, # of connection points: 2
#     Edge 76, Type (0, 0), BuildingBlock: OJICUG_clean_linker_0, # of connection points: 2
#     Edge 77, Type (0, 0), BuildingBlock: OJICUG_clean_linker_0, # of connection points: 2
#     Edge 78, Type (0, 0), BuildingBlock: OJICUG_clean_linker_0, # of connection points: 2
#     Edge 79, Type (0, 0), BuildingBlock: OJICUG_clean_linker_0, # of connection points: 2
#     Edge 80, Type (0, 0), BuildingBlock: OJICUG_clean_linker_0, # of connection points: 2
#     Edge 81, Type (0, 0), BuildingBlock: OJICUG_clean_linker_0, # of connection points: 2
#     Edge 82, Type (0, 0), BuildingBlock: OJICUG_clean_linker_0, # of connection points: 2
#     Edge 83, Type (0, 0), BuildingBlock: OJICUG_clean_linker_0, # of connection points: 2
#     Edge 84, Type (0, 0), BuildingBlock: OJICUG_clean_linker_0, # of connection points: 2
#     Edge 85, Type (0, 0), BuildingBlock: OJICUG_clean_linker_0, # of connection points: 2
#     Edge 86, Type (0, 0), BuildingBlock: OJICUG_clean_linker_0, # of connection points: 2
#     Edge 87, Type (0, 0), BuildingBlock: OJICUG_clean_linker_0, # of connection points: 2
#     Edge 88, Type (0, 0), BuildingBlock: OJICUG_clean_linker_0, # of connection points: 2
#     Edge 89, Type (0, 0), BuildingBlock: OJICUG_clean_linker_0, # of connection points: 2
#     Edge 90, Type (0, 0), BuildingBlock: OJICUG_clean_linker_0, # of connection points: 2
#     Edge 91, Type (0, 0), BuildingBlock: OJICUG_clean_linker_0, # of connection points: 2
#     Edge 92, Type (0, 0), BuildingBlock: OJICUG_clean_linker_0, # of connection points: 2
#     Edge 93, Type (0, 0), BuildingBlock: OJICUG_clean_linker_0, # of connection points: 2
#     Edge 94, Type (0, 0), BuildingBlock: OJICUG_clean_linker_0, # of connection points: 2
#     Edge 95, Type (0, 0), BuildingBlock: OJICUG_clean_linker_0, # of connection points: 2
#     Edge 96, Type (0, 0), BuildingBlock: OJICUG_clean_linker_0, # of connection points: 2
#     Edge 97, Type (0, 0), BuildingBlock: OJICUG_clean_linker_0, # of connection points: 2
#     Edge 98, Type (0, 0), BuildingBlock: OJICUG_clean_linker_0, # of connection points: 2
#     Edge 99, Type (0, 0), BuildingBlock: OJICUG_clean_linker_0, # of connection points: 2
#     Edge 100, Type (0, 0), BuildingBlock: OJICUG_clean_linker_0, # of connection points: 2
#     Edge 101, Type (0, 0), BuildingBlock: OJICUG_clean_linker_0, # of connection points: 2
#     Edge 102, Type (0, 0), BuildingBlock: OJICUG_clean_linker_0, # of connection points: 2
#     Edge 103, Type (0, 0), BuildingBlock: OJICUG_clean_linker_0, # of connection points: 2
#     Edge 104, Type (0, 0), BuildingBlock: OJICUG_clean_linker_0, # of connection points: 2
#     Edge 105, Type (0, 0), BuildingBlock: OJICUG_clean_linker_0, # of connection points: 2
#     Edge 106, Type (0, 0), BuildingBlock: OJICUG_clean_linker_0, # of connection points: 2
#     Edge 107, Type (0, 0), BuildingBlock: OJICUG_clean_linker_0, # of connection points: 2
# Relax obj value: 0.115
# Max RMSD: 0.265
# Mean RMSD: 0.246
data_MOF--net-uns--node1-CEKHIL_clean_sbu_0--edge1-OJICUG_clean_linker_0
_symmetry_space_group_name_H-M    P1
_symmetry_Int_Tables_number       1
_symmetry_cell_setting            triclinic
loop_
_symmetry_equiv_pos_as_xyz
'x, y, z'
_cell_length_a     40.04869
_cell_length_b     39.287458
_cell_length_c     40.393497
_cell_angle_alpha  91.644458
_cell_angle_beta   89.98929
_cell_angle_gamma 120.65834
loop_
_atom_site_label
_atom_site_type_symbol
_atom_site_fract_x
_atom_site_fract_y
_atom_site_fract_z
_atom_type_partial_charge
Co0 Co 0.28785 0.19328 0.06206 0.0
O1 O 0.31289 0.17123 0.08632 0.0
O2 O 0.2815 0.19848 0.10936 0.0
C3 C 0.25863 0.14469 0.02312 0.0
O4 O 0.25816 0.21843 0.04325 0.0
Co5 Co 0.31988 0.22191 0.99413 0.0
O6 O 0.27931 0.23666 0.99147 0.0
C7 C 0.36821 0.26356 0.05094 0.0
C8 C 0.30416 0.18393 0.11297 0.0
C9 C 0.25722 0.23335 0.01543 0.0
O10 O 0.33665 0.24537 0.06677 0.0
O11 O 0.36977 0.2572 0.01994 0.0
O12 O 0.24303 0.1421 0.05187 0.0
O13 O 0.29399 0.17406 0.02035 0.0
Co14 Co 0.83463 0.09531 0.06639 0.0
O15 O 0.88759 0.1147 0.0546 0.0
O16 O 0.84141 0.10485 0.01891 0.0
C17 C 0.84542 0.13624 0.11033 0.0
O18 O 0.77712 0.07729 0.07228 0.0
Co19 Co 0.80855 0.05347 0.13334 0.0
O20 O 0.76686 0.06564 0.12677 0.0
C21 C 0.80817 0.00715 0.07483 0.0
C22 C 0.87794 0.11716 0.02461 0.0
C23 C 0.7564 0.071 0.09853 0.0
O24 O 0.82075 0.0385 0.05785 0.0
O25 O 0.80308 0.00709 0.10614 0.0
O26 O 0.84734 0.14805 0.08042 0.0
O27 O 0.84423 0.10271 0.1126 0.0
Co28 Co 0.90402 0.72132 0.05313 0.0
O29 O 0.88428 0.75529 0.04269 0.0
O30 O 0.89243 0.71772 0.00568 0.0
C31 C 0.86601 0.69093 0.0965 0.0
O32 O 0.92367 0.68245 0.0572 0.0
Co33 Co 0.94959 0.73954 0.11877 0.0
O34 O 0.93665 0.68421 0.11162 0.0
C35 C 0.9913 0.78397 0.06088 0.0
C36 C 0.88149 0.74327 0.01213 0.0
C37 C 0.93185 0.66856 0.08268 0.0
O38 O 0.95865 0.76557 0.04509 0.0
O39 O 0.99466 0.77864 0.09154 0.0
O40 O 0.8534 0.6801 0.06629 0.0
O41 O 0.89892 0.7243 0.09974 0.0
Co42 Co 0.17971 0.27716 0.44836 0.0
O43 O 0.12603 0.24232 0.45847 0.0
O44 O 0.17099 0.28117 0.49558 0.0
C45 C 0.17176 0.30632 0.40427 0.0
O46 O 0.23801 0.31713 0.44464 0.0
Co47 Co 0.20864 0.25916 0.38337 0.0
O48 O 0.2501 0.31495 0.39045 0.0
C49 C 0.20597 0.21568 0.44192 0.0
C50 C 0.13473 0.25496 0.48896 0.0
C51 C 0.26025 0.33116 0.41928 0.0
O52 O 0.19133 0.23396 0.45732 0.0
O53 O 0.2147 0.22062 0.41125 0.0
O54 O 0.16919 0.31731 0.43423 0.0
O55 O 0.17222 0.27342 0.40168 0.0
Co56 Co 0.73533 0.90083 0.43635 0.0
O57 O 0.76949 0.88269 0.44974 0.0
O58 O 0.7319 0.89264 0.48394 0.0
C59 C 0.70616 0.85892 0.39284 0.0
O60 O 0.6954 0.91799 0.42916 0.0
Co61 Co 0.75104 0.94112 0.36866 0.0
O62 O 0.69715 0.92924 0.37459 0.0
C63 C 0.79649 0.98887 0.42684 0.0
C64 C 0.75696 0.8812 0.47949 0.0
C65 C 0.6812 0.9242 0.40274 0.0
O66 O 0.77764 0.95792 0.44424 0.0
O67 O 0.79169 0.98823 0.39544 0.0
O68 O 0.69602 0.84763 0.42285 0.0
O69 O 0.73829 0.89264 0.39038 0.0
Co70 Co 0.09302 0.80623 0.44196 0.0
O71 O 0.1407 0.82837 0.41852 0.0
O72 O 0.0825 0.801 0.39454 0.0
C73 C 0.11136 0.85467 0.48073 0.0
O74 O 0.03773 0.78102 0.45965 0.0
Co75 Co 0.09451 0.77782 0.51064 0.0
O76 O 0.03908 0.76297 0.51182 0.0
C77 C 0.10276 0.73611 0.45463 0.0
C78 C 0.11981 0.8157 0.39156 0.0
C79 C 0.02105 0.76616 0.48722 0.0
O80 O 0.09004 0.75431 0.43799 0.0
O81 O 0.10959 0.74239 0.48577 0.0
O82 O 0.09907 0.85735 0.45166 0.0
O83 O 0.11724 0.82532 0.48401 0.0
Co84 Co 0.72891 0.81512 0.93308 0.0
O85 O 0.69142 0.82835 0.91871 0.0
O86 O 0.75074 0.8547 0.8992 0.0
C87 C 0.68817 0.74956 0.9267 0.0
O88 O 0.77393 0.80538 0.94282 0.0
Co89 Co 0.71248 0.76986 0.99743 0.0
O90 O 0.74855 0.75477 0.97766 0.0
C91 C 0.74608 0.8564 0.00194 0.0
C92 C 0.71629 0.85055 0.89721 0.0
C93 C 0.7748 0.77712 0.95777 0.0
O94 O 0.74719 0.85681 0.97008 0.0
O95 O 0.73143 0.82428 0.01789 0.0
O96 O 0.70726 0.77059 0.90198 0.0
O97 O 0.69132 0.76917 0.95412 0.0
Co98 Co 0.17387 0.9294 0.9494 0.0
O99 O 0.12037 0.90743 0.96074 0.0
O100 O 0.15718 0.88499 0.97904 0.0
C101 C 0.19176 0.99327 0.96035 0.0
O102 O 0.231 0.947 0.9418 0.0
Co103 Co 0.20024 0.9844 0.88847 0.0
O104 O 0.24986 0.98674 0.89777 0.0
C105 C 0.16083 0.89783 0.87749 0.0
C106 C 0.12361 0.88294 0.97921 0.0
C107 C 0.25631 0.9684 0.9201 0.0
O108 O 0.15964 0.89276 0.90891 0.0
O109 O 0.17201 0.93146 0.86489 0.0
O110 O 0.1895 0.97063 0.98393 0.0
O111 O 0.17833 0.97561 0.9319 0.0
Co112 Co 0.0825 0.2494 0.94043 0.0
O113 O 0.10621 0.2209 0.95627 0.0
O114 O 0.13171 0.28552 0.96338 0.0
C115 C 0.02192 0.20748 0.95882 0.0
O116 O 0.06371 0.2871 0.9279 0.0
Co117 Co 0.01966 0.20634 0.88512 0.0
O118 O 0.01584 0.25446 0.88945 0.0
C119 C 0.10169 0.25285 0.86646 0.0
C120 C 0.13407 0.25416 0.9684 0.0
C121 C 0.0377 0.28501 0.90764 0.0
O122 O 0.11141 0.26107 0.89725 0.0
O123 O 0.06672 0.22907 0.85657 0.0
O124 O 0.04871 0.23409 0.97842 0.0
O125 O 0.03392 0.20299 0.93014 0.0
Co126 Co 0.83073 0.75065 0.56071 0.0
O127 O 0.88271 0.77904 0.54442 0.0
O128 O 0.8427 0.71468 0.53617 0.0
C129 C 0.81282 0.79394 0.54483 0.0
O130 O 0.77437 0.7131 0.57346 0.0
Co131 Co 0.81228 0.79231 0.61827 0.0
O132 O 0.75992 0.74476 0.61344 0.0
C133 C 0.84848 0.74561 0.63385 0.0
C134 C 0.87666 0.74587 0.53146 0.0
C135 C 0.75077 0.71478 0.59432 0.0
O136 O 0.84837 0.73734 0.60283 0.0
O137 O 0.83815 0.76968 0.64489 0.0
O138 O 0.81195 0.76775 0.52402 0.0
O139 O 0.82961 0.79703 0.57305 0.0
Co140 Co 0.24189 0.06945 0.55302 0.0
O141 O 0.2114 0.09288 0.54267 0.0
O142 O 0.26999 0.11369 0.52333 0.0
C143 C 0.1945 0.00623 0.54242 0.0
O144 O 0.28023 0.05007 0.55937 0.0
Co145 Co 0.21327 0.01411 0.61391 0.0
O146 O 0.2592 0.00983 0.60312 0.0
C147 C 0.26103 0.10058 0.6249 0.0
C148 C 0.23908 0.11681 0.52385 0.0
C149 C 0.28361 0.02774 0.58042 0.0
O150 O 0.26563 0.10569 0.59352 0.0
O151 O 0.23781 0.06709 0.63738 0.0
O152 O 0.21465 0.02853 0.51856 0.0
O153 O 0.19997 0.02396 0.57099 0.0
Co154 Co 0.90937 0.18137 0.56763 0.0
O155 O 0.85852 0.16716 0.5825 0.0
O156 O 0.89259 0.14169 0.60131 0.0
C157 C 0.93334 0.24675 0.57405 0.0
O158 O 0.96434 0.19199 0.55747 0.0
Co159 Co 0.93723 0.22679 0.50321 0.0
O160 O 0.98877 0.24244 0.52248 0.0
C161 C 0.88501 0.14016 0.4988 0.0
C162 C 0.86186 0.14504 0.60367 0.0
C163 C 0.99316 0.22038 0.54233 0.0
O164 O 0.88616 0.13976 0.53063 0.0
O165 O 0.90193 0.17228 0.48282 0.0
O166 O 0.93194 0.22591 0.59874 0.0
O167 O 0.91684 0.227 0.54669 0.0
Co168 Co 0.95858 0.52893 0.39132 0.0
O169 O 0.98573 0.50947 0.41608 0.0
O170 O 0.95208 0.53441 0.43863 0.0
C171 C 0.93131 0.47856 0.35349 0.0
O172 O 0.92645 0.55129 0.37217 0.0
Co173 Co 0.98824 0.55659 0.32318 0.0
O174 O 0.94708 0.57039 0.32049 0.0
C175 C 0.03716 0.60039 0.37886 0.0
C176 C 0.97591 0.52133 0.44257 0.0
C177 C 0.92483 0.56615 0.34453 0.0
O178 O 0.00594 0.58217 0.39512 0.0
O179 O 0.03837 0.59341 0.34796 0.0
O180 O 0.91546 0.47651 0.38199 0.0
O181 O 0.96573 0.50926 0.35006 0.0
Co182 Co 0.5022 0.43264 0.39995 0.0
O183 O 0.55539 0.45318 0.38811 0.0
O184 O 0.50871 0.44153 0.35233 0.0
C185 C 0.51194 0.47363 0.44366 0.0
O186 O 0.44435 0.41314 0.40572 0.0
Co187 Co 0.47689 0.3914 0.46727 0.0
O188 O 0.43396 0.40164 0.46021 0.0
C189 C 0.47723 0.34499 0.40907 0.0
C190 C 0.54541 0.45465 0.35799 0.0
C191 C 0.42325 0.40621 0.4318 0.0
O192 O 0.48961 0.37617 0.39189 0.0
O193 O 0.47198 0.3451 0.44034 0.0
O194 O 0.51357 0.4851 0.41364 0.0
O195 O 0.51174 0.44064 0.44617 0.0
Co196 Co 0.56693 0.05248 0.386 0.0
O197 O 0.54968 0.08857 0.3758 0.0
O198 O 0.55501 0.04921 0.33869 0.0
C199 C 0.52893 0.02386 0.42971 0.0
O200 O 0.58371 0.01131 0.38965 0.0
Co201 Co 0.61242 0.06795 0.45158 0.0
O202 O 0.59642 0.01176 0.44396 0.0
C203 C 0.65498 0.11138 0.39347 0.0
C204 C 0.54585 0.07609 0.34526 0.0
C205 C 0.59086 0.99627 0.41489 0.0
O206 O 0.62231 0.0946 0.3777 0.0
O207 O 0.65797 0.10553 0.42408 0.0
O208 O 0.51562 0.01326 0.39964 0.0
O209 O 0.5628 0.05608 0.43259 0.0
Co210 Co 0.84956 0.61333 0.77913 0.0
O211 O 0.7963 0.57802 0.79016 0.0
O212 O 0.84195 0.61769 0.8265 0.0
C213 C 0.84034 0.64167 0.73529 0.0
O214 O 0.90756 0.65386 0.77448 0.0
Co215 Co 0.87769 0.59523 0.7137 0.0
O216 O 0.91892 0.65122 0.72017 0.0
C217 C 0.87671 0.55266 0.77227 0.0
C218 C 0.80569 0.59099 0.82053 0.0
C219 C 0.92938 0.66779 0.74886 0.0
O220 O 0.86213 0.57087 0.78784 0.0
O221 O 0.88481 0.55728 0.74147 0.0
O222 O 0.83799 0.65275 0.76529 0.0
O223 O 0.84112 0.60894 0.73261 0.0
Co224 Co 0.40621 0.23725 0.76795 0.0
O225 O 0.43888 0.21672 0.77921 0.0
O226 O 0.40417 0.22817 0.81554 0.0
C227 C 0.3748 0.19642 0.72437 0.0
O228 O 0.36767 0.25656 0.76263 0.0
Co229 Co 0.42163 0.27872 0.70078 0.0
O230 O 0.36835 0.268 0.70816 0.0
C231 C 0.469 0.3248 0.75875 0.0
C232 C 0.42747 0.21481 0.8094 0.0
C233 C 0.35313 0.26318 0.73664 0.0
O234 O 0.45013 0.29362 0.7759 0.0
O235 O 0.46342 0.32485 0.72754 0.0
O236 O 0.36512 0.18485 0.75438 0.0
O237 O 0.40754 0.22945 0.72171 0.0
Co238 Co 0.76495 0.13991 0.77661 0.0
O239 O 0.81013 0.16011 0.74994 0.0
O240 O 0.74994 0.12922 0.72982 0.0
C241 C 0.78611 0.19248 0.81158 0.0
O242 O 0.71168 0.11588 0.79874 0.0
Co243 Co 0.77611 0.12132 0.84734 0.0
O244 O 0.72461 0.11646 0.85314 0.0
C245 C 0.77621 0.07134 0.79369 0.0
C246 C 0.78699 0.14449 0.72452 0.0
C247 C 0.7015 0.11187 0.82941 0.0
O248 O 0.76338 0.08863 0.77596 0.0
O249 O 0.7855 0.08062 0.82428 0.0
O250 O 0.77064 0.19148 0.78299 0.0
O251 O 0.79312 0.1641 0.81614 0.0
Co252 Co 0.3955 0.15168 0.26839 0.0
O253 O 0.3583 0.16541 0.25433 0.0
O254 O 0.41728 0.19084 0.23423 0.0
C255 C 0.35414 0.08618 0.26242 0.0
O256 O 0.44016 0.14132 0.27766 0.0
Co257 Co 0.37948 0.10694 0.33295 0.0
O258 O 0.41472 0.09099 0.31276 0.0
C259 C 0.41404 0.19362 0.33703 0.0
C260 C 0.38298 0.18707 0.23249 0.0
C261 C 0.44077 0.1129 0.29255 0.0
O262 O 0.4147 0.19374 0.30516 0.0
O263 O 0.39931 0.16163 0.35317 0.0
O264 O 0.37305 0.10693 0.23753 0.0
O265 O 0.35782 0.10607 0.28981 0.0
Co266 Co 0.84187 0.25588 0.28701 0.0
O267 O 0.78846 0.2354 0.29763 0.0
O268 O 0.82236 0.20845 0.31332 0.0
C269 C 0.86322 0.31954 0.30258 0.0
O270 O 0.89847 0.27151 0.27986 0.0
Co271 Co 0.8721 0.31661 0.2301 0.0
O272 O 0.92038 0.31611 0.2392 0.0
C273 C 0.83038 0.23112 0.21333 0.0
C274 C 0.78973 0.20833 0.31403 0.0
C275 C 0.92499 0.29477 0.25981 0.0
O276 O 0.82742 0.22303 0.24423 0.0
O277 O 0.84357 0.26617 0.20302 0.0
O278 O 0.8585 0.29379 0.32417 0.0
O279 O 0.84952 0.30494 0.2733 0.0
Co280 Co 0.74949 0.58326 0.2722 0.0
O281 O 0.77254 0.55413 0.28804 0.0
O282 O 0.79882 0.61883 0.29521 0.0
C283 C 0.68863 0.542 0.29047 0.0
O284 O 0.73135 0.62149 0.25958 0.0
Co285 Co 0.68725 0.54086 0.21655 0.0
O286 O 0.68395 0.58928 0.22068 0.0
C287 C 0.76934 0.58697 0.19829 0.0
C288 C 0.80074 0.58719 0.30011 0.0
C289 C 0.7057 0.6197 0.23903 0.0
O290 O 0.77869 0.59482 0.22916 0.0
O291 O 0.73443 0.56351 0.1881 0.0
O292 O 0.71559 0.56835 0.3101 0.0
O293 O 0.70058 0.53718 0.26185 0.0
Co294 Co 0.50185 0.08708 0.89892 0.0
O295 O 0.55594 0.1193 0.88977 0.0
O296 O 0.52118 0.05561 0.87637 0.0
C297 C 0.48307 0.12837 0.87919 0.0
O298 O 0.44424 0.04642 0.90543 0.0
Co299 Co 0.47333 0.12431 0.95266 0.0
O300 O 0.42369 0.07454 0.94382 0.0
C301 C 0.50971 0.07958 0.9738 0.0
C302 C 0.55475 0.08845 0.87642 0.0
C303 C 0.4179 0.04581 0.9244 0.0
O304 O 0.51387 0.07265 0.94325 0.0
O305 O 0.49697 0.10234 0.98284 0.0
O306 O 0.48784 0.10457 0.8596 0.0
O307 O 0.49568 0.13108 0.90925 0.0
Co308 Co 0.91547 0.40884 0.8832 0.0
O309 O 0.88488 0.43227 0.87355 0.0
O310 O 0.94342 0.45339 0.85387 0.0
C311 C 0.8681 0.34572 0.87199 0.0
O312 O 0.95386 0.38952 0.88881 0.0
Co313 Co 0.88703 0.35273 0.94357 0.0
O314 O 0.93317 0.34902 0.93241 0.0
C315 C 0.93494 0.43909 0.95534 0.0
C316 C 0.9124 0.45631 0.85465 0.0
C317 C 0.95743 0.36715 0.90965 0.0
O318 O 0.93938 0.44459 0.924 0.0
O319 O 0.9118 0.40543 0.96759 0.0
O320 O 0.88819 0.36852 0.84838 0.0
O321 O 0.87363 0.36293 0.90083 0.0
Co322 Co 0.58142 0.51513 0.90114 0.0
O323 O 0.5303 0.50014 0.91552 0.0
O324 O 0.56461 0.47491 0.93435 0.0
C325 C 0.60467 0.58033 0.90828 0.0
O326 O 0.63664 0.52655 0.89118 0.0
Co327 Co 0.60932 0.56171 0.83723 0.0
O328 O 0.6608 0.57761 0.85681 0.0
C329 C 0.55797 0.475 0.8319 0.0
C330 C 0.53359 0.47777 0.93645 0.0
C331 C 0.66536 0.55538 0.87634 0.0
O332 O 0.55899 0.47412 0.8637 0.0
O333 O 0.57461 0.50739 0.81627 0.0
O334 O 0.60326 0.55923 0.93277 0.0
O335 O 0.58856 0.56087 0.88072 0.0
Co336 Co 0.62476 0.86258 0.72639 0.0
O337 O 0.65087 0.84139 0.75027 0.0
O338 O 0.61661 0.86509 0.77376 0.0
C339 C 0.59873 0.81521 0.68611 0.0
O340 O 0.59353 0.88625 0.70784 0.0
Co341 Co 0.65798 0.89493 0.65998 0.0
O342 O 0.61612 0.90779 0.65702 0.0
C343 C 0.70414 0.9349 0.71803 0.0
C344 C 0.64046 0.85193 0.77715 0.0
C345 C 0.59281 0.90221 0.68052 0.0
O346 O 0.67204 0.91569 0.73294 0.0
O347 O 0.70689 0.92973 0.68702 0.0
O348 O 0.58176 0.81078 0.71439 0.0
O349 O 0.63356 0.84576 0.68452 0.0
Co350 Co 0.16989 0.7596 0.73654 0.0
O351 O 0.22258 0.77483 0.72768 0.0
O352 O 0.18076 0.76968 0.6894 0.0
C353 C 0.18008 0.80018 0.78053 0.0
O354 O 0.11309 0.74541 0.73933 0.0
Co355 Co 0.1371 0.71661 0.80225 0.0
O356 O 0.0985 0.7325 0.79318 0.0
C357 C 0.13742 0.67002 0.74436 0.0
C358 C 0.21595 0.77829 0.69698 0.0
C359 C 0.09076 0.73942 0.76441 0.0
O360 O 0.15254 0.70192 0.72786 0.0
O361 O 0.13062 0.66958 0.77537 0.0
O362 O 0.18544 0.81313 0.75072 0.0
O363 O 0.17624 0.76547 0.78307 0.0
Co364 Co 0.23336 0.38645 0.72002 0.0
O365 O 0.214 0.42073 0.70959 0.0
O366 O 0.22135 0.38252 0.67267 0.0
C367 C 0.19573 0.35671 0.76371 0.0
O368 O 0.25247 0.34718 0.72402 0.0
Co369 Co 0.27927 0.40436 0.78561 0.0
O370 O 0.26567 0.34883 0.77838 0.0
C371 C 0.32081 0.44825 0.72736 0.0
C372 C 0.21075 0.40833 0.67908 0.0
C373 C 0.26058 0.33314 0.74943 0.0
O374 O 0.2881 0.43022 0.71164 0.0
O375 O 0.32419 0.44291 0.75801 0.0
O376 O 0.18268 0.34571 0.73362 0.0
O377 O 0.22884 0.38986 0.76662 0.0
Co378 Co 0.5146 0.94889 0.12009 0.0
O379 O 0.46151 0.9143 0.13177 0.0
O380 O 0.50815 0.9531 0.16772 0.0
C381 C 0.50452 0.97783 0.077 0.0
O382 O 0.5727 0.98848 0.11463 0.0
Co383 Co 0.54048 0.9306 0.05362 0.0
O384 O 0.58238 0.98631 0.05994 0.0
C385 C 0.54032 0.88729 0.11147 0.0
C386 C 0.47164 0.92691 0.16212 0.0
C387 C 0.59395 0.00231 0.0887 0.0
O388 O 0.52631 0.90558 0.12775 0.0
O389 O 0.54785 0.89221 0.08058 0.0
O390 O 0.50364 0.98911 0.10726 0.0
O391 O 0.5049 0.94492 0.07374 0.0
Co392 Co 0.07844 0.5732 0.10032 0.0
O393 O 0.11164 0.55297 0.11071 0.0
O394 O 0.0757 0.56181 0.1475 0.0
C395 C 0.04803 0.53379 0.05567 0.0
O396 O 0.03924 0.59184 0.09572 0.0
Co397 Co 0.09434 0.61718 0.03439 0.0
O398 O 0.04063 0.60519 0.04162 0.0
C399 C 0.14014 0.66166 0.09363 0.0
C400 C 0.09944 0.54915 0.14077 0.0
C401 C 0.02491 0.59913 0.06995 0.0
O402 O 0.12159 0.62971 0.10995 0.0
O403 O 0.13502 0.66267 0.06246 0.0
O404 O 0.03812 0.52103 0.08533 0.0
O405 O 0.08053 0.56725 0.05386 0.0
Co406 Co 0.42992 0.47003 0.10594 0.0
O407 O 0.47669 0.49097 0.08125 0.0
O408 O 0.41755 0.46007 0.0588 0.0
C409 C 0.44866 0.52212 0.14112 0.0
O410 O 0.37522 0.44519 0.12508 0.0
Co411 Co 0.43516 0.44905 0.17651 0.0
O412 O 0.3794 0.43258 0.17848 0.0
C413 C 0.44054 0.40136 0.12397 0.0
C414 C 0.45486 0.47558 0.05502 0.0
C415 C 0.35989 0.43261 0.15358 0.0
O416 O 0.42855 0.41887 0.10561 0.0
O417 O 0.4478 0.41001 0.15485 0.0
O418 O 0.43472 0.52102 0.11178 0.0
O419 O 0.45566 0.4939 0.14683 0.0
Co420 Co 0.05928 0.48133 0.59949 0.0
O421 O 0.02288 0.49579 0.5846 0.0
O422 O 0.08268 0.5216 0.56631 0.0
C423 C 0.0178 0.41601 0.59218 0.0
O424 O 0.10345 0.47054 0.60977 0.0
Co425 Co 0.04051 0.43424 0.66318 0.0
O426 O 0.07683 0.41918 0.64384 0.0
C427 C 0.07488 0.52088 0.66894 0.0
C428 C 0.04859 0.51819 0.56371 0.0
C429 C 0.10366 0.44182 0.62451 0.0
O430 O 0.07713 0.52219 0.63714 0.0
O431 O 0.05927 0.4883 0.68429 0.0
O432 O 0.03764 0.43725 0.56779 0.0
O433 O 0.0208 0.43534 0.61971 0.0
Co434 Co 0.50539 0.59469 0.6188 0.0
O435 O 0.45184 0.5733 0.62967 0.0
O436 O 0.48723 0.54846 0.64643 0.0
C437 C 0.52549 0.65854 0.63235 0.0
O438 O 0.56225 0.61143 0.61182 0.0
Co439 Co 0.53432 0.65341 0.56032 0.0
O440 O 0.58355 0.65529 0.57062 0.0
C441 C 0.49377 0.56749 0.54561 0.0
C442 C 0.4541 0.54732 0.64691 0.0
C443 C 0.58869 0.63488 0.59183 0.0
O444 O 0.49131 0.56036 0.57674 0.0
O445 O 0.50607 0.60204 0.53453 0.0
O446 O 0.5218 0.63415 0.65491 0.0
O447 O 0.51166 0.64254 0.60347 0.0
Co448 Co 0.41477 0.91382 0.60653 0.0
O449 O 0.44082 0.88666 0.62001 0.0
O450 O 0.46343 0.95035 0.63016 0.0
C451 C 0.35531 0.86791 0.62445 0.0
O452 O 0.39321 0.95002 0.59662 0.0
Co453 Co 0.35216 0.87155 0.55102 0.0
O454 O 0.34609 0.91809 0.55744 0.0
C455 C 0.43396 0.92044 0.53244 0.0
C456 C 0.4675 0.91972 0.63344 0.0
C457 C 0.36686 0.94789 0.57671 0.0
O458 O 0.44353 0.92894 0.56324 0.0
O459 O 0.39928 0.89551 0.52254 0.0
O460 O 0.38126 0.89441 0.64464 0.0
O461 O 0.36756 0.86644 0.59508 0.0
Co462 Co 0.16677 0.4123 0.22643 0.0
O463 O 0.21915 0.4414 0.21105 0.0
O464 O 0.18082 0.37663 0.20408 0.0
C465 C 0.14773 0.45365 0.20705 0.0
O466 O 0.11028 0.37384 0.23855 0.0
Co467 Co 0.14527 0.45475 0.28078 0.0
O468 O 0.09414 0.40549 0.27717 0.0
C469 C 0.18145 0.40928 0.30068 0.0
C470 C 0.21434 0.40829 0.19915 0.0
C471 C 0.08611 0.37512 0.259 0.0
O472 O 0.18381 0.40126 0.27001 0.0
O473 O 0.16947 0.43257 0.3101 0.0
O474 O 0.14845 0.42694 0.18798 0.0
O475 O 0.16374 0.45846 0.23602 0.0
Co476 Co 0.5789 0.73911 0.21632 0.0
O477 O 0.54786 0.76244 0.20791 0.0
O478 O 0.60727 0.78593 0.18942 0.0
C479 C 0.53249 0.67644 0.20183 0.0
O480 O 0.61809 0.72062 0.22086 0.0
Co481 Co 0.54924 0.67799 0.27324 0.0
O482 O 0.59692 0.6771 0.26233 0.0
C483 C 0.59603 0.76364 0.28977 0.0
C484 C 0.57587 0.78814 0.19029 0.0
C485 C 0.62182 0.69744 0.24066 0.0
O486 O 0.60088 0.77184 0.25887 0.0
O487 O 0.57327 0.72877 0.30009 0.0
O488 O 0.55323 0.70121 0.17953 0.0
O489 O 0.53694 0.69142 0.23147 0.0
Co490 Co 0.24646 0.85152 0.23809 0.0
O491 O 0.19502 0.83677 0.25137 0.0
O492 O 0.22884 0.81171 0.27165 0.0
C493 C 0.26967 0.91681 0.24477 0.0
O494 O 0.3019 0.8628 0.22964 0.0
Co495 Co 0.2766 0.89794 0.17437 0.0
O496 O 0.32735 0.91422 0.19568 0.0
C497 C 0.22527 0.81112 0.16884 0.0
C498 C 0.19797 0.81491 0.27305 0.0
C499 C 0.33121 0.89189 0.21561 0.0
O500 O 0.22493 0.81021 0.20069 0.0
O501 O 0.2427 0.84354 0.15328 0.0
O502 O 0.26756 0.89578 0.26954 0.0
O503 O 0.25431 0.89726 0.21708 0.0
C504 C 0.36128 0.18948 0.14275 0.0
C505 C 0.32566 0.18853 0.14418 0.0
H506 H 0.40865 0.19212 0.16962 0.0
C507 C 0.31267 0.19399 0.17501 0.0
H508 H 0.37274 0.18652 0.11924 0.0
C509 C 0.33347 0.19722 0.20402 0.0
C510 C 0.3681 0.19612 0.20259 0.0
H511 H 0.28579 0.19419 0.1768 0.0
H512 H 0.3215 0.19868 0.22772 0.0
C513 C 0.38248 0.19368 0.17157 0.0
C514 C 0.82694 0.18479 0.12993 0.0
C515 C 0.83676 0.15628 0.13775 0.0
H516 H 0.81553 0.22948 0.14762 0.0
C517 C 0.838 0.14796 0.17116 0.0
H518 H 0.82465 0.1913 0.10443 0.0
C519 C 0.83239 0.17003 0.19626 0.0
C520 C 0.82532 0.20054 0.1882 0.0
H521 H 0.84486 0.1257 0.17787 0.0
H522 H 0.83606 0.16491 0.22185 0.0
C523 C 0.82119 0.20649 0.15474 0.0
C524 C 0.79083 0.59963 0.13958 0.0
C525 C 0.79876 0.61081 0.17323 0.0
H526 H 0.80558 0.61588 0.08958 0.0
C527 C 0.83169 0.64794 0.18189 0.0
H528 H 0.76597 0.57135 0.13189 0.0
C529 C 0.85462 0.67411 0.15728 0.0
C530 C 0.84498 0.66354 0.12364 0.0
H531 H 0.83856 0.65769 0.20763 0.0
H532 H 0.8789 0.70294 0.16454 0.0
C533 C 0.81354 0.62552 0.11523 0.0
C534 C 0.18454 0.37133 0.38467 0.0
C535 C 0.17864 0.33346 0.37681 0.0
H536 H 0.19131 0.4252 0.36714 0.0
C537 C 0.17906 0.32285 0.34338 0.0
H538 H 0.1852 0.381 0.41016 0.0
C539 C 0.18295 0.34881 0.31835 0.0
C540 C 0.18651 0.38579 0.32639 0.0
H541 H 0.17507 0.29414 0.33656 0.0
H542 H 0.18108 0.33901 0.29273 0.0
C543 C 0.18843 0.39704 0.35991 0.0
C544 C 0.61207 0.78772 0.34841 0.0
C545 C 0.62207 0.79381 0.31494 0.0
H546 H 0.63066 0.80296 0.3987 0.0
C547 C 0.65962 0.82435 0.30685 0.0
H548 H 0.58342 0.76473 0.35558 0.0
C549 C 0.68726 0.84654 0.33195 0.0
C550 C 0.67769 0.83828 0.36537 0.0
H551 H 0.66833 0.82956 0.28124 0.0
H552 H 0.71631 0.869 0.32523 0.0
C553 C 0.63946 0.80949 0.37321 0.0
C554 C 0.17234 0.81122 0.36245 0.0
C555 C 0.13738 0.81158 0.36061 0.0
H556 H 0.21787 0.80958 0.33607 0.0
C557 C 0.11932 0.80608 0.32959 0.0
H558 H 0.18649 0.81426 0.38611 0.0
C559 C 0.13749 0.80337 0.30079 0.0
C560 C 0.17348 0.80509 0.30263 0.0
H561 H 0.09205 0.80545 0.3275 0.0
H562 H 0.12434 0.80191 0.27696 0.0
C563 C 0.18995 0.80754 0.33383 0.0
C564 C 0.69741 0.85782 0.80756 0.0
C565 C 0.66113 0.85553 0.80865 0.0
H566 H 0.74444 0.86021 0.83482 0.0
C567 C 0.64655 0.85837 0.8395 0.0
H568 H 0.71008 0.85687 0.7841 0.0
C569 C 0.66649 0.86034 0.86872 0.0
C570 C 0.70178 0.86049 0.86753 0.0
H571 H 0.61912 0.85748 0.84109 0.0
H572 H 0.65338 0.85985 0.89229 0.0
C573 C 0.71768 0.86068 0.83662 0.0
C574 C 0.16561 0.8374 0.8643 0.0
C575 C 0.1562 0.86569 0.85433 0.0
H576 H 0.18097 0.79427 0.84863 0.0
C577 C 0.15028 0.86826 0.8205 0.0
H578 H 0.17061 0.83486 0.89022 0.0
C579 C 0.15698 0.84589 0.79704 0.0
C580 C 0.16946 0.82 0.80668 0.0
H581 H 0.14266 0.88936 0.81195 0.0
H582 H 0.15344 0.8499 0.77112 0.0
C583 C 0.17205 0.81454 0.84057 0.0
C584 C 0.12206 0.26529 0.80751 0.0
C585 C 0.13059 0.27667 0.84109 0.0
H586 H 0.13563 0.28142 0.75734 0.0
C587 C 0.16343 0.31399 0.84939 0.0
H588 H 0.09725 0.23686 0.80009 0.0
C589 C 0.18566 0.34014 0.82453 0.0
C590 C 0.17536 0.32938 0.79101 0.0
H591 H 0.17074 0.32388 0.87507 0.0
H592 H 0.2099 0.36911 0.83154 0.0
C593 C 0.14404 0.2912 0.78291 0.0
C594 C 0.84781 0.68353 0.64974 0.0
C595 C 0.85448 0.72164 0.65837 0.0
H596 H 0.83772 0.62776 0.6673 0.0
C597 C 0.86033 0.73387 0.69186 0.0
H598 H 0.84294 0.67305 0.62411 0.0
C599 C 0.8569 0.70799 0.71625 0.0
C600 C 0.84754 0.669 0.708 0.0
H601 H 0.86582 0.76298 0.69946 0.0
H602 H 0.8605 0.71841 0.74185 0.0
C603 C 0.84441 0.65739 0.67441 0.0
C604 C 0.30637 0.15268 0.70589 0.0
C605 C 0.34546 0.17718 0.69738 0.0
H606 H 0.24874 0.11062 0.68944 0.0
C607 C 0.35523 0.1818 0.66378 0.0
H608 H 0.29756 0.14936 0.73152 0.0
C609 C 0.32675 0.15943 0.63933 0.0
C610 C 0.28822 0.13245 0.64831 0.0
H611 H 0.38503 0.201 0.65656 0.0
H612 H 0.33546 0.16121 0.61375 0.0
C613 C 0.27815 0.13074 0.68171 0.0
C614 C 0.80186 0.13318 0.63283 0.0
C615 C 0.83769 0.1344 0.63356 0.0
H616 H 0.75724 0.13515 0.66111 0.0
C617 C 0.85428 0.13511 0.66426 0.0
H618 H 0.78857 0.13296 0.60941 0.0
C619 C 0.83721 0.13793 0.69353 0.0
C620 C 0.80261 0.13907 0.69287 0.0
H621 H 0.88202 0.13661 0.6657 0.0
H622 H 0.85169 0.14008 0.71682 0.0
C623 C 0.78416 0.13495 0.66231 0.0
C624 C 0.98142 0.52855 0.50488 0.0
C625 C 0.99629 0.52528 0.47431 0.0
H626 H 0.98712 0.52968 0.55776 0.0
C627 C 0.03219 0.52675 0.47379 0.0
H628 H 0.95423 0.52821 0.50601 0.0
C629 C 0.05171 0.52907 0.50319 0.0
C630 C 0.03535 0.52911 0.53382 0.0
H631 H 0.04502 0.52538 0.45055 0.0
H632 H 0.0781 0.52786 0.50185 0.0
C633 C 1.00057 0.52996 0.53441 0.0
C634 C 0.4905 0.52 0.46285 0.0
C635 C 0.50233 0.4931 0.47093 0.0
H636 H 0.47673 0.56313 0.48013 0.0
C637 C 0.5047 0.48586 0.50445 0.0
H638 H 0.48729 0.52558 0.43728 0.0
C639 C 0.4983 0.50758 0.52937 0.0
C640 C 0.48924 0.53661 0.521 0.0
H641 H 0.51313 0.46482 0.51137 0.0
H642 H 0.50297 0.5035 0.555 0.0
C643 C 0.48392 0.54129 0.48748 0.0
C644 C 0.51837 0.00747 0.49051 0.0
C645 C 0.50803 0.99679 0.45699 0.0
H646 H 0.50329 0.9913 0.54105 0.0
C647 C 0.47622 0.95894 0.44887 0.0
H648 H 0.54298 0.0362 0.49752 0.0
C649 C 0.45395 0.93323 0.47344 0.0
C650 C 0.46264 0.9445 0.50703 0.0
H651 H 0.46776 0.94924 0.42329 0.0
H652 H 0.42893 0.90498 0.46597 0.0
C653 C 0.49581 0.98153 0.51537 0.0
C654 C 0.5133 0.02021 0.99136 0.0
C655 C 0.51447 0.05601 0.99959 0.0
H656 H 0.50876 0.96683 0.00925 0.0
C657 C 0.51472 0.06631 0.03315 0.0
H658 H 0.51276 0.01116 0.9657 0.0
C659 C 0.51206 0.04093 0.05773 0.0
C660 C 0.50904 0.00433 0.04968 0.0
H661 H 0.51571 0.09354 0.04051 0.0
H662 H 0.5116 0.0499 0.08326 0.0
C663 C 0.51057 0.99455 0.01622 0.0
C664 C 1.00073 0.4977 0.97022 0.0
C665 C 0.96207 0.47079 0.97894 0.0
H666 H 0.05895 0.53898 0.98787 0.0
C667 C 0.9517 0.46902 0.01225 0.0
H668 H 0.00966 0.49952 0.94471 0.0
C669 C 0.97972 0.49081 0.03661 0.0
C670 C 0.01894 0.51519 0.0284 0.0
H671 H 0.92218 0.44895 0.01977 0.0
H672 H 0.97067 0.48741 0.06217 0.0
C673 C 0.02904 0.51991 0.99487 0.0
C674 C 0.52511 0.46814 0.997 0.0
C675 C 0.50876 0.46629 0.96588 0.0
H676 H 0.52127 0.47374 0.0494 0.0
C677 C 0.47233 0.46365 0.96421 0.0
H678 H 0.55331 0.47077 0.99911 0.0
C679 C 0.45379 0.46533 0.99313 0.0
C680 C 0.47192 0.47068 0.02408 0.0
H681 H 0.45922 0.46253 0.94044 0.0
H682 H 0.42639 0.46445 0.99117 0.0
C683 C 0.50709 0.47076 0.02576 0.0
C684 C 0.24561 0.06365 0.9623 0.0
C685 C 0.2064 0.03545 0.96726 0.0
H686 H 0.29331 0.12156 0.97588 0.0
C687 C 0.18356 0.046 0.98612 0.0
H688 H 0.26385 0.05565 0.94835 0.0
C689 C 0.20022 0.08327 0.00188 0.0
C690 C 0.24017 0.11052 0.99936 0.0
H691 H 0.1534 0.02442 0.99061 0.0
H692 H 0.1823 0.08974 0.0179 0.0
C693 C 0.26242 0.10121 0.97812 0.0
C694 C 0.96927 0.20293 0.99408 0.0
C695 C 0.98105 0.18524 0.96969 0.0
H696 H 0.92663 0.19496 0.02975 0.0
C697 C 0.95514 0.14568 0.95941 0.0
H698 H 0.98838 0.23343 0.00231 0.0
C699 C 0.91932 0.12342 0.97537 0.0
C700 C 0.90904 0.14085 0.00126 0.0
H701 H 0.96361 0.13131 0.94075 0.0
H702 H 0.90096 0.09222 0.96896 0.0
C703 C 0.93377 0.18102 0.00964 0.0
C704 C 0.86917 0.7944 0.98984 0.0
C705 C 0.8628 0.75572 0.98748 0.0
H706 H 0.84663 0.83237 0.98007 0.0
C707 C 0.83237 0.72739 0.96708 0.0
H708 H 0.89241 0.81676 0.00553 0.0
C709 C 0.80578 0.73622 0.95293 0.0
C710 C 0.80989 0.77378 0.95824 0.0
H711 H 0.82656 0.69728 0.96514 0.0
H712 H 0.7799 0.71255 0.94068 0.0
C713 C 0.84319 0.80351 0.97497 0.0
C714 C 0.06505 0.26204 0.54694 0.0
C715 C 0.03183 0.22428 0.5418 0.0
H716 H 0.12482 0.30119 0.53499 0.0
C717 C 0.03578 0.19455 0.52552 0.0
H718 H 0.06254 0.28569 0.55886 0.0
C719 C 0.07107 0.20377 0.51098 0.0
C720 C 0.10321 0.24257 0.51323 0.0
H721 H 0.01053 0.16552 0.52057 0.0
H722 H 0.07228 0.18134 0.49565 0.0
C723 C 0.10067 0.27099 0.53315 0.0
C724 C 0.81532 0.85866 0.53875 0.0
C725 C 0.79461 0.8171 0.53606 0.0
H726 H 0.81932 0.91234 0.52243 0.0
C727 C 0.75833 0.79763 0.51971 0.0
H728 H 0.84362 0.87427 0.55085 0.0
C729 C 0.74409 0.81922 0.50438 0.0
C730 C 0.76612 0.86068 0.50467 0.0
H731 H 0.74192 0.7656 0.51723 0.0
H732 H 0.71726 0.80342 0.49005 0.0
C733 C 0.8014 0.88038 0.52266 0.0
C734 C 0.13348 0.95281 0.51746 0.0
C735 C 0.16721 0.96397 0.53603 0.0
H736 H 0.08852 0.90842 0.48606 0.0
C737 C 0.17878 0.93624 0.5411 0.0
H738 H 0.12448 0.97404 0.51293 0.0
C739 C 0.1583 0.89856 0.52555 0.0
C740 C 0.12646 0.88869 0.5045 0.0
H741 H 0.20529 0.94475 0.55482 0.0
H742 H 0.16931 0.87861 0.52774 0.0
C743 C 0.11313 0.91539 0.50197 0.0
C744 C 0.78168 0.93095 0.00429 0.0
C745 C 0.76332 0.89499 0.0209 0.0
H746 H 0.81069 0.99414 0.00804 0.0
C747 C 0.7621 0.89646 0.05573 0.0
H748 H 0.78355 0.93118 0.97754 0.0
C749 C 0.77791 0.93282 0.07335 0.0
C750 C 0.79546 0.96874 0.05665 0.0
H751 H 0.74848 0.86948 0.06946 0.0
H752 H 0.77557 0.93265 0.10007 0.0
C753 C 0.79754 0.96725 0.02188 0.0
C754 C 0.05316 0.8485 0.99181 0.0
C755 C 0.09048 0.85606 1.00014 0.0
H756 H 0.9933 0.82063 0.00436 0.0
C757 C 0.09545 0.84061 0.02951 0.0
H758 H 0.04822 0.86004 0.96947 0.0
C759 C 0.06363 0.81833 0.05015 0.0
C760 C 0.02624 0.81066 0.04148 0.0
H761 H 0.12393 0.84634 0.03681 0.0
H762 H 0.06814 0.80647 0.07247 0.0
C763 C 0.02157 0.826 0.01198 0.0
C764 C 0.15911 0.2246 0.00794 0.0
C765 C 0.16678 0.25494 0.98611 0.0
H766 H 0.18205 0.19485 0.03535 0.0
C767 C 0.20532 0.28146 0.97761 0.0
H768 H 0.12953 0.20361 0.01471 0.0
C769 C 0.23527 0.27574 0.9887 0.0
C770 C 0.2273 0.24413 0.00924 0.0
H771 H 0.21191 0.30475 0.96051 0.0
H772 H 0.26447 0.29507 0.98011 0.0
C773 C 0.18914 0.21962 0.01984 0.0
C774 C 0.93207 0.77563 0.49277 0.0
C775 C 0.90848 0.7448 0.51388 0.0
H776 H 0.98576 0.80569 0.46673 0.0
C777 C 0.91976 0.7177 0.52232 0.0
H778 H 0.92407 0.79709 0.48613 0.0
C779 C 0.95565 0.72333 0.512 0.0
C780 C 0.98021 0.75543 0.49228 0.0
H781 H 0.90235 0.69407 0.53893 0.0
H782 H 0.96497 0.70358 0.52063 0.0
C783 C 0.96731 0.78052 0.48161 0.0
C784 C 0.24345 0.18081 0.4526 0.0
C785 C 0.2145 0.18946 0.46171 0.0
H786 H 0.27498 0.1519 0.46553 0.0
C787 C 0.19534 0.17525 0.49175 0.0
H788 H 0.25916 0.19176 0.42983 0.0
C789 C 0.20439 0.15275 0.51195 0.0
C790 C 0.23324 0.14406 0.50307 0.0
H791 H 0.17304 0.18137 0.49973 0.0
H792 H 0.1885 0.14199 0.53467 0.0
C793 C 0.25294 0.15852 0.47324 0.0
C794 C 0.83989 0.06329 0.42774 0.0
C795 C 0.8221 0.02752 0.44465 0.0
H796 H 0.87339 0.12669 0.43132 0.0
C797 C 0.82624 0.02929 0.47938 0.0
H798 H 0.83725 0.06321 0.40105 0.0
C799 C 0.84668 0.0657 0.49675 0.0
C800 C 0.86372 0.10152 0.47997 0.0
H801 H 0.81299 0.00251 0.49338 0.0
H802 H 0.84876 0.06564 0.52348 0.0
C803 C 0.86047 0.0998 0.44517 0.0
C804 C 0.89616 0.42897 0.30698 0.0
C805 C 0.91976 0.44104 0.33566 0.0
H806 H 0.85973 0.3803 0.27329 0.0
C807 C 0.92746 0.41422 0.351 0.0
H808 H 0.88952 0.44926 0.29514 0.0
C809 C 0.91022 0.37524 0.33908 0.0
C810 C 0.88498 0.36224 0.31143 0.0
H811 H 0.94537 0.42295 0.37331 0.0
H812 H 0.91571 0.3549 0.35226 0.0
C813 C 0.87908 0.38968 0.29467 0.0
C814 C 0.58622 0.45882 0.30888 0.0
C815 C 0.57616 0.47736 0.33401 0.0
H816 H 0.63016 0.46513 0.27448 0.0
C817 C 0.60085 0.51789 0.34102 0.0
H818 H 0.56791 0.42736 0.30353 0.0
C819 C 0.63612 0.53911 0.32493 0.0
C820 C 0.64773 0.52036 0.30138 0.0
H821 H 0.59391 0.53272 0.36051 0.0
H822 H 0.65527 0.56996 0.33217 0.0
C823 C 0.62181 0.48036 0.2924 0.0
C824 C 0.53472 0.12825 0.32353 0.0
C825 C 0.52758 0.08929 0.3209 0.0
H826 H 0.51312 0.16715 0.31441 0.0
C827 C 0.49677 0.06144 0.30053 0.0
H828 H 0.55828 0.15026 0.33918 0.0
C829 C 0.47055 0.07102 0.28677 0.0
C830 C 0.47542 0.10884 0.29245 0.0
H831 H 0.49038 0.03114 0.29836 0.0
H832 H 0.44437 0.04772 0.27459 0.0
C833 C 0.5091 0.13809 0.30905 0.0
C834 C 0.7372 0.59733 0.88033 0.0
C835 C 0.70407 0.55946 0.87544 0.0
H836 H 0.79655 0.63687 0.86743 0.0
C837 C 0.70794 0.52987 0.85879 0.0
H838 H 0.73472 0.62085 0.89256 0.0
C839 C 0.74293 0.53938 0.84354 0.0
C840 C 0.77484 0.57833 0.84544 0.0
H841 H 0.68274 0.50075 0.85406 0.0
H842 H 0.74399 0.51707 0.82792 0.0
C843 C 0.77255 0.60657 0.86581 0.0
C844 C 0.42465 0.15276 0.82229 0.0
C845 C 0.43517 0.1913 0.83275 0.0
H846 H 0.43082 0.1027 0.82933 0.0
C847 C 0.45781 0.20771 0.86185 0.0
H848 H 0.40719 0.13945 0.79997 0.0
C849 C 0.47179 0.18645 0.8789 0.0
C850 C 0.46334 0.14887 0.86673 0.0
H851 H 0.46665 0.23764 0.87013 0.0
H852 H 0.49102 0.2003 0.90016 0.0
C853 C 0.43839 0.13181 0.83907 0.0
C854 C 0.80985 0.29345 0.84275 0.0
C855 C 0.84061 0.30362 0.86491 0.0
H856 H 0.76764 0.24963 0.80927 0.0
C857 C 0.84965 0.27483 0.87353 0.0
H858 H 0.80279 0.31545 0.83554 0.0
C859 C 0.82985 0.23702 0.85807 0.0
C860 C 0.80107 0.22796 0.83379 0.0
H861 H 0.87389 0.28248 0.89014 0.0
H862 H 0.83894 0.21604 0.86334 0.0
C863 C 0.79001 0.25588 0.82756 0.0
C864 C 0.431 0.23418 0.39062 0.0
C865 C 0.43184 0.23239 0.35578 0.0
H866 H 0.44499 0.27076 0.43476 0.0
C867 C 0.45025 0.2682 0.33895 0.0
H868 H 0.41737 0.20733 0.40451 0.0
C869 C 0.46643 0.30466 0.35634 0.0
C870 C 0.46462 0.30647 0.39112 0.0
H871 H 0.45186 0.26819 0.31218 0.0
H872 H 0.47952 0.33143 0.34233 0.0
C873 C 0.44713 0.2707 0.40804 0.0
C874 C 0.68686 0.15286 0.34465 0.0
C875 C 0.69038 0.13684 0.37419 0.0
H876 H 0.71514 0.18721 0.30264 0.0
C877 C 0.72709 0.14293 0.38323 0.0
H878 H 0.6591 0.14865 0.33675 0.0
C879 C 0.75946 0.16462 0.36304 0.0
C880 C 0.75571 0.18106 0.3338 0.0
H881 H 0.73068 0.13048 0.40559 0.0
H882 H 0.78748 0.1694 0.37073 0.0
C883 C 0.71903 0.17482 0.32493 0.0
C884 C 0.85636 0.55132 0.3493 0.0
C885 C 0.89447 0.57645 0.33888 0.0
H886 H 0.79663 0.53507 0.34472 0.0
C887 C 0.90218 0.60868 0.31923 0.0
H888 H 0.84949 0.5261 0.36416 0.0
C889 C 0.87205 0.61452 0.30888 0.0
C890 C 0.83358 0.58751 0.3172 0.0
H891 H 0.93134 0.62852 0.31083 0.0
H892 H 0.87849 0.63838 0.29248 0.0
C893 C 0.82614 0.55644 0.33811 0.0
C894 C 0.6265 0.12217 0.87747 0.0
C895 C 0.59115 0.09208 0.86356 0.0
H896 H 0.68836 0.15172 0.87736 0.0
C897 C 0.592 0.06854 0.83698 0.0
H898 H 0.62702 0.1409 0.89792 0.0
C899 C 0.62784 0.07552 0.8245 0.0
C900 C 0.66304 0.10545 0.83904 0.0
H901 H 0.56518 0.04539 0.82558 0.0
H902 H 0.62806 0.05705 0.80418 0.0
C903 C 0.66178 0.12849 0.86562 0.0
C904 C 0.92527 0.49717 0.8037 0.0
C905 C 0.9061 0.48312 0.83381 0.0
H906 H 0.93039 0.52944 0.75991 0.0
C907 C 0.87706 0.49147 0.84279 0.0
H908 H 0.94741 0.49073 0.79591 0.0
C909 C 0.86727 0.5132 0.8224 0.0
C910 C 0.88592 0.52702 0.7921 0.0
H911 H 0.86154 0.48096 0.86571 0.0
H912 H 0.84482 0.51906 0.83045 0.0
C913 C 0.91508 0.51874 0.78288 0.0
C914 C 0.53351 0.4354 0.77794 0.0
C915 C 0.53702 0.43661 0.8127 0.0
H916 H 0.50989 0.39944 0.73359 0.0
C917 C 0.52036 0.40054 0.82909 0.0
H918 H 0.54616 0.46249 0.7644 0.0
C919 C 0.49985 0.36437 0.81141 0.0
C920 C 0.49526 0.3631 0.77676 0.0
H921 H 0.52269 0.40012 0.85578 0.0
H922 H 0.48676 0.33738 0.82513 0.0
C923 C 0.51287 0.39912 0.76021 0.0
C924 C 0.58367 0.71751 0.65667 0.0
C925 C 0.54833 0.70152 0.6391 0.0
H926 H 0.62843 0.76751 0.68415 0.0
C927 C 0.53311 0.72582 0.63224 0.0
H928 H 0.59587 0.69918 0.6622 0.0
C929 C 0.55137 0.76472 0.64544 0.0
C930 C 0.58569 0.77994 0.66446 0.0
H931 H 0.50568 0.71385 0.61898 0.0
H932 H 0.5376 0.7821 0.64239 0.0
C933 C 0.60245 0.75659 0.66892 0.0
C934 C 0.28317 0.79593 0.68297 0.0
C935 C 0.24859 0.79426 0.6734 0.0
H936 H 0.34376 0.82034 0.67452 0.0
C937 C 0.24802 0.81223 0.64389 0.0
H938 H 0.28465 0.78213 0.70533 0.0
C939 C 0.28233 0.83395 0.6258 0.0
C940 C 0.31734 0.83782 0.63715 0.0
H941 H 0.22188 0.81159 0.63596 0.0
H942 H 0.28206 0.84982 0.60441 0.0
C943 C 0.31709 0.81766 0.66525 0.0
C944 C 0.16112 0.39195 0.63444 0.0
C945 C 0.19177 0.42051 0.65453 0.0
H946 H 0.10843 0.37683 0.60829 0.0
C947 C 0.19815 0.45921 0.65664 0.0
H948 H 0.15531 0.36183 0.63269 0.0
C949 C 0.17204 0.46815 0.64181 0.0
C950 C 0.13859 0.43823 0.62538 0.0
H951 H 0.22156 0.48174 0.6721 0.0
H952 H 0.17557 0.49709 0.64666 0.0
C953 C 0.13439 0.40061 0.62035 0.0
C954 C 0.40293 0.93411 0.22067 0.0
C955 C 0.36997 0.89606 0.21599 0.0
H956 H 0.46234 0.97361 0.20795 0.0
C957 C 0.37432 0.86615 0.20059 0.0
H958 H 0.40011 0.95784 0.23201 0.0
C959 C 0.40958 0.87547 0.186 0.0
C960 C 0.44125 0.91457 0.18737 0.0
H961 H 0.34928 0.83685 0.19609 0.0
H962 H 0.41098 0.8529 0.17104 0.0
C963 C 0.43853 0.94319 0.2068 0.0
C964 C 0.10665 0.46235 0.16628 0.0
C965 C 0.13066 0.47685 0.19472 0.0
H966 H 0.07778 0.47397 0.12767 0.0
C967 C 0.14018 0.51421 0.2084 0.0
H968 H 0.09826 0.43354 0.1553 0.0
C969 C 0.12793 0.53758 0.19237 0.0
C970 C 0.106 0.52359 0.16271 0.0
H971 H 0.15864 0.52613 0.2303 0.0
H972 H 0.13738 0.56717 0.20203 0.0
C973 C 0.09468 0.48542 0.15048 0.0
C974 C 0.50895 0.60404 0.20498 0.0
C975 C 0.50501 0.63486 0.19253 0.0
H976 H 0.49396 0.54328 0.19824 0.0
C977 C 0.47871 0.62677 0.1665 0.0
H978 H 0.52957 0.60996 0.22484 0.0
C979 C 0.45817 0.58904 0.15174 0.0
C980 C 0.46428 0.55874 0.16209 0.0
H981 H 0.47537 0.65021 0.15652 0.0
H982 H 0.43919 0.58437 0.13084 0.0
C983 C 0.48876 0.56608 0.18969 0.0
C984 C 0.10442 0.5954 0.74161 0.0
C985 C 0.12416 0.6318 0.72572 0.0
H986 H 0.07331 0.53208 0.73641 0.0
C987 C 0.1283 0.63121 0.69111 0.0
H988 H 0.10048 0.59456 0.76817 0.0
C989 C 0.11239 0.59536 0.67286 0.0
C990 C 0.09197 0.55895 0.68862 0.0
H991 H 0.14319 0.6585 0.67787 0.0
H992 H 0.11596 0.59632 0.64625 0.0
C993 C 0.08861 0.55946 0.72333 0.0
C994 C 0.39302 0.48172 0.71676 0.0
C995 C 0.35585 0.47456 0.70796 0.0
H996 H 0.45339 0.50944 0.70384 0.0
C997 C 0.35157 0.49021 0.67848 0.0
H998 H 0.39721 0.46958 0.73905 0.0
C999 C 0.38342 0.51278 0.65857 0.0
C1000 C 0.42054 0.51997 0.66716 0.0
H1001 H 0.32345 0.48518 0.67076 0.0
H1002 H 0.3789 0.52476 0.63632 0.0
C1003 C 0.42506 0.50399 0.69638 0.0
C1004 C 0.56939 0.94395 0.65479 0.0
C1005 C 0.56196 0.91171 0.67433 0.0
H1006 H 0.54521 0.97277 0.62739 0.0
C1007 C 0.5237 0.88561 0.68388 0.0
H1008 H 0.59866 0.96451 0.64701 0.0
C1009 C 0.4932 0.88983 0.67196 0.0
C1010 C 0.50043 0.92093 0.65116 0.0
H1011 H 0.517 0.86033 0.69859 0.0
H1012 H 0.46367 0.86776 0.67791 0.0
C1013 C 0.53893 0.94886 0.64369 0.0
C1014 C 0.26857 0.43787 0.15925 0.0
C1015 C 0.24665 0.40802 0.18171 0.0
H1016 H 0.32113 0.46811 0.13166 0.0
C1017 C 0.25983 0.38276 0.19116 0.0
H1018 H 0.25907 0.4579 0.15179 0.0
C1019 C 0.29591 0.38935 0.18038 0.0
C1020 C 0.31879 0.42053 0.1592 0.0
H1021 H 0.24373 0.35991 0.20877 0.0
H1022 H 0.30673 0.37114 0.18973 0.0
C1023 C 0.304 0.44366 0.14766 0.0
C1024 C 0.57878 0.85322 0.1207 0.0
C1025 C 0.54955 0.86112 0.13052 0.0
H1026 H 0.61114 0.82485 0.13242 0.0
C1027 C 0.53088 0.84634 0.16066 0.0
H1028 H 0.59413 0.86467 0.09786 0.0
C1029 C 0.54062 0.82389 0.18023 0.0
C1030 C 0.56971 0.81588 0.1706 0.0
H1031 H 0.50841 0.85194 0.16917 0.0
H1032 H 0.52502 0.81252 0.203 0.0
C1033 C 0.58898 0.83102 0.14072 0.0
C1034 C 0.20352 0.77202 0.1145 0.0
C1035 C 0.20513 0.77282 0.14936 0.0
H1036 H 0.18246 0.7367 0.0696 0.0
C1037 C 0.1875 0.73651 0.16545 0.0
H1038 H 0.21696 0.79928 0.10116 0.0
C1039 C 0.16795 0.70051 0.1473 0.0
C1040 C 0.16534 0.6997 0.11249 0.0
H1041 H 0.18834 0.73577 0.19221 0.0
H1042 H 0.15402 0.67331 0.16073 0.0
C1043 C 0.18387 0.73599 0.09634 0.0
C1044 C 0.40137 0.29526 0.10453 0.0
C1045 C 0.40114 0.29632 0.0696 0.0
H1046 H 0.41542 0.32909 0.15024 0.0
C1047 C 0.42615 0.3319 0.05442 0.0
H1048 H 0.38305 0.26788 0.11691 0.0
C1049 C 0.44545 0.36688 0.07375 0.0
C1050 C 0.43937 0.36652 0.10821 0.0
H1051 H 0.42703 0.33355 0.02768 0.0
H1052 H 0.4608 0.39469 0.06124 0.0
C1053 C 0.42029 0.33027 0.12381 0.0
C1054 C 0.65874 0.04485 0.06346 0.0
C1055 C 0.63585 0.03193 0.09211 0.0
H1056 H 0.71514 0.06717 0.04283 0.0
C1057 C 0.65447 0.04086 0.12314 0.0
H1058 H 0.64537 0.0394 0.03909 0.0
C1059 C 0.69462 0.05735 0.12522 0.0
C1060 C 0.71677 0.06477 0.09626 0.0
H1061 H 0.63787 0.03199 0.14569 0.0
H1062 H 0.70773 0.06129 0.14952 0.0
C1063 C 0.69884 0.06083 0.06551 0.0
C1064 C 0.95351 0.63049 0.04716 0.0
C1065 C 0.9442 0.63906 0.0785 0.0
H1066 H 0.98573 0.61003 0.01986 0.0
C1067 C 0.95437 0.62566 0.10673 0.0
H1068 H 0.94564 0.63976 0.02493 0.0
C1069 C 0.97821 0.6094 0.10398 0.0
C1070 C 0.99175 0.60569 0.07293 0.0
H1071 H 0.94675 0.63083 0.13132 0.0
H1072 H 0.98831 0.60264 0.12635 0.0
C1073 C 0.97689 0.61374 0.04438 0.0
C1074 C 0.32515 0.37639 0.39538 0.0
C1075 C 0.3017 0.36189 0.42357 0.0
H1076 H 0.38232 0.4017 0.37568 0.0
C1077 C 0.31964 0.37071 0.4549 0.0
H1078 H 0.31225 0.37104 0.37082 0.0
C1079 C 0.35994 0.38883 0.45763 0.0
C1080 C 0.38294 0.39806 0.42905 0.0
H1081 H 0.30254 0.36057 0.47711 0.0
H1082 H 0.37263 0.39268 0.48211 0.0
C1083 C 0.36542 0.39404 0.39807 0.0
C1084 C 0.61225 0.95835 0.37894 0.0
C1085 C 0.60167 0.96565 0.4102 0.0
H1086 H 0.64525 0.93855 0.35197 0.0
C1087 C 0.60979 0.95025 0.43822 0.0
H1088 H 0.60598 0.96922 0.35683 0.0
C1089 C 0.63317 0.93346 0.43564 0.0
C1090 C 0.64823 0.93117 0.40492 0.0
H1091 H 0.60111 0.95442 0.46269 0.0
H1092 H 0.64178 0.92518 0.45804 0.0
C1093 C 0.63519 0.94107 0.3763 0.0
C1094 C 0.08873 0.66669 0.45141 0.0
C1095 C 0.10313 0.70319 0.43662 0.0
H1096 H 0.05707 0.60397 0.44341 0.0
C1097 C 0.10742 0.70519 0.4019 0.0
H1098 H 0.0855 0.66432 0.47802 0.0
C1099 C 0.09062 0.67066 0.38198 0.0
C1100 C 0.06983 0.63401 0.39678 0.0
H1101 H 0.11935 0.73328 0.38996 0.0
H1102 H 0.08956 0.67291 0.35537 0.0
C1103 C 0.07228 0.63217 0.43148 0.0
C1104 C 0.63212 0.64087 0.94493 0.0
C1105 C 0.62358 0.62355 0.91271 0.0
H1106 H 0.65891 0.69458 0.97478 0.0
C1107 C 0.63464 0.64788 0.88541 0.0
H1108 H 0.62365 0.62267 0.9665 0.0
C1109 C 0.65512 0.68893 0.89025 0.0
C1110 C 0.66437 0.70627 0.92246 0.0
H1111 H 0.62842 0.63528 0.8604 0.0
H1112 H 0.66404 0.70712 0.86867 0.0
C1113 C 0.65213 0.68195 0.94978 0.0
C1114 C 0.31699 0.98242 0.8916 0.0
C1115 C 0.29609 0.97507 0.92124 0.0
H1116 H 0.37308 0.00997 0.8693 0.0
C1117 C 0.3158 0.98182 0.95153 0.0
H1118 H 0.30229 0.97694 0.86782 0.0
C1119 C 0.35632 0.00067 0.95226 0.0
C1120 C 0.37751 0.01255 0.92273 0.0
H1121 H 0.30046 0.9764 0.97467 0.0
H1122 H 0.37132 0.00943 0.97607 0.0
C1123 C 0.35747 0.0009 0.89232 0.0
C1124 C 0.01575 0.32424 0.87674 0.0
C1125 C 0.02936 0.31745 0.90657 0.0
H1126 H 0.98277 0.34683 0.85414 0.0
C1127 C 0.02695 0.3357 0.93602 0.0
H1128 H 0.01756 0.31063 0.85362 0.0
C1129 C 0.00677 0.35607 0.93626 0.0
C1130 C 0.98937 0.359 0.90701 0.0
H1131 H 0.03704 0.33082 0.9593 0.0
H1132 H 1.00196 0.36669 0.95981 0.0
C1133 C 0.99609 0.34516 0.87691 0.0
C1134 C 0.68931 0.67488 0.62472 0.0
C1135 C 0.70983 0.68267 0.59489 0.0
H1136 H 0.63367 0.65197 0.64725 0.0
C1137 C 0.68927 0.66571 0.56514 0.0
H1138 H 0.70467 0.68749 0.64805 0.0
C1139 C 0.64873 0.64572 0.56474 0.0
C1140 C 0.62834 0.64187 0.59413 0.0
H1141 H 0.70436 0.67137 0.54185 0.0
H1142 H 0.63341 0.63628 0.54109 0.0
C1143 C 0.64874 0.65431 0.62438 0.0
C1144 C 0.32411 0.00783 0.54774 0.0
C1145 C 0.31556 0.01946 0.5781 0.0
H1146 H 0.3479 0.97587 0.52362 0.0
C1147 C 0.33176 0.01496 0.60746 0.0
H1148 H 0.31183 0.01078 0.52485 0.0
C1149 C 0.35273 0.99537 0.60682 0.0
C1150 C 0.35718 0.97946 0.57684 0.0
H1151 H 0.32565 0.02392 0.63123 0.0
H1152 H 0.36203 0.98936 0.63 0.0
C1153 C 0.34454 0.98768 0.54714 0.0
C1154 C 0.98058 0.34849 0.61511 0.0
C1155 C 0.99384 0.37276 0.58777 0.0
H1156 H 0.95104 0.28929 0.63197 0.0
C1157 C 0.98533 0.35536 0.55558 0.0
H1158 H 0.98675 0.36115 0.6401 0.0
C1159 C 0.96452 0.31427 0.55081 0.0
C1160 C 0.95246 0.29001 0.57818 0.0
H1161 H 0.99507 0.37353 0.53399 0.0
H1162 H 0.95888 0.30157 0.52584 0.0
C1163 C 0.96029 0.30743 0.61035 0.0
C1164 C 0.9882 0.71034 0.78436 0.0
C1165 C 0.97081 0.69877 0.75283 0.0
H1166 H 0.04065 0.73396 0.81272 0.0
C1167 C 0.9948 0.71078 0.72478 0.0
H1168 H 0.97072 0.70241 0.80642 0.0
C1169 C 0.03496 0.72805 0.72832 0.0
C1170 C 0.05174 0.7342 0.75993 0.0
H1171 H 0.98239 0.70343 0.69997 0.0
H1172 H 0.05218 0.73319 0.70631 0.0
C1173 C 0.0284 0.72821 0.78788 0.0
C1174 C 0.28244 0.28963 0.77323 0.0
C1175 C 0.27269 0.30349 0.74507 0.0
H1176 H 0.31601 0.26619 0.79283 0.0
C1177 C 0.28241 0.29541 0.71373 0.0
H1178 H 0.27449 0.29443 0.7978 0.0
C1179 C 0.30583 0.27871 0.71093 0.0
C1180 C 0.32025 0.27018 0.73948 0.0
H1181 H 0.27489 0.30508 0.69154 0.0
H1182 H 0.315 0.27538 0.68644 0.0
C1183 C 0.30629 0.2734 0.77047 0.0
C1184 C 0.76204 0.00316 0.72321 0.0
C1185 C 0.73623 0.96732 0.73767 0.0
H1186 H 0.79735 0.06572 0.73118 0.0
C1187 C 0.73536 0.96539 0.77254 0.0
H1188 H 0.76374 0.00545 0.69653 0.0
C1189 C 0.75439 -0.0001 0.79243 0.0
C1190 C 0.77457 0.03652 0.7775 0.0
H1191 H 0.71638 0.93777 0.78437 0.0
H1192 H 0.74889 0.9982 0.81877 0.0
C1193 C 0.78132 0.03762 0.74315 0.0
C1194 C 0.30014 0.98425 0.22159 0.0
C1195 C 0.28883 0.96009 0.24899 0.0
H1196 H 0.3299 0.04336 0.20458 0.0
C1197 C 0.29735 0.97762 0.28115 0.0
H1198 H 0.29394 0.9715 0.19662 0.0
C1199 C 0.31761 0.01873 0.28583 0.0
C1200 C 0.33007 0.04288 0.2584 0.0
H1201 H 0.28871 0.95956 0.30281 0.0
H1202 H 0.32439 0.03152 0.31077 0.0
C1203 C 0.32081 0.02533 0.22625 0.0
C1204 C 0.9855 0.31328 0.29118 0.0
C1205 C 0.96427 0.30062 0.26134 0.0
H1206 H 0.04203 0.3471 0.31368 0.0
C1207 C 0.98386 0.30415 0.23151 0.0
H1208 H 0.97107 0.31119 0.31437 0.0
C1209 C 0.02442 0.32441 0.23105 0.0
C1210 C 0.04574 0.3419 0.26038 0.0
H1211 H 0.96791 0.29454 0.20816 0.0
H1212 H 0.03885 0.33012 0.20744 0.0
C1213 C 0.02606 0.33406 0.29067 0.0
C1214 C 0.68405 0.6591 0.20806 0.0
C1215 C 0.69725 0.65206 0.23802 0.0
H1216 H 0.65016 0.68051 0.18525 0.0
C1217 C 0.69354 0.66929 0.26756 0.0
H1218 H 0.68684 0.64625 0.18489 0.0
C1219 C 0.6723 0.68857 0.26769 0.0
C1220 C 0.65511 0.69138 0.23827 0.0
H1221 H 0.70326 0.66417 0.29093 0.0
H1222 H 0.66637 0.69815 0.29126 0.0
C1223 C 0.66328 0.67889 0.20815 0.0
loop_
_geom_bond_atom_site_label_1
_geom_bond_atom_site_label_2
_geom_bond_distance
_geom_bond_site_symmetry_2
_ccdc_geom_bond_type
Co0 O1 2.216 . S
Co0 O2 2.091 . S
Co0 O4 2.004 . S
Co0 O10 2.021 . S
Co0 O12 2.137 . S
Co0 O13 2.244 . S
O1 Co0 2.216 . S
O1 C8 1.247 . S
O2 Co0 2.091 . S
O2 C8 1.261 . S
C3 O12 1.247 . S
C3 O13 1.272 . S
O4 Co0 2.004 . S
O4 C9 1.259 . S
Co5 O6 2.061 1_556 S
Co5 O11 2.052 1_556 S
Co5 O13 2.135 1_556 S
O6 Co5 2.061 1_554 S
O6 C9 1.235 . S
C7 O10 1.238 . S
C7 O11 1.241 . S
C8 O1 1.247 . S
C8 O2 1.261 . S
C9 O4 1.259 . S
C9 O6 1.235 . S
O10 Co0 2.021 . S
O10 C7 1.238 . S
O11 Co5 2.052 1_554 S
O11 C7 1.241 . S
O12 Co0 2.137 . S
O12 C3 1.247 . S
O13 Co0 2.244 . S
O13 C3 1.272 . S
O13 Co5 2.135 1_554 S
Co14 O15 2.216 . S
Co14 O16 2.091 . S
Co14 O18 2.004 . S
Co14 O24 2.021 . S
Co14 O26 2.137 . S
Co14 O27 2.244 . S
O15 Co14 2.216 . S
O15 C22 1.247 . S
O16 Co14 2.091 . S
O16 C22 1.261 . S
C17 O26 1.247 . S
C17 O27 1.272 . S
O18 Co14 2.004 . S
O18 C23 1.259 . S
Co19 O20 2.061 . S
Co19 O25 2.052 . S
Co19 O27 2.135 . S
O20 Co19 2.061 . S
O20 C23 1.235 . S
C21 O24 1.238 . S
C21 O25 1.241 . S
C22 O15 1.247 . S
C22 O16 1.261 . S
C23 O18 1.259 . S
C23 O20 1.235 . S
O24 Co14 2.021 . S
O24 C21 1.238 . S
O25 Co19 2.052 . S
O25 C21 1.241 . S
O26 Co14 2.137 . S
O26 C17 1.247 . S
O27 Co14 2.244 . S
O27 C17 1.272 . S
O27 Co19 2.135 . S
Co28 O29 2.216 . S
Co28 O30 2.091 . S
Co28 O32 2.004 . S
Co28 O38 2.021 . S
Co28 O40 2.137 . S
Co28 O41 2.244 . S
O29 Co28 2.216 . S
O29 C36 1.247 . S
O30 Co28 2.091 . S
O30 C36 1.261 . S
C31 O40 1.247 . S
C31 O41 1.272 . S
O32 Co28 2.004 . S
O32 C37 1.259 . S
Co33 O34 2.061 . S
Co33 O39 2.052 . S
Co33 O41 2.135 . S
O34 Co33 2.061 . S
O34 C37 1.235 . S
C35 O38 1.238 . S
C35 O39 1.241 . S
C36 O29 1.247 . S
C36 O30 1.261 . S
C37 O32 1.259 . S
C37 O34 1.235 . S
O38 Co28 2.021 . S
O38 C35 1.238 . S
O39 Co33 2.052 . S
O39 C35 1.241 . S
O40 Co28 2.137 . S
O40 C31 1.247 . S
O41 Co28 2.244 . S
O41 C31 1.272 . S
O41 Co33 2.135 . S
Co42 O43 2.216 . S
Co42 O44 2.091 . S
Co42 O46 2.004 . S
Co42 O52 2.021 . S
Co42 O54 2.137 . S
Co42 O55 2.244 . S
O43 Co42 2.216 . S
O43 C50 1.247 . S
O44 Co42 2.091 . S
O44 C50 1.261 . S
C45 O54 1.247 . S
C45 O55 1.272 . S
O46 Co42 2.004 . S
O46 C51 1.259 . S
Co47 O48 2.061 . S
Co47 O53 2.052 . S
Co47 O55 2.135 . S
O48 Co47 2.061 . S
O48 C51 1.235 . S
C49 O52 1.238 . S
C49 O53 1.241 . S
C50 O43 1.247 . S
C50 O44 1.261 . S
C51 O46 1.259 . S
C51 O48 1.235 . S
O52 Co42 2.021 . S
O52 C49 1.238 . S
O53 Co47 2.052 . S
O53 C49 1.241 . S
O54 Co42 2.137 . S
O54 C45 1.247 . S
O55 Co42 2.244 . S
O55 C45 1.272 . S
O55 Co47 2.135 . S
Co56 O57 2.216 . S
Co56 O58 2.091 . S
Co56 O60 2.004 . S
Co56 O66 2.021 . S
Co56 O68 2.137 . S
Co56 O69 2.244 . S
O57 Co56 2.216 . S
O57 C64 1.247 . S
O58 Co56 2.091 . S
O58 C64 1.261 . S
C59 O68 1.247 . S
C59 O69 1.272 . S
O60 Co56 2.004 . S
O60 C65 1.259 . S
Co61 O62 2.061 . S
Co61 O67 2.052 . S
Co61 O69 2.135 . S
O62 Co61 2.061 . S
O62 C65 1.235 . S
C63 O66 1.238 . S
C63 O67 1.241 . S
C64 O57 1.247 . S
C64 O58 1.261 . S
C65 O60 1.259 . S
C65 O62 1.235 . S
O66 Co56 2.021 . S
O66 C63 1.238 . S
O67 Co61 2.052 . S
O67 C63 1.241 . S
O68 Co56 2.137 . S
O68 C59 1.247 . S
O69 Co56 2.244 . S
O69 C59 1.272 . S
O69 Co61 2.135 . S
Co70 O71 2.216 . S
Co70 O72 2.091 . S
Co70 O74 2.004 . S
Co70 O80 2.021 . S
Co70 O82 2.137 . S
Co70 O83 2.244 . S
O71 Co70 2.216 . S
O71 C78 1.247 . S
O72 Co70 2.091 . S
O72 C78 1.261 . S
C73 O82 1.247 . S
C73 O83 1.272 . S
O74 Co70 2.004 . S
O74 C79 1.259 . S
Co75 O76 2.061 . S
Co75 O81 2.052 . S
Co75 O83 2.135 . S
O76 Co75 2.061 . S
O76 C79 1.235 . S
C77 O80 1.238 . S
C77 O81 1.241 . S
C78 O71 1.247 . S
C78 O72 1.261 . S
C79 O74 1.259 . S
C79 O76 1.235 . S
O80 Co70 2.021 . S
O80 C77 1.238 . S
O81 Co75 2.052 . S
O81 C77 1.241 . S
O82 Co70 2.137 . S
O82 C73 1.247 . S
O83 Co70 2.244 . S
O83 C73 1.272 . S
O83 Co75 2.135 . S
Co84 O85 2.216 . S
Co84 O86 2.091 . S
Co84 O88 2.004 . S
Co84 O94 2.021 . S
Co84 O96 2.137 . S
Co84 O97 2.244 . S
O85 Co84 2.216 . S
O85 C92 1.247 . S
O86 Co84 2.091 . S
O86 C92 1.261 . S
C87 O96 1.247 . S
C87 O97 1.272 . S
O88 Co84 2.004 . S
O88 C93 1.259 . S
Co89 O90 2.061 1_554 S
Co89 O95 2.052 1_554 S
Co89 O97 2.135 1_554 S
O90 Co89 2.061 1_556 S
O90 C93 1.235 . S
C91 O94 1.238 . S
C91 O95 1.241 . S
C92 O85 1.247 . S
C92 O86 1.261 . S
C93 O88 1.259 . S
C93 O90 1.235 . S
O94 Co84 2.021 . S
O94 C91 1.238 . S
O95 Co89 2.052 1_556 S
O95 C91 1.241 . S
O96 Co84 2.137 . S
O96 C87 1.247 . S
O97 Co84 2.244 . S
O97 C87 1.272 . S
O97 Co89 2.135 1_556 S
Co98 O99 2.216 . S
Co98 O100 2.091 . S
Co98 O102 2.004 . S
Co98 O108 2.021 . S
Co98 O110 2.137 . S
Co98 O111 2.244 . S
O99 Co98 2.216 . S
O99 C106 1.247 . S
O100 Co98 2.091 . S
O100 C106 1.261 . S
C101 O110 1.247 . S
C101 O111 1.272 . S
O102 Co98 2.004 . S
O102 C107 1.259 . S
Co103 O104 2.061 . S
Co103 O109 2.052 . S
Co103 O111 2.135 . S
O104 Co103 2.061 . S
O104 C107 1.235 . S
C105 O108 1.238 . S
C105 O109 1.241 . S
C106 O99 1.247 . S
C106 O100 1.261 . S
C107 O102 1.259 . S
C107 O104 1.235 . S
O108 Co98 2.021 . S
O108 C105 1.238 . S
O109 Co103 2.052 . S
O109 C105 1.241 . S
O110 Co98 2.137 . S
O110 C101 1.247 . S
O111 Co98 2.244 . S
O111 C101 1.272 . S
O111 Co103 2.135 . S
Co112 O113 2.216 . S
Co112 O114 2.091 . S
Co112 O116 2.004 . S
Co112 O122 2.021 . S
Co112 O124 2.137 . S
Co112 O125 2.244 . S
O113 Co112 2.216 . S
O113 C120 1.247 . S
O114 Co112 2.091 . S
O114 C120 1.261 . S
C115 O124 1.247 . S
C115 O125 1.272 . S
O116 Co112 2.004 . S
O116 C121 1.259 . S
Co117 O118 2.061 . S
Co117 O123 2.052 . S
Co117 O125 2.135 . S
O118 Co117 2.061 . S
O118 C121 1.235 . S
C119 O122 1.238 . S
C119 O123 1.241 . S
C120 O113 1.247 . S
C120 O114 1.261 . S
C121 O116 1.259 . S
C121 O118 1.235 . S
O122 Co112 2.021 . S
O122 C119 1.238 . S
O123 Co117 2.052 . S
O123 C119 1.241 . S
O124 Co112 2.137 . S
O124 C115 1.247 . S
O125 Co112 2.244 . S
O125 C115 1.272 . S
O125 Co117 2.135 . S
Co126 O127 2.216 . S
Co126 O128 2.091 . S
Co126 O130 2.004 . S
Co126 O136 2.021 . S
Co126 O138 2.137 . S
Co126 O139 2.244 . S
O127 Co126 2.216 . S
O127 C134 1.247 . S
O128 Co126 2.091 . S
O128 C134 1.261 . S
C129 O138 1.247 . S
C129 O139 1.272 . S
O130 Co126 2.004 . S
O130 C135 1.259 . S
Co131 O132 2.061 . S
Co131 O137 2.052 . S
Co131 O139 2.135 . S
O132 Co131 2.061 . S
O132 C135 1.235 . S
C133 O136 1.238 . S
C133 O137 1.241 . S
C134 O127 1.247 . S
C134 O128 1.261 . S
C135 O130 1.259 . S
C135 O132 1.235 . S
O136 Co126 2.021 . S
O136 C133 1.238 . S
O137 Co131 2.052 . S
O137 C133 1.241 . S
O138 Co126 2.137 . S
O138 C129 1.247 . S
O139 Co126 2.244 . S
O139 C129 1.272 . S
O139 Co131 2.135 . S
Co140 O141 2.216 . S
Co140 O142 2.091 . S
Co140 O144 2.004 . S
Co140 O150 2.021 . S
Co140 O152 2.137 . S
Co140 O153 2.244 . S
O141 Co140 2.216 . S
O141 C148 1.247 . S
O142 Co140 2.091 . S
O142 C148 1.261 . S
C143 O152 1.247 . S
C143 O153 1.272 . S
O144 Co140 2.004 . S
O144 C149 1.259 . S
Co145 O146 2.061 . S
Co145 O151 2.052 . S
Co145 O153 2.135 . S
O146 Co145 2.061 . S
O146 C149 1.235 . S
C147 O150 1.238 . S
C147 O151 1.241 . S
C148 O141 1.247 . S
C148 O142 1.261 . S
C149 O144 1.259 . S
C149 O146 1.235 . S
O150 Co140 2.021 . S
O150 C147 1.238 . S
O151 Co145 2.052 . S
O151 C147 1.241 . S
O152 Co140 2.137 . S
O152 C143 1.247 . S
O153 Co140 2.244 . S
O153 C143 1.272 . S
O153 Co145 2.135 . S
Co154 O155 2.216 . S
Co154 O156 2.091 . S
Co154 O158 2.004 . S
Co154 O164 2.021 . S
Co154 O166 2.137 . S
Co154 O167 2.244 . S
O155 Co154 2.216 . S
O155 C162 1.247 . S
O156 Co154 2.091 . S
O156 C162 1.261 . S
C157 O166 1.247 . S
C157 O167 1.272 . S
O158 Co154 2.004 . S
O158 C163 1.259 . S
Co159 O160 2.061 . S
Co159 O165 2.052 . S
Co159 O167 2.135 . S
O160 Co159 2.061 . S
O160 C163 1.235 . S
C161 O164 1.238 . S
C161 O165 1.241 . S
C162 O155 1.247 . S
C162 O156 1.261 . S
C163 O158 1.259 . S
C163 O160 1.235 . S
O164 Co154 2.021 . S
O164 C161 1.238 . S
O165 Co159 2.052 . S
O165 C161 1.241 . S
O166 Co154 2.137 . S
O166 C157 1.247 . S
O167 Co154 2.244 . S
O167 C157 1.272 . S
O167 Co159 2.135 . S
Co168 O169 2.216 . S
Co168 O170 2.091 . S
Co168 O172 2.004 . S
Co168 O178 2.021 . S
Co168 O180 2.137 . S
Co168 O181 2.244 . S
O169 Co168 2.216 . S
O169 C176 1.247 . S
O170 Co168 2.091 . S
O170 C176 1.261 . S
C171 O180 1.247 . S
C171 O181 1.272 . S
O172 Co168 2.004 . S
O172 C177 1.259 . S
Co173 O174 2.061 . S
Co173 O179 2.052 . S
Co173 O181 2.135 . S
O174 Co173 2.061 . S
O174 C177 1.235 . S
C175 O178 1.238 . S
C175 O179 1.241 . S
C176 O169 1.247 . S
C176 O170 1.261 . S
C177 O172 1.259 . S
C177 O174 1.235 . S
O178 Co168 2.021 . S
O178 C175 1.238 . S
O179 Co173 2.052 . S
O179 C175 1.241 . S
O180 Co168 2.137 . S
O180 C171 1.247 . S
O181 Co168 2.244 . S
O181 C171 1.272 . S
O181 Co173 2.135 . S
Co182 O183 2.216 . S
Co182 O184 2.091 . S
Co182 O186 2.004 . S
Co182 O192 2.021 . S
Co182 O194 2.137 . S
Co182 O195 2.244 . S
O183 Co182 2.216 . S
O183 C190 1.247 . S
O184 Co182 2.091 . S
O184 C190 1.261 . S
C185 O194 1.247 . S
C185 O195 1.272 . S
O186 Co182 2.004 . S
O186 C191 1.259 . S
Co187 O188 2.061 . S
Co187 O193 2.052 . S
Co187 O195 2.135 . S
O188 Co187 2.061 . S
O188 C191 1.235 . S
C189 O192 1.238 . S
C189 O193 1.241 . S
C190 O183 1.247 . S
C190 O184 1.261 . S
C191 O186 1.259 . S
C191 O188 1.235 . S
O192 Co182 2.021 . S
O192 C189 1.238 . S
O193 Co187 2.052 . S
O193 C189 1.241 . S
O194 Co182 2.137 . S
O194 C185 1.247 . S
O195 Co182 2.244 . S
O195 C185 1.272 . S
O195 Co187 2.135 . S
Co196 O197 2.216 . S
Co196 O198 2.091 . S
Co196 O200 2.004 . S
Co196 O206 2.021 . S
Co196 O208 2.137 . S
Co196 O209 2.244 . S
O197 Co196 2.216 . S
O197 C204 1.247 . S
O198 Co196 2.091 . S
O198 C204 1.261 . S
C199 O208 1.247 . S
C199 O209 1.272 . S
O200 Co196 2.004 . S
O200 C205 1.259 . S
Co201 O202 2.061 . S
Co201 O207 2.052 . S
Co201 O209 2.135 . S
O202 Co201 2.061 . S
O202 C205 1.235 . S
C203 O206 1.238 . S
C203 O207 1.241 . S
C204 O197 1.247 . S
C204 O198 1.261 . S
C205 O200 1.259 . S
C205 O202 1.235 . S
O206 Co196 2.021 . S
O206 C203 1.238 . S
O207 Co201 2.052 . S
O207 C203 1.241 . S
O208 Co196 2.137 . S
O208 C199 1.247 . S
O209 Co196 2.244 . S
O209 C199 1.272 . S
O209 Co201 2.135 . S
Co210 O211 2.216 . S
Co210 O212 2.091 . S
Co210 O214 2.004 . S
Co210 O220 2.021 . S
Co210 O222 2.137 . S
Co210 O223 2.244 . S
O211 Co210 2.216 . S
O211 C218 1.247 . S
O212 Co210 2.091 . S
O212 C218 1.261 . S
C213 O222 1.247 . S
C213 O223 1.272 . S
O214 Co210 2.004 . S
O214 C219 1.259 . S
Co215 O216 2.061 . S
Co215 O221 2.052 . S
Co215 O223 2.135 . S
O216 Co215 2.061 . S
O216 C219 1.235 . S
C217 O220 1.238 . S
C217 O221 1.241 . S
C218 O211 1.247 . S
C218 O212 1.261 . S
C219 O214 1.259 . S
C219 O216 1.235 . S
O220 Co210 2.021 . S
O220 C217 1.238 . S
O221 Co215 2.052 . S
O221 C217 1.241 . S
O222 Co210 2.137 . S
O222 C213 1.247 . S
O223 Co210 2.244 . S
O223 C213 1.272 . S
O223 Co215 2.135 . S
Co224 O225 2.216 . S
Co224 O226 2.091 . S
Co224 O228 2.004 . S
Co224 O234 2.021 . S
Co224 O236 2.137 . S
Co224 O237 2.244 . S
O225 Co224 2.216 . S
O225 C232 1.247 . S
O226 Co224 2.091 . S
O226 C232 1.261 . S
C227 O236 1.247 . S
C227 O237 1.272 . S
O228 Co224 2.004 . S
O228 C233 1.259 . S
Co229 O230 2.061 . S
Co229 O235 2.052 . S
Co229 O237 2.135 . S
O230 Co229 2.061 . S
O230 C233 1.235 . S
C231 O234 1.238 . S
C231 O235 1.241 . S
C232 O225 1.247 . S
C232 O226 1.261 . S
C233 O228 1.259 . S
C233 O230 1.235 . S
O234 Co224 2.021 . S
O234 C231 1.238 . S
O235 Co229 2.052 . S
O235 C231 1.241 . S
O236 Co224 2.137 . S
O236 C227 1.247 . S
O237 Co224 2.244 . S
O237 C227 1.272 . S
O237 Co229 2.135 . S
Co238 O239 2.216 . S
Co238 O240 2.091 . S
Co238 O242 2.004 . S
Co238 O248 2.021 . S
Co238 O250 2.137 . S
Co238 O251 2.244 . S
O239 Co238 2.216 . S
O239 C246 1.247 . S
O240 Co238 2.091 . S
O240 C246 1.261 . S
C241 O250 1.247 . S
C241 O251 1.272 . S
O242 Co238 2.004 . S
O242 C247 1.259 . S
Co243 O244 2.061 . S
Co243 O249 2.052 . S
Co243 O251 2.135 . S
O244 Co243 2.061 . S
O244 C247 1.235 . S
C245 O248 1.238 . S
C245 O249 1.241 . S
C246 O239 1.247 . S
C246 O240 1.261 . S
C247 O242 1.259 . S
C247 O244 1.235 . S
O248 Co238 2.021 . S
O248 C245 1.238 . S
O249 Co243 2.052 . S
O249 C245 1.241 . S
O250 Co238 2.137 . S
O250 C241 1.247 . S
O251 Co238 2.244 . S
O251 C241 1.272 . S
O251 Co243 2.135 . S
Co252 O253 2.216 . S
Co252 O254 2.091 . S
Co252 O256 2.004 . S
Co252 O262 2.021 . S
Co252 O264 2.137 . S
Co252 O265 2.244 . S
O253 Co252 2.216 . S
O253 C260 1.247 . S
O254 Co252 2.091 . S
O254 C260 1.261 . S
C255 O264 1.247 . S
C255 O265 1.272 . S
O256 Co252 2.004 . S
O256 C261 1.259 . S
Co257 O258 2.061 . S
Co257 O263 2.052 . S
Co257 O265 2.135 . S
O258 Co257 2.061 . S
O258 C261 1.235 . S
C259 O262 1.238 . S
C259 O263 1.241 . S
C260 O253 1.247 . S
C260 O254 1.261 . S
C261 O256 1.259 . S
C261 O258 1.235 . S
O262 Co252 2.021 . S
O262 C259 1.238 . S
O263 Co257 2.052 . S
O263 C259 1.241 . S
O264 Co252 2.137 . S
O264 C255 1.247 . S
O265 Co252 2.244 . S
O265 C255 1.272 . S
O265 Co257 2.135 . S
Co266 O267 2.216 . S
Co266 O268 2.091 . S
Co266 O270 2.004 . S
Co266 O276 2.021 . S
Co266 O278 2.137 . S
Co266 O279 2.244 . S
O267 Co266 2.216 . S
O267 C274 1.247 . S
O268 Co266 2.091 . S
O268 C274 1.261 . S
C269 O278 1.247 . S
C269 O279 1.272 . S
O270 Co266 2.004 . S
O270 C275 1.259 . S
Co271 O272 2.061 . S
Co271 O277 2.052 . S
Co271 O279 2.135 . S
O272 Co271 2.061 . S
O272 C275 1.235 . S
C273 O276 1.238 . S
C273 O277 1.241 . S
C274 O267 1.247 . S
C274 O268 1.261 . S
C275 O270 1.259 . S
C275 O272 1.235 . S
O276 Co266 2.021 . S
O276 C273 1.238 . S
O277 Co271 2.052 . S
O277 C273 1.241 . S
O278 Co266 2.137 . S
O278 C269 1.247 . S
O279 Co266 2.244 . S
O279 C269 1.272 . S
O279 Co271 2.135 . S
Co280 O281 2.216 . S
Co280 O282 2.091 . S
Co280 O284 2.004 . S
Co280 O290 2.021 . S
Co280 O292 2.137 . S
Co280 O293 2.244 . S
O281 Co280 2.216 . S
O281 C288 1.247 . S
O282 Co280 2.091 . S
O282 C288 1.261 . S
C283 O292 1.247 . S
C283 O293 1.272 . S
O284 Co280 2.004 . S
O284 C289 1.259 . S
Co285 O286 2.061 . S
Co285 O291 2.052 . S
Co285 O293 2.135 . S
O286 Co285 2.061 . S
O286 C289 1.235 . S
C287 O290 1.238 . S
C287 O291 1.241 . S
C288 O281 1.247 . S
C288 O282 1.261 . S
C289 O284 1.259 . S
C289 O286 1.235 . S
O290 Co280 2.021 . S
O290 C287 1.238 . S
O291 Co285 2.052 . S
O291 C287 1.241 . S
O292 Co280 2.137 . S
O292 C283 1.247 . S
O293 Co280 2.244 . S
O293 C283 1.272 . S
O293 Co285 2.135 . S
Co294 O295 2.216 . S
Co294 O296 2.091 . S
Co294 O298 2.004 . S
Co294 O304 2.021 . S
Co294 O306 2.137 . S
Co294 O307 2.244 . S
O295 Co294 2.216 . S
O295 C302 1.247 . S
O296 Co294 2.091 . S
O296 C302 1.261 . S
C297 O306 1.247 . S
C297 O307 1.272 . S
O298 Co294 2.004 . S
O298 C303 1.259 . S
Co299 O300 2.061 . S
Co299 O305 2.052 . S
Co299 O307 2.135 . S
O300 Co299 2.061 . S
O300 C303 1.235 . S
C301 O304 1.238 . S
C301 O305 1.241 . S
C302 O295 1.247 . S
C302 O296 1.261 . S
C303 O298 1.259 . S
C303 O300 1.235 . S
O304 Co294 2.021 . S
O304 C301 1.238 . S
O305 Co299 2.052 . S
O305 C301 1.241 . S
O306 Co294 2.137 . S
O306 C297 1.247 . S
O307 Co294 2.244 . S
O307 C297 1.272 . S
O307 Co299 2.135 . S
Co308 O309 2.216 . S
Co308 O310 2.091 . S
Co308 O312 2.004 . S
Co308 O318 2.021 . S
Co308 O320 2.137 . S
Co308 O321 2.244 . S
O309 Co308 2.216 . S
O309 C316 1.247 . S
O310 Co308 2.091 . S
O310 C316 1.261 . S
C311 O320 1.247 . S
C311 O321 1.272 . S
O312 Co308 2.004 . S
O312 C317 1.259 . S
Co313 O314 2.061 . S
Co313 O319 2.052 . S
Co313 O321 2.135 . S
O314 Co313 2.061 . S
O314 C317 1.235 . S
C315 O318 1.238 . S
C315 O319 1.241 . S
C316 O309 1.247 . S
C316 O310 1.261 . S
C317 O312 1.259 . S
C317 O314 1.235 . S
O318 Co308 2.021 . S
O318 C315 1.238 . S
O319 Co313 2.052 . S
O319 C315 1.241 . S
O320 Co308 2.137 . S
O320 C311 1.247 . S
O321 Co308 2.244 . S
O321 C311 1.272 . S
O321 Co313 2.135 . S
Co322 O323 2.216 . S
Co322 O324 2.091 . S
Co322 O326 2.004 . S
Co322 O332 2.021 . S
Co322 O334 2.137 . S
Co322 O335 2.244 . S
O323 Co322 2.216 . S
O323 C330 1.247 . S
O324 Co322 2.091 . S
O324 C330 1.261 . S
C325 O334 1.247 . S
C325 O335 1.272 . S
O326 Co322 2.004 . S
O326 C331 1.259 . S
Co327 O328 2.061 . S
Co327 O333 2.052 . S
Co327 O335 2.135 . S
O328 Co327 2.061 . S
O328 C331 1.235 . S
C329 O332 1.238 . S
C329 O333 1.241 . S
C330 O323 1.247 . S
C330 O324 1.261 . S
C331 O326 1.259 . S
C331 O328 1.235 . S
O332 Co322 2.021 . S
O332 C329 1.238 . S
O333 Co327 2.052 . S
O333 C329 1.241 . S
O334 Co322 2.137 . S
O334 C325 1.247 . S
O335 Co322 2.244 . S
O335 C325 1.272 . S
O335 Co327 2.135 . S
Co336 O337 2.216 . S
Co336 O338 2.091 . S
Co336 O340 2.004 . S
Co336 O346 2.021 . S
Co336 O348 2.137 . S
Co336 O349 2.244 . S
O337 Co336 2.216 . S
O337 C344 1.247 . S
O338 Co336 2.091 . S
O338 C344 1.261 . S
C339 O348 1.247 . S
C339 O349 1.272 . S
O340 Co336 2.004 . S
O340 C345 1.259 . S
Co341 O342 2.061 . S
Co341 O347 2.052 . S
Co341 O349 2.135 . S
O342 Co341 2.061 . S
O342 C345 1.235 . S
C343 O346 1.238 . S
C343 O347 1.241 . S
C344 O337 1.247 . S
C344 O338 1.261 . S
C345 O340 1.259 . S
C345 O342 1.235 . S
O346 Co336 2.021 . S
O346 C343 1.238 . S
O347 Co341 2.052 . S
O347 C343 1.241 . S
O348 Co336 2.137 . S
O348 C339 1.247 . S
O349 Co336 2.244 . S
O349 C339 1.272 . S
O349 Co341 2.135 . S
Co350 O351 2.216 . S
Co350 O352 2.091 . S
Co350 O354 2.004 . S
Co350 O360 2.021 . S
Co350 O362 2.137 . S
Co350 O363 2.244 . S
O351 Co350 2.216 . S
O351 C358 1.247 . S
O352 Co350 2.091 . S
O352 C358 1.261 . S
C353 O362 1.247 . S
C353 O363 1.272 . S
O354 Co350 2.004 . S
O354 C359 1.259 . S
Co355 O356 2.061 . S
Co355 O361 2.052 . S
Co355 O363 2.135 . S
O356 Co355 2.061 . S
O356 C359 1.235 . S
C357 O360 1.238 . S
C357 O361 1.241 . S
C358 O351 1.247 . S
C358 O352 1.261 . S
C359 O354 1.259 . S
C359 O356 1.235 . S
O360 Co350 2.021 . S
O360 C357 1.238 . S
O361 Co355 2.052 . S
O361 C357 1.241 . S
O362 Co350 2.137 . S
O362 C353 1.247 . S
O363 Co350 2.244 . S
O363 C353 1.272 . S
O363 Co355 2.135 . S
Co364 O365 2.216 . S
Co364 O366 2.091 . S
Co364 O368 2.004 . S
Co364 O374 2.021 . S
Co364 O376 2.137 . S
Co364 O377 2.244 . S
O365 Co364 2.216 . S
O365 C372 1.247 . S
O366 Co364 2.091 . S
O366 C372 1.261 . S
C367 O376 1.247 . S
C367 O377 1.272 . S
O368 Co364 2.004 . S
O368 C373 1.259 . S
Co369 O370 2.061 . S
Co369 O375 2.052 . S
Co369 O377 2.135 . S
O370 Co369 2.061 . S
O370 C373 1.235 . S
C371 O374 1.238 . S
C371 O375 1.241 . S
C372 O365 1.247 . S
C372 O366 1.261 . S
C373 O368 1.259 . S
C373 O370 1.235 . S
O374 Co364 2.021 . S
O374 C371 1.238 . S
O375 Co369 2.052 . S
O375 C371 1.241 . S
O376 Co364 2.137 . S
O376 C367 1.247 . S
O377 Co364 2.244 . S
O377 C367 1.272 . S
O377 Co369 2.135 . S
Co378 O379 2.216 . S
Co378 O380 2.091 . S
Co378 O382 2.004 . S
Co378 O388 2.021 . S
Co378 O390 2.137 . S
Co378 O391 2.244 . S
O379 Co378 2.216 . S
O379 C386 1.247 . S
O380 Co378 2.091 . S
O380 C386 1.261 . S
C381 O390 1.247 . S
C381 O391 1.272 . S
O382 Co378 2.004 . S
O382 C387 1.259 . S
Co383 O384 2.061 . S
Co383 O389 2.052 . S
Co383 O391 2.135 . S
O384 Co383 2.061 . S
O384 C387 1.235 . S
C385 O388 1.238 . S
C385 O389 1.241 . S
C386 O379 1.247 . S
C386 O380 1.261 . S
C387 O382 1.259 . S
C387 O384 1.235 . S
O388 Co378 2.021 . S
O388 C385 1.238 . S
O389 Co383 2.052 . S
O389 C385 1.241 . S
O390 Co378 2.137 . S
O390 C381 1.247 . S
O391 Co378 2.244 . S
O391 C381 1.272 . S
O391 Co383 2.135 . S
Co392 O393 2.216 . S
Co392 O394 2.091 . S
Co392 O396 2.004 . S
Co392 O402 2.021 . S
Co392 O404 2.137 . S
Co392 O405 2.244 . S
O393 Co392 2.216 . S
O393 C400 1.247 . S
O394 Co392 2.091 . S
O394 C400 1.261 . S
C395 O404 1.247 . S
C395 O405 1.272 . S
O396 Co392 2.004 . S
O396 C401 1.259 . S
Co397 O398 2.061 . S
Co397 O403 2.052 . S
Co397 O405 2.135 . S
O398 Co397 2.061 . S
O398 C401 1.235 . S
C399 O402 1.238 . S
C399 O403 1.241 . S
C400 O393 1.247 . S
C400 O394 1.261 . S
C401 O396 1.259 . S
C401 O398 1.235 . S
O402 Co392 2.021 . S
O402 C399 1.238 . S
O403 Co397 2.052 . S
O403 C399 1.241 . S
O404 Co392 2.137 . S
O404 C395 1.247 . S
O405 Co392 2.244 . S
O405 C395 1.272 . S
O405 Co397 2.135 . S
Co406 O407 2.216 . S
Co406 O408 2.091 . S
Co406 O410 2.004 . S
Co406 O416 2.021 . S
Co406 O418 2.137 . S
Co406 O419 2.244 . S
O407 Co406 2.216 . S
O407 C414 1.247 . S
O408 Co406 2.091 . S
O408 C414 1.261 . S
C409 O418 1.247 . S
C409 O419 1.272 . S
O410 Co406 2.004 . S
O410 C415 1.259 . S
Co411 O412 2.061 . S
Co411 O417 2.052 . S
Co411 O419 2.135 . S
O412 Co411 2.061 . S
O412 C415 1.235 . S
C413 O416 1.238 . S
C413 O417 1.241 . S
C414 O407 1.247 . S
C414 O408 1.261 . S
C415 O410 1.259 . S
C415 O412 1.235 . S
O416 Co406 2.021 . S
O416 C413 1.238 . S
O417 Co411 2.052 . S
O417 C413 1.241 . S
O418 Co406 2.137 . S
O418 C409 1.247 . S
O419 Co406 2.244 . S
O419 C409 1.272 . S
O419 Co411 2.135 . S
Co420 O421 2.216 . S
Co420 O422 2.091 . S
Co420 O424 2.004 . S
Co420 O430 2.021 . S
Co420 O432 2.137 . S
Co420 O433 2.244 . S
O421 Co420 2.216 . S
O421 C428 1.247 . S
O422 Co420 2.091 . S
O422 C428 1.261 . S
C423 O432 1.247 . S
C423 O433 1.272 . S
O424 Co420 2.004 . S
O424 C429 1.259 . S
Co425 O426 2.061 . S
Co425 O431 2.052 . S
Co425 O433 2.135 . S
O426 Co425 2.061 . S
O426 C429 1.235 . S
C427 O430 1.238 . S
C427 O431 1.241 . S
C428 O421 1.247 . S
C428 O422 1.261 . S
C429 O424 1.259 . S
C429 O426 1.235 . S
O430 Co420 2.021 . S
O430 C427 1.238 . S
O431 Co425 2.052 . S
O431 C427 1.241 . S
O432 Co420 2.137 . S
O432 C423 1.247 . S
O433 Co420 2.244 . S
O433 C423 1.272 . S
O433 Co425 2.135 . S
Co434 O435 2.216 . S
Co434 O436 2.091 . S
Co434 O438 2.004 . S
Co434 O444 2.021 . S
Co434 O446 2.137 . S
Co434 O447 2.244 . S
O435 Co434 2.216 . S
O435 C442 1.247 . S
O436 Co434 2.091 . S
O436 C442 1.261 . S
C437 O446 1.247 . S
C437 O447 1.272 . S
O438 Co434 2.004 . S
O438 C443 1.259 . S
Co439 O440 2.061 . S
Co439 O445 2.052 . S
Co439 O447 2.135 . S
O440 Co439 2.061 . S
O440 C443 1.235 . S
C441 O444 1.238 . S
C441 O445 1.241 . S
C442 O435 1.247 . S
C442 O436 1.261 . S
C443 O438 1.259 . S
C443 O440 1.235 . S
O444 Co434 2.021 . S
O444 C441 1.238 . S
O445 Co439 2.052 . S
O445 C441 1.241 . S
O446 Co434 2.137 . S
O446 C437 1.247 . S
O447 Co434 2.244 . S
O447 C437 1.272 . S
O447 Co439 2.135 . S
Co448 O449 2.216 . S
Co448 O450 2.091 . S
Co448 O452 2.004 . S
Co448 O458 2.021 . S
Co448 O460 2.137 . S
Co448 O461 2.244 . S
O449 Co448 2.216 . S
O449 C456 1.247 . S
O450 Co448 2.091 . S
O450 C456 1.261 . S
C451 O460 1.247 . S
C451 O461 1.272 . S
O452 Co448 2.004 . S
O452 C457 1.259 . S
Co453 O454 2.061 . S
Co453 O459 2.052 . S
Co453 O461 2.135 . S
O454 Co453 2.061 . S
O454 C457 1.235 . S
C455 O458 1.238 . S
C455 O459 1.241 . S
C456 O449 1.247 . S
C456 O450 1.261 . S
C457 O452 1.259 . S
C457 O454 1.235 . S
O458 Co448 2.021 . S
O458 C455 1.238 . S
O459 Co453 2.052 . S
O459 C455 1.241 . S
O460 Co448 2.137 . S
O460 C451 1.247 . S
O461 Co448 2.244 . S
O461 C451 1.272 . S
O461 Co453 2.135 . S
Co462 O463 2.216 . S
Co462 O464 2.091 . S
Co462 O466 2.004 . S
Co462 O472 2.021 . S
Co462 O474 2.137 . S
Co462 O475 2.244 . S
O463 Co462 2.216 . S
O463 C470 1.247 . S
O464 Co462 2.091 . S
O464 C470 1.261 . S
C465 O474 1.247 . S
C465 O475 1.272 . S
O466 Co462 2.004 . S
O466 C471 1.259 . S
Co467 O468 2.061 . S
Co467 O473 2.052 . S
Co467 O475 2.135 . S
O468 Co467 2.061 . S
O468 C471 1.235 . S
C469 O472 1.238 . S
C469 O473 1.241 . S
C470 O463 1.247 . S
C470 O464 1.261 . S
C471 O466 1.259 . S
C471 O468 1.235 . S
O472 Co462 2.021 . S
O472 C469 1.238 . S
O473 Co467 2.052 . S
O473 C469 1.241 . S
O474 Co462 2.137 . S
O474 C465 1.247 . S
O475 Co462 2.244 . S
O475 C465 1.272 . S
O475 Co467 2.135 . S
Co476 O477 2.216 . S
Co476 O478 2.091 . S
Co476 O480 2.004 . S
Co476 O486 2.021 . S
Co476 O488 2.137 . S
Co476 O489 2.244 . S
O477 Co476 2.216 . S
O477 C484 1.247 . S
O478 Co476 2.091 . S
O478 C484 1.261 . S
C479 O488 1.247 . S
C479 O489 1.272 . S
O480 Co476 2.004 . S
O480 C485 1.259 . S
Co481 O482 2.061 . S
Co481 O487 2.052 . S
Co481 O489 2.135 . S
O482 Co481 2.061 . S
O482 C485 1.235 . S
C483 O486 1.238 . S
C483 O487 1.241 . S
C484 O477 1.247 . S
C484 O478 1.261 . S
C485 O480 1.259 . S
C485 O482 1.235 . S
O486 Co476 2.021 . S
O486 C483 1.238 . S
O487 Co481 2.052 . S
O487 C483 1.241 . S
O488 Co476 2.137 . S
O488 C479 1.247 . S
O489 Co476 2.244 . S
O489 C479 1.272 . S
O489 Co481 2.135 . S
Co490 O491 2.216 . S
Co490 O492 2.091 . S
Co490 O494 2.004 . S
Co490 O500 2.021 . S
Co490 O502 2.137 . S
Co490 O503 2.244 . S
O491 Co490 2.216 . S
O491 C498 1.247 . S
O492 Co490 2.091 . S
O492 C498 1.261 . S
C493 O502 1.247 . S
C493 O503 1.272 . S
O494 Co490 2.004 . S
O494 C499 1.259 . S
Co495 O496 2.061 . S
Co495 O501 2.052 . S
Co495 O503 2.135 . S
O496 Co495 2.061 . S
O496 C499 1.235 . S
C497 O500 1.238 . S
C497 O501 1.241 . S
C498 O491 1.247 . S
C498 O492 1.261 . S
C499 O494 1.259 . S
C499 O496 1.235 . S
O500 Co490 2.021 . S
O500 C497 1.238 . S
O501 Co495 2.052 . S
O501 C497 1.241 . S
O502 Co490 2.137 . S
O502 C493 1.247 . S
O503 Co490 2.244 . S
O503 C493 1.272 . S
O503 Co495 2.135 . S
C504 C505 1.387 . S
C504 H508 0.950 . S
C504 C513 1.390 . S
C505 C504 1.387 . S
C505 C507 1.387 . S
H506 C513 0.950 . S
C507 C505 1.387 . S
C507 C509 1.390 . S
C507 H511 0.950 . S
H508 C504 0.950 . S
C509 C507 1.390 . S
C509 C510 1.387 . S
C509 H512 0.950 . S
C510 C509 1.387 . S
C510 C513 1.387 . S
H511 C507 0.950 . S
H512 C509 0.950 . S
C513 C504 1.390 . S
C513 H506 0.950 . S
C513 C510 1.387 . S
C514 C515 1.387 . S
C514 H518 0.950 . S
C514 C523 1.390 . S
C515 C514 1.387 . S
C515 C517 1.387 . S
H516 C523 0.950 . S
C517 C515 1.387 . S
C517 C519 1.390 . S
C517 H521 0.950 . S
H518 C514 0.950 . S
C519 C517 1.390 . S
C519 C520 1.387 . S
C519 H522 0.950 . S
C520 C519 1.387 . S
C520 C523 1.387 . S
H521 C517 0.950 . S
H522 C519 0.950 . S
C523 C514 1.390 . S
C523 H516 0.950 . S
C523 C520 1.387 . S
C524 C525 1.387 . S
C524 H528 0.950 . S
C524 C533 1.390 . S
C525 C524 1.387 . S
C525 C527 1.387 . S
H526 C533 0.950 . S
C527 C525 1.387 . S
C527 C529 1.390 . S
C527 H531 0.950 . S
H528 C524 0.950 . S
C529 C527 1.390 . S
C529 C530 1.387 . S
C529 H532 0.950 . S
C530 C529 1.387 . S
C530 C533 1.387 . S
H531 C527 0.950 . S
H532 C529 0.950 . S
C533 C524 1.390 . S
C533 H526 0.950 . S
C533 C530 1.387 . S
C534 C535 1.387 . S
C534 H538 0.950 . S
C534 C543 1.390 . S
C535 C534 1.387 . S
C535 C537 1.387 . S
H536 C543 0.950 . S
C537 C535 1.387 . S
C537 C539 1.390 . S
C537 H541 0.950 . S
H538 C534 0.950 . S
C539 C537 1.390 . S
C539 C540 1.387 . S
C539 H542 0.950 . S
C540 C539 1.387 . S
C540 C543 1.387 . S
H541 C537 0.950 . S
H542 C539 0.950 . S
C543 C534 1.390 . S
C543 H536 0.950 . S
C543 C540 1.387 . S
C544 C545 1.387 . S
C544 H548 0.950 . S
C544 C553 1.390 . S
C545 C544 1.387 . S
C545 C547 1.387 . S
H546 C553 0.950 . S
C547 C545 1.387 . S
C547 C549 1.390 . S
C547 H551 0.950 . S
H548 C544 0.950 . S
C549 C547 1.390 . S
C549 C550 1.387 . S
C549 H552 0.950 . S
C550 C549 1.387 . S
C550 C553 1.387 . S
H551 C547 0.950 . S
H552 C549 0.950 . S
C553 C544 1.390 . S
C553 H546 0.950 . S
C553 C550 1.387 . S
C554 C555 1.387 . S
C554 H558 0.950 . S
C554 C563 1.390 . S
C555 C554 1.387 . S
C555 C557 1.387 . S
H556 C563 0.950 . S
C557 C555 1.387 . S
C557 C559 1.390 . S
C557 H561 0.950 . S
H558 C554 0.950 . S
C559 C557 1.390 . S
C559 C560 1.387 . S
C559 H562 0.950 . S
C560 C559 1.387 . S
C560 C563 1.387 . S
H561 C557 0.950 . S
H562 C559 0.950 . S
C563 C554 1.390 . S
C563 H556 0.950 . S
C563 C560 1.387 . S
C564 C565 1.387 . S
C564 H568 0.950 . S
C564 C573 1.390 . S
C565 C564 1.387 . S
C565 C567 1.387 . S
H566 C573 0.950 . S
C567 C565 1.387 . S
C567 C569 1.390 . S
C567 H571 0.950 . S
H568 C564 0.950 . S
C569 C567 1.390 . S
C569 C570 1.387 . S
C569 H572 0.950 . S
C570 C569 1.387 . S
C570 C573 1.387 . S
H571 C567 0.950 . S
H572 C569 0.950 . S
C573 C564 1.390 . S
C573 H566 0.950 . S
C573 C570 1.387 . S
C574 C575 1.387 . S
C574 H578 0.950 . S
C574 C583 1.390 . S
C575 C574 1.387 . S
C575 C577 1.387 . S
H576 C583 0.950 . S
C577 C575 1.387 . S
C577 C579 1.390 . S
C577 H581 0.950 . S
H578 C574 0.950 . S
C579 C577 1.390 . S
C579 C580 1.387 . S
C579 H582 0.950 . S
C580 C579 1.387 . S
C580 C583 1.387 . S
H581 C577 0.950 . S
H582 C579 0.950 . S
C583 C574 1.390 . S
C583 H576 0.950 . S
C583 C580 1.387 . S
C584 C585 1.387 . S
C584 H588 0.950 . S
C584 C593 1.390 . S
C585 C584 1.387 . S
C585 C587 1.387 . S
H586 C593 0.950 . S
C587 C585 1.387 . S
C587 C589 1.390 . S
C587 H591 0.950 . S
H588 C584 0.950 . S
C589 C587 1.390 . S
C589 C590 1.387 . S
C589 H592 0.950 . S
C590 C589 1.387 . S
C590 C593 1.387 . S
H591 C587 0.950 . S
H592 C589 0.950 . S
C593 C584 1.390 . S
C593 H586 0.950 . S
C593 C590 1.387 . S
C594 C595 1.387 . S
C594 H598 0.950 . S
C594 C603 1.390 . S
C595 C594 1.387 . S
C595 C597 1.387 . S
H596 C603 0.950 . S
C597 C595 1.387 . S
C597 C599 1.390 . S
C597 H601 0.950 . S
H598 C594 0.950 . S
C599 C597 1.390 . S
C599 C600 1.387 . S
C599 H602 0.950 . S
C600 C599 1.387 . S
C600 C603 1.387 . S
H601 C597 0.950 . S
H602 C599 0.950 . S
C603 C594 1.390 . S
C603 H596 0.950 . S
C603 C600 1.387 . S
C604 C605 1.387 . S
C604 H608 0.950 . S
C604 C613 1.390 . S
C605 C604 1.387 . S
C605 C607 1.387 . S
H606 C613 0.950 . S
C607 C605 1.387 . S
C607 C609 1.390 . S
C607 H611 0.950 . S
H608 C604 0.950 . S
C609 C607 1.390 . S
C609 C610 1.387 . S
C609 H612 0.950 . S
C610 C609 1.387 . S
C610 C613 1.387 . S
H611 C607 0.950 . S
H612 C609 0.950 . S
C613 C604 1.390 . S
C613 H606 0.950 . S
C613 C610 1.387 . S
C614 C615 1.387 . S
C614 H618 0.950 . S
C614 C623 1.390 . S
C615 C614 1.387 . S
C615 C617 1.387 . S
H616 C623 0.950 . S
C617 C615 1.387 . S
C617 C619 1.390 . S
C617 H621 0.950 . S
H618 C614 0.950 . S
C619 C617 1.390 . S
C619 C620 1.387 . S
C619 H622 0.950 . S
C620 C619 1.387 . S
C620 C623 1.387 . S
H621 C617 0.950 . S
H622 C619 0.950 . S
C623 C614 1.390 . S
C623 H616 0.950 . S
C623 C620 1.387 . S
C624 C625 1.387 1_455 S
C624 H628 0.950 . S
C624 C633 1.390 . S
C625 C624 1.387 1_655 S
C625 C627 1.387 . S
H626 C633 0.950 . S
C627 C625 1.387 . S
C627 C629 1.386 1_655 S
C627 H631 0.950 . S
H628 C624 0.950 . S
C629 C627 1.386 1_455 S
C629 C630 1.389 . S
C629 H632 0.952 1_455 S
C630 C629 1.389 . S
C630 C633 1.387 . S
H631 C627 0.950 . S
H632 C629 0.952 1_655 S
C633 C624 1.390 . S
C633 H626 0.950 . S
C633 C630 1.387 . S
C634 C635 1.387 . S
C634 H638 0.950 . S
C634 C643 1.390 . S
C635 C634 1.387 . S
C635 C637 1.387 . S
H636 C643 0.950 . S
C637 C635 1.387 . S
C637 C639 1.390 . S
C637 H641 0.950 . S
H638 C634 0.950 . S
C639 C637 1.390 . S
C639 C640 1.387 . S
C639 H642 0.950 . S
C640 C639 1.387 . S
C640 C643 1.387 . S
H641 C637 0.950 . S
H642 C639 0.950 . S
C643 C634 1.390 . S
C643 H636 0.950 . S
C643 C640 1.387 . S
C644 C645 1.387 . S
C644 H648 0.950 . S
C644 C653 1.390 . S
C645 C644 1.387 . S
C645 C647 1.387 1_545 S
H646 C653 0.950 . S
C647 C645 1.387 1_565 S
C647 C649 1.390 . S
C647 H651 0.950 . S
H648 C644 0.950 . S
C649 C647 1.390 . S
C649 C650 1.387 . S
C649 H652 0.950 . S
C650 C649 1.387 . S
C650 C653 1.387 1_565 S
H651 C647 0.950 . S
H652 C649 0.950 . S
C653 C644 1.390 . S
C653 H646 0.950 . S
C653 C650 1.387 1_545 S
C654 C655 1.387 . S
C654 H658 0.950 . S
C654 C663 1.401 1_545 S
C655 C654 1.387 . S
C655 C657 1.387 1_556 S
H656 C663 0.953 . S
C657 C655 1.387 1_554 S
C657 C659 1.390 1_545 S
C657 H661 0.950 . S
H658 C654 0.950 . S
C659 C657 1.390 1_565 S
C659 C660 1.387 . S
C659 H662 0.950 . S
C660 C659 1.387 . S
C660 C663 1.374 1_554 S
H661 C657 0.950 . S
H662 C659 0.950 . S
C663 C654 1.401 1_565 S
C663 H656 0.953 . S
C663 C660 1.374 1_556 S
C664 C665 1.387 1_455 S
C664 H668 0.950 . S
C664 C673 1.390 . S
C665 C664 1.387 1_655 S
C665 C667 1.387 1_556 S
H666 C673 0.950 . S
C667 C665 1.387 1_554 S
C667 C669 1.390 . S
C667 H671 0.950 . S
H668 C664 0.950 . S
C669 C667 1.390 . S
C669 C670 1.387 1_655 S
C669 H672 0.950 . S
C670 C669 1.387 1_455 S
C670 C673 1.387 1_554 S
H671 C667 0.950 . S
H672 C669 0.950 . S
C673 C664 1.390 . S
C673 H666 0.950 . S
C673 C670 1.387 1_556 S
C674 C675 1.387 1_554 S
C674 H678 0.950 . S
C674 C683 1.390 . S
C675 C674 1.387 1_556 S
C675 C677 1.387 . S
H676 C683 0.950 . S
C677 C675 1.387 . S
C677 C679 1.390 1_556 S
C677 H681 0.950 . S
H678 C674 0.950 . S
C679 C677 1.390 1_554 S
C679 C680 1.387 . S
C679 H682 0.950 . S
C680 C679 1.387 . S
C680 C683 1.387 . S
H681 C677 0.950 . S
H682 C679 0.950 . S
C683 C674 1.390 . S
C683 H676 0.950 . S
C683 C680 1.387 . S
C684 C685 1.387 . S
C684 H688 0.950 . S
C684 C693 1.390 . S
C685 C684 1.387 . S
C685 C687 1.387 . S
H686 C693 0.950 . S
C687 C685 1.387 . S
C687 C689 1.390 . S
C687 H691 0.950 . S
H688 C684 0.950 . S
C689 C687 1.390 . S
C689 C690 1.387 . S
C689 H692 0.950 . S
C690 C689 1.387 . S
C690 C693 1.387 . S
H691 C687 0.950 . S
H692 C689 0.950 . S
C693 C684 1.390 . S
C693 H686 0.950 . S
C693 C690 1.387 . S
C694 C695 1.387 . S
C694 H698 0.962 1_655 S
C694 C703 1.390 1_556 S
C695 C694 1.387 . S
C695 C697 1.387 . S
H696 C703 0.950 . S
C697 C695 1.387 . S
C697 C699 1.390 . S
C697 H701 0.950 . S
H698 C694 0.962 1_455 S
C699 C697 1.390 . S
C699 C700 1.387 . S
C699 H702 0.950 . S
C700 C699 1.387 . S
C700 C703 1.387 1_556 S
H701 C697 0.950 . S
H702 C699 0.950 . S
C703 C694 1.390 1_554 S
C703 H696 0.950 . S
C703 C700 1.387 1_554 S
C704 C705 1.387 . S
C704 H708 0.950 . S
C704 C713 1.390 . S
C705 C704 1.387 . S
C705 C707 1.387 1_554 S
H706 C713 0.950 . S
C707 C705 1.387 1_556 S
C707 C709 1.390 . S
C707 H711 0.950 . S
H708 C704 0.950 . S
C709 C707 1.390 . S
C709 C710 1.387 . S
C709 H712 0.950 . S
C710 C709 1.387 . S
C710 C713 1.387 1_556 S
H711 C707 0.950 . S
H712 C709 0.950 . S
C713 C704 1.390 . S
C713 H706 0.950 . S
C713 C710 1.387 1_554 S
C714 C715 1.387 . S
C714 H718 0.950 . S
C714 C723 1.390 . S
C715 C714 1.387 . S
C715 C717 1.387 . S
H716 C723 0.950 . S
C717 C715 1.387 . S
C717 C719 1.390 . S
C717 H721 0.950 . S
H718 C714 0.950 . S
C719 C717 1.390 . S
C719 C720 1.387 . S
C719 H722 0.950 . S
C720 C719 1.387 . S
C720 C723 1.387 . S
H721 C717 0.950 . S
H722 C719 0.950 . S
C723 C714 1.390 . S
C723 H716 0.950 . S
C723 C720 1.387 . S
C724 C725 1.387 . S
C724 H728 0.950 . S
C724 C733 1.390 . S
C725 C724 1.387 . S
C725 C727 1.387 . S
H726 C733 0.950 . S
C727 C725 1.387 . S
C727 C729 1.390 . S
C727 H731 0.950 . S
H728 C724 0.950 . S
C729 C727 1.390 . S
C729 C730 1.387 . S
C729 H732 0.950 . S
C730 C729 1.387 . S
C730 C733 1.387 . S
H731 C727 0.950 . S
H732 C729 0.950 . S
C733 C724 1.390 . S
C733 H726 0.950 . S
C733 C730 1.387 . S
C734 C735 1.387 . S
C734 H738 0.950 . S
C734 C743 1.390 . S
C735 C734 1.387 . S
C735 C737 1.387 . S
H736 C743 0.950 . S
C737 C735 1.387 . S
C737 C739 1.390 . S
C737 H741 0.950 . S
H738 C734 0.950 . S
C739 C737 1.390 . S
C739 C740 1.387 . S
C739 H742 0.950 . S
C740 C739 1.387 . S
C740 C743 1.387 . S
H741 C737 0.950 . S
H742 C739 0.950 . S
C743 C734 1.390 . S
C743 H736 0.950 . S
C743 C740 1.387 . S
C744 C745 1.387 . S
C744 H748 0.950 . S
C744 C753 1.390 . S
C745 C744 1.387 . S
C745 C747 1.387 1_556 S
H746 C753 0.950 . S
C747 C745 1.387 1_554 S
C747 C749 1.390 . S
C747 H751 0.950 . S
H748 C744 0.950 . S
C749 C747 1.390 . S
C749 C750 1.387 . S
C749 H752 0.950 . S
C750 C749 1.387 . S
C750 C753 1.387 1_554 S
H751 C747 0.950 . S
H752 C749 0.950 . S
C753 C744 1.390 . S
C753 H746 0.950 . S
C753 C750 1.387 1_556 S
C754 C755 1.387 . S
C754 H758 0.950 . S
C754 C763 1.390 1_556 S
C755 C754 1.387 . S
C755 C757 1.387 1_556 S
H756 C763 0.950 . S
C757 C755 1.387 1_554 S
C757 C759 1.390 . S
C757 H761 0.950 . S
H758 C754 0.950 . S
C759 C757 1.390 . S
C759 C760 1.387 . S
C759 H762 0.950 . S
C760 C759 1.387 . S
C760 C763 1.387 . S
H761 C757 0.950 . S
H762 C759 0.950 . S
C763 C754 1.390 1_554 S
C763 H756 0.950 . S
C763 C760 1.387 . S
C764 C765 1.387 1_554 S
C764 H768 0.950 . S
C764 C773 1.390 . S
C765 C764 1.387 1_556 S
C765 C767 1.387 . S
H766 C773 0.950 . S
C767 C765 1.387 . S
C767 C769 1.390 . S
C767 H771 0.950 . S
H768 C764 0.950 . S
C769 C767 1.390 . S
C769 C770 1.387 1_556 S
C769 H772 0.950 . S
C770 C769 1.387 1_554 S
C770 C773 1.387 . S
H771 C767 0.950 . S
H772 C769 0.950 . S
C773 C764 1.390 . S
C773 H766 0.950 . S
C773 C770 1.387 . S
C774 C775 1.387 . S
C774 H778 0.950 . S
C774 C783 1.390 . S
C775 C774 1.387 . S
C775 C777 1.387 . S
H776 C783 0.950 . S
C777 C775 1.387 . S
C777 C779 1.390 . S
C777 H781 0.950 . S
H778 C774 0.950 . S
C779 C777 1.390 . S
C779 C780 1.387 . S
C779 H782 0.950 . S
C780 C779 1.387 . S
C780 C783 1.387 . S
H781 C777 0.950 . S
H782 C779 0.950 . S
C783 C774 1.390 . S
C783 H776 0.950 . S
C783 C780 1.387 . S
C784 C785 1.387 . S
C784 H788 0.950 . S
C784 C793 1.390 . S
C785 C784 1.387 . S
C785 C787 1.387 . S
H786 C793 0.950 . S
C787 C785 1.387 . S
C787 C789 1.390 . S
C787 H791 0.950 . S
H788 C784 0.950 . S
C789 C787 1.390 . S
C789 C790 1.387 . S
C789 H792 0.950 . S
C790 C789 1.387 . S
C790 C793 1.387 . S
H791 C787 0.950 . S
H792 C789 0.950 . S
C793 C784 1.390 . S
C793 H786 0.950 . S
C793 C790 1.387 . S
C794 C795 1.387 . S
C794 H798 0.950 . S
C794 C803 1.390 . S
C795 C794 1.387 . S
C795 C797 1.387 . S
H796 C803 0.950 . S
C797 C795 1.387 . S
C797 C799 1.390 . S
C797 H801 0.950 . S
H798 C794 0.950 . S
C799 C797 1.390 . S
C799 C800 1.387 . S
C799 H802 0.950 . S
C800 C799 1.387 . S
C800 C803 1.387 . S
H801 C797 0.950 . S
H802 C799 0.950 . S
C803 C794 1.390 . S
C803 H796 0.950 . S
C803 C800 1.387 . S
C804 C805 1.387 . S
C804 H808 0.950 . S
C804 C813 1.390 . S
C805 C804 1.387 . S
C805 C807 1.387 . S
H806 C813 0.950 . S
C807 C805 1.387 . S
C807 C809 1.390 . S
C807 H811 0.950 . S
H808 C804 0.950 . S
C809 C807 1.390 . S
C809 C810 1.387 . S
C809 H812 0.950 . S
C810 C809 1.387 . S
C810 C813 1.387 . S
H811 C807 0.950 . S
H812 C809 0.950 . S
C813 C804 1.390 . S
C813 H806 0.950 . S
C813 C810 1.387 . S
C814 C815 1.387 . S
C814 H818 0.950 . S
C814 C823 1.390 . S
C815 C814 1.387 . S
C815 C817 1.387 . S
H816 C823 0.950 . S
C817 C815 1.387 . S
C817 C819 1.390 . S
C817 H821 0.950 . S
H818 C814 0.950 . S
C819 C817 1.390 . S
C819 C820 1.387 . S
C819 H822 0.950 . S
C820 C819 1.387 . S
C820 C823 1.387 . S
H821 C817 0.950 . S
H822 C819 0.950 . S
C823 C814 1.390 . S
C823 H816 0.950 . S
C823 C820 1.387 . S
C824 C825 1.387 . S
C824 H828 0.950 . S
C824 C833 1.390 . S
C825 C824 1.387 . S
C825 C827 1.387 . S
H826 C833 0.950 . S
C827 C825 1.387 . S
C827 C829 1.390 . S
C827 H831 0.950 . S
H828 C824 0.950 . S
C829 C827 1.390 . S
C829 C830 1.387 . S
C829 H832 0.950 . S
C830 C829 1.387 . S
C830 C833 1.387 . S
H831 C827 0.950 . S
H832 C829 0.950 . S
C833 C824 1.390 . S
C833 H826 0.950 . S
C833 C830 1.387 . S
C834 C835 1.387 . S
C834 H838 0.950 . S
C834 C843 1.390 . S
C835 C834 1.387 . S
C835 C837 1.387 . S
H836 C843 0.950 . S
C837 C835 1.387 . S
C837 C839 1.390 . S
C837 H841 0.950 . S
H838 C834 0.950 . S
C839 C837 1.390 . S
C839 C840 1.387 . S
C839 H842 0.950 . S
C840 C839 1.387 . S
C840 C843 1.387 . S
H841 C837 0.950 . S
H842 C839 0.950 . S
C843 C834 1.390 . S
C843 H836 0.950 . S
C843 C840 1.387 . S
C844 C845 1.387 . S
C844 H848 0.950 . S
C844 C853 1.390 . S
C845 C844 1.387 . S
C845 C847 1.387 . S
H846 C853 0.950 . S
C847 C845 1.387 . S
C847 C849 1.390 . S
C847 H851 0.950 . S
H848 C844 0.950 . S
C849 C847 1.390 . S
C849 C850 1.387 . S
C849 H852 0.950 . S
C850 C849 1.387 . S
C850 C853 1.387 . S
H851 C847 0.950 . S
H852 C849 0.950 . S
C853 C844 1.390 . S
C853 H846 0.950 . S
C853 C850 1.387 . S
C854 C855 1.387 . S
C854 H858 0.950 . S
C854 C863 1.390 . S
C855 C854 1.387 . S
C855 C857 1.387 . S
H856 C863 0.950 . S
C857 C855 1.387 . S
C857 C859 1.390 . S
C857 H861 0.950 . S
H858 C854 0.950 . S
C859 C857 1.390 . S
C859 C860 1.387 . S
C859 H862 0.950 . S
C860 C859 1.387 . S
C860 C863 1.387 . S
H861 C857 0.950 . S
H862 C859 0.950 . S
C863 C854 1.390 . S
C863 H856 0.950 . S
C863 C860 1.387 . S
C864 C865 1.387 . S
C864 H868 0.950 . S
C864 C873 1.390 . S
C865 C864 1.387 . S
C865 C867 1.387 . S
H866 C873 0.950 . S
C867 C865 1.387 . S
C867 C869 1.390 . S
C867 H871 0.950 . S
H868 C864 0.950 . S
C869 C867 1.390 . S
C869 C870 1.387 . S
C869 H872 0.950 . S
C870 C869 1.387 . S
C870 C873 1.387 . S
H871 C867 0.950 . S
H872 C869 0.950 . S
C873 C864 1.390 . S
C873 H866 0.950 . S
C873 C870 1.387 . S
C874 C875 1.387 . S
C874 H878 0.950 . S
C874 C883 1.390 . S
C875 C874 1.387 . S
C875 C877 1.387 . S
H876 C883 0.950 . S
C877 C875 1.387 . S
C877 C879 1.390 . S
C877 H881 0.950 . S
H878 C874 0.950 . S
C879 C877 1.390 . S
C879 C880 1.387 . S
C879 H882 0.950 . S
C880 C879 1.387 . S
C880 C883 1.387 . S
H881 C877 0.950 . S
H882 C879 0.950 . S
C883 C874 1.390 . S
C883 H876 0.950 . S
C883 C880 1.387 . S
C884 C885 1.387 . S
C884 H888 0.950 . S
C884 C893 1.390 . S
C885 C884 1.387 . S
C885 C887 1.387 . S
H886 C893 0.950 . S
C887 C885 1.387 . S
C887 C889 1.390 . S
C887 H891 0.950 . S
H888 C884 0.950 . S
C889 C887 1.390 . S
C889 C890 1.387 . S
C889 H892 0.950 . S
C890 C889 1.387 . S
C890 C893 1.387 . S
H891 C887 0.950 . S
H892 C889 0.950 . S
C893 C884 1.390 . S
C893 H886 0.950 . S
C893 C890 1.387 . S
C894 C895 1.387 . S
C894 H898 0.950 . S
C894 C903 1.390 . S
C895 C894 1.387 . S
C895 C897 1.387 . S
H896 C903 0.950 . S
C897 C895 1.387 . S
C897 C899 1.390 . S
C897 H901 0.950 . S
H898 C894 0.950 . S
C899 C897 1.390 . S
C899 C900 1.387 . S
C899 H902 0.950 . S
C900 C899 1.387 . S
C900 C903 1.387 . S
H901 C897 0.950 . S
H902 C899 0.950 . S
C903 C894 1.390 . S
C903 H896 0.950 . S
C903 C900 1.387 . S
C904 C905 1.387 . S
C904 H908 0.950 . S
C904 C913 1.390 . S
C905 C904 1.387 . S
C905 C907 1.387 . S
H906 C913 0.950 . S
C907 C905 1.387 . S
C907 C909 1.390 . S
C907 H911 0.950 . S
H908 C904 0.950 . S
C909 C907 1.390 . S
C909 C910 1.387 . S
C909 H912 0.950 . S
C910 C909 1.387 . S
C910 C913 1.387 . S
H911 C907 0.950 . S
H912 C909 0.950 . S
C913 C904 1.390 . S
C913 H906 0.950 . S
C913 C910 1.387 . S
C914 C915 1.387 . S
C914 H918 0.950 . S
C914 C923 1.390 . S
C915 C914 1.387 . S
C915 C917 1.387 . S
H916 C923 0.950 . S
C917 C915 1.387 . S
C917 C919 1.390 . S
C917 H921 0.950 . S
H918 C914 0.950 . S
C919 C917 1.390 . S
C919 C920 1.387 . S
C919 H922 0.950 . S
C920 C919 1.387 . S
C920 C923 1.387 . S
H921 C917 0.950 . S
H922 C919 0.950 . S
C923 C914 1.390 . S
C923 H916 0.950 . S
C923 C920 1.387 . S
C924 C925 1.387 . S
C924 H928 0.950 . S
C924 C933 1.390 . S
C925 C924 1.387 . S
C925 C927 1.387 . S
H926 C933 0.950 . S
C927 C925 1.387 . S
C927 C929 1.390 . S
C927 H931 0.950 . S
H928 C924 0.950 . S
C929 C927 1.390 . S
C929 C930 1.387 . S
C929 H932 0.950 . S
C930 C929 1.387 . S
C930 C933 1.387 . S
H931 C927 0.950 . S
H932 C929 0.950 . S
C933 C924 1.390 . S
C933 H926 0.950 . S
C933 C930 1.387 . S
C934 C935 1.387 . S
C934 H938 0.950 . S
C934 C943 1.390 . S
C935 C934 1.387 . S
C935 C937 1.387 . S
H936 C943 0.950 . S
C937 C935 1.387 . S
C937 C939 1.390 . S
C937 H941 0.950 . S
H938 C934 0.950 . S
C939 C937 1.390 . S
C939 C940 1.387 . S
C939 H942 0.950 . S
C940 C939 1.387 . S
C940 C943 1.387 . S
H941 C937 0.950 . S
H942 C939 0.950 . S
C943 C934 1.390 . S
C943 H936 0.950 . S
C943 C940 1.387 . S
C944 C945 1.387 . S
C944 H948 0.950 . S
C944 C953 1.390 . S
C945 C944 1.387 . S
C945 C947 1.387 . S
H946 C953 0.950 . S
C947 C945 1.387 . S
C947 C949 1.390 . S
C947 H951 0.950 . S
H948 C944 0.950 . S
C949 C947 1.390 . S
C949 C950 1.387 . S
C949 H952 0.950 . S
C950 C949 1.387 . S
C950 C953 1.387 . S
H951 C947 0.950 . S
H952 C949 0.950 . S
C953 C944 1.390 . S
C953 H946 0.950 . S
C953 C950 1.387 . S
C954 C955 1.387 . S
C954 H958 0.950 . S
C954 C963 1.390 . S
C955 C954 1.387 . S
C955 C957 1.387 . S
H956 C963 0.950 . S
C957 C955 1.387 . S
C957 C959 1.390 . S
C957 H961 0.950 . S
H958 C954 0.950 . S
C959 C957 1.390 . S
C959 C960 1.387 . S
C959 H962 0.950 . S
C960 C959 1.387 . S
C960 C963 1.387 . S
H961 C957 0.950 . S
H962 C959 0.950 . S
C963 C954 1.390 . S
C963 H956 0.950 . S
C963 C960 1.387 . S
C964 C965 1.387 . S
C964 H968 0.950 . S
C964 C973 1.390 . S
C965 C964 1.387 . S
C965 C967 1.387 . S
H966 C973 0.950 . S
C967 C965 1.387 . S
C967 C969 1.390 . S
C967 H971 0.950 . S
H968 C964 0.950 . S
C969 C967 1.390 . S
C969 C970 1.387 . S
C969 H972 0.950 . S
C970 C969 1.387 . S
C970 C973 1.387 . S
H971 C967 0.950 . S
H972 C969 0.950 . S
C973 C964 1.390 . S
C973 H966 0.950 . S
C973 C970 1.387 . S
C974 C975 1.387 . S
C974 H978 0.950 . S
C974 C983 1.390 . S
C975 C974 1.387 . S
C975 C977 1.387 . S
H976 C983 0.950 . S
C977 C975 1.387 . S
C977 C979 1.390 . S
C977 H981 0.950 . S
H978 C974 0.950 . S
C979 C977 1.390 . S
C979 C980 1.387 . S
C979 H982 0.950 . S
C980 C979 1.387 . S
C980 C983 1.387 . S
H981 C977 0.950 . S
H982 C979 0.950 . S
C983 C974 1.390 . S
C983 H976 0.950 . S
C983 C980 1.387 . S
C984 C985 1.387 . S
C984 H988 0.950 . S
C984 C993 1.390 . S
C985 C984 1.387 . S
C985 C987 1.387 . S
H986 C993 0.950 . S
C987 C985 1.387 . S
C987 C989 1.390 . S
C987 H991 0.950 . S
H988 C984 0.950 . S
C989 C987 1.390 . S
C989 C990 1.387 . S
C989 H992 0.950 . S
C990 C989 1.387 . S
C990 C993 1.387 . S
H991 C987 0.950 . S
H992 C989 0.950 . S
C993 C984 1.390 . S
C993 H986 0.950 . S
C993 C990 1.387 . S
C994 C995 1.387 . S
C994 H998 0.950 . S
C994 C1003 1.390 . S
C995 C994 1.387 . S
C995 C997 1.387 . S
H996 C1003 0.950 . S
C997 C995 1.387 . S
C997 C999 1.390 . S
C997 H1001 0.950 . S
H998 C994 0.950 . S
C999 C997 1.390 . S
C999 C1000 1.387 . S
C999 H1002 0.950 . S
C1000 C999 1.387 . S
C1000 C1003 1.387 . S
H1001 C997 0.950 . S
H1002 C999 0.950 . S
C1003 C994 1.390 . S
C1003 H996 0.950 . S
C1003 C1000 1.387 . S
C1004 C1005 1.387 . S
C1004 H1008 0.950 . S
C1004 C1013 1.390 . S
C1005 C1004 1.387 . S
C1005 C1007 1.387 . S
H1006 C1013 0.950 . S
C1007 C1005 1.387 . S
C1007 C1009 1.390 . S
C1007 H1011 0.950 . S
H1008 C1004 0.950 . S
C1009 C1007 1.390 . S
C1009 C1010 1.387 . S
C1009 H1012 0.950 . S
C1010 C1009 1.387 . S
C1010 C1013 1.387 . S
H1011 C1007 0.950 . S
H1012 C1009 0.950 . S
C1013 C1004 1.390 . S
C1013 H1006 0.950 . S
C1013 C1010 1.387 . S
C1014 C1015 1.387 . S
C1014 H1018 0.950 . S
C1014 C1023 1.390 . S
C1015 C1014 1.387 . S
C1015 C1017 1.387 . S
H1016 C1023 0.950 . S
C1017 C1015 1.387 . S
C1017 C1019 1.390 . S
C1017 H1021 0.950 . S
H1018 C1014 0.950 . S
C1019 C1017 1.390 . S
C1019 C1020 1.387 . S
C1019 H1022 0.950 . S
C1020 C1019 1.387 . S
C1020 C1023 1.387 . S
H1021 C1017 0.950 . S
H1022 C1019 0.950 . S
C1023 C1014 1.390 . S
C1023 H1016 0.950 . S
C1023 C1020 1.387 . S
C1024 C1025 1.387 . S
C1024 H1028 0.950 . S
C1024 C1033 1.390 . S
C1025 C1024 1.387 . S
C1025 C1027 1.387 . S
H1026 C1033 0.950 . S
C1027 C1025 1.387 . S
C1027 C1029 1.390 . S
C1027 H1031 0.950 . S
H1028 C1024 0.950 . S
C1029 C1027 1.390 . S
C1029 C1030 1.387 . S
C1029 H1032 0.950 . S
C1030 C1029 1.387 . S
C1030 C1033 1.387 . S
H1031 C1027 0.950 . S
H1032 C1029 0.950 . S
C1033 C1024 1.390 . S
C1033 H1026 0.950 . S
C1033 C1030 1.387 . S
C1034 C1035 1.387 . S
C1034 H1038 0.950 . S
C1034 C1043 1.390 . S
C1035 C1034 1.387 . S
C1035 C1037 1.387 . S
H1036 C1043 0.950 . S
C1037 C1035 1.387 . S
C1037 C1039 1.390 . S
C1037 H1041 0.950 . S
H1038 C1034 0.950 . S
C1039 C1037 1.390 . S
C1039 C1040 1.387 . S
C1039 H1042 0.950 . S
C1040 C1039 1.387 . S
C1040 C1043 1.387 . S
H1041 C1037 0.950 . S
H1042 C1039 0.950 . S
C1043 C1034 1.390 . S
C1043 H1036 0.950 . S
C1043 C1040 1.387 . S
C1044 C1045 1.387 . S
C1044 H1048 0.950 . S
C1044 C1053 1.390 . S
C1045 C1044 1.387 . S
C1045 C1047 1.387 . S
H1046 C1053 0.950 . S
C1047 C1045 1.387 . S
C1047 C1049 1.390 . S
C1047 H1051 0.950 . S
H1048 C1044 0.950 . S
C1049 C1047 1.390 . S
C1049 C1050 1.387 . S
C1049 H1052 0.950 . S
C1050 C1049 1.387 . S
C1050 C1053 1.387 . S
H1051 C1047 0.950 . S
H1052 C1049 0.950 . S
C1053 C1044 1.390 . S
C1053 H1046 0.950 . S
C1053 C1050 1.387 . S
C1054 C1055 1.387 1_565 S
C1054 H1058 0.950 . S
C1054 C1063 1.390 . S
C1055 C1054 1.387 1_545 S
C1055 C1057 1.387 . S
H1056 C1063 0.962 . S
C1057 C1055 1.387 . S
C1057 C1059 1.390 . S
C1057 H1061 0.950 . S
H1058 C1054 0.950 . S
C1059 C1057 1.390 . S
C1059 C1060 1.387 . S
C1059 H1062 0.950 . S
C1060 C1059 1.387 . S
C1060 C1063 1.375 1_545 S
H1061 C1057 0.950 . S
H1062 C1059 0.950 . S
C1063 C1054 1.390 . S
C1063 H1056 0.962 . S
C1063 C1060 1.375 1_565 S
C1064 C1065 1.387 . S
C1064 H1068 0.950 1_655 S
C1064 C1073 1.390 1_655 S
C1065 C1064 1.387 . S
C1065 C1067 1.387 . S
H1066 C1073 0.950 . S
C1067 C1065 1.387 . S
C1067 C1069 1.390 . S
C1067 H1071 0.950 . S
H1068 C1064 0.950 1_455 S
C1069 C1067 1.390 . S
C1069 C1070 1.387 . S
C1069 H1072 0.950 . S
C1070 C1069 1.387 . S
C1070 C1073 1.387 1_655 S
H1071 C1067 0.950 . S
H1072 C1069 0.950 . S
C1073 C1064 1.390 1_455 S
C1073 H1066 0.950 . S
C1073 C1070 1.387 1_455 S
C1074 C1075 1.387 . S
C1074 H1078 0.950 . S
C1074 C1083 1.390 . S
C1075 C1074 1.387 . S
C1075 C1077 1.387 . S
H1076 C1083 0.950 . S
C1077 C1075 1.387 . S
C1077 C1079 1.390 . S
C1077 H1081 0.950 . S
H1078 C1074 0.950 . S
C1079 C1077 1.390 . S
C1079 C1080 1.387 . S
C1079 H1082 0.950 . S
C1080 C1079 1.387 . S
C1080 C1083 1.387 . S
H1081 C1077 0.950 . S
H1082 C1079 0.950 . S
C1083 C1074 1.390 . S
C1083 H1076 0.950 . S
C1083 C1080 1.387 . S
C1084 C1085 1.387 . S
C1084 H1088 0.950 . S
C1084 C1093 1.390 . S
C1085 C1084 1.387 . S
C1085 C1087 1.387 1_565 S
H1086 C1093 0.950 . S
C1087 C1085 1.387 1_545 S
C1087 C1089 1.390 1_545 S
C1087 H1091 0.950 . S
H1088 C1084 0.950 . S
C1089 C1087 1.390 1_565 S
C1089 C1090 1.387 . S
C1089 H1092 0.950 . S
C1090 C1089 1.387 . S
C1090 C1093 1.387 . S
H1091 C1087 0.950 . S
H1092 C1089 0.950 . S
C1093 C1084 1.390 . S
C1093 H1086 0.950 . S
C1093 C1090 1.387 . S
C1094 C1095 1.387 . S
C1094 H1098 0.950 . S
C1094 C1103 1.390 . S
C1095 C1094 1.387 . S
C1095 C1097 1.387 . S
H1096 C1103 0.950 . S
C1097 C1095 1.387 . S
C1097 C1099 1.390 1_455 S
C1097 H1101 0.950 1_455 S
H1098 C1094 0.950 . S
C1099 C1097 1.390 1_655 S
C1099 C1100 1.387 1_655 S
C1099 H1102 0.950 . S
C1100 C1099 1.387 1_455 S
C1100 C1103 1.387 . S
H1101 C1097 0.950 1_655 S
H1102 C1099 0.950 . S
C1103 C1094 1.390 . S
C1103 H1096 0.950 . S
C1103 C1100 1.387 . S
C1104 C1105 1.387 . S
C1104 H1108 0.950 . S
C1104 C1113 1.390 . S
C1105 C1104 1.387 . S
C1105 C1107 1.387 . S
H1106 C1113 0.950 . S
C1107 C1105 1.387 . S
C1107 C1109 1.390 . S
C1107 H1111 0.950 . S
H1108 C1104 0.950 . S
C1109 C1107 1.390 . S
C1109 C1110 1.387 . S
C1109 H1112 0.950 . S
C1110 C1109 1.387 . S
C1110 C1113 1.387 . S
H1111 C1107 0.950 . S
H1112 C1109 0.950 . S
C1113 C1104 1.390 . S
C1113 H1106 0.950 . S
C1113 C1110 1.387 . S
C1114 C1115 1.387 . S
C1114 H1118 0.950 . S
C1114 C1123 1.390 . S
C1115 C1114 1.387 . S
C1115 C1117 1.387 . S
H1116 C1123 0.950 . S
C1117 C1115 1.387 . S
C1117 C1119 1.390 1_565 S
C1117 H1121 0.950 . S
H1118 C1114 0.950 . S
C1119 C1117 1.390 1_545 S
C1119 C1120 1.394 . S
C1119 H1122 0.950 . S
C1120 C1119 1.394 . S
C1120 C1123 1.382 1_545 S
H1121 C1117 0.950 . S
H1122 C1119 0.950 . S
C1123 C1114 1.390 . S
C1123 H1116 0.950 . S
C1123 C1120 1.382 1_565 S
C1124 C1125 1.387 . S
C1124 H1128 0.950 . S
C1124 C1133 1.390 . S
C1125 C1124 1.387 . S
C1125 C1127 1.387 . S
H1126 C1133 0.950 1_655 S
C1127 C1125 1.387 . S
C1127 C1129 1.390 . S
C1127 H1131 0.950 . S
H1128 C1124 0.950 . S
C1129 C1127 1.390 . S
C1129 C1130 1.387 1_455 S
C1129 H1132 0.950 . S
C1130 C1129 1.387 1_655 S
C1130 C1133 1.387 1_655 S
H1131 C1127 0.950 . S
H1132 C1129 0.950 . S
C1133 C1124 1.390 . S
C1133 H1126 0.950 1_455 S
C1133 C1130 1.387 1_455 S
C1134 C1135 1.387 . S
C1134 H1138 0.950 . S
C1134 C1143 1.390 . S
C1135 C1134 1.387 . S
C1135 C1137 1.387 . S
H1136 C1143 0.950 . S
C1137 C1135 1.387 . S
C1137 C1139 1.390 . S
C1137 H1141 0.950 . S
H1138 C1134 0.950 . S
C1139 C1137 1.390 . S
C1139 C1140 1.387 . S
C1139 H1142 0.950 . S
C1140 C1139 1.387 . S
C1140 C1143 1.387 . S
H1141 C1137 0.950 . S
H1142 C1139 0.950 . S
C1143 C1134 1.390 . S
C1143 H1136 0.950 . S
C1143 C1140 1.387 . S
C1144 C1145 1.387 . S
C1144 H1148 0.950 . S
C1144 C1153 1.390 1_545 S
C1145 C1144 1.387 . S
C1145 C1147 1.387 . S
H1146 C1153 0.950 . S
C1147 C1145 1.387 . S
C1147 C1149 1.390 . S
C1147 H1151 0.950 . S
H1148 C1144 0.950 . S
C1149 C1147 1.390 . S
C1149 C1150 1.379 1_545 S
C1149 H1152 0.950 . S
C1150 C1149 1.379 1_565 S
C1150 C1153 1.387 . S
H1151 C1147 0.950 . S
H1152 C1149 0.950 . S
C1153 C1144 1.390 1_565 S
C1153 H1146 0.950 . S
C1153 C1150 1.387 . S
C1154 C1155 1.418 . S
C1154 H1158 0.950 . S
C1154 C1163 1.390 . S
C1155 C1154 1.418 . S
C1155 C1157 1.357 1_455 S
H1156 C1163 0.950 . S
C1157 C1155 1.357 1_655 S
C1157 C1159 1.390 . S
C1157 H1161 0.950 . S
H1158 C1154 0.950 . S
C1159 C1157 1.390 . S
C1159 C1160 1.387 . S
C1159 H1162 0.950 . S
C1160 C1159 1.387 . S
C1160 C1163 1.387 1_655 S
H1161 C1157 0.950 . S
H1162 C1159 0.950 . S
C1163 C1154 1.390 . S
C1163 H1156 0.950 . S
C1163 C1160 1.387 1_455 S
C1164 C1165 1.387 . S
C1164 H1168 0.950 . S
C1164 C1173 1.390 1_655 S
C1165 C1164 1.387 . S
C1165 C1167 1.387 . S
H1166 C1173 0.950 . S
C1167 C1165 1.387 . S
C1167 C1169 1.390 1_655 S
C1167 H1171 0.950 . S
H1168 C1164 0.950 . S
C1169 C1167 1.390 1_455 S
C1169 C1170 1.387 . S
C1169 H1172 0.950 . S
C1170 C1169 1.387 . S
C1170 C1173 1.387 . S
H1171 C1167 0.950 . S
H1172 C1169 0.950 . S
C1173 C1164 1.390 1_455 S
C1173 H1166 0.950 . S
C1173 C1170 1.387 . S
C1174 C1175 1.387 . S
C1174 H1178 0.950 . S
C1174 C1183 1.390 . S
C1175 C1174 1.387 . S
C1175 C1177 1.387 . S
H1176 C1183 0.950 . S
C1177 C1175 1.387 . S
C1177 C1179 1.390 . S
C1177 H1181 0.950 . S
H1178 C1174 0.950 . S
C1179 C1177 1.390 . S
C1179 C1180 1.387 . S
C1179 H1182 0.950 . S
C1180 C1179 1.387 . S
C1180 C1183 1.387 . S
H1181 C1177 0.950 . S
H1182 C1179 0.950 . S
C1183 C1174 1.390 . S
C1183 H1176 0.950 . S
C1183 C1180 1.387 . S
C1184 C1185 1.387 . S
C1184 H1188 0.950 . S
C1184 C1193 1.390 1_565 S
C1185 C1184 1.387 . S
C1185 C1187 1.387 . S
H1186 C1193 0.950 . S
C1187 C1185 1.387 . S
C1187 C1189 1.390 1_565 S
C1187 H1191 0.950 . S
H1188 C1184 0.950 . S
C1189 C1187 1.390 1_545 S
C1189 C1190 1.387 . S
C1189 H1192 0.950 . S
C1190 C1189 1.387 . S
C1190 C1193 1.387 . S
H1191 C1187 0.950 . S
H1192 C1189 0.950 . S
C1193 C1184 1.390 1_545 S
C1193 H1186 0.950 . S
C1193 C1190 1.387 . S
C1194 C1195 1.387 . S
C1194 H1198 0.950 . S
C1194 C1203 1.390 1_565 S
C1195 C1194 1.387 . S
C1195 C1197 1.387 . S
H1196 C1203 0.950 . S
C1197 C1195 1.387 . S
C1197 C1199 1.390 1_565 S
C1197 H1201 0.950 . S
H1198 C1194 0.950 . S
C1199 C1197 1.390 1_545 S
C1199 C1200 1.387 . S
C1199 H1202 0.950 . S
C1200 C1199 1.387 . S
C1200 C1203 1.387 . S
H1201 C1197 0.950 . S
H1202 C1199 0.950 . S
C1203 C1194 1.390 1_545 S
C1203 H1196 0.950 . S
C1203 C1200 1.387 . S
C1204 C1205 1.387 . S
C1204 H1208 0.950 . S
C1204 C1213 1.390 1_655 S
C1205 C1204 1.387 . S
C1205 C1207 1.387 . S
H1206 C1213 0.950 . S
C1207 C1205 1.387 . S
C1207 C1209 1.390 1_655 S
C1207 H1211 0.950 . S
H1208 C1204 0.950 . S
C1209 C1207 1.390 1_455 S
C1209 C1210 1.387 . S
C1209 H1212 0.950 . S
C1210 C1209 1.387 . S
C1210 C1213 1.387 . S
H1211 C1207 0.950 . S
H1212 C1209 0.950 . S
C1213 C1204 1.390 1_455 S
C1213 H1206 0.950 . S
C1213 C1210 1.387 . S
C1214 C1215 1.387 . S
C1214 H1218 0.950 . S
C1214 C1223 1.390 . S
C1215 C1214 1.387 . S
C1215 C1217 1.387 . S
H1216 C1223 0.950 . S
C1217 C1215 1.387 . S
C1217 C1219 1.390 . S
C1217 H1221 0.950 . S
H1218 C1214 0.950 . S
C1219 C1217 1.390 . S
C1219 C1220 1.387 . S
C1219 H1222 0.950 . S
C1220 C1219 1.387 . S
C1220 C1223 1.387 . S
H1221 C1217 0.950 . S
H1222 C1219 0.950 . S
C1223 C1214 1.390 . S
C1223 H1216 0.950 . S
C1223 C1220 1.387 . S
C505 C8 1.460 . S
C510 C260 1.452 . S
C515 C17 1.547 . S
C520 C273 1.573 . S
C525 C287 1.610 . S
C530 C31 1.552 . S
C535 C45 1.553 . S
C540 C469 1.610 . S
C545 C483 1.573 . S
C550 C59 1.547 . S
C555 C78 1.460 . S
C560 C498 1.452 . S
C565 C344 1.460 . S
C570 C92 1.452 . S
C575 C105 1.570 . S
C580 C353 1.545 . S
C585 C119 1.610 . S
C590 C367 1.552 . S
C595 C133 1.609 . S
C600 C213 1.553 . S
C605 C227 1.546 . S
C610 C147 1.572 . S
C615 C162 1.451 . S
C620 C246 1.460 . S
C625 C176 1.458 . S
C630 C428 1.449 . S
C635 C185 1.547 . S
C640 C441 1.573 . S
C645 C199 1.551 . S
C650 C455 1.608 . S
C655 C301 1.607 . S
C660 C381 1.549 . S
C665 C315 1.570 . S
C670 C395 1.547 . S
C675 C330 1.452 . S
C680 C414 1.461 . S
C685 C101 1.417 1_545 S
C690 C3 1.428 1_556 S
C695 C115 1.461 1_655 S
C700 C22 1.533 1_556 S
C705 C36 1.424 . S
C710 C93 1.335 . S
C715 C163 1.333 1_455 S
C720 C50 1.424 . S
C725 C129 1.459 . S
C730 C64 1.531 . S
C735 C143 1.416 1_565 S
C740 C73 1.425 . S
C745 C91 1.434 . S
C750 C21 1.401 1_565 S
C755 C106 1.526 . S
C760 C35 1.473 1_455 S
C765 C120 1.420 . S
C770 C9 1.354 . S
C775 C134 1.418 . S
C780 C79 1.351 1_655 S
C785 C49 1.475 . S
C790 C148 1.527 . S
C795 C63 1.402 1_545 S
C800 C161 1.436 . S
C805 C171 1.425 . S
C810 C269 1.416 . S
C815 C190 1.531 . S
C820 C283 1.459 . S
C825 C204 1.424 . S
C830 C261 1.335 . S
C835 C331 1.331 . S
C840 C218 1.423 . S
C845 C232 1.533 . S
C850 C297 1.460 . S
C855 C311 1.418 . S
C860 C241 1.426 . S
C865 C259 1.437 . S
C870 C189 1.404 . S
C875 C203 1.472 . S
C880 C274 1.526 . S
C885 C177 1.351 . S
C890 C288 1.417 . S
C895 C302 1.417 . S
C900 C247 1.352 . S
C905 C316 1.527 . S
C910 C217 1.476 . S
C915 C329 1.435 . S
C920 C231 1.403 . S
C925 C437 1.419 . S
C930 C339 1.429 . S
C935 C358 1.533 . S
C940 C451 1.461 . S
C945 C372 1.422 . S
C950 C429 1.331 . S
C955 C499 1.331 . S
C960 C386 1.423 . S
C965 C465 1.461 . S
C970 C400 1.533 . S
C975 C479 1.416 . S
C980 C409 1.426 . S
C985 C357 1.401 . S
C990 C427 1.436 . S
C995 C371 1.475 . S
C1000 C442 1.527 . S
C1005 C345 1.355 . S
C1010 C456 1.419 . S
C1015 C470 1.418 . S
C1020 C415 1.351 . S
C1025 C385 1.474 . S
C1030 C484 1.527 . S
C1035 C497 1.435 . S
C1040 C399 1.403 . S
C1045 C7 1.250 . S
C1050 C413 1.250 . S
C1055 C387 1.133 1_545 S
C1060 C23 1.136 . S
C1065 C37 1.135 . S
C1070 C401 1.135 1_655 S
C1075 C51 1.129 . S
C1080 C191 1.131 . S
C1085 C205 1.133 1_565 S
C1090 C65 1.132 . S
C1095 C77 1.249 . S
C1100 C175 1.249 1_455 S
C1105 C325 1.177 . S
C1110 C87 1.177 . S
C1115 C107 1.137 . S
C1120 C303 1.137 . S
C1125 C121 1.133 . S
C1130 C317 1.133 . S
C1135 C135 1.134 . S
C1140 C443 1.133 . S
C1145 C149 1.133 . S
C1150 C457 1.144 . S
C1155 C423 1.179 . S
C1160 C157 1.173 . S
C1165 C219 1.132 . S
C1170 C359 1.131 . S
C1175 C373 1.131 . S
C1180 C233 1.135 . S
C1185 C343 1.250 . S
C1190 C245 1.250 . S
C1195 C493 1.177 . S
C1200 C255 1.177 . S
C1205 C275 1.133 . S
C1210 C471 1.133 . S
C1215 C289 1.133 . S
C1220 C485 1.132 . S
