# Generated by pormake.
# Topology uns, (4)-cn, num edge types: 1
# Building blocks:
#     Node 0, Type 0, BuildingBlock: ICAMEG_clean_sbu_1, # of connection points: 4
#     Node 1, Type 0, BuildingBlock: ICAMEG_clean_sbu_1, # of connection points: 4
#     Node 2, Type 0, BuildingBlock: ICAMEG_clean_sbu_1, # of connection points: 4
#     Node 3, Type 0, BuildingBlock: ICAMEG_clean_sbu_1, # of connection points: 4
#     Node 4, Type 0, BuildingBlock: ICAMEG_clean_sbu_1, # of connection points: 4
#     Node 5, Type 0, BuildingBlock: ICAMEG_clean_sbu_1, # of connection points: 4
#     Node 6, Type 0, BuildingBlock: ICAMEG_clean_sbu_1, # of connection points: 4
#     Node 7, Type 0, BuildingBlock: ICAMEG_clean_sbu_1, # of connection points: 4
#     Node 8, Type 0, BuildingBlock: ICAMEG_clean_sbu_1, # of connection points: 4
#     Node 9, Type 0, BuildingBlock: ICAMEG_clean_sbu_1, # of connection points: 4
#     Node 10, Type 0, BuildingBlock: ICAMEG_clean_sbu_1, # of connection points: 4
#     Node 11, Type 0, BuildingBlock: ICAMEG_clean_sbu_1, # of connection points: 4
#     Node 12, Type 0, BuildingBlock: ICAMEG_clean_sbu_1, # of connection points: 4
#     Node 13, Type 0, BuildingBlock: ICAMEG_clean_sbu_1, # of connection points: 4
#     Node 14, Type 0, BuildingBlock: ICAMEG_clean_sbu_1, # of connection points: 4
#     Node 15, Type 0, BuildingBlock: ICAMEG_clean_sbu_1, # of connection points: 4
#     Node 16, Type 0, BuildingBlock: ICAMEG_clean_sbu_1, # of connection points: 4
#     Node 17, Type 0, BuildingBlock: ICAMEG_clean_sbu_1, # of connection points: 4
#     Node 18, Type 0, BuildingBlock: ICAMEG_clean_sbu_1, # of connection points: 4
#     Node 19, Type 0, BuildingBlock: ICAMEG_clean_sbu_1, # of connection points: 4
#     Node 20, Type 0, BuildingBlock: ICAMEG_clean_sbu_1, # of connection points: 4
#     Node 21, Type 0, BuildingBlock: ICAMEG_clean_sbu_1, # of connection points: 4
#     Node 22, Type 0, BuildingBlock: ICAMEG_clean_sbu_1, # of connection points: 4
#     Node 23, Type 0, BuildingBlock: ICAMEG_clean_sbu_1, # of connection points: 4
#     Node 24, Type 0, BuildingBlock: ICAMEG_clean_sbu_1, # of connection points: 4
#     Node 25, Type 0, BuildingBlock: ICAMEG_clean_sbu_1, # of connection points: 4
#     Node 26, Type 0, BuildingBlock: ICAMEG_clean_sbu_1, # of connection points: 4
#     Node 27, Type 0, BuildingBlock: ICAMEG_clean_sbu_1, # of connection points: 4
#     Node 28, Type 0, BuildingBlock: ICAMEG_clean_sbu_1, # of connection points: 4
#     Node 29, Type 0, BuildingBlock: ICAMEG_clean_sbu_1, # of connection points: 4
#     Node 30, Type 0, BuildingBlock: ICAMEG_clean_sbu_1, # of connection points: 4
#     Node 31, Type 0, BuildingBlock: ICAMEG_clean_sbu_1, # of connection points: 4
#     Node 32, Type 0, BuildingBlock: ICAMEG_clean_sbu_1, # of connection points: 4
#     Node 33, Type 0, BuildingBlock: ICAMEG_clean_sbu_1, # of connection points: 4
#     Node 34, Type 0, BuildingBlock: ICAMEG_clean_sbu_1, # of connection points: 4
#     Node 35, Type 0, BuildingBlock: ICAMEG_clean_sbu_1, # of connection points: 4
#     Edge 36, Type (0, 0), BuildingBlock: AJUNOK_clean_linker_0, # of connection points: 2
#     Edge 37, Type (0, 0), BuildingBlock: AJUNOK_clean_linker_0, # of connection points: 2
#     Edge 38, Type (0, 0), BuildingBlock: AJUNOK_clean_linker_0, # of connection points: 2
#     Edge 39, Type (0, 0), BuildingBlock: AJUNOK_clean_linker_0, # of connection points: 2
#     Edge 40, Type (0, 0), BuildingBlock: AJUNOK_clean_linker_0, # of connection points: 2
#     Edge 41, Type (0, 0), BuildingBlock: AJUNOK_clean_linker_0, # of connection points: 2
#     Edge 42, Type (0, 0), BuildingBlock: AJUNOK_clean_linker_0, # of connection points: 2
#     Edge 43, Type (0, 0), BuildingBlock: AJUNOK_clean_linker_0, # of connection points: 2
#     Edge 44, Type (0, 0), BuildingBlock: AJUNOK_clean_linker_0, # of connection points: 2
#     Edge 45, Type (0, 0), BuildingBlock: AJUNOK_clean_linker_0, # of connection points: 2
#     Edge 46, Type (0, 0), BuildingBlock: AJUNOK_clean_linker_0, # of connection points: 2
#     Edge 47, Type (0, 0), BuildingBlock: AJUNOK_clean_linker_0, # of connection points: 2
#     Edge 48, Type (0, 0), BuildingBlock: AJUNOK_clean_linker_0, # of connection points: 2
#     Edge 49, Type (0, 0), BuildingBlock: AJUNOK_clean_linker_0, # of connection points: 2
#     Edge 50, Type (0, 0), BuildingBlock: AJUNOK_clean_linker_0, # of connection points: 2
#     Edge 51, Type (0, 0), BuildingBlock: AJUNOK_clean_linker_0, # of connection points: 2
#     Edge 52, Type (0, 0), BuildingBlock: AJUNOK_clean_linker_0, # of connection points: 2
#     Edge 53, Type (0, 0), BuildingBlock: AJUNOK_clean_linker_0, # of connection points: 2
#     Edge 54, Type (0, 0), BuildingBlock: AJUNOK_clean_linker_0, # of connection points: 2
#     Edge 55, Type (0, 0), BuildingBlock: AJUNOK_clean_linker_0, # of connection points: 2
#     Edge 56, Type (0, 0), BuildingBlock: AJUNOK_clean_linker_0, # of connection points: 2
#     Edge 57, Type (0, 0), BuildingBlock: AJUNOK_clean_linker_0, # of connection points: 2
#     Edge 58, Type (0, 0), BuildingBlock: AJUNOK_clean_linker_0, # of connection points: 2
#     Edge 59, Type (0, 0), BuildingBlock: AJUNOK_clean_linker_0, # of connection points: 2
#     Edge 60, Type (0, 0), BuildingBlock: AJUNOK_clean_linker_0, # of connection points: 2
#     Edge 61, Type (0, 0), BuildingBlock: AJUNOK_clean_linker_0, # of connection points: 2
#     Edge 62, Type (0, 0), BuildingBlock: AJUNOK_clean_linker_0, # of connection points: 2
#     Edge 63, Type (0, 0), BuildingBlock: AJUNOK_clean_linker_0, # of connection points: 2
#     Edge 64, Type (0, 0), BuildingBlock: AJUNOK_clean_linker_0, # of connection points: 2
#     Edge 65, Type (0, 0), BuildingBlock: AJUNOK_clean_linker_0, # of connection points: 2
#     Edge 66, Type (0, 0), BuildingBlock: AJUNOK_clean_linker_0, # of connection points: 2
#     Edge 67, Type (0, 0), BuildingBlock: AJUNOK_clean_linker_0, # of connection points: 2
#     Edge 68, Type (0, 0), BuildingBlock: AJUNOK_clean_linker_0, # of connection points: 2
#     Edge 69, Type (0, 0), BuildingBlock: AJUNOK_clean_linker_0, # of connection points: 2
#     Edge 70, Type (0, 0), BuildingBlock: AJUNOK_clean_linker_0, # of connection points: 2
#     Edge 71, Type (0, 0), BuildingBlock: AJUNOK_clean_linker_0, # of connection points: 2
#     Edge 72, Type (0, 0), BuildingBlock: AJUNOK_clean_linker_0, # of connection points: 2
#     Edge 73, Type (0, 0), BuildingBlock: AJUNOK_clean_linker_0, # of connection points: 2
#     Edge 74, Type (0, 0), BuildingBlock: AJUNOK_clean_linker_0, # of connection points: 2
#     Edge 75, Type (0, 0), BuildingBlock: AJUNOK_clean_linker_0, # of connection points: 2
#     Edge 76, Type (0, 0), BuildingBlock: AJUNOK_clean_linker_0, # of connection points: 2
#     Edge 77, Type (0, 0), BuildingBlock: AJUNOK_clean_linker_0, # of connection points: 2
#     Edge 78, Type (0, 0), BuildingBlock: AJUNOK_clean_linker_0, # of connection points: 2
#     Edge 79, Type (0, 0), BuildingBlock: AJUNOK_clean_linker_0, # of connection points: 2
#     Edge 80, Type (0, 0), BuildingBlock: AJUNOK_clean_linker_0, # of connection points: 2
#     Edge 81, Type (0, 0), BuildingBlock: AJUNOK_clean_linker_0, # of connection points: 2
#     Edge 82, Type (0, 0), BuildingBlock: AJUNOK_clean_linker_0, # of connection points: 2
#     Edge 83, Type (0, 0), BuildingBlock: AJUNOK_clean_linker_0, # of connection points: 2
#     Edge 84, Type (0, 0), BuildingBlock: AJUNOK_clean_linker_0, # of connection points: 2
#     Edge 85, Type (0, 0), BuildingBlock: AJUNOK_clean_linker_0, # of connection points: 2
#     Edge 86, Type (0, 0), BuildingBlock: AJUNOK_clean_linker_0, # of connection points: 2
#     Edge 87, Type (0, 0), BuildingBlock: AJUNOK_clean_linker_0, # of connection points: 2
#     Edge 88, Type (0, 0), BuildingBlock: AJUNOK_clean_linker_0, # of connection points: 2
#     Edge 89, Type (0, 0), BuildingBlock: AJUNOK_clean_linker_0, # of connection points: 2
#     Edge 90, Type (0, 0), BuildingBlock: AJUNOK_clean_linker_0, # of connection points: 2
#     Edge 91, Type (0, 0), BuildingBlock: AJUNOK_clean_linker_0, # of connection points: 2
#     Edge 92, Type (0, 0), BuildingBlock: AJUNOK_clean_linker_0, # of connection points: 2
#     Edge 93, Type (0, 0), BuildingBlock: AJUNOK_clean_linker_0, # of connection points: 2
#     Edge 94, Type (0, 0), BuildingBlock: AJUNOK_clean_linker_0, # of connection points: 2
#     Edge 95, Type (0, 0), BuildingBlock: AJUNOK_clean_linker_0, # of connection points: 2
#     Edge 96, Type (0, 0), BuildingBlock: AJUNOK_clean_linker_0, # of connection points: 2
#     Edge 97, Type (0, 0), BuildingBlock: AJUNOK_clean_linker_0, # of connection points: 2
#     Edge 98, Type (0, 0), BuildingBlock: AJUNOK_clean_linker_0, # of connection points: 2
#     Edge 99, Type (0, 0), BuildingBlock: AJUNOK_clean_linker_0, # of connection points: 2
#     Edge 100, Type (0, 0), BuildingBlock: AJUNOK_clean_linker_0, # of connection points: 2
#     Edge 101, Type (0, 0), BuildingBlock: AJUNOK_clean_linker_0, # of connection points: 2
#     Edge 102, Type (0, 0), BuildingBlock: AJUNOK_clean_linker_0, # of connection points: 2
#     Edge 103, Type (0, 0), BuildingBlock: AJUNOK_clean_linker_0, # of connection points: 2
#     Edge 104, Type (0, 0), BuildingBlock: AJUNOK_clean_linker_0, # of connection points: 2
#     Edge 105, Type (0, 0), BuildingBlock: AJUNOK_clean_linker_0, # of connection points: 2
#     Edge 106, Type (0, 0), BuildingBlock: AJUNOK_clean_linker_0, # of connection points: 2
#     Edge 107, Type (0, 0), BuildingBlock: AJUNOK_clean_linker_0, # of connection points: 2
# Relax obj value: 0.028
# Max RMSD: 0.151
# Mean RMSD: 0.151
data_MOF--net-uns--node1-ICAMEG_clean_sbu_1--edge1-AJUNOK_clean_linker_0
_symmetry_space_group_name_H-M    P1
_symmetry_Int_Tables_number       1
_symmetry_cell_setting            triclinic
loop_
_symmetry_equiv_pos_as_xyz
'x, y, z'
_cell_length_a     42.953131
_cell_length_b     42.947131
_cell_length_c     48.623454
_cell_angle_alpha  90.032115
_cell_angle_beta   89.938434
_cell_angle_gamma 120.01445
loop_
_atom_site_label
_atom_site_type_symbol
_atom_site_fract_x
_atom_site_fract_y
_atom_site_fract_z
_atom_type_partial_charge
Co0 Co 0.24873 0.19074 0.0962 0.0
Co1 Co 0.28705 0.1993 0.03225 0.0
O2 O 0.26927 0.17491 0.06732 0.0
C3 C 0.30984 0.19013 0.12238 0.0
O4 O 0.32805 0.20852 0.10079 0.0
C5 C 0.23713 0.12281 0.01769 0.0
O6 O 0.21506 0.12251 0.03652 0.0
O7 O 0.2411 0.19913 0.0258 0.0
O8 O 0.22137 0.20226 0.06822 0.0
H9 H 0.31842 0.29789 0.96392 0.0
H10 H 0.2433 0.11931 0.10099 0.0
O11 O 0.2765 0.18018 0.12434 0.0
H12 H 0.11819 0.09455 0.09774 0.0
H13 H 0.1917 0.18014 0.18883 0.0
H14 H 0.23886 0.25363 0.10499 0.0
H15 H 0.1689 0.1569 0.09608 0.0
H16 H 0.2172 0.16117 0.15123 0.0
O17 O 0.26692 0.15151 0.01312 0.0
H18 H 0.28694 0.26049 0.00428 0.0
H19 H 0.32503 0.18898 0.98473 0.0
H20 H 0.21319 0.27344 0.14183 0.0
H21 H 0.1934 0.05657 0.10297 0.0
H22 H 0.18933 0.23653 0.18416 0.0
H23 H 0.13031 0.04388 0.10125 0.0
O24 O 0.28907 0.24113 0.09386 0.0
H25 H 0.36114 0.14299 0.05819 0.0
H26 H 0.36511 0.25526 0.03028 0.0
H27 H 0.42172 0.25569 0.03951 0.0
H28 H 0.41999 0.19919 0.05338 0.0
H29 H 0.3051 0.14386 0.04919 0.0
H30 H 0.35675 0.22548 0.94404 0.0
H31 H 0.35583 0.2819 0.93483 0.0
O32 O 0.30782 0.24777 0.05016 0.0
C33 C 0.2198 0.20315 0.04193 0.0
C34 C 0.31979 0.27388 0.96822 0.0
C35 C 0.34132 0.23324 0.95707 0.0
N36 N 0.30501 0.22321 0.99724 0.0
C37 C 0.30193 0.25254 0.99097 0.0
C38 C 0.3231 0.21255 0.98001 0.0
C39 C 0.34043 0.26465 0.95169 0.0
C40 C 0.21592 0.11402 0.10055 0.0
N41 N 0.20901 0.14173 0.09855 0.0
C42 C 0.18777 0.07843 0.10154 0.0
C43 C 0.15238 0.07132 0.10052 0.0
C44 C 0.14556 0.09974 0.09852 0.0
C45 C 0.17438 0.13498 0.09751 0.0
C46 C 0.20169 0.19628 0.17038 0.0
C47 C 0.22789 0.23711 0.12307 0.0
C48 C 0.21609 0.18564 0.14901 0.0
N49 N 0.22847 0.20573 0.12556 0.0
C50 C 0.21369 0.24861 0.144 0.0
C51 C 0.20038 0.22793 0.16776 0.0
C52 C 0.30814 0.26053 0.07392 0.0
C53 C 0.36225 0.16773 0.052 0.0
C54 C 0.36405 0.23063 0.03652 0.0
C55 C 0.39624 0.231 0.0416 0.0
C56 C 0.39526 0.19929 0.04935 0.0
N57 N 0.33176 0.1995 0.03898 0.0
C58 C 0.3306 0.16836 0.04675 0.0
Co59 Co 0.82116 0.05667 0.09562 0.0
Co60 Co 0.81429 0.09215 0.03373 0.0
O61 O 0.83775 0.09543 0.06877 0.0
C62 C 0.82149 0.11638 0.1257 0.0
O63 O 0.80372 0.11863 0.10458 0.0
C64 C 0.89027 0.11687 0.01932 0.0
O65 O 0.88834 0.09222 0.0363 0.0
O66 O 0.81331 0.04632 0.02459 0.0
O67 O 0.81082 0.02057 0.06561 0.0
H68 H 0.71754 0.03374 0.96252 0.0
H69 H 0.89225 0.12216 0.10379 0.0
O70 O 0.83081 0.09243 0.12587 0.0
H71 H 0.91749 0.02251 0.09492 0.0
H72 H 0.82696 1.00226 0.18579 0.0
H73 H 0.75999 0.98193 0.0991 0.0
H74 H 0.85522 0.01095 0.09249 0.0
H75 H 0.84763 0.05007 0.15071 0.0
O76 O 0.86278 0.12033 0.01546 0.0
H77 H 0.75281 0.03453 0.00288 0.0
H78 H 0.82794 0.14489 0.98911 0.0
H79 H 0.73853 0.93323 0.13346 0.0
H80 H 0.95481 0.13479 0.10697 0.0
H81 H 0.77208 0.94327 0.17721 0.0
H82 H 0.96778 0.0848 0.10231 0.0
O83 O 0.77091 0.04682 0.09327 0.0
H84 H 0.87244 0.22016 0.06654 0.0
H85 H 0.75969 0.11596 0.03396 0.0
H86 H 0.76038 0.17188 0.04665 0.0
H87 H 0.8171 0.22456 0.06295 0.0
H88 H 0.87049 0.16358 0.05395 0.0
H89 H 0.79375 0.14526 0.94854 0.0
H90 H 0.73672 0.09022 0.93644 0.0
O91 O 0.76515 0.06385 0.0509 0.0
C92 C 0.80998 0.02012 0.03929 0.0
C93 C 0.74188 0.05818 0.96812 0.0
C94 C 0.78466 0.12079 0.96026 0.0
N95 N 0.79168 0.08997 0.99879 0.0
C96 C 0.76194 0.05877 0.9909 0.0
C97 C 0.804 0.12034 0.98315 0.0
C98 C 0.75289 0.08972 0.95323 0.0
C99 C 0.89762 0.10018 0.10212 0.0
N100 N 0.8701 0.06584 0.09811 0.0
C101 C 0.93311 0.10752 0.10382 0.0
C102 C 0.94038 0.07947 0.10116 0.0
C103 C 0.91218 0.04452 0.09697 0.0
C104 C 0.87699 0.03816 0.0955 0.0
C105 C 0.81215 0.99752 0.16679 0.0
C106 C 0.7749 0.98638 0.11798 0.0
C107 C 0.82369 0.02452 0.14689 0.0
N108 N 0.8052 0.01867 0.1228 0.0
C109 C 0.76255 0.95876 0.1374 0.0
C110 C 0.78137 0.96443 0.16196 0.0
C111 C 0.75196 0.04901 0.07406 0.0
C112 C 0.84761 0.19745 0.05935 0.0
C113 C 0.78444 0.13866 0.04119 0.0
C114 C 0.78469 0.17031 0.04826 0.0
C115 C 0.81652 0.19987 0.05738 0.0
N116 N 0.8151 0.13655 0.04302 0.0
C117 C 0.84638 0.16539 0.05205 0.0
Co118 Co 0.9511 0.76515 0.09388 0.0
Co119 Co 0.91984 0.72277 0.0313 0.0
O120 O 0.91401 0.74232 0.06583 0.0
C121 C 0.89095 0.70406 0.12206 0.0
O122 O 0.89101 0.68518 0.10087 0.0
C123 C 0.89469 0.77313 0.01533 0.0
O124 O 0.91763 0.79572 0.03333 0.0
O125 O 0.96557 0.76816 0.02335 0.0
O126 O 0.98862 0.7922 0.06487 0.0
H127 H 0.98379 0.68542 0.9643 0.0
H128 H 0.88378 0.76809 0.09878 0.0
O129 O 0.91387 0.73766 0.12307 0.0
H130 H 0.98115 0.89444 0.09273 0.0
H131 H 0.99875 0.82433 0.18559 0.0
H132 H 0.02659 0.78177 0.09986 0.0
H133 H 0.99491 0.84512 0.09206 0.0
H134 H 0.95309 0.79627 0.14906 0.0
O135 O 0.89213 0.7425 0.01167 0.0
H136 H 0.97968 0.71926 0.00384 0.0
H137 H 0.87058 0.68399 0.98464 0.0
H138 H 0.07315 0.80991 0.13572 0.0
H139 H 0.86883 0.81656 0.09973 0.0
H140 H 0.05932 0.8314 0.17898 0.0
H141 H 0.91771 0.88026 0.0966 0.0
O142 O 0.96278 0.72594 0.0924 0.0
H143 H 0.79007 0.65049 0.05961 0.0
H144 H 0.89752 0.64471 0.03183 0.0
H145 H 0.84147 0.58871 0.04296 0.0
H146 H 0.78717 0.59137 0.05682 0.0
H147 H 0.8468 0.70591 0.04865 0.0
H148 H 0.87367 0.65031 0.94461 0.0
H149 H 0.92979 0.64879 0.93557 0.0
O150 O 0.94782 0.70279 0.04987 0.0
C151 C 0.99053 0.79166 0.03859 0.0
C152 C 0.95892 0.68518 0.96851 0.0
C153 C 0.89711 0.6655 0.95744 0.0
N154 N 0.9247 0.70286 0.99688 0.0
C155 C 0.95645 0.70429 0.99083 0.0
C156 C 0.89563 0.68487 0.97997 0.0
C157 C 0.92873 0.66497 0.95217 0.0
C158 C 0.90522 0.79576 0.09771 0.0
N159 N 0.94018 0.80379 0.09551 0.0
C160 C 0.89658 0.82308 0.09814 0.0
C161 C 0.92402 0.85881 0.09633 0.0
C162 C 0.95962 0.86679 0.09413 0.0
C163 C 0.96724 0.83876 0.09371 0.0
C164 C 1.00513 0.81518 0.1668 0.0
C165 C 0.0205 0.79136 0.11851 0.0
C166 C 0.97939 0.79925 0.14607 0.0
N167 N 0.98734 0.78779 0.12224 0.0
C168 C 0.04691 0.80714 0.1388 0.0
C169 C 0.03912 0.81915 0.16307 0.0
C170 C 0.96171 0.70494 0.07347 0.0
C171 C 0.8135 0.64898 0.05344 0.0
C172 C 0.87408 0.64614 0.03798 0.0
C173 C 0.84237 0.61431 0.04417 0.0
C174 C 0.8119 0.61581 0.05192 0.0
N175 N 0.87538 0.67858 0.03936 0.0
C176 C 0.84566 0.68026 0.04708 0.0
Co177 Co 0.19476 0.24623 0.40674 0.0
Co178 Co 0.20246 0.28905 0.46848 0.0
O179 O 0.1788 0.26876 0.43369 0.0
C180 C 0.19628 0.30677 0.37755 0.0
O181 O 0.21465 0.3257 0.39888 0.0
C182 C 0.12754 0.23716 0.48557 0.0
O183 O 0.13073 0.21229 0.47229 0.0
O184 O 0.20314 0.24399 0.47771 0.0
O185 O 0.20447 0.21991 0.43668 0.0
H186 H 0.29902 0.32679 0.53976 0.0
H187 H 0.12416 0.24212 0.39994 0.0
O188 O 0.18572 0.27319 0.37671 0.0
H189 H 0.09682 0.1164 0.40744 0.0
H190 H 0.18767 0.18647 0.31607 0.0
H191 H 0.25453 0.23058 0.40309 0.0
H192 H 0.15956 0.16638 0.40895 0.0
H193 H 0.16815 0.21447 0.35134 0.0
O194 O 0.15376 0.26944 0.4863 0.0
H195 H 0.26354 0.29234 0.49946 0.0
H196 H 0.18935 0.32879 0.51298 0.0
H197 H 0.27484 0.2025 0.36851 0.0
H198 H 0.06105 0.19297 0.39813 0.0
H199 H 0.24131 0.18023 0.32462 0.0
H200 H 0.04707 0.12958 0.40196 0.0
O201 O 0.24546 0.28588 0.40916 0.0
H202 H 0.14556 0.36008 0.43571 0.0
H203 H 0.25772 0.36728 0.46813 0.0
H204 H 0.25768 0.42289 0.4557 0.0
H205 H 0.20123 0.41954 0.43957 0.0
H206 H 0.14687 0.30505 0.44797 0.0
H207 H 0.22378 0.36337 0.55353 0.0
H208 H 0.28046 0.36464 0.56578 0.0
O209 O 0.25156 0.30926 0.45138 0.0
C210 C 0.20579 0.22066 0.46301 0.0
C211 C 0.27487 0.32722 0.5341 0.0
C212 C 0.23263 0.34774 0.54184 0.0
N213 N 0.22513 0.30952 0.50343 0.0
C214 C 0.25467 0.30773 0.51136 0.0
C215 C 0.21313 0.32793 0.51899 0.0
C216 C 0.26422 0.34811 0.54891 0.0
C217 C 0.11829 0.21459 0.40136 0.0
N218 N 0.14549 0.20709 0.40437 0.0
C219 C 0.08251 0.18688 0.40043 0.0
C220 C 0.07468 0.15132 0.40262 0.0
C221 C 0.10258 0.14391 0.4057 0.0
C222 C 0.13804 0.17231 0.40659 0.0
C223 C 0.20243 0.19596 0.33515 0.0
C224 C 0.23962 0.22064 0.38415 0.0
C225 C 0.19153 0.21187 0.35517 0.0
N226 N 0.20995 0.22375 0.37936 0.0
C227 C 0.25133 0.20491 0.3646 0.0
C228 C 0.23253 0.19246 0.33996 0.0
C229 C 0.26462 0.30704 0.42832 0.0
C230 C 0.17026 0.3619 0.44289 0.0
C231 C 0.2331 0.36552 0.46094 0.0
C232 C 0.23321 0.39715 0.45403 0.0
C233 C 0.20152 0.39525 0.44502 0.0
N234 N 0.20223 0.33291 0.45905 0.0
C235 C 0.17113 0.33084 0.44999 0.0
Co236 Co 0.76933 0.95228 0.40657 0.0
Co237 Co 0.73013 0.92255 0.47029 0.0
O238 O 0.74849 0.91595 0.43546 0.0
C239 C 0.70874 0.89042 0.38004 0.0
O240 O 0.69026 0.89069 0.40143 0.0
C241 C 0.78018 0.89665 0.48572 0.0
O242 O 0.80248 0.9187 0.46714 0.0
O243 O 0.77595 0.96843 0.47701 0.0
O244 O 0.79625 0.99118 0.43464 0.0
H245 H 0.6965 0.98942 0.53713 0.0
H246 H 0.77499 0.88637 0.40233 0.0
O247 O 0.74207 0.91387 0.37829 0.0
H248 H 0.89997 0.98698 0.40618 0.0
H249 H 0.8275 0.99874 0.31429 0.0
H250 H 0.77927 0.02501 0.39758 0.0
H251 H 0.84915 0.99847 0.4072 0.0
H252 H 0.8016 0.95428 0.35184 0.0
O253 O 0.75008 0.89505 0.48985 0.0
H254 H 0.72994 0.98388 0.49796 0.0
H255 H 0.69112 0.87416 0.51754 0.0
H256 H 0.80533 0.07049 0.36077 0.0
H257 H 0.825 0.87368 0.40101 0.0
H258 H 0.82972 0.05746 0.31872 0.0
H259 H 0.88802 0.92421 0.40302 0.0
O260 O 0.72887 0.96222 0.40847 0.0
H261 H 0.65678 0.79204 0.44426 0.0
H262 H 0.65197 0.90024 0.47121 0.0
H263 H 0.59563 0.84395 0.46153 0.0
H264 H 0.59778 0.78922 0.44815 0.0
H265 H 0.71256 0.84907 0.4537 0.0
H266 H 0.65725 0.8785 0.55696 0.0
H267 H 0.65739 0.93566 0.56532 0.0
O268 O 0.70955 0.95011 0.45202 0.0
C269 C 0.79749 0.99368 0.46094 0.0
C270 C 0.69539 0.9641 0.5331 0.0
C271 C 0.67334 0.90182 0.54422 0.0
N272 N 0.71154 0.92846 0.50502 0.0
C273 C 0.7144 0.96084 0.51106 0.0
C274 C 0.69279 0.89961 0.52202 0.0
C275 C 0.6738 0.93402 0.54915 0.0
C276 C 0.80235 0.90851 0.40291 0.0
N277 N 0.80916 0.94312 0.4047 0.0
C278 C 0.83055 0.90116 0.40228 0.0
C279 C 0.8659 0.92952 0.40347 0.0
C280 C 0.87262 0.96474 0.40527 0.0
C281 C 0.84375 0.97108 0.40591 0.0
C282 C 0.81727 1.00488 0.33261 0.0
C283 C 0.79046 0.01948 0.37962 0.0
C284 C 0.80264 0.97984 0.35396 0.0
N285 N 0.78994 0.98753 0.37726 0.0
C286 C 0.80489 0.04518 0.35871 0.0
C287 C 0.81849 0.03781 0.33511 0.0
C288 C 0.70952 0.96254 0.42822 0.0
C289 C 0.65549 0.81565 0.45024 0.0
C290 C 0.65322 0.87668 0.46518 0.0
C291 C 0.62118 0.8448 0.45985 0.0
C292 C 0.62239 0.8141 0.45238 0.0
N293 N 0.6856 0.87794 0.46326 0.0
C294 C 0.68698 0.84798 0.45575 0.0
Co295 Co 0.06189 0.81915 0.40638 0.0
Co296 Co 0.09312 0.81117 0.46974 0.0
O297 O 0.09871 0.83576 0.43487 0.0
C298 C 0.12472 0.82345 0.37819 0.0
O299 O 0.12665 0.80527 0.39917 0.0
C300 C 0.11758 0.88695 0.48511 0.0
O301 O 0.09512 0.88662 0.46667 0.0
O302 O 0.04674 0.80996 0.47699 0.0
O303 O 0.02305 0.80575 0.43482 0.0
H304 H 0.02918 0.71118 0.53763 0.0
H305 H 0.12594 0.89199 0.40168 0.0
O306 O 0.10008 0.8318 0.37759 0.0
H307 H 0.02226 0.91142 0.40723 0.0
H308 H 0.0121 0.82848 0.31499 0.0
H309 H 0.99028 0.7545 0.398 0.0
H310 H 0.01325 0.85002 0.40801 0.0
H311 H 0.05727 0.84879 0.35206 0.0
O312 O 0.12 0.85888 0.48911 0.0
H313 H 0.03315 0.74891 0.49803 0.0
H314 H 0.14261 0.82236 0.51649 0.0
H315 H 0.94409 0.73334 0.36168 0.0
H316 H 0.13614 0.95382 0.40053 0.0
H317 H 0.95487 0.77047 0.31976 0.0
H318 H 0.08407 0.96384 0.40342 0.0
O319 O 0.05422 0.76958 0.40796 0.0
H320 H 0.2233 0.87061 0.4423 0.0
H321 H 0.11705 0.75659 0.47041 0.0
H322 H 0.17383 0.75783 0.46007 0.0
H323 H 0.22755 0.81519 0.44604 0.0
H324 H 0.16582 0.86809 0.45247 0.0
H325 H 0.13981 0.78554 0.55636 0.0
H326 H 0.08359 0.728 0.56564 0.0
O327 O 0.06614 0.76272 0.45163 0.0
C328 C 0.02089 0.80499 0.46112 0.0
C329 C 0.05412 0.73567 0.53324 0.0
C330 C 0.11622 0.7774 0.54375 0.0
N331 N 0.08835 0.78714 0.50451 0.0
C332 C 0.05648 0.7572 0.51094 0.0
C333 C 0.11755 0.79827 0.52129 0.0
C334 C 0.08456 0.74535 0.54917 0.0
C335 C 0.10312 0.89612 0.40263 0.0
N336 N 0.06904 0.86743 0.40479 0.0
C337 C 0.10908 0.9312 0.4021 0.0
C338 C 0.07985 0.9368 0.40378 0.0
C339 C 0.04517 0.9074 0.40595 0.0
C340 C 0.04024 0.8727 0.40647 0.0
C341 C 1.00695 0.81218 0.33323 0.0
C342 C 0.99488 0.77105 0.38005 0.0
C343 C 0.03243 0.82355 0.35429 0.0
N344 N 0.02601 0.80324 0.37748 0.0
C345 C 0.96876 0.75882 0.35945 0.0
C346 C 0.97486 0.77963 0.33592 0.0
C347 C 0.05429 0.75016 0.42772 0.0
C348 C 0.20012 0.84549 0.44851 0.0
C349 C 0.14018 0.78161 0.46413 0.0
C350 C 0.17233 0.78217 0.4584 0.0
C351 C 0.20247 0.81437 0.45056 0.0
N352 N 0.13813 0.8123 0.46224 0.0
C353 C 0.16754 0.84393 0.45444 0.0
Co354 Co 0.76695 0.82025 0.90553 0.0
Co355 Co 0.72716 0.81123 0.96901 0.0
O356 O 0.74616 0.83601 0.93418 0.0
C357 C 0.70627 0.82113 0.8787 0.0
O358 O 0.68783 0.80292 0.90027 0.0
C359 C 0.77862 0.88694 0.98386 0.0
O360 O 0.80081 0.88544 0.96605 0.0
O361 O 0.7723 0.80997 0.97609 0.0
O362 O 0.79368 0.80839 0.93391 0.0
H363 H 0.68775 0.7094 0.03557 0.0
H364 H 0.77285 0.89179 0.89996 0.0
O365 O 0.73963 0.83103 0.87703 0.0
H366 H 0.89769 0.91598 0.90471 0.0
H367 H 0.82511 0.83082 0.81342 0.0
H368 H 0.77652 0.75716 0.89703 0.0
H369 H 0.84674 0.85378 0.90684 0.0
H370 H 0.79936 0.84993 0.85074 0.0
O371 O 0.74803 0.85911 0.98829 0.0
H372 H 0.72277 0.74747 0.99646 0.0
H373 H 0.6904 0.82341 0.01631 0.0
H374 H 0.80242 0.73719 0.86045 0.0
H375 H 0.82299 0.95431 0.89702 0.0
H376 H 0.82699 0.77419 0.81825 0.0
H377 H 0.88594 0.96675 0.89963 0.0
O378 O 0.72645 0.7701 0.90754 0.0
H379 H 0.656 0.87036 0.94207 0.0
H380 H 0.64876 0.75645 0.96967 0.0
H381 H 0.59305 0.75749 0.95961 0.0
H382 H 0.59644 0.8148 0.94587 0.0
H383 H 0.71111 0.86807 0.95194 0.0
H384 H 0.6555 0.78648 0.05588 0.0
H385 H 0.65162 0.72763 0.06416 0.0
O386 O 0.70588 0.76282 0.95083 0.0
C387 C 0.79421 0.80652 0.96023 0.0
C388 C 0.68845 0.73454 0.03163 0.0
C389 C 0.67039 0.77785 0.04306 0.0
N390 N 0.70779 0.78707 0.00372 0.0
C391 C 0.70826 0.75621 0.00956 0.0
C392 C 0.69046 0.79879 0.02078 0.0
C393 C 0.66861 0.74503 0.04794 0.0
C394 C 0.80017 0.89695 0.90071 0.0
N395 N 0.80687 0.86917 0.9034 0.0
C396 C 0.82845 0.93241 0.89915 0.0
C397 C 0.86377 0.93937 0.90066 0.0
C398 C 0.87037 0.9109 0.90357 0.0
C399 C 0.84142 0.87576 0.9049 0.0
C400 C 0.81482 0.81464 0.83182 0.0
C401 C 0.78781 0.77371 0.879 0.0
C402 C 0.80028 0.82536 0.85304 0.0
N403 N 0.7875 0.80521 0.87643 0.0
C404 C 0.80214 0.76213 0.85823 0.0
C405 C 0.81584 0.78286 0.83453 0.0
C406 C 0.70638 0.75062 0.92701 0.0
C407 C 0.65417 0.84528 0.9482 0.0
C408 C 0.65052 0.78147 0.96355 0.0
C409 C 0.61885 0.78191 0.95797 0.0
C410 C 0.62076 0.81408 0.95029 0.0
N411 N 0.68321 0.81225 0.96166 0.0
C412 C 0.68528 0.84384 0.95396 0.0
Co413 Co 0.19357 0.95044 0.9068 0.0
Co414 Co 0.20028 0.91706 0.96964 0.0
O415 O 0.17641 0.91279 0.93462 0.0
C416 C 0.19017 0.88856 0.87783 0.0
O417 O 0.20793 0.88614 0.8989 0.0
C418 C 0.12455 0.89338 0.98417 0.0
O419 O 0.12661 0.91769 0.96676 0.0
O420 O 0.20197 0.96355 0.97769 0.0
O421 O 0.20603 0.98823 0.93592 0.0
H422 H 0.29916 0.97692 0.03892 0.0
H423 H 0.12104 0.88644 0.90006 0.0
O424 O 0.18184 0.91321 0.87742 0.0
H425 H 0.1009 0.98956 0.90718 0.0
H426 H 0.1863 1.00299 0.81609 0.0
H427 H 0.25837 0.02231 0.8998 0.0
H428 H 0.1623 0.99871 0.90929 0.0
H429 H 0.16518 0.9567 0.85239 0.0
O430 O 0.15198 0.88989 0.98835 0.0
H431 H 0.26257 0.97539 0.99925 0.0
H432 H 0.18694 0.8658 0.01543 0.0
H433 H 0.28035 0.06958 0.86425 0.0
H434 H 0.05931 0.87621 0.8971 0.0
H435 H 0.24418 0.06006 0.82199 0.0
H436 H 0.0489 0.92795 0.90091 0.0
O437 O 0.24311 0.95825 0.90881 0.0
H438 H 0.14033 0.78775 0.93973 0.0
H439 H 0.25425 0.89239 0.97 0.0
H440 H 0.25263 0.83567 0.95865 0.0
H441 H 0.19532 0.78276 0.94353 0.0
H442 H 0.14321 0.84514 0.95095 0.0
H443 H 0.22254 0.86616 0.05532 0.0
H444 H 0.28058 0.92111 0.06571 0.0
O445 O 0.24924 0.94429 0.95208 0.0
C446 C 0.20673 0.98973 0.96226 0.0
C447 C 0.27443 0.95249 0.03401 0.0
C448 C 0.23141 0.89031 0.04322 0.0
N449 N 0.22336 0.92024 0.00457 0.0
C450 C 0.25357 0.9515 0.01166 0.0
C451 C 0.21125 0.89036 0.02075 0.0
C452 C 0.26376 0.92131 0.04929 0.0
C453 C 0.11679 0.90916 0.90133 0.0
N454 N 0.14526 0.94315 0.9047 0.0
C455 C 0.08175 0.90318 0.89977 0.0
C456 C 0.07593 0.93223 0.90195 0.0
C457 C 0.10509 0.96679 0.90552 0.0
C458 C 0.13978 0.97178 0.90685 0.0
C459 C 0.20218 0.0076 0.8345 0.0
C460 C 0.24222 0.01826 0.88171 0.0
C461 C 0.19033 0.98149 0.85513 0.0
N462 N 0.2101 0.98722 0.87853 0.0
C463 C 0.25493 0.04499 0.86154 0.0
C464 C 0.23465 0.0396 0.83782 0.0
C465 C 0.26219 0.9572 0.92842 0.0
C466 C 0.16542 0.81057 0.94642 0.0
C467 C 0.22925 0.8696 0.96326 0.0
C468 C 0.22847 0.83749 0.95696 0.0
C469 C 0.1963 0.80781 0.94849 0.0
N470 N 0.19878 0.87206 0.96135 0.0
C471 C 0.16718 0.8431 0.95294 0.0
Co472 Co 0.06321 0.24495 0.90917 0.0
Co473 Co 0.09473 0.28761 0.97162 0.0
O474 O 0.10033 0.26774 0.93719 0.0
C475 C 0.12356 0.30587 0.88104 0.0
O476 O 0.12342 0.32477 0.90219 0.0
C477 C 0.11906 0.23676 0.98774 0.0
O478 O 0.09588 0.21425 0.96984 0.0
O479 O 0.04879 0.24248 0.97967 0.0
O480 O 0.0257 0.21806 0.93823 0.0
H481 H 0.0319 0.32731 0.03764 0.0
H482 H 0.13041 0.24176 0.90436 0.0
O483 O 0.10051 0.27231 0.87997 0.0
H484 H 0.03276 0.11555 0.91052 0.0
H485 H 0.01545 0.18568 0.81751 0.0
H486 H 0.98774 0.22842 0.90321 0.0
H487 H 0.0192 0.165 0.91107 0.0
H488 H 0.06114 0.21373 0.85402 0.0
O489 O 0.12207 0.2676 0.99134 0.0
H490 H 0.03522 0.29183 0.99898 0.0
H491 H 0.14418 0.32651 0.01817 0.0
H492 H 0.94116 0.20028 0.86736 0.0
H493 H 0.14517 0.19315 0.90354 0.0
H494 H 0.95491 0.17871 0.82412 0.0
H495 H 0.09614 0.12952 0.90673 0.0
O496 O 0.05164 0.28426 0.91059 0.0
H497 H 0.22472 0.35886 0.94368 0.0
H498 H 0.11765 0.36583 0.97062 0.0
H499 H 0.17405 0.4215 0.95957 0.0
H500 H 0.22816 0.41826 0.94616 0.0
H501 H 0.16764 0.30377 0.9545 0.0
H502 H 0.14189 0.36185 0.05734 0.0
H503 H 0.08627 0.36457 0.06584 0.0
O504 O 0.06704 0.30779 0.95298 0.0
C505 C 0.02382 0.21884 0.96451 0.0
C506 C 0.05657 0.32709 0.03362 0.0
C507 C 0.11831 0.34645 0.0447 0.0
N508 N 0.09012 0.30792 0.00593 0.0
C509 C 0.05859 0.30702 0.01181 0.0
C510 C 0.11933 0.3261 0.02268 0.0
C511 C 0.08699 0.34769 0.04963 0.0
C512 C 0.10891 0.21412 0.90545 0.0
N513 N 0.07398 0.2062 0.90761 0.0
C514 C 0.11744 0.18672 0.9051 0.0
C515 C 0.08992 0.15102 0.90694 0.0
C516 C 0.05435 0.14317 0.90909 0.0
C517 C 0.04684 0.17127 0.90944 0.0
C518 C 0.00909 0.19488 0.83629 0.0
C519 C 0.9938 0.21879 0.88456 0.0
C520 C 0.03486 0.21081 0.85701 0.0
N521 N 0.02694 0.22232 0.88083 0.0
C522 C 0.96737 0.20302 0.86429 0.0
C523 C 0.97513 0.19096 0.84002 0.0
C524 C 0.05295 0.30545 0.92945 0.0
C525 C 0.20137 0.36063 0.94965 0.0
C526 C 0.141 0.36413 0.96463 0.0
C527 C 0.17291 0.39578 0.9585 0.0
C528 C 0.20328 0.39395 0.95101 0.0
N529 N 0.1394 0.33154 0.96345 0.0
C530 C 0.16901 0.32953 0.95594 0.0
Co531 Co 0.82244 0.76424 0.59439 0.0
Co532 Co 0.8107 0.72405 0.53084 0.0
O533 O 0.8365 0.74238 0.56535 0.0
C534 C 0.82257 0.70301 0.6211 0.0
O535 O 0.80342 0.68443 0.5999 0.0
C536 C 0.8865 0.77354 0.51489 0.0
O537 O 0.88658 0.79608 0.53317 0.0
O538 O 0.81127 0.77016 0.52413 0.0
O539 O 0.81085 0.79165 0.56644 0.0
H540 H 0.70876 0.69049 0.46545 0.0
H541 H 0.89325 0.76812 0.59767 0.0
O542 O 0.83319 0.73656 0.62256 0.0
H543 H 0.92057 0.89405 0.59356 0.0
H544 H 0.83699 0.8234 0.6866 0.0
H545 H 0.7611 0.77629 0.60395 0.0
H546 H 0.85773 0.84422 0.59339 0.0
H547 H 0.85404 0.79646 0.64881 0.0
O548 O 0.85793 0.74343 0.51083 0.0
H549 H 0.74788 0.72293 0.50478 0.0
H550 H 0.81932 0.68559 0.48288 0.0
H551 H 0.7432 0.8034 0.64101 0.0
H552 H 0.95646 0.81713 0.59814 0.0
H553 H 0.78132 0.82722 0.68274 0.0
H554 H 0.97044 0.88063 0.59598 0.0
O555 O 0.77175 0.72449 0.59323 0.0
H556 H 0.86633 0.64912 0.55609 0.0
H557 H 0.7539 0.6463 0.53045 0.0
H558 H 0.7529 0.58946 0.54011 0.0
H559 H 0.80945 0.59063 0.55288 0.0
H560 H 0.86608 0.7054 0.54665 0.0
H561 H 0.78127 0.6532 0.44302 0.0
H562 H 0.72425 0.65356 0.43534 0.0
O563 O 0.76296 0.70424 0.5498 0.0
C564 C 0.80889 0.79251 0.54016 0.0
C565 C 0.73309 0.68945 0.46903 0.0
C566 C 0.77382 0.66855 0.45642 0.0
N567 N 0.78534 0.70542 0.49645 0.0
C568 C 0.75537 0.70781 0.49121 0.0
C569 C 0.79542 0.68722 0.47885 0.0
C570 C 0.74198 0.66899 0.45198 0.0
C571 C 0.89912 0.79569 0.59704 0.0
N572 N 0.87185 0.80331 0.59564 0.0
C573 C 0.93496 0.82333 0.59718 0.0
C574 C 0.94279 0.85895 0.59591 0.0
C575 C 0.91482 0.8665 0.59453 0.0
C576 C 0.8793 0.83817 0.59437 0.0
C577 C 0.82032 0.81341 0.66842 0.0
C578 C 0.77812 0.7872 0.62179 0.0
C579 C 0.82987 0.79819 0.64695 0.0
N580 N 0.80909 0.78577 0.62385 0.0
C581 C 0.76771 0.80224 0.64283 0.0
C582 C 0.78907 0.81553 0.66625 0.0
C583 C 0.75152 0.70481 0.5739 0.0
C584 C 0.84156 0.64826 0.55039 0.0
C585 C 0.7786 0.64709 0.53614 0.0
C586 C 0.77788 0.61479 0.5415 0.0
C587 C 0.80962 0.61545 0.54863 0.0
N588 N 0.81009 0.67919 0.53774 0.0
C589 C 0.84128 0.68004 0.54488 0.0
Co590 Co 0.24717 0.06063 0.59559 0.0
Co591 Co 0.28615 0.09184 0.532 0.0
O592 O 0.26792 0.09754 0.5672 0.0
C593 C 0.30839 0.12176 0.62245 0.0
O594 O 0.32667 0.12205 0.60074 0.0
C595 C 0.23546 0.11753 0.51819 0.0
O596 O 0.21325 0.0941 0.53614 0.0
O597 O 0.24048 0.04585 0.52496 0.0
O598 O 0.21977 0.02242 0.56709 0.0
H599 H 0.32062 0.02775 0.46308 0.0
H600 H 0.24211 0.12667 0.60197 0.0
O601 O 0.27502 0.09834 0.62421 0.0
H602 H 0.11679 0.02683 0.59763 0.0
H603 H 0.18985 0.01235 0.68782 0.0
H604 H 0.23702 0.9876 0.60322 0.0
H605 H 0.16728 0.01496 0.5949 0.0
H606 H 0.2155 0.05758 0.65077 0.0
O607 O 0.26566 0.11961 0.51339 0.0
H608 H 0.28734 0.03168 0.50307 0.0
H609 H 0.32384 0.14139 0.48516 0.0
H610 H 0.21122 0.94137 0.63952 0.0
H611 H 0.19243 0.13966 0.60541 0.0
H612 H 0.18735 0.95362 0.68222 0.0
H613 H 0.12925 0.08956 0.60303 0.0
O614 O 0.28736 0.0505 0.59285 0.0
H615 H 0.35915 0.22177 0.55978 0.0
H616 H 0.36434 0.11458 0.53032 0.0
H617 H 0.42061 0.17082 0.54034 0.0
H618 H 0.41826 0.22501 0.55501 0.0
H619 H 0.30345 0.16483 0.54994 0.0
H620 H 0.35741 0.13863 0.44491 0.0
H621 H 0.35837 0.08237 0.43523 0.0
O622 O 0.30726 0.06409 0.54949 0.0
C623 C 0.21868 0.02035 0.54075 0.0
C624 C 0.32124 0.05271 0.46765 0.0
C625 C 0.34188 0.11497 0.45745 0.0
N626 N 0.30462 0.08701 0.49687 0.0
C627 C 0.30236 0.05507 0.49019 0.0
C628 C 0.32263 0.11629 0.48014 0.0
C629 C 0.342 0.08323 0.45176 0.0
C630 C 0.21468 0.10467 0.60131 0.0
N631 N 0.2076 0.07009 0.59839 0.0
C632 C 0.18666 0.11221 0.60315 0.0
C633 C 0.15122 0.08409 0.60176 0.0
C634 C 0.14421 0.04889 0.59868 0.0
C635 C 0.17291 0.04235 0.59703 0.0
C636 C 0.19983 0.00654 0.6692 0.0
C637 C 0.22605 0.99281 0.62148 0.0
C638 C 0.21431 0.03201 0.64813 0.0
N639 N 0.2267 0.02475 0.62448 0.0
C640 C 0.21177 0.96668 0.64209 0.0
C641 C 0.19846 0.97361 0.66606 0.0
C642 C 0.30704 0.05094 0.57308 0.0
C643 C 0.36052 0.19839 0.55324 0.0
C644 C 0.36302 0.13793 0.53688 0.0
C645 C 0.39502 0.16977 0.54241 0.0
C646 C 0.39368 0.20018 0.5506 0.0
N647 N 0.33058 0.13644 0.5393 0.0
C648 C 0.32907 0.16611 0.5475 0.0
Co649 Co 0.95406 0.18958 0.59378 0.0
Co650 Co 0.92147 0.20242 0.53232 0.0
O651 O 0.91653 0.17617 0.56629 0.0
C652 C 0.89484 0.1909 0.62376 0.0
O653 O 0.89326 0.20933 0.60282 0.0
C654 C 0.89885 0.12788 0.51507 0.0
O655 O 0.92202 0.12852 0.53297 0.0
O656 O 0.96862 0.20585 0.52372 0.0
O657 O 0.99032 0.19883 0.56415 0.0
H658 H 0.98202 0.30605 0.46674 0.0
H659 H 0.88583 0.12011 0.59854 0.0
O660 O 0.91802 0.18057 0.62372 0.0
H661 H 0.98116 0.08834 0.59185 0.0
H662 H 1.00362 0.17708 0.68428 0.0
H663 H 0.03016 0.24737 0.59862 0.0
H664 H 0.99637 0.15187 0.59185 0.0
H665 H 0.95718 0.1599 0.64847 0.0
O666 O 0.8955 0.15554 0.51178 0.0
H667 H 0.97956 0.26803 0.50568 0.0
H668 H 0.8715 0.19122 0.48605 0.0
H669 H 0.07754 0.26533 0.63376 0.0
H670 H 0.86941 0.05624 0.59894 0.0
H671 H 0.06436 0.23011 0.67699 0.0
H672 H 0.91725 0.04001 0.59544 0.0
O673 O 0.96678 0.24096 0.59261 0.0
H674 H 0.7914 0.1388 0.56059 0.0
H675 H 0.89577 0.25543 0.53454 0.0
H676 H 0.8383 0.25212 0.54618 0.0
H677 H 0.78555 0.19345 0.55919 0.0
H678 H 0.84947 0.14336 0.5491 0.0
H679 H 0.87295 0.22803 0.44662 0.0
H680 H 0.92769 0.28701 0.43799 0.0
O681 O 0.9476 0.24962 0.55189 0.0
C682 C 0.9928 0.2046 0.53821 0.0
C683 C 0.95772 0.28078 0.47075 0.0
C684 C 0.89651 0.23696 0.45943 0.0
N685 N 0.92517 0.22794 0.4985 0.0
C686 C 0.95619 0.25917 0.49275 0.0
C687 C 0.89596 0.2161 0.48164 0.0
C688 C 0.92735 0.2699 0.45443 0.0
C689 C 0.90682 0.11325 0.59729 0.0
N690 N 0.94202 0.13965 0.59517 0.0
C691 C 0.89735 0.07705 0.59742 0.0
C692 C 0.92421 0.06796 0.59542 0.0
C693 C 0.96006 0.09506 0.59338 0.0
C694 C 0.96851 0.13097 0.5933 0.0
C695 C 0.0097 0.19264 0.66553 0.0
C696 C 0.02432 0.23178 0.6173 0.0
C697 C 0.98348 0.1831 0.64523 0.0
N698 N 0.99101 0.20254 0.62147 0.0
C699 C 0.05121 0.24213 0.63715 0.0
C700 C 0.04378 0.22238 0.66142 0.0
C701 C 0.96348 0.26102 0.57492 0.0
C702 C 0.81415 0.16449 0.55483 0.0
C703 C 0.87301 0.22982 0.54031 0.0
C704 C 0.8405 0.2281 0.54681 0.0
C705 C 0.81091 0.19518 0.55409 0.0
N706 N 0.87593 0.19955 0.54091 0.0
C707 C 0.84707 0.16721 0.54817 0.0
Co708 Co 0.91707 0.52587 0.42719 0.0
Co709 Co 0.95808 0.53648 0.36418 0.0
O710 O 0.93847 0.51068 0.39857 0.0
C711 C 0.97531 0.52177 0.45581 0.0
O712 O 0.99586 0.54058 0.43519 0.0
C713 C 0.9074 0.46139 0.34751 0.0
O714 O 0.88467 0.46189 0.36533 0.0
O715 O 0.91281 0.53728 0.35667 0.0
O716 O 0.89208 0.53975 0.39883 0.0
H717 H 0.99646 0.6394 0.2988 0.0
H718 H 0.9092 0.45334 0.43055 0.0
O719 O 0.94216 0.51281 0.45595 0.0
H720 H 0.78561 0.43236 0.42385 0.0
H721 H 0.8551 0.51263 0.51799 0.0
H722 H 0.90902 0.58971 0.43665 0.0
H723 H 0.83747 0.4941 0.42454 0.0
H724 H 0.88132 0.49404 0.4807 0.0
O725 O 0.93819 0.48932 0.3441 0.0
H726 H 0.96174 0.60029 0.33754 0.0
H727 H 0.9969 0.5267 0.31707 0.0
H728 H 0.88262 0.60918 0.47318 0.0
H729 H 0.8581 0.39117 0.43021 0.0
H730 H 0.8554 0.57049 0.51426 0.0
H731 H 0.79578 0.38037 0.42674 0.0
O732 O 0.95858 0.57567 0.42669 0.0
H733 H 0.02971 0.47783 0.39094 0.0
H734 H 0.03627 0.59192 0.36486 0.0
H735 H 0.09207 0.59129 0.37543 0.0
H736 H 0.08903 0.5339 0.38843 0.0
H737 H 0.9745 0.47973 0.38058 0.0
H738 H 0.03149 0.56467 0.27779 0.0
H739 H 0.03352 0.62279 0.26983 0.0
O740 O 0.97837 0.58421 0.38312 0.0
C741 C 0.89134 0.54136 0.37255 0.0
C742 C 0.99651 0.61459 0.30256 0.0
C743 C 0.01614 0.57261 0.29074 0.0
N744 N 0.97808 0.56178 0.32994 0.0
C745 C 0.97686 0.59232 0.32441 0.0
C746 C 0.99622 0.55106 0.31284 0.0
C747 C 0.01701 0.60506 0.28612 0.0
C748 C 0.88214 0.44886 0.42935 0.0
N749 N 0.87631 0.4773 0.4277 0.0
C750 C 0.85332 0.4136 0.42904 0.0
C751 C 0.81836 0.40756 0.42704 0.0
C752 C 0.81264 0.43672 0.42539 0.0
C753 C 0.84211 0.47161 0.4257 0.0
C754 C 0.86663 0.52961 0.50011 0.0
C755 C 0.89668 0.57248 0.45421 0.0
C756 C 0.88151 0.51921 0.47893 0.0
N757 N 0.89592 0.54039 0.4562 0.0
C758 C 0.88202 0.58376 0.47495 0.0
C759 C 0.86682 0.56208 0.49801 0.0
C760 C 0.97832 0.59574 0.40728 0.0
C761 C 0.0314 0.50297 0.38518 0.0
C762 C 0.03466 0.56686 0.37067 0.0
C763 C 0.06638 0.56666 0.37654 0.0
C764 C 0.06467 0.53445 0.38382 0.0
N765 N 1.00212 0.53582 0.37188 0.0
C766 C 1.00023 0.50418 0.37914 0.0
Co767 Co 0.48858 0.38981 0.42932 0.0
Co768 Co 0.48051 0.42396 0.36713 0.0
O769 O 0.50465 0.42813 0.40205 0.0
C770 C 0.48917 0.44991 0.45894 0.0
O771 O 0.47126 0.45191 0.43781 0.0
C772 C 0.55658 0.44935 0.35256 0.0
O773 O 0.55501 0.42507 0.36977 0.0
O774 O 0.47986 0.37824 0.35842 0.0
O775 O 0.47785 0.35314 0.39964 0.0
H776 H 0.38108 0.36329 0.29835 0.0
H777 H 0.5597 0.45547 0.4368 0.0
O778 O 0.49859 0.42604 0.45924 0.0
H779 H 0.58506 0.35584 0.42852 0.0
H780 H 0.49583 0.3371 0.51992 0.0
H781 H 0.42765 0.31506 0.43365 0.0
H782 H 0.52275 0.34416 0.42625 0.0
H783 H 0.51593 0.38425 0.48434 0.0
O784 O 0.52874 0.45214 0.34841 0.0
H785 H 0.41753 0.36561 0.33831 0.0
H786 H 0.49321 0.47493 0.32118 0.0
H787 H 0.40675 0.267 0.46853 0.0
H788 H 0.6223 0.46821 0.43992 0.0
H789 H 0.44091 0.27791 0.51206 0.0
H790 H 0.63534 0.41823 0.43553 0.0
O791 O 0.43834 0.37995 0.42744 0.0
H792 H 0.53824 0.55256 0.39843 0.0
H793 H 0.42549 0.44721 0.36721 0.0
H794 H 0.42588 0.50317 0.37925 0.0
H795 H 0.4826 0.55642 0.39488 0.0
H796 H 0.53659 0.49595 0.38647 0.0
H797 H 0.45787 0.47365 0.28076 0.0
H798 H 0.40007 0.41829 0.27044 0.0
O799 O 0.43179 0.3958 0.38479 0.0
C800 C 0.47684 0.35234 0.37332 0.0
C801 C 0.40578 0.38783 0.3031 0.0
C802 C 0.44893 0.44977 0.29321 0.0
N803 N 0.45694 0.4206 0.33241 0.0
C804 C 0.42653 0.38929 0.32567 0.0
C805 C 0.46896 0.45024 0.31597 0.0
C806 C 0.41669 0.41857 0.28722 0.0
C807 C 0.5651 0.4335 0.43526 0.0
N808 N 0.53759 0.39909 0.43149 0.0
C809 C 0.60062 0.4409 0.43693 0.0
C810 C 0.60792 0.41285 0.43442 0.0
C811 C 0.57972 0.37785 0.43044 0.0
C812 C 0.54451 0.37142 0.42904 0.0
C813 C 0.48075 0.33199 0.50102 0.0
C814 C 0.44281 0.31989 0.45244 0.0
C815 C 0.49196 0.35861 0.48083 0.0
N816 N 0.47312 0.3523 0.45688 0.0
C817 C 0.43078 0.29262 0.47216 0.0
C818 C 0.44994 0.29878 0.49659 0.0
C819 C 0.41923 0.38187 0.40827 0.0
C820 C 0.51341 0.52959 0.39153 0.0
C821 C 0.45025 0.47018 0.37411 0.0
C822 C 0.45033 0.50185 0.38083 0.0
C823 C 0.48216 0.53172 0.38958 0.0
N824 N 0.48107 0.46836 0.37592 0.0
C825 C 0.51235 0.49751 0.38459 0.0
Co826 Co 0.6231 0.10074 0.42895 0.0
Co827 Co 0.59331 0.06023 0.36576 0.0
O828 O 0.58658 0.07912 0.40033 0.0
C829 C 0.5612 0.04162 0.4572 0.0
O830 O 0.55999 0.02146 0.43646 0.0
C831 C 0.56745 0.10991 0.34973 0.0
O832 O 0.58996 0.13256 0.3679 0.0
O833 O 0.63887 0.10604 0.35848 0.0
O834 O 0.66187 0.12656 0.40067 0.0
H835 H 0.66007 0.0251 0.29986 0.0
H836 H 0.55769 0.10728 0.43272 0.0
O837 O 0.58504 0.07489 0.45759 0.0
H838 H 0.65899 0.23171 0.42658 0.0
H839 H 0.671 0.16201 0.52005 0.0
H840 H 0.69542 0.10981 0.43821 0.0
H841 H 0.66991 0.18052 0.42674 0.0
H842 H 0.62635 0.13569 0.48272 0.0
O843 O 0.56551 0.07959 0.34594 0.0
H844 H 0.65437 0.05845 0.33902 0.0
H845 H 0.54529 0.02127 0.3184 0.0
H846 H 0.74111 0.13631 0.4748 0.0
H847 H 0.54559 0.15769 0.43293 0.0
H848 H 0.72901 0.16265 0.51613 0.0
H849 H 0.59645 0.22044 0.42974 0.0
O850 O 0.63222 0.05977 0.42808 0.0
H851 H 0.46315 0.98636 0.39258 0.0
H852 H 0.57185 0.98235 0.36577 0.0
H853 H 0.51596 0.92585 0.37616 0.0
H854 H 0.46103 0.92761 0.38955 0.0
H855 H 0.51972 0.04228 0.38235 0.0
H856 H 0.54995 0.98797 0.27871 0.0
H857 H 0.60693 0.98767 0.2706 0.0
O858 O 0.62129 0.04045 0.38441 0.0
C859 C 0.66421 0.12766 0.37439 0.0
C860 C 0.63485 0.02432 0.30367 0.0
C861 C 0.57304 1.00351 0.29178 0.0
N862 N 0.5993 0.04103 0.33135 0.0
C863 C 0.63148 0.04318 0.32576 0.0
C864 C 0.57066 0.02267 0.31412 0.0
C865 C 0.60511 1.00363 0.28705 0.0
C866 C 0.57999 0.13452 0.43165 0.0
N867 N 0.61446 0.14096 0.42985 0.0
C868 C 0.57296 0.16295 0.43164 0.0
C869 C 0.60151 0.19815 0.42979 0.0
C870 C 0.6366 0.20449 0.42799 0.0
C871 C 0.64261 0.1754 0.428 0.0
C872 C 0.67672 0.15086 0.50205 0.0
C873 C 0.69024 0.12177 0.45588 0.0
C874 C 0.65154 0.13594 0.48085 0.0
N875 N 0.65866 0.12202 0.45799 0.0
C876 C 0.71609 0.13649 0.47665 0.0
C877 C 0.70925 0.1512 0.49985 0.0
C878 C 0.63288 0.04041 0.40851 0.0
C879 C 0.48686 0.98524 0.38664 0.0
C880 C 0.54814 0.9834 0.37172 0.0
C881 C 0.51653 0.95129 0.3775 0.0
C882 C 0.48571 0.95228 0.385 0.0
N883 N 0.54901 0.01562 0.37323 0.0
C884 C 0.51893 0.01681 0.38068 0.0
Co885 Co 0.85979 0.57561 0.73914 0.0
Co886 Co 0.87036 0.61687 0.80199 0.0
O887 O 0.84489 0.59764 0.76744 0.0
C888 C 0.85759 0.63476 0.71036 0.0
O889 O 0.87644 0.65491 0.73111 0.0
C890 C 0.79434 0.56812 0.81778 0.0
O891 O 0.79397 0.54495 0.79998 0.0
O892 O 0.86971 0.57094 0.8098 0.0
O893 O 0.87255 0.54997 0.76785 0.0
H894 H 0.97125 0.65179 0.86878 0.0
H895 H 0.788 0.5693 0.73492 0.0
O896 O 0.84789 0.60139 0.71013 0.0
H897 H 0.76436 0.44479 0.74213 0.0
H898 H 0.84676 0.51362 0.64843 0.0
H899 H 0.92279 0.56596 0.73044 0.0
H900 H 0.82656 0.49585 0.74193 0.0
H901 H 0.82838 0.54042 0.68543 0.0
O902 O 0.82305 0.59815 0.82156 0.0
H903 H 0.93291 0.61872 0.82927 0.0
H904 H 0.86117 0.65654 0.84878 0.0
H905 H 0.94202 0.53897 0.69419 0.0
H906 H 0.72539 0.51903 0.73475 0.0
H907 H 0.90387 0.51256 0.65277 0.0
H908 H 0.71326 0.45624 0.73848 0.0
O909 O 0.90989 0.61647 0.73991 0.0
H910 H 0.81521 0.69122 0.77375 0.0
H911 H 0.92721 0.69459 0.80165 0.0
H912 H 0.92842 0.7512 0.79061 0.0
H913 H 0.8721 0.74977 0.77666 0.0
H914 H 0.81525 0.63518 0.78462 0.0
H915 H 0.89838 0.68951 0.88882 0.0
H916 H 0.95518 0.68924 0.89777 0.0
O917 O 0.91825 0.63614 0.7835 0.0
C918 C 0.87361 0.54915 0.79418 0.0
C919 C 0.947 0.65278 0.86465 0.0
C920 C 0.90607 0.67392 0.87591 0.0
N921 N 0.89532 0.63638 0.8364 0.0
C922 C 0.92517 0.63408 0.84235 0.0
C923 C 0.88494 0.65493 0.85338 0.0
C924 C 0.93776 0.6735 0.88109 0.0
C925 C 0.78294 0.54204 0.73623 0.0
N926 N 0.81088 0.53551 0.73832 0.0
C927 C 0.74743 0.51369 0.73626 0.0
C928 C 0.74064 0.47847 0.73841 0.0
C929 C 0.7693 0.47203 0.74049 0.0
C930 C 0.80446 0.50105 0.74045 0.0
C931 C 0.86349 0.52479 0.66646 0.0
C932 C 0.90577 0.55395 0.71273 0.0
C933 C 0.85321 0.53998 0.68748 0.0
N934 N 0.87408 0.55393 0.71039 0.0
C935 C 0.91692 0.53897 0.69215 0.0
C936 C 0.89554 0.52422 0.6689 0.0
C937 C 0.92987 0.63599 0.75941 0.0
C938 C 0.83989 0.69221 0.77992 0.0
C939 C 0.9026 0.69367 0.79545 0.0
C940 C 0.90345 0.72585 0.78931 0.0
C941 C 0.87184 0.72504 0.7815 0.0
N942 N 0.87111 0.66156 0.79399 0.0
C943 C 0.84005 0.66056 0.78625 0.0
Co944 Co 0.43603 0.28449 0.7417 0.0
Co945 Co 0.39282 0.25264 0.80384 0.0
O946 O 0.4131 0.24717 0.76957 0.0
C947 C 0.37697 0.22408 0.71224 0.0
O948 O 0.35674 0.22282 0.73294 0.0
C949 C 0.44188 0.22616 0.82027 0.0
O950 O 0.46531 0.24961 0.80293 0.0
O951 O 0.43827 0.29819 0.81254 0.0
O952 O 0.46107 0.3221 0.77087 0.0
H953 H 0.35319 0.31572 0.86967 0.0
H954 H 0.44129 0.21843 0.73713 0.0
O955 O 0.41044 0.24741 0.71225 0.0
H956 H 0.56621 0.31797 0.74625 0.0
H957 H 0.4995 0.33417 0.65159 0.0
H958 H 0.44905 0.35864 0.73446 0.0
H959 H 0.51577 0.33004 0.74557 0.0
H960 H 0.47109 0.28826 0.68793 0.0
O961 O 0.41145 0.22412 0.82362 0.0
H962 H 0.38909 0.31232 0.83136 0.0
H963 H 0.35218 0.20264 0.84974 0.0
H964 H 0.47766 0.40557 0.69889 0.0
H965 H 0.49093 0.20518 0.73744 0.0
H966 H 0.5031 0.39342 0.65704 0.0
H967 H 0.55392 0.25515 0.74213 0.0
O968 O 0.39576 0.29464 0.74217 0.0
H969 H 0.32052 0.12345 0.77412 0.0
H970 H 0.31494 0.23098 0.80199 0.0
H971 H 0.25905 0.17543 0.78981 0.0
H972 H 0.2616 0.1211 0.77587 0.0
H973 H 0.37583 0.17968 0.78611 0.0
H974 H 0.31643 0.20502 0.88858 0.0
H975 H 0.31467 0.2611 0.8973 0.0
O976 O 0.37374 0.28126 0.7851 0.0
C977 C 0.4607 0.32378 0.79715 0.0
C978 C 0.35303 0.29087 0.86556 0.0
C979 C 0.33243 0.22874 0.8762 0.0
N980 N 0.37199 0.25709 0.83794 0.0
C981 C 0.37334 0.28881 0.84396 0.0
C982 C 0.35302 0.22766 0.85437 0.0
C983 C 0.33172 0.26031 0.88126 0.0
C984 C 0.46866 0.24035 0.73885 0.0
N985 N 0.47565 0.27497 0.74119 0.0
C986 C 0.49664 0.23267 0.73915 0.0
C987 C 0.53197 0.26072 0.74183 0.0
C988 C 0.53888 0.29597 0.74417 0.0
C989 C 0.51021 0.30263 0.74385 0.0
C990 C 0.48865 0.33985 0.66978 0.0
C991 C 0.46046 0.35336 0.7165 0.0
C992 C 0.47249 0.31394 0.6904 0.0
N993 N 0.45888 0.32099 0.71348 0.0
C994 C 0.47645 0.37994 0.69634 0.0
C995 C 0.49067 0.37309 0.67285 0.0
C996 C 0.37527 0.2943 0.76125 0.0
C997 C 0.31905 0.1469 0.78028 0.0
C998 C 0.31634 0.20753 0.79581 0.0
C999 C 0.28456 0.17611 0.78902 0.0
C1000 C 0.286 0.14562 0.78122 0.0
N1001 N 0.34866 0.20854 0.79499 0.0
C1002 C 0.35027 0.17878 0.78725 0.0
Co1003 Co 0.72856 0.15342 0.73949 0.0
Co1004 Co 0.75585 0.14147 0.80336 0.0
O1005 O 0.76407 0.16752 0.76886 0.0
C1006 C 0.7909 0.15493 0.71304 0.0
O1007 O 0.7902 0.13546 0.73406 0.0
C1008 C 0.78278 0.21723 0.81952 0.0
O1009 O 0.76092 0.21789 0.80099 0.0
O1010 O 0.71056 0.14255 0.80969 0.0
O1011 O 0.68879 0.14079 0.76713 0.0
H1012 H 0.68465 0.03979 0.86841 0.0
H1013 H 0.79493 0.22478 0.73689 0.0
O1014 O 0.76768 0.16516 0.71158 0.0
H1015 H 0.69505 0.25022 0.74042 0.0
H1016 H 0.685 0.16834 0.64701 0.0
H1017 H 0.6556 0.09168 0.7293 0.0
H1018 H 0.68294 0.18768 0.74036 0.0
H1019 H 0.72844 0.18541 0.68513 0.0
O1020 O 0.7838 0.18841 0.82358 0.0
H1021 H 0.69308 0.07924 0.82893 0.0
H1022 H 0.80189 0.14872 0.85172 0.0
H1023 H 0.61111 0.07374 0.69189 0.0
H1024 H 0.80825 0.28771 0.73664 0.0
H1025 H 0.62573 0.11225 0.65035 0.0
H1026 H 0.75809 0.30074 0.73851 0.0
O1027 O 0.71831 0.10295 0.74042 0.0
H1028 H 0.88656 0.1959 0.7788 0.0
H1029 H 0.77592 0.08403 0.804 0.0
H1030 H 0.83147 0.08235 0.79457 0.0
H1031 H 0.88736 0.13861 0.782 0.0
H1032 H 0.83032 0.19633 0.78802 0.0
H1033 H 0.79452 0.11022 0.89174 0.0
H1034 H 0.7361 0.05407 0.89915 0.0
O1035 O 0.72782 0.09398 0.7843 0.0
C1036 C 0.68573 0.13925 0.79341 0.0
C1037 C 0.71042 0.06373 0.86499 0.0
C1038 C 0.77209 0.1033 0.87809 0.0
N1039 N 0.74816 0.11573 0.8377 0.0
C1040 C 0.71534 0.08621 0.84271 0.0
C1041 C 0.77602 0.12515 0.85556 0.0
C1042 C 0.73926 0.07196 0.88237 0.0
C1043 C 0.77296 0.23024 0.73739 0.0
N1044 N 0.73821 0.20261 0.73851 0.0
C1045 C 0.78067 0.26592 0.73738 0.0
C1046 C 0.75251 0.27322 0.73848 0.0
C1047 C 0.71713 0.24488 0.73958 0.0
C1048 C 0.71044 0.20953 0.73962 0.0
C1049 C 0.67819 0.15149 0.6651 0.0
C1050 C 0.66184 0.10885 0.71153 0.0
C1051 C 0.70266 0.16104 0.68676 0.0
N1052 N 0.69412 0.14002 0.70975 0.0
C1053 C 0.63669 0.09843 0.6903 0.0
C1054 C 0.64495 0.12001 0.66697 0.0
C1055 C 0.7168 0.08263 0.76003 0.0
C1056 C 0.86243 0.17126 0.78442 0.0
C1057 C 0.80007 0.10862 0.79842 0.0
C1058 C 0.83148 0.10751 0.79319 0.0
C1059 C 0.86284 0.13909 0.78617 0.0
N1060 N 0.79991 0.14033 0.79681 0.0
C1061 C 0.83053 0.17136 0.78981 0.0
Co1062 Co 0.43853 0.15407 0.23959 0.0
Co1063 Co 0.39747 0.14405 0.30259 0.0
O1064 O 0.41687 0.16937 0.26796 0.0
C1065 C 0.37902 0.15581 0.21121 0.0
O1066 O 0.35922 0.13742 0.23226 0.0
C1067 C 0.44767 0.21966 0.3182 0.0
O1068 O 0.47043 0.21857 0.30074 0.0
O1069 O 0.44295 0.14373 0.31023 0.0
O1070 O 0.46445 0.14175 0.26826 0.0
H1071 H 0.3593 0.0415 0.36813 0.0
H1072 H 0.44473 0.22574 0.23416 0.0
O1073 O 0.41234 0.16544 0.21066 0.0
H1074 H 0.56934 0.24967 0.24093 0.0
H1075 H 0.49955 0.16606 0.14855 0.0
H1076 H 0.44793 0.09087 0.2311 0.0
H1077 H 0.51831 0.18749 0.24229 0.0
H1078 H 0.4732 0.18488 0.18558 0.0
O1079 O 0.41712 0.19161 0.32221 0.0
H1080 H 0.39448 0.08088 0.32968 0.0
H1081 H 0.35857 0.15404 0.34962 0.0
H1082 H 0.47447 0.07119 0.19482 0.0
H1083 H 0.495 0.28825 0.23191 0.0
H1084 H 0.50053 0.10892 0.15313 0.0
H1085 H 0.55782 0.30056 0.23554 0.0
O1086 O 0.39779 0.10394 0.24079 0.0
H1087 H 0.325 0.20133 0.27457 0.0
H1088 H 0.31939 0.0882 0.30232 0.0
H1089 H 0.26335 0.08816 0.29137 0.0
H1090 H 0.26591 0.14505 0.2775 0.0
H1091 H 0.38046 0.20012 0.28537 0.0
H1092 H 0.32338 0.11569 0.38859 0.0
H1093 H 0.32141 0.05757 0.39654 0.0
O1094 O 0.37735 0.09599 0.28413 0.0
C1095 C 0.46497 0.14023 0.29457 0.0
C1096 C 0.35919 0.06628 0.36434 0.0
C1097 C 0.33907 0.10796 0.37584 0.0
N1098 N 0.37773 0.11915 0.337 0.0
C1099 C 0.37911 0.08871 0.34266 0.0
C1100 C 0.35931 0.12972 0.35393 0.0
C1101 C 0.33826 0.07554 0.38049 0.0
C1102 C 0.472 0.23084 0.23536 0.0
N1103 N 0.47857 0.20299 0.23821 0.0
C1104 C 0.50036 0.2663 0.23419 0.0
C1105 C 0.5356 0.27319 0.23628 0.0
C1106 C 0.54208 0.24465 0.23935 0.0
C1107 C 0.51306 0.20952 0.24026 0.0
C1108 C 0.48856 0.14952 0.16671 0.0
C1109 C 0.4598 0.10772 0.21328 0.0
C1110 C 0.47363 0.16006 0.18775 0.0
N1111 N 0.45989 0.13943 0.21082 0.0
C1112 C 0.47453 0.09631 0.19269 0.0
C1113 C 0.48908 0.11746 0.16928 0.0
C1114 C 0.37784 0.08414 0.26019 0.0
C1115 C 0.32353 0.17641 0.28072 0.0
C1116 C 0.3208 0.11306 0.29618 0.0
C1117 C 0.28893 0.11287 0.29007 0.0
C1118 C 0.29038 0.1448 0.28231 0.0
N1119 N 0.35321 0.14422 0.29473 0.0
C1120 C 0.35483 0.17559 0.28701 0.0
Co1121 Co 0.86092 0.28372 0.24053 0.0
Co1122 Co 0.87283 0.25652 0.30447 0.0
O1123 O 0.84676 0.24841 0.27001 0.0
C1124 C 0.85904 0.22103 0.21446 0.0
O1125 O 0.87842 0.22165 0.2355 0.0
C1126 C 0.79758 0.23136 0.32063 0.0
O1127 O 0.79755 0.25361 0.30216 0.0
O1128 O 0.87262 0.30231 0.31057 0.0
O1129 O 0.87362 0.32362 0.26794 0.0
H1130 H 0.97435 0.32662 0.36998 0.0
H1131 H 0.78945 0.21745 0.23823 0.0
O1132 O 0.84907 0.24443 0.21284 0.0
H1133 H 0.76445 0.31766 0.24104 0.0
H1134 H 0.84621 0.32685 0.14778 0.0
H1135 H 0.92284 0.3565 0.23006 0.0
H1136 H 0.8269 0.32956 0.241 0.0
H1137 H 0.829 0.28363 0.18611 0.0
O1138 O 0.82591 0.22944 0.32466 0.0
H1139 H 0.93585 0.31871 0.32996 0.0
H1140 H 0.86433 0.21043 0.35304 0.0
H1141 H 0.94093 0.40077 0.19244 0.0
H1142 H 0.7266 0.20434 0.23799 0.0
H1143 H 0.90244 0.38603 0.15091 0.0
H1144 H 0.71378 0.25467 0.2395 0.0
O1145 O 0.91128 0.29377 0.24154 0.0
H1146 H 0.81637 0.12533 0.28083 0.0
H1147 H 0.92929 0.23518 0.30538 0.0
H1148 H 0.92988 0.17895 0.29648 0.0
H1149 H 0.87308 0.12345 0.28425 0.0
H1150 H 0.81705 0.18224 0.2895 0.0
H1151 H 0.90178 0.21729 0.39359 0.0
H1152 H 0.95842 0.27512 0.4012 0.0
O1153 O 0.92029 0.28377 0.28532 0.0
C1154 C 0.87559 0.32694 0.29419 0.0
C1155 C 0.95016 0.30108 0.3665 0.0
C1156 C 0.90939 0.23972 0.37976 0.0
N1157 N 0.89837 0.26393 0.33887 0.0
C1158 C 0.92824 0.29646 0.3439 0.0
C1159 C 0.88815 0.23608 0.35691 0.0
C1160 C 0.94101 0.27223 0.38415 0.0
C1161 C 0.78409 0.2395 0.23858 0.0
N1162 N 0.81179 0.27422 0.23949 0.0
C1163 C 0.74844 0.23191 0.23856 0.0
C1164 C 0.74127 0.26016 0.23946 0.0
C1165 C 0.76969 0.29551 0.24036 0.0
C1166 C 0.80499 0.30208 0.2404 0.0
C1167 C 0.86306 0.33372 0.16587 0.0
C1168 C 0.90568 0.35021 0.21229 0.0
C1169 C 0.85342 0.30938 0.18764 0.0
N1170 N 0.87443 0.31799 0.21062 0.0
C1171 C 0.91619 0.37523 0.19094 0.0
C1172 C 0.89462 0.36691 0.16762 0.0
C1173 C 0.93155 0.29485 0.26104 0.0
C1174 C 0.84125 0.14929 0.28629 0.0
C1175 C 0.90448 0.21121 0.29992 0.0
C1176 C 0.90497 0.17941 0.295 0.0
C1177 C 0.87309 0.14827 0.28817 0.0
N1178 N 0.8731 0.21197 0.29819 0.0
C1179 C 0.84177 0.18157 0.29137 0.0
Co1180 Co 0.72795 0.57775 0.24214 0.0
Co1181 Co 0.76104 0.62113 0.30403 0.0
O1182 O 0.76591 0.60102 0.26944 0.0
C1183 C 0.78772 0.63722 0.21193 0.0
O1184 O 0.78922 0.65764 0.23256 0.0
C1185 C 0.78774 0.57196 0.31961 0.0
O1186 O 0.76405 0.54861 0.30239 0.0
O1187 O 0.71587 0.57558 0.31305 0.0
O1188 O 0.69118 0.55199 0.27182 0.0
H1189 H 0.69922 0.65976 0.37203 0.0
H1190 H 0.79445 0.57347 0.23634 0.0
O1191 O 0.76431 0.60375 0.21218 0.0
H1192 H 0.69608 0.44794 0.24533 0.0
H1193 H 0.67664 0.51543 0.152 0.0
H1194 H 0.65288 0.56271 0.23704 0.0
H1195 H 0.68325 0.49789 0.24561 0.0
H1196 H 0.72338 0.54382 0.18771 0.0
O1197 O 0.79001 0.60248 0.32306 0.0
H1198 H 0.70191 0.62464 0.33282 0.0
H1199 H 0.81197 0.66143 0.3494 0.0
H1200 H 0.6052 0.5342 0.20202 0.0
H1201 H 0.80845 0.52434 0.23571 0.0
H1202 H 0.61698 0.51038 0.1591 0.0
H1203 H 0.75907 0.46105 0.24033 0.0
O1204 O 0.71721 0.6176 0.24334 0.0
H1205 H 0.88955 0.69402 0.27282 0.0
H1206 H 0.78234 0.69892 0.30272 0.0
H1207 H 0.83753 0.75503 0.29025 0.0
H1208 H 0.89171 0.75283 0.2753 0.0
H1209 H 0.83367 0.63848 0.28513 0.0
H1210 H 0.81033 0.69638 0.38907 0.0
H1211 H 0.75442 0.69782 0.3992 0.0
O1212 O 0.73183 0.6401 0.28607 0.0
C1213 C 0.69015 0.55241 0.29814 0.0
C1214 C 0.724 0.66005 0.36731 0.0
C1215 C 0.78637 0.68057 0.37691 0.0
N1216 N 0.75726 0.6417 0.33847 0.0
C1217 C 0.72566 0.6402 0.34519 0.0
C1218 C 0.78703 0.66045 0.3546 0.0
C1219 C 0.75487 0.68107 0.38277 0.0
C1220 C 0.77278 0.54597 0.23805 0.0
N1221 N 0.73807 0.53853 0.24087 0.0
C1222 C 0.78089 0.51828 0.2378 0.0
C1223 C 0.75317 0.48278 0.24045 0.0
C1224 C 0.71783 0.47541 0.24328 0.0
C1225 C 0.71073 0.5038 0.24349 0.0
C1226 C 0.67115 0.52565 0.17063 0.0
C1227 C 0.65808 0.55213 0.21853 0.0
C1228 C 0.69754 0.54182 0.19089 0.0
N1229 N 0.69075 0.55466 0.2145 0.0
C1230 C 0.63104 0.53613 0.19872 0.0
C1231 C 0.63768 0.52281 0.17464 0.0
C1232 C 0.71799 0.63819 0.26251 0.0
C1233 C 0.86617 0.69534 0.27942 0.0
C1234 C 0.80571 0.69767 0.29609 0.0
C1235 C 0.83694 0.72957 0.28914 0.0
C1236 C 0.86734 0.72832 0.28077 0.0
N1237 N 0.80483 0.66543 0.29487 0.0
C1238 C 0.83449 0.66399 0.28656 0.0
Co1239 Co 0.48642 0.09548 0.92765 0.0
Co1240 Co 0.47618 0.05482 0.86452 0.0
O1241 O 0.50181 0.0743 0.89898 0.0
C1242 C 0.49052 0.0371 0.95606 0.0
O1243 O 0.47188 0.01671 0.93533 0.0
C1244 C 0.55133 0.10599 0.84785 0.0
O1245 O 0.55078 0.12852 0.86583 0.0
O1246 O 0.47512 0.1 0.85717 0.0
O1247 O 0.47265 0.12064 0.89935 0.0
H1248 H 0.37397 0.01711 0.7985 0.0
H1249 H 0.55896 0.10342 0.93107 0.0
O1250 O 0.49939 0.07023 0.95634 0.0
H1251 H 0.57981 0.22702 0.92482 0.0
H1252 H 0.49903 0.15672 0.01867 0.0
H1253 H 0.42257 0.10352 0.93699 0.0
H1254 H 0.5181 0.17509 0.92529 0.0
H1255 H 0.51788 0.13079 0.98134 0.0
O1256 O 0.52346 0.07514 0.84444 0.0
H1257 H 0.4122 0.0508 0.83792 0.0
H1258 H 0.48658 0.01672 0.81723 0.0
H1259 H 0.40285 0.12963 0.97357 0.0
H1260 H 0.6211 0.15459 0.93094 0.0
H1261 H 0.44122 0.15647 0.01482 0.0
H1262 H 0.63183 0.21691 0.9277 0.0
O1263 O 0.43665 0.0539 0.92702 0.0
H1264 H 0.53546 0.98367 0.89093 0.0
H1265 H 0.42114 0.9765 0.86482 0.0
H1266 H 0.42216 0.92081 0.87509 0.0
H1267 H 0.47967 0.92416 0.88811 0.0
H1268 H 0.53318 0.03875 0.88085 0.0
H1269 H 0.44952 0.98319 0.77731 0.0
H1270 H 0.39152 0.98121 0.769 0.0
O1271 O 0.4283 0.03405 0.88348 0.0
C1272 C 0.47108 0.12146 0.87308 0.0
C1273 C 0.39877 0.01708 0.80236 0.0
C1274 C 0.44121 0.99808 0.79044 0.0
N1275 N 0.45109 0.035 0.8302 0.0
C1276 C 0.42052 0.03613 0.82461 0.0
C1277 C 0.46223 0.01738 0.81292 0.0
C1278 C 0.40883 0.99725 0.78562 0.0
C1279 C 0.56341 0.13049 0.92996 0.0
N1280 N 0.53495 0.13628 0.92832 0.0
C1281 C 0.59866 0.15934 0.92977 0.0
C1282 C 0.60465 0.1943 0.9279 0.0
C1283 C 0.57548 0.19999 0.92625 0.0
C1284 C 0.54061 0.17048 0.92644 0.0
C1285 C 0.48219 0.14534 0.00072 0.0
C1286 C 0.43966 0.11569 0.95463 0.0
C1287 C 0.49273 0.13062 0.97951 0.0
N1288 N 0.47171 0.11641 0.9567 0.0
C1289 C 0.42824 0.13019 0.9754 0.0
C1290 C 0.44975 0.14518 0.99855 0.0
C1291 C 0.41668 0.034 0.90766 0.0
C1292 C 0.51028 0.98185 0.88517 0.0
C1293 C 0.44624 0.97824 0.87064 0.0
C1294 C 0.44667 0.94658 0.87634 0.0
C1295 C 0.47894 0.94847 0.88363 0.0
N1296 N 0.47714 0.01088 0.87203 0.0
C1297 C 0.50885 0.01295 0.87929 0.0
Co1298 Co 0.91404 0.3906 0.92892 0.0
Co1299 Co 0.95446 0.42135 0.86579 0.0
O1300 O 0.93543 0.42749 0.9005 0.0
C1301 C 0.973 0.45262 0.95738 0.0
O1302 O 0.99323 0.45418 0.93657 0.0
C1303 C 0.90456 0.44724 0.84993 0.0
O1304 O 0.88195 0.42478 0.86817 0.0
O1305 O 0.90875 0.37563 0.85837 0.0
O1306 O 0.88826 0.35203 0.90042 0.0
H1307 H 0.98847 0.35494 0.79876 0.0
H1308 H 0.90711 0.45575 0.93327 0.0
O1309 O 0.93982 0.42848 0.95778 0.0
H1310 H 0.78291 0.35406 0.92706 0.0
H1311 H 0.85312 0.34152 0.01998 0.0
H1312 H 0.90502 0.31817 0.93744 0.0
H1313 H 0.83431 0.34348 0.92682 0.0
H1314 H 0.87932 0.38668 0.98294 0.0
O1315 O 0.93487 0.44914 0.84613 0.0
H1316 H 0.95502 0.36033 0.83797 0.0
H1317 H 0.99446 0.47033 0.81905 0.0
H1318 H 0.87864 0.27199 0.97374 0.0
H1319 H 0.85648 0.46751 0.93388 0.0
H1320 H 0.85244 0.28355 0.01542 0.0
H1321 H 0.79385 0.41645 0.93066 0.0
O1322 O 0.95519 0.38169 0.92775 0.0
H1323 H 0.02732 0.55129 0.8934 0.0
H1324 H 0.03258 0.44358 0.86562 0.0
H1325 H 0.08873 0.4996 0.8763 0.0
H1326 H 0.08636 0.55405 0.89016 0.0
H1327 H 0.97174 0.49455 0.8829 0.0
H1328 H 0.02833 0.46613 0.77955 0.0
H1329 H 0.02763 0.40878 0.77067 0.0
O1330 O 0.97471 0.39354 0.88423 0.0
C1331 C 0.88715 0.35 0.87412 0.0
C1332 C 0.98977 0.38031 0.80296 0.0
C1333 C 0.01216 0.44274 0.7922 0.0
N1334 N 0.97371 0.41587 0.83124 0.0
C1335 C 0.97076 0.38349 0.82504 0.0
C1336 C 0.99272 0.44488 0.81444 0.0
C1337 C 0.01146 0.41047 0.78702 0.0
C1338 C 0.87992 0.43336 0.93218 0.0
N1339 N 0.87367 0.39897 0.93013 0.0
C1340 C 0.85136 0.4402 0.9324 0.0
C1341 C 0.81624 0.41154 0.93054 0.0
C1342 C 0.81008 0.37653 0.92849 0.0
C1343 C 0.8393 0.37072 0.92827 0.0
C1344 C 0.86422 0.33604 0.00184 0.0
C1345 C 0.89316 0.32313 0.95529 0.0
C1346 C 0.87909 0.36151 0.9808 0.0
N1347 N 0.89294 0.3547 0.95776 0.0
C1348 C 0.87849 0.297 0.97588 0.0
C1349 C 0.86386 0.30354 0.99928 0.0
C1350 C 0.9748 0.38146 0.90817 0.0
C1351 C 0.02872 0.52779 0.88726 0.0
C1352 C 0.03124 0.46704 0.87182 0.0
C1353 C 0.06317 0.49875 0.87774 0.0
C1354 C 0.06183 0.5293 0.8855 0.0
N1355 N 0.99885 0.4658 0.87344 0.0
C1356 C 0.99733 0.49562 0.88114 0.0
Co1357 Co 0.62161 0.52665 0.92682 0.0
Co1358 Co 0.58957 0.53565 0.86424 0.0
O1359 O 0.58438 0.5108 0.8988 0.0
C1360 C 0.55989 0.52359 0.95519 0.0
O1361 O 0.55883 0.54261 0.93448 0.0
C1362 C 0.56353 0.45969 0.84858 0.0
O1363 O 0.58808 0.46066 0.86519 0.0
O1364 O 0.63534 0.53585 0.8561 0.0
O1365 O 0.65969 0.5395 0.89796 0.0
H1366 H 0.65332 0.63564 0.79637 0.0
H1367 H 0.55672 0.45432 0.93142 0.0
O1368 O 0.58396 0.51449 0.9558 0.0
H1369 H 0.65881 0.43259 0.92418 0.0
H1370 H 0.67175 0.51536 0.01743 0.0
H1371 H 0.69393 0.59039 0.93501 0.0
H1372 H 0.66902 0.49445 0.92421 0.0
H1373 H 0.62618 0.49617 0.98072 0.0
O1374 O 0.56115 0.48789 0.84516 0.0
H1375 H 0.64958 0.59719 0.83538 0.0
H1376 H 0.5391 0.52597 0.81863 0.0
H1377 H 0.74053 0.61045 0.97096 0.0
H1378 H 0.54532 0.39205 0.93173 0.0
H1379 H 0.72956 0.57278 0.01258 0.0
H1380 H 0.59659 0.38087 0.928 0.0
O1381 O 0.63033 0.57664 0.9257 0.0
H1382 H 0.46023 0.47842 0.89369 0.0
H1383 H 0.56714 0.5914 0.86478 0.0
H1384 H 0.51129 0.59142 0.87634 0.0
H1385 H 0.45723 0.53459 0.89076 0.0
H1386 H 0.51679 0.47968 0.88236 0.0
H1387 H 0.54165 0.56349 0.77935 0.0
H1388 H 0.59835 0.62032 0.76956 0.0
O1389 O 0.61779 0.58398 0.88233 0.0
C1390 C 0.66131 0.54029 0.87163 0.0
C1391 C 0.62822 0.61144 0.80098 0.0
C1392 C 0.56553 0.57095 0.79143 0.0
N1393 N 0.59394 0.55993 0.82966 0.0
C1394 C 0.62598 0.58948 0.82293 0.0
C1395 C 0.56434 0.54963 0.81352 0.0
C1396 C 0.59745 0.60262 0.78573 0.0
C1397 C 0.57919 0.44969 0.93009 0.0
N1398 N 0.6135 0.47799 0.92793 0.0
C1399 C 0.57256 0.41436 0.93015 0.0
C1400 C 0.60134 0.40811 0.92801 0.0
C1401 C 0.63625 0.43711 0.92584 0.0
C1402 C 0.64186 0.47208 0.92579 0.0
C1403 C 0.67699 0.53187 0.9993 0.0
C1404 C 0.68927 0.57358 0.9528 0.0
C1405 C 0.6513 0.52112 0.97844 0.0
N1406 N 0.65782 0.5417 0.9554 0.0
C1407 C 0.71561 0.5852 0.97321 0.0
C1408 C 0.70941 0.56409 0.99657 0.0
C1409 C 0.6302 0.59633 0.90618 0.0
C1410 C 0.48356 0.50332 0.88731 0.0
C1411 C 0.54388 0.56661 0.87124 0.0
C1412 C 0.51225 0.56676 0.87766 0.0
C1413 C 0.48192 0.53486 0.88572 0.0
N1414 N 0.54524 0.53551 0.87269 0.0
C1415 C 0.51563 0.50417 0.88071 0.0
Co1416 Co 0.57904 0.85871 0.76082 0.0
Co1417 Co 0.61946 0.86741 0.69783 0.0
O1418 O 0.60005 0.84264 0.73257 0.0
C1419 C 0.63801 0.85592 0.78931 0.0
O1420 O 0.65802 0.87425 0.76832 0.0
C1421 C 0.56919 0.79146 0.6823 0.0
O1422 O 0.54653 0.7915 0.70041 0.0
O1423 O 0.57409 0.86808 0.69011 0.0
O1424 O 0.55353 0.8715 0.73211 0.0
H1425 H 0.65682 0.96801 0.63044 0.0
H1426 H 0.57157 0.78645 0.76579 0.0
O1427 O 0.6048 0.84679 0.78981 0.0
H1428 H 0.44769 0.76471 0.75925 0.0
H1429 H 0.51841 0.84812 0.85183 0.0
H1430 H 0.57097 0.92275 0.76915 0.0
H1431 H 0.4994 0.82655 0.75865 0.0
H1432 H 0.54422 0.82852 0.81491 0.0
O1433 O 0.59953 0.8198 0.67846 0.0
H1434 H 0.62165 0.92946 0.6693 0.0
H1435 H 0.65904 0.85689 0.65166 0.0
H1436 H 0.54499 0.9432 0.8053 0.0
H1437 H 0.52064 0.7242 0.76676 0.0
H1438 H 0.51845 0.90575 0.84705 0.0
H1439 H 0.45817 0.71302 0.76338 0.0
O1440 O 0.62032 0.90861 0.75937 0.0
H1441 H 0.69086 0.80925 0.72658 0.0
H1442 H 0.69781 0.92266 0.6979 0.0
H1443 H 0.7535 0.92218 0.70911 0.0
H1444 H 0.75027 0.86513 0.72344 0.0
H1445 H 0.63576 0.81102 0.71555 0.0
H1446 H 0.69453 0.89457 0.61256 0.0
H1447 H 0.69603 0.9522 0.60346 0.0
O1448 O 0.64007 0.91574 0.71594 0.0
C1449 C 0.55267 0.87254 0.7058 0.0
C1450 C 0.65722 0.94351 0.63482 0.0
C1451 C 0.6784 0.90229 0.62479 0.0
N1452 N 0.63922 0.89162 0.6632 0.0
C1453 C 0.63724 0.9215 0.65669 0.0
C1454 C 0.65803 0.88093 0.6468 0.0
C1455 C 0.67884 0.93437 0.61942 0.0
C1456 C 0.54445 0.78181 0.76462 0.0
N1457 N 0.53845 0.81009 0.76229 0.0
C1458 C 0.51573 0.7465 0.76505 0.0
C1459 C 0.48069 0.74025 0.7631 0.0
C1460 C 0.47479 0.76923 0.76075 0.0
C1461 C 0.50417 0.80418 0.76033 0.0
C1462 C 0.52962 0.86455 0.83364 0.0
C1463 C 0.55888 0.90602 0.78699 0.0
C1464 C 0.54424 0.85357 0.81266 0.0
N1465 N 0.55823 0.87404 0.78955 0.0
C1466 C 0.54447 0.91787 0.80752 0.0
C1467 C 0.52966 0.89688 0.83096 0.0
C1468 C 0.64003 0.9282 0.73974 0.0
C1469 C 0.69263 0.83424 0.72024 0.0
C1470 C 0.6961 0.89777 0.70429 0.0
C1471 C 0.72777 0.89764 0.71052 0.0
C1472 C 0.72595 0.86562 0.71853 0.0
N1473 N 0.6635 0.86684 0.70587 0.0
C1474 C 0.66152 0.83537 0.71382 0.0
Co1475 Co 0.1548 0.72577 0.75975 0.0
Co1476 Co 0.14481 0.75812 0.69734 0.0
O1477 O 0.16956 0.76338 0.73204 0.0
C1478 C 0.15308 0.78528 0.78814 0.0
O1479 O 0.13442 0.78544 0.76687 0.0
C1480 C 0.22051 0.78372 0.68179 0.0
O1481 O 0.22029 0.76089 0.69982 0.0
O1482 O 0.14467 0.71251 0.68914 0.0
O1483 O 0.14521 0.68892 0.73052 0.0
H1484 H 0.04513 0.69445 0.62925 0.0
H1485 H 0.22478 0.79326 0.76562 0.0
O1486 O 0.16373 0.76236 0.78917 0.0
H1487 H 0.25455 0.69649 0.75935 0.0
H1488 H 0.16476 0.67664 0.85123 0.0
H1489 H 0.096 0.65005 0.76485 0.0
H1490 H 0.19139 0.68237 0.75804 0.0
H1491 H 0.18289 0.72294 0.81513 0.0
O1492 O 0.19238 0.78609 0.67807 0.0
H1493 H 0.08315 0.69818 0.66856 0.0
H1494 H 0.15511 0.80844 0.65143 0.0
H1495 H 0.07707 0.60286 0.80028 0.0
H1496 H 0.28828 0.80856 0.76722 0.0
H1497 H 0.11156 0.61605 0.84386 0.0
H1498 H 0.3035 0.75997 0.76399 0.0
O1499 O 0.10376 0.71369 0.75773 0.0
H1500 H 0.20209 0.88756 0.72643 0.0
H1501 H 0.0891 0.78055 0.69777 0.0
H1502 H 0.08915 0.83654 0.70901 0.0
H1503 H 0.146 0.89066 0.72325 0.0
H1504 H 0.20076 0.83087 0.71538 0.0
H1505 H 0.11801 0.80589 0.61184 0.0
H1506 H 0.06106 0.74931 0.60205 0.0
O1507 O 0.0966 0.72993 0.71548 0.0
C1508 C 0.14316 0.6874 0.70423 0.0
C1509 C 0.06935 0.71952 0.63388 0.0
C1510 C 0.11025 0.78208 0.62411 0.0
N1511 N 0.12062 0.75374 0.66274 0.0
C1512 C 0.09104 0.72175 0.65602 0.0
C1513 C 0.13128 0.78328 0.6464 0.0
C1514 C 0.07852 0.75022 0.61841 0.0
C1515 C 0.23117 0.77195 0.7645 0.0
N1516 N 0.20442 0.73696 0.76189 0.0
C1517 C 0.26718 0.78078 0.76529 0.0
C1518 C 0.27571 0.75351 0.76343 0.0
C1519 C 0.24826 0.71789 0.76081 0.0
C1520 C 0.21255 0.71007 0.76002 0.0
C1521 C 0.14958 0.67052 0.8323 0.0
C1522 C 0.11133 0.65586 0.78365 0.0
C1523 C 0.1597 0.69664 0.81181 0.0
N1524 N 0.14076 0.68903 0.78779 0.0
C1525 C 0.1004 0.6291 0.80368 0.0
C1526 C 0.11974 0.63653 0.82814 0.0
C1527 C 0.08412 0.71511 0.73871 0.0
C1528 C 0.1772 0.86423 0.72008 0.0
C1529 C 0.1139 0.80386 0.70415 0.0
C1530 C 0.11379 0.83556 0.71038 0.0
C1531 C 0.1457 0.86593 0.71834 0.0
N1532 N 0.14497 0.80247 0.70568 0.0
C1533 C 0.17631 0.83208 0.71367 0.0
Co1534 Co 0.28922 0.43234 0.76283 0.0
Co1535 Co 0.2565 0.39146 0.70009 0.0
O1536 O 0.25129 0.41031 0.73523 0.0
C1537 C 0.22851 0.37259 0.79217 0.0
O1538 O 0.22676 0.35248 0.77124 0.0
C1539 C 0.22981 0.4411 0.6855 0.0
O1540 O 0.25231 0.46358 0.70377 0.0
O1541 O 0.30162 0.43731 0.69203 0.0
O1542 O 0.32647 0.45876 0.73355 0.0
H1543 H 0.32159 0.35991 0.62978 0.0
H1544 H 0.22337 0.43768 0.76918 0.0
O1545 O 0.25248 0.40587 0.79244 0.0
H1546 H 0.32321 0.56281 0.76256 0.0
H1547 H 0.3407 0.49139 0.85396 0.0
H1548 H 0.36382 0.44594 0.76769 0.0
H1549 H 0.335 0.51221 0.7609 0.0
H1550 H 0.29407 0.4648 0.818 0.0
O1551 O 0.22793 0.41085 0.68142 0.0
H1552 H 0.31685 0.39161 0.67048 0.0
H1553 H 0.20616 0.35157 0.65407 0.0
H1554 H 0.41134 0.4726 0.80297 0.0
H1555 H 0.21041 0.48748 0.77121 0.0
H1556 H 0.3999 0.49553 0.8465 0.0
H1557 H 0.26054 0.55057 0.76779 0.0
O1558 O 0.29917 0.39198 0.76073 0.0
H1559 H 0.12767 0.31752 0.7302 0.0
H1560 H 0.23503 0.31359 0.69928 0.0
H1561 H 0.17968 0.25707 0.71065 0.0
H1562 H 0.12542 0.25878 0.72612 0.0
H1563 H 0.18373 0.37347 0.71894 0.0
H1564 H 0.20973 0.31961 0.61305 0.0
H1565 H 0.26721 0.32166 0.60193 0.0
O1566 O 0.28525 0.37154 0.71752 0.0
C1567 C 0.32745 0.45959 0.70724 0.0
C1568 C 0.29619 0.35806 0.63489 0.0
C1569 C 0.23339 0.33542 0.62552 0.0
N1570 N 0.26103 0.3725 0.66507 0.0
C1571 C 0.29336 0.37602 0.65785 0.0
C1572 C 0.23159 0.35375 0.64865 0.0
C1573 C 0.26572 0.33688 0.61911 0.0
C1574 C 0.24536 0.46508 0.76798 0.0
N1575 N 0.2799 0.47204 0.76504 0.0
C1576 C 0.23784 0.49316 0.76901 0.0
C1577 C 0.26598 0.52855 0.76705 0.0
C1578 C 0.30115 0.53543 0.76409 0.0
C1579 C 0.30764 0.50667 0.76308 0.0
C1580 C 0.34604 0.48156 0.83506 0.0
C1581 C 0.35875 0.45611 0.78649 0.0
C1582 C 0.31971 0.46641 0.81466 0.0
N1583 N 0.32632 0.45407 0.79071 0.0
C1584 C 0.38571 0.47107 0.80643 0.0
C1585 C 0.37925 0.48389 0.83086 0.0
C1586 C 0.29864 0.37212 0.74105 0.0
C1587 C 0.15109 0.31641 0.72337 0.0
C1588 C 0.21163 0.31462 0.70615 0.0
C1589 C 0.18031 0.28249 0.71247 0.0
C1590 C 0.14987 0.28347 0.72113 0.0
N1591 N 0.21257 0.34684 0.70826 0.0
C1592 C 0.18286 0.348 0.71683 0.0
Co1593 Co 0.52745 0.91012 0.07331 0.0
Co1594 Co 0.53688 0.9508 0.13646 0.0
O1595 O 0.51201 0.9316 0.10169 0.0
C1596 C 0.5271 0.97077 0.04581 0.0
O1597 O 0.54541 0.98952 0.06724 0.0
C1598 C 0.46123 0.89968 0.15169 0.0
O1599 O 0.46266 0.87726 0.13407 0.0
O1600 O 0.53774 0.90552 0.1439 0.0
O1601 O 0.53857 0.88319 0.102 0.0
H1602 H 0.63833 0.98929 0.20322 0.0
H1603 H 0.45636 0.90516 0.06754 0.0
O1604 O 0.51713 0.93738 0.04447 0.0
H1605 H 0.43054 0.77979 0.07291 0.0
H1606 H 0.51677 0.85109 0.98159 0.0
H1607 H 0.58971 0.89904 0.06558 0.0
H1608 H 0.49301 0.83021 0.07497 0.0
H1609 H 0.49793 0.87759 0.01853 0.0
O1610 O 0.48905 0.93035 0.15584 0.0
H1611 H 0.60041 0.95485 0.1639 0.0
H1612 H 0.52519 0.98822 0.18359 0.0
H1613 H 0.6094 0.8724 0.02936 0.0
H1614 H 0.39359 0.85554 0.06466 0.0
H1615 H 0.57277 0.84817 0.98697 0.0
H1616 H 0.38033 0.79233 0.06757 0.0
O1617 O 0.57787 0.95033 0.07515 0.0
H1618 H 0.47838 0.02231 0.10883 0.0
H1619 H 0.59196 0.02914 0.13682 0.0
H1620 H 0.59125 0.08494 0.12635 0.0
H1621 H 0.53411 0.08176 0.11241 0.0
H1622 H 0.48034 0.9671 0.11912 0.0
H1623 H 0.562 0.02257 0.22337 0.0
H1624 H 0.62037 0.02548 0.23195 0.0
O1625 O 0.58522 0.97175 0.11817 0.0
C1626 C 0.5404 0.88291 0.12832 0.0
C1627 C 0.6134 0.98896 0.19918 0.0
C1628 C 0.57051 0.00761 0.21051 0.0
N1629 N 0.56117 0.97034 0.17108 0.0
C1630 C 0.59181 0.96949 0.17699 0.0
C1631 C 0.54964 0.98786 0.18812 0.0
C1632 C 0.60306 0.00889 0.21554 0.0
C1633 C 0.45085 0.87772 0.06843 0.0
N1634 N 0.47832 0.87059 0.07126 0.0
C1635 C 0.41525 0.84974 0.0669 0.0
C1636 C 0.40782 0.81427 0.06858 0.0
C1637 C 0.43597 0.80722 0.07163 0.0
C1638 C 0.47127 0.83589 0.07292 0.0
C1639 C 0.5328 0.86127 1.00006 0.0
C1640 C 0.57334 0.88797 0.04742 0.0
C1641 C 0.52223 0.87625 0.02106 0.0
N1642 N 0.5422 0.88891 0.04453 0.0
C1643 C 0.58476 0.87319 0.02688 0.0
C1644 C 0.56423 0.85966 0.00308 0.0
C1645 C 0.59739 0.97083 0.09442 0.0
C1646 C 0.50339 0.02405 0.11505 0.0
C1647 C 0.56701 0.02746 0.13062 0.0
C1648 C 0.56676 0.05919 0.12481 0.0
C1649 C 0.53469 0.0574 0.11702 0.0
N1650 N 0.53613 0.99484 0.12883 0.0
C1651 C 0.50464 0.99288 0.12103 0.0
Co1652 Co 0.10006 0.61897 0.0731 0.0
Co1653 Co 0.06032 0.58844 0.13653 0.0
O1654 O 0.07882 0.58226 0.10164 0.0
C1655 C 0.03943 0.55749 0.04601 0.0
O1656 O 0.02069 0.55749 0.06732 0.0
C1657 C 0.11017 0.56205 0.15147 0.0
O1658 O 0.13262 0.58447 0.13313 0.0
O1659 O 0.10616 0.6342 0.14363 0.0
O1660 O 0.12704 0.65744 0.10152 0.0
H1661 H 0.02742 0.65446 0.20495 0.0
H1662 H 0.10533 0.55288 0.06831 0.0
O1663 O 0.0728 0.58096 0.04452 0.0
H1664 H 0.23051 0.65299 0.07287 0.0
H1665 H 0.15875 0.66651 0.98115 0.0
H1666 H 0.1107 0.69208 0.06489 0.0
H1667 H 0.17991 0.6648 0.07404 0.0
H1668 H 0.13245 0.62152 0.01832 0.0
O1669 O 0.08013 0.56054 0.15574 0.0
H1670 H 0.05981 0.64929 0.16486 0.0
H1671 H 0.02141 0.53938 0.1834 0.0
H1672 H 0.13714 0.73807 0.02845 0.0
H1673 H 0.15512 0.53987 0.06683 0.0
H1674 H 0.16144 0.72539 0.98618 0.0
H1675 H 0.21824 0.59014 0.06921 0.0
O1676 O 0.05974 0.62907 0.07506 0.0
H1677 H 0.98678 0.45838 0.10931 0.0
H1678 H 0.98226 0.56635 0.13751 0.0
H1679 H 0.92585 0.51029 0.12741 0.0
H1680 H 0.92786 0.4557 0.11338 0.0
H1681 H 0.04262 0.51515 0.1192 0.0
H1682 H 0.9888 0.54339 0.22381 0.0
H1683 H 0.98949 0.60054 0.23341 0.0
O1684 O 0.03982 0.61634 0.11847 0.0
C1685 C 0.12808 0.65961 0.12784 0.0
C1686 C 0.02615 0.62916 0.20047 0.0
C1687 C 1.00446 0.56681 0.21105 0.0
N1688 N 0.04161 0.59383 0.17139 0.0
C1689 C 0.04452 0.62611 0.17787 0.0
C1690 C 0.02319 0.56478 0.18827 0.0
C1691 C 1.00518 0.59898 0.21663 0.0
C1692 C 0.13273 0.57492 0.06904 0.0
N1693 N 0.13972 0.60956 0.07112 0.0
C1694 C 0.16081 0.56738 0.06833 0.0
C1695 C 0.19622 0.59559 0.06972 0.0
C1696 C 0.20312 0.63086 0.0718 0.0
C1697 C 0.17437 0.63738 0.07253 0.0
C1698 C 0.14854 0.67249 0.99956 0.0
C1699 C 0.12179 0.68666 0.0468 0.0
C1700 C 0.13368 0.64714 0.02069 0.0
N1701 N 0.121 0.65462 0.0441 0.0
C1702 C 0.13647 0.71267 0.02612 0.0
C1703 C 0.15003 0.70551 0.00239 0.0
C1704 C 0.04006 0.62903 0.09469 0.0
C1705 C 0.98555 0.48193 0.11557 0.0
C1706 C 0.98343 0.54283 0.13122 0.0
C1707 C 0.95136 0.51109 0.12564 0.0
C1708 C 0.9525 0.48046 0.11781 0.0
N1709 N 0.01576 0.54401 0.12918 0.0
C1710 C 0.01708 0.51412 0.12133 0.0
Co1711 Co 0.39203 0.48423 0.06893 0.0
Co1712 Co 0.42429 0.47758 0.13212 0.0
O1713 O 0.42906 0.50084 0.09698 0.0
C1714 C 0.45304 0.48428 0.04212 0.0
O1715 O 0.45298 0.46597 0.06371 0.0
C1716 C 0.44515 0.53957 0.16971 0.0
O1717 O 0.41647 0.51874 0.18442 0.0
O1718 O 0.37841 0.47734 0.13947 0.0
O1719 O 0.35409 0.47342 0.09754 0.0
H1720 H 0.36206 0.38098 0.20285 0.0
H1721 H 0.45777 0.55578 0.06366 0.0
O1722 O 0.42972 0.49431 0.0403 0.0
H1723 H 0.35694 0.57984 0.06645 0.0
H1724 H 0.34294 0.49178 0.97674 0.0
H1725 H 0.31921 0.42088 0.06172 0.0
H1726 H 0.34565 0.51763 0.06867 0.0
H1727 H 0.38839 0.51212 0.01365 0.0
O1728 O 0.45253 0.52704 0.1485 0.0
H1729 H 0.36526 0.41646 0.16197 0.0
H1730 H 0.47516 0.49071 0.17835 0.0
H1731 H 0.27276 0.3997 0.02559 0.0
H1732 H 0.47027 0.61837 0.06129 0.0
H1733 H 0.28452 0.4353 0.98269 0.0
H1734 H 0.41963 0.63072 0.06268 0.0
O1735 O 0.38245 0.43414 0.07198 0.0
H1736 H 0.55341 0.53371 0.1021 0.0
H1737 H 0.44708 0.42222 0.13406 0.0
H1738 H 0.503 0.42188 0.12336 0.0
H1739 H 0.55677 0.47797 0.10745 0.0
H1740 H 0.49683 0.5328 0.11262 0.0
H1741 H 0.47306 0.45626 0.21962 0.0
H1742 H 0.41688 0.3996 0.23084 0.0
O1743 O 0.3961 0.42829 0.11555 0.0
C1744 C 0.35259 0.47313 0.12387 0.0
C1745 C 0.38691 0.40519 0.19775 0.0
C1746 C 0.44923 0.44747 0.20717 0.0
N1747 N 0.42054 0.45517 0.16752 0.0
C1748 C 0.38886 0.42542 0.17468 0.0
C1749 C 0.45019 0.46698 0.18391 0.0
C1750 C 0.41758 0.4159 0.21366 0.0
C1751 C 0.43558 0.56092 0.06407 0.0
N1752 N 0.40101 0.53309 0.0661 0.0
C1753 C 0.44283 0.59643 0.06281 0.0
C1754 C 0.41441 0.60333 0.06364 0.0
C1755 C 0.37923 0.5748 0.06576 0.0
C1756 C 0.373 0.53965 0.06706 0.0
C1757 C 0.33735 0.47621 0.99544 0.0
C1758 C 0.32418 0.43684 0.04338 0.0
C1759 C 0.36295 0.48763 0.01642 0.0
N1760 N 0.35595 0.46825 0.04019 0.0
C1761 C 0.29794 0.42457 0.02287 0.0
C1762 C 0.30458 0.44451 0.99878 0.0
C1763 C 0.38321 0.41533 0.09192 0.0
C1764 C 0.53024 0.50917 0.10922 0.0
C1765 C 0.47026 0.44672 0.127 0.0
C1766 C 0.50192 0.44638 0.12106 0.0
C1767 C 0.53209 0.47787 0.11217 0.0
N1768 N 0.46872 0.47762 0.12429 0.0
C1769 C 0.49815 0.50853 0.11537 0.0
Co1770 Co 0.10139 0.48429 0.57356 0.0
Co1771 Co 0.06182 0.47758 0.63673 0.0
O1772 O 0.08061 0.50103 0.60146 0.0
C1773 C 0.04097 0.48471 0.54578 0.0
O1774 O 0.02221 0.46683 0.56735 0.0
C1775 C 0.11292 0.55386 0.65026 0.0
O1776 O 0.13519 0.55213 0.63265 0.0
O1777 O 0.10721 0.47699 0.64442 0.0
O1778 O 0.1281 0.47343 0.60258 0.0
H1779 H 0.02617 0.38054 0.70722 0.0
H1780 H 0.10748 0.55573 0.56631 0.0
O1781 O 0.07427 0.49432 0.54442 0.0
H1782 H 0.23221 0.57978 0.57198 0.0
H1783 H 0.15965 0.49162 0.48204 0.0
H1784 H 0.11077 0.4208 0.5669 0.0
H1785 H 0.18118 0.5177 0.57494 0.0
H1786 H 0.13393 0.51207 0.51846 0.0
O1787 O 0.08241 0.52607 0.65491 0.0
H1788 H 0.0605 0.41712 0.66724 0.0
H1789 H 0.02334 0.4904 0.68244 0.0
H1790 H 0.13659 0.39951 0.53122 0.0
H1791 H 0.15772 0.6181 0.56254 0.0
H1792 H 0.16132 0.43508 0.48839 0.0
H1793 H 0.22061 0.63047 0.56561 0.0
O1794 O 0.06076 0.4342 0.57642 0.0
H1795 H 0.98993 0.53488 0.60706 0.0
H1796 H 0.98352 0.4224 0.63778 0.0
H1797 H 0.92761 0.42261 0.62682 0.0
H1798 H 0.93057 0.4792 0.61153 0.0
H1799 H 0.04526 0.53341 0.61785 0.0
H1800 H 0.98879 0.45481 0.72262 0.0
H1801 H 0.98755 0.39778 0.73357 0.0
O1802 O 0.04067 0.42838 0.61973 0.0
C1803 C 0.12898 0.47281 0.62893 0.0
C1804 C 0.02557 0.40473 0.702 0.0
C1805 C 1.0046 0.44643 0.71066 0.0
N1806 N 0.04276 0.45499 0.67197 0.0
C1807 C 0.04499 0.42555 0.67946 0.0
C1808 C 0.0244 0.46658 0.68802 0.0
C1809 C 1.00434 0.4147 0.71707 0.0
C1810 C 0.13477 0.56084 0.56726 0.0
N1811 N 0.14139 0.5331 0.57068 0.0
C1812 C 0.16311 0.59623 0.56524 0.0
C1813 C 0.1984 0.60316 0.56701 0.0
C1814 C 0.20492 0.57473 0.57063 0.0
C1815 C 0.17592 0.53966 0.57242 0.0
C1816 C 0.14927 0.47606 0.50071 0.0
C1817 C 0.12207 0.43672 0.54857 0.0
C1818 C 0.13475 0.48755 0.52143 0.0
N1819 N 0.12188 0.46819 0.54516 0.0
C1820 C 0.13638 0.42439 0.52832 0.0
C1821 C 0.15018 0.44432 0.50428 0.0
C1822 C 0.04097 0.41522 0.59624 0.0
C1823 C 0.98828 0.51011 0.61388 0.0
C1824 C 0.9851 0.4471 0.63095 0.0
C1825 C 0.95331 0.44708 0.62488 0.0
C1826 C 0.95498 0.47885 0.61634 0.0
N1827 N 0.01768 0.47796 0.62871 0.0
C1828 C 0.01952 0.50915 0.62015 0.0
Co1829 Co 0.52703 0.61664 0.57383 0.0
Co1830 Co 0.5365 0.58701 0.63756 0.0
O1831 O 0.51165 0.58039 0.6027 0.0
C1832 C 0.52628 0.55475 0.54742 0.0
O1833 O 0.54492 0.55496 0.56883 0.0
C1834 C 0.46087 0.56244 0.65261 0.0
O1835 O 0.46232 0.58605 0.63476 0.0
O1836 O 0.53695 0.63313 0.64421 0.0
O1837 O 0.53838 0.65548 0.60189 0.0
H1838 H 0.63709 0.6532 0.70439 0.0
H1839 H 0.45584 0.55035 0.56881 0.0
O1840 O 0.51648 0.57827 0.54561 0.0
H1841 H 0.4302 0.6501 0.57235 0.0
H1842 H 0.51573 0.66268 0.48131 0.0
H1843 H 0.58935 0.68973 0.56509 0.0
H1844 H 0.49265 0.66216 0.57451 0.0
H1845 H 0.49717 0.61824 0.51887 0.0
O1846 O 0.48873 0.55975 0.65698 0.0
H1847 H 0.59856 0.648 0.66505 0.0
H1848 H 0.52614 0.53878 0.68507 0.0
H1849 H 0.60875 0.73519 0.52826 0.0
H1850 H 0.39308 0.53715 0.56587 0.0
H1851 H 0.57177 0.72176 0.48597 0.0
H1852 H 0.37991 0.58721 0.56785 0.0
O1853 O 0.5775 0.627 0.57588 0.0
H1854 H 0.4788 0.4564 0.61168 0.0
H1855 H 0.592 0.5643 0.63873 0.0
H1856 H 0.59173 0.5078 0.62921 0.0
H1857 H 0.53477 0.45324 0.61577 0.0
H1858 H 0.48034 0.5136 0.621 0.0
H1859 H 0.56385 0.5428 0.72471 0.0
H1860 H 0.62127 0.59952 0.73305 0.0
O1861 O 0.58484 0.61433 0.61923 0.0
C1862 C 0.53998 0.65813 0.62818 0.0
C1863 C 0.61266 0.62805 0.70041 0.0
C1864 C 0.57154 0.56607 0.7118 0.0
N1865 N 0.56081 0.59283 0.67233 0.0
C1866 C 0.59067 0.625 0.67826 0.0
C1867 C 0.55018 0.56405 0.68948 0.0
C1868 C 0.60354 0.59802 0.71669 0.0
C1869 C 0.45038 0.57232 0.56929 0.0
N1870 N 0.47789 0.60699 0.57166 0.0
C1871 C 0.41477 0.56467 0.56773 0.0
C1872 C 0.4074 0.59277 0.56889 0.0
C1873 C 0.43559 0.62805 0.57147 0.0
C1874 C 0.47089 0.6347 0.57282 0.0
C1875 C 0.5319 0.66898 0.49974 0.0
C1876 C 0.57281 0.68401 0.547 0.0
C1877 C 0.5215 0.64396 0.52109 0.0
N1878 N 0.54164 0.65186 0.54451 0.0
C1879 C 0.58408 0.7097 0.52609 0.0
C1880 C 0.56336 0.70212 0.50235 0.0
C1881 C 0.59722 0.62703 0.59542 0.0
C1882 C 0.50373 0.47994 0.61769 0.0
C1883 C 0.56715 0.5408 0.6327 0.0
C1884 C 0.56714 0.50881 0.62744 0.0
C1885 C 0.53516 0.4782 0.61994 0.0
N1886 N 0.53614 0.54224 0.63066 0.0
C1887 C 0.50474 0.51237 0.62312 0.0
Co1888 Co 0.39506 0.91388 0.57256 0.0
Co1889 Co 0.4244 0.95416 0.63596 0.0
O1890 O 0.43128 0.93554 0.60137 0.0
C1891 C 0.45654 0.97456 0.54573 0.0
O1892 O 0.45613 0.99327 0.56691 0.0
C1893 C 0.45034 0.90426 0.6516 0.0
O1894 O 0.4278 0.88175 0.63337 0.0
O1895 O 0.37869 0.90833 0.64291 0.0
O1896 O 0.35623 0.88696 0.6007 0.0
H1897 H 0.35742 0.98841 0.70244 0.0
H1898 H 0.4615 0.90912 0.5688 0.0
O1899 O 0.43337 0.94112 0.54425 0.0
H1900 H 0.36193 0.78366 0.57351 0.0
H1901 H 0.3493 0.85446 0.48061 0.0
H1902 H 0.32199 0.90285 0.56332 0.0
H1903 H 0.34966 0.83398 0.57382 0.0
H1904 H 0.3936 0.88114 0.51817 0.0
O1905 O 0.45207 0.93445 0.65568 0.0
H1906 H 0.36335 0.95606 0.66266 0.0
H1907 H 0.47216 0.99234 0.68357 0.0
H1908 H 0.27668 0.87601 0.52649 0.0
H1909 H 0.47497 0.85962 0.56818 0.0
H1910 H 0.29023 0.85155 0.48474 0.0
H1911 H 0.42498 0.79637 0.57064 0.0
O1912 O 0.38466 0.95399 0.57387 0.0
H1913 H 0.55488 0.0281 0.60994 0.0
H1914 H 0.44606 0.03208 0.63643 0.0
H1915 H 0.50216 0.08863 0.6266 0.0
H1916 H 0.55715 0.08689 0.61343 0.0
H1917 H 0.49809 0.97212 0.61956 0.0
H1918 H 0.46726 0.02458 0.72387 0.0
H1919 H 0.41027 0.02472 0.7323 0.0
O1920 O 0.39661 0.97429 0.61728 0.0
C1921 C 0.35367 0.88619 0.62699 0.0
C1922 C 0.38263 0.98922 0.69855 0.0
C1923 C 0.44429 0.0095 0.7106 0.0
N1924 N 0.41828 0.97304 0.67048 0.0
C1925 C 0.38613 0.97094 0.6761 0.0
C1926 C 0.4468 0.99093 0.68791 0.0
C1927 C 0.41221 0.00931 0.71547 0.0
C1928 C 0.43958 0.88165 0.56955 0.0
N1929 N 0.40483 0.87443 0.5712 0.0
C1930 C 0.44738 0.85374 0.56933 0.0
C1931 C 0.41932 0.81826 0.57077 0.0
C1932 C 0.38395 0.81111 0.57241 0.0
C1933 C 0.37716 0.83971 0.57265 0.0
C1934 C 0.34293 0.86473 0.49881 0.0
C1935 C 0.32777 0.89164 0.54548 0.0
C1936 C 0.36788 0.8798 0.52015 0.0
N1937 N 0.35991 0.89255 0.54328 0.0
C1938 C 0.30215 0.87676 0.52457 0.0
C1939 C 0.30981 0.86312 0.50113 0.0
C1940 C 0.38442 0.97377 0.59327 0.0
C1941 C 0.53115 0.02922 0.61583 0.0
C1942 C 0.46979 0.03103 0.63054 0.0
C1943 C 0.50153 0.06318 0.6251 0.0
C1944 C 0.53239 0.06219 0.61774 0.0
N1945 N 0.46883 0.99878 0.62881 0.0
C1946 C 0.49894 0.99761 0.62143 0.0
Co1947 Co 0.15538 0.43197 0.25977 0.0
Co1948 Co 0.14512 0.39143 0.19663 0.0
O1949 O 0.17067 0.41073 0.23111 0.0
C1950 C 0.15897 0.37306 0.28804 0.0
O1951 O 0.14007 0.35271 0.26738 0.0
C1952 C 0.22023 0.44216 0.18012 0.0
O1953 O 0.22014 0.46476 0.19826 0.0
O1954 O 0.14432 0.43679 0.18934 0.0
O1955 O 0.14212 0.45763 0.23148 0.0
H1956 H 0.04394 0.356 0.13007 0.0
H1957 H 0.22763 0.4392 0.26339 0.0
O1958 O 0.16791 0.40623 0.2884 0.0
H1959 H 0.24963 0.56324 0.25757 0.0
H1960 H 0.16796 0.49276 0.35098 0.0
H1961 H 0.09186 0.4406 0.26899 0.0
H1962 H 0.18771 0.51166 0.25772 0.0
H1963 H 0.18667 0.46672 0.31364 0.0
O1964 O 0.1922 0.41151 0.17666 0.0
H1965 H 0.08253 0.3895 0.16936 0.0
H1966 H 0.15447 0.35198 0.14973 0.0
H1967 H 0.07229 0.46682 0.30559 0.0
H1968 H 0.28996 0.49 0.26359 0.0
H1969 H 0.11048 0.49316 0.34699 0.0
H1970 H 0.30126 0.55255 0.26056 0.0
O1971 O 0.10542 0.39073 0.25887 0.0
H1972 H 0.20401 0.31997 0.22327 0.0
H1973 H 0.08995 0.31305 0.19675 0.0
H1974 H 0.09077 0.25731 0.20712 0.0
H1975 H 0.14815 0.26053 0.22034 0.0
H1976 H 0.2019 0.37513 0.21311 0.0
H1977 H 0.11674 0.31818 0.11014 0.0
H1978 H 0.05965 0.31798 0.10146 0.0
O1979 O 0.09734 0.3708 0.21545 0.0
C1980 C 0.14053 0.45845 0.2052 0.0
C1981 C 0.06826 0.35514 0.13414 0.0
C1982 C 0.10913 0.3339 0.12297 0.0
N1983 N 0.12012 0.37185 0.16224 0.0
C1984 C 0.0903 0.37418 0.15627 0.0
C1985 C 0.13051 0.35331 0.14526 0.0
C1986 C 0.07728 0.33407 0.11793 0.0
C1987 C 0.23232 0.46635 0.26238 0.0
N1988 N 0.20407 0.47247 0.26068 0.0
C1989 C 0.26768 0.495 0.26237 0.0
C1990 C 0.274 0.53009 0.26062 0.0
C1991 C 0.24504 0.53611 0.25891 0.0
C1992 C 0.21005 0.50679 0.25892 0.0
C1993 C 0.1512 0.48162 0.33296 0.0
C1994 C 0.10888 0.45255 0.2867 0.0
C1995 C 0.16166 0.46684 0.31175 0.0
N1996 N 0.14076 0.45293 0.28885 0.0
C1997 C 0.09754 0.46711 0.30747 0.0
C1998 C 0.11895 0.48182 0.33072 0.0
C1999 C 0.08543 0.37091 0.23946 0.0
C2000 C 0.17887 0.31821 0.21742 0.0
C2001 C 0.11498 0.31476 0.20269 0.0
C2002 C 0.11531 0.28306 0.20844 0.0
C2003 C 0.14751 0.28487 0.21583 0.0
N2004 N 0.1459 0.34737 0.20414 0.0
C2005 C 0.17754 0.34935 0.2115 0.0
Co2006 Co 0.57904 0.7244 0.26399 0.0
Co2007 Co 0.61824 0.75308 0.20007 0.0
O2008 O 0.60067 0.76067 0.23507 0.0
C2009 C 0.64014 0.78569 0.29164 0.0
O2010 O 0.65964 0.78689 0.27042 0.0
C2011 C 0.56847 0.77942 0.18471 0.0
O2012 O 0.54663 0.75843 0.20396 0.0
O2013 O 0.5723 0.707 0.19378 0.0
O2014 O 0.55118 0.68613 0.23613 0.0
H2015 H 0.64873 0.68359 0.13325 0.0
H2016 H 0.57576 0.79156 0.26826 0.0
O2017 O 0.60681 0.76212 0.29244 0.0
H2018 H 0.44947 0.69358 0.26558 0.0
H2019 H 0.52182 0.67819 0.3566 0.0
H2020 H 0.56385 0.64948 0.27097 0.0
H2021 H 0.49894 0.68012 0.26406 0.0
H2022 H 0.54818 0.72291 0.31928 0.0
O2023 O 0.59814 0.78024 0.18022 0.0
H2024 H 0.61799 0.69103 0.1734 0.0
H2025 H 0.65628 0.80008 0.15186 0.0
H2026 H 0.53729 0.60379 0.30762 0.0
H2027 H 0.52713 0.80622 0.27011 0.0
H2028 H 0.51611 0.61806 0.35084 0.0
H2029 H 0.46344 0.75703 0.26867 0.0
O2030 O 0.61871 0.71314 0.26199 0.0
H2031 H 0.69228 0.88394 0.22483 0.0
H2032 H 0.69628 0.77522 0.19818 0.0
H2033 H 0.75289 0.83159 0.20707 0.0
H2034 H 0.75114 0.88656 0.22035 0.0
H2035 H 0.63626 0.82686 0.2161 0.0
H2036 H 0.68752 0.79384 0.1114 0.0
H2037 H 0.686 0.73594 0.10324 0.0
O2038 O 0.63902 0.72601 0.21868 0.0
C2039 C 0.54996 0.68258 0.21 0.0
C2040 C 0.65034 0.70919 0.13707 0.0
C2041 C 0.67212 0.77108 0.12483 0.0
N2042 N 0.63616 0.74619 0.16534 0.0
C2043 C 0.63289 0.71353 0.1597 0.0
C2044 C 0.65421 0.77439 0.14765 0.0
C2045 C 0.67091 0.73849 0.12003 0.0
C2046 C 0.54812 0.76999 0.26791 0.0
N2047 N 0.5402 0.73502 0.26614 0.0
C2048 C 0.52069 0.77846 0.26884 0.0
C2049 C 0.48497 0.75085 0.26799 0.0
C2050 C 0.47711 0.71525 0.26622 0.0
C2051 C 0.50523 0.7078 0.26528 0.0
C2052 C 0.53095 0.67165 0.33787 0.0
C2053 C 0.55453 0.65583 0.28967 0.0
C2054 C 0.54603 0.69692 0.31672 0.0
N2055 N 0.55752 0.68881 0.29298 0.0
C2056 C 0.53958 0.62987 0.31036 0.0
C2057 C 0.52774 0.63791 0.33462 0.0
C2058 C 0.63859 0.71327 0.24245 0.0
C2059 C 0.6934 0.86021 0.21894 0.0
C2060 C 0.69523 0.7989 0.20414 0.0
C2061 C 0.72741 0.83081 0.20905 0.0
C2062 C 0.72641 0.86165 0.21648 0.0
N2063 N 0.66294 0.79775 0.20642 0.0
C2064 C 0.66176 0.82785 0.21384 0.0
Co2065 Co 0.28897 0.85906 0.26123 0.0
Co2066 Co 0.25761 0.8688 0.19828 0.0
O2067 O 0.25165 0.84419 0.2332 0.0
C2068 C 0.22906 0.86077 0.2891 0.0
O2069 O 0.22912 0.87942 0.26774 0.0
C2070 C 0.23082 0.79256 0.1832 0.0
O2071 O 0.25295 0.79232 0.20168 0.0
O2072 O 0.30291 0.86817 0.19065 0.0
O2073 O 0.32631 0.86866 0.23231 0.0
H2074 H 0.32411 0.96773 0.13011 0.0
H2075 H 0.22147 0.78905 0.26694 0.0
O2076 O 0.25196 0.85012 0.29035 0.0
H2077 H 0.3184 0.7594 0.26186 0.0
H2078 H 0.33692 0.84938 0.3533 0.0
H2079 H 0.36462 0.91786 0.26666 0.0
H2080 H 0.33245 0.82254 0.26019 0.0
H2081 H 0.29109 0.83113 0.31685 0.0
O2082 O 0.22932 0.82112 0.17905 0.0
H2083 H 0.31863 0.92966 0.16986 0.0
H2084 H 0.20836 0.85938 0.15169 0.0
H2085 H 0.41135 0.93691 0.30244 0.0
H2086 H 0.20623 0.72557 0.26891 0.0
H2087 H 0.3976 0.90256 0.34615 0.0
H2088 H 0.25489 0.71041 0.26627 0.0
O2089 O 0.30096 0.91009 0.25902 0.0
H2090 H 0.12808 0.81326 0.2267 0.0
H2091 H 0.23613 0.92523 0.19774 0.0
H2092 H 0.18049 0.92611 0.20851 0.0
H2093 H 0.12586 0.86978 0.22293 0.0
H2094 H 0.18443 0.81366 0.2161 0.0
H2095 H 0.21265 0.89663 0.11163 0.0
H2096 H 0.27024 0.95273 0.10201 0.0
O2097 O 0.28599 0.91711 0.2163 0.0
C2098 C 0.32796 0.87007 0.20601 0.0
C2099 C 0.29865 0.94389 0.13461 0.0
C2100 C 0.23607 0.90399 0.12426 0.0
N2101 N 0.26297 0.89302 0.16352 0.0
C2102 C 0.29542 0.92216 0.157 0.0
C2103 C 0.23388 0.88287 0.14682 0.0
C2104 C 0.26846 0.93526 0.11868 0.0
C2105 C 0.24282 0.78268 0.26608 0.0
N2106 N 0.27781 0.80946 0.26358 0.0
C2107 C 0.23402 0.74668 0.26708 0.0
C2108 C 0.26133 0.73819 0.26555 0.0
C2109 C 0.29696 0.76567 0.26305 0.0
C2110 C 0.30475 0.80136 0.26205 0.0
C2111 C 0.34328 0.8645 0.33431 0.0
C2112 C 0.35856 0.9026 0.28552 0.0
C2113 C 0.31743 0.85432 0.31362 0.0
N2114 N 0.32533 0.87319 0.28955 0.0
C2115 C 0.38507 0.91359 0.30575 0.0
C2116 C 0.37732 0.89433 0.33028 0.0
C2117 C 0.30012 0.92968 0.2397 0.0
C2118 C 0.15164 0.83793 0.22027 0.0
C2119 C 0.21258 0.90064 0.20418 0.0
C2120 C 0.18109 0.90128 0.21014 0.0
C2121 C 0.15043 0.86966 0.2182 0.0
N2122 N 0.2135 0.86934 0.20606 0.0
C2123 C 0.18359 0.83829 0.21412 0.0
C2124 C 0.3097 0.16531 0.16906 0.0
C2125 C 0.32813 0.18148 0.14453 0.0
C2126 C 0.32643 0.15726 0.19043 0.0
C2127 C 0.36231 0.16498 0.18819 0.0
H2128 H 0.28211 0.15893 0.17194 0.0
H2129 H 0.31101 0.14497 0.2089 0.0
S2130 S 0.4223 0.20636 0.12788 0.0
N2131 N 0.38426 0.20438 0.11907 0.0
N2132 N 0.41555 0.18921 0.15913 0.0
C2133 C 0.38104 0.18098 0.16371 0.0
C2134 C 0.364 0.18921 0.14193 0.0
C2135 C 0.82336 0.17043 0.14705 0.0
C2136 C 0.83109 0.14224 0.14889 0.0
C2137 C 0.83225 0.19552 0.16834 0.0
C2138 C 0.84936 0.19362 0.19243 0.0
H2139 H 0.81045 0.17341 0.12891 0.0
H2140 H 0.82584 0.21674 0.16573 0.0
S2141 S 0.87479 0.12449 0.20797 0.0
N2142 N 0.85641 0.11363 0.17713 0.0
N2143 N 0.87315 0.16066 0.21707 0.0
C2144 C 0.85709 0.16544 0.19466 0.0
C2145 C 0.84798 0.13983 0.17295 0.0
C2146 C 0.84065 0.68981 0.18968 0.0
C2147 C 0.81354 0.65333 0.18865 0.0
C2148 C 0.86542 0.70593 0.16814 0.0
C2149 C 0.86427 0.68629 0.1446 0.0
H2150 H 0.84293 0.70623 0.20733 0.0
H2151 H 0.88571 0.73404 0.17007 0.0
S2152 S 0.79834 0.58992 0.13141 0.0
N2153 N 0.78697 0.59808 0.16185 0.0
N2154 N 0.83335 0.62818 0.1215 0.0
C2155 C 0.83726 0.64976 0.14325 0.0
C2156 C 0.812 0.63335 0.1652 0.0
C2157 C 0.16883 0.30465 0.33147 0.0
C2158 C 0.18753 0.32443 0.35488 0.0
C2159 C 0.15998 0.32066 0.30999 0.0
C2160 C 0.16936 0.35714 0.31098 0.0
H2161 H 0.16087 0.27649 0.32965 0.0
H2162 H 0.14555 0.30413 0.29247 0.0
S2163 S 0.21859 0.42103 0.36771 0.0
N2164 N 0.2153 0.38279 0.37766 0.0
N2165 N 0.19862 0.41263 0.33747 0.0
C2166 C 0.1882 0.3773 0.33424 0.0
C2167 C 0.19726 0.36103 0.3561 0.0
C2168 C 0.69293 0.83982 0.31246 0.0
C2169 C 0.65694 0.81185 0.31456 0.0
C2170 C 0.70949 0.86494 0.33371 0.0
C2171 C 0.69075 0.8632 0.35797 0.0
H2172 H 0.70855 0.84256 0.29418 0.0
H2173 H 0.73717 0.886 0.33097 0.0
S2174 S 0.59617 0.79463 0.37418 0.0
N2175 N 0.60328 0.78365 0.34325 0.0
N2176 N 0.63422 0.83064 0.38301 0.0
C2177 C 0.65479 0.83523 0.36043 0.0
C2178 C 0.63795 0.80966 0.3388 0.0
C2179 C 0.17904 0.82568 0.3569 0.0
C2180 C 0.15107 0.83376 0.35525 0.0
C2181 C 0.20403 0.83451 0.33551 0.0
C2182 C 0.20227 0.8519 0.31153 0.0
H2183 H 0.18176 0.81235 0.37488 0.0
H2184 H 0.22495 0.82763 0.33789 0.0
S2185 S 0.13412 0.87889 0.29672 0.0
N2186 N 0.1231 0.86016 0.32744 0.0
N2187 N 0.16995 0.87678 0.28738 0.0
C2188 C 0.17448 0.86024 0.3096 0.0
C2189 C 0.14897 0.8512 0.33138 0.0
C2190 C 0.69051 0.85466 0.81059 0.0
C2191 C 0.65442 0.8464 0.81238 0.0
C2192 C 0.70703 0.84652 0.83208 0.0
C2193 C 0.68817 0.8297 0.85631 0.0
H2194 H 0.70632 0.86754 0.79239 0.0
H2195 H 0.73482 0.85342 0.82956 0.0
S2196 S 0.59308 0.80266 0.87162 0.0
N2197 N 0.60037 0.82056 0.84062 0.0
N2198 N 0.63123 0.80523 0.88089 0.0
C2199 C 0.65201 0.82125 0.85842 0.0
C2200 C 0.6352 0.82957 0.83652 0.0
C2201 C 0.18819 0.83464 0.85609 0.0
C2202 C 0.18008 0.86259 0.85468 0.0
C2203 C 0.17939 0.80986 0.83457 0.0
C2204 C 0.16197 0.81186 0.81069 0.0
H2205 H 0.20151 0.83173 0.874 0.0
H2206 H 0.18628 0.78893 0.83676 0.0
S2207 S 0.13489 0.8801 0.79651 0.0
N2208 N 0.15365 0.89082 0.82722 0.0
N2209 N 0.13704 0.84438 0.7869 0.0
C2210 C 0.15361 0.83965 0.80899 0.0
C2211 C 0.16265 0.86494 0.83092 0.0
C2212 C 0.14952 0.30407 0.83511 0.0
C2213 C 0.15063 0.32357 0.85873 0.0
C2214 C 0.17473 0.32015 0.81382 0.0
C2215 C 0.20225 0.35644 0.8152 0.0
H2216 H 0.12894 0.27609 0.83294 0.0
H2217 H 0.17247 0.30386 0.79609 0.0
S2218 S 0.21747 0.41945 0.87276 0.0
N2219 N 0.18192 0.38136 0.88225 0.0
N2220 N 0.22911 0.41136 0.8424 0.0
C2221 C 0.20373 0.37628 0.83873 0.0
C2222 C 0.17802 0.35992 0.86041 0.0
C2223 C 0.84856 0.7039 0.66746 0.0
C2224 C 0.83129 0.68491 0.64339 0.0
C2225 C 0.85676 0.68739 0.68892 0.0
C2226 C 0.8481 0.65117 0.68727 0.0
H2227 H 0.85574 0.73178 0.66988 0.0
H2228 H 0.86997 0.7033 0.70699 0.0
S2229 S 0.80338 0.58955 0.6284 0.0
N2230 N 0.80617 0.62778 0.61904 0.0
N2231 N 0.8216 0.59691 0.65928 0.0
C2232 C 0.83091 0.63184 0.66327 0.0
C2233 C 0.82253 0.64866 0.64139 0.0
C2234 C 0.32449 0.17044 0.69088 0.0
C2235 C 0.3605 0.19844 0.68901 0.0
C2236 C 0.3079 0.14595 0.66931 0.0
C2237 C 0.3266 0.14833 0.64489 0.0
H2238 H 0.30882 0.16723 0.70923 0.0
H2239 H 0.28019 0.12488 0.67191 0.0
S2240 S 0.42127 0.21722 0.62921 0.0
N2241 N 0.4142 0.2274 0.66045 0.0
N2242 N 0.3832 0.18147 0.61998 0.0
C2243 C 0.36263 0.17628 0.64267 0.0
C2244 C 0.37953 0.20126 0.66468 0.0
C2245 C 0.84149 0.19031 0.64545 0.0
C2246 C 0.86914 0.18177 0.64706 0.0
C2247 C 0.81658 0.1818 0.66688 0.0
C2248 C 0.81814 0.16431 0.69087 0.0
H2249 H 0.83879 0.20353 0.62739 0.0
H2250 H 0.79575 0.1888 0.66444 0.0
S2251 S 0.88596 0.13694 0.70587 0.0
N2252 N 0.89695 0.15539 0.67505 0.0
N2253 N 0.85031 0.1394 0.71518 0.0
C2254 C 0.84584 0.15585 0.69288 0.0
C2255 C 0.87123 0.16454 0.67105 0.0
C2256 C 0.02702 0.51941 0.47754 0.0
C2257 C 0.99103 0.51157 0.47896 0.0
C2258 C 0.04288 0.51067 0.49916 0.0
C2259 C 0.02345 0.49366 0.52316 0.0
H2260 H 0.04324 0.53245 0.45955 0.0
H2261 H 0.07063 0.51732 0.49695 0.0
S2262 S 0.92839 0.4676 0.53749 0.0
N2263 N 0.93648 0.48593 0.50661 0.0
N2264 N 0.96612 0.46949 0.54712 0.0
C2265 C 0.9874 0.48562 0.52489 0.0
C2266 C 0.97125 0.49454 0.50286 0.0
C2267 C 0.49109 0.50412 0.47998 0.0
C2268 C 0.49874 0.47589 0.482 0.0
C2269 C 0.49993 0.52929 0.5012 0.0
C2270 C 0.51687 0.52741 0.52539 0.0
H2271 H 0.47829 0.50705 0.46175 0.0
H2272 H 0.49356 0.55053 0.49847 0.0
S2273 S 0.54195 0.45814 0.54142 0.0
N2274 N 0.52375 0.44723 0.51053 0.0
N2275 N 0.5404 0.49442 0.55032 0.0
C2276 C 0.5245 0.49918 0.5278 0.0
C2277 C 0.51546 0.4735 0.50617 0.0
C2278 C 0.5071 0.98937 0.47835 0.0
C2279 C 0.53494 0.02545 0.48008 0.0
C2280 C 0.48202 0.97317 0.49965 0.0
C2281 C 0.48365 0.99236 0.52358 0.0
H2282 H 0.5045 0.97335 0.46036 0.0
H2283 H 0.46111 0.94536 0.4972 0.0
S2284 S 0.55167 0.08748 0.53867 0.0
N2285 N 0.56282 0.07981 0.50798 0.0
N2286 N 0.5158 0.0495 0.54788 0.0
C2287 C 0.5114 0.02848 0.52564 0.0
C2288 C 0.53697 0.04497 0.50395 0.0
C2289 C 0.4926 0.98518 0.97768 0.0
C2290 C 0.50059 0.02121 0.97918 0.0
C2291 C 0.50121 0.96915 0.99925 0.0
C2292 C 0.51823 0.98845 0.02328 0.0
H2293 H 0.47955 0.96905 0.95966 0.0
H2294 H 0.49447 0.94138 0.99698 0.0
S2295 S 0.54466 0.08355 0.0378 0.0
N2296 N 0.52639 0.07567 0.00692 0.0
N2297 N 0.54257 0.0457 0.04735 0.0
C2298 C 0.52642 0.02454 0.02509 0.0
C2299 C 0.51763 0.04086 0.0031 0.0
C2300 C 0.02493 0.50715 0.97848 0.0
C2301 C 0.98901 0.47894 0.98029 0.0
C2302 C 0.04097 0.53229 0.99978 0.0
C2303 C 0.02179 0.53037 0.02381 0.0
H2304 H 0.04095 0.51002 0.96042 0.0
H2305 H 0.06865 0.55347 0.99726 0.0
S2306 S 0.92705 0.46132 0.03912 0.0
N2307 N 0.93482 0.45041 0.00837 0.0
N2308 N 0.9648 0.49751 0.04825 0.0
C2309 C 0.98583 0.50224 0.02594 0.0
C2310 C 0.9695 0.47662 0.00424 0.0
C2311 C 0.50577 0.52199 0.97593 0.0
C2312 C 0.53296 0.51284 0.97761 0.0
C2313 C 0.48007 0.51258 0.99679 0.0
C2314 C 0.4804 0.49355 0.02022 0.0
H2315 H 0.50419 0.53661 0.95834 0.0
H2316 H 0.45981 0.52037 0.99446 0.0
S2317 S 0.54579 0.46283 0.03465 0.0
N2318 N 0.55853 0.48344 0.00468 0.0
N2319 N 0.51027 0.46563 0.04379 0.0
C2320 C 0.50735 0.48403 0.02214 0.0
C2321 C 0.53357 0.49368 0.00089 0.0
C2322 C 0.19979 0.02345 0.00192 0.0
C2323 C 0.21387 0.02392 0.97564 0.0
C2324 C 0.20663 0.05544 0.01508 0.0
C2325 C 0.22848 0.08924 0.00275 0.0
H2326 H 0.18318 0.99814 0.01238 0.0
H2327 H 0.19537 0.05369 0.03535 0.0
S2328 S 0.27197 0.1055 0.93418 0.0
N2329 N 0.25049 0.06138 0.93777 0.0
N2330 N 0.26376 0.12119 0.9626 0.0
C2331 C 0.24266 0.09011 0.9765 0.0
C2332 C 0.23523 0.05757 0.96292 0.0
C2333 C 0.95663 0.18066 0.96609 0.0
C2334 C 0.99029 0.19144 0.97817 0.0
C2335 C 0.92445 0.15657 0.97953 0.0
C2336 C 0.92469 0.14156 0.00522 0.0
H2337 H 0.95509 0.19168 0.94644 0.0
H2338 H 0.89917 0.14958 0.96965 0.0
S2339 S 1.00584 0.15986 0.04501 0.0
N2340 N 0.02194 0.1848 0.01709 0.0
N2341 N 0.96165 0.13871 0.04187 0.0
C2342 C 0.95821 0.15143 0.01716 0.0
C2343 C 0.99094 0.17659 0.00379 0.0
C2344 C 0.86017 0.80592 0.01228 0.0
C2345 C 0.87037 0.78248 1.00033 0.0
C2346 C 0.83571 0.81369 0.99913 0.0
C2347 C 0.82116 0.79904 0.9732 0.0
H2348 H 0.87046 0.8177 0.03229 0.0
H2349 H 0.82819 0.83139 0.00935 0.0
S2350 S 0.84004 0.73688 0.93278 0.0
N2351 N 0.86442 0.74508 0.96091 0.0
N2352 N 0.81919 0.76019 0.93604 0.0
C2353 C 0.83178 0.77616 0.96081 0.0
C2354 C 0.85613 0.76772 0.97441 0.0
C2355 C 0.04792 0.24488 0.51111 0.0
C2356 C 0.0264 0.21176 0.52437 0.0
C2357 C 0.08088 0.2531 0.49897 0.0
C2358 C 0.09297 0.22807 0.49899 0.0
H2359 H 0.03954 0.26485 0.51061 0.0
H2360 H 0.09677 0.27906 0.48919 0.0
S2361 S 0.04605 0.13733 0.53069 0.0
N2362 N 0.01936 0.15392 0.53692 0.0
N2363 N 0.08061 0.16872 0.51333 0.0
C2364 C 0.07137 0.19466 0.51186 0.0
C2365 C 0.03827 0.18668 0.52479 0.0
C2366 C 0.81714 0.83441 0.50125 0.0
C2367 C 0.80283 0.82054 0.52742 0.0
C2368 C 0.81061 0.85983 0.48827 0.0
C2369 C 0.7888 0.87176 0.50067 0.0
H2370 H 0.83355 0.82554 0.49067 0.0
H2371 H 0.82195 0.86944 0.46803 0.0
S2372 S 0.74502 0.84412 0.56909 0.0
N2373 N 0.76631 0.8213 0.56537 0.0
N2374 N 0.75347 0.86831 0.54082 0.0
C2375 C 0.77452 0.85833 0.52688 0.0
C2376 C 0.78172 0.83298 0.54029 0.0
C2377 C 0.17773 0.98641 0.50136 0.0
C2378 C 0.1913 0.98609 0.52768 0.0
C2379 C 0.15309 0.95432 0.48808 0.0
C2380 C 0.1417 0.92058 0.50028 0.0
H2381 H 0.18623 0.01169 0.49091 0.0
H2382 H 0.14367 0.95595 0.46776 0.0
S2383 S 0.16871 0.90465 0.56896 0.0
N2384 N 0.19069 0.94881 0.56554 0.0
N2385 N 0.14523 0.88879 0.5404 0.0
C2386 C 0.15481 0.91984 0.52661 0.0
C2387 C 0.17932 0.95248 0.54035 0.0
C2388 C 0.77252 0.92088 0.02354 0.0
C2389 C 0.78825 0.92131 0.99802 0.0
C2390 C 0.78038 0.95295 0.037 0.0
C2391 C 0.80356 0.98675 0.02516 0.0
H2392 H 0.75403 0.89555 0.03327 0.0
H2393 H 0.76749 0.95119 0.05655 0.0
S2394 S 0.85197 1.00286 0.95882 0.0
N2395 N 0.8288 0.95863 0.96174 0.0
N2396 N 0.84261 0.01873 0.98663 0.0
C2397 C 0.81949 0.98761 0.99969 0.0
C2398 C 0.81213 0.95497 0.98627 0.0
C2399 C 0.09002 0.8539 0.02397 0.0
C2400 C 0.09001 0.86889 0.99822 0.0
C2401 C 0.05773 0.82986 0.0373 0.0
C2402 C 0.02416 0.81909 0.02505 0.0
H2403 H 0.11521 0.86084 0.03397 0.0
H2404 H 0.05912 0.81884 0.05699 0.0
S2405 S 0.00916 0.85063 0.95799 0.0
N2406 N 0.05333 0.87174 0.96133 0.0
N2407 N 0.99284 0.82574 0.98591 0.0
C2408 C 0.02373 0.83394 0.99938 0.0
C2409 C 0.05657 0.85906 0.98611 0.0
C2410 C 0.15309 0.2035 0.99056 0.0
C2411 C 0.14325 0.22716 0.0026 0.0
C2412 C 0.1776 0.19565 0.0035 0.0
C2413 C 0.19257 0.21046 0.0293 0.0
H2414 H 0.14251 0.19166 0.97062 0.0
H2415 H 0.18489 0.17783 0.99319 0.0
S2416 S 0.17457 0.27308 0.06993 0.0
N2417 N 0.14984 0.26482 0.04199 0.0
N2418 N 0.1952 0.2496 0.06648 0.0
C2419 C 0.18223 0.2335 0.04181 0.0
C2420 C 0.15782 0.242 0.02842 0.0
C2421 C 0.95388 0.80544 0.51237 0.0
C2422 C 0.9203 0.78213 0.50028 0.0
C2423 C 0.98621 0.81263 0.49963 0.0
C2424 C 0.98632 0.79744 0.47398 0.0
H2425 H 0.95524 0.81767 0.53216 0.0
H2426 H 0.01134 0.8304 0.50991 0.0
S2427 S 0.90558 0.73505 0.43341 0.0
N2428 N 0.88919 0.74406 0.46107 0.0
N2429 N 0.9497 0.75801 0.43699 0.0
C2430 C 0.9529 0.77453 0.46149 0.0
C2431 C 0.92 0.76673 0.47467 0.0
C2432 C 0.23454 0.18234 0.46522 0.0
C2433 C 0.21179 0.19344 0.47714 0.0
C2434 C 0.24198 0.15782 0.47861 0.0
C2435 C 0.22624 0.14266 0.50415 0.0
H2436 H 0.24742 0.19332 0.44564 0.0
H2437 H 0.26015 0.15061 0.46879 0.0
S2438 S 0.16344 0.16165 0.54356 0.0
N2439 N 0.17308 0.18695 0.51578 0.0
N2440 N 0.18608 0.14007 0.54055 0.0
C2441 C 0.20276 0.15292 0.51601 0.0
C2442 C 0.19584 0.17853 0.50264 0.0
C2443 C 0.84018 0.02823 0.49916 0.0
C2444 C 0.82477 0.02817 0.4736 0.0
C2445 C 0.86496 0.06057 0.51203 0.0
C2446 C 0.87463 0.09412 0.50016 0.0
H2447 H 0.83304 1.00308 0.50931 0.0
H2448 H 0.87585 0.05925 0.53181 0.0
S2449 S 0.84198 0.10887 0.43351 0.0
N2450 N 0.8214 0.06473 0.43685 0.0
N2451 N 0.86728 0.12528 0.46119 0.0
C2452 C 0.85957 0.09445 0.47458 0.0
C2453 C 0.83487 0.06156 0.46126 0.0
C2454 C 0.87445 0.39408 0.34473 0.0
C2455 C 0.89824 0.42758 0.33275 0.0
C2456 C 0.86708 0.3617 0.33202 0.0
C2457 C 0.8825 0.36151 0.3065 0.0
H2458 H 0.86215 0.39282 0.36447 0.0
H2459 H 0.84914 0.3366 0.34229 0.0
S2460 S 0.94578 0.44199 0.2661 0.0
N2461 N 0.93677 0.45855 0.29368 0.0
N2462 N 0.92237 0.39786 0.26961 0.0
C2463 C 0.90568 0.39482 0.29401 0.0
C2464 C 0.91372 0.42779 0.30719 0.0
C2465 C 0.59081 0.4898 0.31312 0.0
C2466 C 0.59104 0.47453 0.33868 0.0
C2467 C 0.62298 0.51425 0.29987 0.0
C2468 C 0.65667 0.52516 0.31199 0.0
H2469 H 0.56554 0.48268 0.30318 0.0
H2470 H 0.6214 0.52534 0.28027 0.0
S2471 S 0.67223 0.49316 0.37862 0.0
N2472 N 0.62805 0.47171 0.37534 0.0
N2473 N 0.68832 0.51846 0.35087 0.0
C2474 C 0.65732 0.51015 0.33753 0.0
C2475 C 0.62459 0.48462 0.35072 0.0
C2476 C 0.53118 0.14088 0.34695 0.0
C2477 C 0.54268 0.11861 0.33475 0.0
C2478 C 0.50612 0.14778 0.33382 0.0
C2479 C 0.49224 0.13338 0.3077 0.0
H2480 H 0.54093 0.15237 0.36712 0.0
H2481 H 0.49765 0.16464 0.3442 0.0
S2482 S 0.51468 0.07428 0.26659 0.0
N2483 N 0.53875 0.08265 0.2949 0.0
N2484 N 0.49238 0.09613 0.27006 0.0
C2485 C 0.50416 0.11169 0.29507 0.0
C2486 C 0.52914 0.10414 0.30864 0.0
C2487 C 0.69496 0.53112 0.8331 0.0
C2488 C 0.69544 0.54715 0.85848 0.0
C2489 C 0.72699 0.53731 0.8204 0.0
C2490 C 0.76078 0.5604 0.83229 0.0
H2491 H 0.66961 0.5134 0.82308 0.0
H2492 H 0.72526 0.52448 0.80082 0.0
S2493 S 0.77691 0.60952 0.89833 0.0
N2494 N 0.73277 0.58727 0.8949 0.0
N2495 N 0.79268 0.59921 0.87096 0.0
C2496 C 0.76162 0.57667 0.8576 0.0
C2497 C 0.72906 0.56994 0.8707 0.0
C2498 C 0.47376 0.19071 0.82281 0.0
C2499 C 0.44984 0.20041 0.83461 0.0
C2500 C 0.48033 0.16503 0.83527 0.0
C2501 C 0.4639 0.14868 0.86035 0.0
H2502 H 0.48695 0.20247 0.80346 0.0
H2503 H 0.49866 0.15815 0.8253 0.0
S2504 S 0.39936 0.16494 0.89988 0.0
N2505 N 0.40975 0.19162 0.87287 0.0
N2506 N 0.42255 0.14401 0.89642 0.0
C2507 C 0.44031 0.1585 0.87252 0.0
C2508 C 0.43314 0.18415 0.85962 0.0
C2509 C 0.84564 0.31638 0.835 0.0
C2510 C 0.85956 0.31586 0.8611 0.0
C2511 C 0.82012 0.28446 0.82203 0.0
C2512 C 0.8081 0.25067 0.83438 0.0
H2513 H 0.85442 0.34169 0.82451 0.0
H2514 H 0.81039 0.28625 0.80188 0.0
S2515 S 0.83597 0.23431 0.90255 0.0
N2516 N 0.8589 0.27842 0.89888 0.0
N2517 N 0.81166 0.21864 0.87434 0.0
C2518 C 0.82169 0.24973 0.86046 0.0
C2519 C 0.84717 0.28224 0.87387 0.0
C2520 C 0.44035 0.25321 0.35765 0.0
C2521 C 0.45665 0.25387 0.33235 0.0
C2522 C 0.44772 0.28517 0.37108 0.0
C2523 C 0.47092 0.31905 0.35938 0.0
H2524 H 0.42183 0.22778 0.36725 0.0
H2525 H 0.43444 0.28328 0.39047 0.0
S2526 S 0.5207 0.33576 0.29363 0.0
N2527 N 0.49775 0.29152 0.29645 0.0
N2528 N 0.51061 0.35136 0.32124 0.0
C2529 C 0.48741 0.32013 0.33413 0.0
C2530 C 0.48056 0.28763 0.32076 0.0
C2531 C 0.69824 0.16987 0.3358 0.0
C2532 C 0.69845 0.15519 0.36163 0.0
C2533 C 0.73036 0.19531 0.32304 0.0
C2534 C 0.76396 0.20645 0.33537 0.0
H2535 H 0.67303 0.16171 0.32536 0.0
H2536 H 0.72885 0.20562 0.30305 0.0
S2537 S 0.77942 0.17627 0.40289 0.0
N2538 N 0.73532 0.15408 0.39913 0.0
N2539 N 0.79549 0.2013 0.37503 0.0
C2540 C 0.76457 0.19213 0.36122 0.0
C2541 C 0.73189 0.16671 0.37439 0.0
C2542 C 0.84826 0.53281 0.33455 0.0
C2543 C 0.86434 0.54883 0.35978 0.0
C2544 C 0.82287 0.53976 0.32202 0.0
C2545 C 0.81323 0.56366 0.33393 0.0
H2546 H 0.85513 0.51453 0.32449 0.0
H2547 H 0.8113 0.52687 0.30256 0.0
S2548 S 0.84797 0.61306 0.39965 0.0
N2549 N 0.86876 0.58974 0.39613 0.0
N2550 N 0.82168 0.6032 0.37248 0.0
C2551 C 0.82919 0.57992 0.3591 0.0
C2552 C 0.85453 0.57237 0.37206 0.0
C2553 C 0.61865 0.13959 0.84456 0.0
C2554 C 0.58509 0.11553 0.8328 0.0
C2555 C 0.651 0.14739 0.83155 0.0
C2556 C 0.65114 0.13214 0.80592 0.0
H2557 H 0.61999 0.15179 0.86436 0.0
H2558 H 0.67614 0.16549 0.84168 0.0
S2559 S 0.57049 0.06831 0.766 0.0
N2560 N 0.55402 0.07696 0.7938 0.0
N2561 N 0.61463 0.09215 0.76919 0.0
C2562 C 0.61776 0.10872 0.79365 0.0
C2563 C 0.58482 0.10025 0.80713 0.0
C2564 C 0.87312 0.48309 0.84678 0.0
C2565 C 0.89576 0.47189 0.83479 0.0
C2566 C 0.86602 0.50795 0.8335 0.0
C2567 C 0.88057 0.52195 0.80741 0.0
H2568 H 0.86148 0.47327 0.86691 0.0
H2569 H 0.8489 0.5162 0.84374 0.0
S2570 S 0.94066 0.50033 0.76681 0.0
N2571 N 0.93226 0.47628 0.79515 0.0
N2572 N 0.9184 0.52224 0.77004 0.0
C2573 C 0.90264 0.51033 0.79499 0.0
C2574 C 0.9104 0.48556 0.80872 0.0
C2575 C 0.53518 0.39264 0.84287 0.0
C2576 C 0.53734 0.42529 0.83494 0.0
C2577 C 0.51001 0.35969 0.83088 0.0
C2578 C 0.48653 0.35827 0.81021 0.0
H2579 H 0.55282 0.39238 0.85866 0.0
H2580 H 0.50925 0.33525 0.83756 0.0
S2581 S 0.47946 0.43502 0.78282 0.0
N2582 N 0.51237 0.45332 0.80553 0.0
N2583 N 0.46562 0.39159 0.78312 0.0
C2584 C 0.4881 0.39042 0.80221 0.0
C2585 C 0.51334 0.42386 0.81454 0.0
C2586 C 0.53147 0.69205 0.66682 0.0
C2587 C 0.54635 0.69236 0.64092 0.0
C2588 C 0.5381 0.72412 0.6797 0.0
C2589 C 0.56058 0.75783 0.66748 0.0
H2590 H 0.51449 0.66678 0.67724 0.0
H2591 H 0.52627 0.7225 0.69972 0.0
S2592 S 0.60618 0.77363 0.59984 0.0
N2593 N 0.58426 0.72949 0.60346 0.0
N2594 N 0.59726 0.78955 0.62781 0.0
C2595 C 0.5755 0.75854 0.64157 0.0
C2596 C 0.56822 0.7259 0.62825 0.0
C2597 C 0.28775 0.81951 0.67902 0.0
C2598 C 0.25407 0.80829 0.66682 0.0
C2599 C 0.31982 0.84453 0.66594 0.0
C2600 C 0.31948 0.85862 0.63986 0.0
H2601 H 0.28935 0.80964 0.69917 0.0
H2602 H 0.34508 0.85288 0.67634 0.0
S2603 S 0.23823 0.8368 0.59872 0.0
N2604 N 0.2223 0.81258 0.62697 0.0
N2605 N 0.28237 0.85888 0.60223 0.0
C2606 C 0.28595 0.84689 0.62719 0.0
C2607 C 0.25332 0.82196 0.64071 0.0
C2608 C 0.19302 0.47156 0.68267 0.0
C2609 C 0.20553 0.45024 0.67027 0.0
C2610 C 0.16848 0.47889 0.66912 0.0
C2611 C 0.15615 0.46593 0.64238 0.0
H2612 H 0.20154 0.48192 0.70328 0.0
H2613 H 0.15913 0.49488 0.67972 0.0
S2614 S 0.18231 0.41023 0.60045 0.0
N2615 N 0.20457 0.41701 0.62954 0.0
N2616 N 0.15935 0.43139 0.60388 0.0
C2617 C 0.1693 0.44535 0.62954 0.0
C2618 C 0.19369 0.43732 0.64354 0.0
C2619 C 0.3951 0.89856 0.20453 0.0
C2620 C 0.36138 0.87557 0.19255 0.0
C2621 C 0.42722 0.90612 0.19124 0.0
C2622 C 0.42686 0.89023 0.1658 0.0
H2623 H 0.39676 0.91165 0.22395 0.0
H2624 H 0.45253 0.92457 0.201 0.0
S2625 S 0.34544 0.82668 0.12648 0.0
N2626 N 0.32952 0.83638 0.15409 0.0
N2627 N 0.38964 0.84957 0.12958 0.0
C2628 C 0.39324 0.8664 0.15401 0.0
C2629 C 0.3606 0.85937 0.16723 0.0
C2630 C 0.14815 0.50043 0.16645 0.0
C2631 C 0.13341 0.48575 0.19235 0.0
C2632 C 0.14127 0.52577 0.15371 0.0
C2633 C 0.11871 0.53682 0.16607 0.0
H2634 H 0.1653 0.49241 0.15598 0.0
H2635 H 0.15309 0.53614 0.13372 0.0
S2636 S 0.07315 0.50638 0.23368 0.0
N2637 N 0.0953 0.48444 0.22988 0.0
N2638 N 0.08191 0.53134 0.20581 0.0
C2639 C 0.10381 0.52237 0.19194 0.0
C2640 C 0.11131 0.49709 0.20511 0.0
C2641 C 0.49606 0.621 0.21608 0.0
C2642 C 0.52185 0.6474 0.1984 0.0
C2643 C 0.47087 0.58667 0.20648 0.0
C2644 C 0.47049 0.57695 0.17883 0.0
H2645 H 0.49553 0.62652 0.23775 0.0
H2646 H 0.45218 0.56729 0.2211 0.0
S2647 S 0.53001 0.63641 0.12333 0.0
N2648 N 0.54368 0.66168 0.15123 0.0
N2649 N 0.49661 0.59709 0.13338 0.0
C2650 C 0.49533 0.60322 0.16068 0.0
C2651 C 0.52086 0.63839 0.17039 0.0
C2652 C 0.1152 0.62037 0.70307 0.0
C2653 C 0.13734 0.65398 0.6906 0.0
C2654 C 0.10752 0.58819 0.6899 0.0
C2655 C 0.12244 0.58836 0.66407 0.0
H2656 H 0.10291 0.61883 0.72285 0.0
H2657 H 0.08979 0.56296 0.7001 0.0
S2658 S 0.18333 0.66938 0.6232 0.0
N2659 N 0.17457 0.68554 0.65113 0.0
N2660 N 0.16112 0.62522 0.6268 0.0
C2661 C 0.14535 0.62185 0.65169 0.0
C2662 C 0.1525 0.65458 0.66482 0.0
C2663 C 0.39466 0.49741 0.70538 0.0
C2664 C 0.36094 0.48717 0.69363 0.0
C2665 C 0.42679 0.5218 0.69204 0.0
C2666 C 0.42648 0.53765 0.66676 0.0
H2667 H 0.3963 0.48575 0.72469 0.0
H2668 H 0.45209 0.52831 0.70165 0.0
S2669 S 0.34509 0.52112 0.62804 0.0
N2670 N 0.32913 0.49533 0.65555 0.0
N2671 N 0.3893 0.54191 0.63092 0.0
C2672 C 0.39287 0.52833 0.65518 0.0
C2673 C 0.3602 0.5029 0.66846 0.0
C2674 C 0.51073 0.86498 0.66705 0.0
C2675 C 0.52578 0.88008 0.69276 0.0
C2676 C 0.4857 0.87223 0.6542 0.0
C2677 C 0.47536 0.89552 0.66627 0.0
H2678 H 0.51818 0.84724 0.65682 0.0
H2679 H 0.47499 0.86007 0.63437 0.0
S2680 S 0.50718 0.94243 0.73322 0.0
N2681 N 0.52834 0.91946 0.72972 0.0
N2682 N 0.482 0.93347 0.70548 0.0
C2683 C 0.49023 0.91083 0.69192 0.0
C2684 C 0.51521 0.90299 0.70519 0.0
C2685 C 0.28745 0.47486 0.17622 0.0
C2686 C 0.25356 0.45127 0.16475 0.0
C2687 C 0.31934 0.48196 0.16281 0.0
C2688 C 0.31859 0.46639 0.13715 0.0
H2689 H 0.28938 0.48721 0.19605 0.0
H2690 H 0.34477 0.49983 0.17264 0.0
S2691 S 0.23665 0.40361 0.09796 0.0
N2692 N 0.22117 0.4129 0.126 0.0
N2693 N 0.28086 0.42663 0.10072 0.0
C2694 C 0.28483 0.44341 0.12521 0.0
C2695 C 0.25241 0.43572 0.13904 0.0
C2696 C 0.5334 0.84306 0.16848 0.0
C2697 C 0.54635 0.85508 0.14167 0.0
C2698 C 0.53971 0.81777 0.18193 0.0
C2699 C 0.55993 0.8041 0.16936 0.0
H2700 H 0.51822 0.85326 0.1792 0.0
H2701 H 0.52948 0.80963 0.20263 0.0
S2702 S 0.59945 0.82616 0.0993 0.0
N2703 N 0.57966 0.85042 0.10292 0.0
N2704 N 0.59215 0.80373 0.12838 0.0
C2705 C 0.57279 0.8156 0.14254 0.0
C2706 C 0.5658 0.84081 0.12865 0.0
C2707 C 0.19357 0.72531 0.18071 0.0
C2708 C 0.2061 0.75905 0.16817 0.0
C2709 C 0.16855 0.69335 0.16749 0.0
C2710 C 0.15571 0.69377 0.14091 0.0
H2711 H 0.20244 0.7236 0.20123 0.0
H2712 H 0.15923 0.66809 0.1782 0.0
S2713 S 0.18152 0.77525 0.09867 0.0
N2714 N 0.20451 0.79097 0.12746 0.0
N2715 N 0.15834 0.73115 0.10239 0.0
C2716 C 0.16883 0.72737 0.1279 0.0
C2717 C 0.19373 0.75991 0.14158 0.0
C2718 C 0.33131 0.31471 0.10464 0.0
C2719 C 0.33052 0.3001 0.07846 0.0
C2720 C 0.34953 0.35196 0.10909 0.0
C2721 C 0.36733 0.3762 0.08748 0.0
H2722 H 0.31711 0.29731 0.12184 0.0
H2723 H 0.34854 0.36182 0.12939 0.0
S2724 S 0.37718 0.35264 0.01585 0.0
N2725 N 0.3523 0.31356 0.0312 0.0
N2726 N 0.38569 0.38336 0.03957 0.0
C2727 C 0.36801 0.3622 0.06151 0.0
C2728 C 0.34989 0.32426 0.05702 0.0
C2729 C 0.66126 1.00126 0.11053 0.0
C2730 C 0.63649 0.99375 0.08916 0.0
C2731 C 0.6984 0.01984 0.10551 0.0
C2732 C 0.71246 0.03225 0.07895 0.0
H2733 H 0.65193 0.99159 0.13116 0.0
H2734 H 0.71617 0.02392 0.12263 0.0
S2735 S 0.65858 0.02311 0.01652 0.0
N2736 N 0.62835 1.00236 0.04088 0.0
N2737 N 0.69801 0.03804 0.03147 0.0
C2738 C 0.68784 0.02645 0.05767 0.0
C2739 C 0.64996 0.00699 0.06275 0.0
C2740 C 0.996 0.67524 0.05767 0.0
C2741 C 0.97864 0.68281 0.07897 0.0
C2742 C 0.0151 0.65726 0.06289 0.0
C2743 C 0.0172 0.64559 0.08959 0.0
H2744 H 0.99594 0.68435 0.03692 0.0
H2745 H 0.02879 0.65305 0.04581 0.0
S2746 S 0.97251 0.65529 0.15197 0.0
N2747 N 0.96238 0.67513 0.12735 0.0
N2748 N 0.99736 0.64062 0.13719 0.0
C2749 C 0.99839 0.65157 0.11084 0.0
C2750 C 0.97941 0.67037 0.10554 0.0
C2751 C 0.31825 0.33046 0.39696 0.0
C2752 C 0.30418 0.32929 0.42344 0.0
C2753 C 0.35541 0.34866 0.392 0.0
C2754 C 0.38016 0.36599 0.41337 0.0
H2755 H 0.30047 0.31669 0.37986 0.0
H2756 H 0.36479 0.34801 0.37143 0.0
S2757 S 0.35812 0.37443 0.48579 0.0
N2758 N 0.31867 0.35008 0.47082 0.0
N2759 N 0.38833 0.38329 0.46154 0.0
C2760 C 0.3667 0.3662 0.4397 0.0
C2761 C 0.32882 0.34818 0.4447 0.0
C2762 C 0.66771 0.01154 0.3923 0.0
C2763 C 0.64952 0.01797 0.41364 0.0
C2764 C 0.68625 0.99295 0.3971 0.0
C2765 C 0.68703 0.97953 0.4234 0.0
H2766 H 0.66868 0.02198 0.37185 0.0
H2767 H 0.70063 0.9897 0.38004 0.0
S2768 S 0.6398 0.98576 0.48557 0.0
N2769 N 0.63107 0.0074 0.46153 0.0
N2770 N 0.66503 0.9717 0.47059 0.0
C2771 C 0.66743 0.98441 0.44465 0.0
C2772 C 0.64898 1.00383 0.43978 0.0
C2773 C 0.02595 0.69668 0.39623 0.0
C2774 C 0.03817 0.71076 0.42277 0.0
C2775 C 0.00786 0.65957 0.39124 0.0
C2776 C 1.00076 0.63483 0.41261 0.0
H2777 H 0.02967 0.71436 0.37912 0.0
H2778 H 0.99826 0.65022 0.37061 0.0
S2779 S 0.03002 0.65709 0.4852 0.0
N2780 N 0.04433 0.69644 0.47025 0.0
N2781 N 0.0096 0.62681 0.46085 0.0
C2782 C 0.01385 0.64835 0.439 0.0
C2783 C 0.03276 0.68621 0.44407 0.0
C2784 C 0.65925 0.64966 0.93789 0.0
C2785 C 0.64651 0.6357 0.91139 0.0
C2786 C 0.67724 0.68676 0.94306 0.0
C2787 C 0.68369 0.71154 0.92188 0.0
H2788 H 0.656 0.63188 0.95482 0.0
H2789 H 0.68735 0.6961 0.96359 0.0
S2790 S 0.65289 0.68965 0.84957 0.0
N2791 N 0.6392 0.65025 0.86424 0.0
N2792 N 0.67365 0.71978 0.87395 0.0
C2793 C 0.67005 0.69814 0.89557 0.0
C2794 C 0.65129 0.66034 0.89034 0.0
C2795 C 0.31563 0.9853 0.89683 0.0
C2796 C 0.30163 0.97339 0.92346 0.0
C2797 C 0.35274 1.00358 0.89174 0.0
C2798 C 0.37759 0.01123 0.9131 0.0
H2799 H 0.29787 0.98117 0.87969 0.0
H2800 H 0.36198 0.01292 0.87104 0.0
S2801 S 0.35558 0.98295 0.98595 0.0
N2802 N 0.31615 0.96809 0.97103 0.0
N2803 N 0.38578 1.00318 0.96149 0.0
C2804 C 0.36415 0.99841 0.9396 0.0
C2805 C 0.32628 0.97929 0.94475 0.0
C2806 C 0.0184 0.33485 0.94524 0.0
C2807 C 0.0361 0.32763 0.924 0.0
C2808 C 0.99938 0.3529 0.94002 0.0
C2809 C 0.99771 0.36499 0.91338 0.0
H2810 H 0.01812 0.32539 0.96592 0.0
H2811 H 0.98537 0.35679 0.95702 0.0
S2812 S 0.04357 0.3564 0.85126 0.0
N2813 N 0.05323 0.3361 0.87581 0.0
N2814 N 0.01846 0.37082 0.86596 0.0
C2815 C 0.01692 0.35939 0.89222 0.0
C2816 C 0.03579 0.34049 0.89752 0.0
C2817 C 0.68747 0.67539 0.5584 0.0
C2818 C 0.71248 0.68237 0.57949 0.0
C2819 C 0.65041 0.65683 0.56367 0.0
C2820 C 0.63666 0.64397 0.59021 0.0
H2821 H 0.69657 0.68536 0.53779 0.0
H2822 H 0.63248 0.65314 0.54676 0.0
S2823 S 0.69125 0.65169 0.6519 0.0
N2824 N 0.72119 0.67284 0.62744 0.0
N2825 N 0.65167 0.63724 0.63734 0.0
C2826 C 0.66153 0.64937 0.61121 0.0
C2827 C 0.69933 0.66876 0.60587 0.0
C2828 C 0.3316 0.02192 0.6044 0.0
C2829 C 0.32978 0.03419 0.57785 0.0
C2830 C 0.35036 1.00356 0.60935 0.0
C2831 C 0.36774 0.99619 0.58794 0.0
H2832 H 0.31791 0.02593 0.62158 0.0
H2833 H 0.35017 0.99404 0.63 0.0
S2834 S 0.37458 0.02525 0.51527 0.0
N2835 N 0.34989 0.03994 0.53029 0.0
N2836 N 0.38433 1.00473 0.5396 0.0
C2837 C 0.36728 0.00924 0.56152 0.0
C2838 C 0.34859 0.02842 0.55649 0.0
C2839 C 0.01277 0.36211 0.56453 0.0
C2840 C 0.01809 0.37577 0.59156 0.0
C2841 C 0.99401 0.32506 0.55934 0.0
C2842 C 0.98024 0.29996 0.58094 0.0
H2843 H 0.02363 0.38015 0.54711 0.0
H2844 H 0.99137 0.3161 0.53823 0.0
S2845 S 0.98364 0.32101 0.65524 0.0
N2846 N 1.00529 0.36066 0.64008 0.0
N2847 N 0.97089 0.29109 0.63025 0.0
C2848 C 0.98424 0.31302 0.60798 0.0
C2849 C 1.00285 0.35084 0.61328 0.0
C2850 C 0.99367 0.66436 0.77508 0.0
C2851 C 0.96886 0.65859 0.75411 0.0
C2852 C 0.03076 0.68325 0.77002 0.0
C2853 C 0.04467 0.69766 0.74383 0.0
H2854 H 0.98438 0.6532 0.7954 0.0
H2855 H 0.04858 0.68602 0.78677 0.0
S2856 S 0.99054 0.69331 0.68273 0.0
N2857 N 0.96043 0.67071 0.70676 0.0
N2858 N 0.03001 0.70705 0.69725 0.0
C2859 C 0.01997 0.69342 0.723 0.0
C2860 C 0.98215 0.67365 0.72811 0.0
C2861 C 0.327 0.34695 0.77241 0.0
C2862 C 0.31555 0.34954 0.74577 0.0
C2863 C 0.34521 0.32805 0.77735 0.0
C2864 C 0.35324 0.31134 0.75582 0.0
H2865 H 0.32235 0.36004 0.78969 0.0
H2866 H 0.35404 0.32757 0.79811 0.0
S2867 S 0.32693 0.30715 0.68269 0.0
N2868 N 0.31162 0.33122 0.69785 0.0
N2869 N 0.34656 0.29653 0.70716 0.0
C2870 C 0.34119 0.31274 0.72924 0.0
C2871 C 0.32214 0.33154 0.72422 0.0
C2872 C 0.66299 0.98174 0.77099 0.0
C2873 C 0.66263 0.96765 0.7447 0.0
C2874 C 0.68148 0.01885 0.77592 0.0
C2875 C 0.70004 0.04356 0.75473 0.0
H2876 H 0.64832 0.96405 0.78793 0.0
H2877 H 0.68018 0.02821 0.79634 0.0
S2878 S 0.71099 0.02135 0.68296 0.0
N2879 N 0.68543 0.98198 0.69774 0.0
N2880 N 0.71934 0.05163 0.70702 0.0
C2881 C 0.70102 0.03008 0.72861 0.0
C2882 C 0.68261 0.99221 0.72362 0.0
C2883 C 0.33044 0.98317 0.27111 0.0
C2884 C 0.31725 0.96917 0.2447 0.0
C2885 C 0.34884 0.02029 0.27616 0.0
C2886 C 0.35532 0.04506 0.25496 0.0
H2887 H 0.32708 0.9654 0.28806 0.0
H2888 H 0.35911 0.02963 0.29666 0.0
S2889 S 0.32383 0.0231 0.18282 0.0
N2890 N 0.30978 0.98368 0.19758 0.0
N2891 N 0.34511 0.05328 0.20707 0.0
C2892 C 0.34143 0.03165 0.22871 0.0
C2893 C 0.32219 0.99381 0.22361 0.0
C2894 C 0.99545 0.32981 0.2765 0.0
C2895 C 0.97047 0.31118 0.25551 0.0
C2896 C 0.03247 0.34817 0.27125 0.0
C2897 C 0.04614 0.34831 0.24484 0.0
H2898 H 0.98636 0.33131 0.29699 0.0
H2899 H 0.05041 0.36298 0.28802 0.0
S2900 S 0.99155 0.29951 0.18359 0.0
N2901 N 0.96164 0.29143 0.20792 0.0
N2902 N 0.03113 0.32511 0.19802 0.0
C2903 C 0.02129 0.32817 0.22399 0.0
C2904 C 0.98353 0.30989 0.22931 0.0
C2905 C 0.68242 0.66632 0.27879 0.0
C2906 C 0.70064 0.65998 0.25742 0.0
C2907 C 0.66304 0.68409 0.27386 0.0
C2908 C 0.66151 0.69676 0.24741 0.0
H2909 H 0.68207 0.65642 0.29933 0.0
H2910 H 0.64869 0.68737 0.29092 0.0
S2911 S 0.70843 0.69029 0.1851 0.0
N2912 N 0.71821 0.66973 0.20935 0.0
N2913 N 0.68281 0.7039 0.20004 0.0
C2914 C 0.68114 0.69192 0.22614 0.0
C2915 C 0.70037 0.67333 0.23114 0.0
loop_
_geom_bond_atom_site_label_1
_geom_bond_atom_site_label_2
_geom_bond_distance
_geom_bond_site_symmetry_2
_ccdc_geom_bond_type
Co0 O2 2.143 . S
Co0 O8 2.074 . S
Co0 O11 2.093 . S
Co0 O24 2.097 . S
Co0 N41 2.151 . S
Co0 N49 2.214 . S
Co1 O2 2.160 . S
Co1 O7 2.058 . S
Co1 O17 2.057 . S
Co1 O32 2.037 . S
Co1 N36 2.145 1_554 S
Co1 N57 2.257 . S
O2 Co0 2.143 . S
O2 Co1 2.160 . S
C3 O4 1.278 . S
C3 O11 1.224 . S
O4 C3 1.278 . S
C5 O6 1.245 . S
C5 O17 1.232 . S
O6 C5 1.245 . S
O7 Co1 2.058 . S
O7 C33 1.269 . S
O8 Co0 2.074 . S
O8 C33 1.257 . S
H9 C34 0.930 . S
H10 C40 0.930 . S
O11 Co0 2.093 . S
O11 C3 1.224 . S
H12 C44 0.929 . S
H13 C46 0.930 . S
H14 C47 0.930 . S
H15 C45 0.929 . S
H16 C48 0.928 . S
O17 Co1 2.057 . S
O17 C5 1.232 . S
H18 C37 0.929 . S
H19 C38 0.929 . S
H20 C50 0.931 . S
H21 C42 0.929 . S
H22 C51 0.930 . S
H23 C43 0.931 . S
O24 Co0 2.097 . S
O24 C52 1.214 . S
H25 C53 0.929 . S
H26 C54 0.929 . S
H27 C55 0.930 . S
H28 C56 0.929 . S
H29 C58 0.930 . S
H30 C35 0.930 . S
H31 C39 0.930 . S
O32 Co1 2.037 . S
O32 C52 1.234 . S
C33 O7 1.269 . S
C33 O8 1.257 . S
C34 H9 0.930 . S
C34 C37 1.388 . S
C34 C39 1.418 . S
C35 H30 0.930 . S
C35 C38 1.404 . S
C35 C39 1.353 . S
N36 Co1 2.145 1_556 S
N36 C37 1.397 . S
N36 C38 1.334 . S
C37 H18 0.929 . S
C37 C34 1.388 . S
C37 N36 1.397 . S
C38 H19 0.929 . S
C38 C35 1.404 . S
C38 N36 1.334 . S
C39 H31 0.930 . S
C39 C34 1.418 . S
C39 C35 1.353 . S
C40 H10 0.930 . S
C40 N41 1.330 . S
C40 C42 1.446 . S
N41 Co0 2.151 . S
N41 C40 1.330 . S
N41 C45 1.418 . S
C42 H21 0.929 . S
C42 C40 1.446 . S
C42 C43 1.332 . S
C43 H23 0.931 . S
C43 C42 1.332 . S
C43 C44 1.267 . S
C44 H12 0.929 . S
C44 C43 1.267 . S
C44 C45 1.251 . S
C45 H15 0.929 . S
C45 N41 1.418 . S
C45 C44 1.251 . S
C46 H13 0.930 . S
C46 C48 1.406 . S
C46 C51 1.261 . S
C47 H14 0.930 . S
C47 N49 1.325 . S
C47 C50 1.357 . S
C48 H16 0.928 . S
C48 C46 1.406 . S
C48 N49 1.261 . S
N49 Co0 2.214 . S
N49 C47 1.325 . S
N49 C48 1.261 . S
C50 H20 0.931 . S
C50 C47 1.357 . S
C50 C51 1.312 . S
C51 H22 0.930 . S
C51 C46 1.261 . S
C51 C50 1.312 . S
C52 O24 1.214 . S
C52 O32 1.234 . S
C53 H25 0.929 . S
C53 C56 1.391 . S
C53 C58 1.391 . S
C54 H26 0.929 . S
C54 C55 1.390 . S
C54 N57 1.391 . S
C55 H27 0.930 . S
C55 C54 1.390 . S
C55 C56 1.392 . S
C56 H28 0.929 . S
C56 C53 1.391 . S
C56 C55 1.392 . S
N57 Co1 2.257 . S
N57 C54 1.391 . S
N57 C58 1.388 . S
C58 H29 0.930 . S
C58 C53 1.391 . S
C58 N57 1.388 . S
Co59 O61 2.143 . S
Co59 O67 2.074 . S
Co59 O70 2.093 . S
Co59 O83 2.097 . S
Co59 N100 2.151 . S
Co59 N108 2.214 . S
Co60 O61 2.160 . S
Co60 O66 2.058 . S
Co60 O76 2.057 . S
Co60 O91 2.037 . S
Co60 N95 2.145 1_554 S
Co60 N116 2.257 . S
O61 Co59 2.143 . S
O61 Co60 2.160 . S
C62 O63 1.278 . S
C62 O70 1.224 . S
O63 C62 1.278 . S
C64 O65 1.245 . S
C64 O76 1.232 . S
O65 C64 1.245 . S
O66 Co60 2.058 . S
O66 C92 1.269 . S
O67 Co59 2.074 . S
O67 C92 1.257 . S
H68 C93 0.930 . S
H69 C99 0.930 . S
O70 Co59 2.093 . S
O70 C62 1.224 . S
H71 C103 0.929 1_565 S
H72 C105 0.930 . S
H73 C106 0.930 . S
H74 C104 0.929 1_565 S
H75 C107 0.928 1_545 S
O76 Co60 2.057 . S
O76 C64 1.232 . S
H77 C96 0.929 . S
H78 C97 0.929 . S
H79 C109 0.931 . S
H80 C101 0.929 . S
H81 C110 0.930 . S
H82 C102 0.931 . S
O83 Co59 2.097 . S
O83 C111 1.214 . S
H84 C112 0.929 . S
H85 C113 0.929 . S
H86 C114 0.930 . S
H87 C115 0.929 . S
H88 C117 0.930 . S
H89 C94 0.930 . S
H90 C98 0.930 . S
O91 Co60 2.037 . S
O91 C111 1.234 . S
C92 O66 1.269 . S
C92 O67 1.257 . S
C93 H68 0.930 . S
C93 C96 1.388 . S
C93 C98 1.418 . S
C94 H89 0.930 . S
C94 C97 1.404 . S
C94 C98 1.353 . S
N95 Co60 2.145 1_556 S
N95 C96 1.397 . S
N95 C97 1.334 . S
C96 H77 0.929 . S
C96 C93 1.388 . S
C96 N95 1.397 . S
C97 H78 0.929 . S
C97 C94 1.404 . S
C97 N95 1.334 . S
C98 H90 0.930 . S
C98 C93 1.418 . S
C98 C94 1.353 . S
C99 H69 0.930 . S
C99 N100 1.330 . S
C99 C101 1.446 . S
N100 Co59 2.151 . S
N100 C99 1.330 . S
N100 C104 1.418 . S
C101 H80 0.929 . S
C101 C99 1.446 . S
C101 C102 1.332 . S
C102 H82 0.931 . S
C102 C101 1.332 . S
C102 C103 1.267 . S
C103 H71 0.929 1_545 S
C103 C102 1.267 . S
C103 C104 1.251 . S
C104 H74 0.929 1_545 S
C104 N100 1.418 . S
C104 C103 1.251 . S
C105 H72 0.930 . S
C105 C107 1.406 . S
C105 C110 1.261 . S
C106 H73 0.930 . S
C106 N108 1.325 1_565 S
C106 C109 1.357 . S
C107 H75 0.928 1_565 S
C107 C105 1.406 . S
C107 N108 1.261 1_565 S
N108 Co59 2.214 . S
N108 C106 1.325 1_545 S
N108 C107 1.261 1_545 S
C109 H79 0.931 . S
C109 C106 1.357 . S
C109 C110 1.312 . S
C110 H81 0.930 . S
C110 C105 1.261 . S
C110 C109 1.312 . S
C111 O83 1.214 . S
C111 O91 1.234 . S
C112 H84 0.929 . S
C112 C115 1.391 . S
C112 C117 1.391 . S
C113 H85 0.929 . S
C113 C114 1.390 . S
C113 N116 1.391 . S
C114 H86 0.930 . S
C114 C113 1.390 . S
C114 C115 1.392 . S
C115 H87 0.929 . S
C115 C112 1.391 . S
C115 C114 1.392 . S
N116 Co60 2.257 . S
N116 C113 1.391 . S
N116 C117 1.388 . S
C117 H88 0.930 . S
C117 C112 1.391 . S
C117 N116 1.388 . S
Co118 O120 2.143 . S
Co118 O126 2.074 . S
Co118 O129 2.093 . S
Co118 O142 2.097 . S
Co118 N159 2.151 . S
Co118 N167 2.214 . S
Co119 O120 2.160 . S
Co119 O125 2.058 . S
Co119 O135 2.057 . S
Co119 O150 2.037 . S
Co119 N154 2.145 1_554 S
Co119 N175 2.257 . S
O120 Co118 2.143 . S
O120 Co119 2.160 . S
C121 O122 1.278 . S
C121 O129 1.224 . S
O122 C121 1.278 . S
C123 O124 1.245 . S
C123 O135 1.232 . S
O124 C123 1.245 . S
O125 Co119 2.058 . S
O125 C151 1.269 . S
O126 Co118 2.074 . S
O126 C151 1.257 . S
H127 C152 0.930 . S
H128 C158 0.930 . S
O129 Co118 2.093 . S
O129 C121 1.224 . S
H130 C162 0.929 1_455 S
H131 C164 0.930 . S
H132 C165 0.930 . S
H133 C163 0.929 1_455 S
H134 C166 0.928 1_655 S
O135 Co119 2.057 . S
O135 C123 1.232 . S
H136 C155 0.929 . S
H137 C156 0.929 . S
H138 C168 0.931 . S
H139 C160 0.929 . S
H140 C169 0.930 . S
H141 C161 0.931 . S
O142 Co118 2.097 . S
O142 C170 1.214 . S
H143 C171 0.929 . S
H144 C172 0.929 . S
H145 C173 0.930 . S
H146 C174 0.929 . S
H147 C176 0.930 . S
H148 C153 0.930 . S
H149 C157 0.930 . S
O150 Co119 2.037 . S
O150 C170 1.234 . S
C151 O125 1.269 . S
C151 O126 1.257 . S
C152 H127 0.930 . S
C152 C155 1.388 . S
C152 C157 1.418 . S
C153 H148 0.930 . S
C153 C156 1.404 . S
C153 C157 1.353 . S
N154 Co119 2.145 1_556 S
N154 C155 1.397 . S
N154 C156 1.334 . S
C155 H136 0.929 . S
C155 C152 1.388 . S
C155 N154 1.397 . S
C156 H137 0.929 . S
C156 C153 1.404 . S
C156 N154 1.334 . S
C157 H149 0.930 . S
C157 C152 1.418 . S
C157 C153 1.353 . S
C158 H128 0.930 . S
C158 N159 1.330 . S
C158 C160 1.446 . S
N159 Co118 2.151 . S
N159 C158 1.330 . S
N159 C163 1.418 . S
C160 H139 0.929 . S
C160 C158 1.446 . S
C160 C161 1.332 . S
C161 H141 0.931 . S
C161 C160 1.332 . S
C161 C162 1.267 . S
C162 H130 0.929 1_655 S
C162 C161 1.267 . S
C162 C163 1.251 . S
C163 H133 0.929 1_655 S
C163 N159 1.418 . S
C163 C162 1.251 . S
C164 H131 0.930 . S
C164 C166 1.406 . S
C164 C169 1.261 . S
C165 H132 0.930 . S
C165 N167 1.325 1_455 S
C165 C168 1.357 . S
C166 H134 0.928 1_455 S
C166 C164 1.406 . S
C166 N167 1.261 1_455 S
N167 Co118 2.214 . S
N167 C165 1.325 1_655 S
N167 C166 1.261 1_655 S
C168 H138 0.931 . S
C168 C165 1.357 . S
C168 C169 1.312 . S
C169 H140 0.930 . S
C169 C164 1.261 . S
C169 C168 1.312 . S
C170 O142 1.214 . S
C170 O150 1.234 . S
C171 H143 0.929 . S
C171 C174 1.391 . S
C171 C176 1.391 . S
C172 H144 0.929 . S
C172 C173 1.390 . S
C172 N175 1.391 . S
C173 H145 0.930 . S
C173 C172 1.390 . S
C173 C174 1.392 . S
C174 H146 0.929 . S
C174 C171 1.391 . S
C174 C173 1.392 . S
N175 Co119 2.257 . S
N175 C172 1.391 . S
N175 C176 1.388 . S
C176 H147 0.930 . S
C176 C171 1.391 . S
C176 N175 1.388 . S
Co177 O179 2.143 . S
Co177 O185 2.074 . S
Co177 O188 2.093 . S
Co177 O201 2.097 . S
Co177 N218 2.151 . S
Co177 N226 2.214 . S
Co178 O179 2.160 . S
Co178 O184 2.058 . S
Co178 O194 2.057 . S
Co178 O209 2.037 . S
Co178 N213 2.145 . S
Co178 N234 2.257 . S
O179 Co177 2.143 . S
O179 Co178 2.160 . S
C180 O181 1.278 . S
C180 O188 1.224 . S
O181 C180 1.278 . S
C182 O183 1.245 . S
C182 O194 1.232 . S
O183 C182 1.245 . S
O184 Co178 2.058 . S
O184 C210 1.269 . S
O185 Co177 2.074 . S
O185 C210 1.257 . S
H186 C211 0.930 . S
H187 C217 0.930 . S
O188 Co177 2.093 . S
O188 C180 1.224 . S
H189 C221 0.929 . S
H190 C223 0.930 . S
H191 C224 0.930 . S
H192 C222 0.929 . S
H193 C225 0.928 . S
O194 Co178 2.057 . S
O194 C182 1.232 . S
H195 C214 0.929 . S
H196 C215 0.929 . S
H197 C227 0.931 . S
H198 C219 0.929 . S
H199 C228 0.930 . S
H200 C220 0.931 . S
O201 Co177 2.097 . S
O201 C229 1.214 . S
H202 C230 0.929 . S
H203 C231 0.929 . S
H204 C232 0.930 . S
H205 C233 0.929 . S
H206 C235 0.930 . S
H207 C212 0.930 . S
H208 C216 0.930 . S
O209 Co178 2.037 . S
O209 C229 1.234 . S
C210 O184 1.269 . S
C210 O185 1.257 . S
C211 H186 0.930 . S
C211 C214 1.388 . S
C211 C216 1.418 . S
C212 H207 0.930 . S
C212 C215 1.404 . S
C212 C216 1.353 . S
N213 Co178 2.145 . S
N213 C214 1.397 . S
N213 C215 1.334 . S
C214 H195 0.929 . S
C214 C211 1.388 . S
C214 N213 1.397 . S
C215 H196 0.929 . S
C215 C212 1.404 . S
C215 N213 1.334 . S
C216 H208 0.930 . S
C216 C211 1.418 . S
C216 C212 1.353 . S
C217 H187 0.930 . S
C217 N218 1.330 . S
C217 C219 1.446 . S
N218 Co177 2.151 . S
N218 C217 1.330 . S
N218 C222 1.418 . S
C219 H198 0.929 . S
C219 C217 1.446 . S
C219 C220 1.332 . S
C220 H200 0.931 . S
C220 C219 1.332 . S
C220 C221 1.267 . S
C221 H189 0.929 . S
C221 C220 1.267 . S
C221 C222 1.251 . S
C222 H192 0.929 . S
C222 N218 1.418 . S
C222 C221 1.251 . S
C223 H190 0.930 . S
C223 C225 1.406 . S
C223 C228 1.261 . S
C224 H191 0.930 . S
C224 N226 1.325 . S
C224 C227 1.357 . S
C225 H193 0.928 . S
C225 C223 1.406 . S
C225 N226 1.261 . S
N226 Co177 2.214 . S
N226 C224 1.325 . S
N226 C225 1.261 . S
C227 H197 0.931 . S
C227 C224 1.357 . S
C227 C228 1.312 . S
C228 H199 0.930 . S
C228 C223 1.261 . S
C228 C227 1.312 . S
C229 O201 1.214 . S
C229 O209 1.234 . S
C230 H202 0.929 . S
C230 C233 1.391 . S
C230 C235 1.391 . S
C231 H203 0.929 . S
C231 C232 1.390 . S
C231 N234 1.391 . S
C232 H204 0.930 . S
C232 C231 1.390 . S
C232 C233 1.392 . S
C233 H205 0.929 . S
C233 C230 1.391 . S
C233 C232 1.392 . S
N234 Co178 2.257 . S
N234 C231 1.391 . S
N234 C235 1.388 . S
C235 H206 0.930 . S
C235 C230 1.391 . S
C235 N234 1.388 . S
Co236 O238 2.143 . S
Co236 O244 2.074 . S
Co236 O247 2.093 . S
Co236 O260 2.097 . S
Co236 N277 2.151 . S
Co236 N285 2.214 . S
Co237 O238 2.160 . S
Co237 O243 2.058 . S
Co237 O253 2.057 . S
Co237 O268 2.037 . S
Co237 N272 2.145 . S
Co237 N293 2.257 . S
O238 Co236 2.143 . S
O238 Co237 2.160 . S
C239 O240 1.278 . S
C239 O247 1.224 . S
O240 C239 1.278 . S
C241 O242 1.245 . S
C241 O253 1.232 . S
O242 C241 1.245 . S
O243 Co237 2.058 . S
O243 C269 1.269 . S
O244 Co236 2.074 . S
O244 C269 1.257 . S
H245 C270 0.930 . S
H246 C276 0.930 . S
O247 Co236 2.093 . S
O247 C239 1.224 . S
H248 C280 0.929 1_545 S
H249 C282 0.930 . S
H250 C283 0.930 . S
H251 C281 0.929 1_545 S
H252 C284 0.928 1_565 S
O253 Co237 2.057 . S
O253 C241 1.232 . S
H254 C273 0.929 . S
H255 C274 0.929 . S
H256 C286 0.931 . S
H257 C278 0.929 . S
H258 C287 0.930 . S
H259 C279 0.931 . S
O260 Co236 2.097 . S
O260 C288 1.214 . S
H261 C289 0.929 . S
H262 C290 0.929 . S
H263 C291 0.930 . S
H264 C292 0.929 . S
H265 C294 0.930 . S
H266 C271 0.930 . S
H267 C275 0.930 . S
O268 Co237 2.037 . S
O268 C288 1.234 . S
C269 O243 1.269 . S
C269 O244 1.257 . S
C270 H245 0.930 . S
C270 C273 1.388 . S
C270 C275 1.418 . S
C271 H266 0.930 . S
C271 C274 1.404 . S
C271 C275 1.353 . S
N272 Co237 2.145 . S
N272 C273 1.397 . S
N272 C274 1.334 . S
C273 H254 0.929 . S
C273 C270 1.388 . S
C273 N272 1.397 . S
C274 H255 0.929 . S
C274 C271 1.404 . S
C274 N272 1.334 . S
C275 H267 0.930 . S
C275 C270 1.418 . S
C275 C271 1.353 . S
C276 H246 0.930 . S
C276 N277 1.330 . S
C276 C278 1.446 . S
N277 Co236 2.151 . S
N277 C276 1.330 . S
N277 C281 1.418 . S
C278 H257 0.929 . S
C278 C276 1.446 . S
C278 C279 1.332 . S
C279 H259 0.931 . S
C279 C278 1.332 . S
C279 C280 1.267 . S
C280 H248 0.929 1_565 S
C280 C279 1.267 . S
C280 C281 1.251 . S
C281 H251 0.929 1_565 S
C281 N277 1.418 . S
C281 C280 1.251 . S
C282 H249 0.930 . S
C282 C284 1.406 . S
C282 C287 1.261 . S
C283 H250 0.930 . S
C283 N285 1.325 1_545 S
C283 C286 1.357 . S
C284 H252 0.928 1_545 S
C284 C282 1.406 . S
C284 N285 1.261 1_545 S
N285 Co236 2.214 . S
N285 C283 1.325 1_565 S
N285 C284 1.261 1_565 S
C286 H256 0.931 . S
C286 C283 1.357 . S
C286 C287 1.312 . S
C287 H258 0.930 . S
C287 C282 1.261 . S
C287 C286 1.312 . S
C288 O260 1.214 . S
C288 O268 1.234 . S
C289 H261 0.929 . S
C289 C292 1.391 . S
C289 C294 1.391 . S
C290 H262 0.929 . S
C290 C291 1.390 . S
C290 N293 1.391 . S
C291 H263 0.930 . S
C291 C290 1.390 . S
C291 C292 1.392 . S
C292 H264 0.929 . S
C292 C289 1.391 . S
C292 C291 1.392 . S
N293 Co237 2.257 . S
N293 C290 1.391 . S
N293 C294 1.388 . S
C294 H265 0.930 . S
C294 C289 1.391 . S
C294 N293 1.388 . S
Co295 O297 2.143 . S
Co295 O303 2.074 . S
Co295 O306 2.093 . S
Co295 O319 2.097 . S
Co295 N336 2.151 . S
Co295 N344 2.214 . S
Co296 O297 2.160 . S
Co296 O302 2.058 . S
Co296 O312 2.057 . S
Co296 O327 2.037 . S
Co296 N331 2.145 . S
Co296 N352 2.257 . S
O297 Co295 2.143 . S
O297 Co296 2.160 . S
C298 O299 1.278 . S
C298 O306 1.224 . S
O299 C298 1.278 . S
C300 O301 1.245 . S
C300 O312 1.232 . S
O301 C300 1.245 . S
O302 Co296 2.058 . S
O302 C328 1.269 . S
O303 Co295 2.074 . S
O303 C328 1.257 . S
H304 C329 0.930 . S
H305 C335 0.930 . S
O306 Co295 2.093 . S
O306 C298 1.224 . S
H307 C339 0.929 1_655 S
H308 C341 0.930 . S
H309 C342 0.930 . S
H310 C340 0.929 1_655 S
H311 C343 0.928 1_455 S
O312 Co296 2.057 . S
O312 C300 1.232 . S
H313 C332 0.929 . S
H314 C333 0.929 . S
H315 C345 0.931 . S
H316 C337 0.929 . S
H317 C346 0.930 . S
H318 C338 0.931 . S
O319 Co295 2.097 . S
O319 C347 1.214 . S
H320 C348 0.929 . S
H321 C349 0.929 . S
H322 C350 0.930 . S
H323 C351 0.929 . S
H324 C353 0.930 . S
H325 C330 0.930 . S
H326 C334 0.930 . S
O327 Co296 2.037 . S
O327 C347 1.234 . S
C328 O302 1.269 . S
C328 O303 1.257 . S
C329 H304 0.930 . S
C329 C332 1.388 . S
C329 C334 1.418 . S
C330 H325 0.930 . S
C330 C333 1.404 . S
C330 C334 1.353 . S
N331 Co296 2.145 . S
N331 C332 1.397 . S
N331 C333 1.334 . S
C332 H313 0.929 . S
C332 C329 1.388 . S
C332 N331 1.397 . S
C333 H314 0.929 . S
C333 C330 1.404 . S
C333 N331 1.334 . S
C334 H326 0.930 . S
C334 C329 1.418 . S
C334 C330 1.353 . S
C335 H305 0.930 . S
C335 N336 1.330 . S
C335 C337 1.446 . S
N336 Co295 2.151 . S
N336 C335 1.330 . S
N336 C340 1.418 . S
C337 H316 0.929 . S
C337 C335 1.446 . S
C337 C338 1.332 . S
C338 H318 0.931 . S
C338 C337 1.332 . S
C338 C339 1.267 . S
C339 H307 0.929 1_455 S
C339 C338 1.267 . S
C339 C340 1.251 . S
C340 H310 0.929 1_455 S
C340 N336 1.418 . S
C340 C339 1.251 . S
C341 H308 0.930 . S
C341 C343 1.406 . S
C341 C346 1.261 . S
C342 H309 0.930 . S
C342 N344 1.325 1_655 S
C342 C345 1.357 . S
C343 H311 0.928 1_655 S
C343 C341 1.406 . S
C343 N344 1.261 1_655 S
N344 Co295 2.214 . S
N344 C342 1.325 1_455 S
N344 C343 1.261 1_455 S
C345 H315 0.931 . S
C345 C342 1.357 . S
C345 C346 1.312 . S
C346 H317 0.930 . S
C346 C341 1.261 . S
C346 C345 1.312 . S
C347 O319 1.214 . S
C347 O327 1.234 . S
C348 H320 0.929 . S
C348 C351 1.391 . S
C348 C353 1.391 . S
C349 H321 0.929 . S
C349 C350 1.390 . S
C349 N352 1.391 . S
C350 H322 0.930 . S
C350 C349 1.390 . S
C350 C351 1.392 . S
C351 H323 0.929 . S
C351 C348 1.391 . S
C351 C350 1.392 . S
N352 Co296 2.257 . S
N352 C349 1.391 . S
N352 C353 1.388 . S
C353 H324 0.930 . S
C353 C348 1.391 . S
C353 N352 1.388 . S
Co354 O356 2.143 . S
Co354 O362 2.074 . S
Co354 O365 2.093 . S
Co354 O378 2.097 . S
Co354 N395 2.151 . S
Co354 N403 2.214 . S
Co355 O356 2.160 . S
Co355 O361 2.058 . S
Co355 O371 2.057 . S
Co355 O386 2.037 . S
Co355 N390 2.145 1_556 S
Co355 N411 2.257 . S
O356 Co354 2.143 . S
O356 Co355 2.160 . S
C357 O358 1.278 . S
C357 O365 1.224 . S
O358 C357 1.278 . S
C359 O360 1.245 . S
C359 O371 1.232 . S
O360 C359 1.245 . S
O361 Co355 2.058 . S
O361 C387 1.269 . S
O362 Co354 2.074 . S
O362 C387 1.257 . S
H363 C388 0.930 . S
H364 C394 0.930 . S
O365 Co354 2.093 . S
O365 C357 1.224 . S
H366 C398 0.929 . S
H367 C400 0.930 . S
H368 C401 0.930 . S
H369 C399 0.929 . S
H370 C402 0.928 . S
O371 Co355 2.057 . S
O371 C359 1.232 . S
H372 C391 0.929 . S
H373 C392 0.929 . S
H374 C404 0.931 . S
H375 C396 0.929 . S
H376 C405 0.930 . S
H377 C397 0.931 . S
O378 Co354 2.097 . S
O378 C406 1.214 . S
H379 C407 0.929 . S
H380 C408 0.929 . S
H381 C409 0.930 . S
H382 C410 0.929 . S
H383 C412 0.930 . S
H384 C389 0.930 . S
H385 C393 0.930 . S
O386 Co355 2.037 . S
O386 C406 1.234 . S
C387 O361 1.269 . S
C387 O362 1.257 . S
C388 H363 0.930 . S
C388 C391 1.388 . S
C388 C393 1.418 . S
C389 H384 0.930 . S
C389 C392 1.404 . S
C389 C393 1.353 . S
N390 Co355 2.145 1_554 S
N390 C391 1.397 . S
N390 C392 1.334 . S
C391 H372 0.929 . S
C391 C388 1.388 . S
C391 N390 1.397 . S
C392 H373 0.929 . S
C392 C389 1.404 . S
C392 N390 1.334 . S
C393 H385 0.930 . S
C393 C388 1.418 . S
C393 C389 1.353 . S
C394 H364 0.930 . S
C394 N395 1.330 . S
C394 C396 1.446 . S
N395 Co354 2.151 . S
N395 C394 1.330 . S
N395 C399 1.418 . S
C396 H375 0.929 . S
C396 C394 1.446 . S
C396 C397 1.332 . S
C397 H377 0.931 . S
C397 C396 1.332 . S
C397 C398 1.267 . S
C398 H366 0.929 . S
C398 C397 1.267 . S
C398 C399 1.251 . S
C399 H369 0.929 . S
C399 N395 1.418 . S
C399 C398 1.251 . S
C400 H367 0.930 . S
C400 C402 1.406 . S
C400 C405 1.261 . S
C401 H368 0.930 . S
C401 N403 1.325 . S
C401 C404 1.357 . S
C402 H370 0.928 . S
C402 C400 1.406 . S
C402 N403 1.261 . S
N403 Co354 2.214 . S
N403 C401 1.325 . S
N403 C402 1.261 . S
C404 H374 0.931 . S
C404 C401 1.357 . S
C404 C405 1.312 . S
C405 H376 0.930 . S
C405 C400 1.261 . S
C405 C404 1.312 . S
C406 O378 1.214 . S
C406 O386 1.234 . S
C407 H379 0.929 . S
C407 C410 1.391 . S
C407 C412 1.391 . S
C408 H380 0.929 . S
C408 C409 1.390 . S
C408 N411 1.391 . S
C409 H381 0.930 . S
C409 C408 1.390 . S
C409 C410 1.392 . S
C410 H382 0.929 . S
C410 C407 1.391 . S
C410 C409 1.392 . S
N411 Co355 2.257 . S
N411 C408 1.391 . S
N411 C412 1.388 . S
C412 H383 0.930 . S
C412 C407 1.391 . S
C412 N411 1.388 . S
Co413 O415 2.143 . S
Co413 O421 2.074 . S
Co413 O424 2.093 . S
Co413 O437 2.097 . S
Co413 N454 2.151 . S
Co413 N462 2.214 . S
Co414 O415 2.160 . S
Co414 O420 2.058 . S
Co414 O430 2.057 . S
Co414 O445 2.037 . S
Co414 N449 2.145 1_556 S
Co414 N470 2.257 . S
O415 Co413 2.143 . S
O415 Co414 2.160 . S
C416 O417 1.278 . S
C416 O424 1.224 . S
O417 C416 1.278 . S
C418 O419 1.245 . S
C418 O430 1.232 . S
O419 C418 1.245 . S
O420 Co414 2.058 . S
O420 C446 1.269 . S
O421 Co413 2.074 . S
O421 C446 1.257 . S
H422 C447 0.930 . S
H423 C453 0.930 . S
O424 Co413 2.093 . S
O424 C416 1.224 . S
H425 C457 0.929 1_545 S
H426 C459 0.930 . S
H427 C460 0.930 . S
H428 C458 0.929 1_545 S
H429 C461 0.928 1_565 S
O430 Co414 2.057 . S
O430 C418 1.232 . S
H431 C450 0.929 . S
H432 C451 0.929 . S
H433 C463 0.931 . S
H434 C455 0.929 . S
H435 C464 0.930 . S
H436 C456 0.931 . S
O437 Co413 2.097 . S
O437 C465 1.214 . S
H438 C466 0.929 . S
H439 C467 0.929 . S
H440 C468 0.930 . S
H441 C469 0.929 . S
H442 C471 0.930 . S
H443 C448 0.930 . S
H444 C452 0.930 . S
O445 Co414 2.037 . S
O445 C465 1.234 . S
C446 O420 1.269 . S
C446 O421 1.257 . S
C447 H422 0.930 . S
C447 C450 1.388 . S
C447 C452 1.418 . S
C448 H443 0.930 . S
C448 C451 1.404 . S
C448 C452 1.353 . S
N449 Co414 2.145 1_554 S
N449 C450 1.397 . S
N449 C451 1.334 . S
C450 H431 0.929 . S
C450 C447 1.388 . S
C450 N449 1.397 . S
C451 H432 0.929 . S
C451 C448 1.404 . S
C451 N449 1.334 . S
C452 H444 0.930 . S
C452 C447 1.418 . S
C452 C448 1.353 . S
C453 H423 0.930 . S
C453 N454 1.330 . S
C453 C455 1.446 . S
N454 Co413 2.151 . S
N454 C453 1.330 . S
N454 C458 1.418 . S
C455 H434 0.929 . S
C455 C453 1.446 . S
C455 C456 1.332 . S
C456 H436 0.931 . S
C456 C455 1.332 . S
C456 C457 1.267 . S
C457 H425 0.929 1_565 S
C457 C456 1.267 . S
C457 C458 1.251 . S
C458 H428 0.929 1_565 S
C458 N454 1.418 . S
C458 C457 1.251 . S
C459 H426 0.930 . S
C459 C461 1.406 . S
C459 C464 1.261 . S
C460 H427 0.930 . S
C460 N462 1.325 1_545 S
C460 C463 1.357 . S
C461 H429 0.928 1_545 S
C461 C459 1.406 . S
C461 N462 1.261 1_545 S
N462 Co413 2.214 . S
N462 C460 1.325 1_565 S
N462 C461 1.261 1_565 S
C463 H433 0.931 . S
C463 C460 1.357 . S
C463 C464 1.312 . S
C464 H435 0.930 . S
C464 C459 1.261 . S
C464 C463 1.312 . S
C465 O437 1.214 . S
C465 O445 1.234 . S
C466 H438 0.929 . S
C466 C469 1.391 . S
C466 C471 1.391 . S
C467 H439 0.929 . S
C467 C468 1.390 . S
C467 N470 1.391 . S
C468 H440 0.930 . S
C468 C467 1.390 . S
C468 C469 1.392 . S
C469 H441 0.929 . S
C469 C466 1.391 . S
C469 C468 1.392 . S
N470 Co414 2.257 . S
N470 C467 1.391 . S
N470 C471 1.388 . S
C471 H442 0.930 . S
C471 C466 1.391 . S
C471 N470 1.388 . S
Co472 O474 2.143 . S
Co472 O480 2.074 . S
Co472 O483 2.093 . S
Co472 O496 2.097 . S
Co472 N513 2.151 . S
Co472 N521 2.214 . S
Co473 O474 2.160 . S
Co473 O479 2.058 . S
Co473 O489 2.057 . S
Co473 O504 2.037 . S
Co473 N508 2.145 1_556 S
Co473 N529 2.257 . S
O474 Co472 2.143 . S
O474 Co473 2.160 . S
C475 O476 1.278 . S
C475 O483 1.224 . S
O476 C475 1.278 . S
C477 O478 1.245 . S
C477 O489 1.232 . S
O478 C477 1.245 . S
O479 Co473 2.058 . S
O479 C505 1.269 . S
O480 Co472 2.074 . S
O480 C505 1.257 . S
H481 C506 0.930 . S
H482 C512 0.930 . S
O483 Co472 2.093 . S
O483 C475 1.224 . S
H484 C516 0.929 1_655 S
H485 C518 0.930 . S
H486 C519 0.930 . S
H487 C517 0.929 1_655 S
H488 C520 0.928 1_455 S
O489 Co473 2.057 . S
O489 C477 1.232 . S
H490 C509 0.929 . S
H491 C510 0.929 . S
H492 C522 0.931 . S
H493 C514 0.929 . S
H494 C523 0.930 . S
H495 C515 0.931 . S
O496 Co472 2.097 . S
O496 C524 1.214 . S
H497 C525 0.929 . S
H498 C526 0.929 . S
H499 C527 0.930 . S
H500 C528 0.929 . S
H501 C530 0.930 . S
H502 C507 0.930 . S
H503 C511 0.930 . S
O504 Co473 2.037 . S
O504 C524 1.234 . S
C505 O479 1.269 . S
C505 O480 1.257 . S
C506 H481 0.930 . S
C506 C509 1.388 . S
C506 C511 1.418 . S
C507 H502 0.930 . S
C507 C510 1.404 . S
C507 C511 1.353 . S
N508 Co473 2.145 1_554 S
N508 C509 1.397 . S
N508 C510 1.334 . S
C509 H490 0.929 . S
C509 C506 1.388 . S
C509 N508 1.397 . S
C510 H491 0.929 . S
C510 C507 1.404 . S
C510 N508 1.334 . S
C511 H503 0.930 . S
C511 C506 1.418 . S
C511 C507 1.353 . S
C512 H482 0.930 . S
C512 N513 1.330 . S
C512 C514 1.446 . S
N513 Co472 2.151 . S
N513 C512 1.330 . S
N513 C517 1.418 . S
C514 H493 0.929 . S
C514 C512 1.446 . S
C514 C515 1.332 . S
C515 H495 0.931 . S
C515 C514 1.332 . S
C515 C516 1.267 . S
C516 H484 0.929 1_455 S
C516 C515 1.267 . S
C516 C517 1.251 . S
C517 H487 0.929 1_455 S
C517 N513 1.418 . S
C517 C516 1.251 . S
C518 H485 0.930 . S
C518 C520 1.406 . S
C518 C523 1.261 . S
C519 H486 0.930 . S
C519 N521 1.325 1_655 S
C519 C522 1.357 . S
C520 H488 0.928 1_655 S
C520 C518 1.406 . S
C520 N521 1.261 1_655 S
N521 Co472 2.214 . S
N521 C519 1.325 1_455 S
N521 C520 1.261 1_455 S
C522 H492 0.931 . S
C522 C519 1.357 . S
C522 C523 1.312 . S
C523 H494 0.930 . S
C523 C518 1.261 . S
C523 C522 1.312 . S
C524 O496 1.214 . S
C524 O504 1.234 . S
C525 H497 0.929 . S
C525 C528 1.391 . S
C525 C530 1.391 . S
C526 H498 0.929 . S
C526 C527 1.390 . S
C526 N529 1.391 . S
C527 H499 0.930 . S
C527 C526 1.390 . S
C527 C528 1.392 . S
C528 H500 0.929 . S
C528 C525 1.391 . S
C528 C527 1.392 . S
N529 Co473 2.257 . S
N529 C526 1.391 . S
N529 C530 1.388 . S
C530 H501 0.930 . S
C530 C525 1.391 . S
C530 N529 1.388 . S
Co531 O533 2.143 . S
Co531 O539 2.074 . S
Co531 O542 2.093 . S
Co531 O555 2.097 . S
Co531 N572 2.151 . S
Co531 N580 2.214 . S
Co532 O533 2.160 . S
Co532 O538 2.058 . S
Co532 O548 2.057 . S
Co532 O563 2.037 . S
Co532 N567 2.145 . S
Co532 N588 2.257 . S
O533 Co531 2.143 . S
O533 Co532 2.160 . S
C534 O535 1.278 . S
C534 O542 1.224 . S
O535 C534 1.278 . S
C536 O537 1.245 . S
C536 O548 1.232 . S
O537 C536 1.245 . S
O538 Co532 2.058 . S
O538 C564 1.269 . S
O539 Co531 2.074 . S
O539 C564 1.257 . S
H540 C565 0.930 . S
H541 C571 0.930 . S
O542 Co531 2.093 . S
O542 C534 1.224 . S
H543 C575 0.929 . S
H544 C577 0.930 . S
H545 C578 0.930 . S
H546 C576 0.929 . S
H547 C579 0.928 . S
O548 Co532 2.057 . S
O548 C536 1.232 . S
H549 C568 0.929 . S
H550 C569 0.929 . S
H551 C581 0.931 . S
H552 C573 0.929 . S
H553 C582 0.930 . S
H554 C574 0.931 . S
O555 Co531 2.097 . S
O555 C583 1.214 . S
H556 C584 0.929 . S
H557 C585 0.929 . S
H558 C586 0.930 . S
H559 C587 0.929 . S
H560 C589 0.930 . S
H561 C566 0.930 . S
H562 C570 0.930 . S
O563 Co532 2.037 . S
O563 C583 1.234 . S
C564 O538 1.269 . S
C564 O539 1.257 . S
C565 H540 0.930 . S
C565 C568 1.388 . S
C565 C570 1.418 . S
C566 H561 0.930 . S
C566 C569 1.404 . S
C566 C570 1.353 . S
N567 Co532 2.145 . S
N567 C568 1.397 . S
N567 C569 1.334 . S
C568 H549 0.929 . S
C568 C565 1.388 . S
C568 N567 1.397 . S
C569 H550 0.929 . S
C569 C566 1.404 . S
C569 N567 1.334 . S
C570 H562 0.930 . S
C570 C565 1.418 . S
C570 C566 1.353 . S
C571 H541 0.930 . S
C571 N572 1.330 . S
C571 C573 1.446 . S
N572 Co531 2.151 . S
N572 C571 1.330 . S
N572 C576 1.418 . S
C573 H552 0.929 . S
C573 C571 1.446 . S
C573 C574 1.332 . S
C574 H554 0.931 . S
C574 C573 1.332 . S
C574 C575 1.267 . S
C575 H543 0.929 . S
C575 C574 1.267 . S
C575 C576 1.251 . S
C576 H546 0.929 . S
C576 N572 1.418 . S
C576 C575 1.251 . S
C577 H544 0.930 . S
C577 C579 1.406 . S
C577 C582 1.261 . S
C578 H545 0.930 . S
C578 N580 1.325 . S
C578 C581 1.357 . S
C579 H547 0.928 . S
C579 C577 1.406 . S
C579 N580 1.261 . S
N580 Co531 2.214 . S
N580 C578 1.325 . S
N580 C579 1.261 . S
C581 H551 0.931 . S
C581 C578 1.357 . S
C581 C582 1.312 . S
C582 H553 0.930 . S
C582 C577 1.261 . S
C582 C581 1.312 . S
C583 O555 1.214 . S
C583 O563 1.234 . S
C584 H556 0.929 . S
C584 C587 1.391 . S
C584 C589 1.391 . S
C585 H557 0.929 . S
C585 C586 1.390 . S
C585 N588 1.391 . S
C586 H558 0.930 . S
C586 C585 1.390 . S
C586 C587 1.392 . S
C587 H559 0.929 . S
C587 C584 1.391 . S
C587 C586 1.392 . S
N588 Co532 2.257 . S
N588 C585 1.391 . S
N588 C589 1.388 . S
C589 H560 0.930 . S
C589 C584 1.391 . S
C589 N588 1.388 . S
Co590 O592 2.143 . S
Co590 O598 2.074 . S
Co590 O601 2.093 . S
Co590 O614 2.097 . S
Co590 N631 2.151 . S
Co590 N639 2.214 . S
Co591 O592 2.160 . S
Co591 O597 2.058 . S
Co591 O607 2.057 . S
Co591 O622 2.037 . S
Co591 N626 2.145 . S
Co591 N647 2.257 . S
O592 Co590 2.143 . S
O592 Co591 2.160 . S
C593 O594 1.278 . S
C593 O601 1.224 . S
O594 C593 1.278 . S
C595 O596 1.245 . S
C595 O607 1.232 . S
O596 C595 1.245 . S
O597 Co591 2.058 . S
O597 C623 1.269 . S
O598 Co590 2.074 . S
O598 C623 1.257 . S
H599 C624 0.930 . S
H600 C630 0.930 . S
O601 Co590 2.093 . S
O601 C593 1.224 . S
H602 C634 0.929 1_565 S
H603 C636 0.930 . S
H604 C637 0.930 . S
H605 C635 0.929 1_565 S
H606 C638 0.928 1_545 S
O607 Co591 2.057 . S
O607 C595 1.232 . S
H608 C627 0.929 . S
H609 C628 0.929 . S
H610 C640 0.931 . S
H611 C632 0.929 . S
H612 C641 0.930 . S
H613 C633 0.931 . S
O614 Co590 2.097 . S
O614 C642 1.214 . S
H615 C643 0.929 . S
H616 C644 0.929 . S
H617 C645 0.930 . S
H618 C646 0.929 . S
H619 C648 0.930 . S
H620 C625 0.930 . S
H621 C629 0.930 . S
O622 Co591 2.037 . S
O622 C642 1.234 . S
C623 O597 1.269 . S
C623 O598 1.257 . S
C624 H599 0.930 . S
C624 C627 1.388 . S
C624 C629 1.418 . S
C625 H620 0.930 . S
C625 C628 1.404 . S
C625 C629 1.353 . S
N626 Co591 2.145 . S
N626 C627 1.397 . S
N626 C628 1.334 . S
C627 H608 0.929 . S
C627 C624 1.388 . S
C627 N626 1.397 . S
C628 H609 0.929 . S
C628 C625 1.404 . S
C628 N626 1.334 . S
C629 H621 0.930 . S
C629 C624 1.418 . S
C629 C625 1.353 . S
C630 H600 0.930 . S
C630 N631 1.330 . S
C630 C632 1.446 . S
N631 Co590 2.151 . S
N631 C630 1.330 . S
N631 C635 1.418 . S
C632 H611 0.929 . S
C632 C630 1.446 . S
C632 C633 1.332 . S
C633 H613 0.931 . S
C633 C632 1.332 . S
C633 C634 1.267 . S
C634 H602 0.929 1_545 S
C634 C633 1.267 . S
C634 C635 1.251 . S
C635 H605 0.929 1_545 S
C635 N631 1.418 . S
C635 C634 1.251 . S
C636 H603 0.930 . S
C636 C638 1.406 . S
C636 C641 1.261 . S
C637 H604 0.930 . S
C637 N639 1.325 1_565 S
C637 C640 1.357 . S
C638 H606 0.928 1_565 S
C638 C636 1.406 . S
C638 N639 1.261 1_565 S
N639 Co590 2.214 . S
N639 C637 1.325 1_545 S
N639 C638 1.261 1_545 S
C640 H610 0.931 . S
C640 C637 1.357 . S
C640 C641 1.312 . S
C641 H612 0.930 . S
C641 C636 1.261 . S
C641 C640 1.312 . S
C642 O614 1.214 . S
C642 O622 1.234 . S
C643 H615 0.929 . S
C643 C646 1.391 . S
C643 C648 1.391 . S
C644 H616 0.929 . S
C644 C645 1.390 . S
C644 N647 1.391 . S
C645 H617 0.930 . S
C645 C644 1.390 . S
C645 C646 1.392 . S
C646 H618 0.929 . S
C646 C643 1.391 . S
C646 C645 1.392 . S
N647 Co591 2.257 . S
N647 C644 1.391 . S
N647 C648 1.388 . S
C648 H619 0.930 . S
C648 C643 1.391 . S
C648 N647 1.388 . S
Co649 O651 2.143 . S
Co649 O657 2.074 . S
Co649 O660 2.093 . S
Co649 O673 2.097 . S
Co649 N690 2.151 . S
Co649 N698 2.214 . S
Co650 O651 2.160 . S
Co650 O656 2.058 . S
Co650 O666 2.057 . S
Co650 O681 2.037 . S
Co650 N685 2.145 . S
Co650 N706 2.257 . S
O651 Co649 2.143 . S
O651 Co650 2.160 . S
C652 O653 1.278 . S
C652 O660 1.224 . S
O653 C652 1.278 . S
C654 O655 1.245 . S
C654 O666 1.232 . S
O655 C654 1.245 . S
O656 Co650 2.058 . S
O656 C682 1.269 . S
O657 Co649 2.074 . S
O657 C682 1.257 . S
H658 C683 0.930 . S
H659 C689 0.930 . S
O660 Co649 2.093 . S
O660 C652 1.224 . S
H661 C693 0.929 1_455 S
H662 C695 0.930 . S
H663 C696 0.930 . S
H664 C694 0.929 1_455 S
H665 C697 0.928 1_655 S
O666 Co650 2.057 . S
O666 C654 1.232 . S
H667 C686 0.929 . S
H668 C687 0.929 . S
H669 C699 0.931 . S
H670 C691 0.929 . S
H671 C700 0.930 . S
H672 C692 0.931 . S
O673 Co649 2.097 . S
O673 C701 1.214 . S
H674 C702 0.929 . S
H675 C703 0.929 . S
H676 C704 0.930 . S
H677 C705 0.929 . S
H678 C707 0.930 . S
H679 C684 0.930 . S
H680 C688 0.930 . S
O681 Co650 2.037 . S
O681 C701 1.234 . S
C682 O656 1.269 . S
C682 O657 1.257 . S
C683 H658 0.930 . S
C683 C686 1.388 . S
C683 C688 1.418 . S
C684 H679 0.930 . S
C684 C687 1.404 . S
C684 C688 1.353 . S
N685 Co650 2.145 . S
N685 C686 1.397 . S
N685 C687 1.334 . S
C686 H667 0.929 . S
C686 C683 1.388 . S
C686 N685 1.397 . S
C687 H668 0.929 . S
C687 C684 1.404 . S
C687 N685 1.334 . S
C688 H680 0.930 . S
C688 C683 1.418 . S
C688 C684 1.353 . S
C689 H659 0.930 . S
C689 N690 1.330 . S
C689 C691 1.446 . S
N690 Co649 2.151 . S
N690 C689 1.330 . S
N690 C694 1.418 . S
C691 H670 0.929 . S
C691 C689 1.446 . S
C691 C692 1.332 . S
C692 H672 0.931 . S
C692 C691 1.332 . S
C692 C693 1.267 . S
C693 H661 0.929 1_655 S
C693 C692 1.267 . S
C693 C694 1.251 . S
C694 H664 0.929 1_655 S
C694 N690 1.418 . S
C694 C693 1.251 . S
C695 H662 0.930 . S
C695 C697 1.406 . S
C695 C700 1.261 . S
C696 H663 0.930 . S
C696 N698 1.325 1_455 S
C696 C699 1.357 . S
C697 H665 0.928 1_455 S
C697 C695 1.406 . S
C697 N698 1.261 1_455 S
N698 Co649 2.214 . S
N698 C696 1.325 1_655 S
N698 C697 1.261 1_655 S
C699 H669 0.931 . S
C699 C696 1.357 . S
C699 C700 1.312 . S
C700 H671 0.930 . S
C700 C695 1.261 . S
C700 C699 1.312 . S
C701 O673 1.214 . S
C701 O681 1.234 . S
C702 H674 0.929 . S
C702 C705 1.391 . S
C702 C707 1.391 . S
C703 H675 0.929 . S
C703 C704 1.390 . S
C703 N706 1.391 . S
C704 H676 0.930 . S
C704 C703 1.390 . S
C704 C705 1.392 . S
C705 H677 0.929 . S
C705 C702 1.391 . S
C705 C704 1.392 . S
N706 Co650 2.257 . S
N706 C703 1.391 . S
N706 C707 1.388 . S
C707 H678 0.930 . S
C707 C702 1.391 . S
C707 N706 1.388 . S
Co708 O710 2.143 . S
Co708 O716 2.074 . S
Co708 O719 2.093 . S
Co708 O732 2.097 . S
Co708 N749 2.151 . S
Co708 N757 2.214 . S
Co709 O710 2.160 . S
Co709 O715 2.058 . S
Co709 O725 2.057 . S
Co709 O740 2.037 . S
Co709 N744 2.145 . S
Co709 N765 2.231 1_655 S
O710 Co708 2.143 . S
O710 Co709 2.160 . S
C711 O712 1.278 . S
C711 O719 1.224 . S
O712 C711 1.278 . S
C713 O714 1.245 . S
C713 O725 1.232 . S
O714 C713 1.245 . S
O715 Co709 2.058 . S
O715 C741 1.269 . S
O716 Co708 2.074 . S
O716 C741 1.257 . S
H717 C742 0.930 . S
H718 C748 0.930 . S
O719 Co708 2.093 . S
O719 C711 1.224 . S
H720 C752 0.929 . S
H721 C754 0.930 . S
H722 C755 0.930 . S
H723 C753 0.929 . S
H724 C756 0.928 . S
O725 Co709 2.057 . S
O725 C713 1.232 . S
H726 C745 0.929 . S
H727 C746 0.929 . S
H728 C758 0.931 . S
H729 C750 0.929 . S
H730 C759 0.930 . S
H731 C751 0.931 . S
O732 Co708 2.097 . S
O732 C760 1.214 . S
H733 C761 0.929 . S
H734 C762 0.929 . S
H735 C763 0.930 . S
H736 C764 0.929 . S
H737 C766 0.930 1_655 S
H738 C743 0.930 . S
H739 C747 0.930 . S
O740 Co709 2.037 . S
O740 C760 1.234 . S
C741 O715 1.269 . S
C741 O716 1.257 . S
C742 H717 0.930 . S
C742 C745 1.388 . S
C742 C747 1.418 . S
C743 H738 0.930 . S
C743 C746 1.404 . S
C743 C747 1.353 . S
N744 Co709 2.145 . S
N744 C745 1.397 . S
N744 C746 1.334 . S
C745 H726 0.929 . S
C745 C742 1.388 . S
C745 N744 1.397 . S
C746 H727 0.929 . S
C746 C743 1.404 . S
C746 N744 1.334 . S
C747 H739 0.930 . S
C747 C742 1.418 . S
C747 C743 1.353 . S
C748 H718 0.930 . S
C748 N749 1.330 . S
C748 C750 1.446 . S
N749 Co708 2.151 . S
N749 C748 1.330 . S
N749 C753 1.418 . S
C750 H729 0.929 . S
C750 C748 1.446 . S
C750 C751 1.332 . S
C751 H731 0.931 . S
C751 C750 1.332 . S
C751 C752 1.267 . S
C752 H720 0.929 . S
C752 C751 1.267 . S
C752 C753 1.251 . S
C753 H723 0.929 . S
C753 N749 1.418 . S
C753 C752 1.251 . S
C754 H721 0.930 . S
C754 C756 1.406 . S
C754 C759 1.261 . S
C755 H722 0.930 . S
C755 N757 1.325 . S
C755 C758 1.357 . S
C756 H724 0.928 . S
C756 C754 1.406 . S
C756 N757 1.261 . S
N757 Co708 2.214 . S
N757 C755 1.325 . S
N757 C756 1.261 . S
C758 H728 0.931 . S
C758 C755 1.357 . S
C758 C759 1.312 . S
C759 H730 0.930 . S
C759 C754 1.261 . S
C759 C758 1.312 . S
C760 O732 1.214 . S
C760 O740 1.234 . S
C761 H733 0.929 . S
C761 C764 1.391 . S
C761 C766 1.391 . S
C762 H734 0.929 . S
C762 C763 1.390 . S
C762 N765 1.402 . S
C763 H735 0.930 . S
C763 C762 1.390 . S
C763 C764 1.392 . S
C764 H736 0.929 . S
C764 C761 1.391 . S
C764 C763 1.392 . S
N765 Co709 2.231 1_455 S
N765 C762 1.402 . S
N765 C766 1.403 . S
C766 H737 0.930 1_455 S
C766 C761 1.391 . S
C766 N765 1.403 . S
Co767 O769 2.143 . S
Co767 O775 2.074 . S
Co767 O778 2.093 . S
Co767 O791 2.097 . S
Co767 N808 2.151 . S
Co767 N816 2.214 . S
Co768 O769 2.160 . S
Co768 O774 2.058 . S
Co768 O784 2.057 . S
Co768 O799 2.037 . S
Co768 N803 2.145 . S
Co768 N824 2.257 . S
O769 Co767 2.143 . S
O769 Co768 2.160 . S
C770 O771 1.278 . S
C770 O778 1.224 . S
O771 C770 1.278 . S
C772 O773 1.245 . S
C772 O784 1.232 . S
O773 C772 1.245 . S
O774 Co768 2.058 . S
O774 C800 1.269 . S
O775 Co767 2.074 . S
O775 C800 1.257 . S
H776 C801 0.930 . S
H777 C807 0.930 . S
O778 Co767 2.093 . S
O778 C770 1.224 . S
H779 C811 0.929 . S
H780 C813 0.930 . S
H781 C814 0.930 . S
H782 C812 0.929 . S
H783 C815 0.928 . S
O784 Co768 2.057 . S
O784 C772 1.232 . S
H785 C804 0.929 . S
H786 C805 0.929 . S
H787 C817 0.931 . S
H788 C809 0.929 . S
H789 C818 0.930 . S
H790 C810 0.931 . S
O791 Co767 2.097 . S
O791 C819 1.214 . S
H792 C820 0.929 . S
H793 C821 0.929 . S
H794 C822 0.930 . S
H795 C823 0.929 . S
H796 C825 0.930 . S
H797 C802 0.930 . S
H798 C806 0.930 . S
O799 Co768 2.037 . S
O799 C819 1.234 . S
C800 O774 1.269 . S
C800 O775 1.257 . S
C801 H776 0.930 . S
C801 C804 1.388 . S
C801 C806 1.418 . S
C802 H797 0.930 . S
C802 C805 1.404 . S
C802 C806 1.353 . S
N803 Co768 2.145 . S
N803 C804 1.397 . S
N803 C805 1.334 . S
C804 H785 0.929 . S
C804 C801 1.388 . S
C804 N803 1.397 . S
C805 H786 0.929 . S
C805 C802 1.404 . S
C805 N803 1.334 . S
C806 H798 0.930 . S
C806 C801 1.418 . S
C806 C802 1.353 . S
C807 H777 0.930 . S
C807 N808 1.330 . S
C807 C809 1.446 . S
N808 Co767 2.151 . S
N808 C807 1.330 . S
N808 C812 1.418 . S
C809 H788 0.929 . S
C809 C807 1.446 . S
C809 C810 1.332 . S
C810 H790 0.931 . S
C810 C809 1.332 . S
C810 C811 1.267 . S
C811 H779 0.929 . S
C811 C810 1.267 . S
C811 C812 1.251 . S
C812 H782 0.929 . S
C812 N808 1.418 . S
C812 C811 1.251 . S
C813 H780 0.930 . S
C813 C815 1.406 . S
C813 C818 1.261 . S
C814 H781 0.930 . S
C814 N816 1.325 . S
C814 C817 1.357 . S
C815 H783 0.928 . S
C815 C813 1.406 . S
C815 N816 1.261 . S
N816 Co767 2.214 . S
N816 C814 1.325 . S
N816 C815 1.261 . S
C817 H787 0.931 . S
C817 C814 1.357 . S
C817 C818 1.312 . S
C818 H789 0.930 . S
C818 C813 1.261 . S
C818 C817 1.312 . S
C819 O791 1.214 . S
C819 O799 1.234 . S
C820 H792 0.929 . S
C820 C823 1.391 . S
C820 C825 1.391 . S
C821 H793 0.929 . S
C821 C822 1.390 . S
C821 N824 1.391 . S
C822 H794 0.930 . S
C822 C821 1.390 . S
C822 C823 1.392 . S
C823 H795 0.929 . S
C823 C820 1.391 . S
C823 C822 1.392 . S
N824 Co768 2.257 . S
N824 C821 1.391 . S
N824 C825 1.388 . S
C825 H796 0.930 . S
C825 C820 1.391 . S
C825 N824 1.388 . S
Co826 O828 2.143 . S
Co826 O834 2.074 . S
Co826 O837 2.093 . S
Co826 O850 2.097 . S
Co826 N867 2.151 . S
Co826 N875 2.214 . S
Co827 O828 2.160 . S
Co827 O833 2.058 . S
Co827 O843 2.057 . S
Co827 O858 2.037 . S
Co827 N862 2.145 . S
Co827 N883 2.242 1_545 S
O828 Co826 2.143 . S
O828 Co827 2.160 . S
C829 O830 1.278 . S
C829 O837 1.224 . S
O830 C829 1.278 . S
C831 O832 1.245 . S
C831 O843 1.232 . S
O832 C831 1.245 . S
O833 Co827 2.058 . S
O833 C859 1.269 . S
O834 Co826 2.074 . S
O834 C859 1.257 . S
H835 C860 0.930 . S
H836 C866 0.930 . S
O837 Co826 2.093 . S
O837 C829 1.224 . S
H838 C870 0.929 . S
H839 C872 0.930 . S
H840 C873 0.930 . S
H841 C871 0.929 . S
H842 C874 0.928 . S
O843 Co827 2.057 . S
O843 C831 1.232 . S
H844 C863 0.929 . S
H845 C864 0.929 . S
H846 C876 0.931 . S
H847 C868 0.929 . S
H848 C877 0.930 . S
H849 C869 0.931 . S
O850 Co826 2.097 . S
O850 C878 1.214 . S
H851 C879 0.929 . S
H852 C880 0.929 . S
H853 C881 0.930 . S
H854 C882 0.929 . S
H855 C884 0.930 1_545 S
H856 C861 0.930 . S
H857 C865 0.930 . S
O858 Co827 2.037 . S
O858 C878 1.234 . S
C859 O833 1.269 . S
C859 O834 1.257 . S
C860 H835 0.930 . S
C860 C863 1.388 . S
C860 C865 1.418 . S
C861 H856 0.930 . S
C861 C864 1.404 . S
C861 C865 1.353 . S
N862 Co827 2.145 . S
N862 C863 1.397 . S
N862 C864 1.334 . S
C863 H844 0.929 . S
C863 C860 1.388 . S
C863 N862 1.397 . S
C864 H845 0.929 . S
C864 C861 1.404 . S
C864 N862 1.334 . S
C865 H857 0.930 . S
C865 C860 1.418 . S
C865 C861 1.353 . S
C866 H836 0.930 . S
C866 N867 1.330 . S
C866 C868 1.446 . S
N867 Co826 2.151 . S
N867 C866 1.330 . S
N867 C871 1.418 . S
C868 H847 0.929 . S
C868 C866 1.446 . S
C868 C869 1.332 . S
C869 H849 0.931 . S
C869 C868 1.332 . S
C869 C870 1.267 . S
C870 H838 0.929 . S
C870 C869 1.267 . S
C870 C871 1.251 . S
C871 H841 0.929 . S
C871 N867 1.418 . S
C871 C870 1.251 . S
C872 H839 0.930 . S
C872 C874 1.406 . S
C872 C877 1.261 . S
C873 H840 0.930 . S
C873 N875 1.325 . S
C873 C876 1.357 . S
C874 H842 0.928 . S
C874 C872 1.406 . S
C874 N875 1.261 . S
N875 Co826 2.214 . S
N875 C873 1.325 . S
N875 C874 1.261 . S
C876 H846 0.931 . S
C876 C873 1.357 . S
C876 C877 1.312 . S
C877 H848 0.930 . S
C877 C872 1.261 . S
C877 C876 1.312 . S
C878 O850 1.214 . S
C878 O858 1.234 . S
C879 H851 0.929 . S
C879 C882 1.391 . S
C879 C884 1.391 . S
C880 H852 0.929 . S
C880 C881 1.390 . S
C880 N883 1.418 . S
C881 H853 0.930 . S
C881 C880 1.390 . S
C881 C882 1.392 . S
C882 H854 0.929 . S
C882 C879 1.391 . S
C882 C881 1.392 . S
N883 Co827 2.242 1_565 S
N883 C880 1.418 . S
N883 C884 1.379 . S
C884 H855 0.930 1_565 S
C884 C879 1.391 . S
C884 N883 1.379 . S
Co885 O887 2.143 . S
Co885 O893 2.074 . S
Co885 O896 2.093 . S
Co885 O909 2.097 . S
Co885 N926 2.151 . S
Co885 N934 2.214 . S
Co886 O887 2.160 . S
Co886 O892 2.058 . S
Co886 O902 2.057 . S
Co886 O917 2.037 . S
Co886 N921 2.145 . S
Co886 N942 2.257 . S
O887 Co885 2.143 . S
O887 Co886 2.160 . S
C888 O889 1.278 . S
C888 O896 1.224 . S
O889 C888 1.278 . S
C890 O891 1.245 . S
C890 O902 1.232 . S
O891 C890 1.245 . S
O892 Co886 2.058 . S
O892 C918 1.269 . S
O893 Co885 2.074 . S
O893 C918 1.257 . S
H894 C919 0.930 . S
H895 C925 0.930 . S
O896 Co885 2.093 . S
O896 C888 1.224 . S
H897 C929 0.929 . S
H898 C931 0.930 . S
H899 C932 0.930 . S
H900 C930 0.929 . S
H901 C933 0.928 . S
O902 Co886 2.057 . S
O902 C890 1.232 . S
H903 C922 0.929 . S
H904 C923 0.929 . S
H905 C935 0.931 . S
H906 C927 0.929 . S
H907 C936 0.930 . S
H908 C928 0.931 . S
O909 Co885 2.097 . S
O909 C937 1.214 . S
H910 C938 0.929 . S
H911 C939 0.929 . S
H912 C940 0.930 . S
H913 C941 0.929 . S
H914 C943 0.930 . S
H915 C920 0.930 . S
H916 C924 0.930 . S
O917 Co886 2.037 . S
O917 C937 1.234 . S
C918 O892 1.269 . S
C918 O893 1.257 . S
C919 H894 0.930 . S
C919 C922 1.388 . S
C919 C924 1.418 . S
C920 H915 0.930 . S
C920 C923 1.404 . S
C920 C924 1.353 . S
N921 Co886 2.145 . S
N921 C922 1.397 . S
N921 C923 1.334 . S
C922 H903 0.929 . S
C922 C919 1.388 . S
C922 N921 1.397 . S
C923 H904 0.929 . S
C923 C920 1.404 . S
C923 N921 1.334 . S
C924 H916 0.930 . S
C924 C919 1.418 . S
C924 C920 1.353 . S
C925 H895 0.930 . S
C925 N926 1.330 . S
C925 C927 1.446 . S
N926 Co885 2.151 . S
N926 C925 1.330 . S
N926 C930 1.418 . S
C927 H906 0.929 . S
C927 C925 1.446 . S
C927 C928 1.332 . S
C928 H908 0.931 . S
C928 C927 1.332 . S
C928 C929 1.267 . S
C929 H897 0.929 . S
C929 C928 1.267 . S
C929 C930 1.251 . S
C930 H900 0.929 . S
C930 N926 1.418 . S
C930 C929 1.251 . S
C931 H898 0.930 . S
C931 C933 1.406 . S
C931 C936 1.261 . S
C932 H899 0.930 . S
C932 N934 1.325 . S
C932 C935 1.357 . S
C933 H901 0.928 . S
C933 C931 1.406 . S
C933 N934 1.261 . S
N934 Co885 2.214 . S
N934 C932 1.325 . S
N934 C933 1.261 . S
C935 H905 0.931 . S
C935 C932 1.357 . S
C935 C936 1.312 . S
C936 H907 0.930 . S
C936 C931 1.261 . S
C936 C935 1.312 . S
C937 O909 1.214 . S
C937 O917 1.234 . S
C938 H910 0.929 . S
C938 C941 1.391 . S
C938 C943 1.391 . S
C939 H911 0.929 . S
C939 C940 1.390 . S
C939 N942 1.391 . S
C940 H912 0.930 . S
C940 C939 1.390 . S
C940 C941 1.392 . S
C941 H913 0.929 . S
C941 C938 1.391 . S
C941 C940 1.392 . S
N942 Co886 2.257 . S
N942 C939 1.391 . S
N942 C943 1.388 . S
C943 H914 0.930 . S
C943 C938 1.391 . S
C943 N942 1.388 . S
Co944 O946 2.143 . S
Co944 O952 2.074 . S
Co944 O955 2.093 . S
Co944 O968 2.097 . S
Co944 N985 2.151 . S
Co944 N993 2.214 . S
Co945 O946 2.160 . S
Co945 O951 2.058 . S
Co945 O961 2.057 . S
Co945 O976 2.037 . S
Co945 N980 2.145 . S
Co945 N1001 2.257 . S
O946 Co944 2.143 . S
O946 Co945 2.160 . S
C947 O948 1.278 . S
C947 O955 1.224 . S
O948 C947 1.278 . S
C949 O950 1.245 . S
C949 O961 1.232 . S
O950 C949 1.245 . S
O951 Co945 2.058 . S
O951 C977 1.269 . S
O952 Co944 2.074 . S
O952 C977 1.257 . S
H953 C978 0.930 . S
H954 C984 0.930 . S
O955 Co944 2.093 . S
O955 C947 1.224 . S
H956 C988 0.929 . S
H957 C990 0.930 . S
H958 C991 0.930 . S
H959 C989 0.929 . S
H960 C992 0.928 . S
O961 Co945 2.057 . S
O961 C949 1.232 . S
H962 C981 0.929 . S
H963 C982 0.929 . S
H964 C994 0.931 . S
H965 C986 0.929 . S
H966 C995 0.930 . S
H967 C987 0.931 . S
O968 Co944 2.097 . S
O968 C996 1.214 . S
H969 C997 0.929 . S
H970 C998 0.929 . S
H971 C999 0.930 . S
H972 C1000 0.929 . S
H973 C1002 0.930 . S
H974 C979 0.930 . S
H975 C983 0.930 . S
O976 Co945 2.037 . S
O976 C996 1.234 . S
C977 O951 1.269 . S
C977 O952 1.257 . S
C978 H953 0.930 . S
C978 C981 1.388 . S
C978 C983 1.418 . S
C979 H974 0.930 . S
C979 C982 1.404 . S
C979 C983 1.353 . S
N980 Co945 2.145 . S
N980 C981 1.397 . S
N980 C982 1.334 . S
C981 H962 0.929 . S
C981 C978 1.388 . S
C981 N980 1.397 . S
C982 H963 0.929 . S
C982 C979 1.404 . S
C982 N980 1.334 . S
C983 H975 0.930 . S
C983 C978 1.418 . S
C983 C979 1.353 . S
C984 H954 0.930 . S
C984 N985 1.330 . S
C984 C986 1.446 . S
N985 Co944 2.151 . S
N985 C984 1.330 . S
N985 C989 1.418 . S
C986 H965 0.929 . S
C986 C984 1.446 . S
C986 C987 1.332 . S
C987 H967 0.931 . S
C987 C986 1.332 . S
C987 C988 1.267 . S
C988 H956 0.929 . S
C988 C987 1.267 . S
C988 C989 1.251 . S
C989 H959 0.929 . S
C989 N985 1.418 . S
C989 C988 1.251 . S
C990 H957 0.930 . S
C990 C992 1.406 . S
C990 C995 1.261 . S
C991 H958 0.930 . S
C991 N993 1.325 . S
C991 C994 1.357 . S
C992 H960 0.928 . S
C992 C990 1.406 . S
C992 N993 1.261 . S
N993 Co944 2.214 . S
N993 C991 1.325 . S
N993 C992 1.261 . S
C994 H964 0.931 . S
C994 C991 1.357 . S
C994 C995 1.312 . S
C995 H966 0.930 . S
C995 C990 1.261 . S
C995 C994 1.312 . S
C996 O968 1.214 . S
C996 O976 1.234 . S
C997 H969 0.929 . S
C997 C1000 1.391 . S
C997 C1002 1.391 . S
C998 H970 0.929 . S
C998 C999 1.390 . S
C998 N1001 1.391 . S
C999 H971 0.930 . S
C999 C998 1.390 . S
C999 C1000 1.392 . S
C1000 H972 0.929 . S
C1000 C997 1.391 . S
C1000 C999 1.392 . S
N1001 Co945 2.257 . S
N1001 C998 1.391 . S
N1001 C1002 1.388 . S
C1002 H973 0.930 . S
C1002 C997 1.391 . S
C1002 N1001 1.388 . S
Co1003 O1005 2.143 . S
Co1003 O1011 2.074 . S
Co1003 O1014 2.093 . S
Co1003 O1027 2.097 . S
Co1003 N1044 2.151 . S
Co1003 N1052 2.214 . S
Co1004 O1005 2.160 . S
Co1004 O1010 2.058 . S
Co1004 O1020 2.057 . S
Co1004 O1035 2.037 . S
Co1004 N1039 2.145 . S
Co1004 N1060 2.257 . S
O1005 Co1003 2.143 . S
O1005 Co1004 2.160 . S
C1006 O1007 1.278 . S
C1006 O1014 1.224 . S
O1007 C1006 1.278 . S
C1008 O1009 1.245 . S
C1008 O1020 1.232 . S
O1009 C1008 1.245 . S
O1010 Co1004 2.058 . S
O1010 C1036 1.269 . S
O1011 Co1003 2.074 . S
O1011 C1036 1.257 . S
H1012 C1037 0.930 . S
H1013 C1043 0.930 . S
O1014 Co1003 2.093 . S
O1014 C1006 1.224 . S
H1015 C1047 0.929 . S
H1016 C1049 0.930 . S
H1017 C1050 0.930 . S
H1018 C1048 0.929 . S
H1019 C1051 0.928 . S
O1020 Co1004 2.057 . S
O1020 C1008 1.232 . S
H1021 C1040 0.929 . S
H1022 C1041 0.929 . S
H1023 C1053 0.931 . S
H1024 C1045 0.929 . S
H1025 C1054 0.930 . S
H1026 C1046 0.931 . S
O1027 Co1003 2.097 . S
O1027 C1055 1.214 . S
H1028 C1056 0.929 . S
H1029 C1057 0.929 . S
H1030 C1058 0.930 . S
H1031 C1059 0.929 . S
H1032 C1061 0.930 . S
H1033 C1038 0.930 . S
H1034 C1042 0.930 . S
O1035 Co1004 2.037 . S
O1035 C1055 1.234 . S
C1036 O1010 1.269 . S
C1036 O1011 1.257 . S
C1037 H1012 0.930 . S
C1037 C1040 1.388 . S
C1037 C1042 1.418 . S
C1038 H1033 0.930 . S
C1038 C1041 1.404 . S
C1038 C1042 1.353 . S
N1039 Co1004 2.145 . S
N1039 C1040 1.397 . S
N1039 C1041 1.334 . S
C1040 H1021 0.929 . S
C1040 C1037 1.388 . S
C1040 N1039 1.397 . S
C1041 H1022 0.929 . S
C1041 C1038 1.404 . S
C1041 N1039 1.334 . S
C1042 H1034 0.930 . S
C1042 C1037 1.418 . S
C1042 C1038 1.353 . S
C1043 H1013 0.930 . S
C1043 N1044 1.330 . S
C1043 C1045 1.446 . S
N1044 Co1003 2.151 . S
N1044 C1043 1.330 . S
N1044 C1048 1.418 . S
C1045 H1024 0.929 . S
C1045 C1043 1.446 . S
C1045 C1046 1.332 . S
C1046 H1026 0.931 . S
C1046 C1045 1.332 . S
C1046 C1047 1.267 . S
C1047 H1015 0.929 . S
C1047 C1046 1.267 . S
C1047 C1048 1.251 . S
C1048 H1018 0.929 . S
C1048 N1044 1.418 . S
C1048 C1047 1.251 . S
C1049 H1016 0.930 . S
C1049 C1051 1.406 . S
C1049 C1054 1.261 . S
C1050 H1017 0.930 . S
C1050 N1052 1.325 . S
C1050 C1053 1.357 . S
C1051 H1019 0.928 . S
C1051 C1049 1.406 . S
C1051 N1052 1.261 . S
N1052 Co1003 2.214 . S
N1052 C1050 1.325 . S
N1052 C1051 1.261 . S
C1053 H1023 0.931 . S
C1053 C1050 1.357 . S
C1053 C1054 1.312 . S
C1054 H1025 0.930 . S
C1054 C1049 1.261 . S
C1054 C1053 1.312 . S
C1055 O1027 1.214 . S
C1055 O1035 1.234 . S
C1056 H1028 0.929 . S
C1056 C1059 1.391 . S
C1056 C1061 1.391 . S
C1057 H1029 0.929 . S
C1057 C1058 1.390 . S
C1057 N1060 1.391 . S
C1058 H1030 0.930 . S
C1058 C1057 1.390 . S
C1058 C1059 1.392 . S
C1059 H1031 0.929 . S
C1059 C1056 1.391 . S
C1059 C1058 1.392 . S
N1060 Co1004 2.257 . S
N1060 C1057 1.391 . S
N1060 C1061 1.388 . S
C1061 H1032 0.930 . S
C1061 C1056 1.391 . S
C1061 N1060 1.388 . S
Co1062 O1064 2.143 . S
Co1062 O1070 2.074 . S
Co1062 O1073 2.093 . S
Co1062 O1086 2.097 . S
Co1062 N1103 2.151 . S
Co1062 N1111 2.214 . S
Co1063 O1064 2.160 . S
Co1063 O1069 2.058 . S
Co1063 O1079 2.057 . S
Co1063 O1094 2.037 . S
Co1063 N1098 2.145 . S
Co1063 N1119 2.257 . S
O1064 Co1062 2.143 . S
O1064 Co1063 2.160 . S
C1065 O1066 1.278 . S
C1065 O1073 1.224 . S
O1066 C1065 1.278 . S
C1067 O1068 1.245 . S
C1067 O1079 1.232 . S
O1068 C1067 1.245 . S
O1069 Co1063 2.058 . S
O1069 C1095 1.269 . S
O1070 Co1062 2.074 . S
O1070 C1095 1.257 . S
H1071 C1096 0.930 . S
H1072 C1102 0.930 . S
O1073 Co1062 2.093 . S
O1073 C1065 1.224 . S
H1074 C1106 0.929 . S
H1075 C1108 0.930 . S
H1076 C1109 0.930 . S
H1077 C1107 0.929 . S
H1078 C1110 0.928 . S
O1079 Co1063 2.057 . S
O1079 C1067 1.232 . S
H1080 C1099 0.929 . S
H1081 C1100 0.929 . S
H1082 C1112 0.931 . S
H1083 C1104 0.929 . S
H1084 C1113 0.930 . S
H1085 C1105 0.931 . S
O1086 Co1062 2.097 . S
O1086 C1114 1.214 . S
H1087 C1115 0.929 . S
H1088 C1116 0.929 . S
H1089 C1117 0.930 . S
H1090 C1118 0.929 . S
H1091 C1120 0.930 . S
H1092 C1097 0.930 . S
H1093 C1101 0.930 . S
O1094 Co1063 2.037 . S
O1094 C1114 1.234 . S
C1095 O1069 1.269 . S
C1095 O1070 1.257 . S
C1096 H1071 0.930 . S
C1096 C1099 1.388 . S
C1096 C1101 1.418 . S
C1097 H1092 0.930 . S
C1097 C1100 1.404 . S
C1097 C1101 1.353 . S
N1098 Co1063 2.145 . S
N1098 C1099 1.397 . S
N1098 C1100 1.334 . S
C1099 H1080 0.929 . S
C1099 C1096 1.388 . S
C1099 N1098 1.397 . S
C1100 H1081 0.929 . S
C1100 C1097 1.404 . S
C1100 N1098 1.334 . S
C1101 H1093 0.930 . S
C1101 C1096 1.418 . S
C1101 C1097 1.353 . S
C1102 H1072 0.930 . S
C1102 N1103 1.330 . S
C1102 C1104 1.446 . S
N1103 Co1062 2.151 . S
N1103 C1102 1.330 . S
N1103 C1107 1.418 . S
C1104 H1083 0.929 . S
C1104 C1102 1.446 . S
C1104 C1105 1.332 . S
C1105 H1085 0.931 . S
C1105 C1104 1.332 . S
C1105 C1106 1.267 . S
C1106 H1074 0.929 . S
C1106 C1105 1.267 . S
C1106 C1107 1.251 . S
C1107 H1077 0.929 . S
C1107 N1103 1.418 . S
C1107 C1106 1.251 . S
C1108 H1075 0.930 . S
C1108 C1110 1.406 . S
C1108 C1113 1.261 . S
C1109 H1076 0.930 . S
C1109 N1111 1.325 . S
C1109 C1112 1.357 . S
C1110 H1078 0.928 . S
C1110 C1108 1.406 . S
C1110 N1111 1.261 . S
N1111 Co1062 2.214 . S
N1111 C1109 1.325 . S
N1111 C1110 1.261 . S
C1112 H1082 0.931 . S
C1112 C1109 1.357 . S
C1112 C1113 1.312 . S
C1113 H1084 0.930 . S
C1113 C1108 1.261 . S
C1113 C1112 1.312 . S
C1114 O1086 1.214 . S
C1114 O1094 1.234 . S
C1115 H1087 0.929 . S
C1115 C1118 1.391 . S
C1115 C1120 1.391 . S
C1116 H1088 0.929 . S
C1116 C1117 1.390 . S
C1116 N1119 1.391 . S
C1117 H1089 0.930 . S
C1117 C1116 1.390 . S
C1117 C1118 1.392 . S
C1118 H1090 0.929 . S
C1118 C1115 1.391 . S
C1118 C1117 1.392 . S
N1119 Co1063 2.257 . S
N1119 C1116 1.391 . S
N1119 C1120 1.388 . S
C1120 H1091 0.930 . S
C1120 C1115 1.391 . S
C1120 N1119 1.388 . S
Co1121 O1123 2.143 . S
Co1121 O1129 2.074 . S
Co1121 O1132 2.093 . S
Co1121 O1145 2.097 . S
Co1121 N1162 2.151 . S
Co1121 N1170 2.214 . S
Co1122 O1123 2.160 . S
Co1122 O1128 2.058 . S
Co1122 O1138 2.057 . S
Co1122 O1153 2.037 . S
Co1122 N1157 2.145 . S
Co1122 N1178 2.257 . S
O1123 Co1121 2.143 . S
O1123 Co1122 2.160 . S
C1124 O1125 1.278 . S
C1124 O1132 1.224 . S
O1125 C1124 1.278 . S
C1126 O1127 1.245 . S
C1126 O1138 1.232 . S
O1127 C1126 1.245 . S
O1128 Co1122 2.058 . S
O1128 C1154 1.269 . S
O1129 Co1121 2.074 . S
O1129 C1154 1.257 . S
H1130 C1155 0.930 . S
H1131 C1161 0.930 . S
O1132 Co1121 2.093 . S
O1132 C1124 1.224 . S
H1133 C1165 0.929 . S
H1134 C1167 0.930 . S
H1135 C1168 0.930 . S
H1136 C1166 0.929 . S
H1137 C1169 0.928 . S
O1138 Co1122 2.057 . S
O1138 C1126 1.232 . S
H1139 C1158 0.929 . S
H1140 C1159 0.929 . S
H1141 C1171 0.931 . S
H1142 C1163 0.929 . S
H1143 C1172 0.930 . S
H1144 C1164 0.931 . S
O1145 Co1121 2.097 . S
O1145 C1173 1.214 . S
H1146 C1174 0.929 . S
H1147 C1175 0.929 . S
H1148 C1176 0.930 . S
H1149 C1177 0.929 . S
H1150 C1179 0.930 . S
H1151 C1156 0.930 . S
H1152 C1160 0.930 . S
O1153 Co1122 2.037 . S
O1153 C1173 1.234 . S
C1154 O1128 1.269 . S
C1154 O1129 1.257 . S
C1155 H1130 0.930 . S
C1155 C1158 1.388 . S
C1155 C1160 1.418 . S
C1156 H1151 0.930 . S
C1156 C1159 1.404 . S
C1156 C1160 1.353 . S
N1157 Co1122 2.145 . S
N1157 C1158 1.397 . S
N1157 C1159 1.334 . S
C1158 H1139 0.929 . S
C1158 C1155 1.388 . S
C1158 N1157 1.397 . S
C1159 H1140 0.929 . S
C1159 C1156 1.404 . S
C1159 N1157 1.334 . S
C1160 H1152 0.930 . S
C1160 C1155 1.418 . S
C1160 C1156 1.353 . S
C1161 H1131 0.930 . S
C1161 N1162 1.330 . S
C1161 C1163 1.446 . S
N1162 Co1121 2.151 . S
N1162 C1161 1.330 . S
N1162 C1166 1.418 . S
C1163 H1142 0.929 . S
C1163 C1161 1.446 . S
C1163 C1164 1.332 . S
C1164 H1144 0.931 . S
C1164 C1163 1.332 . S
C1164 C1165 1.267 . S
C1165 H1133 0.929 . S
C1165 C1164 1.267 . S
C1165 C1166 1.251 . S
C1166 H1136 0.929 . S
C1166 N1162 1.418 . S
C1166 C1165 1.251 . S
C1167 H1134 0.930 . S
C1167 C1169 1.406 . S
C1167 C1172 1.261 . S
C1168 H1135 0.930 . S
C1168 N1170 1.325 . S
C1168 C1171 1.357 . S
C1169 H1137 0.928 . S
C1169 C1167 1.406 . S
C1169 N1170 1.261 . S
N1170 Co1121 2.214 . S
N1170 C1168 1.325 . S
N1170 C1169 1.261 . S
C1171 H1141 0.931 . S
C1171 C1168 1.357 . S
C1171 C1172 1.312 . S
C1172 H1143 0.930 . S
C1172 C1167 1.261 . S
C1172 C1171 1.312 . S
C1173 O1145 1.214 . S
C1173 O1153 1.234 . S
C1174 H1146 0.929 . S
C1174 C1177 1.391 . S
C1174 C1179 1.391 . S
C1175 H1147 0.929 . S
C1175 C1176 1.390 . S
C1175 N1178 1.391 . S
C1176 H1148 0.930 . S
C1176 C1175 1.390 . S
C1176 C1177 1.392 . S
C1177 H1149 0.929 . S
C1177 C1174 1.391 . S
C1177 C1176 1.392 . S
N1178 Co1122 2.257 . S
N1178 C1175 1.391 . S
N1178 C1179 1.388 . S
C1179 H1150 0.930 . S
C1179 C1174 1.391 . S
C1179 N1178 1.388 . S
Co1180 O1182 2.143 . S
Co1180 O1188 2.074 . S
Co1180 O1191 2.093 . S
Co1180 O1204 2.097 . S
Co1180 N1221 2.151 . S
Co1180 N1229 2.214 . S
Co1181 O1182 2.160 . S
Co1181 O1187 2.058 . S
Co1181 O1197 2.057 . S
Co1181 O1212 2.037 . S
Co1181 N1216 2.145 . S
Co1181 N1237 2.257 . S
O1182 Co1180 2.143 . S
O1182 Co1181 2.160 . S
C1183 O1184 1.278 . S
C1183 O1191 1.224 . S
O1184 C1183 1.278 . S
C1185 O1186 1.245 . S
C1185 O1197 1.232 . S
O1186 C1185 1.245 . S
O1187 Co1181 2.058 . S
O1187 C1213 1.269 . S
O1188 Co1180 2.074 . S
O1188 C1213 1.257 . S
H1189 C1214 0.930 . S
H1190 C1220 0.930 . S
O1191 Co1180 2.093 . S
O1191 C1183 1.224 . S
H1192 C1224 0.929 . S
H1193 C1226 0.930 . S
H1194 C1227 0.930 . S
H1195 C1225 0.929 . S
H1196 C1228 0.928 . S
O1197 Co1181 2.057 . S
O1197 C1185 1.232 . S
H1198 C1217 0.929 . S
H1199 C1218 0.929 . S
H1200 C1230 0.931 . S
H1201 C1222 0.929 . S
H1202 C1231 0.930 . S
H1203 C1223 0.931 . S
O1204 Co1180 2.097 . S
O1204 C1232 1.214 . S
H1205 C1233 0.929 . S
H1206 C1234 0.929 . S
H1207 C1235 0.930 . S
H1208 C1236 0.929 . S
H1209 C1238 0.930 . S
H1210 C1215 0.930 . S
H1211 C1219 0.930 . S
O1212 Co1181 2.037 . S
O1212 C1232 1.234 . S
C1213 O1187 1.269 . S
C1213 O1188 1.257 . S
C1214 H1189 0.930 . S
C1214 C1217 1.388 . S
C1214 C1219 1.418 . S
C1215 H1210 0.930 . S
C1215 C1218 1.404 . S
C1215 C1219 1.353 . S
N1216 Co1181 2.145 . S
N1216 C1217 1.397 . S
N1216 C1218 1.334 . S
C1217 H1198 0.929 . S
C1217 C1214 1.388 . S
C1217 N1216 1.397 . S
C1218 H1199 0.929 . S
C1218 C1215 1.404 . S
C1218 N1216 1.334 . S
C1219 H1211 0.930 . S
C1219 C1214 1.418 . S
C1219 C1215 1.353 . S
C1220 H1190 0.930 . S
C1220 N1221 1.330 . S
C1220 C1222 1.446 . S
N1221 Co1180 2.151 . S
N1221 C1220 1.330 . S
N1221 C1225 1.418 . S
C1222 H1201 0.929 . S
C1222 C1220 1.446 . S
C1222 C1223 1.332 . S
C1223 H1203 0.931 . S
C1223 C1222 1.332 . S
C1223 C1224 1.267 . S
C1224 H1192 0.929 . S
C1224 C1223 1.267 . S
C1224 C1225 1.251 . S
C1225 H1195 0.929 . S
C1225 N1221 1.418 . S
C1225 C1224 1.251 . S
C1226 H1193 0.930 . S
C1226 C1228 1.406 . S
C1226 C1231 1.261 . S
C1227 H1194 0.930 . S
C1227 N1229 1.325 . S
C1227 C1230 1.357 . S
C1228 H1196 0.928 . S
C1228 C1226 1.406 . S
C1228 N1229 1.261 . S
N1229 Co1180 2.214 . S
N1229 C1227 1.325 . S
N1229 C1228 1.261 . S
C1230 H1200 0.931 . S
C1230 C1227 1.357 . S
C1230 C1231 1.312 . S
C1231 H1202 0.930 . S
C1231 C1226 1.261 . S
C1231 C1230 1.312 . S
C1232 O1204 1.214 . S
C1232 O1212 1.234 . S
C1233 H1205 0.929 . S
C1233 C1236 1.391 . S
C1233 C1238 1.391 . S
C1234 H1206 0.929 . S
C1234 C1235 1.390 . S
C1234 N1237 1.391 . S
C1235 H1207 0.930 . S
C1235 C1234 1.390 . S
C1235 C1236 1.392 . S
C1236 H1208 0.929 . S
C1236 C1233 1.391 . S
C1236 C1235 1.392 . S
N1237 Co1181 2.257 . S
N1237 C1234 1.391 . S
N1237 C1238 1.388 . S
C1238 H1209 0.930 . S
C1238 C1233 1.391 . S
C1238 N1237 1.388 . S
Co1239 O1241 2.143 . S
Co1239 O1247 2.074 . S
Co1239 O1250 2.093 . S
Co1239 O1263 2.097 . S
Co1239 N1280 2.151 . S
Co1239 N1288 2.214 . S
Co1240 O1241 2.160 . S
Co1240 O1246 2.058 . S
Co1240 O1256 2.057 . S
Co1240 O1271 2.037 . S
Co1240 N1275 2.145 . S
Co1240 N1296 2.231 1_545 S
O1241 Co1239 2.143 . S
O1241 Co1240 2.160 . S
C1242 O1243 1.278 . S
C1242 O1250 1.224 . S
O1243 C1242 1.278 . S
C1244 O1245 1.245 . S
C1244 O1256 1.232 . S
O1245 C1244 1.245 . S
O1246 Co1240 2.058 . S
O1246 C1272 1.269 . S
O1247 Co1239 2.074 . S
O1247 C1272 1.257 . S
H1248 C1273 0.930 . S
H1249 C1279 0.930 . S
O1250 Co1239 2.093 . S
O1250 C1242 1.224 . S
H1251 C1283 0.929 . S
H1252 C1285 0.930 1_554 S
H1253 C1286 0.930 . S
H1254 C1284 0.929 . S
H1255 C1287 0.928 . S
O1256 Co1240 2.057 . S
O1256 C1244 1.232 . S
H1257 C1276 0.929 . S
H1258 C1277 0.929 . S
H1259 C1289 0.931 . S
H1260 C1281 0.929 . S
H1261 C1290 0.930 . S
H1262 C1282 0.931 . S
O1263 Co1239 2.097 . S
O1263 C1291 1.214 . S
H1264 C1292 0.929 . S
H1265 C1293 0.929 . S
H1266 C1294 0.930 . S
H1267 C1295 0.929 . S
H1268 C1297 0.930 1_545 S
H1269 C1274 0.930 . S
H1270 C1278 0.930 . S
O1271 Co1240 2.037 . S
O1271 C1291 1.234 . S
C1272 O1246 1.269 . S
C1272 O1247 1.257 . S
C1273 H1248 0.930 . S
C1273 C1276 1.388 . S
C1273 C1278 1.418 . S
C1274 H1269 0.930 . S
C1274 C1277 1.404 . S
C1274 C1278 1.353 . S
N1275 Co1240 2.145 . S
N1275 C1276 1.397 . S
N1275 C1277 1.334 . S
C1276 H1257 0.929 . S
C1276 C1273 1.388 . S
C1276 N1275 1.397 . S
C1277 H1258 0.929 . S
C1277 C1274 1.404 . S
C1277 N1275 1.334 . S
C1278 H1270 0.930 . S
C1278 C1273 1.418 . S
C1278 C1274 1.353 . S
C1279 H1249 0.930 . S
C1279 N1280 1.330 . S
C1279 C1281 1.446 . S
N1280 Co1239 2.151 . S
N1280 C1279 1.330 . S
N1280 C1284 1.418 . S
C1281 H1260 0.929 . S
C1281 C1279 1.446 . S
C1281 C1282 1.332 . S
C1282 H1262 0.931 . S
C1282 C1281 1.332 . S
C1282 C1283 1.267 . S
C1283 H1251 0.929 . S
C1283 C1282 1.267 . S
C1283 C1284 1.251 . S
C1284 H1254 0.929 . S
C1284 N1280 1.418 . S
C1284 C1283 1.251 . S
C1285 H1252 0.930 1_556 S
C1285 C1287 1.406 . S
C1285 C1290 1.261 . S
C1286 H1253 0.930 . S
C1286 N1288 1.325 . S
C1286 C1289 1.357 . S
C1287 H1255 0.928 . S
C1287 C1285 1.406 . S
C1287 N1288 1.261 . S
N1288 Co1239 2.214 . S
N1288 C1286 1.325 . S
N1288 C1287 1.261 . S
C1289 H1259 0.931 . S
C1289 C1286 1.357 . S
C1289 C1290 1.312 . S
C1290 H1261 0.930 . S
C1290 C1285 1.261 . S
C1290 C1289 1.312 . S
C1291 O1263 1.214 . S
C1291 O1271 1.234 . S
C1292 H1264 0.929 . S
C1292 C1295 1.391 . S
C1292 C1297 1.391 . S
C1293 H1265 0.929 . S
C1293 C1294 1.390 . S
C1293 N1296 1.402 . S
C1294 H1266 0.930 . S
C1294 C1293 1.390 . S
C1294 C1295 1.392 . S
C1295 H1267 0.929 . S
C1295 C1292 1.391 . S
C1295 C1294 1.392 . S
N1296 Co1240 2.231 1_565 S
N1296 C1293 1.402 . S
N1296 C1297 1.403 . S
C1297 H1268 0.930 1_565 S
C1297 C1292 1.391 . S
C1297 N1296 1.403 . S
Co1298 O1300 2.143 . S
Co1298 O1306 2.074 . S
Co1298 O1309 2.093 . S
Co1298 O1322 2.097 . S
Co1298 N1339 2.151 . S
Co1298 N1347 2.214 . S
Co1299 O1300 2.160 . S
Co1299 O1305 2.058 . S
Co1299 O1315 2.057 . S
Co1299 O1330 2.037 . S
Co1299 N1334 2.145 . S
Co1299 N1355 2.242 1_655 S
O1300 Co1298 2.143 . S
O1300 Co1299 2.160 . S
C1301 O1302 1.278 . S
C1301 O1309 1.224 . S
O1302 C1301 1.278 . S
C1303 O1304 1.245 . S
C1303 O1315 1.232 . S
O1304 C1303 1.245 . S
O1305 Co1299 2.058 . S
O1305 C1331 1.269 . S
O1306 Co1298 2.074 . S
O1306 C1331 1.257 . S
H1307 C1332 0.930 . S
H1308 C1338 0.930 . S
O1309 Co1298 2.093 . S
O1309 C1301 1.224 . S
H1310 C1342 0.929 . S
H1311 C1344 0.930 1_554 S
H1312 C1345 0.930 . S
H1313 C1343 0.929 . S
H1314 C1346 0.928 . S
O1315 Co1299 2.057 . S
O1315 C1303 1.232 . S
H1316 C1335 0.929 . S
H1317 C1336 0.929 . S
H1318 C1348 0.931 . S
H1319 C1340 0.929 . S
H1320 C1349 0.930 . S
H1321 C1341 0.931 . S
O1322 Co1298 2.097 . S
O1322 C1350 1.214 . S
H1323 C1351 0.929 . S
H1324 C1352 0.929 . S
H1325 C1353 0.930 . S
H1326 C1354 0.929 . S
H1327 C1356 0.930 1_655 S
H1328 C1333 0.930 . S
H1329 C1337 0.930 . S
O1330 Co1299 2.037 . S
O1330 C1350 1.234 . S
C1331 O1305 1.269 . S
C1331 O1306 1.257 . S
C1332 H1307 0.930 . S
C1332 C1335 1.388 . S
C1332 C1337 1.418 . S
C1333 H1328 0.930 . S
C1333 C1336 1.404 . S
C1333 C1337 1.353 . S
N1334 Co1299 2.145 . S
N1334 C1335 1.397 . S
N1334 C1336 1.334 . S
C1335 H1316 0.929 . S
C1335 C1332 1.388 . S
C1335 N1334 1.397 . S
C1336 H1317 0.929 . S
C1336 C1333 1.404 . S
C1336 N1334 1.334 . S
C1337 H1329 0.930 . S
C1337 C1332 1.418 . S
C1337 C1333 1.353 . S
C1338 H1308 0.930 . S
C1338 N1339 1.330 . S
C1338 C1340 1.446 . S
N1339 Co1298 2.151 . S
N1339 C1338 1.330 . S
N1339 C1343 1.418 . S
C1340 H1319 0.929 . S
C1340 C1338 1.446 . S
C1340 C1341 1.332 . S
C1341 H1321 0.931 . S
C1341 C1340 1.332 . S
C1341 C1342 1.267 . S
C1342 H1310 0.929 . S
C1342 C1341 1.267 . S
C1342 C1343 1.251 . S
C1343 H1313 0.929 . S
C1343 N1339 1.418 . S
C1343 C1342 1.251 . S
C1344 H1311 0.930 1_556 S
C1344 C1346 1.406 . S
C1344 C1349 1.261 . S
C1345 H1312 0.930 . S
C1345 N1347 1.325 . S
C1345 C1348 1.357 . S
C1346 H1314 0.928 . S
C1346 C1344 1.406 . S
C1346 N1347 1.261 . S
N1347 Co1298 2.214 . S
N1347 C1345 1.325 . S
N1347 C1346 1.261 . S
C1348 H1318 0.931 . S
C1348 C1345 1.357 . S
C1348 C1349 1.312 . S
C1349 H1320 0.930 . S
C1349 C1344 1.261 . S
C1349 C1348 1.312 . S
C1350 O1322 1.214 . S
C1350 O1330 1.234 . S
C1351 H1323 0.929 . S
C1351 C1354 1.391 . S
C1351 C1356 1.391 . S
C1352 H1324 0.929 . S
C1352 C1353 1.390 . S
C1352 N1355 1.418 . S
C1353 H1325 0.930 . S
C1353 C1352 1.390 . S
C1353 C1354 1.392 . S
C1354 H1326 0.929 . S
C1354 C1351 1.391 . S
C1354 C1353 1.392 . S
N1355 Co1299 2.242 1_455 S
N1355 C1352 1.418 . S
N1355 C1356 1.379 . S
C1356 H1327 0.930 1_455 S
C1356 C1351 1.391 . S
C1356 N1355 1.379 . S
Co1357 O1359 2.143 . S
Co1357 O1365 2.074 . S
Co1357 O1368 2.093 . S
Co1357 O1381 2.097 . S
Co1357 N1398 2.151 . S
Co1357 N1406 2.214 . S
Co1358 O1359 2.160 . S
Co1358 O1364 2.058 . S
Co1358 O1374 2.057 . S
Co1358 O1389 2.037 . S
Co1358 N1393 2.145 . S
Co1358 N1414 2.257 . S
O1359 Co1357 2.143 . S
O1359 Co1358 2.160 . S
C1360 O1361 1.278 . S
C1360 O1368 1.224 . S
O1361 C1360 1.278 . S
C1362 O1363 1.245 . S
C1362 O1374 1.232 . S
O1363 C1362 1.245 . S
O1364 Co1358 2.058 . S
O1364 C1390 1.269 . S
O1365 Co1357 2.074 . S
O1365 C1390 1.257 . S
H1366 C1391 0.930 . S
H1367 C1397 0.930 . S
O1368 Co1357 2.093 . S
O1368 C1360 1.224 . S
H1369 C1401 0.929 . S
H1370 C1403 0.930 1_554 S
H1371 C1404 0.930 . S
H1372 C1402 0.929 . S
H1373 C1405 0.928 . S
O1374 Co1358 2.057 . S
O1374 C1362 1.232 . S
H1375 C1394 0.929 . S
H1376 C1395 0.929 . S
H1377 C1407 0.931 . S
H1378 C1399 0.929 . S
H1379 C1408 0.930 . S
H1380 C1400 0.931 . S
O1381 Co1357 2.097 . S
O1381 C1409 1.214 . S
H1382 C1410 0.929 . S
H1383 C1411 0.929 . S
H1384 C1412 0.930 . S
H1385 C1413 0.929 . S
H1386 C1415 0.930 . S
H1387 C1392 0.930 . S
H1388 C1396 0.930 . S
O1389 Co1358 2.037 . S
O1389 C1409 1.234 . S
C1390 O1364 1.269 . S
C1390 O1365 1.257 . S
C1391 H1366 0.930 . S
C1391 C1394 1.388 . S
C1391 C1396 1.418 . S
C1392 H1387 0.930 . S
C1392 C1395 1.404 . S
C1392 C1396 1.353 . S
N1393 Co1358 2.145 . S
N1393 C1394 1.397 . S
N1393 C1395 1.334 . S
C1394 H1375 0.929 . S
C1394 C1391 1.388 . S
C1394 N1393 1.397 . S
C1395 H1376 0.929 . S
C1395 C1392 1.404 . S
C1395 N1393 1.334 . S
C1396 H1388 0.930 . S
C1396 C1391 1.418 . S
C1396 C1392 1.353 . S
C1397 H1367 0.930 . S
C1397 N1398 1.330 . S
C1397 C1399 1.446 . S
N1398 Co1357 2.151 . S
N1398 C1397 1.330 . S
N1398 C1402 1.418 . S
C1399 H1378 0.929 . S
C1399 C1397 1.446 . S
C1399 C1400 1.332 . S
C1400 H1380 0.931 . S
C1400 C1399 1.332 . S
C1400 C1401 1.267 . S
C1401 H1369 0.929 . S
C1401 C1400 1.267 . S
C1401 C1402 1.251 . S
C1402 H1372 0.929 . S
C1402 N1398 1.418 . S
C1402 C1401 1.251 . S
C1403 H1370 0.930 1_556 S
C1403 C1405 1.406 . S
C1403 C1408 1.261 . S
C1404 H1371 0.930 . S
C1404 N1406 1.325 . S
C1404 C1407 1.357 . S
C1405 H1373 0.928 . S
C1405 C1403 1.406 . S
C1405 N1406 1.261 . S
N1406 Co1357 2.214 . S
N1406 C1404 1.325 . S
N1406 C1405 1.261 . S
C1407 H1377 0.931 . S
C1407 C1404 1.357 . S
C1407 C1408 1.312 . S
C1408 H1379 0.930 . S
C1408 C1403 1.261 . S
C1408 C1407 1.312 . S
C1409 O1381 1.214 . S
C1409 O1389 1.234 . S
C1410 H1382 0.929 . S
C1410 C1413 1.391 . S
C1410 C1415 1.391 . S
C1411 H1383 0.929 . S
C1411 C1412 1.390 . S
C1411 N1414 1.391 . S
C1412 H1384 0.930 . S
C1412 C1411 1.390 . S
C1412 C1413 1.392 . S
C1413 H1385 0.929 . S
C1413 C1410 1.391 . S
C1413 C1412 1.392 . S
N1414 Co1358 2.257 . S
N1414 C1411 1.391 . S
N1414 C1415 1.388 . S
C1415 H1386 0.930 . S
C1415 C1410 1.391 . S
C1415 N1414 1.388 . S
Co1416 O1418 2.143 . S
Co1416 O1424 2.074 . S
Co1416 O1427 2.093 . S
Co1416 O1440 2.097 . S
Co1416 N1457 2.151 . S
Co1416 N1465 2.214 . S
Co1417 O1418 2.160 . S
Co1417 O1423 2.058 . S
Co1417 O1433 2.057 . S
Co1417 O1448 2.037 . S
Co1417 N1452 2.145 . S
Co1417 N1473 2.257 . S
O1418 Co1416 2.143 . S
O1418 Co1417 2.160 . S
C1419 O1420 1.278 . S
C1419 O1427 1.224 . S
O1420 C1419 1.278 . S
C1421 O1422 1.245 . S
C1421 O1433 1.232 . S
O1422 C1421 1.245 . S
O1423 Co1417 2.058 . S
O1423 C1449 1.269 . S
O1424 Co1416 2.074 . S
O1424 C1449 1.257 . S
H1425 C1450 0.930 . S
H1426 C1456 0.930 . S
O1427 Co1416 2.093 . S
O1427 C1419 1.224 . S
H1428 C1460 0.929 . S
H1429 C1462 0.930 . S
H1430 C1463 0.930 . S
H1431 C1461 0.929 . S
H1432 C1464 0.928 . S
O1433 Co1417 2.057 . S
O1433 C1421 1.232 . S
H1434 C1453 0.929 . S
H1435 C1454 0.929 . S
H1436 C1466 0.931 . S
H1437 C1458 0.929 . S
H1438 C1467 0.930 . S
H1439 C1459 0.931 . S
O1440 Co1416 2.097 . S
O1440 C1468 1.214 . S
H1441 C1469 0.929 . S
H1442 C1470 0.929 . S
H1443 C1471 0.930 . S
H1444 C1472 0.929 . S
H1445 C1474 0.930 . S
H1446 C1451 0.930 . S
H1447 C1455 0.930 . S
O1448 Co1417 2.037 . S
O1448 C1468 1.234 . S
C1449 O1423 1.269 . S
C1449 O1424 1.257 . S
C1450 H1425 0.930 . S
C1450 C1453 1.388 . S
C1450 C1455 1.418 . S
C1451 H1446 0.930 . S
C1451 C1454 1.404 . S
C1451 C1455 1.353 . S
N1452 Co1417 2.145 . S
N1452 C1453 1.397 . S
N1452 C1454 1.334 . S
C1453 H1434 0.929 . S
C1453 C1450 1.388 . S
C1453 N1452 1.397 . S
C1454 H1435 0.929 . S
C1454 C1451 1.404 . S
C1454 N1452 1.334 . S
C1455 H1447 0.930 . S
C1455 C1450 1.418 . S
C1455 C1451 1.353 . S
C1456 H1426 0.930 . S
C1456 N1457 1.330 . S
C1456 C1458 1.446 . S
N1457 Co1416 2.151 . S
N1457 C1456 1.330 . S
N1457 C1461 1.418 . S
C1458 H1437 0.929 . S
C1458 C1456 1.446 . S
C1458 C1459 1.332 . S
C1459 H1439 0.931 . S
C1459 C1458 1.332 . S
C1459 C1460 1.267 . S
C1460 H1428 0.929 . S
C1460 C1459 1.267 . S
C1460 C1461 1.251 . S
C1461 H1431 0.929 . S
C1461 N1457 1.418 . S
C1461 C1460 1.251 . S
C1462 H1429 0.930 . S
C1462 C1464 1.406 . S
C1462 C1467 1.261 . S
C1463 H1430 0.930 . S
C1463 N1465 1.325 . S
C1463 C1466 1.357 . S
C1464 H1432 0.928 . S
C1464 C1462 1.406 . S
C1464 N1465 1.261 . S
N1465 Co1416 2.214 . S
N1465 C1463 1.325 . S
N1465 C1464 1.261 . S
C1466 H1436 0.931 . S
C1466 C1463 1.357 . S
C1466 C1467 1.312 . S
C1467 H1438 0.930 . S
C1467 C1462 1.261 . S
C1467 C1466 1.312 . S
C1468 O1440 1.214 . S
C1468 O1448 1.234 . S
C1469 H1441 0.929 . S
C1469 C1472 1.391 . S
C1469 C1474 1.391 . S
C1470 H1442 0.929 . S
C1470 C1471 1.390 . S
C1470 N1473 1.391 . S
C1471 H1443 0.930 . S
C1471 C1470 1.390 . S
C1471 C1472 1.392 . S
C1472 H1444 0.929 . S
C1472 C1469 1.391 . S
C1472 C1471 1.392 . S
N1473 Co1417 2.257 . S
N1473 C1470 1.391 . S
N1473 C1474 1.388 . S
C1474 H1445 0.930 . S
C1474 C1469 1.391 . S
C1474 N1473 1.388 . S
Co1475 O1477 2.143 . S
Co1475 O1483 2.074 . S
Co1475 O1486 2.093 . S
Co1475 O1499 2.097 . S
Co1475 N1516 2.151 . S
Co1475 N1524 2.214 . S
Co1476 O1477 2.160 . S
Co1476 O1482 2.058 . S
Co1476 O1492 2.057 . S
Co1476 O1507 2.037 . S
Co1476 N1511 2.145 . S
Co1476 N1532 2.257 . S
O1477 Co1475 2.143 . S
O1477 Co1476 2.160 . S
C1478 O1479 1.278 . S
C1478 O1486 1.224 . S
O1479 C1478 1.278 . S
C1480 O1481 1.245 . S
C1480 O1492 1.232 . S
O1481 C1480 1.245 . S
O1482 Co1476 2.058 . S
O1482 C1508 1.269 . S
O1483 Co1475 2.074 . S
O1483 C1508 1.257 . S
H1484 C1509 0.930 . S
H1485 C1515 0.930 . S
O1486 Co1475 2.093 . S
O1486 C1478 1.224 . S
H1487 C1519 0.929 . S
H1488 C1521 0.930 . S
H1489 C1522 0.930 . S
H1490 C1520 0.929 . S
H1491 C1523 0.928 . S
O1492 Co1476 2.057 . S
O1492 C1480 1.232 . S
H1493 C1512 0.929 . S
H1494 C1513 0.929 . S
H1495 C1525 0.931 . S
H1496 C1517 0.929 . S
H1497 C1526 0.930 . S
H1498 C1518 0.931 . S
O1499 Co1475 2.097 . S
O1499 C1527 1.214 . S
H1500 C1528 0.929 . S
H1501 C1529 0.929 . S
H1502 C1530 0.930 . S
H1503 C1531 0.929 . S
H1504 C1533 0.930 . S
H1505 C1510 0.930 . S
H1506 C1514 0.930 . S
O1507 Co1476 2.037 . S
O1507 C1527 1.234 . S
C1508 O1482 1.269 . S
C1508 O1483 1.257 . S
C1509 H1484 0.930 . S
C1509 C1512 1.388 . S
C1509 C1514 1.418 . S
C1510 H1505 0.930 . S
C1510 C1513 1.404 . S
C1510 C1514 1.353 . S
N1511 Co1476 2.145 . S
N1511 C1512 1.397 . S
N1511 C1513 1.334 . S
C1512 H1493 0.929 . S
C1512 C1509 1.388 . S
C1512 N1511 1.397 . S
C1513 H1494 0.929 . S
C1513 C1510 1.404 . S
C1513 N1511 1.334 . S
C1514 H1506 0.930 . S
C1514 C1509 1.418 . S
C1514 C1510 1.353 . S
C1515 H1485 0.930 . S
C1515 N1516 1.330 . S
C1515 C1517 1.446 . S
N1516 Co1475 2.151 . S
N1516 C1515 1.330 . S
N1516 C1520 1.418 . S
C1517 H1496 0.929 . S
C1517 C1515 1.446 . S
C1517 C1518 1.332 . S
C1518 H1498 0.931 . S
C1518 C1517 1.332 . S
C1518 C1519 1.267 . S
C1519 H1487 0.929 . S
C1519 C1518 1.267 . S
C1519 C1520 1.251 . S
C1520 H1490 0.929 . S
C1520 N1516 1.418 . S
C1520 C1519 1.251 . S
C1521 H1488 0.930 . S
C1521 C1523 1.406 . S
C1521 C1526 1.261 . S
C1522 H1489 0.930 . S
C1522 N1524 1.325 . S
C1522 C1525 1.357 . S
C1523 H1491 0.928 . S
C1523 C1521 1.406 . S
C1523 N1524 1.261 . S
N1524 Co1475 2.214 . S
N1524 C1522 1.325 . S
N1524 C1523 1.261 . S
C1525 H1495 0.931 . S
C1525 C1522 1.357 . S
C1525 C1526 1.312 . S
C1526 H1497 0.930 . S
C1526 C1521 1.261 . S
C1526 C1525 1.312 . S
C1527 O1499 1.214 . S
C1527 O1507 1.234 . S
C1528 H1500 0.929 . S
C1528 C1531 1.391 . S
C1528 C1533 1.391 . S
C1529 H1501 0.929 . S
C1529 C1530 1.390 . S
C1529 N1532 1.391 . S
C1530 H1502 0.930 . S
C1530 C1529 1.390 . S
C1530 C1531 1.392 . S
C1531 H1503 0.929 . S
C1531 C1528 1.391 . S
C1531 C1530 1.392 . S
N1532 Co1476 2.257 . S
N1532 C1529 1.391 . S
N1532 C1533 1.388 . S
C1533 H1504 0.930 . S
C1533 C1528 1.391 . S
C1533 N1532 1.388 . S
Co1534 O1536 2.143 . S
Co1534 O1542 2.074 . S
Co1534 O1545 2.093 . S
Co1534 O1558 2.097 . S
Co1534 N1575 2.151 . S
Co1534 N1583 2.214 . S
Co1535 O1536 2.160 . S
Co1535 O1541 2.058 . S
Co1535 O1551 2.057 . S
Co1535 O1566 2.037 . S
Co1535 N1570 2.145 . S
Co1535 N1591 2.257 . S
O1536 Co1534 2.143 . S
O1536 Co1535 2.160 . S
C1537 O1538 1.278 . S
C1537 O1545 1.224 . S
O1538 C1537 1.278 . S
C1539 O1540 1.245 . S
C1539 O1551 1.232 . S
O1540 C1539 1.245 . S
O1541 Co1535 2.058 . S
O1541 C1567 1.269 . S
O1542 Co1534 2.074 . S
O1542 C1567 1.257 . S
H1543 C1568 0.930 . S
H1544 C1574 0.930 . S
O1545 Co1534 2.093 . S
O1545 C1537 1.224 . S
H1546 C1578 0.929 . S
H1547 C1580 0.930 . S
H1548 C1581 0.930 . S
H1549 C1579 0.929 . S
H1550 C1582 0.928 . S
O1551 Co1535 2.057 . S
O1551 C1539 1.232 . S
H1552 C1571 0.929 . S
H1553 C1572 0.929 . S
H1554 C1584 0.931 . S
H1555 C1576 0.929 . S
H1556 C1585 0.930 . S
H1557 C1577 0.931 . S
O1558 Co1534 2.097 . S
O1558 C1586 1.214 . S
H1559 C1587 0.929 . S
H1560 C1588 0.929 . S
H1561 C1589 0.930 . S
H1562 C1590 0.929 . S
H1563 C1592 0.930 . S
H1564 C1569 0.930 . S
H1565 C1573 0.930 . S
O1566 Co1535 2.037 . S
O1566 C1586 1.234 . S
C1567 O1541 1.269 . S
C1567 O1542 1.257 . S
C1568 H1543 0.930 . S
C1568 C1571 1.388 . S
C1568 C1573 1.418 . S
C1569 H1564 0.930 . S
C1569 C1572 1.404 . S
C1569 C1573 1.353 . S
N1570 Co1535 2.145 . S
N1570 C1571 1.397 . S
N1570 C1572 1.334 . S
C1571 H1552 0.929 . S
C1571 C1568 1.388 . S
C1571 N1570 1.397 . S
C1572 H1553 0.929 . S
C1572 C1569 1.404 . S
C1572 N1570 1.334 . S
C1573 H1565 0.930 . S
C1573 C1568 1.418 . S
C1573 C1569 1.353 . S
C1574 H1544 0.930 . S
C1574 N1575 1.330 . S
C1574 C1576 1.446 . S
N1575 Co1534 2.151 . S
N1575 C1574 1.330 . S
N1575 C1579 1.418 . S
C1576 H1555 0.929 . S
C1576 C1574 1.446 . S
C1576 C1577 1.332 . S
C1577 H1557 0.931 . S
C1577 C1576 1.332 . S
C1577 C1578 1.267 . S
C1578 H1546 0.929 . S
C1578 C1577 1.267 . S
C1578 C1579 1.251 . S
C1579 H1549 0.929 . S
C1579 N1575 1.418 . S
C1579 C1578 1.251 . S
C1580 H1547 0.930 . S
C1580 C1582 1.406 . S
C1580 C1585 1.261 . S
C1581 H1548 0.930 . S
C1581 N1583 1.325 . S
C1581 C1584 1.357 . S
C1582 H1550 0.928 . S
C1582 C1580 1.406 . S
C1582 N1583 1.261 . S
N1583 Co1534 2.214 . S
N1583 C1581 1.325 . S
N1583 C1582 1.261 . S
C1584 H1554 0.931 . S
C1584 C1581 1.357 . S
C1584 C1585 1.312 . S
C1585 H1556 0.930 . S
C1585 C1580 1.261 . S
C1585 C1584 1.312 . S
C1586 O1558 1.214 . S
C1586 O1566 1.234 . S
C1587 H1559 0.929 . S
C1587 C1590 1.391 . S
C1587 C1592 1.391 . S
C1588 H1560 0.929 . S
C1588 C1589 1.390 . S
C1588 N1591 1.391 . S
C1589 H1561 0.930 . S
C1589 C1588 1.390 . S
C1589 C1590 1.392 . S
C1590 H1562 0.929 . S
C1590 C1587 1.391 . S
C1590 C1589 1.392 . S
N1591 Co1535 2.257 . S
N1591 C1588 1.391 . S
N1591 C1592 1.388 . S
C1592 H1563 0.930 . S
C1592 C1587 1.391 . S
C1592 N1591 1.388 . S
Co1593 O1595 2.143 . S
Co1593 O1601 2.074 . S
Co1593 O1604 2.093 . S
Co1593 O1617 2.097 . S
Co1593 N1634 2.151 . S
Co1593 N1642 2.214 . S
Co1594 O1595 2.160 . S
Co1594 O1600 2.058 . S
Co1594 O1610 2.057 . S
Co1594 O1625 2.037 . S
Co1594 N1629 2.145 . S
Co1594 N1650 2.231 1_565 S
O1595 Co1593 2.143 . S
O1595 Co1594 2.160 . S
C1596 O1597 1.278 . S
C1596 O1604 1.224 . S
O1597 C1596 1.278 . S
C1598 O1599 1.245 . S
C1598 O1610 1.232 . S
O1599 C1598 1.245 . S
O1600 Co1594 2.058 . S
O1600 C1626 1.269 . S
O1601 Co1593 2.074 . S
O1601 C1626 1.257 . S
H1602 C1627 0.930 . S
H1603 C1633 0.930 . S
O1604 Co1593 2.093 . S
O1604 C1596 1.224 . S
H1605 C1637 0.929 . S
H1606 C1639 0.930 1_556 S
H1607 C1640 0.930 . S
H1608 C1638 0.929 . S
H1609 C1641 0.928 . S
O1610 Co1594 2.057 . S
O1610 C1598 1.232 . S
H1611 C1630 0.929 . S
H1612 C1631 0.929 . S
H1613 C1643 0.931 . S
H1614 C1635 0.929 . S
H1615 C1644 0.930 . S
H1616 C1636 0.931 . S
O1617 Co1593 2.097 . S
O1617 C1645 1.214 . S
H1618 C1646 0.929 . S
H1619 C1647 0.929 . S
H1620 C1648 0.930 . S
H1621 C1649 0.929 . S
H1622 C1651 0.930 1_565 S
H1623 C1628 0.930 . S
H1624 C1632 0.930 . S
O1625 Co1594 2.037 . S
O1625 C1645 1.234 . S
C1626 O1600 1.269 . S
C1626 O1601 1.257 . S
C1627 H1602 0.930 . S
C1627 C1630 1.388 . S
C1627 C1632 1.418 . S
C1628 H1623 0.930 . S
C1628 C1631 1.404 . S
C1628 C1632 1.353 . S
N1629 Co1594 2.145 . S
N1629 C1630 1.397 . S
N1629 C1631 1.334 . S
C1630 H1611 0.929 . S
C1630 C1627 1.388 . S
C1630 N1629 1.397 . S
C1631 H1612 0.929 . S
C1631 C1628 1.404 . S
C1631 N1629 1.334 . S
C1632 H1624 0.930 . S
C1632 C1627 1.418 . S
C1632 C1628 1.353 . S
C1633 H1603 0.930 . S
C1633 N1634 1.330 . S
C1633 C1635 1.446 . S
N1634 Co1593 2.151 . S
N1634 C1633 1.330 . S
N1634 C1638 1.418 . S
C1635 H1614 0.929 . S
C1635 C1633 1.446 . S
C1635 C1636 1.332 . S
C1636 H1616 0.931 . S
C1636 C1635 1.332 . S
C1636 C1637 1.267 . S
C1637 H1605 0.929 . S
C1637 C1636 1.267 . S
C1637 C1638 1.251 . S
C1638 H1608 0.929 . S
C1638 N1634 1.418 . S
C1638 C1637 1.251 . S
C1639 H1606 0.930 1_554 S
C1639 C1641 1.406 . S
C1639 C1644 1.261 . S
C1640 H1607 0.930 . S
C1640 N1642 1.325 . S
C1640 C1643 1.357 . S
C1641 H1609 0.928 . S
C1641 C1639 1.406 . S
C1641 N1642 1.261 . S
N1642 Co1593 2.214 . S
N1642 C1640 1.325 . S
N1642 C1641 1.261 . S
C1643 H1613 0.931 . S
C1643 C1640 1.357 . S
C1643 C1644 1.312 . S
C1644 H1615 0.930 . S
C1644 C1639 1.261 . S
C1644 C1643 1.312 . S
C1645 O1617 1.214 . S
C1645 O1625 1.234 . S
C1646 H1618 0.929 . S
C1646 C1649 1.391 . S
C1646 C1651 1.391 . S
C1647 H1619 0.929 . S
C1647 C1648 1.390 . S
C1647 N1650 1.402 . S
C1648 H1620 0.930 . S
C1648 C1647 1.390 . S
C1648 C1649 1.392 . S
C1649 H1621 0.929 . S
C1649 C1646 1.391 . S
C1649 C1648 1.392 . S
N1650 Co1594 2.231 1_545 S
N1650 C1647 1.402 . S
N1650 C1651 1.403 . S
C1651 H1622 0.930 1_545 S
C1651 C1646 1.391 . S
C1651 N1650 1.403 . S
Co1652 O1654 2.143 . S
Co1652 O1660 2.074 . S
Co1652 O1663 2.093 . S
Co1652 O1676 2.097 . S
Co1652 N1693 2.151 . S
Co1652 N1701 2.214 . S
Co1653 O1654 2.160 . S
Co1653 O1659 2.058 . S
Co1653 O1669 2.057 . S
Co1653 O1684 2.037 . S
Co1653 N1688 2.145 . S
Co1653 N1709 2.242 1_455 S
O1654 Co1652 2.143 . S
O1654 Co1653 2.160 . S
C1655 O1656 1.278 . S
C1655 O1663 1.224 . S
O1656 C1655 1.278 . S
C1657 O1658 1.245 . S
C1657 O1669 1.232 . S
O1658 C1657 1.245 . S
O1659 Co1653 2.058 . S
O1659 C1685 1.269 . S
O1660 Co1652 2.074 . S
O1660 C1685 1.257 . S
H1661 C1686 0.930 . S
H1662 C1692 0.930 . S
O1663 Co1652 2.093 . S
O1663 C1655 1.224 . S
H1664 C1696 0.929 . S
H1665 C1698 0.930 1_556 S
H1666 C1699 0.930 . S
H1667 C1697 0.929 . S
H1668 C1700 0.928 . S
O1669 Co1653 2.057 . S
O1669 C1657 1.232 . S
H1670 C1689 0.929 . S
H1671 C1690 0.929 . S
H1672 C1702 0.931 . S
H1673 C1694 0.929 . S
H1674 C1703 0.930 . S
H1675 C1695 0.931 . S
O1676 Co1652 2.097 . S
O1676 C1704 1.214 . S
H1677 C1705 0.929 . S
H1678 C1706 0.929 . S
H1679 C1707 0.930 . S
H1680 C1708 0.929 . S
H1681 C1710 0.930 1_455 S
H1682 C1687 0.930 . S
H1683 C1691 0.930 . S
O1684 Co1653 2.037 . S
O1684 C1704 1.234 . S
C1685 O1659 1.269 . S
C1685 O1660 1.257 . S
C1686 H1661 0.930 . S
C1686 C1689 1.388 . S
C1686 C1691 1.418 . S
C1687 H1682 0.930 . S
C1687 C1690 1.404 . S
C1687 C1691 1.353 . S
N1688 Co1653 2.145 . S
N1688 C1689 1.397 . S
N1688 C1690 1.334 . S
C1689 H1670 0.929 . S
C1689 C1686 1.388 . S
C1689 N1688 1.397 . S
C1690 H1671 0.929 . S
C1690 C1687 1.404 . S
C1690 N1688 1.334 . S
C1691 H1683 0.930 . S
C1691 C1686 1.418 . S
C1691 C1687 1.353 . S
C1692 H1662 0.930 . S
C1692 N1693 1.330 . S
C1692 C1694 1.446 . S
N1693 Co1652 2.151 . S
N1693 C1692 1.330 . S
N1693 C1697 1.418 . S
C1694 H1673 0.929 . S
C1694 C1692 1.446 . S
C1694 C1695 1.332 . S
C1695 H1675 0.931 . S
C1695 C1694 1.332 . S
C1695 C1696 1.267 . S
C1696 H1664 0.929 . S
C1696 C1695 1.267 . S
C1696 C1697 1.251 . S
C1697 H1667 0.929 . S
C1697 N1693 1.418 . S
C1697 C1696 1.251 . S
C1698 H1665 0.930 1_554 S
C1698 C1700 1.406 . S
C1698 C1703 1.261 . S
C1699 H1666 0.930 . S
C1699 N1701 1.325 . S
C1699 C1702 1.357 . S
C1700 H1668 0.928 . S
C1700 C1698 1.406 . S
C1700 N1701 1.261 . S
N1701 Co1652 2.214 . S
N1701 C1699 1.325 . S
N1701 C1700 1.261 . S
C1702 H1672 0.931 . S
C1702 C1699 1.357 . S
C1702 C1703 1.312 . S
C1703 H1674 0.930 . S
C1703 C1698 1.261 . S
C1703 C1702 1.312 . S
C1704 O1676 1.214 . S
C1704 O1684 1.234 . S
C1705 H1677 0.929 . S
C1705 C1708 1.391 . S
C1705 C1710 1.391 . S
C1706 H1678 0.929 . S
C1706 C1707 1.390 . S
C1706 N1709 1.418 . S
C1707 H1679 0.930 . S
C1707 C1706 1.390 . S
C1707 C1708 1.392 . S
C1708 H1680 0.929 . S
C1708 C1705 1.391 . S
C1708 C1707 1.392 . S
N1709 Co1653 2.242 1_655 S
N1709 C1706 1.418 . S
N1709 C1710 1.379 . S
C1710 H1681 0.930 1_655 S
C1710 C1705 1.391 . S
C1710 N1709 1.379 . S
Co1711 O1713 2.143 . S
Co1711 O1719 2.074 . S
Co1711 O1722 2.093 . S
Co1711 O1735 2.097 . S
Co1711 N1752 2.151 . S
Co1711 N1760 2.214 . S
Co1712 O1713 2.160 . S
Co1712 O1718 2.058 . S
Co1712 O1728 2.057 . S
Co1712 O1743 2.037 . S
Co1712 N1747 2.145 . S
Co1712 N1768 2.257 . S
O1713 Co1711 2.143 . S
O1713 Co1712 2.160 . S
C1714 O1715 1.278 . S
C1714 O1722 1.224 . S
O1715 C1714 1.278 . S
C1716 O1717 1.245 . S
C1716 O1728 1.232 . S
O1717 C1716 1.245 . S
O1718 Co1712 2.058 . S
O1718 C1744 1.269 . S
O1719 Co1711 2.074 . S
O1719 C1744 1.257 . S
H1720 C1745 0.930 . S
H1721 C1751 0.930 . S
O1722 Co1711 2.093 . S
O1722 C1714 1.224 . S
H1723 C1755 0.929 . S
H1724 C1757 0.930 1_556 S
H1725 C1758 0.930 . S
H1726 C1756 0.929 . S
H1727 C1759 0.928 . S
O1728 Co1712 2.057 . S
O1728 C1716 1.232 . S
H1729 C1748 0.929 . S
H1730 C1749 0.929 . S
H1731 C1761 0.931 . S
H1732 C1753 0.929 . S
H1733 C1762 0.930 . S
H1734 C1754 0.931 . S
O1735 Co1711 2.097 . S
O1735 C1763 1.214 . S
H1736 C1764 0.929 . S
H1737 C1765 0.929 . S
H1738 C1766 0.930 . S
H1739 C1767 0.929 . S
H1740 C1769 0.930 . S
H1741 C1746 0.930 . S
H1742 C1750 0.930 . S
O1743 Co1712 2.037 . S
O1743 C1763 1.234 . S
C1744 O1718 1.269 . S
C1744 O1719 1.257 . S
C1745 H1720 0.930 . S
C1745 C1748 1.388 . S
C1745 C1750 1.418 . S
C1746 H1741 0.930 . S
C1746 C1749 1.404 . S
C1746 C1750 1.353 . S
N1747 Co1712 2.145 . S
N1747 C1748 1.397 . S
N1747 C1749 1.334 . S
C1748 H1729 0.929 . S
C1748 C1745 1.388 . S
C1748 N1747 1.397 . S
C1749 H1730 0.929 . S
C1749 C1746 1.404 . S
C1749 N1747 1.334 . S
C1750 H1742 0.930 . S
C1750 C1745 1.418 . S
C1750 C1746 1.353 . S
C1751 H1721 0.930 . S
C1751 N1752 1.330 . S
C1751 C1753 1.446 . S
N1752 Co1711 2.151 . S
N1752 C1751 1.330 . S
N1752 C1756 1.418 . S
C1753 H1732 0.929 . S
C1753 C1751 1.446 . S
C1753 C1754 1.332 . S
C1754 H1734 0.931 . S
C1754 C1753 1.332 . S
C1754 C1755 1.267 . S
C1755 H1723 0.929 . S
C1755 C1754 1.267 . S
C1755 C1756 1.251 . S
C1756 H1726 0.929 . S
C1756 N1752 1.418 . S
C1756 C1755 1.251 . S
C1757 H1724 0.930 1_554 S
C1757 C1759 1.406 . S
C1757 C1762 1.261 . S
C1758 H1725 0.930 . S
C1758 N1760 1.325 . S
C1758 C1761 1.357 . S
C1759 H1727 0.928 . S
C1759 C1757 1.406 . S
C1759 N1760 1.261 . S
N1760 Co1711 2.214 . S
N1760 C1758 1.325 . S
N1760 C1759 1.261 . S
C1761 H1731 0.931 . S
C1761 C1758 1.357 . S
C1761 C1762 1.312 . S
C1762 H1733 0.930 . S
C1762 C1757 1.261 . S
C1762 C1761 1.312 . S
C1763 O1735 1.214 . S
C1763 O1743 1.234 . S
C1764 H1736 0.929 . S
C1764 C1767 1.391 . S
C1764 C1769 1.391 . S
C1765 H1737 0.929 . S
C1765 C1766 1.390 . S
C1765 N1768 1.391 . S
C1766 H1738 0.930 . S
C1766 C1765 1.390 . S
C1766 C1767 1.392 . S
C1767 H1739 0.929 . S
C1767 C1764 1.391 . S
C1767 C1766 1.392 . S
N1768 Co1712 2.257 . S
N1768 C1765 1.391 . S
N1768 C1769 1.388 . S
C1769 H1740 0.930 . S
C1769 C1764 1.391 . S
C1769 N1768 1.388 . S
Co1770 O1772 2.143 . S
Co1770 O1778 2.074 . S
Co1770 O1781 2.093 . S
Co1770 O1794 2.097 . S
Co1770 N1811 2.151 . S
Co1770 N1819 2.214 . S
Co1771 O1772 2.160 . S
Co1771 O1777 2.058 . S
Co1771 O1787 2.057 . S
Co1771 O1802 2.037 . S
Co1771 N1806 2.145 . S
Co1771 N1827 2.231 1_455 S
O1772 Co1770 2.143 . S
O1772 Co1771 2.160 . S
C1773 O1774 1.278 . S
C1773 O1781 1.224 . S
O1774 C1773 1.278 . S
C1775 O1776 1.245 . S
C1775 O1787 1.232 . S
O1776 C1775 1.245 . S
O1777 Co1771 2.058 . S
O1777 C1803 1.269 . S
O1778 Co1770 2.074 . S
O1778 C1803 1.257 . S
H1779 C1804 0.930 . S
H1780 C1810 0.930 . S
O1781 Co1770 2.093 . S
O1781 C1773 1.224 . S
H1782 C1814 0.929 . S
H1783 C1816 0.930 . S
H1784 C1817 0.930 . S
H1785 C1815 0.929 . S
H1786 C1818 0.928 . S
O1787 Co1771 2.057 . S
O1787 C1775 1.232 . S
H1788 C1807 0.929 . S
H1789 C1808 0.929 . S
H1790 C1820 0.931 . S
H1791 C1812 0.929 . S
H1792 C1821 0.930 . S
H1793 C1813 0.931 . S
O1794 Co1770 2.097 . S
O1794 C1822 1.214 . S
H1795 C1823 0.929 . S
H1796 C1824 0.929 . S
H1797 C1825 0.930 . S
H1798 C1826 0.929 . S
H1799 C1828 0.930 1_455 S
H1800 C1805 0.930 . S
H1801 C1809 0.930 . S
O1802 Co1771 2.037 . S
O1802 C1822 1.234 . S
C1803 O1777 1.269 . S
C1803 O1778 1.257 . S
C1804 H1779 0.930 . S
C1804 C1807 1.388 . S
C1804 C1809 1.418 . S
C1805 H1800 0.930 . S
C1805 C1808 1.404 . S
C1805 C1809 1.353 . S
N1806 Co1771 2.145 . S
N1806 C1807 1.397 . S
N1806 C1808 1.334 . S
C1807 H1788 0.929 . S
C1807 C1804 1.388 . S
C1807 N1806 1.397 . S
C1808 H1789 0.929 . S
C1808 C1805 1.404 . S
C1808 N1806 1.334 . S
C1809 H1801 0.930 . S
C1809 C1804 1.418 . S
C1809 C1805 1.353 . S
C1810 H1780 0.930 . S
C1810 N1811 1.330 . S
C1810 C1812 1.446 . S
N1811 Co1770 2.151 . S
N1811 C1810 1.330 . S
N1811 C1815 1.418 . S
C1812 H1791 0.929 . S
C1812 C1810 1.446 . S
C1812 C1813 1.332 . S
C1813 H1793 0.931 . S
C1813 C1812 1.332 . S
C1813 C1814 1.267 . S
C1814 H1782 0.929 . S
C1814 C1813 1.267 . S
C1814 C1815 1.251 . S
C1815 H1785 0.929 . S
C1815 N1811 1.418 . S
C1815 C1814 1.251 . S
C1816 H1783 0.930 . S
C1816 C1818 1.406 . S
C1816 C1821 1.261 . S
C1817 H1784 0.930 . S
C1817 N1819 1.325 . S
C1817 C1820 1.357 . S
C1818 H1786 0.928 . S
C1818 C1816 1.406 . S
C1818 N1819 1.261 . S
N1819 Co1770 2.214 . S
N1819 C1817 1.325 . S
N1819 C1818 1.261 . S
C1820 H1790 0.931 . S
C1820 C1817 1.357 . S
C1820 C1821 1.312 . S
C1821 H1792 0.930 . S
C1821 C1816 1.261 . S
C1821 C1820 1.312 . S
C1822 O1794 1.214 . S
C1822 O1802 1.234 . S
C1823 H1795 0.929 . S
C1823 C1826 1.391 . S
C1823 C1828 1.391 . S
C1824 H1796 0.929 . S
C1824 C1825 1.390 . S
C1824 N1827 1.402 . S
C1825 H1797 0.930 . S
C1825 C1824 1.390 . S
C1825 C1826 1.392 . S
C1826 H1798 0.929 . S
C1826 C1823 1.391 . S
C1826 C1825 1.392 . S
N1827 Co1771 2.231 1_655 S
N1827 C1824 1.402 . S
N1827 C1828 1.403 . S
C1828 H1799 0.930 1_655 S
C1828 C1823 1.391 . S
C1828 N1827 1.403 . S
Co1829 O1831 2.143 . S
Co1829 O1837 2.074 . S
Co1829 O1840 2.093 . S
Co1829 O1853 2.097 . S
Co1829 N1870 2.151 . S
Co1829 N1878 2.214 . S
Co1830 O1831 2.160 . S
Co1830 O1836 2.058 . S
Co1830 O1846 2.057 . S
Co1830 O1861 2.037 . S
Co1830 N1865 2.145 . S
Co1830 N1886 2.257 . S
O1831 Co1829 2.143 . S
O1831 Co1830 2.160 . S
C1832 O1833 1.278 . S
C1832 O1840 1.224 . S
O1833 C1832 1.278 . S
C1834 O1835 1.245 . S
C1834 O1846 1.232 . S
O1835 C1834 1.245 . S
O1836 Co1830 2.058 . S
O1836 C1862 1.269 . S
O1837 Co1829 2.074 . S
O1837 C1862 1.257 . S
H1838 C1863 0.930 . S
H1839 C1869 0.930 . S
O1840 Co1829 2.093 . S
O1840 C1832 1.224 . S
H1841 C1873 0.929 . S
H1842 C1875 0.930 . S
H1843 C1876 0.930 . S
H1844 C1874 0.929 . S
H1845 C1877 0.928 . S
O1846 Co1830 2.057 . S
O1846 C1834 1.232 . S
H1847 C1866 0.929 . S
H1848 C1867 0.929 . S
H1849 C1879 0.931 . S
H1850 C1871 0.929 . S
H1851 C1880 0.930 . S
H1852 C1872 0.931 . S
O1853 Co1829 2.097 . S
O1853 C1881 1.214 . S
H1854 C1882 0.929 . S
H1855 C1883 0.929 . S
H1856 C1884 0.930 . S
H1857 C1885 0.929 . S
H1858 C1887 0.930 . S
H1859 C1864 0.930 . S
H1860 C1868 0.930 . S
O1861 Co1830 2.037 . S
O1861 C1881 1.234 . S
C1862 O1836 1.269 . S
C1862 O1837 1.257 . S
C1863 H1838 0.930 . S
C1863 C1866 1.388 . S
C1863 C1868 1.418 . S
C1864 H1859 0.930 . S
C1864 C1867 1.404 . S
C1864 C1868 1.353 . S
N1865 Co1830 2.145 . S
N1865 C1866 1.397 . S
N1865 C1867 1.334 . S
C1866 H1847 0.929 . S
C1866 C1863 1.388 . S
C1866 N1865 1.397 . S
C1867 H1848 0.929 . S
C1867 C1864 1.404 . S
C1867 N1865 1.334 . S
C1868 H1860 0.930 . S
C1868 C1863 1.418 . S
C1868 C1864 1.353 . S
C1869 H1839 0.930 . S
C1869 N1870 1.330 . S
C1869 C1871 1.446 . S
N1870 Co1829 2.151 . S
N1870 C1869 1.330 . S
N1870 C1874 1.418 . S
C1871 H1850 0.929 . S
C1871 C1869 1.446 . S
C1871 C1872 1.332 . S
C1872 H1852 0.931 . S
C1872 C1871 1.332 . S
C1872 C1873 1.267 . S
C1873 H1841 0.929 . S
C1873 C1872 1.267 . S
C1873 C1874 1.251 . S
C1874 H1844 0.929 . S
C1874 N1870 1.418 . S
C1874 C1873 1.251 . S
C1875 H1842 0.930 . S
C1875 C1877 1.406 . S
C1875 C1880 1.261 . S
C1876 H1843 0.930 . S
C1876 N1878 1.325 . S
C1876 C1879 1.357 . S
C1877 H1845 0.928 . S
C1877 C1875 1.406 . S
C1877 N1878 1.261 . S
N1878 Co1829 2.214 . S
N1878 C1876 1.325 . S
N1878 C1877 1.261 . S
C1879 H1849 0.931 . S
C1879 C1876 1.357 . S
C1879 C1880 1.312 . S
C1880 H1851 0.930 . S
C1880 C1875 1.261 . S
C1880 C1879 1.312 . S
C1881 O1853 1.214 . S
C1881 O1861 1.234 . S
C1882 H1854 0.929 . S
C1882 C1885 1.391 . S
C1882 C1887 1.391 . S
C1883 H1855 0.929 . S
C1883 C1884 1.390 . S
C1883 N1886 1.391 . S
C1884 H1856 0.930 . S
C1884 C1883 1.390 . S
C1884 C1885 1.392 . S
C1885 H1857 0.929 . S
C1885 C1882 1.391 . S
C1885 C1884 1.392 . S
N1886 Co1830 2.257 . S
N1886 C1883 1.391 . S
N1886 C1887 1.388 . S
C1887 H1858 0.930 . S
C1887 C1882 1.391 . S
C1887 N1886 1.388 . S
Co1888 O1890 2.143 . S
Co1888 O1896 2.074 . S
Co1888 O1899 2.093 . S
Co1888 O1912 2.097 . S
Co1888 N1929 2.151 . S
Co1888 N1937 2.214 . S
Co1889 O1890 2.160 . S
Co1889 O1895 2.058 . S
Co1889 O1905 2.057 . S
Co1889 O1920 2.037 . S
Co1889 N1924 2.145 . S
Co1889 N1945 2.242 1_565 S
O1890 Co1888 2.143 . S
O1890 Co1889 2.160 . S
C1891 O1892 1.278 . S
C1891 O1899 1.224 . S
O1892 C1891 1.278 . S
C1893 O1894 1.245 . S
C1893 O1905 1.232 . S
O1894 C1893 1.245 . S
O1895 Co1889 2.058 . S
O1895 C1921 1.269 . S
O1896 Co1888 2.074 . S
O1896 C1921 1.257 . S
H1897 C1922 0.930 . S
H1898 C1928 0.930 . S
O1899 Co1888 2.093 . S
O1899 C1891 1.224 . S
H1900 C1932 0.929 . S
H1901 C1934 0.930 . S
H1902 C1935 0.930 . S
H1903 C1933 0.929 . S
H1904 C1936 0.928 . S
O1905 Co1889 2.057 . S
O1905 C1893 1.232 . S
H1906 C1925 0.929 . S
H1907 C1926 0.929 . S
H1908 C1938 0.931 . S
H1909 C1930 0.929 . S
H1910 C1939 0.930 . S
H1911 C1931 0.931 . S
O1912 Co1888 2.097 . S
O1912 C1940 1.214 . S
H1913 C1941 0.929 . S
H1914 C1942 0.929 . S
H1915 C1943 0.930 . S
H1916 C1944 0.929 . S
H1917 C1946 0.930 1_565 S
H1918 C1923 0.930 . S
H1919 C1927 0.930 . S
O1920 Co1889 2.037 . S
O1920 C1940 1.234 . S
C1921 O1895 1.269 . S
C1921 O1896 1.257 . S
C1922 H1897 0.930 . S
C1922 C1925 1.388 . S
C1922 C1927 1.418 . S
C1923 H1918 0.930 . S
C1923 C1926 1.404 . S
C1923 C1927 1.353 . S
N1924 Co1889 2.145 . S
N1924 C1925 1.397 . S
N1924 C1926 1.334 . S
C1925 H1906 0.929 . S
C1925 C1922 1.388 . S
C1925 N1924 1.397 . S
C1926 H1907 0.929 . S
C1926 C1923 1.404 . S
C1926 N1924 1.334 . S
C1927 H1919 0.930 . S
C1927 C1922 1.418 . S
C1927 C1923 1.353 . S
C1928 H1898 0.930 . S
C1928 N1929 1.330 . S
C1928 C1930 1.446 . S
N1929 Co1888 2.151 . S
N1929 C1928 1.330 . S
N1929 C1933 1.418 . S
C1930 H1909 0.929 . S
C1930 C1928 1.446 . S
C1930 C1931 1.332 . S
C1931 H1911 0.931 . S
C1931 C1930 1.332 . S
C1931 C1932 1.267 . S
C1932 H1900 0.929 . S
C1932 C1931 1.267 . S
C1932 C1933 1.251 . S
C1933 H1903 0.929 . S
C1933 N1929 1.418 . S
C1933 C1932 1.251 . S
C1934 H1901 0.930 . S
C1934 C1936 1.406 . S
C1934 C1939 1.261 . S
C1935 H1902 0.930 . S
C1935 N1937 1.325 . S
C1935 C1938 1.357 . S
C1936 H1904 0.928 . S
C1936 C1934 1.406 . S
C1936 N1937 1.261 . S
N1937 Co1888 2.214 . S
N1937 C1935 1.325 . S
N1937 C1936 1.261 . S
C1938 H1908 0.931 . S
C1938 C1935 1.357 . S
C1938 C1939 1.312 . S
C1939 H1910 0.930 . S
C1939 C1934 1.261 . S
C1939 C1938 1.312 . S
C1940 O1912 1.214 . S
C1940 O1920 1.234 . S
C1941 H1913 0.929 . S
C1941 C1944 1.391 . S
C1941 C1946 1.391 . S
C1942 H1914 0.929 . S
C1942 C1943 1.390 . S
C1942 N1945 1.418 . S
C1943 H1915 0.930 . S
C1943 C1942 1.390 . S
C1943 C1944 1.392 . S
C1944 H1916 0.929 . S
C1944 C1941 1.391 . S
C1944 C1943 1.392 . S
N1945 Co1889 2.242 1_545 S
N1945 C1942 1.418 . S
N1945 C1946 1.379 . S
C1946 H1917 0.930 1_545 S
C1946 C1941 1.391 . S
C1946 N1945 1.379 . S
Co1947 O1949 2.143 . S
Co1947 O1955 2.074 . S
Co1947 O1958 2.093 . S
Co1947 O1971 2.097 . S
Co1947 N1988 2.151 . S
Co1947 N1996 2.214 . S
Co1948 O1949 2.160 . S
Co1948 O1954 2.058 . S
Co1948 O1964 2.057 . S
Co1948 O1979 2.037 . S
Co1948 N1983 2.145 . S
Co1948 N2004 2.257 . S
O1949 Co1947 2.143 . S
O1949 Co1948 2.160 . S
C1950 O1951 1.278 . S
C1950 O1958 1.224 . S
O1951 C1950 1.278 . S
C1952 O1953 1.245 . S
C1952 O1964 1.232 . S
O1953 C1952 1.245 . S
O1954 Co1948 2.058 . S
O1954 C1980 1.269 . S
O1955 Co1947 2.074 . S
O1955 C1980 1.257 . S
H1956 C1981 0.930 . S
H1957 C1987 0.930 . S
O1958 Co1947 2.093 . S
O1958 C1950 1.224 . S
H1959 C1991 0.929 . S
H1960 C1993 0.930 . S
H1961 C1994 0.930 . S
H1962 C1992 0.929 . S
H1963 C1995 0.928 . S
O1964 Co1948 2.057 . S
O1964 C1952 1.232 . S
H1965 C1984 0.929 . S
H1966 C1985 0.929 . S
H1967 C1997 0.931 . S
H1968 C1989 0.929 . S
H1969 C1998 0.930 . S
H1970 C1990 0.931 . S
O1971 Co1947 2.097 . S
O1971 C1999 1.214 . S
H1972 C2000 0.929 . S
H1973 C2001 0.929 . S
H1974 C2002 0.930 . S
H1975 C2003 0.929 . S
H1976 C2005 0.930 . S
H1977 C1982 0.930 . S
H1978 C1986 0.930 . S
O1979 Co1948 2.037 . S
O1979 C1999 1.234 . S
C1980 O1954 1.269 . S
C1980 O1955 1.257 . S
C1981 H1956 0.930 . S
C1981 C1984 1.388 . S
C1981 C1986 1.418 . S
C1982 H1977 0.930 . S
C1982 C1985 1.404 . S
C1982 C1986 1.353 . S
N1983 Co1948 2.145 . S
N1983 C1984 1.397 . S
N1983 C1985 1.334 . S
C1984 H1965 0.929 . S
C1984 C1981 1.388 . S
C1984 N1983 1.397 . S
C1985 H1966 0.929 . S
C1985 C1982 1.404 . S
C1985 N1983 1.334 . S
C1986 H1978 0.930 . S
C1986 C1981 1.418 . S
C1986 C1982 1.353 . S
C1987 H1957 0.930 . S
C1987 N1988 1.330 . S
C1987 C1989 1.446 . S
N1988 Co1947 2.151 . S
N1988 C1987 1.330 . S
N1988 C1992 1.418 . S
C1989 H1968 0.929 . S
C1989 C1987 1.446 . S
C1989 C1990 1.332 . S
C1990 H1970 0.931 . S
C1990 C1989 1.332 . S
C1990 C1991 1.267 . S
C1991 H1959 0.929 . S
C1991 C1990 1.267 . S
C1991 C1992 1.251 . S
C1992 H1962 0.929 . S
C1992 N1988 1.418 . S
C1992 C1991 1.251 . S
C1993 H1960 0.930 . S
C1993 C1995 1.406 . S
C1993 C1998 1.261 . S
C1994 H1961 0.930 . S
C1994 N1996 1.325 . S
C1994 C1997 1.357 . S
C1995 H1963 0.928 . S
C1995 C1993 1.406 . S
C1995 N1996 1.261 . S
N1996 Co1947 2.214 . S
N1996 C1994 1.325 . S
N1996 C1995 1.261 . S
C1997 H1967 0.931 . S
C1997 C1994 1.357 . S
C1997 C1998 1.312 . S
C1998 H1969 0.930 . S
C1998 C1993 1.261 . S
C1998 C1997 1.312 . S
C1999 O1971 1.214 . S
C1999 O1979 1.234 . S
C2000 H1972 0.929 . S
C2000 C2003 1.391 . S
C2000 C2005 1.391 . S
C2001 H1973 0.929 . S
C2001 C2002 1.390 . S
C2001 N2004 1.391 . S
C2002 H1974 0.930 . S
C2002 C2001 1.390 . S
C2002 C2003 1.392 . S
C2003 H1975 0.929 . S
C2003 C2000 1.391 . S
C2003 C2002 1.392 . S
N2004 Co1948 2.257 . S
N2004 C2001 1.391 . S
N2004 C2005 1.388 . S
C2005 H1976 0.930 . S
C2005 C2000 1.391 . S
C2005 N2004 1.388 . S
Co2006 O2008 2.143 . S
Co2006 O2014 2.074 . S
Co2006 O2017 2.093 . S
Co2006 O2030 2.097 . S
Co2006 N2047 2.151 . S
Co2006 N2055 2.214 . S
Co2007 O2008 2.160 . S
Co2007 O2013 2.058 . S
Co2007 O2023 2.057 . S
Co2007 O2038 2.037 . S
Co2007 N2042 2.145 . S
Co2007 N2063 2.257 . S
O2008 Co2006 2.143 . S
O2008 Co2007 2.160 . S
C2009 O2010 1.278 . S
C2009 O2017 1.224 . S
O2010 C2009 1.278 . S
C2011 O2012 1.245 . S
C2011 O2023 1.232 . S
O2012 C2011 1.245 . S
O2013 Co2007 2.058 . S
O2013 C2039 1.269 . S
O2014 Co2006 2.074 . S
O2014 C2039 1.257 . S
H2015 C2040 0.930 . S
H2016 C2046 0.930 . S
O2017 Co2006 2.093 . S
O2017 C2009 1.224 . S
H2018 C2050 0.929 . S
H2019 C2052 0.930 . S
H2020 C2053 0.930 . S
H2021 C2051 0.929 . S
H2022 C2054 0.928 . S
O2023 Co2007 2.057 . S
O2023 C2011 1.232 . S
H2024 C2043 0.929 . S
H2025 C2044 0.929 . S
H2026 C2056 0.931 . S
H2027 C2048 0.929 . S
H2028 C2057 0.930 . S
H2029 C2049 0.931 . S
O2030 Co2006 2.097 . S
O2030 C2058 1.214 . S
H2031 C2059 0.929 . S
H2032 C2060 0.929 . S
H2033 C2061 0.930 . S
H2034 C2062 0.929 . S
H2035 C2064 0.930 . S
H2036 C2041 0.930 . S
H2037 C2045 0.930 . S
O2038 Co2007 2.037 . S
O2038 C2058 1.234 . S
C2039 O2013 1.269 . S
C2039 O2014 1.257 . S
C2040 H2015 0.930 . S
C2040 C2043 1.388 . S
C2040 C2045 1.418 . S
C2041 H2036 0.930 . S
C2041 C2044 1.404 . S
C2041 C2045 1.353 . S
N2042 Co2007 2.145 . S
N2042 C2043 1.397 . S
N2042 C2044 1.334 . S
C2043 H2024 0.929 . S
C2043 C2040 1.388 . S
C2043 N2042 1.397 . S
C2044 H2025 0.929 . S
C2044 C2041 1.404 . S
C2044 N2042 1.334 . S
C2045 H2037 0.930 . S
C2045 C2040 1.418 . S
C2045 C2041 1.353 . S
C2046 H2016 0.930 . S
C2046 N2047 1.330 . S
C2046 C2048 1.446 . S
N2047 Co2006 2.151 . S
N2047 C2046 1.330 . S
N2047 C2051 1.418 . S
C2048 H2027 0.929 . S
C2048 C2046 1.446 . S
C2048 C2049 1.332 . S
C2049 H2029 0.931 . S
C2049 C2048 1.332 . S
C2049 C2050 1.267 . S
C2050 H2018 0.929 . S
C2050 C2049 1.267 . S
C2050 C2051 1.251 . S
C2051 H2021 0.929 . S
C2051 N2047 1.418 . S
C2051 C2050 1.251 . S
C2052 H2019 0.930 . S
C2052 C2054 1.406 . S
C2052 C2057 1.261 . S
C2053 H2020 0.930 . S
C2053 N2055 1.325 . S
C2053 C2056 1.357 . S
C2054 H2022 0.928 . S
C2054 C2052 1.406 . S
C2054 N2055 1.261 . S
N2055 Co2006 2.214 . S
N2055 C2053 1.325 . S
N2055 C2054 1.261 . S
C2056 H2026 0.931 . S
C2056 C2053 1.357 . S
C2056 C2057 1.312 . S
C2057 H2028 0.930 . S
C2057 C2052 1.261 . S
C2057 C2056 1.312 . S
C2058 O2030 1.214 . S
C2058 O2038 1.234 . S
C2059 H2031 0.929 . S
C2059 C2062 1.391 . S
C2059 C2064 1.391 . S
C2060 H2032 0.929 . S
C2060 C2061 1.390 . S
C2060 N2063 1.391 . S
C2061 H2033 0.930 . S
C2061 C2060 1.390 . S
C2061 C2062 1.392 . S
C2062 H2034 0.929 . S
C2062 C2059 1.391 . S
C2062 C2061 1.392 . S
N2063 Co2007 2.257 . S
N2063 C2060 1.391 . S
N2063 C2064 1.388 . S
C2064 H2035 0.930 . S
C2064 C2059 1.391 . S
C2064 N2063 1.388 . S
Co2065 O2067 2.143 . S
Co2065 O2073 2.074 . S
Co2065 O2076 2.093 . S
Co2065 O2089 2.097 . S
Co2065 N2106 2.151 . S
Co2065 N2114 2.214 . S
Co2066 O2067 2.160 . S
Co2066 O2072 2.058 . S
Co2066 O2082 2.057 . S
Co2066 O2097 2.037 . S
Co2066 N2101 2.145 . S
Co2066 N2122 2.257 . S
O2067 Co2065 2.143 . S
O2067 Co2066 2.160 . S
C2068 O2069 1.278 . S
C2068 O2076 1.224 . S
O2069 C2068 1.278 . S
C2070 O2071 1.245 . S
C2070 O2082 1.232 . S
O2071 C2070 1.245 . S
O2072 Co2066 2.058 . S
O2072 C2098 1.269 . S
O2073 Co2065 2.074 . S
O2073 C2098 1.257 . S
H2074 C2099 0.930 . S
H2075 C2105 0.930 . S
O2076 Co2065 2.093 . S
O2076 C2068 1.224 . S
H2077 C2109 0.929 . S
H2078 C2111 0.930 . S
H2079 C2112 0.930 . S
H2080 C2110 0.929 . S
H2081 C2113 0.928 . S
O2082 Co2066 2.057 . S
O2082 C2070 1.232 . S
H2083 C2102 0.929 . S
H2084 C2103 0.929 . S
H2085 C2115 0.931 . S
H2086 C2107 0.929 . S
H2087 C2116 0.930 . S
H2088 C2108 0.931 . S
O2089 Co2065 2.097 . S
O2089 C2117 1.214 . S
H2090 C2118 0.929 . S
H2091 C2119 0.929 . S
H2092 C2120 0.930 . S
H2093 C2121 0.929 . S
H2094 C2123 0.930 . S
H2095 C2100 0.930 . S
H2096 C2104 0.930 . S
O2097 Co2066 2.037 . S
O2097 C2117 1.234 . S
C2098 O2072 1.269 . S
C2098 O2073 1.257 . S
C2099 H2074 0.930 . S
C2099 C2102 1.388 . S
C2099 C2104 1.418 . S
C2100 H2095 0.930 . S
C2100 C2103 1.404 . S
C2100 C2104 1.353 . S
N2101 Co2066 2.145 . S
N2101 C2102 1.397 . S
N2101 C2103 1.334 . S
C2102 H2083 0.929 . S
C2102 C2099 1.388 . S
C2102 N2101 1.397 . S
C2103 H2084 0.929 . S
C2103 C2100 1.404 . S
C2103 N2101 1.334 . S
C2104 H2096 0.930 . S
C2104 C2099 1.418 . S
C2104 C2100 1.353 . S
C2105 H2075 0.930 . S
C2105 N2106 1.330 . S
C2105 C2107 1.446 . S
N2106 Co2065 2.151 . S
N2106 C2105 1.330 . S
N2106 C2110 1.418 . S
C2107 H2086 0.929 . S
C2107 C2105 1.446 . S
C2107 C2108 1.332 . S
C2108 H2088 0.931 . S
C2108 C2107 1.332 . S
C2108 C2109 1.267 . S
C2109 H2077 0.929 . S
C2109 C2108 1.267 . S
C2109 C2110 1.251 . S
C2110 H2080 0.929 . S
C2110 N2106 1.418 . S
C2110 C2109 1.251 . S
C2111 H2078 0.930 . S
C2111 C2113 1.406 . S
C2111 C2116 1.261 . S
C2112 H2079 0.930 . S
C2112 N2114 1.325 . S
C2112 C2115 1.357 . S
C2113 H2081 0.928 . S
C2113 C2111 1.406 . S
C2113 N2114 1.261 . S
N2114 Co2065 2.214 . S
N2114 C2112 1.325 . S
N2114 C2113 1.261 . S
C2115 H2085 0.931 . S
C2115 C2112 1.357 . S
C2115 C2116 1.312 . S
C2116 H2087 0.930 . S
C2116 C2111 1.261 . S
C2116 C2115 1.312 . S
C2117 O2089 1.214 . S
C2117 O2097 1.234 . S
C2118 H2090 0.929 . S
C2118 C2121 1.391 . S
C2118 C2123 1.391 . S
C2119 H2091 0.929 . S
C2119 C2120 1.390 . S
C2119 N2122 1.391 . S
C2120 H2092 0.930 . S
C2120 C2119 1.390 . S
C2120 C2121 1.392 . S
C2121 H2093 0.929 . S
C2121 C2118 1.391 . S
C2121 C2120 1.392 . S
N2122 Co2066 2.257 . S
N2122 C2119 1.391 . S
N2122 C2123 1.388 . S
C2123 H2094 0.930 . S
C2123 C2118 1.391 . S
C2123 N2122 1.388 . S
C2124 C2125 1.369 . S
C2124 C2126 1.419 . S
C2124 H2128 0.930 . S
C2125 C2124 1.369 . S
C2125 C2134 1.429 . S
C2126 C2124 1.419 . S
C2126 C2127 1.363 . S
C2126 H2129 0.929 . S
C2127 C2126 1.363 . S
C2127 C2133 1.428 . S
H2128 C2124 0.930 . S
H2129 C2126 0.929 . S
S2130 N2131 1.613 . S
S2130 N2132 1.610 . S
N2131 S2130 1.613 . S
N2131 C2134 1.350 . S
N2132 S2130 1.610 . S
N2132 C2133 1.351 . S
C2133 C2127 1.428 . S
C2133 N2132 1.351 . S
C2133 C2134 1.434 . S
C2134 C2125 1.429 . S
C2134 N2131 1.350 . S
C2134 C2133 1.434 . S
C2135 C2136 1.369 . S
C2135 C2137 1.419 . S
C2135 H2139 0.930 . S
C2136 C2135 1.369 . S
C2136 C2145 1.429 . S
C2137 C2135 1.419 . S
C2137 C2138 1.363 . S
C2137 H2140 0.929 . S
C2138 C2137 1.363 . S
C2138 C2144 1.428 . S
H2139 C2135 0.930 . S
H2140 C2137 0.929 . S
S2141 N2142 1.613 . S
S2141 N2143 1.610 . S
N2142 S2141 1.613 . S
N2142 C2145 1.350 . S
N2143 S2141 1.610 . S
N2143 C2144 1.351 . S
C2144 C2138 1.428 . S
C2144 N2143 1.351 . S
C2144 C2145 1.434 . S
C2145 C2136 1.429 . S
C2145 N2142 1.350 . S
C2145 C2144 1.434 . S
C2146 C2147 1.369 . S
C2146 C2148 1.419 . S
C2146 H2150 0.930 . S
C2147 C2146 1.369 . S
C2147 C2156 1.429 . S
C2148 C2146 1.419 . S
C2148 C2149 1.363 . S
C2148 H2151 0.929 . S
C2149 C2148 1.363 . S
C2149 C2155 1.428 . S
H2150 C2146 0.930 . S
H2151 C2148 0.929 . S
S2152 N2153 1.613 . S
S2152 N2154 1.610 . S
N2153 S2152 1.613 . S
N2153 C2156 1.350 . S
N2154 S2152 1.610 . S
N2154 C2155 1.351 . S
C2155 C2149 1.428 . S
C2155 N2154 1.351 . S
C2155 C2156 1.434 . S
C2156 C2147 1.429 . S
C2156 N2153 1.350 . S
C2156 C2155 1.434 . S
C2157 C2158 1.369 . S
C2157 C2159 1.419 . S
C2157 H2161 0.930 . S
C2158 C2157 1.369 . S
C2158 C2167 1.429 . S
C2159 C2157 1.419 . S
C2159 C2160 1.363 . S
C2159 H2162 0.929 . S
C2160 C2159 1.363 . S
C2160 C2166 1.428 . S
H2161 C2157 0.930 . S
H2162 C2159 0.929 . S
S2163 N2164 1.613 . S
S2163 N2165 1.610 . S
N2164 S2163 1.613 . S
N2164 C2167 1.350 . S
N2165 S2163 1.610 . S
N2165 C2166 1.351 . S
C2166 C2160 1.428 . S
C2166 N2165 1.351 . S
C2166 C2167 1.434 . S
C2167 C2158 1.429 . S
C2167 N2164 1.350 . S
C2167 C2166 1.434 . S
C2168 C2169 1.369 . S
C2168 C2170 1.419 . S
C2168 H2172 0.930 . S
C2169 C2168 1.369 . S
C2169 C2178 1.429 . S
C2170 C2168 1.419 . S
C2170 C2171 1.363 . S
C2170 H2173 0.929 . S
C2171 C2170 1.363 . S
C2171 C2177 1.428 . S
H2172 C2168 0.930 . S
H2173 C2170 0.929 . S
S2174 N2175 1.613 . S
S2174 N2176 1.610 . S
N2175 S2174 1.613 . S
N2175 C2178 1.350 . S
N2176 S2174 1.610 . S
N2176 C2177 1.351 . S
C2177 C2171 1.428 . S
C2177 N2176 1.351 . S
C2177 C2178 1.434 . S
C2178 C2169 1.429 . S
C2178 N2175 1.350 . S
C2178 C2177 1.434 . S
C2179 C2180 1.369 . S
C2179 C2181 1.419 . S
C2179 H2183 0.930 . S
C2180 C2179 1.369 . S
C2180 C2189 1.429 . S
C2181 C2179 1.419 . S
C2181 C2182 1.363 . S
C2181 H2184 0.929 . S
C2182 C2181 1.363 . S
C2182 C2188 1.428 . S
H2183 C2179 0.930 . S
H2184 C2181 0.929 . S
S2185 N2186 1.613 . S
S2185 N2187 1.610 . S
N2186 S2185 1.613 . S
N2186 C2189 1.350 . S
N2187 S2185 1.610 . S
N2187 C2188 1.351 . S
C2188 C2182 1.428 . S
C2188 N2187 1.351 . S
C2188 C2189 1.434 . S
C2189 C2180 1.429 . S
C2189 N2186 1.350 . S
C2189 C2188 1.434 . S
C2190 C2191 1.369 . S
C2190 C2192 1.419 . S
C2190 H2194 0.930 . S
C2191 C2190 1.369 . S
C2191 C2200 1.429 . S
C2192 C2190 1.419 . S
C2192 C2193 1.363 . S
C2192 H2195 0.929 . S
C2193 C2192 1.363 . S
C2193 C2199 1.428 . S
H2194 C2190 0.930 . S
H2195 C2192 0.929 . S
S2196 N2197 1.613 . S
S2196 N2198 1.610 . S
N2197 S2196 1.613 . S
N2197 C2200 1.350 . S
N2198 S2196 1.610 . S
N2198 C2199 1.351 . S
C2199 C2193 1.428 . S
C2199 N2198 1.351 . S
C2199 C2200 1.434 . S
C2200 C2191 1.429 . S
C2200 N2197 1.350 . S
C2200 C2199 1.434 . S
C2201 C2202 1.369 . S
C2201 C2203 1.419 . S
C2201 H2205 0.930 . S
C2202 C2201 1.369 . S
C2202 C2211 1.429 . S
C2203 C2201 1.419 . S
C2203 C2204 1.363 . S
C2203 H2206 0.929 . S
C2204 C2203 1.363 . S
C2204 C2210 1.428 . S
H2205 C2201 0.930 . S
H2206 C2203 0.929 . S
S2207 N2208 1.613 . S
S2207 N2209 1.610 . S
N2208 S2207 1.613 . S
N2208 C2211 1.350 . S
N2209 S2207 1.610 . S
N2209 C2210 1.351 . S
C2210 C2204 1.428 . S
C2210 N2209 1.351 . S
C2210 C2211 1.434 . S
C2211 C2202 1.429 . S
C2211 N2208 1.350 . S
C2211 C2210 1.434 . S
C2212 C2213 1.369 . S
C2212 C2214 1.419 . S
C2212 H2216 0.930 . S
C2213 C2212 1.369 . S
C2213 C2222 1.429 . S
C2214 C2212 1.419 . S
C2214 C2215 1.363 . S
C2214 H2217 0.929 . S
C2215 C2214 1.363 . S
C2215 C2221 1.428 . S
H2216 C2212 0.930 . S
H2217 C2214 0.929 . S
S2218 N2219 1.613 . S
S2218 N2220 1.610 . S
N2219 S2218 1.613 . S
N2219 C2222 1.350 . S
N2220 S2218 1.610 . S
N2220 C2221 1.351 . S
C2221 C2215 1.428 . S
C2221 N2220 1.351 . S
C2221 C2222 1.434 . S
C2222 C2213 1.429 . S
C2222 N2219 1.350 . S
C2222 C2221 1.434 . S
C2223 C2224 1.369 . S
C2223 C2225 1.419 . S
C2223 H2227 0.930 . S
C2224 C2223 1.369 . S
C2224 C2233 1.429 . S
C2225 C2223 1.419 . S
C2225 C2226 1.363 . S
C2225 H2228 0.929 . S
C2226 C2225 1.363 . S
C2226 C2232 1.428 . S
H2227 C2223 0.930 . S
H2228 C2225 0.929 . S
S2229 N2230 1.613 . S
S2229 N2231 1.610 . S
N2230 S2229 1.613 . S
N2230 C2233 1.350 . S
N2231 S2229 1.610 . S
N2231 C2232 1.351 . S
C2232 C2226 1.428 . S
C2232 N2231 1.351 . S
C2232 C2233 1.434 . S
C2233 C2224 1.429 . S
C2233 N2230 1.350 . S
C2233 C2232 1.434 . S
C2234 C2235 1.369 . S
C2234 C2236 1.419 . S
C2234 H2238 0.930 . S
C2235 C2234 1.369 . S
C2235 C2244 1.429 . S
C2236 C2234 1.419 . S
C2236 C2237 1.363 . S
C2236 H2239 0.929 . S
C2237 C2236 1.363 . S
C2237 C2243 1.428 . S
H2238 C2234 0.930 . S
H2239 C2236 0.929 . S
S2240 N2241 1.613 . S
S2240 N2242 1.610 . S
N2241 S2240 1.613 . S
N2241 C2244 1.350 . S
N2242 S2240 1.610 . S
N2242 C2243 1.351 . S
C2243 C2237 1.428 . S
C2243 N2242 1.351 . S
C2243 C2244 1.434 . S
C2244 C2235 1.429 . S
C2244 N2241 1.350 . S
C2244 C2243 1.434 . S
C2245 C2246 1.369 . S
C2245 C2247 1.419 . S
C2245 H2249 0.930 . S
C2246 C2245 1.369 . S
C2246 C2255 1.429 . S
C2247 C2245 1.419 . S
C2247 C2248 1.363 . S
C2247 H2250 0.929 . S
C2248 C2247 1.363 . S
C2248 C2254 1.428 . S
H2249 C2245 0.930 . S
H2250 C2247 0.929 . S
S2251 N2252 1.613 . S
S2251 N2253 1.610 . S
N2252 S2251 1.613 . S
N2252 C2255 1.350 . S
N2253 S2251 1.610 . S
N2253 C2254 1.351 . S
C2254 C2248 1.428 . S
C2254 N2253 1.351 . S
C2254 C2255 1.434 . S
C2255 C2246 1.429 . S
C2255 N2252 1.350 . S
C2255 C2254 1.434 . S
C2256 C2257 1.369 . S
C2256 C2258 1.419 1_655 S
C2256 H2260 0.930 . S
C2257 C2256 1.369 . S
C2257 C2266 1.429 . S
C2258 C2256 1.419 1_455 S
C2258 C2259 1.363 . S
C2258 H2261 0.929 . S
C2259 C2258 1.363 . S
C2259 C2265 1.428 . S
H2260 C2256 0.930 . S
H2261 C2258 0.929 . S
S2262 N2263 1.613 . S
S2262 N2264 1.623 . S
N2263 S2262 1.613 . S
N2263 C2266 1.350 . S
N2264 S2262 1.623 . S
N2264 C2265 1.362 1_655 S
C2265 C2259 1.428 . S
C2265 N2264 1.362 1_455 S
C2265 C2266 1.434 1_455 S
C2266 C2257 1.429 . S
C2266 N2263 1.350 . S
C2266 C2265 1.434 1_655 S
C2267 C2268 1.369 . S
C2267 C2269 1.419 . S
C2267 H2271 0.930 . S
C2268 C2267 1.369 . S
C2268 C2277 1.429 . S
C2269 C2267 1.419 . S
C2269 C2270 1.363 . S
C2269 H2272 0.929 . S
C2270 C2269 1.363 . S
C2270 C2276 1.428 . S
H2271 C2267 0.930 . S
H2272 C2269 0.929 . S
S2273 N2274 1.613 . S
S2273 N2275 1.610 . S
N2274 S2273 1.613 . S
N2274 C2277 1.350 . S
N2275 S2273 1.610 . S
N2275 C2276 1.351 . S
C2276 C2270 1.428 . S
C2276 N2275 1.351 . S
C2276 C2277 1.434 . S
C2277 C2268 1.429 . S
C2277 N2274 1.350 . S
C2277 C2276 1.434 . S
C2278 C2279 1.369 1_565 S
C2278 C2280 1.419 . S
C2278 H2282 0.930 . S
C2279 C2278 1.369 1_545 S
C2279 C2288 1.429 . S
C2280 C2278 1.419 . S
C2280 C2281 1.363 . S
C2280 H2283 0.929 . S
C2281 C2280 1.363 . S
C2281 C2287 1.428 1_565 S
H2282 C2278 0.930 . S
H2283 C2280 0.929 . S
S2284 N2285 1.613 . S
S2284 N2286 1.610 . S
N2285 S2284 1.613 . S
N2285 C2288 1.350 . S
N2286 S2284 1.610 . S
N2286 C2287 1.351 . S
C2287 C2281 1.428 1_545 S
C2287 N2286 1.351 . S
C2287 C2288 1.434 . S
C2288 C2279 1.429 . S
C2288 N2285 1.350 . S
C2288 C2287 1.434 . S
C2289 C2290 1.369 1_565 S
C2289 C2291 1.419 . S
C2289 H2293 0.930 . S
C2290 C2289 1.369 1_545 S
C2290 C2299 1.429 1_556 S
C2291 C2289 1.419 . S
C2291 C2292 1.363 1_556 S
C2291 H2294 0.929 . S
C2292 C2291 1.363 1_554 S
C2292 C2298 1.428 1_565 S
H2293 C2289 0.930 . S
H2294 C2291 0.929 . S
S2295 N2296 1.613 . S
S2295 N2297 1.610 . S
N2296 S2295 1.613 . S
N2296 C2299 1.350 . S
N2297 S2295 1.610 . S
N2297 C2298 1.351 . S
C2298 C2292 1.428 1_545 S
C2298 N2297 1.351 . S
C2298 C2299 1.434 . S
C2299 C2290 1.429 1_554 S
C2299 N2296 1.350 . S
C2299 C2298 1.434 . S
C2300 C2301 1.369 . S
C2300 C2302 1.419 1_656 S
C2300 H2304 0.930 . S
C2301 C2300 1.369 . S
C2301 C2310 1.429 . S
C2302 C2300 1.419 1_454 S
C2302 C2303 1.363 . S
C2302 H2305 0.929 . S
C2303 C2302 1.363 . S
C2303 C2309 1.428 . S
H2304 C2300 0.930 . S
H2305 C2302 0.929 . S
S2306 N2307 1.584 1_454 S
S2306 N2308 1.610 . S
N2307 S2306 1.584 1_656 S
N2307 C2310 1.352 . S
N2308 S2306 1.610 . S
N2308 C2309 1.351 . S
C2309 C2303 1.428 . S
C2309 N2308 1.351 . S
C2309 C2310 1.434 1_454 S
C2310 C2301 1.429 . S
C2310 N2307 1.352 . S
C2310 C2309 1.434 1_656 S
C2311 C2312 1.369 . S
C2311 C2313 1.419 . S
C2311 H2315 0.930 . S
C2312 C2311 1.369 . S
C2312 C2321 1.429 1_556 S
C2313 C2311 1.419 . S
C2313 C2314 1.363 1_556 S
C2313 H2316 0.929 . S
C2314 C2313 1.363 1_554 S
C2314 C2320 1.428 . S
H2315 C2311 0.930 . S
H2316 C2313 0.929 . S
S2317 N2318 1.613 . S
S2317 N2319 1.610 . S
N2318 S2317 1.613 . S
N2318 C2321 1.350 . S
N2319 S2317 1.610 . S
N2319 C2320 1.351 . S
C2320 C2314 1.428 . S
C2320 N2319 1.351 . S
C2320 C2321 1.434 . S
C2321 C2312 1.429 1_554 S
C2321 N2318 1.350 . S
C2321 C2320 1.434 . S
C2322 C2323 1.369 . S
C2322 C2324 1.419 1_556 S
C2322 H2326 0.930 1_556 S
C2323 C2322 1.369 . S
C2323 C2332 1.429 . S
C2324 C2322 1.419 1_554 S
C2324 C2325 1.363 . S
C2324 H2327 0.929 . S
C2325 C2324 1.363 . S
C2325 C2331 1.428 1_554 S
H2326 C2322 0.930 1_554 S
H2327 C2324 0.929 . S
S2328 N2329 1.613 . S
S2328 N2330 1.610 . S
N2329 S2328 1.613 . S
N2329 C2332 1.350 . S
N2330 S2328 1.610 . S
N2330 C2331 1.351 . S
C2331 C2325 1.428 1_556 S
C2331 N2330 1.351 . S
C2331 C2332 1.434 . S
C2332 C2323 1.429 . S
C2332 N2329 1.350 . S
C2332 C2331 1.434 . S
C2333 C2334 1.369 . S
C2333 C2335 1.419 . S
C2333 H2337 0.930 . S
C2334 C2333 1.369 . S
C2334 C2343 1.429 1_556 S
C2335 C2333 1.419 . S
C2335 C2336 1.363 1_556 S
C2335 H2338 0.929 . S
C2336 C2335 1.363 1_554 S
C2336 C2342 1.428 . S
H2337 C2333 0.930 . S
H2338 C2335 0.929 . S
S2339 N2340 1.613 1_655 S
S2339 N2341 1.610 . S
N2340 S2339 1.613 1_455 S
N2340 C2343 1.350 1_455 S
N2341 S2339 1.610 . S
N2341 C2342 1.351 . S
C2342 C2336 1.428 . S
C2342 N2341 1.351 . S
C2342 C2343 1.434 . S
C2343 C2334 1.429 1_554 S
C2343 N2340 1.350 1_655 S
C2343 C2342 1.434 . S
C2344 C2345 1.369 . S
C2344 C2346 1.419 1_554 S
C2344 H2348 0.930 . S
C2345 C2344 1.369 . S
C2345 C2354 1.429 1_554 S
C2346 C2344 1.419 1_556 S
C2346 C2347 1.363 . S
C2346 H2349 0.929 1_556 S
C2347 C2346 1.363 . S
C2347 C2353 1.428 . S
H2348 C2344 0.930 . S
H2349 C2346 0.929 1_554 S
S2350 N2351 1.613 . S
S2350 N2352 1.610 . S
N2351 S2350 1.613 . S
N2351 C2354 1.350 . S
N2352 S2350 1.610 . S
N2352 C2353 1.351 . S
C2353 C2347 1.428 . S
C2353 N2352 1.351 . S
C2353 C2354 1.434 . S
C2354 C2345 1.429 1_556 S
C2354 N2351 1.350 . S
C2354 C2353 1.434 . S
C2355 C2356 1.369 . S
C2355 C2357 1.419 . S
C2355 H2359 0.930 . S
C2356 C2355 1.369 . S
C2356 C2365 1.429 . S
C2357 C2355 1.419 . S
C2357 C2358 1.363 . S
C2357 H2360 0.929 . S
C2358 C2357 1.363 . S
C2358 C2364 1.428 . S
H2359 C2355 0.930 . S
H2360 C2357 0.929 . S
S2361 N2362 1.613 . S
S2361 N2363 1.610 . S
N2362 S2361 1.613 . S
N2362 C2365 1.350 . S
N2363 S2361 1.610 . S
N2363 C2364 1.351 . S
C2364 C2358 1.428 . S
C2364 N2363 1.351 . S
C2364 C2365 1.434 . S
C2365 C2356 1.429 . S
C2365 N2362 1.350 . S
C2365 C2364 1.434 . S
C2366 C2367 1.369 . S
C2366 C2368 1.419 . S
C2366 H2370 0.930 . S
C2367 C2366 1.369 . S
C2367 C2376 1.429 . S
C2368 C2366 1.419 . S
C2368 C2369 1.363 . S
C2368 H2371 0.929 . S
C2369 C2368 1.363 . S
C2369 C2375 1.428 . S
H2370 C2366 0.930 . S
H2371 C2368 0.929 . S
S2372 N2373 1.613 . S
S2372 N2374 1.610 . S
N2373 S2372 1.613 . S
N2373 C2376 1.350 . S
N2374 S2372 1.610 . S
N2374 C2375 1.351 . S
C2375 C2369 1.428 . S
C2375 N2374 1.351 . S
C2375 C2376 1.434 . S
C2376 C2367 1.429 . S
C2376 N2373 1.350 . S
C2376 C2375 1.434 . S
C2377 C2378 1.369 . S
C2377 C2379 1.419 . S
C2377 H2381 0.930 . S
C2378 C2377 1.369 . S
C2378 C2387 1.429 . S
C2379 C2377 1.419 . S
C2379 C2380 1.363 . S
C2379 H2382 0.929 . S
C2380 C2379 1.363 . S
C2380 C2386 1.428 . S
H2381 C2377 0.930 . S
H2382 C2379 0.929 . S
S2383 N2384 1.613 . S
S2383 N2385 1.610 . S
N2384 S2383 1.613 . S
N2384 C2387 1.350 . S
N2385 S2383 1.610 . S
N2385 C2386 1.351 . S
C2386 C2380 1.428 . S
C2386 N2385 1.351 . S
C2386 C2387 1.434 . S
C2387 C2378 1.429 . S
C2387 N2384 1.350 . S
C2387 C2386 1.434 . S
C2388 C2389 1.369 1_554 S
C2388 C2390 1.419 . S
C2388 H2392 0.930 . S
C2389 C2388 1.369 1_556 S
C2389 C2398 1.429 . S
C2390 C2388 1.419 . S
C2390 C2391 1.363 . S
C2390 H2393 0.929 . S
C2391 C2390 1.363 . S
C2391 C2397 1.428 . S
H2392 C2388 0.930 . S
H2393 C2390 0.929 . S
S2394 N2395 1.613 . S
S2394 N2396 1.610 1_556 S
N2395 S2394 1.613 . S
N2395 C2398 1.350 . S
N2396 S2394 1.610 1_554 S
N2396 C2397 1.351 . S
C2397 C2391 1.428 . S
C2397 N2396 1.351 . S
C2397 C2398 1.434 1_554 S
C2398 C2389 1.429 . S
C2398 N2395 1.350 . S
C2398 C2397 1.434 1_556 S
C2399 C2400 1.369 1_554 S
C2399 C2401 1.419 . S
C2399 H2403 0.930 . S
C2400 C2399 1.369 1_556 S
C2400 C2409 1.429 . S
C2401 C2399 1.419 . S
C2401 C2402 1.363 . S
C2401 H2404 0.929 . S
C2402 C2401 1.363 . S
C2402 C2408 1.394 1_554 S
H2403 C2399 0.930 . S
H2404 C2401 0.929 . S
S2405 N2406 1.613 . S
S2405 N2407 1.610 1_455 S
N2406 S2405 1.613 . S
N2406 C2409 1.350 . S
N2407 S2405 1.610 1_655 S
N2407 C2408 1.369 1_655 S
C2408 C2402 1.394 1_556 S
C2408 N2407 1.369 1_455 S
C2408 C2409 1.454 . S
C2409 C2400 1.429 . S
C2409 N2406 1.350 . S
C2409 C2408 1.454 . S
C2410 C2411 1.369 . S
C2410 C2412 1.429 . S
C2410 H2414 0.930 . S
C2411 C2410 1.369 . S
C2411 C2420 1.429 1_556 S
C2412 C2410 1.429 . S
C2412 C2413 1.344 1_556 S
C2412 H2415 0.938 . S
C2413 C2412 1.344 1_554 S
C2413 C2419 1.428 . S
H2414 C2410 0.930 . S
H2415 C2412 0.938 . S
S2416 N2417 1.613 . S
S2416 N2418 1.610 . S
N2417 S2416 1.613 . S
N2417 C2420 1.350 . S
N2418 S2416 1.610 . S
N2418 C2419 1.351 . S
C2419 C2413 1.428 . S
C2419 N2418 1.351 . S
C2419 C2420 1.434 . S
C2420 C2411 1.429 1_554 S
C2420 N2417 1.350 . S
C2420 C2419 1.434 . S
C2421 C2422 1.369 . S
C2421 C2423 1.419 . S
C2421 H2425 0.930 . S
C2422 C2421 1.369 . S
C2422 C2431 1.429 . S
C2423 C2421 1.419 . S
C2423 C2424 1.363 . S
C2423 H2426 0.929 . S
C2424 C2423 1.363 . S
C2424 C2430 1.428 . S
H2425 C2421 0.930 . S
H2426 C2423 0.929 . S
S2427 N2428 1.613 . S
S2427 N2429 1.610 . S
N2428 S2427 1.613 . S
N2428 C2431 1.350 . S
N2429 S2427 1.610 . S
N2429 C2430 1.351 . S
C2430 C2424 1.428 . S
C2430 N2429 1.351 . S
C2430 C2431 1.434 . S
C2431 C2422 1.429 . S
C2431 N2428 1.350 . S
C2431 C2430 1.434 . S
C2432 C2433 1.369 . S
C2432 C2434 1.419 . S
C2432 H2436 0.930 . S
C2433 C2432 1.369 . S
C2433 C2442 1.429 . S
C2434 C2432 1.419 . S
C2434 C2435 1.363 . S
C2434 H2437 0.929 . S
C2435 C2434 1.363 . S
C2435 C2441 1.428 . S
H2436 C2432 0.930 . S
H2437 C2434 0.929 . S
S2438 N2439 1.613 . S
S2438 N2440 1.610 . S
N2439 S2438 1.613 . S
N2439 C2442 1.350 . S
N2440 S2438 1.610 . S
N2440 C2441 1.351 . S
C2441 C2435 1.428 . S
C2441 N2440 1.351 . S
C2441 C2442 1.434 . S
C2442 C2433 1.429 . S
C2442 N2439 1.350 . S
C2442 C2441 1.434 . S
C2443 C2444 1.369 . S
C2443 C2445 1.419 . S
C2443 H2447 0.930 . S
C2444 C2443 1.369 . S
C2444 C2453 1.429 . S
C2445 C2443 1.419 . S
C2445 C2446 1.363 . S
C2445 H2448 0.929 . S
C2446 C2445 1.363 . S
C2446 C2452 1.428 . S
H2447 C2443 0.930 . S
H2448 C2445 0.929 . S
S2449 N2450 1.613 . S
S2449 N2451 1.610 . S
N2450 S2449 1.613 . S
N2450 C2453 1.350 . S
N2451 S2449 1.610 . S
N2451 C2452 1.351 . S
C2452 C2446 1.428 . S
C2452 N2451 1.351 . S
C2452 C2453 1.434 . S
C2453 C2444 1.429 . S
C2453 N2450 1.350 . S
C2453 C2452 1.434 . S
C2454 C2455 1.369 . S
C2454 C2456 1.419 . S
C2454 H2458 0.930 . S
C2455 C2454 1.369 . S
C2455 C2464 1.429 . S
C2456 C2454 1.419 . S
C2456 C2457 1.363 . S
C2456 H2459 0.929 . S
C2457 C2456 1.363 . S
C2457 C2463 1.428 . S
H2458 C2454 0.930 . S
H2459 C2456 0.929 . S
S2460 N2461 1.613 . S
S2460 N2462 1.610 . S
N2461 S2460 1.613 . S
N2461 C2464 1.350 . S
N2462 S2460 1.610 . S
N2462 C2463 1.351 . S
C2463 C2457 1.428 . S
C2463 N2462 1.351 . S
C2463 C2464 1.434 . S
C2464 C2455 1.429 . S
C2464 N2461 1.350 . S
C2464 C2463 1.434 . S
C2465 C2466 1.369 . S
C2465 C2467 1.419 . S
C2465 H2469 0.930 . S
C2466 C2465 1.369 . S
C2466 C2475 1.429 . S
C2467 C2465 1.419 . S
C2467 C2468 1.363 . S
C2467 H2470 0.929 . S
C2468 C2467 1.363 . S
C2468 C2474 1.428 . S
H2469 C2465 0.930 . S
H2470 C2467 0.929 . S
S2471 N2472 1.613 . S
S2471 N2473 1.610 . S
N2472 S2471 1.613 . S
N2472 C2475 1.350 . S
N2473 S2471 1.610 . S
N2473 C2474 1.351 . S
C2474 C2468 1.428 . S
C2474 N2473 1.351 . S
C2474 C2475 1.434 . S
C2475 C2466 1.429 . S
C2475 N2472 1.350 . S
C2475 C2474 1.434 . S
C2476 C2477 1.369 . S
C2476 C2478 1.419 . S
C2476 H2480 0.930 . S
C2477 C2476 1.369 . S
C2477 C2486 1.429 . S
C2478 C2476 1.419 . S
C2478 C2479 1.363 . S
C2478 H2481 0.929 . S
C2479 C2478 1.363 . S
C2479 C2485 1.428 . S
H2480 C2476 0.930 . S
H2481 C2478 0.929 . S
S2482 N2483 1.613 . S
S2482 N2484 1.610 . S
N2483 S2482 1.613 . S
N2483 C2486 1.350 . S
N2484 S2482 1.610 . S
N2484 C2485 1.351 . S
C2485 C2479 1.428 . S
C2485 N2484 1.351 . S
C2485 C2486 1.434 . S
C2486 C2477 1.429 . S
C2486 N2483 1.350 . S
C2486 C2485 1.434 . S
C2487 C2488 1.369 . S
C2487 C2489 1.419 . S
C2487 H2491 0.930 . S
C2488 C2487 1.369 . S
C2488 C2497 1.429 . S
C2489 C2487 1.419 . S
C2489 C2490 1.363 . S
C2489 H2492 0.929 . S
C2490 C2489 1.363 . S
C2490 C2496 1.428 . S
H2491 C2487 0.930 . S
H2492 C2489 0.929 . S
S2493 N2494 1.613 . S
S2493 N2495 1.610 . S
N2494 S2493 1.613 . S
N2494 C2497 1.350 . S
N2495 S2493 1.610 . S
N2495 C2496 1.351 . S
C2496 C2490 1.428 . S
C2496 N2495 1.351 . S
C2496 C2497 1.434 . S
C2497 C2488 1.429 . S
C2497 N2494 1.350 . S
C2497 C2496 1.434 . S
C2498 C2499 1.369 . S
C2498 C2500 1.419 . S
C2498 H2502 0.930 . S
C2499 C2498 1.369 . S
C2499 C2508 1.429 . S
C2500 C2498 1.419 . S
C2500 C2501 1.363 . S
C2500 H2503 0.929 . S
C2501 C2500 1.363 . S
C2501 C2507 1.428 . S
H2502 C2498 0.930 . S
H2503 C2500 0.929 . S
S2504 N2505 1.613 . S
S2504 N2506 1.610 . S
N2505 S2504 1.613 . S
N2505 C2508 1.350 . S
N2506 S2504 1.610 . S
N2506 C2507 1.351 . S
C2507 C2501 1.428 . S
C2507 N2506 1.351 . S
C2507 C2508 1.434 . S
C2508 C2499 1.429 . S
C2508 N2505 1.350 . S
C2508 C2507 1.434 . S
C2509 C2510 1.369 . S
C2509 C2511 1.419 . S
C2509 H2513 0.930 . S
C2510 C2509 1.369 . S
C2510 C2519 1.429 . S
C2511 C2509 1.419 . S
C2511 C2512 1.363 . S
C2511 H2514 0.929 . S
C2512 C2511 1.363 . S
C2512 C2518 1.428 . S
H2513 C2509 0.930 . S
H2514 C2511 0.929 . S
S2515 N2516 1.613 . S
S2515 N2517 1.610 . S
N2516 S2515 1.613 . S
N2516 C2519 1.350 . S
N2517 S2515 1.610 . S
N2517 C2518 1.351 . S
C2518 C2512 1.428 . S
C2518 N2517 1.351 . S
C2518 C2519 1.434 . S
C2519 C2510 1.429 . S
C2519 N2516 1.350 . S
C2519 C2518 1.434 . S
C2520 C2521 1.369 . S
C2520 C2522 1.419 . S
C2520 H2524 0.930 . S
C2521 C2520 1.369 . S
C2521 C2530 1.429 . S
C2522 C2520 1.419 . S
C2522 C2523 1.363 . S
C2522 H2525 0.929 . S
C2523 C2522 1.363 . S
C2523 C2529 1.428 . S
H2524 C2520 0.930 . S
H2525 C2522 0.929 . S
S2526 N2527 1.613 . S
S2526 N2528 1.610 . S
N2527 S2526 1.613 . S
N2527 C2530 1.350 . S
N2528 S2526 1.610 . S
N2528 C2529 1.351 . S
C2529 C2523 1.428 . S
C2529 N2528 1.351 . S
C2529 C2530 1.434 . S
C2530 C2521 1.429 . S
C2530 N2527 1.350 . S
C2530 C2529 1.434 . S
C2531 C2532 1.369 . S
C2531 C2533 1.419 . S
C2531 H2535 0.930 . S
C2532 C2531 1.369 . S
C2532 C2541 1.429 . S
C2533 C2531 1.419 . S
C2533 C2534 1.363 . S
C2533 H2536 0.929 . S
C2534 C2533 1.363 . S
C2534 C2540 1.428 . S
H2535 C2531 0.930 . S
H2536 C2533 0.929 . S
S2537 N2538 1.613 . S
S2537 N2539 1.610 . S
N2538 S2537 1.613 . S
N2538 C2541 1.350 . S
N2539 S2537 1.610 . S
N2539 C2540 1.351 . S
C2540 C2534 1.428 . S
C2540 N2539 1.351 . S
C2540 C2541 1.434 . S
C2541 C2532 1.429 . S
C2541 N2538 1.350 . S
C2541 C2540 1.434 . S
C2542 C2543 1.369 . S
C2542 C2544 1.419 . S
C2542 H2546 0.930 . S
C2543 C2542 1.369 . S
C2543 C2552 1.429 . S
C2544 C2542 1.419 . S
C2544 C2545 1.363 . S
C2544 H2547 0.929 . S
C2545 C2544 1.363 . S
C2545 C2551 1.428 . S
H2546 C2542 0.930 . S
H2547 C2544 0.929 . S
S2548 N2549 1.613 . S
S2548 N2550 1.610 . S
N2549 S2548 1.613 . S
N2549 C2552 1.350 . S
N2550 S2548 1.610 . S
N2550 C2551 1.351 . S
C2551 C2545 1.428 . S
C2551 N2550 1.351 . S
C2551 C2552 1.434 . S
C2552 C2543 1.429 . S
C2552 N2549 1.350 . S
C2552 C2551 1.434 . S
C2553 C2554 1.369 . S
C2553 C2555 1.419 . S
C2553 H2557 0.930 . S
C2554 C2553 1.369 . S
C2554 C2563 1.429 . S
C2555 C2553 1.419 . S
C2555 C2556 1.363 . S
C2555 H2558 0.929 . S
C2556 C2555 1.363 . S
C2556 C2562 1.428 . S
H2557 C2553 0.930 . S
H2558 C2555 0.929 . S
S2559 N2560 1.613 . S
S2559 N2561 1.610 . S
N2560 S2559 1.613 . S
N2560 C2563 1.350 . S
N2561 S2559 1.610 . S
N2561 C2562 1.351 . S
C2562 C2556 1.428 . S
C2562 N2561 1.351 . S
C2562 C2563 1.434 . S
C2563 C2554 1.429 . S
C2563 N2560 1.350 . S
C2563 C2562 1.434 . S
C2564 C2565 1.369 . S
C2564 C2566 1.419 . S
C2564 H2568 0.930 . S
C2565 C2564 1.369 . S
C2565 C2574 1.429 . S
C2566 C2564 1.419 . S
C2566 C2567 1.363 . S
C2566 H2569 0.929 . S
C2567 C2566 1.363 . S
C2567 C2573 1.428 . S
H2568 C2564 0.930 . S
H2569 C2566 0.929 . S
S2570 N2571 1.613 . S
S2570 N2572 1.610 . S
N2571 S2570 1.613 . S
N2571 C2574 1.350 . S
N2572 S2570 1.610 . S
N2572 C2573 1.351 . S
C2573 C2567 1.428 . S
C2573 N2572 1.351 . S
C2573 C2574 1.434 . S
C2574 C2565 1.429 . S
C2574 N2571 1.350 . S
C2574 C2573 1.434 . S
C2575 C2576 1.369 . S
C2575 C2577 1.419 . S
C2575 H2579 0.930 . S
C2576 C2575 1.369 . S
C2576 C2585 1.429 . S
C2577 C2575 1.419 . S
C2577 C2578 1.363 . S
C2577 H2580 0.929 . S
C2578 C2577 1.363 . S
C2578 C2584 1.428 . S
H2579 C2575 0.930 . S
H2580 C2577 0.929 . S
S2581 N2582 1.613 . S
S2581 N2583 1.610 . S
N2582 S2581 1.613 . S
N2582 C2585 1.350 . S
N2583 S2581 1.610 . S
N2583 C2584 1.351 . S
C2584 C2578 1.428 . S
C2584 N2583 1.351 . S
C2584 C2585 1.434 . S
C2585 C2576 1.429 . S
C2585 N2582 1.350 . S
C2585 C2584 1.434 . S
C2586 C2587 1.369 . S
C2586 C2588 1.419 . S
C2586 H2590 0.930 . S
C2587 C2586 1.369 . S
C2587 C2596 1.429 . S
C2588 C2586 1.419 . S
C2588 C2589 1.363 . S
C2588 H2591 0.929 . S
C2589 C2588 1.363 . S
C2589 C2595 1.428 . S
H2590 C2586 0.930 . S
H2591 C2588 0.929 . S
S2592 N2593 1.613 . S
S2592 N2594 1.610 . S
N2593 S2592 1.613 . S
N2593 C2596 1.350 . S
N2594 S2592 1.610 . S
N2594 C2595 1.351 . S
C2595 C2589 1.428 . S
C2595 N2594 1.351 . S
C2595 C2596 1.434 . S
C2596 C2587 1.429 . S
C2596 N2593 1.350 . S
C2596 C2595 1.434 . S
C2597 C2598 1.369 . S
C2597 C2599 1.419 . S
C2597 H2601 0.930 . S
C2598 C2597 1.369 . S
C2598 C2607 1.429 . S
C2599 C2597 1.419 . S
C2599 C2600 1.363 . S
C2599 H2602 0.929 . S
C2600 C2599 1.363 . S
C2600 C2606 1.428 . S
H2601 C2597 0.930 . S
H2602 C2599 0.929 . S
S2603 N2604 1.613 . S
S2603 N2605 1.610 . S
N2604 S2603 1.613 . S
N2604 C2607 1.350 . S
N2605 S2603 1.610 . S
N2605 C2606 1.351 . S
C2606 C2600 1.428 . S
C2606 N2605 1.351 . S
C2606 C2607 1.434 . S
C2607 C2598 1.429 . S
C2607 N2604 1.350 . S
C2607 C2606 1.434 . S
C2608 C2609 1.369 . S
C2608 C2610 1.419 . S
C2608 H2612 0.930 . S
C2609 C2608 1.369 . S
C2609 C2618 1.429 . S
C2610 C2608 1.419 . S
C2610 C2611 1.363 . S
C2610 H2613 0.929 . S
C2611 C2610 1.363 . S
C2611 C2617 1.428 . S
H2612 C2608 0.930 . S
H2613 C2610 0.929 . S
S2614 N2615 1.613 . S
S2614 N2616 1.610 . S
N2615 S2614 1.613 . S
N2615 C2618 1.350 . S
N2616 S2614 1.610 . S
N2616 C2617 1.351 . S
C2617 C2611 1.428 . S
C2617 N2616 1.351 . S
C2617 C2618 1.434 . S
C2618 C2609 1.429 . S
C2618 N2615 1.350 . S
C2618 C2617 1.434 . S
C2619 C2620 1.369 . S
C2619 C2621 1.419 . S
C2619 H2623 0.930 . S
C2620 C2619 1.369 . S
C2620 C2629 1.429 . S
C2621 C2619 1.419 . S
C2621 C2622 1.363 . S
C2621 H2624 0.929 . S
C2622 C2621 1.363 . S
C2622 C2628 1.428 . S
H2623 C2619 0.930 . S
H2624 C2621 0.929 . S
S2625 N2626 1.613 . S
S2625 N2627 1.610 . S
N2626 S2625 1.613 . S
N2626 C2629 1.350 . S
N2627 S2625 1.610 . S
N2627 C2628 1.351 . S
C2628 C2622 1.428 . S
C2628 N2627 1.351 . S
C2628 C2629 1.434 . S
C2629 C2620 1.429 . S
C2629 N2626 1.350 . S
C2629 C2628 1.434 . S
C2630 C2631 1.369 . S
C2630 C2632 1.419 . S
C2630 H2634 0.930 . S
C2631 C2630 1.369 . S
C2631 C2640 1.429 . S
C2632 C2630 1.419 . S
C2632 C2633 1.363 . S
C2632 H2635 0.929 . S
C2633 C2632 1.363 . S
C2633 C2639 1.428 . S
H2634 C2630 0.930 . S
H2635 C2632 0.929 . S
S2636 N2637 1.613 . S
S2636 N2638 1.610 . S
N2637 S2636 1.613 . S
N2637 C2640 1.350 . S
N2638 S2636 1.610 . S
N2638 C2639 1.351 . S
C2639 C2633 1.428 . S
C2639 N2638 1.351 . S
C2639 C2640 1.434 . S
C2640 C2631 1.429 . S
C2640 N2637 1.350 . S
C2640 C2639 1.434 . S
C2641 C2642 1.369 . S
C2641 C2643 1.419 . S
C2641 H2645 0.930 . S
C2642 C2641 1.369 . S
C2642 C2651 1.429 . S
C2643 C2641 1.419 . S
C2643 C2644 1.363 . S
C2643 H2646 0.929 . S
C2644 C2643 1.363 . S
C2644 C2650 1.428 . S
H2645 C2641 0.930 . S
H2646 C2643 0.929 . S
S2647 N2648 1.613 . S
S2647 N2649 1.610 . S
N2648 S2647 1.613 . S
N2648 C2651 1.350 . S
N2649 S2647 1.610 . S
N2649 C2650 1.351 . S
C2650 C2644 1.428 . S
C2650 N2649 1.351 . S
C2650 C2651 1.434 . S
C2651 C2642 1.429 . S
C2651 N2648 1.350 . S
C2651 C2650 1.434 . S
C2652 C2653 1.369 . S
C2652 C2654 1.419 . S
C2652 H2656 0.930 . S
C2653 C2652 1.369 . S
C2653 C2662 1.429 . S
C2654 C2652 1.419 . S
C2654 C2655 1.363 . S
C2654 H2657 0.929 . S
C2655 C2654 1.363 . S
C2655 C2661 1.428 . S
H2656 C2652 0.930 . S
H2657 C2654 0.929 . S
S2658 N2659 1.613 . S
S2658 N2660 1.610 . S
N2659 S2658 1.613 . S
N2659 C2662 1.350 . S
N2660 S2658 1.610 . S
N2660 C2661 1.351 . S
C2661 C2655 1.428 . S
C2661 N2660 1.351 . S
C2661 C2662 1.434 . S
C2662 C2653 1.429 . S
C2662 N2659 1.350 . S
C2662 C2661 1.434 . S
C2663 C2664 1.369 . S
C2663 C2665 1.419 . S
C2663 H2667 0.930 . S
C2664 C2663 1.369 . S
C2664 C2673 1.429 . S
C2665 C2663 1.419 . S
C2665 C2666 1.363 . S
C2665 H2668 0.929 . S
C2666 C2665 1.363 . S
C2666 C2672 1.428 . S
H2667 C2663 0.930 . S
H2668 C2665 0.929 . S
S2669 N2670 1.613 . S
S2669 N2671 1.610 . S
N2670 S2669 1.613 . S
N2670 C2673 1.350 . S
N2671 S2669 1.610 . S
N2671 C2672 1.351 . S
C2672 C2666 1.428 . S
C2672 N2671 1.351 . S
C2672 C2673 1.434 . S
C2673 C2664 1.429 . S
C2673 N2670 1.350 . S
C2673 C2672 1.434 . S
C2674 C2675 1.369 . S
C2674 C2676 1.419 . S
C2674 H2678 0.930 . S
C2675 C2674 1.369 . S
C2675 C2684 1.429 . S
C2676 C2674 1.419 . S
C2676 C2677 1.363 . S
C2676 H2679 0.929 . S
C2677 C2676 1.363 . S
C2677 C2683 1.428 . S
H2678 C2674 0.930 . S
H2679 C2676 0.929 . S
S2680 N2681 1.613 . S
S2680 N2682 1.610 . S
N2681 S2680 1.613 . S
N2681 C2684 1.350 . S
N2682 S2680 1.610 . S
N2682 C2683 1.351 . S
C2683 C2677 1.428 . S
C2683 N2682 1.351 . S
C2683 C2684 1.434 . S
C2684 C2675 1.429 . S
C2684 N2681 1.350 . S
C2684 C2683 1.434 . S
C2685 C2686 1.369 . S
C2685 C2687 1.419 . S
C2685 H2689 0.930 . S
C2686 C2685 1.369 . S
C2686 C2695 1.429 . S
C2687 C2685 1.419 . S
C2687 C2688 1.363 . S
C2687 H2690 0.929 . S
C2688 C2687 1.363 . S
C2688 C2694 1.428 . S
H2689 C2685 0.930 . S
H2690 C2687 0.929 . S
S2691 N2692 1.613 . S
S2691 N2693 1.610 . S
N2692 S2691 1.613 . S
N2692 C2695 1.350 . S
N2693 S2691 1.610 . S
N2693 C2694 1.351 . S
C2694 C2688 1.428 . S
C2694 N2693 1.351 . S
C2694 C2695 1.434 . S
C2695 C2686 1.429 . S
C2695 N2692 1.350 . S
C2695 C2694 1.434 . S
C2696 C2697 1.369 . S
C2696 C2698 1.419 . S
C2696 H2700 0.930 . S
C2697 C2696 1.369 . S
C2697 C2706 1.429 . S
C2698 C2696 1.419 . S
C2698 C2699 1.363 . S
C2698 H2701 0.929 . S
C2699 C2698 1.363 . S
C2699 C2705 1.428 . S
H2700 C2696 0.930 . S
H2701 C2698 0.929 . S
S2702 N2703 1.613 . S
S2702 N2704 1.610 . S
N2703 S2702 1.613 . S
N2703 C2706 1.350 . S
N2704 S2702 1.610 . S
N2704 C2705 1.351 . S
C2705 C2699 1.428 . S
C2705 N2704 1.351 . S
C2705 C2706 1.434 . S
C2706 C2697 1.429 . S
C2706 N2703 1.350 . S
C2706 C2705 1.434 . S
C2707 C2708 1.369 . S
C2707 C2709 1.419 . S
C2707 H2711 0.930 . S
C2708 C2707 1.369 . S
C2708 C2717 1.429 . S
C2709 C2707 1.419 . S
C2709 C2710 1.363 . S
C2709 H2712 0.929 . S
C2710 C2709 1.363 . S
C2710 C2716 1.428 . S
H2711 C2707 0.930 . S
H2712 C2709 0.929 . S
S2713 N2714 1.613 . S
S2713 N2715 1.610 . S
N2714 S2713 1.613 . S
N2714 C2717 1.350 . S
N2715 S2713 1.610 . S
N2715 C2716 1.351 . S
C2716 C2710 1.428 . S
C2716 N2715 1.351 . S
C2716 C2717 1.434 . S
C2717 C2708 1.429 . S
C2717 N2714 1.350 . S
C2717 C2716 1.434 . S
C2718 C2719 1.369 . S
C2718 C2720 1.419 . S
C2718 H2722 0.930 . S
C2719 C2718 1.369 . S
C2719 C2728 1.429 . S
C2720 C2718 1.419 . S
C2720 C2721 1.363 . S
C2720 H2723 0.929 . S
C2721 C2720 1.363 . S
C2721 C2727 1.428 . S
H2722 C2718 0.930 . S
H2723 C2720 0.929 . S
S2724 N2725 1.613 . S
S2724 N2726 1.610 . S
N2725 S2724 1.613 . S
N2725 C2728 1.350 . S
N2726 S2724 1.610 . S
N2726 C2727 1.351 . S
C2727 C2721 1.428 . S
C2727 N2726 1.351 . S
C2727 C2728 1.434 . S
C2728 C2719 1.429 . S
C2728 N2725 1.350 . S
C2728 C2727 1.434 . S
C2729 C2730 1.369 1_545 S
C2729 C2731 1.419 . S
C2729 H2733 0.930 . S
C2730 C2729 1.369 1_565 S
C2730 C2739 1.429 . S
C2731 C2729 1.419 . S
C2731 C2732 1.363 . S
C2731 H2734 0.929 . S
C2732 C2731 1.363 . S
C2732 C2738 1.428 1_545 S
H2733 C2729 0.930 . S
H2734 C2731 0.929 . S
S2735 N2736 1.613 . S
S2735 N2737 1.610 . S
N2736 S2735 1.613 . S
N2736 C2739 1.350 . S
N2737 S2735 1.610 . S
N2737 C2738 1.351 . S
C2738 C2732 1.428 1_565 S
C2738 N2737 1.351 . S
C2738 C2739 1.434 . S
C2739 C2730 1.429 . S
C2739 N2736 1.350 . S
C2739 C2738 1.434 . S
C2740 C2741 1.369 . S
C2740 C2742 1.419 . S
C2740 H2744 0.930 . S
C2741 C2740 1.369 . S
C2741 C2750 1.429 1_655 S
C2742 C2740 1.419 . S
C2742 C2743 1.363 1_655 S
C2742 H2745 0.929 . S
C2743 C2742 1.363 1_455 S
C2743 C2749 1.428 . S
H2744 C2740 0.930 . S
H2745 C2742 0.929 . S
S2746 N2747 1.613 . S
S2746 N2748 1.610 . S
N2747 S2746 1.613 . S
N2747 C2750 1.350 . S
N2748 S2746 1.610 . S
N2748 C2749 1.351 . S
C2749 C2743 1.428 . S
C2749 N2748 1.351 . S
C2749 C2750 1.434 . S
C2750 C2741 1.429 1_455 S
C2750 N2747 1.350 . S
C2750 C2749 1.434 . S
C2751 C2752 1.369 . S
C2751 C2753 1.419 . S
C2751 H2755 0.930 . S
C2752 C2751 1.369 . S
C2752 C2761 1.429 . S
C2753 C2751 1.419 . S
C2753 C2754 1.363 . S
C2753 H2756 0.929 . S
C2754 C2753 1.363 . S
C2754 C2760 1.428 . S
H2755 C2751 0.930 . S
H2756 C2753 0.929 . S
S2757 N2758 1.613 . S
S2757 N2759 1.610 . S
N2758 S2757 1.613 . S
N2758 C2761 1.350 . S
N2759 S2757 1.610 . S
N2759 C2760 1.351 . S
C2760 C2754 1.428 . S
C2760 N2759 1.351 . S
C2760 C2761 1.434 . S
C2761 C2752 1.429 . S
C2761 N2758 1.350 . S
C2761 C2760 1.434 . S
C2762 C2763 1.369 1_565 S
C2762 C2764 1.419 . S
C2762 H2766 0.930 1_565 S
C2763 C2762 1.369 1_545 S
C2763 C2772 1.429 . S
C2764 C2762 1.419 . S
C2764 C2765 1.363 . S
C2764 H2767 0.929 . S
C2765 C2764 1.363 . S
C2765 C2771 1.428 . S
H2766 C2762 0.930 1_545 S
H2767 C2764 0.929 . S
S2768 N2769 1.613 . S
S2768 N2770 1.610 1_545 S
N2769 S2768 1.613 . S
N2769 C2772 1.350 . S
N2770 S2768 1.610 1_565 S
N2770 C2771 1.351 . S
C2771 C2765 1.428 . S
C2771 N2770 1.351 . S
C2771 C2772 1.434 1_565 S
C2772 C2763 1.429 . S
C2772 N2769 1.350 . S
C2772 C2771 1.434 1_545 S
C2773 C2774 1.369 . S
C2773 C2775 1.419 . S
C2773 H2777 0.930 . S
C2774 C2773 1.369 . S
C2774 C2783 1.429 . S
C2775 C2773 1.419 . S
C2775 C2776 1.363 1_455 S
C2775 H2778 0.929 . S
C2776 C2775 1.363 1_655 S
C2776 C2782 1.428 . S
H2777 C2773 0.930 . S
H2778 C2775 0.929 . S
S2779 N2780 1.613 1_655 S
S2779 N2781 1.610 . S
N2780 S2779 1.613 1_455 S
N2780 C2783 1.350 . S
N2781 S2779 1.610 . S
N2781 C2782 1.351 . S
C2782 C2776 1.428 . S
C2782 N2781 1.351 . S
C2782 C2783 1.434 1_655 S
C2783 C2774 1.429 . S
C2783 N2780 1.350 . S
C2783 C2782 1.434 1_455 S
C2784 C2785 1.369 . S
C2784 C2786 1.419 . S
C2784 H2788 0.930 . S
C2785 C2784 1.369 . S
C2785 C2794 1.429 . S
C2786 C2784 1.419 . S
C2786 C2787 1.363 . S
C2786 H2789 0.929 . S
C2787 C2786 1.363 . S
C2787 C2793 1.428 . S
H2788 C2784 0.930 . S
H2789 C2786 0.929 . S
S2790 N2791 1.613 . S
S2790 N2792 1.610 . S
N2791 S2790 1.613 . S
N2791 C2794 1.350 . S
N2792 S2790 1.610 . S
N2792 C2793 1.351 . S
C2793 C2787 1.428 . S
C2793 N2792 1.351 . S
C2793 C2794 1.434 . S
C2794 C2785 1.429 . S
C2794 N2791 1.350 . S
C2794 C2793 1.434 . S
C2795 C2796 1.369 . S
C2795 C2797 1.419 . S
C2795 H2799 0.930 . S
C2796 C2795 1.369 . S
C2796 C2805 1.429 1_565 S
C2797 C2795 1.419 . S
C2797 C2798 1.363 1_565 S
C2797 H2800 0.929 . S
C2798 C2797 1.363 1_545 S
C2798 C2804 1.428 . S
H2799 C2795 0.930 . S
H2800 C2797 0.929 . S
S2801 N2802 1.613 . S
S2801 N2803 1.610 . S
N2802 S2801 1.613 . S
N2802 C2805 1.350 . S
N2803 S2801 1.610 . S
N2803 C2804 1.351 . S
C2804 C2798 1.428 . S
C2804 N2803 1.351 . S
C2804 C2805 1.434 . S
C2805 C2796 1.429 1_545 S
C2805 N2802 1.350 . S
C2805 C2804 1.434 . S
C2806 C2807 1.369 . S
C2806 C2808 1.419 1_455 S
C2806 H2810 0.930 . S
C2807 C2806 1.369 . S
C2807 C2816 1.429 . S
C2808 C2806 1.419 1_655 S
C2808 C2809 1.363 . S
C2808 H2811 0.929 . S
C2809 C2808 1.363 . S
C2809 C2815 1.428 1_655 S
H2810 C2806 0.930 . S
H2811 C2808 0.929 . S
S2812 N2813 1.613 . S
S2812 N2814 1.607 1_455 S
N2813 S2812 1.613 . S
N2813 C2816 1.350 . S
N2814 S2812 1.607 1_655 S
N2814 C2815 1.351 1_655 S
C2815 C2809 1.428 1_455 S
C2815 N2814 1.351 1_455 S
C2815 C2816 1.434 . S
C2816 C2807 1.429 . S
C2816 N2813 1.350 . S
C2816 C2815 1.434 . S
C2817 C2818 1.369 . S
C2817 C2819 1.419 . S
C2817 H2821 0.930 . S
C2818 C2817 1.369 . S
C2818 C2827 1.429 . S
C2819 C2817 1.419 . S
C2819 C2820 1.363 . S
C2819 H2822 0.929 . S
C2820 C2819 1.363 . S
C2820 C2826 1.428 . S
H2821 C2817 0.930 . S
H2822 C2819 0.929 . S
S2823 N2824 1.613 . S
S2823 N2825 1.610 . S
N2824 S2823 1.613 . S
N2824 C2827 1.350 . S
N2825 S2823 1.610 . S
N2825 C2826 1.351 . S
C2826 C2820 1.428 . S
C2826 N2825 1.351 . S
C2826 C2827 1.434 . S
C2827 C2818 1.429 . S
C2827 N2824 1.350 . S
C2827 C2826 1.434 . S
C2828 C2829 1.369 1_565 S
C2828 C2830 1.419 . S
C2828 H2832 0.930 . S
C2829 C2828 1.369 1_545 S
C2829 C2838 1.429 . S
C2830 C2828 1.419 . S
C2830 C2831 1.363 . S
C2830 H2833 0.929 . S
C2831 C2830 1.363 . S
C2831 C2837 1.428 1_565 S
H2832 C2828 0.930 . S
H2833 C2830 0.929 . S
S2834 N2835 1.613 . S
S2834 N2836 1.610 . S
N2835 S2834 1.613 . S
N2835 C2838 1.350 . S
N2836 S2834 1.610 . S
N2836 C2837 1.351 . S
C2837 C2831 1.428 1_545 S
C2837 N2836 1.351 . S
C2837 C2838 1.434 . S
C2838 C2829 1.429 . S
C2838 N2835 1.350 . S
C2838 C2837 1.434 . S
C2839 C2840 1.369 . S
C2839 C2841 1.419 1_455 S
C2839 H2843 0.930 . S
C2840 C2839 1.369 . S
C2840 C2849 1.429 1_455 S
C2841 C2839 1.419 1_655 S
C2841 C2842 1.363 . S
C2841 H2844 0.929 . S
C2842 C2841 1.363 . S
C2842 C2848 1.428 . S
H2843 C2839 0.930 . S
H2844 C2841 0.929 . S
S2845 N2846 1.613 . S
S2845 N2847 1.610 . S
N2846 S2845 1.613 . S
N2846 C2849 1.350 . S
N2847 S2845 1.610 . S
N2847 C2848 1.351 . S
C2848 C2842 1.428 . S
C2848 N2847 1.351 . S
C2848 C2849 1.434 . S
C2849 C2840 1.429 1_655 S
C2849 N2846 1.350 . S
C2849 C2848 1.434 . S
C2850 C2851 1.369 . S
C2850 C2852 1.419 1_655 S
C2850 H2854 0.930 . S
C2851 C2850 1.369 . S
C2851 C2860 1.429 . S
C2852 C2850 1.419 1_455 S
C2852 C2853 1.363 . S
C2852 H2855 0.929 . S
C2853 C2852 1.363 . S
C2853 C2859 1.428 . S
H2854 C2850 0.930 . S
H2855 C2852 0.929 . S
S2856 N2857 1.613 . S
S2856 N2858 1.610 1_655 S
N2857 S2856 1.613 . S
N2857 C2860 1.350 . S
N2858 S2856 1.610 1_455 S
N2858 C2859 1.351 . S
C2859 C2853 1.428 . S
C2859 N2858 1.351 . S
C2859 C2860 1.434 1_455 S
C2860 C2851 1.429 . S
C2860 N2857 1.350 . S
C2860 C2859 1.434 1_655 S
C2861 C2862 1.369 . S
C2861 C2863 1.419 . S
C2861 H2865 0.930 . S
C2862 C2861 1.369 . S
C2862 C2871 1.429 . S
C2863 C2861 1.419 . S
C2863 C2864 1.363 . S
C2863 H2866 0.929 . S
C2864 C2863 1.363 . S
C2864 C2870 1.428 . S
H2865 C2861 0.930 . S
H2866 C2863 0.929 . S
S2867 N2868 1.613 . S
S2867 N2869 1.610 . S
N2868 S2867 1.613 . S
N2868 C2871 1.350 . S
N2869 S2867 1.610 . S
N2869 C2870 1.351 . S
C2870 C2864 1.428 . S
C2870 N2869 1.351 . S
C2870 C2871 1.434 . S
C2871 C2862 1.429 . S
C2871 N2868 1.350 . S
C2871 C2870 1.434 . S
C2872 C2873 1.369 . S
C2872 C2874 1.419 1_565 S
C2872 H2876 0.930 . S
C2873 C2872 1.369 . S
C2873 C2882 1.429 . S
C2874 C2872 1.419 1_545 S
C2874 C2875 1.363 . S
C2874 H2877 0.929 . S
C2875 C2874 1.363 . S
C2875 C2881 1.428 . S
H2876 C2872 0.930 . S
H2877 C2874 0.929 . S
S2878 N2879 1.613 1_545 S
S2878 N2880 1.610 . S
N2879 S2878 1.613 1_565 S
N2879 C2882 1.350 . S
N2880 S2878 1.610 . S
N2880 C2881 1.351 . S
C2881 C2875 1.428 . S
C2881 N2880 1.351 . S
C2881 C2882 1.434 1_545 S
C2882 C2873 1.429 . S
C2882 N2879 1.350 . S
C2882 C2881 1.434 1_565 S
C2883 C2884 1.369 . S
C2883 C2885 1.419 1_565 S
C2883 H2887 0.930 . S
C2884 C2883 1.369 . S
C2884 C2893 1.429 . S
C2885 C2883 1.419 1_545 S
C2885 C2886 1.363 . S
C2885 H2888 0.929 . S
C2886 C2885 1.363 . S
C2886 C2892 1.428 . S
H2887 C2883 0.930 . S
H2888 C2885 0.929 . S
S2889 N2890 1.613 1_545 S
S2889 N2891 1.610 . S
N2890 S2889 1.613 1_565 S
N2890 C2893 1.350 . S
N2891 S2889 1.610 . S
N2891 C2892 1.351 . S
C2892 C2886 1.428 . S
C2892 N2891 1.351 . S
C2892 C2893 1.434 1_545 S
C2893 C2884 1.429 . S
C2893 N2890 1.350 . S
C2893 C2892 1.434 1_565 S
C2894 C2895 1.369 . S
C2894 C2896 1.419 1_655 S
C2894 H2898 0.930 . S
C2895 C2894 1.369 . S
C2895 C2904 1.429 . S
C2896 C2894 1.419 1_455 S
C2896 C2897 1.363 . S
C2896 H2899 0.929 . S
C2897 C2896 1.363 . S
C2897 C2903 1.428 . S
H2898 C2894 0.930 . S
H2899 C2896 0.929 . S
S2900 N2901 1.613 . S
S2900 N2902 1.610 1_655 S
N2901 S2900 1.613 . S
N2901 C2904 1.350 . S
N2902 S2900 1.610 1_455 S
N2902 C2903 1.351 . S
C2903 C2897 1.428 . S
C2903 N2902 1.351 . S
C2903 C2904 1.434 1_455 S
C2904 C2895 1.429 . S
C2904 N2901 1.350 . S
C2904 C2903 1.434 1_655 S
C2905 C2906 1.369 . S
C2905 C2907 1.419 . S
C2905 H2909 0.930 . S
C2906 C2905 1.369 . S
C2906 C2915 1.429 . S
C2907 C2905 1.419 . S
C2907 C2908 1.363 . S
C2907 H2910 0.929 . S
C2908 C2907 1.363 . S
C2908 C2914 1.428 . S
H2909 C2905 0.930 . S
H2910 C2907 0.929 . S
S2911 N2912 1.613 . S
S2911 N2913 1.610 . S
N2912 S2911 1.613 . S
N2912 C2915 1.350 . S
N2913 S2911 1.610 . S
N2913 C2914 1.351 . S
C2914 C2908 1.428 . S
C2914 N2913 1.351 . S
C2914 C2915 1.434 . S
C2915 C2906 1.429 . S
C2915 N2912 1.350 . S
C2915 C2914 1.434 . S
C2125 C3 1.406 . S
C2127 C1065 1.402 . S
C2136 C62 1.399 . S
C2138 C1124 1.407 . S
C2147 C1183 1.405 . S
C2149 C121 1.402 . S
C2158 C180 1.402 . S
C2160 C1950 1.405 . S
C2169 C2009 1.401 . S
C2171 C239 1.405 . S
C2180 C298 1.409 . S
C2182 C2068 1.399 . S
C2191 C1419 1.409 . S
C2193 C357 1.399 . S
C2202 C416 1.409 . S
C2204 C1478 1.400 . S
C2213 C475 1.405 . S
C2215 C1537 1.402 . S
C2224 C534 1.398 . S
C2226 C888 1.408 . S
C2235 C947 1.401 . S
C2237 C593 1.405 . S
C2246 C652 1.405 . S
C2248 C1006 1.402 . S
C2257 C711 1.408 . S
C2259 C1773 1.400 . S
C2268 C770 1.404 . S
C2270 C1832 1.403 . S
C2279 C829 1.407 . S
C2281 C1891 1.400 . S
C2290 C1242 1.409 . S
C2292 C1596 1.399 . S
C2301 C1301 1.403 . S
C2303 C1655 1.404 . S
C2312 C1360 1.408 . S
C2314 C1714 1.401 . S
C2323 C446 1.471 1_545 S
C2325 C5 1.475 . S
C2334 C505 1.469 1_655 S
C2336 C64 1.475 . S
C2345 C123 1.476 . S
C2347 C387 1.470 . S
C2356 C682 1.472 1_455 S
C2358 C182 1.474 . S
C2367 C564 1.470 . S
C2369 C241 1.477 . S
C2378 C623 1.471 1_565 S
C2380 C300 1.476 . S
C2389 C359 1.473 . S
C2391 C92 1.471 1_565 S
C2400 C418 1.474 . S
C2402 C151 1.470 1_455 S
C2411 C477 1.477 . S
C2413 C33 1.470 . S
C2422 C536 1.476 . S
C2424 C328 1.470 1_655 S
C2433 C210 1.467 . S
C2435 C595 1.476 . S
C2444 C269 1.472 1_545 S
C2446 C654 1.475 . S
C2455 C713 1.477 . S
C2457 C1154 1.470 . S
C2466 C772 1.476 . S
C2468 C1213 1.468 . S
C2477 C831 1.474 . S
C2479 C1095 1.472 . S
C2488 C1390 1.468 . S
C2490 C890 1.478 . S
C2499 C949 1.478 . S
C2501 C1272 1.468 . S
C2510 C1331 1.469 . S
C2512 C1008 1.477 . S
C2521 C1067 1.477 . S
C2523 C800 1.467 . S
C2532 C859 1.471 . S
C2534 C1126 1.476 . S
C2543 C741 1.469 . S
C2545 C1185 1.477 . S
C2554 C1244 1.477 . S
C2556 C1036 1.469 . S
C2565 C1303 1.479 . S
C2567 C918 1.468 . S
C2576 C1362 1.477 . S
C2578 C977 1.467 . S
C2587 C1862 1.466 . S
C2589 C1421 1.478 . S
C2598 C1480 1.477 . S
C2600 C1921 1.470 . S
C2609 C1539 1.477 . S
C2611 C1803 1.470 . S
C2620 C2098 1.472 . S
C2622 C1598 1.474 . S
C2631 C1980 1.469 . S
C2633 C1657 1.477 . S
C2642 C2039 1.466 . S
C2644 C1716 1.477 . S
C2653 C1508 1.468 . S
C2655 C1775 1.475 . S
C2664 C1567 1.471 . S
C2666 C1834 1.474 . S
C2675 C1449 1.468 . S
C2677 C1893 1.478 . S
C2686 C1952 1.478 . S
C2688 C1744 1.467 . S
C2697 C1626 1.471 . S
C2699 C2011 1.476 . S
C2708 C2070 1.476 . S
C2710 C1685 1.471 . S
C2719 C52 1.339 . S
C2721 C1763 1.335 . S
C2730 C1645 1.335 . S
C2732 C111 1.339 . S
C2741 C170 1.336 . S
C2743 C1704 1.338 . S
C2752 C229 1.337 . S
C2754 C819 1.337 . S
C2763 C878 1.333 . S
C2765 C288 1.340 . S
C2774 C347 1.341 . S
C2776 C760 1.334 . S
C2785 C1409 1.340 . S
C2787 C406 1.334 . S
C2796 C465 1.339 . S
C2798 C1291 1.335 . S
C2807 C524 1.334 . S
C2809 C1350 1.340 . S
C2818 C583 1.334 . S
C2820 C1881 1.340 . S
C2829 C642 1.339 . S
C2831 C1940 1.337 . S
C2840 C1822 1.340 . S
C2842 C701 1.334 . S
C2851 C937 1.333 . S
C2853 C1527 1.340 . S
C2862 C1586 1.339 . S
C2864 C996 1.335 . S
C2873 C1468 1.341 . S
C2875 C1055 1.334 . S
C2884 C2117 1.340 . S
C2886 C1114 1.334 . S
C2895 C1173 1.334 . S
C2897 C1999 1.340 . S
C2906 C1232 1.334 . S
C2908 C2058 1.339 . S
