# Generated by pormake.
# Topology umo, (4)-cn, num edge types: 1
# Building blocks:
#     Node 0, Type 0, BuildingBlock: CEKHIL_clean_sbu_0, # of connection points: 4
#     Node 1, Type 0, BuildingBlock: CEKHIL_clean_sbu_0, # of connection points: 4
#     Node 2, Type 0, BuildingBlock: CEKHIL_clean_sbu_0, # of connection points: 4
#     Node 3, Type 0, BuildingBlock: CEKHIL_clean_sbu_0, # of connection points: 4
#     Node 4, Type 0, BuildingBlock: CEKHIL_clean_sbu_0, # of connection points: 4
#     Node 5, Type 0, BuildingBlock: CEKHIL_clean_sbu_0, # of connection points: 4
#     Node 6, Type 0, BuildingBlock: CEKHIL_clean_sbu_0, # of connection points: 4
#     Node 7, Type 0, BuildingBlock: CEKHIL_clean_sbu_0, # of connection points: 4
#     Node 8, Type 0, BuildingBlock: CEKHIL_clean_sbu_0, # of connection points: 4
#     Node 9, Type 0, BuildingBlock: CEKHIL_clean_sbu_0, # of connection points: 4
#     Node 10, Type 0, BuildingBlock: CEKHIL_clean_sbu_0, # of connection points: 4
#     Node 11, Type 0, BuildingBlock: CEKHIL_clean_sbu_0, # of connection points: 4
#     Edge 12, Type (0, 0), BuildingBlock: XIVTED_clean_linker_0, # of connection points: 2
#     Edge 13, Type (0, 0), BuildingBlock: XIVTED_clean_linker_0, # of connection points: 2
#     Edge 14, Type (0, 0), BuildingBlock: XIVTED_clean_linker_0, # of connection points: 2
#     Edge 15, Type (0, 0), BuildingBlock: XIVTED_clean_linker_0, # of connection points: 2
#     Edge 16, Type (0, 0), BuildingBlock: XIVTED_clean_linker_0, # of connection points: 2
#     Edge 17, Type (0, 0), BuildingBlock: XIVTED_clean_linker_0, # of connection points: 2
#     Edge 18, Type (0, 0), BuildingBlock: XIVTED_clean_linker_0, # of connection points: 2
#     Edge 19, Type (0, 0), BuildingBlock: XIVTED_clean_linker_0, # of connection points: 2
#     Edge 20, Type (0, 0), BuildingBlock: XIVTED_clean_linker_0, # of connection points: 2
#     Edge 21, Type (0, 0), BuildingBlock: XIVTED_clean_linker_0, # of connection points: 2
#     Edge 22, Type (0, 0), BuildingBlock: XIVTED_clean_linker_0, # of connection points: 2
#     Edge 23, Type (0, 0), BuildingBlock: XIVTED_clean_linker_0, # of connection points: 2
#     Edge 24, Type (0, 0), BuildingBlock: XIVTED_clean_linker_0, # of connection points: 2
#     Edge 25, Type (0, 0), BuildingBlock: XIVTED_clean_linker_0, # of connection points: 2
#     Edge 26, Type (0, 0), BuildingBlock: XIVTED_clean_linker_0, # of connection points: 2
#     Edge 27, Type (0, 0), BuildingBlock: XIVTED_clean_linker_0, # of connection points: 2
#     Edge 28, Type (0, 0), BuildingBlock: XIVTED_clean_linker_0, # of connection points: 2
#     Edge 29, Type (0, 0), BuildingBlock: XIVTED_clean_linker_0, # of connection points: 2
#     Edge 30, Type (0, 0), BuildingBlock: XIVTED_clean_linker_0, # of connection points: 2
#     Edge 31, Type (0, 0), BuildingBlock: XIVTED_clean_linker_0, # of connection points: 2
#     Edge 32, Type (0, 0), BuildingBlock: XIVTED_clean_linker_0, # of connection points: 2
#     Edge 33, Type (0, 0), BuildingBlock: XIVTED_clean_linker_0, # of connection points: 2
#     Edge 34, Type (0, 0), BuildingBlock: XIVTED_clean_linker_0, # of connection points: 2
#     Edge 35, Type (0, 0), BuildingBlock: XIVTED_clean_linker_0, # of connection points: 2
# Relax obj value: 0.181
# Max RMSD: 0.255
# Mean RMSD: 0.255
data_MOF--net-umo--node1-CEKHIL_clean_sbu_0--edge1-XIVTED_clean_linker_0
_symmetry_space_group_name_H-M    P1
_symmetry_Int_Tables_number       1
_symmetry_cell_setting            triclinic
loop_
_symmetry_equiv_pos_as_xyz
'x, y, z'
_cell_length_a     48.160986
_cell_length_b     48.172498
_cell_length_c     36.158618
_cell_angle_alpha  89.98398
_cell_angle_beta   90.011345
_cell_angle_gamma 119.93405
loop_
_atom_site_label
_atom_site_type_symbol
_atom_site_fract_x
_atom_site_fract_y
_atom_site_fract_z
_atom_type_partial_charge
Co0 Co 0.17205 0.51837 0.38804 0.0
O1 O 0.12997 0.48416 0.37711 0.0
O2 O 0.14324 0.53517 0.38276 0.0
C3 C 0.19732 0.50425 0.34539 0.0
O4 O 0.21287 0.56014 0.39812 0.0
Co5 Co 0.22305 0.5038 0.41921 0.0
O6 O 0.25246 0.5502 0.41234 0.0
C7 C 0.17952 0.51172 0.47076 0.0
C8 C 0.12158 0.50585 0.37498 0.0
C9 C 0.24215 0.56955 0.40657 0.0
O10 O 0.16365 0.51338 0.44305 0.0
O11 O 0.2033 0.50698 0.46707 0.0
O12 O 0.1837 0.52061 0.3363 0.0
O13 O 0.19276 0.4941 0.37932 0.0
Co14 Co 0.63193 0.17314 0.54808 0.0
O15 O 0.6188 0.13213 0.52673 0.0
O16 O 0.58592 0.15013 0.54204 0.0
C17 C 0.67268 0.20108 0.50797 0.0
O18 O 0.63643 0.21405 0.5692 0.0
Co19 Co 0.69771 0.21152 0.5849 0.0
O20 O 0.6857 0.24482 0.59262 0.0
C21 C 0.64377 0.16317 0.62894 0.0
C22 C 0.58991 0.12765 0.52766 0.0
C23 C 0.65758 0.23953 0.58557 0.0
O24 O 0.62625 0.1556 0.59978 0.0
O25 O 0.67368 0.18401 0.62868 0.0
O26 O 0.64333 0.19256 0.49963 0.0
O27 O 0.67662 0.19004 0.53915 0.0
Co28 Co 0.46533 0.64422 0.71553 0.0
O29 O 0.49714 0.63502 0.69767 0.0
O30 O 0.44595 0.59871 0.70601 0.0
C31 C 0.47883 0.68638 0.67731 0.0
O32 O 0.42578 0.64522 0.73258 0.0
Co33 Co 0.48718 0.70827 0.75557 0.0
O34 O 0.44087 0.69356 0.75721 0.0
C35 C 0.47906 0.65272 0.79874 0.0
C36 C 0.47433 0.6055 0.6948 0.0
C37 C 0.41939 0.66528 0.74835 0.0
O38 O 0.47305 0.63673 0.76847 0.0
O39 O 0.4869 0.68233 0.79958 0.0
O40 O 0.46056 0.65717 0.66634 0.0
O41 O 0.49134 0.68948 0.70994 0.0
Co42 Co 0.81917 0.47614 0.8883 0.0
O43 O 0.86122 0.51098 0.87875 0.0
O44 O 0.84878 0.46022 0.88449 0.0
C45 C 0.79446 0.48977 0.84442 0.0
O46 O 0.77857 0.43385 0.8971 0.0
Co47 Co 0.76645 0.48917 0.91709 0.0
O48 O 0.73793 0.44278 0.90895 0.0
C49 C 0.80967 0.48282 0.97057 0.0
C50 C 0.87024 0.48973 0.87723 0.0
C51 C 0.74891 0.42387 0.90399 0.0
O52 O 0.82607 0.48102 0.94354 0.0
O53 O 0.7857 0.48711 0.96583 0.0
O54 O 0.80888 0.474 0.83613 0.0
O55 O 0.79791 0.4997 0.87838 0.0
Co56 Co 0.35627 0.82001 0.05234 0.0
O57 O 0.36968 0.86162 0.0326 0.0
O58 O 0.40236 0.84316 0.04688 0.0
C59 C 0.31598 0.79325 0.01124 0.0
O60 O 0.35138 0.77847 0.07188 0.0
Co61 Co 0.29011 0.78093 0.08793 0.0
O62 O 0.30167 0.74715 0.09387 0.0
C63 C 0.34382 0.82743 0.13378 0.0
C64 C 0.39855 0.86606 0.03342 0.0
C65 C 0.32988 0.75252 0.08714 0.0
O66 O 0.3615 0.83608 0.10471 0.0
O67 O 0.31391 0.80662 0.13293 0.0
O68 O 0.34543 0.802 1.00319 0.0
O69 O 0.31167 0.80345 0.04282 0.0
Co70 Co 0.52603 0.34626 0.21839 0.0
O71 O 0.49341 0.35543 0.20312 0.0
O72 O 0.54427 0.39199 0.21311 0.0
C73 C 0.51368 0.30658 0.17657 0.0
O74 O 0.56649 0.34627 0.2333 0.0
Co75 Co 0.50776 0.27989 0.25121 0.0
O76 O 0.5546 0.29786 0.25507 0.0
C77 C 0.51407 0.3319 0.30076 0.0
C78 C 0.51579 0.38531 0.20259 0.0
C79 C 0.57463 0.32704 0.24775 0.0
O80 O 0.51774 0.3497 0.27253 0.0
O81 O 0.50867 0.30311 0.2979 0.0
O82 O 0.53114 0.33646 0.16748 0.0
O83 O 0.50157 0.30142 0.20955 0.0
Co84 Co 0.44939 0.85782 0.46171 0.0
O85 O 0.48034 0.90206 0.45706 0.0
O86 O 0.42838 0.88297 0.46728 0.0
C87 C 0.47689 0.84413 0.50148 0.0
O88 O 0.41121 0.81319 0.46795 0.0
Co89 Co 0.46839 0.80973 0.43019 0.0
O90 O 0.43042 0.77952 0.45964 0.0
C91 C 0.44641 0.84196 0.37874 0.0
C92 C 0.45683 0.9075 0.46202 0.0
C93 C 0.40819 0.78514 0.46915 0.0
O94 O 0.44106 0.85502 0.40675 0.0
O95 O 0.45961 0.82462 0.38161 0.0
O96 O 0.46101 0.8576 0.51329 0.0
O97 O 0.47938 0.84369 0.46579 0.0
Co98 Co 0.6059 0.4657 0.61272 0.0
O99 O 0.59715 0.49951 0.60275 0.0
O100 O 0.56037 0.44959 0.61703 0.0
C101 C 0.64709 0.49268 0.6525 0.0
O102 O 0.60677 0.42503 0.62549 0.0
Co103 Co 0.67054 0.47297 0.58751 0.0
O104 O 0.65869 0.43858 0.62458 0.0
C105 C 0.61798 0.45144 0.53335 0.0
C106 C 0.56732 0.4787 0.60904 0.0
C107 C 0.62956 0.41932 0.63295 0.0
O108 O 0.60044 0.45372 0.5586 0.0
O109 O 0.64714 0.45874 0.5388 0.0
O110 O 0.61762 0.48035 0.66338 0.0
O111 O 0.65083 0.4921 0.61699 0.0
Co112 Co 0.14102 0.61025 0.78079 0.0
O113 O 0.09985 0.60566 0.77214 0.0
O114 O 0.10858 0.56564 0.78534 0.0
C115 C 0.15894 0.65179 0.82106 0.0
O116 O 0.1804 0.60665 0.79215 0.0
Co117 Co 0.20148 0.6724 0.75575 0.0
O118 O 0.22161 0.6572 0.79222 0.0
C119 C 0.1671 0.62033 0.70149 0.0
C120 C 0.08826 0.57538 0.77873 0.0
C121 C 0.20959 0.62755 0.79961 0.0
O122 O 0.14609 0.60406 0.72637 0.0
O123 O 0.19072 0.64855 0.70729 0.0
O124 O 0.14014 0.6226 0.83185 0.0
O125 O 0.16302 0.65541 0.78552 0.0
Co126 Co 0.54028 0.13448 0.95697 0.0
O127 O 0.5087 0.09029 0.95387 0.0
O128 O 0.56065 0.10881 0.96345 0.0
C129 C 0.51395 0.14997 0.99624 0.0
O130 O 0.57905 0.17893 0.96175 0.0
Co131 Co 0.52178 0.1825 0.92371 0.0
O132 O 0.56058 0.21304 0.95171 0.0
C133 C 0.54205 0.14805 0.87349 0.0
C134 C 0.53194 0.08447 0.95909 0.0
C135 C 0.58252 0.20718 0.96179 0.0
O136 O 0.54782 0.13573 0.90194 0.0
O137 O 0.52917 0.1657 0.87577 0.0
O138 O 0.52946 0.13626 0.00852 0.0
O139 O 0.51098 0.1495 0.96055 0.0
Co140 Co 0.3899 0.53066 0.11958 0.0
O141 O 0.4002 0.49786 0.11076 0.0
O142 O 0.4354 0.54773 0.12721 0.0
C143 C 0.34696 0.50231 0.15666 0.0
O144 O 0.38651 0.57004 0.1313 0.0
Co145 Co 0.32569 0.51968 0.08703 0.0
O146 O 0.33456 0.55485 0.12212 0.0
C147 C 0.38115 0.54216 0.03759 0.0
C148 C 0.42949 0.51899 0.11891 0.0
C149 C 0.36244 0.57457 0.13427 0.0
O150 O 0.39807 0.54385 0.06589 0.0
O151 O 0.35078 0.53073 0.03928 0.0
O152 O 0.37587 0.51503 0.16954 0.0
O153 O 0.3451 0.50306 0.12087 0.0
Co154 Co 0.85036 0.38728 0.28279 0.0
O155 O 0.89123 0.39172 0.27233 0.0
O156 O 0.88307 0.43173 0.28757 0.0
C157 C 0.83288 0.34511 0.32204 0.0
O158 O 0.8115 0.39114 0.29627 0.0
Co159 Co 0.78882 0.32579 0.25849 0.0
O160 O 0.77003 0.34077 0.29695 0.0
C161 C 0.8227 0.37811 0.20436 0.0
C162 C 0.90311 0.42194 0.27956 0.0
C163 C 0.78253 0.37039 0.30482 0.0
O164 O 0.84419 0.39416 0.22888 0.0
O165 O 0.79904 0.34994 0.21029 0.0
O166 O 0.85213 0.37407 0.33326 0.0
O167 O 0.8281 0.34212 0.28659 0.0
H168 H 0.22811 0.61838 0.4073 0.0
H169 H 0.3509 0.77585 0.44377 0.0
H170 H 0.30449 0.59805 0.42876 0.0
H171 H 0.39422 0.7299 0.50393 0.0
H172 H 0.30456 0.72335 0.43081 0.0
H173 H 0.26175 0.67233 0.43208 0.0
C174 C 0.25213 0.62541 0.41653 0.0
C175 C 0.26354 0.60364 0.41569 0.0
C176 C 0.3235 0.72471 0.44815 0.0
C177 C 0.3019 0.66508 0.44438 0.0
C178 C 0.34989 0.75477 0.4558 0.0
C179 C 0.37645 0.75695 0.47444 0.0
C180 C 0.32406 0.69706 0.45942 0.0
C181 C 0.37429 0.72903 0.48901 0.0
C182 C 0.27125 0.65619 0.43084 0.0
C183 C 0.29463 0.61391 0.42863 0.0
N184 N 0.34886 0.70015 0.48045 0.0
N185 N 0.31255 0.64376 0.4426 0.0
H186 H 0.60166 0.23989 0.57227 0.0
H187 H 0.66331 0.40359 0.68004 0.0
H188 H 0.69098 0.29013 0.63224 0.0
H189 H 0.58027 0.36232 0.60914 0.0
H190 H 0.66398 0.35334 0.67798 0.0
H191 H 0.58599 0.27719 0.59735 0.0
C192 C 0.618 0.25875 0.59066 0.0
C193 C 0.64799 0.26229 0.59956 0.0
C194 C 0.64508 0.35491 0.6636 0.0
C195 C 0.62987 0.30451 0.62888 0.0
C196 C 0.6445 0.38345 0.66515 0.0
C197 C 0.62211 0.3871 0.64411 0.0
C198 C 0.62351 0.33026 0.64025 0.0
C199 C 0.59808 0.3604 0.62547 0.0
C200 C 0.60889 0.27982 0.60521 0.0
C201 C 0.66792 0.28684 0.62398 0.0
N202 N 0.59994 0.33324 0.62307 0.0
N203 N 0.65857 0.3071 0.63758 0.0
H204 H 0.21658 0.58107 0.76586 0.0
H205 H 0.39994 0.6944 0.79805 0.0
H206 H 0.25637 0.65286 0.85129 0.0
H207 H 0.36398 0.60993 0.72949 0.0
H208 H 0.34668 0.67467 0.82268 0.0
H209 H 0.26832 0.58344 0.75988 0.0
C210 C 0.23575 0.59606 0.78473 0.0
C211 C 0.23267 0.61727 0.80863 0.0
C212 C 0.3503 0.66022 0.80243 0.0
C213 C 0.29176 0.62098 0.80108 0.0
C214 C 0.38075 0.67176 0.78786 0.0
C215 C 0.38639 0.65407 0.76113 0.0
C216 C 0.32493 0.63097 0.78981 0.0
C217 C 0.36059 0.62454 0.74972 0.0
C218 C 0.26543 0.59779 0.78092 0.0
C219 C 0.25814 0.63649 0.8322 0.0
N220 N 0.3308 0.61407 0.7638 0.0
N221 N 0.28694 0.63849 0.8272 0.0
H222 H 0.76339 0.3753 0.90392 0.0
H223 H 0.63963 0.2167 0.93542 0.0
H224 H 0.68617 0.39453 0.92462 0.0
H225 H 0.59668 0.26178 0.99788 0.0
H226 H 0.68615 0.26944 0.92337 0.0
H227 H 0.72948 0.32071 0.92702 0.0
C228 C 0.73917 0.36793 0.91266 0.0
C229 C 0.72758 0.38957 0.91212 0.0
C230 C 0.66723 0.26777 0.941 0.0
C231 C 0.689 0.32748 0.93892 0.0
C232 C 0.64078 0.23761 0.94813 0.0
C233 C 0.61432 0.23519 0.96724 0.0
C234 C 0.66679 0.29524 0.95325 0.0
C235 C 0.61657 0.26286 0.98264 0.0
C236 C 0.71991 0.33679 0.92598 0.0
C237 C 0.6962 0.37882 0.92431 0.0
N238 N 0.64204 0.29185 0.97459 0.0
N239 N 0.67818 0.34867 0.93742 0.0
H240 H 0.3869 0.75368 0.07685 0.0
H241 H 0.32327 0.58625 0.17703 0.0
H242 H 0.29451 0.6994 0.12971 0.0
H243 H 0.41159 0.63338 0.11539 0.0
H244 H 0.32025 0.63525 0.17479 0.0
H245 H 0.40222 0.71613 0.10196 0.0
C246 C 0.36979 0.73385 0.09363 0.0
C247 C 0.33913 0.72936 0.10061 0.0
C248 C 0.34074 0.63524 0.16251 0.0
C249 C 0.35681 0.68681 0.12999 0.0
C250 C 0.34263 0.6074 0.16418 0.0
C251 C 0.3674 0.60584 0.14579 0.0
C252 C 0.36344 0.66129 0.14162 0.0
C253 C 0.39202 0.63374 0.1297 0.0
C254 C 0.3787 0.71263 0.10823 0.0
C255 C 0.31818 0.70354 0.12301 0.0
N256 N 0.38898 0.66023 0.12705 0.0
N257 N 0.32737 0.68318 0.1367 0.0
H258 H 0.73723 0.34562 0.35832 0.0
H259 H 0.62778 0.38444 0.22964 0.0
H260 H 0.77504 0.41693 0.27222 0.0
H261 H 0.59618 0.30102 0.29911 0.0
H262 H 0.68141 0.40726 0.25697 0.0
H263 H 0.6857 0.34341 0.35284 0.0
C264 C 0.73502 0.36193 0.33949 0.0
C265 C 0.75992 0.38093 0.3151 0.0
C266 C 0.66256 0.38409 0.26632 0.0
C267 C 0.70097 0.37727 0.30715 0.0
C268 C 0.63213 0.37089 0.25047 0.0
C269 C 0.60768 0.34043 0.26146 0.0
C270 C 0.66832 0.36685 0.29362 0.0
C271 C 0.61444 0.32419 0.28905 0.0
C272 C 0.70552 0.36032 0.3359 0.0
C273 C 0.75612 0.40171 0.29122 0.0
N274 N 0.64411 0.33757 0.30404 0.0
N275 N 0.72666 0.39854 0.28684 0.0
H276 H 0.1147 0.57115 0.66661 0.0
H277 H 0.22014 0.53291 0.53001 0.0
H278 H 0.2171 0.63185 0.65628 0.0
H279 H 0.12648 0.51418 0.49559 0.0
H280 H 0.21537 0.5588 0.58571 0.0
H281 H 0.11506 0.54138 0.61138 0.0
C282 C 0.13717 0.5784 0.65258 0.0
C283 C 0.1659 0.60423 0.66597 0.0
C284 C 0.19572 0.54867 0.56615 0.0
C285 C 0.16652 0.56961 0.60385 0.0
C286 C 0.1982 0.53349 0.53448 0.0
C287 C 0.17367 0.52127 0.50784 0.0
C288 C 0.16828 0.55124 0.57182 0.0
C289 C 0.146 0.52325 0.51528 0.0
C290 C 0.13732 0.56138 0.62119 0.0
C291 C 0.19434 0.61241 0.64679 0.0
N292 N 0.14403 0.53798 0.5466 0.0
N293 N 0.19397 0.59493 0.61708 0.0
H294 H 0.67027 0.16661 0.69771 0.0
H295 H 0.52141 0.15303 0.80412 0.0
H296 H 0.57953 0.13477 0.64312 0.0
H297 H 0.58961 0.13414 0.85965 0.0
H298 H 0.54426 0.15017 0.74454 0.0
H299 H 0.64314 0.15763 0.75762 0.0
C300 C 0.64461 0.15714 0.69824 0.0
C301 C 0.62728 0.15157 0.66516 0.0
C302 C 0.55394 0.14629 0.76982 0.0
C303 C 0.59634 0.14222 0.73358 0.0
C304 C 0.54098 0.14804 0.80379 0.0
C305 C 0.55354 0.14378 0.83695 0.0
C306 C 0.58017 0.14107 0.76899 0.0
C307 C 0.579 0.13738 0.83479 0.0
C308 C 0.62916 0.15213 0.73244 0.0
C309 C 0.59401 0.13942 0.66774 0.0
N310 N 0.59177 0.13669 0.80148 0.0
N311 N 0.57978 0.13576 0.70125 0.0
H312 H 0.44324 0.58978 0.02865 0.0
H313 H 0.44079 0.58814 0.80851 0.0
H314 H 0.35811 0.5276 0.96624 0.0
H315 H 0.49687 0.67569 0.86992 0.0
H316 H 0.41854 0.55975 0.86661 0.0
H317 H 0.47057 0.61564 0.97092 0.0
C318 C 0.43038 0.58127 1.00278 0.0
C319 C 0.39825 0.55641 1.00233 0.0
C320 C 0.43604 0.58508 0.86733 0.0
C321 C 0.42968 0.58576 0.93617 0.0
C322 C 0.44911 0.60134 0.8342 0.0
C323 C 0.47085 0.63452 0.83416 0.0
C324 C 0.44518 0.60185 0.90088 0.0
C325 C 0.48022 0.65018 0.86852 0.0
C326 C 0.44599 0.5962 0.96992 0.0
C327 C 0.38279 0.54669 0.96794 0.0
N328 N 0.46734 0.63372 0.9005 0.0
N329 N 0.39871 0.56125 0.93622 0.0
H330 H 0.87484 0.42711 0.16893 0.0
H331 H 0.76851 0.46224 0.02937 0.0
H332 H 0.77228 0.36677 0.15995 0.0
H333 H 0.86295 0.48185 0.9972 0.0
H334 H 0.77332 0.43776 0.08633 0.0
H335 H 0.87418 0.45628 0.11326 0.0
C336 C 0.85226 0.41985 0.15515 0.0
C337 C 0.82359 0.39426 0.16898 0.0
C338 C 0.79313 0.44778 0.06697 0.0
C339 C 0.82264 0.42815 0.10631 0.0
C340 C 0.79061 0.46214 0.03458 0.0
C341 C 0.81536 0.47416 0.00822 0.0
C342 C 0.8208 0.44583 0.07361 0.0
C343 C 0.84324 0.47287 0.01663 0.0
C344 C 0.85193 0.43653 0.12351 0.0
C345 C 0.795 0.38604 0.15011 0.0
N346 N 0.84523 0.45892 0.0486 0.0
N347 N 0.79522 0.40314 0.12007 0.0
H348 H 0.31709 0.8226 0.20276 0.0
H349 H 0.46606 0.83542 0.30935 0.0
H350 H 0.40786 0.85437 0.14834 0.0
H351 H 0.39827 0.85498 0.36472 0.0
H352 H 0.44261 0.83739 0.24977 0.0
H353 H 0.34397 0.83039 0.26273 0.0
C354 C 0.34269 0.83176 0.20335 0.0
C355 C 0.36014 0.83782 0.17029 0.0
C356 C 0.43312 0.84154 0.27502 0.0
C357 C 0.39076 0.84577 0.23874 0.0
C358 C 0.44642 0.84031 0.30899 0.0
C359 C 0.43423 0.84514 0.34211 0.0
C360 C 0.40693 0.84682 0.27416 0.0
C361 C 0.40864 0.85135 0.3399 0.0
C362 C 0.35799 0.8361 0.23757 0.0
C363 C 0.39332 0.84947 0.17294 0.0
N364 N 0.39558 0.8516 0.30661 0.0
N365 N 0.4074 0.85251 0.20644 0.0
H366 H 0.53242 0.31161 0.36165 0.0
H367 H 0.56876 0.45403 0.49803 0.0
H368 H 0.51718 0.38809 0.32409 0.0
H369 H 0.6312 0.4142 0.48803 0.0
H370 H 0.5401 0.42447 0.44203 0.0
H371 H 0.55736 0.34207 0.41771 0.0
C372 C 0.5335 0.33443 0.3655 0.0
C373 C 0.52258 0.34723 0.3379 0.0
C374 C 0.56023 0.42249 0.45208 0.0
C375 C 0.55142 0.3823 0.4023 0.0
C376 C 0.5766 0.43931 0.48389 0.0
C377 C 0.60257 0.43675 0.49755 0.0
C378 C 0.56924 0.40218 0.43463 0.0
C379 C 0.61159 0.4172 0.47828 0.0
C380 C 0.54816 0.35196 0.39738 0.0
C381 C 0.52522 0.37725 0.34456 0.0
N382 N 0.59468 0.40033 0.44815 0.0
N383 N 0.53936 0.3938 0.37615 0.0
H384 H 0.94919 0.41212 0.25024 0.0
H385 H 0.09243 0.5427 0.3731 0.0
H386 H 0.936 0.47797 0.31878 0.0
H387 H 0.07947 0.45056 0.34128 0.0
H388 H 0.04104 0.52838 0.34289 0.0
H389 H 0.00493 0.43766 0.26977 0.0
C390 C 0.95825 0.43242 0.26886 0.0
C391 C 0.93793 0.44259 0.28355 0.0
C392 C 0.04969 0.5115 0.34265 0.0
C393 C 0.0014 0.47143 0.30657 0.0
C394 C 0.07876 0.51951 0.35995 0.0
C395 C 0.09002 0.49766 0.35988 0.0
C396 C 0.03249 0.48184 0.32463 0.0
C397 C 0.07162 0.46805 0.34231 0.0
C398 C 0.98998 0.44684 0.28017 0.0
C399 C 0.95096 0.46931 0.30712 0.0
N400 N 0.04392 0.46113 0.32527 0.0
N401 N 0.98194 0.48257 0.31855 0.0
H402 H 0.43702 0.93646 0.51241 0.0
H403 H 0.59259 0.09771 0.46624 0.0
H404 H 0.49307 0.95363 0.41341 0.0
H405 H 0.52756 0.09246 0.55146 0.0
H406 H 0.5512 0.04687 0.44169 0.0
H407 H 0.46301 0.99466 0.52232 0.0
C408 C 0.45387 0.95258 0.49207 0.0
C409 C 0.46348 0.94063 0.46243 0.0
C410 C 0.54559 0.05682 0.46548 0.0
C411 C 0.49342 0.00644 0.47368 0.0
C412 C 0.56935 0.08577 0.47961 0.0
C413 C 0.56346 0.09878 0.51115 0.0
C414 C 0.51594 0.04016 0.48373 0.0
C415 C 0.53289 0.08283 0.52716 0.0
C416 C 0.46884 0.9857 0.4978 0.0
C417 C 0.4855 0.96214 0.43692 0.0
N418 N 0.51032 0.0538 0.51375 0.0
N419 N 0.5001 0.99401 0.44343 0.0
H420 H 0.44201 0.5397 0.70259 0.0
H421 H 0.56826 0.52724 0.57064 0.0
H422 H 0.52074 0.61793 0.64521 0.0
H423 H 0.5131 0.45467 0.6517 0.0
H424 H 0.53745 0.55349 0.58447 0.0
H425 H 0.45645 0.50236 0.67315 0.0
C426 C 0.46206 0.54889 0.6836 0.0
C427 C 0.48061 0.58188 0.67672 0.0
C428 C 0.53166 0.53154 0.59889 0.0
C429 C 0.49653 0.53976 0.64263 0.0
C430 C 0.54915 0.51651 0.59087 0.0
C431 C 0.54352 0.48922 0.61061 0.0
C432 C 0.50884 0.51955 0.6274 0.0
C433 C 0.51822 0.47591 0.63614 0.0
C434 C 0.4702 0.52769 0.66685 0.0
C435 C 0.50619 0.59273 0.65182 0.0
N436 N 0.50215 0.49168 0.64451 0.0
N437 N 0.51339 0.57176 0.63578 0.0
H438 H 0.04152 0.58513 0.75152 0.0
H439 H 0.89937 0.4529 0.87362 0.0
H440 H 0.05632 0.51922 0.81801 0.0
H441 H 0.91342 0.5465 0.84716 0.0
H442 H 0.95088 0.46794 0.8433 0.0
H443 H 0.98627 0.55958 0.77283 0.0
C444 C 0.0329 0.5648 0.77005 0.0
C445 C 0.05355 0.55462 0.78364 0.0
C446 C 0.94247 0.485 0.84434 0.0
C447 C 0.99066 0.52575 0.80868 0.0
C448 C 0.91333 0.47658 0.86172 0.0
C449 C 0.90223 0.49855 0.86298 0.0
C450 C 0.9599 0.5152 0.82758 0.0
C451 C 0.92105 0.52883 0.84702 0.0
C452 C 0.00147 0.55039 0.78239 0.0
C453 C 0.04108 0.52787 0.80716 0.0
N454 N 0.94878 0.53613 0.82978 0.0
N455 N 0.01037 0.51457 0.81958 0.0
H456 H 0.49582 0.03769 0.91111 0.0
H457 H 0.46187 0.89876 0.05475 0.0
H458 H 0.55036 0.05587 0.01157 0.0
H459 H 0.39522 0.89907 0.9753 0.0
H460 H 0.50385 0.95049 0.02947 0.0
H461 H 0.47029 0.98034 0.92293 0.0
C462 C 0.50301 0.0294 0.93518 0.0
C463 C 0.52475 0.05119 0.9607 0.0
C464 C 0.48012 0.93882 0.01734 0.0
C465 C 0.49483 0.98595 0.97524 0.0
C466 C 0.4563 0.90951 0.0317 0.0
C467 C 0.4251 0.89519 0.01738 0.0
C468 C 0.47255 0.95308 0.98807 0.0
C469 C 0.41887 0.90973 0.98752 0.0
C470 C 0.48834 -0.00325 0.94206 0.0
C471 C 0.53354 0.03952 0.99139 0.0
N472 N 0.44235 0.93788 0.97395 0.0
N473 N 0.51787 0.00747 0.99841 0.0
H474 H 0.43287 0.47446 0.07721 0.0
H475 H 0.54909 0.45055 0.21414 0.0
H476 H 0.47958 0.53961 0.1678 0.0
H477 H 0.46829 0.37567 0.15559 0.0
H478 H 0.53664 0.49014 0.18699 0.0
H479 H 0.46162 0.4464 0.09285 0.0
C480 C 0.44986 0.48331 0.09989 0.0
C481 C 0.45354 0.50891 0.12172 0.0
C482 C 0.52193 0.46503 0.18006 0.0
C483 C 0.48573 0.47647 0.14038 0.0
C484 C 0.52889 0.44253 0.19553 0.0
C485 C 0.50938 0.40986 0.18739 0.0
C486 C 0.4959 0.45459 0.1557 0.0
C487 C 0.48364 0.40057 0.16304 0.0
C488 C 0.46608 0.46721 0.10894 0.0
C489 C 0.47607 0.51977 0.1505 0.0
N490 N 0.47773 0.42282 0.14801 0.0
N491 N 0.49094 0.50297 0.15965 0.0
H492 H 0.23997 0.48262 0.357 0.0
H493 H 0.28694 0.49402 0.14184 0.0
H494 H 0.19732 0.51102 0.27079 0.0
H495 H 0.3456 0.49152 0.2305 0.0
H496 H 0.24724 0.48933 0.1878 0.0
H497 H 0.27279 0.4755 0.30993 0.0
C498 C 0.23732 0.48708 0.32821 0.0
C499 C 0.21614 0.49771 0.31785 0.0
C500 C 0.26868 0.48947 0.19709 0.0
C501 C 0.25325 0.48941 0.26393 0.0
C502 C 0.29125 0.49198 0.17084 0.0
C503 C 0.31986 0.49371 0.18238 0.0
C504 C 0.27462 0.48821 0.23503 0.0
C505 C 0.32406 0.49073 0.22038 0.0
C506 C 0.25605 0.48307 0.30137 0.0
C507 C 0.21361 0.50312 0.2801 0.0
N508 N 0.30186 0.48834 0.2453 0.0
N509 N 0.23194 0.49898 0.25459 0.0
H510 H 0.84173 0.34575 0.39665 0.0
H511 H 0.66603 0.20385 0.43396 0.0
H512 H 0.77905 0.28658 0.30938 0.0
H513 H 0.73803 0.23847 0.51951 0.0
H514 H 0.70726 0.23483 0.38844 0.0
H515 H 0.80508 0.30752 0.44228 0.0
C516 C 0.82043 0.3245 0.38702 0.0
C517 C 0.81325 0.31958 0.34908 0.0
C518 C 0.71422 0.23552 0.41706 0.0
C519 C 0.77097 0.27594 0.40134 0.0
C520 C 0.69063 0.21797 0.44319 0.0
C521 C 0.69858 0.21876 0.48069 0.0
C522 C 0.74612 0.25465 0.42839 0.0
C523 C 0.73091 0.23723 0.49089 0.0
C524 C 0.79956 0.30268 0.41315 0.0
C525 C 0.78545 0.29151 0.33829 0.0
N526 N 0.75351 0.25485 0.46492 0.0
N527 N 0.76508 0.27103 0.36431 0.0
H528 H 0.47812 0.68471 0.60257 0.0
H529 H 0.48072 0.84889 0.57656 0.0
H530 H 0.49596 0.74901 0.69392 0.0
H531 H 0.4933 0.79813 0.48579 0.0
H532 H 0.48783 0.81407 0.62003 0.0
H533 H 0.48478 0.7266 0.5597 0.0
C534 C 0.48368 0.70783 0.61362 0.0
C535 C 0.48626 0.71333 0.65192 0.0
C536 C 0.48948 0.8108 0.59065 0.0
C537 C 0.49356 0.76151 0.60273 0.0
C538 C 0.48537 0.83063 0.56574 0.0
C539 C 0.48603 0.82618 0.52741 0.0
C540 C 0.49378 0.7859 0.5772 0.0
C541 C 0.49238 0.80231 0.51505 0.0
C542 C 0.48762 0.73181 0.58903 0.0
C543 C 0.49379 0.74381 0.6646 0.0
N544 N 0.4955 0.78274 0.53987 0.0
N545 N 0.4967 0.76666 0.64006 0.0
H546 H 0.79716 0.48418 0.76998 0.0
H547 H 0.64473 0.50096 0.72661 0.0
H548 H 0.74976 0.50916 0.85386 0.0
H549 H 0.70774 0.50159 0.64143 0.0
H550 H 0.68327 0.50542 0.77341 0.0
H551 H 0.76501 0.49107 0.72272 0.0
C552 C 0.78002 0.49126 0.77848 0.0
C553 C 0.77599 0.4959 0.81601 0.0
C554 C 0.6889 0.50497 0.7445 0.0
C555 C 0.73884 0.5037 0.76176 0.0
C556 C 0.6669 0.50241 0.71768 0.0
C557 C 0.67282 0.50048 0.67999 0.0
C558 C 0.71696 0.50516 0.7337 0.0
C559 C 0.70205 0.50275 0.67013 0.0
C560 C 0.76177 0.49534 0.75138 0.0
C561 C 0.7536 0.5053 0.82528 0.0
N562 N 0.72281 0.50447 0.69686 0.0
N563 N 0.73559 0.50855 0.79835 0.0
H564 H 0.32366 0.79289 0.93713 0.0
H565 H 0.14902 0.65031 0.89538 0.0
H566 H 0.2505 0.75494 0.02133 0.0
H567 H 0.2131 0.71052 0.80969 0.0
H568 H 0.18479 0.68799 0.94194 0.0
H569 H 0.28327 0.76264 0.89048 0.0
C570 C 0.29897 0.77821 0.94582 0.0
C571 C 0.29047 0.77625 0.98328 0.0
C572 C 0.19085 0.6932 0.91296 0.0
C573 C 0.24389 0.74116 0.92966 0.0
C574 C 0.17047 0.67168 0.88629 0.0
C575 C 0.17826 0.67706 0.84852 0.0
C576 C 0.21959 0.72013 0.9019 0.0
C577 C 0.20623 0.70527 0.83844 0.0
C578 C 0.27587 0.76106 0.91905 0.0
C579 C 0.25806 0.7571 0.99277 0.0
N580 N 0.22612 0.72548 0.865 0.0
N581 N 0.23595 0.7399 0.96616 0.0
H582 H 0.49245 0.24297 0.19112 0.0
H583 H 0.50112 0.1983 0.97912 0.0
H584 H 0.52238 0.31148 0.10198 0.0
H585 H 0.50897 0.14564 0.07117 0.0
H586 H 0.49657 0.23473 0.02307 0.0
H587 H 0.48663 0.20185 0.14649 0.0
C588 C 0.49752 0.24927 0.16218 0.0
C589 C 0.50818 0.28072 0.15029 0.0
C590 C 0.49896 0.21496 0.03355 0.0
C591 C 0.50119 0.23389 0.09916 0.0
C592 C 0.50141 0.1941 0.0085 0.0
C593 C 0.50591 0.16919 0.02149 0.0
C594 C 0.50038 0.21045 0.07181 0.0
C595 C 0.50591 0.16477 0.05992 0.0
C596 C 0.49426 0.22587 0.13676 0.0
C597 C 0.51441 0.2876 0.11242 0.0
N598 N 0.50332 0.18523 0.08369 0.0
N599 N 0.51081 0.26442 0.08824 0.0
loop_
_geom_bond_atom_site_label_1
_geom_bond_atom_site_label_2
_geom_bond_distance
_geom_bond_site_symmetry_2
_ccdc_geom_bond_type
Co0 O1 2.216 . S
Co0 O2 2.091 . S
Co0 O4 2.004 . S
Co0 O10 2.021 . S
Co0 O12 2.137 . S
Co0 O13 2.244 . S
O1 Co0 2.216 . S
O1 C8 1.247 . S
O2 Co0 2.091 . S
O2 C8 1.261 . S
C3 O12 1.247 . S
C3 O13 1.272 . S
O4 Co0 2.004 . S
O4 C9 1.259 . S
Co5 O6 2.061 . S
Co5 O11 2.052 . S
Co5 O13 2.135 . S
O6 Co5 2.061 . S
O6 C9 1.235 . S
C7 O10 1.238 . S
C7 O11 1.241 . S
C8 O1 1.247 . S
C8 O2 1.261 . S
C9 O4 1.259 . S
C9 O6 1.235 . S
O10 Co0 2.021 . S
O10 C7 1.238 . S
O11 Co5 2.052 . S
O11 C7 1.241 . S
O12 Co0 2.137 . S
O12 C3 1.247 . S
O13 Co0 2.244 . S
O13 C3 1.272 . S
O13 Co5 2.135 . S
Co14 O15 2.216 . S
Co14 O16 2.091 . S
Co14 O18 2.004 . S
Co14 O24 2.021 . S
Co14 O26 2.137 . S
Co14 O27 2.244 . S
O15 Co14 2.216 . S
O15 C22 1.247 . S
O16 Co14 2.091 . S
O16 C22 1.261 . S
C17 O26 1.247 . S
C17 O27 1.272 . S
O18 Co14 2.004 . S
O18 C23 1.259 . S
Co19 O20 2.061 . S
Co19 O25 2.052 . S
Co19 O27 2.135 . S
O20 Co19 2.061 . S
O20 C23 1.235 . S
C21 O24 1.238 . S
C21 O25 1.241 . S
C22 O15 1.247 . S
C22 O16 1.261 . S
C23 O18 1.259 . S
C23 O20 1.235 . S
O24 Co14 2.021 . S
O24 C21 1.238 . S
O25 Co19 2.052 . S
O25 C21 1.241 . S
O26 Co14 2.137 . S
O26 C17 1.247 . S
O27 Co14 2.244 . S
O27 C17 1.272 . S
O27 Co19 2.135 . S
Co28 O29 2.216 . S
Co28 O30 2.091 . S
Co28 O32 2.004 . S
Co28 O38 2.021 . S
Co28 O40 2.137 . S
Co28 O41 2.244 . S
O29 Co28 2.216 . S
O29 C36 1.247 . S
O30 Co28 2.091 . S
O30 C36 1.261 . S
C31 O40 1.247 . S
C31 O41 1.272 . S
O32 Co28 2.004 . S
O32 C37 1.259 . S
Co33 O34 2.061 . S
Co33 O39 2.052 . S
Co33 O41 2.135 . S
O34 Co33 2.061 . S
O34 C37 1.235 . S
C35 O38 1.238 . S
C35 O39 1.241 . S
C36 O29 1.247 . S
C36 O30 1.261 . S
C37 O32 1.259 . S
C37 O34 1.235 . S
O38 Co28 2.021 . S
O38 C35 1.238 . S
O39 Co33 2.052 . S
O39 C35 1.241 . S
O40 Co28 2.137 . S
O40 C31 1.247 . S
O41 Co28 2.244 . S
O41 C31 1.272 . S
O41 Co33 2.135 . S
Co42 O43 2.216 . S
Co42 O44 2.091 . S
Co42 O46 2.004 . S
Co42 O52 2.021 . S
Co42 O54 2.137 . S
Co42 O55 2.244 . S
O43 Co42 2.216 . S
O43 C50 1.247 . S
O44 Co42 2.091 . S
O44 C50 1.261 . S
C45 O54 1.247 . S
C45 O55 1.272 . S
O46 Co42 2.004 . S
O46 C51 1.259 . S
Co47 O48 2.061 . S
Co47 O53 2.052 . S
Co47 O55 2.135 . S
O48 Co47 2.061 . S
O48 C51 1.235 . S
C49 O52 1.238 . S
C49 O53 1.241 . S
C50 O43 1.247 . S
C50 O44 1.261 . S
C51 O46 1.259 . S
C51 O48 1.235 . S
O52 Co42 2.021 . S
O52 C49 1.238 . S
O53 Co47 2.052 . S
O53 C49 1.241 . S
O54 Co42 2.137 . S
O54 C45 1.247 . S
O55 Co42 2.244 . S
O55 C45 1.272 . S
O55 Co47 2.135 . S
Co56 O57 2.216 . S
Co56 O58 2.091 . S
Co56 O60 2.004 . S
Co56 O66 2.021 . S
Co56 O68 2.137 . S
Co56 O69 2.244 . S
O57 Co56 2.216 . S
O57 C64 1.247 . S
O58 Co56 2.091 . S
O58 C64 1.261 . S
C59 O68 1.247 . S
C59 O69 1.272 . S
O60 Co56 2.004 . S
O60 C65 1.259 . S
Co61 O62 2.061 . S
Co61 O67 2.052 . S
Co61 O69 2.135 . S
O62 Co61 2.061 . S
O62 C65 1.235 . S
C63 O66 1.238 . S
C63 O67 1.241 . S
C64 O57 1.247 . S
C64 O58 1.261 . S
C65 O60 1.259 . S
C65 O62 1.235 . S
O66 Co56 2.021 . S
O66 C63 1.238 . S
O67 Co61 2.052 . S
O67 C63 1.241 . S
O68 Co56 2.137 . S
O68 C59 1.247 . S
O69 Co56 2.244 . S
O69 C59 1.272 . S
O69 Co61 2.135 . S
Co70 O71 2.216 . S
Co70 O72 2.091 . S
Co70 O74 2.004 . S
Co70 O80 2.021 . S
Co70 O82 2.137 . S
Co70 O83 2.244 . S
O71 Co70 2.216 . S
O71 C78 1.247 . S
O72 Co70 2.091 . S
O72 C78 1.261 . S
C73 O82 1.247 . S
C73 O83 1.272 . S
O74 Co70 2.004 . S
O74 C79 1.259 . S
Co75 O76 2.061 . S
Co75 O81 2.052 . S
Co75 O83 2.135 . S
O76 Co75 2.061 . S
O76 C79 1.235 . S
C77 O80 1.238 . S
C77 O81 1.241 . S
C78 O71 1.247 . S
C78 O72 1.261 . S
C79 O74 1.259 . S
C79 O76 1.235 . S
O80 Co70 2.021 . S
O80 C77 1.238 . S
O81 Co75 2.052 . S
O81 C77 1.241 . S
O82 Co70 2.137 . S
O82 C73 1.247 . S
O83 Co70 2.244 . S
O83 C73 1.272 . S
O83 Co75 2.135 . S
Co84 O85 2.216 . S
Co84 O86 2.091 . S
Co84 O88 2.004 . S
Co84 O94 2.021 . S
Co84 O96 2.137 . S
Co84 O97 2.244 . S
O85 Co84 2.216 . S
O85 C92 1.247 . S
O86 Co84 2.091 . S
O86 C92 1.261 . S
C87 O96 1.247 . S
C87 O97 1.272 . S
O88 Co84 2.004 . S
O88 C93 1.259 . S
Co89 O90 2.061 . S
Co89 O95 2.052 . S
Co89 O97 2.135 . S
O90 Co89 2.061 . S
O90 C93 1.235 . S
C91 O94 1.238 . S
C91 O95 1.241 . S
C92 O85 1.247 . S
C92 O86 1.261 . S
C93 O88 1.259 . S
C93 O90 1.235 . S
O94 Co84 2.021 . S
O94 C91 1.238 . S
O95 Co89 2.052 . S
O95 C91 1.241 . S
O96 Co84 2.137 . S
O96 C87 1.247 . S
O97 Co84 2.244 . S
O97 C87 1.272 . S
O97 Co89 2.135 . S
Co98 O99 2.216 . S
Co98 O100 2.091 . S
Co98 O102 2.004 . S
Co98 O108 2.021 . S
Co98 O110 2.137 . S
Co98 O111 2.244 . S
O99 Co98 2.216 . S
O99 C106 1.247 . S
O100 Co98 2.091 . S
O100 C106 1.261 . S
C101 O110 1.247 . S
C101 O111 1.272 . S
O102 Co98 2.004 . S
O102 C107 1.259 . S
Co103 O104 2.061 . S
Co103 O109 2.052 . S
Co103 O111 2.135 . S
O104 Co103 2.061 . S
O104 C107 1.235 . S
C105 O108 1.238 . S
C105 O109 1.241 . S
C106 O99 1.247 . S
C106 O100 1.261 . S
C107 O102 1.259 . S
C107 O104 1.235 . S
O108 Co98 2.021 . S
O108 C105 1.238 . S
O109 Co103 2.052 . S
O109 C105 1.241 . S
O110 Co98 2.137 . S
O110 C101 1.247 . S
O111 Co98 2.244 . S
O111 C101 1.272 . S
O111 Co103 2.135 . S
Co112 O113 2.216 . S
Co112 O114 2.091 . S
Co112 O116 2.004 . S
Co112 O122 2.021 . S
Co112 O124 2.137 . S
Co112 O125 2.244 . S
O113 Co112 2.216 . S
O113 C120 1.247 . S
O114 Co112 2.091 . S
O114 C120 1.261 . S
C115 O124 1.247 . S
C115 O125 1.272 . S
O116 Co112 2.004 . S
O116 C121 1.259 . S
Co117 O118 2.061 . S
Co117 O123 2.052 . S
Co117 O125 2.135 . S
O118 Co117 2.061 . S
O118 C121 1.235 . S
C119 O122 1.238 . S
C119 O123 1.241 . S
C120 O113 1.247 . S
C120 O114 1.261 . S
C121 O116 1.259 . S
C121 O118 1.235 . S
O122 Co112 2.021 . S
O122 C119 1.238 . S
O123 Co117 2.052 . S
O123 C119 1.241 . S
O124 Co112 2.137 . S
O124 C115 1.247 . S
O125 Co112 2.244 . S
O125 C115 1.272 . S
O125 Co117 2.135 . S
Co126 O127 2.216 . S
Co126 O128 2.091 . S
Co126 O130 2.004 . S
Co126 O136 2.021 . S
Co126 O138 2.137 . S
Co126 O139 2.244 . S
O127 Co126 2.216 . S
O127 C134 1.247 . S
O128 Co126 2.091 . S
O128 C134 1.261 . S
C129 O138 1.247 . S
C129 O139 1.272 . S
O130 Co126 2.004 . S
O130 C135 1.259 . S
Co131 O132 2.061 . S
Co131 O137 2.052 . S
Co131 O139 2.135 . S
O132 Co131 2.061 . S
O132 C135 1.235 . S
C133 O136 1.238 . S
C133 O137 1.241 . S
C134 O127 1.247 . S
C134 O128 1.261 . S
C135 O130 1.259 . S
C135 O132 1.235 . S
O136 Co126 2.021 . S
O136 C133 1.238 . S
O137 Co131 2.052 . S
O137 C133 1.241 . S
O138 Co126 2.137 . S
O138 C129 1.247 . S
O139 Co126 2.244 . S
O139 C129 1.272 . S
O139 Co131 2.135 . S
Co140 O141 2.216 . S
Co140 O142 2.091 . S
Co140 O144 2.004 . S
Co140 O150 2.021 . S
Co140 O152 2.137 . S
Co140 O153 2.244 . S
O141 Co140 2.216 . S
O141 C148 1.247 . S
O142 Co140 2.091 . S
O142 C148 1.261 . S
C143 O152 1.247 . S
C143 O153 1.272 . S
O144 Co140 2.004 . S
O144 C149 1.259 . S
Co145 O146 2.061 . S
Co145 O151 2.052 . S
Co145 O153 2.135 . S
O146 Co145 2.061 . S
O146 C149 1.235 . S
C147 O150 1.238 . S
C147 O151 1.241 . S
C148 O141 1.247 . S
C148 O142 1.261 . S
C149 O144 1.259 . S
C149 O146 1.235 . S
O150 Co140 2.021 . S
O150 C147 1.238 . S
O151 Co145 2.052 . S
O151 C147 1.241 . S
O152 Co140 2.137 . S
O152 C143 1.247 . S
O153 Co140 2.244 . S
O153 C143 1.272 . S
O153 Co145 2.135 . S
Co154 O155 2.216 . S
Co154 O156 2.091 . S
Co154 O158 2.004 . S
Co154 O164 2.021 . S
Co154 O166 2.137 . S
Co154 O167 2.244 . S
O155 Co154 2.216 . S
O155 C162 1.247 . S
O156 Co154 2.091 . S
O156 C162 1.261 . S
C157 O166 1.247 . S
C157 O167 1.272 . S
O158 Co154 2.004 . S
O158 C163 1.259 . S
Co159 O160 2.061 . S
Co159 O165 2.052 . S
Co159 O167 2.135 . S
O160 Co159 2.061 . S
O160 C163 1.235 . S
C161 O164 1.238 . S
C161 O165 1.241 . S
C162 O155 1.247 . S
C162 O156 1.261 . S
C163 O158 1.259 . S
C163 O160 1.235 . S
O164 Co154 2.021 . S
O164 C161 1.238 . S
O165 Co159 2.052 . S
O165 C161 1.241 . S
O166 Co154 2.137 . S
O166 C157 1.247 . S
O167 Co154 2.244 . S
O167 C157 1.272 . S
O167 Co159 2.135 . S
H168 C174 0.930 . S
H169 C178 0.930 . S
H170 C183 0.929 . S
H171 C181 0.929 . S
H172 C176 0.929 . S
H173 C182 0.929 . S
C174 H168 0.930 . S
C174 C175 1.367 . S
C174 C182 1.378 . S
C175 C174 1.367 . S
C175 C183 1.433 . S
C176 H172 0.929 . S
C176 C178 1.378 . S
C176 C180 1.350 . S
C177 C180 1.463 . S
C177 C182 1.350 . S
C177 N185 1.427 . S
C178 H169 0.930 . S
C178 C176 1.378 . S
C178 C179 1.367 . S
C179 C178 1.367 . S
C179 C181 1.433 . S
C180 C176 1.350 . S
C180 C177 1.463 . S
C180 N184 1.427 . S
C181 H171 0.929 . S
C181 C179 1.433 . S
C181 N184 1.384 . S
C182 H173 0.929 . S
C182 C174 1.378 . S
C182 C177 1.350 . S
C183 H170 0.929 . S
C183 C175 1.433 . S
C183 N185 1.384 . S
N184 C180 1.427 . S
N184 C181 1.384 . S
N185 C177 1.427 . S
N185 C183 1.384 . S
H186 C192 0.930 . S
H187 C196 0.930 . S
H188 C201 0.929 . S
H189 C199 0.929 . S
H190 C194 0.929 . S
H191 C200 0.929 . S
C192 H186 0.930 . S
C192 C193 1.367 . S
C192 C200 1.378 . S
C193 C192 1.367 . S
C193 C201 1.433 . S
C194 H190 0.929 . S
C194 C196 1.378 . S
C194 C198 1.350 . S
C195 C198 1.463 . S
C195 C200 1.350 . S
C195 N203 1.427 . S
C196 H187 0.930 . S
C196 C194 1.378 . S
C196 C197 1.367 . S
C197 C196 1.367 . S
C197 C199 1.433 . S
C198 C194 1.350 . S
C198 C195 1.463 . S
C198 N202 1.427 . S
C199 H189 0.929 . S
C199 C197 1.433 . S
C199 N202 1.384 . S
C200 H191 0.929 . S
C200 C192 1.378 . S
C200 C195 1.350 . S
C201 H188 0.929 . S
C201 C193 1.433 . S
C201 N203 1.384 . S
N202 C198 1.427 . S
N202 C199 1.384 . S
N203 C195 1.427 . S
N203 C201 1.384 . S
H204 C210 0.930 . S
H205 C214 0.930 . S
H206 C219 0.929 . S
H207 C217 0.929 . S
H208 C212 0.929 . S
H209 C218 0.929 . S
C210 H204 0.930 . S
C210 C211 1.367 . S
C210 C218 1.378 . S
C211 C210 1.367 . S
C211 C219 1.433 . S
C212 H208 0.929 . S
C212 C214 1.378 . S
C212 C216 1.350 . S
C213 C216 1.463 . S
C213 C218 1.350 . S
C213 N221 1.427 . S
C214 H205 0.930 . S
C214 C212 1.378 . S
C214 C215 1.367 . S
C215 C214 1.367 . S
C215 C217 1.433 . S
C216 C212 1.350 . S
C216 C213 1.463 . S
C216 N220 1.427 . S
C217 H207 0.929 . S
C217 C215 1.433 . S
C217 N220 1.384 . S
C218 H209 0.929 . S
C218 C210 1.378 . S
C218 C213 1.350 . S
C219 H206 0.929 . S
C219 C211 1.433 . S
C219 N221 1.384 . S
N220 C216 1.427 . S
N220 C217 1.384 . S
N221 C213 1.427 . S
N221 C219 1.384 . S
H222 C228 0.930 . S
H223 C232 0.930 . S
H224 C237 0.929 . S
H225 C235 0.929 . S
H226 C230 0.929 . S
H227 C236 0.929 . S
C228 H222 0.930 . S
C228 C229 1.367 . S
C228 C236 1.378 . S
C229 C228 1.367 . S
C229 C237 1.433 . S
C230 H226 0.929 . S
C230 C232 1.378 . S
C230 C234 1.350 . S
C231 C234 1.463 . S
C231 C236 1.350 . S
C231 N239 1.427 . S
C232 H223 0.930 . S
C232 C230 1.378 . S
C232 C233 1.367 . S
C233 C232 1.367 . S
C233 C235 1.433 . S
C234 C230 1.350 . S
C234 C231 1.463 . S
C234 N238 1.427 . S
C235 H225 0.929 . S
C235 C233 1.433 . S
C235 N238 1.384 . S
C236 H227 0.929 . S
C236 C228 1.378 . S
C236 C231 1.350 . S
C237 H224 0.929 . S
C237 C229 1.433 . S
C237 N239 1.384 . S
N238 C234 1.427 . S
N238 C235 1.384 . S
N239 C231 1.427 . S
N239 C237 1.384 . S
H240 C246 0.930 . S
H241 C250 0.930 . S
H242 C255 0.929 . S
H243 C253 0.929 . S
H244 C248 0.929 . S
H245 C254 0.929 . S
C246 H240 0.930 . S
C246 C247 1.367 . S
C246 C254 1.378 . S
C247 C246 1.367 . S
C247 C255 1.433 . S
C248 H244 0.929 . S
C248 C250 1.378 . S
C248 C252 1.350 . S
C249 C252 1.463 . S
C249 C254 1.350 . S
C249 N257 1.427 . S
C250 H241 0.930 . S
C250 C248 1.378 . S
C250 C251 1.367 . S
C251 C250 1.367 . S
C251 C253 1.433 . S
C252 C248 1.350 . S
C252 C249 1.463 . S
C252 N256 1.427 . S
C253 H243 0.929 . S
C253 C251 1.433 . S
C253 N256 1.384 . S
C254 H245 0.929 . S
C254 C246 1.378 . S
C254 C249 1.350 . S
C255 H242 0.929 . S
C255 C247 1.433 . S
C255 N257 1.384 . S
N256 C252 1.427 . S
N256 C253 1.384 . S
N257 C249 1.427 . S
N257 C255 1.384 . S
H258 C264 0.930 . S
H259 C268 0.930 . S
H260 C273 0.929 . S
H261 C271 0.929 . S
H262 C266 0.929 . S
H263 C272 0.929 . S
C264 H258 0.930 . S
C264 C265 1.367 . S
C264 C272 1.378 . S
C265 C264 1.367 . S
C265 C273 1.433 . S
C266 H262 0.929 . S
C266 C268 1.378 . S
C266 C270 1.350 . S
C267 C270 1.463 . S
C267 C272 1.350 . S
C267 N275 1.427 . S
C268 H259 0.930 . S
C268 C266 1.378 . S
C268 C269 1.367 . S
C269 C268 1.367 . S
C269 C271 1.433 . S
C270 C266 1.350 . S
C270 C267 1.463 . S
C270 N274 1.427 . S
C271 H261 0.929 . S
C271 C269 1.433 . S
C271 N274 1.384 . S
C272 H263 0.929 . S
C272 C264 1.378 . S
C272 C267 1.350 . S
C273 H260 0.929 . S
C273 C265 1.433 . S
C273 N275 1.384 . S
N274 C270 1.427 . S
N274 C271 1.384 . S
N275 C267 1.427 . S
N275 C273 1.384 . S
H276 C282 0.930 . S
H277 C286 0.930 . S
H278 C291 0.929 . S
H279 C289 0.929 . S
H280 C284 0.929 . S
H281 C290 0.929 . S
C282 H276 0.930 . S
C282 C283 1.367 . S
C282 C290 1.378 . S
C283 C282 1.367 . S
C283 C291 1.433 . S
C284 H280 0.929 . S
C284 C286 1.378 . S
C284 C288 1.350 . S
C285 C288 1.463 . S
C285 C290 1.350 . S
C285 N293 1.427 . S
C286 H277 0.930 . S
C286 C284 1.378 . S
C286 C287 1.367 . S
C287 C286 1.367 . S
C287 C289 1.433 . S
C288 C284 1.350 . S
C288 C285 1.463 . S
C288 N292 1.427 . S
C289 H279 0.929 . S
C289 C287 1.433 . S
C289 N292 1.384 . S
C290 H281 0.929 . S
C290 C282 1.378 . S
C290 C285 1.350 . S
C291 H278 0.929 . S
C291 C283 1.433 . S
C291 N293 1.384 . S
N292 C288 1.427 . S
N292 C289 1.384 . S
N293 C285 1.427 . S
N293 C291 1.384 . S
H294 C300 0.930 . S
H295 C304 0.930 . S
H296 C309 0.929 . S
H297 C307 0.929 . S
H298 C302 0.929 . S
H299 C308 0.929 . S
C300 H294 0.930 . S
C300 C301 1.367 . S
C300 C308 1.378 . S
C301 C300 1.367 . S
C301 C309 1.433 . S
C302 H298 0.929 . S
C302 C304 1.378 . S
C302 C306 1.350 . S
C303 C306 1.463 . S
C303 C308 1.350 . S
C303 N311 1.427 . S
C304 H295 0.930 . S
C304 C302 1.378 . S
C304 C305 1.367 . S
C305 C304 1.367 . S
C305 C307 1.433 . S
C306 C302 1.350 . S
C306 C303 1.463 . S
C306 N310 1.427 . S
C307 H297 0.929 . S
C307 C305 1.433 . S
C307 N310 1.384 . S
C308 H299 0.929 . S
C308 C300 1.378 . S
C308 C303 1.350 . S
C309 H296 0.929 . S
C309 C301 1.433 . S
C309 N311 1.384 . S
N310 C306 1.427 . S
N310 C307 1.384 . S
N311 C303 1.427 . S
N311 C309 1.384 . S
H312 C318 0.930 1_554 S
H313 C322 0.930 . S
H314 C327 0.929 . S
H315 C325 0.929 . S
H316 C320 0.929 . S
H317 C326 0.929 . S
C318 H312 0.930 1_556 S
C318 C319 1.367 . S
C318 C326 1.378 . S
C319 C318 1.367 . S
C319 C327 1.433 . S
C320 H316 0.929 . S
C320 C322 1.378 . S
C320 C324 1.350 . S
C321 C324 1.463 . S
C321 C326 1.350 . S
C321 N329 1.427 . S
C322 H313 0.930 . S
C322 C320 1.378 . S
C322 C323 1.367 . S
C323 C322 1.367 . S
C323 C325 1.433 . S
C324 C320 1.350 . S
C324 C321 1.463 . S
C324 N328 1.427 . S
C325 H315 0.929 . S
C325 C323 1.433 . S
C325 N328 1.384 . S
C326 H317 0.929 . S
C326 C318 1.378 . S
C326 C321 1.350 . S
C327 H314 0.929 . S
C327 C319 1.433 . S
C327 N329 1.384 . S
N328 C324 1.427 . S
N328 C325 1.384 . S
N329 C321 1.427 . S
N329 C327 1.384 . S
H330 C336 0.930 . S
H331 C340 0.930 . S
H332 C345 0.929 . S
H333 C343 0.929 . S
H334 C338 0.929 . S
H335 C344 0.929 . S
C336 H330 0.930 . S
C336 C337 1.367 . S
C336 C344 1.378 . S
C337 C336 1.367 . S
C337 C345 1.433 . S
C338 H334 0.929 . S
C338 C340 1.378 . S
C338 C342 1.350 . S
C339 C342 1.463 . S
C339 C344 1.350 . S
C339 N347 1.427 . S
C340 H331 0.930 . S
C340 C338 1.378 . S
C340 C341 1.367 . S
C341 C340 1.367 . S
C341 C343 1.433 . S
C342 C338 1.350 . S
C342 C339 1.463 . S
C342 N346 1.427 . S
C343 H333 0.929 . S
C343 C341 1.433 . S
C343 N346 1.384 . S
C344 H335 0.929 . S
C344 C336 1.378 . S
C344 C339 1.350 . S
C345 H332 0.929 . S
C345 C337 1.433 . S
C345 N347 1.384 . S
N346 C342 1.427 . S
N346 C343 1.384 . S
N347 C339 1.427 . S
N347 C345 1.384 . S
H348 C354 0.930 . S
H349 C358 0.930 . S
H350 C363 0.929 . S
H351 C361 0.929 . S
H352 C356 0.929 . S
H353 C362 0.929 . S
C354 H348 0.930 . S
C354 C355 1.367 . S
C354 C362 1.378 . S
C355 C354 1.367 . S
C355 C363 1.433 . S
C356 H352 0.929 . S
C356 C358 1.378 . S
C356 C360 1.350 . S
C357 C360 1.463 . S
C357 C362 1.350 . S
C357 N365 1.427 . S
C358 H349 0.930 . S
C358 C356 1.378 . S
C358 C359 1.367 . S
C359 C358 1.367 . S
C359 C361 1.433 . S
C360 C356 1.350 . S
C360 C357 1.463 . S
C360 N364 1.427 . S
C361 H351 0.929 . S
C361 C359 1.433 . S
C361 N364 1.384 . S
C362 H353 0.929 . S
C362 C354 1.378 . S
C362 C357 1.350 . S
C363 H350 0.929 . S
C363 C355 1.433 . S
C363 N365 1.384 . S
N364 C360 1.427 . S
N364 C361 1.384 . S
N365 C357 1.427 . S
N365 C363 1.384 . S
H366 C372 0.930 . S
H367 C376 0.930 . S
H368 C381 0.929 . S
H369 C379 0.929 . S
H370 C374 0.929 . S
H371 C380 0.929 . S
C372 H366 0.930 . S
C372 C373 1.367 . S
C372 C380 1.378 . S
C373 C372 1.367 . S
C373 C381 1.433 . S
C374 H370 0.929 . S
C374 C376 1.378 . S
C374 C378 1.350 . S
C375 C378 1.463 . S
C375 C380 1.350 . S
C375 N383 1.427 . S
C376 H367 0.930 . S
C376 C374 1.378 . S
C376 C377 1.367 . S
C377 C376 1.367 . S
C377 C379 1.433 . S
C378 C374 1.350 . S
C378 C375 1.463 . S
C378 N382 1.427 . S
C379 H369 0.929 . S
C379 C377 1.433 . S
C379 N382 1.384 . S
C380 H371 0.929 . S
C380 C372 1.378 . S
C380 C375 1.350 . S
C381 H368 0.929 . S
C381 C373 1.433 . S
C381 N383 1.384 . S
N382 C378 1.427 . S
N382 C379 1.384 . S
N383 C375 1.427 . S
N383 C381 1.384 . S
H384 C390 0.930 . S
H385 C394 0.930 . S
H386 C399 0.929 . S
H387 C397 0.929 . S
H388 C392 0.929 . S
H389 C398 0.929 . S
C390 H384 0.930 . S
C390 C391 1.367 . S
C390 C398 1.378 . S
C391 C390 1.367 . S
C391 C399 1.433 . S
C392 H388 0.929 . S
C392 C394 1.378 . S
C392 C396 1.350 . S
C393 C396 1.463 1_655 S
C393 C398 1.350 . S
C393 N401 1.427 . S
C394 H385 0.930 . S
C394 C392 1.378 . S
C394 C395 1.367 . S
C395 C394 1.367 . S
C395 C397 1.433 . S
C396 C392 1.350 . S
C396 C393 1.463 1_455 S
C396 N400 1.427 . S
C397 H387 0.929 . S
C397 C395 1.433 . S
C397 N400 1.384 . S
C398 H389 0.929 . S
C398 C390 1.378 . S
C398 C393 1.350 . S
C399 H386 0.929 . S
C399 C391 1.433 . S
C399 N401 1.384 . S
N400 C396 1.427 . S
N400 C397 1.384 . S
N401 C393 1.427 . S
N401 C399 1.384 . S
H402 C408 0.930 . S
H403 C412 0.930 . S
H404 C417 0.929 . S
H405 C415 0.929 . S
H406 C410 0.929 . S
H407 C416 0.929 . S
C408 H402 0.930 . S
C408 C409 1.367 . S
C408 C416 1.378 . S
C409 C408 1.367 . S
C409 C417 1.433 . S
C410 H406 0.929 . S
C410 C412 1.378 . S
C410 C414 1.350 . S
C411 C414 1.463 1_565 S
C411 C416 1.350 . S
C411 N419 1.427 . S
C412 H403 0.930 . S
C412 C410 1.378 . S
C412 C413 1.367 . S
C413 C412 1.367 . S
C413 C415 1.433 . S
C414 C410 1.350 . S
C414 C411 1.463 1_545 S
C414 N418 1.427 . S
C415 H405 0.929 . S
C415 C413 1.433 . S
C415 N418 1.384 . S
C416 H407 0.929 . S
C416 C408 1.378 . S
C416 C411 1.350 . S
C417 H404 0.929 . S
C417 C409 1.433 . S
C417 N419 1.384 . S
N418 C414 1.427 . S
N418 C415 1.384 . S
N419 C411 1.427 . S
N419 C417 1.384 . S
H420 C426 0.930 . S
H421 C430 0.930 . S
H422 C435 0.929 . S
H423 C433 0.929 . S
H424 C428 0.929 . S
H425 C434 0.929 . S
C426 H420 0.930 . S
C426 C427 1.367 . S
C426 C434 1.378 . S
C427 C426 1.367 . S
C427 C435 1.433 . S
C428 H424 0.929 . S
C428 C430 1.378 . S
C428 C432 1.350 . S
C429 C432 1.463 . S
C429 C434 1.350 . S
C429 N437 1.427 . S
C430 H421 0.930 . S
C430 C428 1.378 . S
C430 C431 1.367 . S
C431 C430 1.367 . S
C431 C433 1.433 . S
C432 C428 1.350 . S
C432 C429 1.463 . S
C432 N436 1.427 . S
C433 H423 0.929 . S
C433 C431 1.433 . S
C433 N436 1.384 . S
C434 H425 0.929 . S
C434 C426 1.378 . S
C434 C429 1.350 . S
C435 H422 0.929 . S
C435 C427 1.433 . S
C435 N437 1.384 . S
N436 C432 1.427 . S
N436 C433 1.384 . S
N437 C429 1.427 . S
N437 C435 1.384 . S
H438 C444 0.930 . S
H439 C448 0.930 . S
H440 C453 0.929 . S
H441 C451 0.929 . S
H442 C446 0.929 . S
H443 C452 0.929 . S
C444 H438 0.930 . S
C444 C445 1.367 . S
C444 C452 1.378 . S
C445 C444 1.367 . S
C445 C453 1.433 . S
C446 H442 0.929 . S
C446 C448 1.378 . S
C446 C450 1.350 . S
C447 C450 1.463 1_455 S
C447 C452 1.350 . S
C447 N455 1.427 . S
C448 H439 0.930 . S
C448 C446 1.378 . S
C448 C449 1.367 . S
C449 C448 1.367 . S
C449 C451 1.433 . S
C450 C446 1.350 . S
C450 C447 1.463 1_655 S
C450 N454 1.427 . S
C451 H441 0.929 . S
C451 C449 1.433 . S
C451 N454 1.384 . S
C452 H443 0.929 . S
C452 C444 1.378 . S
C452 C447 1.350 . S
C453 H440 0.929 . S
C453 C445 1.433 . S
C453 N455 1.384 . S
N454 C450 1.427 . S
N454 C451 1.384 . S
N455 C447 1.427 . S
N455 C453 1.384 . S
H456 C462 0.930 . S
H457 C466 0.930 . S
H458 C471 0.929 . S
H459 C469 0.929 . S
H460 C464 0.929 . S
H461 C470 0.929 . S
C462 H456 0.930 . S
C462 C463 1.367 . S
C462 C470 1.378 1_556 S
C463 C462 1.367 . S
C463 C471 1.433 . S
C464 H460 0.929 . S
C464 C466 1.378 1_556 S
C464 C468 1.350 1_556 S
C465 C468 1.463 1_546 S
C465 C470 1.350 1_556 S
C465 N473 1.427 . S
C466 H457 0.930 . S
C466 C464 1.378 1_554 S
C466 C467 1.367 . S
C467 C466 1.367 . S
C467 C469 1.433 . S
C468 C464 1.350 1_554 S
C468 C465 1.463 1_564 S
C468 N472 1.427 . S
C469 H459 0.929 . S
C469 C467 1.433 . S
C469 N472 1.384 . S
C470 H461 0.929 . S
C470 C462 1.378 1_554 S
C470 C465 1.350 1_554 S
C471 H458 0.929 . S
C471 C463 1.433 . S
C471 N473 1.384 . S
N472 C468 1.427 . S
N472 C469 1.384 . S
N473 C465 1.427 . S
N473 C471 1.384 . S
H474 C480 0.930 . S
H475 C484 0.930 . S
H476 C489 0.929 . S
H477 C487 0.929 . S
H478 C482 0.929 . S
H479 C488 0.929 . S
C480 H474 0.930 . S
C480 C481 1.367 . S
C480 C488 1.378 . S
C481 C480 1.367 . S
C481 C489 1.433 . S
C482 H478 0.929 . S
C482 C484 1.378 . S
C482 C486 1.350 . S
C483 C486 1.463 . S
C483 C488 1.350 . S
C483 N491 1.427 . S
C484 H475 0.930 . S
C484 C482 1.378 . S
C484 C485 1.367 . S
C485 C484 1.367 . S
C485 C487 1.433 . S
C486 C482 1.350 . S
C486 C483 1.463 . S
C486 N490 1.427 . S
C487 H477 0.929 . S
C487 C485 1.433 . S
C487 N490 1.384 . S
C488 H479 0.929 . S
C488 C480 1.378 . S
C488 C483 1.350 . S
C489 H476 0.929 . S
C489 C481 1.433 . S
C489 N491 1.384 . S
N490 C486 1.427 . S
N490 C487 1.384 . S
N491 C483 1.427 . S
N491 C489 1.384 . S
H492 C498 0.930 . S
H493 C502 0.930 . S
H494 C507 0.929 . S
H495 C505 0.929 . S
H496 C500 0.929 . S
H497 C506 0.929 . S
C498 H492 0.930 . S
C498 C499 1.367 . S
C498 C506 1.378 . S
C499 C498 1.367 . S
C499 C507 1.433 . S
C500 H496 0.929 . S
C500 C502 1.378 . S
C500 C504 1.350 . S
C501 C504 1.463 . S
C501 C506 1.350 . S
C501 N509 1.427 . S
C502 H493 0.930 . S
C502 C500 1.378 . S
C502 C503 1.367 . S
C503 C502 1.367 . S
C503 C505 1.433 . S
C504 C500 1.350 . S
C504 C501 1.463 . S
C504 N508 1.427 . S
C505 H495 0.929 . S
C505 C503 1.433 . S
C505 N508 1.384 . S
C506 H497 0.929 . S
C506 C498 1.378 . S
C506 C501 1.350 . S
C507 H494 0.929 . S
C507 C499 1.433 . S
C507 N509 1.384 . S
N508 C504 1.427 . S
N508 C505 1.384 . S
N509 C501 1.427 . S
N509 C507 1.384 . S
H510 C516 0.930 . S
H511 C520 0.930 . S
H512 C525 0.929 . S
H513 C523 0.929 . S
H514 C518 0.929 . S
H515 C524 0.929 . S
C516 H510 0.930 . S
C516 C517 1.367 . S
C516 C524 1.378 . S
C517 C516 1.367 . S
C517 C525 1.433 . S
C518 H514 0.929 . S
C518 C520 1.378 . S
C518 C522 1.350 . S
C519 C522 1.463 . S
C519 C524 1.350 . S
C519 N527 1.427 . S
C520 H511 0.930 . S
C520 C518 1.378 . S
C520 C521 1.367 . S
C521 C520 1.367 . S
C521 C523 1.433 . S
C522 C518 1.350 . S
C522 C519 1.463 . S
C522 N526 1.427 . S
C523 H513 0.929 . S
C523 C521 1.433 . S
C523 N526 1.384 . S
C524 H515 0.929 . S
C524 C516 1.378 . S
C524 C519 1.350 . S
C525 H512 0.929 . S
C525 C517 1.433 . S
C525 N527 1.384 . S
N526 C522 1.427 . S
N526 C523 1.384 . S
N527 C519 1.427 . S
N527 C525 1.384 . S
H528 C534 0.930 . S
H529 C538 0.930 . S
H530 C543 0.929 . S
H531 C541 0.929 . S
H532 C536 0.929 . S
H533 C542 0.929 . S
C534 H528 0.930 . S
C534 C535 1.367 . S
C534 C542 1.378 . S
C535 C534 1.367 . S
C535 C543 1.433 . S
C536 H532 0.929 . S
C536 C538 1.378 . S
C536 C540 1.350 . S
C537 C540 1.463 . S
C537 C542 1.350 . S
C537 N545 1.427 . S
C538 H529 0.930 . S
C538 C536 1.378 . S
C538 C539 1.367 . S
C539 C538 1.367 . S
C539 C541 1.433 . S
C540 C536 1.350 . S
C540 C537 1.463 . S
C540 N544 1.427 . S
C541 H531 0.929 . S
C541 C539 1.433 . S
C541 N544 1.384 . S
C542 H533 0.929 . S
C542 C534 1.378 . S
C542 C537 1.350 . S
C543 H530 0.929 . S
C543 C535 1.433 . S
C543 N545 1.384 . S
N544 C540 1.427 . S
N544 C541 1.384 . S
N545 C537 1.427 . S
N545 C543 1.384 . S
H546 C552 0.930 . S
H547 C556 0.930 . S
H548 C561 0.929 . S
H549 C559 0.929 . S
H550 C554 0.929 . S
H551 C560 0.929 . S
C552 H546 0.930 . S
C552 C553 1.367 . S
C552 C560 1.378 . S
C553 C552 1.367 . S
C553 C561 1.433 . S
C554 H550 0.929 . S
C554 C556 1.378 . S
C554 C558 1.350 . S
C555 C558 1.463 . S
C555 C560 1.350 . S
C555 N563 1.427 . S
C556 H547 0.930 . S
C556 C554 1.378 . S
C556 C557 1.367 . S
C557 C556 1.367 . S
C557 C559 1.433 . S
C558 C554 1.350 . S
C558 C555 1.463 . S
C558 N562 1.427 . S
C559 H549 0.929 . S
C559 C557 1.433 . S
C559 N562 1.384 . S
C560 H551 0.929 . S
C560 C552 1.378 . S
C560 C555 1.350 . S
C561 H548 0.929 . S
C561 C553 1.433 . S
C561 N563 1.384 . S
N562 C558 1.427 . S
N562 C559 1.384 . S
N563 C555 1.427 . S
N563 C561 1.384 . S
H564 C570 0.930 . S
H565 C574 0.930 . S
H566 C579 0.929 1_554 S
H567 C577 0.929 . S
H568 C572 0.929 . S
H569 C578 0.929 . S
C570 H564 0.930 . S
C570 C571 1.367 . S
C570 C578 1.378 . S
C571 C570 1.367 . S
C571 C579 1.433 . S
C572 H568 0.929 . S
C572 C574 1.378 . S
C572 C576 1.350 . S
C573 C576 1.463 . S
C573 C578 1.350 . S
C573 N581 1.427 . S
C574 H565 0.930 . S
C574 C572 1.378 . S
C574 C575 1.367 . S
C575 C574 1.367 . S
C575 C577 1.433 . S
C576 C572 1.350 . S
C576 C573 1.463 . S
C576 N580 1.427 . S
C577 H567 0.929 . S
C577 C575 1.433 . S
C577 N580 1.384 . S
C578 H569 0.929 . S
C578 C570 1.378 . S
C578 C573 1.350 . S
C579 H566 0.929 1_556 S
C579 C571 1.433 . S
C579 N581 1.384 . S
N580 C576 1.427 . S
N580 C577 1.384 . S
N581 C573 1.427 . S
N581 C579 1.384 . S
H582 C588 0.930 . S
H583 C592 0.930 1_556 S
H584 C597 0.929 . S
H585 C595 0.929 . S
H586 C590 0.929 . S
H587 C596 0.929 . S
C588 H582 0.930 . S
C588 C589 1.367 . S
C588 C596 1.378 . S
C589 C588 1.367 . S
C589 C597 1.433 . S
C590 H586 0.929 . S
C590 C592 1.378 . S
C590 C594 1.350 . S
C591 C594 1.463 . S
C591 C596 1.350 . S
C591 N599 1.427 . S
C592 H583 0.930 1_554 S
C592 C590 1.378 . S
C592 C593 1.367 . S
C593 C592 1.367 . S
C593 C595 1.433 . S
C594 C590 1.350 . S
C594 C591 1.463 . S
C594 N598 1.427 . S
C595 H585 0.929 . S
C595 C593 1.433 . S
C595 N598 1.384 . S
C596 H587 0.929 . S
C596 C588 1.378 . S
C596 C591 1.350 . S
C597 H584 0.929 . S
C597 C589 1.433 . S
C597 N599 1.384 . S
N598 C594 1.427 . S
N598 C595 1.384 . S
N599 C591 1.427 . S
N599 C597 1.384 . S
C175 C9 0.780 . S
C179 C93 0.792 . S
C193 C23 0.801 . S
C197 C107 0.793 . S
C211 C121 0.803 . S
C215 C37 0.780 . S
C229 C51 0.791 . S
C233 C135 0.780 . S
C247 C65 0.800 . S
C251 C149 0.794 . S
C265 C163 0.790 . S
C269 C79 0.803 . S
C283 C119 1.473 . S
C287 C7 1.460 . S
C301 C21 1.478 . S
C305 C133 1.473 . S
C319 C147 1.465 1_556 S
C323 C35 1.461 . S
C337 C161 1.477 . S
C341 C49 1.463 1_554 S
C355 C63 1.479 . S
C359 C91 1.469 . S
C373 C77 1.459 . S
C377 C105 1.471 . S
C391 C162 1.363 . S
C395 C8 1.364 . S
C409 C92 1.365 . S
C413 C22 1.364 . S
C427 C36 1.363 . S
C431 C106 1.363 . S
C445 C120 1.366 . S
C449 C50 1.366 . S
C463 C134 1.363 . S
C467 C64 1.364 . S
C481 C148 1.365 . S
C485 C78 1.366 . S
C499 C3 1.515 . S
C503 C143 1.504 . S
C517 C157 1.502 . S
C521 C17 1.506 . S
C535 C31 1.501 . S
C539 C87 1.510 . S
C553 C45 1.501 . S
C557 C101 1.511 . S
C571 C59 1.509 1_556 S
C575 C115 1.501 . S
C589 C73 1.505 . S
C593 C129 1.515 1_554 S
