# Generated by pormake.
# Topology wjf, (4)-cn, num edge types: 1
# Building blocks:
#     Node 0, Type 0, BuildingBlock: AZAVOO_clean_sbu_0, # of connection points: 4
#     Node 1, Type 0, BuildingBlock: AZAVOO_clean_sbu_0, # of connection points: 4
#     Node 2, Type 0, BuildingBlock: AZAVOO_clean_sbu_0, # of connection points: 4
#     Node 3, Type 0, BuildingBlock: AZAVOO_clean_sbu_0, # of connection points: 4
#     Node 4, Type 0, BuildingBlock: AZAVOO_clean_sbu_0, # of connection points: 4
#     Node 5, Type 0, BuildingBlock: AZAVOO_clean_sbu_0, # of connection points: 4
#     Node 6, Type 0, BuildingBlock: AZAVOO_clean_sbu_0, # of connection points: 4
#     Node 7, Type 0, BuildingBlock: AZAVOO_clean_sbu_0, # of connection points: 4
#     Node 8, Type 0, BuildingBlock: AZAVOO_clean_sbu_0, # of connection points: 4
#     Node 9, Type 0, BuildingBlock: AZAVOO_clean_sbu_0, # of connection points: 4
#     Node 10, Type 0, BuildingBlock: AZAVOO_clean_sbu_0, # of connection points: 4
#     Node 11, Type 0, BuildingBlock: AZAVOO_clean_sbu_0, # of connection points: 4
#     Edge 12, Type (0, 0), BuildingBlock: EZIPEK_clean_linker_0, # of connection points: 2
#     Edge 13, Type (0, 0), BuildingBlock: EZIPEK_clean_linker_0, # of connection points: 2
#     Edge 14, Type (0, 0), BuildingBlock: EZIPEK_clean_linker_0, # of connection points: 2
#     Edge 15, Type (0, 0), BuildingBlock: EZIPEK_clean_linker_0, # of connection points: 2
#     Edge 16, Type (0, 0), BuildingBlock: EZIPEK_clean_linker_0, # of connection points: 2
#     Edge 17, Type (0, 0), BuildingBlock: EZIPEK_clean_linker_0, # of connection points: 2
#     Edge 18, Type (0, 0), BuildingBlock: EZIPEK_clean_linker_0, # of connection points: 2
#     Edge 19, Type (0, 0), BuildingBlock: EZIPEK_clean_linker_0, # of connection points: 2
#     Edge 20, Type (0, 0), BuildingBlock: EZIPEK_clean_linker_0, # of connection points: 2
#     Edge 21, Type (0, 0), BuildingBlock: EZIPEK_clean_linker_0, # of connection points: 2
#     Edge 22, Type (0, 0), BuildingBlock: EZIPEK_clean_linker_0, # of connection points: 2
#     Edge 23, Type (0, 0), BuildingBlock: EZIPEK_clean_linker_0, # of connection points: 2
#     Edge 24, Type (0, 0), BuildingBlock: EZIPEK_clean_linker_0, # of connection points: 2
#     Edge 25, Type (0, 0), BuildingBlock: EZIPEK_clean_linker_0, # of connection points: 2
#     Edge 26, Type (0, 0), BuildingBlock: EZIPEK_clean_linker_0, # of connection points: 2
#     Edge 27, Type (0, 0), BuildingBlock: EZIPEK_clean_linker_0, # of connection points: 2
#     Edge 28, Type (0, 0), BuildingBlock: EZIPEK_clean_linker_0, # of connection points: 2
#     Edge 29, Type (0, 0), BuildingBlock: EZIPEK_clean_linker_0, # of connection points: 2
#     Edge 30, Type (0, 0), BuildingBlock: EZIPEK_clean_linker_0, # of connection points: 2
#     Edge 31, Type (0, 0), BuildingBlock: EZIPEK_clean_linker_0, # of connection points: 2
#     Edge 32, Type (0, 0), BuildingBlock: EZIPEK_clean_linker_0, # of connection points: 2
#     Edge 33, Type (0, 0), BuildingBlock: EZIPEK_clean_linker_0, # of connection points: 2
#     Edge 34, Type (0, 0), BuildingBlock: EZIPEK_clean_linker_0, # of connection points: 2
#     Edge 35, Type (0, 0), BuildingBlock: EZIPEK_clean_linker_0, # of connection points: 2
# Relax obj value: 0.271
# Max RMSD: 0.299
# Mean RMSD: 0.282
data_MOF--net-wjf--node1-AZAVOO_clean_sbu_0--edge1-EZIPEK_clean_linker_0
_symmetry_space_group_name_H-M    P1
_symmetry_Int_Tables_number       1
_symmetry_cell_setting            triclinic
loop_
_symmetry_equiv_pos_as_xyz
'x, y, z'
_cell_length_a     36.851822
_cell_length_b     38.18579
_cell_length_c     18.642396
_cell_angle_alpha  90.268356
_cell_angle_beta   89.942663
_cell_angle_gamma 119.34696
loop_
_atom_site_label
_atom_site_type_symbol
_atom_site_fract_x
_atom_site_fract_y
_atom_site_fract_z
_atom_type_partial_charge
Mg0 Mg 0.32317 0.37767 0.17855 0.0
O1 O 0.33311 0.35413 0.07239 0.0
O2 O 0.38526 0.34042 0.08138 0.0
Mg3 Mg 0.41205 0.35977 0.1949 0.0
C4 C 0.35641 0.34159 0.04553 0.0
C5 C 0.25867 0.37951 0.07559 0.0
O6 O 0.29384 0.40252 0.04224 0.0
O7 O 0.29602 0.31614 0.2329 0.0
O8 O 0.35311 0.31114 0.24974 0.0
O9 O 0.36831 0.44113 0.14527 0.0
O10 O 0.38637 0.40129 0.201 0.0
C11 C 0.31416 0.29785 0.25912 0.0
C12 C 0.39757 0.43514 0.17017 0.0
O13 O 0.25947 0.36472 0.13624 0.0
Mg14 Mg 0.89378 0.30559 0.40915 0.0
O15 O 0.93595 0.31825 0.31192 0.0
O16 O 0.00103 0.3646 0.33952 0.0
Mg17 Mg -0.00082 0.3856 0.45433 0.0
C18 C 0.97398 0.3405 0.29492 0.0
C19 C 0.80846 0.24331 0.34478 0.0
O20 O 0.79755 0.26585 0.38239 0.0
O21 O 0.92235 0.2727 0.47184 0.0
O22 O 0.98325 0.32507 0.50348 0.0
O23 O 0.88018 0.35373 0.37133 0.0
O24 O 0.93189 0.36444 0.44418 0.0
C25 C 0.95673 0.28766 0.50663 0.0
C26 C 0.91326 0.37884 0.40605 0.0
O27 O 0.8456 0.2496 0.34948 0.0
Mg28 Mg 0.66129 0.98068 0.73072 0.0
O29 O 0.60964 -0.00369 0.75057 0.0
O30 O 0.56949 0.98081 0.65293 0.0
Mg31 Mg 0.59404 0.95497 0.56747 0.0
C32 C 0.57925 -0.00482 0.7162 0.0
C33 C 0.73196 0.96632 0.77515 0.0
O34 O 0.76217 0.95747 0.7733 0.0
O35 O 0.61693 0.91253 0.73593 0.0
O36 O 0.58032 0.90034 0.63411 0.0
O37 O 0.70058 0.0406 0.66868 0.0
O38 O 0.65589 0.98487 0.61789 0.0
C39 C 0.59043 0.88828 0.69047 0.0
C40 C 0.68219 0.02169 0.61129 0.0
O41 O 0.7135 0.96619 0.71755 0.0
Mg42 Mg 0.65344 0.58847 0.16793 0.0
O43 O 0.65012 0.627 0.07797 0.0
O44 O 0.60489 0.64706 0.1072 0.0
Mg45 Mg 0.57823 0.62095 0.21762 0.0
C46 C 0.63141 0.6467 0.06373 0.0
C47 C 0.74455 0.59907 0.14011 0.0
O48 O 0.75058 0.60716 0.20901 0.0
O49 O 0.69157 0.64366 0.24052 0.0
O50 O 0.64175 0.65787 0.27198 0.0
O51 O 0.59962 0.53405 0.11872 0.0
O52 O 0.59297 0.57221 0.20142 0.0
C53 C 0.67916 0.66437 0.27674 0.0
C54 C 0.57574 0.54208 0.15829 0.0
O55 O 0.71026 0.59181 0.1115 0.0
Mg56 Mg 0.05242 0.62508 0.43113 0.0
O57 O 0.04294 0.64039 0.318 0.0
O58 O 0.9751 0.61545 0.29761 0.0
Mg59 Mg 0.94109 0.58468 0.402 0.0
C60 C 0.01289 0.63402 0.27665 0.0
C61 C 0.1467 0.66562 0.38002 0.0
O62 O 0.13497 0.63085 0.34855 0.0
O63 O 0.03885 0.67215 0.48053 0.0
O64 O 0.96996 0.64296 0.47027 0.0
O65 O 0.04478 0.56647 0.3924 0.0
O66 O 0.99306 0.57464 0.43375 0.0
C67 C 0.00453 0.67165 0.49337 0.0
C68 C 0.00555 0.55138 0.40661 0.0
O69 O 0.12094 0.67072 0.41804 0.0
Mg70 Mg 0.39158 0.07061 0.79688 0.0
O71 O 0.44754 0.05983 0.79767 0.0
O72 O 0.48019 0.081 0.69273 0.0
Mg73 Mg 0.44796 0.10805 0.62655 0.0
C74 C 0.47602 0.0644 0.75372 0.0
C75 C 0.3699 0.01902 0.93285 0.0
O76 O 0.36563 -0.00623 0.88125 0.0
O77 O 0.43301 0.1377 0.81759 0.0
O78 O 0.46213 0.15723 0.70978 0.0
O79 O 0.35278 0.0119 0.7379 0.0
O80 O 0.39028 0.07025 0.68451 0.0
C81 C 0.45646 0.16533 0.77404 0.0
C82 C 0.36647 0.03222 0.67932 0.0
O83 O 0.3824 0.05551 0.917 0.0
Mg84 Mg 0.57682 0.65864 0.61358 0.0
O85 O 0.60369 0.66359 0.72463 0.0
O86 O 0.62543 0.61871 0.7358 0.0
Mg87 Mg 0.6128 0.58534 0.62766 0.0
C88 C 0.61923 0.64633 0.76171 0.0
C89 C 0.55444 0.72299 0.67673 0.0
O90 O 0.52342 0.69176 0.70742 0.0
O91 O 0.64098 0.68964 0.56071 0.0
O92 O 0.6582 0.64137 0.56321 0.0
O93 O 0.51446 0.61083 0.65228 0.0
O94 O 0.56234 0.59899 0.60391 0.0
C95 C 0.66569 0.67638 0.54383 0.0
C96 C 0.52638 0.58542 0.63309 0.0
O97 O 0.57942 0.71813 0.63612 0.0
Mg98 Mg 0.93871 0.59697 0.86645 0.0
O99 O 0.98251 0.63054 0.95822 0.0
O100 O 0.04707 0.64569 0.93048 0.0
Mg101 Mg 0.04448 0.6205 0.81732 0.0
C102 C 0.0209 0.64637 0.97436 0.0
C103 C 0.85935 0.57957 0.95327 0.0
O104 O 0.85284 0.54282 0.94373 0.0
O105 O 0.96214 0.65357 0.79716 0.0
O106 O 0.02441 0.6626 0.76515 0.0
O107 O 0.93112 0.53944 0.91248 0.0
O108 O 0.97816 0.57552 0.83082 0.0
C109 C 0.99589 0.67239 0.76134 0.0
C110 C 0.96242 0.54512 0.87295 0.0
O111 O 0.89103 0.6087 0.92472 0.0
Mg112 Mg 0.3012 0.90489 0.30474 0.0
O113 O 0.36673 0.92458 0.25853 0.0
O114 O 0.40431 0.92088 0.34918 0.0
Mg115 Mg 0.36499 0.90032 0.45123 0.0
C116 C 0.40106 0.92952 0.2843 0.0
C117 C 0.276 0.90709 0.13173 0.0
O118 O 0.24751 0.88744 0.08271 0.0
O119 O 0.28301 0.8392 0.31432 0.0
O120 O 0.31977 0.83709 0.40789 0.0
O121 O 0.32027 0.96838 0.33954 0.0
O122 O 0.32561 0.92347 0.40599 0.0
C123 C 0.29153 0.81965 0.36029 0.0
C124 C 0.33017 0.95882 0.4002 0.0
O125 O 0.27071 0.89214 0.19412 0.0
Mg126 Mg 0.41509 0.33851 0.60547 0.0
O127 O 0.38221 0.33408 0.71116 0.0
O128 O 0.34027 0.3606 0.70067 0.0
Mg129 Mg 0.35083 0.38714 0.58752 0.0
C130 C 0.35584 0.34301 0.73722 0.0
C131 C 0.45083 0.3021 0.7112 0.0
O132 O 0.45922 0.33585 0.74358 0.0
O133 O 0.35527 0.29045 0.5513 0.0
O134 O 0.32221 0.32525 0.53276 0.0
O135 O 0.46835 0.39722 0.63868 0.0
O136 O 0.41246 0.39069 0.58339 0.0
C137 C 0.32507 0.29346 0.52404 0.0
C138 C 0.44741 0.41373 0.61469 0.0
O139 O 0.43284 0.29359 0.65024 0.0
Mg140 Mg 0.05681 0.38723 0.8518 0.0
O141 O 0.02549 0.36315 0.96003 0.0
O142 O 0.95762 0.34299 0.95048 0.0
Mg143 Mg 0.94676 0.35983 0.83757 0.0
C144 C 0.98911 0.34785 0.98681 0.0
C145 C 0.10938 0.35274 0.92757 0.0
O146 O 0.07246 0.32146 0.93785 0.0
O147 O 0.02591 0.32501 0.79692 0.0
O148 O 0.96151 0.31472 0.78108 0.0
O149 O 0.07093 0.44922 0.88551 0.0
O150 O 0.01314 0.40566 0.83079 0.0
C151 C 0.98928 0.3044 0.77066 0.0
C152 C 0.03438 0.44011 0.86155 0.0
O153 O 0.11294 0.38251 0.89174 0.0
Mg154 Mg 0.66972 0.04803 0.17459 0.0
O155 O 0.59746 0.02255 0.17659 0.0
O156 O 0.58166 0.05557 0.26027 0.0
Mg157 Mg 0.64297 0.10915 0.29744 0.0
C158 C 0.57093 0.0274 0.21389 0.0
C159 C 0.69854 0.0119 0.05341 0.0
O160 O 0.73083 0.02722 0.09673 0.0
O161 O 0.68683 0.10459 0.1073 0.0
O162 O 0.64969 0.11774 0.17874 0.0
O163 O 0.66505 0.01026 0.27061 0.0
O164 O 0.67369 0.07142 0.28111 0.0
C165 C 0.6845 0.12983 0.14849 0.0
C166 C 0.66949 0.03956 0.31162 0.0
O167 O 0.66603 0.01342 0.0714 0.0
C168 C 0.26238 0.26924 0.35956 0.0
C169 C 0.29346 0.26753 0.31746 0.0
C170 C 0.31633 0.24603 0.4233 0.0
C171 C 0.29916 0.2652 0.46549 0.0
N172 N 0.24128 0.27686 0.4801 0.0
N173 N 0.33542 0.23591 0.30272 0.0
C174 C 0.26638 0.26979 0.43559 0.0
C175 C 0.31494 0.24875 0.34728 0.0
N176 N 0.23016 0.27073 0.32667 0.0
N177 N 0.33387 0.22611 0.45608 0.0
H178 H 0.33234 0.23631 0.24705 0.0
H179 H 0.35487 0.22511 0.32029 0.0
H180 H 0.33205 0.22206 0.51159 0.0
H181 H 0.34634 0.21067 0.42868 0.0
H182 H 0.20579 0.27123 0.354 0.0
H183 H 0.2262 0.26754 0.27111 0.0
H184 H 0.21899 0.28409 0.46249 0.0
H185 H 0.24337 0.27524 0.53577 0.0
C186 C 0.00473 0.27828 0.58883 0.0
C187 C 0.96332 0.26483 0.56553 0.0
C188 C 0.93908 0.24944 0.68917 0.0
C189 C 0.98082 0.27426 0.712 0.0
N190 N 0.05117 0.28912 0.68972 0.0
N191 N 0.89172 0.21693 0.58871 0.0
C192 C 0.01315 0.28066 0.66377 0.0
C193 C 0.93045 0.24293 0.61425 0.0
N194 N 0.03574 0.29124 0.53907 0.0
N195 N 0.9082 0.23428 0.73927 0.0
H196 H 0.88639 0.21018 0.53413 0.0
H197 H 0.86636 0.19918 0.62123 0.0
H198 H 0.91511 0.23751 0.79407 0.0
H199 H 0.87659 0.21909 0.72703 0.0
H200 H 0.06728 0.30544 0.55184 0.0
H201 H 0.02904 0.28803 0.48419 0.0
H202 H 0.07582 0.29281 0.65734 0.0
H203 H 0.05617 0.28784 0.74452 0.0
C204 C 0.69253 0.94762 0.89161 0.0
C205 C 0.72038 0.97783 0.84402 0.0
C206 C 0.73058 0.03031 0.93112 0.0
C207 C 0.70323 0.00012 0.97934 0.0
N208 N 0.6528 0.93111 1.00269 0.0
N209 N 0.75995 0.04759 0.81129 0.0
C210 C 0.68237 0.95904 0.9585 0.0
C211 C 0.73757 0.01911 0.86166 0.0
N212 N 0.67656 0.90805 0.87315 0.0
N213 N 0.75033 0.06973 0.95232 0.0
H214 H 0.76678 0.04057 0.7607 0.0
H215 H 0.76948 0.07798 0.8172 0.0
H216 H 0.74349 0.07957 1.00012 0.0
H217 H 0.77469 0.09274 0.92424 0.0
H218 H 0.65936 0.88419 0.90754 0.0
H219 H 0.68205 0.89881 0.82349 0.0
H220 H 0.63345 0.90121 0.98852 0.0
H221 H 0.64564 0.93839 0.05277 0.0
C222 C 0.69422 0.71956 0.36431 0.0
C223 C 0.70446 0.69068 0.33759 0.0
C224 C 0.72028 0.67878 0.4591 0.0
C225 C 0.69683 0.69662 0.48488 0.0
N226 N 0.68714 0.7539 0.46948 0.0
N227 N 0.75002 0.66315 0.35484 0.0
C228 C 0.6927 0.72418 0.43982 0.0
C229 C 0.72557 0.6772 0.38358 0.0
N230 N 0.6834 0.7401 0.31719 0.0
N231 N 0.73599 0.66272 0.50688 0.0
H232 H 0.75677 0.66575 0.30014 0.0
H233 H 0.76672 0.65299 0.38498 0.0
H234 H 0.73475 0.66691 0.56207 0.0
H235 H 0.7504 0.64616 0.49245 0.0
H236 H 0.67145 0.75868 0.33248 0.0
H237 H 0.6862 0.7376 0.26185 0.0
H238 H 0.68529 0.77599 0.43976 0.0
H239 H 0.68877 0.75851 0.52492 0.0
C240 C 0.96283 0.69035 0.66038 0.0
C241 C -0.00102 0.69923 0.70053 0.0
C242 C 0.04053 0.72268 0.59123 0.0
C243 C 0.00363 0.69829 0.55212 0.0
N244 N 0.93151 0.67975 0.54117 0.0
N245 N 0.07297 0.74101 0.70952 0.0
C246 C 0.9651 0.68938 0.58404 0.0
C247 C 0.03832 0.72226 0.66745 0.0
N248 N 0.92719 0.68265 0.69539 0.0
N249 N 0.07689 0.74493 0.55511 0.0
H250 H 0.07053 0.74146 0.76534 0.0
H251 H 0.10326 0.7559 0.68991 0.0
H252 H 0.0774 0.7463 0.49912 0.0
H253 H 0.10521 0.76397 0.5797 0.0
H254 H 0.89905 0.67471 0.67012 0.0
H255 H 0.92707 0.6873 0.75059 0.0
H256 H 0.90169 0.67091 0.55996 0.0
H257 H 0.93462 0.68263 0.48548 0.0
C258 C 0.30518 0.97868 0.10153 0.0
C259 C 0.31219 0.94588 0.1117 0.0
C260 C 0.3726 0.97742 0.03263 0.0
C261 C 0.35812 0.00332 1.00708 0.0
N262 N 0.31258 0.03181 0.02232 0.0
N263 N 0.35474 0.915 0.09359 0.0
C264 C 0.32587 0.00594 0.04454 0.0
C265 C 0.3474 0.94617 0.08091 0.0
N266 N 0.27758 0.98258 0.14512 0.0
N267 N 0.40997 0.98244 1.0092 0.0
H268 H 0.33686 0.89213 0.12967 0.0
H269 H 0.37721 0.91101 0.06663 0.0
H270 H 0.4288 0.00553 0.97412 0.0
H271 H 0.42392 0.9666 0.02975 0.0
H272 H 0.27309 0.00746 0.14475 0.0
H273 H 0.26228 0.96239 0.18669 0.0
H274 H 0.28571 0.03113 0.04154 0.0
H275 H 0.32737 0.05316 0.98255 0.0
C276 C 0.17532 0.3488 0.93157 0.0
C277 C 0.14585 0.35636 0.96715 0.0
C278 C 0.19006 0.37898 0.0746 0.0
C279 C 0.2186 0.36947 0.04036 0.0
N280 N 0.23403 0.33702 0.94285 0.0
N281 N 0.12083 0.3716 0.0761 0.0
C282 C 0.21002 0.35204 0.97058 0.0
C283 C 0.15178 0.36903 0.03998 0.0
N284 N 0.17045 0.33908 0.86023 0.0
N285 N 0.20053 0.39968 0.13816 0.0
H286 H 0.09299 0.3661 0.052 0.0
H287 H 0.12131 0.37611 0.13131 0.0
H288 H 0.22851 0.40819 0.16479 0.0
H289 H 0.18318 0.4115 0.16159 0.0
H290 H 0.19329 0.33783 0.82916 0.0
H291 H 0.14452 0.33481 0.83077 0.0
H292 H 0.22702 0.32051 0.89537 0.0
H293 H 0.25886 0.33763 0.97072 0.0
C294 C 0.75946 0.2283 0.24071 0.0
C295 C 0.77965 0.21503 0.28965 0.0
C296 C 0.7495 0.1506 0.22557 0.0
C297 C 0.7222 0.16062 0.18776 0.0
N298 N 0.70109 0.20991 0.16097 0.0
N299 N 0.78862 0.16068 0.33512 0.0
C300 C 0.72718 0.19977 0.196 0.0
C301 C 0.77336 0.17542 0.28374 0.0
N302 N 0.77257 0.26838 0.23387 0.0
N303 N 0.75418 0.11863 0.20542 0.0
H304 H 0.80509 0.1773 0.37991 0.0
H305 H 0.78112 0.13061 0.33703 0.0
H306 H 0.74094 0.10165 0.15954 0.0
H307 H 0.77617 0.11252 0.22868 0.0
H308 H 0.76157 0.27992 0.19415 0.0
H309 H 0.79786 0.29058 0.26211 0.0
H310 H 0.69983 0.23604 0.17232 0.0
H311 H 0.67921 0.19129 0.12311 0.0
C312 C 0.58507 0.82861 0.62594 0.0
C313 C 0.57977 0.84539 0.69073 0.0
C314 C 0.55911 0.78127 0.75065 0.0
C315 C 0.55879 0.76362 0.68296 0.0
N316 N 0.5583 0.76871 0.55381 0.0
N317 N 0.55565 0.83557 0.81316 0.0
C318 C 0.56742 0.7867 0.61986 0.0
C319 C 0.56489 0.82109 0.75286 0.0
N320 N 0.60943 0.8526 0.57162 0.0
N321 N 0.55617 0.76119 0.81272 0.0
H322 H 0.55918 0.86436 0.81607 0.0
H323 H 0.5411 0.81781 0.85773 0.0
H324 H 0.55325 0.73265 0.81371 0.0
H325 H 0.56047 0.7744 0.86329 0.0
H326 H 0.61636 0.84107 0.52603 0.0
H327 H 0.62728 0.88376 0.57615 0.0
H328 H 0.56143 0.78461 0.50674 0.0
H329 H 0.54295 0.73758 0.54697 0.0
C330 C 0.79251 0.57088 0.11498 0.0
C331 C 0.77677 0.5968 0.09541 0.0
C332 C 0.81403 0.61055 0.98077 0.0
C333 C 0.83226 0.58711 1.00283 0.0
N334 N 0.84801 0.55499 0.09997 0.0
N335 N 0.78142 0.64935 0.01822 0.0
C336 C 0.82424 0.57024 0.07267 0.0
C337 C 0.79019 0.61907 0.03077 0.0
N338 N 0.77588 0.54533 0.1717 0.0
N339 N 0.81776 0.62319 0.91134 0.0
H340 H 0.76524 0.65733 0.05475 0.0
H341 H 0.7941 0.66924 0.97552 0.0
H342 H 0.83401 0.61678 0.8724 0.0
H343 H 0.80139 0.63673 0.89078 0.0
H344 H 0.78334 0.52292 0.18319 0.0
H345 H 0.75164 0.54368 0.20297 0.0
H346 H 0.84604 0.54593 0.15316 0.0
H347 H 0.87292 0.55564 0.0722 0.0
C348 C 0.21063 0.71905 0.4378 0.0
C349 C 0.19003 0.69918 0.37404 0.0
C350 C 0.24696 0.75182 0.30448 0.0
C351 C 0.26157 0.77596 0.36728 0.0
N352 N 0.25031 0.7835 0.49413 0.0
N353 N 0.18745 0.69796 0.24431 0.0
C354 C 0.24221 0.75973 0.43456 0.0
C355 C 0.2082 0.71542 0.30645 0.0
N356 N 0.19933 0.69927 0.50179 0.0
N357 N 0.27001 0.76386 0.24304 0.0
H358 H 0.15875 0.67171 0.24295 0.0
H359 H 0.19726 0.7113 0.19421 0.0
H360 H 0.29887 0.79002 0.24074 0.0
H361 H 0.26261 0.7459 0.19722 0.0
H362 H 0.21585 0.71147 0.54919 0.0
H363 H 0.17651 0.6691 0.50549 0.0
H364 H 0.23342 0.7731 0.54156 0.0
H365 H 0.26987 0.81443 0.49492 0.0
C366 C 0.44329 0.2181 0.82913 0.0
C367 C 0.47007 0.20833 0.79017 0.0
C368 C 0.49593 0.27029 0.7211 0.0
C369 C 0.46154 0.27384 0.74638 0.0
N370 N 0.40459 0.25433 0.82957 0.0
N371 N 0.5344 0.23346 0.72678 0.0
C372 C 0.4364 0.24932 0.8033 0.0
C373 C 0.50094 0.2377 0.74557 0.0
N374 N 0.42574 0.19844 0.8914 0.0
N375 N 0.52236 0.29696 0.6717 0.0
H376 H 0.53816 0.20995 0.74699 0.0
H377 H 0.55945 0.25415 0.69659 0.0
H378 H 0.52009 0.32188 0.65507 0.0
H379 H 0.54602 0.29433 0.64621 0.0
H380 H 0.40779 0.20578 0.92482 0.0
H381 H 0.43397 0.17841 0.91422 0.0
H382 H 0.38225 0.23442 0.86508 0.0
H383 H 0.39911 0.27736 0.81284 0.0
C384 C 0.37742 0.37705 0.85519 0.0
C385 C 0.35149 0.3416 0.81603 0.0
C386 C 0.32716 0.30441 0.92892 0.0
C387 C 0.35691 0.33898 0.96656 0.0
N388 N 0.41782 0.40478 0.96258 0.0
N389 N 0.30473 0.27019 0.81375 0.0
C390 C 0.3843 0.37422 0.92881 0.0
C391 C 0.32722 0.30472 0.85234 0.0
N392 N 0.39497 0.41377 0.82277 0.0
N393 N 0.29881 0.2717 0.96625 0.0
H394 H 0.30292 0.26998 0.75786 0.0
H395 H 0.28985 0.24175 0.83677 0.0
H396 H 0.29924 0.27029 0.02213 0.0
H397 H 0.27368 0.24711 0.94222 0.0
H398 H 0.41025 0.4407 0.85139 0.0
H399 H 0.39124 0.41767 0.76854 0.0
H400 H 0.44145 0.42879 0.93485 0.0
H401 H 0.42435 0.40426 0.01682 0.0
C402 C 0.98231 0.31067 0.17913 0.0
C403 C 0.98446 0.34386 0.21754 0.0
C404 C 0.98463 0.37626 0.10469 0.0
C405 C 0.98548 0.34466 0.06589 0.0
N406 N 0.99123 0.28452 0.0651 0.0
N407 N -0.00045 0.41313 0.21583 0.0
C408 C 0.98641 0.31271 0.10284 0.0
C409 C 0.98955 0.37822 0.18006 0.0
N410 N 0.97584 0.27714 0.21557 0.0
N411 N 0.97765 0.4039 0.07009 0.0
H412 H 0.00231 0.41631 0.2713 0.0
H413 H 0.00875 0.44026 0.18961 0.0
H414 H 0.97435 0.40438 0.01469 0.0
H415 H 0.97138 0.42431 0.09711 0.0
H416 H 0.96938 0.25026 0.19055 0.0
H417 H 0.9751 0.27576 0.27149 0.0
H418 H 0.99647 0.26284 0.08912 0.0
H419 H 0.99241 0.28435 1.00917 0.0
C420 C 0.71802 0.04064 0.49306 0.0
C421 C 0.68768 0.0404 0.54009 0.0
C422 C 0.64542 0.03869 0.43838 0.0
C423 C 0.67538 0.03897 0.39027 0.0
N424 N 0.74461 0.04871 0.37149 0.0
N425 N 0.62783 0.04876 0.55797 0.0
C426 C 0.71319 0.04268 0.41753 0.0
C427 C 0.65377 0.0435 0.51252 0.0
N428 N 0.75022 0.03681 0.52067 0.0
N429 N 0.60729 0.03129 0.41579 0.0
H430 H 0.63429 0.05401 0.6127 0.0
H431 H 0.60182 0.05031 0.53998 0.0
H432 H 0.5968 0.0232 0.36321 0.0
H433 H 0.5968 0.0232 0.36321 0.0
H434 H 0.77051 0.03152 0.48953 0.0
H435 H 0.75549 0.03738 0.57579 0.0
H436 H 0.77435 0.05578 0.38839 0.0
H437 H 0.74199 0.04967 0.31593 0.0
C438 C 0.59388 0.65404 0.88306 0.0
C439 C 0.62659 0.65615 0.83931 0.0
C440 C 0.67041 0.66997 0.94633 0.0
C441 C 0.6359 0.66351 0.98958 0.0
N442 N 0.57729 0.67525 0.99461 0.0
N443 N 0.69951 0.67738 0.82619 0.0
C444 C 0.60154 0.66387 0.95673 0.0
C445 C 0.66618 0.66776 0.87004 0.0
N446 N 0.55471 0.64036 0.85607 0.0
N447 N 0.70715 0.67887 0.97875 0.0
H448 H 0.69734 0.67728 0.77039 0.0
H449 H 0.72984 0.68806 0.84416 0.0
H450 H 0.7122 0.68576 0.03337 0.0
H451 H 0.73259 0.68017 0.95222 0.0
H452 H 0.52929 0.63442 0.88851 0.0
H453 H 0.5464 0.63112 0.80316 0.0
H454 H 0.55342 0.67843 0.97109 0.0
H455 H 0.58541 0.68782 0.0458 0.0
C456 C 0.00684 0.66902 0.16664 0.0
C457 C 0.0222 0.64552 0.20005 0.0
C458 C 0.05703 0.64574 0.08799 0.0
C459 C 0.03262 0.65905 0.05074 0.0
N460 N 0.99027 0.69092 0.05514 0.0
N461 N 0.0584 0.60707 0.18844 0.0
C462 C 0.00966 0.67345 0.09059 0.0
C463 C 0.04684 0.63309 0.15999 0.0
N464 N 0.99061 0.68774 0.20767 0.0
N465 N 0.09031 0.64579 0.05573 0.0
H466 H 0.05006 0.59492 0.23962 0.0
H467 H 0.07256 0.59412 0.15807 0.0
H468 H 0.1017 0.65916 1.00618 0.0
H469 H 0.11044 0.63856 0.08296 0.0
H470 H 0.98193 0.70791 0.18737 0.0
H471 H 0.98916 0.68582 0.26351 0.0
H472 H 0.96858 0.69736 0.07876 0.0
H473 H 0.99566 0.69829 1.00084 0.0
C474 C 0.37898 0.9915 0.50137 0.0
C475 C 0.34285 0.98525 0.46425 0.0
C476 C 0.32299 0.01214 0.56788 0.0
C477 C 0.35622 0.01302 0.60774 0.0
N478 N 0.41349 -0.00123 0.61246 0.0
N479 N 0.27721 0.98526 0.46509 0.0
C480 C 0.38336 0.0014 0.57484 0.0
C481 C 0.31414 -0.0051 0.4978 0.0
N482 N 0.40924 0.98733 0.46658 0.0
N483 N 0.30009 0.02806 0.59669 0.0
H484 H 0.26947 0.97319 0.41357 0.0
H485 H 0.25293 0.98677 0.49088 0.0
H486 H 0.30428 0.03912 0.64908 0.0
H487 H 0.27886 0.03272 0.56716 0.0
H488 H 0.43603 0.99103 0.49243 0.0
H489 H 0.40851 0.98307 0.41117 0.0
H490 H 0.41714 0.00287 0.66788 0.0
H491 H 0.41714 0.00287 0.66788 0.0
C492 C 0.46125 0.48805 0.10261 0.0
C493 C 0.44259 0.46601 0.16647 0.0
C494 C 0.5116 0.49227 0.2212 0.0
C495 C 0.53007 0.51566 0.15935 0.0
N496 N 0.52289 0.54214 0.04665 0.0
N497 N 0.44971 0.45884 0.29366 0.0
C498 C 0.50499 0.5155 0.1016 0.0
C499 C 0.46771 0.4715 0.22781 0.0
N500 N 0.43789 0.4818 0.04214 0.0
N501 N 0.53595 0.48904 0.27319 0.0
H502 H 0.41782 0.44656 0.3024 0.0
H503 H 0.46682 0.46508 0.34095 0.0
H504 H 0.56838 0.5038 0.27064 0.0
H505 H 0.52386 0.46872 0.3154 0.0
H506 H 0.45054 0.49401 0.99244 0.0
H507 H 0.40615 0.46166 0.03922 0.0
H508 H 0.50596 0.54698 1.00705 0.0
H509 H 0.55486 0.56183 0.04368 0.0
C510 C 0.96088 0.48719 0.33918 0.0
C511 C 0.9774 0.50752 0.40498 0.0
C512 C 0.94023 0.44415 0.46997 0.0
C513 C 0.92994 0.42298 0.4038 0.0
N514 N 0.92957 0.42388 0.27402 0.0
N515 N 0.98544 0.50578 0.53321 0.0
C516 C 0.93938 0.44431 0.33779 0.0
C517 C 0.9675 0.48617 0.47052 0.0
N518 N 0.96549 0.50899 0.27856 0.0
N519 N 0.92268 0.42413 0.53222 0.0
H520 H 0.00543 0.5367 0.53663 0.0
H521 H 0.9831 0.49099 0.58113 0.0
H522 H 0.9011 0.39351 0.53343 0.0
H523 H 0.92577 0.43847 0.5813 0.0
H524 H 0.95102 0.49645 0.22992 0.0
H525 H 0.98122 0.54033 0.27852 0.0
H526 H 0.93849 0.4377 0.22424 0.0
H527 H 0.91487 0.39271 0.27023 0.0
C528 C 0.57354 0.05518 0.756 0.0
C529 C 0.5551 0.01279 0.74863 0.0
C530 C 0.4865 0.00493 0.77663 0.0
C531 C 0.50362 0.04724 0.76979 0.0
N532 N 0.56321 0.11335 0.76439 0.0
N533 N 0.49567 0.94673 0.75776 0.0
C534 C 0.5473 0.07258 0.76418 0.0
C535 C 0.51214 0.98751 0.76206 0.0
N536 N 0.61591 0.07866 0.75369 0.0
N537 N 0.44586 0.98131 0.7963 0.0
H538 H 0.51411 0.93308 0.75255 0.0
H539 H 0.46391 0.92637 0.7566 0.0
H540 H 0.42538 -0.0078 0.80517 0.0
H541 H 0.4329 0.95112 0.80961 0.0
H542 H 0.63173 0.10937 0.76403 0.0
H543 H 0.63605 0.06718 0.7457 0.0
H544 H 0.59389 0.13409 0.75214 0.0
H545 H 0.545 0.12667 0.77609 0.0
C546 C 0.50366 0.51957 0.6938 0.0
C547 C 0.4987 0.54164 0.63766 0.0
C548 C 0.45959 0.48032 0.56708 0.0
C549 C 0.4629 0.45748 0.62435 0.0
N550 N 0.47962 0.45477 0.74922 0.0
N551 N 0.46283 0.54261 0.53058 0.0
C552 C 0.48242 0.47691 0.68994 0.0
C553 C 0.47319 0.5217 0.57794 0.0
N554 N 0.52928 0.53947 0.75016 0.0
N555 N 0.44708 0.46375 0.5003 0.0
H556 H 0.47299 0.57322 0.5365 0.0
H557 H 0.44085 0.52884 0.48997 0.0
H558 H 0.44079 0.43483 0.4868 0.0
H559 H 0.44766 0.48029 0.45568 0.0
H560 H 0.53878 0.52567 0.78806 0.0
H561 H 0.54265 0.57044 0.75688 0.0
H562 H 0.48998 0.4673 0.79988 0.0
H563 H 0.46283 0.42351 0.7502 0.0
C564 C 0.97511 0.4943 0.81092 0.0
C565 C 0.97945 0.51718 0.8735 0.0
C566 C 0.01947 0.4892 0.9312 0.0
C567 C 0.01762 0.46851 0.86622 0.0
N568 N 0.00412 0.46149 0.73863 0.0
N569 N 0.01076 0.54175 0.98934 0.0
C570 C 0.99824 0.4738 0.80454 0.0
C571 C 0.00306 0.51617 0.93267 0.0
N572 N 0.94821 0.49153 0.75783 0.0
N573 N 0.0354 0.48215 0.99215 0.0
H574 H 0.99809 0.56084 0.99315 0.0
H575 H 0.03194 0.54621 0.03005 0.0
H576 H 0.04704 0.46225 0.99439 0.0
H577 H 0.03366 0.49315 0.04248 0.0
H578 H 0.94039 0.47174 0.71459 0.0
H579 H 0.93055 0.50608 0.76046 0.0
H580 H 0.99372 0.46775 0.6911 0.0
H581 H 0.02366 0.44934 0.73005 0.0
C582 C 0.49756 0.0115 0.19131 0.0
C583 C 0.52577 -0.00234 0.20864 0.0
C584 C 0.46677 0.93251 0.24215 0.0
C585 C 0.44025 0.94963 0.24151 0.0
N586 N 0.4309 0.00691 0.21535 0.0
N587 N 0.53743 0.94456 0.25275 0.0
C588 C 0.45536 0.98919 0.21423 0.0
C589 C 0.51041 0.95768 0.23307 0.0
N590 N 0.51139 0.04624 0.15334 0.0
N591 N 0.45002 0.8921 0.2522 0.0
H592 H 0.5696 0.96179 0.24721 0.0
H593 H 0.52809 0.91751 0.27925 0.0
H594 H 0.418 0.87312 0.25795 0.0
H595 H 0.46708 0.87709 0.24723 0.0
H596 H 0.49166 0.05606 0.13279 0.0
H597 H 0.54219 0.06294 0.13604 0.0
H598 H 0.44222 0.03727 0.20483 0.0
H599 H 0.39987 -0.00765 0.23105 0.0
loop_
_geom_bond_atom_site_label_1
_geom_bond_atom_site_label_2
_geom_bond_distance
_geom_bond_site_symmetry_2
_ccdc_geom_bond_type
Mg0 O1 2.028 1_554 S
Mg0 O7 1.986 . S
Mg0 O9 2.114 . S
Mg0 O10 2.251 . S
Mg0 O13 2.010 . S
O1 Mg0 2.028 1_556 S
O1 C4 1.250 . S
O2 Mg3 2.028 1_556 S
O2 C4 1.248 . S
Mg3 O2 2.028 1_554 S
Mg3 O8 2.032 . S
Mg3 O10 2.079 . S
C4 O1 1.250 . S
C4 O2 1.248 . S
C5 O6 1.264 . S
C5 O13 1.249 . S
O6 C5 1.264 . S
O7 Mg0 1.986 . S
O7 C11 1.246 . S
O8 Mg3 2.032 . S
O8 C11 1.259 . S
O9 Mg0 2.114 . S
O9 C12 1.252 . S
O10 Mg0 2.251 . S
O10 Mg3 2.079 . S
O10 C12 1.273 . S
C11 O7 1.246 . S
C11 O8 1.259 . S
C12 O9 1.252 . S
C12 O10 1.273 . S
O13 Mg0 2.010 . S
O13 C5 1.249 . S
Mg14 O15 2.028 . S
Mg14 O21 1.986 . S
Mg14 O23 2.114 . S
Mg14 O24 2.251 . S
Mg14 O27 2.010 . S
O15 Mg14 2.028 . S
O15 C18 1.250 . S
O16 Mg17 2.028 . S
O16 C18 1.248 1_455 S
Mg17 O16 2.028 . S
Mg17 O22 2.032 . S
Mg17 O24 2.079 1_455 S
C18 O15 1.250 . S
C18 O16 1.248 1_655 S
C19 O20 1.264 . S
C19 O27 1.249 . S
O20 C19 1.264 . S
O21 Mg14 1.986 . S
O21 C25 1.246 . S
O22 Mg17 2.032 . S
O22 C25 1.259 1_455 S
O23 Mg14 2.114 . S
O23 C26 1.252 . S
O24 Mg14 2.251 . S
O24 Mg17 2.079 1_655 S
O24 C26 1.273 . S
C25 O21 1.246 . S
C25 O22 1.259 1_655 S
C26 O23 1.252 . S
C26 O24 1.273 . S
O27 Mg14 2.010 . S
O27 C19 1.249 . S
Mg28 O29 2.028 . S
Mg28 O35 1.986 . S
Mg28 O37 2.114 1_565 S
Mg28 O38 2.251 . S
Mg28 O41 2.010 . S
O29 Mg28 2.028 . S
O29 C32 1.250 . S
O30 Mg31 2.028 . S
O30 C32 1.248 . S
Mg31 O30 2.028 . S
Mg31 O36 2.032 . S
Mg31 O38 2.079 . S
C32 O29 1.250 . S
C32 O30 1.248 . S
C33 O34 1.264 1_565 S
C33 O41 1.249 . S
O34 C33 1.264 1_545 S
O35 Mg28 1.986 . S
O35 C39 1.246 . S
O36 Mg31 2.032 . S
O36 C39 1.259 . S
O37 Mg28 2.114 1_545 S
O37 C40 1.252 1_545 S
O38 Mg28 2.251 . S
O38 Mg31 2.079 . S
O38 C40 1.273 . S
C39 O35 1.246 . S
C39 O36 1.259 . S
C40 O37 1.252 1_565 S
C40 O38 1.273 . S
O41 Mg28 2.010 . S
O41 C33 1.249 . S
Mg42 O43 2.028 1_554 S
Mg42 O49 1.986 . S
Mg42 O51 2.114 . S
Mg42 O52 2.251 . S
Mg42 O55 2.010 . S
O43 Mg42 2.028 1_556 S
O43 C46 1.250 . S
O44 Mg45 2.028 1_556 S
O44 C46 1.248 . S
Mg45 O44 2.028 1_554 S
Mg45 O50 2.032 . S
Mg45 O52 2.079 . S
C46 O43 1.250 . S
C46 O44 1.248 . S
C47 O48 1.264 . S
C47 O55 1.249 . S
O48 C47 1.264 . S
O49 Mg42 1.986 . S
O49 C53 1.246 . S
O50 Mg45 2.032 . S
O50 C53 1.259 . S
O51 Mg42 2.114 . S
O51 C54 1.252 . S
O52 Mg42 2.251 . S
O52 Mg45 2.079 . S
O52 C54 1.273 . S
C53 O49 1.246 . S
C53 O50 1.259 . S
C54 O51 1.252 . S
C54 O52 1.273 . S
O55 Mg42 2.010 . S
O55 C47 1.249 . S
Mg56 O57 2.028 . S
Mg56 O63 1.986 . S
Mg56 O65 2.114 . S
Mg56 O66 2.251 . S
Mg56 O69 2.010 . S
O57 Mg56 2.028 . S
O57 C60 1.250 . S
O58 Mg59 2.028 . S
O58 C60 1.248 1_655 S
Mg59 O58 2.028 . S
Mg59 O64 2.032 . S
Mg59 O66 2.079 1_655 S
C60 O57 1.250 . S
C60 O58 1.248 1_455 S
C61 O62 1.264 . S
C61 O69 1.249 . S
O62 C61 1.264 . S
O63 Mg56 1.986 . S
O63 C67 1.246 . S
O64 Mg59 2.032 . S
O64 C67 1.259 1_655 S
O65 Mg56 2.114 . S
O65 C68 1.252 . S
O66 Mg56 2.251 . S
O66 Mg59 2.079 1_455 S
O66 C68 1.273 . S
C67 O63 1.246 . S
C67 O64 1.259 1_455 S
C68 O65 1.252 . S
C68 O66 1.273 . S
O69 Mg56 2.010 . S
O69 C61 1.249 . S
Mg70 O71 2.028 . S
Mg70 O77 1.986 . S
Mg70 O79 2.114 1_545 S
Mg70 O80 2.251 . S
Mg70 O83 2.010 . S
O71 Mg70 2.028 . S
O71 C74 1.250 . S
O72 Mg73 2.028 . S
O72 C74 1.248 . S
Mg73 O72 2.028 . S
Mg73 O78 2.032 . S
Mg73 O80 2.079 . S
C74 O71 1.250 . S
C74 O72 1.248 . S
C75 O76 1.264 1_545 S
C75 O83 1.249 . S
O76 C75 1.264 1_565 S
O77 Mg70 1.986 . S
O77 C81 1.246 . S
O78 Mg73 2.032 . S
O78 C81 1.259 . S
O79 Mg70 2.114 1_565 S
O79 C82 1.252 1_565 S
O80 Mg70 2.251 . S
O80 Mg73 2.079 . S
O80 C82 1.273 . S
C81 O77 1.246 . S
C81 O78 1.259 . S
C82 O79 1.252 1_545 S
C82 O80 1.273 . S
O83 Mg70 2.010 . S
O83 C75 1.249 . S
Mg84 O85 2.028 . S
Mg84 O91 1.986 . S
Mg84 O93 2.114 . S
Mg84 O94 2.251 . S
Mg84 O97 2.010 . S
O85 Mg84 2.028 . S
O85 C88 1.250 . S
O86 Mg87 2.028 . S
O86 C88 1.248 . S
Mg87 O86 2.028 . S
Mg87 O92 2.032 . S
Mg87 O94 2.079 . S
C88 O85 1.250 . S
C88 O86 1.248 . S
C89 O90 1.264 . S
C89 O97 1.249 . S
O90 C89 1.264 . S
O91 Mg84 1.986 . S
O91 C95 1.246 . S
O92 Mg87 2.032 . S
O92 C95 1.259 . S
O93 Mg84 2.114 . S
O93 C96 1.252 . S
O94 Mg84 2.251 . S
O94 Mg87 2.079 . S
O94 C96 1.273 . S
C95 O91 1.246 . S
C95 O92 1.259 . S
C96 O93 1.252 . S
C96 O94 1.273 . S
O97 Mg84 2.010 . S
O97 C89 1.249 . S
Mg98 O99 2.028 1_556 S
Mg98 O105 1.986 . S
Mg98 O107 2.114 . S
Mg98 O108 2.251 . S
Mg98 O111 2.010 . S
O99 Mg98 2.028 1_554 S
O99 C102 1.250 1_655 S
O100 Mg101 2.028 1_554 S
O100 C102 1.248 . S
Mg101 O100 2.028 1_556 S
Mg101 O106 2.032 . S
Mg101 O108 2.079 1_455 S
C102 O99 1.250 1_455 S
C102 O100 1.248 . S
C103 O104 1.264 . S
C103 O111 1.249 . S
O104 C103 1.264 . S
O105 Mg98 1.986 . S
O105 C109 1.246 1_655 S
O106 Mg101 2.032 . S
O106 C109 1.259 . S
O107 Mg98 2.114 . S
O107 C110 1.252 . S
O108 Mg98 2.251 . S
O108 Mg101 2.079 1_655 S
O108 C110 1.273 . S
C109 O105 1.246 1_455 S
C109 O106 1.259 . S
C110 O107 1.252 . S
C110 O108 1.273 . S
O111 Mg98 2.010 . S
O111 C103 1.249 . S
Mg112 O113 2.028 . S
Mg112 O119 1.986 . S
Mg112 O121 2.114 1_565 S
Mg112 O122 2.251 . S
Mg112 O125 2.010 . S
O113 Mg112 2.028 . S
O113 C116 1.250 . S
O114 Mg115 2.028 . S
O114 C116 1.248 . S
Mg115 O114 2.028 . S
Mg115 O120 2.032 . S
Mg115 O122 2.079 . S
C116 O113 1.250 . S
C116 O114 1.248 . S
C117 O118 1.264 1_565 S
C117 O125 1.249 . S
O118 C117 1.264 1_545 S
O119 Mg112 1.986 . S
O119 C123 1.246 . S
O120 Mg115 2.032 . S
O120 C123 1.259 . S
O121 Mg112 2.114 1_545 S
O121 C124 1.252 1_545 S
O122 Mg112 2.251 . S
O122 Mg115 2.079 . S
O122 C124 1.273 . S
C123 O119 1.246 . S
C123 O120 1.259 . S
C124 O121 1.252 1_565 S
C124 O122 1.273 . S
O125 Mg112 2.010 . S
O125 C117 1.249 . S
Mg126 O127 2.028 . S
Mg126 O133 1.986 . S
Mg126 O135 2.114 . S
Mg126 O136 2.251 . S
Mg126 O139 2.010 . S
O127 Mg126 2.028 . S
O127 C130 1.250 . S
O128 Mg129 2.028 . S
O128 C130 1.248 . S
Mg129 O128 2.028 . S
Mg129 O134 2.032 . S
Mg129 O136 2.079 . S
C130 O127 1.250 . S
C130 O128 1.248 . S
C131 O132 1.264 . S
C131 O139 1.249 . S
O132 C131 1.264 . S
O133 Mg126 1.986 . S
O133 C137 1.246 . S
O134 Mg129 2.032 . S
O134 C137 1.259 . S
O135 Mg126 2.114 . S
O135 C138 1.252 . S
O136 Mg126 2.251 . S
O136 Mg129 2.079 . S
O136 C138 1.273 . S
C137 O133 1.246 . S
C137 O134 1.259 . S
C138 O135 1.252 . S
C138 O136 1.273 . S
O139 Mg126 2.010 . S
O139 C131 1.249 . S
Mg140 O141 2.028 1_556 S
Mg140 O147 1.986 . S
Mg140 O149 2.114 . S
Mg140 O150 2.251 . S
Mg140 O153 2.010 . S
O141 Mg140 2.028 1_554 S
O141 C144 1.250 1_455 S
O142 Mg143 2.028 1_554 S
O142 C144 1.248 . S
Mg143 O142 2.028 1_556 S
Mg143 O148 2.032 . S
Mg143 O150 2.079 1_655 S
C144 O141 1.250 1_655 S
C144 O142 1.248 . S
C145 O146 1.264 . S
C145 O153 1.249 . S
O146 C145 1.264 . S
O147 Mg140 1.986 . S
O147 C151 1.246 1_455 S
O148 Mg143 2.032 . S
O148 C151 1.259 . S
O149 Mg140 2.114 . S
O149 C152 1.252 . S
O150 Mg140 2.251 . S
O150 Mg143 2.079 1_455 S
O150 C152 1.273 . S
C151 O147 1.246 1_655 S
C151 O148 1.259 . S
C152 O149 1.252 . S
C152 O150 1.273 . S
O153 Mg140 2.010 . S
O153 C145 1.249 . S
Mg154 O155 2.028 . S
Mg154 O161 1.986 . S
Mg154 O163 2.114 1_545 S
Mg154 O164 2.251 . S
Mg154 O167 2.010 . S
O155 Mg154 2.028 . S
O155 C158 1.250 . S
O156 Mg157 2.028 . S
O156 C158 1.248 . S
Mg157 O156 2.028 . S
Mg157 O162 2.032 . S
Mg157 O164 2.079 . S
C158 O155 1.250 . S
C158 O156 1.248 . S
C159 O160 1.264 1_545 S
C159 O167 1.249 . S
O160 C159 1.264 1_565 S
O161 Mg154 1.986 . S
O161 C165 1.246 . S
O162 Mg157 2.032 . S
O162 C165 1.259 . S
O163 Mg154 2.114 1_565 S
O163 C166 1.252 1_565 S
O164 Mg154 2.251 . S
O164 Mg157 2.079 . S
O164 C166 1.273 . S
C165 O161 1.246 . S
C165 O162 1.259 . S
C166 O163 1.252 1_545 S
C166 O164 1.273 . S
O167 Mg154 2.010 . S
O167 C159 1.249 . S
C168 C169 1.363 . S
C168 C174 1.379 . S
C168 N176 1.356 . S
C169 C168 1.363 . S
C169 C175 1.363 . S
C170 C171 1.363 . S
C170 C175 1.379 . S
C170 N177 1.356 . S
C171 C170 1.363 . S
C171 C174 1.363 . S
N172 C174 1.356 . S
N172 H184 0.984 . S
N172 H185 0.985 . S
N173 C175 1.356 . S
N173 H178 0.984 . S
N173 H179 0.985 . S
C174 C168 1.379 . S
C174 C171 1.363 . S
C174 N172 1.356 . S
C175 C169 1.363 . S
C175 C170 1.379 . S
C175 N173 1.356 . S
N176 C168 1.356 . S
N176 H182 0.984 . S
N176 H183 0.984 . S
N177 C170 1.356 . S
N177 H180 0.984 . S
N177 H181 0.985 . S
H178 N173 0.984 . S
H179 N173 0.985 . S
H180 N177 0.984 . S
H181 N177 0.985 . S
H182 N176 0.984 . S
H183 N176 0.984 . S
H184 N172 0.984 . S
H185 N172 0.985 . S
C186 C187 1.363 1_455 S
C186 C192 1.379 . S
C186 N194 1.356 . S
C187 C186 1.363 1_655 S
C187 C193 1.363 . S
C188 C189 1.363 . S
C188 C193 1.379 . S
C188 N195 1.356 . S
C189 C188 1.363 . S
C189 C192 1.363 1_655 S
N190 C192 1.356 . S
N190 H202 0.984 . S
N190 H203 0.985 . S
N191 C193 1.356 . S
N191 H196 0.984 . S
N191 H197 0.985 . S
C192 C186 1.379 . S
C192 C189 1.363 1_455 S
C192 N190 1.356 . S
C193 C187 1.363 . S
C193 C188 1.379 . S
C193 N191 1.356 . S
N194 C186 1.356 . S
N194 H200 0.984 . S
N194 H201 0.984 . S
N195 C188 1.356 . S
N195 H198 0.984 . S
N195 H199 0.985 . S
H196 N191 0.984 . S
H197 N191 0.985 . S
H198 N195 0.984 . S
H199 N195 0.985 . S
H200 N194 0.984 . S
H201 N194 0.984 . S
H202 N190 0.984 . S
H203 N190 0.985 . S
C204 C205 1.363 . S
C204 C210 1.379 1_556 S
C204 N212 1.356 . S
C205 C204 1.363 . S
C205 C211 1.363 1_565 S
C206 C207 1.363 . S
C206 C211 1.379 1_554 S
C206 N213 1.356 . S
C207 C206 1.363 . S
C207 C210 1.363 1_545 S
N208 C210 1.356 . S
N208 H220 0.984 . S
N208 H221 0.985 . S
N209 C211 1.356 . S
N209 H214 0.984 . S
N209 H215 0.985 . S
C210 C204 1.379 1_554 S
C210 C207 1.363 1_565 S
C210 N208 1.356 . S
C211 C205 1.363 1_545 S
C211 C206 1.379 1_556 S
C211 N209 1.356 . S
N212 C204 1.356 . S
N212 H218 0.984 . S
N212 H219 0.984 . S
N213 C206 1.356 . S
N213 H216 0.984 . S
N213 H217 0.985 . S
H214 N209 0.984 . S
H215 N209 0.985 . S
H216 N213 0.984 . S
H217 N213 0.985 . S
H218 N212 0.984 . S
H219 N212 0.984 . S
H220 N208 0.984 . S
H221 N208 0.985 . S
C222 C223 1.363 . S
C222 C228 1.379 . S
C222 N230 1.356 . S
C223 C222 1.363 . S
C223 C229 1.363 . S
C224 C225 1.363 . S
C224 C229 1.379 . S
C224 N231 1.356 . S
C225 C224 1.363 . S
C225 C228 1.363 . S
N226 C228 1.356 . S
N226 H238 0.984 . S
N226 H239 0.985 . S
N227 C229 1.356 . S
N227 H232 0.984 . S
N227 H233 0.985 . S
C228 C222 1.379 . S
C228 C225 1.363 . S
C228 N226 1.356 . S
C229 C223 1.363 . S
C229 C224 1.379 . S
C229 N227 1.356 . S
N230 C222 1.356 . S
N230 H236 0.984 . S
N230 H237 0.984 . S
N231 C224 1.356 . S
N231 H234 0.984 . S
N231 H235 0.985 . S
H232 N227 0.984 . S
H233 N227 0.985 . S
H234 N231 0.984 . S
H235 N231 0.985 . S
H236 N230 0.984 . S
H237 N230 0.984 . S
H238 N226 0.984 . S
H239 N226 0.985 . S
C240 C241 1.363 . S
C240 C246 1.379 . S
C240 N248 1.356 . S
C241 C240 1.363 . S
C241 C247 1.363 . S
C242 C243 1.363 . S
C242 C247 1.379 . S
C242 N249 1.356 . S
C243 C242 1.363 . S
C243 C246 1.363 . S
N244 C246 1.356 . S
N244 H256 0.984 . S
N244 H257 0.985 . S
N245 C247 1.356 . S
N245 H250 0.984 . S
N245 H251 0.985 . S
C246 C240 1.379 . S
C246 C243 1.363 . S
C246 N244 1.356 . S
C247 C241 1.363 . S
C247 C242 1.379 . S
C247 N245 1.356 . S
N248 C240 1.356 . S
N248 H254 0.984 . S
N248 H255 0.984 . S
N249 C242 1.356 . S
N249 H252 0.984 . S
N249 H253 0.985 . S
H250 N245 0.984 . S
H251 N245 0.985 . S
H252 N249 0.984 . S
H253 N249 0.985 . S
H254 N248 0.984 . S
H255 N248 0.984 . S
H256 N244 0.984 . S
H257 N244 0.985 . S
C258 C259 1.363 1_545 S
C258 C264 1.379 1_554 S
C258 N266 1.356 . S
C259 C258 1.363 1_565 S
C259 C265 1.363 . S
C260 C261 1.363 1_565 S
C260 C265 1.379 1_556 S
C260 N267 1.356 . S
C261 C260 1.363 1_545 S
C261 C264 1.363 . S
N262 C264 1.356 . S
N262 H274 0.984 . S
N262 H275 0.985 . S
N263 C265 1.356 . S
N263 H268 0.984 . S
N263 H269 0.985 . S
C264 C258 1.379 1_556 S
C264 C261 1.363 . S
C264 N262 1.356 . S
C265 C259 1.363 . S
C265 C260 1.379 1_554 S
C265 N263 1.356 . S
N266 C258 1.356 . S
N266 H272 0.984 . S
N266 H273 0.984 . S
N267 C260 1.356 . S
N267 H270 0.984 . S
N267 H271 0.985 . S
H268 N263 0.984 . S
H269 N263 0.985 . S
H270 N267 0.984 . S
H271 N267 0.985 . S
H272 N266 0.984 . S
H273 N266 0.984 . S
H274 N262 0.984 . S
H275 N262 0.985 . S
C276 C277 1.363 . S
C276 C282 1.379 . S
C276 N284 1.356 . S
C277 C276 1.363 . S
C277 C283 1.363 1_556 S
C278 C279 1.363 . S
C278 C283 1.379 . S
C278 N285 1.356 . S
C279 C278 1.363 . S
C279 C282 1.363 1_554 S
N280 C282 1.356 . S
N280 H292 0.984 . S
N280 H293 0.985 . S
N281 C283 1.356 . S
N281 H286 0.984 . S
N281 H287 0.985 . S
C282 C276 1.379 . S
C282 C279 1.363 1_556 S
C282 N280 1.356 . S
C283 C277 1.363 1_554 S
C283 C278 1.379 . S
C283 N281 1.356 . S
N284 C276 1.356 . S
N284 H290 0.984 . S
N284 H291 0.984 . S
N285 C278 1.356 . S
N285 H288 0.984 . S
N285 H289 0.985 . S
H286 N281 0.984 . S
H287 N281 0.985 . S
H288 N285 0.984 . S
H289 N285 0.985 . S
H290 N284 0.984 . S
H291 N284 0.984 . S
H292 N280 0.984 . S
H293 N280 0.985 . S
C294 C295 1.363 . S
C294 C300 1.379 . S
C294 N302 1.356 . S
C295 C294 1.363 . S
C295 C301 1.363 . S
C296 C297 1.363 . S
C296 C301 1.379 . S
C296 N303 1.356 . S
C297 C296 1.363 . S
C297 C300 1.363 . S
N298 C300 1.356 . S
N298 H310 0.984 . S
N298 H311 0.985 . S
N299 C301 1.356 . S
N299 H304 0.984 . S
N299 H305 0.985 . S
C300 C294 1.379 . S
C300 C297 1.363 . S
C300 N298 1.356 . S
C301 C295 1.363 . S
C301 C296 1.379 . S
C301 N299 1.356 . S
N302 C294 1.356 . S
N302 H308 0.984 . S
N302 H309 0.984 . S
N303 C296 1.356 . S
N303 H306 0.984 . S
N303 H307 0.985 . S
H304 N299 0.984 . S
H305 N299 0.985 . S
H306 N303 0.984 . S
H307 N303 0.985 . S
H308 N302 0.984 . S
H309 N302 0.984 . S
H310 N298 0.984 . S
H311 N298 0.985 . S
C312 C313 1.363 . S
C312 C318 1.379 . S
C312 N320 1.356 . S
C313 C312 1.363 . S
C313 C319 1.363 . S
C314 C315 1.363 . S
C314 C319 1.379 . S
C314 N321 1.356 . S
C315 C314 1.363 . S
C315 C318 1.363 . S
N316 C318 1.356 . S
N316 H328 0.984 . S
N316 H329 0.985 . S
N317 C319 1.356 . S
N317 H322 0.984 . S
N317 H323 0.985 . S
C318 C312 1.379 . S
C318 C315 1.363 . S
C318 N316 1.356 . S
C319 C313 1.363 . S
C319 C314 1.379 . S
C319 N317 1.356 . S
N320 C312 1.356 . S
N320 H326 0.984 . S
N320 H327 0.984 . S
N321 C314 1.356 . S
N321 H324 0.984 . S
N321 H325 0.985 . S
H322 N317 0.984 . S
H323 N317 0.985 . S
H324 N321 0.984 . S
H325 N321 0.985 . S
H326 N320 0.984 . S
H327 N320 0.984 . S
H328 N316 0.984 . S
H329 N316 0.985 . S
C330 C331 1.363 . S
C330 C336 1.379 . S
C330 N338 1.356 . S
C331 C330 1.363 . S
C331 C337 1.363 1_554 S
C332 C333 1.363 . S
C332 C337 1.379 . S
C332 N339 1.356 . S
C333 C332 1.363 . S
C333 C336 1.363 1_556 S
N334 C336 1.356 . S
N334 H346 0.984 . S
N334 H347 0.985 . S
N335 C337 1.356 . S
N335 H340 0.984 . S
N335 H341 0.985 . S
C336 C330 1.379 . S
C336 C333 1.363 1_554 S
C336 N334 1.356 . S
C337 C331 1.363 1_556 S
C337 C332 1.379 . S
C337 N335 1.356 . S
N338 C330 1.356 . S
N338 H344 0.984 . S
N338 H345 0.984 . S
N339 C332 1.356 . S
N339 H342 0.984 . S
N339 H343 0.985 . S
H340 N335 0.984 . S
H341 N335 0.985 . S
H342 N339 0.984 . S
H343 N339 0.985 . S
H344 N338 0.984 . S
H345 N338 0.984 . S
H346 N334 0.984 . S
H347 N334 0.985 . S
C348 C349 1.363 . S
C348 C354 1.379 . S
C348 N356 1.356 . S
C349 C348 1.363 . S
C349 C355 1.363 . S
C350 C351 1.363 . S
C350 C355 1.379 . S
C350 N357 1.356 . S
C351 C350 1.363 . S
C351 C354 1.363 . S
N352 C354 1.356 . S
N352 H364 0.984 . S
N352 H365 0.985 . S
N353 C355 1.356 . S
N353 H358 0.984 . S
N353 H359 0.985 . S
C354 C348 1.379 . S
C354 C351 1.363 . S
C354 N352 1.356 . S
C355 C349 1.363 . S
C355 C350 1.379 . S
C355 N353 1.356 . S
N356 C348 1.356 . S
N356 H362 0.984 . S
N356 H363 0.984 . S
N357 C350 1.356 . S
N357 H360 0.984 . S
N357 H361 0.985 . S
H358 N353 0.984 . S
H359 N353 0.985 . S
H360 N357 0.984 . S
H361 N357 0.985 . S
H362 N356 0.984 . S
H363 N356 0.984 . S
H364 N352 0.984 . S
H365 N352 0.985 . S
C366 C367 1.363 . S
C366 C372 1.379 . S
C366 N374 1.356 . S
C367 C366 1.363 . S
C367 C373 1.363 . S
C368 C369 1.363 . S
C368 C373 1.379 . S
C368 N375 1.356 . S
C369 C368 1.363 . S
C369 C372 1.363 . S
N370 C372 1.356 . S
N370 H382 0.984 . S
N370 H383 0.985 . S
N371 C373 1.356 . S
N371 H376 0.984 . S
N371 H377 0.985 . S
C372 C366 1.379 . S
C372 C369 1.363 . S
C372 N370 1.356 . S
C373 C367 1.363 . S
C373 C368 1.379 . S
C373 N371 1.356 . S
N374 C366 1.356 . S
N374 H380 0.984 . S
N374 H381 0.984 . S
N375 C368 1.356 . S
N375 H378 0.984 . S
N375 H379 0.985 . S
H376 N371 0.984 . S
H377 N371 0.985 . S
H378 N375 0.984 . S
H379 N375 0.985 . S
H380 N374 0.984 . S
H381 N374 0.984 . S
H382 N370 0.984 . S
H383 N370 0.985 . S
C384 C385 1.363 . S
C384 C390 1.379 . S
C384 N392 1.356 . S
C385 C384 1.363 . S
C385 C391 1.363 . S
C386 C387 1.363 . S
C386 C391 1.379 . S
C386 N393 1.356 . S
C387 C386 1.363 . S
C387 C390 1.363 . S
N388 C390 1.356 . S
N388 H400 0.984 . S
N388 H401 0.985 . S
N389 C391 1.356 . S
N389 H394 0.984 . S
N389 H395 0.985 . S
C390 C384 1.379 . S
C390 C387 1.363 . S
C390 N388 1.356 . S
C391 C385 1.363 . S
C391 C386 1.379 . S
C391 N389 1.356 . S
N392 C384 1.356 . S
N392 H398 0.984 . S
N392 H399 0.984 . S
N393 C386 1.356 . S
N393 H396 0.984 . S
N393 H397 0.985 . S
H394 N389 0.984 . S
H395 N389 0.985 . S
H396 N393 0.984 . S
H397 N393 0.985 . S
H398 N392 0.984 . S
H399 N392 0.984 . S
H400 N388 0.984 . S
H401 N388 0.985 . S
C402 C403 1.363 . S
C402 C408 1.379 . S
C402 N410 1.356 1_655 S
C403 C402 1.363 . S
C403 C409 1.363 . S
C404 C405 1.363 . S
C404 C409 1.379 . S
C404 N411 1.356 . S
C405 C404 1.363 . S
C405 C408 1.363 . S
N406 C408 1.356 . S
N406 H418 0.973 1_655 S
N406 H419 0.985 . S
N407 C409 1.356 . S
N407 H412 0.984 . S
N407 H413 0.985 . S
C408 C402 1.379 . S
C408 C405 1.363 . S
C408 N406 1.356 . S
C409 C403 1.363 . S
C409 C404 1.379 . S
C409 N407 1.356 . S
N410 C402 1.356 1_455 S
N410 H416 0.984 . S
N410 H417 0.984 . S
N411 C404 1.356 . S
N411 H414 0.984 . S
N411 H415 0.985 . S
H412 N407 0.984 . S
H413 N407 0.985 . S
H414 N411 0.984 . S
H415 N411 0.985 . S
H416 N410 0.984 . S
H417 N410 0.984 . S
H418 N406 0.973 1_455 S
H419 N406 0.985 . S
C420 C421 1.363 1_565 S
C420 C426 1.379 . S
C420 N428 1.356 . S
C421 C420 1.363 1_545 S
C421 C427 1.363 . S
C422 C423 1.363 1_545 S
C422 C427 1.379 . S
C422 N429 1.356 . S
C423 C422 1.363 1_565 S
C423 C426 1.363 . S
N424 C426 1.356 . S
N424 H436 0.984 . S
N424 H437 0.985 . S
N425 C427 1.356 . S
N425 H430 0.984 . S
N425 H431 0.985 . S
C426 C420 1.379 . S
C426 C423 1.363 . S
C426 N424 1.356 . S
C427 C421 1.363 . S
C427 C422 1.379 . S
C427 N425 1.356 . S
N428 C420 1.356 . S
N428 H434 0.984 . S
N428 H435 0.984 . S
N429 C422 1.356 . S
N429 H432 0.984 . S
N429 H433 0.985 . S
H430 N425 0.984 . S
H431 N425 0.985 . S
H432 N429 0.984 . S
H433 N429 0.985 . S
H434 N428 0.984 . S
H435 N428 0.984 . S
H436 N424 0.984 . S
H437 N424 0.985 . S
C438 C439 1.363 . S
C438 C444 1.379 . S
C438 N446 1.356 . S
C439 C438 1.363 . S
C439 C445 1.363 . S
C440 C441 1.363 . S
C440 C445 1.379 . S
C440 N447 1.356 . S
C441 C440 1.363 . S
C441 C444 1.363 . S
N442 C444 1.356 . S
N442 H454 0.984 . S
N442 H455 0.985 . S
N443 C445 1.356 . S
N443 H448 0.984 . S
N443 H449 0.985 . S
C444 C438 1.379 . S
C444 C441 1.363 . S
C444 N442 1.356 . S
C445 C439 1.363 . S
C445 C440 1.379 . S
C445 N443 1.356 . S
N446 C438 1.356 . S
N446 H452 0.984 . S
N446 H453 0.984 . S
N447 C440 1.356 . S
N447 H450 0.984 . S
N447 H451 0.985 . S
H448 N443 0.984 . S
H449 N443 0.985 . S
H450 N447 0.984 . S
H451 N447 0.985 . S
H452 N446 0.984 . S
H453 N446 0.984 . S
H454 N442 0.984 . S
H455 N442 0.985 . S
C456 C457 1.363 . S
C456 C462 1.379 . S
C456 N464 1.356 1_455 S
C457 C456 1.363 . S
C457 C463 1.363 . S
C458 C459 1.363 . S
C458 C463 1.379 . S
C458 N465 1.356 . S
C459 C458 1.363 . S
C459 C462 1.363 . S
N460 C462 1.356 . S
N460 H472 0.984 . S
N460 H473 0.985 . S
N461 C463 1.356 . S
N461 H466 0.984 . S
N461 H467 0.985 . S
C462 C456 1.379 . S
C462 C459 1.363 . S
C462 N460 1.356 . S
C463 C457 1.363 . S
C463 C458 1.379 . S
C463 N461 1.356 . S
N464 C456 1.356 1_655 S
N464 H470 0.984 . S
N464 H471 0.984 . S
N465 C458 1.356 . S
N465 H468 0.984 . S
N465 H469 0.985 . S
H466 N461 0.984 . S
H467 N461 0.985 . S
H468 N465 0.984 . S
H469 N465 0.985 . S
H470 N464 0.984 . S
H471 N464 0.984 . S
H472 N460 0.984 . S
H473 N460 0.985 . S
C474 C475 1.363 . S
C474 C480 1.379 . S
C474 N482 1.356 . S
C475 C474 1.363 . S
C475 C481 1.363 1_545 S
C476 C477 1.363 . S
C476 C481 1.379 . S
C476 N483 1.356 . S
C477 C476 1.363 . S
C477 C480 1.363 1_565 S
N478 C480 1.356 . S
N478 H490 0.984 . S
N478 H491 0.985 . S
N479 C481 1.356 . S
N479 H484 0.984 . S
N479 H485 0.985 . S
C480 C474 1.379 . S
C480 C477 1.363 1_545 S
C480 N478 1.356 . S
C481 C475 1.363 1_565 S
C481 C476 1.379 . S
C481 N479 1.356 . S
N482 C474 1.356 . S
N482 H488 0.984 . S
N482 H489 0.984 . S
N483 C476 1.356 . S
N483 H486 0.984 . S
N483 H487 0.985 . S
H484 N479 0.984 . S
H485 N479 0.985 . S
H486 N483 0.984 . S
H487 N483 0.985 . S
H488 N482 0.984 . S
H489 N482 0.984 . S
H490 N478 0.984 . S
H491 N478 0.985 . S
C492 C493 1.370 . S
C492 C498 1.379 . S
C492 N500 1.351 1_554 S
C493 C492 1.370 . S
C493 C499 1.363 . S
C494 C495 1.363 . S
C494 C499 1.379 . S
C494 N501 1.356 . S
C495 C494 1.363 . S
C495 C498 1.370 . S
N496 C498 1.351 1_556 S
N496 H508 0.984 . S
N496 H509 0.985 . S
N497 C499 1.356 . S
N497 H502 0.984 . S
N497 H503 0.985 . S
C498 C492 1.379 . S
C498 C495 1.370 . S
C498 N496 1.351 1_554 S
C499 C493 1.363 . S
C499 C494 1.379 . S
C499 N497 1.356 . S
N500 C492 1.351 1_556 S
N500 H506 0.984 . S
N500 H507 0.984 . S
N501 C494 1.356 . S
N501 H504 0.984 . S
N501 H505 0.985 . S
H502 N497 0.984 . S
H503 N497 0.985 . S
H504 N501 0.984 . S
H505 N501 0.985 . S
H506 N500 0.984 . S
H507 N500 0.984 . S
H508 N496 0.984 . S
H509 N496 0.985 . S
C510 C511 1.363 1_655 S
C510 C516 1.379 . S
C510 N518 1.356 1_655 S
C511 C510 1.363 1_455 S
C511 C517 1.363 . S
C512 C513 1.363 1_455 S
C512 C517 1.379 . S
C512 N519 1.356 1_455 S
C513 C512 1.363 1_655 S
C513 C516 1.363 . S
N514 C516 1.356 . S
N514 H526 0.984 . S
N514 H527 0.985 . S
N515 C517 1.356 . S
N515 H520 0.984 . S
N515 H521 0.985 . S
C516 C510 1.379 . S
C516 C513 1.363 . S
C516 N514 1.356 . S
C517 C511 1.363 . S
C517 C512 1.379 . S
C517 N515 1.356 . S
N518 C510 1.356 1_455 S
N518 H524 0.984 1_455 S
N518 H525 0.984 . S
N519 C512 1.356 1_655 S
N519 H522 0.984 . S
N519 H523 0.985 1_655 S
H520 N515 0.984 . S
H521 N515 0.985 . S
H522 N519 0.984 . S
H523 N519 0.985 1_455 S
H524 N518 0.984 1_655 S
H525 N518 0.984 . S
H526 N514 0.984 . S
H527 N514 0.985 . S
C528 C529 1.363 . S
C528 C534 1.379 1_565 S
C528 N536 1.356 . S
C529 C528 1.363 . S
C529 C535 1.363 . S
C530 C531 1.363 . S
C530 C535 1.379 1_545 S
C530 N537 1.356 . S
C531 C530 1.363 . S
C531 C534 1.363 . S
N532 C534 1.356 . S
N532 H544 0.984 . S
N532 H545 0.985 . S
N533 C535 1.356 . S
N533 H538 0.984 . S
N533 H539 0.985 . S
C534 C528 1.379 1_545 S
C534 C531 1.363 . S
C534 N532 1.356 . S
C535 C529 1.363 . S
C535 C530 1.379 1_565 S
C535 N533 1.356 . S
N536 C528 1.356 . S
N536 H542 0.984 1_565 S
N536 H543 0.984 . S
N537 C530 1.356 . S
N537 H540 0.984 . S
N537 H541 0.985 1_545 S
H538 N533 0.984 . S
H539 N533 0.985 . S
H540 N537 0.984 . S
H541 N537 0.985 1_565 S
H542 N536 0.984 1_545 S
H543 N536 0.984 . S
H544 N532 0.984 . S
H545 N532 0.985 . S
C546 C547 1.363 . S
C546 C552 1.379 . S
C546 N554 1.356 . S
C547 C546 1.363 . S
C547 C553 1.363 . S
C548 C549 1.363 . S
C548 C553 1.379 . S
C548 N555 1.356 . S
C549 C548 1.363 . S
C549 C552 1.363 . S
N550 C552 1.356 . S
N550 H562 0.984 . S
N550 H563 0.985 . S
N551 C553 1.356 . S
N551 H556 0.984 . S
N551 H557 0.985 . S
C552 C546 1.379 . S
C552 C549 1.363 . S
C552 N550 1.356 . S
C553 C547 1.363 . S
C553 C548 1.379 . S
C553 N551 1.356 . S
N554 C546 1.356 . S
N554 H560 0.984 . S
N554 H561 0.984 . S
N555 C548 1.356 . S
N555 H558 0.984 . S
N555 H559 0.985 . S
H556 N551 0.984 . S
H557 N551 0.985 . S
H558 N555 0.984 . S
H559 N555 0.985 . S
H560 N554 0.984 . S
H561 N554 0.984 . S
H562 N550 0.984 . S
H563 N550 0.985 . S
C564 C565 1.363 . S
C564 C570 1.379 . S
C564 N572 1.356 . S
C565 C564 1.363 . S
C565 C571 1.370 1_655 S
C566 C567 1.370 . S
C566 C571 1.379 . S
C566 N573 1.351 1_556 S
C567 C566 1.370 . S
C567 C570 1.363 1_455 S
N568 C570 1.356 . S
N568 H580 0.984 . S
N568 H581 0.985 1_655 S
N569 C571 1.351 1_554 S
N569 H574 0.984 1_455 S
N569 H575 0.985 . S
C570 C564 1.379 . S
C570 C567 1.363 1_655 S
C570 N568 1.356 . S
C571 C565 1.370 1_455 S
C571 C566 1.379 . S
C571 N569 1.351 1_556 S
N572 C564 1.356 . S
N572 H578 0.984 . S
N572 H579 0.984 . S
N573 C566 1.351 1_554 S
N573 H576 0.984 . S
N573 H577 0.985 . S
H574 N569 0.984 1_655 S
H575 N569 0.985 . S
H576 N573 0.984 . S
H577 N573 0.985 . S
H578 N572 0.984 . S
H579 N572 0.984 . S
H580 N568 0.984 . S
H581 N568 0.985 1_455 S
C582 C583 1.363 . S
C582 C588 1.379 1_545 S
C582 N590 1.356 . S
C583 C582 1.363 . S
C583 C589 1.363 . S
C584 C585 1.363 . S
C584 C589 1.379 1_565 S
C584 N591 1.356 . S
C585 C584 1.363 . S
C585 C588 1.363 . S
N586 C588 1.356 . S
N586 H598 0.984 1_565 S
N586 H599 0.985 . S
N587 C589 1.356 . S
N587 H592 0.984 . S
N587 H593 0.985 1_545 S
C588 C582 1.379 1_565 S
C588 C585 1.363 . S
C588 N586 1.356 . S
C589 C583 1.363 . S
C589 C584 1.379 1_545 S
C589 N587 1.356 . S
N590 C582 1.356 . S
N590 H596 0.984 . S
N590 H597 0.984 . S
N591 C584 1.356 . S
N591 H594 0.984 . S
N591 H595 0.985 . S
H592 N587 0.984 . S
H593 N587 0.985 1_565 S
H594 N591 0.984 . S
H595 N591 0.985 . S
H596 N590 0.984 . S
H597 N590 0.984 . S
H598 N586 0.984 1_545 S
H599 N586 0.985 . S
C169 C11 1.645 . S
C171 C137 1.653 . S
C187 C25 1.653 . S
C189 C151 1.645 . S
C205 C33 1.113 . S
C207 C159 1.113 . S
C223 C53 1.645 . S
C225 C95 1.653 . S
C241 C109 1.645 . S
C243 C67 1.653 . S
C259 C117 1.113 . S
C261 C75 1.113 . S
C277 C145 1.207 . S
C279 C5 1.207 . S
C295 C19 1.201 . S
C297 C165 1.337 . S
C313 C39 1.337 . S
C315 C89 1.200 . S
C331 C47 1.207 . S
C333 C103 1.207 . S
C349 C61 1.201 . S
C351 C123 1.337 . S
C367 C81 1.337 . S
C369 C131 1.200 . S
C385 C130 1.185 . S
C387 C4 1.179 . S
C403 C18 1.185 . S
C405 C144 1.179 . S
C421 C40 0.891 1_545 S
C423 C166 0.891 1_565 S
C439 C88 1.185 . S
C441 C46 1.179 . S
C457 C60 1.185 . S
C459 C102 1.179 . S
C475 C124 0.891 1_545 S
C477 C82 0.891 1_565 S
C493 C12 1.447 . S
C495 C54 1.447 . S
C511 C68 1.496 . S
C513 C26 1.496 . S
C529 C32 1.478 . S
C531 C74 1.478 . S
C547 C96 1.496 . S
C549 C138 1.496 . S
C565 C110 1.447 . S
C567 C152 1.447 . S
C583 C158 1.478 . S
C585 C116 1.478 . S
