# Generated by pormake.
# Topology sst, (4)-cn, num edge types: 1
# Building blocks:
#     Node 0, Type 0, BuildingBlock: NAWXER_clean_sbu_0, # of connection points: 4
#     Node 1, Type 0, BuildingBlock: NAWXER_clean_sbu_0, # of connection points: 4
#     Node 2, Type 0, BuildingBlock: NAWXER_clean_sbu_0, # of connection points: 4
#     Node 3, Type 0, BuildingBlock: NAWXER_clean_sbu_0, # of connection points: 4
#     Node 4, Type 0, BuildingBlock: NAWXER_clean_sbu_0, # of connection points: 4
#     Node 5, Type 0, BuildingBlock: NAWXER_clean_sbu_0, # of connection points: 4
#     Node 6, Type 0, BuildingBlock: NAWXER_clean_sbu_0, # of connection points: 4
#     Node 7, Type 0, BuildingBlock: NAWXER_clean_sbu_0, # of connection points: 4
#     Node 8, Type 0, BuildingBlock: NAWXER_clean_sbu_0, # of connection points: 4
#     Node 9, Type 0, BuildingBlock: NAWXER_clean_sbu_0, # of connection points: 4
#     Node 10, Type 0, BuildingBlock: NAWXER_clean_sbu_0, # of connection points: 4
#     Node 11, Type 0, BuildingBlock: NAWXER_clean_sbu_0, # of connection points: 4
#     Node 12, Type 0, BuildingBlock: NAWXER_clean_sbu_0, # of connection points: 4
#     Node 13, Type 0, BuildingBlock: NAWXER_clean_sbu_0, # of connection points: 4
#     Node 14, Type 0, BuildingBlock: NAWXER_clean_sbu_0, # of connection points: 4
#     Node 15, Type 0, BuildingBlock: NAWXER_clean_sbu_0, # of connection points: 4
#     Node 16, Type 0, BuildingBlock: NAWXER_clean_sbu_0, # of connection points: 4
#     Node 17, Type 0, BuildingBlock: NAWXER_clean_sbu_0, # of connection points: 4
#     Node 18, Type 0, BuildingBlock: NAWXER_clean_sbu_0, # of connection points: 4
#     Node 19, Type 0, BuildingBlock: NAWXER_clean_sbu_0, # of connection points: 4
#     Node 20, Type 0, BuildingBlock: NAWXER_clean_sbu_0, # of connection points: 4
#     Node 21, Type 0, BuildingBlock: NAWXER_clean_sbu_0, # of connection points: 4
#     Node 22, Type 0, BuildingBlock: NAWXER_clean_sbu_0, # of connection points: 4
#     Node 23, Type 0, BuildingBlock: NAWXER_clean_sbu_0, # of connection points: 4
#     Node 24, Type 0, BuildingBlock: NAWXER_clean_sbu_0, # of connection points: 4
#     Node 25, Type 0, BuildingBlock: NAWXER_clean_sbu_0, # of connection points: 4
#     Node 26, Type 0, BuildingBlock: NAWXER_clean_sbu_0, # of connection points: 4
#     Node 27, Type 0, BuildingBlock: NAWXER_clean_sbu_0, # of connection points: 4
#     Node 28, Type 0, BuildingBlock: NAWXER_clean_sbu_0, # of connection points: 4
#     Node 29, Type 0, BuildingBlock: NAWXER_clean_sbu_0, # of connection points: 4
#     Node 30, Type 0, BuildingBlock: NAWXER_clean_sbu_0, # of connection points: 4
#     Node 31, Type 0, BuildingBlock: NAWXER_clean_sbu_0, # of connection points: 4
#     Node 32, Type 0, BuildingBlock: NAWXER_clean_sbu_0, # of connection points: 4
#     Node 33, Type 0, BuildingBlock: NAWXER_clean_sbu_0, # of connection points: 4
#     Node 34, Type 0, BuildingBlock: NAWXER_clean_sbu_0, # of connection points: 4
#     Node 35, Type 0, BuildingBlock: NAWXER_clean_sbu_0, # of connection points: 4
#     Node 36, Type 0, BuildingBlock: NAWXER_clean_sbu_0, # of connection points: 4
#     Node 37, Type 0, BuildingBlock: NAWXER_clean_sbu_0, # of connection points: 4
#     Node 38, Type 0, BuildingBlock: NAWXER_clean_sbu_0, # of connection points: 4
#     Node 39, Type 0, BuildingBlock: NAWXER_clean_sbu_0, # of connection points: 4
#     Node 40, Type 0, BuildingBlock: NAWXER_clean_sbu_0, # of connection points: 4
#     Node 41, Type 0, BuildingBlock: NAWXER_clean_sbu_0, # of connection points: 4
#     Node 42, Type 0, BuildingBlock: NAWXER_clean_sbu_0, # of connection points: 4
#     Node 43, Type 0, BuildingBlock: NAWXER_clean_sbu_0, # of connection points: 4
#     Node 44, Type 0, BuildingBlock: NAWXER_clean_sbu_0, # of connection points: 4
#     Node 45, Type 0, BuildingBlock: NAWXER_clean_sbu_0, # of connection points: 4
#     Node 46, Type 0, BuildingBlock: NAWXER_clean_sbu_0, # of connection points: 4
#     Node 47, Type 0, BuildingBlock: NAWXER_clean_sbu_0, # of connection points: 4
#     Edge 48, Type (0, 0), BuildingBlock: CIFDUS_clean_linker_0, # of connection points: 2
#     Edge 49, Type (0, 0), BuildingBlock: CIFDUS_clean_linker_0, # of connection points: 2
#     Edge 50, Type (0, 0), BuildingBlock: CIFDUS_clean_linker_0, # of connection points: 2
#     Edge 51, Type (0, 0), BuildingBlock: CIFDUS_clean_linker_0, # of connection points: 2
#     Edge 52, Type (0, 0), BuildingBlock: CIFDUS_clean_linker_0, # of connection points: 2
#     Edge 53, Type (0, 0), BuildingBlock: CIFDUS_clean_linker_0, # of connection points: 2
#     Edge 54, Type (0, 0), BuildingBlock: CIFDUS_clean_linker_0, # of connection points: 2
#     Edge 55, Type (0, 0), BuildingBlock: CIFDUS_clean_linker_0, # of connection points: 2
#     Edge 56, Type (0, 0), BuildingBlock: CIFDUS_clean_linker_0, # of connection points: 2
#     Edge 57, Type (0, 0), BuildingBlock: CIFDUS_clean_linker_0, # of connection points: 2
#     Edge 58, Type (0, 0), BuildingBlock: CIFDUS_clean_linker_0, # of connection points: 2
#     Edge 59, Type (0, 0), BuildingBlock: CIFDUS_clean_linker_0, # of connection points: 2
#     Edge 60, Type (0, 0), BuildingBlock: CIFDUS_clean_linker_0, # of connection points: 2
#     Edge 61, Type (0, 0), BuildingBlock: CIFDUS_clean_linker_0, # of connection points: 2
#     Edge 62, Type (0, 0), BuildingBlock: CIFDUS_clean_linker_0, # of connection points: 2
#     Edge 63, Type (0, 0), BuildingBlock: CIFDUS_clean_linker_0, # of connection points: 2
#     Edge 64, Type (0, 0), BuildingBlock: CIFDUS_clean_linker_0, # of connection points: 2
#     Edge 65, Type (0, 0), BuildingBlock: CIFDUS_clean_linker_0, # of connection points: 2
#     Edge 66, Type (0, 0), BuildingBlock: CIFDUS_clean_linker_0, # of connection points: 2
#     Edge 67, Type (0, 0), BuildingBlock: CIFDUS_clean_linker_0, # of connection points: 2
#     Edge 68, Type (0, 0), BuildingBlock: CIFDUS_clean_linker_0, # of connection points: 2
#     Edge 69, Type (0, 0), BuildingBlock: CIFDUS_clean_linker_0, # of connection points: 2
#     Edge 70, Type (0, 0), BuildingBlock: CIFDUS_clean_linker_0, # of connection points: 2
#     Edge 71, Type (0, 0), BuildingBlock: CIFDUS_clean_linker_0, # of connection points: 2
#     Edge 72, Type (0, 0), BuildingBlock: CIFDUS_clean_linker_0, # of connection points: 2
#     Edge 73, Type (0, 0), BuildingBlock: CIFDUS_clean_linker_0, # of connection points: 2
#     Edge 74, Type (0, 0), BuildingBlock: CIFDUS_clean_linker_0, # of connection points: 2
#     Edge 75, Type (0, 0), BuildingBlock: CIFDUS_clean_linker_0, # of connection points: 2
#     Edge 76, Type (0, 0), BuildingBlock: CIFDUS_clean_linker_0, # of connection points: 2
#     Edge 77, Type (0, 0), BuildingBlock: CIFDUS_clean_linker_0, # of connection points: 2
#     Edge 78, Type (0, 0), BuildingBlock: CIFDUS_clean_linker_0, # of connection points: 2
#     Edge 79, Type (0, 0), BuildingBlock: CIFDUS_clean_linker_0, # of connection points: 2
#     Edge 80, Type (0, 0), BuildingBlock: CIFDUS_clean_linker_0, # of connection points: 2
#     Edge 81, Type (0, 0), BuildingBlock: CIFDUS_clean_linker_0, # of connection points: 2
#     Edge 82, Type (0, 0), BuildingBlock: CIFDUS_clean_linker_0, # of connection points: 2
#     Edge 83, Type (0, 0), BuildingBlock: CIFDUS_clean_linker_0, # of connection points: 2
#     Edge 84, Type (0, 0), BuildingBlock: CIFDUS_clean_linker_0, # of connection points: 2
#     Edge 85, Type (0, 0), BuildingBlock: CIFDUS_clean_linker_0, # of connection points: 2
#     Edge 86, Type (0, 0), BuildingBlock: CIFDUS_clean_linker_0, # of connection points: 2
#     Edge 87, Type (0, 0), BuildingBlock: CIFDUS_clean_linker_0, # of connection points: 2
#     Edge 88, Type (0, 0), BuildingBlock: CIFDUS_clean_linker_0, # of connection points: 2
#     Edge 89, Type (0, 0), BuildingBlock: CIFDUS_clean_linker_0, # of connection points: 2
#     Edge 90, Type (0, 0), BuildingBlock: CIFDUS_clean_linker_0, # of connection points: 2
#     Edge 91, Type (0, 0), BuildingBlock: CIFDUS_clean_linker_0, # of connection points: 2
#     Edge 92, Type (0, 0), BuildingBlock: CIFDUS_clean_linker_0, # of connection points: 2
#     Edge 93, Type (0, 0), BuildingBlock: CIFDUS_clean_linker_0, # of connection points: 2
#     Edge 94, Type (0, 0), BuildingBlock: CIFDUS_clean_linker_0, # of connection points: 2
#     Edge 95, Type (0, 0), BuildingBlock: CIFDUS_clean_linker_0, # of connection points: 2
#     Edge 96, Type (0, 0), BuildingBlock: CIFDUS_clean_linker_0, # of connection points: 2
#     Edge 97, Type (0, 0), BuildingBlock: CIFDUS_clean_linker_0, # of connection points: 2
#     Edge 98, Type (0, 0), BuildingBlock: CIFDUS_clean_linker_0, # of connection points: 2
#     Edge 99, Type (0, 0), BuildingBlock: CIFDUS_clean_linker_0, # of connection points: 2
#     Edge 100, Type (0, 0), BuildingBlock: CIFDUS_clean_linker_0, # of connection points: 2
#     Edge 101, Type (0, 0), BuildingBlock: CIFDUS_clean_linker_0, # of connection points: 2
#     Edge 102, Type (0, 0), BuildingBlock: CIFDUS_clean_linker_0, # of connection points: 2
#     Edge 103, Type (0, 0), BuildingBlock: CIFDUS_clean_linker_0, # of connection points: 2
#     Edge 104, Type (0, 0), BuildingBlock: CIFDUS_clean_linker_0, # of connection points: 2
#     Edge 105, Type (0, 0), BuildingBlock: CIFDUS_clean_linker_0, # of connection points: 2
#     Edge 106, Type (0, 0), BuildingBlock: CIFDUS_clean_linker_0, # of connection points: 2
#     Edge 107, Type (0, 0), BuildingBlock: CIFDUS_clean_linker_0, # of connection points: 2
#     Edge 108, Type (0, 0), BuildingBlock: CIFDUS_clean_linker_0, # of connection points: 2
#     Edge 109, Type (0, 0), BuildingBlock: CIFDUS_clean_linker_0, # of connection points: 2
#     Edge 110, Type (0, 0), BuildingBlock: CIFDUS_clean_linker_0, # of connection points: 2
#     Edge 111, Type (0, 0), BuildingBlock: CIFDUS_clean_linker_0, # of connection points: 2
#     Edge 112, Type (0, 0), BuildingBlock: CIFDUS_clean_linker_0, # of connection points: 2
#     Edge 113, Type (0, 0), BuildingBlock: CIFDUS_clean_linker_0, # of connection points: 2
#     Edge 114, Type (0, 0), BuildingBlock: CIFDUS_clean_linker_0, # of connection points: 2
#     Edge 115, Type (0, 0), BuildingBlock: CIFDUS_clean_linker_0, # of connection points: 2
#     Edge 116, Type (0, 0), BuildingBlock: CIFDUS_clean_linker_0, # of connection points: 2
#     Edge 117, Type (0, 0), BuildingBlock: CIFDUS_clean_linker_0, # of connection points: 2
#     Edge 118, Type (0, 0), BuildingBlock: CIFDUS_clean_linker_0, # of connection points: 2
#     Edge 119, Type (0, 0), BuildingBlock: CIFDUS_clean_linker_0, # of connection points: 2
#     Edge 120, Type (0, 0), BuildingBlock: CIFDUS_clean_linker_0, # of connection points: 2
#     Edge 121, Type (0, 0), BuildingBlock: CIFDUS_clean_linker_0, # of connection points: 2
#     Edge 122, Type (0, 0), BuildingBlock: CIFDUS_clean_linker_0, # of connection points: 2
#     Edge 123, Type (0, 0), BuildingBlock: CIFDUS_clean_linker_0, # of connection points: 2
#     Edge 124, Type (0, 0), BuildingBlock: CIFDUS_clean_linker_0, # of connection points: 2
#     Edge 125, Type (0, 0), BuildingBlock: CIFDUS_clean_linker_0, # of connection points: 2
#     Edge 126, Type (0, 0), BuildingBlock: CIFDUS_clean_linker_0, # of connection points: 2
#     Edge 127, Type (0, 0), BuildingBlock: CIFDUS_clean_linker_0, # of connection points: 2
#     Edge 128, Type (0, 0), BuildingBlock: CIFDUS_clean_linker_0, # of connection points: 2
#     Edge 129, Type (0, 0), BuildingBlock: CIFDUS_clean_linker_0, # of connection points: 2
#     Edge 130, Type (0, 0), BuildingBlock: CIFDUS_clean_linker_0, # of connection points: 2
#     Edge 131, Type (0, 0), BuildingBlock: CIFDUS_clean_linker_0, # of connection points: 2
#     Edge 132, Type (0, 0), BuildingBlock: CIFDUS_clean_linker_0, # of connection points: 2
#     Edge 133, Type (0, 0), BuildingBlock: CIFDUS_clean_linker_0, # of connection points: 2
#     Edge 134, Type (0, 0), BuildingBlock: CIFDUS_clean_linker_0, # of connection points: 2
#     Edge 135, Type (0, 0), BuildingBlock: CIFDUS_clean_linker_0, # of connection points: 2
#     Edge 136, Type (0, 0), BuildingBlock: CIFDUS_clean_linker_0, # of connection points: 2
#     Edge 137, Type (0, 0), BuildingBlock: CIFDUS_clean_linker_0, # of connection points: 2
#     Edge 138, Type (0, 0), BuildingBlock: CIFDUS_clean_linker_0, # of connection points: 2
#     Edge 139, Type (0, 0), BuildingBlock: CIFDUS_clean_linker_0, # of connection points: 2
#     Edge 140, Type (0, 0), BuildingBlock: CIFDUS_clean_linker_0, # of connection points: 2
#     Edge 141, Type (0, 0), BuildingBlock: CIFDUS_clean_linker_0, # of connection points: 2
#     Edge 142, Type (0, 0), BuildingBlock: CIFDUS_clean_linker_0, # of connection points: 2
#     Edge 143, Type (0, 0), BuildingBlock: CIFDUS_clean_linker_0, # of connection points: 2
# Relax obj value: 0.000
# Max RMSD: 0.000
# Mean RMSD: 0.000
data_MOF--net-sst--node1-NAWXER_clean_sbu_0--edge1-CIFDUS_clean_linker_0
_symmetry_space_group_name_H-M    P1
_symmetry_Int_Tables_number       1
_symmetry_cell_setting            triclinic
loop_
_symmetry_equiv_pos_as_xyz
'x, y, z'
_cell_length_a     50.833857
_cell_length_b     50.90425
_cell_length_c     50.939463
_cell_angle_alpha  96.885606
_cell_angle_beta   97.086659
_cell_angle_gamma 97.042576
loop_
_atom_site_label
_atom_site_type_symbol
_atom_site_fract_x
_atom_site_fract_y
_atom_site_fract_z
_atom_type_partial_charge
C0 C 0.18328 0.2096 0.41221 0.0
C1 C 0.16357 0.11197 0.40247 0.0
O2 O 0.17528 0.19896 0.38801 0.0
Zn3 Zn 0.1612 0.15998 0.36664 0.0
O4 O 0.18392 0.19494 0.43074 0.0
Zn5 Zn 0.17177 0.16071 0.40858 0.0
O6 O 0.20332 0.15564 0.38471 0.0
O7 O 0.18765 0.15678 0.34237 0.0
O8 O 0.17047 0.12785 0.42421 0.0
O9 O 0.15938 0.12151 0.38038 0.0
O10 O 0.12398 0.16162 0.35318 0.0
O11 O 0.13034 0.16226 0.39679 0.0
C12 C 0.2068 0.15426 0.36011 0.0
C13 C 0.11455 0.16244 0.37522 0.0
C14 C 0.91435 0.20117 0.36316 0.0
C15 C 0.9006 0.10564 0.37419 0.0
O16 O 0.90631 0.18184 0.34444 0.0
Zn17 Zn 0.90583 0.15348 0.36705 0.0
O18 O 0.91826 0.19656 0.38744 0.0
Zn19 Zn 0.91587 0.16322 0.40965 0.0
O20 O 0.95327 0.16641 0.42587 0.0
O21 O 0.94748 0.15682 0.38195 0.0
O22 O 0.90737 0.12139 0.39619 0.0
O23 O 0.89719 0.11557 0.35244 0.0
O24 O 0.87282 0.16134 0.38724 0.0
O25 O 0.88668 0.16945 0.43058 0.0
C26 C 0.96313 0.16186 0.40421 0.0
C27 C 0.86789 0.16715 0.41112 0.0
C28 C 0.89954 0.95321 0.40056 0.0
C29 C 0.90265 0.85789 0.40879 0.0
O30 O 0.89958 0.93838 0.37844 0.0
Zn31 Zn 0.90015 0.89761 0.36403 0.0
O32 O 0.90011 0.94262 0.422 0.0
Zn33 Zn 0.90055 0.90536 0.40665 0.0
O34 O 0.93914 0.90635 0.39386 0.0
O35 O 0.93407 0.89872 0.34982 0.0
O36 O 0.90123 0.87587 0.42807 0.0
O37 O 0.9023 0.86381 0.38503 0.0
O38 O 0.86556 0.88825 0.34117 0.0
O39 O 0.86184 0.89428 0.38415 0.0
C40 C 0.94939 0.90329 0.37212 0.0
C41 C 0.85099 0.88825 0.35978 0.0
C42 C 0.15791 0.95326 0.37602 0.0
C43 C 0.15638 0.85597 0.36981 0.0
O44 O 0.15692 0.93726 0.35454 0.0
Zn45 Zn 0.15609 0.90451 0.37088 0.0
O46 O 0.15808 0.94402 0.39834 0.0
Zn47 Zn 0.15685 0.90676 0.41361 0.0
O48 O 0.19109 0.91133 0.43674 0.0
O49 O 0.19502 0.91051 0.39386 0.0
O50 O 0.1571 0.86789 0.39352 0.0
O51 O 0.15479 0.86921 0.35014 0.0
O52 O 0.11783 0.90226 0.38368 0.0
O53 O 0.12253 0.90418 0.42746 0.0
C54 C 0.20578 0.91267 0.41827 0.0
C55 C 0.10738 0.90247 0.40529 0.0
C56 C 0.15561 0.96133 0.65535 0.0
C57 C 0.15896 0.86678 0.66041 0.0
O58 O 0.15444 0.94735 0.6324 0.0
Zn59 Zn 0.15434 0.90641 0.61606 0.0
O60 O 0.1577 0.95 0.67628 0.0
Zn61 Zn 0.15723 0.91411 0.65848 0.0
O62 O 0.19498 0.91583 0.64308 0.0
O63 O 0.18622 0.9073 0.59908 0.0
O64 O 0.15848 0.88499 0.67967 0.0
O65 O 0.15754 0.87235 0.63646 0.0
O66 O 0.11934 0.89722 0.59418 0.0
O67 O 0.11736 0.90529 0.63733 0.0
C68 C 0.20316 0.91256 0.62021 0.0
C69 C 0.10546 0.89921 0.61326 0.0
C70 C 0.13257 0.2112 0.68219 0.0
C71 C 0.13556 0.11515 0.68048 0.0
O72 O 0.12733 0.19807 0.65862 0.0
Zn73 Zn 0.12458 0.15761 0.64003 0.0
O74 O 0.13819 0.19906 0.70215 0.0
Zn75 Zn 0.13378 0.16327 0.68269 0.0
O76 O 0.16787 0.16546 0.66156 0.0
O77 O 0.15366 0.15815 0.6182 0.0
O78 O 0.13882 0.13233 0.70135 0.0
O79 O 0.12996 0.12256 0.65755 0.0
O80 O 0.08748 0.15018 0.62369 0.0
O81 O 0.09162 0.15626 0.66768 0.0
C82 C 0.17287 0.16278 0.63741 0.0
C83 C 0.07665 0.15158 0.64496 0.0
C84 C 0.86136 0.16674 0.61994 0.0
C85 C 0.87123 0.0728 0.62724 0.0
O86 O 0.86003 0.14782 0.60088 0.0
Zn87 Zn 0.86558 0.11917 0.62239 0.0
O88 O 0.86565 0.16198 0.64411 0.0
Zn89 Zn 0.87252 0.12877 0.66486 0.0
O90 O 0.90931 0.13941 0.6828 0.0
O91 O 0.90674 0.13 0.63914 0.0
O92 O 0.87372 0.08772 0.64979 0.0
O93 O 0.86625 0.08289 0.60576 0.0
O94 O 0.83023 0.11402 0.64157 0.0
O95 O 0.84233 0.12591 0.68491 0.0
C96 C 0.92094 0.13715 0.66205 0.0
C97 C 0.82408 0.11715 0.66531 0.0
C98 C 0.89586 0.92421 0.64976 0.0
C99 C 0.9027 0.8298 0.65656 0.0
O100 O 0.89607 0.90997 0.62728 0.0
Zn101 Zn 0.89854 0.86942 0.61182 0.0
O102 O 0.898 0.91341 0.67108 0.0
Zn103 Zn 0.89989 0.87732 0.65461 0.0
O104 O 0.93757 0.88187 0.64056 0.0
O105 O 0.9323 0.87299 0.59661 0.0
O106 O 0.90181 0.84807 0.67568 0.0
O107 O 0.90179 0.8354 0.63261 0.0
O108 O 0.8633 0.85989 0.58969 0.0
O109 O 0.86109 0.86692 0.63289 0.0
C110 C 0.94769 0.87995 0.61871 0.0
C111 C 0.84937 0.86089 0.60885 0.0
C112 C 0.36769 0.17532 0.14007 0.0
C113 C 0.37925 0.08225 0.14585 0.0
O114 O 0.39196 0.17061 0.14133 0.0
Zn115 Zn 0.41437 0.13789 0.14287 0.0
O116 O 0.34864 0.15636 0.13924 0.0
Zn117 Zn 0.37193 0.1289 0.14201 0.0
O118 O 0.39443 0.14295 0.181 0.0
O119 O 0.43744 0.14931 0.17676 0.0
O120 O 0.35745 0.09221 0.14426 0.0
O121 O 0.40123 0.09731 0.14543 0.0
O122 O 0.42869 0.13665 0.10912 0.0
O123 O 0.38474 0.12709 0.10349 0.0
C124 C 0.41893 0.15021 0.19142 0.0
C125 C 0.40663 0.13066 0.09353 0.0
C126 C 0.93851 0.39012 0.1407 0.0
C127 C 0.84113 0.38788 0.13347 0.0
O128 O 0.92118 0.36923 0.13634 0.0
Zn129 Zn 0.88967 0.38787 0.13506 0.0
O130 O 0.93067 0.41319 0.14309 0.0
Zn131 Zn 0.89442 0.43073 0.14209 0.0
O132 O 0.89874 0.44935 0.17829 0.0
O133 O 0.89187 0.40529 0.17591 0.0
O134 O 0.85394 0.41162 0.13836 0.0
O135 O 0.8537 0.36813 0.12856 0.0
O136 O 0.89288 0.407 0.10033 0.0
O137 O 0.89554 0.45054 0.11139 0.0
C138 C 0.89521 0.42852 0.18971 0.0
C139 C 0.89521 0.43059 0.09369 0.0
C140 C 0.6265 0.92562 0.12917 0.0
C141 C 0.62183 0.8289 0.12635 0.0
O142 O 0.64924 0.9171 0.13099 0.0
Zn143 Zn 0.66555 0.88051 0.13124 0.0
O144 O 0.60505 0.90912 0.12663 0.0
Zn145 Zn 0.6226 0.87744 0.12733 0.0
O146 O 0.64295 0.88496 0.16745 0.0
O147 O 0.68648 0.88622 0.16645 0.0
O148 O 0.60212 0.842 0.12409 0.0
O149 O 0.64574 0.84113 0.12915 0.0
O150 O 0.68256 0.8796 0.09903 0.0
O151 O 0.63865 0.87698 0.09069 0.0
C152 C 0.66696 0.88817 0.17967 0.0
C153 C 0.66145 0.87818 0.08234 0.0
C154 C 0.18139 0.61765 0.12673 0.0
C155 C 0.08534 0.62273 0.12332 0.0
O156 O 0.16249 0.59819 0.12122 0.0
Zn157 Zn 0.13309 0.61913 0.12483 0.0
O158 O 0.1761 0.64148 0.13218 0.0
Zn159 Zn 0.14185 0.66164 0.13437 0.0
O160 O 0.14781 0.67825 0.17091 0.0
O161 O 0.13793 0.63427 0.16676 0.0
O162 O 0.10025 0.64545 0.12889 0.0
O163 O 0.09607 0.60159 0.11902 0.0
O164 O 0.13508 0.64095 0.0915 0.0
O165 O 0.14398 0.68408 0.10631 0.0
C166 C 0.14341 0.65706 0.18151 0.0
C167 C 0.1395 0.66522 0.0869 0.0
C168 C 0.37895 0.92474 0.87851 0.0
C169 C 0.36944 0.82763 0.88246 0.0
O170 O 0.40101 0.91586 0.88491 0.0
Zn171 Zn 0.415 0.87905 0.89071 0.0
O172 O 0.35723 0.90851 0.87391 0.0
Zn173 Zn 0.37231 0.87558 0.87954 0.0
O174 O 0.38555 0.88127 0.92159 0.0
O175 O 0.42967 0.88515 0.92843 0.0
O176 O 0.35041 0.84052 0.87531 0.0
O177 O 0.39345 0.83977 0.88826 0.0
O178 O 0.43762 0.87506 0.86247 0.0
O179 O 0.39451 0.86998 0.84704 0.0
C180 C 0.40747 0.88436 0.93773 0.0
C181 C 0.41884 0.87023 0.84284 0.0
C182 C 0.20653 0.37092 0.90658 0.0
C183 C 0.11303 0.38418 0.90214 0.0
O184 O 0.18624 0.35309 0.90385 0.0
Zn185 Zn 0.15988 0.37719 0.90597 0.0
O186 O 0.20384 0.39573 0.91091 0.0
Zn187 Zn 0.17155 0.419 0.91521 0.0
O188 O 0.17771 0.43557 0.95211 0.0
O189 O 0.16457 0.39224 0.94779 0.0
O190 O 0.12921 0.40607 0.90823 0.0
O191 O 0.12233 0.36215 0.89872 0.0
O192 O 0.16529 0.39869 0.87225 0.0
O193 O 0.17533 0.44174 0.88797 0.0
C194 C 0.17131 0.41481 0.96273 0.0
C195 C 0.17107 0.42307 0.86838 0.0
C196 C 0.65402 0.19763 0.89473 0.0
C197 C 0.65268 0.10095 0.8909 0.0
O198 O 0.67361 0.18512 0.90062 0.0
Zn199 Zn 0.65374 0.14942 0.89481 0.0
O200 O 0.6302 0.18491 0.88962 0.0
Zn201 Zn 0.61132 0.14435 0.88708 0.0
O202 O 0.59048 0.14427 0.91673 0.0
O203 O 0.63386 0.14721 0.92955 0.0
O204 O 0.62929 0.10817 0.88768 0.0
O205 O 0.67321 0.11869 0.89523 0.0
O206 O 0.63665 0.14597 0.85322 0.0
O207 O 0.59258 0.13893 0.8512 0.0
C208 C 0.60987 0.1452 0.93525 0.0
C209 C 0.61323 0.14211 0.83952 0.0
C210 C 0.92745 0.65985 0.87532 0.0
C211 C 0.83311 0.67077 0.87369 0.0
O212 O 0.91191 0.63758 0.87224 0.0
Zn213 Zn 0.8704 0.62396 0.87069 0.0
O214 O 0.91762 0.68161 0.87866 0.0
Zn215 Zn 0.8804 0.66674 0.87695 0.0
O216 O 0.87919 0.64915 0.91253 0.0
O217 O 0.86854 0.60555 0.90188 0.0
O218 O 0.85261 0.68972 0.87897 0.0
O219 O 0.83748 0.6464 0.87106 0.0
O220 O 0.86103 0.60478 0.83466 0.0
O221 O 0.86943 0.64872 0.83641 0.0
C222 C 0.87442 0.62595 0.91964 0.0
C223 C 0.86187 0.62556 0.82294 0.0
C224 C 0.18846 0.36281 0.17156 0.0
C225 C 0.09189 0.36551 0.1516 0.0
O226 O 0.17015 0.34275 0.16628 0.0
Zn227 Zn 0.13995 0.36262 0.16006 0.0
O228 O 0.18238 0.38635 0.1704 0.0
Zn229 Zn 0.14779 0.40526 0.16187 0.0
O230 O 0.14944 0.4282 0.19537 0.0
O231 O 0.14057 0.38516 0.19862 0.0
O232 O 0.10645 0.38837 0.15439 0.0
O233 O 0.1031 0.34458 0.15299 0.0
O234 O 0.14575 0.37643 0.12297 0.0
O235 O 0.15385 0.42041 0.12935 0.0
C236 C 0.1444 0.40964 0.20945 0.0
C237 C 0.15099 0.39852 0.11371 0.0
C238 C 0.17518 0.62907 0.87295 0.0
C239 C 0.07942 0.63549 0.87139 0.0
O240 O 0.15602 0.6103 0.86444 0.0
Zn241 Zn 0.12674 0.63099 0.8706 0.0
O242 O 0.17011 0.65259 0.88062 0.0
Zn243 Zn 0.13643 0.67334 0.88392 0.0
O244 O 0.14205 0.68679 0.9219 0.0
O245 O 0.13335 0.64277 0.91286 0.0
O246 O 0.09475 0.65783 0.87829 0.0
O247 O 0.08962 0.61428 0.86542 0.0
O248 O 0.12589 0.65528 0.83969 0.0
O249 O 0.13845 0.69751 0.85705 0.0
C250 C 0.13881 0.66401 0.92994 0.0
C251 C 0.13049 0.67995 0.83676 0.0
C252 C 0.42017 0.18166 0.90124 0.0
C253 C 0.40763 0.08344 0.88042 0.0
O254 O 0.43856 0.16731 0.89743 0.0
Zn255 Zn 0.4154 0.13306 0.88871 0.0
O256 O 0.39566 0.17077 0.89775 0.0
Zn257 Zn 0.37281 0.13171 0.88698 0.0
O258 O 0.35626 0.1289 0.91945 0.0
O259 O 0.40018 0.13024 0.92575 0.0
O260 O 0.38578 0.09341 0.8813 0.0
O261 O 0.42963 0.0991 0.88312 0.0
O262 O 0.39553 0.13701 0.85035 0.0
O263 O 0.35218 0.13373 0.85214 0.0
C264 C 0.37786 0.12885 0.93512 0.0
C265 C 0.37166 0.13691 0.83883 0.0
C266 C 0.95358 0.37086 0.89067 0.0
C267 C 0.85745 0.37485 0.88682 0.0
O268 O 0.93534 0.35076 0.88765 0.0
Zn269 Zn 0.90532 0.3711 0.88672 0.0
O270 O 0.94711 0.39453 0.89228 0.0
Zn271 Zn 0.91224 0.41435 0.89147 0.0
O272 O 0.91766 0.43482 0.92753 0.0
O273 O 0.91135 0.39099 0.92686 0.0
O274 O 0.8718 0.39773 0.88982 0.0
O275 O 0.86826 0.35372 0.88294 0.0
O276 O 0.90799 0.38714 0.85038 0.0
O277 O 0.91256 0.43112 0.85861 0.0
C278 C 0.9156 0.41456 0.94002 0.0
C279 C 0.91073 0.40992 0.84206 0.0
C280 C 0.68205 0.94964 0.88931 0.0
C281 C 0.68282 0.85207 0.88186 0.0
O282 O 0.70327 0.93854 0.89109 0.0
Zn283 Zn 0.68516 0.90125 0.88465 0.0
O284 O 0.65919 0.93502 0.88511 0.0
Zn285 Zn 0.64152 0.8945 0.87905 0.0
O286 O 0.62303 0.89256 0.91021 0.0
O287 O 0.66711 0.89855 0.92004 0.0
O288 O 0.65969 0.85957 0.87986 0.0
O289 O 0.70368 0.86923 0.88365 0.0
O290 O 0.66676 0.89907 0.84457 0.0
O291 O 0.62286 0.89026 0.8425 0.0
C292 C 0.64392 0.89499 0.92748 0.0
C293 C 0.6434 0.89495 0.83091 0.0
C294 C 0.92711 0.60181 0.12655 0.0
C295 C 0.82973 0.60116 0.11581 0.0
O296 O 0.90965 0.58124 0.12465 0.0
Zn297 Zn 0.87814 0.60021 0.12337 0.0
O298 O 0.91953 0.62494 0.12766 0.0
Zn299 Zn 0.88392 0.64285 0.12664 0.0
O300 O 0.88775 0.66364 0.16168 0.0
O301 O 0.88072 0.62028 0.16333 0.0
O302 O 0.84307 0.62462 0.11895 0.0
O303 O 0.84192 0.58092 0.11764 0.0
O304 O 0.87956 0.61676 0.08632 0.0
O305 O 0.88609 0.6608 0.09561 0.0
C306 C 0.88453 0.64438 0.1752 0.0
C307 C 0.88271 0.63984 0.0785 0.0
C308 C 0.40613 0.93131 0.14911 0.0
C309 C 0.41309 0.83539 0.13974 0.0
O310 O 0.42776 0.9211 0.15259 0.0
Zn311 Zn 0.41183 0.88374 0.14452 0.0
O312 O 0.38377 0.91597 0.14241 0.0
Zn313 Zn 0.36855 0.8746 0.13382 0.0
O314 O 0.34649 0.86896 0.16245 0.0
O315 O 0.38977 0.87949 0.17668 0.0
O316 O 0.38943 0.84124 0.13439 0.0
O317 O 0.43276 0.85398 0.14687 0.0
O318 O 0.39798 0.88061 0.10301 0.0
O319 O 0.35391 0.87144 0.09608 0.0
C320 C 0.36582 0.87374 0.1816 0.0
C321 C 0.37599 0.87611 0.08691 0.0
C322 C 0.65736 0.18106 0.14586 0.0
C323 C 0.65111 0.08423 0.13944 0.0
O324 O 0.67713 0.16828 0.15003 0.0
Zn325 Zn 0.65619 0.13275 0.14449 0.0
O326 O 0.63347 0.16869 0.14156 0.0
Zn327 Zn 0.6126 0.12981 0.13782 0.0
O328 O 0.59453 0.13058 0.17009 0.0
O329 O 0.63818 0.13121 0.17948 0.0
O330 O 0.62848 0.09299 0.13705 0.0
O331 O 0.67277 0.10058 0.14368 0.0
O332 O 0.63836 0.12925 0.10403 0.0
O333 O 0.59437 0.12689 0.10069 0.0
C334 C 0.6151 0.13037 0.18709 0.0
C335 C 0.61556 0.12727 0.08956 0.0
C336 C 0.64224 0.69815 0.88844 0.0
C337 C 0.63801 0.60077 0.88203 0.0
O338 O 0.63698 0.68626 0.86434 0.0
Zn339 Zn 0.62895 0.64575 0.84381 0.0
O340 O 0.64233 0.68452 0.90782 0.0
Zn341 Zn 0.63647 0.64953 0.88643 0.0
O342 O 0.6709 0.65309 0.86625 0.0
O343 O 0.65832 0.64751 0.82249 0.0
O344 O 0.64046 0.6176 0.90306 0.0
O345 O 0.63343 0.60876 0.85918 0.0
O346 O 0.59141 0.64139 0.82716 0.0
O347 O 0.59526 0.64493 0.87095 0.0
C348 C 0.67678 0.65244 0.84249 0.0
C349 C 0.58043 0.64203 0.8483 0.0
C350 C 0.37904 0.67754 0.90782 0.0
C351 C 0.38615 0.58418 0.91874 0.0
O352 O 0.37671 0.66243 0.88537 0.0
Zn353 Zn 0.37794 0.62083 0.87147 0.0
O354 O 0.38326 0.66761 0.92946 0.0
Zn355 Zn 0.38245 0.63096 0.9138 0.0
O356 O 0.41904 0.63309 0.89674 0.0
O357 O 0.40968 0.6225 0.85307 0.0
O358 O 0.38615 0.60349 0.93704 0.0
O359 O 0.38324 0.58828 0.89423 0.0
O360 O 0.34216 0.61002 0.85137 0.0
O361 O 0.34193 0.62112 0.89451 0.0
C362 C 0.42698 0.62954 0.8738 0.0
C363 C 0.32912 0.6136 0.87097 0.0
C364 C 0.40719 0.43113 0.92179 0.0
C365 C 0.41263 0.33612 0.9305 0.0
O366 O 0.40601 0.41529 0.90009 0.0
Zn367 Zn 0.40553 0.3747 0.88557 0.0
O368 O 0.40868 0.4217 0.94392 0.0
Zn369 Zn 0.40893 0.38386 0.9287 0.0
O370 O 0.44595 0.38601 0.91245 0.0
O371 O 0.43735 0.37645 0.86847 0.0
O372 O 0.41202 0.35422 0.94995 0.0
O373 O 0.41025 0.34173 0.9066 0.0
O374 O 0.36997 0.36564 0.86503 0.0
O375 O 0.36923 0.37324 0.90854 0.0
C376 C 0.45423 0.38277 0.88965 0.0
C377 C 0.35684 0.36694 0.88474 0.0
C378 C 0.6572 0.44579 0.86768 0.0
C379 C 0.65342 0.34843 0.8679 0.0
O380 O 0.65481 0.42818 0.84722 0.0
Zn381 Zn 0.65598 0.39649 0.86567 0.0
O382 O 0.66042 0.43857 0.89094 0.0
Zn383 Zn 0.66254 0.40321 0.9089 0.0
O384 O 0.69914 0.40782 0.92713 0.0
O385 O 0.69651 0.39874 0.88325 0.0
O386 O 0.65805 0.36243 0.89103 0.0
O387 O 0.64986 0.35986 0.84704 0.0
O388 O 0.62103 0.39628 0.8843 0.0
O389 O 0.63155 0.40283 0.92815 0.0
C390 C 0.71039 0.40275 0.90646 0.0
C391 C 0.61382 0.39875 0.90755 0.0
C392 C 0.63156 0.42296 0.12007 0.0
C393 C 0.63677 0.32934 0.12662 0.0
O394 O 0.62852 0.40387 0.10097 0.0
Zn395 Zn 0.63336 0.37572 0.12264 0.0
O396 O 0.63675 0.41826 0.14418 0.0
Zn397 Zn 0.64231 0.38524 0.16528 0.0
O398 O 0.67972 0.39442 0.18161 0.0
O399 O 0.67497 0.38329 0.13785 0.0
O400 O 0.64136 0.34393 0.1495 0.0
O401 O 0.63024 0.33961 0.10562 0.0
O402 O 0.59941 0.3745 0.14329 0.0
O403 O 0.61242 0.38497 0.18658 0.0
C404 C 0.69011 0.39003 0.16027 0.0
C405 C 0.5936 0.3784 0.16708 0.0
C406 C 0.63439 0.67456 0.12246 0.0
C407 C 0.62477 0.5785 0.12079 0.0
O408 O 0.63122 0.66249 0.09845 0.0
Zn409 Zn 0.62832 0.62168 0.07943 0.0
O410 O 0.63652 0.6613 0.14199 0.0
Zn411 Zn 0.6307 0.6264 0.1216 0.0
O412 O 0.66791 0.62242 0.10741 0.0
O413 O 0.66131 0.62077 0.06359 0.0
O414 O 0.62673 0.5965 0.14077 0.0
O415 O 0.62506 0.58515 0.09729 0.0
O416 O 0.59398 0.61722 0.05648 0.0
O417 O 0.5914 0.6242 0.09974 0.0
C418 C 0.67694 0.62045 0.08501 0.0
C419 C 0.58006 0.62063 0.07541 0.0
C420 C 0.38977 0.67712 0.13002 0.0
C421 C 0.39105 0.58348 0.14156 0.0
O422 O 0.38363 0.66109 0.10807 0.0
Zn423 Zn 0.37986 0.619 0.09442 0.0
O424 O 0.39477 0.66796 0.15199 0.0
Zn425 Zn 0.38969 0.63064 0.13695 0.0
O426 O 0.4226 0.63061 0.11523 0.0
O427 O 0.40893 0.61748 0.07229 0.0
O428 O 0.39534 0.60349 0.15979 0.0
O429 O 0.38525 0.58703 0.11716 0.0
O430 O 0.34219 0.6103 0.07908 0.0
O431 O 0.34784 0.62217 0.12271 0.0
C432 C 0.4279 0.62572 0.09137 0.0
C433 C 0.3322 0.61452 0.10067 0.0
C434 C 0.38954 0.42777 0.15052 0.0
C435 C 0.38444 0.33319 0.15903 0.0
O436 O 0.38502 0.40806 0.132 0.0
Zn437 Zn 0.38707 0.37984 0.15399 0.0
O438 O 0.39363 0.42357 0.17489 0.0
Zn439 Zn 0.39527 0.39035 0.19654 0.0
O440 O 0.43248 0.39597 0.21412 0.0
O441 O 0.42845 0.38419 0.17054 0.0
O442 O 0.39004 0.3484 0.18153 0.0
O443 O 0.38083 0.34322 0.13737 0.0
O444 O 0.35258 0.38025 0.17357 0.0
O445 O 0.36504 0.39258 0.21682 0.0
C446 C 0.44325 0.39013 0.19329 0.0
C447 C 0.34655 0.38508 0.19715 0.0
C448 C 0.89719 0.67259 0.63954 0.0
C449 C 0.87908 0.57525 0.61607 0.0
O450 O 0.91432 0.65645 0.63785 0.0
Zn451 Zn 0.88934 0.62384 0.62676 0.0
O452 O 0.87214 0.6637 0.63413 0.0
Zn453 Zn 0.84706 0.62612 0.62127 0.0
O454 O 0.82681 0.62281 0.65104 0.0
O455 O 0.86966 0.61855 0.66051 0.0
O456 O 0.85786 0.58657 0.61504 0.0
O457 O 0.90196 0.58953 0.6213 0.0
O458 O 0.87309 0.62928 0.58792 0.0
O459 O 0.82966 0.6305 0.58588 0.0
C460 C 0.84623 0.61808 0.66727 0.0
C461 C 0.85067 0.63169 0.5746 0.0
C462 C 0.45418 0.89962 0.64348 0.0
C463 C 0.35981 0.90706 0.64536 0.0
O464 O 0.4393 0.87684 0.63896 0.0
Zn465 Zn 0.39763 0.86134 0.63701 0.0
O466 O 0.44383 0.92071 0.6493 0.0
Zn467 Zn 0.40752 0.90357 0.64698 0.0
O468 O 0.40949 0.88263 0.68072 0.0
O469 O 0.39668 0.83987 0.66624 0.0
O470 O 0.37957 0.92547 0.65224 0.0
O471 O 0.36389 0.88285 0.63933 0.0
O472 O 0.39024 0.84426 0.59999 0.0
O473 O 0.39871 0.88838 0.60509 0.0
C474 C 0.40478 0.85852 0.6855 0.0
C475 C 0.39264 0.86594 0.5898 0.0
C476 C 0.13261 0.46012 0.66358 0.0
C477 C 0.12483 0.36381 0.66776 0.0
O478 O 0.155 0.45088 0.66416 0.0
Zn479 Zn 0.16977 0.41327 0.66524 0.0
O480 O 0.11128 0.44435 0.66415 0.0
Zn481 Zn 0.12751 0.41187 0.66525 0.0
O482 O 0.15134 0.41901 0.70387 0.0
O483 O 0.19387 0.41894 0.6985 0.0
O484 O 0.10573 0.37777 0.66592 0.0
O485 O 0.14887 0.37474 0.6676 0.0
O486 O 0.18365 0.40856 0.63134 0.0
O487 O 0.13972 0.40661 0.62668 0.0
C488 C 0.17605 0.42103 0.71382 0.0
C489 C 0.16133 0.40589 0.61625 0.0
C490 C 0.66625 0.09278 0.64801 0.0
C491 C 0.57136 0.10683 0.62907 0.0
O492 O 0.64638 0.07417 0.64349 0.0
Zn493 Zn 0.61809 0.09712 0.63734 0.0
O494 O 0.66234 0.11693 0.64674 0.0
Zn495 Zn 0.63099 0.13964 0.63873 0.0
O496 O 0.6351 0.16308 0.67254 0.0
O497 O 0.62097 0.12076 0.67543 0.0
O498 O 0.58885 0.12767 0.63145 0.0
O499 O 0.57918 0.08415 0.6308 0.0
O500 O 0.62587 0.10924 0.60016 0.0
O501 O 0.63907 0.15269 0.60575 0.0
C502 C 0.62744 0.14508 0.68639 0.0
C503 C 0.63396 0.13042 0.59053 0.0
C504 C 0.92708 0.45424 0.39962 0.0
C505 C 0.93498 0.35871 0.37838 0.0
O506 O 0.94895 0.44448 0.39901 0.0
Zn507 Zn 0.93286 0.4068 0.39058 0.0
O508 O 0.90486 0.43848 0.39565 0.0
Zn509 Zn 0.89014 0.39689 0.38625 0.0
O510 O 0.87364 0.38885 0.41719 0.0
O511 O 0.91756 0.39809 0.4265 0.0
O512 O 0.91094 0.36371 0.37841 0.0
O513 O 0.95435 0.37774 0.38449 0.0
O514 O 0.91179 0.40753 0.35149 0.0
O515 O 0.86849 0.39585 0.35194 0.0
C516 C 0.8948 0.39132 0.43398 0.0
C517 C 0.88768 0.40325 0.33943 0.0
C518 C 0.69676 0.87109 0.37266 0.0
C519 C 0.60136 0.87737 0.37581 0.0
O520 O 0.6782 0.85151 0.37118 0.0
Zn521 Zn 0.64924 0.87285 0.37426 0.0
O522 O 0.69151 0.89515 0.37651 0.0
Zn523 Zn 0.65738 0.91584 0.38141 0.0
O524 O 0.66588 0.93376 0.41841 0.0
O525 O 0.65846 0.88977 0.41492 0.0
O526 O 0.61619 0.90011 0.37957 0.0
O527 O 0.61204 0.85623 0.37139 0.0
O528 O 0.65076 0.89198 0.33946 0.0
O529 O 0.6572 0.93585 0.35102 0.0
C530 C 0.66441 0.91257 0.42944 0.0
C531 C 0.6541 0.91561 0.33309 0.0
C532 C 0.16668 0.70446 0.38785 0.0
C533 C 0.16759 0.60871 0.39092 0.0
O534 O 0.18674 0.69278 0.39444 0.0
Zn535 Zn 0.16783 0.65679 0.39006 0.0
O536 O 0.14318 0.69099 0.38258 0.0
Zn537 Zn 0.12525 0.65013 0.38107 0.0
O538 O 0.10338 0.65142 0.40996 0.0
O539 O 0.14676 0.65739 0.42396 0.0
O540 O 0.14405 0.61518 0.38597 0.0
O541 O 0.1878 0.62675 0.39414 0.0
O542 O 0.15213 0.65062 0.34828 0.0
O543 O 0.10801 0.642 0.34452 0.0
C544 C 0.12258 0.65501 0.42911 0.0
C545 C 0.12921 0.64518 0.33369 0.0
C546 C 0.45585 0.14563 0.39252 0.0
C547 C 0.35828 0.13512 0.37094 0.0
O548 O 0.44007 0.12369 0.38653 0.0
Zn549 Zn 0.4068 0.13856 0.38309 0.0
O550 O 0.44616 0.16773 0.39534 0.0
Zn551 Zn 0.4079 0.18146 0.39224 0.0
O552 O 0.40461 0.1956 0.42977 0.0
O553 O 0.40257 0.15186 0.42291 0.0
O554 O 0.36927 0.15932 0.37836 0.0
O555 O 0.37249 0.1162 0.371 0.0
O556 O 0.41154 0.1604 0.3506 0.0
O557 O 0.41083 0.20343 0.36312 0.0
C558 C 0.40175 0.1732 0.43864 0.0
C559 C 0.41284 0.18435 0.34512 0.0
C560 C 0.69792 0.86992 0.62485 0.0
C561 C 0.60421 0.88197 0.62174 0.0
O562 O 0.67764 0.85202 0.62124 0.0
Zn563 Zn 0.65103 0.87582 0.62364 0.0
O564 O 0.69508 0.89465 0.62961 0.0
Zn565 Zn 0.6624 0.91769 0.63331 0.0
O566 O 0.66907 0.93367 0.67047 0.0
O567 O 0.65508 0.89036 0.66547 0.0
O568 O 0.61987 0.90422 0.62798 0.0
O569 O 0.61405 0.86047 0.61656 0.0
O570 O 0.65586 0.89735 0.59044 0.0
O571 O 0.66587 0.94042 0.60539 0.0
C572 C 0.66198 0.91274 0.68063 0.0
C573 C 0.66152 0.92153 0.58599 0.0
C574 C 0.71185 0.17668 0.39571 0.0
C575 C 0.61416 0.17174 0.39306 0.0
O576 O 0.69999 0.15303 0.39588 0.0
Zn577 Zn 0.66 0.13319 0.39235 0.0
O578 O 0.69804 0.19562 0.39292 0.0
Zn579 Zn 0.6625 0.17563 0.39254 0.0
O580 O 0.66476 0.16229 0.43103 0.0
O581 O 0.66055 0.11817 0.4258 0.0
O582 O 0.63035 0.19305 0.39337 0.0
O583 O 0.62309 0.14925 0.39247 0.0
O584 O 0.65416 0.11065 0.35755 0.0
O585 O 0.65337 0.15322 0.35365 0.0
C586 C 0.66335 0.14035 0.44112 0.0
C587 C 0.65061 0.12882 0.34289 0.0
C588 C 0.92023 0.70419 0.39053 0.0
C589 C 0.92753 0.6089 0.3858 0.0
O590 O 0.94126 0.69302 0.39041 0.0
Zn591 Zn 0.92403 0.65655 0.38531 0.0
O592 O 0.89718 0.68976 0.38686 0.0
Zn593 Zn 0.88186 0.64746 0.38034 0.0
O594 O 0.8618 0.64499 0.40997 0.0
O595 O 0.90562 0.65489 0.4214 0.0
O596 O 0.9032 0.61363 0.3833 0.0
O597 O 0.94632 0.62804 0.38667 0.0
O598 O 0.90573 0.65148 0.34451 0.0
O599 O 0.86242 0.64065 0.34444 0.0
C600 C 0.88207 0.65031 0.42803 0.0
C601 C 0.88203 0.64524 0.33168 0.0
C602 C 0.45033 0.89778 0.39427 0.0
C603 C 0.35787 0.91217 0.40142 0.0
O604 O 0.43393 0.87597 0.3881 0.0
Zn605 Zn 0.39116 0.86375 0.38576 0.0
O606 O 0.44139 0.9194 0.40133 0.0
Zn607 Zn 0.40393 0.90566 0.39737 0.0
O608 O 0.40114 0.88248 0.42925 0.0
O609 O 0.38911 0.83984 0.41318 0.0
O610 O 0.37823 0.92995 0.40395 0.0
O611 O 0.36013 0.88752 0.39479 0.0
O612 O 0.37993 0.85051 0.34757 0.0
O613 O 0.39461 0.89369 0.35573 0.0
C614 C 0.3951 0.85819 0.4331 0.0
C615 C 0.3856 0.87274 0.33906 0.0
C616 C 0.20009 0.46205 0.41231 0.0
C617 C 0.20533 0.36586 0.40944 0.0
O618 O 0.22136 0.45121 0.41183 0.0
Zn619 Zn 0.20432 0.4144 0.41108 0.0
O620 O 0.17785 0.4475 0.41321 0.0
Zn621 Zn 0.16227 0.40651 0.41329 0.0
O622 O 0.14982 0.40674 0.44749 0.0
O623 O 0.19389 0.41448 0.45074 0.0
O624 O 0.18206 0.37212 0.4118 0.0
O625 O 0.22433 0.38385 0.40719 0.0
O626 O 0.17867 0.40927 0.3737 0.0
O627 O 0.13678 0.3992 0.38069 0.0
C628 C 0.17263 0.41118 0.46187 0.0
C629 C 0.15367 0.40373 0.36475 0.0
C630 C 0.41546 0.11689 0.63134 0.0
C631 C 0.32202 0.13484 0.62471 0.0
O632 O 0.39447 0.09972 0.62652 0.0
Zn633 Zn 0.36847 0.1251 0.62893 0.0
O634 O 0.41315 0.14172 0.63661 0.0
Zn635 Zn 0.38207 0.16653 0.64009 0.0
O636 O 0.38853 0.18105 0.67777 0.0
O637 O 0.37232 0.13823 0.67134 0.0
O638 O 0.33908 0.15598 0.63235 0.0
O639 O 0.33039 0.11244 0.61998 0.0
O640 O 0.37586 0.14764 0.59649 0.0
O641 O 0.38898 0.18987 0.61318 0.0
C642 C 0.38038 0.16001 0.68726 0.0
C643 C 0.3836 0.17181 0.593 0.0
C644 C 0.88246 0.42197 0.63397 0.0
C645 C 0.86586 0.32422 0.62993 0.0
O646 O 0.90366 0.41068 0.63623 0.0
Zn647 Zn 0.91491 0.37148 0.6366 0.0
O648 O 0.85955 0.40788 0.63173 0.0
Zn649 Zn 0.87286 0.37373 0.63344 0.0
O650 O 0.8928 0.37967 0.67363 0.0
O651 O 0.935 0.37417 0.67239 0.0
O652 O 0.84862 0.34028 0.63112 0.0
O653 O 0.89067 0.33348 0.63153 0.0
O654 O 0.93241 0.36917 0.60455 0.0
O655 O 0.88898 0.37053 0.59634 0.0
C656 C 0.91631 0.3793 0.68584 0.0
C657 C 0.91161 0.36948 0.58788 0.0
C658 C 0.16525 0.71163 0.64652 0.0
C659 C 0.15475 0.61516 0.64656 0.0
O660 O 0.18398 0.69741 0.64972 0.0
Zn661 Zn 0.16103 0.66352 0.64479 0.0
O662 O 0.14082 0.70058 0.64061 0.0
Zn663 Zn 0.11864 0.66094 0.63386 0.0
O664 O 0.09523 0.66425 0.66118 0.0
O665 O 0.13832 0.66898 0.67717 0.0
O666 O 0.13243 0.62366 0.64008 0.0
O667 O 0.17633 0.63148 0.65063 0.0
O668 O 0.14813 0.65814 0.60317 0.0
O669 O 0.10432 0.65637 0.59572 0.0
C670 C 0.11388 0.66901 0.68097 0.0
C671 C 0.12654 0.65587 0.58674 0.0
H672 H 0.16235 0.99111 0.4191 0.0
H673 H 0.15471 0.98115 0.33298 0.0
H674 H 0.155 0.02938 0.33372 0.0
H675 H 0.15771 0.07418 0.35889 0.0
H676 H 0.16604 0.08383 0.44505 0.0
H677 H 0.16502 0.03561 0.44414 0.0
C678 C 0.16074 0.99939 0.40041 0.0
C679 C 0.15851 0.98246 0.37598 0.0
C680 C 0.16095 0.02702 0.40101 0.0
C681 C 0.1565 0.99367 0.35204 0.0
C682 C 0.15661 0.02124 0.35247 0.0
C683 C 0.15913 0.06577 0.37751 0.0
C684 C 0.16185 0.08265 0.40204 0.0
C685 C 0.15881 0.03807 0.37684 0.0
C686 C 0.1639 0.07136 0.42592 0.0
C687 C 0.16336 0.04379 0.42541 0.0
H688 H 0.08923 0.16645 0.41945 0.0
H689 H 0.07444 0.1593 0.33338 0.0
H690 H 0.02655 0.15851 0.33507 0.0
H691 H 0.98899 0.15926 0.3607 0.0
H692 H 1.00327 0.16682 0.44677 0.0
H693 H 0.0514 0.16804 0.4453 0.0
C694 C 0.07558 0.16477 0.40102 0.0
C695 C 0.08552 0.16288 0.37627 0.0
C696 C 0.04801 0.16434 0.40213 0.0
C697 C 0.06744 0.1608 0.35267 0.0
C698 C 0.04002 0.16031 0.35363 0.0
C699 C 1.00254 0.16113 0.37923 0.0
C700 C 0.99242 0.1628 0.40385 0.0
C701 C 0.0301 0.16194 0.37821 0.0
C702 C 1.01044 0.16544 0.42756 0.0
C703 C 0.03797 0.16614 0.42671 0.0
H704 H 0.89254 0.97953 0.35732 0.0
H705 H 0.90531 0.99273 0.44352 0.0
H706 H 0.90598 0.04082 0.44283 0.0
H707 H 0.90418 0.07917 0.41773 0.0
H708 H 0.89121 0.06573 0.33152 0.0
H709 H 0.88927 0.0176 0.33231 0.0
C710 C 0.89545 0.99286 0.37603 0.0
C711 C 0.89903 0.98241 0.40049 0.0
C712 C 0.89578 0.02046 0.37547 0.0
C713 C 0.90254 1.00011 0.42444 0.0
C714 C 0.90296 0.02765 0.42403 0.0
C715 C 0.90082 0.06575 0.39906 0.0
C716 C 0.89794 0.07621 0.37455 0.0
C717 C 0.89978 0.03806 0.39966 0.0
C718 C 0.89349 0.05837 0.35064 0.0
C719 C 0.89244 0.03081 0.35109 0.0
H720 H 0.98539 0.90586 0.41681 0.0
H721 H 0.97953 0.90064 0.33099 0.0
H722 H 0.02774 0.89935 0.33391 0.0
H723 H 0.07128 0.89964 0.3607 0.0
H724 H 0.07721 0.9046 0.44651 0.0
H725 H 0.02897 0.90584 0.44362 0.0
C726 C 0.99461 0.90458 0.39869 0.0
C727 C 0.97878 0.9035 0.37367 0.0
C728 C 0.02227 0.90362 0.40051 0.0
C729 C 0.99116 0.9016 0.35047 0.0
C730 C 1.01873 0.9008 0.35214 0.0
C731 C 0.0621 0.90091 0.37884 0.0
C732 C 0.07796 0.90201 0.40384 0.0
C733 C 0.03443 0.90174 0.37703 0.0
C734 C 0.06557 0.90367 0.42704 0.0
C735 C 0.03798 0.90445 0.42539 0.0
H736 H 0.1529 0.99717 0.69955 0.0
H737 H 0.15304 0.99048 0.61415 0.0
H738 H 0.14679 0.03703 0.61489 0.0
H739 H 0.14043 0.0791 0.63893 0.0
H740 H 0.14061 0.08788 0.72427 0.0
H741 H 0.14761 0.04095 0.72436 0.0
C742 C 0.15171 1.00597 0.68116 0.0
C743 C 0.15335 0.9902 0.65681 0.0
C744 C 0.14803 0.03302 0.68164 0.0
C745 C 0.15177 1.00197 0.63317 0.0
C746 C 0.14816 0.02865 0.63352 0.0
C747 C 0.14185 0.07086 0.65765 0.0
C748 C 0.13971 0.08695 0.68154 0.0
C749 C 0.14604 0.04423 0.65754 0.0
C750 C 0.14205 0.0759 0.70558 0.0
C751 C 0.14607 0.04909 0.70561 0.0
H752 H 0.95025 0.13362 0.62094 0.0
H753 H 0.95858 0.15079 0.70687 0.0
H754 H 1.00739 0.15672 0.7091 0.0
H755 H 0.04766 0.15647 0.68661 0.0
H756 H 0.03881 0.13923 0.60063 0.0
H757 H 0.99018 0.13383 0.59855 0.0
C758 C 0.96266 0.13873 0.64023 0.0
C759 C 0.95063 0.14173 0.66373 0.0
C760 C 0.99065 0.14201 0.64135 0.0
C761 C 0.96719 0.14837 0.68846 0.0
C762 C 0.99513 0.15172 0.68974 0.0
C763 C 0.03513 0.1515 0.66739 0.0
C764 C 0.04701 0.1482 0.64379 0.0
C765 C 1.00708 0.14847 0.66631 0.0
C766 C 0.03034 0.14187 0.6191 0.0
C767 C 1.00248 0.13879 0.6179 0.0
H768 H 0.88142 0.04626 0.66982 0.0
H769 H 0.86933 0.03503 0.58358 0.0
H770 H 0.87626 0.98829 0.58314 0.0
H771 H 0.8858 0.95078 0.60718 0.0
H772 H 0.89755 0.96192 0.69342 0.0
H773 H 0.89077 1.00871 0.69386 0.0
C774 C 0.88025 0.03364 0.65087 0.0
C775 C 0.87483 0.04423 0.62673 0.0
C776 C 0.88427 1.00681 0.65077 0.0
C777 C 0.87341 0.02747 0.60244 0.0
C778 C 0.87741 1.00073 0.60218 0.0
C779 C 0.88698 0.96341 0.62613 0.0
C780 C 0.89227 0.95278 0.65027 0.0
C781 C 0.8829 0.99022 0.62623 0.0
C782 C 0.89355 0.96951 0.67456 0.0
C783 C 0.88965 0.99627 0.67482 0.0
H784 H 0.07225 0.91021 0.6491 0.0
H785 H 0.07179 0.87857 0.56659 0.0
H786 H 0.02263 0.87036 0.56029 0.0
H787 H 0.97958 0.8711 0.57913 0.0
H788 H 0.98237 0.90324 0.66209 0.0
H789 H 0.03068 0.9123 0.6671 0.0
C790 C 0.06152 0.9015 0.62966 0.0
C791 C 0.07575 0.89484 0.60843 0.0
C792 C 0.03353 0.89687 0.62624 0.0
C793 C 0.06135 0.88384 0.58333 0.0
C794 C 0.03323 0.87912 0.57974 0.0
C795 C 0.99081 0.8802 0.59821 0.0
C796 C 0.97719 0.88623 0.62021 0.0
C797 C 1.01905 0.8854 0.60116 0.0
C798 C 0.99212 0.89808 0.64481 0.0
C799 C 1.01987 0.90336 0.64778 0.0
H800 H 0.36237 0.12528 0.05615 0.0
H801 H 0.44868 0.13305 0.06468 0.0
H802 H 0.44703 0.13258 0.01648 0.0
H803 H 0.42138 0.13105 0.97234 0.0
H804 H 0.33514 0.12425 0.96345 0.0
H805 H 0.33653 0.12327 1.01157 0.0
C806 C 0.38086 0.12671 0.0475 0.0
C807 C 0.40566 0.12916 0.06411 0.0
C808 C 0.37978 0.12671 0.01977 0.0
C809 C 0.42935 0.13114 0.05246 0.0
C810 C 0.42841 0.13091 0.02488 0.0
C811 C 0.40279 0.12927 0.9808 0.0
C812 C 0.37813 0.12773 0.96418 0.0
C813 C 0.40377 0.12888 1.00841 0.0
C814 C 0.35436 0.12549 0.97568 0.0
C815 C 0.35517 0.12492 1.00321 0.0
H816 H 0.90308 0.45541 0.97524 0.0
H817 H 0.93104 0.37844 0.97099 0.0
H818 H 0.9276 0.37717 0.01791 0.0
H819 H 0.91407 0.39591 0.05925 0.0
H820 H 0.8865 0.47289 0.06584 0.0
H821 H 0.89239 0.47621 0.01907 0.0
C822 C 0.90885 0.43865 0.98478 0.0
C823 C 0.9171 0.41695 0.9695 0.0
C824 C 0.90653 0.43783 1.01208 0.0
C825 C 0.92437 0.39529 0.98214 0.0
C826 C 0.92237 0.39447 1.00901 0.0
C827 C 0.90925 0.41346 0.05053 0.0
C828 C 0.89941 0.4339 0.06588 0.0
C829 C 0.91291 0.41527 0.02397 0.0
C830 C 0.89392 0.45676 0.05437 0.0
C831 C 0.8973 0.45864 0.02764 0.0
H832 H 0.6851 0.89294 0.96601 0.0
H833 H 0.59912 0.88969 0.95267 0.0
H834 H 0.59711 0.88319 0.99928 0.0
H835 H 0.61981 0.87873 0.04357 0.0
H836 H 0.70582 0.88202 0.05667 0.0
H837 H 0.70768 0.88793 1.00997 0.0
C838 C 0.66585 0.89095 0.97322 0.0
C839 C 0.64226 0.89199 0.95584 0.0
C840 C 0.66486 0.88702 0.99987 0.0
C841 C 0.61756 0.8891 0.9656 0.0
C842 C 0.61641 0.88531 0.99222 0.0
C843 C 0.63901 0.88058 0.03625 0.0
C844 C 0.66269 0.8799 0.05367 0.0
C845 C 0.63994 0.88421 1.00949 0.0
C846 C 0.68732 0.8824 0.04375 0.0
C847 C 0.68839 0.88588 0.01707 0.0
H848 H 0.14118 0.70307 0.97288 0.0
H849 H 0.14063 0.61818 0.95161 0.0
H850 H 0.14088 0.61152 0.99793 0.0
H851 H 0.14006 0.62895 0.04405 0.0
H852 H 0.14095 0.71344 0.06719 0.0
H853 H 0.14178 0.72105 0.0206 0.0
C854 C 0.1413 0.68319 0.97846 0.0
C855 C 0.14069 0.66118 0.95867 0.0
C856 C 0.14134 0.67933 1.00542 0.0
C857 C 0.14085 0.63551 0.96627 0.0
C858 C 0.14101 0.6316 0.99282 0.0
C859 C 0.14036 0.64909 0.03902 0.0
C860 C 0.1402 0.67055 0.05904 0.0
C861 C 0.14096 0.65327 1.01246 0.0
C862 C 0.14096 0.69653 0.05211 0.0
C863 C 0.14144 0.70088 0.02548 0.0
H864 H 0.42031 0.88559 0.0628 0.0
H865 H 0.3341 0.86877 0.04593 0.0
H866 H 0.33642 0.8708 0.99849 0.0
H867 H 0.36291 0.87685 0.96196 0.0
H868 H 0.44916 0.89306 0.97887 0.0
H869 H 0.44674 0.89194 0.02639 0.0
C870 C 0.40194 0.88234 0.04881 0.0
C871 C 0.37701 0.87697 0.058 0.0
C872 C 0.40345 0.88353 0.02163 0.0
C873 C 0.35352 0.87287 0.03947 0.0
C874 C 0.35486 0.87407 1.01235 0.0
C875 C 0.38124 0.88032 0.976 0.0
C876 C 0.40623 0.88512 0.96678 0.0
C877 C 0.37971 0.87937 1.00323 0.0
C878 C 0.42969 0.88938 0.98535 0.0
C879 C 0.42831 0.88868 1.01253 0.0
H880 H 0.15717 0.37429 0.99044 0.0
H881 H 0.18255 0.45939 1.0006 0.0
H882 H 0.17841 0.46214 0.04819 0.0
H883 H 0.16686 0.44024 0.08696 0.0
H884 H 0.14148 0.355 0.07563 0.0
H885 H 0.14626 0.35261 0.02858 0.0
C886 C 0.16194 0.39348 1.00301 0.0
C887 C 0.17018 0.41657 0.99188 0.0
C888 C 0.15937 0.39494 0.03024 0.0
C889 C 0.1762 0.44124 1.0086 0.0
C890 C 0.17377 0.44285 0.03583 0.0
C891 C 0.16234 0.42117 0.07418 0.0
C892 C 0.15378 0.39787 0.08496 0.0
C893 C 0.16522 0.41982 0.04688 0.0
C894 C 0.14812 0.3733 0.06804 0.0
C895 C 0.15085 0.37186 0.04103 0.0
H896 H 0.57734 0.14045 0.05144 0.0
H897 H 0.65389 0.11154 0.06173 0.0
H898 H 0.65863 0.11469 0.01545 0.0
H899 H 0.64282 0.12766 0.97269 0.0
H900 H 0.56607 0.15531 0.9599 0.0
H901 H 0.55966 0.15069 1.00626 0.0
C902 C 0.5948 0.13448 0.04338 0.0
C903 C 0.61534 0.12606 0.06025 0.0
C904 C 0.5976 0.13644 0.01634 0.0
C905 C 0.63789 0.11843 0.04943 0.0
C906 C 0.64071 0.12024 0.02288 0.0
C907 C 0.62469 0.13279 0.98 0.0
C908 C 0.60517 0.14223 0.963 0.0
C909 C 0.62102 0.1297 1.00634 0.0
C910 C 0.58152 0.14818 0.97267 0.0
C911 C 0.57785 0.1455 0.99918 0.0
H912 H 0.88429 0.66632 0.96089 0.0
H913 H 0.86677 0.58035 0.94325 0.0
H914 H 0.868 0.57721 0.99097 0.0
H915 H 0.8737 0.59896 0.03745 0.0
H916 H 0.89083 0.685 0.05467 0.0
H917 H 0.89006 0.68796 1.00709 0.0
C918 C 0.88077 0.64684 0.96738 0.0
C919 C 0.87545 0.62359 0.94846 0.0
C920 C 0.8814 0.64519 0.99472 0.0
C921 C 0.87091 0.59858 0.95737 0.0
C922 C 0.8716 0.59676 0.98463 0.0
C923 C 0.8773 0.61837 0.03085 0.0
C924 C 0.88231 0.64173 0.04966 0.0
C925 C 0.87677 0.61996 1.00346 0.0
C926 C 0.88688 0.66669 0.04066 0.0
C927 C 0.88647 0.66842 1.01347 0.0
H928 H 0.06416 0.40732 0.15084 0.0
H929 H 0.05295 0.32128 0.14446 0.0
H930 H 1.00425 0.32089 0.14022 0.0
H931 H 0.96474 0.34559 0.13911 0.0
H932 H 0.97821 0.43186 0.14645 0.0
H933 H 0.02603 0.43137 0.14959 0.0
C934 C 0.05119 0.38836 0.14843 0.0
C935 C 0.0623 0.36437 0.14796 0.0
C936 C 0.02347 0.38833 0.14628 0.0
C937 C 0.04499 0.34008 0.14487 0.0
C938 C 1.01712 0.33986 0.14249 0.0
C939 C 0.97817 0.36424 0.14139 0.0
C940 C 0.96769 0.38871 0.1426 0.0
C941 C 1.0061 0.36394 0.14331 0.0
C942 C 0.98548 0.41268 0.14554 0.0
C943 C 1.01297 0.4125 0.14731 0.0
H944 H 0.05294 0.67814 0.87959 0.0
H945 H 0.03994 0.5921 0.86133 0.0
H946 H 0.99172 0.5922 0.86082 0.0
H947 H 0.9535 0.61675 0.86599 0.0
H948 H 0.96694 0.70284 0.88404 0.0
H949 H 1.01496 0.70261 0.88417 0.0
C950 C 0.03964 0.65933 0.87549 0.0
C951 C 0.05011 0.63511 0.87058 0.0
C952 C 1.01205 0.65956 0.8752 0.0
C953 C 0.03246 0.61101 0.86518 0.0
C954 C 1.00489 0.61107 0.86491 0.0
C955 C 0.9669 0.63551 0.86995 0.0
C956 C 0.95657 0.65981 0.87506 0.0
C957 C 0.9945 0.63523 0.86997 0.0
C958 C 0.97428 0.68387 0.88005 0.0
C959 C 1.00176 0.68375 0.88015 0.0
H960 H 0.42273 0.96201 0.8811 0.0
H961 H 0.33638 0.95291 0.87168 0.0
H962 H 0.33778 1.00096 0.87027 0.0
H963 H 0.36353 0.04565 0.87324 0.0
H964 H 0.44989 0.05461 0.88267 0.0
H965 H 0.44839 1.00637 0.88232 0.0
C966 C 0.40414 0.97045 0.8787 0.0
C967 C 0.37944 0.95377 0.87668 0.0
C968 C 0.40511 0.99807 0.87787 0.0
C969 C 0.35565 0.96518 0.87334 0.0
C970 C 0.35645 0.99269 0.87255 0.0
C971 C 0.38208 0.03711 0.87505 0.0
C972 C 0.40684 0.0539 0.87807 0.0
C973 C 0.38107 1.00934 0.875 0.0
C974 C 0.43058 0.0423 0.88031 0.0
C975 C 0.42973 1.01468 0.8802 0.0
H976 H 0.07199 0.34236 0.89564 0.0
H977 H 0.08835 0.42846 0.9027 0.0
H978 H 0.04085 0.43146 0.89968 0.0
H979 H 0.99503 0.41036 0.89566 0.0
H980 H 0.97686 0.32452 0.88872 0.0
H981 H 0.02476 0.32076 0.8911 0.0
C982 C 0.06511 0.36174 0.89642 0.0
C983 C 0.08382 0.38514 0.89946 0.0
C984 C 0.0375 0.36343 0.89479 0.0
C985 C 0.07454 0.4101 0.90049 0.0
C986 C 0.04732 0.41189 0.89875 0.0
C987 C 1.00138 0.39072 0.89466 0.0
C988 C 0.98232 0.36776 0.89208 0.0
C989 C 0.02869 0.38876 0.89604 0.0
C990 C 0.9911 0.34255 0.89076 0.0
C991 C 1.01849 0.3404 0.8921 0.0
H992 H 0.69834 0.07656 0.89758 0.0
H993 H 0.61195 0.05996 0.88189 0.0
H994 H 0.61397 1.01257 0.88052 0.0
H995 H 0.63933 0.97585 0.88362 0.0
H996 H 0.72564 0.98985 0.89873 0.0
H997 H 0.72452 0.03823 0.90055 0.0
C998 C 0.68 0.06253 0.89383 0.0
C999 C 0.65501 0.07202 0.88985 0.0
C1000 C 0.68122 0.03485 0.89302 0.0
C1001 C 0.63147 0.05348 0.88503 0.0
C1002 C 0.63255 0.02624 0.88425 0.0
C1003 C 0.65806 0.98931 0.88739 0.0
C1004 C 0.68256 0.9791 0.89109 0.0
C1005 C 0.65723 1.01675 0.88823 0.0
C1006 C 0.70648 0.99711 0.89585 0.0
C1007 C 0.70581 0.02477 0.89685 0.0
H1008 H 0.04691 0.57907 0.12214 0.0
H1009 H 0.05764 0.66481 0.12344 0.0
H1010 H 1.01029 0.66546 0.12502 0.0
H1011 H 0.96621 0.64259 0.12665 0.0
H1012 H 0.95316 0.55701 0.1251 0.0
H1013 H 1.00104 0.55547 0.12317 0.0
C1014 C 0.0388 0.59782 0.1226 0.0
C1015 C 0.05597 0.62186 0.12274 0.0
C1016 C 1.01119 0.59818 0.12366 0.0
C1017 C 0.04509 0.646 0.12344 0.0
C1018 C 1.01793 0.64645 0.12437 0.0
C1019 C 0.97366 0.62348 0.12597 0.0
C1020 C 0.95602 0.59996 0.12615 0.0
C1021 C 1.00089 0.62277 0.12467 0.0
C1022 C 0.96626 0.57546 0.1251 0.0
C1023 C 0.99364 0.57459 0.12392 0.0
H1024 H 0.42301 0.05679 0.15334 0.0
H1025 H 0.33657 0.043 0.14275 0.0
H1026 H 0.3376 0.99531 0.14409 0.0
H1027 H 0.36284 0.95757 0.14659 0.0
H1028 H 0.44926 0.971 0.15686 0.0
H1029 H 0.44838 0.01906 0.15755 0.0
C1030 C 0.40435 0.0434 0.15139 0.0
C1031 C 0.37971 0.05349 0.14777 0.0
C1032 C 0.40509 1.01601 0.15213 0.0
C1033 C 0.35579 0.03582 0.14548 0.0
C1034 C 0.35637 1.00854 0.14623 0.0
C1035 C 0.38156 0.97095 0.1491 0.0
C1036 C 0.40612 0.96062 0.15152 0.0
C1037 C 0.38089 0.99842 0.14929 0.0
C1038 C 0.4301 0.97836 0.15494 0.0
C1039 C 0.4296 1.00583 0.15525 0.0
H1040 H 0.60802 0.04592 0.1324 0.0
H1041 H 0.69452 0.0571 0.14248 0.0
H1042 H 0.69411 1.00878 0.13998 0.0
H1043 H 0.66935 0.96395 0.1353 0.0
H1044 H 0.58287 0.95258 0.12551 0.0
H1045 H 0.58319 1.00093 0.12757 0.0
C1046 C 0.62684 0.03787 0.13401 0.0
C1047 C 0.65131 0.05511 0.13761 0.0
C1048 C 0.62646 1.01021 0.13266 0.0
C1049 C 0.67544 0.04427 0.1397 0.0
C1050 C 0.67522 1.01669 0.13829 0.0
C1051 C 0.65049 0.97193 0.13358 0.0
C1052 C 0.62607 0.95466 0.13025 0.0
C1053 C 0.65084 0.99955 0.13483 0.0
C1054 C 0.60191 0.96544 0.12809 0.0
C1055 C 0.60209 0.99303 0.12926 0.0
H1056 H 0.65773 0.48588 0.90811 0.0
H1057 H 0.64988 0.4698 0.82214 0.0
H1058 H 0.64289 0.51617 0.81903 0.0
H1059 H 0.63847 0.56114 0.84083 0.0
H1060 H 0.64609 0.57649 0.92686 0.0
H1061 H 0.65351 0.5304 0.92974 0.0
C1062 C 0.65464 0.49244 0.88861 0.0
C1063 C 0.65443 0.47425 0.86536 0.0
C1064 C 0.65039 0.51899 0.88698 0.0
C1065 C 0.65025 0.48328 0.84036 0.0
C1066 C 0.64616 0.50981 0.83858 0.0
C1067 C 0.64164 0.55442 0.86023 0.0
C1068 C 0.64162 0.57239 0.88362 0.0
C1069 C 0.64604 0.5278 0.86177 0.0
C1070 C 0.64593 0.56322 0.90854 0.0
C1071 C 0.65024 0.53683 0.91021 0.0
H1072 H 0.55314 0.64787 0.89041 0.0
H1073 H 0.54102 0.6303 0.80446 0.0
H1074 H 0.49234 0.62503 0.80438 0.0
H1075 H 0.45304 0.62479 0.82925 0.0
H1076 H 0.46711 0.64289 0.91534 0.0
H1077 H 0.51504 0.64851 0.91466 0.0
C1078 C 0.53996 0.64289 0.87156 0.0
C1079 C 0.55084 0.6394 0.84748 0.0
C1080 C 0.51219 0.63993 0.87168 0.0
C1081 C 0.53326 0.63311 0.82332 0.0
C1082 C 0.5054 0.63005 0.82327 0.0
C1083 C 0.46661 0.63001 0.84782 0.0
C1084 C 0.45625 0.63333 0.8723 0.0
C1085 C 0.49458 0.63332 0.8474 0.0
C1086 C 0.47426 0.64015 0.89616 0.0
C1087 C 0.50182 0.64339 0.89586 0.0
H1088 H 0.39624 0.47162 0.9589 0.0
H1089 H 0.41722 0.45572 0.87938 0.0
H1090 H 0.41275 0.50105 0.87192 0.0
H1091 H 0.40121 0.54464 0.88642 0.0
H1092 H 0.38101 0.56307 0.96566 0.0
H1093 H 0.38691 0.51765 0.97471 0.0
C1094 C 0.40008 0.47822 0.9401 0.0
C1095 C 0.40673 0.45998 0.91967 0.0
C1096 C 0.39741 0.50478 0.9357 0.0
C1097 C 0.41169 0.469 0.89542 0.0
C1098 C 0.40917 0.49505 0.89103 0.0
C1099 C 0.39802 0.53881 0.90571 0.0
C1100 C 0.39034 0.55715 0.92518 0.0
C1101 C 0.40165 0.51295 0.91078 0.0
C1102 C 0.38681 0.54929 0.95022 0.0
C1103 C 0.39017 0.5233 0.9554 0.0
H1104 H 0.49441 0.39273 0.93155 0.0
H1105 H 0.47958 0.37933 0.8453 0.0
H1106 H 0.52767 0.38325 0.84368 0.0
H1107 H 0.57341 0.38998 0.86647 0.0
H1108 H 0.58895 0.40313 0.95266 0.0
H1109 H 0.5407 0.39974 0.95454 0.0
C1110 C 0.50165 0.39074 0.91235 0.0
C1111 C 0.48336 0.38575 0.88853 0.0
C1112 C 0.52932 0.39289 0.91157 0.0
C1113 C 0.49316 0.38316 0.8639 0.0
C1114 C 0.52065 0.38538 0.86296 0.0
C1115 C 0.56639 0.39214 0.88577 0.0
C1116 C 0.58483 0.39679 0.90944 0.0
C1117 C 0.53884 0.39016 0.88665 0.0
C1118 C 0.57522 0.39952 0.93417 0.0
C1119 C 0.54766 0.3976 0.93523 0.0
H1120 H 0.6229 0.53572 0.08274 0.0
H1121 H 0.62486 0.55756 0.16766 0.0
H1122 H 0.62668 0.51123 0.17457 0.0
H1123 H 0.62929 0.46513 0.1569 0.0
H1124 H 0.62744 0.44272 0.07214 0.0
H1125 H 0.62396 0.48889 0.06478 0.0
C1126 C 0.62354 0.53034 0.10275 0.0
C1127 C 0.62384 0.55012 0.12467 0.0
C1128 C 0.62475 0.50367 0.10663 0.0
C1129 C 0.62464 0.54277 0.15044 0.0
C1130 C 0.62575 0.51629 0.15444 0.0
C1131 C 0.62815 0.47027 0.13677 0.0
C1132 C 0.62884 0.45056 0.11511 0.0
C1133 C 0.62612 0.49669 0.13273 0.0
C1134 C 0.62702 0.45755 0.08916 0.0
C1135 C 0.62505 0.48392 0.08495 0.0
H1136 H 0.55249 0.65182 0.10395 0.0
H1137 H 0.54268 0.59118 0.03551 0.0
H1138 H 0.49369 0.58887 0.03227 0.0
H1139 H 0.45366 0.60118 0.05248 0.0
H1140 H 0.46584 0.66207 0.12129 0.0
H1141 H 0.51377 0.66736 0.12062 0.0
C1142 C 0.53962 0.63825 0.08815 0.0
C1143 C 0.55099 0.6214 0.07028 0.0
C1144 C 0.51186 0.637 0.0866 0.0
C1145 C 0.53424 0.6043 0.04955 0.0
C1146 C 0.50628 0.6029 0.04782 0.0
C1147 C 0.46685 0.61588 0.06695 0.0
C1148 C 0.45623 0.63084 0.0872 0.0
C1149 C 0.49481 0.6187 0.06671 0.0
C1150 C 0.47352 0.64991 0.10581 0.0
C1151 C 0.50098 0.65302 0.10548 0.0
H1152 H 0.39815 0.47351 0.18577 0.0
H1153 H 0.38127 0.44434 0.1014 0.0
H1154 H 0.38064 0.49001 0.09142 0.0
H1155 H 0.38424 0.53787 0.10657 0.0
H1156 H 0.40094 0.5673 0.19088 0.0
H1157 H 0.40231 0.52166 0.20094 0.0
C1158 C 0.39438 0.47709 0.16517 0.0
C1159 C 0.38972 0.45548 0.14436 0.0
C1160 C 0.39398 0.50338 0.15958 0.0
C1161 C 0.3849 0.46056 0.11781 0.0
C1162 C 0.38452 0.48667 0.11208 0.0
C1163 C 0.38822 0.5344 0.12719 0.0
C1164 C 0.39243 0.55602 0.14796 0.0
C1165 C 0.38893 0.50819 0.13281 0.0
C1166 C 0.39761 0.55105 0.17451 0.0
C1167 C 0.39839 0.52496 0.18028 0.0
H1168 H 0.57033 0.39903 0.20997 0.0
H1169 H 0.55199 0.35217 0.13182 0.0
H1170 H 0.50448 0.3513 0.13364 0.0
H1171 H 0.46806 0.36546 0.15571 0.0
H1172 H 0.48418 0.41207 0.23383 0.0
H1173 H 0.53245 0.4113 0.23378 0.0
C1174 C 0.55589 0.38836 0.19355 0.0
C1175 C 0.56487 0.37588 0.17069 0.0
C1176 C 0.52816 0.38808 0.19456 0.0
C1177 C 0.54581 0.3622 0.14955 0.0
C1178 C 0.51853 0.36167 0.15052 0.0
C1179 C 0.48204 0.37553 0.1728 0.0
C1180 C 0.47248 0.38911 0.19458 0.0
C1181 C 0.5095 0.37491 0.17264 0.0
C1182 C 0.49098 0.40157 0.21672 0.0
C1183 C 0.51859 0.40114 0.21667 0.0
H1184 H 0.83638 0.63749 0.4503 0.0
H1185 H 0.92148 0.66363 0.4702 0.0
H1186 H 0.91853 0.66141 0.51705 0.0
H1187 H 0.89286 0.65013 0.55203 0.0
H1188 H 0.8079 0.62375 0.53406 0.0
H1189 H 0.80967 0.62833 0.48677 0.0
C1190 C 0.85421 0.64287 0.46493 0.0
C1191 C 0.87916 0.65048 0.45661 0.0
C1192 C 0.85245 0.64146 0.49213 0.0
C1193 C 0.90205 0.6575 0.47588 0.0
C1194 C 0.90042 0.65625 0.50276 0.0
C1195 C 0.87463 0.64536 0.53784 0.0
C1196 C 0.85034 0.63626 0.54644 0.0
C1197 C 0.87587 0.6479 0.511 0.0
C1198 C 0.82687 0.63072 0.52787 0.0
C1199 C 0.82792 0.63324 0.50086 0.0
H1200 H 0.3959 0.82549 0.54956 0.0
H1201 H 0.38103 0.90738 0.56437 0.0
H1202 H 0.37944 0.91129 0.51728 0.0
H1203 H 0.38488 0.89306 0.47269 0.0
H1204 H 0.39977 0.81164 0.45547 0.0
H1205 H 0.39852 0.80582 0.50265 0.0
C1206 C 0.392 0.84402 0.54234 0.0
C1207 C 0.38893 0.86622 0.56056 0.0
C1208 C 0.39135 0.84632 0.51491 0.0
C1209 C 0.38386 0.89011 0.55092 0.0
C1210 C 0.38292 0.89241 0.52395 0.0
C1211 C 0.38796 0.87398 0.47917 0.0
C1212 C 0.39295 0.85297 0.46077 0.0
C1213 C 0.38719 0.8709 0.50594 0.0
C1214 C 0.39611 0.82819 0.46936 0.0
C1215 C 0.39543 0.82491 0.49631 0.0
H1216 H 0.13293 0.39843 0.49134 0.0
H1217 H 0.21794 0.42414 0.49829 0.0
H1218 H 0.22235 0.42341 0.54642 0.0
H1219 H 0.20194 0.41618 0.58685 0.0
H1220 H 0.11685 0.39072 0.57955 0.0
H1221 H 0.11276 0.39038 0.53138 0.0
C1222 C 0.15242 0.40397 0.50337 0.0
C1223 C 0.17501 0.41145 0.49118 0.0
C1224 C 0.15488 0.40338 0.53105 0.0
C1225 C 0.20015 0.41836 0.50711 0.0
C1226 C 0.20274 0.4179 0.53468 0.0
C1227 C 0.18257 0.4103 0.57467 0.0
C1228 C 0.15978 0.40353 0.58684 0.0
C1229 C 0.18024 0.41045 0.54689 0.0
C1230 C 0.13476 0.39613 0.57076 0.0
C1231 C 0.13235 0.39597 0.54317 0.0
H1232 H 0.6577 0.16865 0.5642 0.0
H1233 H 0.61983 0.08664 0.55276 0.0
H1234 H 0.62739 0.08169 0.50626 0.0
H1235 H 0.64363 0.10087 0.46818 0.0
H1236 H 0.68089 0.18301 0.47938 0.0
H1237 H 0.67505 0.18746 0.52643 0.0
C1238 C 0.65103 0.14973 0.55152 0.0
C1239 C 0.63809 0.12815 0.56204 0.0
C1240 C 0.65552 0.1469 0.52467 0.0
C1241 C 0.62979 0.10369 0.54528 0.0
C1242 C 0.63416 0.10076 0.51862 0.0
C1243 C 0.65083 0.1196 0.48102 0.0
C1244 C 0.66268 0.14153 0.47024 0.0
C1245 C 0.64696 0.12222 0.50805 0.0
C1246 C 0.67162 0.16578 0.48712 0.0
C1247 C 0.66821 0.16841 0.51405 0.0
H1248 H 0.93637 0.38771 0.47217 0.0
H1249 H 0.85022 0.38237 0.45846 0.0
H1250 H 0.84798 0.37368 0.50429 0.0
H1251 H 0.87034 0.36885 0.54844 0.0
H1252 H 0.95645 0.3742 0.56267 0.0
H1253 H 0.95876 0.38127 0.51625 0.0
C1254 C 0.91708 0.38468 0.47918 0.0
C1255 C 0.89349 0.3859 0.46185 0.0
C1256 C 0.91591 0.37954 0.50559 0.0
C1257 C 0.86869 0.38165 0.47129 0.0
C1258 C 0.86739 0.37664 0.49752 0.0
C1259 C 0.88967 0.37136 0.54143 0.0
C1260 C 0.91322 0.37104 0.55915 0.0
C1261 C 0.89085 0.37567 0.51486 0.0
C1262 C 0.93801 0.37427 0.54954 0.0
C1263 C 0.93934 0.37846 0.52301 0.0
H1264 H 0.67453 0.88724 0.54725 0.0
H1265 H 0.65472 0.96704 0.56287 0.0
H1266 H 0.65594 0.97264 0.5157 0.0
H1267 H 0.6595 0.95298 0.46909 0.0
H1268 H 0.6796 0.87287 0.45566 0.0
H1269 H 0.68164 0.86943 0.50289 0.0
C1270 C 0.67048 0.90592 0.5404 0.0
C1271 C 0.66407 0.9265 0.55834 0.0
C1272 C 0.67129 0.90892 0.51357 0.0
C1273 C 0.65954 0.95081 0.54931 0.0
C1274 C 0.66018 0.95397 0.52236 0.0
C1275 C 0.66471 0.935 0.47665 0.0
C1276 C 0.66902 0.91309 0.45877 0.0
C1277 C 0.66562 0.93294 0.50415 0.0
C1278 C 0.67578 0.88989 0.46886 0.0
C1279 C 0.67697 0.88785 0.49591 0.0
H1280 H 0.08713 0.65736 0.54462 0.0
H1281 H 0.17085 0.64954 0.56353 0.0
H1282 H 0.17657 0.64881 0.51699 0.0
H1283 H 0.15882 0.65139 0.47126 0.0
H1284 H 0.07539 0.65838 0.45021 0.0
H1285 H 0.06862 0.65844 0.49713 0.0
C1286 C 0.10654 0.65532 0.53848 0.0
C1287 C 0.12852 0.65368 0.55774 0.0
C1288 C 0.10987 0.65494 0.51131 0.0
C1289 C 0.15355 0.65102 0.54935 0.0
C1290 C 0.15693 0.65061 0.52265 0.0
C1291 C 0.1391 0.65304 0.47682 0.0
C1292 C 0.11772 0.65515 0.45725 0.0
C1293 C 0.13536 0.65282 0.50356 0.0
C1294 C 0.09226 0.65686 0.4649 0.0
C1295 C 0.08838 0.65687 0.49173 0.0
H1296 H 0.37545 0.13676 0.54756 0.0
H1297 H 0.39989 0.22038 0.57663 0.0
H1298 H 0.40707 0.22893 0.53144 0.0
H1299 H 0.40744 0.21194 0.48325 0.0
H1300 H 0.38337 0.12759 0.45651 0.0
H1301 H 0.37511 0.1203 0.50095 0.0
C1302 C 0.38225 0.15695 0.54416 0.0
C1303 C 0.3871 0.17785 0.5656 0.0
C1304 C 0.38654 0.16164 0.51833 0.0
C1305 C 0.39596 0.20384 0.56055 0.0
C1306 C 0.40011 0.20874 0.53467 0.0
C1307 C 0.4003 0.19204 0.48719 0.0
C1308 C 0.39628 0.17039 0.46635 0.0
C1309 C 0.39563 0.18772 0.51332 0.0
C1310 C 0.38699 0.1447 0.47197 0.0
C1311 C 0.38214 0.14041 0.49749 0.0
H1312 H 0.48019 0.85907 0.62566 0.0
H1313 H 0.49282 0.94348 0.65492 0.0
H1314 H 0.54017 0.94561 0.64969 0.0
H1315 H 0.57799 0.92334 0.63744 0.0
H1316 H 0.56509 0.83888 0.6083 0.0
H1317 H 0.51766 0.83706 0.61265 0.0
C1318 C 0.49327 0.87796 0.63098 0.0
C1319 C 0.48297 0.90106 0.64081 0.0
C1320 C 0.52037 0.87907 0.62781 0.0
C1321 C 0.50022 0.92538 0.64739 0.0
C1322 C 0.52729 0.92662 0.64436 0.0
C1323 C 0.56479 0.90455 0.63184 0.0
C1324 C 0.57513 0.88127 0.62255 0.0
C1325 C 0.53757 0.90358 0.63461 0.0
C1326 C 0.55771 0.8571 0.61549 0.0
C1327 C 0.53058 0.85601 0.61804 0.0
H1328 H 0.49351 0.18927 0.39621 0.0
H1329 H 0.48423 0.10331 0.39212 0.0
H1330 H 0.53238 0.10422 0.39213 0.0
H1331 H 0.57656 0.12905 0.39221 0.0
H1332 H 0.58633 0.21491 0.39551 0.0
H1333 H 0.53822 0.21434 0.39679 0.0
C1334 C 0.502 0.17071 0.39555 0.0
C1335 C 0.48523 0.14622 0.39425 0.0
C1336 C 0.52967 0.17135 0.39522 0.0
C1337 C 0.49662 0.12241 0.39316 0.0
C1338 C 0.52415 0.12291 0.39311 0.0
C1339 C 0.56829 0.14774 0.39323 0.0
C1340 C 0.58511 0.17204 0.39371 0.0
C1341 C 0.54077 0.14723 0.39392 0.0
C1342 C 0.57389 0.19596 0.39505 0.0
C1343 C 0.5464 0.19562 0.39582 0.0
H1344 H 0.89515 0.56975 0.40187 0.0
H1345 H 0.97303 0.58657 0.3775 0.0
H1346 H 0.98113 0.5406 0.38177 0.0
H1347 H 0.96462 0.4946 0.3901 0.0
H1348 H 0.88666 0.4795 0.41509 0.0
H1349 H 0.88031 0.5258 0.41329 0.0
C1350 C 0.91392 0.56341 0.39744 0.0
C1351 C 0.93327 0.58146 0.38897 0.0
C1352 C 0.9185 0.5372 0.40022 0.0
C1353 C 0.9577 0.57301 0.38388 0.0
C1354 C 0.96234 0.54673 0.38634 0.0
C1355 C 0.9465 0.50162 0.39562 0.0
C1356 C 0.92608 0.48346 0.40255 0.0
C1357 C 0.94274 0.5285 0.39426 0.0
C1358 C 0.90263 0.49289 0.40948 0.0
C1359 C 0.8989 0.51941 0.40839 0.0
H1360 H 0.47638 0.85538 0.37974 0.0
H1361 H 0.48973 0.94066 0.40459 0.0
H1362 H 0.53712 0.94169 0.4007 0.0
H1363 H 0.57478 0.91875 0.39016 0.0
H1364 H 0.56236 0.83348 0.36575 0.0
H1365 H 0.51465 0.83215 0.3695 0.0
C1366 C 0.48965 0.87419 0.38437 0.0
C1367 C 0.47935 0.89792 0.39247 0.0
C1368 C 0.51707 0.87469 0.38209 0.0
C1369 C 0.49696 0.92208 0.39835 0.0
C1370 C 0.52413 0.92271 0.39609 0.0
C1371 C 0.5617 0.89982 0.38555 0.0
C1372 C 0.57224 0.87625 0.37757 0.0
C1373 C 0.53439 0.89918 0.38792 0.0
C1374 C 0.55487 0.85194 0.37189 0.0
C1375 C 0.52755 0.85117 0.37406 0.0
H1376 H 0.21374 0.58587 0.40099 0.0
H1377 H 0.12741 0.56772 0.38759 0.0
H1378 H 0.13028 0.52165 0.39372 0.0
H1379 H 0.15649 0.48647 0.4029 0.0
H1380 H 0.24277 0.5022 0.41534 0.0
H1381 H 0.24067 0.54921 0.40966 0.0
C1382 C 0.1956 0.57179 0.39934 0.0
C1383 C 0.17039 0.58045 0.39384 0.0
C1384 C 0.19731 0.5449 0.40284 0.0
C1385 C 0.1471 0.56184 0.39176 0.0
C1386 C 0.14867 0.53538 0.39532 0.0
C1387 C 0.17496 0.5001 0.40457 0.0
C1388 C 0.19977 0.49079 0.40978 0.0
C1389 C 0.17358 0.52674 0.40095 0.0
C1390 C 0.22339 0.50883 0.41147 0.0
C1391 C 0.22217 0.5357 0.40817 0.0
H1392 H 0.45931 0.14822 0.62271 0.0
H1393 H 0.4325 0.06796 0.63626 0.0
H1394 H 0.47815 0.0568 0.63554 0.0
H1395 H 0.52661 0.07097 0.63295 0.0
H1396 H 0.55108 0.15154 0.61795 0.0
H1397 H 0.50559 0.1612 0.61718 0.0
C1398 C 0.46336 0.12824 0.62555 0.0
C1399 C 0.44256 0.10908 0.6299 0.0
C1400 C 0.4894 0.12196 0.6248 0.0
C1401 C 0.44817 0.08315 0.63299 0.0
C1402 C 0.4743 0.07678 0.6326 0.0
C1403 C 0.52188 0.0905 0.62921 0.0
C1404 C 0.54254 0.11051 0.6258 0.0
C1405 C 0.49523 0.09615 0.62875 0.0
C1406 C 0.53589 0.13572 0.62094 0.0
C1407 C 0.50976 0.14138 0.62049 0.0
H1408 H 0.84497 0.45142 0.61415 0.0
H1409 H 0.92715 0.45786 0.65076 0.0
H1410 H 0.93405 0.50524 0.64652 0.0
H1411 H 0.91681 0.54518 0.63303 0.0
H1412 H 0.83462 0.53928 0.59673 0.0
H1413 H 0.82788 0.4915 0.59981 0.0
C1414 C 0.86429 0.46327 0.62138 0.0
C1415 C 0.88544 0.4511 0.63284 0.0
C1416 C 0.86829 0.4906 0.61862 0.0
C1417 C 0.91049 0.46668 0.64183 0.0
C1418 C 0.91452 0.49381 0.63936 0.0
C1419 C 0.89755 0.53337 0.6254 0.0
C1420 C 0.87632 0.5458 0.61458 0.0
C1421 C 0.89363 0.50598 0.62769 0.0
C1422 C 0.85136 0.53022 0.60512 0.0
C1423 C 0.84742 0.50289 0.60701 0.0
H1424 H 0.11197 0.57746 0.64715 0.0
H1425 H 0.19827 0.58887 0.65415 0.0
H1426 H 0.19885 0.54217 0.66057 0.0
H1427 H 0.17502 0.4982 0.66395 0.0
H1428 H 0.08877 0.48654 0.65742 0.0
H1429 H 0.08807 0.53339 0.65125 0.0
C1430 C 0.13092 0.56973 0.64998 0.0
C1431 C 0.15505 0.58668 0.65004 0.0
C1432 C 0.13114 0.54288 0.65388 0.0
C1433 C 0.17941 0.57633 0.65398 0.0
C1434 C 0.17976 0.54961 0.65767 0.0
C1435 C 0.15602 0.50585 0.66126 0.0
C1436 C 0.13196 0.48879 0.66113 0.0
C1437 C 0.15577 0.53273 0.65767 0.0
C1438 C 0.10758 0.49918 0.65767 0.0
C1439 C 0.10717 0.52597 0.65406 0.0
H1440 H 0.2086 0.2427 0.38244 0.0
H1441 H 0.17347 0.24219 0.45525 0.0
H1442 H 0.17924 0.29111 0.46194 0.0
H1443 H 0.1902 0.3337 0.44462 0.0
H1444 H 0.22792 0.33474 0.37347 0.0
H1445 H 0.22565 0.28589 0.36866 0.0
C1446 C 0.20256 0.25338 0.39994 0.0
C1447 C 0.19032 0.23895 0.41819 0.0
C1448 C 0.20638 0.28149 0.40386 0.0
C1449 C 0.18292 0.2529 0.44098 0.0
C1450 C 0.1861 0.28084 0.44472 0.0
C1451 C 0.19841 0.32319 0.42839 0.0
C1452 C 0.2091 0.33758 0.40932 0.0
C1453 C 0.19724 0.29529 0.42598 0.0
C1454 C 0.2198 0.32398 0.38843 0.0
C1455 C 0.21827 0.29609 0.38559 0.0
H1456 H 0.83442 0.19444 0.38327 0.0
H1457 H 0.83903 0.14673 0.44763 0.0
H1458 H 0.7909 0.14618 0.44918 0.0
H1459 H 0.74687 0.15626 0.42949 0.0
H1460 H 0.74301 0.207 0.3676 0.0
H1461 H 0.79154 0.20965 0.36785 0.0
C1462 C 0.8249 0.18429 0.3979 0.0
C1463 C 0.8401 0.17046 0.4152 0.0
C1464 C 0.79739 0.18449 0.39894 0.0
C1465 C 0.82771 0.15759 0.43424 0.0
C1466 C 0.80019 0.15714 0.43497 0.0
C1467 C 0.75678 0.16815 0.4163 0.0
C1468 C 0.74144 0.1812 0.39832 0.0
C1469 C 0.78473 0.17004 0.41702 0.0
C1470 C 0.75444 0.19684 0.38159 0.0
C1471 C 0.78214 0.19823 0.38167 0.0
H1472 H 0.93846 0.82878 0.3901 0.0
H1473 H 0.87226 0.82472 0.43539 0.0
H1474 H 0.87194 0.77623 0.43402 0.0
H1475 H 0.88849 0.73458 0.41658 0.0
H1476 H 0.95659 0.73976 0.3737 0.0
H1477 H 0.95828 0.7883 0.37743 0.0
C1478 C 0.92429 0.81727 0.40008 0.0
C1479 C 0.90536 0.83008 0.41277 0.0
C1480 C 0.9244 0.78965 0.3993 0.0
C1481 C 0.88714 0.8152 0.42573 0.0
C1482 C 0.88683 0.7875 0.4247 0.0
C1483 C 0.90374 0.74643 0.40819 0.0
C1484 C 0.92216 0.73365 0.39452 0.0
C1485 C 0.90498 0.77443 0.41098 0.0
C1486 C 0.94217 0.74917 0.38419 0.0
C1487 C 0.94312 0.77689 0.3863 0.0
H1488 H 0.24202 0.94382 0.3971 0.0
H1489 H 0.23493 0.88479 0.45073 0.0
H1490 H 0.2825 0.88034 0.45138 0.0
H1491 H 0.3246 0.88963 0.43234 0.0
H1492 H 0.33234 0.95065 0.38093 0.0
H1493 H 0.28597 0.95818 0.38377 0.0
C1494 C 0.25112 0.93047 0.40942 0.0
C1495 C 0.23515 0.91455 0.42377 0.0
C1496 C 0.2784 0.92817 0.40975 0.0
C1497 C 0.24699 0.89738 0.43974 0.0
C1498 C 0.27407 0.89465 0.43987 0.0
C1499 C 0.31614 0.90482 0.4221 0.0
C1500 C 0.3315 0.91935 0.40614 0.0
C1501 C 0.28973 0.90935 0.42429 0.0
C1502 C 0.32072 0.93926 0.39325 0.0
C1503 C 0.29425 0.94347 0.39481 0.0
H1504 H 0.19 0.83388 0.63803 0.0
H1505 H 0.13158 0.83777 0.69242 0.0
H1506 H 0.1294 0.78958 0.69399 0.0
H1507 H 0.14116 0.74591 0.6764 0.0
H1508 H 0.2018 0.74246 0.62446 0.0
H1509 H 0.20641 0.79115 0.6255 0.0
C1510 C 0.17711 0.82414 0.65051 0.0
C1511 C 0.16074 0.83903 0.66487 0.0
C1512 C 0.17631 0.79667 0.65158 0.0
C1513 C 0.14435 0.82654 0.68128 0.0
C1514 C 0.143 0.79905 0.68203 0.0
C1515 C 0.15562 0.75598 0.66563 0.0
C1516 C 0.17093 0.74091 0.6501 0.0
C1517 C 0.15842 0.78385 0.66675 0.0
C1518 C 0.18988 0.75388 0.6365 0.0
C1519 C 0.19239 0.7816 0.63701 0.0
H1520 H 0.19513 0.12437 0.60956 0.0
H1521 H 0.21374 0.20208 0.6567 0.0
H1522 H 0.26158 0.20102 0.65544 0.0
H1523 H 0.29817 0.1767 0.64383 0.0
H1524 H 0.28019 0.09722 0.59999 0.0
H1525 H 0.23222 0.10011 0.59715 0.0
C1526 C 0.20972 0.14126 0.61897 0.0
C1527 C 0.20104 0.16352 0.63276 0.0
C1528 C 0.23731 0.13997 0.61914 0.0
C1529 C 0.22005 0.18495 0.64567 0.0
C1530 C 0.24737 0.18425 0.6451 0.0
C1531 C 0.2838 0.16005 0.63345 0.0
C1532 C 0.29285 0.13676 0.62215 0.0
C1533 C 0.25627 0.16166 0.63236 0.0
C1534 C 0.27384 0.11534 0.60898 0.0
C1535 C 0.24637 0.11701 0.60729 0.0
H1536 H 0.83677 0.20396 0.64647 0.0
H1537 H 0.88398 0.19212 0.58244 0.0
H1538 H 0.88859 0.24001 0.57895 0.0
H1539 H 0.88256 0.28583 0.59705 0.0
H1540 H 0.83229 0.29732 0.65847 0.0
H1541 H 0.8252 0.249 0.65997 0.0
C1542 C 0.84767 0.21187 0.63147 0.0
C1543 C 0.86021 0.19464 0.61486 0.0
C1544 C 0.84979 0.23934 0.62927 0.0
C1545 C 0.87408 0.20499 0.59534 0.0
C1546 C 0.87686 0.23239 0.59348 0.0
C1547 C 0.86971 0.27763 0.61043 0.0
C1548 C 0.85811 0.295 0.62779 0.0
C1549 C 0.86531 0.24983 0.61075 0.0
C1550 C 0.84131 0.28426 0.64488 0.0
C1551 C 0.83741 0.25668 0.64583 0.0
H1552 H 0.72712 0.87256 0.58407 0.0
H1553 H 0.72867 0.85144 0.66359 0.0
H1554 H 0.7754 0.84381 0.66433 0.0
H1555 H 0.81647 0.84689 0.6439 0.0
H1556 H 0.81582 0.86807 0.56436 0.0
H1557 H 0.76774 0.8711 0.56157 0.0
C1558 C 0.73773 0.8659 0.60132 0.0
C1559 C 0.72482 0.86256 0.62381 0.0
C1560 C 0.76455 0.8615 0.60149 0.0
C1561 C 0.73842 0.85399 0.64613 0.0
C1562 C 0.76506 0.84971 0.64654 0.0
C1563 C 0.80576 0.85182 0.62577 0.0
C1564 C 0.81973 0.85756 0.60446 0.0
C1565 C 0.77842 0.85391 0.62455 0.0
C1566 C 0.80551 0.86353 0.58099 0.0
C1567 C 0.77809 0.86549 0.57952 0.0
H1568 H 0.39094 0.1811 0.22134 0.0
H1569 H 0.46061 0.14046 0.2263 0.0
H1570 H 0.46708 0.15093 0.2751 0.0
H1571 H 0.4495 0.16679 0.31625 0.0
H1572 H 0.38093 0.20889 0.31154 0.0
H1573 H 0.3777 0.20335 0.26264 0.0
C1574 C 0.40772 0.17485 0.23316 0.0
C1575 C 0.42503 0.15961 0.22041 0.0
C1576 C 0.4115 0.18131 0.26113 0.0
C1577 C 0.447 0.15207 0.23575 0.0
C1578 C 0.45064 0.158 0.26362 0.0
C1579 C 0.43438 0.17547 0.30448 0.0
C1580 C 0.4155 0.18828 0.31731 0.0
C1581 C 0.4326 0.17198 0.27651 0.0
C1582 C 0.39588 0.19932 0.30204 0.0
C1583 C 0.39384 0.19581 0.27411 0.0
H1584 H 0.91471 0.44014 0.31519 0.0
H1585 H 0.84994 0.37472 0.30026 0.0
H1586 H 0.84573 0.37779 0.2523 0.0
H1587 H 0.86289 0.39692 0.21456 0.0
H1588 H 0.92592 0.46396 0.22957 0.0
H1589 H 0.92831 0.4627 0.27781 0.0
C1590 C 0.89954 0.42671 0.3014 0.0
C1591 C 0.88288 0.40698 0.31105 0.0
C1592 C 0.89703 0.42888 0.27403 0.0
C1593 C 0.86297 0.39001 0.2932 0.0
C1594 C 0.86066 0.3917 0.26583 0.0
C1595 C 0.87698 0.41139 0.22847 0.0
C1596 C 0.89449 0.43029 0.2187 0.0
C1597 C 0.87794 0.41071 0.25601 0.0
C1598 C 0.91231 0.44926 0.23675 0.0
C1599 C 0.91374 0.44843 0.26425 0.0
H1600 H 0.64021 0.91996 0.20971 0.0
H1601 H 0.70337 0.87069 0.21508 0.0
H1602 H 0.70631 0.87685 0.2639 0.0
H1603 H 0.68767 0.89261 0.30431 0.0
H1604 H 0.62627 0.94382 0.29951 0.0
H1605 H 0.62593 0.94088 0.25093 0.0
C1606 C 0.65479 0.91081 0.22166 0.0
C1607 C 0.67128 0.89453 0.20899 0.0
C1608 C 0.65656 0.91478 0.2496 0.0
C1609 C 0.69046 0.8832 0.22451 0.0
C1610 C 0.69204 0.88664 0.25233 0.0
C1611 C 0.67461 0.90353 0.29261 0.0
C1612 C 0.65689 0.91827 0.30514 0.0
C1613 C 0.67476 0.90186 0.26498 0.0
C1614 C 0.64011 0.93248 0.2901 0.0
C1615 C 0.63981 0.93062 0.2624 0.0
H1616 H 0.11185 0.62575 0.20771 0.0
H1617 H 0.17585 0.69184 0.22031 0.0
H1618 H 0.17744 0.69347 0.26874 0.0
H1619 H 0.16084 0.6758 0.30733 0.0
H1620 H 0.09418 0.61245 0.29495 0.0
H1621 H 0.09324 0.61 0.24644 0.0
C1622 C 0.12617 0.64044 0.22113 0.0
C1623 C 0.14393 0.65847 0.21062 0.0
C1624 C 0.12642 0.64172 0.24884 0.0
C1625 C 0.16204 0.67777 0.22806 0.0
C1626 C 0.16297 0.67866 0.25567 0.0
C1627 C 0.14616 0.66142 0.29395 0.0
C1628 C 0.12781 0.64408 0.30452 0.0
C1629 C 0.14532 0.66068 0.26626 0.0
C1630 C 0.10851 0.62593 0.28714 0.0
C1631 C 0.10803 0.6245 0.25948 0.0
H1632 H 0.39019 0.83602 0.80182 0.0
H1633 H 0.45899 0.89692 0.82127 0.0
H1634 H 0.46192 0.89735 0.77362 0.0
H1635 H 0.4415 0.88397 0.72658 0.0
H1636 H 0.37404 0.82148 0.70724 0.0
H1637 H 0.37406 0.81782 0.75476 0.0
C1638 C 0.40614 0.84898 0.79557 0.0
C1639 C 0.42423 0.86659 0.8149 0.0
C1640 C 0.40772 0.84898 0.76824 0.0
C1641 C 0.44496 0.88313 0.80671 0.0
C1642 C 0.44646 0.88352 0.77949 0.0
C1643 C 0.42708 0.86928 0.7328 0.0
C1644 C 0.40755 0.85324 0.71355 0.0
C1645 C 0.42745 0.86711 0.7601 0.0
C1646 C 0.38922 0.83402 0.72173 0.0
C1647 C 0.38916 0.83204 0.74888 0.0
H1648 H 0.19983 0.40078 0.83289 0.0
H1649 H 0.14567 0.45882 0.84316 0.0
H1650 H 0.14399 0.46504 0.79601 0.0
H1651 H 0.15489 0.45075 0.75114 0.0
H1652 H 0.2116 0.39515 0.74151 0.0
H1653 H 0.21589 0.39149 0.78934 0.0
C1654 C 0.18795 0.415 0.82475 0.0
C1655 C 0.1726 0.4291 0.84109 0.0
C1656 C 0.18764 0.41888 0.7979 0.0
C1657 C 0.15756 0.44777 0.83074 0.0
C1658 C 0.15656 0.45125 0.80385 0.0
C1659 C 0.16858 0.43827 0.7597 0.0
C1660 C 0.1828 0.4231 0.743 0.0
C1661 C 0.17109 0.4365 0.78715 0.0
C1662 C 0.20062 0.40712 0.75413 0.0
C1663 C 0.20287 0.40485 0.78138 0.0
H1664 H 0.59138 0.12195 0.71395 0.0
H1665 H 0.66107 0.18154 0.72328 0.0
H1666 H 0.66255 0.18625 0.77199 0.0
H1667 H 0.64571 0.17083 0.81182 0.0
H1668 H 0.57457 0.11292 0.80196 0.0
H1669 H 0.57187 0.11006 0.75337 0.0
C1670 C 0.60672 0.13618 0.72668 0.0
C1671 C 0.62626 0.15122 0.71521 0.0
C1672 C 0.60728 0.13884 0.75445 0.0
C1673 C 0.6458 0.16986 0.73175 0.0
C1674 C 0.64675 0.17237 0.75955 0.0
C1675 C 0.6296 0.15766 0.79896 0.0
C1676 C 0.61058 0.14176 0.81031 0.0
C1677 C 0.62791 0.15654 0.77111 0.0
C1678 C 0.58946 0.12522 0.7936 0.0
C1679 C 0.58795 0.12357 0.76587 0.0
H1680 H 0.86578 0.58693 0.78211 0.0
H1681 H 0.83527 0.66145 0.80011 0.0
H1682 H 0.82276 0.66329 0.75272 0.0
H1683 H 0.82609 0.64696 0.70608 0.0
H1684 H 0.86047 0.57486 0.68795 0.0
H1685 H 0.86533 0.5684 0.73502 0.0
C1686 C 0.85602 0.60326 0.77554 0.0
C1687 C 0.85188 0.62421 0.79439 0.0
C1688 C 0.84957 0.60464 0.74814 0.0
C1689 C 0.83917 0.64535 0.7858 0.0
C1690 C 0.83189 0.64639 0.75873 0.0
C1691 C 0.83381 0.62946 0.71247 0.0
C1692 C 0.84275 0.61132 0.69389 0.0
C1693 C 0.83776 0.62661 0.73969 0.0
C1694 C 0.85335 0.58897 0.70218 0.0
C1695 C 0.85632 0.58538 0.72905 0.0
H1696 H 0.22621 0.39618 0.20598 0.0
H1697 H 0.21453 0.32284 0.15134 0.0
H1698 H 0.26302 0.32219 0.15639 0.0
H1699 H 0.30867 0.34524 0.17253 0.0
H1700 H 0.32049 0.4175 0.22865 0.0
H1701 H 0.27184 0.41573 0.2272 0.0
C1702 C 0.23431 0.37985 0.19552 0.0
C1703 C 0.21696 0.35974 0.17804 0.0
C1704 C 0.26212 0.37955 0.19871 0.0
C1705 C 0.22754 0.33849 0.16488 0.0
C1706 C 0.25523 0.33822 0.16765 0.0
C1707 C 0.30053 0.36034 0.18478 0.0
C1708 C 0.31796 0.38165 0.20046 0.0
C1709 C 0.2727 0.35904 0.18393 0.0
C1710 C 0.30738 0.40092 0.21651 0.0
C1711 C 0.27962 0.39999 0.21551 0.0
H1712 H 0.20336 0.60428 0.83689 0.0
H1713 H 0.20998 0.64364 0.91772 0.0
H1714 H 0.2577 0.64036 0.92474 0.0
H1715 H 0.29787 0.62923 0.90739 0.0
H1716 H 0.29349 0.59297 0.82568 0.0
H1717 H 0.2447 0.59206 0.81946 0.0
C1718 C 0.21531 0.61172 0.85608 0.0
C1719 C 0.20328 0.62407 0.87685 0.0
C1720 C 0.24313 0.61057 0.85973 0.0
C1721 C 0.2189 0.63408 0.9015 0.0
C1722 C 0.24617 0.63225 0.90551 0.0
C1723 C 0.28633 0.62085 0.88823 0.0
C1724 C 0.2994 0.61116 0.86705 0.0
C1725 C 0.25856 0.62099 0.88467 0.0
C1726 C 0.28398 0.6006 0.84234 0.0
C1727 C 0.25607 0.60009 0.83878 0.0
H1728 H 0.39516 0.21271 0.9343 0.0
H1729 H 0.45865 0.21618 0.88544 0.0
H1730 H 0.46391 0.26512 0.89283 0.0
H1731 H 0.44675 0.30648 0.9089 0.0
H1732 H 0.38464 0.30339 0.95929 0.0
H1733 H 0.38277 0.25465 0.95609 0.0
C1734 C 0.4104 0.22424 0.9256 0.0
C1735 C 0.42626 0.21094 0.90902 0.0
C1736 C 0.41348 0.25233 0.93023 0.0
C1737 C 0.44622 0.226 0.89821 0.0
C1738 C 0.44913 0.25395 0.90235 0.0
C1739 C 0.43329 0.29513 0.91971 0.0
C1740 C 0.41578 0.30832 0.93425 0.0
C1741 C 0.43239 0.26726 0.91772 0.0
C1742 C 0.39844 0.29361 0.94822 0.0
C1743 C 0.3972 0.26576 0.94613 0.0
H1744 H 0.83574 0.40766 0.92071 0.0
H1745 H 0.81519 0.34005 0.85877 0.0
H1746 H 0.76742 0.34247 0.86011 0.0
H1747 H 0.73191 0.36581 0.87697 0.0
H1748 H 0.75244 0.4317 0.94077 0.0
H1749 H 0.80014 0.42795 0.94085 0.0
C1750 C 0.82074 0.39335 0.90762 0.0
C1751 C 0.82879 0.37393 0.88936 0.0
C1752 C 0.79353 0.3947 0.90881 0.0
C1753 C 0.80935 0.35516 0.87289 0.0
C1754 C 0.78213 0.35665 0.8736 0.0
C1755 C 0.74689 0.37928 0.89095 0.0
C1756 C 0.7389 0.39933 0.90855 0.0
C1757 C 0.77405 0.37665 0.89113 0.0
C1758 C 0.75826 0.41625 0.927 0.0
C1759 C 0.78544 0.41413 0.92697 0.0
H1760 H 0.67407 0.72716 0.86057 0.0
H1761 H 0.62944 0.73437 0.92715 0.0
H1762 H 0.64083 0.78315 0.93273 0.0
H1763 H 0.66021 0.82361 0.91606 0.0
H1764 H 0.70652 0.81671 0.85085 0.0
H1765 H 0.69835 0.76773 0.84759 0.0
C1766 C 0.66692 0.73949 0.87634 0.0
C1767 C 0.65044 0.72738 0.8931 0.0
C1768 C 0.67407 0.76739 0.87974 0.0
C1769 C 0.6419 0.74335 0.91391 0.0
C1770 C 0.64843 0.77116 0.91707 0.0
C1771 C 0.66904 0.81131 0.90157 0.0
C1772 C 0.68397 0.82355 0.88371 0.0
C1773 C 0.6641 0.78337 0.89981 0.0
C1774 C 0.69529 0.80763 0.86497 0.0
C1775 C 0.69031 0.77969 0.86293 0.0
H1776 H 0.80105 0.62743 0.08222 0.0
H1777 H 0.79277 0.56894 0.1363 0.0
H1778 H 0.74416 0.56917 0.13075 0.0
H1779 H 0.70465 0.58867 0.11301 0.0
H1780 H 0.71247 0.64462 0.05635 0.0
H1781 H 0.76078 0.64268 0.06016 0.0
C1782 C 0.78849 0.61453 0.09253 0.0
C1783 C 0.80032 0.59839 0.10987 0.0
C1784 C 0.76065 0.61447 0.08885 0.0
C1785 C 0.78399 0.58146 0.12285 0.0
C1786 C 0.75628 0.58172 0.11979 0.0
C1787 C 0.71698 0.60022 0.10133 0.0
C1788 C 0.70529 0.61704 0.08468 0.0
C1789 C 0.7445 0.59854 0.10324 0.0
C1790 C 0.72117 0.63159 0.06928 0.0
C1791 C 0.74873 0.63055 0.07156 0.0
H1792 H 0.42504 0.71737 0.1605 0.0
H1793 H 0.35883 0.70146 0.09644 0.0
H1794 H 0.36202 0.74893 0.09236 0.0
H1795 H 0.38252 0.79476 0.10758 0.0
H1796 H 0.4495 0.81205 0.17065 0.0
H1797 H 0.44776 0.76411 0.17406 0.0
C1798 C 0.41125 0.72445 0.14585 0.0
C1799 C 0.39146 0.70609 0.12904 0.0
C1800 C 0.41364 0.75183 0.14315 0.0
C1801 C 0.37408 0.71529 0.10968 0.0
C1802 C 0.37596 0.74237 0.10727 0.0
C1803 C 0.39697 0.78803 0.1219 0.0
C1804 C 0.41602 0.80683 0.13892 0.0
C1805 C 0.39558 0.76076 0.12389 0.0
C1806 C 0.43479 0.79787 0.15717 0.0
C1807 C 0.43357 0.77053 0.15932 0.0
H1808 H 0.67004 0.30639 0.15971 0.0
H1809 H 0.61065 0.28871 0.08945 0.0
H1810 H 0.61369 0.24103 0.08825 0.0
H1811 H 0.63084 0.20451 0.10895 0.0
H1812 H 0.6913 0.22145 0.17818 0.0
H1813 H 0.69071 0.26966 0.17784 0.0
C1814 C 0.65782 0.29204 0.14413 0.0
C1815 C 0.63978 0.30084 0.12494 0.0
C1816 C 0.65999 0.26476 0.14337 0.0
C1817 C 0.62451 0.28228 0.10448 0.0
C1818 C 0.62624 0.25509 0.10382 0.0
C1819 C 0.6441 0.21883 0.12379 0.0
C1820 C 0.66087 0.20974 0.14377 0.0
C1821 C 0.64357 0.24615 0.12339 0.0
C1822 C 0.6783 0.22821 0.16265 0.0
C1823 C 0.67777 0.25564 0.16254 0.0
H1824 H 0.87516 0.70888 0.67016 0.0
H1825 H 0.93759 0.70154 0.62077 0.0
H1826 H 0.9462 0.75022 0.62307 0.0
H1827 H 0.93251 0.79448 0.63524 0.0
H1828 H 0.87247 0.8022 0.68738 0.0
H1829 H 0.86653 0.75381 0.68826 0.0
C1830 C 0.89098 0.71805 0.66035 0.0
C1831 C 0.90559 0.70176 0.64513 0.0
C1832 C 0.89608 0.74604 0.66214 0.0
C1833 C 0.92619 0.71374 0.63268 0.0
C1834 C 0.93097 0.74154 0.63384 0.0
C1835 C 0.91851 0.78554 0.64718 0.0
C1836 C 0.90276 0.8017 0.66105 0.0
C1837 C 0.91556 0.75783 0.64792 0.0
C1838 C 0.88485 0.79009 0.67666 0.0
C1839 C 0.88133 0.76243 0.677 0.0
H1840 H 0.24506 0.93872 0.65589 0.0
H1841 H 0.22583 0.8848 0.582 0.0
H1842 H 0.27285 0.87855 0.58321 0.0
H1843 H 0.3189 0.88605 0.60688 0.0
H1844 H 0.33902 0.94228 0.679 0.0
H1845 H 0.29217 0.95007 0.67697 0.0
C1846 C 0.25127 0.92587 0.6399 0.0
C1847 C 0.232 0.91209 0.61898 0.0
C1848 C 0.27839 0.9226 0.64058 0.0
C1849 C 0.24029 0.89571 0.59824 0.0
C1850 C 0.26714 0.89197 0.59903 0.0
C1851 C 0.31296 0.90007 0.62207 0.0
C1852 C 0.33212 0.91328 0.64329 0.0
C1853 C 0.28624 0.9049 0.62036 0.0
C1854 C 0.32448 0.93184 0.66257 0.0
C1855 C 0.29774 0.93623 0.66141 0.0
H1856 H 0.15479 0.33693 0.69962 0.0
H1857 H 0.08426 0.3265 0.64095 0.0
H1858 H 0.0799 0.27794 0.64087 0.0
H1859 H 0.09824 0.23843 0.65529 0.0
H1860 H 0.1668 0.24918 0.7164 0.0
H1861 H 0.16983 0.29779 0.718 0.0
C1862 C 0.13831 0.32397 0.68704 0.0
C1863 C 0.12001 0.33507 0.67008 0.0
C1864 C 0.13572 0.29626 0.68751 0.0
C1865 C 0.09852 0.31829 0.65416 0.0
C1866 C 0.09614 0.29059 0.65402 0.0
C1867 C 0.11366 0.25149 0.66912 0.0
C1868 C 0.13248 0.24038 0.68551 0.0
C1869 C 0.11492 0.27934 0.67026 0.0
C1870 C 0.15213 0.25737 0.70365 0.0
C1871 C 0.15392 0.2851 0.70445 0.0
H1872 H 0.70485 0.11968 0.68592 0.0
H1873 H 0.69068 0.05584 0.62006 0.0
H1874 H 0.73914 0.05663 0.62058 0.0
H1875 H 0.78524 0.07972 0.63619 0.0
H1876 H 0.79906 0.14245 0.70325 0.0
H1877 H 0.75103 0.13784 0.70601 0.0
C1878 C 0.71244 0.10541 0.67221 0.0
C1879 C 0.69433 0.0877 0.65298 0.0
C1880 C 0.74021 0.10617 0.67258 0.0
C1881 C 0.70426 0.06937 0.63524 0.0
C1882 C 0.73196 0.0701 0.63534 0.0
C1883 C 0.77772 0.09212 0.65162 0.0
C1884 C 0.79561 0.1117 0.66926 0.0
C1885 C 0.75008 0.08907 0.65331 0.0
C1886 C 0.78571 0.12732 0.68943 0.0
C1887 C 0.75824 0.12473 0.69095 0.0
H1888 H 0.9043 0.31922 0.34363 0.0
H1889 H 0.97481 0.3348 0.40263 0.0
H1890 H 0.97593 0.28666 0.40143 0.0
H1891 H 0.95338 0.24039 0.38765 0.0
H1892 H 0.88399 0.22476 0.32729 0.0
H1893 H 0.88597 0.27273 0.32467 0.0
C1894 C 0.92024 0.31203 0.35579 0.0
C1895 C 0.93933 0.33045 0.37339 0.0
C1896 C 0.92074 0.28439 0.35491 0.0
C1897 C 0.96001 0.32099 0.38887 0.0
C1898 C 0.96048 0.29349 0.38834 0.0
C1899 C 0.93899 0.24752 0.37359 0.0
C1900 C 0.91836 0.2292 0.35789 0.0
C1901 C 0.94044 0.27504 0.37208 0.0
C1902 C 0.90004 0.23851 0.33951 0.0
C1903 C 0.90109 0.26593 0.33816 0.0
H1904 H 0.81852 0.857 0.38494 0.0
H1905 H 0.81772 0.90751 0.32283 0.0
H1906 H 0.76896 0.90533 0.32022 0.0
H1907 H 0.72754 0.89307 0.33938 0.0
H1908 H 0.7278 0.84008 0.39928 0.0
H1909 H 0.77592 0.83897 0.39902 0.0
C1910 C 0.80752 0.86705 0.37046 0.0
C1911 C 0.82154 0.88255 0.3542 0.0
C1912 C 0.77957 0.86544 0.36895 0.0
C1913 C 0.80724 0.89536 0.33539 0.0
C1914 C 0.77944 0.89429 0.33408 0.0
C1915 C 0.73812 0.8809 0.35198 0.0
C1916 C 0.72442 0.86683 0.3695 0.0
C1917 C 0.76555 0.88001 0.3513 0.0
C1918 C 0.73807 0.85097 0.38563 0.0
C1919 C 0.76553 0.85047 0.38556 0.0
H1920 H 0.13925 0.73004 0.35207 0.0
H1921 H 0.20194 0.74355 0.41941 0.0
H1922 H 0.2052 0.79185 0.4187 0.0
H1923 H 0.18816 0.83016 0.40074 0.0
H1924 H 0.12765 0.81709 0.33161 0.0
H1925 H 0.12577 0.76853 0.33083 0.0
C1926 C 0.15369 0.74362 0.36648 0.0
C1927 C 0.17008 0.73339 0.38605 0.0
C1928 C 0.15583 0.7713 0.36554 0.0
C1929 C 0.18909 0.75103 0.40427 0.0
C1930 C 0.1909 0.7786 0.40389 0.0
C1931 C 0.1748 0.81662 0.38531 0.0
C1932 C 0.15788 0.82702 0.36638 0.0
C1933 C 0.1741 0.78893 0.38488 0.0
C1934 C 0.14089 0.80944 0.34628 0.0
C1935 C 0.1397 0.78174 0.34599 0.0
H1936 H 0.32695 0.1636 0.34234 0.0
H1937 H 0.32405 0.09579 0.38562 0.0
H1938 H 0.27544 0.09409 0.38369 0.0
H1939 H 0.23516 0.11607 0.37516 0.0
H1940 H 0.23764 0.1827 0.33031 0.0
H1941 H 0.28512 0.18063 0.32701 0.0
C1942 C 0.3155 0.14808 0.35077 0.0
C1943 C 0.3289 0.12999 0.36434 0.0
C1944 C 0.28767 0.14725 0.34951 0.0
C1945 C 0.31405 0.10981 0.375 0.0
C1946 C 0.28634 0.10901 0.3741 0.0
C1947 C 0.24605 0.12972 0.36417 0.0
C1948 C 0.23326 0.14969 0.3532 0.0
C1949 C 0.27314 0.12823 0.36224 0.0
C1950 C 0.24722 0.16717 0.3388 0.0
C1951 C 0.27434 0.16608 0.3371 0.0
H1952 H 0.62731 0.88241 0.70488 0.0
H1953 H 0.69384 0.94607 0.7212 0.0
H1954 H 0.69336 0.94647 0.76926 0.0
H1955 H 0.67518 0.9275 0.80646 0.0
H1956 H 0.60675 0.86599 0.79059 0.0
H1957 H 0.60653 0.86609 0.74236 0.0
C1958 C 0.64168 0.89636 0.71901 0.0
C1959 C 0.66086 0.91395 0.7096 0.0
C1960 C 0.64086 0.89687 0.74656 0.0
C1961 C 0.67899 0.93232 0.72801 0.0
C1962 C 0.67873 0.93251 0.75545 0.0
C1963 C 0.66014 0.91419 0.79241 0.0
C1964 C 0.64119 0.89652 0.80195 0.0
C1965 C 0.65994 0.9147 0.76491 0.0
C1966 C 0.62151 0.87974 0.78365 0.0
C1967 C 0.62149 0.87973 0.75613 0.0
H1968 H 0.09145 0.65775 0.79707 0.0
H1969 H 0.16136 0.71743 0.81547 0.0
H1970 H 0.16014 0.7218 0.76791 0.0
H1971 H 0.14296 0.70366 0.72109 0.0
H1972 H 0.07273 0.64435 0.70277 0.0
H1973 H 0.06988 0.64506 0.75055 0.0
C1974 C 0.1061 0.67207 0.79065 0.0
C1975 C 0.12674 0.68697 0.80949 0.0
C1976 C 0.10525 0.67435 0.76343 0.0
C1977 C 0.14536 0.70578 0.80121 0.0
C1978 C 0.14474 0.70811 0.77406 0.0
C1979 C 0.12672 0.69131 0.72762 0.0
C1980 C 0.10829 0.67367 0.70867 0.0
C1981 C 0.12537 0.69177 0.75498 0.0
C1982 C 0.08709 0.65805 0.71711 0.0
C1983 C 0.08562 0.65831 0.74437 0.0
H1984 H 0.4036 0.16835 0.81304 0.0
H1985 H 0.3306 0.11285 0.80022 0.0
H1986 H 0.32677 0.11496 0.75202 0.0
H1987 H 0.34557 0.13113 0.71323 0.0
H1988 H 0.41657 0.1895 0.72696 0.0
H1989 H 0.41981 0.18783 0.77504 0.0
C1990 C 0.38674 0.15687 0.79969 0.0
C1991 C 0.36752 0.14027 0.81012 0.0
C1992 C 0.38442 0.15863 0.77215 0.0
C1993 C 0.34559 0.1258 0.79267 0.0
C1994 C 0.3435 0.12691 0.76511 0.0
C1995 C 0.36167 0.14356 0.72681 0.0
C1996 C 0.38099 0.16023 0.71652 0.0
C1997 C 0.363 0.143 0.75457 0.0
C1998 C 0.40148 0.17653 0.73436 0.0
C1999 C 0.40337 0.17552 0.76185 0.0
H2000 H 0.89439 0.41454 0.71788 0.0
H2001 H 0.94868 0.35582 0.72004 0.0
H2002 H 0.95252 0.36099 0.76888 0.0
H2003 H 0.93793 0.38001 0.81065 0.0
H2004 H 0.88646 0.44121 0.80907 0.0
H2005 H 0.88417 0.43758 0.7603 0.0
C2006 C 0.90724 0.40306 0.72912 0.0
C2007 C 0.921 0.38456 0.71541 0.0
C2008 C 0.90977 0.40659 0.75721 0.0
C2009 C 0.93791 0.37014 0.73015 0.0
C2010 C 0.94 0.37303 0.75805 0.0
C2011 C 0.92646 0.39276 0.7996 0.0
C2012 C 0.91215 0.41068 0.8133 0.0
C2013 C 0.92567 0.39085 0.77173 0.0
C2014 C 0.89766 0.42735 0.79892 0.0
C2015 C 0.89624 0.42513 0.77106 0.0
H2016 H 0.61661 0.15269 0.31142 0.0
H2017 H 0.66739 0.09079 0.30875 0.0
H2018 H 0.6588 0.08424 0.25981 0.0
H2019 H 0.64022 0.09918 0.21799 0.0
H2020 H 0.58748 0.15928 0.22034 0.0
H2021 H 0.593 0.16325 0.26932 0.0
C2022 C 0.62557 0.13759 0.30007 0.0
C2023 C 0.64297 0.1225 0.31359 0.0
C2024 C 0.62014 0.13366 0.272 0.0
C2025 C 0.65404 0.10266 0.29877 0.0
C2026 C 0.64919 0.099 0.27082 0.0
C2027 C 0.62953 0.11278 0.22926 0.0
C2028 C 0.61358 0.12906 0.21571 0.0
C2029 C 0.63275 0.11479 0.25726 0.0
C2030 C 0.59968 0.14646 0.23037 0.0
C2031 C 0.60306 0.14887 0.25835 0.0
H2032 H 0.90897 0.67532 0.30048 0.0
H2033 H 0.84571 0.60978 0.29692 0.0
H2034 H 0.84086 0.60365 0.24805 0.0
H2035 H 0.85579 0.616 0.20635 0.0
H2036 H 0.91624 0.68404 0.20976 0.0
H2037 H 0.92097 0.69031 0.25864 0.0
C2038 C 0.89407 0.65978 0.28894 0.0
C2039 C 0.87789 0.64283 0.3022 0.0
C2040 C 0.89094 0.65685 0.26087 0.0
C2041 C 0.85836 0.62305 0.2871 0.0
C2042 C 0.85566 0.6195 0.25919 0.0
C2043 C 0.8699 0.63226 0.21785 0.0
C2044 C 0.88584 0.6494 0.20457 0.0
C2045 C 0.87201 0.63612 0.24587 0.0
C2046 C 0.90375 0.67064 0.21959 0.0
C2047 C 0.90652 0.67415 0.24751 0.0
H2048 H 0.39656 0.90185 0.22438 0.0
H2049 H 0.32742 0.84171 0.20195 0.0
H2050 H 0.32745 0.83511 0.2491 0.0
H2051 H 0.34926 0.8453 0.29682 0.0
H2052 H 0.41828 0.90622 0.3169 0.0
H2053 H 0.41649 0.91322 0.2705 0.0
C2054 C 0.3813 0.8874 0.22977 0.0
C2055 C 0.36212 0.8722 0.20976 0.0
C2056 C 0.38174 0.88356 0.25651 0.0
C2057 C 0.3423 0.85381 0.21708 0.0
C2058 C 0.34252 0.84986 0.24397 0.0
C2059 C 0.36391 0.85994 0.29087 0.0
C2060 C 0.38396 0.87513 0.31028 0.0
C2061 C 0.36252 0.8643 0.26387 0.0
C2062 C 0.40261 0.89433 0.30242 0.0
C2063 C 0.40161 0.89841 0.27587 0.0
H2064 H 0.17346 0.4383 0.3338 0.0
H2065 H 0.11481 0.36905 0.33167 0.0
H2066 H 0.10512 0.366 0.2829 0.0
H2067 H 0.1166 0.38076 0.24083 0.0
H2068 H 0.17382 0.45132 0.24338 0.0
H2069 H 0.18057 0.45649 0.29223 0.0
C2070 C 0.15837 0.42271 0.32261 0.0
C2071 C 0.14512 0.40364 0.33604 0.0
C2072 C 0.15273 0.42136 0.29479 0.0
C2073 C 0.12526 0.38384 0.3216 0.0
C2074 C 0.11983 0.38207 0.29378 0.0
C2075 C 0.13025 0.39749 0.25214 0.0
C2076 C 0.14495 0.41548 0.23861 0.0
C2077 C 0.1339 0.40037 0.28015 0.0
C2078 C 0.16228 0.43727 0.25339 0.0
C2079 C 0.16628 0.4401 0.28128 0.0
H2080 H 0.71365 0.68909 0.87335 0.0
H2081 H 0.70349 0.62751 0.80553 0.0
H2082 H 0.75227 0.63013 0.8078 0.0
H2083 H 0.797 0.64549 0.83313 0.0
H2084 H 0.80729 0.70713 0.90088 0.0
H2085 H 0.75892 0.70924 0.89455 0.0
C2086 C 0.7222 0.67661 0.85877 0.0
C2087 C 0.70525 0.65783 0.83953 0.0
C2088 C 0.75005 0.67808 0.86046 0.0
C2089 C 0.71628 0.64206 0.82045 0.0
C2090 C 0.74408 0.64342 0.82193 0.0
C2091 C 0.78862 0.65964 0.84627 0.0
C2092 C 0.80532 0.6758 0.86776 0.0
C2093 C 0.76104 0.66063 0.84247 0.0
C2094 C 0.79462 0.69447 0.88435 0.0
C2095 C 0.76705 0.69554 0.88077 0.0
H2096 H 0.71594 0.36008 0.12745 0.0
H2097 H 0.72981 0.42366 0.1937 0.0
H2098 H 0.778 0.42867 0.19094 0.0
H2099 H 0.81575 0.41602 0.16838 0.0
H2100 H 0.8021 0.35031 0.10424 0.0
H2101 H 0.75403 0.34499 0.10739 0.0
C2102 C 0.72955 0.375 0.14134 0.0
C2103 C 0.71939 0.39175 0.16056 0.0
C2104 C 0.75711 0.37741 0.13986 0.0
C2105 C 0.73721 0.4106 0.17876 0.0
C2106 C 0.76469 0.41352 0.17708 0.0
C2107 C 0.80219 0.40058 0.15506 0.0
C2108 C 0.81227 0.38384 0.13576 0.0
C2109 C 0.77479 0.39726 0.15748 0.0
C2110 C 0.79471 0.36349 0.11909 0.0
C2111 C 0.76729 0.36049 0.1209 0.0
H2112 H 0.60057 0.70359 0.09742 0.0
H2113 H 0.66827 0.71022 0.15893 0.0
H2114 H 0.66959 0.75883 0.16638 0.0
H2115 H 0.6526 0.7994 0.154 0.0
H2116 H 0.58274 0.79293 0.09507 0.0
H2117 H 0.58069 0.74413 0.08823 0.0
C2118 C 0.61558 0.7158 0.1124 0.0
C2119 C 0.63463 0.70365 0.12732 0.0
C2120 C 0.61564 0.74358 0.11712 0.0
C2121 C 0.6536 0.71934 0.14715 0.0
C2122 C 0.65432 0.74705 0.1514 0.0
C2123 C 0.63677 0.78723 0.13986 0.0
C2124 C 0.61796 0.79957 0.12488 0.0
C2125 C 0.63559 0.75936 0.13634 0.0
C2126 C 0.59733 0.78374 0.10688 0.0
C2127 C 0.59631 0.75592 0.10284 0.0
H2128 H 0.20507 0.59726 0.08523 0.0
H2129 H 0.22079 0.63118 0.1682 0.0
H2130 H 0.2689 0.63192 0.16768 0.0
H2131 H 0.30633 0.626 0.14308 0.0
H2132 H 0.29181 0.59491 0.05918 0.0
H2133 H 0.24341 0.59012 0.06048 0.0
C2134 C 0.21912 0.60419 0.10326 0.0
C2135 C 0.20959 0.6137 0.12689 0.0
C2136 C 0.24688 0.60551 0.10249 0.0
C2137 C 0.22782 0.62343 0.14997 0.0
C2138 C 0.25527 0.62403 0.1496 0.0
C2139 C 0.29268 0.61803 0.12502 0.0
C2140 C 0.30278 0.61092 0.10103 0.0
C2141 C 0.26503 0.61564 0.12587 0.0
C2142 C 0.28463 0.60067 0.0779 0.0
C2143 C 0.25694 0.59786 0.07865 0.0
H2144 H 0.39522 0.21475 0.175 0.0
H2145 H 0.33109 0.19831 0.10913 0.0
H2146 H 0.33068 0.24661 0.10869 0.0
H2147 H 0.35113 0.29353 0.12571 0.0
H2148 H 0.41443 0.30827 0.19266 0.0
H2149 H 0.41294 0.26045 0.19387 0.0
C2150 C 0.38093 0.22181 0.16075 0.0
C2151 C 0.36331 0.20336 0.14205 0.0
C2152 C 0.38103 0.24918 0.1606 0.0
C2153 C 0.34467 0.2124 0.12382 0.0
C2154 C 0.34467 0.23991 0.12342 0.0
C2155 C 0.36457 0.28611 0.14043 0.0
C2156 C 0.38308 0.30421 0.15888 0.0
C2157 C 0.3632 0.25849 0.14139 0.0
C2158 C 0.4001 0.29461 0.17825 0.0
C2159 C 0.39924 0.26734 0.17899 0.0
H2160 H 0.32425 0.34438 0.91617 0.0
H2161 H 0.32371 0.38317 0.84542 0.0
H2162 H 0.27601 0.38666 0.84517 0.0
H2163 H 0.23599 0.3832 0.86832 0.0
H2164 H 0.236 0.3424 0.93767 0.0
H2165 H 0.28254 0.33506 0.9354 0.0
C2166 C 0.31349 0.35309 0.9004 0.0
C2167 C 0.32736 0.36372 0.88096 0.0
C2168 C 0.2862 0.35496 0.90042 0.0
C2169 C 0.31332 0.37475 0.86047 0.0
C2170 C 0.28617 0.37697 0.8605 0.0
C2171 C 0.2462 0.37238 0.88264 0.0
C2172 C 0.23305 0.36357 0.90332 0.0
C2173 C 0.27266 0.36789 0.88086 0.0
C2174 C 0.24601 0.34934 0.92168 0.0
C2175 C 0.27253 0.34523 0.92039 0.0
H2176 H 0.62691 0.22308 0.85873 0.0
H2177 H 0.69161 0.23625 0.92418 0.0
H2178 H 0.69791 0.28411 0.92056 0.0
H2179 H 0.6836 0.32228 0.90015 0.0
H2180 H 0.62083 0.30917 0.83293 0.0
H2181 H 0.61541 0.26096 0.83548 0.0
C2182 C 0.64235 0.2365 0.87221 0.0
C2183 C 0.65849 0.22635 0.89205 0.0
C2184 C 0.64626 0.26382 0.86954 0.0
C2185 C 0.67887 0.2437 0.90893 0.0
C2186 C 0.68245 0.27101 0.90685 0.0
C2187 C 0.66888 0.3088 0.8859 0.0
C2188 C 0.65242 0.31917 0.86653 0.0
C2189 C 0.66609 0.28129 0.88741 0.0
C2190 C 0.63374 0.30157 0.84793 0.0
C2191 C 0.63053 0.27409 0.84955 0.0
H2192 H 0.35014 0.70167 0.87147 0.0
H2193 H 0.40458 0.7182 0.9453 0.0
H2194 H 0.40529 0.7662 0.94445 0.0
H2195 H 0.39264 0.80337 0.92135 0.0
H2196 H 0.33608 0.78761 0.84912 0.0
H2197 H 0.33364 0.73933 0.85079 0.0
C2198 C 0.36203 0.71583 0.88742 0.0
C2199 C 0.37757 0.70645 0.90827 0.0
C2200 C 0.36191 0.74344 0.88706 0.0
C2201 C 0.39251 0.72494 0.92905 0.0
C2202 C 0.39297 0.75237 0.92853 0.0
C2203 C 0.37957 0.78932 0.90612 0.0
C2204 C 0.36474 0.79888 0.88499 0.0
C2205 C 0.37807 0.76181 0.90745 0.0
C2206 C 0.34759 0.78064 0.86558 0.0
C2207 C 0.34636 0.75308 0.86647 0.0
loop_
_geom_bond_atom_site_label_1
_geom_bond_atom_site_label_2
_geom_bond_distance
_geom_bond_site_symmetry_2
_ccdc_geom_bond_type
C0 O2 1.247 . S
C0 O4 1.258 . S
C1 O8 1.247 . S
C1 O9 1.258 . S
O2 C0 1.247 . S
O2 Zn3 2.028 . S
Zn3 O2 2.028 . S
Zn3 O7 2.035 . S
Zn3 O9 2.035 . S
Zn3 O10 2.028 . S
O4 C0 1.258 . S
O4 Zn5 2.035 . S
Zn5 O4 2.035 . S
Zn5 O6 2.028 . S
Zn5 O8 2.028 . S
Zn5 O11 2.035 . S
O6 Zn5 2.028 . S
O6 C12 1.247 . S
O7 Zn3 2.035 . S
O7 C12 1.258 . S
O8 C1 1.247 . S
O8 Zn5 2.028 . S
O9 C1 1.258 . S
O9 Zn3 2.035 . S
O10 Zn3 2.028 . S
O10 C13 1.247 . S
O11 Zn5 2.035 . S
O11 C13 1.258 . S
C12 O6 1.247 . S
C12 O7 1.258 . S
C13 O10 1.247 . S
C13 O11 1.258 . S
C14 O16 1.247 . S
C14 O18 1.258 . S
C15 O22 1.247 . S
C15 O23 1.258 . S
O16 C14 1.247 . S
O16 Zn17 2.028 . S
Zn17 O16 2.028 . S
Zn17 O21 2.035 . S
Zn17 O23 2.035 . S
Zn17 O24 2.028 . S
O18 C14 1.258 . S
O18 Zn19 2.035 . S
Zn19 O18 2.035 . S
Zn19 O20 2.028 . S
Zn19 O22 2.028 . S
Zn19 O25 2.035 . S
O20 Zn19 2.028 . S
O20 C26 1.247 . S
O21 Zn17 2.035 . S
O21 C26 1.258 . S
O22 C15 1.247 . S
O22 Zn19 2.028 . S
O23 C15 1.258 . S
O23 Zn17 2.035 . S
O24 Zn17 2.028 . S
O24 C27 1.247 . S
O25 Zn19 2.035 . S
O25 C27 1.258 . S
C26 O20 1.247 . S
C26 O21 1.258 . S
C27 O24 1.247 . S
C27 O25 1.258 . S
C28 O30 1.247 . S
C28 O32 1.258 . S
C29 O36 1.247 . S
C29 O37 1.258 . S
O30 C28 1.247 . S
O30 Zn31 2.028 . S
Zn31 O30 2.028 . S
Zn31 O35 2.035 . S
Zn31 O37 2.035 . S
Zn31 O38 2.028 . S
O32 C28 1.258 . S
O32 Zn33 2.035 . S
Zn33 O32 2.035 . S
Zn33 O34 2.028 . S
Zn33 O36 2.028 . S
Zn33 O39 2.035 . S
O34 Zn33 2.028 . S
O34 C40 1.247 . S
O35 Zn31 2.035 . S
O35 C40 1.258 . S
O36 C29 1.247 . S
O36 Zn33 2.028 . S
O37 C29 1.258 . S
O37 Zn31 2.035 . S
O38 Zn31 2.028 . S
O38 C41 1.247 . S
O39 Zn33 2.035 . S
O39 C41 1.258 . S
C40 O34 1.247 . S
C40 O35 1.258 . S
C41 O38 1.247 . S
C41 O39 1.258 . S
C42 O44 1.247 . S
C42 O46 1.258 . S
C43 O50 1.247 . S
C43 O51 1.258 . S
O44 C42 1.247 . S
O44 Zn45 2.028 . S
Zn45 O44 2.028 . S
Zn45 O49 2.035 . S
Zn45 O51 2.035 . S
Zn45 O52 2.028 . S
O46 C42 1.258 . S
O46 Zn47 2.035 . S
Zn47 O46 2.035 . S
Zn47 O48 2.028 . S
Zn47 O50 2.028 . S
Zn47 O53 2.035 . S
O48 Zn47 2.028 . S
O48 C54 1.247 . S
O49 Zn45 2.035 . S
O49 C54 1.258 . S
O50 C43 1.247 . S
O50 Zn47 2.028 . S
O51 C43 1.258 . S
O51 Zn45 2.035 . S
O52 Zn45 2.028 . S
O52 C55 1.247 . S
O53 Zn47 2.035 . S
O53 C55 1.258 . S
C54 O48 1.247 . S
C54 O49 1.258 . S
C55 O52 1.247 . S
C55 O53 1.258 . S
C56 O58 1.247 . S
C56 O60 1.258 . S
C57 O64 1.247 . S
C57 O65 1.258 . S
O58 C56 1.247 . S
O58 Zn59 2.028 . S
Zn59 O58 2.028 . S
Zn59 O63 2.035 . S
Zn59 O65 2.035 . S
Zn59 O66 2.028 . S
O60 C56 1.258 . S
O60 Zn61 2.035 . S
Zn61 O60 2.035 . S
Zn61 O62 2.028 . S
Zn61 O64 2.028 . S
Zn61 O67 2.035 . S
O62 Zn61 2.028 . S
O62 C68 1.247 . S
O63 Zn59 2.035 . S
O63 C68 1.258 . S
O64 C57 1.247 . S
O64 Zn61 2.028 . S
O65 C57 1.258 . S
O65 Zn59 2.035 . S
O66 Zn59 2.028 . S
O66 C69 1.247 . S
O67 Zn61 2.035 . S
O67 C69 1.258 . S
C68 O62 1.247 . S
C68 O63 1.258 . S
C69 O66 1.247 . S
C69 O67 1.258 . S
C70 O72 1.247 . S
C70 O74 1.258 . S
C71 O78 1.247 . S
C71 O79 1.258 . S
O72 C70 1.247 . S
O72 Zn73 2.028 . S
Zn73 O72 2.028 . S
Zn73 O77 2.035 . S
Zn73 O79 2.035 . S
Zn73 O80 2.028 . S
O74 C70 1.258 . S
O74 Zn75 2.035 . S
Zn75 O74 2.035 . S
Zn75 O76 2.028 . S
Zn75 O78 2.028 . S
Zn75 O81 2.035 . S
O76 Zn75 2.028 . S
O76 C82 1.247 . S
O77 Zn73 2.035 . S
O77 C82 1.258 . S
O78 C71 1.247 . S
O78 Zn75 2.028 . S
O79 C71 1.258 . S
O79 Zn73 2.035 . S
O80 Zn73 2.028 . S
O80 C83 1.247 . S
O81 Zn75 2.035 . S
O81 C83 1.258 . S
C82 O76 1.247 . S
C82 O77 1.258 . S
C83 O80 1.247 . S
C83 O81 1.258 . S
C84 O86 1.247 . S
C84 O88 1.258 . S
C85 O92 1.247 . S
C85 O93 1.258 . S
O86 C84 1.247 . S
O86 Zn87 2.028 . S
Zn87 O86 2.028 . S
Zn87 O91 2.035 . S
Zn87 O93 2.035 . S
Zn87 O94 2.028 . S
O88 C84 1.258 . S
O88 Zn89 2.035 . S
Zn89 O88 2.035 . S
Zn89 O90 2.028 . S
Zn89 O92 2.028 . S
Zn89 O95 2.035 . S
O90 Zn89 2.028 . S
O90 C96 1.247 . S
O91 Zn87 2.035 . S
O91 C96 1.258 . S
O92 C85 1.247 . S
O92 Zn89 2.028 . S
O93 C85 1.258 . S
O93 Zn87 2.035 . S
O94 Zn87 2.028 . S
O94 C97 1.247 . S
O95 Zn89 2.035 . S
O95 C97 1.258 . S
C96 O90 1.247 . S
C96 O91 1.258 . S
C97 O94 1.247 . S
C97 O95 1.258 . S
C98 O100 1.247 . S
C98 O102 1.258 . S
C99 O106 1.247 . S
C99 O107 1.258 . S
O100 C98 1.247 . S
O100 Zn101 2.028 . S
Zn101 O100 2.028 . S
Zn101 O105 2.035 . S
Zn101 O107 2.035 . S
Zn101 O108 2.028 . S
O102 C98 1.258 . S
O102 Zn103 2.035 . S
Zn103 O102 2.035 . S
Zn103 O104 2.028 . S
Zn103 O106 2.028 . S
Zn103 O109 2.035 . S
O104 Zn103 2.028 . S
O104 C110 1.247 . S
O105 Zn101 2.035 . S
O105 C110 1.258 . S
O106 C99 1.247 . S
O106 Zn103 2.028 . S
O107 C99 1.258 . S
O107 Zn101 2.035 . S
O108 Zn101 2.028 . S
O108 C111 1.247 . S
O109 Zn103 2.035 . S
O109 C111 1.258 . S
C110 O104 1.247 . S
C110 O105 1.258 . S
C111 O108 1.247 . S
C111 O109 1.258 . S
C112 O114 1.247 . S
C112 O116 1.258 . S
C113 O120 1.247 . S
C113 O121 1.258 . S
O114 C112 1.247 . S
O114 Zn115 2.028 . S
Zn115 O114 2.028 . S
Zn115 O119 2.035 . S
Zn115 O121 2.035 . S
Zn115 O122 2.028 . S
O116 C112 1.258 . S
O116 Zn117 2.035 . S
Zn117 O116 2.035 . S
Zn117 O118 2.028 . S
Zn117 O120 2.028 . S
Zn117 O123 2.035 . S
O118 Zn117 2.028 . S
O118 C124 1.247 . S
O119 Zn115 2.035 . S
O119 C124 1.258 . S
O120 C113 1.247 . S
O120 Zn117 2.028 . S
O121 C113 1.258 . S
O121 Zn115 2.035 . S
O122 Zn115 2.028 . S
O122 C125 1.247 . S
O123 Zn117 2.035 . S
O123 C125 1.258 . S
C124 O118 1.247 . S
C124 O119 1.258 . S
C125 O122 1.247 . S
C125 O123 1.258 . S
C126 O128 1.247 . S
C126 O130 1.258 . S
C127 O134 1.247 . S
C127 O135 1.258 . S
O128 C126 1.247 . S
O128 Zn129 2.028 . S
Zn129 O128 2.028 . S
Zn129 O133 2.035 . S
Zn129 O135 2.035 . S
Zn129 O136 2.028 . S
O130 C126 1.258 . S
O130 Zn131 2.035 . S
Zn131 O130 2.035 . S
Zn131 O132 2.028 . S
Zn131 O134 2.028 . S
Zn131 O137 2.035 . S
O132 Zn131 2.028 . S
O132 C138 1.247 . S
O133 Zn129 2.035 . S
O133 C138 1.258 . S
O134 C127 1.247 . S
O134 Zn131 2.028 . S
O135 C127 1.258 . S
O135 Zn129 2.035 . S
O136 Zn129 2.028 . S
O136 C139 1.247 . S
O137 Zn131 2.035 . S
O137 C139 1.258 . S
C138 O132 1.247 . S
C138 O133 1.258 . S
C139 O136 1.247 . S
C139 O137 1.258 . S
C140 O142 1.247 . S
C140 O144 1.258 . S
C141 O148 1.247 . S
C141 O149 1.258 . S
O142 C140 1.247 . S
O142 Zn143 2.028 . S
Zn143 O142 2.028 . S
Zn143 O147 2.035 . S
Zn143 O149 2.035 . S
Zn143 O150 2.028 . S
O144 C140 1.258 . S
O144 Zn145 2.035 . S
Zn145 O144 2.035 . S
Zn145 O146 2.028 . S
Zn145 O148 2.028 . S
Zn145 O151 2.035 . S
O146 Zn145 2.028 . S
O146 C152 1.247 . S
O147 Zn143 2.035 . S
O147 C152 1.258 . S
O148 C141 1.247 . S
O148 Zn145 2.028 . S
O149 C141 1.258 . S
O149 Zn143 2.035 . S
O150 Zn143 2.028 . S
O150 C153 1.247 . S
O151 Zn145 2.035 . S
O151 C153 1.258 . S
C152 O146 1.247 . S
C152 O147 1.258 . S
C153 O150 1.247 . S
C153 O151 1.258 . S
C154 O156 1.247 . S
C154 O158 1.258 . S
C155 O162 1.247 . S
C155 O163 1.258 . S
O156 C154 1.247 . S
O156 Zn157 2.028 . S
Zn157 O156 2.028 . S
Zn157 O161 2.035 . S
Zn157 O163 2.035 . S
Zn157 O164 2.028 . S
O158 C154 1.258 . S
O158 Zn159 2.035 . S
Zn159 O158 2.035 . S
Zn159 O160 2.028 . S
Zn159 O162 2.028 . S
Zn159 O165 2.035 . S
O160 Zn159 2.028 . S
O160 C166 1.247 . S
O161 Zn157 2.035 . S
O161 C166 1.258 . S
O162 C155 1.247 . S
O162 Zn159 2.028 . S
O163 C155 1.258 . S
O163 Zn157 2.035 . S
O164 Zn157 2.028 . S
O164 C167 1.247 . S
O165 Zn159 2.035 . S
O165 C167 1.258 . S
C166 O160 1.247 . S
C166 O161 1.258 . S
C167 O164 1.247 . S
C167 O165 1.258 . S
C168 O170 1.247 . S
C168 O172 1.258 . S
C169 O176 1.247 . S
C169 O177 1.258 . S
O170 C168 1.247 . S
O170 Zn171 2.028 . S
Zn171 O170 2.028 . S
Zn171 O175 2.035 . S
Zn171 O177 2.035 . S
Zn171 O178 2.028 . S
O172 C168 1.258 . S
O172 Zn173 2.035 . S
Zn173 O172 2.035 . S
Zn173 O174 2.028 . S
Zn173 O176 2.028 . S
Zn173 O179 2.035 . S
O174 Zn173 2.028 . S
O174 C180 1.247 . S
O175 Zn171 2.035 . S
O175 C180 1.258 . S
O176 C169 1.247 . S
O176 Zn173 2.028 . S
O177 C169 1.258 . S
O177 Zn171 2.035 . S
O178 Zn171 2.028 . S
O178 C181 1.247 . S
O179 Zn173 2.035 . S
O179 C181 1.258 . S
C180 O174 1.247 . S
C180 O175 1.258 . S
C181 O178 1.247 . S
C181 O179 1.258 . S
C182 O184 1.247 . S
C182 O186 1.258 . S
C183 O190 1.247 . S
C183 O191 1.258 . S
O184 C182 1.247 . S
O184 Zn185 2.028 . S
Zn185 O184 2.028 . S
Zn185 O189 2.035 . S
Zn185 O191 2.035 . S
Zn185 O192 2.028 . S
O186 C182 1.258 . S
O186 Zn187 2.035 . S
Zn187 O186 2.035 . S
Zn187 O188 2.028 . S
Zn187 O190 2.028 . S
Zn187 O193 2.035 . S
O188 Zn187 2.028 . S
O188 C194 1.247 . S
O189 Zn185 2.035 . S
O189 C194 1.258 . S
O190 C183 1.247 . S
O190 Zn187 2.028 . S
O191 C183 1.258 . S
O191 Zn185 2.035 . S
O192 Zn185 2.028 . S
O192 C195 1.247 . S
O193 Zn187 2.035 . S
O193 C195 1.258 . S
C194 O188 1.247 . S
C194 O189 1.258 . S
C195 O192 1.247 . S
C195 O193 1.258 . S
C196 O198 1.247 . S
C196 O200 1.258 . S
C197 O204 1.247 . S
C197 O205 1.258 . S
O198 C196 1.247 . S
O198 Zn199 2.028 . S
Zn199 O198 2.028 . S
Zn199 O203 2.035 . S
Zn199 O205 2.035 . S
Zn199 O206 2.028 . S
O200 C196 1.258 . S
O200 Zn201 2.035 . S
Zn201 O200 2.035 . S
Zn201 O202 2.028 . S
Zn201 O204 2.028 . S
Zn201 O207 2.035 . S
O202 Zn201 2.028 . S
O202 C208 1.247 . S
O203 Zn199 2.035 . S
O203 C208 1.258 . S
O204 C197 1.247 . S
O204 Zn201 2.028 . S
O205 C197 1.258 . S
O205 Zn199 2.035 . S
O206 Zn199 2.028 . S
O206 C209 1.247 . S
O207 Zn201 2.035 . S
O207 C209 1.258 . S
C208 O202 1.247 . S
C208 O203 1.258 . S
C209 O206 1.247 . S
C209 O207 1.258 . S
C210 O212 1.247 . S
C210 O214 1.258 . S
C211 O218 1.247 . S
C211 O219 1.258 . S
O212 C210 1.247 . S
O212 Zn213 2.028 . S
Zn213 O212 2.028 . S
Zn213 O217 2.035 . S
Zn213 O219 2.035 . S
Zn213 O220 2.028 . S
O214 C210 1.258 . S
O214 Zn215 2.035 . S
Zn215 O214 2.035 . S
Zn215 O216 2.028 . S
Zn215 O218 2.028 . S
Zn215 O221 2.035 . S
O216 Zn215 2.028 . S
O216 C222 1.247 . S
O217 Zn213 2.035 . S
O217 C222 1.258 . S
O218 C211 1.247 . S
O218 Zn215 2.028 . S
O219 C211 1.258 . S
O219 Zn213 2.035 . S
O220 Zn213 2.028 . S
O220 C223 1.247 . S
O221 Zn215 2.035 . S
O221 C223 1.258 . S
C222 O216 1.247 . S
C222 O217 1.258 . S
C223 O220 1.247 . S
C223 O221 1.258 . S
C224 O226 1.247 . S
C224 O228 1.258 . S
C225 O232 1.247 . S
C225 O233 1.258 . S
O226 C224 1.247 . S
O226 Zn227 2.028 . S
Zn227 O226 2.028 . S
Zn227 O231 2.035 . S
Zn227 O233 2.035 . S
Zn227 O234 2.028 . S
O228 C224 1.258 . S
O228 Zn229 2.035 . S
Zn229 O228 2.035 . S
Zn229 O230 2.028 . S
Zn229 O232 2.028 . S
Zn229 O235 2.035 . S
O230 Zn229 2.028 . S
O230 C236 1.247 . S
O231 Zn227 2.035 . S
O231 C236 1.258 . S
O232 C225 1.247 . S
O232 Zn229 2.028 . S
O233 C225 1.258 . S
O233 Zn227 2.035 . S
O234 Zn227 2.028 . S
O234 C237 1.247 . S
O235 Zn229 2.035 . S
O235 C237 1.258 . S
C236 O230 1.247 . S
C236 O231 1.258 . S
C237 O234 1.247 . S
C237 O235 1.258 . S
C238 O240 1.247 . S
C238 O242 1.258 . S
C239 O246 1.247 . S
C239 O247 1.258 . S
O240 C238 1.247 . S
O240 Zn241 2.028 . S
Zn241 O240 2.028 . S
Zn241 O245 2.035 . S
Zn241 O247 2.035 . S
Zn241 O248 2.028 . S
O242 C238 1.258 . S
O242 Zn243 2.035 . S
Zn243 O242 2.035 . S
Zn243 O244 2.028 . S
Zn243 O246 2.028 . S
Zn243 O249 2.035 . S
O244 Zn243 2.028 . S
O244 C250 1.247 . S
O245 Zn241 2.035 . S
O245 C250 1.258 . S
O246 C239 1.247 . S
O246 Zn243 2.028 . S
O247 C239 1.258 . S
O247 Zn241 2.035 . S
O248 Zn241 2.028 . S
O248 C251 1.247 . S
O249 Zn243 2.035 . S
O249 C251 1.258 . S
C250 O244 1.247 . S
C250 O245 1.258 . S
C251 O248 1.247 . S
C251 O249 1.258 . S
C252 O254 1.247 . S
C252 O256 1.258 . S
C253 O260 1.247 . S
C253 O261 1.258 . S
O254 C252 1.247 . S
O254 Zn255 2.028 . S
Zn255 O254 2.028 . S
Zn255 O259 2.035 . S
Zn255 O261 2.035 . S
Zn255 O262 2.028 . S
O256 C252 1.258 . S
O256 Zn257 2.035 . S
Zn257 O256 2.035 . S
Zn257 O258 2.028 . S
Zn257 O260 2.028 . S
Zn257 O263 2.035 . S
O258 Zn257 2.028 . S
O258 C264 1.247 . S
O259 Zn255 2.035 . S
O259 C264 1.258 . S
O260 C253 1.247 . S
O260 Zn257 2.028 . S
O261 C253 1.258 . S
O261 Zn255 2.035 . S
O262 Zn255 2.028 . S
O262 C265 1.247 . S
O263 Zn257 2.035 . S
O263 C265 1.258 . S
C264 O258 1.247 . S
C264 O259 1.258 . S
C265 O262 1.247 . S
C265 O263 1.258 . S
C266 O268 1.247 . S
C266 O270 1.258 . S
C267 O274 1.247 . S
C267 O275 1.258 . S
O268 C266 1.247 . S
O268 Zn269 2.028 . S
Zn269 O268 2.028 . S
Zn269 O273 2.035 . S
Zn269 O275 2.035 . S
Zn269 O276 2.028 . S
O270 C266 1.258 . S
O270 Zn271 2.035 . S
Zn271 O270 2.035 . S
Zn271 O272 2.028 . S
Zn271 O274 2.028 . S
Zn271 O277 2.035 . S
O272 Zn271 2.028 . S
O272 C278 1.247 . S
O273 Zn269 2.035 . S
O273 C278 1.258 . S
O274 C267 1.247 . S
O274 Zn271 2.028 . S
O275 C267 1.258 . S
O275 Zn269 2.035 . S
O276 Zn269 2.028 . S
O276 C279 1.247 . S
O277 Zn271 2.035 . S
O277 C279 1.258 . S
C278 O272 1.247 . S
C278 O273 1.258 . S
C279 O276 1.247 . S
C279 O277 1.258 . S
C280 O282 1.247 . S
C280 O284 1.258 . S
C281 O288 1.247 . S
C281 O289 1.258 . S
O282 C280 1.247 . S
O282 Zn283 2.028 . S
Zn283 O282 2.028 . S
Zn283 O287 2.035 . S
Zn283 O289 2.035 . S
Zn283 O290 2.028 . S
O284 C280 1.258 . S
O284 Zn285 2.035 . S
Zn285 O284 2.035 . S
Zn285 O286 2.028 . S
Zn285 O288 2.028 . S
Zn285 O291 2.035 . S
O286 Zn285 2.028 . S
O286 C292 1.247 . S
O287 Zn283 2.035 . S
O287 C292 1.258 . S
O288 C281 1.247 . S
O288 Zn285 2.028 . S
O289 C281 1.258 . S
O289 Zn283 2.035 . S
O290 Zn283 2.028 . S
O290 C293 1.247 . S
O291 Zn285 2.035 . S
O291 C293 1.258 . S
C292 O286 1.247 . S
C292 O287 1.258 . S
C293 O290 1.247 . S
C293 O291 1.258 . S
C294 O296 1.247 . S
C294 O298 1.258 . S
C295 O302 1.247 . S
C295 O303 1.258 . S
O296 C294 1.247 . S
O296 Zn297 2.028 . S
Zn297 O296 2.028 . S
Zn297 O301 2.035 . S
Zn297 O303 2.035 . S
Zn297 O304 2.028 . S
O298 C294 1.258 . S
O298 Zn299 2.035 . S
Zn299 O298 2.035 . S
Zn299 O300 2.028 . S
Zn299 O302 2.028 . S
Zn299 O305 2.035 . S
O300 Zn299 2.028 . S
O300 C306 1.247 . S
O301 Zn297 2.035 . S
O301 C306 1.258 . S
O302 C295 1.247 . S
O302 Zn299 2.028 . S
O303 C295 1.258 . S
O303 Zn297 2.035 . S
O304 Zn297 2.028 . S
O304 C307 1.247 . S
O305 Zn299 2.035 . S
O305 C307 1.258 . S
C306 O300 1.247 . S
C306 O301 1.258 . S
C307 O304 1.247 . S
C307 O305 1.258 . S
C308 O310 1.247 . S
C308 O312 1.258 . S
C309 O316 1.247 . S
C309 O317 1.258 . S
O310 C308 1.247 . S
O310 Zn311 2.028 . S
Zn311 O310 2.028 . S
Zn311 O315 2.035 . S
Zn311 O317 2.035 . S
Zn311 O318 2.028 . S
O312 C308 1.258 . S
O312 Zn313 2.035 . S
Zn313 O312 2.035 . S
Zn313 O314 2.028 . S
Zn313 O316 2.028 . S
Zn313 O319 2.035 . S
O314 Zn313 2.028 . S
O314 C320 1.247 . S
O315 Zn311 2.035 . S
O315 C320 1.258 . S
O316 C309 1.247 . S
O316 Zn313 2.028 . S
O317 C309 1.258 . S
O317 Zn311 2.035 . S
O318 Zn311 2.028 . S
O318 C321 1.247 . S
O319 Zn313 2.035 . S
O319 C321 1.258 . S
C320 O314 1.247 . S
C320 O315 1.258 . S
C321 O318 1.247 . S
C321 O319 1.258 . S
C322 O324 1.247 . S
C322 O326 1.258 . S
C323 O330 1.247 . S
C323 O331 1.258 . S
O324 C322 1.247 . S
O324 Zn325 2.028 . S
Zn325 O324 2.028 . S
Zn325 O329 2.035 . S
Zn325 O331 2.035 . S
Zn325 O332 2.028 . S
O326 C322 1.258 . S
O326 Zn327 2.035 . S
Zn327 O326 2.035 . S
Zn327 O328 2.028 . S
Zn327 O330 2.028 . S
Zn327 O333 2.035 . S
O328 Zn327 2.028 . S
O328 C334 1.247 . S
O329 Zn325 2.035 . S
O329 C334 1.258 . S
O330 C323 1.247 . S
O330 Zn327 2.028 . S
O331 C323 1.258 . S
O331 Zn325 2.035 . S
O332 Zn325 2.028 . S
O332 C335 1.247 . S
O333 Zn327 2.035 . S
O333 C335 1.258 . S
C334 O328 1.247 . S
C334 O329 1.258 . S
C335 O332 1.247 . S
C335 O333 1.258 . S
C336 O338 1.247 . S
C336 O340 1.258 . S
C337 O344 1.247 . S
C337 O345 1.258 . S
O338 C336 1.247 . S
O338 Zn339 2.028 . S
Zn339 O338 2.028 . S
Zn339 O343 2.035 . S
Zn339 O345 2.035 . S
Zn339 O346 2.028 . S
O340 C336 1.258 . S
O340 Zn341 2.035 . S
Zn341 O340 2.035 . S
Zn341 O342 2.028 . S
Zn341 O344 2.028 . S
Zn341 O347 2.035 . S
O342 Zn341 2.028 . S
O342 C348 1.247 . S
O343 Zn339 2.035 . S
O343 C348 1.258 . S
O344 C337 1.247 . S
O344 Zn341 2.028 . S
O345 C337 1.258 . S
O345 Zn339 2.035 . S
O346 Zn339 2.028 . S
O346 C349 1.247 . S
O347 Zn341 2.035 . S
O347 C349 1.258 . S
C348 O342 1.247 . S
C348 O343 1.258 . S
C349 O346 1.247 . S
C349 O347 1.258 . S
C350 O352 1.247 . S
C350 O354 1.258 . S
C351 O358 1.247 . S
C351 O359 1.258 . S
O352 C350 1.247 . S
O352 Zn353 2.028 . S
Zn353 O352 2.028 . S
Zn353 O357 2.035 . S
Zn353 O359 2.035 . S
Zn353 O360 2.028 . S
O354 C350 1.258 . S
O354 Zn355 2.035 . S
Zn355 O354 2.035 . S
Zn355 O356 2.028 . S
Zn355 O358 2.028 . S
Zn355 O361 2.035 . S
O356 Zn355 2.028 . S
O356 C362 1.247 . S
O357 Zn353 2.035 . S
O357 C362 1.258 . S
O358 C351 1.247 . S
O358 Zn355 2.028 . S
O359 C351 1.258 . S
O359 Zn353 2.035 . S
O360 Zn353 2.028 . S
O360 C363 1.247 . S
O361 Zn355 2.035 . S
O361 C363 1.258 . S
C362 O356 1.247 . S
C362 O357 1.258 . S
C363 O360 1.247 . S
C363 O361 1.258 . S
C364 O366 1.247 . S
C364 O368 1.258 . S
C365 O372 1.247 . S
C365 O373 1.258 . S
O366 C364 1.247 . S
O366 Zn367 2.028 . S
Zn367 O366 2.028 . S
Zn367 O371 2.035 . S
Zn367 O373 2.035 . S
Zn367 O374 2.028 . S
O368 C364 1.258 . S
O368 Zn369 2.035 . S
Zn369 O368 2.035 . S
Zn369 O370 2.028 . S
Zn369 O372 2.028 . S
Zn369 O375 2.035 . S
O370 Zn369 2.028 . S
O370 C376 1.247 . S
O371 Zn367 2.035 . S
O371 C376 1.258 . S
O372 C365 1.247 . S
O372 Zn369 2.028 . S
O373 C365 1.258 . S
O373 Zn367 2.035 . S
O374 Zn367 2.028 . S
O374 C377 1.247 . S
O375 Zn369 2.035 . S
O375 C377 1.258 . S
C376 O370 1.247 . S
C376 O371 1.258 . S
C377 O374 1.247 . S
C377 O375 1.258 . S
C378 O380 1.247 . S
C378 O382 1.258 . S
C379 O386 1.247 . S
C379 O387 1.258 . S
O380 C378 1.247 . S
O380 Zn381 2.028 . S
Zn381 O380 2.028 . S
Zn381 O385 2.035 . S
Zn381 O387 2.035 . S
Zn381 O388 2.028 . S
O382 C378 1.258 . S
O382 Zn383 2.035 . S
Zn383 O382 2.035 . S
Zn383 O384 2.028 . S
Zn383 O386 2.028 . S
Zn383 O389 2.035 . S
O384 Zn383 2.028 . S
O384 C390 1.247 . S
O385 Zn381 2.035 . S
O385 C390 1.258 . S
O386 C379 1.247 . S
O386 Zn383 2.028 . S
O387 C379 1.258 . S
O387 Zn381 2.035 . S
O388 Zn381 2.028 . S
O388 C391 1.247 . S
O389 Zn383 2.035 . S
O389 C391 1.258 . S
C390 O384 1.247 . S
C390 O385 1.258 . S
C391 O388 1.247 . S
C391 O389 1.258 . S
C392 O394 1.247 . S
C392 O396 1.258 . S
C393 O400 1.247 . S
C393 O401 1.258 . S
O394 C392 1.247 . S
O394 Zn395 2.028 . S
Zn395 O394 2.028 . S
Zn395 O399 2.035 . S
Zn395 O401 2.035 . S
Zn395 O402 2.028 . S
O396 C392 1.258 . S
O396 Zn397 2.035 . S
Zn397 O396 2.035 . S
Zn397 O398 2.028 . S
Zn397 O400 2.028 . S
Zn397 O403 2.035 . S
O398 Zn397 2.028 . S
O398 C404 1.247 . S
O399 Zn395 2.035 . S
O399 C404 1.258 . S
O400 C393 1.247 . S
O400 Zn397 2.028 . S
O401 C393 1.258 . S
O401 Zn395 2.035 . S
O402 Zn395 2.028 . S
O402 C405 1.247 . S
O403 Zn397 2.035 . S
O403 C405 1.258 . S
C404 O398 1.247 . S
C404 O399 1.258 . S
C405 O402 1.247 . S
C405 O403 1.258 . S
C406 O408 1.247 . S
C406 O410 1.258 . S
C407 O414 1.247 . S
C407 O415 1.258 . S
O408 C406 1.247 . S
O408 Zn409 2.028 . S
Zn409 O408 2.028 . S
Zn409 O413 2.035 . S
Zn409 O415 2.035 . S
Zn409 O416 2.028 . S
O410 C406 1.258 . S
O410 Zn411 2.035 . S
Zn411 O410 2.035 . S
Zn411 O412 2.028 . S
Zn411 O414 2.028 . S
Zn411 O417 2.035 . S
O412 Zn411 2.028 . S
O412 C418 1.247 . S
O413 Zn409 2.035 . S
O413 C418 1.258 . S
O414 C407 1.247 . S
O414 Zn411 2.028 . S
O415 C407 1.258 . S
O415 Zn409 2.035 . S
O416 Zn409 2.028 . S
O416 C419 1.247 . S
O417 Zn411 2.035 . S
O417 C419 1.258 . S
C418 O412 1.247 . S
C418 O413 1.258 . S
C419 O416 1.247 . S
C419 O417 1.258 . S
C420 O422 1.247 . S
C420 O424 1.258 . S
C421 O428 1.247 . S
C421 O429 1.258 . S
O422 C420 1.247 . S
O422 Zn423 2.028 . S
Zn423 O422 2.028 . S
Zn423 O427 2.035 . S
Zn423 O429 2.035 . S
Zn423 O430 2.028 . S
O424 C420 1.258 . S
O424 Zn425 2.035 . S
Zn425 O424 2.035 . S
Zn425 O426 2.028 . S
Zn425 O428 2.028 . S
Zn425 O431 2.035 . S
O426 Zn425 2.028 . S
O426 C432 1.247 . S
O427 Zn423 2.035 . S
O427 C432 1.258 . S
O428 C421 1.247 . S
O428 Zn425 2.028 . S
O429 C421 1.258 . S
O429 Zn423 2.035 . S
O430 Zn423 2.028 . S
O430 C433 1.247 . S
O431 Zn425 2.035 . S
O431 C433 1.258 . S
C432 O426 1.247 . S
C432 O427 1.258 . S
C433 O430 1.247 . S
C433 O431 1.258 . S
C434 O436 1.247 . S
C434 O438 1.258 . S
C435 O442 1.247 . S
C435 O443 1.258 . S
O436 C434 1.247 . S
O436 Zn437 2.028 . S
Zn437 O436 2.028 . S
Zn437 O441 2.035 . S
Zn437 O443 2.035 . S
Zn437 O444 2.028 . S
O438 C434 1.258 . S
O438 Zn439 2.035 . S
Zn439 O438 2.035 . S
Zn439 O440 2.028 . S
Zn439 O442 2.028 . S
Zn439 O445 2.035 . S
O440 Zn439 2.028 . S
O440 C446 1.247 . S
O441 Zn437 2.035 . S
O441 C446 1.258 . S
O442 C435 1.247 . S
O442 Zn439 2.028 . S
O443 C435 1.258 . S
O443 Zn437 2.035 . S
O444 Zn437 2.028 . S
O444 C447 1.247 . S
O445 Zn439 2.035 . S
O445 C447 1.258 . S
C446 O440 1.247 . S
C446 O441 1.258 . S
C447 O444 1.247 . S
C447 O445 1.258 . S
C448 O450 1.247 . S
C448 O452 1.258 . S
C449 O456 1.247 . S
C449 O457 1.258 . S
O450 C448 1.247 . S
O450 Zn451 2.028 . S
Zn451 O450 2.028 . S
Zn451 O455 2.035 . S
Zn451 O457 2.035 . S
Zn451 O458 2.028 . S
O452 C448 1.258 . S
O452 Zn453 2.035 . S
Zn453 O452 2.035 . S
Zn453 O454 2.028 . S
Zn453 O456 2.028 . S
Zn453 O459 2.035 . S
O454 Zn453 2.028 . S
O454 C460 1.247 . S
O455 Zn451 2.035 . S
O455 C460 1.258 . S
O456 C449 1.247 . S
O456 Zn453 2.028 . S
O457 C449 1.258 . S
O457 Zn451 2.035 . S
O458 Zn451 2.028 . S
O458 C461 1.247 . S
O459 Zn453 2.035 . S
O459 C461 1.258 . S
C460 O454 1.247 . S
C460 O455 1.258 . S
C461 O458 1.247 . S
C461 O459 1.258 . S
C462 O464 1.247 . S
C462 O466 1.258 . S
C463 O470 1.247 . S
C463 O471 1.258 . S
O464 C462 1.247 . S
O464 Zn465 2.028 . S
Zn465 O464 2.028 . S
Zn465 O469 2.035 . S
Zn465 O471 2.035 . S
Zn465 O472 2.028 . S
O466 C462 1.258 . S
O466 Zn467 2.035 . S
Zn467 O466 2.035 . S
Zn467 O468 2.028 . S
Zn467 O470 2.028 . S
Zn467 O473 2.035 . S
O468 Zn467 2.028 . S
O468 C474 1.247 . S
O469 Zn465 2.035 . S
O469 C474 1.258 . S
O470 C463 1.247 . S
O470 Zn467 2.028 . S
O471 C463 1.258 . S
O471 Zn465 2.035 . S
O472 Zn465 2.028 . S
O472 C475 1.247 . S
O473 Zn467 2.035 . S
O473 C475 1.258 . S
C474 O468 1.247 . S
C474 O469 1.258 . S
C475 O472 1.247 . S
C475 O473 1.258 . S
C476 O478 1.247 . S
C476 O480 1.258 . S
C477 O484 1.247 . S
C477 O485 1.258 . S
O478 C476 1.247 . S
O478 Zn479 2.028 . S
Zn479 O478 2.028 . S
Zn479 O483 2.035 . S
Zn479 O485 2.035 . S
Zn479 O486 2.028 . S
O480 C476 1.258 . S
O480 Zn481 2.035 . S
Zn481 O480 2.035 . S
Zn481 O482 2.028 . S
Zn481 O484 2.028 . S
Zn481 O487 2.035 . S
O482 Zn481 2.028 . S
O482 C488 1.247 . S
O483 Zn479 2.035 . S
O483 C488 1.258 . S
O484 C477 1.247 . S
O484 Zn481 2.028 . S
O485 C477 1.258 . S
O485 Zn479 2.035 . S
O486 Zn479 2.028 . S
O486 C489 1.247 . S
O487 Zn481 2.035 . S
O487 C489 1.258 . S
C488 O482 1.247 . S
C488 O483 1.258 . S
C489 O486 1.247 . S
C489 O487 1.258 . S
C490 O492 1.247 . S
C490 O494 1.258 . S
C491 O498 1.247 . S
C491 O499 1.258 . S
O492 C490 1.247 . S
O492 Zn493 2.028 . S
Zn493 O492 2.028 . S
Zn493 O497 2.035 . S
Zn493 O499 2.035 . S
Zn493 O500 2.028 . S
O494 C490 1.258 . S
O494 Zn495 2.035 . S
Zn495 O494 2.035 . S
Zn495 O496 2.028 . S
Zn495 O498 2.028 . S
Zn495 O501 2.035 . S
O496 Zn495 2.028 . S
O496 C502 1.247 . S
O497 Zn493 2.035 . S
O497 C502 1.258 . S
O498 C491 1.247 . S
O498 Zn495 2.028 . S
O499 C491 1.258 . S
O499 Zn493 2.035 . S
O500 Zn493 2.028 . S
O500 C503 1.247 . S
O501 Zn495 2.035 . S
O501 C503 1.258 . S
C502 O496 1.247 . S
C502 O497 1.258 . S
C503 O500 1.247 . S
C503 O501 1.258 . S
C504 O506 1.247 . S
C504 O508 1.258 . S
C505 O512 1.247 . S
C505 O513 1.258 . S
O506 C504 1.247 . S
O506 Zn507 2.028 . S
Zn507 O506 2.028 . S
Zn507 O511 2.035 . S
Zn507 O513 2.035 . S
Zn507 O514 2.028 . S
O508 C504 1.258 . S
O508 Zn509 2.035 . S
Zn509 O508 2.035 . S
Zn509 O510 2.028 . S
Zn509 O512 2.028 . S
Zn509 O515 2.035 . S
O510 Zn509 2.028 . S
O510 C516 1.247 . S
O511 Zn507 2.035 . S
O511 C516 1.258 . S
O512 C505 1.247 . S
O512 Zn509 2.028 . S
O513 C505 1.258 . S
O513 Zn507 2.035 . S
O514 Zn507 2.028 . S
O514 C517 1.247 . S
O515 Zn509 2.035 . S
O515 C517 1.258 . S
C516 O510 1.247 . S
C516 O511 1.258 . S
C517 O514 1.247 . S
C517 O515 1.258 . S
C518 O520 1.247 . S
C518 O522 1.258 . S
C519 O526 1.247 . S
C519 O527 1.258 . S
O520 C518 1.247 . S
O520 Zn521 2.028 . S
Zn521 O520 2.028 . S
Zn521 O525 2.035 . S
Zn521 O527 2.035 . S
Zn521 O528 2.028 . S
O522 C518 1.258 . S
O522 Zn523 2.035 . S
Zn523 O522 2.035 . S
Zn523 O524 2.028 . S
Zn523 O526 2.028 . S
Zn523 O529 2.035 . S
O524 Zn523 2.028 . S
O524 C530 1.247 . S
O525 Zn521 2.035 . S
O525 C530 1.258 . S
O526 C519 1.247 . S
O526 Zn523 2.028 . S
O527 C519 1.258 . S
O527 Zn521 2.035 . S
O528 Zn521 2.028 . S
O528 C531 1.247 . S
O529 Zn523 2.035 . S
O529 C531 1.258 . S
C530 O524 1.247 . S
C530 O525 1.258 . S
C531 O528 1.247 . S
C531 O529 1.258 . S
C532 O534 1.247 . S
C532 O536 1.258 . S
C533 O540 1.247 . S
C533 O541 1.258 . S
O534 C532 1.247 . S
O534 Zn535 2.028 . S
Zn535 O534 2.028 . S
Zn535 O539 2.035 . S
Zn535 O541 2.035 . S
Zn535 O542 2.028 . S
O536 C532 1.258 . S
O536 Zn537 2.035 . S
Zn537 O536 2.035 . S
Zn537 O538 2.028 . S
Zn537 O540 2.028 . S
Zn537 O543 2.035 . S
O538 Zn537 2.028 . S
O538 C544 1.247 . S
O539 Zn535 2.035 . S
O539 C544 1.258 . S
O540 C533 1.247 . S
O540 Zn537 2.028 . S
O541 C533 1.258 . S
O541 Zn535 2.035 . S
O542 Zn535 2.028 . S
O542 C545 1.247 . S
O543 Zn537 2.035 . S
O543 C545 1.258 . S
C544 O538 1.247 . S
C544 O539 1.258 . S
C545 O542 1.247 . S
C545 O543 1.258 . S
C546 O548 1.247 . S
C546 O550 1.258 . S
C547 O554 1.247 . S
C547 O555 1.258 . S
O548 C546 1.247 . S
O548 Zn549 2.028 . S
Zn549 O548 2.028 . S
Zn549 O553 2.035 . S
Zn549 O555 2.035 . S
Zn549 O556 2.028 . S
O550 C546 1.258 . S
O550 Zn551 2.035 . S
Zn551 O550 2.035 . S
Zn551 O552 2.028 . S
Zn551 O554 2.028 . S
Zn551 O557 2.035 . S
O552 Zn551 2.028 . S
O552 C558 1.247 . S
O553 Zn549 2.035 . S
O553 C558 1.258 . S
O554 C547 1.247 . S
O554 Zn551 2.028 . S
O555 C547 1.258 . S
O555 Zn549 2.035 . S
O556 Zn549 2.028 . S
O556 C559 1.247 . S
O557 Zn551 2.035 . S
O557 C559 1.258 . S
C558 O552 1.247 . S
C558 O553 1.258 . S
C559 O556 1.247 . S
C559 O557 1.258 . S
C560 O562 1.247 . S
C560 O564 1.258 . S
C561 O568 1.247 . S
C561 O569 1.258 . S
O562 C560 1.247 . S
O562 Zn563 2.028 . S
Zn563 O562 2.028 . S
Zn563 O567 2.035 . S
Zn563 O569 2.035 . S
Zn563 O570 2.028 . S
O564 C560 1.258 . S
O564 Zn565 2.035 . S
Zn565 O564 2.035 . S
Zn565 O566 2.028 . S
Zn565 O568 2.028 . S
Zn565 O571 2.035 . S
O566 Zn565 2.028 . S
O566 C572 1.247 . S
O567 Zn563 2.035 . S
O567 C572 1.258 . S
O568 C561 1.247 . S
O568 Zn565 2.028 . S
O569 C561 1.258 . S
O569 Zn563 2.035 . S
O570 Zn563 2.028 . S
O570 C573 1.247 . S
O571 Zn565 2.035 . S
O571 C573 1.258 . S
C572 O566 1.247 . S
C572 O567 1.258 . S
C573 O570 1.247 . S
C573 O571 1.258 . S
C574 O576 1.247 . S
C574 O578 1.258 . S
C575 O582 1.247 . S
C575 O583 1.258 . S
O576 C574 1.247 . S
O576 Zn577 2.028 . S
Zn577 O576 2.028 . S
Zn577 O581 2.035 . S
Zn577 O583 2.035 . S
Zn577 O584 2.028 . S
O578 C574 1.258 . S
O578 Zn579 2.035 . S
Zn579 O578 2.035 . S
Zn579 O580 2.028 . S
Zn579 O582 2.028 . S
Zn579 O585 2.035 . S
O580 Zn579 2.028 . S
O580 C586 1.247 . S
O581 Zn577 2.035 . S
O581 C586 1.258 . S
O582 C575 1.247 . S
O582 Zn579 2.028 . S
O583 C575 1.258 . S
O583 Zn577 2.035 . S
O584 Zn577 2.028 . S
O584 C587 1.247 . S
O585 Zn579 2.035 . S
O585 C587 1.258 . S
C586 O580 1.247 . S
C586 O581 1.258 . S
C587 O584 1.247 . S
C587 O585 1.258 . S
C588 O590 1.247 . S
C588 O592 1.258 . S
C589 O596 1.247 . S
C589 O597 1.258 . S
O590 C588 1.247 . S
O590 Zn591 2.028 . S
Zn591 O590 2.028 . S
Zn591 O595 2.035 . S
Zn591 O597 2.035 . S
Zn591 O598 2.028 . S
O592 C588 1.258 . S
O592 Zn593 2.035 . S
Zn593 O592 2.035 . S
Zn593 O594 2.028 . S
Zn593 O596 2.028 . S
Zn593 O599 2.035 . S
O594 Zn593 2.028 . S
O594 C600 1.247 . S
O595 Zn591 2.035 . S
O595 C600 1.258 . S
O596 C589 1.247 . S
O596 Zn593 2.028 . S
O597 C589 1.258 . S
O597 Zn591 2.035 . S
O598 Zn591 2.028 . S
O598 C601 1.247 . S
O599 Zn593 2.035 . S
O599 C601 1.258 . S
C600 O594 1.247 . S
C600 O595 1.258 . S
C601 O598 1.247 . S
C601 O599 1.258 . S
C602 O604 1.247 . S
C602 O606 1.258 . S
C603 O610 1.247 . S
C603 O611 1.258 . S
O604 C602 1.247 . S
O604 Zn605 2.028 . S
Zn605 O604 2.028 . S
Zn605 O609 2.035 . S
Zn605 O611 2.035 . S
Zn605 O612 2.028 . S
O606 C602 1.258 . S
O606 Zn607 2.035 . S
Zn607 O606 2.035 . S
Zn607 O608 2.028 . S
Zn607 O610 2.028 . S
Zn607 O613 2.035 . S
O608 Zn607 2.028 . S
O608 C614 1.247 . S
O609 Zn605 2.035 . S
O609 C614 1.258 . S
O610 C603 1.247 . S
O610 Zn607 2.028 . S
O611 C603 1.258 . S
O611 Zn605 2.035 . S
O612 Zn605 2.028 . S
O612 C615 1.247 . S
O613 Zn607 2.035 . S
O613 C615 1.258 . S
C614 O608 1.247 . S
C614 O609 1.258 . S
C615 O612 1.247 . S
C615 O613 1.258 . S
C616 O618 1.247 . S
C616 O620 1.258 . S
C617 O624 1.247 . S
C617 O625 1.258 . S
O618 C616 1.247 . S
O618 Zn619 2.028 . S
Zn619 O618 2.028 . S
Zn619 O623 2.035 . S
Zn619 O625 2.035 . S
Zn619 O626 2.028 . S
O620 C616 1.258 . S
O620 Zn621 2.035 . S
Zn621 O620 2.035 . S
Zn621 O622 2.028 . S
Zn621 O624 2.028 . S
Zn621 O627 2.035 . S
O622 Zn621 2.028 . S
O622 C628 1.247 . S
O623 Zn619 2.035 . S
O623 C628 1.258 . S
O624 C617 1.247 . S
O624 Zn621 2.028 . S
O625 C617 1.258 . S
O625 Zn619 2.035 . S
O626 Zn619 2.028 . S
O626 C629 1.247 . S
O627 Zn621 2.035 . S
O627 C629 1.258 . S
C628 O622 1.247 . S
C628 O623 1.258 . S
C629 O626 1.247 . S
C629 O627 1.258 . S
C630 O632 1.247 . S
C630 O634 1.258 . S
C631 O638 1.247 . S
C631 O639 1.258 . S
O632 C630 1.247 . S
O632 Zn633 2.028 . S
Zn633 O632 2.028 . S
Zn633 O637 2.035 . S
Zn633 O639 2.035 . S
Zn633 O640 2.028 . S
O634 C630 1.258 . S
O634 Zn635 2.035 . S
Zn635 O634 2.035 . S
Zn635 O636 2.028 . S
Zn635 O638 2.028 . S
Zn635 O641 2.035 . S
O636 Zn635 2.028 . S
O636 C642 1.247 . S
O637 Zn633 2.035 . S
O637 C642 1.258 . S
O638 C631 1.247 . S
O638 Zn635 2.028 . S
O639 C631 1.258 . S
O639 Zn633 2.035 . S
O640 Zn633 2.028 . S
O640 C643 1.247 . S
O641 Zn635 2.035 . S
O641 C643 1.258 . S
C642 O636 1.247 . S
C642 O637 1.258 . S
C643 O640 1.247 . S
C643 O641 1.258 . S
C644 O646 1.247 . S
C644 O648 1.258 . S
C645 O652 1.247 . S
C645 O653 1.258 . S
O646 C644 1.247 . S
O646 Zn647 2.028 . S
Zn647 O646 2.028 . S
Zn647 O651 2.035 . S
Zn647 O653 2.035 . S
Zn647 O654 2.028 . S
O648 C644 1.258 . S
O648 Zn649 2.035 . S
Zn649 O648 2.035 . S
Zn649 O650 2.028 . S
Zn649 O652 2.028 . S
Zn649 O655 2.035 . S
O650 Zn649 2.028 . S
O650 C656 1.247 . S
O651 Zn647 2.035 . S
O651 C656 1.258 . S
O652 C645 1.247 . S
O652 Zn649 2.028 . S
O653 C645 1.258 . S
O653 Zn647 2.035 . S
O654 Zn647 2.028 . S
O654 C657 1.247 . S
O655 Zn649 2.035 . S
O655 C657 1.258 . S
C656 O650 1.247 . S
C656 O651 1.258 . S
C657 O654 1.247 . S
C657 O655 1.258 . S
C658 O660 1.247 . S
C658 O662 1.258 . S
C659 O666 1.247 . S
C659 O667 1.258 . S
O660 C658 1.247 . S
O660 Zn661 2.028 . S
Zn661 O660 2.028 . S
Zn661 O665 2.035 . S
Zn661 O667 2.035 . S
Zn661 O668 2.028 . S
O662 C658 1.258 . S
O662 Zn663 2.035 . S
Zn663 O662 2.035 . S
Zn663 O664 2.028 . S
Zn663 O666 2.028 . S
Zn663 O669 2.035 . S
O664 Zn663 2.028 . S
O664 C670 1.247 . S
O665 Zn661 2.035 . S
O665 C670 1.258 . S
O666 C659 1.247 . S
O666 Zn663 2.028 . S
O667 C659 1.258 . S
O667 Zn661 2.035 . S
O668 Zn661 2.028 . S
O668 C671 1.247 . S
O669 Zn663 2.035 . S
O669 C671 1.258 . S
C670 O664 1.247 . S
C670 O665 1.258 . S
C671 O668 1.247 . S
C671 O669 1.258 . S
H672 C678 0.930 . S
H673 C681 0.930 . S
H674 C682 0.930 . S
H675 C683 0.930 . S
H676 C686 0.930 . S
H677 C687 0.930 . S
C678 H672 0.930 . S
C678 C679 1.355 . S
C678 C680 1.415 . S
C679 C678 1.355 . S
C679 C681 1.419 . S
C680 C678 1.415 . S
C680 C685 1.425 1_565 S
C680 C687 1.409 1_565 S
C681 H673 0.930 . S
C681 C679 1.419 . S
C681 C682 1.362 . S
C682 H674 0.930 . S
C682 C681 1.362 . S
C682 C685 1.409 1_565 S
C683 H675 0.930 . S
C683 C684 1.355 . S
C683 C685 1.415 . S
C684 C683 1.355 . S
C684 C686 1.419 . S
C685 C680 1.425 1_545 S
C685 C682 1.409 1_545 S
C685 C683 1.415 . S
C686 H676 0.930 . S
C686 C684 1.419 . S
C686 C687 1.362 . S
C687 H677 0.930 . S
C687 C680 1.409 1_545 S
C687 C686 1.362 . S
H688 C694 0.930 . S
H689 C697 0.930 . S
H690 C698 0.930 . S
H691 C699 0.930 . S
H692 C702 0.930 . S
H693 C703 0.930 . S
C694 H688 0.930 . S
C694 C695 1.355 . S
C694 C696 1.415 . S
C695 C694 1.355 . S
C695 C697 1.419 . S
C696 C694 1.415 . S
C696 C701 1.425 1_455 S
C696 C703 1.409 1_455 S
C697 H689 0.930 . S
C697 C695 1.419 . S
C697 C698 1.362 . S
C698 H690 0.930 . S
C698 C697 1.362 . S
C698 C701 1.409 1_455 S
C699 H691 0.930 . S
C699 C700 1.355 . S
C699 C701 1.415 . S
C700 C699 1.355 . S
C700 C702 1.419 . S
C701 C696 1.425 1_655 S
C701 C698 1.409 1_655 S
C701 C699 1.415 . S
C702 H692 0.930 . S
C702 C700 1.419 . S
C702 C703 1.362 . S
C703 H693 0.930 . S
C703 C696 1.409 1_655 S
C703 C702 1.362 . S
H704 C710 0.930 . S
H705 C713 0.930 . S
H706 C714 0.922 1_545 S
H707 C715 0.930 . S
H708 C718 0.930 . S
H709 C719 0.921 1_565 S
C710 H704 0.930 . S
C710 C711 1.355 . S
C710 C712 1.415 . S
C711 C710 1.355 . S
C711 C713 1.419 . S
C712 C710 1.415 . S
C712 C717 1.425 1_565 S
C712 C719 1.409 1_565 S
C713 H705 0.930 . S
C713 C711 1.419 . S
C713 C714 1.362 . S
C714 H706 0.922 1_565 S
C714 C713 1.362 . S
C714 C717 1.409 1_565 S
C715 H707 0.930 . S
C715 C716 1.355 . S
C715 C717 1.415 . S
C716 C715 1.355 . S
C716 C718 1.419 . S
C717 C712 1.425 1_545 S
C717 C714 1.409 1_545 S
C717 C715 1.415 . S
C718 H708 0.930 . S
C718 C716 1.419 . S
C718 C719 1.362 . S
C719 H709 0.921 1_545 S
C719 C712 1.409 1_545 S
C719 C718 1.362 . S
H720 C726 0.930 . S
H721 C729 0.930 . S
H722 C730 0.930 . S
H723 C731 0.930 . S
H724 C734 0.930 . S
H725 C735 0.930 . S
C726 H720 0.930 . S
C726 C727 1.355 . S
C726 C728 1.415 . S
C727 C726 1.355 . S
C727 C729 1.419 . S
C728 C726 1.415 . S
C728 C733 1.425 1_655 S
C728 C735 1.409 1_655 S
C729 H721 0.930 . S
C729 C727 1.419 . S
C729 C730 1.362 . S
C730 H722 0.930 . S
C730 C729 1.362 . S
C730 C733 1.409 1_655 S
C731 H723 0.930 . S
C731 C732 1.355 . S
C731 C733 1.415 . S
C732 C731 1.355 . S
C732 C734 1.419 . S
C733 C728 1.425 1_455 S
C733 C730 1.409 1_455 S
C733 C731 1.415 . S
C734 H724 0.930 . S
C734 C732 1.419 . S
C734 C735 1.362 . S
C735 H725 0.930 . S
C735 C728 1.409 1_455 S
C735 C734 1.362 . S
H736 C742 0.930 . S
H737 C745 0.930 . S
H738 C746 0.930 . S
H739 C747 0.930 . S
H740 C750 0.930 . S
H741 C751 0.930 . S
C742 H736 0.930 . S
C742 C743 1.355 . S
C742 C744 1.415 . S
C743 C742 1.355 . S
C743 C745 1.419 . S
C744 C742 1.415 . S
C744 C749 1.425 1_565 S
C744 C751 1.409 1_565 S
C745 H737 0.930 . S
C745 C743 1.419 . S
C745 C746 1.362 . S
C746 H738 0.930 . S
C746 C745 1.362 . S
C746 C749 1.409 1_565 S
C747 H739 0.930 . S
C747 C748 1.355 . S
C747 C749 1.415 . S
C748 C747 1.355 . S
C748 C750 1.419 . S
C749 C744 1.425 1_545 S
C749 C746 1.409 1_545 S
C749 C747 1.415 . S
C750 H740 0.930 . S
C750 C748 1.419 . S
C750 C751 1.362 . S
C751 H741 0.930 . S
C751 C744 1.409 1_545 S
C751 C750 1.362 . S
H752 C758 0.930 . S
H753 C761 0.930 . S
H754 C762 0.930 . S
H755 C763 0.930 . S
H756 C766 0.930 . S
H757 C767 0.930 . S
C758 H752 0.930 . S
C758 C759 1.355 . S
C758 C760 1.415 . S
C759 C758 1.355 . S
C759 C761 1.419 . S
C760 C758 1.415 . S
C760 C765 1.425 1_655 S
C760 C767 1.409 1_655 S
C761 H753 0.930 . S
C761 C759 1.419 . S
C761 C762 1.362 . S
C762 H754 0.930 . S
C762 C761 1.362 . S
C762 C765 1.409 1_655 S
C763 H755 0.930 . S
C763 C764 1.355 . S
C763 C765 1.415 . S
C764 C763 1.355 . S
C764 C766 1.419 . S
C765 C760 1.425 1_455 S
C765 C762 1.409 1_455 S
C765 C763 1.415 . S
C766 H756 0.930 . S
C766 C764 1.419 . S
C766 C767 1.362 . S
C767 H757 0.930 . S
C767 C760 1.409 1_455 S
C767 C766 1.362 . S
H768 C774 0.930 . S
H769 C777 0.930 . S
H770 C778 0.935 . S
H771 C779 0.930 . S
H772 C782 0.930 . S
H773 C783 0.935 . S
C774 H768 0.930 . S
C774 C775 1.355 . S
C774 C776 1.415 . S
C775 C774 1.355 . S
C775 C777 1.419 . S
C776 C774 1.415 . S
C776 C781 1.425 1_545 S
C776 C783 1.409 1_545 S
C777 H769 0.930 . S
C777 C775 1.419 . S
C777 C778 1.362 . S
C778 H770 0.935 . S
C778 C777 1.362 . S
C778 C781 1.409 1_545 S
C779 H771 0.930 . S
C779 C780 1.355 . S
C779 C781 1.415 . S
C780 C779 1.355 . S
C780 C782 1.419 . S
C781 C776 1.425 1_565 S
C781 C778 1.409 1_565 S
C781 C779 1.415 . S
C782 H772 0.930 . S
C782 C780 1.419 . S
C782 C783 1.362 . S
C783 H773 0.935 . S
C783 C776 1.409 1_565 S
C783 C782 1.362 . S
H784 C790 0.930 . S
H785 C793 0.930 . S
H786 C794 0.930 . S
H787 C795 0.930 . S
H788 C798 0.930 . S
H789 C799 0.930 . S
C790 H784 0.930 . S
C790 C791 1.355 . S
C790 C792 1.415 . S
C791 C790 1.355 . S
C791 C793 1.419 . S
C792 C790 1.415 . S
C792 C797 1.425 1_455 S
C792 C799 1.409 1_455 S
C793 H785 0.930 . S
C793 C791 1.419 . S
C793 C794 1.362 . S
C794 H786 0.930 . S
C794 C793 1.362 . S
C794 C797 1.409 1_455 S
C795 H787 0.930 . S
C795 C796 1.355 . S
C795 C797 1.415 . S
C796 C795 1.355 . S
C796 C798 1.419 . S
C797 C792 1.425 1_655 S
C797 C794 1.409 1_655 S
C797 C795 1.415 . S
C798 H788 0.930 . S
C798 C796 1.419 . S
C798 C799 1.362 . S
C799 H789 0.930 . S
C799 C792 1.409 1_655 S
C799 C798 1.362 . S
H800 C806 0.930 . S
H801 C809 0.930 . S
H802 C810 0.930 1_556 S
H803 C811 0.930 . S
H804 C814 0.930 . S
H805 C815 0.930 1_554 S
C806 H800 0.930 . S
C806 C807 1.355 . S
C806 C808 1.415 . S
C807 C806 1.355 . S
C807 C809 1.419 . S
C808 C806 1.415 . S
C808 C813 1.425 1_554 S
C808 C815 1.409 1_554 S
C809 H801 0.930 . S
C809 C807 1.419 . S
C809 C810 1.362 . S
C810 H802 0.930 1_554 S
C810 C809 1.362 . S
C810 C813 1.409 1_554 S
C811 H803 0.930 . S
C811 C812 1.355 . S
C811 C813 1.415 . S
C812 C811 1.355 . S
C812 C814 1.419 . S
C813 C808 1.425 1_556 S
C813 C810 1.409 1_556 S
C813 C811 1.415 . S
C814 H804 0.930 . S
C814 C812 1.419 . S
C814 C815 1.362 . S
C815 H805 0.930 1_556 S
C815 C808 1.409 1_556 S
C815 C814 1.362 . S
H816 C822 0.930 . S
H817 C825 0.930 . S
H818 C826 0.930 . S
H819 C827 0.930 . S
H820 C830 0.930 . S
H821 C831 0.930 . S
C822 H816 0.930 . S
C822 C823 1.355 . S
C822 C824 1.415 . S
C823 C822 1.355 . S
C823 C825 1.419 . S
C824 C822 1.415 . S
C824 C829 1.425 1_556 S
C824 C831 1.409 1_556 S
C825 H817 0.930 . S
C825 C823 1.419 . S
C825 C826 1.362 . S
C826 H818 0.930 . S
C826 C825 1.362 . S
C826 C829 1.409 1_556 S
C827 H819 0.930 . S
C827 C828 1.355 . S
C827 C829 1.415 . S
C828 C827 1.355 . S
C828 C830 1.419 . S
C829 C824 1.425 1_554 S
C829 C826 1.409 1_554 S
C829 C827 1.415 . S
C830 H820 0.930 . S
C830 C828 1.419 . S
C830 C831 1.362 . S
C831 H821 0.930 . S
C831 C824 1.409 1_554 S
C831 C830 1.362 . S
H832 C838 0.930 . S
H833 C841 0.930 . S
H834 C842 0.930 . S
H835 C843 0.930 . S
H836 C846 0.930 . S
H837 C847 0.930 . S
C838 H832 0.930 . S
C838 C839 1.355 . S
C838 C840 1.415 . S
C839 C838 1.355 . S
C839 C841 1.419 . S
C840 C838 1.415 . S
C840 C845 1.425 1_556 S
C840 C847 1.409 1_556 S
C841 H833 0.930 . S
C841 C839 1.419 . S
C841 C842 1.362 . S
C842 H834 0.930 . S
C842 C841 1.362 . S
C842 C845 1.409 1_556 S
C843 H835 0.930 . S
C843 C844 1.355 . S
C843 C845 1.415 . S
C844 C843 1.355 . S
C844 C846 1.419 . S
C845 C840 1.425 1_554 S
C845 C842 1.409 1_554 S
C845 C843 1.415 . S
C846 H836 0.930 . S
C846 C844 1.419 . S
C846 C847 1.362 . S
C847 H837 0.930 . S
C847 C840 1.409 1_554 S
C847 C846 1.362 . S
H848 C854 0.930 . S
H849 C857 0.930 . S
H850 C858 0.930 . S
H851 C859 0.930 . S
H852 C862 0.930 . S
H853 C863 0.930 . S
C854 H848 0.930 . S
C854 C855 1.355 . S
C854 C856 1.415 . S
C855 C854 1.355 . S
C855 C857 1.419 . S
C856 C854 1.415 . S
C856 C861 1.425 1_556 S
C856 C863 1.409 1_556 S
C857 H849 0.930 . S
C857 C855 1.419 . S
C857 C858 1.362 . S
C858 H850 0.930 . S
C858 C857 1.362 . S
C858 C861 1.409 1_556 S
C859 H851 0.930 . S
C859 C860 1.355 . S
C859 C861 1.415 . S
C860 C859 1.355 . S
C860 C862 1.419 . S
C861 C856 1.425 1_554 S
C861 C858 1.409 1_554 S
C861 C859 1.415 . S
C862 H852 0.930 . S
C862 C860 1.419 . S
C862 C863 1.362 . S
C863 H853 0.930 . S
C863 C856 1.409 1_554 S
C863 C862 1.362 . S
H864 C870 0.930 . S
H865 C873 0.930 . S
H866 C874 0.926 1_556 S
H867 C875 0.930 . S
H868 C878 0.930 . S
H869 C879 0.926 1_554 S
C870 H864 0.930 . S
C870 C871 1.355 . S
C870 C872 1.415 . S
C871 C870 1.355 . S
C871 C873 1.419 . S
C872 C870 1.415 . S
C872 C877 1.425 1_554 S
C872 C879 1.409 1_554 S
C873 H865 0.930 . S
C873 C871 1.419 . S
C873 C874 1.362 . S
C874 H866 0.926 1_554 S
C874 C873 1.362 . S
C874 C877 1.409 1_554 S
C875 H867 0.930 . S
C875 C876 1.355 . S
C875 C877 1.415 . S
C876 C875 1.355 . S
C876 C878 1.419 . S
C877 C872 1.425 1_556 S
C877 C874 1.409 1_556 S
C877 C875 1.415 . S
C878 H868 0.930 . S
C878 C876 1.419 . S
C878 C879 1.362 . S
C879 H869 0.926 1_556 S
C879 C872 1.409 1_556 S
C879 C878 1.362 . S
H880 C886 0.930 . S
H881 C889 0.930 . S
H882 C890 0.930 1_554 S
H883 C891 0.930 . S
H884 C894 0.930 . S
H885 C895 0.930 1_556 S
C886 H880 0.930 . S
C886 C887 1.355 . S
C886 C888 1.415 . S
C887 C886 1.355 . S
C887 C889 1.419 . S
C888 C886 1.415 . S
C888 C893 1.425 1_556 S
C888 C895 1.409 1_556 S
C889 H881 0.930 . S
C889 C887 1.419 . S
C889 C890 1.362 . S
C890 H882 0.930 1_556 S
C890 C889 1.362 . S
C890 C893 1.409 1_556 S
C891 H883 0.930 . S
C891 C892 1.355 . S
C891 C893 1.415 . S
C892 C891 1.355 . S
C892 C894 1.419 . S
C893 C888 1.425 1_554 S
C893 C890 1.409 1_554 S
C893 C891 1.415 . S
C894 H884 0.930 . S
C894 C892 1.419 . S
C894 C895 1.362 . S
C895 H885 0.930 1_554 S
C895 C888 1.409 1_554 S
C895 C894 1.362 . S
H896 C902 0.930 . S
H897 C905 0.930 . S
H898 C906 0.930 . S
H899 C907 0.930 . S
H900 C910 0.930 . S
H901 C911 0.930 . S
C902 H896 0.930 . S
C902 C903 1.355 . S
C902 C904 1.415 . S
C903 C902 1.355 . S
C903 C905 1.419 . S
C904 C902 1.415 . S
C904 C909 1.425 1_554 S
C904 C911 1.409 1_554 S
C905 H897 0.930 . S
C905 C903 1.419 . S
C905 C906 1.362 . S
C906 H898 0.930 . S
C906 C905 1.362 . S
C906 C909 1.409 1_554 S
C907 H899 0.930 . S
C907 C908 1.355 . S
C907 C909 1.415 . S
C908 C907 1.355 . S
C908 C910 1.419 . S
C909 C904 1.425 1_556 S
C909 C906 1.409 1_556 S
C909 C907 1.415 . S
C910 H900 0.930 . S
C910 C908 1.419 . S
C910 C911 1.362 . S
C911 H901 0.930 . S
C911 C904 1.409 1_556 S
C911 C910 1.362 . S
H912 C918 0.930 . S
H913 C921 0.930 . S
H914 C922 0.930 . S
H915 C923 0.930 . S
H916 C926 0.930 . S
H917 C927 0.930 . S
C918 H912 0.930 . S
C918 C919 1.355 . S
C918 C920 1.415 . S
C919 C918 1.355 . S
C919 C921 1.419 . S
C920 C918 1.415 . S
C920 C925 1.425 1_556 S
C920 C927 1.409 1_556 S
C921 H913 0.930 . S
C921 C919 1.419 . S
C921 C922 1.362 . S
C922 H914 0.930 . S
C922 C921 1.362 . S
C922 C925 1.409 1_556 S
C923 H915 0.930 . S
C923 C924 1.355 . S
C923 C925 1.415 . S
C924 C923 1.355 . S
C924 C926 1.419 . S
C925 C920 1.425 1_554 S
C925 C922 1.409 1_554 S
C925 C923 1.415 . S
C926 H916 0.930 . S
C926 C924 1.419 . S
C926 C927 1.362 . S
C927 H917 0.930 . S
C927 C920 1.409 1_554 S
C927 C926 1.362 . S
H928 C934 0.930 . S
H929 C937 0.930 . S
H930 C938 0.926 1_655 S
H931 C939 0.930 . S
H932 C942 0.930 . S
H933 C943 0.926 1_455 S
C934 H928 0.930 . S
C934 C935 1.355 . S
C934 C936 1.415 . S
C935 C934 1.355 . S
C935 C937 1.419 . S
C936 C934 1.415 . S
C936 C941 1.425 1_455 S
C936 C943 1.409 1_455 S
C937 H929 0.930 . S
C937 C935 1.419 . S
C937 C938 1.362 . S
C938 H930 0.926 1_455 S
C938 C937 1.362 . S
C938 C941 1.409 1_455 S
C939 H931 0.930 . S
C939 C940 1.355 . S
C939 C941 1.415 . S
C940 C939 1.355 . S
C940 C942 1.419 . S
C941 C936 1.425 1_655 S
C941 C938 1.409 1_655 S
C941 C939 1.415 . S
C942 H932 0.930 . S
C942 C940 1.419 . S
C942 C943 1.362 . S
C943 H933 0.926 1_655 S
C943 C936 1.409 1_655 S
C943 C942 1.362 . S
H944 C950 0.930 . S
H945 C953 0.930 . S
H946 C954 0.933 . S
H947 C955 0.930 . S
H948 C958 0.930 . S
H949 C959 0.933 . S
C950 H944 0.930 . S
C950 C951 1.355 . S
C950 C952 1.415 . S
C951 C950 1.355 . S
C951 C953 1.419 . S
C952 C950 1.415 . S
C952 C957 1.425 1_455 S
C952 C959 1.409 1_455 S
C953 H945 0.930 . S
C953 C951 1.419 . S
C953 C954 1.362 . S
C954 H946 0.933 . S
C954 C953 1.362 . S
C954 C957 1.409 1_455 S
C955 H947 0.930 . S
C955 C956 1.355 . S
C955 C957 1.415 . S
C956 C955 1.355 . S
C956 C958 1.419 . S
C957 C952 1.425 1_655 S
C957 C954 1.409 1_655 S
C957 C955 1.415 . S
C958 H948 0.930 . S
C958 C956 1.419 . S
C958 C959 1.362 . S
C959 H949 0.933 . S
C959 C952 1.409 1_655 S
C959 C958 1.362 . S
H960 C966 0.930 . S
H961 C969 0.930 . S
H962 C970 0.930 . S
H963 C971 0.930 . S
H964 C974 0.930 . S
H965 C975 0.930 . S
C966 H960 0.930 . S
C966 C967 1.355 . S
C966 C968 1.415 . S
C967 C966 1.355 . S
C967 C969 1.419 . S
C968 C966 1.415 . S
C968 C973 1.425 1_565 S
C968 C975 1.409 1_565 S
C969 H961 0.930 . S
C969 C967 1.419 . S
C969 C970 1.362 . S
C970 H962 0.930 . S
C970 C969 1.362 . S
C970 C973 1.409 1_565 S
C971 H963 0.930 . S
C971 C972 1.355 . S
C971 C973 1.415 . S
C972 C971 1.355 . S
C972 C974 1.419 . S
C973 C968 1.425 1_545 S
C973 C970 1.409 1_545 S
C973 C971 1.415 . S
C974 H964 0.930 . S
C974 C972 1.419 . S
C974 C975 1.362 . S
C975 H965 0.930 . S
C975 C968 1.409 1_545 S
C975 C974 1.362 . S
H976 C982 0.930 . S
H977 C985 0.930 . S
H978 C986 0.930 . S
H979 C987 0.930 . S
H980 C990 0.930 . S
H981 C991 0.930 . S
C982 H976 0.930 . S
C982 C983 1.355 . S
C982 C984 1.415 . S
C983 C982 1.355 . S
C983 C985 1.419 . S
C984 C982 1.415 . S
C984 C989 1.425 1_455 S
C984 C991 1.409 1_455 S
C985 H977 0.930 . S
C985 C983 1.419 . S
C985 C986 1.362 . S
C986 H978 0.930 . S
C986 C985 1.362 . S
C986 C989 1.409 1_455 S
C987 H979 0.930 . S
C987 C988 1.355 . S
C987 C989 1.415 . S
C988 C987 1.355 . S
C988 C990 1.419 . S
C989 C984 1.425 1_655 S
C989 C986 1.409 1_655 S
C989 C987 1.415 . S
C990 H980 0.930 . S
C990 C988 1.419 . S
C990 C991 1.362 . S
C991 H981 0.930 . S
C991 C984 1.409 1_655 S
C991 C990 1.362 . S
H992 C998 0.930 . S
H993 C1001 0.930 . S
H994 C1002 0.930 . S
H995 C1003 0.930 . S
H996 C1006 0.930 . S
H997 C1007 0.930 . S
C998 H992 0.930 . S
C998 C999 1.355 . S
C998 C1000 1.415 . S
C999 C998 1.355 . S
C999 C1001 1.419 . S
C1000 C998 1.415 . S
C1000 C1005 1.425 1_545 S
C1000 C1007 1.409 1_545 S
C1001 H993 0.930 . S
C1001 C999 1.419 . S
C1001 C1002 1.362 . S
C1002 H994 0.930 . S
C1002 C1001 1.362 . S
C1002 C1005 1.409 1_545 S
C1003 H995 0.930 . S
C1003 C1004 1.355 . S
C1003 C1005 1.415 . S
C1004 C1003 1.355 . S
C1004 C1006 1.419 . S
C1005 C1000 1.425 1_565 S
C1005 C1002 1.409 1_565 S
C1005 C1003 1.415 . S
C1006 H996 0.930 . S
C1006 C1004 1.419 . S
C1006 C1007 1.362 . S
C1007 H997 0.930 . S
C1007 C1000 1.409 1_565 S
C1007 C1006 1.362 . S
H1008 C1014 0.930 . S
H1009 C1017 0.930 . S
H1010 C1018 0.930 . S
H1011 C1019 0.930 . S
H1012 C1022 0.930 . S
H1013 C1023 0.930 . S
C1014 H1008 0.930 . S
C1014 C1015 1.355 . S
C1014 C1016 1.415 . S
C1015 C1014 1.355 . S
C1015 C1017 1.419 . S
C1016 C1014 1.415 . S
C1016 C1021 1.425 1_455 S
C1016 C1023 1.409 1_455 S
C1017 H1009 0.930 . S
C1017 C1015 1.419 . S
C1017 C1018 1.362 . S
C1018 H1010 0.930 . S
C1018 C1017 1.362 . S
C1018 C1021 1.409 1_455 S
C1019 H1011 0.930 . S
C1019 C1020 1.355 . S
C1019 C1021 1.415 . S
C1020 C1019 1.355 . S
C1020 C1022 1.419 . S
C1021 C1016 1.425 1_655 S
C1021 C1018 1.409 1_655 S
C1021 C1019 1.415 . S
C1022 H1012 0.930 . S
C1022 C1020 1.419 . S
C1022 C1023 1.362 . S
C1023 H1013 0.930 . S
C1023 C1016 1.409 1_655 S
C1023 C1022 1.362 . S
H1024 C1030 0.930 . S
H1025 C1033 0.930 . S
H1026 C1034 0.920 1_565 S
H1027 C1035 0.930 . S
H1028 C1038 0.930 . S
H1029 C1039 0.920 1_545 S
C1030 H1024 0.930 . S
C1030 C1031 1.355 . S
C1030 C1032 1.415 . S
C1031 C1030 1.355 . S
C1031 C1033 1.419 . S
C1032 C1030 1.415 . S
C1032 C1037 1.425 1_545 S
C1032 C1039 1.409 1_545 S
C1033 H1025 0.930 . S
C1033 C1031 1.419 . S
C1033 C1034 1.362 . S
C1034 H1026 0.920 1_545 S
C1034 C1033 1.362 . S
C1034 C1037 1.409 1_545 S
C1035 H1027 0.930 . S
C1035 C1036 1.355 . S
C1035 C1037 1.415 . S
C1036 C1035 1.355 . S
C1036 C1038 1.419 . S
C1037 C1032 1.425 1_565 S
C1037 C1034 1.409 1_565 S
C1037 C1035 1.415 . S
C1038 H1028 0.930 . S
C1038 C1036 1.419 . S
C1038 C1039 1.362 . S
C1039 H1029 0.920 1_565 S
C1039 C1032 1.409 1_565 S
C1039 C1038 1.362 . S
H1040 C1046 0.930 . S
H1041 C1049 0.930 . S
H1042 C1050 0.930 . S
H1043 C1051 0.930 . S
H1044 C1054 0.930 . S
H1045 C1055 0.930 . S
C1046 H1040 0.930 . S
C1046 C1047 1.355 . S
C1046 C1048 1.415 . S
C1047 C1046 1.355 . S
C1047 C1049 1.419 . S
C1048 C1046 1.415 . S
C1048 C1053 1.425 1_545 S
C1048 C1055 1.409 1_545 S
C1049 H1041 0.930 . S
C1049 C1047 1.419 . S
C1049 C1050 1.362 . S
C1050 H1042 0.930 . S
C1050 C1049 1.362 . S
C1050 C1053 1.409 1_545 S
C1051 H1043 0.930 . S
C1051 C1052 1.355 . S
C1051 C1053 1.415 . S
C1052 C1051 1.355 . S
C1052 C1054 1.419 . S
C1053 C1048 1.425 1_565 S
C1053 C1050 1.409 1_565 S
C1053 C1051 1.415 . S
C1054 H1044 0.930 . S
C1054 C1052 1.419 . S
C1054 C1055 1.362 . S
C1055 H1045 0.930 . S
C1055 C1048 1.409 1_565 S
C1055 C1054 1.362 . S
H1056 C1062 0.930 . S
H1057 C1065 0.930 . S
H1058 C1066 0.930 . S
H1059 C1067 0.930 . S
H1060 C1070 0.930 . S
H1061 C1071 0.930 . S
C1062 H1056 0.930 . S
C1062 C1063 1.355 . S
C1062 C1064 1.415 . S
C1063 C1062 1.355 . S
C1063 C1065 1.419 . S
C1064 C1062 1.415 . S
C1064 C1069 1.425 . S
C1064 C1071 1.409 . S
C1065 H1057 0.930 . S
C1065 C1063 1.419 . S
C1065 C1066 1.362 . S
C1066 H1058 0.930 . S
C1066 C1065 1.362 . S
C1066 C1069 1.409 . S
C1067 H1059 0.930 . S
C1067 C1068 1.355 . S
C1067 C1069 1.415 . S
C1068 C1067 1.355 . S
C1068 C1070 1.419 . S
C1069 C1064 1.425 . S
C1069 C1066 1.409 . S
C1069 C1067 1.415 . S
C1070 H1060 0.930 . S
C1070 C1068 1.419 . S
C1070 C1071 1.362 . S
C1071 H1061 0.930 . S
C1071 C1064 1.409 . S
C1071 C1070 1.362 . S
H1072 C1078 0.930 . S
H1073 C1081 0.930 . S
H1074 C1082 0.930 . S
H1075 C1083 0.930 . S
H1076 C1086 0.930 . S
H1077 C1087 0.930 . S
C1078 H1072 0.930 . S
C1078 C1079 1.355 . S
C1078 C1080 1.415 . S
C1079 C1078 1.355 . S
C1079 C1081 1.419 . S
C1080 C1078 1.415 . S
C1080 C1085 1.425 . S
C1080 C1087 1.409 . S
C1081 H1073 0.930 . S
C1081 C1079 1.419 . S
C1081 C1082 1.362 . S
C1082 H1074 0.930 . S
C1082 C1081 1.362 . S
C1082 C1085 1.409 . S
C1083 H1075 0.930 . S
C1083 C1084 1.355 . S
C1083 C1085 1.415 . S
C1084 C1083 1.355 . S
C1084 C1086 1.419 . S
C1085 C1080 1.425 . S
C1085 C1082 1.409 . S
C1085 C1083 1.415 . S
C1086 H1076 0.930 . S
C1086 C1084 1.419 . S
C1086 C1087 1.362 . S
C1087 H1077 0.930 . S
C1087 C1080 1.409 . S
C1087 C1086 1.362 . S
H1088 C1094 0.930 . S
H1089 C1097 0.930 . S
H1090 C1098 0.930 . S
H1091 C1099 0.930 . S
H1092 C1102 0.930 . S
H1093 C1103 0.930 . S
C1094 H1088 0.930 . S
C1094 C1095 1.355 . S
C1094 C1096 1.415 . S
C1095 C1094 1.355 . S
C1095 C1097 1.419 . S
C1096 C1094 1.415 . S
C1096 C1101 1.425 . S
C1096 C1103 1.409 . S
C1097 H1089 0.930 . S
C1097 C1095 1.419 . S
C1097 C1098 1.362 . S
C1098 H1090 0.930 . S
C1098 C1097 1.362 . S
C1098 C1101 1.409 . S
C1099 H1091 0.930 . S
C1099 C1100 1.355 . S
C1099 C1101 1.415 . S
C1100 C1099 1.355 . S
C1100 C1102 1.419 . S
C1101 C1096 1.425 . S
C1101 C1098 1.409 . S
C1101 C1099 1.415 . S
C1102 H1092 0.930 . S
C1102 C1100 1.419 . S
C1102 C1103 1.362 . S
C1103 H1093 0.930 . S
C1103 C1096 1.409 . S
C1103 C1102 1.362 . S
H1104 C1110 0.930 . S
H1105 C1113 0.930 . S
H1106 C1114 0.930 . S
H1107 C1115 0.930 . S
H1108 C1118 0.930 . S
H1109 C1119 0.930 . S
C1110 H1104 0.930 . S
C1110 C1111 1.355 . S
C1110 C1112 1.415 . S
C1111 C1110 1.355 . S
C1111 C1113 1.419 . S
C1112 C1110 1.415 . S
C1112 C1117 1.425 . S
C1112 C1119 1.409 . S
C1113 H1105 0.930 . S
C1113 C1111 1.419 . S
C1113 C1114 1.362 . S
C1114 H1106 0.930 . S
C1114 C1113 1.362 . S
C1114 C1117 1.409 . S
C1115 H1107 0.930 . S
C1115 C1116 1.355 . S
C1115 C1117 1.415 . S
C1116 C1115 1.355 . S
C1116 C1118 1.419 . S
C1117 C1112 1.425 . S
C1117 C1114 1.409 . S
C1117 C1115 1.415 . S
C1118 H1108 0.930 . S
C1118 C1116 1.419 . S
C1118 C1119 1.362 . S
C1119 H1109 0.930 . S
C1119 C1112 1.409 . S
C1119 C1118 1.362 . S
H1120 C1126 0.930 . S
H1121 C1129 0.930 . S
H1122 C1130 0.930 . S
H1123 C1131 0.930 . S
H1124 C1134 0.930 . S
H1125 C1135 0.930 . S
C1126 H1120 0.930 . S
C1126 C1127 1.355 . S
C1126 C1128 1.415 . S
C1127 C1126 1.355 . S
C1127 C1129 1.419 . S
C1128 C1126 1.415 . S
C1128 C1133 1.425 . S
C1128 C1135 1.409 . S
C1129 H1121 0.930 . S
C1129 C1127 1.419 . S
C1129 C1130 1.362 . S
C1130 H1122 0.930 . S
C1130 C1129 1.362 . S
C1130 C1133 1.409 . S
C1131 H1123 0.930 . S
C1131 C1132 1.355 . S
C1131 C1133 1.415 . S
C1132 C1131 1.355 . S
C1132 C1134 1.419 . S
C1133 C1128 1.425 . S
C1133 C1130 1.409 . S
C1133 C1131 1.415 . S
C1134 H1124 0.930 . S
C1134 C1132 1.419 . S
C1134 C1135 1.362 . S
C1135 H1125 0.930 . S
C1135 C1128 1.409 . S
C1135 C1134 1.362 . S
H1136 C1142 0.930 . S
H1137 C1145 0.930 . S
H1138 C1146 0.930 . S
H1139 C1147 0.930 . S
H1140 C1150 0.930 . S
H1141 C1151 0.930 . S
C1142 H1136 0.930 . S
C1142 C1143 1.355 . S
C1142 C1144 1.415 . S
C1143 C1142 1.355 . S
C1143 C1145 1.419 . S
C1144 C1142 1.415 . S
C1144 C1149 1.425 . S
C1144 C1151 1.409 . S
C1145 H1137 0.930 . S
C1145 C1143 1.419 . S
C1145 C1146 1.362 . S
C1146 H1138 0.930 . S
C1146 C1145 1.362 . S
C1146 C1149 1.409 . S
C1147 H1139 0.930 . S
C1147 C1148 1.355 . S
C1147 C1149 1.415 . S
C1148 C1147 1.355 . S
C1148 C1150 1.419 . S
C1149 C1144 1.425 . S
C1149 C1146 1.409 . S
C1149 C1147 1.415 . S
C1150 H1140 0.930 . S
C1150 C1148 1.419 . S
C1150 C1151 1.362 . S
C1151 H1141 0.930 . S
C1151 C1144 1.409 . S
C1151 C1150 1.362 . S
H1152 C1158 0.930 . S
H1153 C1161 0.930 . S
H1154 C1162 0.930 . S
H1155 C1163 0.930 . S
H1156 C1166 0.930 . S
H1157 C1167 0.930 . S
C1158 H1152 0.930 . S
C1158 C1159 1.355 . S
C1158 C1160 1.415 . S
C1159 C1158 1.355 . S
C1159 C1161 1.419 . S
C1160 C1158 1.415 . S
C1160 C1165 1.425 . S
C1160 C1167 1.409 . S
C1161 H1153 0.930 . S
C1161 C1159 1.419 . S
C1161 C1162 1.362 . S
C1162 H1154 0.930 . S
C1162 C1161 1.362 . S
C1162 C1165 1.409 . S
C1163 H1155 0.930 . S
C1163 C1164 1.355 . S
C1163 C1165 1.415 . S
C1164 C1163 1.355 . S
C1164 C1166 1.419 . S
C1165 C1160 1.425 . S
C1165 C1162 1.409 . S
C1165 C1163 1.415 . S
C1166 H1156 0.930 . S
C1166 C1164 1.419 . S
C1166 C1167 1.362 . S
C1167 H1157 0.930 . S
C1167 C1160 1.409 . S
C1167 C1166 1.362 . S
H1168 C1174 0.930 . S
H1169 C1177 0.930 . S
H1170 C1178 0.930 . S
H1171 C1179 0.930 . S
H1172 C1182 0.930 . S
H1173 C1183 0.930 . S
C1174 H1168 0.930 . S
C1174 C1175 1.355 . S
C1174 C1176 1.415 . S
C1175 C1174 1.355 . S
C1175 C1177 1.419 . S
C1176 C1174 1.415 . S
C1176 C1181 1.425 . S
C1176 C1183 1.409 . S
C1177 H1169 0.930 . S
C1177 C1175 1.419 . S
C1177 C1178 1.362 . S
C1178 H1170 0.930 . S
C1178 C1177 1.362 . S
C1178 C1181 1.409 . S
C1179 H1171 0.930 . S
C1179 C1180 1.355 . S
C1179 C1181 1.415 . S
C1180 C1179 1.355 . S
C1180 C1182 1.419 . S
C1181 C1176 1.425 . S
C1181 C1178 1.409 . S
C1181 C1179 1.415 . S
C1182 H1172 0.930 . S
C1182 C1180 1.419 . S
C1182 C1183 1.362 . S
C1183 H1173 0.930 . S
C1183 C1176 1.409 . S
C1183 C1182 1.362 . S
H1184 C1190 0.930 . S
H1185 C1193 0.930 . S
H1186 C1194 0.930 . S
H1187 C1195 0.930 . S
H1188 C1198 0.930 . S
H1189 C1199 0.930 . S
C1190 H1184 0.930 . S
C1190 C1191 1.355 . S
C1190 C1192 1.415 . S
C1191 C1190 1.355 . S
C1191 C1193 1.419 . S
C1192 C1190 1.415 . S
C1192 C1197 1.425 . S
C1192 C1199 1.409 . S
C1193 H1185 0.930 . S
C1193 C1191 1.419 . S
C1193 C1194 1.362 . S
C1194 H1186 0.930 . S
C1194 C1193 1.362 . S
C1194 C1197 1.409 . S
C1195 H1187 0.930 . S
C1195 C1196 1.355 . S
C1195 C1197 1.415 . S
C1196 C1195 1.355 . S
C1196 C1198 1.419 . S
C1197 C1192 1.425 . S
C1197 C1194 1.409 . S
C1197 C1195 1.415 . S
C1198 H1188 0.930 . S
C1198 C1196 1.419 . S
C1198 C1199 1.362 . S
C1199 H1189 0.930 . S
C1199 C1192 1.409 . S
C1199 C1198 1.362 . S
H1200 C1206 0.930 . S
H1201 C1209 0.930 . S
H1202 C1210 0.930 . S
H1203 C1211 0.930 . S
H1204 C1214 0.930 . S
H1205 C1215 0.930 . S
C1206 H1200 0.930 . S
C1206 C1207 1.355 . S
C1206 C1208 1.415 . S
C1207 C1206 1.355 . S
C1207 C1209 1.419 . S
C1208 C1206 1.415 . S
C1208 C1213 1.425 . S
C1208 C1215 1.409 . S
C1209 H1201 0.930 . S
C1209 C1207 1.419 . S
C1209 C1210 1.362 . S
C1210 H1202 0.930 . S
C1210 C1209 1.362 . S
C1210 C1213 1.409 . S
C1211 H1203 0.930 . S
C1211 C1212 1.355 . S
C1211 C1213 1.415 . S
C1212 C1211 1.355 . S
C1212 C1214 1.419 . S
C1213 C1208 1.425 . S
C1213 C1210 1.409 . S
C1213 C1211 1.415 . S
C1214 H1204 0.930 . S
C1214 C1212 1.419 . S
C1214 C1215 1.362 . S
C1215 H1205 0.930 . S
C1215 C1208 1.409 . S
C1215 C1214 1.362 . S
H1216 C1222 0.930 . S
H1217 C1225 0.930 . S
H1218 C1226 0.930 . S
H1219 C1227 0.930 . S
H1220 C1230 0.930 . S
H1221 C1231 0.930 . S
C1222 H1216 0.930 . S
C1222 C1223 1.355 . S
C1222 C1224 1.415 . S
C1223 C1222 1.355 . S
C1223 C1225 1.419 . S
C1224 C1222 1.415 . S
C1224 C1229 1.425 . S
C1224 C1231 1.409 . S
C1225 H1217 0.930 . S
C1225 C1223 1.419 . S
C1225 C1226 1.362 . S
C1226 H1218 0.930 . S
C1226 C1225 1.362 . S
C1226 C1229 1.409 . S
C1227 H1219 0.930 . S
C1227 C1228 1.355 . S
C1227 C1229 1.415 . S
C1228 C1227 1.355 . S
C1228 C1230 1.419 . S
C1229 C1224 1.425 . S
C1229 C1226 1.409 . S
C1229 C1227 1.415 . S
C1230 H1220 0.930 . S
C1230 C1228 1.419 . S
C1230 C1231 1.362 . S
C1231 H1221 0.930 . S
C1231 C1224 1.409 . S
C1231 C1230 1.362 . S
H1232 C1238 0.930 . S
H1233 C1241 0.930 . S
H1234 C1242 0.930 . S
H1235 C1243 0.930 . S
H1236 C1246 0.930 . S
H1237 C1247 0.930 . S
C1238 H1232 0.930 . S
C1238 C1239 1.355 . S
C1238 C1240 1.415 . S
C1239 C1238 1.355 . S
C1239 C1241 1.419 . S
C1240 C1238 1.415 . S
C1240 C1245 1.425 . S
C1240 C1247 1.409 . S
C1241 H1233 0.930 . S
C1241 C1239 1.419 . S
C1241 C1242 1.362 . S
C1242 H1234 0.930 . S
C1242 C1241 1.362 . S
C1242 C1245 1.409 . S
C1243 H1235 0.930 . S
C1243 C1244 1.355 . S
C1243 C1245 1.415 . S
C1244 C1243 1.355 . S
C1244 C1246 1.419 . S
C1245 C1240 1.425 . S
C1245 C1242 1.409 . S
C1245 C1243 1.415 . S
C1246 H1236 0.930 . S
C1246 C1244 1.419 . S
C1246 C1247 1.362 . S
C1247 H1237 0.930 . S
C1247 C1240 1.409 . S
C1247 C1246 1.362 . S
H1248 C1254 0.930 . S
H1249 C1257 0.930 . S
H1250 C1258 0.930 . S
H1251 C1259 0.930 . S
H1252 C1262 0.930 . S
H1253 C1263 0.930 . S
C1254 H1248 0.930 . S
C1254 C1255 1.355 . S
C1254 C1256 1.415 . S
C1255 C1254 1.355 . S
C1255 C1257 1.419 . S
C1256 C1254 1.415 . S
C1256 C1261 1.425 . S
C1256 C1263 1.409 . S
C1257 H1249 0.930 . S
C1257 C1255 1.419 . S
C1257 C1258 1.362 . S
C1258 H1250 0.930 . S
C1258 C1257 1.362 . S
C1258 C1261 1.409 . S
C1259 H1251 0.930 . S
C1259 C1260 1.355 . S
C1259 C1261 1.415 . S
C1260 C1259 1.355 . S
C1260 C1262 1.419 . S
C1261 C1256 1.425 . S
C1261 C1258 1.409 . S
C1261 C1259 1.415 . S
C1262 H1252 0.930 . S
C1262 C1260 1.419 . S
C1262 C1263 1.362 . S
C1263 H1253 0.930 . S
C1263 C1256 1.409 . S
C1263 C1262 1.362 . S
H1264 C1270 0.930 . S
H1265 C1273 0.930 . S
H1266 C1274 0.930 . S
H1267 C1275 0.930 . S
H1268 C1278 0.930 . S
H1269 C1279 0.930 . S
C1270 H1264 0.930 . S
C1270 C1271 1.355 . S
C1270 C1272 1.415 . S
C1271 C1270 1.355 . S
C1271 C1273 1.419 . S
C1272 C1270 1.415 . S
C1272 C1277 1.425 . S
C1272 C1279 1.409 . S
C1273 H1265 0.930 . S
C1273 C1271 1.419 . S
C1273 C1274 1.362 . S
C1274 H1266 0.930 . S
C1274 C1273 1.362 . S
C1274 C1277 1.409 . S
C1275 H1267 0.930 . S
C1275 C1276 1.355 . S
C1275 C1277 1.415 . S
C1276 C1275 1.355 . S
C1276 C1278 1.419 . S
C1277 C1272 1.425 . S
C1277 C1274 1.409 . S
C1277 C1275 1.415 . S
C1278 H1268 0.930 . S
C1278 C1276 1.419 . S
C1278 C1279 1.362 . S
C1279 H1269 0.930 . S
C1279 C1272 1.409 . S
C1279 C1278 1.362 . S
H1280 C1286 0.930 . S
H1281 C1289 0.930 . S
H1282 C1290 0.930 . S
H1283 C1291 0.930 . S
H1284 C1294 0.930 . S
H1285 C1295 0.930 . S
C1286 H1280 0.930 . S
C1286 C1287 1.355 . S
C1286 C1288 1.415 . S
C1287 C1286 1.355 . S
C1287 C1289 1.419 . S
C1288 C1286 1.415 . S
C1288 C1293 1.425 . S
C1288 C1295 1.409 . S
C1289 H1281 0.930 . S
C1289 C1287 1.419 . S
C1289 C1290 1.362 . S
C1290 H1282 0.930 . S
C1290 C1289 1.362 . S
C1290 C1293 1.409 . S
C1291 H1283 0.930 . S
C1291 C1292 1.355 . S
C1291 C1293 1.415 . S
C1292 C1291 1.355 . S
C1292 C1294 1.419 . S
C1293 C1288 1.425 . S
C1293 C1290 1.409 . S
C1293 C1291 1.415 . S
C1294 H1284 0.930 . S
C1294 C1292 1.419 . S
C1294 C1295 1.362 . S
C1295 H1285 0.930 . S
C1295 C1288 1.409 . S
C1295 C1294 1.362 . S
H1296 C1302 0.930 . S
H1297 C1305 0.930 . S
H1298 C1306 0.930 . S
H1299 C1307 0.930 . S
H1300 C1310 0.930 . S
H1301 C1311 0.930 . S
C1302 H1296 0.930 . S
C1302 C1303 1.355 . S
C1302 C1304 1.415 . S
C1303 C1302 1.355 . S
C1303 C1305 1.419 . S
C1304 C1302 1.415 . S
C1304 C1309 1.425 . S
C1304 C1311 1.409 . S
C1305 H1297 0.930 . S
C1305 C1303 1.419 . S
C1305 C1306 1.362 . S
C1306 H1298 0.930 . S
C1306 C1305 1.362 . S
C1306 C1309 1.409 . S
C1307 H1299 0.930 . S
C1307 C1308 1.355 . S
C1307 C1309 1.415 . S
C1308 C1307 1.355 . S
C1308 C1310 1.419 . S
C1309 C1304 1.425 . S
C1309 C1306 1.409 . S
C1309 C1307 1.415 . S
C1310 H1300 0.930 . S
C1310 C1308 1.419 . S
C1310 C1311 1.362 . S
C1311 H1301 0.930 . S
C1311 C1304 1.409 . S
C1311 C1310 1.362 . S
H1312 C1318 0.930 . S
H1313 C1321 0.930 . S
H1314 C1322 0.930 . S
H1315 C1323 0.930 . S
H1316 C1326 0.930 . S
H1317 C1327 0.930 . S
C1318 H1312 0.930 . S
C1318 C1319 1.355 . S
C1318 C1320 1.415 . S
C1319 C1318 1.355 . S
C1319 C1321 1.419 . S
C1320 C1318 1.415 . S
C1320 C1325 1.425 . S
C1320 C1327 1.409 . S
C1321 H1313 0.930 . S
C1321 C1319 1.419 . S
C1321 C1322 1.362 . S
C1322 H1314 0.930 . S
C1322 C1321 1.362 . S
C1322 C1325 1.409 . S
C1323 H1315 0.930 . S
C1323 C1324 1.355 . S
C1323 C1325 1.415 . S
C1324 C1323 1.355 . S
C1324 C1326 1.419 . S
C1325 C1320 1.425 . S
C1325 C1322 1.409 . S
C1325 C1323 1.415 . S
C1326 H1316 0.930 . S
C1326 C1324 1.419 . S
C1326 C1327 1.362 . S
C1327 H1317 0.930 . S
C1327 C1320 1.409 . S
C1327 C1326 1.362 . S
H1328 C1334 0.930 . S
H1329 C1337 0.930 . S
H1330 C1338 0.930 . S
H1331 C1339 0.930 . S
H1332 C1342 0.930 . S
H1333 C1343 0.930 . S
C1334 H1328 0.930 . S
C1334 C1335 1.355 . S
C1334 C1336 1.415 . S
C1335 C1334 1.355 . S
C1335 C1337 1.419 . S
C1336 C1334 1.415 . S
C1336 C1341 1.425 . S
C1336 C1343 1.409 . S
C1337 H1329 0.930 . S
C1337 C1335 1.419 . S
C1337 C1338 1.362 . S
C1338 H1330 0.930 . S
C1338 C1337 1.362 . S
C1338 C1341 1.409 . S
C1339 H1331 0.930 . S
C1339 C1340 1.355 . S
C1339 C1341 1.415 . S
C1340 C1339 1.355 . S
C1340 C1342 1.419 . S
C1341 C1336 1.425 . S
C1341 C1338 1.409 . S
C1341 C1339 1.415 . S
C1342 H1332 0.930 . S
C1342 C1340 1.419 . S
C1342 C1343 1.362 . S
C1343 H1333 0.930 . S
C1343 C1336 1.409 . S
C1343 C1342 1.362 . S
H1344 C1350 0.930 . S
H1345 C1353 0.930 . S
H1346 C1354 0.930 . S
H1347 C1355 0.930 . S
H1348 C1358 0.930 . S
H1349 C1359 0.930 . S
C1350 H1344 0.930 . S
C1350 C1351 1.355 . S
C1350 C1352 1.415 . S
C1351 C1350 1.355 . S
C1351 C1353 1.419 . S
C1352 C1350 1.415 . S
C1352 C1357 1.425 . S
C1352 C1359 1.409 . S
C1353 H1345 0.930 . S
C1353 C1351 1.419 . S
C1353 C1354 1.362 . S
C1354 H1346 0.930 . S
C1354 C1353 1.362 . S
C1354 C1357 1.409 . S
C1355 H1347 0.930 . S
C1355 C1356 1.355 . S
C1355 C1357 1.415 . S
C1356 C1355 1.355 . S
C1356 C1358 1.419 . S
C1357 C1352 1.425 . S
C1357 C1354 1.409 . S
C1357 C1355 1.415 . S
C1358 H1348 0.930 . S
C1358 C1356 1.419 . S
C1358 C1359 1.362 . S
C1359 H1349 0.930 . S
C1359 C1352 1.409 . S
C1359 C1358 1.362 . S
H1360 C1366 0.930 . S
H1361 C1369 0.930 . S
H1362 C1370 0.930 . S
H1363 C1371 0.930 . S
H1364 C1374 0.930 . S
H1365 C1375 0.930 . S
C1366 H1360 0.930 . S
C1366 C1367 1.355 . S
C1366 C1368 1.415 . S
C1367 C1366 1.355 . S
C1367 C1369 1.419 . S
C1368 C1366 1.415 . S
C1368 C1373 1.425 . S
C1368 C1375 1.409 . S
C1369 H1361 0.930 . S
C1369 C1367 1.419 . S
C1369 C1370 1.362 . S
C1370 H1362 0.930 . S
C1370 C1369 1.362 . S
C1370 C1373 1.409 . S
C1371 H1363 0.930 . S
C1371 C1372 1.355 . S
C1371 C1373 1.415 . S
C1372 C1371 1.355 . S
C1372 C1374 1.419 . S
C1373 C1368 1.425 . S
C1373 C1370 1.409 . S
C1373 C1371 1.415 . S
C1374 H1364 0.930 . S
C1374 C1372 1.419 . S
C1374 C1375 1.362 . S
C1375 H1365 0.930 . S
C1375 C1368 1.409 . S
C1375 C1374 1.362 . S
H1376 C1382 0.930 . S
H1377 C1385 0.930 . S
H1378 C1386 0.930 . S
H1379 C1387 0.930 . S
H1380 C1390 0.930 . S
H1381 C1391 0.930 . S
C1382 H1376 0.930 . S
C1382 C1383 1.355 . S
C1382 C1384 1.415 . S
C1383 C1382 1.355 . S
C1383 C1385 1.419 . S
C1384 C1382 1.415 . S
C1384 C1389 1.425 . S
C1384 C1391 1.409 . S
C1385 H1377 0.930 . S
C1385 C1383 1.419 . S
C1385 C1386 1.362 . S
C1386 H1378 0.930 . S
C1386 C1385 1.362 . S
C1386 C1389 1.409 . S
C1387 H1379 0.930 . S
C1387 C1388 1.355 . S
C1387 C1389 1.415 . S
C1388 C1387 1.355 . S
C1388 C1390 1.419 . S
C1389 C1384 1.425 . S
C1389 C1386 1.409 . S
C1389 C1387 1.415 . S
C1390 H1380 0.930 . S
C1390 C1388 1.419 . S
C1390 C1391 1.362 . S
C1391 H1381 0.930 . S
C1391 C1384 1.409 . S
C1391 C1390 1.362 . S
H1392 C1398 0.930 . S
H1393 C1401 0.930 . S
H1394 C1402 0.930 . S
H1395 C1403 0.930 . S
H1396 C1406 0.930 . S
H1397 C1407 0.930 . S
C1398 H1392 0.930 . S
C1398 C1399 1.355 . S
C1398 C1400 1.415 . S
C1399 C1398 1.355 . S
C1399 C1401 1.419 . S
C1400 C1398 1.415 . S
C1400 C1405 1.425 . S
C1400 C1407 1.409 . S
C1401 H1393 0.930 . S
C1401 C1399 1.419 . S
C1401 C1402 1.362 . S
C1402 H1394 0.930 . S
C1402 C1401 1.362 . S
C1402 C1405 1.409 . S
C1403 H1395 0.930 . S
C1403 C1404 1.355 . S
C1403 C1405 1.415 . S
C1404 C1403 1.355 . S
C1404 C1406 1.419 . S
C1405 C1400 1.425 . S
C1405 C1402 1.409 . S
C1405 C1403 1.415 . S
C1406 H1396 0.930 . S
C1406 C1404 1.419 . S
C1406 C1407 1.362 . S
C1407 H1397 0.930 . S
C1407 C1400 1.409 . S
C1407 C1406 1.362 . S
H1408 C1414 0.930 . S
H1409 C1417 0.930 . S
H1410 C1418 0.930 . S
H1411 C1419 0.930 . S
H1412 C1422 0.930 . S
H1413 C1423 0.930 . S
C1414 H1408 0.930 . S
C1414 C1415 1.355 . S
C1414 C1416 1.415 . S
C1415 C1414 1.355 . S
C1415 C1417 1.419 . S
C1416 C1414 1.415 . S
C1416 C1421 1.425 . S
C1416 C1423 1.409 . S
C1417 H1409 0.930 . S
C1417 C1415 1.419 . S
C1417 C1418 1.362 . S
C1418 H1410 0.930 . S
C1418 C1417 1.362 . S
C1418 C1421 1.409 . S
C1419 H1411 0.930 . S
C1419 C1420 1.355 . S
C1419 C1421 1.415 . S
C1420 C1419 1.355 . S
C1420 C1422 1.419 . S
C1421 C1416 1.425 . S
C1421 C1418 1.409 . S
C1421 C1419 1.415 . S
C1422 H1412 0.930 . S
C1422 C1420 1.419 . S
C1422 C1423 1.362 . S
C1423 H1413 0.930 . S
C1423 C1416 1.409 . S
C1423 C1422 1.362 . S
H1424 C1430 0.930 . S
H1425 C1433 0.930 . S
H1426 C1434 0.930 . S
H1427 C1435 0.930 . S
H1428 C1438 0.930 . S
H1429 C1439 0.930 . S
C1430 H1424 0.930 . S
C1430 C1431 1.355 . S
C1430 C1432 1.415 . S
C1431 C1430 1.355 . S
C1431 C1433 1.419 . S
C1432 C1430 1.415 . S
C1432 C1437 1.425 . S
C1432 C1439 1.409 . S
C1433 H1425 0.930 . S
C1433 C1431 1.419 . S
C1433 C1434 1.362 . S
C1434 H1426 0.930 . S
C1434 C1433 1.362 . S
C1434 C1437 1.409 . S
C1435 H1427 0.930 . S
C1435 C1436 1.355 . S
C1435 C1437 1.415 . S
C1436 C1435 1.355 . S
C1436 C1438 1.419 . S
C1437 C1432 1.425 . S
C1437 C1434 1.409 . S
C1437 C1435 1.415 . S
C1438 H1428 0.930 . S
C1438 C1436 1.419 . S
C1438 C1439 1.362 . S
C1439 H1429 0.930 . S
C1439 C1432 1.409 . S
C1439 C1438 1.362 . S
H1440 C1446 0.930 . S
H1441 C1449 0.930 . S
H1442 C1450 0.930 . S
H1443 C1451 0.930 . S
H1444 C1454 0.930 . S
H1445 C1455 0.930 . S
C1446 H1440 0.930 . S
C1446 C1447 1.355 . S
C1446 C1448 1.415 . S
C1447 C1446 1.355 . S
C1447 C1449 1.419 . S
C1448 C1446 1.415 . S
C1448 C1453 1.425 . S
C1448 C1455 1.409 . S
C1449 H1441 0.930 . S
C1449 C1447 1.419 . S
C1449 C1450 1.362 . S
C1450 H1442 0.930 . S
C1450 C1449 1.362 . S
C1450 C1453 1.409 . S
C1451 H1443 0.930 . S
C1451 C1452 1.355 . S
C1451 C1453 1.415 . S
C1452 C1451 1.355 . S
C1452 C1454 1.419 . S
C1453 C1448 1.425 . S
C1453 C1450 1.409 . S
C1453 C1451 1.415 . S
C1454 H1444 0.930 . S
C1454 C1452 1.419 . S
C1454 C1455 1.362 . S
C1455 H1445 0.930 . S
C1455 C1448 1.409 . S
C1455 C1454 1.362 . S
H1456 C1462 0.930 . S
H1457 C1465 0.930 . S
H1458 C1466 0.930 . S
H1459 C1467 0.930 . S
H1460 C1470 0.930 . S
H1461 C1471 0.930 . S
C1462 H1456 0.930 . S
C1462 C1463 1.355 . S
C1462 C1464 1.415 . S
C1463 C1462 1.355 . S
C1463 C1465 1.419 . S
C1464 C1462 1.415 . S
C1464 C1469 1.425 . S
C1464 C1471 1.409 . S
C1465 H1457 0.930 . S
C1465 C1463 1.419 . S
C1465 C1466 1.362 . S
C1466 H1458 0.930 . S
C1466 C1465 1.362 . S
C1466 C1469 1.409 . S
C1467 H1459 0.930 . S
C1467 C1468 1.355 . S
C1467 C1469 1.415 . S
C1468 C1467 1.355 . S
C1468 C1470 1.419 . S
C1469 C1464 1.425 . S
C1469 C1466 1.409 . S
C1469 C1467 1.415 . S
C1470 H1460 0.930 . S
C1470 C1468 1.419 . S
C1470 C1471 1.362 . S
C1471 H1461 0.930 . S
C1471 C1464 1.409 . S
C1471 C1470 1.362 . S
H1472 C1478 0.930 . S
H1473 C1481 0.930 . S
H1474 C1482 0.930 . S
H1475 C1483 0.930 . S
H1476 C1486 0.930 . S
H1477 C1487 0.930 . S
C1478 H1472 0.930 . S
C1478 C1479 1.355 . S
C1478 C1480 1.415 . S
C1479 C1478 1.355 . S
C1479 C1481 1.419 . S
C1480 C1478 1.415 . S
C1480 C1485 1.425 . S
C1480 C1487 1.409 . S
C1481 H1473 0.930 . S
C1481 C1479 1.419 . S
C1481 C1482 1.362 . S
C1482 H1474 0.930 . S
C1482 C1481 1.362 . S
C1482 C1485 1.409 . S
C1483 H1475 0.930 . S
C1483 C1484 1.355 . S
C1483 C1485 1.415 . S
C1484 C1483 1.355 . S
C1484 C1486 1.419 . S
C1485 C1480 1.425 . S
C1485 C1482 1.409 . S
C1485 C1483 1.415 . S
C1486 H1476 0.930 . S
C1486 C1484 1.419 . S
C1486 C1487 1.362 . S
C1487 H1477 0.930 . S
C1487 C1480 1.409 . S
C1487 C1486 1.362 . S
H1488 C1494 0.930 . S
H1489 C1497 0.930 . S
H1490 C1498 0.930 . S
H1491 C1499 0.930 . S
H1492 C1502 0.930 . S
H1493 C1503 0.930 . S
C1494 H1488 0.930 . S
C1494 C1495 1.355 . S
C1494 C1496 1.415 . S
C1495 C1494 1.355 . S
C1495 C1497 1.419 . S
C1496 C1494 1.415 . S
C1496 C1501 1.425 . S
C1496 C1503 1.409 . S
C1497 H1489 0.930 . S
C1497 C1495 1.419 . S
C1497 C1498 1.362 . S
C1498 H1490 0.930 . S
C1498 C1497 1.362 . S
C1498 C1501 1.409 . S
C1499 H1491 0.930 . S
C1499 C1500 1.355 . S
C1499 C1501 1.415 . S
C1500 C1499 1.355 . S
C1500 C1502 1.419 . S
C1501 C1496 1.425 . S
C1501 C1498 1.409 . S
C1501 C1499 1.415 . S
C1502 H1492 0.930 . S
C1502 C1500 1.419 . S
C1502 C1503 1.362 . S
C1503 H1493 0.930 . S
C1503 C1496 1.409 . S
C1503 C1502 1.362 . S
H1504 C1510 0.930 . S
H1505 C1513 0.930 . S
H1506 C1514 0.930 . S
H1507 C1515 0.930 . S
H1508 C1518 0.930 . S
H1509 C1519 0.930 . S
C1510 H1504 0.930 . S
C1510 C1511 1.355 . S
C1510 C1512 1.415 . S
C1511 C1510 1.355 . S
C1511 C1513 1.419 . S
C1512 C1510 1.415 . S
C1512 C1517 1.425 . S
C1512 C1519 1.409 . S
C1513 H1505 0.930 . S
C1513 C1511 1.419 . S
C1513 C1514 1.362 . S
C1514 H1506 0.930 . S
C1514 C1513 1.362 . S
C1514 C1517 1.409 . S
C1515 H1507 0.930 . S
C1515 C1516 1.355 . S
C1515 C1517 1.415 . S
C1516 C1515 1.355 . S
C1516 C1518 1.419 . S
C1517 C1512 1.425 . S
C1517 C1514 1.409 . S
C1517 C1515 1.415 . S
C1518 H1508 0.930 . S
C1518 C1516 1.419 . S
C1518 C1519 1.362 . S
C1519 H1509 0.930 . S
C1519 C1512 1.409 . S
C1519 C1518 1.362 . S
H1520 C1526 0.930 . S
H1521 C1529 0.930 . S
H1522 C1530 0.930 . S
H1523 C1531 0.930 . S
H1524 C1534 0.930 . S
H1525 C1535 0.930 . S
C1526 H1520 0.930 . S
C1526 C1527 1.355 . S
C1526 C1528 1.415 . S
C1527 C1526 1.355 . S
C1527 C1529 1.419 . S
C1528 C1526 1.415 . S
C1528 C1533 1.425 . S
C1528 C1535 1.409 . S
C1529 H1521 0.930 . S
C1529 C1527 1.419 . S
C1529 C1530 1.362 . S
C1530 H1522 0.930 . S
C1530 C1529 1.362 . S
C1530 C1533 1.409 . S
C1531 H1523 0.930 . S
C1531 C1532 1.355 . S
C1531 C1533 1.415 . S
C1532 C1531 1.355 . S
C1532 C1534 1.419 . S
C1533 C1528 1.425 . S
C1533 C1530 1.409 . S
C1533 C1531 1.415 . S
C1534 H1524 0.930 . S
C1534 C1532 1.419 . S
C1534 C1535 1.362 . S
C1535 H1525 0.930 . S
C1535 C1528 1.409 . S
C1535 C1534 1.362 . S
H1536 C1542 0.930 . S
H1537 C1545 0.930 . S
H1538 C1546 0.930 . S
H1539 C1547 0.930 . S
H1540 C1550 0.930 . S
H1541 C1551 0.930 . S
C1542 H1536 0.930 . S
C1542 C1543 1.355 . S
C1542 C1544 1.415 . S
C1543 C1542 1.355 . S
C1543 C1545 1.419 . S
C1544 C1542 1.415 . S
C1544 C1549 1.425 . S
C1544 C1551 1.409 . S
C1545 H1537 0.930 . S
C1545 C1543 1.419 . S
C1545 C1546 1.362 . S
C1546 H1538 0.930 . S
C1546 C1545 1.362 . S
C1546 C1549 1.409 . S
C1547 H1539 0.930 . S
C1547 C1548 1.355 . S
C1547 C1549 1.415 . S
C1548 C1547 1.355 . S
C1548 C1550 1.419 . S
C1549 C1544 1.425 . S
C1549 C1546 1.409 . S
C1549 C1547 1.415 . S
C1550 H1540 0.930 . S
C1550 C1548 1.419 . S
C1550 C1551 1.362 . S
C1551 H1541 0.930 . S
C1551 C1544 1.409 . S
C1551 C1550 1.362 . S
H1552 C1558 0.930 . S
H1553 C1561 0.930 . S
H1554 C1562 0.930 . S
H1555 C1563 0.930 . S
H1556 C1566 0.930 . S
H1557 C1567 0.930 . S
C1558 H1552 0.930 . S
C1558 C1559 1.355 . S
C1558 C1560 1.415 . S
C1559 C1558 1.355 . S
C1559 C1561 1.419 . S
C1560 C1558 1.415 . S
C1560 C1565 1.425 . S
C1560 C1567 1.409 . S
C1561 H1553 0.930 . S
C1561 C1559 1.419 . S
C1561 C1562 1.362 . S
C1562 H1554 0.930 . S
C1562 C1561 1.362 . S
C1562 C1565 1.409 . S
C1563 H1555 0.930 . S
C1563 C1564 1.355 . S
C1563 C1565 1.415 . S
C1564 C1563 1.355 . S
C1564 C1566 1.419 . S
C1565 C1560 1.425 . S
C1565 C1562 1.409 . S
C1565 C1563 1.415 . S
C1566 H1556 0.930 . S
C1566 C1564 1.419 . S
C1566 C1567 1.362 . S
C1567 H1557 0.930 . S
C1567 C1560 1.409 . S
C1567 C1566 1.362 . S
H1568 C1574 0.930 . S
H1569 C1577 0.930 . S
H1570 C1578 0.930 . S
H1571 C1579 0.930 . S
H1572 C1582 0.930 . S
H1573 C1583 0.930 . S
C1574 H1568 0.930 . S
C1574 C1575 1.355 . S
C1574 C1576 1.415 . S
C1575 C1574 1.355 . S
C1575 C1577 1.419 . S
C1576 C1574 1.415 . S
C1576 C1581 1.425 . S
C1576 C1583 1.409 . S
C1577 H1569 0.930 . S
C1577 C1575 1.419 . S
C1577 C1578 1.362 . S
C1578 H1570 0.930 . S
C1578 C1577 1.362 . S
C1578 C1581 1.409 . S
C1579 H1571 0.930 . S
C1579 C1580 1.355 . S
C1579 C1581 1.415 . S
C1580 C1579 1.355 . S
C1580 C1582 1.419 . S
C1581 C1576 1.425 . S
C1581 C1578 1.409 . S
C1581 C1579 1.415 . S
C1582 H1572 0.930 . S
C1582 C1580 1.419 . S
C1582 C1583 1.362 . S
C1583 H1573 0.930 . S
C1583 C1576 1.409 . S
C1583 C1582 1.362 . S
H1584 C1590 0.930 . S
H1585 C1593 0.930 . S
H1586 C1594 0.930 . S
H1587 C1595 0.930 . S
H1588 C1598 0.930 . S
H1589 C1599 0.930 . S
C1590 H1584 0.930 . S
C1590 C1591 1.355 . S
C1590 C1592 1.415 . S
C1591 C1590 1.355 . S
C1591 C1593 1.419 . S
C1592 C1590 1.415 . S
C1592 C1597 1.425 . S
C1592 C1599 1.409 . S
C1593 H1585 0.930 . S
C1593 C1591 1.419 . S
C1593 C1594 1.362 . S
C1594 H1586 0.930 . S
C1594 C1593 1.362 . S
C1594 C1597 1.409 . S
C1595 H1587 0.930 . S
C1595 C1596 1.355 . S
C1595 C1597 1.415 . S
C1596 C1595 1.355 . S
C1596 C1598 1.419 . S
C1597 C1592 1.425 . S
C1597 C1594 1.409 . S
C1597 C1595 1.415 . S
C1598 H1588 0.930 . S
C1598 C1596 1.419 . S
C1598 C1599 1.362 . S
C1599 H1589 0.930 . S
C1599 C1592 1.409 . S
C1599 C1598 1.362 . S
H1600 C1606 0.930 . S
H1601 C1609 0.930 . S
H1602 C1610 0.930 . S
H1603 C1611 0.930 . S
H1604 C1614 0.930 . S
H1605 C1615 0.930 . S
C1606 H1600 0.930 . S
C1606 C1607 1.355 . S
C1606 C1608 1.415 . S
C1607 C1606 1.355 . S
C1607 C1609 1.419 . S
C1608 C1606 1.415 . S
C1608 C1613 1.425 . S
C1608 C1615 1.409 . S
C1609 H1601 0.930 . S
C1609 C1607 1.419 . S
C1609 C1610 1.362 . S
C1610 H1602 0.930 . S
C1610 C1609 1.362 . S
C1610 C1613 1.409 . S
C1611 H1603 0.930 . S
C1611 C1612 1.355 . S
C1611 C1613 1.415 . S
C1612 C1611 1.355 . S
C1612 C1614 1.419 . S
C1613 C1608 1.425 . S
C1613 C1610 1.409 . S
C1613 C1611 1.415 . S
C1614 H1604 0.930 . S
C1614 C1612 1.419 . S
C1614 C1615 1.362 . S
C1615 H1605 0.930 . S
C1615 C1608 1.409 . S
C1615 C1614 1.362 . S
H1616 C1622 0.930 . S
H1617 C1625 0.930 . S
H1618 C1626 0.930 . S
H1619 C1627 0.930 . S
H1620 C1630 0.930 . S
H1621 C1631 0.930 . S
C1622 H1616 0.930 . S
C1622 C1623 1.355 . S
C1622 C1624 1.415 . S
C1623 C1622 1.355 . S
C1623 C1625 1.419 . S
C1624 C1622 1.415 . S
C1624 C1629 1.425 . S
C1624 C1631 1.409 . S
C1625 H1617 0.930 . S
C1625 C1623 1.419 . S
C1625 C1626 1.362 . S
C1626 H1618 0.930 . S
C1626 C1625 1.362 . S
C1626 C1629 1.409 . S
C1627 H1619 0.930 . S
C1627 C1628 1.355 . S
C1627 C1629 1.415 . S
C1628 C1627 1.355 . S
C1628 C1630 1.419 . S
C1629 C1624 1.425 . S
C1629 C1626 1.409 . S
C1629 C1627 1.415 . S
C1630 H1620 0.930 . S
C1630 C1628 1.419 . S
C1630 C1631 1.362 . S
C1631 H1621 0.930 . S
C1631 C1624 1.409 . S
C1631 C1630 1.362 . S
H1632 C1638 0.930 . S
H1633 C1641 0.930 . S
H1634 C1642 0.930 . S
H1635 C1643 0.930 . S
H1636 C1646 0.930 . S
H1637 C1647 0.930 . S
C1638 H1632 0.930 . S
C1638 C1639 1.355 . S
C1638 C1640 1.415 . S
C1639 C1638 1.355 . S
C1639 C1641 1.419 . S
C1640 C1638 1.415 . S
C1640 C1645 1.425 . S
C1640 C1647 1.409 . S
C1641 H1633 0.930 . S
C1641 C1639 1.419 . S
C1641 C1642 1.362 . S
C1642 H1634 0.930 . S
C1642 C1641 1.362 . S
C1642 C1645 1.409 . S
C1643 H1635 0.930 . S
C1643 C1644 1.355 . S
C1643 C1645 1.415 . S
C1644 C1643 1.355 . S
C1644 C1646 1.419 . S
C1645 C1640 1.425 . S
C1645 C1642 1.409 . S
C1645 C1643 1.415 . S
C1646 H1636 0.930 . S
C1646 C1644 1.419 . S
C1646 C1647 1.362 . S
C1647 H1637 0.930 . S
C1647 C1640 1.409 . S
C1647 C1646 1.362 . S
H1648 C1654 0.930 . S
H1649 C1657 0.930 . S
H1650 C1658 0.930 . S
H1651 C1659 0.930 . S
H1652 C1662 0.930 . S
H1653 C1663 0.930 . S
C1654 H1648 0.930 . S
C1654 C1655 1.355 . S
C1654 C1656 1.415 . S
C1655 C1654 1.355 . S
C1655 C1657 1.419 . S
C1656 C1654 1.415 . S
C1656 C1661 1.425 . S
C1656 C1663 1.409 . S
C1657 H1649 0.930 . S
C1657 C1655 1.419 . S
C1657 C1658 1.362 . S
C1658 H1650 0.930 . S
C1658 C1657 1.362 . S
C1658 C1661 1.409 . S
C1659 H1651 0.930 . S
C1659 C1660 1.355 . S
C1659 C1661 1.415 . S
C1660 C1659 1.355 . S
C1660 C1662 1.419 . S
C1661 C1656 1.425 . S
C1661 C1658 1.409 . S
C1661 C1659 1.415 . S
C1662 H1652 0.930 . S
C1662 C1660 1.419 . S
C1662 C1663 1.362 . S
C1663 H1653 0.930 . S
C1663 C1656 1.409 . S
C1663 C1662 1.362 . S
H1664 C1670 0.930 . S
H1665 C1673 0.930 . S
H1666 C1674 0.930 . S
H1667 C1675 0.930 . S
H1668 C1678 0.930 . S
H1669 C1679 0.930 . S
C1670 H1664 0.930 . S
C1670 C1671 1.355 . S
C1670 C1672 1.415 . S
C1671 C1670 1.355 . S
C1671 C1673 1.419 . S
C1672 C1670 1.415 . S
C1672 C1677 1.425 . S
C1672 C1679 1.409 . S
C1673 H1665 0.930 . S
C1673 C1671 1.419 . S
C1673 C1674 1.362 . S
C1674 H1666 0.930 . S
C1674 C1673 1.362 . S
C1674 C1677 1.409 . S
C1675 H1667 0.930 . S
C1675 C1676 1.355 . S
C1675 C1677 1.415 . S
C1676 C1675 1.355 . S
C1676 C1678 1.419 . S
C1677 C1672 1.425 . S
C1677 C1674 1.409 . S
C1677 C1675 1.415 . S
C1678 H1668 0.930 . S
C1678 C1676 1.419 . S
C1678 C1679 1.362 . S
C1679 H1669 0.930 . S
C1679 C1672 1.409 . S
C1679 C1678 1.362 . S
H1680 C1686 0.930 . S
H1681 C1689 0.930 . S
H1682 C1690 0.930 . S
H1683 C1691 0.930 . S
H1684 C1694 0.930 . S
H1685 C1695 0.930 . S
C1686 H1680 0.930 . S
C1686 C1687 1.355 . S
C1686 C1688 1.415 . S
C1687 C1686 1.355 . S
C1687 C1689 1.419 . S
C1688 C1686 1.415 . S
C1688 C1693 1.425 . S
C1688 C1695 1.409 . S
C1689 H1681 0.930 . S
C1689 C1687 1.419 . S
C1689 C1690 1.362 . S
C1690 H1682 0.930 . S
C1690 C1689 1.362 . S
C1690 C1693 1.409 . S
C1691 H1683 0.930 . S
C1691 C1692 1.355 . S
C1691 C1693 1.415 . S
C1692 C1691 1.355 . S
C1692 C1694 1.419 . S
C1693 C1688 1.425 . S
C1693 C1690 1.409 . S
C1693 C1691 1.415 . S
C1694 H1684 0.930 . S
C1694 C1692 1.419 . S
C1694 C1695 1.362 . S
C1695 H1685 0.930 . S
C1695 C1688 1.409 . S
C1695 C1694 1.362 . S
H1696 C1702 0.930 . S
H1697 C1705 0.930 . S
H1698 C1706 0.930 . S
H1699 C1707 0.930 . S
H1700 C1710 0.930 . S
H1701 C1711 0.930 . S
C1702 H1696 0.930 . S
C1702 C1703 1.355 . S
C1702 C1704 1.415 . S
C1703 C1702 1.355 . S
C1703 C1705 1.419 . S
C1704 C1702 1.415 . S
C1704 C1709 1.425 . S
C1704 C1711 1.409 . S
C1705 H1697 0.930 . S
C1705 C1703 1.419 . S
C1705 C1706 1.362 . S
C1706 H1698 0.930 . S
C1706 C1705 1.362 . S
C1706 C1709 1.409 . S
C1707 H1699 0.930 . S
C1707 C1708 1.355 . S
C1707 C1709 1.415 . S
C1708 C1707 1.355 . S
C1708 C1710 1.419 . S
C1709 C1704 1.425 . S
C1709 C1706 1.409 . S
C1709 C1707 1.415 . S
C1710 H1700 0.930 . S
C1710 C1708 1.419 . S
C1710 C1711 1.362 . S
C1711 H1701 0.930 . S
C1711 C1704 1.409 . S
C1711 C1710 1.362 . S
H1712 C1718 0.930 . S
H1713 C1721 0.930 . S
H1714 C1722 0.930 . S
H1715 C1723 0.930 . S
H1716 C1726 0.930 . S
H1717 C1727 0.930 . S
C1718 H1712 0.930 . S
C1718 C1719 1.355 . S
C1718 C1720 1.415 . S
C1719 C1718 1.355 . S
C1719 C1721 1.419 . S
C1720 C1718 1.415 . S
C1720 C1725 1.425 . S
C1720 C1727 1.409 . S
C1721 H1713 0.930 . S
C1721 C1719 1.419 . S
C1721 C1722 1.362 . S
C1722 H1714 0.930 . S
C1722 C1721 1.362 . S
C1722 C1725 1.409 . S
C1723 H1715 0.930 . S
C1723 C1724 1.355 . S
C1723 C1725 1.415 . S
C1724 C1723 1.355 . S
C1724 C1726 1.419 . S
C1725 C1720 1.425 . S
C1725 C1722 1.409 . S
C1725 C1723 1.415 . S
C1726 H1716 0.930 . S
C1726 C1724 1.419 . S
C1726 C1727 1.362 . S
C1727 H1717 0.930 . S
C1727 C1720 1.409 . S
C1727 C1726 1.362 . S
H1728 C1734 0.930 . S
H1729 C1737 0.930 . S
H1730 C1738 0.930 . S
H1731 C1739 0.930 . S
H1732 C1742 0.930 . S
H1733 C1743 0.930 . S
C1734 H1728 0.930 . S
C1734 C1735 1.355 . S
C1734 C1736 1.415 . S
C1735 C1734 1.355 . S
C1735 C1737 1.419 . S
C1736 C1734 1.415 . S
C1736 C1741 1.425 . S
C1736 C1743 1.409 . S
C1737 H1729 0.930 . S
C1737 C1735 1.419 . S
C1737 C1738 1.362 . S
C1738 H1730 0.930 . S
C1738 C1737 1.362 . S
C1738 C1741 1.409 . S
C1739 H1731 0.930 . S
C1739 C1740 1.355 . S
C1739 C1741 1.415 . S
C1740 C1739 1.355 . S
C1740 C1742 1.419 . S
C1741 C1736 1.425 . S
C1741 C1738 1.409 . S
C1741 C1739 1.415 . S
C1742 H1732 0.930 . S
C1742 C1740 1.419 . S
C1742 C1743 1.362 . S
C1743 H1733 0.930 . S
C1743 C1736 1.409 . S
C1743 C1742 1.362 . S
H1744 C1750 0.930 . S
H1745 C1753 0.930 . S
H1746 C1754 0.930 . S
H1747 C1755 0.930 . S
H1748 C1758 0.930 . S
H1749 C1759 0.930 . S
C1750 H1744 0.930 . S
C1750 C1751 1.355 . S
C1750 C1752 1.415 . S
C1751 C1750 1.355 . S
C1751 C1753 1.419 . S
C1752 C1750 1.415 . S
C1752 C1757 1.425 . S
C1752 C1759 1.409 . S
C1753 H1745 0.930 . S
C1753 C1751 1.419 . S
C1753 C1754 1.362 . S
C1754 H1746 0.930 . S
C1754 C1753 1.362 . S
C1754 C1757 1.409 . S
C1755 H1747 0.930 . S
C1755 C1756 1.355 . S
C1755 C1757 1.415 . S
C1756 C1755 1.355 . S
C1756 C1758 1.419 . S
C1757 C1752 1.425 . S
C1757 C1754 1.409 . S
C1757 C1755 1.415 . S
C1758 H1748 0.930 . S
C1758 C1756 1.419 . S
C1758 C1759 1.362 . S
C1759 H1749 0.930 . S
C1759 C1752 1.409 . S
C1759 C1758 1.362 . S
H1760 C1766 0.930 . S
H1761 C1769 0.930 . S
H1762 C1770 0.930 . S
H1763 C1771 0.930 . S
H1764 C1774 0.930 . S
H1765 C1775 0.930 . S
C1766 H1760 0.930 . S
C1766 C1767 1.355 . S
C1766 C1768 1.415 . S
C1767 C1766 1.355 . S
C1767 C1769 1.419 . S
C1768 C1766 1.415 . S
C1768 C1773 1.425 . S
C1768 C1775 1.409 . S
C1769 H1761 0.930 . S
C1769 C1767 1.419 . S
C1769 C1770 1.362 . S
C1770 H1762 0.930 . S
C1770 C1769 1.362 . S
C1770 C1773 1.409 . S
C1771 H1763 0.930 . S
C1771 C1772 1.355 . S
C1771 C1773 1.415 . S
C1772 C1771 1.355 . S
C1772 C1774 1.419 . S
C1773 C1768 1.425 . S
C1773 C1770 1.409 . S
C1773 C1771 1.415 . S
C1774 H1764 0.930 . S
C1774 C1772 1.419 . S
C1774 C1775 1.362 . S
C1775 H1765 0.930 . S
C1775 C1768 1.409 . S
C1775 C1774 1.362 . S
H1776 C1782 0.930 . S
H1777 C1785 0.930 . S
H1778 C1786 0.930 . S
H1779 C1787 0.930 . S
H1780 C1790 0.930 . S
H1781 C1791 0.930 . S
C1782 H1776 0.930 . S
C1782 C1783 1.355 . S
C1782 C1784 1.415 . S
C1783 C1782 1.355 . S
C1783 C1785 1.419 . S
C1784 C1782 1.415 . S
C1784 C1789 1.425 . S
C1784 C1791 1.409 . S
C1785 H1777 0.930 . S
C1785 C1783 1.419 . S
C1785 C1786 1.362 . S
C1786 H1778 0.930 . S
C1786 C1785 1.362 . S
C1786 C1789 1.409 . S
C1787 H1779 0.930 . S
C1787 C1788 1.355 . S
C1787 C1789 1.415 . S
C1788 C1787 1.355 . S
C1788 C1790 1.419 . S
C1789 C1784 1.425 . S
C1789 C1786 1.409 . S
C1789 C1787 1.415 . S
C1790 H1780 0.930 . S
C1790 C1788 1.419 . S
C1790 C1791 1.362 . S
C1791 H1781 0.930 . S
C1791 C1784 1.409 . S
C1791 C1790 1.362 . S
H1792 C1798 0.930 . S
H1793 C1801 0.930 . S
H1794 C1802 0.930 . S
H1795 C1803 0.930 . S
H1796 C1806 0.930 . S
H1797 C1807 0.930 . S
C1798 H1792 0.930 . S
C1798 C1799 1.355 . S
C1798 C1800 1.415 . S
C1799 C1798 1.355 . S
C1799 C1801 1.419 . S
C1800 C1798 1.415 . S
C1800 C1805 1.425 . S
C1800 C1807 1.409 . S
C1801 H1793 0.930 . S
C1801 C1799 1.419 . S
C1801 C1802 1.362 . S
C1802 H1794 0.930 . S
C1802 C1801 1.362 . S
C1802 C1805 1.409 . S
C1803 H1795 0.930 . S
C1803 C1804 1.355 . S
C1803 C1805 1.415 . S
C1804 C1803 1.355 . S
C1804 C1806 1.419 . S
C1805 C1800 1.425 . S
C1805 C1802 1.409 . S
C1805 C1803 1.415 . S
C1806 H1796 0.930 . S
C1806 C1804 1.419 . S
C1806 C1807 1.362 . S
C1807 H1797 0.930 . S
C1807 C1800 1.409 . S
C1807 C1806 1.362 . S
H1808 C1814 0.930 . S
H1809 C1817 0.930 . S
H1810 C1818 0.930 . S
H1811 C1819 0.930 . S
H1812 C1822 0.930 . S
H1813 C1823 0.930 . S
C1814 H1808 0.930 . S
C1814 C1815 1.355 . S
C1814 C1816 1.415 . S
C1815 C1814 1.355 . S
C1815 C1817 1.419 . S
C1816 C1814 1.415 . S
C1816 C1821 1.425 . S
C1816 C1823 1.409 . S
C1817 H1809 0.930 . S
C1817 C1815 1.419 . S
C1817 C1818 1.362 . S
C1818 H1810 0.930 . S
C1818 C1817 1.362 . S
C1818 C1821 1.409 . S
C1819 H1811 0.930 . S
C1819 C1820 1.355 . S
C1819 C1821 1.415 . S
C1820 C1819 1.355 . S
C1820 C1822 1.419 . S
C1821 C1816 1.425 . S
C1821 C1818 1.409 . S
C1821 C1819 1.415 . S
C1822 H1812 0.930 . S
C1822 C1820 1.419 . S
C1822 C1823 1.362 . S
C1823 H1813 0.930 . S
C1823 C1816 1.409 . S
C1823 C1822 1.362 . S
H1824 C1830 0.930 . S
H1825 C1833 0.930 . S
H1826 C1834 0.930 . S
H1827 C1835 0.930 . S
H1828 C1838 0.930 . S
H1829 C1839 0.930 . S
C1830 H1824 0.930 . S
C1830 C1831 1.355 . S
C1830 C1832 1.415 . S
C1831 C1830 1.355 . S
C1831 C1833 1.419 . S
C1832 C1830 1.415 . S
C1832 C1837 1.425 . S
C1832 C1839 1.409 . S
C1833 H1825 0.930 . S
C1833 C1831 1.419 . S
C1833 C1834 1.362 . S
C1834 H1826 0.930 . S
C1834 C1833 1.362 . S
C1834 C1837 1.409 . S
C1835 H1827 0.930 . S
C1835 C1836 1.355 . S
C1835 C1837 1.415 . S
C1836 C1835 1.355 . S
C1836 C1838 1.419 . S
C1837 C1832 1.425 . S
C1837 C1834 1.409 . S
C1837 C1835 1.415 . S
C1838 H1828 0.930 . S
C1838 C1836 1.419 . S
C1838 C1839 1.362 . S
C1839 H1829 0.930 . S
C1839 C1832 1.409 . S
C1839 C1838 1.362 . S
H1840 C1846 0.930 . S
H1841 C1849 0.930 . S
H1842 C1850 0.930 . S
H1843 C1851 0.930 . S
H1844 C1854 0.930 . S
H1845 C1855 0.930 . S
C1846 H1840 0.930 . S
C1846 C1847 1.355 . S
C1846 C1848 1.415 . S
C1847 C1846 1.355 . S
C1847 C1849 1.419 . S
C1848 C1846 1.415 . S
C1848 C1853 1.425 . S
C1848 C1855 1.409 . S
C1849 H1841 0.930 . S
C1849 C1847 1.419 . S
C1849 C1850 1.362 . S
C1850 H1842 0.930 . S
C1850 C1849 1.362 . S
C1850 C1853 1.409 . S
C1851 H1843 0.930 . S
C1851 C1852 1.355 . S
C1851 C1853 1.415 . S
C1852 C1851 1.355 . S
C1852 C1854 1.419 . S
C1853 C1848 1.425 . S
C1853 C1850 1.409 . S
C1853 C1851 1.415 . S
C1854 H1844 0.930 . S
C1854 C1852 1.419 . S
C1854 C1855 1.362 . S
C1855 H1845 0.930 . S
C1855 C1848 1.409 . S
C1855 C1854 1.362 . S
H1856 C1862 0.930 . S
H1857 C1865 0.930 . S
H1858 C1866 0.930 . S
H1859 C1867 0.930 . S
H1860 C1870 0.930 . S
H1861 C1871 0.930 . S
C1862 H1856 0.930 . S
C1862 C1863 1.355 . S
C1862 C1864 1.415 . S
C1863 C1862 1.355 . S
C1863 C1865 1.419 . S
C1864 C1862 1.415 . S
C1864 C1869 1.425 . S
C1864 C1871 1.409 . S
C1865 H1857 0.930 . S
C1865 C1863 1.419 . S
C1865 C1866 1.362 . S
C1866 H1858 0.930 . S
C1866 C1865 1.362 . S
C1866 C1869 1.409 . S
C1867 H1859 0.930 . S
C1867 C1868 1.355 . S
C1867 C1869 1.415 . S
C1868 C1867 1.355 . S
C1868 C1870 1.419 . S
C1869 C1864 1.425 . S
C1869 C1866 1.409 . S
C1869 C1867 1.415 . S
C1870 H1860 0.930 . S
C1870 C1868 1.419 . S
C1870 C1871 1.362 . S
C1871 H1861 0.930 . S
C1871 C1864 1.409 . S
C1871 C1870 1.362 . S
H1872 C1878 0.930 . S
H1873 C1881 0.930 . S
H1874 C1882 0.930 . S
H1875 C1883 0.930 . S
H1876 C1886 0.930 . S
H1877 C1887 0.930 . S
C1878 H1872 0.930 . S
C1878 C1879 1.355 . S
C1878 C1880 1.415 . S
C1879 C1878 1.355 . S
C1879 C1881 1.419 . S
C1880 C1878 1.415 . S
C1880 C1885 1.425 . S
C1880 C1887 1.409 . S
C1881 H1873 0.930 . S
C1881 C1879 1.419 . S
C1881 C1882 1.362 . S
C1882 H1874 0.930 . S
C1882 C1881 1.362 . S
C1882 C1885 1.409 . S
C1883 H1875 0.930 . S
C1883 C1884 1.355 . S
C1883 C1885 1.415 . S
C1884 C1883 1.355 . S
C1884 C1886 1.419 . S
C1885 C1880 1.425 . S
C1885 C1882 1.409 . S
C1885 C1883 1.415 . S
C1886 H1876 0.930 . S
C1886 C1884 1.419 . S
C1886 C1887 1.362 . S
C1887 H1877 0.930 . S
C1887 C1880 1.409 . S
C1887 C1886 1.362 . S
H1888 C1894 0.930 . S
H1889 C1897 0.930 . S
H1890 C1898 0.930 . S
H1891 C1899 0.930 . S
H1892 C1902 0.930 . S
H1893 C1903 0.930 . S
C1894 H1888 0.930 . S
C1894 C1895 1.355 . S
C1894 C1896 1.415 . S
C1895 C1894 1.355 . S
C1895 C1897 1.419 . S
C1896 C1894 1.415 . S
C1896 C1901 1.425 . S
C1896 C1903 1.409 . S
C1897 H1889 0.930 . S
C1897 C1895 1.419 . S
C1897 C1898 1.362 . S
C1898 H1890 0.930 . S
C1898 C1897 1.362 . S
C1898 C1901 1.409 . S
C1899 H1891 0.930 . S
C1899 C1900 1.355 . S
C1899 C1901 1.415 . S
C1900 C1899 1.355 . S
C1900 C1902 1.419 . S
C1901 C1896 1.425 . S
C1901 C1898 1.409 . S
C1901 C1899 1.415 . S
C1902 H1892 0.930 . S
C1902 C1900 1.419 . S
C1902 C1903 1.362 . S
C1903 H1893 0.930 . S
C1903 C1896 1.409 . S
C1903 C1902 1.362 . S
H1904 C1910 0.930 . S
H1905 C1913 0.930 . S
H1906 C1914 0.930 . S
H1907 C1915 0.930 . S
H1908 C1918 0.930 . S
H1909 C1919 0.930 . S
C1910 H1904 0.930 . S
C1910 C1911 1.355 . S
C1910 C1912 1.415 . S
C1911 C1910 1.355 . S
C1911 C1913 1.419 . S
C1912 C1910 1.415 . S
C1912 C1917 1.425 . S
C1912 C1919 1.409 . S
C1913 H1905 0.930 . S
C1913 C1911 1.419 . S
C1913 C1914 1.362 . S
C1914 H1906 0.930 . S
C1914 C1913 1.362 . S
C1914 C1917 1.409 . S
C1915 H1907 0.930 . S
C1915 C1916 1.355 . S
C1915 C1917 1.415 . S
C1916 C1915 1.355 . S
C1916 C1918 1.419 . S
C1917 C1912 1.425 . S
C1917 C1914 1.409 . S
C1917 C1915 1.415 . S
C1918 H1908 0.930 . S
C1918 C1916 1.419 . S
C1918 C1919 1.362 . S
C1919 H1909 0.930 . S
C1919 C1912 1.409 . S
C1919 C1918 1.362 . S
H1920 C1926 0.930 . S
H1921 C1929 0.930 . S
H1922 C1930 0.930 . S
H1923 C1931 0.930 . S
H1924 C1934 0.930 . S
H1925 C1935 0.930 . S
C1926 H1920 0.930 . S
C1926 C1927 1.355 . S
C1926 C1928 1.415 . S
C1927 C1926 1.355 . S
C1927 C1929 1.419 . S
C1928 C1926 1.415 . S
C1928 C1933 1.425 . S
C1928 C1935 1.409 . S
C1929 H1921 0.930 . S
C1929 C1927 1.419 . S
C1929 C1930 1.362 . S
C1930 H1922 0.930 . S
C1930 C1929 1.362 . S
C1930 C1933 1.409 . S
C1931 H1923 0.930 . S
C1931 C1932 1.355 . S
C1931 C1933 1.415 . S
C1932 C1931 1.355 . S
C1932 C1934 1.419 . S
C1933 C1928 1.425 . S
C1933 C1930 1.409 . S
C1933 C1931 1.415 . S
C1934 H1924 0.930 . S
C1934 C1932 1.419 . S
C1934 C1935 1.362 . S
C1935 H1925 0.930 . S
C1935 C1928 1.409 . S
C1935 C1934 1.362 . S
H1936 C1942 0.930 . S
H1937 C1945 0.930 . S
H1938 C1946 0.930 . S
H1939 C1947 0.930 . S
H1940 C1950 0.930 . S
H1941 C1951 0.930 . S
C1942 H1936 0.930 . S
C1942 C1943 1.355 . S
C1942 C1944 1.415 . S
C1943 C1942 1.355 . S
C1943 C1945 1.419 . S
C1944 C1942 1.415 . S
C1944 C1949 1.425 . S
C1944 C1951 1.409 . S
C1945 H1937 0.930 . S
C1945 C1943 1.419 . S
C1945 C1946 1.362 . S
C1946 H1938 0.930 . S
C1946 C1945 1.362 . S
C1946 C1949 1.409 . S
C1947 H1939 0.930 . S
C1947 C1948 1.355 . S
C1947 C1949 1.415 . S
C1948 C1947 1.355 . S
C1948 C1950 1.419 . S
C1949 C1944 1.425 . S
C1949 C1946 1.409 . S
C1949 C1947 1.415 . S
C1950 H1940 0.930 . S
C1950 C1948 1.419 . S
C1950 C1951 1.362 . S
C1951 H1941 0.930 . S
C1951 C1944 1.409 . S
C1951 C1950 1.362 . S
H1952 C1958 0.930 . S
H1953 C1961 0.930 . S
H1954 C1962 0.930 . S
H1955 C1963 0.930 . S
H1956 C1966 0.930 . S
H1957 C1967 0.930 . S
C1958 H1952 0.930 . S
C1958 C1959 1.355 . S
C1958 C1960 1.415 . S
C1959 C1958 1.355 . S
C1959 C1961 1.419 . S
C1960 C1958 1.415 . S
C1960 C1965 1.425 . S
C1960 C1967 1.409 . S
C1961 H1953 0.930 . S
C1961 C1959 1.419 . S
C1961 C1962 1.362 . S
C1962 H1954 0.930 . S
C1962 C1961 1.362 . S
C1962 C1965 1.409 . S
C1963 H1955 0.930 . S
C1963 C1964 1.355 . S
C1963 C1965 1.415 . S
C1964 C1963 1.355 . S
C1964 C1966 1.419 . S
C1965 C1960 1.425 . S
C1965 C1962 1.409 . S
C1965 C1963 1.415 . S
C1966 H1956 0.930 . S
C1966 C1964 1.419 . S
C1966 C1967 1.362 . S
C1967 H1957 0.930 . S
C1967 C1960 1.409 . S
C1967 C1966 1.362 . S
H1968 C1974 0.930 . S
H1969 C1977 0.930 . S
H1970 C1978 0.930 . S
H1971 C1979 0.930 . S
H1972 C1982 0.930 . S
H1973 C1983 0.930 . S
C1974 H1968 0.930 . S
C1974 C1975 1.355 . S
C1974 C1976 1.415 . S
C1975 C1974 1.355 . S
C1975 C1977 1.419 . S
C1976 C1974 1.415 . S
C1976 C1981 1.425 . S
C1976 C1983 1.409 . S
C1977 H1969 0.930 . S
C1977 C1975 1.419 . S
C1977 C1978 1.362 . S
C1978 H1970 0.930 . S
C1978 C1977 1.362 . S
C1978 C1981 1.409 . S
C1979 H1971 0.930 . S
C1979 C1980 1.355 . S
C1979 C1981 1.415 . S
C1980 C1979 1.355 . S
C1980 C1982 1.419 . S
C1981 C1976 1.425 . S
C1981 C1978 1.409 . S
C1981 C1979 1.415 . S
C1982 H1972 0.930 . S
C1982 C1980 1.419 . S
C1982 C1983 1.362 . S
C1983 H1973 0.930 . S
C1983 C1976 1.409 . S
C1983 C1982 1.362 . S
H1984 C1990 0.930 . S
H1985 C1993 0.930 . S
H1986 C1994 0.930 . S
H1987 C1995 0.930 . S
H1988 C1998 0.930 . S
H1989 C1999 0.930 . S
C1990 H1984 0.930 . S
C1990 C1991 1.355 . S
C1990 C1992 1.415 . S
C1991 C1990 1.355 . S
C1991 C1993 1.419 . S
C1992 C1990 1.415 . S
C1992 C1997 1.425 . S
C1992 C1999 1.409 . S
C1993 H1985 0.930 . S
C1993 C1991 1.419 . S
C1993 C1994 1.362 . S
C1994 H1986 0.930 . S
C1994 C1993 1.362 . S
C1994 C1997 1.409 . S
C1995 H1987 0.930 . S
C1995 C1996 1.355 . S
C1995 C1997 1.415 . S
C1996 C1995 1.355 . S
C1996 C1998 1.419 . S
C1997 C1992 1.425 . S
C1997 C1994 1.409 . S
C1997 C1995 1.415 . S
C1998 H1988 0.930 . S
C1998 C1996 1.419 . S
C1998 C1999 1.362 . S
C1999 H1989 0.930 . S
C1999 C1992 1.409 . S
C1999 C1998 1.362 . S
H2000 C2006 0.930 . S
H2001 C2009 0.930 . S
H2002 C2010 0.930 . S
H2003 C2011 0.930 . S
H2004 C2014 0.930 . S
H2005 C2015 0.930 . S
C2006 H2000 0.930 . S
C2006 C2007 1.355 . S
C2006 C2008 1.415 . S
C2007 C2006 1.355 . S
C2007 C2009 1.419 . S
C2008 C2006 1.415 . S
C2008 C2013 1.425 . S
C2008 C2015 1.409 . S
C2009 H2001 0.930 . S
C2009 C2007 1.419 . S
C2009 C2010 1.362 . S
C2010 H2002 0.930 . S
C2010 C2009 1.362 . S
C2010 C2013 1.409 . S
C2011 H2003 0.930 . S
C2011 C2012 1.355 . S
C2011 C2013 1.415 . S
C2012 C2011 1.355 . S
C2012 C2014 1.419 . S
C2013 C2008 1.425 . S
C2013 C2010 1.409 . S
C2013 C2011 1.415 . S
C2014 H2004 0.930 . S
C2014 C2012 1.419 . S
C2014 C2015 1.362 . S
C2015 H2005 0.930 . S
C2015 C2008 1.409 . S
C2015 C2014 1.362 . S
H2016 C2022 0.930 . S
H2017 C2025 0.930 . S
H2018 C2026 0.930 . S
H2019 C2027 0.930 . S
H2020 C2030 0.930 . S
H2021 C2031 0.930 . S
C2022 H2016 0.930 . S
C2022 C2023 1.355 . S
C2022 C2024 1.415 . S
C2023 C2022 1.355 . S
C2023 C2025 1.419 . S
C2024 C2022 1.415 . S
C2024 C2029 1.425 . S
C2024 C2031 1.409 . S
C2025 H2017 0.930 . S
C2025 C2023 1.419 . S
C2025 C2026 1.362 . S
C2026 H2018 0.930 . S
C2026 C2025 1.362 . S
C2026 C2029 1.409 . S
C2027 H2019 0.930 . S
C2027 C2028 1.355 . S
C2027 C2029 1.415 . S
C2028 C2027 1.355 . S
C2028 C2030 1.419 . S
C2029 C2024 1.425 . S
C2029 C2026 1.409 . S
C2029 C2027 1.415 . S
C2030 H2020 0.930 . S
C2030 C2028 1.419 . S
C2030 C2031 1.362 . S
C2031 H2021 0.930 . S
C2031 C2024 1.409 . S
C2031 C2030 1.362 . S
H2032 C2038 0.930 . S
H2033 C2041 0.930 . S
H2034 C2042 0.930 . S
H2035 C2043 0.930 . S
H2036 C2046 0.930 . S
H2037 C2047 0.930 . S
C2038 H2032 0.930 . S
C2038 C2039 1.355 . S
C2038 C2040 1.415 . S
C2039 C2038 1.355 . S
C2039 C2041 1.419 . S
C2040 C2038 1.415 . S
C2040 C2045 1.425 . S
C2040 C2047 1.409 . S
C2041 H2033 0.930 . S
C2041 C2039 1.419 . S
C2041 C2042 1.362 . S
C2042 H2034 0.930 . S
C2042 C2041 1.362 . S
C2042 C2045 1.409 . S
C2043 H2035 0.930 . S
C2043 C2044 1.355 . S
C2043 C2045 1.415 . S
C2044 C2043 1.355 . S
C2044 C2046 1.419 . S
C2045 C2040 1.425 . S
C2045 C2042 1.409 . S
C2045 C2043 1.415 . S
C2046 H2036 0.930 . S
C2046 C2044 1.419 . S
C2046 C2047 1.362 . S
C2047 H2037 0.930 . S
C2047 C2040 1.409 . S
C2047 C2046 1.362 . S
H2048 C2054 0.930 . S
H2049 C2057 0.930 . S
H2050 C2058 0.930 . S
H2051 C2059 0.930 . S
H2052 C2062 0.930 . S
H2053 C2063 0.930 . S
C2054 H2048 0.930 . S
C2054 C2055 1.355 . S
C2054 C2056 1.415 . S
C2055 C2054 1.355 . S
C2055 C2057 1.419 . S
C2056 C2054 1.415 . S
C2056 C2061 1.425 . S
C2056 C2063 1.409 . S
C2057 H2049 0.930 . S
C2057 C2055 1.419 . S
C2057 C2058 1.362 . S
C2058 H2050 0.930 . S
C2058 C2057 1.362 . S
C2058 C2061 1.409 . S
C2059 H2051 0.930 . S
C2059 C2060 1.355 . S
C2059 C2061 1.415 . S
C2060 C2059 1.355 . S
C2060 C2062 1.419 . S
C2061 C2056 1.425 . S
C2061 C2058 1.409 . S
C2061 C2059 1.415 . S
C2062 H2052 0.930 . S
C2062 C2060 1.419 . S
C2062 C2063 1.362 . S
C2063 H2053 0.930 . S
C2063 C2056 1.409 . S
C2063 C2062 1.362 . S
H2064 C2070 0.930 . S
H2065 C2073 0.930 . S
H2066 C2074 0.930 . S
H2067 C2075 0.930 . S
H2068 C2078 0.930 . S
H2069 C2079 0.930 . S
C2070 H2064 0.930 . S
C2070 C2071 1.355 . S
C2070 C2072 1.415 . S
C2071 C2070 1.355 . S
C2071 C2073 1.419 . S
C2072 C2070 1.415 . S
C2072 C2077 1.425 . S
C2072 C2079 1.409 . S
C2073 H2065 0.930 . S
C2073 C2071 1.419 . S
C2073 C2074 1.362 . S
C2074 H2066 0.930 . S
C2074 C2073 1.362 . S
C2074 C2077 1.409 . S
C2075 H2067 0.930 . S
C2075 C2076 1.355 . S
C2075 C2077 1.415 . S
C2076 C2075 1.355 . S
C2076 C2078 1.419 . S
C2077 C2072 1.425 . S
C2077 C2074 1.409 . S
C2077 C2075 1.415 . S
C2078 H2068 0.930 . S
C2078 C2076 1.419 . S
C2078 C2079 1.362 . S
C2079 H2069 0.930 . S
C2079 C2072 1.409 . S
C2079 C2078 1.362 . S
H2080 C2086 0.930 . S
H2081 C2089 0.930 . S
H2082 C2090 0.930 . S
H2083 C2091 0.930 . S
H2084 C2094 0.930 . S
H2085 C2095 0.930 . S
C2086 H2080 0.930 . S
C2086 C2087 1.355 . S
C2086 C2088 1.415 . S
C2087 C2086 1.355 . S
C2087 C2089 1.419 . S
C2088 C2086 1.415 . S
C2088 C2093 1.425 . S
C2088 C2095 1.409 . S
C2089 H2081 0.930 . S
C2089 C2087 1.419 . S
C2089 C2090 1.362 . S
C2090 H2082 0.930 . S
C2090 C2089 1.362 . S
C2090 C2093 1.409 . S
C2091 H2083 0.930 . S
C2091 C2092 1.355 . S
C2091 C2093 1.415 . S
C2092 C2091 1.355 . S
C2092 C2094 1.419 . S
C2093 C2088 1.425 . S
C2093 C2090 1.409 . S
C2093 C2091 1.415 . S
C2094 H2084 0.930 . S
C2094 C2092 1.419 . S
C2094 C2095 1.362 . S
C2095 H2085 0.930 . S
C2095 C2088 1.409 . S
C2095 C2094 1.362 . S
H2096 C2102 0.930 . S
H2097 C2105 0.930 . S
H2098 C2106 0.930 . S
H2099 C2107 0.930 . S
H2100 C2110 0.930 . S
H2101 C2111 0.930 . S
C2102 H2096 0.930 . S
C2102 C2103 1.355 . S
C2102 C2104 1.415 . S
C2103 C2102 1.355 . S
C2103 C2105 1.419 . S
C2104 C2102 1.415 . S
C2104 C2109 1.425 . S
C2104 C2111 1.409 . S
C2105 H2097 0.930 . S
C2105 C2103 1.419 . S
C2105 C2106 1.362 . S
C2106 H2098 0.930 . S
C2106 C2105 1.362 . S
C2106 C2109 1.409 . S
C2107 H2099 0.930 . S
C2107 C2108 1.355 . S
C2107 C2109 1.415 . S
C2108 C2107 1.355 . S
C2108 C2110 1.419 . S
C2109 C2104 1.425 . S
C2109 C2106 1.409 . S
C2109 C2107 1.415 . S
C2110 H2100 0.930 . S
C2110 C2108 1.419 . S
C2110 C2111 1.362 . S
C2111 H2101 0.930 . S
C2111 C2104 1.409 . S
C2111 C2110 1.362 . S
H2112 C2118 0.930 . S
H2113 C2121 0.930 . S
H2114 C2122 0.930 . S
H2115 C2123 0.930 . S
H2116 C2126 0.930 . S
H2117 C2127 0.930 . S
C2118 H2112 0.930 . S
C2118 C2119 1.355 . S
C2118 C2120 1.415 . S
C2119 C2118 1.355 . S
C2119 C2121 1.419 . S
C2120 C2118 1.415 . S
C2120 C2125 1.425 . S
C2120 C2127 1.409 . S
C2121 H2113 0.930 . S
C2121 C2119 1.419 . S
C2121 C2122 1.362 . S
C2122 H2114 0.930 . S
C2122 C2121 1.362 . S
C2122 C2125 1.409 . S
C2123 H2115 0.930 . S
C2123 C2124 1.355 . S
C2123 C2125 1.415 . S
C2124 C2123 1.355 . S
C2124 C2126 1.419 . S
C2125 C2120 1.425 . S
C2125 C2122 1.409 . S
C2125 C2123 1.415 . S
C2126 H2116 0.930 . S
C2126 C2124 1.419 . S
C2126 C2127 1.362 . S
C2127 H2117 0.930 . S
C2127 C2120 1.409 . S
C2127 C2126 1.362 . S
H2128 C2134 0.930 . S
H2129 C2137 0.930 . S
H2130 C2138 0.930 . S
H2131 C2139 0.930 . S
H2132 C2142 0.930 . S
H2133 C2143 0.930 . S
C2134 H2128 0.930 . S
C2134 C2135 1.355 . S
C2134 C2136 1.415 . S
C2135 C2134 1.355 . S
C2135 C2137 1.419 . S
C2136 C2134 1.415 . S
C2136 C2141 1.425 . S
C2136 C2143 1.409 . S
C2137 H2129 0.930 . S
C2137 C2135 1.419 . S
C2137 C2138 1.362 . S
C2138 H2130 0.930 . S
C2138 C2137 1.362 . S
C2138 C2141 1.409 . S
C2139 H2131 0.930 . S
C2139 C2140 1.355 . S
C2139 C2141 1.415 . S
C2140 C2139 1.355 . S
C2140 C2142 1.419 . S
C2141 C2136 1.425 . S
C2141 C2138 1.409 . S
C2141 C2139 1.415 . S
C2142 H2132 0.930 . S
C2142 C2140 1.419 . S
C2142 C2143 1.362 . S
C2143 H2133 0.930 . S
C2143 C2136 1.409 . S
C2143 C2142 1.362 . S
H2144 C2150 0.930 . S
H2145 C2153 0.930 . S
H2146 C2154 0.930 . S
H2147 C2155 0.930 . S
H2148 C2158 0.930 . S
H2149 C2159 0.930 . S
C2150 H2144 0.930 . S
C2150 C2151 1.355 . S
C2150 C2152 1.415 . S
C2151 C2150 1.355 . S
C2151 C2153 1.419 . S
C2152 C2150 1.415 . S
C2152 C2157 1.425 . S
C2152 C2159 1.409 . S
C2153 H2145 0.930 . S
C2153 C2151 1.419 . S
C2153 C2154 1.362 . S
C2154 H2146 0.930 . S
C2154 C2153 1.362 . S
C2154 C2157 1.409 . S
C2155 H2147 0.930 . S
C2155 C2156 1.355 . S
C2155 C2157 1.415 . S
C2156 C2155 1.355 . S
C2156 C2158 1.419 . S
C2157 C2152 1.425 . S
C2157 C2154 1.409 . S
C2157 C2155 1.415 . S
C2158 H2148 0.930 . S
C2158 C2156 1.419 . S
C2158 C2159 1.362 . S
C2159 H2149 0.930 . S
C2159 C2152 1.409 . S
C2159 C2158 1.362 . S
H2160 C2166 0.930 . S
H2161 C2169 0.930 . S
H2162 C2170 0.930 . S
H2163 C2171 0.930 . S
H2164 C2174 0.930 . S
H2165 C2175 0.930 . S
C2166 H2160 0.930 . S
C2166 C2167 1.355 . S
C2166 C2168 1.415 . S
C2167 C2166 1.355 . S
C2167 C2169 1.419 . S
C2168 C2166 1.415 . S
C2168 C2173 1.425 . S
C2168 C2175 1.409 . S
C2169 H2161 0.930 . S
C2169 C2167 1.419 . S
C2169 C2170 1.362 . S
C2170 H2162 0.930 . S
C2170 C2169 1.362 . S
C2170 C2173 1.409 . S
C2171 H2163 0.930 . S
C2171 C2172 1.355 . S
C2171 C2173 1.415 . S
C2172 C2171 1.355 . S
C2172 C2174 1.419 . S
C2173 C2168 1.425 . S
C2173 C2170 1.409 . S
C2173 C2171 1.415 . S
C2174 H2164 0.930 . S
C2174 C2172 1.419 . S
C2174 C2175 1.362 . S
C2175 H2165 0.930 . S
C2175 C2168 1.409 . S
C2175 C2174 1.362 . S
H2176 C2182 0.930 . S
H2177 C2185 0.930 . S
H2178 C2186 0.930 . S
H2179 C2187 0.930 . S
H2180 C2190 0.930 . S
H2181 C2191 0.930 . S
C2182 H2176 0.930 . S
C2182 C2183 1.355 . S
C2182 C2184 1.415 . S
C2183 C2182 1.355 . S
C2183 C2185 1.419 . S
C2184 C2182 1.415 . S
C2184 C2189 1.425 . S
C2184 C2191 1.409 . S
C2185 H2177 0.930 . S
C2185 C2183 1.419 . S
C2185 C2186 1.362 . S
C2186 H2178 0.930 . S
C2186 C2185 1.362 . S
C2186 C2189 1.409 . S
C2187 H2179 0.930 . S
C2187 C2188 1.355 . S
C2187 C2189 1.415 . S
C2188 C2187 1.355 . S
C2188 C2190 1.419 . S
C2189 C2184 1.425 . S
C2189 C2186 1.409 . S
C2189 C2187 1.415 . S
C2190 H2180 0.930 . S
C2190 C2188 1.419 . S
C2190 C2191 1.362 . S
C2191 H2181 0.930 . S
C2191 C2184 1.409 . S
C2191 C2190 1.362 . S
H2192 C2198 0.930 . S
H2193 C2201 0.930 . S
H2194 C2202 0.930 . S
H2195 C2203 0.930 . S
H2196 C2206 0.930 . S
H2197 C2207 0.930 . S
C2198 H2192 0.930 . S
C2198 C2199 1.355 . S
C2198 C2200 1.415 . S
C2199 C2198 1.355 . S
C2199 C2201 1.419 . S
C2200 C2198 1.415 . S
C2200 C2205 1.425 . S
C2200 C2207 1.409 . S
C2201 H2193 0.930 . S
C2201 C2199 1.419 . S
C2201 C2202 1.362 . S
C2202 H2194 0.930 . S
C2202 C2201 1.362 . S
C2202 C2205 1.409 . S
C2203 H2195 0.930 . S
C2203 C2204 1.355 . S
C2203 C2205 1.415 . S
C2204 C2203 1.355 . S
C2204 C2206 1.419 . S
C2205 C2200 1.425 . S
C2205 C2202 1.409 . S
C2205 C2203 1.415 . S
C2206 H2196 0.930 . S
C2206 C2204 1.419 . S
C2206 C2207 1.362 . S
C2207 H2197 0.930 . S
C2207 C2200 1.409 . S
C2207 C2206 1.362 . S
C679 C42 1.498 . S
C684 C1 1.498 . S
C695 C13 1.496 . S
C700 C26 1.496 . S
C711 C28 1.486 . S
C716 C15 1.486 . S
C727 C40 1.495 . S
C732 C55 1.495 . S
C743 C56 1.488 . S
C748 C71 1.488 . S
C759 C96 1.498 . S
C764 C83 1.498 . S
C775 C85 1.495 . S
C780 C98 1.495 . S
C791 C69 1.493 . S
C796 C110 1.493 . S
C807 C125 1.489 . S
C812 C264 1.489 . S
C823 C278 1.488 . S
C828 C139 1.488 . S
C839 C292 1.494 . S
C844 C153 1.494 . S
C855 C250 1.489 . S
C860 C167 1.489 . S
C871 C321 1.494 . S
C876 C180 1.494 . S
C887 C194 1.490 . S
C892 C237 1.490 . S
C903 C335 1.492 . S
C908 C208 1.492 . S
C919 C222 1.491 . S
C924 C307 1.491 . S
C935 C225 1.487 . S
C940 C126 1.487 . S
C951 C239 1.487 . S
C956 C210 1.487 . S
C967 C168 1.497 . S
C972 C253 1.497 . S
C983 C183 1.486 . S
C988 C266 1.486 . S
C999 C197 1.497 . S
C1004 C280 1.497 . S
C1015 C155 1.486 . S
C1020 C294 1.486 . S
C1031 C113 1.489 . S
C1036 C308 1.489 . S
C1047 C323 1.487 . S
C1052 C140 1.487 . S
C1063 C378 1.498 . S
C1068 C337 1.498 . S
C1079 C349 1.486 . S
C1084 C362 1.486 . S
C1095 C364 1.492 . S
C1100 C351 1.492 . S
C1111 C376 1.492 . S
C1116 C391 1.492 . S
C1127 C407 1.495 . S
C1132 C392 1.495 . S
C1143 C419 1.488 . S
C1148 C432 1.488 . S
C1159 C434 1.498 . S
C1164 C421 1.498 . S
C1175 C405 1.486 . S
C1180 C446 1.486 . S
C1191 C600 1.498 . S
C1196 C461 1.498 . S
C1207 C475 1.495 . S
C1212 C614 1.495 . S
C1223 C628 1.487 . S
C1228 C489 1.487 . S
C1239 C503 1.489 . S
C1244 C586 1.489 . S
C1255 C516 1.487 . S
C1260 C657 1.487 . S
C1271 C573 1.498 . S
C1276 C530 1.498 . S
C1287 C671 1.497 . S
C1292 C544 1.497 . S
C1303 C643 1.498 . S
C1308 C558 1.498 . S
C1319 C462 1.498 . S
C1324 C561 1.498 . S
C1335 C546 1.497 . S
C1340 C575 1.497 . S
C1351 C589 1.489 . S
C1356 C504 1.489 . S
C1367 C602 1.494 . S
C1372 C519 1.494 . S
C1383 C533 1.495 . S
C1388 C616 1.495 . S
C1399 C630 1.498 . S
C1404 C491 1.498 . S
C1415 C644 1.495 . S
C1420 C449 1.495 . S
C1431 C659 1.492 . S
C1436 C476 1.492 . S
C1447 C0 1.497 . S
C1452 C617 1.495 . S
C1463 C27 1.487 . S
C1468 C574 1.490 . S
C1479 C29 1.487 . S
C1484 C588 1.496 . S
C1495 C54 1.488 . S
C1500 C603 1.489 . S
C1511 C57 1.487 . S
C1516 C658 1.497 . S
C1527 C82 1.495 . S
C1532 C631 1.486 . S
C1543 C84 1.487 . S
C1548 C645 1.490 . S
C1559 C560 1.491 . S
C1564 C111 1.487 . S
C1575 C124 1.498 . S
C1580 C559 1.490 . S
C1591 C517 1.489 . S
C1596 C138 1.498 . S
C1607 C152 1.496 . S
C1612 C531 1.497 . S
C1623 C166 1.487 . S
C1628 C545 1.495 . S
C1639 C181 1.490 . S
C1644 C474 1.498 . S
C1655 C195 1.492 . S
C1660 C488 1.498 . S
C1671 C502 1.496 . S
C1676 C209 1.487 . S
C1687 C223 1.489 . S
C1692 C460 1.498 . S
C1703 C224 1.496 . S
C1708 C447 1.496 . S
C1719 C238 1.486 . S
C1724 C363 1.491 . S
C1735 C252 1.490 . S
C1740 C365 1.487 . S
C1751 C267 1.491 . S
C1756 C390 1.486 . S
C1767 C336 1.486 . S
C1772 C281 1.495 . S
C1783 C295 1.491 . S
C1788 C418 1.498 . S
C1799 C420 1.497 . S
C1804 C309 1.496 . S
C1815 C393 1.486 . S
C1820 C322 1.494 . S
C1831 C448 1.498 . S
C1836 C99 1.492 . S
C1847 C68 1.491 . S
C1852 C463 1.498 . S
C1863 C477 1.488 . S
C1868 C70 1.497 . S
C1879 C490 1.498 . S
C1884 C97 1.493 . S
C1895 C505 1.496 . S
C1900 C14 1.497 . S
C1911 C41 1.498 . S
C1916 C518 1.491 . S
C1927 C532 1.495 . S
C1932 C43 1.486 . S
C1943 C547 1.488 . S
C1948 C12 1.489 . S
C1959 C572 1.489 . S
C1964 C293 1.487 . S
C1975 C251 1.497 . S
C1980 C670 1.496 . S
C1991 C265 1.489 . S
C1996 C642 1.498 . S
C2007 C656 1.496 . S
C2012 C279 1.487 . S
C2023 C587 1.491 . S
C2028 C334 1.486 . S
C2039 C601 1.486 . S
C2044 C306 1.491 . S
C2055 C320 1.497 . S
C2060 C615 1.496 . S
C2071 C629 1.498 . S
C2076 C236 1.493 . S
C2087 C348 1.497 . S
C2092 C211 1.496 . S
C2103 C404 1.498 . S
C2108 C127 1.494 . S
C2119 C406 1.486 . S
C2124 C141 1.494 . S
C2135 C154 1.487 . S
C2140 C433 1.491 . S
C2151 C112 1.499 . S
C2156 C435 1.491 . S
C2167 C377 1.498 . S
C2172 C182 1.490 . S
C2183 C196 1.493 . S
C2188 C379 1.486 . S
C2199 C350 1.496 . S
C2204 C169 1.487 . S
