# Generated by pormake.
# Topology wip, (6)-cn, num edge types: 1
# Building blocks:
#     Node 0, Type 0, BuildingBlock: PAMTUU_clean_sbu_0, # of connection points: 6
#     Node 1, Type 0, BuildingBlock: PAMTUU_clean_sbu_0, # of connection points: 6
#     Node 2, Type 0, BuildingBlock: PAMTUU_clean_sbu_0, # of connection points: 6
#     Node 3, Type 0, BuildingBlock: PAMTUU_clean_sbu_0, # of connection points: 6
#     Node 4, Type 0, BuildingBlock: PAMTUU_clean_sbu_0, # of connection points: 6
#     Node 5, Type 0, BuildingBlock: PAMTUU_clean_sbu_0, # of connection points: 6
#     Node 6, Type 0, BuildingBlock: PAMTUU_clean_sbu_0, # of connection points: 6
#     Node 7, Type 0, BuildingBlock: PAMTUU_clean_sbu_0, # of connection points: 6
#     Node 8, Type 0, BuildingBlock: PAMTUU_clean_sbu_0, # of connection points: 6
#     Node 9, Type 0, BuildingBlock: PAMTUU_clean_sbu_0, # of connection points: 6
#     Node 10, Type 0, BuildingBlock: PAMTUU_clean_sbu_0, # of connection points: 6
#     Node 11, Type 0, BuildingBlock: PAMTUU_clean_sbu_0, # of connection points: 6
#     Node 12, Type 0, BuildingBlock: PAMTUU_clean_sbu_0, # of connection points: 6
#     Node 13, Type 0, BuildingBlock: PAMTUU_clean_sbu_0, # of connection points: 6
#     Node 14, Type 0, BuildingBlock: PAMTUU_clean_sbu_0, # of connection points: 6
#     Node 15, Type 0, BuildingBlock: PAMTUU_clean_sbu_0, # of connection points: 6
#     Node 16, Type 0, BuildingBlock: PAMTUU_clean_sbu_0, # of connection points: 6
#     Node 17, Type 0, BuildingBlock: PAMTUU_clean_sbu_0, # of connection points: 6
#     Node 18, Type 0, BuildingBlock: PAMTUU_clean_sbu_0, # of connection points: 6
#     Node 19, Type 0, BuildingBlock: PAMTUU_clean_sbu_0, # of connection points: 6
#     Node 20, Type 0, BuildingBlock: PAMTUU_clean_sbu_0, # of connection points: 6
#     Node 21, Type 0, BuildingBlock: PAMTUU_clean_sbu_0, # of connection points: 6
#     Node 22, Type 0, BuildingBlock: PAMTUU_clean_sbu_0, # of connection points: 6
#     Node 23, Type 0, BuildingBlock: PAMTUU_clean_sbu_0, # of connection points: 6
#     Node 24, Type 0, BuildingBlock: PAMTUU_clean_sbu_0, # of connection points: 6
#     Node 25, Type 0, BuildingBlock: PAMTUU_clean_sbu_0, # of connection points: 6
#     Node 26, Type 0, BuildingBlock: PAMTUU_clean_sbu_0, # of connection points: 6
#     Node 27, Type 0, BuildingBlock: PAMTUU_clean_sbu_0, # of connection points: 6
#     Node 28, Type 0, BuildingBlock: PAMTUU_clean_sbu_0, # of connection points: 6
#     Node 29, Type 0, BuildingBlock: PAMTUU_clean_sbu_0, # of connection points: 6
#     Node 30, Type 0, BuildingBlock: PAMTUU_clean_sbu_0, # of connection points: 6
#     Node 31, Type 0, BuildingBlock: PAMTUU_clean_sbu_0, # of connection points: 6
#     Edge 32, Type (0, 0), BuildingBlock: OJICUG_clean_linker_0, # of connection points: 2
#     Edge 33, Type (0, 0), BuildingBlock: OJICUG_clean_linker_0, # of connection points: 2
#     Edge 34, Type (0, 0), BuildingBlock: OJICUG_clean_linker_0, # of connection points: 2
#     Edge 35, Type (0, 0), BuildingBlock: OJICUG_clean_linker_0, # of connection points: 2
#     Edge 36, Type (0, 0), BuildingBlock: OJICUG_clean_linker_0, # of connection points: 2
#     Edge 37, Type (0, 0), BuildingBlock: OJICUG_clean_linker_0, # of connection points: 2
#     Edge 38, Type (0, 0), BuildingBlock: OJICUG_clean_linker_0, # of connection points: 2
#     Edge 39, Type (0, 0), BuildingBlock: OJICUG_clean_linker_0, # of connection points: 2
#     Edge 40, Type (0, 0), BuildingBlock: OJICUG_clean_linker_0, # of connection points: 2
#     Edge 41, Type (0, 0), BuildingBlock: OJICUG_clean_linker_0, # of connection points: 2
#     Edge 42, Type (0, 0), BuildingBlock: OJICUG_clean_linker_0, # of connection points: 2
#     Edge 43, Type (0, 0), BuildingBlock: OJICUG_clean_linker_0, # of connection points: 2
#     Edge 44, Type (0, 0), BuildingBlock: OJICUG_clean_linker_0, # of connection points: 2
#     Edge 45, Type (0, 0), BuildingBlock: OJICUG_clean_linker_0, # of connection points: 2
#     Edge 46, Type (0, 0), BuildingBlock: OJICUG_clean_linker_0, # of connection points: 2
#     Edge 47, Type (0, 0), BuildingBlock: OJICUG_clean_linker_0, # of connection points: 2
#     Edge 48, Type (0, 0), BuildingBlock: OJICUG_clean_linker_0, # of connection points: 2
#     Edge 49, Type (0, 0), BuildingBlock: OJICUG_clean_linker_0, # of connection points: 2
#     Edge 50, Type (0, 0), BuildingBlock: OJICUG_clean_linker_0, # of connection points: 2
#     Edge 51, Type (0, 0), BuildingBlock: OJICUG_clean_linker_0, # of connection points: 2
#     Edge 52, Type (0, 0), BuildingBlock: OJICUG_clean_linker_0, # of connection points: 2
#     Edge 53, Type (0, 0), BuildingBlock: OJICUG_clean_linker_0, # of connection points: 2
#     Edge 54, Type (0, 0), BuildingBlock: OJICUG_clean_linker_0, # of connection points: 2
#     Edge 55, Type (0, 0), BuildingBlock: OJICUG_clean_linker_0, # of connection points: 2
#     Edge 56, Type (0, 0), BuildingBlock: OJICUG_clean_linker_0, # of connection points: 2
#     Edge 57, Type (0, 0), BuildingBlock: OJICUG_clean_linker_0, # of connection points: 2
#     Edge 58, Type (0, 0), BuildingBlock: OJICUG_clean_linker_0, # of connection points: 2
#     Edge 59, Type (0, 0), BuildingBlock: OJICUG_clean_linker_0, # of connection points: 2
#     Edge 60, Type (0, 0), BuildingBlock: OJICUG_clean_linker_0, # of connection points: 2
#     Edge 61, Type (0, 0), BuildingBlock: OJICUG_clean_linker_0, # of connection points: 2
#     Edge 62, Type (0, 0), BuildingBlock: OJICUG_clean_linker_0, # of connection points: 2
#     Edge 63, Type (0, 0), BuildingBlock: OJICUG_clean_linker_0, # of connection points: 2
#     Edge 64, Type (0, 0), BuildingBlock: OJICUG_clean_linker_0, # of connection points: 2
#     Edge 65, Type (0, 0), BuildingBlock: OJICUG_clean_linker_0, # of connection points: 2
#     Edge 66, Type (0, 0), BuildingBlock: OJICUG_clean_linker_0, # of connection points: 2
#     Edge 67, Type (0, 0), BuildingBlock: OJICUG_clean_linker_0, # of connection points: 2
#     Edge 68, Type (0, 0), BuildingBlock: OJICUG_clean_linker_0, # of connection points: 2
#     Edge 69, Type (0, 0), BuildingBlock: OJICUG_clean_linker_0, # of connection points: 2
#     Edge 70, Type (0, 0), BuildingBlock: OJICUG_clean_linker_0, # of connection points: 2
#     Edge 71, Type (0, 0), BuildingBlock: OJICUG_clean_linker_0, # of connection points: 2
#     Edge 72, Type (0, 0), BuildingBlock: OJICUG_clean_linker_0, # of connection points: 2
#     Edge 73, Type (0, 0), BuildingBlock: OJICUG_clean_linker_0, # of connection points: 2
#     Edge 74, Type (0, 0), BuildingBlock: OJICUG_clean_linker_0, # of connection points: 2
#     Edge 75, Type (0, 0), BuildingBlock: OJICUG_clean_linker_0, # of connection points: 2
#     Edge 76, Type (0, 0), BuildingBlock: OJICUG_clean_linker_0, # of connection points: 2
#     Edge 77, Type (0, 0), BuildingBlock: OJICUG_clean_linker_0, # of connection points: 2
#     Edge 78, Type (0, 0), BuildingBlock: OJICUG_clean_linker_0, # of connection points: 2
#     Edge 79, Type (0, 0), BuildingBlock: OJICUG_clean_linker_0, # of connection points: 2
#     Edge 80, Type (0, 0), BuildingBlock: OJICUG_clean_linker_0, # of connection points: 2
#     Edge 81, Type (0, 0), BuildingBlock: OJICUG_clean_linker_0, # of connection points: 2
#     Edge 82, Type (0, 0), BuildingBlock: OJICUG_clean_linker_0, # of connection points: 2
#     Edge 83, Type (0, 0), BuildingBlock: OJICUG_clean_linker_0, # of connection points: 2
#     Edge 84, Type (0, 0), BuildingBlock: OJICUG_clean_linker_0, # of connection points: 2
#     Edge 85, Type (0, 0), BuildingBlock: OJICUG_clean_linker_0, # of connection points: 2
#     Edge 86, Type (0, 0), BuildingBlock: OJICUG_clean_linker_0, # of connection points: 2
#     Edge 87, Type (0, 0), BuildingBlock: OJICUG_clean_linker_0, # of connection points: 2
#     Edge 88, Type (0, 0), BuildingBlock: OJICUG_clean_linker_0, # of connection points: 2
#     Edge 89, Type (0, 0), BuildingBlock: OJICUG_clean_linker_0, # of connection points: 2
#     Edge 90, Type (0, 0), BuildingBlock: OJICUG_clean_linker_0, # of connection points: 2
#     Edge 91, Type (0, 0), BuildingBlock: OJICUG_clean_linker_0, # of connection points: 2
#     Edge 92, Type (0, 0), BuildingBlock: OJICUG_clean_linker_0, # of connection points: 2
#     Edge 93, Type (0, 0), BuildingBlock: OJICUG_clean_linker_0, # of connection points: 2
#     Edge 94, Type (0, 0), BuildingBlock: OJICUG_clean_linker_0, # of connection points: 2
#     Edge 95, Type (0, 0), BuildingBlock: OJICUG_clean_linker_0, # of connection points: 2
#     Edge 96, Type (0, 0), BuildingBlock: OJICUG_clean_linker_0, # of connection points: 2
#     Edge 97, Type (0, 0), BuildingBlock: OJICUG_clean_linker_0, # of connection points: 2
#     Edge 98, Type (0, 0), BuildingBlock: OJICUG_clean_linker_0, # of connection points: 2
#     Edge 99, Type (0, 0), BuildingBlock: OJICUG_clean_linker_0, # of connection points: 2
#     Edge 100, Type (0, 0), BuildingBlock: OJICUG_clean_linker_0, # of connection points: 2
#     Edge 101, Type (0, 0), BuildingBlock: OJICUG_clean_linker_0, # of connection points: 2
#     Edge 102, Type (0, 0), BuildingBlock: OJICUG_clean_linker_0, # of connection points: 2
#     Edge 103, Type (0, 0), BuildingBlock: OJICUG_clean_linker_0, # of connection points: 2
#     Edge 104, Type (0, 0), BuildingBlock: OJICUG_clean_linker_0, # of connection points: 2
#     Edge 105, Type (0, 0), BuildingBlock: OJICUG_clean_linker_0, # of connection points: 2
#     Edge 106, Type (0, 0), BuildingBlock: OJICUG_clean_linker_0, # of connection points: 2
#     Edge 107, Type (0, 0), BuildingBlock: OJICUG_clean_linker_0, # of connection points: 2
#     Edge 108, Type (0, 0), BuildingBlock: OJICUG_clean_linker_0, # of connection points: 2
#     Edge 109, Type (0, 0), BuildingBlock: OJICUG_clean_linker_0, # of connection points: 2
#     Edge 110, Type (0, 0), BuildingBlock: OJICUG_clean_linker_0, # of connection points: 2
#     Edge 111, Type (0, 0), BuildingBlock: OJICUG_clean_linker_0, # of connection points: 2
#     Edge 112, Type (0, 0), BuildingBlock: OJICUG_clean_linker_0, # of connection points: 2
#     Edge 113, Type (0, 0), BuildingBlock: OJICUG_clean_linker_0, # of connection points: 2
#     Edge 114, Type (0, 0), BuildingBlock: OJICUG_clean_linker_0, # of connection points: 2
#     Edge 115, Type (0, 0), BuildingBlock: OJICUG_clean_linker_0, # of connection points: 2
#     Edge 116, Type (0, 0), BuildingBlock: OJICUG_clean_linker_0, # of connection points: 2
#     Edge 117, Type (0, 0), BuildingBlock: OJICUG_clean_linker_0, # of connection points: 2
#     Edge 118, Type (0, 0), BuildingBlock: OJICUG_clean_linker_0, # of connection points: 2
#     Edge 119, Type (0, 0), BuildingBlock: OJICUG_clean_linker_0, # of connection points: 2
#     Edge 120, Type (0, 0), BuildingBlock: OJICUG_clean_linker_0, # of connection points: 2
#     Edge 121, Type (0, 0), BuildingBlock: OJICUG_clean_linker_0, # of connection points: 2
#     Edge 122, Type (0, 0), BuildingBlock: OJICUG_clean_linker_0, # of connection points: 2
#     Edge 123, Type (0, 0), BuildingBlock: OJICUG_clean_linker_0, # of connection points: 2
#     Edge 124, Type (0, 0), BuildingBlock: OJICUG_clean_linker_0, # of connection points: 2
#     Edge 125, Type (0, 0), BuildingBlock: OJICUG_clean_linker_0, # of connection points: 2
#     Edge 126, Type (0, 0), BuildingBlock: OJICUG_clean_linker_0, # of connection points: 2
#     Edge 127, Type (0, 0), BuildingBlock: OJICUG_clean_linker_0, # of connection points: 2
# Relax obj value: 0.485
# Max RMSD: 0.326
# Mean RMSD: 0.252
data_MOF--net-wip--node1-PAMTUU_clean_sbu_0--edge1-OJICUG_clean_linker_0
_symmetry_space_group_name_H-M    P1
_symmetry_Int_Tables_number       1
_symmetry_cell_setting            triclinic
loop_
_symmetry_equiv_pos_as_xyz
'x, y, z'
_cell_length_a     47.532541
_cell_length_b     47.034975
_cell_length_c     26.986403
_cell_angle_alpha  101.34897
_cell_angle_beta   89.416943
_cell_angle_gamma 90.032725
loop_
_atom_site_label
_atom_site_type_symbol
_atom_site_fract_x
_atom_site_fract_y
_atom_site_fract_z
_atom_type_partial_charge
Tb0 Tb 0.08563 0.46228 0.31537 0.0
Tb1 Tb 0.05815 0.40471 0.24557 0.0
C2 C 0.03258 0.46747 0.24967 0.0
C3 C 0.12529 0.51012 0.41514 0.0
C4 C 0.13284 0.52916 0.51836 0.0
C5 C 0.14102 0.54691 0.48452 0.0
C6 C 0.13701 0.53745 0.43287 0.0
C7 C 0.12121 0.4908 0.44794 0.0
C8 C 0.12514 0.50024 0.49953 0.0
C9 C 0.11226 0.50423 0.36576 0.0
O10 O 0.05913 0.44361 0.36798 0.0
O11 O 0.02955 0.41599 0.31023 0.0
O12 O 0.07948 0.39007 0.30891 0.0
O13 O 0.11226 0.4252 0.31823 0.0
O14 O 0.02341 0.38035 0.21427 0.0
O15 O 0.06574 0.36414 0.19847 0.0
O16 O 0.08874 0.42164 0.19613 0.0
O17 O 0.09169 0.46858 0.23849 0.0
O18 O 0.04593 0.47745 0.29182 0.0
O19 O 0.03689 0.44116 0.2231 0.0
C20 C 0.0359 0.42824 0.35699 0.0
O21 O 0.12401 0.48398 0.332 0.0
O22 O 0.08495 0.50163 0.36701 0.0
C23 C 0.10224 0.40188 0.33148 0.0
C24 C 0.03347 0.35657 0.13147 0.0
C25 C 0.02132 0.34972 1.02762 0.0
C26 C 0.01489 0.32753 0.05415 0.0
C27 C 0.02105 0.3309 0.10571 0.0
C28 C 0.0395 0.37885 0.10529 0.0
C29 C 0.03368 0.37541 0.05387 0.0
C30 C 0.03925 0.36093 0.18592 0.0
C31 C 0.09421 0.44924 0.1966 0.0
H32 H 0.14741 0.56916 0.49838 0.0
H33 H 0.14046 0.55242 0.4076 0.0
H34 H 0.1121 0.4696 0.43442 0.0
H35 H 0.11868 0.48613 0.5248 0.0
H36 H 0.00542 0.30748 1.03491 0.0
H37 H 0.016 0.31359 0.12547 0.0
H38 H 0.04845 0.39907 0.12488 0.0
H39 H 0.0384 0.39312 1.03484 0.0
Tb40 Tb 0.77541 0.85483 0.44304 0.0
Tb41 Tb 0.82841 0.82054 0.37558 0.0
C42 C 0.77228 0.79001 0.39334 0.0
C43 C 0.73718 0.89185 0.55386 0.0
C44 C 0.73921 0.91367 0.65836 0.0
C45 C 0.716 0.91979 0.6302 0.0
C46 C 0.71507 0.90903 0.57803 0.0
C47 C 0.76035 0.88594 0.58184 0.0
C48 C 0.76144 0.89681 0.63351 0.0
C49 C 0.73673 0.88003 0.49956 0.0
O50 O 0.79557 0.82838 0.4922 0.0
O51 O 0.83277 0.80419 0.445 0.0
O52 O 0.8488 0.85021 0.44027 0.0
O53 O 0.81222 0.88124 0.46535 0.0
O54 O 0.85254 0.78448 0.3416 0.0
O55 O 0.85821 0.82583 0.31949 0.0
O56 O 0.7958 0.83063 0.32399 0.0
O57 O 0.76923 0.86715 0.36974 0.0
O58 O 0.7599 0.8152 0.39669 0.0
O59 O 0.7992 0.78681 0.3833 0.0
C60 C 0.8172 0.81011 0.48664 0.0
O61 O 0.75329 0.89315 0.47251 0.0
O62 O 0.73936 0.85192 0.48721 0.0
C63 C 0.83711 0.8714 0.47395 0.0
C64 C 0.8572 0.78341 0.25419 0.0
C65 C 0.84585 0.75376 0.15351 0.0
C66 C 0.87364 0.761 0.16943 0.0
C67 C 0.87921 0.77563 0.21909 0.0
C68 C 0.8295 0.77628 0.23852 0.0
C69 C 0.82389 0.76178 0.18898 0.0
C70 C 0.86287 0.79782 0.30747 0.0
C71 C 0.77646 0.85084 0.32629 0.0
H72 H 0.69854 0.93263 0.64858 0.0
H73 H 0.69707 0.91382 0.55676 0.0
H74 H 0.77748 0.87252 0.56375 0.0
H75 H 0.77925 0.89108 0.6543 0.0
H76 H 0.89124 0.75494 0.14375 0.0
H77 H 0.90078 0.78059 0.23021 0.0
H78 H 0.81209 0.7817 0.26484 0.0
H79 H 0.8022 0.75713 0.17844 0.0
Tb80 Tb 0.4028 0.5325 0.66433 0.0
Tb81 Tb 0.43846 0.58603 0.63583 0.0
C82 C 0.46587 0.52636 0.63698 0.0
C83 C 0.35906 0.48662 0.72821 0.0
C84 C 0.34101 0.48182 0.82542 0.0
C85 C 0.35065 0.45721 0.79096 0.0
C86 C 0.35981 0.45967 0.74269 0.0
C87 C 0.34694 0.51052 0.76077 0.0
C88 C 0.338 0.50818 0.80905 0.0
C89 C 0.37406 0.49071 0.68249 0.0
O90 O 0.43012 0.54752 0.73116 0.0
O91 O 0.45404 0.58722 0.71146 0.0
O92 O 0.40908 0.60748 0.69828 0.0
O93 O 0.38404 0.56857 0.71623 0.0
O94 O 0.47408 0.61069 0.62499 0.0
O95 O 0.43439 0.61771 0.59075 0.0
O96 O 0.43007 0.5533 0.56717 0.0
O97 O 0.38824 0.53749 0.58939 0.0
O98 O 0.44099 0.51508 0.62549 0.0
O99 O 0.47011 0.55422 0.64129 0.0
C100 C 0.44831 0.56941 0.74253 0.0
O101 O 0.36409 0.511 0.66084 0.0
O102 O 0.40141 0.49204 0.6862 0.0
C103 C 0.3916 0.59588 0.72804 0.0
C104 C 0.47625 0.61637 0.5391 0.0
C105 C 0.50382 0.60209 0.44248 0.0
C106 C 0.47455 0.60716 0.44653 0.0
C107 C 0.461 0.61416 0.494 0.0
C108 C 0.50559 0.61191 0.53506 0.0
C109 C 0.51911 0.60479 0.48763 0.0
C110 C 0.46174 0.62157 0.58986 0.0
C111 C 0.40656 0.53963 0.55382 0.0
H112 H 0.35276 0.43651 0.80244 0.0
H113 H 0.36894 0.44097 0.71784 0.0
H114 H 0.34591 0.53145 0.75 0.0
H115 H 0.3309 0.52758 0.83472 0.0
H116 H 0.46188 0.60508 0.4129 0.0
H117 H 0.43842 0.61737 0.49524 0.0
H118 H 0.51817 0.61354 0.56874 0.0
H119 H 0.54168 0.60159 0.48643 0.0
Tb120 Tb 0.70927 0.15801 0.04717 0.0
Tb121 Tb 0.65221 0.18505 1.00874 0.0
C122 C 0.71216 0.21251 0.99514 0.0
C123 C 0.75666 0.11714 0.11328 0.0
C124 C 0.77252 0.10926 0.2084 0.0
C125 C 0.79188 0.10358 0.16792 0.0
C126 C 0.78397 0.1078 0.12035 0.0
C127 C 0.73628 0.1183 0.15147 0.0
C128 C 0.74414 0.11409 0.19897 0.0
C129 C 0.75093 0.13092 0.07081 0.0
O130 O 0.69356 0.18771 0.11463 0.0
O131 O 0.66344 0.21575 0.07729 0.0
O132 O 0.63893 0.16552 0.0735 0.0
O133 O 0.67469 0.13333 0.07212 0.0
O134 O 0.62661 0.21979 0.99947 0.0
O135 O 0.61287 0.17553 0.97425 0.0
O136 O 0.66837 0.15447 0.94136 0.0
O137 O 0.71369 0.14964 0.96536 0.0
O138 O 0.72331 0.19837 1.02761 0.0
O139 O 0.68614 0.20817 0.97915 0.0
C140 C 0.67705 0.21055 0.11689 0.0
O141 O 0.73123 0.11882 0.04048 0.0
O142 O 0.74813 0.15909 0.08291 0.0
C143 C 0.6511 0.14489 0.09237 0.0
C144 C 0.60375 0.20906 0.92205 0.0
C145 C 0.59717 0.22549 0.82782 0.0
C146 C 0.57398 0.2258 0.86086 0.0
C147 C 0.57729 0.21771 0.90782 0.0
C148 C 0.62664 0.20793 0.88856 0.0
C149 C 0.62339 0.21595 0.84195 0.0
C150 C 0.60839 0.20276 0.97256 0.0
C151 C 0.69493 0.14784 0.92982 0.0
H152 H 0.81385 0.09961 0.17461 0.0
H153 H 0.79979 0.10663 0.09082 0.0
H154 H 0.71513 0.12563 0.14624 0.0
H155 H 0.7289 0.11864 0.22965 0.0
H156 H 0.55352 0.23304 0.85104 0.0
H157 H 0.55941 0.21875 0.93333 0.0
H158 H 0.64724 0.20137 0.89897 0.0
H159 H 0.64154 0.2148 0.81701 0.0
Tb160 Tb 0.08 0.57272 0.83113 0.0
Tb161 Tb 0.04049 0.61888 0.7778 0.0
C162 C 0.10397 0.62513 0.78702 0.0
C163 C 0.1028 0.52677 0.92726 0.0
C164 C 0.10234 0.49928 1.01342 0.0
C165 C 0.12127 0.52194 1.00975 0.0
C166 C 0.12153 0.53534 0.96747 0.0
C167 C 0.08381 0.50412 0.93067 0.0
C168 C 0.08357 0.49065 0.97303 0.0
C169 C 0.10536 0.53961 0.8805 0.0
O170 O 0.05798 0.60376 0.88911 0.0
O171 O 0.019 0.61241 0.84632 0.0
O172 O 0.0268 0.5765 0.74314 0.0
O173 O 0.04006 0.55141 0.80489 0.0
O174 O 0.039 0.65977 0.75782 0.0
O175 O 0.00219 0.63278 0.75205 0.0
O176 O 0.06469 0.59403 0.7149 0.0
O177 O 0.09027 0.56072 0.75094 0.0
O178 O 0.11011 0.59946 0.79691 0.0
O179 O 0.08037 0.63714 0.80655 0.0
C180 C 0.0308 0.60816 0.8879 0.0
O181 O 0.08813 0.5306 0.84334 0.0
O182 O 0.11001 0.56746 0.88604 0.0
C183 C 0.02611 0.55337 0.76337 0.0
C184 C 0.00852 0.66091 0.68987 0.0
C185 C 0.99704 0.66761 0.59047 0.0
C186 C 0.97815 0.67821 0.63031 0.0
C187 C 0.98387 0.67489 0.67956 0.0
C188 C 0.0277 0.65071 0.65047 0.0
C189 C 0.02206 0.65413 0.60121 0.0
C190 C 0.01337 0.65611 0.74132 0.0
C191 C 0.08257 0.57208 0.71197 0.0
H192 H 0.13645 0.52907 1.03923 0.0
H193 H 0.13685 0.5522 0.96589 0.0
H194 H 0.06924 0.49655 0.90035 0.0
H195 H 0.06842 0.4736 0.97428 0.0
H196 H 0.95884 0.68895 0.62336 0.0
H197 H 0.96884 0.68288 0.70951 0.0
H198 H 0.04678 0.63967 0.65763 0.0
H199 H 0.03687 0.64541 0.57131 0.0
Tb200 Tb 0.7122 0.85115 1.03135 0.0
Tb201 Tb 0.66164 0.81299 0.0694 0.0
C202 C 0.71948 0.78624 1.03184 0.0
C203 C 0.75133 0.89648 0.95975 0.0
C204 C 0.74811 0.91812 0.86994 0.0
C205 C 0.77218 0.90298 0.88045 0.0
C206 C 0.77374 0.89225 0.92503 0.0
C207 C 0.72808 0.9132 0.95087 0.0
C208 C 0.72652 0.92398 0.90642 0.0
C209 C 0.75074 0.88057 1.00148 0.0
O210 O 0.69533 0.82391 0.96111 0.0
O211 O 0.65795 0.79857 0.98818 0.0
O212 O 0.6391 0.84398 1.03098 0.0
O213 O 0.67527 0.87273 1.01127 0.0
O214 O 0.6388 0.77573 0.07613 0.0
O215 O 0.63176 0.81627 0.12855 0.0
O216 O 0.69406 0.82272 0.12798 0.0
O217 O 0.71113 0.86521 0.11388 0.0
O218 O 0.73012 0.812 0.04863 0.0
O219 O 0.69261 0.7813 1.03689 0.0
C220 C 0.67411 0.80518 0.95191 0.0
O221 O 0.73364 0.89067 1.0389 0.0
O222 O 0.74899 0.85243 0.9879 0.0
C223 C 0.64903 0.86411 1.00712 0.0
C224 C 0.63477 0.77351 0.16236 0.0
C225 C 0.64844 0.7456 0.24339 0.0
C226 C 0.6204 0.75337 0.23532 0.0
C227 C 0.61366 0.76719 0.19524 0.0
C228 C 0.66272 0.76589 0.17039 0.0
C229 C 0.66947 0.75218 0.21032 0.0
C230 C 0.62816 0.7881 0.11985 0.0
C231 C 0.70833 0.84656 0.14372 0.0
H232 H 0.78902 0.89774 0.85283 0.0
H233 H 0.79177 0.87931 0.93111 0.0
H234 H 0.7105 0.91688 0.97716 0.0
H235 H 0.70788 0.93584 0.89963 0.0
H236 H 0.60356 0.74845 0.25959 0.0
H237 H 0.59197 0.77285 0.18987 0.0
H238 H 0.67946 0.77053 0.14565 0.0
H239 H 0.69132 0.7471 0.21561 0.0
Tb240 Tb 0.39703 0.46858 0.23079 0.0
Tb241 Tb 0.43117 0.41519 0.26669 0.0
C242 C 0.46017 0.47328 0.25789 0.0
C243 C 0.36031 0.50229 0.14339 0.0
C244 C 0.34552 0.49291 0.04113 0.0
C245 C 0.342 0.52053 0.07217 0.0
C246 C 0.34943 0.52522 0.12329 0.0
C247 C 0.36275 0.47467 0.11287 0.0
C248 C 0.35518 0.46993 0.06252 0.0
C249 C 0.37143 0.50645 0.19455 0.0
O250 O 0.42254 0.44754 0.16417 0.0
O251 O 0.44757 0.41058 0.18991 0.0
O252 O 0.40251 0.39344 0.2055 0.0
O253 O 0.37123 0.43025 0.20811 0.0
O254 O 0.46597 0.38991 0.27803 0.0
O255 O 0.42639 0.3857 0.31617 0.0
O256 O 0.42181 0.44911 0.33415 0.0
O257 O 0.38662 0.47695 0.31173 0.0
O258 O 0.43559 0.486 0.26642 0.0
O259 O 0.46343 0.44565 0.25761 0.0
C260 C 0.44109 0.42594 0.15548 0.0
O261 O 0.35938 0.49062 0.22327 0.0
O262 O 0.39877 0.5048 0.1962 0.0
C263 C 0.38083 0.40481 0.18575 0.0
C264 C 0.46844 0.38768 0.36527 0.0
C265 C 0.49619 0.40137 0.46072 0.0
C266 C 0.47441 0.38054 0.45195 0.0
C267 C 0.46082 0.37377 0.40495 0.0
C268 C 0.48992 0.40872 0.37407 0.0
C269 C 0.50362 0.41534 0.42082 0.0
C270 C 0.45361 0.38095 0.31556 0.0
C271 C 0.40256 0.46948 0.34652 0.0
H272 H 0.33487 0.53873 0.05647 0.0
H273 H 0.34763 0.54675 0.14645 0.0
H274 H 0.37164 0.45695 0.12764 0.0
H275 H 0.35798 0.44845 1.03972 0.0
H276 H 0.4675 0.36959 0.48164 0.0
H277 H 0.44419 0.35773 0.39973 0.0
H278 H 0.49629 0.42019 0.34471 0.0
H279 H 0.5204 0.43117 0.42525 0.0
Tb280 Tb 0.81298 0.16261 0.52347 0.0
Tb281 Tb 0.8492 0.21141 0.46654 0.0
C282 C 0.86233 0.14646 0.44129 0.0
C283 C 0.77314 0.13594 0.63012 0.0
C284 C 0.74567 0.1373 0.72635 0.0
C285 C 0.76446 0.11474 0.70518 0.0
C286 C 0.77781 0.11404 0.65795 0.0
C287 C 0.75469 0.15872 0.65142 0.0
C288 C 0.74121 0.15936 0.69854 0.0
C289 C 0.78516 0.13314 0.5773 0.0
O290 O 0.84002 0.18954 0.57887 0.0
O291 O 0.84874 0.23036 0.54654 0.0
O292 O 0.8136 0.2337 0.50536 0.0
O293 O 0.7838 0.19596 0.50961 0.0
O294 O 0.88831 0.22921 0.45079 0.0
O295 O 0.84918 0.24288 0.42195 0.0
O296 O 0.82097 0.18783 0.41008 0.0
O297 O 0.80117 0.1505 0.44491 0.0
O298 O 0.84041 0.13644 0.46364 0.0
O299 O 0.87279 0.17163 0.46274 0.0
C300 C 0.84459 0.21755 0.58503 0.0
O301 O 0.77408 0.14945 0.54879 0.0
O302 O 0.81244 0.131 0.57024 0.0
C303 C 0.7884 0.22261 0.50333 0.0
C304 C 0.88942 0.24562 0.37259 0.0
C305 C 0.90381 0.25433 0.27512 0.0
C306 C 0.91208 0.27439 0.31827 0.0
C307 C 0.90493 0.27006 0.36656 0.0
C308 C 0.88276 0.2245 0.32988 0.0
C309 C 0.89003 0.22876 0.28144 0.0
C310 C 0.87653 0.24518 0.42215 0.0
C311 C 0.80529 0.16435 0.40733 0.0
H312 H 0.76842 0.09709 0.72458 0.0
H313 H 0.79145 0.09592 0.64264 0.0
H314 H 0.75031 0.176 0.63135 0.0
H315 H 0.7274 0.17738 0.71335 0.0
H316 H 0.92302 0.2941 0.3146 0.0
H317 H 0.91011 0.28665 0.39908 0.0
H318 H 0.87051 0.20564 0.33383 0.0
H319 H 0.88321 0.21299 0.24895 0.0
Tb320 Tb 0.93714 0.60845 0.16446 0.0
Tb321 Tb 0.91433 0.54828 0.09757 0.0
C322 C 0.89365 0.60646 0.07483 0.0
C323 C 0.95858 0.65889 0.2772 0.0
C324 C 0.97041 0.6657 0.381 0.0
C325 C 0.97862 0.68709 0.35388 0.0
C326 C 0.97261 0.68375 0.30227 0.0
C327 C 0.9508 0.63742 0.30409 0.0
C328 C 0.9564 0.64087 0.3555 0.0
C329 C 0.95351 0.65394 0.22253 0.0
O330 O 0.90703 0.59097 0.21434 0.0
O331 O 0.90878 0.54355 0.17523 0.0
O332 O 0.95639 0.53888 0.11915 0.0
O333 O 0.96049 0.57421 0.19027 0.0
O334 O 0.87827 0.5225 0.08119 0.0
O335 O 0.91946 0.50724 0.05246 0.0
O336 O 0.9387 0.56715 0.04276 0.0
O337 O 0.96588 0.59866 0.09938 0.0
O338 O 0.91485 0.62045 0.09964 0.0
O339 O 0.88526 0.58205 0.08651 0.0
C340 C 0.9038 0.56324 0.21569 0.0
O341 O 0.97047 0.63516 0.19543 0.0
O342 O 0.9273 0.64922 0.20892 0.0
C343 C 0.96785 0.54894 0.16296 0.0
C344 C 0.88134 0.48925 1.00362 0.0
C345 C 0.87432 0.46835 0.90017 0.0
C346 C 0.88671 0.45089 0.931 0.0
C347 C 0.88978 0.46115 0.98226 0.0
C348 C 0.86663 0.50594 0.97477 0.0
C349 C 0.86269 0.4953 0.92329 0.0
C350 C 0.8926 0.50171 0.05284 0.0
C351 C 0.96042 0.58483 0.05299 0.0
H352 H 0.98953 0.70639 0.37264 0.0
H353 H 0.97916 0.70034 0.28188 0.0
H354 H 0.94081 0.6177 0.28501 0.0
H355 H 0.95036 0.62374 0.37506 0.0
H356 H 0.89651 0.43027 0.91566 0.0
H357 H 0.90116 0.44807 1.00433 0.0
H358 H 0.8597 0.52768 0.99119 0.0
H359 H 0.85215 0.50897 0.90135 0.0
Tb360 Tb 0.16617 0.18166 1.02234 0.0
Tb361 Tb 0.21827 0.14601 0.95484 0.0
C362 C 0.15613 0.13154 0.92282 0.0
C363 C 0.13832 0.21958 0.14431 0.0
C364 C 0.1502 0.24922 0.24495 0.0
C365 C 0.12228 0.24264 0.22906 0.0
C366 C 0.11645 0.22802 0.17946 0.0
C367 C 0.16616 0.22603 0.15993 0.0
C368 C 0.17203 0.24051 0.20942 0.0
C369 C 0.13235 0.20524 0.09101 0.0
O370 O 0.19866 0.17102 0.0737 0.0
O371 O 0.22358 0.13323 1.02805 0.0
O372 O 0.23482 0.18528 1.00081 0.0
O373 O 0.1962 0.21466 1.01463 0.0
O374 O 0.23945 0.1071 0.92538 0.0
O375 O 0.25463 0.14796 0.91095 0.0
O376 O 0.19914 0.17324 0.90589 0.0
O377 O 0.16245 0.19836 0.95315 0.0
O378 O 0.145 0.15278 0.95728 0.0
O379 O 0.18085 0.12096 0.93062 0.0
C380 C 0.21715 0.15003 0.07149 0.0
O381 O 0.14291 0.21831 0.0567 0.0
O382 O 0.13637 0.17712 0.07893 0.0
C383 C 0.22304 0.2108 1.00442 0.0
C384 C 0.2559 0.10808 0.8441 0.0
C385 C 0.25343 0.08628 0.73964 0.0
C386 C 0.2763 0.07929 0.76778 0.0
C387 C 0.27743 0.09003 0.81995 0.0
C388 C 0.23311 0.11492 0.8161 0.0
C389 C 0.2318 0.10405 0.76446 0.0
C390 C 0.25649 0.11979 0.89845 0.0
C391 C 0.178 0.19209 0.91152 0.0
H392 H 0.10477 0.24923 0.25469 0.0
H393 H 0.09479 0.22362 0.16843 0.0
H394 H 0.18349 0.2201 0.13361 0.0
H395 H 0.1938 0.24462 0.21987 0.0
H396 H 0.29331 0.06575 0.74939 0.0
H397 H 0.29513 0.08452 0.84123 0.0
H398 H 0.21644 0.12902 0.83417 0.0
H399 H 0.21429 0.11044 0.74365 0.0
Tb400 Tb 0.56284 0.41102 0.7637 0.0
Tb401 Tb 0.59818 0.4649 0.73485 0.0
C402 C 0.6107 0.40128 0.67342 0.0
C403 C 0.52485 0.38246 0.86062 0.0
C404 C 0.4968 0.39602 0.9566 0.0
C405 C 0.50573 0.36744 0.93592 0.0
C406 C 0.51957 0.36078 0.88858 0.0
C407 C 0.51607 0.41097 0.88115 0.0
C408 C 0.5023 0.41764 0.9283 0.0
C409 C 0.53942 0.37583 0.81035 0.0
O410 O 0.57124 0.44403 0.83192 0.0
O411 O 0.6129 0.4603 0.80982 0.0
O412 O 0.55984 0.48177 0.77371 0.0
O413 O 0.53108 0.44245 0.7567 0.0
O414 O 0.63655 0.48703 0.73865 0.0
O415 O 0.59916 0.50505 0.7118 0.0
O416 O 0.57082 0.44945 0.6682 0.0
O417 O 0.54859 0.40849 0.68672 0.0
O418 O 0.59312 0.38964 0.70296 0.0
O419 O 0.6177 0.42875 0.68451 0.0
C420 C 0.59468 0.45782 0.84531 0.0
O421 O 0.52732 0.38626 0.7745 0.0
O422 O 0.5667 0.38009 0.81037 0.0
C423 C 0.53514 0.47035 0.76122 0.0
C424 C 0.64167 0.51066 0.67049 0.0
C425 C 0.66057 0.51532 0.5737 0.0
C426 C 0.65166 0.54014 0.60844 0.0
C427 C 0.64207 0.53776 0.65651 0.0
C428 C 0.65299 0.48643 0.63762 0.0
C429 C 0.66238 0.4887 0.58957 0.0
C430 C 0.62645 0.50688 0.71613 0.0
C431 C 0.5537 0.4267 0.65606 0.0
H432 H 0.50171 0.35004 0.956 0.0
H433 H 0.52604 0.33863 0.87376 0.0
H434 H 0.51984 0.42822 0.86061 0.0
H435 H 0.49633 0.43996 0.94287 0.0
H436 H 0.65044 0.56101 0.59732 0.0
H437 H 0.63355 0.5567 0.68162 0.0
H438 H 0.65305 0.46538 0.64799 0.0
H439 H 0.66888 0.46914 0.56367 0.0
Tb440 Tb 0.34827 0.81049 0.39239 0.0
Tb441 Tb 0.2936 0.8452 0.36325 0.0
C442 C 0.35064 0.85228 0.30814 0.0
C443 C 0.39687 0.78541 0.47791 0.0
C444 C 0.40486 0.77387 0.57548 0.0
C445 C 0.42775 0.77268 0.54164 0.0
C446 C 0.42378 0.77861 0.49315 0.0
C447 C 0.37397 0.78557 0.51115 0.0
C448 C 0.37794 0.78014 0.55955 0.0
C449 C 0.39227 0.79294 0.42812 0.0
O450 O 0.32744 0.82984 0.4644 0.0
O451 O 0.29956 0.8646 0.44289 0.0
O452 O 0.27605 0.81048 0.39551 0.0
O453 O 0.31424 0.78296 0.40989 0.0
O454 O 0.2743 0.88449 0.35662 0.0
O455 O 0.25116 0.84416 0.34503 0.0
O456 O 0.30424 0.81244 0.29436 0.0
O457 O 0.33665 0.78243 0.32259 0.0
O458 O 0.36216 0.83208 0.32948 0.0
O459 O 0.32675 0.86444 0.3251 0.0
C460 C 0.30922 0.85102 0.47716 0.0
O461 O 0.37495 0.77592 0.39883 0.0
O462 O 0.38686 0.82037 0.4291 0.0
C463 C 0.28695 0.7879 0.41 0.0
C464 C 0.23833 0.87684 0.29529 0.0
C465 C 0.2185 0.87433 0.19698 0.0
C466 C 0.20318 0.86165 0.23204 0.0
C467 C 0.21266 0.86351 0.28082 0.0
C468 C 0.253 0.8912 0.26208 0.0
C469 C 0.24288 0.89034 0.21341 0.0
C470 C 0.25074 0.87144 0.34184 0.0
C471 C 0.32044 0.78891 0.28724 0.0
H472 H 0.44871 0.76788 0.55311 0.0
H473 H 0.44166 0.77807 0.46779 0.0
H474 H 0.35296 0.79003 0.49973 0.0
H475 H 0.35989 0.78077 0.58461 0.0
H476 H 0.18477 0.84842 0.22159 0.0
H477 H 0.20101 0.85239 0.30605 0.0
H478 H 0.27284 0.90191 0.27274 0.0
H479 H 0.25482 0.90118 0.18827 0.0
Tb480 Tb 0.95367 0.38967 0.62677 0.0
Tb481 Tb 0.91481 0.43865 0.57827 0.0
C482 C 0.96947 0.45503 0.64454 0.0
C483 C 0.98449 0.34767 0.71504 0.0
C484 C 0.99581 0.3436 0.81599 0.0
C485 C 0.01588 0.3345 0.77742 0.0
C486 C 0.01023 0.33649 0.72743 0.0
C487 C 0.96417 0.35632 0.75325 0.0
C488 C 0.96972 0.35416 0.8032 0.0
C489 C 0.97974 0.35165 0.66291 0.0
O490 O 0.92996 0.41356 0.69043 0.0
O491 O 0.90557 0.44961 0.65928 0.0
O492 O 0.88442 0.41121 0.61015 0.0
O493 O 0.91339 0.37257 0.59722 0.0
O494 O 0.90704 0.48173 0.57002 0.0
O495 O 0.88536 0.44587 0.52405 0.0
O496 O 0.93654 0.40874 0.51797 0.0
O497 O 0.97517 0.39684 0.55881 0.0
O498 O 0.96839 0.43148 0.66358 0.0
O499 O 0.95565 0.45781 0.60337 0.0
C500 C 0.91303 0.43632 0.69609 0.0
O501 O 0.95398 0.34874 0.6468 0.0
O502 O 0.99178 0.37417 0.65061 0.0
C503 C 0.88981 0.38471 0.61692 0.0
C504 C 0.89325 0.48803 0.48755 0.0
C505 C 0.89612 0.51504 0.40107 0.0
C506 C 0.88238 0.52868 0.44603 0.0
C507 C 0.88094 0.51535 0.48845 0.0
C508 C 0.90759 0.47458 0.44329 0.0
C509 C 0.90901 0.48787 0.40079 0.0
C510 C 0.88987 0.47383 0.5324 0.0
C511 C 0.9636 0.40329 0.51856 0.0
H512 H 0.03605 0.32601 0.78596 0.0
H513 H 0.02619 0.32975 0.69855 0.0
H514 H 0.94422 0.36529 0.74469 0.0
H515 H 0.95396 0.36167 0.83208 0.0
H516 H 0.87198 0.54936 0.44812 0.0
H517 H 0.86971 0.52628 0.52193 0.0
H518 H 0.9175 0.45366 0.44134 0.0
H519 H 0.92031 0.47674 0.36757 0.0
Tb520 Tb 0.33314 0.18444 0.32741 0.0
Tb521 Tb 0.28185 0.14753 0.36593 0.0
C522 C 0.34495 0.13247 0.3881 0.0
C523 C 0.36062 0.22385 0.23464 0.0
C524 C 0.34753 0.25222 0.15391 0.0
C525 C 0.37539 0.24376 0.16166 0.0
C526 C 0.38184 0.22972 0.20158 0.0
C527 C 0.33285 0.23221 0.22702 0.0
C528 C 0.32638 0.24615 0.18723 0.0
C529 C 0.36697 0.20884 0.27675 0.0
O530 O 0.30026 0.17592 0.26946 0.0
O531 O 0.28246 0.13369 0.28328 0.0
O532 O 0.26466 0.18727 0.34984 0.0
O533 O 0.30306 0.2168 0.36123 0.0
O534 O 0.25981 0.10836 0.35864 0.0
O535 O 0.24495 0.14694 0.40937 0.0
O536 O 0.29942 0.17426 0.43608 0.0
O537 O 0.3377 0.19819 0.40868 0.0
O538 O 0.35523 0.15207 0.3634 0.0
O539 O 0.31827 0.1254 0.38656 0.0
C540 C 0.28548 0.15244 0.25364 0.0
O541 O 0.35675 0.22125 0.32078 0.0
O542 O 0.36267 0.18078 0.26766 0.0
C543 C 0.27605 0.21269 0.36646 0.0
C544 C 0.24188 0.10305 0.43793 0.0
C545 C 0.24457 0.0816 0.52799 0.0
C546 C 0.2208 0.09717 0.5174 0.0
C547 C 0.2195 0.1078 0.47269 0.0
C548 C 0.26481 0.08594 0.44691 0.0
C549 C 0.26609 0.07524 0.49147 0.0
C550 C 0.2428 0.11882 0.39601 0.0
C551 C 0.32131 0.19216 0.44514 0.0
H552 H 0.39232 0.24829 0.13723 0.0
H553 H 0.4034 0.22349 0.20665 0.0
H554 H 0.31604 0.22792 0.25191 0.0
H555 H 0.30466 0.25178 0.18219 0.0
H556 H 0.20402 0.1028 0.54504 0.0
H557 H 0.20172 0.12105 0.46654 0.0
H558 H 0.28237 0.08189 0.42062 0.0
H559 H 0.2845 0.06304 0.49829 0.0
Tb560 Tb 0.56891 0.5814 0.13216 0.0
Tb561 Tb 0.60357 0.52824 0.16875 0.0
C562 C 0.61928 0.59228 0.21254 0.0
C563 C 0.53202 0.60909 1.03403 0.0
C564 C 0.50421 0.59549 0.93909 0.0
C565 C 0.51146 0.62437 0.96094 0.0
C566 C 0.5252 0.63105 1.00776 0.0
C567 C 0.5248 0.58031 1.01251 0.0
C568 C 0.51117 0.57359 0.96574 0.0
C569 C 0.54587 0.61591 0.08427 0.0
O570 O 0.57952 0.54808 0.06467 0.0
O571 O 0.61382 0.51936 0.0878 0.0
O572 O 0.56523 0.51045 0.13279 0.0
O573 O 0.53706 0.55054 0.14114 0.0
O574 O 0.64137 0.50645 0.17614 0.0
O575 O 0.60219 0.49231 0.20412 0.0
O576 O 0.57801 0.54926 0.23528 0.0
O577 O 0.55277 0.58595 0.20911 0.0
O578 O 0.59736 0.6034 0.19314 0.0
O579 O 0.62907 0.56692 0.19016 0.0
C580 C 0.59841 0.52733 0.05279 0.0
O581 O 0.5333 0.60531 0.1198 0.0
O582 O 0.57318 0.61196 0.08472 0.0
C583 C 0.54054 0.52297 0.14107 0.0
C584 C 0.64101 0.49491 0.25612 0.0
C585 C 0.65636 0.50446 0.35812 0.0
C586 C 0.65926 0.47666 0.32736 0.0
C587 C 0.65158 0.4719 0.27637 0.0
C588 C 0.63916 0.52266 0.2863 0.0
C589 C 0.64707 0.52749 0.33649 0.0
C590 C 0.62955 0.49068 0.20521 0.0
C591 C 0.55933 0.57073 0.24369 0.0
H592 H 0.50616 0.64198 0.94223 0.0
H593 H 0.53029 0.65342 1.0236 0.0
H594 H 0.52956 0.56293 1.03208 0.0
H595 H 0.50641 0.5511 0.95023 0.0
H596 H 0.66608 0.4584 0.34321 0.0
H597 H 0.6529 0.45026 0.25348 0.0
H598 H 0.63044 0.54042 0.27141 0.0
H599 H 0.64475 0.5491 0.35903 0.0
Tb600 Tb 0.14269 0.78777 0.92793 0.0
Tb601 Tb 0.18173 0.83643 0.87516 0.0
C602 C 0.20565 0.77636 0.8974 0.0
C603 C 0.1008 0.757 1.02212 0.0
C604 C 0.08869 0.75534 0.12426 0.0
C605 C 0.08246 0.73148 0.08548 0.0
C606 C 0.08844 0.73235 1.03492 0.0
C607 C 0.10568 0.7814 0.06017 0.0
C608 C 0.09935 0.78075 0.11065 0.0
C609 C 0.11323 0.75506 0.97145 0.0
O610 O 0.16903 0.81085 0.98745 0.0
O611 O 0.19434 0.84566 0.95399 0.0
O612 O 0.15438 0.86293 0.93434 0.0
O613 O 0.12041 0.82885 0.93414 0.0
O614 O 0.2208 0.84958 0.85028 0.0
O615 O 0.18265 0.86869 0.82975 0.0
O616 O 0.15554 0.80958 0.81822 0.0
O617 O 0.14613 0.76834 0.8482 0.0
O618 O 0.18057 0.76526 0.89996 0.0
O619 O 0.2102 0.80221 0.88711 0.0
C620 C 0.18729 0.83229 0.99108 0.0
O621 O 0.10264 0.77132 0.94209 0.0
O622 O 0.14061 0.75569 0.9712 0.0
C623 C 0.13145 0.85393 0.95523 0.0
C624 C 0.22182 0.86403 0.76996 0.0
C625 C 0.25047 0.86151 0.67445 0.0
C626 C 0.23936 0.8878 0.70223 0.0
C627 C 0.22541 0.88902 0.74912 0.0
C628 C 0.23219 0.83759 0.74181 0.0
C629 C 0.24624 0.83636 0.69501 0.0
C630 C 0.20991 0.86651 0.82271 0.0
C631 C 0.1523 0.78133 0.81075 0.0
H632 H 0.07466 0.71139 0.09427 0.0
H633 H 0.08502 0.7131 1.00616 0.0
H634 H 0.11597 0.80028 0.05118 0.0
H635 H 0.104 0.79974 0.13918 0.0
H636 H 0.24217 0.90777 0.68856 0.0
H637 H 0.21799 0.90981 0.76983 0.0
H638 H 0.22988 0.81785 0.75643 0.0
H639 H 0.25381 0.81552 0.67491 0.0
Tb640 Tb 0.58124 0.95147 0.80036 0.0
Tb641 Tb 0.55822 0.89136 0.73351 0.0
C642 C 0.5277 0.95098 0.73508 0.0
C643 C 0.61444 0.01037 0.89428 0.0
C644 C 0.62165 0.03122 0.9977 0.0
C645 C 0.60925 0.04872 0.96696 0.0
C646 C 0.60608 0.03848 0.91571 0.0
C647 C 0.62915 0.99363 0.92304 0.0
C648 C 0.63318 0.00423 0.97451 0.0
C649 C 0.60312 0.99796 0.84508 0.0
O650 O 0.55691 0.93262 0.85524 0.0
O651 O 0.52956 0.90126 0.79868 0.0
O652 O 0.58055 0.87931 0.79825 0.0
O653 O 0.61028 0.91758 0.81097 0.0
O654 O 0.52477 0.86479 0.70266 0.0
O655 O 0.56788 0.85054 0.68906 0.0
O656 O 0.58838 0.90874 0.68359 0.0
O657 O 0.58676 0.95618 0.72269 0.0
O658 O 0.53919 0.96097 0.7789 0.0
O659 O 0.53499 0.92569 0.70773 0.0
C660 C 0.53511 0.91504 0.84506 0.0
O661 O 0.61738 0.97714 0.81668 0.0
O662 O 0.57625 0.99251 0.84551 0.0
C663 C 0.60185 0.89324 0.82283 0.0
C664 C 0.53649 0.84088 0.62091 0.0
C665 C 0.52442 0.83399 0.51718 0.0
C666 C 0.51579 0.81291 0.54464 0.0
C667 C 0.52193 0.81628 0.59622 0.0
C668 C 0.54469 0.86204 0.59368 0.0
C669 C 0.53897 0.85855 0.54231 0.0
C670 C 0.54164 0.8459 0.67557 0.0
C671 C 0.59169 0.93647 0.68223 0.0
H672 H 0.59951 0.06937 0.98237 0.0
H673 H 0.5947 0.0516 0.89371 0.0
H674 H 0.63601 0.97187 0.90657 0.0
H675 H 0.64372 0.99053 0.99638 0.0
H676 H 0.50448 0.7938 0.52618 0.0
H677 H 0.51504 0.79993 0.61687 0.0
H678 H 0.55511 0.88158 0.61247 0.0
H679 H 0.54534 0.87546 0.52249 0.0
Tb680 Tb 0.27853 0.3546 0.94299 0.0
Tb681 Tb 0.33056 0.31883 0.87543 0.0
C682 C 0.27366 0.28979 0.89353 0.0
C683 C 0.24106 0.39271 0.05378 0.0
C684 C 0.24354 0.41448 0.15825 0.0
C685 C 0.22062 0.42139 0.13015 0.0
C686 C 0.21948 0.41066 0.07799 0.0
C687 C 0.26392 0.38597 0.08173 0.0
C688 C 0.26523 0.39683 0.13338 0.0
C689 C 0.24041 0.38094 0.99947 0.0
O690 O 0.29767 0.3274 0.99199 0.0
O691 O 0.33428 0.30217 0.94465 0.0
O692 O 0.35177 0.34771 0.94042 0.0
O693 O 0.31601 0.37965 0.9668 0.0
O694 O 0.35377 0.28215 0.84109 0.0
O695 O 0.36037 0.32333 0.81883 0.0
O696 O 0.29807 0.3295 0.82407 0.0
O697 O 0.27309 0.36725 0.86971 0.0
O698 O 0.26189 0.31532 0.89718 0.0
O699 O 0.30049 0.28589 0.88323 0.0
C700 C 0.31877 0.30849 0.98633 0.0
O701 O 0.25744 0.39356 0.97242 0.0
O702 O 0.24222 0.35276 0.98707 0.0
C703 C 0.34068 0.36903 0.97474 0.0
C704 C 0.35837 0.28087 0.75348 0.0
C705 C 0.34647 0.25125 0.65285 0.0
C706 C 0.3744 0.25783 0.66871 0.0
C707 C 0.38023 0.27243 0.71831 0.0
C708 C 0.33053 0.27442 0.73788 0.0
C709 C 0.32465 0.25995 0.68839 0.0
C710 C 0.36435 0.2952 0.80677 0.0
C711 C 0.27954 0.35046 0.82628 0.0
H712 H 0.20356 0.43484 0.14858 0.0
H713 H 0.20173 0.41609 0.05675 0.0
H714 H 0.28063 0.37194 0.06361 0.0
H715 H 0.28278 0.3905 0.15415 0.0
H716 H 0.3919 0.25124 0.64306 0.0
H717 H 0.4019 0.27684 0.72933 0.0
H718 H 0.31321 0.28035 0.76422 0.0
H719 H 0.30288 0.25584 0.67795 0.0
Tb720 Tb 0.89847 0.03576 0.16255 0.0
Tb721 Tb 0.93374 0.0898 0.13393 0.0
C722 C 0.96143 0.0304 0.13597 0.0
C723 C 0.85521 0.98996 0.22712 0.0
C724 C 0.83669 0.98567 0.32432 0.0
C725 C 0.84599 0.96084 0.29001 0.0
C726 C 0.8554 0.96304 0.24175 0.0
C727 C 0.84346 0.01413 0.25953 0.0
C728 C 0.8343 0.01205 0.3078 0.0
C729 C 0.87033 0.99372 0.18134 0.0
O730 O 0.92586 0.05114 0.22916 0.0
O731 O 0.94786 0.0923 0.211 0.0
O732 O 0.90331 0.11112 0.19445 0.0
O733 O 0.87894 0.07189 0.21299 0.0
O734 O 0.96931 0.11455 0.12339 0.0
O735 O 0.93 0.12079 0.08736 0.0
O736 O 0.92525 0.05693 0.06552 0.0
O737 O 0.88369 0.0404 0.08764 0.0
O738 O 0.93673 0.01905 0.12327 0.0
O739 O 0.96549 0.05832 0.14084 0.0
C740 C 0.94284 0.07398 0.24149 0.0
O741 O 0.86015 0.01353 0.1588 0.0
O742 O 0.89763 0.99558 0.18551 0.0
C743 C 0.8858 0.09941 0.22402 0.0
C744 C 0.97192 0.11835 1.03729 0.0
C745 C 3e-05 0.10471 0.94137 0.0
C746 C 0.99105 0.13329 0.96192 0.0
C747 C 0.97719 0.13999 1.00923 0.0
C748 C 0.98075 0.08984 1.01689 0.0
C749 C 0.99455 0.08313 0.96977 0.0
C750 C 0.95729 0.12501 0.0875 0.0
C751 C 0.90187 0.04302 0.05214 0.0
H752 H 0.84761 0.94012 0.30157 0.0
H753 H 0.86424 0.94414 0.217 0.0
H754 H 0.8429 0.03502 0.24861 0.0
H755 H 0.82747 0.03163 0.33332 0.0
H756 H 0.99505 0.15065 0.94176 0.0
H757 H 0.97067 0.16213 1.02395 0.0
H758 H 0.97698 0.07262 1.03748 0.0
H759 H 0.00056 0.06081 0.95529 0.0
Tb760 Tb 0.20252 0.65531 0.53512 0.0
Tb761 Tb 0.14782 0.68994 0.50658 0.0
C762 C 0.20903 0.71307 0.48975 0.0
C763 C 0.25795 0.6236 0.60242 0.0
C764 C 0.27773 0.62603 0.7008 0.0
C765 C 0.29288 0.63906 0.666 0.0
C766 C 0.28344 0.63724 0.6172 0.0
C767 C 0.24346 0.60891 0.63537 0.0
C768 C 0.25356 0.60974 0.68407 0.0
C769 C 0.24548 0.62897 0.55586 0.0
O770 O 0.19198 0.688 0.60424 0.0
O771 O 0.15932 0.71791 0.57643 0.0
O772 O 0.13377 0.66777 0.56866 0.0
O773 O 0.16989 0.63652 0.57504 0.0
O774 O 0.12051 0.72425 0.50185 0.0
O775 O 0.10978 0.67993 0.46802 0.0
O776 O 0.16908 0.67159 0.43456 0.0
O777 O 0.19589 0.63595 0.45555 0.0
O778 O 0.22 0.69036 0.50369 0.0
O779 O 0.18171 0.7179 0.48989 0.0
C780 C 0.17566 0.71145 0.61159 0.0
O781 O 0.22186 0.61596 0.54129 0.0
O782 O 0.24509 0.65623 0.55252 0.0
C783 C 0.14559 0.64809 0.59086 0.0
C784 C 0.09952 0.71626 0.4221 0.0
C785 C 0.09238 0.73281 0.32786 0.0
C786 C 0.06894 0.73 0.35896 0.0
C787 C 0.07253 0.72186 0.40583 0.0
C788 C 0.12285 0.71902 0.3912 0.0
C789 C 0.11935 0.72706 0.34461 0.0
C790 C 0.10382 0.70742 0.47088 0.0
C791 C 0.18683 0.65004 0.4215 0.0
H792 H 0.31112 0.65252 0.67668 0.0
H793 H 0.29496 0.64862 0.59218 0.0
H794 H 0.22377 0.59795 0.6245 0.0
H795 H 0.24174 0.59863 0.70899 0.0
H796 H 0.04791 0.73444 0.34739 0.0
H797 H 0.0543 0.72009 0.42941 0.0
H798 H 0.14389 0.71495 0.40314 0.0
H799 H 0.13784 0.72838 0.3214 0.0
Tb800 Tb 0.58134 0.06097 0.31967 0.0
Tb801 Tb 0.54267 0.11012 0.27125 0.0
C802 C 0.60656 0.11483 0.28114 0.0
C803 C 0.6027 0.01149 0.41028 0.0
C804 C 0.59966 0.98453 0.49677 0.0
C805 C 0.61361 0.97094 0.452 0.0
C806 C 0.61513 0.98425 0.40957 0.0
C807 C 0.58815 0.02488 0.45434 0.0
C808 C 0.58666 0.01162 0.49686 0.0
C809 C 0.60615 0.02567 0.36543 0.0
O810 O 0.55971 0.09094 0.38002 0.0
O811 O 0.52113 0.10302 0.33921 0.0
O812 O 0.52782 0.06838 0.23439 0.0
O813 O 0.54043 0.04199 0.29459 0.0
O814 O 0.54252 0.15107 0.25128 0.0
O815 O 0.50463 0.12578 0.24743 0.0
O816 O 0.56634 0.08619 0.20756 0.0
O817 O 0.59056 0.05002 0.23865 0.0
O818 O 0.61184 0.08831 0.28786 0.0
O819 O 0.58301 0.12705 0.30083 0.0
C820 C 0.53267 0.09653 0.37946 0.0
O821 O 0.58893 0.01786 0.32786 0.0
O822 O 0.61076 0.05361 0.37381 0.0
C823 C 0.52665 0.04482 0.25341 0.0
C824 C 0.51204 0.15231 0.18307 0.0
C825 C 0.50076 0.15652 0.08217 0.0
C826 C 0.48077 0.1658 0.12081 0.0
C827 C 0.4864 0.16374 0.17077 0.0
C828 C 0.53229 0.14348 0.1448 0.0
C829 C 0.52675 0.14571 0.09487 0.0
C830 C 0.51676 0.14827 0.23518 0.0
C831 C 0.58318 0.06336 0.20187 0.0
H832 H 0.6241 0.95032 0.45008 0.0
H833 H 0.62652 0.97336 0.37623 0.0
H834 H 0.57815 0.04574 0.45612 0.0
H835 H 0.5752 0.0227 0.52992 0.0
H836 H 0.46067 0.17448 0.11234 0.0
H837 H 0.4705 0.17061 0.19971 0.0
H838 H 0.55216 0.13433 0.15329 0.0
H839 H 0.54245 0.13806 0.06595 0.0
Tb840 Tb 0.21482 0.35296 0.53187 0.0
Tb841 Tb 0.16354 0.31605 0.5704 0.0
C842 C 0.22062 0.28779 0.53126 0.0
C843 C 0.25482 0.39747 0.45995 0.0
C844 C 0.25222 0.41895 0.36991 0.0
C845 C 0.27599 0.40343 0.38059 0.0
C846 C 0.27725 0.39278 0.42529 0.0
C847 C 0.23187 0.41453 0.45088 0.0
C848 C 0.23064 0.42526 0.40634 0.0
C849 C 0.25387 0.38169 0.50186 0.0
O850 O 0.19725 0.32623 0.46172 0.0
O851 O 0.15893 0.30235 0.48912 0.0
O852 O 0.14144 0.3485 0.53467 0.0
O853 O 0.1784 0.37502 0.51107 0.0
O854 O 0.13993 0.27923 0.57701 0.0
O855 O 0.13403 0.31969 0.63017 0.0
O856 O 0.19644 0.32453 0.62831 0.0
O857 O 0.21417 0.36679 0.61453 0.0
O858 O 0.23201 0.3132 0.5479 0.0
O859 O 0.1936 0.28369 0.53649 0.0
C860 C 0.17533 0.30836 0.45265 0.0
O861 O 0.23683 0.39215 0.53919 0.0
O862 O 0.25174 0.35357 0.4885 0.0
C863 C 0.1517 0.36804 0.50982 0.0
C864 C 0.13607 0.27662 0.66314 0.0
C865 C 0.1492 0.2483 0.7439 0.0
C866 C 0.12133 0.25673 0.73615 0.0
C867 C 0.11486 0.27076 0.69622 0.0
C868 C 0.16385 0.26828 0.67076 0.0
C869 C 0.17033 0.25436 0.71056 0.0
C870 C 0.12972 0.29164 0.62106 0.0
C871 C 0.2112 0.34803 0.64415 0.0
H872 H 0.29281 0.39784 0.35303 0.0
H873 H 0.29504 0.37956 0.43152 0.0
H874 H 0.21427 0.41854 0.47708 0.0
H875 H 0.21222 0.43743 0.39946 0.0
H876 H 0.10441 0.25221 0.76061 0.0
H877 H 0.0933 0.27698 0.69116 0.0
H878 H 0.18065 0.27256 0.64585 0.0
H879 H 0.19206 0.24874 0.71559 0.0
Tb880 Tb 0.89242 0.9723 0.7291 0.0
Tb881 Tb 0.92668 0.91912 0.76519 0.0
C882 C 0.95567 0.97709 0.75582 0.0
C883 C 0.85524 0.0062 0.64229 0.0
C884 C 0.84024 0.99693 0.54015 0.0
C885 C 0.83754 0.02474 0.57093 0.0
C886 C 0.84507 0.02936 0.622 0.0
C887 C 0.85682 0.97843 0.61207 0.0
C888 C 0.84908 0.97374 0.5618 0.0
C889 C 0.86672 0.01026 0.69319 0.0
O890 O 0.91761 0.95101 0.66219 0.0
O891 O 0.94315 0.91457 0.6885 0.0
O892 O 0.89795 0.89724 0.70454 0.0
O893 O 0.8666 0.93397 0.70655 0.0
O894 O 0.96136 0.8937 0.77656 0.0
O895 O 0.92169 0.88965 0.81458 0.0
O896 O 0.91762 0.95319 0.83241 0.0
O897 O 0.88196 0.98044 0.81002 0.0
O898 O 0.93108 0.98983 0.76421 0.0
O899 O 0.95895 0.9495 0.75582 0.0
C900 C 0.93641 0.92964 0.6538 0.0
O901 O 0.85479 0.9945 0.72218 0.0
O902 O 0.89406 0.00842 0.69423 0.0
C903 C 0.8762 0.90843 0.68478 0.0
C904 C 0.96358 0.89153 0.86379 0.0
C905 C 0.99072 0.90557 0.9596 0.0
C906 C 0.96873 0.88499 0.95091 0.0
C907 C 0.95543 0.87805 0.90371 0.0
C908 C 0.9853 0.91231 0.8725 0.0
C909 C -0.0013 0.91911 0.91947 0.0
C910 C 0.94888 0.88479 0.81404 0.0
C911 C 0.89812 0.97326 0.84477 0.0
H912 H 0.83104 0.04308 0.55503 0.0
H913 H 0.84397 0.05101 0.64491 0.0
H914 H 0.86523 0.96054 0.62697 0.0
H915 H 0.85123 0.95213 0.5392 0.0
H916 H 0.96145 0.87441 0.98082 0.0
H917 H 0.93859 0.86225 0.89853 0.0
H918 H 0.99205 0.92344 0.84293 0.0
H919 H 0.01567 0.93473 0.92393 0.0
Tb920 Tb 0.31413 0.66389 1.02304 0.0
Tb921 Tb 0.35258 0.71298 0.97036 0.0
C922 C 0.3646 0.64708 0.94305 0.0
C923 C 0.27426 0.63626 0.12836 0.0
C924 C 0.24576 0.63916 0.22415 0.0
C925 C 0.25586 0.6126 0.19563 0.0
C926 C 0.26974 0.6112 0.14861 0.0
C927 C 0.26491 0.66293 0.15723 0.0
C928 C 0.25093 0.66435 0.20416 0.0
C929 C 0.28604 0.63373 0.0755 0.0
O930 O 0.34003 0.69091 0.08027 0.0
O931 O 0.34915 0.73221 0.0502 0.0
O932 O 0.31485 0.73514 1.00031 0.0
O933 O 0.28536 0.6976 1.01 0.0
O934 O 0.39241 0.73033 0.95722 0.0
O935 O 0.35425 0.74485 0.9267 0.0
O936 O 0.32627 0.68977 0.91086 0.0
O937 O 0.30182 0.65428 0.94403 0.0
O938 O 0.34185 0.63773 0.96402 0.0
O939 O 0.37538 0.67225 0.96421 0.0
C940 C 0.34332 0.71916 0.08773 0.0
O941 O 0.27511 0.65071 0.04807 0.0
O942 O 0.31329 0.63153 0.06825 0.0
C943 C 0.28982 0.72369 1.00078 0.0
C944 C 0.39492 0.74626 0.87843 0.0
C945 C 0.40852 0.75299 0.77943 0.0
C946 C 0.41529 0.77475 0.82127 0.0
C947 C 0.40857 0.77137 0.87032 0.0
C948 C 0.38973 0.72366 0.83709 0.0
C949 C 0.39668 0.72691 0.78793 0.0
C950 C 0.38159 0.74652 0.92794 0.0
C951 C 0.30848 0.6679 0.90705 0.0
H952 H 0.2523 0.59259 0.20881 0.0
H953 H 0.27636 0.59024 0.12735 0.0
H954 H 0.26795 0.68274 0.14307 0.0
H955 H 0.24416 0.68537 0.22481 0.0
H956 H 0.42459 0.79496 0.81587 0.0
H957 H 0.41245 0.78917 0.90167 0.0
H958 H 0.37865 0.70437 0.84252 0.0
H959 H 0.39098 0.70988 0.75644 0.0
Tb960 Tb 0.43813 0.0957 0.65272 0.0
Tb961 Tb 0.41038 0.03827 0.583 0.0
C962 C 0.39406 0.09874 0.56686 0.0
C963 C 0.46303 0.14376 0.76675 0.0
C964 C 0.47521 0.15058 0.87058 0.0
C965 C 0.48189 0.17265 0.84396 0.0
C966 C 0.47572 0.1693 0.7924 0.0
C967 C 0.45677 0.12158 0.79303 0.0
C968 C 0.4626 0.125 0.84444 0.0
C969 C 0.45724 0.1394 0.7123 0.0
O970 O 0.40752 0.07887 0.7023 0.0
O971 O 0.4043 0.03197 0.65988 0.0
O972 O 0.45002 0.02291 0.60641 0.0
O973 O 0.45925 0.05914 0.67512 0.0
O974 O 0.37189 0.01678 0.56634 0.0
O975 O 0.41089 0.99887 0.53146 0.0
O976 O 0.43696 0.05678 0.53031 0.0
O977 O 0.46667 0.08428 0.588 0.0
O978 O 0.41687 0.11044 0.5894 0.0
O979 O 0.38393 0.07548 0.58018 0.0
C980 C 0.40192 0.0513 0.70181 0.0
O981 O 0.47299 0.11989 0.68396 0.0
O982 O 0.43073 0.13631 0.6998 0.0
C983 C 0.46343 0.03282 0.64853 0.0
C984 C 0.37057 0.99058 0.48325 0.0
C985 C 0.36315 0.97154 0.38 0.0
C986 C 0.35485 0.95382 0.41381 0.0
C987 C 0.3588 0.96329 0.46548 0.0
C988 C 0.37479 0.00988 0.45044 0.0
C989 C 0.37092 0.00043 0.39883 0.0
C990 C 0.38356 0.99644 0.53266 0.0
C991 C 0.46025 0.07205 0.54125 0.0
H992 H 0.49158 0.1926 0.86311 0.0
H993 H 0.48097 0.18653 0.77256 0.0
H994 H 0.44762 0.10144 0.77352 0.0
H995 H 0.45768 0.10737 0.86355 0.0
H996 H 0.34842 0.93158 0.39994 0.0
H997 H 0.35525 0.94834 0.49076 0.0
H998 H 0.38396 0.03104 0.46397 0.0
H999 H 0.37747 0.01452 0.37357 0.0
Tb1000 Tb 0.6674 0.6795 0.522 0.0
Tb1001 Tb 0.72046 0.64533 0.45472 0.0
C1002 C 0.65876 0.62877 0.42327 0.0
C1003 C 0.63857 0.71656 0.64339 0.0
C1004 C 0.64993 0.74622 0.74406 0.0
C1005 C 0.62215 0.73893 0.72818 0.0
C1006 C 0.61657 0.72429 0.67852 0.0
C1007 C 0.66627 0.72374 0.65902 0.0
C1008 C 0.67189 0.73824 0.70855 0.0
C1009 C 0.63291 0.70213 0.59012 0.0
O1010 O 0.70004 0.66951 0.5736 0.0
O1011 O 0.72634 0.63278 0.52791 0.0
O1012 O 0.73589 0.68496 0.50121 0.0
O1013 O 0.69655 0.7133 0.5144 0.0
O1014 O 0.74271 0.60708 0.42532 0.0
O1015 O 0.75662 0.64838 0.41087 0.0
O1016 O 0.70037 0.67183 0.40557 0.0
O1017 O 0.66306 0.69588 0.45263 0.0
O1018 O 0.64705 0.64982 0.45724 0.0
O1019 O 0.68373 0.61897 0.43149 0.0
C1020 C 0.71923 0.64917 0.57136 0.0
O1021 O 0.64317 0.71549 0.55596 0.0
O1022 O 0.63763 0.67413 0.5781 0.0
C1023 C 0.72349 0.71014 0.5045 0.0
C1024 C 0.75894 0.60851 0.34409 0.0
C1025 C 0.75695 0.58668 0.23959 0.0
C1026 C 0.78015 0.58055 0.2678 0.0
C1027 C 0.78105 0.59131 0.31997 0.0
C1028 C 0.73581 0.61447 0.31605 0.0
C1029 C 0.73474 0.60359 0.26438 0.0
C1030 C 0.7593 0.62027 0.39843 0.0
C1031 C 0.6787 0.69003 0.41106 0.0
H1032 H 0.60455 0.74495 0.75387 0.0
H1033 H 0.59501 0.71929 0.66743 0.0
H1034 H 0.68368 0.71836 0.63268 0.0
H1035 H 0.69357 0.74293 0.71907 0.0
H1036 H 0.79759 0.56768 0.24945 0.0
H1037 H 0.79902 0.58649 0.34129 0.0
H1038 H 0.71869 0.62792 0.3341 0.0
H1039 H 0.71695 0.60933 0.24355 0.0
Tb1040 Tb 0.0573 0.91457 0.26204 0.0
Tb1041 Tb 0.09243 0.96867 0.23371 0.0
C1042 C 0.10425 0.90534 0.16999 0.0
C1043 C 0.01957 0.88399 0.35849 0.0
C1044 C 0.99197 0.89827 0.45507 0.0
C1045 C 0.0214 0.89434 0.45107 0.0
C1046 C 0.03497 0.88736 0.40362 0.0
C1047 C 0.99011 0.88731 0.36248 0.0
C1048 C 0.97656 0.89443 0.4099 0.0
C1049 C 0.03399 0.87889 0.30764 0.0
O1050 O 0.06599 0.94703 0.33092 0.0
O1051 O 0.10748 0.96344 0.30821 0.0
O1052 O 0.05439 0.98543 0.27375 0.0
O1053 O 0.02549 0.94625 0.25651 0.0
O1054 O 0.13087 0.99066 0.23749 0.0
O1055 O 0.0934 0.00911 0.21167 0.0
O1056 O 0.0646 0.95387 0.16755 0.0
O1057 O 0.04258 0.9127 0.18561 0.0
O1058 O 0.08711 0.89351 0.20002 0.0
O1059 O 0.11126 0.93282 0.18134 0.0
C1060 C 0.08944 0.9609 0.34399 0.0
O1061 O 0.02161 0.88999 0.27281 0.0
O1062 O 0.06136 0.88262 0.30656 0.0
C1063 C 0.02959 0.97417 0.26155 0.0
C1064 C 0.13577 0.01476 0.16983 0.0
C1065 C 0.1544 0.01956 0.07295 0.0
C1066 C 0.14477 0.0442 0.10734 0.0
C1067 C 0.13533 0.04175 0.15546 0.0
C1068 C 0.14776 0.99078 0.13729 0.0
C1069 C 0.15701 0.99313 0.0892 0.0
C1070 C 0.12073 0.01074 0.21555 0.0
C1071 C 0.04747 0.93115 0.15531 0.0
H1072 H 0.03414 0.89732 0.48472 0.0
H1073 H 0.05765 0.8851 0.40242 0.0
H1074 H 0.97745 0.88479 0.32876 0.0
H1075 H 0.95389 0.89676 0.41109 0.0
H1076 H 0.14294 0.06495 0.09593 0.0
H1077 H 0.12628 0.0605 0.18029 0.0
H1078 H 0.14849 0.9698 0.14793 0.0
H1079 H 0.16407 0.97369 0.06355 0.0
Tb1080 Tb 0.84436 0.31482 0.88999 0.0
Tb1081 Tb 0.78732 0.34157 0.85097 0.0
C1082 C 0.8455 0.35461 0.80586 0.0
C1083 C 0.89364 0.29256 0.97772 0.0
C1084 C 0.902 0.28135 0.07532 0.0
C1085 C 0.92362 0.27582 1.03866 0.0
C1086 C 0.91951 0.28158 0.99016 0.0
C1087 C 0.87207 0.29784 1.01416 0.0
C1088 C 0.87625 0.29254 0.06258 0.0
C1089 C 0.88823 0.2973 0.92644 0.0
O1090 O 0.82829 0.34622 0.95654 0.0
O1091 O 0.7828 0.34978 0.93266 0.0
O1092 O 0.77337 0.30117 0.87045 0.0
O1093 O 0.81035 0.29186 0.91975 0.0
O1094 O 0.76535 0.38076 0.85765 0.0
O1095 O 0.7485 0.34049 0.8151 0.0
O1096 O 0.80302 0.31182 0.78368 0.0
O1097 O 0.83352 0.28414 0.82106 0.0
O1098 O 0.85762 0.33394 0.82471 0.0
O1099 O 0.82197 0.36625 0.82625 0.0
C1100 C 0.80163 0.35234 0.96817 0.0
O1101 O 0.86933 0.28011 0.90185 0.0
O1102 O 0.88416 0.32427 0.92248 0.0
C1103 C 0.78444 0.28724 0.90332 0.0
C1104 C 0.74011 0.38244 0.78467 0.0
C1105 C 0.72437 0.3905 0.68959 0.0
C1106 C 0.70507 0.39642 0.73013 0.0
C1107 C 0.71291 0.39211 0.77768 0.0
C1108 C 0.76049 0.38101 0.7464 0.0
C1109 C 0.75269 0.38531 0.69893 0.0
C1110 C 0.74571 0.36866 0.82718 0.0
C1111 C 0.81972 0.28914 0.78148 0.0
H1112 H 0.94368 0.26725 0.04764 0.0
H1113 H 0.93634 0.27721 0.96232 0.0
H1114 H 0.85177 0.30564 1.00478 0.0
H1115 H 0.85908 0.29658 0.08979 0.0
H1116 H 0.68315 0.40066 0.7235 0.0
H1117 H 0.6971 0.39349 0.80727 0.0
H1118 H 0.78154 0.37342 0.75157 0.0
H1119 H 0.7679 0.38056 0.66821 0.0
Tb1120 Tb 0.45505 0.88121 0.12042 0.0
Tb1121 Tb 0.41568 0.92753 0.06716 0.0
C1122 C 0.46973 0.94665 0.13464 0.0
C1123 C 0.48661 0.83889 0.20829 0.0
C1124 C 0.4978 0.83201 0.30769 0.0
C1125 C 0.51654 0.82101 0.2678 0.0
C1126 C 0.51096 0.82443 0.21856 0.0
C1127 C 0.46755 0.84947 0.2477 0.0
C1128 C 0.47305 0.84595 0.29696 0.0
C1129 C 0.48194 0.84381 0.15686 0.0
O1130 O 0.43099 0.90621 0.18337 0.0
O1131 O 0.40557 0.93966 0.14738 0.0
O1132 O 0.38549 0.90098 0.10165 0.0
O1133 O 0.41508 0.86318 0.09175 0.0
O1134 O 0.4077 0.96968 0.05494 0.0
O1135 O 0.3857 0.9329 1.01225 0.0
O1136 O 0.43757 0.89637 1.00918 0.0
O1137 O 0.47655 0.88757 0.05185 0.0
O1138 O 0.46898 0.92354 0.15489 0.0
O1139 O 0.45573 0.94868 0.09319 0.0
C1140 C 0.41326 0.92829 0.18636 0.0
O1141 O 0.45635 0.84025 0.14014 0.0
O1142 O 0.49323 0.86716 0.14638 0.0
C1143 C 0.39155 0.87527 0.11149 0.0
C1144 C 0.39308 0.97359 0.97103 0.0
C1145 C 0.39365 0.00113 0.88491 0.0
C1146 C 0.37467 0.97849 0.88851 0.0
C1147 C 0.37437 0.96507 0.93076 0.0
C1148 C 0.41211 0.9962 0.96767 0.0
C1149 C 0.4124 0.00971 0.92533 0.0
C1150 C 0.39046 0.96074 1.01778 0.0
C1151 C 0.46475 0.89188 1.01031 0.0
H1152 H 0.53563 0.80991 0.27472 0.0
H1153 H 0.52589 0.81614 0.18858 0.0
H1154 H 0.44869 0.86086 0.24055 0.0
H1155 H 0.45837 0.85499 0.32689 0.0
H1156 H 0.35951 0.9714 0.859 0.0
H1157 H 0.35901 0.94823 0.9323 0.0
H1158 H 0.42666 0.00375 0.99802 0.0
H1159 H 0.42758 0.02673 0.92414 0.0
Tb1160 Tb 0.83414 0.68693 0.82818 0.0
Tb1161 Tb 0.78359 0.64877 0.8663 0.0
C1162 C 0.84673 0.63579 0.89045 0.0
C1163 C 0.86101 0.72641 0.73517 0.0
C1164 C 0.84739 0.75438 0.65419 0.0
C1165 C 0.87542 0.74658 0.66225 0.0
C1166 C 0.88214 0.73273 0.70231 0.0
C1167 C 0.83307 0.73405 0.72713 0.0
C1168 C 0.82635 0.74779 0.68723 0.0
C1169 C 0.86762 0.71181 0.77769 0.0
O1170 O 0.80173 0.67717 0.76957 0.0
O1171 O 0.78452 0.63474 0.78376 0.0
O1172 O 0.76567 0.68791 0.84895 0.0
O1173 O 0.80316 0.71863 0.86065 0.0
O1174 O 0.7621 0.60928 0.85885 0.0
O1175 O 0.74684 0.64754 0.90988 0.0
O1176 O 0.80049 0.67601 0.93649 0.0
O1177 O 0.83782 0.7014 0.90939 0.0
O1178 O 0.85666 0.65601 0.86678 0.0
O1179 O 0.82053 0.62707 0.88602 0.0
C1180 C 0.78739 0.65337 0.75388 0.0
O1181 O 0.85697 0.72419 0.8214 0.0
O1182 O 0.86403 0.68364 0.76903 0.0
C1183 C 0.7763 0.71368 0.86573 0.0
C1184 C 0.74453 0.60352 0.93811 0.0
C1185 C 0.74788 0.58198 1.028 0.0
C1186 C 0.72378 0.59708 1.01752 0.0
C1187 C 0.72215 0.60777 0.9729 0.0
C1188 C 0.76781 0.58683 0.94696 0.0
C1189 C 0.76943 0.5761 0.99145 0.0
C1190 C 0.74506 0.6194 0.89635 0.0
C1191 C 0.82169 0.69477 0.94568 0.0
H1192 H 0.89228 0.7515 0.63801 0.0
H1193 H 0.90382 0.72705 0.70769 0.0
H1194 H 0.81633 0.72941 0.75185 0.0
H1195 H 0.80451 0.75289 0.68193 0.0
H1196 H 0.70696 0.60233 0.04519 0.0
H1197 H 0.7041 0.62068 0.96684 0.0
H1198 H 0.78536 0.58314 0.92061 0.0
H1199 H 0.7881 0.56428 0.99821 0.0
Tb1200 Tb 0.0654 0.08518 0.63114 0.0
Tb1201 Tb 0.09977 0.03197 0.66717 0.0
C1202 C 0.11581 0.09581 0.7119 0.0
C1203 C 0.02812 0.11258 0.53236 0.0
C1204 C 0.00038 0.09903 0.43688 0.0
C1205 C 0.02181 0.12023 0.44605 0.0
C1206 C 0.03539 0.12692 0.49306 0.0
C1207 C 0.007 0.09116 0.52315 0.0
C1208 C 0.9933 0.08461 0.47639 0.0
C1209 C 0.04288 0.11933 0.58214 0.0
O1210 O 0.0747 0.0512 0.56379 0.0
O1211 O 0.10996 0.02342 0.58611 0.0
O1212 O 0.06118 0.0143 0.63206 0.0
O1213 O 0.03327 0.05462 0.64039 0.0
O1214 O 0.13755 0.01014 0.67473 0.0
O1215 O 0.09827 0.99583 0.70197 0.0
O1216 O 0.07429 0.05306 0.73382 0.0
O1217 O 0.04903 0.08982 0.70793 0.0
O1218 O 0.09402 0.10708 0.69226 0.0
O1219 O 0.12548 0.07042 0.68947 0.0
C1220 C 0.09393 0.03084 0.55139 0.0
O1221 O 0.03052 0.1103 0.6196 0.0
O1222 O 0.07011 0.11466 0.58161 0.0
C1223 C 0.03657 0.02701 0.6403 0.0
C1224 C 0.13675 0.99864 0.75475 0.0
C1225 C 0.15126 0.0083 0.85717 0.0
C1226 C 0.15476 0.98059 0.8264 0.0
C1227 C 0.14747 0.97577 0.7752 0.0
C1228 C 0.13435 0.02633 0.78499 0.0
C1229 C 0.14179 0.03122 0.83542 0.0
C1230 C 0.12561 0.99432 0.70359 0.0
C1231 C 0.05564 0.07457 0.74244 0.0
H1232 H 0.02845 0.13152 0.41667 0.0
H1233 H 0.05174 0.14327 0.4986 0.0
H1234 H 0.00091 0.07936 0.55221 0.0
H1235 H 0.9768 0.06847 0.47166 0.0
H1236 H 0.16173 0.96244 0.84237 0.0
H1237 H 0.14921 0.95417 0.75227 0.0
H1238 H 0.12554 0.04399 0.76997 0.0
H1239 H 0.13899 0.05275 0.858 0.0
Tb1240 Tb 0.64705 0.28906 0.43138 0.0
Tb1241 Tb 0.68376 0.33754 0.37453 0.0
C1242 C 0.70794 0.27746 0.39511 0.0
C1243 C 0.60744 0.25735 0.52767 0.0
C1244 C 0.59486 0.254 0.62874 0.0
C1245 C 0.58736 0.23131 0.58878 0.0
C1246 C 0.59361 0.23301 0.5387 0.0
C1247 C 0.61349 0.28076 0.56696 0.0
C1248 C 0.60701 0.27923 0.61702 0.0
C1249 C 0.6194 0.25602 0.47688 0.0
O1250 O 0.67528 0.31251 0.48795 0.0
O1251 O 0.69553 0.34959 0.4531 0.0
O1252 O 0.6564 0.36397 0.43408 0.0
O1253 O 0.62375 0.32903 0.43489 0.0
O1254 O 0.72279 0.35057 0.34954 0.0
O1255 O 0.68457 0.36914 0.32777 0.0
O1256 O 0.65688 0.31057 0.31887 0.0
O1257 O 0.64738 0.26996 0.35145 0.0
O1258 O 0.6827 0.26647 0.39326 0.0
O1259 O 0.71269 0.30403 0.38855 0.0
C1260 C 0.69118 0.33583 0.4907 0.0
O1261 O 0.60777 0.27206 0.44819 0.0
O1262 O 0.64679 0.25734 0.47552 0.0
C1263 C 0.6343 0.35418 0.45625 0.0
C1264 C 0.72406 0.3642 0.26826 0.0
C1265 C 0.7514 0.36322 0.17207 0.0
C1266 C 0.73093 0.38438 0.19163 0.0
C1267 C 0.71763 0.38491 0.23885 0.0
C1268 C 0.74429 0.34283 0.24862 0.0
C1269 C 0.7577 0.34238 0.20152 0.0
C1270 C 0.71187 0.36692 0.32095 0.0
C1271 C 0.652 0.28261 0.3129 0.0
H1272 H 0.57833 0.21141 0.59623 0.0
H1273 H 0.58913 0.21458 0.50885 0.0
H1274 H 0.62463 0.29949 0.55918 0.0
H1275 H 0.61267 0.29732 0.64669 0.0
H1276 H 0.72552 0.40109 0.17094 0.0
H1277 H 0.7026 0.40199 0.25286 0.0
H1278 H 0.75011 0.32654 0.26995 0.0
H1279 H 0.7729 0.32542 0.18799 0.0
C1280 C 0.1063 0.56668 0.57721 0.0
C1281 C 0.12426 0.54249 0.57017 0.0
H1282 H 0.07852 0.59443 0.6268 0.0
C1283 C 0.12915 0.52846 0.61056 0.0
H1284 H 0.10161 0.57754 0.54638 0.0
C1285 C 0.11559 0.53803 0.65691 0.0
C1286 C 0.09673 0.56153 0.66319 0.0
H1287 H 0.14272 0.5096 0.60573 0.0
H1288 H 0.11951 0.52667 0.68738 0.0
C1289 C 0.09254 0.57597 0.62307 0.0
C1290 C 0.71819 0.91703 0.79404 0.0
C1291 C 0.744 0.92394 0.81853 0.0
H1292 H 0.69644 0.90851 0.72373 0.0
C1293 C 0.76673 0.93247 0.79116 0.0
H1294 H 0.70032 0.91012 0.81392 0.0
C1295 C 0.76446 0.93148 0.73936 0.0
C1296 C 0.73944 0.92196 0.7141 0.0
H1297 H 0.78669 0.93844 0.80927 0.0
H1298 H 0.78277 0.93661 0.71854 0.0
C1299 C 0.71592 0.91609 0.74227 0.0
C1300 C 0.31847 0.4975 0.91119 0.0
C1301 C 0.33921 0.48153 0.87999 0.0
H1302 H 0.30401 0.51353 0.98717 0.0
C1303 C 0.36092 0.46833 0.90214 0.0
H1304 H 0.3015 0.5079 0.895 0.0
C1305 C 0.36249 0.47177 0.95428 0.0
C1306 C 0.34227 0.48832 0.98573 0.0
H1307 H 0.3777 0.45664 0.87938 0.0
H1308 H 0.38033 0.46239 0.96994 0.0
C1309 C 0.32 0.50088 0.96377 0.0
C1310 C 0.77713 0.12665 0.35039 0.0
C1311 C 0.79609 0.15003 0.35686 0.0
H1312 H 0.75494 0.09464 0.29725 0.0
C1313 C 0.80856 0.158 0.3143 0.0
H1314 H 0.76742 0.1199 0.38266 0.0
C1315 C 0.80222 0.14306 0.26628 0.0
C1316 C 0.78291 0.12009 0.25957 0.0
H1317 H 0.82362 0.17556 0.31782 0.0
H1318 H 0.8116 0.15034 0.2342 0.0
C1319 C 0.77033 0.11194 0.30186 0.0
C1320 C 0.88283 0.43111 0.82214 0.0
C1321 C 0.87803 0.46025 0.84452 0.0
H1322 H 0.90125 0.40164 0.76097 0.0
C1323 C 0.88204 0.48162 0.81492 0.0
H1324 H 0.8786 0.4137 0.84205 0.0
C1325 C 0.89225 0.47393 0.76532 0.0
C1326 C 0.89993 0.44514 0.74592 0.0
H1327 H 0.87894 0.50441 0.83053 0.0
H1328 H 0.89577 0.49064 0.74347 0.0
C1329 C 0.8953 0.42398 0.7749 0.0
C1330 C 0.27672 0.08301 0.65556 0.0
C1331 C 0.25303 0.07787 0.68395 0.0
H1332 H 0.29252 0.08842 0.58373 0.0
C1333 C 0.22778 0.06902 0.65893 0.0
H1334 H 0.29638 0.09007 0.67394 0.0
C1335 C 0.22553 0.06797 0.6071 0.0
C1336 C 0.24849 0.0758 0.57948 0.0
H1337 H 0.20932 0.06448 0.67995 0.0
H1338 H 0.20543 0.06249 0.58917 0.0
C1339 C 0.27446 0.08204 0.60377 0.0
C1340 C 0.68156 0.49586 0.43543 0.0
C1341 C 0.65978 0.50919 0.41353 0.0
H1342 H 0.69953 0.48808 0.50413 0.0
C1343 C 0.64009 0.5265 0.44506 0.0
H1344 H 0.69715 0.48262 0.412 0.0
C1345 C 0.64163 0.52988 0.49719 0.0
C1346 C 0.66274 0.51582 0.51925 0.0
H1347 H 0.62261 0.53649 0.4295 0.0
H1348 H 0.6252 0.54215 0.52 0.0
C1349 C 0.68303 0.49916 0.488 0.0
C1350 C 0.23067 0.86599 0.10373 0.0
C1351 C 0.21038 0.86794 0.14291 0.0
H1352 H 0.23905 0.85367 1.02383 0.0
C1353 C 0.18251 0.86001 0.13011 0.0
H1354 H 0.25248 0.87146 0.11167 0.0
C1355 C 0.17584 0.84728 0.0811 0.0
C1356 C 0.19593 0.84509 0.04235 0.0
H1357 H 0.16575 0.86257 0.15804 0.0
H1358 H 0.1546 0.83951 0.07347 0.0
C1359 C 0.22324 0.8553 0.05346 0.0
C1360 C 0.601 0.07566 0.12308 0.0
C1361 C 0.59626 0.0545 0.15203 0.0
H1362 H 0.61769 0.08588 0.05587 0.0
C1363 C 0.60379 0.02568 0.13257 0.0
H1364 H 0.59515 0.09802 0.13705 0.0
C1365 C 0.61395 0.01796 0.08295 0.0
C1366 C 0.61804 0.03932 0.05336 0.0
H1367 H 0.60019 0.00898 0.1544 0.0
H1368 H 0.61692 0.99516 0.06729 0.0
C1369 C 0.61341 0.06849 0.07579 0.0
C1370 C 0.26912 0.43166 0.23909 0.0
C1371 C 0.24389 0.4228 0.21397 0.0
H1372 H 0.2914 0.43815 0.30891 0.0
C1373 C 0.2202 0.41758 0.24226 0.0
H1374 H 0.28758 0.43627 0.21814 0.0
C1375 C 0.22241 0.4185 0.29403 0.0
C1376 C 0.24835 0.42477 0.31842 0.0
H1377 H 0.20056 0.4105 0.22381 0.0
H1378 H 0.20434 0.41207 0.31399 0.0
C1379 C 0.27133 0.43266 0.29091 0.0
C1380 C 0.81409 0.00208 0.4099 0.0
C1381 C 0.83453 0.98547 0.37892 0.0
H1382 H 0.79967 0.01866 0.48572 0.0
C1383 C 0.85568 0.97165 0.40134 0.0
H1384 H 0.79754 0.01297 0.39352 0.0
C1385 C 0.85702 0.9751 0.4535 0.0
C1386 C 0.83713 0.99229 0.48472 0.0
H1387 H 0.87224 0.95944 0.37878 0.0
H1388 H 0.87446 0.9652 0.46937 0.0
C1389 C 0.8154 0.00549 0.4625 0.0
C1390 C 0.31355 0.64059 0.76791 0.0
C1391 C 0.2858 0.63229 0.75492 0.0
H1392 H 0.34117 0.66143 0.82476 0.0
C1393 C 0.26552 0.63378 0.79403 0.0
H1394 H 0.33033 0.63839 0.74004 0.0
C1395 C 0.27283 0.6444 0.8444 0.0
C1396 C 0.3 0.65502 0.8557 0.0
H1397 H 0.24378 0.628 0.78597 0.0
H1398 H 0.25702 0.64569 0.87396 0.0
C1399 C 0.32008 0.65327 0.81702 0.0
C1400 C 0.36688 0.97217 0.28779 0.0
C1401 C 0.37176 0.95817 0.32822 0.0
H1402 H 0.37648 0.97384 0.21091 0.0
C1403 C 0.38968 0.93397 0.32126 0.0
H1404 H 0.35335 0.99105 0.29258 0.0
C1405 C 0.40341 0.92459 0.27538 0.0
C1406 C 0.3992 0.93897 0.23519 0.0
H1407 H 0.39436 0.92314 0.35214 0.0
H1408 H 0.41739 0.90611 0.27169 0.0
C1409 C 0.3804 0.96252 0.24143 0.0
C1410 C 0.77788 0.58317 0.10384 0.0
C1411 C 0.75205 0.57621 0.07942 0.0
H1412 H 0.79968 0.59179 0.1741 0.0
C1413 C 0.72936 0.56769 0.10688 0.0
H1414 H 0.79572 0.59007 0.08388 0.0
C1415 C 0.73167 0.56874 0.15869 0.0
C1416 C 0.75671 0.57831 0.18387 0.0
H1417 H 0.70939 0.56167 0.08883 0.0
H1418 H 0.71339 0.56362 0.17958 0.0
C1419 C 0.7802 0.58416 0.15562 0.0
C1420 C 0.17747 0.00381 0.98767 0.0
C1421 C 0.15665 0.01993 1.01845 0.0
H1422 H 0.19229 0.98759 0.91199 0.0
C1423 C 0.13524 0.03328 0.99586 0.0
H1424 H 0.19423 0.99329 1.00421 0.0
C1425 C 0.13398 0.02978 0.94369 0.0
C1426 C 0.15425 0.01305 0.91264 0.0
H1427 H 0.11841 0.0451 1.0183 0.0
H1428 H 0.11632 0.03926 0.92767 0.0
C1429 C 0.17627 0.00038 0.93506 0.0
C1430 C 0.71973 0.37317 0.54762 0.0
C1431 C 0.70047 0.35005 0.54116 0.0
H1432 H 0.74227 0.40487 0.60073 0.0
C1433 C 0.68782 0.34226 0.58374 0.0
H1434 H 0.72959 0.37977 0.51533 0.0
C1435 C 0.69428 0.35714 0.63175 0.0
C1436 C 0.71389 0.37983 0.63843 0.0
H1437 H 0.67254 0.32491 0.58023 0.0
H1438 H 0.68475 0.34999 0.66384 0.0
C1439 C 0.72665 0.3878 0.59613 0.0
C1440 C 0.14519 0.40287 0.45099 0.0
C1441 C 0.13491 0.379 0.47018 0.0
H1442 H 0.1442 0.42777 0.39277 0.0
C1443 C 0.113 0.36267 0.4433 0.0
H1444 H 0.16208 0.41603 0.46993 0.0
C1445 C 0.10238 0.36967 0.3982 0.0
C1446 C 0.11366 0.39291 0.37822 0.0
H1447 H 0.10492 0.3437 0.45579 0.0
H1448 H 0.08564 0.35657 0.37858 0.0
C1449 C 0.13502 0.40949 0.40594 0.0
C1450 C 0.84066 0.90673 0.61493 0.0
C1451 C 0.86543 0.8956 0.63217 0.0
H1452 H 0.81375 0.90973 0.55324 0.0
C1453 C 0.88155 0.8763 0.59584 0.0
H1454 H 0.82759 0.9218 0.64084 0.0
C1455 C 0.87321 0.86885 0.54433 0.0
C1456 C 0.84877 0.88089 0.52711 0.0
H1457 H 0.90105 0.86753 0.60686 0.0
H1458 H 0.88596 0.85367 0.51805 0.0
C1459 C 0.83276 0.89988 0.56384 0.0
C1460 C 0.3591 0.60867 0.86243 0.0
C1461 C 0.37341 0.63308 0.88912 0.0
H1462 H 0.35217 0.57942 0.79226 0.0
C1463 C 0.39351 0.64603 0.86119 0.0
H1464 H 0.34325 0.59805 0.88144 0.0
C1465 C 0.39861 0.63528 0.80872 0.0
C1466 C 0.38378 0.61113 0.78189 0.0
H1467 H 0.40504 0.66495 0.87969 0.0
H1468 H 0.41455 0.64562 0.78945 0.0
C1469 C 0.36408 0.59809 0.81034 0.0
C1470 C 0.61932 0.15466 0.17084 0.0
C1471 C 0.64049 0.13779 0.14184 0.0
H1472 H 0.59343 0.16208 0.23785 0.0
C1473 C 0.6528 0.1156 0.16293 0.0
H1474 H 0.60988 0.17263 0.1574 0.0
C1475 C 0.643 0.10927 0.20931 0.0
C1476 C 0.62073 0.12513 0.23693 0.0
H1477 H 0.66939 0.10226 0.14267 0.0
H1478 H 0.65221 0.09108 0.22244 0.0
C1479 C 0.60986 0.14862 0.21756 0.0
C1480 C 0.10463 0.6553 0.71725 0.0
C1481 C 0.11634 0.63311 0.73921 0.0
H1482 H 0.10349 0.67681 0.65369 0.0
C1483 C 0.13787 0.6162 0.71144 0.0
H1484 H 0.08871 0.6695 0.73742 0.0
C1485 C 0.1465 0.6205 0.66321 0.0
C1486 C 0.13396 0.64186 0.64029 0.0
H1487 H 0.14766 0.59891 0.72635 0.0
H1488 H 0.16308 0.60678 0.6437 0.0
C1489 C 0.11306 0.65942 0.66863 0.0
C1490 C 0.60202 0.862 0.89105 0.0
C1491 C 0.61309 0.88511 0.87044 0.0
H1492 H 0.60402 0.83736 0.95061 0.0
C1493 C 0.63366 0.90264 0.89869 0.0
H1494 H 0.58586 0.84819 0.87108 0.0
C1495 C 0.64311 0.89722 0.94506 0.0
C1496 C 0.63294 0.87361 0.96514 0.0
H1497 H 0.64278 0.92069 0.88484 0.0
H1498 H 0.65935 0.91115 0.96442 0.0
C1499 C 0.61195 0.85619 0.93749 0.0
C1500 C 0.38564 0.37281 0.09622 0.0
C1501 C 0.3699 0.39229 0.13295 0.0
H1502 H 0.38947 0.35024 1.01821 0.0
C1503 C 0.34526 0.40387 0.11603 0.0
H1504 H 0.40503 0.36366 0.10691 0.0
C1505 C 0.33715 0.39729 0.065 0.0
C1506 C 0.35273 0.37809 1.02786 0.0
H1507 H 0.33246 0.41911 0.14215 0.0
H1508 H 0.3183 0.40756 0.05478 0.0
C1509 C 0.37704 0.36559 0.04474 0.0
C1510 C 0.88865 0.148 0.35781 0.0
C1511 C 0.86902 0.13442 0.38561 0.0
H1512 H 0.90907 0.1486 0.28596 0.0
C1513 C 0.85361 0.11113 0.35797 0.0
H1514 H 0.90083 0.16628 0.37698 0.0
C1515 C 0.85756 0.10181 0.30534 0.0
C1516 C 0.8776 0.11476 0.27748 0.0
H1517 H 0.83792 0.10024 0.37686 0.0
H1518 H 0.84497 0.08384 0.28653 0.0
C1519 C 0.89299 0.13827 0.30493 0.0
C1520 C 0.86203 0.59706 0.99869 0.0
C1521 C 0.88246 0.61464 1.02722 0.0
H1522 H 0.8365 0.58857 0.93274 0.0
C1523 C 0.89349 0.63787 1.00686 0.0
H1524 H 0.85296 0.57891 1.01232 0.0
C1525 C 0.88363 0.64374 0.96041 0.0
C1526 C 0.86276 0.62627 0.93249 0.0
H1527 H 0.90955 0.65172 1.02703 0.0
H1528 H 0.89152 0.66265 0.94749 0.0
C1529 C 0.85265 0.60255 0.95232 0.0
C1530 C 0.1516 0.09705 0.78135 0.0
C1531 C 0.12676 0.10838 0.76466 0.0
H1532 H 0.17877 0.0935 0.84238 0.0
C1533 C 0.1109 0.12761 0.80159 0.0
H1534 H 0.16449 0.08201 0.75507 0.0
C1535 C 0.11956 0.13481 0.85305 0.0
C1536 C 0.14407 0.12253 0.8697 0.0
H1537 H 0.09137 0.13655 0.79108 0.0
H1538 H 0.10701 0.14995 0.87974 0.0
C1539 C 0.15977 0.10361 0.83234 0.0
C1540 C 0.64341 0.38916 0.53983 0.0
C1541 C 0.62741 0.36647 0.51176 0.0
H1542 H 0.65246 0.41588 0.61169 0.0
C1543 C 0.60695 0.35363 0.53904 0.0
H1544 H 0.65964 0.39956 0.52129 0.0
C1545 C 0.60264 0.36322 0.59195 0.0
C1546 C 0.61875 0.38597 0.6199 0.0
H1547 H 0.59417 0.33596 0.51945 0.0
H1548 H 0.58603 0.35339 0.61056 0.0
C1549 C 0.6394 0.39841 0.59247 0.0
C1550 C 0.38263 0.84074 0.22965 0.0
C1551 C 0.362 0.85847 0.25847 0.0
H1552 H 0.4066 0.83057 0.16045 0.0
C1553 C 0.34953 0.88002 0.23593 0.0
H1554 H 0.39214 0.82321 0.24429 0.0
C1555 C 0.35799 0.88435 0.18761 0.0
C1556 C 0.37928 0.86729 0.15939 0.0
H1557 H 0.33315 0.89387 0.2558 0.0
H1558 H 0.34828 0.90178 0.173 0.0
C1559 C 0.39089 0.84491 0.18098 0.0
C1560 C 0.8534 0.39017 0.6888 0.0
C1561 C 0.87571 0.37438 0.66117 0.0
H1562 H 0.82705 0.39713 0.75549 0.0
C1563 C 0.88666 0.35093 0.68056 0.0
H1564 H 0.84412 0.40833 0.67567 0.0
C1565 C 0.87725 0.34487 0.72731 0.0
C1566 C 0.85605 0.36168 0.75632 0.0
H1567 H 0.90312 0.33752 0.66026 0.0
H1568 H 0.88675 0.32693 0.74076 0.0
C1569 C 0.84366 0.38383 0.73521 0.0
C1570 C 0.38355 0.13786 0.45484 0.0
C1571 C 0.36165 0.12155 0.42791 0.0
H1572 H 0.41083 0.14397 0.51967 0.0
C1573 C 0.35129 0.09772 0.44713 0.0
H1574 H 0.39169 0.1568 0.44232 0.0
C1575 C 0.36136 0.09114 0.49227 0.0
C1576 C 0.38272 0.1077 0.52005 0.0
H1577 H 0.33441 0.08456 0.42815 0.0
H1578 H 0.35212 0.0729 0.50548 0.0
C1579 C 0.39409 0.13089 0.50002 0.0
C1580 C 0.61388 0.62393 0.30188 0.0
C1581 C 0.63007 0.60493 0.26521 0.0
H1582 H 0.60952 0.64621 0.37989 0.0
C1583 C 0.65505 0.59399 0.28204 0.0
H1584 H 0.59424 0.63256 0.29116 0.0
C1585 C 0.66307 0.60072 0.33308 0.0
C1586 C 0.64699 0.61939 0.37017 0.0
H1587 H 0.66818 0.57915 0.25586 0.0
H1588 H 0.68223 0.59101 0.34336 0.0
C1589 C 0.62233 0.63126 0.35334 0.0
C1590 C 0.1375 0.89206 1.03617 0.0
C1591 C 0.12259 0.86819 1.00901 0.0
H1592 H 0.14481 0.92087 0.10679 0.0
C1593 C 0.10173 0.85593 1.0364 0.0
H1594 H 0.15389 0.9022 1.01754 0.0
C1595 C 0.09669 0.86654 0.08892 0.0
C1596 C 0.11216 0.89004 0.11625 0.0
H1597 H 0.08953 0.83764 1.01742 0.0
H1598 H 0.08021 0.85667 0.10777 0.0
C1599 C 0.13245 0.90262 0.08827 0.0
C1600 C 0.99307 0.5017 0.15566 0.0
C1601 C 0.98592 0.52904 0.18468 0.0
H1602 H 0.01288 0.46071 0.15354 0.0
C1603 C 0.99385 0.53578 0.23562 0.0
H1604 H 0.98722 0.49572 0.11629 0.0
C1605 C 0.00845 0.51551 0.25711 0.0
C1606 C 0.01531 0.48807 0.22814 0.0
H1607 H 0.98837 0.55649 0.25917 0.0
H1608 H 0.01432 0.52137 0.29648 0.0
C1609 C 0.00751 0.48143 0.17716 0.0
C1610 C 0.7743 0.74424 0.42619 0.0
C1611 C 0.75866 0.76814 0.41754 0.0
H1612 H 0.77611 0.708 0.46275 0.0
C1613 C 0.73208 0.7737 0.4404 0.0
H1614 H 0.7951 0.73958 0.40983 0.0
C1615 C 0.72147 0.75593 0.47169 0.0
C1616 C 0.73711 0.73202 0.48033 0.0
H1617 H 0.71967 0.79217 0.43513 0.0
H1618 H 0.70068 0.76059 0.48805 0.0
C1619 C 0.7637 0.72646 0.45749 0.0
C1620 C 0.52351 0.51311 0.72377 0.0
C1621 C 0.51595 0.48585 0.73336 0.0
H1622 H 0.51463 0.54658 0.68336 0.0
C1623 C 0.4929 0.47115 0.7079 0.0
H1624 H 0.54141 0.52482 0.74213 0.0
C1625 C 0.47791 0.48331 0.67325 0.0
C1626 C 0.48538 0.51063 0.66386 0.0
H1627 H 0.48677 0.44985 0.71373 0.0
H1628 H 0.45998 0.47161 0.65497 0.0
C1629 C 0.50853 0.52526 0.6891 0.0
C1630 C 0.7583 0.23751 0.98867 0.0
C1631 C 0.7304 0.23225 0.97256 0.0
H1632 H 0.79726 0.25869 0.97934 0.0
C1633 C 0.7206 0.24483 0.93283 0.0
H1634 H 0.76661 0.2281 1.01903 0.0
C1635 C 0.73828 0.26225 0.90979 0.0
C1636 C 0.76618 0.26751 0.92591 0.0
H1637 H 0.69931 0.24106 0.91912 0.0
H1638 H 0.72997 0.27166 0.87942 0.0
C1639 C 0.77598 0.25493 0.96564 0.0
C1640 C 0.98249 0.50744 0.66171 0.0
C1641 C 0.98487 0.47993 0.67373 0.0
H1642 H 0.99292 0.55219 0.68128 0.0
C1643 C 0.00029 0.4768 0.71675 0.0
H1644 H 0.9705 0.51068 0.62934 0.0
C1645 C 0.01309 0.50072 0.74703 0.0
C1646 C 0.01071 0.52822 0.73488 0.0
H1647 H 0.00242 0.45586 0.72732 0.0
H1648 H 0.02512 0.49756 0.77939 0.0
C1649 C 0.99519 0.5313 0.69197 0.0
C1650 C 0.77454 0.75775 0.93388 0.0
C1651 C 0.76069 0.73373 0.90507 0.0
H1652 H 0.77301 0.79233 0.99821 0.0
C1653 C 0.73385 0.7262 0.92029 0.0
H1654 H 0.79547 0.76389 0.92372 0.0
C1655 C 0.72125 0.74216 0.96371 0.0
C1656 C 0.7351 0.76618 0.99251 0.0
H1657 H 0.72278 0.70758 0.89937 0.0
H1658 H 0.70032 0.73602 0.97386 0.0
C1659 C 0.76194 0.77371 0.97729 0.0
C1660 C 0.47632 0.51385 0.21825 0.0
C1661 C 0.48204 0.48737 0.23254 0.0
H1662 H 0.48952 0.5451 0.17562 0.0
C1663 C 0.50639 0.47178 0.21369 0.0
H1664 H 0.45752 0.52616 0.2314 0.0
C1665 C 0.52447 0.48232 0.18074 0.0
C1666 C 0.51873 0.50881 0.16643 0.0
H1667 H 0.51121 0.45104 0.22334 0.0
H1668 H 0.54329 0.47004 0.16761 0.0
C1669 C 0.49437 0.52437 0.18527 0.0
C1670 C 0.77147 0.26559 0.47084 0.0
C1671 C 0.7665 0.23752 0.47972 0.0
H1672 H 0.7575 0.29982 0.43551 0.0
C1673 C 0.74294 0.22211 0.45786 0.0
H1674 H 0.78963 0.27794 0.48663 0.0
C1675 C 0.72484 0.23444 0.4276 0.0
C1676 C 0.72982 0.2625 0.4187 0.0
H1677 H 0.73882 0.20021 0.46293 0.0
H1678 H 0.70667 0.22211 0.41183 0.0
C1679 C 0.75338 0.27791 0.44056 0.0
C1680 C 0.27451 0.24373 0.9256 0.0
C1681 C 0.2595 0.26818 0.91761 0.0
H1682 H 0.27545 0.20724 0.9616 0.0
C1683 C 0.23316 0.27446 0.9411 0.0
H1684 H 0.2951 0.2385 0.90874 0.0
C1685 C 0.22219 0.25686 0.97235 0.0
C1686 C 0.23719 0.23241 0.98034 0.0
H1687 H 0.22125 0.29335 0.93636 0.0
H1688 H 0.20159 0.26209 0.98921 0.0
C1689 C 0.26354 0.22613 0.95686 0.0
C1690 C 0.25808 0.72819 0.47197 0.0
C1691 C 0.2288 0.73276 0.47032 0.0
H1692 H 0.29935 0.74175 0.45415 0.0
C1693 C 0.21892 0.75539 0.44824 0.0
H1694 H 0.26654 0.71093 0.48869 0.0
C1695 C 0.23786 0.77299 0.42822 0.0
C1696 C 0.26714 0.76839 0.42979 0.0
H1697 H 0.19658 0.7594 0.44599 0.0
H1698 H 0.22941 0.79026 0.41147 0.0
C1699 C 0.27701 0.74579 0.45194 0.0
C1700 C 0.27531 0.25708 0.43401 0.0
C1701 C 0.26087 0.2334 0.40546 0.0
H1702 H 0.27449 0.29201 0.49782 0.0
C1703 C 0.23371 0.22682 0.42061 0.0
H1704 H 0.29649 0.26247 0.4239 0.0
C1705 C 0.22135 0.24341 0.4637 0.0
C1706 C 0.23579 0.26709 0.49226 0.0
H1707 H 0.22218 0.20848 0.39989 0.0
H1708 H 0.20017 0.23802 0.47381 0.0
C1709 C 0.26295 0.27366 0.4771 0.0
C1710 C 0.27102 0.7662 0.96917 0.0
C1711 C 0.26706 0.73805 0.97837 0.0
H1712 H 0.25531 0.79999 0.93454 0.0
C1713 C 0.24374 0.72189 0.95728 0.0
H1714 H 0.289 0.77909 0.98429 0.0
C1715 C 0.22482 0.73361 0.92765 0.0
C1716 C 0.2287 0.7618 0.91866 0.0
H1717 H 0.24047 0.69985 0.9624 0.0
H1718 H 0.2068 0.72074 0.91261 0.0
C1719 C 0.25209 0.77792 0.93954 0.0
C1720 C 0.48736 0.98468 0.64098 0.0
C1721 C 0.4806 0.01213 0.67001 0.0
H1722 H 0.50725 0.9436 0.63885 0.0
C1723 C 0.48836 0.01868 0.72101 0.0
H1724 H 0.4815 0.97888 0.6016 0.0
C1725 C 0.50269 0.99832 0.74248 0.0
C1726 C 0.50974 0.97097 0.7134 0.0
H1727 H 0.48306 0.03941 0.74468 0.0
H1728 H 0.50851 0.00424 0.78186 0.0
C1729 C 0.50184 0.96431 0.66244 0.0
C1730 C 0.01803 0.01724 0.22495 0.0
C1731 C 0.01042 0.9899 0.23403 0.0
H1732 H 0.00956 0.05079 0.18448 0.0
C1733 C 0.98747 0.97527 0.20809 0.0
H1734 H 0.03581 0.02894 0.24379 0.0
C1735 C 0.9728 0.98748 0.17312 0.0
C1736 C 0.98046 0.0148 0.16394 0.0
H1737 H 0.98126 0.95393 0.21358 0.0
H1738 H 0.95504 0.97577 0.15425 0.0
C1739 C 0.00336 0.02946 0.19 0.0
C1740 C 0.50077 0.96862 0.20591 0.0
C1741 C 0.48522 0.97176 0.16306 0.0
H1742 H 0.52554 0.98915 0.26849 0.0
C1743 C 0.48289 0.99928 0.15097 0.0
H1744 H 0.50301 0.94771 0.21656 0.0
C1745 C 0.49575 0.02315 0.18124 0.0
C1746 C 0.51118 0.01996 0.22421 0.0
H1747 H 0.47083 0.00248 0.11865 0.0
H1748 H 0.49365 0.04411 0.17072 0.0
C1749 C 0.51353 0.99244 0.23617 0.0
C1750 C 0.00185 0.9755 0.71154 0.0
C1751 C 0.97763 0.9912 0.7307 0.0
H1752 H 0.03877 0.97374 0.66554 0.0
C1753 C 0.97214 0.0179 0.717 0.0
H1754 H 0.00649 0.95459 0.72069 0.0
C1755 C 0.99033 0.02854 0.68437 0.0
C1756 C 0.01458 0.01285 0.66525 0.0
H1757 H 0.95342 0.0303 0.73039 0.0
H1758 H 0.98569 0.04944 0.67522 0.0
C1759 C 0.02005 0.98614 0.67891 0.0
C1760 C 0.98908 0.33564 0.95332 0.0
C1761 C 0.01515 0.34644 0.97287 0.0
H1762 H 0.96246 0.32628 0.88839 0.0
C1763 C 0.03506 0.35518 0.94004 0.0
H1764 H 0.97324 0.32889 0.97774 0.0
C1765 C 0.02893 0.35367 0.88908 0.0
C1766 C 0.00265 0.34355 0.86967 0.0
H1767 H 0.05542 0.36335 0.95385 0.0
H1768 H 0.04455 0.36117 0.86513 0.0
C1769 C 0.98283 0.33438 0.90229 0.0
C1770 C 0.84976 0.72982 1.00941 0.0
C1771 C 0.82786 0.70934 0.99908 0.0
H1772 H 0.87227 0.75992 0.06488 0.0
C1773 C 0.81204 0.70338 0.04022 0.0
H1774 H 0.86244 0.73521 0.979 0.0
C1775 C 0.8179 0.71755 0.09003 0.0
C1776 C 0.83976 0.73817 0.10031 0.0
H1777 H 0.79509 0.68773 1.03406 0.0
H1778 H 0.80541 0.71206 0.12056 0.0
C1779 C 0.85558 0.74397 0.05905 0.0
C1780 C 0.55369 0.56598 0.33542 0.0
C1781 C 0.54532 0.57862 0.29469 0.0
H1782 H 0.54731 0.56312 0.41316 0.0
C1783 C 0.52329 0.5991 0.30326 0.0
H1784 H 0.57057 0.55018 0.33058 0.0
C1785 C 0.50998 0.60661 0.35077 0.0
C1786 C 0.51826 0.59402 0.39158 0.0
H1787 H 0.51618 0.60943 0.27313 0.0
H1788 H 0.49335 0.62268 0.35563 0.0
C1789 C 0.54042 0.57361 0.38309 0.0
C1790 C 0.61605 0.2522 0.76305 0.0
C1791 C 0.59459 0.23539 0.779 0.0
H1792 H 0.63311 0.27096 0.70354 0.0
C1793 C 0.57165 0.22707 0.74693 0.0
H1794 H 0.63377 0.25945 0.78721 0.0
C1795 C 0.57099 0.23417 0.69889 0.0
C1796 C 0.59321 0.2498 0.68202 0.0
H1797 H 0.55477 0.21413 0.75814 0.0
H1798 H 0.55337 0.22686 0.67455 0.0
C1799 C 0.61543 0.25922 0.71521 0.0
C1800 C 0.00682 0.59919 1.01926 0.0
C1801 C 0.97852 0.59089 1.01096 0.0
H1802 H 0.04565 0.61093 0.98705 0.0
C1803 C 0.96738 0.58955 0.96254 0.0
H1804 H 0.01602 0.6005 0.0562 0.0
C1805 C 0.98411 0.59633 0.92338 0.0
C1806 C 0.0126 0.60404 0.93128 0.0
H1807 H 0.94558 0.58361 0.95504 0.0
H1808 H 0.97483 0.59477 0.88645 0.0
C1809 C 0.02378 0.6053 0.97972 0.0
C1810 C 0.6499 0.72555 0.37389 0.0
C1811 C 0.67097 0.70407 0.36801 0.0
H1812 H 0.62656 0.7556 0.34007 0.0
C1813 C 0.68431 0.69609 0.32052 0.0
H1814 H 0.63917 0.73241 0.40985 0.0
C1815 C 0.67686 0.7093 0.2802 0.0
C1816 C 0.6559 0.73095 0.28615 0.0
H1817 H 0.70044 0.67948 0.31427 0.0
H1818 H 0.6874 0.70229 0.24411 0.0
C1819 C 0.64249 0.73879 0.33362 0.0
C1820 C 0.52942 0.39263 0.58578 0.0
C1821 C 0.53969 0.42062 0.60559 0.0
H1822 H 0.50872 0.36446 0.52521 0.0
C1823 C 0.53576 0.44234 0.57716 0.0
H1824 H 0.53225 0.37518 0.60616 0.0
C1825 C 0.52162 0.43626 0.5306 0.0
C1826 C 0.51125 0.40818 0.51074 0.0
H1827 H 0.5431 0.4642 0.59135 0.0
H1828 H 0.51844 0.45381 0.51063 0.0
C1829 C 0.51563 0.38648 0.53917 0.0
C1830 C 0.83398 0.24126 0.72738 0.0
C1831 C 0.82609 0.27048 0.73155 0.0
H1832 H 0.84595 0.20143 0.67786 0.0
C1833 C 0.82617 0.28242 0.68777 0.0
H1834 H 0.83435 0.23154 0.76057 0.0
C1835 C 0.83374 0.26553 0.64087 0.0
C1836 C 0.84088 0.23605 0.63622 0.0
H1837 H 0.82073 0.30499 0.68983 0.0
H1838 H 0.83308 0.27546 0.60793 0.0
C1839 C 0.84088 0.2241 0.6801 0.0
C1840 C 0.9626 0.66247 0.51956 0.0
C1841 C 0.98994 0.66919 0.53755 0.0
H1842 H 0.935 0.65638 0.45618 0.0
C1843 C 0.01052 0.67625 0.50412 0.0
H1844 H 0.94635 0.65661 0.54412 0.0
C1845 C 0.00398 0.67603 0.45357 0.0
C1846 C 0.97683 0.66856 0.43544 0.0
H1847 H 0.03172 0.68173 0.51693 0.0
H1848 H 0.02038 0.68072 0.42825 0.0
C1849 C 0.95615 0.6621 0.46909 0.0
C1850 C 0.1463 0.27414 0.38907 0.0
C1851 C 0.16885 0.29385 0.39926 0.0
H1852 H 0.12308 0.24456 0.33387 0.0
C1853 C 0.18511 0.29896 0.358 0.0
H1854 H 0.13326 0.26938 0.41955 0.0
C1855 C 0.17906 0.28473 0.30827 0.0
C1856 C 0.15655 0.26487 0.29811 0.0
H1857 H 0.2026 0.31398 0.36402 0.0
H1858 H 0.19193 0.2896 0.27769 0.0
C1859 C 0.14028 0.25992 0.3395 0.0
C1860 C 0.44714 0.43164 0.06439 0.0
C1861 C 0.45502 0.41818 0.10439 0.0
H1862 H 0.45347 0.43505 0.98696 0.0
C1863 C 0.47649 0.39709 0.095 0.0
H1864 H 0.43058 0.4478 0.06974 0.0
C1865 C 0.48978 0.38983 0.0474 0.0
C1866 C 0.48209 0.40339 1.00739 0.0
H1867 H 0.48332 0.38623 0.12465 0.0
H1868 H 0.50653 0.3739 0.04234 0.0
C1869 C 0.46044 0.42437 1.01672 0.0
C1870 C 0.39813 0.79001 0.66853 0.0
C1871 C 0.40862 0.76933 0.62784 0.0
H1872 H 0.39013 0.80108 0.74808 0.0
C1873 C 0.42079 0.74376 0.63745 0.0
H1874 H 0.38867 0.80991 0.6621 0.0
C1875 C 0.42138 0.7385 0.68685 0.0
C1876 C 0.41036 0.75903 0.72745 0.0
H1877 H 0.42887 0.72742 0.60659 0.0
H1878 H 0.43013 0.71829 0.69327 0.0
C1879 C 0.39915 0.78502 0.71776 0.0
C1880 C 0.98849 0.41601 0.38982 0.0
C1881 C 0.01722 0.42233 0.39843 0.0
H1882 H 0.94896 0.40519 0.42076 0.0
C1883 C 0.0282 0.42135 0.44618 0.0
H1884 H 0.97938 0.4165 0.35337 0.0
C1885 C 0.01095 0.41409 0.48429 0.0
C1886 C 0.98211 0.40816 0.47603 0.0
H1887 H 0.05028 0.42572 0.45389 0.0
H1888 H 0.02017 0.41377 0.52072 0.0
C1889 C 0.97107 0.40938 0.42835 0.0
C1890 C 0.31286 0.30256 0.0769 0.0
C1891 C 0.32603 0.29422 1.02933 0.0
H1892 H 0.30957 0.29647 0.15338 0.0
C1893 C 0.34654 0.27217 1.02333 0.0
H1894 H 0.29715 0.31959 0.08324 0.0
C1895 C 0.3536 0.25876 0.06357 0.0
C1896 C 0.34039 0.26699 0.11115 0.0
H1897 H 0.35713 0.26502 0.9873 0.0
H1898 H 0.3691 0.24154 0.05704 0.0
C1899 C 0.31995 0.28916 0.11721 0.0
C1900 C 0.49668 0.60341 0.85007 0.0
C1901 C 0.48984 0.58827 0.88862 0.0
H1902 H 0.48944 0.60933 0.77477 0.0
C1903 C 0.46933 0.5662 0.87819 0.0
H1904 H 0.51266 0.62011 0.85586 0.0
C1905 C 0.45597 0.55974 0.83092 0.0
C1906 C 0.46272 0.57517 0.79269 0.0
H1907 H 0.46318 0.55418 0.90687 0.0
H1908 H 0.44014 0.54288 0.82459 0.0
C1909 C 0.48337 0.597 0.80308 0.0
C1910 C 0.16396 0.7336 0.75349 0.0
C1911 C 0.15752 0.76337 0.75936 0.0
H1912 H 0.17568 0.69409 0.70268 0.0
C1913 C 0.15888 0.7761 0.71642 0.0
H1914 H 0.16364 0.72311 0.7858 0.0
C1915 C 0.16573 0.75938 0.66879 0.0
C1916 C 0.17217 0.72968 0.663 0.0
H1917 H 0.15449 0.79897 0.71949 0.0
H1918 H 0.16585 0.76971 0.63628 0.0
C1919 C 0.17142 0.71703 0.706 0.0
C1920 C 0.5323 0.83661 0.37841 0.0
C1921 C 0.50484 0.8304 0.36062 0.0
H1922 H 0.56 0.84231 0.44161 0.0
C1923 C 0.48413 0.82385 0.39427 0.0
H1924 H 0.54867 0.84207 0.35368 0.0
C1925 C 0.49066 0.82408 0.44483 0.0
C1926 C 0.51794 0.83107 0.46276 0.0
H1927 H 0.46283 0.81876 0.38162 0.0
H1928 H 0.47416 0.81978 0.4703 0.0
C1929 C 0.53875 0.837 0.42888 0.0
C1930 C 0.35033 0.2264 0.50872 0.0
C1931 C 0.3278 0.20667 0.49853 0.0
H1932 H 0.37354 0.25598 0.56393 0.0
C1933 C 0.31156 0.20152 0.5398 0.0
H1934 H 0.36335 0.23118 0.47824 0.0
C1935 C 0.31762 0.21573 0.58953 0.0
C1936 C 0.34011 0.23561 0.59968 0.0
H1937 H 0.29409 0.18648 0.53378 0.0
H1938 H 0.30477 0.21084 0.62012 0.0
C1939 C 0.35636 0.2406 0.55829 0.0
C1940 C 0.00695 0.11073 0.85048 0.0
C1941 C 0.01473 0.09729 0.89059 0.0
H1942 H 0.01333 0.11419 0.77315 0.0
C1943 C 0.03643 0.07636 0.88134 0.0
H1944 H 0.99016 0.12661 0.85548 0.0
C1945 C 0.04971 0.06903 0.83365 0.0
C1946 C 0.04175 0.08238 0.79356 0.0
H1947 H 0.04345 0.06577 0.91118 0.0
H1948 H 0.06632 0.05293 0.82836 0.0
C1949 C 0.02022 0.10342 0.80287 0.0
C1950 C 0.1082 0.76493 0.21219 0.0
C1951 C 0.08718 0.7525 0.1784 0.0
H1952 H 0.12585 0.76917 0.28574 0.0
C1953 C 0.06634 0.73544 0.19586 0.0
H1954 H 0.12485 0.77789 0.20028 0.0
C1955 C 0.06734 0.72985 0.24497 0.0
C1956 C 0.08916 0.74125 0.27779 0.0
H1957 H 0.04958 0.72584 0.17125 0.0
H1958 H 0.05165 0.71567 0.25644 0.0
C1959 C 0.10907 0.75952 0.26118 0.0
C1960 C 0.52518 0.09053 0.46972 0.0
C1961 C 0.51414 0.09178 0.42204 0.0
H1962 H 0.51683 0.08349 0.54474 0.0
C1963 C 0.48527 0.08601 0.41386 0.0
H1964 H 0.5473 0.0946 0.47725 0.0
C1965 C 0.46798 0.07887 0.45202 0.0
C1966 C 0.47896 0.07784 0.49976 0.0
H1967 H 0.47605 0.08637 0.37745 0.0
H1968 H 0.44588 0.07461 0.44437 0.0
C1969 C 0.50772 0.08402 0.5083 0.0
C1970 C 0.14315 0.24179 0.83426 0.0
C1971 C 0.15636 0.23355 0.78668 0.0
H1972 H 0.13964 0.23556 0.91054 0.0
C1973 C 0.17681 0.21139 0.78063 0.0
H1974 H 0.12764 0.259 0.84078 0.0
C1975 C 0.18391 0.19802 0.82095 0.0
C1976 C 0.17074 0.20636 0.86852 0.0
H1977 H 0.18718 0.20408 0.74446 0.0
H1978 H 0.19963 0.18099 0.81462 0.0
C1979 C 0.15022 0.2284 0.87452 0.0
C1980 C 0.0232 0.89712 0.08518 0.0
C1981 C 0.03348 0.92511 0.1049 0.0
H1982 H 0.00268 0.86888 1.02452 0.0
C1983 C 0.02976 0.94678 0.07629 0.0
H1984 H 0.02591 0.87971 0.10567 0.0
C1985 C 0.01584 0.94062 1.02955 0.0
C1986 C 0.00547 0.91253 1.0098 0.0
H1987 H 0.03715 0.96863 0.09042 0.0
H1988 H 0.01283 0.95808 1.00932 0.0
C1989 C 0.00961 0.8909 1.03844 0.0
C1990 C 0.33054 0.74101 0.22992 0.0
C1991 C 0.32398 0.7707 0.23582 0.0
H1992 H 0.34169 0.70146 0.179 0.0
C1993 C 0.32451 0.78337 0.19283 0.0
H1994 H 0.33058 0.73067 0.26241 0.0
C1995 C 0.33182 0.76684 0.14524 0.0
C1996 C 0.33833 0.73708 0.13923 0.0
H1997 H 0.32015 0.80628 0.19621 0.0
H1998 H 0.33195 0.77735 0.11296 0.0
C1999 C 0.33723 0.72433 0.18218 0.0
C2000 C 0.46139 0.14534 0.95826 0.0
C2001 C 0.4814 0.15383 0.92533 0.0
H2002 H 0.45183 0.1395 1.03322 0.0
C2003 C 0.50758 0.16434 0.94477 0.0
H2004 H 0.44094 0.1374 0.94453 0.0
C2005 C 0.51384 0.16556 0.99579 0.0
C2006 C 0.49392 0.15664 1.02851 0.0
H2007 H 0.5235 0.17087 0.92027 0.0
H2008 H 0.53429 0.17343 1.0096 0.0
C2009 C 0.46753 0.14681 1.0092 0.0
C2010 C 0.67787 0.78244 0.80755 0.0
C2011 C 0.65603 0.76181 0.79726 0.0
H2012 H 0.70067 0.81227 0.86352 0.0
C2013 C 0.64023 0.75598 0.83853 0.0
H2014 H 0.69034 0.78796 0.77701 0.0
C2015 C 0.64605 0.77012 0.88817 0.0
C2016 C 0.66794 0.79062 0.8985 0.0
H2017 H 0.62356 0.74001 0.8327 0.0
H2018 H 0.63339 0.76471 0.91858 0.0
C2019 C 0.68373 0.79661 0.85735 0.0
C2020 C 0.9547 0.92598 0.51393 0.0
C2021 C 0.97749 0.90633 0.50594 0.0
H2022 H 0.92404 0.94884 0.56607 0.0
C2023 C 0.98641 0.8945 0.54722 0.0
H2024 H 0.94731 0.93587 0.48345 0.0
C2025 C 0.97307 0.902 0.59471 0.0
C2026 C 0.95041 0.92175 0.6028 0.0
H2027 H 0.00355 0.87902 0.54276 0.0
H2028 H 0.98069 0.89229 0.62523 0.0
C2029 C 0.94143 0.93364 0.56161 0.0
C2030 C 0.8978 0.29603 0.1692 0.0
C2031 C 0.90566 0.27515 0.12666 0.0
H2032 H 0.89118 0.30579 0.24916 0.0
C2033 C 0.91488 0.24779 0.13344 0.0
H2034 H 0.8907 0.31731 0.16503 0.0
C2035 C 0.91503 0.24106 0.18181 0.0
C2036 C 0.90643 0.26177 0.22423 0.0
H2037 H 0.92087 0.23124 0.10117 0.0
H2038 H 0.92146 0.21957 0.18596 0.0
C2039 C 0.89829 0.28947 0.2174 0.0
C2040 C 0.52818 0.91032 0.93553 0.0
C2041 C 0.51702 0.90902 0.88714 0.0
H2042 H 0.52075 0.90511 1.01164 0.0
C2043 C 0.48869 0.9008 0.8789 0.0
H2044 H 0.55 0.9162 0.94299 0.0
C2045 C 0.47174 0.89473 0.91848 0.0
C2046 C 0.48293 0.89595 0.9669 0.0
H2047 H 0.47947 0.89951 0.84199 0.0
H2048 H 0.44985 0.88916 0.91119 0.0
C2049 C 0.51145 0.90358 0.97473 0.0
C2050 C 0.81159 0.80401 0.57717 0.0
C2051 C 0.82493 0.79606 0.52967 0.0
H2052 H 0.80847 0.79774 0.65355 0.0
C2053 C 0.84598 0.77455 0.52376 0.0
H2054 H 0.79546 0.82063 0.58345 0.0
C2055 C 0.85337 0.76127 0.56399 0.0
C2056 C 0.83996 0.76908 0.61146 0.0
H2057 H 0.85671 0.76771 0.4878 0.0
H2058 H 0.86929 0.74445 0.55751 0.0
C2059 C 0.81901 0.79075 0.61745 0.0
C2060 C 0.98051 0.11415 0.35892 0.0
C2061 C 0.9853 0.09229 0.38684 0.0
H2062 H 0.96355 0.12564 0.29231 0.0
C2063 C 0.97531 0.06412 0.36649 0.0
H2064 H 0.9871 0.13624 0.37327 0.0
C2065 C 0.96116 0.05811 0.31993 0.0
C2066 C 0.95684 0.08 0.29199 0.0
H2067 H 0.97882 0.04645 0.38604 0.0
H2068 H 0.95414 0.03618 0.30534 0.0
C2069 C 0.96671 0.10807 0.3123 0.0
C2070 C 0.66302 0.25856 0.17073 0.0
C2071 C 0.67074 0.2293 0.16678 0.0
H2072 H 0.65108 0.29851 0.21991 0.0
C2073 C 0.67043 0.21746 0.21065 0.0
H2074 H 0.66282 0.26822 0.13747 0.0
C2075 C 0.66278 0.23447 0.25743 0.0
C2076 C 0.65579 0.26397 0.26184 0.0
H2077 H 0.67574 0.19486 0.20876 0.0
H2078 H 0.66326 0.22462 0.29048 0.0
C2079 C 0.65603 0.27583 0.21787 0.0
C2080 C 0.09636 0.45553 0.05639 0.0
C2081 C 0.10189 0.4854 0.05959 0.0
H2082 H 0.09054 0.42036 0.09605 0.0
C2083 C 0.1068 0.50222 0.10794 0.0
H2084 H 0.09283 0.4416 1.02 0.0
C2085 C 0.1056 0.49 0.15137 0.0
C2086 C 0.09944 0.46037 0.14856 0.0
H2087 H 0.11075 0.52526 0.11271 0.0
H2088 H 0.10882 0.50422 0.18761 0.0
C2089 C 0.09528 0.44319 0.10015 0.0
C2090 C 0.7366 0.8235 0.20378 0.0
C2091 C 0.7257 0.8489 0.19089 0.0
H2092 H 0.76131 0.8044 0.25471 0.0
C2093 C 0.73194 0.87559 0.22312 0.0
H2094 H 0.73253 0.80253 0.18005 0.0
C2095 C 0.74804 0.87659 0.26748 0.0
C2096 C 0.75926 0.85105 0.27962 0.0
H2097 H 0.72396 0.89561 0.21456 0.0
H2098 H 0.75204 0.89736 0.29184 0.0
C2099 C 0.75338 0.82459 0.24671 0.0
C2100 C 0.37875 0.51715 0.47422 0.0
C2101 C 0.40427 0.52152 0.501 0.0
H2102 H 0.35804 0.49823 0.40437 0.0
C2103 C 0.42858 0.50817 0.47653 0.0
H2104 H 0.35956 0.52702 0.49157 0.0
C2105 C 0.42755 0.49096 0.42758 0.0
C2106 C 0.40231 0.48703 0.40006 0.0
H2107 H 0.44863 0.51071 0.49565 0.0
H2108 H 0.4469 0.48116 0.41077 0.0
C2109 C 0.37789 0.50063 0.42409 0.0
C2110 C 0.7456 0.1286 0.81671 0.0
C2111 C 0.73134 0.13804 0.77732 0.0
H2112 H 0.74546 0.12379 0.89403 0.0
C2113 C 0.70358 0.14859 0.78778 0.0
H2114 H 0.76698 0.12061 0.81107 0.0
C2115 C 0.69093 0.15022 0.83605 0.0
C2116 C 0.7057 0.14167 0.87577 0.0
H2117 H 0.69154 0.15575 0.75867 0.0
H2118 H 0.66993 0.15913 0.84262 0.0
C2119 C 0.73312 0.13049 0.8648 0.0
C2120 C 0.89429 0.51065 0.30598 0.0
C2121 C 0.8963 0.52841 0.35428 0.0
H2122 H 0.89426 0.50747 0.22602 0.0
C2123 C 0.89836 0.5587 0.3568 0.0
H2124 H 0.89188 0.48742 0.30185 0.0
C2125 C 0.89945 0.57054 0.31242 0.0
C2126 C 0.8985 0.55246 0.26415 0.0
H2127 H 0.89995 0.57329 0.39306 0.0
H2128 H 0.90175 0.59374 0.31604 0.0
C2129 C 0.89534 0.52238 0.26205 0.0
C2130 C 0.24479 0.1235 0.13032 0.0
C2131 C 0.23442 0.14935 0.11799 0.0
H2132 H 0.26821 0.10382 0.18324 0.0
C2133 C 0.24121 0.17565 0.15064 0.0
H2134 H 0.24009 0.10282 0.10622 0.0
C2135 C 0.258 0.17628 0.19345 0.0
C2136 C 0.26804 0.15058 0.20655 0.0
H2137 H 0.23396 0.19607 0.14253 0.0
H2138 H 0.26276 0.19714 0.21694 0.0
C2139 C 0.26091 0.12407 0.17457 0.0
C2140 C 0.62254 0.48079 0.92447 0.0
C2141 C 0.59689 0.47573 0.89823 0.0
H2142 H 0.64332 0.50015 0.99401 0.0
C2143 C 0.57238 0.48816 0.92333 0.0
H2144 H 0.64187 0.47161 0.9066 0.0
C2145 C 0.57335 0.50522 0.97236 0.0
C2146 C 0.59874 0.50989 0.99928 0.0
H2147 H 0.55222 0.48502 0.90468 0.0
H2148 H 0.55385 0.51428 0.98975 0.0
C2149 C 0.62336 0.49715 0.97469 0.0
C2150 C 0.28961 0.84125 0.61152 0.0
C2151 C 0.26663 0.86032 0.62495 0.0
H2152 H 0.32117 0.82391 0.55642 0.0
C2153 C 0.2593 0.87801 0.59031 0.0
H2154 H 0.29654 0.82759 0.63697 0.0
C2155 C 0.27377 0.87603 0.54364 0.0
C2156 C 0.29631 0.85644 0.52983 0.0
H2157 H 0.24172 0.89287 0.59845 0.0
H2158 H 0.2667 0.88934 0.51772 0.0
C2159 C 0.30413 0.83939 0.56509 0.0
C2160 C 0.59624 0.9291 0.58552 0.0
C2161 C 0.59703 0.94722 0.63377 0.0
H2162 H 0.59595 0.92629 0.50486 0.0
C2163 C 0.60011 0.9773 0.63583 0.0
H2164 H 0.59401 0.9059 0.58194 0.0
C2165 C 0.60123 0.989 0.59187 0.0
C2166 C 0.59939 0.9712 0.54359 0.0
H2167 H 0.60107 0.99225 0.67184 0.0
H2168 H 0.60358 0.01224 0.59596 0.0
C2169 C 0.59741 0.94091 0.54112 0.0
C2170 C 0.23874 0.3242 0.70428 0.0
C2171 C 0.22865 0.34989 0.69122 0.0
H2172 H 0.26281 0.30442 0.75517 0.0
C2173 C 0.23575 0.3764 0.72323 0.0
H2174 H 0.23399 0.30334 0.68077 0.0
C2175 C 0.25187 0.37698 0.76747 0.0
C2176 C 0.26228 0.35113 0.77977 0.0
H2177 H 0.22842 0.39665 0.71459 0.0
H2178 H 0.25655 0.39765 0.7916 0.0
C2179 C 0.25553 0.32483 0.74709 0.0
C2180 C 0.92426 0.01302 0.97384 0.0
C2181 C 0.89969 0.02515 0.99917 0.0
H2182 H 0.94283 0.98701 0.90734 0.0
C2183 C 0.87399 0.01974 0.97317 0.0
H2184 H 0.94445 0.01642 0.99231 0.0
C2185 C 0.87316 0.00332 0.92299 0.0
C2186 C 0.89785 0.99089 0.89817 0.0
H2187 H 0.85461 0.02866 0.99122 0.0
H2188 H 0.85316 1.00003 0.90389 0.0
C2189 C 0.9233 0.9959 0.92484 0.0
C2190 C 0.19285 0.66253 0.33438 0.0
C2191 C 0.19988 0.64473 0.36892 0.0
H2192 H 0.20106 0.67478 0.26306 0.0
C2193 C 0.22168 0.62433 0.35442 0.0
H2194 H 0.1764 0.67867 0.34365 0.0
C2195 C 0.23617 0.62222 0.30772 0.0
C2196 C 0.22962 0.64059 0.27376 0.0
H2197 H 0.22814 0.61041 0.37979 0.0
H2198 H 0.25316 0.60666 0.29902 0.0
C2199 C 0.20739 0.66053 0.28795 0.0
C2200 C 0.39976 0.04491 0.84201 0.0
C2201 C 0.39415 0.01505 0.83876 0.0
H2202 H 0.40567 0.08011 0.80242 0.0
C2203 C 0.3892 0.99828 0.79038 0.0
H2204 H 0.40331 0.05881 0.87841 0.0
C2205 C 0.39044 0.01053 0.74699 0.0
C2206 C 0.39668 0.04015 0.74985 0.0
H2207 H 0.38519 0.97524 0.78557 0.0
H2208 H 0.38718 0.99634 0.71073 0.0
C2209 C 0.40087 0.05728 0.79828 0.0
C2210 C 0.75928 0.67647 0.69367 0.0
C2211 C 0.77004 0.65105 0.70669 0.0
H2212 H 0.73468 0.69562 0.64266 0.0
C2213 C 0.76365 0.62436 0.6746 0.0
H2214 H 0.76347 0.69745 0.71729 0.0
C2215 C 0.74755 0.62337 0.63025 0.0
C2216 C 0.73646 0.64894 0.61798 0.0
H2217 H 0.77151 0.60431 0.68327 0.0
H2218 H 0.74342 0.60259 0.60601 0.0
C2219 C 0.7425 0.6754 0.65076 0.0
C2220 C 0.11749 0.98345 0.42327 0.0
C2221 C 0.09185 0.97888 0.39689 0.0
H2222 H 0.13843 0.00251 0.49282 0.0
C2223 C 0.06753 0.99193 0.42181 0.0
H2224 H 0.13668 0.97382 0.40555 0.0
C2225 C 0.06868 0.00909 0.47079 0.0
C2226 C 0.09405 0.01324 0.49789 0.0
H2227 H 0.0474 0.98922 0.40302 0.0
H2228 H 0.04933 0.01867 0.48795 0.0
C2229 C 0.11848 0.99991 0.47344 0.0
C2230 C 0.75034 0.36974 0.0806 0.0
C2231 C 0.76552 0.36253 0.12098 0.0
H2232 H 0.74963 0.37273 1.00251 0.0
C2233 C 0.794 0.35423 0.11137 0.0
H2234 H 0.72841 0.37596 0.08557 0.0
C2235 C 0.80648 0.35254 0.06295 0.0
C2236 C 0.79083 0.35873 1.02223 0.0
H2237 H 0.80674 0.3489 0.14131 0.0
H2238 H 0.82814 0.34555 0.05719 0.0
C2239 C 0.76266 0.3678 1.03241 0.0
loop_
_geom_bond_atom_site_label_1
_geom_bond_atom_site_label_2
_geom_bond_distance
_geom_bond_site_symmetry_2
_ccdc_geom_bond_type
Tb0 C9 2.764 . S
Tb0 O10 2.325 . S
Tb0 O13 2.303 . S
Tb0 O17 2.322 . S
Tb0 O18 2.349 . S
Tb0 O21 2.415 . S
Tb0 O22 2.399 . S
Tb1 O11 2.322 . S
Tb1 O12 2.349 . S
Tb1 O14 2.415 . S
Tb1 O15 2.399 . S
Tb1 O16 2.325 . S
Tb1 O19 2.303 . S
Tb1 C30 2.764 . S
C2 O18 1.261 . S
C2 O19 1.257 . S
C3 C6 1.358 . S
C3 C7 1.332 . S
C3 C9 1.504 . S
C4 C5 1.373 . S
C4 C8 1.308 . S
C5 C4 1.373 . S
C5 C6 1.429 . S
C5 H32 0.932 . S
C6 C3 1.358 . S
C6 C5 1.429 . S
C6 H33 0.930 . S
C7 C3 1.332 . S
C7 C8 1.394 . S
C7 H34 0.932 . S
C8 C4 1.308 . S
C8 C7 1.394 . S
C8 H35 0.929 . S
C9 Tb0 2.764 . S
C9 C3 1.504 . S
C9 O21 1.239 . S
C9 O22 1.263 . S
O10 Tb0 2.325 . S
O10 C20 1.236 . S
O11 Tb1 2.322 . S
O11 C20 1.257 . S
O12 Tb1 2.349 . S
O12 C23 1.261 . S
O13 Tb0 2.303 . S
O13 C23 1.257 . S
O14 Tb1 2.415 . S
O14 C30 1.239 . S
O15 Tb1 2.399 . S
O15 C30 1.263 . S
O16 Tb1 2.325 . S
O16 C31 1.236 . S
O17 Tb0 2.322 . S
O17 C31 1.257 . S
O18 Tb0 2.349 . S
O18 C2 1.261 . S
O19 Tb1 2.303 . S
O19 C2 1.257 . S
C20 O10 1.236 . S
C20 O11 1.257 . S
O21 Tb0 2.415 . S
O21 C9 1.239 . S
O22 Tb0 2.399 . S
O22 C9 1.263 . S
C23 O12 1.261 . S
C23 O13 1.257 . S
C24 C27 1.358 . S
C24 C28 1.332 . S
C24 C30 1.504 . S
C25 C26 1.374 1_556 S
C25 C29 1.308 . S
C26 C25 1.374 1_554 S
C26 C27 1.428 . S
C26 H36 0.932 1_554 S
C27 C24 1.358 . S
C27 C26 1.428 . S
C27 H37 0.930 . S
C28 C24 1.332 . S
C28 C29 1.394 1_554 S
C28 H38 0.932 . S
C29 C25 1.308 . S
C29 C28 1.394 1_556 S
C29 H39 0.929 . S
C30 Tb1 2.764 . S
C30 O14 1.239 . S
C30 O15 1.263 . S
C30 C24 1.504 . S
C31 O16 1.236 . S
C31 O17 1.257 . S
H32 C5 0.932 . S
H33 C6 0.930 . S
H34 C7 0.932 . S
H35 C8 0.929 . S
H36 C26 0.932 1_556 S
H37 C27 0.930 . S
H38 C28 0.932 . S
H39 C29 0.929 . S
Tb40 C49 2.764 . S
Tb40 O50 2.325 . S
Tb40 O53 2.303 . S
Tb40 O57 2.322 . S
Tb40 O58 2.349 . S
Tb40 O61 2.415 . S
Tb40 O62 2.399 . S
Tb41 O51 2.322 . S
Tb41 O52 2.349 . S
Tb41 O54 2.415 . S
Tb41 O55 2.399 . S
Tb41 O56 2.325 . S
Tb41 O59 2.303 . S
Tb41 C70 2.764 . S
C42 O58 1.261 . S
C42 O59 1.257 . S
C43 C46 1.358 . S
C43 C47 1.332 . S
C43 C49 1.504 . S
C44 C45 1.373 . S
C44 C48 1.308 . S
C45 C44 1.373 . S
C45 C46 1.429 . S
C45 H72 0.932 . S
C46 C43 1.358 . S
C46 C45 1.429 . S
C46 H73 0.930 . S
C47 C43 1.332 . S
C47 C48 1.394 . S
C47 H74 0.932 . S
C48 C44 1.308 . S
C48 C47 1.394 . S
C48 H75 0.929 . S
C49 Tb40 2.764 . S
C49 C43 1.504 . S
C49 O61 1.239 . S
C49 O62 1.263 . S
O50 Tb40 2.325 . S
O50 C60 1.236 . S
O51 Tb41 2.322 . S
O51 C60 1.257 . S
O52 Tb41 2.349 . S
O52 C63 1.261 . S
O53 Tb40 2.303 . S
O53 C63 1.257 . S
O54 Tb41 2.415 . S
O54 C70 1.239 . S
O55 Tb41 2.399 . S
O55 C70 1.263 . S
O56 Tb41 2.325 . S
O56 C71 1.236 . S
O57 Tb40 2.322 . S
O57 C71 1.257 . S
O58 Tb40 2.349 . S
O58 C42 1.261 . S
O59 Tb41 2.303 . S
O59 C42 1.257 . S
C60 O50 1.236 . S
C60 O51 1.257 . S
O61 Tb40 2.415 . S
O61 C49 1.239 . S
O62 Tb40 2.399 . S
O62 C49 1.263 . S
C63 O52 1.261 . S
C63 O53 1.257 . S
C64 C67 1.358 . S
C64 C68 1.332 . S
C64 C70 1.504 . S
C65 C66 1.373 . S
C65 C69 1.308 . S
C66 C65 1.373 . S
C66 C67 1.429 . S
C66 H76 0.932 . S
C67 C64 1.358 . S
C67 C66 1.429 . S
C67 H77 0.930 . S
C68 C64 1.332 . S
C68 C69 1.394 . S
C68 H78 0.932 . S
C69 C65 1.308 . S
C69 C68 1.394 . S
C69 H79 0.929 . S
C70 Tb41 2.764 . S
C70 O54 1.239 . S
C70 O55 1.263 . S
C70 C64 1.504 . S
C71 O56 1.236 . S
C71 O57 1.257 . S
H72 C45 0.932 . S
H73 C46 0.930 . S
H74 C47 0.932 . S
H75 C48 0.929 . S
H76 C66 0.932 . S
H77 C67 0.930 . S
H78 C68 0.932 . S
H79 C69 0.929 . S
Tb80 C89 2.764 . S
Tb80 O90 2.325 . S
Tb80 O93 2.303 . S
Tb80 O97 2.322 . S
Tb80 O98 2.349 . S
Tb80 O101 2.415 . S
Tb80 O102 2.399 . S
Tb81 O91 2.322 . S
Tb81 O92 2.349 . S
Tb81 O94 2.415 . S
Tb81 O95 2.399 . S
Tb81 O96 2.325 . S
Tb81 O99 2.303 . S
Tb81 C110 2.764 . S
C82 O98 1.261 . S
C82 O99 1.257 . S
C83 C86 1.358 . S
C83 C87 1.332 . S
C83 C89 1.504 . S
C84 C85 1.373 . S
C84 C88 1.308 . S
C85 C84 1.373 . S
C85 C86 1.429 . S
C85 H112 0.932 . S
C86 C83 1.358 . S
C86 C85 1.429 . S
C86 H113 0.930 . S
C87 C83 1.332 . S
C87 C88 1.394 . S
C87 H114 0.932 . S
C88 C84 1.308 . S
C88 C87 1.394 . S
C88 H115 0.929 . S
C89 Tb80 2.764 . S
C89 C83 1.504 . S
C89 O101 1.239 . S
C89 O102 1.263 . S
O90 Tb80 2.325 . S
O90 C100 1.236 . S
O91 Tb81 2.322 . S
O91 C100 1.257 . S
O92 Tb81 2.349 . S
O92 C103 1.261 . S
O93 Tb80 2.303 . S
O93 C103 1.257 . S
O94 Tb81 2.415 . S
O94 C110 1.239 . S
O95 Tb81 2.399 . S
O95 C110 1.263 . S
O96 Tb81 2.325 . S
O96 C111 1.236 . S
O97 Tb80 2.322 . S
O97 C111 1.257 . S
O98 Tb80 2.349 . S
O98 C82 1.261 . S
O99 Tb81 2.303 . S
O99 C82 1.257 . S
C100 O90 1.236 . S
C100 O91 1.257 . S
O101 Tb80 2.415 . S
O101 C89 1.239 . S
O102 Tb80 2.399 . S
O102 C89 1.263 . S
C103 O92 1.261 . S
C103 O93 1.257 . S
C104 C107 1.358 . S
C104 C108 1.332 . S
C104 C110 1.504 . S
C105 C106 1.373 . S
C105 C109 1.308 . S
C106 C105 1.373 . S
C106 C107 1.429 . S
C106 H116 0.932 . S
C107 C104 1.358 . S
C107 C106 1.429 . S
C107 H117 0.930 . S
C108 C104 1.332 . S
C108 C109 1.394 . S
C108 H118 0.932 . S
C109 C105 1.308 . S
C109 C108 1.394 . S
C109 H119 0.929 . S
C110 Tb81 2.764 . S
C110 O94 1.239 . S
C110 O95 1.263 . S
C110 C104 1.504 . S
C111 O96 1.236 . S
C111 O97 1.257 . S
H112 C85 0.932 . S
H113 C86 0.930 . S
H114 C87 0.932 . S
H115 C88 0.929 . S
H116 C106 0.932 . S
H117 C107 0.930 . S
H118 C108 0.932 . S
H119 C109 0.929 . S
Tb120 C129 2.764 . S
Tb120 O130 2.325 . S
Tb120 O133 2.303 . S
Tb120 O137 2.322 1_554 S
Tb120 O138 2.349 . S
Tb120 O141 2.415 . S
Tb120 O142 2.399 . S
Tb121 O131 2.322 1_556 S
Tb121 O132 2.349 . S
Tb121 O134 2.415 . S
Tb121 O135 2.399 . S
Tb121 O136 2.325 . S
Tb121 O139 2.303 . S
Tb121 C150 2.764 . S
C122 O138 1.261 1_556 S
C122 O139 1.257 . S
C123 C126 1.358 . S
C123 C127 1.332 . S
C123 C129 1.504 . S
C124 C125 1.373 . S
C124 C128 1.308 . S
C125 C124 1.373 . S
C125 C126 1.429 . S
C125 H152 0.932 . S
C126 C123 1.358 . S
C126 C125 1.429 . S
C126 H153 0.930 . S
C127 C123 1.332 . S
C127 C128 1.394 . S
C127 H154 0.932 . S
C128 C124 1.308 . S
C128 C127 1.394 . S
C128 H155 0.929 . S
C129 Tb120 2.764 . S
C129 C123 1.504 . S
C129 O141 1.239 . S
C129 O142 1.263 . S
O130 Tb120 2.325 . S
O130 C140 1.236 . S
O131 Tb121 2.322 1_554 S
O131 C140 1.257 . S
O132 Tb121 2.349 . S
O132 C143 1.261 1_556 S
O133 Tb120 2.303 . S
O133 C143 1.257 . S
O134 Tb121 2.415 . S
O134 C150 1.239 . S
O135 Tb121 2.399 . S
O135 C150 1.263 . S
O136 Tb121 2.325 . S
O136 C151 1.236 . S
O137 Tb120 2.322 1_556 S
O137 C151 1.257 . S
O138 Tb120 2.349 . S
O138 C122 1.261 1_554 S
O139 Tb121 2.303 . S
O139 C122 1.257 . S
C140 O130 1.236 . S
C140 O131 1.257 . S
O141 Tb120 2.415 . S
O141 C129 1.239 . S
O142 Tb120 2.399 . S
O142 C129 1.263 . S
C143 O132 1.261 1_554 S
C143 O133 1.257 . S
C144 C147 1.358 . S
C144 C148 1.332 . S
C144 C150 1.504 . S
C145 C146 1.373 . S
C145 C149 1.308 . S
C146 C145 1.373 . S
C146 C147 1.429 . S
C146 H156 0.932 . S
C147 C144 1.358 . S
C147 C146 1.429 . S
C147 H157 0.930 . S
C148 C144 1.332 . S
C148 C149 1.394 . S
C148 H158 0.932 . S
C149 C145 1.308 . S
C149 C148 1.394 . S
C149 H159 0.929 . S
C150 Tb121 2.764 . S
C150 O134 1.239 . S
C150 O135 1.263 . S
C150 C144 1.504 . S
C151 O136 1.236 . S
C151 O137 1.257 . S
H152 C125 0.932 . S
H153 C126 0.930 . S
H154 C127 0.932 . S
H155 C128 0.929 . S
H156 C146 0.932 . S
H157 C147 0.930 . S
H158 C148 0.932 . S
H159 C149 0.929 . S
Tb160 C169 2.764 . S
Tb160 O170 2.325 . S
Tb160 O173 2.303 . S
Tb160 O177 2.322 . S
Tb160 O178 2.349 . S
Tb160 O181 2.415 . S
Tb160 O182 2.399 . S
Tb161 O171 2.322 . S
Tb161 O172 2.349 . S
Tb161 O174 2.415 . S
Tb161 O175 2.399 . S
Tb161 O176 2.325 . S
Tb161 O179 2.303 . S
Tb161 C190 2.764 . S
C162 O178 1.261 . S
C162 O179 1.257 . S
C163 C166 1.358 . S
C163 C167 1.332 . S
C163 C169 1.504 . S
C164 C165 1.373 . S
C164 C168 1.308 . S
C165 C164 1.373 . S
C165 C166 1.429 . S
C165 H192 0.932 . S
C166 C163 1.358 . S
C166 C165 1.429 . S
C166 H193 0.930 . S
C167 C163 1.332 . S
C167 C168 1.394 . S
C167 H194 0.932 . S
C168 C164 1.308 . S
C168 C167 1.394 . S
C168 H195 0.929 . S
C169 Tb160 2.764 . S
C169 C163 1.504 . S
C169 O181 1.239 . S
C169 O182 1.263 . S
O170 Tb160 2.325 . S
O170 C180 1.236 . S
O171 Tb161 2.322 . S
O171 C180 1.257 . S
O172 Tb161 2.349 . S
O172 C183 1.261 . S
O173 Tb160 2.303 . S
O173 C183 1.257 . S
O174 Tb161 2.415 . S
O174 C190 1.239 . S
O175 Tb161 2.399 . S
O175 C190 1.263 . S
O176 Tb161 2.325 . S
O176 C191 1.236 . S
O177 Tb160 2.322 . S
O177 C191 1.257 . S
O178 Tb160 2.349 . S
O178 C162 1.261 . S
O179 Tb161 2.303 . S
O179 C162 1.257 . S
C180 O170 1.236 . S
C180 O171 1.257 . S
O181 Tb160 2.415 . S
O181 C169 1.239 . S
O182 Tb160 2.399 . S
O182 C169 1.263 . S
C183 O172 1.261 . S
C183 O173 1.257 . S
C184 C187 1.358 1_455 S
C184 C188 1.332 . S
C184 C190 1.504 . S
C185 C186 1.373 1_455 S
C185 C189 1.308 . S
C186 C185 1.373 1_655 S
C186 C187 1.429 . S
C186 H196 0.932 . S
C187 C184 1.358 1_655 S
C187 C186 1.429 . S
C187 H197 0.930 . S
C188 C184 1.332 . S
C188 C189 1.394 . S
C188 H198 0.932 . S
C189 C185 1.308 . S
C189 C188 1.394 . S
C189 H199 0.929 . S
C190 Tb161 2.764 . S
C190 O174 1.239 . S
C190 O175 1.263 . S
C190 C184 1.504 . S
C191 O176 1.236 . S
C191 O177 1.257 . S
H192 C165 0.932 . S
H193 C166 0.930 . S
H194 C167 0.932 . S
H195 C168 0.929 . S
H196 C186 0.932 . S
H197 C187 0.930 . S
H198 C188 0.932 . S
H199 C189 0.929 . S
Tb200 C209 2.764 . S
Tb200 O210 2.325 . S
Tb200 O213 2.303 . S
Tb200 O217 2.322 1_556 S
Tb200 O218 2.349 . S
Tb200 O221 2.415 . S
Tb200 O222 2.399 . S
Tb201 O211 2.322 1_554 S
Tb201 O212 2.349 . S
Tb201 O214 2.415 . S
Tb201 O215 2.399 . S
Tb201 O216 2.325 . S
Tb201 O219 2.303 1_554 S
Tb201 C230 2.764 . S
C202 O218 1.261 . S
C202 O219 1.257 . S
C203 C206 1.358 . S
C203 C207 1.332 . S
C203 C209 1.504 . S
C204 C205 1.373 . S
C204 C208 1.308 . S
C205 C204 1.373 . S
C205 C206 1.429 . S
C205 H232 0.932 . S
C206 C203 1.358 . S
C206 C205 1.429 . S
C206 H233 0.930 . S
C207 C203 1.332 . S
C207 C208 1.394 . S
C207 H234 0.932 . S
C208 C204 1.308 . S
C208 C207 1.394 . S
C208 H235 0.929 . S
C209 Tb200 2.764 . S
C209 C203 1.504 . S
C209 O221 1.239 . S
C209 O222 1.263 . S
O210 Tb200 2.325 . S
O210 C220 1.236 . S
O211 Tb201 2.322 1_556 S
O211 C220 1.257 . S
O212 Tb201 2.349 . S
O212 C223 1.261 1_554 S
O213 Tb200 2.303 . S
O213 C223 1.257 . S
O214 Tb201 2.415 . S
O214 C230 1.239 . S
O215 Tb201 2.399 . S
O215 C230 1.263 . S
O216 Tb201 2.325 . S
O216 C231 1.236 . S
O217 Tb200 2.322 1_554 S
O217 C231 1.257 . S
O218 Tb200 2.349 . S
O218 C202 1.261 . S
O219 Tb201 2.303 1_556 S
O219 C202 1.257 . S
C220 O210 1.236 . S
C220 O211 1.257 . S
O221 Tb200 2.415 . S
O221 C209 1.239 . S
O222 Tb200 2.399 . S
O222 C209 1.263 . S
C223 O212 1.261 1_556 S
C223 O213 1.257 . S
C224 C227 1.358 . S
C224 C228 1.332 . S
C224 C230 1.504 . S
C225 C226 1.373 . S
C225 C229 1.308 . S
C226 C225 1.373 . S
C226 C227 1.429 . S
C226 H236 0.932 . S
C227 C224 1.358 . S
C227 C226 1.429 . S
C227 H237 0.930 . S
C228 C224 1.332 . S
C228 C229 1.394 . S
C228 H238 0.932 . S
C229 C225 1.308 . S
C229 C228 1.394 . S
C229 H239 0.929 . S
C230 Tb201 2.764 . S
C230 O214 1.239 . S
C230 O215 1.263 . S
C230 C224 1.504 . S
C231 O216 1.236 . S
C231 O217 1.257 . S
H232 C205 0.932 . S
H233 C206 0.930 . S
H234 C207 0.932 . S
H235 C208 0.929 . S
H236 C226 0.932 . S
H237 C227 0.930 . S
H238 C228 0.932 . S
H239 C229 0.929 . S
Tb240 C249 2.764 . S
Tb240 O250 2.325 . S
Tb240 O253 2.303 . S
Tb240 O257 2.322 . S
Tb240 O258 2.349 . S
Tb240 O261 2.415 . S
Tb240 O262 2.399 . S
Tb241 O251 2.322 . S
Tb241 O252 2.349 . S
Tb241 O254 2.415 . S
Tb241 O255 2.399 . S
Tb241 O256 2.325 . S
Tb241 O259 2.303 . S
Tb241 C270 2.764 . S
C242 O258 1.261 . S
C242 O259 1.257 . S
C243 C246 1.358 . S
C243 C247 1.332 1_554 S
C243 C249 1.504 . S
C244 C245 1.373 . S
C244 C248 1.308 . S
C245 C244 1.373 . S
C245 C246 1.429 1_556 S
C245 H272 0.932 . S
C246 C243 1.358 . S
C246 C245 1.429 1_554 S
C246 H273 0.930 . S
C247 C243 1.332 1_556 S
C247 C248 1.394 . S
C247 H274 0.932 . S
C248 C244 1.308 . S
C248 C247 1.394 . S
C248 H275 0.929 . S
C249 Tb240 2.764 . S
C249 C243 1.504 . S
C249 O261 1.239 . S
C249 O262 1.263 . S
O250 Tb240 2.325 . S
O250 C260 1.236 . S
O251 Tb241 2.322 . S
O251 C260 1.257 . S
O252 Tb241 2.349 . S
O252 C263 1.261 . S
O253 Tb240 2.303 . S
O253 C263 1.257 . S
O254 Tb241 2.415 . S
O254 C270 1.239 . S
O255 Tb241 2.399 . S
O255 C270 1.263 . S
O256 Tb241 2.325 . S
O256 C271 1.236 . S
O257 Tb240 2.322 . S
O257 C271 1.257 . S
O258 Tb240 2.349 . S
O258 C242 1.261 . S
O259 Tb241 2.303 . S
O259 C242 1.257 . S
C260 O250 1.236 . S
C260 O251 1.257 . S
O261 Tb240 2.415 . S
O261 C249 1.239 . S
O262 Tb240 2.399 . S
O262 C249 1.263 . S
C263 O252 1.261 . S
C263 O253 1.257 . S
C264 C267 1.358 . S
C264 C268 1.332 . S
C264 C270 1.504 . S
C265 C266 1.373 . S
C265 C269 1.308 . S
C266 C265 1.373 . S
C266 C267 1.429 . S
C266 H276 0.932 . S
C267 C264 1.358 . S
C267 C266 1.429 . S
C267 H277 0.930 . S
C268 C264 1.332 . S
C268 C269 1.394 . S
C268 H278 0.932 . S
C269 C265 1.308 . S
C269 C268 1.394 . S
C269 H279 0.929 . S
C270 Tb241 2.764 . S
C270 O254 1.239 . S
C270 O255 1.263 . S
C270 C264 1.504 . S
C271 O256 1.236 . S
C271 O257 1.257 . S
H272 C245 0.932 . S
H273 C246 0.930 . S
H274 C247 0.932 . S
H275 C248 0.929 . S
H276 C266 0.932 . S
H277 C267 0.930 . S
H278 C268 0.932 . S
H279 C269 0.929 . S
Tb280 C289 2.764 . S
Tb280 O290 2.325 . S
Tb280 O293 2.303 . S
Tb280 O297 2.322 . S
Tb280 O298 2.349 . S
Tb280 O301 2.415 . S
Tb280 O302 2.399 . S
Tb281 O291 2.322 . S
Tb281 O292 2.349 . S
Tb281 O294 2.415 . S
Tb281 O295 2.399 . S
Tb281 O296 2.325 . S
Tb281 O299 2.303 . S
Tb281 C310 2.764 . S
C282 O298 1.261 . S
C282 O299 1.257 . S
C283 C286 1.358 . S
C283 C287 1.332 . S
C283 C289 1.504 . S
C284 C285 1.373 . S
C284 C288 1.308 . S
C285 C284 1.373 . S
C285 C286 1.429 . S
C285 H312 0.932 . S
C286 C283 1.358 . S
C286 C285 1.429 . S
C286 H313 0.930 . S
C287 C283 1.332 . S
C287 C288 1.394 . S
C287 H314 0.932 . S
C288 C284 1.308 . S
C288 C287 1.394 . S
C288 H315 0.929 . S
C289 Tb280 2.764 . S
C289 C283 1.504 . S
C289 O301 1.239 . S
C289 O302 1.263 . S
O290 Tb280 2.325 . S
O290 C300 1.236 . S
O291 Tb281 2.322 . S
O291 C300 1.257 . S
O292 Tb281 2.349 . S
O292 C303 1.261 . S
O293 Tb280 2.303 . S
O293 C303 1.257 . S
O294 Tb281 2.415 . S
O294 C310 1.239 . S
O295 Tb281 2.399 . S
O295 C310 1.263 . S
O296 Tb281 2.325 . S
O296 C311 1.236 . S
O297 Tb280 2.322 . S
O297 C311 1.257 . S
O298 Tb280 2.349 . S
O298 C282 1.261 . S
O299 Tb281 2.303 . S
O299 C282 1.257 . S
C300 O290 1.236 . S
C300 O291 1.257 . S
O301 Tb280 2.415 . S
O301 C289 1.239 . S
O302 Tb280 2.399 . S
O302 C289 1.263 . S
C303 O292 1.261 . S
C303 O293 1.257 . S
C304 C307 1.358 . S
C304 C308 1.332 . S
C304 C310 1.504 . S
C305 C306 1.373 . S
C305 C309 1.308 . S
C306 C305 1.373 . S
C306 C307 1.429 . S
C306 H316 0.932 . S
C307 C304 1.358 . S
C307 C306 1.429 . S
C307 H317 0.930 . S
C308 C304 1.332 . S
C308 C309 1.394 . S
C308 H318 0.932 . S
C309 C305 1.308 . S
C309 C308 1.394 . S
C309 H319 0.929 . S
C310 Tb281 2.764 . S
C310 O294 1.239 . S
C310 O295 1.263 . S
C310 C304 1.504 . S
C311 O296 1.236 . S
C311 O297 1.257 . S
H312 C285 0.932 . S
H313 C286 0.930 . S
H314 C287 0.932 . S
H315 C288 0.929 . S
H316 C306 0.932 . S
H317 C307 0.930 . S
H318 C308 0.932 . S
H319 C309 0.929 . S
Tb320 C329 2.764 . S
Tb320 O330 2.325 . S
Tb320 O333 2.303 . S
Tb320 O337 2.322 . S
Tb320 O338 2.349 . S
Tb320 O341 2.415 . S
Tb320 O342 2.399 . S
Tb321 O331 2.322 . S
Tb321 O332 2.349 . S
Tb321 O334 2.415 1_554 S
Tb321 O335 2.399 1_554 S
Tb321 O336 2.325 1_554 S
Tb321 O339 2.303 . S
Tb321 C350 2.764 1_554 S
C322 O338 1.261 . S
C322 O339 1.257 . S
C323 C326 1.358 . S
C323 C327 1.332 . S
C323 C329 1.504 . S
C324 C325 1.373 . S
C324 C328 1.308 . S
C325 C324 1.373 . S
C325 C326 1.429 . S
C325 H352 0.932 . S
C326 C323 1.358 . S
C326 C325 1.429 . S
C326 H353 0.930 . S
C327 C323 1.332 . S
C327 C328 1.394 . S
C327 H354 0.932 . S
C328 C324 1.308 . S
C328 C327 1.394 . S
C328 H355 0.929 . S
C329 Tb320 2.764 . S
C329 C323 1.504 . S
C329 O341 1.239 . S
C329 O342 1.263 . S
O330 Tb320 2.325 . S
O330 C340 1.236 . S
O331 Tb321 2.322 . S
O331 C340 1.257 . S
O332 Tb321 2.349 . S
O332 C343 1.261 . S
O333 Tb320 2.303 . S
O333 C343 1.257 . S
O334 Tb321 2.415 1_556 S
O334 C350 1.239 . S
O335 Tb321 2.399 1_556 S
O335 C350 1.263 . S
O336 Tb321 2.325 1_556 S
O336 C351 1.236 . S
O337 Tb320 2.322 . S
O337 C351 1.257 1_554 S
O338 Tb320 2.349 . S
O338 C322 1.261 . S
O339 Tb321 2.303 . S
O339 C322 1.257 . S
C340 O330 1.236 . S
C340 O331 1.257 . S
O341 Tb320 2.415 . S
O341 C329 1.239 . S
O342 Tb320 2.399 . S
O342 C329 1.263 . S
C343 O332 1.261 . S
C343 O333 1.257 . S
C344 C347 1.358 . S
C344 C348 1.332 . S
C344 C350 1.504 . S
C345 C346 1.373 . S
C345 C349 1.308 . S
C346 C345 1.373 . S
C346 C347 1.429 . S
C346 H356 0.932 . S
C347 C344 1.358 . S
C347 C346 1.429 . S
C347 H357 0.930 . S
C348 C344 1.332 . S
C348 C349 1.394 . S
C348 H358 0.932 . S
C349 C345 1.308 . S
C349 C348 1.394 . S
C349 H359 0.929 . S
C350 Tb321 2.764 1_556 S
C350 O334 1.239 . S
C350 O335 1.263 . S
C350 C344 1.504 . S
C351 O336 1.236 . S
C351 O337 1.257 1_556 S
H352 C325 0.932 . S
H353 C326 0.930 . S
H354 C327 0.932 . S
H355 C328 0.929 . S
H356 C346 0.932 . S
H357 C347 0.930 . S
H358 C348 0.932 . S
H359 C349 0.929 . S
Tb360 C369 2.764 1_556 S
Tb360 O370 2.325 1_556 S
Tb360 O373 2.303 . S
Tb360 O377 2.322 . S
Tb360 O378 2.349 . S
Tb360 O381 2.415 1_556 S
Tb360 O382 2.399 1_556 S
Tb361 O371 2.322 . S
Tb361 O372 2.349 . S
Tb361 O374 2.415 . S
Tb361 O375 2.399 . S
Tb361 O376 2.325 . S
Tb361 O379 2.303 . S
Tb361 C390 2.764 . S
C362 O378 1.261 . S
C362 O379 1.257 . S
C363 C366 1.358 . S
C363 C367 1.332 . S
C363 C369 1.504 . S
C364 C365 1.373 . S
C364 C368 1.308 . S
C365 C364 1.373 . S
C365 C366 1.429 . S
C365 H392 0.932 . S
C366 C363 1.358 . S
C366 C365 1.429 . S
C366 H393 0.930 . S
C367 C363 1.332 . S
C367 C368 1.394 . S
C367 H394 0.932 . S
C368 C364 1.308 . S
C368 C367 1.394 . S
C368 H395 0.929 . S
C369 Tb360 2.764 1_554 S
C369 C363 1.504 . S
C369 O381 1.239 . S
C369 O382 1.263 . S
O370 Tb360 2.325 1_554 S
O370 C380 1.236 . S
O371 Tb361 2.322 . S
O371 C380 1.257 1_556 S
O372 Tb361 2.349 . S
O372 C383 1.261 . S
O373 Tb360 2.303 . S
O373 C383 1.257 . S
O374 Tb361 2.415 . S
O374 C390 1.239 . S
O375 Tb361 2.399 . S
O375 C390 1.263 . S
O376 Tb361 2.325 . S
O376 C391 1.236 . S
O377 Tb360 2.322 . S
O377 C391 1.257 . S
O378 Tb360 2.349 . S
O378 C362 1.261 . S
O379 Tb361 2.303 . S
O379 C362 1.257 . S
C380 O370 1.236 . S
C380 O371 1.257 1_554 S
O381 Tb360 2.415 1_554 S
O381 C369 1.239 . S
O382 Tb360 2.399 1_554 S
O382 C369 1.263 . S
C383 O372 1.261 . S
C383 O373 1.257 . S
C384 C387 1.358 . S
C384 C388 1.332 . S
C384 C390 1.504 . S
C385 C386 1.373 . S
C385 C389 1.308 . S
C386 C385 1.373 . S
C386 C387 1.429 . S
C386 H396 0.932 . S
C387 C384 1.358 . S
C387 C386 1.429 . S
C387 H397 0.930 . S
C388 C384 1.332 . S
C388 C389 1.394 . S
C388 H398 0.932 . S
C389 C385 1.308 . S
C389 C388 1.394 . S
C389 H399 0.929 . S
C390 Tb361 2.764 . S
C390 O374 1.239 . S
C390 O375 1.263 . S
C390 C384 1.504 . S
C391 O376 1.236 . S
C391 O377 1.257 . S
H392 C365 0.932 . S
H393 C366 0.930 . S
H394 C367 0.932 . S
H395 C368 0.929 . S
H396 C386 0.932 . S
H397 C387 0.930 . S
H398 C388 0.932 . S
H399 C389 0.929 . S
Tb400 C409 2.764 . S
Tb400 O410 2.325 . S
Tb400 O413 2.303 . S
Tb400 O417 2.322 . S
Tb400 O418 2.349 . S
Tb400 O421 2.415 . S
Tb400 O422 2.399 . S
Tb401 O411 2.322 . S
Tb401 O412 2.349 . S
Tb401 O414 2.415 . S
Tb401 O415 2.399 . S
Tb401 O416 2.325 . S
Tb401 O419 2.303 . S
Tb401 C430 2.764 . S
C402 O418 1.261 . S
C402 O419 1.257 . S
C403 C406 1.358 . S
C403 C407 1.332 . S
C403 C409 1.504 . S
C404 C405 1.373 . S
C404 C408 1.308 . S
C405 C404 1.373 . S
C405 C406 1.429 . S
C405 H432 0.932 . S
C406 C403 1.358 . S
C406 C405 1.429 . S
C406 H433 0.930 . S
C407 C403 1.332 . S
C407 C408 1.394 . S
C407 H434 0.932 . S
C408 C404 1.308 . S
C408 C407 1.394 . S
C408 H435 0.929 . S
C409 Tb400 2.764 . S
C409 C403 1.504 . S
C409 O421 1.239 . S
C409 O422 1.263 . S
O410 Tb400 2.325 . S
O410 C420 1.236 . S
O411 Tb401 2.322 . S
O411 C420 1.257 . S
O412 Tb401 2.349 . S
O412 C423 1.261 . S
O413 Tb400 2.303 . S
O413 C423 1.257 . S
O414 Tb401 2.415 . S
O414 C430 1.239 . S
O415 Tb401 2.399 . S
O415 C430 1.263 . S
O416 Tb401 2.325 . S
O416 C431 1.236 . S
O417 Tb400 2.322 . S
O417 C431 1.257 . S
O418 Tb400 2.349 . S
O418 C402 1.261 . S
O419 Tb401 2.303 . S
O419 C402 1.257 . S
C420 O410 1.236 . S
C420 O411 1.257 . S
O421 Tb400 2.415 . S
O421 C409 1.239 . S
O422 Tb400 2.399 . S
O422 C409 1.263 . S
C423 O412 1.261 . S
C423 O413 1.257 . S
C424 C427 1.358 . S
C424 C428 1.332 . S
C424 C430 1.504 . S
C425 C426 1.373 . S
C425 C429 1.308 . S
C426 C425 1.373 . S
C426 C427 1.429 . S
C426 H436 0.932 . S
C427 C424 1.358 . S
C427 C426 1.429 . S
C427 H437 0.930 . S
C428 C424 1.332 . S
C428 C429 1.394 . S
C428 H438 0.932 . S
C429 C425 1.308 . S
C429 C428 1.394 . S
C429 H439 0.929 . S
C430 Tb401 2.764 . S
C430 O414 1.239 . S
C430 O415 1.263 . S
C430 C424 1.504 . S
C431 O416 1.236 . S
C431 O417 1.257 . S
H432 C405 0.932 . S
H433 C406 0.930 . S
H434 C407 0.932 . S
H435 C408 0.929 . S
H436 C426 0.932 . S
H437 C427 0.930 . S
H438 C428 0.932 . S
H439 C429 0.929 . S
Tb440 C449 2.764 . S
Tb440 O450 2.325 . S
Tb440 O453 2.303 . S
Tb440 O457 2.322 . S
Tb440 O458 2.349 . S
Tb440 O461 2.415 . S
Tb440 O462 2.399 . S
Tb441 O451 2.322 . S
Tb441 O452 2.349 . S
Tb441 O454 2.415 . S
Tb441 O455 2.399 . S
Tb441 O456 2.325 . S
Tb441 O459 2.303 . S
Tb441 C470 2.764 . S
C442 O458 1.261 . S
C442 O459 1.257 . S
C443 C446 1.358 . S
C443 C447 1.332 . S
C443 C449 1.504 . S
C444 C445 1.373 . S
C444 C448 1.308 . S
C445 C444 1.373 . S
C445 C446 1.429 . S
C445 H472 0.932 . S
C446 C443 1.358 . S
C446 C445 1.429 . S
C446 H473 0.930 . S
C447 C443 1.332 . S
C447 C448 1.394 . S
C447 H474 0.932 . S
C448 C444 1.308 . S
C448 C447 1.394 . S
C448 H475 0.929 . S
C449 Tb440 2.764 . S
C449 C443 1.504 . S
C449 O461 1.239 . S
C449 O462 1.263 . S
O450 Tb440 2.325 . S
O450 C460 1.236 . S
O451 Tb441 2.322 . S
O451 C460 1.257 . S
O452 Tb441 2.349 . S
O452 C463 1.261 . S
O453 Tb440 2.303 . S
O453 C463 1.257 . S
O454 Tb441 2.415 . S
O454 C470 1.239 . S
O455 Tb441 2.399 . S
O455 C470 1.263 . S
O456 Tb441 2.325 . S
O456 C471 1.236 . S
O457 Tb440 2.322 . S
O457 C471 1.257 . S
O458 Tb440 2.349 . S
O458 C442 1.261 . S
O459 Tb441 2.303 . S
O459 C442 1.257 . S
C460 O450 1.236 . S
C460 O451 1.257 . S
O461 Tb440 2.415 . S
O461 C449 1.239 . S
O462 Tb440 2.399 . S
O462 C449 1.263 . S
C463 O452 1.261 . S
C463 O453 1.257 . S
C464 C467 1.358 . S
C464 C468 1.332 . S
C464 C470 1.504 . S
C465 C466 1.373 . S
C465 C469 1.308 . S
C466 C465 1.373 . S
C466 C467 1.429 . S
C466 H476 0.932 . S
C467 C464 1.358 . S
C467 C466 1.429 . S
C467 H477 0.930 . S
C468 C464 1.332 . S
C468 C469 1.394 . S
C468 H478 0.932 . S
C469 C465 1.308 . S
C469 C468 1.394 . S
C469 H479 0.929 . S
C470 Tb441 2.764 . S
C470 O454 1.239 . S
C470 O455 1.263 . S
C470 C464 1.504 . S
C471 O456 1.236 . S
C471 O457 1.257 . S
H472 C445 0.932 . S
H473 C446 0.930 . S
H474 C447 0.932 . S
H475 C448 0.929 . S
H476 C466 0.932 . S
H477 C467 0.930 . S
H478 C468 0.932 . S
H479 C469 0.929 . S
Tb480 C489 2.764 . S
Tb480 O490 2.325 . S
Tb480 O493 2.303 . S
Tb480 O497 2.322 . S
Tb480 O498 2.349 . S
Tb480 O501 2.415 . S
Tb480 O502 2.399 . S
Tb481 O491 2.322 . S
Tb481 O492 2.349 . S
Tb481 O494 2.415 . S
Tb481 O495 2.399 . S
Tb481 O496 2.325 . S
Tb481 O499 2.303 . S
Tb481 C510 2.764 . S
C482 O498 1.261 . S
C482 O499 1.257 . S
C483 C486 1.358 1_655 S
C483 C487 1.332 . S
C483 C489 1.504 . S
C484 C485 1.373 1_655 S
C484 C488 1.308 . S
C485 C484 1.373 1_455 S
C485 C486 1.429 . S
C485 H512 0.932 . S
C486 C483 1.358 1_455 S
C486 C485 1.429 . S
C486 H513 0.930 . S
C487 C483 1.332 . S
C487 C488 1.394 . S
C487 H514 0.932 . S
C488 C484 1.308 . S
C488 C487 1.394 . S
C488 H515 0.929 . S
C489 Tb480 2.764 . S
C489 C483 1.504 . S
C489 O501 1.239 . S
C489 O502 1.263 . S
O490 Tb480 2.325 . S
O490 C500 1.236 . S
O491 Tb481 2.322 . S
O491 C500 1.257 . S
O492 Tb481 2.349 . S
O492 C503 1.261 . S
O493 Tb480 2.303 . S
O493 C503 1.257 . S
O494 Tb481 2.415 . S
O494 C510 1.239 . S
O495 Tb481 2.399 . S
O495 C510 1.263 . S
O496 Tb481 2.325 . S
O496 C511 1.236 . S
O497 Tb480 2.322 . S
O497 C511 1.257 . S
O498 Tb480 2.349 . S
O498 C482 1.261 . S
O499 Tb481 2.303 . S
O499 C482 1.257 . S
C500 O490 1.236 . S
C500 O491 1.257 . S
O501 Tb480 2.415 . S
O501 C489 1.239 . S
O502 Tb480 2.399 . S
O502 C489 1.263 . S
C503 O492 1.261 . S
C503 O493 1.257 . S
C504 C507 1.358 . S
C504 C508 1.332 . S
C504 C510 1.504 . S
C505 C506 1.373 . S
C505 C509 1.308 . S
C506 C505 1.373 . S
C506 C507 1.429 . S
C506 H516 0.932 . S
C507 C504 1.358 . S
C507 C506 1.429 . S
C507 H517 0.930 . S
C508 C504 1.332 . S
C508 C509 1.394 . S
C508 H518 0.932 . S
C509 C505 1.308 . S
C509 C508 1.394 . S
C509 H519 0.929 . S
C510 Tb481 2.764 . S
C510 O494 1.239 . S
C510 O495 1.263 . S
C510 C504 1.504 . S
C511 O496 1.236 . S
C511 O497 1.257 . S
H512 C485 0.932 . S
H513 C486 0.930 . S
H514 C487 0.932 . S
H515 C488 0.929 . S
H516 C506 0.932 . S
H517 C507 0.930 . S
H518 C508 0.932 . S
H519 C509 0.929 . S
Tb520 C529 2.764 . S
Tb520 O530 2.325 . S
Tb520 O533 2.303 . S
Tb520 O537 2.322 . S
Tb520 O538 2.349 . S
Tb520 O541 2.415 . S
Tb520 O542 2.399 . S
Tb521 O531 2.322 . S
Tb521 O532 2.349 . S
Tb521 O534 2.415 . S
Tb521 O535 2.399 . S
Tb521 O536 2.325 . S
Tb521 O539 2.303 . S
Tb521 C550 2.764 . S
C522 O538 1.261 . S
C522 O539 1.257 . S
C523 C526 1.358 . S
C523 C527 1.332 . S
C523 C529 1.504 . S
C524 C525 1.373 . S
C524 C528 1.308 . S
C525 C524 1.373 . S
C525 C526 1.429 . S
C525 H552 0.932 . S
C526 C523 1.358 . S
C526 C525 1.429 . S
C526 H553 0.930 . S
C527 C523 1.332 . S
C527 C528 1.394 . S
C527 H554 0.932 . S
C528 C524 1.308 . S
C528 C527 1.394 . S
C528 H555 0.929 . S
C529 Tb520 2.764 . S
C529 C523 1.504 . S
C529 O541 1.239 . S
C529 O542 1.263 . S
O530 Tb520 2.325 . S
O530 C540 1.236 . S
O531 Tb521 2.322 . S
O531 C540 1.257 . S
O532 Tb521 2.349 . S
O532 C543 1.261 . S
O533 Tb520 2.303 . S
O533 C543 1.257 . S
O534 Tb521 2.415 . S
O534 C550 1.239 . S
O535 Tb521 2.399 . S
O535 C550 1.263 . S
O536 Tb521 2.325 . S
O536 C551 1.236 . S
O537 Tb520 2.322 . S
O537 C551 1.257 . S
O538 Tb520 2.349 . S
O538 C522 1.261 . S
O539 Tb521 2.303 . S
O539 C522 1.257 . S
C540 O530 1.236 . S
C540 O531 1.257 . S
O541 Tb520 2.415 . S
O541 C529 1.239 . S
O542 Tb520 2.399 . S
O542 C529 1.263 . S
C543 O532 1.261 . S
C543 O533 1.257 . S
C544 C547 1.358 . S
C544 C548 1.332 . S
C544 C550 1.504 . S
C545 C546 1.373 . S
C545 C549 1.308 . S
C546 C545 1.373 . S
C546 C547 1.429 . S
C546 H556 0.932 . S
C547 C544 1.358 . S
C547 C546 1.429 . S
C547 H557 0.930 . S
C548 C544 1.332 . S
C548 C549 1.394 . S
C548 H558 0.932 . S
C549 C545 1.308 . S
C549 C548 1.394 . S
C549 H559 0.929 . S
C550 Tb521 2.764 . S
C550 O534 1.239 . S
C550 O535 1.263 . S
C550 C544 1.504 . S
C551 O536 1.236 . S
C551 O537 1.257 . S
H552 C525 0.932 . S
H553 C526 0.930 . S
H554 C527 0.932 . S
H555 C528 0.929 . S
H556 C546 0.932 . S
H557 C547 0.930 . S
H558 C548 0.932 . S
H559 C549 0.929 . S
Tb560 C569 2.764 . S
Tb560 O570 2.325 . S
Tb560 O573 2.303 . S
Tb560 O577 2.322 . S
Tb560 O578 2.349 . S
Tb560 O581 2.415 . S
Tb560 O582 2.399 . S
Tb561 O571 2.322 . S
Tb561 O572 2.349 . S
Tb561 O574 2.415 . S
Tb561 O575 2.399 . S
Tb561 O576 2.325 . S
Tb561 O579 2.303 . S
Tb561 C590 2.764 . S
C562 O578 1.261 . S
C562 O579 1.257 . S
C563 C566 1.358 . S
C563 C567 1.332 . S
C563 C569 1.504 1_556 S
C564 C565 1.373 . S
C564 C568 1.308 . S
C565 C564 1.373 . S
C565 C566 1.429 . S
C565 H592 0.932 . S
C566 C563 1.358 . S
C566 C565 1.429 . S
C566 H593 0.930 . S
C567 C563 1.332 . S
C567 C568 1.394 . S
C567 H594 0.932 . S
C568 C564 1.308 . S
C568 C567 1.394 . S
C568 H595 0.929 . S
C569 Tb560 2.764 . S
C569 C563 1.504 1_554 S
C569 O581 1.239 . S
C569 O582 1.263 . S
O570 Tb560 2.325 . S
O570 C580 1.236 . S
O571 Tb561 2.322 . S
O571 C580 1.257 . S
O572 Tb561 2.349 . S
O572 C583 1.261 . S
O573 Tb560 2.303 . S
O573 C583 1.257 . S
O574 Tb561 2.415 . S
O574 C590 1.239 . S
O575 Tb561 2.399 . S
O575 C590 1.263 . S
O576 Tb561 2.325 . S
O576 C591 1.236 . S
O577 Tb560 2.322 . S
O577 C591 1.257 . S
O578 Tb560 2.349 . S
O578 C562 1.261 . S
O579 Tb561 2.303 . S
O579 C562 1.257 . S
C580 O570 1.236 . S
C580 O571 1.257 . S
O581 Tb560 2.415 . S
O581 C569 1.239 . S
O582 Tb560 2.399 . S
O582 C569 1.263 . S
C583 O572 1.261 . S
C583 O573 1.257 . S
C584 C587 1.358 . S
C584 C588 1.332 . S
C584 C590 1.504 . S
C585 C586 1.373 . S
C585 C589 1.308 . S
C586 C585 1.373 . S
C586 C587 1.429 . S
C586 H596 0.932 . S
C587 C584 1.358 . S
C587 C586 1.429 . S
C587 H597 0.930 . S
C588 C584 1.332 . S
C588 C589 1.394 . S
C588 H598 0.932 . S
C589 C585 1.308 . S
C589 C588 1.394 . S
C589 H599 0.929 . S
C590 Tb561 2.764 . S
C590 O574 1.239 . S
C590 O575 1.263 . S
C590 C584 1.504 . S
C591 O576 1.236 . S
C591 O577 1.257 . S
H592 C565 0.932 . S
H593 C566 0.930 . S
H594 C567 0.932 . S
H595 C568 0.929 . S
H596 C586 0.932 . S
H597 C587 0.930 . S
H598 C588 0.932 . S
H599 C589 0.929 . S
Tb600 C609 2.764 . S
Tb600 O610 2.325 . S
Tb600 O613 2.303 . S
Tb600 O617 2.322 . S
Tb600 O618 2.349 . S
Tb600 O621 2.415 . S
Tb600 O622 2.399 . S
Tb601 O611 2.322 . S
Tb601 O612 2.349 . S
Tb601 O614 2.415 . S
Tb601 O615 2.399 . S
Tb601 O616 2.325 . S
Tb601 O619 2.303 . S
Tb601 C630 2.764 . S
C602 O618 1.261 . S
C602 O619 1.257 . S
C603 C606 1.358 . S
C603 C607 1.332 . S
C603 C609 1.504 1_554 S
C604 C605 1.373 . S
C604 C608 1.308 . S
C605 C604 1.373 . S
C605 C606 1.429 . S
C605 H632 0.932 . S
C606 C603 1.358 . S
C606 C605 1.429 . S
C606 H633 0.930 . S
C607 C603 1.332 . S
C607 C608 1.394 . S
C607 H634 0.932 . S
C608 C604 1.308 . S
C608 C607 1.394 . S
C608 H635 0.929 . S
C609 Tb600 2.764 . S
C609 C603 1.504 1_556 S
C609 O621 1.239 . S
C609 O622 1.263 . S
O610 Tb600 2.325 . S
O610 C620 1.236 . S
O611 Tb601 2.322 . S
O611 C620 1.257 . S
O612 Tb601 2.349 . S
O612 C623 1.261 . S
O613 Tb600 2.303 . S
O613 C623 1.257 . S
O614 Tb601 2.415 . S
O614 C630 1.239 . S
O615 Tb601 2.399 . S
O615 C630 1.263 . S
O616 Tb601 2.325 . S
O616 C631 1.236 . S
O617 Tb600 2.322 . S
O617 C631 1.257 . S
O618 Tb600 2.349 . S
O618 C602 1.261 . S
O619 Tb601 2.303 . S
O619 C602 1.257 . S
C620 O610 1.236 . S
C620 O611 1.257 . S
O621 Tb600 2.415 . S
O621 C609 1.239 . S
O622 Tb600 2.399 . S
O622 C609 1.263 . S
C623 O612 1.261 . S
C623 O613 1.257 . S
C624 C627 1.358 . S
C624 C628 1.332 . S
C624 C630 1.504 . S
C625 C626 1.373 . S
C625 C629 1.308 . S
C626 C625 1.373 . S
C626 C627 1.429 . S
C626 H636 0.932 . S
C627 C624 1.358 . S
C627 C626 1.429 . S
C627 H637 0.930 . S
C628 C624 1.332 . S
C628 C629 1.394 . S
C628 H638 0.932 . S
C629 C625 1.308 . S
C629 C628 1.394 . S
C629 H639 0.929 . S
C630 Tb601 2.764 . S
C630 O614 1.239 . S
C630 O615 1.263 . S
C630 C624 1.504 . S
C631 O616 1.236 . S
C631 O617 1.257 . S
H632 C605 0.932 . S
H633 C606 0.930 . S
H634 C607 0.932 . S
H635 C608 0.929 . S
H636 C626 0.932 . S
H637 C627 0.930 . S
H638 C628 0.932 . S
H639 C629 0.929 . S
Tb640 C649 2.764 1_565 S
Tb640 O650 2.325 . S
Tb640 O653 2.303 . S
Tb640 O657 2.322 . S
Tb640 O658 2.349 1_565 S
Tb640 O661 2.415 . S
Tb640 O662 2.399 1_565 S
Tb641 O651 2.322 . S
Tb641 O652 2.349 . S
Tb641 O654 2.415 . S
Tb641 O655 2.399 . S
Tb641 O656 2.325 . S
Tb641 O659 2.303 . S
Tb641 C670 2.764 . S
C642 O658 1.261 1_565 S
C642 O659 1.257 . S
C643 C646 1.358 . S
C643 C647 1.332 1_545 S
C643 C649 1.504 . S
C644 C645 1.373 . S
C644 C648 1.308 . S
C645 C644 1.373 . S
C645 C646 1.429 1_554 S
C645 H672 0.932 . S
C646 C643 1.358 . S
C646 C645 1.429 1_556 S
C646 H673 0.930 . S
C647 C643 1.332 1_565 S
C647 C648 1.394 1_566 S
C647 H674 0.932 . S
C648 C644 1.308 . S
C648 C647 1.394 1_544 S
C648 H675 0.929 1_545 S
C649 Tb640 2.764 1_545 S
C649 C643 1.504 . S
C649 O661 1.239 1_545 S
C649 O662 1.263 . S
O650 Tb640 2.325 . S
O650 C660 1.236 . S
O651 Tb641 2.322 . S
O651 C660 1.257 . S
O652 Tb641 2.349 . S
O652 C663 1.261 . S
O653 Tb640 2.303 . S
O653 C663 1.257 . S
O654 Tb641 2.415 . S
O654 C670 1.239 . S
O655 Tb641 2.399 . S
O655 C670 1.263 . S
O656 Tb641 2.325 . S
O656 C671 1.236 . S
O657 Tb640 2.322 . S
O657 C671 1.257 . S
O658 Tb640 2.349 1_545 S
O658 C642 1.261 1_545 S
O659 Tb641 2.303 . S
O659 C642 1.257 . S
C660 O650 1.236 . S
C660 O651 1.257 . S
O661 Tb640 2.415 . S
O661 C649 1.239 1_565 S
O662 Tb640 2.399 1_545 S
O662 C649 1.263 . S
C663 O652 1.261 . S
C663 O653 1.257 . S
C664 C667 1.358 . S
C664 C668 1.332 . S
C664 C670 1.504 . S
C665 C666 1.373 . S
C665 C669 1.308 . S
C666 C665 1.373 . S
C666 C667 1.429 . S
C666 H676 0.932 . S
C667 C664 1.358 . S
C667 C666 1.429 . S
C667 H677 0.930 . S
C668 C664 1.332 . S
C668 C669 1.394 . S
C668 H678 0.932 . S
C669 C665 1.308 . S
C669 C668 1.394 . S
C669 H679 0.929 . S
C670 Tb641 2.764 . S
C670 O654 1.239 . S
C670 O655 1.263 . S
C670 C664 1.504 . S
C671 O656 1.236 . S
C671 O657 1.257 . S
H672 C645 0.932 . S
H673 C646 0.930 . S
H674 C647 0.932 . S
H675 C648 0.929 1_565 S
H676 C666 0.932 . S
H677 C667 0.930 . S
H678 C668 0.932 . S
H679 C669 0.929 . S
Tb680 C689 2.764 1_556 S
Tb680 O690 2.325 . S
Tb680 O693 2.303 . S
Tb680 O697 2.322 . S
Tb680 O698 2.349 . S
Tb680 O701 2.415 1_556 S
Tb680 O702 2.399 . S
Tb681 O691 2.322 . S
Tb681 O692 2.349 . S
Tb681 O694 2.415 . S
Tb681 O695 2.399 . S
Tb681 O696 2.325 . S
Tb681 O699 2.303 . S
Tb681 C710 2.764 . S
C682 O698 1.261 . S
C682 O699 1.257 . S
C683 C686 1.358 . S
C683 C687 1.332 . S
C683 C689 1.504 . S
C684 C685 1.373 . S
C684 C688 1.308 . S
C685 C684 1.373 . S
C685 C686 1.429 . S
C685 H712 0.932 . S
C686 C683 1.358 . S
C686 C685 1.429 . S
C686 H713 0.930 . S
C687 C683 1.332 . S
C687 C688 1.394 . S
C687 H714 0.932 . S
C688 C684 1.308 . S
C688 C687 1.394 . S
C688 H715 0.929 . S
C689 Tb680 2.764 1_554 S
C689 C683 1.504 . S
C689 O701 1.239 . S
C689 O702 1.263 1_554 S
O690 Tb680 2.325 . S
O690 C700 1.236 . S
O691 Tb681 2.322 . S
O691 C700 1.257 . S
O692 Tb681 2.349 . S
O692 C703 1.261 . S
O693 Tb680 2.303 . S
O693 C703 1.257 . S
O694 Tb681 2.415 . S
O694 C710 1.239 . S
O695 Tb681 2.399 . S
O695 C710 1.263 . S
O696 Tb681 2.325 . S
O696 C711 1.236 . S
O697 Tb680 2.322 . S
O697 C711 1.257 . S
O698 Tb680 2.349 . S
O698 C682 1.261 . S
O699 Tb681 2.303 . S
O699 C682 1.257 . S
C700 O690 1.236 . S
C700 O691 1.257 . S
O701 Tb680 2.415 1_554 S
O701 C689 1.239 . S
O702 Tb680 2.399 . S
O702 C689 1.263 1_556 S
C703 O692 1.261 . S
C703 O693 1.257 . S
C704 C707 1.358 . S
C704 C708 1.332 . S
C704 C710 1.504 . S
C705 C706 1.373 . S
C705 C709 1.308 . S
C706 C705 1.373 . S
C706 C707 1.429 . S
C706 H716 0.932 . S
C707 C704 1.358 . S
C707 C706 1.429 . S
C707 H717 0.930 . S
C708 C704 1.332 . S
C708 C709 1.394 . S
C708 H718 0.932 . S
C709 C705 1.308 . S
C709 C708 1.394 . S
C709 H719 0.929 . S
C710 Tb681 2.764 . S
C710 O694 1.239 . S
C710 O695 1.263 . S
C710 C704 1.504 . S
C711 O696 1.236 . S
C711 O697 1.257 . S
H712 C685 0.932 . S
H713 C686 0.930 . S
H714 C687 0.932 . S
H715 C688 0.929 . S
H716 C706 0.932 . S
H717 C707 0.930 . S
H718 C708 0.932 . S
H719 C709 0.929 . S
Tb720 C729 2.764 . S
Tb720 O730 2.325 . S
Tb720 O733 2.303 . S
Tb720 O737 2.322 . S
Tb720 O738 2.349 . S
Tb720 O741 2.415 . S
Tb720 O742 2.399 . S
Tb721 O731 2.322 . S
Tb721 O732 2.349 . S
Tb721 O734 2.415 . S
Tb721 O735 2.399 . S
Tb721 O736 2.325 . S
Tb721 O739 2.303 . S
Tb721 C750 2.764 . S
C722 O738 1.261 . S
C722 O739 1.257 . S
C723 C726 1.358 . S
C723 C727 1.332 . S
C723 C729 1.504 . S
C724 C725 1.373 . S
C724 C728 1.308 . S
C725 C724 1.373 . S
C725 C726 1.429 . S
C725 H752 0.932 1_545 S
C726 C723 1.358 . S
C726 C725 1.429 . S
C726 H753 0.930 1_545 S
C727 C723 1.332 . S
C727 C728 1.394 . S
C727 H754 0.932 . S
C728 C724 1.308 . S
C728 C727 1.394 . S
C728 H755 0.929 . S
C729 Tb720 2.764 . S
C729 C723 1.504 . S
C729 O741 1.239 . S
C729 O742 1.263 . S
O730 Tb720 2.325 . S
O730 C740 1.236 . S
O731 Tb721 2.322 . S
O731 C740 1.257 . S
O732 Tb721 2.349 . S
O732 C743 1.261 . S
O733 Tb720 2.303 . S
O733 C743 1.257 . S
O734 Tb721 2.415 . S
O734 C750 1.239 . S
O735 Tb721 2.399 . S
O735 C750 1.263 . S
O736 Tb721 2.325 . S
O736 C751 1.236 . S
O737 Tb720 2.322 . S
O737 C751 1.257 . S
O738 Tb720 2.349 . S
O738 C722 1.261 . S
O739 Tb721 2.303 . S
O739 C722 1.257 . S
C740 O730 1.236 . S
C740 O731 1.257 . S
O741 Tb720 2.415 . S
O741 C729 1.239 . S
O742 Tb720 2.399 . S
O742 C729 1.263 . S
C743 O732 1.261 . S
C743 O733 1.257 . S
C744 C747 1.358 . S
C744 C748 1.332 . S
C744 C750 1.504 1_556 S
C745 C746 1.373 . S
C745 C749 1.308 . S
C746 C745 1.373 . S
C746 C747 1.429 . S
C746 H756 0.932 . S
C747 C744 1.358 . S
C747 C746 1.429 . S
C747 H757 0.930 . S
C748 C744 1.332 . S
C748 C749 1.394 . S
C748 H758 0.932 . S
C749 C745 1.308 . S
C749 C748 1.394 . S
C749 H759 0.929 1_655 S
C750 Tb721 2.764 . S
C750 O734 1.239 . S
C750 O735 1.263 . S
C750 C744 1.504 1_554 S
C751 O736 1.236 . S
C751 O737 1.257 . S
H752 C725 0.932 1_565 S
H753 C726 0.930 1_565 S
H754 C727 0.932 . S
H755 C728 0.929 . S
H756 C746 0.932 . S
H757 C747 0.930 . S
H758 C748 0.932 . S
H759 C749 0.929 1_455 S
Tb760 C769 2.764 . S
Tb760 O770 2.325 . S
Tb760 O773 2.303 . S
Tb760 O777 2.322 . S
Tb760 O778 2.349 . S
Tb760 O781 2.415 . S
Tb760 O782 2.399 . S
Tb761 O771 2.322 . S
Tb761 O772 2.349 . S
Tb761 O774 2.415 . S
Tb761 O775 2.399 . S
Tb761 O776 2.325 . S
Tb761 O779 2.303 . S
Tb761 C790 2.764 . S
C762 O778 1.261 . S
C762 O779 1.257 . S
C763 C766 1.358 . S
C763 C767 1.332 . S
C763 C769 1.504 . S
C764 C765 1.373 . S
C764 C768 1.308 . S
C765 C764 1.373 . S
C765 C766 1.429 . S
C765 H792 0.932 . S
C766 C763 1.358 . S
C766 C765 1.429 . S
C766 H793 0.930 . S
C767 C763 1.332 . S
C767 C768 1.394 . S
C767 H794 0.932 . S
C768 C764 1.308 . S
C768 C767 1.394 . S
C768 H795 0.929 . S
C769 Tb760 2.764 . S
C769 C763 1.504 . S
C769 O781 1.239 . S
C769 O782 1.263 . S
O770 Tb760 2.325 . S
O770 C780 1.236 . S
O771 Tb761 2.322 . S
O771 C780 1.257 . S
O772 Tb761 2.349 . S
O772 C783 1.261 . S
O773 Tb760 2.303 . S
O773 C783 1.257 . S
O774 Tb761 2.415 . S
O774 C790 1.239 . S
O775 Tb761 2.399 . S
O775 C790 1.263 . S
O776 Tb761 2.325 . S
O776 C791 1.236 . S
O777 Tb760 2.322 . S
O777 C791 1.257 . S
O778 Tb760 2.349 . S
O778 C762 1.261 . S
O779 Tb761 2.303 . S
O779 C762 1.257 . S
C780 O770 1.236 . S
C780 O771 1.257 . S
O781 Tb760 2.415 . S
O781 C769 1.239 . S
O782 Tb760 2.399 . S
O782 C769 1.263 . S
C783 O772 1.261 . S
C783 O773 1.257 . S
C784 C787 1.358 . S
C784 C788 1.332 . S
C784 C790 1.504 . S
C785 C786 1.373 . S
C785 C789 1.308 . S
C786 C785 1.373 . S
C786 C787 1.429 . S
C786 H796 0.932 . S
C787 C784 1.358 . S
C787 C786 1.429 . S
C787 H797 0.930 . S
C788 C784 1.332 . S
C788 C789 1.394 . S
C788 H798 0.932 . S
C789 C785 1.308 . S
C789 C788 1.394 . S
C789 H799 0.929 . S
C790 Tb761 2.764 . S
C790 O774 1.239 . S
C790 O775 1.263 . S
C790 C784 1.504 . S
C791 O776 1.236 . S
C791 O777 1.257 . S
H792 C765 0.932 . S
H793 C766 0.930 . S
H794 C767 0.932 . S
H795 C768 0.929 . S
H796 C786 0.932 . S
H797 C787 0.930 . S
H798 C788 0.932 . S
H799 C789 0.929 . S
Tb800 C809 2.764 . S
Tb800 O810 2.325 . S
Tb800 O813 2.303 . S
Tb800 O817 2.322 . S
Tb800 O818 2.349 . S
Tb800 O821 2.415 . S
Tb800 O822 2.399 . S
Tb801 O811 2.322 . S
Tb801 O812 2.349 . S
Tb801 O814 2.415 . S
Tb801 O815 2.399 . S
Tb801 O816 2.325 . S
Tb801 O819 2.303 . S
Tb801 C830 2.764 . S
C802 O818 1.261 . S
C802 O819 1.257 . S
C803 C806 1.358 . S
C803 C807 1.332 . S
C803 C809 1.504 . S
C804 C805 1.373 . S
C804 C808 1.308 . S
C805 C804 1.373 . S
C805 C806 1.429 . S
C805 H832 0.932 . S
C806 C803 1.358 . S
C806 C805 1.429 . S
C806 H833 0.930 . S
C807 C803 1.332 . S
C807 C808 1.394 . S
C807 H834 0.932 . S
C808 C804 1.308 . S
C808 C807 1.394 . S
C808 H835 0.929 . S
C809 Tb800 2.764 . S
C809 C803 1.504 . S
C809 O821 1.239 . S
C809 O822 1.263 . S
O810 Tb800 2.325 . S
O810 C820 1.236 . S
O811 Tb801 2.322 . S
O811 C820 1.257 . S
O812 Tb801 2.349 . S
O812 C823 1.261 . S
O813 Tb800 2.303 . S
O813 C823 1.257 . S
O814 Tb801 2.415 . S
O814 C830 1.239 . S
O815 Tb801 2.399 . S
O815 C830 1.263 . S
O816 Tb801 2.325 . S
O816 C831 1.236 . S
O817 Tb800 2.322 . S
O817 C831 1.257 . S
O818 Tb800 2.349 . S
O818 C802 1.261 . S
O819 Tb801 2.303 . S
O819 C802 1.257 . S
C820 O810 1.236 . S
C820 O811 1.257 . S
O821 Tb800 2.415 . S
O821 C809 1.239 . S
O822 Tb800 2.399 . S
O822 C809 1.263 . S
C823 O812 1.261 . S
C823 O813 1.257 . S
C824 C827 1.358 . S
C824 C828 1.332 . S
C824 C830 1.504 . S
C825 C826 1.373 1_556 S
C825 C829 1.308 1_556 S
C826 C825 1.373 1_554 S
C826 C827 1.429 . S
C826 H836 0.932 1_554 S
C827 C824 1.358 . S
C827 C826 1.429 . S
C827 H837 0.930 . S
C828 C824 1.332 . S
C828 C829 1.394 . S
C828 H838 0.932 . S
C829 C825 1.308 1_554 S
C829 C828 1.394 . S
C829 H839 0.929 1_554 S
C830 Tb801 2.764 . S
C830 O814 1.239 . S
C830 O815 1.263 . S
C830 C824 1.504 . S
C831 O816 1.236 . S
C831 O817 1.257 . S
H832 C805 0.932 . S
H833 C806 0.930 . S
H834 C807 0.932 . S
H835 C808 0.929 . S
H836 C826 0.932 1_556 S
H837 C827 0.930 . S
H838 C828 0.932 . S
H839 C829 0.929 1_556 S
Tb840 C849 2.764 . S
Tb840 O850 2.325 . S
Tb840 O853 2.303 . S
Tb840 O857 2.322 . S
Tb840 O858 2.349 . S
Tb840 O861 2.415 . S
Tb840 O862 2.399 . S
Tb841 O851 2.322 . S
Tb841 O852 2.349 . S
Tb841 O854 2.415 . S
Tb841 O855 2.399 . S
Tb841 O856 2.325 . S
Tb841 O859 2.303 . S
Tb841 C870 2.764 . S
C842 O858 1.261 . S
C842 O859 1.257 . S
C843 C846 1.358 . S
C843 C847 1.332 . S
C843 C849 1.504 . S
C844 C845 1.373 . S
C844 C848 1.308 . S
C845 C844 1.373 . S
C845 C846 1.429 . S
C845 H872 0.932 . S
C846 C843 1.358 . S
C846 C845 1.429 . S
C846 H873 0.930 . S
C847 C843 1.332 . S
C847 C848 1.394 . S
C847 H874 0.932 . S
C848 C844 1.308 . S
C848 C847 1.394 . S
C848 H875 0.929 . S
C849 Tb840 2.764 . S
C849 C843 1.504 . S
C849 O861 1.239 . S
C849 O862 1.263 . S
O850 Tb840 2.325 . S
O850 C860 1.236 . S
O851 Tb841 2.322 . S
O851 C860 1.257 . S
O852 Tb841 2.349 . S
O852 C863 1.261 . S
O853 Tb840 2.303 . S
O853 C863 1.257 . S
O854 Tb841 2.415 . S
O854 C870 1.239 . S
O855 Tb841 2.399 . S
O855 C870 1.263 . S
O856 Tb841 2.325 . S
O856 C871 1.236 . S
O857 Tb840 2.322 . S
O857 C871 1.257 . S
O858 Tb840 2.349 . S
O858 C842 1.261 . S
O859 Tb841 2.303 . S
O859 C842 1.257 . S
C860 O850 1.236 . S
C860 O851 1.257 . S
O861 Tb840 2.415 . S
O861 C849 1.239 . S
O862 Tb840 2.399 . S
O862 C849 1.263 . S
C863 O852 1.261 . S
C863 O853 1.257 . S
C864 C867 1.358 . S
C864 C868 1.332 . S
C864 C870 1.504 . S
C865 C866 1.373 . S
C865 C869 1.308 . S
C866 C865 1.373 . S
C866 C867 1.429 . S
C866 H876 0.932 . S
C867 C864 1.358 . S
C867 C866 1.429 . S
C867 H877 0.930 . S
C868 C864 1.332 . S
C868 C869 1.394 . S
C868 H878 0.932 . S
C869 C865 1.308 . S
C869 C868 1.394 . S
C869 H879 0.929 . S
C870 Tb841 2.764 . S
C870 O854 1.239 . S
C870 O855 1.263 . S
C870 C864 1.504 . S
C871 O856 1.236 . S
C871 O857 1.257 . S
H872 C845 0.932 . S
H873 C846 0.930 . S
H874 C847 0.932 . S
H875 C848 0.929 . S
H876 C866 0.932 . S
H877 C867 0.930 . S
H878 C868 0.932 . S
H879 C869 0.929 . S
Tb880 C889 2.764 . S
Tb880 O890 2.325 . S
Tb880 O893 2.303 . S
Tb880 O897 2.322 . S
Tb880 O898 2.349 . S
Tb880 O901 2.415 . S
Tb880 O902 2.399 . S
Tb881 O891 2.322 . S
Tb881 O892 2.349 . S
Tb881 O894 2.415 . S
Tb881 O895 2.399 . S
Tb881 O896 2.325 . S
Tb881 O899 2.303 . S
Tb881 C910 2.764 . S
C882 O898 1.261 . S
C882 O899 1.257 . S
C883 C886 1.358 1_565 S
C883 C887 1.332 . S
C883 C889 1.504 . S
C884 C885 1.373 1_565 S
C884 C888 1.308 . S
C885 C884 1.373 1_545 S
C885 C886 1.429 . S
C885 H912 0.932 . S
C886 C883 1.358 1_545 S
C886 C885 1.429 . S
C886 H913 0.930 . S
C887 C883 1.332 . S
C887 C888 1.394 . S
C887 H914 0.932 . S
C888 C884 1.308 . S
C888 C887 1.394 . S
C888 H915 0.929 . S
C889 Tb880 2.764 . S
C889 C883 1.504 . S
C889 O901 1.239 . S
C889 O902 1.263 . S
O890 Tb880 2.325 . S
O890 C900 1.236 . S
O891 Tb881 2.322 . S
O891 C900 1.257 . S
O892 Tb881 2.349 . S
O892 C903 1.261 . S
O893 Tb880 2.303 . S
O893 C903 1.257 . S
O894 Tb881 2.415 . S
O894 C910 1.239 . S
O895 Tb881 2.399 . S
O895 C910 1.263 . S
O896 Tb881 2.325 . S
O896 C911 1.236 . S
O897 Tb880 2.322 . S
O897 C911 1.257 . S
O898 Tb880 2.349 . S
O898 C882 1.261 . S
O899 Tb881 2.303 . S
O899 C882 1.257 . S
C900 O890 1.236 . S
C900 O891 1.257 . S
O901 Tb880 2.415 . S
O901 C889 1.239 . S
O902 Tb880 2.399 . S
O902 C889 1.263 . S
C903 O892 1.261 . S
C903 O893 1.257 . S
C904 C907 1.358 . S
C904 C908 1.332 . S
C904 C910 1.504 . S
C905 C906 1.373 . S
C905 C909 1.308 . S
C906 C905 1.373 . S
C906 C907 1.429 . S
C906 H916 0.932 . S
C907 C904 1.358 . S
C907 C906 1.429 . S
C907 H917 0.930 . S
C908 C904 1.332 . S
C908 C909 1.394 . S
C908 H918 0.932 . S
C909 C905 1.308 . S
C909 C908 1.394 . S
C909 H919 0.929 . S
C910 Tb881 2.764 . S
C910 O894 1.239 . S
C910 O895 1.263 . S
C910 C904 1.504 . S
C911 O896 1.236 . S
C911 O897 1.257 . S
H912 C885 0.932 . S
H913 C886 0.930 . S
H914 C887 0.932 . S
H915 C888 0.929 . S
H916 C906 0.932 . S
H917 C907 0.930 . S
H918 C908 0.932 . S
H919 C909 0.929 . S
Tb920 C929 2.764 1_556 S
Tb920 O930 2.325 1_556 S
Tb920 O933 2.303 . S
Tb920 O937 2.322 . S
Tb920 O938 2.349 . S
Tb920 O941 2.415 1_556 S
Tb920 O942 2.399 1_556 S
Tb921 O931 2.322 . S
Tb921 O932 2.349 . S
Tb921 O934 2.415 . S
Tb921 O935 2.399 . S
Tb921 O936 2.325 . S
Tb921 O939 2.303 . S
Tb921 C950 2.764 . S
C922 O938 1.261 . S
C922 O939 1.257 . S
C923 C926 1.358 . S
C923 C927 1.332 . S
C923 C929 1.504 . S
C924 C925 1.373 . S
C924 C928 1.308 . S
C925 C924 1.373 . S
C925 C926 1.429 . S
C925 H952 0.932 . S
C926 C923 1.358 . S
C926 C925 1.429 . S
C926 H953 0.930 . S
C927 C923 1.332 . S
C927 C928 1.394 . S
C927 H954 0.932 . S
C928 C924 1.308 . S
C928 C927 1.394 . S
C928 H955 0.929 . S
C929 Tb920 2.764 1_554 S
C929 C923 1.504 . S
C929 O941 1.239 . S
C929 O942 1.263 . S
O930 Tb920 2.325 1_554 S
O930 C940 1.236 . S
O931 Tb921 2.322 . S
O931 C940 1.257 1_556 S
O932 Tb921 2.349 . S
O932 C943 1.261 . S
O933 Tb920 2.303 . S
O933 C943 1.257 . S
O934 Tb921 2.415 . S
O934 C950 1.239 . S
O935 Tb921 2.399 . S
O935 C950 1.263 . S
O936 Tb921 2.325 . S
O936 C951 1.236 . S
O937 Tb920 2.322 . S
O937 C951 1.257 . S
O938 Tb920 2.349 . S
O938 C922 1.261 . S
O939 Tb921 2.303 . S
O939 C922 1.257 . S
C940 O930 1.236 . S
C940 O931 1.257 1_554 S
O941 Tb920 2.415 1_554 S
O941 C929 1.239 . S
O942 Tb920 2.399 1_554 S
O942 C929 1.263 . S
C943 O932 1.261 . S
C943 O933 1.257 . S
C944 C947 1.358 . S
C944 C948 1.332 . S
C944 C950 1.504 . S
C945 C946 1.373 . S
C945 C949 1.308 . S
C946 C945 1.373 . S
C946 C947 1.429 . S
C946 H956 0.932 . S
C947 C944 1.358 . S
C947 C946 1.429 . S
C947 H957 0.930 . S
C948 C944 1.332 . S
C948 C949 1.394 . S
C948 H958 0.932 . S
C949 C945 1.308 . S
C949 C948 1.394 . S
C949 H959 0.929 . S
C950 Tb921 2.764 . S
C950 O934 1.239 . S
C950 O935 1.263 . S
C950 C944 1.504 . S
C951 O936 1.236 . S
C951 O937 1.257 . S
H952 C925 0.932 . S
H953 C926 0.930 . S
H954 C927 0.932 . S
H955 C928 0.929 . S
H956 C946 0.932 . S
H957 C947 0.930 . S
H958 C948 0.932 . S
H959 C949 0.929 . S
Tb960 C969 2.764 . S
Tb960 O970 2.325 . S
Tb960 O973 2.303 . S
Tb960 O977 2.322 . S
Tb960 O978 2.349 . S
Tb960 O981 2.415 . S
Tb960 O982 2.399 . S
Tb961 O971 2.322 . S
Tb961 O972 2.349 1_545 S
Tb961 O974 2.415 . S
Tb961 O975 2.399 1_545 S
Tb961 O976 2.325 . S
Tb961 O979 2.303 . S
Tb961 C990 2.764 1_545 S
C962 O978 1.261 . S
C962 O979 1.257 . S
C963 C966 1.358 . S
C963 C967 1.332 . S
C963 C969 1.504 . S
C964 C965 1.373 . S
C964 C968 1.308 . S
C965 C964 1.373 . S
C965 C966 1.429 . S
C965 H992 0.932 . S
C966 C963 1.358 . S
C966 C965 1.429 . S
C966 H993 0.930 . S
C967 C963 1.332 . S
C967 C968 1.394 . S
C967 H994 0.932 . S
C968 C964 1.308 . S
C968 C967 1.394 . S
C968 H995 0.929 . S
C969 Tb960 2.764 . S
C969 C963 1.504 . S
C969 O981 1.239 . S
C969 O982 1.263 . S
O970 Tb960 2.325 . S
O970 C980 1.236 . S
O971 Tb961 2.322 . S
O971 C980 1.257 . S
O972 Tb961 2.349 1_565 S
O972 C983 1.261 1_565 S
O973 Tb960 2.303 . S
O973 C983 1.257 . S
O974 Tb961 2.415 . S
O974 C990 1.239 1_545 S
O975 Tb961 2.399 1_565 S
O975 C990 1.263 . S
O976 Tb961 2.325 . S
O976 C991 1.236 . S
O977 Tb960 2.322 . S
O977 C991 1.257 . S
O978 Tb960 2.349 . S
O978 C962 1.261 . S
O979 Tb961 2.303 . S
O979 C962 1.257 . S
C980 O970 1.236 . S
C980 O971 1.257 . S
O981 Tb960 2.415 . S
O981 C969 1.239 . S
O982 Tb960 2.399 . S
O982 C969 1.263 . S
C983 O972 1.261 1_545 S
C983 O973 1.257 . S
C984 C987 1.358 . S
C984 C988 1.332 1_565 S
C984 C990 1.504 . S
C985 C986 1.373 . S
C985 C989 1.308 . S
C986 C985 1.373 . S
C986 C987 1.429 . S
C986 H996 0.932 . S
C987 C984 1.358 . S
C987 C986 1.429 . S
C987 H997 0.930 . S
C988 C984 1.332 1_545 S
C988 C989 1.394 1_545 S
C988 H998 0.932 . S
C989 C985 1.308 . S
C989 C988 1.394 1_565 S
C989 H999 0.929 1_565 S
C990 Tb961 2.764 1_565 S
C990 O974 1.239 1_565 S
C990 O975 1.263 . S
C990 C984 1.504 . S
C991 O976 1.236 . S
C991 O977 1.257 . S
H992 C965 0.932 . S
H993 C966 0.930 . S
H994 C967 0.932 . S
H995 C968 0.929 . S
H996 C986 0.932 . S
H997 C987 0.930 . S
H998 C988 0.932 . S
H999 C989 0.929 1_545 S
Tb1000 C1009 2.764 . S
Tb1000 O1010 2.325 . S
Tb1000 O1013 2.303 . S
Tb1000 O1017 2.322 . S
Tb1000 O1018 2.349 . S
Tb1000 O1021 2.415 . S
Tb1000 O1022 2.399 . S
Tb1001 O1011 2.322 . S
Tb1001 O1012 2.349 . S
Tb1001 O1014 2.415 . S
Tb1001 O1015 2.399 . S
Tb1001 O1016 2.325 . S
Tb1001 O1019 2.303 . S
Tb1001 C1030 2.764 . S
C1002 O1018 1.261 . S
C1002 O1019 1.257 . S
C1003 C1006 1.358 . S
C1003 C1007 1.332 . S
C1003 C1009 1.504 . S
C1004 C1005 1.373 . S
C1004 C1008 1.308 . S
C1005 C1004 1.373 . S
C1005 C1006 1.429 . S
C1005 H1032 0.932 . S
C1006 C1003 1.358 . S
C1006 C1005 1.429 . S
C1006 H1033 0.930 . S
C1007 C1003 1.332 . S
C1007 C1008 1.394 . S
C1007 H1034 0.932 . S
C1008 C1004 1.308 . S
C1008 C1007 1.394 . S
C1008 H1035 0.929 . S
C1009 Tb1000 2.764 . S
C1009 C1003 1.504 . S
C1009 O1021 1.239 . S
C1009 O1022 1.263 . S
O1010 Tb1000 2.325 . S
O1010 C1020 1.236 . S
O1011 Tb1001 2.322 . S
O1011 C1020 1.257 . S
O1012 Tb1001 2.349 . S
O1012 C1023 1.261 . S
O1013 Tb1000 2.303 . S
O1013 C1023 1.257 . S
O1014 Tb1001 2.415 . S
O1014 C1030 1.239 . S
O1015 Tb1001 2.399 . S
O1015 C1030 1.263 . S
O1016 Tb1001 2.325 . S
O1016 C1031 1.236 . S
O1017 Tb1000 2.322 . S
O1017 C1031 1.257 . S
O1018 Tb1000 2.349 . S
O1018 C1002 1.261 . S
O1019 Tb1001 2.303 . S
O1019 C1002 1.257 . S
C1020 O1010 1.236 . S
C1020 O1011 1.257 . S
O1021 Tb1000 2.415 . S
O1021 C1009 1.239 . S
O1022 Tb1000 2.399 . S
O1022 C1009 1.263 . S
C1023 O1012 1.261 . S
C1023 O1013 1.257 . S
C1024 C1027 1.358 . S
C1024 C1028 1.332 . S
C1024 C1030 1.504 . S
C1025 C1026 1.373 . S
C1025 C1029 1.308 . S
C1026 C1025 1.373 . S
C1026 C1027 1.429 . S
C1026 H1036 0.932 . S
C1027 C1024 1.358 . S
C1027 C1026 1.429 . S
C1027 H1037 0.930 . S
C1028 C1024 1.332 . S
C1028 C1029 1.394 . S
C1028 H1038 0.932 . S
C1029 C1025 1.308 . S
C1029 C1028 1.394 . S
C1029 H1039 0.929 . S
C1030 Tb1001 2.764 . S
C1030 O1014 1.239 . S
C1030 O1015 1.263 . S
C1030 C1024 1.504 . S
C1031 O1016 1.236 . S
C1031 O1017 1.257 . S
H1032 C1005 0.932 . S
H1033 C1006 0.930 . S
H1034 C1007 0.932 . S
H1035 C1008 0.929 . S
H1036 C1026 0.932 . S
H1037 C1027 0.930 . S
H1038 C1028 0.932 . S
H1039 C1029 0.929 . S
Tb1040 C1049 2.764 . S
Tb1040 O1050 2.325 . S
Tb1040 O1053 2.303 . S
Tb1040 O1057 2.322 . S
Tb1040 O1058 2.349 . S
Tb1040 O1061 2.415 . S
Tb1040 O1062 2.399 . S
Tb1041 O1051 2.322 . S
Tb1041 O1052 2.349 . S
Tb1041 O1054 2.415 . S
Tb1041 O1055 2.399 . S
Tb1041 O1056 2.325 . S
Tb1041 O1059 2.303 . S
Tb1041 C1070 2.764 . S
C1042 O1058 1.261 . S
C1042 O1059 1.257 . S
C1043 C1046 1.358 . S
C1043 C1047 1.332 . S
C1043 C1049 1.504 . S
C1044 C1045 1.373 . S
C1044 C1048 1.308 . S
C1045 C1044 1.373 . S
C1045 C1046 1.429 . S
C1045 H1072 0.932 . S
C1046 C1043 1.358 . S
C1046 C1045 1.429 . S
C1046 H1073 0.930 . S
C1047 C1043 1.332 . S
C1047 C1048 1.394 . S
C1047 H1074 0.932 . S
C1048 C1044 1.308 . S
C1048 C1047 1.394 . S
C1048 H1075 0.929 1_455 S
C1049 Tb1040 2.764 . S
C1049 C1043 1.504 . S
C1049 O1061 1.239 . S
C1049 O1062 1.263 . S
O1050 Tb1040 2.325 . S
O1050 C1060 1.236 . S
O1051 Tb1041 2.322 . S
O1051 C1060 1.257 . S
O1052 Tb1041 2.349 . S
O1052 C1063 1.261 . S
O1053 Tb1040 2.303 . S
O1053 C1063 1.257 . S
O1054 Tb1041 2.415 . S
O1054 C1070 1.239 . S
O1055 Tb1041 2.399 . S
O1055 C1070 1.263 . S
O1056 Tb1041 2.325 . S
O1056 C1071 1.236 . S
O1057 Tb1040 2.322 . S
O1057 C1071 1.257 . S
O1058 Tb1040 2.349 . S
O1058 C1042 1.261 . S
O1059 Tb1041 2.303 . S
O1059 C1042 1.257 . S
C1060 O1050 1.236 . S
C1060 O1051 1.257 . S
O1061 Tb1040 2.415 . S
O1061 C1049 1.239 . S
O1062 Tb1040 2.399 . S
O1062 C1049 1.263 . S
C1063 O1052 1.261 . S
C1063 O1053 1.257 . S
C1064 C1067 1.358 . S
C1064 C1068 1.332 1_554 S
C1064 C1070 1.504 . S
C1065 C1066 1.373 . S
C1065 C1069 1.308 . S
C1066 C1065 1.373 . S
C1066 C1067 1.429 1_556 S
C1066 H1076 0.932 1_565 S
C1067 C1064 1.358 . S
C1067 C1066 1.429 1_554 S
C1067 H1077 0.930 1_565 S
C1068 C1064 1.332 1_556 S
C1068 C1069 1.394 . S
C1068 H1078 0.932 . S
C1069 C1065 1.308 . S
C1069 C1068 1.394 . S
C1069 H1079 0.929 . S
C1070 Tb1041 2.764 . S
C1070 O1054 1.239 . S
C1070 O1055 1.263 . S
C1070 C1064 1.504 . S
C1071 O1056 1.236 . S
C1071 O1057 1.257 . S
H1072 C1045 0.932 . S
H1073 C1046 0.930 . S
H1074 C1047 0.932 . S
H1075 C1048 0.929 1_655 S
H1076 C1066 0.932 1_545 S
H1077 C1067 0.930 1_545 S
H1078 C1068 0.932 . S
H1079 C1069 0.929 . S
Tb1080 C1089 2.764 . S
Tb1080 O1090 2.325 . S
Tb1080 O1093 2.303 . S
Tb1080 O1097 2.322 . S
Tb1080 O1098 2.349 . S
Tb1080 O1101 2.415 . S
Tb1080 O1102 2.399 . S
Tb1081 O1091 2.322 . S
Tb1081 O1092 2.349 . S
Tb1081 O1094 2.415 . S
Tb1081 O1095 2.399 . S
Tb1081 O1096 2.325 . S
Tb1081 O1099 2.303 . S
Tb1081 C1110 2.764 . S
C1082 O1098 1.261 . S
C1082 O1099 1.257 . S
C1083 C1086 1.363 . S
C1083 C1087 1.332 1_556 S
C1083 C1089 1.504 . S
C1084 C1085 1.373 . S
C1084 C1088 1.308 . S
C1085 C1084 1.373 . S
C1085 C1086 1.407 1_554 S
C1085 H1112 0.932 . S
C1086 C1083 1.363 . S
C1086 C1085 1.407 1_556 S
C1086 H1113 0.947 . S
C1087 C1083 1.332 1_554 S
C1087 C1088 1.394 . S
C1087 H1114 0.932 . S
C1088 C1084 1.308 . S
C1088 C1087 1.394 . S
C1088 H1115 0.929 . S
C1089 Tb1080 2.764 . S
C1089 C1083 1.504 . S
C1089 O1101 1.239 . S
C1089 O1102 1.263 . S
O1090 Tb1080 2.325 . S
O1090 C1100 1.236 . S
O1091 Tb1081 2.322 . S
O1091 C1100 1.257 . S
O1092 Tb1081 2.349 . S
O1092 C1103 1.261 . S
O1093 Tb1080 2.303 . S
O1093 C1103 1.257 . S
O1094 Tb1081 2.415 . S
O1094 C1110 1.239 . S
O1095 Tb1081 2.399 . S
O1095 C1110 1.263 . S
O1096 Tb1081 2.325 . S
O1096 C1111 1.236 . S
O1097 Tb1080 2.322 . S
O1097 C1111 1.257 . S
O1098 Tb1080 2.349 . S
O1098 C1082 1.261 . S
O1099 Tb1081 2.303 . S
O1099 C1082 1.257 . S
C1100 O1090 1.236 . S
C1100 O1091 1.257 . S
O1101 Tb1080 2.415 . S
O1101 C1089 1.239 . S
O1102 Tb1080 2.399 . S
O1102 C1089 1.263 . S
C1103 O1092 1.261 . S
C1103 O1093 1.257 . S
C1104 C1107 1.358 . S
C1104 C1108 1.332 . S
C1104 C1110 1.504 . S
C1105 C1106 1.373 . S
C1105 C1109 1.308 . S
C1106 C1105 1.373 . S
C1106 C1107 1.429 . S
C1106 H1116 0.932 . S
C1107 C1104 1.358 . S
C1107 C1106 1.429 . S
C1107 H1117 0.930 . S
C1108 C1104 1.332 . S
C1108 C1109 1.394 . S
C1108 H1118 0.932 . S
C1109 C1105 1.308 . S
C1109 C1108 1.394 . S
C1109 H1119 0.929 . S
C1110 Tb1081 2.764 . S
C1110 O1094 1.239 . S
C1110 O1095 1.263 . S
C1110 C1104 1.504 . S
C1111 O1096 1.236 . S
C1111 O1097 1.257 . S
H1112 C1085 0.932 . S
H1113 C1086 0.947 . S
H1114 C1087 0.932 . S
H1115 C1088 0.929 . S
H1116 C1106 0.932 . S
H1117 C1107 0.930 . S
H1118 C1108 0.932 . S
H1119 C1109 0.929 . S
Tb1120 C1129 2.764 . S
Tb1120 O1130 2.325 . S
Tb1120 O1133 2.303 . S
Tb1120 O1137 2.322 . S
Tb1120 O1138 2.349 . S
Tb1120 O1141 2.415 . S
Tb1120 O1142 2.399 . S
Tb1121 O1131 2.322 . S
Tb1121 O1132 2.349 . S
Tb1121 O1134 2.415 1_554 S
Tb1121 O1135 2.399 1_554 S
Tb1121 O1136 2.325 1_554 S
Tb1121 O1139 2.303 . S
Tb1121 C1150 2.764 1_554 S
C1122 O1138 1.261 . S
C1122 O1139 1.257 . S
C1123 C1126 1.358 . S
C1123 C1127 1.332 . S
C1123 C1129 1.504 . S
C1124 C1125 1.373 . S
C1124 C1128 1.308 . S
C1125 C1124 1.373 . S
C1125 C1126 1.429 . S
C1125 H1152 0.932 . S
C1126 C1123 1.358 . S
C1126 C1125 1.429 . S
C1126 H1153 0.930 . S
C1127 C1123 1.332 . S
C1127 C1128 1.394 . S
C1127 H1154 0.932 . S
C1128 C1124 1.308 . S
C1128 C1127 1.394 . S
C1128 H1155 0.929 . S
C1129 Tb1120 2.764 . S
C1129 C1123 1.504 . S
C1129 O1141 1.239 . S
C1129 O1142 1.263 . S
O1130 Tb1120 2.325 . S
O1130 C1140 1.236 . S
O1131 Tb1121 2.322 . S
O1131 C1140 1.257 . S
O1132 Tb1121 2.349 . S
O1132 C1143 1.261 . S
O1133 Tb1120 2.303 . S
O1133 C1143 1.257 . S
O1134 Tb1121 2.415 1_556 S
O1134 C1150 1.239 . S
O1135 Tb1121 2.399 1_556 S
O1135 C1150 1.263 . S
O1136 Tb1121 2.325 1_556 S
O1136 C1151 1.236 . S
O1137 Tb1120 2.322 . S
O1137 C1151 1.257 1_554 S
O1138 Tb1120 2.349 . S
O1138 C1122 1.261 . S
O1139 Tb1121 2.303 . S
O1139 C1122 1.257 . S
C1140 O1130 1.236 . S
C1140 O1131 1.257 . S
O1141 Tb1120 2.415 . S
O1141 C1129 1.239 . S
O1142 Tb1120 2.399 . S
O1142 C1129 1.263 . S
C1143 O1132 1.261 . S
C1143 O1133 1.257 . S
C1144 C1147 1.358 . S
C1144 C1148 1.332 . S
C1144 C1150 1.504 . S
C1145 C1146 1.373 . S
C1145 C1149 1.308 . S
C1146 C1145 1.373 . S
C1146 C1147 1.429 . S
C1146 H1156 0.932 . S
C1147 C1144 1.358 . S
C1147 C1146 1.429 . S
C1147 H1157 0.930 . S
C1148 C1144 1.332 . S
C1148 C1149 1.394 . S
C1148 H1158 0.932 . S
C1149 C1145 1.308 . S
C1149 C1148 1.394 . S
C1149 H1159 0.929 . S
C1150 Tb1121 2.764 1_556 S
C1150 O1134 1.239 . S
C1150 O1135 1.263 . S
C1150 C1144 1.504 . S
C1151 O1136 1.236 . S
C1151 O1137 1.257 1_556 S
H1152 C1125 0.932 . S
H1153 C1126 0.930 . S
H1154 C1127 0.932 . S
H1155 C1128 0.929 . S
H1156 C1146 0.932 . S
H1157 C1147 0.930 . S
H1158 C1148 0.932 . S
H1159 C1149 0.929 . S
Tb1160 C1169 2.764 . S
Tb1160 O1170 2.325 . S
Tb1160 O1173 2.303 . S
Tb1160 O1177 2.322 . S
Tb1160 O1178 2.349 . S
Tb1160 O1181 2.415 . S
Tb1160 O1182 2.399 . S
Tb1161 O1171 2.322 . S
Tb1161 O1172 2.349 . S
Tb1161 O1174 2.415 . S
Tb1161 O1175 2.399 . S
Tb1161 O1176 2.325 . S
Tb1161 O1179 2.303 . S
Tb1161 C1190 2.764 . S
C1162 O1178 1.261 . S
C1162 O1179 1.257 . S
C1163 C1166 1.358 . S
C1163 C1167 1.332 . S
C1163 C1169 1.504 . S
C1164 C1165 1.373 . S
C1164 C1168 1.308 . S
C1165 C1164 1.373 . S
C1165 C1166 1.429 . S
C1165 H1192 0.932 . S
C1166 C1163 1.358 . S
C1166 C1165 1.429 . S
C1166 H1193 0.930 . S
C1167 C1163 1.332 . S
C1167 C1168 1.394 . S
C1167 H1194 0.932 . S
C1168 C1164 1.308 . S
C1168 C1167 1.394 . S
C1168 H1195 0.929 . S
C1169 Tb1160 2.764 . S
C1169 C1163 1.504 . S
C1169 O1181 1.239 . S
C1169 O1182 1.263 . S
O1170 Tb1160 2.325 . S
O1170 C1180 1.236 . S
O1171 Tb1161 2.322 . S
O1171 C1180 1.257 . S
O1172 Tb1161 2.349 . S
O1172 C1183 1.261 . S
O1173 Tb1160 2.303 . S
O1173 C1183 1.257 . S
O1174 Tb1161 2.415 . S
O1174 C1190 1.239 . S
O1175 Tb1161 2.399 . S
O1175 C1190 1.263 . S
O1176 Tb1161 2.325 . S
O1176 C1191 1.236 . S
O1177 Tb1160 2.322 . S
O1177 C1191 1.257 . S
O1178 Tb1160 2.349 . S
O1178 C1162 1.261 . S
O1179 Tb1161 2.303 . S
O1179 C1162 1.257 . S
C1180 O1170 1.236 . S
C1180 O1171 1.257 . S
O1181 Tb1160 2.415 . S
O1181 C1169 1.239 . S
O1182 Tb1160 2.399 . S
O1182 C1169 1.263 . S
C1183 O1172 1.261 . S
C1183 O1173 1.257 . S
C1184 C1187 1.358 1_556 S
C1184 C1188 1.332 1_556 S
C1184 C1190 1.504 . S
C1185 C1186 1.373 . S
C1185 C1189 1.308 . S
C1186 C1185 1.373 . S
C1186 C1187 1.429 . S
C1186 H1196 0.932 . S
C1187 C1184 1.358 1_554 S
C1187 C1186 1.429 . S
C1187 H1197 0.930 . S
C1188 C1184 1.332 1_554 S
C1188 C1189 1.394 . S
C1188 H1198 0.932 . S
C1189 C1185 1.308 . S
C1189 C1188 1.394 . S
C1189 H1199 0.929 . S
C1190 Tb1161 2.764 . S
C1190 O1174 1.239 . S
C1190 O1175 1.263 . S
C1190 C1184 1.504 . S
C1191 O1176 1.236 . S
C1191 O1177 1.257 . S
H1192 C1165 0.932 . S
H1193 C1166 0.930 . S
H1194 C1167 0.932 . S
H1195 C1168 0.929 . S
H1196 C1186 0.932 . S
H1197 C1187 0.930 . S
H1198 C1188 0.932 . S
H1199 C1189 0.929 . S
Tb1200 C1209 2.764 . S
Tb1200 O1210 2.325 . S
Tb1200 O1213 2.303 . S
Tb1200 O1217 2.322 . S
Tb1200 O1218 2.349 . S
Tb1200 O1221 2.415 . S
Tb1200 O1222 2.399 . S
Tb1201 O1211 2.322 . S
Tb1201 O1212 2.349 . S
Tb1201 O1214 2.415 . S
Tb1201 O1215 2.399 . S
Tb1201 O1216 2.325 . S
Tb1201 O1219 2.303 . S
Tb1201 C1230 2.764 . S
C1202 O1218 1.261 . S
C1202 O1219 1.257 . S
C1203 C1206 1.358 . S
C1203 C1207 1.332 . S
C1203 C1209 1.504 . S
C1204 C1205 1.373 . S
C1204 C1208 1.308 . S
C1205 C1204 1.373 . S
C1205 C1206 1.429 . S
C1205 H1232 0.932 . S
C1206 C1203 1.358 . S
C1206 C1205 1.429 . S
C1206 H1233 0.930 . S
C1207 C1203 1.332 . S
C1207 C1208 1.394 . S
C1207 H1234 0.932 . S
C1208 C1204 1.308 . S
C1208 C1207 1.394 . S
C1208 H1235 0.929 . S
C1209 Tb1200 2.764 . S
C1209 C1203 1.504 . S
C1209 O1221 1.239 . S
C1209 O1222 1.263 . S
O1210 Tb1200 2.325 . S
O1210 C1220 1.236 . S
O1211 Tb1201 2.322 . S
O1211 C1220 1.257 . S
O1212 Tb1201 2.349 . S
O1212 C1223 1.261 . S
O1213 Tb1200 2.303 . S
O1213 C1223 1.257 . S
O1214 Tb1201 2.415 . S
O1214 C1230 1.239 . S
O1215 Tb1201 2.399 . S
O1215 C1230 1.263 . S
O1216 Tb1201 2.325 . S
O1216 C1231 1.236 . S
O1217 Tb1200 2.322 . S
O1217 C1231 1.257 . S
O1218 Tb1200 2.349 . S
O1218 C1202 1.261 . S
O1219 Tb1201 2.303 . S
O1219 C1202 1.257 . S
C1220 O1210 1.236 . S
C1220 O1211 1.257 . S
O1221 Tb1200 2.415 . S
O1221 C1209 1.239 . S
O1222 Tb1200 2.399 . S
O1222 C1209 1.263 . S
C1223 O1212 1.261 . S
C1223 O1213 1.257 . S
C1224 C1227 1.358 1_545 S
C1224 C1228 1.332 . S
C1224 C1230 1.504 . S
C1225 C1226 1.373 1_545 S
C1225 C1229 1.308 . S
C1226 C1225 1.373 1_565 S
C1226 C1227 1.429 . S
C1226 H1236 0.932 . S
C1227 C1224 1.358 1_565 S
C1227 C1226 1.429 . S
C1227 H1237 0.930 . S
C1228 C1224 1.332 . S
C1228 C1229 1.394 . S
C1228 H1238 0.932 . S
C1229 C1225 1.308 . S
C1229 C1228 1.394 . S
C1229 H1239 0.929 . S
C1230 Tb1201 2.764 . S
C1230 O1214 1.239 . S
C1230 O1215 1.263 . S
C1230 C1224 1.504 . S
C1231 O1216 1.236 . S
C1231 O1217 1.257 . S
H1232 C1205 0.932 . S
H1233 C1206 0.930 . S
H1234 C1207 0.932 . S
H1235 C1208 0.929 . S
H1236 C1226 0.932 . S
H1237 C1227 0.930 . S
H1238 C1228 0.932 . S
H1239 C1229 0.929 . S
Tb1240 C1249 2.764 . S
Tb1240 O1250 2.325 . S
Tb1240 O1253 2.303 . S
Tb1240 O1257 2.322 . S
Tb1240 O1258 2.349 . S
Tb1240 O1261 2.415 . S
Tb1240 O1262 2.399 . S
Tb1241 O1251 2.322 . S
Tb1241 O1252 2.349 . S
Tb1241 O1254 2.415 . S
Tb1241 O1255 2.399 . S
Tb1241 O1256 2.325 . S
Tb1241 O1259 2.303 . S
Tb1241 C1270 2.764 . S
C1242 O1258 1.261 . S
C1242 O1259 1.257 . S
C1243 C1246 1.358 . S
C1243 C1247 1.332 . S
C1243 C1249 1.504 . S
C1244 C1245 1.373 . S
C1244 C1248 1.308 . S
C1245 C1244 1.373 . S
C1245 C1246 1.429 . S
C1245 H1272 0.932 . S
C1246 C1243 1.358 . S
C1246 C1245 1.429 . S
C1246 H1273 0.930 . S
C1247 C1243 1.332 . S
C1247 C1248 1.394 . S
C1247 H1274 0.932 . S
C1248 C1244 1.308 . S
C1248 C1247 1.394 . S
C1248 H1275 0.929 . S
C1249 Tb1240 2.764 . S
C1249 C1243 1.504 . S
C1249 O1261 1.239 . S
C1249 O1262 1.263 . S
O1250 Tb1240 2.325 . S
O1250 C1260 1.236 . S
O1251 Tb1241 2.322 . S
O1251 C1260 1.257 . S
O1252 Tb1241 2.349 . S
O1252 C1263 1.261 . S
O1253 Tb1240 2.303 . S
O1253 C1263 1.257 . S
O1254 Tb1241 2.415 . S
O1254 C1270 1.239 . S
O1255 Tb1241 2.399 . S
O1255 C1270 1.263 . S
O1256 Tb1241 2.325 . S
O1256 C1271 1.236 . S
O1257 Tb1240 2.322 . S
O1257 C1271 1.257 . S
O1258 Tb1240 2.349 . S
O1258 C1242 1.261 . S
O1259 Tb1241 2.303 . S
O1259 C1242 1.257 . S
C1260 O1250 1.236 . S
C1260 O1251 1.257 . S
O1261 Tb1240 2.415 . S
O1261 C1249 1.239 . S
O1262 Tb1240 2.399 . S
O1262 C1249 1.263 . S
C1263 O1252 1.261 . S
C1263 O1253 1.257 . S
C1264 C1267 1.358 . S
C1264 C1268 1.332 . S
C1264 C1270 1.504 . S
C1265 C1266 1.373 . S
C1265 C1269 1.308 . S
C1266 C1265 1.373 . S
C1266 C1267 1.429 . S
C1266 H1276 0.932 . S
C1267 C1264 1.358 . S
C1267 C1266 1.429 . S
C1267 H1277 0.930 . S
C1268 C1264 1.332 . S
C1268 C1269 1.394 . S
C1268 H1278 0.932 . S
C1269 C1265 1.308 . S
C1269 C1268 1.394 . S
C1269 H1279 0.929 . S
C1270 Tb1241 2.764 . S
C1270 O1254 1.239 . S
C1270 O1255 1.263 . S
C1270 C1264 1.504 . S
C1271 O1256 1.236 . S
C1271 O1257 1.257 . S
H1272 C1245 0.932 . S
H1273 C1246 0.930 . S
H1274 C1247 0.932 . S
H1275 C1248 0.929 . S
H1276 C1266 0.932 . S
H1277 C1267 0.930 . S
H1278 C1268 0.932 . S
H1279 C1269 0.929 . S
C1280 C1281 1.387 . S
C1280 H1284 0.950 . S
C1280 C1289 1.390 . S
C1281 C1280 1.387 . S
C1281 C1283 1.387 . S
H1282 C1289 0.950 . S
C1283 C1281 1.387 . S
C1283 C1285 1.390 . S
C1283 H1287 0.950 . S
H1284 C1280 0.950 . S
C1285 C1283 1.390 . S
C1285 C1286 1.387 . S
C1285 H1288 0.950 . S
C1286 C1285 1.387 . S
C1286 C1289 1.387 . S
H1287 C1283 0.950 . S
H1288 C1285 0.950 . S
C1289 C1280 1.390 . S
C1289 H1282 0.950 . S
C1289 C1286 1.387 . S
C1290 C1291 1.387 . S
C1290 H1294 0.950 . S
C1290 C1299 1.390 . S
C1291 C1290 1.387 . S
C1291 C1293 1.387 . S
H1292 C1299 0.950 . S
C1293 C1291 1.387 . S
C1293 C1295 1.390 . S
C1293 H1297 0.950 . S
H1294 C1290 0.950 . S
C1295 C1293 1.390 . S
C1295 C1296 1.387 . S
C1295 H1298 0.950 . S
C1296 C1295 1.387 . S
C1296 C1299 1.387 . S
H1297 C1293 0.950 . S
H1298 C1295 0.950 . S
C1299 C1290 1.390 . S
C1299 H1292 0.950 . S
C1299 C1296 1.387 . S
C1300 C1301 1.387 . S
C1300 H1304 0.950 . S
C1300 C1309 1.390 . S
C1301 C1300 1.387 . S
C1301 C1303 1.387 . S
H1302 C1309 0.950 . S
C1303 C1301 1.387 . S
C1303 C1305 1.390 . S
C1303 H1307 0.950 . S
H1304 C1300 0.950 . S
C1305 C1303 1.390 . S
C1305 C1306 1.387 . S
C1305 H1308 0.950 . S
C1306 C1305 1.387 . S
C1306 C1309 1.387 . S
H1307 C1303 0.950 . S
H1308 C1305 0.950 . S
C1309 C1300 1.390 . S
C1309 H1302 0.950 . S
C1309 C1306 1.387 . S
C1310 C1311 1.387 . S
C1310 H1314 0.950 . S
C1310 C1319 1.390 . S
C1311 C1310 1.387 . S
C1311 C1313 1.387 . S
H1312 C1319 0.950 . S
C1313 C1311 1.387 . S
C1313 C1315 1.390 . S
C1313 H1317 0.950 . S
H1314 C1310 0.950 . S
C1315 C1313 1.390 . S
C1315 C1316 1.387 . S
C1315 H1318 0.950 . S
C1316 C1315 1.387 . S
C1316 C1319 1.387 . S
H1317 C1313 0.950 . S
H1318 C1315 0.950 . S
C1319 C1310 1.390 . S
C1319 H1312 0.950 . S
C1319 C1316 1.387 . S
C1320 C1321 1.387 . S
C1320 H1324 0.950 . S
C1320 C1329 1.390 . S
C1321 C1320 1.387 . S
C1321 C1323 1.387 . S
H1322 C1329 0.950 . S
C1323 C1321 1.387 . S
C1323 C1325 1.390 . S
C1323 H1327 0.950 . S
H1324 C1320 0.950 . S
C1325 C1323 1.390 . S
C1325 C1326 1.387 . S
C1325 H1328 0.950 . S
C1326 C1325 1.387 . S
C1326 C1329 1.387 . S
H1327 C1323 0.950 . S
H1328 C1325 0.950 . S
C1329 C1320 1.390 . S
C1329 H1322 0.950 . S
C1329 C1326 1.387 . S
C1330 C1331 1.387 . S
C1330 H1334 0.950 . S
C1330 C1339 1.390 . S
C1331 C1330 1.387 . S
C1331 C1333 1.387 . S
H1332 C1339 0.950 . S
C1333 C1331 1.387 . S
C1333 C1335 1.390 . S
C1333 H1337 0.950 . S
H1334 C1330 0.950 . S
C1335 C1333 1.390 . S
C1335 C1336 1.387 . S
C1335 H1338 0.950 . S
C1336 C1335 1.387 . S
C1336 C1339 1.387 . S
H1337 C1333 0.950 . S
H1338 C1335 0.950 . S
C1339 C1330 1.390 . S
C1339 H1332 0.950 . S
C1339 C1336 1.387 . S
C1340 C1341 1.387 . S
C1340 H1344 0.950 . S
C1340 C1349 1.390 . S
C1341 C1340 1.387 . S
C1341 C1343 1.387 . S
H1342 C1349 0.950 . S
C1343 C1341 1.387 . S
C1343 C1345 1.390 . S
C1343 H1347 0.950 . S
H1344 C1340 0.950 . S
C1345 C1343 1.390 . S
C1345 C1346 1.387 . S
C1345 H1348 0.950 . S
C1346 C1345 1.387 . S
C1346 C1349 1.387 . S
H1347 C1343 0.950 . S
H1348 C1345 0.950 . S
C1349 C1340 1.390 . S
C1349 H1342 0.950 . S
C1349 C1346 1.387 . S
C1350 C1351 1.387 . S
C1350 H1354 0.950 . S
C1350 C1359 1.390 1_554 S
C1351 C1350 1.387 . S
C1351 C1353 1.387 . S
H1352 C1359 0.950 . S
C1353 C1351 1.387 . S
C1353 C1355 1.390 . S
C1353 H1357 0.950 . S
H1354 C1350 0.950 . S
C1355 C1353 1.390 . S
C1355 C1356 1.387 1_554 S
C1355 H1358 0.950 . S
C1356 C1355 1.387 1_556 S
C1356 C1359 1.387 . S
H1357 C1353 0.950 . S
H1358 C1355 0.950 . S
C1359 C1350 1.390 1_556 S
C1359 H1352 0.950 . S
C1359 C1356 1.387 . S
C1360 C1361 1.387 . S
C1360 H1364 0.950 . S
C1360 C1369 1.390 . S
C1361 C1360 1.387 . S
C1361 C1363 1.387 . S
H1362 C1369 0.950 . S
C1363 C1361 1.387 . S
C1363 C1365 1.390 . S
C1363 H1367 0.950 . S
H1364 C1360 0.950 . S
C1365 C1363 1.390 . S
C1365 C1366 1.387 . S
C1365 H1368 0.950 . S
C1366 C1365 1.387 . S
C1366 C1369 1.387 . S
H1367 C1363 0.950 . S
H1368 C1365 0.950 . S
C1369 C1360 1.390 . S
C1369 H1362 0.950 . S
C1369 C1366 1.387 . S
C1370 C1371 1.387 . S
C1370 H1374 0.950 . S
C1370 C1379 1.390 . S
C1371 C1370 1.387 . S
C1371 C1373 1.387 . S
H1372 C1379 0.950 . S
C1373 C1371 1.387 . S
C1373 C1375 1.390 . S
C1373 H1377 0.950 . S
H1374 C1370 0.950 . S
C1375 C1373 1.390 . S
C1375 C1376 1.387 . S
C1375 H1378 0.950 . S
C1376 C1375 1.387 . S
C1376 C1379 1.387 . S
H1377 C1373 0.950 . S
H1378 C1375 0.950 . S
C1379 C1370 1.390 . S
C1379 H1372 0.950 . S
C1379 C1376 1.387 . S
C1380 C1381 1.387 . S
C1380 H1384 0.950 . S
C1380 C1389 1.390 1_545 S
C1381 C1380 1.387 . S
C1381 C1383 1.387 . S
H1382 C1389 0.950 . S
C1383 C1381 1.387 . S
C1383 C1385 1.390 1_545 S
C1383 H1387 0.950 . S
H1384 C1380 0.950 . S
C1385 C1383 1.390 1_565 S
C1385 C1386 1.387 . S
C1385 H1388 0.950 . S
C1386 C1385 1.387 . S
C1386 C1389 1.387 . S
H1387 C1383 0.950 . S
H1388 C1385 0.950 . S
C1389 C1380 1.390 1_565 S
C1389 H1382 0.950 . S
C1389 C1386 1.387 . S
C1390 C1391 1.387 . S
C1390 H1394 0.950 . S
C1390 C1399 1.390 . S
C1391 C1390 1.387 . S
C1391 C1393 1.387 . S
H1392 C1399 0.950 . S
C1393 C1391 1.387 . S
C1393 C1395 1.390 . S
C1393 H1397 0.950 . S
H1394 C1390 0.950 . S
C1395 C1393 1.390 . S
C1395 C1396 1.387 . S
C1395 H1398 0.950 . S
C1396 C1395 1.387 . S
C1396 C1399 1.387 . S
H1397 C1393 0.950 . S
H1398 C1395 0.950 . S
C1399 C1390 1.390 . S
C1399 H1392 0.950 . S
C1399 C1396 1.387 . S
C1400 C1401 1.387 . S
C1400 H1404 0.950 . S
C1400 C1409 1.390 . S
C1401 C1400 1.387 . S
C1401 C1403 1.387 . S
H1402 C1409 0.950 . S
C1403 C1401 1.387 . S
C1403 C1405 1.390 . S
C1403 H1407 0.950 . S
H1404 C1400 0.950 . S
C1405 C1403 1.390 . S
C1405 C1406 1.387 . S
C1405 H1408 0.950 . S
C1406 C1405 1.387 . S
C1406 C1409 1.387 . S
H1407 C1403 0.950 . S
H1408 C1405 0.950 . S
C1409 C1400 1.390 . S
C1409 H1402 0.950 . S
C1409 C1406 1.387 . S
C1410 C1411 1.387 . S
C1410 H1414 0.950 . S
C1410 C1419 1.390 . S
C1411 C1410 1.387 . S
C1411 C1413 1.387 . S
H1412 C1419 0.950 . S
C1413 C1411 1.387 . S
C1413 C1415 1.390 . S
C1413 H1417 0.950 . S
H1414 C1410 0.950 . S
C1415 C1413 1.390 . S
C1415 C1416 1.387 . S
C1415 H1418 0.950 . S
C1416 C1415 1.387 . S
C1416 C1419 1.387 . S
H1417 C1413 0.950 . S
H1418 C1415 0.950 . S
C1419 C1410 1.390 . S
C1419 H1412 0.950 . S
C1419 C1416 1.387 . S
C1420 C1421 1.387 . S
C1420 H1424 0.950 . S
C1420 C1429 1.390 1_565 S
C1421 C1420 1.387 . S
C1421 C1423 1.387 . S
H1422 C1429 0.950 . S
C1423 C1421 1.387 . S
C1423 C1425 1.390 . S
C1423 H1427 0.950 . S
H1424 C1420 0.950 . S
C1425 C1423 1.390 . S
C1425 C1426 1.387 1_565 S
C1425 H1428 0.949 . S
C1426 C1425 1.387 1_545 S
C1426 C1429 1.387 . S
H1427 C1423 0.950 . S
H1428 C1425 0.949 . S
C1429 C1420 1.390 1_545 S
C1429 H1422 0.950 . S
C1429 C1426 1.387 . S
C1430 C1431 1.387 . S
C1430 H1434 0.950 . S
C1430 C1439 1.390 . S
C1431 C1430 1.387 . S
C1431 C1433 1.387 . S
H1432 C1439 0.950 . S
C1433 C1431 1.387 . S
C1433 C1435 1.390 . S
C1433 H1437 0.950 . S
H1434 C1430 0.950 . S
C1435 C1433 1.390 . S
C1435 C1436 1.387 . S
C1435 H1438 0.950 . S
C1436 C1435 1.387 . S
C1436 C1439 1.387 . S
H1437 C1433 0.950 . S
H1438 C1435 0.950 . S
C1439 C1430 1.390 . S
C1439 H1432 0.950 . S
C1439 C1436 1.387 . S
C1440 C1441 1.387 . S
C1440 H1444 0.950 . S
C1440 C1449 1.390 . S
C1441 C1440 1.387 . S
C1441 C1443 1.387 . S
H1442 C1449 0.950 . S
C1443 C1441 1.387 . S
C1443 C1445 1.390 . S
C1443 H1447 0.950 . S
H1444 C1440 0.950 . S
C1445 C1443 1.390 . S
C1445 C1446 1.387 . S
C1445 H1448 0.950 . S
C1446 C1445 1.387 . S
C1446 C1449 1.387 . S
H1447 C1443 0.950 . S
H1448 C1445 0.950 . S
C1449 C1440 1.390 . S
C1449 H1442 0.950 . S
C1449 C1446 1.387 . S
C1450 C1451 1.387 . S
C1450 H1454 0.950 . S
C1450 C1459 1.390 . S
C1451 C1450 1.387 . S
C1451 C1453 1.387 . S
H1452 C1459 0.950 . S
C1453 C1451 1.387 . S
C1453 C1455 1.390 . S
C1453 H1457 0.950 . S
H1454 C1450 0.950 . S
C1455 C1453 1.390 . S
C1455 C1456 1.387 . S
C1455 H1458 0.950 . S
C1456 C1455 1.387 . S
C1456 C1459 1.387 . S
H1457 C1453 0.950 . S
H1458 C1455 0.950 . S
C1459 C1450 1.390 . S
C1459 H1452 0.950 . S
C1459 C1456 1.387 . S
C1460 C1461 1.387 . S
C1460 H1464 0.950 . S
C1460 C1469 1.390 . S
C1461 C1460 1.387 . S
C1461 C1463 1.387 . S
H1462 C1469 0.950 . S
C1463 C1461 1.387 . S
C1463 C1465 1.390 . S
C1463 H1467 0.950 . S
H1464 C1460 0.950 . S
C1465 C1463 1.390 . S
C1465 C1466 1.387 . S
C1465 H1468 0.950 . S
C1466 C1465 1.387 . S
C1466 C1469 1.387 . S
H1467 C1463 0.950 . S
H1468 C1465 0.950 . S
C1469 C1460 1.390 . S
C1469 H1462 0.950 . S
C1469 C1466 1.387 . S
C1470 C1471 1.387 . S
C1470 H1474 0.950 . S
C1470 C1479 1.390 . S
C1471 C1470 1.387 . S
C1471 C1473 1.387 . S
H1472 C1479 0.950 . S
C1473 C1471 1.387 . S
C1473 C1475 1.390 . S
C1473 H1477 0.950 . S
H1474 C1470 0.950 . S
C1475 C1473 1.390 . S
C1475 C1476 1.387 . S
C1475 H1478 0.950 . S
C1476 C1475 1.387 . S
C1476 C1479 1.387 . S
H1477 C1473 0.950 . S
H1478 C1475 0.950 . S
C1479 C1470 1.390 . S
C1479 H1472 0.950 . S
C1479 C1476 1.387 . S
C1480 C1481 1.387 . S
C1480 H1484 0.950 . S
C1480 C1489 1.390 . S
C1481 C1480 1.387 . S
C1481 C1483 1.387 . S
H1482 C1489 0.950 . S
C1483 C1481 1.387 . S
C1483 C1485 1.390 . S
C1483 H1487 0.950 . S
H1484 C1480 0.950 . S
C1485 C1483 1.390 . S
C1485 C1486 1.387 . S
C1485 H1488 0.950 . S
C1486 C1485 1.387 . S
C1486 C1489 1.387 . S
H1487 C1483 0.950 . S
H1488 C1485 0.950 . S
C1489 C1480 1.390 . S
C1489 H1482 0.950 . S
C1489 C1486 1.387 . S
C1490 C1491 1.387 . S
C1490 H1494 0.950 . S
C1490 C1499 1.390 . S
C1491 C1490 1.387 . S
C1491 C1493 1.387 . S
H1492 C1499 0.950 . S
C1493 C1491 1.387 . S
C1493 C1495 1.390 . S
C1493 H1497 0.950 . S
H1494 C1490 0.950 . S
C1495 C1493 1.390 . S
C1495 C1496 1.387 . S
C1495 H1498 0.950 . S
C1496 C1495 1.387 . S
C1496 C1499 1.387 . S
H1497 C1493 0.950 . S
H1498 C1495 0.950 . S
C1499 C1490 1.390 . S
C1499 H1492 0.950 . S
C1499 C1496 1.387 . S
C1500 C1501 1.387 . S
C1500 H1504 0.950 . S
C1500 C1509 1.390 . S
C1501 C1500 1.387 . S
C1501 C1503 1.387 . S
H1502 C1509 0.950 1_556 S
C1503 C1501 1.387 . S
C1503 C1505 1.390 . S
C1503 H1507 0.950 . S
H1504 C1500 0.950 . S
C1505 C1503 1.390 . S
C1505 C1506 1.387 1_554 S
C1505 H1508 0.950 1_554 S
C1506 C1505 1.387 1_556 S
C1506 C1509 1.387 1_556 S
H1507 C1503 0.950 . S
H1508 C1505 0.950 1_556 S
C1509 C1500 1.390 . S
C1509 H1502 0.950 1_554 S
C1509 C1506 1.387 1_554 S
C1510 C1511 1.387 . S
C1510 H1514 0.950 . S
C1510 C1519 1.390 . S
C1511 C1510 1.387 . S
C1511 C1513 1.387 . S
H1512 C1519 0.950 . S
C1513 C1511 1.387 . S
C1513 C1515 1.390 . S
C1513 H1517 0.950 . S
H1514 C1510 0.950 . S
C1515 C1513 1.390 . S
C1515 C1516 1.387 . S
C1515 H1518 0.950 . S
C1516 C1515 1.387 . S
C1516 C1519 1.387 . S
H1517 C1513 0.950 . S
H1518 C1515 0.950 . S
C1519 C1510 1.390 . S
C1519 H1512 0.950 . S
C1519 C1516 1.387 . S
C1520 C1521 1.387 . S
C1520 H1524 0.950 . S
C1520 C1529 1.390 . S
C1521 C1520 1.387 . S
C1521 C1523 1.387 . S
H1522 C1529 0.950 . S
C1523 C1521 1.387 . S
C1523 C1525 1.390 . S
C1523 H1527 0.938 1_556 S
H1524 C1520 0.950 . S
C1525 C1523 1.390 . S
C1525 C1526 1.387 . S
C1525 H1528 0.950 . S
C1526 C1525 1.387 . S
C1526 C1529 1.387 . S
H1527 C1523 0.938 1_554 S
H1528 C1525 0.950 . S
C1529 C1520 1.390 . S
C1529 H1522 0.950 . S
C1529 C1526 1.387 . S
C1530 C1531 1.387 . S
C1530 H1534 0.950 . S
C1530 C1539 1.390 . S
C1531 C1530 1.387 . S
C1531 C1533 1.387 . S
H1532 C1539 0.950 . S
C1533 C1531 1.387 . S
C1533 C1535 1.390 . S
C1533 H1537 0.950 . S
H1534 C1530 0.950 . S
C1535 C1533 1.390 . S
C1535 C1536 1.387 . S
C1535 H1538 0.950 . S
C1536 C1535 1.387 . S
C1536 C1539 1.387 . S
H1537 C1533 0.950 . S
H1538 C1535 0.950 . S
C1539 C1530 1.390 . S
C1539 H1532 0.950 . S
C1539 C1536 1.387 . S
C1540 C1541 1.387 . S
C1540 H1544 0.950 . S
C1540 C1549 1.390 . S
C1541 C1540 1.387 . S
C1541 C1543 1.387 . S
H1542 C1549 0.950 . S
C1543 C1541 1.387 . S
C1543 C1545 1.390 . S
C1543 H1547 0.950 . S
H1544 C1540 0.950 . S
C1545 C1543 1.390 . S
C1545 C1546 1.387 . S
C1545 H1548 0.950 . S
C1546 C1545 1.387 . S
C1546 C1549 1.387 . S
H1547 C1543 0.950 . S
H1548 C1545 0.950 . S
C1549 C1540 1.390 . S
C1549 H1542 0.950 . S
C1549 C1546 1.387 . S
C1550 C1551 1.387 . S
C1550 H1554 0.950 . S
C1550 C1559 1.390 . S
C1551 C1550 1.387 . S
C1551 C1553 1.387 . S
H1552 C1559 0.950 . S
C1553 C1551 1.387 . S
C1553 C1555 1.390 . S
C1553 H1557 0.950 . S
H1554 C1550 0.950 . S
C1555 C1553 1.390 . S
C1555 C1556 1.387 . S
C1555 H1558 0.950 . S
C1556 C1555 1.387 . S
C1556 C1559 1.387 . S
H1557 C1553 0.950 . S
H1558 C1555 0.950 . S
C1559 C1550 1.390 . S
C1559 H1552 0.950 . S
C1559 C1556 1.387 . S
C1560 C1561 1.387 . S
C1560 H1564 0.950 . S
C1560 C1569 1.390 . S
C1561 C1560 1.387 . S
C1561 C1563 1.387 . S
H1562 C1569 0.950 . S
C1563 C1561 1.387 . S
C1563 C1565 1.390 . S
C1563 H1567 0.950 . S
H1564 C1560 0.950 . S
C1565 C1563 1.390 . S
C1565 C1566 1.387 . S
C1565 H1568 0.950 . S
C1566 C1565 1.387 . S
C1566 C1569 1.387 . S
H1567 C1563 0.950 . S
H1568 C1565 0.950 . S
C1569 C1560 1.390 . S
C1569 H1562 0.950 . S
C1569 C1566 1.387 . S
C1570 C1571 1.387 . S
C1570 H1574 0.950 . S
C1570 C1579 1.390 . S
C1571 C1570 1.387 . S
C1571 C1573 1.387 . S
H1572 C1579 0.950 . S
C1573 C1571 1.387 . S
C1573 C1575 1.390 . S
C1573 H1577 0.950 . S
H1574 C1570 0.950 . S
C1575 C1573 1.390 . S
C1575 C1576 1.387 . S
C1575 H1578 0.950 . S
C1576 C1575 1.387 . S
C1576 C1579 1.387 . S
H1577 C1573 0.950 . S
H1578 C1575 0.950 . S
C1579 C1570 1.390 . S
C1579 H1572 0.950 . S
C1579 C1576 1.387 . S
C1580 C1581 1.387 . S
C1580 H1584 0.950 . S
C1580 C1589 1.390 . S
C1581 C1580 1.387 . S
C1581 C1583 1.387 . S
H1582 C1589 0.950 . S
C1583 C1581 1.387 . S
C1583 C1585 1.390 . S
C1583 H1587 0.950 . S
H1584 C1580 0.950 . S
C1585 C1583 1.390 . S
C1585 C1586 1.387 . S
C1585 H1588 0.950 . S
C1586 C1585 1.387 . S
C1586 C1589 1.387 . S
H1587 C1583 0.950 . S
H1588 C1585 0.950 . S
C1589 C1580 1.390 . S
C1589 H1582 0.950 . S
C1589 C1586 1.387 . S
C1590 C1591 1.381 1_554 S
C1590 H1594 0.934 1_554 S
C1590 C1599 1.413 . S
C1591 C1590 1.381 1_556 S
C1591 C1593 1.387 1_556 S
H1592 C1599 0.950 . S
C1593 C1591 1.387 1_554 S
C1593 C1595 1.390 . S
C1593 H1597 0.950 1_554 S
H1594 C1590 0.934 1_556 S
C1595 C1593 1.390 . S
C1595 C1596 1.387 . S
C1595 H1598 0.950 . S
C1596 C1595 1.387 . S
C1596 C1599 1.387 . S
H1597 C1593 0.950 1_556 S
H1598 C1595 0.950 . S
C1599 C1590 1.413 . S
C1599 H1592 0.950 . S
C1599 C1596 1.387 . S
C1600 C1601 1.387 1_455 S
C1600 H1604 0.950 . S
C1600 C1609 1.390 . S
C1601 C1600 1.387 1_655 S
C1601 C1603 1.387 . S
H1602 C1609 0.950 . S
C1603 C1601 1.387 . S
C1603 C1605 1.390 . S
C1603 H1607 0.950 . S
H1604 C1600 0.950 . S
C1605 C1603 1.390 . S
C1605 C1606 1.387 1_655 S
C1605 H1608 0.950 . S
C1606 C1605 1.387 1_455 S
C1606 C1609 1.387 . S
H1607 C1603 0.950 . S
H1608 C1605 0.950 . S
C1609 C1600 1.390 . S
C1609 H1602 0.950 . S
C1609 C1606 1.387 . S
C1610 C1611 1.387 . S
C1610 H1614 0.950 . S
C1610 C1619 1.390 . S
C1611 C1610 1.387 . S
C1611 C1613 1.387 . S
H1612 C1619 0.950 . S
C1613 C1611 1.387 . S
C1613 C1615 1.390 . S
C1613 H1617 0.950 . S
H1614 C1610 0.950 . S
C1615 C1613 1.390 . S
C1615 C1616 1.387 . S
C1615 H1618 0.950 . S
C1616 C1615 1.387 . S
C1616 C1619 1.387 . S
H1617 C1613 0.950 . S
H1618 C1615 0.950 . S
C1619 C1610 1.390 . S
C1619 H1612 0.950 . S
C1619 C1616 1.387 . S
C1620 C1621 1.387 . S
C1620 H1624 0.950 . S
C1620 C1629 1.390 . S
C1621 C1620 1.387 . S
C1621 C1623 1.387 . S
H1622 C1629 0.950 . S
C1623 C1621 1.387 . S
C1623 C1625 1.390 . S
C1623 H1627 0.950 . S
H1624 C1620 0.950 . S
C1625 C1623 1.390 . S
C1625 C1626 1.387 . S
C1625 H1628 0.950 . S
C1626 C1625 1.387 . S
C1626 C1629 1.387 . S
H1627 C1623 0.950 . S
H1628 C1625 0.950 . S
C1629 C1620 1.390 . S
C1629 H1622 0.950 . S
C1629 C1626 1.387 . S
C1630 C1631 1.387 . S
C1630 H1634 0.950 . S
C1630 C1639 1.390 . S
C1631 C1630 1.387 . S
C1631 C1633 1.387 . S
H1632 C1639 0.950 . S
C1633 C1631 1.387 . S
C1633 C1635 1.390 . S
C1633 H1637 0.950 . S
H1634 C1630 0.950 . S
C1635 C1633 1.390 . S
C1635 C1636 1.387 . S
C1635 H1638 0.950 . S
C1636 C1635 1.387 . S
C1636 C1639 1.387 . S
H1637 C1633 0.950 . S
H1638 C1635 0.950 . S
C1639 C1630 1.390 . S
C1639 H1632 0.950 . S
C1639 C1636 1.387 . S
C1640 C1641 1.387 . S
C1640 H1644 0.950 . S
C1640 C1649 1.390 . S
C1641 C1640 1.387 . S
C1641 C1643 1.387 1_655 S
H1642 C1649 0.950 . S
C1643 C1641 1.387 1_455 S
C1643 C1645 1.390 . S
C1643 H1647 0.950 . S
H1644 C1640 0.950 . S
C1645 C1643 1.390 . S
C1645 C1646 1.387 . S
C1645 H1648 0.950 . S
C1646 C1645 1.387 . S
C1646 C1649 1.387 1_455 S
H1647 C1643 0.950 . S
H1648 C1645 0.950 . S
C1649 C1640 1.390 . S
C1649 H1642 0.950 . S
C1649 C1646 1.387 1_655 S
C1650 C1651 1.387 . S
C1650 H1654 0.950 . S
C1650 C1659 1.390 . S
C1651 C1650 1.387 . S
C1651 C1653 1.387 . S
H1652 C1659 0.950 . S
C1653 C1651 1.387 . S
C1653 C1655 1.390 . S
C1653 H1657 0.950 . S
H1654 C1650 0.950 . S
C1655 C1653 1.390 . S
C1655 C1656 1.387 . S
C1655 H1658 0.950 . S
C1656 C1655 1.387 . S
C1656 C1659 1.387 . S
H1657 C1653 0.950 . S
H1658 C1655 0.950 . S
C1659 C1650 1.390 . S
C1659 H1652 0.950 . S
C1659 C1656 1.387 . S
C1660 C1661 1.387 . S
C1660 H1664 0.950 . S
C1660 C1669 1.390 . S
C1661 C1660 1.387 . S
C1661 C1663 1.387 . S
H1662 C1669 0.950 . S
C1663 C1661 1.387 . S
C1663 C1665 1.390 . S
C1663 H1667 0.950 . S
H1664 C1660 0.950 . S
C1665 C1663 1.390 . S
C1665 C1666 1.387 . S
C1665 H1668 0.950 . S
C1666 C1665 1.387 . S
C1666 C1669 1.387 . S
H1667 C1663 0.950 . S
H1668 C1665 0.950 . S
C1669 C1660 1.390 . S
C1669 H1662 0.950 . S
C1669 C1666 1.387 . S
C1670 C1671 1.387 . S
C1670 H1674 0.950 . S
C1670 C1679 1.390 . S
C1671 C1670 1.387 . S
C1671 C1673 1.387 . S
H1672 C1679 0.950 . S
C1673 C1671 1.387 . S
C1673 C1675 1.390 . S
C1673 H1677 0.950 . S
H1674 C1670 0.950 . S
C1675 C1673 1.390 . S
C1675 C1676 1.387 . S
C1675 H1678 0.950 . S
C1676 C1675 1.387 . S
C1676 C1679 1.387 . S
H1677 C1673 0.950 . S
H1678 C1675 0.950 . S
C1679 C1670 1.390 . S
C1679 H1672 0.950 . S
C1679 C1676 1.387 . S
C1680 C1681 1.387 . S
C1680 H1684 0.950 . S
C1680 C1689 1.390 . S
C1681 C1680 1.387 . S
C1681 C1683 1.387 . S
H1682 C1689 0.950 . S
C1683 C1681 1.387 . S
C1683 C1685 1.390 . S
C1683 H1687 0.950 . S
H1684 C1680 0.950 . S
C1685 C1683 1.390 . S
C1685 C1686 1.387 . S
C1685 H1688 0.950 . S
C1686 C1685 1.387 . S
C1686 C1689 1.387 . S
H1687 C1683 0.950 . S
H1688 C1685 0.950 . S
C1689 C1680 1.390 . S
C1689 H1682 0.950 . S
C1689 C1686 1.387 . S
C1690 C1691 1.387 . S
C1690 H1694 0.950 . S
C1690 C1699 1.390 . S
C1691 C1690 1.387 . S
C1691 C1693 1.387 . S
H1692 C1699 0.950 . S
C1693 C1691 1.387 . S
C1693 C1695 1.390 . S
C1693 H1697 0.950 . S
H1694 C1690 0.950 . S
C1695 C1693 1.390 . S
C1695 C1696 1.387 . S
C1695 H1698 0.950 . S
C1696 C1695 1.387 . S
C1696 C1699 1.387 . S
H1697 C1693 0.950 . S
H1698 C1695 0.950 . S
C1699 C1690 1.390 . S
C1699 H1692 0.950 . S
C1699 C1696 1.387 . S
C1700 C1701 1.387 . S
C1700 H1704 0.950 . S
C1700 C1709 1.390 . S
C1701 C1700 1.387 . S
C1701 C1703 1.387 . S
H1702 C1709 0.950 . S
C1703 C1701 1.387 . S
C1703 C1705 1.390 . S
C1703 H1707 0.950 . S
H1704 C1700 0.950 . S
C1705 C1703 1.390 . S
C1705 C1706 1.387 . S
C1705 H1708 0.950 . S
C1706 C1705 1.387 . S
C1706 C1709 1.387 . S
H1707 C1703 0.950 . S
H1708 C1705 0.950 . S
C1709 C1700 1.390 . S
C1709 H1702 0.950 . S
C1709 C1706 1.387 . S
C1710 C1711 1.387 . S
C1710 H1714 0.950 . S
C1710 C1719 1.390 . S
C1711 C1710 1.387 . S
C1711 C1713 1.387 . S
H1712 C1719 0.950 . S
C1713 C1711 1.387 . S
C1713 C1715 1.390 . S
C1713 H1717 0.950 . S
H1714 C1710 0.950 . S
C1715 C1713 1.390 . S
C1715 C1716 1.387 . S
C1715 H1718 0.950 . S
C1716 C1715 1.387 . S
C1716 C1719 1.387 . S
H1717 C1713 0.950 . S
H1718 C1715 0.950 . S
C1719 C1710 1.390 . S
C1719 H1712 0.950 . S
C1719 C1716 1.387 . S
C1720 C1721 1.387 1_565 S
C1720 H1724 0.950 . S
C1720 C1729 1.390 . S
C1721 C1720 1.387 1_545 S
C1721 C1723 1.387 . S
H1722 C1729 0.950 . S
C1723 C1721 1.387 . S
C1723 C1725 1.390 . S
C1723 H1727 0.950 . S
H1724 C1720 0.950 . S
C1725 C1723 1.390 . S
C1725 C1726 1.387 1_545 S
C1725 H1728 0.950 . S
C1726 C1725 1.387 1_565 S
C1726 C1729 1.387 . S
H1727 C1723 0.950 . S
H1728 C1725 0.950 . S
C1729 C1720 1.390 . S
C1729 H1722 0.950 . S
C1729 C1726 1.387 . S
C1730 C1731 1.387 . S
C1730 H1734 0.950 . S
C1730 C1739 1.390 . S
C1731 C1730 1.387 . S
C1731 C1733 1.387 1_465 S
H1732 C1739 0.950 . S
C1733 C1731 1.387 1_645 S
C1733 C1735 1.390 . S
C1733 H1737 0.950 . S
H1734 C1730 0.950 . S
C1735 C1733 1.390 . S
C1735 C1736 1.387 . S
C1735 H1738 0.950 . S
C1736 C1735 1.387 . S
C1736 C1739 1.387 1_645 S
H1737 C1733 0.950 . S
H1738 C1735 0.950 . S
C1739 C1730 1.390 . S
C1739 H1732 0.950 . S
C1739 C1736 1.387 1_465 S
C1740 C1741 1.387 . S
C1740 H1744 0.950 . S
C1740 C1749 1.390 . S
C1741 C1740 1.387 . S
C1741 C1743 1.387 1_565 S
H1742 C1749 0.950 . S
C1743 C1741 1.387 1_545 S
C1743 C1745 1.390 . S
C1743 H1747 0.950 . S
H1744 C1740 0.950 . S
C1745 C1743 1.390 . S
C1745 C1746 1.387 . S
C1745 H1748 0.950 . S
C1746 C1745 1.387 . S
C1746 C1749 1.387 1_545 S
H1747 C1743 0.950 . S
H1748 C1745 0.950 . S
C1749 C1740 1.390 . S
C1749 H1742 0.950 . S
C1749 C1746 1.387 1_565 S
C1750 C1751 1.368 1_455 S
C1750 H1754 0.952 . S
C1750 C1759 1.409 . S
C1751 C1750 1.368 1_655 S
C1751 C1753 1.387 1_565 S
H1752 C1759 0.950 . S
C1753 C1751 1.387 1_545 S
C1753 C1755 1.410 . S
C1753 H1757 0.950 . S
H1754 C1750 0.952 . S
C1755 C1753 1.410 . S
C1755 C1756 1.367 1_655 S
C1755 H1758 0.952 . S
C1756 C1755 1.367 1_455 S
C1756 C1759 1.387 1_545 S
H1757 C1753 0.950 . S
H1758 C1755 0.952 . S
C1759 C1750 1.409 . S
C1759 H1752 0.950 . S
C1759 C1756 1.387 1_565 S
C1760 C1761 1.387 . S
C1760 H1764 0.950 . S
C1760 C1769 1.390 . S
C1761 C1760 1.387 . S
C1761 C1763 1.387 . S
H1762 C1769 0.950 . S
C1763 C1761 1.387 . S
C1763 C1765 1.390 . S
C1763 H1767 0.950 . S
H1764 C1760 0.950 . S
C1765 C1763 1.390 . S
C1765 C1766 1.387 1_455 S
C1765 H1768 0.950 1_455 S
C1766 C1765 1.387 1_655 S
C1766 C1769 1.387 1_655 S
H1767 C1763 0.950 . S
H1768 C1765 0.950 1_655 S
C1769 C1760 1.390 . S
C1769 H1762 0.950 . S
C1769 C1766 1.387 1_455 S
C1770 C1771 1.387 . S
C1770 H1774 0.950 . S
C1770 C1779 1.390 1_556 S
C1771 C1770 1.387 . S
C1771 C1773 1.387 . S
H1772 C1779 0.950 . S
C1773 C1771 1.387 . S
C1773 C1775 1.390 1_556 S
C1773 H1777 0.950 . S
H1774 C1770 0.950 . S
C1775 C1773 1.390 1_554 S
C1775 C1776 1.387 . S
C1775 H1778 0.950 . S
C1776 C1775 1.387 . S
C1776 C1779 1.387 . S
H1777 C1773 0.950 . S
H1778 C1775 0.950 . S
C1779 C1770 1.390 1_554 S
C1779 H1772 0.950 . S
C1779 C1776 1.387 . S
C1780 C1781 1.387 . S
C1780 H1784 0.950 . S
C1780 C1789 1.390 . S
C1781 C1780 1.387 . S
C1781 C1783 1.387 . S
H1782 C1789 0.950 . S
C1783 C1781 1.387 . S
C1783 C1785 1.390 . S
C1783 H1787 0.950 . S
H1784 C1780 0.950 . S
C1785 C1783 1.390 . S
C1785 C1786 1.387 . S
C1785 H1788 0.950 . S
C1786 C1785 1.387 . S
C1786 C1789 1.387 . S
H1787 C1783 0.950 . S
H1788 C1785 0.950 . S
C1789 C1780 1.390 . S
C1789 H1782 0.950 . S
C1789 C1786 1.387 . S
C1790 C1791 1.387 . S
C1790 H1794 0.950 . S
C1790 C1799 1.390 . S
C1791 C1790 1.387 . S
C1791 C1793 1.387 . S
H1792 C1799 0.950 . S
C1793 C1791 1.387 . S
C1793 C1795 1.390 . S
C1793 H1797 0.950 . S
H1794 C1790 0.950 . S
C1795 C1793 1.390 . S
C1795 C1796 1.387 . S
C1795 H1798 0.950 . S
C1796 C1795 1.387 . S
C1796 C1799 1.387 . S
H1797 C1793 0.950 . S
H1798 C1795 0.950 . S
C1799 C1790 1.390 . S
C1799 H1792 0.950 . S
C1799 C1796 1.387 . S
C1800 C1801 1.387 1_455 S
C1800 H1804 0.950 . S
C1800 C1809 1.390 . S
C1801 C1800 1.387 1_655 S
C1801 C1803 1.387 . S
H1802 C1809 0.950 . S
C1803 C1801 1.387 . S
C1803 C1805 1.390 1_655 S
C1803 H1807 0.950 . S
H1804 C1800 0.950 . S
C1805 C1803 1.390 1_455 S
C1805 C1806 1.387 . S
C1805 H1808 0.950 . S
C1806 C1805 1.387 . S
C1806 C1809 1.387 . S
H1807 C1803 0.950 . S
H1808 C1805 0.950 . S
C1809 C1800 1.390 . S
C1809 H1802 0.950 . S
C1809 C1806 1.387 . S
C1810 C1811 1.387 . S
C1810 H1814 0.950 . S
C1810 C1819 1.390 . S
C1811 C1810 1.387 . S
C1811 C1813 1.387 . S
H1812 C1819 0.950 . S
C1813 C1811 1.387 . S
C1813 C1815 1.390 . S
C1813 H1817 0.950 . S
H1814 C1810 0.950 . S
C1815 C1813 1.390 . S
C1815 C1816 1.387 . S
C1815 H1818 0.950 . S
C1816 C1815 1.387 . S
C1816 C1819 1.387 . S
H1817 C1813 0.950 . S
H1818 C1815 0.950 . S
C1819 C1810 1.390 . S
C1819 H1812 0.950 . S
C1819 C1816 1.387 . S
C1820 C1821 1.387 . S
C1820 H1824 0.950 . S
C1820 C1829 1.390 . S
C1821 C1820 1.387 . S
C1821 C1823 1.387 . S
H1822 C1829 0.950 . S
C1823 C1821 1.387 . S
C1823 C1825 1.390 . S
C1823 H1827 0.950 . S
H1824 C1820 0.950 . S
C1825 C1823 1.390 . S
C1825 C1826 1.387 . S
C1825 H1828 0.950 . S
C1826 C1825 1.387 . S
C1826 C1829 1.387 . S
H1827 C1823 0.950 . S
H1828 C1825 0.950 . S
C1829 C1820 1.390 . S
C1829 H1822 0.950 . S
C1829 C1826 1.387 . S
C1830 C1831 1.387 . S
C1830 H1834 0.950 . S
C1830 C1839 1.390 . S
C1831 C1830 1.387 . S
C1831 C1833 1.387 . S
H1832 C1839 0.950 . S
C1833 C1831 1.387 . S
C1833 C1835 1.390 . S
C1833 H1837 0.950 . S
H1834 C1830 0.950 . S
C1835 C1833 1.390 . S
C1835 C1836 1.387 . S
C1835 H1838 0.950 . S
C1836 C1835 1.387 . S
C1836 C1839 1.387 . S
H1837 C1833 0.950 . S
H1838 C1835 0.950 . S
C1839 C1830 1.390 . S
C1839 H1832 0.950 . S
C1839 C1836 1.387 . S
C1840 C1841 1.381 1_655 S
C1840 H1844 0.935 1_655 S
C1840 C1849 1.413 . S
C1841 C1840 1.381 1_455 S
C1841 C1843 1.387 1_455 S
H1842 C1849 0.950 . S
C1843 C1841 1.387 1_655 S
C1843 C1845 1.390 . S
C1843 H1847 0.950 . S
H1844 C1840 0.935 1_455 S
C1845 C1843 1.390 . S
C1845 C1846 1.387 . S
C1845 H1848 0.950 . S
C1846 C1845 1.387 . S
C1846 C1849 1.387 . S
H1847 C1843 0.950 . S
H1848 C1845 0.950 . S
C1849 C1840 1.413 . S
C1849 H1842 0.950 . S
C1849 C1846 1.387 . S
C1850 C1851 1.387 . S
C1850 H1854 0.950 . S
C1850 C1859 1.390 . S
C1851 C1850 1.387 . S
C1851 C1853 1.387 . S
H1852 C1859 0.950 . S
C1853 C1851 1.387 . S
C1853 C1855 1.390 . S
C1853 H1857 0.950 . S
H1854 C1850 0.950 . S
C1855 C1853 1.390 . S
C1855 C1856 1.387 . S
C1855 H1858 0.950 . S
C1856 C1855 1.387 . S
C1856 C1859 1.387 . S
H1857 C1853 0.950 . S
H1858 C1855 0.950 . S
C1859 C1850 1.390 . S
C1859 H1852 0.950 . S
C1859 C1856 1.387 . S
C1860 C1861 1.387 . S
C1860 H1864 0.950 . S
C1860 C1869 1.390 1_554 S
C1861 C1860 1.387 . S
C1861 C1863 1.387 . S
H1862 C1869 0.950 . S
C1863 C1861 1.387 . S
C1863 C1865 1.390 . S
C1863 H1867 0.950 . S
H1864 C1860 0.950 . S
C1865 C1863 1.390 . S
C1865 C1866 1.387 1_554 S
C1865 H1868 0.950 . S
C1866 C1865 1.387 1_556 S
C1866 C1869 1.387 . S
H1867 C1863 0.950 . S
H1868 C1865 0.950 . S
C1869 C1860 1.390 1_556 S
C1869 H1862 0.950 . S
C1869 C1866 1.387 . S
C1870 C1871 1.387 . S
C1870 H1874 0.950 . S
C1870 C1879 1.390 . S
C1871 C1870 1.387 . S
C1871 C1873 1.387 . S
H1872 C1879 0.950 . S
C1873 C1871 1.387 . S
C1873 C1875 1.390 . S
C1873 H1877 0.950 . S
H1874 C1870 0.950 . S
C1875 C1873 1.390 . S
C1875 C1876 1.387 . S
C1875 H1878 0.950 . S
C1876 C1875 1.387 . S
C1876 C1879 1.387 . S
H1877 C1873 0.950 . S
H1878 C1875 0.950 . S
C1879 C1870 1.390 . S
C1879 H1872 0.950 . S
C1879 C1876 1.387 . S
C1880 C1881 1.387 . S
C1880 H1884 0.950 . S
C1880 C1889 1.390 1_455 S
C1881 C1880 1.387 . S
C1881 C1883 1.403 . S
H1882 C1889 0.950 . S
C1883 C1881 1.403 . S
C1883 C1885 1.367 1_455 S
C1883 H1887 0.960 . S
H1884 C1880 0.950 . S
C1885 C1883 1.367 1_655 S
C1885 C1886 1.387 . S
C1885 H1888 0.950 . S
C1886 C1885 1.387 . S
C1886 C1889 1.387 . S
H1887 C1883 0.960 . S
H1888 C1885 0.950 . S
C1889 C1880 1.390 1_655 S
C1889 H1882 0.950 . S
C1889 C1886 1.387 . S
C1890 C1891 1.387 1_554 S
C1890 H1894 0.950 . S
C1890 C1899 1.390 . S
C1891 C1890 1.387 1_556 S
C1891 C1893 1.387 . S
H1892 C1899 0.950 . S
C1893 C1891 1.387 . S
C1893 C1895 1.390 1_556 S
C1893 H1897 0.950 . S
H1894 C1890 0.950 . S
C1895 C1893 1.390 1_554 S
C1895 C1896 1.387 . S
C1895 H1898 0.950 1_554 S
C1896 C1895 1.387 . S
C1896 C1899 1.387 . S
H1897 C1893 0.950 . S
H1898 C1895 0.950 1_556 S
C1899 C1890 1.390 . S
C1899 H1892 0.950 . S
C1899 C1896 1.387 . S
C1900 C1901 1.387 . S
C1900 H1904 0.950 . S
C1900 C1909 1.390 . S
C1901 C1900 1.387 . S
C1901 C1903 1.387 . S
H1902 C1909 0.950 . S
C1903 C1901 1.387 . S
C1903 C1905 1.390 . S
C1903 H1907 0.950 . S
H1904 C1900 0.950 . S
C1905 C1903 1.390 . S
C1905 C1906 1.387 . S
C1905 H1908 0.950 . S
C1906 C1905 1.387 . S
C1906 C1909 1.387 . S
H1907 C1903 0.950 . S
H1908 C1905 0.950 . S
C1909 C1900 1.390 . S
C1909 H1902 0.950 . S
C1909 C1906 1.387 . S
C1910 C1911 1.387 . S
C1910 H1914 0.950 . S
C1910 C1919 1.390 . S
C1911 C1910 1.387 . S
C1911 C1913 1.387 . S
H1912 C1919 0.950 . S
C1913 C1911 1.387 . S
C1913 C1915 1.390 . S
C1913 H1917 0.950 . S
H1914 C1910 0.950 . S
C1915 C1913 1.390 . S
C1915 C1916 1.387 . S
C1915 H1918 0.950 . S
C1916 C1915 1.387 . S
C1916 C1919 1.387 . S
H1917 C1913 0.950 . S
H1918 C1915 0.950 . S
C1919 C1910 1.390 . S
C1919 H1912 0.950 . S
C1919 C1916 1.387 . S
C1920 C1921 1.387 . S
C1920 H1924 0.950 . S
C1920 C1929 1.390 . S
C1921 C1920 1.387 . S
C1921 C1923 1.387 . S
H1922 C1929 0.950 . S
C1923 C1921 1.387 . S
C1923 C1925 1.390 . S
C1923 H1927 0.950 . S
H1924 C1920 0.950 . S
C1925 C1923 1.390 . S
C1925 C1926 1.387 . S
C1925 H1928 0.950 . S
C1926 C1925 1.387 . S
C1926 C1929 1.387 . S
H1927 C1923 0.950 . S
H1928 C1925 0.950 . S
C1929 C1920 1.390 . S
C1929 H1922 0.950 . S
C1929 C1926 1.387 . S
C1930 C1931 1.387 . S
C1930 H1934 0.950 . S
C1930 C1939 1.390 . S
C1931 C1930 1.387 . S
C1931 C1933 1.387 . S
H1932 C1939 0.950 . S
C1933 C1931 1.387 . S
C1933 C1935 1.390 . S
C1933 H1937 0.950 . S
H1934 C1930 0.950 . S
C1935 C1933 1.390 . S
C1935 C1936 1.387 . S
C1935 H1938 0.950 . S
C1936 C1935 1.387 . S
C1936 C1939 1.387 . S
H1937 C1933 0.950 . S
H1938 C1935 0.950 . S
C1939 C1930 1.390 . S
C1939 H1932 0.950 . S
C1939 C1936 1.387 . S
C1940 C1941 1.387 . S
C1940 H1944 0.950 1_455 S
C1940 C1949 1.390 . S
C1941 C1940 1.387 . S
C1941 C1943 1.387 . S
H1942 C1949 0.950 . S
C1943 C1941 1.387 . S
C1943 C1945 1.390 . S
C1943 H1947 0.950 . S
H1944 C1940 0.950 1_655 S
C1945 C1943 1.390 . S
C1945 C1946 1.387 . S
C1945 H1948 0.950 . S
C1946 C1945 1.387 . S
C1946 C1949 1.387 . S
H1947 C1943 0.950 . S
H1948 C1945 0.950 . S
C1949 C1940 1.390 . S
C1949 H1942 0.950 . S
C1949 C1946 1.387 . S
C1950 C1951 1.387 . S
C1950 H1954 0.950 . S
C1950 C1959 1.390 . S
C1951 C1950 1.387 . S
C1951 C1953 1.387 . S
H1952 C1959 0.950 . S
C1953 C1951 1.387 . S
C1953 C1955 1.390 . S
C1953 H1957 0.950 . S
H1954 C1950 0.950 . S
C1955 C1953 1.390 . S
C1955 C1956 1.387 . S
C1955 H1958 0.950 . S
C1956 C1955 1.387 . S
C1956 C1959 1.387 . S
H1957 C1953 0.950 . S
H1958 C1955 0.950 . S
C1959 C1950 1.390 . S
C1959 H1952 0.950 . S
C1959 C1956 1.387 . S
C1960 C1961 1.387 . S
C1960 H1964 0.950 . S
C1960 C1969 1.390 . S
C1961 C1960 1.387 . S
C1961 C1963 1.387 . S
H1962 C1969 0.950 . S
C1963 C1961 1.387 . S
C1963 C1965 1.390 . S
C1963 H1967 0.950 . S
H1964 C1960 0.950 . S
C1965 C1963 1.390 . S
C1965 C1966 1.387 . S
C1965 H1968 0.950 . S
C1966 C1965 1.387 . S
C1966 C1969 1.387 . S
H1967 C1963 0.950 . S
H1968 C1965 0.950 . S
C1969 C1960 1.390 . S
C1969 H1962 0.950 . S
C1969 C1966 1.387 . S
C1970 C1971 1.387 . S
C1970 H1974 0.950 . S
C1970 C1979 1.390 . S
C1971 C1970 1.387 . S
C1971 C1973 1.387 . S
H1972 C1979 0.950 . S
C1973 C1971 1.387 . S
C1973 C1975 1.390 . S
C1973 H1977 0.950 . S
H1974 C1970 0.950 . S
C1975 C1973 1.390 . S
C1975 C1976 1.387 . S
C1975 H1978 0.950 . S
C1976 C1975 1.387 . S
C1976 C1979 1.387 . S
H1977 C1973 0.950 . S
H1978 C1975 0.950 . S
C1979 C1970 1.390 . S
C1979 H1972 0.950 . S
C1979 C1976 1.387 . S
C1980 C1981 1.387 . S
C1980 H1984 0.950 . S
C1980 C1989 1.386 1_554 S
C1981 C1980 1.387 . S
C1981 C1983 1.387 . S
H1982 C1989 0.950 . S
C1983 C1981 1.387 . S
C1983 C1985 1.390 1_454 S
C1983 H1987 0.950 . S
H1984 C1980 0.950 . S
C1985 C1983 1.390 1_656 S
C1985 C1986 1.387 . S
C1985 H1988 0.950 . S
C1986 C1985 1.387 . S
C1986 C1989 1.391 1_655 S
H1987 C1983 0.950 . S
H1988 C1985 0.950 . S
C1989 C1980 1.386 1_556 S
C1989 H1982 0.950 . S
C1989 C1986 1.391 1_455 S
C1990 C1991 1.387 . S
C1990 H1994 0.950 . S
C1990 C1999 1.390 . S
C1991 C1990 1.387 . S
C1991 C1993 1.387 . S
H1992 C1999 0.950 . S
C1993 C1991 1.387 . S
C1993 C1995 1.390 . S
C1993 H1997 0.950 . S
H1994 C1990 0.950 . S
C1995 C1993 1.390 . S
C1995 C1996 1.387 . S
C1995 H1998 0.950 . S
C1996 C1995 1.387 . S
C1996 C1999 1.387 . S
H1997 C1993 0.950 . S
H1998 C1995 0.950 . S
C1999 C1990 1.390 . S
C1999 H1992 0.950 . S
C1999 C1996 1.387 . S
C2000 C2001 1.387 . S
C2000 H2004 0.950 . S
C2000 C2009 1.390 . S
C2001 C2000 1.387 . S
C2001 C2003 1.387 . S
H2002 C2009 0.950 . S
C2003 C2001 1.387 . S
C2003 C2005 1.390 . S
C2003 H2007 0.950 . S
H2004 C2000 0.950 . S
C2005 C2003 1.390 . S
C2005 C2006 1.387 . S
C2005 H2008 0.950 . S
C2006 C2005 1.387 . S
C2006 C2009 1.387 . S
H2007 C2003 0.950 . S
H2008 C2005 0.950 . S
C2009 C2000 1.390 . S
C2009 H2002 0.950 . S
C2009 C2006 1.387 . S
C2010 C2011 1.387 . S
C2010 H2014 0.950 . S
C2010 C2019 1.390 . S
C2011 C2010 1.387 . S
C2011 C2013 1.387 . S
H2012 C2019 0.950 . S
C2013 C2011 1.387 . S
C2013 C2015 1.390 . S
C2013 H2017 0.950 . S
H2014 C2010 0.950 . S
C2015 C2013 1.390 . S
C2015 C2016 1.387 . S
C2015 H2018 0.950 . S
C2016 C2015 1.387 . S
C2016 C2019 1.387 . S
H2017 C2013 0.950 . S
H2018 C2015 0.950 . S
C2019 C2010 1.390 . S
C2019 H2012 0.950 . S
C2019 C2016 1.387 . S
C2020 C2021 1.387 . S
C2020 H2024 0.950 . S
C2020 C2029 1.390 . S
C2021 C2020 1.387 . S
C2021 C2023 1.387 . S
H2022 C2029 0.950 . S
C2023 C2021 1.387 . S
C2023 C2025 1.390 . S
C2023 H2027 0.950 . S
H2024 C2020 0.950 . S
C2025 C2023 1.390 . S
C2025 C2026 1.387 . S
C2025 H2028 0.950 . S
C2026 C2025 1.387 . S
C2026 C2029 1.387 . S
H2027 C2023 0.950 . S
H2028 C2025 0.950 . S
C2029 C2020 1.390 . S
C2029 H2022 0.950 . S
C2029 C2026 1.387 . S
C2030 C2031 1.387 . S
C2030 H2034 0.950 . S
C2030 C2039 1.390 . S
C2031 C2030 1.387 . S
C2031 C2033 1.387 . S
H2032 C2039 0.950 . S
C2033 C2031 1.387 . S
C2033 C2035 1.390 . S
C2033 H2037 0.950 . S
H2034 C2030 0.950 . S
C2035 C2033 1.390 . S
C2035 C2036 1.387 . S
C2035 H2038 0.950 . S
C2036 C2035 1.387 . S
C2036 C2039 1.387 . S
H2037 C2033 0.950 . S
H2038 C2035 0.950 . S
C2039 C2030 1.390 . S
C2039 H2032 0.950 . S
C2039 C2036 1.387 . S
C2040 C2041 1.387 . S
C2040 H2044 0.950 . S
C2040 C2049 1.390 . S
C2041 C2040 1.387 . S
C2041 C2043 1.387 . S
H2042 C2049 0.950 . S
C2043 C2041 1.387 . S
C2043 C2045 1.390 . S
C2043 H2047 0.950 . S
H2044 C2040 0.950 . S
C2045 C2043 1.390 . S
C2045 C2046 1.387 . S
C2045 H2048 0.950 . S
C2046 C2045 1.387 . S
C2046 C2049 1.387 . S
H2047 C2043 0.950 . S
H2048 C2045 0.950 . S
C2049 C2040 1.390 . S
C2049 H2042 0.950 . S
C2049 C2046 1.387 . S
C2050 C2051 1.387 . S
C2050 H2054 0.950 . S
C2050 C2059 1.390 . S
C2051 C2050 1.387 . S
C2051 C2053 1.387 . S
H2052 C2059 0.950 . S
C2053 C2051 1.387 . S
C2053 C2055 1.390 . S
C2053 H2057 0.950 . S
H2054 C2050 0.950 . S
C2055 C2053 1.390 . S
C2055 C2056 1.387 . S
C2055 H2058 0.950 . S
C2056 C2055 1.387 . S
C2056 C2059 1.387 . S
H2057 C2053 0.950 . S
H2058 C2055 0.950 . S
C2059 C2050 1.390 . S
C2059 H2052 0.950 . S
C2059 C2056 1.387 . S
C2060 C2061 1.387 1_655 S
C2060 H2064 0.950 . S
C2060 C2069 1.390 . S
C2061 C2060 1.387 1_455 S
C2061 C2063 1.387 . S
H2062 C2069 0.950 . S
C2063 C2061 1.387 . S
C2063 C2065 1.390 1_455 S
C2063 H2067 0.950 . S
H2064 C2060 0.950 . S
C2065 C2063 1.390 1_655 S
C2065 C2066 1.387 . S
C2065 H2068 0.950 . S
C2066 C2065 1.387 . S
C2066 C2069 1.387 . S
H2067 C2063 0.950 . S
H2068 C2065 0.950 . S
C2069 C2060 1.390 . S
C2069 H2062 0.950 . S
C2069 C2066 1.387 . S
C2070 C2071 1.387 . S
C2070 H2074 0.950 . S
C2070 C2079 1.390 . S
C2071 C2070 1.387 . S
C2071 C2073 1.387 . S
H2072 C2079 0.950 . S
C2073 C2071 1.387 . S
C2073 C2075 1.390 . S
C2073 H2077 0.950 . S
H2074 C2070 0.950 . S
C2075 C2073 1.390 . S
C2075 C2076 1.387 . S
C2075 H2078 0.950 . S
C2076 C2075 1.387 . S
C2076 C2079 1.387 . S
H2077 C2073 0.950 . S
H2078 C2075 0.950 . S
C2079 C2070 1.390 . S
C2079 H2072 0.950 . S
C2079 C2076 1.387 . S
C2080 C2081 1.387 . S
C2080 H2084 0.950 . S
C2080 C2089 1.390 . S
C2081 C2080 1.387 . S
C2081 C2083 1.387 . S
H2082 C2089 0.950 . S
C2083 C2081 1.387 . S
C2083 C2085 1.390 . S
C2083 H2087 0.950 . S
H2084 C2080 0.950 . S
C2085 C2083 1.390 . S
C2085 C2086 1.387 . S
C2085 H2088 0.950 . S
C2086 C2085 1.387 . S
C2086 C2089 1.387 . S
H2087 C2083 0.950 . S
H2088 C2085 0.950 . S
C2089 C2080 1.390 . S
C2089 H2082 0.950 . S
C2089 C2086 1.387 . S
C2090 C2091 1.387 . S
C2090 H2094 0.950 . S
C2090 C2099 1.390 . S
C2091 C2090 1.387 . S
C2091 C2093 1.387 . S
H2092 C2099 0.950 . S
C2093 C2091 1.387 . S
C2093 C2095 1.390 . S
C2093 H2097 0.950 . S
H2094 C2090 0.950 . S
C2095 C2093 1.390 . S
C2095 C2096 1.387 . S
C2095 H2098 0.950 . S
C2096 C2095 1.387 . S
C2096 C2099 1.387 . S
H2097 C2093 0.950 . S
H2098 C2095 0.950 . S
C2099 C2090 1.390 . S
C2099 H2092 0.950 . S
C2099 C2096 1.387 . S
C2100 C2101 1.387 . S
C2100 H2104 0.950 . S
C2100 C2109 1.390 . S
C2101 C2100 1.387 . S
C2101 C2103 1.387 . S
H2102 C2109 0.950 . S
C2103 C2101 1.387 . S
C2103 C2105 1.390 . S
C2103 H2107 0.950 . S
H2104 C2100 0.950 . S
C2105 C2103 1.390 . S
C2105 C2106 1.387 . S
C2105 H2108 0.950 . S
C2106 C2105 1.387 . S
C2106 C2109 1.387 . S
H2107 C2103 0.950 . S
H2108 C2105 0.950 . S
C2109 C2100 1.390 . S
C2109 H2102 0.950 . S
C2109 C2106 1.387 . S
C2110 C2111 1.387 . S
C2110 H2114 0.950 . S
C2110 C2119 1.390 . S
C2111 C2110 1.387 . S
C2111 C2113 1.387 . S
H2112 C2119 0.950 . S
C2113 C2111 1.387 . S
C2113 C2115 1.390 . S
C2113 H2117 0.950 . S
H2114 C2110 0.950 . S
C2115 C2113 1.390 . S
C2115 C2116 1.387 . S
C2115 H2118 0.950 . S
C2116 C2115 1.387 . S
C2116 C2119 1.387 . S
H2117 C2113 0.950 . S
H2118 C2115 0.950 . S
C2119 C2110 1.390 . S
C2119 H2112 0.950 . S
C2119 C2116 1.387 . S
C2120 C2121 1.387 . S
C2120 H2124 0.950 . S
C2120 C2129 1.390 . S
C2121 C2120 1.387 . S
C2121 C2123 1.387 . S
H2122 C2129 0.950 . S
C2123 C2121 1.387 . S
C2123 C2125 1.390 . S
C2123 H2127 0.950 . S
H2124 C2120 0.950 . S
C2125 C2123 1.390 . S
C2125 C2126 1.387 . S
C2125 H2128 0.950 . S
C2126 C2125 1.387 . S
C2126 C2129 1.387 . S
H2127 C2123 0.950 . S
H2128 C2125 0.950 . S
C2129 C2120 1.390 . S
C2129 H2122 0.950 . S
C2129 C2126 1.387 . S
C2130 C2131 1.387 . S
C2130 H2134 0.950 . S
C2130 C2139 1.390 . S
C2131 C2130 1.387 . S
C2131 C2133 1.387 . S
H2132 C2139 0.950 . S
C2133 C2131 1.387 . S
C2133 C2135 1.390 . S
C2133 H2137 0.950 . S
H2134 C2130 0.950 . S
C2135 C2133 1.390 . S
C2135 C2136 1.387 . S
C2135 H2138 0.950 . S
C2136 C2135 1.387 . S
C2136 C2139 1.387 . S
H2137 C2133 0.950 . S
H2138 C2135 0.950 . S
C2139 C2130 1.390 . S
C2139 H2132 0.950 . S
C2139 C2136 1.387 . S
C2140 C2141 1.387 . S
C2140 H2144 0.950 . S
C2140 C2149 1.390 . S
C2141 C2140 1.387 . S
C2141 C2143 1.387 . S
H2142 C2149 0.950 . S
C2143 C2141 1.387 . S
C2143 C2145 1.390 . S
C2143 H2147 0.950 . S
H2144 C2140 0.950 . S
C2145 C2143 1.390 . S
C2145 C2146 1.387 . S
C2145 H2148 0.950 . S
C2146 C2145 1.387 . S
C2146 C2149 1.387 . S
H2147 C2143 0.950 . S
H2148 C2145 0.950 . S
C2149 C2140 1.390 . S
C2149 H2142 0.950 . S
C2149 C2146 1.387 . S
C2150 C2151 1.387 . S
C2150 H2154 0.950 . S
C2150 C2159 1.390 . S
C2151 C2150 1.387 . S
C2151 C2153 1.387 . S
H2152 C2159 0.950 . S
C2153 C2151 1.387 . S
C2153 C2155 1.390 . S
C2153 H2157 0.950 . S
H2154 C2150 0.950 . S
C2155 C2153 1.390 . S
C2155 C2156 1.387 . S
C2155 H2158 0.950 . S
C2156 C2155 1.387 . S
C2156 C2159 1.387 . S
H2157 C2153 0.950 . S
H2158 C2155 0.950 . S
C2159 C2150 1.390 . S
C2159 H2152 0.950 . S
C2159 C2156 1.387 . S
C2160 C2161 1.387 . S
C2160 H2164 0.950 . S
C2160 C2169 1.390 . S
C2161 C2160 1.387 . S
C2161 C2163 1.387 . S
H2162 C2169 0.950 . S
C2163 C2161 1.387 . S
C2163 C2165 1.390 1_565 S
C2163 H2167 0.949 1_565 S
H2164 C2160 0.950 . S
C2165 C2163 1.390 1_545 S
C2165 C2166 1.387 . S
C2165 H2168 0.950 . S
C2166 C2165 1.387 . S
C2166 C2169 1.387 1_545 S
H2167 C2163 0.949 1_545 S
H2168 C2165 0.950 . S
C2169 C2160 1.390 . S
C2169 H2162 0.950 . S
C2169 C2166 1.387 1_565 S
C2170 C2171 1.387 . S
C2170 H2174 0.950 . S
C2170 C2179 1.390 . S
C2171 C2170 1.387 . S
C2171 C2173 1.387 . S
H2172 C2179 0.950 . S
C2173 C2171 1.387 . S
C2173 C2175 1.390 . S
C2173 H2177 0.950 . S
H2174 C2170 0.950 . S
C2175 C2173 1.390 . S
C2175 C2176 1.387 . S
C2175 H2178 0.950 . S
C2176 C2175 1.387 . S
C2176 C2179 1.387 . S
H2177 C2173 0.950 . S
H2178 C2175 0.950 . S
C2179 C2170 1.390 . S
C2179 H2172 0.950 . S
C2179 C2176 1.387 . S
C2180 C2181 1.387 . S
C2180 H2184 0.950 . S
C2180 C2189 1.390 1_545 S
C2181 C2180 1.387 . S
C2181 C2183 1.387 . S
H2182 C2189 0.950 . S
C2183 C2181 1.387 . S
C2183 C2185 1.374 1_545 S
C2183 H2187 0.950 . S
H2184 C2180 0.950 . S
C2185 C2183 1.374 1_565 S
C2185 C2186 1.399 . S
C2185 H2188 0.956 . S
C2186 C2185 1.399 . S
C2186 C2189 1.387 . S
H2187 C2183 0.950 . S
H2188 C2185 0.956 . S
C2189 C2180 1.390 1_565 S
C2189 H2182 0.950 . S
C2189 C2186 1.387 . S
C2190 C2191 1.387 . S
C2190 H2194 0.950 . S
C2190 C2199 1.390 . S
C2191 C2190 1.387 . S
C2191 C2193 1.387 . S
H2192 C2199 0.950 . S
C2193 C2191 1.387 . S
C2193 C2195 1.390 . S
C2193 H2197 0.950 . S
H2194 C2190 0.950 . S
C2195 C2193 1.390 . S
C2195 C2196 1.387 . S
C2195 H2198 0.950 . S
C2196 C2195 1.387 . S
C2196 C2199 1.387 . S
H2197 C2193 0.950 . S
H2198 C2195 0.950 . S
C2199 C2190 1.390 . S
C2199 H2192 0.950 . S
C2199 C2196 1.387 . S
C2200 C2201 1.387 1_545 S
C2200 H2204 0.950 . S
C2200 C2209 1.390 . S
C2201 C2200 1.387 1_565 S
C2201 C2203 1.387 . S
H2202 C2209 0.950 . S
C2203 C2201 1.387 . S
C2203 C2205 1.390 . S
C2203 H2207 0.950 . S
H2204 C2200 0.950 . S
C2205 C2203 1.390 . S
C2205 C2206 1.387 1_565 S
C2205 H2208 0.950 . S
C2206 C2205 1.387 1_545 S
C2206 C2209 1.387 . S
H2207 C2203 0.950 . S
H2208 C2205 0.950 . S
C2209 C2200 1.390 . S
C2209 H2202 0.950 . S
C2209 C2206 1.387 . S
C2210 C2211 1.387 . S
C2210 H2214 0.950 . S
C2210 C2219 1.390 . S
C2211 C2210 1.387 . S
C2211 C2213 1.387 . S
H2212 C2219 0.950 . S
C2213 C2211 1.387 . S
C2213 C2215 1.390 . S
C2213 H2217 0.950 . S
H2214 C2210 0.950 . S
C2215 C2213 1.390 . S
C2215 C2216 1.387 . S
C2215 H2218 0.950 . S
C2216 C2215 1.387 . S
C2216 C2219 1.387 . S
H2217 C2213 0.950 . S
H2218 C2215 0.950 . S
C2219 C2210 1.390 . S
C2219 H2212 0.950 . S
C2219 C2216 1.387 . S
C2220 C2221 1.387 . S
C2220 H2224 0.950 . S
C2220 C2229 1.376 1_565 S
C2221 C2220 1.387 . S
C2221 C2223 1.387 . S
H2222 C2229 0.954 . S
C2223 C2221 1.387 . S
C2223 C2225 1.390 1_565 S
C2223 H2227 0.950 . S
H2224 C2220 0.950 . S
C2225 C2223 1.390 1_545 S
C2225 C2226 1.387 . S
C2225 H2228 0.950 . S
C2226 C2225 1.387 . S
C2226 C2229 1.398 . S
H2227 C2223 0.950 . S
H2228 C2225 0.950 . S
C2229 C2220 1.376 1_545 S
C2229 H2222 0.954 . S
C2229 C2226 1.398 . S
C2230 C2231 1.387 . S
C2230 H2234 0.950 . S
C2230 C2239 1.390 1_554 S
C2231 C2230 1.387 . S
C2231 C2233 1.387 . S
H2232 C2239 0.950 . S
C2233 C2231 1.387 . S
C2233 C2235 1.390 1_554 S
C2233 H2237 0.950 . S
H2234 C2230 0.950 . S
C2235 C2233 1.390 1_556 S
C2235 C2236 1.387 . S
C2235 H2238 0.950 . S
C2236 C2235 1.387 . S
C2236 C2239 1.387 . S
H2237 C2233 0.950 . S
H2238 C2235 0.950 . S
C2239 C2230 1.390 1_556 S
C2239 H2232 0.950 . S
C2239 C2236 1.387 . S
C1281 C4 0.323 . S
C1286 C191 0.331 . S
C1291 C204 0.494 . S
C1296 C44 0.322 . S
C1301 C84 0.419 . S
C1306 C244 0.393 . S
C1311 C311 0.405 . S
C1316 C124 0.568 . S
C1321 C345 0.316 . S
C1326 C500 0.336 . S
C1331 C385 0.332 . S
C1336 C545 0.499 . S
C1341 C585 0.386 . S
C1346 C425 0.410 . S
C1351 C465 0.575 . S
C1356 C620 0.407 . S
C1361 C831 0.327 . S
C1366 C644 0.321 . S
C1371 C684 0.332 . S
C1376 C844 0.500 . S
C1381 C724 0.419 . S
C1386 C884 0.394 . S
C1391 C764 0.574 . S
C1396 C951 0.407 . S
C1401 C985 0.322 . S
C1406 C1140 0.333 . S
C1411 C1185 0.499 . S
C1416 C1025 0.333 . S
C1421 C1065 0.410 . S
C1426 C1225 0.387 . S
C1431 C1260 0.407 . S
C1436 C1105 0.573 . S
C1441 C863 2.132 . S
C1446 C23 2.177 . S
C1451 C903 2.424 . S
C1456 C63 2.435 . S
C1461 C922 2.459 . S
C1466 C103 2.487 . S
C1471 C143 2.353 . S
C1476 C802 2.326 . S
C1481 C162 2.326 . S
C1486 C783 2.352 . S
C1491 C663 2.175 . S
C1496 C223 2.128 . S
C1501 C263 2.423 . S
C1506 C703 2.433 . S
C1511 C282 2.455 . S
C1516 C743 2.484 . S
C1521 C322 2.174 1_556 S
C1526 C1162 2.130 . S
C1531 C1202 2.423 . S
C1536 C362 2.432 . S
C1541 C1263 2.456 . S
C1546 C402 2.484 . S
C1551 C442 2.352 . S
C1556 C1143 2.327 . S
C1561 C503 2.326 . S
C1566 C1082 2.352 . S
C1571 C522 2.132 . S
C1576 C962 2.176 . S
C1581 C562 2.424 . S
C1586 C1002 2.435 . S
C1591 C623 2.456 . S
C1596 C1042 2.485 . S
C1601 C343 1.643 . S
C1606 C2 1.643 . S
C1611 C42 1.619 . S
C1616 C1023 1.619 . S
C1621 C423 1.634 . S
C1626 C82 1.634 . S
C1631 C122 1.825 . S
C1636 C1103 1.825 . S
C1641 C482 1.826 . S
C1646 C183 1.826 . S
C1651 C1183 1.755 . S
C1656 C202 1.755 . S
C1661 C242 1.632 . S
C1666 C583 1.632 . S
C1671 C303 1.651 . S
C1676 C1242 1.651 . S
C1681 C682 1.619 . S
C1686 C383 1.619 . S
C1691 C762 1.824 . S
C1696 C463 1.824 . S
C1701 C543 1.756 . S
C1706 C842 1.756 . S
C1711 C943 1.650 . S
C1716 C602 1.650 . S
C1721 C983 1.642 . S
C1726 C642 1.642 . S
C1731 C1063 1.632 . S
C1736 C722 1.632 . S
C1741 C1122 1.824 . S
C1746 C823 1.824 . S
C1751 C882 1.636 . S
C1756 C1223 1.636 . S
C1761 C25 0.983 . S
C1766 C484 1.010 . S
C1771 C1191 1.641 . S
C1776 C65 1.511 . S
C1781 C591 1.600 . S
C1786 C105 1.460 . S
C1791 C145 0.854 . S
C1796 C1244 0.862 . S
C1801 C351 2.202 . S
C1806 C180 2.095 . S
C1811 C1031 1.685 . S
C1816 C225 1.528 . S
C1821 C431 1.613 . S
C1826 C265 1.471 . S
C1831 C1111 2.208 . S
C1836 C300 2.093 . S
C1841 C185 1.010 . S
C1846 C324 0.982 . S
C1851 C860 1.641 . S
C1856 C364 1.511 . S
C1861 C260 1.601 . S
C1866 C404 1.461 . S
C1871 C444 0.856 . S
C1876 C945 0.861 . S
C1881 C20 2.202 . S
C1886 C511 2.096 . S
C1891 C700 1.686 . S
C1896 C524 1.529 . S
C1901 C564 1.471 . S
C1906 C100 1.612 . S
C1911 C631 2.093 . S
C1916 C780 2.208 . S
C1921 C1124 1.008 . S
C1926 C665 0.980 . S
C1931 C551 1.641 . S
C1936 C705 1.507 . S
C1941 C745 1.460 1_455 S
C1946 C1231 1.601 . S
C1951 C604 0.862 . S
C1956 C785 0.853 . S
C1961 C820 2.096 . S
C1966 C991 2.203 . S
C1971 C865 1.528 . S
C1976 C391 1.685 . S
C1981 C1071 1.613 . S
C1986 C905 1.471 . S
C1991 C471 2.208 . S
C1996 C940 2.093 . S
C2001 C964 0.983 . S
C2006 C825 1.009 . S
C2011 C1004 1.506 . S
C2016 C220 1.641 . S
C2021 C1044 1.462 1_655 S
C2026 C900 1.602 . S
C2031 C1084 0.856 . S
C2036 C305 0.861 . S
C2041 C660 2.203 . S
C2046 C1151 2.095 . S
C2051 C60 1.686 . S
C2056 C1164 1.530 . S
C2061 C1204 1.470 . S
C2066 C740 1.612 . S
C2071 C140 2.208 . S
C2076 C1271 2.095 . S
C2081 C164 2.235 1_554 S
C2086 C31 2.322 . S
C2091 C231 3.140 . S
C2096 C71 3.143 . S
C2101 C111 3.118 . S
C2106 C271 3.117 . S
C2111 C284 2.211 . S
C2116 C151 2.260 . S
C2121 C505 2.236 . S
C2126 C340 2.321 . S
C2131 C380 3.142 . S
C2136 C540 3.140 . S
C2141 C420 3.119 . S
C2146 C580 3.118 1_556 S
C2151 C625 2.211 . S
C2156 C460 2.260 . S
C2161 C671 2.321 . S
C2166 C804 2.236 . S
C2171 C871 3.140 . S
C2176 C711 3.143 . S
C2181 C751 3.118 1_556 S
C2186 C911 3.118 . S
C2191 C791 2.260 . S
C2196 C924 2.211 . S
C2201 C1145 2.237 . S
C2206 C980 2.321 . S
C2211 C1180 3.140 . S
C2216 C1020 3.142 . S
C2221 C1060 3.118 . S
C2226 C1220 3.118 . S
C2231 C1265 2.211 . S
C2236 C1100 2.260 . S
