# Generated by pormake.
# Topology ooa, (5)-cn, num edge types: 1
# Building blocks:
#     Node 0, Type 0, BuildingBlock: XOMCOT_clean_sbu_0, # of connection points: 5
#     Node 1, Type 0, BuildingBlock: XOMCOT_clean_sbu_0, # of connection points: 5
#     Node 2, Type 0, BuildingBlock: XOMCOT_clean_sbu_0, # of connection points: 5
#     Node 3, Type 0, BuildingBlock: XOMCOT_clean_sbu_0, # of connection points: 5
#     Node 4, Type 0, BuildingBlock: XOMCOT_clean_sbu_0, # of connection points: 5
#     Node 5, Type 0, BuildingBlock: XOMCOT_clean_sbu_0, # of connection points: 5
#     Node 6, Type 0, BuildingBlock: XOMCOT_clean_sbu_0, # of connection points: 5
#     Node 7, Type 0, BuildingBlock: XOMCOT_clean_sbu_0, # of connection points: 5
#     Edge 8, Type (0, 0), BuildingBlock: UVAHIK_clean_linker_0, # of connection points: 2
#     Edge 9, Type (0, 0), BuildingBlock: UVAHIK_clean_linker_0, # of connection points: 2
#     Edge 10, Type (0, 0), BuildingBlock: UVAHIK_clean_linker_0, # of connection points: 2
#     Edge 11, Type (0, 0), BuildingBlock: UVAHIK_clean_linker_0, # of connection points: 2
#     Edge 12, Type (0, 0), BuildingBlock: UVAHIK_clean_linker_0, # of connection points: 2
#     Edge 13, Type (0, 0), BuildingBlock: UVAHIK_clean_linker_0, # of connection points: 2
#     Edge 14, Type (0, 0), BuildingBlock: UVAHIK_clean_linker_0, # of connection points: 2
#     Edge 15, Type (0, 0), BuildingBlock: UVAHIK_clean_linker_0, # of connection points: 2
#     Edge 16, Type (0, 0), BuildingBlock: UVAHIK_clean_linker_0, # of connection points: 2
#     Edge 17, Type (0, 0), BuildingBlock: UVAHIK_clean_linker_0, # of connection points: 2
#     Edge 18, Type (0, 0), BuildingBlock: UVAHIK_clean_linker_0, # of connection points: 2
#     Edge 19, Type (0, 0), BuildingBlock: UVAHIK_clean_linker_0, # of connection points: 2
#     Edge 20, Type (0, 0), BuildingBlock: UVAHIK_clean_linker_0, # of connection points: 2
#     Edge 21, Type (0, 0), BuildingBlock: UVAHIK_clean_linker_0, # of connection points: 2
#     Edge 22, Type (0, 0), BuildingBlock: UVAHIK_clean_linker_0, # of connection points: 2
#     Edge 23, Type (0, 0), BuildingBlock: UVAHIK_clean_linker_0, # of connection points: 2
#     Edge 24, Type (0, 0), BuildingBlock: UVAHIK_clean_linker_0, # of connection points: 2
#     Edge 25, Type (0, 0), BuildingBlock: UVAHIK_clean_linker_0, # of connection points: 2
#     Edge 26, Type (0, 0), BuildingBlock: UVAHIK_clean_linker_0, # of connection points: 2
#     Edge 27, Type (0, 0), BuildingBlock: UVAHIK_clean_linker_0, # of connection points: 2
# Relax obj value: 0.356
# Max RMSD: 0.213
# Mean RMSD: 0.213
data_MOF--net-ooa--node1-XOMCOT_clean_sbu_0--edge1-UVAHIK_clean_linker_0
_symmetry_space_group_name_H-M    P1
_symmetry_Int_Tables_number       1
_symmetry_cell_setting            triclinic
loop_
_symmetry_equiv_pos_as_xyz
'x, y, z'
_cell_length_a     37.349774
_cell_length_b     40.110687
_cell_length_c     59.649354
_cell_angle_alpha  90.042617
_cell_angle_beta   89.896847
_cell_angle_gamma 90.017992
loop_
_atom_site_label
_atom_site_type_symbol
_atom_site_fract_x
_atom_site_fract_y
_atom_site_fract_z
_atom_type_partial_charge
Co0 Co 0.07109 0.19902 0.06291 0.0
C1 C 1.00876 0.23765 0.04649 0.0
C2 C 0.05654 0.24959 0.02833 0.0
C3 C 0.02795 0.26446 0.01776 0.0
N4 N 0.04468 0.23306 0.0466 0.0
N5 N 0.99796 0.25689 0.02923 0.0
H6 H 0.99029 0.22429 0.05713 0.0
H7 H 0.08355 0.24855 0.02185 0.0
C8 C 0.13012 0.25083 0.05712 0.0
O9 O 0.11006 0.27486 0.0653 0.0
N10 N 0.09667 0.16457 0.07859 0.0
C11 C 0.08604 0.14944 0.09762 0.0
C12 C 0.11015 0.12472 0.10267 0.0
C13 C 0.12667 0.14867 0.07206 0.0
N14 N 0.13558 0.12423 0.08658 0.0
C15 C 0.03244 0.22528 0.1008 0.0
C16 C 0.09224 0.23729 0.12681 0.0
C17 C 0.05837 0.23918 0.13689 0.0
C18 C 0.02817 0.23397 0.12337 0.0
C19 C 0.09531 0.2286 0.10421 0.0
N20 N 0.06567 0.22241 0.09143 0.0
H21 H 1.009 0.21827 0.09149 0.0
H22 H 0.12178 0.2239 0.09767 0.0
H23 H 0.062 0.1555 0.10689 0.0
H24 H 0.14133 0.15463 0.05692 0.0
O25 O 0.02904 0.17049 0.06368 0.0
O26 O 0.06994 0.1714 0.03669 0.0
O27 O 0.11818 0.2211 0.05578 0.0
C28 C 0.04118 0.15798 0.04495 0.0
H29 H 0.02885 0.27801 1.00208 0.0
H30 H 0.10837 0.10764 0.11667 0.0
H31 H 0.11643 0.24005 0.13662 0.0
H32 H 1.00144 0.23508 0.13038 0.0
Co33 Co 0.4518 0.78321 0.06677 0.0
C34 C 0.5147 0.74555 0.0508 0.0
C35 C 0.46826 0.73343 0.03156 0.0
C36 C 0.49775 0.71913 0.02143 0.0
N37 N 0.47875 0.74956 0.0503 0.0
N38 N 0.52705 0.72713 0.03345 0.0
H39 H 0.53198 0.75816 0.06251 0.0
H40 H 0.44169 0.73443 0.02447 0.0
C41 C 0.39235 0.73247 0.05822 0.0
O42 O 0.4125 0.70725 0.06438 0.0
N43 N 0.42606 0.81741 0.08274 0.0
C44 C 0.4357 0.8309 0.10251 0.0
C45 C 0.41304 0.8569 0.10726 0.0
C46 C 0.39809 0.83561 0.07549 0.0
N47 N 0.3895 0.85992 0.09025 0.0
C48 C 0.48822 0.7563 0.10519 0.0
C49 C 0.42677 0.74341 0.12956 0.0
C50 C 0.45983 0.7428 0.14061 0.0
C51 C 0.49094 0.74805 0.12793 0.0
C52 C 0.42522 0.75161 0.10685 0.0
N53 N 0.45564 0.75866 0.09494 0.0
H54 H 0.51217 0.7639 0.09659 0.0
H55 H 0.39914 0.75561 0.09963 0.0
H56 H 0.45846 0.82316 0.1124 0.0
H57 H 0.38502 0.83165 0.05954 0.0
O58 O 0.49419 0.81123 0.06864 0.0
O59 O 0.45446 0.81175 0.04107 0.0
O60 O 0.40458 0.76217 0.05869 0.0
C61 C 0.48314 0.82444 0.04991 0.0
H62 H 0.49794 0.70639 1.00543 0.0
H63 H 0.41491 0.87333 0.12161 0.0
H64 H 0.40203 0.73957 0.13871 0.0
H65 H 0.51699 0.74853 0.13587 0.0
Co66 Co 0.07249 0.28385 0.4529 0.0
C67 C 1.00942 0.24636 0.46884 0.0
C68 C 0.05609 0.23315 0.48754 0.0
C69 C 0.02666 0.21849 0.4975 0.0
N70 N 0.0454 0.25021 0.46924 0.0
N71 N 0.99723 0.22714 0.48582 0.0
H72 H 0.99208 0.25941 0.4574 0.0
H73 H 0.0828 0.23357 0.49444 0.0
C74 C 0.13225 0.2331 0.46093 0.0
O75 O 0.11288 0.2079 0.45378 0.0
N76 N 0.09838 0.31797 0.43694 0.0
C77 C 0.08833 0.33164 0.41732 0.0
C78 C 0.1118 0.35674 0.41203 0.0
C79 C 0.12744 0.33523 0.44359 0.0
N80 N 0.13631 0.35904 0.42855 0.0
C81 C 0.03598 0.25703 0.41441 0.0
C82 C 0.09745 0.244 0.39009 0.0
C83 C 0.06444 0.24339 0.37899 0.0
C84 C 0.0333 0.24877 0.39165 0.0
C85 C 0.09897 0.25243 0.41276 0.0
N86 N 0.06855 0.25942 0.42467 0.0
H87 H 1.01203 0.26455 0.42306 0.0
H88 H 0.12505 0.25658 0.41994 0.0
H89 H 0.06494 0.32445 0.40782 0.0
H90 H 0.14131 0.33082 0.45922 0.0
O91 O 0.03029 0.31214 0.45114 0.0
O92 O 0.07009 0.31228 0.47867 0.0
O93 O 0.11952 0.26261 0.46102 0.0
C94 C 0.04153 0.32522 0.46989 0.0
H95 H 0.02666 0.20489 0.51317 0.0
H96 H 0.11003 0.373 0.3976 0.0
H97 H 0.12223 0.23998 0.38102 0.0
H98 H 1.00725 0.24924 0.38371 0.0
Co99 Co 0.45038 0.70029 0.45524 0.0
C100 C 0.51106 0.73971 0.47328 0.0
C101 C 0.46448 0.7428 0.49413 0.0
C102 C 0.49291 0.75649 0.50554 0.0
N103 N 0.47563 0.73258 0.47371 0.0
N104 N 0.52221 0.7544 0.49242 0.0
H105 H 0.52933 0.73092 0.46059 0.0
H106 H 0.43825 0.73788 0.50109 0.0
C107 C 0.3929 0.7528 0.46399 0.0
O108 O 0.4161 0.77741 0.46402 0.0
N109 N 0.4258 0.66741 0.43751 0.0
C110 C 0.43709 0.65373 0.41812 0.0
C111 C 0.41386 0.62859 0.4123 0.0
C112 C 0.39625 0.6503 0.4434 0.0
N113 N 0.38834 0.62636 0.42827 0.0
C114 C 0.49312 0.72387 0.4184 0.0
C115 C 0.43627 0.74556 0.39269 0.0
C116 C 0.47008 0.74283 0.38259 0.0
C117 C 0.49896 0.73294 0.39604 0.0
C118 C 0.43161 0.73647 0.4151 0.0
N119 N 0.4597 0.72522 0.4277 0.0
H120 H 0.51502 0.71283 0.42743 0.0
H121 H 0.40458 0.73541 0.42134 0.0
H122 H 0.46128 0.66061 0.40928 0.0
H123 H 0.38148 0.65476 0.45874 0.0
O124 O 0.49187 0.6711 0.45574 0.0
O125 O 0.44778 0.67106 0.48066 0.0
O126 O 0.40288 0.72283 0.46047 0.0
C127 C 0.47739 0.65781 0.47353 0.0
H128 H 0.49261 0.76511 0.52274 0.0
H129 H 0.4166 0.61214 0.39801 0.0
H130 H 0.41286 0.7521 0.38296 0.0
H131 H 0.52561 0.73045 0.38907 0.0
Co132 Co 0.95089 0.78282 0.95311 0.0
C133 C 0.01474 0.74555 0.96838 0.0
C134 C 0.96766 0.72951 0.98577 0.0
C135 C 0.99699 0.71443 0.99542 0.0
N136 N 0.97865 0.74867 0.96849 0.0
N137 N 0.02665 0.72466 0.9845 0.0
H138 H 0.03236 0.76066 0.95823 0.0
H139 H 0.94066 0.72845 0.99222 0.0
C140 C 0.8918 0.7308 0.95914 0.0
O141 O 0.91104 0.70695 0.95002 0.0
N142 N 0.92422 0.81739 0.93824 0.0
C143 C 0.93403 0.83288 0.91916 0.0
C144 C 0.90953 0.8574 0.91456 0.0
C145 C 0.89429 0.83297 0.94527 0.0
N146 N 0.88463 0.85748 0.93098 0.0
C147 C 0.98788 0.75711 0.91436 0.0
C148 C 0.92686 0.74741 0.88903 0.0
C149 C 0.96026 0.74613 0.87835 0.0
C150 C 0.99111 0.74983 0.89148 0.0
C151 C 0.92481 0.75462 0.91188 0.0
N152 N 0.95504 0.76004 0.92428 0.0
H153 H 1.01178 0.76325 0.92351 0.0
H154 H 0.89866 0.75901 0.91898 0.0
H155 H 0.9578 0.82713 0.90952 0.0
H156 H 0.88021 0.82675 0.96058 0.0
O157 O 0.99252 0.81181 0.95171 0.0
O158 O 0.95311 0.80994 0.97954 0.0
O159 O 0.90432 0.76028 0.96096 0.0
C160 C 0.98121 0.82388 0.97078 0.0
H161 H 0.99656 0.69851 0.01005 0.0
H162 H 0.91067 0.87466 0.90064 0.0
H163 H 0.90231 0.74472 0.87955 0.0
H164 H 0.01744 0.74966 0.88385 0.0
Co165 Co 0.57464 0.20063 0.95522 0.0
C166 C 0.5117 0.23814 0.97166 0.0
C167 C 0.55548 0.24089 0.99467 0.0
C168 C 0.52567 0.25458 1.00475 0.0
N169 N 0.54694 0.23111 0.9737 0.0
N170 N 0.49803 0.25248 0.99032 0.0
H171 H 0.49564 0.23085 0.95751 0.0
H172 H 0.58094 0.2362 1.00268 0.0
C173 C 0.62856 0.25605 0.96542 0.0
O174 O 0.60383 0.27898 0.968 0.0
N175 N 0.60157 0.1694 0.93728 0.0
C176 C 0.5921 0.15645 0.91729 0.0
C177 C 0.61544 0.13123 0.91195 0.0
C178 C 0.6303 0.15169 0.94393 0.0
N179 N 0.63928 0.12807 0.92877 0.0
C180 C 0.53015 0.21771 0.91791 0.0
C181 C 0.58238 0.25016 0.89334 0.0
C182 C 0.55064 0.24068 0.88268 0.0
C183 C 0.52386 0.2253 0.89541 0.0
C184 C 0.58795 0.24154 0.91579 0.0
N185 N 0.56235 0.2247 0.92775 0.0
H186 H 0.51033 0.20305 0.92659 0.0
H187 H 0.61419 0.24593 0.92254 0.0
H188 H 0.56867 0.16327 0.90779 0.0
H189 H 0.64328 0.1551 0.95997 0.0
O190 O 0.53569 0.1686 0.95631 0.0
O191 O 0.5801 0.17177 0.98075 0.0
O192 O 0.62043 0.22626 0.95989 0.0
C193 C 0.5515 0.15644 0.97394 0.0
H194 H 0.5238 0.26285 0.02199 0.0
H195 H 0.61344 0.11499 0.89751 0.0
H196 H 0.60395 0.26157 0.88391 0.0
H197 H 0.49907 0.21734 0.88765 0.0
Co198 Co 0.95022 0.7006 0.56418 0.0
C199 C 1.01053 0.74006 0.54564 0.0
C200 C 0.96409 0.74193 0.5247 0.0
C201 C 0.99246 0.75553 0.51312 0.0
N202 N 0.9752 0.73251 0.54527 0.0
N203 N 0.02167 0.7542 0.5263 0.0
H204 H 0.02878 0.73196 0.55849 0.0
H205 H 0.93796 0.73655 0.51781 0.0
C206 C 0.89286 0.75303 0.55529 0.0
O207 O 0.91625 0.77746 0.55459 0.0
N208 N 0.926 0.66799 0.58242 0.0
C209 C 0.9375 0.65527 0.60202 0.0
C210 C 0.9157 0.62907 0.60783 0.0
C211 C 0.89768 0.64924 0.57642 0.0
N212 N 0.89083 0.62515 0.59165 0.0
C213 C 0.99376 0.72422 0.60058 0.0
C214 C 0.93763 0.74747 0.62643 0.0
C215 C 0.97144 0.74429 0.63637 0.0
C216 C 0.99999 0.73361 0.62284 0.0
C217 C 0.93256 0.73801 0.60412 0.0
N218 N 0.96027 0.72595 0.59146 0.0
H219 H 0.01534 0.71257 0.59152 0.0
H220 H 0.90546 0.73737 0.59805 0.0
H221 H 0.96121 0.66321 0.61089 0.0
H222 H 0.8834 0.65238 0.56079 0.0
O223 O 0.99157 0.67118 0.56333 0.0
O224 O 0.9469 0.67108 0.53893 0.0
O225 O 0.90267 0.72316 0.55931 0.0
C226 C 0.97658 0.65776 0.54577 0.0
H227 H 0.9922 0.76358 0.49581 0.0
H228 H 0.91931 0.61287 0.62215 0.0
H229 H 0.91446 0.75467 0.63623 0.0
H230 H 0.02664 0.73073 0.62969 0.0
Co231 Co 0.57631 0.2829 0.56754 0.0
C232 C 0.51113 0.24991 0.55042 0.0
C233 C 0.5578 0.23085 0.53402 0.0
C234 C 0.52793 0.21745 0.52384 0.0
N235 N 0.54732 0.25081 0.55105 0.0
N236 N 0.49858 0.22974 0.53407 0.0
H237 H 0.4941 0.26542 0.56067 0.0
H238 H 0.58495 0.22818 0.52806 0.0
C239 C 0.63349 0.22868 0.56107 0.0
O240 O 0.61336 0.20471 0.56925 0.0
N241 N 0.60429 0.31537 0.58359 0.0
C242 C 0.59524 0.32995 0.60314 0.0
C243 C 0.62048 0.35367 0.60819 0.0
C244 C 0.63449 0.33068 0.57676 0.0
N245 N 0.64503 0.35418 0.59158 0.0
C246 C 0.53547 0.25976 0.60505 0.0
C247 C 0.59338 0.24181 0.63121 0.0
C248 C 0.55951 0.24408 0.64115 0.0
C249 C 0.5302 0.25235 0.62769 0.0
C250 C 0.59764 0.25014 0.6086 0.0
N251 N 0.56893 0.25933 0.59578 0.0
H252 H 0.51299 0.26883 0.59562 0.0
H253 H 0.62453 0.25224 0.60215 0.0
H254 H 0.57138 0.3244 0.61273 0.0
H255 H 0.64796 0.32518 0.56111 0.0
O256 O 0.53637 0.31388 0.56865 0.0
O257 O 0.577 0.31117 0.54159 0.0
O258 O 0.62192 0.25856 0.56008 0.0
C259 C 0.54914 0.326 0.55 0.0
H260 H 0.52783 0.20203 0.50894 0.0
H261 H 0.6199 0.3703 0.62249 0.0
H262 H 0.61679 0.23637 0.64126 0.0
H263 H 0.50369 0.25481 0.63491 0.0
C264 C 1.00724 0.1044 0.0485 0.0
C265 C 0.02736 0.1266 0.03535 0.0
C266 C 1.00117 0.07174 0.0411 0.0
C267 C 0.04237 0.00918 1.00375 0.0
H268 H 0.95504 0.9595 0.01446 0.0
C269 C 0.01477 0.87764 0.96694 0.0
C270 C 0.99499 0.85538 0.98025 0.0
C271 C 0.02079 0.91035 0.97426 0.0
C272 C 0.97981 0.97291 0.01162 0.0
H273 H 0.05453 0.13297 1.00348 0.0
H274 H 0.04319 0.07647 0.99037 0.0
H275 H 0.95807 0.01819 0.02497 0.0
H276 H 0.96835 0.849 0.0123 0.0
H277 H 0.97953 0.90562 0.02523 0.0
H278 H 0.06408 0.9639 0.99038 0.0
C279 C 0.03297 0.08383 1.00664 0.0
C280 C 0.98147 0.00658 0.01758 0.0
C281 C 0.03914 0.11632 0.01406 0.0
C282 C 0.98349 0.86568 1.00159 0.0
C283 C 0.98956 0.89823 1.00891 0.0
C284 C 0.0407 0.97551 0.99777 0.0
C285 C 0.01503 0.0608 0.02039 0.0
C286 C 0.01275 0.02514 0.01369 0.0
C287 C 1.00718 0.92128 0.99503 0.0
C288 C 1.00942 0.95696 1.00168 0.0
H289 H 0.9981 0.11156 0.06506 0.0
H290 H 0.98732 0.0546 0.05213 0.0
H291 H 0.06715 0.02256 1.00092 0.0
H292 H 0.02371 0.87047 0.95034 0.0
H293 H 0.0344 0.92752 0.96313 0.0
C294 C 0.55765 0.11312 1.00366 0.0
C295 C 0.54095 0.12424 0.98394 0.0
C296 C 0.55227 0.08062 0.01135 0.0
C297 C 0.52988 -0.00249 0.99027 0.0
H298 H 0.51619 0.97531 0.05295 0.0
C299 C 0.48637 0.8673 0.01987 0.0
C300 C 0.49864 0.85533 0.0406 0.0
C301 C 0.49534 0.89927 0.01263 0.0
C302 C 0.52067 0.98103 0.03543 0.0
H303 H 0.50437 0.11056 0.9573 0.0
H304 H 0.49481 0.0537 0.97082 0.0
H305 H 0.52105 0.03364 0.04174 0.0
H306 H 0.53161 0.86673 0.06946 0.0
H307 H 0.54794 0.92265 0.05659 0.0
H308 H 0.52967 0.94503 0.9839 0.0
C309 C 0.51235 0.07008 0.98019 0.0
C310 C 0.5232 0.01447 0.029 0.0
C311 C 0.51751 0.10271 0.97259 0.0
C312 C 0.52182 0.87528 0.05338 0.0
C313 C 0.53081 0.90742 0.04612 0.0
C314 C 0.52757 0.96411 0.9967 0.0
C315 C 0.53028 0.0585 0.99939 0.0
C316 C 0.52746 0.02306 1.00632 0.0
C317 C 0.51688 0.92008 0.02593 0.0
C318 C 0.52256 0.95545 0.01933 0.0
H319 H 0.57591 0.12914 0.01276 0.0
H320 H 0.56657 0.0724 0.02613 0.0
H321 H 0.53395 0.00334 0.97272 0.0
H322 H 0.46845 0.85252 0.00962 0.0
H323 H 0.48385 0.90822 0.9971 0.0
C324 C 1.01132 0.60451 0.54804 0.0
C325 C 0.98909 0.62611 0.53587 0.0
C326 C 0.01723 0.57191 0.54048 0.0
C327 C 1.00974 0.51629 0.49113 0.0
H328 H 0.997 0.44702 0.53576 0.0
C329 C 1.00522 0.37745 0.46609 0.0
C330 C 0.02665 0.35639 0.47921 0.0
C331 C 0.99752 0.40989 0.47338 0.0
C332 C 1.00088 0.46604 0.52311 0.0
H333 H 0.9574 0.63136 0.50565 0.0
H334 H 0.96801 0.57481 0.49239 0.0
H335 H 0.99436 0.50542 0.54701 0.0
H336 H 0.05488 0.35187 0.51081 0.0
H337 H 0.04163 0.40807 0.52341 0.0
H338 H 0.01662 0.47696 0.46725 0.0
C339 C 0.98081 0.58285 0.50775 0.0
C340 C 0.99955 0.4995 0.52958 0.0
C341 C 0.97468 0.61524 0.51538 0.0
C342 C 0.0383 0.36755 0.5003 0.0
C343 C 0.03058 0.3998 0.50758 0.0
C344 C 1.01122 0.48281 0.48466 0.0
C345 C 1.00129 0.56051 0.52053 0.0
C346 C 1.00407 0.525 0.51368 0.0
C347 C 1.01099 0.42171 0.49394 0.0
C348 C 1.00692 0.45727 0.50058 0.0
H349 H 0.02261 0.61216 0.56394 0.0
H350 H 0.03357 0.55537 0.55051 0.0
H351 H 0.01355 0.53538 0.47851 0.0
H352 H 0.99599 0.36955 0.44973 0.0
H353 H 0.98183 0.42599 0.46264 0.0
C354 C 0.51459 0.60592 0.47174 0.0
C355 C 0.49055 0.62645 0.48347 0.0
C356 C 0.52181 0.57361 0.47937 0.0
C357 C 0.48018 0.50752 0.51367 0.0
H358 H 0.57345 0.46567 0.50955 0.0
C359 C 0.51294 0.37848 0.55243 0.0
C360 C 0.53633 0.35772 0.54036 0.0
C361 C 0.50587 0.41088 0.54495 0.0
C362 C 0.54711 0.47688 0.51055 0.0
H363 H 0.45702 0.63017 0.51309 0.0
H364 H 0.47021 0.5743 0.52662 0.0
H365 H 0.56654 0.52386 0.49858 0.0
H366 H 0.56894 0.35383 0.51034 0.0
H367 H 0.55613 0.40996 0.49715 0.0
H368 H 0.46078 0.46054 0.52568 0.0
C369 C 0.48277 0.58268 0.51124 0.0
C370 C 0.5432 0.51025 0.5043 0.0
C371 C 0.47548 0.61482 0.50359 0.0
C372 C 0.55097 0.36931 0.5201 0.0
C373 C 0.5439 0.40159 0.51263 0.0
C374 C 0.4841 0.47416 0.51995 0.0
C375 C 0.50518 0.56133 0.49889 0.0
C376 C 0.50969 0.52598 0.50581 0.0
C377 C 0.52206 0.42307 0.52527 0.0
C378 C 0.5176 0.45843 0.51841 0.0
H379 H 0.52641 0.61414 0.45609 0.0
H380 H 0.53909 0.55776 0.4694 0.0
H381 H 0.45382 0.51868 0.51464 0.0
H382 H 0.50143 0.37029 0.56817 0.0
H383 H 0.48901 0.42686 0.55511 0.0
C384 C 0.35334 0.89751 0.0664 0.0
C385 C 0.36324 0.88589 0.08775 0.0
C386 C 0.33006 0.92462 0.06424 0.0
C387 C 0.2983 -0.00229 0.0958 0.0
H388 H 0.21892 -0.00221 0.05399 0.0
C389 C 0.17978 0.08723 0.1043 0.0
C390 C 0.16473 0.10097 0.08485 0.0
C391 C 0.20651 0.06311 0.10281 0.0
C392 C 0.24134 -0.00164 0.06547 0.0
H393 H 0.35498 0.89241 0.12346 0.0
H394 H 0.3145 0.93955 0.11972 0.0
H395 H 0.26009 0.95042 0.05475 0.0
H396 H 0.16623 0.10055 0.04852 0.0
H397 H 0.21339 0.05839 0.04586 0.0
H398 H 0.27939 0.0453 0.10679 0.0
C399 C 0.32535 0.92826 0.10467 0.0
C400 C 0.26484 0.97123 0.06593 0.0
C401 C 0.34849 0.90122 0.10682 0.0
C402 C 0.17755 0.09059 0.0638 0.0
C403 C 0.20425 0.06625 0.06228 0.0
C404 C 0.27491 0.02477 0.09532 0.0
C405 C 0.31635 0.9406 0.08339 0.0
C406 C 0.29308 0.97035 0.08145 0.0
C407 C 0.2188 0.05211 0.08179 0.0
C408 C 0.24576 0.02508 0.0805 0.0
H409 H 0.36452 0.88643 0.0514 0.0
H410 H 0.32365 0.9337 0.04763 0.0
H411 H 0.32033 -0.00194 0.10758 0.0
H412 H 0.17072 0.09501 0.12074 0.0
H413 H 0.2169 0.05244 0.11815 0.0
C414 C 0.17886 0.39762 0.41067 0.0
C415 C 0.16397 0.38387 0.43021 0.0
C416 C 0.20298 0.42403 0.41195 0.0
C417 C 0.26475 0.46873 0.44927 0.0
H418 H 0.24961 0.54085 0.40701 0.0
C419 C 0.34821 0.5904 0.45074 0.0
C420 C 0.36069 0.60147 0.42977 0.0
C421 C 0.32284 0.56485 0.4521 0.0
C422 C 0.25434 0.52082 0.41882 0.0
H423 H 0.16366 0.38628 0.46652 0.0
H424 H 0.20616 0.4326 0.4688 0.0
H425 H 0.20912 0.49327 0.40709 0.0
H426 H 0.35562 0.59513 0.39384 0.0
H427 H 0.31177 0.55036 0.39617 0.0
H428 H 0.3103 0.49627 0.4608 0.0
C429 C 0.19913 0.42276 0.45247 0.0
C430 C 0.23119 0.49356 0.41885 0.0
C431 C 0.17489 0.39622 0.45118 0.0
C432 C 0.34678 0.58692 0.41022 0.0
C433 C 0.32138 0.56151 0.41157 0.0
C434 C 0.288 0.49607 0.44922 0.0
C435 C 0.21281 0.43736 0.43282 0.0
C436 C 0.23646 0.46699 0.43382 0.0
C437 C 0.30932 0.55002 0.43252 0.0
C438 C 0.28331 0.52216 0.43376 0.0
H439 H 0.17156 0.38814 0.39431 0.0
H440 H 0.21378 0.43421 0.39653 0.0
H441 H 0.26956 0.44853 0.46092 0.0
H442 H 0.35869 0.60084 0.46611 0.0
H443 H 0.31383 0.5567 0.46847 0.0
C444 C 0.84358 0.89122 0.95436 0.0
C445 C 0.85542 0.88059 0.93315 0.0
C446 C 0.81732 0.91595 0.95621 0.0
C447 C 0.74687 0.95941 0.92384 0.0
H448 H 0.76582 0.03349 0.96395 0.0
C449 C 0.67933 0.08594 0.91217 0.0
C450 C 0.665 0.1016 0.93124 0.0
C451 C 0.70137 0.0581 0.9143 0.0
C452 C 0.75995 0.01278 0.95289 0.0
H453 H 0.84792 0.88624 0.89735 0.0
H454 H 0.80261 0.92946 0.9005 0.0
H455 H 0.80483 0.98456 0.96463 0.0
H456 H 0.66343 0.10076 0.96761 0.0
H457 H 0.70251 0.05226 0.97133 0.0
H458 H 0.7026 0.98788 0.9117 0.0
C459 C 0.81338 0.91875 0.91573 0.0
C460 C 0.78217 0.98473 0.95333 0.0
C461 C 0.83964 0.89425 0.9139 0.0
C462 C 0.67434 0.08953 0.95258 0.0
C463 C 0.69658 0.06167 0.95473 0.0
C464 C 0.7248 0.98741 0.92336 0.0
C465 C 0.80224 0.93021 0.93688 0.0
C466 C 0.77629 0.95808 0.93845 0.0
C467 C 0.70972 0.04532 0.93557 0.0
C468 C 0.73157 0.01467 0.93753 0.0
H469 H 0.85546 0.88127 0.96947 0.0
H470 H 0.80905 0.92412 0.97274 0.0
H471 H 0.74124 0.93898 0.91249 0.0
H472 H 0.67319 0.09502 0.89553 0.0
H473 H 0.7118 0.04646 0.89926 0.0
C474 C 0.69065 0.39032 0.60876 0.0
C475 C 0.67431 0.37726 0.58948 0.0
C476 C 0.71691 0.41486 0.60701 0.0
C477 C 0.74697 0.48183 0.56985 0.0
H478 H 0.82834 0.48392 0.61013 0.0
C479 C 0.8548 0.58617 0.56873 0.0
C480 C 0.86569 0.59808 0.58984 0.0
C481 C 0.83259 0.55823 0.56708 0.0
C482 C 0.80562 0.48376 0.59887 0.0
H483 H 0.6733 0.37909 0.55317 0.0
H484 H 0.71968 0.42191 0.55005 0.0
H485 H 0.78922 0.43529 0.60968 0.0
H486 H 0.86054 0.59088 0.6257 0.0
H487 H 0.82186 0.5422 0.62284 0.0
H488 H 0.76321 0.5306 0.55928 0.0
C489 C 0.71186 0.41326 0.56654 0.0
C490 C 0.78327 0.45591 0.59858 0.0
C491 C 0.68561 0.38853 0.56831 0.0
C492 C 0.85316 0.58196 0.60922 0.0
C493 C 0.83107 0.55405 0.60757 0.0
C494 C 0.76942 0.50972 0.57011 0.0
C495 C 0.72745 0.42695 0.5859 0.0
C496 C 0.75331 0.45491 0.58439 0.0
C497 C 0.82094 0.54161 0.5865 0.0
C498 C 0.79854 0.51121 0.58495 0.0
H499 H 0.68277 0.38183 0.62527 0.0
H500 H 0.72812 0.42512 0.62226 0.0
H501 H 0.72388 0.48194 0.5589 0.0
H502 H 0.86435 0.59771 0.55346 0.0
H503 H 0.82536 0.54907 0.55061 0.0
C504 C 0.18632 0.28586 0.05587 0.0
C505 C 0.16709 0.25743 0.04911 0.0
C506 C 0.22186 0.29059 0.0488 0.0
C507 C 0.28586 0.26584 1.00467 0.0
H508 H 0.35992 0.28159 0.04887 0.0
C509 C 0.43389 0.23859 0.98564 0.0
C510 C 0.46071 0.25844 0.99537 0.0
C511 C 0.39793 0.24298 0.99146 0.0
C512 C 0.3396 0.27783 0.03619 0.0
H513 H 0.1699 0.21212 0.02925 0.0
H514 H 0.23117 0.22066 0.01677 0.0
H515 H 0.29704 0.28214 0.06028 0.0
H516 H 0.47056 0.29902 0.0185 0.0
H517 H 0.4076 0.30719 0.02843 0.0
H518 H 0.32799 0.26145 0.98056 0.0
C519 C 0.21899 0.23925 0.02754 0.0
C520 C 0.30354 0.2781 0.04278 0.0
C521 C 0.18389 0.23428 0.03484 0.0
C522 C 0.45056 0.28317 0.01085 0.0
C523 C 0.41446 0.28774 0.01658 0.0
C524 C 0.32177 0.2659 0.99804 0.0
C525 C 0.2385 0.26731 0.03451 0.0
C526 C 0.27635 0.27131 0.02718 0.0
C527 C 0.38765 0.26753 1.00707 0.0
C528 C 0.34925 0.27104 0.0138 0.0
H529 H 0.17416 0.30408 0.06692 0.0
H530 H 0.23628 0.31249 0.0544 0.0
H531 H 0.26544 0.26104 0.9922 0.0
H532 H 0.4407 0.21881 0.97405 0.0
H533 H 0.37831 0.22637 0.98414 0.0
C534 C 0.09103 0.72158 0.97468 0.0
C535 C 0.06355 0.71895 0.99073 0.0
C536 C 0.12698 0.71851 0.98093 0.0
C537 C 0.18726 0.6907 0.02717 0.0
H538 H 0.25246 0.75489 1.0008 0.0
C539 C 0.34022 0.69527 0.04777 0.0
C540 C 0.35489 0.72733 0.05052 0.0
C541 C 0.30507 0.69126 0.03985 0.0
C542 C 0.23463 0.73684 1.00841 0.0
H543 H 0.05262 0.71035 0.02598 0.0
H544 H 0.11515 0.70526 0.0369 0.0
H545 H 0.19064 0.75292 0.98829 0.0
H546 H 0.34353 0.78027 0.04757 0.0
H547 H 0.28286 0.77327 0.03416 0.0
H548 H 0.23127 0.6755 0.04787 0.0
C549 C 0.10893 0.70919 0.01938 0.0
C550 C 0.19919 0.7354 1.00101 0.0
C551 C 0.07295 0.71215 0.0131 0.0
C552 C 0.33342 0.75515 0.04549 0.0
C553 C 0.29854 0.75116 0.03762 0.0
C554 C 0.22284 0.69213 0.03459 0.0
C555 C 0.13647 0.71284 1.00344 0.0
C556 C 0.17485 0.7126 0.01045 0.0
C557 C 0.28394 0.71922 0.03447 0.0
C558 C 0.24682 0.71561 0.02555 0.0
H559 H 0.08474 0.72619 0.95725 0.0
H560 H 0.14738 0.72081 0.9681 0.0
H561 H 0.1694 0.67254 0.03464 0.0
H562 H 0.35598 0.67331 0.05149 0.0
H563 H 0.29469 0.66629 0.03754 0.0
C564 C 0.43775 0.25315 0.5295 0.0
C565 C 0.4619 0.22658 0.52671 0.0
C566 C 0.40271 0.25083 0.52155 0.0
C567 C 0.3317 0.19228 0.50488 0.0
H568 H 0.29421 0.26971 0.47396 0.0
C569 C 0.18818 0.19809 0.46541 0.0
C570 C 0.16987 0.22843 0.46836 0.0
C571 C 0.22432 0.19514 0.47166 0.0
C572 C 0.30408 0.24795 0.48273 0.0
H573 H 0.46777 0.17643 0.51373 0.0
H574 H 0.40614 0.1723 0.49979 0.0
H575 H 0.356 0.2696 0.48667 0.0
H576 H 0.17501 0.27902 0.48101 0.0
H577 H 0.23699 0.27371 0.49205 0.0
H578 H 0.27928 0.17094 0.50125 0.0
C579 C 0.41455 0.19493 0.50819 0.0
C580 C 0.33957 0.2479 0.48999 0.0
C581 C 0.44986 0.19737 0.51602 0.0
C582 C 0.18823 0.25536 0.47817 0.0
C583 C 0.22401 0.25239 0.48441 0.0
C584 C 0.29593 0.1924 0.49768 0.0
C585 C 0.39072 0.22183 0.51064 0.0
C586 C 0.35366 0.22037 0.50153 0.0
C587 C 0.24278 0.22248 0.48095 0.0
C588 C 0.2815 0.22056 0.48692 0.0
H589 H 0.44612 0.2762 0.53734 0.0
H590 H 0.38491 0.27186 0.52394 0.0
H591 H 0.34178 0.17071 0.51377 0.0
H592 H 0.17484 0.17686 0.45792 0.0
H593 H 0.23801 0.17174 0.46873 0.0
C594 C 0.06968 0.7496 0.49793 0.0
C595 C 0.05834 0.75921 0.51946 0.0
C596 C 0.10576 0.75186 0.49183 0.0
C597 C 0.18998 0.7941 0.50168 0.0
H598 H 0.23414 0.71132 0.4827 0.0
C599 C 0.34317 0.78283 0.48404 0.0
C600 C 0.35446 0.75891 0.46836 0.0
C601 C 0.3069 0.78515 0.4901 0.0
C602 C 0.22229 0.73491 0.48746 0.0
H603 H 0.07559 0.77964 0.55123 0.0
H604 H 0.13894 0.78461 0.54027 0.0
H605 H 0.17127 0.71196 0.49317 0.0
H606 H 0.33666 0.72015 0.44569 0.0
H607 H 0.27366 0.72548 0.45503 0.0
H608 H 0.24051 0.81747 0.49519 0.0
C609 C 0.11978 0.77503 0.52827 0.0
C610 C 0.18622 0.73511 0.49368 0.0
C611 C 0.08371 0.77207 0.53456 0.0
C612 C 0.32873 0.73857 0.45804 0.0
C613 C 0.29256 0.7414 0.46365 0.0
C614 C 0.22602 0.7941 0.49498 0.0
C615 C 0.13118 0.76441 0.50697 0.0
C616 C 0.16968 0.76465 0.50079 0.0
C617 C 0.2811 0.76401 0.48026 0.0
C618 C 0.24271 0.76448 0.48765 0.0
H619 H 0.05085 0.73919 0.48605 0.0
H620 H 0.1139 0.74353 0.47531 0.0
H621 H 0.17773 0.81724 0.50706 0.0
H622 H 0.36254 0.79863 0.49238 0.0
H623 H 0.29943 0.80269 0.50308 0.0
C624 C 0.57428 0.69498 0.01357 0.0
C625 C 0.56405 0.72221 0.02702 0.0
C626 C 0.61007 0.69083 1.00692 0.0
C627 C 0.70248 0.71837 0.02119 0.0
H628 H 0.72506 0.69418 0.95981 0.0
C629 C 0.83814 0.74832 0.98125 0.0
C630 C 0.85502 0.72434 0.96763 0.0
C631 C 0.80336 0.74338 0.9891 0.0
C632 C 0.71919 0.70044 0.9771 0.0
H633 H 0.58371 0.76695 0.04341 0.0
H634 H 0.64545 0.75976 0.03197 0.0
H635 H 0.66264 0.69429 0.97241 0.0
H636 H 0.84829 0.67626 0.95157 0.0
H637 H 0.78682 0.66775 0.96522 0.0
H638 H 0.75878 0.72549 0.02571 0.0
C639 C 0.62611 0.74106 0.02697 0.0
C640 C 0.68343 0.70051 0.98434 0.0
C641 C 0.59051 0.74518 0.03359 0.0
C642 C 0.83611 0.69515 0.96208 0.0
C643 C 0.80089 0.69036 0.96979 0.0
C644 C 0.73806 0.71844 0.01394 0.0
C645 C 0.63646 0.71383 0.01358 0.0
C646 C 0.67457 0.71024 1.00635 0.0
C647 C 0.78422 0.71443 0.98347 0.0
C648 C 0.74681 0.71024 0.99168 0.0
H649 H 0.55466 0.67673 1.00832 0.0
H650 H 0.61711 0.66943 0.99674 0.0
H651 H 0.6968 0.72518 0.0384 0.0
H652 H 0.85179 0.77113 0.98589 0.0
H653 H 0.79116 0.76265 0.9993 0.0
C654 C 0.69314 0.2479 0.95661 0.0
C655 C 0.66669 0.26369 0.96953 0.0
C656 C 0.72931 0.25124 0.96203 0.0
C657 C 0.79364 0.29748 0.99932 0.0
H658 H 0.85252 0.21982 0.98734 0.0
C659 C 0.93461 0.26909 0.03807 0.0
C660 C 0.96152 0.26231 0.02221 0.0
C661 C 0.89886 0.27258 0.03137 0.0
C662 C 0.83642 0.24174 0.99068 0.0
H663 H 0.65723 0.2959 0.99802 0.0
H664 H 0.72032 0.30055 1.00833 0.0
H665 H 0.78994 0.21957 0.97637 0.0
H666 H 0.97218 0.2537 0.98698 0.0
H667 H 0.90955 0.25878 0.97536 0.0
H668 H 0.84045 0.31861 0.01477 0.0
C669 C 0.71345 0.28642 0.99349 0.0
C670 C 0.80049 0.24184 0.9842 0.0
C671 C 0.67717 0.28376 0.98764 0.0
C672 C 0.95205 0.2593 0.99951 0.0
C673 C 0.91627 0.26202 0.99289 0.0
C674 C 0.82951 0.29703 1.00626 0.0
C675 C 0.74006 0.26962 0.98101 0.0
C676 C 0.77853 0.26984 0.98817 0.0
C677 C 0.88933 0.26853 1.00876 0.0
C678 C 0.85124 0.26925 1.00181 0.0
H679 H 0.68576 0.23248 0.94241 0.0
H680 H 0.74877 0.23887 0.95145 0.0
H681 H 0.778 0.3197 1.00248 0.0
H682 H 0.94131 0.27154 0.05565 0.0
H683 H 0.87851 0.2774 0.04392 0.0
C684 C 0.8434 0.78262 0.53486 0.0
C685 C 0.85447 0.75918 0.55088 0.0
C686 C 0.8072 0.7849 0.52874 0.0
C687 C 0.72233 0.73512 0.53197 0.0
H688 H 0.67841 0.81697 0.51112 0.0
C689 C 0.56992 0.75021 0.52091 0.0
C690 C 0.55887 0.75926 0.49924 0.0
C691 C 0.60594 0.75242 0.52704 0.0
C692 C 0.69049 0.79396 0.51684 0.0
H693 H 0.8363 0.72125 0.57407 0.0
H694 H 0.77339 0.72654 0.56461 0.0
H695 H 0.74104 0.81733 0.52313 0.0
H696 H 0.57661 0.7786 0.46724 0.0
H697 H 0.63988 0.78348 0.47827 0.0
H698 H 0.67127 0.71219 0.52644 0.0
C699 C 0.79244 0.74211 0.55579 0.0
C700 C 0.72644 0.79403 0.52363 0.0
C701 C 0.82856 0.73931 0.56147 0.0
C702 C 0.5845 0.77147 0.48403 0.0
C703 C 0.62052 0.77439 0.49035 0.0
C704 C 0.68634 0.73526 0.52565 0.0
C705 C 0.78123 0.76421 0.53885 0.0
C706 C 0.74291 0.76459 0.53141 0.0
C707 C 0.63162 0.76435 0.5118 0.0
C708 C 0.67004 0.76463 0.51808 0.0
H709 H 0.86291 0.79805 0.5263 0.0
H710 H 0.79992 0.80204 0.51551 0.0
H711 H 0.73401 0.71165 0.53708 0.0
H712 H 0.55087 0.74031 0.53288 0.0
H713 H 0.61384 0.74456 0.54369 0.0
C714 C 0.95032 0.19385 0.50515 0.0
C715 C 0.96029 0.22169 0.49221 0.0
C716 C 0.91459 0.18916 0.51177 0.0
C717 C 0.82192 0.21652 0.49815 0.0
H718 H 0.7998 0.19034 0.5592 0.0
C719 C 0.68727 0.24619 0.53917 0.0
C720 C 0.67008 0.22192 0.55238 0.0
C721 C 0.72187 0.24108 0.53109 0.0
C722 C 0.80554 0.19713 0.542 0.0
H723 H 0.9402 0.26688 0.47666 0.0
H724 H 0.87856 0.25875 0.48804 0.0
H725 H 0.86214 0.19101 0.54644 0.0
H726 H 0.67608 0.17311 0.56747 0.0
H727 H 0.73735 0.1643 0.55344 0.0
H728 H 0.76557 0.2237 0.4939 0.0
C729 C 0.89807 0.24002 0.49267 0.0
C730 C 0.84126 0.19753 0.53466 0.0
C731 C 0.93362 0.24469 0.48609 0.0
C732 C 0.68852 0.19223 0.55728 0.0
C733 C 0.7236 0.18727 0.54936 0.0
C734 C 0.78639 0.21627 0.50549 0.0
C735 C 0.88799 0.21221 0.50557 0.0
C736 C 0.84995 0.20806 0.5128 0.0
C737 C 0.74055 0.21165 0.53608 0.0
C738 C 0.77782 0.20738 0.52765 0.0
H739 H 0.9701 0.17554 0.51003 0.0
H740 H 0.90776 0.16733 0.52155 0.0
H741 H 0.82748 0.22394 0.48104 0.0
H742 H 0.674 0.26938 0.535 0.0
H743 H 0.7343 0.26058 0.52122 0.0
C744 C 0.08785 0.25932 0.34108 0.0
C745 C 0.06304 0.24132 0.35407 0.0
C746 C 0.08607 0.25893 0.31771 0.0
C747 C 0.02462 0.24179 0.27039 0.0
H748 H 0.11285 0.24098 0.23601 0.0
C749 C 0.02996 0.22381 0.17378 0.0
C750 C 0.05503 0.24294 0.1617 0.0
C751 C 0.02928 0.22457 0.19723 0.0
C752 C 0.08796 0.24162 0.24535 0.0
H753 H 0.01686 0.20869 0.35256 0.0
H754 H 0.01398 0.20761 0.31157 0.0
H755 H 0.11528 0.23864 0.27674 0.0
H756 H 0.09795 0.27904 0.16496 0.0
H757 H 0.09687 0.28019 0.20585 0.0
H758 H 0.99738 0.2444 0.23881 0.0
C759 C 0.03459 0.2224 0.31956 0.0
C760 C 0.08933 0.24025 0.26874 0.0
C761 C 0.0363 0.22289 0.34304 0.0
C762 C 0.07865 0.26361 0.17369 0.0
C763 C 0.07808 0.26423 0.19714 0.0
C764 C 0.02325 0.24299 0.24693 0.0
C765 C 0.05946 0.24048 0.30659 0.0
C766 C 0.05771 0.24056 0.28161 0.0
C767 C 0.05377 0.24432 0.2092 0.0
C768 C 0.05493 0.24315 0.23415 0.0
H769 H 0.10821 0.27452 0.34899 0.0
H770 H 0.10517 0.27377 0.30837 0.0
H771 H 0.99974 0.24253 0.27972 0.0
H772 H 1.01176 0.20713 0.16519 0.0
H773 H 1.01046 0.20867 0.206 0.0
C774 C 0.48752 0.72195 0.17653 0.0
C775 C 0.46139 0.74106 0.16552 0.0
C776 C 0.48969 0.72197 0.2 0.0
C777 C 0.4373 0.74457 0.25118 0.0
H778 H 0.53015 0.7426 0.28013 0.0
C779 C 0.45324 0.76962 0.34582 0.0
C780 C 0.47398 0.74638 0.35777 0.0
C781 C 0.45351 0.76996 0.32236 0.0
C782 C 0.50403 0.743 0.27227 0.0
H783 H 0.41775 0.77594 0.17052 0.0
H784 H 0.42178 0.77642 0.21112 0.0
H785 H 0.52651 0.74008 0.23927 0.0
H786 H 0.51206 0.70579 0.35409 0.0
H787 H 0.51315 0.70709 0.3133 0.0
H788 H 0.41492 0.74802 0.28417 0.0
C789 C 0.43996 0.76052 0.20183 0.0
C790 C 0.5019 0.74137 0.24885 0.0
C791 C 0.43762 0.76026 0.17848 0.0
C792 C 0.49619 0.72448 0.34559 0.0
C793 C 0.49671 0.72505 0.32214 0.0
C794 C 0.43948 0.74654 0.27453 0.0
C795 C 0.466 0.7414 0.21297 0.0
C796 C 0.46847 0.74222 0.23796 0.0
C797 C 0.47479 0.74731 0.31025 0.0
C798 C 0.47284 0.74584 0.28536 0.0
H799 H 0.50617 0.70685 0.167 0.0
H800 H 0.50978 0.70657 0.20796 0.0
H801 H 0.41105 0.74456 0.24352 0.0
H802 H 0.43628 0.78725 0.35457 0.0
H803 H 0.43678 0.78779 0.31366 0.0
C804 C 0.95559 0.77212 0.67302 0.0
C805 C 0.97561 0.74819 0.66114 0.0
C806 C 0.95598 0.77285 0.69647 0.0
C807 C 1.00579 0.74513 0.74659 0.0
H808 H 0.91297 0.75005 0.77558 0.0
C809 C 0.98809 0.72503 0.84243 0.0
C810 C 0.96256 0.74494 0.85344 0.0
C811 C 0.99055 0.7251 0.81897 0.0
C812 C 0.9392 0.74913 0.76785 0.0
H813 H 0.01255 0.70676 0.66492 0.0
H814 H 0.01383 0.70865 0.70571 0.0
H815 H 0.91689 0.75287 0.73491 0.0
H816 H 0.92046 0.7814 0.84844 0.0
H817 H 0.92503 0.78194 0.80785 0.0
H818 H 0.02819 0.74183 0.77955 0.0
C819 C 0.99788 0.72689 0.69682 0.0
C820 C 0.94141 0.75072 0.74448 0.0
C821 C 0.99726 0.72596 0.67337 0.0
C822 C 0.93982 0.76511 0.84048 0.0
C823 C 0.94246 0.7654 0.81713 0.0
C824 C 1.00363 0.74384 0.77003 0.0
C825 C 0.97665 0.74986 0.70865 0.0
C826 C 0.97471 0.74881 0.73357 0.0
C827 C 0.96776 0.74535 0.80599 0.0
C828 C 0.97028 0.7459 0.781 0.0
H829 H 0.93908 0.79 0.66421 0.0
H830 H 0.9398 0.79123 0.70511 0.0
H831 H 0.03187 0.74378 0.73867 0.0
H832 H 1.00593 0.70918 0.85196 0.0
H833 H 1.01007 0.70901 0.811 0.0
C834 C 0.56681 0.21431 0.67787 0.0
C835 C 0.55564 0.24243 0.66583 0.0
C836 C 0.56441 0.21378 0.70131 0.0
C837 C 0.52412 0.26041 0.75003 0.0
H838 H 0.59436 0.21009 0.78374 0.0
C839 C 0.55294 0.27227 0.8463 0.0
C840 C 0.5478 0.24221 0.85794 0.0
C841 C 0.5523 0.27275 0.8228 0.0
C842 C 0.5746 0.22421 0.77447 0.0
H843 H 0.53413 0.29233 0.66863 0.0
H844 H 0.53159 0.29233 0.70935 0.0
H845 H 0.59691 0.21002 0.74291 0.0
H846 H 0.53866 0.18913 0.85434 0.0
H847 H 0.53867 0.18989 0.81327 0.0
H848 H 0.5031 0.27568 0.78197 0.0
C849 C 0.5407 0.26994 0.70098 0.0
C850 C 0.57574 0.22395 0.75103 0.0
C851 C 0.54232 0.2701 0.67757 0.0
C852 C 0.54218 0.21269 0.84573 0.0
C853 C 0.54242 0.21306 0.82231 0.0
C854 C 0.52357 0.26127 0.77348 0.0
C855 C 0.55167 0.24177 0.71328 0.0
C856 C 0.55039 0.24191 0.73839 0.0
C857 C 0.54753 0.24305 0.81066 0.0
C858 C 0.54866 0.24302 0.78587 0.0
H859 H 0.57718 0.19267 0.66913 0.0
H860 H 0.57244 0.19131 0.70998 0.0
H861 H 0.50359 0.27399 0.7411 0.0
H862 H 0.55753 0.29527 0.85538 0.0
H863 H 0.55642 0.29614 0.8141 0.0
loop_
_geom_bond_atom_site_label_1
_geom_bond_atom_site_label_2
_geom_bond_distance
_geom_bond_site_symmetry_2
_ccdc_geom_bond_type
Co0 N4 2.148 . S
Co0 N10 2.128 . S
Co0 N20 2.194 . S
Co0 O25 2.351 . S
Co0 O26 2.155 . S
Co0 O27 2.096 . S
C1 N4 1.322 . S
C1 N5 1.320 1_455 S
C1 H6 0.919 1_455 S
C2 C3 1.333 . S
C2 N4 1.317 . S
C2 H7 0.930 . S
C3 C2 1.333 . S
C3 N5 1.350 1_455 S
C3 H29 0.931 . S
N4 Co0 2.148 . S
N4 C1 1.322 . S
N4 C2 1.317 . S
N5 C1 1.320 1_655 S
N5 C3 1.350 1_655 S
H6 C1 0.919 1_655 S
H7 C2 0.930 . S
C8 O9 1.224 . S
C8 O27 1.247 . S
O9 C8 1.224 . S
N10 Co0 2.128 . S
N10 C11 1.355 . S
N10 C13 1.311 . S
C11 N10 1.355 . S
C11 C12 1.363 . S
C11 H23 0.929 . S
C12 C11 1.363 . S
C12 N14 1.375 . S
C12 H30 0.931 . S
C13 N10 1.311 . S
C13 N14 1.347 . S
C13 H24 0.929 . S
N14 C12 1.375 . S
N14 C13 1.347 . S
C15 C18 1.365 . S
C15 N20 1.328 . S
C15 H21 0.929 . S
C16 C17 1.362 . S
C16 C19 1.378 . S
C16 H31 0.929 . S
C17 C16 1.362 . S
C17 C18 1.366 . S
C18 C15 1.365 . S
C18 C17 1.366 . S
C18 H32 0.930 . S
C19 C16 1.378 . S
C19 N20 1.315 . S
C19 H22 0.930 . S
N20 Co0 2.194 . S
N20 C15 1.328 . S
N20 C19 1.315 . S
H21 C15 0.929 . S
H22 C19 0.930 . S
H23 C11 0.929 . S
H24 C13 0.929 . S
O25 Co0 2.351 . S
O25 C28 1.244 . S
O26 Co0 2.155 . S
O26 C28 1.240 . S
O27 Co0 2.096 . S
O27 C8 1.247 . S
C28 O25 1.244 . S
C28 O26 1.240 . S
H29 C3 0.931 . S
H30 C12 0.931 . S
H31 C16 0.929 . S
H32 C18 0.930 . S
Co33 N37 2.148 . S
Co33 N43 2.128 . S
Co33 N53 2.194 . S
Co33 O58 2.351 . S
Co33 O59 2.155 . S
Co33 O60 2.096 . S
C34 N37 1.301 . S
C34 N38 1.328 . S
C34 H39 0.930 . S
C35 C36 1.333 . S
C35 N37 1.317 . S
C35 H40 0.930 . S
C36 C35 1.333 . S
C36 N38 1.350 . S
C36 H62 0.931 . S
N37 Co33 2.148 . S
N37 C34 1.301 . S
N37 C35 1.317 . S
N38 C34 1.328 . S
N38 C36 1.350 . S
H39 C34 0.930 . S
H40 C35 0.930 . S
C41 O42 1.224 . S
C41 O60 1.247 . S
O42 C41 1.224 . S
N43 Co33 2.128 . S
N43 C44 1.355 . S
N43 C46 1.311 . S
C44 N43 1.355 . S
C44 C45 1.363 . S
C44 H56 0.929 . S
C45 C44 1.363 . S
C45 N47 1.375 . S
C45 H63 0.931 . S
C46 N43 1.311 . S
C46 N47 1.347 . S
C46 H57 0.929 . S
N47 C45 1.375 . S
N47 C46 1.347 . S
C48 C51 1.365 . S
C48 N53 1.328 . S
C48 H54 0.929 . S
C49 C50 1.362 . S
C49 C52 1.378 . S
C49 H64 0.929 . S
C50 C49 1.362 . S
C50 C51 1.366 . S
C51 C48 1.365 . S
C51 C50 1.366 . S
C51 H65 0.930 . S
C52 C49 1.378 . S
C52 N53 1.315 . S
C52 H55 0.930 . S
N53 Co33 2.194 . S
N53 C48 1.328 . S
N53 C52 1.315 . S
H54 C48 0.929 . S
H55 C52 0.930 . S
H56 C44 0.929 . S
H57 C46 0.929 . S
O58 Co33 2.351 . S
O58 C61 1.244 . S
O59 Co33 2.155 . S
O59 C61 1.240 . S
O60 Co33 2.096 . S
O60 C41 1.247 . S
C61 O58 1.244 . S
C61 O59 1.240 . S
H62 C36 0.931 . S
H63 C45 0.931 . S
H64 C49 0.929 . S
H65 C51 0.930 . S
Co66 N70 2.148 . S
Co66 N76 2.128 . S
Co66 N86 2.194 . S
Co66 O91 2.351 . S
Co66 O92 2.155 . S
Co66 O93 2.096 . S
C67 N70 1.322 . S
C67 N71 1.320 1_455 S
C67 H72 0.919 1_455 S
C68 C69 1.333 . S
C68 N70 1.317 . S
C68 H73 0.930 . S
C69 C68 1.333 . S
C69 N71 1.350 1_455 S
C69 H95 0.931 . S
N70 Co66 2.148 . S
N70 C67 1.322 . S
N70 C68 1.317 . S
N71 C67 1.320 1_655 S
N71 C69 1.350 1_655 S
H72 C67 0.919 1_655 S
H73 C68 0.930 . S
C74 O75 1.224 . S
C74 O93 1.247 . S
O75 C74 1.224 . S
N76 Co66 2.128 . S
N76 C77 1.355 . S
N76 C79 1.311 . S
C77 N76 1.355 . S
C77 C78 1.363 . S
C77 H89 0.929 . S
C78 C77 1.363 . S
C78 N80 1.375 . S
C78 H96 0.931 . S
C79 N76 1.311 . S
C79 N80 1.347 . S
C79 H90 0.929 . S
N80 C78 1.375 . S
N80 C79 1.347 . S
C81 C84 1.365 . S
C81 N86 1.328 . S
C81 H87 0.929 . S
C82 C83 1.362 . S
C82 C85 1.378 . S
C82 H97 0.929 . S
C83 C82 1.362 . S
C83 C84 1.366 . S
C84 C81 1.365 . S
C84 C83 1.366 . S
C84 H98 0.930 . S
C85 C82 1.378 . S
C85 N86 1.315 . S
C85 H88 0.930 . S
N86 Co66 2.194 . S
N86 C81 1.328 . S
N86 C85 1.315 . S
H87 C81 0.929 . S
H88 C85 0.930 . S
H89 C77 0.929 . S
H90 C79 0.929 . S
O91 Co66 2.351 . S
O91 C94 1.244 . S
O92 Co66 2.155 . S
O92 C94 1.240 . S
O93 Co66 2.096 . S
O93 C74 1.247 . S
C94 O91 1.244 . S
C94 O92 1.240 . S
H95 C69 0.931 . S
H96 C78 0.931 . S
H97 C82 0.929 . S
H98 C84 0.930 . S
Co99 N103 2.148 . S
Co99 N109 2.128 . S
Co99 N119 2.194 . S
Co99 O124 2.351 . S
Co99 O125 2.155 . S
Co99 O126 2.096 . S
C100 N103 1.301 . S
C100 N104 1.328 . S
C100 H105 0.930 . S
C101 C102 1.333 . S
C101 N103 1.317 . S
C101 H106 0.930 . S
C102 C101 1.333 . S
C102 N104 1.350 . S
C102 H128 0.931 . S
N103 Co99 2.148 . S
N103 C100 1.301 . S
N103 C101 1.317 . S
N104 C100 1.328 . S
N104 C102 1.350 . S
H105 C100 0.930 . S
H106 C101 0.930 . S
C107 O108 1.224 . S
C107 O126 1.247 . S
O108 C107 1.224 . S
N109 Co99 2.128 . S
N109 C110 1.355 . S
N109 C112 1.311 . S
C110 N109 1.355 . S
C110 C111 1.363 . S
C110 H122 0.929 . S
C111 C110 1.363 . S
C111 N113 1.375 . S
C111 H129 0.931 . S
C112 N109 1.311 . S
C112 N113 1.347 . S
C112 H123 0.929 . S
N113 C111 1.375 . S
N113 C112 1.347 . S
C114 C117 1.365 . S
C114 N119 1.328 . S
C114 H120 0.929 . S
C115 C116 1.362 . S
C115 C118 1.378 . S
C115 H130 0.929 . S
C116 C115 1.362 . S
C116 C117 1.366 . S
C117 C114 1.365 . S
C117 C116 1.366 . S
C117 H131 0.930 . S
C118 C115 1.378 . S
C118 N119 1.315 . S
C118 H121 0.930 . S
N119 Co99 2.194 . S
N119 C114 1.328 . S
N119 C118 1.315 . S
H120 C114 0.929 . S
H121 C118 0.930 . S
H122 C110 0.929 . S
H123 C112 0.929 . S
O124 Co99 2.351 . S
O124 C127 1.244 . S
O125 Co99 2.155 . S
O125 C127 1.240 . S
O126 Co99 2.096 . S
O126 C107 1.247 . S
C127 O124 1.244 . S
C127 O125 1.240 . S
H128 C102 0.931 . S
H129 C111 0.931 . S
H130 C115 0.929 . S
H131 C117 0.930 . S
Co132 N136 2.148 . S
Co132 N142 2.128 . S
Co132 N152 2.194 . S
Co132 O157 2.351 . S
Co132 O158 2.155 . S
Co132 O159 2.096 . S
C133 N136 1.322 . S
C133 N137 1.320 1_655 S
C133 H138 0.919 1_655 S
C134 C135 1.333 . S
C134 N136 1.317 . S
C134 H139 0.930 . S
C135 C134 1.333 . S
C135 N137 1.350 1_655 S
C135 H161 0.931 . S
N136 Co132 2.148 . S
N136 C133 1.322 . S
N136 C134 1.317 . S
N137 C133 1.320 1_455 S
N137 C135 1.350 1_455 S
H138 C133 0.919 1_455 S
H139 C134 0.930 . S
C140 O141 1.224 . S
C140 O159 1.247 . S
O141 C140 1.224 . S
N142 Co132 2.128 . S
N142 C143 1.355 . S
N142 C145 1.311 . S
C143 N142 1.355 . S
C143 C144 1.363 . S
C143 H155 0.929 . S
C144 C143 1.363 . S
C144 N146 1.375 . S
C144 H162 0.931 . S
C145 N142 1.311 . S
C145 N146 1.347 . S
C145 H156 0.929 . S
N146 C144 1.375 . S
N146 C145 1.347 . S
C147 C150 1.365 . S
C147 N152 1.328 . S
C147 H153 0.929 . S
C148 C149 1.362 . S
C148 C151 1.378 . S
C148 H163 0.929 . S
C149 C148 1.362 . S
C149 C150 1.366 . S
C150 C147 1.365 . S
C150 C149 1.366 . S
C150 H164 0.930 . S
C151 C148 1.378 . S
C151 N152 1.315 . S
C151 H154 0.930 . S
N152 Co132 2.194 . S
N152 C147 1.328 . S
N152 C151 1.315 . S
H153 C147 0.929 . S
H154 C151 0.930 . S
H155 C143 0.929 . S
H156 C145 0.929 . S
O157 Co132 2.351 . S
O157 C160 1.244 . S
O158 Co132 2.155 . S
O158 C160 1.240 . S
O159 Co132 2.096 . S
O159 C140 1.247 . S
C160 O157 1.244 . S
C160 O158 1.240 . S
H161 C135 0.931 . S
H162 C144 0.931 . S
H163 C148 0.929 . S
H164 C150 0.930 . S
Co165 N169 2.148 . S
Co165 N175 2.128 . S
Co165 N185 2.194 . S
Co165 O190 2.351 . S
Co165 O191 2.155 . S
Co165 O192 2.096 . S
C166 N169 1.301 . S
C166 N170 1.328 . S
C166 H171 0.930 . S
C167 C168 1.333 . S
C167 N169 1.317 . S
C167 H172 0.930 . S
C168 C167 1.333 . S
C168 N170 1.350 . S
C168 H194 0.931 . S
N169 Co165 2.148 . S
N169 C166 1.301 . S
N169 C167 1.317 . S
N170 C166 1.328 . S
N170 C168 1.350 . S
H171 C166 0.930 . S
H172 C167 0.930 . S
C173 O174 1.224 . S
C173 O192 1.247 . S
O174 C173 1.224 . S
N175 Co165 2.128 . S
N175 C176 1.355 . S
N175 C178 1.311 . S
C176 N175 1.355 . S
C176 C177 1.363 . S
C176 H188 0.929 . S
C177 C176 1.363 . S
C177 N179 1.375 . S
C177 H195 0.931 . S
C178 N175 1.311 . S
C178 N179 1.347 . S
C178 H189 0.929 . S
N179 C177 1.375 . S
N179 C178 1.347 . S
C180 C183 1.365 . S
C180 N185 1.328 . S
C180 H186 0.929 . S
C181 C182 1.362 . S
C181 C184 1.378 . S
C181 H196 0.929 . S
C182 C181 1.362 . S
C182 C183 1.366 . S
C183 C180 1.365 . S
C183 C182 1.366 . S
C183 H197 0.930 . S
C184 C181 1.378 . S
C184 N185 1.315 . S
C184 H187 0.930 . S
N185 Co165 2.194 . S
N185 C180 1.328 . S
N185 C184 1.315 . S
H186 C180 0.929 . S
H187 C184 0.930 . S
H188 C176 0.929 . S
H189 C178 0.929 . S
O190 Co165 2.351 . S
O190 C193 1.244 . S
O191 Co165 2.155 . S
O191 C193 1.240 . S
O192 Co165 2.096 . S
O192 C173 1.247 . S
C193 O190 1.244 . S
C193 O191 1.240 . S
H194 C168 0.931 . S
H195 C177 0.931 . S
H196 C181 0.929 . S
H197 C183 0.930 . S
Co198 N202 2.148 . S
Co198 N208 2.128 . S
Co198 N218 2.194 . S
Co198 O223 2.351 . S
Co198 O224 2.155 . S
Co198 O225 2.096 . S
C199 N202 1.322 . S
C199 N203 1.320 1_655 S
C199 H204 0.919 1_655 S
C200 C201 1.333 . S
C200 N202 1.317 . S
C200 H205 0.930 . S
C201 C200 1.333 . S
C201 N203 1.350 1_655 S
C201 H227 0.931 . S
N202 Co198 2.148 . S
N202 C199 1.322 . S
N202 C200 1.317 . S
N203 C199 1.320 1_455 S
N203 C201 1.350 1_455 S
H204 C199 0.919 1_455 S
H205 C200 0.930 . S
C206 O207 1.224 . S
C206 O225 1.247 . S
O207 C206 1.224 . S
N208 Co198 2.128 . S
N208 C209 1.355 . S
N208 C211 1.311 . S
C209 N208 1.355 . S
C209 C210 1.363 . S
C209 H221 0.929 . S
C210 C209 1.363 . S
C210 N212 1.375 . S
C210 H228 0.931 . S
C211 N208 1.311 . S
C211 N212 1.347 . S
C211 H222 0.929 . S
N212 C210 1.375 . S
N212 C211 1.347 . S
C213 C216 1.365 . S
C213 N218 1.328 . S
C213 H219 0.929 . S
C214 C215 1.362 . S
C214 C217 1.378 . S
C214 H229 0.929 . S
C215 C214 1.362 . S
C215 C216 1.366 . S
C216 C213 1.365 . S
C216 C215 1.366 . S
C216 H230 0.930 . S
C217 C214 1.378 . S
C217 N218 1.315 . S
C217 H220 0.930 . S
N218 Co198 2.194 . S
N218 C213 1.328 . S
N218 C217 1.315 . S
H219 C213 0.929 . S
H220 C217 0.930 . S
H221 C209 0.929 . S
H222 C211 0.929 . S
O223 Co198 2.351 . S
O223 C226 1.244 . S
O224 Co198 2.155 . S
O224 C226 1.240 . S
O225 Co198 2.096 . S
O225 C206 1.247 . S
C226 O223 1.244 . S
C226 O224 1.240 . S
H227 C201 0.931 . S
H228 C210 0.931 . S
H229 C214 0.929 . S
H230 C216 0.930 . S
Co231 N235 2.148 . S
Co231 N241 2.128 . S
Co231 N251 2.194 . S
Co231 O256 2.351 . S
Co231 O257 2.155 . S
Co231 O258 2.096 . S
C232 N235 1.301 . S
C232 N236 1.328 . S
C232 H237 0.930 . S
C233 C234 1.333 . S
C233 N235 1.317 . S
C233 H238 0.930 . S
C234 C233 1.333 . S
C234 N236 1.350 . S
C234 H260 0.931 . S
N235 Co231 2.148 . S
N235 C232 1.301 . S
N235 C233 1.317 . S
N236 C232 1.328 . S
N236 C234 1.350 . S
H237 C232 0.930 . S
H238 C233 0.930 . S
C239 O240 1.224 . S
C239 O258 1.247 . S
O240 C239 1.224 . S
N241 Co231 2.128 . S
N241 C242 1.355 . S
N241 C244 1.311 . S
C242 N241 1.355 . S
C242 C243 1.363 . S
C242 H254 0.929 . S
C243 C242 1.363 . S
C243 N245 1.375 . S
C243 H261 0.931 . S
C244 N241 1.311 . S
C244 N245 1.347 . S
C244 H255 0.929 . S
N245 C243 1.375 . S
N245 C244 1.347 . S
C246 C249 1.365 . S
C246 N251 1.328 . S
C246 H252 0.929 . S
C247 C248 1.362 . S
C247 C250 1.378 . S
C247 H262 0.929 . S
C248 C247 1.362 . S
C248 C249 1.366 . S
C249 C246 1.365 . S
C249 C248 1.366 . S
C249 H263 0.930 . S
C250 C247 1.378 . S
C250 N251 1.315 . S
C250 H253 0.930 . S
N251 Co231 2.194 . S
N251 C246 1.328 . S
N251 C250 1.315 . S
H252 C246 0.929 . S
H253 C250 0.930 . S
H254 C242 0.929 . S
H255 C244 0.929 . S
O256 Co231 2.351 . S
O256 C259 1.244 . S
O257 Co231 2.155 . S
O257 C259 1.240 . S
O258 Co231 2.096 . S
O258 C239 1.247 . S
C259 O256 1.244 . S
C259 O257 1.240 . S
H260 C234 0.931 . S
H261 C243 0.931 . S
H262 C247 0.929 . S
H263 C249 0.930 . S
C264 C265 1.349 . S
C264 C266 1.327 1_455 S
C264 H289 0.950 1_455 S
C265 C264 1.349 . S
C265 C281 1.349 . S
C266 C264 1.327 1_655 S
C266 C285 1.429 1_655 S
C266 H290 0.950 . S
C267 C284 1.574 1_545 S
C267 C286 1.368 1_556 S
C267 H291 0.949 . S
H268 C272 0.949 . S
C269 C270 1.349 . S
C269 C271 1.327 1_655 S
C269 H292 0.950 1_655 S
C270 C269 1.349 . S
C270 C282 1.349 . S
C271 C269 1.327 1_455 S
C271 C287 1.429 1_455 S
C271 H293 0.950 . S
C272 H268 0.949 . S
C272 C280 1.574 1_565 S
C272 C288 1.368 1_554 S
H273 C281 0.950 . S
H274 C279 0.950 1_556 S
H275 C280 0.949 . S
H276 C282 0.950 . S
H277 C283 0.950 1_554 S
H278 C284 0.949 . S
C279 H274 0.950 1_554 S
C279 C281 1.327 . S
C279 C285 1.429 . S
C280 C272 1.574 1_545 S
C280 H275 0.949 . S
C280 C286 1.368 1_655 S
C281 C265 1.349 . S
C281 H273 0.950 . S
C281 C279 1.327 . S
C282 C270 1.349 . S
C282 H276 0.950 . S
C282 C283 1.327 . S
C283 H277 0.950 1_556 S
C283 C282 1.327 . S
C283 C287 1.429 . S
C284 C267 1.574 1_565 S
C284 H278 0.949 . S
C284 C288 1.368 1_455 S
C285 C266 1.429 1_455 S
C285 C279 1.429 . S
C285 C286 1.523 . S
C286 C267 1.368 1_554 S
C286 C280 1.368 1_455 S
C286 C285 1.523 . S
C287 C271 1.429 1_655 S
C287 C283 1.429 . S
C287 C288 1.523 . S
C288 C272 1.368 1_556 S
C288 C284 1.368 1_655 S
C288 C287 1.523 . S
H289 C264 0.950 1_655 S
H290 C266 0.950 . S
H291 C267 0.949 . S
H292 C269 0.950 1_455 S
H293 C271 0.950 . S
C294 C295 1.349 . S
C294 C296 1.327 . S
C294 H319 0.950 . S
C295 C294 1.349 . S
C295 C311 1.349 . S
C296 C294 1.327 . S
C296 C315 1.429 . S
C296 H320 0.950 1_556 S
C297 C314 1.574 1_545 S
C297 C316 1.368 . S
C297 H321 0.949 . S
H298 C302 0.949 . S
C299 C300 1.349 . S
C299 C301 1.327 . S
C299 H322 0.950 . S
C300 C299 1.349 . S
C300 C312 1.349 . S
C301 C299 1.327 . S
C301 C317 1.429 . S
C301 H323 0.950 1_554 S
C302 H298 0.949 . S
C302 C310 1.574 1_565 S
C302 C318 1.368 . S
H303 C311 0.950 . S
H304 C309 0.950 . S
H305 C310 0.949 . S
H306 C312 0.950 . S
H307 C313 0.950 . S
H308 C314 0.949 . S
C309 H304 0.950 . S
C309 C311 1.327 . S
C309 C315 1.429 . S
C310 C302 1.574 1_545 S
C310 H305 0.949 . S
C310 C316 1.368 1_554 S
C311 C295 1.349 . S
C311 H303 0.950 . S
C311 C309 1.327 . S
C312 C300 1.349 . S
C312 H306 0.950 . S
C312 C313 1.327 . S
C313 H307 0.950 . S
C313 C312 1.327 . S
C313 C317 1.429 . S
C314 C297 1.574 1_565 S
C314 H308 0.949 . S
C314 C318 1.368 1_556 S
C315 C296 1.429 . S
C315 C309 1.429 . S
C315 C316 1.523 . S
C316 C297 1.368 . S
C316 C310 1.368 1_556 S
C316 C315 1.523 . S
C317 C301 1.429 . S
C317 C313 1.429 . S
C317 C318 1.523 . S
C318 C302 1.368 . S
C318 C314 1.368 1_554 S
C318 C317 1.523 . S
H319 C294 0.950 . S
H320 C296 0.950 1_554 S
H321 C297 0.949 . S
H322 C299 0.950 . S
H323 C301 0.950 1_556 S
C324 C325 1.349 . S
C324 C326 1.327 . S
C324 H349 0.950 . S
C325 C324 1.349 . S
C325 C341 1.364 . S
C326 C324 1.327 . S
C326 C345 1.429 . S
C326 H350 0.950 . S
C327 C344 1.574 . S
C327 C346 1.368 1_455 S
C327 H351 0.949 . S
H328 C332 0.949 . S
C329 C330 1.349 . S
C329 C331 1.327 . S
C329 H352 0.950 . S
C330 C329 1.349 . S
C330 C342 1.364 . S
C331 C329 1.327 . S
C331 C347 1.429 . S
C331 H353 0.950 . S
C332 H328 0.949 . S
C332 C340 1.574 . S
C332 C348 1.368 1_655 S
H333 C341 0.939 1_455 S
H334 C339 0.950 . S
H335 C340 0.949 . S
H336 C342 0.939 1_655 S
H337 C343 0.950 . S
H338 C344 0.949 . S
C339 H334 0.950 . S
C339 C341 1.323 1_455 S
C339 C345 1.429 1_455 S
C340 C332 1.574 . S
C340 H335 0.949 . S
C340 C346 1.368 . S
C341 C325 1.364 . S
C341 H333 0.939 1_655 S
C341 C339 1.323 1_655 S
C342 C330 1.364 . S
C342 H336 0.939 1_455 S
C342 C343 1.323 1_455 S
C343 H337 0.950 . S
C343 C342 1.323 1_655 S
C343 C347 1.429 1_655 S
C344 C327 1.574 . S
C344 H338 0.949 . S
C344 C348 1.368 . S
C345 C326 1.429 . S
C345 C339 1.429 1_655 S
C345 C346 1.523 . S
C346 C327 1.368 1_655 S
C346 C340 1.368 . S
C346 C345 1.523 . S
C347 C331 1.429 . S
C347 C343 1.429 1_455 S
C347 C348 1.523 . S
C348 C332 1.368 1_455 S
C348 C344 1.368 . S
C348 C347 1.523 . S
H349 C324 0.950 . S
H350 C326 0.950 . S
H351 C327 0.949 . S
H352 C329 0.950 . S
H353 C331 0.950 . S
C354 C355 1.349 . S
C354 C356 1.327 . S
C354 H379 0.950 . S
C355 C354 1.349 . S
C355 C371 1.349 . S
C356 C354 1.327 . S
C356 C375 1.429 . S
C356 H380 0.950 . S
C357 C374 1.574 . S
C357 C376 1.368 . S
C357 H381 0.949 . S
H358 C362 0.949 . S
C359 C360 1.349 . S
C359 C361 1.327 . S
C359 H382 0.950 . S
C360 C359 1.349 . S
C360 C372 1.349 . S
C361 C359 1.327 . S
C361 C377 1.429 . S
C361 H383 0.950 . S
C362 H358 0.949 . S
C362 C370 1.574 . S
C362 C378 1.368 . S
H363 C371 0.950 . S
H364 C369 0.950 . S
H365 C370 0.949 . S
H366 C372 0.950 . S
H367 C373 0.950 . S
H368 C374 0.949 . S
C369 H364 0.950 . S
C369 C371 1.327 . S
C369 C375 1.429 . S
C370 C362 1.574 . S
C370 H365 0.949 . S
C370 C376 1.368 . S
C371 C355 1.349 . S
C371 H363 0.950 . S
C371 C369 1.327 . S
C372 C360 1.349 . S
C372 H366 0.950 . S
C372 C373 1.327 . S
C373 H367 0.950 . S
C373 C372 1.327 . S
C373 C377 1.429 . S
C374 C357 1.574 . S
C374 H368 0.949 . S
C374 C378 1.368 . S
C375 C356 1.429 . S
C375 C369 1.429 . S
C375 C376 1.523 . S
C376 C357 1.368 . S
C376 C370 1.368 . S
C376 C375 1.523 . S
C377 C361 1.429 . S
C377 C373 1.429 . S
C377 C378 1.523 . S
C378 C362 1.368 . S
C378 C374 1.368 . S
C378 C377 1.523 . S
H379 C354 0.950 . S
H380 C356 0.950 . S
H381 C357 0.949 . S
H382 C359 0.950 . S
H383 C361 0.950 . S
C384 C385 1.349 . S
C384 C386 1.327 . S
C384 H409 0.950 . S
C385 C384 1.349 . S
C385 C401 1.349 . S
C386 C384 1.327 . S
C386 C405 1.429 . S
C386 H410 0.950 . S
C387 C404 1.574 1_565 S
C387 C406 1.368 . S
C387 H411 0.949 . S
H388 C392 0.949 . S
C389 C390 1.349 . S
C389 C391 1.327 . S
C389 H412 0.950 . S
C390 C389 1.349 . S
C390 C402 1.349 . S
C391 C389 1.327 . S
C391 C407 1.429 . S
C391 H413 0.950 . S
C392 H388 0.949 . S
C392 C400 1.574 1_545 S
C392 C408 1.368 . S
H393 C401 0.950 . S
H394 C399 0.950 . S
H395 C400 0.949 . S
H396 C402 0.950 . S
H397 C403 0.950 . S
H398 C404 0.949 . S
C399 H394 0.950 . S
C399 C401 1.327 . S
C399 C405 1.429 . S
C400 C392 1.574 1_565 S
C400 H395 0.949 . S
C400 C406 1.368 . S
C401 C385 1.349 . S
C401 H393 0.950 . S
C401 C399 1.327 . S
C402 C390 1.349 . S
C402 H396 0.950 . S
C402 C403 1.327 . S
C403 H397 0.950 . S
C403 C402 1.327 . S
C403 C407 1.429 . S
C404 C387 1.574 1_545 S
C404 H398 0.949 . S
C404 C408 1.368 . S
C405 C386 1.429 . S
C405 C399 1.429 . S
C405 C406 1.523 . S
C406 C387 1.368 . S
C406 C400 1.368 . S
C406 C405 1.523 . S
C407 C391 1.429 . S
C407 C403 1.429 . S
C407 C408 1.523 . S
C408 C392 1.368 . S
C408 C404 1.368 . S
C408 C407 1.523 . S
H409 C384 0.950 . S
H410 C386 0.950 . S
H411 C387 0.949 . S
H412 C389 0.950 . S
H413 C391 0.950 . S
C414 C415 1.349 . S
C414 C416 1.327 . S
C414 H439 0.950 . S
C415 C414 1.349 . S
C415 C431 1.349 . S
C416 C414 1.327 . S
C416 C435 1.429 . S
C416 H440 0.950 . S
C417 C434 1.574 . S
C417 C436 1.368 . S
C417 H441 0.949 . S
H418 C422 0.949 . S
C419 C420 1.349 . S
C419 C421 1.327 . S
C419 H442 0.950 . S
C420 C419 1.349 . S
C420 C432 1.349 . S
C421 C419 1.327 . S
C421 C437 1.429 . S
C421 H443 0.950 . S
C422 H418 0.949 . S
C422 C430 1.574 . S
C422 C438 1.368 . S
H423 C431 0.950 . S
H424 C429 0.950 . S
H425 C430 0.949 . S
H426 C432 0.950 . S
H427 C433 0.950 . S
H428 C434 0.949 . S
C429 H424 0.950 . S
C429 C431 1.327 . S
C429 C435 1.429 . S
C430 C422 1.574 . S
C430 H425 0.949 . S
C430 C436 1.368 . S
C431 C415 1.349 . S
C431 H423 0.950 . S
C431 C429 1.327 . S
C432 C420 1.349 . S
C432 H426 0.950 . S
C432 C433 1.327 . S
C433 H427 0.950 . S
C433 C432 1.327 . S
C433 C437 1.429 . S
C434 C417 1.574 . S
C434 H428 0.949 . S
C434 C438 1.368 . S
C435 C416 1.429 . S
C435 C429 1.429 . S
C435 C436 1.523 . S
C436 C417 1.368 . S
C436 C430 1.368 . S
C436 C435 1.523 . S
C437 C421 1.429 . S
C437 C433 1.429 . S
C437 C438 1.523 . S
C438 C422 1.368 . S
C438 C434 1.368 . S
C438 C437 1.523 . S
H439 C414 0.950 . S
H440 C416 0.950 . S
H441 C417 0.949 . S
H442 C419 0.950 . S
H443 C421 0.950 . S
C444 C445 1.349 . S
C444 C446 1.327 . S
C444 H469 0.950 . S
C445 C444 1.349 . S
C445 C461 1.349 . S
C446 C444 1.327 . S
C446 C465 1.429 . S
C446 H470 0.950 . S
C447 C464 1.574 1_565 S
C447 C466 1.368 . S
C447 H471 0.949 . S
H448 C452 0.949 . S
C449 C450 1.349 . S
C449 C451 1.327 . S
C449 H472 0.950 . S
C450 C449 1.349 . S
C450 C462 1.349 . S
C451 C449 1.327 . S
C451 C467 1.429 . S
C451 H473 0.950 . S
C452 H448 0.949 . S
C452 C460 1.574 1_545 S
C452 C468 1.368 . S
H453 C461 0.950 . S
H454 C459 0.950 . S
H455 C460 0.949 . S
H456 C462 0.950 . S
H457 C463 0.950 . S
H458 C464 0.949 . S
C459 H454 0.950 . S
C459 C461 1.327 . S
C459 C465 1.429 . S
C460 C452 1.574 1_565 S
C460 H455 0.949 . S
C460 C466 1.368 . S
C461 C445 1.349 . S
C461 H453 0.950 . S
C461 C459 1.327 . S
C462 C450 1.349 . S
C462 H456 0.950 . S
C462 C463 1.327 . S
C463 H457 0.950 . S
C463 C462 1.327 . S
C463 C467 1.429 . S
C464 C447 1.574 1_545 S
C464 H458 0.949 . S
C464 C468 1.368 . S
C465 C446 1.429 . S
C465 C459 1.429 . S
C465 C466 1.523 . S
C466 C447 1.368 . S
C466 C460 1.368 . S
C466 C465 1.523 . S
C467 C451 1.429 . S
C467 C463 1.429 . S
C467 C468 1.523 . S
C468 C452 1.368 . S
C468 C464 1.368 . S
C468 C467 1.523 . S
H469 C444 0.950 . S
H470 C446 0.950 . S
H471 C447 0.949 . S
H472 C449 0.950 . S
H473 C451 0.950 . S
C474 C475 1.349 . S
C474 C476 1.327 . S
C474 H499 0.950 . S
C475 C474 1.349 . S
C475 C491 1.349 . S
C476 C474 1.327 . S
C476 C495 1.429 . S
C476 H500 0.950 . S
C477 C494 1.574 . S
C477 C496 1.368 . S
C477 H501 0.949 . S
H478 C482 0.949 . S
C479 C480 1.349 . S
C479 C481 1.327 . S
C479 H502 0.950 . S
C480 C479 1.349 . S
C480 C492 1.349 . S
C481 C479 1.327 . S
C481 C497 1.429 . S
C481 H503 0.950 . S
C482 H478 0.949 . S
C482 C490 1.574 . S
C482 C498 1.368 . S
H483 C491 0.950 . S
H484 C489 0.950 . S
H485 C490 0.949 . S
H486 C492 0.950 . S
H487 C493 0.950 . S
H488 C494 0.949 . S
C489 H484 0.950 . S
C489 C491 1.327 . S
C489 C495 1.429 . S
C490 C482 1.574 . S
C490 H485 0.949 . S
C490 C496 1.368 . S
C491 C475 1.349 . S
C491 H483 0.950 . S
C491 C489 1.327 . S
C492 C480 1.349 . S
C492 H486 0.950 . S
C492 C493 1.327 . S
C493 H487 0.950 . S
C493 C492 1.327 . S
C493 C497 1.429 . S
C494 C477 1.574 . S
C494 H488 0.949 . S
C494 C498 1.368 . S
C495 C476 1.429 . S
C495 C489 1.429 . S
C495 C496 1.523 . S
C496 C477 1.368 . S
C496 C490 1.368 . S
C496 C495 1.523 . S
C497 C481 1.429 . S
C497 C493 1.429 . S
C497 C498 1.523 . S
C498 C482 1.368 . S
C498 C494 1.368 . S
C498 C497 1.523 . S
H499 C474 0.950 . S
H500 C476 0.950 . S
H501 C477 0.949 . S
H502 C479 0.950 . S
H503 C481 0.950 . S
C504 C505 1.349 . S
C504 C506 1.327 . S
C504 H529 0.950 . S
C505 C504 1.349 . S
C505 C521 1.349 . S
C506 C504 1.327 . S
C506 C525 1.429 . S
C506 H530 0.950 . S
C507 C524 1.574 . S
C507 C526 1.368 1_556 S
C507 H531 0.949 . S
H508 C512 0.949 . S
C509 C510 1.349 . S
C509 C511 1.327 . S
C509 H532 0.950 . S
C510 C509 1.349 . S
C510 C522 1.349 . S
C511 C509 1.327 . S
C511 C527 1.429 . S
C511 H533 0.950 . S
C512 H508 0.949 . S
C512 C520 1.574 . S
C512 C528 1.368 1_554 S
H513 C521 0.950 . S
H514 C519 0.950 1_556 S
H515 C520 0.949 . S
H516 C522 0.950 . S
H517 C523 0.950 1_554 S
H518 C524 0.949 . S
C519 H514 0.950 1_554 S
C519 C521 1.327 . S
C519 C525 1.429 . S
C520 C512 1.574 . S
C520 H515 0.949 . S
C520 C526 1.368 . S
C521 C505 1.349 . S
C521 H513 0.950 . S
C521 C519 1.327 . S
C522 C510 1.349 . S
C522 H516 0.950 . S
C522 C523 1.327 . S
C523 H517 0.950 1_556 S
C523 C522 1.327 . S
C523 C527 1.429 . S
C524 C507 1.574 . S
C524 H518 0.949 . S
C524 C528 1.368 . S
C525 C506 1.429 . S
C525 C519 1.429 . S
C525 C526 1.523 . S
C526 C507 1.368 1_554 S
C526 C520 1.368 . S
C526 C525 1.523 . S
C527 C511 1.429 . S
C527 C523 1.429 . S
C527 C528 1.523 . S
C528 C512 1.368 1_556 S
C528 C524 1.368 . S
C528 C527 1.523 . S
H529 C504 0.950 . S
H530 C506 0.950 . S
H531 C507 0.949 . S
H532 C509 0.950 . S
H533 C511 0.950 . S
C534 C535 1.349 . S
C534 C536 1.327 . S
C534 H559 0.950 . S
C535 C534 1.349 . S
C535 C551 1.349 . S
C536 C534 1.327 . S
C536 C555 1.429 . S
C536 H560 0.950 . S
C537 C554 1.574 . S
C537 C556 1.368 . S
C537 H561 0.949 . S
H538 C542 0.949 . S
C539 C540 1.349 . S
C539 C541 1.327 . S
C539 H562 0.950 . S
C540 C539 1.349 . S
C540 C552 1.349 . S
C541 C539 1.327 . S
C541 C557 1.429 . S
C541 H563 0.950 . S
C542 H538 0.949 . S
C542 C550 1.574 . S
C542 C558 1.368 . S
H543 C551 0.950 . S
H544 C549 0.950 . S
H545 C550 0.949 . S
H546 C552 0.950 . S
H547 C553 0.950 . S
H548 C554 0.949 . S
C549 H544 0.950 . S
C549 C551 1.327 . S
C549 C555 1.429 . S
C550 C542 1.574 . S
C550 H545 0.949 . S
C550 C556 1.368 1_554 S
C551 C535 1.349 . S
C551 H543 0.950 . S
C551 C549 1.327 . S
C552 C540 1.349 . S
C552 H546 0.950 . S
C552 C553 1.327 . S
C553 H547 0.950 . S
C553 C552 1.327 . S
C553 C557 1.429 . S
C554 C537 1.574 . S
C554 H548 0.949 . S
C554 C558 1.368 1_556 S
C555 C536 1.429 . S
C555 C549 1.429 . S
C555 C556 1.523 . S
C556 C537 1.368 . S
C556 C550 1.368 1_556 S
C556 C555 1.523 . S
C557 C541 1.429 . S
C557 C553 1.429 . S
C557 C558 1.523 . S
C558 C542 1.368 . S
C558 C554 1.368 1_554 S
C558 C557 1.523 . S
H559 C534 0.950 . S
H560 C536 0.950 . S
H561 C537 0.949 . S
H562 C539 0.950 . S
H563 C541 0.950 . S
C564 C565 1.349 . S
C564 C566 1.327 . S
C564 H589 0.950 . S
C565 C564 1.349 . S
C565 C581 1.349 . S
C566 C564 1.327 . S
C566 C585 1.429 . S
C566 H590 0.950 . S
C567 C584 1.574 . S
C567 C586 1.368 . S
C567 H591 0.949 . S
H568 C572 0.949 . S
C569 C570 1.349 . S
C569 C571 1.327 . S
C569 H592 0.950 . S
C570 C569 1.349 . S
C570 C582 1.349 . S
C571 C569 1.327 . S
C571 C587 1.429 . S
C571 H593 0.950 . S
C572 H568 0.949 . S
C572 C580 1.574 . S
C572 C588 1.368 . S
H573 C581 0.950 . S
H574 C579 0.950 . S
H575 C580 0.949 . S
H576 C582 0.950 . S
H577 C583 0.950 . S
H578 C584 0.949 . S
C579 H574 0.950 . S
C579 C581 1.327 . S
C579 C585 1.429 . S
C580 C572 1.574 . S
C580 H575 0.949 . S
C580 C586 1.368 . S
C581 C565 1.349 . S
C581 H573 0.950 . S
C581 C579 1.327 . S
C582 C570 1.349 . S
C582 H576 0.950 . S
C582 C583 1.327 . S
C583 H577 0.950 . S
C583 C582 1.327 . S
C583 C587 1.429 . S
C584 C567 1.574 . S
C584 H578 0.949 . S
C584 C588 1.368 . S
C585 C566 1.429 . S
C585 C579 1.429 . S
C585 C586 1.523 . S
C586 C567 1.368 . S
C586 C580 1.368 . S
C586 C585 1.523 . S
C587 C571 1.429 . S
C587 C583 1.429 . S
C587 C588 1.523 . S
C588 C572 1.368 . S
C588 C584 1.368 . S
C588 C587 1.523 . S
H589 C564 0.950 . S
H590 C566 0.950 . S
H591 C567 0.949 . S
H592 C569 0.950 . S
H593 C571 0.950 . S
C594 C595 1.349 . S
C594 C596 1.327 . S
C594 H619 0.950 . S
C595 C594 1.349 . S
C595 C611 1.349 . S
C596 C594 1.327 . S
C596 C615 1.429 . S
C596 H620 0.950 . S
C597 C614 1.574 . S
C597 C616 1.368 . S
C597 H621 0.949 . S
H598 C602 0.949 . S
C599 C600 1.349 . S
C599 C601 1.327 . S
C599 H622 0.950 . S
C600 C599 1.349 . S
C600 C612 1.349 . S
C601 C599 1.327 . S
C601 C617 1.429 . S
C601 H623 0.950 . S
C602 H598 0.949 . S
C602 C610 1.574 . S
C602 C618 1.368 . S
H603 C611 0.950 . S
H604 C609 0.950 . S
H605 C610 0.949 . S
H606 C612 0.950 . S
H607 C613 0.950 . S
H608 C614 0.949 . S
C609 H604 0.950 . S
C609 C611 1.327 . S
C609 C615 1.429 . S
C610 C602 1.574 . S
C610 H605 0.949 . S
C610 C616 1.368 . S
C611 C595 1.349 . S
C611 H603 0.950 . S
C611 C609 1.327 . S
C612 C600 1.349 . S
C612 H606 0.950 . S
C612 C613 1.327 . S
C613 H607 0.950 . S
C613 C612 1.327 . S
C613 C617 1.429 . S
C614 C597 1.574 . S
C614 H608 0.949 . S
C614 C618 1.368 . S
C615 C596 1.429 . S
C615 C609 1.429 . S
C615 C616 1.523 . S
C616 C597 1.368 . S
C616 C610 1.368 . S
C616 C615 1.523 . S
C617 C601 1.429 . S
C617 C613 1.429 . S
C617 C618 1.523 . S
C618 C602 1.368 . S
C618 C614 1.368 . S
C618 C617 1.523 . S
H619 C594 0.950 . S
H620 C596 0.950 . S
H621 C597 0.949 . S
H622 C599 0.950 . S
H623 C601 0.950 . S
C624 C625 1.349 . S
C624 C626 1.327 . S
C624 H649 0.950 . S
C625 C624 1.349 . S
C625 C641 1.349 . S
C626 C624 1.327 . S
C626 C645 1.429 . S
C626 H650 0.943 1_554 S
C627 C644 1.574 . S
C627 C646 1.368 . S
C627 H651 0.949 . S
H628 C632 0.949 . S
C629 C630 1.349 . S
C629 C631 1.327 . S
C629 H652 0.950 . S
C630 C629 1.349 . S
C630 C642 1.349 . S
C631 C629 1.327 . S
C631 C647 1.429 . S
C631 H653 0.950 1_556 S
C632 H628 0.949 . S
C632 C640 1.574 . S
C632 C648 1.368 . S
H633 C641 0.950 . S
H634 C639 0.950 . S
H635 C640 0.949 . S
H636 C642 0.950 . S
H637 C643 0.950 . S
H638 C644 0.949 . S
C639 H634 0.950 . S
C639 C641 1.327 . S
C639 C645 1.429 . S
C640 C632 1.574 . S
C640 H635 0.949 . S
C640 C646 1.368 1_556 S
C641 C625 1.349 . S
C641 H633 0.950 . S
C641 C639 1.327 . S
C642 C630 1.349 . S
C642 H636 0.950 . S
C642 C643 1.327 . S
C643 H637 0.950 . S
C643 C642 1.327 . S
C643 C647 1.429 . S
C644 C627 1.574 . S
C644 H638 0.949 . S
C644 C648 1.368 1_554 S
C645 C626 1.429 . S
C645 C639 1.429 . S
C645 C646 1.523 . S
C646 C627 1.368 . S
C646 C640 1.368 1_554 S
C646 C645 1.523 . S
C647 C631 1.429 . S
C647 C643 1.429 . S
C647 C648 1.523 . S
C648 C632 1.368 . S
C648 C644 1.368 1_556 S
C648 C647 1.523 . S
H649 C624 0.950 . S
H650 C626 0.943 1_556 S
H651 C627 0.949 . S
H652 C629 0.950 . S
H653 C631 0.950 1_554 S
C654 C655 1.349 . S
C654 C656 1.327 . S
C654 H679 0.950 . S
C655 C654 1.349 . S
C655 C671 1.349 . S
C656 C654 1.327 . S
C656 C675 1.429 . S
C656 H680 0.950 . S
C657 C674 1.574 . S
C657 C676 1.368 1_554 S
C657 H681 0.949 . S
H658 C662 0.949 . S
C659 C660 1.349 . S
C659 C661 1.327 . S
C659 H682 0.950 . S
C660 C659 1.349 . S
C660 C672 1.349 . S
C661 C659 1.327 . S
C661 C677 1.429 . S
C661 H683 0.950 . S
C662 H658 0.949 . S
C662 C670 1.574 . S
C662 C678 1.368 1_556 S
H663 C671 0.957 . S
H664 C669 0.950 1_554 S
H665 C670 0.949 . S
H666 C672 0.950 . S
H667 C673 0.950 1_556 S
H668 C674 0.949 . S
C669 H664 0.950 1_556 S
C669 C671 1.327 . S
C669 C675 1.429 . S
C670 C662 1.574 . S
C670 H665 0.949 . S
C670 C676 1.368 . S
C671 C655 1.349 . S
C671 H663 0.957 . S
C671 C669 1.327 . S
C672 C660 1.349 . S
C672 H666 0.950 . S
C672 C673 1.327 . S
C673 H667 0.950 1_554 S
C673 C672 1.327 . S
C673 C677 1.429 . S
C674 C657 1.574 . S
C674 H668 0.949 . S
C674 C678 1.368 . S
C675 C656 1.429 . S
C675 C669 1.429 . S
C675 C676 1.523 . S
C676 C657 1.368 1_556 S
C676 C670 1.368 . S
C676 C675 1.523 . S
C677 C661 1.429 . S
C677 C673 1.429 . S
C677 C678 1.523 . S
C678 C662 1.368 1_554 S
C678 C674 1.368 . S
C678 C677 1.523 . S
H679 C654 0.950 . S
H680 C656 0.950 . S
H681 C657 0.949 . S
H682 C659 0.950 . S
H683 C661 0.950 . S
C684 C685 1.349 . S
C684 C686 1.327 . S
C684 H709 0.950 . S
C685 C684 1.349 . S
C685 C701 1.349 . S
C686 C684 1.327 . S
C686 C705 1.429 . S
C686 H710 0.950 . S
C687 C704 1.574 . S
C687 C706 1.368 . S
C687 H711 0.949 . S
H688 C692 0.949 . S
C689 C690 1.349 . S
C689 C691 1.327 . S
C689 H712 0.950 . S
C690 C689 1.349 . S
C690 C702 1.349 . S
C691 C689 1.327 . S
C691 C707 1.429 . S
C691 H713 0.950 . S
C692 H688 0.949 . S
C692 C700 1.574 . S
C692 C708 1.368 . S
H693 C701 0.950 . S
H694 C699 0.950 . S
H695 C700 0.949 . S
H696 C702 0.950 . S
H697 C703 0.950 . S
H698 C704 0.949 . S
C699 H694 0.950 . S
C699 C701 1.327 . S
C699 C705 1.429 . S
C700 C692 1.574 . S
C700 H695 0.949 . S
C700 C706 1.368 . S
C701 C685 1.349 . S
C701 H693 0.950 . S
C701 C699 1.327 . S
C702 C690 1.349 . S
C702 H696 0.950 . S
C702 C703 1.327 . S
C703 H697 0.950 . S
C703 C702 1.327 . S
C703 C707 1.429 . S
C704 C687 1.574 . S
C704 H698 0.949 . S
C704 C708 1.368 . S
C705 C686 1.429 . S
C705 C699 1.429 . S
C705 C706 1.523 . S
C706 C687 1.368 . S
C706 C700 1.368 . S
C706 C705 1.523 . S
C707 C691 1.429 . S
C707 C703 1.429 . S
C707 C708 1.523 . S
C708 C692 1.368 . S
C708 C704 1.368 . S
C708 C707 1.523 . S
H709 C684 0.950 . S
H710 C686 0.950 . S
H711 C687 0.949 . S
H712 C689 0.950 . S
H713 C691 0.950 . S
C714 C715 1.349 . S
C714 C716 1.327 . S
C714 H739 0.950 . S
C715 C714 1.349 . S
C715 C731 1.349 . S
C716 C714 1.327 . S
C716 C735 1.429 . S
C716 H740 0.950 . S
C717 C734 1.574 . S
C717 C736 1.368 . S
C717 H741 0.949 . S
H718 C722 0.949 . S
C719 C720 1.349 . S
C719 C721 1.327 . S
C719 H742 0.950 . S
C720 C719 1.349 . S
C720 C732 1.349 . S
C721 C719 1.327 . S
C721 C737 1.429 . S
C721 H743 0.950 . S
C722 H718 0.949 . S
C722 C730 1.574 . S
C722 C738 1.368 . S
H723 C731 0.950 . S
H724 C729 0.950 . S
H725 C730 0.949 . S
H726 C732 0.950 . S
H727 C733 0.950 . S
H728 C734 0.949 . S
C729 H724 0.950 . S
C729 C731 1.327 . S
C729 C735 1.429 . S
C730 C722 1.574 . S
C730 H725 0.949 . S
C730 C736 1.368 . S
C731 C715 1.349 . S
C731 H723 0.950 . S
C731 C729 1.327 . S
C732 C720 1.349 . S
C732 H726 0.950 . S
C732 C733 1.327 . S
C733 H727 0.950 . S
C733 C732 1.327 . S
C733 C737 1.429 . S
C734 C717 1.574 . S
C734 H728 0.949 . S
C734 C738 1.368 . S
C735 C716 1.429 . S
C735 C729 1.429 . S
C735 C736 1.523 . S
C736 C717 1.368 . S
C736 C730 1.368 . S
C736 C735 1.523 . S
C737 C721 1.429 . S
C737 C733 1.429 . S
C737 C738 1.523 . S
C738 C722 1.368 . S
C738 C734 1.368 . S
C738 C737 1.523 . S
H739 C714 0.950 . S
H740 C716 0.950 . S
H741 C717 0.949 . S
H742 C719 0.950 . S
H743 C721 0.950 . S
C744 C745 1.349 . S
C744 C746 1.327 . S
C744 H769 0.950 . S
C745 C744 1.349 . S
C745 C761 1.349 . S
C746 C744 1.327 . S
C746 C765 1.429 . S
C746 H770 0.950 . S
C747 C764 1.574 . S
C747 C766 1.368 . S
C747 H771 0.949 . S
H748 C752 0.949 . S
C749 C750 1.349 . S
C749 C751 1.327 . S
C749 H772 0.950 . S
C750 C749 1.349 . S
C750 C762 1.349 . S
C751 C749 1.327 . S
C751 C767 1.429 . S
C751 H773 0.950 . S
C752 H748 0.949 . S
C752 C760 1.574 . S
C752 C768 1.368 . S
H753 C761 0.950 . S
H754 C759 0.950 . S
H755 C760 0.949 . S
H756 C762 0.950 . S
H757 C763 0.950 . S
H758 C764 0.949 . S
C759 H754 0.950 . S
C759 C761 1.327 . S
C759 C765 1.429 . S
C760 C752 1.574 . S
C760 H755 0.949 . S
C760 C766 1.368 . S
C761 C745 1.349 . S
C761 H753 0.950 . S
C761 C759 1.327 . S
C762 C750 1.349 . S
C762 H756 0.950 . S
C762 C763 1.327 . S
C763 H757 0.950 . S
C763 C762 1.327 . S
C763 C767 1.429 . S
C764 C747 1.574 . S
C764 H758 0.949 . S
C764 C768 1.368 . S
C765 C746 1.429 . S
C765 C759 1.429 . S
C765 C766 1.523 . S
C766 C747 1.368 . S
C766 C760 1.368 . S
C766 C765 1.523 . S
C767 C751 1.429 . S
C767 C763 1.429 . S
C767 C768 1.523 . S
C768 C752 1.368 . S
C768 C764 1.368 . S
C768 C767 1.523 . S
H769 C744 0.950 . S
H770 C746 0.950 . S
H771 C747 0.949 . S
H772 C749 0.950 . S
H773 C751 0.950 . S
C774 C775 1.349 . S
C774 C776 1.327 . S
C774 H799 0.950 . S
C775 C774 1.349 . S
C775 C791 1.349 . S
C776 C774 1.327 . S
C776 C795 1.429 . S
C776 H800 0.950 . S
C777 C794 1.574 . S
C777 C796 1.368 . S
C777 H801 0.949 . S
H778 C782 0.949 . S
C779 C780 1.349 . S
C779 C781 1.327 . S
C779 H802 0.950 . S
C780 C779 1.349 . S
C780 C792 1.349 . S
C781 C779 1.327 . S
C781 C797 1.429 . S
C781 H803 0.950 . S
C782 H778 0.949 . S
C782 C790 1.574 . S
C782 C798 1.368 . S
H783 C791 0.950 . S
H784 C789 0.950 . S
H785 C790 0.949 . S
H786 C792 0.950 . S
H787 C793 0.950 . S
H788 C794 0.949 . S
C789 H784 0.950 . S
C789 C791 1.327 . S
C789 C795 1.429 . S
C790 C782 1.574 . S
C790 H785 0.949 . S
C790 C796 1.368 . S
C791 C775 1.349 . S
C791 H783 0.950 . S
C791 C789 1.327 . S
C792 C780 1.349 . S
C792 H786 0.950 . S
C792 C793 1.327 . S
C793 H787 0.950 . S
C793 C792 1.327 . S
C793 C797 1.429 . S
C794 C777 1.574 . S
C794 H788 0.949 . S
C794 C798 1.368 . S
C795 C776 1.429 . S
C795 C789 1.429 . S
C795 C796 1.523 . S
C796 C777 1.368 . S
C796 C790 1.368 . S
C796 C795 1.523 . S
C797 C781 1.429 . S
C797 C793 1.429 . S
C797 C798 1.523 . S
C798 C782 1.368 . S
C798 C794 1.368 . S
C798 C797 1.523 . S
H799 C774 0.950 . S
H800 C776 0.950 . S
H801 C777 0.949 . S
H802 C779 0.950 . S
H803 C781 0.950 . S
C804 C805 1.349 . S
C804 C806 1.327 . S
C804 H829 0.950 . S
C805 C804 1.349 . S
C805 C821 1.349 . S
C806 C804 1.327 . S
C806 C825 1.429 . S
C806 H830 0.950 . S
C807 C824 1.574 . S
C807 C826 1.368 . S
C807 H831 0.949 . S
H808 C812 0.949 . S
C809 C810 1.349 . S
C809 C811 1.327 . S
C809 H832 0.950 . S
C810 C809 1.349 . S
C810 C822 1.349 . S
C811 C809 1.327 . S
C811 C827 1.429 . S
C811 H833 0.950 . S
C812 H808 0.949 . S
C812 C820 1.574 . S
C812 C828 1.368 . S
H813 C821 0.950 . S
H814 C819 0.950 . S
H815 C820 0.949 . S
H816 C822 0.950 . S
H817 C823 0.950 . S
H818 C824 0.949 . S
C819 H814 0.950 . S
C819 C821 1.327 . S
C819 C825 1.429 . S
C820 C812 1.574 . S
C820 H815 0.949 . S
C820 C826 1.368 . S
C821 C805 1.349 . S
C821 H813 0.950 . S
C821 C819 1.327 . S
C822 C810 1.349 . S
C822 H816 0.950 . S
C822 C823 1.327 . S
C823 H817 0.950 . S
C823 C822 1.327 . S
C823 C827 1.429 . S
C824 C807 1.574 . S
C824 H818 0.949 . S
C824 C828 1.368 . S
C825 C806 1.429 . S
C825 C819 1.429 . S
C825 C826 1.523 . S
C826 C807 1.368 . S
C826 C820 1.368 . S
C826 C825 1.523 . S
C827 C811 1.429 . S
C827 C823 1.429 . S
C827 C828 1.523 . S
C828 C812 1.368 . S
C828 C824 1.368 . S
C828 C827 1.523 . S
H829 C804 0.950 . S
H830 C806 0.950 . S
H831 C807 0.949 . S
H832 C809 0.950 . S
H833 C811 0.950 . S
C834 C835 1.349 . S
C834 C836 1.327 . S
C834 H859 0.950 . S
C835 C834 1.349 . S
C835 C851 1.349 . S
C836 C834 1.327 . S
C836 C855 1.429 . S
C836 H860 0.950 . S
C837 C854 1.574 . S
C837 C856 1.368 . S
C837 H861 0.949 . S
H838 C842 0.949 . S
C839 C840 1.349 . S
C839 C841 1.327 . S
C839 H862 0.950 . S
C840 C839 1.349 . S
C840 C852 1.349 . S
C841 C839 1.327 . S
C841 C857 1.429 . S
C841 H863 0.950 . S
C842 H838 0.949 . S
C842 C850 1.574 . S
C842 C858 1.368 . S
H843 C851 0.950 . S
H844 C849 0.950 . S
H845 C850 0.949 . S
H846 C852 0.950 . S
H847 C853 0.950 . S
H848 C854 0.949 . S
C849 H844 0.950 . S
C849 C851 1.327 . S
C849 C855 1.429 . S
C850 C842 1.574 . S
C850 H845 0.949 . S
C850 C856 1.368 . S
C851 C835 1.349 . S
C851 H843 0.950 . S
C851 C849 1.327 . S
C852 C840 1.349 . S
C852 H846 0.950 . S
C852 C853 1.327 . S
C853 H847 0.950 . S
C853 C852 1.327 . S
C853 C857 1.429 . S
C854 C837 1.574 . S
C854 H848 0.949 . S
C854 C858 1.368 . S
C855 C836 1.429 . S
C855 C849 1.429 . S
C855 C856 1.523 . S
C856 C837 1.368 . S
C856 C850 1.368 . S
C856 C855 1.523 . S
C857 C841 1.429 . S
C857 C853 1.429 . S
C857 C858 1.523 . S
C858 C842 1.368 . S
C858 C854 1.368 . S
C858 C857 1.523 . S
H859 C834 0.950 . S
H860 C836 0.950 . S
H861 C837 0.949 . S
H862 C839 0.950 . S
H863 C841 0.950 . S
C265 C28 0.560 . S
C270 C160 0.560 . S
C295 C193 0.561 . S
C300 C61 0.561 . S
C325 C226 0.560 . S
C330 C94 0.560 . S
C355 C127 0.561 . S
C360 C259 0.561 . S
C385 N47 0.645 . S
C390 N14 0.645 . S
C415 N80 0.645 . S
C420 N113 0.645 . S
C445 N146 0.645 . S
C450 N179 0.645 . S
C475 N245 0.645 . S
C480 N212 0.645 . S
C505 C8 1.764 . S
C510 N170 1.771 . S
C535 N137 1.771 . S
C540 C41 1.763 . S
C565 N236 1.771 . S
C570 C74 1.764 . S
C595 N203 1.771 . S
C600 C107 1.763 . S
C625 N38 1.771 . S
C630 C140 1.764 . S
C655 C173 1.763 . S
C660 N5 1.771 . S
C685 C206 1.764 . S
C690 N104 1.771 . S
C715 N71 1.771 . S
C720 C239 1.763 . S
C745 C83 1.419 . S
C750 C17 1.419 . S
C775 C50 1.419 . S
C780 C116 1.419 . S
C805 C215 1.419 . S
C810 C149 1.419 . S
C835 C248 1.419 . S
C840 C182 1.419 . S
