# Generated by pormake.
# Topology wjk, (5)-cn, num edge types: 1
# Building blocks:
#     Node 0, Type 0, BuildingBlock: BEQFEK_clean_sbu_0, # of connection points: 5
#     Node 1, Type 0, BuildingBlock: BEQFEK_clean_sbu_0, # of connection points: 5
#     Node 2, Type 0, BuildingBlock: BEQFEK_clean_sbu_0, # of connection points: 5
#     Node 3, Type 0, BuildingBlock: BEQFEK_clean_sbu_0, # of connection points: 5
#     Node 4, Type 0, BuildingBlock: BEQFEK_clean_sbu_0, # of connection points: 5
#     Node 5, Type 0, BuildingBlock: BEQFEK_clean_sbu_0, # of connection points: 5
#     Node 6, Type 0, BuildingBlock: BEQFEK_clean_sbu_0, # of connection points: 5
#     Node 7, Type 0, BuildingBlock: BEQFEK_clean_sbu_0, # of connection points: 5
#     Node 8, Type 0, BuildingBlock: BEQFEK_clean_sbu_0, # of connection points: 5
#     Node 9, Type 0, BuildingBlock: BEQFEK_clean_sbu_0, # of connection points: 5
#     Node 10, Type 0, BuildingBlock: BEQFEK_clean_sbu_0, # of connection points: 5
#     Node 11, Type 0, BuildingBlock: BEQFEK_clean_sbu_0, # of connection points: 5
#     Edge 12, Type (0, 0), BuildingBlock: KIFKEQ_clean_linker_1, # of connection points: 2
#     Edge 13, Type (0, 0), BuildingBlock: KIFKEQ_clean_linker_1, # of connection points: 2
#     Edge 14, Type (0, 0), BuildingBlock: KIFKEQ_clean_linker_1, # of connection points: 2
#     Edge 15, Type (0, 0), BuildingBlock: KIFKEQ_clean_linker_1, # of connection points: 2
#     Edge 16, Type (0, 0), BuildingBlock: KIFKEQ_clean_linker_1, # of connection points: 2
#     Edge 17, Type (0, 0), BuildingBlock: KIFKEQ_clean_linker_1, # of connection points: 2
#     Edge 18, Type (0, 0), BuildingBlock: KIFKEQ_clean_linker_1, # of connection points: 2
#     Edge 19, Type (0, 0), BuildingBlock: KIFKEQ_clean_linker_1, # of connection points: 2
#     Edge 20, Type (0, 0), BuildingBlock: KIFKEQ_clean_linker_1, # of connection points: 2
#     Edge 21, Type (0, 0), BuildingBlock: KIFKEQ_clean_linker_1, # of connection points: 2
#     Edge 22, Type (0, 0), BuildingBlock: KIFKEQ_clean_linker_1, # of connection points: 2
#     Edge 23, Type (0, 0), BuildingBlock: KIFKEQ_clean_linker_1, # of connection points: 2
#     Edge 24, Type (0, 0), BuildingBlock: KIFKEQ_clean_linker_1, # of connection points: 2
#     Edge 25, Type (0, 0), BuildingBlock: KIFKEQ_clean_linker_1, # of connection points: 2
#     Edge 26, Type (0, 0), BuildingBlock: KIFKEQ_clean_linker_1, # of connection points: 2
#     Edge 27, Type (0, 0), BuildingBlock: KIFKEQ_clean_linker_1, # of connection points: 2
#     Edge 28, Type (0, 0), BuildingBlock: KIFKEQ_clean_linker_1, # of connection points: 2
#     Edge 29, Type (0, 0), BuildingBlock: KIFKEQ_clean_linker_1, # of connection points: 2
#     Edge 30, Type (0, 0), BuildingBlock: KIFKEQ_clean_linker_1, # of connection points: 2
#     Edge 31, Type (0, 0), BuildingBlock: KIFKEQ_clean_linker_1, # of connection points: 2
#     Edge 32, Type (0, 0), BuildingBlock: KIFKEQ_clean_linker_1, # of connection points: 2
#     Edge 33, Type (0, 0), BuildingBlock: KIFKEQ_clean_linker_1, # of connection points: 2
#     Edge 34, Type (0, 0), BuildingBlock: KIFKEQ_clean_linker_1, # of connection points: 2
#     Edge 35, Type (0, 0), BuildingBlock: KIFKEQ_clean_linker_1, # of connection points: 2
#     Edge 36, Type (0, 0), BuildingBlock: KIFKEQ_clean_linker_1, # of connection points: 2
#     Edge 37, Type (0, 0), BuildingBlock: KIFKEQ_clean_linker_1, # of connection points: 2
#     Edge 38, Type (0, 0), BuildingBlock: KIFKEQ_clean_linker_1, # of connection points: 2
#     Edge 39, Type (0, 0), BuildingBlock: KIFKEQ_clean_linker_1, # of connection points: 2
#     Edge 40, Type (0, 0), BuildingBlock: KIFKEQ_clean_linker_1, # of connection points: 2
#     Edge 41, Type (0, 0), BuildingBlock: KIFKEQ_clean_linker_1, # of connection points: 2
# Relax obj value: 0.399
# Max RMSD: 0.213
# Mean RMSD: 0.213
data_MOF--net-wjk--node1-BEQFEK_clean_sbu_0--edge1-KIFKEQ_clean_linker_1
_symmetry_space_group_name_H-M    P1
_symmetry_Int_Tables_number       1
_symmetry_cell_setting            triclinic
loop_
_symmetry_equiv_pos_as_xyz
'x, y, z'
_cell_length_a     35.517668
_cell_length_b     35.503182
_cell_length_c     75.494796
_cell_angle_alpha  90.038565
_cell_angle_beta   89.940947
_cell_angle_gamma 119.95856
loop_
_atom_site_label
_atom_site_type_symbol
_atom_site_fract_x
_atom_site_fract_y
_atom_site_fract_z
_atom_type_partial_charge
Co0 Co 0.14764 0.22104 0.26305 0.0
Co1 Co 0.22312 0.3034 0.24537 0.0
C2 C 0.20915 0.21605 0.23642 0.0
O3 O 0.17694 0.19868 0.24701 0.0
O4 O 0.23112 0.2571 0.23448 0.0
C5 C 0.11883 0.1456 0.28328 0.0
O6 O 0.15795 0.15248 0.27964 0.0
C7 C 0.31181 0.36824 0.2339 0.0
C8 C 0.31459 0.42991 0.24092 0.0
C9 C 0.34011 0.41289 0.23513 0.0
N10 N 0.27205 0.35933 0.23934 0.0
N11 N 0.27381 0.39652 0.24315 0.0
C12 C 0.32165 0.33452 0.22702 0.0
H13 H 0.29559 0.31263 0.21781 0.0
H14 H 0.32263 0.31482 0.23823 0.0
H15 H 0.35282 0.34927 0.21967 0.0
C16 C 0.19287 0.26572 0.29597 0.0
N17 N 0.18758 0.26515 0.27824 0.0
N18 N 0.22208 0.29789 0.27104 0.0
C19 C 0.2517 0.31881 0.28404 0.0
C20 C 0.23403 0.29925 0.30033 0.0
C21 C 0.16086 0.23204 0.3084 0.0
H22 H 0.12728 0.2194 0.30351 0.0
H23 H 0.16799 0.20509 0.30956 0.0
H24 H 0.16305 0.2455 0.32182 0.0
O25 O 0.11417 0.23975 0.24838 0.0
O26 O 0.167 0.2961 0.23407 0.0
H27 H 0.29602 0.38401 0.2762 0.0
H28 H 0.31698 0.36375 0.29309 0.0
C29 C 0.29707 0.35497 0.28086 0.0
H30 H 0.3125 0.34529 0.2704 0.0
H31 H 0.24772 0.39891 0.24819 0.0
O32 O 0.10687 0.17134 0.27727 0.0
C33 C 0.12649 0.26933 0.23668 0.0
Co34 Co 0.93458 0.14829 0.59631 0.0
Co35 Co 0.92311 0.22098 0.5785 0.0
C36 C 0.9982 0.20922 0.56915 0.0
O37 O 0.98557 0.17816 0.5802 0.0
O38 O 0.97711 0.22918 0.56701 0.0
C39 C 0.9827 0.12103 0.61646 0.0
O40 O 0.0147 0.15984 0.61227 0.0
C41 C 0.94646 0.30978 0.56753 0.0
C42 C 0.88589 0.31074 0.57296 0.0
C43 C 0.92901 0.33721 0.56814 0.0
N44 N 0.91551 0.26947 0.57234 0.0
N45 N 0.87916 0.27017 0.57524 0.0
C46 C 0.99135 0.32105 0.56192 0.0
H47 H 0.98919 0.29702 0.55201 0.0
H48 H 0.00963 0.31948 0.57354 0.0
H49 H 0.00922 0.35368 0.55574 0.0
C50 C 0.93651 0.19451 0.62893 0.0
N51 N 0.92968 0.18793 0.61135 0.0
N52 N 0.92916 0.22135 0.60414 0.0
C53 C 0.93794 0.25135 0.61705 0.0
C54 C 0.94295 0.23518 0.63318 0.0
C55 C 0.93906 0.16353 0.64164 0.0
H56 H 0.91711 0.12948 0.63745 0.0
H57 H 0.97299 0.17008 0.64226 0.0
H58 H 0.92973 0.16814 0.65517 0.0
O59 O 0.88268 0.11372 0.58174 0.0
O60 O 0.87364 0.16387 0.56796 0.0
H61 H 0.91679 0.2951 0.60855 0.0
H62 H 0.95675 0.31628 0.62604 0.0
C63 C 0.94664 0.29651 0.61374 0.0
H64 H 0.97255 0.31233 0.60362 0.0
H65 H 0.85032 0.24344 0.57964 0.0
O66 O 0.94467 0.10863 0.61075 0.0
C67 C 0.86259 0.12391 0.57051 0.0
Co68 Co 0.78158 0.93022 0.9302 0.0
Co69 Co 0.6986 0.9206 0.91224 0.0
C70 C 0.78564 0.99543 0.90344 0.0
O71 O 0.80351 0.98165 0.91425 0.0
O72 O 0.74464 0.97521 0.90132 0.0
C73 C 0.85703 0.97769 0.95042 0.0
O74 O 0.85024 0.00986 0.94649 0.0
C75 C 0.63463 0.94672 0.90366 0.0
C76 C 0.57521 0.88419 0.89824 0.0
C77 C 0.59085 0.92861 0.89938 0.0
N78 N 0.64416 0.91458 0.90496 0.0
N79 N 0.60858 0.8773 0.90154 0.0
C80 C 0.66616 0.99312 0.90821 0.0
H81 H 0.69228 0.99524 0.91691 0.0
H82 H 0.64946 0.00848 0.91496 0.0
H83 H 0.68133 0.01136 0.89585 0.0
C84 C 0.73562 0.92938 0.96292 0.0
N85 N 0.73676 0.92522 0.94519 0.0
N86 N 0.70236 0.92386 0.93802 0.0
C87 C 0.67901 0.9287 0.95121 0.0
C88 C 0.69954 0.93252 0.96737 0.0
C89 C 0.76993 0.93332 0.97552 0.0
H90 H 0.78293 0.91216 0.97124 0.0
H91 H 0.79657 0.96762 0.97594 0.0
H92 H 0.75675 0.92388 0.98913 0.0
O93 O 0.76407 0.87807 0.9155 0.0
O94 O 0.70686 0.87235 0.90113 0.0
H95 H 0.62045 0.92502 0.96125 0.0
H96 H 0.64763 0.96437 0.94403 0.0
C97 C 0.63867 0.9313 0.94862 0.0
H98 H 0.61756 0.90732 0.93856 0.0
H99 H 0.6068 0.84707 0.90192 0.0
O100 O 0.83118 0.93977 0.94465 0.0
C101 C 0.73451 0.85978 0.90385 0.0
Co102 Co 0.85299 0.78757 0.26338 0.0
Co103 Co 0.78265 0.7021 0.24576 0.0
C104 C 0.79219 0.78772 0.23566 0.0
O105 O 0.82254 0.80692 0.24694 0.0
O106 O 0.77338 0.74669 0.23355 0.0
C107 C 0.8791 0.86425 0.28268 0.0
O108 O 0.8404 0.85709 0.2781 0.0
C109 C 0.69403 0.63539 0.23614 0.0
C110 C 0.69766 0.57512 0.23708 0.0
C111 C 0.66901 0.59051 0.23469 0.0
N112 N 0.73552 0.64603 0.23924 0.0
N113 N 0.73755 0.60986 0.23952 0.0
C114 C 0.67804 0.66722 0.2367 0.0
H115 H 0.69788 0.69404 0.24603 0.0
H116 H 0.64343 0.65127 0.24078 0.0
H117 H 0.68125 0.68137 0.2233 0.0
C118 C 0.80653 0.74369 0.29605 0.0
N119 N 0.81355 0.74319 0.27852 0.0
N120 N 0.78155 0.70783 0.27143 0.0
C121 C 0.75239 0.68533 0.28446 0.0
C122 C 0.76726 0.70769 0.30044 0.0
C123 C 0.83576 0.77894 0.30857 0.0
H124 H 0.87024 0.79191 0.30485 0.0
H125 H 0.82782 0.80542 0.30825 0.0
H126 H 0.83089 0.76646 0.32236 0.0
O127 O 0.8889 0.77092 0.24915 0.0
O128 O 0.8402 0.71052 0.23565 0.0
H129 H 0.71373 0.62135 0.27379 0.0
H130 H 0.6934 0.63046 0.29437 0.0
C131 C 0.70934 0.64533 0.28158 0.0
H132 H 0.68791 0.65389 0.27405 0.0
H133 H 0.76579 0.60873 0.24221 0.0
O134 O 0.89174 0.83828 0.2776 0.0
C135 C 0.87975 0.74033 0.23816 0.0
Co136 Co 0.07007 0.85404 0.59725 0.0
Co137 Co 0.08168 0.78126 0.57956 0.0
C138 C 0.0059 0.79198 0.5705 0.0
O139 O 0.01866 0.82337 0.58141 0.0
O140 O 0.02724 0.77228 0.5683 0.0
C141 C 0.02189 0.88131 0.61744 0.0
O142 O 0.98997 0.84231 0.61344 0.0
C143 C 0.05911 0.69273 0.56838 0.0
C144 C 0.11928 0.69165 0.57453 0.0
C145 C 0.07655 0.66531 0.56921 0.0
N146 N 0.08966 0.7329 0.57353 0.0
N147 N 0.12579 0.73212 0.57687 0.0
C148 C 0.01468 0.6816 0.56221 0.0
H149 H 0.01757 0.7062 0.55245 0.0
H150 H 0.99532 0.68226 0.57362 0.0
H151 H 0.99752 0.64936 0.55566 0.0
C152 C 0.06871 0.80853 0.62993 0.0
N153 N 0.07565 0.81496 0.61235 0.0
N154 N 0.07584 0.78131 0.6052 0.0
C155 C 0.06656 0.75125 0.61811 0.0
C156 C 0.06165 0.76765 0.63423 0.0
C157 C 0.06651 0.83985 0.64259 0.0
H158 H 0.08846 0.87379 0.63827 0.0
H159 H 0.03264 0.83343 0.64334 0.0
H160 H 0.07607 0.83545 0.65609 0.0
O161 O 0.12159 0.88856 0.58246 0.0
O162 O 0.13086 0.83837 0.56881 0.0
H163 H 0.0867 0.70645 0.60999 0.0
H164 H 0.04542 0.6857 0.62698 0.0
C165 C 0.05687 0.70577 0.61478 0.0
H166 H 0.03169 0.69075 0.60435 0.0
H167 H 0.15428 0.75872 0.5816 0.0
O168 O 0.05987 0.89377 0.61163 0.0
C169 C 0.14171 0.87834 0.57123 0.0
Co170 Co 0.21587 0.06773 0.93058 0.0
Co171 Co 0.30123 0.08255 0.91294 0.0
C172 C 0.21524 0.006 0.90324 0.0
O173 O 0.19602 0.01719 0.9145 0.0
O174 O 0.25621 0.02833 0.90109 0.0
C175 C 0.13884 0.01832 0.94988 0.0
O176 O 0.14555 0.98633 0.94549 0.0
C177 C 0.366 0.05759 0.90455 0.0
C178 C 0.42512 0.12029 0.899 0.0
C179 C 0.40976 0.07592 0.90018 0.0
N180 N 0.35619 0.08953 0.90583 0.0
N181 N 0.39159 0.12693 0.90236 0.0
C182 C 0.33467 0.01116 0.90913 0.0
H183 H 0.30852 0.00896 0.91788 0.0
H184 H 0.35156 0.99598 0.91585 0.0
H185 H 0.31949 0.99283 0.8968 0.0
C186 C 0.26132 0.06894 0.96346 0.0
N187 N 0.26076 0.07382 0.94576 0.0
N188 N 0.29633 0.0775 0.93871 0.0
C189 C 0.32009 0.07362 0.95195 0.0
C190 C 0.29855 0.06792 0.96806 0.0
C191 C 0.22482 0.06123 0.97564 0.0
H192 H 0.21115 0.08205 0.97177 0.0
H193 H 0.19914 0.02658 0.97486 0.0
H194 H 0.23552 0.06841 0.98961 0.0
O195 O 0.23236 0.11961 0.91589 0.0
O196 O 0.29292 0.13132 0.90248 0.0
H197 H 0.38246 0.09913 0.93951 0.0
H198 H 0.38024 0.08144 0.96216 0.0
C199 C 0.36217 0.07429 0.94947 0.0
H200 H 0.35556 0.04199 0.94477 0.0
H201 H 0.39311 0.15704 0.90268 0.0
O202 O 0.16525 0.0567 0.94473 0.0
C203 C 0.26291 0.14087 0.90487 0.0
Co204 Co 0.7863 0.84954 0.45916 0.0
Co205 Co 0.7011 0.77964 0.47714 0.0
C206 C 0.78698 0.78875 0.48669 0.0
O207 O 0.80608 0.81899 0.47535 0.0
O208 O 0.74605 0.77032 0.48901 0.0
C209 C 0.86274 0.87644 0.43944 0.0
O210 O 0.85648 0.83803 0.44402 0.0
C211 C 0.63498 0.69067 0.48664 0.0
C212 C 0.57457 0.69402 0.4865 0.0
C213 C 0.5902 0.66541 0.48835 0.0
N214 N 0.64534 0.73224 0.4839 0.0
N215 N 0.60909 0.7341 0.48411 0.0
C216 C 0.66692 0.6749 0.48545 0.0
H217 H 0.69328 0.69514 0.476 0.0
H218 H 0.65092 0.64041 0.48118 0.0
H219 H 0.68168 0.67775 0.49869 0.0
C220 C 0.74112 0.80334 0.42662 0.0
N221 N 0.74141 0.81022 0.4442 0.0
N222 N 0.70606 0.7785 0.45143 0.0
C223 C 0.68277 0.74964 0.43844 0.0
C224 C 0.7045 0.76452 0.42234 0.0
C225 C 0.77642 0.83195 0.41399 0.0
H226 H 0.78976 0.86658 0.41756 0.0
H227 H 0.80262 0.82364 0.41443 0.0
H228 H 0.76395 0.82689 0.4002 0.0
O229 O 0.77013 0.88555 0.4736 0.0
O230 O 0.70977 0.83734 0.48728 0.0
H231 H 0.61901 0.71205 0.44945 0.0
H232 H 0.62665 0.69172 0.42858 0.0
C233 C 0.6422 0.70708 0.44136 0.0
H234 H 0.65023 0.68485 0.44858 0.0
H235 H 0.60772 0.76236 0.48177 0.0
O236 O 0.83644 0.88847 0.44471 0.0
C237 C 0.73977 0.8768 0.48466 0.0
Co238 Co 0.93019 0.78299 0.7926 0.0
Co239 Co 0.92381 0.70136 0.81077 0.0
C240 C 0.99738 0.78898 0.81905 0.0
O241 O 0.98233 0.8061 0.80843 0.0
O242 O 0.97828 0.74799 0.82121 0.0
C243 C 0.9759 0.85734 0.77167 0.0
O244 O 0.00824 0.85062 0.7753 0.0
C245 C 0.94792 0.63671 0.82214 0.0
C246 C 0.88739 0.57494 0.81705 0.0
C247 C 0.93055 0.59184 0.82184 0.0
N248 N 0.91688 0.64579 0.8172 0.0
N249 N 0.88056 0.60862 0.81449 0.0
C250 C 0.99275 0.67057 0.82764 0.0
H251 H 0.99052 0.69323 0.8371 0.0
H252 H 0.01128 0.68945 0.81587 0.0
H253 H 0.01038 0.65614 0.83429 0.0
C254 C 0.93014 0.73679 0.76002 0.0
N255 N 0.92578 0.73823 0.77773 0.0
N256 N 0.92748 0.70564 0.78514 0.0
C257 C 0.93565 0.68394 0.77227 0.0
C258 C 0.93721 0.70284 0.75591 0.0
C259 C 0.93109 0.76928 0.74714 0.0
H260 H 0.90966 0.78171 0.7517 0.0
H261 H 0.9649 0.79659 0.74582 0.0
H262 H 0.92018 0.75444 0.73384 0.0
O263 O 0.87829 0.76477 0.80748 0.0
O264 O 0.87528 0.70898 0.82207 0.0
H265 H 0.91622 0.61951 0.78087 0.0
H266 H 0.95612 0.63903 0.76334 0.0
C267 C 0.94565 0.64837 0.77564 0.0
H268 H 0.97164 0.65914 0.78575 0.0
H269 H 0.85165 0.60631 0.81007 0.0
O270 O 0.93841 0.83185 0.77793 0.0
C271 C 0.86134 0.73555 0.81934 0.0
Co272 Co 0.14897 0.93411 0.12512 0.0
Co273 Co 0.22114 0.92252 0.14326 0.0
C274 C 0.20932 0.99756 0.15248 0.0
O275 O 0.17868 0.98512 0.14125 0.0
O276 O 0.22913 0.97638 0.15475 0.0
C277 C 0.12302 0.98296 0.10479 0.0
O278 O 0.16228 0.01435 0.1088 0.0
C279 C 0.30975 0.94589 0.15418 0.0
C280 C 0.30971 0.88426 0.15025 0.0
C281 C 0.33666 0.92784 0.15426 0.0
N282 N 0.26924 0.91476 0.14977 0.0
N283 N 0.26932 0.87781 0.14776 0.0
C284 C 0.32164 0.99154 0.15882 0.0
H285 H 0.29855 0.99079 0.16888 0.0
H286 H 0.31903 0.00827 0.14687 0.0
H287 H 0.35476 0.01017 0.16449 0.0
C288 C 0.19471 0.93362 0.09252 0.0
N289 N 0.18861 0.92864 0.1102 0.0
N290 N 0.22194 0.92836 0.1176 0.0
C291 C 0.25164 0.93584 0.10474 0.0
C292 C 0.23523 0.9392 0.08838 0.0
C293 C 0.16417 0.9372 0.07988 0.0
H294 H 0.13016 0.91684 0.08441 0.0
H295 H 0.17242 0.97166 0.07898 0.0
H296 H 0.16686 0.92645 0.0664 0.0
O297 O 0.11398 0.8823 0.13979 0.0
O298 O 0.16398 0.87321 0.15366 0.0
H299 H 0.29302 0.9126 0.11415 0.0
H300 H 0.31504 0.94944 0.09564 0.0
C301 C 0.296 0.94237 0.10808 0.0
H302 H 0.31353 0.96966 0.11749 0.0
H303 H 0.24227 0.84864 0.14386 0.0
O304 O 0.1098 0.94485 0.11063 0.0
C305 C 0.12409 0.86224 0.15109 0.0
Co306 Co 0.2179 0.14738 0.45804 0.0
Co307 Co 0.30228 0.21984 0.47585 0.0
C308 C 0.21556 0.20901 0.48492 0.0
O309 O 0.19703 0.17798 0.47386 0.0
O310 O 0.25654 0.22852 0.48716 0.0
C311 C 0.14183 0.11897 0.43803 0.0
O312 O 0.14824 0.15781 0.44193 0.0
C313 C 0.36779 0.30803 0.48764 0.0
C314 C 0.42915 0.31057 0.48029 0.0
C315 C 0.41245 0.33618 0.48633 0.0
N316 N 0.35855 0.26829 0.48199 0.0
N317 N 0.39557 0.26989 0.478 0.0
C318 C 0.33439 0.31797 0.49481 0.0
H319 H 0.31268 0.29183 0.50403 0.0
H320 H 0.3145 0.31922 0.48374 0.0
H321 H 0.34942 0.34905 0.50224 0.0
C322 C 0.26343 0.192 0.42524 0.0
N323 N 0.26281 0.18635 0.44293 0.0
N324 N 0.29663 0.2198 0.45015 0.0
C325 C 0.31847 0.24922 0.43716 0.0
C326 C 0.2983 0.23238 0.42089 0.0
C327 C 0.22861 0.16134 0.41286 0.0
H328 H 0.21542 0.12736 0.41735 0.0
H329 H 0.20225 0.16943 0.41241 0.0
H330 H 0.24105 0.16395 0.39921 0.0
O331 O 0.23478 0.11288 0.47292 0.0
O332 O 0.29432 0.16271 0.48656 0.0
H333 H 0.38447 0.29098 0.44469 0.0
H334 H 0.36536 0.31394 0.42817 0.0
C335 C 0.35618 0.29375 0.44033 0.0
H336 H 0.34798 0.30993 0.451 0.0
H337 H 0.39771 0.24382 0.47276 0.0
O338 O 0.16795 0.10725 0.4438 0.0
C339 C 0.26504 0.12285 0.48413 0.0
Co340 Co 0.06661 0.21413 0.79184 0.0
Co341 Co 0.07962 0.29857 0.81004 0.0
C342 C 0.00378 0.2121 0.81924 0.0
O343 O 0.01576 0.19343 0.808 0.0
O344 O 0.02549 0.25307 0.82151 0.0
C345 C 0.01736 0.13904 0.7716 0.0
O346 O 0.9859 0.14666 0.77586 0.0
C347 C 0.05776 0.36463 0.82158 0.0
C348 C 0.119 0.42574 0.8165 0.0
C349 C 0.07594 0.40958 0.82131 0.0
N350 N 0.08824 0.35477 0.81657 0.0
N351 N 0.12499 0.39153 0.81389 0.0
C352 C 0.01264 0.33136 0.82705 0.0
H353 H 0.01431 0.30892 0.83679 0.0
H354 H 0.99428 0.3121 0.81532 0.0
H355 H 0.99513 0.34633 0.83339 0.0
C356 C 0.06666 0.26037 0.75938 0.0
N357 N 0.07223 0.25934 0.77701 0.0
N358 N 0.07368 0.29355 0.78443 0.0
C359 C 0.06675 0.31626 0.77162 0.0
C360 C 0.06238 0.296 0.75532 0.0
C361 C 0.06241 0.22636 0.74652 0.0
H362 H 0.08337 0.21296 0.75055 0.0
H363 H 0.02803 0.19991 0.74604 0.0
H364 H 0.07182 0.24013 0.73298 0.0
O365 O 0.11851 0.23058 0.80645 0.0
O366 O 0.12858 0.29015 0.82027 0.0
H367 H 0.0911 0.38166 0.78021 0.0
H368 H 0.05123 0.36484 0.76275 0.0
C369 C 0.06046 0.35424 0.77502 0.0
H370 H 0.03478 0.34537 0.78516 0.0
H371 H 0.15362 0.39325 0.80942 0.0
O372 O 0.05561 0.16422 0.77721 0.0
C373 C 0.13904 0.26083 0.81767 0.0
Co374 Co 0.85636 0.07361 0.12553 0.0
Co375 Co 0.78056 0.08027 0.143 0.0
C376 C 0.79431 0.00702 0.15208 0.0
O377 O 0.82691 0.02213 0.14167 0.0
O378 O 0.77212 0.02593 0.15391 0.0
C379 C 0.88484 0.02646 0.10554 0.0
O380 O 0.84583 0.99444 0.10945 0.0
C381 C 0.69207 0.05744 0.15441 0.0
C382 C 0.69007 0.11664 0.14719 0.0
C383 C 0.6643 0.0744 0.15321 0.0
N384 N 0.73188 0.08776 0.14881 0.0
N385 N 0.73057 0.12332 0.14483 0.0
C386 C 0.68165 0.01378 0.16134 0.0
H387 H 0.70742 0.01772 0.17067 0.0
H388 H 0.68079 0.99298 0.15018 0.0
H389 H 0.65024 0.99758 0.16853 0.0
C390 C 0.80991 0.06962 0.09273 0.0
N391 N 0.81617 0.077 0.11029 0.0
N392 N 0.78154 0.07518 0.11742 0.0
C393 C 0.75113 0.06417 0.10453 0.0
C394 C 0.7682 0.06013 0.08843 0.0
C395 C 0.84239 0.06959 0.08009 0.0
H396 H 0.87594 0.0925 0.08457 0.0
H397 H 0.83761 0.03633 0.07912 0.0
H398 H 0.83765 0.07918 0.06664 0.0
O399 O 0.88977 0.12612 0.14002 0.0
O400 O 0.83664 0.12915 0.15432 0.0
H401 H 0.70347 0.08091 0.11215 0.0
H402 H 0.68449 0.03787 0.09595 0.0
C403 C 0.70487 0.05172 0.10795 0.0
H404 H 0.69166 0.02759 0.11885 0.0
H405 H 0.75681 0.15147 0.13966 0.0
O406 O 0.89698 0.06443 0.11128 0.0
C407 C 0.87722 0.14321 0.15172 0.0
H408 H 0.61638 0.52204 0.25554 0.0
H409 H 0.61396 0.5988 0.21182 0.0
H410 H 0.53743 0.47974 0.25536 0.0
H411 H 0.53476 0.55495 0.21077 0.0
H412 H 0.39127 0.4973 0.22494 0.0
H413 H 0.47038 0.54016 0.22459 0.0
H414 H 0.47683 0.42707 0.24142 0.0
H415 H 0.39848 0.38612 0.24349 0.0
C416 C 0.59877 0.5293 0.24568 0.0
C417 C 0.62111 0.56371 0.23375 0.0
C418 C 0.55339 0.50487 0.24546 0.0
C419 C 0.52916 0.51352 0.23298 0.0
C420 C 0.55191 0.54766 0.22081 0.0
C421 C 0.59735 0.57268 0.22129 0.0
C422 C 0.40973 0.48166 0.22848 0.0
C423 C 0.38831 0.43773 0.23358 0.0
C424 C 0.45521 0.50614 0.22814 0.0
C425 C 0.48054 0.48726 0.23283 0.0
C426 C 0.45887 0.44318 0.23786 0.0
C427 C 0.41352 0.41907 0.23854 0.0
H428 H 0.10987 0.61621 0.5564 0.0
H429 H 0.99383 0.60533 0.57975 0.0
H430 H 0.07463 0.53676 0.55515 0.0
H431 H 0.95821 0.5264 0.57778 0.0
H432 H 0.89687 0.38688 0.55489 0.0
H433 H 0.93222 0.46637 0.55416 0.0
H434 H 0.04658 0.47569 0.57837 0.0
H435 H 0.01078 0.39668 0.57982 0.0
C436 C 0.07664 0.59692 0.56097 0.0
C437 C 0.05414 0.61721 0.56753 0.0
C438 C 0.05653 0.55151 0.56029 0.0
C439 C 0.01344 0.52541 0.56613 0.0
C440 C 0.99103 0.54567 0.57277 0.0
C441 C 0.01134 0.591 0.57369 0.0
C442 C 0.92969 0.40595 0.55992 0.0
C443 C 0.95159 0.38537 0.56677 0.0
C444 C 0.94986 0.45139 0.55954 0.0
C445 C 0.9924 0.47721 0.56597 0.0
C446 C 0.01421 0.45665 0.57289 0.0
C447 C 0.99383 0.41129 0.57352 0.0
H448 H 0.49492 0.1096 0.90901 0.0
H449 H 0.38588 0.99456 0.88701 0.0
H450 H 0.53872 0.07419 0.90769 0.0
H451 H 0.42929 0.95886 0.8861 0.0
H452 H 0.61471 0.01013 0.88639 0.0
H453 H 0.57141 0.046 0.88588 0.0
H454 H 0.46229 0.93068 0.90767 0.0
H455 H 0.50594 0.89513 0.90859 0.0
C456 C 0.48027 0.07677 0.90388 0.0
C457 C 0.43646 0.05451 0.89861 0.0
C458 C 0.50541 0.05652 0.90309 0.0
C459 C 0.48734 0.01352 0.89697 0.0
C460 C 0.44387 0.99166 0.89126 0.0
C461 C 0.41885 0.01205 0.89192 0.0
C462 C 0.58183 0.99268 0.89142 0.0
C463 C 0.56426 0.95017 0.89804 0.0
C464 C 0.55688 0.01317 0.89099 0.0
C465 C 0.51352 0.99134 0.89687 0.0
C466 C 0.49551 0.94832 0.90294 0.0
C467 C 0.52057 0.92798 0.9035 0.0
H468 H 0.59928 0.60951 0.51047 0.0
H469 H 0.52139 0.61342 0.46755 0.0
H470 H 0.55559 0.53023 0.51108 0.0
H471 H 0.47929 0.53444 0.46725 0.0
H472 H 0.38593 0.39504 0.4785 0.0
H473 H 0.42702 0.47331 0.48091 0.0
H474 H 0.54015 0.4661 0.49694 0.0
H475 H 0.49711 0.38697 0.4963 0.0
C476 C 0.57295 0.59321 0.50107 0.0
C477 C 0.56359 0.61742 0.48898 0.0
C478 C 0.54802 0.54772 0.50129 0.0
C479 C 0.51358 0.52536 0.48921 0.0
C480 C 0.50462 0.55005 0.47708 0.0
C481 C 0.52895 0.59546 0.47714 0.0
C482 C 0.41892 0.40986 0.48334 0.0
C483 C 0.43751 0.38439 0.48802 0.0
C484 C 0.44313 0.45521 0.48421 0.0
C485 C 0.48727 0.47668 0.48913 0.0
C486 C 0.5061 0.45111 0.4935 0.0
C487 C 0.48151 0.4056 0.49298 0.0
H488 H 0.89793 0.51018 0.83523 0.0
H489 H 0.0128 0.6141 0.8107 0.0
H490 H 0.93297 0.46576 0.83619 0.0
H491 H 0.04832 0.57064 0.81247 0.0
H492 H 0.10911 0.49102 0.83514 0.0
H493 H 0.07458 0.53596 0.83641 0.0
H494 H 0.95966 0.43283 0.81174 0.0
H495 H 0.99468 0.38896 0.80967 0.0
C496 C 0.93091 0.52386 0.83037 0.0
C497 C 0.95311 0.56632 0.82352 0.0
C498 C 0.95089 0.49844 0.83089 0.0
C499 C 0.99357 0.51504 0.82464 0.0
C500 C 0.0158 0.55745 0.81779 0.0
C501 C 0.99557 0.58256 0.817 0.0
C502 C 0.07635 0.47788 0.83012 0.0
C503 C 0.05401 0.43572 0.82297 0.0
C504 C 0.05666 0.50359 0.83082 0.0
C505 C 0.01418 0.48755 0.82444 0.0
C506 C 0.99198 0.44555 0.81719 0.0
C507 C 0.0119 0.4202 0.81621 0.0
H508 H 0.38569 0.89683 0.16916 0.0
H509 H 0.39651 0.00744 0.14086 0.0
H510 H 0.46515 0.93178 0.17005 0.0
H511 H 0.47545 0.04296 0.14246 0.0
H512 H 0.61527 0.10887 0.16478 0.0
H513 H 0.5359 0.07369 0.16605 0.0
H514 H 0.5255 0.95461 0.14651 0.0
H515 H 0.60438 0.99008 0.14449 0.0
C516 C 0.40499 0.92887 0.16341 0.0
C517 C 0.38475 0.95007 0.15558 0.0
C518 C 0.45039 0.9488 0.16389 0.0
C519 C 0.47644 0.99039 0.15657 0.0
C520 C 0.45621 0.01141 0.14862 0.0
C521 C 0.41091 0.99122 0.1479 0.0
C522 C 0.59601 0.07507 0.16091 0.0
C523 C 0.61628 0.05189 0.15516 0.0
C524 C 0.55064 0.05499 0.1616 0.0
C525 C 0.52457 0.01124 0.1566 0.0
C526 C 0.54479 0.98803 0.15087 0.0
C527 C 0.59009 0.00828 0.14992 0.0
H528 H 0.31642 0.20944 0.38891 0.0
H529 H 0.29199 0.30448 0.41364 0.0
H530 H 0.30902 0.23441 0.35978 0.0
H531 H 0.28699 0.33168 0.38448 0.0
H532 H 0.21238 0.31856 0.3324 0.0
H533 H 0.23698 0.3104 0.3615 0.0
H534 H 0.33119 0.28405 0.33663 0.0
H535 H 0.30425 0.28972 0.30753 0.0
C536 C 0.31075 0.23666 0.38805 0.0
C537 C 0.30446 0.25477 0.40353 0.0
C538 C 0.30672 0.2513 0.3713 0.0
C539 C 0.29676 0.28493 0.36953 0.0
C540 C 0.29361 0.30508 0.38515 0.0
C541 C 0.29718 0.29002 0.40193 0.0
C542 C 0.23877 0.31161 0.33321 0.0
C543 C 0.25608 0.30437 0.3177 0.0
C544 C 0.25325 0.30722 0.34995 0.0
C545 C 0.28594 0.29594 0.35167 0.0
C546 C 0.30531 0.29172 0.33601 0.0
C547 C 0.29039 0.29565 0.31926 0.0
H548 H 0.9079 0.26194 0.65942 0.0
H549 H 0.02365 0.25898 0.64487 0.0
H550 H 0.93786 0.28758 0.68919 0.0
H551 H 0.0533 0.28335 0.67441 0.0
H552 H 0.10933 0.34176 0.72657 0.0
H553 H 0.08225 0.3382 0.69643 0.0
H554 H 0.95076 0.25655 0.71515 0.0
H555 H 0.97824 0.26149 0.74524 0.0
C556 C 0.94018 0.26783 0.66249 0.0
C557 C 0.96364 0.25884 0.64986 0.0
C558 C 0.95722 0.28201 0.67959 0.0
C559 C 0.99809 0.28747 0.68438 0.0
C560 C 0.02216 0.28034 0.6713 0.0
C561 C 0.00513 0.26619 0.65433 0.0
C562 C 0.07459 0.3244 0.72425 0.0
C563 C 0.0458 0.30248 0.73821 0.0
C564 C 0.05899 0.32178 0.70695 0.0
C565 C 0.01418 0.29665 0.70317 0.0
C566 C 0.98533 0.27666 0.71744 0.0
C567 C 1.001 0.27946 0.73473 0.0
H568 H 0.73042 0.08688 0.0633 0.0
H569 H 0.75499 0.98293 0.07617 0.0
H570 H 0.7024 0.05369 0.03414 0.0
H571 H 0.72859 0.95045 0.04722 0.0
H572 H 0.66441 0.88528 0.99739 0.0
H573 H 0.67012 0.91343 1.02745 0.0
H574 H 0.73081 0.04423 1.00664 0.0
H575 H 0.7234 0.01541 0.97662 0.0
C576 C 0.72909 0.05656 0.05998 0.0
C577 C 0.74488 0.03747 0.07194 0.0
C578 C 0.71348 0.0377 0.04323 0.0
C579 C 0.71321 0.99926 0.03814 0.0
C580 C 0.72744 0.97951 0.05058 0.0
C581 C 0.74296 0.99831 0.06719 0.0
C582 C 0.67747 0.91986 0.99927 0.0
C583 C 0.69295 0.94814 0.98472 0.0
C584 C 0.68141 0.93619 1.01652 0.0
C585 C 0.70162 0.98135 1.01966 0.0
C586 C 0.71469 0.00933 1.00488 0.0
C587 C 0.71042 0.99288 0.98762 0.0
H588 H 0.65309 0.75776 0.3942 0.0
H589 H 0.74551 0.72125 0.41205 0.0
H590 H 0.65712 0.73381 0.36412 0.0
H591 H 0.75065 0.69822 0.3821 0.0
H592 H 0.74677 0.64805 0.32714 0.0
H593 H 0.72047 0.65102 0.35694 0.0
H594 H 0.71074 0.76294 0.3413 0.0
H595 H 0.73597 0.75902 0.31171 0.0
C596 C 0.67323 0.74333 0.39175 0.0
C597 C 0.69848 0.7407 0.40544 0.0
C598 C 0.67607 0.73012 0.37449 0.0
C599 C 0.70454 0.71431 0.37051 0.0
C600 C 0.72792 0.70955 0.38456 0.0
C601 C 0.72502 0.72273 0.40177 0.0
C602 C 0.73765 0.67232 0.33002 0.0
C603 C 0.74301 0.70307 0.31713 0.0
C604 C 0.72307 0.67444 0.34714 0.0
C605 C 0.71359 0.70741 0.3517 0.0
C606 C 0.71695 0.73667 0.33837 0.0
C607 C 0.73155 0.73456 0.32136 0.0
H608 H 0.98165 0.74699 0.6458 0.0
H609 H 0.09378 0.73742 0.66033 0.0
H610 H 0.95067 0.72218 0.67509 0.0
H611 H 0.06228 0.71102 0.68985 0.0
H612 H 0.02143 0.73411 0.74634 0.0
H613 H 0.04996 0.74041 0.71632 0.0
H614 H 0.91866 0.66665 0.69636 0.0
H615 H 0.89068 0.66208 0.72639 0.0
C616 C 0.99908 0.73831 0.6552 0.0
C617 C 0.04001 0.74399 0.6508 0.0
C618 C 0.98125 0.72383 0.67204 0.0
C619 C 0.00382 0.71451 0.68506 0.0
C620 C 0.04408 0.71832 0.68032 0.0
C621 C 0.06198 0.73292 0.66336 0.0
C622 C 0.99888 0.71823 0.73554 0.0
C623 C 0.95392 0.69726 0.73864 0.0
C624 C 0.01515 0.72178 0.71829 0.0
C625 C 0.98676 0.70447 0.70371 0.0
C626 C 0.94166 0.68117 0.70711 0.0
C627 C 0.92548 0.67795 0.72434 0.0
H628 H 0.31359 0.10914 0.99991 0.0
H629 H 0.29884 0.99287 0.97552 0.0
H630 H 0.30769 0.07755 0.02917 0.0
H631 H 0.29442 0.9613 1.00482 0.0
H632 H 0.21494 0.89819 0.05637 0.0
H633 H 0.24083 0.93108 1.02731 0.0
H634 H 0.33336 0.0517 0.05245 0.0
H635 H 0.30585 0.01871 0.08152 0.0
C636 C 0.3105 0.07727 1.00088 0.0
C637 C 0.30641 0.05336 0.98547 0.0
C638 C 0.30721 0.05905 1.01769 0.0
C639 C 0.29994 0.0164 1.01954 0.0
C640 C 0.29909 0.99381 1.00402 0.0
C641 C 0.30226 0.01208 0.98719 0.0
C642 C 0.24147 0.93145 0.05564 0.0
C643 C 0.25823 0.95594 0.07118 0.0
C644 C 0.25656 0.9504 0.03895 0.0
C645 C 0.28904 0.99444 0.03734 0.0
C646 C 0.30779 0.01802 0.05304 0.0
C647 C 0.2925 0.999 0.06974 0.0
H648 H 0.04821 0.1337 0.302 0.0
H649 H 0.11944 0.0698 0.28646 0.0
H650 H 0.98812 0.06441 0.3121 0.0
H651 H 0.05903 1.00053 0.29554 0.0
H652 H 0.8783 0.94018 0.28411 0.0
H653 H 0.93756 0.00981 0.29353 0.0
H654 H 0.00614 0.94664 0.31367 0.0
H655 H 0.94732 0.87695 0.30325 0.0
C656 C 0.05121 0.10485 0.30103 0.0
C657 C 0.08762 0.10655 0.29295 0.0
C658 C 0.01688 0.06523 0.30681 0.0
C659 C 0.01807 0.02665 0.30413 0.0
C660 C 0.05676 0.02942 0.29788 0.0
C661 C 0.0914 0.06916 0.29246 0.0
C662 C 0.90553 0.94108 0.29096 0.0
C663 C 0.90916 0.90371 0.2924 0.0
C664 C 0.93949 0.98103 0.29658 0.0
C665 C 0.97731 0.98405 0.30396 0.0
C666 C 0.97811 0.94559 0.30751 0.0
C667 C 0.9445 0.90575 0.30155 0.0
H668 H 0.05895 0.12133 0.61929 0.0
H669 H 0.92519 0.05286 0.63658 0.0
H670 H 0.06796 0.06158 0.62924 0.0
H671 H 0.9346 0.99352 0.64756 0.0
H672 H 0.94551 0.88083 0.62012 0.0
H673 H 0.93642 0.94091 0.62955 0.0
H674 H 0.06977 0.00982 0.64776 0.0
H675 H 0.07928 0.95012 0.63729 0.0
C676 C 0.03194 0.0941 0.62586 0.0
C677 C 0.99099 0.09073 0.62659 0.0
C678 C 0.03714 0.05986 0.63179 0.0
C679 C 0.00154 0.022 0.63878 0.0
C680 C 0.96222 0.02155 0.6417 0.0
C681 C 0.9568 0.05543 0.63542 0.0
C682 C 0.9725 0.90832 0.62656 0.0
C683 C 0.01348 0.9118 0.62738 0.0
C684 C 0.96725 0.94277 0.6322 0.0
C685 C 0.00284 0.98093 0.63898 0.0
C686 C 0.04217 0.98154 0.64205 0.0
C687 C 0.04764 0.94744 0.63605 0.0
H688 H 0.12624 0.07505 0.96976 0.0
H689 H 0.06268 0.94196 0.95161 0.0
H690 H 0.05666 0.06498 0.97997 0.0
H691 H 0.99316 0.93235 0.96082 0.0
H692 H 0.86941 0.91978 0.9695 0.0
H693 H 0.93895 0.92927 0.9794 0.0
H694 H 0.00241 0.06319 0.96185 0.0
H695 H 0.93293 0.05409 0.95297 0.0
C696 C 0.09739 0.04345 0.96822 0.0
C697 C 0.09933 0.00962 0.95943 0.0
C698 C 0.0576 0.03766 0.97406 0.0
C699 C 0.01909 0.99833 0.97075 0.0
C700 C 0.02199 0.96313 0.96368 0.0
C701 C 0.06188 0.96869 0.95818 0.0
C702 C 0.89823 0.95152 0.96827 0.0
C703 C 0.89632 0.98589 0.95999 0.0
C704 C 0.938 0.95697 0.97392 0.0
C705 C 0.9765 0.99654 0.97093 0.0
C706 C 0.9736 0.03221 0.96445 0.0
C707 C 0.93372 0.02696 0.95914 0.0
H708 H 0.93935 0.87712 0.43741 0.0
H709 H 0.87357 0.9443 0.41906 0.0
H710 H 0.00817 0.93727 0.42774 0.0
H711 H 0.94243 0.00404 0.40842 0.0
H712 H 0.06531 0.1183 0.43545 0.0
H713 H 0.9963 0.05728 0.42651 0.0
H714 H 0.06163 0.9886 0.4089 0.0
H715 H 0.13069 0.04929 0.41882 0.0
C716 C 0.9395 0.90414 0.43068 0.0
C717 C 0.90167 0.90699 0.42954 0.0
C718 C 0.97898 0.93861 0.42492 0.0
C719 C 0.98105 0.97617 0.41769 0.0
C720 C 0.94211 0.97621 0.41444 0.0
C721 C 0.90274 0.94208 0.42053 0.0
C722 C 0.06502 0.09064 0.42924 0.0
C723 C 0.1028 0.08763 0.4284 0.0
C724 C 0.02543 0.05566 0.4239 0.0
C725 C 0.02322 0.01739 0.4174 0.0
C726 C 0.06208 0.01701 0.41438 0.0
C727 C 0.10156 0.05169 0.42005 0.0
H728 H 0.05216 0.93301 0.76817 0.0
H729 H 0.91688 0.86912 0.75314 0.0
H730 H 0.06091 0.00217 0.759 0.0
H731 H 0.92597 0.9383 0.7429 0.0
H732 H 0.94056 0.06338 0.77008 0.0
H733 H 0.93014 0.99351 0.76093 0.0
H734 H 0.06206 0.05595 0.74101 0.0
H735 H 0.073 0.12588 0.75124 0.0
C736 C 0.02468 0.93362 0.76226 0.0
C737 C 0.98354 0.89626 0.76193 0.0
C738 C 0.02972 0.97332 0.75678 0.0
C739 C 0.99375 0.9761 0.75062 0.0
C740 C 0.95395 0.93751 0.74813 0.0
C741 C 0.94872 0.89794 0.75397 0.0
C742 C 0.96693 0.06226 0.76333 0.0
C743 C 0.00798 0.0995 0.76191 0.0
C744 C 0.96091 0.02215 0.75788 0.0
C745 C 0.99573 0.01884 0.75065 0.0
C746 C 0.03505 0.05718 0.74708 0.0
C747 C 0.04134 0.09718 0.75291 0.0
H748 H 0.8838 0.94984 0.10257 0.0
H749 H 0.95472 0.08427 0.08622 0.0
H750 H 0.94339 0.94016 0.09298 0.0
H751 H 0.01395 0.07422 0.07558 0.0
H752 H 0.12489 0.06009 0.10263 0.0
H753 H 0.0656 0.07067 0.09346 0.0
H754 H 0.99495 0.93784 0.07458 0.0
H755 H 0.05381 0.92681 0.08483 0.0
C756 C 0.91159 0.9769 0.0963 0.0
C757 C 0.91556 0.01814 0.09571 0.0
C758 C 0.94575 0.97132 0.09057 0.0
C759 C 0.98416 0.00683 0.08391 0.0
C760 C 0.98545 0.04662 0.08119 0.0
C761 C 0.95161 0.0524 0.08727 0.0
C762 C 0.09718 0.03355 0.0961 0.0
C763 C 0.09299 0.99226 0.09501 0.0
C764 C 0.06318 0.03965 0.09062 0.0
C765 C 0.02477 0.00464 0.08372 0.0
C766 C 0.02342 0.96501 0.08041 0.0
C767 C 0.05705 0.95867 0.08625 0.0
H768 H 0.87366 0.14454 0.18782 0.0
H769 H 0.95798 0.21082 0.14375 0.0
H770 H 0.93408 0.18249 0.20814 0.0
H771 H 0.01809 0.25213 0.16397 0.0
H772 H 0.13004 0.27398 0.20058 0.0
H773 H 0.06952 0.25072 0.18025 0.0
H774 H 0.98514 0.2358 0.22438 0.0
H775 H 0.04541 0.25542 0.24462 0.0
C776 C 0.90485 0.16876 0.18254 0.0
C777 C 0.91084 0.17474 0.16416 0.0
C778 C 0.94001 0.19087 0.19426 0.0
C779 C 0.98224 0.22061 0.188 0.0
C780 C 0.98708 0.22872 0.16958 0.0
C781 C 0.95221 0.20556 0.15786 0.0
C782 C 0.09874 0.26673 0.20584 0.0
C783 C 0.09271 0.26681 0.22422 0.0
C784 C 0.06352 0.25321 0.19412 0.0
C785 C 0.02118 0.24032 0.20037 0.0
C786 C 0.01627 0.24369 0.21878 0.0
C787 C 0.05121 0.25587 0.23051 0.0
H788 H 0.8335 0.13 0.53722 0.0
H789 H 0.82007 0.03651 0.57683 0.0
H790 H 0.79355 0.07069 0.5161 0.0
H791 H 0.78139 0.97778 0.55583 0.0
H792 H 0.70105 0.87275 0.51699 0.0
H793 H 0.72011 0.93262 0.53778 0.0
H794 H 0.80942 0.02333 0.49933 0.0
H795 H 0.78971 0.9641 0.47861 0.0
C796 C 0.82117 0.09682 0.54159 0.0
C797 C 0.83036 0.08831 0.55877 0.0
C798 C 0.79865 0.06269 0.52939 0.0
C799 C 0.78448 0.01907 0.53406 0.0
C800 C 0.79123 0.01057 0.55163 0.0
C801 C 0.81379 0.04455 0.56374 0.0
C802 C 0.72385 0.90561 0.5128 0.0
C803 C 0.74393 0.91327 0.49608 0.0
C804 C 0.73523 0.94004 0.52483 0.0
C805 C 0.76686 0.98317 0.52044 0.0
C806 C 0.78473 0.99096 0.50328 0.0
C807 C 0.77352 0.95667 0.49135 0.0
H808 H 0.79322 0.74797 0.81141 0.0
H809 H 0.86119 0.73243 0.85544 0.0
H810 H 0.75195 0.76699 0.83162 0.0
H811 H 0.82339 0.75527 0.87571 0.0
H812 H 0.75074 0.79429 0.91217 0.0
H813 H 0.77064 0.75341 0.89212 0.0
H814 H 0.75264 0.81977 0.84763 0.0
H815 H 0.72901 0.8571 0.86779 0.0
C816 C 0.7989 0.74812 0.82552 0.0
C817 C 0.83014 0.73816 0.83181 0.0
C818 C 0.77576 0.75995 0.83722 0.0
C819 C 0.78436 0.76401 0.85561 0.0
C820 C 0.81461 0.7522 0.86186 0.0
C821 C 0.83665 0.73895 0.85017 0.0
C822 C 0.74972 0.7989 0.89803 0.0
C823 C 0.73779 0.8286 0.89159 0.0
C824 C 0.76204 0.77601 0.88641 0.0
C825 C 0.7646 0.78335 0.86793 0.0
C826 C 0.7508 0.81199 0.86155 0.0
C827 C 0.7371 0.83375 0.87318 0.0
H828 H 0.13073 0.83229 0.18409 0.0
H829 H 0.03647 0.821 0.1453 0.0
H830 H 0.07204 0.79248 0.20546 0.0
H831 H 0.97834 0.78236 0.16658 0.0
H832 H 0.87444 0.70155 0.20577 0.0
H833 H 0.93353 0.72045 0.18459 0.0
H834 H 0.02573 0.8091 0.22276 0.0
H835 H 0.96723 0.7896 0.24387 0.0
C836 C 0.0975 0.82048 0.17995 0.0
C837 C 0.08862 0.83022 0.16293 0.0
C838 C 0.06374 0.79803 0.1923 0.0
C839 C 0.02011 0.78444 0.18794 0.0
C840 C 0.01117 0.79176 0.17052 0.0
C841 C 0.0448 0.81428 0.15827 0.0
C842 C 0.90746 0.72414 0.20981 0.0
C843 C 0.91578 0.74414 0.22656 0.0
C844 C 0.94144 0.73543 0.19757 0.0
C845 C 0.98473 0.76686 0.20176 0.0
C846 C 0.99319 0.78458 0.21895 0.0
C847 C 0.95934 0.77348 0.23111 0.0
H848 H 0.1727 0.87194 0.53834 0.0
H849 H 0.18244 0.96592 0.57703 0.0
H850 H 0.21312 0.93085 0.51711 0.0
H851 H 0.22142 0.02418 0.5559 0.0
H852 H 0.30205 0.12888 0.51705 0.0
H853 H 0.28296 0.06986 0.53827 0.0
H854 H 0.19792 0.97693 0.49944 0.0
H855 H 0.21779 0.0353 0.47831 0.0
C856 C 0.18424 0.90514 0.54248 0.0
C857 C 0.1739 0.91387 0.55944 0.0
C858 C 0.20704 0.93905 0.53022 0.0
C859 C 0.22032 0.98267 0.53457 0.0
C860 C 0.21234 0.99142 0.55193 0.0
C861 C 0.18957 0.95768 0.56411 0.0
C862 C 0.28026 0.09573 0.51289 0.0
C863 C 0.26137 0.08717 0.49592 0.0
C864 C 0.26881 0.06176 0.52516 0.0
C865 C 0.23827 0.01823 0.52079 0.0
C866 C 0.22173 0.00962 0.50342 0.0
C867 C 0.23304 0.04342 0.49123 0.0
H868 H 0.30047 0.17248 0.87215 0.0
H869 H 0.21433 0.1799 0.91057 0.0
H870 H 0.28097 0.21184 0.85081 0.0
H871 H 0.19433 0.21818 0.88932 0.0
H872 H 0.1709 0.29906 0.85026 0.0
H873 H 0.21122 0.28069 0.87155 0.0
H874 H 0.21785 0.19378 0.83325 0.0
H875 H 0.17863 0.2127 0.81204 0.0
C876 C 0.27821 0.18337 0.87622 0.0
C877 C 0.25888 0.17267 0.89312 0.0
C878 C 0.26658 0.20556 0.86389 0.0
C879 C 0.23554 0.21795 0.86815 0.0
C880 C 0.21853 0.2097 0.88546 0.0
C881 C 0.22993 0.1874 0.8977 0.0
C882 C 0.18201 0.27696 0.84622 0.0
C883 C 0.17113 0.25726 0.8294 0.0
C884 C 0.20478 0.26599 0.85852 0.0
C885 C 0.21757 0.23522 0.8543 0.0
C886 C 0.20908 0.2178 0.83706 0.0
C887 C 0.18622 0.22856 0.82485 0.0
H888 H 0.25226 0.23644 0.20473 0.0
H889 H 0.18633 0.13117 0.2421 0.0
H890 H 0.25963 0.18715 0.18423 0.0
H891 H 0.19436 0.08217 0.22166 0.0
H892 H 0.24747 0.0156 0.18519 0.0
H893 H 0.25446 0.0716 0.20603 0.0
H894 H 0.19987 0.11966 0.16712 0.0
H895 H 0.19213 0.06334 0.14639 0.0
C896 C 0.24014 0.20305 0.20874 0.0
C897 C 0.21858 0.18769 0.22504 0.0
C898 C 0.24415 0.17482 0.19695 0.0
C899 C 0.22748 0.13088 0.20135 0.0
C900 C 0.20778 0.11598 0.21798 0.0
C901 C 0.20302 0.14399 0.22964 0.0
C902 C 0.23763 0.03856 0.18097 0.0
C903 C 0.21909 0.03493 0.16415 0.0
C904 C 0.24141 0.07041 0.19294 0.0
C905 C 0.2276 0.09984 0.18819 0.0
C906 C 0.21104 0.09756 0.17109 0.0
C907 C 0.20646 0.06522 0.15925 0.0
H908 H 0.01803 0.25026 0.53698 0.0
H909 H 0.06303 0.1905 0.57493 0.0
H910 H 0.0746 0.25839 0.51624 0.0
H911 H 0.11976 0.19913 0.55426 0.0
H912 H 0.23651 0.24939 0.51723 0.0
H913 H 0.18806 0.25756 0.53793 0.0
H914 H 0.08436 0.20017 0.49957 0.0
H915 H 0.13249 0.19151 0.47892 0.0
C916 C 0.04049 0.23967 0.54105 0.0
C917 C 0.0359 0.21954 0.55758 0.0
C918 C 0.07269 0.24411 0.52913 0.0
C919 C 0.10146 0.22929 0.53363 0.0
C920 C 0.09824 0.21116 0.55049 0.0
C921 C 0.06561 0.20602 0.56228 0.0
C922 C 0.20364 0.23927 0.51307 0.0
C923 C 0.1883 0.21963 0.49644 0.0
C924 C 0.17586 0.24372 0.52498 0.0
C925 C 0.13244 0.22937 0.52038 0.0
C926 C 0.11776 0.21181 0.50342 0.0
C927 C 0.14528 0.20667 0.49164 0.0
H928 H 0.93732 0.12947 0.81323 0.0
H929 H 0.98593 0.23309 0.85185 0.0
H930 H 0.88068 0.08168 0.83399 0.0
H931 H 0.92955 0.1849 0.87269 0.0
H932 H 0.87019 0.05811 0.90903 0.0
H933 H 0.91876 0.11484 0.88847 0.0
H934 H 0.81348 0.0742 0.85118 0.0
H935 H 0.7645 0.0178 0.87184 0.0
C936 C 0.93555 0.14223 0.82605 0.0
C937 C 0.96621 0.18504 0.83091 0.0
C938 C 0.903 0.11492 0.8379 0.0
C939 C 0.90086 0.12957 0.85497 0.0
C940 C 0.93061 0.17276 0.85964 0.0
C941 C 0.9627 0.20037 0.84767 0.0
C942 C 0.85718 0.06172 0.89658 0.0
C943 C 0.81353 0.03329 0.89204 0.0
C944 C 0.88496 0.09433 0.88485 0.0
C945 C 0.86989 0.09875 0.86821 0.0
C946 C 0.82594 0.07132 0.86389 0.0
C947 C 0.79791 0.0392 0.87576 0.0
H948 H 0.75636 0.76738 0.20248 0.0
H949 H 0.80532 0.86902 0.24197 0.0
H950 H 0.74926 0.81611 0.18148 0.0
H951 H 0.79748 0.91716 0.22113 0.0
H952 H 0.74799 0.98196 0.183 0.0
H953 H 0.73907 0.92424 0.20316 0.0
H954 H 0.80924 0.88797 0.16673 0.0
H955 H 0.81871 0.94601 0.1466 0.0
C956 C 0.76471 0.79974 0.2068 0.0
C957 C 0.78163 0.81446 0.22385 0.0
C958 C 0.76088 0.82764 0.19475 0.0
C959 C 0.77295 0.8704 0.19967 0.0
C960 C 0.78766 0.88428 0.21701 0.0
C961 C 0.79231 0.85676 0.22892 0.0
C962 C 0.76088 0.96124 0.17912 0.0
C963 C 0.78427 0.96874 0.16323 0.0
C964 C 0.75592 0.92834 0.19072 0.0
C965 C 0.77353 0.90173 0.18652 0.0
C966 C 0.79504 0.9078 0.17024 0.0
C967 C 0.80067 0.94118 0.15877 0.0
H968 H 0.86906 0.80379 0.48054 0.0
H969 H 0.7659 0.75011 0.51939 0.0
H970 H 0.91703 0.79551 0.50128 0.0
H971 H 0.81437 0.74238 0.54026 0.0
H972 H 0.94134 0.81117 0.57633 0.0
H973 H 0.88355 0.80096 0.55598 0.0
H974 H 0.92662 0.73853 0.51851 0.0
H975 H 0.98429 0.74836 0.53889 0.0
C976 C 0.85642 0.78962 0.49342 0.0
C977 C 0.81375 0.77786 0.49835 0.0
C978 C 0.88386 0.78468 0.50526 0.0
C979 C 0.86949 0.76849 0.52241 0.0
C980 C 0.82634 0.75519 0.52715 0.0
C981 C 0.79857 0.75941 0.51517 0.0
C982 C 0.93807 0.79463 0.56388 0.0
C983 C 0.96758 0.78079 0.5592 0.0
C984 C 0.9048 0.78855 0.55228 0.0
C985 C 0.90071 0.76909 0.53564 0.0
C986 C 0.92918 0.75382 0.53122 0.0
C987 C 0.96205 0.75927 0.54294 0.0
H988 H 0.1338 0.93789 0.90933 0.0
H989 H 0.23589 0.99089 0.87003 0.0
H990 H 0.0859 0.8823 0.8883 0.0
H991 H 0.18742 0.93551 0.84885 0.0
H992 H 0.05805 0.87459 0.81363 0.0
H993 H 0.11557 0.92339 0.83391 0.0
H994 H 0.0795 0.81708 0.87031 0.0
H995 H 0.02235 0.76812 0.85005 0.0
C996 C 0.14621 0.93728 0.89629 0.0
C997 C 0.1886 0.96885 0.89134 0.0
C998 C 0.11882 0.90537 0.88426 0.0
C999 C 0.13291 0.90475 0.86693 0.0
C1000 C 0.17571 0.93543 0.86211 0.0
C1001 C 0.20348 0.96689 0.87427 0.0
C1002 C 0.06283 0.86146 0.82583 0.0
C1003 C 0.0355 0.81747 0.83023 0.0
C1004 C 0.0959 0.88936 0.83738 0.0
C1005 C 0.10185 0.874 0.8537 0.0
C1006 C 0.07548 0.82978 0.85785 0.0
C1007 C 0.04291 0.80173 0.84618 0.0
loop_
_geom_bond_atom_site_label_1
_geom_bond_atom_site_label_2
_geom_bond_distance
_geom_bond_site_symmetry_2
_ccdc_geom_bond_type
Co0 O3 1.970 . S
Co0 N17 1.989 . S
Co0 O25 1.967 . S
Co0 O32 1.920 . S
Co1 O4 1.966 . S
Co1 N10 2.022 . S
Co1 N18 1.993 . S
Co1 O26 1.941 . S
C2 O3 1.258 . S
C2 O4 1.263 . S
O3 Co0 1.970 . S
O3 C2 1.258 . S
O4 Co1 1.966 . S
O4 C2 1.263 . S
C5 O6 1.235 . S
C5 O32 1.289 . S
O6 C5 1.235 . S
C7 C9 1.400 . S
C7 N10 1.351 . S
C7 C12 1.501 . S
C8 C9 1.387 . S
C8 N11 1.341 . S
C9 C7 1.400 . S
C9 C8 1.387 . S
N10 Co1 2.022 . S
N10 C7 1.351 . S
N10 N11 1.365 . S
N11 C8 1.341 . S
N11 N10 1.365 . S
N11 H31 0.862 . S
C12 C7 1.501 . S
C12 H13 0.961 . S
C12 H14 0.961 . S
C12 H15 0.960 . S
H13 C12 0.961 . S
H14 C12 0.961 . S
H15 C12 0.960 . S
C16 N17 1.342 . S
C16 C20 1.401 . S
C16 C21 1.499 . S
N17 Co0 1.989 . S
N17 C16 1.342 . S
N17 N18 1.388 . S
N18 Co1 1.993 . S
N18 N17 1.388 . S
N18 C19 1.346 . S
C19 N18 1.346 . S
C19 C20 1.396 . S
C19 C29 1.510 . S
C20 C16 1.401 . S
C20 C19 1.396 . S
C21 C16 1.499 . S
C21 H22 0.959 . S
C21 H23 0.960 . S
C21 H24 0.961 . S
H22 C21 0.959 . S
H23 C21 0.960 . S
H24 C21 0.961 . S
O25 Co0 1.967 . S
O25 C33 1.258 . S
O26 Co1 1.941 . S
O26 C33 1.266 . S
H27 C29 0.959 . S
H28 C29 0.961 . S
C29 C19 1.510 . S
C29 H27 0.959 . S
C29 H28 0.961 . S
C29 H30 0.960 . S
H30 C29 0.960 . S
H31 N11 0.862 . S
O32 Co0 1.920 . S
O32 C5 1.289 . S
C33 O25 1.258 . S
C33 O26 1.266 . S
Co34 O37 1.970 . S
Co34 N51 1.989 . S
Co34 O59 1.967 . S
Co34 O66 1.920 . S
Co35 O38 1.966 . S
Co35 N44 2.022 . S
Co35 N52 1.993 . S
Co35 O60 1.941 . S
C36 O37 1.258 . S
C36 O38 1.263 . S
O37 Co34 1.970 . S
O37 C36 1.258 . S
O38 Co35 1.966 . S
O38 C36 1.263 . S
C39 O40 1.235 1_655 S
C39 O66 1.289 . S
O40 C39 1.235 1_455 S
C41 C43 1.400 . S
C41 N44 1.351 . S
C41 C46 1.501 . S
C42 C43 1.387 . S
C42 N45 1.341 . S
C43 C41 1.400 . S
C43 C42 1.387 . S
N44 Co35 2.022 . S
N44 C41 1.351 . S
N44 N45 1.365 . S
N45 C42 1.341 . S
N45 N44 1.365 . S
N45 H65 0.862 . S
C46 C41 1.501 . S
C46 H47 0.961 . S
C46 H48 0.961 1_655 S
C46 H49 0.963 1_655 S
H47 C46 0.961 . S
H48 C46 0.961 1_455 S
H49 C46 0.963 1_455 S
C50 N51 1.342 . S
C50 C54 1.401 . S
C50 C55 1.499 . S
N51 Co34 1.989 . S
N51 C50 1.342 . S
N51 N52 1.388 . S
N52 Co35 1.993 . S
N52 N51 1.388 . S
N52 C53 1.346 . S
C53 N52 1.346 . S
C53 C54 1.396 . S
C53 C63 1.510 . S
C54 C50 1.401 . S
C54 C53 1.396 . S
C55 C50 1.499 . S
C55 H56 0.959 . S
C55 H57 0.960 . S
C55 H58 0.961 . S
H56 C55 0.959 . S
H57 C55 0.960 . S
H58 C55 0.961 . S
O59 Co34 1.967 . S
O59 C67 1.258 . S
O60 Co35 1.941 . S
O60 C67 1.266 . S
H61 C63 0.959 . S
H62 C63 0.961 . S
C63 C53 1.510 . S
C63 H61 0.959 . S
C63 H62 0.961 . S
C63 H64 0.960 . S
H64 C63 0.960 . S
H65 N45 0.862 . S
O66 Co34 1.920 . S
O66 C39 1.289 . S
C67 O59 1.258 . S
C67 O60 1.266 . S
Co68 O71 1.970 . S
Co68 N85 1.989 . S
Co68 O93 1.967 . S
Co68 O100 1.920 . S
Co69 O72 1.966 . S
Co69 N78 2.022 . S
Co69 N86 1.993 . S
Co69 O94 1.941 . S
C70 O71 1.258 . S
C70 O72 1.263 . S
O71 Co68 1.970 . S
O71 C70 1.258 . S
O72 Co69 1.966 . S
O72 C70 1.263 . S
C73 O74 1.235 1_565 S
C73 O100 1.289 . S
O74 C73 1.235 1_545 S
C75 C77 1.400 . S
C75 N78 1.351 . S
C75 C80 1.501 . S
C76 C77 1.387 . S
C76 N79 1.341 . S
C77 C75 1.400 . S
C77 C76 1.387 . S
N78 Co69 2.022 . S
N78 C75 1.351 . S
N78 N79 1.365 . S
N79 C76 1.341 . S
N79 N78 1.365 . S
N79 H99 0.862 . S
C80 C75 1.501 . S
C80 H81 0.961 . S
C80 H82 0.961 1_565 S
C80 H83 0.954 1_565 S
H81 C80 0.961 . S
H82 C80 0.961 1_545 S
H83 C80 0.954 1_545 S
C84 N85 1.342 . S
C84 C88 1.401 . S
C84 C89 1.499 . S
N85 Co68 1.989 . S
N85 C84 1.342 . S
N85 N86 1.388 . S
N86 Co69 1.993 . S
N86 N85 1.388 . S
N86 C87 1.346 . S
C87 N86 1.346 . S
C87 C88 1.396 . S
C87 C97 1.510 . S
C88 C84 1.401 . S
C88 C87 1.396 . S
C89 C84 1.499 . S
C89 H90 0.959 . S
C89 H91 0.960 . S
C89 H92 0.961 . S
H90 C89 0.959 . S
H91 C89 0.960 . S
H92 C89 0.961 . S
O93 Co68 1.967 . S
O93 C101 1.258 . S
O94 Co69 1.941 . S
O94 C101 1.266 . S
H95 C97 0.959 . S
H96 C97 0.961 . S
C97 C87 1.510 . S
C97 H95 0.959 . S
C97 H96 0.961 . S
C97 H98 0.960 . S
H98 C97 0.960 . S
H99 N79 0.862 . S
O100 Co68 1.920 . S
O100 C73 1.289 . S
C101 O93 1.258 . S
C101 O94 1.266 . S
Co102 O105 1.970 . S
Co102 N119 1.989 . S
Co102 O127 1.967 . S
Co102 O134 1.920 . S
Co103 O106 1.966 . S
Co103 N112 2.022 . S
Co103 N120 1.993 . S
Co103 O128 1.941 . S
C104 O105 1.258 . S
C104 O106 1.263 . S
O105 Co102 1.970 . S
O105 C104 1.258 . S
O106 Co103 1.966 . S
O106 C104 1.263 . S
C107 O108 1.235 . S
C107 O134 1.289 . S
O108 C107 1.235 . S
C109 C111 1.400 . S
C109 N112 1.351 . S
C109 C114 1.501 . S
C110 C111 1.387 . S
C110 N113 1.341 . S
C111 C109 1.400 . S
C111 C110 1.387 . S
N112 Co103 2.022 . S
N112 C109 1.351 . S
N112 N113 1.365 . S
N113 C110 1.341 . S
N113 N112 1.365 . S
N113 H133 0.862 . S
C114 C109 1.501 . S
C114 H115 0.961 . S
C114 H116 0.961 . S
C114 H117 0.960 . S
H115 C114 0.961 . S
H116 C114 0.961 . S
H117 C114 0.960 . S
C118 N119 1.342 . S
C118 C122 1.401 . S
C118 C123 1.499 . S
N119 Co102 1.989 . S
N119 C118 1.342 . S
N119 N120 1.388 . S
N120 Co103 1.993 . S
N120 N119 1.388 . S
N120 C121 1.346 . S
C121 N120 1.346 . S
C121 C122 1.396 . S
C121 C131 1.510 . S
C122 C118 1.401 . S
C122 C121 1.396 . S
C123 C118 1.499 . S
C123 H124 0.959 . S
C123 H125 0.960 . S
C123 H126 0.961 . S
H124 C123 0.959 . S
H125 C123 0.960 . S
H126 C123 0.961 . S
O127 Co102 1.967 . S
O127 C135 1.258 . S
O128 Co103 1.941 . S
O128 C135 1.266 . S
H129 C131 0.959 . S
H130 C131 0.961 . S
C131 C121 1.510 . S
C131 H129 0.959 . S
C131 H130 0.961 . S
C131 H132 0.960 . S
H132 C131 0.960 . S
H133 N113 0.862 . S
O134 Co102 1.920 . S
O134 C107 1.289 . S
C135 O127 1.258 . S
C135 O128 1.266 . S
Co136 O139 1.970 . S
Co136 N153 1.989 . S
Co136 O161 1.967 . S
Co136 O168 1.920 . S
Co137 O140 1.966 . S
Co137 N146 2.022 . S
Co137 N154 1.993 . S
Co137 O162 1.941 . S
C138 O139 1.258 . S
C138 O140 1.263 . S
O139 Co136 1.970 . S
O139 C138 1.258 . S
O140 Co137 1.966 . S
O140 C138 1.263 . S
C141 O142 1.235 1_455 S
C141 O168 1.289 . S
O142 C141 1.235 1_655 S
C143 C145 1.400 . S
C143 N146 1.351 . S
C143 C148 1.501 . S
C144 C145 1.387 . S
C144 N147 1.341 . S
C145 C143 1.400 . S
C145 C144 1.387 . S
N146 Co137 2.022 . S
N146 C143 1.351 . S
N146 N147 1.365 . S
N147 C144 1.341 . S
N147 N146 1.365 . S
N147 H167 0.862 . S
C148 C143 1.501 . S
C148 H149 0.961 . S
C148 H150 0.961 1_455 S
C148 H151 0.963 1_455 S
H149 C148 0.961 . S
H150 C148 0.961 1_655 S
H151 C148 0.963 1_655 S
C152 N153 1.342 . S
C152 C156 1.401 . S
C152 C157 1.499 . S
N153 Co136 1.989 . S
N153 C152 1.342 . S
N153 N154 1.388 . S
N154 Co137 1.993 . S
N154 N153 1.388 . S
N154 C155 1.346 . S
C155 N154 1.346 . S
C155 C156 1.396 . S
C155 C165 1.510 . S
C156 C152 1.401 . S
C156 C155 1.396 . S
C157 C152 1.499 . S
C157 H158 0.959 . S
C157 H159 0.960 . S
C157 H160 0.961 . S
H158 C157 0.959 . S
H159 C157 0.960 . S
H160 C157 0.961 . S
O161 Co136 1.967 . S
O161 C169 1.258 . S
O162 Co137 1.941 . S
O162 C169 1.266 . S
H163 C165 0.959 . S
H164 C165 0.961 . S
C165 C155 1.510 . S
C165 H163 0.959 . S
C165 H164 0.961 . S
C165 H166 0.960 . S
H166 C165 0.960 . S
H167 N147 0.862 . S
O168 Co136 1.920 . S
O168 C141 1.289 . S
C169 O161 1.258 . S
C169 O162 1.266 . S
Co170 O173 1.970 . S
Co170 N187 1.989 . S
Co170 O195 1.967 . S
Co170 O202 1.920 . S
Co171 O174 1.966 . S
Co171 N180 2.022 . S
Co171 N188 1.993 . S
Co171 O196 1.941 . S
C172 O173 1.258 . S
C172 O174 1.263 . S
O173 Co170 1.970 . S
O173 C172 1.258 . S
O174 Co171 1.966 . S
O174 C172 1.263 . S
C175 O176 1.235 1_545 S
C175 O202 1.289 . S
O176 C175 1.235 1_565 S
C177 C179 1.400 . S
C177 N180 1.351 . S
C177 C182 1.501 . S
C178 C179 1.387 . S
C178 N181 1.341 . S
C179 C177 1.400 . S
C179 C178 1.387 . S
N180 Co171 2.022 . S
N180 C177 1.351 . S
N180 N181 1.365 . S
N181 C178 1.341 . S
N181 N180 1.365 . S
N181 H201 0.862 . S
C182 C177 1.501 . S
C182 H183 0.961 . S
C182 H184 0.961 1_545 S
C182 H185 0.954 1_545 S
H183 C182 0.961 . S
H184 C182 0.961 1_565 S
H185 C182 0.954 1_565 S
C186 N187 1.342 . S
C186 C190 1.401 . S
C186 C191 1.499 . S
N187 Co170 1.989 . S
N187 C186 1.342 . S
N187 N188 1.388 . S
N188 Co171 1.993 . S
N188 N187 1.388 . S
N188 C189 1.346 . S
C189 N188 1.346 . S
C189 C190 1.396 . S
C189 C199 1.510 . S
C190 C186 1.401 . S
C190 C189 1.396 . S
C191 C186 1.499 . S
C191 H192 0.959 . S
C191 H193 0.960 . S
C191 H194 0.961 . S
H192 C191 0.959 . S
H193 C191 0.960 . S
H194 C191 0.961 . S
O195 Co170 1.967 . S
O195 C203 1.258 . S
O196 Co171 1.941 . S
O196 C203 1.266 . S
H197 C199 0.959 . S
H198 C199 0.961 . S
C199 C189 1.510 . S
C199 H197 0.959 . S
C199 H198 0.961 . S
C199 H200 0.960 . S
H200 C199 0.960 . S
H201 N181 0.862 . S
O202 Co170 1.920 . S
O202 C175 1.289 . S
C203 O195 1.258 . S
C203 O196 1.266 . S
Co204 O207 1.970 . S
Co204 N221 1.989 . S
Co204 O229 1.967 . S
Co204 O236 1.920 . S
Co205 O208 1.966 . S
Co205 N214 2.022 . S
Co205 N222 1.993 . S
Co205 O230 1.941 . S
C206 O207 1.258 . S
C206 O208 1.263 . S
O207 Co204 1.970 . S
O207 C206 1.258 . S
O208 Co205 1.966 . S
O208 C206 1.263 . S
C209 O210 1.235 . S
C209 O236 1.289 . S
O210 C209 1.235 . S
C211 C213 1.400 . S
C211 N214 1.351 . S
C211 C216 1.501 . S
C212 C213 1.387 . S
C212 N215 1.341 . S
C213 C211 1.400 . S
C213 C212 1.387 . S
N214 Co205 2.022 . S
N214 C211 1.351 . S
N214 N215 1.365 . S
N215 C212 1.341 . S
N215 N214 1.365 . S
N215 H235 0.862 . S
C216 C211 1.501 . S
C216 H217 0.961 . S
C216 H218 0.961 . S
C216 H219 0.960 . S
H217 C216 0.961 . S
H218 C216 0.961 . S
H219 C216 0.960 . S
C220 N221 1.342 . S
C220 C224 1.401 . S
C220 C225 1.499 . S
N221 Co204 1.989 . S
N221 C220 1.342 . S
N221 N222 1.388 . S
N222 Co205 1.993 . S
N222 N221 1.388 . S
N222 C223 1.346 . S
C223 N222 1.346 . S
C223 C224 1.396 . S
C223 C233 1.510 . S
C224 C220 1.401 . S
C224 C223 1.396 . S
C225 C220 1.499 . S
C225 H226 0.959 . S
C225 H227 0.960 . S
C225 H228 0.961 . S
H226 C225 0.959 . S
H227 C225 0.960 . S
H228 C225 0.961 . S
O229 Co204 1.967 . S
O229 C237 1.258 . S
O230 Co205 1.941 . S
O230 C237 1.266 . S
H231 C233 0.959 . S
H232 C233 0.961 . S
C233 C223 1.510 . S
C233 H231 0.959 . S
C233 H232 0.961 . S
C233 H234 0.960 . S
H234 C233 0.960 . S
H235 N215 0.862 . S
O236 Co204 1.920 . S
O236 C209 1.289 . S
C237 O229 1.258 . S
C237 O230 1.266 . S
Co238 O241 1.970 . S
Co238 N255 1.989 . S
Co238 O263 1.967 . S
Co238 O270 1.920 . S
Co239 O242 1.966 . S
Co239 N248 2.022 . S
Co239 N256 1.993 . S
Co239 O264 1.941 . S
C240 O241 1.258 . S
C240 O242 1.263 . S
O241 Co238 1.970 . S
O241 C240 1.258 . S
O242 Co239 1.966 . S
O242 C240 1.263 . S
C243 O244 1.235 1_655 S
C243 O270 1.289 . S
O244 C243 1.235 1_455 S
C245 C247 1.400 . S
C245 N248 1.351 . S
C245 C250 1.501 . S
C246 C247 1.387 . S
C246 N249 1.341 . S
C247 C245 1.400 . S
C247 C246 1.387 . S
N248 Co239 2.022 . S
N248 C245 1.351 . S
N248 N249 1.365 . S
N249 C246 1.341 . S
N249 N248 1.365 . S
N249 H269 0.862 . S
C250 C245 1.501 . S
C250 H251 0.961 . S
C250 H252 0.961 1_655 S
C250 H253 0.954 1_655 S
H251 C250 0.961 . S
H252 C250 0.961 1_455 S
H253 C250 0.954 1_455 S
C254 N255 1.342 . S
C254 C258 1.401 . S
C254 C259 1.499 . S
N255 Co238 1.989 . S
N255 C254 1.342 . S
N255 N256 1.388 . S
N256 Co239 1.993 . S
N256 N255 1.388 . S
N256 C257 1.346 . S
C257 N256 1.346 . S
C257 C258 1.396 . S
C257 C267 1.510 . S
C258 C254 1.401 . S
C258 C257 1.396 . S
C259 C254 1.499 . S
C259 H260 0.959 . S
C259 H261 0.960 . S
C259 H262 0.961 . S
H260 C259 0.959 . S
H261 C259 0.960 . S
H262 C259 0.961 . S
O263 Co238 1.967 . S
O263 C271 1.258 . S
O264 Co239 1.941 . S
O264 C271 1.266 . S
H265 C267 0.959 . S
H266 C267 0.961 . S
C267 C257 1.510 . S
C267 H265 0.959 . S
C267 H266 0.961 . S
C267 H268 0.960 . S
H268 C267 0.960 . S
H269 N249 0.862 . S
O270 Co238 1.920 . S
O270 C243 1.289 . S
C271 O263 1.258 . S
C271 O264 1.266 . S
Co272 O275 1.970 . S
Co272 N289 1.989 . S
Co272 O297 1.967 . S
Co272 O304 1.920 . S
Co273 O276 1.966 . S
Co273 N282 2.022 . S
Co273 N290 1.993 . S
Co273 O298 1.941 . S
C274 O275 1.258 . S
C274 O276 1.263 . S
O275 Co272 1.970 . S
O275 C274 1.258 . S
O276 Co273 1.966 . S
O276 C274 1.263 . S
C277 O278 1.235 1_565 S
C277 O304 1.289 . S
O278 C277 1.235 1_545 S
C279 C281 1.400 . S
C279 N282 1.351 . S
C279 C284 1.501 . S
C280 C281 1.387 . S
C280 N283 1.341 . S
C281 C279 1.400 . S
C281 C280 1.387 . S
N282 Co273 2.022 . S
N282 C279 1.351 . S
N282 N283 1.365 . S
N283 C280 1.341 . S
N283 N282 1.365 . S
N283 H303 0.862 . S
C284 C279 1.501 . S
C284 H285 0.961 . S
C284 H286 0.961 1_565 S
C284 H287 0.963 1_565 S
H285 C284 0.961 . S
H286 C284 0.961 1_545 S
H287 C284 0.963 1_545 S
C288 N289 1.342 . S
C288 C292 1.401 . S
C288 C293 1.499 . S
N289 Co272 1.989 . S
N289 C288 1.342 . S
N289 N290 1.388 . S
N290 Co273 1.993 . S
N290 N289 1.388 . S
N290 C291 1.346 . S
C291 N290 1.346 . S
C291 C292 1.396 . S
C291 C301 1.510 . S
C292 C288 1.401 . S
C292 C291 1.396 . S
C293 C288 1.499 . S
C293 H294 0.959 . S
C293 H295 0.960 . S
C293 H296 0.961 . S
H294 C293 0.959 . S
H295 C293 0.960 . S
H296 C293 0.961 . S
O297 Co272 1.967 . S
O297 C305 1.258 . S
O298 Co273 1.941 . S
O298 C305 1.266 . S
H299 C301 0.959 . S
H300 C301 0.961 . S
C301 C291 1.510 . S
C301 H299 0.959 . S
C301 H300 0.961 . S
C301 H302 0.960 . S
H302 C301 0.960 . S
H303 N283 0.862 . S
O304 Co272 1.920 . S
O304 C277 1.289 . S
C305 O297 1.258 . S
C305 O298 1.266 . S
Co306 O309 1.970 . S
Co306 N323 1.989 . S
Co306 O331 1.967 . S
Co306 O338 1.920 . S
Co307 O310 1.966 . S
Co307 N316 2.022 . S
Co307 N324 1.993 . S
Co307 O332 1.941 . S
C308 O309 1.258 . S
C308 O310 1.263 . S
O309 Co306 1.970 . S
O309 C308 1.258 . S
O310 Co307 1.966 . S
O310 C308 1.263 . S
C311 O312 1.235 . S
C311 O338 1.289 . S
O312 C311 1.235 . S
C313 C315 1.400 . S
C313 N316 1.351 . S
C313 C318 1.501 . S
C314 C315 1.387 . S
C314 N317 1.341 . S
C315 C313 1.400 . S
C315 C314 1.387 . S
N316 Co307 2.022 . S
N316 C313 1.351 . S
N316 N317 1.365 . S
N317 C314 1.341 . S
N317 N316 1.365 . S
N317 H337 0.862 . S
C318 C313 1.501 . S
C318 H319 0.961 . S
C318 H320 0.961 . S
C318 H321 0.960 . S
H319 C318 0.961 . S
H320 C318 0.961 . S
H321 C318 0.960 . S
C322 N323 1.342 . S
C322 C326 1.401 . S
C322 C327 1.499 . S
N323 Co306 1.989 . S
N323 C322 1.342 . S
N323 N324 1.388 . S
N324 Co307 1.993 . S
N324 N323 1.388 . S
N324 C325 1.346 . S
C325 N324 1.346 . S
C325 C326 1.396 . S
C325 C335 1.510 . S
C326 C322 1.401 . S
C326 C325 1.396 . S
C327 C322 1.499 . S
C327 H328 0.959 . S
C327 H329 0.960 . S
C327 H330 0.961 . S
H328 C327 0.959 . S
H329 C327 0.960 . S
H330 C327 0.961 . S
O331 Co306 1.967 . S
O331 C339 1.258 . S
O332 Co307 1.941 . S
O332 C339 1.266 . S
H333 C335 0.959 . S
H334 C335 0.961 . S
C335 C325 1.510 . S
C335 H333 0.959 . S
C335 H334 0.961 . S
C335 H336 0.960 . S
H336 C335 0.960 . S
H337 N317 0.862 . S
O338 Co306 1.920 . S
O338 C311 1.289 . S
C339 O331 1.258 . S
C339 O332 1.266 . S
Co340 O343 1.970 . S
Co340 N357 1.989 . S
Co340 O365 1.967 . S
Co340 O372 1.920 . S
Co341 O344 1.966 . S
Co341 N350 2.022 . S
Co341 N358 1.993 . S
Co341 O366 1.941 . S
C342 O343 1.258 . S
C342 O344 1.263 . S
O343 Co340 1.970 . S
O343 C342 1.258 . S
O344 Co341 1.966 . S
O344 C342 1.263 . S
C345 O346 1.235 1_455 S
C345 O372 1.289 . S
O346 C345 1.235 1_655 S
C347 C349 1.400 . S
C347 N350 1.351 . S
C347 C352 1.501 . S
C348 C349 1.387 . S
C348 N351 1.341 . S
C349 C347 1.400 . S
C349 C348 1.387 . S
N350 Co341 2.022 . S
N350 C347 1.351 . S
N350 N351 1.365 . S
N351 C348 1.341 . S
N351 N350 1.365 . S
N351 H371 0.862 . S
C352 C347 1.501 . S
C352 H353 0.961 . S
C352 H354 0.961 1_455 S
C352 H355 0.954 1_455 S
H353 C352 0.961 . S
H354 C352 0.961 1_655 S
H355 C352 0.954 1_655 S
C356 N357 1.342 . S
C356 C360 1.401 . S
C356 C361 1.499 . S
N357 Co340 1.989 . S
N357 C356 1.342 . S
N357 N358 1.388 . S
N358 Co341 1.993 . S
N358 N357 1.388 . S
N358 C359 1.346 . S
C359 N358 1.346 . S
C359 C360 1.396 . S
C359 C369 1.510 . S
C360 C356 1.401 . S
C360 C359 1.396 . S
C361 C356 1.499 . S
C361 H362 0.959 . S
C361 H363 0.960 . S
C361 H364 0.961 . S
H362 C361 0.959 . S
H363 C361 0.960 . S
H364 C361 0.961 . S
O365 Co340 1.967 . S
O365 C373 1.258 . S
O366 Co341 1.941 . S
O366 C373 1.266 . S
H367 C369 0.959 . S
H368 C369 0.961 . S
C369 C359 1.510 . S
C369 H367 0.959 . S
C369 H368 0.961 . S
C369 H370 0.960 . S
H370 C369 0.960 . S
H371 N351 0.862 . S
O372 Co340 1.920 . S
O372 C345 1.289 . S
C373 O365 1.258 . S
C373 O366 1.266 . S
Co374 O377 1.970 . S
Co374 N391 1.989 . S
Co374 O399 1.967 . S
Co374 O406 1.920 . S
Co375 O378 1.966 . S
Co375 N384 2.022 . S
Co375 N392 1.993 . S
Co375 O400 1.941 . S
C376 O377 1.258 . S
C376 O378 1.263 . S
O377 Co374 1.970 . S
O377 C376 1.258 . S
O378 Co375 1.966 . S
O378 C376 1.263 . S
C379 O380 1.235 1_545 S
C379 O406 1.289 . S
O380 C379 1.235 1_565 S
C381 C383 1.400 . S
C381 N384 1.351 . S
C381 C386 1.501 . S
C382 C383 1.387 . S
C382 N385 1.341 . S
C383 C381 1.400 . S
C383 C382 1.387 . S
N384 Co375 2.022 . S
N384 C381 1.351 . S
N384 N385 1.365 . S
N385 C382 1.341 . S
N385 N384 1.365 . S
N385 H405 0.862 . S
C386 C381 1.501 . S
C386 H387 0.961 . S
C386 H388 0.961 1_545 S
C386 H389 0.963 1_545 S
H387 C386 0.961 . S
H388 C386 0.961 1_565 S
H389 C386 0.963 1_565 S
C390 N391 1.342 . S
C390 C394 1.401 . S
C390 C395 1.499 . S
N391 Co374 1.989 . S
N391 C390 1.342 . S
N391 N392 1.388 . S
N392 Co375 1.993 . S
N392 N391 1.388 . S
N392 C393 1.346 . S
C393 N392 1.346 . S
C393 C394 1.396 . S
C393 C403 1.510 . S
C394 C390 1.401 . S
C394 C393 1.396 . S
C395 C390 1.499 . S
C395 H396 0.959 . S
C395 H397 0.960 . S
C395 H398 0.961 . S
H396 C395 0.959 . S
H397 C395 0.960 . S
H398 C395 0.961 . S
O399 Co374 1.967 . S
O399 C407 1.258 . S
O400 Co375 1.941 . S
O400 C407 1.266 . S
H401 C403 0.959 . S
H402 C403 0.961 . S
C403 C393 1.510 . S
C403 H401 0.959 . S
C403 H402 0.961 . S
C403 H404 0.960 . S
H404 C403 0.960 . S
H405 N385 0.862 . S
O406 Co374 1.920 . S
O406 C379 1.289 . S
C407 O399 1.258 . S
C407 O400 1.266 . S
H408 C416 0.950 . S
H409 C421 0.950 . S
H410 C418 0.950 . S
H411 C420 0.950 . S
H412 C422 0.950 . S
H413 C424 0.950 . S
H414 C426 0.950 . S
H415 C427 0.950 . S
C416 H408 0.950 . S
C416 C417 1.386 . S
C416 C418 1.391 . S
C417 C416 1.386 . S
C417 C421 1.393 . S
C418 H410 0.950 . S
C418 C416 1.391 . S
C418 C419 1.400 . S
C419 C418 1.400 . S
C419 C420 1.398 . S
C419 C425 1.491 . S
C420 H411 0.950 . S
C420 C419 1.398 . S
C420 C421 1.391 . S
C421 H409 0.950 . S
C421 C417 1.393 . S
C421 C420 1.391 . S
C422 H412 0.950 . S
C422 C423 1.386 . S
C422 C424 1.391 . S
C423 C422 1.386 . S
C423 C427 1.393 . S
C424 H413 0.950 . S
C424 C422 1.391 . S
C424 C425 1.400 . S
C425 C419 1.491 . S
C425 C424 1.400 . S
C425 C426 1.398 . S
C426 H414 0.950 . S
C426 C425 1.398 . S
C426 C427 1.391 . S
C427 H415 0.950 . S
C427 C423 1.393 . S
C427 C426 1.391 . S
H428 C436 0.950 . S
H429 C441 0.950 . S
H430 C438 0.950 . S
H431 C440 0.950 . S
H432 C442 0.950 . S
H433 C444 0.950 . S
H434 C446 0.950 . S
H435 C447 0.950 . S
C436 H428 0.950 . S
C436 C437 1.386 . S
C436 C438 1.391 . S
C437 C436 1.386 . S
C437 C441 1.393 1_455 S
C438 H430 0.950 . S
C438 C436 1.391 . S
C438 C439 1.400 . S
C439 C438 1.400 . S
C439 C440 1.398 1_455 S
C439 C445 1.491 1_455 S
C440 H431 0.950 . S
C440 C439 1.398 1_655 S
C440 C441 1.391 . S
C441 H429 0.950 . S
C441 C437 1.393 1_655 S
C441 C440 1.391 . S
C442 H432 0.950 . S
C442 C443 1.386 . S
C442 C444 1.391 . S
C443 C442 1.386 . S
C443 C447 1.393 1_655 S
C444 H433 0.950 . S
C444 C442 1.391 . S
C444 C445 1.400 . S
C445 C439 1.491 1_655 S
C445 C444 1.400 . S
C445 C446 1.398 1_655 S
C446 H434 0.950 . S
C446 C445 1.398 1_455 S
C446 C447 1.391 . S
C447 H435 0.950 . S
C447 C443 1.393 1_455 S
C447 C446 1.391 . S
H448 C456 0.950 . S
H449 C461 0.950 . S
H450 C458 0.950 . S
H451 C460 0.950 . S
H452 C462 0.950 . S
H453 C464 0.950 . S
H454 C466 0.950 . S
H455 C467 0.950 . S
C456 H448 0.950 . S
C456 C457 1.386 . S
C456 C458 1.391 . S
C457 C456 1.386 . S
C457 C461 1.393 . S
C458 H450 0.950 . S
C458 C456 1.391 . S
C458 C459 1.400 . S
C459 C458 1.400 . S
C459 C460 1.398 . S
C459 C465 1.491 1_545 S
C460 H451 0.950 . S
C460 C459 1.398 . S
C460 C461 1.391 . S
C461 H449 0.950 . S
C461 C457 1.393 . S
C461 C460 1.391 . S
C462 H452 0.950 . S
C462 C463 1.386 . S
C462 C464 1.391 . S
C463 C462 1.386 . S
C463 C467 1.393 . S
C464 H453 0.950 . S
C464 C462 1.391 . S
C464 C465 1.400 . S
C465 C459 1.491 1_565 S
C465 C464 1.400 . S
C465 C466 1.398 . S
C466 H454 0.950 . S
C466 C465 1.398 . S
C466 C467 1.391 . S
C467 H455 0.950 . S
C467 C463 1.393 . S
C467 C466 1.391 . S
H468 C476 0.950 . S
H469 C481 0.950 . S
H470 C478 0.950 . S
H471 C480 0.950 . S
H472 C482 0.950 . S
H473 C484 0.950 . S
H474 C486 0.950 . S
H475 C487 0.950 . S
C476 H468 0.950 . S
C476 C477 1.386 . S
C476 C478 1.391 . S
C477 C476 1.386 . S
C477 C481 1.393 . S
C478 H470 0.950 . S
C478 C476 1.391 . S
C478 C479 1.400 . S
C479 C478 1.400 . S
C479 C480 1.398 . S
C479 C485 1.491 . S
C480 H471 0.950 . S
C480 C479 1.398 . S
C480 C481 1.391 . S
C481 H469 0.950 . S
C481 C477 1.393 . S
C481 C480 1.391 . S
C482 H472 0.950 . S
C482 C483 1.386 . S
C482 C484 1.391 . S
C483 C482 1.386 . S
C483 C487 1.393 . S
C484 H473 0.950 . S
C484 C482 1.391 . S
C484 C485 1.400 . S
C485 C479 1.491 . S
C485 C484 1.400 . S
C485 C486 1.398 . S
C486 H474 0.950 . S
C486 C485 1.398 . S
C486 C487 1.391 . S
C487 H475 0.950 . S
C487 C483 1.393 . S
C487 C486 1.391 . S
H488 C496 0.950 . S
H489 C501 0.950 . S
H490 C498 0.950 . S
H491 C500 0.950 . S
H492 C502 0.950 . S
H493 C504 0.950 . S
H494 C506 0.950 . S
H495 C507 0.950 . S
C496 H488 0.950 . S
C496 C497 1.386 . S
C496 C498 1.391 . S
C497 C496 1.386 . S
C497 C501 1.393 1_655 S
C498 H490 0.950 . S
C498 C496 1.391 . S
C498 C499 1.400 . S
C499 C498 1.400 . S
C499 C500 1.398 1_655 S
C499 C505 1.491 1_655 S
C500 H491 0.950 . S
C500 C499 1.398 1_455 S
C500 C501 1.391 . S
C501 H489 0.950 . S
C501 C497 1.393 1_455 S
C501 C500 1.391 . S
C502 H492 0.950 . S
C502 C503 1.386 . S
C502 C504 1.391 . S
C503 C502 1.386 . S
C503 C507 1.393 1_455 S
C504 H493 0.950 . S
C504 C502 1.391 . S
C504 C505 1.400 . S
C505 C499 1.491 1_455 S
C505 C504 1.400 . S
C505 C506 1.398 1_455 S
C506 H494 0.950 . S
C506 C505 1.398 1_655 S
C506 C507 1.391 . S
C507 H495 0.950 . S
C507 C503 1.393 1_655 S
C507 C506 1.391 . S
H508 C516 0.950 . S
H509 C521 0.950 . S
H510 C518 0.950 . S
H511 C520 0.950 . S
H512 C522 0.950 . S
H513 C524 0.950 . S
H514 C526 0.950 . S
H515 C527 0.950 . S
C516 H508 0.950 . S
C516 C517 1.386 . S
C516 C518 1.391 . S
C517 C516 1.386 . S
C517 C521 1.393 1_565 S
C518 H510 0.950 . S
C518 C516 1.391 . S
C518 C519 1.400 . S
C519 C518 1.400 . S
C519 C520 1.398 1_565 S
C519 C525 1.491 1_565 S
C520 H511 0.950 . S
C520 C519 1.398 1_545 S
C520 C521 1.391 . S
C521 H509 0.950 . S
C521 C517 1.393 1_545 S
C521 C520 1.391 . S
C522 H512 0.950 . S
C522 C523 1.386 . S
C522 C524 1.391 . S
C523 C522 1.386 . S
C523 C527 1.393 1_545 S
C524 H513 0.950 . S
C524 C522 1.391 . S
C524 C525 1.400 . S
C525 C519 1.491 1_545 S
C525 C524 1.400 . S
C525 C526 1.398 1_545 S
C526 H514 0.950 . S
C526 C525 1.398 1_565 S
C526 C527 1.391 . S
C527 H515 0.950 . S
C527 C523 1.393 1_565 S
C527 C526 1.391 . S
H528 C536 0.950 . S
H529 C541 0.950 . S
H530 C538 0.950 . S
H531 C540 0.950 . S
H532 C542 0.950 . S
H533 C544 0.950 . S
H534 C546 0.950 . S
H535 C547 0.950 . S
C536 H528 0.950 . S
C536 C537 1.386 . S
C536 C538 1.391 . S
C537 C536 1.386 . S
C537 C541 1.393 . S
C538 H530 0.950 . S
C538 C536 1.391 . S
C538 C539 1.400 . S
C539 C538 1.400 . S
C539 C540 1.398 . S
C539 C545 1.491 . S
C540 H531 0.950 . S
C540 C539 1.398 . S
C540 C541 1.391 . S
C541 H529 0.950 . S
C541 C537 1.393 . S
C541 C540 1.391 . S
C542 H532 0.950 . S
C542 C543 1.386 . S
C542 C544 1.391 . S
C543 C542 1.386 . S
C543 C547 1.393 . S
C544 H533 0.950 . S
C544 C542 1.391 . S
C544 C545 1.400 . S
C545 C539 1.491 . S
C545 C544 1.400 . S
C545 C546 1.398 . S
C546 H534 0.950 . S
C546 C545 1.398 . S
C546 C547 1.391 . S
C547 H535 0.950 . S
C547 C543 1.393 . S
C547 C546 1.391 . S
H548 C556 0.950 . S
H549 C561 0.951 1_455 S
H550 C558 0.950 . S
H551 C560 0.950 . S
H552 C562 0.950 . S
H553 C564 0.950 . S
H554 C566 0.950 . S
H555 C567 0.950 1_655 S
C556 H548 0.950 . S
C556 C557 1.386 . S
C556 C558 1.391 . S
C557 C556 1.386 . S
C557 C561 1.393 . S
C558 H550 0.950 . S
C558 C556 1.391 . S
C558 C559 1.400 . S
C559 C558 1.400 . S
C559 C560 1.398 1_655 S
C559 C565 1.491 1_655 S
C560 H551 0.950 . S
C560 C559 1.398 1_455 S
C560 C561 1.391 1_455 S
C561 H549 0.951 1_655 S
C561 C557 1.393 . S
C561 C560 1.391 1_655 S
C562 H552 0.950 . S
C562 C563 1.386 . S
C562 C564 1.391 . S
C563 C562 1.386 . S
C563 C567 1.393 . S
C564 H553 0.950 . S
C564 C562 1.391 . S
C564 C565 1.400 . S
C565 C559 1.491 1_455 S
C565 C564 1.400 . S
C565 C566 1.398 1_455 S
C566 H554 0.950 . S
C566 C565 1.398 1_655 S
C566 C567 1.391 1_655 S
C567 H555 0.950 1_455 S
C567 C563 1.393 . S
C567 C566 1.391 1_455 S
H568 C576 0.950 . S
H569 C581 0.950 . S
H570 C578 0.950 . S
H571 C580 0.950 . S
H572 C582 0.950 . S
H573 C584 0.950 . S
H574 C586 0.950 . S
H575 C587 0.950 . S
C576 H568 0.950 . S
C576 C577 1.386 . S
C576 C578 1.391 . S
C577 C576 1.386 . S
C577 C581 1.393 . S
C578 H570 0.950 . S
C578 C576 1.391 . S
C578 C579 1.400 . S
C579 C578 1.400 . S
C579 C580 1.398 . S
C579 C585 1.491 1_544 S
C580 H571 0.950 . S
C580 C579 1.398 . S
C580 C581 1.391 . S
C581 H569 0.950 . S
C581 C577 1.393 . S
C581 C580 1.391 . S
C582 H572 0.950 . S
C582 C583 1.386 . S
C582 C584 1.391 . S
C583 C582 1.386 . S
C583 C587 1.393 . S
C584 H573 0.950 . S
C584 C582 1.391 . S
C584 C585 1.400 . S
C585 C579 1.491 1_566 S
C585 C584 1.400 . S
C585 C586 1.398 . S
C586 H574 0.950 . S
C586 C585 1.398 . S
C586 C587 1.391 . S
C587 H575 0.950 . S
C587 C583 1.393 . S
C587 C586 1.391 . S
H588 C596 0.950 . S
H589 C601 0.950 . S
H590 C598 0.950 . S
H591 C600 0.950 . S
H592 C602 0.950 . S
H593 C604 0.950 . S
H594 C606 0.950 . S
H595 C607 0.950 . S
C596 H588 0.950 . S
C596 C597 1.386 . S
C596 C598 1.391 . S
C597 C596 1.386 . S
C597 C601 1.393 . S
C598 H590 0.950 . S
C598 C596 1.391 . S
C598 C599 1.400 . S
C599 C598 1.400 . S
C599 C600 1.398 . S
C599 C605 1.491 . S
C600 H591 0.950 . S
C600 C599 1.398 . S
C600 C601 1.391 . S
C601 H589 0.950 . S
C601 C597 1.393 . S
C601 C600 1.391 . S
C602 H592 0.950 . S
C602 C603 1.386 . S
C602 C604 1.391 . S
C603 C602 1.386 . S
C603 C607 1.393 . S
C604 H593 0.950 . S
C604 C602 1.391 . S
C604 C605 1.400 . S
C605 C599 1.491 . S
C605 C604 1.400 . S
C605 C606 1.398 . S
C606 H594 0.950 . S
C606 C605 1.398 . S
C606 C607 1.391 . S
C607 H595 0.950 . S
C607 C603 1.393 . S
C607 C606 1.391 . S
H608 C616 0.950 1_655 S
H609 C621 0.950 . S
H610 C618 0.950 . S
H611 C620 0.950 . S
H612 C622 0.950 1_455 S
H613 C624 0.950 . S
H614 C626 0.950 . S
H615 C627 0.950 . S
C616 H608 0.950 1_455 S
C616 C617 1.386 . S
C616 C618 1.391 1_455 S
C617 C616 1.386 . S
C617 C621 1.393 . S
C618 H610 0.950 . S
C618 C616 1.391 1_655 S
C618 C619 1.400 1_655 S
C619 C618 1.400 1_455 S
C619 C620 1.398 . S
C619 C625 1.491 1_455 S
C620 H611 0.950 . S
C620 C619 1.398 . S
C620 C621 1.391 . S
C621 H609 0.950 . S
C621 C617 1.393 . S
C621 C620 1.391 . S
C622 H612 0.950 1_655 S
C622 C623 1.386 . S
C622 C624 1.391 1_655 S
C623 C622 1.386 . S
C623 C627 1.393 . S
C624 H613 0.950 . S
C624 C622 1.391 1_455 S
C624 C625 1.400 1_455 S
C625 C619 1.491 1_655 S
C625 C624 1.400 1_655 S
C625 C626 1.398 . S
C626 H614 0.950 . S
C626 C625 1.398 . S
C626 C627 1.391 . S
C627 H615 0.950 . S
C627 C623 1.393 . S
C627 C626 1.391 . S
H628 C636 0.950 . S
H629 C641 0.950 1_565 S
H630 C638 0.950 . S
H631 C640 0.950 . S
H632 C642 0.950 . S
H633 C644 0.950 . S
H634 C646 0.950 . S
H635 C647 0.950 1_545 S
C636 H628 0.950 . S
C636 C637 1.386 . S
C636 C638 1.391 . S
C637 C636 1.386 . S
C637 C641 1.393 . S
C638 H630 0.950 . S
C638 C636 1.391 . S
C638 C639 1.400 . S
C639 C638 1.400 . S
C639 C640 1.398 1_545 S
C639 C645 1.491 1_546 S
C640 H631 0.950 . S
C640 C639 1.398 1_565 S
C640 C641 1.391 1_565 S
C641 H629 0.950 1_545 S
C641 C637 1.393 . S
C641 C640 1.391 1_545 S
C642 H632 0.950 . S
C642 C643 1.386 . S
C642 C644 1.391 . S
C643 C642 1.386 . S
C643 C647 1.393 . S
C644 H633 0.950 . S
C644 C642 1.391 . S
C644 C645 1.400 . S
C645 C639 1.491 1_564 S
C645 C644 1.400 . S
C645 C646 1.398 1_565 S
C646 H634 0.950 . S
C646 C645 1.398 1_545 S
C646 C647 1.391 1_545 S
C647 H635 0.950 1_565 S
C647 C643 1.393 . S
C647 C646 1.391 1_565 S
H648 C656 0.950 . S
H649 C661 0.950 . S
H650 C658 0.950 . S
H651 C660 0.950 . S
H652 C662 0.950 . S
H653 C664 0.950 . S
H654 C666 0.950 . S
H655 C667 0.950 . S
C656 H648 0.950 . S
C656 C657 1.386 . S
C656 C658 1.391 . S
C657 C656 1.386 . S
C657 C661 1.393 . S
C658 H650 0.950 . S
C658 C656 1.391 . S
C658 C659 1.400 . S
C659 C658 1.400 . S
C659 C660 1.398 . S
C659 C665 1.491 1_445 S
C660 H651 0.950 . S
C660 C659 1.398 . S
C660 C661 1.391 . S
C661 H649 0.950 . S
C661 C657 1.393 . S
C661 C660 1.391 . S
C662 H652 0.950 . S
C662 C663 1.386 . S
C662 C664 1.391 . S
C663 C662 1.386 . S
C663 C667 1.393 . S
C664 H653 0.950 . S
C664 C662 1.391 . S
C664 C665 1.400 . S
C665 C659 1.491 1_665 S
C665 C664 1.400 . S
C665 C666 1.398 . S
C666 H654 0.950 . S
C666 C665 1.398 . S
C666 C667 1.391 . S
C667 H655 0.950 . S
C667 C663 1.393 . S
C667 C666 1.391 . S
H668 C676 0.950 . S
H669 C681 0.950 . S
H670 C678 0.950 . S
H671 C680 0.950 1_565 S
H672 C682 0.950 . S
H673 C684 0.950 . S
H674 C686 0.950 1_545 S
H675 C687 0.950 . S
C676 H668 0.950 . S
C676 C677 1.386 1_455 S
C676 C678 1.391 . S
C677 C676 1.386 1_655 S
C677 C681 1.393 . S
C678 H670 0.950 . S
C678 C676 1.391 . S
C678 C679 1.400 1_455 S
C679 C678 1.400 1_655 S
C679 C680 1.398 . S
C679 C685 1.491 1_645 S
C680 H671 0.950 1_545 S
C680 C679 1.398 . S
C680 C681 1.391 . S
C681 H669 0.950 . S
C681 C677 1.393 . S
C681 C680 1.391 . S
C682 H672 0.950 . S
C682 C683 1.386 1_655 S
C682 C684 1.391 . S
C683 C682 1.386 1_455 S
C683 C687 1.393 . S
C684 H673 0.950 . S
C684 C682 1.391 . S
C684 C685 1.400 1_655 S
C685 C679 1.491 1_465 S
C685 C684 1.400 1_455 S
C685 C686 1.398 . S
C686 H674 0.950 1_565 S
C686 C685 1.398 . S
C686 C687 1.391 . S
C687 H675 0.950 . S
C687 C683 1.393 . S
C687 C686 1.391 . S
H688 C696 0.950 . S
H689 C701 0.950 . S
H690 C698 0.950 . S
H691 C700 0.950 . S
H692 C702 0.950 . S
H693 C704 0.950 . S
H694 C706 0.950 . S
H695 C707 0.950 . S
C696 H688 0.950 . S
C696 C697 1.386 . S
C696 C698 1.391 . S
C697 C696 1.386 . S
C697 C701 1.393 1_545 S
C698 H690 0.950 . S
C698 C696 1.391 . S
C698 C699 1.400 . S
C699 C698 1.400 . S
C699 C700 1.398 1_545 S
C699 C705 1.491 1_445 S
C700 H691 0.950 . S
C700 C699 1.398 1_565 S
C700 C701 1.391 . S
C701 H689 0.950 . S
C701 C697 1.393 1_565 S
C701 C700 1.391 . S
C702 H692 0.950 . S
C702 C703 1.386 . S
C702 C704 1.391 . S
C703 C702 1.386 . S
C703 C707 1.393 1_565 S
C704 H693 0.950 . S
C704 C702 1.391 . S
C704 C705 1.400 . S
C705 C699 1.491 1_665 S
C705 C704 1.400 . S
C705 C706 1.398 1_565 S
C706 H694 0.950 . S
C706 C705 1.398 1_545 S
C706 C707 1.391 . S
C707 H695 0.950 . S
C707 C703 1.393 1_545 S
C707 C706 1.391 . S
H708 C716 0.950 . S
H709 C721 0.950 . S
H710 C718 0.950 . S
H711 C720 0.950 1_545 S
H712 C722 0.950 . S
H713 C724 0.950 . S
H714 C726 0.950 1_565 S
H715 C727 0.950 . S
C716 H708 0.950 . S
C716 C717 1.386 . S
C716 C718 1.391 . S
C717 C716 1.386 . S
C717 C721 1.393 . S
C718 H710 0.950 . S
C718 C716 1.391 . S
C718 C719 1.400 . S
C719 C718 1.400 . S
C719 C720 1.398 . S
C719 C725 1.491 1_665 S
C720 H711 0.950 1_565 S
C720 C719 1.398 . S
C720 C721 1.391 . S
C721 H709 0.950 . S
C721 C717 1.393 . S
C721 C720 1.391 . S
C722 H712 0.950 . S
C722 C723 1.386 . S
C722 C724 1.391 . S
C723 C722 1.386 . S
C723 C727 1.393 . S
C724 H713 0.950 . S
C724 C722 1.391 . S
C724 C725 1.400 . S
C725 C719 1.491 1_445 S
C725 C724 1.400 . S
C725 C726 1.398 . S
C726 H714 0.950 1_545 S
C726 C725 1.398 . S
C726 C727 1.391 . S
C727 H715 0.950 . S
C727 C723 1.393 . S
C727 C726 1.391 . S
H728 C736 0.950 . S
H729 C741 0.950 . S
H730 C738 0.950 . S
H731 C740 0.950 . S
H732 C742 0.950 . S
H733 C744 0.950 . S
H734 C746 0.950 . S
H735 C747 0.950 . S
C736 H728 0.950 . S
C736 C737 1.386 1_455 S
C736 C738 1.391 . S
C737 C736 1.386 1_655 S
C737 C741 1.393 . S
C738 H730 0.950 . S
C738 C736 1.391 . S
C738 C739 1.400 1_455 S
C739 C738 1.400 1_655 S
C739 C740 1.398 . S
C739 C745 1.491 1_665 S
C740 H731 0.950 . S
C740 C739 1.398 . S
C740 C741 1.391 . S
C741 H729 0.950 . S
C741 C737 1.393 . S
C741 C740 1.391 . S
C742 H732 0.950 . S
C742 C743 1.386 1_655 S
C742 C744 1.391 . S
C743 C742 1.386 1_455 S
C743 C747 1.393 . S
C744 H733 0.950 . S
C744 C742 1.391 . S
C744 C745 1.400 1_655 S
C745 C739 1.491 1_445 S
C745 C744 1.400 1_455 S
C745 C746 1.398 . S
C746 H734 0.950 . S
C746 C745 1.398 . S
C746 C747 1.391 . S
C747 H735 0.950 . S
C747 C743 1.393 . S
C747 C746 1.391 . S
H748 C756 0.950 . S
H749 C761 0.950 . S
H750 C758 0.950 . S
H751 C760 0.950 1_455 S
H752 C762 0.950 . S
H753 C764 0.950 . S
H754 C766 0.950 1_655 S
H755 C767 0.950 . S
C756 H748 0.950 . S
C756 C757 1.386 1_565 S
C756 C758 1.391 . S
C757 C756 1.386 1_545 S
C757 C761 1.393 . S
C758 H750 0.950 . S
C758 C756 1.391 . S
C758 C759 1.400 1_565 S
C759 C758 1.400 1_545 S
C759 C760 1.398 . S
C759 C765 1.491 1_645 S
C760 H751 0.950 1_655 S
C760 C759 1.398 . S
C760 C761 1.391 . S
C761 H749 0.950 . S
C761 C757 1.393 . S
C761 C760 1.391 . S
C762 H752 0.950 . S
C762 C763 1.386 1_545 S
C762 C764 1.391 . S
C763 C762 1.386 1_565 S
C763 C767 1.393 . S
C764 H753 0.950 . S
C764 C762 1.391 . S
C764 C765 1.400 1_545 S
C765 C759 1.491 1_465 S
C765 C764 1.400 1_565 S
C765 C766 1.398 . S
C766 H754 0.950 1_455 S
C766 C765 1.398 . S
C766 C767 1.391 . S
C767 H755 0.950 . S
C767 C763 1.393 . S
C767 C766 1.391 . S
H768 C776 0.950 . S
H769 C781 0.950 . S
H770 C778 0.950 . S
H771 C780 0.950 1_455 S
H772 C782 0.950 . S
H773 C784 0.950 . S
H774 C786 0.950 1_655 S
H775 C787 0.950 . S
C776 H768 0.950 . S
C776 C777 1.386 . S
C776 C778 1.391 . S
C777 C776 1.386 . S
C777 C781 1.393 . S
C778 H770 0.950 . S
C778 C776 1.391 . S
C778 C779 1.400 . S
C779 C778 1.400 . S
C779 C780 1.398 . S
C779 C785 1.491 1_655 S
C780 H771 0.950 1_655 S
C780 C779 1.398 . S
C780 C781 1.391 . S
C781 H769 0.950 . S
C781 C777 1.393 . S
C781 C780 1.391 . S
C782 H772 0.950 . S
C782 C783 1.386 . S
C782 C784 1.391 . S
C783 C782 1.386 . S
C783 C787 1.393 . S
C784 H773 0.950 . S
C784 C782 1.391 . S
C784 C785 1.400 . S
C785 C779 1.491 1_455 S
C785 C784 1.400 . S
C785 C786 1.398 . S
C786 H774 0.950 1_455 S
C786 C785 1.398 . S
C786 C787 1.391 . S
C787 H775 0.950 . S
C787 C783 1.393 . S
C787 C786 1.391 . S
H788 C796 0.950 . S
H789 C801 0.950 . S
H790 C798 0.950 . S
H791 C800 0.950 . S
H792 C802 0.950 . S
H793 C804 0.950 . S
H794 C806 0.950 . S
H795 C807 0.950 . S
C796 H788 0.950 . S
C796 C797 1.386 . S
C796 C798 1.391 . S
C797 C796 1.386 . S
C797 C801 1.393 . S
C798 H790 0.950 . S
C798 C796 1.391 . S
C798 C799 1.400 . S
C799 C798 1.400 . S
C799 C800 1.398 . S
C799 C805 1.491 1_545 S
C800 H791 0.950 . S
C800 C799 1.398 . S
C800 C801 1.391 . S
C801 H789 0.950 . S
C801 C797 1.393 . S
C801 C800 1.391 . S
C802 H792 0.950 . S
C802 C803 1.386 . S
C802 C804 1.391 . S
C803 C802 1.386 . S
C803 C807 1.393 . S
C804 H793 0.950 . S
C804 C802 1.391 . S
C804 C805 1.400 . S
C805 C799 1.491 1_565 S
C805 C804 1.400 . S
C805 C806 1.398 . S
C806 H794 0.950 . S
C806 C805 1.398 . S
C806 C807 1.391 . S
C807 H795 0.950 . S
C807 C803 1.393 . S
C807 C806 1.391 . S
H808 C816 0.950 . S
H809 C821 0.950 . S
H810 C818 0.950 . S
H811 C820 0.950 . S
H812 C822 0.950 . S
H813 C824 0.950 . S
H814 C826 0.950 . S
H815 C827 0.950 . S
C816 H808 0.950 . S
C816 C817 1.386 . S
C816 C818 1.391 . S
C817 C816 1.386 . S
C817 C821 1.393 . S
C818 H810 0.950 . S
C818 C816 1.391 . S
C818 C819 1.400 . S
C819 C818 1.400 . S
C819 C820 1.398 . S
C819 C825 1.491 . S
C820 H811 0.950 . S
C820 C819 1.398 . S
C820 C821 1.391 . S
C821 H809 0.950 . S
C821 C817 1.393 . S
C821 C820 1.391 . S
C822 H812 0.950 . S
C822 C823 1.386 . S
C822 C824 1.391 . S
C823 C822 1.386 . S
C823 C827 1.393 . S
C824 H813 0.950 . S
C824 C822 1.391 . S
C824 C825 1.400 . S
C825 C819 1.491 . S
C825 C824 1.400 . S
C825 C826 1.398 . S
C826 H814 0.950 . S
C826 C825 1.398 . S
C826 C827 1.391 . S
C827 H815 0.950 . S
C827 C823 1.393 . S
C827 C826 1.391 . S
H828 C836 0.950 . S
H829 C841 0.950 . S
H830 C838 0.950 . S
H831 C840 0.950 . S
H832 C842 0.950 . S
H833 C844 0.950 . S
H834 C846 0.950 . S
H835 C847 0.950 . S
C836 H828 0.950 . S
C836 C837 1.386 . S
C836 C838 1.391 . S
C837 C836 1.386 . S
C837 C841 1.393 . S
C838 H830 0.950 . S
C838 C836 1.391 . S
C838 C839 1.400 . S
C839 C838 1.400 . S
C839 C840 1.398 . S
C839 C845 1.491 1_455 S
C840 H831 0.950 . S
C840 C839 1.398 . S
C840 C841 1.391 . S
C841 H829 0.950 . S
C841 C837 1.393 . S
C841 C840 1.391 . S
C842 H832 0.950 . S
C842 C843 1.386 . S
C842 C844 1.391 . S
C843 C842 1.386 . S
C843 C847 1.393 . S
C844 H833 0.950 . S
C844 C842 1.391 . S
C844 C845 1.400 . S
C845 C839 1.491 1_655 S
C845 C844 1.400 . S
C845 C846 1.398 . S
C846 H834 0.950 . S
C846 C845 1.398 . S
C846 C847 1.391 . S
C847 H835 0.950 . S
C847 C843 1.393 . S
C847 C846 1.391 . S
H848 C856 0.950 . S
H849 C861 0.950 . S
H850 C858 0.950 . S
H851 C860 0.950 . S
H852 C862 0.950 . S
H853 C864 0.950 . S
H854 C866 0.950 . S
H855 C867 0.950 . S
C856 H848 0.950 . S
C856 C857 1.386 . S
C856 C858 1.391 . S
C857 C856 1.386 . S
C857 C861 1.393 . S
C858 H850 0.950 . S
C858 C856 1.391 . S
C858 C859 1.400 . S
C859 C858 1.400 . S
C859 C860 1.398 . S
C859 C865 1.491 1_565 S
C860 H851 0.950 . S
C860 C859 1.398 . S
C860 C861 1.391 . S
C861 H849 0.950 . S
C861 C857 1.393 . S
C861 C860 1.391 . S
C862 H852 0.950 . S
C862 C863 1.386 . S
C862 C864 1.391 . S
C863 C862 1.386 . S
C863 C867 1.393 . S
C864 H853 0.950 . S
C864 C862 1.391 . S
C864 C865 1.400 . S
C865 C859 1.491 1_545 S
C865 C864 1.400 . S
C865 C866 1.398 . S
C866 H854 0.950 . S
C866 C865 1.398 . S
C866 C867 1.391 . S
C867 H855 0.950 . S
C867 C863 1.393 . S
C867 C866 1.391 . S
H868 C876 0.950 . S
H869 C881 0.950 . S
H870 C878 0.950 . S
H871 C880 0.950 . S
H872 C882 0.950 . S
H873 C884 0.950 . S
H874 C886 0.950 . S
H875 C887 0.950 . S
C876 H868 0.950 . S
C876 C877 1.386 . S
C876 C878 1.391 . S
C877 C876 1.386 . S
C877 C881 1.393 . S
C878 H870 0.950 . S
C878 C876 1.391 . S
C878 C879 1.400 . S
C879 C878 1.400 . S
C879 C880 1.398 . S
C879 C885 1.491 . S
C880 H871 0.950 . S
C880 C879 1.398 . S
C880 C881 1.391 . S
C881 H869 0.950 . S
C881 C877 1.393 . S
C881 C880 1.391 . S
C882 H872 0.950 . S
C882 C883 1.386 . S
C882 C884 1.391 . S
C883 C882 1.386 . S
C883 C887 1.393 . S
C884 H873 0.950 . S
C884 C882 1.391 . S
C884 C885 1.400 . S
C885 C879 1.491 . S
C885 C884 1.400 . S
C885 C886 1.398 . S
C886 H874 0.950 . S
C886 C885 1.398 . S
C886 C887 1.391 . S
C887 H875 0.950 . S
C887 C883 1.393 . S
C887 C886 1.391 . S
H888 C896 0.950 . S
H889 C901 0.950 . S
H890 C898 0.950 . S
H891 C900 0.950 . S
H892 C902 0.950 . S
H893 C904 0.950 . S
H894 C906 0.950 . S
H895 C907 0.950 . S
C896 H888 0.950 . S
C896 C897 1.386 . S
C896 C898 1.391 . S
C897 C896 1.386 . S
C897 C901 1.393 . S
C898 H890 0.950 . S
C898 C896 1.391 . S
C898 C899 1.400 . S
C899 C898 1.400 . S
C899 C900 1.398 . S
C899 C905 1.491 . S
C900 H891 0.950 . S
C900 C899 1.398 . S
C900 C901 1.391 . S
C901 H889 0.950 . S
C901 C897 1.393 . S
C901 C900 1.391 . S
C902 H892 0.950 . S
C902 C903 1.386 . S
C902 C904 1.391 . S
C903 C902 1.386 . S
C903 C907 1.393 . S
C904 H893 0.950 . S
C904 C902 1.391 . S
C904 C905 1.400 . S
C905 C899 1.491 . S
C905 C904 1.400 . S
C905 C906 1.398 . S
C906 H894 0.950 . S
C906 C905 1.398 . S
C906 C907 1.391 . S
C907 H895 0.950 . S
C907 C903 1.393 . S
C907 C906 1.391 . S
H908 C916 0.950 1_655 S
H909 C921 0.950 . S
H910 C918 0.950 . S
H911 C920 0.950 . S
H912 C922 0.950 . S
H913 C924 0.950 . S
H914 C926 0.950 . S
H915 C927 0.950 . S
C916 H908 0.950 1_455 S
C916 C917 1.386 . S
C916 C918 1.391 . S
C917 C916 1.386 . S
C917 C921 1.393 . S
C918 H910 0.950 . S
C918 C916 1.391 . S
C918 C919 1.400 . S
C919 C918 1.400 . S
C919 C920 1.398 . S
C919 C925 1.491 . S
C920 H911 0.950 . S
C920 C919 1.398 . S
C920 C921 1.391 . S
C921 H909 0.950 . S
C921 C917 1.393 . S
C921 C920 1.391 . S
C922 H912 0.950 . S
C922 C923 1.386 . S
C922 C924 1.391 . S
C923 C922 1.386 . S
C923 C927 1.393 . S
C924 H913 0.950 . S
C924 C922 1.391 . S
C924 C925 1.400 . S
C925 C919 1.491 . S
C925 C924 1.400 . S
C925 C926 1.398 . S
C926 H914 0.950 . S
C926 C925 1.398 . S
C926 C927 1.391 . S
C927 H915 0.950 . S
C927 C923 1.393 . S
C927 C926 1.391 . S
H928 C936 0.950 . S
H929 C941 0.950 1_455 S
H930 C938 0.950 . S
H931 C940 0.950 . S
H932 C942 0.950 . S
H933 C944 0.950 . S
H934 C946 0.950 . S
H935 C947 0.950 . S
C936 H928 0.950 . S
C936 C937 1.386 . S
C936 C938 1.391 . S
C937 C936 1.386 . S
C937 C941 1.393 . S
C938 H930 0.950 . S
C938 C936 1.391 . S
C938 C939 1.400 . S
C939 C938 1.400 . S
C939 C940 1.398 . S
C939 C945 1.491 . S
C940 H931 0.950 . S
C940 C939 1.398 . S
C940 C941 1.391 . S
C941 H929 0.950 1_655 S
C941 C937 1.393 . S
C941 C940 1.391 . S
C942 H932 0.950 . S
C942 C943 1.386 . S
C942 C944 1.391 . S
C943 C942 1.386 . S
C943 C947 1.393 . S
C944 H933 0.950 . S
C944 C942 1.391 . S
C944 C945 1.400 . S
C945 C939 1.491 . S
C945 C944 1.400 . S
C945 C946 1.398 . S
C946 H934 0.950 . S
C946 C945 1.398 . S
C946 C947 1.391 . S
C947 H935 0.950 . S
C947 C943 1.393 . S
C947 C946 1.391 . S
H948 C956 0.950 . S
H949 C961 0.950 . S
H950 C958 0.950 . S
H951 C960 0.950 . S
H952 C962 0.950 . S
H953 C964 0.950 . S
H954 C966 0.950 . S
H955 C967 0.950 1_545 S
C956 H948 0.950 . S
C956 C957 1.386 . S
C956 C958 1.391 . S
C957 C956 1.386 . S
C957 C961 1.393 . S
C958 H950 0.950 . S
C958 C956 1.391 . S
C958 C959 1.400 . S
C959 C958 1.400 . S
C959 C960 1.398 . S
C959 C965 1.491 . S
C960 H951 0.950 . S
C960 C959 1.398 . S
C960 C961 1.391 . S
C961 H949 0.950 . S
C961 C957 1.393 . S
C961 C960 1.391 . S
C962 H952 0.950 . S
C962 C963 1.386 . S
C962 C964 1.391 . S
C963 C962 1.386 . S
C963 C967 1.393 . S
C964 H953 0.950 . S
C964 C962 1.391 . S
C964 C965 1.400 . S
C965 C959 1.491 . S
C965 C964 1.400 . S
C965 C966 1.398 . S
C966 H954 0.950 . S
C966 C965 1.398 . S
C966 C967 1.391 . S
C967 H955 0.950 1_565 S
C967 C963 1.393 . S
C967 C966 1.391 . S
H968 C976 0.950 . S
H969 C981 0.950 . S
H970 C978 0.950 . S
H971 C980 0.950 . S
H972 C982 0.950 . S
H973 C984 0.950 . S
H974 C986 0.950 . S
H975 C987 0.950 1_455 S
C976 H968 0.950 . S
C976 C977 1.386 . S
C976 C978 1.391 . S
C977 C976 1.386 . S
C977 C981 1.393 . S
C978 H970 0.950 . S
C978 C976 1.391 . S
C978 C979 1.400 . S
C979 C978 1.400 . S
C979 C980 1.398 . S
C979 C985 1.491 . S
C980 H971 0.950 . S
C980 C979 1.398 . S
C980 C981 1.391 . S
C981 H969 0.950 . S
C981 C977 1.393 . S
C981 C980 1.391 . S
C982 H972 0.950 . S
C982 C983 1.386 . S
C982 C984 1.391 . S
C983 C982 1.386 . S
C983 C987 1.393 . S
C984 H973 0.950 . S
C984 C982 1.391 . S
C984 C985 1.400 . S
C985 C979 1.491 . S
C985 C984 1.400 . S
C985 C986 1.398 . S
C986 H974 0.950 . S
C986 C985 1.398 . S
C986 C987 1.391 . S
C987 H975 0.950 1_655 S
C987 C983 1.393 . S
C987 C986 1.391 . S
H988 C996 0.950 . S
H989 C1001 0.950 1_545 S
H990 C998 0.950 . S
H991 C1000 0.950 . S
H992 C1002 0.920 1_655 S
H993 C1004 0.950 . S
H994 C1006 0.950 . S
H995 C1007 0.950 . S
C996 H988 0.950 . S
C996 C997 1.386 . S
C996 C998 1.391 . S
C997 C996 1.386 . S
C997 C1001 1.393 . S
C998 H990 0.950 . S
C998 C996 1.391 . S
C998 C999 1.400 . S
C999 C998 1.400 . S
C999 C1000 1.398 . S
C999 C1005 1.491 . S
C1000 H991 0.950 . S
C1000 C999 1.398 . S
C1000 C1001 1.391 . S
C1001 H989 0.950 1_565 S
C1001 C997 1.393 . S
C1001 C1000 1.391 . S
C1002 H992 0.920 1_455 S
C1002 C1003 1.386 . S
C1002 C1004 1.391 . S
C1003 C1002 1.386 . S
C1003 C1007 1.393 . S
C1004 H993 0.950 . S
C1004 C1002 1.391 . S
C1004 C1005 1.400 . S
C1005 C999 1.491 . S
C1005 C1004 1.400 . S
C1005 C1006 1.398 . S
C1006 H994 0.950 . S
C1006 C1005 1.398 . S
C1006 C1007 1.391 . S
C1007 H995 0.950 . S
C1007 C1003 1.393 . S
C1007 C1006 1.391 . S
C417 C111 1.478 . S
C423 C9 1.479 . S
C437 C145 1.477 . S
C443 C43 1.478 . S
C457 C179 1.481 . S
C463 C77 1.481 . S
C477 C213 1.471 . S
C483 C315 1.470 . S
C497 C247 1.473 . S
C503 C349 1.474 . S
C517 C281 1.475 . S
C523 C383 1.476 . S
C537 C326 1.915 . S
C543 C20 1.922 . S
C557 C54 1.921 . S
C563 C360 1.927 . S
C577 C394 1.928 . S
C583 C88 1.929 . S
C597 C224 1.908 . S
C603 C122 1.913 . S
C617 C156 1.916 . S
C623 C258 1.910 . S
C637 C190 1.911 . S
C643 C292 1.918 . S
C657 C5 0.289 . S
C663 C107 0.303 . S
C677 C39 0.282 . S
C683 C141 0.247 . S
C697 C175 0.264 . S
C703 C73 0.295 . S
C717 C209 0.293 . S
C723 C311 0.260 . S
C737 C243 0.298 . S
C743 C345 0.269 . S
C757 C379 0.301 . S
C763 C277 0.278 . S
C777 C407 1.553 . S
C783 C33 1.569 . S
C797 C67 1.563 . S
C803 C237 1.560 . S
C817 C271 1.574 . S
C823 C101 1.548 . S
C837 C305 1.564 . S
C843 C135 1.560 . S
C857 C169 1.560 . S
C863 C339 1.563 . S
C877 C203 1.562 . S
C883 C373 1.561 . S
C897 C2 1.093 . S
C903 C274 1.075 1_545 S
C917 C36 1.093 1_455 S
C923 C308 1.072 . S
C937 C342 1.063 1_655 S
C943 C70 1.070 1_545 S
C957 C104 1.091 . S
C963 C376 1.087 1_565 S
C977 C206 1.074 . S
C983 C138 1.093 1_655 S
C997 C172 1.064 1_565 S
C1003 C240 1.068 1_455 S
