# Generated by pormake.
# Topology smu, (6)-cn, num edge types: 1
# Building blocks:
#     Node 0, Type 0, BuildingBlock: PAMTOO_clean_sbu_0, # of connection points: 6
#     Node 1, Type 0, BuildingBlock: PAMTOO_clean_sbu_0, # of connection points: 6
#     Node 2, Type 0, BuildingBlock: PAMTOO_clean_sbu_0, # of connection points: 6
#     Node 3, Type 0, BuildingBlock: PAMTOO_clean_sbu_0, # of connection points: 6
#     Node 4, Type 0, BuildingBlock: PAMTOO_clean_sbu_0, # of connection points: 6
#     Node 5, Type 0, BuildingBlock: PAMTOO_clean_sbu_0, # of connection points: 6
#     Edge 6, Type (0, 0), BuildingBlock: CIFDUS_clean_linker_0, # of connection points: 2
#     Edge 7, Type (0, 0), BuildingBlock: CIFDUS_clean_linker_0, # of connection points: 2
#     Edge 8, Type (0, 0), BuildingBlock: CIFDUS_clean_linker_0, # of connection points: 2
#     Edge 9, Type (0, 0), BuildingBlock: CIFDUS_clean_linker_0, # of connection points: 2
#     Edge 10, Type (0, 0), BuildingBlock: CIFDUS_clean_linker_0, # of connection points: 2
#     Edge 11, Type (0, 0), BuildingBlock: CIFDUS_clean_linker_0, # of connection points: 2
#     Edge 12, Type (0, 0), BuildingBlock: CIFDUS_clean_linker_0, # of connection points: 2
#     Edge 13, Type (0, 0), BuildingBlock: CIFDUS_clean_linker_0, # of connection points: 2
#     Edge 14, Type (0, 0), BuildingBlock: CIFDUS_clean_linker_0, # of connection points: 2
#     Edge 15, Type (0, 0), BuildingBlock: CIFDUS_clean_linker_0, # of connection points: 2
#     Edge 16, Type (0, 0), BuildingBlock: CIFDUS_clean_linker_0, # of connection points: 2
#     Edge 17, Type (0, 0), BuildingBlock: CIFDUS_clean_linker_0, # of connection points: 2
#     Edge 18, Type (0, 0), BuildingBlock: CIFDUS_clean_linker_0, # of connection points: 2
#     Edge 19, Type (0, 0), BuildingBlock: CIFDUS_clean_linker_0, # of connection points: 2
#     Edge 20, Type (0, 0), BuildingBlock: CIFDUS_clean_linker_0, # of connection points: 2
#     Edge 21, Type (0, 0), BuildingBlock: CIFDUS_clean_linker_0, # of connection points: 2
#     Edge 22, Type (0, 0), BuildingBlock: CIFDUS_clean_linker_0, # of connection points: 2
#     Edge 23, Type (0, 0), BuildingBlock: CIFDUS_clean_linker_0, # of connection points: 2
# Relax obj value: 0.222
# Max RMSD: 0.320
# Mean RMSD: 0.320
data_MOF--net-smu--node1-PAMTOO_clean_sbu_0--edge1-CIFDUS_clean_linker_0
_symmetry_space_group_name_H-M    P1
_symmetry_Int_Tables_number       1
_symmetry_cell_setting            triclinic
loop_
_symmetry_equiv_pos_as_xyz
'x, y, z'
_cell_length_a     36.032141
_cell_length_b     36.028146
_cell_length_c     24.293638
_cell_angle_alpha  90.293636
_cell_angle_beta   89.811873
_cell_angle_gamma 119.92004
loop_
_atom_site_label
_atom_site_type_symbol
_atom_site_fract_x
_atom_site_fract_y
_atom_site_fract_z
_atom_type_partial_charge
Dy0 Dy 0.37892 0.08013 0.25417 0.0
Dy1 Dy 0.30985 0.11408 0.26199 0.0
C2 C 0.3332 0.07621 0.36811 0.0
O3 O 0.31285 0.01927 0.26167 0.0
O4 O 0.26691 0.04575 0.24336 0.0
O5 O 0.41888 0.05797 0.29196 0.0
O6 O 0.42639 0.07442 0.20564 0.0
O7 O 0.31833 0.10477 0.17031 0.0
O8 O 0.34276 0.05684 0.17636 0.0
O9 O 0.37242 0.16097 0.29947 0.0
O10 O 0.41224 0.15118 0.23667 0.0
O11 O 0.30642 0.17138 0.24576 0.0
O12 O 0.25347 0.11703 0.28678 0.0
C13 C 0.274 0.01378 0.25161 0.0
O14 O 0.36999 0.08737 0.3439 0.0
O15 O 0.30299 0.07995 0.34252 0.0
C16 C 0.48926 0.08695 0.25282 0.0
C17 C 0.5804 0.12946 0.25965 0.0
C18 C 0.55626 0.13901 0.29714 0.0
C19 C 0.51126 0.11806 0.29374 0.0
C20 C 0.51321 0.07764 0.21526 0.0
C21 C 0.55801 0.09856 0.21849 0.0
C22 C 0.44173 0.06403 0.24758 0.0
C23 C 0.32486 0.07466 0.14833 0.0
C24 C 0.40735 0.17695 0.27024 0.0
C25 C 0.23978 0.17142 0.24997 0.0
C26 C 0.18349 0.20317 0.22691 0.0
C27 C 0.22628 0.23119 0.24179 0.0
C28 C 0.25402 0.21549 0.25303 0.0
C29 C 0.19728 0.14327 0.23417 0.0
C30 C 0.1695 0.15903 0.22248 0.0
C31 C 0.26895 0.15624 0.2691 0.0
H32 H 0.57205 0.16226 0.32971 0.0
H33 H 0.49372 0.12613 0.32316 0.0
H34 H 0.49715 0.05409 0.18302 0.0
H35 H 0.57513 0.09078 0.18808 0.0
H36 H 0.23832 0.26531 0.24504 0.0
H37 H 0.28656 0.23786 0.26562 0.0
H38 H 0.18526 0.10911 0.23202 0.0
H39 H 0.13662 0.13643 0.21168 0.0
Dy40 Dy 0.71898 0.6353 0.25359 0.0
Dy41 Dy 0.82049 0.71304 0.27701 0.0
C42 C 0.74595 0.67948 0.37387 0.0
O43 O 0.71774 0.6971 0.24295 0.0
O44 O 0.78134 0.74468 0.28683 0.0
O45 O 0.652 0.59146 0.27299 0.0
O46 O 0.6789 0.58506 0.19633 0.0
O47 O 0.80802 0.72674 0.19082 0.0
O48 O 0.74705 0.66265 0.17104 0.0
O49 O 0.82216 0.65409 0.25032 0.0
O50 O 0.75672 0.60547 0.28355 0.0
O51 O 0.87922 0.77177 0.25864 0.0
O52 O 0.87528 0.73517 0.33136 0.0
C53 C 0.74452 0.73519 0.26415 0.0
O54 O 0.71516 0.654 0.34007 0.0
O55 O 0.78679 0.70049 0.35943 0.0
C56 C 0.62206 0.52067 0.23312 0.0
C57 C 0.57503 0.4294 0.23718 0.0
C58 C 0.59023 0.45406 0.28581 0.0
C59 C 0.61355 0.49915 0.28382 0.0
C60 C 0.60684 0.49608 0.18476 0.0
C61 C 0.5838 0.45123 0.18668 0.0
C62 C 0.64566 0.56832 0.22874 0.0
C63 C 0.77719 0.70135 0.15681 0.0
C64 C 0.79513 0.61517 0.26694 0.0
C65 C 0.94571 0.78524 0.29895 0.0
C66 C 0.03656 0.82593 0.29433 0.0
C67 C 0.01121 0.80388 0.24814 0.0
C68 C 0.96626 0.78389 0.25036 0.0
C69 C 0.97071 0.80578 0.34541 0.0
C70 C 0.0154 0.82591 0.34319 0.0
C71 C 0.89904 0.76924 0.30209 0.0
H72 H 0.58448 0.43852 0.32544 0.0
H73 H 0.62483 0.51706 0.32191 0.0
H74 H 0.61254 0.51168 0.14513 0.0
H75 H 0.57213 0.43367 0.14842 0.0
H76 H 0.02608 0.80255 0.20996 0.0
H77 H 0.94771 0.76823 0.21388 0.0
H78 H 0.95564 0.8076 0.38323 0.0
H79 H 0.03332 0.84307 0.37938 0.0
Dy80 Dy 0.9289 0.29102 0.24692 0.0
Dy81 Dy 0.91182 0.19079 0.26383 0.0
C82 C 0.94266 0.26096 0.36634 0.0
O83 O 0.99419 0.29568 0.23707 0.0
O84 O 0.9817 0.23073 0.27275 0.0
O85 O 0.95969 0.35952 0.26354 0.0
O86 O 0.91123 0.33061 0.20017 0.0
O87 O 0.94044 0.20889 0.17892 0.0
O88 O 0.92974 0.26588 0.16273 0.0
O89 O 0.85002 0.18572 0.23875 0.0
O90 O 0.85914 0.24954 0.27011 0.0
O91 O 0.88712 0.13655 0.31872 0.0
O92 O 0.90981 0.13223 0.23723 0.0
C93 C 1.00746 0.26924 0.25391 0.0
O94 O 0.93996 0.28987 0.33664 0.0
O95 O 0.93298 0.22284 0.34711 0.0
C96 C 0.92015 0.39523 0.24133 0.0
C97 C 0.89473 0.45821 0.25275 0.0
C98 C 0.93583 0.4669 0.26902 0.0
C99 C 0.94836 0.43593 0.2632 0.0
C100 C 0.8785 0.38584 0.22693 0.0
C101 C 0.86596 0.41686 0.23267 0.0
C102 C 0.93646 0.36553 0.22741 0.0
C103 C 0.94275 0.2393 0.14664 0.0
C104 C 0.83394 0.20958 0.25469 0.0
C105 C 0.86314 0.06623 0.28393 0.0
C106 C 0.80955 0.97598 0.28739 0.0
C107 C 0.80627 0.99997 0.24382 0.0
C108 C 0.83287 0.04481 0.2421 0.0
C109 C 0.86618 0.04244 0.32724 0.0
C110 C 0.84002 0.99807 0.3289 0.0
C111 C 0.89363 0.1128 0.28375 0.0
H112 H 0.95872 0.49798 0.28558 0.0
H113 H 0.98074 0.44434 0.27427 0.0
H114 H 0.85594 0.35498 0.20946 0.0
H115 H 0.83421 0.40891 0.2192 0.0
H116 H 0.78317 0.98416 0.21119 0.0
H117 H 0.83003 0.06258 0.20813 0.0
H118 H 0.88959 0.05821 0.35964 0.0
H119 H 0.84463 0.981 0.36231 0.0
Dy120 Dy 0.08293 0.38179 0.76193 0.0
Dy121 Dy 0.11514 0.31067 0.75896 0.0
C122 C 0.0747 0.32918 0.6504 0.0
O123 O 0.02342 0.31762 0.77819 0.0
O124 O 0.04549 0.27236 0.74149 0.0
O125 O 0.06604 0.4239 0.71957 0.0
O126 O 0.06822 0.42452 0.80832 0.0
O127 O 0.08545 0.30372 0.84249 0.0
O128 O 0.09425 0.37095 0.84957 0.0
O129 O 0.16998 0.37342 0.78709 0.0
O130 O 0.15281 0.41669 0.73946 0.0
O131 O 0.11246 0.25252 0.78647 0.0
O132 O 0.16321 0.29535 0.72958 0.0
C133 C 0.01545 0.27944 0.76079 0.0
O134 O 0.05959 0.34881 0.68102 0.0
O135 O 0.10284 0.31917 0.66981 0.0
C136 C 0.0844 0.48952 0.7638 0.0
C137 C 0.12151 0.57961 0.75524 0.0
C138 C 0.14695 0.56016 0.74978 0.0
C139 C 0.12851 0.51547 0.75383 0.0
C140 C 0.05931 0.5089 0.77088 0.0
C141 C 0.07758 0.55334 0.76672 0.0
C142 C 0.06331 0.44226 0.76448 0.0
C143 C 0.08317 0.33345 0.87135 0.0
C144 C 0.18169 0.41013 0.76315 0.0
C145 C 0.16351 0.23037 0.75879 0.0
C146 C 0.19802 0.17546 0.77055 0.0
C147 C 0.15534 0.1618 0.78545 0.0
C148 C 0.1384 0.18895 0.7799 0.0
C149 C 0.20561 0.24365 0.74161 0.0
C150 C 0.22274 0.21641 0.74743 0.0
C151 C 0.14647 0.26018 0.75848 0.0
H152 H 0.1808 0.57932 0.74067 0.0
H153 H 0.14847 0.5011 0.74819 0.0
H154 H 0.02527 0.48952 0.7788 0.0
H155 H 0.05713 0.56715 0.77219 0.0
H156 H 0.13497 0.13006 0.802 0.0
H157 H 0.10573 0.17765 0.79302 0.0
H158 H 0.22572 0.27552 0.72532 0.0
H159 H 0.2557 0.22792 0.73558 0.0
Dy160 Dy 0.30602 0.93485 0.75691 0.0
Dy161 Dy 0.20134 0.89703 0.75825 0.0
C162 C 0.25668 0.93755 0.64687 0.0
O163 O 0.29914 0.99389 0.74761 0.0
O164 O 0.22776 0.96642 0.77331 0.0
O165 O 0.36345 0.94896 0.71159 0.0
O166 O 0.36466 0.95023 0.80038 0.0
O167 O 0.22381 0.90954 0.84756 0.0
O168 O 0.29534 0.95929 0.83622 0.0
O169 O 0.21659 0.84945 0.72152 0.0
O170 O 0.27104 0.86502 0.77876 0.0
O171 O 0.1417 0.8411 0.78342 0.0
O172 O 0.14085 0.89227 0.73694 0.0
C173 C 0.26584 0.99861 0.76047 0.0
O174 O 0.28848 0.93411 0.66811 0.0
O175 O 0.22126 0.92688 0.6746 0.0
C176 C 0.40822 0.92622 0.75571 0.0
C177 C 0.456 0.88242 0.75538 0.0
C178 C 0.42584 0.87498 0.71374 0.0
C179 C 0.40229 0.89652 0.7139 0.0
C180 C 0.43789 0.93333 0.79759 0.0
C181 C 0.46131 0.91172 0.79757 0.0
C182 C 0.38504 0.95099 0.75559 0.0
C183 C 0.26061 0.94109 0.86661 0.0
C184 C 0.23894 0.83673 0.74947 0.0
C185 C 0.07408 0.84005 0.77874 0.0
C186 C 0.9861 0.80958 0.80102 0.0
C187 C 1.00088 0.78085 0.78981 0.0
C188 C 0.04432 0.79593 0.77897 0.0
C189 C 0.05969 0.86891 0.79093 0.0
C190 C 0.01623 0.85382 0.80222 0.0
C191 C 0.11827 0.85451 0.7592 0.0
H192 H 0.421 0.85315 0.68016 0.0
H193 H 0.37977 0.89018 0.68085 0.0
H194 H 0.4432 0.95593 0.8304 0.0
H195 H 0.48348 0.91792 0.83099 0.0
H196 H 0.97881 0.74666 0.7891 0.0
H197 H 0.05451 0.77299 0.7691 0.0
H198 H 0.08176 0.90311 0.79039 0.0
H199 H 1.00598 0.87696 0.8101 0.0
Dy200 Dy 0.64349 0.72087 0.7738 0.0
Dy201 Dy 0.72512 0.82112 0.7692 0.0
C202 C 0.69555 0.75873 0.66057 0.0
O203 O 0.70379 0.71633 0.78881 0.0
O204 O 0.75586 0.78209 0.75512 0.0
O205 O 0.6014 0.65727 0.73992 0.0
O206 O 0.58997 0.67358 0.82139 0.0
O207 O 0.73164 0.79596 0.85135 0.0
O208 O 0.66127 0.74445 0.86065 0.0
O209 O 0.66667 0.82351 0.79323 0.0
O210 O 0.61629 0.76323 0.74966 0.0
O211 O 0.77707 0.87797 0.80757 0.0
O212 O 0.76129 0.87866 0.72179 0.0
C213 C 0.7437 0.74343 0.77307 0.0
O214 O 0.67084 0.72483 0.69023 0.0
O215 O 0.71233 0.79799 0.68075 0.0
C216 C 0.52919 0.61804 0.77388 0.0
C217 C 0.4391 0.56079 0.7694 0.0
C218 C 0.46825 0.54794 0.75159 0.0
C219 C 0.51255 0.57611 0.75385 0.0
C220 C 0.5003 0.63178 0.78969 0.0
C221 C 0.45573 0.6035 0.78721 0.0
C222 C 0.5763 0.64459 0.78275 0.0
C223 C 0.70014 0.76668 0.8811 0.0
C224 C 0.62867 0.80135 0.7709 0.0
C225 C 0.79704 0.94644 0.76797 0.0
C226 C 0.83489 0.03668 0.76272 0.0
C227 C 0.80138 0.01008 0.72684 0.0
C228 C 0.78261 0.96546 0.72945 0.0
C229 C 0.82849 0.9729 0.80619 0.0
C230 C 0.84706 0.01753 0.80382 0.0
C231 C 0.78535 0.9008 0.76302 0.0
H232 H 0.45682 0.51564 0.7367 0.0
H233 H 0.53395 0.5646 0.74145 0.0
H234 H 0.51211 0.66391 0.80544 0.0
H235 H 0.43438 0.61456 0.80141 0.0
H236 H 0.79106 0.02389 0.69503 0.0
H237 H 0.75844 0.94609 0.69934 0.0
H238 H 0.84058 0.95922 0.83591 0.0
H239 H 0.87306 0.03709 0.83169 0.0
H240 H 0.28993 0.02405 0.89559 0.0
H241 H 0.2393 0.89779 0.96404 0.0
H242 H 0.25401 0.92839 0.05729 0.0
H243 H 0.28665 0.99153 0.11833 0.0
H244 H 0.32914 0.11715 0.05203 0.0
H245 H 0.31203 0.08648 0.95853 0.0
C246 C 0.28133 1.00321 0.93105 0.0
C247 C 0.26365 0.95864 0.92301 0.0
C248 C 0.28871 0.02101 0.98459 0.0
C249 C 0.25271 0.932 0.96918 0.0
C250 C 0.26135 0.94959 0.02242 0.0
C251 C 0.29126 0.01217 0.08358 0.0
C252 C 0.3092 0.05669 0.09224 0.0
C253 C 0.28005 0.99408 0.0305 0.0
C254 C 0.31519 0.08289 0.04665 0.0
C255 C 0.30561 0.06531 0.99321 0.0
H256 H 0.66213 0.68388 0.60173 0.0
H257 H 0.75827 0.81765 0.59256 0.0
H258 H 0.78393 0.80463 0.50525 0.0
H259 H 0.78005 0.75479 0.43161 0.0
H260 H 0.68158 0.622 0.4393 0.0
H261 H 0.65646 0.63497 0.52708 0.0
C262 C 0.68853 0.71038 0.5806 0.0
C263 C 0.70809 0.7518 0.6042 0.0
C264 C 0.70323 0.70266 0.53026 0.0
C265 C 0.74224 0.78552 0.57563 0.0
C266 C 0.75721 0.77802 0.52572 0.0
C267 C 0.75349 0.72861 0.45297 0.0
C268 C 0.73325 0.68723 0.42934 0.0
C269 C 0.73829 0.73662 0.50286 0.0
C270 C 0.69802 0.65398 0.45675 0.0
C271 C 0.68351 0.66145 0.50689 0.0
H272 H 0.98305 0.31512 0.09299 0.0
H273 H 0.95766 0.18503 0.08144 0.0
H274 H 1.00055 0.2029 0.99676 0.0
H275 H 0.04487 0.25588 0.92524 0.0
H276 H 0.07202 0.38655 0.94148 0.0
H277 H 0.02942 0.36805 0.02532 0.0
C278 C 0.98632 0.29037 0.07171 0.0
C279 C 0.96619 0.24843 0.09312 0.0
C280 C 0.01198 0.3012 0.02412 0.0
C281 C 0.97214 0.21735 0.06561 0.0
C282 C 0.99692 0.22767 0.0173 0.0
C283 C 0.04203 0.2805 0.9475 0.0
C284 C 0.06197 0.32273 0.92661 0.0
C285 C 0.01713 0.2696 0.99617 0.0
C286 C 0.0574 0.35391 0.95618 0.0
C287 C 0.03272 0.34329 1.00417 0.0
H288 H 0.25608 0.02572 0.4205 0.0
H289 H 0.39238 0.07868 0.43979 0.0
H290 H 0.38057 0.03893 0.52494 0.0
H291 H 0.33207 0.98836 0.59382 0.0
H292 H 0.19577 0.93594 0.57731 0.0
H293 H 0.20706 0.9756 0.49146 0.0
C294 C 0.28323 0.02909 0.44376 0.0
C295 C 0.32516 0.05558 0.42348 0.0
C296 C 0.27622 1.00558 0.49301 0.0
C297 C 0.35978 0.0588 0.45406 0.0
C298 C 0.35307 0.03584 0.50285 0.0
C299 C 0.30468 0.98508 0.5712 0.0
C300 C 0.26302 0.95853 0.59196 0.0
C301 C 0.31147 0.00877 0.52246 0.0
C302 C 0.22817 0.95571 0.56234 0.0
C303 C 0.23464 0.97864 0.51326 0.0
H304 H 0.77724 0.79752 0.93693 0.0
H305 H 0.64207 0.70591 0.94984 0.0
H306 H 0.65476 0.67693 0.03298 0.0
H307 H 0.7034 0.67532 0.10101 0.0
H308 H 0.83822 0.76772 0.09372 0.0
H309 H 0.82657 0.79784 1.00923 0.0
C310 C 0.75052 0.7714 0.95806 0.0
C311 C 0.70868 0.7539 0.9362 0.0
C312 C 0.75802 0.75438 1.00657 0.0
C313 C 0.67461 0.72023 0.96495 0.0
C314 C 0.68182 0.70331 0.01264 0.0
C315 C 0.73052 0.7017 0.08069 0.0
C316 C 0.77186 0.71848 0.10326 0.0
C317 C 0.72335 0.71961 0.03336 0.0
C318 C 0.80616 0.75365 0.077 0.0
C319 C 0.79942 0.77106 0.02881 0.0
H320 H 0.99557 0.23909 0.42037 0.0
H321 H 0.933 0.31402 0.43756 0.0
H322 H 0.96907 0.34235 0.5255 0.0
H323 H 0.0194 0.34734 0.59654 0.0
H324 H 0.08459 0.27482 0.57926 0.0
H325 H 0.04717 0.24476 0.49221 0.0
C326 C 0.98931 0.26105 0.4439 0.0
C327 C 0.96103 0.2739 0.42268 0.0
C328 C 0.01126 0.2783 0.49401 0.0
C329 C 0.95424 0.30331 0.45303 0.0
C330 C 0.97507 0.31972 0.50324 0.0
C331 C 0.02575 0.32512 0.57379 0.0
C332 C 0.05512 0.31363 0.59479 0.0
C333 C 1.00397 0.30782 0.52387 0.0
C334 C 0.06259 0.28469 0.56423 0.0
C335 C 0.04089 0.26719 0.5145 0.0
H336 H 0.63183 0.09481 0.24059 0.0
H337 H 0.63813 0.21356 0.28691 0.0
H338 H 0.71632 0.2489 0.29069 0.0
H339 H 0.78395 0.24656 0.27877 0.0
H340 H 0.77528 0.12692 0.23021 0.0
H341 H 0.69784 0.09236 0.22853 0.0
C342 C 0.65011 0.12857 0.25094 0.0
C343 C 0.62852 0.15125 0.26315 0.0
C344 C 0.69519 0.14891 0.25245 0.0
C345 C 0.65337 0.19485 0.27781 0.0
C346 C 0.69833 0.21529 0.27962 0.0
C347 C 0.76514 0.21295 0.26785 0.0
C348 C 0.7861 0.18973 0.25451 0.0
C349 C 0.71977 0.19271 0.2668 0.0
C350 C 0.7607 0.14605 0.24054 0.0
C351 C 0.71606 0.12599 0.23958 0.0
H352 H 0.5126 0.37768 0.31058 0.0
H353 H 0.57997 0.37218 0.16649 0.0
H354 H 0.53593 0.29418 0.16476 0.0
H355 H 0.47597 0.22684 0.20228 0.0
H356 H 0.40883 0.23346 0.34609 0.0
H357 H 0.45519 0.31082 0.35007 0.0
C358 C 0.51815 0.35949 0.2792 0.0
C359 C 0.54963 0.38126 0.23857 0.0
C360 C 0.4925 0.31438 0.27826 0.0
C361 C 0.55566 0.3567 0.19788 0.0
C362 C 0.53054 0.31188 0.19697 0.0
C363 C 0.47175 0.24516 0.23477 0.0
C364 C 0.43865 0.22395 0.2737 0.0
C365 C 0.49848 0.29026 0.23661 0.0
C366 C 0.43375 0.24856 0.31533 0.0
C367 C 0.46033 0.29304 0.3177 0.0
H368 H 0.81731 0.45122 0.2801 0.0
H369 H 0.94526 0.54335 0.22779 0.0
H370 H 0.92644 0.59964 0.22833 0.0
H371 H 0.8733 0.62309 0.24206 0.0
H372 H 0.74504 0.53053 0.29299 0.0
H373 H 0.76425 0.47456 0.29375 0.0
C374 C 0.84108 0.48352 0.26846 0.0
C375 C 0.88282 0.49269 0.2542 0.0
C376 C 0.82994 0.51596 0.26836 0.0
C377 C 0.91313 0.53512 0.23996 0.0
C378 C 0.90229 0.56746 0.23981 0.0
C379 C 0.8495 0.5907 0.25335 0.0
C380 C 0.80771 0.58137 0.26745 0.0
C381 C 0.86076 0.55831 0.25381 0.0
C382 C 0.77748 0.53901 0.28203 0.0
C383 C 0.78842 0.50678 0.28246 0.0
H384 H 0.19804 0.64618 0.79284 0.0
H385 H 0.08609 0.61917 0.69819 0.0
H386 H 0.11302 0.69553 0.68677 0.0
H387 H 0.16705 0.77011 0.70534 0.0
H388 H 0.27915 0.79852 0.80044 0.0
H389 H 0.25381 0.72185 0.80926 0.0
C390 C 0.17975 0.65702 0.7693 0.0
C391 C 0.13978 0.6267 0.74694 0.0
C392 C 0.19547 0.70137 0.76287 0.0
C393 C 0.11648 0.64155 0.71682 0.0
C394 C 0.13199 0.68533 0.70994 0.0
C395 C 0.18621 0.75967 0.7277 0.0
C396 C 0.22502 0.79025 0.75219 0.0
C397 C 0.17123 0.71555 0.73313 0.0
C398 C 0.24915 0.77584 0.78119 0.0
C399 C 0.23463 0.73191 0.78632 0.0
H400 H 0.53989 0.91512 0.78551 0.0
H401 H 0.4317 0.79972 0.72279 0.0
H402 H 0.47474 0.76448 0.7207 0.0
H403 H 0.54376 0.76601 0.73784 0.0
H404 H 0.65028 0.88208 0.8028 0.0
H405 H 0.60718 0.9165 0.80358 0.0
C406 C 0.52532 0.88206 0.77201 0.0
C407 C 0.48227 0.8604 0.75448 0.0
C408 C 0.55016 0.86173 0.77137 0.0
C409 C 0.46477 0.81773 0.73597 0.0
C410 C 0.48938 0.79732 0.73506 0.0
C411 C 0.55753 0.79881 0.75212 0.0
C412 C 0.60052 0.82107 0.77031 0.0
C413 C 0.53225 0.81896 0.7527 0.0
C414 C 0.61748 0.86369 0.78869 0.0
C415 C 0.59278 0.88368 0.78914 0.0
H416 H 0.2505 0.40297 0.79512 0.0
H417 H 0.21774 0.49371 0.72862 0.0
H418 H 0.29364 0.54844 0.72565 0.0
H419 H 0.37021 0.57052 0.74058 0.0
H420 H 0.40164 0.47844 0.80594 0.0
H421 H 0.32594 0.42474 0.81031 0.0
C422 C 0.25979 0.43474 0.78015 0.0
C423 C 0.22805 0.44396 0.76227 0.0
C424 C 0.30364 0.46604 0.77802 0.0
C425 C 0.24117 0.48544 0.74269 0.0
C426 C 0.28474 0.51688 0.74096 0.0
C427 C 0.36048 0.53879 0.75607 0.0
C428 C 0.39204 0.52872 0.77243 0.0
C429 C 0.31639 0.50758 0.75837 0.0
C430 C 0.37848 0.48716 0.79207 0.0
C431 C 0.335 0.45633 0.79493 0.0
H432 H 0.17491 0.26299 0.28742 0.0
H433 H 0.12385 0.18046 0.1453 0.0
H434 H 0.06998 0.20209 0.13424 0.0
H435 H 0.03186 0.2371 0.17166 0.0
H436 H 0.07854 0.31498 0.31762 0.0
H437 H 0.14071 0.30424 0.31928 0.0
C438 C 0.15255 0.25037 0.25337 0.0
C439 C 0.15324 0.21965 0.2176 0.0
C440 C 0.12114 0.2626 0.24765 0.0
C441 C 0.12363 0.20341 0.17407 0.0
C442 C 0.09296 0.21603 0.16748 0.0
C443 C 0.05672 0.25326 0.20237 0.0
C444 C 0.05138 0.27782 0.24355 0.0
C445 C 0.09075 0.24474 0.20478 0.0
C446 C 0.08279 0.29721 0.28446 0.0
C447 C 0.11782 0.29027 0.28597 0.0
H448 H 0.0862 0.87161 0.20685 0.0
H449 H 0.09595 0.83889 0.37476 0.0
H450 H 0.17273 0.88993 0.37421 0.0
H451 H 0.23584 0.95083 0.32939 0.0
H452 H 0.22354 0.98354 0.16281 0.0
H453 H 0.15024 0.9245 0.15864 0.0
C454 C 0.10507 0.8745 0.24294 0.0
C455 C 0.08461 0.85164 0.29104 0.0
C456 C 0.14939 0.90394 0.24241 0.0
C457 C 0.11021 0.85672 0.33745 0.0
C458 C 0.1544 0.8858 0.33712 0.0
C459 C 0.21759 0.94373 0.29156 0.0
C460 C 0.23569 0.97076 0.24579 0.0
C461 C 0.17424 0.91058 0.29032 0.0
C462 C 0.21101 0.96231 0.19779 0.0
C463 C 0.16867 0.92895 0.19574 0.0
H464 H 0.78445 0.91779 0.20181 0.0
H465 H 0.77456 0.92566 0.37824 0.0
H466 H 0.74622 0.84889 0.3859 0.0
H467 H 0.73575 0.78198 0.34434 0.0
H468 H 0.74218 0.77227 0.16835 0.0
H469 H 0.75884 0.84669 0.1584 0.0
C470 C 0.77496 0.90265 0.24178 0.0
C471 C 0.7833 0.92809 0.28956 0.0
C472 C 0.75798 0.85796 0.24601 0.0
C473 C 0.77029 0.90742 0.34089 0.0
C474 C 0.75371 0.86332 0.34538 0.0
C475 C 0.7389 0.79568 0.30373 0.0
C476 C 0.73739 0.77175 0.25713 0.0
C477 C 0.74909 0.8386 0.29853 0.0
C478 C 0.74236 0.7899 0.2047 0.0
C479 C 0.75258 0.8327 0.19913 0.0
H480 H 0.25098 0.16012 0.70395 0.0
H481 H 0.18689 0.12743 0.86156 0.0
H482 H 0.20779 0.07357 0.87536 0.0
H483 H 0.23607 0.02979 0.83809 0.0
H484 H 0.30127 0.06114 0.68186 0.0
H485 H 0.28923 0.12229 0.6726 0.0
C486 C 0.24231 0.14177 0.74173 0.0
C487 C 0.21627 0.14702 0.78093 0.0
C488 C 0.25464 0.11066 0.74965 0.0
C489 C 0.20561 0.12311 0.82985 0.0
C490 C 0.21782 0.09247 0.83803 0.0
C491 C 0.24879 0.05083 0.80279 0.0
C492 C 0.26955 0.04124 0.76078 0.0
C493 C 0.24111 0.08509 0.79752 0.0
C494 C 0.28567 0.06838 0.71503 0.0
C495 C 0.27827 0.10294 0.70948 0.0
H496 H 0.91723 0.74685 0.74424 0.0
H497 H 0.94979 0.83673 0.87854 0.0
H498 H 0.87466 0.81657 0.88869 0.0
H499 H 0.80176 0.78059 0.85203 0.0
H500 H 0.76865 0.6943 0.71442 0.0
H501 H 0.84141 0.70446 0.71398 0.0
C502 C 0.90778 0.76143 0.77642 0.0
C503 C 0.93945 0.79379 0.81014 0.0
C504 C 0.86428 0.74997 0.78165 0.0
C505 C 0.92646 0.81248 0.85129 0.0
C506 C 0.88339 0.80074 0.85738 0.0
C507 C 0.80996 0.76251 0.8236 0.0
C508 C 0.77958 0.73577 0.78437 0.0
C509 C 0.85226 0.77038 0.82194 0.0
C510 C 0.79104 0.71391 0.74613 0.0
C511 C 0.83291 0.72045 0.74529 0.0
H512 H 0.96995 0.22146 0.68279 0.0
H513 H 0.96757 0.25097 0.85425 0.0
H514 H 0.90815 0.17807 0.87031 0.0
H515 H 0.86345 0.10313 0.83705 0.0
H516 H 0.86641 0.07535 0.66461 0.0
H517 H 0.91833 0.15026 0.64723 0.0
C518 C 0.95536 0.21222 0.72325 0.0
C519 C 0.97269 0.24135 0.76721 0.0
C520 C 0.92167 0.17033 0.73208 0.0
C521 C 0.9541 0.22918 0.81964 0.0
C522 C 0.92055 0.18734 0.82891 0.0
C523 C 0.87501 0.11372 0.79559 0.0
C524 C 0.86117 0.08355 0.75225 0.0
C525 C 0.90507 0.15717 0.78575 0.0
C526 C 0.87617 0.09782 0.69864 0.0
C527 C 0.90614 0.14067 0.68867 0.0
loop_
_geom_bond_atom_site_label_1
_geom_bond_atom_site_label_2
_geom_bond_distance
_geom_bond_site_symmetry_2
_ccdc_geom_bond_type
Dy0 O3 2.307 . S
Dy0 O5 2.395 . S
Dy0 O6 2.379 . S
Dy0 O8 2.339 . S
Dy0 O10 2.298 . S
Dy0 O14 2.275 . S
Dy0 C22 2.738 . S
Dy1 O4 2.298 . S
Dy1 O7 2.275 . S
Dy1 O9 2.307 . S
Dy1 O11 2.395 . S
Dy1 O12 2.379 . S
Dy1 O15 2.339 . S
Dy1 C31 2.738 . S
C2 O14 1.254 . S
C2 O15 1.257 . S
O3 Dy0 2.307 . S
O3 C13 1.266 . S
O4 Dy1 2.298 . S
O4 C13 1.236 . S
O5 Dy0 2.395 . S
O5 C22 1.255 . S
O6 Dy0 2.379 . S
O6 C22 1.249 . S
O7 Dy1 2.275 . S
O7 C23 1.254 . S
O8 Dy0 2.339 . S
O8 C23 1.257 . S
O9 Dy1 2.307 . S
O9 C24 1.266 . S
O10 Dy0 2.298 . S
O10 C24 1.236 . S
O11 Dy1 2.395 . S
O11 C31 1.255 . S
O12 Dy1 2.379 . S
O12 C31 1.249 . S
C13 O3 1.266 . S
C13 O4 1.236 . S
O14 Dy0 2.275 . S
O14 C2 1.254 . S
O15 Dy1 2.339 . S
O15 C2 1.257 . S
C16 C19 1.344 . S
C16 C20 1.328 . S
C16 C22 1.516 . S
C17 C18 1.304 . S
C17 C21 1.323 . S
C18 C17 1.304 . S
C18 C19 1.371 . S
C18 H32 0.930 . S
C19 C16 1.344 . S
C19 C18 1.371 . S
C19 H33 0.931 . S
C20 C16 1.328 . S
C20 C21 1.433 . S
C20 H34 0.931 . S
C21 C17 1.323 . S
C21 C20 1.433 . S
C21 H35 0.933 . S
C22 Dy0 2.738 . S
C22 O5 1.255 . S
C22 O6 1.249 . S
C22 C16 1.516 . S
C23 O7 1.254 . S
C23 O8 1.257 . S
C24 O9 1.266 . S
C24 O10 1.236 . S
C25 C28 1.344 . S
C25 C29 1.328 . S
C25 C31 1.516 . S
C26 C27 1.304 . S
C26 C30 1.323 . S
C27 C26 1.304 . S
C27 C28 1.371 . S
C27 H36 0.930 . S
C28 C25 1.344 . S
C28 C27 1.371 . S
C28 H37 0.931 . S
C29 C25 1.328 . S
C29 C30 1.433 . S
C29 H38 0.931 . S
C30 C26 1.323 . S
C30 C29 1.433 . S
C30 H39 0.933 . S
C31 Dy1 2.738 . S
C31 O11 1.255 . S
C31 O12 1.249 . S
C31 C25 1.516 . S
H32 C18 0.930 . S
H33 C19 0.931 . S
H34 C20 0.931 . S
H35 C21 0.933 . S
H36 C27 0.930 . S
H37 C28 0.931 . S
H38 C29 0.931 . S
H39 C30 0.933 . S
Dy40 O43 2.307 . S
Dy40 O45 2.395 . S
Dy40 O46 2.379 . S
Dy40 O48 2.339 . S
Dy40 O50 2.298 . S
Dy40 O54 2.275 . S
Dy40 C62 2.738 . S
Dy41 O44 2.298 . S
Dy41 O47 2.275 . S
Dy41 O49 2.307 . S
Dy41 O51 2.395 . S
Dy41 O52 2.379 . S
Dy41 O55 2.339 . S
Dy41 C71 2.738 . S
C42 O54 1.254 . S
C42 O55 1.257 . S
O43 Dy40 2.307 . S
O43 C53 1.266 . S
O44 Dy41 2.298 . S
O44 C53 1.236 . S
O45 Dy40 2.395 . S
O45 C62 1.255 . S
O46 Dy40 2.379 . S
O46 C62 1.249 . S
O47 Dy41 2.275 . S
O47 C63 1.254 . S
O48 Dy40 2.339 . S
O48 C63 1.257 . S
O49 Dy41 2.307 . S
O49 C64 1.266 . S
O50 Dy40 2.298 . S
O50 C64 1.236 . S
O51 Dy41 2.395 . S
O51 C71 1.255 . S
O52 Dy41 2.379 . S
O52 C71 1.249 . S
C53 O43 1.266 . S
C53 O44 1.236 . S
O54 Dy40 2.275 . S
O54 C42 1.254 . S
O55 Dy41 2.339 . S
O55 C42 1.257 . S
C56 C59 1.344 . S
C56 C60 1.328 . S
C56 C62 1.516 . S
C57 C58 1.304 . S
C57 C61 1.323 . S
C58 C57 1.304 . S
C58 C59 1.371 . S
C58 H72 0.930 . S
C59 C56 1.344 . S
C59 C58 1.371 . S
C59 H73 0.931 . S
C60 C56 1.328 . S
C60 C61 1.433 . S
C60 H74 0.931 . S
C61 C57 1.323 . S
C61 C60 1.433 . S
C61 H75 0.933 . S
C62 Dy40 2.738 . S
C62 O45 1.255 . S
C62 O46 1.249 . S
C62 C56 1.516 . S
C63 O47 1.254 . S
C63 O48 1.257 . S
C64 O49 1.266 . S
C64 O50 1.236 . S
C65 C68 1.344 . S
C65 C69 1.328 . S
C65 C71 1.516 . S
C66 C67 1.304 1_455 S
C66 C70 1.323 . S
C67 C66 1.304 1_655 S
C67 C68 1.371 . S
C67 H76 0.930 . S
C68 C65 1.344 . S
C68 C67 1.371 . S
C68 H77 0.931 . S
C69 C65 1.328 . S
C69 C70 1.433 1_655 S
C69 H78 0.931 . S
C70 C66 1.323 . S
C70 C69 1.433 1_455 S
C70 H79 0.933 . S
C71 Dy41 2.738 . S
C71 O51 1.255 . S
C71 O52 1.249 . S
C71 C65 1.516 . S
H72 C58 0.930 . S
H73 C59 0.931 . S
H74 C60 0.931 . S
H75 C61 0.933 . S
H76 C67 0.930 . S
H77 C68 0.931 . S
H78 C69 0.931 . S
H79 C70 0.933 . S
Dy80 O83 2.307 . S
Dy80 O85 2.395 . S
Dy80 O86 2.379 . S
Dy80 O88 2.339 . S
Dy80 O90 2.298 . S
Dy80 O94 2.275 . S
Dy80 C102 2.738 . S
Dy81 O84 2.298 . S
Dy81 O87 2.275 . S
Dy81 O89 2.307 . S
Dy81 O91 2.395 . S
Dy81 O92 2.379 . S
Dy81 O95 2.339 . S
Dy81 C111 2.738 . S
C82 O94 1.254 . S
C82 O95 1.257 . S
O83 Dy80 2.307 . S
O83 C93 1.266 . S
O84 Dy81 2.298 . S
O84 C93 1.236 . S
O85 Dy80 2.395 . S
O85 C102 1.255 . S
O86 Dy80 2.379 . S
O86 C102 1.249 . S
O87 Dy81 2.275 . S
O87 C103 1.254 . S
O88 Dy80 2.339 . S
O88 C103 1.257 . S
O89 Dy81 2.307 . S
O89 C104 1.266 . S
O90 Dy80 2.298 . S
O90 C104 1.236 . S
O91 Dy81 2.395 . S
O91 C111 1.255 . S
O92 Dy81 2.379 . S
O92 C111 1.249 . S
C93 O83 1.266 . S
C93 O84 1.236 . S
O94 Dy80 2.275 . S
O94 C82 1.254 . S
O95 Dy81 2.339 . S
O95 C82 1.257 . S
C96 C99 1.344 . S
C96 C100 1.328 . S
C96 C102 1.516 . S
C97 C98 1.304 . S
C97 C101 1.323 . S
C98 C97 1.304 . S
C98 C99 1.371 . S
C98 H112 0.930 . S
C99 C96 1.344 . S
C99 C98 1.371 . S
C99 H113 0.931 . S
C100 C96 1.328 . S
C100 C101 1.433 . S
C100 H114 0.931 . S
C101 C97 1.323 . S
C101 C100 1.433 . S
C101 H115 0.933 . S
C102 Dy80 2.738 . S
C102 O85 1.255 . S
C102 O86 1.249 . S
C102 C96 1.516 . S
C103 O87 1.254 . S
C103 O88 1.257 . S
C104 O89 1.266 . S
C104 O90 1.236 . S
C105 C108 1.344 . S
C105 C109 1.328 . S
C105 C111 1.516 . S
C106 C107 1.304 1_565 S
C106 C110 1.323 . S
C107 C106 1.304 1_545 S
C107 C108 1.371 . S
C107 H116 0.930 . S
C108 C105 1.344 . S
C108 C107 1.371 . S
C108 H117 0.931 . S
C109 C105 1.328 . S
C109 C110 1.433 1_545 S
C109 H118 0.931 . S
C110 C106 1.323 . S
C110 C109 1.433 1_565 S
C110 H119 0.933 . S
C111 Dy81 2.738 . S
C111 O91 1.255 . S
C111 O92 1.249 . S
C111 C105 1.516 . S
H112 C98 0.930 . S
H113 C99 0.931 . S
H114 C100 0.931 . S
H115 C101 0.933 . S
H116 C107 0.930 . S
H117 C108 0.931 . S
H118 C109 0.931 . S
H119 C110 0.933 . S
Dy120 O123 2.307 . S
Dy120 O125 2.395 . S
Dy120 O126 2.379 . S
Dy120 O128 2.339 . S
Dy120 O130 2.298 . S
Dy120 O134 2.275 . S
Dy120 C142 2.738 . S
Dy121 O124 2.298 . S
Dy121 O127 2.275 . S
Dy121 O129 2.307 . S
Dy121 O131 2.395 . S
Dy121 O132 2.379 . S
Dy121 O135 2.339 . S
Dy121 C151 2.738 . S
C122 O134 1.254 . S
C122 O135 1.257 . S
O123 Dy120 2.307 . S
O123 C133 1.266 . S
O124 Dy121 2.298 . S
O124 C133 1.236 . S
O125 Dy120 2.395 . S
O125 C142 1.255 . S
O126 Dy120 2.379 . S
O126 C142 1.249 . S
O127 Dy121 2.275 . S
O127 C143 1.254 . S
O128 Dy120 2.339 . S
O128 C143 1.257 . S
O129 Dy121 2.307 . S
O129 C144 1.266 . S
O130 Dy120 2.298 . S
O130 C144 1.236 . S
O131 Dy121 2.395 . S
O131 C151 1.255 . S
O132 Dy121 2.379 . S
O132 C151 1.249 . S
C133 O123 1.266 . S
C133 O124 1.236 . S
O134 Dy120 2.275 . S
O134 C122 1.254 . S
O135 Dy121 2.339 . S
O135 C122 1.257 . S
C136 C139 1.344 . S
C136 C140 1.328 . S
C136 C142 1.516 . S
C137 C138 1.304 . S
C137 C141 1.323 . S
C138 C137 1.304 . S
C138 C139 1.371 . S
C138 H152 0.930 . S
C139 C136 1.344 . S
C139 C138 1.371 . S
C139 H153 0.931 . S
C140 C136 1.328 . S
C140 C141 1.433 . S
C140 H154 0.931 . S
C141 C137 1.323 . S
C141 C140 1.433 . S
C141 H155 0.933 . S
C142 Dy120 2.738 . S
C142 O125 1.255 . S
C142 O126 1.249 . S
C142 C136 1.516 . S
C143 O127 1.254 . S
C143 O128 1.257 . S
C144 O129 1.266 . S
C144 O130 1.236 . S
C145 C148 1.344 . S
C145 C149 1.328 . S
C145 C151 1.516 . S
C146 C147 1.304 . S
C146 C150 1.323 . S
C147 C146 1.304 . S
C147 C148 1.371 . S
C147 H156 0.930 . S
C148 C145 1.344 . S
C148 C147 1.371 . S
C148 H157 0.931 . S
C149 C145 1.328 . S
C149 C150 1.433 . S
C149 H158 0.931 . S
C150 C146 1.323 . S
C150 C149 1.433 . S
C150 H159 0.933 . S
C151 Dy121 2.738 . S
C151 O131 1.255 . S
C151 O132 1.249 . S
C151 C145 1.516 . S
H152 C138 0.930 . S
H153 C139 0.931 . S
H154 C140 0.931 . S
H155 C141 0.933 . S
H156 C147 0.930 . S
H157 C148 0.931 . S
H158 C149 0.931 . S
H159 C150 0.933 . S
Dy160 O163 2.307 . S
Dy160 O165 2.395 . S
Dy160 O166 2.379 . S
Dy160 O168 2.339 . S
Dy160 O170 2.298 . S
Dy160 O174 2.275 . S
Dy160 C182 2.738 . S
Dy161 O164 2.298 . S
Dy161 O167 2.275 . S
Dy161 O169 2.307 . S
Dy161 O171 2.395 . S
Dy161 O172 2.379 . S
Dy161 O175 2.339 . S
Dy161 C191 2.738 . S
C162 O174 1.254 . S
C162 O175 1.257 . S
O163 Dy160 2.307 . S
O163 C173 1.266 . S
O164 Dy161 2.298 . S
O164 C173 1.236 . S
O165 Dy160 2.395 . S
O165 C182 1.255 . S
O166 Dy160 2.379 . S
O166 C182 1.249 . S
O167 Dy161 2.275 . S
O167 C183 1.254 . S
O168 Dy160 2.339 . S
O168 C183 1.257 . S
O169 Dy161 2.307 . S
O169 C184 1.266 . S
O170 Dy160 2.298 . S
O170 C184 1.236 . S
O171 Dy161 2.395 . S
O171 C191 1.255 . S
O172 Dy161 2.379 . S
O172 C191 1.249 . S
C173 O163 1.266 . S
C173 O164 1.236 . S
O174 Dy160 2.275 . S
O174 C162 1.254 . S
O175 Dy161 2.339 . S
O175 C162 1.257 . S
C176 C179 1.344 . S
C176 C180 1.328 . S
C176 C182 1.516 . S
C177 C178 1.304 . S
C177 C181 1.323 . S
C178 C177 1.304 . S
C178 C179 1.371 . S
C178 H192 0.930 . S
C179 C176 1.344 . S
C179 C178 1.371 . S
C179 H193 0.931 . S
C180 C176 1.328 . S
C180 C181 1.433 . S
C180 H194 0.931 . S
C181 C177 1.323 . S
C181 C180 1.433 . S
C181 H195 0.933 . S
C182 Dy160 2.738 . S
C182 O165 1.255 . S
C182 O166 1.249 . S
C182 C176 1.516 . S
C183 O167 1.254 . S
C183 O168 1.257 . S
C184 O169 1.266 . S
C184 O170 1.236 . S
C185 C188 1.344 . S
C185 C189 1.328 . S
C185 C191 1.516 . S
C186 C187 1.304 1_655 S
C186 C190 1.323 . S
C187 C186 1.304 1_455 S
C187 C188 1.371 . S
C187 H196 0.930 . S
C188 C185 1.344 . S
C188 C187 1.371 . S
C188 H197 0.931 . S
C189 C185 1.328 . S
C189 C190 1.433 1_455 S
C189 H198 0.931 . S
C190 C186 1.323 . S
C190 C189 1.433 1_655 S
C190 H199 0.933 . S
C191 Dy161 2.738 . S
C191 O171 1.255 . S
C191 O172 1.249 . S
C191 C185 1.516 . S
H192 C178 0.930 . S
H193 C179 0.931 . S
H194 C180 0.931 . S
H195 C181 0.933 . S
H196 C187 0.930 . S
H197 C188 0.931 . S
H198 C189 0.931 . S
H199 C190 0.933 . S
Dy200 O203 2.307 . S
Dy200 O205 2.395 . S
Dy200 O206 2.379 . S
Dy200 O208 2.339 . S
Dy200 O210 2.298 . S
Dy200 O214 2.275 . S
Dy200 C222 2.738 . S
Dy201 O204 2.298 . S
Dy201 O207 2.275 . S
Dy201 O209 2.307 . S
Dy201 O211 2.395 . S
Dy201 O212 2.379 . S
Dy201 O215 2.339 . S
Dy201 C231 2.738 . S
C202 O214 1.254 . S
C202 O215 1.257 . S
O203 Dy200 2.307 . S
O203 C213 1.266 . S
O204 Dy201 2.298 . S
O204 C213 1.236 . S
O205 Dy200 2.395 . S
O205 C222 1.255 . S
O206 Dy200 2.379 . S
O206 C222 1.249 . S
O207 Dy201 2.275 . S
O207 C223 1.254 . S
O208 Dy200 2.339 . S
O208 C223 1.257 . S
O209 Dy201 2.307 . S
O209 C224 1.266 . S
O210 Dy200 2.298 . S
O210 C224 1.236 . S
O211 Dy201 2.395 . S
O211 C231 1.255 . S
O212 Dy201 2.379 . S
O212 C231 1.249 . S
C213 O203 1.266 . S
C213 O204 1.236 . S
O214 Dy200 2.275 . S
O214 C202 1.254 . S
O215 Dy201 2.339 . S
O215 C202 1.257 . S
C216 C219 1.344 . S
C216 C220 1.328 . S
C216 C222 1.516 . S
C217 C218 1.304 . S
C217 C221 1.323 . S
C218 C217 1.304 . S
C218 C219 1.371 . S
C218 H232 0.930 . S
C219 C216 1.344 . S
C219 C218 1.371 . S
C219 H233 0.931 . S
C220 C216 1.328 . S
C220 C221 1.433 . S
C220 H234 0.931 . S
C221 C217 1.323 . S
C221 C220 1.433 . S
C221 H235 0.933 . S
C222 Dy200 2.738 . S
C222 O205 1.255 . S
C222 O206 1.249 . S
C222 C216 1.516 . S
C223 O207 1.254 . S
C223 O208 1.257 . S
C224 O209 1.266 . S
C224 O210 1.236 . S
C225 C228 1.344 . S
C225 C229 1.328 . S
C225 C231 1.516 . S
C226 C227 1.304 1_545 S
C226 C230 1.323 . S
C227 C226 1.304 1_565 S
C227 C228 1.371 . S
C227 H236 0.930 . S
C228 C225 1.344 . S
C228 C227 1.371 . S
C228 H237 0.931 . S
C229 C225 1.328 . S
C229 C230 1.433 1_565 S
C229 H238 0.931 . S
C230 C226 1.323 . S
C230 C229 1.433 1_545 S
C230 H239 0.933 . S
C231 Dy201 2.738 . S
C231 O211 1.255 . S
C231 O212 1.249 . S
C231 C225 1.516 . S
H232 C218 0.930 . S
H233 C219 0.931 . S
H234 C220 0.931 . S
H235 C221 0.933 . S
H236 C227 0.930 . S
H237 C228 0.931 . S
H238 C229 0.931 . S
H239 C230 0.933 . S
H240 C246 0.930 . S
H241 C249 0.930 . S
H242 C250 0.930 . S
H243 C251 0.930 . S
H244 C254 0.930 . S
H245 C255 0.930 . S
C246 H240 0.930 . S
C246 C247 1.355 . S
C246 C248 1.415 1_565 S
C247 C246 1.355 . S
C247 C249 1.419 . S
C248 C246 1.415 1_545 S
C248 C253 1.425 1_546 S
C248 C255 1.409 . S
C249 H241 0.930 . S
C249 C247 1.419 . S
C249 C250 1.362 1_556 S
C250 H242 0.930 . S
C250 C249 1.362 1_554 S
C250 C253 1.409 . S
C251 H243 0.930 . S
C251 C252 1.355 . S
C251 C253 1.415 1_545 S
C252 C251 1.355 . S
C252 C254 1.419 . S
C253 C248 1.425 1_564 S
C253 C250 1.409 . S
C253 C251 1.415 1_565 S
C254 H244 0.930 . S
C254 C252 1.419 . S
C254 C255 1.362 1_554 S
C255 H245 0.930 . S
C255 C248 1.409 . S
C255 C254 1.362 1_556 S
H256 C262 0.930 . S
H257 C265 0.930 . S
H258 C266 0.930 . S
H259 C267 0.930 . S
H260 C270 0.930 . S
H261 C271 0.930 . S
C262 H256 0.930 . S
C262 C263 1.355 . S
C262 C264 1.415 . S
C263 C262 1.355 . S
C263 C265 1.419 . S
C264 C262 1.415 . S
C264 C269 1.425 . S
C264 C271 1.409 . S
C265 H257 0.930 . S
C265 C263 1.419 . S
C265 C266 1.362 . S
C266 H258 0.930 . S
C266 C265 1.362 . S
C266 C269 1.409 . S
C267 H259 0.930 . S
C267 C268 1.355 . S
C267 C269 1.415 . S
C268 C267 1.355 . S
C268 C270 1.419 . S
C269 C264 1.425 . S
C269 C266 1.409 . S
C269 C267 1.415 . S
C270 H260 0.930 . S
C270 C268 1.419 . S
C270 C271 1.362 . S
C271 H261 0.930 . S
C271 C264 1.409 . S
C271 C270 1.362 . S
H272 C278 0.930 . S
H273 C281 0.930 . S
H274 C282 0.930 . S
H275 C283 0.930 . S
H276 C286 0.930 . S
H277 C287 0.930 . S
C278 H272 0.930 . S
C278 C279 1.355 . S
C278 C280 1.415 1_554 S
C279 C278 1.355 . S
C279 C281 1.419 . S
C280 C278 1.415 1_556 S
C280 C285 1.425 1_656 S
C280 C287 1.409 . S
C281 H273 0.930 . S
C281 C279 1.419 . S
C281 C282 1.362 1_655 S
C282 H274 0.930 . S
C282 C281 1.362 1_455 S
C282 C285 1.409 . S
C283 H275 0.930 . S
C283 C284 1.355 . S
C283 C285 1.415 1_556 S
C284 C283 1.355 . S
C284 C286 1.419 . S
C285 C280 1.425 1_454 S
C285 C282 1.409 . S
C285 C283 1.415 1_554 S
C286 H276 0.930 . S
C286 C284 1.419 . S
C286 C287 1.362 1_455 S
C287 H277 0.930 . S
C287 C280 1.409 . S
C287 C286 1.362 1_655 S
H288 C294 0.930 . S
H289 C297 0.930 . S
H290 C298 0.930 . S
H291 C299 0.930 . S
H292 C302 0.930 . S
H293 C303 0.930 . S
C294 H288 0.930 . S
C294 C295 1.355 . S
C294 C296 1.415 . S
C295 C294 1.355 . S
C295 C297 1.419 . S
C296 C294 1.415 . S
C296 C301 1.425 1_545 S
C296 C303 1.409 . S
C297 H289 0.930 . S
C297 C295 1.419 . S
C297 C298 1.362 1_545 S
C298 H290 0.930 . S
C298 C297 1.362 1_565 S
C298 C301 1.409 . S
C299 H291 0.930 . S
C299 C300 1.355 . S
C299 C301 1.415 . S
C300 C299 1.355 . S
C300 C302 1.419 . S
C301 C296 1.425 1_565 S
C301 C298 1.409 . S
C301 C299 1.415 . S
C302 H292 0.930 . S
C302 C300 1.419 . S
C302 C303 1.362 1_565 S
C303 H293 0.930 . S
C303 C296 1.409 . S
C303 C302 1.362 1_545 S
H304 C310 0.930 . S
H305 C313 0.930 . S
H306 C314 0.930 . S
H307 C315 0.930 . S
H308 C318 0.930 . S
H309 C319 0.930 . S
C310 H304 0.930 . S
C310 C311 1.355 . S
C310 C312 1.415 . S
C311 C310 1.355 . S
C311 C313 1.419 . S
C312 C310 1.415 . S
C312 C317 1.425 1_556 S
C312 C319 1.409 1_556 S
C313 H305 0.930 . S
C313 C311 1.419 . S
C313 C314 1.362 . S
C314 H306 0.930 . S
C314 C313 1.362 . S
C314 C317 1.409 1_556 S
C315 H307 0.930 . S
C315 C316 1.355 . S
C315 C317 1.415 . S
C316 C315 1.355 . S
C316 C318 1.419 . S
C317 C312 1.425 1_554 S
C317 C314 1.409 1_554 S
C317 C315 1.415 . S
C318 H308 0.930 . S
C318 C316 1.419 . S
C318 C319 1.362 . S
C319 H309 0.930 . S
C319 C312 1.409 1_554 S
C319 C318 1.362 . S
H320 C326 0.930 . S
H321 C329 0.930 . S
H322 C330 0.930 . S
H323 C331 0.930 . S
H324 C334 0.930 . S
H325 C335 0.930 . S
C326 H320 0.930 . S
C326 C327 1.355 . S
C326 C328 1.415 . S
C327 C326 1.355 . S
C327 C329 1.419 . S
C328 C326 1.415 . S
C328 C333 1.425 1_655 S
C328 C335 1.409 . S
C329 H321 0.930 . S
C329 C327 1.419 . S
C329 C330 1.362 1_655 S
C330 H322 0.930 . S
C330 C329 1.362 1_455 S
C330 C333 1.409 . S
C331 H323 0.930 . S
C331 C332 1.355 . S
C331 C333 1.415 . S
C332 C331 1.355 . S
C332 C334 1.419 . S
C333 C328 1.425 1_455 S
C333 C330 1.409 . S
C333 C331 1.415 . S
C334 H324 0.930 . S
C334 C332 1.419 . S
C334 C335 1.362 1_455 S
C335 H325 0.930 . S
C335 C328 1.409 . S
C335 C334 1.362 1_655 S
H336 C342 0.930 . S
H337 C345 0.930 . S
H338 C346 0.930 . S
H339 C347 0.930 . S
H340 C350 0.930 . S
H341 C351 0.930 . S
C342 H336 0.930 . S
C342 C343 1.355 . S
C342 C344 1.415 . S
C343 C342 1.355 . S
C343 C345 1.419 . S
C344 C342 1.415 . S
C344 C349 1.425 . S
C344 C351 1.409 . S
C345 H337 0.930 . S
C345 C343 1.419 . S
C345 C346 1.362 . S
C346 H338 0.930 . S
C346 C345 1.362 . S
C346 C349 1.409 . S
C347 H339 0.930 . S
C347 C348 1.355 . S
C347 C349 1.415 . S
C348 C347 1.355 . S
C348 C350 1.419 . S
C349 C344 1.425 . S
C349 C346 1.409 . S
C349 C347 1.415 . S
C350 H340 0.930 . S
C350 C348 1.419 . S
C350 C351 1.362 . S
C351 H341 0.930 . S
C351 C344 1.409 . S
C351 C350 1.362 . S
H352 C358 0.930 . S
H353 C361 0.930 . S
H354 C362 0.930 . S
H355 C363 0.930 . S
H356 C366 0.930 . S
H357 C367 0.930 . S
C358 H352 0.930 . S
C358 C359 1.355 . S
C358 C360 1.415 . S
C359 C358 1.355 . S
C359 C361 1.419 . S
C360 C358 1.415 . S
C360 C365 1.425 . S
C360 C367 1.409 . S
C361 H353 0.930 . S
C361 C359 1.419 . S
C361 C362 1.362 . S
C362 H354 0.930 . S
C362 C361 1.362 . S
C362 C365 1.409 . S
C363 H355 0.930 . S
C363 C364 1.355 . S
C363 C365 1.415 . S
C364 C363 1.355 . S
C364 C366 1.419 . S
C365 C360 1.425 . S
C365 C362 1.409 . S
C365 C363 1.415 . S
C366 H356 0.930 . S
C366 C364 1.419 . S
C366 C367 1.362 . S
C367 H357 0.930 . S
C367 C360 1.409 . S
C367 C366 1.362 . S
H368 C374 0.930 . S
H369 C377 0.930 . S
H370 C378 0.930 . S
H371 C379 0.930 . S
H372 C382 0.930 . S
H373 C383 0.930 . S
C374 H368 0.930 . S
C374 C375 1.355 . S
C374 C376 1.415 . S
C375 C374 1.355 . S
C375 C377 1.419 . S
C376 C374 1.415 . S
C376 C381 1.425 . S
C376 C383 1.409 . S
C377 H369 0.930 . S
C377 C375 1.419 . S
C377 C378 1.362 . S
C378 H370 0.930 . S
C378 C377 1.362 . S
C378 C381 1.409 . S
C379 H371 0.930 . S
C379 C380 1.355 . S
C379 C381 1.415 . S
C380 C379 1.355 . S
C380 C382 1.419 . S
C381 C376 1.425 . S
C381 C378 1.409 . S
C381 C379 1.415 . S
C382 H372 0.930 . S
C382 C380 1.419 . S
C382 C383 1.362 . S
C383 H373 0.930 . S
C383 C376 1.409 . S
C383 C382 1.362 . S
H384 C390 0.930 . S
H385 C393 0.930 . S
H386 C394 0.930 . S
H387 C395 0.930 . S
H388 C398 0.930 . S
H389 C399 0.930 . S
C390 H384 0.930 . S
C390 C391 1.355 . S
C390 C392 1.415 . S
C391 C390 1.355 . S
C391 C393 1.419 . S
C392 C390 1.415 . S
C392 C397 1.425 . S
C392 C399 1.409 . S
C393 H385 0.930 . S
C393 C391 1.419 . S
C393 C394 1.362 . S
C394 H386 0.930 . S
C394 C393 1.362 . S
C394 C397 1.409 . S
C395 H387 0.930 . S
C395 C396 1.355 . S
C395 C397 1.415 . S
C396 C395 1.355 . S
C396 C398 1.419 . S
C397 C392 1.425 . S
C397 C394 1.409 . S
C397 C395 1.415 . S
C398 H388 0.930 . S
C398 C396 1.419 . S
C398 C399 1.362 . S
C399 H389 0.930 . S
C399 C392 1.409 . S
C399 C398 1.362 . S
H400 C406 0.930 . S
H401 C409 0.930 . S
H402 C410 0.930 . S
H403 C411 0.930 . S
H404 C414 0.930 . S
H405 C415 0.930 . S
C406 H400 0.930 . S
C406 C407 1.355 . S
C406 C408 1.415 . S
C407 C406 1.355 . S
C407 C409 1.419 . S
C408 C406 1.415 . S
C408 C413 1.425 . S
C408 C415 1.409 . S
C409 H401 0.930 . S
C409 C407 1.419 . S
C409 C410 1.362 . S
C410 H402 0.930 . S
C410 C409 1.362 . S
C410 C413 1.409 . S
C411 H403 0.930 . S
C411 C412 1.355 . S
C411 C413 1.415 . S
C412 C411 1.355 . S
C412 C414 1.419 . S
C413 C408 1.425 . S
C413 C410 1.409 . S
C413 C411 1.415 . S
C414 H404 0.930 . S
C414 C412 1.419 . S
C414 C415 1.362 . S
C415 H405 0.930 . S
C415 C408 1.409 . S
C415 C414 1.362 . S
H416 C422 0.930 . S
H417 C425 0.930 . S
H418 C426 0.930 . S
H419 C427 0.930 . S
H420 C430 0.930 . S
H421 C431 0.930 . S
C422 H416 0.930 . S
C422 C423 1.355 . S
C422 C424 1.415 . S
C423 C422 1.355 . S
C423 C425 1.419 . S
C424 C422 1.415 . S
C424 C429 1.425 . S
C424 C431 1.409 . S
C425 H417 0.930 . S
C425 C423 1.419 . S
C425 C426 1.362 . S
C426 H418 0.930 . S
C426 C425 1.362 . S
C426 C429 1.409 . S
C427 H419 0.930 . S
C427 C428 1.355 . S
C427 C429 1.415 . S
C428 C427 1.355 . S
C428 C430 1.419 . S
C429 C424 1.425 . S
C429 C426 1.409 . S
C429 C427 1.415 . S
C430 H420 0.930 . S
C430 C428 1.419 . S
C430 C431 1.362 . S
C431 H421 0.930 . S
C431 C424 1.409 . S
C431 C430 1.362 . S
H432 C438 0.930 . S
H433 C441 0.930 . S
H434 C442 0.910 1_655 S
H435 C443 0.930 . S
H436 C446 0.930 . S
H437 C447 0.930 . S
C438 H432 0.930 . S
C438 C439 1.355 . S
C438 C440 1.415 . S
C439 C438 1.355 . S
C439 C441 1.419 . S
C440 C438 1.415 . S
C440 C445 1.425 . S
C440 C447 1.409 . S
C441 H433 0.930 . S
C441 C439 1.419 . S
C441 C442 1.390 . S
C442 H434 0.910 1_455 S
C442 C441 1.390 . S
C442 C445 1.402 . S
C443 H435 0.930 . S
C443 C444 1.355 . S
C443 C445 1.415 1_655 S
C444 C443 1.355 . S
C444 C446 1.419 1_655 S
C445 C440 1.425 . S
C445 C442 1.402 . S
C445 C443 1.415 1_455 S
C446 H436 0.930 . S
C446 C444 1.419 1_455 S
C446 C447 1.362 . S
C447 H437 0.930 . S
C447 C440 1.409 . S
C447 C446 1.362 . S
H448 C454 0.930 . S
H449 C457 0.930 . S
H450 C458 0.930 . S
H451 C459 0.930 . S
H452 C462 0.930 . S
H453 C463 0.930 . S
C454 H448 0.930 . S
C454 C455 1.355 . S
C454 C456 1.415 . S
C455 C454 1.355 . S
C455 C457 1.419 . S
C456 C454 1.415 . S
C456 C461 1.425 . S
C456 C463 1.409 1_565 S
C457 H449 0.930 . S
C457 C455 1.419 . S
C457 C458 1.362 . S
C458 H450 0.930 . S
C458 C457 1.362 . S
C458 C461 1.409 . S
C459 H451 0.930 . S
C459 C460 1.355 1_565 S
C459 C461 1.415 . S
C460 C459 1.355 1_545 S
C460 C462 1.419 . S
C461 C456 1.425 . S
C461 C458 1.409 . S
C461 C459 1.415 . S
C462 H452 0.930 . S
C462 C460 1.419 . S
C462 C463 1.362 . S
C463 H453 0.930 . S
C463 C456 1.409 1_545 S
C463 C462 1.362 . S
H464 C470 0.930 . S
H465 C473 0.930 . S
H466 C474 0.930 . S
H467 C475 0.930 . S
H468 C478 0.930 . S
H469 C479 0.930 . S
C470 H464 0.930 . S
C470 C471 1.355 . S
C470 C472 1.415 . S
C471 C470 1.355 . S
C471 C473 1.419 . S
C472 C470 1.415 . S
C472 C477 1.425 . S
C472 C479 1.409 . S
C473 H465 0.930 . S
C473 C471 1.419 . S
C473 C474 1.362 . S
C474 H466 0.930 . S
C474 C473 1.362 . S
C474 C477 1.409 . S
C475 H467 0.930 . S
C475 C476 1.355 . S
C475 C477 1.415 . S
C476 C475 1.355 . S
C476 C478 1.419 . S
C477 C472 1.425 . S
C477 C474 1.409 . S
C477 C475 1.415 . S
C478 H468 0.930 . S
C478 C476 1.419 . S
C478 C479 1.362 . S
C479 H469 0.930 . S
C479 C472 1.409 . S
C479 C478 1.362 . S
H480 C486 0.930 . S
H481 C489 0.930 . S
H482 C490 0.930 . S
H483 C491 0.930 . S
H484 C494 0.919 1_565 S
H485 C495 0.930 . S
C486 H480 0.930 . S
C486 C487 1.355 . S
C486 C488 1.415 . S
C487 C486 1.355 . S
C487 C489 1.419 . S
C488 C486 1.415 . S
C488 C493 1.425 . S
C488 C495 1.409 . S
C489 H481 0.930 . S
C489 C487 1.419 . S
C489 C490 1.362 . S
C490 H482 0.930 . S
C490 C489 1.362 . S
C490 C493 1.409 . S
C491 H483 0.930 . S
C491 C492 1.355 1_545 S
C491 C493 1.415 . S
C492 C491 1.355 1_565 S
C492 C494 1.414 1_565 S
C493 C488 1.425 . S
C493 C490 1.409 . S
C493 C491 1.415 . S
C494 H484 0.919 1_545 S
C494 C492 1.414 1_545 S
C494 C495 1.378 . S
C495 H485 0.930 . S
C495 C488 1.409 . S
C495 C494 1.378 . S
H496 C502 0.930 . S
H497 C505 0.930 . S
H498 C506 0.930 . S
H499 C507 0.930 . S
H500 C510 0.930 . S
H501 C511 0.930 . S
C502 H496 0.930 . S
C502 C503 1.355 . S
C502 C504 1.415 . S
C503 C502 1.355 . S
C503 C505 1.419 . S
C504 C502 1.415 . S
C504 C509 1.425 . S
C504 C511 1.409 . S
C505 H497 0.930 . S
C505 C503 1.419 . S
C505 C506 1.362 . S
C506 H498 0.930 . S
C506 C505 1.362 . S
C506 C509 1.409 . S
C507 H499 0.930 . S
C507 C508 1.355 . S
C507 C509 1.415 . S
C508 C507 1.355 . S
C508 C510 1.419 . S
C509 C504 1.425 . S
C509 C506 1.409 . S
C509 C507 1.415 . S
C510 H500 0.930 . S
C510 C508 1.419 . S
C510 C511 1.362 . S
C511 H501 0.930 . S
C511 C504 1.409 . S
C511 C510 1.362 . S
H512 C518 0.930 . S
H513 C521 0.930 . S
H514 C522 0.930 . S
H515 C523 0.930 . S
H516 C526 0.930 . S
H517 C527 0.930 . S
C518 H512 0.930 . S
C518 C519 1.355 1_655 S
C518 C520 1.415 . S
C519 C518 1.355 1_455 S
C519 C521 1.419 . S
C520 C518 1.415 . S
C520 C525 1.425 . S
C520 C527 1.409 . S
C521 H513 0.930 . S
C521 C519 1.419 . S
C521 C522 1.362 . S
C522 H514 0.930 . S
C522 C521 1.362 . S
C522 C525 1.409 1_455 S
C523 H515 0.930 . S
C523 C524 1.355 . S
C523 C525 1.415 . S
C524 C523 1.355 . S
C524 C526 1.419 . S
C525 C520 1.425 . S
C525 C522 1.409 1_655 S
C525 C523 1.415 . S
C526 H516 0.930 . S
C526 C524 1.419 . S
C526 C527 1.362 . S
C527 H517 0.930 . S
C527 C520 1.409 . S
C527 C526 1.362 . S
C247 C183 2.321 . S
C252 C23 2.328 . S
C263 C202 2.511 . S
C268 C42 2.501 . S
C279 C103 2.295 . S
C284 C143 2.260 . S
C295 C2 2.538 . S
C300 C162 2.502 . S
C311 C223 2.266 . S
C316 C63 2.307 . S
C327 C82 2.538 . S
C332 C122 2.502 . S
C343 C17 1.806 . S
C348 C104 1.815 . S
C359 C57 1.811 . S
C364 C24 1.831 . S
C375 C97 1.861 . S
C380 C64 1.870 . S
C391 C137 1.856 . S
C396 C184 1.870 . S
C407 C177 1.808 . S
C412 C224 1.816 . S
C423 C144 1.856 . S
C428 C217 1.851 . S
C439 C26 1.167 . S
C444 C93 1.172 . S
C455 C66 1.103 . S
C460 C13 1.088 . S
C471 C106 1.118 . S
C476 C53 1.099 . S
C487 C146 1.161 . S
C492 C173 1.142 . S
C503 C186 1.176 . S
C508 C213 1.180 . S
C519 C133 1.122 . S
C524 C226 1.120 . S
