# Generated by pormake.
# Topology pcu-g, (3)-cn, num edge types: 1
# Building blocks:
#     Node 0, Type 0, BuildingBlock: OLANEW_clean_sbu_2, # of connection points: 3
#     Node 1, Type 0, BuildingBlock: OLANEW_clean_sbu_2, # of connection points: 3
#     Node 2, Type 0, BuildingBlock: OLANEW_clean_sbu_2, # of connection points: 3
#     Node 3, Type 0, BuildingBlock: OLANEW_clean_sbu_2, # of connection points: 3
#     Node 4, Type 0, BuildingBlock: OLANEW_clean_sbu_2, # of connection points: 3
#     Node 5, Type 0, BuildingBlock: OLANEW_clean_sbu_2, # of connection points: 3
#     Node 6, Type 0, BuildingBlock: OLANEW_clean_sbu_2, # of connection points: 3
#     Node 7, Type 0, BuildingBlock: OLANEW_clean_sbu_2, # of connection points: 3
#     Node 8, Type 0, BuildingBlock: OLANEW_clean_sbu_2, # of connection points: 3
#     Node 9, Type 0, BuildingBlock: OLANEW_clean_sbu_2, # of connection points: 3
#     Node 10, Type 0, BuildingBlock: OLANEW_clean_sbu_2, # of connection points: 3
#     Node 11, Type 0, BuildingBlock: OLANEW_clean_sbu_2, # of connection points: 3
#     Node 12, Type 0, BuildingBlock: OLANEW_clean_sbu_2, # of connection points: 3
#     Node 13, Type 0, BuildingBlock: OLANEW_clean_sbu_2, # of connection points: 3
#     Node 14, Type 0, BuildingBlock: OLANEW_clean_sbu_2, # of connection points: 3
#     Node 15, Type 0, BuildingBlock: OLANEW_clean_sbu_2, # of connection points: 3
#     Node 16, Type 0, BuildingBlock: OLANEW_clean_sbu_2, # of connection points: 3
#     Node 17, Type 0, BuildingBlock: OLANEW_clean_sbu_2, # of connection points: 3
#     Node 18, Type 0, BuildingBlock: OLANEW_clean_sbu_2, # of connection points: 3
#     Node 19, Type 0, BuildingBlock: OLANEW_clean_sbu_2, # of connection points: 3
#     Node 20, Type 0, BuildingBlock: OLANEW_clean_sbu_2, # of connection points: 3
#     Node 21, Type 0, BuildingBlock: OLANEW_clean_sbu_2, # of connection points: 3
#     Node 22, Type 0, BuildingBlock: OLANEW_clean_sbu_2, # of connection points: 3
#     Node 23, Type 0, BuildingBlock: OLANEW_clean_sbu_2, # of connection points: 3
#     Node 24, Type 0, BuildingBlock: OLANEW_clean_sbu_2, # of connection points: 3
#     Node 25, Type 0, BuildingBlock: OLANEW_clean_sbu_2, # of connection points: 3
#     Node 26, Type 0, BuildingBlock: OLANEW_clean_sbu_2, # of connection points: 3
#     Node 27, Type 0, BuildingBlock: OLANEW_clean_sbu_2, # of connection points: 3
#     Node 28, Type 0, BuildingBlock: OLANEW_clean_sbu_2, # of connection points: 3
#     Node 29, Type 0, BuildingBlock: OLANEW_clean_sbu_2, # of connection points: 3
#     Node 30, Type 0, BuildingBlock: OLANEW_clean_sbu_2, # of connection points: 3
#     Node 31, Type 0, BuildingBlock: OLANEW_clean_sbu_2, # of connection points: 3
#     Node 32, Type 0, BuildingBlock: OLANEW_clean_sbu_2, # of connection points: 3
#     Node 33, Type 0, BuildingBlock: OLANEW_clean_sbu_2, # of connection points: 3
#     Node 34, Type 0, BuildingBlock: OLANEW_clean_sbu_2, # of connection points: 3
#     Node 35, Type 0, BuildingBlock: OLANEW_clean_sbu_2, # of connection points: 3
#     Node 36, Type 0, BuildingBlock: OLANEW_clean_sbu_2, # of connection points: 3
#     Node 37, Type 0, BuildingBlock: OLANEW_clean_sbu_2, # of connection points: 3
#     Node 38, Type 0, BuildingBlock: OLANEW_clean_sbu_2, # of connection points: 3
#     Node 39, Type 0, BuildingBlock: OLANEW_clean_sbu_2, # of connection points: 3
#     Node 40, Type 0, BuildingBlock: OLANEW_clean_sbu_2, # of connection points: 3
#     Node 41, Type 0, BuildingBlock: OLANEW_clean_sbu_2, # of connection points: 3
#     Node 42, Type 0, BuildingBlock: OLANEW_clean_sbu_2, # of connection points: 3
#     Node 43, Type 0, BuildingBlock: OLANEW_clean_sbu_2, # of connection points: 3
#     Node 44, Type 0, BuildingBlock: OLANEW_clean_sbu_2, # of connection points: 3
#     Node 45, Type 0, BuildingBlock: OLANEW_clean_sbu_2, # of connection points: 3
#     Node 46, Type 0, BuildingBlock: OLANEW_clean_sbu_2, # of connection points: 3
#     Node 47, Type 0, BuildingBlock: OLANEW_clean_sbu_2, # of connection points: 3
#     Edge 48, Type (0, 0), BuildingBlock: AJUNOK_clean_linker_0, # of connection points: 2
#     Edge 49, Type (0, 0), BuildingBlock: AJUNOK_clean_linker_0, # of connection points: 2
#     Edge 50, Type (0, 0), BuildingBlock: AJUNOK_clean_linker_0, # of connection points: 2
#     Edge 51, Type (0, 0), BuildingBlock: AJUNOK_clean_linker_0, # of connection points: 2
#     Edge 52, Type (0, 0), BuildingBlock: AJUNOK_clean_linker_0, # of connection points: 2
#     Edge 53, Type (0, 0), BuildingBlock: AJUNOK_clean_linker_0, # of connection points: 2
#     Edge 54, Type (0, 0), BuildingBlock: AJUNOK_clean_linker_0, # of connection points: 2
#     Edge 55, Type (0, 0), BuildingBlock: AJUNOK_clean_linker_0, # of connection points: 2
#     Edge 56, Type (0, 0), BuildingBlock: AJUNOK_clean_linker_0, # of connection points: 2
#     Edge 57, Type (0, 0), BuildingBlock: AJUNOK_clean_linker_0, # of connection points: 2
#     Edge 58, Type (0, 0), BuildingBlock: AJUNOK_clean_linker_0, # of connection points: 2
#     Edge 59, Type (0, 0), BuildingBlock: AJUNOK_clean_linker_0, # of connection points: 2
#     Edge 60, Type (0, 0), BuildingBlock: AJUNOK_clean_linker_0, # of connection points: 2
#     Edge 61, Type (0, 0), BuildingBlock: AJUNOK_clean_linker_0, # of connection points: 2
#     Edge 62, Type (0, 0), BuildingBlock: AJUNOK_clean_linker_0, # of connection points: 2
#     Edge 63, Type (0, 0), BuildingBlock: AJUNOK_clean_linker_0, # of connection points: 2
#     Edge 64, Type (0, 0), BuildingBlock: AJUNOK_clean_linker_0, # of connection points: 2
#     Edge 65, Type (0, 0), BuildingBlock: AJUNOK_clean_linker_0, # of connection points: 2
#     Edge 66, Type (0, 0), BuildingBlock: AJUNOK_clean_linker_0, # of connection points: 2
#     Edge 67, Type (0, 0), BuildingBlock: AJUNOK_clean_linker_0, # of connection points: 2
#     Edge 68, Type (0, 0), BuildingBlock: AJUNOK_clean_linker_0, # of connection points: 2
#     Edge 69, Type (0, 0), BuildingBlock: AJUNOK_clean_linker_0, # of connection points: 2
#     Edge 70, Type (0, 0), BuildingBlock: AJUNOK_clean_linker_0, # of connection points: 2
#     Edge 71, Type (0, 0), BuildingBlock: AJUNOK_clean_linker_0, # of connection points: 2
#     Edge 72, Type (0, 0), BuildingBlock: AJUNOK_clean_linker_0, # of connection points: 2
#     Edge 73, Type (0, 0), BuildingBlock: AJUNOK_clean_linker_0, # of connection points: 2
#     Edge 74, Type (0, 0), BuildingBlock: AJUNOK_clean_linker_0, # of connection points: 2
#     Edge 75, Type (0, 0), BuildingBlock: AJUNOK_clean_linker_0, # of connection points: 2
#     Edge 76, Type (0, 0), BuildingBlock: AJUNOK_clean_linker_0, # of connection points: 2
#     Edge 77, Type (0, 0), BuildingBlock: AJUNOK_clean_linker_0, # of connection points: 2
#     Edge 78, Type (0, 0), BuildingBlock: AJUNOK_clean_linker_0, # of connection points: 2
#     Edge 79, Type (0, 0), BuildingBlock: AJUNOK_clean_linker_0, # of connection points: 2
#     Edge 80, Type (0, 0), BuildingBlock: AJUNOK_clean_linker_0, # of connection points: 2
#     Edge 81, Type (0, 0), BuildingBlock: AJUNOK_clean_linker_0, # of connection points: 2
#     Edge 82, Type (0, 0), BuildingBlock: AJUNOK_clean_linker_0, # of connection points: 2
#     Edge 83, Type (0, 0), BuildingBlock: AJUNOK_clean_linker_0, # of connection points: 2
#     Edge 84, Type (0, 0), BuildingBlock: AJUNOK_clean_linker_0, # of connection points: 2
#     Edge 85, Type (0, 0), BuildingBlock: AJUNOK_clean_linker_0, # of connection points: 2
#     Edge 86, Type (0, 0), BuildingBlock: AJUNOK_clean_linker_0, # of connection points: 2
#     Edge 87, Type (0, 0), BuildingBlock: AJUNOK_clean_linker_0, # of connection points: 2
#     Edge 88, Type (0, 0), BuildingBlock: AJUNOK_clean_linker_0, # of connection points: 2
#     Edge 89, Type (0, 0), BuildingBlock: AJUNOK_clean_linker_0, # of connection points: 2
#     Edge 90, Type (0, 0), BuildingBlock: AJUNOK_clean_linker_0, # of connection points: 2
#     Edge 91, Type (0, 0), BuildingBlock: AJUNOK_clean_linker_0, # of connection points: 2
#     Edge 92, Type (0, 0), BuildingBlock: AJUNOK_clean_linker_0, # of connection points: 2
#     Edge 93, Type (0, 0), BuildingBlock: AJUNOK_clean_linker_0, # of connection points: 2
#     Edge 94, Type (0, 0), BuildingBlock: AJUNOK_clean_linker_0, # of connection points: 2
#     Edge 95, Type (0, 0), BuildingBlock: AJUNOK_clean_linker_0, # of connection points: 2
#     Edge 96, Type (0, 0), BuildingBlock: AJUNOK_clean_linker_0, # of connection points: 2
#     Edge 97, Type (0, 0), BuildingBlock: AJUNOK_clean_linker_0, # of connection points: 2
#     Edge 98, Type (0, 0), BuildingBlock: AJUNOK_clean_linker_0, # of connection points: 2
#     Edge 99, Type (0, 0), BuildingBlock: AJUNOK_clean_linker_0, # of connection points: 2
#     Edge 100, Type (0, 0), BuildingBlock: AJUNOK_clean_linker_0, # of connection points: 2
#     Edge 101, Type (0, 0), BuildingBlock: AJUNOK_clean_linker_0, # of connection points: 2
#     Edge 102, Type (0, 0), BuildingBlock: AJUNOK_clean_linker_0, # of connection points: 2
#     Edge 103, Type (0, 0), BuildingBlock: AJUNOK_clean_linker_0, # of connection points: 2
#     Edge 104, Type (0, 0), BuildingBlock: AJUNOK_clean_linker_0, # of connection points: 2
#     Edge 105, Type (0, 0), BuildingBlock: AJUNOK_clean_linker_0, # of connection points: 2
#     Edge 106, Type (0, 0), BuildingBlock: AJUNOK_clean_linker_0, # of connection points: 2
#     Edge 107, Type (0, 0), BuildingBlock: AJUNOK_clean_linker_0, # of connection points: 2
#     Edge 108, Type (0, 0), BuildingBlock: AJUNOK_clean_linker_0, # of connection points: 2
#     Edge 109, Type (0, 0), BuildingBlock: AJUNOK_clean_linker_0, # of connection points: 2
#     Edge 110, Type (0, 0), BuildingBlock: AJUNOK_clean_linker_0, # of connection points: 2
#     Edge 111, Type (0, 0), BuildingBlock: AJUNOK_clean_linker_0, # of connection points: 2
#     Edge 112, Type (0, 0), BuildingBlock: AJUNOK_clean_linker_0, # of connection points: 2
#     Edge 113, Type (0, 0), BuildingBlock: AJUNOK_clean_linker_0, # of connection points: 2
#     Edge 114, Type (0, 0), BuildingBlock: AJUNOK_clean_linker_0, # of connection points: 2
#     Edge 115, Type (0, 0), BuildingBlock: AJUNOK_clean_linker_0, # of connection points: 2
#     Edge 116, Type (0, 0), BuildingBlock: AJUNOK_clean_linker_0, # of connection points: 2
#     Edge 117, Type (0, 0), BuildingBlock: AJUNOK_clean_linker_0, # of connection points: 2
#     Edge 118, Type (0, 0), BuildingBlock: AJUNOK_clean_linker_0, # of connection points: 2
#     Edge 119, Type (0, 0), BuildingBlock: AJUNOK_clean_linker_0, # of connection points: 2
# Relax obj value: 0.008
# Max RMSD: 0.079
# Mean RMSD: 0.059
data_MOF--net-pcu-g--node1-OLANEW_clean_sbu_2--edge1-AJUNOK_clean_linker_0
_symmetry_space_group_name_H-M    P1
_symmetry_Int_Tables_number       1
_symmetry_cell_setting            triclinic
loop_
_symmetry_equiv_pos_as_xyz
'x, y, z'
_cell_length_a     62.029159
_cell_length_b     64.870409
_cell_length_c     66.169419
_cell_angle_alpha  87.250925
_cell_angle_beta   90.016052
_cell_angle_gamma 90.022011
loop_
_atom_site_label
_atom_site_type_symbol
_atom_site_fract_x
_atom_site_fract_y
_atom_site_fract_z
_atom_type_partial_charge
O0 O 0.09137 0.1909 0.45426 0.0
Cd1 Cd 0.08575 0.21841 0.42846 0.0
O2 O 0.07217 0.16994 0.43647 0.0
Cd3 Cd 0.05529 0.14105 0.4311 0.0
O4 O 0.03877 0.11357 0.42114 0.0
C5 C 0.03825 0.09678 0.43184 0.0
O6 O 0.04784 0.09594 0.44957 0.0
C7 C 0.08348 0.17309 0.45206 0.0
C8 C 0.05337 0.24574 0.43889 0.0
O9 O 0.04914 0.23029 0.42819 0.0
O10 O 0.07287 0.24813 0.44473 0.0
O11 O 0.99199 0.37173 0.42425 0.0
Cd12 Cd 0.96802 0.34826 0.44347 0.0
O13 O 0.00985 0.37992 0.4514 0.0
Cd14 Cd 0.98263 0.36978 0.47017 0.0
O15 O 0.94824 0.37638 0.4715 0.0
C16 C 0.94307 0.39508 0.47369 0.0
O17 O 0.95845 0.40842 0.47709 0.0
C18 C 0.00809 0.38039 0.43221 0.0
C19 C 0.99106 0.31145 0.44745 0.0
O20 O 0.97757 0.31471 0.43297 0.0
O21 O 0.99272 0.32518 0.46066 0.0
O22 O 0.08269 0.79113 0.03223 0.0
Cd23 Cd 0.07541 0.7634 0.05745 0.0
O24 O 0.06677 0.8129 0.05168 0.0
Cd25 Cd 0.05372 0.84283 0.05964 0.0
O26 O 0.04331 0.8716 0.0725 0.0
C27 C 0.03308 0.8855 0.06228 0.0
O28 O 0.02856 0.88251 0.04324 0.0
C29 C 0.07702 0.80947 0.03552 0.0
C30 C 0.04056 0.73851 0.04782 0.0
O31 O 0.03798 0.75415 0.0587 0.0
O32 O 0.05957 0.73487 0.0413 0.0
O33 O 0.97199 0.61831 0.07038 0.0
Cd34 Cd 0.9488 0.64089 0.04938 0.0
O35 O 0.98559 0.60452 0.04355 0.0
Cd36 Cd 0.95655 0.61201 0.02611 0.0
O37 O 0.92352 0.60101 0.02276 0.0
C38 C 0.91732 0.58954 0.03776 0.0
O39 O 0.93069 0.58631 0.05299 0.0
C40 C 0.98635 0.60731 0.06244 0.0
C41 C 0.97365 0.67642 0.04286 0.0
O42 O 0.96002 0.67484 0.05741 0.0
O43 O 0.97454 0.66166 0.0307 0.0
O44 O 0.48279 0.02365 0.13592 0.0
Cd45 Cd 0.45943 0.99886 0.15414 0.0
O46 O 0.45572 0.045 0.13053 0.0
Cd47 Cd 0.43222 0.0203 0.13563 0.0
O48 O 0.41438 0.99593 0.12132 0.0
C49 C 0.4251 0.98482 0.10962 0.0
O50 O 0.44601 0.98781 0.10813 0.0
C51 C 0.47586 0.04137 0.12999 0.0
C52 C 0.46563 0.00454 0.19512 0.0
O53 O 0.4745 0.98933 0.18669 0.0
O54 O 0.45329 0.01654 0.18443 0.0
O55 O 0.54303 0.51048 0.15043 0.0
Cd56 Cd 0.51638 0.48498 0.16256 0.0
O57 O 0.55035 0.49598 0.12179 0.0
Cd58 Cd 0.52884 0.46939 0.12512 0.0
O59 O 0.51239 0.44246 0.11373 0.0
C60 C 0.51816 0.42435 0.11958 0.0
O61 O 0.5335 0.42213 0.1332 0.0
C62 C 0.55334 0.51042 0.13382 0.0
C63 C 0.50931 0.48688 0.20418 0.0
O64 O 0.52157 0.47299 0.19721 0.0
O65 O 0.50047 0.49986 0.19156 0.0
O66 O 0.51371 0.99918 0.33651 0.0
Cd67 Cd 0.49325 0.02693 0.3192 0.0
O68 O 0.4907 0.00394 0.36082 0.0
Cd69 Cd 0.47587 -0.00013 0.3907 0.0
O70 O 0.4549 0.00229 0.41693 0.0
C71 C 0.45796 0.01662 0.42906 0.0
O72 O 0.47429 0.02925 0.42581 0.0
C73 C 0.50648 0.99391 0.35396 0.0
C74 C 0.48479 0.01966 0.27884 0.0
O75 O 0.49996 0.03191 0.28365 0.0
O76 O 0.47377 0.01066 0.29306 0.0
O77 O 0.50426 0.47211 0.3523 0.0
Cd78 Cd 0.48334 0.49675 0.33113 0.0
O79 O 0.48203 0.47372 0.37805 0.0
Cd80 Cd 0.46706 0.503 0.36856 0.0
O81 O 0.46522 0.53063 0.38615 0.0
C82 C 0.47811 0.54567 0.38299 0.0
O83 O 0.49111 0.5456 0.36731 0.0
C84 C 0.4981 0.46541 0.36973 0.0
C85 C 0.49255 0.49302 0.29009 0.0
O86 O 0.50091 0.50757 0.29994 0.0
O87 O 0.47979 0.48038 0.29953 0.0
O88 O 0.12029 0.38021 0.02745 0.0
Cd89 Cd 0.13924 0.4 0.05273 0.0
O90 O 0.11172 0.40861 0.00961 0.0
Cd91 Cd 0.12061 0.42905 0.03329 0.0
O92 O 0.12082 0.44928 0.05857 0.0
C93 C 0.11239 0.44285 0.0752 0.0
O94 O 0.10483 0.42392 0.07671 0.0
C95 C 0.11209 0.38904 0.01167 0.0
C96 C 0.17937 0.41534 0.03974 0.0
O97 O 0.17817 0.39902 0.0514 0.0
O98 O 0.1618 0.42422 0.03419 0.0
O99 O 0.11115 0.60405 0.4931 0.0
Cd100 Cd 0.12684 0.58232 0.46769 0.0
O101 O 0.07821 0.59755 0.4829 0.0
Cd102 Cd 0.08856 0.57919 0.458 0.0
O103 O 0.09442 0.55899 0.43325 0.0
C104 C 0.0861 0.56327 0.41601 0.0
O105 O 0.07472 0.58026 0.41342 0.0
C106 C 0.09088 0.60626 0.49498 0.0
C107 C 0.16841 0.56845 0.47679 0.0
O108 O 0.16533 0.58434 0.46487 0.0
O109 O 0.15187 0.55937 0.48466 0.0
O110 O 0.83433 0.97048 0.51467 0.0
Cd111 Cd 0.80067 0.98954 0.50916 0.0
O112 O 0.84369 0.97645 0.48292 0.0
Cd113 Cd 0.8655 0.97314 0.45722 0.0
O114 O 0.89125 0.96994 0.43505 0.0
C115 C 0.88708 0.96751 0.41652 0.0
O116 O 0.86683 0.96697 0.41074 0.0
C117 C 0.8481 0.96905 0.5006 0.0
C118 C 0.76306 0.96599 0.51227 0.0
O119 O 0.77163 0.97048 0.495 0.0
O120 O 0.77257 0.97216 0.52808 0.0
O121 O 0.32293 0.5338 0.4965 0.0
Cd122 Cd 0.29132 0.51169 0.50153 0.0
O123 O 0.3351 0.52545 0.52693 0.0
Cd124 Cd 0.35939 0.52407 0.55103 0.0
O125 O 0.38074 0.52116 0.57736 0.0
C126 C 0.3983 0.53121 0.57779 0.0
O127 O 0.40358 0.54328 0.56205 0.0
C128 C 0.33729 0.53541 0.51002 0.0
C129 C 0.25268 0.5325 0.49353 0.0
O130 O 0.2596 0.52968 0.51171 0.0
O131 O 0.26404 0.52554 0.47919 0.0
O132 O 0.02829 0.88322 0.54384 0.0
Cd133 Cd 0.03098 0.85854 0.51733 0.0
O134 O 0.99369 0.88583 0.53792 0.0
Cd135 Cd 0.96162 0.89958 0.5396 0.0
O136 O 0.93055 0.91441 0.53352 0.0
C137 C 0.92997 0.92907 0.52009 0.0
O138 O 0.94796 0.93455 0.51082 0.0
C139 C 0.01018 0.89124 0.54777 0.0
C140 C 0.03158 0.81825 0.53378 0.0
O141 O 0.04904 0.82864 0.53126 0.0
O142 O 0.01381 0.82697 0.5284 0.0
O143 O 0.05852 0.67331 0.55925 0.0
Cd144 Cd 0.04122 0.69393 0.58446 0.0
O145 O 0.03713 0.64762 0.5682 0.0
Cd146 Cd 0.02682 0.61537 0.56862 0.0
O147 O 0.02228 0.58327 0.57913 0.0
C148 C 0.02766 0.57938 0.59744 0.0
O149 O 0.03497 0.5946 0.6079 0.0
C150 C 0.05233 0.65489 0.55712 0.0
C151 C 0.03642 0.73436 0.56909 0.0
O152 O 0.05355 0.72856 0.57859 0.0
O153 O 0.02143 0.72102 0.56711 0.0
O154 O 0.02216 0.14138 0.93744 0.0
Cd155 Cd 0.03339 0.16715 0.96099 0.0
O156 O 0.99568 0.13354 0.95826 0.0
Cd157 Cd 0.96693 0.11657 0.96853 0.0
O158 O 0.93812 0.0992 0.97764 0.0
C159 C 0.93948 0.08271 0.98872 0.0
O160 O 0.95862 0.07623 0.99471 0.0
C161 C 0.00591 0.13022 0.94208 0.0
C162 C 0.02836 0.2078 0.94616 0.0
O163 O 0.0456 0.19764 0.94278 0.0
O164 O 0.01331 0.19853 0.9563 0.0
O165 O 0.05788 0.35104 0.9366 0.0
Cd166 Cd 0.03039 0.33768 0.9142 0.0
O167 O 0.03485 0.35282 0.96171 0.0
Cd168 Cd 0.0086 0.35715 0.93999 0.0
O169 O 0.99727 0.38331 0.9207 0.0
C170 C 0.00837 0.38812 0.90504 0.0
O171 O 0.0247 0.37634 0.90046 0.0
C172 C 0.05414 0.35346 0.95523 0.0
C173 C 0.0263 0.29529 0.92211 0.0
O174 O 0.03993 0.30263 0.90911 0.0
O175 O 0.0143 0.30807 0.93109 0.0
O176 O 0.58152 0.99404 0.84046 0.0
Cd177 Cd 0.55668 0.97 0.82539 0.0
O178 O 0.5942 0.97405 0.86548 0.0
Cd179 Cd 0.57327 0.94793 0.85967 0.0
O180 O 0.55018 0.92401 0.86936 0.0
C181 C 0.54975 0.91922 0.88821 0.0
O182 O 0.56334 0.92842 0.90008 0.0
C183 C 0.59394 0.99136 0.85563 0.0
C184 C 0.55181 0.98205 0.78462 0.0
O185 O 0.54174 0.99138 0.79839 0.0
O186 O 0.56389 0.96673 0.79 0.0
O187 O 0.45082 0.44888 0.85021 0.0
Cd188 Cd 0.47833 0.44216 0.82491 0.0
O189 O 0.46353 0.4803 0.85132 0.0
Cd190 Cd 0.46774 0.51053 0.86412 0.0
O191 O 0.47629 0.54024 0.87607 0.0
C192 C 0.46726 0.54653 0.89187 0.0
O193 O 0.45234 0.53495 0.90078 0.0
C194 C 0.45024 0.46655 0.8577 0.0
C195 C 0.47541 0.46725 0.78958 0.0
O196 O 0.46698 0.44918 0.79059 0.0
O197 O 0.48483 0.47356 0.80538 0.0
O198 O 0.56664 0.00334 0.63938 0.0
Cd199 Cd 0.54803 0.02743 0.66065 0.0
O200 O 0.59171 0.02427 0.62693 0.0
Cd201 Cd 0.57599 0.05125 0.63864 0.0
O202 O 0.55332 0.07433 0.62645 0.0
C203 C 0.53644 0.06675 0.61885 0.0
O204 O 0.53376 0.04664 0.62036 0.0
C205 C 0.58331 0.00639 0.62846 0.0
C206 C 0.54829 0.01259 0.7009 0.0
O207 O 0.53503 0.00544 0.68815 0.0
O208 O 0.56127 0.02693 0.69477 0.0
O209 O 0.45904 0.54618 0.65621 0.0
Cd210 Cd 0.48689 0.54638 0.68238 0.0
O211 O 0.46288 0.51267 0.65562 0.0
Cd212 Cd 0.45973 0.48247 0.64259 0.0
O213 O 0.4642 0.45249 0.6296 0.0
C214 C 0.45793 0.44934 0.61173 0.0
O215 O 0.44802 0.46429 0.60135 0.0
C216 C 0.45402 0.5292 0.64865 0.0
C217 C 0.47927 0.51996 0.71612 0.0
O218 O 0.47435 0.53914 0.71626 0.0
O219 O 0.48748 0.51323 0.69994 0.0
O220 O 0.82353 0.54888 0.05901 0.0
Cd221 Cd 0.79143 0.5277 0.06495 0.0
O222 O 0.82756 0.53638 0.02907 0.0
Cd223 Cd 0.84585 0.52982 0.00194 0.0
O224 O 0.86479 0.52025 0.97631 0.0
C225 C 0.8844 0.52568 0.97472 0.0
O226 O 0.89264 0.5373 0.98851 0.0
C227 C 0.83419 0.54804 0.04269 0.0
C228 C 0.75363 0.55076 0.06539 0.0
O229 O 0.76559 0.54863 0.08114 0.0
O230 O 0.75967 0.54215 0.0493 0.0
O231 O 0.85497 0.42122 0.42785 0.0
Cd232 Cd 0.82554 0.43851 0.40965 0.0
O233 O 0.85204 0.44356 0.45156 0.0
Cd234 Cd 0.86219 0.45641 0.47997 0.0
O235 O 0.88007 0.46556 0.50646 0.0
C236 C 0.88869 0.45146 0.51773 0.0
O237 O 0.88585 0.43213 0.51323 0.0
C238 C 0.86152 0.42812 0.44441 0.0
C239 C 0.78624 0.43224 0.42918 0.0
O240 O 0.79238 0.4204 0.41532 0.0
O241 O 0.79878 0.447 0.43378 0.0
O242 O 0.09895 0.09108 0.51264 0.0
Cd243 Cd 0.10511 0.0634 0.53832 0.0
O244 O 0.09869 0.11571 0.53432 0.0
Cd245 Cd 0.09987 0.09386 0.56034 0.0
O246 O 0.08808 0.07183 0.58366 0.0
C247 C 0.06969 0.07571 0.59103 0.0
O248 O 0.05986 0.09278 0.58478 0.0
C249 C 0.09771 0.11014 0.51617 0.0
C250 C 0.14916 0.05669 0.54432 0.0
O251 O 0.13875 0.04746 0.53067 0.0
O252 O 0.13866 0.06908 0.55519 0.0
O253 O 0.63934 0.39917 0.48929 0.0
Cd254 Cd 0.65602 0.42904 0.47177 0.0
O255 O 0.61937 0.3999 0.46222 0.0
Cd256 Cd 0.59152 0.39684 0.44238 0.0
O257 O 0.56962 0.40781 0.41846 0.0
C258 C 0.5498 0.41067 0.42217 0.0
O259 O 0.54249 0.40566 0.44039 0.0
C260 C 0.62319 0.39228 0.47992 0.0
C261 C 0.69927 0.426 0.46148 0.0
O262 O 0.69359 0.4332 0.47838 0.0
O263 O 0.68444 0.41956 0.44984 0.0
O264 O 0.53574 0.67287 0.9777 0.0
Cd265 Cd 0.50717 0.67406 0.9522 0.0
O266 O 0.55936 0.6567 0.95949 0.0
Cd267 Cd 0.53631 0.65134 0.9354 0.0
O268 O 0.51691 0.63009 0.91834 0.0
C269 C 0.50264 0.61947 0.9279 0.0
O270 O 0.49943 0.62276 0.9471 0.0
C271 C 0.55449 0.6653 0.97574 0.0
C272 C 0.48938 0.71352 0.94764 0.0
O273 O 0.48304 0.70074 0.96177 0.0
O274 O 0.50401 0.70758 0.93554 0.0
O275 O 0.46857 0.85815 0.91513 0.0
Cd276 Cd 0.4393 0.83671 0.92917 0.0
O277 O 0.47965 0.86831 0.94457 0.0
Cd278 Cd 0.45023 0.85763 0.95989 0.0
O279 O 0.41784 0.86606 0.96959 0.0
C280 C 0.40773 0.87766 0.9568 0.0
O281 O 0.417 0.88227 0.9393 0.0
C282 C 0.48217 0.86778 0.92551 0.0
C283 C 0.45396 0.79632 0.93626 0.0
O284 O 0.44724 0.80269 0.91874 0.0
O285 O 0.45354 0.80899 0.95053 0.0
O286 O 0.54174 0.3363 0.51578 0.0
Cd287 Cd 0.51128 0.32254 0.53576 0.0
O288 O 0.55279 0.35254 0.54228 0.0
Cd289 Cd 0.5243 0.34744 0.56114 0.0
O290 O 0.50209 0.36496 0.57925 0.0
C291 C 0.49172 0.37947 0.57006 0.0
O292 O 0.49351 0.38167 0.55028 0.0
C293 C 0.55566 0.34752 0.52413 0.0
C294 C 0.50189 0.28106 0.53055 0.0
O295 O 0.49128 0.29539 0.52098 0.0
O296 O 0.51722 0.28632 0.54223 0.0
O297 O 0.4895 0.13264 0.5549 0.0
Cd298 Cd 0.47292 0.15166 0.5261 0.0
O299 O 0.46727 0.10635 0.55332 0.0
Cd300 Cd 0.44457 0.11824 0.53048 0.0
O301 O 0.41182 0.1075 0.52491 0.0
C302 C 0.40237 0.101 0.54102 0.0
O303 O 0.41247 0.1027 0.55833 0.0
C304 C 0.48347 0.11476 0.5613 0.0
C305 C 0.48158 0.1939 0.52627 0.0
O306 O 0.4636 0.18657 0.53289 0.0
O307 O 0.4955 0.1813 0.51963 0.0
O308 O 0.03803 0.48914 0.64454 0.0
Cd309 Cd 0.03658 0.45557 0.66247 0.0
O310 O 0.00844 0.48289 0.62788 0.0
Cd311 Cd 0.98116 0.48967 0.60775 0.0
O312 O 0.95535 0.48696 0.58561 0.0
C313 C 0.94826 0.46893 0.58288 0.0
O314 O 0.9565 0.45333 0.59369 0.0
C315 C 0.02352 0.49524 0.63211 0.0
C316 C 0.03459 0.46345 0.70342 0.0
O317 O 0.05271 0.46089 0.6946 0.0
O318 O 0.01738 0.46152 0.69296 0.0
O319 O 0.03591 0.99591 0.64689 0.0
Cd320 Cd 0.01611 0.96949 0.66681 0.0
O321 O 0.00514 0.00914 0.63613 0.0
Cd322 Cd 0.98907 0.97934 0.64021 0.0
O323 O 0.98872 0.95265 0.62129 0.0
C324 C 0.00402 0.95312 0.60848 0.0
O325 O 0.01768 0.9686 0.60854 0.0
C326 C 0.02549 0.0106 0.63799 0.0
C327 C 0.0143 0.98123 0.70677 0.0
O328 O 0.02746 0.96721 0.7016 0.0
O329 O 0.00171 0.98933 0.69326 0.0
O330 O 0.02047 0.46973 0.84734 0.0
Cd331 Cd 0.02285 0.50115 0.82592 0.0
O332 O 0.98908 0.47932 0.85866 0.0
Cd333 Cd 0.95895 0.47736 0.87568 0.0
O334 O 0.93494 0.48512 0.89809 0.0
C335 C 0.94061 0.49836 0.9106 0.0
O336 O 0.96018 0.50608 0.90924 0.0
C337 C 0.00417 0.46606 0.85855 0.0
C338 C 0.02769 0.48981 0.78615 0.0
O339 O 0.04413 0.49274 0.79739 0.0
O340 O 0.00896 0.49276 0.79366 0.0
O341 O 0.03373 0.99366 0.85091 0.0
Cd342 Cd 0.01395 0.01885 0.82944 0.0
O343 O 0.01084 0.99739 0.87581 0.0
Cd344 Cd 0.99789 0.02705 0.86465 0.0
O345 O 0.99543 0.05797 0.87613 0.0
C346 C 0.99085 0.05836 0.89483 0.0
O347 O 0.98665 0.04079 0.90477 0.0
C348 C 0.02653 0.98782 0.86824 0.0
C349 C 0.01373 0.00745 0.78931 0.0
O350 O 0.02631 0.02173 0.795 0.0
O351 O 0.00125 0.9986 0.80247 0.0
O352 O 0.62355 0.89024 0.50553 0.0
Cd353 Cd 0.63848 0.91111 0.53203 0.0
O354 O 0.59284 0.90709 0.50564 0.0
Cd355 Cd 0.60245 0.92714 0.52962 0.0
O356 O 0.60614 0.94863 0.55376 0.0
C357 C 0.60054 0.94314 0.57168 0.0
O358 O 0.59329 0.92429 0.57533 0.0
C359 C 0.60459 0.89308 0.49859 0.0
C360 C 0.67955 0.92654 0.5233 0.0
O361 O 0.67706 0.9103 0.53487 0.0
O362 O 0.66269 0.93536 0.51579 0.0
O363 O 0.65431 0.12009 0.96308 0.0
Cd364 Cd 0.67294 0.1023 0.93647 0.0
O365 O 0.62378 0.10651 0.95335 0.0
Cd366 Cd 0.63683 0.08725 0.93016 0.0
O367 O 0.63586 0.06063 0.91129 0.0
C368 C 0.62963 0.06282 0.89302 0.0
O369 O 0.62544 0.0815 0.88551 0.0
C370 C 0.63402 0.1181 0.965 0.0
C371 C 0.70879 0.0802 0.9505 0.0
O372 O 0.71086 0.09818 0.94182 0.0
O373 O 0.68976 0.07277 0.95276 0.0
O374 O 0.33005 0.45868 0.01796 0.0
Cd375 Cd 0.29764 0.47948 0.01241 0.0
O376 O 0.34301 0.46656 0.98769 0.0
Cd377 Cd 0.36766 0.46688 0.96393 0.0
O378 O 0.39022 0.46434 0.93878 0.0
C379 C 0.39212 0.47877 0.92519 0.0
O380 O 0.38046 0.49553 0.92664 0.0
C381 C 0.34481 0.45696 0.00484 0.0
C382 C 0.26015 0.45656 0.01983 0.0
O383 O 0.26727 0.45974 0.00177 0.0
O384 O 0.27082 0.46407 0.03435 0.0
O385 O 0.84964 0.03119 0.99202 0.0
Cd386 Cd 0.81786 0.00902 0.99298 0.0
O387 O 0.863 0.01826 0.0206 0.0
Cd388 Cd 0.88622 0.01665 0.04555 0.0
O389 O 0.90839 0.01513 0.07124 0.0
C390 C 0.91801 0.03135 0.07641 0.0
O391 O 0.91446 0.04874 0.06593 0.0
C392 C 0.86441 0.03087 0.00532 0.0
C393 C 0.78234 0.0318 0.97909 0.0
O394 O 0.7855 0.0284 0.9981 0.0
O395 O 0.79566 0.02411 0.96673 0.0
O396 O 0.49042 0.33556 0.08363 0.0
Cd397 Cd 0.47294 0.306 0.06898 0.0
O398 O 0.46639 0.35522 0.06822 0.0
Cd399 Cd 0.44729 0.38266 0.05968 0.0
O400 O 0.42356 0.40516 0.04814 0.0
C401 C 0.417 0.40459 0.02996 0.0
O402 O 0.42523 0.39072 0.01836 0.0
C403 C 0.48244 0.35341 0.08017 0.0
C404 C 0.49868 0.27079 0.06995 0.0
O405 O 0.4971 0.28238 0.05377 0.0
O406 O 0.48833 0.27597 0.08567 0.0
O407 O 0.59251 0.15186 0.04911 0.0
Cd408 Cd 0.57002 0.15728 0.07871 0.0
O409 O 0.5647 0.13875 0.03363 0.0
Cd410 Cd 0.54351 0.13648 0.05987 0.0
O411 O 0.52355 0.11878 0.08154 0.0
C412 C 0.53189 0.10258 0.08979 0.0
O413 O 0.55206 0.0983 0.08566 0.0
C414 C 0.5843 0.14455 0.03337 0.0
C415 C 0.54799 0.19472 0.07482 0.0
O416 O 0.56509 0.19299 0.08564 0.0
O417 O 0.54126 0.17881 0.06599 0.0
O418 O 0.51474 0.61458 0.44153 0.0
Cd419 Cd 0.52562 0.63741 0.46803 0.0
O420 O 0.484 0.6104 0.45743 0.0
Cd421 Cd 0.45132 0.59867 0.46276 0.0
O422 O 0.42147 0.58265 0.47119 0.0
C423 C 0.4142 0.58313 0.48912 0.0
O424 O 0.42478 0.59367 0.50238 0.0
C425 C 0.49634 0.60602 0.44288 0.0
C426 C 0.53427 0.67759 0.45338 0.0
O427 O 0.54909 0.66382 0.45433 0.0
O428 O 0.5153 0.67225 0.45925 0.0
O429 O 0.57989 0.82234 0.43576 0.0
Cd430 Cd 0.5677 0.8006 0.40885 0.0
O431 O 0.56178 0.84771 0.42086 0.0
Cd432 Cd 0.55078 0.87956 0.41514 0.0
O433 O 0.53551 0.90825 0.40398 0.0
C434 C 0.54657 0.92286 0.39576 0.0
O435 O 0.5676 0.92072 0.39468 0.0
C436 C 0.57374 0.84103 0.43535 0.0
C437 C 0.55587 0.76117 0.42356 0.0
O438 O 0.57524 0.76517 0.41788 0.0
O439 O 0.5421 0.7759 0.42229 0.0
O440 O 0.06837 0.49549 0.3486 0.0
Cd441 Cd 0.06205 0.46649 0.32715 0.0
O442 O 0.0988 0.48317 0.36117 0.0
Cd443 Cd 0.09126 0.45271 0.35076 0.0
O444 O 0.07113 0.42823 0.36428 0.0
C445 C 0.0699 0.42864 0.38343 0.0
O446 O 0.08132 0.44247 0.39261 0.0
C447 C 0.08509 0.49772 0.35941 0.0
C448 C 0.05908 0.48077 0.28681 0.0
O449 O 0.04218 0.47852 0.29783 0.0
O450 O 0.07732 0.47603 0.29486 0.0
O451 O 0.95195 0.94067 0.345 0.0
Cd452 Cd 0.98122 0.93482 0.32119 0.0
O453 O 0.9714 0.96617 0.35557 0.0
Cd454 Cd 0.97809 0.99342 0.37281 0.0
O455 O 0.98906 0.02204 0.38554 0.0
C456 C 1e-05 0.02191 0.40178 0.0
O457 O 0.00425 0.00413 0.41128 0.0
C458 C 0.95447 0.95513 0.35707 0.0
C459 C 0.98157 0.96216 0.28731 0.0
O460 O 0.97279 0.94433 0.28658 0.0
O461 O 0.98982 0.96719 0.30414 0.0
O462 O 0.0729 0.50266 0.14204 0.0
Cd463 Cd 0.05755 0.52881 0.16314 0.0
O464 O 0.09966 0.52226 0.13089 0.0
Cd465 Cd 0.08358 0.54964 0.1412 0.0
O466 O 0.05839 0.56963 0.12832 0.0
C467 C 0.05459 0.56638 0.10986 0.0
O468 O 0.06608 0.55232 0.10109 0.0
C469 C 0.0903 0.5048 0.132 0.0
C470 C 0.05658 0.514 0.20341 0.0
O471 O 0.04024 0.51197 0.19181 0.0
O472 O 0.07325 0.52324 0.19596 0.0
O473 O 0.97365 0.04691 0.15806 0.0
Cd474 Cd 5e-05 0.04761 0.18545 0.0
O475 O 0.99006 0.01889 0.14921 0.0
Cd476 Cd 0.99777 0.99354 0.12979 0.0
O477 O 0.00879 0.96558 0.11586 0.0
C478 C 0.00321 0.96091 0.09818 0.0
O479 O 0.99026 0.9734 0.08771 0.0
C480 C 0.97521 0.03219 0.14615 0.0
C481 C 0.99119 0.01936 0.21751 0.0
O482 O 0.98564 0.03834 0.21832 0.0
O483 O 0.00078 0.01375 0.20153 0.0
O484 O 0.31012 0.05328 0.55605 0.0
Cd485 Cd 0.28315 0.02605 0.56118 0.0
O486 O 0.32395 0.03543 0.53196 0.0
Cd487 Cd 0.34972 0.02764 0.51117 0.0
O488 O 0.37518 0.02171 0.48952 0.0
C489 C 0.39362 0.02997 0.49133 0.0
O490 O 0.39705 0.04178 0.50658 0.0
C491 C 0.32455 0.05117 0.54268 0.0
C492 C 0.24059 0.03884 0.55551 0.0
O493 O 0.24996 0.0402 0.57265 0.0
O494 O 0.25152 0.03171 0.54095 0.0
O495 O 0.31522 0.92549 0.96029 0.0
Cd496 Cd 0.28841 0.95248 0.96504 0.0
O497 O 0.326 0.92998 0.9912 0.0
Cd498 Cd 0.34746 0.92999 0.01746 0.0
O499 O 0.36292 0.93986 0.04503 0.0
C500 C 0.38307 0.93801 0.04801 0.0
O501 O 0.39486 0.92924 0.03434 0.0
C502 C 0.32849 0.92127 0.97454 0.0
C503 C 0.24534 0.94108 0.96132 0.0
O504 O 0.25665 0.94624 0.94569 0.0
O505 O 0.25456 0.94086 0.97868 0.0
O506 O 0.62009 0.63455 0.04824 0.0
Cd507 Cd 0.63489 0.61672 0.07852 0.0
O508 O 0.59325 0.64759 0.0651 0.0
Cd509 Cd 0.60067 0.62942 0.09283 0.0
O510 O 0.59474 0.60115 0.11123 0.0
C511 C 0.5971 0.58425 0.10253 0.0
O512 O 0.6041 0.58491 0.08377 0.0
C513 C 0.60333 0.64584 0.04853 0.0
C514 C 0.67348 0.5963 0.07171 0.0
O515 O 0.65533 0.58794 0.06781 0.0
O516 O 0.67339 0.61439 0.0787 0.0
O517 O 0.09873 0.89272 0.97869 0.0
Cd518 Cd 0.10833 0.92134 0.95512 0.0
O519 O 0.09914 0.86906 0.95601 0.0
Cd520 Cd 0.10208 0.89235 0.93132 0.0
O521 O 0.08893 0.91681 0.91122 0.0
C522 C 0.06971 0.92177 0.9155 0.0
O523 O 0.0603 0.91204 0.93098 0.0
C524 C 0.09713 0.87391 0.97431 0.0
C525 C 0.15284 0.92736 0.95585 0.0
O526 O 0.14046 0.93563 0.96868 0.0
O527 O 0.14413 0.91638 0.94248 0.0
C528 C 0.0893 0.14627 0.50377 0.0
C529 C 0.09445 0.12582 0.49936 0.0
C530 C 0.08573 0.1614 0.48833 0.0
C531 C 0.087 0.15666 0.46788 0.0
H532 H 0.08784 0.15069 0.51929 0.0
H533 H 0.08172 0.17691 0.49243 0.0
S534 S 0.10211 0.1062 0.448 0.0
N535 N 0.10189 0.10203 0.47281 0.0
N536 N 0.09547 0.13069 0.44388 0.0
C537 C 0.09256 0.13648 0.46315 0.0
C538 C 0.09621 0.12101 0.47887 0.0
C539 C 0.89672 0.43185 0.46213 0.0
C540 C 0.8808 0.41899 0.45441 0.0
C541 C 0.91632 0.42378 0.4694 0.0
C542 C 0.92088 0.40252 0.46905 0.0
H543 H 0.89454 0.44843 0.46158 0.0
H544 H 0.92832 0.43448 0.47454 0.0
S545 S 0.8835 0.36208 0.45201 0.0
N546 N 0.87007 0.38388 0.44811 0.0
N547 N 0.90694 0.36856 0.4617 0.0
C548 C 0.90463 0.38936 0.46222 0.0
C549 C 0.88465 0.39764 0.45481 0.0
C550 C 0.08532 0.83814 0.98495 0.0
C551 C 0.09236 0.85778 0.99033 0.0
C552 C 0.08031 0.82269 0.99972 0.0
C553 C 0.08206 0.82628 0.02043 0.0
H554 H 0.08346 0.83467 0.96919 0.0
H555 H 0.07483 0.80785 0.99487 0.0
S556 S 0.10199 0.8741 0.04264 0.0
N557 N 0.10202 0.87947 0.01799 0.0
N558 N 0.09319 0.85013 0.04563 0.0
C559 C 0.08958 0.84559 0.02608 0.0
C560 C 0.09458 0.86141 0.01107 0.0
C561 C 0.86887 0.55911 0.05747 0.0
C562 C 0.85501 0.559 0.0407 0.0
C563 C 0.88887 0.56906 0.05627 0.0
C564 C 0.89575 0.57957 0.0383 0.0
H565 H 0.86436 0.55114 0.07162 0.0
H566 H 0.89898 0.56846 0.06963 0.0
S567 S 0.8645 0.58519 0.99046 0.0
N568 N 0.8488 0.57121 0.00592 0.0
N569 N 0.88655 0.58986 0.00347 0.0
C570 C 0.8818 0.57993 0.02147 0.0
C571 C 0.86141 0.56965 0.0227 0.0
C572 C 0.49599 0.09076 0.10316 0.0
C573 C 0.51839 0.08766 0.10192 0.0
C574 C 0.48252 0.07597 0.11273 0.0
C575 C 0.49085 0.05743 0.1215 0.0
H576 H 0.48863 0.10447 0.0962 0.0
H577 H 0.46533 0.07895 0.11278 0.0
S578 S 0.54868 0.04271 0.12426 0.0
N579 N 0.54853 0.06528 0.11166 0.0
N580 N 0.52322 0.03751 0.12963 0.0
C581 C 0.51334 0.0545 0.12114 0.0
C582 C 0.52709 0.0696 0.11137 0.0
C583 C 0.48962 0.39144 0.08174 0.0
C584 C 0.49136 0.37135 0.09054 0.0
C585 C 0.49796 0.4085 0.09142 0.0
C586 C 0.5087 0.40611 0.11014 0.0
H587 H 0.48232 0.39405 0.06701 0.0
H588 H 0.49639 0.42362 0.08389 0.0
S589 S 0.51738 0.35674 0.13974 0.0
N590 N 0.50436 0.35008 0.1193 0.0
N591 N 0.52038 0.38202 0.13724 0.0
C592 C 0.51064 0.38609 0.11909 0.0
C593 C 0.50196 0.36875 0.10933 0.0
C594 C 0.54837 0.9567 0.37592 0.0
C595 C 0.53588 0.94144 0.3863 0.0
C596 C 0.53873 0.97376 0.36572 0.0
C597 C 0.51626 0.9764 0.36574 0.0
H598 H 0.56576 0.95535 0.37533 0.0
H599 H 0.54896 0.98496 0.35772 0.0
S600 S 0.47608 0.94079 0.3899 0.0
N601 N 0.4996 0.93016 0.39567 0.0
N602 N 0.48164 0.96209 0.37624 0.0
C603 C 0.50353 0.96142 0.37609 0.0
C604 C 0.5133 0.94399 0.38644 0.0
C605 C 0.49104 0.58035 0.39283 0.0
C606 C 0.48057 0.56162 0.39818 0.0
C607 C 0.49558 0.59482 0.40733 0.0
C608 C 0.48984 0.59114 0.42775 0.0
H609 H 0.49608 0.58375 0.37735 0.0
H610 H 0.50387 0.60893 0.40256 0.0
S611 S 0.46371 0.54388 0.45001 0.0
N612 N 0.4651 0.53999 0.42558 0.0
N613 N 0.47448 0.56683 0.45284 0.0
C614 C 0.47943 0.57249 0.43336 0.0
C615 C 0.47456 0.55784 0.41857 0.0
C616 C 0.11755 0.47741 0.08967 0.0
C617 C 0.10892 0.45734 0.09159 0.0
C618 C 0.11238 0.49232 0.10349 0.0
C619 C 0.09823 0.48784 0.11973 0.0
H620 H 0.12788 0.48192 0.07702 0.0
H621 H 0.11879 0.50775 0.10082 0.0
S622 S 0.07346 0.4369 0.13314 0.0
N623 N 0.0872 0.4332 0.11227 0.0
N624 N 0.07738 0.4613 0.13814 0.0
C625 C 0.09047 0.46751 0.12253 0.0
C626 C 0.09585 0.45225 0.10851 0.0
C627 C 0.10092 0.51511 0.38883 0.0
C628 C 0.08732 0.51605 0.3718 0.0
C629 C 0.10097 0.53082 0.40262 0.0
C630 C 0.08754 0.54822 0.39986 0.0
H631 H 0.11097 0.5017 0.39211 0.0
H632 H 0.11119 0.52896 0.41584 0.0
S633 S 0.05096 0.5594 0.35623 0.0
N634 N 0.06154 0.5367 0.35189 0.0
N635 N 0.06171 0.56633 0.3777 0.0
C636 C 0.07481 0.54996 0.38223 0.0
C637 C 0.07466 0.53386 0.36824 0.0
C638 C 0.89966 0.96085 0.38144 0.0
C639 C 0.90472 0.96492 0.40163 0.0
C640 C 0.91588 0.95781 0.36713 0.0
C641 C 0.93778 0.95901 0.37235 0.0
H642 H 0.88303 0.9598 0.37662 0.0
H643 H 0.91122 0.9546 0.35181 0.0
S644 S 0.95989 0.96812 0.42322 0.0
N645 N 0.9335 0.9694 0.42613 0.0
N646 N 0.96382 0.96342 0.39921 0.0
C647 C 0.94315 0.96293 0.39242 0.0
C648 C 0.92667 0.96595 0.40706 0.0
C649 C 0.44164 0.5447 0.61551 0.0
C650 C 0.43953 0.52916 0.63092 0.0
C651 C 0.42843 0.54503 0.59832 0.0
C652 C 0.41232 0.53003 0.59601 0.0
H653 H 0.45381 0.55658 0.61661 0.0
H654 H 0.43076 0.55732 0.58685 0.0
S655 S 0.39958 0.48661 0.63274 0.0
N656 N 0.41966 0.49888 0.64331 0.0
N657 N 0.39485 0.4993 0.61096 0.0
C658 C 0.40989 0.5145 0.61149 0.0
C659 C 0.4235 0.51411 0.62895 0.0
C660 C 0.88967 0.93113 0.52198 0.0
C661 C 0.90932 0.93957 0.51479 0.0
C662 C 0.86992 0.94072 0.51721 0.0
C663 C 0.86907 0.95902 0.505 0.0
H664 H 0.88947 0.91695 0.53131 0.0
H665 H 0.8552 0.93367 0.52302 0.0
S666 S 0.91579 0.98862 0.48403 0.0
N667 N 0.92658 0.96804 0.49566 0.0
N668 N 0.88951 0.98625 0.48731 0.0
C669 C 0.88853 0.9679 0.49809 0.0
C670 C 0.90864 0.95812 0.50282 0.0
C671 C 0.05028 0.62876 0.53075 0.0
C672 C 0.06275 0.64222 0.54194 0.0
C673 C 0.05957 0.61722 0.51568 0.0
C674 C 0.08175 0.61863 0.51123 0.0
H675 H 0.03307 0.62751 0.53326 0.0
H676 H 0.04919 0.60715 0.50743 0.0
S677 S 0.12146 0.65176 0.53639 0.0
N678 N 0.09835 0.65643 0.54769 0.0
N679 N 0.11596 0.63468 0.51941 0.0
C680 C 0.09445 0.63201 0.52242 0.0
C681 C 0.0849 0.64388 0.53769 0.0
C682 C 0.92199 0.05071 0.00381 0.0
C683 C 0.91991 0.07039 0.99402 0.0
C684 C 0.90393 0.0382 0.00793 0.0
C685 C 0.88308 0.04492 0.00257 0.0
H686 H 0.93774 0.04464 0.00788 0.0
H687 H 0.90647 0.02283 0.0146 0.0
S688 S 0.86848 0.0956 0.97798 0.0
N689 N 0.895 0.09633 0.97996 0.0
N690 N 0.86117 0.0728 0.98783 0.0
C691 C 0.88066 0.06471 0.99324 0.0
C692 C 0.89902 0.07746 0.989 0.0
C693 C 0.08527 0.36222 0.0033 0.0
C694 C 0.10062 0.377 0.99673 0.0
C695 C 0.07078 0.35388 0.9896 0.0
C696 C 0.07163 0.35963 0.96884 0.0
H697 H 0.08349 0.35811 0.01928 0.0
H698 H 0.05839 0.3434 0.99537 0.0
S699 S 0.11049 0.39614 0.9439 0.0
N700 N 0.11683 0.39604 0.96814 0.0
N701 N 0.09021 0.3798 0.94223 0.0
C702 C 0.08792 0.37331 0.96194 0.0
C703 C 0.10227 0.38217 0.97596 0.0
C704 C 0.53132 0.90231 0.91824 0.0
C705 C 0.53334 0.90474 0.89707 0.0
C706 C 0.51512 0.88994 0.92722 0.0
C707 C 0.50023 0.87937 0.91545 0.0
H708 H 0.54205 0.91038 0.92808 0.0
H709 H 0.51408 0.88901 0.94358 0.0
S710 S 0.49948 0.87924 0.85927 0.0
N711 N 0.51975 0.89459 0.86451 0.0
N712 N 0.48934 0.87128 0.88134 0.0
C713 C 0.5025 0.88107 0.89423 0.0
C714 C 0.51901 0.89376 0.88506 0.0
C715 C 0.49074 0.57799 0.89085 0.0
C716 C 0.47456 0.56601 0.90067 0.0
C717 C 0.49913 0.59563 0.89941 0.0
C718 C 0.49179 0.60204 0.91823 0.0
H719 H 0.49736 0.57352 0.87656 0.0
H720 H 0.51193 0.60394 0.89142 0.0
S721 S 0.4483 0.57722 0.94939 0.0
N722 N 0.4505 0.56268 0.92971 0.0
N723 N 0.4663 0.59578 0.94581 0.0
C724 C 0.47504 0.59068 0.92788 0.0
C725 C 0.46643 0.57271 0.91912 0.0
C726 C 0.52826 0.09935 0.59838 0.0
C727 C 0.5216 0.07979 0.60615 0.0
C728 C 0.51559 0.11082 0.58432 0.0
C729 C 0.49573 0.10322 0.57752 0.0
H730 H 0.54374 0.10557 0.60259 0.0
H731 H 0.52175 0.1255 0.57833 0.0
S732 S 0.46976 0.05393 0.59527 0.0
N733 N 0.49297 0.05414 0.60743 0.0
N734 N 0.46915 0.0756 0.58117 0.0
C735 C 0.48841 0.08411 0.58599 0.0
C736 C 0.50133 0.07244 0.60025 0.0
C737 C 0.46242 0.42911 0.58077 0.0
C738 C 0.46404 0.43008 0.60191 0.0
C739 C 0.47053 0.41223 0.57074 0.0
C740 C 0.48052 0.39553 0.58143 0.0
H741 H 0.45559 0.44185 0.57172 0.0
H742 H 0.46956 0.41266 0.55438 0.0
S743 S 0.48616 0.38919 0.63728 0.0
N744 N 0.47447 0.4119 0.63343 0.0
N745 N 0.48964 0.38014 0.61462 0.0
C746 C 0.48106 0.39571 0.6027 0.0
C747 C 0.47287 0.41298 0.61292 0.0
C748 C 0.93305 0.51879 0.94089 0.0
C749 C 0.92567 0.50509 0.92653 0.0
C750 C 0.91955 0.5254 0.95625 0.0
C751 C 0.89804 0.51865 0.95792 0.0
H752 H 0.94948 0.52444 0.9404 0.0
H753 H 0.92615 0.53586 0.96692 0.0
S754 S 0.87053 0.48302 0.92391 0.0
N755 N 0.89523 0.48519 0.91481 0.0
N756 N 0.86984 0.49763 0.94364 0.0
C757 C 0.89033 0.50508 0.94356 0.0
C758 C 0.90413 0.49829 0.92791 0.0
C759 C 0.91289 0.44059 0.5465 0.0
C760 C 0.90273 0.45659 0.53498 0.0
C761 C 0.92718 0.44479 0.56216 0.0
C762 C 0.93202 0.46518 0.56697 0.0
H763 H 0.91008 0.4246 0.54326 0.0
H764 H 0.93478 0.43185 0.5703 0.0
S765 S 0.90866 0.51274 0.54233 0.0
N766 N 0.89773 0.49373 0.53015 0.0
N767 N 0.92464 0.50161 0.55956 0.0
C768 C 0.92156 0.48137 0.55594 0.0
C769 C 0.90692 0.47708 0.53997 0.0
C770 C 0.06946 0.04205 0.61127 0.0
C771 C 0.05874 0.06037 0.6049 0.0
C772 C 0.05886 0.02642 0.62276 0.0
C773 C 0.03706 0.02839 0.62819 0.0
H774 H 0.08605 0.03949 0.60694 0.0
H775 H 0.06762 0.01235 0.62671 0.0
S776 S 0.00225 0.0741 0.6173 0.0
N777 N 0.02548 0.08021 0.60642 0.0
N778 N 0.0056 0.05075 0.62783 0.0
C779 C 0.02641 0.04696 0.62273 0.0
C780 C 0.03723 0.06296 0.61115 0.0
C781 C 0.51523 0.42855 0.41302 0.0
C782 C 0.5359 0.42218 0.40722 0.0
C783 C 0.50281 0.44176 0.40038 0.0
C784 C 0.51046 0.44917 0.38135 0.0
H785 H 0.5088 0.42393 0.42777 0.0
H786 H 0.48731 0.4467 0.40595 0.0
S787 S 0.56248 0.43508 0.35789 0.0
N788 N 0.56269 0.42275 0.3803 0.0
N789 N 0.53933 0.4476 0.35655 0.0
C790 C 0.53058 0.44195 0.37482 0.0
C791 C 0.54329 0.42848 0.38775 0.0
C792 C 0.56213 0.6699 0.01235 0.0
C793 C 0.56946 0.66409 0.99332 0.0
C794 C 0.57398 0.66522 0.02999 0.0
C795 C 0.59373 0.65454 0.02937 0.0
H796 H 0.5465 0.67716 0.0139 0.0
H797 H 0.567 0.66908 0.04429 0.0
S798 S 0.6221 0.63944 0.9829 0.0
N799 N 0.59925 0.64974 0.97459 0.0
N800 N 0.62154 0.64094 0.00773 0.0
C801 C 0.60218 0.6503 0.01025 0.0
C802 C 0.59006 0.65505 0.99225 0.0
C803 C 0.35729 0.91045 0.95121 0.0
C804 C 0.34781 0.90872 0.9705 0.0
C805 C 0.37635 0.9 0.94693 0.0
C806 C 0.38671 0.88721 0.96173 0.0
H807 H 0.35026 0.92047 0.93939 0.0
H808 H 0.38314 0.9023 0.93193 0.0
S809 S 0.36691 0.87547 0.01401 0.0
N810 N 0.34895 0.89175 0.00401 0.0
N811 N 0.38508 0.87228 0.99619 0.0
C812 C 0.37693 0.8847 0.98092 0.0
C813 C 0.35744 0.89542 0.98527 0.0
C814 C 0.58855 0.36971 0.52238 0.0
C815 C 0.57434 0.35643 0.51264 0.0
C816 C 0.6048 0.38047 0.51174 0.0
C817 C 0.60759 0.37851 0.49085 0.0
H818 H 0.58675 0.37242 0.53832 0.0
H819 H 0.61469 0.39108 0.51986 0.0
S820 S 0.57739 0.34313 0.45874 0.0
N821 N 0.56581 0.3402 0.48117 0.0
N822 N 0.59688 0.36016 0.4613 0.0
C823 C 0.59452 0.36433 0.48109 0.0
C824 C 0.5778 0.35334 0.49195 0.0
C825 C 0.35277 0.07151 0.55942 0.0
C826 C 0.34309 0.06547 0.54147 0.0
C827 C 0.37156 0.08346 0.55901 0.0
C828 C 0.38135 0.09004 0.54059 0.0
H829 H 0.3462 0.06635 0.57397 0.0
H830 H 0.37869 0.08717 0.57333 0.0
S831 S 0.36039 0.08069 0.48924 0.0
N832 N 0.34314 0.06868 0.50475 0.0
N833 N 0.37868 0.09102 0.50382 0.0
C834 C 0.37117 0.08495 0.52245 0.0
C835 C 0.352 0.07267 0.52293 0.0
C836 C 0.01851 0.54181 0.59528 0.0
C837 C 0.0262 0.55809 0.60669 0.0
C838 C 0.01744 0.52151 0.60358 0.0
C839 C 0.02403 0.51673 0.62358 0.0
H840 H 0.01346 0.54469 0.57973 0.0
H841 H 0.01195 0.50943 0.59408 0.0
S842 S 0.0447 0.55358 0.66017 0.0
N843 N 0.04006 0.56789 0.63933 0.0
N844 N 0.03798 0.52985 0.65478 0.0
C845 C 0.03158 0.53281 0.6352 0.0
C846 C 0.03263 0.55346 0.62682 0.0
C847 C 0.98909 0.92319 0.59023 0.0
C848 C 0.00604 0.93717 0.59322 0.0
C849 C 0.99041 0.90847 0.57539 0.0
C850 C 0.00877 0.90711 0.56306 0.0
H851 H 0.97458 0.92367 0.59932 0.0
H852 H 0.97713 0.89783 0.57387 0.0
S853 S 0.05784 0.93968 0.56495 0.0
N854 N 0.04199 0.94836 0.58268 0.0
N855 N 0.04437 0.92076 0.55492 0.0
C856 C 0.02593 0.92078 0.56604 0.0
C857 C 0.02458 0.93582 0.58103 0.0
C858 C 0.01122 0.4284 0.86191 0.0
C859 C 0.00298 0.44621 0.87043 0.0
C860 C 0.01207 0.40953 0.87302 0.0
C861 C 0.00465 0.40766 0.89309 0.0
H862 H 0.01737 0.42911 0.84657 0.0
H863 H 0.01896 0.39635 0.8659 0.0
S864 S 0.98257 0.44992 0.92281 0.0
N865 N 0.98817 0.46105 0.90046 0.0
N866 N 0.98895 0.42534 0.92118 0.0
C867 C 0.99595 0.42526 0.90172 0.0
C868 C 0.99534 0.44461 0.89044 0.0
C869 C 0.98924 0.07689 0.92705 0.0
C870 C 0.9926 0.07765 0.90597 0.0
C871 C 0.99295 0.09414 0.93851 0.0
C872 C -4e-05 0.11294 0.92936 0.0
H873 H 0.98439 0.06265 0.93499 0.0
H874 H 0.99129 0.09235 0.95478 0.0
S875 S 0.00974 0.12379 0.87459 0.0
N876 N 0.00238 0.0993 0.87628 0.0
N877 N 0.00919 0.13174 0.89792 0.0
C878 C 0.00277 0.1142 0.90826 0.0
C879 C 0.99902 0.0966 0.89653 0.0
C880 C 0.58643 0.95443 0.60475 0.0
C881 C 0.59932 0.95852 0.58753 0.0
C882 C 0.58235 0.96969 0.61851 0.0
C883 C 0.59113 0.98965 0.61575 0.0
H884 H 0.57856 0.93961 0.60718 0.0
H885 H 0.57153 0.96598 0.63102 0.0
S886 S 0.62868 0.00729 0.57472 0.0
N887 N 0.62282 0.98327 0.56965 0.0
N888 N 0.61528 0.01195 0.59556 0.0
C889 C 0.60532 0.9935 0.59937 0.0
C890 C 0.60935 0.97796 0.58525 0.0
C891 C 0.62446 0.02465 0.89154 0.0
C892 C 0.6238 0.04438 0.8817 0.0
C893 C 0.61586 0.00738 0.8825 0.0
C894 C 0.60624 0.00908 0.86322 0.0
H895 H 0.6308 0.0226 0.90675 0.0
H896 H 0.61592 0.99277 0.89115 0.0
S897 S 0.60369 0.05657 0.82961 0.0
N898 N 0.61515 0.0641 0.85053 0.0
N899 N 0.599 0.03166 0.83353 0.0
C900 C 0.6069 0.02841 0.85259 0.0
C901 C 0.61567 0.04604 0.86182 0.0
C902 C 0.43231 0.45479 0.88987 0.0
C903 C 0.43536 0.47028 0.87457 0.0
C904 C 0.41849 0.45779 0.90621 0.0
C905 C 0.40695 0.47635 0.9078 0.0
H906 H 0.44089 0.44027 0.88935 0.0
H907 H 0.41683 0.44537 0.91764 0.0
S908 S 0.40813 0.52116 0.87062 0.0
N909 N 0.42488 0.50432 0.86123 0.0
N910 N 0.39908 0.51025 0.89203 0.0
C911 C 0.40968 0.4919 0.89237 0.0
C912 C 0.42383 0.4888 0.87574 0.0
C913 C 0.94183 0.0494 0.10048 0.0
C914 C 0.93266 0.03089 0.09422 0.0
C915 C 0.95544 0.04964 0.11738 0.0
C916 C 0.96064 0.03136 0.12855 0.0
H917 H 0.93845 0.06393 0.09234 0.0
H918 H 0.96216 0.06425 0.12158 0.0
S919 S 0.94003 0.97895 0.1195 0.0
N920 N 0.92934 0.99378 0.10115 0.0
N921 N 0.95466 0.99444 0.13307 0.0
C922 C 0.95145 0.01278 0.12271 0.0
C923 C 0.93754 0.01249 0.10551 0.0
C924 C 0.37309 0.44541 0.02946 0.0
C925 C 0.36399 0.44436 0.0101 0.0
C926 C 0.39053 0.43287 0.03551 0.0
C927 C 0.39944 0.41857 0.02249 0.0
H928 H 0.36662 0.45599 0.0401 0.0
H929 H 0.39682 0.43423 0.05066 0.0
S930 S 0.38063 0.40928 0.97035 0.0
N931 N 0.36449 0.4275 0.97813 0.0
N932 N 0.39754 0.40411 0.9892 0.0
C933 C 0.3905 0.41747 0.00296 0.0
C934 C 0.37271 0.43031 0.99684 0.0
C935 C 0.58744 0.13376 0.99783 0.0
C936 C 0.59756 0.141 0.01516 0.0
C937 C 0.59941 0.12735 0.9814 0.0
C938 C 0.62209 0.1279 0.98147 0.0
H939 H 0.57006 0.13234 0.99713 0.0
H940 H 0.59071 0.12131 0.96877 0.0
S941 S 0.65652 0.14772 0.02216 0.0
N942 N 0.63166 0.15002 0.03068 0.0
N943 N 0.65424 0.13795 0.99967 0.0
C944 C 0.63247 0.13627 0.99815 0.0
C945 C 0.6202 0.14282 0.01501 0.0
C946 C 0.3668 0.54629 0.48644 0.0
C947 C 0.35682 0.54773 0.50537 0.0
C948 C 0.38529 0.55779 0.48139 0.0
C949 C 0.39443 0.57137 0.495 0.0
H950 H 0.3604 0.53598 0.47551 0.0
H951 H 0.3925 0.5559 0.46668 0.0
S952 S 0.37275 0.58239 0.54571 0.0
N953 N 0.35624 0.56479 0.53721 0.0
N954 N 0.39109 0.58647 0.52788 0.0
C955 C 0.38426 0.57327 0.51388 0.0
C956 C 0.36543 0.56144 0.51902 0.0
C957 C 0.6024 0.85314 0.45838 0.0
C958 C 0.5811 0.85468 0.45121 0.0
C959 C 0.60984 0.86567 0.47358 0.0
C960 C 0.59622 0.88012 0.48237 0.0
H961 H 0.61347 0.84227 0.45204 0.0
H962 H 0.62645 0.86397 0.47845 0.0
S963 S 0.53829 0.88865 0.47009 0.0
N964 N 0.546 0.87058 0.45491 0.0
N965 N 0.5599 0.89446 0.48322 0.0
C966 C 0.5747 0.88155 0.47549 0.0
C967 C 0.56717 0.86875 0.45999 0.0
C968 C 0.05474 0.4155 0.41655 0.0
C969 C 0.05486 0.41499 0.3953 0.0
C970 C 0.03986 0.40398 0.4283 0.0
C971 C 0.02436 0.3915 0.41932 0.0
H972 H 0.06605 0.42511 0.42428 0.0
H973 H 0.04032 0.40522 0.44456 0.0
S974 S 0.01852 0.38374 0.3643 0.0
N975 N 0.03868 0.40022 0.36577 0.0
N976 N 0.01067 0.37856 0.38783 0.0
C977 C 0.0246 0.39041 0.3981 0.0
C978 C 0.03985 0.40212 0.38611 0.0
C979 C 0.02092 0.04093 0.42742 0.0
C980 C 0.00875 0.04142 0.40944 0.0
C981 C 0.03011 0.05891 0.43464 0.0
C982 C 0.0276 0.07816 0.42417 0.0
H983 H 0.02359 0.0265 0.43598 0.0
H984 H 0.03951 0.05759 0.44844 0.0
S985 S 0.99645 0.08811 0.37672 0.0
N986 N 0.99412 0.06303 0.38161 0.0
N987 N 0.01139 0.09673 0.39515 0.0
C988 C 0.01517 0.07896 0.40632 0.0
C989 C 0.00575 0.06065 0.39898 0.0
C990 C 0.0181 0.58373 0.06629 0.0
C991 C 0.00377 0.59756 0.07501 0.0
C992 C 0.03448 0.57396 0.07768 0.0
C993 C 0.03734 0.5776 0.09831 0.0
H994 H 0.01662 0.58022 0.05051 0.0
H995 H 0.04492 0.56336 0.07016 0.0
S996 S 0.00458 0.61293 0.1284 0.0
N997 N 0.99381 0.61476 0.10557 0.0
N998 N 0.02466 0.59637 0.12698 0.0
C999 C 0.02332 0.59159 0.10724 0.0
C1000 C 0.00653 0.60155 0.09561 0.0
C1001 C 0.0128 0.91897 0.0609 0.0
C1002 C 0.02596 0.90467 0.07179 0.0
C1003 C 0.00556 0.93704 0.06955 0.0
C1004 C 0.01122 0.94164 0.08944 0.0
H1005 H 0.00789 0.91619 0.04557 0.0
H1006 H 0.99542 0.94746 0.06049 0.0
S1007 S 0.04569 0.90946 0.12441 0.0
N1008 N 0.04458 0.8965 0.10357 0.0
N1009 N 0.03104 0.93037 0.11977 0.0
C1010 C 0.02449 0.92753 0.10049 0.0
C1011 C 0.03183 0.9091 0.09169 0.0
C1012 C 0.42299 0.00858 0.44655 0.0
C1013 C 0.44242 0.0198 0.44571 0.0
C1014 C 0.40747 0.0119 0.4614 0.0
C1015 C 0.41074 0.02649 0.47618 0.0
H1016 H 0.4195 0.9973 0.43544 0.0
H1017 H 0.39273 0.00296 0.46119 0.0
S1018 S 0.45923 0.05949 0.48119 0.0
N1019 N 0.46432 0.04581 0.46135 0.0
N1020 N 0.43518 0.05201 0.4893 0.0
C1021 C 0.43026 0.0376 0.47577 0.0
C1022 C 0.44607 0.03427 0.46054 0.0
C1023 C 0.41598 0.95012 0.06583 0.0
C1024 C 0.39344 0.94778 0.0654 0.0
C1025 C 0.42608 0.96137 0.0807 0.0
C1026 C 0.4141 0.97077 0.09581 0.0
H1027 H 0.42594 0.94384 0.05417 0.0
H1028 H 0.44342 0.96327 0.07986 0.0
S1029 S 0.35485 0.96688 0.10315 0.0
N1030 N 0.35958 0.95406 0.08266 0.0
N1031 N 0.37857 0.97521 0.11059 0.0
C1032 C 0.39165 0.96756 0.09627 0.0
C1033 C 0.38133 0.95609 0.08108 0.0
C1034 C 0.56527 0.54703 0.13703 0.0
C1035 C 0.56733 0.52817 0.12751 0.0
C1036 C 0.57586 0.56488 0.12948 0.0
C1037 C 0.58895 0.5646 0.11211 0.0
H1038 H 0.55462 0.54829 0.14988 0.0
H1039 H 0.57295 0.57918 0.13682 0.0
S1040 S 0.60264 0.51838 0.08367 0.0
N1041 N 0.58562 0.50977 0.10128 0.0
N1042 N 0.60552 0.54325 0.08714 0.0
C1043 C 0.59235 0.54554 0.10331 0.0
C1044 C 0.58155 0.52736 0.11098 0.0
C1045 C 0.06779 0.94751 0.88601 0.0
C1046 C 0.05815 0.9382 0.90341 0.0
C1047 C 0.05731 0.96324 0.8745 0.0
C1048 C 0.03681 0.97039 0.88001 0.0
H1049 H 0.08364 0.94271 0.88122 0.0
H1050 H 0.06553 0.97005 0.86138 0.0
S1051 S 0.00413 0.95064 0.92385 0.0
N1052 N 0.02653 0.93697 0.92527 0.0
N1053 N 0.00693 0.96644 0.90374 0.0
C1054 C 0.02685 0.96102 0.89724 0.0
C1055 C 0.03747 0.94496 0.90889 0.0
C1056 C 0.00246 0.27791 0.4337 0.0
C1057 C 0.0056 0.29327 0.44773 0.0
C1058 C 0.01753 0.26208 0.43159 0.0
C1059 C 0.03649 0.26109 0.44327 0.0
H1060 H 0.98854 0.27841 0.42379 0.0
H1061 H 0.01468 0.25103 0.42012 0.0
S1062 S 0.05132 0.29614 0.48378 0.0
N1063 N 0.02828 0.3054 0.47477 0.0
N1064 N 0.05668 0.27576 0.47064 0.0
C1065 C 0.03934 0.27572 0.45807 0.0
C1066 C 0.02388 0.29176 0.46036 0.0
C1067 C 0.0038 0.72479 0.05626 0.0
C1068 C 0.02242 0.72424 0.04416 0.0
C1069 C 0.98761 0.70984 0.05501 0.0
C1070 C 0.98926 0.69381 0.04148 0.0
H1071 H 0.00209 0.73634 0.06744 0.0
H1072 H 0.97404 0.71049 0.06526 0.0
S1073 S 0.03344 0.68707 0.00447 0.0
N1074 N 0.04061 0.70751 0.0168 0.0
N1075 N 0.01014 0.6795 0.01431 0.0
C1076 C 0.00716 0.69384 0.02837 0.0
C1077 C 0.02375 0.709 0.02976 0.0
C1078 C 0.47033 0.99243 0.23125 0.0
C1079 C 0.47022 0.00866 0.21639 0.0
C1080 C 0.47474 0.99617 0.25155 0.0
C1081 C 0.47996 0.01611 0.25747 0.0
H1082 H 0.46668 0.97683 0.22719 0.0
H1083 H 0.47444 0.98332 0.26264 0.0
S1084 S 0.48242 0.06366 0.22417 0.0
N1085 N 0.47564 0.04532 0.20889 0.0
N1086 N 0.4849 0.05219 0.24688 0.0
C1087 C 0.48022 0.03237 0.24268 0.0
C1088 C 0.47508 0.02868 0.22217 0.0
C1089 C 0.50308 0.50733 0.2347 0.0
C1090 C 0.50547 0.48801 0.22616 0.0
C1091 C 0.49939 0.50883 0.2555 0.0
C1092 C 0.49727 0.49106 0.26837 0.0
H1093 H 0.50431 0.5214 0.22527 0.0
H1094 H 0.49772 0.52401 0.26148 0.0
S1095 S 0.50206 0.43686 0.25349 0.0
N1096 N 0.50578 0.45076 0.23221 0.0
N1097 N 0.49796 0.45357 0.27115 0.0
C1098 C 0.49948 0.47166 0.26 0.0
C1099 C 0.50384 0.47014 0.23893 0.0
C1100 C 0.23716 0.43388 0.04255 0.0
C1101 C 0.23998 0.44493 0.02391 0.0
C1102 C 0.21779 0.42355 0.04722 0.0
C1103 C 0.20036 0.42439 0.03363 0.0
H1104 H 0.25 0.43328 0.05368 0.0
H1105 H 0.21619 0.41549 0.06187 0.0
S1106 S 0.19967 0.45064 0.98259 0.0
N1107 N 0.22397 0.45536 0.99146 0.0
N1108 N 0.18733 0.43653 0.00052 0.0
C1109 C 0.20306 0.4351 0.01483 0.0
C1110 C 0.22294 0.44521 0.00988 0.0
C1111 C 0.19464 0.54946 0.49948 0.0
C1112 C 0.19036 0.56045 0.48107 0.0
C1113 C 0.21506 0.54101 0.50363 0.0
C1114 C 0.23178 0.54278 0.4893 0.0
H1115 H 0.18211 0.54737 0.5108 0.0
H1116 H 0.21757 0.53254 0.51795 0.0
S1117 S 0.22902 0.57034 0.43893 0.0
N1118 N 0.20472 0.57314 0.44861 0.0
N1119 N 0.24291 0.55673 0.45617 0.0
C1120 C 0.22778 0.55386 0.4709 0.0
C1121 C 0.20713 0.56285 0.46685 0.0
C1122 C 0.71717 0.93354 0.53455 0.0
C1123 C 0.70122 0.93541 0.51947 0.0
C1124 C 0.73725 0.94326 0.53197 0.0
C1125 C 0.74231 0.95474 0.51402 0.0
H1126 H 0.71388 0.92509 0.54872 0.0
H1127 H 0.74886 0.94186 0.54421 0.0
S1128 S 0.70657 0.96313 0.46939 0.0
N1129 N 0.69203 0.94896 0.48569 0.0
N1130 N 0.72998 0.96671 0.48058 0.0
C1131 C 0.72677 0.95608 0.49852 0.0
C1132 C 0.70616 0.94656 0.50133 0.0
C1133 C 0.05131 0.78903 0.55142 0.0
C1134 C 0.03208 0.79687 0.54279 0.0
C1135 C 0.05242 0.76894 0.56005 0.0
C1136 C 0.0344 0.75575 0.5603 0.0
H1137 H 0.06569 0.79849 0.55159 0.0
H1138 H 0.06766 0.76368 0.56642 0.0
S1139 S 0.98009 0.76875 0.53974 0.0
N1140 N 0.99447 0.78986 0.53511 0.0
N1141 N 0.9966 0.75204 0.55125 0.0
C1142 C 0.01501 0.76337 0.55176 0.0
C1143 C 0.01384 0.78393 0.54305 0.0
C1144 C 0.04233 0.23882 0.92645 0.0
C1145 C 0.02636 0.2298 0.93913 0.0
C1146 C 0.04178 0.25984 0.92058 0.0
C1147 C 0.02532 0.2728 0.92727 0.0
H1148 H 0.05561 0.22966 0.92118 0.0
H1149 H 0.05471 0.26605 0.91112 0.0
S1150 S 0.97885 0.25665 0.95967 0.0
N1151 N 0.99295 0.23531 0.9574 0.0
N1152 N 0.99201 0.27485 0.94648 0.0
C1153 C 0.00889 0.2639 0.9395 0.0
C1154 C 0.00938 0.24241 0.94538 0.0
C1155 C 0.55125 0.01067 0.75815 0.0
C1156 C 0.55027 0.9894 0.76324 0.0
C1157 C 0.55084 0.01806 0.73788 0.0
C1158 C 0.54869 0.00446 0.7221 0.0
H1159 H 0.55285 0.02165 0.76989 0.0
H1160 H 0.55197 0.03455 0.73454 0.0
S1161 S 0.54487 0.94742 0.72751 0.0
N1162 N 0.5471 0.95484 0.75096 0.0
N1163 N 0.54528 0.96879 0.71288 0.0
C1164 C 0.54723 0.98319 0.72702 0.0
C1165 C 0.54833 0.97563 0.74761 0.0
C1166 C 0.47686 0.50189 0.77143 0.0
C1167 C 0.47485 0.48035 0.77063 0.0
C1168 C 0.47751 0.51463 0.75371 0.0
C1169 C 0.47667 0.50626 0.73451 0.0
H1170 H 0.47804 0.50901 0.78587 0.0
H1171 H 0.47936 0.53111 0.7551 0.0
S1172 S 0.47073 0.45086 0.72407 0.0
N1173 N 0.47126 0.45124 0.749 0.0
N1174 N 0.47302 0.47515 0.7157 0.0
C1175 C 0.47434 0.48477 0.73346 0.0
C1176 C 0.47327 0.47183 0.75152 0.0
C1177 C 0.71184 0.58944 0.0812 0.0
C1178 C 0.69397 0.5851 0.06903 0.0
C1179 C 0.73107 0.57828 0.07986 0.0
C1180 C 0.73334 0.56268 0.06596 0.0
H1181 H 0.7108 0.60121 0.09224 0.0
H1182 H 0.74429 0.58194 0.08978 0.0
S1183 S 0.69165 0.54596 0.02999 0.0
N1184 N 0.67987 0.56441 0.04232 0.0
N1185 N 0.71625 0.54379 0.03941 0.0
C1186 C 0.71579 0.55854 0.05332 0.0
C1187 C 0.69604 0.56963 0.05497 0.0
C1188 C 0.72806 0.41606 0.43741 0.0
C1189 C 0.72212 0.42622 0.45489 0.0
C1190 C 0.74901 0.41757 0.42962 0.0
C1191 C 0.76484 0.42948 0.43886 0.0
H1192 H 0.71633 0.40715 0.4294 0.0
H1193 H 0.75261 0.40982 0.41588 0.0
S1194 S 0.75814 0.45788 0.48584 0.0
N1195 N 0.73423 0.44763 0.48193 0.0
N1196 N 0.77356 0.45059 0.46716 0.0
C1197 C 0.75937 0.43917 0.45673 0.0
C1198 C 0.73805 0.43748 0.46479 0.0
C1199 C 0.18423 0.04196 0.5332 0.0
C1200 C 0.17259 0.05303 0.54737 0.0
C1201 C 0.20626 0.03786 0.53577 0.0
C1202 C 0.21756 0.04448 0.55272 0.0
H1203 H 0.17628 0.03632 0.51998 0.0
H1204 H 0.21437 0.02909 0.5245 0.0
S1205 S 0.19483 0.07465 0.594 0.0
N1206 N 0.17423 0.07106 0.57876 0.0
N1207 N 0.21558 0.06321 0.58366 0.0
C1208 C 0.20622 0.0558 0.56691 0.0
C1209 C 0.18378 0.06012 0.56421 0.0
C1210 C 0.47989 0.74487 0.92607 0.0
C1211 C 0.48003 0.73449 0.94522 0.0
C1212 C 0.47108 0.76471 0.92329 0.0
C1213 C 0.46251 0.77512 0.93964 0.0
H1214 H 0.48645 0.73754 0.91304 0.0
H1215 H 0.47133 0.77206 0.90824 0.0
S1216 S 0.45925 0.75481 0.99295 0.0
N1217 N 0.47076 0.73606 0.98082 0.0
N1218 N 0.45469 0.77355 0.9757 0.0
C1219 C 0.46267 0.76498 0.95891 0.0
C1220 C 0.47127 0.74461 0.96167 0.0
C1221 C 0.51253 0.24388 0.53105 0.0
C1222 C 0.49641 0.25904 0.52858 0.0
C1223 C 0.50765 0.22286 0.52981 0.0
C1224 C 0.48639 0.21621 0.52665 0.0
H1225 H 0.52906 0.24828 0.53385 0.0
H1226 H 0.52057 0.21171 0.53182 0.0
S1227 S 0.43833 0.24971 0.51914 0.0
N1228 N 0.45838 0.26597 0.52241 0.0
N1229 N 0.44913 0.22643 0.52076 0.0
C1230 C 0.47012 0.23119 0.52416 0.0
C1231 C 0.47516 0.25262 0.52493 0.0
C1232 C 0.01165 0.47979 0.75337 0.0
C1233 C 0.03011 0.48289 0.76521 0.0
C1234 C 0.01329 0.47318 0.73359 0.0
C1235 C 0.03347 0.46939 0.72478 0.0
H1236 H 0.9957 0.48253 0.75935 0.0
H1237 H 0.99856 0.47123 0.72511 0.0
S1238 S 0.08685 0.47475 0.74948 0.0
N1239 N 0.0693 0.48134 0.76676 0.0
N1240 N 0.07238 0.46894 0.72961 0.0
C1241 C 0.05209 0.47223 0.73651 0.0
C1242 C 0.05042 0.47899 0.75669 0.0
C1243 C 0.0136 0.98006 0.76409 0.0
C1244 C 0.01376 0.00113 0.76819 0.0
C1245 C 0.01409 0.97368 0.74412 0.0
C1246 C 0.01395 0.98819 0.72765 0.0
H1247 H 0.0135 0.96843 0.77641 0.0
H1248 H 0.01425 0.95732 0.74154 0.0
S1249 S 0.01393 0.04513 0.73034 0.0
N1250 N 0.01399 0.03645 0.75422 0.0
N1251 N 0.01382 0.02447 0.71668 0.0
C1252 C 0.01375 0.00928 0.73155 0.0
C1253 C 0.01396 0.01576 0.75185 0.0
C1254 C 0.72627 0.05488 0.97495 0.0
C1255 C 0.72781 0.06825 0.95763 0.0
C1256 C 0.74412 0.04337 0.98201 0.0
C1257 C 0.76389 0.04436 0.97163 0.0
H1258 H 0.71126 0.0535 0.98325 0.0
H1259 H 0.7423 0.03335 0.99548 0.0
S1260 S 0.77622 0.07687 0.92543 0.0
N1261 N 0.75074 0.08199 0.9304 0.0
N1262 N 0.78404 0.0598 0.94326 0.0
C1263 C 0.76559 0.05754 0.95421 0.0
C1264 C 0.7476 0.06965 0.94733 0.0
C1265 C 0.52236 0.24519 0.08851 0.0
C1266 C 0.51185 0.2518 0.0705 0.0
C1267 C 0.53454 0.22696 0.08961 0.0
C1268 C 0.53606 0.2144 0.07293 0.0
H1269 H 0.52127 0.25422 0.10182 0.0
H1270 H 0.54235 0.22239 0.10377 0.0
S1271 S 0.51167 0.22487 0.02231 0.0
N1272 N 0.50415 0.24461 0.0355 0.0
N1273 N 0.52637 0.20994 0.03782 0.0
C1274 C 0.52565 0.22083 0.05485 0.0
C1275 C 0.51373 0.23966 0.05357 0.0
C1276 C 0.56519 0.7242 0.43186 0.0
C1277 C 0.54972 0.74009 0.43126 0.0
C1278 C 0.56 0.70413 0.43897 0.0
C1279 C 0.53909 0.69903 0.44581 0.0
H1280 H 0.58153 0.72723 0.42677 0.0
H1281 H 0.57256 0.69253 0.43909 0.0
S1282 S 0.49257 0.73496 0.44757 0.0
N1283 N 0.51251 0.74934 0.43825 0.0
N1284 N 0.50276 0.71163 0.45161 0.0
C1285 C 0.52341 0.71475 0.44532 0.0
C1286 C 0.52872 0.73524 0.43807 0.0
C1287 C 0.07605 0.50379 0.23542 0.0
C1288 C 0.05651 0.50558 0.22466 0.0
C1289 C 0.07668 0.49558 0.25537 0.0
C1290 C 0.05777 0.48902 0.26553 0.0
H1291 H 0.09109 0.5086 0.22833 0.0
H1292 H 0.09216 0.49455 0.26294 0.0
S1293 S 0.00236 0.49053 0.24423 0.0
N1294 N 0.0177 0.50011 0.22569 0.0
N1295 N 0.01886 0.48487 0.26327 0.0
C1296 C 0.03808 0.4908 0.255 0.0
C1297 C 0.03746 0.499 0.23457 0.0
C1298 C 0.9848 0.99781 0.27148 0.0
C1299 C 0.98271 0.97645 0.26918 0.0
C1300 C 0.98686 0.01163 0.25464 0.0
C1301 C 0.98743 0.00456 0.23488 0.0
H1302 H 0.98489 0.00393 0.28643 0.0
H1303 H 0.98864 0.02792 0.25717 0.0
S1304 S 0.98202 0.9502 0.22055 0.0
N1305 N 0.98064 0.94896 0.2455 0.0
N1306 N 0.98508 0.97489 0.2139 0.0
C1307 C 0.98512 0.98328 0.23233 0.0
C1308 C 0.98259 0.96924 0.24946 0.0
C1309 C 0.20845 0.93885 0.97638 0.0
C1310 C 0.22201 0.93657 0.95959 0.0
C1311 C 0.18614 0.93592 0.97495 0.0
C1312 C 0.17651 0.93023 0.95678 0.0
H1313 H 0.21505 0.94337 0.99068 0.0
H1314 H 0.17638 0.93805 0.98826 0.0
S1315 S 0.20494 0.9216 0.90856 0.0
N1316 N 0.22425 0.92796 0.92428 0.0
N1317 N 0.18233 0.92205 0.9217 0.0
C1318 C 0.18992 0.9275 0.93997 0.0
C1319 C 0.21264 0.9308 0.94133 0.0
loop_
_geom_bond_atom_site_label_1
_geom_bond_atom_site_label_2
_geom_bond_distance
_geom_bond_site_symmetry_2
_ccdc_geom_bond_type
O0 Cd1 2.300 . S
O0 C7 1.275 . S
Cd1 O0 2.300 . S
Cd1 O9 2.381 . S
Cd1 O10 2.378 . S
O2 Cd3 2.385 . S
O2 C7 1.255 . S
Cd3 O2 2.385 . S
Cd3 O4 2.317 . S
O4 Cd3 2.317 . S
O4 C5 1.232 . S
C5 O4 1.232 . S
C5 O6 1.218 . S
O6 C5 1.218 . S
C7 O0 1.275 . S
C7 O2 1.255 . S
C8 O9 1.258 . S
C8 O10 1.256 . S
O9 Cd1 2.381 . S
O9 C8 1.258 . S
O10 Cd1 2.378 . S
O10 C8 1.256 . S
O11 Cd12 2.298 1_455 S
O11 C18 1.276 1_455 S
Cd12 O11 2.298 1_655 S
Cd12 O20 2.381 . S
Cd12 O21 2.379 . S
O13 Cd14 2.385 . S
O13 C18 1.255 . S
Cd14 O13 2.385 . S
Cd14 O15 2.317 . S
O15 Cd14 2.317 . S
O15 C16 1.232 . S
C16 O15 1.232 . S
C16 O17 1.218 . S
O17 C16 1.218 . S
C18 O11 1.276 1_655 S
C18 O13 1.255 . S
C19 O20 1.257 1_455 S
C19 O21 1.253 1_455 S
O20 Cd12 2.381 . S
O20 C19 1.257 1_655 S
O21 Cd12 2.379 . S
O21 C19 1.253 1_655 S
O22 Cd23 2.300 . S
O22 C29 1.275 . S
Cd23 O22 2.300 . S
Cd23 O31 2.381 . S
Cd23 O32 2.378 . S
O24 Cd25 2.385 . S
O24 C29 1.255 . S
Cd25 O24 2.385 . S
Cd25 O26 2.317 . S
O26 Cd25 2.317 . S
O26 C27 1.232 . S
C27 O26 1.232 . S
C27 O28 1.218 . S
O28 C27 1.218 . S
C29 O22 1.275 . S
C29 O24 1.255 . S
C30 O31 1.258 . S
C30 O32 1.256 . S
O31 Cd23 2.381 . S
O31 C30 1.258 . S
O32 Cd23 2.378 . S
O32 C30 1.256 . S
O33 Cd34 2.298 1_455 S
O33 C40 1.275 . S
Cd34 O33 2.298 1_655 S
Cd34 O42 2.381 1_655 S
Cd34 O43 2.378 . S
O35 Cd36 2.420 . S
O35 C40 1.256 1_655 S
Cd36 O35 2.420 . S
Cd36 O37 2.323 . S
O37 Cd36 2.323 . S
O37 C38 1.232 . S
C38 O37 1.232 . S
C38 O39 1.218 . S
O39 C38 1.218 . S
C40 O33 1.275 . S
C40 O35 1.256 1_455 S
C41 O42 1.257 . S
C41 O43 1.251 1_455 S
O42 Cd34 2.381 1_455 S
O42 C41 1.257 . S
O43 Cd34 2.378 . S
O43 C41 1.251 1_655 S
O44 Cd45 2.300 . S
O44 C51 1.275 . S
Cd45 O44 2.300 . S
Cd45 O53 2.381 . S
Cd45 O54 2.370 1_545 S
O46 Cd47 2.385 . S
O46 C51 1.255 . S
Cd47 O46 2.385 . S
Cd47 O48 2.317 1_545 S
O48 Cd47 2.317 1_565 S
O48 C49 1.232 . S
C49 O48 1.232 . S
C49 O50 1.218 1_565 S
O50 C49 1.218 1_545 S
C51 O44 1.275 . S
C51 O46 1.255 . S
C52 O53 1.258 1_565 S
C52 O54 1.257 . S
O53 Cd45 2.381 . S
O53 C52 1.258 1_545 S
O54 Cd45 2.370 1_565 S
O54 C52 1.257 . S
O55 Cd56 2.300 . S
O55 C62 1.275 . S
Cd56 O55 2.300 . S
Cd56 O64 2.381 . S
Cd56 O65 2.378 . S
O57 Cd58 2.385 . S
O57 C62 1.255 . S
Cd58 O57 2.385 . S
Cd58 O59 2.317 . S
O59 Cd58 2.317 . S
O59 C60 1.232 . S
C60 O59 1.232 . S
C60 O61 1.218 . S
O61 C60 1.218 . S
C62 O55 1.275 . S
C62 O57 1.255 . S
C63 O64 1.258 . S
C63 O65 1.256 . S
O64 Cd56 2.381 . S
O64 C63 1.258 . S
O65 Cd56 2.378 . S
O65 C63 1.256 . S
O66 Cd67 2.300 . S
O66 C73 1.275 . S
Cd67 O66 2.300 . S
Cd67 O75 2.381 . S
Cd67 O76 2.378 . S
O68 Cd69 2.385 . S
O68 C73 1.255 . S
Cd69 O68 2.385 . S
Cd69 O70 2.315 1_565 S
O70 Cd69 2.315 1_545 S
O70 C71 1.232 . S
C71 O70 1.232 . S
C71 O72 1.218 1_545 S
O72 C71 1.218 1_565 S
C73 O66 1.275 . S
C73 O68 1.255 . S
C74 O75 1.258 . S
C74 O76 1.256 . S
O75 Cd67 2.381 . S
O75 C74 1.258 . S
O76 Cd67 2.378 . S
O76 C74 1.256 . S
O77 Cd78 2.300 . S
O77 C84 1.275 . S
Cd78 O77 2.300 . S
Cd78 O86 2.381 . S
Cd78 O87 2.378 . S
O79 Cd80 2.385 . S
O79 C84 1.255 . S
Cd80 O79 2.385 . S
Cd80 O81 2.317 . S
O81 Cd80 2.317 . S
O81 C82 1.232 . S
C82 O81 1.232 . S
C82 O83 1.218 . S
O83 C82 1.218 . S
C84 O77 1.275 . S
C84 O79 1.255 . S
C85 O86 1.258 . S
C85 O87 1.256 . S
O86 Cd78 2.381 . S
O86 C85 1.258 . S
O87 Cd78 2.378 . S
O87 C85 1.256 . S
O88 Cd89 2.300 . S
O88 C95 1.275 . S
Cd89 O88 2.300 . S
Cd89 O97 2.381 . S
Cd89 O98 2.378 . S
O90 Cd91 2.385 . S
O90 C95 1.255 . S
Cd91 O90 2.385 . S
Cd91 O92 2.317 . S
O92 Cd91 2.317 . S
O92 C93 1.232 . S
C93 O92 1.232 . S
C93 O94 1.218 . S
O94 C93 1.218 . S
C95 O88 1.275 . S
C95 O90 1.255 . S
C96 O97 1.258 . S
C96 O98 1.256 . S
O97 Cd89 2.381 . S
O97 C96 1.258 . S
O98 Cd89 2.378 . S
O98 C96 1.256 . S
O99 Cd100 2.300 . S
O99 C106 1.275 . S
Cd100 O99 2.300 . S
Cd100 O108 2.381 . S
Cd100 O109 2.378 . S
O101 Cd102 2.385 . S
O101 C106 1.255 . S
Cd102 O101 2.385 . S
Cd102 O103 2.317 . S
O103 Cd102 2.317 . S
O103 C104 1.232 . S
C104 O103 1.232 . S
C104 O105 1.218 . S
O105 C104 1.218 . S
C106 O99 1.275 . S
C106 O101 1.255 . S
C107 O108 1.258 . S
C107 O109 1.256 . S
O108 Cd100 2.381 . S
O108 C107 1.258 . S
O109 Cd100 2.378 . S
O109 C107 1.256 . S
O110 Cd111 2.300 . S
O110 C117 1.275 . S
Cd111 O110 2.300 . S
Cd111 O119 2.381 . S
Cd111 O120 2.378 . S
O112 Cd113 2.385 . S
O112 C117 1.255 . S
Cd113 O112 2.385 . S
Cd113 O114 2.317 . S
O114 Cd113 2.317 . S
O114 C115 1.232 . S
C115 O114 1.232 . S
C115 O116 1.218 . S
O116 C115 1.218 . S
C117 O110 1.275 . S
C117 O112 1.255 . S
C118 O119 1.258 . S
C118 O120 1.256 . S
O119 Cd111 2.381 . S
O119 C118 1.258 . S
O120 Cd111 2.378 . S
O120 C118 1.256 . S
O121 Cd122 2.300 . S
O121 C128 1.275 . S
Cd122 O121 2.300 . S
Cd122 O130 2.381 . S
Cd122 O131 2.378 . S
O123 Cd124 2.385 . S
O123 C128 1.255 . S
Cd124 O123 2.385 . S
Cd124 O125 2.317 . S
O125 Cd124 2.317 . S
O125 C126 1.232 . S
C126 O125 1.232 . S
C126 O127 1.218 . S
O127 C126 1.218 . S
C128 O121 1.275 . S
C128 O123 1.255 . S
C129 O130 1.258 . S
C129 O131 1.256 . S
O130 Cd122 2.381 . S
O130 C129 1.258 . S
O131 Cd122 2.378 . S
O131 C129 1.256 . S
O132 Cd133 2.300 1_455 S
O132 C139 1.275 1_455 S
Cd133 O132 2.300 1_655 S
Cd133 O141 2.381 1_655 S
Cd133 O142 2.378 . S
O134 Cd135 2.385 . S
O134 C139 1.255 . S
Cd135 O134 2.385 . S
Cd135 O136 2.317 . S
O136 Cd135 2.317 . S
O136 C137 1.232 . S
C137 O136 1.232 . S
C137 O138 1.218 . S
O138 C137 1.218 . S
C139 O132 1.275 1_655 S
C139 O134 1.255 . S
C140 O141 1.258 . S
C140 O142 1.256 1_455 S
O141 Cd133 2.381 1_455 S
O141 C140 1.258 . S
O142 Cd133 2.378 . S
O142 C140 1.256 1_655 S
O143 Cd144 2.300 . S
O143 C150 1.275 . S
Cd144 O143 2.300 . S
Cd144 O152 2.381 . S
Cd144 O153 2.378 . S
O145 Cd146 2.402 . S
O145 C150 1.255 . S
Cd146 O145 2.402 . S
Cd146 O147 2.318 . S
O147 Cd146 2.318 . S
O147 C148 1.232 . S
C148 O147 1.232 . S
C148 O149 1.218 . S
O149 C148 1.218 . S
C150 O143 1.275 . S
C150 O145 1.255 . S
C151 O152 1.258 . S
C151 O153 1.256 . S
O152 Cd144 2.381 . S
O152 C151 1.258 . S
O153 Cd144 2.378 . S
O153 C151 1.256 . S
O154 Cd155 2.300 1_455 S
O154 C161 1.275 1_455 S
Cd155 O154 2.300 1_655 S
Cd155 O163 2.381 1_655 S
Cd155 O164 2.378 . S
O156 Cd157 2.385 . S
O156 C161 1.255 . S
Cd157 O156 2.385 . S
Cd157 O158 2.317 . S
O158 Cd157 2.317 . S
O158 C159 1.232 . S
C159 O158 1.232 . S
C159 O160 1.218 . S
O160 C159 1.218 . S
C161 O154 1.275 1_655 S
C161 O156 1.255 . S
C162 O163 1.258 . S
C162 O164 1.256 1_455 S
O163 Cd155 2.381 1_455 S
O163 C162 1.258 . S
O164 Cd155 2.378 . S
O164 C162 1.256 1_655 S
O165 Cd166 2.300 . S
O165 C172 1.275 . S
Cd166 O165 2.300 . S
Cd166 O174 2.381 . S
Cd166 O175 2.378 . S
O167 Cd168 2.407 . S
O167 C172 1.255 . S
Cd168 O167 2.407 . S
Cd168 O169 2.318 . S
O169 Cd168 2.318 . S
O169 C170 1.232 . S
C170 O169 1.232 . S
C170 O171 1.218 . S
O171 C170 1.218 . S
C172 O165 1.275 . S
C172 O167 1.255 . S
C173 O174 1.258 . S
C173 O175 1.256 . S
O174 Cd166 2.381 . S
O174 C173 1.258 . S
O175 Cd166 2.378 . S
O175 C173 1.256 . S
O176 Cd177 2.300 1_545 S
O176 C183 1.275 1_545 S
Cd177 O176 2.300 1_565 S
Cd177 O185 2.381 1_565 S
Cd177 O186 2.378 . S
O178 Cd179 2.385 . S
O178 C183 1.255 . S
Cd179 O178 2.385 . S
Cd179 O180 2.317 . S
O180 Cd179 2.317 . S
O180 C181 1.232 . S
C181 O180 1.232 . S
C181 O182 1.218 . S
O182 C181 1.218 . S
C183 O176 1.275 1_565 S
C183 O178 1.255 . S
C184 O185 1.258 1_565 S
C184 O186 1.256 . S
O185 Cd177 2.381 1_545 S
O185 C184 1.258 1_545 S
O186 Cd177 2.378 . S
O186 C184 1.256 . S
O187 Cd188 2.300 . S
O187 C194 1.275 . S
Cd188 O187 2.300 . S
Cd188 O196 2.381 . S
Cd188 O197 2.378 . S
O189 Cd190 2.385 . S
O189 C194 1.255 . S
Cd190 O189 2.385 . S
Cd190 O191 2.317 . S
O191 Cd190 2.317 . S
O191 C192 1.232 . S
C192 O191 1.232 . S
C192 O193 1.218 . S
O193 C192 1.218 . S
C194 O187 1.275 . S
C194 O189 1.255 . S
C195 O196 1.258 . S
C195 O197 1.256 . S
O196 Cd188 2.381 . S
O196 C195 1.258 . S
O197 Cd188 2.378 . S
O197 C195 1.256 . S
O198 Cd199 2.300 1_565 S
O198 C205 1.275 . S
Cd199 O198 2.300 1_545 S
Cd199 O207 2.381 1_545 S
Cd199 O208 2.378 . S
O200 Cd201 2.385 . S
O200 C205 1.255 1_545 S
Cd201 O200 2.385 . S
Cd201 O202 2.317 . S
O202 Cd201 2.317 . S
O202 C203 1.232 . S
C203 O202 1.232 . S
C203 O204 1.218 . S
O204 C203 1.218 . S
C205 O198 1.275 . S
C205 O200 1.255 1_565 S
C206 O207 1.258 1_545 S
C206 O208 1.256 . S
O207 Cd199 2.381 1_565 S
O207 C206 1.258 1_565 S
O208 Cd199 2.378 . S
O208 C206 1.256 . S
O209 Cd210 2.300 . S
O209 C216 1.275 . S
Cd210 O209 2.300 . S
Cd210 O218 2.381 . S
Cd210 O219 2.378 . S
O211 Cd212 2.385 . S
O211 C216 1.255 . S
Cd212 O211 2.385 . S
Cd212 O213 2.317 . S
O213 Cd212 2.317 . S
O213 C214 1.232 . S
C214 O213 1.232 . S
C214 O215 1.218 . S
O215 C214 1.218 . S
C216 O209 1.275 . S
C216 O211 1.255 . S
C217 O218 1.258 . S
C217 O219 1.256 . S
O218 Cd210 2.381 . S
O218 C217 1.258 . S
O219 Cd210 2.378 . S
O219 C217 1.256 . S
O220 Cd221 2.300 1_554 S
O220 C227 1.275 1_554 S
Cd221 O220 2.300 1_556 S
Cd221 O229 2.381 1_556 S
Cd221 O230 2.378 . S
O222 Cd223 2.385 . S
O222 C227 1.255 . S
Cd223 O222 2.385 . S
Cd223 O224 2.317 . S
O224 Cd223 2.317 . S
O224 C225 1.232 . S
C225 O224 1.232 . S
C225 O226 1.218 . S
O226 C225 1.218 . S
C227 O220 1.275 1_556 S
C227 O222 1.255 . S
C228 O229 1.258 . S
C228 O230 1.256 1_554 S
O229 Cd221 2.381 1_554 S
O229 C228 1.258 . S
O230 Cd221 2.378 . S
O230 C228 1.256 1_556 S
O231 Cd232 2.300 . S
O231 C238 1.275 . S
Cd232 O231 2.300 . S
Cd232 O240 2.381 . S
Cd232 O241 2.378 . S
O233 Cd234 2.385 . S
O233 C238 1.255 . S
Cd234 O233 2.385 . S
Cd234 O235 2.317 . S
O235 Cd234 2.317 . S
O235 C236 1.232 . S
C236 O235 1.232 . S
C236 O237 1.218 . S
O237 C236 1.218 . S
C238 O231 1.275 . S
C238 O233 1.255 . S
C239 O240 1.258 . S
C239 O241 1.256 . S
O240 Cd232 2.381 . S
O240 C239 1.258 . S
O241 Cd232 2.378 . S
O241 C239 1.256 . S
O242 Cd243 2.300 . S
O242 C249 1.275 . S
Cd243 O242 2.300 . S
Cd243 O251 2.381 . S
Cd243 O252 2.378 . S
O244 Cd245 2.385 . S
O244 C249 1.255 . S
Cd245 O244 2.385 . S
Cd245 O246 2.317 . S
O246 Cd245 2.317 . S
O246 C247 1.232 . S
C247 O246 1.232 . S
C247 O248 1.218 . S
O248 C247 1.218 . S
C249 O242 1.275 . S
C249 O244 1.255 . S
C250 O251 1.258 . S
C250 O252 1.256 . S
O251 Cd243 2.381 . S
O251 C250 1.258 . S
O252 Cd243 2.378 . S
O252 C250 1.256 . S
O253 Cd254 2.300 . S
O253 C260 1.275 . S
Cd254 O253 2.300 . S
Cd254 O262 2.381 . S
Cd254 O263 2.378 . S
O255 Cd256 2.385 . S
O255 C260 1.255 . S
Cd256 O255 2.385 . S
Cd256 O257 2.317 . S
O257 Cd256 2.317 . S
O257 C258 1.232 . S
C258 O257 1.232 . S
C258 O259 1.218 . S
O259 C258 1.218 . S
C260 O253 1.275 . S
C260 O255 1.255 . S
C261 O262 1.258 . S
C261 O263 1.256 . S
O262 Cd254 2.381 . S
O262 C261 1.258 . S
O263 Cd254 2.378 . S
O263 C261 1.256 . S
O264 Cd265 2.300 . S
O264 C271 1.275 . S
Cd265 O264 2.300 . S
Cd265 O273 2.381 . S
Cd265 O274 2.378 . S
O266 Cd267 2.385 . S
O266 C271 1.255 . S
Cd267 O266 2.385 . S
Cd267 O268 2.317 . S
O268 Cd267 2.317 . S
O268 C269 1.232 . S
C269 O268 1.232 . S
C269 O270 1.218 . S
O270 C269 1.218 . S
C271 O264 1.275 . S
C271 O266 1.255 . S
C272 O273 1.258 . S
C272 O274 1.256 . S
O273 Cd265 2.381 . S
O273 C272 1.258 . S
O274 Cd265 2.378 . S
O274 C272 1.256 . S
O275 Cd276 2.300 . S
O275 C282 1.275 . S
Cd276 O275 2.300 . S
Cd276 O284 2.381 . S
Cd276 O285 2.378 . S
O277 Cd278 2.385 . S
O277 C282 1.255 . S
Cd278 O277 2.385 . S
Cd278 O279 2.317 . S
O279 Cd278 2.317 . S
O279 C280 1.232 . S
C280 O279 1.232 . S
C280 O281 1.218 . S
O281 C280 1.218 . S
C282 O275 1.275 . S
C282 O277 1.255 . S
C283 O284 1.258 . S
C283 O285 1.256 . S
O284 Cd276 2.381 . S
O284 C283 1.258 . S
O285 Cd276 2.378 . S
O285 C283 1.256 . S
O286 Cd287 2.300 . S
O286 C293 1.275 . S
Cd287 O286 2.300 . S
Cd287 O295 2.381 . S
Cd287 O296 2.378 . S
O288 Cd289 2.385 . S
O288 C293 1.255 . S
Cd289 O288 2.385 . S
Cd289 O290 2.317 . S
O290 Cd289 2.317 . S
O290 C291 1.232 . S
C291 O290 1.232 . S
C291 O292 1.218 . S
O292 C291 1.218 . S
C293 O286 1.275 . S
C293 O288 1.255 . S
C294 O295 1.258 . S
C294 O296 1.256 . S
O295 Cd287 2.381 . S
O295 C294 1.258 . S
O296 Cd287 2.378 . S
O296 C294 1.256 . S
O297 Cd298 2.300 . S
O297 C304 1.275 . S
Cd298 O297 2.300 . S
Cd298 O306 2.381 . S
Cd298 O307 2.378 . S
O299 Cd300 2.385 . S
O299 C304 1.255 . S
Cd300 O299 2.385 . S
Cd300 O301 2.317 . S
O301 Cd300 2.317 . S
O301 C302 1.232 . S
C302 O301 1.232 . S
C302 O303 1.218 . S
O303 C302 1.218 . S
C304 O297 1.275 . S
C304 O299 1.255 . S
C305 O306 1.258 . S
C305 O307 1.256 . S
O306 Cd298 2.381 . S
O306 C305 1.258 . S
O307 Cd298 2.378 . S
O307 C305 1.256 . S
O308 Cd309 2.300 . S
O308 C315 1.275 . S
Cd309 O308 2.300 . S
Cd309 O317 2.381 . S
Cd309 O318 2.378 . S
O310 Cd311 2.385 . S
O310 C315 1.255 . S
Cd311 O310 2.385 . S
Cd311 O312 2.317 . S
O312 Cd311 2.317 . S
O312 C313 1.232 . S
C313 O312 1.232 . S
C313 O314 1.218 . S
O314 C313 1.218 . S
C315 O308 1.275 . S
C315 O310 1.255 . S
C316 O317 1.258 . S
C316 O318 1.256 . S
O317 Cd309 2.381 . S
O317 C316 1.258 . S
O318 Cd309 2.378 . S
O318 C316 1.256 . S
O319 Cd320 2.300 . S
O319 C326 1.275 . S
Cd320 O319 2.300 . S
Cd320 O328 2.381 . S
Cd320 O329 2.378 1_455 S
O321 Cd322 2.385 1_455 S
O321 C326 1.255 . S
Cd322 O321 2.385 1_655 S
Cd322 O323 2.317 . S
O323 Cd322 2.317 . S
O323 C324 1.232 . S
C324 O323 1.232 . S
C324 O325 1.218 . S
O325 C324 1.218 . S
C326 O319 1.275 . S
C326 O321 1.255 . S
C327 O328 1.258 . S
C327 O329 1.256 1_455 S
O328 Cd320 2.381 . S
O328 C327 1.258 . S
O329 Cd320 2.378 1_655 S
O329 C327 1.256 1_655 S
O330 Cd331 2.300 . S
O330 C337 1.275 . S
Cd331 O330 2.300 . S
Cd331 O339 2.381 . S
Cd331 O340 2.378 . S
O332 Cd333 2.385 . S
O332 C337 1.255 . S
Cd333 O332 2.385 . S
Cd333 O334 2.317 . S
O334 Cd333 2.317 . S
O334 C335 1.232 . S
C335 O334 1.232 . S
C335 O336 1.218 . S
O336 C335 1.218 . S
C337 O330 1.275 . S
C337 O332 1.255 . S
C338 O339 1.258 . S
C338 O340 1.256 . S
O339 Cd331 2.381 . S
O339 C338 1.258 . S
O340 Cd331 2.378 . S
O340 C338 1.256 . S
O341 Cd342 2.300 1_565 S
O341 C348 1.275 . S
Cd342 O341 2.300 1_545 S
Cd342 O350 2.381 . S
Cd342 O351 2.378 1_455 S
O343 Cd344 2.381 1_465 S
O343 C348 1.258 . S
Cd344 O343 2.381 1_645 S
Cd344 O345 2.317 . S
O345 Cd344 2.317 . S
O345 C346 1.232 . S
C346 O345 1.232 . S
C346 O347 1.218 . S
O347 C346 1.218 . S
C348 O341 1.275 . S
C348 O343 1.258 . S
C349 O350 1.258 . S
C349 O351 1.256 1_455 S
O350 Cd342 2.381 . S
O350 C349 1.258 . S
O351 Cd342 2.378 1_655 S
O351 C349 1.256 1_655 S
O352 Cd353 2.300 . S
O352 C359 1.275 . S
Cd353 O352 2.300 . S
Cd353 O361 2.381 . S
Cd353 O362 2.378 . S
O354 Cd355 2.385 . S
O354 C359 1.255 . S
Cd355 O354 2.385 . S
Cd355 O356 2.317 . S
O356 Cd355 2.317 . S
O356 C357 1.232 . S
C357 O356 1.232 . S
C357 O358 1.218 . S
O358 C357 1.218 . S
C359 O352 1.275 . S
C359 O354 1.255 . S
C360 O361 1.258 . S
C360 O362 1.256 . S
O361 Cd353 2.381 . S
O361 C360 1.258 . S
O362 Cd353 2.378 . S
O362 C360 1.256 . S
O363 Cd364 2.300 . S
O363 C370 1.275 . S
Cd364 O363 2.300 . S
Cd364 O372 2.381 . S
Cd364 O373 2.378 . S
O365 Cd366 2.385 . S
O365 C370 1.255 . S
Cd366 O365 2.385 . S
Cd366 O367 2.317 . S
O367 Cd366 2.317 . S
O367 C368 1.232 . S
C368 O367 1.232 . S
C368 O369 1.218 . S
O369 C368 1.218 . S
C370 O363 1.275 . S
C370 O365 1.255 . S
C371 O372 1.258 . S
C371 O373 1.256 . S
O372 Cd364 2.381 . S
O372 C371 1.258 . S
O373 Cd364 2.378 . S
O373 C371 1.256 . S
O374 Cd375 2.300 . S
O374 C381 1.275 . S
Cd375 O374 2.300 . S
Cd375 O383 2.381 . S
Cd375 O384 2.378 . S
O376 Cd377 2.385 . S
O376 C381 1.255 . S
Cd377 O376 2.385 . S
Cd377 O378 2.317 . S
O378 Cd377 2.317 . S
O378 C379 1.232 . S
C379 O378 1.232 . S
C379 O380 1.218 . S
O380 C379 1.218 . S
C381 O374 1.275 . S
C381 O376 1.255 . S
C382 O383 1.258 . S
C382 O384 1.256 . S
O383 Cd375 2.381 . S
O383 C382 1.258 . S
O384 Cd375 2.378 . S
O384 C382 1.256 . S
O385 Cd386 2.300 . S
O385 C392 1.275 . S
Cd386 O385 2.300 . S
Cd386 O394 2.381 . S
Cd386 O395 2.378 . S
O387 Cd388 2.385 . S
O387 C392 1.255 . S
Cd388 O387 2.385 . S
Cd388 O389 2.317 . S
O389 Cd388 2.317 . S
O389 C390 1.232 . S
C390 O389 1.232 . S
C390 O391 1.218 . S
O391 C390 1.218 . S
C392 O385 1.275 . S
C392 O387 1.255 . S
C393 O394 1.258 . S
C393 O395 1.256 . S
O394 Cd386 2.381 . S
O394 C393 1.258 . S
O395 Cd386 2.378 . S
O395 C393 1.256 . S
O396 Cd397 2.300 . S
O396 C403 1.275 . S
Cd397 O396 2.300 . S
Cd397 O405 2.381 . S
Cd397 O406 2.378 . S
O398 Cd399 2.385 . S
O398 C403 1.255 . S
Cd399 O398 2.385 . S
Cd399 O400 2.317 . S
O400 Cd399 2.317 . S
O400 C401 1.232 . S
C401 O400 1.232 . S
C401 O402 1.218 . S
O402 C401 1.218 . S
C403 O396 1.275 . S
C403 O398 1.255 . S
C404 O405 1.258 . S
C404 O406 1.256 . S
O405 Cd397 2.381 . S
O405 C404 1.258 . S
O406 Cd397 2.378 . S
O406 C404 1.256 . S
O407 Cd408 2.300 . S
O407 C414 1.275 . S
Cd408 O407 2.300 . S
Cd408 O416 2.381 . S
Cd408 O417 2.378 . S
O409 Cd410 2.385 . S
O409 C414 1.255 . S
Cd410 O409 2.385 . S
Cd410 O411 2.317 . S
O411 Cd410 2.317 . S
O411 C412 1.232 . S
C412 O411 1.232 . S
C412 O413 1.218 . S
O413 C412 1.218 . S
C414 O407 1.275 . S
C414 O409 1.255 . S
C415 O416 1.258 . S
C415 O417 1.256 . S
O416 Cd408 2.381 . S
O416 C415 1.258 . S
O417 Cd408 2.378 . S
O417 C415 1.256 . S
O418 Cd419 2.300 . S
O418 C425 1.275 . S
Cd419 O418 2.300 . S
Cd419 O427 2.381 . S
Cd419 O428 2.378 . S
O420 Cd421 2.385 . S
O420 C425 1.255 . S
Cd421 O420 2.385 . S
Cd421 O422 2.317 . S
O422 Cd421 2.317 . S
O422 C423 1.232 . S
C423 O422 1.232 . S
C423 O424 1.218 . S
O424 C423 1.218 . S
C425 O418 1.275 . S
C425 O420 1.255 . S
C426 O427 1.258 . S
C426 O428 1.256 . S
O427 Cd419 2.381 . S
O427 C426 1.258 . S
O428 Cd419 2.378 . S
O428 C426 1.256 . S
O429 Cd430 2.300 . S
O429 C436 1.275 . S
Cd430 O429 2.300 . S
Cd430 O438 2.381 . S
Cd430 O439 2.378 . S
O431 Cd432 2.385 . S
O431 C436 1.255 . S
Cd432 O431 2.385 . S
Cd432 O433 2.317 . S
O433 Cd432 2.317 . S
O433 C434 1.232 . S
C434 O433 1.232 . S
C434 O435 1.218 . S
O435 C434 1.218 . S
C436 O429 1.275 . S
C436 O431 1.255 . S
C437 O438 1.258 . S
C437 O439 1.256 . S
O438 Cd430 2.381 . S
O438 C437 1.258 . S
O439 Cd430 2.378 . S
O439 C437 1.256 . S
O440 Cd441 2.300 . S
O440 C447 1.275 . S
Cd441 O440 2.300 . S
Cd441 O449 2.381 . S
Cd441 O450 2.378 . S
O442 Cd443 2.385 . S
O442 C447 1.255 . S
Cd443 O442 2.385 . S
Cd443 O444 2.317 . S
O444 Cd443 2.317 . S
O444 C445 1.232 . S
C445 O444 1.232 . S
C445 O446 1.218 . S
O446 C445 1.218 . S
C447 O440 1.275 . S
C447 O442 1.255 . S
C448 O449 1.258 . S
C448 O450 1.256 . S
O449 Cd441 2.381 . S
O449 C448 1.258 . S
O450 Cd441 2.378 . S
O450 C448 1.256 . S
O451 Cd452 2.300 1_565 S
O451 C458 1.275 . S
Cd452 O451 2.300 1_545 S
Cd452 O460 2.381 1_545 S
Cd452 O461 2.378 . S
O453 Cd454 2.385 . S
O453 C458 1.255 1_545 S
Cd454 O453 2.385 . S
Cd454 O455 2.317 . S
O455 Cd454 2.317 . S
O455 C456 1.232 . S
C456 O455 1.232 . S
C456 O457 1.218 . S
O457 C456 1.218 . S
C458 O451 1.275 . S
C458 O453 1.255 1_565 S
C459 O460 1.250 1_545 S
C459 O461 1.267 . S
O460 Cd452 2.381 1_565 S
O460 C459 1.250 1_565 S
O461 Cd452 2.378 . S
O461 C459 1.267 . S
O462 Cd463 2.300 . S
O462 C469 1.275 . S
Cd463 O462 2.300 . S
Cd463 O471 2.381 . S
Cd463 O472 2.378 . S
O464 Cd465 2.385 . S
O464 C469 1.255 . S
Cd465 O464 2.385 . S
Cd465 O466 2.317 . S
O466 Cd465 2.317 . S
O466 C467 1.232 . S
C467 O466 1.232 . S
C467 O468 1.218 . S
O468 C467 1.218 . S
C469 O462 1.275 . S
C469 O464 1.255 . S
C470 O471 1.258 . S
C470 O472 1.256 . S
O471 Cd463 2.381 . S
O471 C470 1.258 . S
O472 Cd463 2.378 . S
O472 C470 1.256 . S
O473 Cd474 2.300 1_545 S
O473 C480 1.275 1_545 S
Cd474 O473 2.300 1_565 S
Cd474 O482 2.381 1_565 S
Cd474 O483 2.378 . S
O475 Cd476 2.385 . S
O475 C480 1.255 . S
Cd476 O475 2.385 . S
Cd476 O477 2.317 . S
O477 Cd476 2.317 . S
O477 C478 1.232 . S
C478 O477 1.232 . S
C478 O479 1.218 . S
O479 C478 1.218 . S
C480 O473 1.275 1_565 S
C480 O475 1.255 . S
C481 O482 1.258 1_565 S
C481 O483 1.256 . S
O482 Cd474 2.381 1_545 S
O482 C481 1.258 1_545 S
O483 Cd474 2.378 . S
O483 C481 1.256 . S
O484 Cd485 2.300 . S
O484 C491 1.275 . S
Cd485 O484 2.300 . S
Cd485 O493 2.381 . S
Cd485 O494 2.378 . S
O486 Cd487 2.385 . S
O486 C491 1.255 . S
Cd487 O486 2.385 . S
Cd487 O488 2.317 . S
O488 Cd487 2.317 . S
O488 C489 1.232 . S
C489 O488 1.232 . S
C489 O490 1.218 . S
O490 C489 1.218 . S
C491 O484 1.275 . S
C491 O486 1.255 . S
C492 O493 1.258 . S
C492 O494 1.256 . S
O493 Cd485 2.381 . S
O493 C492 1.258 . S
O494 Cd485 2.378 . S
O494 C492 1.256 . S
O495 Cd496 2.300 1_556 S
O495 C502 1.279 . S
Cd496 O495 2.300 1_554 S
Cd496 O504 2.381 1_554 S
Cd496 O505 2.378 . S
O497 Cd498 2.385 . S
O497 C502 1.249 1_554 S
Cd498 O497 2.385 . S
Cd498 O499 2.317 . S
O499 Cd498 2.317 . S
O499 C500 1.232 . S
C500 O499 1.232 . S
C500 O501 1.218 . S
O501 C500 1.218 . S
C502 O495 1.279 . S
C502 O497 1.249 1_556 S
C503 O504 1.258 . S
C503 O505 1.256 1_556 S
O504 Cd496 2.381 1_556 S
O504 C503 1.258 . S
O505 Cd496 2.378 . S
O505 C503 1.256 1_554 S
O506 Cd507 2.300 . S
O506 C513 1.275 . S
Cd507 O506 2.300 . S
Cd507 O515 2.381 . S
Cd507 O516 2.378 . S
O508 Cd509 2.385 . S
O508 C513 1.255 . S
Cd509 O508 2.385 . S
Cd509 O510 2.317 . S
O510 Cd509 2.317 . S
O510 C511 1.232 . S
C511 O510 1.232 . S
C511 O512 1.218 . S
O512 C511 1.218 . S
C513 O506 1.275 . S
C513 O508 1.255 . S
C514 O515 1.258 . S
C514 O516 1.256 . S
O515 Cd507 2.381 . S
O515 C514 1.258 . S
O516 Cd507 2.378 . S
O516 C514 1.256 . S
O517 Cd518 2.300 . S
O517 C524 1.275 . S
Cd518 O517 2.300 . S
Cd518 O526 2.381 . S
Cd518 O527 2.378 . S
O519 Cd520 2.385 . S
O519 C524 1.255 . S
Cd520 O519 2.385 . S
Cd520 O521 2.317 . S
O521 Cd520 2.317 . S
O521 C522 1.232 . S
C522 O521 1.232 . S
C522 O523 1.218 . S
O523 C522 1.218 . S
C524 O517 1.275 . S
C524 O519 1.255 . S
C525 O526 1.258 . S
C525 O527 1.256 . S
O526 Cd518 2.381 . S
O526 C525 1.258 . S
O527 Cd518 2.378 . S
O527 C525 1.256 . S
C528 C529 1.369 . S
C528 C530 1.419 . S
C528 H532 0.930 . S
C529 C528 1.369 . S
C529 C538 1.429 . S
C530 C528 1.419 . S
C530 C531 1.363 . S
C530 H533 0.929 . S
C531 C530 1.363 . S
C531 C537 1.428 . S
H532 C528 0.930 . S
H533 C530 0.929 . S
S534 N535 1.613 . S
S534 N536 1.610 . S
N535 S534 1.613 . S
N535 C538 1.350 . S
N536 S534 1.610 . S
N536 C537 1.351 . S
C537 C531 1.428 . S
C537 N536 1.351 . S
C537 C538 1.434 . S
C538 C529 1.429 . S
C538 N535 1.350 . S
C538 C537 1.434 . S
C539 C540 1.369 . S
C539 C541 1.419 . S
C539 H543 0.930 . S
C540 C539 1.369 . S
C540 C549 1.429 . S
C541 C539 1.419 . S
C541 C542 1.363 . S
C541 H544 0.929 . S
C542 C541 1.363 . S
C542 C548 1.428 . S
H543 C539 0.930 . S
H544 C541 0.929 . S
S545 N546 1.613 . S
S545 N547 1.610 . S
N546 S545 1.613 . S
N546 C549 1.350 . S
N547 S545 1.610 . S
N547 C548 1.351 . S
C548 C542 1.428 . S
C548 N547 1.351 . S
C548 C549 1.434 . S
C549 C540 1.429 . S
C549 N546 1.350 . S
C549 C548 1.434 . S
C550 C551 1.369 . S
C550 C552 1.419 . S
C550 H554 0.930 . S
C551 C550 1.369 . S
C551 C560 1.429 1_556 S
C552 C550 1.419 . S
C552 C553 1.363 1_556 S
C552 H555 0.929 . S
C553 C552 1.363 1_554 S
C553 C559 1.428 . S
H554 C550 0.930 . S
H555 C552 0.929 . S
S556 N557 1.613 . S
S556 N558 1.610 . S
N557 S556 1.613 . S
N557 C560 1.350 . S
N558 S556 1.610 . S
N558 C559 1.351 . S
C559 C553 1.428 . S
C559 N558 1.351 . S
C559 C560 1.434 . S
C560 C551 1.429 1_554 S
C560 N557 1.350 . S
C560 C559 1.434 . S
C561 C562 1.369 . S
C561 C563 1.419 . S
C561 H565 0.930 . S
C562 C561 1.369 . S
C562 C571 1.429 1_554 S
C563 C561 1.419 . S
C563 C564 1.363 . S
C563 H566 0.929 . S
C564 C563 1.363 . S
C564 C570 1.428 1_554 S
H565 C561 0.930 . S
H566 C563 0.929 . S
S567 N568 1.613 . S
S567 N569 1.610 . S
N568 S567 1.613 . S
N568 C571 1.350 . S
N569 S567 1.610 . S
N569 C570 1.351 . S
C570 C564 1.428 1_556 S
C570 N569 1.351 . S
C570 C571 1.434 . S
C571 C562 1.429 1_556 S
C571 N568 1.350 . S
C571 C570 1.434 . S
C572 C573 1.369 . S
C572 C574 1.419 . S
C572 H576 0.930 . S
C573 C572 1.369 . S
C573 C582 1.429 . S
C574 C572 1.419 . S
C574 C575 1.363 . S
C574 H577 0.929 . S
C575 C574 1.363 . S
C575 C581 1.428 . S
H576 C572 0.930 . S
H577 C574 0.929 . S
S578 N579 1.613 . S
S578 N580 1.610 . S
N579 S578 1.613 . S
N579 C582 1.350 . S
N580 S578 1.610 . S
N580 C581 1.351 . S
C581 C575 1.428 . S
C581 N580 1.351 . S
C581 C582 1.434 . S
C582 C573 1.429 . S
C582 N579 1.350 . S
C582 C581 1.434 . S
C583 C584 1.369 . S
C583 C585 1.419 . S
C583 H587 0.930 . S
C584 C583 1.369 . S
C584 C593 1.429 . S
C585 C583 1.419 . S
C585 C586 1.363 . S
C585 H588 0.929 . S
C586 C585 1.363 . S
C586 C592 1.428 . S
H587 C583 0.930 . S
H588 C585 0.929 . S
S589 N590 1.613 . S
S589 N591 1.610 . S
N590 S589 1.613 . S
N590 C593 1.350 . S
N591 S589 1.610 . S
N591 C592 1.351 . S
C592 C586 1.428 . S
C592 N591 1.351 . S
C592 C593 1.434 . S
C593 C584 1.429 . S
C593 N590 1.350 . S
C593 C592 1.434 . S
C594 C595 1.369 . S
C594 C596 1.419 . S
C594 H598 0.930 . S
C595 C594 1.369 . S
C595 C604 1.429 . S
C596 C594 1.419 . S
C596 C597 1.363 . S
C596 H599 0.929 . S
C597 C596 1.363 . S
C597 C603 1.428 . S
H598 C594 0.930 . S
H599 C596 0.929 . S
S600 N601 1.613 . S
S600 N602 1.610 . S
N601 S600 1.613 . S
N601 C604 1.350 . S
N602 S600 1.610 . S
N602 C603 1.351 . S
C603 C597 1.428 . S
C603 N602 1.351 . S
C603 C604 1.434 . S
C604 C595 1.429 . S
C604 N601 1.350 . S
C604 C603 1.434 . S
C605 C606 1.369 . S
C605 C607 1.419 . S
C605 H609 0.930 . S
C606 C605 1.369 . S
C606 C615 1.429 . S
C607 C605 1.419 . S
C607 C608 1.363 . S
C607 H610 0.929 . S
C608 C607 1.363 . S
C608 C614 1.428 . S
H609 C605 0.930 . S
H610 C607 0.929 . S
S611 N612 1.613 . S
S611 N613 1.610 . S
N612 S611 1.613 . S
N612 C615 1.350 . S
N613 S611 1.610 . S
N613 C614 1.351 . S
C614 C608 1.428 . S
C614 N613 1.351 . S
C614 C615 1.434 . S
C615 C606 1.429 . S
C615 N612 1.350 . S
C615 C614 1.434 . S
C616 C617 1.369 . S
C616 C618 1.419 . S
C616 H620 0.930 . S
C617 C616 1.369 . S
C617 C626 1.429 . S
C618 C616 1.419 . S
C618 C619 1.363 . S
C618 H621 0.929 . S
C619 C618 1.363 . S
C619 C625 1.428 . S
H620 C616 0.930 . S
H621 C618 0.929 . S
S622 N623 1.613 . S
S622 N624 1.610 . S
N623 S622 1.613 . S
N623 C626 1.350 . S
N624 S622 1.610 . S
N624 C625 1.351 . S
C625 C619 1.428 . S
C625 N624 1.351 . S
C625 C626 1.434 . S
C626 C617 1.429 . S
C626 N623 1.350 . S
C626 C625 1.434 . S
C627 C628 1.369 . S
C627 C629 1.419 . S
C627 H631 0.930 . S
C628 C627 1.369 . S
C628 C637 1.429 . S
C629 C627 1.419 . S
C629 C630 1.363 . S
C629 H632 0.929 . S
C630 C629 1.363 . S
C630 C636 1.428 . S
H631 C627 0.930 . S
H632 C629 0.929 . S
S633 N634 1.613 . S
S633 N635 1.610 . S
N634 S633 1.613 . S
N634 C637 1.350 . S
N635 S633 1.610 . S
N635 C636 1.351 . S
C636 C630 1.428 . S
C636 N635 1.351 . S
C636 C637 1.434 . S
C637 C628 1.429 . S
C637 N634 1.350 . S
C637 C636 1.434 . S
C638 C639 1.369 . S
C638 C640 1.419 . S
C638 H642 0.930 . S
C639 C638 1.369 . S
C639 C648 1.429 . S
C640 C638 1.419 . S
C640 C641 1.363 . S
C640 H643 0.929 . S
C641 C640 1.363 . S
C641 C647 1.441 . S
H642 C638 0.930 . S
H643 C640 0.929 . S
S644 N645 1.613 . S
S644 N646 1.610 . S
N645 S644 1.613 . S
N645 C648 1.350 1_545 S
N646 S644 1.610 . S
N646 C647 1.331 1_545 S
C647 C641 1.441 . S
C647 N646 1.331 1_565 S
C647 C648 1.441 . S
C648 C639 1.429 . S
C648 N645 1.350 1_565 S
C648 C647 1.441 . S
C649 C650 1.369 . S
C649 C651 1.419 . S
C649 H653 0.930 . S
C650 C649 1.369 . S
C650 C659 1.429 . S
C651 C649 1.419 . S
C651 C652 1.363 . S
C651 H654 0.929 . S
C652 C651 1.363 . S
C652 C658 1.428 . S
H653 C649 0.930 . S
H654 C651 0.929 . S
S655 N656 1.613 . S
S655 N657 1.610 . S
N656 S655 1.613 . S
N656 C659 1.350 . S
N657 S655 1.610 . S
N657 C658 1.351 . S
C658 C652 1.428 . S
C658 N657 1.351 . S
C658 C659 1.434 . S
C659 C650 1.429 . S
C659 N656 1.350 . S
C659 C658 1.434 . S
C660 C661 1.369 . S
C660 C662 1.419 . S
C660 H664 0.930 . S
C661 C660 1.369 . S
C661 C670 1.429 . S
C662 C660 1.419 . S
C662 C663 1.363 . S
C662 H665 0.929 . S
C663 C662 1.363 . S
C663 C669 1.428 . S
H664 C660 0.930 . S
H665 C662 0.929 . S
S666 N667 1.613 . S
S666 N668 1.610 . S
N667 S666 1.613 . S
N667 C670 1.350 . S
N668 S666 1.610 . S
N668 C669 1.351 . S
C669 C663 1.428 . S
C669 N668 1.351 . S
C669 C670 1.434 . S
C670 C661 1.429 . S
C670 N667 1.350 . S
C670 C669 1.434 . S
C671 C672 1.369 . S
C671 C673 1.419 . S
C671 H675 0.930 . S
C672 C671 1.369 . S
C672 C681 1.429 . S
C673 C671 1.419 . S
C673 C674 1.363 . S
C673 H676 0.929 . S
C674 C673 1.363 . S
C674 C680 1.428 . S
H675 C671 0.930 . S
H676 C673 0.929 . S
S677 N678 1.613 . S
S677 N679 1.610 . S
N678 S677 1.613 . S
N678 C681 1.350 . S
N679 S677 1.610 . S
N679 C680 1.351 . S
C680 C674 1.428 . S
C680 N679 1.351 . S
C680 C681 1.434 . S
C681 C672 1.429 . S
C681 N678 1.350 . S
C681 C680 1.434 . S
C682 C683 1.369 . S
C682 C684 1.419 1_556 S
C682 H686 0.930 . S
C683 C682 1.369 . S
C683 C692 1.429 1_556 S
C684 C682 1.419 1_554 S
C684 C685 1.363 . S
C684 H687 0.929 . S
C685 C684 1.363 . S
C685 C691 1.428 . S
H686 C682 0.930 . S
H687 C684 0.929 . S
S688 N689 1.613 . S
S688 N690 1.610 . S
N689 S688 1.613 . S
N689 C692 1.350 . S
N690 S688 1.610 . S
N690 C691 1.351 . S
C691 C685 1.428 . S
C691 N690 1.351 . S
C691 C692 1.434 . S
C692 C683 1.429 1_554 S
C692 N689 1.350 . S
C692 C691 1.434 . S
C693 C694 1.369 . S
C693 C695 1.419 1_554 S
C693 H697 0.930 . S
C694 C693 1.369 . S
C694 C703 1.429 1_554 S
C695 C693 1.419 1_556 S
C695 C696 1.363 . S
C695 H698 0.929 . S
C696 C695 1.363 . S
C696 C702 1.428 . S
H697 C693 0.930 . S
H698 C695 0.929 . S
S699 N700 1.613 . S
S699 N701 1.610 . S
N700 S699 1.613 . S
N700 C703 1.350 . S
N701 S699 1.610 . S
N701 C702 1.351 . S
C702 C696 1.428 . S
C702 N701 1.351 . S
C702 C703 1.434 . S
C703 C694 1.429 1_556 S
C703 N700 1.350 . S
C703 C702 1.434 . S
C704 C705 1.369 . S
C704 C706 1.419 . S
C704 H708 0.930 . S
C705 C704 1.369 . S
C705 C714 1.429 . S
C706 C704 1.419 . S
C706 C707 1.363 . S
C706 H709 0.929 . S
C707 C706 1.363 . S
C707 C713 1.428 . S
H708 C704 0.930 . S
H709 C706 0.929 . S
S710 N711 1.613 . S
S710 N712 1.610 . S
N711 S710 1.613 . S
N711 C714 1.350 . S
N712 S710 1.610 . S
N712 C713 1.351 . S
C713 C707 1.428 . S
C713 N712 1.351 . S
C713 C714 1.434 . S
C714 C705 1.429 . S
C714 N711 1.350 . S
C714 C713 1.434 . S
C715 C716 1.369 . S
C715 C717 1.419 . S
C715 H719 0.930 . S
C716 C715 1.369 . S
C716 C725 1.429 . S
C717 C715 1.419 . S
C717 C718 1.363 . S
C717 H720 0.929 . S
C718 C717 1.363 . S
C718 C724 1.428 . S
H719 C715 0.930 . S
H720 C717 0.929 . S
S721 N722 1.613 . S
S721 N723 1.610 . S
N722 S721 1.613 . S
N722 C725 1.350 . S
N723 S721 1.610 . S
N723 C724 1.351 . S
C724 C718 1.428 . S
C724 N723 1.351 . S
C724 C725 1.434 . S
C725 C716 1.429 . S
C725 N722 1.350 . S
C725 C724 1.434 . S
C726 C727 1.369 . S
C726 C728 1.419 . S
C726 H730 0.930 . S
C727 C726 1.369 . S
C727 C736 1.429 . S
C728 C726 1.419 . S
C728 C729 1.363 . S
C728 H731 0.929 . S
C729 C728 1.363 . S
C729 C735 1.428 . S
H730 C726 0.930 . S
H731 C728 0.929 . S
S732 N733 1.613 . S
S732 N734 1.610 . S
N733 S732 1.613 . S
N733 C736 1.350 . S
N734 S732 1.610 . S
N734 C735 1.351 . S
C735 C729 1.428 . S
C735 N734 1.351 . S
C735 C736 1.434 . S
C736 C727 1.429 . S
C736 N733 1.350 . S
C736 C735 1.434 . S
C737 C738 1.369 . S
C737 C739 1.419 . S
C737 H741 0.930 . S
C738 C737 1.369 . S
C738 C747 1.429 . S
C739 C737 1.419 . S
C739 C740 1.363 . S
C739 H742 0.929 . S
C740 C739 1.363 . S
C740 C746 1.428 . S
H741 C737 0.930 . S
H742 C739 0.929 . S
S743 N744 1.613 . S
S743 N745 1.610 . S
N744 S743 1.613 . S
N744 C747 1.350 . S
N745 S743 1.610 . S
N745 C746 1.351 . S
C746 C740 1.428 . S
C746 N745 1.351 . S
C746 C747 1.434 . S
C747 C738 1.429 . S
C747 N744 1.350 . S
C747 C746 1.434 . S
C748 C749 1.369 . S
C748 C750 1.419 . S
C748 H752 0.930 . S
C749 C748 1.369 . S
C749 C758 1.429 . S
C750 C748 1.419 . S
C750 C751 1.363 . S
C750 H753 0.929 . S
C751 C750 1.363 . S
C751 C757 1.428 . S
H752 C748 0.930 . S
H753 C750 0.929 . S
S754 N755 1.613 . S
S754 N756 1.610 . S
N755 S754 1.613 . S
N755 C758 1.350 . S
N756 S754 1.610 . S
N756 C757 1.351 . S
C757 C751 1.428 . S
C757 N756 1.351 . S
C757 C758 1.434 . S
C758 C749 1.429 . S
C758 N755 1.350 . S
C758 C757 1.434 . S
C759 C760 1.369 . S
C759 C761 1.419 . S
C759 H763 0.930 . S
C760 C759 1.369 . S
C760 C769 1.429 . S
C761 C759 1.419 . S
C761 C762 1.363 . S
C761 H764 0.929 . S
C762 C761 1.363 . S
C762 C768 1.428 . S
H763 C759 0.930 . S
H764 C761 0.929 . S
S765 N766 1.613 . S
S765 N767 1.610 . S
N766 S765 1.613 . S
N766 C769 1.350 . S
N767 S765 1.610 . S
N767 C768 1.351 . S
C768 C762 1.428 . S
C768 N767 1.351 . S
C768 C769 1.434 . S
C769 C760 1.429 . S
C769 N766 1.350 . S
C769 C768 1.434 . S
C770 C771 1.369 . S
C770 C772 1.419 1_545 S
C770 H774 0.930 . S
C771 C770 1.369 . S
C771 C780 1.429 . S
C772 C770 1.419 1_565 S
C772 C773 1.363 1_565 S
C772 H775 0.929 . S
C773 C772 1.363 1_545 S
C773 C779 1.428 . S
H774 C770 0.930 . S
H775 C772 0.929 . S
S776 N777 1.613 . S
S776 N778 1.610 . S
N777 S776 1.613 . S
N777 C780 1.350 . S
N778 S776 1.610 . S
N778 C779 1.351 . S
C779 C773 1.428 . S
C779 N778 1.351 . S
C779 C780 1.434 . S
C780 C771 1.429 . S
C780 N777 1.350 . S
C780 C779 1.434 . S
C781 C782 1.369 . S
C781 C783 1.419 . S
C781 H785 0.930 . S
C782 C781 1.369 . S
C782 C791 1.429 . S
C783 C781 1.419 . S
C783 C784 1.363 . S
C783 H786 0.929 . S
C784 C783 1.363 . S
C784 C790 1.428 . S
H785 C781 0.930 . S
H786 C783 0.929 . S
S787 N788 1.613 . S
S787 N789 1.610 . S
N788 S787 1.613 . S
N788 C791 1.350 . S
N789 S787 1.610 . S
N789 C790 1.351 . S
C790 C784 1.428 . S
C790 N789 1.351 . S
C790 C791 1.434 . S
C791 C782 1.429 . S
C791 N788 1.350 . S
C791 C790 1.434 . S
C792 C793 1.369 . S
C792 C794 1.419 1_556 S
C792 H796 0.930 . S
C793 C792 1.369 . S
C793 C802 1.429 . S
C794 C792 1.419 1_554 S
C794 C795 1.363 . S
C794 H797 0.929 . S
C795 C794 1.363 . S
C795 C801 1.428 . S
H796 C792 0.930 . S
H797 C794 0.929 . S
S798 N799 1.613 . S
S798 N800 1.610 1_556 S
N799 S798 1.613 . S
N799 C802 1.350 . S
N800 S798 1.610 1_554 S
N800 C801 1.351 . S
C801 C795 1.428 . S
C801 N800 1.351 . S
C801 C802 1.434 1_554 S
C802 C793 1.429 . S
C802 N799 1.350 . S
C802 C801 1.434 1_556 S
C803 C804 1.369 . S
C803 C805 1.419 . S
C803 H807 0.930 . S
C804 C803 1.369 . S
C804 C813 1.429 1_556 S
C805 C803 1.419 . S
C805 C806 1.363 . S
C805 H808 0.929 . S
C806 C805 1.363 . S
C806 C812 1.428 1_556 S
H807 C803 0.930 . S
H808 C805 0.929 . S
S809 N810 1.613 . S
S809 N811 1.610 . S
N810 S809 1.613 . S
N810 C813 1.350 . S
N811 S809 1.610 . S
N811 C812 1.351 . S
C812 C806 1.428 1_554 S
C812 N811 1.351 . S
C812 C813 1.434 . S
C813 C804 1.429 1_554 S
C813 N810 1.350 . S
C813 C812 1.434 . S
C814 C815 1.369 . S
C814 C816 1.419 . S
C814 H818 0.930 . S
C815 C814 1.369 . S
C815 C824 1.429 . S
C816 C814 1.419 . S
C816 C817 1.363 . S
C816 H819 0.929 . S
C817 C816 1.363 . S
C817 C823 1.428 . S
H818 C814 0.930 . S
H819 C816 0.929 . S
S820 N821 1.613 . S
S820 N822 1.610 . S
N821 S820 1.613 . S
N821 C824 1.350 . S
N822 S820 1.610 . S
N822 C823 1.351 . S
C823 C817 1.428 . S
C823 N822 1.351 . S
C823 C824 1.434 . S
C824 C815 1.429 . S
C824 N821 1.350 . S
C824 C823 1.434 . S
C825 C826 1.369 . S
C825 C827 1.419 . S
C825 H829 0.930 . S
C826 C825 1.369 . S
C826 C835 1.429 . S
C827 C825 1.419 . S
C827 C828 1.363 . S
C827 H830 0.929 . S
C828 C827 1.363 . S
C828 C834 1.428 . S
H829 C825 0.930 . S
H830 C827 0.929 . S
S831 N832 1.613 . S
S831 N833 1.610 . S
N832 S831 1.613 . S
N832 C835 1.350 . S
N833 S831 1.610 . S
N833 C834 1.351 . S
C834 C828 1.428 . S
C834 N833 1.351 . S
C834 C835 1.434 . S
C835 C826 1.429 . S
C835 N832 1.350 . S
C835 C834 1.434 . S
C836 C837 1.369 1_655 S
C836 C838 1.419 . S
C836 H840 0.930 . S
C837 C836 1.369 1_455 S
C837 C846 1.429 . S
C838 C836 1.419 . S
C838 C839 1.363 . S
C838 H841 0.929 . S
C839 C838 1.363 . S
C839 C845 1.428 1_655 S
H840 C836 0.930 . S
H841 C838 0.929 . S
S842 N843 1.613 . S
S842 N844 1.610 . S
N843 S842 1.613 . S
N843 C846 1.350 . S
N844 S842 1.610 . S
N844 C845 1.351 . S
C845 C839 1.428 1_455 S
C845 N844 1.351 . S
C845 C846 1.434 . S
C846 C837 1.429 . S
C846 N843 1.350 . S
C846 C845 1.434 . S
C847 C848 1.369 1_655 S
C847 C849 1.419 . S
C847 H851 0.930 . S
C848 C847 1.369 1_455 S
C848 C857 1.429 . S
C849 C847 1.419 . S
C849 C850 1.363 . S
C849 H852 0.929 . S
C850 C849 1.363 . S
C850 C856 1.428 1_655 S
H851 C847 0.930 . S
H852 C849 0.929 . S
S853 N854 1.613 . S
S853 N855 1.610 . S
N854 S853 1.613 . S
N854 C857 1.350 . S
N855 S853 1.610 . S
N855 C856 1.351 . S
C856 C850 1.428 1_455 S
C856 N855 1.351 . S
C856 C857 1.434 . S
C857 C848 1.429 . S
C857 N854 1.350 . S
C857 C856 1.434 . S
C858 C859 1.369 1_455 S
C858 C860 1.419 . S
C858 H862 0.930 . S
C859 C858 1.369 1_655 S
C859 C868 1.429 . S
C860 C858 1.419 . S
C860 C861 1.363 . S
C860 H863 0.929 . S
C861 C860 1.363 . S
C861 C867 1.428 1_455 S
H862 C858 0.930 . S
H863 C860 0.929 . S
S864 N865 1.613 . S
S864 N866 1.610 . S
N865 S864 1.613 . S
N865 C868 1.350 . S
N866 S864 1.610 . S
N866 C867 1.351 . S
C867 C861 1.428 1_655 S
C867 N866 1.351 . S
C867 C868 1.434 . S
C868 C859 1.429 . S
C868 N865 1.350 . S
C868 C867 1.434 . S
C869 C870 1.370 . S
C869 C871 1.417 1_455 S
C869 H873 0.930 . S
C870 C869 1.370 . S
C870 C879 1.430 . S
C871 C869 1.417 1_655 S
C871 C872 1.363 . S
C871 H874 0.929 . S
C872 C871 1.363 . S
C872 C878 1.428 . S
H873 C869 0.930 . S
H874 C871 0.929 . S
S875 N876 1.613 . S
S875 N877 1.607 1_455 S
N876 S875 1.613 . S
N876 C879 1.354 . S
N877 S875 1.607 1_655 S
N877 C878 1.352 . S
C878 C872 1.428 . S
C878 N877 1.352 . S
C878 C879 1.431 1_655 S
C879 C870 1.430 . S
C879 N876 1.354 . S
C879 C878 1.431 1_455 S
C880 C881 1.369 . S
C880 C882 1.419 . S
C880 H884 0.930 . S
C881 C880 1.369 . S
C881 C890 1.429 . S
C882 C880 1.419 . S
C882 C883 1.363 . S
C882 H885 0.929 . S
C883 C882 1.363 . S
C883 C889 1.428 . S
H884 C880 0.930 . S
H885 C882 0.929 . S
S886 N887 1.613 1_545 S
S886 N888 1.610 . S
N887 S886 1.613 1_565 S
N887 C890 1.350 . S
N888 S886 1.610 . S
N888 C889 1.351 1_545 S
C889 C883 1.428 . S
C889 N888 1.351 1_565 S
C889 C890 1.434 . S
C890 C881 1.429 . S
C890 N887 1.350 . S
C890 C889 1.434 . S
C891 C892 1.369 . S
C891 C893 1.419 . S
C891 H895 0.930 . S
C892 C891 1.369 . S
C892 C901 1.429 . S
C893 C891 1.419 . S
C893 C894 1.363 . S
C893 H896 0.929 1_545 S
C894 C893 1.363 . S
C894 C900 1.428 . S
H895 C891 0.930 . S
H896 C893 0.929 1_565 S
S897 N898 1.613 . S
S897 N899 1.610 . S
N898 S897 1.613 . S
N898 C901 1.350 . S
N899 S897 1.610 . S
N899 C900 1.351 . S
C900 C894 1.428 . S
C900 N899 1.351 . S
C900 C901 1.434 . S
C901 C892 1.429 . S
C901 N898 1.350 . S
C901 C900 1.434 . S
C902 C903 1.369 . S
C902 C904 1.419 . S
C902 H906 0.930 . S
C903 C902 1.369 . S
C903 C912 1.429 . S
C904 C902 1.419 . S
C904 C905 1.363 . S
C904 H907 0.929 . S
C905 C904 1.363 . S
C905 C911 1.428 . S
H906 C902 0.930 . S
H907 C904 0.929 . S
S908 N909 1.613 . S
S908 N910 1.610 . S
N909 S908 1.613 . S
N909 C912 1.350 . S
N910 S908 1.610 . S
N910 C911 1.351 . S
C911 C905 1.428 . S
C911 N910 1.351 . S
C911 C912 1.434 . S
C912 C903 1.429 . S
C912 N909 1.350 . S
C912 C911 1.434 . S
C913 C914 1.369 . S
C913 C915 1.419 . S
C913 H917 0.930 . S
C914 C913 1.369 . S
C914 C923 1.429 . S
C915 C913 1.419 . S
C915 C916 1.363 . S
C915 H918 0.929 . S
C916 C915 1.363 . S
C916 C922 1.428 1_545 S
H917 C913 0.930 . S
H918 C915 0.929 . S
S919 N920 1.613 . S
S919 N921 1.610 . S
N920 S919 1.613 . S
N920 C923 1.350 1_565 S
N921 S919 1.610 . S
N921 C922 1.351 . S
C922 C916 1.428 1_565 S
C922 N921 1.351 . S
C922 C923 1.434 1_565 S
C923 C914 1.429 . S
C923 N920 1.350 1_545 S
C923 C922 1.434 1_545 S
C924 C925 1.369 . S
C924 C926 1.419 1_556 S
C924 H928 0.930 . S
C925 C924 1.369 . S
C925 C934 1.429 . S
C926 C924 1.419 1_554 S
C926 C927 1.363 . S
C926 H929 0.929 . S
C927 C926 1.363 . S
C927 C933 1.428 1_554 S
H928 C924 0.930 . S
H929 C926 0.929 . S
S930 N931 1.613 . S
S930 N932 1.610 . S
N931 S930 1.613 . S
N931 C934 1.350 . S
N932 S930 1.610 . S
N932 C933 1.351 . S
C933 C927 1.428 1_556 S
C933 N932 1.351 . S
C933 C934 1.434 . S
C934 C925 1.429 . S
C934 N931 1.350 . S
C934 C933 1.434 . S
C935 C936 1.369 . S
C935 C937 1.419 1_554 S
C935 H939 0.930 . S
C936 C935 1.369 . S
C936 C945 1.429 . S
C937 C935 1.419 1_556 S
C937 C938 1.363 . S
C937 H940 0.929 . S
C938 C937 1.363 . S
C938 C944 1.428 1_556 S
H939 C935 0.930 . S
H940 C937 0.929 . S
S941 N942 1.613 . S
S941 N943 1.610 . S
N942 S941 1.613 . S
N942 C945 1.350 . S
N943 S941 1.610 . S
N943 C944 1.351 . S
C944 C938 1.428 1_554 S
C944 N943 1.351 . S
C944 C945 1.434 . S
C945 C936 1.429 . S
C945 N942 1.350 . S
C945 C944 1.434 . S
C946 C947 1.369 . S
C946 C948 1.419 . S
C946 H950 0.930 . S
C947 C946 1.369 . S
C947 C956 1.429 . S
C948 C946 1.419 . S
C948 C949 1.363 . S
C948 H951 0.929 . S
C949 C948 1.363 . S
C949 C955 1.428 . S
H950 C946 0.930 . S
H951 C948 0.929 . S
S952 N953 1.613 . S
S952 N954 1.610 . S
N953 S952 1.613 . S
N953 C956 1.350 . S
N954 S952 1.610 . S
N954 C955 1.351 . S
C955 C949 1.428 . S
C955 N954 1.351 . S
C955 C956 1.434 . S
C956 C947 1.429 . S
C956 N953 1.350 . S
C956 C955 1.434 . S
C957 C958 1.369 . S
C957 C959 1.419 . S
C957 H961 0.930 . S
C958 C957 1.369 . S
C958 C967 1.429 . S
C959 C957 1.419 . S
C959 C960 1.363 . S
C959 H962 0.929 . S
C960 C959 1.363 . S
C960 C966 1.428 . S
H961 C957 0.930 . S
H962 C959 0.929 . S
S963 N964 1.613 . S
S963 N965 1.610 . S
N964 S963 1.613 . S
N964 C967 1.350 . S
N965 S963 1.610 . S
N965 C966 1.351 . S
C966 C960 1.428 . S
C966 N965 1.351 . S
C966 C967 1.434 . S
C967 C958 1.429 . S
C967 N964 1.350 . S
C967 C966 1.434 . S
C968 C969 1.361 1_655 S
C968 C970 1.422 . S
C968 H972 0.936 . S
C969 C968 1.361 1_455 S
C969 C978 1.429 . S
C970 C968 1.422 . S
C970 C971 1.363 1_655 S
C970 H973 0.929 . S
C971 C970 1.363 1_455 S
C971 C977 1.428 . S
H972 C968 0.936 . S
H973 C970 0.929 . S
S974 N975 1.613 . S
S974 N976 1.610 . S
N975 S974 1.613 . S
N975 C978 1.350 . S
N976 S974 1.610 . S
N976 C977 1.351 . S
C977 C971 1.428 . S
C977 N976 1.351 . S
C977 C978 1.434 . S
C978 C969 1.429 . S
C978 N975 1.350 . S
C978 C977 1.434 . S
C979 C980 1.369 . S
C979 C981 1.420 1_655 S
C979 H983 0.930 . S
C980 C979 1.369 . S
C980 C989 1.429 . S
C981 C979 1.420 1_455 S
C981 C982 1.363 . S
C981 H984 0.929 . S
C982 C981 1.363 . S
C982 C988 1.429 1_455 S
H983 C979 0.930 . S
H984 C981 0.929 . S
S985 N986 1.613 . S
S985 N987 1.610 1_655 S
N986 S985 1.613 . S
N986 C989 1.350 . S
N987 S985 1.610 1_455 S
N987 C988 1.351 1_455 S
C988 C982 1.429 1_655 S
C988 N987 1.351 1_655 S
C988 C989 1.433 . S
C989 C980 1.429 . S
C989 N986 1.350 . S
C989 C988 1.433 . S
C990 C991 1.369 1_655 S
C990 C992 1.419 1_655 S
C990 H994 0.930 . S
C991 C990 1.369 1_455 S
C991 C1000 1.429 . S
C992 C990 1.419 1_455 S
C992 C993 1.363 . S
C992 H995 0.929 1_455 S
C993 C992 1.363 . S
C993 C999 1.428 . S
H994 C990 0.930 . S
H995 C992 0.929 1_655 S
S996 N997 1.613 . S
S996 N998 1.610 . S
N997 S996 1.613 . S
N997 C1000 1.350 . S
N998 S996 1.610 . S
N998 C999 1.351 . S
C999 C993 1.428 . S
C999 N998 1.351 . S
C999 C1000 1.434 . S
C1000 C991 1.429 . S
C1000 N997 1.350 . S
C1000 C999 1.434 . S
C1001 C1002 1.369 1_655 S
C1001 C1003 1.419 . S
C1001 H1005 0.930 . S
C1002 C1001 1.369 1_455 S
C1002 C1011 1.429 . S
C1003 C1001 1.419 . S
C1003 C1004 1.363 . S
C1003 H1006 0.929 . S
C1004 C1003 1.363 . S
C1004 C1010 1.428 1_655 S
H1005 C1001 0.930 . S
H1006 C1003 0.929 . S
S1007 N1008 1.613 . S
S1007 N1009 1.610 . S
N1008 S1007 1.613 . S
N1008 C1011 1.350 . S
N1009 S1007 1.610 . S
N1009 C1010 1.351 . S
C1010 C1004 1.428 1_455 S
C1010 N1009 1.351 . S
C1010 C1011 1.434 . S
C1011 C1002 1.429 . S
C1011 N1008 1.350 . S
C1011 C1010 1.434 . S
C1012 C1013 1.369 . S
C1012 C1014 1.419 . S
C1012 H1016 0.930 . S
C1013 C1012 1.369 . S
C1013 C1022 1.429 . S
C1014 C1012 1.419 . S
C1014 C1015 1.363 . S
C1014 H1017 0.929 . S
C1015 C1014 1.363 . S
C1015 C1021 1.428 . S
H1016 C1012 0.930 . S
H1017 C1014 0.929 . S
S1018 N1019 1.613 . S
S1018 N1020 1.610 . S
N1019 S1018 1.613 . S
N1019 C1022 1.350 . S
N1020 S1018 1.610 . S
N1020 C1021 1.351 . S
C1021 C1015 1.428 . S
C1021 N1020 1.351 . S
C1021 C1022 1.434 . S
C1022 C1013 1.429 . S
C1022 N1019 1.350 . S
C1022 C1021 1.434 . S
C1023 C1024 1.369 . S
C1023 C1025 1.419 . S
C1023 H1027 0.930 . S
C1024 C1023 1.369 . S
C1024 C1033 1.429 . S
C1025 C1023 1.419 . S
C1025 C1026 1.363 . S
C1025 H1028 0.929 . S
C1026 C1025 1.363 . S
C1026 C1032 1.428 . S
H1027 C1023 0.930 . S
H1028 C1025 0.929 . S
S1029 N1030 1.613 . S
S1029 N1031 1.610 . S
N1030 S1029 1.613 . S
N1030 C1033 1.350 . S
N1031 S1029 1.610 . S
N1031 C1032 1.351 . S
C1032 C1026 1.428 . S
C1032 N1031 1.351 . S
C1032 C1033 1.434 . S
C1033 C1024 1.429 . S
C1033 N1030 1.350 . S
C1033 C1032 1.434 . S
C1034 C1035 1.369 . S
C1034 C1036 1.419 . S
C1034 H1038 0.930 . S
C1035 C1034 1.369 . S
C1035 C1044 1.429 . S
C1036 C1034 1.419 . S
C1036 C1037 1.363 . S
C1036 H1039 0.929 . S
C1037 C1036 1.363 . S
C1037 C1043 1.428 . S
H1038 C1034 0.930 . S
H1039 C1036 0.929 . S
S1040 N1041 1.613 . S
S1040 N1042 1.610 . S
N1041 S1040 1.613 . S
N1041 C1044 1.350 . S
N1042 S1040 1.610 . S
N1042 C1043 1.351 . S
C1043 C1037 1.428 . S
C1043 N1042 1.351 . S
C1043 C1044 1.434 . S
C1044 C1035 1.429 . S
C1044 N1041 1.350 . S
C1044 C1043 1.434 . S
C1045 C1046 1.369 . S
C1045 C1047 1.419 . S
C1045 H1049 0.930 . S
C1046 C1045 1.369 . S
C1046 C1055 1.429 . S
C1047 C1045 1.419 . S
C1047 C1048 1.363 . S
C1047 H1050 0.948 . S
C1048 C1047 1.363 . S
C1048 C1054 1.428 . S
H1049 C1045 0.930 . S
H1050 C1047 0.948 . S
S1051 N1052 1.613 . S
S1051 N1053 1.610 . S
N1052 S1051 1.613 . S
N1052 C1055 1.350 . S
N1053 S1051 1.610 . S
N1053 C1054 1.351 . S
C1054 C1048 1.428 . S
C1054 N1053 1.351 . S
C1054 C1055 1.434 . S
C1055 C1046 1.429 . S
C1055 N1052 1.350 . S
C1055 C1054 1.434 . S
C1056 C1057 1.369 1_655 S
C1056 C1058 1.419 . S
C1056 H1060 0.930 . S
C1057 C1056 1.369 1_455 S
C1057 C1066 1.429 . S
C1058 C1056 1.419 . S
C1058 C1059 1.363 1_655 S
C1058 H1061 0.929 . S
C1059 C1058 1.363 1_455 S
C1059 C1065 1.428 . S
H1060 C1056 0.930 . S
H1061 C1058 0.929 . S
S1062 N1063 1.613 . S
S1062 N1064 1.610 . S
N1063 S1062 1.613 . S
N1063 C1066 1.350 . S
N1064 S1062 1.610 . S
N1064 C1065 1.351 . S
C1065 C1059 1.428 . S
C1065 N1064 1.351 . S
C1065 C1066 1.434 . S
C1066 C1057 1.429 . S
C1066 N1063 1.350 . S
C1066 C1065 1.434 . S
C1067 C1068 1.369 1_655 S
C1067 C1069 1.419 . S
C1067 H1071 0.930 . S
C1068 C1067 1.369 1_455 S
C1068 C1077 1.429 . S
C1069 C1067 1.419 . S
C1069 C1070 1.363 1_655 S
C1069 H1072 0.929 . S
C1070 C1069 1.363 1_455 S
C1070 C1076 1.428 . S
H1071 C1067 0.930 . S
H1072 C1069 0.929 . S
S1073 N1074 1.613 . S
S1073 N1075 1.610 . S
N1074 S1073 1.613 . S
N1074 C1077 1.350 . S
N1075 S1073 1.610 . S
N1075 C1076 1.351 . S
C1076 C1070 1.428 . S
C1076 N1075 1.351 . S
C1076 C1077 1.434 . S
C1077 C1068 1.429 . S
C1077 N1074 1.350 . S
C1077 C1076 1.434 . S
C1078 C1079 1.369 . S
C1078 C1080 1.419 . S
C1078 H1082 0.930 . S
C1079 C1078 1.369 . S
C1079 C1088 1.429 1_565 S
C1080 C1078 1.419 . S
C1080 C1081 1.363 . S
C1080 H1083 0.929 . S
C1081 C1080 1.363 . S
C1081 C1087 1.428 1_565 S
H1082 C1078 0.930 . S
H1083 C1080 0.929 . S
S1084 N1085 1.613 . S
S1084 N1086 1.610 . S
N1085 S1084 1.613 . S
N1085 C1088 1.350 . S
N1086 S1084 1.610 . S
N1086 C1087 1.351 . S
C1087 C1081 1.428 1_545 S
C1087 N1086 1.351 . S
C1087 C1088 1.434 . S
C1088 C1079 1.429 1_545 S
C1088 N1085 1.350 . S
C1088 C1087 1.434 . S
C1089 C1090 1.369 . S
C1089 C1091 1.419 . S
C1089 H1093 0.930 . S
C1090 C1089 1.369 . S
C1090 C1099 1.429 . S
C1091 C1089 1.419 . S
C1091 C1092 1.363 . S
C1091 H1094 0.929 . S
C1092 C1091 1.363 . S
C1092 C1098 1.428 . S
H1093 C1089 0.930 . S
H1094 C1091 0.929 . S
S1095 N1096 1.613 . S
S1095 N1097 1.610 . S
N1096 S1095 1.613 . S
N1096 C1099 1.350 . S
N1097 S1095 1.610 . S
N1097 C1098 1.351 . S
C1098 C1092 1.428 . S
C1098 N1097 1.351 . S
C1098 C1099 1.434 . S
C1099 C1090 1.429 . S
C1099 N1096 1.350 . S
C1099 C1098 1.434 . S
C1100 C1101 1.369 1_554 S
C1100 C1102 1.419 . S
C1100 H1104 0.930 . S
C1101 C1100 1.369 1_556 S
C1101 C1110 1.429 . S
C1102 C1100 1.419 . S
C1102 C1103 1.363 . S
C1102 H1105 0.929 . S
C1103 C1102 1.363 . S
C1103 C1109 1.428 1_554 S
H1104 C1100 0.930 . S
H1105 C1102 0.929 . S
S1106 N1107 1.613 . S
S1106 N1108 1.610 . S
N1107 S1106 1.613 . S
N1107 C1110 1.350 . S
N1108 S1106 1.610 . S
N1108 C1109 1.351 . S
C1109 C1103 1.428 1_556 S
C1109 N1108 1.351 . S
C1109 C1110 1.434 . S
C1110 C1101 1.429 . S
C1110 N1107 1.350 . S
C1110 C1109 1.434 . S
C1111 C1112 1.369 . S
C1111 C1113 1.419 . S
C1111 H1115 0.930 . S
C1112 C1111 1.369 . S
C1112 C1121 1.429 . S
C1113 C1111 1.419 . S
C1113 C1114 1.363 . S
C1113 H1116 0.929 . S
C1114 C1113 1.363 . S
C1114 C1120 1.428 . S
H1115 C1111 0.930 . S
H1116 C1113 0.929 . S
S1117 N1118 1.613 . S
S1117 N1119 1.610 . S
N1118 S1117 1.613 . S
N1118 C1121 1.350 . S
N1119 S1117 1.610 . S
N1119 C1120 1.351 . S
C1120 C1114 1.428 . S
C1120 N1119 1.351 . S
C1120 C1121 1.434 . S
C1121 C1112 1.429 . S
C1121 N1118 1.350 . S
C1121 C1120 1.434 . S
C1122 C1123 1.369 . S
C1122 C1124 1.419 . S
C1122 H1126 0.930 . S
C1123 C1122 1.369 . S
C1123 C1132 1.429 . S
C1124 C1122 1.419 . S
C1124 C1125 1.363 . S
C1124 H1127 0.929 . S
C1125 C1124 1.363 . S
C1125 C1131 1.428 . S
H1126 C1122 0.930 . S
H1127 C1124 0.929 . S
S1128 N1129 1.613 . S
S1128 N1130 1.610 . S
N1129 S1128 1.613 . S
N1129 C1132 1.350 . S
N1130 S1128 1.610 . S
N1130 C1131 1.351 . S
C1131 C1125 1.428 . S
C1131 N1130 1.351 . S
C1131 C1132 1.434 . S
C1132 C1123 1.429 . S
C1132 N1129 1.350 . S
C1132 C1131 1.434 . S
C1133 C1134 1.369 . S
C1133 C1135 1.419 . S
C1133 H1137 0.930 . S
C1134 C1133 1.369 . S
C1134 C1143 1.429 1_455 S
C1135 C1133 1.419 . S
C1135 C1136 1.363 . S
C1135 H1138 0.929 . S
C1136 C1135 1.363 . S
C1136 C1142 1.428 1_455 S
H1137 C1133 0.930 . S
H1138 C1135 0.929 . S
S1139 N1140 1.613 . S
S1139 N1141 1.610 . S
N1140 S1139 1.613 . S
N1140 C1143 1.350 . S
N1141 S1139 1.610 . S
N1141 C1142 1.351 . S
C1142 C1136 1.428 1_655 S
C1142 N1141 1.351 . S
C1142 C1143 1.434 . S
C1143 C1134 1.429 1_655 S
C1143 N1140 1.350 . S
C1143 C1142 1.434 . S
C1144 C1145 1.369 . S
C1144 C1146 1.419 . S
C1144 H1148 0.930 . S
C1145 C1144 1.369 . S
C1145 C1154 1.429 . S
C1146 C1144 1.419 . S
C1146 C1147 1.363 . S
C1146 H1149 0.929 . S
C1147 C1146 1.363 . S
C1147 C1153 1.428 . S
H1148 C1144 0.930 . S
H1149 C1146 0.929 . S
S1150 N1151 1.607 1_554 S
S1150 N1152 1.604 1_654 S
N1151 S1150 1.607 1_556 S
N1151 C1154 1.350 1_655 S
N1152 S1150 1.604 1_456 S
N1152 C1153 1.351 . S
C1153 C1147 1.428 . S
C1153 N1152 1.351 . S
C1153 C1154 1.434 . S
C1154 C1145 1.429 . S
C1154 N1151 1.350 1_455 S
C1154 C1153 1.434 . S
C1155 C1156 1.369 1_545 S
C1155 C1157 1.419 . S
C1155 H1159 0.930 . S
C1156 C1155 1.369 1_565 S
C1156 C1165 1.429 . S
C1157 C1155 1.419 . S
C1157 C1158 1.363 1_545 S
C1157 H1160 0.929 . S
C1158 C1157 1.363 1_565 S
C1158 C1164 1.428 . S
H1159 C1155 0.930 . S
H1160 C1157 0.929 . S
S1161 N1162 1.613 . S
S1161 N1163 1.610 . S
N1162 S1161 1.613 . S
N1162 C1165 1.350 . S
N1163 S1161 1.610 . S
N1163 C1164 1.351 . S
C1164 C1158 1.428 . S
C1164 N1163 1.351 . S
C1164 C1165 1.434 . S
C1165 C1156 1.429 . S
C1165 N1162 1.350 . S
C1165 C1164 1.434 . S
C1166 C1167 1.369 . S
C1166 C1168 1.419 . S
C1166 H1170 0.930 . S
C1167 C1166 1.369 . S
C1167 C1176 1.429 . S
C1168 C1166 1.419 . S
C1168 C1169 1.363 . S
C1168 H1171 0.929 . S
C1169 C1168 1.363 . S
C1169 C1175 1.428 . S
H1170 C1166 0.930 . S
H1171 C1168 0.929 . S
S1172 N1173 1.613 . S
S1172 N1174 1.610 . S
N1173 S1172 1.613 . S
N1173 C1176 1.350 . S
N1174 S1172 1.610 . S
N1174 C1175 1.351 . S
C1175 C1169 1.428 . S
C1175 N1174 1.351 . S
C1175 C1176 1.434 . S
C1176 C1167 1.429 . S
C1176 N1173 1.350 . S
C1176 C1175 1.434 . S
C1177 C1178 1.369 . S
C1177 C1179 1.419 . S
C1177 H1181 0.930 . S
C1178 C1177 1.369 . S
C1178 C1187 1.429 . S
C1179 C1177 1.419 . S
C1179 C1180 1.363 . S
C1179 H1182 0.929 . S
C1180 C1179 1.363 . S
C1180 C1186 1.428 . S
H1181 C1177 0.930 . S
H1182 C1179 0.929 . S
S1183 N1184 1.613 1_556 S
S1183 N1185 1.610 . S
N1184 S1183 1.613 1_554 S
N1184 C1187 1.350 . S
N1185 S1183 1.610 . S
N1185 C1186 1.351 1_556 S
C1186 C1180 1.428 . S
C1186 N1185 1.351 1_554 S
C1186 C1187 1.434 . S
C1187 C1178 1.429 . S
C1187 N1184 1.350 . S
C1187 C1186 1.434 . S
C1188 C1189 1.369 . S
C1188 C1190 1.419 . S
C1188 H1192 0.930 . S
C1189 C1188 1.369 . S
C1189 C1198 1.429 . S
C1190 C1188 1.419 . S
C1190 C1191 1.363 . S
C1190 H1193 0.929 . S
C1191 C1190 1.363 . S
C1191 C1197 1.428 . S
H1192 C1188 0.930 . S
H1193 C1190 0.929 . S
S1194 N1195 1.613 . S
S1194 N1196 1.610 . S
N1195 S1194 1.613 . S
N1195 C1198 1.350 . S
N1196 S1194 1.610 . S
N1196 C1197 1.351 . S
C1197 C1191 1.428 . S
C1197 N1196 1.351 . S
C1197 C1198 1.434 . S
C1198 C1189 1.429 . S
C1198 N1195 1.350 . S
C1198 C1197 1.434 . S
C1199 C1200 1.369 . S
C1199 C1201 1.419 . S
C1199 H1203 0.930 . S
C1200 C1199 1.369 . S
C1200 C1209 1.429 . S
C1201 C1199 1.419 . S
C1201 C1202 1.363 . S
C1201 H1204 0.929 . S
C1202 C1201 1.363 . S
C1202 C1208 1.428 . S
H1203 C1199 0.930 . S
H1204 C1201 0.929 . S
S1205 N1206 1.613 . S
S1205 N1207 1.610 . S
N1206 S1205 1.613 . S
N1206 C1209 1.350 . S
N1207 S1205 1.610 . S
N1207 C1208 1.351 . S
C1208 C1202 1.428 . S
C1208 N1207 1.351 . S
C1208 C1209 1.434 . S
C1209 C1200 1.429 . S
C1209 N1206 1.350 . S
C1209 C1208 1.434 . S
C1210 C1211 1.369 . S
C1210 C1212 1.419 . S
C1210 H1214 0.930 . S
C1211 C1210 1.369 . S
C1211 C1220 1.429 . S
C1212 C1210 1.419 . S
C1212 C1213 1.363 . S
C1212 H1215 0.929 . S
C1213 C1212 1.363 . S
C1213 C1219 1.428 . S
H1214 C1210 0.930 . S
H1215 C1212 0.929 . S
S1216 N1217 1.613 1_554 S
S1216 N1218 1.610 1_554 S
N1217 S1216 1.613 1_556 S
N1217 C1220 1.350 . S
N1218 S1216 1.610 1_556 S
N1218 C1219 1.351 . S
C1219 C1213 1.428 . S
C1219 N1218 1.351 . S
C1219 C1220 1.434 . S
C1220 C1211 1.429 . S
C1220 N1217 1.350 . S
C1220 C1219 1.434 . S
C1221 C1222 1.369 . S
C1221 C1223 1.419 . S
C1221 H1225 0.930 . S
C1222 C1221 1.369 . S
C1222 C1231 1.429 . S
C1223 C1221 1.419 . S
C1223 C1224 1.363 . S
C1223 H1226 0.929 . S
C1224 C1223 1.363 . S
C1224 C1230 1.428 . S
H1225 C1221 0.930 . S
H1226 C1223 0.929 . S
S1227 N1228 1.613 . S
S1227 N1229 1.610 . S
N1228 S1227 1.613 . S
N1228 C1231 1.350 . S
N1229 S1227 1.610 . S
N1229 C1230 1.351 . S
C1230 C1224 1.428 . S
C1230 N1229 1.351 . S
C1230 C1231 1.434 . S
C1231 C1222 1.429 . S
C1231 N1228 1.350 . S
C1231 C1230 1.434 . S
C1232 C1233 1.369 . S
C1232 C1234 1.419 . S
C1232 H1236 0.930 . S
C1233 C1232 1.369 . S
C1233 C1242 1.429 . S
C1234 C1232 1.419 . S
C1234 C1235 1.363 . S
C1234 H1237 0.929 . S
C1235 C1234 1.363 . S
C1235 C1241 1.428 . S
H1236 C1232 0.930 . S
H1237 C1234 0.929 . S
S1238 N1239 1.613 . S
S1238 N1240 1.610 . S
N1239 S1238 1.613 . S
N1239 C1242 1.350 1_455 S
N1240 S1238 1.610 . S
N1240 C1241 1.351 1_455 S
C1241 C1235 1.428 . S
C1241 N1240 1.351 1_655 S
C1241 C1242 1.434 . S
C1242 C1233 1.429 . S
C1242 N1239 1.350 1_655 S
C1242 C1241 1.434 . S
C1243 C1244 1.336 1_565 S
C1243 C1245 1.419 . S
C1243 H1247 0.930 . S
C1244 C1243 1.336 1_545 S
C1244 C1253 1.454 . S
C1245 C1243 1.419 . S
C1245 C1246 1.363 . S
C1245 H1248 0.929 . S
C1246 C1245 1.363 . S
C1246 C1252 1.428 1_565 S
H1247 C1243 0.930 . S
H1248 C1245 0.929 . S
S1249 N1250 1.613 . S
S1249 N1251 1.610 . S
N1250 S1249 1.613 . S
N1250 C1253 1.350 . S
N1251 S1249 1.610 . S
N1251 C1252 1.351 . S
C1252 C1246 1.428 1_545 S
C1252 N1251 1.351 . S
C1252 C1253 1.434 . S
C1253 C1244 1.454 . S
C1253 N1250 1.350 . S
C1253 C1252 1.434 . S
C1254 C1255 1.369 1_554 S
C1254 C1256 1.419 . S
C1254 H1258 0.930 . S
C1255 C1254 1.369 1_556 S
C1255 C1264 1.429 . S
C1256 C1254 1.419 . S
C1256 C1257 1.363 . S
C1256 H1259 0.929 . S
C1257 C1256 1.363 . S
C1257 C1263 1.428 1_554 S
H1258 C1254 0.930 . S
H1259 C1256 0.929 . S
S1260 N1261 1.613 . S
S1260 N1262 1.610 . S
N1261 S1260 1.613 . S
N1261 C1264 1.350 . S
N1262 S1260 1.610 . S
N1262 C1263 1.351 . S
C1263 C1257 1.428 1_556 S
C1263 N1262 1.351 . S
C1263 C1264 1.434 . S
C1264 C1255 1.429 . S
C1264 N1261 1.350 . S
C1264 C1263 1.434 . S
C1265 C1266 1.369 . S
C1265 C1267 1.419 . S
C1265 H1269 0.930 . S
C1266 C1265 1.369 . S
C1266 C1275 1.429 . S
C1267 C1265 1.419 . S
C1267 C1268 1.363 . S
C1267 H1270 0.929 . S
C1268 C1267 1.363 . S
C1268 C1274 1.428 . S
H1269 C1265 0.930 . S
H1270 C1267 0.929 . S
S1271 N1272 1.614 . S
S1271 N1273 1.612 . S
N1272 S1271 1.614 . S
N1272 C1275 1.350 . S
N1273 S1271 1.612 . S
N1273 C1274 1.351 . S
C1274 C1268 1.428 . S
C1274 N1273 1.351 . S
C1274 C1275 1.434 . S
C1275 C1266 1.429 . S
C1275 N1272 1.350 . S
C1275 C1274 1.434 . S
C1276 C1277 1.369 . S
C1276 C1278 1.419 . S
C1276 H1280 0.930 . S
C1277 C1276 1.369 . S
C1277 C1286 1.429 . S
C1278 C1276 1.419 . S
C1278 C1279 1.363 . S
C1278 H1281 0.929 . S
C1279 C1278 1.363 . S
C1279 C1285 1.428 . S
H1280 C1276 0.930 . S
H1281 C1278 0.929 . S
S1282 N1283 1.613 . S
S1282 N1284 1.610 . S
N1283 S1282 1.613 . S
N1283 C1286 1.350 . S
N1284 S1282 1.610 . S
N1284 C1285 1.351 . S
C1285 C1279 1.428 . S
C1285 N1284 1.351 . S
C1285 C1286 1.434 . S
C1286 C1277 1.429 . S
C1286 N1283 1.350 . S
C1286 C1285 1.434 . S
C1287 C1288 1.369 . S
C1287 C1289 1.419 . S
C1287 H1291 0.930 . S
C1288 C1287 1.369 . S
C1288 C1297 1.429 . S
C1289 C1287 1.419 . S
C1289 C1290 1.363 . S
C1289 H1292 0.929 . S
C1290 C1289 1.363 . S
C1290 C1296 1.428 . S
H1291 C1287 0.930 . S
H1292 C1289 0.929 . S
S1293 N1294 1.613 1_655 S
S1293 N1295 1.610 1_655 S
N1294 S1293 1.613 1_455 S
N1294 C1297 1.350 . S
N1295 S1293 1.610 1_455 S
N1295 C1296 1.351 . S
C1296 C1290 1.428 . S
C1296 N1295 1.351 . S
C1296 C1297 1.434 . S
C1297 C1288 1.429 . S
C1297 N1294 1.350 . S
C1297 C1296 1.434 . S
C1298 C1299 1.369 1_545 S
C1298 C1300 1.419 . S
C1298 H1302 0.930 . S
C1299 C1298 1.369 1_565 S
C1299 C1308 1.429 . S
C1300 C1298 1.419 . S
C1300 C1301 1.363 1_545 S
C1300 H1303 0.929 . S
C1301 C1300 1.363 1_565 S
C1301 C1307 1.428 . S
H1302 C1298 0.930 . S
H1303 C1300 0.929 . S
S1304 N1305 1.613 . S
S1304 N1306 1.610 . S
N1305 S1304 1.613 . S
N1305 C1308 1.350 . S
N1306 S1304 1.610 . S
N1306 C1307 1.351 . S
C1307 C1301 1.428 . S
C1307 N1306 1.351 . S
C1307 C1308 1.434 . S
C1308 C1299 1.429 . S
C1308 N1305 1.350 . S
C1308 C1307 1.434 . S
C1309 C1310 1.387 . S
C1309 C1311 1.427 . S
C1309 H1313 0.904 1_556 S
C1310 C1309 1.387 . S
C1310 C1319 1.429 . S
C1311 C1309 1.427 . S
C1311 C1312 1.363 . S
C1311 H1314 0.929 1_556 S
C1312 C1311 1.363 . S
C1312 C1318 1.428 . S
H1313 C1309 0.904 1_554 S
H1314 C1311 0.929 1_554 S
S1315 N1316 1.613 . S
S1315 N1317 1.610 . S
N1316 S1315 1.613 . S
N1316 C1319 1.350 . S
N1317 S1315 1.610 . S
N1317 C1318 1.351 . S
C1318 C1312 1.428 . S
C1318 N1317 1.351 . S
C1318 C1319 1.434 . S
C1319 C1310 1.429 . S
C1319 N1316 1.350 . S
C1319 C1318 1.434 . S
C529 C249 1.520 . S
C531 C7 1.505 . S
C540 C238 1.374 . S
C542 C16 1.320 . S
C551 C524 1.520 . S
C553 C29 1.506 . S
C562 C227 1.375 1_554 S
C564 C38 1.313 . S
C573 C412 1.310 . S
C575 C51 1.465 . S
C584 C403 1.557 . S
C586 C60 1.472 . S
C595 C434 1.325 . S
C597 C73 1.457 . S
C606 C82 1.462 . S
C608 C425 1.560 . S
C617 C93 1.417 . S
C619 C469 1.653 . S
C628 C447 1.653 . S
C630 C104 1.420 . S
C639 C115 1.212 . S
C641 C458 1.370 . S
C650 C216 1.367 . S
C652 C126 1.216 . S
C661 C137 1.218 . S
C663 C117 1.463 . S
C672 C150 1.632 . S
C674 C106 1.601 . S
C683 C159 1.228 . S
C685 C392 1.468 . S
C694 C95 1.597 . S
C696 C172 1.636 . S
C705 C181 1.286 . S
C707 C282 1.517 . S
C716 C192 1.236 . S
C718 C269 1.269 . S
C727 C203 1.289 . S
C729 C304 1.518 . S
C738 C214 1.241 . S
C740 C291 1.259 . S
C749 C335 1.109 . S
C751 C225 1.147 . S
C760 C236 1.152 . S
C762 C313 1.108 . S
C771 C247 1.465 . S
C773 C326 1.563 1_545 S
C782 C258 1.472 . S
C784 C84 1.565 . S
C793 C271 1.505 . S
C795 C513 1.521 . S
C804 C502 1.376 . S
C806 C280 1.314 . S
C815 C293 1.505 . S
C817 C260 1.521 . S
C826 C491 1.372 . S
C828 C302 1.317 . S
C837 C148 1.321 . S
C839 C315 1.463 . S
C848 C324 1.461 1_455 S
C850 C139 1.563 . S
C859 C337 1.466 . S
C861 C170 1.312 . S
C870 C346 1.474 1_455 S
C872 C161 1.558 . S
C881 C357 1.424 . S
C883 C205 1.649 . S
C892 C368 1.427 . S
C894 C183 1.650 1_545 S
C903 C194 1.367 . S
C905 C379 1.216 . S
C914 C390 1.222 . S
C916 C480 1.367 1_545 S
C925 C381 1.467 . S
C927 C401 1.229 . S
C936 C414 1.633 . S
C938 C370 1.601 . S
C947 C128 1.465 . S
C949 C423 1.228 . S
C958 C436 1.632 . S
C960 C359 1.603 . S
C969 C445 1.275 . S
C971 C18 1.516 1_455 S
C980 C456 1.236 . S
C982 C5 1.261 . S
C991 C40 1.514 . S
C993 C467 1.274 . S
C1002 C27 1.262 . S
C1004 C478 1.234 . S
C1013 C71 1.118 . S
C1015 C489 1.147 . S
C1024 C500 1.139 . S
C1026 C49 1.116 . S
C1035 C62 1.570 . S
C1037 C511 1.477 . S
C1046 C522 1.468 . S
C1048 C348 1.564 . S
C1057 C19 1.502 . S
C1059 C8 1.482 . S
C1068 C30 1.483 . S
C1070 C41 1.503 . S
C1079 C52 1.474 . S
C1081 C74 1.479 . S
C1090 C63 1.579 . S
C1092 C85 1.577 . S
C1101 C382 1.531 . S
C1103 C96 1.511 . S
C1112 C107 1.516 . S
C1114 C129 1.526 . S
C1123 C360 1.511 . S
C1125 C118 1.530 . S
C1134 C140 1.560 . S
C1136 C151 1.579 . S
C1145 C162 1.563 . S
C1147 C173 1.578 . S
C1156 C184 1.593 . S
C1158 C206 1.596 1_565 S
C1167 C195 1.463 . S
C1169 C217 1.458 . S
C1178 C514 1.551 . S
C1180 C228 1.512 . S
C1189 C261 1.552 . S
C1191 C239 1.509 . S
C1200 C250 1.551 . S
C1202 C492 1.507 . S
C1211 C272 1.484 . S
C1213 C283 1.495 . S
C1222 C294 1.485 . S
C1224 C305 1.497 . S
C1233 C338 1.480 . S
C1235 C316 1.475 . S
C1244 C349 1.586 . S
C1246 C327 1.578 . S
C1255 C371 1.514 . S
C1257 C393 1.526 . S
C1266 C404 1.564 . S
C1268 C415 1.578 . S
C1277 C437 1.578 . S
C1279 C426 1.561 . S
C1288 C470 1.595 . S
C1290 C448 1.597 . S
C1299 C459 1.460 1_565 S
C1301 C481 1.458 . S
C1310 C503 1.514 . S
C1312 C525 1.551 . S
