# Generated by pormake.
# Topology wnd, (6)-cn, num edge types: 1
# Building blocks:
#     Node 0, Type 0, BuildingBlock: KUMBOL_clean_sbu_1, # of connection points: 6
#     Node 1, Type 0, BuildingBlock: KUMBOL_clean_sbu_1, # of connection points: 6
#     Node 2, Type 0, BuildingBlock: KUMBOL_clean_sbu_1, # of connection points: 6
#     Node 3, Type 0, BuildingBlock: KUMBOL_clean_sbu_1, # of connection points: 6
#     Node 4, Type 0, BuildingBlock: KUMBOL_clean_sbu_1, # of connection points: 6
#     Node 5, Type 0, BuildingBlock: KUMBOL_clean_sbu_1, # of connection points: 6
#     Node 6, Type 0, BuildingBlock: KUMBOL_clean_sbu_1, # of connection points: 6
#     Node 7, Type 0, BuildingBlock: KUMBOL_clean_sbu_1, # of connection points: 6
#     Node 8, Type 0, BuildingBlock: KUMBOL_clean_sbu_1, # of connection points: 6
#     Node 9, Type 0, BuildingBlock: KUMBOL_clean_sbu_1, # of connection points: 6
#     Node 10, Type 0, BuildingBlock: KUMBOL_clean_sbu_1, # of connection points: 6
#     Node 11, Type 0, BuildingBlock: KUMBOL_clean_sbu_1, # of connection points: 6
#     Node 12, Type 0, BuildingBlock: KUMBOL_clean_sbu_1, # of connection points: 6
#     Node 13, Type 0, BuildingBlock: KUMBOL_clean_sbu_1, # of connection points: 6
#     Node 14, Type 0, BuildingBlock: KUMBOL_clean_sbu_1, # of connection points: 6
#     Node 15, Type 0, BuildingBlock: KUMBOL_clean_sbu_1, # of connection points: 6
#     Node 16, Type 0, BuildingBlock: KUMBOL_clean_sbu_1, # of connection points: 6
#     Node 17, Type 0, BuildingBlock: KUMBOL_clean_sbu_1, # of connection points: 6
#     Node 18, Type 0, BuildingBlock: KUMBOL_clean_sbu_1, # of connection points: 6
#     Node 19, Type 0, BuildingBlock: KUMBOL_clean_sbu_1, # of connection points: 6
#     Node 20, Type 0, BuildingBlock: KUMBOL_clean_sbu_1, # of connection points: 6
#     Node 21, Type 0, BuildingBlock: KUMBOL_clean_sbu_1, # of connection points: 6
#     Node 22, Type 0, BuildingBlock: KUMBOL_clean_sbu_1, # of connection points: 6
#     Node 23, Type 0, BuildingBlock: KUMBOL_clean_sbu_1, # of connection points: 6
#     Node 24, Type 0, BuildingBlock: KUMBOL_clean_sbu_1, # of connection points: 6
#     Node 25, Type 0, BuildingBlock: KUMBOL_clean_sbu_1, # of connection points: 6
#     Node 26, Type 0, BuildingBlock: KUMBOL_clean_sbu_1, # of connection points: 6
#     Node 27, Type 0, BuildingBlock: KUMBOL_clean_sbu_1, # of connection points: 6
#     Node 28, Type 0, BuildingBlock: KUMBOL_clean_sbu_1, # of connection points: 6
#     Node 29, Type 0, BuildingBlock: KUMBOL_clean_sbu_1, # of connection points: 6
#     Node 30, Type 0, BuildingBlock: KUMBOL_clean_sbu_1, # of connection points: 6
#     Node 31, Type 0, BuildingBlock: KUMBOL_clean_sbu_1, # of connection points: 6
#     Node 32, Type 0, BuildingBlock: KUMBOL_clean_sbu_1, # of connection points: 6
#     Node 33, Type 0, BuildingBlock: KUMBOL_clean_sbu_1, # of connection points: 6
#     Node 34, Type 0, BuildingBlock: KUMBOL_clean_sbu_1, # of connection points: 6
#     Node 35, Type 0, BuildingBlock: KUMBOL_clean_sbu_1, # of connection points: 6
#     Edge 36, Type (0, 0), BuildingBlock: MIFKUJ_clean_linker_0, # of connection points: 2
#     Edge 37, Type (0, 0), BuildingBlock: MIFKUJ_clean_linker_0, # of connection points: 2
#     Edge 38, Type (0, 0), BuildingBlock: MIFKUJ_clean_linker_0, # of connection points: 2
#     Edge 39, Type (0, 0), BuildingBlock: MIFKUJ_clean_linker_0, # of connection points: 2
#     Edge 40, Type (0, 0), BuildingBlock: MIFKUJ_clean_linker_0, # of connection points: 2
#     Edge 41, Type (0, 0), BuildingBlock: MIFKUJ_clean_linker_0, # of connection points: 2
#     Edge 42, Type (0, 0), BuildingBlock: MIFKUJ_clean_linker_0, # of connection points: 2
#     Edge 43, Type (0, 0), BuildingBlock: MIFKUJ_clean_linker_0, # of connection points: 2
#     Edge 44, Type (0, 0), BuildingBlock: MIFKUJ_clean_linker_0, # of connection points: 2
#     Edge 45, Type (0, 0), BuildingBlock: MIFKUJ_clean_linker_0, # of connection points: 2
#     Edge 46, Type (0, 0), BuildingBlock: MIFKUJ_clean_linker_0, # of connection points: 2
#     Edge 47, Type (0, 0), BuildingBlock: MIFKUJ_clean_linker_0, # of connection points: 2
#     Edge 48, Type (0, 0), BuildingBlock: MIFKUJ_clean_linker_0, # of connection points: 2
#     Edge 49, Type (0, 0), BuildingBlock: MIFKUJ_clean_linker_0, # of connection points: 2
#     Edge 50, Type (0, 0), BuildingBlock: MIFKUJ_clean_linker_0, # of connection points: 2
#     Edge 51, Type (0, 0), BuildingBlock: MIFKUJ_clean_linker_0, # of connection points: 2
#     Edge 52, Type (0, 0), BuildingBlock: MIFKUJ_clean_linker_0, # of connection points: 2
#     Edge 53, Type (0, 0), BuildingBlock: MIFKUJ_clean_linker_0, # of connection points: 2
#     Edge 54, Type (0, 0), BuildingBlock: MIFKUJ_clean_linker_0, # of connection points: 2
#     Edge 55, Type (0, 0), BuildingBlock: MIFKUJ_clean_linker_0, # of connection points: 2
#     Edge 56, Type (0, 0), BuildingBlock: MIFKUJ_clean_linker_0, # of connection points: 2
#     Edge 57, Type (0, 0), BuildingBlock: MIFKUJ_clean_linker_0, # of connection points: 2
#     Edge 58, Type (0, 0), BuildingBlock: MIFKUJ_clean_linker_0, # of connection points: 2
#     Edge 59, Type (0, 0), BuildingBlock: MIFKUJ_clean_linker_0, # of connection points: 2
#     Edge 60, Type (0, 0), BuildingBlock: MIFKUJ_clean_linker_0, # of connection points: 2
#     Edge 61, Type (0, 0), BuildingBlock: MIFKUJ_clean_linker_0, # of connection points: 2
#     Edge 62, Type (0, 0), BuildingBlock: MIFKUJ_clean_linker_0, # of connection points: 2
#     Edge 63, Type (0, 0), BuildingBlock: MIFKUJ_clean_linker_0, # of connection points: 2
#     Edge 64, Type (0, 0), BuildingBlock: MIFKUJ_clean_linker_0, # of connection points: 2
#     Edge 65, Type (0, 0), BuildingBlock: MIFKUJ_clean_linker_0, # of connection points: 2
#     Edge 66, Type (0, 0), BuildingBlock: MIFKUJ_clean_linker_0, # of connection points: 2
#     Edge 67, Type (0, 0), BuildingBlock: MIFKUJ_clean_linker_0, # of connection points: 2
#     Edge 68, Type (0, 0), BuildingBlock: MIFKUJ_clean_linker_0, # of connection points: 2
#     Edge 69, Type (0, 0), BuildingBlock: MIFKUJ_clean_linker_0, # of connection points: 2
#     Edge 70, Type (0, 0), BuildingBlock: MIFKUJ_clean_linker_0, # of connection points: 2
#     Edge 71, Type (0, 0), BuildingBlock: MIFKUJ_clean_linker_0, # of connection points: 2
#     Edge 72, Type (0, 0), BuildingBlock: MIFKUJ_clean_linker_0, # of connection points: 2
#     Edge 73, Type (0, 0), BuildingBlock: MIFKUJ_clean_linker_0, # of connection points: 2
#     Edge 74, Type (0, 0), BuildingBlock: MIFKUJ_clean_linker_0, # of connection points: 2
#     Edge 75, Type (0, 0), BuildingBlock: MIFKUJ_clean_linker_0, # of connection points: 2
#     Edge 76, Type (0, 0), BuildingBlock: MIFKUJ_clean_linker_0, # of connection points: 2
#     Edge 77, Type (0, 0), BuildingBlock: MIFKUJ_clean_linker_0, # of connection points: 2
#     Edge 78, Type (0, 0), BuildingBlock: MIFKUJ_clean_linker_0, # of connection points: 2
#     Edge 79, Type (0, 0), BuildingBlock: MIFKUJ_clean_linker_0, # of connection points: 2
#     Edge 80, Type (0, 0), BuildingBlock: MIFKUJ_clean_linker_0, # of connection points: 2
#     Edge 81, Type (0, 0), BuildingBlock: MIFKUJ_clean_linker_0, # of connection points: 2
#     Edge 82, Type (0, 0), BuildingBlock: MIFKUJ_clean_linker_0, # of connection points: 2
#     Edge 83, Type (0, 0), BuildingBlock: MIFKUJ_clean_linker_0, # of connection points: 2
#     Edge 84, Type (0, 0), BuildingBlock: MIFKUJ_clean_linker_0, # of connection points: 2
#     Edge 85, Type (0, 0), BuildingBlock: MIFKUJ_clean_linker_0, # of connection points: 2
#     Edge 86, Type (0, 0), BuildingBlock: MIFKUJ_clean_linker_0, # of connection points: 2
#     Edge 87, Type (0, 0), BuildingBlock: MIFKUJ_clean_linker_0, # of connection points: 2
#     Edge 88, Type (0, 0), BuildingBlock: MIFKUJ_clean_linker_0, # of connection points: 2
#     Edge 89, Type (0, 0), BuildingBlock: MIFKUJ_clean_linker_0, # of connection points: 2
#     Edge 90, Type (0, 0), BuildingBlock: MIFKUJ_clean_linker_0, # of connection points: 2
#     Edge 91, Type (0, 0), BuildingBlock: MIFKUJ_clean_linker_0, # of connection points: 2
#     Edge 92, Type (0, 0), BuildingBlock: MIFKUJ_clean_linker_0, # of connection points: 2
#     Edge 93, Type (0, 0), BuildingBlock: MIFKUJ_clean_linker_0, # of connection points: 2
#     Edge 94, Type (0, 0), BuildingBlock: MIFKUJ_clean_linker_0, # of connection points: 2
#     Edge 95, Type (0, 0), BuildingBlock: MIFKUJ_clean_linker_0, # of connection points: 2
#     Edge 96, Type (0, 0), BuildingBlock: MIFKUJ_clean_linker_0, # of connection points: 2
#     Edge 97, Type (0, 0), BuildingBlock: MIFKUJ_clean_linker_0, # of connection points: 2
#     Edge 98, Type (0, 0), BuildingBlock: MIFKUJ_clean_linker_0, # of connection points: 2
#     Edge 99, Type (0, 0), BuildingBlock: MIFKUJ_clean_linker_0, # of connection points: 2
#     Edge 100, Type (0, 0), BuildingBlock: MIFKUJ_clean_linker_0, # of connection points: 2
#     Edge 101, Type (0, 0), BuildingBlock: MIFKUJ_clean_linker_0, # of connection points: 2
#     Edge 102, Type (0, 0), BuildingBlock: MIFKUJ_clean_linker_0, # of connection points: 2
#     Edge 103, Type (0, 0), BuildingBlock: MIFKUJ_clean_linker_0, # of connection points: 2
#     Edge 104, Type (0, 0), BuildingBlock: MIFKUJ_clean_linker_0, # of connection points: 2
#     Edge 105, Type (0, 0), BuildingBlock: MIFKUJ_clean_linker_0, # of connection points: 2
#     Edge 106, Type (0, 0), BuildingBlock: MIFKUJ_clean_linker_0, # of connection points: 2
#     Edge 107, Type (0, 0), BuildingBlock: MIFKUJ_clean_linker_0, # of connection points: 2
#     Edge 108, Type (0, 0), BuildingBlock: MIFKUJ_clean_linker_0, # of connection points: 2
#     Edge 109, Type (0, 0), BuildingBlock: MIFKUJ_clean_linker_0, # of connection points: 2
#     Edge 110, Type (0, 0), BuildingBlock: MIFKUJ_clean_linker_0, # of connection points: 2
#     Edge 111, Type (0, 0), BuildingBlock: MIFKUJ_clean_linker_0, # of connection points: 2
#     Edge 112, Type (0, 0), BuildingBlock: MIFKUJ_clean_linker_0, # of connection points: 2
#     Edge 113, Type (0, 0), BuildingBlock: MIFKUJ_clean_linker_0, # of connection points: 2
#     Edge 114, Type (0, 0), BuildingBlock: MIFKUJ_clean_linker_0, # of connection points: 2
#     Edge 115, Type (0, 0), BuildingBlock: MIFKUJ_clean_linker_0, # of connection points: 2
#     Edge 116, Type (0, 0), BuildingBlock: MIFKUJ_clean_linker_0, # of connection points: 2
#     Edge 117, Type (0, 0), BuildingBlock: MIFKUJ_clean_linker_0, # of connection points: 2
#     Edge 118, Type (0, 0), BuildingBlock: MIFKUJ_clean_linker_0, # of connection points: 2
#     Edge 119, Type (0, 0), BuildingBlock: MIFKUJ_clean_linker_0, # of connection points: 2
#     Edge 120, Type (0, 0), BuildingBlock: MIFKUJ_clean_linker_0, # of connection points: 2
#     Edge 121, Type (0, 0), BuildingBlock: MIFKUJ_clean_linker_0, # of connection points: 2
#     Edge 122, Type (0, 0), BuildingBlock: MIFKUJ_clean_linker_0, # of connection points: 2
#     Edge 123, Type (0, 0), BuildingBlock: MIFKUJ_clean_linker_0, # of connection points: 2
#     Edge 124, Type (0, 0), BuildingBlock: MIFKUJ_clean_linker_0, # of connection points: 2
#     Edge 125, Type (0, 0), BuildingBlock: MIFKUJ_clean_linker_0, # of connection points: 2
#     Edge 126, Type (0, 0), BuildingBlock: MIFKUJ_clean_linker_0, # of connection points: 2
#     Edge 127, Type (0, 0), BuildingBlock: MIFKUJ_clean_linker_0, # of connection points: 2
#     Edge 128, Type (0, 0), BuildingBlock: MIFKUJ_clean_linker_0, # of connection points: 2
#     Edge 129, Type (0, 0), BuildingBlock: MIFKUJ_clean_linker_0, # of connection points: 2
#     Edge 130, Type (0, 0), BuildingBlock: MIFKUJ_clean_linker_0, # of connection points: 2
#     Edge 131, Type (0, 0), BuildingBlock: MIFKUJ_clean_linker_0, # of connection points: 2
#     Edge 132, Type (0, 0), BuildingBlock: MIFKUJ_clean_linker_0, # of connection points: 2
#     Edge 133, Type (0, 0), BuildingBlock: MIFKUJ_clean_linker_0, # of connection points: 2
#     Edge 134, Type (0, 0), BuildingBlock: MIFKUJ_clean_linker_0, # of connection points: 2
#     Edge 135, Type (0, 0), BuildingBlock: MIFKUJ_clean_linker_0, # of connection points: 2
#     Edge 136, Type (0, 0), BuildingBlock: MIFKUJ_clean_linker_0, # of connection points: 2
#     Edge 137, Type (0, 0), BuildingBlock: MIFKUJ_clean_linker_0, # of connection points: 2
#     Edge 138, Type (0, 0), BuildingBlock: MIFKUJ_clean_linker_0, # of connection points: 2
#     Edge 139, Type (0, 0), BuildingBlock: MIFKUJ_clean_linker_0, # of connection points: 2
#     Edge 140, Type (0, 0), BuildingBlock: MIFKUJ_clean_linker_0, # of connection points: 2
#     Edge 141, Type (0, 0), BuildingBlock: MIFKUJ_clean_linker_0, # of connection points: 2
#     Edge 142, Type (0, 0), BuildingBlock: MIFKUJ_clean_linker_0, # of connection points: 2
#     Edge 143, Type (0, 0), BuildingBlock: MIFKUJ_clean_linker_0, # of connection points: 2
# Relax obj value: 0.054
# Max RMSD: 0.158
# Mean RMSD: 0.158
data_MOF--net-wnd--node1-KUMBOL_clean_sbu_1--edge1-MIFKUJ_clean_linker_0
_symmetry_space_group_name_H-M    P1
_symmetry_Int_Tables_number       1
_symmetry_cell_setting            triclinic
loop_
_symmetry_equiv_pos_as_xyz
'x, y, z'
_cell_length_a     48.677193
_cell_length_b     48.687889
_cell_length_c     213.18478
_cell_angle_alpha  89.955324
_cell_angle_beta   90.005477
_cell_angle_gamma 119.99866
loop_
_atom_site_label
_atom_site_type_symbol
_atom_site_fract_x
_atom_site_fract_y
_atom_site_fract_z
_atom_type_partial_charge
C0 C 0.42082 0.03077 0.03904 0.0
C1 C 0.3803 0.01979 0.04685 0.0
C2 C 0.41253 0.03263 0.04523 0.0
C3 C 0.35686 0.00568 0.04221 0.0
C4 C 0.39719 0.01556 0.03443 0.0
C5 C 0.36522 1.00329 0.03604 0.0
N6 N 0.45197 0.04285 0.03758 0.0
C7 C 0.46118 0.04171 0.0316 0.0
C8 C 0.4064 0.01298 0.02834 0.0
C9 C 0.43853 0.02593 0.02693 0.0
Gd10 Gd 0.52081 0.01291 0.05306 0.0
Gd11 Gd 0.48786 0.06863 0.04569 0.0
N12 N 0.43582 0.04681 0.04964 0.0
C13 C 0.37249 0.02174 0.05308 0.0
C14 C 0.42824 0.05 0.05566 0.0
C15 C 0.39658 0.037 0.05749 0.0
H16 H 0.44618 0.06326 0.05906 0.0
H17 H 0.39082 0.03935 0.06229 0.0
H18 H 0.56751 0.02199 0.04072 0.0
H19 H 0.48595 0.05338 0.03041 0.0
H20 H 0.62313 0.0377 0.03863 0.0
H21 H 0.34799 0.01196 0.05451 0.0
H22 H 0.33212 0.99655 0.04335 0.0
H23 H 0.513 0.00879 0.0688 0.0
H24 H 0.38892 1.00114 0.02468 0.0
H25 H 0.44585 0.02391 0.02226 0.0
H26 H 0.67043 0.05622 0.05906 0.0
H27 H 0.34675 0.99188 0.03254 0.0
H28 H 0.60411 0.03972 0.0769 0.0
H29 H 0.5469 0.02092 0.07812 0.0
N30 N 0.55109 0.02384 0.0623 0.0
C31 C 0.58214 0.03263 0.06153 0.0
C32 C 0.5382 0.01867 0.06817 0.0
C33 C 0.58948 0.03529 0.07277 0.0
C34 C 0.55724 0.02482 0.07348 0.0
C35 C 0.60224 0.03881 0.06675 0.0
H36 H 0.64994 0.05252 0.06976 0.0
N37 N 0.57366 0.02827 0.0506 0.0
C38 C 0.59357 0.03413 0.05552 0.0
C39 C 0.6363 0.04432 0.04839 0.0
C40 C 0.62555 0.04264 0.05454 0.0
C41 C 0.5837 0.02856 0.0446 0.0
C42 C 0.61521 0.03705 0.0434 0.0
O43 O 0.46108 0.01468 0.0444 0.0
O44 O 0.47108 1.00325 0.05401 0.0
O45 O 0.51541 0.96957 0.04868 0.0
O46 O 0.50322 0.96919 0.05836 0.0
O47 O 0.4985 0.07604 0.05597 0.0
O48 O 0.50005 0.03294 0.0604 0.0
O49 O 0.55965 0.06357 0.05163 0.0
O50 O 0.53766 0.09595 0.04979 0.0
O51 O 0.4801 0.10865 0.04711 0.0
O52 O 0.49851 0.10301 0.03829 0.0
O53 O 0.51341 0.01366 0.04231 0.0
O54 O 0.5258 0.06514 0.04046 0.0
C55 C 0.45317 0.99459 0.04906 0.0
C56 C 0.49859 0.05952 0.06085 0.0
C57 C 0.52663 0.93803 0.05576 0.0
C58 C 0.53987 0.89563 0.0547 0.0
C59 C 0.5644 0.93523 0.06287 0.0
C60 C 0.54735 0.94965 0.06093 0.0
C61 C 0.56073 0.90846 0.05979 0.0
C62 C 0.52281 0.91057 0.05264 0.0
C63 C 0.50817 0.95382 0.05394 0.0
C64 C 0.64578 0.04951 0.05972 0.0
C65 C 0.63414 0.04755 0.06581 0.0
H66 H 0.6607 0.05091 0.04745 0.0
C67 C 0.56163 0.09152 0.05123 0.0
C68 C 0.52342 0.03854 0.03851 0.0
C69 C 0.51879 0.15546 0.04202 0.0
C70 C 0.53759 0.211 0.0446 0.0
C71 C 0.57378 0.19573 0.04012 0.0
C72 C 0.5494 0.16424 0.03984 0.0
C73 C 0.56796 0.21899 0.04248 0.0
C74 C 0.51296 0.17912 0.04441 0.0
C75 C 0.4932 0.12181 0.04178 0.0
H76 H 0.5802 0.9446 0.06686 0.0
H77 H 0.55 0.96956 0.0636 0.0
H78 H 0.57386 0.89731 0.06146 0.0
H79 H 0.50649 0.90069 0.04874 0.0
H80 H 0.59728 0.20213 0.03848 0.0
H81 H 0.55475 0.14671 0.038 0.0
H82 H 0.58707 0.24344 0.04255 0.0
H83 H 0.48939 0.1729 0.046 0.0
C84 C 0.04811 0.43117 0.03822 0.0
C85 C 0.06542 0.40464 0.04554 0.0
C86 C 0.05062 0.42269 0.04435 0.0
C87 C 0.07763 0.39535 0.04052 0.0
C88 C 0.06052 0.422 0.03318 0.0
C89 C 0.07533 0.40411 0.03437 0.0
N90 N 0.03369 0.44852 0.0372 0.0
C91 C 0.02973 0.45632 0.03126 0.0
C92 C 0.05745 0.43086 0.02709 0.0
C93 C 0.04182 0.44797 0.02612 0.0
Gd94 Gd 0.06482 0.54801 0.05332 0.0
Gd95 Gd 0.01321 0.46014 0.04609 0.0
N96 N 0.03876 0.43222 0.04913 0.0
C97 C 0.06722 0.39617 0.05173 0.0
C98 C 0.03965 0.42321 0.05514 0.0
C99 C 0.05423 0.40548 0.05654 0.0
H100 H 0.02854 0.42885 0.05885 0.0
H101 H 0.05494 0.3986 0.06133 0.0
H102 H 0.05377 0.58179 0.04023 0.0
H103 H 0.01608 0.46778 0.03046 0.0
H104 H 0.03306 0.61673 0.03759 0.0
H105 H 0.07808 0.38203 0.05283 0.0
H106 H 0.0887 0.38115 0.04133 0.0
H107 H 0.06228 0.54275 0.06906 0.0
H108 H 0.06662 0.42421 0.02309 0.0
H109 H 0.03862 0.45429 0.02142 0.0
H110 H 0.0078 0.64445 0.05744 0.0
H111 H 0.08487 0.39672 0.03056 0.0
H112 H 0.02537 0.60014 0.07601 0.0
H113 H 0.04577 0.56348 0.07794 0.0
N114 N 0.04954 0.56582 0.06213 0.0
C115 C 0.0389 0.58637 0.06095 0.0
C116 C 0.05233 0.55776 0.06813 0.0
C117 C 0.03213 0.59071 0.07208 0.0
C118 C 0.04349 0.56991 0.07319 0.0
C119 C 0.02983 0.5993 0.06592 0.0
H120 H 0.01158 0.63039 0.06835 0.0
N121 N 0.04411 0.58022 0.05002 0.0
C122 C 0.03642 0.59402 0.05475 0.0
C123 C 0.02343 0.62282 0.04718 0.0
C124 C 0.0253 0.61522 0.05343 0.0
C125 C 0.0442 0.58925 0.04395 0.0
C126 C 0.03326 0.61005 0.04243 0.0
O127 O 0.06764 0.4867 0.04536 0.0
O128 O 0.08083 0.51284 0.05466 0.0
O129 O 0.11017 0.5834 0.04906 0.0
O130 O 0.10137 0.58563 0.05892 0.0
O131 O 0.00555 0.46553 0.05632 0.0
O132 O 0.05213 0.50679 0.06039 0.0
O133 O 0.01189 0.52724 0.05413 0.0
O134 O 0.98945 0.48994 0.04623 0.0
O135 O 0.97141 0.41607 0.04947 0.0
O136 O 0.97736 0.42966 0.03954 0.0
O137 O 0.06597 0.54103 0.04254 0.0
O138 O 0.01617 0.49969 0.04035 0.0
C139 C 0.08848 0.50154 0.04985 0.0
C140 C 0.02474 0.47957 0.06107 0.0
C141 C 0.15476 0.61881 0.0556 0.0
C142 C 0.20397 0.67051 0.05543 0.0
C143 C 0.20046 0.62705 0.06168 0.0
C144 C 0.16912 0.60746 0.05976 0.0
C145 C 0.2177 0.65836 0.05957 0.0
C146 C 0.17243 0.65048 0.0534 0.0
C147 C 0.12038 0.59962 0.05424 0.0
C148 C 0.01644 0.62821 0.05838 0.0
C149 C 0.01862 0.62023 0.06459 0.0
H150 H 0.01508 0.63903 0.04599 0.0
C151 C 0.98762 0.50783 0.05065 0.0
C152 C 0.04246 0.52456 0.03853 0.0
C153 C 0.93014 0.38056 0.04198 0.0
C154 C 0.87503 0.34027 0.04392 0.0
C155 C 0.89835 0.34465 0.03365 0.0
C156 C 0.92697 0.36975 0.03577 0.0
C157 C 0.87248 0.3301 0.03768 0.0
C158 C 0.90407 0.36543 0.04612 0.0
C159 C 0.95975 0.40941 0.0438 0.0
H160 H 0.21126 0.61811 0.06492 0.0
H161 H 0.15581 0.58376 0.06168 0.0
H162 H 0.2418 0.67328 0.06121 0.0
H163 H 0.16133 0.65983 0.05032 0.0
H164 H 0.89611 0.33667 0.02884 0.0
H165 H 0.94658 0.38104 0.0325 0.0
H166 H 0.85028 0.31084 0.03593 0.0
H167 H 0.90598 0.37374 0.0509 0.0
C168 C 0.65589 0.65002 0.03819 0.0
C169 C 0.67985 0.69556 0.04514 0.0
C170 C 0.6619 0.66244 0.04422 0.0
C171 C 0.69217 0.71583 0.03994 0.0
C172 C 0.66807 0.67035 0.03295 0.0
C173 C 0.68634 0.70326 0.03386 0.0
N174 N 0.6374 0.61816 0.03742 0.0
C175 C 0.63082 0.60501 0.03159 0.0
C176 C 0.66143 0.65699 0.02695 0.0
C177 C 0.64275 0.62414 0.02627 0.0
Gd178 Gd 0.5333 0.55708 0.05391 0.0
Gd179 Gd 0.6196 0.58776 0.04657 0.0
N180 N 0.64877 0.64225 0.04916 0.0
C181 C 0.68441 0.70742 0.05125 0.0
C182 C 0.65313 0.65389 0.05512 0.0
C183 C 0.67093 0.68646 0.05626 0.0
H184 H 0.6426 0.63854 0.05902 0.0
H185 H 0.67405 0.69537 0.06101 0.0
H186 H 0.49684 0.51485 0.04074 0.0
H187 H 0.61724 0.57963 0.03105 0.0
H188 H 0.46072 0.45985 0.0378 0.0
H189 H 0.698 0.73268 0.05215 0.0
H190 H 0.70601 0.7413 0.04056 0.0
H191 H 0.53535 0.55751 0.06953 0.0
H192 H 0.67085 0.67186 0.02284 0.0
H193 H 0.63786 0.61342 0.02167 0.0
H194 H 0.43652 0.40272 0.0572 0.0
H195 H 0.69585 0.71923 0.02989 0.0
H196 H 0.48043 0.46197 0.07608 0.0
H197 H 0.51515 0.51915 0.07827 0.0
N198 N 0.51438 0.52229 0.06247 0.0
C199 C 0.49469 0.49114 0.06115 0.0
C200 C 0.52135 0.53254 0.06852 0.0
C201 C 0.4898 0.47867 0.07222 0.0
C202 C 0.50946 0.5109 0.07348 0.0
C203 C 0.48189 0.46845 0.06601 0.0
H204 H 0.45127 0.41868 0.06818 0.0
N205 N 0.49979 0.50467 0.05037 0.0
C206 C 0.48699 0.4821 0.05494 0.0
C207 C 0.45633 0.44218 0.04721 0.0
C208 C 0.46546 0.45015 0.05346 0.0
C209 C 0.48984 0.49701 0.0443 0.0
C210 C 0.4685 0.46569 0.04262 0.0
O211 O 0.59744 0.61945 0.0452 0.0
O212 O 0.57185 0.60741 0.05445 0.0
O213 O 0.4936 0.56126 0.05018 0.0
O214 O 0.50607 0.57078 0.05991 0.0
O215 O 0.61466 0.57648 0.05692 0.0
O216 O 0.57449 0.58342 0.06106 0.0
O217 O 0.55356 0.5247 0.05537 0.0
O218 O 0.58385 0.53486 0.04653 0.0
O219 O 0.66205 0.5888 0.05035 0.0
O220 O 0.64573 0.57242 0.04086 0.0
O221 O 0.54011 0.5662 0.04307 0.0
O222 O 0.57856 0.55376 0.04078 0.0
C223 C 0.58133 0.62506 0.04946 0.0
C224 C 0.60137 0.58258 0.06168 0.0
C225 C 0.45133 0.5474 0.05742 0.0
C226 C 0.39611 0.5357 0.05683 0.0
C227 C 0.41061 0.50622 0.06398 0.0
C228 C 0.44207 0.52372 0.06203 0.0
C229 C 0.38783 0.51225 0.06143 0.0
C230 C 0.42798 0.55316 0.05476 0.0
C231 C 0.48536 0.56675 0.05563 0.0
C232 C 0.45298 0.42737 0.05826 0.0
C233 C 0.46131 0.43648 0.06452 0.0
H234 H 0.43887 0.41826 0.04592 0.0
C235 C 0.56792 0.51628 0.05125 0.0
C236 C 0.55566 0.55848 0.03895 0.0
C237 C 0.69813 0.58471 0.04318 0.0
C238 C 0.7429 0.57621 0.04455 0.0
C239 C 0.73759 0.59994 0.03495 0.0
C240 C 0.70972 0.59784 0.03722 0.0
C241 C 0.75413 0.58916 0.03859 0.0
C242 C 0.71486 0.57393 0.04684 0.0
C243 C 0.66626 0.5769 0.0452 0.0
H244 H 0.40393 0.48816 0.06755 0.0
H245 H 0.45917 0.51899 0.06425 0.0
H246 H 0.36356 0.4986 0.06308 0.0
H247 H 0.43466 0.57152 0.05125 0.0
H248 H 0.7461 0.60941 0.03031 0.0
H249 H 0.69674 0.60551 0.03426 0.0
H250 H 0.7754 0.5904 0.03671 0.0
H251 H 0.70559 0.5629 0.05135 0.0
C252 C 0.03842 0.42376 0.47101 0.0
C253 C 0.02273 0.37962 0.46381 0.0
C254 C 0.03562 0.41235 0.46491 0.0
C255 C 0.01138 0.35836 0.46887 0.0
C256 C 0.02842 0.40249 0.47612 0.0
C257 C 0.01418 0.36975 0.47501 0.0
N258 N 0.05295 0.45563 0.47197 0.0
C259 C 0.06099 0.46774 0.4779 0.0
C260 C 0.03423 0.4148 0.48221 0.0
C261 C 0.05112 0.44757 0.4831 0.0
Gd262 Gd 0.01441 0.5237 0.45652 0.0
Gd263 Gd 0.06861 0.48668 0.46282 0.0
N264 N 0.04643 0.43334 0.46006 0.0
C265 C 0.02205 0.36928 0.45765 0.0
C266 C 0.04805 0.4237 0.45413 0.0
C267 C 0.03518 0.39149 0.4528 0.0
H268 H 0.05914 0.44087 0.45045 0.0
H269 H 0.03574 0.38385 0.44806 0.0
H270 H 0.01637 0.56836 0.46889 0.0
H271 H 0.07556 0.49296 0.47867 0.0
H272 H 0.03328 0.62407 0.47106 0.0
H273 H 0.01223 0.34432 0.45661 0.0
H274 H 1.00105 0.3331 0.46811 0.0
H275 H 0.02325 0.52008 0.4408 0.0
H276 H 0.02696 0.39923 0.48626 0.0
H277 H 0.05701 0.45734 0.48779 0.0
H278 H 0.07164 0.6765 0.45131 0.0
H279 H 0.00612 0.35309 0.47888 0.0
H280 H 0.0667 0.6142 0.43356 0.0
H281 H 0.04554 0.55683 0.43196 0.0
N282 N 0.0349 0.55634 0.44763 0.0
C283 C 0.04462 0.58755 0.44854 0.0
C284 C 0.03397 0.5451 0.44171 0.0
C285 C 0.05769 0.5982 0.43753 0.0
C286 C 0.04593 0.56587 0.43662 0.0
C287 C 0.05661 0.60936 0.44352 0.0
H288 H 0.07597 0.65849 0.44078 0.0
N289 N 0.03073 0.57635 0.4593 0.0
C290 C 0.04209 0.59773 0.45451 0.0
C291 C 0.04854 0.63941 0.46158 0.0
C292 C 0.05155 0.62992 0.45555 0.0
C293 C 0.02703 0.5854 0.46516 0.0
C294 C 0.0361 0.61702 0.4664 0.0
O295 O 0.0181 0.45311 0.45931 0.0
O296 O 0.99528 0.481 0.46269 0.0
O297 O 0.97534 0.53331 0.45791 0.0
O298 O 0.97242 0.50045 0.4506 0.0
O299 O 0.0742 0.50672 0.45314 0.0
O300 O 0.02462 0.49253 0.44969 0.0
O301 O 0.06775 0.55549 0.45628 0.0
O302 O 0.08816 0.53915 0.46442 0.0
O303 O 0.11188 0.49741 0.45781 0.0
O304 O 0.1056 0.48194 0.46744 0.0
O305 O 0.0154 0.5197 0.46731 0.0
O306 O 0.05815 0.51305 0.47034 0.0
C307 C 0.99251 0.45447 0.46071 0.0
C308 C 0.05271 0.49485 0.44875 0.0
C309 C 0.92732 0.50955 0.45141 0.0
C310 C 0.88209 0.51851 0.45251 0.0
C311 C 0.88398 0.48694 0.44389 0.0
C312 C 0.91299 0.49141 0.44602 0.0
C313 C 0.86867 0.50038 0.44709 0.0
C314 C 0.91162 0.52318 0.45469 0.0
C315 C 0.95903 0.51485 0.45331 0.0
C316 C 0.06402 0.65168 0.45057 0.0
C317 C 0.06657 0.64144 0.44458 0.0
H318 H 0.05563 0.6639 0.46256 0.0
C319 C 0.08992 0.56066 0.46043 0.0
C320 C 0.0353 0.51941 0.47157 0.0
C321 C 0.15731 0.51799 0.46423 0.0
C322 C 0.21417 0.53897 0.4636 0.0
C323 C 0.19338 0.56603 0.46987 0.0
C324 C 0.16252 0.54295 0.46827 0.0
C325 C 0.21915 0.56397 0.46758 0.0
C326 C 0.18323 0.51615 0.46187 0.0
C327 C 0.12499 0.49292 0.46273 0.0
H328 H 0.87334 0.47304 0.4397 0.0
H329 H 0.9244 0.48086 0.44338 0.0
H330 H 0.84612 0.49655 0.44534 0.0
H331 H 0.92225 0.53733 0.45885 0.0
H332 H 0.19729 0.58527 0.47296 0.0
H333 H 0.14275 0.54457 0.47017 0.0
H334 H 0.24296 0.58162 0.46897 0.0
H335 H 0.17933 0.49656 0.45887 0.0
C336 C 0.64333 0.64837 0.47262 0.0
C337 C 0.69073 0.67668 0.46623 0.0
C338 C 0.65752 0.65754 0.46675 0.0
C339 C 0.70941 0.68651 0.47168 0.0
C340 C 0.66198 0.65822 0.4781 0.0
C341 C 0.69508 0.67733 0.47759 0.0
N342 N 0.61132 0.62945 0.47295 0.0
C343 C 0.59631 0.62033 0.47861 0.0
C344 C 0.64681 0.64839 0.48392 0.0
C345 C 0.61381 0.62946 0.48417 0.0
Gd346 Gd 0.55769 0.52989 0.45567 0.0
Gd347 Gd 0.58436 0.61404 0.46338 0.0
N348 N 0.63888 0.64686 0.46155 0.0
C349 C 0.70417 0.6851 0.46024 0.0
C350 C 0.65173 0.6562 0.45572 0.0
C351 C 0.68453 0.6749 0.45497 0.0
H352 H 0.63697 0.64951 0.45164 0.0
H353 H 0.69459 0.68118 0.45033 0.0
H354 H 0.5151 0.49177 0.46873 0.0
H355 H 0.57077 0.60626 0.47883 0.0
H356 H 0.46011 0.45455 0.4715 0.0
H357 H 0.72961 0.69955 0.45963 0.0
H358 H 0.73497 0.70117 0.47137 0.0
H359 H 0.55775 0.54116 0.44015 0.0
H360 H 0.66032 0.6554 0.48824 0.0
H361 H 0.60182 0.62195 0.48865 0.0
H362 H 0.4047 0.43043 0.45192 0.0
H363 H 0.70983 0.68507 0.48175 0.0
H364 H 0.46308 0.48275 0.43343 0.0
H365 H 0.51949 0.52174 0.43141 0.0
N366 N 0.52307 0.51475 0.4471 0.0
C367 C 0.49224 0.49308 0.44832 0.0
C368 C 0.53304 0.52493 0.44113 0.0
C369 C 0.47969 0.49157 0.4373 0.0
C370 C 0.51149 0.51366 0.43615 0.0
C371 C 0.46972 0.48093 0.44344 0.0
H372 H 0.42048 0.44871 0.44111 0.0
N373 N 0.5053 0.49617 0.45915 0.0
C374 C 0.4831 0.48364 0.4545 0.0
C375 C 0.44298 0.45092 0.46207 0.0
C376 C 0.45129 0.46095 0.45586 0.0
C377 C 0.49742 0.48513 0.46515 0.0
C378 C 0.46614 0.46303 0.46672 0.0
O379 O 0.6184 0.59419 0.46432 0.0
O380 O 0.60964 0.56495 0.45535 0.0
O381 O 0.55921 0.48712 0.45873 0.0
O382 O 0.56605 0.50188 0.44893 0.0
O383 O 0.57653 0.61012 0.45289 0.0
O384 O 0.58839 0.57265 0.44919 0.0
O385 O 0.52604 0.55105 0.45408 0.0
O386 O 0.53257 0.57651 0.46338 0.0
O387 O 0.58075 0.65284 0.4591 0.0
O388 O 0.56969 0.64151 0.46894 0.0
O389 O 0.5671 0.53542 0.46647 0.0
O390 O 0.55127 0.57119 0.46893 0.0
C391 C 0.62691 0.57945 0.46024 0.0
C392 C 0.58605 0.59849 0.44836 0.0
C393 C 0.5666 0.45326 0.45103 0.0
C394 C 0.55649 0.39887 0.45234 0.0
C395 C 0.5778 0.4269 0.44253 0.0
C396 C 0.5774 0.45332 0.4449 0.0
C397 C 0.56715 0.39979 0.44619 0.0
C398 C 0.55636 0.42582 0.4548 0.0
C399 C 0.56298 0.4806 0.45298 0.0
C400 C 0.42899 0.44838 0.45099 0.0
C401 C 0.43807 0.45855 0.44481 0.0
H402 H 0.41902 0.43306 0.46329 0.0
C403 C 0.51564 0.56282 0.45837 0.0
C404 C 0.5584 0.54977 0.47068 0.0
C405 C 0.58492 0.69365 0.46584 0.0
C406 C 0.57901 0.74042 0.46548 0.0
C407 C 0.61983 0.74011 0.47198 0.0
C408 C 0.61029 0.70922 0.47005 0.0
C409 C 0.60412 0.75558 0.46975 0.0
C410 C 0.5696 0.70949 0.46349 0.0
C411 C 0.57193 0.66001 0.46433 0.0
H412 H 0.58612 0.42734 0.4378 0.0
H413 H 0.58527 0.47378 0.44188 0.0
H414 H 0.5674 0.37941 0.44422 0.0
H415 H 0.54736 0.42498 0.45949 0.0
H416 H 0.63917 0.75195 0.47528 0.0
H417 H 0.62221 0.69729 0.47194 0.0
H418 H 0.61161 0.77942 0.47135 0.0
H419 H 0.54979 0.69746 0.46028 0.0
C420 C 0.4319 0.05084 0.46913 0.0
C421 C 0.40457 0.06577 0.46149 0.0
C422 C 0.42108 0.04982 0.46305 0.0
C423 C 0.3998 0.08356 0.4661 0.0
C424 C 0.42604 0.0677 0.47382 0.0
C425 C 0.41056 0.08457 0.47224 0.0
N426 N 0.44684 0.03423 0.47052 0.0
C427 C 0.45258 0.03025 0.47662 0.0
C428 C 0.43504 0.06631 0.47999 0.0
C429 C 0.4477 0.0469 0.48142 0.0
Gd430 Gd 0.54784 0.06514 0.45682 0.0
Gd431 Gd 0.45625 0.00975 0.46189 0.0
N432 N 0.42734 0.03366 0.4586 0.0
C433 C 0.39336 0.06332 0.45535 0.0
C434 C 0.41513 0.02977 0.4527 0.0
C435 C 0.39834 0.04493 0.45095 0.0
H436 H 0.41863 0.01517 0.44936 0.0
H437 H 0.38924 0.04242 0.44623 0.0
H438 H 0.5824 0.05269 0.46954 0.0
H439 H 0.45989 0.0135 0.47787 0.0
H440 H 0.62068 0.03532 0.47169 0.0
H441 H 0.38052 0.0752 0.45397 0.0
H442 H 0.38748 0.0963 0.46498 0.0
H443 H 0.54475 0.06849 0.441 0.0
H444 H 0.43101 0.07897 0.48373 0.0
H445 H 0.45309 0.04422 0.48623 0.0
H446 H 0.6483 0.01427 0.45141 0.0
H447 H 0.40614 0.09789 0.47577 0.0
H448 H 0.60155 0.03261 0.43336 0.0
H449 H 0.56552 0.0541 0.43188 0.0
N450 N 0.56606 0.05235 0.44771 0.0
C451 C 0.58682 0.04174 0.44864 0.0
C452 C 0.55901 0.05756 0.44178 0.0
C453 C 0.59178 0.03809 0.43742 0.0
C454 C 0.57134 0.05007 0.43656 0.0
C455 C 0.60014 0.03422 0.4435 0.0
H456 H 0.63237 0.01796 0.44068 0.0
N457 N 0.58214 0.0463 0.45964 0.0
C458 C 0.59524 0.03885 0.45475 0.0
C459 C 0.62687 0.02794 0.46197 0.0
C460 C 0.61768 0.02907 0.45581 0.0
C461 C 0.59116 0.04522 0.46566 0.0
C462 C 0.61339 0.03579 0.46691 0.0
O463 O 0.47532 0.05987 0.45809 0.0
O464 O 0.52144 0.08023 0.46313 0.0
O465 O 0.59471 0.10379 0.4593 0.0
O466 O 0.56727 0.11118 0.45222 0.0
O467 O 0.47024 0.00455 0.45216 0.0
O468 O 0.50865 0.05496 0.44935 0.0
O469 O 0.52672 0.01242 0.45529 0.0
O470 O 0.48836 0.98849 0.463 0.0
O471 O 0.42094 0.96614 0.45735 0.0
O472 O 0.414 0.97617 0.46689 0.0
O473 O 0.53889 0.05984 0.4675 0.0
O474 O 0.49106 0.01317 0.46931 0.0
C475 C 0.49952 0.08439 0.46065 0.0
C476 C 0.48339 0.02698 0.44795 0.0
C477 C 0.62406 0.1432 0.45168 0.0
C478 C 0.67909 0.18731 0.45134 0.0
C479 C 0.65345 0.15778 0.44188 0.0
C480 C 0.62569 0.13853 0.44523 0.0
C481 C 0.67989 0.18207 0.4449 0.0
C482 C 0.65109 0.16763 0.45475 0.0
C483 C 0.59427 0.12345 0.45523 0.0
C484 C 0.63083 0.02149 0.45069 0.0
C485 C 0.62187 0.02376 0.44457 0.0
H486 H 0.64497 0.02187 0.46295 0.0
C487 C 0.5096 0.98863 0.45911 0.0
C488 C 0.51896 0.03626 0.47121 0.0
C489 C 0.39731 0.92326 0.46441 0.0
C490 C 0.36499 0.86571 0.46359 0.0
C491 C 0.40821 0.88965 0.47115 0.0
C492 C 0.41542 0.91976 0.46915 0.0
C493 C 0.38311 0.8628 0.46843 0.0
C494 C 0.37228 0.89623 0.46161 0.0
C495 C 0.40434 0.95506 0.46246 0.0
H496 H 0.6544 0.15403 0.4369 0.0
H497 H 0.60545 0.12025 0.44275 0.0
H498 H 0.7011 0.19688 0.44219 0.0
H499 H 0.65018 0.17161 0.45973 0.0
H500 H 0.42194 0.88711 0.47486 0.0
H501 H 0.43496 0.94033 0.47134 0.0
H502 H 0.37753 0.83974 0.4702 0.0
H503 H 0.35863 0.89903 0.45791 0.0
C504 C 0.4868 0.02357 0.94948 0.0
C505 C 0.4472 0.00902 0.95764 0.0
C506 C 0.47929 0.0239 0.95576 0.0
C507 C 0.42306 0.99305 0.95318 0.0
C508 C 0.46265 0.00782 0.94498 0.0
C509 C 0.43077 0.99247 0.94688 0.0
N510 N 0.51787 0.03775 0.9478 0.0
C511 C 0.52649 0.03796 0.9417 0.0
C512 C 0.4713 0.00772 0.93872 0.0
C513 C 0.50336 0.02296 0.93707 0.0
Gd514 Gd 0.59106 0.01031 0.96318 0.0
Gd515 Gd 0.5552 0.06199 0.95584 0.0
N516 N 0.50324 0.03893 0.96 0.0
C517 C 0.44028 0.01101 0.96393 0.0
C518 C 0.49638 0.04326 0.96601 0.0
C519 C 0.46498 0.0287 0.9681 0.0
H520 H 0.5147 0.0588 0.96919 0.0
H521 H 0.45982 0.0317 0.97291 0.0
H522 H 0.62706 0.99584 0.95119 0.0
H523 H 0.55124 0.04989 0.94039 0.0
H524 H 0.68149 0.01276 0.94771 0.0
H525 H 0.41596 0.9999 0.96556 0.0
H526 H 0.39833 0.98128 0.95456 0.0
H527 H 0.59653 0.02975 0.97839 0.0
H528 H 0.45344 0.99596 0.93513 0.0
H529 H 0.51028 0.02313 0.93224 0.0
H530 H 0.74673 0.07579 0.96476 0.0
H531 H 0.41188 0.98012 0.94349 0.0
H532 H 0.6948 0.08432 0.98314 0.0
H533 H 0.63846 0.06275 0.98598 0.0
N534 N 0.62877 0.03677 0.97105 0.0
C535 C 0.65952 0.0476 0.96944 0.0
C536 C 0.62097 0.0407 0.97699 0.0
C537 C 0.67648 0.07081 0.97972 0.0
C538 C 0.64469 0.05859 0.98135 0.0
C539 C 0.68423 0.0649 0.97374 0.0
H540 H 0.73501 0.08884 0.97521 0.0
N541 N 0.64171 0.02444 0.9594 0.0
C542 C 0.66615 0.04133 0.96344 0.0
C543 C 0.70323 0.04138 0.9559 0.0
C544 C 0.69766 0.05083 0.96174 0.0
C545 C 0.64674 0.01262 0.954 0.0
C546 C 0.67758 0.02155 0.95209 0.0
O547 O 0.53039 0.00924 0.9539 0.0
O548 O 0.53804 0.99064 0.96314 0.0
O549 O 0.58282 0.96301 0.96068 0.0
O550 O 0.58764 0.97804 0.9705 0.0
O551 O 0.56545 0.06585 0.96657 0.0
O552 O 0.55539 0.01565 0.96888 0.0
O553 O 0.62001 0.06471 0.96413 0.0
O554 O 0.60757 0.08186 0.95516 0.0
O555 O 0.55622 0.10629 0.95891 0.0
O556 O 0.55795 0.096 0.94905 0.0
O557 O 0.58406 0.00681 0.95259 0.0
O558 O 0.58803 0.05408 0.94912 0.0
C559 C 0.52083 0.98708 0.95817 0.0
C560 C 0.55846 0.04274 0.97067 0.0
C561 C 0.57799 0.92473 0.96874 0.0
C562 C 0.5649 0.87005 0.96683 0.0
C563 C 0.57269 0.89026 0.97747 0.0
C564 C 0.57879 0.91963 0.97522 0.0
C565 C 0.56567 0.86558 0.97332 0.0
C566 C 0.5712 0.89976 0.96452 0.0
C567 C 0.58267 0.95561 0.96657 0.0
C568 C 0.72239 0.06832 0.96599 0.0
C569 C 0.71572 0.07556 0.97196 0.0
H570 H 0.72708 0.04811 0.95443 0.0
C571 C 0.62673 0.08669 0.95984 0.0
C572 C 0.59043 0.02827 0.9482 0.0
C573 C 0.5585 0.14531 0.95102 0.0
C574 C 0.55425 0.19329 0.95257 0.0
C575 C 0.56579 0.1804 0.94224 0.0
C576 C 0.56486 0.15339 0.94464 0.0
C577 C 0.56057 0.20014 0.94615 0.0
C578 C 0.55294 0.16545 0.95503 0.0
C579 C 0.55696 0.11523 0.95313 0.0
H580 H 0.57323 0.88657 0.98247 0.0
H581 H 0.5838 0.93827 0.97857 0.0
H582 H 0.56087 0.84285 0.97516 0.0
H583 H 0.57027 0.90314 0.95952 0.0
H584 H 0.57058 0.18608 0.93731 0.0
H585 H 0.56909 0.13869 0.94142 0.0
H586 H 0.56138 0.22099 0.94414 0.0
H587 H 0.54783 0.15971 0.95996 0.0
C588 C 0.04652 0.4979 0.94827 0.0
C589 C 0.06025 0.46875 0.95567 0.0
C590 C 0.04969 0.49042 0.95445 0.0
C591 C 0.0673 0.45472 0.95065 0.0
C592 C 0.05513 0.48493 0.94324 0.0
C593 C 0.06548 0.46327 0.94447 0.0
N594 N 0.03486 0.51768 0.94717 0.0
C595 C 0.03135 0.52551 0.94118 0.0
C596 C 0.05234 0.49348 0.9371 0.0
C597 C 0.04048 0.51393 0.93608 0.0
Gd598 Gd 0.06965 0.62215 0.96238 0.0
Gd599 Gd 0.0177 0.53288 0.95608 0.0
N600 N 0.04178 0.50369 0.95925 0.0
C601 C 0.06247 0.461 0.9619 0.0
C602 C 0.0427 0.49511 0.96531 0.0
C603 C 0.05375 0.47432 0.96673 0.0
H604 H 0.03366 0.50284 0.96909 0.0
H605 H 0.05451 0.46774 0.97156 0.0
H606 H 0.06188 0.65648 0.94931 0.0
H607 H 0.02059 0.53984 0.94029 0.0
H608 H 0.03667 0.68715 0.9461 0.0
H609 H 0.07013 0.44419 0.96302 0.0
H610 H 0.07346 0.43664 0.95149 0.0
H611 H 0.06439 0.6165 0.97806 0.0
H612 H 0.05884 0.48408 0.93313 0.0
H613 H 0.0377 0.52022 0.93134 0.0
H614 H 0.99801 0.70584 0.9654 0.0
H615 H 0.07144 0.45243 0.94066 0.0
H616 H 0.01519 0.6635 0.98434 0.0
H617 H 0.04128 0.63216 0.98667 0.0
N618 N 0.04919 0.6362 0.97092 0.0
C619 C 0.03598 0.65435 0.96954 0.0
C620 C 0.0518 0.62879 0.97698 0.0
C621 C 0.02475 0.65608 0.98054 0.0
C622 C 0.0393 0.63826 0.98187 0.0
C623 C 0.0232 0.66462 0.97432 0.0
H624 H 0.99942 0.69111 0.97638 0.0
N625 N 0.0465 0.65129 0.95875 0.0
C626 C 0.03484 0.66232 0.9633 0.0
C627 C 0.02125 0.68943 0.95546 0.0
C628 C 0.02144 0.68129 0.96175 0.0
C629 C 0.04866 0.6613 0.95271 0.0
C630 C 0.03535 0.67977 0.95093 0.0
O631 O 0.07075 0.55643 0.95477 0.0
O632 O 0.09284 0.59169 0.96296 0.0
O633 O 0.11127 0.66266 0.95834 0.0
O634 O 0.10511 0.65837 0.96839 0.0
O635 O 0.01816 0.54166 0.96682 0.0
O636 O 0.06739 0.58507 0.96887 0.0
O637 O 0.01543 0.59673 0.96358 0.0
O638 O 0.99691 0.56428 0.955 0.0
O639 O 0.97447 0.49486 0.96051 0.0
O640 O 0.98243 0.4936 0.9506 0.0
O641 O 0.07406 0.61266 0.95217 0.0
O642 O 0.02478 0.57233 0.94911 0.0
C643 C 0.09399 0.57267 0.95871 0.0
C644 C 0.04172 0.55939 0.97074 0.0
C645 C 0.15723 0.68178 0.96455 0.0
C646 C 0.21362 0.71797 0.96286 0.0
C647 C 0.19581 0.6675 0.96811 0.0
C648 C 0.16439 0.66031 0.96749 0.0
C649 C 0.22031 0.6961 0.96579 0.0
C650 C 0.18195 0.71079 0.96228 0.0
C651 C 0.12408 0.67391 0.96378 0.0
C652 C 0.0086 0.69144 0.96651 0.0
C653 C 0.00941 0.68306 0.97277 0.0
H654 H 0.01107 0.70385 0.95407 0.0
C655 C 0.99224 0.57852 0.95972 0.0
C656 C 0.05224 0.59831 0.94784 0.0
C657 C 0.9296 0.46031 0.95406 0.0
C658 C 0.87953 0.40929 0.95412 0.0
C659 C 0.88361 0.45478 0.94849 0.0
C660 C 0.9154 0.47304 0.9502 0.0
C661 C 0.86586 0.42321 0.95041 0.0
C662 C 0.91146 0.4283 0.95605 0.0
C663 C 0.96412 0.47871 0.95532 0.0
H664 H 0.20118 0.65087 0.9704 0.0
H665 H 0.14569 0.63804 0.96933 0.0
H666 H 0.24459 0.70134 0.96634 0.0
H667 H 0.17656 0.72745 0.96 0.0
H668 H 0.87283 0.46493 0.94555 0.0
H669 H 0.92908 0.49701 0.9484 0.0
H670 H 0.84135 0.40947 0.94892 0.0
H671 H 0.92256 0.41786 0.95883 0.0
C672 C 0.58781 0.58924 0.94865 0.0
C673 C 0.61622 0.63199 0.9561 0.0
C674 C 0.59596 0.59947 0.95483 0.0
C675 C 0.62794 0.6539 0.95113 0.0
C676 C 0.59981 0.61118 0.94366 0.0
C677 C 0.61983 0.64352 0.94494 0.0
N678 N 0.56749 0.55797 0.94754 0.0
C679 C 0.55985 0.54675 0.94155 0.0
C680 C 0.5912 0.59998 0.93751 0.0
C681 C 0.57132 0.5676 0.93646 0.0
Gd682 Gd 0.46141 0.49122 0.96243 0.0
Gd683 Gd 0.55128 0.52473 0.9563 0.0
N684 N 0.58397 0.57775 0.95957 0.0
C685 C 0.62432 0.64162 0.96232 0.0
C686 C 0.59272 0.5871 0.96564 0.0
C687 C 0.61256 0.6191 0.9671 0.0
H688 H 0.58546 0.57028 0.96941 0.0
H689 H 0.61923 0.62632 0.97193 0.0
H690 H 0.42287 0.44484 0.95028 0.0
H691 H 0.5454 0.52167 0.94066 0.0
H692 H 0.38727 0.38805 0.94803 0.0
H693 H 0.64019 0.66628 0.96346 0.0
H694 H 0.64341 0.67895 0.95204 0.0
H695 H 0.46279 0.49841 0.97812 0.0
H696 H 0.6 0.61609 0.93355 0.0
H697 H 0.56502 0.55863 0.93172 0.0
H698 H 0.36925 0.33828 0.96824 0.0
H699 H 0.62916 0.66072 0.94116 0.0
H700 H 0.41288 0.40576 0.98614 0.0
H701 H 0.44457 0.46416 0.98739 0.0
N702 N 0.44524 0.46033 0.97161 0.0
C703 C 0.4262 0.42857 0.97081 0.0
C704 C 0.45097 0.47313 0.97748 0.0
C705 C 0.42199 0.42082 0.98204 0.0
C706 C 0.43993 0.45366 0.98277 0.0
C707 C 0.41444 0.40788 0.976 0.0
H708 H 0.38542 0.35895 0.97895 0.0
N709 N 0.42715 0.43774 0.95995 0.0
C710 C 0.41658 0.41695 0.96481 0.0
C711 C 0.38559 0.37382 0.95766 0.0
C712 C 0.39564 0.38434 0.96379 0.0
C713 C 0.41597 0.42791 0.95402 0.0
C714 C 0.39554 0.39579 0.95276 0.0
O715 O 0.52873 0.55486 0.95453 0.0
O716 O 0.4984 0.5431 0.96333 0.0
O717 O 0.42518 0.49728 0.95762 0.0
O718 O 0.43042 0.50216 0.9677 0.0
O719 O 0.54526 0.51838 0.96714 0.0
O720 O 0.49964 0.52043 0.96946 0.0
O721 O 0.47633 0.45511 0.95949 0.0
O722 O 0.52774 0.48225 0.96254 0.0
O723 O 0.60076 0.53556 0.95742 0.0
O724 O 0.56903 0.50031 0.9506 0.0
O725 O 0.47287 0.50682 0.95243 0.0
O726 O 0.51003 0.49378 0.94933 0.0
C727 C 0.51346 0.5622 0.95864 0.0
C728 C 0.52627 0.52181 0.97119 0.0
C729 C 0.38035 0.48754 0.9637 0.0
C730 C 0.33409 0.49401 0.96374 0.0
C731 C 0.33185 0.4481 0.96873 0.0
C732 C 0.36335 0.45898 0.96703 0.0
C733 C 0.31733 0.46571 0.96716 0.0
C734 C 0.36548 0.50464 0.96195 0.0
C735 C 0.41458 0.50242 0.96283 0.0
C736 C 0.38513 0.36345 0.96893 0.0
C737 C 0.39444 0.37521 0.97502 0.0
H738 H 0.36961 0.34894 0.95669 0.0
C739 C 0.50309 0.45579 0.96079 0.0
C740 C 0.48404 0.49564 0.94818 0.0
C741 C 0.62314 0.50997 0.95081 0.0
C742 C 0.67528 0.51387 0.95186 0.0
C743 C 0.6427 0.48933 0.94264 0.0
C744 C 0.61922 0.49477 0.94501 0.0
C745 C 0.67039 0.49865 0.94603 0.0
C746 C 0.65165 0.52002 0.95422 0.0
C747 C 0.59749 0.51576 0.95299 0.0
H748 H 0.31888 0.42631 0.97138 0.0
H749 H 0.3747 0.44574 0.96849 0.0
H750 H 0.29304 0.45724 0.96859 0.0
H751 H 0.37876 0.52698 0.95946 0.0
H752 H 0.63942 0.47779 0.93814 0.0
H753 H 0.59799 0.48729 0.94223 0.0
H754 H 0.68826 0.49409 0.94407 0.0
H755 H 0.65519 0.5319 0.95869 0.0
C756 C 0.04054 0.48931 0.5614 0.0
C757 C 0.02817 0.44784 0.55375 0.0
C758 C 0.03887 0.47991 0.55518 0.0
C759 C 0.01952 0.42562 0.55861 0.0
C760 C 0.03122 0.4669 0.56629 0.0
C761 C 0.02106 0.43512 0.56487 0.0
N762 N 0.05083 0.52031 0.56265 0.0
C763 C 0.05232 0.53051 0.56867 0.0
C764 C 0.0325 0.47714 0.57247 0.0
C765 C 0.04303 0.50908 0.57366 0.0
Gd766 Gd 0.01027 0.58231 0.54624 0.0
Gd767 Gd 0.06772 0.55467 0.55403 0.0
N768 N 0.0478 0.5021 0.55055 0.0
C769 C 0.02706 0.43912 0.54746 0.0
C770 C 0.04866 0.49391 0.54446 0.0
C771 C 0.03758 0.46231 0.54281 0.0
H772 H 0.05893 0.51152 0.54086 0.0
H773 H 0.03794 0.45601 0.53795 0.0
H774 H 0.02689 0.63291 0.55839 0.0
H775 H 0.06134 0.55531 0.56965 0.0
H776 H 0.04844 0.68986 0.56006 0.0
H777 H 0.0189 0.41471 0.54618 0.0
H778 H 0.01183 0.40104 0.55758 0.0
H779 H 0.00705 0.57167 0.53071 0.0
H780 H 0.02548 0.4606 0.57635 0.0
H781 H 0.04432 0.51727 0.57843 0.0
H782 H 0.06615 0.73317 0.53927 0.0
H783 H 0.01441 0.41772 0.56858 0.0
H784 H 0.04232 0.66226 0.52193 0.0
H785 H 0.02186 0.60474 0.52115 0.0
N786 N 0.02157 0.61084 0.53687 0.0
C787 C 0.03293 0.64252 0.53744 0.0
C788 C 0.0169 0.597 0.53112 0.0
C789 C 0.03645 0.64807 0.52616 0.0
C790 C 0.0247 0.6155 0.52569 0.0
C791 C 0.04062 0.662 0.53208 0.0
H792 H 0.05852 0.71 0.52873 0.0
N793 N 0.03054 0.63632 0.54848 0.0
C794 C 0.03728 0.65561 0.5434 0.0
C795 C 0.05368 0.70087 0.5502 0.0
C796 C 0.04935 0.68846 0.54413 0.0
C797 C 0.03375 0.64818 0.55439 0.0
C798 C 0.04567 0.68059 0.55535 0.0
O799 O 0.01496 0.52238 0.55542 0.0
O800 O 0.99779 0.53089 0.54609 0.0
O801 O 0.9668 0.57608 0.55048 0.0
O802 O 0.96849 0.56777 0.54054 0.0
O803 O 0.07279 0.56576 0.5433 0.0
O804 O 0.02176 0.55099 0.54051 0.0
O805 O 0.06402 0.61768 0.54557 0.0
O806 O 0.0802 0.60532 0.55459 0.0
O807 O 0.11206 0.55773 0.55058 0.0
O808 O 0.10617 0.56529 0.56045 0.0
O809 O 0.00532 0.57304 0.5567 0.0
O810 O 0.05363 0.58301 0.56075 0.0
C811 C 0.99295 0.51369 0.55113 0.0
C812 C 0.05078 0.559 0.53894 0.0
C813 C 0.93124 0.58227 0.54384 0.0
C814 C 0.8803 0.57973 0.54501 0.0
C815 C 0.9208 0.6195 0.53824 0.0
C816 C 0.9412 0.60806 0.53972 0.0
C817 C 0.8905 0.60546 0.54088 0.0
C818 C 0.9007 0.56811 0.54648 0.0
C819 C 0.9515 0.5686 0.54517 0.0
C820 C 0.05685 0.70788 0.5388 0.0
C821 C 0.0525 0.69469 0.53279 0.0
H822 H 0.06294 0.72599 0.55095 0.0
C823 C 0.0865 0.6235 0.54969 0.0
C824 C 0.02541 0.58095 0.5614 0.0
C825 C 0.15638 0.56907 0.55777 0.0
C826 C 0.20234 0.56178 0.55614 0.0
C827 C 0.20095 0.59238 0.565 0.0
C828 C 0.17125 0.58702 0.56315 0.0
C829 C 0.21639 0.57993 0.56153 0.0
C830 C 0.17212 0.55633 0.55422 0.0
C831 C 0.12408 0.56312 0.5562 0.0
H832 H 0.92844 0.63921 0.53503 0.0
H833 H 0.96451 0.61907 0.5376 0.0
H834 H 0.87491 0.61457 0.53968 0.0
H835 H 0.89279 0.54805 0.54963 0.0
H836 H 0.21204 0.60621 0.56917 0.0
H837 H 0.15984 0.59698 0.56597 0.0
H838 H 0.23944 0.58433 0.56309 0.0
H839 H 0.16094 0.54217 0.55009 0.0
C840 C 0.58767 0.58834 0.56087 0.0
C841 C 0.62912 0.61892 0.55331 0.0
C842 C 0.59731 0.59633 0.55467 0.0
C843 C 0.65122 0.63232 0.55821 0.0
C844 C 0.60975 0.60181 0.56581 0.0
C845 C 0.64159 0.62368 0.56444 0.0
N846 N 0.55677 0.56691 0.56206 0.0
C847 C 0.54619 0.55827 0.56806 0.0
C848 C 0.59916 0.59278 0.57197 0.0
C849 C 0.56723 0.57095 0.5731 0.0
Gd850 Gd 0.49718 0.46199 0.54603 0.0
Gd851 Gd 0.52306 0.54832 0.55336 0.0
N852 N 0.57551 0.58246 0.55 0.0
C853 C 0.63764 0.628 0.54707 0.0
C854 C 0.58368 0.59216 0.54393 0.0
C855 C 0.61488 0.61454 0.54237 0.0
H856 H 0.56623 0.58424 0.54029 0.0
H857 H 0.62111 0.62216 0.53755 0.0
H858 H 0.45121 0.414 0.55748 0.0
H859 H 0.52141 0.54206 0.56899 0.0
H860 H 0.39411 0.37811 0.55954 0.0
H861 H 0.66139 0.64627 0.54587 0.0
H862 H 0.67579 0.64955 0.55724 0.0
H863 H 0.50587 0.47104 0.53044 0.0
H864 H 0.61539 0.6026 0.57589 0.0
H865 H 0.55877 0.56407 0.57786 0.0
H866 H 0.3448 0.37194 0.53963 0.0
H867 H 0.65891 0.63423 0.56817 0.0
H868 H 0.41333 0.42524 0.52216 0.0
H869 H 0.47168 0.45825 0.52108 0.0
N870 N 0.46729 0.44706 0.53674 0.0
C871 C 0.4355 0.42757 0.53739 0.0
C872 C 0.48045 0.45724 0.53096 0.0
C873 C 0.42824 0.43098 0.52628 0.0
C874 C 0.46115 0.44967 0.52565 0.0
C875 C 0.41503 0.41932 0.53219 0.0
H876 H 0.36599 0.39338 0.52915 0.0
N877 N 0.44408 0.42468 0.54821 0.0
C878 C 0.42353 0.41592 0.54331 0.0
C879 C 0.38004 0.38212 0.55014 0.0
C880 C 0.39081 0.39506 0.54417 0.0
C881 C 0.43419 0.41009 0.55387 0.0
C882 C 0.40196 0.3891 0.55498 0.0
O883 O 0.55584 0.52878 0.55542 0.0
O884 O 0.54796 0.50142 0.54639 0.0
O885 O 0.50641 0.42593 0.5499 0.0
O886 O 0.51229 0.43659 0.53996 0.0
O887 O 0.51373 0.54081 0.54261 0.0
O888 O 0.53023 0.50524 0.5405 0.0
O889 O 0.46249 0.48075 0.54491 0.0
O890 O 0.4723 0.5104 0.55377 0.0
O891 O 0.52027 0.58896 0.54973 0.0
O892 O 0.50784 0.57434 0.55932 0.0
O893 O 0.50136 0.46524 0.55669 0.0
O894 O 0.49387 0.50659 0.5601 0.0
C895 C 0.56419 0.51344 0.55153 0.0
C896 C 0.52275 0.52616 0.53855 0.0
C897 C 0.50131 0.38547 0.54299 0.0
C898 C 0.50702 0.33884 0.54404 0.0
C899 C 0.46909 0.33882 0.53665 0.0
C900 C 0.47773 0.3697 0.53842 0.0
C901 C 0.48376 0.32348 0.53942 0.0
C902 C 0.51569 0.36982 0.54584 0.0
C903 C 0.51333 0.41901 0.54444 0.0
C904 C 0.37011 0.38751 0.53905 0.0
C905 C 0.38219 0.39968 0.53307 0.0
H906 H 0.35508 0.36594 0.55101 0.0
C907 C 0.45499 0.49667 0.54887 0.0
C908 C 0.49447 0.4799 0.56109 0.0
C909 C 0.53142 0.62946 0.55725 0.0
C910 C 0.54318 0.68459 0.55668 0.0
C911 C 0.56836 0.6688 0.56461 0.0
C912 C 0.55223 0.63776 0.56238 0.0
C913 C 0.56377 0.69204 0.56181 0.0
C914 C 0.52714 0.65323 0.55436 0.0
C915 C 0.51306 0.5959 0.55515 0.0
H916 H 0.45119 0.32685 0.53307 0.0
H917 H 0.46645 0.38143 0.53615 0.0
H918 H 0.47696 0.29958 0.53797 0.0
H919 H 0.53405 0.38192 0.54934 0.0
H920 H 0.5842 0.67479 0.56858 0.0
H921 H 0.55569 0.62022 0.56478 0.0
H922 H 0.57627 0.71597 0.56366 0.0
H923 H 0.51096 0.64724 0.55043 0.0
C924 C 0.49461 0.03649 0.56133 0.0
C925 C 0.46406 0.04826 0.55393 0.0
C926 C 0.48648 0.03867 0.55519 0.0
C927 C 0.45093 0.05676 0.55891 0.0
C928 C 0.48128 0.04474 0.56635 0.0
C929 C 0.45967 0.05519 0.5651 0.0
N930 N 0.51544 0.02613 0.56241 0.0
C931 C 0.52327 0.0226 0.56838 0.0
C932 C 0.48984 0.04195 0.57249 0.0
C933 C 0.51081 0.03068 0.5735 0.0
Gd934 Gd 0.62289 0.06734 0.54638 0.0
Gd935 Gd 0.53448 0.01244 0.55355 0.0
N936 N 0.49998 0.03078 0.55045 0.0
C937 C 0.45487 0.04823 0.54772 0.0
C938 C 0.49032 0.02992 0.5444 0.0
C939 C 0.46808 0.03907 0.54294 0.0
H940 H 0.49837 0.0209 0.54068 0.0
H941 H 0.46049 0.03822 0.53813 0.0
H942 H 0.65785 0.05967 0.55945 0.0
H943 H 0.53856 0.01288 0.56924 0.0
H944 H 0.688 0.03414 0.56263 0.0
H945 H 0.4368 0.0541 0.54658 0.0
H946 H 0.43376 0.06426 0.55803 0.0
H947 H 0.61575 0.06021 0.53081 0.0
H948 H 0.48009 0.04803 0.57647 0.0
H949 H 0.51712 0.02789 0.57823 0.0
H950 H 0.70112 0.98976 0.54357 0.0
H951 H 0.44922 0.06168 0.5689 0.0
H952 H 0.65972 0.00789 0.52459 0.0
H953 H 0.62971 0.03534 0.52223 0.0
N954 N 0.63569 0.04529 0.53792 0.0
C955 C 0.6531 0.03128 0.53932 0.0
C956 C 0.62776 0.04734 0.53188 0.0
C957 C 0.65327 0.01845 0.52837 0.0
C958 C 0.63617 0.03376 0.52702 0.0
C959 C 0.66208 0.01717 0.53458 0.0
H960 H 0.68631 0.99103 0.53259 0.0
N961 N 0.6513 0.04331 0.55007 0.0
C962 C 0.66094 0.03008 0.54556 0.0
C963 C 0.6876 0.01601 0.5534 0.0
C964 C 0.67871 0.01542 0.54714 0.0
C965 C 0.6618 0.0458 0.55608 0.0
C966 C 0.67967 0.03187 0.55786 0.0
O967 O 0.55358 0.06502 0.55461 0.0
O968 O 0.59127 0.08954 0.54673 0.0
O969 O 0.66596 0.10898 0.54967 0.0
O970 O 0.65511 0.10262 0.53978 0.0
O971 O 0.54232 0.01326 0.54275 0.0
O972 O 0.58319 0.06382 0.54059 0.0
O973 O 0.59692 0.0136 0.54485 0.0
O974 O 0.57321 1.00113 0.55423 0.0
O975 O 0.49464 0.9692 0.54955 0.0
O976 O 0.50802 0.96998 0.55917 0.0
O977 O 0.61626 0.07413 0.55663 0.0
O978 O 0.57569 0.02674 0.56059 0.0
C979 C 0.57104 0.08927 0.55093 0.0
C980 C 0.55815 0.03743 0.53881 0.0
C981 C 0.68031 0.15492 0.54367 0.0
C982 C 0.71443 0.21107 0.546 0.0
C983 C 0.66447 0.19307 0.54058 0.0
C984 C 0.65867 0.16198 0.54076 0.0
C985 C 0.69212 0.21751 0.54322 0.0
C986 C 0.70847 0.17968 0.54622 0.0
C987 C 0.67338 0.12185 0.54411 0.0
C988 C 0.68759 1.00124 0.54243 0.0
C989 C 0.67925 1.00207 0.53617 0.0
H990 H 0.70151 0.00528 0.55481 0.0
C991 C 0.58192 0.99245 0.54923 0.0
C992 C 0.602 0.05467 0.56135 0.0
C993 C 0.4531 0.93788 0.55688 0.0
C994 C 0.3977 0.89448 0.55605 0.0
C995 C 0.41355 0.93279 0.56451 0.0
C996 C 0.44457 0.94865 0.56226 0.0
C997 C 0.39034 0.90593 0.56145 0.0
C998 C 0.42929 0.91056 0.55374 0.0
C999 C 0.48705 0.95408 0.55487 0.0
H1000 H 0.64758 0.19826 0.53836 0.0
H1001 H 0.63733 0.14342 0.5386 0.0
H1002 H 0.69649 0.24161 0.54296 0.0
H1003 H 0.72558 0.17458 0.54839 0.0
H1004 H 0.40752 0.94127 0.56869 0.0
H1005 H 0.46197 0.96909 0.56483 0.0
H1006 H 0.3664 0.89394 0.56331 0.0
H1007 H 0.43531 0.90187 0.54959 0.0
C1008 C 0.08977 0.36888 0.37308 0.0
C1009 C 0.04891 0.35894 0.3807 0.0
C1010 C 0.0811 0.37079 0.3792 0.0
C1011 C 0.02563 0.34397 0.37605 0.0
C1012 C 0.06664 0.35469 0.36835 0.0
C1013 C 0.03447 0.34185 0.36989 0.0
N1014 N 0.12103 0.38082 0.37177 0.0
C1015 C 0.13104 0.38197 0.36577 0.0
C1016 C 0.07666 0.35425 0.36221 0.0
C1017 C 0.10908 0.36846 0.36092 0.0
Gd1018 Gd 0.18645 0.34314 0.3868 0.0
Gd1019 Gd 0.15631 0.40268 0.38017 0.0
N1020 N 0.10423 0.38534 0.38361 0.0
C1021 C 0.04117 0.36337 0.3868 0.0
C1022 C 0.09699 0.39227 0.38936 0.0
C1023 C 0.06539 0.38069 0.3911 0.0
H1024 H 0.11548 0.40759 0.39254 0.0
H1025 H 0.05978 0.38568 0.39573 0.0
H1026 H 0.23012 0.34939 0.37416 0.0
H1027 H 0.15596 0.39399 0.36471 0.0
H1028 H 0.28486 0.36307 0.37168 0.0
H1029 H 0.01673 0.35467 0.38815 0.0
H1030 H 1.00076 0.33453 0.37713 0.0
H1031 H 0.1828 0.34558 0.4027 0.0
H1032 H 0.05968 0.34374 0.35842 0.0
H1033 H 0.11739 0.36953 0.35619 0.0
H1034 H 0.33591 0.38294 0.39174 0.0
H1035 H 0.0163 0.33069 0.36632 0.0
H1036 H 0.27484 0.37436 0.41 0.0
H1037 H 0.21876 0.35919 0.41166 0.0
N1038 N 0.21869 0.35626 0.39582 0.0
C1039 C 0.24913 0.36323 0.39484 0.0
C1040 C 0.20751 0.35388 0.4018 0.0
C1041 C 0.25932 0.36924 0.40599 0.0
C1042 C 0.22773 0.36085 0.40694 0.0
C1043 C 0.2703 0.3701 0.39989 0.0
H1044 H 0.31815 0.38263 0.40255 0.0
N1045 N 0.23836 0.35686 0.38398 0.0
C1046 C 0.25908 0.36297 0.38876 0.0
C1047 C 0.29986 0.37047 0.38134 0.0
C1048 C 0.2905 0.37013 0.38756 0.0
C1049 C 0.24702 0.35597 0.37792 0.0
C1050 C 0.27798 0.36328 0.3765 0.0
O1051 O 0.12627 0.34892 0.37845 0.0
O1052 O 0.13761 0.3355 0.38769 0.0
O1053 O 0.18104 0.29907 0.38273 0.0
O1054 O 0.16766 0.30005 0.39227 0.0
O1055 O 0.16322 0.40586 0.39067 0.0
O1056 O 0.16279 0.36004 0.39414 0.0
O1057 O 0.22557 0.39324 0.3848 0.0
O1058 O 0.2031 0.42548 0.38549 0.0
O1059 O 0.15158 0.4444 0.38169 0.0
O1060 O 0.17523 0.44066 0.37324 0.0
O1061 O 0.17734 0.34382 0.37615 0.0
O1062 O 0.19206 0.39621 0.37467 0.0
C1063 C 0.1193 0.32756 0.38283 0.0
C1064 C 0.16096 0.38612 0.39514 0.0
C1065 C 0.19076 0.26812 0.39031 0.0
C1066 C 0.20523 0.22655 0.38946 0.0
C1067 C 0.22064 0.26046 0.39864 0.0
C1068 C 0.20612 0.27653 0.39618 0.0
C1069 C 0.22007 0.23558 0.39533 0.0
C1070 C 0.19079 0.24312 0.3869 0.0
C1071 C 0.17311 0.28409 0.38807 0.0
C1072 C 0.31167 0.37728 0.39257 0.0
C1073 C 0.30158 0.37722 0.39873 0.0
H1074 H 0.32385 0.37613 0.38022 0.0
C1075 C 0.22785 0.42121 0.38545 0.0
C1076 C 0.18743 0.36909 0.37245 0.0
C1077 C 0.17219 0.48877 0.37442 0.0
C1078 C 0.18551 0.54313 0.37667 0.0
C1079 C 0.18329 0.52593 0.3659 0.0
C1080 C 0.1752 0.49568 0.36798 0.0
C1081 C 0.18875 0.54961 0.37021 0.0
C1082 C 0.17681 0.51249 0.37878 0.0
C1083 C 0.16643 0.45754 0.37651 0.0
H1084 H 0.23205 0.26709 0.40318 0.0
H1085 H 0.20651 0.29522 0.39898 0.0
H1086 H 0.23113 0.22312 0.39738 0.0
H1087 H 0.17919 0.23619 0.38238 0.0
H1088 H 0.18575 0.53115 0.36093 0.0
H1089 H 0.17161 0.47774 0.36456 0.0
H1090 H 0.19557 0.57311 0.36851 0.0
H1091 H 0.17472 0.50752 0.38377 0.0
C1092 C 0.71407 0.75964 0.37357 0.0
C1093 C 0.72862 0.73073 0.38088 0.0
C1094 C 0.71441 0.74921 0.37961 0.0
C1095 C 0.74403 0.72427 0.37602 0.0
C1096 C 0.72786 0.75158 0.36861 0.0
C1097 C 0.74372 0.73474 0.3699 0.0
N1098 N 0.69791 0.77526 0.37247 0.0
C1099 C 0.69075 0.77914 0.36648 0.0
C1100 C 0.72385 0.75927 0.36248 0.0
C1101 C 0.70444 0.77235 0.36142 0.0
Gd1102 Gd 0.73504 0.88059 0.38602 0.0
Gd1103 Gd 0.67793 0.78765 0.3814 0.0
N1104 N 0.70008 0.75661 0.38425 0.0
C1105 C 0.72652 0.71906 0.38698 0.0
C1106 C 0.69581 0.74341 0.39006 0.0
C1107 C 0.70957 0.72499 0.39156 0.0
H1108 H 0.68164 0.7471 0.39348 0.0
H1109 H 0.70687 0.71518 0.39623 0.0
H1110 H 0.72761 0.91663 0.37308 0.0
H1111 H 0.67348 0.78622 0.36556 0.0
H1112 H 0.71185 0.95595 0.3705 0.0
H1113 H 0.73717 0.70479 0.38815 0.0
H1114 H 0.75556 0.71053 0.37691 0.0
H1115 H 0.72996 0.87366 0.40194 0.0
H1116 H 0.734 0.75348 0.35853 0.0
H1117 H 0.69905 0.77643 0.35673 0.0
H1118 H 0.68533 0.98292 0.39032 0.0
H1119 H 0.75481 0.7287 0.36616 0.0
H1120 H 0.69396 0.93171 0.40875 0.0
H1121 H 0.71228 0.89342 0.41067 0.0
N1122 N 0.71851 0.89744 0.39487 0.0
C1123 C 0.70995 0.91967 0.39374 0.0
C1124 C 0.72026 0.88872 0.40089 0.0
C1125 C 0.70089 0.92237 0.40482 0.0
C1126 C 0.71101 0.90061 0.40592 0.0
C1127 C 0.70066 0.9325 0.39869 0.0
H1128 H 0.68447 0.96524 0.40115 0.0
N1129 N 0.71873 0.91643 0.38287 0.0
C1130 C 0.71051 0.92973 0.3876 0.0
C1131 C 0.70212 0.9621 0.38009 0.0
C1132 C 0.70174 0.95278 0.38631 0.0
C1133 C 0.71966 0.92588 0.3768 0.0
C1134 C 0.71117 0.94863 0.37532 0.0
O1135 O 0.72853 0.80514 0.38481 0.0
O1136 O 0.74928 0.8523 0.38003 0.0
O1137 O 0.7748 0.92602 0.3831 0.0
O1138 O 0.77972 0.90232 0.3912 0.0
O1139 O 0.67562 0.80394 0.39114 0.0
O1140 O 0.72691 0.84216 0.39344 0.0
O1141 O 0.68205 0.86091 0.38712 0.0
O1142 O 0.65696 0.81948 0.37998 0.0
O1143 O 0.6348 0.75491 0.38642 0.0
O1144 O 0.64212 0.74481 0.37691 0.0
O1145 O 0.73004 0.86991 0.37539 0.0
O1146 O 0.68253 0.82258 0.37381 0.0
C1147 C 0.75338 0.8304 0.38257 0.0
C1148 C 0.69932 0.81715 0.39509 0.0
C1149 C 0.80874 0.95919 0.39108 0.0
C1150 C 0.85067 0.01532 0.3916 0.0
C1151 C 0.81175 0.99162 0.4 0.0
C1152 C 0.79724 0.96257 0.39689 0.0
C1153 C 0.83821 0.0177 0.3974 0.0
C1154 C 0.83541 0.98589 0.38839 0.0
C1155 C 0.79274 0.92813 0.38779 0.0
C1156 C 0.69231 0.96537 0.39124 0.0
C1157 C 0.69174 0.95524 0.3974 0.0
H1158 H 0.69546 0.97965 0.37891 0.0
C1159 C 0.65733 0.84121 0.38372 0.0
C1160 C 0.70635 0.84968 0.37174 0.0
C1161 C 0.59044 0.73084 0.37976 0.0
C1162 C 0.533 0.69818 0.38055 0.0
C1163 C 0.55673 0.74374 0.37353 0.0
C1164 C 0.5869 0.75026 0.37534 0.0
C1165 C 0.52993 0.71782 0.37608 0.0
C1166 C 0.56354 0.70501 0.38238 0.0
C1167 C 0.62214 0.73707 0.38152 0.0
H1168 H 0.80253 0.9939 0.40447 0.0
H1169 H 0.77708 0.94275 0.39907 0.0
H1170 H 0.84896 0.03994 0.39994 0.0
H1171 H 0.8446 0.98359 0.38392 0.0
H1172 H 0.55411 0.75859 0.37008 0.0
H1173 H 0.60745 0.77033 0.37326 0.0
H1174 H 0.50679 0.71276 0.37445 0.0
H1175 H 0.56645 0.69026 0.38582 0.0
C1176 C 0.32097 0.98629 0.37261 0.0
C1177 C 0.35048 0.02758 0.38028 0.0
C1178 C 0.3304 0.99532 0.37879 0.0
C1179 C 0.36032 0.05056 0.37552 0.0
C1180 C 0.33097 0.00925 0.36782 0.0
C1181 C 0.35061 0.04142 0.36931 0.0
N1182 N 0.30134 0.95507 0.37132 0.0
C1183 C 0.29191 0.945 0.36533 0.0
C1184 C 0.32067 0.99919 0.36167 0.0
C1185 C 0.30112 0.96692 0.36043 0.0
Gd1186 Gd 0.19906 0.88929 0.38734 0.0
Gd1187 Gd 0.28623 0.92049 0.37988 0.0
N1188 N 0.32002 0.97258 0.38332 0.0
C1189 C 0.3603 0.03573 0.38651 0.0
C1190 C 0.33183 0.98017 0.38926 0.0
C1191 C 0.35125 0.01185 0.391 0.0
H1192 H 0.32737 0.96194 0.3926 0.0
H1193 H 0.35966 0.01775 0.39577 0.0
H1194 H 0.15913 0.84952 0.37429 0.0
H1195 H 0.2776 0.92 0.36431 0.0
H1196 H 0.11983 0.7952 0.37133 0.0
H1197 H 0.37559 0.06025 0.38786 0.0
H1198 H 0.37561 0.07546 0.37659 0.0
H1199 H 0.21216 0.88674 0.40276 0.0
H1200 H 0.32774 0.01612 0.35786 0.0
H1201 H 0.29311 0.95893 0.3557 0.0
H1202 H 0.09821 0.73607 0.39045 0.0
H1203 H 0.35845 0.05943 0.36569 0.0
H1204 H 0.15441 0.79104 0.40898 0.0
H1205 H 0.19423 0.84694 0.4112 0.0
N1206 N 0.18418 0.85346 0.39572 0.0
C1207 C 0.16172 0.82302 0.39441 0.0
C1208 C 0.19552 0.8623 0.40167 0.0
C1209 C 0.16249 0.80836 0.40522 0.0
C1210 C 0.18507 0.83986 0.40649 0.0
C1211 C 0.15039 0.7996 0.39914 0.0
H1212 H 0.11853 0.74996 0.40123 0.0
N1213 N 0.16326 0.8379 0.38375 0.0
C1214 C 0.15069 0.81512 0.38829 0.0
C1215 C 0.11656 0.77646 0.38062 0.0
C1216 C 0.12735 0.78368 0.38681 0.0
C1217 C 0.15167 0.83121 0.37777 0.0
C1218 C 0.12862 0.80038 0.3761 0.0
O1219 O 0.2642 0.95246 0.37886 0.0
O1220 O 0.23601 0.94044 0.38792 0.0
O1221 O 0.15896 0.89535 0.38423 0.0
O1222 O 0.17024 0.89599 0.39416 0.0
O1223 O 0.28016 0.90899 0.39032 0.0
O1224 O 0.24152 0.91985 0.39381 0.0
O1225 O 0.21891 0.85612 0.38817 0.0
O1226 O 0.25136 0.86813 0.37956 0.0
O1227 O 0.32616 0.91453 0.38311 0.0
O1228 O 0.31421 0.91251 0.37316 0.0
O1229 O 0.20535 0.89937 0.37665 0.0
O1230 O 0.24436 0.88787 0.3739 0.0
C1231 C 0.24768 0.95836 0.38298 0.0
C1232 C 0.267 0.91712 0.39481 0.0
C1233 C 0.12501 0.90239 0.39196 0.0
C1234 C 0.07252 0.8972 0.39058 0.0
C1235 C 0.10312 0.92121 0.40003 0.0
C1236 C 0.12744 0.91668 0.39781 0.0
C1237 C 0.07594 0.91163 0.39645 0.0
C1238 C 0.09719 0.8924 0.38832 0.0
C1239 C 0.15121 0.89695 0.39001 0.0
C1240 C 0.11591 0.76036 0.39152 0.0
C1241 C 0.12748 0.76827 0.39766 0.0
H1242 H 0.09873 0.7526 0.3793 0.0
C1243 C 0.23589 0.84972 0.3843 0.0
C1244 C 0.2207 0.89227 0.37239 0.0
C1245 C 0.3579 0.90411 0.37542 0.0
C1246 C 0.3989 0.89073 0.37773 0.0
C1247 C 0.38355 0.89189 0.36695 0.0
C1248 C 0.36168 0.90038 0.36899 0.0
C1249 C 0.40189 0.88688 0.37129 0.0
C1250 C 0.37696 0.89958 0.37983 0.0
C1251 C 0.3323 0.91024 0.37735 0.0
H1252 H 0.10529 0.93211 0.40456 0.0
H1253 H 0.14827 0.92436 0.40072 0.0
H1254 H 0.05724 0.91523 0.3983 0.0
H1255 H 0.09466 0.88093 0.38383 0.0
H1256 H 0.38603 0.88885 0.362 0.0
H1257 H 0.34729 0.90349 0.36551 0.0
H1258 H 0.41855 0.87994 0.36963 0.0
H1259 H 0.37431 0.90217 0.3848 0.0
C1260 C 0.70205 0.75865 0.80409 0.0
C1261 C 0.68439 0.71558 0.79657 0.0
C1262 C 0.70001 0.74832 0.79791 0.0
C1263 C 0.6713 0.69352 0.80149 0.0
C1264 C 0.68884 0.73652 0.80902 0.0
C1265 C 0.6736 0.70395 0.80769 0.0
N1266 N 0.71607 0.79028 0.80524 0.0
C1267 C 0.71901 0.80143 0.81121 0.0
C1268 C 0.69112 0.74779 0.81516 0.0
C1269 C 0.70641 0.78041 0.81625 0.0
Gd1270 Gd 0.68447 0.8589 0.78939 0.0
Gd1271 Gd 0.73718 0.82315 0.79649 0.0
N1272 N 0.71251 0.77019 0.7932 0.0
C1273 C 0.68215 0.70595 0.79032 0.0
C1274 C 0.71178 0.7609 0.78716 0.0
C1275 C 0.69592 0.72873 0.7856 0.0
H1276 H 0.72385 0.778 0.78353 0.0
H1277 H 0.69476 0.7215 0.78076 0.0
H1278 H 0.68895 0.90129 0.80229 0.0
H1279 H 0.73201 0.82652 0.81211 0.0
H1280 H 0.70708 0.95662 0.80506 0.0
H1281 H 0.67015 0.68103 0.7891 0.0
H1282 H 0.65925 0.66829 0.80054 0.0
H1283 H 0.69121 0.85778 0.77364 0.0
H1284 H 0.68132 0.73152 0.81908 0.0
H1285 H 0.70877 0.78939 0.82099 0.0
H1286 H 0.74281 0.01282 0.78557 0.0
H1287 H 0.6633 0.6866 0.81143 0.0
H1288 H 0.73255 0.95315 0.76701 0.0
H1289 H 0.71147 0.8961 0.76494 0.0
N1290 N 0.70263 0.89291 0.78068 0.0
C1291 C 0.71327 0.9241 0.7819 0.0
C1292 C 0.70136 0.88267 0.77466 0.0
C1293 C 0.72415 0.93648 0.77088 0.0
C1294 C 0.71238 0.90431 0.76969 0.0
C1295 C 0.72444 0.94673 0.77702 0.0
H1296 H 0.7441 0.99644 0.77472 0.0
N1297 N 0.70315 0.91132 0.79272 0.0
C1298 C 0.71302 0.93348 0.78806 0.0
C1299 C 0.72152 0.97391 0.79564 0.0
C1300 C 0.72321 0.96551 0.78944 0.0
C1301 C 0.69981 0.91913 0.79871 0.0
C1302 C 0.70938 0.95054 0.80028 0.0
O1303 O 0.68277 0.79552 0.79741 0.0
O1304 O 0.66833 0.80757 0.78814 0.0
O1305 O 0.6397 0.85018 0.79367 0.0
O1306 O 0.64786 0.8595 0.78371 0.0
O1307 O 0.74444 0.83689 0.78626 0.0
O1308 O 0.69696 0.83017 0.78239 0.0
O1309 O 0.73686 0.89354 0.78947 0.0
O1310 O 0.76452 0.87628 0.79571 0.0
O1311 O 0.77838 0.81871 0.79352 0.0
O1312 O 0.77283 0.8303 0.8032 0.0
O1313 O 0.68356 0.85013 0.8001 0.0
O1314 O 0.7337 0.8594 0.8023 0.0
C1315 C 0.66155 0.78875 0.79296 0.0
C1316 C 0.72477 0.83145 0.78158 0.0
C1317 C 0.59502 0.84148 0.78726 0.0
C1318 C 0.54696 0.84587 0.7877 0.0
C1319 C 0.54786 0.80429 0.78154 0.0
C1320 C 0.57929 0.81524 0.78327 0.0
C1321 C 0.53194 0.81967 0.78367 0.0
C1322 C 0.57863 0.85667 0.78953 0.0
C1323 C 0.62939 0.85565 0.78844 0.0
C1324 C 0.73462 0.98808 0.78459 0.0
C1325 C 0.73534 0.97874 0.77841 0.0
H1326 H 0.72904 0.99824 0.79688 0.0
C1327 C 0.7626 0.89759 0.79225 0.0
C1328 C 0.70749 0.85839 0.80405 0.0
C1329 C 0.82003 0.82766 0.80123 0.0
C1330 C 0.87311 0.83621 0.79924 0.0
C1331 C 0.85396 0.83118 0.80993 0.0
C1332 C 0.82532 0.82715 0.80771 0.0
C1333 C 0.8777 0.83565 0.80573 0.0
C1334 C 0.8442 0.83237 0.79697 0.0
C1335 C 0.7903 0.82602 0.79917 0.0
H1336 H 0.53594 0.78413 0.77843 0.0
H1337 H 0.59158 0.80382 0.78134 0.0
H1338 H 0.50774 0.81112 0.78216 0.0
H1339 H 0.5908 0.87746 0.79249 0.0
H1340 H 0.85784 0.83101 0.81492 0.0
H1341 H 0.80738 0.82397 0.8111 0.0
H1342 H 0.89992 0.83895 0.80756 0.0
H1343 H 0.84075 0.83335 0.79196 0.0
C1344 C 0.3196 0.97927 0.80477 0.0
C1345 C 0.36434 0.00523 0.79765 0.0
C1346 C 0.3313 0.9882 0.79871 0.0
C1347 C 0.38529 0.01321 0.80273 0.0
C1348 C 0.3406 0.98725 0.80989 0.0
C1349 C 0.37346 0.00429 0.80883 0.0
N1350 N 0.2877 0.96224 0.80565 0.0
C1351 C 0.27526 0.95362 0.81152 0.0
C1352 C 0.32793 0.97776 0.81592 0.0
C1353 C 0.29509 0.961 0.81674 0.0
Gd1354 Gd 0.22187 0.86492 0.78865 0.0
Gd1355 Gd 0.25623 0.95085 0.79664 0.0
N1356 N 0.3104 0.9796 0.79384 0.0
C1357 C 0.37541 0.01371 0.7915 0.0
C1358 C 0.32124 0.98887 0.78788 0.0
C1359 C 0.35374 0.00565 0.7866 0.0
H1360 H 0.30525 0.98392 0.78409 0.0
H1361 H 0.36203 0.01257 0.78184 0.0
H1362 H 0.182 0.82372 0.80178 0.0
H1363 H 0.25005 0.94209 0.8122 0.0
H1364 H 0.12721 0.79043 0.80522 0.0
H1365 H 0.4006 0.02674 0.79049 0.0
H1366 H 0.41072 0.02629 0.802 0.0
H1367 H 0.21831 0.87204 0.77315 0.0
H1368 H 0.34328 0.98349 0.81997 0.0
H1369 H 0.28501 0.95404 0.82139 0.0
H1370 H 0.06563 0.77564 0.78671 0.0
H1371 H 0.38994 0.01063 0.81271 0.0
H1372 H 0.12096 0.82169 0.76754 0.0
H1373 H 0.17775 0.85525 0.76486 0.0
N1374 N 0.18487 0.84937 0.78048 0.0
C1375 C 0.15389 0.8303 0.78204 0.0
C1376 C 0.1936 0.85805 0.77439 0.0
C1377 C 0.13868 0.82926 0.77121 0.0
C1378 C 0.17069 0.84827 0.76967 0.0
C1379 C 0.12991 0.81992 0.77744 0.0
H1380 H 0.07932 0.79238 0.77573 0.0
N1381 N 0.16998 0.8319 0.7926 0.0
C1382 C 0.14622 0.82139 0.78827 0.0
C1383 C 0.10739 0.79068 0.79621 0.0
C1384 C 0.11427 0.80101 0.78999 0.0
C1385 C 0.16343 0.81954 0.79853 0.0
C1386 C 0.13214 0.79954 0.80047 0.0
O1387 O 0.28401 0.92453 0.7976 0.0
O1388 O 0.27387 0.90011 0.7881 0.0
O1389 O 0.22605 0.82367 0.7918 0.0
O1390 O 0.22782 0.83527 0.78189 0.0
O1391 O 0.24735 0.94906 0.78622 0.0
O1392 O 0.25051 0.90702 0.7818 0.0
O1393 O 0.19252 0.88867 0.78728 0.0
O1394 O 0.20296 0.91821 0.79627 0.0
O1395 O 0.25605 0.99419 0.79357 0.0
O1396 O 0.24842 0.97885 0.80338 0.0
O1397 O 0.23043 0.86987 0.79946 0.0
O1398 O 0.21912 0.90893 0.80184 0.0
C1399 C 0.29165 0.91132 0.79307 0.0
C1400 C 0.25158 0.93492 0.78135 0.0
C1401 C 0.23157 0.78833 0.78414 0.0
C1402 C 0.2275 0.73635 0.78588 0.0
C1403 C 0.24528 0.7631 0.77583 0.0
C1404 C 0.24193 0.78819 0.77799 0.0
C1405 C 0.23828 0.73752 0.77972 0.0
C1406 C 0.22401 0.76195 0.78812 0.0
C1407 C 0.22763 0.81566 0.78604 0.0
C1408 C 0.09028 0.79104 0.78545 0.0
C1409 C 0.09807 0.8005 0.77919 0.0
H1410 H 0.08318 0.77501 0.79772 0.0
C1411 C 0.18546 0.90448 0.79131 0.0
C1412 C 0.22218 0.88487 0.80359 0.0
C1413 C 0.24622 0.02621 0.80128 0.0
C1414 C 0.23365 0.06789 0.79915 0.0
C1415 C 0.23904 0.05482 0.80988 0.0
C1416 C 0.24563 0.03173 0.80775 0.0
C1417 C 0.23295 0.07269 0.80561 0.0
C1418 C 0.24045 0.04466 0.79695 0.0
C1419 C 0.24989 0.99921 0.79928 0.0
H1420 H 0.25351 0.76354 0.77109 0.0
H1421 H 0.24777 0.80776 0.77482 0.0
H1422 H 0.24108 0.71829 0.7779 0.0
H1423 H 0.21553 0.76128 0.79284 0.0
H1424 H 0.2384 0.05868 0.81487 0.0
H1425 H 0.24979 0.01784 0.81119 0.0
H1426 H 0.22769 0.09042 0.80736 0.0
H1427 H 0.24048 0.04055 0.79195 0.0
C1428 C 0.09773 0.37049 0.80676 0.0
C1429 C 0.06687 0.38584 0.80018 0.0
C1430 C 0.08764 0.37368 0.80083 0.0
C1431 C 0.0562 0.39441 0.80555 0.0
C1432 C 0.08729 0.3794 0.81215 0.0
C1433 C 0.06639 0.39123 0.81151 0.0
N1434 N 0.11822 0.35927 0.80726 0.0
C1435 C 0.1284 0.35543 0.81298 0.0
C1436 C 0.09825 0.37623 0.81803 0.0
C1437 C 0.11883 0.36411 0.81844 0.0
Gd1438 Gd 0.21673 0.40042 0.78971 0.0
Gd1439 Gd 0.13122 0.344 0.79784 0.0
N1440 N 0.09916 0.36614 0.79568 0.0
C1441 C 0.05809 0.38979 0.79414 0.0
C1442 C 0.09025 0.36948 0.78981 0.0
C1443 C 0.07 0.38173 0.78895 0.0
H1444 H 0.09844 0.36268 0.78577 0.0
H1445 H 0.06365 0.38495 0.78427 0.0
H1446 H 0.25661 0.39764 0.80256 0.0
H1447 H 0.14308 0.34469 0.81334 0.0
H1448 H 0.29503 0.38107 0.80523 0.0
H1449 H 0.04241 0.39931 0.79344 0.0
H1450 H 0.04029 0.40385 0.80513 0.0
H1451 H 0.20888 0.39409 0.7741 0.0
H1452 H 0.09079 0.38284 0.82228 0.0
H1453 H 0.12704 0.36109 0.82297 0.0
H1454 H 0.31794 0.34884 0.7856 0.0
H1455 H 0.05809 0.39816 0.8156 0.0
H1456 H 0.26671 0.35762 0.76715 0.0
H1457 H 0.22854 0.37622 0.76525 0.0
N1458 N 0.23407 0.38392 0.781 0.0
C1459 C 0.25564 0.37457 0.78214 0.0
C1460 C 0.22465 0.38503 0.77502 0.0
C1461 C 0.25775 0.36498 0.77107 0.0
C1462 C 0.23613 0.37536 0.76998 0.0
C1463 C 0.26798 0.36471 0.7772 0.0
H1464 H 0.29991 0.34746 0.77477 0.0
N1465 N 0.25266 0.38407 0.79295 0.0
C1466 C 0.26547 0.37498 0.78827 0.0
C1467 C 0.29866 0.3678 0.79577 0.0
C1468 C 0.28845 0.36614 0.78957 0.0
C1469 C 0.26392 0.38736 0.79894 0.0
C1470 C 0.28656 0.37876 0.80045 0.0
O1471 O 0.15205 0.39789 0.79866 0.0
O1472 O 0.17861 0.41307 0.78941 0.0
O1473 O 0.25734 0.4446 0.79308 0.0
O1474 O 0.24223 0.44074 0.78348 0.0
O1475 O 0.13375 0.33788 0.78741 0.0
O1476 O 0.17377 0.38464 0.78303 0.0
O1477 O 0.19777 0.34765 0.78862 0.0
O1478 O 0.16586 0.32596 0.7973 0.0
O1479 O 0.08922 0.30048 0.79439 0.0
O1480 O 0.10401 0.30594 0.80423 0.0
O1481 O 0.21093 0.40344 0.80047 0.0
O1482 O 0.1746 0.35205 0.80297 0.0
C1483 C 0.168 0.4199 0.79443 0.0
C1484 C 0.14674 0.35698 0.78259 0.0
C1485 C 0.29759 0.47287 0.78542 0.0
C1486 C 0.35316 0.51566 0.786 0.0
C1487 C 0.33654 0.47505 0.77798 0.0
C1488 C 0.30554 0.46036 0.78024 0.0
C1489 C 0.36014 0.50255 0.78081 0.0
C1490 C 0.32175 0.50067 0.78834 0.0
C1491 C 0.26404 0.4578 0.78756 0.0
C1492 C 0.30052 0.35598 0.78468 0.0
C1493 C 0.29026 0.3552 0.77851 0.0
H1494 H 0.31624 0.3612 0.79696 0.0
C1495 C 0.1806 0.32357 0.79236 0.0
C1496 C 0.19715 0.38018 0.80463 0.0
C1497 C 0.05772 0.2563 0.80168 0.0
C1498 C 0.0143 0.20399 0.79894 0.0
C1499 C 0.02935 0.21721 0.80983 0.0
C1500 C 0.05299 0.24738 0.80805 0.0
C1501 C 0.01011 0.1956 0.80531 0.0
C1502 C 0.03814 0.23441 0.7971 0.0
C1503 C 0.08406 0.28793 0.79999 0.0
H1504 H 0.34223 0.46523 0.77396 0.0
H1505 H 0.28775 0.43945 0.77785 0.0
H1506 H 0.38403 0.51372 0.77893 0.0
H1507 H 0.31608 0.51082 0.79231 0.0
H1508 H 0.02599 0.21056 0.81473 0.0
H1509 H 0.06772 0.26365 0.81168 0.0
H1510 H 0.99178 0.17219 0.80677 0.0
H1511 H 0.0415 0.2408 0.79217 0.0
C1512 C 0.15961 0.37205 0.2822 0.0
C1513 C 0.11889 0.36266 0.28983 0.0
C1514 C 0.15042 0.37094 0.28842 0.0
C1515 C 0.09717 0.35612 0.28495 0.0
C1516 C 0.13732 0.36384 0.27731 0.0
C1517 C 0.10609 0.356 0.27872 0.0
N1518 N 0.19033 0.38113 0.28093 0.0
C1519 C 0.20031 0.38235 0.2749 0.0
C1520 C 0.14726 0.36448 0.27112 0.0
C1521 C 0.17889 0.37371 0.26992 0.0
Gd1522 Gd 0.25657 0.34287 0.29698 0.0
Gd1523 Gd 0.22487 0.39798 0.28952 0.0
N1524 N 0.17241 0.37875 0.29305 0.0
C1525 C 0.11027 0.36208 0.2961 0.0
C1526 C 0.16434 0.37987 0.29915 0.0
C1527 C 0.13312 0.37076 0.30078 0.0
H1528 H 0.18177 0.38907 0.30279 0.0
H1529 H 0.12695 0.37144 0.30563 0.0
H1530 H 0.30514 0.36156 0.28435 0.0
H1531 H 0.22496 0.39085 0.27388 0.0
H1532 H 0.3617 0.38521 0.28223 0.0
H1533 H 0.08623 0.35568 0.29737 0.0
H1534 H 0.07352 0.35166 0.28595 0.0
H1535 H 0.24974 0.34299 0.31258 0.0
H1536 H 0.13081 0.35827 0.26725 0.0
H1537 H 0.18693 0.37475 0.26515 0.0
H1538 H 0.40969 0.40575 0.30258 0.0
H1539 H 0.08882 0.35038 0.27502 0.0
H1540 H 0.34243 0.38156 0.32051 0.0
H1541 H 0.28431 0.35817 0.32184 0.0
N1542 N 0.28758 0.35891 0.30607 0.0
C1543 C 0.31919 0.37068 0.30522 0.0
C1544 C 0.27502 0.35441 0.31194 0.0
C1545 C 0.32724 0.37545 0.31643 0.0
C1546 C 0.29459 0.36256 0.31721 0.0
C1547 C 0.33994 0.37966 0.31039 0.0
H1548 H 0.38886 0.39936 0.31331 0.0
N1549 N 0.31037 0.36598 0.29423 0.0
C1550 C 0.3309 0.37406 0.29914 0.0
C1551 C 0.37484 0.39073 0.29196 0.0
C1552 C 0.36371 0.38675 0.29813 0.0
C1553 C 0.32112 0.36915 0.28822 0.0
C1554 C 0.35342 0.38204 0.287 0.0
O1555 O 0.19303 0.34545 0.28814 0.0
O1556 O 0.20371 0.32528 0.29696 0.0
O1557 O 0.25598 0.29964 0.29347 0.0
O1558 O 0.24667 0.30506 0.30331 0.0
O1559 O 0.23476 0.40118 0.30031 0.0
O1560 O 0.22228 0.35027 0.30262 0.0
O1561 O 0.28868 0.39675 0.29789 0.0
O1562 O 0.27598 0.41259 0.28886 0.0
O1563 O 0.22771 0.44227 0.29301 0.0
O1564 O 0.23504 0.43626 0.28313 0.0
O1565 O 0.24489 0.33616 0.28668 0.0
O1566 O 0.25283 0.38384 0.28266 0.0
C1567 C 0.18546 0.32239 0.29216 0.0
C1568 C 0.22747 0.37807 0.30445 0.0
C1569 C 0.24698 0.25724 0.30102 0.0
C1570 C 0.23262 0.20244 0.29905 0.0
C1571 C 0.24883 0.22466 0.30947 0.0
C1572 C 0.25305 0.2535 0.30733 0.0
C1573 C 0.23848 0.1992 0.30537 0.0
C1574 C 0.23711 0.23164 0.29683 0.0
C1575 C 0.24948 0.28746 0.2991 0.0
C1576 C 0.38442 0.3958 0.30327 0.0
C1577 C 0.37257 0.39225 0.30939 0.0
H1578 H 0.39989 0.40069 0.29097 0.0
C1579 C 0.29394 0.419 0.29377 0.0
C1580 C 0.25126 0.35586 0.28196 0.0
C1581 C 0.23957 0.48662 0.28575 0.0
C1582 C 0.231 0.53199 0.28685 0.0
C1583 C 0.26614 0.53202 0.27876 0.0
C1584 C 0.26014 0.50222 0.28071 0.0
C1585 C 0.25167 0.54677 0.28179 0.0
C1586 C 0.22497 0.50174 0.28888 0.0
C1587 C 0.23297 0.45421 0.28738 0.0
H1588 H 0.25337 0.22196 0.31434 0.0
H1589 H 0.26083 0.27288 0.31064 0.0
H1590 H 0.23505 0.17681 0.30713 0.0
H1591 H 0.23224 0.23412 0.29197 0.0
H1592 H 0.28195 0.54367 0.27485 0.0
H1593 H 0.27162 0.49128 0.27823 0.0
H1594 H 0.25648 0.56985 0.28016 0.0
H1595 H 0.20874 0.48994 0.29273 0.0
C1596 C 0.70593 0.82088 0.2821 0.0
C1597 C 0.71194 0.78659 0.28958 0.0
C1598 C 0.70397 0.81018 0.28824 0.0
C1599 C 0.72164 0.77393 0.28471 0.0
C1600 C 0.71576 0.8082 0.27721 0.0
C1601 C 0.72358 0.78472 0.27855 0.0
N1602 N 0.69893 0.84418 0.28092 0.0
C1603 C 0.69903 0.85413 0.27493 0.0
C1604 C 0.71741 0.81947 0.2711 0.0
C1605 C 0.70876 0.84234 0.26995 0.0
Gd1606 Gd 0.73978 0.95087 0.29509 0.0
Gd1607 Gd 0.68084 0.86042 0.28955 0.0
N1608 N 0.69584 0.82383 0.29292 0.0
C1609 C 0.71087 0.77708 0.29581 0.0
C1610 C 0.69404 0.81399 0.29899 0.0
C1611 C 0.70183 0.79079 0.30052 0.0
H1612 H 0.68586 0.82314 0.30269 0.0
H1613 H 0.70053 0.78325 0.30534 0.0
H1614 H 0.74134 0.99522 0.28319 0.0
H1615 H 0.69098 0.87059 0.27389 0.0
H1616 H 0.7199 0.03042 0.28044 0.0
H1617 H 0.71699 0.75918 0.29703 0.0
H1618 H 0.72801 0.75596 0.28567 0.0
H1619 H 0.74249 0.94983 0.31082 0.0
H1620 H 0.72485 0.81032 0.26722 0.0
H1621 H 0.70915 0.8506 0.26522 0.0
H1622 H 0.67342 0.03892 0.29975 0.0
H1623 H 0.73124 0.77479 0.27486 0.0
H1624 H 0.69046 0.99208 0.31804 0.0
H1625 H 0.72057 0.96374 0.31976 0.0
N1626 N 0.72181 0.96563 0.304 0.0
C1627 C 0.70818 0.9837 0.30297 0.0
C1628 C 0.72764 0.95995 0.30997 0.0
C1629 C 0.69925 0.98487 0.31407 0.0
C1630 C 0.7159 0.96876 0.31507 0.0
C1631 C 0.69604 0.9934 0.30796 0.0
H1632 H 0.67283 0.01996 0.31049 0.0
N1633 N 0.72249 0.98633 0.29238 0.0
C1634 C 0.70891 0.99478 0.29698 0.0
C1635 C 0.70022 0.0275 0.28965 0.0
C1636 C 0.69697 0.01527 0.29573 0.0
C1637 C 0.72787 0.99994 0.2866 0.0
C1638 C 0.71624 0.02021 0.28509 0.0
O1639 O 0.73349 0.88011 0.28791 0.0
O1640 O 0.75494 0.91436 0.29618 0.0
O1641 O 0.78319 0.98593 0.29039 0.0
O1642 O 0.78055 0.98297 0.30052 0.0
O1643 O 0.68205 0.86851 0.30028 0.0
O1644 O 0.73109 0.91298 0.30229 0.0
O1645 O 0.68915 0.93654 0.29197 0.0
O1646 O 0.6647 0.88656 0.29577 0.0
O1647 O 0.64083 0.81236 0.29099 0.0
O1648 O 0.63862 0.84311 0.28376 0.0
O1649 O 0.74185 0.9379 0.28502 0.0
O1650 O 0.69021 0.90099 0.28259 0.0
C1651 C 0.75733 0.89741 0.29168 0.0
C1652 C 0.7053 0.88718 0.30419 0.0
C1653 C 0.81616 0.03235 0.29626 0.0
C1654 C 0.86816 0.07961 0.29625 0.0
C1655 C 0.82291 0.0815 0.30053 0.0
C1656 C 0.80331 0.04946 0.2991 0.0
C1657 C 0.85531 0.09649 0.29918 0.0
C1658 C 0.84842 0.04762 0.29474 0.0
C1659 C 0.79765 0.9979 0.29567 0.0
C1660 C 0.68305 0.02345 0.30061 0.0
C1661 C 0.68262 0.01256 0.30673 0.0
H1662 H 0.69136 0.04333 0.28849 0.0
C1663 C 0.66303 0.91093 0.29375 0.0
C1664 C 0.71796 0.92615 0.28109 0.0
C1665 C 0.59277 0.78956 0.28453 0.0
C1666 C 0.54601 0.73664 0.28584 0.0
C1667 C 0.55011 0.76929 0.27686 0.0
C1668 C 0.57943 0.79331 0.27898 0.0
C1669 C 0.53347 0.74125 0.28026 0.0
C1670 C 0.57601 0.76079 0.28795 0.0
C1671 C 0.62482 0.81518 0.28641 0.0
H1672 H 0.8131 0.09458 0.30279 0.0
H1673 H 0.77846 0.03784 0.30037 0.0
H1674 H 0.87034 0.12126 0.30039 0.0
H1675 H 0.85846 0.0343 0.29264 0.0
H1676 H 0.54022 0.77242 0.27255 0.0
H1677 H 0.59188 0.81474 0.2762 0.0
H1678 H 0.51064 0.72296 0.27853 0.0
H1679 H 0.58596 0.75731 0.29222 0.0
C1680 C 0.25412 0.92086 0.28239 0.0
C1681 C 0.28251 0.96407 0.28975 0.0
C1682 C 0.26235 0.93146 0.28854 0.0
C1683 C 0.29406 0.98571 0.28474 0.0
C1684 C 0.26608 0.94254 0.27735 0.0
C1685 C 0.28594 0.97497 0.27856 0.0
N1686 N 0.2342 0.88946 0.28132 0.0
C1687 C 0.22716 0.87787 0.27535 0.0
C1688 C 0.25779 0.93097 0.27122 0.0
C1689 C 0.23848 0.89845 0.27022 0.0
Gd1690 Gd 0.12798 0.82108 0.29634 0.0
Gd1691 Gd 0.2179 0.85695 0.2902 0.0
N1692 N 0.25069 0.91001 0.29332 0.0
C1693 C 0.29069 0.97403 0.29596 0.0
C1694 C 0.25981 0.91954 0.29937 0.0
C1695 C 0.27949 0.95164 0.30078 0.0
H1696 H 0.25284 0.90273 0.30313 0.0
H1697 H 0.28636 0.95903 0.30558 0.0
H1698 H 0.08804 0.77495 0.28433 0.0
H1699 H 0.21336 0.8527 0.2745 0.0
H1700 H 0.05601 0.71771 0.28196 0.0
H1701 H 0.30609 0.99886 0.29708 0.0
H1702 H 0.30952 0.01081 0.28559 0.0
H1703 H 0.13173 0.82625 0.31224 0.0
H1704 H 0.26656 0.94686 0.26723 0.0
H1705 H 0.23258 0.88919 0.2655 0.0
H1706 H 0.05505 0.66696 0.30135 0.0
H1707 H 0.29525 0.99195 0.27475 0.0
H1708 H 0.09802 0.73296 0.31947 0.0
H1709 H 0.12176 0.79058 0.32119 0.0
N1710 N 0.11808 0.78984 0.30538 0.0
C1711 C 0.10285 0.75795 0.30436 0.0
C1712 C 0.12317 0.80144 0.31136 0.0
C1713 C 0.10335 0.74863 0.31548 0.0
C1714 C 0.11674 0.78116 0.31647 0.0
C1715 C 0.09538 0.73653 0.30939 0.0
H1716 H 0.0733 0.68697 0.31202 0.0
N1717 N 0.09875 0.7676 0.2936 0.0
C1718 C 0.09237 0.74649 0.29833 0.0
C1719 C 0.06211 0.70323 0.29117 0.0
C1720 C 0.07447 0.71363 0.2972 0.0
C1721 C 0.08495 0.75777 0.28786 0.0
C1722 C 0.06677 0.72544 0.28653 0.0
O1723 O 0.19422 0.88639 0.28887 0.0
O1724 O 0.16097 0.87402 0.29741 0.0
O1725 O 0.09355 0.83108 0.29187 0.0
O1726 O 0.08541 0.81207 0.30125 0.0
O1727 O 0.21137 0.85067 0.30095 0.0
O1728 O 0.1654 0.85206 0.30348 0.0
O1729 O 0.14603 0.78942 0.29233 0.0
O1730 O 0.195 0.81466 0.29649 0.0
O1731 O 0.26766 0.86879 0.29129 0.0
O1732 O 0.2357 0.83123 0.28486 0.0
O1733 O 0.13861 0.838 0.2864 0.0
O1734 O 0.17721 0.82741 0.28301 0.0
C1735 C 0.17885 0.89386 0.29299 0.0
C1736 C 0.19267 0.85421 0.30503 0.0
C1737 C 0.06507 0.84559 0.29882 0.0
C1738 C 0.03028 0.86774 0.29744 0.0
C1739 C 0.06659 0.8839 0.30629 0.0
C1740 C 0.07778 0.86412 0.30424 0.0
C1741 C 0.04305 0.88577 0.30292 0.0
C1742 C 0.04118 0.84735 0.29543 0.0
C1743 C 0.07562 0.82344 0.29683 0.0
C1744 C 0.06852 0.69232 0.30214 0.0
C1745 C 0.07897 0.70374 0.30822 0.0
H1746 H 0.04798 0.67816 0.29012 0.0
C1747 C 0.17077 0.78857 0.2945 0.0
C1748 C 0.15069 0.8285 0.282 0.0
C1749 C 0.29034 0.84161 0.28523 0.0
C1750 C 0.34394 0.84861 0.28621 0.0
C1751 C 0.30841 0.81551 0.27795 0.0
C1752 C 0.28509 0.82195 0.28002 0.0
C1753 C 0.33749 0.82858 0.28102 0.0
C1754 C 0.32027 0.8554 0.28831 0.0
C1755 C 0.26435 0.84765 0.28716 0.0
H1756 H 0.07611 0.89774 0.31052 0.0
H1757 H 0.09611 0.86305 0.30693 0.0
H1758 H 0.0345 0.90109 0.30464 0.0
H1759 H 0.03124 0.83306 0.29126 0.0
H1760 H 0.30393 0.80032 0.27392 0.0
H1761 H 0.26288 0.81166 0.27748 0.0
H1762 H 0.35524 0.82321 0.2793 0.0
H1763 H 0.32501 0.87089 0.2923 0.0
C1764 C 0.71192 0.82511 0.89391 0.0
C1765 C 0.7008 0.7829 0.88652 0.0
C1766 C 0.71062 0.81498 0.88775 0.0
C1767 C 0.69224 0.76131 0.89151 0.0
C1768 C 0.70337 0.80346 0.89893 0.0
C1769 C 0.69359 0.77158 0.89769 0.0
N1770 N 0.72166 0.85617 0.89499 0.0
C1771 C 0.72483 0.86743 0.90096 0.0
C1772 C 0.70532 0.81459 0.90505 0.0
C1773 C 0.7163 0.84676 0.90607 0.0
Gd1774 Gd 0.67409 0.91728 0.88024 0.0
Gd1775 Gd 0.73525 0.88887 0.88615 0.0
N1776 N 0.71947 0.83654 0.88301 0.0
C1777 C 0.70052 0.77351 0.88031 0.0
C1778 C 0.72084 0.8277 0.87698 0.0
C1779 C 0.71089 0.79608 0.87553 0.0
H1780 H 0.73029 0.84477 0.87324 0.0
H1781 H 0.71166 0.78923 0.87074 0.0
H1782 H 0.67651 0.96301 0.89202 0.0
H1783 H 0.73428 0.89239 0.90182 0.0
H1784 H 0.69682 0.01987 0.89417 0.0
H1785 H 0.69303 0.74907 0.87918 0.0
H1786 H 0.68503 0.73671 0.89063 0.0
H1787 H 0.6734 0.91079 0.86444 0.0
H1788 H 0.69889 0.79866 0.90903 0.0
H1789 H 0.7185 0.85571 0.9108 0.0
H1790 H 0.73918 0.07052 0.87434 0.0
H1791 H 0.68737 0.75476 0.9015 0.0
H1792 H 0.72461 0.00386 0.85666 0.0
H1793 H 0.69654 0.94562 0.85528 0.0
N1794 N 0.69266 0.9483 0.87107 0.0
C1795 C 0.70568 0.98013 0.87187 0.0
C1796 C 0.68776 0.93589 0.86517 0.0
C1797 C 0.71561 0.98854 0.86073 0.0
C1798 C 0.69995 0.95571 0.85994 0.0
C1799 C 0.71779 1.00114 0.86673 0.0
H1800 H 0.74013 0.05034 0.86381 0.0
N1801 N 0.69236 0.97062 0.88259 0.0
C1802 C 0.70497 0.9916 0.87778 0.0
C1803 C 0.71407 0.03447 0.88474 0.0
C1804 C 0.71658 0.0242 0.87874 0.0
C1805 C 0.68831 0.98019 0.88836 0.0
C1806 C 0.69954 0.01229 0.88956 0.0
O1807 O 0.68319 0.85598 0.88822 0.0
O1808 O 0.65853 0.86483 0.87987 0.0
O1809 O 0.63099 0.90959 0.88492 0.0
O1810 O 0.63348 0.9097 0.8748 0.0
O1811 O 0.73138 0.89257 0.87539 0.0
O1812 O 0.68143 0.88582 0.87344 0.0
O1813 O 0.72418 0.95448 0.88351 0.0
O1814 O 0.74732 0.92876 0.87954 0.0
O1815 O 0.77639 0.88355 0.88434 0.0
O1816 O 0.77995 0.91898 0.89094 0.0
O1817 O 0.6718 0.90236 0.89025 0.0
O1818 O 0.72283 0.9178 0.89328 0.0
C1819 C 0.65911 0.84667 0.88437 0.0
C1820 C 0.707 0.8853 0.87159 0.0
C1821 C 0.59949 0.92541 0.87925 0.0
C1822 C 0.5497 0.92534 0.87999 0.0
C1823 C 0.59656 0.97149 0.87589 0.0
C1824 C 0.6141 0.95624 0.87676 0.0
C1825 C 0.56441 0.95607 0.87747 0.0
C1826 C 0.56731 0.91008 0.8809 0.0
C1827 C 0.6166 0.90788 0.87967 0.0
C1828 C 0.72988 0.04533 0.87369 0.0
C1829 C 0.73051 0.03383 0.8677 0.0
H1830 H 0.72271 0.05934 0.88568 0.0
C1831 C 0.75011 0.95494 0.88168 0.0
C1832 C 0.69451 0.91498 0.89443 0.0
C1833 C 0.81941 0.90281 0.89166 0.0
C1834 C 0.86378 0.89218 0.89165 0.0
C1835 C 0.85276 0.91432 0.90089 0.0
C1836 C 0.8272 0.91397 0.89785 0.0
C1837 C 0.8709 0.90354 0.89783 0.0
C1838 C 0.83806 0.89203 0.88855 0.0
C1839 C 0.79467 0.90601 0.88819 0.0
H1840 H 0.60778 0.99512 0.87391 0.0
H1841 H 0.63879 0.96821 0.87538 0.0
H1842 H 0.55093 0.96797 0.87668 0.0
H1843 H 0.55579 0.88607 0.88273 0.0
H1844 H 0.85877 0.9233 0.90563 0.0
H1845 H 0.81397 0.92307 0.90031 0.0
H1846 H 0.89081 0.90433 0.90027 0.0
H1847 H 0.83286 0.88394 0.88373 0.0
C1848 C 0.25253 0.91362 0.89358 0.0
C1849 C 0.29659 0.93774 0.88625 0.0
C1850 C 0.26366 0.92008 0.88743 0.0
C1851 C 0.31801 0.9486 0.8913 0.0
C1852 C 0.27402 0.92492 0.89865 0.0
C1853 C 0.30676 0.94231 0.89747 0.0
N1854 N 0.22076 0.89589 0.8946 0.0
C1855 C 0.20885 0.89003 0.90056 0.0
C1856 C 0.26197 0.91831 0.90477 0.0
C1857 C 0.22924 0.90101 0.90572 0.0
Gd1858 Gd 0.15092 0.7868 0.88067 0.0
Gd1859 Gd 0.18867 0.87869 0.88563 0.0
N1860 N 0.24238 0.9089 0.88262 0.0
C1861 C 0.30709 0.94409 0.88004 0.0
C1862 C 0.25257 0.9164 0.87656 0.0
C1863 C 0.28497 0.93365 0.87518 0.0
H1864 H 0.2361 0.90989 0.87274 0.0
H1865 H 0.29285 0.93917 0.87036 0.0
H1866 H 0.10736 0.74967 0.89313 0.0
H1867 H 0.1836 0.87772 0.90137 0.0
H1868 H 0.05054 0.71848 0.89602 0.0
H1869 H 0.33217 0.9575 0.87894 0.0
H1870 H 0.34336 0.96206 0.89047 0.0
H1871 H 0.15291 0.79021 0.86472 0.0
H1872 H 0.27771 0.92671 0.90878 0.0
H1873 H 0.21967 0.89631 0.91043 0.0
H1874 H 0.99595 0.71062 0.87676 0.0
H1875 H 0.32359 0.95101 0.90131 0.0
H1876 H 0.05835 0.75491 0.85822 0.0
H1877 H 0.11585 0.78012 0.85607 0.0
N1878 N 0.11794 0.77631 0.87187 0.0
C1879 C 0.08623 0.76025 0.8731 0.0
C1880 C 0.12844 0.78182 0.86581 0.0
C1881 C 0.07479 0.76066 0.86208 0.0
C1882 C 0.10723 0.77504 0.86085 0.0
C1883 C 0.06384 0.75217 0.86824 0.0
H1884 H 0.01382 0.72826 0.86594 0.0
N1885 N 0.09802 0.75754 0.88378 0.0
C1886 C 0.07597 0.75 0.8792 0.0
C1887 C 0.03421 0.72098 0.88674 0.0
C1888 C 0.04339 0.73185 0.88058 0.0
C1889 C 0.08942 0.74543 0.88968 0.0
C1890 C 0.05736 0.7275 0.89129 0.0
O1891 O 0.21626 0.85377 0.88776 0.0
O1892 O 0.20412 0.81863 0.8796 0.0
O1893 O 0.1597 0.75218 0.88535 0.0
O1894 O 0.1423 0.74423 0.87583 0.0
O1895 O 0.1837 0.86929 0.87498 0.0
O1896 O 0.18316 0.82174 0.87331 0.0
O1897 O 0.11935 0.80583 0.88418 0.0
O1898 O 0.14642 0.8529 0.87943 0.0
O1899 O 0.19994 0.92657 0.88316 0.0
O1900 O 0.1642 0.90049 0.89018 0.0
O1901 O 0.16701 0.79941 0.89064 0.0
O1902 O 0.15774 0.84037 0.8931 0.0
C1903 C 0.22419 0.83829 0.88379 0.0
C1904 C 0.18729 0.84924 0.87131 0.0
C1905 C 0.17694 0.72599 0.87852 0.0
C1906 C 0.19707 0.68947 0.87911 0.0
C1907 C 0.22214 0.73511 0.87218 0.0
C1908 C 0.20076 0.7445 0.87416 0.0
C1909 C 0.2201 0.70751 0.87459 0.0
C1910 C 0.17526 0.69856 0.88102 0.0
C1911 C 0.15332 0.73467 0.88036 0.0
C1912 C 0.02111 0.72462 0.87578 0.0
C1913 C 0.0313 0.73475 0.86963 0.0
H1914 H 0.00937 0.70697 0.88799 0.0
C1915 C 0.12001 0.83097 0.88183 0.0
C1916 C 0.15877 0.81433 0.89467 0.0
C1917 C 0.19123 0.95727 0.89065 0.0
C1918 C 0.20094 0.01182 0.89115 0.0
C1919 C 0.21003 0.98748 0.9003 0.0
C1920 C 0.20051 0.9596 0.89695 0.0
C1921 C 0.21009 0.0133 0.89745 0.0
C1922 C 0.19189 0.98373 0.88772 0.0
C1923 C 0.18011 0.92728 0.88714 0.0
H1924 H 0.24015 0.7491 0.86874 0.0
H1925 H 0.20249 0.76589 0.87222 0.0
H1926 H 0.23637 0.7001 0.87291 0.0
H1927 H 0.15712 0.68439 0.88444 0.0
H1928 H 0.2171 0.989 0.90516 0.0
H1929 H 0.20009 0.9398 0.89931 0.0
H1930 H 0.21736 0.0346 0.90019 0.0
H1931 H 0.18458 0.98217 0.88287 0.0
C1932 C 0.16071 0.37412 0.89404 0.0
C1933 C 0.12766 0.38059 0.88633 0.0
C1934 C 0.15103 0.37256 0.88784 0.0
C1935 C 0.11417 0.38993 0.8911 0.0
C1936 C 0.1474 0.3838 0.89882 0.0
C1937 C 0.12371 0.39108 0.89733 0.0
N1938 N 0.18306 0.36605 0.8954 0.0
C1939 C 0.19319 0.36722 0.90142 0.0
C1940 C 0.158 0.38549 0.90499 0.0
C1941 C 0.18107 0.37726 0.90629 0.0
Gd1942 Gd 0.28656 0.39979 0.87966 0.0
Gd1943 Gd 0.19878 0.34599 0.88703 0.0
N1944 N 0.16425 0.36306 0.88331 0.0
C1945 C 0.11804 0.37839 0.88008 0.0
C1946 C 0.15331 0.35892 0.87729 0.0
C1947 C 0.13076 0.36728 0.87555 0.0
H1948 H 0.16067 0.34799 0.87381 0.0
H1949 H 0.12258 0.36435 0.87075 0.0
H1950 H 0.32303 0.38904 0.89201 0.0
H1951 H 0.20993 0.35957 0.90254 0.0
H1952 H 0.35469 0.36355 0.89427 0.0
H1953 H 0.10024 0.38443 0.87873 0.0
H1954 H 0.09598 0.39585 0.89003 0.0
H1955 H 0.27659 0.39696 0.86403 0.0
H1956 H 0.14839 0.39294 0.90879 0.0
H1957 H 0.18913 0.37811 0.91105 0.0
H1958 H 0.36676 0.32642 0.87418 0.0
H1959 H 0.11226 0.39718 0.90097 0.0
H1960 H 0.31994 0.34682 0.85629 0.0
H1961 H 0.28904 0.37416 0.85487 0.0
N1962 N 0.29779 0.3803 0.87059 0.0
C1963 C 0.31573 0.36635 0.87147 0.0
C1964 C 0.28883 0.38386 0.86472 0.0
C1965 C 0.314 0.35625 0.86034 0.0
C1966 C 0.29643 0.37154 0.85952 0.0
C1967 C 0.32416 0.35379 0.86635 0.0
H1968 H 0.34913 0.32943 0.86351 0.0
N1969 N 0.31613 0.37581 0.88243 0.0
C1970 C 0.32536 0.36427 0.87754 0.0
C1971 C 0.35412 0.34925 0.88468 0.0
C1972 C 0.34409 0.35009 0.87857 0.0
C1973 C 0.32739 0.37677 0.88832 0.0
C1974 C 0.34608 0.36303 0.88957 0.0
O1975 O 0.21949 0.39893 0.8879 0.0
O1976 O 0.25538 0.42198 0.8797 0.0
O1977 O 0.32732 0.44277 0.88333 0.0
O1978 O 0.32153 0.4344 0.87335 0.0
O1979 O 0.20653 0.34397 0.87634 0.0
O1980 O 0.24586 0.39478 0.87387 0.0
O1981 O 0.26217 0.34542 0.87891 0.0
O1982 O 0.23465 0.3308 0.88803 0.0
O1983 O 0.15905 0.29989 0.88359 0.0
O1984 O 0.1676 0.3103 0.89357 0.0
O1985 O 0.28185 0.40563 0.8901 0.0
O1986 O 0.24069 0.35768 0.89376 0.0
C1987 C 0.23739 0.42296 0.88421 0.0
C1988 C 0.22143 0.3675 0.87225 0.0
C1989 C 0.34682 0.48769 0.87662 0.0
C1990 C 0.38402 0.54414 0.87805 0.0
C1991 C 0.33835 0.52685 0.87123 0.0
C1992 C 0.32872 0.49526 0.87258 0.0
C1993 C 0.36578 0.55119 0.87396 0.0
C1994 C 0.37463 0.5123 0.87934 0.0
C1995 C 0.33781 0.45433 0.87776 0.0
C1996 C 0.35245 0.33749 0.87347 0.0
C1997 C 0.34244 0.33925 0.86739 0.0
H1998 H 0.36868 0.33869 0.88566 0.0
C1999 C 0.24608 0.32373 0.88318 0.0
C2000 C 0.26736 0.38519 0.89466 0.0
C2001 C 0.12253 0.25882 0.89119 0.0
C2002 C 0.06938 0.21172 0.88986 0.0
C2003 C 0.09933 0.21915 0.89946 0.0
C2004 C 0.1242 0.24738 0.89716 0.0
C2005 C 0.07226 0.20152 0.89587 0.0
C2006 C 0.09471 0.2408 0.88751 0.0
C2007 C 0.1494 0.29051 0.88931 0.0
H2008 H 0.32456 0.5325 0.86805 0.0
H2009 H 0.30733 0.47678 0.8704 0.0
H2010 H 0.37298 0.57559 0.87284 0.0
H2011 H 0.38886 0.50674 0.88244 0.0
H2012 H 0.10103 0.21089 0.90408 0.0
H2013 H 0.14487 0.26048 0.90011 0.0
H2014 H 0.05324 0.17967 0.89781 0.0
H2015 H 0.09272 0.24927 0.88292 0.0
C2016 C 0.7551 0.69943 0.70756 0.0
C2017 C 0.71818 0.69283 0.71587 0.0
C2018 C 0.74948 0.70378 0.71379 0.0
C2019 C 0.69273 0.67623 0.71171 0.0
C2020 C 0.72966 0.68312 0.70336 0.0
C2021 C 0.69845 0.67132 0.70548 0.0
N2022 N 0.78552 0.71038 0.70567 0.0
C2023 C 0.79233 0.7073 0.69959 0.0
C2024 C 0.73638 0.67891 0.69716 0.0
C2025 C 0.76785 0.69118 0.69527 0.0
Gd2026 Gd 0.85798 0.68144 0.72032 0.0
Gd2027 Gd 0.82458 0.73627 0.71331 0.0
N2028 N 0.77458 0.71961 0.71775 0.0
C2029 C 0.71344 0.69964 0.72201 0.0
C2030 C 0.7702 0.7289 0.72352 0.0
C2031 C 0.73961 0.71828 0.72582 0.0
H2032 H 0.79012 0.74545 0.72629 0.0
H2033 H 0.73628 0.72501 0.73047 0.0
H2034 H 0.89932 0.68602 0.70706 0.0
H2035 H 0.81662 0.71761 0.69807 0.0
H2036 H 0.95403 0.70327 0.70409 0.0
H2037 H 0.68977 0.69171 0.72378 0.0
H2038 H 0.66852 0.66743 0.71324 0.0
H2039 H 0.85928 0.69204 0.7359 0.0
H2040 H 0.71747 0.6664 0.69379 0.0
H2041 H 0.77325 0.68836 0.69047 0.0
H2042 H 0.01111 0.73322 0.72351 0.0
H2043 H 0.67857 0.65859 0.70232 0.0
H2044 H 0.95425 0.7267 0.74228 0.0
H2045 H 0.89829 0.71048 0.74449 0.0
N2046 N 0.89301 0.69889 0.72883 0.0
C2047 C 0.92347 0.70704 0.72752 0.0
C2048 C 0.88374 0.69972 0.73484 0.0
C2049 C 0.93724 0.71876 0.73847 0.0
C2050 C 0.90572 0.7098 0.73974 0.0
C2051 C 0.94649 0.71744 0.73232 0.0
H2052 H 0.99601 0.7348 0.73444 0.0
N2053 N 0.90974 0.69819 0.71671 0.0
C2054 C 0.93205 0.70657 0.7213 0.0
C2055 C 0.97179 0.71525 0.71353 0.0
C2056 C 0.9638 0.71591 0.7198 0.0
C2057 C 0.91717 0.69583 0.71063 0.0
C2058 C 0.94829 0.70485 0.70894 0.0
O2059 O 0.79559 0.68216 0.71204 0.0
O2060 O 0.80743 0.66836 0.7213 0.0
O2061 O 0.84954 0.63506 0.71666 0.0
O2062 O 0.85173 0.64455 0.72671 0.0
O2063 O 0.83773 0.74276 0.72365 0.0
O2064 O 0.82834 0.69361 0.72707 0.0
O2065 O 0.89109 0.73418 0.72141 0.0
O2066 O 0.87767 0.75695 0.71333 0.0
O2067 O 0.82843 0.78202 0.71573 0.0
O2068 O 0.82914 0.76871 0.70595 0.0
O2069 O 0.84905 0.68007 0.70957 0.0
O2070 O 0.85928 0.73064 0.70734 0.0
C2071 C 0.7892 0.66079 0.71641 0.0
C2072 C 0.83088 0.72173 0.72814 0.0
C2073 C 0.84166 0.59228 0.72406 0.0
C2074 C 0.84731 0.54517 0.72283 0.0
C2075 C 0.81742 0.54901 0.73158 0.0
C2076 C 0.82354 0.57864 0.72949 0.0
C2077 C 0.82915 0.53241 0.72829 0.0
C2078 C 0.85373 0.57541 0.7207 0.0
C2079 C 0.84911 0.62485 0.72234 0.0
C2080 C 0.98663 0.72587 0.72458 0.0
C2081 C 0.97803 0.72671 0.73082 0.0
H2082 H 0.99588 0.72222 0.71219 0.0
C2083 C 0.89681 0.75853 0.71785 0.0
C2084 C 0.85655 0.70366 0.70554 0.0
C2085 C 0.83354 0.81987 0.70755 0.0
C2086 C 0.84971 0.8757 0.70893 0.0
C2087 C 0.832 0.85074 0.69874 0.0
C2088 C 0.82722 0.82219 0.7012 0.0
C2089 C 0.84336 0.87738 0.70256 0.0
C2090 C 0.84433 0.84669 0.71147 0.0
C2091 C 0.83058 0.78991 0.70984 0.0
H2092 H 0.80361 0.53893 0.7358 0.0
H2093 H 0.81421 0.59105 0.73217 0.0
H2094 H 0.82425 0.50949 0.73004 0.0
H2095 H 0.86813 0.58575 0.71655 0.0
H2096 H 0.82715 0.85229 0.69384 0.0
H2097 H 0.81879 0.80194 0.6981 0.0
H2098 H 0.84709 0.89943 0.70054 0.0
H2099 H 0.8495 0.84534 0.71637 0.0
C2100 C 0.36472 0.08798 0.70437 0.0
C2101 C 0.38261 0.05926 0.71094 0.0
C2102 C 0.37047 0.08001 0.71028 0.0
C2103 C 0.39036 0.0479 0.70556 0.0
C2104 C 0.37066 0.07506 0.69897 0.0
C2105 C 0.38436 0.05575 0.69959 0.0
N2106 N 0.35109 0.10635 0.70392 0.0
C2107 C 0.33977 0.10994 0.69829 0.0
C2108 C 0.36153 0.08092 0.69312 0.0
C2109 C 0.3455 0.09795 0.6928 0.0
Gd2110 Gd 0.40296 0.21914 0.71954 0.0
Gd2111 Gd 0.34505 0.12734 0.71341 0.0
N2112 N 0.36245 0.09109 0.71539 0.0
C2113 C 0.38565 0.04974 0.71698 0.0
C2114 C 0.36344 0.08031 0.72126 0.0
C2115 C 0.37555 0.05994 0.72216 0.0
H2116 H 0.35582 0.0883 0.72525 0.0
H2117 H 0.37713 0.05216 0.72683 0.0
H2118 H 0.40239 0.26593 0.70778 0.0
H2119 H 0.32708 0.12288 0.69801 0.0
H2120 H 0.38331 0.30332 0.70601 0.0
H2121 H 0.39494 0.03386 0.71768 0.0
H2122 H 0.40007 0.03222 0.70597 0.0
H2123 H 0.40205 0.21013 0.73535 0.0
H2124 H 0.36576 0.0715 0.68886 0.0
H2125 H 0.33768 0.10192 0.68832 0.0
H2126 H 0.34489 0.31305 0.7261 0.0
H2127 H 0.38948 0.04596 0.69549 0.0
H2128 H 0.35805 0.2585 0.74349 0.0
H2129 H 0.38193 0.22434 0.7446 0.0
N2130 N 0.38707 0.23336 0.72885 0.0
C2131 C 0.37591 0.25386 0.72819 0.0
C2132 C 0.39038 0.22377 0.73469 0.0
C2133 C 0.36628 0.25178 0.73936 0.0
C2134 C 0.3796 0.23238 0.74 0.0
C2135 C 0.36479 0.26324 0.73342 0.0
H2136 H 0.34422 0.29138 0.73655 0.0
N2137 N 0.38758 0.25703 0.71734 0.0
C2138 C 0.37632 0.26614 0.72229 0.0
C2139 C 0.36766 0.30106 0.71553 0.0
C2140 C 0.36562 0.28806 0.72149 0.0
C2141 C 0.39105 0.27089 0.7116 0.0
C2142 C 0.38083 0.29274 0.71059 0.0
O2143 O 0.39443 0.14048 0.71709 0.0
O2144 O 0.41873 0.1912 0.71378 0.0
O2145 O 0.44415 0.26336 0.71661 0.0
O2146 O 0.44687 0.23945 0.72491 0.0
O2147 O 0.34209 0.14443 0.72299 0.0
O2148 O 0.39178 0.17775 0.72651 0.0
O2149 O 0.35035 0.20022 0.72017 0.0
O2150 O 0.33212 0.16559 0.71183 0.0
O2151 O 0.30562 0.08592 0.71781 0.0
O2152 O 0.29785 0.10671 0.70954 0.0
O2153 O 0.3949 0.21456 0.70877 0.0
O2154 O 0.36932 0.16149 0.70546 0.0
C2155 C 0.42071 0.1673 0.71597 0.0
C2156 C 0.36351 0.15205 0.72733 0.0
C2157 C 0.47856 0.29596 0.72457 0.0
C2158 C 0.52231 0.35092 0.72465 0.0
C2159 C 0.48688 0.32954 0.73362 0.0
C2160 C 0.46966 0.30039 0.73059 0.0
C2161 C 0.51315 0.35457 0.7307 0.0
C2162 C 0.50472 0.32157 0.72157 0.0
C2163 C 0.46116 0.26483 0.72142 0.0
C2164 C 0.35353 0.29655 0.72664 0.0
C2165 C 0.35312 0.28417 0.73259 0.0
H2166 H 0.3597 0.31795 0.71473 0.0
C2167 C 0.32819 0.18273 0.71611 0.0
C2168 C 0.38401 0.19223 0.70433 0.0
C2169 C 0.26312 0.05252 0.71112 0.0
C2170 C 0.21111 0.00527 0.7115 0.0
C2171 C 0.24762 0.01213 0.7031 0.0
C2172 C 0.27012 0.04111 0.70566 0.0
C2173 C 0.21823 0.99418 0.70601 0.0
C2174 C 0.2335 0.03462 0.71402 0.0
C2175 C 0.28529 0.08392 0.71363 0.0
H2176 H 0.47997 0.3327 0.73827 0.0
H2177 H 0.44959 0.28129 0.73298 0.0
H2178 H 0.52633 0.37693 0.73316 0.0
H2179 H 0.51178 0.31845 0.71692 0.0
H2180 H 0.25293 0.00362 0.69884 0.0
H2181 H 0.29269 0.05462 0.70334 0.0
H2182 H 0.20091 0.97178 0.70395 0.0
H2183 H 0.22789 0.04348 0.71821 0.0
C2184 C 0.97787 0.31746 0.70438 0.0
C2185 C 1.00437 0.36628 0.7104 0.0
C2186 C 0.988 0.33285 0.71011 0.0
C2187 C 0.00843 0.38391 0.70493 0.0
C2188 C 0.98426 0.33531 0.69881 0.0
C2189 C 0.99839 0.36845 0.69914 0.0
N2190 N 0.96511 0.28545 0.70417 0.0
C2191 C 0.96214 0.27059 0.69858 0.0
C2192 C 0.97829 0.31955 0.69305 0.0
C2193 C 0.96778 0.28713 0.69294 0.0
Gd2194 Gd 0.86616 0.22096 0.72019 0.0
Gd2195 Gd 0.95676 0.25993 0.71391 0.0
N2196 N 0.98386 0.31522 0.71535 0.0
C2197 C 0.01745 0.38105 0.71614 0.0
C2198 C 0.99834 0.32955 0.72085 0.0
C2199 C 0.01493 0.36259 0.72136 0.0
H2200 H 0.99603 0.3155 0.72489 0.0
H2201 H 0.02554 0.37375 0.72578 0.0
H2202 H 0.83057 0.1774 0.70704 0.0
H2203 H 0.95661 0.24622 0.69848 0.0
H2204 H 0.79582 0.12173 0.70431 0.0
H2205 H 0.03028 0.40666 0.71655 0.0
H2206 H 0.0205 0.40958 0.70508 0.0
H2207 H 0.86965 0.22257 0.73581 0.0
H2208 H 0.98359 0.33253 0.68867 0.0
H2209 H 0.96501 0.27507 0.68853 0.0
H2210 H 0.77583 0.06623 0.72382 0.0
H2211 H 1.00301 0.38247 0.69491 0.0
H2212 H 0.81923 0.12712 0.74253 0.0
H2213 H 0.85164 0.18468 0.74461 0.0
N2214 N 0.85049 0.18685 0.7288 0.0
C2215 C 0.83128 0.15556 0.72755 0.0
C2216 C 0.85694 0.19752 0.73483 0.0
C2217 C 0.82773 0.14367 0.73864 0.0
C2218 C 0.84616 0.17611 0.73984 0.0
C2219 C 0.81966 0.13303 0.73245 0.0
H2220 H 0.79108 0.08313 0.73474 0.0
N2221 N 0.83403 0.16836 0.71673 0.0
C2222 C 0.82293 0.14604 0.72136 0.0
C2223 C 0.79278 0.10509 0.71377 0.0
C2224 C 0.8024 0.11373 0.71997 0.0
C2225 C 0.82413 0.15994 0.71068 0.0
C2226 C 0.80375 0.12822 0.7091 0.0
O2227 O 0.93762 0.29097 0.71785 0.0
O2228 O 0.88821 0.26332 0.71395 0.0
O2229 O 0.81606 0.20825 0.71915 0.0
O2230 O 0.84747 0.24533 0.7257 0.0
O2231 O 0.94637 0.2429 0.72381 0.0
O2232 O 0.90653 0.251 0.72744 0.0
O2233 O 0.89155 0.193 0.72146 0.0
O2234 O 0.92503 0.20639 0.71291 0.0
O2235 O 0.99135 0.25174 0.71876 0.0
O2236 O 1.00025 0.26892 0.70929 0.0
O2237 O 0.873 0.2283 0.70946 0.0
O2238 O 0.91878 0.22652 0.70718 0.0
C2239 C 0.91133 0.28991 0.71603 0.0
C2240 C 0.93442 0.25232 0.72823 0.0
C2241 C 0.79248 0.23383 0.72546 0.0
C2242 C 0.73928 0.22791 0.72439 0.0
C2243 C 0.77241 0.2551 0.73341 0.0
C2244 C 0.79632 0.25011 0.73112 0.0
C2245 C 0.74428 0.24426 0.73008 0.0
C2246 C 0.76344 0.22223 0.7221 0.0
C2247 C 0.81889 0.22874 0.72338 0.0
C2248 C 0.7914 0.09116 0.72482 0.0
C2249 C 0.80007 0.10078 0.73104 0.0
H2250 H 0.77593 0.08083 0.71258 0.0
C2251 C 0.90661 0.18582 0.71722 0.0
C2252 C 0.89171 0.22428 0.70546 0.0
C2253 C 0.01743 0.23352 0.71217 0.0
C2254 C 0.05121 0.21001 0.71323 0.0
C2255 C 0.00525 0.18601 0.70633 0.0
C2256 C 0.99812 0.20948 0.70793 0.0
C2257 C 0.03157 0.18621 0.70896 0.0
C2258 C 0.0441 0.23386 0.7148 0.0
C2259 C 0.0094 0.25788 0.71388 0.0
H2260 H 0.77572 0.26751 0.7378 0.0
H2261 H 0.81786 0.25882 0.73385 0.0
H2262 H 0.72613 0.24857 0.73199 0.0
H2263 H 0.75988 0.20949 0.71774 0.0
H2264 H 0.99036 0.16764 0.70304 0.0
H2265 H 0.97756 0.20895 0.70585 0.0
H2266 H 0.03685 0.16793 0.70758 0.0
H2267 H 0.05897 0.25232 0.7181 0.0
C2268 C 0.3698 0.09313 0.13844 0.0
C2269 C 0.35212 0.04832 0.13134 0.0
C2270 C 0.3667 0.08131 0.13235 0.0
C2271 C 0.34123 0.02752 0.13649 0.0
C2272 C 0.35865 0.07221 0.1436 0.0
C2273 C 0.34448 0.03941 0.14259 0.0
N2274 N 0.38319 0.12497 0.1393 0.0
C2275 C 0.38768 0.13751 0.14518 0.0
C2276 C 0.36207 0.08487 0.14964 0.0
C2277 C 0.37677 0.11768 0.15043 0.0
Gd2278 Gd 0.34935 0.19116 0.12298 0.0
Gd2279 Gd 0.40229 0.15561 0.13024 0.0
N2280 N 0.37681 0.10192 0.12742 0.0
C2281 C 0.3485 0.03713 0.12518 0.0
C2282 C 0.37356 0.0911 0.12142 0.0
C2283 C 0.35925 0.05862 0.1202 0.0
H2284 H 0.38207 0.1072 0.11755 0.0
H2285 H 0.35666 0.05019 0.11542 0.0
H2286 H 0.34847 0.23186 0.13552 0.0
H2287 H 0.40051 0.16281 0.14585 0.0
H2288 H 0.36221 0.28647 0.13817 0.0
H2289 H 0.33738 0.01196 0.12422 0.0
H2290 H 0.33004 1.00213 0.1358 0.0
H2291 H 0.35661 0.19041 0.10714 0.0
H2292 H 0.35377 0.06955 0.15372 0.0
H2293 H 0.38014 0.12773 0.15508 0.0
H2294 H 0.39903 0.34321 0.11876 0.0
H2295 H 0.33584 0.023 0.1465 0.0
H2296 H 0.3974 0.28539 0.10051 0.0
H2297 H 0.37786 0.22861 0.09849 0.0
N2298 N 0.36896 0.22536 0.11424 0.0
C2299 C 0.37772 0.25619 0.11539 0.0
C2300 C 0.36761 0.21524 0.10821 0.0
C2301 C 0.38944 0.26881 0.10439 0.0
C2302 C 0.37863 0.23683 0.10324 0.0
C2303 C 0.3883 0.27873 0.11049 0.0
H2304 H 0.40458 0.32776 0.10807 0.0
N2305 N 0.3642 0.24286 0.12606 0.0
C2306 C 0.37442 0.26496 0.12142 0.0
C2307 C 0.37781 0.3042 0.12882 0.0
C2308 C 0.38183 0.29638 0.1227 0.0
C2309 C 0.35877 0.24997 0.13197 0.0
C2310 C 0.36605 0.28083 0.13346 0.0
O2311 O 0.348 0.12716 0.13099 0.0
O2312 O 0.33519 0.14035 0.12168 0.0
O2313 O 0.30117 0.17564 0.12679 0.0
O2314 O 0.31438 0.19401 0.11731 0.0
O2315 O 0.41015 0.16717 0.12005 0.0
O2316 O 0.36597 0.16633 0.1157 0.0
O2317 O 0.39788 0.22697 0.12658 0.0
O2318 O 0.42825 0.20321 0.12521 0.0
O2319 O 0.43876 0.14313 0.12811 0.0
O2320 O 0.44227 0.17095 0.13653 0.0
O2321 O 0.34751 0.1814 0.13369 0.0
O2322 O 0.398 0.19129 0.13606 0.0
C2323 C 0.32713 0.12154 0.12653 0.0
C2324 C 0.39222 0.16414 0.11521 0.0
C2325 C 0.26012 0.175 0.11987 0.0
C2326 C 0.21239 0.17988 0.12086 0.0
C2327 C 0.21892 0.1527 0.11191 0.0
C2328 C 0.2481 0.15841 0.11423 0.0
C2329 C 0.20121 0.16328 0.11519 0.0
C2330 C 0.24215 0.18593 0.12319 0.0
C2331 C 0.29319 0.18495 0.12171 0.0
C2332 C 0.39307 0.31895 0.11786 0.0
C2333 C 0.39636 0.31017 0.11178 0.0
H2334 H 0.38334 0.32807 0.12999 0.0
C2335 C 0.42536 0.22864 0.12566 0.0
C2336 C 0.37142 0.19 0.1377 0.0
C2337 C 0.48392 0.15841 0.13507 0.0
C2338 C 0.53825 0.17083 0.13312 0.0
C2339 C 0.51307 0.14868 0.14315 0.0
C2340 C 0.48552 0.14803 0.14112 0.0
C2341 C 0.53934 0.16015 0.13919 0.0
C2342 C 0.51025 0.16953 0.13102 0.0
C2343 C 0.45488 0.15799 0.13309 0.0
H2344 H 0.21011 0.1403 0.10751 0.0
H2345 H 0.26169 0.15052 0.11152 0.0
H2346 H 0.17873 0.15877 0.11326 0.0
H2347 H 0.25147 0.19945 0.12747 0.0
H2348 H 0.51418 0.14058 0.14782 0.0
H2349 H 0.46539 0.13932 0.14427 0.0
H2350 H 0.56074 0.16098 0.14088 0.0
H2351 H 0.50929 0.17793 0.12636 0.0
C2352 C 0.97598 0.31616 0.14006 0.0
C2353 C 0.02345 0.3464 0.13378 0.0
C2354 C 0.9904 0.32573 0.13423 0.0
C2355 C 0.04177 0.35701 0.13927 0.0
C2356 C 0.99433 0.32677 0.14558 0.0
C2357 C 0.02726 0.34715 0.14515 0.0
N2358 N 0.94408 0.29635 0.14035 0.0
C2359 C 0.92891 0.28683 0.14599 0.0
C2360 C 0.97904 0.31654 0.15137 0.0
C2361 C 0.94621 0.29658 0.15158 0.0
Gd2362 Gd 0.88727 0.19592 0.1225 0.0
Gd2363 Gd 0.91758 0.2811 0.13072 0.0
N2364 N 0.97224 0.3141 0.12899 0.0
C2365 C 0.03719 0.35545 0.12782 0.0
C2366 C 0.98553 0.32302 0.12318 0.0
C2367 C 0.01811 0.34372 0.1225 0.0
H2368 H 0.97132 0.31426 0.11905 0.0
H2369 H 0.02848 0.35054 0.11787 0.0
H2370 H 0.84484 0.15923 0.13564 0.0
H2371 H 0.90342 0.27189 0.14617 0.0
H2372 H 0.7892 0.12845 0.13885 0.0
H2373 H 0.06248 0.37128 0.12728 0.0
H2374 H 0.0672 0.37272 0.13901 0.0
H2375 H 0.88658 0.20212 0.10691 0.0
H2376 H 0.99233 0.32405 0.15572 0.0
H2377 H 0.93436 0.28877 0.15605 0.0
H2378 H 0.73131 0.1093 0.11966 0.0
H2379 H 0.04174 0.35545 0.14934 0.0
H2380 H 0.79029 0.15063 0.10063 0.0
H2381 H 0.84751 0.18407 0.0983 0.0
N2382 N 0.85185 0.17971 0.11404 0.0
C2383 C 0.82062 0.16083 0.11542 0.0
C2384 C 0.86166 0.18794 0.10799 0.0
C2385 C 0.80735 0.15852 0.10443 0.0
C2386 C 0.83961 0.17751 0.1031 0.0
C2387 C 0.79746 0.14998 0.11065 0.0
H2388 H 0.74713 0.12306 0.10863 0.0
N2389 N 0.83469 0.16456 0.12617 0.0
C2390 C 0.81174 0.15336 0.12166 0.0
C2391 C 0.77126 0.12619 0.12953 0.0
C2392 C 0.77939 0.13437 0.12324 0.0
C2393 C 0.8269 0.15441 0.13221 0.0
C2394 C 0.79516 0.13586 0.13402 0.0
O2395 O 0.95199 0.26169 0.13111 0.0
O2396 O 0.93898 0.23158 0.12219 0.0
O2397 O 0.8876 0.15247 0.1255 0.0
O2398 O 0.8974 0.16891 0.11582 0.0
O2399 O 0.9112 0.27921 0.12022 0.0
O2400 O 0.91627 0.23836 0.11578 0.0
O2401 O 0.85761 0.2193 0.12104 0.0
O2402 O 0.86597 0.24329 0.13051 0.0
O2403 O 0.91168 0.31824 0.12636 0.0
O2404 O 0.90434 0.30959 0.13636 0.0
O2405 O 0.89819 0.20084 0.13323 0.0
O2406 O 0.8845 0.2377 0.13616 0.0
C2407 C 0.95718 0.24425 0.12707 0.0
C2408 C 0.91752 0.26634 0.11541 0.0
C2409 C 0.89831 0.12045 0.1179 0.0
C2410 C 0.89246 0.06776 0.1194 0.0
C2411 C 0.91636 0.09757 0.10987 0.0
C2412 C 0.9123 0.12228 0.11203 0.0
C2413 C 0.90657 0.07056 0.11352 0.0
C2414 C 0.88823 0.09283 0.12162 0.0
C2415 C 0.8937 0.14724 0.11982 0.0
C2416 C 0.75625 0.12373 0.11851 0.0
C2417 C 0.76526 0.13147 0.11223 0.0
H2418 H 0.7467 0.11155 0.13093 0.0
C2419 C 0.84953 0.23318 0.12532 0.0
C2420 C 0.89152 0.21589 0.13765 0.0
C2421 C 0.9186 0.36085 0.13279 0.0
C2422 C 0.91352 0.40799 0.1321 0.0
C2423 C 0.95702 0.40939 0.13795 0.0
C2424 C 0.94602 0.37765 0.13645 0.0
C2425 C 0.94073 0.42446 0.13583 0.0
C2426 C 0.90262 0.37622 0.13055 0.0
C2427 C 0.9048 0.32681 0.13164 0.0
H2428 H 0.9271 0.09934 0.10534 0.0
H2429 H 0.92016 0.14292 0.10906 0.0
H2430 H 0.9099 0.05159 0.11173 0.0
H2431 H 0.87715 0.09076 0.12614 0.0
H2432 H 0.97799 0.42223 0.14083 0.0
H2433 H 0.95854 0.36613 0.13823 0.0
H2434 H 0.94937 0.44899 0.13709 0.0
H2435 H 0.88129 0.36326 0.12775 0.0
C2436 C 0.76762 0.71678 0.13776 0.0
C2437 C 0.73681 0.72985 0.13061 0.0
C2438 C 0.75549 0.71573 0.13179 0.0
C2439 C 0.73109 0.74575 0.13547 0.0
C2440 C 0.76087 0.73179 0.1427 0.0
C2441 C 0.74294 0.74656 0.1415 0.0
N2442 N 0.7842 0.70148 0.13884 0.0
C2443 C 0.79143 0.69747 0.14484 0.0
C2444 C 0.7712 0.73042 0.14875 0.0
C2445 C 0.78604 0.71269 0.14984 0.0
Gd2446 Gd 0.88267 0.73303 0.12396 0.0
Gd2447 Gd 0.79224 0.67775 0.12993 0.0
N2448 N 0.76191 0.70076 0.12712 0.0
C2449 C 0.72407 0.72713 0.1246 0.0
C2450 C 0.74806 0.69636 0.12136 0.0
C2451 C 0.72942 0.70998 0.11997 0.0
H2452 H 0.75162 0.68249 0.11786 0.0
H2453 H 0.71903 0.70709 0.11536 0.0
H2454 H 0.91818 0.71854 0.13622 0.0
H2455 H 0.80025 0.68165 0.14587 0.0
H2456 H 0.95638 0.70044 0.13784 0.0
H2457 H 0.7096 0.73766 0.12351 0.0
H2458 H 0.71694 0.75691 0.13466 0.0
H2459 H 0.87686 0.7374 0.10822 0.0
H2460 H 0.76655 0.74174 0.15266 0.0
H2461 H 0.79256 0.71 0.15456 0.0
H2462 H 0.98064 0.68082 0.11712 0.0
H2463 H 0.73728 0.75782 0.14526 0.0
H2464 H 0.93135 0.7009 0.09972 0.0
H2465 H 0.89564 0.72308 0.09877 0.0
N2466 N 0.89891 0.72044 0.11457 0.0
C2467 C 0.91953 0.70944 0.1152 0.0
C2468 C 0.89099 0.72615 0.10876 0.0
C2469 C 0.92245 0.70632 0.10392 0.0
C2470 C 0.90219 0.71871 0.10336 0.0
C2471 C 0.93177 0.702 0.10987 0.0
H2472 H 0.96308 0.68543 0.10659 0.0
N2473 N 0.9168 0.71336 0.12627 0.0
C2474 C 0.92894 0.7061 0.1212 0.0
C2475 C 0.96116 0.69399 0.128 0.0
C2476 C 0.95119 0.69583 0.12195 0.0
C2477 C 0.92645 0.71148 0.13219 0.0
C2478 C 0.94856 0.70157 0.13315 0.0
O2479 O 0.80922 0.72739 0.12601 0.0
O2480 O 0.85693 0.74826 0.1304 0.0
O2481 O 0.92993 0.7714 0.12631 0.0
O2482 O 0.9022 0.77902 0.11933 0.0
O2483 O 0.8051 0.672 0.12016 0.0
O2484 O 0.84178 0.72185 0.11683 0.0
O2485 O 0.86182 0.68004 0.12282 0.0
O2486 O 0.82463 0.65665 0.13078 0.0
O2487 O 0.75642 0.63367 0.12558 0.0
O2488 O 0.75083 0.6444 0.13515 0.0
O2489 O 0.87613 0.72937 0.13472 0.0
O2490 O 0.82923 0.68238 0.13695 0.0
C2491 C 0.83472 0.7524 0.12808 0.0
C2492 C 0.816 0.69371 0.11579 0.0
C2493 C 0.95901 0.81115 0.11872 0.0
C2494 C 0.01378 0.8559 0.11832 0.0
C2495 C 0.98792 0.82643 0.10886 0.0
C2496 C 0.96044 0.80672 0.11225 0.0
C2497 C 0.0143 0.85093 0.11185 0.0
C2498 C 0.98605 0.83573 0.12177 0.0
C2499 C 0.92935 0.79117 0.12229 0.0
C2500 C 0.96329 0.68838 0.11664 0.0
C2501 C 0.95339 0.69116 0.11063 0.0
H2502 H 0.97913 0.68748 0.12875 0.0
C2503 C 0.84506 0.65644 0.12671 0.0
C2504 C 0.85726 0.70611 0.1386 0.0
C2505 C 0.73145 0.59082 0.1327 0.0
C2506 C 0.69825 0.53354 0.13143 0.0
C2507 C 0.73593 0.55524 0.14006 0.0
C2508 C 0.74567 0.5859 0.13799 0.0
C2509 C 0.71232 0.52925 0.13684 0.0
C2510 C 0.70789 0.5646 0.12941 0.0
C2511 C 0.74019 0.62316 0.13075 0.0
H2512 H 0.98869 0.82286 0.10386 0.0
H2513 H 0.94022 0.78827 0.10978 0.0
H2514 H 0.03527 0.86607 0.10911 0.0
H2515 H 0.9853 0.83952 0.12676 0.0
H2516 H 0.74651 0.55161 0.14421 0.0
H2517 H 0.76399 0.60574 0.14059 0.0
H2518 H 0.70469 0.50573 0.13866 0.0
H2519 H 0.69711 0.56843 0.12529 0.0
C2520 C 0.82483 0.70374 0.61564 0.0
C2521 C 0.78538 0.69969 0.62313 0.0
C2522 C 0.81668 0.70694 0.62175 0.0
C2523 C 0.76257 0.68917 0.61833 0.0
C2524 C 0.80185 0.69289 0.61083 0.0
C2525 C 0.77075 0.6857 0.61221 0.0
N2526 N 0.855 0.71042 0.61443 0.0
C2527 C 0.864 0.70784 0.6085 0.0
C2528 C 0.81075 0.68943 0.60477 0.0
C2529 C 0.84198 0.69704 0.6036 0.0
Gd2530 Gd 0.92329 0.67471 0.63008 0.0
Gd2531 Gd 0.89016 0.73015 0.62293 0.0
N2532 N 0.8388 0.71556 0.62638 0.0
C2533 C 0.77768 0.70244 0.62933 0.0
C2534 C 0.83167 0.71956 0.63238 0.0
C2535 C 0.80098 0.71258 0.63396 0.0
H2536 H 0.84958 0.72907 0.63596 0.0
H2537 H 0.79542 0.71547 0.63875 0.0
H2538 H 0.95867 0.66204 0.61781 0.0
H2539 H 0.88828 0.71481 0.60745 0.0
H2540 H 0.0131 0.67913 0.61422 0.0
H2541 H 0.7539 0.69697 0.63058 0.0
H2542 H 0.73841 0.68333 0.61933 0.0
H2543 H 0.92861 0.69353 0.64533 0.0
H2544 H 0.79377 0.68113 0.60095 0.0
H2545 H 0.84921 0.69492 0.59891 0.0
H2546 H 0.07857 0.73829 0.63159 0.0
H2547 H 0.75281 0.67732 0.60857 0.0
H2548 H 0.02685 0.74319 0.65034 0.0
H2549 H 0.97071 0.72289 0.65316 0.0
N2550 N 0.96083 0.69991 0.63802 0.0
C2551 C 0.99143 0.70978 0.63642 0.0
C2552 C 0.95308 0.70347 0.64399 0.0
C2553 C 0.00851 0.73084 0.64686 0.0
C2554 C 0.97683 0.7195 0.64847 0.0
C2555 C 0.01615 0.72575 0.6408 0.0
H2556 H 0.06694 0.7489 0.64225 0.0
N2557 N 0.97365 0.68891 0.62621 0.0
C2558 C 0.99802 0.70447 0.63033 0.0
C2559 C 0.03497 0.70582 0.6226 0.0
C2560 C 0.02947 0.71402 0.62857 0.0
C2561 C 0.97851 0.67812 0.62067 0.0
C2562 C 0.00928 0.68708 0.6187 0.0
O2563 O 0.85572 0.67741 0.62227 0.0
O2564 O 0.87007 0.65108 0.62953 0.0
O2565 O 0.91924 0.62891 0.62769 0.0
O2566 O 0.91735 0.64171 0.63746 0.0
O2567 O 0.89888 0.73139 0.63365 0.0
O2568 O 0.88796 0.68057 0.63584 0.0
O2569 O 0.9534 0.72909 0.63119 0.0
O2570 O 0.94141 0.74524 0.62213 0.0
O2571 O 0.89751 0.77657 0.62632 0.0
O2572 O 0.89559 0.76586 0.61633 0.0
O2573 O 0.91284 0.67008 0.61961 0.0
O2574 O 0.92092 0.71905 0.61632 0.0
C2575 C 0.85014 0.65212 0.62551 0.0
C2576 C 0.89043 0.70746 0.63762 0.0
C2577 C 0.9121 0.59003 0.63581 0.0
C2578 C 0.89742 0.53469 0.63413 0.0
C2579 C 0.90939 0.55706 0.64462 0.0
C2580 C 0.91511 0.58612 0.64225 0.0
C2581 C 0.90046 0.53146 0.6406 0.0
C2582 C 0.90358 0.56419 0.63171 0.0
C2583 C 0.91603 0.62053 0.63357 0.0
C2584 C 0.05424 0.73048 0.63288 0.0
C2585 C 0.0476 0.73636 0.63897 0.0
H2586 H 0.05877 0.71264 0.62108 0.0
C2587 C 0.95958 0.75143 0.62701 0.0
C2588 C 0.91989 0.69167 0.61523 0.0
C2589 C 0.90368 0.81781 0.61866 0.0
C2590 C 0.89831 0.86507 0.61992 0.0
C2591 C 0.92322 0.85863 0.6106 0.0
C2592 C 0.91858 0.82981 0.61285 0.0
C2593 C 0.91322 0.87612 0.61409 0.0
C2594 C 0.89332 0.83557 0.62223 0.0
C2595 C 0.89771 0.78593 0.62057 0.0
H2596 H 0.91168 0.55432 0.6496 0.0
H2597 H 0.92168 0.60553 0.6455 0.0
H2598 H 0.896 0.509 0.64253 0.0
H2599 H 0.90093 0.56668 0.62672 0.0
H2600 H 0.93453 0.86742 0.60609 0.0
H2601 H 0.92657 0.81674 0.61 0.0
H2602 H 0.91692 0.89839 0.6122 0.0
H2603 H 0.88139 0.82652 0.62667 0.0
C2604 C 0.37996 0.15952 0.61547 0.0
C2605 C 0.38634 0.12663 0.62323 0.0
C2606 C 0.37706 0.14898 0.62163 0.0
C2607 C 0.39936 0.11589 0.61862 0.0
C2608 C 0.39299 0.14874 0.61083 0.0
C2609 C 0.40277 0.12699 0.61245 0.0
N2610 N 0.37056 0.18079 0.61404 0.0
C2611 C 0.37269 0.19154 0.60804 0.0
C2612 C 0.39582 0.16015 0.6047 0.0
C2613 C 0.38552 0.18156 0.6033 0.0
Gd2614 Gd 0.40192 0.28144 0.6304 0.0
Gd2615 Gd 0.34849 0.19529 0.62226 0.0
N2616 N 0.3653 0.16059 0.62605 0.0
C2617 C 0.38226 0.11571 0.62941 0.0
C2618 C 0.35964 0.14855 0.632 0.0
C2619 C 0.36858 0.12649 0.6338 0.0
H2620 H 0.34723 0.15475 0.63536 0.0
H2621 H 0.36438 0.11742 0.63855 0.0
H2622 H 0.39153 0.31775 0.61782 0.0
H2623 H 0.36394 0.20732 0.60685 0.0
H2624 H 0.36802 0.35083 0.61548 0.0
H2625 H 0.38909 0.09857 0.63082 0.0
H2626 H 0.40682 0.09894 0.61978 0.0
H2627 H 0.39669 0.27073 0.64596 0.0
H2628 H 0.40569 0.15242 0.601 0.0
H2629 H 0.38721 0.19018 0.59855 0.0
H2630 H 0.33361 0.36712 0.6355 0.0
H2631 H 0.41287 0.11848 0.60895 0.0
H2632 H 0.35122 0.3192 0.65354 0.0
H2633 H 0.37476 0.28501 0.65503 0.0
N2634 N 0.38322 0.29453 0.63935 0.0
C2635 C 0.37069 0.31367 0.63842 0.0
C2636 C 0.3854 0.28475 0.64523 0.0
C2637 C 0.36026 0.31258 0.64952 0.0
C2638 C 0.37362 0.2933 0.65039 0.0
C2639 C 0.35874 0.3231 0.64349 0.0
H2640 H 0.33612 0.3499 0.64623 0.0
N2641 N 0.38013 0.3131 0.6275 0.0
C2642 C 0.36916 0.32328 0.63234 0.0
C2643 C 0.35487 0.35218 0.62507 0.0
C2644 C 0.35581 0.34273 0.63122 0.0
C2645 C 0.38057 0.32347 0.62155 0.0
C2646 C 0.36765 0.34279 0.62022 0.0
O2647 O 0.40163 0.21637 0.62167 0.0
O2648 O 0.41976 0.24675 0.63059 0.0
O2649 O 0.4467 0.32277 0.62718 0.0
O2650 O 0.43801 0.30945 0.63711 0.0
O2651 O 0.34254 0.20019 0.63294 0.0
O2652 O 0.39272 0.2385 0.63591 0.0
O2653 O 0.3479 0.25885 0.63095 0.0
O2654 O 0.33479 0.2326 0.62167 0.0
O2655 O 0.30209 0.15445 0.62512 0.0
O2656 O 0.31381 0.16692 0.61528 0.0
O2657 O 0.40962 0.27807 0.62 0.0
O2658 O 0.36265 0.23828 0.6157 0.0
C2659 C 0.42408 0.23281 0.62574 0.0
C2660 C 0.3644 0.21519 0.63732 0.0
C2661 C 0.48863 0.35521 0.63482 0.0
C2662 C 0.54324 0.39546 0.63254 0.0
C2663 C 0.52482 0.38466 0.64331 0.0
C2664 C 0.49484 0.36186 0.64126 0.0
C2665 C 0.54896 0.40122 0.63899 0.0
C2666 C 0.51294 0.37249 0.63043 0.0
C2667 C 0.45749 0.32867 0.63292 0.0
C2668 C 0.34396 0.3522 0.63627 0.0
C2669 C 0.34542 0.34243 0.64239 0.0
H2670 H 0.34487 0.36716 0.62402 0.0
C2671 C 0.32678 0.24288 0.62659 0.0
C2672 C 0.39052 0.26497 0.61517 0.0
C2673 C 0.26228 0.12059 0.61715 0.0
C2674 C 0.21388 0.0685 0.6184 0.0
C2675 C 0.22505 0.0971 0.60851 0.0
C2676 C 0.25294 0.12178 0.61097 0.0
C2677 C 0.20574 0.07077 0.61217 0.0
C2678 C 0.2426 0.09355 0.6209 0.0
C2679 C 0.29346 0.14715 0.6193 0.0
H2680 H 0.5294 0.38936 0.64828 0.0
H2681 H 0.47655 0.34915 0.64473 0.0
H2682 H 0.57221 0.41874 0.64067 0.0
H2683 H 0.50863 0.36767 0.62545 0.0
H2684 H 0.21839 0.09834 0.60372 0.0
H2685 H 0.26738 0.14187 0.60796 0.0
H2686 H 0.18428 0.05184 0.6101 0.0
H2687 H 0.24948 0.092 0.62567 0.0
C2688 C 0.92268 0.25084 0.61585 0.0
C2689 C 0.95095 0.29385 0.62327 0.0
C2690 C 0.92984 0.26145 0.62202 0.0
C2691 C 0.96463 0.31527 0.61827 0.0
C2692 C 0.93647 0.27238 0.61083 0.0
C2693 C 0.95745 0.30456 0.61207 0.0
N2694 N 0.9018 0.21968 0.61476 0.0
C2695 C 0.89474 0.2083 0.60877 0.0
C2696 C 0.92869 0.26097 0.60468 0.0
C2697 C 0.90784 0.22878 0.60365 0.0
Gd2698 Gd 0.79052 0.15156 0.62865 0.0
Gd2699 Gd 0.88293 0.18732 0.62367 0.0
N2700 N 0.91603 0.24027 0.6268 0.0
C2701 C 0.95782 0.30384 0.6295 0.0
C2702 C 0.92368 0.2498 0.63289 0.0
C2703 C 0.94428 0.28168 0.63433 0.0
H2704 H 0.91487 0.23307 0.63668 0.0
H2705 H 0.95006 0.28906 0.63917 0.0
H2706 H 0.74495 0.10337 0.61754 0.0
H2707 H 0.87995 0.18331 0.60786 0.0
H2708 H 0.7131 0.04544 0.61549 0.0
H2709 H 0.97391 0.3285 0.63064 0.0
H2710 H 0.98088 0.3402 0.61914 0.0
H2711 H 0.79139 0.15889 0.64447 0.0
H2712 H 0.93886 0.27676 0.6007 0.0
H2713 H 0.90216 0.21962 0.59892 0.0
H2714 H 0.71795 0.99843 0.63503 0.0
H2715 H 0.96824 0.3214 0.60826 0.0
H2716 H 0.76298 0.06835 0.65256 0.0
H2717 H 0.7836 0.12594 0.65377 0.0
N2718 N 0.781 0.12197 0.63797 0.0
C2719 C 0.76617 0.08995 0.63725 0.0
C2720 C 0.78521 0.13456 0.64384 0.0
C2721 C 0.76787 0.08311 0.64843 0.0
C2722 C 0.77975 0.11562 0.64914 0.0
C2723 C 0.75974 0.06968 0.64244 0.0
H2724 H 0.73877 0.02074 0.64547 0.0
N2725 N 0.75914 0.09746 0.62658 0.0
C2726 C 0.75415 0.07725 0.6314 0.0
C2727 C 0.72172 0.03267 0.62468 0.0
C2728 C 0.73583 0.0442 0.63055 0.0
C2729 C 0.74328 0.08665 0.62106 0.0
C2730 C 0.72494 0.05404 0.61996 0.0
O2731 O 0.86062 0.21769 0.62162 0.0
O2732 O 0.8236 0.20472 0.62952 0.0
O2733 O 0.75725 0.16165 0.62375 0.0
O2734 O 0.74791 0.14446 0.63327 0.0
O2735 O 0.87267 0.18145 0.63425 0.0
O2736 O 0.82685 0.18425 0.63581 0.0
O2737 O 0.80716 0.11814 0.62506 0.0
O2738 O 0.85455 0.14488 0.62969 0.0
O2739 O 0.92916 0.19494 0.62649 0.0
O2740 O 0.90394 0.16264 0.6189 0.0
O2741 O 0.80319 0.16562 0.61851 0.0
O2742 O 0.84482 0.15679 0.61628 0.0
C2743 C 0.8433 0.22478 0.6253 0.0
C2744 C 0.85354 0.18655 0.63787 0.0
C2745 C 0.73202 0.18074 0.63039 0.0
C2746 C 0.69926 0.20513 0.62918 0.0
C2747 C 0.74367 0.22746 0.63646 0.0
C2748 C 0.75045 0.2037 0.63488 0.0
C2749 C 0.71828 0.22827 0.63362 0.0
C2750 C 0.70629 0.18134 0.62758 0.0
C2751 C 0.73941 0.15603 0.62867 0.0
C2752 C 0.7315 0.02393 0.63561 0.0
C2753 C 0.74348 0.03666 0.64155 0.0
H2754 H 0.70742 0.00742 0.62383 0.0
C2755 C 0.83279 0.11883 0.62714 0.0
C2756 C 0.81898 0.15778 0.6146 0.0
C2757 C 0.9607 0.18864 0.61884 0.0
C2758 C 0.01555 0.19924 0.61859 0.0
C2759 C 0.99268 0.21022 0.60945 0.0
C2760 C 0.9641 0.19951 0.61264 0.0
C2761 C 0.01813 0.20992 0.61238 0.0
C2762 C 0.98677 0.18892 0.62185 0.0
C2763 C 0.93012 0.17656 0.62218 0.0
H2764 H 0.75799 0.24516 0.63991 0.0
H2765 H 0.7701 0.20325 0.63717 0.0
H2766 H 0.71304 0.24657 0.635 0.0
H2767 H 0.69188 0.16345 0.62415 0.0
H2768 H 0.995 0.2185 0.60466 0.0
H2769 H 0.94462 0.19944 0.61021 0.0
H2770 H 0.03999 0.21803 0.60978 0.0
H2771 H 0.98443 0.18043 0.62663 0.0
C2772 C 0.38015 0.16237 0.22834 0.0
C2773 C 0.36723 0.11861 0.22125 0.0
C2774 C 0.37696 0.15086 0.22227 0.0
C2775 C 0.36067 0.09824 0.2264 0.0
C2776 C 0.3738 0.14202 0.23353 0.0
C2777 C 0.36395 0.10991 0.23252 0.0
N2778 N 0.38984 0.19355 0.22919 0.0
C2779 C 0.39477 0.20618 0.23507 0.0
C2780 C 0.37787 0.15463 0.23958 0.0
C2781 C 0.38856 0.1869 0.24035 0.0
Gd2782 Gd 0.34594 0.25593 0.21221 0.0
Gd2783 Gd 0.40071 0.2243 0.2201 0.0
N2784 N 0.38276 0.17101 0.21738 0.0
C2785 C 0.36429 0.10774 0.21508 0.0
C2786 C 0.38146 0.16075 0.21137 0.0
C2787 C 0.3717 0.12898 0.21012 0.0
H2788 H 0.38882 0.17683 0.20748 0.0
H2789 H 0.37041 0.12102 0.20534 0.0
H2790 H 0.37093 0.30629 0.22471 0.0
H2791 H 0.40451 0.23135 0.2357 0.0
H2792 H 0.39387 0.36313 0.22661 0.0
H2793 H 0.35686 0.08316 0.2141 0.0
H2794 H 0.35312 0.07342 0.2257 0.0
H2795 H 0.34767 0.24751 0.19666 0.0
H2796 H 0.37329 0.13978 0.24367 0.0
H2797 H 0.39247 0.19702 0.245 0.0
H2798 H 0.41476 0.40885 0.20604 0.0
H2799 H 0.35895 0.09393 0.23644 0.0
H2800 H 0.39098 0.33981 0.18838 0.0
H2801 H 0.36648 0.28163 0.18726 0.0
N2802 N 0.36375 0.28593 0.20302 0.0
C2803 C 0.37662 0.31778 0.20375 0.0
C2804 C 0.35973 0.27286 0.1972 0.0
C2805 C 0.38337 0.32493 0.19252 0.0
C2806 C 0.36972 0.29213 0.19187 0.0
C2807 C 0.38686 0.33815 0.19851 0.0
H2808 H 0.40825 0.38697 0.1954 0.0
N2809 N 0.37177 0.3101 0.2148 0.0
C2810 C 0.38044 0.33017 0.2098 0.0
C2811 C 0.39861 0.37497 0.21679 0.0
C2812 C 0.3944 0.36319 0.21067 0.0
C2813 C 0.37681 0.32169 0.22077 0.0
C2814 C 0.39016 0.35417 0.22186 0.0
O2815 O 0.34822 0.18937 0.22101 0.0
O2816 O 0.3235 0.20251 0.21318 0.0
O2817 O 0.3044 0.259 0.21541 0.0
O2818 O 0.30869 0.24699 0.20569 0.0
O2819 O 0.40152 0.23129 0.20928 0.0
O2820 O 0.35042 0.21861 0.2071 0.0
O2821 O 0.40006 0.28544 0.21108 0.0
O2822 O 0.41156 0.2744 0.22062 0.0
O2823 O 0.44375 0.22763 0.21605 0.0
O2824 O 0.44396 0.24199 0.22558 0.0
O2825 O 0.33828 0.24597 0.22253 0.0
O2826 O 0.38285 0.24847 0.22716 0.0
C2827 C 0.32318 0.18348 0.21764 0.0
C2828 C 0.37753 0.22199 0.20529 0.0
C2829 C 0.26168 0.2496 0.208 0.0
C2830 C 0.20721 0.23629 0.21018 0.0
C2831 C 0.22841 0.25082 0.19964 0.0
C2832 C 0.25731 0.25477 0.20168 0.0
C2833 C 0.20345 0.24148 0.20384 0.0
C2834 C 0.23655 0.24067 0.2123 0.0
C2835 C 0.2918 0.25152 0.20983 0.0
C2836 C 0.40404 0.38344 0.20544 0.0
C2837 C 0.40037 0.37097 0.19938 0.0
H2838 H 0.40856 0.40007 0.21766 0.0
C2839 C 0.42066 0.29195 0.21561 0.0
C2840 C 0.35581 0.24924 0.22748 0.0
C2841 C 0.47586 0.2187 0.22337 0.0
C2842 C 0.51936 0.20684 0.22259 0.0
C2843 C 0.48004 0.18308 0.23085 0.0
C2844 C 0.46468 0.19886 0.22867 0.0
C2845 C 0.50717 0.18706 0.22785 0.0
C2846 C 0.50351 0.22261 0.2203 0.0
C2847 C 0.45947 0.2362 0.22131 0.0
H2848 H 0.22526 0.25475 0.19476 0.0
H2849 H 0.27624 0.26164 0.1983 0.0
H2850 H 0.18104 0.23829 0.20215 0.0
H2851 H 0.23944 0.23627 0.21718 0.0
H2852 H 0.47105 0.16796 0.23494 0.0
H2853 H 0.44434 0.19585 0.23125 0.0
H2854 H 0.5189 0.17478 0.22968 0.0
H2855 H 0.51286 0.23808 0.21626 0.0
C2856 C 0.91957 0.25311 0.22844 0.0
C2857 C 0.96315 0.28235 0.22121 0.0
C2858 C 0.9307 0.26102 0.22233 0.0
C2859 C 0.98417 0.29529 0.22628 0.0
C2860 C 0.94058 0.26617 0.23356 0.0
C2861 C 0.97292 0.28723 0.23244 0.0
N2862 N 0.88821 0.23247 0.22939 0.0
C2863 C 0.87616 0.22425 0.23531 0.0
C2864 C 0.92844 0.25765 0.23964 0.0
C2865 C 0.89608 0.23664 0.24052 0.0
Gd2866 Gd 0.82775 0.12822 0.21263 0.0
Gd2867 Gd 0.85646 0.21391 0.22041 0.0
N2868 N 0.90985 0.24759 0.2175 0.0
C2869 C 0.97349 0.29029 0.21501 0.0
C2870 C 0.9197 0.25651 0.21147 0.0
C2871 C 0.95165 0.27741 0.21012 0.0
H2872 H 0.90311 0.24866 0.20767 0.0
H2873 H 0.95928 0.2841 0.20532 0.0
H2874 H 0.78154 0.09067 0.22523 0.0
H2875 H 0.85106 0.20861 0.23603 0.0
H2876 H 0.72499 0.05768 0.22766 0.0
H2877 H 0.99811 0.30694 0.21397 0.0
H2878 H 0.00918 0.31163 0.22549 0.0
H2879 H 0.83288 0.13681 0.19703 0.0
H2880 H 0.9438 0.26723 0.24369 0.0
H2881 H 0.88644 0.23014 0.24521 0.0
H2882 H 0.67374 0.04032 0.20766 0.0
H2883 H 0.98942 0.29747 0.23631 0.0
H2884 H 0.73886 0.08662 0.1895 0.0
H2885 H 0.79676 0.12039 0.18792 0.0
N2886 N 0.7957 0.11371 0.20368 0.0
C2887 C 0.7641 0.0943 0.20465 0.0
C2888 C 0.80758 0.12269 0.19777 0.0
C2889 C 0.75459 0.09395 0.19351 0.0
C2890 C 0.78724 0.1131 0.1926 0.0
C2891 C 0.74264 0.08419 0.19958 0.0
H2892 H 0.69318 0.05683 0.1969 0.0
N2893 N 0.77444 0.09554 0.21557 0.0
C2894 C 0.75315 0.08501 0.21076 0.0
C2895 C 0.71022 0.05599 0.21807 0.0
C2896 C 0.72042 0.06531 0.2119 0.0
C2897 C 0.76472 0.08503 0.22153 0.0
C2898 C 0.73253 0.06559 0.22289 0.0
O2899 O 0.89021 0.195 0.22165 0.0
O2900 O 0.8802 0.16429 0.21286 0.0
O2901 O 0.83108 0.08649 0.21576 0.0
O2902 O 0.83861 0.10219 0.20598 0.0
O2903 O 0.84783 0.20818 0.20964 0.0
O2904 O 0.86124 0.17067 0.20695 0.0
O2905 O 0.79528 0.14976 0.21161 0.0
O2906 O 0.8065 0.17445 0.22096 0.0
O2907 O 0.852 0.253 0.21642 0.0
O2908 O 0.84165 0.24098 0.22617 0.0
O2909 O 0.838 0.13212 0.22308 0.0
O2910 O 0.82894 0.17123 0.22712 0.0
C2911 C 0.89778 0.1789 0.21777 0.0
C2912 C 0.85562 0.19338 0.20538 0.0
C2913 C 0.84453 0.05697 0.20804 0.0
C2914 C 0.85098 0.01123 0.21007 0.0
C2915 C 0.85887 0.03306 0.19957 0.0
C2916 C 0.85201 0.05596 0.20169 0.0
C2917 C 0.85827 0.01076 0.20372 0.0
C2918 C 0.8443 0.03456 0.21227 0.0
C2919 C 0.83801 0.08218 0.21006 0.0
C2920 C 0.69897 0.05539 0.20686 0.0
C2921 C 0.71004 0.06477 0.20073 0.0
H2922 H 0.68529 0.04085 0.21914 0.0
C2923 C 0.78881 0.16472 0.21598 0.0
C2924 C 0.83135 0.14528 0.22782 0.0
C2925 C 0.86419 0.29545 0.22352 0.0
C2926 C 0.87481 0.35025 0.22272 0.0
C2927 C 0.90419 0.33689 0.23014 0.0
C2928 C 0.88735 0.30533 0.22825 0.0
C2929 C 0.89793 0.35916 0.22742 0.0
C2930 C 0.85806 0.31826 0.22071 0.0
C2931 C 0.84566 0.26129 0.2218 0.0
H2932 H 0.86469 0.03261 0.19468 0.0
H2933 H 0.85271 0.073 0.19833 0.0
H2934 H 0.86372 0.99311 0.20198 0.0
H2935 H 0.83885 0.03509 0.21718 0.0
H2936 H 0.92187 0.34404 0.2338 0.0
H2937 H 0.89211 0.28861 0.23062 0.0
H2938 H 0.91101 0.38351 0.22903 0.0
H2939 H 0.83996 0.31107 0.21713 0.0
C2940 C 0.83469 0.72206 0.22764 0.0
C2941 C 0.81226 0.74086 0.21971 0.0
C2942 C 0.82845 0.72463 0.22137 0.0
C2943 C 0.80362 0.75539 0.22439 0.0
C2944 C 0.82584 0.73641 0.23236 0.0
C2945 C 0.81042 0.7532 0.2307 0.0
N2946 N 0.85014 0.70613 0.22912 0.0
C2947 C 0.85691 0.70307 0.23521 0.0
C2948 C 0.83292 0.73359 0.23861 0.0
C2949 C 0.84845 0.71678 0.24004 0.0
Gd2950 Gd 0.95204 0.73426 0.21368 0.0
Gd2951 Gd 0.86388 0.68444 0.22074 0.0
N2952 N 0.83784 0.71097 0.21691 0.0
C2953 C 0.8047 0.74153 0.21341 0.0
C2954 C 0.82799 0.70927 0.21085 0.0
C2955 C 0.81208 0.72515 0.20898 0.0
H2956 H 0.83095 0.6947 0.20745 0.0
H2957 H 0.80492 0.72417 0.20413 0.0
H2958 H 0.99955 0.74066 0.22568 0.0
H2959 H 0.86855 0.68977 0.23634 0.0
H2960 H 0.03236 0.71756 0.22893 0.0
H2961 H 0.79223 0.75367 0.21195 0.0
H2962 H 0.79141 0.76815 0.22319 0.0
H2963 H 0.94128 0.72285 0.19817 0.0
H2964 H 0.82646 0.74424 0.24237 0.0
H2965 H 0.85388 0.71434 0.24486 0.0
H2966 H 0.03156 0.65788 0.21096 0.0
H2967 H 0.8035 0.76445 0.23425 0.0
H2968 H 0.98066 0.66575 0.19232 0.0
H2969 H 0.95103 0.69351 0.18985 0.0
N2970 N 0.96264 0.70964 0.20533 0.0
C2971 C 0.98034 0.69596 0.20672 0.0
C2972 C 0.95297 0.70972 0.19933 0.0
C2973 C 0.97591 0.67814 0.196 0.0
C2974 C 0.95907 0.69365 0.1946 0.0
C2975 C 0.98716 0.67951 0.20211 0.0
H2976 H 0.01039 0.65227 0.20026 0.0
N2977 N 0.98523 0.71524 0.2171 0.0
C2978 C 0.99173 0.69862 0.2128 0.0
C2979 C 0.02473 0.6915 0.22033 0.0
C2980 C 0.01105 0.68564 0.21435 0.0
C2981 C 1.00115 0.72379 0.22265 0.0
C2982 C 0.02046 0.7114 0.22443 0.0
O2983 O 0.89253 0.73706 0.22276 0.0
O2984 O 0.92017 0.75555 0.21365 0.0
O2985 O 0.99224 0.78005 0.21673 0.0
O2986 O 0.9832 0.76758 0.20678 0.0
O2987 O 0.87122 0.68138 0.21007 0.0
O2988 O 0.91244 0.73105 0.20781 0.0
O2989 O 0.92514 0.67991 0.21272 0.0
O2990 O 0.89468 0.66275 0.22161 0.0
O2991 O 0.82262 0.64317 0.21668 0.0
O2992 O 0.82693 0.64883 0.2267 0.0
O2993 O 0.94795 0.73682 0.22429 0.0
O2994 O 0.90309 0.69034 0.22765 0.0
C2995 C 0.907 0.75967 0.21863 0.0
C2996 C 0.8879 0.70438 0.206 0.0
C2997 C 0.02842 0.81904 0.209 0.0
C2998 C 0.07033 0.87322 0.21116 0.0
C2999 C 0.06289 0.85215 0.2006 0.0
C3000 C 0.03774 0.82341 0.20267 0.0
C3001 C 0.07909 0.87693 0.20481 0.0
C3002 C 0.0449 0.8442 0.21328 0.0
C3003 C 1.00077 0.78859 0.21093 0.0
C3004 C 0.01706 0.66833 0.20983 0.0
C3005 C 1.00511 0.66524 0.20373 0.0
H3006 H 0.03978 0.68203 0.22171 0.0
C3007 C 0.90923 0.65785 0.21696 0.0
C3008 C 0.9316 0.71565 0.22867 0.0
C3009 C 0.79285 0.59656 0.22287 0.0
C3010 C 0.74371 0.54485 0.22242 0.0
C3011 C 0.79176 0.54948 0.22695 0.0
C3012 C 0.80819 0.58203 0.22575 0.0
C3013 C 0.75975 0.53108 0.22535 0.0
C3014 C 0.76055 0.57774 0.22112 0.0
C3015 C 0.80949 0.63147 0.22208 0.0
H3016 H 0.06975 0.85528 0.19571 0.0
H3017 H 0.02549 0.80461 0.19927 0.0
H3018 H 0.09849 0.89921 0.20311 0.0
H3019 H 0.03787 0.84143 0.21817 0.0
H3020 H 0.80378 0.53852 0.22921 0.0
H3021 H 0.8327 0.596 0.2272 0.0
H3022 H 0.74741 0.50594 0.22641 0.0
H3023 H 0.74834 0.58879 0.21895 0.0
H3024 H 0.36858 0.15561 0.10276 0.0
H3025 H 0.38855 0.14124 0.0935 0.0
H3026 H 0.45693 0.13327 0.1051 0.0
H3027 H 0.44047 0.15134 0.11395 0.0
H3028 H 0.48528 0.15376 0.09569 0.0
H3029 H 0.3763 0.06587 0.09811 0.0
H3030 H 0.31826 0.04328 0.09861 0.0
H3031 H 0.31921 0.08055 0.08029 0.0
H3032 H 0.37726 0.10355 0.07971 0.0
H3033 H 0.47988 0.02881 0.07254 0.0
H3034 H 0.46424 0.04733 0.08194 0.0
H3035 H 0.48519 0.13329 0.07228 0.0
H3036 H 0.50288 0.11661 0.06321 0.0
H3037 H 0.41301 0.07344 0.0804 0.0
H3038 H 0.52452 0.16824 0.07938 0.0
H3039 H 0.58253 0.19145 0.07948 0.0
H3040 H 0.57571 0.13856 0.09611 0.0
H3041 H 0.51737 0.11432 0.09599 0.0
C3042 C 0.38835 0.15163 0.10331 0.0
C3043 C 0.40275 0.1553 0.10922 0.0
C3044 C 0.39947 0.14257 0.09799 0.0
C3045 C 0.42419 0.13528 0.09849 0.0
C3046 C 0.43822 0.13886 0.1044 0.0
C3047 C 0.42829 0.14919 0.10957 0.0
C3048 C 0.43613 0.12408 0.09303 0.0
C3049 C 0.46907 0.13587 0.09243 0.0
C3050 C 0.41585 0.10103 0.08859 0.0
C3051 C 0.381 0.08651 0.08889 0.0
C3052 C 0.36407 0.0692 0.09419 0.0
C3053 C 0.33121 0.05638 0.09449 0.0
C3054 C 0.31506 0.06052 0.08949 0.0
C3055 C 0.33173 0.07737 0.08416 0.0
C3056 C 0.36458 0.09025 0.08384 0.0
C3057 C 0.48223 0.0521 0.07249 0.0
C3058 C 0.49291 0.07101 0.06704 0.0
C3059 C 0.47295 0.06258 0.07786 0.0
C3060 C 0.47393 0.09204 0.07788 0.0
C3061 C 0.48496 0.11095 0.0725 0.0
C3062 C 0.49489 0.10102 0.06724 0.0
C3063 C 0.46155 0.10259 0.08327 0.0
C3064 C 0.42877 0.09087 0.08378 0.0
C3065 C 0.48185 0.12547 0.08767 0.0
C3066 C 0.51658 0.13868 0.08754 0.0
C3067 C 0.53529 0.16084 0.08294 0.0
C3068 C 0.56826 0.17434 0.08303 0.0
C3069 C 0.58282 0.16621 0.08775 0.0
C3070 C 0.56439 0.14457 0.09241 0.0
C3071 C 0.53137 0.13085 0.09232 0.0
H3072 H 0.60838 0.17689 0.08784 0.0
H3073 H 0.28963 0.05063 0.08973 0.0
H3074 H 0.93153 0.32788 0.1143 0.0
H3075 H 0.95047 0.363 0.10546 0.0
H3076 H 0.94502 0.28784 0.09389 0.0
H3077 H 0.92841 0.25242 0.1031 0.0
H3078 H 0.99246 0.33737 0.09002 0.0
H3079 H 0.88847 0.31968 0.09355 0.0
H3080 H 0.84326 0.3157 0.09954 0.0
H3081 H 0.89816 0.41431 0.1044 0.0
H3082 H 0.9438 0.4188 0.09849 0.0
H3083 H 0.97042 0.42318 0.06327 0.0
H3084 H 0.95487 0.38901 0.07238 0.0
H3085 H 0.03859 0.45776 0.08215 0.0
H3086 H 0.05581 0.49214 0.07276 0.0
H3087 H 0.95094 0.41064 0.08643 0.0
H3088 H 0.0582 0.42094 0.08303 0.0
H3089 H 0.09715 0.41932 0.07587 0.0
H3090 H 0.0264 0.3271 0.06943 0.0
H3091 H 0.98682 0.32869 0.07644 0.0
C3092 C 0.93408 0.31821 0.10991 0.0
C3093 C 0.92791 0.2866 0.10953 0.0
C3094 C 0.94474 0.33869 0.10475 0.0
C3095 C 0.94828 0.32834 0.09883 0.0
C3096 C 0.94229 0.29677 0.09836 0.0
C3097 C 0.93249 0.27626 0.10365 0.0
C3098 C 0.95909 0.35104 0.09328 0.0
C3099 C 0.98312 0.3532 0.08929 0.0
C3100 C 0.94716 0.37203 0.09212 0.0
C3101 C 0.91962 0.36951 0.09561 0.0
C3102 C 0.89093 0.34048 0.09592 0.0
C3103 C 0.86523 0.33814 0.09929 0.0
C3104 C 0.86785 0.36472 0.10235 0.0
C3105 C 0.89616 0.39374 0.10202 0.0
C3106 C 0.92193 0.39621 0.09865 0.0
C3107 C 0.98596 0.43152 0.06731 0.0
C3108 C 0.01482 0.4609 0.06715 0.0
C3109 C 0.97679 0.41157 0.07256 0.0
C3110 C 0.99568 0.42022 0.07795 0.0
C3111 C 0.02385 0.45004 0.07799 0.0
C3112 C 0.03355 0.46997 0.07263 0.0
C3113 C 0.98514 0.39777 0.08346 0.0
C3114 C 0.96056 0.39515 0.08732 0.0
C3115 C 0.99591 0.3759 0.0844 0.0
C3116 C 0.01953 0.37519 0.08016 0.0
C3117 C 0.05085 0.4006 0.08001 0.0
C3118 C 0.07306 0.39961 0.076 0.0
C3119 C 0.06428 0.37308 0.07221 0.0
C3120 C 0.03319 0.3476 0.07238 0.0
C3121 C 0.01085 0.34858 0.07635 0.0
H3122 H 0.08153 0.37234 0.06912 0.0
H3123 H 0.84794 0.36285 0.10497 0.0
H3124 H 0.58423 0.58504 0.07425 0.0
H3125 H 0.61857 0.60114 0.08352 0.0
H3126 H 0.69901 0.62299 0.07172 0.0
H3127 H 0.66468 0.60366 0.06273 0.0
H3128 H 0.71015 0.60286 0.081 0.0
H3129 H 0.67256 0.68084 0.07984 0.0
H3130 H 0.62935 0.6935 0.08002 0.0
H3131 H 0.5982 0.64727 0.09789 0.0
H3132 H 0.64107 0.63419 0.09778 0.0
H3133 H 0.81856 0.7307 0.10539 0.0
H3134 H 0.78257 0.71285 0.09619 0.0
H3135 H 0.73359 0.61795 0.10363 0.0
H3136 H 0.76932 0.63463 0.11247 0.0
H3137 H 0.70728 0.67536 0.09696 0.0
H3138 H 0.72914 0.58042 0.09526 0.0
H3139 H 0.77072 0.56555 0.09582 0.0
H3140 H 0.83063 0.64385 0.08382 0.0
H3141 H 0.78959 0.65958 0.08335 0.0
C3142 C 0.6091 0.59296 0.07363 0.0
C3143 C 0.62115 0.59285 0.06763 0.0
C3144 C 0.62916 0.6028 0.07897 0.0
C3145 C 0.66223 0.61447 0.07844 0.0
C3146 C 0.67394 0.61419 0.07243 0.0
C3147 C 0.65389 0.6031 0.06721 0.0
C3148 C 0.68516 0.62694 0.08396 0.0
C3149 C 0.70932 0.61898 0.0844 0.0
C3150 C 0.68466 0.64752 0.08865 0.0
C3151 C 0.65985 0.65651 0.08879 0.0
C3152 C 0.65652 0.6735 0.08381 0.0
C3153 C 0.63206 0.68067 0.08389 0.0
C3154 C 0.61103 0.67117 0.08896 0.0
C3155 C 0.6145 0.65462 0.09397 0.0
C3156 C 0.63888 0.64738 0.09391 0.0
C3157 C 0.80052 0.70596 0.10499 0.0
C3158 C 0.79725 0.68437 0.10975 0.0
C3159 C 0.77972 0.69576 0.09975 0.0
C3160 C 0.75532 0.66381 0.09915 0.0
C3161 C 0.75238 0.64247 0.10386 0.0
C3162 C 0.77305 0.65238 0.10899 0.0
C3163 C 0.73232 0.65215 0.09373 0.0
C3164 C 0.70812 0.65984 0.09342 0.0
C3165 C 0.73239 0.63103 0.08919 0.0
C3166 C 0.75663 0.62133 0.08934 0.0
C3167 C 0.75127 0.59449 0.09277 0.0
C3168 C 0.77473 0.58598 0.09309 0.0
C3169 C 0.80338 0.60388 0.08989 0.0
C3170 C 0.80854 0.63019 0.08634 0.0
C3171 C 0.78526 0.63899 0.08607 0.0
H3172 H 0.82155 0.59731 0.09017 0.0
H3173 H 0.59206 0.67666 0.08901 0.0
H3174 H 0.11204 0.50762 0.44539 0.0
H3175 H 0.1287 0.48835 0.4366 0.0
H3176 H 0.03358 0.44243 0.42919 0.0
H3177 H 0.01592 0.46025 0.43841 0.0
H3178 H 0.056 0.40425 0.42786 0.0
H3179 H 0.10456 0.51695 0.42298 0.0
H3180 H 0.13839 0.57395 0.42532 0.0
H3181 H 0.21825 0.56065 0.42826 0.0
H3182 H 0.18485 0.50359 0.42601 0.0
H3183 H 0.10097 0.35775 0.39981 0.0
H3184 H 0.08117 0.37766 0.40804 0.0
H3185 H 0.17757 0.44554 0.4133 0.0
H3186 H 0.19661 0.42931 0.40419 0.0
H3187 H 0.15274 0.4739 0.41561 0.0
H3188 H 0.10954 0.36478 0.4221 0.0
H3189 H 0.07938 0.30663 0.42078 0.0
H3190 H 0.99543 0.31082 0.41639 0.0
H3191 H 0.02517 0.36898 0.41763 0.0
C3192 C 0.09431 0.4935 0.44192 0.0
C3193 C 0.06231 0.48556 0.44272 0.0
C3194 C 0.10421 0.48273 0.43677 0.0
C3195 C 0.08287 0.46438 0.43203 0.0
C3196 C 0.05087 0.45672 0.43272 0.0
C3197 C 0.04071 0.46716 0.43798 0.0
C3198 C 0.09385 0.45215 0.42658 0.0
C3199 C 0.07695 0.41964 0.42513 0.0
C3200 C 0.12207 0.47154 0.42311 0.0
C3201 C 0.14214 0.50599 0.42436 0.0
C3202 C 0.1293 0.52619 0.42415 0.0
C3203 C 0.14841 0.5585 0.42546 0.0
C3204 C 0.18044 0.5709 0.42695 0.0
C3205 C 0.19346 0.55104 0.42711 0.0
C3206 C 0.17446 0.51873 0.42581 0.0
C3207 C 0.11792 0.37665 0.40279 0.0
C3208 C 0.15041 0.39164 0.40136 0.0
C3209 C 0.10654 0.38792 0.40764 0.0
C3210 C 0.12742 0.4128 0.41166 0.0
C3211 C 0.16028 0.42654 0.41039 0.0
C3212 C 0.17146 0.41674 0.40524 0.0
C3213 C 0.11534 0.42545 0.41692 0.0
C3214 C 0.13191 0.45817 0.41833 0.0
C3215 C 0.08754 0.40605 0.42053 0.0
C3216 C 0.06959 0.37114 0.41992 0.0
C3217 C 0.08466 0.35324 0.42085 0.0
C3218 C 0.06765 0.32032 0.4201 0.0
C3219 C 0.03553 0.30505 0.41849 0.0
C3220 C 0.0203 0.32266 0.41763 0.0
C3221 C 0.03719 0.35558 0.41837 0.0
H3222 H 0.02242 0.27957 0.4179 0.0
H3223 H 0.19517 0.59591 0.42797 0.0
H3224 H 0.62616 0.60036 0.43877 0.0
H3225 H 0.64566 0.63667 0.42971 0.0
H3226 H 0.58831 0.67691 0.4354 0.0
H3227 H 0.56852 0.64068 0.44427 0.0
H3228 H 0.58597 0.6732 0.42325 0.0
H3229 H 0.67845 0.72597 0.43744 0.0
H3230 H 0.72077 0.7285 0.44422 0.0
H3231 H 0.74673 0.68403 0.42982 0.0
H3232 H 0.70551 0.68275 0.42285 0.0
H3233 H 0.65423 0.80897 0.4036 0.0
H3234 H 0.63604 0.77377 0.41269 0.0
H3235 H 0.70878 0.74957 0.40918 0.0
H3236 H 0.72955 0.78842 0.40065 0.0
H3237 H 0.70163 0.74259 0.42011 0.0
H3238 H 0.61525 0.7025 0.40493 0.0
H3239 H 0.57523 0.70526 0.39825 0.0
H3240 H 0.53465 0.72371 0.41447 0.0
H3241 H 0.57458 0.72136 0.42123 0.0
C3242 C 0.61736 0.6166 0.43804 0.0
C3243 C 0.59569 0.61733 0.44232 0.0
C3244 C 0.6289 0.63783 0.43288 0.0
C3245 C 0.61911 0.66038 0.43185 0.0
C3246 C 0.59659 0.66015 0.43601 0.0
C3247 C 0.58524 0.63921 0.44114 0.0
C3248 C 0.63219 0.68443 0.42654 0.0
C3249 C 0.6113 0.6884 0.42257 0.0
C3250 C 0.66511 0.70435 0.42549 0.0
C3251 C 0.68882 0.70387 0.4297 0.0
C3252 C 0.69312 0.7166 0.43576 0.0
C3253 C 0.71701 0.71799 0.4396 0.0
C3254 C 0.73612 0.70599 0.43749 0.0
C3255 C 0.73179 0.69313 0.43147 0.0
C3256 C 0.70842 0.69237 0.42754 0.0
C3257 C 0.66701 0.79694 0.40493 0.0
C3258 C 0.69353 0.80178 0.40141 0.0
C3259 C 0.65592 0.77581 0.41005 0.0
C3260 C 0.66954 0.75696 0.41157 0.0
C3261 C 0.69715 0.76311 0.4082 0.0
C3262 C 0.70934 0.78565 0.4033 0.0
C3263 C 0.65555 0.73127 0.41662 0.0
C3264 C 0.67625 0.72711 0.42062 0.0
C3265 C 0.62229 0.71102 0.41763 0.0
C3266 C 0.59806 0.71199 0.41357 0.0
C3267 C 0.59783 0.70721 0.40706 0.0
C3268 C 0.57517 0.70872 0.40327 0.0
C3269 C 0.55245 0.71471 0.40594 0.0
C3270 C 0.55226 0.71909 0.41241 0.0
C3271 C 0.57487 0.71764 0.41622 0.0
H3272 H 0.53497 0.71592 0.40299 0.0
H3273 H 0.75442 0.70684 0.44051 0.0
H3274 H 0.28582 0.97156 0.40168 0.0
H3275 H 0.32347 0.99111 0.41053 0.0
H3276 H 0.32508 0.90348 0.41069 0.0
H3277 H 0.28907 0.88472 0.40162 0.0
H3278 H 0.31937 0.93431 0.42362 0.0
H3279 H 0.38099 0.94454 0.40564 0.0
H3280 H 0.39909 0.95892 0.39472 0.0
H3281 H 0.43373 0.0571 0.39893 0.0
H3282 H 0.41471 0.04307 0.40984 0.0
H3283 H 0.45135 0.9689 0.44258 0.0
H3284 H 0.41529 0.95174 0.43369 0.0
H3285 H 0.43965 0.04848 0.43017 0.0
H3286 H 0.47643 0.06607 0.43921 0.0
H3287 H 0.43156 0.0136 0.41891 0.0
H3288 H 0.37076 0.99687 0.43812 0.0
H3289 H 0.35331 0.97545 0.4488 0.0
H3290 H 0.32025 0.88109 0.442 0.0
H3291 H 0.33747 0.90187 0.43129 0.0
C3292 C 0.29361 0.95617 0.4037 0.0
C3293 C 0.28411 0.9264 0.40098 0.0
C3294 C 0.31541 0.9675 0.40873 0.0
C3295 C 0.32738 0.9489 0.4113 0.0
C3296 C 0.31638 0.9184 0.40881 0.0
C3297 C 0.29561 0.9076 0.40364 0.0
C3298 C 0.35236 0.96176 0.41636 0.0
C3299 C 0.34388 0.95159 0.42258 0.0
C3300 C 0.38456 0.98404 0.41505 0.0
C3301 C 0.3958 0.9927 0.40851 0.0
C3302 C 0.39188 0.96913 0.4042 0.0
C3303 C 0.40244 0.97721 0.39802 0.0
C3304 C 0.4175 0.00891 0.39613 0.0
C3305 C 0.42203 0.03256 0.40041 0.0
C3306 C 0.41123 0.02454 0.40658 0.0
C3307 C 0.44961 0.98683 0.43988 0.0
C3308 C 0.46702 0.01903 0.44167 0.0
C3309 C 0.4286 0.97681 0.43478 0.0
C3310 C 0.42385 0.99852 0.43128 0.0
C3311 C 0.44254 0.03105 0.4328 0.0
C3312 C 0.46385 0.04121 0.43795 0.0
C3313 C 0.39854 0.9867 0.42624 0.0
C3314 C 0.40696 0.99681 0.42 0.0
C3315 C 0.36641 0.96345 0.4275 0.0
C3316 C 0.35558 0.95096 0.43392 0.0
C3317 C 0.35988 0.97158 0.43891 0.0
C3318 C 0.35005 0.95956 0.44496 0.0
C3319 C 0.33587 0.92699 0.44608 0.0
C3320 C 0.33129 0.90632 0.44113 0.0
C3321 C 0.34097 0.91818 0.43507 0.0
H3322 H 0.32831 0.91777 0.45077 0.0
H3323 H 0.42566 0.01515 0.39134 0.0
H3324 H 0.65138 0.05286 0.94409 0.0
H3325 H 0.67028 0.0321 0.93582 0.0
H3326 H 0.57378 0.97186 0.92956 0.0
H3327 H 0.55499 0.98876 0.93863 0.0
H3328 H 0.59572 0.94007 0.92737 0.0
H3329 H 0.64679 0.05091 0.92167 0.0
H3330 H 0.67988 0.10845 0.92355 0.0
H3331 H 0.75908 0.09649 0.92826 0.0
H3332 H 0.72636 0.03888 0.92646 0.0
H3333 H 0.63605 0.9045 0.89788 0.0
H3334 H 0.62065 0.92488 0.90662 0.0
H3335 H 0.71555 0.96757 0.91407 0.0
H3336 H 0.73224 0.94907 0.9048 0.0
H3337 H 0.69594 0.00684 0.91585 0.0
H3338 H 0.64048 0.89323 0.92015 0.0
H3339 H 0.6043 0.83693 0.91757 0.0
H3340 H 0.52869 0.85644 0.91426 0.0
H3341 H 0.56446 0.91284 0.91676 0.0
C3342 C 0.63424 0.03534 0.94091 0.0
C3343 C 0.60167 0.02263 0.94204 0.0
C3344 C 0.64514 0.02368 0.93603 0.0
C3345 C 0.62398 1.00068 0.93173 0.0
C3346 C 0.59123 0.98931 0.9327 0.0
C3347 C 0.5803 0.99951 0.93784 0.0
C3348 C 0.63552 0.98752 0.92645 0.0
C3349 C 0.61739 0.95517 0.92482 0.0
C3350 C 0.66431 0.00606 0.92306 0.0
C3351 C 0.68412 0.04068 0.92397 0.0
C3352 C 0.67126 0.06061 0.92311 0.0
C3353 C 0.68994 0.09321 0.92416 0.0
C3354 C 0.72154 0.10611 0.92603 0.0
C3355 C 0.7346 0.08648 0.92681 0.0
C3356 C 0.71604 0.05388 0.92576 0.0
C3357 C 0.65407 0.91809 0.90134 0.0
C3358 C 0.68578 0.92505 0.9005 0.0
C3359 C 0.64482 0.92951 0.90648 0.0
C3360 C 0.66634 0.94721 0.91125 0.0
C3361 C 0.69805 0.95381 0.91053 0.0
C3362 C 0.70766 0.94297 0.90523 0.0
C3363 C 0.65584 0.95983 0.91674 0.0
C3364 C 0.67421 0.99198 0.91842 0.0
C3365 C 0.62673 0.94132 0.92003 0.0
C3366 C 0.60521 0.90727 0.91862 0.0
C3367 C 0.61616 0.8855 0.91886 0.0
C3368 C 0.59572 0.85358 0.91741 0.0
C3369 C 0.56423 0.84313 0.91574 0.0
C3370 C 0.55307 0.86455 0.91555 0.0
C3371 C 0.5734 0.89647 0.917 0.0
H3372 H 0.54847 0.81842 0.91461 0.0
H3373 H 0.73594 0.13134 0.92686 0.0
H3374 H 0.10578 0.79901 0.90197 0.0
H3375 H 0.08632 0.76178 0.91086 0.0
H3376 H 0.17233 0.75678 0.91045 0.0
H3377 H 0.1909 0.79271 0.90149 0.0
H3378 H 0.1302 0.70159 0.9118 0.0
H3379 H 0.15063 0.79299 0.92287 0.0
H3380 H 0.15011 0.84197 0.92553 0.0
H3381 H 0.04886 0.78876 0.9277 0.0
H3382 H 0.04874 0.73946 0.92495 0.0
H3383 H 0.10954 0.62792 0.94203 0.0
H3384 H 0.12618 0.66404 0.93308 0.0
H3385 H 0.03003 0.644 0.93061 0.0
H3386 H 0.01313 0.6073 0.93963 0.0
H3387 H 0.07578 0.71033 0.9307 0.0
H3388 H 0.0643 0.61598 0.92033 0.0
H3389 H 0.07567 0.57226 0.91911 0.0
H3390 H 0.17512 0.63946 0.91736 0.0
H3391 H 0.16443 0.68356 0.91869 0.0
C3392 C 0.12096 0.79085 0.90393 0.0
C3393 C 0.1502 0.79942 0.90106 0.0
C3394 C 0.10971 0.76919 0.90901 0.0
C3395 C 0.12764 0.75596 0.91144 0.0
C3396 C 0.15754 0.76593 0.90872 0.0
C3397 C 0.16846 0.78704 0.90362 0.0
C3398 C 0.11506 0.73084 0.91656 0.0
C3399 C 0.11859 0.70392 0.91594 0.0
C3400 C 0.09984 0.73312 0.92206 0.0
C3401 C 0.09961 0.76263 0.92362 0.0
C3402 C 0.12821 0.79179 0.92385 0.0
C3403 C 0.12805 0.81959 0.92538 0.0
C3404 C 0.09946 0.8185 0.92676 0.0
C3405 C 0.07098 0.78957 0.92661 0.0
C3406 C 0.071 0.76169 0.92507 0.0
C3407 C 0.09165 0.63045 0.93949 0.0
C3408 C 0.05981 0.61416 0.94152 0.0
C3409 C 0.10131 0.65136 0.93436 0.0
C3410 C 0.07951 0.65699 0.93109 0.0
C3411 C 0.04744 0.64015 0.933 0.0
C3412 C 0.03762 0.61872 0.93811 0.0
C3413 C 0.09063 0.68124 0.92586 0.0
C3414 C 0.08703 0.70804 0.9265 0.0
C3415 C 0.10726 0.67964 0.92053 0.0
C3416 C 0.11355 0.65306 0.91964 0.0
C3417 C 0.08861 0.62143 0.91972 0.0
C3418 C 0.09494 0.59658 0.91901 0.0
C3419 C 0.1261 0.60308 0.91816 0.0
C3420 C 0.151 0.63445 0.91802 0.0
C3421 C 0.14481 0.65938 0.91875 0.0
H3422 H 0.13094 0.58381 0.91761 0.0
H3423 H 0.09938 0.84005 0.92796 0.0
H3424 H 0.49141 0.46592 0.93743 0.0
H3425 H 0.45636 0.44689 0.92809 0.0
H3426 H 0.3989 0.48261 0.93594 0.0
H3427 H 0.43387 0.50294 0.94489 0.0
H3428 H 0.36454 0.41406 0.93176 0.0
H3429 H 0.43167 0.52095 0.92571 0.0
H3430 H 0.48129 0.57018 0.92323 0.0
H3431 H 0.50004 0.52286 0.90826 0.0
H3432 H 0.45079 0.47304 0.91076 0.0
H3433 H 0.29346 0.44108 0.90107 0.0
H3434 H 0.33036 0.45804 0.90997 0.0
H3435 H 0.32244 0.36591 0.91042 0.0
H3436 H 0.28387 0.34829 0.90179 0.0
H3437 H 0.38975 0.46175 0.9105 0.0
H3438 H 0.31767 0.34776 0.92082 0.0
H3439 H 0.26265 0.30836 0.92373 0.0
H3440 H 0.24932 0.38244 0.9314 0.0
H3441 H 0.30385 0.42233 0.92828 0.0
C3442 C 0.47165 0.47017 0.93712 0.0
C3443 C 0.46571 0.48582 0.94205 0.0
C3444 C 0.45145 0.45913 0.93178 0.0
C3445 C 0.42455 0.46294 0.9313 0.0
C3446 C 0.41913 0.47902 0.93615 0.0
C3447 C 0.43953 0.49074 0.94133 0.0
C3448 C 0.40118 0.44966 0.92593 0.0
C3449 C 0.37049 0.42409 0.92708 0.0
C3450 C 0.40777 0.4636 0.91988 0.0
C3451 C 0.43796 0.49306 0.91852 0.0
C3452 C 0.44671 0.52082 0.92198 0.0
C3453 C 0.47468 0.5489 0.92055 0.0
C3454 C 0.49392 0.5496 0.91562 0.0
C3455 C 0.4852 0.52222 0.91211 0.0
C3456 C 0.4573 0.49404 0.91353 0.0
C3457 C 0.2987 0.42405 0.90322 0.0
C3458 C 0.28487 0.39299 0.90081 0.0
C3459 C 0.32016 0.43391 0.90829 0.0
C3460 C 0.32904 0.41323 0.91105 0.0
C3461 C 0.31517 0.3821 0.90864 0.0
C3462 C 0.29298 0.37194 0.90367 0.0
C3463 C 0.35376 0.42481 0.91622 0.0
C3464 C 0.38437 0.45074 0.9151 0.0
C3465 C 0.3469 0.41187 0.92236 0.0
C3466 C 0.31436 0.38794 0.92418 0.0
C3467 C 0.30275 0.35562 0.92302 0.0
C3468 C 0.2717 0.33323 0.92471 0.0
C3469 C 0.25242 0.34291 0.92771 0.0
C3470 C 0.26416 0.375 0.92902 0.0
C3471 C 0.29502 0.39751 0.92726 0.0
H3472 H 0.22845 0.32553 0.92905 0.0
H3473 H 0.51549 0.5714 0.9145 0.0
H3474 H 0.98068 0.71726 0.61099 0.0
H3475 H 0.99969 0.69639 0.60281 0.0
H3476 H 0.90316 0.63593 0.59652 0.0
H3477 H 0.88437 0.6517 0.60572 0.0
H3478 H 0.92401 0.60495 0.59389 0.0
H3479 H 0.98027 0.71755 0.5888 0.0
H3480 H 0.01498 0.77432 0.59125 0.0
H3481 H 0.09009 0.7567 0.5964 0.0
H3482 H 0.05577 0.69985 0.59402 0.0
H3483 H 0.96776 0.57522 0.56402 0.0
H3484 H 0.95169 0.5948 0.57288 0.0
H3485 H 0.04272 0.62716 0.58157 0.0
H3486 H 0.05993 0.60878 0.57239 0.0
H3487 H 0.02649 0.67073 0.58303 0.0
H3488 H 0.9663 0.55648 0.58641 0.0
H3489 H 0.92882 0.50131 0.58328 0.0
H3490 H 0.85668 0.52576 0.57991 0.0
H3491 H 0.89381 0.5811 0.58295 0.0
C3492 C 0.96356 0.69943 0.60785 0.0
C3493 C 0.93102 0.68591 0.60908 0.0
C3494 C 0.97455 0.68786 0.60298 0.0
C3495 C 0.95347 0.66488 0.59866 0.0
C3496 C 0.92067 0.65318 0.59968 0.0
C3497 C 0.90967 0.66275 0.6049 0.0
C3498 C 0.96503 0.65198 0.59334 0.0
C3499 C 0.94614 0.62001 0.59147 0.0
C3500 C 0.99447 0.67026 0.59012 0.0
C3501 C 0.01545 0.70454 0.59127 0.0
C3502 C 1.00423 0.72587 0.59043 0.0
C3503 C 0.02381 0.75801 0.59182 0.0
C3504 C 0.05469 0.76909 0.59399 0.0
C3505 C 0.06618 0.7481 0.59473 0.0
C3506 C 0.04672 0.71595 0.59334 0.0
C3507 C 0.98463 0.58623 0.56781 0.0
C3508 C 0.0154 0.59014 0.56741 0.0
C3509 C 0.97507 0.59729 0.57296 0.0
C3510 C 0.99546 0.61202 0.57807 0.0
C3511 C 0.02619 0.61573 0.57776 0.0
C3512 C 0.03603 0.60494 0.5725 0.0
C3513 C 0.98497 0.62452 0.58354 0.0
C3514 C 1.00418 0.65619 0.58544 0.0
C3515 C 0.95526 0.60637 0.58661 0.0
C3516 C 0.9329 0.57295 0.58488 0.0
C3517 C 0.94248 0.55009 0.58498 0.0
C3518 C 0.92129 0.5188 0.58322 0.0
C3519 C 0.89041 0.51005 0.58139 0.0
C3520 C 0.8806 0.53255 0.58133 0.0
C3521 C 0.90169 0.56386 0.58308 0.0
H3522 H 0.87406 0.48582 0.58002 0.0
H3523 H 0.06974 0.79395 0.5951 0.0
H3524 H 0.53108 0.48197 0.5711 0.0
H3525 H 0.51422 0.44819 0.58044 0.0
H3526 H 0.41756 0.40149 0.57367 0.0
H3527 H 0.43398 0.43953 0.5651 0.0
H3528 H 0.40867 0.39358 0.58417 0.0
H3529 H 0.48615 0.37469 0.57342 0.0
H3530 H 0.5387 0.38907 0.56908 0.0
H3531 H 0.5813 0.42324 0.58714 0.0
H3532 H 0.52907 0.40931 0.59156 0.0
H3533 H 0.35672 0.25672 0.60404 0.0
H3534 H 0.3737 0.29163 0.59478 0.0
H3535 H 0.46396 0.35242 0.6036 0.0
H3536 H 0.44801 0.31718 0.61256 0.0
H3537 H 0.47567 0.3513 0.59216 0.0
H3538 H 0.39388 0.36666 0.60247 0.0
H3539 H 0.33945 0.34924 0.60618 0.0
H3540 H 0.3028 0.31472 0.58778 0.0
H3541 H 0.35685 0.33193 0.58395 0.0
C3542 C 0.50611 0.46503 0.57174 0.0
C3543 C 0.48395 0.46312 0.56728 0.0
C3544 C 0.4964 0.44476 0.57702 0.0
C3545 C 0.4645 0.42021 0.57777 0.0
C3546 C 0.44235 0.41947 0.57337 0.0
C3547 C 0.4518 0.44116 0.56836 0.0
C3548 C 0.45379 0.39566 0.58306 0.0
C3549 C 0.42344 0.38411 0.58574 0.0
C3550 C 0.47251 0.38296 0.58546 0.0
C3551 C 0.50381 0.39126 0.5828 0.0
C3552 C 0.50677 0.38538 0.57645 0.0
C3553 C 0.53648 0.39345 0.57398 0.0
C3554 C 0.56333 0.40714 0.57783 0.0
C3555 C 0.56051 0.4127 0.58416 0.0
C3556 C 0.53087 0.4047 0.58665 0.0
C3557 C 0.38034 0.27725 0.60396 0.0
C3558 C 0.40072 0.28386 0.60914 0.0
C3559 C 0.38999 0.29764 0.59868 0.0
C3560 C 0.42009 0.32557 0.59846 0.0
C3561 C 0.44064 0.33142 0.60355 0.0
C3562 C 0.43127 0.31099 0.60874 0.0
C3563 C 0.43059 0.34907 0.59305 0.0
C3564 C 0.46097 0.3606 0.59043 0.0
C3565 C 0.41162 0.36105 0.59057 0.0
C3566 C 0.37929 0.35043 0.59294 0.0
C3567 C 0.37416 0.35521 0.59923 0.0
C3568 C 0.34343 0.3454 0.60135 0.0
C3569 C 0.31777 0.33091 0.59722 0.0
C3570 C 0.32271 0.326 0.59097 0.0
C3571 C 0.35335 0.33583 0.58882 0.0
H3572 H 0.29407 0.32368 0.59885 0.0
H3573 H 0.5863 0.41339 0.5759 0.0
H3574 H 0.82226 0.19385 0.60444 0.0
H3575 H 0.78772 0.17659 0.59524 0.0
H3576 H 0.74136 0.08037 0.60229 0.0
H3577 H 0.78063 0.09713 0.61061 0.0
H3578 H 0.73031 0.07032 0.59202 0.0
H3579 H 0.71676 0.1532 0.60259 0.0
H3580 H 0.73166 0.20717 0.60618 0.0
H3581 H 0.7629 0.2434 0.58759 0.0
H3582 H 0.74846 0.18986 0.58391 0.0
H3583 H 0.59307 0.01955 0.57235 0.0
H3584 H 0.62766 0.03578 0.58164 0.0
H3585 H 0.68779 0.12732 0.57318 0.0
H3586 H 0.65229 0.11249 0.56434 0.0
H3587 H 0.68892 0.13844 0.58428 0.0
H3588 H 0.70114 0.05343 0.57412 0.0
H3589 H 0.68028 0.99788 0.57068 0.0
H3590 H 0.64554 0.96479 0.58925 0.0
H3591 H 0.6663 0.0199 0.5928 0.0
C3592 C 0.80549 0.16881 0.60384 0.0
C3593 C 0.80408 0.14686 0.6083 0.0
C3594 C 0.78459 0.15891 0.59867 0.0
C3595 C 0.75971 0.12709 0.59808 0.0
C3596 C 0.75957 0.1051 0.60245 0.0
C3597 C 0.78202 0.11472 0.60732 0.0
C3598 C 0.73411 0.1163 0.59302 0.0
C3599 C 0.72115 0.08543 0.5905 0.0
C3600 C 0.72168 0.13535 0.59066 0.0
C3601 C 0.73179 0.16764 0.593 0.0
C3602 C 0.72708 0.17277 0.59929 0.0
C3603 C 0.73539 0.20326 0.60134 0.0
C3604 C 0.74815 0.22863 0.59711 0.0
C3605 C 0.75299 0.22372 0.59085 0.0
C3606 C 0.74477 0.19336 0.58879 0.0
C3607 C 0.61326 0.04335 0.57255 0.0
C3608 C 0.6197 0.06442 0.5675 0.0
C3609 C 0.6336 0.05253 0.57783 0.0
C3610 C 0.66146 0.08267 0.57813 0.0
C3611 C 0.6669 0.10393 0.57319 0.0
C3612 C 0.64632 0.09519 0.56805 0.0
C3613 C 0.68537 0.09278 0.58344 0.0
C3614 C 0.69806 0.12349 0.58595 0.0
C3615 C 0.69709 0.07348 0.58587 0.0
C3616 C 0.685 0.04062 0.5837 0.0
C3617 C 0.68897 0.03423 0.57745 0.0
C3618 C 0.67719 1.0029 0.57548 0.0
C3619 C 0.66146 0.97791 0.57972 0.0
C3620 C 0.65766 0.98415 0.58596 0.0
C3621 C 0.66951 0.01539 0.58796 0.0
H3622 H 0.6523 0.9537 0.57818 0.0
H3623 H 0.75406 0.25208 0.59864 0.0
H3624 H 0.776 0.68711 0.73498 0.0
H3625 H 0.75745 0.70592 0.74389 0.0
H3626 H 0.84719 0.79299 0.74424 0.0
H3627 H 0.86493 0.77515 0.73512 0.0
H3628 H 0.80352 0.74405 0.75718 0.0
H3629 H 0.82238 0.82367 0.7412 0.0
H3630 H 0.81957 0.83814 0.73022 0.0
H3631 H 0.71827 0.77816 0.73048 0.0
H3632 H 0.72072 0.76255 0.74141 0.0
H3633 H 0.78429 0.84596 0.77801 0.0
H3634 H 0.80085 0.8265 0.76914 0.0
H3635 H 0.70494 0.77772 0.76218 0.0
H3636 H 0.68783 0.79733 0.77122 0.0
H3637 H 0.75006 0.80573 0.75239 0.0
H3638 H 0.73655 0.73512 0.7701 0.0
H3639 H 0.7467 0.72332 0.78085 0.0
H3640 H 0.84695 0.77512 0.77744 0.0
H3641 H 0.83748 0.78659 0.76663 0.0
C3642 C 0.79202 0.70995 0.73705 0.0
C3643 C 0.82211 0.72948 0.73437 0.0
C3644 C 0.78126 0.72088 0.74211 0.0
C3645 C 0.80064 0.75122 0.7447 0.0
C3646 C 0.83144 0.76982 0.74227 0.0
C3647 C 0.84175 0.7594 0.7371 0.0
C3648 C 0.78855 0.76378 0.74983 0.0
C3649 C 0.79193 0.7576 0.75612 0.0
C3650 C 0.7736 0.78177 0.74853 0.0
C3651 C 0.7718 0.79142 0.74204 0.0
C3652 C 0.79958 0.81317 0.73887 0.0
C3653 C 0.79806 0.82164 0.73267 0.0
C3654 C 0.76877 0.80893 0.72964 0.0
C3655 C 0.74095 0.78788 0.73282 0.0
C3656 C 0.7424 0.77912 0.73901 0.0
C3657 C 0.76647 0.83133 0.77459 0.0
C3658 C 0.73447 0.82324 0.77542 0.0
C3659 C 0.77611 0.81995 0.76949 0.0
C3660 C 0.75422 0.79984 0.76499 0.0
C3661 C 0.72245 0.79293 0.76559 0.0
C3662 C 0.71265 0.80436 0.77075 0.0
C3663 C 0.76483 0.78589 0.75981 0.0
C3664 C 0.76126 0.79186 0.75348 0.0
C3665 C 0.78076 0.76868 0.76109 0.0
C3666 C 0.78631 0.76188 0.76759 0.0
C3667 C 0.76074 0.7441 0.77166 0.0
C3668 C 0.76635 0.73746 0.77775 0.0
C3669 C 0.79738 0.74877 0.77985 0.0
C3670 C 0.82292 0.76645 0.77582 0.0
C3671 C 0.81745 0.77285 0.7697 0.0
H3672 H 0.80162 0.74368 0.78458 0.0
H3673 H 0.76762 0.81551 0.72484 0.0
H3674 H 0.26131 0.91956 0.76907 0.0
H3675 H 0.27711 0.95361 0.75973 0.0
H3676 H 0.28263 0.03009 0.77091 0.0
H3677 H 0.26299 0.99552 0.77983 0.0
H3678 H 0.26582 0.03924 0.76126 0.0
H3679 H 0.35172 0.01513 0.76445 0.0
H3680 H 0.37214 0.97791 0.76521 0.0
H3681 H 0.33634 0.94238 0.74678 0.0
H3682 H 0.31549 0.97918 0.74595 0.0
H3683 H 0.39725 0.1568 0.73843 0.0
H3684 H 0.37817 0.12051 0.74758 0.0
H3685 H 0.2885 0.0633 0.73837 0.0
H3686 H 0.30594 0.09975 0.72963 0.0
H3687 H 0.34798 0.04543 0.74667 0.0
H3688 H 0.25132 0.06253 0.74543 0.0
H3689 H 0.23076 0.09968 0.74523 0.0
H3690 H 0.28961 0.14977 0.76098 0.0
H3691 H 0.3114 0.11356 0.76109 0.0
C3692 C 0.26531 0.94341 0.7695 0.0
C3693 C 0.26076 0.95427 0.77533 0.0
C3694 C 0.27513 0.96341 0.76414 0.0
C3695 C 0.28238 0.99547 0.76449 0.0
C3696 C 0.27738 0.00585 0.77031 0.0
C3697 C 0.26619 0.98567 0.77552 0.0
C3698 C 0.29498 0.01866 0.75898 0.0
C3699 C 0.28403 0.04039 0.75816 0.0
C3700 C 0.31854 0.02093 0.75471 0.0
C3701 C 0.33197 0.99971 0.75515 0.0
C3702 C 0.34829 0.99938 0.76056 0.0
C3703 C 0.35986 0.97833 0.76101 0.0
C3704 C 0.35551 0.95777 0.75605 0.0
C3705 C 0.3397 0.95831 0.75062 0.0
C3706 C 0.32804 0.97926 0.75015 0.0
C3707 C 0.37331 0.13681 0.73841 0.0
C3708 C 0.35342 0.13162 0.73319 0.0
C3709 C 0.36238 0.11591 0.74364 0.0
C3710 C 0.33143 0.08925 0.74378 0.0
C3711 C 0.31195 0.08403 0.73856 0.0
C3712 C 0.3224 0.10502 0.73346 0.0
C3713 C 0.31935 0.06593 0.74917 0.0
C3714 C 0.33017 0.0442 0.7499 0.0
C3715 C 0.2958 0.06366 0.75338 0.0
C3716 C 0.28375 0.0861 0.75312 0.0
C3717 C 0.26051 0.082 0.74873 0.0
C3718 C 0.24851 0.10278 0.74866 0.0
C3719 C 0.25909 0.12727 0.75305 0.0
C3720 C 0.2817 0.13103 0.75753 0.0
C3721 C 0.29403 0.11053 0.75757 0.0
H3722 H 0.24959 0.14317 0.75302 0.0
H3723 H 0.36441 0.94143 0.75641 0.0
H3724 H 0.99771 0.27477 0.72919 0.0
H3725 H 0.03219 0.2938 0.73798 0.0
H3726 H 0.95222 0.26898 0.75013 0.0
H3727 H 0.91749 0.25493 0.74087 0.0
H3728 H 0.99472 0.31249 0.75544 0.0
H3729 H 1.00048 0.22435 0.74754 0.0
H3730 H 0.00707 0.19037 0.73981 0.0
H3731 H 0.10243 0.26454 0.73614 0.0
H3732 H 0.09631 0.29911 0.74378 0.0
H3733 H 0.08893 0.30359 0.78085 0.0
H3734 H 0.05412 0.28726 0.77182 0.0
H3735 H 0.12329 0.36872 0.76153 0.0
H3736 H 0.15853 0.38653 0.77078 0.0
H3737 H 0.08611 0.29402 0.75584 0.0
H3738 H 0.07248 0.38122 0.76424 0.0
H3739 H 0.06058 0.40809 0.77274 0.0
H3740 H 0.97391 0.32185 0.77678 0.0
H3741 H 0.98535 0.29456 0.7683 0.0
C3742 C 0.98695 0.27392 0.73365 0.0
C3743 C 0.95428 0.26365 0.73414 0.0
C3744 C 0.00711 0.28404 0.73882 0.0
C3745 C 0.99533 0.28151 0.74492 0.0
C3746 C 0.9625 0.27109 0.74553 0.0
C3747 C 0.94235 0.26282 0.7402 0.0
C3748 C 0.01779 0.29097 0.75048 0.0
C3749 C 0.0143 0.30784 0.75548 0.0
C3750 C 0.04394 0.28532 0.75076 0.0
C3751 C 0.04782 0.26441 0.74621 0.0
C3752 C 0.02281 0.23346 0.74507 0.0
C3753 C 0.02647 0.2141 0.7407 0.0
C3754 C 0.05512 0.22532 0.73748 0.0
C3755 C 0.08024 0.25588 0.73863 0.0
C3756 C 0.0767 0.27535 0.74299 0.0
C3757 C 0.09727 0.31837 0.7767 0.0
C3758 C 0.12711 0.34669 0.77664 0.0
C3759 C 0.07698 0.30877 0.7715 0.0
C3760 C 0.08581 0.32665 0.76597 0.0
C3761 C 0.11584 0.35445 0.76575 0.0
C3762 C 0.13612 0.36458 0.77105 0.0
C3763 C 0.06314 0.31603 0.76053 0.0
C3764 C 0.06645 0.29855 0.75566 0.0
C3765 C 0.03614 0.31979 0.7605 0.0
C3766 C 0.02984 0.33591 0.76568 0.0
C3767 C 0.05103 0.36799 0.76698 0.0
C3768 C 0.04425 0.38332 0.77176 0.0
C3769 C 0.01642 0.36672 0.77528 0.0
C3770 C 0.99537 0.33472 0.77404 0.0
C3771 C 1.00194 0.31934 0.76924 0.0
H3772 H 0.01126 0.37862 0.77899 0.0
H3773 H 0.05789 0.21032 0.73409 0.0
H3774 H 0.2514 0.30063 0.27972 0.0
H3775 H 0.26933 0.28449 0.27059 0.0
H3776 H 0.28863 0.37014 0.26102 0.0
H3777 H 0.27167 0.38769 0.27039 0.0
H3778 H 0.24645 0.29298 0.25509 0.0
H3779 H 0.34969 0.38096 0.26264 0.0
H3780 H 0.39044 0.4091 0.27076 0.0
H3781 H 0.38881 0.32254 0.27552 0.0
H3782 H 0.34815 0.294 0.2674 0.0
H3783 H 0.31612 0.27349 0.22818 0.0
H3784 H 0.29973 0.29184 0.23705 0.0
H3785 H 0.35082 0.2628 0.24938 0.0
H3786 H 0.37079 0.24739 0.24022 0.0
H3787 H 0.35573 0.31001 0.25432 0.0
H3788 H 0.26032 0.22188 0.24696 0.0
H3789 H 0.21896 0.18754 0.2394 0.0
H3790 H 0.19947 0.26257 0.23539 0.0
H3791 H 0.24095 0.29749 0.24288 0.0
C3792 C 0.25927 0.3164 0.27571 0.0
C3793 C 0.25987 0.34579 0.2759 0.0
C3794 C 0.26964 0.30689 0.27046 0.0
C3795 C 0.28053 0.32599 0.2651 0.0
C3796 C 0.28043 0.35495 0.26511 0.0
C3797 C 0.27051 0.36491 0.27047 0.0
C3798 C 0.29197 0.31514 0.25959 0.0
C3799 C 0.27054 0.29727 0.25483 0.0
C3800 C 0.32262 0.31864 0.25944 0.0
C3801 C 0.34583 0.33541 0.26447 0.0
C3802 C 0.35786 0.36794 0.26546 0.0
C3803 C 0.38111 0.38398 0.27002 0.0
C3804 C 0.39232 0.36764 0.27363 0.0
C3805 C 0.3802 0.33519 0.27271 0.0
C3806 C 0.35714 0.3191 0.26812 0.0
C3807 C 0.32425 0.27081 0.23274 0.0
C3808 C 0.34521 0.25875 0.23336 0.0
C3809 C 0.31412 0.28102 0.23791 0.0
C3810 C 0.32258 0.27777 0.24404 0.0
C3811 C 0.34343 0.26554 0.24475 0.0
C3812 C 0.35488 0.25651 0.23948 0.0
C3813 C 0.31059 0.28845 0.24957 0.0
C3814 C 0.33166 0.30579 0.25444 0.0
C3815 C 0.27909 0.2834 0.24992 0.0
C3816 C 0.25391 0.26237 0.24545 0.0
C3817 C 0.24731 0.2311 0.24445 0.0
C3818 C 0.22383 0.21153 0.24017 0.0
C3819 C 0.20663 0.22289 0.23691 0.0
C3820 C 0.21281 0.25381 0.23792 0.0
C3821 C 0.23626 0.27348 0.24219 0.0
H3822 H 0.18848 0.20771 0.2336 0.0
H3823 H 0.41024 0.3801 0.27717 0.0
H3824 H 0.68858 0.95724 0.27626 0.0
H3825 H 0.70852 0.99702 0.26796 0.0
H3826 H 0.77943 0.97169 0.2633 0.0
H3827 H 0.76242 0.93576 0.27228 0.0
H3828 H 0.80739 0.02584 0.26145 0.0
H3829 H 0.70107 0.9568 0.25383 0.0
H3830 H 0.64263 0.92663 0.25449 0.0
H3831 H 0.64137 0.0125 0.25843 0.0
H3832 H 0.69981 0.0431 0.25784 0.0
H3833 H 0.84447 0.09899 0.2313 0.0
H3834 H 0.82471 0.06319 0.24022 0.0
H3835 H 0.77794 0.11229 0.24722 0.0
H3836 H 0.79715 0.14809 0.23808 0.0
H3837 H 0.73877 0.04964 0.24805 0.0
H3838 H 0.84853 0.11743 0.25415 0.0
H3839 H 0.90645 0.14367 0.2526 0.0
H3840 H 0.89986 0.05303 0.25013 0.0
H3841 H 0.84188 0.02629 0.2516 0.0
C3842 C 0.70797 0.95971 0.27336 0.0
C3843 C 0.72358 0.94292 0.27491 0.0
C3844 C 0.71944 0.98256 0.26851 0.0
C3845 C 0.74544 0.98768 0.26469 0.0
C3846 C 0.7597 0.96922 0.26607 0.0
C3847 C 0.74949 0.94792 0.27117 0.0
C3848 C 0.75883 0.01288 0.25951 0.0
C3849 C 0.79193 0.03023 0.25848 0.0
C3850 C 0.73973 0.02037 0.25559 0.0
C3851 C 0.7047 1.00213 0.25584 0.0
C3852 C 0.68828 0.96918 0.25484 0.0
C3853 C 0.65519 0.95203 0.25521 0.0
C3854 C 0.6383 0.96763 0.25651 0.0
C3855 C 0.65447 1.00044 0.25743 0.0
C3856 C 0.68755 0.01771 0.25707 0.0
C3857 C 0.83034 0.10268 0.23476 0.0
C3858 C 0.82267 0.12687 0.23391 0.0
C3859 C 0.81907 0.08203 0.23993 0.0
C3860 C 0.79999 0.08488 0.24454 0.0
C3861 C 0.79268 0.10938 0.24379 0.0
C3862 C 0.80397 0.13017 0.23857 0.0
C3863 C 0.78679 0.06148 0.24995 0.0
C3864 C 0.75388 0.04475 0.25103 0.0
C3865 C 0.80595 0.05375 0.25376 0.0
C3866 C 0.84086 0.06989 0.25295 0.0
C3867 C 0.85943 0.10312 0.25325 0.0
C3868 C 0.89227 0.11808 0.25239 0.0
C3869 C 0.90682 0.10004 0.25126 0.0
C3870 C 0.88857 0.06699 0.251 0.0
C3871 C 0.85573 0.05192 0.25186 0.0
H3872 H 0.93223 0.11166 0.25058 0.0
H3873 H 0.61268 0.95429 0.25681 0.0
H3874 H 0.93279 0.75327 0.23839 0.0
H3875 H 0.96737 0.77007 0.24758 0.0
H3876 H 0.00694 0.71257 0.24136 0.0
H3877 H 0.96738 0.69089 0.23308 0.0
H3878 H 0.01824 0.71502 0.25165 0.0
H3879 H 0.03992 0.81138 0.24019 0.0
H3880 H 0.02691 0.8504 0.23576 0.0
H3881 H 0.99598 0.8626 0.25388 0.0
H3882 H 0.00866 0.82359 0.2584 0.0
H3883 H 0.15716 0.79812 0.2713 0.0
H3884 H 0.12238 0.77977 0.262 0.0
H3885 H 0.06605 0.81696 0.26991 0.0
H3886 H 0.10135 0.83707 0.27875 0.0
H3887 H 0.06643 0.82653 0.25862 0.0
H3888 H 0.04772 0.72889 0.26964 0.0
H3889 H 0.06623 0.69298 0.27354 0.0
H3890 H 0.09885 0.68822 0.25511 0.0
H3891 H 0.08054 0.72388 0.25109 0.0
C3892 C 0.94814 0.74342 0.23915 0.0
C3893 C 0.94757 0.721 0.23492 0.0
C3894 C 0.96909 0.75403 0.24433 0.0
C3895 C 0.99219 0.7447 0.24515 0.0
C3896 C 0.99027 0.72105 0.24102 0.0
C3897 C 0.96766 0.70869 0.23615 0.0
C3898 C 0.01797 0.75887 0.25023 0.0
C3899 C 0.02891 0.7397 0.253 0.0
C3900 C 0.03249 0.79097 0.25234 0.0
C3901 C 0.02494 0.81439 0.24961 0.0
C3902 C 0.03026 0.82235 0.24321 0.0
C3903 C 0.02296 0.84445 0.24069 0.0
C3904 C 0.01055 0.8589 0.24453 0.0
C3905 C 0.00555 0.85138 0.25091 0.0
C3906 C 0.01282 0.82932 0.25346 0.0
C3907 C 0.13764 0.80275 0.271 0.0
C3908 C 0.13227 0.8189 0.2759 0.0
C3909 C 0.11726 0.79177 0.2657 0.0
C3910 C 0.09048 0.79593 0.26522 0.0
C3911 C 0.08605 0.813 0.27003 0.0
C3912 C 0.10653 0.82444 0.27519 0.0
C3913 C 0.06656 0.78274 0.25987 0.0
C3914 C 0.05585 0.80203 0.25712 0.0
C3915 C 0.05289 0.75113 0.25766 0.0
C3916 C 0.06297 0.72912 0.26008 0.0
C3917 C 0.05883 0.72013 0.26643 0.0
C3918 C 0.06931 0.69991 0.26866 0.0
C3919 C 0.08381 0.68852 0.26459 0.0
C3920 C 0.08766 0.69709 0.25826 0.0
C3921 C 0.07716 0.71721 0.256 0.0
H3922 H 0.09201 0.67299 0.26634 0.0
H3923 H 1.00488 0.87597 0.24257 0.0
H3924 H 0.56151 0.08789 0.0309 0.0
H3925 H 0.5667 0.08862 0.01955 0.0
H3926 H 0.50449 0.98736 0.01898 0.0
H3927 H 0.49942 0.9864 0.03051 0.0
H3928 H 0.5548 0.00679 0.01078 0.0
H3929 H 0.46848 0.03568 0.01074 0.0
H3930 H 0.44333 0.06488 0.01507 0.0
H3931 H 0.53357 0.15089 0.01517 0.0
H3932 H 0.55892 0.1223 0.01064 0.0
H3933 H 0.52026 0.99438 0.97844 0.0
H3934 H 0.51595 0.99459 0.9898 0.0
H3935 H 0.57834 0.09587 0.99001 0.0
H3936 H 0.58283 0.09581 0.97846 0.0
H3937 H 0.52834 0.07684 0.99838 0.0
H3938 H 0.61264 0.04799 0.99691 0.0
H3939 H 0.63641 0.01796 0.99234 0.0
H3940 H 0.54873 0.93084 0.995 0.0
H3941 H 0.52488 0.9603 0.99978 0.0
C3942 C 0.54905 0.06559 0.0284 0.0
C3943 C 0.52992 0.03705 0.03167 0.0
C3944 C 0.5517 0.06616 0.02185 0.0
C3945 C 0.53516 0.03827 0.01831 0.0
C3946 C 0.51721 0.00937 0.02157 0.0
C3947 C 0.51455 0.00876 0.02818 0.0
C3948 C 0.53743 0.03963 0.01125 0.0
C3949 C 0.54859 0.02183 0.00809 0.0
C3950 C 0.53022 0.05971 0.00763 0.0
C3951 C 0.51557 0.07685 0.01049 0.0
C3952 C 0.48289 0.06079 0.01173 0.0
C3953 C 0.4686 0.07725 0.01417 0.0
C3954 C 0.4869 0.10964 0.01546 0.0
C3955 C 0.51945 0.12576 0.01421 0.0
C3956 C 0.53375 0.10952 0.01166 0.0
C3957 C 0.53295 0.0169 0.98086 0.0
C3958 C 0.55205 0.04512 0.97749 0.0
C3959 C 0.53072 0.01688 0.98741 0.0
C3960 C 0.54756 0.04505 0.99085 0.0
C3961 C 0.56538 0.07367 0.98749 0.0
C3962 C 0.5677 0.07371 0.98088 0.0
C3963 C 0.54587 0.04414 0.99791 0.0
C3964 C 0.53471 0.06193 1.00107 0.0
C3965 C 0.55305 0.02402 1.00152 0.0
C3966 C 0.56697 0.00628 0.99861 0.0
C3967 C 0.59848 0.02243 0.99649 0.0
C3968 C 0.61197 0.00554 0.99389 0.0
C3969 C 0.59398 0.97258 0.99332 0.0
C3970 C 0.5626 0.95638 0.99543 0.0
C3971 C 0.54917 0.97311 0.99813 0.0
H3972 H 0.60441 0.95958 0.99126 0.0
H3973 H 0.47582 0.12228 0.01739 0.0
H3974 H 0.09195 0.5808 0.97871 0.0
H3975 H 0.0919 0.57546 0.98998 0.0
H3976 H 0.99065 0.5119 0.98971 0.0
H3977 H 0.99029 0.51941 0.97829 0.0
H3978 H 1.00231 0.54887 0.99884 0.0
H3979 H 0.05318 0.48985 0.9929 0.0
H3980 H 0.09268 0.48049 0.98754 0.0
H3981 H 0.16802 0.56006 0.99713 0.0
H3982 H 0.129 0.57012 1.00248 0.0
H3983 H 0.99259 0.50615 0.03062 0.0
H3984 H 0.99276 0.50988 0.01937 0.0
H3985 H 0.09466 0.56953 0.0195 0.0
H3986 H 0.09481 0.56227 0.03094 0.0
H3987 H 0.08246 0.53417 0.01037 0.0
H3988 H 0.03084 0.5937 0.01615 0.0
H3989 H 0.99072 0.60249 0.02141 0.0
H3990 H 0.91622 0.52113 0.01209 0.0
H3991 H 0.95586 0.51172 0.00681 0.0
C3992 C 0.0695 0.56543 0.981 0.0
C3993 C 0.04098 0.55085 0.97753 0.0
C3994 C 0.06962 0.56205 0.98751 0.0
C3995 C 0.04141 0.54275 0.99081 0.0
C3996 C 0.0129 0.52698 0.98733 0.0
C3997 C 0.01267 0.531 0.98077 0.0
C3998 C 0.04168 0.54078 0.99788 0.0
C3999 C 0.01957 0.54511 1.00133 0.0
C4000 C 0.06475 0.53697 1.00126 0.0
C4001 C 0.08818 0.53084 0.99806 0.0
C4002 C 0.07818 0.50544 0.99383 0.0
C4003 C 0.10049 0.50001 0.9908 0.0
C4004 C 0.13284 0.5197 0.99199 0.0
C4005 C 0.14296 0.54483 0.99622 0.0
C4006 C 0.12076 0.55038 0.99926 0.0
C4007 C 0.01524 0.52031 0.02831 0.0
C4008 C 0.0438 0.53351 0.03175 0.0
C4009 C 0.01521 0.52289 0.02178 0.0
C4010 C 0.04357 0.5408 0.01843 0.0
C4011 C 0.07224 0.55553 0.02189 0.0
C4012 C 0.07238 0.55178 0.02847 0.0
C4013 C 0.04318 0.54246 0.01135 0.0
C4014 C 0.06525 0.53803 0.00788 0.0
C4015 C 0.02004 0.54616 0.00795 0.0
C4016 C 0.99631 0.55199 0.01111 0.0
C4017 C 0.0059 0.57766 0.01524 0.0
C4018 C 0.98324 0.58275 0.01822 0.0
C4019 C 0.95096 0.56243 0.01707 0.0
C4020 C 0.94124 0.53691 0.01295 0.0
C4021 C 0.96378 0.53173 0.00996 0.0
H4022 H 0.93347 0.56647 0.01936 0.0
H4023 H 0.15006 0.51545 0.98963 0.0
H4024 H 0.56748 0.52213 0.03096 0.0
H4025 H 0.56351 0.51905 0.0196 0.0
H4026 H 0.51883 0.57623 0.01978 0.0
H4027 H 0.52524 0.58176 0.03127 0.0
H4028 H 0.50852 0.49596 0.01185 0.0
H4029 H 0.54298 0.61426 0.01228 0.0
H4030 H 0.57887 0.66876 0.01597 0.0
H4031 H 0.65946 0.65953 0.01109 0.0
H4032 H 0.6239 0.60415 0.00782 0.0
H4033 H 0.50766 0.55338 0.97907 0.0
H4034 H 0.51215 0.55784 0.99044 0.0
H4035 H 0.57063 0.51458 0.99032 0.0
H4036 H 0.56409 0.50761 0.97884 0.0
H4037 H 0.57408 0.58815 0.99811 0.0
H4038 H 0.54044 0.47202 0.99691 0.0
H4039 H 0.50518 0.41817 0.99284 0.0
H4040 H 0.42375 0.42368 0.99877 0.0
H4041 H 0.45863 0.47836 1.00253 0.0
C4042 C 0.55705 0.53448 0.02861 0.0
C4043 C 0.54744 0.55296 0.03208 0.0
C4044 C 0.55487 0.53268 0.02206 0.0
C4045 C 0.54234 0.54867 0.0187 0.0
C4046 C 0.53044 0.56525 0.02216 0.0
C4047 C 0.53332 0.56772 0.02878 0.0
C4048 C 0.54087 0.54634 0.01165 0.0
C4049 C 0.52279 0.51627 0.00887 0.0
C4050 C 0.5597 0.57245 0.00765 0.0
C4051 C 0.58081 0.60466 0.0101 0.0
C4052 C 0.56831 0.6234 0.01226 0.0
C4053 C 0.58861 0.65452 0.01424 0.0
C4054 C 0.62145 0.6675 0.01384 0.0
C4055 C 0.63403 0.64936 0.01146 0.0
C4056 C 0.61383 0.61797 0.00964 0.0
C4057 C 0.52125 0.54436 0.98143 0.0
C4058 C 0.53469 0.52917 0.978 0.0
C4059 C 0.52378 0.54701 0.98797 0.0
C4060 C 0.54052 0.53531 0.99132 0.0
C4061 C 0.5562 0.52238 0.9879 0.0
C4062 C 0.55303 0.51899 0.9813 0.0
C4063 C 0.5419 0.53784 0.99836 0.0
C4064 C 0.55984 0.5679 1.00111 0.0
C4065 C 0.52295 0.51175 1.00233 0.0
C4066 C 0.5021 0.47959 0.9998 0.0
C4067 C 0.51502 0.46215 0.99715 0.0
C4068 C 0.49511 0.43141 0.99494 0.0
C4069 C 0.46224 0.41754 0.99552 0.0
C4070 C 0.44922 0.43446 0.9983 0.0
C4071 C 0.46904 0.46545 1.00041 0.0
H4072 H 0.44687 0.39364 0.99385 0.0
H4073 H 0.63714 0.69169 0.01532 0.0
H4074 H 0.08998 0.60445 0.53044 0.0
H4075 H 0.0872 0.59962 0.51891 0.0
H4076 H 0.01976 0.49985 0.52064 0.0
H4077 H 0.02077 0.50513 0.53204 0.0
H4078 H 0.09729 0.56181 0.51002 0.0
H4079 H 0.97334 0.48024 0.51395 0.0
H4080 H 0.92702 0.47098 0.52031 0.0
H4081 H 0.95242 0.56852 0.51798 0.0
H4082 H 0.99888 0.57813 0.51162 0.0
H4083 H 0.00684 0.47533 0.48075 0.0
H4084 H 0.01098 0.48413 0.49214 0.0
H4085 H 0.06058 0.58513 0.48905 0.0
H4086 H 0.05774 0.57629 0.47764 0.0
H4087 H 0.99213 0.52515 0.50018 0.0
H4088 H 0.11127 0.60402 0.49475 0.0
H4089 H 0.15556 0.61148 0.48794 0.0
H4090 H 0.13738 0.51807 0.49267 0.0
H4091 H 0.09259 0.50994 0.4994 0.0
C4092 C 0.0752 0.58136 0.52834 0.0
C4093 C 0.05608 0.55505 0.53218 0.0
C4094 C 0.07328 0.57865 0.52174 0.0
C4095 C 0.05233 0.54953 0.51882 0.0
C4096 C 0.03495 0.52291 0.52269 0.0
C4097 C 0.03622 0.52577 0.52924 0.0
C4098 C 0.04816 0.54682 0.51179 0.0
C4099 C 0.07433 0.55417 0.50791 0.0
C4100 C 0.01825 0.53631 0.50889 0.0
C4101 C 0.99009 0.5302 0.51256 0.0
C4102 C 0.96914 0.49972 0.51486 0.0
C4103 C 0.94285 0.49438 0.51844 0.0
C4104 C 0.93698 0.51924 0.51961 0.0
C4105 C 0.95717 0.54937 0.51714 0.0
C4106 C 0.98353 0.55479 0.51357 0.0
C4107 C 0.0182 0.4994 0.48251 0.0
C4108 C 0.0317 0.5251 0.4783 0.0
C4109 C 0.02063 0.50443 0.48903 0.0
C4110 C 0.03656 0.53531 0.4915 0.0
C4111 C 0.04872 0.56106 0.48729 0.0
C4112 C 0.04662 0.55602 0.48076 0.0
C4113 C 0.04123 0.54038 0.49845 0.0
C4114 C 0.01513 0.53317 0.50231 0.0
C4115 C 0.07109 0.55091 0.50132 0.0
C4116 C 0.09871 0.55637 0.49753 0.0
C4117 C 0.11679 0.58513 0.49432 0.0
C4118 C 0.14188 0.58943 0.49047 0.0
C4119 C 0.14926 0.56525 0.48986 0.0
C4120 C 0.13161 0.53675 0.49313 0.0
C4121 C 0.10636 0.53226 0.49695 0.0
H4122 H 0.16866 0.56861 0.48687 0.0
H4123 H 0.91664 0.51509 0.52239 0.0
H4124 H 0.59728 0.54156 0.47905 0.0
H4125 H 0.59236 0.53858 0.49057 0.0
H4126 H 0.5028 0.53623 0.48915 0.0
H4127 H 0.5082 0.54005 0.47776 0.0
H4128 H 0.53412 0.5755 0.49782 0.0
H4129 H 0.51207 0.46912 0.49362 0.0
H4130 H 0.52301 0.42858 0.4893 0.0
H4131 H 0.60868 0.46659 0.50014 0.0
H4132 H 0.59841 0.5076 0.50447 0.0
H4133 H 0.48512 0.53571 0.5301 0.0
H4134 H 0.49056 0.53894 0.51861 0.0
H4135 H 0.57887 0.53881 0.52016 0.0
H4136 H 0.57274 0.53439 0.53153 0.0
H4137 H 0.54853 0.50109 0.51141 0.0
H4138 H 0.57087 0.60735 0.51564 0.0
H4139 H 0.56024 0.64803 0.52 0.0
H4140 H 0.47473 0.61077 0.50913 0.0
H4141 H 0.48469 0.56963 0.50476 0.0
C4142 C 0.57612 0.53938 0.48121 0.0
C4143 C 0.5529 0.5405 0.47746 0.0
C4144 C 0.57333 0.5379 0.48782 0.0
C4145 C 0.54703 0.53702 0.49084 0.0
C4146 C 0.52343 0.53705 0.48704 0.0
C4147 C 0.52636 0.53883 0.48049 0.0
C4148 C 0.54421 0.53715 0.49792 0.0
C4149 C 0.53692 0.55888 0.50076 0.0
C4150 C 0.54852 0.51623 0.50189 0.0
C4151 C 0.55462 0.49155 0.49932 0.0
C4152 C 0.53333 0.46893 0.49505 0.0
C4153 C 0.5394 0.44586 0.4926 0.0
C4154 C 0.56656 0.44506 0.49443 0.0
C4155 C 0.58767 0.46727 0.49872 0.0
C4156 C 0.58173 0.49041 0.50118 0.0
C4157 C 0.50609 0.53731 0.52798 0.0
C4158 C 0.52865 0.53519 0.53176 0.0
C4159 C 0.50921 0.539 0.52138 0.0
C4160 C 0.53533 0.53933 0.51839 0.0
C4161 C 0.55836 0.53841 0.52223 0.0
C4162 C 0.55501 0.53624 0.52878 0.0
C4163 C 0.53845 0.53945 0.51132 0.0
C4164 C 0.54578 0.51775 0.50847 0.0
C4165 C 0.53426 0.56046 0.50734 0.0
C4166 C 0.52839 0.58529 0.50992 0.0
C4167 C 0.54972 0.60775 0.51421 0.0
C4168 C 0.54382 0.63089 0.51668 0.0
C4169 C 0.51679 0.63194 0.51485 0.0
C4170 C 0.49564 0.60991 0.51054 0.0
C4171 C 0.50141 0.5867 0.50806 0.0
H4172 H 0.51225 0.64987 0.51677 0.0
H4173 H 0.57122 0.42718 0.49253 0.0
H4174 H 0.58111 0.08646 0.53052 0.0
H4175 H 0.57573 0.08493 0.51931 0.0
H4176 H 0.5071 0.98492 0.52018 0.0
H4177 H 0.51579 0.9856 0.53157 0.0
H4178 H 0.53978 0.99193 0.51082 0.0
H4179 H 0.49213 0.05474 0.51681 0.0
H4180 H 0.49011 0.09885 0.52207 0.0
H4181 H 0.57303 0.16621 0.51196 0.0
H4182 H 0.57574 0.12255 0.5067 0.0
H4183 H 0.49189 0.98577 0.47922 0.0
H4184 H 0.49732 0.98549 0.49052 0.0
H4185 H 0.57049 0.08402 0.49002 0.0
H4186 H 0.56317 0.08504 0.47864 0.0
H4187 H 0.5345 0.07722 0.49913 0.0
H4188 H 0.58237 0.01525 0.49316 0.0
H4189 H 0.58509 0.97169 0.48784 0.0
H4190 H 0.50218 0.9033 0.49781 0.0
H4191 H 0.49875 0.94645 0.50313 0.0
C4192 C 0.56471 0.06391 0.52839 0.0
C4193 C 0.54929 0.03596 0.53202 0.0
C4194 C 0.5612 0.06324 0.52189 0.0
C4195 C 0.54021 0.03507 0.51876 0.0
C4196 C 0.52348 0.00718 0.52241 0.0
C4197 C 0.52815 0.00756 0.52895 0.0
C4198 C 0.53728 0.03468 0.51171 0.0
C4199 C 0.53798 0.01033 0.5083 0.0
C4200 C 0.53612 0.05918 0.50828 0.0
C4201 C 0.53419 0.08537 0.51139 0.0
C4202 C 0.50997 0.07897 0.51573 0.0
C4203 C 0.50872 0.10389 0.51871 0.0
C4204 C 0.53145 0.13531 0.51736 0.0
C4205 C 0.55544 0.14188 0.51301 0.0
C4206 C 0.5568 0.11706 0.51002 0.0
C4207 C 0.50932 0.00748 0.48148 0.0
C4208 C 0.52676 0.0356 0.47798 0.0
C4209 C 0.5127 0.00715 0.48799 0.0
C4210 C 0.53471 0.03456 0.49122 0.0
C4211 C 0.55325 0.06243 0.4877 0.0
C4212 C 0.5493 0.06298 0.48116 0.0
C4213 C 0.53697 0.0345 0.49827 0.0
C4214 C 0.53616 0.05878 0.50166 0.0
C4215 C 0.53801 0.00996 0.50168 0.0
C4216 C 0.5402 0.98407 0.49851 0.0
C4217 C 0.56463 0.99092 0.49419 0.0
C4218 C 0.56631 0.9663 0.49118 0.0
C4219 C 0.5438 0.93475 0.49248 0.0
C4220 C 0.5196 0.92774 0.4968 0.0
C4221 C 0.5178 0.95226 0.49982 0.0
H4222 H 0.54513 0.91573 0.49014 0.0
H4223 H 0.53045 0.15456 0.51967 0.0
H4224 H 0.25369 0.43116 0.3123 0.0
H4225 H 0.24731 0.43158 0.32375 0.0
H4226 H 0.18354 0.33044 0.3235 0.0
H4227 H 0.18758 0.3305 0.31218 0.0
H4228 H 0.16157 0.35146 0.3313 0.0
H4229 H 0.27526 0.36712 0.33339 0.0
H4230 H 0.33194 0.39533 0.33048 0.0
H4231 H 0.33313 0.48408 0.33076 0.0
H4232 H 0.27684 0.45642 0.33402 0.0
H4233 H 0.16452 0.31729 0.36436 0.0
H4234 H 0.17127 0.31838 0.35292 0.0
H4235 H 0.22922 0.42025 0.35346 0.0
H4236 H 0.2243 0.41908 0.36481 0.0
H4237 H 0.25422 0.39965 0.34557 0.0
H4238 H 0.13823 0.38135 0.34318 0.0
H4239 H 0.0812 0.35104 0.34584 0.0
H4240 H 0.08453 0.26456 0.3459 0.0
H4241 H 0.14123 0.29431 0.34297 0.0
C4242 C 0.2379 0.4092 0.3147 0.0
C4243 C 0.22146 0.3808 0.31128 0.0
C4244 C 0.23491 0.40922 0.32131 0.0
C4245 C 0.21593 0.38077 0.32467 0.0
C4246 C 0.19864 0.3528 0.32116 0.0
C4247 C 0.20101 0.3529 0.31462 0.0
C4248 C 0.21259 0.37941 0.33174 0.0
C4249 C 0.18206 0.36193 0.33438 0.0
C4250 C 0.23873 0.3931 0.33593 0.0
C4251 C 0.27178 0.40968 0.3337 0.0
C4252 C 0.2876 0.39261 0.33275 0.0
C4253 C 0.31967 0.40851 0.33109 0.0
C4254 C 0.33596 0.44139 0.33028 0.0
C4255 C 0.3204 0.45856 0.3313 0.0
C4256 C 0.28852 0.44284 0.33311 0.0
C4257 C 0.179 0.33984 0.36204 0.0
C4258 C 0.19357 0.36807 0.36556 0.0
C4259 C 0.18224 0.34058 0.35544 0.0
C4260 C 0.19972 0.36958 0.35217 0.0
C4261 C 0.21522 0.39751 0.35575 0.0
C4262 C 0.21237 0.39677 0.3623 0.0
C4263 C 0.20324 0.37146 0.34511 0.0
C4264 C 0.23378 0.38916 0.34248 0.0
C4265 C 0.17713 0.3577 0.34092 0.0
C4266 C 0.14402 0.3401 0.34311 0.0
C4267 C 0.12678 0.35591 0.34383 0.0
C4268 C 0.09446 0.33879 0.34529 0.0
C4269 C 0.07935 0.30595 0.34613 0.0
C4270 C 0.09635 0.29005 0.34534 0.0
C4271 C 0.12849 0.30698 0.34374 0.0
H4272 H 0.05442 0.29281 0.34733 0.0
H4273 H 0.36072 0.4536 0.32894 0.0
H4274 H 0.65614 0.82408 0.3636 0.0
H4275 H 0.65684 0.82844 0.35219 0.0
H4276 H 0.75698 0.89573 0.35267 0.0
H4277 H 0.75693 0.89009 0.36417 0.0
H4278 H 0.71185 0.91146 0.34517 0.0
H4279 H 0.75171 0.83723 0.34504 0.0
H4280 H 0.75442 0.78885 0.34728 0.0
H4281 H 0.65558 0.73116 0.34276 0.0
H4282 H 0.65262 0.77926 0.34035 0.0
H4283 H 0.75415 0.90681 0.31252 0.0
H4284 H 0.7518 0.90232 0.32392 0.0
H4285 H 0.64999 0.84548 0.32309 0.0
H4286 H 0.65197 0.85136 0.31156 0.0
H4287 H 0.69515 0.82442 0.33078 0.0
H4288 H 0.65789 0.90007 0.32982 0.0
H4289 H 0.65622 0.94899 0.32762 0.0
H4290 H 0.75176 0.00527 0.33434 0.0
H4291 H 0.75378 0.95661 0.33664 0.0
C4292 C 0.67852 0.83962 0.36131 0.0
C4293 C 0.70665 0.85617 0.36485 0.0
C4294 C 0.67882 0.84199 0.35475 0.0
C4295 C 0.70705 0.86184 0.35153 0.0
C4296 C 0.73497 0.8798 0.35504 0.0
C4297 C 0.73485 0.87681 0.36162 0.0
C4298 C 0.70654 0.86502 0.34455 0.0
C4299 C 0.70866 0.89259 0.34202 0.0
C4300 C 0.70137 0.84016 0.34042 0.0
C4301 C 0.70186 0.81168 0.34261 0.0
C4302 C 0.73051 0.8142 0.34461 0.0
C4303 C 0.73221 0.78686 0.34581 0.0
C4304 C 0.70524 0.75693 0.34512 0.0
C4305 C 0.67647 0.75432 0.34326 0.0
C4306 C 0.6748 0.78159 0.34196 0.0
C4307 C 0.7311 0.89349 0.31473 0.0
C4308 C 0.70318 0.87996 0.31108 0.0
C4309 C 0.72986 0.8911 0.32128 0.0
C4310 C 0.70073 0.87424 0.3244 0.0
C4311 C 0.67276 0.85917 0.32079 0.0
C4312 C 0.67393 0.86221 0.31419 0.0
C4313 C 0.70028 0.87083 0.33138 0.0
C4314 C 0.69816 0.84325 0.33392 0.0
C4315 C 0.70558 0.89578 0.33551 0.0
C4316 C 0.70612 0.92481 0.33331 0.0
C4317 C 0.67871 0.9229 0.33072 0.0
C4318 C 0.67752 0.95055 0.32955 0.0
C4319 C 0.70377 0.98022 0.3309 0.0
C4320 C 0.7314 0.9823 0.33334 0.0
C4321 C 0.73256 0.95471 0.33458 0.0
H4322 H 0.70281 1.0016 0.33 0.0
H4323 H 0.70655 0.73579 0.34608 0.0
H4324 H 0.18969 0.81214 0.31387 0.0
H4325 H 0.1941 0.81957 0.32533 0.0
H4326 H 0.22121 0.91776 0.32289 0.0
H4327 H 0.21447 0.90973 0.31147 0.0
H4328 H 0.25568 0.88407 0.33313 0.0
H4329 H 0.16906 0.90496 0.32708 0.0
H4330 H 0.12081 0.88946 0.32085 0.0
H4331 H 0.07507 0.79769 0.3296 0.0
H4332 H 0.12365 0.8123 0.33569 0.0
H4333 H 0.22239 0.9355 0.36389 0.0
H4334 H 0.21852 0.92979 0.35237 0.0
H4335 H 0.19347 0.83187 0.35418 0.0
H4336 H 0.19932 0.8381 0.36562 0.0
H4337 H 0.15837 0.86633 0.34421 0.0
H4338 H 0.2452 0.84477 0.35002 0.0
H4339 H 0.29439 0.85892 0.35581 0.0
H4340 H 0.34003 0.95132 0.34733 0.0
H4341 H 0.29061 0.93805 0.34168 0.0
C4342 C 0.1971 0.83543 0.31579 0.0
C4343 C 0.20189 0.8604 0.31177 0.0
C4344 C 0.19951 0.83964 0.32234 0.0
C4345 C 0.20765 0.86916 0.32501 0.0
C4346 C 0.21447 0.89465 0.32097 0.0
C4347 C 0.21092 0.89014 0.31444 0.0
C4348 C 0.20724 0.87286 0.332 0.0
C4349 C 0.23445 0.88037 0.33554 0.0
C4350 C 0.1796 0.86786 0.3352 0.0
C4351 C 0.15013 0.85948 0.33174 0.0
C4352 C 0.14889 0.88131 0.3276 0.0
C4353 C 0.12149 0.87271 0.3241 0.0
C4354 C 0.09494 0.84254 0.3248 0.0
C4355 C 0.09569 0.82101 0.32904 0.0
C4356 C 0.1232 0.82939 0.3325 0.0
C4357 C 0.21527 0.91257 0.36183 0.0
C4358 C 0.21077 0.88713 0.36567 0.0
C4359 C 0.21336 0.90938 0.35524 0.0
C4360 C 0.20616 0.88049 0.35237 0.0
C4361 C 0.19958 0.85454 0.35624 0.0
C4362 C 0.20254 0.85801 0.36279 0.0
C4363 C 0.20689 0.8777 0.34536 0.0
C4364 C 0.17968 0.87023 0.34181 0.0
C4365 C 0.23454 0.8827 0.34214 0.0
C4366 C 0.26403 0.89071 0.34556 0.0
C4367 C 0.26549 0.86834 0.34951 0.0
C4368 C 0.29345 0.87615 0.35274 0.0
C4369 C 0.32028 0.90606 0.35196 0.0
C4370 C 0.3192 0.9282 0.34794 0.0
C4371 C 0.29119 0.9206 0.34475 0.0
H4372 H 0.34199 0.91203 0.35441 0.0
H4373 H 0.07375 0.8359 0.32208 0.0
H4374 H 0.65434 0.83907 0.81164 0.0
H4375 H 0.65381 0.84411 0.82317 0.0
H4376 H 0.75595 0.89624 0.82334 0.0
H4377 H 0.75674 0.89273 0.81196 0.0
H4378 H 0.72172 0.83729 0.83176 0.0
H4379 H 0.73261 0.93796 0.82643 0.0
H4380 H 0.71838 0.97471 0.82139 0.0
H4381 H 0.62915 0.93025 0.83112 0.0
H4382 H 0.6426 0.8927 0.83611 0.0
H4383 H 0.7593 0.90236 0.86396 0.0
H4384 H 0.75931 0.89666 0.85245 0.0
H4385 H 0.65716 0.84744 0.85239 0.0
H4386 H 0.65688 0.85152 0.86379 0.0
H4387 H 0.69137 0.90485 0.84392 0.0
H4388 H 0.68175 0.80487 0.84948 0.0
H4389 H 0.69706 0.76905 0.85457 0.0
H4390 H 0.78516 0.8132 0.84445 0.0
H4391 H 0.77067 0.84984 0.83941 0.0
C4392 C 0.6766 0.85229 0.81412 0.0
C4393 C 0.70554 0.86518 0.81084 0.0
C4394 C 0.67631 0.85494 0.82072 0.0
C4395 C 0.70491 0.87022 0.82414 0.0
C4396 C 0.73362 0.88409 0.82084 0.0
C4397 C 0.73393 0.88211 0.8143 0.0
C4398 C 0.70538 0.87092 0.83116 0.0
C4399 C 0.71529 0.85225 0.83441 0.0
C4400 C 0.69686 0.89024 0.83466 0.0
C4401 C 0.68833 0.91212 0.83154 0.0
C4402 C 0.7097 0.93562 0.8274 0.0
C4403 C 0.70185 0.9567 0.82458 0.0
C4404 C 0.67281 0.95471 0.82591 0.0
C4405 C 0.65158 0.93166 0.83007 0.0
C4406 C 0.65928 0.91045 0.83289 0.0
C4407 C 0.73687 0.88964 0.8615 0.0
C4408 C 0.70811 0.87784 0.86481 0.0
C4409 C 0.73689 0.88661 0.85492 0.0
C4410 C 0.70819 0.87201 0.85154 0.0
C4411 C 0.67958 0.85908 0.85487 0.0
C4412 C 0.67953 0.86139 0.86141 0.0
C4413 C 0.70758 0.87112 0.84452 0.0
C4414 C 0.69772 0.88982 0.84127 0.0
C4415 C 0.71627 0.85193 0.84103 0.0
C4416 C 0.72537 0.83047 0.84415 0.0
C4417 C 0.70463 0.80732 0.84842 0.0
C4418 C 0.7131 0.78678 0.85128 0.0
C4419 C 0.74213 0.78894 0.84985 0.0
C4420 C 0.76274 0.81164 0.84556 0.0
C4421 C 0.75442 0.83233 0.84271 0.0
H4422 H 0.7486 0.77293 0.85205 0.0
H4423 H 0.66681 0.97114 0.82374 0.0
H4424 H 0.21441 0.82502 0.86351 0.0
H4425 H 0.22086 0.83056 0.85218 0.0
H4426 H 0.1867 0.897 0.85227 0.0
H4427 H 0.17863 0.8902 0.86367 0.0
H4428 H 0.15901 0.85731 0.84332 0.0
H4429 H 0.26843 0.91775 0.84928 0.0
H4430 H 0.31734 0.92783 0.85472 0.0
H4431 H 0.31514 0.84937 0.84506 0.0
H4432 H 0.26598 0.83857 0.83964 0.0
H4433 H 0.18975 0.90107 0.81169 0.0
H4434 H 0.18737 0.89728 0.82293 0.0
H4435 H 0.23267 0.84044 0.82243 0.0
H4436 H 0.23941 0.84842 0.81099 0.0
H4437 H 0.25458 0.87436 0.83174 0.0
H4438 H 0.14346 0.81358 0.82588 0.0
H4439 H 0.09454 0.80458 0.82058 0.0
H4440 H 0.09964 0.88437 0.83025 0.0
H4441 H 0.14872 0.89404 0.83554 0.0
C4442 C 0.20846 0.84107 0.86114 0.0
C4443 C 0.19561 0.85688 0.86452 0.0
C4444 C 0.21248 0.84445 0.85462 0.0
C4445 C 0.20464 0.86448 0.85128 0.0
C4446 C 0.19295 0.88133 0.85469 0.0
C4447 C 0.18857 0.87765 0.86123 0.0
C4448 C 0.20674 0.86623 0.84423 0.0
C4449 C 0.18012 0.8615 0.8408 0.0
C4450 C 0.23381 0.87065 0.84086 0.0
C4451 C 0.26342 0.87722 0.84409 0.0
C4452 C 0.27828 0.90253 0.84835 0.0
C4453 C 0.30606 0.90839 0.85143 0.0
C4454 C 0.31931 0.88922 0.85025 0.0
C4455 C 0.30484 0.86419 0.84598 0.0
C4456 C 0.27705 0.85821 0.8429 0.0
C4457 C 0.19921 0.88754 0.81391 0.0
C4458 C 0.21528 0.87548 0.81036 0.0
C4459 C 0.19725 0.88487 0.82044 0.0
C4460 C 0.20873 0.86758 0.82369 0.0
C4461 C 0.2234 0.85391 0.82012 0.0
C4462 C 0.22689 0.85804 0.81354 0.0
C4463 C 0.20668 0.86528 0.83077 0.0
C4464 C 0.23334 0.86995 0.83423 0.0
C4465 C 0.17956 0.86077 0.83419 0.0
C4466 C 0.1498 0.85458 0.83107 0.0
C4467 C 0.13415 0.82922 0.82686 0.0
C4468 C 0.10642 0.82403 0.82386 0.0
C4469 C 0.09401 0.84391 0.82507 0.0
C4470 C 0.10925 0.86898 0.82931 0.0
C4471 C 0.13699 0.87429 0.83232 0.0
H4472 H 0.07256 0.83987 0.82274 0.0
H4473 H 0.34082 0.89379 0.85263 0.0
H4474 H 0.20303 0.42582 0.81303 0.0
H4475 H 0.20544 0.42323 0.82451 0.0
H4476 H 0.21377 0.33933 0.82293 0.0
H4477 H 0.2097 0.34113 0.81153 0.0
H4478 H 0.1744 0.32832 0.83153 0.0
H4479 H 0.27799 0.41909 0.8277 0.0
H4480 H 0.31526 0.47208 0.82345 0.0
H4481 H 0.2692 0.5124 0.8341 0.0
H4482 H 0.23146 0.45957 0.83837 0.0
H4483 H 0.21291 0.32093 0.86386 0.0
H4484 H 0.20971 0.32314 0.8524 0.0
H4485 H 0.20559 0.40942 0.854 0.0
H4486 H 0.21116 0.40824 0.86536 0.0
H4487 H 0.24252 0.41901 0.84533 0.0
H4488 H 0.13883 0.32814 0.84922 0.0
H4489 H 0.10125 0.27503 0.85338 0.0
H4490 H 0.14691 0.23469 0.84261 0.0
H4491 H 0.18494 0.28762 0.83843 0.0
C4492 C 0.20648 0.40753 0.81514 0.0
C4493 C 0.20684 0.38408 0.81136 0.0
C4494 C 0.20766 0.40585 0.82173 0.0
C4495 C 0.21012 0.38118 0.8247 0.0
C4496 C 0.21174 0.35856 0.82086 0.0
C4497 C 0.20989 0.35986 0.81431 0.0
C4498 C 0.2098 0.37792 0.83176 0.0
C4499 C 0.18965 0.34817 0.83452 0.0
C4500 C 0.22889 0.40366 0.83579 0.0
C4501 C 0.25182 0.43541 0.83331 0.0
C4502 C 0.27577 0.43926 0.82912 0.0
C4503 C 0.29696 0.46925 0.82671 0.0
C4504 C 0.29456 0.49558 0.8285 0.0
C4505 C 0.27102 0.49199 0.83272 0.0
C4506 C 0.24976 0.46205 0.83514 0.0
C4507 C 0.21036 0.33979 0.86176 0.0
C4508 C 0.21176 0.36412 0.86553 0.0
C4509 C 0.20858 0.34116 0.85517 0.0
C4510 C 0.20696 0.36631 0.8522 0.0
C4511 C 0.20697 0.38979 0.85605 0.0
C4512 C 0.20972 0.38892 0.86259 0.0
C4513 C 0.20696 0.3694 0.84513 0.0
C4514 C 0.22714 0.39913 0.84236 0.0
C4515 C 0.18783 0.34362 0.84109 0.0
C4516 C 0.16483 0.31183 0.84356 0.0
C4517 C 0.14091 0.30795 0.84776 0.0
C4518 C 0.11954 0.27789 0.85012 0.0
C4519 C 0.12174 0.25152 0.84827 0.0
C4520 C 0.14525 0.25514 0.84404 0.0
C4521 C 0.16669 0.28514 0.84167 0.0
H4522 H 0.10518 0.22827 0.85011 0.0
H4523 H 0.31097 0.51878 0.82662 0.0
H4524 H 0.89808 0.75127 0.698 0.0
H4525 H 0.90355 0.75154 0.68665 0.0
H4526 H 0.83359 0.65202 0.68604 0.0
H4527 H 0.82875 0.65151 0.69757 0.0
H4528 H 0.87766 0.66407 0.6775 0.0
H4529 H 0.816 0.71331 0.68223 0.0
H4530 H 0.80433 0.75123 0.68761 0.0
H4531 H 0.88854 0.82913 0.67977 0.0
H4532 H 0.90085 0.79171 0.67439 0.0
H4533 H 0.84856 0.65971 0.64512 0.0
H4534 H 0.84268 0.65933 0.65647 0.0
H4535 H 0.91243 0.75889 0.65714 0.0
H4536 H 0.91767 0.75952 0.64562 0.0
H4537 H 0.86821 0.74676 0.66566 0.0
H4538 H 0.93048 0.69759 0.66119 0.0
H4539 H 0.94275 0.65975 0.65593 0.0
H4540 H 0.8573 0.58174 0.66335 0.0
H4541 H 0.84449 0.61911 0.66861 0.0
C4542 C 0.8841 0.72923 0.69548 0.0
C4543 C 0.86289 0.70135 0.69873 0.0
C4544 C 0.88702 0.72951 0.68894 0.0
C4545 C 0.8683 0.70209 0.68537 0.0
C4546 C 0.84817 0.67369 0.68863 0.0
C4547 C 0.84552 0.67331 0.69524 0.0
C4548 C 0.86962 0.70353 0.67828 0.0
C4549 C 0.87507 0.68187 0.67493 0.0
C4550 C 0.8671 0.72718 0.67482 0.0
C4551 C 0.85944 0.74972 0.67795 0.0
C4552 C 0.83207 0.73853 0.68168 0.0
C4553 C 0.82535 0.75991 0.68473 0.0
C4554 C 0.84573 0.79254 0.68405 0.0
C4555 C 0.8728 0.80385 0.6803 0.0
C4556 C 0.87962 0.78258 0.67724 0.0
C4557 C 0.86238 0.68175 0.64766 0.0
C4558 C 0.88366 0.70967 0.64442 0.0
C4559 C 0.85925 0.6814 0.6542 0.0
C4560 C 0.87779 0.7088 0.65779 0.0
C4561 C 0.89797 0.73723 0.65454 0.0
C4562 C 0.90084 0.73768 0.64794 0.0
C4563 C 0.87626 0.70729 0.66487 0.0
C4564 C 0.87076 0.72894 0.66823 0.0
C4565 C 0.87871 0.68361 0.66834 0.0
C4566 C 0.88645 0.66111 0.66524 0.0
C4567 C 0.91427 0.67236 0.66165 0.0
C4568 C 0.92131 0.65103 0.65868 0.0
C4569 C 0.90075 0.6184 0.65929 0.0
C4570 C 0.87318 0.60703 0.66288 0.0
C4571 C 0.86606 0.62826 0.66587 0.0
H4572 H 0.90625 0.6019 0.657 0.0
H4573 H 0.84051 0.80905 0.68642 0.0
H4574 H 0.32152 0.21517 0.64571 0.0
H4575 H 0.32429 0.21285 0.65724 0.0
H4576 H 0.39928 0.19071 0.65551 0.0
H4577 H 0.39783 0.19489 0.64409 0.0
H4578 H 0.3224 0.16235 0.66597 0.0
H4579 H 0.44411 0.22905 0.66132 0.0
H4580 H 0.48601 0.27201 0.65497 0.0
H4581 H 0.44544 0.33098 0.6587 0.0
H4582 H 0.40301 0.28801 0.66498 0.0
H4583 H 0.3984 0.16437 0.69489 0.0
H4584 H 0.39208 0.16859 0.68362 0.0
H4585 H 0.37197 0.24404 0.68693 0.0
H4586 H 0.37617 0.2384 0.69833 0.0
H4587 H 0.41936 0.24923 0.67586 0.0
H4588 H 0.3137 0.18744 0.68442 0.0
H4589 H 0.27295 0.14438 0.6909 0.0
H4590 H 0.28177 0.0755 0.67985 0.0
H4591 H 0.32339 0.11827 0.67343 0.0
C4592 C 0.33791 0.20888 0.6478 0.0
C4593 C 0.35921 0.20484 0.64399 0.0
C4594 C 0.3398 0.20798 0.6544 0.0
C4595 C 0.36275 0.20264 0.65729 0.0
C4596 C 0.38225 0.19614 0.65344 0.0
C4597 C 0.38093 0.19783 0.6469 0.0
C4598 C 0.3671 0.20469 0.66427 0.0
C4599 C 0.34359 0.18133 0.66812 0.0
C4600 C 0.39459 0.22947 0.66716 0.0
C4601 C 0.41999 0.25514 0.66343 0.0
C4602 C 0.44392 0.25103 0.6607 0.0
C4603 C 0.46779 0.27537 0.65713 0.0
C4604 C 0.46827 0.30413 0.6564 0.0
C4605 C 0.44493 0.30862 0.65924 0.0
C4606 C 0.42091 0.28425 0.66278 0.0
C4607 C 0.39273 0.18199 0.69324 0.0
C4608 C 0.38755 0.20086 0.69754 0.0
C4609 C 0.38925 0.18443 0.68678 0.0
C4610 C 0.38126 0.20641 0.68441 0.0
C4611 C 0.37814 0.22688 0.68865 0.0
C4612 C 0.38094 0.22393 0.69517 0.0
C4613 C 0.37488 0.20663 0.67755 0.0
C4614 C 0.39803 0.23034 0.67373 0.0
C4615 C 0.34722 0.18188 0.6747 0.0
C4616 C 0.32196 0.1561 0.6785 0.0
C4617 C 0.30727 0.16315 0.68343 0.0
C4618 C 0.28398 0.13879 0.68708 0.0
C4619 C 0.27483 0.10722 0.6858 0.0
C4620 C 0.28887 0.09996 0.68084 0.0
C4621 C 0.31239 0.12427 0.6772 0.0
H4622 H 0.25683 0.08839 0.68864 0.0
H4623 H 0.48691 0.32301 0.65368 0.0
H4624 H 0.89496 0.17734 0.64524 0.0
H4625 H 0.90314 0.18528 0.65658 0.0
H4626 H 0.836 0.21861 0.65725 0.0
H4627 H 0.83053 0.21397 0.64592 0.0
H4628 H 0.87625 0.24989 0.66505 0.0
H4629 H 0.82146 0.13476 0.66158 0.0
H4630 H 0.81677 0.08558 0.65718 0.0
H4631 H 0.90454 0.10666 0.66595 0.0
H4632 H 0.9099 0.15606 0.6703 0.0
H4633 H 0.85186 0.2368 0.69821 0.0
H4634 H 0.84368 0.22984 0.68682 0.0
H4635 H 0.9064 0.1911 0.68607 0.0
H4636 H 0.91125 0.19441 0.69737 0.0
H4637 H 0.86817 0.16239 0.67824 0.0
H4638 H 0.92472 0.2761 0.68178 0.0
H4639 H 0.93382 0.32783 0.6857 0.0
H4640 H 0.84849 0.31242 0.67672 0.0
H4641 H 0.83854 0.2605 0.67284 0.0
C4642 C 0.88234 0.18683 0.6478 0.0
C4643 C 0.86134 0.1941 0.64467 0.0
C4644 C 0.88658 0.19085 0.65433 0.0
C4645 C 0.86919 0.20131 0.65792 0.0
C4646 C 0.8495 0.21008 0.6547 0.0
C4647 C 0.84613 0.20712 0.64818 0.0
C4648 C 0.87113 0.20333 0.66497 0.0
C4649 C 0.87409 0.2305 0.66793 0.0
C4650 C 0.86945 0.17876 0.66882 0.0
C4651 C 0.86617 0.14914 0.66619 0.0
C4652 C 0.83981 0.12894 0.66251 0.0
C4653 C 0.83704 0.10107 0.66003 0.0
C4654 C 0.86034 0.09305 0.66128 0.0
C4655 C 0.88652 0.11292 0.66499 0.0
C4656 C 0.88942 0.14082 0.66745 0.0
C4657 C 0.86329 0.22619 0.69561 0.0
C4658 C 0.88291 0.21699 0.69871 0.0
C4659 C 0.85917 0.22279 0.68905 0.0
C4660 C 0.87535 0.211 0.68543 0.0
C4661 C 0.89368 0.2005 0.68862 0.0
C4662 C 0.89678 0.20277 0.69514 0.0
C4663 C 0.87342 0.2091 0.67836 0.0
C4664 C 0.87038 0.18188 0.67539 0.0
C4665 C 0.87554 0.23388 0.6745 0.0
C4666 C 0.88077 0.26433 0.67709 0.0
C4667 C 0.90773 0.2836 0.68072 0.0
C4668 C 0.91308 0.31293 0.68292 0.0
C4669 C 0.89185 0.32335 0.68144 0.0
C4670 C 0.86494 0.30431 0.67785 0.0
C4671 C 0.85941 0.27494 0.67566 0.0
H4672 H 0.89641 0.34633 0.68304 0.0
H4673 H 0.85803 0.07134 0.65942 0.0
H4674 H 0.32909 0.18124 0.19787 0.0
H4675 H 0.32786 0.17694 0.18655 0.0
H4676 H 0.42895 0.24111 0.18584 0.0
H4677 H 0.42975 0.24742 0.19732 0.0
H4678 H 0.40395 0.25711 0.17715 0.0
H4679 H 0.38727 0.15386 0.18267 0.0
H4680 H 0.36127 0.10238 0.18817 0.0
H4681 H 0.27214 0.07921 0.17973 0.0
H4682 H 0.29753 0.13069 0.17423 0.0
H4683 H 0.41999 0.22994 0.14517 0.0
H4684 H 0.42074 0.23453 0.15649 0.0
H4685 H 0.31935 0.17194 0.15703 0.0
H4686 H 0.31889 0.16572 0.14555 0.0
H4687 H 0.34413 0.15509 0.16578 0.0
H4688 H 0.36046 0.25756 0.16017 0.0
H4689 H 0.38585 0.30914 0.15471 0.0
H4690 H 0.475 0.3339 0.16335 0.0
H4691 H 0.45025 0.28227 0.16878 0.0
C4692 C 0.35129 0.19415 0.19534 0.0
C4693 C 0.37957 0.21478 0.19855 0.0
C4694 C 0.35057 0.19142 0.18881 0.0
C4695 C 0.37836 0.20813 0.18523 0.0
C4696 C 0.40706 0.22777 0.18844 0.0
C4697 C 0.40767 0.23108 0.19503 0.0
C4698 C 0.37686 0.20636 0.17816 0.0
C4699 C 0.39135 0.23469 0.17468 0.0
C4700 C 0.3594 0.17732 0.17484 0.0
C4701 C 0.34427 0.14619 0.17807 0.0
C4702 C 0.3621 0.13783 0.18201 0.0
C4703 C 0.34747 0.10864 0.18512 0.0
C4704 C 0.31507 0.08756 0.18431 0.0
C4705 C 0.29723 0.09556 0.18036 0.0
C4706 C 0.31174 0.1247 0.17723 0.0
C4707 C 0.39764 0.2175 0.14766 0.0
C4708 C 0.36933 0.19744 0.14442 0.0
C4709 C 0.3981 0.22034 0.15419 0.0
C4710 C 0.37008 0.20408 0.15772 0.0
C4711 C 0.3414 0.18492 0.15446 0.0
C4712 C 0.341 0.18167 0.14788 0.0
C4713 C 0.37133 0.20582 0.16478 0.0
C4714 C 0.35678 0.1775 0.16825 0.0
C4715 C 0.38869 0.23486 0.16809 0.0
C4716 C 0.40354 0.26597 0.16485 0.0
C4717 C 0.38552 0.27393 0.16087 0.0
C4718 C 0.3998 0.30318 0.15779 0.0
C4719 C 0.43203 0.32476 0.15867 0.0
C4720 C 0.45004 0.31716 0.16266 0.0
C4721 C 0.4359 0.28792 0.16575 0.0
H4722 H 0.44303 0.34741 0.15628 0.0
H4723 H 0.30378 0.06499 0.18673 0.0
H4724 H 0.83643 0.18879 0.14428 0.0
H4725 H 0.82961 0.18279 0.15562 0.0
H4726 H 0.93047 0.22126 0.15779 0.0
H4727 H 0.93653 0.22374 0.14633 0.0
H4728 H 0.90566 0.18358 0.16664 0.0
H4729 H 0.88291 0.26549 0.15951 0.0
H4730 H 0.85407 0.28459 0.15296 0.0
H4731 H 0.76584 0.21413 0.16105 0.0
H4732 H 0.79431 0.19443 0.16756 0.0
H4733 H 0.91073 0.21832 0.19875 0.0
H4734 H 0.91769 0.2245 0.18741 0.0
H4735 H 0.81753 0.19051 0.18527 0.0
H4736 H 0.81166 0.18833 0.19672 0.0
H4737 H 0.84156 0.22553 0.17636 0.0
H4738 H 0.86185 0.14332 0.18357 0.0
H4739 H 0.88887 0.12155 0.18994 0.0
H4740 H 0.97829 0.18857 0.18173 0.0
H4741 H 0.95185 0.21099 0.17537 0.0
C4742 C 0.85696 0.19463 0.14716 0.0
C4743 C 0.88688 0.20581 0.14437 0.0
C4744 C 0.85322 0.19214 0.15371 0.0
C4745 C 0.87964 0.20286 0.15772 0.0
C4746 C 0.90949 0.2129 0.15491 0.0
C4747 C 0.913 0.21408 0.14832 0.0
C4748 C 0.87635 0.20418 0.16478 0.0
C4749 C 0.89196 0.1932 0.16874 0.0
C4750 C 0.85768 0.2157 0.16767 0.0
C4751 C 0.84075 0.22837 0.16396 0.0
C4752 C 0.85741 0.2541 0.15986 0.0
C4753 C 0.84111 0.26499 0.15616 0.0
C4754 C 0.80811 0.25052 0.15658 0.0
C4755 C 0.79139 0.22529 0.16073 0.0
C4756 C 0.80762 0.21429 0.16443 0.0
C4757 C 0.89044 0.21333 0.19586 0.0
C4758 C 0.86074 0.20331 0.19865 0.0
C4759 C 0.89421 0.216 0.18932 0.0
C4760 C 0.86793 0.20651 0.18531 0.0
C4761 C 0.83842 0.19784 0.18814 0.0
C4762 C 0.835 0.19675 0.19472 0.0
C4763 C 0.87097 0.205 0.17824 0.0
C4764 C 0.8553 0.21591 0.17428 0.0
C4765 C 0.88922 0.193 0.17534 0.0
C4766 C 0.90492 0.17894 0.17903 0.0
C4767 C 0.88727 0.15341 0.18313 0.0
C4768 C 0.90249 0.14099 0.18675 0.0
C4769 C 0.93528 0.1537 0.18625 0.0
C4770 C 0.95291 0.17876 0.18211 0.0
C4771 C 0.93782 0.19131 0.1785 0.0
H4772 H 0.94703 0.14411 0.18906 0.0
H4773 H 0.79548 0.25889 0.15369 0.0
H4774 H 0.89384 0.7576 0.14621 0.0
H4775 H 0.90057 0.75705 0.15766 0.0
H4776 H 0.84646 0.65493 0.15758 0.0
H4777 H 0.84016 0.65529 0.14624 0.0
H4778 H 0.84699 0.72805 0.1664 0.0
H4779 H 0.8711 0.63157 0.16464 0.0
H4780 H 0.90451 0.61368 0.15931 0.0
H4781 H 0.9853 0.7074 0.16088 0.0
H4782 H 0.95208 0.72584 0.16609 0.0
H4783 H 0.85846 0.65113 0.1984 0.0
H4784 H 0.85244 0.65018 0.18689 0.0
H4785 H 0.89354 0.75179 0.18682 0.0
H4786 H 0.89872 0.75274 0.19816 0.0
H4787 H 0.89971 0.6787 0.178 0.0
H4788 H 0.87315 0.77682 0.17772 0.0
H4789 H 0.84034 0.79607 0.18281 0.0
H4790 H 0.76472 0.70004 0.1852 0.0
H4791 H 0.79747 0.68035 0.18024 0.0
C4792 C 0.8842 0.73506 0.14862 0.0
C4793 C 0.86647 0.70652 0.1453 0.0
C4794 C 0.88786 0.73474 0.15517 0.0
C4795 C 0.87437 0.70591 0.15851 0.0
C4796 C 0.85777 0.67746 0.15514 0.0
C4797 C 0.85402 0.67774 0.14864 0.0
C4798 C 0.87498 0.70527 0.16553 0.0
C4799 C 0.85884 0.71756 0.16892 0.0
C4800 C 0.88964 0.69099 0.16889 0.0
C4801 C 0.90918 0.68007 0.16566 0.0
C4802 C 0.89594 0.64832 0.16379 0.0
C4803 C 0.9148 0.63812 0.16079 0.0
C4804 C 0.94699 0.65941 0.15974 0.0
C4805 C 0.96034 0.69098 0.16166 0.0
C4806 C 0.94149 0.70135 0.16461 0.0
C4807 C 0.86529 0.67308 0.19593 0.0
C4808 C 0.87892 0.70195 0.19922 0.0
C4809 C 0.86215 0.6726 0.18934 0.0
C4810 C 0.87211 0.70089 0.18593 0.0
C4811 C 0.88482 0.7295 0.18928 0.0
C4812 C 0.88798 0.73 0.1958 0.0
C4813 C 0.87138 0.70119 0.17889 0.0
C4814 C 0.88766 0.689 0.17549 0.0
C4815 C 0.8568 0.71557 0.17551 0.0
C4816 C 0.83773 0.72721 0.17869 0.0
C4817 C 0.84957 0.75991 0.17937 0.0
C4818 C 0.83106 0.77086 0.18224 0.0
C4819 C 0.80049 0.74929 0.18434 0.0
C4820 C 0.78847 0.71671 0.18361 0.0
C4821 C 0.80707 0.70564 0.18082 0.0
H4822 H 0.78608 0.75781 0.18652 0.0
H4823 H 0.9616 0.65144 0.15745 0.0
H4824 H 0.49757 0.83512 0.05808 0.0
H4825 H 0.50205 0.78793 0.05601 0.0
H4826 H 0.58078 0.84261 0.04358 0.0
H4827 H 0.5763 0.88986 0.04568 0.0
H4828 H 0.54036 0.77803 0.03947 0.0
H4829 H 0.59693 0.83569 0.05801 0.0
H4830 H 0.60144 0.86112 0.06825 0.0
H4831 H 0.52988 0.77214 0.07588 0.0
H4832 H 0.52456 0.74632 0.06564 0.0
H4833 H 0.60755 0.67595 0.04122 0.0
H4834 H 0.59904 0.72162 0.04107 0.0
H4835 H 0.53328 0.68115 0.05649 0.0
H4836 H 0.54255 0.63657 0.05681 0.0
H4837 H 0.56836 0.74004 0.05872 0.0
H4838 H 0.50951 0.68156 0.0407 0.0
H4839 H 0.50232 0.65395 0.03062 0.0
H4840 H 0.57366 0.74061 0.02217 0.0
H4841 H 0.58154 0.76865 0.03224 0.0
C4842 C 0.5149 0.83667 0.0547 0.0
C4843 C 0.53609 0.86595 0.05192 0.0
C4844 C 0.51771 0.8098 0.05357 0.0
C4845 C 0.54195 0.81168 0.04967 0.0
C4846 C 0.56179 0.84043 0.04657 0.0
C4847 C 0.55908 0.86738 0.04773 0.0
C4848 C 0.54872 0.78491 0.04941 0.0
C4849 C 0.54679 0.76992 0.04366 0.0
C4850 C 0.55662 0.77381 0.05488 0.0
C4851 C 0.56015 0.78917 0.06105 0.0
C4852 C 0.58201 0.82161 0.06186 0.0
C4853 C 0.58473 0.83609 0.06767 0.0
C4854 C 0.56592 0.81827 0.07271 0.0
C4855 C 0.54441 0.78592 0.07197 0.0
C4856 C 0.54154 0.77136 0.06617 0.0
C4857 C 0.59127 0.67682 0.04456 0.0
C4858 C 0.57583 0.65253 0.04903 0.0
C4859 C 0.58624 0.70291 0.04446 0.0
C4860 C 0.56524 0.70496 0.04875 0.0
C4861 C 0.54971 0.68049 0.05315 0.0
C4862 C 0.55499 0.65478 0.0533 0.0
C4863 C 0.55957 0.73259 0.04878 0.0
C4864 C 0.56187 0.74795 0.0545 0.0
C4865 C 0.55154 0.74362 0.04331 0.0
C4866 C 0.54631 0.72711 0.03722 0.0
C4867 C 0.52374 0.69468 0.0367 0.0
C4868 C 0.51954 0.67896 0.03099 0.0
C4869 C 0.53758 0.6955 0.02576 0.0
C4870 C 0.55973 0.72783 0.02623 0.0
C4871 C 0.56405 0.74366 0.03193 0.0
H4872 H 0.53435 0.68327 0.02135 0.0
H4873 H 0.56805 0.82952 0.0772 0.0
H4874 H 0.2364 0.69474 0.04448 0.0
H4875 H 0.27577 0.75039 0.04223 0.0
H4876 H 0.25533 0.77813 0.06006 0.0
H4877 H 0.21596 0.72254 0.06227 0.0
H4878 H 0.26607 0.82253 0.0512 0.0
H4879 H 0.31766 0.76552 0.0582 0.0
H4880 H 0.32989 0.72213 0.05776 0.0
H4881 H 0.36903 0.75174 0.0393 0.0
H4882 H 0.35643 0.79492 0.03958 0.0
H4883 H 0.41775 0.95837 0.05883 0.0
H4884 H 0.37268 0.90414 0.05862 0.0
H4885 H 0.38044 0.90205 0.03851 0.0
H4886 H 0.42516 0.95713 0.03867 0.0
H4887 H 0.37625 0.84537 0.04754 0.0
H4888 H 0.31981 0.89749 0.03997 0.0
H4889 H 0.30607 0.93978 0.04002 0.0
H4890 H 0.27912 0.92072 0.05941 0.0
H4891 H 0.29192 0.87757 0.05941 0.0
C4892 C 0.23978 0.71289 0.04783 0.0
C4893 C 0.22295 0.70442 0.05352 0.0
C4894 C 0.26249 0.74467 0.04658 0.0
C4895 C 0.26901 0.76863 0.05101 0.0
C4896 C 0.2509 0.76027 0.05655 0.0
C4897 C 0.22834 0.7285 0.05782 0.0
C4898 C 0.29595 0.80187 0.05009 0.0
C4899 C 0.29009 0.82733 0.05042 0.0
C4900 C 0.3275 0.80862 0.04899 0.0
C4901 C 0.33579 0.7832 0.04889 0.0
C4902 C 0.3287 0.76265 0.05404 0.0
C4903 C 0.33569 0.7381 0.05381 0.0
C4904 C 0.35013 0.73414 0.0485 0.0
C4905 C 0.35777 0.75481 0.04341 0.0
C4906 C 0.3507 0.77931 0.04359 0.0
C4907 C 0.40983 0.94646 0.05435 0.0
C4908 C 0.42509 0.96204 0.04877 0.0
C4909 C 0.38406 0.91543 0.05424 0.0
C4910 C 0.37328 0.8989 0.04856 0.0
C4911 C 0.38842 0.91431 0.04296 0.0
C4912 C 0.41384 0.9458 0.04305 0.0
C4913 C 0.34611 0.86562 0.04859 0.0
C4914 C 0.35207 0.8403 0.04821 0.0
C4915 C 0.3147 0.8589 0.04963 0.0
C4916 C 0.30696 0.88459 0.0497 0.0
C4917 C 0.31105 0.90244 0.04425 0.0
C4918 C 0.30337 0.92649 0.04426 0.0
C4919 C 0.29202 0.93319 0.04974 0.0
C4920 C 0.28798 0.91556 0.05518 0.0
C4921 C 0.29521 0.89114 0.05516 0.0
H4922 H 0.28622 0.95194 0.04975 0.0
H4923 H 0.35546 0.71512 0.04831 0.0
H4924 H 0.11611 0.48367 0.04055 0.0
H4925 H 0.17076 0.49355 0.04025 0.0
H4926 H 0.18964 0.54114 0.05812 0.0
H4927 H 0.13542 0.53096 0.05849 0.0
H4928 H 0.23837 0.57389 0.05056 0.0
H4929 H 0.17704 0.46456 0.05699 0.0
H4930 H 0.13466 0.40872 0.05613 0.0
H4931 H 0.17095 0.40152 0.03822 0.0
H4932 H 0.21374 0.4574 0.039 0.0
H4933 H 0.36762 0.5629 0.06315 0.0
H4934 H 0.31803 0.56139 0.06045 0.0
H4935 H 0.31585 0.51746 0.04275 0.0
H4936 H 0.36563 0.51882 0.04551 0.0
H4937 H 0.26014 0.48503 0.04863 0.0
H4938 H 0.32864 0.59409 0.04365 0.0
H4939 H 0.37205 0.64872 0.04549 0.0
H4940 H 0.32183 0.65705 0.06126 0.0
H4941 H 0.27838 0.60221 0.0596 0.0
C4942 C 0.13189 0.49616 0.04442 0.0
C4943 C 0.1213 0.50667 0.04953 0.0
C4944 C 0.16319 0.50182 0.04424 0.0
C4945 C 0.18451 0.51811 0.04917 0.0
C4946 C 0.17392 0.52875 0.05423 0.0
C4947 C 0.14275 0.52288 0.05443 0.0
C4948 C 0.21763 0.52357 0.0492 0.0
C4949 C 0.24311 0.55443 0.05016 0.0
C4950 C 0.22413 0.49844 0.04855 0.0
C4951 C 0.19836 0.46509 0.04803 0.0
C4952 C 0.17584 0.45109 0.05285 0.0
C4953 C 0.15181 0.41944 0.05238 0.0
C4954 C 0.15009 0.40158 0.04712 0.0
C4955 C 0.17236 0.41537 0.0423 0.0
C4956 C 0.19656 0.44699 0.04276 0.0
C4957 C 0.35707 0.55391 0.05859 0.0
C4958 C 0.37076 0.54157 0.05448 0.0
C4959 C 0.32864 0.55294 0.05705 0.0
C4960 C 0.31312 0.53954 0.05136 0.0
C4961 C 0.32735 0.52808 0.04715 0.0
C4962 C 0.35598 0.52919 0.04869 0.0
C4963 C 0.281 0.53536 0.05007 0.0
C4964 C 0.25561 0.50467 0.0489 0.0
C4965 C 0.27461 0.56068 0.05059 0.0
C4966 C 0.3004 0.59389 0.05154 0.0
C4967 C 0.32695 0.60747 0.04754 0.0
C4968 C 0.35157 0.63848 0.04855 0.0
C4969 C 0.3498 0.65624 0.05352 0.0
C4970 C 0.32323 0.64318 0.05744 0.0
C4971 C 0.29859 0.61214 0.05646 0.0
H4972 H 0.369 0.68015 0.05433 0.0
H4973 H 0.13156 0.37701 0.04678 0.0
H4974 H 0.88326 0.57394 0.44997 0.0
H4975 H 0.84333 0.58807 0.45304 0.0
H4976 H 0.79814 0.50515 0.46488 0.0
H4977 H 0.83792 0.49094 0.46173 0.0
H4978 H 0.75603 0.50534 0.45771 0.0
H4979 H 0.83404 0.58296 0.47087 0.0
H4980 H 0.88513 0.62805 0.47427 0.0
H4981 H 0.87442 0.68882 0.46109 0.0
H4982 H 0.82348 0.64394 0.45754 0.0
H4983 H 0.63624 0.54008 0.46787 0.0
H4984 H 0.68219 0.53188 0.46799 0.0
H4985 H 0.72912 0.60644 0.4543 0.0
H4986 H 0.68293 0.61407 0.45411 0.0
H4987 H 0.7704 0.61034 0.46346 0.0
H4988 H 0.69324 0.5281 0.44989 0.0
H4989 H 0.64355 0.48073 0.44668 0.0
H4990 H 0.65296 0.42741 0.46175 0.0
H4991 H 0.7029 0.47455 0.46503 0.0
C4992 C 0.86552 0.55949 0.45342 0.0
C4993 C 0.86408 0.53173 0.45572 0.0
C4994 C 0.84256 0.5675 0.45517 0.0
C4995 C 0.81753 0.54782 0.45923 0.0
C4996 C 0.81709 0.52085 0.46175 0.0
C4997 C 0.84006 0.51288 0.46001 0.0
C4998 C 0.79011 0.55331 0.46027 0.0
C4999 C 0.7593 0.52821 0.45911 0.0
C5000 C 0.79396 0.58322 0.46195 0.0
C5001 C 0.82513 0.60998 0.46389 0.0
C5002 C 0.84279 0.60583 0.46863 0.0
C5003 C 0.87167 0.63138 0.4706 0.0
C5004 C 0.88307 0.66126 0.46788 0.0
C5005 C 0.86561 0.66564 0.46318 0.0
C5006 C 0.83673 0.64015 0.46119 0.0
C5007 C 0.65673 0.55515 0.465 0.0
C5008 C 0.65649 0.5783 0.4611 0.0
C5009 C 0.68282 0.55022 0.46501 0.0
C5010 C 0.70923 0.56841 0.46113 0.0
C5011 C 0.70922 0.59216 0.45736 0.0
C5012 C 0.68295 0.59674 0.45729 0.0
C5013 C 0.73658 0.56242 0.46087 0.0
C5014 C 0.76731 0.58746 0.46214 0.0
C5015 C 0.73268 0.53231 0.45939 0.0
C5016 C 0.7015 0.5049 0.45775 0.0
C5017 C 0.68441 0.50643 0.45258 0.0
C5018 C 0.65627 0.47957 0.45074 0.0
C5019 C 0.64504 0.45112 0.45404 0.0
C5020 C 0.6617 0.44951 0.45922 0.0
C5021 C 0.68992 0.47625 0.46106 0.0
H5022 H 0.62368 0.43018 0.45255 0.0
H5023 H 0.90538 0.68105 0.46943 0.0
H5024 H 0.54521 0.13784 0.46639 0.0
H5025 H 0.55268 0.19123 0.466 0.0
H5026 H 0.47131 0.15815 0.45387 0.0
H5027 H 0.4643 0.10464 0.45408 0.0
H5028 H 0.52052 0.21424 0.44983 0.0
H5029 H 0.46718 0.17215 0.46946 0.0
H5030 H 0.46088 0.14605 0.4797 0.0
H5031 H 0.55041 0.22335 0.48577 0.0
H5032 H 0.55757 0.24965 0.47552 0.0
H5033 H 0.5001 0.34511 0.4509 0.0
H5034 H 0.48805 0.29144 0.4537 0.0
H5035 H 0.57623 0.33007 0.46385 0.0
H5036 H 0.58833 0.38403 0.46103 0.0
H5037 H 0.52408 0.27171 0.46933 0.0
H5038 H 0.57977 0.31207 0.45003 0.0
H5039 H 0.58983 0.33846 0.43973 0.0
H5040 H 0.4996 0.26459 0.43308 0.0
H5041 H 0.48876 0.23809 0.44339 0.0
C5042 C 0.52885 0.14184 0.46363 0.0
C5043 C 0.50384 0.11679 0.46032 0.0
C5044 C 0.53308 0.17243 0.46344 0.0
C5045 C 0.51225 0.17872 0.46 0.0
C5046 C 0.48757 0.15388 0.4566 0.0
C5047 C 0.4834 0.12322 0.45676 0.0
C5048 C 0.5165 0.21129 0.45989 0.0
C5049 C 0.52074 0.22651 0.4541 0.0
C5050 C 0.51791 0.2279 0.46546 0.0
C5051 C 0.51299 0.21279 0.47172 0.0
C5052 C 0.48557 0.18355 0.47298 0.0
C5053 C 0.48186 0.1687 0.47878 0.0
C5054 C 0.50524 0.18302 0.48338 0.0
C5055 C 0.53232 0.21229 0.4822 0.0
C5056 C 0.53621 0.2272 0.4764 0.0
C5057 C 0.51618 0.34219 0.45398 0.0
C5058 C 0.54487 0.36871 0.45584 0.0
C5059 C 0.50943 0.31151 0.45553 0.0
C5060 C 0.53136 0.30665 0.45894 0.0
C5061 C 0.55887 0.33321 0.46125 0.0
C5062 C 0.56569 0.36404 0.45968 0.0
C5063 C 0.52749 0.27427 0.45926 0.0
C5064 C 0.52357 0.25924 0.46508 0.0
C5065 C 0.5267 0.25782 0.45372 0.0
C5066 C 0.5333 0.27333 0.44749 0.0
C5067 C 0.56197 0.30161 0.44638 0.0
C5068 C 0.56783 0.31656 0.44055 0.0
C5069 C 0.54533 0.30326 0.43576 0.0
C5070 C 0.51698 0.2749 0.43679 0.0
C5071 C 0.51096 0.2599 0.44263 0.0
H5072 H 0.54989 0.31488 0.43124 0.0
H5073 H 0.50235 0.17144 0.48787 0.0
H5074 H 0.93673 0.45397 0.45898 0.0
H5075 H 0.88355 0.40863 0.45802 0.0
H5076 H 0.92086 0.34555 0.46079 0.0
H5077 H 0.9745 0.39113 0.46101 0.0
H5078 H 0.87794 0.3188 0.45323 0.0
H5079 H 0.87778 0.36728 0.47274 0.0
H5080 H 0.88636 0.41153 0.47964 0.0
H5081 H 0.81774 0.42356 0.46916 0.0
H5082 H 0.80904 0.37962 0.46215 0.0
H5083 H 0.7255 0.18439 0.45801 0.0
H5084 H 0.77797 0.22898 0.46081 0.0
H5085 H 0.7506 0.2947 0.45365 0.0
H5086 H 0.69823 0.25014 0.45087 0.0
H5087 H 0.78789 0.31825 0.46423 0.0
H5088 H 0.79095 0.26949 0.4446 0.0
H5089 H 0.78351 0.22466 0.43801 0.0
H5090 H 0.84834 0.21193 0.44965 0.0
H5091 H 0.85571 0.25634 0.45637 0.0
C5092 C 0.93373 0.43046 0.4593 0.0
C5093 C 0.96013 0.42632 0.46008 0.0
C5094 C 0.90301 0.40434 0.45887 0.0
C5095 C 0.89751 0.37323 0.45956 0.0
C5096 C 0.924 0.36909 0.46028 0.0
C5097 C 0.95489 0.39527 0.46044 0.0
C5098 C 0.86442 0.34513 0.45939 0.0
C5099 C 0.85854 0.31864 0.45576 0.0
C5100 C 0.83847 0.34454 0.46258 0.0
C5101 C 0.8429 0.37028 0.4669 0.0
C5102 C 0.86456 0.3794 0.47191 0.0
C5103 C 0.86946 0.40444 0.47583 0.0
C5104 C 0.85263 0.42037 0.47483 0.0
C5105 C 0.83075 0.41119 0.46992 0.0
C5106 C 0.82578 0.38618 0.46598 0.0
C5107 C 0.73045 0.20842 0.45721 0.0
C5108 C 0.70776 0.21389 0.45429 0.0
C5109 C 0.76052 0.23389 0.45876 0.0
C5110 C 0.76853 0.26533 0.45737 0.0
C5111 C 0.74512 0.27079 0.45478 0.0
C5112 C 0.71516 0.24534 0.45321 0.0
C5113 C 0.80181 0.29223 0.45812 0.0
C5114 C 0.80759 0.31847 0.46181 0.0
C5115 C 0.82781 0.29239 0.45509 0.0
C5116 C 0.82359 0.26595 0.45102 0.0
C5117 C 0.80342 0.25696 0.44578 0.0
C5118 C 0.79924 0.23165 0.44202 0.0
C5119 C 0.81537 0.2154 0.44342 0.0
C5120 C 0.8358 0.22448 0.44857 0.0
C5121 C 0.83998 0.24971 0.45236 0.0
H5122 H 0.81211 0.19581 0.4405 0.0
H5123 H 0.85652 0.4398 0.47787 0.0
H5124 H 0.45703 0.39288 0.96235 0.0
H5125 H 0.46405 0.34627 0.96223 0.0
H5126 H 0.56329 0.40653 0.95805 0.0
H5127 H 0.55673 0.45303 0.95849 0.0
H5128 H 0.52912 0.34912 0.95019 0.0
H5129 H 0.55174 0.38418 0.97141 0.0
H5130 H 0.54092 0.40102 0.98157 0.0
H5131 H 0.45788 0.30948 0.98394 0.0
H5132 H 0.46786 0.29232 0.97372 0.0
H5133 H 0.59741 0.25483 0.95479 0.0
H5134 H 0.58632 0.29707 0.95753 0.0
H5135 H 0.48857 0.22751 0.96105 0.0
H5136 H 0.49963 0.18489 0.95821 0.0
H5137 H 0.51895 0.28755 0.9695 0.0
H5138 H 0.49878 0.25344 0.94784 0.0
H5139 H 0.5133 0.23875 0.93783 0.0
H5140 H 0.59561 0.33155 0.93647 0.0
H5141 H 0.58189 0.34654 0.94656 0.0
C5142 C 0.48024 0.39619 0.96138 0.0
C5143 C 0.50619 0.42681 0.96039 0.0
C5144 C 0.4843 0.36951 0.96133 0.0
C5145 C 0.51423 0.37283 0.96012 0.0
C5146 C 0.53996 0.40327 0.95898 0.0
C5147 C 0.53611 0.42991 0.95922 0.0
C5148 C 0.519 0.34476 0.96008 0.0
C5149 C 0.52695 0.33577 0.95442 0.0
C5150 C 0.51614 0.32714 0.96558 0.0
C5151 C 0.51027 0.33711 0.97176 0.0
C5152 C 0.53097 0.36775 0.97407 0.0
C5153 C 0.52503 0.37735 0.97984 0.0
C5154 C 0.49866 0.35637 0.98339 0.0
C5155 C 0.47825 0.32573 0.98118 0.0
C5156 C 0.48402 0.31605 0.97539 0.0
C5157 C 0.57385 0.24839 0.95642 0.0
C5158 C 0.5495 0.21643 0.95635 0.0
C5159 C 0.56747 0.27263 0.95794 0.0
C5160 C 0.53655 0.26562 0.95946 0.0
C5161 C 0.51266 0.23356 0.95994 0.0
C5162 C 0.51904 0.20915 0.95836 0.0
C5163 C 0.52878 0.29179 0.95959 0.0
C5164 C 0.52058 0.3006 0.96526 0.0
C5165 C 0.53167 0.30955 0.95411 0.0
C5166 C 0.53947 0.30098 0.94797 0.0
C5167 C 0.52008 0.27062 0.94542 0.0
C5168 C 0.52816 0.26225 0.93974 0.0
C5169 C 0.5554 0.28419 0.93652 0.0
C5170 C 0.57454 0.31458 0.93897 0.0
C5171 C 0.56662 0.32303 0.94467 0.0
H5172 H 0.56163 0.27765 0.93212 0.0
H5173 H 0.49409 0.36382 0.98786 0.0
H5174 H 0.84673 0.36106 0.94591 0.0
H5175 H 0.80792 0.30587 0.94822 0.0
H5176 H 0.82863 0.32329 0.96795 0.0
H5177 H 0.86807 0.3791 0.96563 0.0
H5178 H 0.81595 0.26063 0.96375 0.0
H5179 H 0.76697 0.32517 0.96307 0.0
H5180 H 0.75691 0.36579 0.95846 0.0
H5181 H 0.71921 0.30909 0.94187 0.0
H5182 H 0.72952 0.26836 0.94635 0.0
H5183 H 0.66689 0.11589 0.96993 0.0
H5184 H 0.71263 0.17011 0.9703 0.0
H5185 H 0.69877 0.18268 0.95074 0.0
H5186 H 0.65328 0.1295 0.95039 0.0
H5187 H 0.70784 0.23232 0.95665 0.0
H5188 H 0.76273 0.17229 0.95634 0.0
H5189 H 0.7738 0.1313 0.96034 0.0
H5190 H 0.79911 0.17753 0.97828 0.0
H5191 H 0.78832 0.21896 0.97435 0.0
C5192 C 0.84341 0.35311 0.95074 0.0
C5193 C 0.86019 0.37464 0.95559 0.0
C5194 C 0.8212 0.32148 0.95206 0.0
C5195 C 0.81485 0.31041 0.95827 0.0
C5196 C 0.83302 0.33123 0.96312 0.0
C5197 C 0.85556 0.36312 0.96179 0.0
C5198 C 0.78728 0.27812 0.95961 0.0
C5199 C 0.79221 0.25457 0.9623 0.0
C5200 C 0.75625 0.26985 0.95767 0.0
C5201 C 0.74916 0.29383 0.95503 0.0
C5202 C 0.75665 0.32144 0.95843 0.0
C5203 C 0.75092 0.34448 0.95584 0.0
C5204 C 0.73746 0.34004 0.94988 0.0
C5205 C 0.72962 0.3125 0.9465 0.0
C5206 C 0.73536 0.28941 0.94906 0.0
C5207 C 0.67391 0.13014 0.9657 0.0
C5208 C 0.65629 0.11824 0.96014 0.0
C5209 C 0.7001 0.1612 0.96591 0.0
C5210 C 0.70941 0.18078 0.96054 0.0
C5211 C 0.69213 0.16844 0.95498 0.0
C5212 C 0.66603 0.13778 0.95478 0.0
C5213 C 0.73649 0.21434 0.96061 0.0
C5214 C 0.73144 0.2383 0.95818 0.0
C5215 C 0.76731 0.22279 0.96275 0.0
C5216 C 0.77461 0.19854 0.96507 0.0
C5217 C 0.77065 0.17367 0.96113 0.0
C5218 C 0.77687 0.15038 0.96339 0.0
C5219 C 0.78708 0.15175 0.96957 0.0
C5220 C 0.79124 0.17652 0.97349 0.0
C5221 C 0.7852 0.19998 0.97125 0.0
H5222 H 0.79181 0.13363 0.97131 0.0
H5223 H 0.73309 0.35793 0.94787 0.0
H5224 H 0.69646 0.47427 0.95536 0.0
H5225 H 0.75014 0.48835 0.95842 0.0
H5226 H 0.77674 0.58721 0.95884 0.0
H5227 H 0.72264 0.57294 0.95558 0.0
H5228 H 0.81862 0.58069 0.95229 0.0
H5229 H 0.77442 0.54432 0.97264 0.0
H5230 H 0.73737 0.50858 0.98068 0.0
H5231 H 0.75847 0.43604 0.97537 0.0
H5232 H 0.79538 0.47123 0.96725 0.0
H5233 H 0.97336 0.62054 0.96373 0.0
H5234 H 0.91952 0.61235 0.9638 0.0
H5235 H 0.88298 0.51523 0.95813 0.0
H5236 H 0.93712 0.52393 0.95798 0.0
H5237 H 0.84808 0.52557 0.96822 0.0
H5238 H 0.88745 0.55964 0.94728 0.0
H5239 H 0.92681 0.59562 0.93957 0.0
H5240 H 0.91568 0.6726 0.94631 0.0
H5241 H 0.87655 0.63709 0.95413 0.0
C5242 C 0.71351 0.49894 0.95628 0.0
C5243 C 0.70527 0.52246 0.95526 0.0
C5244 C 0.74429 0.50703 0.95805 0.0
C5245 C 0.76774 0.5389 0.95892 0.0
C5246 C 0.75916 0.56243 0.95821 0.0
C5247 C 0.72815 0.55428 0.95643 0.0
C5248 C 0.80153 0.54742 0.95999 0.0
C5249 C 0.82504 0.56913 0.95589 0.0
C5250 C 0.8102 0.53184 0.96454 0.0
C5251 C 0.78745 0.51033 0.96931 0.0
C5252 C 0.77091 0.52064 0.97315 0.0
C5253 C 0.75 0.50051 0.97773 0.0
C5254 C 0.74552 0.47004 0.97853 0.0
C5255 C 0.76194 0.45963 0.97474 0.0
C5256 C 0.78289 0.47967 0.97016 0.0
C5257 C 0.95404 0.59759 0.96249 0.0
C5258 C 0.95967 0.5732 0.96062 0.0
C5259 C 0.92315 0.59285 0.96255 0.0
C5260 C 0.89723 0.56328 0.96089 0.0
C5261 C 0.90261 0.53834 0.95937 0.0
C5262 C 0.93352 0.54338 0.95921 0.0
C5263 C 0.86461 0.55853 0.96054 0.0
C5264 C 0.84149 0.53743 0.96472 0.0
C5265 C 0.85629 0.57459 0.95607 0.0
C5266 C 0.87938 0.59585 0.95133 0.0
C5267 C 0.8936 0.58431 0.94715 0.0
C5268 C 0.91582 0.60459 0.94276 0.0
C5269 C 0.92382 0.63641 0.94247 0.0
C5270 C 0.9095 0.64796 0.94655 0.0
C5271 C 0.88729 0.62777 0.95096 0.0
H5272 H 0.94105 0.65209 0.93907 0.0
H5273 H 0.72937 0.45452 0.98209 0.0
H5274 H 0.39275 0.45126 0.55022 0.0
H5275 H 0.34695 0.45942 0.55044 0.0
H5276 H 0.40829 0.55831 0.5459 0.0
H5277 H 0.45407 0.55021 0.54601 0.0
H5278 H 0.37069 0.55562 0.55438 0.0
H5279 H 0.35339 0.49938 0.53506 0.0
H5280 H 0.34959 0.45524 0.52873 0.0
H5281 H 0.26886 0.38889 0.5395 0.0
H5282 H 0.27258 0.43262 0.54598 0.0
H5283 H 0.25317 0.59433 0.54855 0.0
H5284 H 0.29297 0.57971 0.54579 0.0
H5285 H 0.23442 0.48732 0.554 0.0
H5286 H 0.19433 0.50206 0.55671 0.0
H5287 H 0.26932 0.4857 0.54339 0.0
H5288 H 0.28877 0.54414 0.56275 0.0
H5289 H 0.29497 0.58925 0.56909 0.0
H5290 H 0.37404 0.65348 0.55769 0.0
H5291 H 0.36791 0.60876 0.55122 0.0
C5292 C 0.39616 0.47446 0.54911 0.0
C5293 C 0.42669 0.4999 0.54792 0.0
C5294 C 0.37001 0.47924 0.54925 0.0
C5295 C 0.37377 0.50946 0.54807 0.0
C5296 C 0.40445 0.53475 0.54681 0.0
C5297 C 0.4306 0.53007 0.54679 0.0
C5298 C 0.3461 0.51505 0.54831 0.0
C5299 C 0.34879 0.54054 0.55188 0.0
C5300 C 0.31705 0.49524 0.54517 0.0
C5301 C 0.31335 0.46922 0.54102 0.0
C5302 C 0.33478 0.47537 0.53607 0.0
C5303 C 0.33272 0.45043 0.53247 0.0
C5304 C 0.30902 0.41928 0.53372 0.0
C5305 C 0.2872 0.41304 0.53854 0.0
C5306 C 0.28925 0.43789 0.54217 0.0
C5307 C 0.2482 0.57047 0.54951 0.0
C5308 C 0.22045 0.54921 0.55275 0.0
C5309 C 0.27111 0.56218 0.548 0.0
C5310 C 0.26703 0.53254 0.54977 0.0
C5311 C 0.23817 0.5103 0.55257 0.0
C5312 C 0.21514 0.51864 0.55408 0.0
C5313 C 0.29424 0.52643 0.54938 0.0
C5314 C 0.29139 0.50082 0.54583 0.0
C5315 C 0.32337 0.54639 0.55247 0.0
C5316 C 0.32771 0.57316 0.55647 0.0
C5317 C 0.30738 0.5679 0.56158 0.0
C5318 C 0.31087 0.5934 0.56519 0.0
C5319 C 0.33484 0.62422 0.56379 0.0
C5320 C 0.35546 0.6296 0.55878 0.0
C5321 C 0.352 0.60418 0.55513 0.0
H5322 H 0.33748 0.64394 0.56658 0.0
H5323 H 0.30757 0.39998 0.53095 0.0
H5324 H 0.56937 0.71898 0.54604 0.0
H5325 H 0.57208 0.76914 0.54312 0.0
H5326 H 0.51185 0.75939 0.55881 0.0
H5327 H 0.50905 0.70929 0.56168 0.0
H5328 H 0.49815 0.7851 0.5491 0.0
H5329 H 0.59186 0.80316 0.55989 0.0
H5330 H 0.63979 0.79948 0.56189 0.0
H5331 H 0.67905 0.84482 0.54425 0.0
H5332 H 0.63103 0.84822 0.54209 0.0
H5333 H 0.54613 0.94353 0.55715 0.0
H5334 H 0.53559 0.88921 0.55668 0.0
H5335 H 0.5916 0.91102 0.53981 0.0
H5336 H 0.60191 0.9658 0.54018 0.0
H5337 H 0.60665 0.87883 0.54872 0.0
H5338 H 0.51275 0.86674 0.53899 0.0
H5339 H 0.46537 0.87242 0.53802 0.0
H5340 H 0.42677 0.81788 0.55484 0.0
H5341 H 0.47423 0.81239 0.55598 0.0
C5342 C 0.5559 0.72712 0.54872 0.0
C5343 C 0.53867 0.71019 0.55403 0.0
C5344 C 0.55772 0.75592 0.5471 0.0
C5345 C 0.54253 0.76837 0.55079 0.0
C5346 C 0.52375 0.75038 0.55587 0.0
C5347 C 0.52204 0.7217 0.5575 0.0
C5348 C 0.54807 0.80106 0.5497 0.0
C5349 C 0.52188 0.80558 0.54903 0.0
C5350 C 0.57902 0.82792 0.54954 0.0
C5351 C 0.60766 0.82547 0.55078 0.0
C5352 C 0.61055 0.81199 0.5564 0.0
C5353 C 0.63776 0.81002 0.55757 0.0
C5354 C 0.6624 0.82179 0.55319 0.0
C5355 C 0.65989 0.8356 0.54763 0.0
C5356 C 0.63268 0.83753 0.54643 0.0
C5357 C 0.55604 0.93687 0.55329 0.0
C5358 C 0.57495 0.95917 0.5487 0.0
C5359 C 0.54986 0.90565 0.55302 0.0
C5360 C 0.56248 0.89586 0.54818 0.0
C5361 C 0.58147 0.91801 0.54358 0.0
C5362 C 0.58738 0.94932 0.5438 0.0
C5363 C 0.55678 0.86283 0.54813 0.0
C5364 C 0.58295 0.85829 0.54864 0.0
C5365 C 0.5258 0.83607 0.54826 0.0
C5366 C 0.49717 0.83928 0.54758 0.0
C5367 C 0.4943 0.85617 0.54251 0.0
C5368 C 0.4674 0.85933 0.54193 0.0
C5369 C 0.44306 0.84547 0.54636 0.0
C5370 C 0.44563 0.82855 0.5514 0.0
C5371 C 0.47252 0.8254 0.55202 0.0
H5372 H 0.42215 0.84774 0.54588 0.0
H5373 H 0.68349 0.82031 0.55411 0.0
H5374 H 0.35389 0.89212 0.54784 0.0
H5375 H 0.30248 0.84575 0.54529 0.0
H5376 H 0.32846 0.78592 0.55562 0.0
H5377 H 0.38024 0.83241 0.55805 0.0
H5378 H 0.2927 0.75341 0.54602 0.0
H5379 H 0.2838 0.81544 0.56222 0.0
H5380 H 0.28954 0.86335 0.56737 0.0
H5381 H 0.23066 0.87095 0.55326 0.0
H5382 H 0.22506 0.82336 0.54797 0.0
H5383 H 0.1398 0.63196 0.55553 0.0
H5384 H 0.19335 0.67725 0.55506 0.0
H5385 H 0.16185 0.72425 0.54221 0.0
H5386 H 0.10762 0.67826 0.5426 0.0
H5387 H 0.19983 0.76339 0.55223 0.0
H5388 H 0.20485 0.69359 0.53696 0.0
H5389 H 0.19791 0.64261 0.53321 0.0
H5390 H 0.2637 0.64683 0.54713 0.0
H5391 H 0.27026 0.69721 0.55108 0.0
C5392 C 0.34907 0.86887 0.54935 0.0
C5393 C 0.37133 0.8658 0.55303 0.0
C5394 C 0.31944 0.84237 0.54798 0.0
C5395 C 0.31103 0.81218 0.55036 0.0
C5396 C 0.33411 0.8088 0.55372 0.0
C5397 C 0.36386 0.83535 0.55507 0.0
C5398 C 0.27767 0.78486 0.54974 0.0
C5399 C 0.27247 0.75564 0.54741 0.0
C5400 C 0.25091 0.78742 0.55152 0.0
C5401 C 0.25438 0.81613 0.55465 0.0
C5402 C 0.27235 0.82752 0.56018 0.0
C5403 C 0.27554 0.85459 0.56313 0.0
C5404 C 0.26056 0.87025 0.56063 0.0
C5405 C 0.24232 0.85884 0.55518 0.0
C5406 C 0.23915 0.83184 0.5522 0.0
C5407 C 0.14408 0.65181 0.55258 0.0
C5408 C 0.11918 0.65139 0.54912 0.0
C5409 C 0.17492 0.67774 0.55229 0.0
C5410 C 0.1819 0.70422 0.54857 0.0
C5411 C 0.15713 0.70407 0.54511 0.0
C5412 C 0.12614 0.67774 0.54532 0.0
C5413 C 0.21491 0.73214 0.54847 0.0
C5414 C 0.22005 0.76139 0.55073 0.0
C5415 C 0.24158 0.72932 0.54677 0.0
C5416 C 0.23786 0.6991 0.54434 0.0
C5417 C 0.2176 0.68347 0.53926 0.0
C5418 C 0.21369 0.65462 0.5371 0.0
C5419 C 0.23021 0.64134 0.53995 0.0
C5420 C 0.25073 0.65694 0.54494 0.0
C5421 C 0.25455 0.68566 0.54714 0.0
H5422 H 0.2272 0.61902 0.53827 0.0
H5423 H 0.26301 0.89118 0.56293 0.0
H5424 H 0.28335 0.01432 0.37644 0.0
H5425 H 0.27549 0.06038 0.37612 0.0
H5426 H 0.19133 0.00982 0.38744 0.0
H5427 H 0.19966 0.96444 0.38797 0.0
H5428 H 0.18439 0.04303 0.37692 0.0
H5429 H 0.25242 0.0599 0.39459 0.0
H5430 H 0.29971 0.06421 0.39977 0.0
H5431 H 0.35999 0.14235 0.38778 0.0
H5432 H 0.31297 0.13811 0.38245 0.0
H5433 H 0.15985 0.16402 0.39013 0.0
H5434 H 0.1659 0.11861 0.38736 0.0
H5435 H 0.2583 0.18205 0.3796 0.0
H5436 H 0.25213 0.22755 0.38241 0.0
H5437 H 0.2626 0.14294 0.38736 0.0
H5438 H 0.19342 0.12921 0.37032 0.0
H5439 H 0.14586 0.12291 0.36491 0.0
H5440 H 0.0873 0.03817 0.37547 0.0
H5441 H 0.13446 0.04426 0.38102 0.0
C5442 C 0.26318 0.01299 0.37884 0.0
C5443 C 0.24236 0.98576 0.38228 0.0
C5444 C 0.25867 0.03932 0.37865 0.0
C5445 C 0.23281 0.03857 0.38177 0.0
C5446 C 0.21139 0.01097 0.385 0.0
C5447 C 0.21631 0.98506 0.38531 0.0
C5448 C 0.22861 0.06688 0.38192 0.0
C5449 C 0.20136 0.06487 0.37923 0.0
C5450 C 0.25099 0.09551 0.38483 0.0
C5451 C 0.27924 0.09843 0.38807 0.0
C5452 C 0.27577 0.07781 0.39302 0.0
C5453 C 0.30251 0.08027 0.39599 0.0
C5454 C 0.33285 0.10346 0.39409 0.0
C5455 C 0.33648 0.12434 0.38923 0.0
C5456 C 0.3098 0.12192 0.38624 0.0
C5457 C 0.18077 0.16819 0.38757 0.0
C5458 C 0.20507 0.1993 0.38629 0.0
C5459 C 0.18439 0.14216 0.38603 0.0
C5460 C 0.21251 0.14667 0.38321 0.0
C5461 C 0.23632 0.17778 0.38174 0.0
C5462 C 0.23266 0.20378 0.38327 0.0
C5463 C 0.21821 0.11938 0.38234 0.0
C5464 C 0.24572 0.12141 0.38495 0.0
C5465 C 0.19596 0.09073 0.37935 0.0
C5466 C 0.16746 0.08739 0.37613 0.0
C5467 C 0.17036 0.10944 0.37154 0.0
C5468 C 0.14348 0.10586 0.36844 0.0
C5469 C 0.11356 0.0802 0.36985 0.0
C5470 C 0.11047 0.05807 0.37438 0.0
C5471 C 0.13728 0.06157 0.37751 0.0
H5472 H 0.09279 0.07743 0.36743 0.0
H5473 H 0.35353 0.10531 0.39639 0.0
H5474 H 0.09706 0.2835 0.39211 0.0
H5475 H 0.05239 0.22987 0.39195 0.0
H5476 H 0.03299 0.24226 0.37273 0.0
H5477 H 0.07778 0.29726 0.37294 0.0
H5478 H 0.97854 0.21032 0.37927 0.0
H5479 H 0.07021 0.19789 0.37696 0.0
H5480 H 0.12322 0.20728 0.37985 0.0
H5481 H 0.08858 0.16675 0.39805 0.0
H5482 H 0.0354 0.15737 0.39529 0.0
H5483 H 0.86215 0.04317 0.37984 0.0
H5484 H 0.90797 0.09421 0.37662 0.0
H5485 H 0.95015 0.10327 0.39485 0.0
H5486 H 0.9053 0.05247 0.39797 0.0
H5487 H 0.99431 0.12265 0.38671 0.0
H5488 H 0.90781 0.14206 0.39025 0.0
H5489 H 0.85513 0.13647 0.38857 0.0
H5490 H 0.87944 0.16616 0.36941 0.0
H5491 H 0.93211 0.17143 0.37096 0.0
C5492 C 0.08348 0.27503 0.38782 0.0
C5493 C 0.09136 0.29481 0.38251 0.0
C5494 C 0.05788 0.24404 0.38772 0.0
C5495 C 0.03961 0.23138 0.38228 0.0
C5496 C 0.04686 0.25123 0.37698 0.0
C5497 C 0.07251 0.28267 0.37709 0.0
C5498 C 0.01293 0.19761 0.38225 0.0
C5499 C 0.98212 0.19103 0.38076 0.0
C5500 C 0.01716 0.17228 0.38434 0.0
C5501 C 0.04889 0.17708 0.38593 0.0
C5502 C 0.07393 0.19105 0.38158 0.0
C5503 C 0.10402 0.1964 0.38321 0.0
C5504 C 0.10927 0.18775 0.38915 0.0
C5505 C 0.08444 0.17347 0.39346 0.0
C5506 C 0.05432 0.16806 0.39186 0.0
C5507 C 0.88154 0.05585 0.3831 0.0
C5508 C 0.87993 0.04382 0.38918 0.0
C5509 C 0.90758 0.08524 0.38129 0.0
C5510 C 0.93251 0.10314 0.38552 0.0
C5511 C 0.93139 0.09027 0.39148 0.0
C5512 C 0.90557 0.06114 0.39328 0.0
C5513 C 0.95969 0.13544 0.38392 0.0
C5514 C 0.9907 0.14175 0.3851 0.0
C5515 C 0.9555 0.16055 0.38167 0.0
C5516 C 0.92364 0.15662 0.38069 0.0
C5517 C 0.90175 0.147 0.38566 0.0
C5518 C 0.87194 0.14397 0.38473 0.0
C5519 C 0.86389 0.15082 0.37888 0.0
C5520 C 0.88565 0.16074 0.37394 0.0
C5521 C 0.91547 0.16371 0.37483 0.0
H5522 H 0.84082 0.14855 0.37817 0.0
H5523 H 0.13253 0.1921 0.39043 0.0
H5524 H 0.77164 0.7877 0.38623 0.0
H5525 H 0.82479 0.79459 0.38601 0.0
H5526 H 0.86287 0.89247 0.38055 0.0
H5527 H 0.80936 0.88435 0.38005 0.0
H5528 H 0.89375 0.87376 0.37463 0.0
H5529 H 0.86667 0.86338 0.39651 0.0
H5530 H 0.83306 0.83721 0.40575 0.0
H5531 H 0.84264 0.75524 0.40265 0.0
H5532 H 0.87603 0.78082 0.39336 0.0
H5533 H 0.05213 0.93527 0.38574 0.0
H5534 H 0.99758 0.92027 0.38307 0.0
H5535 H 0.96922 0.82163 0.38552 0.0
H5536 H 0.0241 0.83688 0.38829 0.0
H5537 H 0.93281 0.83667 0.39235 0.0
H5538 H 0.96636 0.85391 0.3707 0.0
H5539 H 1.00013 0.88374 0.36172 0.0
H5540 H 0.98031 0.95909 0.36506 0.0
H5541 H 0.94667 0.92984 0.3741 0.0
C5542 C 0.79121 0.81042 0.38485 0.0
C5543 C 0.78597 0.83513 0.38303 0.0
C5544 C 0.82189 0.81464 0.38485 0.0
C5545 C 0.84839 0.84431 0.38337 0.0
C5546 C 0.84313 0.86924 0.38168 0.0
C5547 C 0.81237 0.86462 0.38145 0.0
C5548 C 0.88152 0.84958 0.38354 0.0
C5549 C 0.90227 0.86592 0.37855 0.0
C5550 C 0.89294 0.83893 0.38856 0.0
C5551 C 0.87361 0.82389 0.39423 0.0
C5552 C 0.86153 0.83974 0.3978 0.0
C5553 C 0.84251 0.82502 0.40304 0.0
C5554 C 0.83567 0.79456 0.40478 0.0
C5555 C 0.84795 0.77882 0.4013 0.0
C5556 C 0.86695 0.79343 0.39605 0.0
C5557 C 0.03448 0.91032 0.38546 0.0
C5558 C 0.04245 0.88723 0.38712 0.0
C5559 C 1.0032 0.90171 0.38395 0.0
C5560 C 0.97906 0.86974 0.38406 0.0
C5561 C 0.98735 0.84645 0.38538 0.0
C5562 C 0.01878 0.8551 0.38688 0.0
C5563 C 0.94503 0.86116 0.38348 0.0
C5564 C 0.92415 0.84426 0.3884 0.0
C5565 C 0.93378 0.87208 0.37848 0.0
C5566 C 0.95419 0.88977 0.37309 0.0
C5567 C 0.9694 0.87694 0.36954 0.0
C5568 C 0.98847 0.89372 0.36444 0.0
C5569 C 0.9924 0.92332 0.36283 0.0
C5570 C 0.97725 0.93618 0.36631 0.0
C5571 C 0.95814 0.91948 0.37142 0.0
H5572 H 0.00716 0.93626 0.35887 0.0
H5573 H 0.82089 0.78317 0.40883 0.0
H5574 H 0.33487 0.92631 0.78379 0.0
H5575 H 0.38209 0.92092 0.78381 0.0
H5576 H 0.36153 0.88586 0.80284 0.0
H5577 H 0.31559 0.89397 0.80296 0.0
H5578 H 0.41996 0.91546 0.80209 0.0
H5579 H 0.34496 0.83498 0.78879 0.0
H5580 H 0.30614 0.81066 0.78027 0.0
H5581 H 0.37722 0.86818 0.76673 0.0
H5582 H 0.41668 0.89284 0.77521 0.0
H5583 H 0.51639 0.84121 0.79883 0.0
H5584 H 0.47617 0.85639 0.80068 0.0
H5585 H 0.49742 0.903 0.78265 0.0
H5586 H 0.53609 0.88585 0.78066 0.0
H5587 H 0.43754 0.86543 0.78345 0.0
H5588 H 0.51373 0.94226 0.79837 0.0
H5589 H 0.54801 0.95829 0.80775 0.0
H5590 H 0.46804 0.8963 0.81918 0.0
H5591 H 0.4334 0.8797 0.80986 0.0
C5592 C 0.34069 0.91778 0.788 0.0
C5593 C 0.32152 0.91032 0.79335 0.0
C5594 C 0.36753 0.9143 0.78799 0.0
C5595 C 0.37507 0.90178 0.79325 0.0
C5596 C 0.35638 0.89533 0.79869 0.0
C5597 C 0.33007 0.89992 0.79877 0.0
C5598 C 0.40208 0.89513 0.79299 0.0
C5599 C 0.42353 0.90421 0.79803 0.0
C5600 C 0.40716 0.88034 0.78774 0.0
C5601 C 0.3836 0.86595 0.78263 0.0
C5602 C 0.35224 0.8426 0.784 0.0
C5603 C 0.33012 0.82872 0.77917 0.0
C5604 C 0.33905 0.83798 0.77295 0.0
C5605 C 0.37028 0.86107 0.77155 0.0
C5606 C 0.39257 0.87494 0.77636 0.0
C5607 C 0.51285 0.85513 0.79531 0.0
C5608 C 0.52929 0.8622 0.78958 0.0
C5609 C 0.48995 0.86412 0.7964 0.0
C5610 C 0.48356 0.88106 0.79182 0.0
C5611 C 0.50161 0.88986 0.78626 0.0
C5612 C 0.52397 0.88032 0.78514 0.0
C5613 C 0.45604 0.88668 0.79245 0.0
C5614 C 0.4342 0.87702 0.78748 0.0
C5615 C 0.45008 0.89983 0.79786 0.0
C5616 C 0.47109 0.90959 0.80342 0.0
C5617 C 0.50355 0.93189 0.80288 0.0
C5618 C 0.52302 0.94111 0.80818 0.0
C5619 C 0.51023 0.92828 0.81405 0.0
C5620 C 0.47794 0.90621 0.81463 0.0
C5621 C 0.45838 0.89692 0.80935 0.0
H5622 H 0.52534 0.93548 0.81816 0.0
H5623 H 0.32182 0.82718 0.76922 0.0
H5624 H 0.16942 0.68754 0.78965 0.0
H5625 H 0.15758 0.63388 0.79267 0.0
H5626 H 0.25769 0.66588 0.79298 0.0
H5627 H 0.26938 0.71913 0.78997 0.0
H5628 H 0.22664 0.6163 0.78525 0.0
H5629 H 0.21258 0.64141 0.80635 0.0
H5630 H 0.18991 0.65703 0.81505 0.0
H5631 H 0.09727 0.5788 0.81092 0.0
H5632 H 0.11932 0.56303 0.80213 0.0
H5633 H 0.22355 0.47501 0.79319 0.0
H5634 H 0.2328 0.52901 0.79325 0.0
H5635 H 0.13304 0.49286 0.79659 0.0
H5636 H 0.12455 0.43884 0.797 0.0
H5637 H 0.16183 0.54421 0.80241 0.0
H5638 H 0.1743 0.51963 0.78115 0.0
H5639 H 0.19627 0.50243 0.77257 0.0
H5640 H 0.28991 0.57879 0.77672 0.0
H5641 H 0.26855 0.5962 0.78537 0.0
C5642 C 0.18886 0.68339 0.79065 0.0
C5643 C 0.22037 0.7077 0.78966 0.0
C5644 C 0.1821 0.6526 0.79233 0.0
C5645 C 0.20672 0.64557 0.79303 0.0
C5646 C 0.23821 0.67047 0.79245 0.0
C5647 C 0.24493 0.70107 0.7908 0.0
C5648 C 0.20005 0.61205 0.79362 0.0
C5649 C 0.21276 0.60071 0.78906 0.0
C5650 C 0.18098 0.59105 0.79843 0.0
C5651 C 0.16753 0.60134 0.80353 0.0
C5652 C 0.1873 0.62784 0.80724 0.0
C5653 C 0.17458 0.63664 0.8122 0.0
C5654 C 0.14215 0.61899 0.81352 0.0
C5655 C 0.12236 0.59252 0.80988 0.0
C5656 C 0.13496 0.58365 0.80491 0.0
C5657 C 0.20367 0.47861 0.794 0.0
C5658 C 0.17328 0.45259 0.79506 0.0
C5659 C 0.20887 0.5096 0.79395 0.0
C5660 C 0.18349 0.51543 0.79468 0.0
C5661 C 0.15315 0.48937 0.79596 0.0
C5662 C 0.1482 0.45834 0.7962 0.0
C5663 C 0.18861 0.54848 0.79407 0.0
C5664 C 0.17556 0.55972 0.79859 0.0
C5665 C 0.20705 0.56937 0.78916 0.0
C5666 C 0.21985 0.55905 0.78393 0.0
C5667 C 0.19959 0.53264 0.78025 0.0
C5668 C 0.21194 0.52287 0.77537 0.0
C5669 C 0.24447 0.53947 0.77411 0.0
C5670 C 0.26472 0.56593 0.77771 0.0
C5671 C 0.25251 0.57579 0.78259 0.0
H5672 H 0.25398 0.53185 0.77034 0.0
H5673 H 0.13237 0.62577 0.81739 0.0
H5674 H 0.61198 0.77254 0.78503 0.0
H5675 H 0.55852 0.727 0.78552 0.0
H5676 H 0.58391 0.6933 0.802 0.0
H5677 H 0.63737 0.74008 0.80172 0.0
H5678 H 0.54998 0.6454 0.79261 0.0
H5679 H 0.54112 0.72416 0.80391 0.0
H5680 H 0.54781 0.77702 0.80582 0.0
H5681 H 0.48579 0.76421 0.7904 0.0
H5682 H 0.48023 0.71206 0.78815 0.0
H5683 H 0.39025 0.52169 0.79609 0.0
H5684 H 0.44124 0.5684 0.79888 0.0
H5685 H 0.42778 0.62227 0.78434 0.0
H5686 H 0.37676 0.5757 0.78163 0.0
H5687 H 0.45606 0.65951 0.79422 0.0
H5688 H 0.4717 0.58541 0.78199 0.0
H5689 H 0.46695 0.5337 0.77956 0.0
H5690 H 0.51585 0.53798 0.79662 0.0
H5691 H 0.5204 0.5895 0.79921 0.0
C5692 C 0.60626 0.75573 0.78881 0.0
C5693 C 0.62918 0.76024 0.79334 0.0
C5694 C 0.5756 0.72953 0.78907 0.0
C5695 C 0.56705 0.70668 0.79381 0.0
C5696 C 0.58994 0.71061 0.79829 0.0
C5697 C 0.62057 0.73737 0.79812 0.0
C5698 C 0.53409 0.67895 0.79402 0.0
C5699 C 0.52944 0.6484 0.7931 0.0
C5700 C 0.50722 0.68286 0.79451 0.0
C5701 C 0.51058 0.71431 0.79581 0.0
C5702 C 0.52937 0.73283 0.80085 0.0
C5703 C 0.53305 0.76272 0.80198 0.0
C5704 C 0.5175 0.77406 0.7982 0.0
C5705 C 0.49815 0.75554 0.79328 0.0
C5706 C 0.49485 0.72587 0.79205 0.0
C5707 C 0.39776 0.54386 0.79365 0.0
C5708 C 0.37939 0.5453 0.78872 0.0
C5709 C 0.42709 0.57045 0.79518 0.0
C5710 C 0.43879 0.59887 0.79176 0.0
C5711 C 0.41946 0.60075 0.78707 0.0
C5712 C 0.3902 0.57419 0.78553 0.0
C5713 C 0.47185 0.6259 0.79272 0.0
C5714 C 0.47655 0.65639 0.79383 0.0
C5715 C 0.49881 0.62199 0.79237 0.0
C5716 C 0.49601 0.59104 0.79083 0.0
C5717 C 0.48117 0.57516 0.78525 0.0
C5718 C 0.47855 0.54592 0.78384 0.0
C5719 C 0.491 0.53251 0.78794 0.0
C5720 C 0.50615 0.54835 0.79346 0.0
C5721 C 0.50873 0.57755 0.7949 0.0
H5722 H 0.48899 0.50988 0.78684 0.0
H5723 H 0.52034 0.7971 0.79911 0.0
H5724 H 0.25392 0.57557 0.29626 0.0
H5725 H 0.23835 0.61533 0.29851 0.0
H5726 H 0.16054 0.56911 0.28549 0.0
H5727 H 0.17635 0.52954 0.28322 0.0
H5728 H 0.19667 0.63064 0.28272 0.0
H5729 H 0.14856 0.5717 0.30163 0.0
H5730 H 0.14603 0.54594 0.31175 0.0
H5731 H 0.22001 0.63435 0.31908 0.0
H5732 H 0.22327 0.66052 0.30897 0.0
H5733 H 0.13399 0.73381 0.2878 0.0
H5734 H 0.13972 0.68655 0.28728 0.0
H5735 H 0.21903 0.73031 0.30001 0.0
H5736 H 0.21332 0.77728 0.30058 0.0
H5737 H 0.18005 0.66897 0.30312 0.0
H5738 H 0.23331 0.72731 0.28484 0.0
H5739 H 0.24045 0.75629 0.27493 0.0
H5740 H 0.16292 0.67335 0.26669 0.0
H5741 H 0.15527 0.64376 0.27655 0.0
C5742 C 0.23267 0.57315 0.2941 0.0
C5743 C 0.21587 0.54904 0.28968 0.0
C5744 C 0.22386 0.59601 0.29535 0.0
C5745 C 0.19816 0.59533 0.29218 0.0
C5746 C 0.1804 0.57021 0.28801 0.0
C5747 C 0.18916 0.54733 0.28677 0.0
C5748 C 0.19191 0.62241 0.29269 0.0
C5749 C 0.19236 0.6385 0.28718 0.0
C5750 C 0.18772 0.63386 0.29852 0.0
C5751 C 0.18637 0.61795 0.30453 0.0
C5752 C 0.16453 0.58554 0.30538 0.0
C5753 C 0.16291 0.5709 0.31111 0.0
C5754 C 0.1829 0.58848 0.31605 0.0
C5755 C 0.20457 0.62074 0.31525 0.0
C5756 C 0.20631 0.63549 0.30952 0.0
C5757 C 0.15243 0.73322 0.29053 0.0
C5758 C 0.17311 0.75931 0.29424 0.0
C5759 C 0.15584 0.70627 0.2902 0.0
C5760 C 0.17993 0.70486 0.29359 0.0
C5761 C 0.20023 0.73072 0.29737 0.0
C5762 C 0.19699 0.75766 0.29766 0.0
C5763 C 0.18438 0.67671 0.29315 0.0
C5764 C 0.18392 0.66071 0.29866 0.0
C5765 C 0.18925 0.66572 0.28735 0.0
C5766 C 0.19345 0.68345 0.28145 0.0
C5767 C 0.21758 0.71533 0.28093 0.0
C5768 C 0.22178 0.73186 0.27532 0.0
C5769 C 0.20204 0.71677 0.2702 0.0
C5770 C 0.17814 0.68504 0.27066 0.0
C5771 C 0.1739 0.66834 0.27626 0.0
H5772 H 0.20536 0.72963 0.26586 0.0
H5773 H 0.18154 0.57711 0.32049 0.0
H5774 H 0.35666 0.43725 0.29504 0.0
H5775 H 0.402 0.49099 0.29473 0.0
H5776 H 0.3381 0.52824 0.29365 0.0
H5777 H 0.29302 0.47414 0.2935 0.0
H5778 H 0.3819 0.55993 0.28624 0.0
H5779 H 0.38432 0.53111 0.30764 0.0
H5780 H 0.38315 0.49465 0.31582 0.0
H5781 H 0.4703 0.50463 0.30874 0.0
H5782 H 0.47176 0.54086 0.30047 0.0
H5783 H 0.49063 0.71828 0.29185 0.0
H5784 H 0.45086 0.66425 0.29486 0.0
H5785 H 0.51591 0.63173 0.29009 0.0
H5786 H 0.55609 0.68624 0.28712 0.0
H5787 H 0.47356 0.59808 0.30075 0.0
H5788 H 0.46855 0.62793 0.27922 0.0
H5789 H 0.46712 0.66405 0.27128 0.0
H5790 H 0.38102 0.65234 0.27933 0.0
H5791 H 0.38229 0.61658 0.28739 0.0
C5792 C 0.35237 0.45688 0.29485 0.0
C5793 C 0.32134 0.45148 0.29439 0.0
C5794 C 0.37835 0.4878 0.29469 0.0
C5795 C 0.37382 0.51416 0.29431 0.0
C5796 C 0.34257 0.50861 0.29395 0.0
C5797 C 0.31671 0.47764 0.29391 0.0
C5798 C 0.40143 0.54739 0.29408 0.0
C5799 C 0.40158 0.5682 0.28949 0.0
C5800 C 0.42772 0.55852 0.29822 0.0
C5801 C 0.42809 0.53857 0.30343 0.0
C5802 C 0.40329 0.52559 0.30785 0.0
C5803 C 0.40251 0.50491 0.31248 0.0
C5804 C 0.42661 0.49729 0.31279 0.0
C5805 C 0.45166 0.51057 0.3085 0.0
C5806 C 0.45252 0.53124 0.30385 0.0
C5807 C 0.49688 0.69983 0.29168 0.0
C5808 C 0.52647 0.70645 0.2893 0.0
C5809 C 0.47408 0.66891 0.29337 0.0
C5810 C 0.48019 0.64379 0.29263 0.0
C5811 C 0.51067 0.65072 0.29072 0.0
C5812 C 0.53365 0.68186 0.28905 0.0
C5813 C 0.45348 0.61033 0.29298 0.0
C5814 C 0.45364 0.5896 0.29755 0.0
C5815 C 0.42707 0.59931 0.28891 0.0
C5816 C 0.42565 0.61981 0.28393 0.0
C5817 C 0.44939 0.63317 0.27931 0.0
C5818 C 0.44862 0.65358 0.27479 0.0
C5819 C 0.42402 0.66053 0.27481 0.0
C5820 C 0.40007 0.64696 0.27933 0.0
C5821 C 0.40079 0.6266 0.28387 0.0
H5822 H 0.4235 0.67639 0.27131 0.0
H5823 H 0.42587 0.48111 0.31636 0.0
H5824 H 0.39522 0.90846 0.28516 0.0
H5825 H 0.45077 0.92445 0.28743 0.0
H5826 H 0.4205 0.83263 0.2956 0.0
H5827 H 0.36514 0.81686 0.29337 0.0
H5828 H 0.47144 0.87736 0.30187 0.0
H5829 H 0.44346 0.84723 0.28053 0.0
H5830 H 0.42278 0.84881 0.27006 0.0
H5831 H 0.49625 0.94589 0.26785 0.0
H5832 H 0.51698 0.94505 0.27837 0.0
H5833 H 0.60604 0.86069 0.29723 0.0
H5834 H 0.5537 0.85541 0.29675 0.0
H5835 H 0.59444 0.94974 0.28907 0.0
H5836 H 0.64739 0.95501 0.28941 0.0
H5837 H 0.5399 0.90808 0.28294 0.0
H5838 H 0.5705 0.9342 0.30448 0.0
H5839 H 0.59085 0.92774 0.31463 0.0
H5840 H 0.51178 0.83303 0.31624 0.0
H5841 H 0.49128 0.83871 0.30603 0.0
C5842 C 0.4004 0.89222 0.28767 0.0
C5843 C 0.37578 0.8616 0.28919 0.0
C5844 C 0.43221 0.90118 0.28889 0.0
C5845 C 0.4401 0.87962 0.29161 0.0
C5846 C 0.41528 0.8498 0.29351 0.0
C5847 C 0.38356 0.84083 0.29227 0.0
C5848 C 0.47392 0.88687 0.29197 0.0
C5849 C 0.48632 0.884 0.29773 0.0
C5850 C 0.49372 0.89567 0.28659 0.0
C5851 C 0.48148 0.89622 0.28026 0.0
C5852 C 0.45502 0.869 0.27783 0.0
C5853 C 0.44331 0.86975 0.27189 0.0
C5854 C 0.45813 0.89747 0.2683 0.0
C5855 C 0.48474 0.92447 0.27064 0.0
C5856 C 0.49647 0.92388 0.27659 0.0
C5857 C 0.60411 0.8805 0.29545 0.0
C5858 C 0.63123 0.90851 0.29343 0.0
C5859 C 0.57398 0.87743 0.29521 0.0
C5860 C 0.56993 0.90235 0.29299 0.0
C5861 C 0.59685 0.93021 0.29085 0.0
C5862 C 0.62719 0.9333 0.29108 0.0
C5863 C 0.53752 0.89887 0.29285 0.0
C5864 C 0.52526 0.90211 0.28712 0.0
C5865 C 0.51775 0.88994 0.29824 0.0
C5866 C 0.52944 0.88684 0.30448 0.0
C5867 C 0.55751 0.91196 0.30699 0.0
C5868 C 0.56909 0.90842 0.31275 0.0
C5869 C 0.55263 0.87998 0.31608 0.0
C5870 C 0.5245 0.85505 0.31366 0.0
C5871 C 0.51287 0.85842 0.30789 0.0
H5872 H 0.56166 0.87727 0.32054 0.0
H5873 H 0.44904 0.89801 0.26369 0.0
H5874 H 0.06205 0.79276 0.8874 0.0
H5875 H 0.01665 0.80135 0.88792 0.0
H5876 H 0.07008 0.8895 0.87786 0.0
H5877 H 0.11539 0.88105 0.87733 0.0
H5878 H 0.04026 0.89822 0.88705 0.0
H5879 H 0.00986 0.82305 0.87066 0.0
H5880 H 0.9992 0.77393 0.86528 0.0
H5881 H 0.92828 0.71849 0.87901 0.0
H5882 H 0.93868 0.76737 0.8845 0.0
H5883 H 0.90948 0.92238 0.88268 0.0
H5884 H 0.951 0.91015 0.87967 0.0
H5885 H 0.90675 0.82618 0.89123 0.0
H5886 H 0.86535 0.83838 0.8942 0.0
H5887 H 0.93205 0.81614 0.88051 0.0
H5888 H 0.96579 0.89626 0.89679 0.0
H5889 H 0.97593 0.94763 0.90102 0.0
H5890 H 0.04276 0.99651 0.88622 0.0
H5891 H 0.03247 0.94536 0.88183 0.0
C5892 C 0.06403 0.8138 0.88525 0.0
C5893 C 0.09229 0.83597 0.88226 0.0
C5894 C 0.038 0.81872 0.88554 0.0
C5895 C 0.03963 0.84594 0.88285 0.0
C5896 C 0.06805 0.86829 0.87996 0.0
C5897 C 0.09398 0.86334 0.87965 0.0
C5898 C 0.01204 0.85146 0.88315 0.0
C5899 C 0.01673 0.88038 0.88553 0.0
C5900 C 0.98115 0.82831 0.88121 0.0
C5901 C 0.97516 0.79883 0.87801 0.0
C5902 C 0.99215 0.80037 0.87256 0.0
C5903 C 0.98608 0.77258 0.86948 0.0
C5904 C 0.96298 0.74311 0.87179 0.0
C5905 C 0.94606 0.74135 0.87721 0.0
C5906 C 0.95199 0.76909 0.88031 0.0
C5907 C 0.90813 0.90079 0.8844 0.0
C5908 C 0.88411 0.88117 0.88863 0.0
C5909 C 0.932 0.89395 0.88273 0.0
C5910 C 0.93238 0.86746 0.8853 0.0
C5911 C 0.90711 0.84675 0.88919 0.0
C5912 C 0.88341 0.85367 0.89087 0.0
C5913 C 0.9603 0.86277 0.88445 0.0
C5914 C 0.95565 0.83398 0.882 0.0
C5915 C 0.9914 0.8863 0.88621 0.0
C5916 C 0.9981 0.91701 0.88894 0.0
C5917 C 0.9825 0.91797 0.89442 0.0
C5918 C 0.98826 0.94703 0.89684 0.0
C5919 C 0.00991 0.97531 0.89388 0.0
C5920 C 0.02594 0.97459 0.8885 0.0
C5921 C 0.02013 0.94557 0.88604 0.0
H5922 H 0.01433 0.9978 0.89577 0.0
H5923 H 0.95822 0.72161 0.86938 0.0
H5924 H 0.20633 0.27288 0.89029 0.0
H5925 H 0.19884 0.21973 0.89015 0.0
H5926 H 0.26651 0.24629 0.87507 0.0
H5927 H 0.27336 0.29986 0.87502 0.0
H5928 H 0.21622 0.1861 0.87345 0.0
H5929 H 0.28829 0.24265 0.89008 0.0
H5930 H 0.30696 0.27662 0.89948 0.0
H5931 H 0.22622 0.2073 0.90984 0.0
H5932 H 0.20674 0.17318 0.90047 0.0
H5933 H 0.2326 0.04747 0.88076 0.0
H5934 H 0.2396 0.09959 0.87782 0.0
H5935 H 0.17542 0.09128 0.89262 0.0
H5936 H 0.16879 0.03985 0.89557 0.0
H5937 H 0.23043 0.14477 0.89372 0.0
H5938 H 0.15699 0.08938 0.87702 0.0
H5939 H 0.13593 0.05717 0.86744 0.0
H5940 H 0.21811 0.12445 0.85714 0.0
H5941 H 0.23995 0.15677 0.86669 0.0
C5942 C 0.21972 0.26763 0.88692 0.0
C5943 C 0.24104 0.29103 0.88275 0.0
C5944 C 0.21539 0.23707 0.88686 0.0
C5945 C 0.23266 0.22907 0.88271 0.0
C5946 C 0.25312 0.25194 0.87836 0.0
C5947 C 0.2572 0.28265 0.87836 0.0
C5948 C 0.22971 0.19709 0.88312 0.0
C5949 C 0.21991 0.1772 0.87785 0.0
C5950 C 0.23402 0.18523 0.88889 0.0
C5951 C 0.24599 0.20544 0.89456 0.0
C5952 C 0.27445 0.23472 0.89436 0.0
C5953 C 0.28516 0.25401 0.89968 0.0
C5954 C 0.26778 0.24413 0.90526 0.0
C5955 C 0.23966 0.21492 0.90552 0.0
C5956 C 0.22878 0.19559 0.90021 0.0
C5957 C 0.21937 0.05649 0.88326 0.0
C5958 C 0.20032 0.03973 0.88843 0.0
C5959 C 0.22341 0.08629 0.88159 0.0
C5960 C 0.20825 0.09962 0.88503 0.0
C5961 C 0.18764 0.08178 0.88992 0.0
C5962 C 0.18377 0.0523 0.8916 0.0
C5963 C 0.21603 0.1332 0.88408 0.0
C5964 C 0.22701 0.15359 0.88929 0.0
C5965 C 0.21281 0.14536 0.87825 0.0
C5966 C 0.20035 0.1252 0.8726 0.0
C5967 C 0.17083 0.09702 0.87274 0.0
C5968 C 0.15868 0.07881 0.86731 0.0
C5969 C 0.17573 0.08868 0.86169 0.0
C5970 C 0.20499 0.11676 0.8615 0.0
C5971 C 0.21727 0.13501 0.86692 0.0
H5972 H 0.16621 0.07462 0.85749 0.0
H5973 H 0.27611 0.2591 0.90937 0.0
H5974 H 0.80727 0.95798 0.88014 0.0
H5975 H 0.86044 0.00381 0.88101 0.0
H5976 H 0.82061 0.06351 0.88497 0.0
H5977 H 0.76686 0.017 0.88445 0.0
H5978 H 0.87147 0.08826 0.87548 0.0
H5979 H 0.85162 0.04802 0.89649 0.0
H5980 H 0.83665 0.00815 0.90487 0.0
H5981 H 0.91193 0.99153 0.89935 0.0
H5982 H 0.92706 0.03098 0.89086 0.0
H5983 H 0.02023 0.22213 0.8868 0.0
H5984 H 0.96538 0.18091 0.88433 0.0
H5985 H 0.99517 0.11122 0.88332 0.0
H5986 H 0.04957 0.15217 0.88573 0.0
H5987 H 0.94774 0.09284 0.89143 0.0
H5988 H 0.96805 0.13104 0.87051 0.0
H5989 H 0.98284 0.16824 0.86164 0.0
H5990 H 0.90747 0.18622 0.86633 0.0
H5991 H 0.89261 0.14958 0.87532 0.0
C5992 C 0.80959 0.98068 0.88129 0.0
C5993 C 0.78248 0.98354 0.88228 0.0
C5994 C 0.8402 0.00702 0.88175 0.0
C5995 C 0.84474 0.03726 0.88306 0.0
C5996 C 0.8178 0.04046 0.88395 0.0
C5997 C 0.78702 0.01381 0.88366 0.0
C5998 C 0.87768 0.06519 0.8835 0.0
C5999 C 0.88801 0.08965 0.87904 0.0
C6000 C 0.89972 0.06651 0.888 0.0
C6001 C 0.89026 0.04223 0.893 0.0
C6002 C 0.86474 0.03559 0.89701 0.0
C6003 C 0.85629 0.01315 0.90179 0.0
C6004 C 0.87334 0.99734 0.90264 0.0
C6005 C 0.89878 0.00382 0.89869 0.0
C6006 C 0.90729 0.02623 0.89389 0.0
C6007 C 0.01527 0.1983 0.88577 0.0
C6008 C 0.03941 0.19054 0.88637 0.0
C6009 C 0.98379 0.1746 0.88441 0.0
C6010 C 0.97581 0.14265 0.88369 0.0
C6011 C 1.00041 0.13548 0.88389 0.0
C6012 C 0.03169 0.15904 0.88519 0.0
C6013 C 0.94185 0.1162 0.88339 0.0
C6014 C 0.93128 0.09182 0.88788 0.0
C6015 C 0.9198 0.11485 0.87887 0.0
C6016 C 0.92957 0.13798 0.87366 0.0
C6017 C 0.95498 0.14335 0.86972 0.0
C6018 C 0.96329 0.16423 0.86465 0.0
C6019 C 0.9462 0.1797 0.86344 0.0
C6020 C 0.92078 0.17433 0.86729 0.0
C6021 C 0.91243 0.15354 0.87238 0.0
H6022 H 0.95258 0.19575 0.85949 0.0
H6023 H 0.86688 0.98014 0.90638 0.0
H6024 H 0.85855 0.29314 0.71288 0.0
H6025 H 0.85102 0.33892 0.71323 0.0
H6026 H 0.94643 0.3967 0.72016 0.0
H6027 H 0.95302 0.35013 0.72029 0.0
H6028 H 0.90987 0.41222 0.726 0.0
H6029 H 0.92164 0.396 0.70405 0.0
H6030 H 0.90764 0.36323 0.6945 0.0
H6031 H 0.81311 0.34877 0.69518 0.0
H6032 H 0.82634 0.38084 0.70482 0.0
H6033 H 0.90796 0.55536 0.72257 0.0
H6034 H 0.92342 0.51547 0.72024 0.0
H6035 H 0.82776 0.4501 0.71429 0.0
H6036 H 0.81259 0.49002 0.71654 0.0
H6037 H 0.86805 0.44091 0.70742 0.0
H6038 H 0.85228 0.45072 0.72927 0.0
H6039 H 0.86129 0.47852 0.73938 0.0
H6040 H 0.95858 0.50098 0.73924 0.0
H6041 H 0.95029 0.47386 0.72906 0.0
C6042 C 0.87803 0.31556 0.71449 0.0
C6043 C 0.90692 0.31807 0.71639 0.0
C6044 C 0.87374 0.34192 0.71463 0.0
C6045 C 0.89849 0.37181 0.71651 0.0
C6046 C 0.92704 0.37416 0.71859 0.0
C6047 C 0.93104 0.34754 0.71858 0.0
C6048 C 0.89442 0.40037 0.71642 0.0
C6049 C 0.90139 0.41882 0.72188 0.0
C6050 C 0.88239 0.4087 0.71113 0.0
C6051 C 0.87494 0.39069 0.70517 0.0
C6052 C 0.89787 0.38581 0.70217 0.0
C6053 C 0.89003 0.36729 0.69674 0.0
C6054 C 0.85947 0.3539 0.69424 0.0
C6055 C 0.83675 0.35915 0.69713 0.0
C6056 C 0.84441 0.37749 0.70257 0.0
C6057 C 0.89066 0.53295 0.72051 0.0
C6058 C 0.85917 0.5259 0.71966 0.0
C6059 C 0.89935 0.50996 0.71926 0.0
C6060 C 0.87662 0.4794 0.7172 0.0
C6061 C 0.84579 0.47334 0.71588 0.0
C6062 C 0.83714 0.49625 0.71713 0.0
C6063 C 0.8838 0.45285 0.71697 0.0
C6064 C 0.87718 0.43466 0.71149 0.0
C6065 C 0.89578 0.44446 0.72226 0.0
C6066 C 0.90079 0.46069 0.72837 0.0
C6067 C 0.87567 0.46186 0.73137 0.0
C6068 C 0.88064 0.47746 0.73711 0.0
C6069 C 0.91052 0.49161 0.73994 0.0
C6070 C 0.93548 0.49011 0.73704 0.0
C6071 C 0.93067 0.47466 0.73128 0.0
H6072 H 0.91431 0.50365 0.74439 0.0
H6073 H 0.85328 0.33941 0.69006 0.0
H6074 H 0.5828 0.3776 0.7288 0.0
H6075 H 0.62813 0.4283 0.72557 0.0
H6076 H 0.57122 0.43733 0.71111 0.0
H6077 H 0.52573 0.3859 0.71428 0.0
H6078 H 0.63986 0.46325 0.70789 0.0
H6079 H 0.57341 0.47209 0.72382 0.0
H6080 H 0.54297 0.45452 0.73369 0.0
H6081 H 0.62777 0.4758 0.74376 0.0
H6082 H 0.65861 0.49312 0.73392 0.0
H6083 H 0.74278 0.63401 0.70725 0.0
H6084 H 0.6964 0.58024 0.70719 0.0
H6085 H 0.72838 0.55935 0.72448 0.0
H6086 H 0.7736 0.61269 0.72467 0.0
H6087 H 0.66819 0.54003 0.72538 0.0
H6088 H 0.73498 0.52962 0.71013 0.0
H6089 H 0.76747 0.54419 0.70052 0.0
H6090 H 0.68591 0.52439 0.68944 0.0
H6091 H 0.65302 0.5101 0.69901 0.0
C6092 C 0.58026 0.38996 0.72482 0.0
C6093 C 0.55085 0.37796 0.7218 0.0
C6094 C 0.60613 0.41891 0.72297 0.0
C6095 C 0.603 0.4368 0.71814 0.0
C6096 C 0.57423 0.42387 0.71482 0.0
C6097 C 0.54828 0.39457 0.71664 0.0
C6098 C 0.62821 0.47051 0.71725 0.0
C6099 C 0.64576 0.48025 0.71166 0.0
C6100 C 0.63633 0.49259 0.7222 0.0
C6101 C 0.61823 0.48382 0.72815 0.0
C6102 C 0.58552 0.47303 0.72814 0.0
C6103 C 0.5682 0.46307 0.73373 0.0
C6104 C 0.58342 0.46403 0.73935 0.0
C6105 C 0.61603 0.47511 0.7394 0.0
C6106 C 0.63344 0.48507 0.73383 0.0
C6107 C 0.73974 0.61801 0.71105 0.0
C6108 C 0.76168 0.628 0.71601 0.0
C6109 C 0.71337 0.58715 0.71099 0.0
C6110 C 0.70876 0.56561 0.71584 0.0
C6111 C 0.73109 0.57547 0.72071 0.0
C6112 C 0.7571 0.60615 0.7208 0.0
C6113 C 0.68051 0.53299 0.71605 0.0
C6114 C 0.66222 0.52336 0.72155 0.0
C6115 C 0.67213 0.51109 0.71103 0.0
C6116 C 0.69165 0.51911 0.70528 0.0
C6117 C 0.72403 0.52856 0.70565 0.0
C6118 C 0.74251 0.53675 0.70021 0.0
C6119 C 0.72878 0.5353 0.69437 0.0
C6120 C 0.69652 0.52554 0.69396 0.0
C6121 C 0.67794 0.51737 0.69939 0.0
H6122 H 0.74313 0.54168 0.69017 0.0
H6123 H 0.56995 0.45621 0.74366 0.0
H6124 H 0.47826 0.22137 0.71518 0.0
H6125 H 0.5309 0.22749 0.71568 0.0
H6126 H 0.48947 0.12647 0.71812 0.0
H6127 H 0.43622 0.12038 0.71789 0.0
H6128 H 0.53929 0.15575 0.72542 0.0
H6129 H 0.52229 0.16691 0.70364 0.0
H6130 H 0.50803 0.18916 0.69465 0.0
H6131 H 0.58546 0.28201 0.69892 0.0
H6132 H 0.59985 0.26042 0.70801 0.0
H6133 H 0.68998 0.1674 0.72214 0.0
H6134 H 0.63504 0.15244 0.71946 0.0
H6135 H 0.66367 0.25122 0.71718 0.0
H6136 H 0.71829 0.26593 0.71972 0.0
H6137 H 0.61866 0.21825 0.70904 0.0
H6138 H 0.63234 0.20979 0.73113 0.0
H6139 H 0.64652 0.19008 0.74054 0.0
H6140 H 0.57534 0.09464 0.73597 0.0
H6141 H 0.56117 0.11378 0.72646 0.0
C6142 C 0.48014 0.20034 0.71586 0.0
C6143 C 0.45274 0.17029 0.71647 0.0
C6144 C 0.51049 0.20388 0.71608 0.0
C6145 C 0.51453 0.1774 0.71677 0.0
C6146 C 0.48722 0.14735 0.71752 0.0
C6147 C 0.45668 0.14384 0.71739 0.0
C6148 C 0.54724 0.18137 0.71676 0.0
C6149 C 0.55636 0.16884 0.72175 0.0
C6150 C 0.57014 0.19916 0.71208 0.0
C6151 C 0.56204 0.21206 0.70653 0.0
C6152 C 0.53621 0.19209 0.70268 0.0
C6153 C 0.52808 0.2046 0.69757 0.0
C6154 C 0.54581 0.23699 0.69622 0.0
C6155 C 0.57175 0.25693 0.69997 0.0
C6156 C 0.57992 0.24457 0.7051 0.0
C6157 C 0.6847 0.18576 0.72083 0.0
C6158 C 0.70856 0.21784 0.7211 0.0
C6159 C 0.65316 0.17727 0.71939 0.0
C6160 C 0.64478 0.2007 0.71824 0.0
C6161 C 0.66916 0.23257 0.71806 0.0
C6162 C 0.70052 0.241 0.71949 0.0
C6163 C 0.6107 0.19268 0.71771 0.0
C6164 C 0.6014 0.20465 0.71264 0.0
C6165 C 0.58768 0.17462 0.72233 0.0
C6166 C 0.59601 0.16314 0.72805 0.0
C6167 C 0.6199 0.18458 0.73211 0.0
C6168 C 0.62792 0.17352 0.73746 0.0
C6169 C 0.61191 0.14111 0.73884 0.0
C6170 C 0.58779 0.11972 0.73488 0.0
C6171 C 0.57977 0.13065 0.72951 0.0
H6172 H 0.61814 0.13259 0.74299 0.0
H6173 H 0.53945 0.24662 0.69226 0.0
H6174 H 0.15483 0.14262 0.12612 0.0
H6175 H 0.11478 0.15727 0.12863 0.0
H6176 H 0.18255 0.25532 0.12482 0.0
H6177 H 0.22298 0.24057 0.12235 0.0
H6178 H 0.13712 0.24538 0.13497 0.0
H6179 H 0.13795 0.21491 0.11338 0.0
H6180 H 0.13834 0.17894 0.10529 0.0
H6181 H 0.04939 0.1037 0.11216 0.0
H6182 H 0.0488 0.13911 0.12037 0.0
H6183 H 0.01941 0.28933 0.12926 0.0
H6184 H 0.06568 0.28221 0.129 0.0
H6185 H 1.00396 0.18154 0.12628 0.0
H6186 H 0.95828 0.18948 0.12596 0.0
H6187 H 0.04945 0.19575 0.1195 0.0
H6188 H 0.04697 0.22237 0.14114 0.0
H6189 H 0.04447 0.25598 0.14952 0.0
H6190 H 0.13295 0.33434 0.14327 0.0
H6191 H 0.13575 0.30127 0.1348 0.0
C6192 C 0.16154 0.16745 0.12605 0.0
C6193 C 0.19207 0.19044 0.12408 0.0
C6194 C 0.13857 0.17581 0.12745 0.0
C6195 C 0.14541 0.20736 0.12684 0.0
C6196 C 0.17666 0.23084 0.12535 0.0
C6197 C 0.19981 0.22243 0.12396 0.0
C6198 C 0.11897 0.21471 0.12694 0.0
C6199 C 0.11808 0.2348 0.13156 0.0
C6200 C 0.0937 0.20052 0.12257 0.0
C6201 C 0.09344 0.17958 0.1175 0.0
C6202 C 0.11854 0.19066 0.11317 0.0
C6203 C 0.11881 0.17037 0.10857 0.0
C6204 C 0.09392 0.13904 0.10822 0.0
C6205 C 0.06866 0.12797 0.11245 0.0
C6206 C 0.06833 0.14814 0.11707 0.0
C6207 C 0.01582 0.26576 0.12867 0.0
C6208 C 0.98523 0.24001 0.12767 0.0
C6209 C 0.04234 0.26152 0.12856 0.0
C6210 C 0.03874 0.23111 0.12776 0.0
C6211 C 0.00786 0.20531 0.12689 0.0
C6212 C 0.98159 0.20979 0.12676 0.0
C6213 C 0.06683 0.22598 0.12764 0.0
C6214 C 0.06822 0.20634 0.12296 0.0
C6215 C 0.09215 0.24012 0.13203 0.0
C6216 C 0.09149 0.25943 0.13733 0.0
C6217 C 0.06592 0.24675 0.14157 0.0
C6218 C 0.0644 0.26572 0.14632 0.0
C6219 C 0.08851 0.29729 0.14692 0.0
C6220 C 0.1143 0.30988 0.1428 0.0
C6221 C 0.1159 0.29103 0.13803 0.0
H6222 H 0.08721 0.31199 0.15058 0.0
H6223 H 0.0942 0.12335 0.10466 0.0
H6224 H 0.93035 0.05214 0.12595 0.0
H6225 H 0.91855 0.99842 0.12866 0.0
H6226 H 0.82157 0.96152 0.1228 0.0
H6227 H 0.83338 0.01553 0.12017 0.0
H6228 H 0.82632 0.92697 0.13283 0.0
H6229 H 0.87472 0.96464 0.11257 0.0
H6230 H 0.91597 1.00304 0.10545 0.0
H6231 H 0.98658 0.99072 0.11508 0.0
H6232 H 0.94578 0.95264 0.12234 0.0
H6233 H 0.79315 0.77098 0.12376 0.0
H6234 H 0.80102 0.8248 0.1235 0.0
H6235 H 0.8963 0.86187 0.13043 0.0
H6236 H 0.88809 0.80818 0.13099 0.0
H6237 H 0.89207 0.89605 0.12014 0.0
H6238 H 0.84547 0.85816 0.14015 0.0
H6239 H 0.80624 0.82222 0.14787 0.0
H6240 H 0.73421 0.83548 0.13914 0.0
H6241 H 0.77288 0.871 0.13127 0.0
C6242 C 0.90619 0.03273 0.12552 0.0
C6243 C 0.88266 0.03803 0.12295 0.0
C6244 C 0.89952 1.00196 0.12699 0.0
C6245 C 0.8693 0.97575 0.12582 0.0
C6246 C 0.84506 0.98128 0.12374 0.0
C6247 C 0.85174 0.01217 0.12228 0.0
C6248 C 0.86412 0.94279 0.12607 0.0
C6249 C 0.84041 0.92012 0.12999 0.0
C6250 C 0.8829 0.93383 0.12248 0.0
C6251 C 0.90729 0.95605 0.11803 0.0
C6252 C 0.89908 0.97026 0.11319 0.0
C6253 C 0.92237 0.99196 0.10913 0.0
C6254 C 0.95389 0.99938 0.10982 0.0
C6255 C 0.96216 0.98499 0.11456 0.0
C6256 C 0.93897 0.96334 0.11864 0.0
C6257 C 0.81556 0.79048 0.12532 0.0
C6258 C 0.83968 0.78504 0.12751 0.0
C6259 C 0.82013 0.8213 0.12513 0.0
C6260 C 0.8492 0.8474 0.12699 0.0
C6261 C 0.87365 0.84214 0.12899 0.0
C6262 C 0.86886 0.81134 0.12931 0.0
C6263 C 0.85421 0.88021 0.12687 0.0
C6264 C 0.8779 0.90286 0.12296 0.0
C6265 C 0.83554 0.88911 0.13049 0.0
C6266 C 0.812 0.86703 0.13509 0.0
C6267 C 0.82116 0.85309 0.13982 0.0
C6268 C 0.79907 0.83288 0.14424 0.0
C6269 C 0.76782 0.82676 0.14401 0.0
C6270 C 0.75847 0.84039 0.13932 0.0
C6271 C 0.78046 0.86053 0.13487 0.0
H6272 H 0.75085 0.81154 0.1475 0.0
H6273 H 0.9719 0.01622 0.10667 0.0
H6274 H 0.27481 0.11358 0.12023 0.0
H6275 H 0.22084 0.0682 0.12052 0.0
H6276 H 0.2504 0.02131 0.13379 0.0
H6277 H 0.30413 0.06754 0.13382 0.0
H6278 H 0.21381 0.98564 0.12161 0.0
H6279 H 0.20938 0.03993 0.14001 0.0
H6280 H 0.21726 0.08679 0.14592 0.0
H6281 H 0.15284 0.09654 0.1336 0.0
H6282 H 0.14504 0.05001 0.12754 0.0
H6283 H 0.05923 0.8532 0.1254 0.0
H6284 H 0.11155 0.89772 0.12832 0.0
H6285 H 0.08614 0.96341 0.12033 0.0
H6286 H 0.03398 0.91891 0.11743 0.0
H6287 H 0.12168 0.98874 0.13078 0.0
H6288 H 0.12826 0.93875 0.11203 0.0
H6289 H 0.1218 0.89463 0.10534 0.0
H6290 H 0.18341 0.87949 0.11749 0.0
H6291 H 0.18972 0.92317 0.12432 0.0
C6292 C 0.26989 0.09375 0.12325 0.0
C6293 C 0.29411 0.09414 0.12693 0.0
C6294 C 0.23895 0.0678 0.12341 0.0
C6295 C 0.23157 0.04125 0.12715 0.0
C6296 C 0.25558 0.04149 0.13085 0.0
C6297 C 0.28637 0.06793 0.13084 0.0
C6298 C 0.19892 0.0131 0.12703 0.0
C6299 C 0.19374 0.986 0.12374 0.0
C6300 C 0.17261 0.01397 0.12962 0.0
C6301 C 0.1769 0.0417 0.13328 0.0
C6302 C 0.19714 0.05225 0.13852 0.0
C6303 C 0.20155 0.07872 0.14191 0.0
C6304 C 0.18563 0.09469 0.14013 0.0
C6305 C 0.1652 0.08417 0.13497 0.0
C6306 C 0.16076 0.05773 0.13156 0.0
C6307 C 0.06457 0.87722 0.12444 0.0
C6308 C 0.04247 0.88266 0.12125 0.0
C6309 C 0.09457 0.90267 0.12605 0.0
C6310 C 0.10312 0.93408 0.12449 0.0
C6311 C 0.08028 0.93954 0.12161 0.0
C6312 C 0.05043 0.91411 0.11996 0.0
C6313 C 0.13641 0.96091 0.12539 0.0
C6314 C 0.14173 0.98799 0.12876 0.0
C6315 C 0.16291 0.96021 0.1228 0.0
C6316 C 0.15907 0.93388 0.11873 0.0
C6317 C 0.14015 0.92578 0.11331 0.0
C6318 C 0.13655 0.90089 0.10949 0.0
C6319 C 0.15209 0.88419 0.111 0.0
C6320 C 0.1713 0.89238 0.11633 0.0
C6321 C 0.17487 0.91718 0.12019 0.0
H6322 H 0.14933 0.86495 0.10803 0.0
H6323 H 0.18906 0.11518 0.14276 0.0
H6324 H 0.83786 0.85317 0.62222 0.0
H6325 H 0.82262 0.89303 0.62476 0.0
H6326 H 0.92128 0.96354 0.62709 0.0
H6327 H 0.93628 0.92371 0.62468 0.0
H6328 H 0.88638 0.97514 0.6351 0.0
H6329 H 0.88155 0.95121 0.61297 0.0
H6330 H 0.86241 0.91622 0.60371 0.0
H6331 H 0.76689 0.89377 0.60768 0.0
H6332 H 0.78542 0.92817 0.61704 0.0
H6333 H 0.88749 0.11759 0.62922 0.0
H6334 H 0.89599 0.07252 0.62867 0.0
H6335 H 0.79755 0.01159 0.62378 0.0
H6336 H 0.7901 0.05766 0.62358 0.0
H6337 H 0.82823 0.99203 0.6178 0.0
H6338 H 0.8332 0.01941 0.63951 0.0
H6339 H 0.85277 0.05655 0.64841 0.0
H6340 H 0.94702 0.0728 0.6454 0.0
H6341 H 0.92811 0.03637 0.63635 0.0
C6342 C 0.8561 0.87684 0.62354 0.0
C6343 C 0.88824 0.8853 0.62331 0.0
C6344 C 0.84746 0.89977 0.6249 0.0
C6345 C 0.87084 0.93161 0.62599 0.0
C6346 C 0.90274 0.9393 0.62626 0.0
C6347 C 0.91132 0.91646 0.62491 0.0
C6348 C 0.86279 0.95754 0.62625 0.0
C6349 C 0.8737 0.97884 0.63131 0.0
C6350 C 0.84584 0.96236 0.62137 0.0
C6351 C 0.8348 0.9419 0.61574 0.0
C6352 C 0.85643 0.9386 0.61189 0.0
C6353 C 0.8457 0.91889 0.60663 0.0
C6354 C 0.81344 0.9027 0.60512 0.0
C6355 C 0.79185 0.90625 0.60887 0.0
C6356 C 0.80245 0.92582 0.61415 0.0
C6357 C 0.86766 0.09468 0.62796 0.0
C6358 C 0.8378 0.09118 0.62659 0.0
C6359 C 0.87245 0.06866 0.62774 0.0
C6360 C 0.84714 0.03805 0.62645 0.0
C6361 C 0.81749 0.0347 0.62489 0.0
C6362 C 0.81305 0.06104 0.62486 0.0
C6363 C 0.8517 0.00975 0.62666 0.0
C6364 C 0.84036 0.9881 0.62166 0.0
C6365 C 0.8681 0.00455 0.63162 0.0
C6366 C 0.87924 0.02526 0.63724 0.0
C6367 C 0.8581 0.03091 0.64075 0.0
C6368 C 0.8691 0.05191 0.64581 0.0
C6369 C 0.90113 0.06701 0.64749 0.0
C6370 C 0.92221 0.06107 0.6441 0.0
C6371 C 0.91136 0.04026 0.639 0.0
H6372 H 0.90961 0.08331 0.65141 0.0
H6373 H 0.80517 0.88747 0.60104 0.0
H6374 H 0.1513 0.04629 0.62034 0.0
H6375 H 0.11114 0.99304 0.62342 0.0
H6376 H 0.18428 0.97018 0.62747 0.0
H6377 H 0.22483 0.02373 0.62406 0.0
H6378 H 0.14087 0.92431 0.62095 0.0
H6379 H 0.13353 0.97596 0.63939 0.0
H6380 H 0.12875 0.01591 0.64566 0.0
H6381 H 0.03932 0.98905 0.63692 0.0
H6382 H 0.04372 0.94917 0.63055 0.0
H6383 H 0.01805 0.77181 0.63255 0.0
H6384 H 0.06382 0.82583 0.63269 0.0
H6385 H 0.00867 0.85974 0.62306 0.0
H6386 H 0.96346 0.80585 0.62274 0.0
H6387 H 0.04564 0.89828 0.63371 0.0
H6388 H 0.05627 0.85175 0.61456 0.0
H6389 H 0.05914 0.81021 0.60847 0.0
H6390 H 0.14148 0.82667 0.6189 0.0
H6391 H 0.13881 0.86807 0.62511 0.0
C6392 C 0.15895 0.03024 0.62205 0.0
C6393 C 0.19133 0.03941 0.62199 0.0
C6394 C 0.13585 0.99962 0.62385 0.0
C6395 C 0.14433 0.97723 0.62577 0.0
C6396 C 0.1769 0.98683 0.62602 0.0
C6397 C 0.20017 0.01763 0.62416 0.0
C6398 C 0.119 0.94344 0.627 0.0
C6399 C 0.12051 0.91873 0.62388 0.0
C6400 C 0.09171 0.93562 0.63069 0.0
C6401 C 0.08907 0.95972 0.63447 0.0
C6402 C 0.11296 0.97873 0.63878 0.0
C6403 C 0.11029 1.00133 0.64235 0.0
C6404 C 0.08377 0.00505 0.64168 0.0
C6405 C 0.05984 0.98615 0.63744 0.0
C6406 C 0.06238 0.96351 0.63385 0.0
C6407 C 0.01553 0.79072 0.63054 0.0
C6408 C 0.98693 0.78431 0.62767 0.0
C6409 C 0.0418 0.82166 0.63059 0.0
C6410 C 0.03972 0.84694 0.62789 0.0
C6411 C 0.01088 0.84073 0.6252 0.0
C6412 C 0.985 0.8098 0.62502 0.0
C6413 C 0.06771 0.87972 0.62765 0.0
C6414 C 0.06646 0.90406 0.63091 0.0
C6415 C 0.09517 0.88717 0.62412 0.0
C6416 C 0.09715 0.86272 0.62034 0.0
C6417 C 0.07484 0.84633 0.61558 0.0
C6418 C 0.07645 0.82285 0.6121 0.0
C6419 C 0.10042 0.81573 0.61331 0.0
C6420 C 0.1229 0.83217 0.61798 0.0
C6421 C 0.12137 0.85566 0.62148 0.0
H6422 H 0.10162 0.79753 0.61061 0.0
H6423 H 0.08175 0.02255 0.64446 0.0
H6424 H 0.27592 0.20157 0.61966 0.0
H6425 H 0.22249 0.19358 0.61973 0.0
H6426 H 0.2493 0.26431 0.63421 0.0
H6427 H 0.30299 0.27154 0.63435 0.0
H6428 H 0.19023 0.21607 0.63625 0.0
H6429 H 0.24467 0.2814 0.6187 0.0
H6430 H 0.27743 0.29647 0.60915 0.0
H6431 H 0.20599 0.21312 0.59978 0.0
H6432 H 0.17317 0.19705 0.60936 0.0
H6433 H 0.05291 0.23337 0.62856 0.0
H6434 H 0.10484 0.23977 0.63143 0.0
H6435 H 0.09223 0.16991 0.61757 0.0
H6436 H 0.041 0.16403 0.61465 0.0
H6437 H 0.14623 0.22324 0.61574 0.0
H6438 H 0.0926 0.15719 0.63356 0.0
H6439 H 0.06184 0.14107 0.64339 0.0
H6440 H 0.13213 0.22669 0.65231 0.0
H6441 H 0.16303 0.24359 0.64249 0.0
C6442 C 0.27059 0.21548 0.62289 0.0
C6443 C 0.29402 0.23766 0.62693 0.0
C6444 C 0.23992 0.2109 0.62291 0.0
C6445 C 0.23191 0.22888 0.62686 0.0
C6446 C 0.2549 0.25031 0.63107 0.0
C6447 C 0.28567 0.25458 0.63113 0.0
C6448 C 0.19981 0.22569 0.6264 0.0
C6449 C 0.18075 0.21816 0.63179 0.0
C6450 C 0.18719 0.22802 0.62057 0.0
C6451 C 0.20656 0.23793 0.61476 0.0
C6452 C 0.23602 0.26619 0.61462 0.0
C6453 C 0.25462 0.2749 0.6092 0.0
C6454 C 0.2438 0.25578 0.60385 0.0
C6455 C 0.21434 0.22791 0.60392 0.0
C6456 C 0.19575 0.21896 0.60935 0.0
C6457 C 0.06093 0.21876 0.62627 0.0
C6458 C 0.04302 0.1982 0.62138 0.0
C6459 C 0.09061 0.22245 0.62791 0.0
C6460 C 0.10266 0.20544 0.62469 0.0
C6461 C 0.08368 0.18348 0.62009 0.0
C6462 C 0.05432 0.17998 0.61844 0.0
C6463 C 0.1361 0.21266 0.62556 0.0
C6464 C 0.15562 0.22127 0.62023 0.0
C6465 C 0.14905 0.21149 0.63144 0.0
C6466 C 0.12986 0.20187 0.63726 0.0
C6467 C 0.10124 0.17281 0.63759 0.0
C6468 C 0.08384 0.16348 0.64317 0.0
C6469 C 0.09495 0.1829 0.64847 0.0
C6470 C 0.12348 0.21171 0.64819 0.0
C6471 C 0.14093 0.22119 0.64262 0.0
H6472 H 0.08151 0.17557 0.65279 0.0
H6473 H 0.25823 0.26254 0.59965 0.0
H6474 H 0.52477 0.1724 0.21309 0.0
H6475 H 0.57166 0.16811 0.21052 0.0
H6476 H 0.62689 0.24228 0.22382 0.0
H6477 H 0.58008 0.24684 0.22628 0.0
H6478 H 0.66377 0.24742 0.21435 0.0
H6479 H 0.59283 0.1633 0.22764 0.0
H6480 H 0.54242 0.11753 0.23114 0.0
H6481 H 0.54196 0.06452 0.215 0.0
H6482 H 0.59213 0.11025 0.21134 0.0
H6483 H 0.77817 0.20474 0.22313 0.0
H6484 H 0.73405 0.2148 0.22269 0.0
H6485 H 0.69313 0.14861 0.2074 0.0
H6486 H 0.73799 0.13867 0.20774 0.0
H6487 H 0.64943 0.13972 0.21693 0.0
H6488 H 0.72728 0.22666 0.20466 0.0
H6489 H 0.78004 0.27283 0.20256 0.0
H6490 H 0.77004 0.32137 0.21843 0.0
H6491 H 0.7174 0.27523 0.2207 0.0
C6492 C 0.54726 0.18861 0.21527 0.0
C6493 C 0.54897 0.21045 0.21978 0.0
C6494 C 0.57398 0.18584 0.21388 0.0
C6495 C 0.60291 0.20448 0.21705 0.0
C6496 C 0.60503 0.2276 0.22129 0.0
C6497 C 0.57832 0.23039 0.22267 0.0
C6498 C 0.63012 0.19842 0.21629 0.0
C6499 C 0.66057 0.22387 0.21494 0.0
C6500 C 0.6263 0.16772 0.21704 0.0
C6501 C 0.59595 0.14034 0.21917 0.0
C6502 C 0.58178 0.14201 0.2248 0.0
C6503 C 0.55329 0.11605 0.22682 0.0
C6504 C 0.53893 0.08817 0.22328 0.0
C6505 C 0.55306 0.08617 0.21773 0.0
C6506 C 0.5815 0.11211 0.21567 0.0
C6507 C 0.76002 0.19241 0.21962 0.0
C6508 C 0.76181 0.17089 0.21546 0.0
C6509 C 0.73474 0.19833 0.21937 0.0
C6510 C 0.71031 0.18279 0.21497 0.0
C6511 C 0.71178 0.16108 0.21081 0.0
C6512 C 0.73746 0.15543 0.21101 0.0
C6513 C 0.68287 0.18859 0.21493 0.0
C6514 C 0.65245 0.16314 0.21621 0.0
C6515 C 0.68694 0.21941 0.21428 0.0
C6516 C 0.71844 0.24736 0.21288 0.0
C6517 C 0.7364 0.24707 0.20773 0.0
C6518 C 0.76629 0.27326 0.20651 0.0
C6519 C 0.77839 0.30001 0.21036 0.0
C6520 C 0.76062 0.30063 0.21545 0.0
C6521 C 0.73074 0.27447 0.21671 0.0
H6522 H 0.80151 0.32028 0.2094 0.0
H6523 H 0.5169 0.06806 0.22486 0.0
H6524 H 0.8875 0.6125 0.226 0.0
H6525 H 0.87897 0.5591 0.22544 0.0
H6526 H 0.91716 0.57694 0.20667 0.0
H6527 H 0.92396 0.63056 0.20706 0.0
H6528 H 0.86511 0.5168 0.20776 0.0
H6529 H 0.96179 0.57813 0.21885 0.0
H6530 H 0.99665 0.61665 0.22678 0.0
H6531 H 0.93759 0.55528 0.24151 0.0
H6532 H 0.90195 0.51668 0.23366 0.0
H6533 H 0.89286 0.38178 0.21149 0.0
H6534 H 0.89606 0.43283 0.20907 0.0
H6535 H 0.8486 0.42751 0.22647 0.0
H6536 H 0.84515 0.37665 0.22884 0.0
H6537 H 0.90951 0.4826 0.22505 0.0
H6538 H 0.81171 0.42262 0.21376 0.0
H6539 H 0.77599 0.38558 0.20573 0.0
H6540 H 0.83851 0.44511 0.19118 0.0
H6541 H 0.87495 0.48219 0.19914 0.0
C6542 C 0.8938 0.60517 0.2217 0.0
C6543 C 0.90637 0.62599 0.21656 0.0
C6544 C 0.88914 0.57453 0.22142 0.0
C6545 C 0.8978 0.56395 0.21605 0.0
C6546 C 0.91034 0.58454 0.21087 0.0
C6547 C 0.9146 0.61533 0.21113 0.0
C6548 C 0.8943 0.53166 0.21604 0.0
C6549 C 0.87536 0.50949 0.21147 0.0
C6550 C 0.90726 0.52184 0.22092 0.0
C6551 C 0.92913 0.54456 0.22567 0.0
C6552 C 0.95616 0.5729 0.22378 0.0
C6553 C 0.97604 0.59477 0.22826 0.0
C6554 C 0.96933 0.58842 0.23464 0.0
C6555 C 0.94276 0.56016 0.23656 0.0
C6556 C 0.92272 0.53826 0.2321 0.0
C6557 C 0.88191 0.39092 0.21464 0.0
C6558 C 0.86836 0.37511 0.22031 0.0
C6559 C 0.88398 0.42019 0.21329 0.0
C6560 C 0.87274 0.43413 0.21761 0.0
C6561 C 0.8575 0.41731 0.22308 0.0
C6562 C 0.85525 0.38811 0.2244 0.0
C6563 C 0.87983 0.46753 0.21684 0.0
C6564 C 0.89959 0.48997 0.22129 0.0
C6565 C 0.86786 0.47752 0.21182 0.0
C6566 C 0.8463 0.45492 0.20705 0.0
C6567 C 0.81809 0.42758 0.20885 0.0
C6568 C 0.79765 0.40663 0.20431 0.0
C6569 C 0.80503 0.41293 0.19795 0.0
C6570 C 0.83286 0.4402 0.19611 0.0
C6571 C 0.85343 0.46118 0.20064 0.0
H6572 H 0.78912 0.39673 0.19444 0.0
H6573 H 0.98475 0.60539 0.23811 0.0
H6574 H 0.46099 0.31937 0.22544 0.0
H6575 H 0.51435 0.36531 0.22539 0.0
H6576 H 0.50809 0.37537 0.20544 0.0
H6577 H 0.45378 0.3293 0.20546 0.0
H6578 H 0.56824 0.37906 0.21024 0.0
H6579 H 0.5064 0.43 0.2128 0.0
H6580 H 0.46343 0.43651 0.21729 0.0
H6581 H 0.50174 0.4438 0.23576 0.0
H6582 H 0.54548 0.43803 0.23134 0.0
H6583 H 0.71438 0.52853 0.21091 0.0
H6584 H 0.65876 0.48854 0.2087 0.0
H6585 H 0.64014 0.47433 0.22857 0.0
H6586 H 0.69555 0.51387 0.23075 0.0
H6587 H 0.59131 0.47467 0.22257 0.0
H6588 H 0.65354 0.42408 0.21999 0.0
H6589 H 0.69584 0.41613 0.21557 0.0
H6590 H 0.65548 0.40483 0.19718 0.0
H6591 H 0.61326 0.41333 0.20149 0.0
C6592 C 0.47078 0.33127 0.22102 0.0
C6593 C 0.45299 0.32053 0.21544 0.0
C6594 C 0.5014 0.35763 0.22101 0.0
C6595 C 0.51536 0.37385 0.21542 0.0
C6596 C 0.49786 0.36318 0.20981 0.0
C6597 C 0.4668 0.33695 0.20983 0.0
C6598 C 0.54805 0.4021 0.21557 0.0
C6599 C 0.57326 0.40031 0.2128 0.0
C6600 C 0.55482 0.42948 0.21905 0.0
C6601 C 0.529 0.43339 0.22175 0.0
C6602 C 0.50556 0.43288 0.21782 0.0
C6603 C 0.48108 0.43643 0.22036 0.0
C6604 C 0.47957 0.44017 0.22682 0.0
C6605 C 0.50286 0.4408 0.23076 0.0
C6606 C 0.52764 0.43761 0.22823 0.0
C6607 C 0.69819 0.51724 0.21479 0.0
C6608 C 0.70923 0.52441 0.221 0.0
C6609 C 0.66647 0.49419 0.21353 0.0
C6610 C 0.64513 0.47804 0.21847 0.0
C6611 C 0.65595 0.4863 0.22467 0.0
C6612 C 0.68765 0.50894 0.22592 0.0
C6613 C 0.61186 0.45185 0.21724 0.0
C6614 C 0.58645 0.45381 0.21988 0.0
C6615 C 0.60503 0.42462 0.21364 0.0
C6616 C 0.63054 0.41983 0.21104 0.0
C6617 C 0.65391 0.42028 0.21499 0.0
C6618 C 0.67783 0.41561 0.21251 0.0
C6619 C 0.67843 0.4101 0.20609 0.0
C6620 C 0.65506 0.40921 0.20215 0.0
C6621 C 0.63114 0.41398 0.2046 0.0
H6622 H 0.69694 0.40643 0.20418 0.0
H6623 H 0.46047 0.44274 0.22878 0.0
H6624 H 0.57639 0.48321 0.04179 0.0
H6625 H 0.56537 0.42833 0.04201 0.0
H6626 H 0.53427 0.41917 0.06121 0.0
H6627 H 0.54529 0.47414 0.06105 0.0
H6628 H 0.58581 0.39944 0.0568 0.0
H6629 H 0.46355 0.35493 0.05432 0.0
H6630 H 0.41881 0.35665 0.04923 0.0
H6631 H 0.46856 0.38045 0.03165 0.0
H6632 H 0.51315 0.37797 0.03662 0.0
H6633 H 0.53866 0.23379 0.05639 0.0
H6634 H 0.53854 0.28298 0.05904 0.0
H6635 H 0.52695 0.297 0.03942 0.0
H6636 H 0.52602 0.24766 0.03686 0.0
H6637 H 0.4929 0.31313 0.04582 0.0
H6638 H 0.60099 0.33316 0.04781 0.0
H6639 H 0.64341 0.32573 0.05238 0.0
H6640 H 0.62523 0.35124 0.07055 0.0
H6641 H 0.5823 0.35823 0.06611 0.0
C6642 C 0.56728 0.46962 0.04607 0.0
C6643 C 0.5617 0.48313 0.0514 0.0
C6644 C 0.56085 0.4382 0.04617 0.0
C6645 C 0.5489 0.41971 0.05161 0.0
C6646 C 0.54341 0.43305 0.05696 0.0
C6647 C 0.54964 0.46444 0.05685 0.0
C6648 C 0.54296 0.38672 0.0517 0.0
C6649 C 0.5653 0.38036 0.05449 0.0
C6650 C 0.51648 0.36198 0.04866 0.0
C6651 C 0.49159 0.36668 0.04583 0.0
C6652 C 0.46495 0.3608 0.04938 0.0
C6653 C 0.43954 0.36156 0.04651 0.0
C6654 C 0.44083 0.36859 0.04012 0.0
C6655 C 0.4676 0.37501 0.03659 0.0
C6656 C 0.49288 0.37384 0.03942 0.0
C6657 C 0.53521 0.24709 0.0527 0.0
C6658 C 0.53188 0.23695 0.04644 0.0
C6659 C 0.53559 0.27536 0.05419 0.0
C6660 C 0.53326 0.2941 0.04942 0.0
C6661 C 0.52875 0.28309 0.0432 0.0
C6662 C 0.52811 0.25486 0.04173 0.0
C6663 C 0.53633 0.32562 0.05073 0.0
C6664 C 0.51332 0.33184 0.04824 0.0
C6665 C 0.56253 0.3502 0.05399 0.0
C6666 C 0.58821 0.34584 0.05664 0.0
C6667 C 0.60587 0.33691 0.05279 0.0
C6668 C 0.63002 0.33281 0.05535 0.0
C6669 C 0.63698 0.33799 0.06175 0.0
C6670 C 0.61978 0.3472 0.0656 0.0
C6671 C 0.59552 0.3512 0.06306 0.0
H6672 H 0.65579 0.33496 0.06372 0.0
H6673 H 0.42114 0.36923 0.03791 0.0
H6674 H 0.86036 0.29207 0.05205 0.0
H6675 H 0.80669 0.2533 0.05556 0.0
H6676 H 0.77106 0.31098 0.04765 0.0
H6677 H 0.82479 0.34982 0.04419 0.0
H6678 H 0.73582 0.27595 0.05829 0.0
H6679 H 0.77345 0.25938 0.0385 0.0
H6680 H 0.81208 0.25478 0.03174 0.0
H6681 H 0.801 0.17576 0.04268 0.0
H6682 H 0.76248 0.18012 0.04954 0.0
H6683 H 0.57999 0.15428 0.04925 0.0
H6684 H 0.63376 0.2001 0.04955 0.0
H6685 H 0.66933 0.13968 0.05593 0.0
H6686 H 0.61622 0.09442 0.05549 0.0
H6687 H 0.70493 0.17675 0.04651 0.0
H6688 H 0.66472 0.19129 0.06598 0.0
H6689 H 0.62524 0.19528 0.07255 0.0
H6690 H 0.63972 0.2769 0.06209 0.0
H6691 H 0.67931 0.2733 0.05544 0.0
C6692 C 0.84131 0.29716 0.05136 0.0
C6693 C 0.84655 0.3239 0.04791 0.0
C6694 C 0.81064 0.27494 0.05331 0.0
C6695 C 0.78481 0.27903 0.05177 0.0
C6696 C 0.79061 0.30737 0.04889 0.0
C6697 C 0.82128 0.32958 0.04693 0.0
C6698 C 0.75187 0.25182 0.05213 0.0
C6699 C 0.72899 0.25432 0.0557 0.0
C6700 C 0.74292 0.22351 0.04876 0.0
C6701 C 0.76537 0.22027 0.04456 0.0
C6702 C 0.77937 0.24112 0.03948 0.0
C6703 C 0.80124 0.23857 0.03563 0.0
C6704 C 0.8091 0.21509 0.0368 0.0
C6705 C 0.79494 0.19398 0.04179 0.0
C6706 C 0.77305 0.19645 0.04565 0.0
C6707 C 0.59927 0.1507 0.05062 0.0
C6708 C 0.59368 0.12011 0.05205 0.0
C6709 C 0.63002 0.17701 0.05088 0.0
C6710 C 0.65574 0.17333 0.05272 0.0
C6711 C 0.65003 0.14311 0.0544 0.0
C6712 C 0.61945 0.11699 0.0541 0.0
C6713 C 0.68877 0.20059 0.05273 0.0
C6714 C 0.7117 0.1982 0.04917 0.0
C6715 C 0.69762 0.22889 0.05609 0.0
C6716 C 0.6748 0.23192 0.0602 0.0
C6717 C 0.65945 0.21008 0.06508 0.0
C6718 C 0.63708 0.21229 0.06882 0.0
C6719 C 0.62996 0.23637 0.06774 0.0
C6720 C 0.64534 0.25836 0.06293 0.0
C6721 C 0.66782 0.25629 0.05919 0.0
H6722 H 0.61253 0.23798 0.07062 0.0
H6723 H 0.8261 0.21319 0.03383 0.0
H6724 H 0.92893 0.46646 0.04581 0.0
H6725 H 0.88046 0.46942 0.04674 0.0
H6726 H 0.93186 0.55644 0.05729 0.0
H6727 H 0.97796 0.55046 0.05723 0.0
H6728 H 0.88074 0.53129 0.06182 0.0
H6729 H 0.9107 0.54819 0.04021 0.0
H6730 H 0.92413 0.53668 0.02977 0.0
H6731 H 0.83185 0.45366 0.02838 0.0
H6732 H 0.81818 0.46427 0.0389 0.0
H6733 H 0.79967 0.61006 0.05029 0.0
H6734 H 0.83429 0.59004 0.05381 0.0
H6735 H 0.75991 0.49428 0.05003 0.0
H6736 H 0.72512 0.51442 0.04655 0.0
H6737 H 0.81549 0.51572 0.04289 0.0
H6738 H 0.78837 0.51403 0.06496 0.0
H6739 H 0.78214 0.53798 0.07467 0.0
H6740 H 0.87996 0.61111 0.07373 0.0
H6741 H 0.88672 0.58778 0.064 0.0
C6742 C 0.92973 0.48608 0.04836 0.0
C6743 C 0.95794 0.50907 0.05123 0.0
C6744 C 0.90204 0.48796 0.04884 0.0
C6745 C 0.90246 0.51377 0.05191 0.0
C6746 C 0.93053 0.53627 0.05486 0.0
C6747 C 0.95749 0.53336 0.05468 0.0
C6748 C 0.87411 0.51787 0.05204 0.0
C6749 C 0.86676 0.52811 0.05764 0.0
C6750 C 0.85528 0.51345 0.04665 0.0
C6751 C 0.86359 0.50677 0.04037 0.0
C6752 C 0.89339 0.52732 0.0377 0.0
C6753 C 0.90103 0.52099 0.03176 0.0
C6754 C 0.87886 0.49446 0.0284 0.0
C6755 C 0.84903 0.47417 0.03099 0.0
C6756 C 0.84134 0.48028 0.03694 0.0
C6757 C 0.79044 0.58469 0.05045 0.0
C6758 C 0.76003 0.5637 0.04815 0.0
C6759 C 0.81009 0.57325 0.05248 0.0
C6760 C 0.7996 0.54068 0.05218 0.0
C6761 C 0.76829 0.51946 0.05033 0.0
C6762 C 0.74849 0.53092 0.04836 0.0
C6763 C 0.82302 0.52987 0.05258 0.0
C6764 C 0.82935 0.51837 0.04707 0.0
C6765 C 0.84218 0.53517 0.05792 0.0
C6766 C 0.83798 0.54919 0.06375 0.0
C6767 C 0.80847 0.53532 0.06681 0.0
C6768 C 0.80488 0.54875 0.07232 0.0
C6769 C 0.83063 0.57604 0.0748 0.0
C6770 C 0.86005 0.58995 0.0718 0.0
C6771 C 0.86379 0.57659 0.0663 0.0
H6772 H 0.82782 0.58641 0.07906 0.0
H6773 H 0.8848 0.48967 0.02379 0.0
H6774 H 0.48105 0.56968 0.46766 0.0
H6775 H 0.42715 0.56099 0.467 0.0
H6776 H 0.42139 0.53317 0.44765 0.0
H6777 H 0.47582 0.54267 0.44819 0.0
H6778 H 0.40705 0.59287 0.4557 0.0
H6779 H 0.34321 0.46517 0.44926 0.0
H6780 H 0.33966 0.41338 0.45109 0.0
H6781 H 0.37609 0.44232 0.46974 0.0
H6782 H 0.37986 0.49426 0.46799 0.0
H6783 H 0.24536 0.55547 0.45241 0.0
H6784 H 0.29428 0.55484 0.44974 0.0
H6785 H 0.29253 0.51483 0.46791 0.0
H6786 H 0.24382 0.51538 0.47054 0.0
H6787 H 0.31014 0.48795 0.45864 0.0
H6788 H 0.33531 0.59383 0.46546 0.0
H6789 H 0.32917 0.6409 0.46429 0.0
H6790 H 0.36788 0.656 0.44568 0.0
H6791 H 0.37367 0.60861 0.4467 0.0
C6792 C 0.46844 0.56181 0.46325 0.0
C6793 C 0.48275 0.55685 0.45797 0.0
C6794 C 0.43763 0.55675 0.4629 0.0
C6795 C 0.42047 0.54644 0.45729 0.0
C6796 C 0.43434 0.54099 0.45202 0.0
C6797 C 0.46534 0.54631 0.45236 0.0
C6798 C 0.38853 0.54272 0.45693 0.0
C6799 C 0.3858 0.56991 0.45625 0.0
C6800 C 0.36093 0.51289 0.45764 0.0
C6801 C 0.36217 0.4835 0.45847 0.0
C6802 C 0.35078 0.46051 0.45372 0.0
C6803 C 0.34851 0.43111 0.45475 0.0
C6804 C 0.35746 0.42451 0.46054 0.0
C6805 C 0.36913 0.44747 0.46527 0.0
C6806 C 0.37154 0.47694 0.46424 0.0
C6807 C 0.25533 0.54613 0.45576 0.0
C6808 C 0.24129 0.5356 0.46167 0.0
C6809 C 0.28315 0.54581 0.45425 0.0
C6810 C 0.29711 0.53502 0.45865 0.0
C6811 C 0.28211 0.52318 0.46445 0.0
C6812 C 0.25447 0.52361 0.46596 0.0
C6813 C 0.32852 0.53811 0.45751 0.0
C6814 C 0.33125 0.51087 0.45791 0.0
C6815 C 0.35608 0.56798 0.45657 0.0
C6816 C 0.35455 0.59753 0.45613 0.0
C6817 C 0.34245 0.60717 0.46112 0.0
C6818 C 0.33893 0.63382 0.46047 0.0
C6819 C 0.3478 0.6512 0.45489 0.0
C6820 C 0.36077 0.64233 0.44998 0.0
C6821 C 0.36419 0.61561 0.45059 0.0
H6822 H 0.34485 0.6717 0.45438 0.0
H6823 H 0.35558 0.40168 0.46134 0.0
H6824 H 0.53747 0.75157 0.47189 0.0
H6825 H 0.51777 0.78723 0.46884 0.0
H6826 H 0.5656 0.80374 0.45103 0.0
H6827 H 0.58493 0.76765 0.45406 0.0
H6828 H 0.58427 0.85763 0.45775 0.0
H6829 H 0.4872 0.77079 0.45105 0.0
H6830 H 0.43878 0.71828 0.45157 0.0
H6831 H 0.406 0.74854 0.46738 0.0
H6832 H 0.45446 0.80106 0.46703 0.0
H6833 H 0.54323 0.97524 0.45054 0.0
H6834 H 0.55086 0.92952 0.45025 0.0
H6835 H 0.49358 0.89223 0.46691 0.0
H6836 H 0.48583 0.93808 0.46723 0.0
H6837 H 0.47736 0.84625 0.45895 0.0
H6838 H 0.58005 0.92411 0.46753 0.0
H6839 H 0.63322 0.97142 0.46844 0.0
H6840 H 0.65588 0.95618 0.44976 0.0
H6841 H 0.60306 0.90826 0.44882 0.0
C6842 C 0.54293 0.76216 0.46726 0.0
C6843 C 0.56266 0.75712 0.4632 0.0
C6844 C 0.53155 0.78234 0.4655 0.0
C6845 C 0.54007 0.79803 0.45969 0.0
C6846 C 0.55854 0.79168 0.45551 0.0
C6847 C 0.56957 0.77116 0.45724 0.0
C6848 C 0.53424 0.82472 0.45848 0.0
C6849 C 0.56077 0.85501 0.45784 0.0
C6850 C 0.50372 0.82142 0.45879 0.0
C6851 C 0.47465 0.78979 0.45906 0.0
C6852 C 0.46984 0.76616 0.45468 0.0
C6853 C 0.44235 0.73641 0.45494 0.0
C6854 C 0.41944 0.73008 0.45952 0.0
C6855 C 0.42384 0.7535 0.46384 0.0
C6856 C 0.4513 0.78326 0.46362 0.0
C6857 C 0.53254 0.95758 0.4542 0.0
C6858 C 0.51413 0.96062 0.45894 0.0
C6859 C 0.53698 0.93135 0.45402 0.0
C6860 C 0.52318 0.90749 0.4586 0.0
C6861 C 0.50453 0.91028 0.46332 0.0
C6862 C 0.5001 0.93656 0.4635 0.0
C6863 C 0.52758 0.87931 0.45841 0.0
C6864 C 0.50078 0.84877 0.45876 0.0
C6865 C 0.55791 0.88223 0.45787 0.0
C6866 C 0.58759 0.91306 0.45807 0.0
C6867 C 0.59622 0.93122 0.46358 0.0
C6868 C 0.62641 0.95784 0.46413 0.0
C6869 C 0.64794 0.96677 0.45916 0.0
C6870 C 0.63922 0.9492 0.45361 0.0
C6871 C 0.60922 0.92227 0.45307 0.0
H6872 H 0.67134 0.9874 0.4596 0.0
H6873 H 0.39829 0.70704 0.45975 0.0
H6874 H 0.36195 0.80957 0.46071 0.0
H6875 H 0.31458 0.75914 0.4584 0.0
H6876 H 0.25898 0.80571 0.45783 0.0
H6877 H 0.30613 0.85615 0.46044 0.0
H6878 H 0.2352 0.75869 0.46591 0.0
H6879 H 0.26824 0.769 0.44455 0.0
H6880 H 0.30507 0.77889 0.43578 0.0
H6881 H 0.31627 0.70076 0.44173 0.0
H6882 H 0.27973 0.69058 0.45058 0.0
H6883 H 0.09303 0.61718 0.46166 0.0
H6884 H 0.13845 0.66963 0.46011 0.0
H6885 H 0.19875 0.62828 0.45863 0.0
H6886 H 0.15149 0.57512 0.45906 0.0
H6887 H 0.21909 0.67418 0.45089 0.0
H6888 H 0.18979 0.66701 0.47277 0.0
H6889 H 0.15296 0.6572 0.48156 0.0
H6890 H 0.13615 0.73055 0.47475 0.0
H6891 H 0.1726 0.74054 0.46589 0.0
C6892 C 0.33971 0.80918 0.46003 0.0
C6893 C 0.33769 0.83675 0.46091 0.0
C6894 C 0.3127 0.78036 0.45861 0.0
C6895 C 0.2832 0.7786 0.45794 0.0
C6896 C 0.28153 0.80654 0.45834 0.0
C6897 C 0.30855 0.8354 0.4598 0.0
C6898 C 0.25377 0.74722 0.45779 0.0
C6899 C 0.23138 0.74043 0.46254 0.0
C6900 C 0.2493 0.72304 0.45353 0.0
C6901 C 0.2714 0.72917 0.44824 0.0
C6902 C 0.27874 0.75408 0.44401 0.0
C6903 C 0.29951 0.75969 0.43902 0.0
C6904 C 0.31303 0.74049 0.4382 0.0
C6905 C 0.30577 0.7156 0.44237 0.0
C6906 C 0.28498 0.70986 0.44737 0.0
C6907 C 0.11566 0.61926 0.46076 0.0
C6908 C 0.11861 0.5922 0.4604 0.0
C6909 C 0.14197 0.64936 0.46007 0.0
C6910 C 0.1724 0.65324 0.45943 0.0
C6911 C 0.1756 0.62606 0.45917 0.0
C6912 C 0.14878 0.59573 0.45957 0.0
C6913 C 0.20065 0.6856 0.45906 0.0
C6914 C 0.22284 0.69252 0.45423 0.0
C6915 C 0.20516 0.71 0.46328 0.0
C6916 C 0.18373 0.70437 0.46866 0.0
C6917 C 0.17815 0.68096 0.47315 0.0
C6918 C 0.15735 0.67537 0.47813 0.0
C6919 C 0.1422 0.69321 0.4787 0.0
C6920 C 0.14789 0.71675 0.4743 0.0
C6921 C 0.16865 0.72242 0.4693 0.0
H6922 H 0.12607 0.68881 0.48256 0.0
H6923 H 0.32911 0.74488 0.43433 0.0
H6924 H 0.54525 0.60937 0.94998 0.0
H6925 H 0.55252 0.66269 0.94996 0.0
H6926 H 0.49039 0.63862 0.96593 0.0
H6927 H 0.48496 0.58581 0.9663 0.0
H6928 H 0.49036 0.67688 0.9516 0.0
H6929 H 0.53781 0.67511 0.97217 0.0
H6930 H 0.5733 0.66453 0.97871 0.0
H6931 H 0.65186 0.7242 0.96674 0.0
H6932 H 0.61643 0.73396 0.95999 0.0
H6933 H 0.50718 0.81926 0.96466 0.0
H6934 H 0.49625 0.76737 0.96096 0.0
H6935 H 0.59532 0.80689 0.95637 0.0
H6936 H 0.60604 0.85883 0.96022 0.0
H6937 H 0.578 0.76049 0.96417 0.0
H6938 H 0.53475 0.77178 0.94499 0.0
H6939 H 0.50138 0.78269 0.93788 0.0
H6940 H 0.4174 0.70786 0.94648 0.0
H6941 H 0.45026 0.69675 0.95369 0.0
C6942 C 0.53371 0.6155 0.95358 0.0
C6943 C 0.51552 0.5936 0.95828 0.0
C6944 C 0.53753 0.64589 0.9535 0.0
C6945 C 0.52236 0.65462 0.958 0.0
C6946 C 0.50268 0.63237 0.96248 0.0
C6947 C 0.49961 0.60223 0.96268 0.0
C6948 C 0.52807 0.68741 0.95811 0.0
C6949 C 0.50922 0.69522 0.9544 0.0
C6950 C 0.55339 0.71134 0.96158 0.0
C6951 C 0.57436 0.70461 0.9655 0.0
C6952 C 0.56247 0.68531 0.97085 0.0
C6953 C 0.5826 0.67958 0.97461 0.0
C6954 C 0.6148 0.69356 0.97313 0.0
C6955 C 0.62689 0.71327 0.96788 0.0
C6956 C 0.60677 0.71873 0.96406 0.0
C6957 C 0.52622 0.81708 0.9626 0.0
C6958 C 0.55727 0.8429 0.96268 0.0
C6959 C 0.52004 0.7874 0.96048 0.0
C6960 C 0.54496 0.78307 0.95839 0.0
C6961 C 0.57569 0.80962 0.95797 0.0
C6962 C 0.5818 0.83934 0.96011 0.0
C6963 C 0.53996 0.75046 0.95771 0.0
C6964 C 0.55909 0.74249 0.96133 0.0
C6965 C 0.51487 0.72652 0.95414 0.0
C6966 C 0.495 0.73364 0.94992 0.0
C6967 C 0.50917 0.75789 0.94541 0.0
C6968 C 0.49034 0.76404 0.94135 0.0
C6969 C 0.4573 0.74603 0.94174 0.0
C6970 C 0.443 0.72182 0.94619 0.0
C6971 C 0.46172 0.71556 0.95026 0.0
H6972 H 0.44277 0.7508 0.93858 0.0
H6973 H 0.63038 0.6892 0.97605 0.0
H6974 H 0.22845 0.77835 0.96593 0.0
H6975 H 0.2781 0.82732 0.96351 0.0
H6976 H 0.30765 0.774 0.95194 0.0
H6977 H 0.2587 0.72516 0.95453 0.0
H6978 H 0.34973 0.80465 0.96041 0.0
H6979 H 0.29199 0.8323 0.94602 0.0
H6980 H 0.24989 0.84284 0.94249 0.0
H6981 H 0.28041 0.91814 0.95595 0.0
H6982 H 0.32236 0.90771 0.95962 0.0
H6983 H 0.48976 0.9498 0.94818 0.0
H6984 H 0.43467 0.9055 0.94788 0.0
H6985 H 0.42197 0.92392 0.96713 0.0
H6986 H 0.47753 0.96668 0.96757 0.0
H6987 H 0.37212 0.91194 0.95407 0.0
H6988 H 0.41799 0.87387 0.97012 0.0
H6989 H 0.45538 0.85915 0.97462 0.0
H6990 H 0.44331 0.80086 0.95858 0.0
H6991 H 0.40653 0.81623 0.95387 0.0
C6992 C 0.24528 0.77738 0.96275 0.0
C6993 C 0.2401 0.74811 0.96046 0.0
C6994 C 0.27355 0.80534 0.96134 0.0
C6995 C 0.29669 0.80439 0.95754 0.0
C6996 C 0.29027 0.77535 0.9549 0.0
C6997 C 0.26236 0.74747 0.95638 0.0
C6998 C 0.32921 0.83224 0.95707 0.0
C6999 C 0.35447 0.82791 0.9589 0.0
C7000 C 0.33555 0.86293 0.9553 0.0
C7001 C 0.31013 0.869 0.95314 0.0
C7002 C 0.28952 0.85089 0.94827 0.0
C7003 C 0.26572 0.85689 0.94624 0.0
C7004 C 0.26243 0.88109 0.949 0.0
C7005 C 0.28295 0.89937 0.95381 0.0
C7006 C 0.30675 0.89343 0.95587 0.0
C7007 C 0.47519 0.94402 0.95235 0.0
C7008 C 0.48783 0.96092 0.95794 0.0
C7009 C 0.44385 0.91896 0.95217 0.0
C7010 C 0.42459 0.91122 0.95752 0.0
C7011 C 0.43678 0.92911 0.96301 0.0
C7012 C 0.46842 0.95337 0.96326 0.0
C7013 C 0.39197 0.8839 0.95742 0.0
C7014 C 0.36699 0.88842 0.95548 0.0
C7015 C 0.38559 0.8533 0.95914 0.0
C7016 C 0.41038 0.84703 0.96156 0.0
C7017 C 0.42421 0.8589 0.96744 0.0
C7018 C 0.44504 0.85021 0.97006 0.0
C7019 C 0.45173 0.82917 0.96689 0.0
C7020 C 0.4382 0.81731 0.96101 0.0
C7021 C 0.4175 0.82615 0.95835 0.0
H7022 H 0.46689 0.82166 0.96907 0.0
H7023 H 0.24402 0.88573 0.94742 0.0
H7024 H 0.11238 0.54859 0.94905 0.0
H7025 H 0.15792 0.54059 0.94865 0.0
H7026 H 0.18408 0.57794 0.96742 0.0
H7027 H 0.13832 0.58575 0.96786 0.0
H7028 H 0.23424 0.60307 0.96066 0.0
H7029 H 0.15618 0.48944 0.96421 0.0
H7030 H 0.11467 0.43359 0.96266 0.0
H7031 H 0.13952 0.43987 0.94317 0.0
H7032 H 0.18184 0.49542 0.94467 0.0
H7033 H 0.31307 0.52252 0.9718 0.0
H7034 H 0.28168 0.5477 0.96921 0.0
H7035 H 0.28894 0.53171 0.94953 0.0
H7036 H 0.3211 0.50722 0.95211 0.0
H7037 H 0.22728 0.50149 0.95465 0.0
H7038 H 0.31626 0.60334 0.95315 0.0
H7039 H 0.36727 0.64988 0.9561 0.0
H7040 H 0.32443 0.66305 0.97258 0.0
H7041 H 0.27324 0.61624 0.96978 0.0
C7042 C 0.12763 0.55482 0.95312 0.0
C7043 C 0.1218 0.56802 0.95848 0.0
C7044 C 0.15364 0.55007 0.95289 0.0
C7045 C 0.17438 0.55835 0.95802 0.0
C7046 C 0.16853 0.57145 0.96338 0.0
C7047 C 0.14246 0.57614 0.96362 0.0
C7048 C 0.20295 0.55479 0.95772 0.0
C7049 C 0.23259 0.5807 0.95941 0.0
C7050 C 0.20146 0.52628 0.95578 0.0
C7051 C 0.17159 0.49663 0.95452 0.0
C7052 C 0.15213 0.47913 0.95956 0.0
C7053 C 0.12893 0.44737 0.95872 0.0
C7054 C 0.12473 0.43311 0.95284 0.0
C7055 C 0.143 0.45085 0.94774 0.0
C7056 C 0.16657 0.48245 0.94858 0.0
C7057 C 0.30854 0.52514 0.96692 0.0
C7058 C 0.31894 0.51273 0.96214 0.0
C7059 C 0.29101 0.53981 0.96544 0.0
C7060 C 0.2833 0.54177 0.95918 0.0
C7061 C 0.29507 0.53076 0.95438 0.0
C7062 C 0.31315 0.51664 0.95585 0.0
C7063 C 0.25792 0.54911 0.95783 0.0
C7064 C 0.22897 0.52404 0.95579 0.0
C7065 C 0.26013 0.57817 0.95951 0.0
C7066 C 0.29093 0.60609 0.96128 0.0
C7067 C 0.31777 0.61593 0.95744 0.0
C7068 C 0.34672 0.64242 0.95908 0.0
C7069 C 0.3491 0.65937 0.96453 0.0
C7070 C 0.32254 0.64987 0.96835 0.0
C7071 C 0.29354 0.62338 0.96674 0.0
H7072 H 0.37153 0.67991 0.96578 0.0
H7073 H 0.10694 0.40843 0.95221 0.0
H7074 H 0.61114 0.54759 0.56018 0.0
H7075 H 0.66499 0.55593 0.56038 0.0
H7076 H 0.64267 0.49274 0.54464 0.0
H7077 H 0.58926 0.48547 0.54421 0.0
H7078 H 0.6756 0.48187 0.55461 0.0
H7079 H 0.6849 0.5657 0.5413 0.0
H7080 H 0.68592 0.61399 0.53747 0.0
H7081 H 0.74409 0.66667 0.55309 0.0
H7082 H 0.7432 0.6186 0.55705 0.0
H7083 H 0.82723 0.52598 0.54129 0.0
H7084 H 0.77244 0.50886 0.5444 0.0
H7085 H 0.80698 0.58492 0.55792 0.0
H7086 H 0.86158 0.60243 0.55467 0.0
H7087 H 0.76755 0.58831 0.55019 0.0
H7088 H 0.76374 0.50491 0.56267 0.0
H7089 H 0.77095 0.45919 0.56489 0.0
H7090 H 0.70619 0.40654 0.55005 0.0
H7091 H 0.6985 0.45189 0.54777 0.0
C7092 C 0.61771 0.5358 0.55671 0.0
C7093 C 0.59603 0.51654 0.55208 0.0
C7094 C 0.64848 0.54042 0.55686 0.0
C7095 C 0.65784 0.52511 0.55249 0.0
C7096 C 0.63591 0.50482 0.54804 0.0
C7097 C 0.6054 0.50078 0.5478 0.0
C7098 C 0.69069 0.53067 0.55249 0.0
C7099 C 0.69576 0.50512 0.55363 0.0
C7100 C 0.71701 0.56105 0.55135 0.0
C7101 C 0.71364 0.58851 0.54951 0.0
C7102 C 0.69728 0.5874 0.544 0.0
C7103 C 0.69816 0.61481 0.54176 0.0
C7104 C 0.71539 0.64344 0.545 0.0
C7105 C 0.73097 0.64453 0.55057 0.0
C7106 C 0.73022 0.61722 0.55282 0.0
C7107 C 0.82297 0.53835 0.54505 0.0
C7108 C 0.84828 0.56546 0.54775 0.0
C7109 C 0.79173 0.5285 0.54685 0.0
C7110 C 0.78553 0.54552 0.55142 0.0
C7111 C 0.81116 0.5714 0.55439 0.0
C7112 C 0.84228 0.58138 0.55255 0.0
C7113 C 0.75279 0.5397 0.55236 0.0
C7114 C 0.7476 0.56518 0.55135 0.0
C7115 C 0.72655 0.50931 0.55361 0.0
C7116 C 0.73072 0.48184 0.55502 0.0
C7117 C 0.75112 0.4836 0.55987 0.0
C7118 C 0.75522 0.45772 0.56116 0.0
C7119 C 0.73905 0.42997 0.55762 0.0
C7120 C 0.71862 0.428 0.55281 0.0
C7121 C 0.71428 0.45373 0.55153 0.0
H7122 H 0.74233 0.40999 0.5586 0.0
H7123 H 0.71653 0.66478 0.5432 0.0
H7124 H 0.5381 0.10222 0.55979 0.0
H7125 H 0.52964 0.14759 0.56019 0.0
H7126 H 0.58565 0.18552 0.54342 0.0
H7127 H 0.59222 0.13912 0.54274 0.0
H7128 H 0.6026 0.2303 0.55345 0.0
H7129 H 0.50883 0.15466 0.54181 0.0
H7130 H 0.45765 0.10661 0.53956 0.0
H7131 H 0.41912 0.11888 0.55676 0.0
H7132 H 0.47006 0.16712 0.55909 0.0
H7133 H 0.55708 0.33468 0.53963 0.0
H7134 H 0.57439 0.29784 0.54322 0.0
H7135 H 0.5066 0.26761 0.55837 0.0
H7136 H 0.4894 0.30453 0.55477 0.0
H7137 H 0.49645 0.21975 0.55104 0.0
H7138 H 0.58329 0.29898 0.56182 0.0
H7139 H 0.63163 0.34918 0.56439 0.0
H7140 H 0.68289 0.33177 0.55003 0.0
H7141 H 0.63465 0.28164 0.54729 0.0
C7142 C 0.54829 0.11991 0.55613 0.0
C7143 C 0.56621 0.11706 0.55125 0.0
C7144 C 0.54356 0.14596 0.5564 0.0
C7145 C 0.55717 0.16997 0.55185 0.0
C7146 C 0.57519 0.16736 0.54701 0.0
C7147 C 0.57924 0.14096 0.54666 0.0
C7148 C 0.55274 0.19791 0.55213 0.0
C7149 C 0.57947 0.22817 0.55286 0.0
C7150 C 0.52243 0.19491 0.55169 0.0
C7151 C 0.49327 0.16415 0.55066 0.0
C7152 C 0.4896 0.14677 0.54516 0.0
C7153 C 0.46054 0.11973 0.54384 0.0
C7154 C 0.4351 0.10982 0.548 0.0
C7155 C 0.4388 0.12666 0.55353 0.0
C7156 C 0.46772 0.15383 0.55485 0.0
C7157 C 0.54671 0.32084 0.54384 0.0
C7158 C 0.52196 0.32212 0.54694 0.0
C7159 C 0.55669 0.29998 0.54591 0.0
C7160 C 0.54182 0.27999 0.55107 0.0
C7161 C 0.51847 0.28289 0.5544 0.0
C7162 C 0.50865 0.30388 0.55235 0.0
C7163 C 0.54637 0.25248 0.55222 0.0
C7164 C 0.51965 0.22216 0.55174 0.0
C7165 C 0.57664 0.25554 0.553 0.0
C7166 C 0.60521 0.28664 0.55431 0.0
C7167 C 0.60469 0.30608 0.55913 0.0
C7168 C 0.63212 0.33446 0.56064 0.0
C7169 C 0.66028 0.3436 0.55739 0.0
C7170 C 0.66102 0.32461 0.55256 0.0
C7171 C 0.63363 0.2962 0.55102 0.0
H7172 H 0.68157 0.36529 0.55865 0.0
H7173 H 0.41254 0.089 0.54695 0.0
H7174 H 0.95902 0.48297 0.56151 0.0
H7175 H 0.91121 0.43083 0.56203 0.0
H7176 H 0.91854 0.41863 0.54214 0.0
H7177 H 0.96456 0.47201 0.54156 0.0
H7178 H 0.86209 0.39882 0.54419 0.0
H7179 H 0.93149 0.36459 0.5557 0.0
H7180 H 0.96725 0.36774 0.56424 0.0
H7181 H 0.90878 0.37998 0.57772 0.0
H7182 H 0.87147 0.37459 0.56931 0.0
H7183 H 0.77338 0.23223 0.5413 0.0
H7184 H 0.82139 0.2827 0.54376 0.0
H7185 H 0.77079 0.30052 0.55831 0.0
H7186 H 0.72241 0.2505 0.55572 0.0
H7187 H 0.84476 0.31696 0.56005 0.0
H7188 H 0.77002 0.33773 0.54874 0.0
H7189 H 0.73005 0.32354 0.5404 0.0
H7190 H 0.79945 0.33645 0.5265 0.0
H7191 H 0.83965 0.35011 0.5348 0.0
C7192 C 0.95031 0.469 0.55726 0.0
C7193 C 0.96517 0.48149 0.55149 0.0
C7194 C 0.92322 0.43889 0.55757 0.0
C7195 C 0.91133 0.42006 0.55215 0.0
C7196 C 0.9269 0.43249 0.5464 0.0
C7197 C 0.95325 0.46302 0.54606 0.0
C7198 C 0.88182 0.38829 0.55232 0.0
C7199 C 0.85875 0.38105 0.54765 0.0
C7200 C 0.87616 0.36496 0.55693 0.0
C7201 C 0.89922 0.36987 0.56189 0.0
C7202 C 0.92648 0.36821 0.56048 0.0
C7203 C 0.94687 0.37018 0.56529 0.0
C7204 C 0.94073 0.37483 0.57149 0.0
C7205 C 0.91369 0.37668 0.57291 0.0
C7206 C 0.89269 0.37373 0.56814 0.0
C7207 C 0.77285 0.24655 0.54514 0.0
C7208 C 0.74446 0.2377 0.54834 0.0
C7209 C 0.80016 0.27527 0.54653 0.0
C7210 C 0.79949 0.29515 0.55122 0.0
C7211 C 0.77172 0.2853 0.55472 0.0
C7212 C 0.74421 0.2569 0.55323 0.0
C7213 C 0.82641 0.32783 0.55184 0.0
C7214 C 0.84852 0.33509 0.55664 0.0
C7215 C 0.83119 0.35124 0.54739 0.0
C7216 C 0.80769 0.3447 0.54237 0.0
C7217 C 0.77667 0.3374 0.5439 0.0
C7218 C 0.75399 0.32944 0.53919 0.0
C7219 C 0.76219 0.32904 0.53292 0.0
C7220 C 0.79313 0.33676 0.53136 0.0
C7221 C 0.81588 0.34463 0.53606 0.0
H7222 H 0.74458 0.32279 0.52928 0.0
H7223 H 0.95676 0.37666 0.5752 0.0
H7224 H 0.14203 0.55373 0.38245 0.0
H7225 H 0.1518 0.60525 0.38634 0.0
H7226 H 0.25246 0.64356 0.38403 0.0
H7227 H 0.24267 0.59206 0.38013 0.0
H7228 H 0.2337 0.67296 0.39428 0.0
H7229 H 0.21841 0.64765 0.37174 0.0
H7230 H 0.18839 0.61315 0.36285 0.0
H7231 H 0.10542 0.61627 0.36857 0.0
H7232 H 0.13506 0.65098 0.37747 0.0
H7233 H 0.28149 0.83427 0.38671 0.0
H7234 H 0.27449 0.78065 0.38725 0.0
H7235 H 0.17476 0.74084 0.38315 0.0
H7236 H 0.18308 0.79405 0.38189 0.0
H7237 H 0.19356 0.71122 0.3769 0.0
H7238 H 0.20789 0.74152 0.39854 0.0
H7239 H 0.23566 0.77603 0.40755 0.0
H7240 H 0.3153 0.76252 0.40446 0.0
H7241 H 0.28821 0.72834 0.39536 0.0
C7242 C 0.16626 0.57273 0.38308 0.0
C7243 C 0.19164 0.56917 0.381 0.0
C7244 C 0.17184 0.60213 0.38529 0.0
C7245 C 0.20284 0.62826 0.3854 0.0
C7246 C 0.22842 0.62368 0.384 0.0
C7247 C 0.22282 0.59432 0.38177 0.0
C7248 C 0.20793 0.66091 0.38557 0.0
C7249 C 0.22503 0.6815 0.39049 0.0
C7250 C 0.19635 0.67189 0.38067 0.0
C7251 C 0.17879 0.65158 0.37527 0.0
C7252 C 0.19373 0.64085 0.3711 0.0
C7253 C 0.17681 0.62129 0.36607 0.0
C7254 C 0.14496 0.61231 0.36518 0.0
C7255 C 0.13005 0.62315 0.36928 0.0
C7256 C 0.14692 0.64285 0.3743 0.0
C7257 C 0.25819 0.81387 0.38593 0.0
C7258 C 0.23227 0.81795 0.38456 0.0
C7259 C 0.25407 0.78329 0.38631 0.0
C7260 C 0.22383 0.75645 0.38544 0.0
C7261 C 0.19823 0.76092 0.38396 0.0
C7262 C 0.20265 0.79134 0.3834 0.0
C7263 C 0.21875 0.72366 0.38571 0.0
C7264 C 0.20194 0.70295 0.38078 0.0
C7265 C 0.23009 0.71263 0.39069 0.0
C7266 C 0.24614 0.73258 0.39624 0.0
C7267 C 0.23139 0.74603 0.39976 0.0
C7268 C 0.24701 0.76554 0.40489 0.0
C7269 C 0.27725 0.77151 0.40657 0.0
C7270 C 0.29189 0.75789 0.40315 0.0
C7271 C 0.27641 0.73844 0.39801 0.0
H7272 H 0.28932 0.78664 0.41054 0.0
H7273 H 0.13187 0.59706 0.36129 0.0
H7274 H 0.47665 0.69343 0.38394 0.0
H7275 H 0.42703 0.64522 0.38635 0.0
H7276 H 0.47478 0.5908 0.3854 0.0
H7277 H 0.52429 0.6388 0.38267 0.0
H7278 H 0.42409 0.56577 0.37818 0.0
H7279 H 0.44472 0.60054 0.39939 0.0
H7280 H 0.45894 0.63825 0.40816 0.0
H7281 H 0.37722 0.64739 0.40438 0.0
H7282 H 0.36276 0.61009 0.39553 0.0
H7283 H 0.28514 0.42315 0.3858 0.0
H7284 H 0.33797 0.46888 0.38643 0.0
H7285 H 0.29813 0.53051 0.38643 0.0
H7286 H 0.24459 0.48426 0.38605 0.0
H7287 H 0.34666 0.54999 0.3949 0.0
H7288 H 0.3294 0.51942 0.37316 0.0
H7289 H 0.31638 0.48358 0.3641 0.0
H7290 H 0.3934 0.46806 0.36875 0.0
H7291 H 0.40658 0.50347 0.37791 0.0
C7292 C 0.47665 0.67123 0.38428 0.0
C7293 C 0.50429 0.66988 0.38301 0.0
C7294 C 0.44834 0.64373 0.38575 0.0
C7295 C 0.4472 0.61439 0.38608 0.0
C7296 C 0.47515 0.61321 0.38516 0.0
C7297 C 0.50348 0.64072 0.38365 0.0
C7298 C 0.41622 0.58473 0.38667 0.0
C7299 C 0.40746 0.56198 0.38192 0.0
C7300 C 0.39417 0.58025 0.39145 0.0
C7301 C 0.40274 0.60263 0.39678 0.0
C7302 C 0.42989 0.61076 0.4004 0.0
C7303 C 0.43798 0.63203 0.40539 0.0
C7304 C 0.41901 0.64523 0.40682 0.0
C7305 C 0.39189 0.63715 0.40327 0.0
C7306 C 0.38371 0.6159 0.39827 0.0
C7307 C 0.28727 0.44613 0.38606 0.0
C7308 C 0.26023 0.44958 0.38597 0.0
C7309 C 0.31773 0.47248 0.38635 0.0
C7310 C 0.32207 0.50317 0.38643 0.0
C7311 C 0.29531 0.50698 0.3864 0.0
C7312 C 0.26469 0.48047 0.38617 0.0
C7313 C 0.35455 0.5312 0.38638 0.0
C7314 C 0.36352 0.55363 0.39122 0.0
C7315 C 0.37691 0.53545 0.38168 0.0
C7316 C 0.36867 0.51371 0.37626 0.0
C7317 C 0.34331 0.50806 0.37229 0.0
C7318 C 0.33596 0.4879 0.36713 0.0
C7319 C 0.35398 0.47346 0.36586 0.0
C7320 C 0.37941 0.47919 0.36975 0.0
C7321 C 0.38683 0.49929 0.37493 0.0
H7322 H 0.34828 0.45791 0.36186 0.0
H7323 H 0.4253 0.66168 0.41069 0.0
H7324 H 0.45419 0.93519 0.38293 0.0
H7325 H 0.4972 0.9261 0.38627 0.0
H7326 H 0.43423 0.82511 0.38483 0.0
H7327 H 0.39123 0.83425 0.38153 0.0
H7328 H 0.48323 0.84277 0.39419 0.0
H7329 H 0.47109 0.86071 0.37204 0.0
H7330 H 0.46587 0.8912 0.36333 0.0
H7331 H 0.55384 0.97305 0.36863 0.0
H7332 H 0.55963 0.94296 0.37736 0.0
H7333 H 0.59531 0.79491 0.38527 0.0
H7334 H 0.54877 0.80203 0.38591 0.0
H7335 H 0.60978 0.90299 0.38347 0.0
H7336 H 0.65495 0.89512 0.38229 0.0
H7337 H 0.56092 0.88507 0.3767 0.0
H7338 H 0.5774 0.86725 0.39808 0.0
H7339 H 0.58441 0.83793 0.40679 0.0
H7340 H 0.49105 0.75899 0.40352 0.0
H7341 H 0.48369 0.78769 0.39473 0.0
C7342 C 0.44915 0.91109 0.38367 0.0
C7343 C 0.41951 0.88539 0.38203 0.0
C7344 C 0.47375 0.90588 0.38553 0.0
C7345 C 0.469 0.87493 0.3857 0.0
C7346 C 0.43838 0.84915 0.38474 0.0
C7347 C 0.41381 0.85436 0.38288 0.0
C7348 C 0.49657 0.86975 0.38561 0.0
C7349 C 0.50021 0.85187 0.39037 0.0
C7350 C 0.51885 0.88184 0.38066 0.0
C7351 C 0.51564 0.89973 0.37536 0.0
C7352 C 0.48924 0.88525 0.37135 0.0
C7353 C 0.48619 0.90243 0.36642 0.0
C7354 C 0.50939 0.93409 0.36545 0.0
C7355 C 0.53585 0.94855 0.36939 0.0
C7356 C 0.53909 0.93143 0.37432 0.0
C7357 C 0.59853 0.81849 0.38481 0.0
C7358 C 0.62896 0.84479 0.38392 0.0
C7359 C 0.57206 0.82264 0.38527 0.0
C7360 C 0.57578 0.85321 0.38489 0.0
C7361 C 0.60618 0.87922 0.38387 0.0
C7362 C 0.63228 0.87492 0.38333 0.0
C7363 C 0.54821 0.85844 0.38534 0.0
C7364 C 0.54431 0.87615 0.38059 0.0
C7365 C 0.52609 0.84649 0.39034 0.0
C7366 C 0.53012 0.82947 0.39571 0.0
C7367 C 0.55843 0.84356 0.3992 0.0
C7368 C 0.56247 0.82706 0.40415 0.0
C7369 C 0.53822 0.79657 0.40569 0.0
C7370 C 0.50983 0.78259 0.40231 0.0
C7371 C 0.5057 0.79897 0.39735 0.0
H7372 H 0.54141 0.7838 0.40952 0.0
H7373 H 0.50692 0.94738 0.36164 0.0
H7374 H 0.16528 0.93812 0.78449 0.0
H7375 H 0.11071 0.9289 0.78384 0.0
H7376 H 0.07914 0.85011 0.79663 0.0
H7377 H 0.13389 0.86081 0.79762 0.0
H7378 H 0.04295 0.8416 0.78396 0.0
H7379 H 0.08205 0.90324 0.8032 0.0
H7380 H 0.12046 0.94987 0.80925 0.0
H7381 H 0.10478 0.01094 0.79705 0.0
H7382 H 0.06659 0.96459 0.79086 0.0
H7383 H 0.89589 0.79651 0.79761 0.0
H7384 H 0.94845 0.81067 0.79378 0.0
H7385 H 0.96374 0.90234 0.78803 0.0
H7386 H 0.91096 0.8882 0.79207 0.0
H7387 H 0.01014 0.90981 0.79518 0.0
H7388 H 0.96285 0.84709 0.77717 0.0
H7389 H 0.92447 0.80072 0.77105 0.0
H7390 H 0.95524 0.74252 0.78036 0.0
H7391 H 0.99347 0.78842 0.78661 0.0
C7392 C 0.14659 0.91904 0.78718 0.0
C7393 C 0.15332 0.89984 0.79105 0.0
C7394 C 0.11559 0.91371 0.78679 0.0
C7395 C 0.091 0.88865 0.79014 0.0
C7396 C 0.09781 0.86939 0.79398 0.0
C7397 C 0.12892 0.8754 0.79453 0.0
C7398 C 0.05817 0.88277 0.78977 0.0
C7399 C 0.03559 0.85638 0.78641 0.0
C7400 C 0.04907 0.90276 0.79279 0.0
C7401 C 0.07192 0.93056 0.79651 0.0
C7402 C 0.0871 0.92665 0.80176 0.0
C7403 C 0.10875 0.953 0.80523 0.0
C7404 C 0.11517 0.98337 0.80352 0.0
C7405 C 0.09985 0.98741 0.79836 0.0
C7406 C 0.07821 0.96111 0.79486 0.0
C7407 C 0.90999 0.81916 0.79529 0.0
C7408 C 0.89943 0.84117 0.79508 0.0
C7409 C 0.94009 0.8273 0.79309 0.0
C7410 C 0.96017 0.85757 0.79057 0.0
C7411 C 0.94868 0.87883 0.78994 0.0
C7412 C 0.91844 0.87066 0.79217 0.0
C7413 C 0.9942 0.86801 0.78945 0.0
C7414 C 0.01727 0.8953 0.79257 0.0
C7415 C 1.00374 0.8489 0.78615 0.0
C7416 C 0.98096 0.82121 0.78238 0.0
C7417 C 0.96131 0.82436 0.77794 0.0
C7418 C 0.93959 0.79816 0.77445 0.0
C7419 C 0.93741 0.76869 0.77532 0.0
C7420 C 0.95697 0.76537 0.77968 0.0
C7421 C 0.97872 0.79149 0.7832 0.0
H7422 H 0.92057 0.74843 0.77261 0.0
H7423 H 0.13194 0.00376 0.80621 0.0
H7424 H 0.27683 0.12444 0.7943 0.0
H7425 H 0.26588 0.16604 0.79087 0.0
H7426 H 0.16543 0.09959 0.7917 0.0
H7427 H 0.17643 0.05792 0.79517 0.0
H7428 H 0.18804 0.15206 0.78177 0.0
H7429 H 0.18945 0.13381 0.80437 0.0
H7430 H 0.21346 0.12553 0.81386 0.0
H7431 H 0.29974 0.21303 0.81037 0.0
H7432 H 0.27607 0.22189 0.80088 0.0
H7433 H 0.13632 0.26346 0.78897 0.0
H7434 H 0.14348 0.21695 0.78831 0.0
H7435 H 0.24127 0.27525 0.79397 0.0
H7436 H 0.23289 0.32026 0.79514 0.0
H7437 H 0.21808 0.22447 0.80006 0.0
H7438 H 0.21584 0.24735 0.77826 0.0
H7439 H 0.19357 0.25668 0.76863 0.0
H7440 H 0.11269 0.1629 0.76993 0.0
H7441 H 0.13425 0.15321 0.77962 0.0
C7442 C 0.25251 0.11837 0.79342 0.0
C7443 C 0.22746 0.08807 0.79491 0.0
C7444 C 0.24625 0.14213 0.79149 0.0
C7445 C 0.21485 0.13588 0.79107 0.0
C7446 C 0.18979 0.10477 0.79195 0.0
C7447 C 0.19607 0.081 0.7939 0.0
C7448 C 0.2085 0.16263 0.791 0.0
C7449 C 0.19431 0.16784 0.78576 0.0
C7450 C 0.21708 0.18336 0.79619 0.0
C7451 C 0.23113 0.17837 0.80192 0.0
C7452 C 0.21356 0.15121 0.80563 0.0
C7453 C 0.22707 0.14646 0.81101 0.0
C7454 C 0.25817 0.16865 0.8127 0.0
C7455 C 0.27569 0.19582 0.80905 0.0
C7456 C 0.2622 0.2008 0.80369 0.0
C7457 C 0.15927 0.2661 0.79004 0.0
C7458 C 0.18458 0.29564 0.79187 0.0
C7459 C 0.16348 0.23969 0.78961 0.0
C7460 C 0.19318 0.24264 0.79094 0.0
C7461 C 0.21823 0.27227 0.79283 0.0
C7462 C 0.21377 0.29829 0.79338 0.0
C7463 C 0.19806 0.21479 0.79075 0.0
C7464 C 0.21183 0.20906 0.796 0.0
C7465 C 0.18937 0.19398 0.78553 0.0
C7466 C 0.17648 0.19968 0.77969 0.0
C7467 C 0.19319 0.22881 0.77651 0.0
C7468 C 0.18071 0.23415 0.77105 0.0
C7469 C 0.15169 0.21042 0.76868 0.0
C7470 C 0.13513 0.18127 0.77177 0.0
C7471 C 0.14747 0.17584 0.77725 0.0
H7472 H 0.14207 0.2146 0.76444 0.0
H7473 H 0.26864 0.16482 0.81684 0.0
H7474 H 0.02355 0.16088 0.79264 0.0
H7475 H 0.98082 0.10956 0.78886 0.0
H7476 H 0.91315 0.14069 0.79202 0.0
H7477 H 0.9558 0.19191 0.79575 0.0
H7478 H 0.90866 0.09081 0.79993 0.0
H7479 H 0.91668 0.11943 0.77821 0.0
H7480 H 0.94297 0.13867 0.76798 0.0
H7481 H 0.96396 0.0629 0.7673 0.0
H7482 H 0.93831 0.04354 0.77759 0.0
H7483 H 0.76563 0.95165 0.79601 0.0
H7484 H 0.80951 0.00558 0.79485 0.0
H7485 H 0.86773 0.96924 0.78747 0.0
H7486 H 0.82212 0.91488 0.78814 0.0
H7487 H 0.87889 0.02134 0.7812 0.0
H7488 H 0.87398 0.99359 0.80281 0.0
H7489 H 0.84897 0.97347 0.81312 0.0
H7490 H 0.82545 0.04738 0.8143 0.0
H7491 H 0.84984 0.06761 0.80394 0.0
C7492 C 0.99982 0.15731 0.79217 0.0
C7493 C 0.99275 0.18016 0.79442 0.0
C7494 C 0.97545 0.12802 0.79004 0.0
C7495 C 0.9439 0.12141 0.79019 0.0
C7496 C 0.93741 0.14551 0.79183 0.0
C7497 C 0.96173 0.17476 0.79392 0.0
C7498 C 0.91772 0.08819 0.79013 0.0
C7499 C 0.90179 0.07575 0.79581 0.0
C7500 C 0.90995 0.0683 0.78483 0.0
C7501 C 0.92595 0.0803 0.77871 0.0
C7502 C 0.9273 0.10713 0.77592 0.0
C7503 C 0.942 0.118 0.7701 0.0
C7504 C 0.95523 0.10209 0.767 0.0
C7505 C 0.95378 0.07526 0.76971 0.0
C7506 C 0.93916 0.06433 0.77554 0.0
C7507 C 0.78737 0.95531 0.79395 0.0
C7508 C 0.79033 0.9295 0.792 0.0
C7509 C 0.81272 0.98604 0.7934 0.0
C7510 C 0.84208 0.99147 0.79114 0.0
C7511 C 0.84526 0.96557 0.78922 0.0
C7512 C 0.81946 0.93465 0.78967 0.0
C7513 C 0.86943 0.0242 0.79098 0.0
C7514 C 0.88577 0.03644 0.78532 0.0
C7515 C 0.87809 0.04398 0.79633 0.0
C7516 C 0.86354 0.03196 0.80258 0.0
C7517 C 0.86328 0.00542 0.80525 0.0
C7518 C 0.84923 0.994 0.8111 0.0
C7519 C 0.83558 0.0091 0.81436 0.0
C7520 C 0.836 0.03569 0.81177 0.0
C7521 C 0.84996 0.04715 0.80591 0.0
H7522 H 0.82472 1.00024 0.81889 0.0
H7523 H 0.96653 0.1105 0.76248 0.0
H7524 H 0.14998 0.91881 0.30029 0.0
H7525 H 0.15551 0.97165 0.29939 0.0
H7526 H 0.21932 0.99322 0.28378 0.0
H7527 H 0.21188 0.94009 0.28427 0.0
H7528 H 0.23294 0.03647 0.29739 0.0
H7529 H 0.17597 0.99394 0.27748 0.0
H7530 H 0.13129 0.95277 0.2714 0.0
H7531 H 0.06539 0.96358 0.28307 0.0
H7532 H 0.10981 0.00435 0.28932 0.0
H7533 H 0.2684 0.18986 0.29112 0.0
H7534 H 0.25578 0.13667 0.28775 0.0
H7535 H 0.16101 0.09828 0.29511 0.0
H7536 H 0.17358 0.15149 0.2984 0.0
H7537 H 0.16261 0.06288 0.28506 0.0
H7538 H 0.2172 0.10543 0.30467 0.0
H7539 H 0.26019 0.14564 0.31125 0.0
H7540 H 0.32887 0.13403 0.3007 0.0
H7541 H 0.28626 0.09391 0.29403 0.0
C7542 C 0.16497 0.93468 0.29663 0.0
C7543 C 0.18123 0.92538 0.29246 0.0
C7544 C 0.16806 0.9648 0.29613 0.0
C7545 C 0.18773 0.98612 0.29151 0.0
C7546 C 0.20388 0.97697 0.28735 0.0
C7547 C 0.20003 0.94667 0.28772 0.0
C7548 C 0.19277 0.01861 0.29119 0.0
C7549 C 0.21787 0.04238 0.29463 0.0
C7550 C 0.17274 0.02602 0.28768 0.0
C7551 C 0.14611 1.00167 0.28394 0.0
C7552 C 0.15194 0.98715 0.27882 0.0
C7553 C 0.12668 0.96399 0.27532 0.0
C7554 C 0.0955 0.95545 0.27687 0.0
C7555 C 0.08955 0.97013 0.2819 0.0
C7556 C 0.11475 0.99324 0.28542 0.0
C7557 C 0.24442 0.17027 0.2917 0.0
C7558 C 0.22186 0.17453 0.29498 0.0
C7559 C 0.23729 0.13989 0.28983 0.0
C7560 C 0.20766 0.11347 0.29131 0.0
C7561 C 0.184 0.1183 0.29394 0.0
C7562 C 0.19113 0.14867 0.2958 0.0
C7563 C 0.20323 0.08105 0.29117 0.0
C7564 C 0.17803 0.05715 0.28774 0.0
C7565 C 0.22312 0.07341 0.29473 0.0
C7566 C 0.24864 0.09697 0.29881 0.0
C7567 C 0.2415 0.11159 0.30374 0.0
C7568 C 0.26577 0.13435 0.30748 0.0
C7569 C 0.29725 0.14251 0.30637 0.0
C7570 C 0.30448 0.12775 0.30154 0.0
C7571 C 0.28029 0.10497 0.29779 0.0
H7572 H 0.31602 0.16019 0.30927 0.0
H7573 H 0.07597 0.93755 0.27415 0.0
H7574 H 0.14596 0.30208 0.28201 0.0
H7575 H 0.09375 0.2547 0.28121 0.0
H7576 H 0.10001 0.23224 0.30057 0.0
H7577 H 0.15286 0.27873 0.30129 0.0
H7578 H 0.07715 0.18122 0.29453 0.0
H7579 H 0.04114 0.26033 0.29521 0.0
H7580 H 0.03319 0.30451 0.29196 0.0
H7581 H 0.02006 0.27216 0.27287 0.0
H7582 H 0.02673 0.22708 0.27608 0.0
H7583 H 0.91661 0.10522 0.3046 0.0
H7584 H 0.97341 0.13696 0.30224 0.0
H7585 H 0.95288 0.12168 0.28245 0.0
H7586 H 0.89601 0.08922 0.28482 0.0
H7587 H 0.98379 0.18529 0.28644 0.0
H7588 H 0.99649 0.09586 0.28775 0.0
H7589 H 0.99114 0.04654 0.29211 0.0
H7590 H 0.04472 0.09722 0.30834 0.0
H7591 H 0.04988 0.14678 0.30414 0.0
C7592 C 0.13615 0.28705 0.2861 0.0
C7593 C 0.15355 0.29409 0.29171 0.0
C7594 C 0.10612 0.26006 0.28565 0.0
C7595 C 0.09258 0.23997 0.29085 0.0
C7596 C 0.10992 0.24719 0.29647 0.0
C7597 C 0.14015 0.27385 0.29689 0.0
C7598 C 0.06074 0.21104 0.29045 0.0
C7599 C 0.0567 0.18224 0.29281 0.0
C7600 C 0.03414 0.21162 0.28794 0.0
C7601 C 0.03506 0.24092 0.28586 0.0
C7602 C 0.03713 0.26305 0.29031 0.0
C7603 C 0.03235 0.2879 0.28849 0.0
C7604 C 0.02614 0.29114 0.28221 0.0
C7605 C 0.02487 0.26963 0.27773 0.0
C7606 C 0.02897 0.24434 0.27955 0.0
C7607 C 0.92442 0.10815 0.29976 0.0
C7608 C 0.90229 0.09532 0.29487 0.0
C7609 C 0.95675 0.1259 0.29842 0.0
C7610 C 0.96723 0.13138 0.29217 0.0
C7611 C 0.94518 0.11735 0.28729 0.0
C7612 C 0.91286 0.09906 0.28864 0.0
C7613 C 1.0001 0.15622 0.29079 0.0
C7614 C 1.00437 0.18415 0.28805 0.0
C7615 C 0.02662 0.15481 0.29305 0.0
C7616 C 0.02338 0.12504 0.29564 0.0
C7617 C 0.00686 0.09646 0.29228 0.0
C7618 C 1.00391 0.06845 0.29472 0.0
C7619 C 0.01754 0.06873 0.3005 0.0
C7620 C 0.03416 0.09704 0.30386 0.0
C7621 C 0.03713 0.12511 0.30145 0.0
H7622 H 0.01526 0.04702 0.30238 0.0
H7623 H 0.02236 0.31037 0.28081 0.0
H7624 H 0.97127 0.81984 0.29404 0.0
H7625 H 0.92626 0.82595 0.29073 0.0
H7626 H 0.98785 0.92744 0.28994 0.0
H7627 H 0.03254 0.9214 0.29328 0.0
H7628 H 0.94035 0.90996 0.29821 0.0
H7629 H 0.9509 0.88541 0.27689 0.0
H7630 H 0.95371 0.85435 0.26804 0.0
H7631 H 0.86083 0.77756 0.27256 0.0
H7632 H 0.85768 0.80791 0.28151 0.0
H7633 H 0.8184 0.94632 0.29223 0.0
H7634 H 0.86714 0.94323 0.29142 0.0
H7635 H 0.8108 0.84144 0.28964 0.0
H7636 H 0.76304 0.84501 0.29025 0.0
H7637 H 0.85717 0.8611 0.28189 0.0
H7638 H 0.84831 0.87955 0.30368 0.0
H7639 H 0.84414 0.90686 0.31306 0.0
H7640 H 0.93208 0.99018 0.30827 0.0
H7641 H 0.93652 0.96347 0.29881 0.0
C7642 C 0.9753 0.84331 0.29295 0.0
C7643 C 1.00515 0.87023 0.29401 0.0
C7644 C 0.94962 0.84679 0.29105 0.0
C7645 C 0.95367 0.8772 0.29014 0.0
C7646 C 0.98416 0.90379 0.29065 0.0
C7647 C 0.00964 0.90034 0.29257 0.0
C7648 C 0.92587 0.88191 0.28978 0.0
C7649 C 0.9225 0.89981 0.29456 0.0
C7650 C 0.90191 0.86753 0.28517 0.0
C7651 C 0.90423 0.84883 0.27992 0.0
C7652 C 0.93126 0.86172 0.27606 0.0
C7653 C 0.93286 0.84428 0.271 0.0
C7654 C 0.9075 0.81397 0.26975 0.0
C7655 C 0.88049 0.80101 0.27354 0.0
C7656 C 0.87879 0.81833 0.27861 0.0
C7657 C 0.81659 0.92337 0.29163 0.0
C7658 C 0.78676 0.89577 0.2912 0.0
C7659 C 0.84439 0.92158 0.29119 0.0
C7660 C 0.84273 0.89203 0.29049 0.0
C7661 C 0.81288 0.86458 0.29009 0.0
C7662 C 0.78534 0.86655 0.29041 0.0
C7663 C 0.87181 0.88928 0.29031 0.0
C7664 C 0.87528 0.87158 0.28548 0.0
C7665 C 0.89568 0.90326 0.29495 0.0
C7666 C 0.89251 0.91969 0.3005 0.0
C7667 C 0.86654 0.90383 0.30459 0.0
C7668 C 0.86418 0.91916 0.30993 0.0
C7669 C 0.88777 0.95027 0.31125 0.0
C7670 C 0.91377 0.96612 0.30723 0.0
C7671 C 0.91622 0.95091 0.30188 0.0
H7672 H 0.88595 0.96206 0.3154 0.0
H7673 H 0.90875 0.80055 0.26582 0.0
H7674 H 0.25593 0.82549 0.87472 0.0
H7675 H 0.31048 0.83575 0.8751 0.0
H7676 H 0.32046 0.8724 0.89391 0.0
H7677 H 0.26606 0.86222 0.89354 0.0
H7678 H 0.37091 0.90989 0.88755 0.0
H7679 H 0.31136 0.79849 0.89064 0.0
H7680 H 0.27428 0.74173 0.889 0.0
H7681 H 0.3205 0.74467 0.87165 0.0
H7682 H 0.35747 0.80183 0.8731 0.0
H7683 H 0.52164 0.92244 0.89116 0.0
H7684 H 0.46474 0.90153 0.89305 0.0
H7685 H 0.44496 0.8716 0.87372 0.0
H7686 H 0.50168 0.89216 0.87187 0.0
H7687 H 0.39969 0.82892 0.88165 0.0
H7688 H 0.45513 0.94256 0.87817 0.0
H7689 H 0.49779 0.9967 0.88071 0.0
H7690 H 0.46073 0.98725 0.89936 0.0
H7691 H 0.41813 0.93278 0.89696 0.0
C7692 C 0.26967 0.83548 0.87896 0.0
C7693 C 0.25674 0.84323 0.88409 0.0
C7694 C 0.30084 0.84127 0.87918 0.0
C7695 C 0.31955 0.85454 0.88456 0.0
C7696 C 0.30658 0.86218 0.8897 0.0
C7697 C 0.27547 0.85644 0.88947 0.0
C7698 C 0.35287 0.86122 0.88478 0.0
C7699 C 0.37702 0.89195 0.88635 0.0
C7700 C 0.36117 0.83808 0.88315 0.0
C7701 C 0.33712 0.80448 0.88197 0.0
C7702 C 0.31326 0.7872 0.88641 0.0
C7703 C 0.29233 0.75487 0.88552 0.0
C7704 C 0.29527 0.73948 0.88025 0.0
C7705 C 0.31844 0.75659 0.87575 0.0
C7706 C 0.33933 0.78897 0.8766 0.0
C7707 C 0.5049 0.91081 0.88738 0.0
C7708 C 0.5156 0.90894 0.88137 0.0
C7709 C 0.47257 0.899 0.88844 0.0
C7710 C 0.45075 0.88551 0.8835 0.0
C7711 C 0.46141 0.88201 0.87759 0.0
C7712 C 0.49368 0.89379 0.87653 0.0
C7713 C 0.41729 0.87745 0.88426 0.0
C7714 C 0.39326 0.8466 0.88288 0.0
C7715 C 0.4091 0.90039 0.88606 0.0
C7716 C 0.43363 0.93361 0.8874 0.0
C7717 C 0.45612 0.95205 0.88282 0.0
C7718 C 0.48031 0.98275 0.88423 0.0
C7719 C 0.482 0.9954 0.89019 0.0
C7720 C 0.45939 0.97741 0.89474 0.0
C7721 C 0.43521 0.94664 0.89336 0.0
H7722 H 0.5008 0.01915 0.89129 0.0
H7723 H 0.27987 0.71426 0.87966 0.0
H7724 H 0.23881 0.68796 0.88725 0.0
H7725 H 0.24437 0.64207 0.88989 0.0
H7726 H 0.15836 0.5813 0.87971 0.0
H7727 H 0.15336 0.62767 0.87693 0.0
H7728 H 0.16881 0.55519 0.89144 0.0
H7729 H 0.22164 0.60715 0.87196 0.0
H7730 H 0.25795 0.65554 0.86608 0.0
H7731 H 0.33462 0.67093 0.87826 0.0
H7732 H 0.29859 0.62286 0.88428 0.0
H7733 H 0.18593 0.42707 0.88099 0.0
H7734 H 0.17761 0.47215 0.88237 0.0
H7735 H 0.27334 0.52807 0.88931 0.0
H7736 H 0.28099 0.48199 0.88816 0.0
H7737 H 0.26068 0.55907 0.88048 0.0
H7738 H 0.21301 0.50639 0.89925 0.0
H7739 H 0.17898 0.46718 0.90716 0.0
H7740 H 0.09598 0.45745 0.89803 0.0
H7741 H 0.12944 0.4961 0.88997 0.0
C7742 C 0.22107 0.66479 0.88563 0.0
C7743 C 0.19623 0.66121 0.88176 0.0
C7744 C 0.22404 0.63862 0.88719 0.0
C7745 C 0.20202 0.60852 0.88491 0.0
C7746 C 0.17559 0.60446 0.88149 0.0
C7747 C 0.17277 0.6308 0.8799 0.0
C7748 C 0.20873 0.58224 0.88541 0.0
C7749 C 0.18854 0.55561 0.88899 0.0
C7750 C 0.23539 0.58381 0.88242 0.0
C7751 C 0.25741 0.6116 0.87859 0.0
C7752 C 0.24624 0.6209 0.87339 0.0
C7753 C 0.26676 0.64827 0.87003 0.0
C7754 C 0.29859 0.66629 0.87179 0.0
C7755 C 0.30999 0.6569 0.87689 0.0
C7756 C 0.28954 0.62959 0.88028 0.0
C7757 C 0.2047 0.44861 0.883 0.0
C7758 C 0.23362 0.45093 0.88465 0.0
C7759 C 0.20009 0.47444 0.88375 0.0
C7760 C 0.22463 0.50327 0.88607 0.0
C7761 C 0.25397 0.50589 0.88758 0.0
C7762 C 0.25841 0.47978 0.88689 0.0
C7763 C 0.22019 0.53116 0.88642 0.0
C7764 C 0.24086 0.55829 0.88297 0.0
C7765 C 0.19416 0.53014 0.88961 0.0
C7766 C 0.17378 0.5041 0.89398 0.0
C7767 C 0.18748 0.49544 0.89884 0.0
C7768 C 0.1683 0.4735 0.90339 0.0
C7769 C 0.13541 0.46027 0.90315 0.0
C7770 C 0.12151 0.46805 0.89825 0.0
C7771 C 0.14056 0.48989 0.89368 0.0
H7772 H 0.12065 0.44378 0.90675 0.0
H7773 H 0.31443 0.68753 0.8692 0.0
H7774 H 0.38762 0.58714 0.88654 0.0
H7775 H 0.43513 0.63645 0.88966 0.0
H7776 H 0.49286 0.61102 0.87845 0.0
H7777 H 0.44534 0.56095 0.87556 0.0
H7778 H 0.52438 0.6426 0.88877 0.0
H7779 H 0.46317 0.65792 0.87259 0.0
H7780 H 0.41304 0.65199 0.86852 0.0
H7781 H 0.40967 0.70734 0.88387 0.0
H7782 H 0.45958 0.71317 0.88807 0.0
H7783 H 0.65005 0.79296 0.87871 0.0
H7784 H 0.604 0.73937 0.87968 0.0
H7785 H 0.55997 0.77487 0.89237 0.0
H7786 H 0.60664 0.82841 0.89152 0.0
H7787 H 0.52021 0.7388 0.88263 0.0
H7788 H 0.58128 0.72705 0.89855 0.0
H7789 H 0.6252 0.7262 0.90412 0.0
H7790 H 0.62678 0.66313 0.89024 0.0
H7791 H 0.58282 0.66364 0.88457 0.0
C7792 C 0.41062 0.59181 0.8849 0.0
C7793 C 0.41303 0.57053 0.88081 0.0
C7794 C 0.43769 0.62002 0.88664 0.0
C7795 C 0.46748 0.62788 0.88415 0.0
C7796 C 0.47012 0.60558 0.88039 0.0
C7797 C 0.44306 0.57702 0.87875 0.0
C7798 C 0.49525 0.66028 0.88499 0.0
C7799 C 0.52361 0.66362 0.88735 0.0
C7800 C 0.49395 0.68784 0.88335 0.0
C7801 C 0.46497 0.68585 0.88065 0.0
C7802 C 0.45174 0.66885 0.87509 0.0
C7803 C 0.42334 0.66544 0.87277 0.0
C7804 C 0.40818 0.67927 0.87594 0.0
C7805 C 0.42146 0.69666 0.88142 0.0
C7806 C 0.44981 0.70006 0.88377 0.0
C7807 C 0.63077 0.78908 0.88179 0.0
C7808 C 0.6318 0.81447 0.88508 0.0
C7809 C 0.60451 0.75854 0.88235 0.0
C7810 C 0.57863 0.75304 0.88614 0.0
C7811 C 0.57971 0.77854 0.88944 0.0
C7812 C 0.60625 0.80902 0.88895 0.0
C7813 C 0.54969 0.72111 0.88628 0.0
C7814 C 0.52105 0.71786 0.88407 0.0
C7815 C 0.55071 0.69367 0.88809 0.0
C7816 C 0.57897 0.69559 0.89112 0.0
C7817 C 0.59132 0.71339 0.89663 0.0
C7818 C 0.61601 0.71273 0.89984 0.0
C7819 C 0.62859 0.69442 0.89756 0.0
C7820 C 0.61685 0.67712 0.89202 0.0
C7821 C 0.59204 0.67757 0.88881 0.0
H7822 H 0.64761 0.6938 0.90006 0.0
H7823 H 0.38617 0.67655 0.87414 0.0
H7824 H 0.90556 0.93014 0.70743 0.0
H7825 H 0.91879 0.98249 0.71132 0.0
H7826 H 0.83369 0.93995 0.72258 0.0
H7827 H 0.8204 0.88732 0.71863 0.0
H7828 H 0.83398 0.9817 0.71476 0.0
H7829 H 0.90719 0.98405 0.72946 0.0
H7830 H 0.95121 0.97847 0.73372 0.0
H7831 H 0.01609 0.0501 0.72102 0.0
H7832 H 0.97236 0.05579 0.71661 0.0
H7833 H 0.87668 0.13956 0.72612 0.0
H7834 H 0.86747 0.08556 0.72608 0.0
H7835 H 0.92181 0.10535 0.70905 0.0
H7836 H 0.92875 0.15882 0.70874 0.0
H7837 H 0.93584 0.07478 0.72125 0.0
H7838 H 0.85879 0.06398 0.70556 0.0
H7839 H 0.8121 0.0625 0.70071 0.0
H7840 H 0.75319 0.00354 0.71571 0.0
H7841 H 0.79969 0.00513 0.7207 0.0
C7842 C 0.89039 0.93192 0.71093 0.0
C7843 C 0.86198 0.90488 0.71273 0.0
C7844 C 0.89799 0.96184 0.71317 0.0
C7845 C 0.87724 0.96528 0.71724 0.0
C7846 C 0.85009 0.93789 0.71945 0.0
C7847 C 0.84258 0.90784 0.71723 0.0
C7848 C 0.88102 0.99726 0.71823 0.0
C7849 C 0.85602 1.00186 0.71635 0.0
C7850 C 0.91005 0.02381 0.72013 0.0
C7851 C 0.93641 0.02016 0.72267 0.0
C7852 C 0.93078 0.99838 0.72753 0.0
C7853 C 0.9557 0.99525 0.72998 0.0
C7854 C 0.98641 0.01387 0.72763 0.0
C7855 C 0.99227 0.03567 0.72283 0.0
C7856 C 0.96743 0.03889 0.72036 0.0
C7857 C 0.8859 0.13233 0.72226 0.0
C7858 C 0.90278 0.15351 0.71735 0.0
C7859 C 0.88095 0.10148 0.72229 0.0
C7860 C 0.89376 0.09144 0.71754 0.0
C7861 C 0.91156 0.11267 0.71274 0.0
C7862 C 0.91566 0.14329 0.71259 0.0
C7863 C 0.88893 0.05889 0.71768 0.0
C7864 C 0.91371 0.05436 0.71978 0.0
C7865 C 0.8596 0.03224 0.71604 0.0
C7866 C 0.83277 0.03506 0.71354 0.0
C7867 C 0.83605 0.05138 0.70791 0.0
C7868 C 0.80955 0.05018 0.70509 0.0
C7869 C 0.77964 0.03252 0.70785 0.0
C7870 C 0.77632 0.0169 0.71354 0.0
C7871 C 0.80274 0.01807 0.71638 0.0
H7872 H 0.75909 0.03132 0.70562 0.0
H7873 H 0.00569 0.01145 0.72954 0.0
H7874 H 0.95096 0.76605 0.72328 0.0
H7875 H 1.00287 0.81222 0.72333 0.0
H7876 H 0.96487 0.86646 0.71469 0.0
H7877 H 0.91304 0.81818 0.71384 0.0
H7878 H 0.01695 0.88345 0.70973 0.0
H7879 H 0.98809 0.87 0.7316 0.0
H7880 H 0.9681 0.83879 0.74135 0.0
H7881 H 0.04604 0.82096 0.74128 0.0
H7882 H 0.06626 0.85169 0.7315 0.0
H7883 H 0.1657 0.02139 0.71346 0.0
H7884 H 0.11054 0.98547 0.71669 0.0
H7885 H 0.13204 0.91041 0.71947 0.0
H7886 H 0.18686 0.94603 0.71616 0.0
H7887 H 0.08701 0.91086 0.72837 0.0
H7888 H 0.10872 0.91395 0.70603 0.0
H7889 H 0.13034 0.94337 0.69615 0.0
H7890 H 0.06595 0.97939 0.69724 0.0
H7891 H 0.04443 0.95065 0.7072 0.0
C7892 C 0.9535 0.78734 0.72128 0.0
C7893 C 0.92786 0.78792 0.71842 0.0
C7894 C 0.98333 0.81431 0.72146 0.0
C7895 C 0.98786 0.84337 0.71922 0.0
C7896 C 0.96206 0.84439 0.71649 0.0
C7897 C 0.93242 0.81681 0.71602 0.0
C7898 C 0.01991 0.87206 0.71941 0.0
C7899 C 0.03177 0.88986 0.71388 0.0
C7900 C 0.03988 0.88022 0.72476 0.0
C7901 C 0.02865 0.86314 0.73082 0.0
C7902 C 1.00099 0.85947 0.73368 0.0
C7903 C 0.98958 0.8418 0.7392 0.0
C7904 C 0.00579 0.82789 0.74193 0.0
C7905 C 0.03354 0.83178 0.73917 0.0
C7906 C 0.04503 0.8494 0.73365 0.0
C7907 C 0.1587 0.99746 0.71493 0.0
C7908 C 0.18004 0.98608 0.71451 0.0
C7909 C 0.12739 0.97709 0.71678 0.0
C7910 C 0.11739 0.94537 0.71828 0.0
C7911 C 0.13945 0.93487 0.71836 0.0
C7912 C 0.17055 0.95504 0.71642 0.0
C7913 C 0.08335 0.92179 0.71874 0.0
C7914 C 0.07145 0.90488 0.72433 0.0
C7915 C 0.06329 0.91433 0.71347 0.0
C7916 C 0.07525 0.9305 0.70737 0.0
C7917 C 0.09931 0.92829 0.70417 0.0
C7918 C 0.11156 0.94484 0.69856 0.0
C7919 C 0.09958 0.96331 0.69608 0.0
C7920 C 0.07524 0.96513 0.69918 0.0
C7921 C 0.06302 0.94873 0.7048 0.0
H7922 H 0.10912 0.97615 0.69174 0.0
H7923 H 0.99684 0.81411 0.74619 0.0
H7924 H 0.26818 0.135 0.71846 0.0
H7925 H 0.2203 0.13949 0.71953 0.0
H7926 H 0.27511 0.23914 0.71498 0.0
H7927 H 0.32258 0.2344 0.71397 0.0
H7928 H 0.23674 0.23086 0.72447 0.0
H7929 H 0.22514 0.18179 0.70416 0.0
H7930 H 0.22179 0.14091 0.69687 0.0
H7931 H 0.14178 0.0692 0.70703 0.0
H7932 H 0.14491 0.10964 0.71443 0.0
H7933 H 0.11268 0.25901 0.71376 0.0
H7934 H 0.15989 0.2549 0.71604 0.0
H7935 H 0.10003 0.15619 0.72084 0.0
H7936 H 0.05304 0.16016 0.7185 0.0
H7937 H 0.14008 0.16232 0.71207 0.0
H7938 H 0.14727 0.21187 0.73166 0.0
H7939 H 0.15021 0.25214 0.73905 0.0
H7940 H 0.23745 0.3223 0.73059 0.0
H7941 H 0.23471 0.28262 0.72306 0.0
C7942 C 0.26973 0.15769 0.71763 0.0
C7943 C 0.29893 0.18449 0.71616 0.0
C7944 C 0.24249 0.16032 0.71826 0.0
C7945 C 0.24403 0.18968 0.71731 0.0
C7946 C 0.2733 0.21633 0.71579 0.0
C7947 C 0.30045 0.21369 0.71522 0.0
C7948 C 0.21518 0.19272 0.71777 0.0
C7949 C 0.21566 0.2161 0.72171 0.0
C7950 C 0.18736 0.17289 0.71433 0.0
C7951 C 0.18548 0.14864 0.70988 0.0
C7952 C 0.20699 0.15726 0.70486 0.0
C7953 C 0.2051 0.13419 0.70071 0.0
C7954 C 0.18164 0.10247 0.7015 0.0
C7955 C 0.15997 0.09376 0.70643 0.0
C7956 C 0.16177 0.11674 0.71061 0.0
C7957 C 0.10967 0.23672 0.71547 0.0
C7958 C 0.07929 0.20974 0.71585 0.0
C7959 C 0.13664 0.23438 0.71678 0.0
C7960 C 0.13352 0.20513 0.71857 0.0
C7961 C 0.10304 0.1789 0.71942 0.0
C7962 C 0.07622 0.18117 0.71807 0.0
C7963 C 0.16152 0.20061 0.71874 0.0
C7964 C 0.16096 0.17698 0.71488 0.0
C7965 C 0.18912 0.2202 0.72228 0.0
C7966 C 0.19058 0.2443 0.72674 0.0
C7967 C 0.16688 0.23597 0.73132 0.0
C7968 C 0.16855 0.25869 0.73555 0.0
C7969 C 0.19395 0.28978 0.73528 0.0
C7970 C 0.21775 0.29822 0.73079 0.0
C7971 C 0.21614 0.27562 0.72653 0.0
H7972 H 0.19524 0.30731 0.73857 0.0
H7973 H 0.18022 0.08464 0.69827 0.0
H7974 H 0.82228 0.25474 0.13373 0.0
H7975 H 0.76966 0.24905 0.13323 0.0
H7976 H 0.75279 0.20063 0.11547 0.0
H7977 H 0.80656 0.20916 0.11567 0.0
H7978 H 0.72579 0.23354 0.11499 0.0
H7979 H 0.72296 0.16006 0.13029 0.0
H7980 H 0.73956 0.1423 0.13967 0.0
H7981 H 0.72292 0.20465 0.15122 0.0
H7982 H 0.70625 0.22286 0.14193 0.0
H7983 H 0.5529 0.14276 0.12363 0.0
H7984 H 0.60684 0.15928 0.1199 0.0
H7985 H 0.6434 0.24509 0.13077 0.0
H7986 H 0.58974 0.2288 0.13445 0.0
H7987 H 0.65845 0.19094 0.13396 0.0
H7988 H 0.65977 0.26249 0.11784 0.0
H7989 H 0.64076 0.27557 0.10819 0.0
H7990 H 0.65652 0.20915 0.0978 0.0
H7991 H 0.67531 0.19545 0.10741 0.0
C7992 C 0.80749 0.2431 0.12969 0.0
C7993 C 0.81828 0.23138 0.12484 0.0
C7994 C 0.77722 0.23959 0.12944 0.0
C7995 C 0.75665 0.22335 0.12442 0.0
C7996 C 0.76791 0.21285 0.11944 0.0
C7997 C 0.79857 0.21727 0.11961 0.0
C7998 C 0.72328 0.21675 0.12447 0.0
C7999 C 0.711 0.22388 0.11912 0.0
C8000 C 0.70368 0.20402 0.12983 0.0
C8001 C 0.71361 0.193 0.13541 0.0
C8002 C 0.72299 0.17009 0.13483 0.0
C8003 C 0.7324 0.15994 0.14013 0.0
C8004 C 0.73245 0.17244 0.14603 0.0
C8005 C 0.72291 0.19502 0.14665 0.0
C8006 C 0.71341 0.20521 0.14138 0.0
C8007 C 0.57231 0.16583 0.12496 0.0
C8008 C 0.56741 0.18465 0.1293 0.0
C8009 C 0.60303 0.17523 0.12283 0.0
C8010 C 0.62899 0.20344 0.12505 0.0
C8011 C 0.6236 0.22344 0.12896 0.0
C8012 C 0.59302 0.21416 0.13105 0.0
C8013 C 0.66148 0.20845 0.12458 0.0
C8014 C 0.67337 0.2006 0.12984 0.0
C8015 C 0.68022 0.21972 0.11911 0.0
C8016 C 0.6685 0.22763 0.11336 0.0
C8017 C 0.65879 0.25038 0.11352 0.0
C8018 C 0.64819 0.25801 0.10805 0.0
C8019 C 0.64733 0.24312 0.10239 0.0
C8020 C 0.65715 0.22063 0.10219 0.0
C8021 C 0.6678 0.21295 0.10764 0.0
H8022 H 0.63915 0.24907 0.09816 0.0
H8023 H 0.7398 0.16458 0.15012 0.0
H8024 H 0.87482 0.42121 0.13899 0.0
H8025 H 0.85416 0.4562 0.13606 0.0
H8026 H 0.89469 0.46739 0.11758 0.0
H8027 H 0.91498 0.43194 0.12051 0.0
H8028 H 0.9164 0.52312 0.12386 0.0
H8029 H 0.81716 0.43599 0.11865 0.0
H8030 H 0.76857 0.38398 0.11973 0.0
H8031 H 0.74141 0.41718 0.13593 0.0
H8032 H 0.79013 0.46927 0.13502 0.0
H8033 H 0.87571 0.64178 0.11768 0.0
H8034 H 0.88206 0.59534 0.11709 0.0
H8035 H 0.82977 0.5601 0.13438 0.0
H8036 H 0.82281 0.60641 0.13493 0.0
H8037 H 0.81079 0.51328 0.12671 0.0
H8038 H 0.91789 0.59119 0.13375 0.0
H8039 H 0.97161 0.63811 0.13376 0.0
H8040 H 0.98446 0.62022 0.11456 0.0
H8041 H 0.93112 0.57258 0.11452 0.0
C8042 C 0.87844 0.43047 0.13425 0.0
C8043 C 0.89646 0.42419 0.12997 0.0
C8044 C 0.8665 0.45024 0.13256 0.0
C8045 C 0.87274 0.46428 0.12659 0.0
C8046 C 0.88941 0.45662 0.1222 0.0
C8047 C 0.901 0.43649 0.12387 0.0
C8048 C 0.86674 0.49083 0.12537 0.0
C8049 C 0.89312 0.52081 0.12431 0.0
C8050 C 0.83656 0.48795 0.12614 0.0
C8051 C 0.80748 0.45649 0.12679 0.0
C8052 C 0.80102 0.43211 0.12249 0.0
C8053 C 0.7734 0.40263 0.12306 0.0
C8054 C 0.75194 0.39725 0.1279 0.0
C8055 C 0.75807 0.42137 0.13218 0.0
C8056 C 0.78568 0.4509 0.13164 0.0
C8057 C 0.86581 0.62437 0.1214 0.0
C8058 C 0.84901 0.6281 0.12639 0.0
C8059 C 0.86956 0.59776 0.12107 0.0
C8060 C 0.85687 0.57429 0.12574 0.0
C8061 C 0.83985 0.57782 0.13071 0.0
C8062 C 0.83593 0.6044 0.13103 0.0
C8063 C 0.86076 0.54581 0.12541 0.0
C8064 C 0.83395 0.51549 0.12616 0.0
C8065 C 0.89061 0.54822 0.12438 0.0
C8066 C 0.9205 0.57883 0.12411 0.0
C8067 C 0.93202 0.59764 0.12951 0.0
C8068 C 0.96252 0.62406 0.12954 0.0
C8069 C 0.98144 0.63215 0.12416 0.0
C8070 C 0.96981 0.61391 0.11872 0.0
C8071 C 0.93952 0.58714 0.1187 0.0
H8072 H 1.00507 0.65264 0.1242 0.0
H8073 H 0.73054 0.37442 0.12833 0.0
H8074 H 0.64242 0.52573 0.12658 0.0
H8075 H 0.59648 0.4759 0.12319 0.0
H8076 H 0.64967 0.42769 0.12582 0.0
H8077 H 0.69604 0.47754 0.1289 0.0
H8078 H 0.60688 0.4007 0.11639 0.0
H8079 H 0.60836 0.43618 0.13784 0.0
H8080 H 0.61139 0.47559 0.14548 0.0
H8081 H 0.52706 0.46926 0.13768 0.0
H8082 H 0.52395 0.43029 0.1299 0.0
H8083 H 0.4879 0.24384 0.12448 0.0
H8084 H 0.53478 0.29684 0.12404 0.0
H8085 H 0.4747 0.33844 0.12528 0.0
H8086 H 0.42927 0.28638 0.12668 0.0
H8087 H 0.52016 0.37104 0.1318 0.0
H8088 H 0.51454 0.33178 0.1109 0.0
H8089 H 0.51193 0.29385 0.10294 0.0
H8090 H 0.60212 0.30789 0.10906 0.0
H8091 H 0.60501 0.3455 0.11714 0.0
C8092 C 0.64469 0.50477 0.12623 0.0
C8093 C 0.6726 0.50537 0.12818 0.0
C8094 C 0.61835 0.47626 0.12432 0.0
C8095 C 0.61942 0.44794 0.12442 0.0
C8096 C 0.6482 0.44917 0.12577 0.0
C8097 C 0.67456 0.47763 0.12761 0.0
C8098 C 0.58995 0.41662 0.1241 0.0
C8099 C 0.5878 0.39409 0.11974 0.0
C8100 C 0.56493 0.40818 0.12843 0.0
C8101 C 0.56608 0.43057 0.13326 0.0
C8102 C 0.59052 0.44326 0.13775 0.0
C8103 C 0.59228 0.46556 0.1421 0.0
C8104 C 0.56946 0.47496 0.14206 0.0
C8105 C 0.54475 0.46199 0.13769 0.0
C8106 C 0.54298 0.43982 0.13331 0.0
C8107 C 0.48473 0.26431 0.12466 0.0
C8108 C 0.45429 0.26058 0.12533 0.0
C8109 C 0.51159 0.29471 0.12433 0.0
C8110 C 0.50845 0.32195 0.1244 0.0
C8111 C 0.47808 0.31808 0.12513 0.0
C8112 C 0.45166 0.28796 0.12576 0.0
C8113 C 0.53655 0.3546 0.12402 0.0
C8114 C 0.53867 0.37746 0.12832 0.0
C8115 C 0.56127 0.36334 0.11958 0.0
C8116 C 0.55986 0.34125 0.11465 0.0
C8117 C 0.53375 0.32666 0.11057 0.0
C8118 C 0.53221 0.30521 0.10603 0.0
C8119 C 0.55682 0.29842 0.1055 0.0
C8120 C 0.58307 0.31315 0.10949 0.0
C8121 C 0.58467 0.33454 0.11404 0.0
H8122 H 0.55557 0.28178 0.10199 0.0
H8123 H 0.57089 0.49226 0.14543 0.0
H8124 H 0.81207 0.24894 0.632 0.0
H8125 H 0.81902 0.30222 0.63146 0.0
H8126 H 0.89247 0.3285 0.61762 0.0
H8127 H 0.88333 0.27446 0.61765 0.0
H8128 H 0.90262 0.36905 0.63042 0.0
H8129 H 0.84178 0.32506 0.61143 0.0
H8130 H 0.79609 0.28394 0.60564 0.0
H8131 H 0.73293 0.30129 0.61684 0.0
H8132 H 0.77842 0.34174 0.62289 0.0
H8133 H 0.9345 0.5237 0.62615 0.0
H8134 H 0.92329 0.47147 0.62238 0.0
H8135 H 0.82837 0.42954 0.62984 0.0
H8136 H 0.83957 0.48172 0.63356 0.0
H8137 H 0.82986 0.39696 0.61945 0.0
H8138 H 0.88473 0.43486 0.63888 0.0
H8139 H 0.92705 0.4741 0.6457 0.0
H8140 H 0.99703 0.46618 0.63481 0.0
H8141 H 0.9551 0.4274 0.62783 0.0
C8142 C 0.82927 0.26575 0.62875 0.0
C8143 C 0.84738 0.25721 0.62493 0.0
C8144 C 0.83337 0.29632 0.62848 0.0
C8145 C 0.85633 0.31928 0.62451 0.0
C8146 C 0.87465 0.31109 0.62072 0.0
C8147 C 0.86966 0.28019 0.62082 0.0
C8148 C 0.86171 0.35207 0.62445 0.0
C8149 C 0.88712 0.37533 0.62792 0.0
C8150 C 0.84079 0.35989 0.62137 0.0
C8151 C 0.81346 0.33601 0.61768 0.0
C8152 C 0.81812 0.31974 0.61273 0.0
C8153 C 0.79221 0.29656 0.60939 0.0
C8154 C 0.7615 0.28981 0.61089 0.0
C8155 C 0.7567 0.30636 0.61571 0.0
C8156 C 0.78255 0.32938 0.61911 0.0
C8157 C 0.91084 0.50354 0.62672 0.0
C8158 C 0.88784 0.50656 0.63013 0.0
C8159 C 0.90449 0.47368 0.62461 0.0
C8160 C 0.87516 0.44647 0.62593 0.0
C8161 C 0.85115 0.45011 0.62877 0.0
C8162 C 0.85753 0.4799 0.63089 0.0
C8163 C 0.87121 0.41422 0.62533 0.0
C8164 C 0.8458 0.3909 0.62183 0.0
C8165 C 0.89173 0.40606 0.6285 0.0
C8166 C 0.91687 0.42857 0.63279 0.0
C8167 C 0.90917 0.44165 0.63792 0.0
C8168 C 0.93307 0.46381 0.64181 0.0
C8169 C 0.96472 0.4727 0.64068 0.0
C8170 C 0.9725 0.45933 0.63567 0.0
C8171 C 0.94869 0.43728 0.63174 0.0
H8172 H 0.98321 0.48988 0.64369 0.0
H8173 H 0.7414 0.27187 0.6083 0.0
H8174 H 0.83479 0.58991 0.62495 0.0
H8175 H 0.78135 0.54314 0.62425 0.0
H8176 H 0.74088 0.60437 0.62432 0.0
H8177 H 0.79346 0.6499 0.6255 0.0
H8178 H 0.70977 0.55899 0.63186 0.0
H8179 H 0.74564 0.56577 0.61079 0.0
H8180 H 0.78209 0.56889 0.60243 0.0
H8181 H 0.76772 0.47757 0.60779 0.0
H8182 H 0.73159 0.47416 0.61626 0.0
H8183 H 0.55375 0.44758 0.62604 0.0
H8184 H 0.60578 0.48939 0.62237 0.0
H8185 H 0.64524 0.42921 0.62631 0.0
H8186 H 0.59318 0.3874 0.62995 0.0
H8187 H 0.67619 0.47323 0.61606 0.0
H8188 H 0.64379 0.47135 0.63785 0.0
H8189 H 0.60735 0.47022 0.64603 0.0
H8190 H 0.61476 0.55558 0.63855 0.0
H8191 H 0.65122 0.55717 0.63032 0.0
C8192 C 0.81436 0.59319 0.6248 0.0
C8193 C 0.81829 0.62379 0.62503 0.0
C8194 C 0.78391 0.56655 0.62434 0.0
C8195 C 0.75703 0.57022 0.62409 0.0
C8196 C 0.76114 0.60081 0.6244 0.0
C8197 C 0.79136 0.62711 0.62493 0.0
C8198 C 0.7244 0.54245 0.62385 0.0
C8199 C 0.70246 0.54059 0.62833 0.0
C8200 C 0.71477 0.51806 0.61932 0.0
C8201 C 0.73617 0.51985 0.61419 0.0
C8202 C 0.75044 0.54645 0.61021 0.0
C8203 C 0.77103 0.54827 0.60546 0.0
C8204 C 0.77728 0.52347 0.60459 0.0
C8205 C 0.76289 0.49677 0.60847 0.0
C8206 C 0.74235 0.49488 0.61325 0.0
C8207 C 0.57317 0.44276 0.62579 0.0
C8208 C 0.56967 0.41442 0.62822 0.0
C8209 C 0.60289 0.46666 0.62374 0.0
C8210 C 0.6294 0.4625 0.62417 0.0
C8211 C 0.62508 0.43284 0.62594 0.0
C8212 C 0.59538 0.40897 0.628 0.0
C8213 C 0.66185 0.49035 0.624 0.0
C8214 C 0.6837 0.49199 0.61952 0.0
C8215 C 0.67146 0.51495 0.62847 0.0
C8216 C 0.64989 0.51418 0.63345 0.0
C8217 C 0.63748 0.48975 0.63794 0.0
C8218 C 0.61686 0.48904 0.64258 0.0
C8219 C 0.60858 0.51268 0.64278 0.0
C8220 C 0.62111 0.53723 0.63838 0.0
C8221 C 0.6418 0.53809 0.63373 0.0
H8222 H 0.59255 0.51204 0.64637 0.0
H8223 H 0.79323 0.52492 0.6009 0.0
H8224 H 0.63843 0.15573 0.62835 0.0
H8225 H 0.59105 0.15914 0.62591 0.0
H8226 H 0.65014 0.25856 0.62157 0.0
H8227 H 0.69737 0.2553 0.6241 0.0
H8228 H 0.60904 0.24988 0.63045 0.0
H8229 H 0.60419 0.20353 0.61042 0.0
H8230 H 0.60191 0.16431 0.60283 0.0
H8231 H 0.51466 0.09264 0.61102 0.0
H8232 H 0.51671 0.13127 0.61875 0.0
H8233 H 0.48291 0.27763 0.62207 0.0
H8234 H 0.53035 0.272 0.62137 0.0
H8235 H 0.47606 0.176 0.62826 0.0
H8236 H 0.42956 0.18255 0.62931 0.0
H8237 H 0.51417 0.18302 0.61744 0.0
H8238 H 0.52174 0.22631 0.63797 0.0
H8239 H 0.52291 0.26419 0.64578 0.0
H8240 H 0.60461 0.33994 0.63675 0.0
H8241 H 0.60363 0.30252 0.62883 0.0
C8242 C 0.64126 0.17805 0.6267 0.0
C8243 C 0.67141 0.20541 0.6265 0.0
C8244 C 0.61421 0.17996 0.62529 0.0
C8245 C 0.61708 0.20916 0.62359 0.0
C8246 C 0.6474 0.23586 0.62291 0.0
C8247 C 0.67432 0.23401 0.62437 0.0
C8248 C 0.58885 0.21312 0.62343 0.0
C8249 C 0.58861 0.23569 0.62749 0.0
C8250 C 0.56169 0.19374 0.61976 0.0
C8251 C 0.56081 0.17026 0.61521 0.0
C8252 C 0.58473 0.17932 0.61066 0.0
C8253 C 0.58343 0.15719 0.60632 0.0
C8254 C 0.55821 0.12598 0.60645 0.0
C8255 C 0.53423 0.11681 0.61093 0.0
C8256 C 0.53545 0.13881 0.61529 0.0
C8257 C 0.48135 0.25545 0.62343 0.0
C8258 C 0.4526 0.23003 0.62555 0.0
C8259 C 0.50823 0.25219 0.62301 0.0
C8260 C 0.50644 0.2234 0.62467 0.0
C8261 C 0.47769 0.19814 0.62684 0.0
C8262 C 0.4511 0.20169 0.62737 0.0
C8263 C 0.53486 0.21998 0.62437 0.0
C8264 C 0.53493 0.1974 0.6203 0.0
C8265 C 0.56189 0.23913 0.62805 0.0
C8266 C 0.56233 0.26174 0.63276 0.0
C8267 C 0.53972 0.25112 0.63761 0.0
C8268 C 0.54041 0.27248 0.64206 0.0
C8269 C 0.56375 0.30448 0.64175 0.0
C8270 C 0.5865 0.31516 0.63698 0.0
C8271 C 0.58589 0.2939 0.63251 0.0
H8272 H 0.56427 0.32098 0.64521 0.0
H8273 H 0.5572 0.10892 0.60307 0.0
H8274 H 0.94493 0.21432 0.22625 0.0
H8275 H 0.99852 0.22233 0.22663 0.0
H8276 H 0.97553 0.15529 0.21159 0.0
H8277 H 0.92231 0.14872 0.21086 0.0
H8278 H 0.01251 0.15535 0.22497 0.0
H8279 H 0.01167 0.20972 0.20563 0.0
H8280 H 1.00177 0.24705 0.19958 0.0
H8281 H 0.06252 0.32265 0.21201 0.0
H8282 H 0.07196 0.28544 0.21826 0.0
H8283 H 0.15561 0.17769 0.21105 0.0
H8284 H 0.10332 0.16547 0.21488 0.0
H8285 H 0.14356 0.26084 0.22202 0.0
H8286 H 0.19593 0.273 0.21814 0.0
H8287 H 0.09798 0.24821 0.21378 0.0
H8288 H 0.1078 0.19729 0.23181 0.0
H8289 H 0.11863 0.16136 0.23812 0.0
H8290 H 0.04297 0.08084 0.22881 0.0
H8291 H 0.03209 0.11633 0.22234 0.0
C8292 C 0.95126 0.20168 0.22294 0.0
C8293 C 0.9295 0.1817 0.21838 0.0
C8294 C 0.98185 0.20598 0.22323 0.0
C8295 C 0.99092 0.18952 0.21912 0.0
C8296 C 0.96889 0.16828 0.21478 0.0
C8297 C 0.93855 0.16467 0.21436 0.0
C8298 C 0.02395 0.19578 0.21915 0.0
C8299 C 0.03127 0.17541 0.22248 0.0
C8300 C 0.0484 0.22259 0.2161 0.0
C8301 C 0.04202 0.24471 0.21247 0.0
C8302 C 0.02241 0.23416 0.20715 0.0
C8303 C 0.01701 0.25532 0.20366 0.0
C8304 C 0.03152 0.28721 0.20541 0.0
C8305 C 0.05131 0.29795 0.21066 0.0
C8306 C 0.05658 0.27681 0.21419 0.0
C8307 C 0.15346 0.1955 0.21371 0.0
C8308 C 0.17965 0.22616 0.21436 0.0
C8309 C 0.12358 0.18857 0.21588 0.0
C8310 C 0.11943 0.21228 0.21872 0.0
C8311 C 0.14619 0.24218 0.21984 0.0
C8312 C 0.17613 0.24906 0.21769 0.0
C8313 C 0.08694 0.20745 0.21952 0.0
C8314 C 0.07955 0.22819 0.21634 0.0
C8315 C 0.06257 0.181 0.22274 0.0
C8316 C 0.06931 0.15953 0.22654 0.0
C8317 C 0.09369 0.17194 0.23105 0.0
C8318 C 0.0998 0.15164 0.23467 0.0
C8319 C 0.08153 0.11883 0.23386 0.0
C8320 C 0.05712 0.10626 0.22942 0.0
C8321 C 0.05097 0.12647 0.22578 0.0
H8322 H 0.08624 0.10315 0.23667 0.0
H8323 H 0.02739 0.30359 0.20269 0.0
H8324 H 0.80881 0.94859 0.20993 0.0
H8325 H 0.81755 0.90673 0.21398 0.0
H8326 H 0.90311 0.97699 0.22316 0.0
H8327 H 0.89446 0.01911 0.21897 0.0
H8328 H 0.91563 0.94199 0.21573 0.0
H8329 H 0.839 0.91821 0.23168 0.0
H8330 H 0.78825 0.90736 0.23637 0.0
H8331 H 0.73831 0.82416 0.22492 0.0
H8332 H 0.78871 0.83473 0.2201 0.0
H8333 H 0.91688 0.79815 0.2286 0.0
H8334 H 0.90739 0.84327 0.22911 0.0
H8335 H 0.8726 0.8246 0.2101 0.0
H8336 H 0.88426 0.78115 0.20942 0.0
H8337 H 0.83888 0.83626 0.2244 0.0
H8338 H 0.91618 0.87386 0.20642 0.0
H8339 H 0.96745 0.88574 0.20185 0.0
H8340 H 0.0164 0.94484 0.21763 0.0
H8341 H 0.96514 0.93229 0.22241 0.0
C8342 C 0.82869 0.95491 0.21305 0.0
C8343 C 0.85082 0.98687 0.2142 0.0
C8344 C 0.83373 0.93099 0.21537 0.0
C8345 C 0.86096 0.93862 0.21891 0.0
C8346 C 0.88189 0.97053 0.22046 0.0
C8347 C 0.87681 0.99454 0.21813 0.0
C8348 C 0.86975 0.91389 0.22008 0.0
C8349 C 0.899 0.91916 0.21776 0.0
C8350 C 0.84804 0.88382 0.22263 0.0
C8351 C 0.81764 0.87738 0.2255 0.0
C8352 C 0.81717 0.89773 0.23012 0.0
C8353 C 0.78846 0.8916 0.23281 0.0
C8354 C 0.76007 0.86511 0.23094 0.0
C8355 C 0.76032 0.84467 0.22637 0.0
C8356 C 0.78896 0.85069 0.22366 0.0
C8357 C 0.90773 0.80417 0.22451 0.0
C8358 C 0.9019 0.78689 0.21893 0.0
C8359 C 0.90223 0.82972 0.22482 0.0
C8360 C 0.89002 0.83758 0.21959 0.0
C8361 C 0.88302 0.81948 0.2141 0.0
C8362 C 0.88963 0.79475 0.21372 0.0
C8363 C 0.88403 0.86441 0.21989 0.0
C8364 C 0.85549 0.85942 0.2225 0.0
C8365 C 0.90625 0.89472 0.2176 0.0
C8366 C 0.93687 0.90141 0.21485 0.0
C8367 C 0.93781 0.8887 0.20899 0.0
C8368 C 0.96685 0.89569 0.20635 0.0
C8369 C 0.99515 0.9159 0.20946 0.0
C8370 C 0.99444 0.92902 0.21525 0.0
C8371 C 0.9654 0.92186 0.21794 0.0
H8372 H 0.01759 0.92161 0.20735 0.0
H8373 H 0.73787 0.8604 0.23303 0.0
H8374 H 0.12536 0.88992 0.21723 0.0
H8375 H 0.16378 0.94365 0.22074 0.0
H8376 H 0.09513 0.97325 0.21726 0.0
H8377 H 0.05671 0.91938 0.21383 0.0
H8378 H 0.15008 0.00432 0.21004 0.0
H8379 H 0.12307 0.97866 0.23183 0.0
H8380 H 0.11415 0.94726 0.24147 0.0
H8381 H 0.21039 0.96657 0.24088 0.0
H8382 H 0.21975 0.99769 0.23119 0.0
H8383 H 0.26315 0.16577 0.21364 0.0
H8384 H 0.21542 0.11394 0.21462 0.0
H8385 H 0.26977 0.07771 0.22386 0.0
H8386 H 0.31612 0.13021 0.22359 0.0
H8387 H 0.21802 0.05019 0.22881 0.0
H8388 H 0.24517 0.0657 0.20697 0.0
H8389 H 0.25731 0.09204 0.19663 0.0
H8390 H 0.16626 0.08612 0.19639 0.0
H8391 H 0.15374 0.06003 0.20675 0.0
C8392 C 0.11804 0.90755 0.21754 0.0
C8393 C 0.08812 0.90068 0.21533 0.0
C8394 C 0.14 0.93825 0.21952 0.0
C8395 C 0.13234 0.96248 0.21925 0.0
C8396 C 0.10147 0.95489 0.21753 0.0
C8397 C 0.07948 0.92414 0.21561 0.0
C8398 C 0.15784 0.99616 0.21963 0.0
C8399 C 0.16455 0.01465 0.21419 0.0
C8400 C 0.17764 0.00899 0.22493 0.0
C8401 C 0.17204 0.99035 0.23076 0.0
C8402 C 0.14225 0.976 0.23373 0.0
C8403 C 0.13714 0.9583 0.23921 0.0
C8404 C 0.16167 0.95489 0.24178 0.0
C8405 C 0.1914 0.96922 0.23889 0.0
C8406 C 0.19664 0.98693 0.2334 0.0
C8407 C 0.2649 0.14677 0.2159 0.0
C8408 C 0.29398 0.15204 0.21834 0.0
C8409 C 0.23756 0.11694 0.21641 0.0
C8410 C 0.23894 0.09125 0.21911 0.0
C8411 C 0.26781 0.0968 0.2217 0.0
C8412 C 0.29473 0.12692 0.22144 0.0
C8413 C 0.21063 0.0586 0.21918 0.0
C8414 C 0.20344 0.04018 0.22467 0.0
C8415 C 0.19103 0.04522 0.21383 0.0
C8416 C 0.19869 0.06128 0.20765 0.0
C8417 C 0.22787 0.07026 0.20472 0.0
C8418 C 0.23479 0.08509 0.19886 0.0
C8419 C 0.21261 0.09084 0.19586 0.0
C8420 C 0.18344 0.08172 0.19872 0.0
C8421 C 0.17641 0.06689 0.20459 0.0
H8422 H 0.21799 0.10229 0.19132 0.0
H8423 H 0.15766 0.94118 0.24603 0.0
loop_
_geom_bond_atom_site_label_1
_geom_bond_atom_site_label_2
_geom_bond_distance
_geom_bond_site_symmetry_2
_ccdc_geom_bond_type
C0 C2 1.422 . S
C0 C4 1.415 . S
C0 N6 1.369 . S
C1 C2 1.421 . S
C1 C3 1.417 . S
C1 C13 1.422 . S
C2 C0 1.422 . S
C2 C1 1.421 . S
C2 N12 1.359 . S
C3 C1 1.417 . S
C3 C5 1.329 . S
C3 H22 0.930 . S
C4 C0 1.415 . S
C4 C5 1.437 . S
C4 C8 1.413 . S
C5 C3 1.329 . S
C5 C4 1.437 . S
C5 H27 0.929 . S
N6 C0 1.369 . S
N6 C7 1.338 . S
N6 Gd11 2.622 . S
C7 N6 1.338 . S
C7 C9 1.378 . S
C7 H19 0.929 . S
C8 C4 1.413 . S
C8 C9 1.348 . S
C8 H24 0.931 . S
C9 C7 1.378 . S
C9 C8 1.348 . S
C9 H25 0.930 . S
Gd10 N30 2.622 . S
Gd10 N37 2.570 . S
Gd10 O44 2.353 1_545 S
Gd10 O45 2.468 1_545 S
Gd10 O46 2.427 1_545 S
Gd10 O48 2.388 . S
Gd10 O49 2.386 . S
Gd10 O53 2.307 . S
Gd10 C63 2.805 1_545 S
Gd11 N6 2.622 . S
Gd11 N12 2.570 . S
Gd11 O43 2.386 . S
Gd11 O47 2.307 . S
Gd11 O50 2.353 . S
Gd11 O51 2.468 . S
Gd11 O52 2.427 . S
Gd11 O54 2.388 . S
Gd11 C75 2.805 . S
N12 C2 1.359 . S
N12 Gd11 2.570 . S
N12 C14 1.343 . S
C13 C1 1.422 . S
C13 C15 1.321 . S
C13 H21 0.931 . S
C14 N12 1.343 . S
C14 C15 1.390 . S
C14 H16 0.931 . S
C15 C13 1.321 . S
C15 C14 1.390 . S
C15 H17 0.930 . S
H16 C14 0.931 . S
H17 C15 0.930 . S
H18 C41 0.931 . S
H19 C7 0.929 . S
H20 C42 0.930 . S
H21 C13 0.931 . S
H22 C3 0.930 . S
H23 C32 0.929 . S
H24 C8 0.931 . S
H25 C9 0.930 . S
H26 C64 0.930 . S
H27 C5 0.929 . S
H28 C33 0.931 . S
H29 C34 0.930 . S
N30 Gd10 2.622 . S
N30 C31 1.369 . S
N30 C32 1.338 . S
C31 N30 1.369 . S
C31 C35 1.415 . S
C31 C38 1.422 . S
C32 H23 0.929 . S
C32 N30 1.338 . S
C32 C34 1.378 . S
C33 H28 0.931 . S
C33 C34 1.348 . S
C33 C35 1.413 . S
C34 H29 0.930 . S
C34 C32 1.378 . S
C34 C33 1.348 . S
C35 C31 1.415 . S
C35 C33 1.413 . S
C35 C65 1.437 . S
H36 C65 0.929 . S
N37 Gd10 2.570 . S
N37 C38 1.359 . S
N37 C41 1.343 . S
C38 C31 1.422 . S
C38 N37 1.359 . S
C38 C40 1.421 . S
C39 C40 1.422 . S
C39 C42 1.321 . S
C39 H66 0.931 . S
C40 C38 1.421 . S
C40 C39 1.422 . S
C40 C64 1.417 . S
C41 H18 0.931 . S
C41 N37 1.343 . S
C41 C42 1.390 . S
C42 H20 0.930 . S
C42 C39 1.321 . S
C42 C41 1.390 . S
O43 Gd11 2.386 . S
O43 C55 1.265 1_545 S
O44 Gd10 2.353 1_565 S
O44 C55 1.242 . S
O45 Gd10 2.468 1_565 S
O45 C63 1.263 . S
O46 Gd10 2.427 1_565 S
O46 C63 1.252 . S
O47 Gd11 2.307 . S
O47 C56 1.261 . S
O48 Gd10 2.388 . S
O48 C56 1.252 . S
O49 Gd10 2.386 . S
O49 C67 1.265 . S
O50 Gd11 2.353 . S
O50 C67 1.242 . S
O51 Gd11 2.468 . S
O51 C75 1.263 . S
O52 Gd11 2.427 . S
O52 C75 1.252 . S
O53 Gd10 2.307 . S
O53 C68 1.261 . S
O54 Gd11 2.388 . S
O54 C68 1.252 . S
C55 O43 1.265 1_565 S
C55 O44 1.242 . S
C56 O47 1.261 . S
C56 O48 1.252 . S
C57 C60 1.394 . S
C57 C62 1.370 . S
C57 C63 1.500 . S
C58 C61 1.383 . S
C58 C62 1.395 . S
C59 C60 1.396 . S
C59 C61 1.365 . S
C59 H76 0.929 . S
C60 C57 1.394 . S
C60 C59 1.396 . S
C60 H77 0.930 . S
C61 C58 1.383 . S
C61 C59 1.365 . S
C61 H78 0.931 . S
C62 C57 1.370 . S
C62 C58 1.395 . S
C62 H79 0.930 . S
C63 Gd10 2.805 1_565 S
C63 O45 1.263 . S
C63 O46 1.252 . S
C63 C57 1.500 . S
C64 H26 0.930 . S
C64 C40 1.417 . S
C64 C65 1.329 . S
C65 C35 1.437 . S
C65 H36 0.929 . S
C65 C64 1.329 . S
H66 C39 0.931 . S
C67 O49 1.265 . S
C67 O50 1.242 . S
C68 O53 1.261 . S
C68 O54 1.252 . S
C69 C72 1.394 . S
C69 C74 1.370 . S
C69 C75 1.500 . S
C70 C73 1.383 . S
C70 C74 1.395 . S
C71 C72 1.396 . S
C71 C73 1.365 . S
C71 H80 0.929 . S
C72 C69 1.394 . S
C72 C71 1.396 . S
C72 H81 0.930 . S
C73 C70 1.383 . S
C73 C71 1.365 . S
C73 H82 0.931 . S
C74 C69 1.370 . S
C74 C70 1.395 . S
C74 H83 0.930 . S
C75 Gd11 2.805 . S
C75 O51 1.263 . S
C75 O52 1.252 . S
C75 C69 1.500 . S
H76 C59 0.929 . S
H77 C60 0.930 . S
H78 C61 0.931 . S
H79 C62 0.930 . S
H80 C71 0.929 . S
H81 C72 0.930 . S
H82 C73 0.931 . S
H83 C74 0.930 . S
C84 C86 1.422 . S
C84 C88 1.415 . S
C84 N90 1.369 . S
C85 C86 1.421 . S
C85 C87 1.417 . S
C85 C97 1.422 . S
C86 C84 1.422 . S
C86 C85 1.421 . S
C86 N96 1.359 . S
C87 C85 1.417 . S
C87 C89 1.329 . S
C87 H106 0.930 . S
C88 C84 1.415 . S
C88 C89 1.437 . S
C88 C92 1.413 . S
C89 C87 1.329 . S
C89 C88 1.437 . S
C89 H111 0.929 . S
N90 C84 1.369 . S
N90 C91 1.338 . S
N90 Gd95 2.619 1_455 S
C91 N90 1.338 . S
C91 C93 1.378 . S
C91 H103 0.929 . S
C92 C88 1.413 . S
C92 C93 1.348 . S
C92 H108 0.931 . S
C93 C91 1.378 . S
C93 C92 1.348 . S
C93 H109 0.930 . S
Gd94 N114 2.622 . S
Gd94 N121 2.570 . S
Gd94 O128 2.353 . S
Gd94 O129 2.468 . S
Gd94 O130 2.427 . S
Gd94 O132 2.388 . S
Gd94 O133 2.386 1_455 S
Gd94 O137 2.307 . S
Gd94 C147 2.805 . S
Gd95 N90 2.619 1_655 S
Gd95 N96 2.567 1_655 S
Gd95 O127 2.381 1_655 S
Gd95 O131 2.306 1_655 S
Gd95 O134 2.357 . S
Gd95 O135 2.470 . S
Gd95 O136 2.430 . S
Gd95 O138 2.388 1_655 S
Gd95 C159 2.808 . S
N96 C86 1.359 . S
N96 Gd95 2.567 1_455 S
N96 C98 1.343 . S
C97 C85 1.422 . S
C97 C99 1.321 . S
C97 H105 0.931 . S
C98 N96 1.343 . S
C98 C99 1.390 . S
C98 H100 0.931 . S
C99 C97 1.321 . S
C99 C98 1.390 . S
C99 H101 0.930 . S
H100 C98 0.931 . S
H101 C99 0.930 . S
H102 C125 0.931 . S
H103 C91 0.929 . S
H104 C126 0.930 . S
H105 C97 0.931 . S
H106 C87 0.930 . S
H107 C116 0.929 . S
H108 C92 0.931 . S
H109 C93 0.930 . S
H110 C148 0.930 . S
H111 C89 0.929 . S
H112 C117 0.931 1_655 S
H113 C118 0.930 . S
N114 Gd94 2.622 . S
N114 C115 1.369 . S
N114 C116 1.338 . S
C115 N114 1.369 . S
C115 C119 1.415 . S
C115 C122 1.422 . S
C116 H107 0.929 . S
C116 N114 1.338 . S
C116 C118 1.378 . S
C117 H112 0.931 1_455 S
C117 C118 1.348 . S
C117 C119 1.413 . S
C118 H113 0.930 . S
C118 C116 1.378 . S
C118 C117 1.348 . S
C119 C115 1.415 . S
C119 C117 1.413 . S
C119 C149 1.437 1_455 S
H120 C149 0.929 . S
N121 Gd94 2.570 . S
N121 C122 1.359 . S
N121 C125 1.343 . S
C122 C115 1.422 . S
C122 N121 1.359 . S
C122 C124 1.421 . S
C123 C124 1.422 . S
C123 C126 1.321 . S
C123 H150 0.938 . S
C124 C122 1.421 . S
C124 C123 1.422 . S
C124 C148 1.417 1_455 S
C125 H102 0.931 . S
C125 N121 1.343 . S
C125 C126 1.390 . S
C126 H104 0.930 . S
C126 C123 1.321 . S
C126 C125 1.390 . S
O127 Gd95 2.381 1_455 S
O127 C139 1.265 . S
O128 Gd94 2.353 . S
O128 C139 1.242 . S
O129 Gd94 2.468 . S
O129 C147 1.263 . S
O130 Gd94 2.427 . S
O130 C147 1.252 . S
O131 Gd95 2.306 1_455 S
O131 C140 1.261 . S
O132 Gd94 2.388 . S
O132 C140 1.252 . S
O133 Gd94 2.386 1_655 S
O133 C151 1.265 . S
O134 Gd95 2.357 . S
O134 C151 1.242 . S
O135 Gd95 2.470 . S
O135 C159 1.263 . S
O136 Gd95 2.430 . S
O136 C159 1.252 . S
O137 Gd94 2.307 . S
O137 C152 1.261 . S
O138 Gd95 2.388 1_455 S
O138 C152 1.252 . S
C139 O127 1.265 . S
C139 O128 1.242 . S
C140 O131 1.261 . S
C140 O132 1.252 . S
C141 C144 1.394 . S
C141 C146 1.370 . S
C141 C147 1.500 . S
C142 C145 1.383 . S
C142 C146 1.395 . S
C143 C144 1.396 . S
C143 C145 1.365 . S
C143 H160 0.929 . S
C144 C141 1.394 . S
C144 C143 1.396 . S
C144 H161 0.930 . S
C145 C142 1.383 . S
C145 C143 1.365 . S
C145 H162 0.931 . S
C146 C141 1.370 . S
C146 C142 1.395 . S
C146 H163 0.930 . S
C147 Gd94 2.805 . S
C147 O129 1.263 . S
C147 O130 1.252 . S
C147 C141 1.500 . S
C148 H110 0.930 . S
C148 C124 1.417 1_655 S
C148 C149 1.329 . S
C149 C119 1.437 1_655 S
C149 H120 0.929 . S
C149 C148 1.329 . S
H150 C123 0.938 . S
C151 O133 1.265 . S
C151 O134 1.242 . S
C152 O137 1.261 . S
C152 O138 1.252 . S
C153 C156 1.394 . S
C153 C158 1.370 . S
C153 C159 1.500 . S
C154 C157 1.383 . S
C154 C158 1.395 . S
C155 C156 1.396 . S
C155 C157 1.365 . S
C155 H164 0.929 . S
C156 C153 1.394 . S
C156 C155 1.396 . S
C156 H165 0.930 . S
C157 C154 1.383 . S
C157 C155 1.365 . S
C157 H166 0.931 . S
C158 C153 1.370 . S
C158 C154 1.395 . S
C158 H167 0.930 . S
C159 Gd95 2.808 . S
C159 O135 1.263 . S
C159 O136 1.252 . S
C159 C153 1.500 . S
H160 C143 0.929 . S
H161 C144 0.930 . S
H162 C145 0.931 . S
H163 C146 0.930 . S
H164 C155 0.929 . S
H165 C156 0.930 . S
H166 C157 0.931 . S
H167 C158 0.930 . S
C168 C170 1.422 . S
C168 C172 1.415 . S
C168 N174 1.369 . S
C169 C170 1.421 . S
C169 C171 1.417 . S
C169 C181 1.422 . S
C170 C168 1.422 . S
C170 C169 1.421 . S
C170 N180 1.359 . S
C171 C169 1.417 . S
C171 C173 1.329 . S
C171 H190 0.930 . S
C172 C168 1.415 . S
C172 C173 1.437 . S
C172 C176 1.413 . S
C173 C171 1.329 . S
C173 C172 1.437 . S
C173 H195 0.929 . S
N174 C168 1.369 . S
N174 C175 1.338 . S
N174 Gd179 2.622 . S
C175 N174 1.338 . S
C175 C177 1.378 . S
C175 H187 0.929 . S
C176 C172 1.413 . S
C176 C177 1.348 . S
C176 H192 0.931 . S
C177 C175 1.378 . S
C177 C176 1.348 . S
C177 H193 0.930 . S
Gd178 N198 2.622 . S
Gd178 N205 2.570 . S
Gd178 O212 2.353 . S
Gd178 O213 2.468 . S
Gd178 O214 2.427 . S
Gd178 O216 2.388 . S
Gd178 O217 2.386 . S
Gd178 O221 2.307 . S
Gd178 C231 2.805 . S
Gd179 N174 2.622 . S
Gd179 N180 2.570 . S
Gd179 O211 2.386 . S
Gd179 O215 2.307 . S
Gd179 O218 2.353 . S
Gd179 O219 2.468 . S
Gd179 O220 2.427 . S
Gd179 O222 2.388 . S
Gd179 C243 2.805 . S
N180 C170 1.359 . S
N180 Gd179 2.570 . S
N180 C182 1.343 . S
C181 C169 1.422 . S
C181 C183 1.321 . S
C181 H189 0.931 . S
C182 N180 1.343 . S
C182 C183 1.390 . S
C182 H184 0.931 . S
C183 C181 1.321 . S
C183 C182 1.390 . S
C183 H185 0.930 . S
H184 C182 0.931 . S
H185 C183 0.930 . S
H186 C209 0.931 . S
H187 C175 0.929 . S
H188 C210 0.930 . S
H189 C181 0.931 . S
H190 C171 0.930 . S
H191 C200 0.929 . S
H192 C176 0.931 . S
H193 C177 0.930 . S
H194 C232 0.930 . S
H195 C173 0.929 . S
H196 C201 0.931 . S
H197 C202 0.930 . S
N198 Gd178 2.622 . S
N198 C199 1.369 . S
N198 C200 1.338 . S
C199 N198 1.369 . S
C199 C203 1.415 . S
C199 C206 1.422 . S
C200 H191 0.929 . S
C200 N198 1.338 . S
C200 C202 1.378 . S
C201 H196 0.931 . S
C201 C202 1.348 . S
C201 C203 1.413 . S
C202 H197 0.930 . S
C202 C200 1.378 . S
C202 C201 1.348 . S
C203 C199 1.415 . S
C203 C201 1.413 . S
C203 C233 1.437 . S
H204 C233 0.929 . S
N205 Gd178 2.570 . S
N205 C206 1.359 . S
N205 C209 1.343 . S
C206 C199 1.422 . S
C206 N205 1.359 . S
C206 C208 1.421 . S
C207 C208 1.422 . S
C207 C210 1.321 . S
C207 H234 0.931 . S
C208 C206 1.421 . S
C208 C207 1.422 . S
C208 C232 1.417 . S
C209 H186 0.931 . S
C209 N205 1.343 . S
C209 C210 1.390 . S
C210 H188 0.930 . S
C210 C207 1.321 . S
C210 C209 1.390 . S
O211 Gd179 2.386 . S
O211 C223 1.265 . S
O212 Gd178 2.353 . S
O212 C223 1.242 . S
O213 Gd178 2.468 . S
O213 C231 1.263 . S
O214 Gd178 2.427 . S
O214 C231 1.252 . S
O215 Gd179 2.307 . S
O215 C224 1.261 . S
O216 Gd178 2.388 . S
O216 C224 1.252 . S
O217 Gd178 2.386 . S
O217 C235 1.265 . S
O218 Gd179 2.353 . S
O218 C235 1.242 . S
O219 Gd179 2.468 . S
O219 C243 1.263 . S
O220 Gd179 2.427 . S
O220 C243 1.252 . S
O221 Gd178 2.307 . S
O221 C236 1.261 . S
O222 Gd179 2.388 . S
O222 C236 1.252 . S
C223 O211 1.265 . S
C223 O212 1.242 . S
C224 O215 1.261 . S
C224 O216 1.252 . S
C225 C228 1.394 . S
C225 C230 1.370 . S
C225 C231 1.500 . S
C226 C229 1.383 . S
C226 C230 1.395 . S
C227 C228 1.396 . S
C227 C229 1.365 . S
C227 H244 0.929 . S
C228 C225 1.394 . S
C228 C227 1.396 . S
C228 H245 0.930 . S
C229 C226 1.383 . S
C229 C227 1.365 . S
C229 H246 0.931 . S
C230 C225 1.370 . S
C230 C226 1.395 . S
C230 H247 0.930 . S
C231 Gd178 2.805 . S
C231 O213 1.263 . S
C231 O214 1.252 . S
C231 C225 1.500 . S
C232 H194 0.930 . S
C232 C208 1.417 . S
C232 C233 1.329 . S
C233 C203 1.437 . S
C233 H204 0.929 . S
C233 C232 1.329 . S
H234 C207 0.931 . S
C235 O217 1.265 . S
C235 O218 1.242 . S
C236 O221 1.261 . S
C236 O222 1.252 . S
C237 C240 1.394 . S
C237 C242 1.370 . S
C237 C243 1.500 . S
C238 C241 1.383 . S
C238 C242 1.395 . S
C239 C240 1.396 . S
C239 C241 1.365 . S
C239 H248 0.929 . S
C240 C237 1.394 . S
C240 C239 1.396 . S
C240 H249 0.930 . S
C241 C238 1.383 . S
C241 C239 1.365 . S
C241 H250 0.931 . S
C242 C237 1.370 . S
C242 C238 1.395 . S
C242 H251 0.930 . S
C243 Gd179 2.805 . S
C243 O219 1.263 . S
C243 O220 1.252 . S
C243 C237 1.500 . S
H244 C227 0.929 . S
H245 C228 0.930 . S
H246 C229 0.931 . S
H247 C230 0.930 . S
H248 C239 0.929 . S
H249 C240 0.930 . S
H250 C241 0.931 . S
H251 C242 0.930 . S
C252 C254 1.422 . S
C252 C256 1.415 . S
C252 N258 1.369 . S
C253 C254 1.421 . S
C253 C255 1.417 . S
C253 C265 1.422 . S
C254 C252 1.422 . S
C254 C253 1.421 . S
C254 N264 1.359 . S
C255 C253 1.417 . S
C255 C257 1.329 . S
C255 H274 0.930 . S
C256 C252 1.415 . S
C256 C257 1.437 . S
C256 C260 1.413 . S
C257 C255 1.329 . S
C257 C256 1.437 . S
C257 H279 0.929 . S
N258 C252 1.369 . S
N258 C259 1.338 . S
N258 Gd263 2.622 . S
C259 N258 1.338 . S
C259 C261 1.378 . S
C259 H271 0.929 . S
C260 C256 1.413 . S
C260 C261 1.348 . S
C260 H276 0.931 . S
C261 C259 1.378 . S
C261 C260 1.348 . S
C261 H277 0.930 . S
Gd262 N282 2.622 . S
Gd262 N289 2.570 . S
Gd262 O296 2.353 1_455 S
Gd262 O297 2.468 1_455 S
Gd262 O298 2.427 1_455 S
Gd262 O300 2.388 . S
Gd262 O301 2.386 . S
Gd262 O305 2.307 . S
Gd262 C315 2.805 1_455 S
Gd263 N258 2.622 . S
Gd263 N264 2.570 . S
Gd263 O295 2.386 . S
Gd263 O299 2.307 . S
Gd263 O302 2.353 . S
Gd263 O303 2.468 . S
Gd263 O304 2.427 . S
Gd263 O306 2.388 . S
Gd263 C327 2.805 . S
N264 C254 1.359 . S
N264 Gd263 2.570 . S
N264 C266 1.343 . S
C265 C253 1.422 . S
C265 C267 1.321 . S
C265 H273 0.931 . S
C266 N264 1.343 . S
C266 C267 1.390 . S
C266 H268 0.931 . S
C267 C265 1.321 . S
C267 C266 1.390 . S
C267 H269 0.930 . S
H268 C266 0.931 . S
H269 C267 0.930 . S
H270 C293 0.931 . S
H271 C259 0.929 . S
H272 C294 0.930 . S
H273 C265 0.931 . S
H274 C255 0.930 . S
H275 C284 0.929 . S
H276 C260 0.931 . S
H277 C261 0.930 . S
H278 C316 0.930 . S
H279 C257 0.929 . S
H280 C285 0.931 . S
H281 C286 0.930 . S
N282 Gd262 2.622 . S
N282 C283 1.369 . S
N282 C284 1.338 . S
C283 N282 1.369 . S
C283 C287 1.415 . S
C283 C290 1.422 . S
C284 H275 0.929 . S
C284 N282 1.338 . S
C284 C286 1.378 . S
C285 H280 0.931 . S
C285 C286 1.348 . S
C285 C287 1.413 . S
C286 H281 0.930 . S
C286 C284 1.378 . S
C286 C285 1.348 . S
C287 C283 1.415 . S
C287 C285 1.413 . S
C287 C317 1.437 . S
H288 C317 0.929 . S
N289 Gd262 2.570 . S
N289 C290 1.359 . S
N289 C293 1.343 . S
C290 C283 1.422 . S
C290 N289 1.359 . S
C290 C292 1.421 . S
C291 C292 1.422 . S
C291 C294 1.321 . S
C291 H318 0.931 . S
C292 C290 1.421 . S
C292 C291 1.422 . S
C292 C316 1.417 . S
C293 H270 0.931 . S
C293 N289 1.343 . S
C293 C294 1.390 . S
C294 H272 0.930 . S
C294 C291 1.321 . S
C294 C293 1.390 . S
O295 Gd263 2.386 . S
O295 C307 1.265 1_455 S
O296 Gd262 2.353 1_655 S
O296 C307 1.242 . S
O297 Gd262 2.468 1_655 S
O297 C315 1.263 . S
O298 Gd262 2.427 1_655 S
O298 C315 1.252 . S
O299 Gd263 2.307 . S
O299 C308 1.261 . S
O300 Gd262 2.388 . S
O300 C308 1.252 . S
O301 Gd262 2.386 . S
O301 C319 1.265 . S
O302 Gd263 2.353 . S
O302 C319 1.242 . S
O303 Gd263 2.468 . S
O303 C327 1.263 . S
O304 Gd263 2.427 . S
O304 C327 1.252 . S
O305 Gd262 2.307 . S
O305 C320 1.261 . S
O306 Gd263 2.388 . S
O306 C320 1.252 . S
C307 O295 1.265 1_655 S
C307 O296 1.242 . S
C308 O299 1.261 . S
C308 O300 1.252 . S
C309 C312 1.394 . S
C309 C314 1.370 . S
C309 C315 1.500 . S
C310 C313 1.383 . S
C310 C314 1.395 . S
C311 C312 1.396 . S
C311 C313 1.365 . S
C311 H328 0.929 . S
C312 C309 1.394 . S
C312 C311 1.396 . S
C312 H329 0.930 . S
C313 C310 1.383 . S
C313 C311 1.365 . S
C313 H330 0.931 . S
C314 C309 1.370 . S
C314 C310 1.395 . S
C314 H331 0.930 . S
C315 Gd262 2.805 1_655 S
C315 O297 1.263 . S
C315 O298 1.252 . S
C315 C309 1.500 . S
C316 H278 0.930 . S
C316 C292 1.417 . S
C316 C317 1.329 . S
C317 C287 1.437 . S
C317 H288 0.929 . S
C317 C316 1.329 . S
H318 C291 0.931 . S
C319 O301 1.265 . S
C319 O302 1.242 . S
C320 O305 1.261 . S
C320 O306 1.252 . S
C321 C324 1.394 . S
C321 C326 1.370 . S
C321 C327 1.500 . S
C322 C325 1.383 . S
C322 C326 1.395 . S
C323 C324 1.396 . S
C323 C325 1.365 . S
C323 H332 0.929 . S
C324 C321 1.394 . S
C324 C323 1.396 . S
C324 H333 0.930 . S
C325 C322 1.383 . S
C325 C323 1.365 . S
C325 H334 0.931 . S
C326 C321 1.370 . S
C326 C322 1.395 . S
C326 H335 0.930 . S
C327 Gd263 2.805 . S
C327 O303 1.263 . S
C327 O304 1.252 . S
C327 C321 1.500 . S
H328 C311 0.929 . S
H329 C312 0.930 . S
H330 C313 0.931 . S
H331 C314 0.930 . S
H332 C323 0.929 . S
H333 C324 0.930 . S
H334 C325 0.931 . S
H335 C326 0.930 . S
C336 C338 1.422 . S
C336 C340 1.415 . S
C336 N342 1.369 . S
C337 C338 1.421 . S
C337 C339 1.417 . S
C337 C349 1.422 . S
C338 C336 1.422 . S
C338 C337 1.421 . S
C338 N348 1.359 . S
C339 C337 1.417 . S
C339 C341 1.329 . S
C339 H358 0.930 . S
C340 C336 1.415 . S
C340 C341 1.437 . S
C340 C344 1.413 . S
C341 C339 1.329 . S
C341 C340 1.437 . S
C341 H363 0.929 . S
N342 C336 1.369 . S
N342 C343 1.338 . S
N342 Gd347 2.622 . S
C343 N342 1.338 . S
C343 C345 1.378 . S
C343 H355 0.929 . S
C344 C340 1.413 . S
C344 C345 1.348 . S
C344 H360 0.931 . S
C345 C343 1.378 . S
C345 C344 1.348 . S
C345 H361 0.930 . S
Gd346 N366 2.622 . S
Gd346 N373 2.570 . S
Gd346 O380 2.353 . S
Gd346 O381 2.468 . S
Gd346 O382 2.427 . S
Gd346 O384 2.388 . S
Gd346 O385 2.386 . S
Gd346 O389 2.307 . S
Gd346 C399 2.805 . S
Gd347 N342 2.622 . S
Gd347 N348 2.570 . S
Gd347 O379 2.386 . S
Gd347 O383 2.307 . S
Gd347 O386 2.353 . S
Gd347 O387 2.468 . S
Gd347 O388 2.427 . S
Gd347 O390 2.388 . S
Gd347 C411 2.805 . S
N348 C338 1.359 . S
N348 Gd347 2.570 . S
N348 C350 1.343 . S
C349 C337 1.422 . S
C349 C351 1.321 . S
C349 H357 0.931 . S
C350 N348 1.343 . S
C350 C351 1.390 . S
C350 H352 0.931 . S
C351 C349 1.321 . S
C351 C350 1.390 . S
C351 H353 0.930 . S
H352 C350 0.931 . S
H353 C351 0.930 . S
H354 C377 0.931 . S
H355 C343 0.929 . S
H356 C378 0.930 . S
H357 C349 0.931 . S
H358 C339 0.930 . S
H359 C368 0.929 . S
H360 C344 0.931 . S
H361 C345 0.930 . S
H362 C400 0.930 . S
H363 C341 0.929 . S
H364 C369 0.931 . S
H365 C370 0.930 . S
N366 Gd346 2.622 . S
N366 C367 1.369 . S
N366 C368 1.338 . S
C367 N366 1.369 . S
C367 C371 1.415 . S
C367 C374 1.422 . S
C368 H359 0.929 . S
C368 N366 1.338 . S
C368 C370 1.378 . S
C369 H364 0.931 . S
C369 C370 1.348 . S
C369 C371 1.413 . S
C370 H365 0.930 . S
C370 C368 1.378 . S
C370 C369 1.348 . S
C371 C367 1.415 . S
C371 C369 1.413 . S
C371 C401 1.437 . S
H372 C401 0.929 . S
N373 Gd346 2.570 . S
N373 C374 1.359 . S
N373 C377 1.343 . S
C374 C367 1.422 . S
C374 N373 1.359 . S
C374 C376 1.421 . S
C375 C376 1.422 . S
C375 C378 1.321 . S
C375 H402 0.931 . S
C376 C374 1.421 . S
C376 C375 1.422 . S
C376 C400 1.417 . S
C377 H354 0.931 . S
C377 N373 1.343 . S
C377 C378 1.390 . S
C378 H356 0.930 . S
C378 C375 1.321 . S
C378 C377 1.390 . S
O379 Gd347 2.386 . S
O379 C391 1.265 . S
O380 Gd346 2.353 . S
O380 C391 1.242 . S
O381 Gd346 2.468 . S
O381 C399 1.263 . S
O382 Gd346 2.427 . S
O382 C399 1.252 . S
O383 Gd347 2.307 . S
O383 C392 1.261 . S
O384 Gd346 2.388 . S
O384 C392 1.252 . S
O385 Gd346 2.386 . S
O385 C403 1.265 . S
O386 Gd347 2.353 . S
O386 C403 1.242 . S
O387 Gd347 2.468 . S
O387 C411 1.263 . S
O388 Gd347 2.427 . S
O388 C411 1.252 . S
O389 Gd346 2.307 . S
O389 C404 1.261 . S
O390 Gd347 2.388 . S
O390 C404 1.252 . S
C391 O379 1.265 . S
C391 O380 1.242 . S
C392 O383 1.261 . S
C392 O384 1.252 . S
C393 C396 1.394 . S
C393 C398 1.370 . S
C393 C399 1.500 . S
C394 C397 1.383 . S
C394 C398 1.395 . S
C395 C396 1.396 . S
C395 C397 1.365 . S
C395 H412 0.929 . S
C396 C393 1.394 . S
C396 C395 1.396 . S
C396 H413 0.930 . S
C397 C394 1.383 . S
C397 C395 1.365 . S
C397 H414 0.931 . S
C398 C393 1.370 . S
C398 C394 1.395 . S
C398 H415 0.930 . S
C399 Gd346 2.805 . S
C399 O381 1.263 . S
C399 O382 1.252 . S
C399 C393 1.500 . S
C400 H362 0.930 . S
C400 C376 1.417 . S
C400 C401 1.329 . S
C401 C371 1.437 . S
C401 H372 0.929 . S
C401 C400 1.329 . S
H402 C375 0.931 . S
C403 O385 1.265 . S
C403 O386 1.242 . S
C404 O389 1.261 . S
C404 O390 1.252 . S
C405 C408 1.394 . S
C405 C410 1.370 . S
C405 C411 1.500 . S
C406 C409 1.383 . S
C406 C410 1.395 . S
C407 C408 1.396 . S
C407 C409 1.365 . S
C407 H416 0.929 . S
C408 C405 1.394 . S
C408 C407 1.396 . S
C408 H417 0.930 . S
C409 C406 1.383 . S
C409 C407 1.365 . S
C409 H418 0.931 . S
C410 C405 1.370 . S
C410 C406 1.395 . S
C410 H419 0.930 . S
C411 Gd347 2.805 . S
C411 O387 1.263 . S
C411 O388 1.252 . S
C411 C405 1.500 . S
H412 C395 0.929 . S
H413 C396 0.930 . S
H414 C397 0.931 . S
H415 C398 0.930 . S
H416 C407 0.929 . S
H417 C408 0.930 . S
H418 C409 0.931 . S
H419 C410 0.930 . S
C420 C422 1.422 . S
C420 C424 1.415 . S
C420 N426 1.369 . S
C421 C422 1.421 . S
C421 C423 1.417 . S
C421 C433 1.422 . S
C422 C420 1.422 . S
C422 C421 1.421 . S
C422 N432 1.359 . S
C423 C421 1.417 . S
C423 C425 1.329 . S
C423 H442 0.930 . S
C424 C420 1.415 . S
C424 C425 1.437 . S
C424 C428 1.413 . S
C425 C423 1.329 . S
C425 C424 1.437 . S
C425 H447 0.929 . S
N426 C420 1.369 . S
N426 C427 1.338 . S
N426 Gd431 2.619 1_545 S
C427 N426 1.338 . S
C427 C429 1.378 . S
C427 H439 0.929 . S
C428 C424 1.413 . S
C428 C429 1.348 . S
C428 H444 0.931 . S
C429 C427 1.378 . S
C429 C428 1.348 . S
C429 H445 0.930 . S
Gd430 N450 2.622 . S
Gd430 N457 2.570 . S
Gd430 O464 2.353 . S
Gd430 O465 2.468 . S
Gd430 O466 2.427 . S
Gd430 O468 2.388 . S
Gd430 O469 2.386 1_545 S
Gd430 O473 2.307 . S
Gd430 C483 2.805 . S
Gd431 N426 2.619 1_565 S
Gd431 N432 2.567 1_565 S
Gd431 O463 2.381 1_565 S
Gd431 O467 2.306 1_565 S
Gd431 O470 2.357 . S
Gd431 O471 2.470 . S
Gd431 O472 2.430 . S
Gd431 O474 2.388 1_565 S
Gd431 C495 2.808 . S
N432 C422 1.359 . S
N432 Gd431 2.567 1_545 S
N432 C434 1.343 . S
C433 C421 1.422 . S
C433 C435 1.321 . S
C433 H441 0.931 . S
C434 N432 1.343 . S
C434 C435 1.390 . S
C434 H436 0.931 . S
C435 C433 1.321 . S
C435 C434 1.390 . S
C435 H437 0.930 . S
H436 C434 0.931 . S
H437 C435 0.930 . S
H438 C461 0.931 . S
H439 C427 0.929 . S
H440 C462 0.930 . S
H441 C433 0.931 . S
H442 C423 0.930 . S
H443 C452 0.929 . S
H444 C428 0.931 . S
H445 C429 0.930 . S
H446 C484 0.930 . S
H447 C425 0.929 . S
H448 C453 0.931 1_565 S
H449 C454 0.930 . S
N450 Gd430 2.622 . S
N450 C451 1.369 . S
N450 C452 1.338 . S
C451 N450 1.369 . S
C451 C455 1.415 . S
C451 C458 1.422 . S
C452 H443 0.929 . S
C452 N450 1.338 . S
C452 C454 1.378 . S
C453 H448 0.931 1_545 S
C453 C454 1.348 . S
C453 C455 1.413 . S
C454 H449 0.930 . S
C454 C452 1.378 . S
C454 C453 1.348 . S
C455 C451 1.415 . S
C455 C453 1.413 . S
C455 C485 1.437 1_545 S
H456 C485 0.929 . S
N457 Gd430 2.570 . S
N457 C458 1.359 . S
N457 C461 1.343 . S
C458 C451 1.422 . S
C458 N457 1.359 . S
C458 C460 1.421 . S
C459 C460 1.422 . S
C459 C462 1.321 . S
C459 H486 0.938 . S
C460 C458 1.421 . S
C460 C459 1.422 . S
C460 C484 1.417 1_545 S
C461 H438 0.931 . S
C461 N457 1.343 . S
C461 C462 1.390 . S
C462 H440 0.930 . S
C462 C459 1.321 . S
C462 C461 1.390 . S
O463 Gd431 2.381 1_545 S
O463 C475 1.265 . S
O464 Gd430 2.353 . S
O464 C475 1.242 . S
O465 Gd430 2.468 . S
O465 C483 1.263 . S
O466 Gd430 2.427 . S
O466 C483 1.252 . S
O467 Gd431 2.306 1_545 S
O467 C476 1.261 . S
O468 Gd430 2.388 . S
O468 C476 1.252 . S
O469 Gd430 2.386 1_565 S
O469 C487 1.265 . S
O470 Gd431 2.357 . S
O470 C487 1.242 . S
O471 Gd431 2.470 . S
O471 C495 1.263 . S
O472 Gd431 2.430 . S
O472 C495 1.252 . S
O473 Gd430 2.307 . S
O473 C488 1.261 . S
O474 Gd431 2.388 1_545 S
O474 C488 1.252 . S
C475 O463 1.265 . S
C475 O464 1.242 . S
C476 O467 1.261 . S
C476 O468 1.252 . S
C477 C480 1.394 . S
C477 C482 1.370 . S
C477 C483 1.500 . S
C478 C481 1.383 . S
C478 C482 1.395 . S
C479 C480 1.396 . S
C479 C481 1.365 . S
C479 H496 0.929 . S
C480 C477 1.394 . S
C480 C479 1.396 . S
C480 H497 0.930 . S
C481 C478 1.383 . S
C481 C479 1.365 . S
C481 H498 0.931 . S
C482 C477 1.370 . S
C482 C478 1.395 . S
C482 H499 0.930 . S
C483 Gd430 2.805 . S
C483 O465 1.263 . S
C483 O466 1.252 . S
C483 C477 1.500 . S
C484 H446 0.930 . S
C484 C460 1.417 1_565 S
C484 C485 1.329 . S
C485 C455 1.437 1_565 S
C485 H456 0.929 . S
C485 C484 1.329 . S
H486 C459 0.938 . S
C487 O469 1.265 . S
C487 O470 1.242 . S
C488 O473 1.261 . S
C488 O474 1.252 . S
C489 C492 1.394 . S
C489 C494 1.370 . S
C489 C495 1.500 . S
C490 C493 1.383 . S
C490 C494 1.395 . S
C491 C492 1.396 . S
C491 C493 1.365 . S
C491 H500 0.929 . S
C492 C489 1.394 . S
C492 C491 1.396 . S
C492 H501 0.930 . S
C493 C490 1.383 . S
C493 C491 1.365 . S
C493 H502 0.931 . S
C494 C489 1.370 . S
C494 C490 1.395 . S
C494 H503 0.930 . S
C495 Gd431 2.808 . S
C495 O471 1.263 . S
C495 O472 1.252 . S
C495 C489 1.500 . S
H496 C479 0.929 . S
H497 C480 0.930 . S
H498 C481 0.931 . S
H499 C482 0.930 . S
H500 C491 0.929 . S
H501 C492 0.930 . S
H502 C493 0.931 . S
H503 C494 0.930 . S
C504 C506 1.422 . S
C504 C508 1.415 . S
C504 N510 1.369 . S
C505 C506 1.421 . S
C505 C507 1.417 1_545 S
C505 C517 1.422 . S
C506 C504 1.422 . S
C506 C505 1.421 . S
C506 N516 1.359 . S
C507 C505 1.417 1_565 S
C507 C509 1.329 . S
C507 H526 0.930 . S
C508 C504 1.415 . S
C508 C509 1.437 1_545 S
C508 C512 1.413 . S
C509 C507 1.329 . S
C509 C508 1.437 1_565 S
C509 H531 0.929 . S
N510 C504 1.369 . S
N510 C511 1.338 . S
N510 Gd515 2.622 . S
C511 N510 1.338 . S
C511 C513 1.378 . S
C511 H523 0.929 . S
C512 C508 1.413 . S
C512 C513 1.348 . S
C512 H528 0.931 1_545 S
C513 C511 1.378 . S
C513 C512 1.348 . S
C513 H529 0.930 . S
Gd514 N534 2.623 1_565 S
Gd514 N541 2.575 1_565 S
Gd514 O548 2.355 . S
Gd514 O549 2.483 . S
Gd514 O550 2.442 . S
Gd514 O552 2.379 1_565 S
Gd514 O553 2.372 1_565 S
Gd514 O557 2.303 1_565 S
Gd514 C567 2.822 . S
Gd515 N510 2.622 . S
Gd515 N516 2.570 . S
Gd515 O547 2.386 1_545 S
Gd515 O551 2.307 . S
Gd515 O554 2.353 . S
Gd515 O555 2.468 . S
Gd515 O556 2.427 . S
Gd515 O558 2.388 . S
Gd515 C579 2.805 . S
N516 C506 1.359 . S
N516 Gd515 2.570 . S
N516 C518 1.343 . S
C517 C505 1.422 . S
C517 C519 1.321 . S
C517 H525 0.931 . S
C518 N516 1.343 . S
C518 C519 1.390 . S
C518 H520 0.931 . S
C519 C517 1.321 . S
C519 C518 1.390 . S
C519 H521 0.930 . S
H520 C518 0.931 . S
H521 C519 0.930 . S
H522 C545 0.931 . S
H523 C511 0.929 . S
H524 C546 0.930 . S
H525 C517 0.931 . S
H526 C507 0.930 . S
H527 C536 0.929 . S
H528 C512 0.931 1_565 S
H529 C513 0.930 . S
H530 C568 0.930 . S
H531 C509 0.929 . S
H532 C537 0.931 . S
H533 C538 0.930 . S
N534 Gd514 2.623 1_545 S
N534 C535 1.369 . S
N534 C536 1.338 . S
C535 N534 1.369 . S
C535 C539 1.415 . S
C535 C542 1.422 . S
C536 H527 0.929 . S
C536 N534 1.338 . S
C536 C538 1.378 . S
C537 H532 0.931 . S
C537 C538 1.348 . S
C537 C539 1.413 . S
C538 H533 0.930 . S
C538 C536 1.378 . S
C538 C537 1.348 . S
C539 C535 1.415 . S
C539 C537 1.413 . S
C539 C569 1.437 . S
H540 C569 0.929 . S
N541 Gd514 2.575 1_545 S
N541 C542 1.359 . S
N541 C545 1.343 . S
C542 C535 1.422 . S
C542 N541 1.359 . S
C542 C544 1.421 . S
C543 C544 1.422 . S
C543 C546 1.321 . S
C543 H570 0.931 . S
C544 C542 1.421 . S
C544 C543 1.422 . S
C544 C568 1.417 . S
C545 H522 0.931 . S
C545 N541 1.343 . S
C545 C546 1.390 . S
C546 H524 0.930 . S
C546 C543 1.321 . S
C546 C545 1.390 . S
O547 Gd515 2.386 1_565 S
O547 C559 1.265 . S
O548 Gd514 2.355 . S
O548 C559 1.242 . S
O549 Gd514 2.483 . S
O549 C567 1.263 . S
O550 Gd514 2.442 . S
O550 C567 1.252 . S
O551 Gd515 2.307 . S
O551 C560 1.261 . S
O552 Gd514 2.379 1_545 S
O552 C560 1.252 . S
O553 Gd514 2.372 1_545 S
O553 C571 1.265 . S
O554 Gd515 2.353 . S
O554 C571 1.242 . S
O555 Gd515 2.468 . S
O555 C579 1.263 . S
O556 Gd515 2.427 . S
O556 C579 1.252 . S
O557 Gd514 2.303 1_545 S
O557 C572 1.261 . S
O558 Gd515 2.388 . S
O558 C572 1.252 . S
C559 O547 1.265 . S
C559 O548 1.242 . S
C560 O551 1.261 . S
C560 O552 1.252 . S
C561 C564 1.394 . S
C561 C566 1.370 . S
C561 C567 1.500 . S
C562 C565 1.383 . S
C562 C566 1.395 . S
C563 C564 1.396 . S
C563 C565 1.365 . S
C563 H580 0.929 . S
C564 C561 1.394 . S
C564 C563 1.396 . S
C564 H581 0.930 . S
C565 C562 1.383 . S
C565 C563 1.365 . S
C565 H582 0.931 . S
C566 C561 1.370 . S
C566 C562 1.395 . S
C566 H583 0.930 . S
C567 Gd514 2.822 . S
C567 O549 1.263 . S
C567 O550 1.252 . S
C567 C561 1.500 . S
C568 H530 0.930 . S
C568 C544 1.417 . S
C568 C569 1.329 . S
C569 C539 1.437 . S
C569 H540 0.929 . S
C569 C568 1.329 . S
H570 C543 0.931 . S
C571 O553 1.265 . S
C571 O554 1.242 . S
C572 O557 1.261 . S
C572 O558 1.252 . S
C573 C576 1.394 . S
C573 C578 1.370 . S
C573 C579 1.500 . S
C574 C577 1.383 . S
C574 C578 1.395 . S
C575 C576 1.396 . S
C575 C577 1.365 . S
C575 H584 0.929 . S
C576 C573 1.394 . S
C576 C575 1.396 . S
C576 H585 0.930 . S
C577 C574 1.383 . S
C577 C575 1.365 . S
C577 H586 0.931 . S
C578 C573 1.370 . S
C578 C574 1.395 . S
C578 H587 0.930 . S
C579 Gd515 2.805 . S
C579 O555 1.263 . S
C579 O556 1.252 . S
C579 C573 1.500 . S
H580 C563 0.929 . S
H581 C564 0.930 . S
H582 C565 0.931 . S
H583 C566 0.930 . S
H584 C575 0.929 . S
H585 C576 0.930 . S
H586 C577 0.931 . S
H587 C578 0.930 . S
C588 C590 1.422 . S
C588 C592 1.415 . S
C588 N594 1.369 . S
C589 C590 1.421 . S
C589 C591 1.417 . S
C589 C601 1.422 . S
C590 C588 1.422 . S
C590 C589 1.421 . S
C590 N600 1.359 . S
C591 C589 1.417 . S
C591 C593 1.329 . S
C591 H610 0.930 . S
C592 C588 1.415 . S
C592 C593 1.437 . S
C592 C596 1.413 . S
C593 C591 1.329 . S
C593 C592 1.437 . S
C593 H615 0.929 . S
N594 C588 1.369 . S
N594 C595 1.338 . S
N594 Gd599 2.622 . S
C595 N594 1.338 . S
C595 C597 1.378 . S
C595 H607 0.929 . S
C596 C592 1.413 . S
C596 C597 1.348 . S
C596 H612 0.931 . S
C597 C595 1.378 . S
C597 C596 1.348 . S
C597 H613 0.930 . S
Gd598 N618 2.622 . S
Gd598 N625 2.570 . S
Gd598 O632 2.353 . S
Gd598 O633 2.468 . S
Gd598 O634 2.427 . S
Gd598 O636 2.388 . S
Gd598 O637 2.386 . S
Gd598 O641 2.307 . S
Gd598 C651 2.805 . S
Gd599 N594 2.622 . S
Gd599 N600 2.570 . S
Gd599 O631 2.386 . S
Gd599 O635 2.307 . S
Gd599 O638 2.353 1_455 S
Gd599 O639 2.468 1_455 S
Gd599 O640 2.427 1_455 S
Gd599 O642 2.388 . S
Gd599 C663 2.805 1_455 S
N600 C590 1.359 . S
N600 Gd599 2.570 . S
N600 C602 1.343 . S
C601 C589 1.422 . S
C601 C603 1.321 . S
C601 H609 0.931 . S
C602 N600 1.343 . S
C602 C603 1.390 . S
C602 H604 0.931 . S
C603 C601 1.321 . S
C603 C602 1.390 . S
C603 H605 0.930 . S
H604 C602 0.931 . S
H605 C603 0.930 . S
H606 C629 0.931 . S
H607 C595 0.929 . S
H608 C630 0.930 . S
H609 C601 0.931 . S
H610 C591 0.930 . S
H611 C620 0.929 . S
H612 C596 0.931 . S
H613 C597 0.930 . S
H614 C652 0.930 . S
H615 C593 0.929 . S
H616 C621 0.931 . S
H617 C622 0.930 . S
N618 Gd598 2.622 . S
N618 C619 1.369 . S
N618 C620 1.338 . S
C619 N618 1.369 . S
C619 C623 1.415 . S
C619 C626 1.422 . S
C620 H611 0.929 . S
C620 N618 1.338 . S
C620 C622 1.378 . S
C621 H616 0.931 . S
C621 C622 1.348 . S
C621 C623 1.413 . S
C622 H617 0.930 . S
C622 C620 1.378 . S
C622 C621 1.348 . S
C623 C619 1.415 . S
C623 C621 1.413 . S
C623 C653 1.437 . S
H624 C653 0.929 . S
N625 Gd598 2.570 . S
N625 C626 1.359 . S
N625 C629 1.343 . S
C626 C619 1.422 . S
C626 N625 1.359 . S
C626 C628 1.421 . S
C627 C628 1.422 . S
C627 C630 1.321 . S
C627 H654 0.931 . S
C628 C626 1.421 . S
C628 C627 1.422 . S
C628 C652 1.417 . S
C629 H606 0.931 . S
C629 N625 1.343 . S
C629 C630 1.390 . S
C630 H608 0.930 . S
C630 C627 1.321 . S
C630 C629 1.390 . S
O631 Gd599 2.386 . S
O631 C643 1.265 . S
O632 Gd598 2.353 . S
O632 C643 1.242 . S
O633 Gd598 2.468 . S
O633 C651 1.263 . S
O634 Gd598 2.427 . S
O634 C651 1.252 . S
O635 Gd599 2.307 . S
O635 C644 1.261 . S
O636 Gd598 2.388 . S
O636 C644 1.252 . S
O637 Gd598 2.386 . S
O637 C655 1.265 1_455 S
O638 Gd599 2.353 1_655 S
O638 C655 1.242 . S
O639 Gd599 2.468 1_655 S
O639 C663 1.263 . S
O640 Gd599 2.427 1_655 S
O640 C663 1.252 . S
O641 Gd598 2.307 . S
O641 C656 1.261 . S
O642 Gd599 2.388 . S
O642 C656 1.252 . S
C643 O631 1.265 . S
C643 O632 1.242 . S
C644 O635 1.261 . S
C644 O636 1.252 . S
C645 C648 1.394 . S
C645 C650 1.370 . S
C645 C651 1.500 . S
C646 C649 1.383 . S
C646 C650 1.395 . S
C647 C648 1.396 . S
C647 C649 1.365 . S
C647 H664 0.929 . S
C648 C645 1.394 . S
C648 C647 1.396 . S
C648 H665 0.930 . S
C649 C646 1.383 . S
C649 C647 1.365 . S
C649 H666 0.931 . S
C650 C645 1.370 . S
C650 C646 1.395 . S
C650 H667 0.930 . S
C651 Gd598 2.805 . S
C651 O633 1.263 . S
C651 O634 1.252 . S
C651 C645 1.500 . S
C652 H614 0.930 . S
C652 C628 1.417 . S
C652 C653 1.329 . S
C653 C623 1.437 . S
C653 H624 0.929 . S
C653 C652 1.329 . S
H654 C627 0.931 . S
C655 O637 1.265 1_655 S
C655 O638 1.242 . S
C656 O641 1.261 . S
C656 O642 1.252 . S
C657 C660 1.394 . S
C657 C662 1.370 . S
C657 C663 1.500 . S
C658 C661 1.383 . S
C658 C662 1.395 . S
C659 C660 1.396 . S
C659 C661 1.365 . S
C659 H668 0.929 . S
C660 C657 1.394 . S
C660 C659 1.396 . S
C660 H669 0.930 . S
C661 C658 1.383 . S
C661 C659 1.365 . S
C661 H670 0.931 . S
C662 C657 1.370 . S
C662 C658 1.395 . S
C662 H671 0.930 . S
C663 Gd599 2.805 1_655 S
C663 O639 1.263 . S
C663 O640 1.252 . S
C663 C657 1.500 . S
H664 C647 0.929 . S
H665 C648 0.930 . S
H666 C649 0.931 . S
H667 C650 0.930 . S
H668 C659 0.929 . S
H669 C660 0.930 . S
H670 C661 0.931 . S
H671 C662 0.930 . S
C672 C674 1.422 . S
C672 C676 1.415 . S
C672 N678 1.369 . S
C673 C674 1.421 . S
C673 C675 1.417 . S
C673 C685 1.422 . S
C674 C672 1.422 . S
C674 C673 1.421 . S
C674 N684 1.359 . S
C675 C673 1.417 . S
C675 C677 1.329 . S
C675 H694 0.930 . S
C676 C672 1.415 . S
C676 C677 1.437 . S
C676 C680 1.413 . S
C677 C675 1.329 . S
C677 C676 1.437 . S
C677 H699 0.929 . S
N678 C672 1.369 . S
N678 C679 1.338 . S
N678 Gd683 2.622 . S
C679 N678 1.338 . S
C679 C681 1.378 . S
C679 H691 0.929 . S
C680 C676 1.413 . S
C680 C681 1.348 . S
C680 H696 0.931 . S
C681 C679 1.378 . S
C681 C680 1.348 . S
C681 H697 0.930 . S
Gd682 N702 2.622 . S
Gd682 N709 2.570 . S
Gd682 O716 2.353 . S
Gd682 O717 2.468 . S
Gd682 O718 2.427 . S
Gd682 O720 2.388 . S
Gd682 O721 2.386 . S
Gd682 O725 2.307 . S
Gd682 C735 2.805 . S
Gd683 N678 2.622 . S
Gd683 N684 2.570 . S
Gd683 O715 2.386 . S
Gd683 O719 2.307 . S
Gd683 O722 2.353 . S
Gd683 O723 2.468 . S
Gd683 O724 2.427 . S
Gd683 O726 2.388 . S
Gd683 C747 2.805 . S
N684 C674 1.359 . S
N684 Gd683 2.570 . S
N684 C686 1.343 . S
C685 C673 1.422 . S
C685 C687 1.321 . S
C685 H693 0.931 . S
C686 N684 1.343 . S
C686 C687 1.390 . S
C686 H688 0.931 . S
C687 C685 1.321 . S
C687 C686 1.390 . S
C687 H689 0.930 . S
H688 C686 0.931 . S
H689 C687 0.930 . S
H690 C713 0.931 . S
H691 C679 0.929 . S
H692 C714 0.930 . S
H693 C685 0.931 . S
H694 C675 0.930 . S
H695 C704 0.929 . S
H696 C680 0.931 . S
H697 C681 0.930 . S
H698 C736 0.930 . S
H699 C677 0.929 . S
H700 C705 0.931 . S
H701 C706 0.930 . S
N702 Gd682 2.622 . S
N702 C703 1.369 . S
N702 C704 1.338 . S
C703 N702 1.369 . S
C703 C707 1.415 . S
C703 C710 1.422 . S
C704 H695 0.929 . S
C704 N702 1.338 . S
C704 C706 1.378 . S
C705 H700 0.931 . S
C705 C706 1.348 . S
C705 C707 1.413 . S
C706 H701 0.930 . S
C706 C704 1.378 . S
C706 C705 1.348 . S
C707 C703 1.415 . S
C707 C705 1.413 . S
C707 C737 1.437 . S
H708 C737 0.929 . S
N709 Gd682 2.570 . S
N709 C710 1.359 . S
N709 C713 1.343 . S
C710 C703 1.422 . S
C710 N709 1.359 . S
C710 C712 1.421 . S
C711 C712 1.422 . S
C711 C714 1.321 . S
C711 H738 0.931 . S
C712 C710 1.421 . S
C712 C711 1.422 . S
C712 C736 1.417 . S
C713 H690 0.931 . S
C713 N709 1.343 . S
C713 C714 1.390 . S
C714 H692 0.930 . S
C714 C711 1.321 . S
C714 C713 1.390 . S
O715 Gd683 2.386 . S
O715 C727 1.265 . S
O716 Gd682 2.353 . S
O716 C727 1.242 . S
O717 Gd682 2.468 . S
O717 C735 1.263 . S
O718 Gd682 2.427 . S
O718 C735 1.252 . S
O719 Gd683 2.307 . S
O719 C728 1.261 . S
O720 Gd682 2.388 . S
O720 C728 1.252 . S
O721 Gd682 2.386 . S
O721 C739 1.265 . S
O722 Gd683 2.353 . S
O722 C739 1.242 . S
O723 Gd683 2.468 . S
O723 C747 1.263 . S
O724 Gd683 2.427 . S
O724 C747 1.252 . S
O725 Gd682 2.307 . S
O725 C740 1.261 . S
O726 Gd683 2.388 . S
O726 C740 1.252 . S
C727 O715 1.265 . S
C727 O716 1.242 . S
C728 O719 1.261 . S
C728 O720 1.252 . S
C729 C732 1.394 . S
C729 C734 1.370 . S
C729 C735 1.500 . S
C730 C733 1.383 . S
C730 C734 1.395 . S
C731 C732 1.396 . S
C731 C733 1.365 . S
C731 H748 0.929 . S
C732 C729 1.394 . S
C732 C731 1.396 . S
C732 H749 0.930 . S
C733 C730 1.383 . S
C733 C731 1.365 . S
C733 H750 0.931 . S
C734 C729 1.370 . S
C734 C730 1.395 . S
C734 H751 0.930 . S
C735 Gd682 2.805 . S
C735 O717 1.263 . S
C735 O718 1.252 . S
C735 C729 1.500 . S
C736 H698 0.930 . S
C736 C712 1.417 . S
C736 C737 1.329 . S
C737 C707 1.437 . S
C737 H708 0.929 . S
C737 C736 1.329 . S
H738 C711 0.931 . S
C739 O721 1.265 . S
C739 O722 1.242 . S
C740 O725 1.261 . S
C740 O726 1.252 . S
C741 C744 1.394 . S
C741 C746 1.370 . S
C741 C747 1.500 . S
C742 C745 1.383 . S
C742 C746 1.395 . S
C743 C744 1.396 . S
C743 C745 1.365 . S
C743 H752 0.929 . S
C744 C741 1.394 . S
C744 C743 1.396 . S
C744 H753 0.930 . S
C745 C742 1.383 . S
C745 C743 1.365 . S
C745 H754 0.931 . S
C746 C741 1.370 . S
C746 C742 1.395 . S
C746 H755 0.930 . S
C747 Gd683 2.805 . S
C747 O723 1.263 . S
C747 O724 1.252 . S
C747 C741 1.500 . S
H748 C731 0.929 . S
H749 C732 0.930 . S
H750 C733 0.931 . S
H751 C734 0.930 . S
H752 C743 0.929 . S
H753 C744 0.930 . S
H754 C745 0.931 . S
H755 C746 0.930 . S
C756 C758 1.422 . S
C756 C760 1.415 . S
C756 N762 1.369 . S
C757 C758 1.421 . S
C757 C759 1.417 1_455 S
C757 C769 1.422 . S
C758 C756 1.422 . S
C758 C757 1.421 . S
C758 N768 1.359 . S
C759 C757 1.417 1_655 S
C759 C761 1.329 . S
C759 H778 0.930 . S
C760 C756 1.415 . S
C760 C761 1.437 1_455 S
C760 C764 1.413 . S
C761 C759 1.329 . S
C761 C760 1.437 1_655 S
C761 H783 0.929 . S
N762 C756 1.369 . S
N762 C763 1.338 . S
N762 Gd767 2.622 . S
C763 N762 1.338 . S
C763 C765 1.378 . S
C763 H775 0.929 . S
C764 C760 1.413 . S
C764 C765 1.348 . S
C764 H780 0.931 1_455 S
C765 C763 1.378 . S
C765 C764 1.348 . S
C765 H781 0.930 . S
Gd766 N786 2.623 1_655 S
Gd766 N793 2.575 1_655 S
Gd766 O800 2.355 . S
Gd766 O801 2.483 . S
Gd766 O802 2.442 . S
Gd766 O804 2.379 1_655 S
Gd766 O805 2.372 1_655 S
Gd766 O809 2.303 1_655 S
Gd766 C819 2.822 . S
Gd767 N762 2.622 . S
Gd767 N768 2.570 . S
Gd767 O799 2.386 1_455 S
Gd767 O803 2.307 . S
Gd767 O806 2.353 . S
Gd767 O807 2.468 . S
Gd767 O808 2.427 . S
Gd767 O810 2.388 . S
Gd767 C831 2.805 . S
N768 C758 1.359 . S
N768 Gd767 2.570 . S
N768 C770 1.343 . S
C769 C757 1.422 . S
C769 C771 1.321 . S
C769 H777 0.931 . S
C770 N768 1.343 . S
C770 C771 1.390 . S
C770 H772 0.931 . S
C771 C769 1.321 . S
C771 C770 1.390 . S
C771 H773 0.930 . S
H772 C770 0.931 . S
H773 C771 0.930 . S
H774 C797 0.931 . S
H775 C763 0.929 . S
H776 C798 0.930 . S
H777 C769 0.931 . S
H778 C759 0.930 . S
H779 C788 0.929 . S
H780 C764 0.931 1_655 S
H781 C765 0.930 . S
H782 C820 0.930 . S
H783 C761 0.929 . S
H784 C789 0.931 . S
H785 C790 0.930 . S
N786 Gd766 2.623 1_455 S
N786 C787 1.369 . S
N786 C788 1.338 . S
C787 N786 1.369 . S
C787 C791 1.415 . S
C787 C794 1.422 . S
C788 H779 0.929 . S
C788 N786 1.338 . S
C788 C790 1.378 . S
C789 H784 0.931 . S
C789 C790 1.348 . S
C789 C791 1.413 . S
C790 H785 0.930 . S
C790 C788 1.378 . S
C790 C789 1.348 . S
C791 C787 1.415 . S
C791 C789 1.413 . S
C791 C821 1.437 . S
H792 C821 0.929 . S
N793 Gd766 2.575 1_455 S
N793 C794 1.359 . S
N793 C797 1.343 . S
C794 C787 1.422 . S
C794 N793 1.359 . S
C794 C796 1.421 . S
C795 C796 1.422 . S
C795 C798 1.321 . S
C795 H822 0.931 . S
C796 C794 1.421 . S
C796 C795 1.422 . S
C796 C820 1.417 . S
C797 H774 0.931 . S
C797 N793 1.343 . S
C797 C798 1.390 . S
C798 H776 0.930 . S
C798 C795 1.321 . S
C798 C797 1.390 . S
O799 Gd767 2.386 1_655 S
O799 C811 1.265 . S
O800 Gd766 2.355 . S
O800 C811 1.242 . S
O801 Gd766 2.483 . S
O801 C819 1.263 . S
O802 Gd766 2.442 . S
O802 C819 1.252 . S
O803 Gd767 2.307 . S
O803 C812 1.261 . S
O804 Gd766 2.379 1_455 S
O804 C812 1.252 . S
O805 Gd766 2.372 1_455 S
O805 C823 1.265 . S
O806 Gd767 2.353 . S
O806 C823 1.242 . S
O807 Gd767 2.468 . S
O807 C831 1.263 . S
O808 Gd767 2.427 . S
O808 C831 1.252 . S
O809 Gd766 2.303 1_455 S
O809 C824 1.261 . S
O810 Gd767 2.388 . S
O810 C824 1.252 . S
C811 O799 1.265 . S
C811 O800 1.242 . S
C812 O803 1.261 . S
C812 O804 1.252 . S
C813 C816 1.394 . S
C813 C818 1.370 . S
C813 C819 1.500 . S
C814 C817 1.383 . S
C814 C818 1.395 . S
C815 C816 1.396 . S
C815 C817 1.365 . S
C815 H832 0.929 . S
C816 C813 1.394 . S
C816 C815 1.396 . S
C816 H833 0.930 . S
C817 C814 1.383 . S
C817 C815 1.365 . S
C817 H834 0.931 . S
C818 C813 1.370 . S
C818 C814 1.395 . S
C818 H835 0.930 . S
C819 Gd766 2.822 . S
C819 O801 1.263 . S
C819 O802 1.252 . S
C819 C813 1.500 . S
C820 H782 0.930 . S
C820 C796 1.417 . S
C820 C821 1.329 . S
C821 C791 1.437 . S
C821 H792 0.929 . S
C821 C820 1.329 . S
H822 C795 0.931 . S
C823 O805 1.265 . S
C823 O806 1.242 . S
C824 O809 1.261 . S
C824 O810 1.252 . S
C825 C828 1.394 . S
C825 C830 1.370 . S
C825 C831 1.500 . S
C826 C829 1.383 . S
C826 C830 1.395 . S
C827 C828 1.396 . S
C827 C829 1.365 . S
C827 H836 0.929 . S
C828 C825 1.394 . S
C828 C827 1.396 . S
C828 H837 0.930 . S
C829 C826 1.383 . S
C829 C827 1.365 . S
C829 H838 0.931 . S
C830 C825 1.370 . S
C830 C826 1.395 . S
C830 H839 0.930 . S
C831 Gd767 2.805 . S
C831 O807 1.263 . S
C831 O808 1.252 . S
C831 C825 1.500 . S
H832 C815 0.929 . S
H833 C816 0.930 . S
H834 C817 0.931 . S
H835 C818 0.930 . S
H836 C827 0.929 . S
H837 C828 0.930 . S
H838 C829 0.931 . S
H839 C830 0.930 . S
C840 C842 1.422 . S
C840 C844 1.415 . S
C840 N846 1.369 . S
C841 C842 1.421 . S
C841 C843 1.417 . S
C841 C853 1.422 . S
C842 C840 1.422 . S
C842 C841 1.421 . S
C842 N852 1.359 . S
C843 C841 1.417 . S
C843 C845 1.329 . S
C843 H862 0.930 . S
C844 C840 1.415 . S
C844 C845 1.437 . S
C844 C848 1.413 . S
C845 C843 1.329 . S
C845 C844 1.437 . S
C845 H867 0.929 . S
N846 C840 1.369 . S
N846 C847 1.338 . S
N846 Gd851 2.622 . S
C847 N846 1.338 . S
C847 C849 1.378 . S
C847 H859 0.929 . S
C848 C844 1.413 . S
C848 C849 1.348 . S
C848 H864 0.931 . S
C849 C847 1.378 . S
C849 C848 1.348 . S
C849 H865 0.930 . S
Gd850 N870 2.622 . S
Gd850 N877 2.570 . S
Gd850 O884 2.353 . S
Gd850 O885 2.468 . S
Gd850 O886 2.427 . S
Gd850 O888 2.388 . S
Gd850 O889 2.386 . S
Gd850 O893 2.307 . S
Gd850 C903 2.805 . S
Gd851 N846 2.622 . S
Gd851 N852 2.570 . S
Gd851 O883 2.386 . S
Gd851 O887 2.307 . S
Gd851 O890 2.353 . S
Gd851 O891 2.468 . S
Gd851 O892 2.427 . S
Gd851 O894 2.388 . S
Gd851 C915 2.805 . S
N852 C842 1.359 . S
N852 Gd851 2.570 . S
N852 C854 1.343 . S
C853 C841 1.422 . S
C853 C855 1.321 . S
C853 H861 0.931 . S
C854 N852 1.343 . S
C854 C855 1.390 . S
C854 H856 0.931 . S
C855 C853 1.321 . S
C855 C854 1.390 . S
C855 H857 0.930 . S
H856 C854 0.931 . S
H857 C855 0.930 . S
H858 C881 0.931 . S
H859 C847 0.929 . S
H860 C882 0.930 . S
H861 C853 0.931 . S
H862 C843 0.930 . S
H863 C872 0.929 . S
H864 C848 0.931 . S
H865 C849 0.930 . S
H866 C904 0.930 . S
H867 C845 0.929 . S
H868 C873 0.931 . S
H869 C874 0.930 . S
N870 Gd850 2.622 . S
N870 C871 1.369 . S
N870 C872 1.338 . S
C871 N870 1.369 . S
C871 C875 1.415 . S
C871 C878 1.422 . S
C872 H863 0.929 . S
C872 N870 1.338 . S
C872 C874 1.378 . S
C873 H868 0.931 . S
C873 C874 1.348 . S
C873 C875 1.413 . S
C874 H869 0.930 . S
C874 C872 1.378 . S
C874 C873 1.348 . S
C875 C871 1.415 . S
C875 C873 1.413 . S
C875 C905 1.437 . S
H876 C905 0.929 . S
N877 Gd850 2.570 . S
N877 C878 1.359 . S
N877 C881 1.343 . S
C878 C871 1.422 . S
C878 N877 1.359 . S
C878 C880 1.421 . S
C879 C880 1.422 . S
C879 C882 1.321 . S
C879 H906 0.931 . S
C880 C878 1.421 . S
C880 C879 1.422 . S
C880 C904 1.417 . S
C881 H858 0.931 . S
C881 N877 1.343 . S
C881 C882 1.390 . S
C882 H860 0.930 . S
C882 C879 1.321 . S
C882 C881 1.390 . S
O883 Gd851 2.386 . S
O883 C895 1.265 . S
O884 Gd850 2.353 . S
O884 C895 1.242 . S
O885 Gd850 2.468 . S
O885 C903 1.263 . S
O886 Gd850 2.427 . S
O886 C903 1.252 . S
O887 Gd851 2.307 . S
O887 C896 1.261 . S
O888 Gd850 2.388 . S
O888 C896 1.252 . S
O889 Gd850 2.386 . S
O889 C907 1.265 . S
O890 Gd851 2.353 . S
O890 C907 1.242 . S
O891 Gd851 2.468 . S
O891 C915 1.263 . S
O892 Gd851 2.427 . S
O892 C915 1.252 . S
O893 Gd850 2.307 . S
O893 C908 1.261 . S
O894 Gd851 2.388 . S
O894 C908 1.252 . S
C895 O883 1.265 . S
C895 O884 1.242 . S
C896 O887 1.261 . S
C896 O888 1.252 . S
C897 C900 1.394 . S
C897 C902 1.370 . S
C897 C903 1.500 . S
C898 C901 1.383 . S
C898 C902 1.395 . S
C899 C900 1.396 . S
C899 C901 1.365 . S
C899 H916 0.929 . S
C900 C897 1.394 . S
C900 C899 1.396 . S
C900 H917 0.930 . S
C901 C898 1.383 . S
C901 C899 1.365 . S
C901 H918 0.931 . S
C902 C897 1.370 . S
C902 C898 1.395 . S
C902 H919 0.930 . S
C903 Gd850 2.805 . S
C903 O885 1.263 . S
C903 O886 1.252 . S
C903 C897 1.500 . S
C904 H866 0.930 . S
C904 C880 1.417 . S
C904 C905 1.329 . S
C905 C875 1.437 . S
C905 H876 0.929 . S
C905 C904 1.329 . S
H906 C879 0.931 . S
C907 O889 1.265 . S
C907 O890 1.242 . S
C908 O893 1.261 . S
C908 O894 1.252 . S
C909 C912 1.394 . S
C909 C914 1.370 . S
C909 C915 1.500 . S
C910 C913 1.383 . S
C910 C914 1.395 . S
C911 C912 1.396 . S
C911 C913 1.365 . S
C911 H920 0.929 . S
C912 C909 1.394 . S
C912 C911 1.396 . S
C912 H921 0.930 . S
C913 C910 1.383 . S
C913 C911 1.365 . S
C913 H922 0.931 . S
C914 C909 1.370 . S
C914 C910 1.395 . S
C914 H923 0.930 . S
C915 Gd851 2.805 . S
C915 O891 1.263 . S
C915 O892 1.252 . S
C915 C909 1.500 . S
H916 C899 0.929 . S
H917 C900 0.930 . S
H918 C901 0.931 . S
H919 C902 0.930 . S
H920 C911 0.929 . S
H921 C912 0.930 . S
H922 C913 0.931 . S
H923 C914 0.930 . S
C924 C926 1.422 . S
C924 C928 1.415 . S
C924 N930 1.369 . S
C925 C926 1.421 . S
C925 C927 1.417 . S
C925 C937 1.422 . S
C926 C924 1.422 . S
C926 C925 1.421 . S
C926 N936 1.359 . S
C927 C925 1.417 . S
C927 C929 1.329 . S
C927 H946 0.930 . S
C928 C924 1.415 . S
C928 C929 1.437 . S
C928 C932 1.413 . S
C929 C927 1.329 . S
C929 C928 1.437 . S
C929 H951 0.929 . S
N930 C924 1.369 . S
N930 C931 1.338 . S
N930 Gd935 2.622 . S
C931 N930 1.338 . S
C931 C933 1.378 . S
C931 H943 0.929 . S
C932 C928 1.413 . S
C932 C933 1.348 . S
C932 H948 0.931 . S
C933 C931 1.378 . S
C933 C932 1.348 . S
C933 H949 0.930 . S
Gd934 N954 2.622 . S
Gd934 N961 2.570 . S
Gd934 O968 2.353 . S
Gd934 O969 2.468 . S
Gd934 O970 2.427 . S
Gd934 O972 2.388 . S
Gd934 O973 2.386 . S
Gd934 O977 2.307 . S
Gd934 C987 2.805 . S
Gd935 N930 2.622 . S
Gd935 N936 2.570 . S
Gd935 O967 2.386 . S
Gd935 O971 2.307 . S
Gd935 O974 2.353 1_545 S
Gd935 O975 2.468 1_545 S
Gd935 O976 2.427 1_545 S
Gd935 O978 2.388 . S
Gd935 C999 2.805 1_545 S
N936 C926 1.359 . S
N936 Gd935 2.570 . S
N936 C938 1.343 . S
C937 C925 1.422 . S
C937 C939 1.321 . S
C937 H945 0.931 . S
C938 N936 1.343 . S
C938 C939 1.390 . S
C938 H940 0.931 . S
C939 C937 1.321 . S
C939 C938 1.390 . S
C939 H941 0.930 . S
H940 C938 0.931 . S
H941 C939 0.930 . S
H942 C965 0.931 . S
H943 C931 0.929 . S
H944 C966 0.930 . S
H945 C937 0.931 . S
H946 C927 0.930 . S
H947 C956 0.929 . S
H948 C932 0.931 . S
H949 C933 0.930 . S
H950 C988 0.930 . S
H951 C929 0.929 . S
H952 C957 0.931 . S
H953 C958 0.930 . S
N954 Gd934 2.622 . S
N954 C955 1.369 . S
N954 C956 1.338 . S
C955 N954 1.369 . S
C955 C959 1.415 . S
C955 C962 1.422 . S
C956 H947 0.929 . S
C956 N954 1.338 . S
C956 C958 1.378 . S
C957 H952 0.931 . S
C957 C958 1.348 . S
C957 C959 1.413 . S
C958 H953 0.930 . S
C958 C956 1.378 . S
C958 C957 1.348 . S
C959 C955 1.415 . S
C959 C957 1.413 . S
C959 C989 1.437 . S
H960 C989 0.929 . S
N961 Gd934 2.570 . S
N961 C962 1.359 . S
N961 C965 1.343 . S
C962 C955 1.422 . S
C962 N961 1.359 . S
C962 C964 1.421 . S
C963 C964 1.422 . S
C963 C966 1.321 . S
C963 H990 0.931 . S
C964 C962 1.421 . S
C964 C963 1.422 . S
C964 C988 1.417 . S
C965 H942 0.931 . S
C965 N961 1.343 . S
C965 C966 1.390 . S
C966 H944 0.930 . S
C966 C963 1.321 . S
C966 C965 1.390 . S
O967 Gd935 2.386 . S
O967 C979 1.265 . S
O968 Gd934 2.353 . S
O968 C979 1.242 . S
O969 Gd934 2.468 . S
O969 C987 1.263 . S
O970 Gd934 2.427 . S
O970 C987 1.252 . S
O971 Gd935 2.307 . S
O971 C980 1.261 . S
O972 Gd934 2.388 . S
O972 C980 1.252 . S
O973 Gd934 2.386 . S
O973 C991 1.265 1_545 S
O974 Gd935 2.353 1_565 S
O974 C991 1.242 . S
O975 Gd935 2.468 1_565 S
O975 C999 1.263 . S
O976 Gd935 2.427 1_565 S
O976 C999 1.252 . S
O977 Gd934 2.307 . S
O977 C992 1.261 . S
O978 Gd935 2.388 . S
O978 C992 1.252 . S
C979 O967 1.265 . S
C979 O968 1.242 . S
C980 O971 1.261 . S
C980 O972 1.252 . S
C981 C984 1.394 . S
C981 C986 1.370 . S
C981 C987 1.500 . S
C982 C985 1.383 . S
C982 C986 1.395 . S
C983 C984 1.396 . S
C983 C985 1.365 . S
C983 H1000 0.929 . S
C984 C981 1.394 . S
C984 C983 1.396 . S
C984 H1001 0.930 . S
C985 C982 1.383 . S
C985 C983 1.365 . S
C985 H1002 0.931 . S
C986 C981 1.370 . S
C986 C982 1.395 . S
C986 H1003 0.930 . S
C987 Gd934 2.805 . S
C987 O969 1.263 . S
C987 O970 1.252 . S
C987 C981 1.500 . S
C988 H950 0.930 . S
C988 C964 1.417 . S
C988 C989 1.329 . S
C989 C959 1.437 . S
C989 H960 0.929 . S
C989 C988 1.329 . S
H990 C963 0.931 . S
C991 O973 1.265 1_565 S
C991 O974 1.242 . S
C992 O977 1.261 . S
C992 O978 1.252 . S
C993 C996 1.394 . S
C993 C998 1.370 . S
C993 C999 1.500 . S
C994 C997 1.383 . S
C994 C998 1.395 . S
C995 C996 1.396 . S
C995 C997 1.365 . S
C995 H1004 0.929 . S
C996 C993 1.394 . S
C996 C995 1.396 . S
C996 H1005 0.930 . S
C997 C994 1.383 . S
C997 C995 1.365 . S
C997 H1006 0.931 . S
C998 C993 1.370 . S
C998 C994 1.395 . S
C998 H1007 0.930 . S
C999 Gd935 2.805 1_565 S
C999 O975 1.263 . S
C999 O976 1.252 . S
C999 C993 1.500 . S
H1000 C983 0.929 . S
H1001 C984 0.930 . S
H1002 C985 0.931 . S
H1003 C986 0.930 . S
H1004 C995 0.929 . S
H1005 C996 0.930 . S
H1006 C997 0.931 . S
H1007 C998 0.930 . S
C1008 C1010 1.422 . S
C1008 C1012 1.415 . S
C1008 N1014 1.369 . S
C1009 C1010 1.421 . S
C1009 C1011 1.417 . S
C1009 C1021 1.422 . S
C1010 C1008 1.422 . S
C1010 C1009 1.421 . S
C1010 N1020 1.359 . S
C1011 C1009 1.417 . S
C1011 C1013 1.329 . S
C1011 H1030 0.930 . S
C1012 C1008 1.415 . S
C1012 C1013 1.437 . S
C1012 C1016 1.413 . S
C1013 C1011 1.329 . S
C1013 C1012 1.437 . S
C1013 H1035 0.929 . S
N1014 C1008 1.369 . S
N1014 C1015 1.338 . S
N1014 Gd1019 2.622 . S
C1015 N1014 1.338 . S
C1015 C1017 1.378 . S
C1015 H1027 0.929 . S
C1016 C1012 1.413 . S
C1016 C1017 1.348 . S
C1016 H1032 0.931 . S
C1017 C1015 1.378 . S
C1017 C1016 1.348 . S
C1017 H1033 0.930 . S
Gd1018 N1038 2.622 . S
Gd1018 N1045 2.570 . S
Gd1018 O1052 2.353 . S
Gd1018 O1053 2.468 . S
Gd1018 O1054 2.427 . S
Gd1018 O1056 2.388 . S
Gd1018 O1057 2.386 . S
Gd1018 O1061 2.307 . S
Gd1018 C1071 2.805 . S
Gd1019 N1014 2.622 . S
Gd1019 N1020 2.570 . S
Gd1019 O1051 2.386 . S
Gd1019 O1055 2.307 . S
Gd1019 O1058 2.353 . S
Gd1019 O1059 2.468 . S
Gd1019 O1060 2.427 . S
Gd1019 O1062 2.388 . S
Gd1019 C1083 2.805 . S
N1020 C1010 1.359 . S
N1020 Gd1019 2.570 . S
N1020 C1022 1.343 . S
C1021 C1009 1.422 . S
C1021 C1023 1.321 . S
C1021 H1029 0.931 . S
C1022 N1020 1.343 . S
C1022 C1023 1.390 . S
C1022 H1024 0.931 . S
C1023 C1021 1.321 . S
C1023 C1022 1.390 . S
C1023 H1025 0.930 . S
H1024 C1022 0.931 . S
H1025 C1023 0.930 . S
H1026 C1049 0.931 . S
H1027 C1015 0.929 . S
H1028 C1050 0.930 . S
H1029 C1021 0.931 . S
H1030 C1011 0.930 . S
H1031 C1040 0.929 . S
H1032 C1016 0.931 . S
H1033 C1017 0.930 . S
H1034 C1072 0.930 . S
H1035 C1013 0.929 . S
H1036 C1041 0.931 . S
H1037 C1042 0.930 . S
N1038 Gd1018 2.622 . S
N1038 C1039 1.369 . S
N1038 C1040 1.338 . S
C1039 N1038 1.369 . S
C1039 C1043 1.415 . S
C1039 C1046 1.422 . S
C1040 H1031 0.929 . S
C1040 N1038 1.338 . S
C1040 C1042 1.378 . S
C1041 H1036 0.931 . S
C1041 C1042 1.348 . S
C1041 C1043 1.413 . S
C1042 H1037 0.930 . S
C1042 C1040 1.378 . S
C1042 C1041 1.348 . S
C1043 C1039 1.415 . S
C1043 C1041 1.413 . S
C1043 C1073 1.437 . S
H1044 C1073 0.929 . S
N1045 Gd1018 2.570 . S
N1045 C1046 1.359 . S
N1045 C1049 1.343 . S
C1046 C1039 1.422 . S
C1046 N1045 1.359 . S
C1046 C1048 1.421 . S
C1047 C1048 1.422 . S
C1047 C1050 1.321 . S
C1047 H1074 0.931 . S
C1048 C1046 1.421 . S
C1048 C1047 1.422 . S
C1048 C1072 1.417 . S
C1049 H1026 0.931 . S
C1049 N1045 1.343 . S
C1049 C1050 1.390 . S
C1050 H1028 0.930 . S
C1050 C1047 1.321 . S
C1050 C1049 1.390 . S
O1051 Gd1019 2.386 . S
O1051 C1063 1.265 . S
O1052 Gd1018 2.353 . S
O1052 C1063 1.242 . S
O1053 Gd1018 2.468 . S
O1053 C1071 1.263 . S
O1054 Gd1018 2.427 . S
O1054 C1071 1.252 . S
O1055 Gd1019 2.307 . S
O1055 C1064 1.261 . S
O1056 Gd1018 2.388 . S
O1056 C1064 1.252 . S
O1057 Gd1018 2.386 . S
O1057 C1075 1.265 . S
O1058 Gd1019 2.353 . S
O1058 C1075 1.242 . S
O1059 Gd1019 2.468 . S
O1059 C1083 1.263 . S
O1060 Gd1019 2.427 . S
O1060 C1083 1.252 . S
O1061 Gd1018 2.307 . S
O1061 C1076 1.261 . S
O1062 Gd1019 2.388 . S
O1062 C1076 1.252 . S
C1063 O1051 1.265 . S
C1063 O1052 1.242 . S
C1064 O1055 1.261 . S
C1064 O1056 1.252 . S
C1065 C1068 1.394 . S
C1065 C1070 1.370 . S
C1065 C1071 1.500 . S
C1066 C1069 1.383 . S
C1066 C1070 1.395 . S
C1067 C1068 1.396 . S
C1067 C1069 1.365 . S
C1067 H1084 0.929 . S
C1068 C1065 1.394 . S
C1068 C1067 1.396 . S
C1068 H1085 0.930 . S
C1069 C1066 1.383 . S
C1069 C1067 1.365 . S
C1069 H1086 0.931 . S
C1070 C1065 1.370 . S
C1070 C1066 1.395 . S
C1070 H1087 0.930 . S
C1071 Gd1018 2.805 . S
C1071 O1053 1.263 . S
C1071 O1054 1.252 . S
C1071 C1065 1.500 . S
C1072 H1034 0.930 . S
C1072 C1048 1.417 . S
C1072 C1073 1.329 . S
C1073 C1043 1.437 . S
C1073 H1044 0.929 . S
C1073 C1072 1.329 . S
H1074 C1047 0.931 . S
C1075 O1057 1.265 . S
C1075 O1058 1.242 . S
C1076 O1061 1.261 . S
C1076 O1062 1.252 . S
C1077 C1080 1.394 . S
C1077 C1082 1.370 . S
C1077 C1083 1.500 . S
C1078 C1081 1.383 . S
C1078 C1082 1.395 . S
C1079 C1080 1.396 . S
C1079 C1081 1.365 . S
C1079 H1088 0.929 . S
C1080 C1077 1.394 . S
C1080 C1079 1.396 . S
C1080 H1089 0.930 . S
C1081 C1078 1.383 . S
C1081 C1079 1.365 . S
C1081 H1090 0.931 . S
C1082 C1077 1.370 . S
C1082 C1078 1.395 . S
C1082 H1091 0.930 . S
C1083 Gd1019 2.805 . S
C1083 O1059 1.263 . S
C1083 O1060 1.252 . S
C1083 C1077 1.500 . S
H1084 C1067 0.929 . S
H1085 C1068 0.930 . S
H1086 C1069 0.931 . S
H1087 C1070 0.930 . S
H1088 C1079 0.929 . S
H1089 C1080 0.930 . S
H1090 C1081 0.931 . S
H1091 C1082 0.930 . S
C1092 C1094 1.422 . S
C1092 C1096 1.415 . S
C1092 N1098 1.369 . S
C1093 C1094 1.421 . S
C1093 C1095 1.417 . S
C1093 C1105 1.422 . S
C1094 C1092 1.422 . S
C1094 C1093 1.421 . S
C1094 N1104 1.359 . S
C1095 C1093 1.417 . S
C1095 C1097 1.329 . S
C1095 H1114 0.930 . S
C1096 C1092 1.415 . S
C1096 C1097 1.437 . S
C1096 C1100 1.413 . S
C1097 C1095 1.329 . S
C1097 C1096 1.437 . S
C1097 H1119 0.929 . S
N1098 C1092 1.369 . S
N1098 C1099 1.338 . S
N1098 Gd1103 2.622 . S
C1099 N1098 1.338 . S
C1099 C1101 1.378 . S
C1099 H1111 0.929 . S
C1100 C1096 1.413 . S
C1100 C1101 1.348 . S
C1100 H1116 0.931 . S
C1101 C1099 1.378 . S
C1101 C1100 1.348 . S
C1101 H1117 0.930 . S
Gd1102 N1122 2.622 . S
Gd1102 N1129 2.570 . S
Gd1102 O1136 2.353 . S
Gd1102 O1137 2.468 . S
Gd1102 O1138 2.427 . S
Gd1102 O1140 2.388 . S
Gd1102 O1141 2.386 . S
Gd1102 O1145 2.307 . S
Gd1102 C1155 2.805 . S
Gd1103 N1098 2.622 . S
Gd1103 N1104 2.570 . S
Gd1103 O1135 2.386 . S
Gd1103 O1139 2.307 . S
Gd1103 O1142 2.353 . S
Gd1103 O1143 2.468 . S
Gd1103 O1144 2.427 . S
Gd1103 O1146 2.388 . S
Gd1103 C1167 2.805 . S
N1104 C1094 1.359 . S
N1104 Gd1103 2.570 . S
N1104 C1106 1.343 . S
C1105 C1093 1.422 . S
C1105 C1107 1.321 . S
C1105 H1113 0.931 . S
C1106 N1104 1.343 . S
C1106 C1107 1.390 . S
C1106 H1108 0.931 . S
C1107 C1105 1.321 . S
C1107 C1106 1.390 . S
C1107 H1109 0.930 . S
H1108 C1106 0.931 . S
H1109 C1107 0.930 . S
H1110 C1133 0.931 . S
H1111 C1099 0.929 . S
H1112 C1134 0.930 . S
H1113 C1105 0.931 . S
H1114 C1095 0.930 . S
H1115 C1124 0.929 . S
H1116 C1100 0.931 . S
H1117 C1101 0.930 . S
H1118 C1156 0.930 . S
H1119 C1097 0.929 . S
H1120 C1125 0.931 . S
H1121 C1126 0.930 . S
N1122 Gd1102 2.622 . S
N1122 C1123 1.369 . S
N1122 C1124 1.338 . S
C1123 N1122 1.369 . S
C1123 C1127 1.415 . S
C1123 C1130 1.422 . S
C1124 H1115 0.929 . S
C1124 N1122 1.338 . S
C1124 C1126 1.378 . S
C1125 H1120 0.931 . S
C1125 C1126 1.348 . S
C1125 C1127 1.413 . S
C1126 H1121 0.930 . S
C1126 C1124 1.378 . S
C1126 C1125 1.348 . S
C1127 C1123 1.415 . S
C1127 C1125 1.413 . S
C1127 C1157 1.437 . S
H1128 C1157 0.929 . S
N1129 Gd1102 2.570 . S
N1129 C1130 1.359 . S
N1129 C1133 1.343 . S
C1130 C1123 1.422 . S
C1130 N1129 1.359 . S
C1130 C1132 1.421 . S
C1131 C1132 1.422 . S
C1131 C1134 1.321 . S
C1131 H1158 0.931 . S
C1132 C1130 1.421 . S
C1132 C1131 1.422 . S
C1132 C1156 1.417 . S
C1133 H1110 0.931 . S
C1133 N1129 1.343 . S
C1133 C1134 1.390 . S
C1134 H1112 0.930 . S
C1134 C1131 1.321 . S
C1134 C1133 1.390 . S
O1135 Gd1103 2.386 . S
O1135 C1147 1.265 . S
O1136 Gd1102 2.353 . S
O1136 C1147 1.242 . S
O1137 Gd1102 2.468 . S
O1137 C1155 1.263 . S
O1138 Gd1102 2.427 . S
O1138 C1155 1.252 . S
O1139 Gd1103 2.307 . S
O1139 C1148 1.261 . S
O1140 Gd1102 2.388 . S
O1140 C1148 1.252 . S
O1141 Gd1102 2.386 . S
O1141 C1159 1.265 . S
O1142 Gd1103 2.353 . S
O1142 C1159 1.242 . S
O1143 Gd1103 2.468 . S
O1143 C1167 1.263 . S
O1144 Gd1103 2.427 . S
O1144 C1167 1.252 . S
O1145 Gd1102 2.307 . S
O1145 C1160 1.261 . S
O1146 Gd1103 2.388 . S
O1146 C1160 1.252 . S
C1147 O1135 1.265 . S
C1147 O1136 1.242 . S
C1148 O1139 1.261 . S
C1148 O1140 1.252 . S
C1149 C1152 1.394 . S
C1149 C1154 1.370 . S
C1149 C1155 1.500 . S
C1150 C1153 1.383 . S
C1150 C1154 1.395 1_545 S
C1151 C1152 1.396 1_545 S
C1151 C1153 1.365 . S
C1151 H1168 0.929 . S
C1152 C1149 1.394 . S
C1152 C1151 1.396 1_565 S
C1152 H1169 0.930 . S
C1153 C1150 1.383 . S
C1153 C1151 1.365 . S
C1153 H1170 0.931 . S
C1154 C1149 1.370 . S
C1154 C1150 1.395 1_565 S
C1154 H1171 0.930 . S
C1155 Gd1102 2.805 . S
C1155 O1137 1.263 . S
C1155 O1138 1.252 . S
C1155 C1149 1.500 . S
C1156 H1118 0.930 . S
C1156 C1132 1.417 . S
C1156 C1157 1.329 . S
C1157 C1127 1.437 . S
C1157 H1128 0.929 . S
C1157 C1156 1.329 . S
H1158 C1131 0.931 . S
C1159 O1141 1.265 . S
C1159 O1142 1.242 . S
C1160 O1145 1.261 . S
C1160 O1146 1.252 . S
C1161 C1164 1.394 . S
C1161 C1166 1.370 . S
C1161 C1167 1.500 . S
C1162 C1165 1.383 . S
C1162 C1166 1.395 . S
C1163 C1164 1.396 . S
C1163 C1165 1.365 . S
C1163 H1172 0.929 . S
C1164 C1161 1.394 . S
C1164 C1163 1.396 . S
C1164 H1173 0.930 . S
C1165 C1162 1.383 . S
C1165 C1163 1.365 . S
C1165 H1174 0.931 . S
C1166 C1161 1.370 . S
C1166 C1162 1.395 . S
C1166 H1175 0.930 . S
C1167 Gd1103 2.805 . S
C1167 O1143 1.263 . S
C1167 O1144 1.252 . S
C1167 C1161 1.500 . S
H1168 C1151 0.929 . S
H1169 C1152 0.930 . S
H1170 C1153 0.931 . S
H1171 C1154 0.930 . S
H1172 C1163 0.929 . S
H1173 C1164 0.930 . S
H1174 C1165 0.931 . S
H1175 C1166 0.930 . S
C1176 C1178 1.422 . S
C1176 C1180 1.415 . S
C1176 N1182 1.369 . S
C1177 C1178 1.421 1_545 S
C1177 C1179 1.417 . S
C1177 C1189 1.422 . S
C1178 C1176 1.422 . S
C1178 C1177 1.421 1_565 S
C1178 N1188 1.359 . S
C1179 C1177 1.417 . S
C1179 C1181 1.329 . S
C1179 H1198 0.930 . S
C1180 C1176 1.415 . S
C1180 C1181 1.437 1_565 S
C1180 C1184 1.413 . S
C1181 C1179 1.329 . S
C1181 C1180 1.437 1_545 S
C1181 H1203 0.929 . S
N1182 C1176 1.369 . S
N1182 C1183 1.338 . S
N1182 Gd1187 2.622 . S
C1183 N1182 1.338 . S
C1183 C1185 1.378 . S
C1183 H1195 0.929 . S
C1184 C1180 1.413 . S
C1184 C1185 1.348 . S
C1184 H1200 0.925 1_565 S
C1185 C1183 1.378 . S
C1185 C1184 1.348 . S
C1185 H1201 0.930 . S
Gd1186 N1206 2.622 . S
Gd1186 N1213 2.570 . S
Gd1186 O1220 2.353 . S
Gd1186 O1221 2.468 . S
Gd1186 O1222 2.427 . S
Gd1186 O1224 2.388 . S
Gd1186 O1225 2.386 . S
Gd1186 O1229 2.307 . S
Gd1186 C1239 2.805 . S
Gd1187 N1182 2.622 . S
Gd1187 N1188 2.570 . S
Gd1187 O1219 2.386 . S
Gd1187 O1223 2.307 . S
Gd1187 O1226 2.353 . S
Gd1187 O1227 2.468 . S
Gd1187 O1228 2.427 . S
Gd1187 O1230 2.388 . S
Gd1187 C1251 2.805 . S
N1188 C1178 1.359 . S
N1188 Gd1187 2.570 . S
N1188 C1190 1.343 . S
C1189 C1177 1.422 . S
C1189 C1191 1.321 . S
C1189 H1197 0.931 . S
C1190 N1188 1.343 . S
C1190 C1191 1.390 1_565 S
C1190 H1192 0.931 . S
C1191 C1189 1.321 . S
C1191 C1190 1.390 1_545 S
C1191 H1193 0.930 . S
H1192 C1190 0.931 . S
H1193 C1191 0.930 . S
H1194 C1217 0.931 . S
H1195 C1183 0.929 . S
H1196 C1218 0.930 . S
H1197 C1189 0.931 . S
H1198 C1179 0.930 . S
H1199 C1208 0.929 . S
H1200 C1184 0.925 1_545 S
H1201 C1185 0.930 . S
H1202 C1240 0.930 . S
H1203 C1181 0.929 . S
H1204 C1209 0.931 . S
H1205 C1210 0.930 . S
N1206 Gd1186 2.622 . S
N1206 C1207 1.369 . S
N1206 C1208 1.338 . S
C1207 N1206 1.369 . S
C1207 C1211 1.415 . S
C1207 C1214 1.422 . S
C1208 H1199 0.929 . S
C1208 N1206 1.338 . S
C1208 C1210 1.378 . S
C1209 H1204 0.931 . S
C1209 C1210 1.348 . S
C1209 C1211 1.413 . S
C1210 H1205 0.930 . S
C1210 C1208 1.378 . S
C1210 C1209 1.348 . S
C1211 C1207 1.415 . S
C1211 C1209 1.413 . S
C1211 C1241 1.437 . S
H1212 C1241 0.929 . S
N1213 Gd1186 2.570 . S
N1213 C1214 1.359 . S
N1213 C1217 1.343 . S
C1214 C1207 1.422 . S
C1214 N1213 1.359 . S
C1214 C1216 1.421 . S
C1215 C1216 1.422 . S
C1215 C1218 1.321 . S
C1215 H1242 0.931 . S
C1216 C1214 1.421 . S
C1216 C1215 1.422 . S
C1216 C1240 1.417 . S
C1217 H1194 0.931 . S
C1217 N1213 1.343 . S
C1217 C1218 1.390 . S
C1218 H1196 0.930 . S
C1218 C1215 1.321 . S
C1218 C1217 1.390 . S
O1219 Gd1187 2.386 . S
O1219 C1231 1.265 . S
O1220 Gd1186 2.353 . S
O1220 C1231 1.242 . S
O1221 Gd1186 2.468 . S
O1221 C1239 1.263 . S
O1222 Gd1186 2.427 . S
O1222 C1239 1.252 . S
O1223 Gd1187 2.307 . S
O1223 C1232 1.261 . S
O1224 Gd1186 2.388 . S
O1224 C1232 1.252 . S
O1225 Gd1186 2.386 . S
O1225 C1243 1.265 . S
O1226 Gd1187 2.353 . S
O1226 C1243 1.242 . S
O1227 Gd1187 2.468 . S
O1227 C1251 1.263 . S
O1228 Gd1187 2.427 . S
O1228 C1251 1.252 . S
O1229 Gd1186 2.307 . S
O1229 C1244 1.261 . S
O1230 Gd1187 2.388 . S
O1230 C1244 1.252 . S
C1231 O1219 1.265 . S
C1231 O1220 1.242 . S
C1232 O1223 1.261 . S
C1232 O1224 1.252 . S
C1233 C1236 1.394 . S
C1233 C1238 1.370 . S
C1233 C1239 1.500 . S
C1234 C1237 1.383 . S
C1234 C1238 1.395 . S
C1235 C1236 1.396 . S
C1235 C1237 1.365 . S
C1235 H1252 0.929 . S
C1236 C1233 1.394 . S
C1236 C1235 1.396 . S
C1236 H1253 0.930 . S
C1237 C1234 1.383 . S
C1237 C1235 1.365 . S
C1237 H1254 0.931 . S
C1238 C1233 1.370 . S
C1238 C1234 1.395 . S
C1238 H1255 0.930 . S
C1239 Gd1186 2.805 . S
C1239 O1221 1.263 . S
C1239 O1222 1.252 . S
C1239 C1233 1.500 . S
C1240 H1202 0.930 . S
C1240 C1216 1.417 . S
C1240 C1241 1.329 . S
C1241 C1211 1.437 . S
C1241 H1212 0.929 . S
C1241 C1240 1.329 . S
H1242 C1215 0.931 . S
C1243 O1225 1.265 . S
C1243 O1226 1.242 . S
C1244 O1229 1.261 . S
C1244 O1230 1.252 . S
C1245 C1248 1.394 . S
C1245 C1250 1.370 . S
C1245 C1251 1.500 . S
C1246 C1249 1.383 . S
C1246 C1250 1.395 . S
C1247 C1248 1.396 . S
C1247 C1249 1.365 . S
C1247 H1256 0.929 . S
C1248 C1245 1.394 . S
C1248 C1247 1.396 . S
C1248 H1257 0.930 . S
C1249 C1246 1.383 . S
C1249 C1247 1.365 . S
C1249 H1258 0.931 . S
C1250 C1245 1.370 . S
C1250 C1246 1.395 . S
C1250 H1259 0.930 . S
C1251 Gd1187 2.805 . S
C1251 O1227 1.263 . S
C1251 O1228 1.252 . S
C1251 C1245 1.500 . S
H1252 C1235 0.929 . S
H1253 C1236 0.930 . S
H1254 C1237 0.931 . S
H1255 C1238 0.930 . S
H1256 C1247 0.929 . S
H1257 C1248 0.930 . S
H1258 C1249 0.931 . S
H1259 C1250 0.930 . S
C1260 C1262 1.422 . S
C1260 C1264 1.415 . S
C1260 N1266 1.369 . S
C1261 C1262 1.421 . S
C1261 C1263 1.417 . S
C1261 C1273 1.422 . S
C1262 C1260 1.422 . S
C1262 C1261 1.421 . S
C1262 N1272 1.359 . S
C1263 C1261 1.417 . S
C1263 C1265 1.329 . S
C1263 H1282 0.930 . S
C1264 C1260 1.415 . S
C1264 C1265 1.437 . S
C1264 C1268 1.413 . S
C1265 C1263 1.329 . S
C1265 C1264 1.437 . S
C1265 H1287 0.929 . S
N1266 C1260 1.369 . S
N1266 C1267 1.338 . S
N1266 Gd1271 2.622 . S
C1267 N1266 1.338 . S
C1267 C1269 1.378 . S
C1267 H1279 0.929 . S
C1268 C1264 1.413 . S
C1268 C1269 1.348 . S
C1268 H1284 0.931 . S
C1269 C1267 1.378 . S
C1269 C1268 1.348 . S
C1269 H1285 0.930 . S
Gd1270 N1290 2.622 . S
Gd1270 N1297 2.570 . S
Gd1270 O1304 2.353 . S
Gd1270 O1305 2.468 . S
Gd1270 O1306 2.427 . S
Gd1270 O1308 2.388 . S
Gd1270 O1309 2.386 . S
Gd1270 O1313 2.307 . S
Gd1270 C1323 2.805 . S
Gd1271 N1266 2.622 . S
Gd1271 N1272 2.570 . S
Gd1271 O1303 2.386 . S
Gd1271 O1307 2.307 . S
Gd1271 O1310 2.353 . S
Gd1271 O1311 2.468 . S
Gd1271 O1312 2.427 . S
Gd1271 O1314 2.388 . S
Gd1271 C1335 2.805 . S
N1272 C1262 1.359 . S
N1272 Gd1271 2.570 . S
N1272 C1274 1.343 . S
C1273 C1261 1.422 . S
C1273 C1275 1.321 . S
C1273 H1281 0.931 . S
C1274 N1272 1.343 . S
C1274 C1275 1.390 . S
C1274 H1276 0.931 . S
C1275 C1273 1.321 . S
C1275 C1274 1.390 . S
C1275 H1277 0.930 . S
H1276 C1274 0.931 . S
H1277 C1275 0.930 . S
H1278 C1301 0.931 . S
H1279 C1267 0.929 . S
H1280 C1302 0.930 . S
H1281 C1273 0.931 . S
H1282 C1263 0.930 . S
H1283 C1292 0.929 . S
H1284 C1268 0.931 . S
H1285 C1269 0.930 . S
H1286 C1324 0.930 . S
H1287 C1265 0.929 . S
H1288 C1293 0.931 . S
H1289 C1294 0.930 . S
N1290 Gd1270 2.622 . S
N1290 C1291 1.369 . S
N1290 C1292 1.338 . S
C1291 N1290 1.369 . S
C1291 C1295 1.415 . S
C1291 C1298 1.422 . S
C1292 H1283 0.929 . S
C1292 N1290 1.338 . S
C1292 C1294 1.378 . S
C1293 H1288 0.931 . S
C1293 C1294 1.348 . S
C1293 C1295 1.413 . S
C1294 H1289 0.930 . S
C1294 C1292 1.378 . S
C1294 C1293 1.348 . S
C1295 C1291 1.415 . S
C1295 C1293 1.413 . S
C1295 C1325 1.436 1_565 S
H1296 C1325 0.930 . S
N1297 Gd1270 2.570 . S
N1297 C1298 1.359 . S
N1297 C1301 1.343 . S
C1298 C1291 1.422 . S
C1298 N1297 1.359 . S
C1298 C1300 1.421 . S
C1299 C1300 1.422 . S
C1299 C1302 1.321 . S
C1299 H1326 0.931 1_565 S
C1300 C1298 1.421 . S
C1300 C1299 1.422 . S
C1300 C1324 1.417 1_565 S
C1301 H1278 0.931 . S
C1301 N1297 1.343 . S
C1301 C1302 1.390 . S
C1302 H1280 0.930 . S
C1302 C1299 1.321 . S
C1302 C1301 1.390 . S
O1303 Gd1271 2.386 . S
O1303 C1315 1.265 . S
O1304 Gd1270 2.353 . S
O1304 C1315 1.242 . S
O1305 Gd1270 2.468 . S
O1305 C1323 1.263 . S
O1306 Gd1270 2.427 . S
O1306 C1323 1.252 . S
O1307 Gd1271 2.307 . S
O1307 C1316 1.261 . S
O1308 Gd1270 2.388 . S
O1308 C1316 1.252 . S
O1309 Gd1270 2.386 . S
O1309 C1327 1.265 . S
O1310 Gd1271 2.353 . S
O1310 C1327 1.242 . S
O1311 Gd1271 2.468 . S
O1311 C1335 1.263 . S
O1312 Gd1271 2.427 . S
O1312 C1335 1.252 . S
O1313 Gd1270 2.307 . S
O1313 C1328 1.261 . S
O1314 Gd1271 2.388 . S
O1314 C1328 1.252 . S
C1315 O1303 1.265 . S
C1315 O1304 1.242 . S
C1316 O1307 1.261 . S
C1316 O1308 1.252 . S
C1317 C1320 1.394 . S
C1317 C1322 1.370 . S
C1317 C1323 1.500 . S
C1318 C1321 1.383 . S
C1318 C1322 1.395 . S
C1319 C1320 1.396 . S
C1319 C1321 1.365 . S
C1319 H1336 0.929 . S
C1320 C1317 1.394 . S
C1320 C1319 1.396 . S
C1320 H1337 0.930 . S
C1321 C1318 1.383 . S
C1321 C1319 1.365 . S
C1321 H1338 0.931 . S
C1322 C1317 1.370 . S
C1322 C1318 1.395 . S
C1322 H1339 0.930 . S
C1323 Gd1270 2.805 . S
C1323 O1305 1.263 . S
C1323 O1306 1.252 . S
C1323 C1317 1.500 . S
C1324 H1286 0.930 . S
C1324 C1300 1.417 1_545 S
C1324 C1325 1.329 . S
C1325 C1295 1.436 1_545 S
C1325 H1296 0.930 . S
C1325 C1324 1.329 . S
H1326 C1299 0.931 1_545 S
C1327 O1309 1.265 . S
C1327 O1310 1.242 . S
C1328 O1313 1.261 . S
C1328 O1314 1.252 . S
C1329 C1332 1.394 . S
C1329 C1334 1.370 . S
C1329 C1335 1.500 . S
C1330 C1333 1.383 . S
C1330 C1334 1.395 . S
C1331 C1332 1.396 . S
C1331 C1333 1.365 . S
C1331 H1340 0.929 . S
C1332 C1329 1.394 . S
C1332 C1331 1.396 . S
C1332 H1341 0.930 . S
C1333 C1330 1.383 . S
C1333 C1331 1.365 . S
C1333 H1342 0.931 . S
C1334 C1329 1.370 . S
C1334 C1330 1.395 . S
C1334 H1343 0.930 . S
C1335 Gd1271 2.805 . S
C1335 O1311 1.263 . S
C1335 O1312 1.252 . S
C1335 C1329 1.500 . S
H1336 C1319 0.929 . S
H1337 C1320 0.930 . S
H1338 C1321 0.931 . S
H1339 C1322 0.930 . S
H1340 C1331 0.929 . S
H1341 C1332 0.930 . S
H1342 C1333 0.931 . S
H1343 C1334 0.930 . S
C1344 C1346 1.422 . S
C1344 C1348 1.415 . S
C1344 N1350 1.369 . S
C1345 C1346 1.421 1_545 S
C1345 C1347 1.417 . S
C1345 C1357 1.422 . S
C1346 C1344 1.422 . S
C1346 C1345 1.421 1_565 S
C1346 N1356 1.359 . S
C1347 C1345 1.417 . S
C1347 C1349 1.329 . S
C1347 H1366 0.930 . S
C1348 C1344 1.415 . S
C1348 C1349 1.437 1_565 S
C1348 C1352 1.413 . S
C1349 C1347 1.329 . S
C1349 C1348 1.437 1_545 S
C1349 H1371 0.929 . S
N1350 C1344 1.369 . S
N1350 C1351 1.338 . S
N1350 Gd1355 2.622 . S
C1351 N1350 1.338 . S
C1351 C1353 1.378 . S
C1351 H1363 0.929 . S
C1352 C1348 1.413 . S
C1352 C1353 1.348 . S
C1352 H1368 0.931 . S
C1353 C1351 1.378 . S
C1353 C1352 1.348 . S
C1353 H1369 0.930 . S
Gd1354 N1374 2.622 . S
Gd1354 N1381 2.570 . S
Gd1354 O1388 2.353 . S
Gd1354 O1389 2.468 . S
Gd1354 O1390 2.427 . S
Gd1354 O1392 2.388 . S
Gd1354 O1393 2.386 . S
Gd1354 O1397 2.307 . S
Gd1354 C1407 2.805 . S
Gd1355 N1350 2.622 . S
Gd1355 N1356 2.570 . S
Gd1355 O1387 2.386 . S
Gd1355 O1391 2.307 . S
Gd1355 O1394 2.353 . S
Gd1355 O1395 2.468 . S
Gd1355 O1396 2.427 . S
Gd1355 O1398 2.388 . S
Gd1355 C1419 2.805 . S
N1356 C1346 1.359 . S
N1356 Gd1355 2.570 . S
N1356 C1358 1.343 . S
C1357 C1345 1.422 . S
C1357 C1359 1.321 . S
C1357 H1365 0.931 . S
C1358 N1356 1.343 . S
C1358 C1359 1.390 1_565 S
C1358 H1360 0.931 . S
C1359 C1357 1.321 . S
C1359 C1358 1.390 1_545 S
C1359 H1361 0.930 . S
H1360 C1358 0.931 . S
H1361 C1359 0.930 . S
H1362 C1385 0.931 . S
H1363 C1351 0.929 . S
H1364 C1386 0.930 . S
H1365 C1357 0.931 . S
H1366 C1347 0.930 . S
H1367 C1376 0.929 . S
H1368 C1352 0.931 . S
H1369 C1353 0.930 . S
H1370 C1408 0.930 . S
H1371 C1349 0.929 . S
H1372 C1377 0.931 . S
H1373 C1378 0.930 . S
N1374 Gd1354 2.622 . S
N1374 C1375 1.369 . S
N1374 C1376 1.338 . S
C1375 N1374 1.369 . S
C1375 C1379 1.415 . S
C1375 C1382 1.422 . S
C1376 H1367 0.929 . S
C1376 N1374 1.338 . S
C1376 C1378 1.378 . S
C1377 H1372 0.931 . S
C1377 C1378 1.348 . S
C1377 C1379 1.413 . S
C1378 H1373 0.930 . S
C1378 C1376 1.378 . S
C1378 C1377 1.348 . S
C1379 C1375 1.415 . S
C1379 C1377 1.413 . S
C1379 C1409 1.437 . S
H1380 C1409 0.929 . S
N1381 Gd1354 2.570 . S
N1381 C1382 1.359 . S
N1381 C1385 1.343 . S
C1382 C1375 1.422 . S
C1382 N1381 1.359 . S
C1382 C1384 1.421 . S
C1383 C1384 1.422 . S
C1383 C1386 1.321 . S
C1383 H1410 0.931 . S
C1384 C1382 1.421 . S
C1384 C1383 1.422 . S
C1384 C1408 1.417 . S
C1385 H1362 0.931 . S
C1385 N1381 1.343 . S
C1385 C1386 1.390 . S
C1386 H1364 0.930 . S
C1386 C1383 1.321 . S
C1386 C1385 1.390 . S
O1387 Gd1355 2.386 . S
O1387 C1399 1.265 . S
O1388 Gd1354 2.353 . S
O1388 C1399 1.242 . S
O1389 Gd1354 2.468 . S
O1389 C1407 1.263 . S
O1390 Gd1354 2.427 . S
O1390 C1407 1.252 . S
O1391 Gd1355 2.307 . S
O1391 C1400 1.261 . S
O1392 Gd1354 2.388 . S
O1392 C1400 1.252 . S
O1393 Gd1354 2.386 . S
O1393 C1411 1.265 . S
O1394 Gd1355 2.353 . S
O1394 C1411 1.242 . S
O1395 Gd1355 2.468 . S
O1395 C1419 1.263 . S
O1396 Gd1355 2.427 . S
O1396 C1419 1.252 . S
O1397 Gd1354 2.307 . S
O1397 C1412 1.261 . S
O1398 Gd1355 2.388 . S
O1398 C1412 1.252 . S
C1399 O1387 1.265 . S
C1399 O1388 1.242 . S
C1400 O1391 1.261 . S
C1400 O1392 1.252 . S
C1401 C1404 1.394 . S
C1401 C1406 1.370 . S
C1401 C1407 1.500 . S
C1402 C1405 1.383 . S
C1402 C1406 1.395 . S
C1403 C1404 1.396 . S
C1403 C1405 1.365 . S
C1403 H1420 0.929 . S
C1404 C1401 1.394 . S
C1404 C1403 1.396 . S
C1404 H1421 0.930 . S
C1405 C1402 1.383 . S
C1405 C1403 1.365 . S
C1405 H1422 0.931 . S
C1406 C1401 1.370 . S
C1406 C1402 1.395 . S
C1406 H1423 0.930 . S
C1407 Gd1354 2.805 . S
C1407 O1389 1.263 . S
C1407 O1390 1.252 . S
C1407 C1401 1.500 . S
C1408 H1370 0.930 . S
C1408 C1384 1.417 . S
C1408 C1409 1.329 . S
C1409 C1379 1.437 . S
C1409 H1380 0.929 . S
C1409 C1408 1.329 . S
H1410 C1383 0.931 . S
C1411 O1393 1.265 . S
C1411 O1394 1.242 . S
C1412 O1397 1.261 . S
C1412 O1398 1.252 . S
C1413 C1416 1.394 . S
C1413 C1418 1.370 . S
C1413 C1419 1.500 1_545 S
C1414 C1417 1.383 . S
C1414 C1418 1.395 . S
C1415 C1416 1.396 . S
C1415 C1417 1.365 . S
C1415 H1424 0.929 . S
C1416 C1413 1.394 . S
C1416 C1415 1.396 . S
C1416 H1425 0.930 . S
C1417 C1414 1.383 . S
C1417 C1415 1.365 . S
C1417 H1426 0.931 . S
C1418 C1413 1.370 . S
C1418 C1414 1.395 . S
C1418 H1427 0.930 . S
C1419 Gd1355 2.805 . S
C1419 O1395 1.263 . S
C1419 O1396 1.252 . S
C1419 C1413 1.500 1_565 S
H1420 C1403 0.929 . S
H1421 C1404 0.930 . S
H1422 C1405 0.931 . S
H1423 C1406 0.930 . S
H1424 C1415 0.929 . S
H1425 C1416 0.930 . S
H1426 C1417 0.931 . S
H1427 C1418 0.930 . S
C1428 C1430 1.422 . S
C1428 C1432 1.415 . S
C1428 N1434 1.369 . S
C1429 C1430 1.421 . S
C1429 C1431 1.417 . S
C1429 C1441 1.422 . S
C1430 C1428 1.422 . S
C1430 C1429 1.421 . S
C1430 N1440 1.359 . S
C1431 C1429 1.417 . S
C1431 C1433 1.329 . S
C1431 H1450 0.930 . S
C1432 C1428 1.415 . S
C1432 C1433 1.437 . S
C1432 C1436 1.413 . S
C1433 C1431 1.329 . S
C1433 C1432 1.437 . S
C1433 H1455 0.929 . S
N1434 C1428 1.369 . S
N1434 C1435 1.338 . S
N1434 Gd1439 2.622 . S
C1435 N1434 1.338 . S
C1435 C1437 1.378 . S
C1435 H1447 0.929 . S
C1436 C1432 1.413 . S
C1436 C1437 1.348 . S
C1436 H1452 0.931 . S
C1437 C1435 1.378 . S
C1437 C1436 1.348 . S
C1437 H1453 0.930 . S
Gd1438 N1458 2.622 . S
Gd1438 N1465 2.570 . S
Gd1438 O1472 2.353 . S
Gd1438 O1473 2.468 . S
Gd1438 O1474 2.427 . S
Gd1438 O1476 2.388 . S
Gd1438 O1477 2.386 . S
Gd1438 O1481 2.307 . S
Gd1438 C1491 2.805 . S
Gd1439 N1434 2.622 . S
Gd1439 N1440 2.570 . S
Gd1439 O1471 2.386 . S
Gd1439 O1475 2.307 . S
Gd1439 O1478 2.353 . S
Gd1439 O1479 2.468 . S
Gd1439 O1480 2.427 . S
Gd1439 O1482 2.388 . S
Gd1439 C1503 2.805 . S
N1440 C1430 1.359 . S
N1440 Gd1439 2.570 . S
N1440 C1442 1.343 . S
C1441 C1429 1.422 . S
C1441 C1443 1.321 . S
C1441 H1449 0.931 . S
C1442 N1440 1.343 . S
C1442 C1443 1.390 . S
C1442 H1444 0.931 . S
C1443 C1441 1.321 . S
C1443 C1442 1.390 . S
C1443 H1445 0.930 . S
H1444 C1442 0.931 . S
H1445 C1443 0.930 . S
H1446 C1469 0.931 . S
H1447 C1435 0.929 . S
H1448 C1470 0.930 . S
H1449 C1441 0.931 . S
H1450 C1431 0.930 . S
H1451 C1460 0.929 . S
H1452 C1436 0.931 . S
H1453 C1437 0.930 . S
H1454 C1492 0.930 . S
H1455 C1433 0.929 . S
H1456 C1461 0.931 . S
H1457 C1462 0.930 . S
N1458 Gd1438 2.622 . S
N1458 C1459 1.369 . S
N1458 C1460 1.338 . S
C1459 N1458 1.369 . S
C1459 C1463 1.415 . S
C1459 C1466 1.422 . S
C1460 H1451 0.929 . S
C1460 N1458 1.338 . S
C1460 C1462 1.378 . S
C1461 H1456 0.931 . S
C1461 C1462 1.348 . S
C1461 C1463 1.413 . S
C1462 H1457 0.930 . S
C1462 C1460 1.378 . S
C1462 C1461 1.348 . S
C1463 C1459 1.415 . S
C1463 C1461 1.413 . S
C1463 C1493 1.437 . S
H1464 C1493 0.929 . S
N1465 Gd1438 2.570 . S
N1465 C1466 1.359 . S
N1465 C1469 1.343 . S
C1466 C1459 1.422 . S
C1466 N1465 1.359 . S
C1466 C1468 1.421 . S
C1467 C1468 1.422 . S
C1467 C1470 1.321 . S
C1467 H1494 0.931 . S
C1468 C1466 1.421 . S
C1468 C1467 1.422 . S
C1468 C1492 1.417 . S
C1469 H1446 0.931 . S
C1469 N1465 1.343 . S
C1469 C1470 1.390 . S
C1470 H1448 0.930 . S
C1470 C1467 1.321 . S
C1470 C1469 1.390 . S
O1471 Gd1439 2.386 . S
O1471 C1483 1.265 . S
O1472 Gd1438 2.353 . S
O1472 C1483 1.242 . S
O1473 Gd1438 2.468 . S
O1473 C1491 1.263 . S
O1474 Gd1438 2.427 . S
O1474 C1491 1.252 . S
O1475 Gd1439 2.307 . S
O1475 C1484 1.261 . S
O1476 Gd1438 2.388 . S
O1476 C1484 1.252 . S
O1477 Gd1438 2.386 . S
O1477 C1495 1.265 . S
O1478 Gd1439 2.353 . S
O1478 C1495 1.242 . S
O1479 Gd1439 2.468 . S
O1479 C1503 1.263 . S
O1480 Gd1439 2.427 . S
O1480 C1503 1.252 . S
O1481 Gd1438 2.307 . S
O1481 C1496 1.261 . S
O1482 Gd1439 2.388 . S
O1482 C1496 1.252 . S
C1483 O1471 1.265 . S
C1483 O1472 1.242 . S
C1484 O1475 1.261 . S
C1484 O1476 1.252 . S
C1485 C1488 1.394 . S
C1485 C1490 1.370 . S
C1485 C1491 1.500 . S
C1486 C1489 1.383 . S
C1486 C1490 1.395 . S
C1487 C1488 1.396 . S
C1487 C1489 1.365 . S
C1487 H1504 0.929 . S
C1488 C1485 1.394 . S
C1488 C1487 1.396 . S
C1488 H1505 0.930 . S
C1489 C1486 1.383 . S
C1489 C1487 1.365 . S
C1489 H1506 0.931 . S
C1490 C1485 1.370 . S
C1490 C1486 1.395 . S
C1490 H1507 0.930 . S
C1491 Gd1438 2.805 . S
C1491 O1473 1.263 . S
C1491 O1474 1.252 . S
C1491 C1485 1.500 . S
C1492 H1454 0.930 . S
C1492 C1468 1.417 . S
C1492 C1493 1.329 . S
C1493 C1463 1.437 . S
C1493 H1464 0.929 . S
C1493 C1492 1.329 . S
H1494 C1467 0.931 . S
C1495 O1477 1.265 . S
C1495 O1478 1.242 . S
C1496 O1481 1.261 . S
C1496 O1482 1.252 . S
C1497 C1500 1.394 . S
C1497 C1502 1.370 . S
C1497 C1503 1.500 . S
C1498 C1501 1.383 1_455 S
C1498 C1502 1.395 . S
C1499 C1500 1.396 . S
C1499 C1501 1.365 1_455 S
C1499 H1508 0.929 . S
C1500 C1497 1.394 . S
C1500 C1499 1.396 . S
C1500 H1509 0.930 . S
C1501 C1498 1.383 1_655 S
C1501 C1499 1.365 1_655 S
C1501 H1510 0.931 . S
C1502 C1497 1.370 . S
C1502 C1498 1.395 . S
C1502 H1511 0.930 . S
C1503 Gd1439 2.805 . S
C1503 O1479 1.263 . S
C1503 O1480 1.252 . S
C1503 C1497 1.500 . S
H1504 C1487 0.929 . S
H1505 C1488 0.930 . S
H1506 C1489 0.931 . S
H1507 C1490 0.930 . S
H1508 C1499 0.929 . S
H1509 C1500 0.930 . S
H1510 C1501 0.931 . S
H1511 C1502 0.930 . S
C1512 C1514 1.422 . S
C1512 C1516 1.415 . S
C1512 N1518 1.369 . S
C1513 C1514 1.421 . S
C1513 C1515 1.417 . S
C1513 C1525 1.422 . S
C1514 C1512 1.422 . S
C1514 C1513 1.421 . S
C1514 N1524 1.359 . S
C1515 C1513 1.417 . S
C1515 C1517 1.329 . S
C1515 H1534 0.930 . S
C1516 C1512 1.415 . S
C1516 C1517 1.437 . S
C1516 C1520 1.413 . S
C1517 C1515 1.329 . S
C1517 C1516 1.437 . S
C1517 H1539 0.929 . S
N1518 C1512 1.369 . S
N1518 C1519 1.338 . S
N1518 Gd1523 2.622 . S
C1519 N1518 1.338 . S
C1519 C1521 1.378 . S
C1519 H1531 0.929 . S
C1520 C1516 1.413 . S
C1520 C1521 1.348 . S
C1520 H1536 0.931 . S
C1521 C1519 1.378 . S
C1521 C1520 1.348 . S
C1521 H1537 0.930 . S
Gd1522 N1542 2.622 . S
Gd1522 N1549 2.570 . S
Gd1522 O1556 2.353 . S
Gd1522 O1557 2.468 . S
Gd1522 O1558 2.427 . S
Gd1522 O1560 2.388 . S
Gd1522 O1561 2.386 . S
Gd1522 O1565 2.307 . S
Gd1522 C1575 2.805 . S
Gd1523 N1518 2.622 . S
Gd1523 N1524 2.570 . S
Gd1523 O1555 2.386 . S
Gd1523 O1559 2.307 . S
Gd1523 O1562 2.353 . S
Gd1523 O1563 2.468 . S
Gd1523 O1564 2.427 . S
Gd1523 O1566 2.388 . S
Gd1523 C1587 2.805 . S
N1524 C1514 1.359 . S
N1524 Gd1523 2.570 . S
N1524 C1526 1.343 . S
C1525 C1513 1.422 . S
C1525 C1527 1.321 . S
C1525 H1533 0.931 . S
C1526 N1524 1.343 . S
C1526 C1527 1.390 . S
C1526 H1528 0.931 . S
C1527 C1525 1.321 . S
C1527 C1526 1.390 . S
C1527 H1529 0.930 . S
H1528 C1526 0.931 . S
H1529 C1527 0.930 . S
H1530 C1553 0.931 . S
H1531 C1519 0.929 . S
H1532 C1554 0.930 . S
H1533 C1525 0.931 . S
H1534 C1515 0.930 . S
H1535 C1544 0.929 . S
H1536 C1520 0.931 . S
H1537 C1521 0.930 . S
H1538 C1576 0.930 . S
H1539 C1517 0.929 . S
H1540 C1545 0.931 . S
H1541 C1546 0.930 . S
N1542 Gd1522 2.622 . S
N1542 C1543 1.369 . S
N1542 C1544 1.338 . S
C1543 N1542 1.369 . S
C1543 C1547 1.415 . S
C1543 C1550 1.422 . S
C1544 H1535 0.929 . S
C1544 N1542 1.338 . S
C1544 C1546 1.378 . S
C1545 H1540 0.931 . S
C1545 C1546 1.348 . S
C1545 C1547 1.413 . S
C1546 H1541 0.930 . S
C1546 C1544 1.378 . S
C1546 C1545 1.348 . S
C1547 C1543 1.415 . S
C1547 C1545 1.413 . S
C1547 C1577 1.437 . S
H1548 C1577 0.929 . S
N1549 Gd1522 2.570 . S
N1549 C1550 1.359 . S
N1549 C1553 1.343 . S
C1550 C1543 1.422 . S
C1550 N1549 1.359 . S
C1550 C1552 1.421 . S
C1551 C1552 1.422 . S
C1551 C1554 1.321 . S
C1551 H1578 0.931 . S
C1552 C1550 1.421 . S
C1552 C1551 1.422 . S
C1552 C1576 1.417 . S
C1553 H1530 0.931 . S
C1553 N1549 1.343 . S
C1553 C1554 1.390 . S
C1554 H1532 0.930 . S
C1554 C1551 1.321 . S
C1554 C1553 1.390 . S
O1555 Gd1523 2.386 . S
O1555 C1567 1.265 . S
O1556 Gd1522 2.353 . S
O1556 C1567 1.242 . S
O1557 Gd1522 2.468 . S
O1557 C1575 1.263 . S
O1558 Gd1522 2.427 . S
O1558 C1575 1.252 . S
O1559 Gd1523 2.307 . S
O1559 C1568 1.261 . S
O1560 Gd1522 2.388 . S
O1560 C1568 1.252 . S
O1561 Gd1522 2.386 . S
O1561 C1579 1.265 . S
O1562 Gd1523 2.353 . S
O1562 C1579 1.242 . S
O1563 Gd1523 2.468 . S
O1563 C1587 1.263 . S
O1564 Gd1523 2.427 . S
O1564 C1587 1.252 . S
O1565 Gd1522 2.307 . S
O1565 C1580 1.261 . S
O1566 Gd1523 2.388 . S
O1566 C1580 1.252 . S
C1567 O1555 1.265 . S
C1567 O1556 1.242 . S
C1568 O1559 1.261 . S
C1568 O1560 1.252 . S
C1569 C1572 1.394 . S
C1569 C1574 1.370 . S
C1569 C1575 1.500 . S
C1570 C1573 1.383 . S
C1570 C1574 1.395 . S
C1571 C1572 1.396 . S
C1571 C1573 1.365 . S
C1571 H1588 0.929 . S
C1572 C1569 1.394 . S
C1572 C1571 1.396 . S
C1572 H1589 0.930 . S
C1573 C1570 1.383 . S
C1573 C1571 1.365 . S
C1573 H1590 0.931 . S
C1574 C1569 1.370 . S
C1574 C1570 1.395 . S
C1574 H1591 0.930 . S
C1575 Gd1522 2.805 . S
C1575 O1557 1.263 . S
C1575 O1558 1.252 . S
C1575 C1569 1.500 . S
C1576 H1538 0.930 . S
C1576 C1552 1.417 . S
C1576 C1577 1.329 . S
C1577 C1547 1.437 . S
C1577 H1548 0.929 . S
C1577 C1576 1.329 . S
H1578 C1551 0.931 . S
C1579 O1561 1.265 . S
C1579 O1562 1.242 . S
C1580 O1565 1.261 . S
C1580 O1566 1.252 . S
C1581 C1584 1.394 . S
C1581 C1586 1.370 . S
C1581 C1587 1.500 . S
C1582 C1585 1.383 . S
C1582 C1586 1.395 . S
C1583 C1584 1.396 . S
C1583 C1585 1.365 . S
C1583 H1592 0.929 . S
C1584 C1581 1.394 . S
C1584 C1583 1.396 . S
C1584 H1593 0.930 . S
C1585 C1582 1.383 . S
C1585 C1583 1.365 . S
C1585 H1594 0.931 . S
C1586 C1581 1.370 . S
C1586 C1582 1.395 . S
C1586 H1595 0.930 . S
C1587 Gd1523 2.805 . S
C1587 O1563 1.263 . S
C1587 O1564 1.252 . S
C1587 C1581 1.500 . S
H1588 C1571 0.929 . S
H1589 C1572 0.930 . S
H1590 C1573 0.931 . S
H1591 C1574 0.930 . S
H1592 C1583 0.929 . S
H1593 C1584 0.930 . S
H1594 C1585 0.931 . S
H1595 C1586 0.930 . S
C1596 C1598 1.422 . S
C1596 C1600 1.415 . S
C1596 N1602 1.369 . S
C1597 C1598 1.421 . S
C1597 C1599 1.417 . S
C1597 C1609 1.422 . S
C1598 C1596 1.422 . S
C1598 C1597 1.421 . S
C1598 N1608 1.359 . S
C1599 C1597 1.417 . S
C1599 C1601 1.329 . S
C1599 H1618 0.930 . S
C1600 C1596 1.415 . S
C1600 C1601 1.437 . S
C1600 C1604 1.413 . S
C1601 C1599 1.329 . S
C1601 C1600 1.437 . S
C1601 H1623 0.929 . S
N1602 C1596 1.369 . S
N1602 C1603 1.338 . S
N1602 Gd1607 2.622 . S
C1603 N1602 1.338 . S
C1603 C1605 1.378 . S
C1603 H1615 0.929 . S
C1604 C1600 1.413 . S
C1604 C1605 1.348 . S
C1604 H1620 0.931 . S
C1605 C1603 1.378 . S
C1605 C1604 1.348 . S
C1605 H1621 0.930 . S
Gd1606 N1626 2.622 . S
Gd1606 N1633 2.570 . S
Gd1606 O1640 2.353 . S
Gd1606 O1641 2.468 . S
Gd1606 O1642 2.427 . S
Gd1606 O1644 2.388 . S
Gd1606 O1645 2.386 . S
Gd1606 O1649 2.307 . S
Gd1606 C1659 2.805 . S
Gd1607 N1602 2.622 . S
Gd1607 N1608 2.570 . S
Gd1607 O1639 2.386 . S
Gd1607 O1643 2.307 . S
Gd1607 O1646 2.353 . S
Gd1607 O1647 2.468 . S
Gd1607 O1648 2.427 . S
Gd1607 O1650 2.388 . S
Gd1607 C1671 2.805 . S
N1608 C1598 1.359 . S
N1608 Gd1607 2.570 . S
N1608 C1610 1.343 . S
C1609 C1597 1.422 . S
C1609 C1611 1.321 . S
C1609 H1617 0.931 . S
C1610 N1608 1.343 . S
C1610 C1611 1.390 . S
C1610 H1612 0.931 . S
C1611 C1609 1.321 . S
C1611 C1610 1.390 . S
C1611 H1613 0.930 . S
H1612 C1610 0.931 . S
H1613 C1611 0.930 . S
H1614 C1637 0.931 . S
H1615 C1603 0.929 . S
H1616 C1638 0.930 . S
H1617 C1609 0.931 . S
H1618 C1599 0.930 . S
H1619 C1628 0.929 . S
H1620 C1604 0.931 . S
H1621 C1605 0.930 . S
H1622 C1660 0.930 . S
H1623 C1601 0.929 . S
H1624 C1629 0.931 . S
H1625 C1630 0.930 . S
N1626 Gd1606 2.622 . S
N1626 C1627 1.369 . S
N1626 C1628 1.338 . S
C1627 N1626 1.369 . S
C1627 C1631 1.415 . S
C1627 C1634 1.422 . S
C1628 H1619 0.929 . S
C1628 N1626 1.338 . S
C1628 C1630 1.378 . S
C1629 H1624 0.931 . S
C1629 C1630 1.348 . S
C1629 C1631 1.413 . S
C1630 H1625 0.930 . S
C1630 C1628 1.378 . S
C1630 C1629 1.348 . S
C1631 C1627 1.415 . S
C1631 C1629 1.413 . S
C1631 C1661 1.437 1_565 S
H1632 C1661 0.929 . S
N1633 Gd1606 2.570 . S
N1633 C1634 1.359 . S
N1633 C1637 1.343 . S
C1634 C1627 1.422 . S
C1634 N1633 1.359 . S
C1634 C1636 1.421 1_565 S
C1635 C1636 1.422 . S
C1635 C1638 1.321 . S
C1635 H1662 0.931 . S
C1636 C1634 1.421 1_545 S
C1636 C1635 1.422 . S
C1636 C1660 1.417 . S
C1637 H1614 0.931 . S
C1637 N1633 1.343 . S
C1637 C1638 1.390 1_565 S
C1638 H1616 0.930 . S
C1638 C1635 1.321 . S
C1638 C1637 1.390 1_545 S
O1639 Gd1607 2.386 . S
O1639 C1651 1.265 . S
O1640 Gd1606 2.353 . S
O1640 C1651 1.242 . S
O1641 Gd1606 2.468 . S
O1641 C1659 1.263 . S
O1642 Gd1606 2.427 . S
O1642 C1659 1.252 . S
O1643 Gd1607 2.307 . S
O1643 C1652 1.261 . S
O1644 Gd1606 2.388 . S
O1644 C1652 1.252 . S
O1645 Gd1606 2.386 . S
O1645 C1663 1.265 . S
O1646 Gd1607 2.353 . S
O1646 C1663 1.242 . S
O1647 Gd1607 2.468 . S
O1647 C1671 1.263 . S
O1648 Gd1607 2.427 . S
O1648 C1671 1.252 . S
O1649 Gd1606 2.307 . S
O1649 C1664 1.261 . S
O1650 Gd1607 2.388 . S
O1650 C1664 1.252 . S
C1651 O1639 1.265 . S
C1651 O1640 1.242 . S
C1652 O1643 1.261 . S
C1652 O1644 1.252 . S
C1653 C1656 1.394 . S
C1653 C1658 1.370 . S
C1653 C1659 1.500 1_545 S
C1654 C1657 1.383 . S
C1654 C1658 1.395 . S
C1655 C1656 1.396 . S
C1655 C1657 1.365 . S
C1655 H1672 0.929 . S
C1656 C1653 1.394 . S
C1656 C1655 1.396 . S
C1656 H1673 0.930 . S
C1657 C1654 1.383 . S
C1657 C1655 1.365 . S
C1657 H1674 0.931 . S
C1658 C1653 1.370 . S
C1658 C1654 1.395 . S
C1658 H1675 0.930 . S
C1659 Gd1606 2.805 . S
C1659 O1641 1.263 . S
C1659 O1642 1.252 . S
C1659 C1653 1.500 1_565 S
C1660 H1622 0.930 . S
C1660 C1636 1.417 . S
C1660 C1661 1.329 . S
C1661 C1631 1.437 1_545 S
C1661 H1632 0.929 . S
C1661 C1660 1.329 . S
H1662 C1635 0.931 . S
C1663 O1645 1.265 . S
C1663 O1646 1.242 . S
C1664 O1649 1.261 . S
C1664 O1650 1.252 . S
C1665 C1668 1.394 . S
C1665 C1670 1.370 . S
C1665 C1671 1.500 . S
C1666 C1669 1.383 . S
C1666 C1670 1.395 . S
C1667 C1668 1.396 . S
C1667 C1669 1.365 . S
C1667 H1676 0.929 . S
C1668 C1665 1.394 . S
C1668 C1667 1.396 . S
C1668 H1677 0.930 . S
C1669 C1666 1.383 . S
C1669 C1667 1.365 . S
C1669 H1678 0.931 . S
C1670 C1665 1.370 . S
C1670 C1666 1.395 . S
C1670 H1679 0.930 . S
C1671 Gd1607 2.805 . S
C1671 O1647 1.263 . S
C1671 O1648 1.252 . S
C1671 C1665 1.500 . S
H1672 C1655 0.929 . S
H1673 C1656 0.930 . S
H1674 C1657 0.931 . S
H1675 C1658 0.930 . S
H1676 C1667 0.929 . S
H1677 C1668 0.930 . S
H1678 C1669 0.931 . S
H1679 C1670 0.930 . S
C1680 C1682 1.422 . S
C1680 C1684 1.415 . S
C1680 N1686 1.369 . S
C1681 C1682 1.421 . S
C1681 C1683 1.417 1_565 S
C1681 C1693 1.422 . S
C1682 C1680 1.422 . S
C1682 C1681 1.421 . S
C1682 N1692 1.359 . S
C1683 C1681 1.417 1_545 S
C1683 C1685 1.333 . S
C1683 H1702 0.930 . S
C1684 C1680 1.415 . S
C1684 C1685 1.417 1_565 S
C1684 C1688 1.413 . S
C1685 C1683 1.333 . S
C1685 C1684 1.417 1_545 S
C1685 H1707 0.946 . S
N1686 C1680 1.369 . S
N1686 C1687 1.338 . S
N1686 Gd1691 2.622 . S
C1687 N1686 1.338 . S
C1687 C1689 1.378 . S
C1687 H1699 0.929 . S
C1688 C1684 1.413 . S
C1688 C1689 1.348 . S
C1688 H1704 0.931 . S
C1689 C1687 1.378 . S
C1689 C1688 1.348 . S
C1689 H1705 0.930 . S
Gd1690 N1710 2.622 . S
Gd1690 N1717 2.570 . S
Gd1690 O1724 2.353 . S
Gd1690 O1725 2.468 . S
Gd1690 O1726 2.427 . S
Gd1690 O1728 2.388 . S
Gd1690 O1729 2.386 . S
Gd1690 O1733 2.307 . S
Gd1690 C1743 2.805 . S
Gd1691 N1686 2.622 . S
Gd1691 N1692 2.570 . S
Gd1691 O1723 2.386 . S
Gd1691 O1727 2.307 . S
Gd1691 O1730 2.353 . S
Gd1691 O1731 2.468 . S
Gd1691 O1732 2.427 . S
Gd1691 O1734 2.388 . S
Gd1691 C1755 2.805 . S
N1692 C1682 1.359 . S
N1692 Gd1691 2.570 . S
N1692 C1694 1.343 . S
C1693 C1681 1.422 . S
C1693 C1695 1.321 . S
C1693 H1701 0.931 1_565 S
C1694 N1692 1.343 . S
C1694 C1695 1.390 . S
C1694 H1696 0.931 . S
C1695 C1693 1.321 . S
C1695 C1694 1.390 . S
C1695 H1697 0.930 . S
H1696 C1694 0.931 . S
H1697 C1695 0.930 . S
H1698 C1721 0.931 . S
H1699 C1687 0.929 . S
H1700 C1722 0.930 . S
H1701 C1693 0.931 1_545 S
H1702 C1683 0.930 . S
H1703 C1712 0.929 . S
H1704 C1688 0.931 . S
H1705 C1689 0.930 . S
H1706 C1744 0.930 . S
H1707 C1685 0.946 . S
H1708 C1713 0.931 . S
H1709 C1714 0.930 . S
N1710 Gd1690 2.622 . S
N1710 C1711 1.369 . S
N1710 C1712 1.338 . S
C1711 N1710 1.369 . S
C1711 C1715 1.415 . S
C1711 C1718 1.422 . S
C1712 H1703 0.929 . S
C1712 N1710 1.338 . S
C1712 C1714 1.378 . S
C1713 H1708 0.931 . S
C1713 C1714 1.348 . S
C1713 C1715 1.413 . S
C1714 H1709 0.930 . S
C1714 C1712 1.378 . S
C1714 C1713 1.348 . S
C1715 C1711 1.415 . S
C1715 C1713 1.413 . S
C1715 C1745 1.437 . S
H1716 C1745 0.929 . S
N1717 Gd1690 2.570 . S
N1717 C1718 1.359 . S
N1717 C1721 1.343 . S
C1718 C1711 1.422 . S
C1718 N1717 1.359 . S
C1718 C1720 1.421 . S
C1719 C1720 1.422 . S
C1719 C1722 1.321 . S
C1719 H1746 0.931 . S
C1720 C1718 1.421 . S
C1720 C1719 1.422 . S
C1720 C1744 1.417 . S
C1721 H1698 0.931 . S
C1721 N1717 1.343 . S
C1721 C1722 1.390 . S
C1722 H1700 0.930 . S
C1722 C1719 1.321 . S
C1722 C1721 1.390 . S
O1723 Gd1691 2.386 . S
O1723 C1735 1.265 . S
O1724 Gd1690 2.353 . S
O1724 C1735 1.242 . S
O1725 Gd1690 2.468 . S
O1725 C1743 1.263 . S
O1726 Gd1690 2.427 . S
O1726 C1743 1.252 . S
O1727 Gd1691 2.307 . S
O1727 C1736 1.261 . S
O1728 Gd1690 2.388 . S
O1728 C1736 1.252 . S
O1729 Gd1690 2.386 . S
O1729 C1747 1.265 . S
O1730 Gd1691 2.353 . S
O1730 C1747 1.242 . S
O1731 Gd1691 2.468 . S
O1731 C1755 1.263 . S
O1732 Gd1691 2.427 . S
O1732 C1755 1.252 . S
O1733 Gd1690 2.307 . S
O1733 C1748 1.261 . S
O1734 Gd1691 2.388 . S
O1734 C1748 1.252 . S
C1735 O1723 1.265 . S
C1735 O1724 1.242 . S
C1736 O1727 1.261 . S
C1736 O1728 1.252 . S
C1737 C1740 1.394 . S
C1737 C1742 1.370 . S
C1737 C1743 1.500 . S
C1738 C1741 1.383 1_455 S
C1738 C1742 1.395 . S
C1739 C1740 1.396 . S
C1739 C1741 1.365 1_455 S
C1739 H1756 0.929 . S
C1740 C1737 1.394 . S
C1740 C1739 1.396 . S
C1740 H1757 0.930 . S
C1741 C1738 1.383 1_655 S
C1741 C1739 1.365 1_655 S
C1741 H1758 0.931 . S
C1742 C1737 1.370 . S
C1742 C1738 1.395 . S
C1742 H1759 0.930 . S
C1743 Gd1690 2.805 . S
C1743 O1725 1.263 . S
C1743 O1726 1.252 . S
C1743 C1737 1.500 . S
C1744 H1706 0.930 . S
C1744 C1720 1.417 . S
C1744 C1745 1.329 . S
C1745 C1715 1.437 . S
C1745 H1716 0.929 . S
C1745 C1744 1.329 . S
H1746 C1719 0.931 . S
C1747 O1729 1.265 . S
C1747 O1730 1.242 . S
C1748 O1733 1.261 . S
C1748 O1734 1.252 . S
C1749 C1752 1.394 . S
C1749 C1754 1.370 . S
C1749 C1755 1.500 . S
C1750 C1753 1.383 . S
C1750 C1754 1.395 . S
C1751 C1752 1.396 . S
C1751 C1753 1.365 . S
C1751 H1760 0.929 . S
C1752 C1749 1.394 . S
C1752 C1751 1.396 . S
C1752 H1761 0.930 . S
C1753 C1750 1.383 . S
C1753 C1751 1.365 . S
C1753 H1762 0.931 . S
C1754 C1749 1.370 . S
C1754 C1750 1.395 . S
C1754 H1763 0.930 . S
C1755 Gd1691 2.805 . S
C1755 O1731 1.263 . S
C1755 O1732 1.252 . S
C1755 C1749 1.500 . S
H1756 C1739 0.929 . S
H1757 C1740 0.930 . S
H1758 C1741 0.931 . S
H1759 C1742 0.930 . S
H1760 C1751 0.929 . S
H1761 C1752 0.930 . S
H1762 C1753 0.931 . S
H1763 C1754 0.930 . S
C1764 C1766 1.422 . S
C1764 C1768 1.415 . S
C1764 N1770 1.369 . S
C1765 C1766 1.421 . S
C1765 C1767 1.417 . S
C1765 C1777 1.422 . S
C1766 C1764 1.422 . S
C1766 C1765 1.421 . S
C1766 N1776 1.359 . S
C1767 C1765 1.417 . S
C1767 C1769 1.329 . S
C1767 H1786 0.930 . S
C1768 C1764 1.415 . S
C1768 C1769 1.437 . S
C1768 C1772 1.413 . S
C1769 C1767 1.329 . S
C1769 C1768 1.437 . S
C1769 H1791 0.929 . S
N1770 C1764 1.369 . S
N1770 C1771 1.338 . S
N1770 Gd1775 2.622 . S
C1771 N1770 1.338 . S
C1771 C1773 1.378 . S
C1771 H1783 0.929 . S
C1772 C1768 1.413 . S
C1772 C1773 1.348 . S
C1772 H1788 0.931 . S
C1773 C1771 1.378 . S
C1773 C1772 1.348 . S
C1773 H1789 0.930 . S
Gd1774 N1794 2.622 . S
Gd1774 N1801 2.570 . S
Gd1774 O1808 2.353 . S
Gd1774 O1809 2.468 . S
Gd1774 O1810 2.427 . S
Gd1774 O1812 2.388 . S
Gd1774 O1813 2.386 . S
Gd1774 O1817 2.307 . S
Gd1774 C1827 2.805 . S
Gd1775 N1770 2.622 . S
Gd1775 N1776 2.570 . S
Gd1775 O1807 2.386 . S
Gd1775 O1811 2.307 . S
Gd1775 O1814 2.353 . S
Gd1775 O1815 2.468 . S
Gd1775 O1816 2.427 . S
Gd1775 O1818 2.388 . S
Gd1775 C1839 2.805 . S
N1776 C1766 1.359 . S
N1776 Gd1775 2.570 . S
N1776 C1778 1.343 . S
C1777 C1765 1.422 . S
C1777 C1779 1.321 . S
C1777 H1785 0.931 . S
C1778 N1776 1.343 . S
C1778 C1779 1.390 . S
C1778 H1780 0.931 . S
C1779 C1777 1.321 . S
C1779 C1778 1.390 . S
C1779 H1781 0.930 . S
H1780 C1778 0.931 . S
H1781 C1779 0.930 . S
H1782 C1805 0.931 . S
H1783 C1771 0.929 . S
H1784 C1806 0.930 . S
H1785 C1777 0.931 . S
H1786 C1767 0.930 . S
H1787 C1796 0.929 . S
H1788 C1772 0.931 . S
H1789 C1773 0.930 . S
H1790 C1828 0.930 . S
H1791 C1769 0.929 . S
H1792 C1797 0.932 . S
H1793 C1798 0.930 . S
N1794 Gd1774 2.622 . S
N1794 C1795 1.369 . S
N1794 C1796 1.338 . S
C1795 N1794 1.369 . S
C1795 C1799 1.415 . S
C1795 C1802 1.422 . S
C1796 H1787 0.929 . S
C1796 N1794 1.338 . S
C1796 C1798 1.378 . S
C1797 H1792 0.932 . S
C1797 C1798 1.348 . S
C1797 C1799 1.413 . S
C1798 H1793 0.930 . S
C1798 C1796 1.378 . S
C1798 C1797 1.348 . S
C1799 C1795 1.415 . S
C1799 C1797 1.413 . S
C1799 C1829 1.437 1_565 S
H1800 C1829 0.929 . S
N1801 Gd1774 2.570 . S
N1801 C1802 1.359 . S
N1801 C1805 1.343 . S
C1802 C1795 1.422 . S
C1802 N1801 1.359 . S
C1802 C1804 1.421 1_565 S
C1803 C1804 1.422 . S
C1803 C1806 1.321 . S
C1803 H1830 0.931 . S
C1804 C1802 1.421 1_545 S
C1804 C1803 1.422 . S
C1804 C1828 1.417 . S
C1805 H1782 0.931 . S
C1805 N1801 1.343 . S
C1805 C1806 1.390 1_565 S
C1806 H1784 0.930 . S
C1806 C1803 1.321 . S
C1806 C1805 1.390 1_545 S
O1807 Gd1775 2.386 . S
O1807 C1819 1.265 . S
O1808 Gd1774 2.353 . S
O1808 C1819 1.242 . S
O1809 Gd1774 2.468 . S
O1809 C1827 1.263 . S
O1810 Gd1774 2.427 . S
O1810 C1827 1.252 . S
O1811 Gd1775 2.307 . S
O1811 C1820 1.261 . S
O1812 Gd1774 2.388 . S
O1812 C1820 1.252 . S
O1813 Gd1774 2.386 . S
O1813 C1831 1.265 . S
O1814 Gd1775 2.353 . S
O1814 C1831 1.242 . S
O1815 Gd1775 2.468 . S
O1815 C1839 1.263 . S
O1816 Gd1775 2.427 . S
O1816 C1839 1.252 . S
O1817 Gd1774 2.307 . S
O1817 C1832 1.261 . S
O1818 Gd1775 2.388 . S
O1818 C1832 1.252 . S
C1819 O1807 1.265 . S
C1819 O1808 1.242 . S
C1820 O1811 1.261 . S
C1820 O1812 1.252 . S
C1821 C1824 1.394 . S
C1821 C1826 1.370 . S
C1821 C1827 1.500 . S
C1822 C1825 1.383 . S
C1822 C1826 1.395 . S
C1823 C1824 1.396 . S
C1823 C1825 1.365 . S
C1823 H1840 0.929 . S
C1824 C1821 1.394 . S
C1824 C1823 1.396 . S
C1824 H1841 0.930 . S
C1825 C1822 1.383 . S
C1825 C1823 1.365 . S
C1825 H1842 0.931 . S
C1826 C1821 1.370 . S
C1826 C1822 1.395 . S
C1826 H1843 0.930 . S
C1827 Gd1774 2.805 . S
C1827 O1809 1.263 . S
C1827 O1810 1.252 . S
C1827 C1821 1.500 . S
C1828 H1790 0.930 . S
C1828 C1804 1.417 . S
C1828 C1829 1.329 . S
C1829 C1799 1.437 1_545 S
C1829 H1800 0.929 . S
C1829 C1828 1.329 . S
H1830 C1803 0.931 . S
C1831 O1813 1.265 . S
C1831 O1814 1.242 . S
C1832 O1817 1.261 . S
C1832 O1818 1.252 . S
C1833 C1836 1.394 . S
C1833 C1838 1.370 . S
C1833 C1839 1.500 . S
C1834 C1837 1.383 . S
C1834 C1838 1.395 . S
C1835 C1836 1.396 . S
C1835 C1837 1.365 . S
C1835 H1844 0.929 . S
C1836 C1833 1.394 . S
C1836 C1835 1.396 . S
C1836 H1845 0.930 . S
C1837 C1834 1.383 . S
C1837 C1835 1.365 . S
C1837 H1846 0.931 . S
C1838 C1833 1.370 . S
C1838 C1834 1.395 . S
C1838 H1847 0.930 . S
C1839 Gd1775 2.805 . S
C1839 O1815 1.263 . S
C1839 O1816 1.252 . S
C1839 C1833 1.500 . S
H1840 C1823 0.929 . S
H1841 C1824 0.930 . S
H1842 C1825 0.931 . S
H1843 C1826 0.930 . S
H1844 C1835 0.929 . S
H1845 C1836 0.930 . S
H1846 C1837 0.931 . S
H1847 C1838 0.930 . S
C1848 C1850 1.422 . S
C1848 C1852 1.415 . S
C1848 N1854 1.369 . S
C1849 C1850 1.421 . S
C1849 C1851 1.417 . S
C1849 C1861 1.422 . S
C1850 C1848 1.422 . S
C1850 C1849 1.421 . S
C1850 N1860 1.359 . S
C1851 C1849 1.417 . S
C1851 C1853 1.329 . S
C1851 H1870 0.930 . S
C1852 C1848 1.415 . S
C1852 C1853 1.437 . S
C1852 C1856 1.413 . S
C1853 C1851 1.329 . S
C1853 C1852 1.437 . S
C1853 H1875 0.929 . S
N1854 C1848 1.369 . S
N1854 C1855 1.338 . S
N1854 Gd1859 2.622 . S
C1855 N1854 1.338 . S
C1855 C1857 1.378 . S
C1855 H1867 0.929 . S
C1856 C1852 1.413 . S
C1856 C1857 1.348 . S
C1856 H1872 0.931 . S
C1857 C1855 1.378 . S
C1857 C1856 1.348 . S
C1857 H1873 0.930 . S
Gd1858 N1878 2.622 . S
Gd1858 N1885 2.570 . S
Gd1858 O1892 2.353 . S
Gd1858 O1893 2.468 . S
Gd1858 O1894 2.427 . S
Gd1858 O1896 2.388 . S
Gd1858 O1897 2.386 . S
Gd1858 O1901 2.307 . S
Gd1858 C1911 2.805 . S
Gd1859 N1854 2.622 . S
Gd1859 N1860 2.570 . S
Gd1859 O1891 2.386 . S
Gd1859 O1895 2.307 . S
Gd1859 O1898 2.353 . S
Gd1859 O1899 2.468 . S
Gd1859 O1900 2.427 . S
Gd1859 O1902 2.388 . S
Gd1859 C1923 2.805 . S
N1860 C1850 1.359 . S
N1860 Gd1859 2.570 . S
N1860 C1862 1.343 . S
C1861 C1849 1.422 . S
C1861 C1863 1.321 . S
C1861 H1869 0.931 . S
C1862 N1860 1.343 . S
C1862 C1863 1.390 . S
C1862 H1864 0.931 . S
C1863 C1861 1.321 . S
C1863 C1862 1.390 . S
C1863 H1865 0.930 . S
H1864 C1862 0.931 . S
H1865 C1863 0.930 . S
H1866 C1889 0.931 . S
H1867 C1855 0.929 . S
H1868 C1890 0.930 . S
H1869 C1861 0.931 . S
H1870 C1851 0.930 . S
H1871 C1880 0.929 . S
H1872 C1856 0.931 . S
H1873 C1857 0.930 . S
H1874 C1912 0.930 . S
H1875 C1853 0.929 . S
H1876 C1881 0.931 . S
H1877 C1882 0.930 . S
N1878 Gd1858 2.622 . S
N1878 C1879 1.369 . S
N1878 C1880 1.338 . S
C1879 N1878 1.369 . S
C1879 C1883 1.415 . S
C1879 C1886 1.422 . S
C1880 H1871 0.929 . S
C1880 N1878 1.338 . S
C1880 C1882 1.378 . S
C1881 H1876 0.931 . S
C1881 C1882 1.348 . S
C1881 C1883 1.413 . S
C1882 H1877 0.930 . S
C1882 C1880 1.378 . S
C1882 C1881 1.348 . S
C1883 C1879 1.415 . S
C1883 C1881 1.413 . S
C1883 C1913 1.437 . S
H1884 C1913 0.929 . S
N1885 Gd1858 2.570 . S
N1885 C1886 1.359 . S
N1885 C1889 1.343 . S
C1886 C1879 1.422 . S
C1886 N1885 1.359 . S
C1886 C1888 1.421 . S
C1887 C1888 1.422 . S
C1887 C1890 1.321 . S
C1887 H1914 0.931 . S
C1888 C1886 1.421 . S
C1888 C1887 1.422 . S
C1888 C1912 1.417 . S
C1889 H1866 0.931 . S
C1889 N1885 1.343 . S
C1889 C1890 1.390 . S
C1890 H1868 0.930 . S
C1890 C1887 1.321 . S
C1890 C1889 1.390 . S
O1891 Gd1859 2.386 . S
O1891 C1903 1.265 . S
O1892 Gd1858 2.353 . S
O1892 C1903 1.242 . S
O1893 Gd1858 2.468 . S
O1893 C1911 1.263 . S
O1894 Gd1858 2.427 . S
O1894 C1911 1.252 . S
O1895 Gd1859 2.307 . S
O1895 C1904 1.261 . S
O1896 Gd1858 2.388 . S
O1896 C1904 1.252 . S
O1897 Gd1858 2.386 . S
O1897 C1915 1.265 . S
O1898 Gd1859 2.353 . S
O1898 C1915 1.242 . S
O1899 Gd1859 2.468 . S
O1899 C1923 1.263 . S
O1900 Gd1859 2.427 . S
O1900 C1923 1.252 . S
O1901 Gd1858 2.307 . S
O1901 C1916 1.261 . S
O1902 Gd1859 2.388 . S
O1902 C1916 1.252 . S
C1903 O1891 1.265 . S
C1903 O1892 1.242 . S
C1904 O1895 1.261 . S
C1904 O1896 1.252 . S
C1905 C1908 1.394 . S
C1905 C1910 1.370 . S
C1905 C1911 1.500 . S
C1906 C1909 1.383 . S
C1906 C1910 1.395 . S
C1907 C1908 1.396 . S
C1907 C1909 1.365 . S
C1907 H1924 0.929 . S
C1908 C1905 1.394 . S
C1908 C1907 1.396 . S
C1908 H1925 0.930 . S
C1909 C1906 1.383 . S
C1909 C1907 1.365 . S
C1909 H1926 0.931 . S
C1910 C1905 1.370 . S
C1910 C1906 1.395 . S
C1910 H1927 0.930 . S
C1911 Gd1858 2.805 . S
C1911 O1893 1.263 . S
C1911 O1894 1.252 . S
C1911 C1905 1.500 . S
C1912 H1874 0.930 . S
C1912 C1888 1.417 . S
C1912 C1913 1.329 . S
C1913 C1883 1.437 . S
C1913 H1884 0.929 . S
C1913 C1912 1.329 . S
H1914 C1887 0.931 . S
C1915 O1897 1.265 . S
C1915 O1898 1.242 . S
C1916 O1901 1.261 . S
C1916 O1902 1.252 . S
C1917 C1920 1.394 . S
C1917 C1922 1.370 . S
C1917 C1923 1.500 . S
C1918 C1921 1.383 . S
C1918 C1922 1.395 1_545 S
C1919 C1920 1.396 1_545 S
C1919 C1921 1.365 . S
C1919 H1928 0.929 . S
C1920 C1917 1.394 . S
C1920 C1919 1.396 1_565 S
C1920 H1929 0.930 . S
C1921 C1918 1.383 . S
C1921 C1919 1.365 . S
C1921 H1930 0.931 . S
C1922 C1917 1.370 . S
C1922 C1918 1.395 1_565 S
C1922 H1931 0.930 . S
C1923 Gd1859 2.805 . S
C1923 O1899 1.263 . S
C1923 O1900 1.252 . S
C1923 C1917 1.500 . S
H1924 C1907 0.929 . S
H1925 C1908 0.930 . S
H1926 C1909 0.931 . S
H1927 C1910 0.930 . S
H1928 C1919 0.929 . S
H1929 C1920 0.930 . S
H1930 C1921 0.931 . S
H1931 C1922 0.930 . S
C1932 C1934 1.422 . S
C1932 C1936 1.415 . S
C1932 N1938 1.369 . S
C1933 C1934 1.421 . S
C1933 C1935 1.417 . S
C1933 C1945 1.422 . S
C1934 C1932 1.422 . S
C1934 C1933 1.421 . S
C1934 N1944 1.359 . S
C1935 C1933 1.417 . S
C1935 C1937 1.329 . S
C1935 H1954 0.930 . S
C1936 C1932 1.415 . S
C1936 C1937 1.437 . S
C1936 C1940 1.413 . S
C1937 C1935 1.329 . S
C1937 C1936 1.437 . S
C1937 H1959 0.929 . S
N1938 C1932 1.369 . S
N1938 C1939 1.338 . S
N1938 Gd1943 2.622 . S
C1939 N1938 1.338 . S
C1939 C1941 1.378 . S
C1939 H1951 0.929 . S
C1940 C1936 1.413 . S
C1940 C1941 1.348 . S
C1940 H1956 0.931 . S
C1941 C1939 1.378 . S
C1941 C1940 1.348 . S
C1941 H1957 0.930 . S
Gd1942 N1962 2.622 . S
Gd1942 N1969 2.570 . S
Gd1942 O1976 2.353 . S
Gd1942 O1977 2.468 . S
Gd1942 O1978 2.427 . S
Gd1942 O1980 2.388 . S
Gd1942 O1981 2.386 . S
Gd1942 O1985 2.307 . S
Gd1942 C1995 2.805 . S
Gd1943 N1938 2.622 . S
Gd1943 N1944 2.570 . S
Gd1943 O1975 2.386 . S
Gd1943 O1979 2.307 . S
Gd1943 O1982 2.353 . S
Gd1943 O1983 2.468 . S
Gd1943 O1984 2.427 . S
Gd1943 O1986 2.388 . S
Gd1943 C2007 2.805 . S
N1944 C1934 1.359 . S
N1944 Gd1943 2.570 . S
N1944 C1946 1.343 . S
C1945 C1933 1.422 . S
C1945 C1947 1.321 . S
C1945 H1953 0.931 . S
C1946 N1944 1.343 . S
C1946 C1947 1.390 . S
C1946 H1948 0.931 . S
C1947 C1945 1.321 . S
C1947 C1946 1.390 . S
C1947 H1949 0.930 . S
H1948 C1946 0.931 . S
H1949 C1947 0.930 . S
H1950 C1973 0.931 . S
H1951 C1939 0.929 . S
H1952 C1974 0.930 . S
H1953 C1945 0.931 . S
H1954 C1935 0.930 . S
H1955 C1964 0.929 . S
H1956 C1940 0.931 . S
H1957 C1941 0.930 . S
H1958 C1996 0.930 . S
H1959 C1937 0.929 . S
H1960 C1965 0.931 . S
H1961 C1966 0.930 . S
N1962 Gd1942 2.622 . S
N1962 C1963 1.369 . S
N1962 C1964 1.338 . S
C1963 N1962 1.369 . S
C1963 C1967 1.415 . S
C1963 C1970 1.422 . S
C1964 H1955 0.929 . S
C1964 N1962 1.338 . S
C1964 C1966 1.378 . S
C1965 H1960 0.931 . S
C1965 C1966 1.348 . S
C1965 C1967 1.413 . S
C1966 H1961 0.930 . S
C1966 C1964 1.378 . S
C1966 C1965 1.348 . S
C1967 C1963 1.415 . S
C1967 C1965 1.413 . S
C1967 C1997 1.437 . S
H1968 C1997 0.929 . S
N1969 Gd1942 2.570 . S
N1969 C1970 1.359 . S
N1969 C1973 1.343 . S
C1970 C1963 1.422 . S
C1970 N1969 1.359 . S
C1970 C1972 1.421 . S
C1971 C1972 1.422 . S
C1971 C1974 1.321 . S
C1971 H1998 0.931 . S
C1972 C1970 1.421 . S
C1972 C1971 1.422 . S
C1972 C1996 1.417 . S
C1973 H1950 0.931 . S
C1973 N1969 1.343 . S
C1973 C1974 1.390 . S
C1974 H1952 0.930 . S
C1974 C1971 1.321 . S
C1974 C1973 1.390 . S
O1975 Gd1943 2.386 . S
O1975 C1987 1.265 . S
O1976 Gd1942 2.353 . S
O1976 C1987 1.242 . S
O1977 Gd1942 2.468 . S
O1977 C1995 1.263 . S
O1978 Gd1942 2.427 . S
O1978 C1995 1.252 . S
O1979 Gd1943 2.307 . S
O1979 C1988 1.261 . S
O1980 Gd1942 2.388 . S
O1980 C1988 1.252 . S
O1981 Gd1942 2.386 . S
O1981 C1999 1.265 . S
O1982 Gd1943 2.353 . S
O1982 C1999 1.242 . S
O1983 Gd1943 2.468 . S
O1983 C2007 1.263 . S
O1984 Gd1943 2.427 . S
O1984 C2007 1.252 . S
O1985 Gd1942 2.307 . S
O1985 C2000 1.261 . S
O1986 Gd1943 2.388 . S
O1986 C2000 1.252 . S
C1987 O1975 1.265 . S
C1987 O1976 1.242 . S
C1988 O1979 1.261 . S
C1988 O1980 1.252 . S
C1989 C1992 1.394 . S
C1989 C1994 1.370 . S
C1989 C1995 1.500 . S
C1990 C1993 1.383 . S
C1990 C1994 1.395 . S
C1991 C1992 1.396 . S
C1991 C1993 1.365 . S
C1991 H2008 0.929 . S
C1992 C1989 1.394 . S
C1992 C1991 1.396 . S
C1992 H2009 0.930 . S
C1993 C1990 1.383 . S
C1993 C1991 1.365 . S
C1993 H2010 0.931 . S
C1994 C1989 1.370 . S
C1994 C1990 1.395 . S
C1994 H2011 0.930 . S
C1995 Gd1942 2.805 . S
C1995 O1977 1.263 . S
C1995 O1978 1.252 . S
C1995 C1989 1.500 . S
C1996 H1958 0.930 . S
C1996 C1972 1.417 . S
C1996 C1997 1.329 . S
C1997 C1967 1.437 . S
C1997 H1968 0.929 . S
C1997 C1996 1.329 . S
H1998 C1971 0.931 . S
C1999 O1981 1.265 . S
C1999 O1982 1.242 . S
C2000 O1985 1.261 . S
C2000 O1986 1.252 . S
C2001 C2004 1.394 . S
C2001 C2006 1.370 . S
C2001 C2007 1.500 . S
C2002 C2005 1.383 . S
C2002 C2006 1.395 . S
C2003 C2004 1.396 . S
C2003 C2005 1.365 . S
C2003 H2012 0.929 . S
C2004 C2001 1.394 . S
C2004 C2003 1.396 . S
C2004 H2013 0.930 . S
C2005 C2002 1.383 . S
C2005 C2003 1.365 . S
C2005 H2014 0.931 . S
C2006 C2001 1.370 . S
C2006 C2002 1.395 . S
C2006 H2015 0.930 . S
C2007 Gd1943 2.805 . S
C2007 O1983 1.263 . S
C2007 O1984 1.252 . S
C2007 C2001 1.500 . S
H2008 C1991 0.929 . S
H2009 C1992 0.930 . S
H2010 C1993 0.931 . S
H2011 C1994 0.930 . S
H2012 C2003 0.929 . S
H2013 C2004 0.930 . S
H2014 C2005 0.931 . S
H2015 C2006 0.930 . S
C2016 C2018 1.422 . S
C2016 C2020 1.415 . S
C2016 N2022 1.369 . S
C2017 C2018 1.421 . S
C2017 C2019 1.417 . S
C2017 C2029 1.422 . S
C2018 C2016 1.422 . S
C2018 C2017 1.421 . S
C2018 N2028 1.359 . S
C2019 C2017 1.417 . S
C2019 C2021 1.329 . S
C2019 H2038 0.930 . S
C2020 C2016 1.415 . S
C2020 C2021 1.437 . S
C2020 C2024 1.413 . S
C2021 C2019 1.329 . S
C2021 C2020 1.437 . S
C2021 H2043 0.929 . S
N2022 C2016 1.369 . S
N2022 C2023 1.338 . S
N2022 Gd2027 2.622 . S
C2023 N2022 1.338 . S
C2023 C2025 1.378 . S
C2023 H2035 0.929 . S
C2024 C2020 1.413 . S
C2024 C2025 1.348 . S
C2024 H2040 0.931 . S
C2025 C2023 1.378 . S
C2025 C2024 1.348 . S
C2025 H2041 0.930 . S
Gd2026 N2046 2.622 . S
Gd2026 N2053 2.570 . S
Gd2026 O2060 2.353 . S
Gd2026 O2061 2.468 . S
Gd2026 O2062 2.427 . S
Gd2026 O2064 2.388 . S
Gd2026 O2065 2.386 . S
Gd2026 O2069 2.307 . S
Gd2026 C2079 2.805 . S
Gd2027 N2022 2.622 . S
Gd2027 N2028 2.570 . S
Gd2027 O2059 2.386 . S
Gd2027 O2063 2.307 . S
Gd2027 O2066 2.353 . S
Gd2027 O2067 2.468 . S
Gd2027 O2068 2.427 . S
Gd2027 O2070 2.388 . S
Gd2027 C2091 2.805 . S
N2028 C2018 1.359 . S
N2028 Gd2027 2.570 . S
N2028 C2030 1.343 . S
C2029 C2017 1.422 . S
C2029 C2031 1.321 . S
C2029 H2037 0.931 . S
C2030 N2028 1.343 . S
C2030 C2031 1.390 . S
C2030 H2032 0.931 . S
C2031 C2029 1.321 . S
C2031 C2030 1.390 . S
C2031 H2033 0.930 . S
H2032 C2030 0.931 . S
H2033 C2031 0.930 . S
H2034 C2057 0.931 . S
H2035 C2023 0.929 . S
H2036 C2058 0.930 . S
H2037 C2029 0.931 . S
H2038 C2019 0.930 . S
H2039 C2048 0.929 . S
H2040 C2024 0.931 . S
H2041 C2025 0.930 . S
H2042 C2080 0.930 . S
H2043 C2021 0.929 . S
H2044 C2049 0.931 . S
H2045 C2050 0.930 . S
N2046 Gd2026 2.622 . S
N2046 C2047 1.369 . S
N2046 C2048 1.338 . S
C2047 N2046 1.369 . S
C2047 C2051 1.415 . S
C2047 C2054 1.422 . S
C2048 H2039 0.929 . S
C2048 N2046 1.338 . S
C2048 C2050 1.378 . S
C2049 H2044 0.931 . S
C2049 C2050 1.348 . S
C2049 C2051 1.413 . S
C2050 H2045 0.930 . S
C2050 C2048 1.378 . S
C2050 C2049 1.348 . S
C2051 C2047 1.415 . S
C2051 C2049 1.413 . S
C2051 C2081 1.436 1_655 S
H2052 C2081 0.930 . S
N2053 Gd2026 2.570 . S
N2053 C2054 1.359 . S
N2053 C2057 1.343 . S
C2054 C2047 1.422 . S
C2054 N2053 1.359 . S
C2054 C2056 1.421 . S
C2055 C2056 1.422 . S
C2055 C2058 1.321 . S
C2055 H2082 0.931 1_655 S
C2056 C2054 1.421 . S
C2056 C2055 1.422 . S
C2056 C2080 1.417 1_655 S
C2057 H2034 0.931 . S
C2057 N2053 1.343 . S
C2057 C2058 1.390 . S
C2058 H2036 0.930 . S
C2058 C2055 1.321 . S
C2058 C2057 1.390 . S
O2059 Gd2027 2.386 . S
O2059 C2071 1.265 . S
O2060 Gd2026 2.353 . S
O2060 C2071 1.242 . S
O2061 Gd2026 2.468 . S
O2061 C2079 1.263 . S
O2062 Gd2026 2.427 . S
O2062 C2079 1.252 . S
O2063 Gd2027 2.307 . S
O2063 C2072 1.261 . S
O2064 Gd2026 2.388 . S
O2064 C2072 1.252 . S
O2065 Gd2026 2.386 . S
O2065 C2083 1.265 . S
O2066 Gd2027 2.353 . S
O2066 C2083 1.242 . S
O2067 Gd2027 2.468 . S
O2067 C2091 1.263 . S
O2068 Gd2027 2.427 . S
O2068 C2091 1.252 . S
O2069 Gd2026 2.307 . S
O2069 C2084 1.261 . S
O2070 Gd2027 2.388 . S
O2070 C2084 1.252 . S
C2071 O2059 1.265 . S
C2071 O2060 1.242 . S
C2072 O2063 1.261 . S
C2072 O2064 1.252 . S
C2073 C2076 1.394 . S
C2073 C2078 1.370 . S
C2073 C2079 1.500 . S
C2074 C2077 1.383 . S
C2074 C2078 1.395 . S
C2075 C2076 1.396 . S
C2075 C2077 1.365 . S
C2075 H2092 0.929 . S
C2076 C2073 1.394 . S
C2076 C2075 1.396 . S
C2076 H2093 0.930 . S
C2077 C2074 1.383 . S
C2077 C2075 1.365 . S
C2077 H2094 0.931 . S
C2078 C2073 1.370 . S
C2078 C2074 1.395 . S
C2078 H2095 0.930 . S
C2079 Gd2026 2.805 . S
C2079 O2061 1.263 . S
C2079 O2062 1.252 . S
C2079 C2073 1.500 . S
C2080 H2042 0.930 . S
C2080 C2056 1.417 1_455 S
C2080 C2081 1.329 . S
C2081 C2051 1.436 1_455 S
C2081 H2052 0.930 . S
C2081 C2080 1.329 . S
H2082 C2055 0.931 1_455 S
C2083 O2065 1.265 . S
C2083 O2066 1.242 . S
C2084 O2069 1.261 . S
C2084 O2070 1.252 . S
C2085 C2088 1.394 . S
C2085 C2090 1.370 . S
C2085 C2091 1.500 . S
C2086 C2089 1.383 . S
C2086 C2090 1.395 . S
C2087 C2088 1.396 . S
C2087 C2089 1.365 . S
C2087 H2096 0.929 . S
C2088 C2085 1.394 . S
C2088 C2087 1.396 . S
C2088 H2097 0.930 . S
C2089 C2086 1.383 . S
C2089 C2087 1.365 . S
C2089 H2098 0.931 . S
C2090 C2085 1.370 . S
C2090 C2086 1.395 . S
C2090 H2099 0.930 . S
C2091 Gd2027 2.805 . S
C2091 O2067 1.263 . S
C2091 O2068 1.252 . S
C2091 C2085 1.500 . S
H2092 C2075 0.929 . S
H2093 C2076 0.930 . S
H2094 C2077 0.931 . S
H2095 C2078 0.930 . S
H2096 C2087 0.929 . S
H2097 C2088 0.930 . S
H2098 C2089 0.931 . S
H2099 C2090 0.930 . S
C2100 C2102 1.422 . S
C2100 C2104 1.415 . S
C2100 N2106 1.369 . S
C2101 C2102 1.421 . S
C2101 C2103 1.417 . S
C2101 C2113 1.422 . S
C2102 C2100 1.422 . S
C2102 C2101 1.421 . S
C2102 N2112 1.359 . S
C2103 C2101 1.417 . S
C2103 C2105 1.329 . S
C2103 H2122 0.930 . S
C2104 C2100 1.415 . S
C2104 C2105 1.437 . S
C2104 C2108 1.413 . S
C2105 C2103 1.329 . S
C2105 C2104 1.437 . S
C2105 H2127 0.929 . S
N2106 C2100 1.369 . S
N2106 C2107 1.338 . S
N2106 Gd2111 2.622 . S
C2107 N2106 1.338 . S
C2107 C2109 1.378 . S
C2107 H2119 0.929 . S
C2108 C2104 1.413 . S
C2108 C2109 1.348 . S
C2108 H2124 0.931 . S
C2109 C2107 1.378 . S
C2109 C2108 1.348 . S
C2109 H2125 0.930 . S
Gd2110 N2130 2.622 . S
Gd2110 N2137 2.570 . S
Gd2110 O2144 2.353 . S
Gd2110 O2145 2.468 . S
Gd2110 O2146 2.427 . S
Gd2110 O2148 2.388 . S
Gd2110 O2149 2.386 . S
Gd2110 O2153 2.307 . S
Gd2110 C2163 2.805 . S
Gd2111 N2106 2.622 . S
Gd2111 N2112 2.570 . S
Gd2111 O2143 2.386 . S
Gd2111 O2147 2.307 . S
Gd2111 O2150 2.353 . S
Gd2111 O2151 2.468 . S
Gd2111 O2152 2.427 . S
Gd2111 O2154 2.388 . S
Gd2111 C2175 2.805 . S
N2112 C2102 1.359 . S
N2112 Gd2111 2.570 . S
N2112 C2114 1.343 . S
C2113 C2101 1.422 . S
C2113 C2115 1.321 . S
C2113 H2121 0.931 . S
C2114 N2112 1.343 . S
C2114 C2115 1.390 . S
C2114 H2116 0.931 . S
C2115 C2113 1.321 . S
C2115 C2114 1.390 . S
C2115 H2117 0.930 . S
H2116 C2114 0.931 . S
H2117 C2115 0.930 . S
H2118 C2141 0.931 . S
H2119 C2107 0.929 . S
H2120 C2142 0.930 . S
H2121 C2113 0.931 . S
H2122 C2103 0.930 . S
H2123 C2132 0.929 . S
H2124 C2108 0.931 . S
H2125 C2109 0.930 . S
H2126 C2164 0.930 . S
H2127 C2105 0.929 . S
H2128 C2133 0.931 . S
H2129 C2134 0.930 . S
N2130 Gd2110 2.622 . S
N2130 C2131 1.369 . S
N2130 C2132 1.338 . S
C2131 N2130 1.369 . S
C2131 C2135 1.415 . S
C2131 C2138 1.422 . S
C2132 H2123 0.929 . S
C2132 N2130 1.338 . S
C2132 C2134 1.378 . S
C2133 H2128 0.931 . S
C2133 C2134 1.348 . S
C2133 C2135 1.413 . S
C2134 H2129 0.930 . S
C2134 C2132 1.378 . S
C2134 C2133 1.348 . S
C2135 C2131 1.415 . S
C2135 C2133 1.413 . S
C2135 C2165 1.437 . S
H2136 C2165 0.929 . S
N2137 Gd2110 2.570 . S
N2137 C2138 1.359 . S
N2137 C2141 1.343 . S
C2138 C2131 1.422 . S
C2138 N2137 1.359 . S
C2138 C2140 1.421 . S
C2139 C2140 1.422 . S
C2139 C2142 1.321 . S
C2139 H2166 0.931 . S
C2140 C2138 1.421 . S
C2140 C2139 1.422 . S
C2140 C2164 1.417 . S
C2141 H2118 0.931 . S
C2141 N2137 1.343 . S
C2141 C2142 1.390 . S
C2142 H2120 0.930 . S
C2142 C2139 1.321 . S
C2142 C2141 1.390 . S
O2143 Gd2111 2.386 . S
O2143 C2155 1.265 . S
O2144 Gd2110 2.353 . S
O2144 C2155 1.242 . S
O2145 Gd2110 2.468 . S
O2145 C2163 1.263 . S
O2146 Gd2110 2.427 . S
O2146 C2163 1.252 . S
O2147 Gd2111 2.307 . S
O2147 C2156 1.261 . S
O2148 Gd2110 2.388 . S
O2148 C2156 1.252 . S
O2149 Gd2110 2.386 . S
O2149 C2167 1.265 . S
O2150 Gd2111 2.353 . S
O2150 C2167 1.242 . S
O2151 Gd2111 2.468 . S
O2151 C2175 1.263 . S
O2152 Gd2111 2.427 . S
O2152 C2175 1.252 . S
O2153 Gd2110 2.307 . S
O2153 C2168 1.261 . S
O2154 Gd2111 2.388 . S
O2154 C2168 1.252 . S
C2155 O2143 1.265 . S
C2155 O2144 1.242 . S
C2156 O2147 1.261 . S
C2156 O2148 1.252 . S
C2157 C2160 1.394 . S
C2157 C2162 1.370 . S
C2157 C2163 1.500 . S
C2158 C2161 1.383 . S
C2158 C2162 1.395 . S
C2159 C2160 1.396 . S
C2159 C2161 1.365 . S
C2159 H2176 0.929 . S
C2160 C2157 1.394 . S
C2160 C2159 1.396 . S
C2160 H2177 0.930 . S
C2161 C2158 1.383 . S
C2161 C2159 1.365 . S
C2161 H2178 0.931 . S
C2162 C2157 1.370 . S
C2162 C2158 1.395 . S
C2162 H2179 0.930 . S
C2163 Gd2110 2.805 . S
C2163 O2145 1.263 . S
C2163 O2146 1.252 . S
C2163 C2157 1.500 . S
C2164 H2126 0.930 . S
C2164 C2140 1.417 . S
C2164 C2165 1.329 . S
C2165 C2135 1.437 . S
C2165 H2136 0.929 . S
C2165 C2164 1.329 . S
H2166 C2139 0.931 . S
C2167 O2149 1.265 . S
C2167 O2150 1.242 . S
C2168 O2153 1.261 . S
C2168 O2154 1.252 . S
C2169 C2172 1.394 . S
C2169 C2174 1.370 . S
C2169 C2175 1.500 . S
C2170 C2173 1.383 1_545 S
C2170 C2174 1.395 . S
C2171 C2172 1.396 . S
C2171 C2173 1.365 1_545 S
C2171 H2180 0.929 . S
C2172 C2169 1.394 . S
C2172 C2171 1.396 . S
C2172 H2181 0.930 . S
C2173 C2170 1.383 1_565 S
C2173 C2171 1.365 1_565 S
C2173 H2182 0.931 . S
C2174 C2169 1.370 . S
C2174 C2170 1.395 . S
C2174 H2183 0.930 . S
C2175 Gd2111 2.805 . S
C2175 O2151 1.263 . S
C2175 O2152 1.252 . S
C2175 C2169 1.500 . S
H2176 C2159 0.929 . S
H2177 C2160 0.930 . S
H2178 C2161 0.931 . S
H2179 C2162 0.930 . S
H2180 C2171 0.929 . S
H2181 C2172 0.930 . S
H2182 C2173 0.931 . S
H2183 C2174 0.930 . S
C2184 C2186 1.422 . S
C2184 C2188 1.415 . S
C2184 N2190 1.369 . S
C2185 C2186 1.421 1_455 S
C2185 C2187 1.417 . S
C2185 C2197 1.422 . S
C2186 C2184 1.422 . S
C2186 C2185 1.421 1_655 S
C2186 N2196 1.359 . S
C2187 C2185 1.417 . S
C2187 C2189 1.329 . S
C2187 H2206 0.930 . S
C2188 C2184 1.415 . S
C2188 C2189 1.437 1_655 S
C2188 C2192 1.413 . S
C2189 C2187 1.329 . S
C2189 C2188 1.437 1_455 S
C2189 H2211 0.929 . S
N2190 C2184 1.369 . S
N2190 C2191 1.338 . S
N2190 Gd2195 2.622 . S
C2191 N2190 1.338 . S
C2191 C2193 1.378 . S
C2191 H2203 0.929 . S
C2192 C2188 1.413 . S
C2192 C2193 1.348 . S
C2192 H2208 0.931 . S
C2193 C2191 1.378 . S
C2193 C2192 1.348 . S
C2193 H2209 0.930 . S
Gd2194 N2214 2.622 . S
Gd2194 N2221 2.570 . S
Gd2194 O2228 2.353 . S
Gd2194 O2229 2.468 . S
Gd2194 O2230 2.427 . S
Gd2194 O2232 2.388 . S
Gd2194 O2233 2.386 . S
Gd2194 O2237 2.307 . S
Gd2194 C2247 2.805 . S
Gd2195 N2190 2.622 . S
Gd2195 N2196 2.570 . S
Gd2195 O2227 2.386 . S
Gd2195 O2231 2.307 . S
Gd2195 O2234 2.353 . S
Gd2195 O2235 2.468 . S
Gd2195 O2236 2.427 . S
Gd2195 O2238 2.388 . S
Gd2195 C2259 2.805 . S
N2196 C2186 1.359 . S
N2196 Gd2195 2.570 . S
N2196 C2198 1.343 . S
C2197 C2185 1.422 . S
C2197 C2199 1.321 . S
C2197 H2205 0.931 . S
C2198 N2196 1.343 . S
C2198 C2199 1.390 1_655 S
C2198 H2200 0.931 . S
C2199 C2197 1.321 . S
C2199 C2198 1.390 1_455 S
C2199 H2201 0.930 . S
H2200 C2198 0.931 . S
H2201 C2199 0.930 . S
H2202 C2225 0.931 . S
H2203 C2191 0.929 . S
H2204 C2226 0.930 . S
H2205 C2197 0.931 . S
H2206 C2187 0.930 . S
H2207 C2216 0.929 . S
H2208 C2192 0.931 . S
H2209 C2193 0.930 . S
H2210 C2248 0.930 . S
H2211 C2189 0.929 . S
H2212 C2217 0.931 . S
H2213 C2218 0.930 . S
N2214 Gd2194 2.622 . S
N2214 C2215 1.369 . S
N2214 C2216 1.338 . S
C2215 N2214 1.369 . S
C2215 C2219 1.415 . S
C2215 C2222 1.422 . S
C2216 H2207 0.929 . S
C2216 N2214 1.338 . S
C2216 C2218 1.378 . S
C2217 H2212 0.931 . S
C2217 C2218 1.348 . S
C2217 C2219 1.413 . S
C2218 H2213 0.930 . S
C2218 C2216 1.378 . S
C2218 C2217 1.348 . S
C2219 C2215 1.415 . S
C2219 C2217 1.413 . S
C2219 C2249 1.437 . S
H2220 C2249 0.929 . S
N2221 Gd2194 2.570 . S
N2221 C2222 1.359 . S
N2221 C2225 1.343 . S
C2222 C2215 1.422 . S
C2222 N2221 1.359 . S
C2222 C2224 1.421 . S
C2223 C2224 1.422 . S
C2223 C2226 1.321 . S
C2223 H2250 0.931 . S
C2224 C2222 1.421 . S
C2224 C2223 1.422 . S
C2224 C2248 1.417 . S
C2225 H2202 0.931 . S
C2225 N2221 1.343 . S
C2225 C2226 1.390 . S
C2226 H2204 0.930 . S
C2226 C2223 1.321 . S
C2226 C2225 1.390 . S
O2227 Gd2195 2.386 . S
O2227 C2239 1.265 . S
O2228 Gd2194 2.353 . S
O2228 C2239 1.242 . S
O2229 Gd2194 2.468 . S
O2229 C2247 1.263 . S
O2230 Gd2194 2.427 . S
O2230 C2247 1.252 . S
O2231 Gd2195 2.307 . S
O2231 C2240 1.261 . S
O2232 Gd2194 2.388 . S
O2232 C2240 1.252 . S
O2233 Gd2194 2.386 . S
O2233 C2251 1.265 . S
O2234 Gd2195 2.353 . S
O2234 C2251 1.242 . S
O2235 Gd2195 2.468 . S
O2235 C2259 1.263 . S
O2236 Gd2195 2.427 . S
O2236 C2259 1.252 . S
O2237 Gd2194 2.307 . S
O2237 C2252 1.261 . S
O2238 Gd2195 2.388 . S
O2238 C2252 1.252 . S
C2239 O2227 1.265 . S
C2239 O2228 1.242 . S
C2240 O2231 1.261 . S
C2240 O2232 1.252 . S
C2241 C2244 1.394 . S
C2241 C2246 1.370 . S
C2241 C2247 1.500 . S
C2242 C2245 1.383 . S
C2242 C2246 1.395 . S
C2243 C2244 1.396 . S
C2243 C2245 1.365 . S
C2243 H2260 0.929 . S
C2244 C2241 1.394 . S
C2244 C2243 1.396 . S
C2244 H2261 0.930 . S
C2245 C2242 1.383 . S
C2245 C2243 1.365 . S
C2245 H2262 0.931 . S
C2246 C2241 1.370 . S
C2246 C2242 1.395 . S
C2246 H2263 0.930 . S
C2247 Gd2194 2.805 . S
C2247 O2229 1.263 . S
C2247 O2230 1.252 . S
C2247 C2241 1.500 . S
C2248 H2210 0.930 . S
C2248 C2224 1.417 . S
C2248 C2249 1.329 . S
C2249 C2219 1.437 . S
C2249 H2220 0.929 . S
C2249 C2248 1.329 . S
H2250 C2223 0.931 . S
C2251 O2233 1.265 . S
C2251 O2234 1.242 . S
C2252 O2237 1.261 . S
C2252 O2238 1.252 . S
C2253 C2256 1.394 . S
C2253 C2258 1.370 . S
C2253 C2259 1.500 1_455 S
C2254 C2257 1.383 . S
C2254 C2258 1.395 . S
C2255 C2256 1.396 . S
C2255 C2257 1.365 . S
C2255 H2264 0.929 . S
C2256 C2253 1.394 . S
C2256 C2255 1.396 . S
C2256 H2265 0.930 . S
C2257 C2254 1.383 . S
C2257 C2255 1.365 . S
C2257 H2266 0.931 . S
C2258 C2253 1.370 . S
C2258 C2254 1.395 . S
C2258 H2267 0.930 . S
C2259 Gd2195 2.805 . S
C2259 O2235 1.263 . S
C2259 O2236 1.252 . S
C2259 C2253 1.500 1_655 S
H2260 C2243 0.929 . S
H2261 C2244 0.930 . S
H2262 C2245 0.931 . S
H2263 C2246 0.930 . S
H2264 C2255 0.929 . S
H2265 C2256 0.930 . S
H2266 C2257 0.931 . S
H2267 C2258 0.930 . S
C2268 C2270 1.422 . S
C2268 C2272 1.415 . S
C2268 N2274 1.369 . S
C2269 C2270 1.421 . S
C2269 C2271 1.417 . S
C2269 C2281 1.422 . S
C2270 C2268 1.422 . S
C2270 C2269 1.421 . S
C2270 N2280 1.359 . S
C2271 C2269 1.417 . S
C2271 C2273 1.329 . S
C2271 H2290 0.930 . S
C2272 C2268 1.415 . S
C2272 C2273 1.437 . S
C2272 C2276 1.413 . S
C2273 C2271 1.329 . S
C2273 C2272 1.437 . S
C2273 H2295 0.929 . S
N2274 C2268 1.369 . S
N2274 C2275 1.338 . S
N2274 Gd2279 2.622 . S
C2275 N2274 1.338 . S
C2275 C2277 1.378 . S
C2275 H2287 0.929 . S
C2276 C2272 1.413 . S
C2276 C2277 1.348 . S
C2276 H2292 0.931 . S
C2277 C2275 1.378 . S
C2277 C2276 1.348 . S
C2277 H2293 0.930 . S
Gd2278 N2298 2.622 . S
Gd2278 N2305 2.570 . S
Gd2278 O2312 2.353 . S
Gd2278 O2313 2.468 . S
Gd2278 O2314 2.427 . S
Gd2278 O2316 2.388 . S
Gd2278 O2317 2.386 . S
Gd2278 O2321 2.307 . S
Gd2278 C2331 2.805 . S
Gd2279 N2274 2.622 . S
Gd2279 N2280 2.570 . S
Gd2279 O2311 2.386 . S
Gd2279 O2315 2.307 . S
Gd2279 O2318 2.353 . S
Gd2279 O2319 2.468 . S
Gd2279 O2320 2.427 . S
Gd2279 O2322 2.388 . S
Gd2279 C2343 2.805 . S
N2280 C2270 1.359 . S
N2280 Gd2279 2.570 . S
N2280 C2282 1.343 . S
C2281 C2269 1.422 . S
C2281 C2283 1.321 . S
C2281 H2289 0.931 . S
C2282 N2280 1.343 . S
C2282 C2283 1.390 . S
C2282 H2284 0.931 . S
C2283 C2281 1.321 . S
C2283 C2282 1.390 . S
C2283 H2285 0.930 . S
H2284 C2282 0.931 . S
H2285 C2283 0.930 . S
H2286 C2309 0.931 . S
H2287 C2275 0.929 . S
H2288 C2310 0.930 . S
H2289 C2281 0.931 . S
H2290 C2271 0.930 . S
H2291 C2300 0.929 . S
H2292 C2276 0.931 . S
H2293 C2277 0.930 . S
H2294 C2332 0.930 . S
H2295 C2273 0.929 . S
H2296 C2301 0.931 . S
H2297 C2302 0.930 . S
N2298 Gd2278 2.622 . S
N2298 C2299 1.369 . S
N2298 C2300 1.338 . S
C2299 N2298 1.369 . S
C2299 C2303 1.415 . S
C2299 C2306 1.422 . S
C2300 H2291 0.929 . S
C2300 N2298 1.338 . S
C2300 C2302 1.378 . S
C2301 H2296 0.931 . S
C2301 C2302 1.348 . S
C2301 C2303 1.413 . S
C2302 H2297 0.930 . S
C2302 C2300 1.378 . S
C2302 C2301 1.348 . S
C2303 C2299 1.415 . S
C2303 C2301 1.413 . S
C2303 C2333 1.437 . S
H2304 C2333 0.929 . S
N2305 Gd2278 2.570 . S
N2305 C2306 1.359 . S
N2305 C2309 1.343 . S
C2306 C2299 1.422 . S
C2306 N2305 1.359 . S
C2306 C2308 1.421 . S
C2307 C2308 1.422 . S
C2307 C2310 1.321 . S
C2307 H2334 0.931 . S
C2308 C2306 1.421 . S
C2308 C2307 1.422 . S
C2308 C2332 1.417 . S
C2309 H2286 0.931 . S
C2309 N2305 1.343 . S
C2309 C2310 1.390 . S
C2310 H2288 0.930 . S
C2310 C2307 1.321 . S
C2310 C2309 1.390 . S
O2311 Gd2279 2.386 . S
O2311 C2323 1.265 . S
O2312 Gd2278 2.353 . S
O2312 C2323 1.242 . S
O2313 Gd2278 2.468 . S
O2313 C2331 1.263 . S
O2314 Gd2278 2.427 . S
O2314 C2331 1.252 . S
O2315 Gd2279 2.307 . S
O2315 C2324 1.261 . S
O2316 Gd2278 2.388 . S
O2316 C2324 1.252 . S
O2317 Gd2278 2.386 . S
O2317 C2335 1.265 . S
O2318 Gd2279 2.353 . S
O2318 C2335 1.242 . S
O2319 Gd2279 2.468 . S
O2319 C2343 1.263 . S
O2320 Gd2279 2.427 . S
O2320 C2343 1.252 . S
O2321 Gd2278 2.307 . S
O2321 C2336 1.261 . S
O2322 Gd2279 2.388 . S
O2322 C2336 1.252 . S
C2323 O2311 1.265 . S
C2323 O2312 1.242 . S
C2324 O2315 1.261 . S
C2324 O2316 1.252 . S
C2325 C2328 1.394 . S
C2325 C2330 1.370 . S
C2325 C2331 1.500 . S
C2326 C2329 1.383 . S
C2326 C2330 1.395 . S
C2327 C2328 1.396 . S
C2327 C2329 1.365 . S
C2327 H2344 0.929 . S
C2328 C2325 1.394 . S
C2328 C2327 1.396 . S
C2328 H2345 0.930 . S
C2329 C2326 1.383 . S
C2329 C2327 1.365 . S
C2329 H2346 0.931 . S
C2330 C2325 1.370 . S
C2330 C2326 1.395 . S
C2330 H2347 0.930 . S
C2331 Gd2278 2.805 . S
C2331 O2313 1.263 . S
C2331 O2314 1.252 . S
C2331 C2325 1.500 . S
C2332 H2294 0.930 . S
C2332 C2308 1.417 . S
C2332 C2333 1.329 . S
C2333 C2303 1.437 . S
C2333 H2304 0.929 . S
C2333 C2332 1.329 . S
H2334 C2307 0.931 . S
C2335 O2317 1.265 . S
C2335 O2318 1.242 . S
C2336 O2321 1.261 . S
C2336 O2322 1.252 . S
C2337 C2340 1.394 . S
C2337 C2342 1.370 . S
C2337 C2343 1.500 . S
C2338 C2341 1.383 . S
C2338 C2342 1.395 . S
C2339 C2340 1.396 . S
C2339 C2341 1.365 . S
C2339 H2348 0.929 . S
C2340 C2337 1.394 . S
C2340 C2339 1.396 . S
C2340 H2349 0.930 . S
C2341 C2338 1.383 . S
C2341 C2339 1.365 . S
C2341 H2350 0.931 . S
C2342 C2337 1.370 . S
C2342 C2338 1.395 . S
C2342 H2351 0.930 . S
C2343 Gd2279 2.805 . S
C2343 O2319 1.263 . S
C2343 O2320 1.252 . S
C2343 C2337 1.500 . S
H2344 C2327 0.929 . S
H2345 C2328 0.930 . S
H2346 C2329 0.931 . S
H2347 C2330 0.930 . S
H2348 C2339 0.929 . S
H2349 C2340 0.930 . S
H2350 C2341 0.931 . S
H2351 C2342 0.930 . S
C2352 C2354 1.422 . S
C2352 C2356 1.415 . S
C2352 N2358 1.369 . S
C2353 C2354 1.421 1_455 S
C2353 C2355 1.417 . S
C2353 C2365 1.422 . S
C2354 C2352 1.422 . S
C2354 C2353 1.421 1_655 S
C2354 N2364 1.359 . S
C2355 C2353 1.417 . S
C2355 C2357 1.329 . S
C2355 H2374 0.930 . S
C2356 C2352 1.415 . S
C2356 C2357 1.437 1_655 S
C2356 C2360 1.413 . S
C2357 C2355 1.329 . S
C2357 C2356 1.437 1_455 S
C2357 H2379 0.929 . S
N2358 C2352 1.369 . S
N2358 C2359 1.338 . S
N2358 Gd2363 2.622 . S
C2359 N2358 1.338 . S
C2359 C2361 1.378 . S
C2359 H2371 0.929 . S
C2360 C2356 1.413 . S
C2360 C2361 1.348 . S
C2360 H2376 0.925 1_655 S
C2361 C2359 1.378 . S
C2361 C2360 1.348 . S
C2361 H2377 0.930 . S
Gd2362 N2382 2.622 . S
Gd2362 N2389 2.570 . S
Gd2362 O2396 2.353 . S
Gd2362 O2397 2.468 . S
Gd2362 O2398 2.427 . S
Gd2362 O2400 2.388 . S
Gd2362 O2401 2.386 . S
Gd2362 O2405 2.307 . S
Gd2362 C2415 2.805 . S
Gd2363 N2358 2.622 . S
Gd2363 N2364 2.570 . S
Gd2363 O2395 2.386 . S
Gd2363 O2399 2.307 . S
Gd2363 O2402 2.353 . S
Gd2363 O2403 2.468 . S
Gd2363 O2404 2.427 . S
Gd2363 O2406 2.388 . S
Gd2363 C2427 2.805 . S
N2364 C2354 1.359 . S
N2364 Gd2363 2.570 . S
N2364 C2366 1.343 . S
C2365 C2353 1.422 . S
C2365 C2367 1.321 . S
C2365 H2373 0.931 . S
C2366 N2364 1.343 . S
C2366 C2367 1.390 1_655 S
C2366 H2368 0.931 . S
C2367 C2365 1.321 . S
C2367 C2366 1.390 1_455 S
C2367 H2369 0.930 . S
H2368 C2366 0.931 . S
H2369 C2367 0.930 . S
H2370 C2393 0.931 . S
H2371 C2359 0.929 . S
H2372 C2394 0.930 . S
H2373 C2365 0.931 . S
H2374 C2355 0.930 . S
H2375 C2384 0.929 . S
H2376 C2360 0.925 1_455 S
H2377 C2361 0.930 . S
H2378 C2416 0.930 . S
H2379 C2357 0.929 . S
H2380 C2385 0.931 . S
H2381 C2386 0.930 . S
N2382 Gd2362 2.622 . S
N2382 C2383 1.369 . S
N2382 C2384 1.338 . S
C2383 N2382 1.369 . S
C2383 C2387 1.415 . S
C2383 C2390 1.422 . S
C2384 H2375 0.929 . S
C2384 N2382 1.338 . S
C2384 C2386 1.378 . S
C2385 H2380 0.931 . S
C2385 C2386 1.348 . S
C2385 C2387 1.413 . S
C2386 H2381 0.930 . S
C2386 C2384 1.378 . S
C2386 C2385 1.348 . S
C2387 C2383 1.415 . S
C2387 C2385 1.413 . S
C2387 C2417 1.437 . S
H2388 C2417 0.929 . S
N2389 Gd2362 2.570 . S
N2389 C2390 1.359 . S
N2389 C2393 1.343 . S
C2390 C2383 1.422 . S
C2390 N2389 1.359 . S
C2390 C2392 1.421 . S
C2391 C2392 1.422 . S
C2391 C2394 1.321 . S
C2391 H2418 0.931 . S
C2392 C2390 1.421 . S
C2392 C2391 1.422 . S
C2392 C2416 1.417 . S
C2393 H2370 0.931 . S
C2393 N2389 1.343 . S
C2393 C2394 1.390 . S
C2394 H2372 0.930 . S
C2394 C2391 1.321 . S
C2394 C2393 1.390 . S
O2395 Gd2363 2.386 . S
O2395 C2407 1.265 . S
O2396 Gd2362 2.353 . S
O2396 C2407 1.242 . S
O2397 Gd2362 2.468 . S
O2397 C2415 1.263 . S
O2398 Gd2362 2.427 . S
O2398 C2415 1.252 . S
O2399 Gd2363 2.307 . S
O2399 C2408 1.261 . S
O2400 Gd2362 2.388 . S
O2400 C2408 1.252 . S
O2401 Gd2362 2.386 . S
O2401 C2419 1.265 . S
O2402 Gd2363 2.353 . S
O2402 C2419 1.242 . S
O2403 Gd2363 2.468 . S
O2403 C2427 1.263 . S
O2404 Gd2363 2.427 . S
O2404 C2427 1.252 . S
O2405 Gd2362 2.307 . S
O2405 C2420 1.261 . S
O2406 Gd2363 2.388 . S
O2406 C2420 1.252 . S
C2407 O2395 1.265 . S
C2407 O2396 1.242 . S
C2408 O2399 1.261 . S
C2408 O2400 1.252 . S
C2409 C2412 1.394 . S
C2409 C2414 1.370 . S
C2409 C2415 1.500 . S
C2410 C2413 1.383 . S
C2410 C2414 1.395 . S
C2411 C2412 1.396 . S
C2411 C2413 1.365 . S
C2411 H2428 0.929 . S
C2412 C2409 1.394 . S
C2412 C2411 1.396 . S
C2412 H2429 0.930 . S
C2413 C2410 1.383 . S
C2413 C2411 1.365 . S
C2413 H2430 0.931 . S
C2414 C2409 1.370 . S
C2414 C2410 1.395 . S
C2414 H2431 0.930 . S
C2415 Gd2362 2.805 . S
C2415 O2397 1.263 . S
C2415 O2398 1.252 . S
C2415 C2409 1.500 . S
C2416 H2378 0.930 . S
C2416 C2392 1.417 . S
C2416 C2417 1.329 . S
C2417 C2387 1.437 . S
C2417 H2388 0.929 . S
C2417 C2416 1.329 . S
H2418 C2391 0.931 . S
C2419 O2401 1.265 . S
C2419 O2402 1.242 . S
C2420 O2405 1.261 . S
C2420 O2406 1.252 . S
C2421 C2424 1.394 . S
C2421 C2426 1.370 . S
C2421 C2427 1.500 . S
C2422 C2425 1.383 . S
C2422 C2426 1.395 . S
C2423 C2424 1.396 . S
C2423 C2425 1.365 . S
C2423 H2432 0.929 . S
C2424 C2421 1.394 . S
C2424 C2423 1.396 . S
C2424 H2433 0.930 . S
C2425 C2422 1.383 . S
C2425 C2423 1.365 . S
C2425 H2434 0.931 . S
C2426 C2421 1.370 . S
C2426 C2422 1.395 . S
C2426 H2435 0.930 . S
C2427 Gd2363 2.805 . S
C2427 O2403 1.263 . S
C2427 O2404 1.252 . S
C2427 C2421 1.500 . S
H2428 C2411 0.929 . S
H2429 C2412 0.930 . S
H2430 C2413 0.931 . S
H2431 C2414 0.930 . S
H2432 C2423 0.929 . S
H2433 C2424 0.930 . S
H2434 C2425 0.931 . S
H2435 C2426 0.930 . S
C2436 C2438 1.422 . S
C2436 C2440 1.415 . S
C2436 N2442 1.369 . S
C2437 C2438 1.421 . S
C2437 C2439 1.417 . S
C2437 C2449 1.422 . S
C2438 C2436 1.422 . S
C2438 C2437 1.421 . S
C2438 N2448 1.359 . S
C2439 C2437 1.417 . S
C2439 C2441 1.329 . S
C2439 H2458 0.930 . S
C2440 C2436 1.415 . S
C2440 C2441 1.437 . S
C2440 C2444 1.413 . S
C2441 C2439 1.329 . S
C2441 C2440 1.437 . S
C2441 H2463 0.929 . S
N2442 C2436 1.369 . S
N2442 C2443 1.338 . S
N2442 Gd2447 2.622 . S
C2443 N2442 1.338 . S
C2443 C2445 1.378 . S
C2443 H2455 0.929 . S
C2444 C2440 1.413 . S
C2444 C2445 1.348 . S
C2444 H2460 0.931 . S
C2445 C2443 1.378 . S
C2445 C2444 1.348 . S
C2445 H2461 0.930 . S
Gd2446 N2466 2.622 . S
Gd2446 N2473 2.570 . S
Gd2446 O2480 2.353 . S
Gd2446 O2481 2.468 . S
Gd2446 O2482 2.427 . S
Gd2446 O2484 2.388 . S
Gd2446 O2485 2.386 . S
Gd2446 O2489 2.307 . S
Gd2446 C2499 2.805 . S
Gd2447 N2442 2.622 . S
Gd2447 N2448 2.570 . S
Gd2447 O2479 2.386 . S
Gd2447 O2483 2.307 . S
Gd2447 O2486 2.353 . S
Gd2447 O2487 2.468 . S
Gd2447 O2488 2.427 . S
Gd2447 O2490 2.388 . S
Gd2447 C2511 2.805 . S
N2448 C2438 1.359 . S
N2448 Gd2447 2.570 . S
N2448 C2450 1.343 . S
C2449 C2437 1.422 . S
C2449 C2451 1.321 . S
C2449 H2457 0.931 . S
C2450 N2448 1.343 . S
C2450 C2451 1.390 . S
C2450 H2452 0.931 . S
C2451 C2449 1.321 . S
C2451 C2450 1.390 . S
C2451 H2453 0.930 . S
H2452 C2450 0.931 . S
H2453 C2451 0.930 . S
H2454 C2477 0.931 . S
H2455 C2443 0.929 . S
H2456 C2478 0.930 . S
H2457 C2449 0.931 . S
H2458 C2439 0.930 . S
H2459 C2468 0.929 . S
H2460 C2444 0.931 . S
H2461 C2445 0.930 . S
H2462 C2500 0.930 . S
H2463 C2441 0.929 . S
H2464 C2469 0.931 . S
H2465 C2470 0.930 . S
N2466 Gd2446 2.622 . S
N2466 C2467 1.369 . S
N2466 C2468 1.338 . S
C2467 N2466 1.369 . S
C2467 C2471 1.415 . S
C2467 C2474 1.422 . S
C2468 H2459 0.929 . S
C2468 N2466 1.338 . S
C2468 C2470 1.378 . S
C2469 H2464 0.931 . S
C2469 C2470 1.348 . S
C2469 C2471 1.413 . S
C2470 H2465 0.930 . S
C2470 C2468 1.378 . S
C2470 C2469 1.348 . S
C2471 C2467 1.415 . S
C2471 C2469 1.413 . S
C2471 C2501 1.437 . S
H2472 C2501 0.929 . S
N2473 Gd2446 2.570 . S
N2473 C2474 1.359 . S
N2473 C2477 1.343 . S
C2474 C2467 1.422 . S
C2474 N2473 1.359 . S
C2474 C2476 1.421 . S
C2475 C2476 1.422 . S
C2475 C2478 1.321 . S
C2475 H2502 0.931 . S
C2476 C2474 1.421 . S
C2476 C2475 1.422 . S
C2476 C2500 1.417 . S
C2477 H2454 0.931 . S
C2477 N2473 1.343 . S
C2477 C2478 1.390 . S
C2478 H2456 0.930 . S
C2478 C2475 1.321 . S
C2478 C2477 1.390 . S
O2479 Gd2447 2.386 . S
O2479 C2491 1.265 . S
O2480 Gd2446 2.353 . S
O2480 C2491 1.242 . S
O2481 Gd2446 2.468 . S
O2481 C2499 1.263 . S
O2482 Gd2446 2.427 . S
O2482 C2499 1.252 . S
O2483 Gd2447 2.307 . S
O2483 C2492 1.261 . S
O2484 Gd2446 2.388 . S
O2484 C2492 1.252 . S
O2485 Gd2446 2.386 . S
O2485 C2503 1.265 . S
O2486 Gd2447 2.353 . S
O2486 C2503 1.242 . S
O2487 Gd2447 2.468 . S
O2487 C2511 1.263 . S
O2488 Gd2447 2.427 . S
O2488 C2511 1.252 . S
O2489 Gd2446 2.307 . S
O2489 C2504 1.261 . S
O2490 Gd2447 2.388 . S
O2490 C2504 1.252 . S
C2491 O2479 1.265 . S
C2491 O2480 1.242 . S
C2492 O2483 1.261 . S
C2492 O2484 1.252 . S
C2493 C2496 1.394 . S
C2493 C2498 1.370 . S
C2493 C2499 1.500 . S
C2494 C2497 1.383 . S
C2494 C2498 1.395 1_455 S
C2495 C2496 1.396 1_455 S
C2495 C2497 1.365 . S
C2495 H2512 0.929 . S
C2496 C2493 1.394 . S
C2496 C2495 1.396 1_655 S
C2496 H2513 0.930 . S
C2497 C2494 1.383 . S
C2497 C2495 1.365 . S
C2497 H2514 0.931 . S
C2498 C2493 1.370 . S
C2498 C2494 1.395 1_655 S
C2498 H2515 0.930 . S
C2499 Gd2446 2.805 . S
C2499 O2481 1.263 . S
C2499 O2482 1.252 . S
C2499 C2493 1.500 . S
C2500 H2462 0.930 . S
C2500 C2476 1.417 . S
C2500 C2501 1.329 . S
C2501 C2471 1.437 . S
C2501 H2472 0.929 . S
C2501 C2500 1.329 . S
H2502 C2475 0.931 . S
C2503 O2485 1.265 . S
C2503 O2486 1.242 . S
C2504 O2489 1.261 . S
C2504 O2490 1.252 . S
C2505 C2508 1.394 . S
C2505 C2510 1.370 . S
C2505 C2511 1.500 . S
C2506 C2509 1.383 . S
C2506 C2510 1.395 . S
C2507 C2508 1.396 . S
C2507 C2509 1.365 . S
C2507 H2516 0.929 . S
C2508 C2505 1.394 . S
C2508 C2507 1.396 . S
C2508 H2517 0.930 . S
C2509 C2506 1.383 . S
C2509 C2507 1.365 . S
C2509 H2518 0.931 . S
C2510 C2505 1.370 . S
C2510 C2506 1.395 . S
C2510 H2519 0.930 . S
C2511 Gd2447 2.805 . S
C2511 O2487 1.263 . S
C2511 O2488 1.252 . S
C2511 C2505 1.500 . S
H2512 C2495 0.929 . S
H2513 C2496 0.930 . S
H2514 C2497 0.931 . S
H2515 C2498 0.930 . S
H2516 C2507 0.929 . S
H2517 C2508 0.930 . S
H2518 C2509 0.931 . S
H2519 C2510 0.930 . S
C2520 C2522 1.422 . S
C2520 C2524 1.415 . S
C2520 N2526 1.369 . S
C2521 C2522 1.421 . S
C2521 C2523 1.417 . S
C2521 C2533 1.422 . S
C2522 C2520 1.422 . S
C2522 C2521 1.421 . S
C2522 N2532 1.359 . S
C2523 C2521 1.417 . S
C2523 C2525 1.329 . S
C2523 H2542 0.930 . S
C2524 C2520 1.415 . S
C2524 C2525 1.437 . S
C2524 C2528 1.413 . S
C2525 C2523 1.329 . S
C2525 C2524 1.437 . S
C2525 H2547 0.929 . S
N2526 C2520 1.369 . S
N2526 C2527 1.338 . S
N2526 Gd2531 2.622 . S
C2527 N2526 1.338 . S
C2527 C2529 1.378 . S
C2527 H2539 0.929 . S
C2528 C2524 1.413 . S
C2528 C2529 1.348 . S
C2528 H2544 0.931 . S
C2529 C2527 1.378 . S
C2529 C2528 1.348 . S
C2529 H2545 0.930 . S
Gd2530 N2550 2.622 . S
Gd2530 N2557 2.570 . S
Gd2530 O2564 2.353 . S
Gd2530 O2565 2.468 . S
Gd2530 O2566 2.427 . S
Gd2530 O2568 2.388 . S
Gd2530 O2569 2.386 . S
Gd2530 O2573 2.307 . S
Gd2530 C2583 2.805 . S
Gd2531 N2526 2.622 . S
Gd2531 N2532 2.570 . S
Gd2531 O2563 2.386 . S
Gd2531 O2567 2.307 . S
Gd2531 O2570 2.353 . S
Gd2531 O2571 2.468 . S
Gd2531 O2572 2.427 . S
Gd2531 O2574 2.388 . S
Gd2531 C2595 2.805 . S
N2532 C2522 1.359 . S
N2532 Gd2531 2.570 . S
N2532 C2534 1.343 . S
C2533 C2521 1.422 . S
C2533 C2535 1.321 . S
C2533 H2541 0.931 . S
C2534 N2532 1.343 . S
C2534 C2535 1.390 . S
C2534 H2536 0.931 . S
C2535 C2533 1.321 . S
C2535 C2534 1.390 . S
C2535 H2537 0.930 . S
H2536 C2534 0.931 . S
H2537 C2535 0.930 . S
H2538 C2561 0.931 . S
H2539 C2527 0.929 . S
H2540 C2562 0.930 . S
H2541 C2533 0.931 . S
H2542 C2523 0.930 . S
H2543 C2552 0.929 . S
H2544 C2528 0.931 . S
H2545 C2529 0.930 . S
H2546 C2584 0.930 . S
H2547 C2525 0.929 . S
H2548 C2553 0.932 . S
H2549 C2554 0.930 . S
N2550 Gd2530 2.622 . S
N2550 C2551 1.369 . S
N2550 C2552 1.338 . S
C2551 N2550 1.369 . S
C2551 C2555 1.415 . S
C2551 C2558 1.422 . S
C2552 H2543 0.929 . S
C2552 N2550 1.338 . S
C2552 C2554 1.378 . S
C2553 H2548 0.932 . S
C2553 C2554 1.348 . S
C2553 C2555 1.413 . S
C2554 H2549 0.930 . S
C2554 C2552 1.378 . S
C2554 C2553 1.348 . S
C2555 C2551 1.415 . S
C2555 C2553 1.413 . S
C2555 C2585 1.437 1_655 S
H2556 C2585 0.929 . S
N2557 Gd2530 2.570 . S
N2557 C2558 1.359 . S
N2557 C2561 1.343 . S
C2558 C2551 1.422 . S
C2558 N2557 1.359 . S
C2558 C2560 1.421 1_655 S
C2559 C2560 1.422 . S
C2559 C2562 1.321 . S
C2559 H2586 0.931 . S
C2560 C2558 1.421 1_455 S
C2560 C2559 1.422 . S
C2560 C2584 1.417 . S
C2561 H2538 0.931 . S
C2561 N2557 1.343 . S
C2561 C2562 1.390 1_655 S
C2562 H2540 0.930 . S
C2562 C2559 1.321 . S
C2562 C2561 1.390 1_455 S
O2563 Gd2531 2.386 . S
O2563 C2575 1.265 . S
O2564 Gd2530 2.353 . S
O2564 C2575 1.242 . S
O2565 Gd2530 2.468 . S
O2565 C2583 1.263 . S
O2566 Gd2530 2.427 . S
O2566 C2583 1.252 . S
O2567 Gd2531 2.307 . S
O2567 C2576 1.261 . S
O2568 Gd2530 2.388 . S
O2568 C2576 1.252 . S
O2569 Gd2530 2.386 . S
O2569 C2587 1.265 . S
O2570 Gd2531 2.353 . S
O2570 C2587 1.242 . S
O2571 Gd2531 2.468 . S
O2571 C2595 1.263 . S
O2572 Gd2531 2.427 . S
O2572 C2595 1.252 . S
O2573 Gd2530 2.307 . S
O2573 C2588 1.261 . S
O2574 Gd2531 2.388 . S
O2574 C2588 1.252 . S
C2575 O2563 1.265 . S
C2575 O2564 1.242 . S
C2576 O2567 1.261 . S
C2576 O2568 1.252 . S
C2577 C2580 1.394 . S
C2577 C2582 1.370 . S
C2577 C2583 1.500 . S
C2578 C2581 1.383 . S
C2578 C2582 1.395 . S
C2579 C2580 1.396 . S
C2579 C2581 1.365 . S
C2579 H2596 0.929 . S
C2580 C2577 1.394 . S
C2580 C2579 1.396 . S
C2580 H2597 0.930 . S
C2581 C2578 1.383 . S
C2581 C2579 1.365 . S
C2581 H2598 0.931 . S
C2582 C2577 1.370 . S
C2582 C2578 1.395 . S
C2582 H2599 0.930 . S
C2583 Gd2530 2.805 . S
C2583 O2565 1.263 . S
C2583 O2566 1.252 . S
C2583 C2577 1.500 . S
C2584 H2546 0.930 . S
C2584 C2560 1.417 . S
C2584 C2585 1.329 . S
C2585 C2555 1.437 1_455 S
C2585 H2556 0.929 . S
C2585 C2584 1.329 . S
H2586 C2559 0.931 . S
C2587 O2569 1.265 . S
C2587 O2570 1.242 . S
C2588 O2573 1.261 . S
C2588 O2574 1.252 . S
C2589 C2592 1.394 . S
C2589 C2594 1.370 . S
C2589 C2595 1.500 . S
C2590 C2593 1.383 . S
C2590 C2594 1.395 . S
C2591 C2592 1.396 . S
C2591 C2593 1.365 . S
C2591 H2600 0.929 . S
C2592 C2589 1.394 . S
C2592 C2591 1.396 . S
C2592 H2601 0.930 . S
C2593 C2590 1.383 . S
C2593 C2591 1.365 . S
C2593 H2602 0.931 . S
C2594 C2589 1.370 . S
C2594 C2590 1.395 . S
C2594 H2603 0.930 . S
C2595 Gd2531 2.805 . S
C2595 O2571 1.263 . S
C2595 O2572 1.252 . S
C2595 C2589 1.500 . S
H2596 C2579 0.929 . S
H2597 C2580 0.930 . S
H2598 C2581 0.931 . S
H2599 C2582 0.930 . S
H2600 C2591 0.929 . S
H2601 C2592 0.930 . S
H2602 C2593 0.931 . S
H2603 C2594 0.930 . S
C2604 C2606 1.422 . S
C2604 C2608 1.415 . S
C2604 N2610 1.369 . S
C2605 C2606 1.421 . S
C2605 C2607 1.417 . S
C2605 C2617 1.422 . S
C2606 C2604 1.422 . S
C2606 C2605 1.421 . S
C2606 N2616 1.359 . S
C2607 C2605 1.417 . S
C2607 C2609 1.329 . S
C2607 H2626 0.930 . S
C2608 C2604 1.415 . S
C2608 C2609 1.437 . S
C2608 C2612 1.413 . S
C2609 C2607 1.329 . S
C2609 C2608 1.437 . S
C2609 H2631 0.929 . S
N2610 C2604 1.369 . S
N2610 C2611 1.338 . S
N2610 Gd2615 2.622 . S
C2611 N2610 1.338 . S
C2611 C2613 1.378 . S
C2611 H2623 0.929 . S
C2612 C2608 1.413 . S
C2612 C2613 1.348 . S
C2612 H2628 0.931 . S
C2613 C2611 1.378 . S
C2613 C2612 1.348 . S
C2613 H2629 0.930 . S
Gd2614 N2634 2.622 . S
Gd2614 N2641 2.570 . S
Gd2614 O2648 2.353 . S
Gd2614 O2649 2.468 . S
Gd2614 O2650 2.427 . S
Gd2614 O2652 2.388 . S
Gd2614 O2653 2.386 . S
Gd2614 O2657 2.307 . S
Gd2614 C2667 2.805 . S
Gd2615 N2610 2.622 . S
Gd2615 N2616 2.570 . S
Gd2615 O2647 2.386 . S
Gd2615 O2651 2.307 . S
Gd2615 O2654 2.353 . S
Gd2615 O2655 2.468 . S
Gd2615 O2656 2.427 . S
Gd2615 O2658 2.388 . S
Gd2615 C2679 2.805 . S
N2616 C2606 1.359 . S
N2616 Gd2615 2.570 . S
N2616 C2618 1.343 . S
C2617 C2605 1.422 . S
C2617 C2619 1.321 . S
C2617 H2625 0.931 . S
C2618 N2616 1.343 . S
C2618 C2619 1.390 . S
C2618 H2620 0.931 . S
C2619 C2617 1.321 . S
C2619 C2618 1.390 . S
C2619 H2621 0.930 . S
H2620 C2618 0.931 . S
H2621 C2619 0.930 . S
H2622 C2645 0.931 . S
H2623 C2611 0.929 . S
H2624 C2646 0.930 . S
H2625 C2617 0.931 . S
H2626 C2607 0.930 . S
H2627 C2636 0.929 . S
H2628 C2612 0.931 . S
H2629 C2613 0.930 . S
H2630 C2668 0.930 . S
H2631 C2609 0.929 . S
H2632 C2637 0.931 . S
H2633 C2638 0.930 . S
N2634 Gd2614 2.622 . S
N2634 C2635 1.369 . S
N2634 C2636 1.338 . S
C2635 N2634 1.369 . S
C2635 C2639 1.415 . S
C2635 C2642 1.422 . S
C2636 H2627 0.929 . S
C2636 N2634 1.338 . S
C2636 C2638 1.378 . S
C2637 H2632 0.931 . S
C2637 C2638 1.348 . S
C2637 C2639 1.413 . S
C2638 H2633 0.930 . S
C2638 C2636 1.378 . S
C2638 C2637 1.348 . S
C2639 C2635 1.415 . S
C2639 C2637 1.413 . S
C2639 C2669 1.437 . S
H2640 C2669 0.929 . S
N2641 Gd2614 2.570 . S
N2641 C2642 1.359 . S
N2641 C2645 1.343 . S
C2642 C2635 1.422 . S
C2642 N2641 1.359 . S
C2642 C2644 1.421 . S
C2643 C2644 1.422 . S
C2643 C2646 1.321 . S
C2643 H2670 0.931 . S
C2644 C2642 1.421 . S
C2644 C2643 1.422 . S
C2644 C2668 1.417 . S
C2645 H2622 0.931 . S
C2645 N2641 1.343 . S
C2645 C2646 1.390 . S
C2646 H2624 0.930 . S
C2646 C2643 1.321 . S
C2646 C2645 1.390 . S
O2647 Gd2615 2.386 . S
O2647 C2659 1.265 . S
O2648 Gd2614 2.353 . S
O2648 C2659 1.242 . S
O2649 Gd2614 2.468 . S
O2649 C2667 1.263 . S
O2650 Gd2614 2.427 . S
O2650 C2667 1.252 . S
O2651 Gd2615 2.307 . S
O2651 C2660 1.261 . S
O2652 Gd2614 2.388 . S
O2652 C2660 1.252 . S
O2653 Gd2614 2.386 . S
O2653 C2671 1.265 . S
O2654 Gd2615 2.353 . S
O2654 C2671 1.242 . S
O2655 Gd2615 2.468 . S
O2655 C2679 1.263 . S
O2656 Gd2615 2.427 . S
O2656 C2679 1.252 . S
O2657 Gd2614 2.307 . S
O2657 C2672 1.261 . S
O2658 Gd2615 2.388 . S
O2658 C2672 1.252 . S
C2659 O2647 1.265 . S
C2659 O2648 1.242 . S
C2660 O2651 1.261 . S
C2660 O2652 1.252 . S
C2661 C2664 1.394 . S
C2661 C2666 1.370 . S
C2661 C2667 1.500 . S
C2662 C2665 1.383 . S
C2662 C2666 1.395 . S
C2663 C2664 1.396 . S
C2663 C2665 1.365 . S
C2663 H2680 0.929 . S
C2664 C2661 1.394 . S
C2664 C2663 1.396 . S
C2664 H2681 0.930 . S
C2665 C2662 1.383 . S
C2665 C2663 1.365 . S
C2665 H2682 0.931 . S
C2666 C2661 1.370 . S
C2666 C2662 1.395 . S
C2666 H2683 0.930 . S
C2667 Gd2614 2.805 . S
C2667 O2649 1.263 . S
C2667 O2650 1.252 . S
C2667 C2661 1.500 . S
C2668 H2630 0.930 . S
C2668 C2644 1.417 . S
C2668 C2669 1.329 . S
C2669 C2639 1.437 . S
C2669 H2640 0.929 . S
C2669 C2668 1.329 . S
H2670 C2643 0.931 . S
C2671 O2653 1.265 . S
C2671 O2654 1.242 . S
C2672 O2657 1.261 . S
C2672 O2658 1.252 . S
C2673 C2676 1.394 . S
C2673 C2678 1.370 . S
C2673 C2679 1.500 . S
C2674 C2677 1.383 . S
C2674 C2678 1.395 . S
C2675 C2676 1.396 . S
C2675 C2677 1.365 . S
C2675 H2684 0.929 . S
C2676 C2673 1.394 . S
C2676 C2675 1.396 . S
C2676 H2685 0.930 . S
C2677 C2674 1.383 . S
C2677 C2675 1.365 . S
C2677 H2686 0.931 . S
C2678 C2673 1.370 . S
C2678 C2674 1.395 . S
C2678 H2687 0.930 . S
C2679 Gd2615 2.805 . S
C2679 O2655 1.263 . S
C2679 O2656 1.252 . S
C2679 C2673 1.500 . S
H2680 C2663 0.929 . S
H2681 C2664 0.930 . S
H2682 C2665 0.931 . S
H2683 C2666 0.930 . S
H2684 C2675 0.929 . S
H2685 C2676 0.930 . S
H2686 C2677 0.931 . S
H2687 C2678 0.930 . S
C2688 C2690 1.422 . S
C2688 C2692 1.415 . S
C2688 N2694 1.369 . S
C2689 C2690 1.421 . S
C2689 C2691 1.417 . S
C2689 C2701 1.422 . S
C2690 C2688 1.422 . S
C2690 C2689 1.421 . S
C2690 N2700 1.359 . S
C2691 C2689 1.417 . S
C2691 C2693 1.329 . S
C2691 H2710 0.930 . S
C2692 C2688 1.415 . S
C2692 C2693 1.437 . S
C2692 C2696 1.413 . S
C2693 C2691 1.329 . S
C2693 C2692 1.437 . S
C2693 H2715 0.929 . S
N2694 C2688 1.369 . S
N2694 C2695 1.338 . S
N2694 Gd2699 2.622 . S
C2695 N2694 1.338 . S
C2695 C2697 1.378 . S
C2695 H2707 0.929 . S
C2696 C2692 1.413 . S
C2696 C2697 1.348 . S
C2696 H2712 0.931 . S
C2697 C2695 1.378 . S
C2697 C2696 1.348 . S
C2697 H2713 0.930 . S
Gd2698 N2718 2.622 . S
Gd2698 N2725 2.570 . S
Gd2698 O2732 2.353 . S
Gd2698 O2733 2.468 . S
Gd2698 O2734 2.427 . S
Gd2698 O2736 2.388 . S
Gd2698 O2737 2.386 . S
Gd2698 O2741 2.307 . S
Gd2698 C2751 2.805 . S
Gd2699 N2694 2.622 . S
Gd2699 N2700 2.570 . S
Gd2699 O2731 2.386 . S
Gd2699 O2735 2.307 . S
Gd2699 O2738 2.353 . S
Gd2699 O2739 2.468 . S
Gd2699 O2740 2.427 . S
Gd2699 O2742 2.388 . S
Gd2699 C2763 2.805 . S
N2700 C2690 1.359 . S
N2700 Gd2699 2.570 . S
N2700 C2702 1.343 . S
C2701 C2689 1.422 . S
C2701 C2703 1.321 . S
C2701 H2709 0.931 . S
C2702 N2700 1.343 . S
C2702 C2703 1.390 . S
C2702 H2704 0.931 . S
C2703 C2701 1.321 . S
C2703 C2702 1.390 . S
C2703 H2705 0.930 . S
H2704 C2702 0.931 . S
H2705 C2703 0.930 . S
H2706 C2729 0.931 . S
H2707 C2695 0.929 . S
H2708 C2730 0.930 . S
H2709 C2701 0.931 . S
H2710 C2691 0.930 . S
H2711 C2720 0.929 . S
H2712 C2696 0.931 . S
H2713 C2697 0.930 . S
H2714 C2752 0.930 . S
H2715 C2693 0.929 . S
H2716 C2721 0.931 . S
H2717 C2722 0.930 . S
N2718 Gd2698 2.622 . S
N2718 C2719 1.369 . S
N2718 C2720 1.338 . S
C2719 N2718 1.369 . S
C2719 C2723 1.415 . S
C2719 C2726 1.422 . S
C2720 H2711 0.929 . S
C2720 N2718 1.338 . S
C2720 C2722 1.378 . S
C2721 H2716 0.931 . S
C2721 C2722 1.348 . S
C2721 C2723 1.413 . S
C2722 H2717 0.930 . S
C2722 C2720 1.378 . S
C2722 C2721 1.348 . S
C2723 C2719 1.415 . S
C2723 C2721 1.413 . S
C2723 C2753 1.437 . S
H2724 C2753 0.929 . S
N2725 Gd2698 2.570 . S
N2725 C2726 1.359 . S
N2725 C2729 1.343 . S
C2726 C2719 1.422 . S
C2726 N2725 1.359 . S
C2726 C2728 1.421 . S
C2727 C2728 1.422 . S
C2727 C2730 1.321 . S
C2727 H2754 0.931 . S
C2728 C2726 1.421 . S
C2728 C2727 1.422 . S
C2728 C2752 1.417 . S
C2729 H2706 0.931 . S
C2729 N2725 1.343 . S
C2729 C2730 1.390 . S
C2730 H2708 0.930 . S
C2730 C2727 1.321 . S
C2730 C2729 1.390 . S
O2731 Gd2699 2.386 . S
O2731 C2743 1.265 . S
O2732 Gd2698 2.353 . S
O2732 C2743 1.242 . S
O2733 Gd2698 2.468 . S
O2733 C2751 1.263 . S
O2734 Gd2698 2.427 . S
O2734 C2751 1.252 . S
O2735 Gd2699 2.307 . S
O2735 C2744 1.261 . S
O2736 Gd2698 2.388 . S
O2736 C2744 1.252 . S
O2737 Gd2698 2.386 . S
O2737 C2755 1.265 . S
O2738 Gd2699 2.353 . S
O2738 C2755 1.242 . S
O2739 Gd2699 2.468 . S
O2739 C2763 1.263 . S
O2740 Gd2699 2.427 . S
O2740 C2763 1.252 . S
O2741 Gd2698 2.307 . S
O2741 C2756 1.261 . S
O2742 Gd2699 2.388 . S
O2742 C2756 1.252 . S
C2743 O2731 1.265 . S
C2743 O2732 1.242 . S
C2744 O2735 1.261 . S
C2744 O2736 1.252 . S
C2745 C2748 1.394 . S
C2745 C2750 1.370 . S
C2745 C2751 1.500 . S
C2746 C2749 1.383 . S
C2746 C2750 1.395 . S
C2747 C2748 1.396 . S
C2747 C2749 1.365 . S
C2747 H2764 0.929 . S
C2748 C2745 1.394 . S
C2748 C2747 1.396 . S
C2748 H2765 0.930 . S
C2749 C2746 1.383 . S
C2749 C2747 1.365 . S
C2749 H2766 0.931 . S
C2750 C2745 1.370 . S
C2750 C2746 1.395 . S
C2750 H2767 0.930 . S
C2751 Gd2698 2.805 . S
C2751 O2733 1.263 . S
C2751 O2734 1.252 . S
C2751 C2745 1.500 . S
C2752 H2714 0.930 . S
C2752 C2728 1.417 . S
C2752 C2753 1.329 . S
C2753 C2723 1.437 . S
C2753 H2724 0.929 . S
C2753 C2752 1.329 . S
H2754 C2727 0.931 . S
C2755 O2737 1.265 . S
C2755 O2738 1.242 . S
C2756 O2741 1.261 . S
C2756 O2742 1.252 . S
C2757 C2760 1.394 . S
C2757 C2762 1.370 . S
C2757 C2763 1.500 . S
C2758 C2761 1.383 . S
C2758 C2762 1.395 1_455 S
C2759 C2760 1.396 1_455 S
C2759 C2761 1.365 . S
C2759 H2768 0.929 . S
C2760 C2757 1.394 . S
C2760 C2759 1.396 1_655 S
C2760 H2769 0.930 . S
C2761 C2758 1.383 . S
C2761 C2759 1.365 . S
C2761 H2770 0.931 . S
C2762 C2757 1.370 . S
C2762 C2758 1.395 1_655 S
C2762 H2771 0.930 . S
C2763 Gd2699 2.805 . S
C2763 O2739 1.263 . S
C2763 O2740 1.252 . S
C2763 C2757 1.500 . S
H2764 C2747 0.929 . S
H2765 C2748 0.930 . S
H2766 C2749 0.931 . S
H2767 C2750 0.930 . S
H2768 C2759 0.929 . S
H2769 C2760 0.930 . S
H2770 C2761 0.931 . S
H2771 C2762 0.930 . S
C2772 C2774 1.422 . S
C2772 C2776 1.415 . S
C2772 N2778 1.369 . S
C2773 C2774 1.421 . S
C2773 C2775 1.417 . S
C2773 C2785 1.422 . S
C2774 C2772 1.422 . S
C2774 C2773 1.421 . S
C2774 N2784 1.359 . S
C2775 C2773 1.417 . S
C2775 C2777 1.329 . S
C2775 H2794 0.930 . S
C2776 C2772 1.415 . S
C2776 C2777 1.437 . S
C2776 C2780 1.413 . S
C2777 C2775 1.329 . S
C2777 C2776 1.437 . S
C2777 H2799 0.929 . S
N2778 C2772 1.369 . S
N2778 C2779 1.338 . S
N2778 Gd2783 2.622 . S
C2779 N2778 1.338 . S
C2779 C2781 1.378 . S
C2779 H2791 0.929 . S
C2780 C2776 1.413 . S
C2780 C2781 1.348 . S
C2780 H2796 0.931 . S
C2781 C2779 1.378 . S
C2781 C2780 1.348 . S
C2781 H2797 0.930 . S
Gd2782 N2802 2.622 . S
Gd2782 N2809 2.570 . S
Gd2782 O2816 2.353 . S
Gd2782 O2817 2.468 . S
Gd2782 O2818 2.427 . S
Gd2782 O2820 2.388 . S
Gd2782 O2821 2.386 . S
Gd2782 O2825 2.307 . S
Gd2782 C2835 2.805 . S
Gd2783 N2778 2.622 . S
Gd2783 N2784 2.570 . S
Gd2783 O2815 2.386 . S
Gd2783 O2819 2.307 . S
Gd2783 O2822 2.353 . S
Gd2783 O2823 2.468 . S
Gd2783 O2824 2.427 . S
Gd2783 O2826 2.388 . S
Gd2783 C2847 2.805 . S
N2784 C2774 1.359 . S
N2784 Gd2783 2.570 . S
N2784 C2786 1.343 . S
C2785 C2773 1.422 . S
C2785 C2787 1.321 . S
C2785 H2793 0.931 . S
C2786 N2784 1.343 . S
C2786 C2787 1.390 . S
C2786 H2788 0.931 . S
C2787 C2785 1.321 . S
C2787 C2786 1.390 . S
C2787 H2789 0.930 . S
H2788 C2786 0.931 . S
H2789 C2787 0.930 . S
H2790 C2813 0.931 . S
H2791 C2779 0.929 . S
H2792 C2814 0.930 . S
H2793 C2785 0.931 . S
H2794 C2775 0.930 . S
H2795 C2804 0.929 . S
H2796 C2780 0.931 . S
H2797 C2781 0.930 . S
H2798 C2836 0.930 . S
H2799 C2777 0.929 . S
H2800 C2805 0.931 . S
H2801 C2806 0.930 . S
N2802 Gd2782 2.622 . S
N2802 C2803 1.369 . S
N2802 C2804 1.338 . S
C2803 N2802 1.369 . S
C2803 C2807 1.415 . S
C2803 C2810 1.422 . S
C2804 H2795 0.929 . S
C2804 N2802 1.338 . S
C2804 C2806 1.378 . S
C2805 H2800 0.931 . S
C2805 C2806 1.348 . S
C2805 C2807 1.413 . S
C2806 H2801 0.930 . S
C2806 C2804 1.378 . S
C2806 C2805 1.348 . S
C2807 C2803 1.415 . S
C2807 C2805 1.413 . S
C2807 C2837 1.437 . S
H2808 C2837 0.929 . S
N2809 Gd2782 2.570 . S
N2809 C2810 1.359 . S
N2809 C2813 1.343 . S
C2810 C2803 1.422 . S
C2810 N2809 1.359 . S
C2810 C2812 1.421 . S
C2811 C2812 1.422 . S
C2811 C2814 1.321 . S
C2811 H2838 0.931 . S
C2812 C2810 1.421 . S
C2812 C2811 1.422 . S
C2812 C2836 1.417 . S
C2813 H2790 0.931 . S
C2813 N2809 1.343 . S
C2813 C2814 1.390 . S
C2814 H2792 0.930 . S
C2814 C2811 1.321 . S
C2814 C2813 1.390 . S
O2815 Gd2783 2.386 . S
O2815 C2827 1.265 . S
O2816 Gd2782 2.353 . S
O2816 C2827 1.242 . S
O2817 Gd2782 2.468 . S
O2817 C2835 1.263 . S
O2818 Gd2782 2.427 . S
O2818 C2835 1.252 . S
O2819 Gd2783 2.307 . S
O2819 C2828 1.261 . S
O2820 Gd2782 2.388 . S
O2820 C2828 1.252 . S
O2821 Gd2782 2.386 . S
O2821 C2839 1.265 . S
O2822 Gd2783 2.353 . S
O2822 C2839 1.242 . S
O2823 Gd2783 2.468 . S
O2823 C2847 1.263 . S
O2824 Gd2783 2.427 . S
O2824 C2847 1.252 . S
O2825 Gd2782 2.307 . S
O2825 C2840 1.261 . S
O2826 Gd2783 2.388 . S
O2826 C2840 1.252 . S
C2827 O2815 1.265 . S
C2827 O2816 1.242 . S
C2828 O2819 1.261 . S
C2828 O2820 1.252 . S
C2829 C2832 1.394 . S
C2829 C2834 1.370 . S
C2829 C2835 1.500 . S
C2830 C2833 1.383 . S
C2830 C2834 1.395 . S
C2831 C2832 1.396 . S
C2831 C2833 1.365 . S
C2831 H2848 0.929 . S
C2832 C2829 1.394 . S
C2832 C2831 1.396 . S
C2832 H2849 0.930 . S
C2833 C2830 1.383 . S
C2833 C2831 1.365 . S
C2833 H2850 0.931 . S
C2834 C2829 1.370 . S
C2834 C2830 1.395 . S
C2834 H2851 0.930 . S
C2835 Gd2782 2.805 . S
C2835 O2817 1.263 . S
C2835 O2818 1.252 . S
C2835 C2829 1.500 . S
C2836 H2798 0.930 . S
C2836 C2812 1.417 . S
C2836 C2837 1.329 . S
C2837 C2807 1.437 . S
C2837 H2808 0.929 . S
C2837 C2836 1.329 . S
H2838 C2811 0.931 . S
C2839 O2821 1.265 . S
C2839 O2822 1.242 . S
C2840 O2825 1.261 . S
C2840 O2826 1.252 . S
C2841 C2844 1.394 . S
C2841 C2846 1.370 . S
C2841 C2847 1.500 . S
C2842 C2845 1.383 . S
C2842 C2846 1.395 . S
C2843 C2844 1.396 . S
C2843 C2845 1.365 . S
C2843 H2852 0.929 . S
C2844 C2841 1.394 . S
C2844 C2843 1.396 . S
C2844 H2853 0.930 . S
C2845 C2842 1.383 . S
C2845 C2843 1.365 . S
C2845 H2854 0.931 . S
C2846 C2841 1.370 . S
C2846 C2842 1.395 . S
C2846 H2855 0.930 . S
C2847 Gd2783 2.805 . S
C2847 O2823 1.263 . S
C2847 O2824 1.252 . S
C2847 C2841 1.500 . S
H2848 C2831 0.929 . S
H2849 C2832 0.930 . S
H2850 C2833 0.931 . S
H2851 C2834 0.930 . S
H2852 C2843 0.929 . S
H2853 C2844 0.930 . S
H2854 C2845 0.931 . S
H2855 C2846 0.930 . S
C2856 C2858 1.422 . S
C2856 C2860 1.415 . S
C2856 N2862 1.369 . S
C2857 C2858 1.421 . S
C2857 C2859 1.417 1_655 S
C2857 C2869 1.422 . S
C2858 C2856 1.422 . S
C2858 C2857 1.421 . S
C2858 N2868 1.359 . S
C2859 C2857 1.417 1_455 S
C2859 C2861 1.333 . S
C2859 H2878 0.930 . S
C2860 C2856 1.415 . S
C2860 C2861 1.417 1_655 S
C2860 C2864 1.413 . S
C2861 C2859 1.333 . S
C2861 C2860 1.417 1_455 S
C2861 H2883 0.946 . S
N2862 C2856 1.369 . S
N2862 C2863 1.338 . S
N2862 Gd2867 2.622 . S
C2863 N2862 1.338 . S
C2863 C2865 1.378 . S
C2863 H2875 0.929 . S
C2864 C2860 1.413 . S
C2864 C2865 1.348 . S
C2864 H2880 0.931 . S
C2865 C2863 1.378 . S
C2865 C2864 1.348 . S
C2865 H2881 0.930 . S
Gd2866 N2886 2.622 . S
Gd2866 N2893 2.570 . S
Gd2866 O2900 2.353 . S
Gd2866 O2901 2.468 . S
Gd2866 O2902 2.427 . S
Gd2866 O2904 2.388 . S
Gd2866 O2905 2.386 . S
Gd2866 O2909 2.307 . S
Gd2866 C2919 2.805 . S
Gd2867 N2862 2.622 . S
Gd2867 N2868 2.570 . S
Gd2867 O2899 2.386 . S
Gd2867 O2903 2.307 . S
Gd2867 O2906 2.353 . S
Gd2867 O2907 2.468 . S
Gd2867 O2908 2.427 . S
Gd2867 O2910 2.388 . S
Gd2867 C2931 2.805 . S
N2868 C2858 1.359 . S
N2868 Gd2867 2.570 . S
N2868 C2870 1.343 . S
C2869 C2857 1.422 . S
C2869 C2871 1.321 . S
C2869 H2877 0.931 1_655 S
C2870 N2868 1.343 . S
C2870 C2871 1.390 . S
C2870 H2872 0.931 . S
C2871 C2869 1.321 . S
C2871 C2870 1.390 . S
C2871 H2873 0.930 . S
H2872 C2870 0.931 . S
H2873 C2871 0.930 . S
H2874 C2897 0.931 . S
H2875 C2863 0.929 . S
H2876 C2898 0.930 . S
H2877 C2869 0.931 1_455 S
H2878 C2859 0.930 . S
H2879 C2888 0.929 . S
H2880 C2864 0.931 . S
H2881 C2865 0.930 . S
H2882 C2920 0.930 . S
H2883 C2861 0.946 . S
H2884 C2889 0.931 . S
H2885 C2890 0.930 . S
N2886 Gd2866 2.622 . S
N2886 C2887 1.369 . S
N2886 C2888 1.338 . S
C2887 N2886 1.369 . S
C2887 C2891 1.415 . S
C2887 C2894 1.422 . S
C2888 H2879 0.929 . S
C2888 N2886 1.338 . S
C2888 C2890 1.378 . S
C2889 H2884 0.931 . S
C2889 C2890 1.348 . S
C2889 C2891 1.413 . S
C2890 H2885 0.930 . S
C2890 C2888 1.378 . S
C2890 C2889 1.348 . S
C2891 C2887 1.415 . S
C2891 C2889 1.413 . S
C2891 C2921 1.437 . S
H2892 C2921 0.929 . S
N2893 Gd2866 2.570 . S
N2893 C2894 1.359 . S
N2893 C2897 1.343 . S
C2894 C2887 1.422 . S
C2894 N2893 1.359 . S
C2894 C2896 1.421 . S
C2895 C2896 1.422 . S
C2895 C2898 1.321 . S
C2895 H2922 0.931 . S
C2896 C2894 1.421 . S
C2896 C2895 1.422 . S
C2896 C2920 1.417 . S
C2897 H2874 0.931 . S
C2897 N2893 1.343 . S
C2897 C2898 1.390 . S
C2898 H2876 0.930 . S
C2898 C2895 1.321 . S
C2898 C2897 1.390 . S
O2899 Gd2867 2.386 . S
O2899 C2911 1.265 . S
O2900 Gd2866 2.353 . S
O2900 C2911 1.242 . S
O2901 Gd2866 2.468 . S
O2901 C2919 1.263 . S
O2902 Gd2866 2.427 . S
O2902 C2919 1.252 . S
O2903 Gd2867 2.307 . S
O2903 C2912 1.261 . S
O2904 Gd2866 2.388 . S
O2904 C2912 1.252 . S
O2905 Gd2866 2.386 . S
O2905 C2923 1.265 . S
O2906 Gd2867 2.353 . S
O2906 C2923 1.242 . S
O2907 Gd2867 2.468 . S
O2907 C2931 1.263 . S
O2908 Gd2867 2.427 . S
O2908 C2931 1.252 . S
O2909 Gd2866 2.307 . S
O2909 C2924 1.261 . S
O2910 Gd2867 2.388 . S
O2910 C2924 1.252 . S
C2911 O2899 1.265 . S
C2911 O2900 1.242 . S
C2912 O2903 1.261 . S
C2912 O2904 1.252 . S
C2913 C2916 1.394 . S
C2913 C2918 1.370 . S
C2913 C2919 1.500 . S
C2914 C2917 1.383 1_545 S
C2914 C2918 1.395 . S
C2915 C2916 1.396 . S
C2915 C2917 1.365 1_545 S
C2915 H2932 0.929 . S
C2916 C2913 1.394 . S
C2916 C2915 1.396 . S
C2916 H2933 0.930 . S
C2917 C2914 1.383 1_565 S
C2917 C2915 1.365 1_565 S
C2917 H2934 0.931 . S
C2918 C2913 1.370 . S
C2918 C2914 1.395 . S
C2918 H2935 0.930 . S
C2919 Gd2866 2.805 . S
C2919 O2901 1.263 . S
C2919 O2902 1.252 . S
C2919 C2913 1.500 . S
C2920 H2882 0.930 . S
C2920 C2896 1.417 . S
C2920 C2921 1.329 . S
C2921 C2891 1.437 . S
C2921 H2892 0.929 . S
C2921 C2920 1.329 . S
H2922 C2895 0.931 . S
C2923 O2905 1.265 . S
C2923 O2906 1.242 . S
C2924 O2909 1.261 . S
C2924 O2910 1.252 . S
C2925 C2928 1.394 . S
C2925 C2930 1.370 . S
C2925 C2931 1.500 . S
C2926 C2929 1.383 . S
C2926 C2930 1.395 . S
C2927 C2928 1.396 . S
C2927 C2929 1.365 . S
C2927 H2936 0.929 . S
C2928 C2925 1.394 . S
C2928 C2927 1.396 . S
C2928 H2937 0.930 . S
C2929 C2926 1.383 . S
C2929 C2927 1.365 . S
C2929 H2938 0.931 . S
C2930 C2925 1.370 . S
C2930 C2926 1.395 . S
C2930 H2939 0.930 . S
C2931 Gd2867 2.805 . S
C2931 O2907 1.263 . S
C2931 O2908 1.252 . S
C2931 C2925 1.500 . S
H2932 C2915 0.929 . S
H2933 C2916 0.930 . S
H2934 C2917 0.931 . S
H2935 C2918 0.930 . S
H2936 C2927 0.929 . S
H2937 C2928 0.930 . S
H2938 C2929 0.931 . S
H2939 C2930 0.930 . S
C2940 C2942 1.422 . S
C2940 C2944 1.415 . S
C2940 N2946 1.369 . S
C2941 C2942 1.421 . S
C2941 C2943 1.417 . S
C2941 C2953 1.422 . S
C2942 C2940 1.422 . S
C2942 C2941 1.421 . S
C2942 N2952 1.359 . S
C2943 C2941 1.417 . S
C2943 C2945 1.329 . S
C2943 H2962 0.930 . S
C2944 C2940 1.415 . S
C2944 C2945 1.437 . S
C2944 C2948 1.413 . S
C2945 C2943 1.329 . S
C2945 C2944 1.437 . S
C2945 H2967 0.929 . S
N2946 C2940 1.369 . S
N2946 C2947 1.338 . S
N2946 Gd2951 2.622 . S
C2947 N2946 1.338 . S
C2947 C2949 1.378 . S
C2947 H2959 0.929 . S
C2948 C2944 1.413 . S
C2948 C2949 1.348 . S
C2948 H2964 0.931 . S
C2949 C2947 1.378 . S
C2949 C2948 1.348 . S
C2949 H2965 0.930 . S
Gd2950 N2970 2.622 . S
Gd2950 N2977 2.570 . S
Gd2950 O2984 2.353 . S
Gd2950 O2985 2.468 . S
Gd2950 O2986 2.427 . S
Gd2950 O2988 2.388 . S
Gd2950 O2989 2.386 . S
Gd2950 O2993 2.307 . S
Gd2950 C3003 2.805 . S
Gd2951 N2946 2.622 . S
Gd2951 N2952 2.570 . S
Gd2951 O2983 2.386 . S
Gd2951 O2987 2.307 . S
Gd2951 O2990 2.353 . S
Gd2951 O2991 2.468 . S
Gd2951 O2992 2.427 . S
Gd2951 O2994 2.388 . S
Gd2951 C3015 2.805 . S
N2952 C2942 1.359 . S
N2952 Gd2951 2.570 . S
N2952 C2954 1.343 . S
C2953 C2941 1.422 . S
C2953 C2955 1.321 . S
C2953 H2961 0.931 . S
C2954 N2952 1.343 . S
C2954 C2955 1.390 . S
C2954 H2956 0.931 . S
C2955 C2953 1.321 . S
C2955 C2954 1.390 . S
C2955 H2957 0.930 . S
H2956 C2954 0.931 . S
H2957 C2955 0.930 . S
H2958 C2981 0.931 . S
H2959 C2947 0.929 . S
H2960 C2982 0.930 . S
H2961 C2953 0.931 . S
H2962 C2943 0.930 . S
H2963 C2972 0.929 . S
H2964 C2948 0.931 . S
H2965 C2949 0.930 . S
H2966 C3004 0.930 . S
H2967 C2945 0.929 . S
H2968 C2973 0.931 . S
H2969 C2974 0.930 . S
N2970 Gd2950 2.622 . S
N2970 C2971 1.369 . S
N2970 C2972 1.338 . S
C2971 N2970 1.369 . S
C2971 C2975 1.415 . S
C2971 C2978 1.422 . S
C2972 H2963 0.929 . S
C2972 N2970 1.338 . S
C2972 C2974 1.378 . S
C2973 H2968 0.931 . S
C2973 C2974 1.348 . S
C2973 C2975 1.413 . S
C2974 H2969 0.930 . S
C2974 C2972 1.378 . S
C2974 C2973 1.348 . S
C2975 C2971 1.415 . S
C2975 C2973 1.413 . S
C2975 C3005 1.437 1_655 S
H2976 C3005 0.929 . S
N2977 Gd2950 2.570 . S
N2977 C2978 1.359 . S
N2977 C2981 1.343 . S
C2978 C2971 1.422 . S
C2978 N2977 1.359 . S
C2978 C2980 1.421 1_655 S
C2979 C2980 1.422 . S
C2979 C2982 1.321 . S
C2979 H3006 0.931 . S
C2980 C2978 1.421 1_455 S
C2980 C2979 1.422 . S
C2980 C3004 1.417 . S
C2981 H2958 0.931 . S
C2981 N2977 1.343 . S
C2981 C2982 1.390 1_655 S
C2982 H2960 0.930 . S
C2982 C2979 1.321 . S
C2982 C2981 1.390 1_455 S
O2983 Gd2951 2.386 . S
O2983 C2995 1.265 . S
O2984 Gd2950 2.353 . S
O2984 C2995 1.242 . S
O2985 Gd2950 2.468 . S
O2985 C3003 1.263 . S
O2986 Gd2950 2.427 . S
O2986 C3003 1.252 . S
O2987 Gd2951 2.307 . S
O2987 C2996 1.261 . S
O2988 Gd2950 2.388 . S
O2988 C2996 1.252 . S
O2989 Gd2950 2.386 . S
O2989 C3007 1.265 . S
O2990 Gd2951 2.353 . S
O2990 C3007 1.242 . S
O2991 Gd2951 2.468 . S
O2991 C3015 1.263 . S
O2992 Gd2951 2.427 . S
O2992 C3015 1.252 . S
O2993 Gd2950 2.307 . S
O2993 C3008 1.261 . S
O2994 Gd2951 2.388 . S
O2994 C3008 1.252 . S
C2995 O2983 1.265 . S
C2995 O2984 1.242 . S
C2996 O2987 1.261 . S
C2996 O2988 1.252 . S
C2997 C3000 1.394 . S
C2997 C3002 1.370 . S
C2997 C3003 1.500 1_455 S
C2998 C3001 1.383 . S
C2998 C3002 1.395 . S
C2999 C3000 1.396 . S
C2999 C3001 1.365 . S
C2999 H3016 0.929 . S
C3000 C2997 1.394 . S
C3000 C2999 1.396 . S
C3000 H3017 0.930 . S
C3001 C2998 1.383 . S
C3001 C2999 1.365 . S
C3001 H3018 0.931 . S
C3002 C2997 1.370 . S
C3002 C2998 1.395 . S
C3002 H3019 0.930 . S
C3003 Gd2950 2.805 . S
C3003 O2985 1.263 . S
C3003 O2986 1.252 . S
C3003 C2997 1.500 1_655 S
C3004 H2966 0.930 . S
C3004 C2980 1.417 . S
C3004 C3005 1.329 . S
C3005 C2975 1.437 1_455 S
C3005 H2976 0.929 . S
C3005 C3004 1.329 . S
H3006 C2979 0.931 . S
C3007 O2989 1.265 . S
C3007 O2990 1.242 . S
C3008 O2993 1.261 . S
C3008 O2994 1.252 . S
C3009 C3012 1.394 . S
C3009 C3014 1.370 . S
C3009 C3015 1.500 . S
C3010 C3013 1.383 . S
C3010 C3014 1.395 . S
C3011 C3012 1.396 . S
C3011 C3013 1.365 . S
C3011 H3020 0.929 . S
C3012 C3009 1.394 . S
C3012 C3011 1.396 . S
C3012 H3021 0.930 . S
C3013 C3010 1.383 . S
C3013 C3011 1.365 . S
C3013 H3022 0.931 . S
C3014 C3009 1.370 . S
C3014 C3010 1.395 . S
C3014 H3023 0.930 . S
C3015 Gd2951 2.805 . S
C3015 O2991 1.263 . S
C3015 O2992 1.252 . S
C3015 C3009 1.500 . S
H3016 C2999 0.929 . S
H3017 C3000 0.930 . S
H3018 C3001 0.931 . S
H3019 C3002 0.930 . S
H3020 C3011 0.929 . S
H3021 C3012 0.930 . S
H3022 C3013 0.931 . S
H3023 C3014 0.930 . S
H3024 C3042 0.951 . S
H3025 C3044 0.951 . S
H3026 C3046 0.950 . S
H3027 C3047 0.950 . S
H3028 C3049 0.950 . S
H3029 C3052 0.950 . S
H3030 C3053 0.950 . S
H3031 C3055 0.950 . S
H3032 C3056 0.950 . S
H3033 C3057 0.951 . S
H3034 C3059 0.951 . S
H3035 C3061 0.950 . S
H3036 C3062 0.950 . S
H3037 C3064 0.950 . S
H3038 C3067 0.950 . S
H3039 C3068 0.950 . S
H3040 C3070 0.950 . S
H3041 C3071 0.950 . S
C3042 H3024 0.951 . S
C3042 C3043 1.366 . S
C3042 C3044 1.388 . S
C3043 C3042 1.366 . S
C3043 C3047 1.385 . S
C3044 H3025 0.951 . S
C3044 C3042 1.388 . S
C3044 C3045 1.366 . S
C3045 C3044 1.366 . S
C3045 C3046 1.414 . S
C3045 C3048 1.499 . S
C3046 H3026 0.950 . S
C3046 C3045 1.414 . S
C3046 C3047 1.374 . S
C3047 H3027 0.950 . S
C3047 C3043 1.385 . S
C3047 C3046 1.374 . S
C3048 C3045 1.499 . S
C3048 C3049 1.373 . S
C3048 C3050 1.389 . S
C3049 H3028 0.950 . S
C3049 C3048 1.373 . S
C3049 C3065 1.377 . S
C3050 C3048 1.389 . S
C3050 C3051 1.524 . S
C3050 C3064 1.377 . S
C3051 C3050 1.524 . S
C3051 C3052 1.397 . S
C3051 C3056 1.363 . S
C3052 H3029 0.950 . S
C3052 C3051 1.397 . S
C3052 C3053 1.334 . S
C3053 H3030 0.950 . S
C3053 C3052 1.334 . S
C3053 C3054 1.287 . S
C3054 C3053 1.287 . S
C3054 C3055 1.524 . S
C3054 H3073 0.913 . S
C3055 H3031 0.950 . S
C3055 C3054 1.524 . S
C3055 C3056 1.415 . S
C3056 H3032 0.950 . S
C3056 C3051 1.363 . S
C3056 C3055 1.415 . S
C3057 H3033 0.951 . S
C3057 C3058 1.366 . S
C3057 C3059 1.388 . S
C3058 C3057 1.366 . S
C3058 C3062 1.385 . S
C3059 H3034 0.951 . S
C3059 C3057 1.388 . S
C3059 C3060 1.366 . S
C3060 C3059 1.366 . S
C3060 C3061 1.414 . S
C3060 C3063 1.499 . S
C3061 H3035 0.950 . S
C3061 C3060 1.414 . S
C3061 C3062 1.374 . S
C3062 H3036 0.950 . S
C3062 C3058 1.385 . S
C3062 C3061 1.374 . S
C3063 C3060 1.499 . S
C3063 C3064 1.373 . S
C3063 C3065 1.389 . S
C3064 H3037 0.950 . S
C3064 C3050 1.377 . S
C3064 C3063 1.373 . S
C3065 C3049 1.377 . S
C3065 C3063 1.389 . S
C3065 C3066 1.524 . S
C3066 C3065 1.524 . S
C3066 C3067 1.397 . S
C3066 C3071 1.363 . S
C3067 H3038 0.950 . S
C3067 C3066 1.397 . S
C3067 C3068 1.334 . S
C3068 H3039 0.950 . S
C3068 C3067 1.334 . S
C3068 C3069 1.287 . S
C3069 C3068 1.287 . S
C3069 C3070 1.524 . S
C3069 H3072 0.999 . S
C3070 H3040 0.950 . S
C3070 C3069 1.524 . S
C3070 C3071 1.415 . S
C3071 H3041 0.950 . S
C3071 C3066 1.363 . S
C3071 C3070 1.415 . S
H3072 C3069 0.999 . S
H3073 C3054 0.913 . S
H3074 C3092 0.951 . S
H3075 C3094 0.951 . S
H3076 C3096 0.950 . S
H3077 C3097 0.950 . S
H3078 C3099 0.950 . S
H3079 C3102 0.950 . S
H3080 C3103 0.950 . S
H3081 C3105 0.950 . S
H3082 C3106 0.950 . S
H3083 C3107 0.951 . S
H3084 C3109 0.951 . S
H3085 C3111 0.950 . S
H3086 C3112 0.950 1_455 S
H3087 C3114 0.950 . S
H3088 C3117 0.950 . S
H3089 C3118 0.950 . S
H3090 C3120 0.950 . S
H3091 C3121 0.950 . S
C3092 H3074 0.951 . S
C3092 C3093 1.366 . S
C3092 C3094 1.388 . S
C3093 C3092 1.366 . S
C3093 C3097 1.385 . S
C3094 H3075 0.951 . S
C3094 C3092 1.388 . S
C3094 C3095 1.366 . S
C3095 C3094 1.366 . S
C3095 C3096 1.414 . S
C3095 C3098 1.499 . S
C3096 H3076 0.950 . S
C3096 C3095 1.414 . S
C3096 C3097 1.374 . S
C3097 H3077 0.950 . S
C3097 C3093 1.385 . S
C3097 C3096 1.374 . S
C3098 C3095 1.499 . S
C3098 C3099 1.373 . S
C3098 C3100 1.389 . S
C3099 H3078 0.950 . S
C3099 C3098 1.373 . S
C3099 C3115 1.377 . S
C3100 C3098 1.389 . S
C3100 C3101 1.524 . S
C3100 C3114 1.377 . S
C3101 C3100 1.524 . S
C3101 C3102 1.397 . S
C3101 C3106 1.363 . S
C3102 H3079 0.950 . S
C3102 C3101 1.397 . S
C3102 C3103 1.334 . S
C3103 H3080 0.950 . S
C3103 C3102 1.334 . S
C3103 C3104 1.287 . S
C3104 C3103 1.287 . S
C3104 C3105 1.524 . S
C3104 H3123 0.913 . S
C3105 H3081 0.950 . S
C3105 C3104 1.524 . S
C3105 C3106 1.415 . S
C3106 H3082 0.950 . S
C3106 C3101 1.363 . S
C3106 C3105 1.415 . S
C3107 H3083 0.951 . S
C3107 C3108 1.366 . S
C3107 C3109 1.388 . S
C3108 C3107 1.366 . S
C3108 C3112 1.385 . S
C3109 H3084 0.951 . S
C3109 C3107 1.388 . S
C3109 C3110 1.366 . S
C3110 C3109 1.366 . S
C3110 C3111 1.414 . S
C3110 C3113 1.499 . S
C3111 H3085 0.950 . S
C3111 C3110 1.414 . S
C3111 C3112 1.374 . S
C3112 H3086 0.950 1_655 S
C3112 C3108 1.385 . S
C3112 C3111 1.374 . S
C3113 C3110 1.499 . S
C3113 C3114 1.373 . S
C3113 C3115 1.389 . S
C3114 H3087 0.950 . S
C3114 C3100 1.377 . S
C3114 C3113 1.373 . S
C3115 C3099 1.377 . S
C3115 C3113 1.389 . S
C3115 C3116 1.524 . S
C3116 C3115 1.524 . S
C3116 C3117 1.397 1_655 S
C3116 C3121 1.363 . S
C3117 H3088 0.950 . S
C3117 C3116 1.397 1_455 S
C3117 C3118 1.334 . S
C3118 H3089 0.950 . S
C3118 C3117 1.334 . S
C3118 C3119 1.287 . S
C3119 C3118 1.287 . S
C3119 C3120 1.524 . S
C3119 H3122 0.999 . S
C3120 H3090 0.950 . S
C3120 C3119 1.524 . S
C3120 C3121 1.415 1_455 S
C3121 H3091 0.950 . S
C3121 C3116 1.363 . S
C3121 C3120 1.415 1_655 S
H3122 C3119 0.999 . S
H3123 C3104 0.913 . S
H3124 C3142 0.951 . S
H3125 C3144 0.951 . S
H3126 C3146 0.950 . S
H3127 C3147 0.950 . S
H3128 C3149 0.950 . S
H3129 C3152 0.950 . S
H3130 C3153 0.950 . S
H3131 C3155 0.950 . S
H3132 C3156 0.950 . S
H3133 C3157 0.951 . S
H3134 C3159 0.951 . S
H3135 C3161 0.950 . S
H3136 C3162 0.950 . S
H3137 C3164 0.950 . S
H3138 C3167 0.950 . S
H3139 C3168 0.950 . S
H3140 C3170 0.950 . S
H3141 C3171 0.950 . S
C3142 H3124 0.951 . S
C3142 C3143 1.366 . S
C3142 C3144 1.388 . S
C3143 C3142 1.366 . S
C3143 C3147 1.385 . S
C3144 H3125 0.951 . S
C3144 C3142 1.388 . S
C3144 C3145 1.366 . S
C3145 C3144 1.366 . S
C3145 C3146 1.414 . S
C3145 C3148 1.499 . S
C3146 H3126 0.950 . S
C3146 C3145 1.414 . S
C3146 C3147 1.374 . S
C3147 H3127 0.950 . S
C3147 C3143 1.385 . S
C3147 C3146 1.374 . S
C3148 C3145 1.499 . S
C3148 C3149 1.373 . S
C3148 C3150 1.389 . S
C3149 H3128 0.950 . S
C3149 C3148 1.373 . S
C3149 C3165 1.377 . S
C3150 C3148 1.389 . S
C3150 C3151 1.524 . S
C3150 C3164 1.377 . S
C3151 C3150 1.524 . S
C3151 C3152 1.397 . S
C3151 C3156 1.363 . S
C3152 H3129 0.950 . S
C3152 C3151 1.397 . S
C3152 C3153 1.334 . S
C3153 H3130 0.950 . S
C3153 C3152 1.334 . S
C3153 C3154 1.287 . S
C3154 C3153 1.287 . S
C3154 C3155 1.524 . S
C3154 H3173 0.913 . S
C3155 H3131 0.950 . S
C3155 C3154 1.524 . S
C3155 C3156 1.415 . S
C3156 H3132 0.950 . S
C3156 C3151 1.363 . S
C3156 C3155 1.415 . S
C3157 H3133 0.951 . S
C3157 C3158 1.366 . S
C3157 C3159 1.388 . S
C3158 C3157 1.366 . S
C3158 C3162 1.385 . S
C3159 H3134 0.951 . S
C3159 C3157 1.388 . S
C3159 C3160 1.366 . S
C3160 C3159 1.366 . S
C3160 C3161 1.414 . S
C3160 C3163 1.499 . S
C3161 H3135 0.950 . S
C3161 C3160 1.414 . S
C3161 C3162 1.374 . S
C3162 H3136 0.950 . S
C3162 C3158 1.385 . S
C3162 C3161 1.374 . S
C3163 C3160 1.499 . S
C3163 C3164 1.373 . S
C3163 C3165 1.389 . S
C3164 H3137 0.950 . S
C3164 C3150 1.377 . S
C3164 C3163 1.373 . S
C3165 C3149 1.377 . S
C3165 C3163 1.389 . S
C3165 C3166 1.524 . S
C3166 C3165 1.524 . S
C3166 C3167 1.397 . S
C3166 C3171 1.363 . S
C3167 H3138 0.950 . S
C3167 C3166 1.397 . S
C3167 C3168 1.334 . S
C3168 H3139 0.950 . S
C3168 C3167 1.334 . S
C3168 C3169 1.287 . S
C3169 C3168 1.287 . S
C3169 C3170 1.524 . S
C3169 H3172 0.999 . S
C3170 H3140 0.950 . S
C3170 C3169 1.524 . S
C3170 C3171 1.415 . S
C3171 H3141 0.950 . S
C3171 C3166 1.363 . S
C3171 C3170 1.415 . S
H3172 C3169 0.999 . S
H3173 C3154 0.913 . S
H3174 C3192 0.951 . S
H3175 C3194 0.951 . S
H3176 C3196 0.950 . S
H3177 C3197 0.950 . S
H3178 C3199 0.950 . S
H3179 C3202 0.950 . S
H3180 C3203 0.950 . S
H3181 C3205 0.950 . S
H3182 C3206 0.950 . S
H3183 C3207 0.951 . S
H3184 C3209 0.951 . S
H3185 C3211 0.950 . S
H3186 C3212 0.950 . S
H3187 C3214 0.950 . S
H3188 C3217 0.950 . S
H3189 C3218 0.950 . S
H3190 C3220 0.950 . S
H3191 C3221 0.950 . S
C3192 H3174 0.951 . S
C3192 C3193 1.366 . S
C3192 C3194 1.388 . S
C3193 C3192 1.366 . S
C3193 C3197 1.385 . S
C3194 H3175 0.951 . S
C3194 C3192 1.388 . S
C3194 C3195 1.366 . S
C3195 C3194 1.366 . S
C3195 C3196 1.414 . S
C3195 C3198 1.499 . S
C3196 H3176 0.950 . S
C3196 C3195 1.414 . S
C3196 C3197 1.374 . S
C3197 H3177 0.950 . S
C3197 C3193 1.385 . S
C3197 C3196 1.374 . S
C3198 C3195 1.499 . S
C3198 C3199 1.373 . S
C3198 C3200 1.389 . S
C3199 H3178 0.950 . S
C3199 C3198 1.373 . S
C3199 C3215 1.377 . S
C3200 C3198 1.389 . S
C3200 C3201 1.524 . S
C3200 C3214 1.377 . S
C3201 C3200 1.524 . S
C3201 C3202 1.397 . S
C3201 C3206 1.363 . S
C3202 H3179 0.950 . S
C3202 C3201 1.397 . S
C3202 C3203 1.334 . S
C3203 H3180 0.950 . S
C3203 C3202 1.334 . S
C3203 C3204 1.287 . S
C3204 C3203 1.287 . S
C3204 C3205 1.524 . S
C3204 H3223 0.913 . S
C3205 H3181 0.950 . S
C3205 C3204 1.524 . S
C3205 C3206 1.415 . S
C3206 H3182 0.950 . S
C3206 C3201 1.363 . S
C3206 C3205 1.415 . S
C3207 H3183 0.951 . S
C3207 C3208 1.366 . S
C3207 C3209 1.388 . S
C3208 C3207 1.366 . S
C3208 C3212 1.385 . S
C3209 H3184 0.951 . S
C3209 C3207 1.388 . S
C3209 C3210 1.366 . S
C3210 C3209 1.366 . S
C3210 C3211 1.414 . S
C3210 C3213 1.499 . S
C3211 H3185 0.950 . S
C3211 C3210 1.414 . S
C3211 C3212 1.374 . S
C3212 H3186 0.950 . S
C3212 C3208 1.385 . S
C3212 C3211 1.374 . S
C3213 C3210 1.499 . S
C3213 C3214 1.373 . S
C3213 C3215 1.389 . S
C3214 H3187 0.950 . S
C3214 C3200 1.377 . S
C3214 C3213 1.373 . S
C3215 C3199 1.377 . S
C3215 C3213 1.389 . S
C3215 C3216 1.524 . S
C3216 C3215 1.524 . S
C3216 C3217 1.397 . S
C3216 C3221 1.363 . S
C3217 H3188 0.950 . S
C3217 C3216 1.397 . S
C3217 C3218 1.334 . S
C3218 H3189 0.950 . S
C3218 C3217 1.334 . S
C3218 C3219 1.287 . S
C3219 C3218 1.287 . S
C3219 C3220 1.524 . S
C3219 H3222 0.999 . S
C3220 H3190 0.950 . S
C3220 C3219 1.524 . S
C3220 C3221 1.415 . S
C3221 H3191 0.950 . S
C3221 C3216 1.363 . S
C3221 C3220 1.415 . S
H3222 C3219 0.999 . S
H3223 C3204 0.913 . S
H3224 C3242 0.951 . S
H3225 C3244 0.951 . S
H3226 C3246 0.950 . S
H3227 C3247 0.950 . S
H3228 C3249 0.950 . S
H3229 C3252 0.950 . S
H3230 C3253 0.950 . S
H3231 C3255 0.950 . S
H3232 C3256 0.950 . S
H3233 C3257 0.951 . S
H3234 C3259 0.951 . S
H3235 C3261 0.950 . S
H3236 C3262 0.950 . S
H3237 C3264 0.950 . S
H3238 C3267 0.950 . S
H3239 C3268 0.950 . S
H3240 C3270 0.950 . S
H3241 C3271 0.950 . S
C3242 H3224 0.951 . S
C3242 C3243 1.366 . S
C3242 C3244 1.388 . S
C3243 C3242 1.366 . S
C3243 C3247 1.385 . S
C3244 H3225 0.951 . S
C3244 C3242 1.388 . S
C3244 C3245 1.366 . S
C3245 C3244 1.366 . S
C3245 C3246 1.414 . S
C3245 C3248 1.499 . S
C3246 H3226 0.950 . S
C3246 C3245 1.414 . S
C3246 C3247 1.374 . S
C3247 H3227 0.950 . S
C3247 C3243 1.385 . S
C3247 C3246 1.374 . S
C3248 C3245 1.499 . S
C3248 C3249 1.373 . S
C3248 C3250 1.389 . S
C3249 H3228 0.950 . S
C3249 C3248 1.373 . S
C3249 C3265 1.377 . S
C3250 C3248 1.389 . S
C3250 C3251 1.524 . S
C3250 C3264 1.377 . S
C3251 C3250 1.524 . S
C3251 C3252 1.397 . S
C3251 C3256 1.363 . S
C3252 H3229 0.950 . S
C3252 C3251 1.397 . S
C3252 C3253 1.334 . S
C3253 H3230 0.950 . S
C3253 C3252 1.334 . S
C3253 C3254 1.287 . S
C3254 C3253 1.287 . S
C3254 C3255 1.524 . S
C3254 H3273 0.913 . S
C3255 H3231 0.950 . S
C3255 C3254 1.524 . S
C3255 C3256 1.415 . S
C3256 H3232 0.950 . S
C3256 C3251 1.363 . S
C3256 C3255 1.415 . S
C3257 H3233 0.951 . S
C3257 C3258 1.366 . S
C3257 C3259 1.388 . S
C3258 C3257 1.366 . S
C3258 C3262 1.385 . S
C3259 H3234 0.951 . S
C3259 C3257 1.388 . S
C3259 C3260 1.366 . S
C3260 C3259 1.366 . S
C3260 C3261 1.414 . S
C3260 C3263 1.499 . S
C3261 H3235 0.950 . S
C3261 C3260 1.414 . S
C3261 C3262 1.374 . S
C3262 H3236 0.950 . S
C3262 C3258 1.385 . S
C3262 C3261 1.374 . S
C3263 C3260 1.499 . S
C3263 C3264 1.373 . S
C3263 C3265 1.389 . S
C3264 H3237 0.950 . S
C3264 C3250 1.377 . S
C3264 C3263 1.373 . S
C3265 C3249 1.377 . S
C3265 C3263 1.389 . S
C3265 C3266 1.524 . S
C3266 C3265 1.524 . S
C3266 C3267 1.397 . S
C3266 C3271 1.363 . S
C3267 H3238 0.950 . S
C3267 C3266 1.397 . S
C3267 C3268 1.334 . S
C3268 H3239 0.950 . S
C3268 C3267 1.334 . S
C3268 C3269 1.287 . S
C3269 C3268 1.287 . S
C3269 C3270 1.524 . S
C3269 H3272 0.999 . S
C3270 H3240 0.950 . S
C3270 C3269 1.524 . S
C3270 C3271 1.415 . S
C3271 H3241 0.950 . S
C3271 C3266 1.363 . S
C3271 C3270 1.415 . S
H3272 C3269 0.999 . S
H3273 C3254 0.913 . S
H3274 C3292 0.951 . S
H3275 C3294 0.951 . S
H3276 C3296 0.950 . S
H3277 C3297 0.950 . S
H3278 C3299 0.950 . S
H3279 C3302 0.950 . S
H3280 C3303 0.950 . S
H3281 C3305 0.950 . S
H3282 C3306 0.950 . S
H3283 C3307 0.951 . S
H3284 C3309 0.951 . S
H3285 C3311 0.950 . S
H3286 C3312 0.950 . S
H3287 C3314 0.950 . S
H3288 C3317 0.950 . S
H3289 C3318 0.950 . S
H3290 C3320 0.950 . S
H3291 C3321 0.950 . S
C3292 H3274 0.951 . S
C3292 C3293 1.366 . S
C3292 C3294 1.388 . S
C3293 C3292 1.366 . S
C3293 C3297 1.385 . S
C3294 H3275 0.951 . S
C3294 C3292 1.388 . S
C3294 C3295 1.366 . S
C3295 C3294 1.366 . S
C3295 C3296 1.414 . S
C3295 C3298 1.499 . S
C3296 H3276 0.950 . S
C3296 C3295 1.414 . S
C3296 C3297 1.374 . S
C3297 H3277 0.950 . S
C3297 C3293 1.385 . S
C3297 C3296 1.374 . S
C3298 C3295 1.499 . S
C3298 C3299 1.373 . S
C3298 C3300 1.389 . S
C3299 H3278 0.950 . S
C3299 C3298 1.373 . S
C3299 C3315 1.377 . S
C3300 C3298 1.389 . S
C3300 C3301 1.524 . S
C3300 C3314 1.377 . S
C3301 C3300 1.524 . S
C3301 C3302 1.397 . S
C3301 C3306 1.363 1_565 S
C3302 H3279 0.950 . S
C3302 C3301 1.397 . S
C3302 C3303 1.334 . S
C3303 H3280 0.950 . S
C3303 C3302 1.334 . S
C3303 C3304 1.287 . S
C3304 C3303 1.287 . S
C3304 C3305 1.524 1_565 S
C3304 H3323 0.913 . S
C3305 H3281 0.950 . S
C3305 C3304 1.524 1_545 S
C3305 C3306 1.415 . S
C3306 H3282 0.950 . S
C3306 C3301 1.363 1_545 S
C3306 C3305 1.415 . S
C3307 H3283 0.951 . S
C3307 C3308 1.366 . S
C3307 C3309 1.388 . S
C3308 C3307 1.366 . S
C3308 C3312 1.385 1_565 S
C3309 H3284 0.951 . S
C3309 C3307 1.388 . S
C3309 C3310 1.366 . S
C3310 C3309 1.366 . S
C3310 C3311 1.414 1_565 S
C3310 C3313 1.499 . S
C3311 H3285 0.950 . S
C3311 C3310 1.414 1_545 S
C3311 C3312 1.374 . S
C3312 H3286 0.950 . S
C3312 C3308 1.385 1_545 S
C3312 C3311 1.374 . S
C3313 C3310 1.499 . S
C3313 C3314 1.373 . S
C3313 C3315 1.389 . S
C3314 H3287 0.950 . S
C3314 C3300 1.377 . S
C3314 C3313 1.373 . S
C3315 C3299 1.377 . S
C3315 C3313 1.389 . S
C3315 C3316 1.524 . S
C3316 C3315 1.524 . S
C3316 C3317 1.397 . S
C3316 C3321 1.363 . S
C3317 H3288 0.950 . S
C3317 C3316 1.397 . S
C3317 C3318 1.334 . S
C3318 H3289 0.950 . S
C3318 C3317 1.334 . S
C3318 C3319 1.287 . S
C3319 C3318 1.287 . S
C3319 C3320 1.524 . S
C3319 H3322 0.999 . S
C3320 H3290 0.950 . S
C3320 C3319 1.524 . S
C3320 C3321 1.415 . S
C3321 H3291 0.950 . S
C3321 C3316 1.363 . S
C3321 C3320 1.415 . S
H3322 C3319 0.999 . S
H3323 C3304 0.913 . S
H3324 C3342 0.951 1_545 S
H3325 C3344 0.951 . S
H3326 C3346 0.950 . S
H3327 C3347 0.950 . S
H3328 C3349 0.950 . S
H3329 C3352 0.950 . S
H3330 C3353 0.950 . S
H3331 C3355 0.950 . S
H3332 C3356 0.950 . S
H3333 C3357 0.951 . S
H3334 C3359 0.951 . S
H3335 C3361 0.950 . S
H3336 C3362 0.950 . S
H3337 C3364 0.950 . S
H3338 C3367 0.950 . S
H3339 C3368 0.950 . S
H3340 C3370 0.950 . S
H3341 C3371 0.950 . S
C3342 H3324 0.951 1_565 S
C3342 C3343 1.366 . S
C3342 C3344 1.388 . S
C3343 C3342 1.366 . S
C3343 C3347 1.385 . S
C3344 H3325 0.951 . S
C3344 C3342 1.388 . S
C3344 C3345 1.366 . S
C3345 C3344 1.366 . S
C3345 C3346 1.414 . S
C3345 C3348 1.499 . S
C3346 H3326 0.950 . S
C3346 C3345 1.414 . S
C3346 C3347 1.374 . S
C3347 H3327 0.950 . S
C3347 C3343 1.385 . S
C3347 C3346 1.374 . S
C3348 C3345 1.499 . S
C3348 C3349 1.373 . S
C3348 C3350 1.389 . S
C3349 H3328 0.950 . S
C3349 C3348 1.373 . S
C3349 C3365 1.377 . S
C3350 C3348 1.389 . S
C3350 C3351 1.524 1_565 S
C3350 C3364 1.377 . S
C3351 C3350 1.524 1_545 S
C3351 C3352 1.397 . S
C3351 C3356 1.363 . S
C3352 H3329 0.950 . S
C3352 C3351 1.397 . S
C3352 C3353 1.334 . S
C3353 H3330 0.950 . S
C3353 C3352 1.334 . S
C3353 C3354 1.287 . S
C3354 C3353 1.287 . S
C3354 C3355 1.524 . S
C3354 H3373 0.913 . S
C3355 H3331 0.950 . S
C3355 C3354 1.524 . S
C3355 C3356 1.415 . S
C3356 H3332 0.950 . S
C3356 C3351 1.363 . S
C3356 C3355 1.415 . S
C3357 H3333 0.951 . S
C3357 C3358 1.366 . S
C3357 C3359 1.388 . S
C3358 C3357 1.366 . S
C3358 C3362 1.385 . S
C3359 H3334 0.951 . S
C3359 C3357 1.388 . S
C3359 C3360 1.366 . S
C3360 C3359 1.366 . S
C3360 C3361 1.414 . S
C3360 C3363 1.499 . S
C3361 H3335 0.950 . S
C3361 C3360 1.414 . S
C3361 C3362 1.374 . S
C3362 H3336 0.950 . S
C3362 C3358 1.385 . S
C3362 C3361 1.374 . S
C3363 C3360 1.499 . S
C3363 C3364 1.373 . S
C3363 C3365 1.389 . S
C3364 H3337 0.950 . S
C3364 C3350 1.377 . S
C3364 C3363 1.373 . S
C3365 C3349 1.377 . S
C3365 C3363 1.389 . S
C3365 C3366 1.524 . S
C3366 C3365 1.524 . S
C3366 C3367 1.397 . S
C3366 C3371 1.363 . S
C3367 H3338 0.950 . S
C3367 C3366 1.397 . S
C3367 C3368 1.334 . S
C3368 H3339 0.950 . S
C3368 C3367 1.334 . S
C3368 C3369 1.287 . S
C3369 C3368 1.287 . S
C3369 C3370 1.524 . S
C3369 H3372 0.999 . S
C3370 H3340 0.950 . S
C3370 C3369 1.524 . S
C3370 C3371 1.415 . S
C3371 H3341 0.950 . S
C3371 C3366 1.363 . S
C3371 C3370 1.415 . S
H3372 C3369 0.999 . S
H3373 C3354 0.913 . S
H3374 C3392 0.951 . S
H3375 C3394 0.951 . S
H3376 C3396 0.950 . S
H3377 C3397 0.950 . S
H3378 C3399 0.950 . S
H3379 C3402 0.950 . S
H3380 C3403 0.950 . S
H3381 C3405 0.950 . S
H3382 C3406 0.950 . S
H3383 C3407 0.951 . S
H3384 C3409 0.951 . S
H3385 C3411 0.950 . S
H3386 C3412 0.950 . S
H3387 C3414 0.950 . S
H3388 C3417 0.950 . S
H3389 C3418 0.950 . S
H3390 C3420 0.950 . S
H3391 C3421 0.950 . S
C3392 H3374 0.951 . S
C3392 C3393 1.366 . S
C3392 C3394 1.388 . S
C3393 C3392 1.366 . S
C3393 C3397 1.385 . S
C3394 H3375 0.951 . S
C3394 C3392 1.388 . S
C3394 C3395 1.366 . S
C3395 C3394 1.366 . S
C3395 C3396 1.414 . S
C3395 C3398 1.499 . S
C3396 H3376 0.950 . S
C3396 C3395 1.414 . S
C3396 C3397 1.374 . S
C3397 H3377 0.950 . S
C3397 C3393 1.385 . S
C3397 C3396 1.374 . S
C3398 C3395 1.499 . S
C3398 C3399 1.373 . S
C3398 C3400 1.389 . S
C3399 H3378 0.950 . S
C3399 C3398 1.373 . S
C3399 C3415 1.377 . S
C3400 C3398 1.389 . S
C3400 C3401 1.524 . S
C3400 C3414 1.377 . S
C3401 C3400 1.524 . S
C3401 C3402 1.397 . S
C3401 C3406 1.363 . S
C3402 H3379 0.950 . S
C3402 C3401 1.397 . S
C3402 C3403 1.334 . S
C3403 H3380 0.950 . S
C3403 C3402 1.334 . S
C3403 C3404 1.287 . S
C3404 C3403 1.287 . S
C3404 C3405 1.524 . S
C3404 H3423 0.913 . S
C3405 H3381 0.950 . S
C3405 C3404 1.524 . S
C3405 C3406 1.415 . S
C3406 H3382 0.950 . S
C3406 C3401 1.363 . S
C3406 C3405 1.415 . S
C3407 H3383 0.951 . S
C3407 C3408 1.366 . S
C3407 C3409 1.388 . S
C3408 C3407 1.366 . S
C3408 C3412 1.385 . S
C3409 H3384 0.951 . S
C3409 C3407 1.388 . S
C3409 C3410 1.366 . S
C3410 C3409 1.366 . S
C3410 C3411 1.414 . S
C3410 C3413 1.499 . S
C3411 H3385 0.950 . S
C3411 C3410 1.414 . S
C3411 C3412 1.374 . S
C3412 H3386 0.950 . S
C3412 C3408 1.385 . S
C3412 C3411 1.374 . S
C3413 C3410 1.499 . S
C3413 C3414 1.373 . S
C3413 C3415 1.389 . S
C3414 H3387 0.950 . S
C3414 C3400 1.377 . S
C3414 C3413 1.373 . S
C3415 C3399 1.377 . S
C3415 C3413 1.389 . S
C3415 C3416 1.524 . S
C3416 C3415 1.524 . S
C3416 C3417 1.397 . S
C3416 C3421 1.363 . S
C3417 H3388 0.950 . S
C3417 C3416 1.397 . S
C3417 C3418 1.334 . S
C3418 H3389 0.950 . S
C3418 C3417 1.334 . S
C3418 C3419 1.287 . S
C3419 C3418 1.287 . S
C3419 C3420 1.524 . S
C3419 H3422 0.999 . S
C3420 H3390 0.950 . S
C3420 C3419 1.524 . S
C3420 C3421 1.415 . S
C3421 H3391 0.950 . S
C3421 C3416 1.363 . S
C3421 C3420 1.415 . S
H3422 C3419 0.999 . S
H3423 C3404 0.913 . S
H3424 C3442 0.951 . S
H3425 C3444 0.951 . S
H3426 C3446 0.950 . S
H3427 C3447 0.950 . S
H3428 C3449 0.950 . S
H3429 C3452 0.950 . S
H3430 C3453 0.950 . S
H3431 C3455 0.950 . S
H3432 C3456 0.950 . S
H3433 C3457 0.951 . S
H3434 C3459 0.951 . S
H3435 C3461 0.950 . S
H3436 C3462 0.950 . S
H3437 C3464 0.950 . S
H3438 C3467 0.950 . S
H3439 C3468 0.950 . S
H3440 C3470 0.950 . S
H3441 C3471 0.950 . S
C3442 H3424 0.951 . S
C3442 C3443 1.366 . S
C3442 C3444 1.388 . S
C3443 C3442 1.366 . S
C3443 C3447 1.385 . S
C3444 H3425 0.951 . S
C3444 C3442 1.388 . S
C3444 C3445 1.366 . S
C3445 C3444 1.366 . S
C3445 C3446 1.414 . S
C3445 C3448 1.499 . S
C3446 H3426 0.950 . S
C3446 C3445 1.414 . S
C3446 C3447 1.374 . S
C3447 H3427 0.950 . S
C3447 C3443 1.385 . S
C3447 C3446 1.374 . S
C3448 C3445 1.499 . S
C3448 C3449 1.373 . S
C3448 C3450 1.389 . S
C3449 H3428 0.950 . S
C3449 C3448 1.373 . S
C3449 C3465 1.377 . S
C3450 C3448 1.389 . S
C3450 C3451 1.524 . S
C3450 C3464 1.377 . S
C3451 C3450 1.524 . S
C3451 C3452 1.397 . S
C3451 C3456 1.363 . S
C3452 H3429 0.950 . S
C3452 C3451 1.397 . S
C3452 C3453 1.334 . S
C3453 H3430 0.950 . S
C3453 C3452 1.334 . S
C3453 C3454 1.287 . S
C3454 C3453 1.287 . S
C3454 C3455 1.524 . S
C3454 H3473 0.913 . S
C3455 H3431 0.950 . S
C3455 C3454 1.524 . S
C3455 C3456 1.415 . S
C3456 H3432 0.950 . S
C3456 C3451 1.363 . S
C3456 C3455 1.415 . S
C3457 H3433 0.951 . S
C3457 C3458 1.366 . S
C3457 C3459 1.388 . S
C3458 C3457 1.366 . S
C3458 C3462 1.385 . S
C3459 H3434 0.951 . S
C3459 C3457 1.388 . S
C3459 C3460 1.366 . S
C3460 C3459 1.366 . S
C3460 C3461 1.414 . S
C3460 C3463 1.499 . S
C3461 H3435 0.950 . S
C3461 C3460 1.414 . S
C3461 C3462 1.374 . S
C3462 H3436 0.950 . S
C3462 C3458 1.385 . S
C3462 C3461 1.374 . S
C3463 C3460 1.499 . S
C3463 C3464 1.373 . S
C3463 C3465 1.389 . S
C3464 H3437 0.950 . S
C3464 C3450 1.377 . S
C3464 C3463 1.373 . S
C3465 C3449 1.377 . S
C3465 C3463 1.389 . S
C3465 C3466 1.524 . S
C3466 C3465 1.524 . S
C3466 C3467 1.397 . S
C3466 C3471 1.363 . S
C3467 H3438 0.950 . S
C3467 C3466 1.397 . S
C3467 C3468 1.334 . S
C3468 H3439 0.950 . S
C3468 C3467 1.334 . S
C3468 C3469 1.287 . S
C3469 C3468 1.287 . S
C3469 C3470 1.524 . S
C3469 H3472 0.999 . S
C3470 H3440 0.950 . S
C3470 C3469 1.524 . S
C3470 C3471 1.415 . S
C3471 H3441 0.950 . S
C3471 C3466 1.363 . S
C3471 C3470 1.415 . S
H3472 C3469 0.999 . S
H3473 C3454 0.913 . S
H3474 C3492 0.951 . S
H3475 C3494 0.951 . S
H3476 C3496 0.950 . S
H3477 C3497 0.950 . S
H3478 C3499 0.950 . S
H3479 C3502 0.950 . S
H3480 C3503 0.950 1_655 S
H3481 C3505 0.950 . S
H3482 C3506 0.950 . S
H3483 C3507 0.951 . S
H3484 C3509 0.951 . S
H3485 C3511 0.950 . S
H3486 C3512 0.950 . S
H3487 C3514 0.950 1_455 S
H3488 C3517 0.950 . S
H3489 C3518 0.950 . S
H3490 C3520 0.950 . S
H3491 C3521 0.950 . S
C3492 H3474 0.951 . S
C3492 C3493 1.366 . S
C3492 C3494 1.388 . S
C3493 C3492 1.366 . S
C3493 C3497 1.385 . S
C3494 H3475 0.951 . S
C3494 C3492 1.388 . S
C3494 C3495 1.366 . S
C3495 C3494 1.366 . S
C3495 C3496 1.414 . S
C3495 C3498 1.499 . S
C3496 H3476 0.950 . S
C3496 C3495 1.414 . S
C3496 C3497 1.374 . S
C3497 H3477 0.950 . S
C3497 C3493 1.385 . S
C3497 C3496 1.374 . S
C3498 C3495 1.499 . S
C3498 C3499 1.373 . S
C3498 C3500 1.389 . S
C3499 H3478 0.950 . S
C3499 C3498 1.373 . S
C3499 C3515 1.377 . S
C3500 C3498 1.389 . S
C3500 C3501 1.524 . S
C3500 C3514 1.377 . S
C3501 C3500 1.524 . S
C3501 C3502 1.397 . S
C3501 C3506 1.363 1_655 S
C3502 H3479 0.950 . S
C3502 C3501 1.397 . S
C3502 C3503 1.334 1_655 S
C3503 H3480 0.950 1_455 S
C3503 C3502 1.334 1_455 S
C3503 C3504 1.287 . S
C3504 C3503 1.287 . S
C3504 C3505 1.524 . S
C3504 H3523 0.913 . S
C3505 H3481 0.950 . S
C3505 C3504 1.524 . S
C3505 C3506 1.415 . S
C3506 H3482 0.950 . S
C3506 C3501 1.363 1_455 S
C3506 C3505 1.415 . S
C3507 H3483 0.951 . S
C3507 C3508 1.366 . S
C3507 C3509 1.388 . S
C3508 C3507 1.366 . S
C3508 C3512 1.385 1_655 S
C3509 H3484 0.951 . S
C3509 C3507 1.388 . S
C3509 C3510 1.366 . S
C3510 C3509 1.366 . S
C3510 C3511 1.414 1_655 S
C3510 C3513 1.499 . S
C3511 H3485 0.950 . S
C3511 C3510 1.414 1_455 S
C3511 C3512 1.374 . S
C3512 H3486 0.950 . S
C3512 C3508 1.385 1_455 S
C3512 C3511 1.374 . S
C3513 C3510 1.499 . S
C3513 C3514 1.373 . S
C3513 C3515 1.389 . S
C3514 H3487 0.950 1_655 S
C3514 C3500 1.377 . S
C3514 C3513 1.373 . S
C3515 C3499 1.377 . S
C3515 C3513 1.389 . S
C3515 C3516 1.524 . S
C3516 C3515 1.524 . S
C3516 C3517 1.397 . S
C3516 C3521 1.363 . S
C3517 H3488 0.950 . S
C3517 C3516 1.397 . S
C3517 C3518 1.334 . S
C3518 H3489 0.950 . S
C3518 C3517 1.334 . S
C3518 C3519 1.287 . S
C3519 C3518 1.287 . S
C3519 C3520 1.524 . S
C3519 H3522 0.999 . S
C3520 H3490 0.950 . S
C3520 C3519 1.524 . S
C3520 C3521 1.415 . S
C3521 H3491 0.950 . S
C3521 C3516 1.363 . S
C3521 C3520 1.415 . S
H3522 C3519 0.999 . S
H3523 C3504 0.913 . S
H3524 C3542 0.951 . S
H3525 C3544 0.951 . S
H3526 C3546 0.950 . S
H3527 C3547 0.950 . S
H3528 C3549 0.950 . S
H3529 C3552 0.950 . S
H3530 C3553 0.950 . S
H3531 C3555 0.950 . S
H3532 C3556 0.950 . S
H3533 C3557 0.951 . S
H3534 C3559 0.951 . S
H3535 C3561 0.950 . S
H3536 C3562 0.950 . S
H3537 C3564 0.950 . S
H3538 C3567 0.950 . S
H3539 C3568 0.950 . S
H3540 C3570 0.950 . S
H3541 C3571 0.950 . S
C3542 H3524 0.951 . S
C3542 C3543 1.366 . S
C3542 C3544 1.388 . S
C3543 C3542 1.366 . S
C3543 C3547 1.385 . S
C3544 H3525 0.951 . S
C3544 C3542 1.388 . S
C3544 C3545 1.366 . S
C3545 C3544 1.366 . S
C3545 C3546 1.414 . S
C3545 C3548 1.499 . S
C3546 H3526 0.950 . S
C3546 C3545 1.414 . S
C3546 C3547 1.374 . S
C3547 H3527 0.950 . S
C3547 C3543 1.385 . S
C3547 C3546 1.374 . S
C3548 C3545 1.499 . S
C3548 C3549 1.373 . S
C3548 C3550 1.389 . S
C3549 H3528 0.950 . S
C3549 C3548 1.373 . S
C3549 C3565 1.377 . S
C3550 C3548 1.389 . S
C3550 C3551 1.524 . S
C3550 C3564 1.377 . S
C3551 C3550 1.524 . S
C3551 C3552 1.397 . S
C3551 C3556 1.363 . S
C3552 H3529 0.950 . S
C3552 C3551 1.397 . S
C3552 C3553 1.334 . S
C3553 H3530 0.950 . S
C3553 C3552 1.334 . S
C3553 C3554 1.287 . S
C3554 C3553 1.287 . S
C3554 C3555 1.524 . S
C3554 H3573 0.913 . S
C3555 H3531 0.950 . S
C3555 C3554 1.524 . S
C3555 C3556 1.415 . S
C3556 H3532 0.950 . S
C3556 C3551 1.363 . S
C3556 C3555 1.415 . S
C3557 H3533 0.951 . S
C3557 C3558 1.366 . S
C3557 C3559 1.388 . S
C3558 C3557 1.366 . S
C3558 C3562 1.385 . S
C3559 H3534 0.951 . S
C3559 C3557 1.388 . S
C3559 C3560 1.366 . S
C3560 C3559 1.366 . S
C3560 C3561 1.414 . S
C3560 C3563 1.499 . S
C3561 H3535 0.950 . S
C3561 C3560 1.414 . S
C3561 C3562 1.374 . S
C3562 H3536 0.950 . S
C3562 C3558 1.385 . S
C3562 C3561 1.374 . S
C3563 C3560 1.499 . S
C3563 C3564 1.373 . S
C3563 C3565 1.389 . S
C3564 H3537 0.950 . S
C3564 C3550 1.377 . S
C3564 C3563 1.373 . S
C3565 C3549 1.377 . S
C3565 C3563 1.389 . S
C3565 C3566 1.524 . S
C3566 C3565 1.524 . S
C3566 C3567 1.397 . S
C3566 C3571 1.363 . S
C3567 H3538 0.950 . S
C3567 C3566 1.397 . S
C3567 C3568 1.334 . S
C3568 H3539 0.950 . S
C3568 C3567 1.334 . S
C3568 C3569 1.287 . S
C3569 C3568 1.287 . S
C3569 C3570 1.524 . S
C3569 H3572 0.999 . S
C3570 H3540 0.950 . S
C3570 C3569 1.524 . S
C3570 C3571 1.415 . S
C3571 H3541 0.950 . S
C3571 C3566 1.363 . S
C3571 C3570 1.415 . S
H3572 C3569 0.999 . S
H3573 C3554 0.913 . S
H3574 C3592 0.951 . S
H3575 C3594 0.951 . S
H3576 C3596 0.950 . S
H3577 C3597 0.950 . S
H3578 C3599 0.950 . S
H3579 C3602 0.950 . S
H3580 C3603 0.950 . S
H3581 C3605 0.950 . S
H3582 C3606 0.950 . S
H3583 C3607 0.951 . S
H3584 C3609 0.951 . S
H3585 C3611 0.950 . S
H3586 C3612 0.950 . S
H3587 C3614 0.950 . S
H3588 C3617 0.950 . S
H3589 C3618 0.950 . S
H3590 C3620 0.950 1_565 S
H3591 C3621 0.950 . S
C3592 H3574 0.951 . S
C3592 C3593 1.366 . S
C3592 C3594 1.388 . S
C3593 C3592 1.366 . S
C3593 C3597 1.385 . S
C3594 H3575 0.951 . S
C3594 C3592 1.388 . S
C3594 C3595 1.366 . S
C3595 C3594 1.366 . S
C3595 C3596 1.414 . S
C3595 C3598 1.499 . S
C3596 H3576 0.950 . S
C3596 C3595 1.414 . S
C3596 C3597 1.374 . S
C3597 H3577 0.950 . S
C3597 C3593 1.385 . S
C3597 C3596 1.374 . S
C3598 C3595 1.499 . S
C3598 C3599 1.373 . S
C3598 C3600 1.389 . S
C3599 H3578 0.950 . S
C3599 C3598 1.373 . S
C3599 C3615 1.377 . S
C3600 C3598 1.389 . S
C3600 C3601 1.524 . S
C3600 C3614 1.377 . S
C3601 C3600 1.524 . S
C3601 C3602 1.397 . S
C3601 C3606 1.363 . S
C3602 H3579 0.950 . S
C3602 C3601 1.397 . S
C3602 C3603 1.334 . S
C3603 H3580 0.950 . S
C3603 C3602 1.334 . S
C3603 C3604 1.287 . S
C3604 C3603 1.287 . S
C3604 C3605 1.524 . S
C3604 H3623 0.913 . S
C3605 H3581 0.950 . S
C3605 C3604 1.524 . S
C3605 C3606 1.415 . S
C3606 H3582 0.950 . S
C3606 C3601 1.363 . S
C3606 C3605 1.415 . S
C3607 H3583 0.951 . S
C3607 C3608 1.366 . S
C3607 C3609 1.388 . S
C3608 C3607 1.366 . S
C3608 C3612 1.385 . S
C3609 H3584 0.951 . S
C3609 C3607 1.388 . S
C3609 C3610 1.366 . S
C3610 C3609 1.366 . S
C3610 C3611 1.414 . S
C3610 C3613 1.499 . S
C3611 H3585 0.950 . S
C3611 C3610 1.414 . S
C3611 C3612 1.374 . S
C3612 H3586 0.950 . S
C3612 C3608 1.385 . S
C3612 C3611 1.374 . S
C3613 C3610 1.499 . S
C3613 C3614 1.373 . S
C3613 C3615 1.389 . S
C3614 H3587 0.950 . S
C3614 C3600 1.377 . S
C3614 C3613 1.373 . S
C3615 C3599 1.377 . S
C3615 C3613 1.389 . S
C3615 C3616 1.524 . S
C3616 C3615 1.524 . S
C3616 C3617 1.397 . S
C3616 C3621 1.363 . S
C3617 H3588 0.950 . S
C3617 C3616 1.397 . S
C3617 C3618 1.334 . S
C3618 H3589 0.950 . S
C3618 C3617 1.334 . S
C3618 C3619 1.287 1_545 S
C3619 C3618 1.287 1_565 S
C3619 C3620 1.524 1_565 S
C3619 H3622 0.999 . S
C3620 H3590 0.950 1_545 S
C3620 C3619 1.524 1_545 S
C3620 C3621 1.415 . S
C3621 H3591 0.950 . S
C3621 C3616 1.363 . S
C3621 C3620 1.415 . S
H3622 C3619 0.999 . S
H3623 C3604 0.913 . S
H3624 C3642 0.951 . S
H3625 C3644 0.951 . S
H3626 C3646 0.950 . S
H3627 C3647 0.950 . S
H3628 C3649 0.950 . S
H3629 C3652 0.950 . S
H3630 C3653 0.950 . S
H3631 C3655 0.950 . S
H3632 C3656 0.950 . S
H3633 C3657 0.951 . S
H3634 C3659 0.951 . S
H3635 C3661 0.950 . S
H3636 C3662 0.950 . S
H3637 C3664 0.950 . S
H3638 C3667 0.950 . S
H3639 C3668 0.950 . S
H3640 C3670 0.950 . S
H3641 C3671 0.950 . S
C3642 H3624 0.951 . S
C3642 C3643 1.366 . S
C3642 C3644 1.388 . S
C3643 C3642 1.366 . S
C3643 C3647 1.385 . S
C3644 H3625 0.951 . S
C3644 C3642 1.388 . S
C3644 C3645 1.366 . S
C3645 C3644 1.366 . S
C3645 C3646 1.414 . S
C3645 C3648 1.499 . S
C3646 H3626 0.950 . S
C3646 C3645 1.414 . S
C3646 C3647 1.374 . S
C3647 H3627 0.950 . S
C3647 C3643 1.385 . S
C3647 C3646 1.374 . S
C3648 C3645 1.499 . S
C3648 C3649 1.373 . S
C3648 C3650 1.389 . S
C3649 H3628 0.950 . S
C3649 C3648 1.373 . S
C3649 C3665 1.377 . S
C3650 C3648 1.389 . S
C3650 C3651 1.524 . S
C3650 C3664 1.377 . S
C3651 C3650 1.524 . S
C3651 C3652 1.397 . S
C3651 C3656 1.363 . S
C3652 H3629 0.950 . S
C3652 C3651 1.397 . S
C3652 C3653 1.334 . S
C3653 H3630 0.950 . S
C3653 C3652 1.334 . S
C3653 C3654 1.287 . S
C3654 C3653 1.287 . S
C3654 C3655 1.524 . S
C3654 H3673 0.913 . S
C3655 H3631 0.950 . S
C3655 C3654 1.524 . S
C3655 C3656 1.415 . S
C3656 H3632 0.950 . S
C3656 C3651 1.363 . S
C3656 C3655 1.415 . S
C3657 H3633 0.951 . S
C3657 C3658 1.366 . S
C3657 C3659 1.388 . S
C3658 C3657 1.366 . S
C3658 C3662 1.385 . S
C3659 H3634 0.951 . S
C3659 C3657 1.388 . S
C3659 C3660 1.366 . S
C3660 C3659 1.366 . S
C3660 C3661 1.414 . S
C3660 C3663 1.499 . S
C3661 H3635 0.950 . S
C3661 C3660 1.414 . S
C3661 C3662 1.374 . S
C3662 H3636 0.950 . S
C3662 C3658 1.385 . S
C3662 C3661 1.374 . S
C3663 C3660 1.499 . S
C3663 C3664 1.373 . S
C3663 C3665 1.389 . S
C3664 H3637 0.950 . S
C3664 C3650 1.377 . S
C3664 C3663 1.373 . S
C3665 C3649 1.377 . S
C3665 C3663 1.389 . S
C3665 C3666 1.524 . S
C3666 C3665 1.524 . S
C3666 C3667 1.397 . S
C3666 C3671 1.363 . S
C3667 H3638 0.950 . S
C3667 C3666 1.397 . S
C3667 C3668 1.334 . S
C3668 H3639 0.950 . S
C3668 C3667 1.334 . S
C3668 C3669 1.287 . S
C3669 C3668 1.287 . S
C3669 C3670 1.524 . S
C3669 H3672 0.999 . S
C3670 H3640 0.950 . S
C3670 C3669 1.524 . S
C3670 C3671 1.415 . S
C3671 H3641 0.950 . S
C3671 C3666 1.363 . S
C3671 C3670 1.415 . S
H3672 C3669 0.999 . S
H3673 C3654 0.913 . S
H3674 C3692 0.951 . S
H3675 C3694 0.951 . S
H3676 C3696 0.912 1_545 S
H3677 C3697 0.950 . S
H3678 C3699 0.950 . S
H3679 C3702 0.950 1_545 S
H3680 C3703 0.950 . S
H3681 C3705 0.950 . S
H3682 C3706 0.950 . S
H3683 C3707 0.951 . S
H3684 C3709 0.951 . S
H3685 C3711 0.950 . S
H3686 C3712 0.950 . S
H3687 C3714 0.950 . S
H3688 C3717 0.950 . S
H3689 C3718 0.950 . S
H3690 C3720 0.950 . S
H3691 C3721 0.950 . S
C3692 H3674 0.951 . S
C3692 C3693 1.366 . S
C3692 C3694 1.388 . S
C3693 C3692 1.366 . S
C3693 C3697 1.385 . S
C3694 H3675 0.951 . S
C3694 C3692 1.388 . S
C3694 C3695 1.366 . S
C3695 C3694 1.366 . S
C3695 C3696 1.427 . S
C3695 C3698 1.499 1_565 S
C3696 H3676 0.912 1_565 S
C3696 C3695 1.427 . S
C3696 C3697 1.400 . S
C3697 H3677 0.950 . S
C3697 C3693 1.385 . S
C3697 C3696 1.400 . S
C3698 C3695 1.499 1_545 S
C3698 C3699 1.373 . S
C3698 C3700 1.389 . S
C3699 H3678 0.950 . S
C3699 C3698 1.373 . S
C3699 C3715 1.377 . S
C3700 C3698 1.389 . S
C3700 C3701 1.524 1_545 S
C3700 C3714 1.377 . S
C3701 C3700 1.524 1_565 S
C3701 C3702 1.397 . S
C3701 C3706 1.363 . S
C3702 H3679 0.950 1_565 S
C3702 C3701 1.397 . S
C3702 C3703 1.334 . S
C3703 H3680 0.950 . S
C3703 C3702 1.334 . S
C3703 C3704 1.287 . S
C3704 C3703 1.287 . S
C3704 C3705 1.524 . S
C3704 H3723 0.913 . S
C3705 H3681 0.950 . S
C3705 C3704 1.524 . S
C3705 C3706 1.415 . S
C3706 H3682 0.950 . S
C3706 C3701 1.363 . S
C3706 C3705 1.415 . S
C3707 H3683 0.951 . S
C3707 C3708 1.366 . S
C3707 C3709 1.388 . S
C3708 C3707 1.366 . S
C3708 C3712 1.385 . S
C3709 H3684 0.951 . S
C3709 C3707 1.388 . S
C3709 C3710 1.366 . S
C3710 C3709 1.366 . S
C3710 C3711 1.414 . S
C3710 C3713 1.499 . S
C3711 H3685 0.950 . S
C3711 C3710 1.414 . S
C3711 C3712 1.374 . S
C3712 H3686 0.950 . S
C3712 C3708 1.385 . S
C3712 C3711 1.374 . S
C3713 C3710 1.499 . S
C3713 C3714 1.373 . S
C3713 C3715 1.389 . S
C3714 H3687 0.950 . S
C3714 C3700 1.377 . S
C3714 C3713 1.373 . S
C3715 C3699 1.377 . S
C3715 C3713 1.389 . S
C3715 C3716 1.524 . S
C3716 C3715 1.524 . S
C3716 C3717 1.397 . S
C3716 C3721 1.363 . S
C3717 H3688 0.950 . S
C3717 C3716 1.397 . S
C3717 C3718 1.334 . S
C3718 H3689 0.950 . S
C3718 C3717 1.334 . S
C3718 C3719 1.287 . S
C3719 C3718 1.287 . S
C3719 C3720 1.524 . S
C3719 H3722 0.999 . S
C3720 H3690 0.950 . S
C3720 C3719 1.524 . S
C3720 C3721 1.415 . S
C3721 H3691 0.950 . S
C3721 C3716 1.363 . S
C3721 C3720 1.415 . S
H3722 C3719 0.999 . S
H3723 C3704 0.913 . S
H3724 C3742 0.951 . S
H3725 C3744 0.951 1_455 S
H3726 C3746 0.950 . S
H3727 C3747 0.950 . S
H3728 C3749 0.950 1_655 S
H3729 C3752 0.950 . S
H3730 C3753 0.950 . S
H3731 C3755 0.950 . S
H3732 C3756 0.950 . S
H3733 C3757 0.951 . S
H3734 C3759 0.951 . S
H3735 C3761 0.950 . S
H3736 C3762 0.950 . S
H3737 C3764 0.950 . S
H3738 C3767 0.950 . S
H3739 C3768 0.950 . S
H3740 C3770 0.950 . S
H3741 C3771 0.950 . S
C3742 H3724 0.951 . S
C3742 C3743 1.366 . S
C3742 C3744 1.388 . S
C3743 C3742 1.366 . S
C3743 C3747 1.385 . S
C3744 H3725 0.951 1_655 S
C3744 C3742 1.388 . S
C3744 C3745 1.366 . S
C3745 C3744 1.366 . S
C3745 C3746 1.414 . S
C3745 C3748 1.499 1_655 S
C3746 H3726 0.950 . S
C3746 C3745 1.414 . S
C3746 C3747 1.374 . S
C3747 H3727 0.950 . S
C3747 C3743 1.385 . S
C3747 C3746 1.374 . S
C3748 C3745 1.499 1_455 S
C3748 C3749 1.373 . S
C3748 C3750 1.389 . S
C3749 H3728 0.950 1_455 S
C3749 C3748 1.373 . S
C3749 C3765 1.377 . S
C3750 C3748 1.389 . S
C3750 C3751 1.524 . S
C3750 C3764 1.377 . S
C3751 C3750 1.524 . S
C3751 C3752 1.397 . S
C3751 C3756 1.363 . S
C3752 H3729 0.950 . S
C3752 C3751 1.397 . S
C3752 C3753 1.334 . S
C3753 H3730 0.950 . S
C3753 C3752 1.334 . S
C3753 C3754 1.287 . S
C3754 C3753 1.287 . S
C3754 C3755 1.524 . S
C3754 H3773 0.913 . S
C3755 H3731 0.950 . S
C3755 C3754 1.524 . S
C3755 C3756 1.415 . S
C3756 H3732 0.950 . S
C3756 C3751 1.363 . S
C3756 C3755 1.415 . S
C3757 H3733 0.951 . S
C3757 C3758 1.366 . S
C3757 C3759 1.388 . S
C3758 C3757 1.366 . S
C3758 C3762 1.385 . S
C3759 H3734 0.951 . S
C3759 C3757 1.388 . S
C3759 C3760 1.366 . S
C3760 C3759 1.366 . S
C3760 C3761 1.414 . S
C3760 C3763 1.499 . S
C3761 H3735 0.950 . S
C3761 C3760 1.414 . S
C3761 C3762 1.374 . S
C3762 H3736 0.950 . S
C3762 C3758 1.385 . S
C3762 C3761 1.374 . S
C3763 C3760 1.499 . S
C3763 C3764 1.373 . S
C3763 C3765 1.389 . S
C3764 H3737 0.950 . S
C3764 C3750 1.377 . S
C3764 C3763 1.373 . S
C3765 C3749 1.377 . S
C3765 C3763 1.389 . S
C3765 C3766 1.524 . S
C3766 C3765 1.524 . S
C3766 C3767 1.397 . S
C3766 C3771 1.363 1_455 S
C3767 H3738 0.950 . S
C3767 C3766 1.397 . S
C3767 C3768 1.334 . S
C3768 H3739 0.950 . S
C3768 C3767 1.334 . S
C3768 C3769 1.287 . S
C3769 C3768 1.287 . S
C3769 C3770 1.524 1_455 S
C3769 H3772 0.999 . S
C3770 H3740 0.950 . S
C3770 C3769 1.524 1_655 S
C3770 C3771 1.415 . S
C3771 H3741 0.950 . S
C3771 C3766 1.363 1_655 S
C3771 C3770 1.415 . S
H3772 C3769 0.999 . S
H3773 C3754 0.913 . S
H3774 C3792 0.951 . S
H3775 C3794 0.951 . S
H3776 C3796 0.950 . S
H3777 C3797 0.950 . S
H3778 C3799 0.950 . S
H3779 C3802 0.950 . S
H3780 C3803 0.950 . S
H3781 C3805 0.950 . S
H3782 C3806 0.950 . S
H3783 C3807 0.951 . S
H3784 C3809 0.951 . S
H3785 C3811 0.950 . S
H3786 C3812 0.950 . S
H3787 C3814 0.950 . S
H3788 C3817 0.950 . S
H3789 C3818 0.950 . S
H3790 C3820 0.950 . S
H3791 C3821 0.950 . S
C3792 H3774 0.951 . S
C3792 C3793 1.366 . S
C3792 C3794 1.388 . S
C3793 C3792 1.366 . S
C3793 C3797 1.385 . S
C3794 H3775 0.951 . S
C3794 C3792 1.388 . S
C3794 C3795 1.366 . S
C3795 C3794 1.366 . S
C3795 C3796 1.414 . S
C3795 C3798 1.499 . S
C3796 H3776 0.950 . S
C3796 C3795 1.414 . S
C3796 C3797 1.374 . S
C3797 H3777 0.950 . S
C3797 C3793 1.385 . S
C3797 C3796 1.374 . S
C3798 C3795 1.499 . S
C3798 C3799 1.373 . S
C3798 C3800 1.389 . S
C3799 H3778 0.950 . S
C3799 C3798 1.373 . S
C3799 C3815 1.377 . S
C3800 C3798 1.389 . S
C3800 C3801 1.524 . S
C3800 C3814 1.377 . S
C3801 C3800 1.524 . S
C3801 C3802 1.397 . S
C3801 C3806 1.363 . S
C3802 H3779 0.950 . S
C3802 C3801 1.397 . S
C3802 C3803 1.334 . S
C3803 H3780 0.950 . S
C3803 C3802 1.334 . S
C3803 C3804 1.287 . S
C3804 C3803 1.287 . S
C3804 C3805 1.524 . S
C3804 H3823 0.913 . S
C3805 H3781 0.950 . S
C3805 C3804 1.524 . S
C3805 C3806 1.415 . S
C3806 H3782 0.950 . S
C3806 C3801 1.363 . S
C3806 C3805 1.415 . S
C3807 H3783 0.951 . S
C3807 C3808 1.366 . S
C3807 C3809 1.388 . S
C3808 C3807 1.366 . S
C3808 C3812 1.385 . S
C3809 H3784 0.951 . S
C3809 C3807 1.388 . S
C3809 C3810 1.366 . S
C3810 C3809 1.366 . S
C3810 C3811 1.414 . S
C3810 C3813 1.499 . S
C3811 H3785 0.950 . S
C3811 C3810 1.414 . S
C3811 C3812 1.374 . S
C3812 H3786 0.950 . S
C3812 C3808 1.385 . S
C3812 C3811 1.374 . S
C3813 C3810 1.499 . S
C3813 C3814 1.373 . S
C3813 C3815 1.389 . S
C3814 H3787 0.950 . S
C3814 C3800 1.377 . S
C3814 C3813 1.373 . S
C3815 C3799 1.377 . S
C3815 C3813 1.389 . S
C3815 C3816 1.524 . S
C3816 C3815 1.524 . S
C3816 C3817 1.397 . S
C3816 C3821 1.363 . S
C3817 H3788 0.950 . S
C3817 C3816 1.397 . S
C3817 C3818 1.334 . S
C3818 H3789 0.950 . S
C3818 C3817 1.334 . S
C3818 C3819 1.287 . S
C3819 C3818 1.287 . S
C3819 C3820 1.524 . S
C3819 H3822 0.999 . S
C3820 H3790 0.950 . S
C3820 C3819 1.524 . S
C3820 C3821 1.415 . S
C3821 H3791 0.950 . S
C3821 C3816 1.363 . S
C3821 C3820 1.415 . S
H3822 C3819 0.999 . S
H3823 C3804 0.913 . S
H3824 C3842 0.951 . S
H3825 C3844 0.951 1_545 S
H3826 C3846 0.950 . S
H3827 C3847 0.950 . S
H3828 C3849 0.950 . S
H3829 C3852 0.950 . S
H3830 C3853 0.950 . S
H3831 C3855 0.950 . S
H3832 C3856 0.950 . S
H3833 C3857 0.951 . S
H3834 C3859 0.951 . S
H3835 C3861 0.950 . S
H3836 C3862 0.950 . S
H3837 C3864 0.950 . S
H3838 C3867 0.950 . S
H3839 C3868 0.950 . S
H3840 C3870 0.950 . S
H3841 C3871 0.950 . S
C3842 H3824 0.951 . S
C3842 C3843 1.366 . S
C3842 C3844 1.388 . S
C3843 C3842 1.366 . S
C3843 C3847 1.385 . S
C3844 H3825 0.951 1_565 S
C3844 C3842 1.388 . S
C3844 C3845 1.366 . S
C3845 C3844 1.366 . S
C3845 C3846 1.414 . S
C3845 C3848 1.499 1_565 S
C3846 H3826 0.950 . S
C3846 C3845 1.414 . S
C3846 C3847 1.374 . S
C3847 H3827 0.950 . S
C3847 C3843 1.385 . S
C3847 C3846 1.374 . S
C3848 C3845 1.499 1_545 S
C3848 C3849 1.373 . S
C3848 C3850 1.389 . S
C3849 H3828 0.950 . S
C3849 C3848 1.373 . S
C3849 C3865 1.377 . S
C3850 C3848 1.389 . S
C3850 C3851 1.524 . S
C3850 C3864 1.377 . S
C3851 C3850 1.524 . S
C3851 C3852 1.397 1_545 S
C3851 C3856 1.363 . S
C3852 H3829 0.950 . S
C3852 C3851 1.397 1_565 S
C3852 C3853 1.334 . S
C3853 H3830 0.950 . S
C3853 C3852 1.334 . S
C3853 C3854 1.287 . S
C3854 C3853 1.287 . S
C3854 C3855 1.524 1_565 S
C3854 H3873 0.913 . S
C3855 H3831 0.950 . S
C3855 C3854 1.524 1_545 S
C3855 C3856 1.415 . S
C3856 H3832 0.950 . S
C3856 C3851 1.363 . S
C3856 C3855 1.415 . S
C3857 H3833 0.951 . S
C3857 C3858 1.366 . S
C3857 C3859 1.388 . S
C3858 C3857 1.366 . S
C3858 C3862 1.385 . S
C3859 H3834 0.951 . S
C3859 C3857 1.388 . S
C3859 C3860 1.366 . S
C3860 C3859 1.366 . S
C3860 C3861 1.414 . S
C3860 C3863 1.499 . S
C3861 H3835 0.950 . S
C3861 C3860 1.414 . S
C3861 C3862 1.374 . S
C3862 H3836 0.950 . S
C3862 C3858 1.385 . S
C3862 C3861 1.374 . S
C3863 C3860 1.499 . S
C3863 C3864 1.373 . S
C3863 C3865 1.389 . S
C3864 H3837 0.950 . S
C3864 C3850 1.377 . S
C3864 C3863 1.373 . S
C3865 C3849 1.377 . S
C3865 C3863 1.389 . S
C3865 C3866 1.524 . S
C3866 C3865 1.524 . S
C3866 C3867 1.397 . S
C3866 C3871 1.363 . S
C3867 H3838 0.950 . S
C3867 C3866 1.397 . S
C3867 C3868 1.334 . S
C3868 H3839 0.950 . S
C3868 C3867 1.334 . S
C3868 C3869 1.287 . S
C3869 C3868 1.287 . S
C3869 C3870 1.524 . S
C3869 H3872 0.999 . S
C3870 H3840 0.950 . S
C3870 C3869 1.524 . S
C3870 C3871 1.415 . S
C3871 H3841 0.950 . S
C3871 C3866 1.363 . S
C3871 C3870 1.415 . S
H3872 C3869 0.999 . S
H3873 C3854 0.913 . S
H3874 C3892 0.951 . S
H3875 C3894 0.951 . S
H3876 C3896 0.950 1_455 S
H3877 C3897 0.950 . S
H3878 C3899 0.950 . S
H3879 C3902 0.950 . S
H3880 C3903 0.950 . S
H3881 C3905 0.950 . S
H3882 C3906 0.950 1_655 S
H3883 C3907 0.951 . S
H3884 C3909 0.951 . S
H3885 C3911 0.950 . S
H3886 C3912 0.950 . S
H3887 C3914 0.950 . S
H3888 C3917 0.950 . S
H3889 C3918 0.950 . S
H3890 C3920 0.950 . S
H3891 C3921 0.950 . S
C3892 H3874 0.951 . S
C3892 C3893 1.366 . S
C3892 C3894 1.388 . S
C3893 C3892 1.366 . S
C3893 C3897 1.385 . S
C3894 H3875 0.951 . S
C3894 C3892 1.388 . S
C3894 C3895 1.366 . S
C3895 C3894 1.366 . S
C3895 C3896 1.414 . S
C3895 C3898 1.499 1_655 S
C3896 H3876 0.950 1_655 S
C3896 C3895 1.414 . S
C3896 C3897 1.374 . S
C3897 H3877 0.950 . S
C3897 C3893 1.385 . S
C3897 C3896 1.374 . S
C3898 C3895 1.499 1_455 S
C3898 C3899 1.373 . S
C3898 C3900 1.389 . S
C3899 H3878 0.950 . S
C3899 C3898 1.373 . S
C3899 C3915 1.377 . S
C3900 C3898 1.389 . S
C3900 C3901 1.524 . S
C3900 C3914 1.377 . S
C3901 C3900 1.524 . S
C3901 C3902 1.397 . S
C3901 C3906 1.363 . S
C3902 H3879 0.950 . S
C3902 C3901 1.397 . S
C3902 C3903 1.334 . S
C3903 H3880 0.950 . S
C3903 C3902 1.334 . S
C3903 C3904 1.305 . S
C3904 C3903 1.305 . S
C3904 C3905 1.521 1_455 S
C3904 H3923 0.894 1_455 S
C3905 H3881 0.950 . S
C3905 C3904 1.521 1_655 S
C3905 C3906 1.415 1_655 S
C3906 H3882 0.950 1_455 S
C3906 C3901 1.363 . S
C3906 C3905 1.415 1_455 S
C3907 H3883 0.951 . S
C3907 C3908 1.366 . S
C3907 C3909 1.388 . S
C3908 C3907 1.366 . S
C3908 C3912 1.385 . S
C3909 H3884 0.951 . S
C3909 C3907 1.388 . S
C3909 C3910 1.366 . S
C3910 C3909 1.366 . S
C3910 C3911 1.414 . S
C3910 C3913 1.499 . S
C3911 H3885 0.950 . S
C3911 C3910 1.414 . S
C3911 C3912 1.374 . S
C3912 H3886 0.950 . S
C3912 C3908 1.385 . S
C3912 C3911 1.374 . S
C3913 C3910 1.499 . S
C3913 C3914 1.373 . S
C3913 C3915 1.389 . S
C3914 H3887 0.950 . S
C3914 C3900 1.377 . S
C3914 C3913 1.373 . S
C3915 C3899 1.377 . S
C3915 C3913 1.389 . S
C3915 C3916 1.524 . S
C3916 C3915 1.524 . S
C3916 C3917 1.397 . S
C3916 C3921 1.363 . S
C3917 H3888 0.950 . S
C3917 C3916 1.397 . S
C3917 C3918 1.334 . S
C3918 H3889 0.950 . S
C3918 C3917 1.334 . S
C3918 C3919 1.287 . S
C3919 C3918 1.287 . S
C3919 C3920 1.524 . S
C3919 H3922 0.999 . S
C3920 H3890 0.950 . S
C3920 C3919 1.524 . S
C3920 C3921 1.415 . S
C3921 H3891 0.950 . S
C3921 C3916 1.363 . S
C3921 C3920 1.415 . S
H3922 C3919 0.999 . S
H3923 C3904 0.894 1_655 S
H3924 C3942 0.951 . S
H3925 C3944 0.951 . S
H3926 C3946 0.950 1_565 S
H3927 C3947 0.950 1_565 S
H3928 C3949 0.950 . S
H3929 C3952 0.950 . S
H3930 C3953 0.950 . S
H3931 C3955 0.950 . S
H3932 C3956 0.950 . S
H3933 C3957 0.951 1_565 S
H3934 C3959 0.951 1_565 S
H3935 C3961 0.950 . S
H3936 C3962 0.950 . S
H3937 C3964 0.950 . S
H3938 C3967 0.950 . S
H3939 C3968 0.950 . S
H3940 C3970 0.950 . S
H3941 C3971 0.950 . S
C3942 H3924 0.951 . S
C3942 C3943 1.366 . S
C3942 C3944 1.388 . S
C3943 C3942 1.366 . S
C3943 C3947 1.385 . S
C3944 H3925 0.951 . S
C3944 C3942 1.388 . S
C3944 C3945 1.366 . S
C3945 C3944 1.366 . S
C3945 C3946 1.414 . S
C3945 C3948 1.499 . S
C3946 H3926 0.950 1_545 S
C3946 C3945 1.414 . S
C3946 C3947 1.374 . S
C3947 H3927 0.950 1_545 S
C3947 C3943 1.385 . S
C3947 C3946 1.374 . S
C3948 C3945 1.499 . S
C3948 C3949 1.373 . S
C3948 C3950 1.389 . S
C3949 H3928 0.950 . S
C3949 C3948 1.373 . S
C3949 C3965 1.377 1_554 S
C3950 C3948 1.389 . S
C3950 C3951 1.524 . S
C3950 C3964 1.377 1_554 S
C3951 C3950 1.524 . S
C3951 C3952 1.397 . S
C3951 C3956 1.363 . S
C3952 H3929 0.950 . S
C3952 C3951 1.397 . S
C3952 C3953 1.334 . S
C3953 H3930 0.950 . S
C3953 C3952 1.334 . S
C3953 C3954 1.287 . S
C3954 C3953 1.287 . S
C3954 C3955 1.524 . S
C3954 H3973 0.913 . S
C3955 H3931 0.950 . S
C3955 C3954 1.524 . S
C3955 C3956 1.415 . S
C3956 H3932 0.950 . S
C3956 C3951 1.363 . S
C3956 C3955 1.415 . S
C3957 H3933 0.951 1_545 S
C3957 C3958 1.366 . S
C3957 C3959 1.388 . S
C3958 C3957 1.366 . S
C3958 C3962 1.385 . S
C3959 H3934 0.951 1_545 S
C3959 C3957 1.388 . S
C3959 C3960 1.366 . S
C3960 C3959 1.366 . S
C3960 C3961 1.414 . S
C3960 C3963 1.499 . S
C3961 H3935 0.950 . S
C3961 C3960 1.414 . S
C3961 C3962 1.374 . S
C3962 H3936 0.950 . S
C3962 C3958 1.385 . S
C3962 C3961 1.374 . S
C3963 C3960 1.499 . S
C3963 C3964 1.373 . S
C3963 C3965 1.389 . S
C3964 H3937 0.950 . S
C3964 C3950 1.377 1_556 S
C3964 C3963 1.373 . S
C3965 C3949 1.377 1_556 S
C3965 C3963 1.389 . S
C3965 C3966 1.524 . S
C3966 C3965 1.524 . S
C3966 C3967 1.397 . S
C3966 C3971 1.363 1_545 S
C3967 H3938 0.950 . S
C3967 C3966 1.397 . S
C3967 C3968 1.334 . S
C3968 H3939 0.950 . S
C3968 C3967 1.334 . S
C3968 C3969 1.287 1_545 S
C3969 C3968 1.287 1_565 S
C3969 C3970 1.524 . S
C3969 H3972 0.999 . S
C3970 H3940 0.950 . S
C3970 C3969 1.524 . S
C3970 C3971 1.415 . S
C3971 H3941 0.950 . S
C3971 C3966 1.363 1_565 S
C3971 C3970 1.415 . S
H3972 C3969 0.999 . S
H3973 C3954 0.913 . S
H3974 C3992 0.951 . S
H3975 C3994 0.951 . S
H3976 C3996 0.950 1_655 S
H3977 C3997 0.950 1_655 S
H3978 C3999 0.950 1_655 S
H3979 C4002 0.950 . S
H3980 C4003 0.950 . S
H3981 C4005 0.950 . S
H3982 C4006 0.950 . S
H3983 C4007 0.951 1_655 S
H3984 C4009 0.951 1_655 S
H3985 C4011 0.950 . S
H3986 C4012 0.950 . S
H3987 C4014 0.950 . S
H3988 C4017 0.950 1_455 S
H3989 C4018 0.950 . S
H3990 C4020 0.950 . S
H3991 C4021 0.950 . S
C3992 H3974 0.951 . S
C3992 C3993 1.366 . S
C3992 C3994 1.388 . S
C3993 C3992 1.366 . S
C3993 C3997 1.385 . S
C3994 H3975 0.951 . S
C3994 C3992 1.388 . S
C3994 C3995 1.366 . S
C3995 C3994 1.366 . S
C3995 C3996 1.414 . S
C3995 C3998 1.499 . S
C3996 H3976 0.950 1_455 S
C3996 C3995 1.414 . S
C3996 C3997 1.374 . S
C3997 H3977 0.950 1_455 S
C3997 C3993 1.385 . S
C3997 C3996 1.374 . S
C3998 C3995 1.499 . S
C3998 C3999 1.373 . S
C3998 C4000 1.389 . S
C3999 H3978 0.950 1_455 S
C3999 C3998 1.373 . S
C3999 C4015 1.377 1_556 S
C4000 C3998 1.389 . S
C4000 C4001 1.524 . S
C4000 C4014 1.377 1_556 S
C4001 C4000 1.524 . S
C4001 C4002 1.397 . S
C4001 C4006 1.363 . S
C4002 H3979 0.950 . S
C4002 C4001 1.397 . S
C4002 C4003 1.334 . S
C4003 H3980 0.950 . S
C4003 C4002 1.334 . S
C4003 C4004 1.287 . S
C4004 C4003 1.287 . S
C4004 C4005 1.524 . S
C4004 H4023 0.913 . S
C4005 H3981 0.950 . S
C4005 C4004 1.524 . S
C4005 C4006 1.415 . S
C4006 H3982 0.950 . S
C4006 C4001 1.363 . S
C4006 C4005 1.415 . S
C4007 H3983 0.951 1_455 S
C4007 C4008 1.366 . S
C4007 C4009 1.388 . S
C4008 C4007 1.366 . S
C4008 C4012 1.385 . S
C4009 H3984 0.951 1_455 S
C4009 C4007 1.388 . S
C4009 C4010 1.366 . S
C4010 C4009 1.366 . S
C4010 C4011 1.414 . S
C4010 C4013 1.499 . S
C4011 H3985 0.950 . S
C4011 C4010 1.414 . S
C4011 C4012 1.374 . S
C4012 H3986 0.950 . S
C4012 C4008 1.385 . S
C4012 C4011 1.374 . S
C4013 C4010 1.499 . S
C4013 C4014 1.373 . S
C4013 C4015 1.389 . S
C4014 H3987 0.950 . S
C4014 C4000 1.377 1_554 S
C4014 C4013 1.373 . S
C4015 C3999 1.377 1_554 S
C4015 C4013 1.389 . S
C4015 C4016 1.524 1_455 S
C4016 C4015 1.524 1_655 S
C4016 C4017 1.397 . S
C4016 C4021 1.363 . S
C4017 H3988 0.950 1_655 S
C4017 C4016 1.397 . S
C4017 C4018 1.334 . S
C4018 H3989 0.950 . S
C4018 C4017 1.334 . S
C4018 C4019 1.287 . S
C4019 C4018 1.287 . S
C4019 C4020 1.524 . S
C4019 H4022 0.999 . S
C4020 H3990 0.950 . S
C4020 C4019 1.524 . S
C4020 C4021 1.415 . S
C4021 H3991 0.950 . S
C4021 C4016 1.363 . S
C4021 C4020 1.415 . S
H4022 C4019 0.999 . S
H4023 C4004 0.913 . S
H4024 C4042 0.951 . S
H4025 C4044 0.951 . S
H4026 C4046 0.950 . S
H4027 C4047 0.950 . S
H4028 C4049 0.950 . S
H4029 C4052 0.950 . S
H4030 C4053 0.950 . S
H4031 C4055 0.950 . S
H4032 C4056 0.950 . S
H4033 C4057 0.951 . S
H4034 C4059 0.951 . S
H4035 C4061 0.950 . S
H4036 C4062 0.950 . S
H4037 C4064 0.950 . S
H4038 C4067 0.950 . S
H4039 C4068 0.950 . S
H4040 C4070 0.950 . S
H4041 C4071 0.950 . S
C4042 H4024 0.951 . S
C4042 C4043 1.366 . S
C4042 C4044 1.388 . S
C4043 C4042 1.366 . S
C4043 C4047 1.385 . S
C4044 H4025 0.951 . S
C4044 C4042 1.388 . S
C4044 C4045 1.366 . S
C4045 C4044 1.366 . S
C4045 C4046 1.414 . S
C4045 C4048 1.499 . S
C4046 H4026 0.950 . S
C4046 C4045 1.414 . S
C4046 C4047 1.374 . S
C4047 H4027 0.950 . S
C4047 C4043 1.385 . S
C4047 C4046 1.374 . S
C4048 C4045 1.499 . S
C4048 C4049 1.373 . S
C4048 C4050 1.389 . S
C4049 H4028 0.950 . S
C4049 C4048 1.373 . S
C4049 C4065 1.377 1_554 S
C4050 C4048 1.389 . S
C4050 C4051 1.524 . S
C4050 C4064 1.377 1_554 S
C4051 C4050 1.524 . S
C4051 C4052 1.397 . S
C4051 C4056 1.363 . S
C4052 H4029 0.950 . S
C4052 C4051 1.397 . S
C4052 C4053 1.334 . S
C4053 H4030 0.950 . S
C4053 C4052 1.334 . S
C4053 C4054 1.287 . S
C4054 C4053 1.287 . S
C4054 C4055 1.524 . S
C4054 H4073 0.913 . S
C4055 H4031 0.950 . S
C4055 C4054 1.524 . S
C4055 C4056 1.415 . S
C4056 H4032 0.950 . S
C4056 C4051 1.363 . S
C4056 C4055 1.415 . S
C4057 H4033 0.951 . S
C4057 C4058 1.366 . S
C4057 C4059 1.388 . S
C4058 C4057 1.366 . S
C4058 C4062 1.385 . S
C4059 H4034 0.951 . S
C4059 C4057 1.388 . S
C4059 C4060 1.366 . S
C4060 C4059 1.366 . S
C4060 C4061 1.414 . S
C4060 C4063 1.499 . S
C4061 H4035 0.950 . S
C4061 C4060 1.414 . S
C4061 C4062 1.374 . S
C4062 H4036 0.950 . S
C4062 C4058 1.385 . S
C4062 C4061 1.374 . S
C4063 C4060 1.499 . S
C4063 C4064 1.373 . S
C4063 C4065 1.389 . S
C4064 H4037 0.950 . S
C4064 C4050 1.377 1_556 S
C4064 C4063 1.373 . S
C4065 C4049 1.377 1_556 S
C4065 C4063 1.389 . S
C4065 C4066 1.524 . S
C4066 C4065 1.524 . S
C4066 C4067 1.397 . S
C4066 C4071 1.363 . S
C4067 H4038 0.950 . S
C4067 C4066 1.397 . S
C4067 C4068 1.334 . S
C4068 H4039 0.950 . S
C4068 C4067 1.334 . S
C4068 C4069 1.287 . S
C4069 C4068 1.287 . S
C4069 C4070 1.524 . S
C4069 H4072 0.999 . S
C4070 H4040 0.950 . S
C4070 C4069 1.524 . S
C4070 C4071 1.415 . S
C4071 H4041 0.950 . S
C4071 C4066 1.363 . S
C4071 C4070 1.415 . S
H4072 C4069 0.999 . S
H4073 C4054 0.913 . S
H4074 C4092 0.951 . S
H4075 C4094 0.951 . S
H4076 C4096 0.950 . S
H4077 C4097 0.950 . S
H4078 C4099 0.950 . S
H4079 C4102 0.950 . S
H4080 C4103 0.950 . S
H4081 C4105 0.950 . S
H4082 C4106 0.950 . S
H4083 C4107 0.951 . S
H4084 C4109 0.951 . S
H4085 C4111 0.950 . S
H4086 C4112 0.950 . S
H4087 C4114 0.950 1_655 S
H4088 C4117 0.950 . S
H4089 C4118 0.950 . S
H4090 C4120 0.950 . S
H4091 C4121 0.950 . S
C4092 H4074 0.951 . S
C4092 C4093 1.366 . S
C4092 C4094 1.388 . S
C4093 C4092 1.366 . S
C4093 C4097 1.385 . S
C4094 H4075 0.951 . S
C4094 C4092 1.388 . S
C4094 C4095 1.366 . S
C4095 C4094 1.366 . S
C4095 C4096 1.414 . S
C4095 C4098 1.499 . S
C4096 H4076 0.950 . S
C4096 C4095 1.414 . S
C4096 C4097 1.374 . S
C4097 H4077 0.950 . S
C4097 C4093 1.385 . S
C4097 C4096 1.374 . S
C4098 C4095 1.499 . S
C4098 C4099 1.373 . S
C4098 C4100 1.389 . S
C4099 H4078 0.950 . S
C4099 C4098 1.373 . S
C4099 C4115 1.377 . S
C4100 C4098 1.389 . S
C4100 C4101 1.524 1_455 S
C4100 C4114 1.377 . S
C4101 C4100 1.524 1_655 S
C4101 C4102 1.397 . S
C4101 C4106 1.363 . S
C4102 H4079 0.950 . S
C4102 C4101 1.397 . S
C4102 C4103 1.334 . S
C4103 H4080 0.950 . S
C4103 C4102 1.334 . S
C4103 C4104 1.287 . S
C4104 C4103 1.287 . S
C4104 C4105 1.524 . S
C4104 H4123 0.913 . S
C4105 H4081 0.950 . S
C4105 C4104 1.524 . S
C4105 C4106 1.415 . S
C4106 H4082 0.950 . S
C4106 C4101 1.363 . S
C4106 C4105 1.415 . S
C4107 H4083 0.951 . S
C4107 C4108 1.366 . S
C4107 C4109 1.388 . S
C4108 C4107 1.366 . S
C4108 C4112 1.385 . S
C4109 H4084 0.951 . S
C4109 C4107 1.388 . S
C4109 C4110 1.366 . S
C4110 C4109 1.366 . S
C4110 C4111 1.414 . S
C4110 C4113 1.499 . S
C4111 H4085 0.950 . S
C4111 C4110 1.414 . S
C4111 C4112 1.374 . S
C4112 H4086 0.950 . S
C4112 C4108 1.385 . S
C4112 C4111 1.374 . S
C4113 C4110 1.499 . S
C4113 C4114 1.373 . S
C4113 C4115 1.389 . S
C4114 H4087 0.950 1_455 S
C4114 C4100 1.377 . S
C4114 C4113 1.373 . S
C4115 C4099 1.377 . S
C4115 C4113 1.389 . S
C4115 C4116 1.524 . S
C4116 C4115 1.524 . S
C4116 C4117 1.397 . S
C4116 C4121 1.363 . S
C4117 H4088 0.950 . S
C4117 C4116 1.397 . S
C4117 C4118 1.334 . S
C4118 H4089 0.950 . S
C4118 C4117 1.334 . S
C4118 C4119 1.287 . S
C4119 C4118 1.287 . S
C4119 C4120 1.524 . S
C4119 H4122 0.999 . S
C4120 H4090 0.950 . S
C4120 C4119 1.524 . S
C4120 C4121 1.415 . S
C4121 H4091 0.950 . S
C4121 C4116 1.363 . S
C4121 C4120 1.415 . S
H4122 C4119 0.999 . S
H4123 C4104 0.913 . S
H4124 C4142 0.951 . S
H4125 C4144 0.951 . S
H4126 C4146 0.950 . S
H4127 C4147 0.950 . S
H4128 C4149 0.950 . S
H4129 C4152 0.950 . S
H4130 C4153 0.950 . S
H4131 C4155 0.950 . S
H4132 C4156 0.950 . S
H4133 C4157 0.951 . S
H4134 C4159 0.951 . S
H4135 C4161 0.950 . S
H4136 C4162 0.950 . S
H4137 C4164 0.950 . S
H4138 C4167 0.950 . S
H4139 C4168 0.950 . S
H4140 C4170 0.950 . S
H4141 C4171 0.950 . S
C4142 H4124 0.951 . S
C4142 C4143 1.366 . S
C4142 C4144 1.388 . S
C4143 C4142 1.366 . S
C4143 C4147 1.385 . S
C4144 H4125 0.951 . S
C4144 C4142 1.388 . S
C4144 C4145 1.366 . S
C4145 C4144 1.366 . S
C4145 C4146 1.414 . S
C4145 C4148 1.499 . S
C4146 H4126 0.950 . S
C4146 C4145 1.414 . S
C4146 C4147 1.374 . S
C4147 H4127 0.950 . S
C4147 C4143 1.385 . S
C4147 C4146 1.374 . S
C4148 C4145 1.499 . S
C4148 C4149 1.373 . S
C4148 C4150 1.389 . S
C4149 H4128 0.950 . S
C4149 C4148 1.373 . S
C4149 C4165 1.377 . S
C4150 C4148 1.389 . S
C4150 C4151 1.524 . S
C4150 C4164 1.377 . S
C4151 C4150 1.524 . S
C4151 C4152 1.397 . S
C4151 C4156 1.363 . S
C4152 H4129 0.950 . S
C4152 C4151 1.397 . S
C4152 C4153 1.334 . S
C4153 H4130 0.950 . S
C4153 C4152 1.334 . S
C4153 C4154 1.287 . S
C4154 C4153 1.287 . S
C4154 C4155 1.524 . S
C4154 H4173 0.913 . S
C4155 H4131 0.950 . S
C4155 C4154 1.524 . S
C4155 C4156 1.415 . S
C4156 H4132 0.950 . S
C4156 C4151 1.363 . S
C4156 C4155 1.415 . S
C4157 H4133 0.951 . S
C4157 C4158 1.366 . S
C4157 C4159 1.388 . S
C4158 C4157 1.366 . S
C4158 C4162 1.385 . S
C4159 H4134 0.951 . S
C4159 C4157 1.388 . S
C4159 C4160 1.366 . S
C4160 C4159 1.366 . S
C4160 C4161 1.414 . S
C4160 C4163 1.499 . S
C4161 H4135 0.950 . S
C4161 C4160 1.414 . S
C4161 C4162 1.374 . S
C4162 H4136 0.950 . S
C4162 C4158 1.385 . S
C4162 C4161 1.374 . S
C4163 C4160 1.499 . S
C4163 C4164 1.373 . S
C4163 C4165 1.389 . S
C4164 H4137 0.950 . S
C4164 C4150 1.377 . S
C4164 C4163 1.373 . S
C4165 C4149 1.377 . S
C4165 C4163 1.389 . S
C4165 C4166 1.524 . S
C4166 C4165 1.524 . S
C4166 C4167 1.397 . S
C4166 C4171 1.363 . S
C4167 H4138 0.950 . S
C4167 C4166 1.397 . S
C4167 C4168 1.334 . S
C4168 H4139 0.950 . S
C4168 C4167 1.334 . S
C4168 C4169 1.287 . S
C4169 C4168 1.287 . S
C4169 C4170 1.524 . S
C4169 H4172 0.999 . S
C4170 H4140 0.950 . S
C4170 C4169 1.524 . S
C4170 C4171 1.415 . S
C4171 H4141 0.950 . S
C4171 C4166 1.363 . S
C4171 C4170 1.415 . S
H4172 C4169 0.999 . S
H4173 C4154 0.913 . S
H4174 C4192 0.951 . S
H4175 C4194 0.951 . S
H4176 C4196 0.950 1_565 S
H4177 C4197 0.950 1_565 S
H4178 C4199 0.950 1_565 S
H4179 C4202 0.950 . S
H4180 C4203 0.950 . S
H4181 C4205 0.950 . S
H4182 C4206 0.950 . S
H4183 C4207 0.960 . S
H4184 C4209 0.951 1_565 S
H4185 C4211 0.950 . S
H4186 C4212 0.950 . S
H4187 C4214 0.950 . S
H4188 C4217 0.950 1_545 S
H4189 C4218 0.950 . S
H4190 C4220 0.950 . S
H4191 C4221 0.950 . S
C4192 H4174 0.951 . S
C4192 C4193 1.366 . S
C4192 C4194 1.388 . S
C4193 C4192 1.366 . S
C4193 C4197 1.385 . S
C4194 H4175 0.951 . S
C4194 C4192 1.388 . S
C4194 C4195 1.366 . S
C4195 C4194 1.366 . S
C4195 C4196 1.414 . S
C4195 C4198 1.499 . S
C4196 H4176 0.950 1_545 S
C4196 C4195 1.414 . S
C4196 C4197 1.374 . S
C4197 H4177 0.950 1_545 S
C4197 C4193 1.385 . S
C4197 C4196 1.374 . S
C4198 C4195 1.499 . S
C4198 C4199 1.373 . S
C4198 C4200 1.389 . S
C4199 H4178 0.950 1_545 S
C4199 C4198 1.373 . S
C4199 C4215 1.377 . S
C4200 C4198 1.389 . S
C4200 C4201 1.524 . S
C4200 C4214 1.377 . S
C4201 C4200 1.524 . S
C4201 C4202 1.397 . S
C4201 C4206 1.363 . S
C4202 H4179 0.950 . S
C4202 C4201 1.397 . S
C4202 C4203 1.334 . S
C4203 H4180 0.950 . S
C4203 C4202 1.334 . S
C4203 C4204 1.287 . S
C4204 C4203 1.287 . S
C4204 C4205 1.524 . S
C4204 H4223 0.913 . S
C4205 H4181 0.950 . S
C4205 C4204 1.524 . S
C4205 C4206 1.415 . S
C4206 H4182 0.950 . S
C4206 C4201 1.363 . S
C4206 C4205 1.415 . S
C4207 H4183 0.960 . S
C4207 C4208 1.366 . S
C4207 C4209 1.388 . S
C4208 C4207 1.366 . S
C4208 C4212 1.385 . S
C4209 H4184 0.951 1_545 S
C4209 C4207 1.388 . S
C4209 C4210 1.366 . S
C4210 C4209 1.366 . S
C4210 C4211 1.414 . S
C4210 C4213 1.499 . S
C4211 H4185 0.950 . S
C4211 C4210 1.414 . S
C4211 C4212 1.374 . S
C4212 H4186 0.950 . S
C4212 C4208 1.385 . S
C4212 C4211 1.374 . S
C4213 C4210 1.499 . S
C4213 C4214 1.373 . S
C4213 C4215 1.389 . S
C4214 H4187 0.950 . S
C4214 C4200 1.377 . S
C4214 C4213 1.373 . S
C4215 C4199 1.377 . S
C4215 C4213 1.389 . S
C4215 C4216 1.524 1_545 S
C4216 C4215 1.524 1_565 S
C4216 C4217 1.397 . S
C4216 C4221 1.363 . S
C4217 H4188 0.950 1_565 S
C4217 C4216 1.397 . S
C4217 C4218 1.334 . S
C4218 H4189 0.950 . S
C4218 C4217 1.334 . S
C4218 C4219 1.287 . S
C4219 C4218 1.287 . S
C4219 C4220 1.524 . S
C4219 H4222 0.999 . S
C4220 H4190 0.950 . S
C4220 C4219 1.524 . S
C4220 C4221 1.415 . S
C4221 H4191 0.950 . S
C4221 C4216 1.363 . S
C4221 C4220 1.415 . S
H4222 C4219 0.999 . S
H4223 C4204 0.913 . S
H4224 C4242 0.951 . S
H4225 C4244 0.951 . S
H4226 C4246 0.950 . S
H4227 C4247 0.950 . S
H4228 C4249 0.950 . S
H4229 C4252 0.950 . S
H4230 C4253 0.950 . S
H4231 C4255 0.950 . S
H4232 C4256 0.950 . S
H4233 C4257 0.951 . S
H4234 C4259 0.951 . S
H4235 C4261 0.950 . S
H4236 C4262 0.950 . S
H4237 C4264 0.950 . S
H4238 C4267 0.950 . S
H4239 C4268 0.950 . S
H4240 C4270 0.950 . S
H4241 C4271 0.950 . S
C4242 H4224 0.951 . S
C4242 C4243 1.366 . S
C4242 C4244 1.388 . S
C4243 C4242 1.366 . S
C4243 C4247 1.385 . S
C4244 H4225 0.951 . S
C4244 C4242 1.388 . S
C4244 C4245 1.366 . S
C4245 C4244 1.366 . S
C4245 C4246 1.414 . S
C4245 C4248 1.499 . S
C4246 H4226 0.950 . S
C4246 C4245 1.414 . S
C4246 C4247 1.374 . S
C4247 H4227 0.950 . S
C4247 C4243 1.385 . S
C4247 C4246 1.374 . S
C4248 C4245 1.499 . S
C4248 C4249 1.373 . S
C4248 C4250 1.389 . S
C4249 H4228 0.950 . S
C4249 C4248 1.373 . S
C4249 C4265 1.377 . S
C4250 C4248 1.389 . S
C4250 C4251 1.524 . S
C4250 C4264 1.377 . S
C4251 C4250 1.524 . S
C4251 C4252 1.397 . S
C4251 C4256 1.363 . S
C4252 H4229 0.950 . S
C4252 C4251 1.397 . S
C4252 C4253 1.334 . S
C4253 H4230 0.950 . S
C4253 C4252 1.334 . S
C4253 C4254 1.287 . S
C4254 C4253 1.287 . S
C4254 C4255 1.524 . S
C4254 H4273 0.913 . S
C4255 H4231 0.950 . S
C4255 C4254 1.524 . S
C4255 C4256 1.415 . S
C4256 H4232 0.950 . S
C4256 C4251 1.363 . S
C4256 C4255 1.415 . S
C4257 H4233 0.951 . S
C4257 C4258 1.366 . S
C4257 C4259 1.388 . S
C4258 C4257 1.366 . S
C4258 C4262 1.385 . S
C4259 H4234 0.951 . S
C4259 C4257 1.388 . S
C4259 C4260 1.366 . S
C4260 C4259 1.366 . S
C4260 C4261 1.414 . S
C4260 C4263 1.499 . S
C4261 H4235 0.950 . S
C4261 C4260 1.414 . S
C4261 C4262 1.374 . S
C4262 H4236 0.950 . S
C4262 C4258 1.385 . S
C4262 C4261 1.374 . S
C4263 C4260 1.499 . S
C4263 C4264 1.373 . S
C4263 C4265 1.389 . S
C4264 H4237 0.950 . S
C4264 C4250 1.377 . S
C4264 C4263 1.373 . S
C4265 C4249 1.377 . S
C4265 C4263 1.389 . S
C4265 C4266 1.524 . S
C4266 C4265 1.524 . S
C4266 C4267 1.397 . S
C4266 C4271 1.363 . S
C4267 H4238 0.950 . S
C4267 C4266 1.397 . S
C4267 C4268 1.334 . S
C4268 H4239 0.950 . S
C4268 C4267 1.334 . S
C4268 C4269 1.287 . S
C4269 C4268 1.287 . S
C4269 C4270 1.524 . S
C4269 H4272 0.999 . S
C4270 H4240 0.950 . S
C4270 C4269 1.524 . S
C4270 C4271 1.415 . S
C4271 H4241 0.950 . S
C4271 C4266 1.363 . S
C4271 C4270 1.415 . S
H4272 C4269 0.999 . S
H4273 C4254 0.913 . S
H4274 C4292 0.951 . S
H4275 C4294 0.951 . S
H4276 C4296 0.950 . S
H4277 C4297 0.950 . S
H4278 C4299 0.950 . S
H4279 C4302 0.950 . S
H4280 C4303 0.950 . S
H4281 C4305 0.950 . S
H4282 C4306 0.950 . S
H4283 C4307 0.951 . S
H4284 C4309 0.951 . S
H4285 C4311 0.950 . S
H4286 C4312 0.950 . S
H4287 C4314 0.950 . S
H4288 C4317 0.950 . S
H4289 C4318 0.950 . S
H4290 C4320 0.950 1_545 S
H4291 C4321 0.950 . S
C4292 H4274 0.951 . S
C4292 C4293 1.366 . S
C4292 C4294 1.388 . S
C4293 C4292 1.366 . S
C4293 C4297 1.385 . S
C4294 H4275 0.951 . S
C4294 C4292 1.388 . S
C4294 C4295 1.366 . S
C4295 C4294 1.366 . S
C4295 C4296 1.414 . S
C4295 C4298 1.499 . S
C4296 H4276 0.950 . S
C4296 C4295 1.414 . S
C4296 C4297 1.374 . S
C4297 H4277 0.950 . S
C4297 C4293 1.385 . S
C4297 C4296 1.374 . S
C4298 C4295 1.499 . S
C4298 C4299 1.373 . S
C4298 C4300 1.389 . S
C4299 H4278 0.950 . S
C4299 C4298 1.373 . S
C4299 C4315 1.377 . S
C4300 C4298 1.389 . S
C4300 C4301 1.524 . S
C4300 C4314 1.377 . S
C4301 C4300 1.524 . S
C4301 C4302 1.397 . S
C4301 C4306 1.363 . S
C4302 H4279 0.950 . S
C4302 C4301 1.397 . S
C4302 C4303 1.334 . S
C4303 H4280 0.950 . S
C4303 C4302 1.334 . S
C4303 C4304 1.287 . S
C4304 C4303 1.287 . S
C4304 C4305 1.524 . S
C4304 H4323 0.913 . S
C4305 H4281 0.950 . S
C4305 C4304 1.524 . S
C4305 C4306 1.415 . S
C4306 H4282 0.950 . S
C4306 C4301 1.363 . S
C4306 C4305 1.415 . S
C4307 H4283 0.951 . S
C4307 C4308 1.366 . S
C4307 C4309 1.388 . S
C4308 C4307 1.366 . S
C4308 C4312 1.385 . S
C4309 H4284 0.951 . S
C4309 C4307 1.388 . S
C4309 C4310 1.366 . S
C4310 C4309 1.366 . S
C4310 C4311 1.414 . S
C4310 C4313 1.499 . S
C4311 H4285 0.950 . S
C4311 C4310 1.414 . S
C4311 C4312 1.374 . S
C4312 H4286 0.950 . S
C4312 C4308 1.385 . S
C4312 C4311 1.374 . S
C4313 C4310 1.499 . S
C4313 C4314 1.373 . S
C4313 C4315 1.389 . S
C4314 H4287 0.950 . S
C4314 C4300 1.377 . S
C4314 C4313 1.373 . S
C4315 C4299 1.377 . S
C4315 C4313 1.389 . S
C4315 C4316 1.524 . S
C4316 C4315 1.524 . S
C4316 C4317 1.397 . S
C4316 C4321 1.363 . S
C4317 H4288 0.950 . S
C4317 C4316 1.397 . S
C4317 C4318 1.334 . S
C4318 H4289 0.950 . S
C4318 C4317 1.334 . S
C4318 C4319 1.287 . S
C4319 C4318 1.287 . S
C4319 C4320 1.524 . S
C4319 H4322 0.999 . S
C4320 H4290 0.950 1_565 S
C4320 C4319 1.524 . S
C4320 C4321 1.415 . S
C4321 H4291 0.950 . S
C4321 C4316 1.363 . S
C4321 C4320 1.415 . S
H4322 C4319 0.999 . S
H4323 C4304 0.913 . S
H4324 C4342 0.951 . S
H4325 C4344 0.951 . S
H4326 C4346 0.950 . S
H4327 C4347 0.950 . S
H4328 C4349 0.950 . S
H4329 C4352 0.950 . S
H4330 C4353 0.950 . S
H4331 C4355 0.950 . S
H4332 C4356 0.950 . S
H4333 C4357 0.951 . S
H4334 C4359 0.951 . S
H4335 C4361 0.950 . S
H4336 C4362 0.950 . S
H4337 C4364 0.950 . S
H4338 C4367 0.950 . S
H4339 C4368 0.950 . S
H4340 C4370 0.950 . S
H4341 C4371 0.950 . S
C4342 H4324 0.951 . S
C4342 C4343 1.366 . S
C4342 C4344 1.388 . S
C4343 C4342 1.366 . S
C4343 C4347 1.385 . S
C4344 H4325 0.951 . S
C4344 C4342 1.388 . S
C4344 C4345 1.366 . S
C4345 C4344 1.366 . S
C4345 C4346 1.414 . S
C4345 C4348 1.499 . S
C4346 H4326 0.950 . S
C4346 C4345 1.414 . S
C4346 C4347 1.374 . S
C4347 H4327 0.950 . S
C4347 C4343 1.385 . S
C4347 C4346 1.374 . S
C4348 C4345 1.499 . S
C4348 C4349 1.373 . S
C4348 C4350 1.389 . S
C4349 H4328 0.950 . S
C4349 C4348 1.373 . S
C4349 C4365 1.377 . S
C4350 C4348 1.389 . S
C4350 C4351 1.524 . S
C4350 C4364 1.377 . S
C4351 C4350 1.524 . S
C4351 C4352 1.397 . S
C4351 C4356 1.363 . S
C4352 H4329 0.950 . S
C4352 C4351 1.397 . S
C4352 C4353 1.334 . S
C4353 H4330 0.950 . S
C4353 C4352 1.334 . S
C4353 C4354 1.287 . S
C4354 C4353 1.287 . S
C4354 C4355 1.524 . S
C4354 H4373 0.913 . S
C4355 H4331 0.950 . S
C4355 C4354 1.524 . S
C4355 C4356 1.415 . S
C4356 H4332 0.950 . S
C4356 C4351 1.363 . S
C4356 C4355 1.415 . S
C4357 H4333 0.951 . S
C4357 C4358 1.366 . S
C4357 C4359 1.388 . S
C4358 C4357 1.366 . S
C4358 C4362 1.385 . S
C4359 H4334 0.951 . S
C4359 C4357 1.388 . S
C4359 C4360 1.366 . S
C4360 C4359 1.366 . S
C4360 C4361 1.414 . S
C4360 C4363 1.499 . S
C4361 H4335 0.950 . S
C4361 C4360 1.414 . S
C4361 C4362 1.374 . S
C4362 H4336 0.950 . S
C4362 C4358 1.385 . S
C4362 C4361 1.374 . S
C4363 C4360 1.499 . S
C4363 C4364 1.373 . S
C4363 C4365 1.389 . S
C4364 H4337 0.950 . S
C4364 C4350 1.377 . S
C4364 C4363 1.373 . S
C4365 C4349 1.377 . S
C4365 C4363 1.389 . S
C4365 C4366 1.524 . S
C4366 C4365 1.524 . S
C4366 C4367 1.397 . S
C4366 C4371 1.363 . S
C4367 H4338 0.950 . S
C4367 C4366 1.397 . S
C4367 C4368 1.334 . S
C4368 H4339 0.950 . S
C4368 C4367 1.334 . S
C4368 C4369 1.287 . S
C4369 C4368 1.287 . S
C4369 C4370 1.524 . S
C4369 H4372 0.999 . S
C4370 H4340 0.950 . S
C4370 C4369 1.524 . S
C4370 C4371 1.415 . S
C4371 H4341 0.950 . S
C4371 C4366 1.363 . S
C4371 C4370 1.415 . S
H4372 C4369 0.999 . S
H4373 C4354 0.913 . S
H4374 C4392 0.951 . S
H4375 C4394 0.951 . S
H4376 C4396 0.950 . S
H4377 C4397 0.950 . S
H4378 C4399 0.950 . S
H4379 C4402 0.950 . S
H4380 C4403 0.950 . S
H4381 C4405 0.950 . S
H4382 C4406 0.950 . S
H4383 C4407 0.951 . S
H4384 C4409 0.951 . S
H4385 C4411 0.950 . S
H4386 C4412 0.950 . S
H4387 C4414 0.950 . S
H4388 C4417 0.950 . S
H4389 C4418 0.950 . S
H4390 C4420 0.950 . S
H4391 C4421 0.950 . S
C4392 H4374 0.951 . S
C4392 C4393 1.366 . S
C4392 C4394 1.388 . S
C4393 C4392 1.366 . S
C4393 C4397 1.385 . S
C4394 H4375 0.951 . S
C4394 C4392 1.388 . S
C4394 C4395 1.366 . S
C4395 C4394 1.366 . S
C4395 C4396 1.414 . S
C4395 C4398 1.499 . S
C4396 H4376 0.950 . S
C4396 C4395 1.414 . S
C4396 C4397 1.374 . S
C4397 H4377 0.950 . S
C4397 C4393 1.385 . S
C4397 C4396 1.374 . S
C4398 C4395 1.499 . S
C4398 C4399 1.373 . S
C4398 C4400 1.389 . S
C4399 H4378 0.950 . S
C4399 C4398 1.373 . S
C4399 C4415 1.377 . S
C4400 C4398 1.389 . S
C4400 C4401 1.524 . S
C4400 C4414 1.377 . S
C4401 C4400 1.524 . S
C4401 C4402 1.397 . S
C4401 C4406 1.363 . S
C4402 H4379 0.950 . S
C4402 C4401 1.397 . S
C4402 C4403 1.334 . S
C4403 H4380 0.950 . S
C4403 C4402 1.334 . S
C4403 C4404 1.287 . S
C4404 C4403 1.287 . S
C4404 C4405 1.524 . S
C4404 H4423 0.913 . S
C4405 H4381 0.950 . S
C4405 C4404 1.524 . S
C4405 C4406 1.415 . S
C4406 H4382 0.950 . S
C4406 C4401 1.363 . S
C4406 C4405 1.415 . S
C4407 H4383 0.951 . S
C4407 C4408 1.366 . S
C4407 C4409 1.388 . S
C4408 C4407 1.366 . S
C4408 C4412 1.385 . S
C4409 H4384 0.951 . S
C4409 C4407 1.388 . S
C4409 C4410 1.366 . S
C4410 C4409 1.366 . S
C4410 C4411 1.414 . S
C4410 C4413 1.499 . S
C4411 H4385 0.950 . S
C4411 C4410 1.414 . S
C4411 C4412 1.374 . S
C4412 H4386 0.950 . S
C4412 C4408 1.385 . S
C4412 C4411 1.374 . S
C4413 C4410 1.499 . S
C4413 C4414 1.373 . S
C4413 C4415 1.389 . S
C4414 H4387 0.950 . S
C4414 C4400 1.377 . S
C4414 C4413 1.373 . S
C4415 C4399 1.377 . S
C4415 C4413 1.389 . S
C4415 C4416 1.524 . S
C4416 C4415 1.524 . S
C4416 C4417 1.397 . S
C4416 C4421 1.363 . S
C4417 H4388 0.950 . S
C4417 C4416 1.397 . S
C4417 C4418 1.334 . S
C4418 H4389 0.950 . S
C4418 C4417 1.334 . S
C4418 C4419 1.287 . S
C4419 C4418 1.287 . S
C4419 C4420 1.524 . S
C4419 H4422 0.999 . S
C4420 H4390 0.950 . S
C4420 C4419 1.524 . S
C4420 C4421 1.415 . S
C4421 H4391 0.950 . S
C4421 C4416 1.363 . S
C4421 C4420 1.415 . S
H4422 C4419 0.999 . S
H4423 C4404 0.913 . S
H4424 C4442 0.951 . S
H4425 C4444 0.951 . S
H4426 C4446 0.950 . S
H4427 C4447 0.950 . S
H4428 C4449 0.950 . S
H4429 C4452 0.950 . S
H4430 C4453 0.950 . S
H4431 C4455 0.950 . S
H4432 C4456 0.950 . S
H4433 C4457 0.951 . S
H4434 C4459 0.951 . S
H4435 C4461 0.950 . S
H4436 C4462 0.950 . S
H4437 C4464 0.950 . S
H4438 C4467 0.950 . S
H4439 C4468 0.950 . S
H4440 C4470 0.950 . S
H4441 C4471 0.950 . S
C4442 H4424 0.951 . S
C4442 C4443 1.366 . S
C4442 C4444 1.388 . S
C4443 C4442 1.366 . S
C4443 C4447 1.385 . S
C4444 H4425 0.951 . S
C4444 C4442 1.388 . S
C4444 C4445 1.366 . S
C4445 C4444 1.366 . S
C4445 C4446 1.414 . S
C4445 C4448 1.499 . S
C4446 H4426 0.950 . S
C4446 C4445 1.414 . S
C4446 C4447 1.374 . S
C4447 H4427 0.950 . S
C4447 C4443 1.385 . S
C4447 C4446 1.374 . S
C4448 C4445 1.499 . S
C4448 C4449 1.373 . S
C4448 C4450 1.389 . S
C4449 H4428 0.950 . S
C4449 C4448 1.373 . S
C4449 C4465 1.377 . S
C4450 C4448 1.389 . S
C4450 C4451 1.524 . S
C4450 C4464 1.377 . S
C4451 C4450 1.524 . S
C4451 C4452 1.397 . S
C4451 C4456 1.363 . S
C4452 H4429 0.950 . S
C4452 C4451 1.397 . S
C4452 C4453 1.334 . S
C4453 H4430 0.950 . S
C4453 C4452 1.334 . S
C4453 C4454 1.287 . S
C4454 C4453 1.287 . S
C4454 C4455 1.524 . S
C4454 H4473 0.913 . S
C4455 H4431 0.950 . S
C4455 C4454 1.524 . S
C4455 C4456 1.415 . S
C4456 H4432 0.950 . S
C4456 C4451 1.363 . S
C4456 C4455 1.415 . S
C4457 H4433 0.951 . S
C4457 C4458 1.366 . S
C4457 C4459 1.388 . S
C4458 C4457 1.366 . S
C4458 C4462 1.385 . S
C4459 H4434 0.951 . S
C4459 C4457 1.388 . S
C4459 C4460 1.366 . S
C4460 C4459 1.366 . S
C4460 C4461 1.414 . S
C4460 C4463 1.499 . S
C4461 H4435 0.950 . S
C4461 C4460 1.414 . S
C4461 C4462 1.374 . S
C4462 H4436 0.950 . S
C4462 C4458 1.385 . S
C4462 C4461 1.374 . S
C4463 C4460 1.499 . S
C4463 C4464 1.373 . S
C4463 C4465 1.389 . S
C4464 H4437 0.950 . S
C4464 C4450 1.377 . S
C4464 C4463 1.373 . S
C4465 C4449 1.377 . S
C4465 C4463 1.389 . S
C4465 C4466 1.524 . S
C4466 C4465 1.524 . S
C4466 C4467 1.397 . S
C4466 C4471 1.363 . S
C4467 H4438 0.950 . S
C4467 C4466 1.397 . S
C4467 C4468 1.334 . S
C4468 H4439 0.950 . S
C4468 C4467 1.334 . S
C4468 C4469 1.287 . S
C4469 C4468 1.287 . S
C4469 C4470 1.524 . S
C4469 H4472 0.999 . S
C4470 H4440 0.950 . S
C4470 C4469 1.524 . S
C4470 C4471 1.415 . S
C4471 H4441 0.950 . S
C4471 C4466 1.363 . S
C4471 C4470 1.415 . S
H4472 C4469 0.999 . S
H4473 C4454 0.913 . S
H4474 C4492 0.951 . S
H4475 C4494 0.951 . S
H4476 C4496 0.950 . S
H4477 C4497 0.950 . S
H4478 C4499 0.950 . S
H4479 C4502 0.950 . S
H4480 C4503 0.950 . S
H4481 C4505 0.950 . S
H4482 C4506 0.950 . S
H4483 C4507 0.951 . S
H4484 C4509 0.951 . S
H4485 C4511 0.950 . S
H4486 C4512 0.950 . S
H4487 C4514 0.950 . S
H4488 C4517 0.950 . S
H4489 C4518 0.950 . S
H4490 C4520 0.950 . S
H4491 C4521 0.950 . S
C4492 H4474 0.951 . S
C4492 C4493 1.366 . S
C4492 C4494 1.388 . S
C4493 C4492 1.366 . S
C4493 C4497 1.385 . S
C4494 H4475 0.951 . S
C4494 C4492 1.388 . S
C4494 C4495 1.366 . S
C4495 C4494 1.366 . S
C4495 C4496 1.414 . S
C4495 C4498 1.499 . S
C4496 H4476 0.950 . S
C4496 C4495 1.414 . S
C4496 C4497 1.374 . S
C4497 H4477 0.950 . S
C4497 C4493 1.385 . S
C4497 C4496 1.374 . S
C4498 C4495 1.499 . S
C4498 C4499 1.373 . S
C4498 C4500 1.389 . S
C4499 H4478 0.950 . S
C4499 C4498 1.373 . S
C4499 C4515 1.377 . S
C4500 C4498 1.389 . S
C4500 C4501 1.524 . S
C4500 C4514 1.377 . S
C4501 C4500 1.524 . S
C4501 C4502 1.397 . S
C4501 C4506 1.363 . S
C4502 H4479 0.950 . S
C4502 C4501 1.397 . S
C4502 C4503 1.334 . S
C4503 H4480 0.950 . S
C4503 C4502 1.334 . S
C4503 C4504 1.287 . S
C4504 C4503 1.287 . S
C4504 C4505 1.524 . S
C4504 H4523 0.913 . S
C4505 H4481 0.950 . S
C4505 C4504 1.524 . S
C4505 C4506 1.415 . S
C4506 H4482 0.950 . S
C4506 C4501 1.363 . S
C4506 C4505 1.415 . S
C4507 H4483 0.951 . S
C4507 C4508 1.366 . S
C4507 C4509 1.388 . S
C4508 C4507 1.366 . S
C4508 C4512 1.385 . S
C4509 H4484 0.951 . S
C4509 C4507 1.388 . S
C4509 C4510 1.366 . S
C4510 C4509 1.366 . S
C4510 C4511 1.414 . S
C4510 C4513 1.499 . S
C4511 H4485 0.950 . S
C4511 C4510 1.414 . S
C4511 C4512 1.374 . S
C4512 H4486 0.950 . S
C4512 C4508 1.385 . S
C4512 C4511 1.374 . S
C4513 C4510 1.499 . S
C4513 C4514 1.373 . S
C4513 C4515 1.389 . S
C4514 H4487 0.950 . S
C4514 C4500 1.377 . S
C4514 C4513 1.373 . S
C4515 C4499 1.377 . S
C4515 C4513 1.389 . S
C4515 C4516 1.524 . S
C4516 C4515 1.524 . S
C4516 C4517 1.397 . S
C4516 C4521 1.363 . S
C4517 H4488 0.950 . S
C4517 C4516 1.397 . S
C4517 C4518 1.334 . S
C4518 H4489 0.950 . S
C4518 C4517 1.334 . S
C4518 C4519 1.287 . S
C4519 C4518 1.287 . S
C4519 C4520 1.524 . S
C4519 H4522 0.999 . S
C4520 H4490 0.950 . S
C4520 C4519 1.524 . S
C4520 C4521 1.415 . S
C4521 H4491 0.950 . S
C4521 C4516 1.363 . S
C4521 C4520 1.415 . S
H4522 C4519 0.999 . S
H4523 C4504 0.913 . S
H4524 C4542 0.951 . S
H4525 C4544 0.951 . S
H4526 C4546 0.950 . S
H4527 C4547 0.950 . S
H4528 C4549 0.950 . S
H4529 C4552 0.950 . S
H4530 C4553 0.950 . S
H4531 C4555 0.950 . S
H4532 C4556 0.950 . S
H4533 C4557 0.951 . S
H4534 C4559 0.951 . S
H4535 C4561 0.950 . S
H4536 C4562 0.950 . S
H4537 C4564 0.950 . S
H4538 C4567 0.950 . S
H4539 C4568 0.950 . S
H4540 C4570 0.950 . S
H4541 C4571 0.950 . S
C4542 H4524 0.951 . S
C4542 C4543 1.366 . S
C4542 C4544 1.388 . S
C4543 C4542 1.366 . S
C4543 C4547 1.385 . S
C4544 H4525 0.951 . S
C4544 C4542 1.388 . S
C4544 C4545 1.366 . S
C4545 C4544 1.366 . S
C4545 C4546 1.414 . S
C4545 C4548 1.499 . S
C4546 H4526 0.950 . S
C4546 C4545 1.414 . S
C4546 C4547 1.374 . S
C4547 H4527 0.950 . S
C4547 C4543 1.385 . S
C4547 C4546 1.374 . S
C4548 C4545 1.499 . S
C4548 C4549 1.373 . S
C4548 C4550 1.389 . S
C4549 H4528 0.950 . S
C4549 C4548 1.373 . S
C4549 C4565 1.377 . S
C4550 C4548 1.389 . S
C4550 C4551 1.524 . S
C4550 C4564 1.377 . S
C4551 C4550 1.524 . S
C4551 C4552 1.397 . S
C4551 C4556 1.363 . S
C4552 H4529 0.950 . S
C4552 C4551 1.397 . S
C4552 C4553 1.334 . S
C4553 H4530 0.950 . S
C4553 C4552 1.334 . S
C4553 C4554 1.287 . S
C4554 C4553 1.287 . S
C4554 C4555 1.524 . S
C4554 H4573 0.913 . S
C4555 H4531 0.950 . S
C4555 C4554 1.524 . S
C4555 C4556 1.415 . S
C4556 H4532 0.950 . S
C4556 C4551 1.363 . S
C4556 C4555 1.415 . S
C4557 H4533 0.951 . S
C4557 C4558 1.366 . S
C4557 C4559 1.388 . S
C4558 C4557 1.366 . S
C4558 C4562 1.385 . S
C4559 H4534 0.951 . S
C4559 C4557 1.388 . S
C4559 C4560 1.366 . S
C4560 C4559 1.366 . S
C4560 C4561 1.414 . S
C4560 C4563 1.499 . S
C4561 H4535 0.950 . S
C4561 C4560 1.414 . S
C4561 C4562 1.374 . S
C4562 H4536 0.950 . S
C4562 C4558 1.385 . S
C4562 C4561 1.374 . S
C4563 C4560 1.499 . S
C4563 C4564 1.373 . S
C4563 C4565 1.389 . S
C4564 H4537 0.950 . S
C4564 C4550 1.377 . S
C4564 C4563 1.373 . S
C4565 C4549 1.377 . S
C4565 C4563 1.389 . S
C4565 C4566 1.524 . S
C4566 C4565 1.524 . S
C4566 C4567 1.397 . S
C4566 C4571 1.363 . S
C4567 H4538 0.950 . S
C4567 C4566 1.397 . S
C4567 C4568 1.334 . S
C4568 H4539 0.950 . S
C4568 C4567 1.334 . S
C4568 C4569 1.287 . S
C4569 C4568 1.287 . S
C4569 C4570 1.524 . S
C4569 H4572 0.999 . S
C4570 H4540 0.950 . S
C4570 C4569 1.524 . S
C4570 C4571 1.415 . S
C4571 H4541 0.950 . S
C4571 C4566 1.363 . S
C4571 C4570 1.415 . S
H4572 C4569 0.999 . S
H4573 C4554 0.913 . S
H4574 C4592 0.951 . S
H4575 C4594 0.951 . S
H4576 C4596 0.950 . S
H4577 C4597 0.950 . S
H4578 C4599 0.950 . S
H4579 C4602 0.950 . S
H4580 C4603 0.950 . S
H4581 C4605 0.950 . S
H4582 C4606 0.950 . S
H4583 C4607 0.951 . S
H4584 C4609 0.951 . S
H4585 C4611 0.950 . S
H4586 C4612 0.950 . S
H4587 C4614 0.950 . S
H4588 C4617 0.950 . S
H4589 C4618 0.950 . S
H4590 C4620 0.950 . S
H4591 C4621 0.950 . S
C4592 H4574 0.951 . S
C4592 C4593 1.366 . S
C4592 C4594 1.388 . S
C4593 C4592 1.366 . S
C4593 C4597 1.385 . S
C4594 H4575 0.951 . S
C4594 C4592 1.388 . S
C4594 C4595 1.366 . S
C4595 C4594 1.366 . S
C4595 C4596 1.414 . S
C4595 C4598 1.499 . S
C4596 H4576 0.950 . S
C4596 C4595 1.414 . S
C4596 C4597 1.374 . S
C4597 H4577 0.950 . S
C4597 C4593 1.385 . S
C4597 C4596 1.374 . S
C4598 C4595 1.499 . S
C4598 C4599 1.373 . S
C4598 C4600 1.389 . S
C4599 H4578 0.950 . S
C4599 C4598 1.373 . S
C4599 C4615 1.377 . S
C4600 C4598 1.389 . S
C4600 C4601 1.524 . S
C4600 C4614 1.377 . S
C4601 C4600 1.524 . S
C4601 C4602 1.397 . S
C4601 C4606 1.363 . S
C4602 H4579 0.950 . S
C4602 C4601 1.397 . S
C4602 C4603 1.334 . S
C4603 H4580 0.950 . S
C4603 C4602 1.334 . S
C4603 C4604 1.287 . S
C4604 C4603 1.287 . S
C4604 C4605 1.524 . S
C4604 H4623 0.913 . S
C4605 H4581 0.950 . S
C4605 C4604 1.524 . S
C4605 C4606 1.415 . S
C4606 H4582 0.950 . S
C4606 C4601 1.363 . S
C4606 C4605 1.415 . S
C4607 H4583 0.951 . S
C4607 C4608 1.366 . S
C4607 C4609 1.388 . S
C4608 C4607 1.366 . S
C4608 C4612 1.385 . S
C4609 H4584 0.951 . S
C4609 C4607 1.388 . S
C4609 C4610 1.366 . S
C4610 C4609 1.366 . S
C4610 C4611 1.414 . S
C4610 C4613 1.499 . S
C4611 H4585 0.950 . S
C4611 C4610 1.414 . S
C4611 C4612 1.374 . S
C4612 H4586 0.950 . S
C4612 C4608 1.385 . S
C4612 C4611 1.374 . S
C4613 C4610 1.499 . S
C4613 C4614 1.373 . S
C4613 C4615 1.389 . S
C4614 H4587 0.950 . S
C4614 C4600 1.377 . S
C4614 C4613 1.373 . S
C4615 C4599 1.377 . S
C4615 C4613 1.389 . S
C4615 C4616 1.524 . S
C4616 C4615 1.524 . S
C4616 C4617 1.397 . S
C4616 C4621 1.363 . S
C4617 H4588 0.950 . S
C4617 C4616 1.397 . S
C4617 C4618 1.334 . S
C4618 H4589 0.950 . S
C4618 C4617 1.334 . S
C4618 C4619 1.287 . S
C4619 C4618 1.287 . S
C4619 C4620 1.524 . S
C4619 H4622 0.999 . S
C4620 H4590 0.950 . S
C4620 C4619 1.524 . S
C4620 C4621 1.415 . S
C4621 H4591 0.950 . S
C4621 C4616 1.363 . S
C4621 C4620 1.415 . S
H4622 C4619 0.999 . S
H4623 C4604 0.913 . S
H4624 C4642 0.951 . S
H4625 C4644 0.951 . S
H4626 C4646 0.950 . S
H4627 C4647 0.950 . S
H4628 C4649 0.950 . S
H4629 C4652 0.950 . S
H4630 C4653 0.950 . S
H4631 C4655 0.950 . S
H4632 C4656 0.950 . S
H4633 C4657 0.951 . S
H4634 C4659 0.951 . S
H4635 C4661 0.950 . S
H4636 C4662 0.950 . S
H4637 C4664 0.950 . S
H4638 C4667 0.950 . S
H4639 C4668 0.950 . S
H4640 C4670 0.950 . S
H4641 C4671 0.950 . S
C4642 H4624 0.951 . S
C4642 C4643 1.366 . S
C4642 C4644 1.388 . S
C4643 C4642 1.366 . S
C4643 C4647 1.385 . S
C4644 H4625 0.951 . S
C4644 C4642 1.388 . S
C4644 C4645 1.366 . S
C4645 C4644 1.366 . S
C4645 C4646 1.414 . S
C4645 C4648 1.499 . S
C4646 H4626 0.950 . S
C4646 C4645 1.414 . S
C4646 C4647 1.374 . S
C4647 H4627 0.950 . S
C4647 C4643 1.385 . S
C4647 C4646 1.374 . S
C4648 C4645 1.499 . S
C4648 C4649 1.373 . S
C4648 C4650 1.389 . S
C4649 H4628 0.950 . S
C4649 C4648 1.373 . S
C4649 C4665 1.377 . S
C4650 C4648 1.389 . S
C4650 C4651 1.524 . S
C4650 C4664 1.377 . S
C4651 C4650 1.524 . S
C4651 C4652 1.397 . S
C4651 C4656 1.363 . S
C4652 H4629 0.950 . S
C4652 C4651 1.397 . S
C4652 C4653 1.334 . S
C4653 H4630 0.950 . S
C4653 C4652 1.334 . S
C4653 C4654 1.287 . S
C4654 C4653 1.287 . S
C4654 C4655 1.524 . S
C4654 H4673 0.913 . S
C4655 H4631 0.950 . S
C4655 C4654 1.524 . S
C4655 C4656 1.415 . S
C4656 H4632 0.950 . S
C4656 C4651 1.363 . S
C4656 C4655 1.415 . S
C4657 H4633 0.951 . S
C4657 C4658 1.366 . S
C4657 C4659 1.388 . S
C4658 C4657 1.366 . S
C4658 C4662 1.385 . S
C4659 H4634 0.951 . S
C4659 C4657 1.388 . S
C4659 C4660 1.366 . S
C4660 C4659 1.366 . S
C4660 C4661 1.414 . S
C4660 C4663 1.499 . S
C4661 H4635 0.950 . S
C4661 C4660 1.414 . S
C4661 C4662 1.374 . S
C4662 H4636 0.950 . S
C4662 C4658 1.385 . S
C4662 C4661 1.374 . S
C4663 C4660 1.499 . S
C4663 C4664 1.373 . S
C4663 C4665 1.389 . S
C4664 H4637 0.950 . S
C4664 C4650 1.377 . S
C4664 C4663 1.373 . S
C4665 C4649 1.377 . S
C4665 C4663 1.389 . S
C4665 C4666 1.524 . S
C4666 C4665 1.524 . S
C4666 C4667 1.397 . S
C4666 C4671 1.363 . S
C4667 H4638 0.950 . S
C4667 C4666 1.397 . S
C4667 C4668 1.334 . S
C4668 H4639 0.950 . S
C4668 C4667 1.334 . S
C4668 C4669 1.287 . S
C4669 C4668 1.287 . S
C4669 C4670 1.524 . S
C4669 H4672 0.999 . S
C4670 H4640 0.950 . S
C4670 C4669 1.524 . S
C4670 C4671 1.415 . S
C4671 H4641 0.950 . S
C4671 C4666 1.363 . S
C4671 C4670 1.415 . S
H4672 C4669 0.999 . S
H4673 C4654 0.913 . S
H4674 C4692 0.951 . S
H4675 C4694 0.951 . S
H4676 C4696 0.950 . S
H4677 C4697 0.950 . S
H4678 C4699 0.950 . S
H4679 C4702 0.950 . S
H4680 C4703 0.950 . S
H4681 C4705 0.950 . S
H4682 C4706 0.950 . S
H4683 C4707 0.951 . S
H4684 C4709 0.951 . S
H4685 C4711 0.950 . S
H4686 C4712 0.950 . S
H4687 C4714 0.950 . S
H4688 C4717 0.950 . S
H4689 C4718 0.950 . S
H4690 C4720 0.950 . S
H4691 C4721 0.950 . S
C4692 H4674 0.951 . S
C4692 C4693 1.366 . S
C4692 C4694 1.388 . S
C4693 C4692 1.366 . S
C4693 C4697 1.385 . S
C4694 H4675 0.951 . S
C4694 C4692 1.388 . S
C4694 C4695 1.366 . S
C4695 C4694 1.366 . S
C4695 C4696 1.414 . S
C4695 C4698 1.499 . S
C4696 H4676 0.950 . S
C4696 C4695 1.414 . S
C4696 C4697 1.374 . S
C4697 H4677 0.950 . S
C4697 C4693 1.385 . S
C4697 C4696 1.374 . S
C4698 C4695 1.499 . S
C4698 C4699 1.373 . S
C4698 C4700 1.389 . S
C4699 H4678 0.950 . S
C4699 C4698 1.373 . S
C4699 C4715 1.377 . S
C4700 C4698 1.389 . S
C4700 C4701 1.524 . S
C4700 C4714 1.377 . S
C4701 C4700 1.524 . S
C4701 C4702 1.397 . S
C4701 C4706 1.363 . S
C4702 H4679 0.950 . S
C4702 C4701 1.397 . S
C4702 C4703 1.334 . S
C4703 H4680 0.950 . S
C4703 C4702 1.334 . S
C4703 C4704 1.287 . S
C4704 C4703 1.287 . S
C4704 C4705 1.524 . S
C4704 H4723 0.913 . S
C4705 H4681 0.950 . S
C4705 C4704 1.524 . S
C4705 C4706 1.415 . S
C4706 H4682 0.950 . S
C4706 C4701 1.363 . S
C4706 C4705 1.415 . S
C4707 H4683 0.951 . S
C4707 C4708 1.366 . S
C4707 C4709 1.388 . S
C4708 C4707 1.366 . S
C4708 C4712 1.385 . S
C4709 H4684 0.951 . S
C4709 C4707 1.388 . S
C4709 C4710 1.366 . S
C4710 C4709 1.366 . S
C4710 C4711 1.414 . S
C4710 C4713 1.499 . S
C4711 H4685 0.950 . S
C4711 C4710 1.414 . S
C4711 C4712 1.374 . S
C4712 H4686 0.950 . S
C4712 C4708 1.385 . S
C4712 C4711 1.374 . S
C4713 C4710 1.499 . S
C4713 C4714 1.373 . S
C4713 C4715 1.389 . S
C4714 H4687 0.950 . S
C4714 C4700 1.377 . S
C4714 C4713 1.373 . S
C4715 C4699 1.377 . S
C4715 C4713 1.389 . S
C4715 C4716 1.524 . S
C4716 C4715 1.524 . S
C4716 C4717 1.397 . S
C4716 C4721 1.363 . S
C4717 H4688 0.950 . S
C4717 C4716 1.397 . S
C4717 C4718 1.334 . S
C4718 H4689 0.950 . S
C4718 C4717 1.334 . S
C4718 C4719 1.287 . S
C4719 C4718 1.287 . S
C4719 C4720 1.524 . S
C4719 H4722 0.999 . S
C4720 H4690 0.950 . S
C4720 C4719 1.524 . S
C4720 C4721 1.415 . S
C4721 H4691 0.950 . S
C4721 C4716 1.363 . S
C4721 C4720 1.415 . S
H4722 C4719 0.999 . S
H4723 C4704 0.913 . S
H4724 C4742 0.951 . S
H4725 C4744 0.951 . S
H4726 C4746 0.950 . S
H4727 C4747 0.950 . S
H4728 C4749 0.950 . S
H4729 C4752 0.950 . S
H4730 C4753 0.950 . S
H4731 C4755 0.950 . S
H4732 C4756 0.950 . S
H4733 C4757 0.951 . S
H4734 C4759 0.951 . S
H4735 C4761 0.950 . S
H4736 C4762 0.950 . S
H4737 C4764 0.950 . S
H4738 C4767 0.950 . S
H4739 C4768 0.950 . S
H4740 C4770 0.950 . S
H4741 C4771 0.950 . S
C4742 H4724 0.951 . S
C4742 C4743 1.366 . S
C4742 C4744 1.388 . S
C4743 C4742 1.366 . S
C4743 C4747 1.385 . S
C4744 H4725 0.951 . S
C4744 C4742 1.388 . S
C4744 C4745 1.366 . S
C4745 C4744 1.366 . S
C4745 C4746 1.414 . S
C4745 C4748 1.499 . S
C4746 H4726 0.950 . S
C4746 C4745 1.414 . S
C4746 C4747 1.374 . S
C4747 H4727 0.950 . S
C4747 C4743 1.385 . S
C4747 C4746 1.374 . S
C4748 C4745 1.499 . S
C4748 C4749 1.373 . S
C4748 C4750 1.389 . S
C4749 H4728 0.950 . S
C4749 C4748 1.373 . S
C4749 C4765 1.377 . S
C4750 C4748 1.389 . S
C4750 C4751 1.524 . S
C4750 C4764 1.377 . S
C4751 C4750 1.524 . S
C4751 C4752 1.397 . S
C4751 C4756 1.363 . S
C4752 H4729 0.950 . S
C4752 C4751 1.397 . S
C4752 C4753 1.334 . S
C4753 H4730 0.950 . S
C4753 C4752 1.334 . S
C4753 C4754 1.287 . S
C4754 C4753 1.287 . S
C4754 C4755 1.524 . S
C4754 H4773 0.913 . S
C4755 H4731 0.950 . S
C4755 C4754 1.524 . S
C4755 C4756 1.415 . S
C4756 H4732 0.950 . S
C4756 C4751 1.363 . S
C4756 C4755 1.415 . S
C4757 H4733 0.951 . S
C4757 C4758 1.366 . S
C4757 C4759 1.388 . S
C4758 C4757 1.366 . S
C4758 C4762 1.385 . S
C4759 H4734 0.951 . S
C4759 C4757 1.388 . S
C4759 C4760 1.366 . S
C4760 C4759 1.366 . S
C4760 C4761 1.414 . S
C4760 C4763 1.499 . S
C4761 H4735 0.950 . S
C4761 C4760 1.414 . S
C4761 C4762 1.374 . S
C4762 H4736 0.950 . S
C4762 C4758 1.385 . S
C4762 C4761 1.374 . S
C4763 C4760 1.499 . S
C4763 C4764 1.373 . S
C4763 C4765 1.389 . S
C4764 H4737 0.950 . S
C4764 C4750 1.377 . S
C4764 C4763 1.373 . S
C4765 C4749 1.377 . S
C4765 C4763 1.389 . S
C4765 C4766 1.524 . S
C4766 C4765 1.524 . S
C4766 C4767 1.397 . S
C4766 C4771 1.363 . S
C4767 H4738 0.950 . S
C4767 C4766 1.397 . S
C4767 C4768 1.334 . S
C4768 H4739 0.950 . S
C4768 C4767 1.334 . S
C4768 C4769 1.287 . S
C4769 C4768 1.287 . S
C4769 C4770 1.524 . S
C4769 H4772 0.999 . S
C4770 H4740 0.950 . S
C4770 C4769 1.524 . S
C4770 C4771 1.415 . S
C4771 H4741 0.950 . S
C4771 C4766 1.363 . S
C4771 C4770 1.415 . S
H4772 C4769 0.999 . S
H4773 C4754 0.913 . S
H4774 C4792 0.951 . S
H4775 C4794 0.951 . S
H4776 C4796 0.950 . S
H4777 C4797 0.950 . S
H4778 C4799 0.950 . S
H4779 C4802 0.950 . S
H4780 C4803 0.950 . S
H4781 C4805 0.950 . S
H4782 C4806 0.950 . S
H4783 C4807 0.951 . S
H4784 C4809 0.951 . S
H4785 C4811 0.950 . S
H4786 C4812 0.950 . S
H4787 C4814 0.950 . S
H4788 C4817 0.950 . S
H4789 C4818 0.950 . S
H4790 C4820 0.950 . S
H4791 C4821 0.950 . S
C4792 H4774 0.951 . S
C4792 C4793 1.366 . S
C4792 C4794 1.388 . S
C4793 C4792 1.366 . S
C4793 C4797 1.385 . S
C4794 H4775 0.951 . S
C4794 C4792 1.388 . S
C4794 C4795 1.366 . S
C4795 C4794 1.366 . S
C4795 C4796 1.414 . S
C4795 C4798 1.499 . S
C4796 H4776 0.950 . S
C4796 C4795 1.414 . S
C4796 C4797 1.374 . S
C4797 H4777 0.950 . S
C4797 C4793 1.385 . S
C4797 C4796 1.374 . S
C4798 C4795 1.499 . S
C4798 C4799 1.373 . S
C4798 C4800 1.389 . S
C4799 H4778 0.950 . S
C4799 C4798 1.373 . S
C4799 C4815 1.377 . S
C4800 C4798 1.389 . S
C4800 C4801 1.524 . S
C4800 C4814 1.377 . S
C4801 C4800 1.524 . S
C4801 C4802 1.397 . S
C4801 C4806 1.363 . S
C4802 H4779 0.950 . S
C4802 C4801 1.397 . S
C4802 C4803 1.334 . S
C4803 H4780 0.950 . S
C4803 C4802 1.334 . S
C4803 C4804 1.287 . S
C4804 C4803 1.287 . S
C4804 C4805 1.524 . S
C4804 H4823 0.913 . S
C4805 H4781 0.950 . S
C4805 C4804 1.524 . S
C4805 C4806 1.415 . S
C4806 H4782 0.950 . S
C4806 C4801 1.363 . S
C4806 C4805 1.415 . S
C4807 H4783 0.951 . S
C4807 C4808 1.366 . S
C4807 C4809 1.388 . S
C4808 C4807 1.366 . S
C4808 C4812 1.385 . S
C4809 H4784 0.951 . S
C4809 C4807 1.388 . S
C4809 C4810 1.366 . S
C4810 C4809 1.366 . S
C4810 C4811 1.414 . S
C4810 C4813 1.499 . S
C4811 H4785 0.950 . S
C4811 C4810 1.414 . S
C4811 C4812 1.374 . S
C4812 H4786 0.950 . S
C4812 C4808 1.385 . S
C4812 C4811 1.374 . S
C4813 C4810 1.499 . S
C4813 C4814 1.373 . S
C4813 C4815 1.389 . S
C4814 H4787 0.950 . S
C4814 C4800 1.377 . S
C4814 C4813 1.373 . S
C4815 C4799 1.377 . S
C4815 C4813 1.389 . S
C4815 C4816 1.524 . S
C4816 C4815 1.524 . S
C4816 C4817 1.397 . S
C4816 C4821 1.363 . S
C4817 H4788 0.950 . S
C4817 C4816 1.397 . S
C4817 C4818 1.334 . S
C4818 H4789 0.950 . S
C4818 C4817 1.334 . S
C4818 C4819 1.287 . S
C4819 C4818 1.287 . S
C4819 C4820 1.524 . S
C4819 H4822 0.999 . S
C4820 H4790 0.950 . S
C4820 C4819 1.524 . S
C4820 C4821 1.415 . S
C4821 H4791 0.950 . S
C4821 C4816 1.363 . S
C4821 C4820 1.415 . S
H4822 C4819 0.999 . S
H4823 C4804 0.913 . S
H4824 C4842 0.951 . S
H4825 C4844 0.951 . S
H4826 C4846 0.950 . S
H4827 C4847 0.950 . S
H4828 C4849 0.950 . S
H4829 C4852 0.950 . S
H4830 C4853 0.950 . S
H4831 C4855 0.950 . S
H4832 C4856 0.950 . S
H4833 C4857 0.951 . S
H4834 C4859 0.951 . S
H4835 C4861 0.950 . S
H4836 C4862 0.950 . S
H4837 C4864 0.950 . S
H4838 C4867 0.950 . S
H4839 C4868 0.950 . S
H4840 C4870 0.950 . S
H4841 C4871 0.950 . S
C4842 H4824 0.951 . S
C4842 C4843 1.366 . S
C4842 C4844 1.388 . S
C4843 C4842 1.366 . S
C4843 C4847 1.385 . S
C4844 H4825 0.951 . S
C4844 C4842 1.388 . S
C4844 C4845 1.366 . S
C4845 C4844 1.366 . S
C4845 C4846 1.414 . S
C4845 C4848 1.499 . S
C4846 H4826 0.950 . S
C4846 C4845 1.414 . S
C4846 C4847 1.374 . S
C4847 H4827 0.950 . S
C4847 C4843 1.385 . S
C4847 C4846 1.374 . S
C4848 C4845 1.499 . S
C4848 C4849 1.373 . S
C4848 C4850 1.389 . S
C4849 H4828 0.950 . S
C4849 C4848 1.373 . S
C4849 C4865 1.377 . S
C4850 C4848 1.389 . S
C4850 C4851 1.524 . S
C4850 C4864 1.377 . S
C4851 C4850 1.524 . S
C4851 C4852 1.397 . S
C4851 C4856 1.363 . S
C4852 H4829 0.950 . S
C4852 C4851 1.397 . S
C4852 C4853 1.334 . S
C4853 H4830 0.950 . S
C4853 C4852 1.334 . S
C4853 C4854 1.287 . S
C4854 C4853 1.287 . S
C4854 C4855 1.524 . S
C4854 H4873 0.913 . S
C4855 H4831 0.950 . S
C4855 C4854 1.524 . S
C4855 C4856 1.415 . S
C4856 H4832 0.950 . S
C4856 C4851 1.363 . S
C4856 C4855 1.415 . S
C4857 H4833 0.951 . S
C4857 C4858 1.366 . S
C4857 C4859 1.388 . S
C4858 C4857 1.366 . S
C4858 C4862 1.385 . S
C4859 H4834 0.951 . S
C4859 C4857 1.388 . S
C4859 C4860 1.366 . S
C4860 C4859 1.366 . S
C4860 C4861 1.414 . S
C4860 C4863 1.499 . S
C4861 H4835 0.950 . S
C4861 C4860 1.414 . S
C4861 C4862 1.374 . S
C4862 H4836 0.950 . S
C4862 C4858 1.385 . S
C4862 C4861 1.374 . S
C4863 C4860 1.499 . S
C4863 C4864 1.373 . S
C4863 C4865 1.389 . S
C4864 H4837 0.950 . S
C4864 C4850 1.377 . S
C4864 C4863 1.373 . S
C4865 C4849 1.377 . S
C4865 C4863 1.389 . S
C4865 C4866 1.524 . S
C4866 C4865 1.524 . S
C4866 C4867 1.397 . S
C4866 C4871 1.363 . S
C4867 H4838 0.950 . S
C4867 C4866 1.397 . S
C4867 C4868 1.334 . S
C4868 H4839 0.950 . S
C4868 C4867 1.334 . S
C4868 C4869 1.287 . S
C4869 C4868 1.287 . S
C4869 C4870 1.524 . S
C4869 H4872 0.999 . S
C4870 H4840 0.950 . S
C4870 C4869 1.524 . S
C4870 C4871 1.415 . S
C4871 H4841 0.950 . S
C4871 C4866 1.363 . S
C4871 C4870 1.415 . S
H4872 C4869 0.999 . S
H4873 C4854 0.913 . S
H4874 C4892 0.951 . S
H4875 C4894 0.951 . S
H4876 C4896 0.950 . S
H4877 C4897 0.950 . S
H4878 C4899 0.950 . S
H4879 C4902 0.950 . S
H4880 C4903 0.950 . S
H4881 C4905 0.950 . S
H4882 C4906 0.950 . S
H4883 C4907 0.951 . S
H4884 C4909 0.951 . S
H4885 C4911 0.950 . S
H4886 C4912 0.950 . S
H4887 C4914 0.950 . S
H4888 C4917 0.950 . S
H4889 C4918 0.950 . S
H4890 C4920 0.950 . S
H4891 C4921 0.950 . S
C4892 H4874 0.951 . S
C4892 C4893 1.366 . S
C4892 C4894 1.388 . S
C4893 C4892 1.366 . S
C4893 C4897 1.385 . S
C4894 H4875 0.951 . S
C4894 C4892 1.388 . S
C4894 C4895 1.366 . S
C4895 C4894 1.366 . S
C4895 C4896 1.414 . S
C4895 C4898 1.499 . S
C4896 H4876 0.950 . S
C4896 C4895 1.414 . S
C4896 C4897 1.374 . S
C4897 H4877 0.950 . S
C4897 C4893 1.385 . S
C4897 C4896 1.374 . S
C4898 C4895 1.499 . S
C4898 C4899 1.373 . S
C4898 C4900 1.389 . S
C4899 H4878 0.950 . S
C4899 C4898 1.373 . S
C4899 C4915 1.377 . S
C4900 C4898 1.389 . S
C4900 C4901 1.524 . S
C4900 C4914 1.377 . S
C4901 C4900 1.524 . S
C4901 C4902 1.397 . S
C4901 C4906 1.363 . S
C4902 H4879 0.950 . S
C4902 C4901 1.397 . S
C4902 C4903 1.334 . S
C4903 H4880 0.950 . S
C4903 C4902 1.334 . S
C4903 C4904 1.287 . S
C4904 C4903 1.287 . S
C4904 C4905 1.524 . S
C4904 H4923 0.913 . S
C4905 H4881 0.950 . S
C4905 C4904 1.524 . S
C4905 C4906 1.415 . S
C4906 H4882 0.950 . S
C4906 C4901 1.363 . S
C4906 C4905 1.415 . S
C4907 H4883 0.951 . S
C4907 C4908 1.366 . S
C4907 C4909 1.388 . S
C4908 C4907 1.366 . S
C4908 C4912 1.385 . S
C4909 H4884 0.951 . S
C4909 C4907 1.388 . S
C4909 C4910 1.366 . S
C4910 C4909 1.366 . S
C4910 C4911 1.414 . S
C4910 C4913 1.499 . S
C4911 H4885 0.950 . S
C4911 C4910 1.414 . S
C4911 C4912 1.374 . S
C4912 H4886 0.950 . S
C4912 C4908 1.385 . S
C4912 C4911 1.374 . S
C4913 C4910 1.499 . S
C4913 C4914 1.373 . S
C4913 C4915 1.389 . S
C4914 H4887 0.950 . S
C4914 C4900 1.377 . S
C4914 C4913 1.373 . S
C4915 C4899 1.377 . S
C4915 C4913 1.389 . S
C4915 C4916 1.524 . S
C4916 C4915 1.524 . S
C4916 C4917 1.397 . S
C4916 C4921 1.363 . S
C4917 H4888 0.950 . S
C4917 C4916 1.397 . S
C4917 C4918 1.334 . S
C4918 H4889 0.950 . S
C4918 C4917 1.334 . S
C4918 C4919 1.287 . S
C4919 C4918 1.287 . S
C4919 C4920 1.524 . S
C4919 H4922 0.999 . S
C4920 H4890 0.950 . S
C4920 C4919 1.524 . S
C4920 C4921 1.415 . S
C4921 H4891 0.950 . S
C4921 C4916 1.363 . S
C4921 C4920 1.415 . S
H4922 C4919 0.999 . S
H4923 C4904 0.913 . S
H4924 C4942 0.951 . S
H4925 C4944 0.951 . S
H4926 C4946 0.950 . S
H4927 C4947 0.950 . S
H4928 C4949 0.950 . S
H4929 C4952 0.950 . S
H4930 C4953 0.950 . S
H4931 C4955 0.950 . S
H4932 C4956 0.950 . S
H4933 C4957 0.951 . S
H4934 C4959 0.951 . S
H4935 C4961 0.950 . S
H4936 C4962 0.950 . S
H4937 C4964 0.950 . S
H4938 C4967 0.950 . S
H4939 C4968 0.950 . S
H4940 C4970 0.950 . S
H4941 C4971 0.950 . S
C4942 H4924 0.951 . S
C4942 C4943 1.366 . S
C4942 C4944 1.388 . S
C4943 C4942 1.366 . S
C4943 C4947 1.385 . S
C4944 H4925 0.951 . S
C4944 C4942 1.388 . S
C4944 C4945 1.366 . S
C4945 C4944 1.366 . S
C4945 C4946 1.414 . S
C4945 C4948 1.499 . S
C4946 H4926 0.950 . S
C4946 C4945 1.414 . S
C4946 C4947 1.374 . S
C4947 H4927 0.950 . S
C4947 C4943 1.385 . S
C4947 C4946 1.374 . S
C4948 C4945 1.499 . S
C4948 C4949 1.373 . S
C4948 C4950 1.389 . S
C4949 H4928 0.950 . S
C4949 C4948 1.373 . S
C4949 C4965 1.377 . S
C4950 C4948 1.389 . S
C4950 C4951 1.524 . S
C4950 C4964 1.377 . S
C4951 C4950 1.524 . S
C4951 C4952 1.397 . S
C4951 C4956 1.363 . S
C4952 H4929 0.950 . S
C4952 C4951 1.397 . S
C4952 C4953 1.334 . S
C4953 H4930 0.950 . S
C4953 C4952 1.334 . S
C4953 C4954 1.287 . S
C4954 C4953 1.287 . S
C4954 C4955 1.524 . S
C4954 H4973 0.913 . S
C4955 H4931 0.950 . S
C4955 C4954 1.524 . S
C4955 C4956 1.415 . S
C4956 H4932 0.950 . S
C4956 C4951 1.363 . S
C4956 C4955 1.415 . S
C4957 H4933 0.951 . S
C4957 C4958 1.366 . S
C4957 C4959 1.388 . S
C4958 C4957 1.366 . S
C4958 C4962 1.385 . S
C4959 H4934 0.951 . S
C4959 C4957 1.388 . S
C4959 C4960 1.366 . S
C4960 C4959 1.366 . S
C4960 C4961 1.414 . S
C4960 C4963 1.499 . S
C4961 H4935 0.950 . S
C4961 C4960 1.414 . S
C4961 C4962 1.374 . S
C4962 H4936 0.950 . S
C4962 C4958 1.385 . S
C4962 C4961 1.374 . S
C4963 C4960 1.499 . S
C4963 C4964 1.373 . S
C4963 C4965 1.389 . S
C4964 H4937 0.950 . S
C4964 C4950 1.377 . S
C4964 C4963 1.373 . S
C4965 C4949 1.377 . S
C4965 C4963 1.389 . S
C4965 C4966 1.524 . S
C4966 C4965 1.524 . S
C4966 C4967 1.397 . S
C4966 C4971 1.363 . S
C4967 H4938 0.950 . S
C4967 C4966 1.397 . S
C4967 C4968 1.334 . S
C4968 H4939 0.950 . S
C4968 C4967 1.334 . S
C4968 C4969 1.287 . S
C4969 C4968 1.287 . S
C4969 C4970 1.524 . S
C4969 H4972 0.999 . S
C4970 H4940 0.950 . S
C4970 C4969 1.524 . S
C4970 C4971 1.415 . S
C4971 H4941 0.950 . S
C4971 C4966 1.363 . S
C4971 C4970 1.415 . S
H4972 C4969 0.999 . S
H4973 C4954 0.913 . S
H4974 C4992 0.951 . S
H4975 C4994 0.951 . S
H4976 C4996 0.950 . S
H4977 C4997 0.950 . S
H4978 C4999 0.950 . S
H4979 C5002 0.950 . S
H4980 C5003 0.950 . S
H4981 C5005 0.950 . S
H4982 C5006 0.950 . S
H4983 C5007 0.951 . S
H4984 C5009 0.951 . S
H4985 C5011 0.950 . S
H4986 C5012 0.950 . S
H4987 C5014 0.950 . S
H4988 C5017 0.950 . S
H4989 C5018 0.950 . S
H4990 C5020 0.950 . S
H4991 C5021 0.950 . S
C4992 H4974 0.951 . S
C4992 C4993 1.366 . S
C4992 C4994 1.388 . S
C4993 C4992 1.366 . S
C4993 C4997 1.385 . S
C4994 H4975 0.951 . S
C4994 C4992 1.388 . S
C4994 C4995 1.366 . S
C4995 C4994 1.366 . S
C4995 C4996 1.414 . S
C4995 C4998 1.499 . S
C4996 H4976 0.950 . S
C4996 C4995 1.414 . S
C4996 C4997 1.374 . S
C4997 H4977 0.950 . S
C4997 C4993 1.385 . S
C4997 C4996 1.374 . S
C4998 C4995 1.499 . S
C4998 C4999 1.373 . S
C4998 C5000 1.389 . S
C4999 H4978 0.950 . S
C4999 C4998 1.373 . S
C4999 C5015 1.377 . S
C5000 C4998 1.389 . S
C5000 C5001 1.524 . S
C5000 C5014 1.377 . S
C5001 C5000 1.524 . S
C5001 C5002 1.397 . S
C5001 C5006 1.363 . S
C5002 H4979 0.950 . S
C5002 C5001 1.397 . S
C5002 C5003 1.334 . S
C5003 H4980 0.950 . S
C5003 C5002 1.334 . S
C5003 C5004 1.287 . S
C5004 C5003 1.287 . S
C5004 C5005 1.524 . S
C5004 H5023 0.913 . S
C5005 H4981 0.950 . S
C5005 C5004 1.524 . S
C5005 C5006 1.415 . S
C5006 H4982 0.950 . S
C5006 C5001 1.363 . S
C5006 C5005 1.415 . S
C5007 H4983 0.951 . S
C5007 C5008 1.366 . S
C5007 C5009 1.388 . S
C5008 C5007 1.366 . S
C5008 C5012 1.385 . S
C5009 H4984 0.951 . S
C5009 C5007 1.388 . S
C5009 C5010 1.366 . S
C5010 C5009 1.366 . S
C5010 C5011 1.414 . S
C5010 C5013 1.499 . S
C5011 H4985 0.950 . S
C5011 C5010 1.414 . S
C5011 C5012 1.374 . S
C5012 H4986 0.950 . S
C5012 C5008 1.385 . S
C5012 C5011 1.374 . S
C5013 C5010 1.499 . S
C5013 C5014 1.373 . S
C5013 C5015 1.389 . S
C5014 H4987 0.950 . S
C5014 C5000 1.377 . S
C5014 C5013 1.373 . S
C5015 C4999 1.377 . S
C5015 C5013 1.389 . S
C5015 C5016 1.524 . S
C5016 C5015 1.524 . S
C5016 C5017 1.397 . S
C5016 C5021 1.363 . S
C5017 H4988 0.950 . S
C5017 C5016 1.397 . S
C5017 C5018 1.334 . S
C5018 H4989 0.950 . S
C5018 C5017 1.334 . S
C5018 C5019 1.287 . S
C5019 C5018 1.287 . S
C5019 C5020 1.524 . S
C5019 H5022 0.999 . S
C5020 H4990 0.950 . S
C5020 C5019 1.524 . S
C5020 C5021 1.415 . S
C5021 H4991 0.950 . S
C5021 C5016 1.363 . S
C5021 C5020 1.415 . S
H5022 C5019 0.999 . S
H5023 C5004 0.913 . S
H5024 C5042 0.951 . S
H5025 C5044 0.951 . S
H5026 C5046 0.950 . S
H5027 C5047 0.950 . S
H5028 C5049 0.950 . S
H5029 C5052 0.950 . S
H5030 C5053 0.950 . S
H5031 C5055 0.950 . S
H5032 C5056 0.950 . S
H5033 C5057 0.951 . S
H5034 C5059 0.951 . S
H5035 C5061 0.950 . S
H5036 C5062 0.950 . S
H5037 C5064 0.950 . S
H5038 C5067 0.950 . S
H5039 C5068 0.950 . S
H5040 C5070 0.950 . S
H5041 C5071 0.950 . S
C5042 H5024 0.951 . S
C5042 C5043 1.366 . S
C5042 C5044 1.388 . S
C5043 C5042 1.366 . S
C5043 C5047 1.385 . S
C5044 H5025 0.951 . S
C5044 C5042 1.388 . S
C5044 C5045 1.366 . S
C5045 C5044 1.366 . S
C5045 C5046 1.414 . S
C5045 C5048 1.499 . S
C5046 H5026 0.950 . S
C5046 C5045 1.414 . S
C5046 C5047 1.374 . S
C5047 H5027 0.950 . S
C5047 C5043 1.385 . S
C5047 C5046 1.374 . S
C5048 C5045 1.499 . S
C5048 C5049 1.373 . S
C5048 C5050 1.389 . S
C5049 H5028 0.950 . S
C5049 C5048 1.373 . S
C5049 C5065 1.377 . S
C5050 C5048 1.389 . S
C5050 C5051 1.524 . S
C5050 C5064 1.377 . S
C5051 C5050 1.524 . S
C5051 C5052 1.397 . S
C5051 C5056 1.363 . S
C5052 H5029 0.950 . S
C5052 C5051 1.397 . S
C5052 C5053 1.334 . S
C5053 H5030 0.950 . S
C5053 C5052 1.334 . S
C5053 C5054 1.287 . S
C5054 C5053 1.287 . S
C5054 C5055 1.524 . S
C5054 H5073 0.913 . S
C5055 H5031 0.950 . S
C5055 C5054 1.524 . S
C5055 C5056 1.415 . S
C5056 H5032 0.950 . S
C5056 C5051 1.363 . S
C5056 C5055 1.415 . S
C5057 H5033 0.951 . S
C5057 C5058 1.366 . S
C5057 C5059 1.388 . S
C5058 C5057 1.366 . S
C5058 C5062 1.385 . S
C5059 H5034 0.951 . S
C5059 C5057 1.388 . S
C5059 C5060 1.366 . S
C5060 C5059 1.366 . S
C5060 C5061 1.414 . S
C5060 C5063 1.499 . S
C5061 H5035 0.950 . S
C5061 C5060 1.414 . S
C5061 C5062 1.374 . S
C5062 H5036 0.950 . S
C5062 C5058 1.385 . S
C5062 C5061 1.374 . S
C5063 C5060 1.499 . S
C5063 C5064 1.373 . S
C5063 C5065 1.389 . S
C5064 H5037 0.950 . S
C5064 C5050 1.377 . S
C5064 C5063 1.373 . S
C5065 C5049 1.377 . S
C5065 C5063 1.389 . S
C5065 C5066 1.524 . S
C5066 C5065 1.524 . S
C5066 C5067 1.397 . S
C5066 C5071 1.363 . S
C5067 H5038 0.950 . S
C5067 C5066 1.397 . S
C5067 C5068 1.334 . S
C5068 H5039 0.950 . S
C5068 C5067 1.334 . S
C5068 C5069 1.287 . S
C5069 C5068 1.287 . S
C5069 C5070 1.524 . S
C5069 H5072 0.999 . S
C5070 H5040 0.950 . S
C5070 C5069 1.524 . S
C5070 C5071 1.415 . S
C5071 H5041 0.950 . S
C5071 C5066 1.363 . S
C5071 C5070 1.415 . S
H5072 C5069 0.999 . S
H5073 C5054 0.913 . S
H5074 C5092 0.951 . S
H5075 C5094 0.951 . S
H5076 C5096 0.950 . S
H5077 C5097 0.950 . S
H5078 C5099 0.950 . S
H5079 C5102 0.950 . S
H5080 C5103 0.950 . S
H5081 C5105 0.950 . S
H5082 C5106 0.950 . S
H5083 C5107 0.951 . S
H5084 C5109 0.951 . S
H5085 C5111 0.950 . S
H5086 C5112 0.950 . S
H5087 C5114 0.950 . S
H5088 C5117 0.950 . S
H5089 C5118 0.950 . S
H5090 C5120 0.950 . S
H5091 C5121 0.950 . S
C5092 H5074 0.951 . S
C5092 C5093 1.366 . S
C5092 C5094 1.388 . S
C5093 C5092 1.366 . S
C5093 C5097 1.385 . S
C5094 H5075 0.951 . S
C5094 C5092 1.388 . S
C5094 C5095 1.366 . S
C5095 C5094 1.366 . S
C5095 C5096 1.414 . S
C5095 C5098 1.499 . S
C5096 H5076 0.950 . S
C5096 C5095 1.414 . S
C5096 C5097 1.374 . S
C5097 H5077 0.950 . S
C5097 C5093 1.385 . S
C5097 C5096 1.374 . S
C5098 C5095 1.499 . S
C5098 C5099 1.373 . S
C5098 C5100 1.389 . S
C5099 H5078 0.950 . S
C5099 C5098 1.373 . S
C5099 C5115 1.377 . S
C5100 C5098 1.389 . S
C5100 C5101 1.524 . S
C5100 C5114 1.377 . S
C5101 C5100 1.524 . S
C5101 C5102 1.397 . S
C5101 C5106 1.363 . S
C5102 H5079 0.950 . S
C5102 C5101 1.397 . S
C5102 C5103 1.334 . S
C5103 H5080 0.950 . S
C5103 C5102 1.334 . S
C5103 C5104 1.287 . S
C5104 C5103 1.287 . S
C5104 C5105 1.524 . S
C5104 H5123 0.913 . S
C5105 H5081 0.950 . S
C5105 C5104 1.524 . S
C5105 C5106 1.415 . S
C5106 H5082 0.950 . S
C5106 C5101 1.363 . S
C5106 C5105 1.415 . S
C5107 H5083 0.951 . S
C5107 C5108 1.366 . S
C5107 C5109 1.388 . S
C5108 C5107 1.366 . S
C5108 C5112 1.385 . S
C5109 H5084 0.951 . S
C5109 C5107 1.388 . S
C5109 C5110 1.366 . S
C5110 C5109 1.366 . S
C5110 C5111 1.414 . S
C5110 C5113 1.499 . S
C5111 H5085 0.950 . S
C5111 C5110 1.414 . S
C5111 C5112 1.374 . S
C5112 H5086 0.950 . S
C5112 C5108 1.385 . S
C5112 C5111 1.374 . S
C5113 C5110 1.499 . S
C5113 C5114 1.373 . S
C5113 C5115 1.389 . S
C5114 H5087 0.950 . S
C5114 C5100 1.377 . S
C5114 C5113 1.373 . S
C5115 C5099 1.377 . S
C5115 C5113 1.389 . S
C5115 C5116 1.524 . S
C5116 C5115 1.524 . S
C5116 C5117 1.397 . S
C5116 C5121 1.363 . S
C5117 H5088 0.950 . S
C5117 C5116 1.397 . S
C5117 C5118 1.334 . S
C5118 H5089 0.950 . S
C5118 C5117 1.334 . S
C5118 C5119 1.287 . S
C5119 C5118 1.287 . S
C5119 C5120 1.524 . S
C5119 H5122 0.999 . S
C5120 H5090 0.950 . S
C5120 C5119 1.524 . S
C5120 C5121 1.415 . S
C5121 H5091 0.950 . S
C5121 C5116 1.363 . S
C5121 C5120 1.415 . S
H5122 C5119 0.999 . S
H5123 C5104 0.913 . S
H5124 C5142 0.951 . S
H5125 C5144 0.951 . S
H5126 C5146 0.950 . S
H5127 C5147 0.950 . S
H5128 C5149 0.950 . S
H5129 C5152 0.950 . S
H5130 C5153 0.950 . S
H5131 C5155 0.950 . S
H5132 C5156 0.950 . S
H5133 C5157 0.951 . S
H5134 C5159 0.951 . S
H5135 C5161 0.950 . S
H5136 C5162 0.950 . S
H5137 C5164 0.950 . S
H5138 C5167 0.950 . S
H5139 C5168 0.950 . S
H5140 C5170 0.950 . S
H5141 C5171 0.950 . S
C5142 H5124 0.951 . S
C5142 C5143 1.366 . S
C5142 C5144 1.388 . S
C5143 C5142 1.366 . S
C5143 C5147 1.385 . S
C5144 H5125 0.951 . S
C5144 C5142 1.388 . S
C5144 C5145 1.366 . S
C5145 C5144 1.366 . S
C5145 C5146 1.414 . S
C5145 C5148 1.499 . S
C5146 H5126 0.950 . S
C5146 C5145 1.414 . S
C5146 C5147 1.374 . S
C5147 H5127 0.950 . S
C5147 C5143 1.385 . S
C5147 C5146 1.374 . S
C5148 C5145 1.499 . S
C5148 C5149 1.373 . S
C5148 C5150 1.389 . S
C5149 H5128 0.950 . S
C5149 C5148 1.373 . S
C5149 C5165 1.377 . S
C5150 C5148 1.389 . S
C5150 C5151 1.524 . S
C5150 C5164 1.377 . S
C5151 C5150 1.524 . S
C5151 C5152 1.397 . S
C5151 C5156 1.363 . S
C5152 H5129 0.950 . S
C5152 C5151 1.397 . S
C5152 C5153 1.334 . S
C5153 H5130 0.950 . S
C5153 C5152 1.334 . S
C5153 C5154 1.287 . S
C5154 C5153 1.287 . S
C5154 C5155 1.524 . S
C5154 H5173 0.913 . S
C5155 H5131 0.950 . S
C5155 C5154 1.524 . S
C5155 C5156 1.415 . S
C5156 H5132 0.950 . S
C5156 C5151 1.363 . S
C5156 C5155 1.415 . S
C5157 H5133 0.951 . S
C5157 C5158 1.366 . S
C5157 C5159 1.388 . S
C5158 C5157 1.366 . S
C5158 C5162 1.385 . S
C5159 H5134 0.951 . S
C5159 C5157 1.388 . S
C5159 C5160 1.366 . S
C5160 C5159 1.366 . S
C5160 C5161 1.414 . S
C5160 C5163 1.499 . S
C5161 H5135 0.950 . S
C5161 C5160 1.414 . S
C5161 C5162 1.374 . S
C5162 H5136 0.950 . S
C5162 C5158 1.385 . S
C5162 C5161 1.374 . S
C5163 C5160 1.499 . S
C5163 C5164 1.373 . S
C5163 C5165 1.389 . S
C5164 H5137 0.950 . S
C5164 C5150 1.377 . S
C5164 C5163 1.373 . S
C5165 C5149 1.377 . S
C5165 C5163 1.389 . S
C5165 C5166 1.524 . S
C5166 C5165 1.524 . S
C5166 C5167 1.397 . S
C5166 C5171 1.363 . S
C5167 H5138 0.950 . S
C5167 C5166 1.397 . S
C5167 C5168 1.334 . S
C5168 H5139 0.950 . S
C5168 C5167 1.334 . S
C5168 C5169 1.287 . S
C5169 C5168 1.287 . S
C5169 C5170 1.524 . S
C5169 H5172 0.999 . S
C5170 H5140 0.950 . S
C5170 C5169 1.524 . S
C5170 C5171 1.415 . S
C5171 H5141 0.950 . S
C5171 C5166 1.363 . S
C5171 C5170 1.415 . S
H5172 C5169 0.999 . S
H5173 C5154 0.913 . S
H5174 C5192 0.951 . S
H5175 C5194 0.951 . S
H5176 C5196 0.950 . S
H5177 C5197 0.950 . S
H5178 C5199 0.950 . S
H5179 C5202 0.950 . S
H5180 C5203 0.950 . S
H5181 C5205 0.950 . S
H5182 C5206 0.950 . S
H5183 C5207 0.951 . S
H5184 C5209 0.951 . S
H5185 C5211 0.950 . S
H5186 C5212 0.950 . S
H5187 C5214 0.950 . S
H5188 C5217 0.950 . S
H5189 C5218 0.950 . S
H5190 C5220 0.950 . S
H5191 C5221 0.950 . S
C5192 H5174 0.951 . S
C5192 C5193 1.366 . S
C5192 C5194 1.388 . S
C5193 C5192 1.366 . S
C5193 C5197 1.385 . S
C5194 H5175 0.951 . S
C5194 C5192 1.388 . S
C5194 C5195 1.366 . S
C5195 C5194 1.366 . S
C5195 C5196 1.414 . S
C5195 C5198 1.499 . S
C5196 H5176 0.950 . S
C5196 C5195 1.414 . S
C5196 C5197 1.374 . S
C5197 H5177 0.950 . S
C5197 C5193 1.385 . S
C5197 C5196 1.374 . S
C5198 C5195 1.499 . S
C5198 C5199 1.373 . S
C5198 C5200 1.389 . S
C5199 H5178 0.950 . S
C5199 C5198 1.373 . S
C5199 C5215 1.377 . S
C5200 C5198 1.389 . S
C5200 C5201 1.524 . S
C5200 C5214 1.377 . S
C5201 C5200 1.524 . S
C5201 C5202 1.397 . S
C5201 C5206 1.363 . S
C5202 H5179 0.950 . S
C5202 C5201 1.397 . S
C5202 C5203 1.334 . S
C5203 H5180 0.950 . S
C5203 C5202 1.334 . S
C5203 C5204 1.287 . S
C5204 C5203 1.287 . S
C5204 C5205 1.524 . S
C5204 H5223 0.913 . S
C5205 H5181 0.950 . S
C5205 C5204 1.524 . S
C5205 C5206 1.415 . S
C5206 H5182 0.950 . S
C5206 C5201 1.363 . S
C5206 C5205 1.415 . S
C5207 H5183 0.951 . S
C5207 C5208 1.366 . S
C5207 C5209 1.388 . S
C5208 C5207 1.366 . S
C5208 C5212 1.385 . S
C5209 H5184 0.951 . S
C5209 C5207 1.388 . S
C5209 C5210 1.366 . S
C5210 C5209 1.366 . S
C5210 C5211 1.414 . S
C5210 C5213 1.499 . S
C5211 H5185 0.950 . S
C5211 C5210 1.414 . S
C5211 C5212 1.374 . S
C5212 H5186 0.950 . S
C5212 C5208 1.385 . S
C5212 C5211 1.374 . S
C5213 C5210 1.499 . S
C5213 C5214 1.373 . S
C5213 C5215 1.389 . S
C5214 H5187 0.950 . S
C5214 C5200 1.377 . S
C5214 C5213 1.373 . S
C5215 C5199 1.377 . S
C5215 C5213 1.389 . S
C5215 C5216 1.524 . S
C5216 C5215 1.524 . S
C5216 C5217 1.397 . S
C5216 C5221 1.363 . S
C5217 H5188 0.950 . S
C5217 C5216 1.397 . S
C5217 C5218 1.334 . S
C5218 H5189 0.950 . S
C5218 C5217 1.334 . S
C5218 C5219 1.287 . S
C5219 C5218 1.287 . S
C5219 C5220 1.524 . S
C5219 H5222 0.999 . S
C5220 H5190 0.950 . S
C5220 C5219 1.524 . S
C5220 C5221 1.415 . S
C5221 H5191 0.950 . S
C5221 C5216 1.363 . S
C5221 C5220 1.415 . S
H5222 C5219 0.999 . S
H5223 C5204 0.913 . S
H5224 C5242 0.951 . S
H5225 C5244 0.951 . S
H5226 C5246 0.950 . S
H5227 C5247 0.950 . S
H5228 C5249 0.950 . S
H5229 C5252 0.950 . S
H5230 C5253 0.950 . S
H5231 C5255 0.950 . S
H5232 C5256 0.950 . S
H5233 C5257 0.951 . S
H5234 C5259 0.951 . S
H5235 C5261 0.950 . S
H5236 C5262 0.950 . S
H5237 C5264 0.950 . S
H5238 C5267 0.950 . S
H5239 C5268 0.950 . S
H5240 C5270 0.950 . S
H5241 C5271 0.950 . S
C5242 H5224 0.951 . S
C5242 C5243 1.366 . S
C5242 C5244 1.388 . S
C5243 C5242 1.366 . S
C5243 C5247 1.385 . S
C5244 H5225 0.951 . S
C5244 C5242 1.388 . S
C5244 C5245 1.366 . S
C5245 C5244 1.366 . S
C5245 C5246 1.414 . S
C5245 C5248 1.499 . S
C5246 H5226 0.950 . S
C5246 C5245 1.414 . S
C5246 C5247 1.374 . S
C5247 H5227 0.950 . S
C5247 C5243 1.385 . S
C5247 C5246 1.374 . S
C5248 C5245 1.499 . S
C5248 C5249 1.373 . S
C5248 C5250 1.389 . S
C5249 H5228 0.950 . S
C5249 C5248 1.373 . S
C5249 C5265 1.377 . S
C5250 C5248 1.389 . S
C5250 C5251 1.524 . S
C5250 C5264 1.377 . S
C5251 C5250 1.524 . S
C5251 C5252 1.397 . S
C5251 C5256 1.363 . S
C5252 H5229 0.950 . S
C5252 C5251 1.397 . S
C5252 C5253 1.334 . S
C5253 H5230 0.950 . S
C5253 C5252 1.334 . S
C5253 C5254 1.287 . S
C5254 C5253 1.287 . S
C5254 C5255 1.524 . S
C5254 H5273 0.913 . S
C5255 H5231 0.950 . S
C5255 C5254 1.524 . S
C5255 C5256 1.415 . S
C5256 H5232 0.950 . S
C5256 C5251 1.363 . S
C5256 C5255 1.415 . S
C5257 H5233 0.951 . S
C5257 C5258 1.366 . S
C5257 C5259 1.388 . S
C5258 C5257 1.366 . S
C5258 C5262 1.385 . S
C5259 H5234 0.951 . S
C5259 C5257 1.388 . S
C5259 C5260 1.366 . S
C5260 C5259 1.366 . S
C5260 C5261 1.414 . S
C5260 C5263 1.499 . S
C5261 H5235 0.950 . S
C5261 C5260 1.414 . S
C5261 C5262 1.374 . S
C5262 H5236 0.950 . S
C5262 C5258 1.385 . S
C5262 C5261 1.374 . S
C5263 C5260 1.499 . S
C5263 C5264 1.373 . S
C5263 C5265 1.389 . S
C5264 H5237 0.950 . S
C5264 C5250 1.377 . S
C5264 C5263 1.373 . S
C5265 C5249 1.377 . S
C5265 C5263 1.389 . S
C5265 C5266 1.524 . S
C5266 C5265 1.524 . S
C5266 C5267 1.397 . S
C5266 C5271 1.363 . S
C5267 H5238 0.950 . S
C5267 C5266 1.397 . S
C5267 C5268 1.334 . S
C5268 H5239 0.950 . S
C5268 C5267 1.334 . S
C5268 C5269 1.287 . S
C5269 C5268 1.287 . S
C5269 C5270 1.524 . S
C5269 H5272 0.999 . S
C5270 H5240 0.950 . S
C5270 C5269 1.524 . S
C5270 C5271 1.415 . S
C5271 H5241 0.950 . S
C5271 C5266 1.363 . S
C5271 C5270 1.415 . S
H5272 C5269 0.999 . S
H5273 C5254 0.913 . S
H5274 C5292 0.951 . S
H5275 C5294 0.951 . S
H5276 C5296 0.950 . S
H5277 C5297 0.950 . S
H5278 C5299 0.950 . S
H5279 C5302 0.950 . S
H5280 C5303 0.950 . S
H5281 C5305 0.950 . S
H5282 C5306 0.950 . S
H5283 C5307 0.951 . S
H5284 C5309 0.951 . S
H5285 C5311 0.950 . S
H5286 C5312 0.950 . S
H5287 C5314 0.950 . S
H5288 C5317 0.950 . S
H5289 C5318 0.950 . S
H5290 C5320 0.950 . S
H5291 C5321 0.950 . S
C5292 H5274 0.951 . S
C5292 C5293 1.366 . S
C5292 C5294 1.388 . S
C5293 C5292 1.366 . S
C5293 C5297 1.385 . S
C5294 H5275 0.951 . S
C5294 C5292 1.388 . S
C5294 C5295 1.366 . S
C5295 C5294 1.366 . S
C5295 C5296 1.414 . S
C5295 C5298 1.499 . S
C5296 H5276 0.950 . S
C5296 C5295 1.414 . S
C5296 C5297 1.374 . S
C5297 H5277 0.950 . S
C5297 C5293 1.385 . S
C5297 C5296 1.374 . S
C5298 C5295 1.499 . S
C5298 C5299 1.373 . S
C5298 C5300 1.389 . S
C5299 H5278 0.950 . S
C5299 C5298 1.373 . S
C5299 C5315 1.377 . S
C5300 C5298 1.389 . S
C5300 C5301 1.524 . S
C5300 C5314 1.377 . S
C5301 C5300 1.524 . S
C5301 C5302 1.397 . S
C5301 C5306 1.363 . S
C5302 H5279 0.950 . S
C5302 C5301 1.397 . S
C5302 C5303 1.334 . S
C5303 H5280 0.950 . S
C5303 C5302 1.334 . S
C5303 C5304 1.287 . S
C5304 C5303 1.287 . S
C5304 C5305 1.524 . S
C5304 H5323 0.913 . S
C5305 H5281 0.950 . S
C5305 C5304 1.524 . S
C5305 C5306 1.415 . S
C5306 H5282 0.950 . S
C5306 C5301 1.363 . S
C5306 C5305 1.415 . S
C5307 H5283 0.951 . S
C5307 C5308 1.366 . S
C5307 C5309 1.388 . S
C5308 C5307 1.366 . S
C5308 C5312 1.385 . S
C5309 H5284 0.951 . S
C5309 C5307 1.388 . S
C5309 C5310 1.366 . S
C5310 C5309 1.366 . S
C5310 C5311 1.414 . S
C5310 C5313 1.499 . S
C5311 H5285 0.950 . S
C5311 C5310 1.414 . S
C5311 C5312 1.374 . S
C5312 H5286 0.950 . S
C5312 C5308 1.385 . S
C5312 C5311 1.374 . S
C5313 C5310 1.499 . S
C5313 C5314 1.373 . S
C5313 C5315 1.389 . S
C5314 H5287 0.950 . S
C5314 C5300 1.377 . S
C5314 C5313 1.373 . S
C5315 C5299 1.377 . S
C5315 C5313 1.389 . S
C5315 C5316 1.524 . S
C5316 C5315 1.524 . S
C5316 C5317 1.397 . S
C5316 C5321 1.363 . S
C5317 H5288 0.950 . S
C5317 C5316 1.397 . S
C5317 C5318 1.334 . S
C5318 H5289 0.950 . S
C5318 C5317 1.334 . S
C5318 C5319 1.287 . S
C5319 C5318 1.287 . S
C5319 C5320 1.524 . S
C5319 H5322 0.999 . S
C5320 H5290 0.950 . S
C5320 C5319 1.524 . S
C5320 C5321 1.415 . S
C5321 H5291 0.950 . S
C5321 C5316 1.363 . S
C5321 C5320 1.415 . S
H5322 C5319 0.999 . S
H5323 C5304 0.913 . S
H5324 C5342 0.951 . S
H5325 C5344 0.951 . S
H5326 C5346 0.950 . S
H5327 C5347 0.950 . S
H5328 C5349 0.950 . S
H5329 C5352 0.950 . S
H5330 C5353 0.950 . S
H5331 C5355 0.950 . S
H5332 C5356 0.950 . S
H5333 C5357 0.951 . S
H5334 C5359 0.951 . S
H5335 C5361 0.950 . S
H5336 C5362 0.950 . S
H5337 C5364 0.950 . S
H5338 C5367 0.950 . S
H5339 C5368 0.950 . S
H5340 C5370 0.950 . S
H5341 C5371 0.950 . S
C5342 H5324 0.951 . S
C5342 C5343 1.366 . S
C5342 C5344 1.388 . S
C5343 C5342 1.366 . S
C5343 C5347 1.385 . S
C5344 H5325 0.951 . S
C5344 C5342 1.388 . S
C5344 C5345 1.366 . S
C5345 C5344 1.366 . S
C5345 C5346 1.414 . S
C5345 C5348 1.499 . S
C5346 H5326 0.950 . S
C5346 C5345 1.414 . S
C5346 C5347 1.374 . S
C5347 H5327 0.950 . S
C5347 C5343 1.385 . S
C5347 C5346 1.374 . S
C5348 C5345 1.499 . S
C5348 C5349 1.373 . S
C5348 C5350 1.389 . S
C5349 H5328 0.950 . S
C5349 C5348 1.373 . S
C5349 C5365 1.377 . S
C5350 C5348 1.389 . S
C5350 C5351 1.524 . S
C5350 C5364 1.377 . S
C5351 C5350 1.524 . S
C5351 C5352 1.397 . S
C5351 C5356 1.363 . S
C5352 H5329 0.950 . S
C5352 C5351 1.397 . S
C5352 C5353 1.334 . S
C5353 H5330 0.950 . S
C5353 C5352 1.334 . S
C5353 C5354 1.287 . S
C5354 C5353 1.287 . S
C5354 C5355 1.524 . S
C5354 H5373 0.913 . S
C5355 H5331 0.950 . S
C5355 C5354 1.524 . S
C5355 C5356 1.415 . S
C5356 H5332 0.950 . S
C5356 C5351 1.363 . S
C5356 C5355 1.415 . S
C5357 H5333 0.951 . S
C5357 C5358 1.366 . S
C5357 C5359 1.388 . S
C5358 C5357 1.366 . S
C5358 C5362 1.385 . S
C5359 H5334 0.951 . S
C5359 C5357 1.388 . S
C5359 C5360 1.366 . S
C5360 C5359 1.366 . S
C5360 C5361 1.414 . S
C5360 C5363 1.499 . S
C5361 H5335 0.950 . S
C5361 C5360 1.414 . S
C5361 C5362 1.374 . S
C5362 H5336 0.950 . S
C5362 C5358 1.385 . S
C5362 C5361 1.374 . S
C5363 C5360 1.499 . S
C5363 C5364 1.373 . S
C5363 C5365 1.389 . S
C5364 H5337 0.950 . S
C5364 C5350 1.377 . S
C5364 C5363 1.373 . S
C5365 C5349 1.377 . S
C5365 C5363 1.389 . S
C5365 C5366 1.524 . S
C5366 C5365 1.524 . S
C5366 C5367 1.397 . S
C5366 C5371 1.363 . S
C5367 H5338 0.950 . S
C5367 C5366 1.397 . S
C5367 C5368 1.334 . S
C5368 H5339 0.950 . S
C5368 C5367 1.334 . S
C5368 C5369 1.287 . S
C5369 C5368 1.287 . S
C5369 C5370 1.524 . S
C5369 H5372 0.999 . S
C5370 H5340 0.950 . S
C5370 C5369 1.524 . S
C5370 C5371 1.415 . S
C5371 H5341 0.950 . S
C5371 C5366 1.363 . S
C5371 C5370 1.415 . S
H5372 C5369 0.999 . S
H5373 C5354 0.913 . S
H5374 C5392 0.951 . S
H5375 C5394 0.951 . S
H5376 C5396 0.950 . S
H5377 C5397 0.950 . S
H5378 C5399 0.950 . S
H5379 C5402 0.950 . S
H5380 C5403 0.950 . S
H5381 C5405 0.950 . S
H5382 C5406 0.950 . S
H5383 C5407 0.951 . S
H5384 C5409 0.951 . S
H5385 C5411 0.950 . S
H5386 C5412 0.950 . S
H5387 C5414 0.950 . S
H5388 C5417 0.950 . S
H5389 C5418 0.950 . S
H5390 C5420 0.950 . S
H5391 C5421 0.950 . S
C5392 H5374 0.951 . S
C5392 C5393 1.366 . S
C5392 C5394 1.388 . S
C5393 C5392 1.366 . S
C5393 C5397 1.385 . S
C5394 H5375 0.951 . S
C5394 C5392 1.388 . S
C5394 C5395 1.366 . S
C5395 C5394 1.366 . S
C5395 C5396 1.414 . S
C5395 C5398 1.499 . S
C5396 H5376 0.950 . S
C5396 C5395 1.414 . S
C5396 C5397 1.374 . S
C5397 H5377 0.950 . S
C5397 C5393 1.385 . S
C5397 C5396 1.374 . S
C5398 C5395 1.499 . S
C5398 C5399 1.373 . S
C5398 C5400 1.389 . S
C5399 H5378 0.950 . S
C5399 C5398 1.373 . S
C5399 C5415 1.377 . S
C5400 C5398 1.389 . S
C5400 C5401 1.524 . S
C5400 C5414 1.377 . S
C5401 C5400 1.524 . S
C5401 C5402 1.397 . S
C5401 C5406 1.363 . S
C5402 H5379 0.950 . S
C5402 C5401 1.397 . S
C5402 C5403 1.334 . S
C5403 H5380 0.950 . S
C5403 C5402 1.334 . S
C5403 C5404 1.287 . S
C5404 C5403 1.287 . S
C5404 C5405 1.524 . S
C5404 H5423 0.913 . S
C5405 H5381 0.950 . S
C5405 C5404 1.524 . S
C5405 C5406 1.415 . S
C5406 H5382 0.950 . S
C5406 C5401 1.363 . S
C5406 C5405 1.415 . S
C5407 H5383 0.951 . S
C5407 C5408 1.366 . S
C5407 C5409 1.388 . S
C5408 C5407 1.366 . S
C5408 C5412 1.385 . S
C5409 H5384 0.951 . S
C5409 C5407 1.388 . S
C5409 C5410 1.366 . S
C5410 C5409 1.366 . S
C5410 C5411 1.414 . S
C5410 C5413 1.499 . S
C5411 H5385 0.950 . S
C5411 C5410 1.414 . S
C5411 C5412 1.374 . S
C5412 H5386 0.950 . S
C5412 C5408 1.385 . S
C5412 C5411 1.374 . S
C5413 C5410 1.499 . S
C5413 C5414 1.373 . S
C5413 C5415 1.389 . S
C5414 H5387 0.950 . S
C5414 C5400 1.377 . S
C5414 C5413 1.373 . S
C5415 C5399 1.377 . S
C5415 C5413 1.389 . S
C5415 C5416 1.524 . S
C5416 C5415 1.524 . S
C5416 C5417 1.397 . S
C5416 C5421 1.363 . S
C5417 H5388 0.950 . S
C5417 C5416 1.397 . S
C5417 C5418 1.334 . S
C5418 H5389 0.950 . S
C5418 C5417 1.334 . S
C5418 C5419 1.287 . S
C5419 C5418 1.287 . S
C5419 C5420 1.524 . S
C5419 H5422 0.999 . S
C5420 H5390 0.950 . S
C5420 C5419 1.524 . S
C5420 C5421 1.415 . S
C5421 H5391 0.950 . S
C5421 C5416 1.363 . S
C5421 C5420 1.415 . S
H5422 C5419 0.999 . S
H5423 C5404 0.913 . S
H5424 C5442 0.951 . S
H5425 C5444 0.951 . S
H5426 C5446 0.950 . S
H5427 C5447 0.950 . S
H5428 C5449 0.950 . S
H5429 C5452 0.950 . S
H5430 C5453 0.950 . S
H5431 C5455 0.950 . S
H5432 C5456 0.950 . S
H5433 C5457 0.951 . S
H5434 C5459 0.951 . S
H5435 C5461 0.950 . S
H5436 C5462 0.950 . S
H5437 C5464 0.950 . S
H5438 C5467 0.950 . S
H5439 C5468 0.950 . S
H5440 C5470 0.950 . S
H5441 C5471 0.950 . S
C5442 H5424 0.951 . S
C5442 C5443 1.366 1_545 S
C5442 C5444 1.388 . S
C5443 C5442 1.366 1_565 S
C5443 C5447 1.385 . S
C5444 H5425 0.951 . S
C5444 C5442 1.388 . S
C5444 C5445 1.366 . S
C5445 C5444 1.366 . S
C5445 C5446 1.414 1_545 S
C5445 C5448 1.499 . S
C5446 H5426 0.950 . S
C5446 C5445 1.414 1_565 S
C5446 C5447 1.374 . S
C5447 H5427 0.950 . S
C5447 C5443 1.385 . S
C5447 C5446 1.374 . S
C5448 C5445 1.499 . S
C5448 C5449 1.373 . S
C5448 C5450 1.389 . S
C5449 H5428 0.950 . S
C5449 C5448 1.373 . S
C5449 C5465 1.377 . S
C5450 C5448 1.389 . S
C5450 C5451 1.524 . S
C5450 C5464 1.377 . S
C5451 C5450 1.524 . S
C5451 C5452 1.397 . S
C5451 C5456 1.363 . S
C5452 H5429 0.950 . S
C5452 C5451 1.397 . S
C5452 C5453 1.334 . S
C5453 H5430 0.950 . S
C5453 C5452 1.334 . S
C5453 C5454 1.287 . S
C5454 C5453 1.287 . S
C5454 C5455 1.524 . S
C5454 H5473 0.913 . S
C5455 H5431 0.950 . S
C5455 C5454 1.524 . S
C5455 C5456 1.415 . S
C5456 H5432 0.950 . S
C5456 C5451 1.363 . S
C5456 C5455 1.415 . S
C5457 H5433 0.951 . S
C5457 C5458 1.366 . S
C5457 C5459 1.388 . S
C5458 C5457 1.366 . S
C5458 C5462 1.385 . S
C5459 H5434 0.951 . S
C5459 C5457 1.388 . S
C5459 C5460 1.366 . S
C5460 C5459 1.366 . S
C5460 C5461 1.414 . S
C5460 C5463 1.499 . S
C5461 H5435 0.950 . S
C5461 C5460 1.414 . S
C5461 C5462 1.374 . S
C5462 H5436 0.950 . S
C5462 C5458 1.385 . S
C5462 C5461 1.374 . S
C5463 C5460 1.499 . S
C5463 C5464 1.373 . S
C5463 C5465 1.389 . S
C5464 H5437 0.950 . S
C5464 C5450 1.377 . S
C5464 C5463 1.373 . S
C5465 C5449 1.377 . S
C5465 C5463 1.389 . S
C5465 C5466 1.524 . S
C5466 C5465 1.524 . S
C5466 C5467 1.397 . S
C5466 C5471 1.363 . S
C5467 H5438 0.950 . S
C5467 C5466 1.397 . S
C5467 C5468 1.334 . S
C5468 H5439 0.950 . S
C5468 C5467 1.334 . S
C5468 C5469 1.287 . S
C5469 C5468 1.287 . S
C5469 C5470 1.524 . S
C5469 H5472 0.999 . S
C5470 H5440 0.950 . S
C5470 C5469 1.524 . S
C5470 C5471 1.415 . S
C5471 H5441 0.950 . S
C5471 C5466 1.363 . S
C5471 C5470 1.415 . S
H5472 C5469 0.999 . S
H5473 C5454 0.913 . S
H5474 C5492 0.951 . S
H5475 C5494 0.951 . S
H5476 C5496 0.950 . S
H5477 C5497 0.950 . S
H5478 C5499 0.950 . S
H5479 C5502 0.950 . S
H5480 C5503 0.950 . S
H5481 C5505 0.950 . S
H5482 C5506 0.950 . S
H5483 C5507 0.951 . S
H5484 C5509 0.951 . S
H5485 C5511 0.950 . S
H5486 C5512 0.950 . S
H5487 C5514 0.950 . S
H5488 C5517 0.950 . S
H5489 C5518 0.950 . S
H5490 C5520 0.950 . S
H5491 C5521 0.950 . S
C5492 H5474 0.951 . S
C5492 C5493 1.366 . S
C5492 C5494 1.388 . S
C5493 C5492 1.366 . S
C5493 C5497 1.385 . S
C5494 H5475 0.951 . S
C5494 C5492 1.388 . S
C5494 C5495 1.366 . S
C5495 C5494 1.366 . S
C5495 C5496 1.414 . S
C5495 C5498 1.499 . S
C5496 H5476 0.950 . S
C5496 C5495 1.414 . S
C5496 C5497 1.374 . S
C5497 H5477 0.950 . S
C5497 C5493 1.385 . S
C5497 C5496 1.374 . S
C5498 C5495 1.499 . S
C5498 C5499 1.373 1_455 S
C5498 C5500 1.389 . S
C5499 H5478 0.950 . S
C5499 C5498 1.373 1_655 S
C5499 C5515 1.377 . S
C5500 C5498 1.389 . S
C5500 C5501 1.524 . S
C5500 C5514 1.377 1_455 S
C5501 C5500 1.524 . S
C5501 C5502 1.397 . S
C5501 C5506 1.363 . S
C5502 H5479 0.950 . S
C5502 C5501 1.397 . S
C5502 C5503 1.334 . S
C5503 H5480 0.950 . S
C5503 C5502 1.334 . S
C5503 C5504 1.287 . S
C5504 C5503 1.287 . S
C5504 C5505 1.524 . S
C5504 H5523 0.913 . S
C5505 H5481 0.950 . S
C5505 C5504 1.524 . S
C5505 C5506 1.415 . S
C5506 H5482 0.950 . S
C5506 C5501 1.363 . S
C5506 C5505 1.415 . S
C5507 H5483 0.951 . S
C5507 C5508 1.366 . S
C5507 C5509 1.388 . S
C5508 C5507 1.366 . S
C5508 C5512 1.385 . S
C5509 H5484 0.951 . S
C5509 C5507 1.388 . S
C5509 C5510 1.366 . S
C5510 C5509 1.366 . S
C5510 C5511 1.414 . S
C5510 C5513 1.499 . S
C5511 H5485 0.950 . S
C5511 C5510 1.414 . S
C5511 C5512 1.374 . S
C5512 H5486 0.950 . S
C5512 C5508 1.385 . S
C5512 C5511 1.374 . S
C5513 C5510 1.499 . S
C5513 C5514 1.373 . S
C5513 C5515 1.389 . S
C5514 H5487 0.950 . S
C5514 C5500 1.377 1_655 S
C5514 C5513 1.373 . S
C5515 C5499 1.377 . S
C5515 C5513 1.389 . S
C5515 C5516 1.524 . S
C5516 C5515 1.524 . S
C5516 C5517 1.397 . S
C5516 C5521 1.363 . S
C5517 H5488 0.950 . S
C5517 C5516 1.397 . S
C5517 C5518 1.334 . S
C5518 H5489 0.950 . S
C5518 C5517 1.334 . S
C5518 C5519 1.287 . S
C5519 C5518 1.287 . S
C5519 C5520 1.524 . S
C5519 H5522 0.999 . S
C5520 H5490 0.950 . S
C5520 C5519 1.524 . S
C5520 C5521 1.415 . S
C5521 H5491 0.950 . S
C5521 C5516 1.363 . S
C5521 C5520 1.415 . S
H5522 C5519 0.999 . S
H5523 C5504 0.913 . S
H5524 C5542 0.951 . S
H5525 C5544 0.951 . S
H5526 C5546 0.950 . S
H5527 C5547 0.950 . S
H5528 C5549 0.950 . S
H5529 C5552 0.950 . S
H5530 C5553 0.950 . S
H5531 C5555 0.950 . S
H5532 C5556 0.950 . S
H5533 C5557 0.951 . S
H5534 C5559 0.951 . S
H5535 C5561 0.950 . S
H5536 C5562 0.950 . S
H5537 C5564 0.950 . S
H5538 C5567 0.950 . S
H5539 C5568 0.950 . S
H5540 C5570 0.950 . S
H5541 C5571 0.950 . S
C5542 H5524 0.951 . S
C5542 C5543 1.366 . S
C5542 C5544 1.388 . S
C5543 C5542 1.366 . S
C5543 C5547 1.385 . S
C5544 H5525 0.951 . S
C5544 C5542 1.388 . S
C5544 C5545 1.366 . S
C5545 C5544 1.366 . S
C5545 C5546 1.414 . S
C5545 C5548 1.499 . S
C5546 H5526 0.950 . S
C5546 C5545 1.414 . S
C5546 C5547 1.374 . S
C5547 H5527 0.950 . S
C5547 C5543 1.385 . S
C5547 C5546 1.374 . S
C5548 C5545 1.499 . S
C5548 C5549 1.373 . S
C5548 C5550 1.389 . S
C5549 H5528 0.950 . S
C5549 C5548 1.373 . S
C5549 C5565 1.377 . S
C5550 C5548 1.389 . S
C5550 C5551 1.524 . S
C5550 C5564 1.377 . S
C5551 C5550 1.524 . S
C5551 C5552 1.397 . S
C5551 C5556 1.363 . S
C5552 H5529 0.950 . S
C5552 C5551 1.397 . S
C5552 C5553 1.334 . S
C5553 H5530 0.950 . S
C5553 C5552 1.334 . S
C5553 C5554 1.287 . S
C5554 C5553 1.287 . S
C5554 C5555 1.524 . S
C5554 H5573 0.913 . S
C5555 H5531 0.950 . S
C5555 C5554 1.524 . S
C5555 C5556 1.415 . S
C5556 H5532 0.950 . S
C5556 C5551 1.363 . S
C5556 C5555 1.415 . S
C5557 H5533 0.951 . S
C5557 C5558 1.366 . S
C5557 C5559 1.388 1_455 S
C5558 C5557 1.366 . S
C5558 C5562 1.385 . S
C5559 H5534 0.951 . S
C5559 C5557 1.388 1_655 S
C5559 C5560 1.366 . S
C5560 C5559 1.366 . S
C5560 C5561 1.414 . S
C5560 C5563 1.499 . S
C5561 H5535 0.950 . S
C5561 C5560 1.414 . S
C5561 C5562 1.374 1_655 S
C5562 H5536 0.950 . S
C5562 C5558 1.385 . S
C5562 C5561 1.374 1_455 S
C5563 C5560 1.499 . S
C5563 C5564 1.373 . S
C5563 C5565 1.389 . S
C5564 H5537 0.950 . S
C5564 C5550 1.377 . S
C5564 C5563 1.373 . S
C5565 C5549 1.377 . S
C5565 C5563 1.389 . S
C5565 C5566 1.524 . S
C5566 C5565 1.524 . S
C5566 C5567 1.397 . S
C5566 C5571 1.363 . S
C5567 H5538 0.950 . S
C5567 C5566 1.397 . S
C5567 C5568 1.334 . S
C5568 H5539 0.950 . S
C5568 C5567 1.334 . S
C5568 C5569 1.287 . S
C5569 C5568 1.287 . S
C5569 C5570 1.524 . S
C5569 H5572 0.999 . S
C5570 H5540 0.950 . S
C5570 C5569 1.524 . S
C5570 C5571 1.415 . S
C5571 H5541 0.950 . S
C5571 C5566 1.363 . S
C5571 C5570 1.415 . S
H5572 C5569 0.999 . S
H5573 C5554 0.913 . S
H5574 C5592 0.951 . S
H5575 C5594 0.951 . S
H5576 C5596 0.950 . S
H5577 C5597 0.950 . S
H5578 C5599 0.950 . S
H5579 C5602 0.950 . S
H5580 C5603 0.950 . S
H5581 C5605 0.950 . S
H5582 C5606 0.950 . S
H5583 C5607 0.951 . S
H5584 C5609 0.951 . S
H5585 C5611 0.950 . S
H5586 C5612 0.950 . S
H5587 C5614 0.950 . S
H5588 C5617 0.950 . S
H5589 C5618 0.950 . S
H5590 C5620 0.950 . S
H5591 C5621 0.950 . S
C5592 H5574 0.951 . S
C5592 C5593 1.366 . S
C5592 C5594 1.388 . S
C5593 C5592 1.366 . S
C5593 C5597 1.385 . S
C5594 H5575 0.951 . S
C5594 C5592 1.388 . S
C5594 C5595 1.366 . S
C5595 C5594 1.366 . S
C5595 C5596 1.414 . S
C5595 C5598 1.499 . S
C5596 H5576 0.950 . S
C5596 C5595 1.414 . S
C5596 C5597 1.374 . S
C5597 H5577 0.950 . S
C5597 C5593 1.385 . S
C5597 C5596 1.374 . S
C5598 C5595 1.499 . S
C5598 C5599 1.373 . S
C5598 C5600 1.389 . S
C5599 H5578 0.950 . S
C5599 C5598 1.373 . S
C5599 C5615 1.377 . S
C5600 C5598 1.389 . S
C5600 C5601 1.524 . S
C5600 C5614 1.377 . S
C5601 C5600 1.524 . S
C5601 C5602 1.397 . S
C5601 C5606 1.363 . S
C5602 H5579 0.950 . S
C5602 C5601 1.397 . S
C5602 C5603 1.334 . S
C5603 H5580 0.950 . S
C5603 C5602 1.334 . S
C5603 C5604 1.287 . S
C5604 C5603 1.287 . S
C5604 C5605 1.524 . S
C5604 H5623 0.913 . S
C5605 H5581 0.950 . S
C5605 C5604 1.524 . S
C5605 C5606 1.415 . S
C5606 H5582 0.950 . S
C5606 C5601 1.363 . S
C5606 C5605 1.415 . S
C5607 H5583 0.951 . S
C5607 C5608 1.366 . S
C5607 C5609 1.388 . S
C5608 C5607 1.366 . S
C5608 C5612 1.385 . S
C5609 H5584 0.951 . S
C5609 C5607 1.388 . S
C5609 C5610 1.366 . S
C5610 C5609 1.366 . S
C5610 C5611 1.414 . S
C5610 C5613 1.499 . S
C5611 H5585 0.950 . S
C5611 C5610 1.414 . S
C5611 C5612 1.374 . S
C5612 H5586 0.950 . S
C5612 C5608 1.385 . S
C5612 C5611 1.374 . S
C5613 C5610 1.499 . S
C5613 C5614 1.373 . S
C5613 C5615 1.389 . S
C5614 H5587 0.950 . S
C5614 C5600 1.377 . S
C5614 C5613 1.373 . S
C5615 C5599 1.377 . S
C5615 C5613 1.389 . S
C5615 C5616 1.524 . S
C5616 C5615 1.524 . S
C5616 C5617 1.397 . S
C5616 C5621 1.363 . S
C5617 H5588 0.950 . S
C5617 C5616 1.397 . S
C5617 C5618 1.334 . S
C5618 H5589 0.950 . S
C5618 C5617 1.334 . S
C5618 C5619 1.287 . S
C5619 C5618 1.287 . S
C5619 C5620 1.524 . S
C5619 H5622 0.999 . S
C5620 H5590 0.950 . S
C5620 C5619 1.524 . S
C5620 C5621 1.415 . S
C5621 H5591 0.950 . S
C5621 C5616 1.363 . S
C5621 C5620 1.415 . S
H5622 C5619 0.999 . S
H5623 C5604 0.913 . S
H5624 C5642 0.951 . S
H5625 C5644 0.951 . S
H5626 C5646 0.950 . S
H5627 C5647 0.950 . S
H5628 C5649 0.950 . S
H5629 C5652 0.950 . S
H5630 C5653 0.950 . S
H5631 C5655 0.950 . S
H5632 C5656 0.950 . S
H5633 C5657 0.951 . S
H5634 C5659 0.951 . S
H5635 C5661 0.950 . S
H5636 C5662 0.950 . S
H5637 C5664 0.950 . S
H5638 C5667 0.950 . S
H5639 C5668 0.950 . S
H5640 C5670 0.950 . S
H5641 C5671 0.950 . S
C5642 H5624 0.951 . S
C5642 C5643 1.366 . S
C5642 C5644 1.388 . S
C5643 C5642 1.366 . S
C5643 C5647 1.385 . S
C5644 H5625 0.951 . S
C5644 C5642 1.388 . S
C5644 C5645 1.366 . S
C5645 C5644 1.366 . S
C5645 C5646 1.414 . S
C5645 C5648 1.499 . S
C5646 H5626 0.950 . S
C5646 C5645 1.414 . S
C5646 C5647 1.374 . S
C5647 H5627 0.950 . S
C5647 C5643 1.385 . S
C5647 C5646 1.374 . S
C5648 C5645 1.499 . S
C5648 C5649 1.373 . S
C5648 C5650 1.389 . S
C5649 H5628 0.950 . S
C5649 C5648 1.373 . S
C5649 C5665 1.377 . S
C5650 C5648 1.389 . S
C5650 C5651 1.524 . S
C5650 C5664 1.377 . S
C5651 C5650 1.524 . S
C5651 C5652 1.397 . S
C5651 C5656 1.363 . S
C5652 H5629 0.950 . S
C5652 C5651 1.397 . S
C5652 C5653 1.334 . S
C5653 H5630 0.950 . S
C5653 C5652 1.334 . S
C5653 C5654 1.287 . S
C5654 C5653 1.287 . S
C5654 C5655 1.524 . S
C5654 H5673 0.913 . S
C5655 H5631 0.950 . S
C5655 C5654 1.524 . S
C5655 C5656 1.415 . S
C5656 H5632 0.950 . S
C5656 C5651 1.363 . S
C5656 C5655 1.415 . S
C5657 H5633 0.951 . S
C5657 C5658 1.366 . S
C5657 C5659 1.388 . S
C5658 C5657 1.366 . S
C5658 C5662 1.385 . S
C5659 H5634 0.951 . S
C5659 C5657 1.388 . S
C5659 C5660 1.366 . S
C5660 C5659 1.366 . S
C5660 C5661 1.414 . S
C5660 C5663 1.499 . S
C5661 H5635 0.950 . S
C5661 C5660 1.414 . S
C5661 C5662 1.374 . S
C5662 H5636 0.950 . S
C5662 C5658 1.385 . S
C5662 C5661 1.374 . S
C5663 C5660 1.499 . S
C5663 C5664 1.373 . S
C5663 C5665 1.389 . S
C5664 H5637 0.950 . S
C5664 C5650 1.377 . S
C5664 C5663 1.373 . S
C5665 C5649 1.377 . S
C5665 C5663 1.389 . S
C5665 C5666 1.524 . S
C5666 C5665 1.524 . S
C5666 C5667 1.397 . S
C5666 C5671 1.363 . S
C5667 H5638 0.950 . S
C5667 C5666 1.397 . S
C5667 C5668 1.334 . S
C5668 H5639 0.950 . S
C5668 C5667 1.334 . S
C5668 C5669 1.287 . S
C5669 C5668 1.287 . S
C5669 C5670 1.524 . S
C5669 H5672 0.999 . S
C5670 H5640 0.950 . S
C5670 C5669 1.524 . S
C5670 C5671 1.415 . S
C5671 H5641 0.950 . S
C5671 C5666 1.363 . S
C5671 C5670 1.415 . S
H5672 C5669 0.999 . S
H5673 C5654 0.913 . S
H5674 C5692 0.951 . S
H5675 C5694 0.951 . S
H5676 C5696 0.950 . S
H5677 C5697 0.950 . S
H5678 C5699 0.950 . S
H5679 C5702 0.950 . S
H5680 C5703 0.950 . S
H5681 C5705 0.950 . S
H5682 C5706 0.950 . S
H5683 C5707 0.951 . S
H5684 C5709 0.951 . S
H5685 C5711 0.950 . S
H5686 C5712 0.950 . S
H5687 C5714 0.950 . S
H5688 C5717 0.950 . S
H5689 C5718 0.950 . S
H5690 C5720 0.950 . S
H5691 C5721 0.950 . S
C5692 H5674 0.951 . S
C5692 C5693 1.366 . S
C5692 C5694 1.388 . S
C5693 C5692 1.366 . S
C5693 C5697 1.385 . S
C5694 H5675 0.951 . S
C5694 C5692 1.388 . S
C5694 C5695 1.366 . S
C5695 C5694 1.366 . S
C5695 C5696 1.414 . S
C5695 C5698 1.499 . S
C5696 H5676 0.950 . S
C5696 C5695 1.414 . S
C5696 C5697 1.374 . S
C5697 H5677 0.950 . S
C5697 C5693 1.385 . S
C5697 C5696 1.374 . S
C5698 C5695 1.499 . S
C5698 C5699 1.373 . S
C5698 C5700 1.389 . S
C5699 H5678 0.950 . S
C5699 C5698 1.373 . S
C5699 C5715 1.377 . S
C5700 C5698 1.389 . S
C5700 C5701 1.524 . S
C5700 C5714 1.377 . S
C5701 C5700 1.524 . S
C5701 C5702 1.397 . S
C5701 C5706 1.363 . S
C5702 H5679 0.950 . S
C5702 C5701 1.397 . S
C5702 C5703 1.334 . S
C5703 H5680 0.950 . S
C5703 C5702 1.334 . S
C5703 C5704 1.287 . S
C5704 C5703 1.287 . S
C5704 C5705 1.524 . S
C5704 H5723 0.913 . S
C5705 H5681 0.950 . S
C5705 C5704 1.524 . S
C5705 C5706 1.415 . S
C5706 H5682 0.950 . S
C5706 C5701 1.363 . S
C5706 C5705 1.415 . S
C5707 H5683 0.951 . S
C5707 C5708 1.366 . S
C5707 C5709 1.388 . S
C5708 C5707 1.366 . S
C5708 C5712 1.385 . S
C5709 H5684 0.951 . S
C5709 C5707 1.388 . S
C5709 C5710 1.366 . S
C5710 C5709 1.366 . S
C5710 C5711 1.414 . S
C5710 C5713 1.499 . S
C5711 H5685 0.950 . S
C5711 C5710 1.414 . S
C5711 C5712 1.374 . S
C5712 H5686 0.950 . S
C5712 C5708 1.385 . S
C5712 C5711 1.374 . S
C5713 C5710 1.499 . S
C5713 C5714 1.373 . S
C5713 C5715 1.389 . S
C5714 H5687 0.950 . S
C5714 C5700 1.377 . S
C5714 C5713 1.373 . S
C5715 C5699 1.377 . S
C5715 C5713 1.389 . S
C5715 C5716 1.524 . S
C5716 C5715 1.524 . S
C5716 C5717 1.397 . S
C5716 C5721 1.363 . S
C5717 H5688 0.950 . S
C5717 C5716 1.397 . S
C5717 C5718 1.334 . S
C5718 H5689 0.950 . S
C5718 C5717 1.334 . S
C5718 C5719 1.287 . S
C5719 C5718 1.287 . S
C5719 C5720 1.524 . S
C5719 H5722 0.999 . S
C5720 H5690 0.950 . S
C5720 C5719 1.524 . S
C5720 C5721 1.415 . S
C5721 H5691 0.950 . S
C5721 C5716 1.363 . S
C5721 C5720 1.415 . S
H5722 C5719 0.999 . S
H5723 C5704 0.913 . S
H5724 C5742 0.951 . S
H5725 C5744 0.951 . S
H5726 C5746 0.950 . S
H5727 C5747 0.950 . S
H5728 C5749 0.950 . S
H5729 C5752 0.950 . S
H5730 C5753 0.950 . S
H5731 C5755 0.950 . S
H5732 C5756 0.950 . S
H5733 C5757 0.951 . S
H5734 C5759 0.951 . S
H5735 C5761 0.950 . S
H5736 C5762 0.950 . S
H5737 C5764 0.950 . S
H5738 C5767 0.950 . S
H5739 C5768 0.950 . S
H5740 C5770 0.950 . S
H5741 C5771 0.950 . S
C5742 H5724 0.951 . S
C5742 C5743 1.366 . S
C5742 C5744 1.388 . S
C5743 C5742 1.366 . S
C5743 C5747 1.385 . S
C5744 H5725 0.951 . S
C5744 C5742 1.388 . S
C5744 C5745 1.366 . S
C5745 C5744 1.366 . S
C5745 C5746 1.414 . S
C5745 C5748 1.499 . S
C5746 H5726 0.950 . S
C5746 C5745 1.414 . S
C5746 C5747 1.374 . S
C5747 H5727 0.950 . S
C5747 C5743 1.385 . S
C5747 C5746 1.374 . S
C5748 C5745 1.499 . S
C5748 C5749 1.373 . S
C5748 C5750 1.389 . S
C5749 H5728 0.950 . S
C5749 C5748 1.373 . S
C5749 C5765 1.377 . S
C5750 C5748 1.389 . S
C5750 C5751 1.524 . S
C5750 C5764 1.377 . S
C5751 C5750 1.524 . S
C5751 C5752 1.397 . S
C5751 C5756 1.363 . S
C5752 H5729 0.950 . S
C5752 C5751 1.397 . S
C5752 C5753 1.334 . S
C5753 H5730 0.950 . S
C5753 C5752 1.334 . S
C5753 C5754 1.287 . S
C5754 C5753 1.287 . S
C5754 C5755 1.524 . S
C5754 H5773 0.913 . S
C5755 H5731 0.950 . S
C5755 C5754 1.524 . S
C5755 C5756 1.415 . S
C5756 H5732 0.950 . S
C5756 C5751 1.363 . S
C5756 C5755 1.415 . S
C5757 H5733 0.951 . S
C5757 C5758 1.366 . S
C5757 C5759 1.388 . S
C5758 C5757 1.366 . S
C5758 C5762 1.385 . S
C5759 H5734 0.951 . S
C5759 C5757 1.388 . S
C5759 C5760 1.366 . S
C5760 C5759 1.366 . S
C5760 C5761 1.414 . S
C5760 C5763 1.499 . S
C5761 H5735 0.950 . S
C5761 C5760 1.414 . S
C5761 C5762 1.374 . S
C5762 H5736 0.950 . S
C5762 C5758 1.385 . S
C5762 C5761 1.374 . S
C5763 C5760 1.499 . S
C5763 C5764 1.373 . S
C5763 C5765 1.389 . S
C5764 H5737 0.950 . S
C5764 C5750 1.377 . S
C5764 C5763 1.373 . S
C5765 C5749 1.377 . S
C5765 C5763 1.389 . S
C5765 C5766 1.524 . S
C5766 C5765 1.524 . S
C5766 C5767 1.397 . S
C5766 C5771 1.363 . S
C5767 H5738 0.950 . S
C5767 C5766 1.397 . S
C5767 C5768 1.334 . S
C5768 H5739 0.950 . S
C5768 C5767 1.334 . S
C5768 C5769 1.287 . S
C5769 C5768 1.287 . S
C5769 C5770 1.524 . S
C5769 H5772 0.999 . S
C5770 H5740 0.950 . S
C5770 C5769 1.524 . S
C5770 C5771 1.415 . S
C5771 H5741 0.950 . S
C5771 C5766 1.363 . S
C5771 C5770 1.415 . S
H5772 C5769 0.999 . S
H5773 C5754 0.913 . S
H5774 C5792 0.951 . S
H5775 C5794 0.951 . S
H5776 C5796 0.950 . S
H5777 C5797 0.950 . S
H5778 C5799 0.950 . S
H5779 C5802 0.950 . S
H5780 C5803 0.950 . S
H5781 C5805 0.950 . S
H5782 C5806 0.950 . S
H5783 C5807 0.951 . S
H5784 C5809 0.951 . S
H5785 C5811 0.950 . S
H5786 C5812 0.950 . S
H5787 C5814 0.950 . S
H5788 C5817 0.950 . S
H5789 C5818 0.950 . S
H5790 C5820 0.950 . S
H5791 C5821 0.950 . S
C5792 H5774 0.951 . S
C5792 C5793 1.366 . S
C5792 C5794 1.388 . S
C5793 C5792 1.366 . S
C5793 C5797 1.385 . S
C5794 H5775 0.951 . S
C5794 C5792 1.388 . S
C5794 C5795 1.366 . S
C5795 C5794 1.366 . S
C5795 C5796 1.414 . S
C5795 C5798 1.499 . S
C5796 H5776 0.950 . S
C5796 C5795 1.414 . S
C5796 C5797 1.374 . S
C5797 H5777 0.950 . S
C5797 C5793 1.385 . S
C5797 C5796 1.374 . S
C5798 C5795 1.499 . S
C5798 C5799 1.373 . S
C5798 C5800 1.389 . S
C5799 H5778 0.950 . S
C5799 C5798 1.373 . S
C5799 C5815 1.377 . S
C5800 C5798 1.389 . S
C5800 C5801 1.524 . S
C5800 C5814 1.377 . S
C5801 C5800 1.524 . S
C5801 C5802 1.397 . S
C5801 C5806 1.363 . S
C5802 H5779 0.950 . S
C5802 C5801 1.397 . S
C5802 C5803 1.334 . S
C5803 H5780 0.950 . S
C5803 C5802 1.334 . S
C5803 C5804 1.287 . S
C5804 C5803 1.287 . S
C5804 C5805 1.524 . S
C5804 H5823 0.913 . S
C5805 H5781 0.950 . S
C5805 C5804 1.524 . S
C5805 C5806 1.415 . S
C5806 H5782 0.950 . S
C5806 C5801 1.363 . S
C5806 C5805 1.415 . S
C5807 H5783 0.951 . S
C5807 C5808 1.366 . S
C5807 C5809 1.388 . S
C5808 C5807 1.366 . S
C5808 C5812 1.385 . S
C5809 H5784 0.951 . S
C5809 C5807 1.388 . S
C5809 C5810 1.366 . S
C5810 C5809 1.366 . S
C5810 C5811 1.414 . S
C5810 C5813 1.499 . S
C5811 H5785 0.950 . S
C5811 C5810 1.414 . S
C5811 C5812 1.374 . S
C5812 H5786 0.950 . S
C5812 C5808 1.385 . S
C5812 C5811 1.374 . S
C5813 C5810 1.499 . S
C5813 C5814 1.373 . S
C5813 C5815 1.389 . S
C5814 H5787 0.950 . S
C5814 C5800 1.377 . S
C5814 C5813 1.373 . S
C5815 C5799 1.377 . S
C5815 C5813 1.389 . S
C5815 C5816 1.524 . S
C5816 C5815 1.524 . S
C5816 C5817 1.397 . S
C5816 C5821 1.363 . S
C5817 H5788 0.950 . S
C5817 C5816 1.397 . S
C5817 C5818 1.334 . S
C5818 H5789 0.950 . S
C5818 C5817 1.334 . S
C5818 C5819 1.287 . S
C5819 C5818 1.287 . S
C5819 C5820 1.524 . S
C5819 H5822 0.999 . S
C5820 H5790 0.950 . S
C5820 C5819 1.524 . S
C5820 C5821 1.415 . S
C5821 H5791 0.950 . S
C5821 C5816 1.363 . S
C5821 C5820 1.415 . S
H5822 C5819 0.999 . S
H5823 C5804 0.913 . S
H5824 C5842 0.951 . S
H5825 C5844 0.951 . S
H5826 C5846 0.950 . S
H5827 C5847 0.950 . S
H5828 C5849 0.950 . S
H5829 C5852 0.950 . S
H5830 C5853 0.950 . S
H5831 C5855 0.950 . S
H5832 C5856 0.950 . S
H5833 C5857 0.951 . S
H5834 C5859 0.951 . S
H5835 C5861 0.950 . S
H5836 C5862 0.950 . S
H5837 C5864 0.950 . S
H5838 C5867 0.950 . S
H5839 C5868 0.950 . S
H5840 C5870 0.950 . S
H5841 C5871 0.950 . S
C5842 H5824 0.951 . S
C5842 C5843 1.366 . S
C5842 C5844 1.388 . S
C5843 C5842 1.366 . S
C5843 C5847 1.385 . S
C5844 H5825 0.951 . S
C5844 C5842 1.388 . S
C5844 C5845 1.366 . S
C5845 C5844 1.366 . S
C5845 C5846 1.414 . S
C5845 C5848 1.499 . S
C5846 H5826 0.950 . S
C5846 C5845 1.414 . S
C5846 C5847 1.374 . S
C5847 H5827 0.950 . S
C5847 C5843 1.385 . S
C5847 C5846 1.374 . S
C5848 C5845 1.499 . S
C5848 C5849 1.373 . S
C5848 C5850 1.389 . S
C5849 H5828 0.950 . S
C5849 C5848 1.373 . S
C5849 C5865 1.377 . S
C5850 C5848 1.389 . S
C5850 C5851 1.524 . S
C5850 C5864 1.377 . S
C5851 C5850 1.524 . S
C5851 C5852 1.397 . S
C5851 C5856 1.363 . S
C5852 H5829 0.950 . S
C5852 C5851 1.397 . S
C5852 C5853 1.334 . S
C5853 H5830 0.950 . S
C5853 C5852 1.334 . S
C5853 C5854 1.287 . S
C5854 C5853 1.287 . S
C5854 C5855 1.524 . S
C5854 H5873 0.913 . S
C5855 H5831 0.950 . S
C5855 C5854 1.524 . S
C5855 C5856 1.415 . S
C5856 H5832 0.950 . S
C5856 C5851 1.363 . S
C5856 C5855 1.415 . S
C5857 H5833 0.951 . S
C5857 C5858 1.366 . S
C5857 C5859 1.388 . S
C5858 C5857 1.366 . S
C5858 C5862 1.385 . S
C5859 H5834 0.951 . S
C5859 C5857 1.388 . S
C5859 C5860 1.366 . S
C5860 C5859 1.366 . S
C5860 C5861 1.414 . S
C5860 C5863 1.499 . S
C5861 H5835 0.950 . S
C5861 C5860 1.414 . S
C5861 C5862 1.374 . S
C5862 H5836 0.950 . S
C5862 C5858 1.385 . S
C5862 C5861 1.374 . S
C5863 C5860 1.499 . S
C5863 C5864 1.373 . S
C5863 C5865 1.389 . S
C5864 H5837 0.950 . S
C5864 C5850 1.377 . S
C5864 C5863 1.373 . S
C5865 C5849 1.377 . S
C5865 C5863 1.389 . S
C5865 C5866 1.524 . S
C5866 C5865 1.524 . S
C5866 C5867 1.397 . S
C5866 C5871 1.363 . S
C5867 H5838 0.950 . S
C5867 C5866 1.397 . S
C5867 C5868 1.334 . S
C5868 H5839 0.950 . S
C5868 C5867 1.334 . S
C5868 C5869 1.287 . S
C5869 C5868 1.287 . S
C5869 C5870 1.524 . S
C5869 H5872 0.999 . S
C5870 H5840 0.950 . S
C5870 C5869 1.524 . S
C5870 C5871 1.415 . S
C5871 H5841 0.950 . S
C5871 C5866 1.363 . S
C5871 C5870 1.415 . S
H5872 C5869 0.999 . S
H5873 C5854 0.913 . S
H5874 C5892 0.951 . S
H5875 C5894 0.951 . S
H5876 C5896 0.950 . S
H5877 C5897 0.950 . S
H5878 C5899 0.950 . S
H5879 C5902 0.950 1_455 S
H5880 C5903 0.950 1_455 S
H5881 C5905 0.950 . S
H5882 C5906 0.950 . S
H5883 C5907 0.951 . S
H5884 C5909 0.951 . S
H5885 C5911 0.950 . S
H5886 C5912 0.950 . S
H5887 C5914 0.950 . S
H5888 C5917 0.950 . S
H5889 C5918 0.950 . S
H5890 C5920 0.950 . S
H5891 C5921 0.950 . S
C5892 H5874 0.951 . S
C5892 C5893 1.366 . S
C5892 C5894 1.388 . S
C5893 C5892 1.366 . S
C5893 C5897 1.385 . S
C5894 H5875 0.951 . S
C5894 C5892 1.388 . S
C5894 C5895 1.366 . S
C5895 C5894 1.366 . S
C5895 C5896 1.414 . S
C5895 C5898 1.499 . S
C5896 H5876 0.950 . S
C5896 C5895 1.414 . S
C5896 C5897 1.374 . S
C5897 H5877 0.950 . S
C5897 C5893 1.385 . S
C5897 C5896 1.374 . S
C5898 C5895 1.499 . S
C5898 C5899 1.373 . S
C5898 C5900 1.389 1_455 S
C5899 H5878 0.950 . S
C5899 C5898 1.373 . S
C5899 C5915 1.377 1_455 S
C5900 C5898 1.389 1_655 S
C5900 C5901 1.524 . S
C5900 C5914 1.377 . S
C5901 C5900 1.524 . S
C5901 C5902 1.397 . S
C5901 C5906 1.363 . S
C5902 H5879 0.950 1_655 S
C5902 C5901 1.397 . S
C5902 C5903 1.334 . S
C5903 H5880 0.950 1_655 S
C5903 C5902 1.334 . S
C5903 C5904 1.287 . S
C5904 C5903 1.287 . S
C5904 C5905 1.524 . S
C5904 H5923 0.913 . S
C5905 H5881 0.950 . S
C5905 C5904 1.524 . S
C5905 C5906 1.415 . S
C5906 H5882 0.950 . S
C5906 C5901 1.363 . S
C5906 C5905 1.415 . S
C5907 H5883 0.951 . S
C5907 C5908 1.366 . S
C5907 C5909 1.388 . S
C5908 C5907 1.366 . S
C5908 C5912 1.385 . S
C5909 H5884 0.951 . S
C5909 C5907 1.388 . S
C5909 C5910 1.366 . S
C5910 C5909 1.366 . S
C5910 C5911 1.414 . S
C5910 C5913 1.499 . S
C5911 H5885 0.950 . S
C5911 C5910 1.414 . S
C5911 C5912 1.374 . S
C5912 H5886 0.950 . S
C5912 C5908 1.385 . S
C5912 C5911 1.374 . S
C5913 C5910 1.499 . S
C5913 C5914 1.373 . S
C5913 C5915 1.389 . S
C5914 H5887 0.950 . S
C5914 C5900 1.377 . S
C5914 C5913 1.373 . S
C5915 C5899 1.377 1_655 S
C5915 C5913 1.389 . S
C5915 C5916 1.524 . S
C5916 C5915 1.524 . S
C5916 C5917 1.397 . S
C5916 C5921 1.363 1_655 S
C5917 H5888 0.950 . S
C5917 C5916 1.397 . S
C5917 C5918 1.334 . S
C5918 H5889 0.950 . S
C5918 C5917 1.334 . S
C5918 C5919 1.287 1_655 S
C5919 C5918 1.287 1_455 S
C5919 C5920 1.524 . S
C5919 H5922 0.999 . S
C5920 H5890 0.950 . S
C5920 C5919 1.524 . S
C5920 C5921 1.415 . S
C5921 H5891 0.950 . S
C5921 C5916 1.363 1_455 S
C5921 C5920 1.415 . S
H5922 C5919 0.999 . S
H5923 C5904 0.913 . S
H5924 C5942 0.951 . S
H5925 C5944 0.951 . S
H5926 C5946 0.950 . S
H5927 C5947 0.950 . S
H5928 C5949 0.950 . S
H5929 C5952 0.950 . S
H5930 C5953 0.950 . S
H5931 C5955 0.950 . S
H5932 C5956 0.950 . S
H5933 C5957 0.951 . S
H5934 C5959 0.951 . S
H5935 C5961 0.950 . S
H5936 C5962 0.950 . S
H5937 C5964 0.950 . S
H5938 C5967 0.950 . S
H5939 C5968 0.950 . S
H5940 C5970 0.950 . S
H5941 C5971 0.950 . S
C5942 H5924 0.951 . S
C5942 C5943 1.366 . S
C5942 C5944 1.388 . S
C5943 C5942 1.366 . S
C5943 C5947 1.385 . S
C5944 H5925 0.951 . S
C5944 C5942 1.388 . S
C5944 C5945 1.366 . S
C5945 C5944 1.366 . S
C5945 C5946 1.414 . S
C5945 C5948 1.499 . S
C5946 H5926 0.950 . S
C5946 C5945 1.414 . S
C5946 C5947 1.374 . S
C5947 H5927 0.950 . S
C5947 C5943 1.385 . S
C5947 C5946 1.374 . S
C5948 C5945 1.499 . S
C5948 C5949 1.373 . S
C5948 C5950 1.389 . S
C5949 H5928 0.950 . S
C5949 C5948 1.373 . S
C5949 C5965 1.377 . S
C5950 C5948 1.389 . S
C5950 C5951 1.524 . S
C5950 C5964 1.377 . S
C5951 C5950 1.524 . S
C5951 C5952 1.397 . S
C5951 C5956 1.363 . S
C5952 H5929 0.950 . S
C5952 C5951 1.397 . S
C5952 C5953 1.334 . S
C5953 H5930 0.950 . S
C5953 C5952 1.334 . S
C5953 C5954 1.287 . S
C5954 C5953 1.287 . S
C5954 C5955 1.524 . S
C5954 H5973 0.913 . S
C5955 H5931 0.950 . S
C5955 C5954 1.524 . S
C5955 C5956 1.415 . S
C5956 H5932 0.950 . S
C5956 C5951 1.363 . S
C5956 C5955 1.415 . S
C5957 H5933 0.951 . S
C5957 C5958 1.366 . S
C5957 C5959 1.388 . S
C5958 C5957 1.366 . S
C5958 C5962 1.385 . S
C5959 H5934 0.951 . S
C5959 C5957 1.388 . S
C5959 C5960 1.366 . S
C5960 C5959 1.366 . S
C5960 C5961 1.414 . S
C5960 C5963 1.499 . S
C5961 H5935 0.950 . S
C5961 C5960 1.414 . S
C5961 C5962 1.374 . S
C5962 H5936 0.950 . S
C5962 C5958 1.385 . S
C5962 C5961 1.374 . S
C5963 C5960 1.499 . S
C5963 C5964 1.373 . S
C5963 C5965 1.389 . S
C5964 H5937 0.950 . S
C5964 C5950 1.377 . S
C5964 C5963 1.373 . S
C5965 C5949 1.377 . S
C5965 C5963 1.389 . S
C5965 C5966 1.524 . S
C5966 C5965 1.524 . S
C5966 C5967 1.397 . S
C5966 C5971 1.363 . S
C5967 H5938 0.950 . S
C5967 C5966 1.397 . S
C5967 C5968 1.334 . S
C5968 H5939 0.950 . S
C5968 C5967 1.334 . S
C5968 C5969 1.287 . S
C5969 C5968 1.287 . S
C5969 C5970 1.524 . S
C5969 H5972 0.999 . S
C5970 H5940 0.950 . S
C5970 C5969 1.524 . S
C5970 C5971 1.415 . S
C5971 H5941 0.950 . S
C5971 C5966 1.363 . S
C5971 C5970 1.415 . S
H5972 C5969 0.999 . S
H5973 C5954 0.913 . S
H5974 C5992 0.951 . S
H5975 C5994 0.951 . S
H5976 C5996 0.950 . S
H5977 C5997 0.950 . S
H5978 C5999 0.950 . S
H5979 C6002 0.950 . S
H5980 C6003 0.950 . S
H5981 C6005 0.950 1_565 S
H5982 C6006 0.950 . S
H5983 C6007 0.951 . S
H5984 C6009 0.951 . S
H5985 C6011 0.950 . S
H5986 C6012 0.950 . S
H5987 C6014 0.950 . S
H5988 C6017 0.950 . S
H5989 C6018 0.950 . S
H5990 C6020 0.950 . S
H5991 C6021 0.950 . S
C5992 H5974 0.951 . S
C5992 C5993 1.366 . S
C5992 C5994 1.388 . S
C5993 C5992 1.366 . S
C5993 C5997 1.385 1_565 S
C5994 H5975 0.951 . S
C5994 C5992 1.388 . S
C5994 C5995 1.366 1_565 S
C5995 C5994 1.366 1_545 S
C5995 C5996 1.414 . S
C5995 C5998 1.499 . S
C5996 H5976 0.950 . S
C5996 C5995 1.414 . S
C5996 C5997 1.374 . S
C5997 H5977 0.950 . S
C5997 C5993 1.385 1_545 S
C5997 C5996 1.374 . S
C5998 C5995 1.499 . S
C5998 C5999 1.373 . S
C5998 C6000 1.389 . S
C5999 H5978 0.950 . S
C5999 C5998 1.373 . S
C5999 C6015 1.377 . S
C6000 C5998 1.389 . S
C6000 C6001 1.524 . S
C6000 C6014 1.377 . S
C6001 C6000 1.524 . S
C6001 C6002 1.397 . S
C6001 C6006 1.363 . S
C6002 H5979 0.950 . S
C6002 C6001 1.397 . S
C6002 C6003 1.334 . S
C6003 H5980 0.950 . S
C6003 C6002 1.334 . S
C6003 C6004 1.287 . S
C6004 C6003 1.287 . S
C6004 C6005 1.524 . S
C6004 H6023 0.913 1_545 S
C6005 H5981 0.950 1_545 S
C6005 C6004 1.524 . S
C6005 C6006 1.415 . S
C6006 H5982 0.950 . S
C6006 C6001 1.363 . S
C6006 C6005 1.415 . S
C6007 H5983 0.951 . S
C6007 C6008 1.366 . S
C6007 C6009 1.388 1_455 S
C6008 C6007 1.366 . S
C6008 C6012 1.385 . S
C6009 H5984 0.951 . S
C6009 C6007 1.388 1_655 S
C6009 C6010 1.366 . S
C6010 C6009 1.366 . S
C6010 C6011 1.414 . S
C6010 C6013 1.499 . S
C6011 H5985 0.950 . S
C6011 C6010 1.414 . S
C6011 C6012 1.374 1_655 S
C6012 H5986 0.950 . S
C6012 C6008 1.385 . S
C6012 C6011 1.374 1_455 S
C6013 C6010 1.499 . S
C6013 C6014 1.373 . S
C6013 C6015 1.389 . S
C6014 H5987 0.950 . S
C6014 C6000 1.377 . S
C6014 C6013 1.373 . S
C6015 C5999 1.377 . S
C6015 C6013 1.389 . S
C6015 C6016 1.524 . S
C6016 C6015 1.524 . S
C6016 C6017 1.397 . S
C6016 C6021 1.363 . S
C6017 H5988 0.950 . S
C6017 C6016 1.397 . S
C6017 C6018 1.334 . S
C6018 H5989 0.950 . S
C6018 C6017 1.334 . S
C6018 C6019 1.287 . S
C6019 C6018 1.287 . S
C6019 C6020 1.524 . S
C6019 H6022 0.999 . S
C6020 H5990 0.950 . S
C6020 C6019 1.524 . S
C6020 C6021 1.415 . S
C6021 H5991 0.950 . S
C6021 C6016 1.363 . S
C6021 C6020 1.415 . S
H6022 C6019 0.999 . S
H6023 C6004 0.913 1_565 S
H6024 C6042 0.951 . S
H6025 C6044 0.951 . S
H6026 C6046 0.950 . S
H6027 C6047 0.950 . S
H6028 C6049 0.950 . S
H6029 C6052 0.950 . S
H6030 C6053 0.950 . S
H6031 C6055 0.950 . S
H6032 C6056 0.950 . S
H6033 C6057 0.951 . S
H6034 C6059 0.951 . S
H6035 C6061 0.950 . S
H6036 C6062 0.950 . S
H6037 C6064 0.950 . S
H6038 C6067 0.950 . S
H6039 C6068 0.950 . S
H6040 C6070 0.950 . S
H6041 C6071 0.950 . S
C6042 H6024 0.951 . S
C6042 C6043 1.366 . S
C6042 C6044 1.388 . S
C6043 C6042 1.366 . S
C6043 C6047 1.385 . S
C6044 H6025 0.951 . S
C6044 C6042 1.388 . S
C6044 C6045 1.366 . S
C6045 C6044 1.366 . S
C6045 C6046 1.414 . S
C6045 C6048 1.499 . S
C6046 H6026 0.950 . S
C6046 C6045 1.414 . S
C6046 C6047 1.374 . S
C6047 H6027 0.950 . S
C6047 C6043 1.385 . S
C6047 C6046 1.374 . S
C6048 C6045 1.499 . S
C6048 C6049 1.373 . S
C6048 C6050 1.389 . S
C6049 H6028 0.950 . S
C6049 C6048 1.373 . S
C6049 C6065 1.377 . S
C6050 C6048 1.389 . S
C6050 C6051 1.524 . S
C6050 C6064 1.377 . S
C6051 C6050 1.524 . S
C6051 C6052 1.397 . S
C6051 C6056 1.363 . S
C6052 H6029 0.950 . S
C6052 C6051 1.397 . S
C6052 C6053 1.334 . S
C6053 H6030 0.950 . S
C6053 C6052 1.334 . S
C6053 C6054 1.287 . S
C6054 C6053 1.287 . S
C6054 C6055 1.524 . S
C6054 H6073 0.913 . S
C6055 H6031 0.950 . S
C6055 C6054 1.524 . S
C6055 C6056 1.415 . S
C6056 H6032 0.950 . S
C6056 C6051 1.363 . S
C6056 C6055 1.415 . S
C6057 H6033 0.951 . S
C6057 C6058 1.366 . S
C6057 C6059 1.388 . S
C6058 C6057 1.366 . S
C6058 C6062 1.385 . S
C6059 H6034 0.951 . S
C6059 C6057 1.388 . S
C6059 C6060 1.366 . S
C6060 C6059 1.366 . S
C6060 C6061 1.414 . S
C6060 C6063 1.499 . S
C6061 H6035 0.950 . S
C6061 C6060 1.414 . S
C6061 C6062 1.374 . S
C6062 H6036 0.950 . S
C6062 C6058 1.385 . S
C6062 C6061 1.374 . S
C6063 C6060 1.499 . S
C6063 C6064 1.373 . S
C6063 C6065 1.389 . S
C6064 H6037 0.950 . S
C6064 C6050 1.377 . S
C6064 C6063 1.373 . S
C6065 C6049 1.377 . S
C6065 C6063 1.389 . S
C6065 C6066 1.524 . S
C6066 C6065 1.524 . S
C6066 C6067 1.397 . S
C6066 C6071 1.363 . S
C6067 H6038 0.950 . S
C6067 C6066 1.397 . S
C6067 C6068 1.334 . S
C6068 H6039 0.950 . S
C6068 C6067 1.334 . S
C6068 C6069 1.287 . S
C6069 C6068 1.287 . S
C6069 C6070 1.524 . S
C6069 H6072 0.999 . S
C6070 H6040 0.950 . S
C6070 C6069 1.524 . S
C6070 C6071 1.415 . S
C6071 H6041 0.950 . S
C6071 C6066 1.363 . S
C6071 C6070 1.415 . S
H6072 C6069 0.999 . S
H6073 C6054 0.913 . S
H6074 C6092 0.951 . S
H6075 C6094 0.951 . S
H6076 C6096 0.950 . S
H6077 C6097 0.950 . S
H6078 C6099 0.950 . S
H6079 C6102 0.950 . S
H6080 C6103 0.950 . S
H6081 C6105 0.950 . S
H6082 C6106 0.950 . S
H6083 C6107 0.951 . S
H6084 C6109 0.951 . S
H6085 C6111 0.950 . S
H6086 C6112 0.950 . S
H6087 C6114 0.950 . S
H6088 C6117 0.950 . S
H6089 C6118 0.950 . S
H6090 C6120 0.950 . S
H6091 C6121 0.950 . S
C6092 H6074 0.951 . S
C6092 C6093 1.366 . S
C6092 C6094 1.388 . S
C6093 C6092 1.366 . S
C6093 C6097 1.385 . S
C6094 H6075 0.951 . S
C6094 C6092 1.388 . S
C6094 C6095 1.366 . S
C6095 C6094 1.366 . S
C6095 C6096 1.414 . S
C6095 C6098 1.499 . S
C6096 H6076 0.950 . S
C6096 C6095 1.414 . S
C6096 C6097 1.374 . S
C6097 H6077 0.950 . S
C6097 C6093 1.385 . S
C6097 C6096 1.374 . S
C6098 C6095 1.499 . S
C6098 C6099 1.373 . S
C6098 C6100 1.389 . S
C6099 H6078 0.950 . S
C6099 C6098 1.373 . S
C6099 C6115 1.377 . S
C6100 C6098 1.389 . S
C6100 C6101 1.524 . S
C6100 C6114 1.377 . S
C6101 C6100 1.524 . S
C6101 C6102 1.397 . S
C6101 C6106 1.363 . S
C6102 H6079 0.950 . S
C6102 C6101 1.397 . S
C6102 C6103 1.334 . S
C6103 H6080 0.950 . S
C6103 C6102 1.334 . S
C6103 C6104 1.287 . S
C6104 C6103 1.287 . S
C6104 C6105 1.524 . S
C6104 H6123 0.913 . S
C6105 H6081 0.950 . S
C6105 C6104 1.524 . S
C6105 C6106 1.415 . S
C6106 H6082 0.950 . S
C6106 C6101 1.363 . S
C6106 C6105 1.415 . S
C6107 H6083 0.951 . S
C6107 C6108 1.366 . S
C6107 C6109 1.388 . S
C6108 C6107 1.366 . S
C6108 C6112 1.385 . S
C6109 H6084 0.951 . S
C6109 C6107 1.388 . S
C6109 C6110 1.366 . S
C6110 C6109 1.366 . S
C6110 C6111 1.414 . S
C6110 C6113 1.499 . S
C6111 H6085 0.950 . S
C6111 C6110 1.414 . S
C6111 C6112 1.374 . S
C6112 H6086 0.950 . S
C6112 C6108 1.385 . S
C6112 C6111 1.374 . S
C6113 C6110 1.499 . S
C6113 C6114 1.373 . S
C6113 C6115 1.389 . S
C6114 H6087 0.950 . S
C6114 C6100 1.377 . S
C6114 C6113 1.373 . S
C6115 C6099 1.377 . S
C6115 C6113 1.389 . S
C6115 C6116 1.524 . S
C6116 C6115 1.524 . S
C6116 C6117 1.397 . S
C6116 C6121 1.363 . S
C6117 H6088 0.950 . S
C6117 C6116 1.397 . S
C6117 C6118 1.334 . S
C6118 H6089 0.950 . S
C6118 C6117 1.334 . S
C6118 C6119 1.287 . S
C6119 C6118 1.287 . S
C6119 C6120 1.524 . S
C6119 H6122 0.999 . S
C6120 H6090 0.950 . S
C6120 C6119 1.524 . S
C6120 C6121 1.415 . S
C6121 H6091 0.950 . S
C6121 C6116 1.363 . S
C6121 C6120 1.415 . S
H6122 C6119 0.999 . S
H6123 C6104 0.913 . S
H6124 C6142 0.951 . S
H6125 C6144 0.951 . S
H6126 C6146 0.950 . S
H6127 C6147 0.950 . S
H6128 C6149 0.950 . S
H6129 C6152 0.950 . S
H6130 C6153 0.950 . S
H6131 C6155 0.950 . S
H6132 C6156 0.950 . S
H6133 C6157 0.951 . S
H6134 C6159 0.951 . S
H6135 C6161 0.950 . S
H6136 C6162 0.950 . S
H6137 C6164 0.950 . S
H6138 C6167 0.950 . S
H6139 C6168 0.950 . S
H6140 C6170 0.950 . S
H6141 C6171 0.950 . S
C6142 H6124 0.951 . S
C6142 C6143 1.366 . S
C6142 C6144 1.388 . S
C6143 C6142 1.366 . S
C6143 C6147 1.385 . S
C6144 H6125 0.951 . S
C6144 C6142 1.388 . S
C6144 C6145 1.366 . S
C6145 C6144 1.366 . S
C6145 C6146 1.414 . S
C6145 C6148 1.499 . S
C6146 H6126 0.950 . S
C6146 C6145 1.414 . S
C6146 C6147 1.374 . S
C6147 H6127 0.950 . S
C6147 C6143 1.385 . S
C6147 C6146 1.374 . S
C6148 C6145 1.499 . S
C6148 C6149 1.373 . S
C6148 C6150 1.389 . S
C6149 H6128 0.950 . S
C6149 C6148 1.373 . S
C6149 C6165 1.377 . S
C6150 C6148 1.389 . S
C6150 C6151 1.524 . S
C6150 C6164 1.377 . S
C6151 C6150 1.524 . S
C6151 C6152 1.397 . S
C6151 C6156 1.363 . S
C6152 H6129 0.950 . S
C6152 C6151 1.397 . S
C6152 C6153 1.334 . S
C6153 H6130 0.950 . S
C6153 C6152 1.334 . S
C6153 C6154 1.287 . S
C6154 C6153 1.287 . S
C6154 C6155 1.524 . S
C6154 H6173 0.913 . S
C6155 H6131 0.950 . S
C6155 C6154 1.524 . S
C6155 C6156 1.415 . S
C6156 H6132 0.950 . S
C6156 C6151 1.363 . S
C6156 C6155 1.415 . S
C6157 H6133 0.951 . S
C6157 C6158 1.366 . S
C6157 C6159 1.388 . S
C6158 C6157 1.366 . S
C6158 C6162 1.385 . S
C6159 H6134 0.951 . S
C6159 C6157 1.388 . S
C6159 C6160 1.366 . S
C6160 C6159 1.366 . S
C6160 C6161 1.414 . S
C6160 C6163 1.499 . S
C6161 H6135 0.950 . S
C6161 C6160 1.414 . S
C6161 C6162 1.374 . S
C6162 H6136 0.950 . S
C6162 C6158 1.385 . S
C6162 C6161 1.374 . S
C6163 C6160 1.499 . S
C6163 C6164 1.373 . S
C6163 C6165 1.389 . S
C6164 H6137 0.950 . S
C6164 C6150 1.377 . S
C6164 C6163 1.373 . S
C6165 C6149 1.377 . S
C6165 C6163 1.389 . S
C6165 C6166 1.524 . S
C6166 C6165 1.524 . S
C6166 C6167 1.397 . S
C6166 C6171 1.363 . S
C6167 H6138 0.950 . S
C6167 C6166 1.397 . S
C6167 C6168 1.334 . S
C6168 H6139 0.950 . S
C6168 C6167 1.334 . S
C6168 C6169 1.287 . S
C6169 C6168 1.287 . S
C6169 C6170 1.524 . S
C6169 H6172 0.999 . S
C6170 H6140 0.950 . S
C6170 C6169 1.524 . S
C6170 C6171 1.415 . S
C6171 H6141 0.950 . S
C6171 C6166 1.363 . S
C6171 C6170 1.415 . S
H6172 C6169 0.999 . S
H6173 C6154 0.913 . S
H6174 C6192 0.951 . S
H6175 C6194 0.951 . S
H6176 C6196 0.950 . S
H6177 C6197 0.950 . S
H6178 C6199 0.950 . S
H6179 C6202 0.950 . S
H6180 C6203 0.950 . S
H6181 C6205 0.950 . S
H6182 C6206 0.950 . S
H6183 C6207 0.951 . S
H6184 C6209 0.951 . S
H6185 C6211 0.950 . S
H6186 C6212 0.950 . S
H6187 C6214 0.950 . S
H6188 C6217 0.950 . S
H6189 C6218 0.950 . S
H6190 C6220 0.950 . S
H6191 C6221 0.950 . S
C6192 H6174 0.951 . S
C6192 C6193 1.366 . S
C6192 C6194 1.388 . S
C6193 C6192 1.366 . S
C6193 C6197 1.385 . S
C6194 H6175 0.951 . S
C6194 C6192 1.388 . S
C6194 C6195 1.366 . S
C6195 C6194 1.366 . S
C6195 C6196 1.414 . S
C6195 C6198 1.499 . S
C6196 H6176 0.950 . S
C6196 C6195 1.414 . S
C6196 C6197 1.374 . S
C6197 H6177 0.950 . S
C6197 C6193 1.385 . S
C6197 C6196 1.374 . S
C6198 C6195 1.499 . S
C6198 C6199 1.373 . S
C6198 C6200 1.389 . S
C6199 H6178 0.950 . S
C6199 C6198 1.373 . S
C6199 C6215 1.377 . S
C6200 C6198 1.389 . S
C6200 C6201 1.524 . S
C6200 C6214 1.377 . S
C6201 C6200 1.524 . S
C6201 C6202 1.397 . S
C6201 C6206 1.363 . S
C6202 H6179 0.950 . S
C6202 C6201 1.397 . S
C6202 C6203 1.334 . S
C6203 H6180 0.950 . S
C6203 C6202 1.334 . S
C6203 C6204 1.287 . S
C6204 C6203 1.287 . S
C6204 C6205 1.524 . S
C6204 H6223 0.913 . S
C6205 H6181 0.950 . S
C6205 C6204 1.524 . S
C6205 C6206 1.415 . S
C6206 H6182 0.950 . S
C6206 C6201 1.363 . S
C6206 C6205 1.415 . S
C6207 H6183 0.951 . S
C6207 C6208 1.366 1_455 S
C6207 C6209 1.388 . S
C6208 C6207 1.366 1_655 S
C6208 C6212 1.385 . S
C6209 H6184 0.951 . S
C6209 C6207 1.388 . S
C6209 C6210 1.366 . S
C6210 C6209 1.366 . S
C6210 C6211 1.414 1_455 S
C6210 C6213 1.499 . S
C6211 H6185 0.950 . S
C6211 C6210 1.414 1_655 S
C6211 C6212 1.374 . S
C6212 H6186 0.950 . S
C6212 C6208 1.385 . S
C6212 C6211 1.374 . S
C6213 C6210 1.499 . S
C6213 C6214 1.373 . S
C6213 C6215 1.389 . S
C6214 H6187 0.950 . S
C6214 C6200 1.377 . S
C6214 C6213 1.373 . S
C6215 C6199 1.377 . S
C6215 C6213 1.389 . S
C6215 C6216 1.524 . S
C6216 C6215 1.524 . S
C6216 C6217 1.397 . S
C6216 C6221 1.363 . S
C6217 H6188 0.950 . S
C6217 C6216 1.397 . S
C6217 C6218 1.334 . S
C6218 H6189 0.950 . S
C6218 C6217 1.334 . S
C6218 C6219 1.287 . S
C6219 C6218 1.287 . S
C6219 C6220 1.524 . S
C6219 H6222 0.999 . S
C6220 H6190 0.950 . S
C6220 C6219 1.524 . S
C6220 C6221 1.415 . S
C6221 H6191 0.950 . S
C6221 C6216 1.363 . S
C6221 C6220 1.415 . S
H6222 C6219 0.999 . S
H6223 C6204 0.913 . S
H6224 C6242 0.951 . S
H6225 C6244 0.951 . S
H6226 C6246 0.950 . S
H6227 C6247 0.950 . S
H6228 C6249 0.950 . S
H6229 C6252 0.950 . S
H6230 C6253 0.950 . S
H6231 C6255 0.950 . S
H6232 C6256 0.950 . S
H6233 C6257 0.951 . S
H6234 C6259 0.951 . S
H6235 C6261 0.950 . S
H6236 C6262 0.950 . S
H6237 C6264 0.950 . S
H6238 C6267 0.950 . S
H6239 C6268 0.950 . S
H6240 C6270 0.950 . S
H6241 C6271 0.950 . S
C6242 H6224 0.951 . S
C6242 C6243 1.366 . S
C6242 C6244 1.388 1_545 S
C6243 C6242 1.366 . S
C6243 C6247 1.385 . S
C6244 H6225 0.951 . S
C6244 C6242 1.388 1_565 S
C6244 C6245 1.366 . S
C6245 C6244 1.366 . S
C6245 C6246 1.414 . S
C6245 C6248 1.499 . S
C6246 H6226 0.950 . S
C6246 C6245 1.414 . S
C6246 C6247 1.374 1_565 S
C6247 H6227 0.950 . S
C6247 C6243 1.385 . S
C6247 C6246 1.374 1_545 S
C6248 C6245 1.499 . S
C6248 C6249 1.373 . S
C6248 C6250 1.389 . S
C6249 H6228 0.950 . S
C6249 C6248 1.373 . S
C6249 C6265 1.377 . S
C6250 C6248 1.389 . S
C6250 C6251 1.524 . S
C6250 C6264 1.377 . S
C6251 C6250 1.524 . S
C6251 C6252 1.397 . S
C6251 C6256 1.363 . S
C6252 H6229 0.950 . S
C6252 C6251 1.397 . S
C6252 C6253 1.334 . S
C6253 H6230 0.950 . S
C6253 C6252 1.334 . S
C6253 C6254 1.287 . S
C6254 C6253 1.287 . S
C6254 C6255 1.524 . S
C6254 H6273 0.913 1_565 S
C6255 H6231 0.950 . S
C6255 C6254 1.524 . S
C6255 C6256 1.415 . S
C6256 H6232 0.950 . S
C6256 C6251 1.363 . S
C6256 C6255 1.415 . S
C6257 H6233 0.951 . S
C6257 C6258 1.366 . S
C6257 C6259 1.388 . S
C6258 C6257 1.366 . S
C6258 C6262 1.385 . S
C6259 H6234 0.951 . S
C6259 C6257 1.388 . S
C6259 C6260 1.366 . S
C6260 C6259 1.366 . S
C6260 C6261 1.414 . S
C6260 C6263 1.499 . S
C6261 H6235 0.950 . S
C6261 C6260 1.414 . S
C6261 C6262 1.374 . S
C6262 H6236 0.950 . S
C6262 C6258 1.385 . S
C6262 C6261 1.374 . S
C6263 C6260 1.499 . S
C6263 C6264 1.373 . S
C6263 C6265 1.389 . S
C6264 H6237 0.950 . S
C6264 C6250 1.377 . S
C6264 C6263 1.373 . S
C6265 C6249 1.377 . S
C6265 C6263 1.389 . S
C6265 C6266 1.524 . S
C6266 C6265 1.524 . S
C6266 C6267 1.397 . S
C6266 C6271 1.363 . S
C6267 H6238 0.950 . S
C6267 C6266 1.397 . S
C6267 C6268 1.334 . S
C6268 H6239 0.950 . S
C6268 C6267 1.334 . S
C6268 C6269 1.287 . S
C6269 C6268 1.287 . S
C6269 C6270 1.524 . S
C6269 H6272 0.999 . S
C6270 H6240 0.950 . S
C6270 C6269 1.524 . S
C6270 C6271 1.415 . S
C6271 H6241 0.950 . S
C6271 C6266 1.363 . S
C6271 C6270 1.415 . S
H6272 C6269 0.999 . S
H6273 C6254 0.913 1_545 S
H6274 C6292 0.951 . S
H6275 C6294 0.951 . S
H6276 C6296 0.950 . S
H6277 C6297 0.950 . S
H6278 C6299 0.950 . S
H6279 C6302 0.950 . S
H6280 C6303 0.950 . S
H6281 C6305 0.950 . S
H6282 C6306 0.950 . S
H6283 C6307 0.951 . S
H6284 C6309 0.951 . S
H6285 C6311 0.950 . S
H6286 C6312 0.950 . S
H6287 C6314 0.950 . S
H6288 C6317 0.950 . S
H6289 C6318 0.950 . S
H6290 C6320 0.950 . S
H6291 C6321 0.950 . S
C6292 H6274 0.951 . S
C6292 C6293 1.366 . S
C6292 C6294 1.388 . S
C6293 C6292 1.366 . S
C6293 C6297 1.385 . S
C6294 H6275 0.951 . S
C6294 C6292 1.388 . S
C6294 C6295 1.366 . S
C6295 C6294 1.366 . S
C6295 C6296 1.414 . S
C6295 C6298 1.499 . S
C6296 H6276 0.950 . S
C6296 C6295 1.414 . S
C6296 C6297 1.374 . S
C6297 H6277 0.950 . S
C6297 C6293 1.385 . S
C6297 C6296 1.374 . S
C6298 C6295 1.499 . S
C6298 C6299 1.373 1_545 S
C6298 C6300 1.389 . S
C6299 H6278 0.950 . S
C6299 C6298 1.373 1_565 S
C6299 C6315 1.377 . S
C6300 C6298 1.389 . S
C6300 C6301 1.524 . S
C6300 C6314 1.377 1_545 S
C6301 C6300 1.524 . S
C6301 C6302 1.397 . S
C6301 C6306 1.363 . S
C6302 H6279 0.950 . S
C6302 C6301 1.397 . S
C6302 C6303 1.334 . S
C6303 H6280 0.950 . S
C6303 C6302 1.334 . S
C6303 C6304 1.287 . S
C6304 C6303 1.287 . S
C6304 C6305 1.524 . S
C6304 H6323 0.913 . S
C6305 H6281 0.950 . S
C6305 C6304 1.524 . S
C6305 C6306 1.415 . S
C6306 H6282 0.950 . S
C6306 C6301 1.363 . S
C6306 C6305 1.415 . S
C6307 H6283 0.951 . S
C6307 C6308 1.366 . S
C6307 C6309 1.388 . S
C6308 C6307 1.366 . S
C6308 C6312 1.385 . S
C6309 H6284 0.951 . S
C6309 C6307 1.388 . S
C6309 C6310 1.366 . S
C6310 C6309 1.366 . S
C6310 C6311 1.414 . S
C6310 C6313 1.499 . S
C6311 H6285 0.950 . S
C6311 C6310 1.414 . S
C6311 C6312 1.374 . S
C6312 H6286 0.950 . S
C6312 C6308 1.385 . S
C6312 C6311 1.374 . S
C6313 C6310 1.499 . S
C6313 C6314 1.373 . S
C6313 C6315 1.389 . S
C6314 H6287 0.950 . S
C6314 C6300 1.377 1_565 S
C6314 C6313 1.373 . S
C6315 C6299 1.377 . S
C6315 C6313 1.389 . S
C6315 C6316 1.524 . S
C6316 C6315 1.524 . S
C6316 C6317 1.397 . S
C6316 C6321 1.363 . S
C6317 H6288 0.950 . S
C6317 C6316 1.397 . S
C6317 C6318 1.334 . S
C6318 H6289 0.950 . S
C6318 C6317 1.334 . S
C6318 C6319 1.287 . S
C6319 C6318 1.287 . S
C6319 C6320 1.524 . S
C6319 H6322 0.999 . S
C6320 H6290 0.950 . S
C6320 C6319 1.524 . S
C6320 C6321 1.415 . S
C6321 H6291 0.950 . S
C6321 C6316 1.363 . S
C6321 C6320 1.415 . S
H6322 C6319 0.999 . S
H6323 C6304 0.913 . S
H6324 C6342 0.951 . S
H6325 C6344 0.951 . S
H6326 C6346 0.950 . S
H6327 C6347 0.950 . S
H6328 C6349 0.950 . S
H6329 C6352 0.950 . S
H6330 C6353 0.950 . S
H6331 C6355 0.950 . S
H6332 C6356 0.950 . S
H6333 C6357 0.951 . S
H6334 C6359 0.951 . S
H6335 C6361 0.950 . S
H6336 C6362 0.950 . S
H6337 C6364 0.950 . S
H6338 C6367 0.950 . S
H6339 C6368 0.950 . S
H6340 C6370 0.950 . S
H6341 C6371 0.950 . S
C6342 H6324 0.951 . S
C6342 C6343 1.366 . S
C6342 C6344 1.388 . S
C6343 C6342 1.366 . S
C6343 C6347 1.385 . S
C6344 H6325 0.951 . S
C6344 C6342 1.388 . S
C6344 C6345 1.366 . S
C6345 C6344 1.366 . S
C6345 C6346 1.414 . S
C6345 C6348 1.499 . S
C6346 H6326 0.950 . S
C6346 C6345 1.414 . S
C6346 C6347 1.374 . S
C6347 H6327 0.950 . S
C6347 C6343 1.385 . S
C6347 C6346 1.374 . S
C6348 C6345 1.499 . S
C6348 C6349 1.373 . S
C6348 C6350 1.389 . S
C6349 H6328 0.950 . S
C6349 C6348 1.373 . S
C6349 C6365 1.377 1_565 S
C6350 C6348 1.389 . S
C6350 C6351 1.524 . S
C6350 C6364 1.377 . S
C6351 C6350 1.524 . S
C6351 C6352 1.397 . S
C6351 C6356 1.363 . S
C6352 H6329 0.950 . S
C6352 C6351 1.397 . S
C6352 C6353 1.334 . S
C6353 H6330 0.950 . S
C6353 C6352 1.334 . S
C6353 C6354 1.287 . S
C6354 C6353 1.287 . S
C6354 C6355 1.524 . S
C6354 H6373 0.913 . S
C6355 H6331 0.950 . S
C6355 C6354 1.524 . S
C6355 C6356 1.415 . S
C6356 H6332 0.950 . S
C6356 C6351 1.363 . S
C6356 C6355 1.415 . S
C6357 H6333 0.951 . S
C6357 C6358 1.366 . S
C6357 C6359 1.388 . S
C6358 C6357 1.366 . S
C6358 C6362 1.385 . S
C6359 H6334 0.951 . S
C6359 C6357 1.388 . S
C6359 C6360 1.366 . S
C6360 C6359 1.366 . S
C6360 C6361 1.414 . S
C6360 C6363 1.499 . S
C6361 H6335 0.950 . S
C6361 C6360 1.414 . S
C6361 C6362 1.374 . S
C6362 H6336 0.950 . S
C6362 C6358 1.385 . S
C6362 C6361 1.374 . S
C6363 C6360 1.499 . S
C6363 C6364 1.373 1_545 S
C6363 C6365 1.389 . S
C6364 H6337 0.950 . S
C6364 C6350 1.377 . S
C6364 C6363 1.373 1_565 S
C6365 C6349 1.377 1_545 S
C6365 C6363 1.389 . S
C6365 C6366 1.524 . S
C6366 C6365 1.524 . S
C6366 C6367 1.397 . S
C6366 C6371 1.363 . S
C6367 H6338 0.950 . S
C6367 C6366 1.397 . S
C6367 C6368 1.334 . S
C6368 H6339 0.950 . S
C6368 C6367 1.334 . S
C6368 C6369 1.287 . S
C6369 C6368 1.287 . S
C6369 C6370 1.524 . S
C6369 H6372 0.999 . S
C6370 H6340 0.950 . S
C6370 C6369 1.524 . S
C6370 C6371 1.415 . S
C6371 H6341 0.950 . S
C6371 C6366 1.363 . S
C6371 C6370 1.415 . S
H6372 C6369 0.999 . S
H6373 C6354 0.913 . S
H6374 C6392 0.951 . S
H6375 C6394 0.951 . S
H6376 C6396 0.950 . S
H6377 C6397 0.950 . S
H6378 C6399 0.950 . S
H6379 C6402 0.950 . S
H6380 C6403 0.950 . S
H6381 C6405 0.950 . S
H6382 C6406 0.950 . S
H6383 C6407 0.951 . S
H6384 C6409 0.951 . S
H6385 C6411 0.950 . S
H6386 C6412 0.950 . S
H6387 C6414 0.950 . S
H6388 C6417 0.950 . S
H6389 C6418 0.950 . S
H6390 C6420 0.950 . S
H6391 C6421 0.950 . S
C6392 H6374 0.951 . S
C6392 C6393 1.366 . S
C6392 C6394 1.388 1_545 S
C6393 C6392 1.366 . S
C6393 C6397 1.385 . S
C6394 H6375 0.951 . S
C6394 C6392 1.388 1_565 S
C6394 C6395 1.366 . S
C6395 C6394 1.366 . S
C6395 C6396 1.414 . S
C6395 C6398 1.499 . S
C6396 H6376 0.950 . S
C6396 C6395 1.414 . S
C6396 C6397 1.374 1_565 S
C6397 H6377 0.950 . S
C6397 C6393 1.385 . S
C6397 C6396 1.374 1_545 S
C6398 C6395 1.499 . S
C6398 C6399 1.373 . S
C6398 C6400 1.389 . S
C6399 H6378 0.950 . S
C6399 C6398 1.373 . S
C6399 C6415 1.377 . S
C6400 C6398 1.389 . S
C6400 C6401 1.524 . S
C6400 C6414 1.377 . S
C6401 C6400 1.524 . S
C6401 C6402 1.397 . S
C6401 C6406 1.363 . S
C6402 H6379 0.950 . S
C6402 C6401 1.397 . S
C6402 C6403 1.334 . S
C6403 H6380 0.950 . S
C6403 C6402 1.334 . S
C6403 C6404 1.287 . S
C6404 C6403 1.287 . S
C6404 C6405 1.524 . S
C6404 H6423 0.913 1_565 S
C6405 H6381 0.950 . S
C6405 C6404 1.524 . S
C6405 C6406 1.415 . S
C6406 H6382 0.950 . S
C6406 C6401 1.363 . S
C6406 C6405 1.415 . S
C6407 H6383 0.951 . S
C6407 C6408 1.366 1_455 S
C6407 C6409 1.388 . S
C6408 C6407 1.366 1_655 S
C6408 C6412 1.385 . S
C6409 H6384 0.951 . S
C6409 C6407 1.388 . S
C6409 C6410 1.366 . S
C6410 C6409 1.366 . S
C6410 C6411 1.414 1_455 S
C6410 C6413 1.499 . S
C6411 H6385 0.950 . S
C6411 C6410 1.414 1_655 S
C6411 C6412 1.374 . S
C6412 H6386 0.950 . S
C6412 C6408 1.385 . S
C6412 C6411 1.374 . S
C6413 C6410 1.499 . S
C6413 C6414 1.373 . S
C6413 C6415 1.389 . S
C6414 H6387 0.950 . S
C6414 C6400 1.377 . S
C6414 C6413 1.373 . S
C6415 C6399 1.377 . S
C6415 C6413 1.389 . S
C6415 C6416 1.524 . S
C6416 C6415 1.524 . S
C6416 C6417 1.397 . S
C6416 C6421 1.363 . S
C6417 H6388 0.950 . S
C6417 C6416 1.397 . S
C6417 C6418 1.334 . S
C6418 H6389 0.950 . S
C6418 C6417 1.334 . S
C6418 C6419 1.287 . S
C6419 C6418 1.287 . S
C6419 C6420 1.524 . S
C6419 H6422 0.999 . S
C6420 H6390 0.950 . S
C6420 C6419 1.524 . S
C6420 C6421 1.415 . S
C6421 H6391 0.950 . S
C6421 C6416 1.363 . S
C6421 C6420 1.415 . S
H6422 C6419 0.999 . S
H6423 C6404 0.913 1_545 S
H6424 C6442 0.951 . S
H6425 C6444 0.951 . S
H6426 C6446 0.950 . S
H6427 C6447 0.950 . S
H6428 C6449 0.950 . S
H6429 C6452 0.950 . S
H6430 C6453 0.950 . S
H6431 C6455 0.950 . S
H6432 C6456 0.950 . S
H6433 C6457 0.951 . S
H6434 C6459 0.951 . S
H6435 C6461 0.950 . S
H6436 C6462 0.950 . S
H6437 C6464 0.950 . S
H6438 C6467 0.950 . S
H6439 C6468 0.950 . S
H6440 C6470 0.950 . S
H6441 C6471 0.950 . S
C6442 H6424 0.951 . S
C6442 C6443 1.366 . S
C6442 C6444 1.388 . S
C6443 C6442 1.366 . S
C6443 C6447 1.385 . S
C6444 H6425 0.951 . S
C6444 C6442 1.388 . S
C6444 C6445 1.366 . S
C6445 C6444 1.366 . S
C6445 C6446 1.414 . S
C6445 C6448 1.499 . S
C6446 H6426 0.950 . S
C6446 C6445 1.414 . S
C6446 C6447 1.374 . S
C6447 H6427 0.950 . S
C6447 C6443 1.385 . S
C6447 C6446 1.374 . S
C6448 C6445 1.499 . S
C6448 C6449 1.373 . S
C6448 C6450 1.389 . S
C6449 H6428 0.950 . S
C6449 C6448 1.373 . S
C6449 C6465 1.377 . S
C6450 C6448 1.389 . S
C6450 C6451 1.524 . S
C6450 C6464 1.377 . S
C6451 C6450 1.524 . S
C6451 C6452 1.397 . S
C6451 C6456 1.363 . S
C6452 H6429 0.950 . S
C6452 C6451 1.397 . S
C6452 C6453 1.334 . S
C6453 H6430 0.950 . S
C6453 C6452 1.334 . S
C6453 C6454 1.287 . S
C6454 C6453 1.287 . S
C6454 C6455 1.524 . S
C6454 H6473 0.913 . S
C6455 H6431 0.950 . S
C6455 C6454 1.524 . S
C6455 C6456 1.415 . S
C6456 H6432 0.950 . S
C6456 C6451 1.363 . S
C6456 C6455 1.415 . S
C6457 H6433 0.951 . S
C6457 C6458 1.366 . S
C6457 C6459 1.388 . S
C6458 C6457 1.366 . S
C6458 C6462 1.385 . S
C6459 H6434 0.951 . S
C6459 C6457 1.388 . S
C6459 C6460 1.366 . S
C6460 C6459 1.366 . S
C6460 C6461 1.414 . S
C6460 C6463 1.499 . S
C6461 H6435 0.950 . S
C6461 C6460 1.414 . S
C6461 C6462 1.374 . S
C6462 H6436 0.950 . S
C6462 C6458 1.385 . S
C6462 C6461 1.374 . S
C6463 C6460 1.499 . S
C6463 C6464 1.373 . S
C6463 C6465 1.389 . S
C6464 H6437 0.950 . S
C6464 C6450 1.377 . S
C6464 C6463 1.373 . S
C6465 C6449 1.377 . S
C6465 C6463 1.389 . S
C6465 C6466 1.524 . S
C6466 C6465 1.524 . S
C6466 C6467 1.397 . S
C6466 C6471 1.363 . S
C6467 H6438 0.950 . S
C6467 C6466 1.397 . S
C6467 C6468 1.334 . S
C6468 H6439 0.950 . S
C6468 C6467 1.334 . S
C6468 C6469 1.287 . S
C6469 C6468 1.287 . S
C6469 C6470 1.524 . S
C6469 H6472 0.999 . S
C6470 H6440 0.950 . S
C6470 C6469 1.524 . S
C6470 C6471 1.415 . S
C6471 H6441 0.950 . S
C6471 C6466 1.363 . S
C6471 C6470 1.415 . S
H6472 C6469 0.999 . S
H6473 C6454 0.913 . S
H6474 C6492 0.951 . S
H6475 C6494 0.951 . S
H6476 C6496 0.950 . S
H6477 C6497 0.950 . S
H6478 C6499 0.950 . S
H6479 C6502 0.950 . S
H6480 C6503 0.950 . S
H6481 C6505 0.950 . S
H6482 C6506 0.950 . S
H6483 C6507 0.951 . S
H6484 C6509 0.951 . S
H6485 C6511 0.950 . S
H6486 C6512 0.950 . S
H6487 C6514 0.950 . S
H6488 C6517 0.950 . S
H6489 C6518 0.950 . S
H6490 C6520 0.950 . S
H6491 C6521 0.950 . S
C6492 H6474 0.951 . S
C6492 C6493 1.366 . S
C6492 C6494 1.388 . S
C6493 C6492 1.366 . S
C6493 C6497 1.385 . S
C6494 H6475 0.951 . S
C6494 C6492 1.388 . S
C6494 C6495 1.366 . S
C6495 C6494 1.366 . S
C6495 C6496 1.414 . S
C6495 C6498 1.499 . S
C6496 H6476 0.950 . S
C6496 C6495 1.414 . S
C6496 C6497 1.374 . S
C6497 H6477 0.950 . S
C6497 C6493 1.385 . S
C6497 C6496 1.374 . S
C6498 C6495 1.499 . S
C6498 C6499 1.373 . S
C6498 C6500 1.389 . S
C6499 H6478 0.950 . S
C6499 C6498 1.373 . S
C6499 C6515 1.377 . S
C6500 C6498 1.389 . S
C6500 C6501 1.524 . S
C6500 C6514 1.377 . S
C6501 C6500 1.524 . S
C6501 C6502 1.397 . S
C6501 C6506 1.363 . S
C6502 H6479 0.950 . S
C6502 C6501 1.397 . S
C6502 C6503 1.334 . S
C6503 H6480 0.950 . S
C6503 C6502 1.334 . S
C6503 C6504 1.287 . S
C6504 C6503 1.287 . S
C6504 C6505 1.524 . S
C6504 H6523 0.913 . S
C6505 H6481 0.950 . S
C6505 C6504 1.524 . S
C6505 C6506 1.415 . S
C6506 H6482 0.950 . S
C6506 C6501 1.363 . S
C6506 C6505 1.415 . S
C6507 H6483 0.951 . S
C6507 C6508 1.366 . S
C6507 C6509 1.388 . S
C6508 C6507 1.366 . S
C6508 C6512 1.385 . S
C6509 H6484 0.951 . S
C6509 C6507 1.388 . S
C6509 C6510 1.366 . S
C6510 C6509 1.366 . S
C6510 C6511 1.414 . S
C6510 C6513 1.499 . S
C6511 H6485 0.950 . S
C6511 C6510 1.414 . S
C6511 C6512 1.374 . S
C6512 H6486 0.950 . S
C6512 C6508 1.385 . S
C6512 C6511 1.374 . S
C6513 C6510 1.499 . S
C6513 C6514 1.373 . S
C6513 C6515 1.389 . S
C6514 H6487 0.950 . S
C6514 C6500 1.377 . S
C6514 C6513 1.373 . S
C6515 C6499 1.377 . S
C6515 C6513 1.389 . S
C6515 C6516 1.524 . S
C6516 C6515 1.524 . S
C6516 C6517 1.397 . S
C6516 C6521 1.363 . S
C6517 H6488 0.950 . S
C6517 C6516 1.397 . S
C6517 C6518 1.334 . S
C6518 H6489 0.950 . S
C6518 C6517 1.334 . S
C6518 C6519 1.287 . S
C6519 C6518 1.287 . S
C6519 C6520 1.524 . S
C6519 H6522 0.999 . S
C6520 H6490 0.950 . S
C6520 C6519 1.524 . S
C6520 C6521 1.415 . S
C6521 H6491 0.950 . S
C6521 C6516 1.363 . S
C6521 C6520 1.415 . S
H6522 C6519 0.999 . S
H6523 C6504 0.913 . S
H6524 C6542 0.951 . S
H6525 C6544 0.951 . S
H6526 C6546 0.950 . S
H6527 C6547 0.950 . S
H6528 C6549 0.950 . S
H6529 C6552 0.950 . S
H6530 C6553 0.950 . S
H6531 C6555 0.950 . S
H6532 C6556 0.950 . S
H6533 C6557 0.951 . S
H6534 C6559 0.951 . S
H6535 C6561 0.950 . S
H6536 C6562 0.950 . S
H6537 C6564 0.950 . S
H6538 C6567 0.950 . S
H6539 C6568 0.950 . S
H6540 C6570 0.950 . S
H6541 C6571 0.950 . S
C6542 H6524 0.951 . S
C6542 C6543 1.366 . S
C6542 C6544 1.388 . S
C6543 C6542 1.366 . S
C6543 C6547 1.385 . S
C6544 H6525 0.951 . S
C6544 C6542 1.388 . S
C6544 C6545 1.366 . S
C6545 C6544 1.366 . S
C6545 C6546 1.414 . S
C6545 C6548 1.499 . S
C6546 H6526 0.950 . S
C6546 C6545 1.414 . S
C6546 C6547 1.374 . S
C6547 H6527 0.950 . S
C6547 C6543 1.385 . S
C6547 C6546 1.374 . S
C6548 C6545 1.499 . S
C6548 C6549 1.373 . S
C6548 C6550 1.389 . S
C6549 H6528 0.950 . S
C6549 C6548 1.373 . S
C6549 C6565 1.377 . S
C6550 C6548 1.389 . S
C6550 C6551 1.524 . S
C6550 C6564 1.377 . S
C6551 C6550 1.524 . S
C6551 C6552 1.397 . S
C6551 C6556 1.363 . S
C6552 H6529 0.950 . S
C6552 C6551 1.397 . S
C6552 C6553 1.334 . S
C6553 H6530 0.950 . S
C6553 C6552 1.334 . S
C6553 C6554 1.287 . S
C6554 C6553 1.287 . S
C6554 C6555 1.524 . S
C6554 H6573 0.913 . S
C6555 H6531 0.950 . S
C6555 C6554 1.524 . S
C6555 C6556 1.415 . S
C6556 H6532 0.950 . S
C6556 C6551 1.363 . S
C6556 C6555 1.415 . S
C6557 H6533 0.951 . S
C6557 C6558 1.366 . S
C6557 C6559 1.388 . S
C6558 C6557 1.366 . S
C6558 C6562 1.385 . S
C6559 H6534 0.951 . S
C6559 C6557 1.388 . S
C6559 C6560 1.366 . S
C6560 C6559 1.366 . S
C6560 C6561 1.414 . S
C6560 C6563 1.499 . S
C6561 H6535 0.950 . S
C6561 C6560 1.414 . S
C6561 C6562 1.374 . S
C6562 H6536 0.950 . S
C6562 C6558 1.385 . S
C6562 C6561 1.374 . S
C6563 C6560 1.499 . S
C6563 C6564 1.373 . S
C6563 C6565 1.389 . S
C6564 H6537 0.950 . S
C6564 C6550 1.377 . S
C6564 C6563 1.373 . S
C6565 C6549 1.377 . S
C6565 C6563 1.389 . S
C6565 C6566 1.524 . S
C6566 C6565 1.524 . S
C6566 C6567 1.397 . S
C6566 C6571 1.363 . S
C6567 H6538 0.950 . S
C6567 C6566 1.397 . S
C6567 C6568 1.334 . S
C6568 H6539 0.950 . S
C6568 C6567 1.334 . S
C6568 C6569 1.287 . S
C6569 C6568 1.287 . S
C6569 C6570 1.524 . S
C6569 H6572 0.999 . S
C6570 H6540 0.950 . S
C6570 C6569 1.524 . S
C6570 C6571 1.415 . S
C6571 H6541 0.950 . S
C6571 C6566 1.363 . S
C6571 C6570 1.415 . S
H6572 C6569 0.999 . S
H6573 C6554 0.913 . S
H6574 C6592 0.951 . S
H6575 C6594 0.951 . S
H6576 C6596 0.950 . S
H6577 C6597 0.950 . S
H6578 C6599 0.950 . S
H6579 C6602 0.950 . S
H6580 C6603 0.950 . S
H6581 C6605 0.950 . S
H6582 C6606 0.950 . S
H6583 C6607 0.951 . S
H6584 C6609 0.951 . S
H6585 C6611 0.950 . S
H6586 C6612 0.950 . S
H6587 C6614 0.950 . S
H6588 C6617 0.950 . S
H6589 C6618 0.950 . S
H6590 C6620 0.950 . S
H6591 C6621 0.950 . S
C6592 H6574 0.951 . S
C6592 C6593 1.366 . S
C6592 C6594 1.388 . S
C6593 C6592 1.366 . S
C6593 C6597 1.385 . S
C6594 H6575 0.951 . S
C6594 C6592 1.388 . S
C6594 C6595 1.366 . S
C6595 C6594 1.366 . S
C6595 C6596 1.414 . S
C6595 C6598 1.499 . S
C6596 H6576 0.950 . S
C6596 C6595 1.414 . S
C6596 C6597 1.374 . S
C6597 H6577 0.950 . S
C6597 C6593 1.385 . S
C6597 C6596 1.374 . S
C6598 C6595 1.499 . S
C6598 C6599 1.373 . S
C6598 C6600 1.389 . S
C6599 H6578 0.950 . S
C6599 C6598 1.373 . S
C6599 C6615 1.377 . S
C6600 C6598 1.389 . S
C6600 C6601 1.524 . S
C6600 C6614 1.377 . S
C6601 C6600 1.524 . S
C6601 C6602 1.397 . S
C6601 C6606 1.363 . S
C6602 H6579 0.950 . S
C6602 C6601 1.397 . S
C6602 C6603 1.334 . S
C6603 H6580 0.950 . S
C6603 C6602 1.334 . S
C6603 C6604 1.287 . S
C6604 C6603 1.287 . S
C6604 C6605 1.524 . S
C6604 H6623 0.913 . S
C6605 H6581 0.950 . S
C6605 C6604 1.524 . S
C6605 C6606 1.415 . S
C6606 H6582 0.950 . S
C6606 C6601 1.363 . S
C6606 C6605 1.415 . S
C6607 H6583 0.951 . S
C6607 C6608 1.366 . S
C6607 C6609 1.388 . S
C6608 C6607 1.366 . S
C6608 C6612 1.385 . S
C6609 H6584 0.951 . S
C6609 C6607 1.388 . S
C6609 C6610 1.366 . S
C6610 C6609 1.366 . S
C6610 C6611 1.414 . S
C6610 C6613 1.499 . S
C6611 H6585 0.950 . S
C6611 C6610 1.414 . S
C6611 C6612 1.374 . S
C6612 H6586 0.950 . S
C6612 C6608 1.385 . S
C6612 C6611 1.374 . S
C6613 C6610 1.499 . S
C6613 C6614 1.373 . S
C6613 C6615 1.389 . S
C6614 H6587 0.950 . S
C6614 C6600 1.377 . S
C6614 C6613 1.373 . S
C6615 C6599 1.377 . S
C6615 C6613 1.389 . S
C6615 C6616 1.524 . S
C6616 C6615 1.524 . S
C6616 C6617 1.397 . S
C6616 C6621 1.363 . S
C6617 H6588 0.950 . S
C6617 C6616 1.397 . S
C6617 C6618 1.334 . S
C6618 H6589 0.950 . S
C6618 C6617 1.334 . S
C6618 C6619 1.287 . S
C6619 C6618 1.287 . S
C6619 C6620 1.524 . S
C6619 H6622 0.999 . S
C6620 H6590 0.950 . S
C6620 C6619 1.524 . S
C6620 C6621 1.415 . S
C6621 H6591 0.950 . S
C6621 C6616 1.363 . S
C6621 C6620 1.415 . S
H6622 C6619 0.999 . S
H6623 C6604 0.913 . S
H6624 C6642 0.951 . S
H6625 C6644 0.951 . S
H6626 C6646 0.950 . S
H6627 C6647 0.950 . S
H6628 C6649 0.950 . S
H6629 C6652 0.950 . S
H6630 C6653 0.950 . S
H6631 C6655 0.950 . S
H6632 C6656 0.950 . S
H6633 C6657 0.951 . S
H6634 C6659 0.951 . S
H6635 C6661 0.950 . S
H6636 C6662 0.950 . S
H6637 C6664 0.950 . S
H6638 C6667 0.950 . S
H6639 C6668 0.950 . S
H6640 C6670 0.950 . S
H6641 C6671 0.950 . S
C6642 H6624 0.951 . S
C6642 C6643 1.366 . S
C6642 C6644 1.388 . S
C6643 C6642 1.366 . S
C6643 C6647 1.385 . S
C6644 H6625 0.951 . S
C6644 C6642 1.388 . S
C6644 C6645 1.366 . S
C6645 C6644 1.366 . S
C6645 C6646 1.414 . S
C6645 C6648 1.499 . S
C6646 H6626 0.950 . S
C6646 C6645 1.414 . S
C6646 C6647 1.374 . S
C6647 H6627 0.950 . S
C6647 C6643 1.385 . S
C6647 C6646 1.374 . S
C6648 C6645 1.499 . S
C6648 C6649 1.373 . S
C6648 C6650 1.389 . S
C6649 H6628 0.950 . S
C6649 C6648 1.373 . S
C6649 C6665 1.377 . S
C6650 C6648 1.389 . S
C6650 C6651 1.524 . S
C6650 C6664 1.377 . S
C6651 C6650 1.524 . S
C6651 C6652 1.397 . S
C6651 C6656 1.363 . S
C6652 H6629 0.950 . S
C6652 C6651 1.397 . S
C6652 C6653 1.334 . S
C6653 H6630 0.950 . S
C6653 C6652 1.334 . S
C6653 C6654 1.287 . S
C6654 C6653 1.287 . S
C6654 C6655 1.524 . S
C6654 H6673 0.913 . S
C6655 H6631 0.950 . S
C6655 C6654 1.524 . S
C6655 C6656 1.415 . S
C6656 H6632 0.950 . S
C6656 C6651 1.363 . S
C6656 C6655 1.415 . S
C6657 H6633 0.951 . S
C6657 C6658 1.366 . S
C6657 C6659 1.388 . S
C6658 C6657 1.366 . S
C6658 C6662 1.385 . S
C6659 H6634 0.951 . S
C6659 C6657 1.388 . S
C6659 C6660 1.366 . S
C6660 C6659 1.366 . S
C6660 C6661 1.414 . S
C6660 C6663 1.499 . S
C6661 H6635 0.950 . S
C6661 C6660 1.414 . S
C6661 C6662 1.374 . S
C6662 H6636 0.950 . S
C6662 C6658 1.385 . S
C6662 C6661 1.374 . S
C6663 C6660 1.499 . S
C6663 C6664 1.373 . S
C6663 C6665 1.389 . S
C6664 H6637 0.950 . S
C6664 C6650 1.377 . S
C6664 C6663 1.373 . S
C6665 C6649 1.377 . S
C6665 C6663 1.389 . S
C6665 C6666 1.524 . S
C6666 C6665 1.524 . S
C6666 C6667 1.397 . S
C6666 C6671 1.363 . S
C6667 H6638 0.950 . S
C6667 C6666 1.397 . S
C6667 C6668 1.334 . S
C6668 H6639 0.950 . S
C6668 C6667 1.334 . S
C6668 C6669 1.287 . S
C6669 C6668 1.287 . S
C6669 C6670 1.524 . S
C6669 H6672 0.999 . S
C6670 H6640 0.950 . S
C6670 C6669 1.524 . S
C6670 C6671 1.415 . S
C6671 H6641 0.950 . S
C6671 C6666 1.363 . S
C6671 C6670 1.415 . S
H6672 C6669 0.999 . S
H6673 C6654 0.913 . S
H6674 C6692 0.951 . S
H6675 C6694 0.951 . S
H6676 C6696 0.950 . S
H6677 C6697 0.950 . S
H6678 C6699 0.950 . S
H6679 C6702 0.950 . S
H6680 C6703 0.950 . S
H6681 C6705 0.950 . S
H6682 C6706 0.950 . S
H6683 C6707 0.951 . S
H6684 C6709 0.951 . S
H6685 C6711 0.950 . S
H6686 C6712 0.950 . S
H6687 C6714 0.950 . S
H6688 C6717 0.950 . S
H6689 C6718 0.950 . S
H6690 C6720 0.950 . S
H6691 C6721 0.950 . S
C6692 H6674 0.951 . S
C6692 C6693 1.366 . S
C6692 C6694 1.388 . S
C6693 C6692 1.366 . S
C6693 C6697 1.385 . S
C6694 H6675 0.951 . S
C6694 C6692 1.388 . S
C6694 C6695 1.366 . S
C6695 C6694 1.366 . S
C6695 C6696 1.414 . S
C6695 C6698 1.499 . S
C6696 H6676 0.950 . S
C6696 C6695 1.414 . S
C6696 C6697 1.374 . S
C6697 H6677 0.950 . S
C6697 C6693 1.385 . S
C6697 C6696 1.374 . S
C6698 C6695 1.499 . S
C6698 C6699 1.373 . S
C6698 C6700 1.389 . S
C6699 H6678 0.950 . S
C6699 C6698 1.373 . S
C6699 C6715 1.377 . S
C6700 C6698 1.389 . S
C6700 C6701 1.524 . S
C6700 C6714 1.377 . S
C6701 C6700 1.524 . S
C6701 C6702 1.397 . S
C6701 C6706 1.363 . S
C6702 H6679 0.950 . S
C6702 C6701 1.397 . S
C6702 C6703 1.334 . S
C6703 H6680 0.950 . S
C6703 C6702 1.334 . S
C6703 C6704 1.287 . S
C6704 C6703 1.287 . S
C6704 C6705 1.524 . S
C6704 H6723 0.913 . S
C6705 H6681 0.950 . S
C6705 C6704 1.524 . S
C6705 C6706 1.415 . S
C6706 H6682 0.950 . S
C6706 C6701 1.363 . S
C6706 C6705 1.415 . S
C6707 H6683 0.951 . S
C6707 C6708 1.366 . S
C6707 C6709 1.388 . S
C6708 C6707 1.366 . S
C6708 C6712 1.385 . S
C6709 H6684 0.951 . S
C6709 C6707 1.388 . S
C6709 C6710 1.366 . S
C6710 C6709 1.366 . S
C6710 C6711 1.414 . S
C6710 C6713 1.499 . S
C6711 H6685 0.950 . S
C6711 C6710 1.414 . S
C6711 C6712 1.374 . S
C6712 H6686 0.950 . S
C6712 C6708 1.385 . S
C6712 C6711 1.374 . S
C6713 C6710 1.499 . S
C6713 C6714 1.373 . S
C6713 C6715 1.389 . S
C6714 H6687 0.950 . S
C6714 C6700 1.377 . S
C6714 C6713 1.373 . S
C6715 C6699 1.377 . S
C6715 C6713 1.389 . S
C6715 C6716 1.524 . S
C6716 C6715 1.524 . S
C6716 C6717 1.397 . S
C6716 C6721 1.363 . S
C6717 H6688 0.950 . S
C6717 C6716 1.397 . S
C6717 C6718 1.334 . S
C6718 H6689 0.950 . S
C6718 C6717 1.334 . S
C6718 C6719 1.287 . S
C6719 C6718 1.287 . S
C6719 C6720 1.524 . S
C6719 H6722 0.999 . S
C6720 H6690 0.950 . S
C6720 C6719 1.524 . S
C6720 C6721 1.415 . S
C6721 H6691 0.950 . S
C6721 C6716 1.363 . S
C6721 C6720 1.415 . S
H6722 C6719 0.999 . S
H6723 C6704 0.913 . S
H6724 C6742 0.951 . S
H6725 C6744 0.951 . S
H6726 C6746 0.950 . S
H6727 C6747 0.950 . S
H6728 C6749 0.950 . S
H6729 C6752 0.950 . S
H6730 C6753 0.950 . S
H6731 C6755 0.950 . S
H6732 C6756 0.950 . S
H6733 C6757 0.951 . S
H6734 C6759 0.951 . S
H6735 C6761 0.950 . S
H6736 C6762 0.950 . S
H6737 C6764 0.950 . S
H6738 C6767 0.950 . S
H6739 C6768 0.950 . S
H6740 C6770 0.950 . S
H6741 C6771 0.950 . S
C6742 H6724 0.951 . S
C6742 C6743 1.366 . S
C6742 C6744 1.388 . S
C6743 C6742 1.366 . S
C6743 C6747 1.385 . S
C6744 H6725 0.951 . S
C6744 C6742 1.388 . S
C6744 C6745 1.366 . S
C6745 C6744 1.366 . S
C6745 C6746 1.414 . S
C6745 C6748 1.499 . S
C6746 H6726 0.950 . S
C6746 C6745 1.414 . S
C6746 C6747 1.374 . S
C6747 H6727 0.950 . S
C6747 C6743 1.385 . S
C6747 C6746 1.374 . S
C6748 C6745 1.499 . S
C6748 C6749 1.373 . S
C6748 C6750 1.389 . S
C6749 H6728 0.950 . S
C6749 C6748 1.373 . S
C6749 C6765 1.377 . S
C6750 C6748 1.389 . S
C6750 C6751 1.524 . S
C6750 C6764 1.377 . S
C6751 C6750 1.524 . S
C6751 C6752 1.397 . S
C6751 C6756 1.363 . S
C6752 H6729 0.950 . S
C6752 C6751 1.397 . S
C6752 C6753 1.334 . S
C6753 H6730 0.950 . S
C6753 C6752 1.334 . S
C6753 C6754 1.287 . S
C6754 C6753 1.287 . S
C6754 C6755 1.524 . S
C6754 H6773 0.913 . S
C6755 H6731 0.950 . S
C6755 C6754 1.524 . S
C6755 C6756 1.415 . S
C6756 H6732 0.950 . S
C6756 C6751 1.363 . S
C6756 C6755 1.415 . S
C6757 H6733 0.951 . S
C6757 C6758 1.366 . S
C6757 C6759 1.388 . S
C6758 C6757 1.366 . S
C6758 C6762 1.385 . S
C6759 H6734 0.951 . S
C6759 C6757 1.388 . S
C6759 C6760 1.366 . S
C6760 C6759 1.366 . S
C6760 C6761 1.414 . S
C6760 C6763 1.499 . S
C6761 H6735 0.950 . S
C6761 C6760 1.414 . S
C6761 C6762 1.374 . S
C6762 H6736 0.950 . S
C6762 C6758 1.385 . S
C6762 C6761 1.374 . S
C6763 C6760 1.499 . S
C6763 C6764 1.373 . S
C6763 C6765 1.389 . S
C6764 H6737 0.950 . S
C6764 C6750 1.377 . S
C6764 C6763 1.373 . S
C6765 C6749 1.377 . S
C6765 C6763 1.389 . S
C6765 C6766 1.524 . S
C6766 C6765 1.524 . S
C6766 C6767 1.397 . S
C6766 C6771 1.363 . S
C6767 H6738 0.950 . S
C6767 C6766 1.397 . S
C6767 C6768 1.334 . S
C6768 H6739 0.950 . S
C6768 C6767 1.334 . S
C6768 C6769 1.287 . S
C6769 C6768 1.287 . S
C6769 C6770 1.524 . S
C6769 H6772 0.999 . S
C6770 H6740 0.950 . S
C6770 C6769 1.524 . S
C6770 C6771 1.415 . S
C6771 H6741 0.950 . S
C6771 C6766 1.363 . S
C6771 C6770 1.415 . S
H6772 C6769 0.999 . S
H6773 C6754 0.913 . S
H6774 C6792 0.951 . S
H6775 C6794 0.951 . S
H6776 C6796 0.950 . S
H6777 C6797 0.950 . S
H6778 C6799 0.950 . S
H6779 C6802 0.950 . S
H6780 C6803 0.950 . S
H6781 C6805 0.950 . S
H6782 C6806 0.950 . S
H6783 C6807 0.951 . S
H6784 C6809 0.951 . S
H6785 C6811 0.950 . S
H6786 C6812 0.950 . S
H6787 C6814 0.950 . S
H6788 C6817 0.950 . S
H6789 C6818 0.950 . S
H6790 C6820 0.950 . S
H6791 C6821 0.950 . S
C6792 H6774 0.951 . S
C6792 C6793 1.366 . S
C6792 C6794 1.388 . S
C6793 C6792 1.366 . S
C6793 C6797 1.385 . S
C6794 H6775 0.951 . S
C6794 C6792 1.388 . S
C6794 C6795 1.366 . S
C6795 C6794 1.366 . S
C6795 C6796 1.414 . S
C6795 C6798 1.499 . S
C6796 H6776 0.950 . S
C6796 C6795 1.414 . S
C6796 C6797 1.374 . S
C6797 H6777 0.950 . S
C6797 C6793 1.385 . S
C6797 C6796 1.374 . S
C6798 C6795 1.499 . S
C6798 C6799 1.373 . S
C6798 C6800 1.389 . S
C6799 H6778 0.950 . S
C6799 C6798 1.373 . S
C6799 C6815 1.377 . S
C6800 C6798 1.389 . S
C6800 C6801 1.524 . S
C6800 C6814 1.377 . S
C6801 C6800 1.524 . S
C6801 C6802 1.397 . S
C6801 C6806 1.363 . S
C6802 H6779 0.950 . S
C6802 C6801 1.397 . S
C6802 C6803 1.334 . S
C6803 H6780 0.950 . S
C6803 C6802 1.334 . S
C6803 C6804 1.287 . S
C6804 C6803 1.287 . S
C6804 C6805 1.524 . S
C6804 H6823 0.913 . S
C6805 H6781 0.950 . S
C6805 C6804 1.524 . S
C6805 C6806 1.415 . S
C6806 H6782 0.950 . S
C6806 C6801 1.363 . S
C6806 C6805 1.415 . S
C6807 H6783 0.951 . S
C6807 C6808 1.366 . S
C6807 C6809 1.388 . S
C6808 C6807 1.366 . S
C6808 C6812 1.385 . S
C6809 H6784 0.951 . S
C6809 C6807 1.388 . S
C6809 C6810 1.366 . S
C6810 C6809 1.366 . S
C6810 C6811 1.414 . S
C6810 C6813 1.499 . S
C6811 H6785 0.950 . S
C6811 C6810 1.414 . S
C6811 C6812 1.374 . S
C6812 H6786 0.950 . S
C6812 C6808 1.385 . S
C6812 C6811 1.374 . S
C6813 C6810 1.499 . S
C6813 C6814 1.373 . S
C6813 C6815 1.389 . S
C6814 H6787 0.950 . S
C6814 C6800 1.377 . S
C6814 C6813 1.373 . S
C6815 C6799 1.377 . S
C6815 C6813 1.389 . S
C6815 C6816 1.524 . S
C6816 C6815 1.524 . S
C6816 C6817 1.397 . S
C6816 C6821 1.363 . S
C6817 H6788 0.950 . S
C6817 C6816 1.397 . S
C6817 C6818 1.334 . S
C6818 H6789 0.950 . S
C6818 C6817 1.334 . S
C6818 C6819 1.287 . S
C6819 C6818 1.287 . S
C6819 C6820 1.524 . S
C6819 H6822 0.999 . S
C6820 H6790 0.950 . S
C6820 C6819 1.524 . S
C6820 C6821 1.415 . S
C6821 H6791 0.950 . S
C6821 C6816 1.363 . S
C6821 C6820 1.415 . S
H6822 C6819 0.999 . S
H6823 C6804 0.913 . S
H6824 C6842 0.951 . S
H6825 C6844 0.951 . S
H6826 C6846 0.950 . S
H6827 C6847 0.950 . S
H6828 C6849 0.950 . S
H6829 C6852 0.950 . S
H6830 C6853 0.950 . S
H6831 C6855 0.950 . S
H6832 C6856 0.950 . S
H6833 C6857 0.951 . S
H6834 C6859 0.951 . S
H6835 C6861 0.950 . S
H6836 C6862 0.950 . S
H6837 C6864 0.950 . S
H6838 C6867 0.950 . S
H6839 C6868 0.950 . S
H6840 C6870 0.950 . S
H6841 C6871 0.950 . S
C6842 H6824 0.951 . S
C6842 C6843 1.366 . S
C6842 C6844 1.388 . S
C6843 C6842 1.366 . S
C6843 C6847 1.385 . S
C6844 H6825 0.951 . S
C6844 C6842 1.388 . S
C6844 C6845 1.366 . S
C6845 C6844 1.366 . S
C6845 C6846 1.414 . S
C6845 C6848 1.499 . S
C6846 H6826 0.950 . S
C6846 C6845 1.414 . S
C6846 C6847 1.374 . S
C6847 H6827 0.950 . S
C6847 C6843 1.385 . S
C6847 C6846 1.374 . S
C6848 C6845 1.499 . S
C6848 C6849 1.373 . S
C6848 C6850 1.389 . S
C6849 H6828 0.950 . S
C6849 C6848 1.373 . S
C6849 C6865 1.377 . S
C6850 C6848 1.389 . S
C6850 C6851 1.524 . S
C6850 C6864 1.377 . S
C6851 C6850 1.524 . S
C6851 C6852 1.397 . S
C6851 C6856 1.363 . S
C6852 H6829 0.950 . S
C6852 C6851 1.397 . S
C6852 C6853 1.334 . S
C6853 H6830 0.950 . S
C6853 C6852 1.334 . S
C6853 C6854 1.287 . S
C6854 C6853 1.287 . S
C6854 C6855 1.524 . S
C6854 H6873 0.913 . S
C6855 H6831 0.950 . S
C6855 C6854 1.524 . S
C6855 C6856 1.415 . S
C6856 H6832 0.950 . S
C6856 C6851 1.363 . S
C6856 C6855 1.415 . S
C6857 H6833 0.951 . S
C6857 C6858 1.366 . S
C6857 C6859 1.388 . S
C6858 C6857 1.366 . S
C6858 C6862 1.385 . S
C6859 H6834 0.951 . S
C6859 C6857 1.388 . S
C6859 C6860 1.366 . S
C6860 C6859 1.366 . S
C6860 C6861 1.414 . S
C6860 C6863 1.499 . S
C6861 H6835 0.950 . S
C6861 C6860 1.414 . S
C6861 C6862 1.374 . S
C6862 H6836 0.950 . S
C6862 C6858 1.385 . S
C6862 C6861 1.374 . S
C6863 C6860 1.499 . S
C6863 C6864 1.373 . S
C6863 C6865 1.389 . S
C6864 H6837 0.950 . S
C6864 C6850 1.377 . S
C6864 C6863 1.373 . S
C6865 C6849 1.377 . S
C6865 C6863 1.389 . S
C6865 C6866 1.524 . S
C6866 C6865 1.524 . S
C6866 C6867 1.397 . S
C6866 C6871 1.363 . S
C6867 H6838 0.950 . S
C6867 C6866 1.397 . S
C6867 C6868 1.334 . S
C6868 H6839 0.950 . S
C6868 C6867 1.334 . S
C6868 C6869 1.287 . S
C6869 C6868 1.287 . S
C6869 C6870 1.524 . S
C6869 H6872 0.999 . S
C6870 H6840 0.950 . S
C6870 C6869 1.524 . S
C6870 C6871 1.415 . S
C6871 H6841 0.950 . S
C6871 C6866 1.363 . S
C6871 C6870 1.415 . S
H6872 C6869 0.999 . S
H6873 C6854 0.913 . S
H6874 C6892 0.951 . S
H6875 C6894 0.951 . S
H6876 C6896 0.950 . S
H6877 C6897 0.950 . S
H6878 C6899 0.950 . S
H6879 C6902 0.950 . S
H6880 C6903 0.950 . S
H6881 C6905 0.950 . S
H6882 C6906 0.950 . S
H6883 C6907 0.951 . S
H6884 C6909 0.951 . S
H6885 C6911 0.950 . S
H6886 C6912 0.950 . S
H6887 C6914 0.950 . S
H6888 C6917 0.950 . S
H6889 C6918 0.950 . S
H6890 C6920 0.950 . S
H6891 C6921 0.950 . S
C6892 H6874 0.951 . S
C6892 C6893 1.366 . S
C6892 C6894 1.388 . S
C6893 C6892 1.366 . S
C6893 C6897 1.385 . S
C6894 H6875 0.951 . S
C6894 C6892 1.388 . S
C6894 C6895 1.366 . S
C6895 C6894 1.366 . S
C6895 C6896 1.414 . S
C6895 C6898 1.499 . S
C6896 H6876 0.950 . S
C6896 C6895 1.414 . S
C6896 C6897 1.374 . S
C6897 H6877 0.950 . S
C6897 C6893 1.385 . S
C6897 C6896 1.374 . S
C6898 C6895 1.499 . S
C6898 C6899 1.373 . S
C6898 C6900 1.389 . S
C6899 H6878 0.950 . S
C6899 C6898 1.373 . S
C6899 C6915 1.377 . S
C6900 C6898 1.389 . S
C6900 C6901 1.524 . S
C6900 C6914 1.377 . S
C6901 C6900 1.524 . S
C6901 C6902 1.397 . S
C6901 C6906 1.363 . S
C6902 H6879 0.950 . S
C6902 C6901 1.397 . S
C6902 C6903 1.334 . S
C6903 H6880 0.950 . S
C6903 C6902 1.334 . S
C6903 C6904 1.287 . S
C6904 C6903 1.287 . S
C6904 C6905 1.524 . S
C6904 H6923 0.913 . S
C6905 H6881 0.950 . S
C6905 C6904 1.524 . S
C6905 C6906 1.415 . S
C6906 H6882 0.950 . S
C6906 C6901 1.363 . S
C6906 C6905 1.415 . S
C6907 H6883 0.951 . S
C6907 C6908 1.366 . S
C6907 C6909 1.388 . S
C6908 C6907 1.366 . S
C6908 C6912 1.385 . S
C6909 H6884 0.951 . S
C6909 C6907 1.388 . S
C6909 C6910 1.366 . S
C6910 C6909 1.366 . S
C6910 C6911 1.414 . S
C6910 C6913 1.499 . S
C6911 H6885 0.950 . S
C6911 C6910 1.414 . S
C6911 C6912 1.374 . S
C6912 H6886 0.950 . S
C6912 C6908 1.385 . S
C6912 C6911 1.374 . S
C6913 C6910 1.499 . S
C6913 C6914 1.373 . S
C6913 C6915 1.389 . S
C6914 H6887 0.950 . S
C6914 C6900 1.377 . S
C6914 C6913 1.373 . S
C6915 C6899 1.377 . S
C6915 C6913 1.389 . S
C6915 C6916 1.524 . S
C6916 C6915 1.524 . S
C6916 C6917 1.397 . S
C6916 C6921 1.363 . S
C6917 H6888 0.950 . S
C6917 C6916 1.397 . S
C6917 C6918 1.334 . S
C6918 H6889 0.950 . S
C6918 C6917 1.334 . S
C6918 C6919 1.287 . S
C6919 C6918 1.287 . S
C6919 C6920 1.524 . S
C6919 H6922 0.999 . S
C6920 H6890 0.950 . S
C6920 C6919 1.524 . S
C6920 C6921 1.415 . S
C6921 H6891 0.950 . S
C6921 C6916 1.363 . S
C6921 C6920 1.415 . S
H6922 C6919 0.999 . S
H6923 C6904 0.913 . S
H6924 C6942 0.951 . S
H6925 C6944 0.951 . S
H6926 C6946 0.950 . S
H6927 C6947 0.950 . S
H6928 C6949 0.950 . S
H6929 C6952 0.950 . S
H6930 C6953 0.950 . S
H6931 C6955 0.950 . S
H6932 C6956 0.950 . S
H6933 C6957 0.951 . S
H6934 C6959 0.951 . S
H6935 C6961 0.950 . S
H6936 C6962 0.950 . S
H6937 C6964 0.950 . S
H6938 C6967 0.950 . S
H6939 C6968 0.950 . S
H6940 C6970 0.950 . S
H6941 C6971 0.950 . S
C6942 H6924 0.951 . S
C6942 C6943 1.366 . S
C6942 C6944 1.388 . S
C6943 C6942 1.366 . S
C6943 C6947 1.385 . S
C6944 H6925 0.951 . S
C6944 C6942 1.388 . S
C6944 C6945 1.366 . S
C6945 C6944 1.366 . S
C6945 C6946 1.414 . S
C6945 C6948 1.499 . S
C6946 H6926 0.950 . S
C6946 C6945 1.414 . S
C6946 C6947 1.374 . S
C6947 H6927 0.950 . S
C6947 C6943 1.385 . S
C6947 C6946 1.374 . S
C6948 C6945 1.499 . S
C6948 C6949 1.373 . S
C6948 C6950 1.389 . S
C6949 H6928 0.950 . S
C6949 C6948 1.373 . S
C6949 C6965 1.377 . S
C6950 C6948 1.389 . S
C6950 C6951 1.524 . S
C6950 C6964 1.377 . S
C6951 C6950 1.524 . S
C6951 C6952 1.397 . S
C6951 C6956 1.363 . S
C6952 H6929 0.950 . S
C6952 C6951 1.397 . S
C6952 C6953 1.334 . S
C6953 H6930 0.950 . S
C6953 C6952 1.334 . S
C6953 C6954 1.287 . S
C6954 C6953 1.287 . S
C6954 C6955 1.524 . S
C6954 H6973 0.913 . S
C6955 H6931 0.950 . S
C6955 C6954 1.524 . S
C6955 C6956 1.415 . S
C6956 H6932 0.950 . S
C6956 C6951 1.363 . S
C6956 C6955 1.415 . S
C6957 H6933 0.951 . S
C6957 C6958 1.366 . S
C6957 C6959 1.388 . S
C6958 C6957 1.366 . S
C6958 C6962 1.385 . S
C6959 H6934 0.951 . S
C6959 C6957 1.388 . S
C6959 C6960 1.366 . S
C6960 C6959 1.366 . S
C6960 C6961 1.414 . S
C6960 C6963 1.499 . S
C6961 H6935 0.950 . S
C6961 C6960 1.414 . S
C6961 C6962 1.374 . S
C6962 H6936 0.950 . S
C6962 C6958 1.385 . S
C6962 C6961 1.374 . S
C6963 C6960 1.499 . S
C6963 C6964 1.373 . S
C6963 C6965 1.389 . S
C6964 H6937 0.950 . S
C6964 C6950 1.377 . S
C6964 C6963 1.373 . S
C6965 C6949 1.377 . S
C6965 C6963 1.389 . S
C6965 C6966 1.524 . S
C6966 C6965 1.524 . S
C6966 C6967 1.397 . S
C6966 C6971 1.363 . S
C6967 H6938 0.950 . S
C6967 C6966 1.397 . S
C6967 C6968 1.334 . S
C6968 H6939 0.950 . S
C6968 C6967 1.334 . S
C6968 C6969 1.287 . S
C6969 C6968 1.287 . S
C6969 C6970 1.524 . S
C6969 H6972 0.999 . S
C6970 H6940 0.950 . S
C6970 C6969 1.524 . S
C6970 C6971 1.415 . S
C6971 H6941 0.950 . S
C6971 C6966 1.363 . S
C6971 C6970 1.415 . S
H6972 C6969 0.999 . S
H6973 C6954 0.913 . S
H6974 C6992 0.951 . S
H6975 C6994 0.951 . S
H6976 C6996 0.950 . S
H6977 C6997 0.950 . S
H6978 C6999 0.950 . S
H6979 C7002 0.950 . S
H6980 C7003 0.950 . S
H6981 C7005 0.950 . S
H6982 C7006 0.950 . S
H6983 C7007 0.951 . S
H6984 C7009 0.951 . S
H6985 C7011 0.950 . S
H6986 C7012 0.950 . S
H6987 C7014 0.950 . S
H6988 C7017 0.950 . S
H6989 C7018 0.950 . S
H6990 C7020 0.950 . S
H6991 C7021 0.950 . S
C6992 H6974 0.951 . S
C6992 C6993 1.366 . S
C6992 C6994 1.388 . S
C6993 C6992 1.366 . S
C6993 C6997 1.385 . S
C6994 H6975 0.951 . S
C6994 C6992 1.388 . S
C6994 C6995 1.366 . S
C6995 C6994 1.366 . S
C6995 C6996 1.414 . S
C6995 C6998 1.499 . S
C6996 H6976 0.950 . S
C6996 C6995 1.414 . S
C6996 C6997 1.374 . S
C6997 H6977 0.950 . S
C6997 C6993 1.385 . S
C6997 C6996 1.374 . S
C6998 C6995 1.499 . S
C6998 C6999 1.373 . S
C6998 C7000 1.389 . S
C6999 H6978 0.950 . S
C6999 C6998 1.373 . S
C6999 C7015 1.377 . S
C7000 C6998 1.389 . S
C7000 C7001 1.524 . S
C7000 C7014 1.377 . S
C7001 C7000 1.524 . S
C7001 C7002 1.397 . S
C7001 C7006 1.363 . S
C7002 H6979 0.950 . S
C7002 C7001 1.397 . S
C7002 C7003 1.334 . S
C7003 H6980 0.950 . S
C7003 C7002 1.334 . S
C7003 C7004 1.287 . S
C7004 C7003 1.287 . S
C7004 C7005 1.524 . S
C7004 H7023 0.913 . S
C7005 H6981 0.950 . S
C7005 C7004 1.524 . S
C7005 C7006 1.415 . S
C7006 H6982 0.950 . S
C7006 C7001 1.363 . S
C7006 C7005 1.415 . S
C7007 H6983 0.951 . S
C7007 C7008 1.366 . S
C7007 C7009 1.388 . S
C7008 C7007 1.366 . S
C7008 C7012 1.385 . S
C7009 H6984 0.951 . S
C7009 C7007 1.388 . S
C7009 C7010 1.366 . S
C7010 C7009 1.366 . S
C7010 C7011 1.414 . S
C7010 C7013 1.499 . S
C7011 H6985 0.950 . S
C7011 C7010 1.414 . S
C7011 C7012 1.374 . S
C7012 H6986 0.950 . S
C7012 C7008 1.385 . S
C7012 C7011 1.374 . S
C7013 C7010 1.499 . S
C7013 C7014 1.373 . S
C7013 C7015 1.389 . S
C7014 H6987 0.950 . S
C7014 C7000 1.377 . S
C7014 C7013 1.373 . S
C7015 C6999 1.377 . S
C7015 C7013 1.389 . S
C7015 C7016 1.524 . S
C7016 C7015 1.524 . S
C7016 C7017 1.397 . S
C7016 C7021 1.363 . S
C7017 H6988 0.950 . S
C7017 C7016 1.397 . S
C7017 C7018 1.334 . S
C7018 H6989 0.950 . S
C7018 C7017 1.334 . S
C7018 C7019 1.287 . S
C7019 C7018 1.287 . S
C7019 C7020 1.524 . S
C7019 H7022 0.999 . S
C7020 H6990 0.950 . S
C7020 C7019 1.524 . S
C7020 C7021 1.415 . S
C7021 H6991 0.950 . S
C7021 C7016 1.363 . S
C7021 C7020 1.415 . S
H7022 C7019 0.999 . S
H7023 C7004 0.913 . S
H7024 C7042 0.951 . S
H7025 C7044 0.951 . S
H7026 C7046 0.950 . S
H7027 C7047 0.950 . S
H7028 C7049 0.950 . S
H7029 C7052 0.950 . S
H7030 C7053 0.950 . S
H7031 C7055 0.950 . S
H7032 C7056 0.950 . S
H7033 C7057 0.951 . S
H7034 C7059 0.951 . S
H7035 C7061 0.950 . S
H7036 C7062 0.950 . S
H7037 C7064 0.950 . S
H7038 C7067 0.950 . S
H7039 C7068 0.950 . S
H7040 C7070 0.950 . S
H7041 C7071 0.950 . S
C7042 H7024 0.951 . S
C7042 C7043 1.366 . S
C7042 C7044 1.388 . S
C7043 C7042 1.366 . S
C7043 C7047 1.385 . S
C7044 H7025 0.951 . S
C7044 C7042 1.388 . S
C7044 C7045 1.366 . S
C7045 C7044 1.366 . S
C7045 C7046 1.414 . S
C7045 C7048 1.499 . S
C7046 H7026 0.950 . S
C7046 C7045 1.414 . S
C7046 C7047 1.374 . S
C7047 H7027 0.950 . S
C7047 C7043 1.385 . S
C7047 C7046 1.374 . S
C7048 C7045 1.499 . S
C7048 C7049 1.373 . S
C7048 C7050 1.389 . S
C7049 H7028 0.950 . S
C7049 C7048 1.373 . S
C7049 C7065 1.377 . S
C7050 C7048 1.389 . S
C7050 C7051 1.524 . S
C7050 C7064 1.377 . S
C7051 C7050 1.524 . S
C7051 C7052 1.397 . S
C7051 C7056 1.363 . S
C7052 H7029 0.950 . S
C7052 C7051 1.397 . S
C7052 C7053 1.334 . S
C7053 H7030 0.950 . S
C7053 C7052 1.334 . S
C7053 C7054 1.287 . S
C7054 C7053 1.287 . S
C7054 C7055 1.524 . S
C7054 H7073 0.913 . S
C7055 H7031 0.950 . S
C7055 C7054 1.524 . S
C7055 C7056 1.415 . S
C7056 H7032 0.950 . S
C7056 C7051 1.363 . S
C7056 C7055 1.415 . S
C7057 H7033 0.951 . S
C7057 C7058 1.366 . S
C7057 C7059 1.388 . S
C7058 C7057 1.366 . S
C7058 C7062 1.385 . S
C7059 H7034 0.951 . S
C7059 C7057 1.388 . S
C7059 C7060 1.366 . S
C7060 C7059 1.366 . S
C7060 C7061 1.414 . S
C7060 C7063 1.499 . S
C7061 H7035 0.950 . S
C7061 C7060 1.414 . S
C7061 C7062 1.374 . S
C7062 H7036 0.950 . S
C7062 C7058 1.385 . S
C7062 C7061 1.374 . S
C7063 C7060 1.499 . S
C7063 C7064 1.373 . S
C7063 C7065 1.389 . S
C7064 H7037 0.950 . S
C7064 C7050 1.377 . S
C7064 C7063 1.373 . S
C7065 C7049 1.377 . S
C7065 C7063 1.389 . S
C7065 C7066 1.524 . S
C7066 C7065 1.524 . S
C7066 C7067 1.397 . S
C7066 C7071 1.363 . S
C7067 H7038 0.950 . S
C7067 C7066 1.397 . S
C7067 C7068 1.334 . S
C7068 H7039 0.950 . S
C7068 C7067 1.334 . S
C7068 C7069 1.287 . S
C7069 C7068 1.287 . S
C7069 C7070 1.524 . S
C7069 H7072 0.999 . S
C7070 H7040 0.950 . S
C7070 C7069 1.524 . S
C7070 C7071 1.415 . S
C7071 H7041 0.950 . S
C7071 C7066 1.363 . S
C7071 C7070 1.415 . S
H7072 C7069 0.999 . S
H7073 C7054 0.913 . S
H7074 C7092 0.951 . S
H7075 C7094 0.951 . S
H7076 C7096 0.950 . S
H7077 C7097 0.950 . S
H7078 C7099 0.950 . S
H7079 C7102 0.950 . S
H7080 C7103 0.950 . S
H7081 C7105 0.950 . S
H7082 C7106 0.950 . S
H7083 C7107 0.951 . S
H7084 C7109 0.951 . S
H7085 C7111 0.950 . S
H7086 C7112 0.950 . S
H7087 C7114 0.950 . S
H7088 C7117 0.950 . S
H7089 C7118 0.950 . S
H7090 C7120 0.950 . S
H7091 C7121 0.950 . S
C7092 H7074 0.951 . S
C7092 C7093 1.366 . S
C7092 C7094 1.388 . S
C7093 C7092 1.366 . S
C7093 C7097 1.385 . S
C7094 H7075 0.951 . S
C7094 C7092 1.388 . S
C7094 C7095 1.366 . S
C7095 C7094 1.366 . S
C7095 C7096 1.414 . S
C7095 C7098 1.499 . S
C7096 H7076 0.950 . S
C7096 C7095 1.414 . S
C7096 C7097 1.374 . S
C7097 H7077 0.950 . S
C7097 C7093 1.385 . S
C7097 C7096 1.374 . S
C7098 C7095 1.499 . S
C7098 C7099 1.373 . S
C7098 C7100 1.389 . S
C7099 H7078 0.950 . S
C7099 C7098 1.373 . S
C7099 C7115 1.377 . S
C7100 C7098 1.389 . S
C7100 C7101 1.524 . S
C7100 C7114 1.377 . S
C7101 C7100 1.524 . S
C7101 C7102 1.397 . S
C7101 C7106 1.363 . S
C7102 H7079 0.950 . S
C7102 C7101 1.397 . S
C7102 C7103 1.334 . S
C7103 H7080 0.950 . S
C7103 C7102 1.334 . S
C7103 C7104 1.287 . S
C7104 C7103 1.287 . S
C7104 C7105 1.524 . S
C7104 H7123 0.913 . S
C7105 H7081 0.950 . S
C7105 C7104 1.524 . S
C7105 C7106 1.415 . S
C7106 H7082 0.950 . S
C7106 C7101 1.363 . S
C7106 C7105 1.415 . S
C7107 H7083 0.951 . S
C7107 C7108 1.366 . S
C7107 C7109 1.388 . S
C7108 C7107 1.366 . S
C7108 C7112 1.385 . S
C7109 H7084 0.951 . S
C7109 C7107 1.388 . S
C7109 C7110 1.366 . S
C7110 C7109 1.366 . S
C7110 C7111 1.414 . S
C7110 C7113 1.499 . S
C7111 H7085 0.950 . S
C7111 C7110 1.414 . S
C7111 C7112 1.374 . S
C7112 H7086 0.950 . S
C7112 C7108 1.385 . S
C7112 C7111 1.374 . S
C7113 C7110 1.499 . S
C7113 C7114 1.373 . S
C7113 C7115 1.389 . S
C7114 H7087 0.950 . S
C7114 C7100 1.377 . S
C7114 C7113 1.373 . S
C7115 C7099 1.377 . S
C7115 C7113 1.389 . S
C7115 C7116 1.524 . S
C7116 C7115 1.524 . S
C7116 C7117 1.397 . S
C7116 C7121 1.363 . S
C7117 H7088 0.950 . S
C7117 C7116 1.397 . S
C7117 C7118 1.334 . S
C7118 H7089 0.950 . S
C7118 C7117 1.334 . S
C7118 C7119 1.287 . S
C7119 C7118 1.287 . S
C7119 C7120 1.524 . S
C7119 H7122 0.999 . S
C7120 H7090 0.950 . S
C7120 C7119 1.524 . S
C7120 C7121 1.415 . S
C7121 H7091 0.950 . S
C7121 C7116 1.363 . S
C7121 C7120 1.415 . S
H7122 C7119 0.999 . S
H7123 C7104 0.913 . S
H7124 C7142 0.951 . S
H7125 C7144 0.951 . S
H7126 C7146 0.950 . S
H7127 C7147 0.950 . S
H7128 C7149 0.950 . S
H7129 C7152 0.950 . S
H7130 C7153 0.950 . S
H7131 C7155 0.950 . S
H7132 C7156 0.950 . S
H7133 C7157 0.951 . S
H7134 C7159 0.951 . S
H7135 C7161 0.950 . S
H7136 C7162 0.950 . S
H7137 C7164 0.950 . S
H7138 C7167 0.950 . S
H7139 C7168 0.950 . S
H7140 C7170 0.950 . S
H7141 C7171 0.950 . S
C7142 H7124 0.951 . S
C7142 C7143 1.366 . S
C7142 C7144 1.388 . S
C7143 C7142 1.366 . S
C7143 C7147 1.385 . S
C7144 H7125 0.951 . S
C7144 C7142 1.388 . S
C7144 C7145 1.366 . S
C7145 C7144 1.366 . S
C7145 C7146 1.414 . S
C7145 C7148 1.499 . S
C7146 H7126 0.950 . S
C7146 C7145 1.414 . S
C7146 C7147 1.374 . S
C7147 H7127 0.950 . S
C7147 C7143 1.385 . S
C7147 C7146 1.374 . S
C7148 C7145 1.499 . S
C7148 C7149 1.373 . S
C7148 C7150 1.389 . S
C7149 H7128 0.950 . S
C7149 C7148 1.373 . S
C7149 C7165 1.377 . S
C7150 C7148 1.389 . S
C7150 C7151 1.524 . S
C7150 C7164 1.377 . S
C7151 C7150 1.524 . S
C7151 C7152 1.397 . S
C7151 C7156 1.363 . S
C7152 H7129 0.950 . S
C7152 C7151 1.397 . S
C7152 C7153 1.334 . S
C7153 H7130 0.950 . S
C7153 C7152 1.334 . S
C7153 C7154 1.287 . S
C7154 C7153 1.287 . S
C7154 C7155 1.524 . S
C7154 H7173 0.913 . S
C7155 H7131 0.950 . S
C7155 C7154 1.524 . S
C7155 C7156 1.415 . S
C7156 H7132 0.950 . S
C7156 C7151 1.363 . S
C7156 C7155 1.415 . S
C7157 H7133 0.951 . S
C7157 C7158 1.366 . S
C7157 C7159 1.388 . S
C7158 C7157 1.366 . S
C7158 C7162 1.385 . S
C7159 H7134 0.951 . S
C7159 C7157 1.388 . S
C7159 C7160 1.366 . S
C7160 C7159 1.366 . S
C7160 C7161 1.414 . S
C7160 C7163 1.499 . S
C7161 H7135 0.950 . S
C7161 C7160 1.414 . S
C7161 C7162 1.374 . S
C7162 H7136 0.950 . S
C7162 C7158 1.385 . S
C7162 C7161 1.374 . S
C7163 C7160 1.499 . S
C7163 C7164 1.373 . S
C7163 C7165 1.389 . S
C7164 H7137 0.950 . S
C7164 C7150 1.377 . S
C7164 C7163 1.373 . S
C7165 C7149 1.377 . S
C7165 C7163 1.389 . S
C7165 C7166 1.524 . S
C7166 C7165 1.524 . S
C7166 C7167 1.397 . S
C7166 C7171 1.363 . S
C7167 H7138 0.950 . S
C7167 C7166 1.397 . S
C7167 C7168 1.334 . S
C7168 H7139 0.950 . S
C7168 C7167 1.334 . S
C7168 C7169 1.287 . S
C7169 C7168 1.287 . S
C7169 C7170 1.524 . S
C7169 H7172 0.999 . S
C7170 H7140 0.950 . S
C7170 C7169 1.524 . S
C7170 C7171 1.415 . S
C7171 H7141 0.950 . S
C7171 C7166 1.363 . S
C7171 C7170 1.415 . S
H7172 C7169 0.999 . S
H7173 C7154 0.913 . S
H7174 C7192 0.951 . S
H7175 C7194 0.951 . S
H7176 C7196 0.950 . S
H7177 C7197 0.950 . S
H7178 C7199 0.950 . S
H7179 C7202 0.950 . S
H7180 C7203 0.950 . S
H7181 C7205 0.950 . S
H7182 C7206 0.950 . S
H7183 C7207 0.951 . S
H7184 C7209 0.951 . S
H7185 C7211 0.950 . S
H7186 C7212 0.950 . S
H7187 C7214 0.950 . S
H7188 C7217 0.950 . S
H7189 C7218 0.950 . S
H7190 C7220 0.950 . S
H7191 C7221 0.950 . S
C7192 H7174 0.951 . S
C7192 C7193 1.366 . S
C7192 C7194 1.388 . S
C7193 C7192 1.366 . S
C7193 C7197 1.385 . S
C7194 H7175 0.951 . S
C7194 C7192 1.388 . S
C7194 C7195 1.366 . S
C7195 C7194 1.366 . S
C7195 C7196 1.414 . S
C7195 C7198 1.499 . S
C7196 H7176 0.950 . S
C7196 C7195 1.414 . S
C7196 C7197 1.374 . S
C7197 H7177 0.950 . S
C7197 C7193 1.385 . S
C7197 C7196 1.374 . S
C7198 C7195 1.499 . S
C7198 C7199 1.373 . S
C7198 C7200 1.389 . S
C7199 H7178 0.950 . S
C7199 C7198 1.373 . S
C7199 C7215 1.377 . S
C7200 C7198 1.389 . S
C7200 C7201 1.524 . S
C7200 C7214 1.377 . S
C7201 C7200 1.524 . S
C7201 C7202 1.397 . S
C7201 C7206 1.363 . S
C7202 H7179 0.950 . S
C7202 C7201 1.397 . S
C7202 C7203 1.334 . S
C7203 H7180 0.950 . S
C7203 C7202 1.334 . S
C7203 C7204 1.287 . S
C7204 C7203 1.287 . S
C7204 C7205 1.524 . S
C7204 H7223 0.913 . S
C7205 H7181 0.950 . S
C7205 C7204 1.524 . S
C7205 C7206 1.415 . S
C7206 H7182 0.950 . S
C7206 C7201 1.363 . S
C7206 C7205 1.415 . S
C7207 H7183 0.951 . S
C7207 C7208 1.366 . S
C7207 C7209 1.388 . S
C7208 C7207 1.366 . S
C7208 C7212 1.385 . S
C7209 H7184 0.951 . S
C7209 C7207 1.388 . S
C7209 C7210 1.366 . S
C7210 C7209 1.366 . S
C7210 C7211 1.414 . S
C7210 C7213 1.499 . S
C7211 H7185 0.950 . S
C7211 C7210 1.414 . S
C7211 C7212 1.374 . S
C7212 H7186 0.950 . S
C7212 C7208 1.385 . S
C7212 C7211 1.374 . S
C7213 C7210 1.499 . S
C7213 C7214 1.373 . S
C7213 C7215 1.389 . S
C7214 H7187 0.950 . S
C7214 C7200 1.377 . S
C7214 C7213 1.373 . S
C7215 C7199 1.377 . S
C7215 C7213 1.389 . S
C7215 C7216 1.524 . S
C7216 C7215 1.524 . S
C7216 C7217 1.397 . S
C7216 C7221 1.363 . S
C7217 H7188 0.950 . S
C7217 C7216 1.397 . S
C7217 C7218 1.334 . S
C7218 H7189 0.950 . S
C7218 C7217 1.334 . S
C7218 C7219 1.287 . S
C7219 C7218 1.287 . S
C7219 C7220 1.524 . S
C7219 H7222 0.999 . S
C7220 H7190 0.950 . S
C7220 C7219 1.524 . S
C7220 C7221 1.415 . S
C7221 H7191 0.950 . S
C7221 C7216 1.363 . S
C7221 C7220 1.415 . S
H7222 C7219 0.999 . S
H7223 C7204 0.913 . S
H7224 C7242 0.951 . S
H7225 C7244 0.951 . S
H7226 C7246 0.950 . S
H7227 C7247 0.950 . S
H7228 C7249 0.950 . S
H7229 C7252 0.950 . S
H7230 C7253 0.950 . S
H7231 C7255 0.950 . S
H7232 C7256 0.950 . S
H7233 C7257 0.951 . S
H7234 C7259 0.951 . S
H7235 C7261 0.950 . S
H7236 C7262 0.950 . S
H7237 C7264 0.950 . S
H7238 C7267 0.950 . S
H7239 C7268 0.950 . S
H7240 C7270 0.950 . S
H7241 C7271 0.950 . S
C7242 H7224 0.951 . S
C7242 C7243 1.366 . S
C7242 C7244 1.388 . S
C7243 C7242 1.366 . S
C7243 C7247 1.385 . S
C7244 H7225 0.951 . S
C7244 C7242 1.388 . S
C7244 C7245 1.366 . S
C7245 C7244 1.366 . S
C7245 C7246 1.414 . S
C7245 C7248 1.499 . S
C7246 H7226 0.950 . S
C7246 C7245 1.414 . S
C7246 C7247 1.374 . S
C7247 H7227 0.950 . S
C7247 C7243 1.385 . S
C7247 C7246 1.374 . S
C7248 C7245 1.499 . S
C7248 C7249 1.373 . S
C7248 C7250 1.389 . S
C7249 H7228 0.950 . S
C7249 C7248 1.373 . S
C7249 C7265 1.377 . S
C7250 C7248 1.389 . S
C7250 C7251 1.524 . S
C7250 C7264 1.377 . S
C7251 C7250 1.524 . S
C7251 C7252 1.397 . S
C7251 C7256 1.363 . S
C7252 H7229 0.950 . S
C7252 C7251 1.397 . S
C7252 C7253 1.334 . S
C7253 H7230 0.950 . S
C7253 C7252 1.334 . S
C7253 C7254 1.287 . S
C7254 C7253 1.287 . S
C7254 C7255 1.524 . S
C7254 H7273 0.913 . S
C7255 H7231 0.950 . S
C7255 C7254 1.524 . S
C7255 C7256 1.415 . S
C7256 H7232 0.950 . S
C7256 C7251 1.363 . S
C7256 C7255 1.415 . S
C7257 H7233 0.951 . S
C7257 C7258 1.366 . S
C7257 C7259 1.388 . S
C7258 C7257 1.366 . S
C7258 C7262 1.385 . S
C7259 H7234 0.951 . S
C7259 C7257 1.388 . S
C7259 C7260 1.366 . S
C7260 C7259 1.366 . S
C7260 C7261 1.414 . S
C7260 C7263 1.499 . S
C7261 H7235 0.950 . S
C7261 C7260 1.414 . S
C7261 C7262 1.374 . S
C7262 H7236 0.950 . S
C7262 C7258 1.385 . S
C7262 C7261 1.374 . S
C7263 C7260 1.499 . S
C7263 C7264 1.373 . S
C7263 C7265 1.389 . S
C7264 H7237 0.950 . S
C7264 C7250 1.377 . S
C7264 C7263 1.373 . S
C7265 C7249 1.377 . S
C7265 C7263 1.389 . S
C7265 C7266 1.524 . S
C7266 C7265 1.524 . S
C7266 C7267 1.397 . S
C7266 C7271 1.363 . S
C7267 H7238 0.950 . S
C7267 C7266 1.397 . S
C7267 C7268 1.334 . S
C7268 H7239 0.950 . S
C7268 C7267 1.334 . S
C7268 C7269 1.287 . S
C7269 C7268 1.287 . S
C7269 C7270 1.524 . S
C7269 H7272 0.999 . S
C7270 H7240 0.950 . S
C7270 C7269 1.524 . S
C7270 C7271 1.415 . S
C7271 H7241 0.950 . S
C7271 C7266 1.363 . S
C7271 C7270 1.415 . S
H7272 C7269 0.999 . S
H7273 C7254 0.913 . S
H7274 C7292 0.951 . S
H7275 C7294 0.951 . S
H7276 C7296 0.950 . S
H7277 C7297 0.950 . S
H7278 C7299 0.950 . S
H7279 C7302 0.950 . S
H7280 C7303 0.950 . S
H7281 C7305 0.950 . S
H7282 C7306 0.950 . S
H7283 C7307 0.951 . S
H7284 C7309 0.951 . S
H7285 C7311 0.950 . S
H7286 C7312 0.950 . S
H7287 C7314 0.950 . S
H7288 C7317 0.950 . S
H7289 C7318 0.950 . S
H7290 C7320 0.950 . S
H7291 C7321 0.950 . S
C7292 H7274 0.951 . S
C7292 C7293 1.366 . S
C7292 C7294 1.388 . S
C7293 C7292 1.366 . S
C7293 C7297 1.385 . S
C7294 H7275 0.951 . S
C7294 C7292 1.388 . S
C7294 C7295 1.366 . S
C7295 C7294 1.366 . S
C7295 C7296 1.414 . S
C7295 C7298 1.499 . S
C7296 H7276 0.950 . S
C7296 C7295 1.414 . S
C7296 C7297 1.374 . S
C7297 H7277 0.950 . S
C7297 C7293 1.385 . S
C7297 C7296 1.374 . S
C7298 C7295 1.499 . S
C7298 C7299 1.373 . S
C7298 C7300 1.389 . S
C7299 H7278 0.950 . S
C7299 C7298 1.373 . S
C7299 C7315 1.377 . S
C7300 C7298 1.389 . S
C7300 C7301 1.524 . S
C7300 C7314 1.377 . S
C7301 C7300 1.524 . S
C7301 C7302 1.397 . S
C7301 C7306 1.363 . S
C7302 H7279 0.950 . S
C7302 C7301 1.397 . S
C7302 C7303 1.334 . S
C7303 H7280 0.950 . S
C7303 C7302 1.334 . S
C7303 C7304 1.287 . S
C7304 C7303 1.287 . S
C7304 C7305 1.524 . S
C7304 H7323 0.913 . S
C7305 H7281 0.950 . S
C7305 C7304 1.524 . S
C7305 C7306 1.415 . S
C7306 H7282 0.950 . S
C7306 C7301 1.363 . S
C7306 C7305 1.415 . S
C7307 H7283 0.951 . S
C7307 C7308 1.366 . S
C7307 C7309 1.388 . S
C7308 C7307 1.366 . S
C7308 C7312 1.385 . S
C7309 H7284 0.951 . S
C7309 C7307 1.388 . S
C7309 C7310 1.366 . S
C7310 C7309 1.366 . S
C7310 C7311 1.414 . S
C7310 C7313 1.499 . S
C7311 H7285 0.950 . S
C7311 C7310 1.414 . S
C7311 C7312 1.374 . S
C7312 H7286 0.950 . S
C7312 C7308 1.385 . S
C7312 C7311 1.374 . S
C7313 C7310 1.499 . S
C7313 C7314 1.373 . S
C7313 C7315 1.389 . S
C7314 H7287 0.950 . S
C7314 C7300 1.377 . S
C7314 C7313 1.373 . S
C7315 C7299 1.377 . S
C7315 C7313 1.389 . S
C7315 C7316 1.524 . S
C7316 C7315 1.524 . S
C7316 C7317 1.397 . S
C7316 C7321 1.363 . S
C7317 H7288 0.950 . S
C7317 C7316 1.397 . S
C7317 C7318 1.334 . S
C7318 H7289 0.950 . S
C7318 C7317 1.334 . S
C7318 C7319 1.287 . S
C7319 C7318 1.287 . S
C7319 C7320 1.524 . S
C7319 H7322 0.999 . S
C7320 H7290 0.950 . S
C7320 C7319 1.524 . S
C7320 C7321 1.415 . S
C7321 H7291 0.950 . S
C7321 C7316 1.363 . S
C7321 C7320 1.415 . S
H7322 C7319 0.999 . S
H7323 C7304 0.913 . S
H7324 C7342 0.951 . S
H7325 C7344 0.951 . S
H7326 C7346 0.950 . S
H7327 C7347 0.950 . S
H7328 C7349 0.950 . S
H7329 C7352 0.950 . S
H7330 C7353 0.950 . S
H7331 C7355 0.950 . S
H7332 C7356 0.950 . S
H7333 C7357 0.951 . S
H7334 C7359 0.951 . S
H7335 C7361 0.950 . S
H7336 C7362 0.950 . S
H7337 C7364 0.950 . S
H7338 C7367 0.950 . S
H7339 C7368 0.950 . S
H7340 C7370 0.950 . S
H7341 C7371 0.950 . S
C7342 H7324 0.951 . S
C7342 C7343 1.366 . S
C7342 C7344 1.388 . S
C7343 C7342 1.366 . S
C7343 C7347 1.385 . S
C7344 H7325 0.951 . S
C7344 C7342 1.388 . S
C7344 C7345 1.366 . S
C7345 C7344 1.366 . S
C7345 C7346 1.414 . S
C7345 C7348 1.499 . S
C7346 H7326 0.950 . S
C7346 C7345 1.414 . S
C7346 C7347 1.374 . S
C7347 H7327 0.950 . S
C7347 C7343 1.385 . S
C7347 C7346 1.374 . S
C7348 C7345 1.499 . S
C7348 C7349 1.373 . S
C7348 C7350 1.389 . S
C7349 H7328 0.950 . S
C7349 C7348 1.373 . S
C7349 C7365 1.377 . S
C7350 C7348 1.389 . S
C7350 C7351 1.524 . S
C7350 C7364 1.377 . S
C7351 C7350 1.524 . S
C7351 C7352 1.397 . S
C7351 C7356 1.363 . S
C7352 H7329 0.950 . S
C7352 C7351 1.397 . S
C7352 C7353 1.334 . S
C7353 H7330 0.950 . S
C7353 C7352 1.334 . S
C7353 C7354 1.287 . S
C7354 C7353 1.287 . S
C7354 C7355 1.524 . S
C7354 H7373 0.913 . S
C7355 H7331 0.950 . S
C7355 C7354 1.524 . S
C7355 C7356 1.415 . S
C7356 H7332 0.950 . S
C7356 C7351 1.363 . S
C7356 C7355 1.415 . S
C7357 H7333 0.951 . S
C7357 C7358 1.366 . S
C7357 C7359 1.388 . S
C7358 C7357 1.366 . S
C7358 C7362 1.385 . S
C7359 H7334 0.951 . S
C7359 C7357 1.388 . S
C7359 C7360 1.366 . S
C7360 C7359 1.366 . S
C7360 C7361 1.414 . S
C7360 C7363 1.499 . S
C7361 H7335 0.950 . S
C7361 C7360 1.414 . S
C7361 C7362 1.374 . S
C7362 H7336 0.950 . S
C7362 C7358 1.385 . S
C7362 C7361 1.374 . S
C7363 C7360 1.499 . S
C7363 C7364 1.373 . S
C7363 C7365 1.389 . S
C7364 H7337 0.950 . S
C7364 C7350 1.377 . S
C7364 C7363 1.373 . S
C7365 C7349 1.377 . S
C7365 C7363 1.389 . S
C7365 C7366 1.524 . S
C7366 C7365 1.524 . S
C7366 C7367 1.397 . S
C7366 C7371 1.363 . S
C7367 H7338 0.950 . S
C7367 C7366 1.397 . S
C7367 C7368 1.334 . S
C7368 H7339 0.950 . S
C7368 C7367 1.334 . S
C7368 C7369 1.287 . S
C7369 C7368 1.287 . S
C7369 C7370 1.524 . S
C7369 H7372 0.999 . S
C7370 H7340 0.950 . S
C7370 C7369 1.524 . S
C7370 C7371 1.415 . S
C7371 H7341 0.950 . S
C7371 C7366 1.363 . S
C7371 C7370 1.415 . S
H7372 C7369 0.999 . S
H7373 C7354 0.913 . S
H7374 C7392 0.951 . S
H7375 C7394 0.951 . S
H7376 C7396 0.950 . S
H7377 C7397 0.950 . S
H7378 C7399 0.950 . S
H7379 C7402 0.950 . S
H7380 C7403 0.950 . S
H7381 C7405 0.950 1_545 S
H7382 C7406 0.950 . S
H7383 C7407 0.951 . S
H7384 C7409 0.951 . S
H7385 C7411 0.950 . S
H7386 C7412 0.950 . S
H7387 C7414 0.950 . S
H7388 C7417 0.950 . S
H7389 C7418 0.950 . S
H7390 C7420 0.950 . S
H7391 C7421 0.950 . S
C7392 H7374 0.951 . S
C7392 C7393 1.366 . S
C7392 C7394 1.388 . S
C7393 C7392 1.366 . S
C7393 C7397 1.385 . S
C7394 H7375 0.951 . S
C7394 C7392 1.388 . S
C7394 C7395 1.366 . S
C7395 C7394 1.366 . S
C7395 C7396 1.414 . S
C7395 C7398 1.499 . S
C7396 H7376 0.950 . S
C7396 C7395 1.414 . S
C7396 C7397 1.374 . S
C7397 H7377 0.950 . S
C7397 C7393 1.385 . S
C7397 C7396 1.374 . S
C7398 C7395 1.499 . S
C7398 C7399 1.373 . S
C7398 C7400 1.389 . S
C7399 H7378 0.950 . S
C7399 C7398 1.373 . S
C7399 C7415 1.377 1_455 S
C7400 C7398 1.389 . S
C7400 C7401 1.524 . S
C7400 C7414 1.377 . S
C7401 C7400 1.524 . S
C7401 C7402 1.397 . S
C7401 C7406 1.363 . S
C7402 H7379 0.950 . S
C7402 C7401 1.397 . S
C7402 C7403 1.334 . S
C7403 H7380 0.950 . S
C7403 C7402 1.334 . S
C7403 C7404 1.287 . S
C7404 C7403 1.287 . S
C7404 C7405 1.524 . S
C7404 H7423 0.913 . S
C7405 H7381 0.950 1_565 S
C7405 C7404 1.524 . S
C7405 C7406 1.415 . S
C7406 H7382 0.950 . S
C7406 C7401 1.363 . S
C7406 C7405 1.415 . S
C7407 H7383 0.951 . S
C7407 C7408 1.366 . S
C7407 C7409 1.388 . S
C7408 C7407 1.366 . S
C7408 C7412 1.385 . S
C7409 H7384 0.951 . S
C7409 C7407 1.388 . S
C7409 C7410 1.366 . S
C7410 C7409 1.366 . S
C7410 C7411 1.414 . S
C7410 C7413 1.499 . S
C7411 H7385 0.950 . S
C7411 C7410 1.414 . S
C7411 C7412 1.374 . S
C7412 H7386 0.950 . S
C7412 C7408 1.385 . S
C7412 C7411 1.374 . S
C7413 C7410 1.499 . S
C7413 C7414 1.373 1_655 S
C7413 C7415 1.389 . S
C7414 H7387 0.950 . S
C7414 C7400 1.377 . S
C7414 C7413 1.373 1_455 S
C7415 C7399 1.377 1_655 S
C7415 C7413 1.389 . S
C7415 C7416 1.524 . S
C7416 C7415 1.524 . S
C7416 C7417 1.397 . S
C7416 C7421 1.363 . S
C7417 H7388 0.950 . S
C7417 C7416 1.397 . S
C7417 C7418 1.334 . S
C7418 H7389 0.950 . S
C7418 C7417 1.334 . S
C7418 C7419 1.287 . S
C7419 C7418 1.287 . S
C7419 C7420 1.524 . S
C7419 H7422 0.999 . S
C7420 H7390 0.950 . S
C7420 C7419 1.524 . S
C7420 C7421 1.415 . S
C7421 H7391 0.950 . S
C7421 C7416 1.363 . S
C7421 C7420 1.415 . S
H7422 C7419 0.999 . S
H7423 C7404 0.913 . S
H7424 C7442 0.951 . S
H7425 C7444 0.951 . S
H7426 C7446 0.950 . S
H7427 C7447 0.950 . S
H7428 C7449 0.950 . S
H7429 C7452 0.950 . S
H7430 C7453 0.950 . S
H7431 C7455 0.950 . S
H7432 C7456 0.950 . S
H7433 C7457 0.951 . S
H7434 C7459 0.951 . S
H7435 C7461 0.950 . S
H7436 C7462 0.950 . S
H7437 C7464 0.950 . S
H7438 C7467 0.950 . S
H7439 C7468 0.950 . S
H7440 C7470 0.950 . S
H7441 C7471 0.950 . S
C7442 H7424 0.951 . S
C7442 C7443 1.366 . S
C7442 C7444 1.388 . S
C7443 C7442 1.366 . S
C7443 C7447 1.385 . S
C7444 H7425 0.951 . S
C7444 C7442 1.388 . S
C7444 C7445 1.366 . S
C7445 C7444 1.366 . S
C7445 C7446 1.414 . S
C7445 C7448 1.499 . S
C7446 H7426 0.950 . S
C7446 C7445 1.414 . S
C7446 C7447 1.374 . S
C7447 H7427 0.950 . S
C7447 C7443 1.385 . S
C7447 C7446 1.374 . S
C7448 C7445 1.499 . S
C7448 C7449 1.373 . S
C7448 C7450 1.389 . S
C7449 H7428 0.950 . S
C7449 C7448 1.373 . S
C7449 C7465 1.377 . S
C7450 C7448 1.389 . S
C7450 C7451 1.524 . S
C7450 C7464 1.377 . S
C7451 C7450 1.524 . S
C7451 C7452 1.397 . S
C7451 C7456 1.363 . S
C7452 H7429 0.950 . S
C7452 C7451 1.397 . S
C7452 C7453 1.334 . S
C7453 H7430 0.950 . S
C7453 C7452 1.334 . S
C7453 C7454 1.287 . S
C7454 C7453 1.287 . S
C7454 C7455 1.524 . S
C7454 H7473 0.913 . S
C7455 H7431 0.950 . S
C7455 C7454 1.524 . S
C7455 C7456 1.415 . S
C7456 H7432 0.950 . S
C7456 C7451 1.363 . S
C7456 C7455 1.415 . S
C7457 H7433 0.951 . S
C7457 C7458 1.366 . S
C7457 C7459 1.388 . S
C7458 C7457 1.366 . S
C7458 C7462 1.385 . S
C7459 H7434 0.951 . S
C7459 C7457 1.388 . S
C7459 C7460 1.366 . S
C7460 C7459 1.366 . S
C7460 C7461 1.414 . S
C7460 C7463 1.499 . S
C7461 H7435 0.950 . S
C7461 C7460 1.414 . S
C7461 C7462 1.374 . S
C7462 H7436 0.950 . S
C7462 C7458 1.385 . S
C7462 C7461 1.374 . S
C7463 C7460 1.499 . S
C7463 C7464 1.373 . S
C7463 C7465 1.389 . S
C7464 H7437 0.950 . S
C7464 C7450 1.377 . S
C7464 C7463 1.373 . S
C7465 C7449 1.377 . S
C7465 C7463 1.389 . S
C7465 C7466 1.524 . S
C7466 C7465 1.524 . S
C7466 C7467 1.397 . S
C7466 C7471 1.363 . S
C7467 H7438 0.950 . S
C7467 C7466 1.397 . S
C7467 C7468 1.334 . S
C7468 H7439 0.950 . S
C7468 C7467 1.334 . S
C7468 C7469 1.287 . S
C7469 C7468 1.287 . S
C7469 C7470 1.524 . S
C7469 H7472 0.999 . S
C7470 H7440 0.950 . S
C7470 C7469 1.524 . S
C7470 C7471 1.415 . S
C7471 H7441 0.950 . S
C7471 C7466 1.363 . S
C7471 C7470 1.415 . S
H7472 C7469 0.999 . S
H7473 C7454 0.913 . S
H7474 C7492 0.951 1_455 S
H7475 C7494 0.951 . S
H7476 C7496 0.950 . S
H7477 C7497 0.950 . S
H7478 C7499 0.950 . S
H7479 C7502 0.950 . S
H7480 C7503 0.950 . S
H7481 C7505 0.950 . S
H7482 C7506 0.950 . S
H7483 C7507 0.951 . S
H7484 C7509 0.951 1_545 S
H7485 C7511 0.950 . S
H7486 C7512 0.950 . S
H7487 C7514 0.950 . S
H7488 C7517 0.950 1_565 S
H7489 C7518 0.950 . S
H7490 C7520 0.950 . S
H7491 C7521 0.950 . S
C7492 H7474 0.951 1_655 S
C7492 C7493 1.366 . S
C7492 C7494 1.388 . S
C7493 C7492 1.366 . S
C7493 C7497 1.385 . S
C7494 H7475 0.951 . S
C7494 C7492 1.388 . S
C7494 C7495 1.366 . S
C7495 C7494 1.366 . S
C7495 C7496 1.414 . S
C7495 C7498 1.499 . S
C7496 H7476 0.950 . S
C7496 C7495 1.414 . S
C7496 C7497 1.374 . S
C7497 H7477 0.950 . S
C7497 C7493 1.385 . S
C7497 C7496 1.374 . S
C7498 C7495 1.499 . S
C7498 C7499 1.373 . S
C7498 C7500 1.389 . S
C7499 H7478 0.950 . S
C7499 C7498 1.373 . S
C7499 C7515 1.377 . S
C7500 C7498 1.389 . S
C7500 C7501 1.524 . S
C7500 C7514 1.377 . S
C7501 C7500 1.524 . S
C7501 C7502 1.397 . S
C7501 C7506 1.363 . S
C7502 H7479 0.950 . S
C7502 C7501 1.397 . S
C7502 C7503 1.334 . S
C7503 H7480 0.950 . S
C7503 C7502 1.334 . S
C7503 C7504 1.287 . S
C7504 C7503 1.287 . S
C7504 C7505 1.524 . S
C7504 H7523 0.913 . S
C7505 H7481 0.950 . S
C7505 C7504 1.524 . S
C7505 C7506 1.415 . S
C7506 H7482 0.950 . S
C7506 C7501 1.363 . S
C7506 C7505 1.415 . S
C7507 H7483 0.951 . S
C7507 C7508 1.366 . S
C7507 C7509 1.388 . S
C7508 C7507 1.366 . S
C7508 C7512 1.385 . S
C7509 H7484 0.951 1_565 S
C7509 C7507 1.388 . S
C7509 C7510 1.366 . S
C7510 C7509 1.366 . S
C7510 C7511 1.414 . S
C7510 C7513 1.499 1_565 S
C7511 H7485 0.950 . S
C7511 C7510 1.414 . S
C7511 C7512 1.374 . S
C7512 H7486 0.950 . S
C7512 C7508 1.385 . S
C7512 C7511 1.374 . S
C7513 C7510 1.499 1_545 S
C7513 C7514 1.373 . S
C7513 C7515 1.389 . S
C7514 H7487 0.950 . S
C7514 C7500 1.377 . S
C7514 C7513 1.373 . S
C7515 C7499 1.377 . S
C7515 C7513 1.389 . S
C7515 C7516 1.524 . S
C7516 C7515 1.524 . S
C7516 C7517 1.397 . S
C7516 C7521 1.363 . S
C7517 H7488 0.950 1_545 S
C7517 C7516 1.397 . S
C7517 C7518 1.334 1_545 S
C7518 H7489 0.950 . S
C7518 C7517 1.334 1_565 S
C7518 C7519 1.287 1_565 S
C7519 C7518 1.287 1_545 S
C7519 C7520 1.524 . S
C7519 H7522 0.999 . S
C7520 H7490 0.950 . S
C7520 C7519 1.524 . S
C7520 C7521 1.415 . S
C7521 H7491 0.950 . S
C7521 C7516 1.363 . S
C7521 C7520 1.415 . S
H7522 C7519 0.999 . S
H7523 C7504 0.913 . S
H7524 C7542 0.951 . S
H7525 C7544 0.951 . S
H7526 C7546 0.950 1_545 S
H7527 C7547 0.950 . S
H7528 C7549 0.950 . S
H7529 C7552 0.950 . S
H7530 C7553 0.950 . S
H7531 C7555 0.950 . S
H7532 C7556 0.950 . S
H7533 C7557 0.951 . S
H7534 C7559 0.951 . S
H7535 C7561 0.950 . S
H7536 C7562 0.950 . S
H7537 C7564 0.950 . S
H7538 C7567 0.950 . S
H7539 C7568 0.950 . S
H7540 C7570 0.950 . S
H7541 C7571 0.950 . S
C7542 H7524 0.951 . S
C7542 C7543 1.366 . S
C7542 C7544 1.388 . S
C7543 C7542 1.366 . S
C7543 C7547 1.385 . S
C7544 H7525 0.951 . S
C7544 C7542 1.388 . S
C7544 C7545 1.366 . S
C7545 C7544 1.366 . S
C7545 C7546 1.414 . S
C7545 C7548 1.499 1_565 S
C7546 H7526 0.950 1_565 S
C7546 C7545 1.414 . S
C7546 C7547 1.374 . S
C7547 H7527 0.950 . S
C7547 C7543 1.385 . S
C7547 C7546 1.374 . S
C7548 C7545 1.499 1_545 S
C7548 C7549 1.373 . S
C7548 C7550 1.389 . S
C7549 H7528 0.950 . S
C7549 C7548 1.373 . S
C7549 C7565 1.377 . S
C7550 C7548 1.389 . S
C7550 C7551 1.524 . S
C7550 C7564 1.377 . S
C7551 C7550 1.524 . S
C7551 C7552 1.397 1_545 S
C7551 C7556 1.363 . S
C7552 H7529 0.950 . S
C7552 C7551 1.397 1_565 S
C7552 C7553 1.334 . S
C7553 H7530 0.950 . S
C7553 C7552 1.334 . S
C7553 C7554 1.287 . S
C7554 C7553 1.287 . S
C7554 C7555 1.524 . S
C7554 H7573 0.913 . S
C7555 H7531 0.950 . S
C7555 C7554 1.524 . S
C7555 C7556 1.415 1_565 S
C7556 H7532 0.950 . S
C7556 C7551 1.363 . S
C7556 C7555 1.415 1_545 S
C7557 H7533 0.951 . S
C7557 C7558 1.366 . S
C7557 C7559 1.388 . S
C7558 C7557 1.366 . S
C7558 C7562 1.385 . S
C7559 H7534 0.951 . S
C7559 C7557 1.388 . S
C7559 C7560 1.366 . S
C7560 C7559 1.366 . S
C7560 C7561 1.414 . S
C7560 C7563 1.499 . S
C7561 H7535 0.950 . S
C7561 C7560 1.414 . S
C7561 C7562 1.374 . S
C7562 H7536 0.950 . S
C7562 C7558 1.385 . S
C7562 C7561 1.374 . S
C7563 C7560 1.499 . S
C7563 C7564 1.373 . S
C7563 C7565 1.389 . S
C7564 H7537 0.950 . S
C7564 C7550 1.377 . S
C7564 C7563 1.373 . S
C7565 C7549 1.377 . S
C7565 C7563 1.389 . S
C7565 C7566 1.524 . S
C7566 C7565 1.524 . S
C7566 C7567 1.397 . S
C7566 C7571 1.363 . S
C7567 H7538 0.950 . S
C7567 C7566 1.397 . S
C7567 C7568 1.334 . S
C7568 H7539 0.950 . S
C7568 C7567 1.334 . S
C7568 C7569 1.287 . S
C7569 C7568 1.287 . S
C7569 C7570 1.524 . S
C7569 H7572 0.999 . S
C7570 H7540 0.950 . S
C7570 C7569 1.524 . S
C7570 C7571 1.415 . S
C7571 H7541 0.950 . S
C7571 C7566 1.363 . S
C7571 C7570 1.415 . S
H7572 C7569 0.999 . S
H7573 C7554 0.913 . S
H7574 C7592 0.951 . S
H7575 C7594 0.951 . S
H7576 C7596 0.950 . S
H7577 C7597 0.950 . S
H7578 C7599 0.950 . S
H7579 C7602 0.950 . S
H7580 C7603 0.950 . S
H7581 C7605 0.950 . S
H7582 C7606 0.950 . S
H7583 C7607 0.951 . S
H7584 C7609 0.951 . S
H7585 C7611 0.950 . S
H7586 C7612 0.950 . S
H7587 C7614 0.950 . S
H7588 C7617 0.950 . S
H7589 C7618 0.950 . S
H7590 C7620 0.950 . S
H7591 C7621 0.950 . S
C7592 H7574 0.951 . S
C7592 C7593 1.366 . S
C7592 C7594 1.388 . S
C7593 C7592 1.366 . S
C7593 C7597 1.385 . S
C7594 H7575 0.951 . S
C7594 C7592 1.388 . S
C7594 C7595 1.366 . S
C7595 C7594 1.366 . S
C7595 C7596 1.414 . S
C7595 C7598 1.499 . S
C7596 H7576 0.950 . S
C7596 C7595 1.414 . S
C7596 C7597 1.374 . S
C7597 H7577 0.950 . S
C7597 C7593 1.385 . S
C7597 C7596 1.374 . S
C7598 C7595 1.499 . S
C7598 C7599 1.373 . S
C7598 C7600 1.389 . S
C7599 H7578 0.950 . S
C7599 C7598 1.373 . S
C7599 C7615 1.377 . S
C7600 C7598 1.389 . S
C7600 C7601 1.524 . S
C7600 C7614 1.377 1_455 S
C7601 C7600 1.524 . S
C7601 C7602 1.397 . S
C7601 C7606 1.363 . S
C7602 H7579 0.950 . S
C7602 C7601 1.397 . S
C7602 C7603 1.334 . S
C7603 H7580 0.950 . S
C7603 C7602 1.334 . S
C7603 C7604 1.287 . S
C7604 C7603 1.287 . S
C7604 C7605 1.524 . S
C7604 H7623 0.913 . S
C7605 H7581 0.950 . S
C7605 C7604 1.524 . S
C7605 C7606 1.415 . S
C7606 H7582 0.950 . S
C7606 C7601 1.363 . S
C7606 C7605 1.415 . S
C7607 H7583 0.951 . S
C7607 C7608 1.366 . S
C7607 C7609 1.388 . S
C7608 C7607 1.366 . S
C7608 C7612 1.385 . S
C7609 H7584 0.951 . S
C7609 C7607 1.388 . S
C7609 C7610 1.366 . S
C7610 C7609 1.366 . S
C7610 C7611 1.414 . S
C7610 C7613 1.499 . S
C7611 H7585 0.950 . S
C7611 C7610 1.414 . S
C7611 C7612 1.374 . S
C7612 H7586 0.950 . S
C7612 C7608 1.385 . S
C7612 C7611 1.374 . S
C7613 C7610 1.499 . S
C7613 C7614 1.373 . S
C7613 C7615 1.389 1_655 S
C7614 H7587 0.950 . S
C7614 C7600 1.377 1_655 S
C7614 C7613 1.373 . S
C7615 C7599 1.377 . S
C7615 C7613 1.389 1_455 S
C7615 C7616 1.524 . S
C7616 C7615 1.524 . S
C7616 C7617 1.397 1_455 S
C7616 C7621 1.363 . S
C7617 H7588 0.950 . S
C7617 C7616 1.397 1_655 S
C7617 C7618 1.334 . S
C7618 H7589 0.950 . S
C7618 C7617 1.334 . S
C7618 C7619 1.287 1_655 S
C7619 C7618 1.287 1_455 S
C7619 C7620 1.524 . S
C7619 H7622 1.013 1_455 S
C7620 H7590 0.950 . S
C7620 C7619 1.524 . S
C7620 C7621 1.415 . S
C7621 H7591 0.950 . S
C7621 C7616 1.363 . S
C7621 C7620 1.415 . S
H7622 C7619 1.013 1_655 S
H7623 C7604 0.913 . S
H7624 C7642 0.951 . S
H7625 C7644 0.951 . S
H7626 C7646 0.950 . S
H7627 C7647 0.932 1_455 S
H7628 C7649 0.950 . S
H7629 C7652 0.950 . S
H7630 C7653 0.950 . S
H7631 C7655 0.950 . S
H7632 C7656 0.950 . S
H7633 C7657 0.951 . S
H7634 C7659 0.951 . S
H7635 C7661 0.950 . S
H7636 C7662 0.950 . S
H7637 C7664 0.950 . S
H7638 C7667 0.950 . S
H7639 C7668 0.950 . S
H7640 C7670 0.950 . S
H7641 C7671 0.950 . S
C7642 H7624 0.951 . S
C7642 C7643 1.366 . S
C7642 C7644 1.388 . S
C7643 C7642 1.366 . S
C7643 C7647 1.375 . S
C7644 H7625 0.951 . S
C7644 C7642 1.388 . S
C7644 C7645 1.366 . S
C7645 C7644 1.366 . S
C7645 C7646 1.414 . S
C7645 C7648 1.499 . S
C7646 H7626 0.950 . S
C7646 C7645 1.414 . S
C7646 C7647 1.402 . S
C7647 H7627 0.932 1_655 S
C7647 C7643 1.375 . S
C7647 C7646 1.402 . S
C7648 C7645 1.499 . S
C7648 C7649 1.373 . S
C7648 C7650 1.389 . S
C7649 H7628 0.950 . S
C7649 C7648 1.373 . S
C7649 C7665 1.377 . S
C7650 C7648 1.389 . S
C7650 C7651 1.524 . S
C7650 C7664 1.377 . S
C7651 C7650 1.524 . S
C7651 C7652 1.397 . S
C7651 C7656 1.363 . S
C7652 H7629 0.950 . S
C7652 C7651 1.397 . S
C7652 C7653 1.334 . S
C7653 H7630 0.950 . S
C7653 C7652 1.334 . S
C7653 C7654 1.287 . S
C7654 C7653 1.287 . S
C7654 C7655 1.524 . S
C7654 H7673 0.913 . S
C7655 H7631 0.950 . S
C7655 C7654 1.524 . S
C7655 C7656 1.415 . S
C7656 H7632 0.950 . S
C7656 C7651 1.363 . S
C7656 C7655 1.415 . S
C7657 H7633 0.951 . S
C7657 C7658 1.366 . S
C7657 C7659 1.388 . S
C7658 C7657 1.366 . S
C7658 C7662 1.385 . S
C7659 H7634 0.951 . S
C7659 C7657 1.388 . S
C7659 C7660 1.366 . S
C7660 C7659 1.366 . S
C7660 C7661 1.414 . S
C7660 C7663 1.499 . S
C7661 H7635 0.950 . S
C7661 C7660 1.414 . S
C7661 C7662 1.374 . S
C7662 H7636 0.950 . S
C7662 C7658 1.385 . S
C7662 C7661 1.374 . S
C7663 C7660 1.499 . S
C7663 C7664 1.373 . S
C7663 C7665 1.389 . S
C7664 H7637 0.950 . S
C7664 C7650 1.377 . S
C7664 C7663 1.373 . S
C7665 C7649 1.377 . S
C7665 C7663 1.389 . S
C7665 C7666 1.524 . S
C7666 C7665 1.524 . S
C7666 C7667 1.397 . S
C7666 C7671 1.363 . S
C7667 H7638 0.950 . S
C7667 C7666 1.397 . S
C7667 C7668 1.334 . S
C7668 H7639 0.950 . S
C7668 C7667 1.334 . S
C7668 C7669 1.287 . S
C7669 C7668 1.287 . S
C7669 C7670 1.524 . S
C7669 H7672 0.999 . S
C7670 H7640 0.950 . S
C7670 C7669 1.524 . S
C7670 C7671 1.415 . S
C7671 H7641 0.950 . S
C7671 C7666 1.363 . S
C7671 C7670 1.415 . S
H7672 C7669 0.999 . S
H7673 C7654 0.913 . S
H7674 C7692 0.951 . S
H7675 C7694 0.951 . S
H7676 C7696 0.950 . S
H7677 C7697 0.950 . S
H7678 C7699 0.950 . S
H7679 C7702 0.950 . S
H7680 C7703 0.950 . S
H7681 C7705 0.950 . S
H7682 C7706 0.950 . S
H7683 C7707 0.951 . S
H7684 C7709 0.951 . S
H7685 C7711 0.950 . S
H7686 C7712 0.950 . S
H7687 C7714 0.950 . S
H7688 C7717 0.950 . S
H7689 C7718 0.950 . S
H7690 C7720 0.950 . S
H7691 C7721 0.950 . S
C7692 H7674 0.951 . S
C7692 C7693 1.366 . S
C7692 C7694 1.388 . S
C7693 C7692 1.366 . S
C7693 C7697 1.385 . S
C7694 H7675 0.951 . S
C7694 C7692 1.388 . S
C7694 C7695 1.366 . S
C7695 C7694 1.366 . S
C7695 C7696 1.414 . S
C7695 C7698 1.499 . S
C7696 H7676 0.950 . S
C7696 C7695 1.414 . S
C7696 C7697 1.374 . S
C7697 H7677 0.950 . S
C7697 C7693 1.385 . S
C7697 C7696 1.374 . S
C7698 C7695 1.499 . S
C7698 C7699 1.373 . S
C7698 C7700 1.389 . S
C7699 H7678 0.950 . S
C7699 C7698 1.373 . S
C7699 C7715 1.377 . S
C7700 C7698 1.389 . S
C7700 C7701 1.524 . S
C7700 C7714 1.377 . S
C7701 C7700 1.524 . S
C7701 C7702 1.397 . S
C7701 C7706 1.363 . S
C7702 H7679 0.950 . S
C7702 C7701 1.397 . S
C7702 C7703 1.334 . S
C7703 H7680 0.950 . S
C7703 C7702 1.334 . S
C7703 C7704 1.287 . S
C7704 C7703 1.287 . S
C7704 C7705 1.524 . S
C7704 H7723 0.913 . S
C7705 H7681 0.950 . S
C7705 C7704 1.524 . S
C7705 C7706 1.415 . S
C7706 H7682 0.950 . S
C7706 C7701 1.363 . S
C7706 C7705 1.415 . S
C7707 H7683 0.951 . S
C7707 C7708 1.366 . S
C7707 C7709 1.388 . S
C7708 C7707 1.366 . S
C7708 C7712 1.385 . S
C7709 H7684 0.951 . S
C7709 C7707 1.388 . S
C7709 C7710 1.366 . S
C7710 C7709 1.366 . S
C7710 C7711 1.414 . S
C7710 C7713 1.499 . S
C7711 H7685 0.950 . S
C7711 C7710 1.414 . S
C7711 C7712 1.374 . S
C7712 H7686 0.950 . S
C7712 C7708 1.385 . S
C7712 C7711 1.374 . S
C7713 C7710 1.499 . S
C7713 C7714 1.373 . S
C7713 C7715 1.389 . S
C7714 H7687 0.950 . S
C7714 C7700 1.377 . S
C7714 C7713 1.373 . S
C7715 C7699 1.377 . S
C7715 C7713 1.389 . S
C7715 C7716 1.524 . S
C7716 C7715 1.524 . S
C7716 C7717 1.397 . S
C7716 C7721 1.363 . S
C7717 H7688 0.950 . S
C7717 C7716 1.397 . S
C7717 C7718 1.334 . S
C7718 H7689 0.950 . S
C7718 C7717 1.334 . S
C7718 C7719 1.287 . S
C7719 C7718 1.287 . S
C7719 C7720 1.524 . S
C7719 H7722 0.999 1_565 S
C7720 H7690 0.950 . S
C7720 C7719 1.524 . S
C7720 C7721 1.415 . S
C7721 H7691 0.950 . S
C7721 C7716 1.363 . S
C7721 C7720 1.415 . S
H7722 C7719 0.999 1_545 S
H7723 C7704 0.913 . S
H7724 C7742 0.951 . S
H7725 C7744 0.951 . S
H7726 C7746 0.950 . S
H7727 C7747 0.950 . S
H7728 C7749 0.950 . S
H7729 C7752 0.950 . S
H7730 C7753 0.950 . S
H7731 C7755 0.950 . S
H7732 C7756 0.950 . S
H7733 C7757 0.951 . S
H7734 C7759 0.951 . S
H7735 C7761 0.950 . S
H7736 C7762 0.950 . S
H7737 C7764 0.950 . S
H7738 C7767 0.950 . S
H7739 C7768 0.950 . S
H7740 C7770 0.950 . S
H7741 C7771 0.950 . S
C7742 H7724 0.951 . S
C7742 C7743 1.366 . S
C7742 C7744 1.388 . S
C7743 C7742 1.366 . S
C7743 C7747 1.385 . S
C7744 H7725 0.951 . S
C7744 C7742 1.388 . S
C7744 C7745 1.366 . S
C7745 C7744 1.366 . S
C7745 C7746 1.414 . S
C7745 C7748 1.499 . S
C7746 H7726 0.950 . S
C7746 C7745 1.414 . S
C7746 C7747 1.374 . S
C7747 H7727 0.950 . S
C7747 C7743 1.385 . S
C7747 C7746 1.374 . S
C7748 C7745 1.499 . S
C7748 C7749 1.373 . S
C7748 C7750 1.389 . S
C7749 H7728 0.950 . S
C7749 C7748 1.373 . S
C7749 C7765 1.377 . S
C7750 C7748 1.389 . S
C7750 C7751 1.524 . S
C7750 C7764 1.377 . S
C7751 C7750 1.524 . S
C7751 C7752 1.397 . S
C7751 C7756 1.363 . S
C7752 H7729 0.950 . S
C7752 C7751 1.397 . S
C7752 C7753 1.334 . S
C7753 H7730 0.950 . S
C7753 C7752 1.334 . S
C7753 C7754 1.287 . S
C7754 C7753 1.287 . S
C7754 C7755 1.524 . S
C7754 H7773 0.913 . S
C7755 H7731 0.950 . S
C7755 C7754 1.524 . S
C7755 C7756 1.415 . S
C7756 H7732 0.950 . S
C7756 C7751 1.363 . S
C7756 C7755 1.415 . S
C7757 H7733 0.951 . S
C7757 C7758 1.366 . S
C7757 C7759 1.388 . S
C7758 C7757 1.366 . S
C7758 C7762 1.385 . S
C7759 H7734 0.951 . S
C7759 C7757 1.388 . S
C7759 C7760 1.366 . S
C7760 C7759 1.366 . S
C7760 C7761 1.414 . S
C7760 C7763 1.499 . S
C7761 H7735 0.950 . S
C7761 C7760 1.414 . S
C7761 C7762 1.374 . S
C7762 H7736 0.950 . S
C7762 C7758 1.385 . S
C7762 C7761 1.374 . S
C7763 C7760 1.499 . S
C7763 C7764 1.373 . S
C7763 C7765 1.389 . S
C7764 H7737 0.950 . S
C7764 C7750 1.377 . S
C7764 C7763 1.373 . S
C7765 C7749 1.377 . S
C7765 C7763 1.389 . S
C7765 C7766 1.524 . S
C7766 C7765 1.524 . S
C7766 C7767 1.397 . S
C7766 C7771 1.363 . S
C7767 H7738 0.950 . S
C7767 C7766 1.397 . S
C7767 C7768 1.334 . S
C7768 H7739 0.950 . S
C7768 C7767 1.334 . S
C7768 C7769 1.287 . S
C7769 C7768 1.287 . S
C7769 C7770 1.524 . S
C7769 H7772 0.999 . S
C7770 H7740 0.950 . S
C7770 C7769 1.524 . S
C7770 C7771 1.415 . S
C7771 H7741 0.950 . S
C7771 C7766 1.363 . S
C7771 C7770 1.415 . S
H7772 C7769 0.999 . S
H7773 C7754 0.913 . S
H7774 C7792 0.951 . S
H7775 C7794 0.951 . S
H7776 C7796 0.950 . S
H7777 C7797 0.950 . S
H7778 C7799 0.950 . S
H7779 C7802 0.950 . S
H7780 C7803 0.950 . S
H7781 C7805 0.950 . S
H7782 C7806 0.950 . S
H7783 C7807 0.951 . S
H7784 C7809 0.951 . S
H7785 C7811 0.950 . S
H7786 C7812 0.950 . S
H7787 C7814 0.950 . S
H7788 C7817 0.950 . S
H7789 C7818 0.950 . S
H7790 C7820 0.950 . S
H7791 C7821 0.950 . S
C7792 H7774 0.951 . S
C7792 C7793 1.366 . S
C7792 C7794 1.388 . S
C7793 C7792 1.366 . S
C7793 C7797 1.385 . S
C7794 H7775 0.951 . S
C7794 C7792 1.388 . S
C7794 C7795 1.366 . S
C7795 C7794 1.366 . S
C7795 C7796 1.414 . S
C7795 C7798 1.499 . S
C7796 H7776 0.950 . S
C7796 C7795 1.414 . S
C7796 C7797 1.374 . S
C7797 H7777 0.950 . S
C7797 C7793 1.385 . S
C7797 C7796 1.374 . S
C7798 C7795 1.499 . S
C7798 C7799 1.373 . S
C7798 C7800 1.389 . S
C7799 H7778 0.950 . S
C7799 C7798 1.373 . S
C7799 C7815 1.377 . S
C7800 C7798 1.389 . S
C7800 C7801 1.524 . S
C7800 C7814 1.377 . S
C7801 C7800 1.524 . S
C7801 C7802 1.397 . S
C7801 C7806 1.363 . S
C7802 H7779 0.950 . S
C7802 C7801 1.397 . S
C7802 C7803 1.334 . S
C7803 H7780 0.950 . S
C7803 C7802 1.334 . S
C7803 C7804 1.287 . S
C7804 C7803 1.287 . S
C7804 C7805 1.524 . S
C7804 H7823 0.913 . S
C7805 H7781 0.950 . S
C7805 C7804 1.524 . S
C7805 C7806 1.415 . S
C7806 H7782 0.950 . S
C7806 C7801 1.363 . S
C7806 C7805 1.415 . S
C7807 H7783 0.951 . S
C7807 C7808 1.366 . S
C7807 C7809 1.388 . S
C7808 C7807 1.366 . S
C7808 C7812 1.385 . S
C7809 H7784 0.951 . S
C7809 C7807 1.388 . S
C7809 C7810 1.366 . S
C7810 C7809 1.366 . S
C7810 C7811 1.414 . S
C7810 C7813 1.499 . S
C7811 H7785 0.950 . S
C7811 C7810 1.414 . S
C7811 C7812 1.374 . S
C7812 H7786 0.950 . S
C7812 C7808 1.385 . S
C7812 C7811 1.374 . S
C7813 C7810 1.499 . S
C7813 C7814 1.373 . S
C7813 C7815 1.389 . S
C7814 H7787 0.950 . S
C7814 C7800 1.377 . S
C7814 C7813 1.373 . S
C7815 C7799 1.377 . S
C7815 C7813 1.389 . S
C7815 C7816 1.524 . S
C7816 C7815 1.524 . S
C7816 C7817 1.397 . S
C7816 C7821 1.363 . S
C7817 H7788 0.950 . S
C7817 C7816 1.397 . S
C7817 C7818 1.334 . S
C7818 H7789 0.950 . S
C7818 C7817 1.334 . S
C7818 C7819 1.287 . S
C7819 C7818 1.287 . S
C7819 C7820 1.524 . S
C7819 H7822 0.999 . S
C7820 H7790 0.950 . S
C7820 C7819 1.524 . S
C7820 C7821 1.415 . S
C7821 H7791 0.950 . S
C7821 C7816 1.363 . S
C7821 C7820 1.415 . S
H7822 C7819 0.999 . S
H7823 C7804 0.913 . S
H7824 C7842 0.951 . S
H7825 C7844 0.951 . S
H7826 C7846 0.950 . S
H7827 C7847 0.950 . S
H7828 C7849 0.950 . S
H7829 C7852 0.950 . S
H7830 C7853 0.950 . S
H7831 C7855 0.950 . S
H7832 C7856 0.950 . S
H7833 C7857 0.951 . S
H7834 C7859 0.951 . S
H7835 C7861 0.950 . S
H7836 C7862 0.950 . S
H7837 C7864 0.950 . S
H7838 C7867 0.950 . S
H7839 C7868 0.950 . S
H7840 C7870 0.950 1_565 S
H7841 C7871 0.950 1_565 S
C7842 H7824 0.951 . S
C7842 C7843 1.366 . S
C7842 C7844 1.388 . S
C7843 C7842 1.366 . S
C7843 C7847 1.385 . S
C7844 H7825 0.951 . S
C7844 C7842 1.388 . S
C7844 C7845 1.366 . S
C7845 C7844 1.366 . S
C7845 C7846 1.414 . S
C7845 C7848 1.499 . S
C7846 H7826 0.950 . S
C7846 C7845 1.414 . S
C7846 C7847 1.374 . S
C7847 H7827 0.950 . S
C7847 C7843 1.385 . S
C7847 C7846 1.374 . S
C7848 C7845 1.499 . S
C7848 C7849 1.373 . S
C7848 C7850 1.389 1_565 S
C7849 H7828 0.950 . S
C7849 C7848 1.373 . S
C7849 C7865 1.377 1_565 S
C7850 C7848 1.389 1_545 S
C7850 C7851 1.524 . S
C7850 C7864 1.377 . S
C7851 C7850 1.524 . S
C7851 C7852 1.397 1_545 S
C7851 C7856 1.363 . S
C7852 H7829 0.950 . S
C7852 C7851 1.397 1_565 S
C7852 C7853 1.334 . S
C7853 H7830 0.950 . S
C7853 C7852 1.334 . S
C7853 C7854 1.287 1_565 S
C7854 C7853 1.287 1_545 S
C7854 C7855 1.524 . S
C7854 H7873 0.913 . S
C7855 H7831 0.950 . S
C7855 C7854 1.524 . S
C7855 C7856 1.415 . S
C7856 H7832 0.950 . S
C7856 C7851 1.363 . S
C7856 C7855 1.415 . S
C7857 H7833 0.951 . S
C7857 C7858 1.366 . S
C7857 C7859 1.388 . S
C7858 C7857 1.366 . S
C7858 C7862 1.385 . S
C7859 H7834 0.951 . S
C7859 C7857 1.388 . S
C7859 C7860 1.366 . S
C7860 C7859 1.366 . S
C7860 C7861 1.414 . S
C7860 C7863 1.499 . S
C7861 H7835 0.950 . S
C7861 C7860 1.414 . S
C7861 C7862 1.374 . S
C7862 H7836 0.950 . S
C7862 C7858 1.385 . S
C7862 C7861 1.374 . S
C7863 C7860 1.499 . S
C7863 C7864 1.373 . S
C7863 C7865 1.389 . S
C7864 H7837 0.950 . S
C7864 C7850 1.377 . S
C7864 C7863 1.373 . S
C7865 C7849 1.377 1_545 S
C7865 C7863 1.389 . S
C7865 C7866 1.524 . S
C7866 C7865 1.524 . S
C7866 C7867 1.397 . S
C7866 C7871 1.363 . S
C7867 H7838 0.950 . S
C7867 C7866 1.397 . S
C7867 C7868 1.334 . S
C7868 H7839 0.950 . S
C7868 C7867 1.334 . S
C7868 C7869 1.287 . S
C7869 C7868 1.287 . S
C7869 C7870 1.524 . S
C7869 H7872 0.999 . S
C7870 H7840 0.950 1_545 S
C7870 C7869 1.524 . S
C7870 C7871 1.415 . S
C7871 H7841 0.950 1_545 S
C7871 C7866 1.363 . S
C7871 C7870 1.415 . S
H7872 C7869 0.999 . S
H7873 C7854 0.913 . S
H7874 C7892 0.951 . S
H7875 C7894 0.951 1_455 S
H7876 C7896 0.950 . S
H7877 C7897 0.950 . S
H7878 C7899 0.950 . S
H7879 C7902 0.950 1_655 S
H7880 C7903 0.950 . S
H7881 C7905 0.950 . S
H7882 C7906 0.950 . S
H7883 C7907 0.951 1_545 S
H7884 C7909 0.951 . S
H7885 C7911 0.950 . S
H7886 C7912 0.950 . S
H7887 C7914 0.950 . S
H7888 C7917 0.950 . S
H7889 C7918 0.950 . S
H7890 C7920 0.950 . S
H7891 C7921 0.950 . S
C7892 H7874 0.951 . S
C7892 C7893 1.366 . S
C7892 C7894 1.388 . S
C7893 C7892 1.366 . S
C7893 C7897 1.385 . S
C7894 H7875 0.951 1_655 S
C7894 C7892 1.388 . S
C7894 C7895 1.366 . S
C7895 C7894 1.366 . S
C7895 C7896 1.414 . S
C7895 C7898 1.499 1_655 S
C7896 H7876 0.950 . S
C7896 C7895 1.414 . S
C7896 C7897 1.374 . S
C7897 H7877 0.950 . S
C7897 C7893 1.385 . S
C7897 C7896 1.374 . S
C7898 C7895 1.499 1_455 S
C7898 C7899 1.373 . S
C7898 C7900 1.389 . S
C7899 H7878 0.950 . S
C7899 C7898 1.373 . S
C7899 C7915 1.377 . S
C7900 C7898 1.389 . S
C7900 C7901 1.524 . S
C7900 C7914 1.377 . S
C7901 C7900 1.524 . S
C7901 C7902 1.397 . S
C7901 C7906 1.363 . S
C7902 H7879 0.950 1_455 S
C7902 C7901 1.397 . S
C7902 C7903 1.334 1_455 S
C7903 H7880 0.950 . S
C7903 C7902 1.334 1_655 S
C7903 C7904 1.287 1_655 S
C7904 C7903 1.287 1_455 S
C7904 C7905 1.524 . S
C7904 H7923 0.913 . S
C7905 H7881 0.950 . S
C7905 C7904 1.524 . S
C7905 C7906 1.415 . S
C7906 H7882 0.950 . S
C7906 C7901 1.363 . S
C7906 C7905 1.415 . S
C7907 H7883 0.951 1_565 S
C7907 C7908 1.366 . S
C7907 C7909 1.388 . S
C7908 C7907 1.366 . S
C7908 C7912 1.385 . S
C7909 H7884 0.951 . S
C7909 C7907 1.388 . S
C7909 C7910 1.366 . S
C7910 C7909 1.366 . S
C7910 C7911 1.414 . S
C7910 C7913 1.499 . S
C7911 H7885 0.950 . S
C7911 C7910 1.414 . S
C7911 C7912 1.374 . S
C7912 H7886 0.950 . S
C7912 C7908 1.385 . S
C7912 C7911 1.374 . S
C7913 C7910 1.499 . S
C7913 C7914 1.373 . S
C7913 C7915 1.389 . S
C7914 H7887 0.950 . S
C7914 C7900 1.377 . S
C7914 C7913 1.373 . S
C7915 C7899 1.377 . S
C7915 C7913 1.389 . S
C7915 C7916 1.524 . S
C7916 C7915 1.524 . S
C7916 C7917 1.397 . S
C7916 C7921 1.363 . S
C7917 H7888 0.950 . S
C7917 C7916 1.397 . S
C7917 C7918 1.334 . S
C7918 H7889 0.950 . S
C7918 C7917 1.334 . S
C7918 C7919 1.287 . S
C7919 C7918 1.287 . S
C7919 C7920 1.524 . S
C7919 H7922 0.999 . S
C7920 H7890 0.950 . S
C7920 C7919 1.524 . S
C7920 C7921 1.415 . S
C7921 H7891 0.950 . S
C7921 C7916 1.363 . S
C7921 C7920 1.415 . S
H7922 C7919 0.999 . S
H7923 C7904 0.913 . S
H7924 C7942 0.951 . S
H7925 C7944 0.951 . S
H7926 C7946 0.950 . S
H7927 C7947 0.950 . S
H7928 C7949 0.950 . S
H7929 C7952 0.950 . S
H7930 C7953 0.950 . S
H7931 C7955 0.950 . S
H7932 C7956 0.950 . S
H7933 C7957 0.951 . S
H7934 C7959 0.951 . S
H7935 C7961 0.950 . S
H7936 C7962 0.950 . S
H7937 C7964 0.950 . S
H7938 C7967 0.950 . S
H7939 C7968 0.950 . S
H7940 C7970 0.950 . S
H7941 C7971 0.950 . S
C7942 H7924 0.951 . S
C7942 C7943 1.366 . S
C7942 C7944 1.388 . S
C7943 C7942 1.366 . S
C7943 C7947 1.385 . S
C7944 H7925 0.951 . S
C7944 C7942 1.388 . S
C7944 C7945 1.366 . S
C7945 C7944 1.366 . S
C7945 C7946 1.414 . S
C7945 C7948 1.499 . S
C7946 H7926 0.950 . S
C7946 C7945 1.414 . S
C7946 C7947 1.374 . S
C7947 H7927 0.950 . S
C7947 C7943 1.385 . S
C7947 C7946 1.374 . S
C7948 C7945 1.499 . S
C7948 C7949 1.373 . S
C7948 C7950 1.389 . S
C7949 H7928 0.950 . S
C7949 C7948 1.373 . S
C7949 C7965 1.377 . S
C7950 C7948 1.389 . S
C7950 C7951 1.524 . S
C7950 C7964 1.377 . S
C7951 C7950 1.524 . S
C7951 C7952 1.397 . S
C7951 C7956 1.363 . S
C7952 H7929 0.950 . S
C7952 C7951 1.397 . S
C7952 C7953 1.334 . S
C7953 H7930 0.950 . S
C7953 C7952 1.334 . S
C7953 C7954 1.287 . S
C7954 C7953 1.287 . S
C7954 C7955 1.524 . S
C7954 H7973 0.913 . S
C7955 H7931 0.950 . S
C7955 C7954 1.524 . S
C7955 C7956 1.415 . S
C7956 H7932 0.950 . S
C7956 C7951 1.363 . S
C7956 C7955 1.415 . S
C7957 H7933 0.951 . S
C7957 C7958 1.366 . S
C7957 C7959 1.388 . S
C7958 C7957 1.366 . S
C7958 C7962 1.385 . S
C7959 H7934 0.951 . S
C7959 C7957 1.388 . S
C7959 C7960 1.366 . S
C7960 C7959 1.366 . S
C7960 C7961 1.414 . S
C7960 C7963 1.499 . S
C7961 H7935 0.950 . S
C7961 C7960 1.414 . S
C7961 C7962 1.374 . S
C7962 H7936 0.950 . S
C7962 C7958 1.385 . S
C7962 C7961 1.374 . S
C7963 C7960 1.499 . S
C7963 C7964 1.373 . S
C7963 C7965 1.389 . S
C7964 H7937 0.950 . S
C7964 C7950 1.377 . S
C7964 C7963 1.373 . S
C7965 C7949 1.377 . S
C7965 C7963 1.389 . S
C7965 C7966 1.524 . S
C7966 C7965 1.524 . S
C7966 C7967 1.397 . S
C7966 C7971 1.363 . S
C7967 H7938 0.950 . S
C7967 C7966 1.397 . S
C7967 C7968 1.334 . S
C7968 H7939 0.950 . S
C7968 C7967 1.334 . S
C7968 C7969 1.287 . S
C7969 C7968 1.287 . S
C7969 C7970 1.524 . S
C7969 H7972 0.999 . S
C7970 H7940 0.950 . S
C7970 C7969 1.524 . S
C7970 C7971 1.415 . S
C7971 H7941 0.950 . S
C7971 C7966 1.363 . S
C7971 C7970 1.415 . S
H7972 C7969 0.999 . S
H7973 C7954 0.913 . S
H7974 C7992 0.951 . S
H7975 C7994 0.951 . S
H7976 C7996 0.950 . S
H7977 C7997 0.950 . S
H7978 C7999 0.950 . S
H7979 C8002 0.950 . S
H7980 C8003 0.950 . S
H7981 C8005 0.950 . S
H7982 C8006 0.950 . S
H7983 C8007 0.951 . S
H7984 C8009 0.951 . S
H7985 C8011 0.950 . S
H7986 C8012 0.950 . S
H7987 C8014 0.950 . S
H7988 C8017 0.950 . S
H7989 C8018 0.950 . S
H7990 C8020 0.950 . S
H7991 C8021 0.950 . S
C7992 H7974 0.951 . S
C7992 C7993 1.366 . S
C7992 C7994 1.388 . S
C7993 C7992 1.366 . S
C7993 C7997 1.385 . S
C7994 H7975 0.951 . S
C7994 C7992 1.388 . S
C7994 C7995 1.366 . S
C7995 C7994 1.366 . S
C7995 C7996 1.414 . S
C7995 C7998 1.499 . S
C7996 H7976 0.950 . S
C7996 C7995 1.414 . S
C7996 C7997 1.374 . S
C7997 H7977 0.950 . S
C7997 C7993 1.385 . S
C7997 C7996 1.374 . S
C7998 C7995 1.499 . S
C7998 C7999 1.373 . S
C7998 C8000 1.389 . S
C7999 H7978 0.950 . S
C7999 C7998 1.373 . S
C7999 C8015 1.377 . S
C8000 C7998 1.389 . S
C8000 C8001 1.524 . S
C8000 C8014 1.377 . S
C8001 C8000 1.524 . S
C8001 C8002 1.397 . S
C8001 C8006 1.363 . S
C8002 H7979 0.950 . S
C8002 C8001 1.397 . S
C8002 C8003 1.334 . S
C8003 H7980 0.950 . S
C8003 C8002 1.334 . S
C8003 C8004 1.287 . S
C8004 C8003 1.287 . S
C8004 C8005 1.524 . S
C8004 H8023 0.913 . S
C8005 H7981 0.950 . S
C8005 C8004 1.524 . S
C8005 C8006 1.415 . S
C8006 H7982 0.950 . S
C8006 C8001 1.363 . S
C8006 C8005 1.415 . S
C8007 H7983 0.951 . S
C8007 C8008 1.366 . S
C8007 C8009 1.388 . S
C8008 C8007 1.366 . S
C8008 C8012 1.385 . S
C8009 H7984 0.951 . S
C8009 C8007 1.388 . S
C8009 C8010 1.366 . S
C8010 C8009 1.366 . S
C8010 C8011 1.414 . S
C8010 C8013 1.499 . S
C8011 H7985 0.950 . S
C8011 C8010 1.414 . S
C8011 C8012 1.374 . S
C8012 H7986 0.950 . S
C8012 C8008 1.385 . S
C8012 C8011 1.374 . S
C8013 C8010 1.499 . S
C8013 C8014 1.373 . S
C8013 C8015 1.389 . S
C8014 H7987 0.950 . S
C8014 C8000 1.377 . S
C8014 C8013 1.373 . S
C8015 C7999 1.377 . S
C8015 C8013 1.389 . S
C8015 C8016 1.524 . S
C8016 C8015 1.524 . S
C8016 C8017 1.397 . S
C8016 C8021 1.363 . S
C8017 H7988 0.950 . S
C8017 C8016 1.397 . S
C8017 C8018 1.334 . S
C8018 H7989 0.950 . S
C8018 C8017 1.334 . S
C8018 C8019 1.287 . S
C8019 C8018 1.287 . S
C8019 C8020 1.524 . S
C8019 H8022 0.999 . S
C8020 H7990 0.950 . S
C8020 C8019 1.524 . S
C8020 C8021 1.415 . S
C8021 H7991 0.950 . S
C8021 C8016 1.363 . S
C8021 C8020 1.415 . S
H8022 C8019 0.999 . S
H8023 C8004 0.913 . S
H8024 C8042 0.951 . S
H8025 C8044 0.951 . S
H8026 C8046 0.950 . S
H8027 C8047 0.950 . S
H8028 C8049 0.950 . S
H8029 C8052 0.950 . S
H8030 C8053 0.950 . S
H8031 C8055 0.950 . S
H8032 C8056 0.950 . S
H8033 C8057 0.951 . S
H8034 C8059 0.951 . S
H8035 C8061 0.950 . S
H8036 C8062 0.950 . S
H8037 C8064 0.950 . S
H8038 C8067 0.950 . S
H8039 C8068 0.950 . S
H8040 C8070 0.950 . S
H8041 C8071 0.950 . S
C8042 H8024 0.951 . S
C8042 C8043 1.366 . S
C8042 C8044 1.388 . S
C8043 C8042 1.366 . S
C8043 C8047 1.385 . S
C8044 H8025 0.951 . S
C8044 C8042 1.388 . S
C8044 C8045 1.366 . S
C8045 C8044 1.366 . S
C8045 C8046 1.414 . S
C8045 C8048 1.499 . S
C8046 H8026 0.950 . S
C8046 C8045 1.414 . S
C8046 C8047 1.374 . S
C8047 H8027 0.950 . S
C8047 C8043 1.385 . S
C8047 C8046 1.374 . S
C8048 C8045 1.499 . S
C8048 C8049 1.373 . S
C8048 C8050 1.389 . S
C8049 H8028 0.950 . S
C8049 C8048 1.373 . S
C8049 C8065 1.377 . S
C8050 C8048 1.389 . S
C8050 C8051 1.524 . S
C8050 C8064 1.377 . S
C8051 C8050 1.524 . S
C8051 C8052 1.397 . S
C8051 C8056 1.363 . S
C8052 H8029 0.950 . S
C8052 C8051 1.397 . S
C8052 C8053 1.334 . S
C8053 H8030 0.950 . S
C8053 C8052 1.334 . S
C8053 C8054 1.287 . S
C8054 C8053 1.287 . S
C8054 C8055 1.524 . S
C8054 H8073 0.913 . S
C8055 H8031 0.950 . S
C8055 C8054 1.524 . S
C8055 C8056 1.415 . S
C8056 H8032 0.950 . S
C8056 C8051 1.363 . S
C8056 C8055 1.415 . S
C8057 H8033 0.951 . S
C8057 C8058 1.366 . S
C8057 C8059 1.388 . S
C8058 C8057 1.366 . S
C8058 C8062 1.385 . S
C8059 H8034 0.951 . S
C8059 C8057 1.388 . S
C8059 C8060 1.366 . S
C8060 C8059 1.366 . S
C8060 C8061 1.414 . S
C8060 C8063 1.499 . S
C8061 H8035 0.950 . S
C8061 C8060 1.414 . S
C8061 C8062 1.374 . S
C8062 H8036 0.950 . S
C8062 C8058 1.385 . S
C8062 C8061 1.374 . S
C8063 C8060 1.499 . S
C8063 C8064 1.373 . S
C8063 C8065 1.389 . S
C8064 H8037 0.950 . S
C8064 C8050 1.377 . S
C8064 C8063 1.373 . S
C8065 C8049 1.377 . S
C8065 C8063 1.389 . S
C8065 C8066 1.524 . S
C8066 C8065 1.524 . S
C8066 C8067 1.397 . S
C8066 C8071 1.363 . S
C8067 H8038 0.950 . S
C8067 C8066 1.397 . S
C8067 C8068 1.334 . S
C8068 H8039 0.950 . S
C8068 C8067 1.334 . S
C8068 C8069 1.287 . S
C8069 C8068 1.287 . S
C8069 C8070 1.524 . S
C8069 H8072 0.999 . S
C8070 H8040 0.950 . S
C8070 C8069 1.524 . S
C8070 C8071 1.415 . S
C8071 H8041 0.950 . S
C8071 C8066 1.363 . S
C8071 C8070 1.415 . S
H8072 C8069 0.999 . S
H8073 C8054 0.913 . S
H8074 C8092 0.951 . S
H8075 C8094 0.951 . S
H8076 C8096 0.950 . S
H8077 C8097 0.950 . S
H8078 C8099 0.950 . S
H8079 C8102 0.950 . S
H8080 C8103 0.950 . S
H8081 C8105 0.950 . S
H8082 C8106 0.950 . S
H8083 C8107 0.951 . S
H8084 C8109 0.951 . S
H8085 C8111 0.950 . S
H8086 C8112 0.950 . S
H8087 C8114 0.950 . S
H8088 C8117 0.950 . S
H8089 C8118 0.950 . S
H8090 C8120 0.950 . S
H8091 C8121 0.950 . S
C8092 H8074 0.951 . S
C8092 C8093 1.366 . S
C8092 C8094 1.388 . S
C8093 C8092 1.366 . S
C8093 C8097 1.385 . S
C8094 H8075 0.951 . S
C8094 C8092 1.388 . S
C8094 C8095 1.366 . S
C8095 C8094 1.366 . S
C8095 C8096 1.414 . S
C8095 C8098 1.499 . S
C8096 H8076 0.950 . S
C8096 C8095 1.414 . S
C8096 C8097 1.374 . S
C8097 H8077 0.950 . S
C8097 C8093 1.385 . S
C8097 C8096 1.374 . S
C8098 C8095 1.499 . S
C8098 C8099 1.373 . S
C8098 C8100 1.389 . S
C8099 H8078 0.950 . S
C8099 C8098 1.373 . S
C8099 C8115 1.377 . S
C8100 C8098 1.389 . S
C8100 C8101 1.524 . S
C8100 C8114 1.377 . S
C8101 C8100 1.524 . S
C8101 C8102 1.397 . S
C8101 C8106 1.363 . S
C8102 H8079 0.950 . S
C8102 C8101 1.397 . S
C8102 C8103 1.334 . S
C8103 H8080 0.950 . S
C8103 C8102 1.334 . S
C8103 C8104 1.287 . S
C8104 C8103 1.287 . S
C8104 C8105 1.524 . S
C8104 H8123 0.913 . S
C8105 H8081 0.950 . S
C8105 C8104 1.524 . S
C8105 C8106 1.415 . S
C8106 H8082 0.950 . S
C8106 C8101 1.363 . S
C8106 C8105 1.415 . S
C8107 H8083 0.951 . S
C8107 C8108 1.366 . S
C8107 C8109 1.388 . S
C8108 C8107 1.366 . S
C8108 C8112 1.385 . S
C8109 H8084 0.951 . S
C8109 C8107 1.388 . S
C8109 C8110 1.366 . S
C8110 C8109 1.366 . S
C8110 C8111 1.414 . S
C8110 C8113 1.499 . S
C8111 H8085 0.950 . S
C8111 C8110 1.414 . S
C8111 C8112 1.374 . S
C8112 H8086 0.950 . S
C8112 C8108 1.385 . S
C8112 C8111 1.374 . S
C8113 C8110 1.499 . S
C8113 C8114 1.373 . S
C8113 C8115 1.389 . S
C8114 H8087 0.950 . S
C8114 C8100 1.377 . S
C8114 C8113 1.373 . S
C8115 C8099 1.377 . S
C8115 C8113 1.389 . S
C8115 C8116 1.524 . S
C8116 C8115 1.524 . S
C8116 C8117 1.397 . S
C8116 C8121 1.363 . S
C8117 H8088 0.950 . S
C8117 C8116 1.397 . S
C8117 C8118 1.334 . S
C8118 H8089 0.950 . S
C8118 C8117 1.334 . S
C8118 C8119 1.287 . S
C8119 C8118 1.287 . S
C8119 C8120 1.524 . S
C8119 H8122 0.999 . S
C8120 H8090 0.950 . S
C8120 C8119 1.524 . S
C8120 C8121 1.415 . S
C8121 H8091 0.950 . S
C8121 C8116 1.363 . S
C8121 C8120 1.415 . S
H8122 C8119 0.999 . S
H8123 C8104 0.913 . S
H8124 C8142 0.951 . S
H8125 C8144 0.951 . S
H8126 C8146 0.950 . S
H8127 C8147 0.950 . S
H8128 C8149 0.950 . S
H8129 C8152 0.950 . S
H8130 C8153 0.950 . S
H8131 C8155 0.950 . S
H8132 C8156 0.950 . S
H8133 C8157 0.951 . S
H8134 C8159 0.951 . S
H8135 C8161 0.950 . S
H8136 C8162 0.950 . S
H8137 C8164 0.950 . S
H8138 C8167 0.950 . S
H8139 C8168 0.950 . S
H8140 C8170 0.950 . S
H8141 C8171 0.950 . S
C8142 H8124 0.951 . S
C8142 C8143 1.366 . S
C8142 C8144 1.388 . S
C8143 C8142 1.366 . S
C8143 C8147 1.385 . S
C8144 H8125 0.951 . S
C8144 C8142 1.388 . S
C8144 C8145 1.366 . S
C8145 C8144 1.366 . S
C8145 C8146 1.414 . S
C8145 C8148 1.499 . S
C8146 H8126 0.950 . S
C8146 C8145 1.414 . S
C8146 C8147 1.374 . S
C8147 H8127 0.950 . S
C8147 C8143 1.385 . S
C8147 C8146 1.374 . S
C8148 C8145 1.499 . S
C8148 C8149 1.373 . S
C8148 C8150 1.389 . S
C8149 H8128 0.950 . S
C8149 C8148 1.373 . S
C8149 C8165 1.377 . S
C8150 C8148 1.389 . S
C8150 C8151 1.524 . S
C8150 C8164 1.377 . S
C8151 C8150 1.524 . S
C8151 C8152 1.397 . S
C8151 C8156 1.363 . S
C8152 H8129 0.950 . S
C8152 C8151 1.397 . S
C8152 C8153 1.334 . S
C8153 H8130 0.950 . S
C8153 C8152 1.334 . S
C8153 C8154 1.287 . S
C8154 C8153 1.287 . S
C8154 C8155 1.524 . S
C8154 H8173 0.913 . S
C8155 H8131 0.950 . S
C8155 C8154 1.524 . S
C8155 C8156 1.415 . S
C8156 H8132 0.950 . S
C8156 C8151 1.363 . S
C8156 C8155 1.415 . S
C8157 H8133 0.951 . S
C8157 C8158 1.366 . S
C8157 C8159 1.388 . S
C8158 C8157 1.366 . S
C8158 C8162 1.385 . S
C8159 H8134 0.951 . S
C8159 C8157 1.388 . S
C8159 C8160 1.366 . S
C8160 C8159 1.366 . S
C8160 C8161 1.414 . S
C8160 C8163 1.499 . S
C8161 H8135 0.950 . S
C8161 C8160 1.414 . S
C8161 C8162 1.374 . S
C8162 H8136 0.950 . S
C8162 C8158 1.385 . S
C8162 C8161 1.374 . S
C8163 C8160 1.499 . S
C8163 C8164 1.373 . S
C8163 C8165 1.389 . S
C8164 H8137 0.950 . S
C8164 C8150 1.377 . S
C8164 C8163 1.373 . S
C8165 C8149 1.377 . S
C8165 C8163 1.389 . S
C8165 C8166 1.524 . S
C8166 C8165 1.524 . S
C8166 C8167 1.397 . S
C8166 C8171 1.363 . S
C8167 H8138 0.950 . S
C8167 C8166 1.397 . S
C8167 C8168 1.334 . S
C8168 H8139 0.950 . S
C8168 C8167 1.334 . S
C8168 C8169 1.287 . S
C8169 C8168 1.287 . S
C8169 C8170 1.524 . S
C8169 H8172 0.999 . S
C8170 H8140 0.950 . S
C8170 C8169 1.524 . S
C8170 C8171 1.415 . S
C8171 H8141 0.950 . S
C8171 C8166 1.363 . S
C8171 C8170 1.415 . S
H8172 C8169 0.999 . S
H8173 C8154 0.913 . S
H8174 C8192 0.951 . S
H8175 C8194 0.951 . S
H8176 C8196 0.950 . S
H8177 C8197 0.950 . S
H8178 C8199 0.950 . S
H8179 C8202 0.950 . S
H8180 C8203 0.950 . S
H8181 C8205 0.950 . S
H8182 C8206 0.950 . S
H8183 C8207 0.951 . S
H8184 C8209 0.951 . S
H8185 C8211 0.950 . S
H8186 C8212 0.950 . S
H8187 C8214 0.950 . S
H8188 C8217 0.950 . S
H8189 C8218 0.950 . S
H8190 C8220 0.950 . S
H8191 C8221 0.950 . S
C8192 H8174 0.951 . S
C8192 C8193 1.366 . S
C8192 C8194 1.388 . S
C8193 C8192 1.366 . S
C8193 C8197 1.385 . S
C8194 H8175 0.951 . S
C8194 C8192 1.388 . S
C8194 C8195 1.366 . S
C8195 C8194 1.366 . S
C8195 C8196 1.414 . S
C8195 C8198 1.499 . S
C8196 H8176 0.950 . S
C8196 C8195 1.414 . S
C8196 C8197 1.374 . S
C8197 H8177 0.950 . S
C8197 C8193 1.385 . S
C8197 C8196 1.374 . S
C8198 C8195 1.499 . S
C8198 C8199 1.373 . S
C8198 C8200 1.389 . S
C8199 H8178 0.950 . S
C8199 C8198 1.373 . S
C8199 C8215 1.377 . S
C8200 C8198 1.389 . S
C8200 C8201 1.524 . S
C8200 C8214 1.377 . S
C8201 C8200 1.524 . S
C8201 C8202 1.397 . S
C8201 C8206 1.363 . S
C8202 H8179 0.950 . S
C8202 C8201 1.397 . S
C8202 C8203 1.334 . S
C8203 H8180 0.950 . S
C8203 C8202 1.334 . S
C8203 C8204 1.287 . S
C8204 C8203 1.287 . S
C8204 C8205 1.524 . S
C8204 H8223 0.913 . S
C8205 H8181 0.950 . S
C8205 C8204 1.524 . S
C8205 C8206 1.415 . S
C8206 H8182 0.950 . S
C8206 C8201 1.363 . S
C8206 C8205 1.415 . S
C8207 H8183 0.951 . S
C8207 C8208 1.366 . S
C8207 C8209 1.388 . S
C8208 C8207 1.366 . S
C8208 C8212 1.385 . S
C8209 H8184 0.951 . S
C8209 C8207 1.388 . S
C8209 C8210 1.366 . S
C8210 C8209 1.366 . S
C8210 C8211 1.414 . S
C8210 C8213 1.499 . S
C8211 H8185 0.950 . S
C8211 C8210 1.414 . S
C8211 C8212 1.374 . S
C8212 H8186 0.950 . S
C8212 C8208 1.385 . S
C8212 C8211 1.374 . S
C8213 C8210 1.499 . S
C8213 C8214 1.373 . S
C8213 C8215 1.389 . S
C8214 H8187 0.950 . S
C8214 C8200 1.377 . S
C8214 C8213 1.373 . S
C8215 C8199 1.377 . S
C8215 C8213 1.389 . S
C8215 C8216 1.524 . S
C8216 C8215 1.524 . S
C8216 C8217 1.397 . S
C8216 C8221 1.363 . S
C8217 H8188 0.950 . S
C8217 C8216 1.397 . S
C8217 C8218 1.334 . S
C8218 H8189 0.950 . S
C8218 C8217 1.334 . S
C8218 C8219 1.287 . S
C8219 C8218 1.287 . S
C8219 C8220 1.524 . S
C8219 H8222 0.999 . S
C8220 H8190 0.950 . S
C8220 C8219 1.524 . S
C8220 C8221 1.415 . S
C8221 H8191 0.950 . S
C8221 C8216 1.363 . S
C8221 C8220 1.415 . S
H8222 C8219 0.999 . S
H8223 C8204 0.913 . S
H8224 C8242 0.951 . S
H8225 C8244 0.951 . S
H8226 C8246 0.950 . S
H8227 C8247 0.950 . S
H8228 C8249 0.950 . S
H8229 C8252 0.950 . S
H8230 C8253 0.950 . S
H8231 C8255 0.950 . S
H8232 C8256 0.950 . S
H8233 C8257 0.951 . S
H8234 C8259 0.951 . S
H8235 C8261 0.950 . S
H8236 C8262 0.950 . S
H8237 C8264 0.950 . S
H8238 C8267 0.950 . S
H8239 C8268 0.950 . S
H8240 C8270 0.950 . S
H8241 C8271 0.950 . S
C8242 H8224 0.951 . S
C8242 C8243 1.366 . S
C8242 C8244 1.388 . S
C8243 C8242 1.366 . S
C8243 C8247 1.385 . S
C8244 H8225 0.951 . S
C8244 C8242 1.388 . S
C8244 C8245 1.366 . S
C8245 C8244 1.366 . S
C8245 C8246 1.414 . S
C8245 C8248 1.499 . S
C8246 H8226 0.950 . S
C8246 C8245 1.414 . S
C8246 C8247 1.374 . S
C8247 H8227 0.950 . S
C8247 C8243 1.385 . S
C8247 C8246 1.374 . S
C8248 C8245 1.499 . S
C8248 C8249 1.373 . S
C8248 C8250 1.389 . S
C8249 H8228 0.950 . S
C8249 C8248 1.373 . S
C8249 C8265 1.377 . S
C8250 C8248 1.389 . S
C8250 C8251 1.524 . S
C8250 C8264 1.377 . S
C8251 C8250 1.524 . S
C8251 C8252 1.397 . S
C8251 C8256 1.363 . S
C8252 H8229 0.950 . S
C8252 C8251 1.397 . S
C8252 C8253 1.334 . S
C8253 H8230 0.950 . S
C8253 C8252 1.334 . S
C8253 C8254 1.287 . S
C8254 C8253 1.287 . S
C8254 C8255 1.524 . S
C8254 H8273 0.913 . S
C8255 H8231 0.950 . S
C8255 C8254 1.524 . S
C8255 C8256 1.415 . S
C8256 H8232 0.950 . S
C8256 C8251 1.363 . S
C8256 C8255 1.415 . S
C8257 H8233 0.951 . S
C8257 C8258 1.366 . S
C8257 C8259 1.388 . S
C8258 C8257 1.366 . S
C8258 C8262 1.385 . S
C8259 H8234 0.951 . S
C8259 C8257 1.388 . S
C8259 C8260 1.366 . S
C8260 C8259 1.366 . S
C8260 C8261 1.414 . S
C8260 C8263 1.499 . S
C8261 H8235 0.950 . S
C8261 C8260 1.414 . S
C8261 C8262 1.374 . S
C8262 H8236 0.950 . S
C8262 C8258 1.385 . S
C8262 C8261 1.374 . S
C8263 C8260 1.499 . S
C8263 C8264 1.373 . S
C8263 C8265 1.389 . S
C8264 H8237 0.950 . S
C8264 C8250 1.377 . S
C8264 C8263 1.373 . S
C8265 C8249 1.377 . S
C8265 C8263 1.389 . S
C8265 C8266 1.524 . S
C8266 C8265 1.524 . S
C8266 C8267 1.397 . S
C8266 C8271 1.363 . S
C8267 H8238 0.950 . S
C8267 C8266 1.397 . S
C8267 C8268 1.334 . S
C8268 H8239 0.950 . S
C8268 C8267 1.334 . S
C8268 C8269 1.287 . S
C8269 C8268 1.287 . S
C8269 C8270 1.524 . S
C8269 H8272 0.999 . S
C8270 H8240 0.950 . S
C8270 C8269 1.524 . S
C8270 C8271 1.415 . S
C8271 H8241 0.950 . S
C8271 C8266 1.363 . S
C8271 C8270 1.415 . S
H8272 C8269 0.999 . S
H8273 C8254 0.913 . S
H8274 C8292 0.951 . S
H8275 C8294 0.951 1_455 S
H8276 C8296 0.950 . S
H8277 C8297 0.950 . S
H8278 C8299 0.950 . S
H8279 C8302 0.950 . S
H8280 C8303 0.950 . S
H8281 C8305 0.950 . S
H8282 C8306 0.950 . S
H8283 C8307 0.951 . S
H8284 C8309 0.951 . S
H8285 C8311 0.950 . S
H8286 C8312 0.950 . S
H8287 C8314 0.950 . S
H8288 C8317 0.950 . S
H8289 C8318 0.950 . S
H8290 C8320 0.950 . S
H8291 C8321 0.950 . S
C8292 H8274 0.951 . S
C8292 C8293 1.366 . S
C8292 C8294 1.388 . S
C8293 C8292 1.366 . S
C8293 C8297 1.385 . S
C8294 H8275 0.951 1_655 S
C8294 C8292 1.388 . S
C8294 C8295 1.366 . S
C8295 C8294 1.366 . S
C8295 C8296 1.414 . S
C8295 C8298 1.499 1_655 S
C8296 H8276 0.950 . S
C8296 C8295 1.414 . S
C8296 C8297 1.374 . S
C8297 H8277 0.950 . S
C8297 C8293 1.385 . S
C8297 C8296 1.374 . S
C8298 C8295 1.499 1_455 S
C8298 C8299 1.373 . S
C8298 C8300 1.389 . S
C8299 H8278 0.950 . S
C8299 C8298 1.373 . S
C8299 C8315 1.377 . S
C8300 C8298 1.389 . S
C8300 C8301 1.524 . S
C8300 C8314 1.377 . S
C8301 C8300 1.524 . S
C8301 C8302 1.397 . S
C8301 C8306 1.363 . S
C8302 H8279 0.950 . S
C8302 C8301 1.397 . S
C8302 C8303 1.334 . S
C8303 H8280 0.950 . S
C8303 C8302 1.334 . S
C8303 C8304 1.287 . S
C8304 C8303 1.287 . S
C8304 C8305 1.524 . S
C8304 H8323 0.913 . S
C8305 H8281 0.950 . S
C8305 C8304 1.524 . S
C8305 C8306 1.415 . S
C8306 H8282 0.950 . S
C8306 C8301 1.363 . S
C8306 C8305 1.415 . S
C8307 H8283 0.951 . S
C8307 C8308 1.366 . S
C8307 C8309 1.388 . S
C8308 C8307 1.366 . S
C8308 C8312 1.385 . S
C8309 H8284 0.951 . S
C8309 C8307 1.388 . S
C8309 C8310 1.366 . S
C8310 C8309 1.366 . S
C8310 C8311 1.414 . S
C8310 C8313 1.499 . S
C8311 H8285 0.950 . S
C8311 C8310 1.414 . S
C8311 C8312 1.374 . S
C8312 H8286 0.950 . S
C8312 C8308 1.385 . S
C8312 C8311 1.374 . S
C8313 C8310 1.499 . S
C8313 C8314 1.373 . S
C8313 C8315 1.389 . S
C8314 H8287 0.950 . S
C8314 C8300 1.377 . S
C8314 C8313 1.373 . S
C8315 C8299 1.377 . S
C8315 C8313 1.389 . S
C8315 C8316 1.524 . S
C8316 C8315 1.524 . S
C8316 C8317 1.397 . S
C8316 C8321 1.363 . S
C8317 H8288 0.950 . S
C8317 C8316 1.397 . S
C8317 C8318 1.334 . S
C8318 H8289 0.950 . S
C8318 C8317 1.334 . S
C8318 C8319 1.287 . S
C8319 C8318 1.287 . S
C8319 C8320 1.524 . S
C8319 H8322 0.999 . S
C8320 H8290 0.950 . S
C8320 C8319 1.524 . S
C8320 C8321 1.415 . S
C8321 H8291 0.950 . S
C8321 C8316 1.363 . S
C8321 C8320 1.415 . S
H8322 C8319 0.999 . S
H8323 C8304 0.913 . S
H8324 C8342 0.951 . S
H8325 C8344 0.951 . S
H8326 C8346 0.950 . S
H8327 C8347 0.950 1_545 S
H8328 C8349 0.950 . S
H8329 C8352 0.950 . S
H8330 C8353 0.950 . S
H8331 C8355 0.950 . S
H8332 C8356 0.950 . S
H8333 C8357 0.951 . S
H8334 C8359 0.951 . S
H8335 C8361 0.950 . S
H8336 C8362 0.950 . S
H8337 C8364 0.950 . S
H8338 C8367 0.950 . S
H8339 C8368 0.950 . S
H8340 C8370 0.950 1_455 S
H8341 C8371 0.950 . S
C8342 H8324 0.951 . S
C8342 C8343 1.366 . S
C8342 C8344 1.388 . S
C8343 C8342 1.366 . S
C8343 C8347 1.385 . S
C8344 H8325 0.951 . S
C8344 C8342 1.388 . S
C8344 C8345 1.366 . S
C8345 C8344 1.366 . S
C8345 C8346 1.414 . S
C8345 C8348 1.499 . S
C8346 H8326 0.950 . S
C8346 C8345 1.414 . S
C8346 C8347 1.374 . S
C8347 H8327 0.950 1_565 S
C8347 C8343 1.385 . S
C8347 C8346 1.374 . S
C8348 C8345 1.499 . S
C8348 C8349 1.373 . S
C8348 C8350 1.389 . S
C8349 H8328 0.950 . S
C8349 C8348 1.373 . S
C8349 C8365 1.377 . S
C8350 C8348 1.389 . S
C8350 C8351 1.524 . S
C8350 C8364 1.377 . S
C8351 C8350 1.524 . S
C8351 C8352 1.397 . S
C8351 C8356 1.363 . S
C8352 H8329 0.950 . S
C8352 C8351 1.397 . S
C8352 C8353 1.334 . S
C8353 H8330 0.950 . S
C8353 C8352 1.334 . S
C8353 C8354 1.287 . S
C8354 C8353 1.287 . S
C8354 C8355 1.524 . S
C8354 H8373 0.913 . S
C8355 H8331 0.950 . S
C8355 C8354 1.524 . S
C8355 C8356 1.415 . S
C8356 H8332 0.950 . S
C8356 C8351 1.363 . S
C8356 C8355 1.415 . S
C8357 H8333 0.951 . S
C8357 C8358 1.366 . S
C8357 C8359 1.388 . S
C8358 C8357 1.366 . S
C8358 C8362 1.385 . S
C8359 H8334 0.951 . S
C8359 C8357 1.388 . S
C8359 C8360 1.366 . S
C8360 C8359 1.366 . S
C8360 C8361 1.414 . S
C8360 C8363 1.499 . S
C8361 H8335 0.950 . S
C8361 C8360 1.414 . S
C8361 C8362 1.374 . S
C8362 H8336 0.950 . S
C8362 C8358 1.385 . S
C8362 C8361 1.374 . S
C8363 C8360 1.499 . S
C8363 C8364 1.373 . S
C8363 C8365 1.389 . S
C8364 H8337 0.950 . S
C8364 C8350 1.377 . S
C8364 C8363 1.373 . S
C8365 C8349 1.377 . S
C8365 C8363 1.389 . S
C8365 C8366 1.524 . S
C8366 C8365 1.524 . S
C8366 C8367 1.397 . S
C8366 C8371 1.363 . S
C8367 H8338 0.950 . S
C8367 C8366 1.397 . S
C8367 C8368 1.334 . S
C8368 H8339 0.950 . S
C8368 C8367 1.334 . S
C8368 C8369 1.287 . S
C8369 C8368 1.287 . S
C8369 C8370 1.524 . S
C8369 H8372 0.999 1_655 S
C8370 H8340 0.950 1_655 S
C8370 C8369 1.524 . S
C8370 C8371 1.415 . S
C8371 H8341 0.950 . S
C8371 C8366 1.363 . S
C8371 C8370 1.415 . S
H8372 C8369 0.999 1_455 S
H8373 C8354 0.913 . S
H8374 C8392 0.951 . S
H8375 C8394 0.951 . S
H8376 C8396 0.950 . S
H8377 C8397 0.950 . S
H8378 C8399 0.950 1_565 S
H8379 C8402 0.950 . S
H8380 C8403 0.950 . S
H8381 C8405 0.950 . S
H8382 C8406 0.950 . S
H8383 C8407 0.951 . S
H8384 C8409 0.951 . S
H8385 C8411 0.950 . S
H8386 C8412 0.950 . S
H8387 C8414 0.950 . S
H8388 C8417 0.950 . S
H8389 C8418 0.950 . S
H8390 C8420 0.950 . S
H8391 C8421 0.950 . S
C8392 H8374 0.951 . S
C8392 C8393 1.366 . S
C8392 C8394 1.388 . S
C8393 C8392 1.366 . S
C8393 C8397 1.385 . S
C8394 H8375 0.951 . S
C8394 C8392 1.388 . S
C8394 C8395 1.366 . S
C8395 C8394 1.366 . S
C8395 C8396 1.414 . S
C8395 C8398 1.499 . S
C8396 H8376 0.950 . S
C8396 C8395 1.414 . S
C8396 C8397 1.374 . S
C8397 H8377 0.950 . S
C8397 C8393 1.385 . S
C8397 C8396 1.374 . S
C8398 C8395 1.499 . S
C8398 C8399 1.373 1_565 S
C8398 C8400 1.392 . S
C8399 H8378 0.950 1_545 S
C8399 C8398 1.373 1_545 S
C8399 C8415 1.377 . S
C8400 C8398 1.392 . S
C8400 C8401 1.542 . S
C8400 C8414 1.356 1_565 S
C8401 C8400 1.542 . S
C8401 C8402 1.397 . S
C8401 C8406 1.363 . S
C8402 H8379 0.950 . S
C8402 C8401 1.397 . S
C8402 C8403 1.334 . S
C8403 H8380 0.950 . S
C8403 C8402 1.334 . S
C8403 C8404 1.287 . S
C8404 C8403 1.287 . S
C8404 C8405 1.524 . S
C8404 H8423 0.913 . S
C8405 H8381 0.950 . S
C8405 C8404 1.524 . S
C8405 C8406 1.415 . S
C8406 H8382 0.950 . S
C8406 C8401 1.363 . S
C8406 C8405 1.415 . S
C8407 H8383 0.951 . S
C8407 C8408 1.366 . S
C8407 C8409 1.388 . S
C8408 C8407 1.366 . S
C8408 C8412 1.385 . S
C8409 H8384 0.951 . S
C8409 C8407 1.388 . S
C8409 C8410 1.366 . S
C8410 C8409 1.366 . S
C8410 C8411 1.414 . S
C8410 C8413 1.499 . S
C8411 H8385 0.950 . S
C8411 C8410 1.414 . S
C8411 C8412 1.374 . S
C8412 H8386 0.950 . S
C8412 C8408 1.385 . S
C8412 C8411 1.374 . S
C8413 C8410 1.499 . S
C8413 C8414 1.373 . S
C8413 C8415 1.389 . S
C8414 H8387 0.950 . S
C8414 C8400 1.356 1_545 S
C8414 C8413 1.373 . S
C8415 C8399 1.377 . S
C8415 C8413 1.389 . S
C8415 C8416 1.524 . S
C8416 C8415 1.524 . S
C8416 C8417 1.397 . S
C8416 C8421 1.363 . S
C8417 H8388 0.950 . S
C8417 C8416 1.397 . S
C8417 C8418 1.334 . S
C8418 H8389 0.950 . S
C8418 C8417 1.334 . S
C8418 C8419 1.287 . S
C8419 C8418 1.287 . S
C8419 C8420 1.524 . S
C8419 H8422 0.999 . S
C8420 H8390 0.950 . S
C8420 C8419 1.524 . S
C8420 C8421 1.415 . S
C8421 H8391 0.950 . S
C8421 C8416 1.363 . S
C8421 C8420 1.415 . S
H8422 C8419 0.999 . S
H8423 C8404 0.913 . S
C3043 C2324 1.871 . S
C3058 C56 1.871 . S
C3093 C2408 1.869 . S
C3108 C140 1.870 1_655 S
C3143 C224 1.871 . S
C3158 C2492 1.871 . S
C3193 C308 1.871 . S
C3208 C1064 1.871 . S
C3243 C392 1.872 . S
C3258 C1148 1.871 . S
C3293 C1232 1.870 . S
C3308 C476 1.870 1_565 S
C3343 C572 1.871 1_565 S
C3358 C1832 1.870 . S
C3393 C1916 1.869 . S
C3408 C656 1.869 . S
C3443 C740 1.872 . S
C3458 C2000 1.872 . S
C3493 C2588 1.871 . S
C3508 C824 1.870 1_655 S
C3543 C908 1.872 . S
C3558 C2672 1.872 . S
C3593 C2756 1.869 . S
C3608 C992 1.870 . S
C3643 C2072 1.870 . S
C3658 C1316 1.870 . S
C3693 C1400 1.871 . S
C3708 C2156 1.871 . S
C3743 C2240 1.871 . S
C3758 C1484 1.871 . S
C3793 C1580 1.872 . S
C3808 C2840 1.871 . S
C3843 C1664 1.871 . S
C3858 C2924 1.870 . S
C3893 C3008 1.870 . S
C3908 C1748 1.871 . S
C3943 C68 1.789 . S
C3958 C560 1.789 . S
C3993 C644 1.789 . S
C4008 C152 1.789 . S
C4043 C236 1.788 . S
C4058 C728 1.788 . S
C4093 C812 1.789 . S
C4108 C320 1.789 . S
C4143 C404 1.788 . S
C4158 C896 1.788 . S
C4193 C980 1.789 . S
C4208 C488 1.789 . S
C4243 C1568 1.789 . S
C4258 C1076 1.789 . S
C4293 C1160 1.789 . S
C4308 C1652 1.789 . S
C4343 C1736 1.789 . S
C4358 C1244 1.789 . S
C4393 C1328 1.788 . S
C4408 C1820 1.788 . S
C4443 C1904 1.788 . S
C4458 C1412 1.788 . S
C4493 C1496 1.788 . S
C4508 C1988 1.788 . S
C4543 C2084 1.789 . S
C4558 C2576 1.789 . S
C4593 C2660 1.789 . S
C4608 C2168 1.789 . S
C4643 C2744 1.788 . S
C4658 C2252 1.788 . S
C4693 C2828 1.788 . S
C4708 C2336 1.788 . S
C4743 C2420 1.789 . S
C4758 C2912 1.789 . S
C4793 C2504 1.788 . S
C4808 C2996 1.788 . S
C4843 C58 1.618 . S
C4858 C223 1.804 . S
C4893 C142 1.617 . S
C4908 C55 1.804 . S
C4943 C139 1.804 . S
C4958 C226 1.618 . S
C4993 C310 1.617 . S
C5008 C391 1.804 . S
C5043 C475 1.805 . S
C5058 C394 1.619 . S
C5093 C307 1.804 . S
C5108 C478 1.618 . S
C5143 C739 1.804 . S
C5158 C574 1.618 . S
C5193 C658 1.617 . S
C5208 C571 1.804 . S
C5243 C742 1.617 . S
C5258 C655 1.804 . S
C5293 C907 1.804 . S
C5308 C826 1.618 . S
C5343 C910 1.618 . S
C5358 C991 1.805 . S
C5393 C994 1.618 . S
C5408 C823 1.805 . S
C5443 C1231 1.804 . S
C5458 C1066 1.617 . S
C5493 C1063 1.804 . S
C5508 C1150 1.618 . S
C5543 C1147 1.804 . S
C5558 C1234 1.617 . S
C5593 C1399 1.805 . S
C5608 C1318 1.617 . S
C5643 C1402 1.617 . S
C5658 C1483 1.804 . S
C5693 C1315 1.804 . S
C5708 C1486 1.618 . S
C5743 C1582 1.617 . S
C5758 C1747 1.804 . S
C5793 C1579 1.804 . S
C5808 C1666 1.618 . S
C5843 C1750 1.618 . S
C5858 C1663 1.804 . S
C5893 C1915 1.804 . S
C5908 C1834 1.618 . S
C5943 C1999 1.804 . S
C5958 C1918 1.617 . S
C5993 C1831 1.804 . S
C6008 C2002 1.617 . S
C6043 C2239 1.805 . S
C6058 C2074 1.619 . S
C6093 C2158 1.618 . S
C6108 C2071 1.804 . S
C6143 C2155 1.805 . S
C6158 C2242 1.618 . S
C6193 C2326 1.619 . S
C6208 C2407 1.805 . S
C6243 C2410 1.618 . S
C6258 C2491 1.804 . S
C6293 C2323 1.804 . S
C6308 C2494 1.618 . S
C6343 C2590 1.618 . S
C6358 C2755 1.805 . S
C6393 C2674 1.617 . S
C6408 C2587 1.804 . S
C6443 C2671 1.804 . S
C6458 C2758 1.617 . S
C6493 C2842 1.618 . S
C6508 C2923 1.805 . S
C6543 C3007 1.804 . S
C6558 C2926 1.617 . S
C6593 C2839 1.804 . S
C6608 C3010 1.617 . S
C6643 C235 0.953 . S
C6658 C70 0.880 . S
C6693 C154 0.881 . S
C6708 C67 0.954 . S
C6743 C151 0.952 . S
C6758 C238 0.878 . S
C6793 C403 0.954 . S
C6808 C322 0.881 . S
C6843 C406 0.880 . S
C6858 C487 0.953 . S
C6893 C490 0.879 . S
C6908 C319 0.953 . S
C6943 C727 0.953 . S
C6958 C562 0.879 . S
C6993 C646 0.879 . S
C7008 C559 0.953 . S
C7043 C643 0.953 . S
C7058 C730 0.880 . S
C7093 C895 0.953 . S
C7108 C814 0.879 . S
C7143 C979 0.953 . S
C7158 C898 0.879 . S
C7193 C811 0.953 . S
C7208 C982 0.881 . S
C7243 C1078 0.881 . S
C7258 C1243 0.953 . S
C7293 C1162 0.878 . S
C7308 C1075 0.953 . S
C7343 C1246 0.881 . S
C7358 C1159 0.953 . S
C7393 C1411 0.952 . S
C7408 C1330 0.878 . S
C7443 C1414 0.881 . S
C7458 C1495 0.953 . S
C7493 C1498 0.878 1_655 S
C7508 C1327 0.953 . S
C7543 C1735 0.953 . S
C7558 C1570 0.881 . S
C7593 C1567 0.954 . S
C7608 C1654 0.881 . S
C7643 C1738 0.878 1_655 S
C7658 C1651 0.953 . S
C7693 C1903 0.953 . S
C7708 C1822 0.880 . S
C7743 C1906 0.881 . S
C7758 C1987 0.953 . S
C7793 C1990 0.881 . S
C7808 C1819 0.953 . S
C7843 C2086 0.879 . S
C7858 C2251 0.953 . S
C7893 C2083 0.953 . S
C7908 C2170 0.882 1_565 S
C7943 C2167 0.953 . S
C7958 C2254 0.878 . S
C7993 C2419 0.953 . S
C8008 C2338 0.879 . S
C8043 C2422 0.880 . S
C8058 C2503 0.953 . S
C8093 C2506 0.881 . S
C8108 C2335 0.953 . S
C8143 C2743 0.953 . S
C8158 C2578 0.881 . S
C8193 C2575 0.953 . S
C8208 C2662 0.881 . S
C8243 C2746 0.878 . S
C8258 C2659 0.953 . S
C8293 C2911 0.953 . S
C8308 C2830 0.879 . S
C8343 C2914 0.878 1_565 S
C8358 C2995 0.953 . S
C8393 C2998 0.879 . S
C8408 C2827 0.953 . S
