# Generated by pormake.
# Topology npo, (4)-cn, num edge types: 1
# Building blocks:
#     Node 0, Type 0, BuildingBlock: AZAVOO_clean_sbu_0, # of connection points: 4
#     Node 1, Type 0, BuildingBlock: AZAVOO_clean_sbu_0, # of connection points: 4
#     Node 2, Type 0, BuildingBlock: AZAVOO_clean_sbu_0, # of connection points: 4
#     Node 3, Type 0, BuildingBlock: AZAVOO_clean_sbu_0, # of connection points: 4
#     Node 4, Type 0, BuildingBlock: AZAVOO_clean_sbu_0, # of connection points: 4
#     Node 5, Type 0, BuildingBlock: AZAVOO_clean_sbu_0, # of connection points: 4
#     Edge 6, Type (0, 0), BuildingBlock: UVAHIK_clean_linker_0, # of connection points: 2
#     Edge 7, Type (0, 0), BuildingBlock: UVAHIK_clean_linker_0, # of connection points: 2
#     Edge 8, Type (0, 0), BuildingBlock: UVAHIK_clean_linker_0, # of connection points: 2
#     Edge 9, Type (0, 0), BuildingBlock: UVAHIK_clean_linker_0, # of connection points: 2
#     Edge 10, Type (0, 0), BuildingBlock: UVAHIK_clean_linker_0, # of connection points: 2
#     Edge 11, Type (0, 0), BuildingBlock: UVAHIK_clean_linker_0, # of connection points: 2
#     Edge 12, Type (0, 0), BuildingBlock: UVAHIK_clean_linker_0, # of connection points: 2
#     Edge 13, Type (0, 0), BuildingBlock: UVAHIK_clean_linker_0, # of connection points: 2
#     Edge 14, Type (0, 0), BuildingBlock: UVAHIK_clean_linker_0, # of connection points: 2
#     Edge 15, Type (0, 0), BuildingBlock: UVAHIK_clean_linker_0, # of connection points: 2
#     Edge 16, Type (0, 0), BuildingBlock: UVAHIK_clean_linker_0, # of connection points: 2
#     Edge 17, Type (0, 0), BuildingBlock: UVAHIK_clean_linker_0, # of connection points: 2
# Relax obj value: 0.263
# Max RMSD: 0.243
# Mean RMSD: 0.230
data_MOF--net-npo--node1-AZAVOO_clean_sbu_0--edge1-UVAHIK_clean_linker_0
_symmetry_space_group_name_H-M    P1
_symmetry_Int_Tables_number       1
_symmetry_cell_setting            triclinic
loop_
_symmetry_equiv_pos_as_xyz
'x, y, z'
_cell_length_a     56.640498
_cell_length_b     52.244293
_cell_length_c     33.021689
_cell_angle_alpha  89.937172
_cell_angle_beta   90.135403
_cell_angle_gamma 129.79252
loop_
_atom_site_label
_atom_site_type_symbol
_atom_site_fract_x
_atom_site_fract_y
_atom_site_fract_z
_atom_type_partial_charge
Mg0 Mg 0.52011 0.10494 0.25862 0.0
O1 O 0.56941 0.14702 0.2803 0.0
O2 O 0.59149 0.12494 0.29508 0.0
Mg3 Mg 0.5565 0.0689 0.28471 0.0
C4 C 0.59257 0.15001 0.29197 0.0
C5 C 0.50115 0.14857 0.25761 0.0
O6 O 0.4858 0.12922 0.28894 0.0
O7 O 0.53875 0.10358 0.19814 0.0
O8 O 0.55832 0.07936 0.21718 0.0
O9 O 0.50216 0.09305 0.3222 0.0
O10 O 0.51846 0.0697 0.29089 0.0
C11 C 0.55218 0.09176 0.18999 0.0
C12 C 0.5076 0.07249 0.32306 0.0
O13 O 0.51726 0.14425 0.23694 0.0
Mg14 Mg 0.39226 0.45721 0.70252 0.0
O15 O 0.42412 0.51346 0.71293 0.0
O16 O 0.47323 0.53545 0.71735 0.0
Mg17 Mg 0.47307 0.49219 0.7061 0.0
C18 C 0.4525 0.53834 0.71798 0.0
C19 C 0.34879 0.4723 0.71883 0.0
O20 O 0.36712 0.48494 0.75048 0.0
O21 O 0.40643 0.46704 0.6356 0.0
O22 O 0.45563 0.48905 0.64242 0.0
O23 O 0.39163 0.44959 0.76941 0.0
O24 O 0.42548 0.45607 0.72762 0.0
C25 C 0.43283 0.48025 0.62072 0.0
C26 C 0.41632 0.45331 0.76414 0.0
O27 O 0.3525 0.45785 0.69172 0.0
Mg28 Mg 0.95484 0.54279 0.27351 0.0
O29 O 0.90825 0.48951 0.27471 0.0
O30 O 0.91551 0.45743 0.24217 0.0
Mg31 Mg 0.96445 0.48922 0.21756 0.0
C32 C 0.89845 0.4611 0.26186 0.0
C33 C 0.91695 0.55547 0.33521 0.0
O34 O 0.91576 0.56526 0.37122 0.0
O35 O 0.97434 0.52763 0.31964 0.0
O36 O 0.98145 0.49721 0.2828 0.0
O37 O 0.94234 0.55308 0.21371 0.0
O38 O 0.96546 0.53177 0.22018 0.0
C39 C 0.98335 0.51069 0.31622 0.0
C40 C 0.95293 0.53983 0.19707 0.0
O41 O 0.94044 0.5585 0.32618 0.0
Mg42 Mg 0.48956 0.88928 0.76142 0.0
O43 O 0.43915 0.84721 0.77856 0.0
O44 O 0.41765 0.87011 0.79204 0.0
Mg45 Mg 0.4544 0.92657 0.78717 0.0
C46 C 0.41587 0.84463 0.78809 0.0
C47 C 0.51007 0.84736 0.75621 0.0
O48 O 0.5268 0.86757 0.78642 0.0
O49 O 0.47401 0.89444 0.70044 0.0
O50 O 0.45581 0.92007 0.71911 0.0
O51 O 0.50497 0.89721 0.82592 0.0
O52 O 0.49081 0.92331 0.79609 0.0
C53 C 0.46235 0.90816 0.69187 0.0
C54 C 0.50021 0.91831 0.82821 0.0
O55 O 0.49237 0.85047 0.73761 0.0
Mg56 Mg 0.622 0.54014 0.20355 0.0
O57 O 0.58993 0.48399 0.21467 0.0
O58 O 0.54093 0.46235 0.21896 0.0
Mg59 Mg 0.54133 0.50565 0.20663 0.0
C60 C 0.56154 0.45928 0.21993 0.0
C61 C 0.66526 0.52504 0.22164 0.0
O62 O 0.64695 0.51302 0.2532 0.0
O63 O 0.60765 0.52977 0.13658 0.0
O64 O 0.55855 0.50811 0.14317 0.0
O65 O 0.62283 0.54837 0.27027 0.0
O66 O 0.58899 0.54178 0.2281 0.0
C67 C 0.58123 0.51657 0.12161 0.0
C68 C 0.59819 0.54471 0.2647 0.0
O69 O 0.66155 0.53903 0.19372 0.0
Mg70 Mg 0.05679 0.45105 0.77338 0.0
O71 O 0.1014 0.50496 0.7676 0.0
O72 O 0.09068 0.53324 0.73298 0.0
Mg73 Mg 0.03964 0.49758 0.71609 0.0
C74 C 0.10959 0.53188 0.75181 0.0
C75 C 0.1021 0.44708 0.8331 0.0
O76 O 0.10598 0.4405 0.86975 0.0
O77 O 0.03874 0.46705 0.81991 0.0
O78 O 0.02795 0.49455 0.78344 0.0
O79 O 0.06671 0.43915 0.7131 0.0
O80 O 0.03943 0.45546 0.72136 0.0
C81 C 0.02889 0.4832 0.81715 0.0
C82 C 0.05146 0.44741 0.69734 0.0
O83 O 0.07737 0.44193 0.82532 0.0
C84 C 0.49054 0.1864 0.27776 0.0
C85 C 0.50208 0.17698 0.24921 0.0
C86 C 0.49394 0.21506 0.27192 0.0
C87 C 0.4933 0.27022 0.24652 0.0
H88 H 0.57116 0.34664 0.20211 0.0
C89 C 0.52189 0.39695 0.21845 0.0
C90 C 0.55237 0.42588 0.2253 0.0
C91 C 0.51396 0.36554 0.22026 0.0
C92 C 0.5494 0.32565 0.21495 0.0
H93 H 0.52481 0.18922 0.19113 0.0
H94 H 0.52992 0.23873 0.18025 0.0
H95 H 0.55996 0.29348 0.20635 0.0
H96 H 0.59813 0.44447 0.24117 0.0
H97 H 0.58416 0.38989 0.24569 0.0
H98 H 0.48346 0.30295 0.25696 0.0
C99 C 0.51904 0.22453 0.20778 0.0
C100 C 0.54273 0.29493 0.21672 0.0
C101 C 0.51595 0.19603 0.21386 0.0
C102 C 0.57451 0.42271 0.2353 0.0
C103 C 0.56653 0.39137 0.23756 0.0
C104 C 0.50011 0.30107 0.24512 0.0
C105 C 0.50866 0.23479 0.23715 0.0
C106 C 0.5147 0.26687 0.23283 0.0
C107 C 0.5363 0.36241 0.22936 0.0
C108 C 0.5284 0.32925 0.2297 0.0
H109 H 0.47981 0.1723 0.3054 0.0
H110 H 0.48604 0.22238 0.29546 0.0
H111 H 0.47131 0.24903 0.25861 0.0
H112 H 0.50433 0.39858 0.21044 0.0
H113 H 0.49052 0.3438 0.21341 0.0
C114 C 0.30002 0.45567 0.68762 0.0
C115 C 0.32414 0.47472 0.71578 0.0
C116 C 0.27597 0.45687 0.68707 0.0
C117 C 0.25404 0.50653 0.72382 0.0
H118 H 0.1716 0.42146 0.7286 0.0
C119 C 0.15717 0.48438 0.81489 0.0
C120 C 0.12648 0.45991 0.80295 0.0
C121 C 0.18098 0.49106 0.79139 0.0
C122 C 0.19434 0.44553 0.72626 0.0
H123 H 0.3425 0.5109 0.76435 0.0
H124 H 0.30085 0.51289 0.76346 0.0
H125 H 0.21449 0.42331 0.71149 0.0
H126 H 0.09643 0.42407 0.75648 0.0
H127 H 0.13822 0.43572 0.7149 0.0
H128 H 0.23406 0.5286 0.74047 0.0
C129 C 0.30044 0.49715 0.74161 0.0
C130 C 0.21899 0.44656 0.71653 0.0
C131 C 0.32421 0.49574 0.74239 0.0
C132 C 0.11999 0.44361 0.76577 0.0
C133 C 0.14388 0.44996 0.74236 0.0
C134 C 0.22943 0.5055 0.7335 0.0
C135 C 0.27581 0.47747 0.71431 0.0
C136 C 0.24926 0.47696 0.71676 0.0
C137 C 0.17458 0.47292 0.75571 0.0
C138 C 0.19943 0.47487 0.73639 0.0
H139 H 0.29934 0.43927 0.66666 0.0
H140 H 0.25738 0.4415 0.66556 0.0
H141 H 0.27703 0.53043 0.72339 0.0
H142 H 0.16268 0.49707 0.84366 0.0
H143 H 0.20424 0.50864 0.8029 0.0
C144 C 0.62517 0.21245 0.29486 0.0
C145 C 0.62255 0.18382 0.29789 0.0
C146 C 0.65413 0.24427 0.29494 0.0
C147 C 0.73162 0.28416 0.26313 0.0
H148 H 0.75898 0.35942 0.33066 0.0
C149 C 0.85811 0.39952 0.26789 0.0
C150 C 0.86628 0.43115 0.26972 0.0
C151 C 0.82772 0.37085 0.27331 0.0
C152 C 0.75152 0.33879 0.31116 0.0
H153 H 0.64836 0.16645 0.30563 0.0
H154 H 0.69854 0.22171 0.30519 0.0
H155 H 0.70644 0.30647 0.33773 0.0
H156 H 0.849 0.45759 0.27951 0.0
H157 H 0.79539 0.40715 0.28795 0.0
H158 H 0.77591 0.31598 0.23577 0.0
C159 C 0.67821 0.21948 0.30261 0.0
C160 C 0.72154 0.30852 0.31536 0.0
C161 C 0.64941 0.18783 0.303 0.0
C162 C 0.84338 0.43351 0.278 0.0
C163 C 0.81271 0.40463 0.28295 0.0
C164 C 0.76125 0.31433 0.25855 0.0
C165 C 0.68089 0.24791 0.29758 0.0
C166 C 0.71164 0.28078 0.29195 0.0
C167 C 0.80448 0.37292 0.28006 0.0
C168 C 0.77191 0.34183 0.28315 0.0
H169 H 0.60496 0.21028 0.29105 0.0
H170 H 0.65566 0.26588 0.29102 0.0
H171 H 0.72429 0.26332 0.24409 0.0
H172 H 0.87525 0.39682 0.26226 0.0
H173 H 0.82247 0.34696 0.27212 0.0
C174 C 0.52256 0.81076 0.7742 0.0
C175 C 0.50952 0.81932 0.74696 0.0
C176 C 0.51948 0.78235 0.7678 0.0
C177 C 0.51993 0.72733 0.74132 0.0
H178 H 0.44099 0.64976 0.70056 0.0
C179 C 0.49169 0.60065 0.7146 0.0
C180 C 0.4615 0.57169 0.72273 0.0
C181 C 0.49937 0.63196 0.7159 0.0
C182 C 0.46307 0.67107 0.71238 0.0
H183 H 0.48448 0.80587 0.69046 0.0
H184 H 0.47997 0.75685 0.6785 0.0
H185 H 0.45171 0.70264 0.70495 0.0
H186 H 0.41603 0.55298 0.7403 0.0
H187 H 0.42962 0.6074 0.74406 0.0
H188 H 0.53059 0.6952 0.75078 0.0
C189 C 0.49176 0.77149 0.70552 0.0
C190 C 0.46946 0.70164 0.7142 0.0
C191 C 0.49451 0.79971 0.71221 0.0
C192 C 0.43943 0.57476 0.73345 0.0
C193 C 0.44718 0.60601 0.73525 0.0
C194 C 0.5134 0.69662 0.73993 0.0
C195 C 0.50361 0.76203 0.73372 0.0
C196 C 0.49786 0.73012 0.72905 0.0
C197 C 0.4771 0.63497 0.72581 0.0
C198 C 0.48473 0.66802 0.72588 0.0
H199 H 0.53419 0.8253 0.80135 0.0
H200 H 0.52853 0.77567 0.79048 0.0
H201 H 0.54223 0.74883 0.75237 0.0
H202 H 0.50917 0.59907 0.70599 0.0
H203 H 0.52256 0.65367 0.70807 0.0
C204 C 0.71362 0.54047 0.19092 0.0
C205 C 0.68995 0.52263 0.21975 0.0
C206 C 0.73773 0.53936 0.19139 0.0
C207 C 0.76052 0.49167 0.23354 0.0
H208 H 0.84306 0.57673 0.23155 0.0
C209 C 0.86102 0.51825 0.32166 0.0
C210 C 0.89111 0.54159 0.30709 0.0
C211 C 0.83625 0.51069 0.29948 0.0
C212 C 0.82025 0.55262 0.2312 0.0
H213 H 0.6725 0.4887 0.27072 0.0
H214 H 0.71426 0.48695 0.27167 0.0
H215 H 0.79967 0.574 0.21413 0.0
H216 H 0.91906 0.57473 0.25761 0.0
H217 H 0.87559 0.56141 0.2183 0.0
H218 H 0.78101 0.47054 0.25242 0.0
C219 C 0.71426 0.50161 0.24846 0.0
C220 C 0.79532 0.55108 0.22127 0.0
C221 C 0.69041 0.5029 0.24816 0.0
C222 C 0.89595 0.55597 0.26888 0.0
C223 C 0.87112 0.54871 0.24676 0.0
C224 C 0.78542 0.49321 0.24348 0.0
C225 C 0.73844 0.5201 0.22043 0.0
C226 C 0.76507 0.52077 0.22374 0.0
C227 C 0.84109 0.52681 0.26251 0.0
C228 C 0.8155 0.5239 0.24382 0.0
H229 H 0.71389 0.55585 0.16857 0.0
H230 H 0.75592 0.55375 0.16923 0.0
H231 H 0.73755 0.46779 0.23489 0.0
H232 H 0.85681 0.50714 0.3513 0.0
H233 H 0.81356 0.49401 0.31281 0.0
C234 C 0.38215 0.7821 0.78991 0.0
C235 C 0.38524 0.81107 0.79061 0.0
C236 C 0.35301 0.75057 0.7877 0.0
C237 C 0.27679 0.71084 0.74811 0.0
H238 H 0.24728 0.63687 0.81958 0.0
C239 C 0.14983 0.59391 0.74939 0.0
C240 C 0.14194 0.56271 0.75595 0.0
C241 C 0.18017 0.62314 0.75375 0.0
C242 C 0.25533 0.65707 0.79891 0.0
H243 H 0.35997 0.82939 0.79094 0.0
H244 H 0.30945 0.77458 0.78655 0.0
H245 H 0.2994 0.68981 0.82815 0.0
H246 H 0.15986 0.5377 0.77181 0.0
H247 H 0.21311 0.58877 0.77831 0.0
H248 H 0.2334 0.67844 0.71817 0.0
C249 C 0.32956 0.77632 0.78766 0.0
C250 C 0.28511 0.68739 0.80399 0.0
C251 C 0.35854 0.80771 0.79043 0.0
C252 C 0.16518 0.56139 0.7668 0.0
C253 C 0.19568 0.5907 0.77071 0.0
C254 C 0.2473 0.68053 0.74265 0.0
C255 C 0.32654 0.74752 0.78554 0.0
C256 C 0.29585 0.7147 0.77909 0.0
C257 C 0.20357 0.62197 0.76422 0.0
C258 C 0.23589 0.65341 0.76846 0.0
H259 H 0.40223 0.78379 0.7901 0.0
H260 H 0.35124 0.72868 0.78608 0.0
H261 H 0.28477 0.73136 0.728 0.0
H262 H 0.13246 0.59586 0.74144 0.0
H263 H 0.18514 0.64671 0.74944 0.0
C264 C 0.52486 0.93908 0.89636 0.0
C265 C 0.50676 0.93734 0.86555 0.0
C266 C 0.53389 0.96005 0.92963 0.0
C267 C 0.54124 0.03294 0.96291 0.0
H268 H 0.54498 0.00493 0.06973 0.0
C269 C 0.5397 0.08615 0.11607 0.0
C270 C 0.55757 0.0881 0.1475 0.0
C271 C 0.53916 0.07404 0.07803 0.0
C272 C 0.5445 0.01332 0.03995 0.0
H273 H 0.48324 0.95555 0.84618 0.0
H274 H 0.49753 0.99056 0.90477 0.0
H275 H 0.5308 0.96881 0.01201 0.0
H276 H 0.5917 0.08295 0.16244 0.0
H277 H 0.59073 0.06196 0.09619 0.0
H278 H 0.55367 0.0769 -0.0083 0.0
C279 C 0.50573 0.97672 0.90272 0.0
C280 C 0.5364 0.99263 0.00684 0.0
C281 C 0.49713 0.9562 0.86926 0.0
C282 C 0.57723 0.08109 0.13903 0.0
C283 C 0.57667 0.06903 0.10118 0.0
C284 C 0.54897 0.05348 -0.00378 0.0
C285 C 0.52463 0.97936 0.93299 0.0
C286 C 0.53445 0.00205 0.96794 0.0
C287 C 0.55652 0.06384 0.07106 0.0
C288 C 0.55058 0.04376 0.03501 0.0
H289 H 0.53293 0.92512 0.89413 0.0
H290 H 0.54874 0.96172 0.95217 0.0
H291 H 0.54055 0.04129 0.93324 0.0
H292 H 0.52438 0.09146 0.12169 0.0
H293 H 0.52345 0.07029 0.05518 0.0
C294 C 0.55537 0.54141 0.29242 0.0
C295 C 0.57867 0.53936 0.29882 0.0
C296 C 0.53527 0.53402 0.32359 0.0
C297 C 0.50299 0.48711 0.4185 0.0
H298 H 0.48473 0.54564 0.44142 0.0
C299 C 0.42336 0.45956 0.54974 0.0
C300 C 0.43835 0.48625 0.57709 0.0
C301 C 0.4348 0.46456 0.51039 0.0
C302 C 0.48937 0.5289 0.43505 0.0
H303 H 0.59954 0.52854 0.34307 0.0
H304 H 0.56432 0.51563 0.39775 0.0
H305 H 0.51828 0.55809 0.38466 0.0
H306 H 0.47529 0.53917 0.58474 0.0
H307 H 0.49472 0.54818 0.51597 0.0
H308 H 0.47488 0.4585 0.46962 0.0
C309 C 0.56151 0.52269 0.36842 0.0
C310 C 0.5085 0.53597 0.40258 0.0
C311 C 0.58184 0.53038 0.33728 0.0
C312 C 0.46325 0.51834 0.56385 0.0
C313 C 0.47432 0.52345 0.52452 0.0
C314 C 0.48363 0.47987 0.45072 0.0
C315 C 0.53788 0.52419 0.36176 0.0
C316 C 0.51603 0.51554 0.39454 0.0
C317 C 0.46104 0.49641 0.49793 0.0
C318 C 0.47715 0.50107 0.45983 0.0
H319 H 0.55248 0.54847 0.26314 0.0
H320 H 0.51724 0.53531 0.31756 0.0
H321 H 0.50806 0.47068 0.41262 0.0
H322 H 0.40438 0.43453 0.55966 0.0
H323 H 0.42406 0.44334 0.49037 0.0
C324 C 0.01591 0.5143 0.8551 0.0
C325 C 0.01818 0.48902 0.8541 0.0
C326 C 0.00617 0.52009 0.89019 0.0
C327 C 0.99708 0.50288 0.00071 0.0
H328 H 0.94725 0.52988 -0.00376 0.0
C329 C 0.9397 0.50073 0.1419 0.0
C330 C 0.94964 0.53204 0.15364 0.0
C331 C 0.94414 0.49531 0.10242 0.0
C332 C 0.96127 0.52249 -0.00226 0.0
H333 H 0.01115 0.44939 0.88876 0.0
H334 H 0.99318 0.4586 0.94932 0.0
H335 H 0.96341 0.52034 0.93318 0.0
H336 H 0.96932 0.58139 0.13283 0.0
H337 H 0.97687 0.57175 0.06277 0.0
H338 H 0.9942 0.50411 0.0651 0.0
C339 C 0.99987 0.47477 0.92354 0.0
C340 C 0.97067 0.51717 0.96176 0.0
C341 C 0.01003 0.46932 0.8887 0.0
C342 C 0.96139 0.55699 0.12429 0.0
C343 C 0.96578 0.55152 0.08442 0.0
C344 C 0.98733 0.50768 0.03641 0.0
C345 C 0.99812 0.50047 0.92495 0.0
C346 C 0.9885 0.507 0.96284 0.0
C347 C 0.95848 0.5211 0.07384 0.0
C348 C 0.96914 0.51723 0.0353 0.0
H349 H 0.02217 0.53004 0.82896 0.0
H350 H 1.00555 0.54038 0.89025 0.0
H351 H 0.01153 0.49609 0.00292 0.0
H352 H 0.92988 0.48086 0.16379 0.0
H353 H 0.93781 0.47146 0.09474 0.0
C354 C 0.50739 0.03019 0.35856 0.0
C355 C 0.50143 0.0525 0.35928 0.0
C356 C 0.50027 0.00994 0.39177 0.0
C357 C 0.44986 0.9708 0.4792 0.0
H358 H 0.51211 0.96882 0.52363 0.0
C359 C 0.44448 0.92704 0.63995 0.0
C360 C 0.45861 0.91334 0.64911 0.0
C361 C 0.44533 0.93744 0.60079 0.0
C362 C 0.49418 0.96838 0.51107 0.0
H363 H 0.483 0.07082 0.39528 0.0
H364 H 0.47025 0.03496 0.45352 0.0
H365 H 0.52345 0.00185 0.46339 0.0
H366 H 0.48246 0.89721 0.62359 0.0
H367 H 0.48339 0.91488 0.55467 0.0
H368 H 0.42053 0.93737 0.52676 0.0
C369 C 0.48056 0.0334 0.42707 0.0
C370 C 0.5008 0.98754 0.47678 0.0
C371 C 0.48805 0.05403 0.39394 0.0
C372 C 0.47161 0.90797 0.61758 0.0
C373 C 0.47234 0.9183 0.57818 0.0
C374 C 0.44308 0.9513 0.51322 0.0
C375 C 0.48662 0.01119 0.42617 0.0
C376 C 0.47892 0.98945 0.4611 0.0
C377 C 0.46011 0.93418 0.56971 0.0
C378 C 0.46542 0.95049 0.53011 0.0
H379 H 0.51707 0.02781 0.33212 0.0
H380 H 0.50488 0.99278 0.39023 0.0
H381 H 0.43243 0.97143 0.46713 0.0
H382 H 0.43396 0.93124 0.66339 0.0
H383 H 0.43591 0.94982 0.59556 0.0
C384 C 0.45898 0.45641 0.79237 0.0
C385 C 0.43581 0.45868 0.79845 0.0
C386 C 0.47894 0.46357 0.82378 0.0
C387 C 0.5113 0.51026 0.91886 0.0
H388 H 0.52838 0.45075 0.94244 0.0
C389 C 0.59078 0.53695 0.05047 0.0
C390 C 0.57557 0.51037 0.07798 0.0
C391 C 0.57926 0.53196 0.0111 0.0
C392 C 0.52406 0.46776 0.93589 0.0
H393 H 0.41507 0.46975 0.84236 0.0
H394 H 0.45007 0.48234 0.89746 0.0
H395 H 0.49505 0.43875 0.88535 0.0
H396 H 0.5381 0.45763 0.08588 0.0
H397 H 0.51853 0.44864 0.01706 0.0
H398 H 0.53955 0.53874 0.97008 0.0
C399 C 0.45286 0.47524 0.86819 0.0
C400 C 0.50506 0.46094 0.90324 0.0
C401 C 0.43266 0.46774 0.83682 0.0
C402 C 0.55032 0.47837 0.06487 0.0
C403 C 0.53916 0.47326 0.02552 0.0
C404 C 0.53054 0.51726 0.95125 0.0
C405 C 0.47632 0.47343 0.86188 0.0
C406 C 0.49797 0.48175 0.89493 0.0
C407 C 0.55271 0.50024 -0.00123 0.0
C408 C 0.53661 0.49571 0.96059 0.0
H409 H 0.46185 0.4493 0.76317 0.0
H410 H 0.49684 0.46207 0.81801 0.0
H411 H 0.50655 0.52696 0.91279 0.0
H412 H 0.61002 0.56192 0.06027 0.0
H413 H 0.59019 0.55313 0.99094 0.0
C414 C 0.07359 0.46515 0.62731 0.0
C415 C 0.04826 0.449 0.65345 0.0
C416 C 0.0706 0.47092 0.58682 0.0
C417 C 0.01473 0.4429 0.50557 0.0
H418 H 0.06414 0.53555 0.47337 0.0
C419 C 0.99982 0.48163 0.35056 0.0
C420 C 0.99562 0.50541 0.35205 0.0
C421 C 0.01018 0.47539 0.38449 0.0
C422 C 0.05033 0.50958 0.48192 0.0
H423 H 0.99994 0.4249 0.65803 0.0
H424 H 0.99444 0.43368 0.58731 0.0
H425 H 0.07538 0.52115 0.53725 0.0
H426 H 0.99992 0.54197 0.39024 0.0
H427 H 0.01826 0.53112 0.44964 0.0
H428 H 0.98914 0.43124 0.45101 0.0
C429 C 0.01658 0.44224 0.59788 0.0
C430 C 0.05697 0.50136 0.51813 0.0
C431 C 0.01974 0.43729 0.63828 0.0
C432 C 1.00279 0.52342 0.38809 0.0
C433 C 0.01351 0.5174 0.42199 0.0
C434 C 0.00839 0.45105 0.46916 0.0
C435 C 0.04208 0.45973 0.57199 0.0
C436 C 0.03873 0.46799 0.53067 0.0
C437 C 0.01691 0.49301 0.42063 0.0
C438 C 0.02568 0.48452 0.45742 0.0
H439 H 0.09588 0.47474 0.63864 0.0
H440 H 0.09058 0.48454 0.56731 0.0
H441 H 1.00029 0.41701 0.51473 0.0
H442 H 0.99458 0.46728 0.32334 0.0
H443 H 0.01278 0.45661 0.38254 0.0
loop_
_geom_bond_atom_site_label_1
_geom_bond_atom_site_label_2
_geom_bond_distance
_geom_bond_site_symmetry_2
_ccdc_geom_bond_type
Mg0 O1 2.028 . S
Mg0 O7 1.986 . S
Mg0 O9 2.114 . S
Mg0 O10 2.251 . S
Mg0 O13 2.010 . S
O1 Mg0 2.028 . S
O1 C4 1.250 . S
O2 Mg3 2.028 . S
O2 C4 1.248 . S
Mg3 O2 2.028 . S
Mg3 O8 2.032 . S
Mg3 O10 2.079 . S
C4 O1 1.250 . S
C4 O2 1.248 . S
C5 O6 1.264 . S
C5 O13 1.249 . S
O6 C5 1.264 . S
O7 Mg0 1.986 . S
O7 C11 1.246 . S
O8 Mg3 2.032 . S
O8 C11 1.259 . S
O9 Mg0 2.114 . S
O9 C12 1.252 . S
O10 Mg0 2.251 . S
O10 Mg3 2.079 . S
O10 C12 1.273 . S
C11 O7 1.246 . S
C11 O8 1.259 . S
C12 O9 1.252 . S
C12 O10 1.273 . S
O13 Mg0 2.010 . S
O13 C5 1.249 . S
Mg14 O15 2.028 . S
Mg14 O21 1.986 . S
Mg14 O23 2.114 . S
Mg14 O24 2.251 . S
Mg14 O27 2.010 . S
O15 Mg14 2.028 . S
O15 C18 1.250 . S
O16 Mg17 2.028 . S
O16 C18 1.248 . S
Mg17 O16 2.028 . S
Mg17 O22 2.032 . S
Mg17 O24 2.079 . S
C18 O15 1.250 . S
C18 O16 1.248 . S
C19 O20 1.264 . S
C19 O27 1.249 . S
O20 C19 1.264 . S
O21 Mg14 1.986 . S
O21 C25 1.246 . S
O22 Mg17 2.032 . S
O22 C25 1.259 . S
O23 Mg14 2.114 . S
O23 C26 1.252 . S
O24 Mg14 2.251 . S
O24 Mg17 2.079 . S
O24 C26 1.273 . S
C25 O21 1.246 . S
C25 O22 1.259 . S
C26 O23 1.252 . S
C26 O24 1.273 . S
O27 Mg14 2.010 . S
O27 C19 1.249 . S
Mg28 O29 2.028 . S
Mg28 O35 1.986 . S
Mg28 O37 2.114 . S
Mg28 O38 2.251 . S
Mg28 O41 2.010 . S
O29 Mg28 2.028 . S
O29 C32 1.250 . S
O30 Mg31 2.028 . S
O30 C32 1.248 . S
Mg31 O30 2.028 . S
Mg31 O36 2.032 . S
Mg31 O38 2.079 . S
C32 O29 1.250 . S
C32 O30 1.248 . S
C33 O34 1.264 . S
C33 O41 1.249 . S
O34 C33 1.264 . S
O35 Mg28 1.986 . S
O35 C39 1.246 . S
O36 Mg31 2.032 . S
O36 C39 1.259 . S
O37 Mg28 2.114 . S
O37 C40 1.252 . S
O38 Mg28 2.251 . S
O38 Mg31 2.079 . S
O38 C40 1.273 . S
C39 O35 1.246 . S
C39 O36 1.259 . S
C40 O37 1.252 . S
C40 O38 1.273 . S
O41 Mg28 2.010 . S
O41 C33 1.249 . S
Mg42 O43 2.028 . S
Mg42 O49 1.986 . S
Mg42 O51 2.114 . S
Mg42 O52 2.251 . S
Mg42 O55 2.010 . S
O43 Mg42 2.028 . S
O43 C46 1.250 . S
O44 Mg45 2.028 . S
O44 C46 1.248 . S
Mg45 O44 2.028 . S
Mg45 O50 2.032 . S
Mg45 O52 2.079 . S
C46 O43 1.250 . S
C46 O44 1.248 . S
C47 O48 1.264 . S
C47 O55 1.249 . S
O48 C47 1.264 . S
O49 Mg42 1.986 . S
O49 C53 1.246 . S
O50 Mg45 2.032 . S
O50 C53 1.259 . S
O51 Mg42 2.114 . S
O51 C54 1.252 . S
O52 Mg42 2.251 . S
O52 Mg45 2.079 . S
O52 C54 1.273 . S
C53 O49 1.246 . S
C53 O50 1.259 . S
C54 O51 1.252 . S
C54 O52 1.273 . S
O55 Mg42 2.010 . S
O55 C47 1.249 . S
Mg56 O57 2.028 . S
Mg56 O63 1.986 . S
Mg56 O65 2.114 . S
Mg56 O66 2.251 . S
Mg56 O69 2.010 . S
O57 Mg56 2.028 . S
O57 C60 1.250 . S
O58 Mg59 2.028 . S
O58 C60 1.248 . S
Mg59 O58 2.028 . S
Mg59 O64 2.032 . S
Mg59 O66 2.079 . S
C60 O57 1.250 . S
C60 O58 1.248 . S
C61 O62 1.264 . S
C61 O69 1.249 . S
O62 C61 1.264 . S
O63 Mg56 1.986 . S
O63 C67 1.246 . S
O64 Mg59 2.032 . S
O64 C67 1.259 . S
O65 Mg56 2.114 . S
O65 C68 1.252 . S
O66 Mg56 2.251 . S
O66 Mg59 2.079 . S
O66 C68 1.273 . S
C67 O63 1.246 . S
C67 O64 1.259 . S
C68 O65 1.252 . S
C68 O66 1.273 . S
O69 Mg56 2.010 . S
O69 C61 1.249 . S
Mg70 O71 2.028 . S
Mg70 O77 1.986 . S
Mg70 O79 2.114 . S
Mg70 O80 2.251 . S
Mg70 O83 2.010 . S
O71 Mg70 2.028 . S
O71 C74 1.250 . S
O72 Mg73 2.028 . S
O72 C74 1.248 . S
Mg73 O72 2.028 . S
Mg73 O78 2.032 . S
Mg73 O80 2.079 . S
C74 O71 1.250 . S
C74 O72 1.248 . S
C75 O76 1.264 . S
C75 O83 1.249 . S
O76 C75 1.264 . S
O77 Mg70 1.986 . S
O77 C81 1.246 . S
O78 Mg73 2.032 . S
O78 C81 1.259 . S
O79 Mg70 2.114 . S
O79 C82 1.252 . S
O80 Mg70 2.251 . S
O80 Mg73 2.079 . S
O80 C82 1.273 . S
C81 O77 1.246 . S
C81 O78 1.259 . S
C82 O79 1.252 . S
C82 O80 1.273 . S
O83 Mg70 2.010 . S
O83 C75 1.249 . S
C84 C85 1.349 . S
C84 C86 1.327 . S
C84 H109 0.950 . S
C85 C84 1.349 . S
C85 C101 1.349 . S
C86 C84 1.327 . S
C86 C105 1.429 . S
C86 H110 0.950 . S
C87 C104 1.574 . S
C87 C106 1.368 . S
C87 H111 0.949 . S
H88 C92 0.949 . S
C89 C90 1.349 . S
C89 C91 1.327 . S
C89 H112 0.950 . S
C90 C89 1.349 . S
C90 C102 1.349 . S
C91 C89 1.327 . S
C91 C107 1.429 . S
C91 H113 0.950 . S
C92 H88 0.949 . S
C92 C100 1.574 . S
C92 C108 1.368 . S
H93 C101 0.950 . S
H94 C99 0.950 . S
H95 C100 0.949 . S
H96 C102 0.950 . S
H97 C103 0.950 . S
H98 C104 0.949 . S
C99 H94 0.950 . S
C99 C101 1.327 . S
C99 C105 1.429 . S
C100 C92 1.574 . S
C100 H95 0.949 . S
C100 C106 1.368 . S
C101 C85 1.349 . S
C101 H93 0.950 . S
C101 C99 1.327 . S
C102 C90 1.349 . S
C102 H96 0.950 . S
C102 C103 1.327 . S
C103 H97 0.950 . S
C103 C102 1.327 . S
C103 C107 1.429 . S
C104 C87 1.574 . S
C104 H98 0.949 . S
C104 C108 1.368 . S
C105 C86 1.429 . S
C105 C99 1.429 . S
C105 C106 1.523 . S
C106 C87 1.368 . S
C106 C100 1.368 . S
C106 C105 1.523 . S
C107 C91 1.429 . S
C107 C103 1.429 . S
C107 C108 1.523 . S
C108 C92 1.368 . S
C108 C104 1.368 . S
C108 C107 1.523 . S
H109 C84 0.950 . S
H110 C86 0.950 . S
H111 C87 0.949 . S
H112 C89 0.950 . S
H113 C91 0.950 . S
C114 C115 1.349 . S
C114 C116 1.327 . S
C114 H139 0.950 . S
C115 C114 1.349 . S
C115 C131 1.349 . S
C116 C114 1.327 . S
C116 C135 1.429 . S
C116 H140 0.950 . S
C117 C134 1.574 . S
C117 C136 1.368 . S
C117 H141 0.949 . S
H118 C122 0.949 . S
C119 C120 1.349 . S
C119 C121 1.327 . S
C119 H142 0.950 . S
C120 C119 1.349 . S
C120 C132 1.349 . S
C121 C119 1.327 . S
C121 C137 1.429 . S
C121 H143 0.950 . S
C122 H118 0.949 . S
C122 C130 1.574 . S
C122 C138 1.368 . S
H123 C131 0.950 . S
H124 C129 0.950 . S
H125 C130 0.949 . S
H126 C132 0.950 . S
H127 C133 0.950 . S
H128 C134 0.949 . S
C129 H124 0.950 . S
C129 C131 1.327 . S
C129 C135 1.429 . S
C130 C122 1.574 . S
C130 H125 0.949 . S
C130 C136 1.368 . S
C131 C115 1.349 . S
C131 H123 0.950 . S
C131 C129 1.327 . S
C132 C120 1.349 . S
C132 H126 0.950 . S
C132 C133 1.327 . S
C133 H127 0.950 . S
C133 C132 1.327 . S
C133 C137 1.429 . S
C134 C117 1.574 . S
C134 H128 0.949 . S
C134 C138 1.368 . S
C135 C116 1.429 . S
C135 C129 1.429 . S
C135 C136 1.523 . S
C136 C117 1.368 . S
C136 C130 1.368 . S
C136 C135 1.523 . S
C137 C121 1.429 . S
C137 C133 1.429 . S
C137 C138 1.523 . S
C138 C122 1.368 . S
C138 C134 1.368 . S
C138 C137 1.523 . S
H139 C114 0.950 . S
H140 C116 0.950 . S
H141 C117 0.949 . S
H142 C119 0.950 . S
H143 C121 0.950 . S
C144 C145 1.349 . S
C144 C146 1.327 . S
C144 H169 0.950 . S
C145 C144 1.349 . S
C145 C161 1.349 . S
C146 C144 1.327 . S
C146 C165 1.429 . S
C146 H170 0.950 . S
C147 C164 1.574 . S
C147 C166 1.368 . S
C147 H171 0.949 . S
H148 C152 0.949 . S
C149 C150 1.349 . S
C149 C151 1.327 . S
C149 H172 0.950 . S
C150 C149 1.349 . S
C150 C162 1.349 . S
C151 C149 1.327 . S
C151 C167 1.429 . S
C151 H173 0.950 . S
C152 H148 0.949 . S
C152 C160 1.574 . S
C152 C168 1.368 . S
H153 C161 0.950 . S
H154 C159 0.950 . S
H155 C160 0.949 . S
H156 C162 0.950 . S
H157 C163 0.950 . S
H158 C164 0.949 . S
C159 H154 0.950 . S
C159 C161 1.327 . S
C159 C165 1.429 . S
C160 C152 1.574 . S
C160 H155 0.949 . S
C160 C166 1.368 . S
C161 C145 1.349 . S
C161 H153 0.950 . S
C161 C159 1.327 . S
C162 C150 1.349 . S
C162 H156 0.950 . S
C162 C163 1.327 . S
C163 H157 0.950 . S
C163 C162 1.327 . S
C163 C167 1.429 . S
C164 C147 1.574 . S
C164 H158 0.949 . S
C164 C168 1.368 . S
C165 C146 1.429 . S
C165 C159 1.429 . S
C165 C166 1.523 . S
C166 C147 1.368 . S
C166 C160 1.368 . S
C166 C165 1.523 . S
C167 C151 1.429 . S
C167 C163 1.429 . S
C167 C168 1.523 . S
C168 C152 1.368 . S
C168 C164 1.368 . S
C168 C167 1.523 . S
H169 C144 0.950 . S
H170 C146 0.950 . S
H171 C147 0.949 . S
H172 C149 0.950 . S
H173 C151 0.950 . S
C174 C175 1.349 . S
C174 C176 1.327 . S
C174 H199 0.950 . S
C175 C174 1.349 . S
C175 C191 1.349 . S
C176 C174 1.327 . S
C176 C195 1.429 . S
C176 H200 0.950 . S
C177 C194 1.574 . S
C177 C196 1.368 . S
C177 H201 0.949 . S
H178 C182 0.949 . S
C179 C180 1.349 . S
C179 C181 1.327 . S
C179 H202 0.950 . S
C180 C179 1.349 . S
C180 C192 1.349 . S
C181 C179 1.327 . S
C181 C197 1.429 . S
C181 H203 0.950 . S
C182 H178 0.949 . S
C182 C190 1.574 . S
C182 C198 1.368 . S
H183 C191 0.950 . S
H184 C189 0.950 . S
H185 C190 0.949 . S
H186 C192 0.950 . S
H187 C193 0.950 . S
H188 C194 0.949 . S
C189 H184 0.950 . S
C189 C191 1.327 . S
C189 C195 1.429 . S
C190 C182 1.574 . S
C190 H185 0.949 . S
C190 C196 1.368 . S
C191 C175 1.349 . S
C191 H183 0.950 . S
C191 C189 1.327 . S
C192 C180 1.349 . S
C192 H186 0.950 . S
C192 C193 1.327 . S
C193 H187 0.950 . S
C193 C192 1.327 . S
C193 C197 1.429 . S
C194 C177 1.574 . S
C194 H188 0.949 . S
C194 C198 1.368 . S
C195 C176 1.429 . S
C195 C189 1.429 . S
C195 C196 1.523 . S
C196 C177 1.368 . S
C196 C190 1.368 . S
C196 C195 1.523 . S
C197 C181 1.429 . S
C197 C193 1.429 . S
C197 C198 1.523 . S
C198 C182 1.368 . S
C198 C194 1.368 . S
C198 C197 1.523 . S
H199 C174 0.950 . S
H200 C176 0.950 . S
H201 C177 0.949 . S
H202 C179 0.950 . S
H203 C181 0.950 . S
C204 C205 1.349 . S
C204 C206 1.327 . S
C204 H229 0.950 . S
C205 C204 1.349 . S
C205 C221 1.349 . S
C206 C204 1.327 . S
C206 C225 1.429 . S
C206 H230 0.950 . S
C207 C224 1.574 . S
C207 C226 1.368 . S
C207 H231 0.949 . S
H208 C212 0.949 . S
C209 C210 1.349 . S
C209 C211 1.327 . S
C209 H232 0.950 . S
C210 C209 1.349 . S
C210 C222 1.349 . S
C211 C209 1.327 . S
C211 C227 1.429 . S
C211 H233 0.950 . S
C212 H208 0.949 . S
C212 C220 1.574 . S
C212 C228 1.368 . S
H213 C221 0.950 . S
H214 C219 0.950 . S
H215 C220 0.949 . S
H216 C222 0.950 . S
H217 C223 0.950 . S
H218 C224 0.949 . S
C219 H214 0.950 . S
C219 C221 1.327 . S
C219 C225 1.429 . S
C220 C212 1.574 . S
C220 H215 0.949 . S
C220 C226 1.368 . S
C221 C205 1.349 . S
C221 H213 0.950 . S
C221 C219 1.327 . S
C222 C210 1.349 . S
C222 H216 0.950 . S
C222 C223 1.327 . S
C223 H217 0.950 . S
C223 C222 1.327 . S
C223 C227 1.429 . S
C224 C207 1.574 . S
C224 H218 0.949 . S
C224 C228 1.368 . S
C225 C206 1.429 . S
C225 C219 1.429 . S
C225 C226 1.523 . S
C226 C207 1.368 . S
C226 C220 1.368 . S
C226 C225 1.523 . S
C227 C211 1.429 . S
C227 C223 1.429 . S
C227 C228 1.523 . S
C228 C212 1.368 . S
C228 C224 1.368 . S
C228 C227 1.523 . S
H229 C204 0.950 . S
H230 C206 0.950 . S
H231 C207 0.949 . S
H232 C209 0.950 . S
H233 C211 0.950 . S
C234 C235 1.349 . S
C234 C236 1.327 . S
C234 H259 0.950 . S
C235 C234 1.349 . S
C235 C251 1.349 . S
C236 C234 1.327 . S
C236 C255 1.429 . S
C236 H260 0.950 . S
C237 C254 1.574 . S
C237 C256 1.368 . S
C237 H261 0.949 . S
H238 C242 0.949 . S
C239 C240 1.349 . S
C239 C241 1.327 . S
C239 H262 0.950 . S
C240 C239 1.349 . S
C240 C252 1.349 . S
C241 C239 1.327 . S
C241 C257 1.429 . S
C241 H263 0.950 . S
C242 H238 0.949 . S
C242 C250 1.574 . S
C242 C258 1.368 . S
H243 C251 0.950 . S
H244 C249 0.950 . S
H245 C250 0.949 . S
H246 C252 0.950 . S
H247 C253 0.950 . S
H248 C254 0.949 . S
C249 H244 0.950 . S
C249 C251 1.327 . S
C249 C255 1.429 . S
C250 C242 1.574 . S
C250 H245 0.949 . S
C250 C256 1.368 . S
C251 C235 1.349 . S
C251 H243 0.950 . S
C251 C249 1.327 . S
C252 C240 1.349 . S
C252 H246 0.950 . S
C252 C253 1.327 . S
C253 H247 0.950 . S
C253 C252 1.327 . S
C253 C257 1.429 . S
C254 C237 1.574 . S
C254 H248 0.949 . S
C254 C258 1.368 . S
C255 C236 1.429 . S
C255 C249 1.429 . S
C255 C256 1.523 . S
C256 C237 1.368 . S
C256 C250 1.368 . S
C256 C255 1.523 . S
C257 C241 1.429 . S
C257 C253 1.429 . S
C257 C258 1.523 . S
C258 C242 1.368 . S
C258 C254 1.368 . S
C258 C257 1.523 . S
H259 C234 0.950 . S
H260 C236 0.950 . S
H261 C237 0.949 . S
H262 C239 0.950 . S
H263 C241 0.950 . S
C264 C265 1.349 . S
C264 C266 1.327 . S
C264 H289 0.950 . S
C265 C264 1.349 . S
C265 C281 1.349 . S
C266 C264 1.327 . S
C266 C285 1.429 . S
C266 H290 0.950 . S
C267 C284 1.579 1_565 S
C267 C286 1.368 . S
C267 H291 0.949 . S
H268 C272 0.949 . S
C269 C270 1.349 . S
C269 C271 1.327 . S
C269 H292 0.950 . S
C270 C269 1.349 . S
C270 C282 1.349 . S
C271 C269 1.327 . S
C271 C287 1.429 . S
C271 H293 0.950 . S
C272 H268 0.949 . S
C272 C280 1.574 1_544 S
C272 C288 1.368 . S
H273 C281 0.950 . S
H274 C279 0.950 . S
H275 C280 0.949 . S
H276 C282 0.950 . S
H277 C283 0.950 . S
H278 C284 0.948 1_554 S
C279 H274 0.950 . S
C279 C281 1.327 . S
C279 C285 1.429 . S
C280 C272 1.574 1_566 S
C280 H275 0.949 . S
C280 C286 1.368 . S
C281 C265 1.349 . S
C281 H273 0.950 . S
C281 C279 1.327 . S
C282 C270 1.349 . S
C282 H276 0.950 . S
C282 C283 1.327 . S
C283 H277 0.950 . S
C283 C282 1.327 . S
C283 C287 1.429 . S
C284 C267 1.579 1_545 S
C284 H278 0.948 1_556 S
C284 C288 1.364 1_556 S
C285 C266 1.429 . S
C285 C279 1.429 . S
C285 C286 1.523 . S
C286 C267 1.368 . S
C286 C280 1.368 . S
C286 C285 1.523 . S
C287 C271 1.429 . S
C287 C283 1.429 . S
C287 C288 1.523 . S
C288 C272 1.368 . S
C288 C284 1.364 1_554 S
C288 C287 1.523 . S
H289 C264 0.950 . S
H290 C266 0.950 . S
H291 C267 0.949 . S
H292 C269 0.950 . S
H293 C271 0.950 . S
C294 C295 1.349 . S
C294 C296 1.327 . S
C294 H319 0.950 . S
C295 C294 1.349 . S
C295 C311 1.349 . S
C296 C294 1.327 . S
C296 C315 1.429 . S
C296 H320 0.950 . S
C297 C314 1.574 . S
C297 C316 1.368 . S
C297 H321 0.949 . S
H298 C302 0.949 . S
C299 C300 1.349 . S
C299 C301 1.327 . S
C299 H322 0.950 . S
C300 C299 1.349 . S
C300 C312 1.349 . S
C301 C299 1.327 . S
C301 C317 1.429 . S
C301 H323 0.950 . S
C302 H298 0.949 . S
C302 C310 1.574 . S
C302 C318 1.368 . S
H303 C311 0.950 . S
H304 C309 0.950 . S
H305 C310 0.949 . S
H306 C312 0.950 . S
H307 C313 0.950 . S
H308 C314 0.949 . S
C309 H304 0.950 . S
C309 C311 1.327 . S
C309 C315 1.429 . S
C310 C302 1.574 . S
C310 H305 0.949 . S
C310 C316 1.368 . S
C311 C295 1.349 . S
C311 H303 0.950 . S
C311 C309 1.327 . S
C312 C300 1.349 . S
C312 H306 0.950 . S
C312 C313 1.327 . S
C313 H307 0.950 . S
C313 C312 1.327 . S
C313 C317 1.429 . S
C314 C297 1.574 . S
C314 H308 0.949 . S
C314 C318 1.368 . S
C315 C296 1.429 . S
C315 C309 1.429 . S
C315 C316 1.523 . S
C316 C297 1.368 . S
C316 C310 1.368 . S
C316 C315 1.523 . S
C317 C301 1.429 . S
C317 C313 1.429 . S
C317 C318 1.523 . S
C318 C302 1.368 . S
C318 C314 1.368 . S
C318 C317 1.523 . S
H319 C294 0.950 . S
H320 C296 0.950 . S
H321 C297 0.949 . S
H322 C299 0.950 . S
H323 C301 0.950 . S
C324 C325 1.349 . S
C324 C326 1.327 . S
C324 H349 0.950 . S
C325 C324 1.349 . S
C325 C341 1.349 . S
C326 C324 1.327 . S
C326 C345 1.429 . S
C326 H350 0.950 . S
C327 C344 1.574 1_455 S
C327 C346 1.368 1_554 S
C327 H351 0.950 . S
H328 C332 0.949 . S
C329 C330 1.349 . S
C329 C331 1.327 . S
C329 H352 0.950 . S
C330 C329 1.349 . S
C330 C342 1.349 . S
C331 C329 1.327 . S
C331 C347 1.429 . S
C331 H353 0.950 . S
C332 H328 0.949 . S
C332 C340 1.574 1_654 S
C332 C348 1.368 . S
H333 C341 0.950 . S
H334 C339 0.950 . S
H335 C340 0.949 . S
H336 C342 0.950 . S
H337 C343 0.950 . S
H338 C344 0.949 . S
C339 H334 0.950 . S
C339 C341 1.327 . S
C339 C345 1.429 . S
C340 C332 1.574 1_456 S
C340 H335 0.949 . S
C340 C346 1.368 . S
C341 C325 1.349 . S
C341 H333 0.950 . S
C341 C339 1.327 . S
C342 C330 1.349 . S
C342 H336 0.950 . S
C342 C343 1.327 . S
C343 H337 0.950 . S
C343 C342 1.327 . S
C343 C347 1.429 . S
C344 C327 1.574 1_655 S
C344 H338 0.949 . S
C344 C348 1.368 . S
C345 C326 1.429 . S
C345 C339 1.429 . S
C345 C346 1.523 . S
C346 C327 1.368 1_556 S
C346 C340 1.368 . S
C346 C345 1.523 . S
C347 C331 1.429 . S
C347 C343 1.429 . S
C347 C348 1.523 . S
C348 C332 1.368 . S
C348 C344 1.368 . S
C348 C347 1.523 . S
H349 C324 0.950 . S
H350 C326 0.950 . S
H351 C327 0.950 . S
H352 C329 0.950 . S
H353 C331 0.950 . S
C354 C355 1.349 . S
C354 C356 1.327 . S
C354 H379 0.950 . S
C355 C354 1.349 . S
C355 C371 1.349 . S
C356 C354 1.327 . S
C356 C375 1.429 . S
C356 H380 0.950 . S
C357 C374 1.574 . S
C357 C376 1.368 . S
C357 H381 0.949 . S
H358 C362 0.949 . S
C359 C360 1.349 . S
C359 C361 1.327 . S
C359 H382 0.950 . S
C360 C359 1.349 . S
C360 C372 1.349 . S
C361 C359 1.327 . S
C361 C377 1.429 . S
C361 H383 0.950 . S
C362 H358 0.949 . S
C362 C370 1.555 1_565 S
C362 C378 1.368 . S
H363 C371 0.950 . S
H364 C369 0.950 . S
H365 C370 0.948 . S
H366 C372 0.950 . S
H367 C373 0.950 . S
H368 C374 0.949 . S
C369 H364 0.950 . S
C369 C371 1.327 . S
C369 C375 1.429 . S
C370 C362 1.555 1_545 S
C370 H365 0.948 . S
C370 C376 1.402 . S
C371 C355 1.349 . S
C371 H363 0.950 . S
C371 C369 1.327 . S
C372 C360 1.349 . S
C372 H366 0.950 . S
C372 C373 1.327 . S
C373 H367 0.950 . S
C373 C372 1.327 . S
C373 C377 1.429 . S
C374 C357 1.574 . S
C374 H368 0.949 . S
C374 C378 1.368 1_545 S
C375 C356 1.429 . S
C375 C369 1.429 . S
C375 C376 1.523 . S
C376 C357 1.368 . S
C376 C370 1.402 . S
C376 C375 1.523 . S
C377 C361 1.429 . S
C377 C373 1.429 . S
C377 C378 1.523 . S
C378 C362 1.368 . S
C378 C374 1.368 1_565 S
C378 C377 1.523 . S
H379 C354 0.950 . S
H380 C356 0.950 . S
H381 C357 0.949 . S
H382 C359 0.950 . S
H383 C361 0.950 . S
C384 C385 1.349 . S
C384 C386 1.327 . S
C384 H409 0.950 . S
C385 C384 1.349 . S
C385 C401 1.349 . S
C386 C384 1.327 . S
C386 C405 1.429 . S
C386 H410 0.950 . S
C387 C404 1.574 1_556 S
C387 C406 1.368 . S
C387 H411 0.949 . S
H388 C392 0.949 . S
C389 C390 1.349 . S
C389 C391 1.327 . S
C389 H412 0.950 . S
C390 C389 1.349 . S
C390 C402 1.349 . S
C391 C389 1.327 . S
C391 C407 1.429 . S
C391 H413 0.950 . S
C392 H388 0.949 . S
C392 C400 1.574 1_554 S
C392 C408 1.368 . S
H393 C401 0.950 . S
H394 C399 0.950 . S
H395 C400 0.949 . S
H396 C402 0.950 . S
H397 C403 0.950 . S
H398 C404 0.949 . S
C399 H394 0.950 . S
C399 C401 1.327 . S
C399 C405 1.429 . S
C400 C392 1.574 1_556 S
C400 H395 0.949 . S
C400 C406 1.368 . S
C401 C385 1.349 . S
C401 H393 0.950 . S
C401 C399 1.327 . S
C402 C390 1.349 . S
C402 H396 0.950 . S
C402 C403 1.327 . S
C403 H397 0.950 . S
C403 C402 1.327 . S
C403 C407 1.429 . S
C404 C387 1.574 1_554 S
C404 H398 0.949 . S
C404 C408 1.368 . S
C405 C386 1.429 . S
C405 C399 1.429 . S
C405 C406 1.523 . S
C406 C387 1.368 . S
C406 C400 1.368 . S
C406 C405 1.523 . S
C407 C391 1.429 . S
C407 C403 1.429 . S
C407 C408 1.523 . S
C408 C392 1.368 . S
C408 C404 1.368 . S
C408 C407 1.523 . S
H409 C384 0.950 . S
H410 C386 0.950 . S
H411 C387 0.949 . S
H412 C389 0.950 . S
H413 C391 0.950 . S
C414 C415 1.349 . S
C414 C416 1.327 . S
C414 H439 0.950 . S
C415 C414 1.349 . S
C415 C431 1.349 . S
C416 C414 1.327 . S
C416 C435 1.429 . S
C416 H440 0.950 . S
C417 C434 1.574 . S
C417 C436 1.368 1_655 S
C417 H441 0.949 . S
H418 C422 0.949 . S
C419 C420 1.349 . S
C419 C421 1.327 . S
C419 H442 0.950 . S
C420 C419 1.349 . S
C420 C432 1.349 . S
C421 C419 1.327 . S
C421 C437 1.429 . S
C421 H443 0.950 . S
C422 H418 0.949 . S
C422 C430 1.574 . S
C422 C438 1.368 1_455 S
H423 C431 0.950 . S
H424 C429 0.950 1_655 S
H425 C430 0.949 . S
H426 C432 0.950 . S
H427 C433 0.950 1_455 S
H428 C434 0.949 . S
C429 H424 0.950 1_455 S
C429 C431 1.327 . S
C429 C435 1.429 . S
C430 C422 1.574 . S
C430 H425 0.949 . S
C430 C436 1.368 . S
C431 C415 1.349 . S
C431 H423 0.950 . S
C431 C429 1.327 . S
C432 C420 1.349 . S
C432 H426 0.950 . S
C432 C433 1.327 . S
C433 H427 0.950 1_655 S
C433 C432 1.327 . S
C433 C437 1.429 . S
C434 C417 1.574 . S
C434 H428 0.949 . S
C434 C438 1.368 . S
C435 C416 1.429 . S
C435 C429 1.429 . S
C435 C436 1.523 . S
C436 C417 1.368 1_455 S
C436 C430 1.368 . S
C436 C435 1.523 . S
C437 C421 1.429 . S
C437 C433 1.429 . S
C437 C438 1.523 . S
C438 C422 1.368 1_655 S
C438 C434 1.368 . S
C438 C437 1.523 . S
H439 C414 0.950 . S
H440 C416 0.950 . S
H441 C417 0.949 . S
H442 C419 0.950 . S
H443 C421 0.950 . S
C85 C5 0.805 . S
C90 C60 0.814 . S
C115 C19 0.815 . S
C120 C75 0.813 . S
C145 C4 0.848 . S
C150 C32 0.849 . S
C175 C47 0.805 . S
C180 C18 0.814 . S
C205 C61 0.815 . S
C210 C33 0.813 . S
C235 C46 0.848 . S
C240 C74 0.849 . S
C265 C54 1.384 . S
C270 C11 1.350 . S
C295 C68 1.402 . S
C300 C25 1.361 . S
C325 C81 1.359 . S
C330 C40 1.397 . S
C355 C12 1.384 . S
C360 C53 1.350 . S
C385 C26 1.402 . S
C390 C67 1.361 . S
C415 C82 1.397 . S
C420 C39 1.359 . S
