# Generated by pormake.
# Topology une, (4)-cn, num edge types: 1
# Building blocks:
#     Node 0, Type 0, BuildingBlock: CEKHIL_clean_sbu_0, # of connection points: 4
#     Node 1, Type 0, BuildingBlock: CEKHIL_clean_sbu_0, # of connection points: 4
#     Node 2, Type 0, BuildingBlock: CEKHIL_clean_sbu_0, # of connection points: 4
#     Node 3, Type 0, BuildingBlock: CEKHIL_clean_sbu_0, # of connection points: 4
#     Node 4, Type 0, BuildingBlock: CEKHIL_clean_sbu_0, # of connection points: 4
#     Node 5, Type 0, BuildingBlock: CEKHIL_clean_sbu_0, # of connection points: 4
#     Node 6, Type 0, BuildingBlock: CEKHIL_clean_sbu_0, # of connection points: 4
#     Node 7, Type 0, BuildingBlock: CEKHIL_clean_sbu_0, # of connection points: 4
#     Node 8, Type 0, BuildingBlock: CEKHIL_clean_sbu_0, # of connection points: 4
#     Node 9, Type 0, BuildingBlock: CEKHIL_clean_sbu_0, # of connection points: 4
#     Node 10, Type 0, BuildingBlock: CEKHIL_clean_sbu_0, # of connection points: 4
#     Node 11, Type 0, BuildingBlock: CEKHIL_clean_sbu_0, # of connection points: 4
#     Node 12, Type 0, BuildingBlock: CEKHIL_clean_sbu_0, # of connection points: 4
#     Node 13, Type 0, BuildingBlock: CEKHIL_clean_sbu_0, # of connection points: 4
#     Node 14, Type 0, BuildingBlock: CEKHIL_clean_sbu_0, # of connection points: 4
#     Node 15, Type 0, BuildingBlock: CEKHIL_clean_sbu_0, # of connection points: 4
#     Node 16, Type 0, BuildingBlock: CEKHIL_clean_sbu_0, # of connection points: 4
#     Node 17, Type 0, BuildingBlock: CEKHIL_clean_sbu_0, # of connection points: 4
#     Edge 18, Type (0, 0), BuildingBlock: ZUJKAS_clean_linker_0, # of connection points: 2
#     Edge 19, Type (0, 0), BuildingBlock: ZUJKAS_clean_linker_0, # of connection points: 2
#     Edge 20, Type (0, 0), BuildingBlock: ZUJKAS_clean_linker_0, # of connection points: 2
#     Edge 21, Type (0, 0), BuildingBlock: ZUJKAS_clean_linker_0, # of connection points: 2
#     Edge 22, Type (0, 0), BuildingBlock: ZUJKAS_clean_linker_0, # of connection points: 2
#     Edge 23, Type (0, 0), BuildingBlock: ZUJKAS_clean_linker_0, # of connection points: 2
#     Edge 24, Type (0, 0), BuildingBlock: ZUJKAS_clean_linker_0, # of connection points: 2
#     Edge 25, Type (0, 0), BuildingBlock: ZUJKAS_clean_linker_0, # of connection points: 2
#     Edge 26, Type (0, 0), BuildingBlock: ZUJKAS_clean_linker_0, # of connection points: 2
#     Edge 27, Type (0, 0), BuildingBlock: ZUJKAS_clean_linker_0, # of connection points: 2
#     Edge 28, Type (0, 0), BuildingBlock: ZUJKAS_clean_linker_0, # of connection points: 2
#     Edge 29, Type (0, 0), BuildingBlock: ZUJKAS_clean_linker_0, # of connection points: 2
#     Edge 30, Type (0, 0), BuildingBlock: ZUJKAS_clean_linker_0, # of connection points: 2
#     Edge 31, Type (0, 0), BuildingBlock: ZUJKAS_clean_linker_0, # of connection points: 2
#     Edge 32, Type (0, 0), BuildingBlock: ZUJKAS_clean_linker_0, # of connection points: 2
#     Edge 33, Type (0, 0), BuildingBlock: ZUJKAS_clean_linker_0, # of connection points: 2
#     Edge 34, Type (0, 0), BuildingBlock: ZUJKAS_clean_linker_0, # of connection points: 2
#     Edge 35, Type (0, 0), BuildingBlock: ZUJKAS_clean_linker_0, # of connection points: 2
#     Edge 36, Type (0, 0), BuildingBlock: ZUJKAS_clean_linker_0, # of connection points: 2
#     Edge 37, Type (0, 0), BuildingBlock: ZUJKAS_clean_linker_0, # of connection points: 2
#     Edge 38, Type (0, 0), BuildingBlock: ZUJKAS_clean_linker_0, # of connection points: 2
#     Edge 39, Type (0, 0), BuildingBlock: ZUJKAS_clean_linker_0, # of connection points: 2
#     Edge 40, Type (0, 0), BuildingBlock: ZUJKAS_clean_linker_0, # of connection points: 2
#     Edge 41, Type (0, 0), BuildingBlock: ZUJKAS_clean_linker_0, # of connection points: 2
#     Edge 42, Type (0, 0), BuildingBlock: ZUJKAS_clean_linker_0, # of connection points: 2
#     Edge 43, Type (0, 0), BuildingBlock: ZUJKAS_clean_linker_0, # of connection points: 2
#     Edge 44, Type (0, 0), BuildingBlock: ZUJKAS_clean_linker_0, # of connection points: 2
#     Edge 45, Type (0, 0), BuildingBlock: ZUJKAS_clean_linker_0, # of connection points: 2
#     Edge 46, Type (0, 0), BuildingBlock: ZUJKAS_clean_linker_0, # of connection points: 2
#     Edge 47, Type (0, 0), BuildingBlock: ZUJKAS_clean_linker_0, # of connection points: 2
#     Edge 48, Type (0, 0), BuildingBlock: ZUJKAS_clean_linker_0, # of connection points: 2
#     Edge 49, Type (0, 0), BuildingBlock: ZUJKAS_clean_linker_0, # of connection points: 2
#     Edge 50, Type (0, 0), BuildingBlock: ZUJKAS_clean_linker_0, # of connection points: 2
#     Edge 51, Type (0, 0), BuildingBlock: ZUJKAS_clean_linker_0, # of connection points: 2
#     Edge 52, Type (0, 0), BuildingBlock: ZUJKAS_clean_linker_0, # of connection points: 2
#     Edge 53, Type (0, 0), BuildingBlock: ZUJKAS_clean_linker_0, # of connection points: 2
# Relax obj value: 0.262
# Max RMSD: 0.177
# Mean RMSD: 0.166
data_MOF--net-une--node1-CEKHIL_clean_sbu_0--edge1-ZUJKAS_clean_linker_0
_symmetry_space_group_name_H-M    P1
_symmetry_Int_Tables_number       1
_symmetry_cell_setting            triclinic
loop_
_symmetry_equiv_pos_as_xyz
'x, y, z'
_cell_length_a     49.773921
_cell_length_b     49.076533
_cell_length_c     68.173934
_cell_angle_alpha  90.090434
_cell_angle_beta   90.597398
_cell_angle_gamma 119.93658
loop_
_atom_site_label
_atom_site_type_symbol
_atom_site_fract_x
_atom_site_fract_y
_atom_site_fract_z
_atom_type_partial_charge
Co0 Co 0.39024 0.08542 0.06501 0.0
O1 O 0.41377 0.06377 0.0675 0.0
O2 O 0.41691 0.09415 0.04269 0.0
C3 C 0.39573 0.10531 0.09574 0.0
O4 O 0.37124 0.11218 0.0572 0.0
Co5 Co 0.32998 0.06517 0.0886 0.0
O6 O 0.33455 0.10534 0.07875 0.0
C7 C 0.32875 0.02624 0.05537 0.0
C8 C 0.42528 0.07529 0.05042 0.0
C9 C 0.35205 0.11978 0.06437 0.0
O10 O 0.35628 0.04765 0.05071 0.0
O11 O 0.31523 0.02766 0.07089 0.0
O12 O 0.41798 0.1193 0.08314 0.0
O13 O 0.37361 0.07802 0.09027 0.0
Co14 Co 0.90992 0.29853 0.06083 0.0
O15 O 0.8831 0.28942 0.08321 0.0
O16 O 0.91964 0.27655 0.08061 0.0
C17 C 0.92279 0.34903 0.05537 0.0
O18 O 0.94272 0.30434 0.04102 0.0
Co19 Co 0.89301 0.31383 0.01983 0.0
O20 O 0.93577 0.32428 0.013 0.0
C21 C 0.85837 0.24936 0.03484 0.0
C22 C 0.8969 0.27513 0.09062 0.0
C23 C 0.95161 0.31622 0.02386 0.0
O24 O 0.87848 0.25689 0.0488 0.0
O25 O 0.85864 0.26936 0.02271 0.0
O26 O 0.93693 0.34244 0.06916 0.0
O27 O 0.89916 0.32505 0.04746 0.0
Co28 Co 0.69488 0.61449 0.06208 0.0
O29 O 0.65042 0.59397 0.06582 0.0
O30 O 0.67321 0.58378 0.0415 0.0
C31 C 0.71067 0.61328 0.09323 0.0
O32 O 0.73914 0.62934 0.05335 0.0
Co33 Co 0.74044 0.67871 0.08196 0.0
O34 O 0.77256 0.66908 0.07291 0.0
C35 C 0.70161 0.67685 0.04855 0.0
C36 C 0.64759 0.57871 0.04959 0.0
C37 C 0.76685 0.64858 0.05958 0.0
O38 O 0.69252 0.64755 0.04576 0.0
O39 O 0.71904 0.69288 0.06299 0.0
O40 O 0.69991 0.58837 0.08205 0.0
O41 O 0.70754 0.63591 0.08616 0.0
Co42 Co 0.60044 0.91677 0.93302 0.0
O43 O 0.58867 0.89505 0.90779 0.0
O44 O 0.6367 0.92809 0.91762 0.0
C45 C 0.56563 0.93353 0.93555 0.0
O46 O 0.62249 0.94419 0.95672 0.0
Co47 Co 0.55733 0.89404 0.9692 0.0
O48 O 0.58984 0.93372 0.98175 0.0
C49 C 0.58719 0.85852 0.95649 0.0
C50 C 0.61828 0.90853 0.90433 0.0
C51 C 0.61634 0.95007 0.97396 0.0
O52 O 0.6038 0.88069 0.9445 0.0
O53 O 0.56521 0.85798 0.96638 0.0
O54 O 0.5899 0.94858 0.92454 0.0
O55 O 0.56103 0.9068 0.94195 0.0
Co56 Co 0.08066 0.68464 0.93873 0.0
O57 O 0.10771 0.69506 0.91635 0.0
O58 O 0.07164 0.70839 0.91989 0.0
C59 C 0.06696 0.63354 0.94256 0.0
O60 O 0.0478 0.67796 0.9587 0.0
Co61 Co 0.09598 0.66532 0.97895 0.0
O62 O 0.05315 0.65482 0.98571 0.0
C63 C 0.13136 0.73126 0.96638 0.0
C64 C 0.09426 0.71013 0.90959 0.0
C65 C 0.03815 0.66456 0.9754 0.0
O66 O 0.11225 0.7251 0.95195 0.0
O67 O 0.13029 0.7101 0.97783 0.0
O68 O 0.05324 0.64145 0.9292 0.0
O69 O 0.09064 0.65672 0.95101 0.0
Co70 Co 0.30525 0.3923 0.93989 0.0
O71 O 0.29389 0.40669 0.91631 0.0
O72 O 0.28092 0.35742 0.92238 0.0
C73 C 0.35607 0.42925 0.943 0.0
O74 O 0.31264 0.36786 0.96121 0.0
Co75 Co 0.32569 0.43097 0.97874 0.0
O76 O 0.33638 0.39883 0.98738 0.0
C77 C 0.25999 0.399 0.96679 0.0
C78 C 0.27879 0.37727 0.91083 0.0
C79 C 0.32643 0.37301 0.97799 0.0
O80 O 0.26588 0.38522 0.95277 0.0
O81 O 0.28113 0.42005 0.97784 0.0
O82 O 0.34726 0.40626 0.9304 0.0
O83 O 0.33378 0.43151 0.95091 0.0
Co84 Co 0.05944 0.4201 0.39893 0.0
O85 O 0.08473 0.40023 0.40103 0.0
O86 O 0.08484 0.42883 0.37598 0.0
C87 C 0.0659 0.44105 0.42942 0.0
O88 O 0.03844 0.44507 0.39134 0.0
Co89 Co 1.00022 0.3988 0.4238 0.0
O90 O 0.00271 0.43797 0.41371 0.0
C91 C 0.9986 0.35934 0.39078 0.0
C92 C 0.09482 0.41122 0.38361 0.0
C93 C 0.0191 0.45216 0.39888 0.0
O94 O 0.02563 0.38111 0.38555 0.0
O95 O 0.98556 0.36084 0.4065 0.0
O96 O 0.08728 0.4552 0.4163 0.0
O97 O 0.04424 0.41317 0.42457 0.0
Co98 Co 0.57416 0.6337 0.39499 0.0
O99 O 0.54746 0.62419 0.41748 0.0
O100 O 0.58344 0.61066 0.41423 0.0
C101 C 0.58776 0.68458 0.39043 0.0
O102 O 0.60678 0.63967 0.37498 0.0
Co103 Co 0.55831 0.65126 0.3544 0.0
O104 O 0.60216 0.66441 0.34856 0.0
C105 C 0.52284 0.58599 0.36818 0.0
C106 C 0.56097 0.60934 0.4245 0.0
C107 C 0.61705 0.65441 0.35873 0.0
O108 O 0.5423 0.59279 0.38246 0.0
O109 O 0.5239 0.60654 0.35618 0.0
O110 O 0.60169 0.67715 0.40392 0.0
O111 O 0.56398 0.66112 0.38224 0.0
Co112 Co 0.36111 0.94634 0.39534 0.0
O113 O 0.3167 0.92389 0.39941 0.0
O114 O 0.33996 0.91742 0.37383 0.0
C115 C 0.37775 0.94271 0.42571 0.0
O116 O 0.40543 0.96352 0.38603 0.0
Co117 Co 0.40505 0.00915 0.41698 0.0
O118 O 0.43844 0.00323 0.40575 0.0
C119 C 0.3647 0.00863 0.38502 0.0
C120 C 0.31417 0.91048 0.38247 0.0
C121 C 0.43307 0.98358 0.39192 0.0
O122 O 0.35692 0.98 0.38094 0.0
O123 O 0.38198 0.02375 0.39972 0.0
O124 O 0.36787 0.91921 0.41342 0.0
O125 O 0.37346 0.96541 0.4202 0.0
Co126 Co 0.26827 0.25097 0.26727 0.0
O127 O 0.25724 0.22936 0.24201 0.0
O128 O 0.30507 0.26099 0.25277 0.0
C129 C 0.23483 0.26956 0.2685 0.0
O130 O 0.28963 0.27811 0.2912 0.0
Co131 Co 0.22308 0.2297 0.30239 0.0
O132 O 0.25523 0.26978 0.31477 0.0
C133 C 0.25235 0.19267 0.29162 0.0
C134 C 0.28694 0.24194 0.23917 0.0
C135 C 0.28246 0.28506 0.30779 0.0
O136 O 0.26954 0.21413 0.27939 0.0
O137 O 0.23045 0.19311 0.30103 0.0
O138 O 0.25985 0.28389 0.25807 0.0
O139 O 0.22875 0.24244 0.2751 0.0
Co140 Co 0.74796 0.01912 0.27332 0.0
O141 O 0.7752 0.0297 0.25102 0.0
O142 O 0.73955 0.0436 0.25469 0.0
C143 C 0.73368 0.96779 0.27661 0.0
O144 O 0.71505 0.01247 0.29325 0.0
Co145 Co 0.76203 0.99819 0.31335 0.0
O146 O 0.71847 0.98623 0.31926 0.0
C147 C 0.79831 0.06456 0.30156 0.0
C148 C 0.76211 0.04519 0.24439 0.0
C149 C 0.70433 0.99734 0.30933 0.0
O150 O 0.77973 0.05904 0.28691 0.0
O151 O 0.79653 0.04298 0.31291 0.0
O152 O 0.72023 0.97625 0.26339 0.0
O153 O 0.75737 0.9906 0.28531 0.0
Co154 Co 0.96939 0.72409 0.27551 0.0
O155 O 0.95819 0.73899 0.25216 0.0
O156 O 0.94469 0.68946 0.25788 0.0
C157 C 0.02038 0.76057 0.27848 0.0
O158 O 0.97654 0.6993 0.29671 0.0
Co159 Co 0.99052 0.76283 0.31436 0.0
O160 O 1.00045 0.73009 0.32293 0.0
C161 C 0.92504 0.73247 0.30215 0.0
C162 C 0.94286 0.70967 0.2465 0.0
C163 C 0.99027 0.70426 0.31351 0.0
O164 O 0.93032 0.71753 0.28858 0.0
O165 O 0.94655 0.75377 0.31288 0.0
O166 O 0.01122 0.73758 0.26585 0.0
O167 O 0.99834 0.7631 0.28652 0.0
Co168 Co 0.72806 0.7551 0.73231 0.0
O169 O 0.75305 0.73493 0.73437 0.0
O170 O 0.75415 0.76448 0.70961 0.0
C171 C 0.73364 0.77508 0.76298 0.0
O172 O 0.70742 0.78057 0.72499 0.0
Co173 Co 0.66805 0.73245 0.7566 0.0
O174 O 0.66995 0.77135 0.74655 0.0
C175 C 0.66744 0.69452 0.72307 0.0
C176 C 0.76369 0.74643 0.71714 0.0
C177 C 0.68721 0.78667 0.73227 0.0
O178 O 0.69454 0.71666 0.71825 0.0
O179 O 0.654 0.69519 0.73881 0.0
O180 O 0.75549 0.78954 0.75018 0.0
O181 O 0.71216 0.74731 0.75776 0.0
Co182 Co 0.24407 0.96984 0.72902 0.0
O183 O 0.21572 0.95818 0.75078 0.0
O184 O 0.25337 0.94687 0.74833 0.0
C185 C 0.25586 0.02032 0.72511 0.0
O186 O 0.27858 0.97841 0.70984 0.0
Co187 Co 0.2295 0.98814 0.68826 0.0
O188 O 0.27381 0.00257 0.68316 0.0
C189 C 0.19538 0.92218 0.70082 0.0
C190 C 0.22977 0.94402 0.75803 0.0
C191 C 0.28915 0.99354 0.69371 0.0
O192 O 0.21416 0.92899 0.7155 0.0
O193 O 0.19624 0.94287 0.68904 0.0
O194 O 0.26958 0.01311 0.73885 0.0
O195 O 0.23315 0.99668 0.71625 0.0
Co196 Co 0.02724 0.279 0.72895 0.0
O197 O 0.98268 0.25343 0.73206 0.0
O198 O 0.00868 0.25166 0.70644 0.0
C199 C 0.04341 0.27462 0.75934 0.0
O200 O 0.07232 0.29976 0.72054 0.0
Co201 Co 0.06687 0.34098 0.75255 0.0
O202 O 0.10229 0.33734 0.74242 0.0
C203 C 0.02676 0.33982 0.72023 0.0
C204 C 0.98204 0.24205 0.71469 0.0
C205 C 0.09907 0.3197 0.72779 0.0
O206 O 0.0213 0.31217 0.71535 0.0
O207 O 0.04243 0.35438 0.73558 0.0
O208 O 0.03535 0.25208 0.74649 0.0
O209 O 0.03737 0.29633 0.75428 0.0
Co210 Co 0.93617 0.58457 0.60108 0.0
O211 O 0.9246 0.56235 0.57599 0.0
O212 O 0.97262 0.59436 0.58627 0.0
C213 C 0.90268 0.60308 0.60243 0.0
O214 O 0.95819 0.61241 0.62464 0.0
Co215 Co 0.89232 0.56472 0.63683 0.0
O216 O 0.92442 0.60561 0.64831 0.0
C217 C 0.92147 0.52738 0.6263 0.0
C218 C 0.95425 0.57501 0.57288 0.0
C219 C 0.95146 0.62039 0.64104 0.0
O220 O 0.93773 0.54798 0.61336 0.0
O221 O 0.90039 0.52858 0.63622 0.0
O222 O 0.92742 0.61718 0.59172 0.0
O223 O 0.89685 0.57619 0.6093 0.0
Co224 Co 0.41412 0.35641 0.60841 0.0
O225 O 0.43978 0.36526 0.58544 0.0
O226 O 0.40509 0.38029 0.5897 0.0
C227 C 0.39911 0.30509 0.61265 0.0
O228 O 0.38276 0.35153 0.62904 0.0
Co229 Co 0.43051 0.33757 0.64842 0.0
O230 O 0.38856 0.32887 0.65613 0.0
C231 C 0.46738 0.40267 0.63461 0.0
C232 C 0.42675 0.38087 0.57893 0.0
C233 C 0.37368 0.33895 0.646 0.0
O234 O 0.4473 0.39678 0.62083 0.0
O235 O 0.46621 0.3815 0.64609 0.0
O236 O 0.38519 0.3132 0.59956 0.0
O237 O 0.42358 0.32805 0.62059 0.0
Co238 Co 0.63633 0.05584 0.60895 0.0
O239 O 0.62683 0.06894 0.58417 0.0
O240 O 0.60769 0.01963 0.59359 0.0
C241 C 0.68841 0.08799 0.61005 0.0
O242 O 0.64083 0.03226 0.63203 0.0
Co243 Co 0.66346 0.09971 0.64527 0.0
O244 O 0.67205 0.06658 0.65503 0.0
C245 C 0.59704 0.07213 0.63562 0.0
C246 C 0.60831 0.03917 0.58054 0.0
C247 C 0.65741 0.03888 0.64779 0.0
O248 O 0.60004 0.05633 0.62158 0.0
O249 O 0.61993 0.09213 0.64613 0.0
O250 O 0.67615 0.06246 0.59937 0.0
O251 O 0.66893 0.09511 0.61751 0.0
H252 H 0.43617 0.02705 0.05909 0.0
H253 H 0.46165 0.00578 0.03849 0.0
H254 H 0.48163 0.0776 0.99561 0.0
H255 H 0.45594 0.09887 0.01598 0.0
H256 H 0.44166 0.9906 0.99182 0.0
H257 H 0.56595 0.07119 0.01118 0.0
H258 H 0.53564 0.06157 0.02879 0.0
H259 H 0.5399 0.0866 0.00856 0.0
C260 C 0.44641 0.03866 0.04543 0.0
C261 C 0.44403 0.06473 0.03922 0.0
C262 C 0.46086 0.02638 0.03364 0.0
C263 C 0.47355 0.04013 0.01554 0.0
C264 C 0.47209 0.06671 0.00956 0.0
H265 H 0.57799 0.99454 0.93115 0.0
H266 H 0.55467 0.02089 0.94908 0.0
C267 C 0.45741 0.07885 0.02125 0.0
C268 C 0.48673 0.02566 1.00238 0.0
H269 H 0.55488 0.03136 0.98788 0.0
C270 C 0.46641 0.99948 0.99093 0.0
C271 C 0.519 0.03759 1.00102 0.0
C272 C 0.54162 0.06577 0.01301 0.0
C273 C 0.47748 0.98477 0.9782 0.0
C274 C 0.5098 0.99599 0.97728 0.0
C275 C 0.53015 0.02261 0.98853 0.0
C276 C 0.52282 0.97969 0.96542 0.0
C277 C 0.45435 0.95768 0.96561 0.0
C278 C 0.51275 0.94773 0.9685 0.0
C279 C 0.52572 0.93259 0.9581 0.0
C280 C 0.54955 0.94909 0.94456 0.0
C281 C 0.5595 0.98103 0.94132 0.0
C282 C 0.54631 0.99618 0.95167 0.0
H283 H 0.43297 0.95902 0.963 0.0
H284 H 0.46428 0.95713 0.9512 0.0
H285 H 0.44754 0.93527 0.97327 0.0
H286 H 0.49531 0.93457 0.97934 0.0
H287 H 0.51759 0.90805 0.96112 0.0
H288 H 0.98139 0.39997 0.06049 0.0
H289 H 0.00543 0.44869 0.04133 0.0
H290 H 0.9198 0.41654 0.00902 0.0
H291 H 0.89569 0.36827 0.02812 0.0
H292 H 0.01237 0.45218 1.00029 0.0
H293 H 0.94324 0.5065 0.02375 0.0
H294 H 0.94411 0.4754 0.03735 0.0
H295 H 0.92024 0.4664 0.01565 0.0
C296 C 0.96753 0.40363 0.0496 0.0
C297 C 0.93658 0.38031 0.0459 0.0
C298 C 0.98133 0.43138 0.03858 0.0
C299 C 0.96433 0.43646 0.02386 0.0
C300 C 0.93324 0.4135 0.02052 0.0
H301 H 0.00765 0.5838 0.93704 0.0
H302 H 0.98262 0.53436 0.9555 0.0
C303 C 0.91951 0.38581 0.03143 0.0
C304 C 0.97945 0.46469 0.01111 0.0
H305 H 0.97502 0.52871 0.99588 0.0
C306 C 0.00434 0.46903 0.99942 0.0
C307 C 0.96875 0.48649 0.00979 0.0
C308 C 0.9428 0.48371 0.02242 0.0
C309 C 0.01855 0.4943 0.9863 0.0
C310 C 0.00798 0.51623 0.98507 0.0
C311 C 0.983 0.51181 0.9967 0.0
C312 C 0.02357 0.54482 0.97263 0.0
C313 C 0.04436 0.49689 0.97361 0.0
C314 C 0.05491 0.56702 0.97598 0.0
C315 C 0.0692 0.59504 0.96543 0.0
C316 C 0.05248 0.60173 0.95134 0.0
C317 C 0.02126 0.5792 0.94762 0.0
C318 C 0.00689 0.55106 0.95825 0.0
H319 H 0.04316 0.4738 0.97181 0.0
H320 H 0.04364 0.5061 0.95886 0.0
H321 H 0.06699 0.51331 0.98067 0.0
H322 H 0.06813 0.56317 0.98725 0.0
H323 H 0.09322 0.61196 0.96877 0.0
H324 H 0.37823 0.47437 0.97168 0.0
H325 H 0.4283 0.49771 0.98879 0.0
H326 H 0.45641 0.44566 0.95148 0.0
H327 H 0.406 0.42183 0.93431 0.0
H328 H 0.45256 0.4615 0.00885 0.0
H329 H 0.53028 0.53889 0.95043 0.0
H330 H 0.48906 0.52461 0.95017 0.0
H331 H 0.50332 0.49872 0.94371 0.0
C332 C 0.39512 0.46807 0.96692 0.0
C333 C 0.388 0.44616 0.95159 0.0
C334 C 0.42376 0.48142 0.97678 0.0
C335 C 0.44619 0.47355 0.97141 0.0
C336 C 0.43958 0.45235 0.95576 0.0
H337 H 0.63452 0.54153 0.01684 0.0
H338 H 0.58541 0.51379 0.99855 0.0
C339 C 0.41076 0.43876 0.94594 0.0
C340 C 0.47582 0.48658 0.98284 0.0
H341 H 0.55391 0.53707 0.98014 0.0
C342 C 0.47475 0.478 1.00258 0.0
C343 C 0.50477 0.5079 0.97462 0.0
C344 C 0.50717 0.51836 0.95361 0.0
C345 C 0.50181 0.49004 0.01431 0.0
C346 C 0.53077 0.51206 0.00626 0.0
C347 C 0.53183 0.52029 0.9864 0.0
C348 C 0.56013 0.52731 0.01821 0.0
C349 C 0.49906 0.47849 0.03509 0.0
C350 C 0.5625 0.54414 0.03548 0.0
C351 C 0.59051 0.55972 0.04612 0.0
C352 C 0.61701 0.55928 0.03958 0.0
C353 C 0.61456 0.54224 0.02238 0.0
C354 C 0.58647 0.52645 0.01184 0.0
H355 H 0.47811 0.45499 0.03687 0.0
H356 H 0.51975 0.47695 0.03962 0.0
H357 H 0.49691 0.49509 0.04513 0.0
H358 H 0.54289 0.54598 0.04049 0.0
H359 H 0.59165 0.57298 0.05912 0.0
H360 H 0.11725 0.3724 0.39476 0.0
H361 H 0.14347 0.35192 0.37423 0.0
H362 H 0.14074 0.40639 0.32552 0.0
H363 H 0.11451 0.42687 0.34587 0.0
H364 H 0.1183 0.34299 0.31606 0.0
H365 H 0.2329 0.39447 0.35372 0.0
H366 H 0.20022 0.37373 0.36952 0.0
H367 H 0.20639 0.40899 0.3576 0.0
C368 C 0.1227 0.38044 0.37978 0.0
C369 C 0.11385 0.40141 0.37203 0.0
C370 C 0.13778 0.36875 0.36805 0.0
C371 C 0.14436 0.37778 0.34833 0.0
C372 C 0.13603 0.39912 0.34068 0.0
H373 H 0.25597 0.33315 0.26943 0.0
H374 H 0.23397 0.3605 0.28768 0.0
C375 C 0.12111 0.41091 0.3524 0.0
C376 C 0.15824 0.36365 0.33533 0.0
H377 H 0.22203 0.35543 0.32934 0.0
C378 C 0.14105 0.34586 0.31893 0.0
C379 C 0.18806 0.3676 0.3389 0.0
C380 C 0.20816 0.38745 0.35578 0.0
C381 C 0.1525 0.33134 0.30633 0.0
C382 C 0.1819 0.33448 0.31025 0.0
C383 C 0.19944 0.3529 0.32637 0.0
C384 C 0.19436 0.31799 0.29817 0.0
C385 C 0.13308 0.31285 0.28885 0.0
C386 C 0.17936 0.28501 0.29786 0.0
C387 C 0.19188 0.26937 0.28749 0.0
C388 C 0.21968 0.28632 0.27711 0.0
C389 C 0.23432 0.31936 0.27703 0.0
C390 C 0.2219 0.33503 0.28759 0.0
H391 H 0.11505 0.3191 0.2851 0.0
H392 H 0.14779 0.3169 0.27582 0.0
H393 H 0.12122 0.2874 0.29227 0.0
H394 H 0.15836 0.27132 0.30612 0.0
H395 H 0.18015 0.24393 0.28801 0.0
H396 H 0.56079 0.70625 0.36477 0.0
H397 H 0.58587 0.75436 0.34547 0.0
H398 H 0.67264 0.7821 0.37532 0.0
H399 H 0.64763 0.73362 0.39466 0.0
H400 H 0.61882 0.81859 0.35609 0.0
H401 H 0.6932 0.78207 0.31684 0.0
H402 H 0.66029 0.75505 0.33112 0.0
H403 H 0.69606 0.7824 0.34315 0.0
C404 C 0.58514 0.72276 0.36743 0.0
C405 C 0.60225 0.71606 0.38121 0.0
C406 C 0.59944 0.75026 0.35635 0.0
C407 C 0.63124 0.77158 0.35867 0.0
C408 C 0.64817 0.76569 0.37303 0.0
H409 H 0.76003 0.94429 0.3013 0.0
H410 H 0.73428 0.89586 0.32021 0.0
C411 C 0.63379 0.73816 0.38423 0.0
C412 C 0.64658 0.79937 0.3456 0.0
H413 H 0.70098 0.83269 0.30981 0.0
C414 C 0.63674 0.82167 0.34594 0.0
C415 C 0.66984 0.80325 0.33227 0.0
C416 C 0.68037 0.77935 0.33061 0.0
C417 C 0.64999 0.84808 0.33364 0.0
C418 C 0.67325 0.85196 0.32029 0.0
C419 C 0.68303 0.82961 0.31994 0.0
C420 C 0.68889 0.87994 0.30737 0.0
C421 C 0.63959 0.87208 0.33542 0.0
C422 C 0.67218 0.88666 0.29329 0.0
C423 C 0.68695 0.91444 0.28233 0.0
C424 C 0.71868 0.93591 0.28528 0.0
C425 C 0.73555 0.92828 0.2987 0.0
C426 C 0.72085 0.9006 0.30956 0.0
H427 H 0.62703 0.86946 0.3493 0.0
H428 H 0.65969 0.89635 0.33481 0.0
H429 H 0.62367 0.86898 0.32302 0.0
H430 H 0.64759 0.87074 0.29106 0.0
H431 H 0.67329 0.9197 0.27218 0.0
H432 H 0.07008 0.7532 0.26905 0.0
H433 H 0.12111 0.77758 0.28535 0.0
H434 H 0.0937 0.82924 0.32361 0.0
H435 H 0.0433 0.80585 0.30704 0.0
H436 H 0.15176 0.86593 0.31165 0.0
H437 H 0.13943 0.75345 0.33817 0.0
H438 H 0.13613 0.75504 0.31202 0.0
H439 H 0.10748 0.75598 0.32743 0.0
C440 C 0.07506 0.77 0.2808 0.0
C441 C 0.05247 0.77739 0.28679 0.0
C442 C 0.10416 0.78367 0.29028 0.0
C443 C 0.11113 0.80473 0.30609 0.0
C444 C 0.08893 0.81291 0.31159 0.0
H445 H 0.25768 0.90206 0.39332 0.0
H446 H 0.20874 0.87561 0.37465 0.0
C447 C 0.06002 0.79946 0.30207 0.0
C448 C 0.14138 0.81843 0.317 0.0
H449 H 0.18793 0.79944 0.3442 0.0
C450 C 0.15958 0.85132 0.31876 0.0
C451 C 0.1517 0.79947 0.32643 0.0
C452 C 0.13257 0.76404 0.32612 0.0
C453 C 0.18765 0.86567 0.32951 0.0
C454 C 0.1979 0.84673 0.33888 0.0
C455 C 0.18003 0.81391 0.33698 0.0
C456 C 0.22703 0.86081 0.35085 0.0
C457 C 0.20635 0.90108 0.33073 0.0
C458 C 0.25338 0.86062 0.34391 0.0
C459 C 0.28145 0.87584 0.35451 0.0
C460 C 0.28363 0.89124 0.3724 0.0
C461 C 0.25683 0.89034 0.37966 0.0
C462 C 0.22886 0.87537 0.36896 0.0
H463 H 0.1981 0.9124 0.32001 0.0
H464 H 0.20449 0.90886 0.3457 0.0
H465 H 0.23124 0.90942 0.32805 0.0
H466 H 0.25247 0.84946 0.33 0.0
H467 H 0.30162 0.8761 0.34847 0.0
H468 H 0.92372 0.66669 0.60272 0.0
H469 H 0.90248 0.6945 0.62123 0.0
H470 H 0.82764 0.60581 0.64101 0.0
H471 H 0.84863 0.57796 0.62258 0.0
H472 H 0.80866 0.64903 0.62877 0.0
H473 H 0.90731 0.70291 0.682 0.0
H474 H 0.91746 0.70974 0.65653 0.0
H475 H 0.90046 0.67059 0.66606 0.0
C476 C 0.90246 0.65311 0.61074 0.0
C477 C 0.88784 0.62007 0.61113 0.0
C478 C 0.89053 0.66905 0.62151 0.0
C479 C 0.86371 0.65228 0.63279 0.0
C480 C 0.84843 0.61929 0.63252 0.0
H481 H 0.78537 0.707 0.72826 0.0
H482 H 0.81118 0.68603 0.70771 0.0
C483 C 0.86043 0.60339 0.62192 0.0
C484 C 0.85158 0.66884 0.64513 0.0
H485 H 0.86818 0.71652 0.68547 0.0
C486 C 0.82175 0.66393 0.64109 0.0
C487 C 0.86847 0.68791 0.66142 0.0
C488 C 0.9001 0.69301 0.66695 0.0
C489 C 0.80844 0.67767 0.65277 0.0
C490 C 0.82547 0.69712 0.66889 0.0
C491 C 0.85524 0.70187 0.67303 0.0
C492 C 0.81228 0.71199 0.68183 0.0
C493 C 0.7759 0.67062 0.64805 0.0
C494 C 0.8051 0.73427 0.67433 0.0
C495 C 0.7905 0.74641 0.68606 0.0
C496 C 0.78272 0.73656 0.7056 0.0
C497 C 0.79102 0.71514 0.7133 0.0
C498 C 0.80576 0.7031 0.70156 0.0
H499 H 0.76356 0.65005 0.63802 0.0
H500 H 0.76222 0.66596 0.66165 0.0
H501 H 0.77687 0.6913 0.64077 0.0
H502 H 0.8103 0.74187 0.65925 0.0
H503 H 0.78451 0.76287 0.67962 0.0
H504 H 0.33904 0.25631 0.60827 0.0
H505 H 0.31389 0.20737 0.62718 0.0
H506 H 0.40052 0.23438 0.65702 0.0
H507 H 0.42575 0.28278 0.63808 0.0
H508 H 0.36891 0.1714 0.64645 0.0
H509 H 0.29165 0.20467 0.68512 0.0
H510 H 0.28874 0.20428 0.65882 0.0
H511 H 0.32423 0.23234 0.67087 0.0
C512 C 0.3528 0.25153 0.61862 0.0
C513 C 0.38436 0.27349 0.62172 0.0
C514 C 0.33834 0.22374 0.62959 0.0
C515 C 0.35518 0.2175 0.64383 0.0
C516 C 0.38698 0.23874 0.64624 0.0
H517 H 0.31489 0.07041 0.73043 0.0
H518 H 0.33951 0.11943 0.71159 0.0
C519 C 0.40138 0.26642 0.63537 0.0
C520 C 0.33985 0.18932 0.65662 0.0
H521 H 0.28454 0.15415 0.69173 0.0
C522 C 0.35049 0.16765 0.65637 0.0
C523 C 0.31597 0.18456 0.66968 0.0
C524 C 0.30459 0.20779 0.67135 0.0
C525 C 0.33753 0.14107 0.66853 0.0
C526 C 0.31363 0.1363 0.68156 0.0
C527 C 0.30296 0.15793 0.6818 0.0
C528 C 0.29842 0.10818 0.69437 0.0
C529 C 0.34903 0.11791 0.66699 0.0
C530 C 0.26688 0.08628 0.69156 0.0
C531 C 0.25279 0.05848 0.70235 0.0
C532 C 0.26986 0.05206 0.71632 0.0
C533 C 0.30109 0.07473 0.71985 0.0
C534 C 0.31525 0.10257 0.70894 0.0
H535 H 0.36238 0.12124 0.65338 0.0
H536 H 0.36449 0.12123 0.67971 0.0
H537 H 0.32939 0.09334 0.66726 0.0
H538 H 0.25338 0.09017 0.68051 0.0
H539 H 0.22868 0.04151 0.6993 0.0
H540 H 0.72646 0.14976 0.61891 0.0
H541 H 0.77759 0.17416 0.63485 0.0
H542 H 0.77255 0.0838 0.63668 0.0
H543 H 0.72246 0.05998 0.61943 0.0
H544 H 0.79353 0.16808 0.66865 0.0
H545 H 0.85853 0.13276 0.61951 0.0
H546 H 0.82087 0.12691 0.61288 0.0
H547 H 0.82441 0.09904 0.62835 0.0
C548 C 0.73675 0.13535 0.62223 0.0
C549 C 0.7208 0.10314 0.61756 0.0
C550 C 0.76591 0.14923 0.63151 0.0
C551 C 0.77955 0.1311 0.63683 0.0
C552 C 0.76343 0.09876 0.63217 0.0
H553 H 0.92398 0.20443 0.72962 0.0
H554 H 0.87492 0.17532 0.71133 0.0
C555 C 0.73464 0.08505 0.62234 0.0
C556 C 0.80952 0.14581 0.64828 0.0
H557 H 0.88118 0.15227 0.65113 0.0
C558 C 0.81275 0.16478 0.66464 0.0
C559 C 0.83502 0.142 0.64313 0.0
C560 C 0.83467 0.12436 0.62489 0.0
C561 C 0.84038 0.18001 0.67582 0.0
C562 C 0.86531 0.17493 0.67128 0.0
C563 C 0.86211 0.15594 0.65492 0.0
C564 C 0.89536 0.19024 0.68263 0.0
C565 C 0.84277 0.20236 0.69189 0.0
C566 C 0.92368 0.20673 0.67275 0.0
C567 C 0.95184 0.22233 0.68319 0.0
C568 C 0.95243 0.22229 0.70382 0.0
C569 C 0.92427 0.20514 0.71374 0.0
C570 C 0.89613 0.1888 0.70326 0.0
H571 H 0.8265 0.21132 0.68923 0.0
H572 H 0.83652 0.18977 0.70607 0.0
H573 H 0.86661 0.22282 0.69317 0.0
H574 H 0.92402 0.20825 0.65689 0.0
H575 H 0.9731 0.23548 0.67508 0.0
H576 H 0.42275 0.1692 0.10166 0.0
H577 H 0.40788 0.19629 0.12591 0.0
H578 H 0.34144 0.10692 0.1502 0.0
H579 H 0.35608 0.07984 0.12613 0.0
H580 H 0.34588 0.18673 0.13053 0.0
H581 H 0.38994 0.16032 0.1988 0.0
H582 H 0.40337 0.15753 0.17477 0.0
H583 H 0.36674 0.12671 0.18337 0.0
C584 C 0.40552 0.1554 0.11248 0.0
C585 C 0.39082 0.12236 0.11209 0.0
C586 C 0.39683 0.17088 0.12621 0.0
C587 C 0.37367 0.15366 0.13999 0.0
C588 C 0.35965 0.12076 0.13993 0.0
H589 H 0.2554 0.19977 0.20926 0.0
H590 H 0.27708 0.18049 0.18421 0.0
C591 C 0.36807 0.10531 0.12615 0.0
C592 C 0.36296 0.16969 0.15385 0.0
H593 H 0.3555 0.18031 0.20265 0.0
C594 C 0.34818 0.18555 0.1463 0.0
C595 C 0.36605 0.16827 0.17442 0.0
C596 C 0.38262 0.15254 0.18339 0.0
C597 C 0.3358 0.19934 0.15878 0.0
C598 C 0.33806 0.19705 0.17937 0.0
C599 C 0.35351 0.18186 0.18688 0.0
C600 C 0.32484 0.21043 0.19345 0.0
C601 C 0.32059 0.21643 0.14985 0.0
C602 C 0.34435 0.23369 0.20699 0.0
C603 C 0.33204 0.24477 0.22125 0.0
C604 C 0.29983 0.23264 0.22248 0.0
C605 C 0.28031 0.2098 0.20865 0.0
C606 C 0.2927 0.1988 0.19428 0.0
H607 H 0.32711 0.22248 0.13426 0.0
H608 H 0.29503 0.20114 0.15043 0.0
H609 H 0.32701 0.23836 0.15817 0.0
H610 H 0.36919 0.24298 0.2067 0.0
H611 H 0.34781 0.26227 0.23168 0.0
H612 H 0.92071 0.24188 0.10867 0.0
H613 H 0.89745 0.20327 0.13488 0.0
H614 H 0.82256 0.22325 0.13856 0.0
H615 H 0.84552 0.2617 0.11216 0.0
H616 H 0.88166 0.20786 0.17348 0.0
H617 H 0.77704 0.128 0.12929 0.0
H618 H 0.81114 0.16011 0.11857 0.0
H619 H 0.78412 0.16753 0.13151 0.0
C620 C 0.89945 0.23833 0.11517 0.0
C621 C 0.88492 0.25483 0.10822 0.0
C622 C 0.88614 0.21617 0.13015 0.0
C623 C 0.8579 0.20984 0.13844 0.0
C624 C 0.84399 0.2272 0.1321 0.0
H625 H 0.73886 0.07973 0.22743 0.0
H626 H 0.76216 0.11909 0.20162 0.0
C627 C 0.85732 0.24942 0.11712 0.0
C628 C 0.8429 0.18473 0.15346 0.0
H629 H 0.77756 0.11446 0.16257 0.0
C630 C 0.85895 0.1874 0.17107 0.0
C631 C 0.81325 0.15795 0.15031 0.0
C632 C 0.79543 0.15295 0.13134 0.0
C633 C 0.84597 0.16437 0.18574 0.0
C634 C 0.81634 0.13758 0.18258 0.0
C635 C 0.80027 0.13494 0.16498 0.0
C636 C 0.80147 0.11233 0.19751 0.0
C637 C 0.86381 0.16927 0.20469 0.0
C638 C 0.8153 0.09469 0.20343 0.0
C639 C 0.80194 0.07201 0.21816 0.0
C640 C 0.77441 0.06645 0.22724 0.0
C641 C 0.76006 0.08339 0.22078 0.0
C642 C 0.77339 0.10597 0.20603 0.0
H643 H 0.88229 0.19418 0.20674 0.0
H644 H 0.84811 0.16214 0.21746 0.0
H645 H 0.875 0.15458 0.20449 0.0
H646 H 0.83664 0.0987 0.1968 0.0
H647 H 0.8136 0.05941 0.22275 0.0
H648 H 0.92474 0.74412 0.22394 0.0
H649 H 0.88532 0.72478 0.19771 0.0
H650 H 0.87395 0.63211 0.20327 0.0
H651 H 0.91267 0.65105 0.22977 0.0
H652 H 0.8805 0.69781 0.16203 0.0
H653 H 0.78576 0.6129 0.2094 0.0
H654 H 0.82279 0.64246 0.21922 0.0
H655 H 0.81841 0.60684 0.20863 0.0
C656 C 0.91402 0.71968 0.21947 0.0
C657 C 0.92174 0.69911 0.22907 0.0
C658 C 0.89141 0.70861 0.20449 0.0
C659 C 0.87602 0.67676 0.19878 0.0
C660 C 0.88474 0.65654 0.20775 0.0
H661 H 0.73327 0.57575 0.10724 0.0
H662 H 0.77325 0.58937 0.1329 0.0
C663 C 0.90715 0.66751 0.22281 0.0
C664 C 0.85077 0.66474 0.18357 0.0
H665 H 0.77402 0.61116 0.17546 0.0
C666 C 0.85725 0.67887 0.16501 0.0
C667 C 0.82029 0.63997 0.18738 0.0
C668 C 0.81123 0.62483 0.20729 0.0
C669 C 0.83425 0.66893 0.15023 0.0
C670 C 0.80386 0.64433 0.15409 0.0
C671 C 0.79739 0.62986 0.1725 0.0
C672 C 0.77819 0.63478 0.13952 0.0
C673 C 0.84255 0.6848 0.13052 0.0
C674 C 0.76708 0.65533 0.13519 0.0
C675 C 0.74416 0.64752 0.12077 0.0
C676 C 0.73184 0.61899 0.11024 0.0
C677 C 0.74219 0.59785 0.11509 0.0
C678 C 0.7651 0.60565 0.12968 0.0
H679 H 0.86804 0.69867 0.12849 0.0
H680 H 0.83211 0.66718 0.11846 0.0
H681 H 0.83314 0.70102 0.12931 0.0
H682 H 0.77654 0.67773 0.14277 0.0
H683 H 0.73666 0.66431 0.11753 0.0
H684 H 0.58651 0.86306 0.87608 0.0
H685 H 0.60856 0.84363 0.85132 0.0
H686 H 0.70074 0.91332 0.86998 0.0
H687 H 0.67905 0.93279 0.89466 0.0
H688 H 0.65297 0.87503 0.81961 0.0
H689 H 0.69731 0.8274 0.87744 0.0
H690 H 0.66838 0.83844 0.88219 0.0
H691 H 0.70848 0.86813 0.88032 0.0
C692 C 0.61146 0.87457 0.8747 0.0
C693 C 0.63097 0.89939 0.88746 0.0
C694 C 0.62404 0.8634 0.86056 0.0
C695 C 0.65633 0.87669 0.859 0.0
C696 C 0.67578 0.90237 0.8711 0.0
H697 H 0.75777 0.83883 0.76785 0.0
H698 H 0.74062 0.86506 0.79122 0.0
C699 C 0.66328 0.91358 0.88516 0.0
C700 C 0.66977 0.86288 0.84545 0.0
H701 H 0.71148 0.8247 0.84482 0.0
C702 C 0.66582 0.86409 0.8251 0.0
C703 C 0.68629 0.8483 0.85262 0.0
C704 C 0.69024 0.84516 0.87433 0.0
C705 C 0.6782 0.85139 0.81176 0.0
C706 C 0.69518 0.83732 0.81895 0.0
C707 C 0.69885 0.83586 0.8393 0.0
C708 C 0.70762 0.82219 0.80566 0.0
C709 C 0.67239 0.85242 0.79007 0.0
C710 C 0.69573 0.78959 0.8065 0.0
C711 C 0.70556 0.77464 0.79326 0.0
C712 C 0.72781 0.79197 0.77901 0.0
C713 C 0.74084 0.82484 0.77877 0.0
C714 C 0.73076 0.8398 0.79195 0.0
H715 H 0.65398 0.85845 0.78713 0.0
H716 H 0.69404 0.87052 0.78311 0.0
H717 H 0.66557 0.82945 0.78297 0.0
H718 H 0.67801 0.77551 0.81699 0.0
H719 H 0.69499 0.74928 0.79379 0.0
H720 H 0.07053 0.74422 0.89264 0.0
H721 H 0.09318 0.78316 0.86658 0.0
H722 H 0.16862 0.76413 0.86204 0.0
H723 H 0.14582 0.72476 0.88791 0.0
H724 H 0.14977 0.83713 0.86716 0.0
H725 H 0.14372 0.76134 0.80491 0.0
H726 H 0.12245 0.74549 0.82723 0.0
H727 H 0.16301 0.75768 0.82628 0.0
C728 C 0.09167 0.7479 0.88588 0.0
C729 C 0.10624 0.73117 0.89231 0.0
C730 C 0.10468 0.77031 0.87101 0.0
C731 C 0.13248 0.77646 0.86215 0.0
C732 C 0.14683 0.75942 0.86832 0.0
H733 H 0.25363 0.9103 0.77537 0.0
H734 H 0.23062 0.87111 0.80129 0.0
C735 C 0.13379 0.73692 0.88318 0.0
C736 C 0.1472 0.80181 0.84723 0.0
H737 H 0.17348 0.81654 0.80013 0.0
C738 C 0.15479 0.83258 0.85247 0.0
C739 C 0.15387 0.79597 0.82805 0.0
C740 C 0.1451 0.7633 0.82117 0.0
C741 C 0.16931 0.85767 0.83923 0.0
C742 C 0.17605 0.85185 0.82007 0.0
C743 C 0.16844 0.82108 0.81482 0.0
C744 C 0.19086 0.87722 0.80519 0.0
C745 C 0.17798 0.89034 0.84606 0.0
C746 C 0.17635 0.89398 0.79877 0.0
C747 C 0.18956 0.91657 0.78398 0.0
C748 C 0.21749 0.92275 0.77519 0.0
C749 C 0.23221 0.9063 0.78187 0.0
C750 C 0.219 0.88375 0.79665 0.0
H751 H 0.17898 0.89227 0.86232 0.0
H752 H 0.20078 0.90812 0.84017 0.0
H753 H 0.16024 0.89603 0.84069 0.0
H754 H 0.15434 0.88899 0.80482 0.0
H755 H 0.17742 0.92853 0.77906 0.0
H756 H 0.26679 0.41233 0.88437 0.0
H757 H 0.22733 0.39272 0.85805 0.0
H758 H 0.20266 0.29748 0.87199 0.0
H759 H 0.24191 0.31674 0.89817 0.0
H760 H 0.21737 0.34997 0.82412 0.0
H761 H 0.1207 0.30161 0.8773 0.0
H762 H 0.15989 0.33075 0.88415 0.0
H763 H 0.14969 0.29038 0.88098 0.0
C764 C 0.25324 0.38724 0.88167 0.0
C765 C 0.25749 0.36614 0.89346 0.0
C766 C 0.23067 0.37606 0.86663 0.0
C767 C 0.21176 0.3436 0.86321 0.0
C768 C 0.2167 0.32259 0.8745 0.0
H769 H 0.08029 0.24824 0.76555 0.0
H770 H 0.12112 0.26346 0.79077 0.0
C771 C 0.2393 0.3337 0.88943 0.0
C772 C 0.18611 0.33154 0.84837 0.0
H773 H 0.10703 0.29086 0.84374 0.0
C774 C 0.19325 0.33698 0.82838 0.0
C775 C 0.15462 0.3148 0.85397 0.0
C776 C 0.14557 0.30915 0.87526 0.0
C777 C 0.16973 0.32589 0.81384 0.0
C778 C 0.13826 0.30879 0.81944 0.0
C779 C 0.13115 0.30361 0.83944 0.0
C780 C 0.11238 0.2978 0.80484 0.0
C781 C 0.17863 0.33312 0.7926 0.0
C782 C 0.09328 0.31127 0.80474 0.0
C783 C 0.07005 0.30263 0.79042 0.0
C784 C 0.06506 0.28 0.77599 0.0
C785 C 0.08335 0.26553 0.77656 0.0
C786 C 0.10689 0.27445 0.79083 0.0
H787 H 0.20349 0.35106 0.79096 0.0
H788 H 0.17435 0.31131 0.78494 0.0
H789 H 0.16427 0.34166 0.78521 0.0
H790 H 0.09697 0.32921 0.81543 0.0
H791 H 0.05641 0.31427 0.79036 0.0
H792 H 0.08994 0.50483 0.43401 0.0
H793 H 0.07428 0.53138 0.45816 0.0
H794 H 0.01339 0.44217 0.48493 0.0
H795 H 0.02884 0.41565 0.46096 0.0
H796 H 0.0114 0.51831 0.46404 0.0
H797 H 0.06253 0.49974 0.53189 0.0
H798 H 0.0751 0.49645 0.50768 0.0
H799 H 0.03988 0.46484 0.51737 0.0
C800 C 0.07382 0.49101 0.44535 0.0
C801 C 0.06089 0.45815 0.44569 0.0
C802 C 0.06466 0.50616 0.45903 0.0
C803 C 0.04279 0.48881 0.47347 0.0
C804 C 0.03059 0.45615 0.47414 0.0
H805 H 0.9224 0.53087 0.54393 0.0
H806 H 0.94417 0.51179 0.51881 0.0
C807 C 0.03948 0.44101 0.46041 0.0
C808 C 0.03147 0.50434 0.48729 0.0
H809 H 0.02592 0.51692 0.53605 0.0
C810 C 0.01477 0.51824 0.47978 0.0
C811 C 0.03593 0.50436 0.50782 0.0
C812 C 0.05456 0.49081 0.51673 0.0
C813 C 0.00185 0.53148 0.49227 0.0
C814 C 0.00553 0.53062 0.51285 0.0
C815 C 0.02284 0.51737 0.5203 0.0
C816 C 0.99205 0.54369 0.52698 0.0
C817 C 0.98461 0.54652 0.48335 0.0
C818 C 0.01159 0.56795 0.53996 0.0
C819 C 0.99923 0.57887 0.55428 0.0
C820 C 0.96694 0.56564 0.55612 0.0
C821 C 0.94734 0.54177 0.54284 0.0
C822 C 0.95979 0.53089 0.52843 0.0
H823 H 0.99016 0.55199 0.4676 0.0
H824 H 0.95931 0.53008 0.48447 0.0
H825 H 0.9902 0.56853 0.4913 0.0
H826 H 0.03652 0.57817 0.53919 0.0
H827 H 0.01507 0.5972 0.56426 0.0
H828 H 0.51043 0.59662 0.44675 0.0
H829 H 0.48798 0.55842 0.47334 0.0
H830 H 0.56125 0.53634 0.46782 0.0
H831 H 0.584 0.57467 0.44149 0.0
H832 H 0.46607 0.4944 0.47101 0.0
H833 H 0.56054 0.54873 0.52671 0.0
H834 H 0.55846 0.57005 0.50574 0.0
H835 H 0.5733 0.5435 0.5032 0.0
C836 C 0.52209 0.58406 0.45144 0.0
C837 C 0.54915 0.5889 0.44204 0.0
C838 C 0.50913 0.56209 0.46659 0.0
C839 C 0.52307 0.54468 0.47278 0.0
C840 C 0.55037 0.54989 0.46363 0.0
H841 H 0.47659 0.39314 0.5561 0.0
H842 H 0.49878 0.43149 0.52956 0.0
C843 C 0.56332 0.5718 0.4485 0.0
C844 C 0.50821 0.51991 0.48801 0.0
H845 H 0.52093 0.49606 0.53254 0.0
C846 C 0.47799 0.49489 0.48453 0.0
C847 C 0.52379 0.52039 0.50562 0.0
C848 C 0.5557 0.54724 0.51068 0.0
C849 C 0.46319 0.47011 0.49795 0.0
C850 C 0.47881 0.47054 0.51553 0.0
C851 C 0.50901 0.49559 0.51903 0.0
C852 C 0.46405 0.44567 0.5307 0.0
C853 C 0.43121 0.44332 0.49297 0.0
C854 C 0.43703 0.44067 0.54013 0.0
C855 C 0.42426 0.41872 0.55526 0.0
C856 C 0.4383 0.40133 0.56138 0.0
C857 C 0.46504 0.40593 0.55167 0.0
C858 C 0.47784 0.42797 0.53655 0.0
H859 H 0.42609 0.44205 0.47698 0.0
H860 H 0.42857 0.42047 0.49768 0.0
H861 H 0.41373 0.44692 0.50073 0.0
H862 H 0.42626 0.45442 0.53618 0.0
H863 H 0.40382 0.41601 0.56251 0.0
H864 H 0.55344 0.98443 0.57712 0.0
H865 H 0.51585 0.96701 0.55015 0.0
H866 H 0.57704 0.05034 0.51772 0.0
H867 H 0.61392 0.06887 0.54543 0.0
H868 H 0.52317 0.04146 0.51329 0.0
H869 H 0.51141 0.92518 0.50041 0.0
H870 H 0.50177 0.92793 0.52527 0.0
H871 H 0.54064 0.95368 0.51676 0.0
C872 C 0.55908 0.9989 0.56414 0.0
C873 C 0.58682 0.02791 0.56333 0.0
C874 C 0.53759 0.98874 0.54858 0.0
C875 C 0.54373 0.00676 0.53147 0.0
C876 C 0.57165 0.03575 0.53062 0.0
H877 H 0.42357 0.92744 0.42695 0.0
H878 H 0.4647 0.94356 0.4519 0.0
C879 C 0.59283 0.04634 0.54644 0.0
C880 C 0.52029 0.99625 0.51506 0.0
H881 H 0.47013 0.93223 0.4874 0.0
C882 C 0.51191 0.01765 0.5075 0.0
C883 C 0.50581 0.96538 0.50699 0.0
C884 C 0.51567 0.94191 0.51264 0.0
C885 C 0.48916 0.00897 0.49266 0.0
C886 C 0.47289 0.97739 0.48576 0.0
C887 C 0.4819 0.95623 0.49289 0.0
C888 C 0.44685 0.966 0.47104 0.0
C889 C 0.48359 0.03419 0.48424 0.0
C890 C 0.42234 0.97214 0.4736 0.0
C891 C 0.39932 0.96362 0.45911 0.0
C892 C 0.39941 0.94747 0.44213 0.0
C893 C 0.42269 0.93948 0.44005 0.0
C894 C 0.44632 0.94887 0.45429 0.0
H895 H 0.5046 0.0578 0.48573 0.0
H896 H 0.47688 0.02982 0.46848 0.0
H897 H 0.46476 0.0348 0.49245 0.0
H898 H 0.42124 0.98405 0.48668 0.0
H899 H 0.38157 0.96999 0.46108 0.0
H900 H 0.27342 0.97322 0.06214 0.0
H901 H 0.24451 0.92824 0.04039 0.0
H902 H 0.31498 0.97209 0.99647 0.0
H903 H 0.34466 0.01725 0.0184 0.0
H904 H 0.22034 0.92588 1.00339 0.0
H905 H 0.30693 0.88553 1.00226 0.0
H906 H 0.30931 0.91435 0.01971 0.0
H907 H 0.32027 0.92528 0.9947 0.0
C908 C 0.28293 0.97341 0.04789 0.0
C909 C 0.31147 0.99886 0.04207 0.0
C910 C 0.26628 0.94767 0.03544 0.0
C911 C 0.27769 0.94674 0.01689 0.0
C912 C 0.30601 0.97214 0.01087 0.0
H913 H 0.1458 0.78361 0.94429 0.0
H914 H 0.18386 0.83843 0.9523 0.0
C915 C 0.32288 0.99795 0.0234 0.0
C916 C 0.25963 0.91875 0.0042 0.0
H917 H 0.25936 0.85372 0.98617 0.0
C918 C 0.22895 0.91027 0.99933 0.0
C919 C 0.27105 0.89854 0.99897 0.0
C920 C 0.3036 0.90613 0.00425 0.0
C921 C 0.20876 0.88125 0.99037 0.0
C922 C 0.21984 0.8605 0.98581 0.0
C923 C 0.25103 0.86979 0.98965 0.0
C924 C 0.19855 0.82753 0.97973 0.0
C925 C 0.17527 0.87221 0.98707 0.0
C926 C 0.19495 0.80327 0.99219 0.0
C927 C 0.17355 0.77207 0.98762 0.0
C928 C 0.15515 0.7644 0.97048 0.0
C929 C 0.15936 0.78872 0.95771 0.0
C930 C 0.18102 0.82005 0.96227 0.0
H931 H 0.16938 0.88869 0.99448 0.0
H932 H 0.17076 0.87244 0.97112 0.0
H933 H 0.15957 0.8481 0.99252 0.0
H934 H 0.20823 0.80854 0.00575 0.0
H935 H 0.17106 0.75405 0.9978 0.0
H936 H 0.97451 0.33219 0.98672 0.0
H937 H 0.02494 0.34265 0.97498 0.0
H938 H 0.04786 0.32351 0.03259 0.0
H939 H 0.99719 0.31228 0.04439 0.0
H940 H 0.08131 0.38802 0.98715 0.0
H941 H 0.07155 0.27164 0.9984 0.0
H942 H 0.03846 0.27736 0.99935 0.0
H943 H 0.06412 0.28711 0.02024 0.0
C944 C 0.99012 0.32988 0.99688 0.0
C945 C 0.9817 0.32127 0.01651 0.0
C946 C 0.01896 0.33587 0.99012 0.0
C947 C 0.04001 0.33341 1.00281 0.0
C948 C 0.0317 0.32477 0.0224 0.0
H949 H 0.23819 0.42382 0.99414 0.0
H950 H 0.1844 0.40739 1.00144 0.0
C951 C 0.00275 0.31854 0.02915 0.0
C952 C 0.07132 0.34173 0.99584 0.0
H953 H 0.1224 0.31464 0.99228 0.0
C954 C 0.09018 0.37186 0.98812 0.0
C955 C 0.08276 0.32051 0.99687 0.0
C956 C 0.06306 0.28724 0.00398 0.0
C957 C 0.12044 0.38167 0.98195 0.0
C958 C 0.13237 0.361 0.98386 0.0
C959 C 0.11326 0.33054 0.99101 0.0
C960 C 0.16496 0.37098 0.97912 0.0
C961 C 0.13938 0.41407 0.97338 0.0
C962 C 0.17188 0.35556 0.96436 0.0
C963 C 0.20273 0.36486 0.96013 0.0
C964 C 0.22721 0.38957 0.97074 0.0
C965 C 0.22004 0.40482 0.98559 0.0
C966 C 0.18926 0.39555 0.98975 0.0
H967 H 0.12443 0.42342 0.96797 0.0
H968 H 0.15515 0.43038 0.98489 0.0
H969 H 0.15374 0.4139 0.96107 0.0
H970 H 0.1534 0.33642 0.95606 0.0
H971 H 0.20733 0.35251 0.94865 0.0
H972 H 0.65251 0.65007 0.02258 0.0
H973 H 0.6322 0.6772 1.00243 0.0
H974 H 0.70645 0.7667 0.02311 0.0
H975 H 0.72645 0.73994 0.04353 0.0
H976 H 0.64992 0.76071 0.02799 0.0
H977 H 0.66082 0.7276 0.95178 0.0
H978 H 0.64067 0.69496 0.96806 0.0
H979 H 0.68104 0.72255 0.97235 0.0
C980 C 0.66478 0.67554 0.02258 0.0
C981 C 0.69096 0.69286 0.03477 0.0
C982 C 0.65325 0.691 0.01097 0.0
C983 C 0.66798 0.72397 0.01115 0.0
C984 C 0.69474 0.74124 0.02275 0.0
H985 H 0.63955 0.85766 0.94534 0.0
H986 H 0.65701 0.82178 0.95681 0.0
C987 C 0.70609 0.72588 0.03446 0.0
C988 C 0.65409 0.74063 1.00088 0.0
H989 H 0.63269 0.75468 0.95592 0.0
C990 C 0.64619 0.75939 0.01223 0.0
C991 C 0.64944 0.739 0.98031 0.0
C992 C 0.65867 0.72018 0.96735 0.0
C993 C 0.63385 0.77669 1.00362 0.0
C994 C 0.6285 0.77455 0.98311 0.0
C995 C 0.63648 0.7559 0.97167 0.0
C996 C 0.6157 0.79264 0.97344 0.0
C997 C 0.62736 0.79775 0.01652 0.0
C998 C 0.58616 0.78724 0.97834 0.0
C999 C 0.57622 0.80781 0.972 0.0
C1000 C 0.59555 0.834 0.96047 0.0
C1001 C 0.62417 0.83788 0.95433 0.0
C1002 C 0.63418 0.81737 0.96081 0.0
H1003 H 0.6395 0.80238 0.03095 0.0
H1004 H 0.63461 0.82062 0.0093 0.0
H1005 H 0.60209 0.78618 0.01924 0.0
H1006 H 0.57136 0.7679 0.9878 0.0
H1007 H 0.55384 0.80381 0.97675 0.0
H1008 H 0.6155 0.96873 0.01192 0.0
H1009 H 0.65617 0.01527 0.02905 0.0
H1010 H 0.71336 0.03972 0.97772 0.0
H1011 H 0.67348 0.99325 0.9607 0.0
H1012 H 0.74634 0.04726 0.01222 0.0
H1013 H 0.67366 0.10404 0.01694 0.0
H1014 H 0.65819 0.066 0.02799 0.0
H1015 H 0.66268 0.06975 1.00186 0.0
C1016 C 0.6368 0.98394 0.00432 0.0
C1017 C 0.64108 0.97735 0.98487 0.0
C1018 C 0.65996 0.01055 0.01412 0.0
C1019 C 0.68758 0.03111 0.00456 0.0
C1020 C 0.69221 0.02413 0.98538 0.0
H1021 H 0.81549 0.22343 0.00521 0.0
H1022 H 0.77425 0.16906 1.00153 0.0
C1023 C 0.66926 0.99755 0.97564 0.0
C1024 C 0.7114 0.06079 0.0139 0.0
H1025 H 0.72542 0.13373 0.02747 0.0
C1026 C 0.74175 0.06607 0.01588 0.0
C1027 C 0.70524 0.08524 0.01853 0.0
C1028 C 0.67327 0.08124 0.01613 0.0
C1029 C 0.76643 0.09565 0.02146 0.0
C1030 C 0.76039 0.12034 0.02545 0.0
C1031 C 0.72983 0.11462 0.02444 0.0
C1032 C 0.7857 0.15316 0.02825 0.0
C1033 C 0.79896 0.10078 0.02191 0.0
C1034 C 0.80584 0.16223 0.04456 0.0
C1035 C 0.82971 0.19346 0.0467 0.0
C1036 C 0.83363 0.21608 0.03261 0.0
C1037 C 0.81322 0.20674 0.01637 0.0
C1038 C 0.78955 0.17565 0.01424 0.0
H1039 H 0.80012 0.08054 0.01555 0.0
H1040 H 0.81485 0.12231 0.01369 0.0
H1041 H 0.80744 0.1041 0.03733 0.0
H1042 H 0.80296 0.14526 0.05566 0.0
H1043 H 0.84486 0.1999 0.05947 0.0
H1044 H 0.76665 0.61582 0.02683 0.0
H1045 H 0.81117 0.61623 0.0116 0.0
H1046 H 0.8714 0.67907 0.05692 0.0
H1047 H 0.82732 0.67925 0.07207 0.0
H1048 H 0.89394 0.69871 0.01995 0.0
H1049 H 0.85892 0.57302 0.02978 0.0
H1050 H 0.83053 0.57949 0.01746 0.0
H1051 H 0.8406 0.59145 0.04266 0.0
C1052 C 0.78933 0.62956 0.03364 0.0
C1053 C 0.79338 0.64757 0.05065 0.0
C1054 C 0.81472 0.62963 0.02496 0.0
C1055 C 0.84453 0.64741 0.03325 0.0
C1056 C 0.84858 0.66517 0.0503 0.0
H1057 H 0.01189 0.64132 0.01109 0.0
H1058 H 0.9644 0.63689 0.02418 0.0
C1059 C 0.82331 0.66524 0.05893 0.0
C1060 C 0.87183 0.64861 0.02386 0.0
H1061 H 0.90358 0.60368 0.01072 0.0
C1062 C 0.89606 0.67794 0.01791 0.0
C1063 C 0.87462 0.6215 0.0214 0.0
C1064 C 0.84994 0.5896 0.0283 0.0
C1065 C 0.92306 0.68095 0.00959 0.0
C1066 C 0.92563 0.65377 0.00678 0.0
C1067 C 0.90141 0.62443 0.01273 0.0
C1068 C 0.95381 0.65554 0.99837 0.0
C1069 C 0.94894 0.71334 0.00439 0.0
C1070 C 0.96334 0.66701 0.97937 0.0
C1071 C 0.99061 0.66978 0.97185 0.0
C1072 C 0.00876 0.66086 0.98314 0.0
C1073 C 0.99863 0.64858 1.00199 0.0
C1074 C 0.97143 0.64594 0.00951 0.0
H1075 H 0.94657 0.73211 0.01192 0.0
H1076 H 0.9719 0.71615 0.00832 0.0
H1077 H 0.94836 0.71678 0.98834 0.0
H1078 H 0.94971 0.67392 0.97036 0.0
H1079 H 0.99748 0.67901 0.9572 0.0
H1080 H 0.35102 0.37257 0.01413 0.0
H1081 H 0.3567 0.33016 0.02861 0.0
H1082 H 0.3174 0.27408 0.97624 0.0
H1083 H 0.31112 0.316 0.96173 0.0
H1084 H 0.29138 0.24133 0.00995 0.0
H1085 H 0.41984 0.30318 0.01525 0.0
H1086 H 0.40286 0.32386 0.02673 0.0
H1087 H 0.39925 0.31766 1.00061 0.0
C1088 C 0.3437 0.35129 0.00563 0.0
C1089 C 0.33059 0.34773 0.98675 0.0
C1090 C 0.34716 0.32715 0.0139 0.0
C1091 C 0.33786 0.29918 1.00338 0.0
C1092 C 0.32482 0.29555 0.98456 0.0
H1093 H 0.37969 0.15178 0.03086 0.0
H1094 H 0.37584 0.19506 0.01609 0.0
C1095 C 0.32126 0.31958 0.97631 0.0
C1096 C 0.3406 0.27315 0.01223 0.0
H1097 H 0.39257 0.25389 0.03131 0.0
C1098 C 0.3135 0.24402 0.01458 0.0
C1099 C 0.36955 0.27667 0.018 0.0
C1100 C 0.39959 0.30692 0.01487 0.0
C1101 C 0.31449 0.21837 0.0228 0.0
C1102 C 0.34331 0.22219 0.02919 0.0
C1103 C 0.37048 0.25117 0.02658 0.0
C1104 C 0.34577 0.1962 0.03836 0.0
C1105 C 0.28476 0.18727 0.02425 0.0
C1106 C 0.33047 0.18283 0.05592 0.0
C1107 C 0.33246 0.15799 0.06437 0.0
C1108 C 0.35005 0.14624 0.05549 0.0
C1109 C 0.36585 0.16015 0.03807 0.0
C1110 C 0.36373 0.18491 0.0296 0.0
H1111 H 0.26653 0.18602 0.01413 0.0
H1112 H 0.28867 0.16739 0.02085 0.0
H1113 H 0.27594 0.1843 0.03943 0.0
H1114 H 0.31705 0.1917 0.06314 0.0
H1115 H 0.32031 0.14812 0.07791 0.0
H1116 H 0.9439 0.30605 0.39841 0.0
H1117 H 0.91447 0.26067 0.37704 0.0
H1118 H 0.98345 0.30401 0.33221 0.0
H1119 H 0.01363 0.34961 0.35372 0.0
H1120 H 0.88939 0.25857 0.34008 0.0
H1121 H 0.97499 0.21698 0.33807 0.0
H1122 H 0.97784 0.2458 0.3557 0.0
H1123 H 0.98857 0.25686 0.33068 0.0
C1124 C 0.953 0.30603 0.38405 0.0
C1125 C 0.98122 0.33151 0.37783 0.0
C1126 C 0.93606 0.28005 0.37182 0.0
C1127 C 0.94687 0.27891 0.35311 0.0
C1128 C 0.97494 0.30426 0.34673 0.0
H1129 H 0.81384 0.11757 0.27992 0.0
H1130 H 0.85236 0.17201 0.28842 0.0
C1131 C 0.99209 0.33031 0.35903 0.0
C1132 C 0.92835 0.25089 0.34056 0.0
H1133 H 0.92709 0.18555 0.3222 0.0
C1134 C 0.8977 0.24276 0.33588 0.0
C1135 C 0.93939 0.23044 0.33517 0.0
C1136 C 0.97191 0.2377 0.34023 0.0
C1137 C 0.87721 0.21388 0.32688 0.0
C1138 C 0.88794 0.19292 0.32211 0.0
C1139 C 0.91905 0.20179 0.32584 0.0
C1140 C 0.86635 0.16017 0.31579 0.0
C1141 C 0.84381 0.20525 0.3237 0.0
C1142 C 0.86219 0.13551 0.32806 0.0
C1143 C 0.84049 0.10452 0.32323 0.0
C1144 C 0.82237 0.09747 0.306 0.0
C1145 C 0.82716 0.12219 0.29341 0.0
C1146 C 0.8491 0.15331 0.29825 0.0
H1147 H 0.8382 0.22183 0.33126 0.0
H1148 H 0.83925 0.20572 0.30778 0.0
H1149 H 0.82794 0.18113 0.32907 0.0
H1150 H 0.87527 0.14032 0.34168 0.0
H1151 H 0.83756 0.08617 0.33326 0.0
H1152 H 0.87157 0.67932 0.29058 0.0
H1153 H 0.81832 0.66441 0.29899 0.0
H1154 H 0.85178 0.75188 0.33061 0.0
H1155 H 0.90499 0.76647 0.32287 0.0
H1156 H 0.81117 0.70423 0.35171 0.0
H1157 H 0.76238 0.69401 0.27682 0.0
H1158 H 0.77914 0.66941 0.28049 0.0
H1159 H 0.80346 0.7115 0.28153 0.0
C1160 C 0.86756 0.69551 0.29918 0.0
C1161 C 0.89257 0.72408 0.30607 0.0
C1162 C 0.83707 0.68702 0.30388 0.0
C1163 C 0.83096 0.70721 0.31521 0.0
C1164 C 0.85588 0.73592 0.32185 0.0
H1165 H 0.65448 0.69811 0.33206 0.0
H1166 H 0.70602 0.70991 0.32171 0.0
C1167 C 0.88633 0.74423 0.31738 0.0
C1168 C 0.79886 0.69804 0.32099 0.0
H1169 H 0.72644 0.67578 0.30298 0.0
C1170 C 0.79266 0.69809 0.34104 0.0
C1171 C 0.77478 0.69034 0.30706 0.0
C1172 C 0.78028 0.69158 0.28527 0.0
C1173 C 0.76317 0.69075 0.34756 0.0
C1174 C 0.73885 0.68211 0.33368 0.0
C1175 C 0.74501 0.68208 0.31362 0.0
C1176 C 0.70712 0.67409 0.33963 0.0
C1177 C 0.7587 0.69327 0.36923 0.0
C1178 C 0.69034 0.6497 0.35292 0.0
C1179 C 0.66102 0.64317 0.35907 0.0
C1180 C 0.64762 0.66048 0.35172 0.0
C1181 C 0.66407 0.68425 0.33795 0.0
C1182 C 0.69355 0.69103 0.33201 0.0
H1183 H 0.78109 0.70863 0.37694 0.0
H1184 H 0.74294 0.70277 0.37184 0.0
H1185 H 0.74834 0.66956 0.37585 0.0
H1186 H 0.69996 0.63574 0.35859 0.0
H1187 H 0.64882 0.62449 0.36953 0.0
H1188 H 0.21748 0.13863 0.31227 0.0
H1189 H 0.23358 0.10213 0.32446 0.0
H1190 H 0.32074 0.15427 0.29476 0.0
H1191 H 0.30464 0.19056 0.28208 0.0
H1192 H 0.29714 0.08903 0.2938 0.0
H1193 H 0.29763 0.13258 0.36914 0.0
H1194 H 0.26097 0.11652 0.35651 0.0
H1195 H 0.29389 0.15162 0.34753 0.0
C1196 C 0.23991 0.14212 0.30807 0.0
C1197 C 0.25999 0.16787 0.29647 0.0
C1198 C 0.24908 0.12126 0.3151 0.0
C1199 C 0.27863 0.12599 0.3109 0.0
C1200 C 0.29791 0.15037 0.29827 0.0
H1201 H 0.38622 0.07169 0.38295 0.0
H1202 H 0.36542 0.09858 0.36336 0.0
C1203 C 0.28866 0.17111 0.29107 0.0
C1204 C 0.29042 0.10723 0.32092 0.0
H1205 H 0.30841 0.09113 0.36626 0.0
C1206 C 0.29958 0.08937 0.30964 0.0
C1207 C 0.29404 0.10821 0.34157 0.0
C1208 C 0.28641 0.12848 0.35442 0.0
C1209 C 0.31218 0.07232 0.31851 0.0
C1210 C 0.31516 0.07281 0.33919 0.0
C1211 C 0.30593 0.09064 0.35041 0.0
C1212 C 0.32896 0.05619 0.34966 0.0
C1213 C 0.32299 0.05471 0.30565 0.0
C1214 C 0.3155 0.02337 0.34836 0.0
C1215 C 0.32754 0.00787 0.35947 0.0
C1216 C 0.35294 0.02492 0.37229 0.0
C1217 C 0.36652 0.05781 0.37334 0.0
C1218 C 0.35469 0.07324 0.36212 0.0
H1219 H 0.32647 0.0632 0.29028 0.0
H1220 H 0.34503 0.05707 0.31135 0.0
H1221 H 0.30519 0.02938 0.30549 0.0
H1222 H 0.2952 0.00966 0.33918 0.0
H1223 H 0.3164 0.98249 0.35844 0.0
H1224 H 0.48243 0.56057 0.3372 0.0
H1225 H 0.44027 0.50663 0.33317 0.0
H1226 H 0.46354 0.48243 0.38912 0.0
H1227 H 0.50635 0.53649 0.39323 0.0
H1228 H 0.45299 0.43881 0.36047 0.0
H1229 H 0.35742 0.46543 0.36074 0.0
H1230 H 0.38623 0.48867 0.34308 0.0
H1231 H 0.3963 0.49354 0.3688 0.0
C1232 C 0.47862 0.5439 0.34872 0.0
C1233 C 0.49772 0.55296 0.36559 0.0
C1234 C 0.45432 0.51309 0.34644 0.0
C1235 C 0.44833 0.49075 0.36106 0.0
C1236 C 0.46762 0.49945 0.37777 0.0
H1237 H 0.27736 0.30967 0.3429 0.0
H1238 H 0.31742 0.35685 0.35982 0.0
C1239 C 0.4921 0.53032 0.38005 0.0
C1240 C 0.42255 0.45811 0.35835 0.0
H1241 H 0.34577 0.41593 0.346 0.0
C1242 C 0.42942 0.43367 0.35765 0.0
C1243 C 0.39168 0.4513 0.35514 0.0
C1244 C 0.38239 0.4761 0.35719 0.0
C1245 C 0.40661 0.40294 0.35248 0.0
C1246 C 0.37639 0.39677 0.34751 0.0
C1247 C 0.36905 0.42076 0.34954 0.0
C1248 C 0.35293 0.36661 0.33846 0.0
C1249 C 0.41527 0.37755 0.35205 0.0
C1250 C 0.35959 0.35657 0.32084 0.0
C1251 C 0.33689 0.32971 0.31119 0.0
C1252 C 0.30685 0.31243 0.31884 0.0
C1253 C 0.30027 0.32235 0.33663 0.0
C1254 C 0.32311 0.34928 0.34632 0.0
H1255 H 0.43448 0.38285 0.36259 0.0
H1256 H 0.39519 0.35421 0.35561 0.0
H1257 H 0.42339 0.37626 0.33716 0.0
H1258 H 0.38214 0.37006 0.31419 0.0
H1259 H 0.34282 0.32295 0.29748 0.0
H1260 H 0.66636 0.95535 0.33668 0.0
H1261 H 0.61796 0.94932 0.3494 0.0
H1262 H 0.62749 0.02471 0.3123 0.0
H1263 H 0.67534 0.03022 0.29906 0.0
H1264 H 0.60843 0.98975 0.36957 0.0
H1265 H 0.53906 0.95974 0.30086 0.0
H1266 H 0.57532 0.95985 0.30252 0.0
H1267 H 0.57499 0.99603 0.29891 0.0
C1268 C 0.65805 0.97052 0.33113 0.0
C1269 C 0.67471 0.99325 0.31683 0.0
C1270 C 0.63035 0.96701 0.33839 0.0
C1271 C 0.61877 0.9862 0.33158 0.0
C1272 C 0.63544 0.00902 0.31738 0.0
H1273 H 0.4942 0.02911 0.39432 0.0
H1274 H 0.53839 0.0286 0.37956 0.0
C1275 C 0.66296 0.0123 0.30993 0.0
C1276 C 0.59019 0.9835 0.34008 0.0
H1277 H 0.51974 0.97541 0.32812 0.0
C1278 C 0.58893 0.98634 0.3605 0.0
C1279 C 0.56449 0.97853 0.32831 0.0
C1280 C 0.56335 0.97302 0.30646 0.0
C1281 C 0.56311 0.98517 0.36943 0.0
C1282 C 0.5382 0.98203 0.35756 0.0
C1283 C 0.53903 0.97829 0.33719 0.0
C1284 C 0.51115 0.98271 0.36599 0.0
C1285 C 0.56266 0.9869 0.39153 0.0
C1286 C 0.48095 0.95767 0.3626 0.0
C1287 C 0.4555 0.95812 0.37075 0.0
C1288 C 0.4598 0.98363 0.3825 0.0
C1289 C 0.49005 0.00893 0.38555 0.0
C1290 C 0.51541 0.00859 0.37722 0.0
H1291 H 0.57813 0.97928 0.39845 0.0
H1292 H 0.5711 0.0116 0.39612 0.0
H1293 H 0.53887 0.97203 0.39721 0.0
H1294 H 0.47709 0.93754 0.35386 0.0
H1295 H 0.43253 0.93824 0.36813 0.0
H1296 H 0.01565 0.70389 0.34936 0.0
H1297 H 0.02116 0.66132 0.36374 0.0
H1298 H 0.97969 0.60464 0.31186 0.0
H1299 H 0.97357 0.64674 0.29745 0.0
H1300 H 0.95483 0.57237 0.34603 0.0
H1301 H 0.08341 0.63374 0.3491 0.0
H1302 H 0.06707 0.65475 0.36094 0.0
H1303 H 0.06235 0.64813 0.33487 0.0
C1304 C 0.00777 0.68243 0.34096 0.0
C1305 C 0.99415 0.67878 0.32223 0.0
C1306 C 0.01113 0.6582 0.34916 0.0
C1307 C 1.00122 0.63003 0.33874 0.0
C1308 C 0.98759 0.62627 0.3201 0.0
H1309 H 0.04433 0.48325 0.36471 0.0
H1310 H 0.03922 0.52591 0.35015 0.0
C1311 C 0.98413 0.6504 0.3119 0.0
C1312 C 0.00415 0.60402 0.34747 0.0
H1313 H 0.05667 0.58469 0.36544 0.0
C1314 C 0.97709 0.57501 0.35024 0.0
C1315 C 0.03326 0.60747 0.3527 0.0
C1316 C 0.06323 0.63759 0.3491 0.0
C1317 C 0.9783 0.54939 0.35834 0.0
C1318 C 0.00732 0.55313 0.36415 0.0
C1319 C 0.03443 0.58203 0.36115 0.0
C1320 C 0.01012 0.52717 0.37307 0.0
C1321 C 0.94858 0.51839 0.36025 0.0
C1322 C 0.99568 0.51398 0.39089 0.0
C1323 C 0.99839 0.48946 0.39923 0.0
C1324 C 0.01586 0.47789 0.38997 0.0
C1325 C 0.03063 0.4915 0.37223 0.0
C1326 C 0.02779 0.51592 0.36388 0.0
H1327 H 0.92992 0.51712 0.35054 0.0
H1328 H 0.95221 0.4984 0.35663 0.0
H1329 H 0.94051 0.51564 0.37561 0.0
H1330 H 0.9825 0.52281 0.39844 0.0
H1331 H 0.98703 0.47981 0.41302 0.0
H1332 H 0.47968 0.45517 0.61338 0.0
H1333 H 0.51965 0.50968 0.6203 0.0
H1334 H 0.55115 0.47895 0.67027 0.0
H1335 H 0.51202 0.42476 0.66337 0.0
H1336 H 0.52422 0.54284 0.65262 0.0
H1337 H 0.63248 0.53906 0.64547 0.0
H1338 H 0.59583 0.5083 0.63582 0.0
H1339 H 0.60626 0.50818 0.66121 0.0
C1340 C 0.4954 0.45998 0.62569 0.0
C1341 C 0.49254 0.43553 0.63785 0.0
C1342 C 0.51827 0.49113 0.62957 0.0
C1343 C 0.53878 0.49831 0.64556 0.0
C1344 C 0.53622 0.47391 0.6575 0.0
H1345 H 0.61176 0.64154 0.72919 0.0
H1346 H 0.58264 0.59763 0.70677 0.0
C1347 C 0.51353 0.44287 0.65364 0.0
C1348 C 0.56068 0.53133 0.65126 0.0
H1349 H 0.63467 0.5789 0.66802 0.0
C1350 C 0.54855 0.55102 0.65554 0.0
C1351 C 0.59258 0.54234 0.65468 0.0
C1352 C 0.60758 0.52343 0.64882 0.0
C1353 C 0.56685 0.58031 0.66469 0.0
C1354 C 0.59783 0.58974 0.67007 0.0
C1355 C 0.61071 0.57133 0.66426 0.0
C1356 C 0.61603 0.61681 0.6834 0.0
C1357 C 0.55253 0.60042 0.66904 0.0
C1358 C 0.64513 0.64162 0.678 0.0
C1359 C 0.66216 0.66679 0.69095 0.0
C1360 C 0.65036 0.66742 0.70953 0.0
C1361 C 0.62147 0.64209 0.71496 0.0
C1362 C 0.60462 0.61702 0.70208 0.0
H1363 H 0.53373 0.59579 0.65831 0.0
H1364 H 0.54212 0.59464 0.68383 0.0
H1365 H 0.57009 0.62584 0.66875 0.0
H1366 H 0.65451 0.64164 0.66373 0.0
H1367 H 0.68438 0.68585 0.68631 0.0
H1368 H 0.57928 0.09226 0.66789 0.0
H1369 H 0.52684 0.07866 0.67714 0.0
H1370 H 0.49065 0.02449 0.62379 0.0
H1371 H 0.543 0.03732 0.61458 0.0
H1372 H 0.48409 0.08954 0.65969 0.0
H1373 H 0.43857 0.96109 0.6649 0.0
H1374 H 0.47938 0.98903 0.66273 0.0
H1375 H 0.45444 0.97699 0.64138 0.0
C1376 C 0.56024 0.07752 0.65805 0.0
C1377 C 0.56542 0.0657 0.64054 0.0
C1378 C 0.53022 0.06975 0.66339 0.0
C1379 C 0.50474 0.05006 0.65136 0.0
C1380 C 0.50987 0.03905 0.63356 0.0
H1381 H 0.32019 0.02638 0.66114 0.0
H1382 H 0.37223 0.04 0.65093 0.0
C1383 C 0.53988 0.04661 0.62825 0.0
C1384 C 0.47287 0.0412 0.65749 0.0
H1385 H 0.40181 0.97828 0.66756 0.0
C1386 C 0.46611 0.06522 0.66143 0.0
C1387 C 0.44956 0.00946 0.66009 0.0
C1388 C 0.45586 0.98265 0.65725 0.0
C1389 C 0.43659 0.05837 0.66764 0.0
C1390 C 0.41299 0.02661 0.66956 0.0
C1391 C 0.41985 0.0026 0.66588 0.0
C1392 C 0.38111 0.0178 0.67559 0.0
C1393 C 0.43115 0.08525 0.6725 0.0
C1394 C 0.36841 0.99995 0.69255 0.0
C1395 C 0.33847 0.9918 0.69837 0.0
C1396 C 0.32055 0.00122 0.68726 0.0
C1397 C 0.33326 0.01873 0.6701 0.0
C1398 C 0.36315 0.02679 0.66429 0.0
H1399 H 0.45327 0.10737 0.67551 0.0
H1400 H 0.41952 0.08943 0.65984 0.0
H1401 H 0.41602 0.07976 0.68547 0.0
H1402 H 0.38184 0.99263 0.70143 0.0
H1403 H 0.32949 0.97831 0.71165 0.0
H1404 H 0.9979 0.32046 0.68422 0.0
H1405 H 0.97997 0.34824 0.66272 0.0
H1406 H 0.01007 0.42269 0.70571 0.0
H1407 H 0.0286 0.39565 0.72705 0.0
H1408 H 0.93665 0.36567 0.66844 0.0
H1409 H 0.05081 0.47131 0.6566 0.0
H1410 H 0.04682 0.43577 0.66714 0.0
H1411 H 0.04301 0.46379 0.68223 0.0
C1412 C 1.00083 0.34282 0.68908 0.0
C1413 C 0.01499 0.35595 0.70732 0.0
C1414 C 0.99058 0.35864 0.67676 0.0
C1415 C 0.99435 0.38786 0.68243 0.0
C1416 C 0.00776 0.40062 0.70079 0.0
H1417 H 0.89851 0.48476 0.65607 0.0
H1418 H 0.91486 0.44764 0.66599 0.0
C1419 C 0.01816 0.38497 0.71305 0.0
C1420 C 0.98341 0.40477 0.66957 0.0
H1421 H 0.00614 0.47705 0.6503 0.0
C1422 C 0.95192 0.38987 0.66418 0.0
C1423 C 0.00347 0.43606 0.66359 0.0
C1424 C 0.03797 0.45253 0.66751 0.0
C1425 C 0.93959 0.40612 0.65405 0.0
C1426 C 0.95916 0.43828 0.64964 0.0
C1427 C 0.99101 0.45252 0.65392 0.0
C1428 C 0.9469 0.45834 0.64212 0.0
C1429 C 0.90566 0.38874 0.6484 0.0
C1430 C 0.95973 0.47711 0.6255 0.0
C1431 C 0.95075 0.49885 0.61991 0.0
C1432 C 0.9288 0.50226 0.63089 0.0
C1433 C 0.91533 0.4827 0.64717 0.0
C1434 C 0.92447 0.46118 0.6528 0.0
H1435 H 0.89712 0.36327 0.64615 0.0
H1436 H 0.89206 0.39101 0.66045 0.0
H1437 H 0.9012 0.39833 0.6348 0.0
H1438 H 0.97724 0.47545 0.61712 0.0
H1439 H 0.96156 0.51346 0.60726 0.0
H1440 H 0.17545 0.87287 0.7264 0.0
H1441 H 0.13297 0.81888 0.72128 0.0
H1442 H 0.11826 0.8426 0.66277 0.0
H1443 H 0.16002 0.89651 0.66784 0.0
H1444 H 0.06437 0.81117 0.68343 0.0
H1445 H 0.13233 0.74938 0.68807 0.0
H1446 H 0.13606 0.77374 0.7088 0.0
H1447 H 0.15048 0.79145 0.68537 0.0
C1448 C 0.16336 0.86649 0.71237 0.0
C1449 C 0.17114 0.88901 0.69751 0.0
C1450 C 0.13915 0.83562 0.70947 0.0
C1451 C 0.12265 0.82671 0.69159 0.0
C1452 C 0.13066 0.84903 0.6767 0.0
H1453 H 0.01182 0.65672 0.6303 0.0
H1454 H 0.05164 0.70498 0.64577 0.0
C1455 C 0.15459 0.87984 0.67962 0.0
C1456 C 0.09645 0.79443 0.68829 0.0
H1457 H 0.0785 0.71804 0.68264 0.0
C1458 C 0.06733 0.79071 0.68343 0.0
C1459 C 0.10052 0.7679 0.68827 0.0
C1460 C 0.13155 0.77067 0.69275 0.0
C1461 C 0.04239 0.76136 0.6778 0.0
C1462 C 0.04657 0.7349 0.6775 0.0
C1463 C 0.07538 0.73839 0.68305 0.0
C1464 C 0.02252 0.70426 0.66933 0.0
C1465 C 0.01236 0.75931 0.67123 0.0
C1466 C 0.993 0.6875 0.67767 0.0
C1467 C 0.96991 0.65985 0.66873 0.0
C1468 C 0.97612 0.64843 0.65142 0.0
C1469 C 0.0061 0.66482 0.64356 0.0
C1470 C 0.029 0.6924 0.65243 0.0
H1471 H 0.01507 0.7829 0.66863 0.0
H1472 H 0.00342 0.74517 0.65753 0.0
H1473 H 0.99472 0.74761 0.68276 0.0
H1474 H 0.9877 0.69601 0.69091 0.0
H1475 H 0.94713 0.64777 0.67521 0.0
H1476 H 0.15913 0.35365 0.74118 0.0
H1477 H 0.20527 0.35669 0.72679 0.0
H1478 H 0.14927 0.29422 0.68001 0.0
H1479 H 0.10284 0.29066 0.69439 0.0
H1480 H 0.19063 0.27804 0.69625 0.0
H1481 H 0.25011 0.40477 0.67761 0.0
H1482 H 0.2391 0.3968 0.70286 0.0
H1483 H 0.20965 0.38293 0.68397 0.0
C1484 C 0.15658 0.34073 0.72774 0.0
C1485 C 0.12723 0.3221 0.71886 0.0
C1486 C 0.18304 0.34259 0.7195 0.0
C1487 C 0.18076 0.32609 0.70216 0.0
C1488 C 0.15154 0.30728 0.69335 0.0
H1489 H 0.33403 0.35532 0.62843 0.0
H1490 H 0.28673 0.35097 0.64183 0.0
C1491 C 0.12503 0.30532 0.70159 0.0
C1492 C 0.20875 0.32788 0.69343 0.0
H1493 H 0.27962 0.37904 0.67461 0.0
C1494 C 0.21006 0.30009 0.69145 0.0
C1495 C 0.23388 0.35661 0.68695 0.0
C1496 C 0.23311 0.38695 0.68775 0.0
C1497 C 0.23606 0.30033 0.68345 0.0
C1498 C 0.26164 0.32924 0.6776 0.0
C1499 C 0.26011 0.35694 0.67928 0.0
C1500 C 0.29012 0.33127 0.66949 0.0
C1501 C 0.23566 0.26955 0.68104 0.0
C1502 C 0.3079 0.32187 0.68066 0.0
C1503 C 0.33493 0.3242 0.67302 0.0
C1504 C 0.34491 0.3363 0.65411 0.0
C1505 C 0.32711 0.34591 0.64304 0.0
C1506 C 0.30005 0.34346 0.65067 0.0
H1507 H 0.21166 0.24919 0.68111 0.0
H1508 H 0.24686 0.269 0.66715 0.0
H1509 H 0.24867 0.26669 0.69342 0.0
H1510 H 0.30104 0.31303 0.69538 0.0
H1511 H 0.34808 0.3167 0.68202 0.0
H1512 H 0.64144 0.80089 0.73904 0.0
H1513 H 0.63603 0.8436 0.72486 0.0
H1514 H 0.72085 0.87496 0.69306 0.0
H1515 H 0.72598 0.83177 0.70667 0.0
H1516 H 0.67243 0.90605 0.72752 0.0
H1517 H 0.66278 0.86909 0.6497 0.0
H1518 H 0.6605 0.84405 0.66971 0.0
H1519 H 0.6976 0.8747 0.66145 0.0
C1520 C 0.65886 0.81673 0.72892 0.0
C1521 C 0.68395 0.81265 0.7238 0.0
C1522 C 0.65575 0.84118 0.72086 0.0
C1523 C 0.6777 0.8621 0.7076 0.0
C1524 C 0.70315 0.85856 0.70282 0.0
H1525 H 0.70074 0.04409 0.67491 0.0
H1526 H 0.70556 0.00146 0.68993 0.0
C1527 C 0.70612 0.83392 0.7107 0.0
C1528 C 0.67418 0.88792 0.69905 0.0
H1529 H 0.66964 0.91997 0.65562 0.0
C1530 C 0.67168 0.90903 0.71179 0.0
C1531 C 0.67275 0.89151 0.67854 0.0
C1532 C 0.67322 0.86845 0.66406 0.0
C1533 C 0.66814 0.93386 0.70459 0.0
C1534 C 0.66795 0.93816 0.68408 0.0
C1535 C 0.67012 0.91685 0.67135 0.0
C1536 C 0.66482 0.96415 0.67543 0.0
C1537 C 0.66394 0.95474 0.71902 0.0
C1538 C 0.64078 0.95739 0.66193 0.0
C1539 C 0.63823 0.98167 0.65311 0.0
C1540 C 0.65962 0.01325 0.65769 0.0
C1541 C 0.68363 0.02 0.67129 0.0
C1542 C 0.68634 0.99566 0.67995 0.0
H1543 H 0.65565 0.94302 0.7334 0.0
H1544 H 0.68655 0.97646 0.72158 0.0
H1545 H 0.64717 0.96158 0.71333 0.0
H1546 H 0.62397 0.93326 0.65817 0.0
H1547 H 0.61947 0.97565 0.64271 0.0
loop_
_geom_bond_atom_site_label_1
_geom_bond_atom_site_label_2
_geom_bond_distance
_geom_bond_site_symmetry_2
_ccdc_geom_bond_type
Co0 O1 2.216 . S
Co0 O2 2.091 . S
Co0 O4 2.004 . S
Co0 O10 2.021 . S
Co0 O12 2.137 . S
Co0 O13 2.244 . S
O1 Co0 2.216 . S
O1 C8 1.247 . S
O2 Co0 2.091 . S
O2 C8 1.261 . S
C3 O12 1.247 . S
C3 O13 1.272 . S
O4 Co0 2.004 . S
O4 C9 1.259 . S
Co5 O6 2.061 . S
Co5 O11 2.056 . S
Co5 O13 2.135 . S
O6 Co5 2.061 . S
O6 C9 1.235 . S
C7 O10 1.238 1_565 S
C7 O11 1.239 1_565 S
C8 O1 1.247 . S
C8 O2 1.261 . S
C9 O4 1.259 . S
C9 O6 1.235 . S
O10 Co0 2.021 . S
O10 C7 1.238 1_545 S
O11 Co5 2.056 . S
O11 C7 1.239 1_545 S
O12 Co0 2.137 . S
O12 C3 1.247 . S
O13 Co0 2.244 . S
O13 C3 1.272 . S
O13 Co5 2.135 . S
Co14 O15 2.216 . S
Co14 O16 2.091 . S
Co14 O18 2.004 . S
Co14 O24 2.021 . S
Co14 O26 2.137 . S
Co14 O27 2.244 . S
O15 Co14 2.216 . S
O15 C22 1.247 . S
O16 Co14 2.091 . S
O16 C22 1.261 . S
C17 O26 1.247 . S
C17 O27 1.272 . S
O18 Co14 2.004 . S
O18 C23 1.259 1_655 S
Co19 O20 2.061 . S
Co19 O25 2.052 . S
Co19 O27 2.135 . S
O20 Co19 2.061 . S
O20 C23 1.235 1_655 S
C21 O24 1.238 . S
C21 O25 1.241 . S
C22 O15 1.247 . S
C22 O16 1.261 . S
C23 O18 1.259 1_455 S
C23 O20 1.235 1_455 S
O24 Co14 2.021 . S
O24 C21 1.238 . S
O25 Co19 2.052 . S
O25 C21 1.241 . S
O26 Co14 2.137 . S
O26 C17 1.247 . S
O27 Co14 2.244 . S
O27 C17 1.272 . S
O27 Co19 2.135 . S
Co28 O29 2.216 . S
Co28 O30 2.091 . S
Co28 O32 2.004 . S
Co28 O38 2.021 . S
Co28 O40 2.137 . S
Co28 O41 2.244 . S
O29 Co28 2.216 . S
O29 C36 1.247 . S
O30 Co28 2.091 . S
O30 C36 1.261 . S
C31 O40 1.247 . S
C31 O41 1.272 . S
O32 Co28 2.004 . S
O32 C37 1.259 . S
Co33 O34 2.061 . S
Co33 O39 2.052 . S
Co33 O41 2.135 . S
O34 Co33 2.061 . S
O34 C37 1.235 . S
C35 O38 1.238 . S
C35 O39 1.241 . S
C36 O29 1.247 . S
C36 O30 1.261 . S
C37 O32 1.259 . S
C37 O34 1.235 . S
O38 Co28 2.021 . S
O38 C35 1.238 . S
O39 Co33 2.052 . S
O39 C35 1.241 . S
O40 Co28 2.137 . S
O40 C31 1.247 . S
O41 Co28 2.244 . S
O41 C31 1.272 . S
O41 Co33 2.135 . S
Co42 O43 2.216 . S
Co42 O44 2.091 . S
Co42 O46 2.004 . S
Co42 O52 2.021 . S
Co42 O54 2.137 . S
Co42 O55 2.244 . S
O43 Co42 2.216 . S
O43 C50 1.247 . S
O44 Co42 2.091 . S
O44 C50 1.261 . S
C45 O54 1.247 . S
C45 O55 1.272 . S
O46 Co42 2.004 . S
O46 C51 1.259 1_565 S
Co47 O48 2.061 . S
Co47 O53 2.052 . S
Co47 O55 2.135 . S
O48 Co47 2.061 . S
O48 C51 1.235 1_565 S
C49 O52 1.238 . S
C49 O53 1.241 . S
C50 O43 1.247 . S
C50 O44 1.261 . S
C51 O46 1.259 1_545 S
C51 O48 1.235 1_545 S
O52 Co42 2.021 . S
O52 C49 1.238 . S
O53 Co47 2.052 . S
O53 C49 1.241 . S
O54 Co42 2.137 . S
O54 C45 1.247 . S
O55 Co42 2.244 . S
O55 C45 1.272 . S
O55 Co47 2.135 . S
Co56 O57 2.216 . S
Co56 O58 2.091 . S
Co56 O60 2.004 . S
Co56 O66 2.021 . S
Co56 O68 2.137 . S
Co56 O69 2.244 . S
O57 Co56 2.216 . S
O57 C64 1.247 . S
O58 Co56 2.091 . S
O58 C64 1.261 . S
C59 O68 1.247 . S
C59 O69 1.272 . S
O60 Co56 2.004 . S
O60 C65 1.259 1_455 S
Co61 O62 2.061 . S
Co61 O67 2.052 . S
Co61 O69 2.135 . S
O62 Co61 2.061 . S
O62 C65 1.235 1_455 S
C63 O66 1.238 . S
C63 O67 1.241 . S
C64 O57 1.247 . S
C64 O58 1.261 . S
C65 O60 1.259 1_655 S
C65 O62 1.235 1_655 S
O66 Co56 2.021 . S
O66 C63 1.238 . S
O67 Co61 2.052 . S
O67 C63 1.241 . S
O68 Co56 2.137 . S
O68 C59 1.247 . S
O69 Co56 2.244 . S
O69 C59 1.272 . S
O69 Co61 2.135 . S
Co70 O71 2.216 . S
Co70 O72 2.091 . S
Co70 O74 2.004 . S
Co70 O80 2.021 . S
Co70 O82 2.137 . S
Co70 O83 2.244 . S
O71 Co70 2.216 . S
O71 C78 1.247 . S
O72 Co70 2.091 . S
O72 C78 1.261 . S
C73 O82 1.247 . S
C73 O83 1.272 . S
O74 Co70 2.004 . S
O74 C79 1.259 . S
Co75 O76 2.061 . S
Co75 O81 2.052 . S
Co75 O83 2.135 . S
O76 Co75 2.061 . S
O76 C79 1.235 . S
C77 O80 1.238 . S
C77 O81 1.241 . S
C78 O71 1.247 . S
C78 O72 1.261 . S
C79 O74 1.259 . S
C79 O76 1.235 . S
O80 Co70 2.021 . S
O80 C77 1.238 . S
O81 Co75 2.052 . S
O81 C77 1.241 . S
O82 Co70 2.137 . S
O82 C73 1.247 . S
O83 Co70 2.244 . S
O83 C73 1.272 . S
O83 Co75 2.135 . S
Co84 O85 2.216 . S
Co84 O86 2.091 . S
Co84 O88 2.004 . S
Co84 O94 2.021 1_455 S
Co84 O96 2.137 . S
Co84 O97 2.244 1_455 S
O85 Co84 2.216 . S
O85 C92 1.247 . S
O86 Co84 2.091 . S
O86 C92 1.261 . S
C87 O96 1.247 . S
C87 O97 1.272 1_455 S
O88 Co84 2.004 . S
O88 C93 1.259 1_455 S
Co89 O90 2.061 . S
Co89 O95 2.052 . S
Co89 O97 2.135 . S
O90 Co89 2.061 . S
O90 C93 1.235 . S
C91 O94 1.238 . S
C91 O95 1.241 . S
C92 O85 1.247 . S
C92 O86 1.261 . S
C93 O88 1.259 1_655 S
C93 O90 1.235 . S
O94 Co84 2.021 1_655 S
O94 C91 1.238 . S
O95 Co89 2.052 . S
O95 C91 1.241 . S
O96 Co84 2.137 . S
O96 C87 1.247 . S
O97 Co84 2.244 1_655 S
O97 C87 1.272 1_655 S
O97 Co89 2.135 . S
Co98 O99 2.216 . S
Co98 O100 2.091 . S
Co98 O102 2.004 . S
Co98 O108 2.021 . S
Co98 O110 2.137 . S
Co98 O111 2.244 . S
O99 Co98 2.216 . S
O99 C106 1.247 . S
O100 Co98 2.091 . S
O100 C106 1.261 . S
C101 O110 1.247 . S
C101 O111 1.272 . S
O102 Co98 2.004 . S
O102 C107 1.259 . S
Co103 O104 2.061 . S
Co103 O109 2.052 . S
Co103 O111 2.135 . S
O104 Co103 2.061 . S
O104 C107 1.235 . S
C105 O108 1.238 . S
C105 O109 1.241 . S
C106 O99 1.247 . S
C106 O100 1.261 . S
C107 O102 1.259 . S
C107 O104 1.235 . S
O108 Co98 2.021 . S
O108 C105 1.238 . S
O109 Co103 2.052 . S
O109 C105 1.241 . S
O110 Co98 2.137 . S
O110 C101 1.247 . S
O111 Co98 2.244 . S
O111 C101 1.272 . S
O111 Co103 2.135 . S
Co112 O113 2.216 . S
Co112 O114 2.091 . S
Co112 O116 2.004 . S
Co112 O122 2.021 1_565 S
Co112 O124 2.137 . S
Co112 O125 2.244 1_565 S
O113 Co112 2.216 . S
O113 C120 1.247 . S
O114 Co112 2.091 . S
O114 C120 1.261 . S
C115 O124 1.247 . S
C115 O125 1.272 1_565 S
O116 Co112 2.004 . S
O116 C121 1.259 1_565 S
Co117 O118 2.061 . S
Co117 O123 2.052 . S
Co117 O125 2.135 . S
O118 Co117 2.061 . S
O118 C121 1.235 . S
C119 O122 1.238 . S
C119 O123 1.241 . S
C120 O113 1.247 . S
C120 O114 1.261 . S
C121 O116 1.259 1_545 S
C121 O118 1.235 . S
O122 Co112 2.021 1_545 S
O122 C119 1.238 . S
O123 Co117 2.052 . S
O123 C119 1.241 . S
O124 Co112 2.137 . S
O124 C115 1.247 . S
O125 Co112 2.244 1_545 S
O125 C115 1.272 1_545 S
O125 Co117 2.135 . S
Co126 O127 2.216 . S
Co126 O128 2.091 . S
Co126 O130 2.004 . S
Co126 O136 2.021 . S
Co126 O138 2.137 . S
Co126 O139 2.244 . S
O127 Co126 2.216 . S
O127 C134 1.247 . S
O128 Co126 2.091 . S
O128 C134 1.261 . S
C129 O138 1.247 . S
C129 O139 1.272 . S
O130 Co126 2.004 . S
O130 C135 1.259 . S
Co131 O132 2.061 . S
Co131 O137 2.052 . S
Co131 O139 2.135 . S
O132 Co131 2.061 . S
O132 C135 1.235 . S
C133 O136 1.238 . S
C133 O137 1.241 . S
C134 O127 1.247 . S
C134 O128 1.261 . S
C135 O130 1.259 . S
C135 O132 1.235 . S
O136 Co126 2.021 . S
O136 C133 1.238 . S
O137 Co131 2.052 . S
O137 C133 1.241 . S
O138 Co126 2.137 . S
O138 C129 1.247 . S
O139 Co126 2.244 . S
O139 C129 1.272 . S
O139 Co131 2.135 . S
Co140 O141 2.216 . S
Co140 O142 2.091 . S
Co140 O144 2.004 . S
Co140 O150 2.021 . S
Co140 O152 2.105 1_545 S
Co140 O153 2.244 . S
O141 Co140 2.216 . S
O141 C148 1.247 . S
O142 Co140 2.091 . S
O142 C148 1.261 . S
C143 O152 1.259 . S
C143 O153 1.272 1_565 S
O144 Co140 2.004 . S
O144 C149 1.259 . S
Co145 O146 2.061 . S
Co145 O151 2.052 . S
Co145 O153 2.135 . S
O146 Co145 2.061 . S
O146 C149 1.235 . S
C147 O150 1.238 . S
C147 O151 1.241 . S
C148 O141 1.247 . S
C148 O142 1.261 . S
C149 O144 1.259 . S
C149 O146 1.235 . S
O150 Co140 2.021 . S
O150 C147 1.238 . S
O151 Co145 2.052 . S
O151 C147 1.241 . S
O152 Co140 2.105 1_565 S
O152 C143 1.259 . S
O153 Co140 2.244 . S
O153 C143 1.272 1_545 S
O153 Co145 2.135 . S
Co154 O155 2.216 . S
Co154 O156 2.091 . S
Co154 O158 2.004 . S
Co154 O164 2.021 . S
Co154 O166 2.137 . S
Co154 O167 2.244 . S
O155 Co154 2.216 . S
O155 C162 1.247 . S
O156 Co154 2.091 . S
O156 C162 1.261 . S
C157 O166 1.247 . S
C157 O167 1.272 . S
O158 Co154 2.004 . S
O158 C163 1.259 . S
Co159 O160 2.061 . S
Co159 O165 2.052 . S
Co159 O167 2.135 . S
O160 Co159 2.061 . S
O160 C163 1.235 . S
C161 O164 1.238 . S
C161 O165 1.241 . S
C162 O155 1.247 . S
C162 O156 1.261 . S
C163 O158 1.259 . S
C163 O160 1.235 . S
O164 Co154 2.021 . S
O164 C161 1.238 . S
O165 Co159 2.052 . S
O165 C161 1.241 . S
O166 Co154 2.137 . S
O166 C157 1.247 . S
O167 Co154 2.244 . S
O167 C157 1.272 . S
O167 Co159 2.135 . S
Co168 O169 2.216 . S
Co168 O170 2.091 . S
Co168 O172 2.004 . S
Co168 O178 2.021 . S
Co168 O180 2.137 . S
Co168 O181 2.244 . S
O169 Co168 2.216 . S
O169 C176 1.247 . S
O170 Co168 2.091 . S
O170 C176 1.261 . S
C171 O180 1.247 . S
C171 O181 1.272 . S
O172 Co168 2.004 . S
O172 C177 1.259 . S
Co173 O174 2.061 . S
Co173 O179 2.052 . S
Co173 O181 2.135 . S
O174 Co173 2.061 . S
O174 C177 1.235 . S
C175 O178 1.238 . S
C175 O179 1.241 . S
C176 O169 1.247 . S
C176 O170 1.261 . S
C177 O172 1.259 . S
C177 O174 1.235 . S
O178 Co168 2.021 . S
O178 C175 1.238 . S
O179 Co173 2.052 . S
O179 C175 1.241 . S
O180 Co168 2.137 . S
O180 C171 1.247 . S
O181 Co168 2.244 . S
O181 C171 1.272 . S
O181 Co173 2.135 . S
Co182 O183 2.216 . S
Co182 O184 2.091 . S
Co182 O186 2.004 . S
Co182 O192 2.021 . S
Co182 O194 2.137 1_565 S
Co182 O195 2.244 . S
O183 Co182 2.216 . S
O183 C190 1.247 . S
O184 Co182 2.091 . S
O184 C190 1.261 . S
C185 O194 1.247 . S
C185 O195 1.272 1_545 S
O186 Co182 2.004 . S
O186 C191 1.259 . S
Co187 O188 2.061 . S
Co187 O193 2.052 . S
Co187 O195 2.135 . S
O188 Co187 2.061 . S
O188 C191 1.235 . S
C189 O192 1.238 . S
C189 O193 1.241 . S
C190 O183 1.247 . S
C190 O184 1.261 . S
C191 O186 1.259 . S
C191 O188 1.235 . S
O192 Co182 2.021 . S
O192 C189 1.238 . S
O193 Co187 2.052 . S
O193 C189 1.241 . S
O194 Co182 2.137 1_545 S
O194 C185 1.247 . S
O195 Co182 2.244 . S
O195 C185 1.272 1_565 S
O195 Co187 2.135 . S
Co196 O197 2.216 1_455 S
Co196 O198 2.091 1_455 S
Co196 O200 2.004 . S
Co196 O206 2.021 . S
Co196 O208 2.137 . S
Co196 O209 2.244 . S
O197 Co196 2.216 1_655 S
O197 C204 1.247 . S
O198 Co196 2.091 1_655 S
O198 C204 1.261 . S
C199 O208 1.247 . S
C199 O209 1.272 . S
O200 Co196 2.004 . S
O200 C205 1.259 . S
Co201 O202 2.061 . S
Co201 O207 2.052 . S
Co201 O209 2.135 . S
O202 Co201 2.061 . S
O202 C205 1.235 . S
C203 O206 1.238 . S
C203 O207 1.241 . S
C204 O197 1.247 . S
C204 O198 1.261 . S
C205 O200 1.259 . S
C205 O202 1.235 . S
O206 Co196 2.021 . S
O206 C203 1.238 . S
O207 Co201 2.052 . S
O207 C203 1.241 . S
O208 Co196 2.137 . S
O208 C199 1.247 . S
O209 Co196 2.244 . S
O209 C199 1.272 . S
O209 Co201 2.135 . S
Co210 O211 2.211 1_455 S
Co210 O212 2.098 . S
Co210 O214 2.012 . S
Co210 O220 2.036 . S
Co210 O222 2.118 1_455 S
Co210 O223 2.229 1_455 S
O211 Co210 2.211 1_655 S
O211 C218 1.247 . S
O212 Co210 2.098 . S
O212 C218 1.261 1_455 S
C213 O222 1.247 . S
C213 O223 1.272 . S
O214 Co210 2.012 . S
O214 C219 1.259 . S
Co215 O216 2.061 1_655 S
Co215 O221 2.052 . S
Co215 O223 2.135 . S
O216 Co215 2.061 1_455 S
O216 C219 1.235 . S
C217 O220 1.238 . S
C217 O221 1.241 1_455 S
C218 O211 1.247 . S
C218 O212 1.261 1_655 S
C219 O214 1.259 . S
C219 O216 1.235 . S
O220 Co210 2.036 . S
O220 C217 1.238 . S
O221 Co215 2.052 . S
O221 C217 1.241 1_655 S
O222 Co210 2.118 1_655 S
O222 C213 1.247 . S
O223 Co210 2.229 1_655 S
O223 C213 1.272 . S
O223 Co215 2.135 . S
Co224 O225 2.216 . S
Co224 O226 2.091 . S
Co224 O228 2.004 . S
Co224 O234 2.021 . S
Co224 O236 2.137 . S
Co224 O237 2.244 . S
O225 Co224 2.216 . S
O225 C232 1.247 . S
O226 Co224 2.091 . S
O226 C232 1.261 . S
C227 O236 1.247 . S
C227 O237 1.272 . S
O228 Co224 2.004 . S
O228 C233 1.259 . S
Co229 O230 2.061 . S
Co229 O235 2.052 . S
Co229 O237 2.135 . S
O230 Co229 2.061 . S
O230 C233 1.235 . S
C231 O234 1.238 . S
C231 O235 1.241 . S
C232 O225 1.247 . S
C232 O226 1.261 . S
C233 O228 1.259 . S
C233 O230 1.235 . S
O234 Co224 2.021 . S
O234 C231 1.238 . S
O235 Co229 2.052 . S
O235 C231 1.241 . S
O236 Co224 2.137 . S
O236 C227 1.247 . S
O237 Co224 2.244 . S
O237 C227 1.272 . S
O237 Co229 2.135 . S
Co238 O239 2.200 1_565 S
Co238 O240 2.093 . S
Co238 O242 2.024 . S
Co238 O248 2.019 . S
Co238 O250 2.134 1_565 S
Co238 O251 2.235 1_565 S
O239 Co238 2.200 1_545 S
O239 C246 1.247 . S
O240 Co238 2.093 . S
O240 C246 1.261 1_565 S
C241 O250 1.247 . S
C241 O251 1.272 . S
O242 Co238 2.024 . S
O242 C247 1.259 . S
Co243 O244 2.061 1_545 S
Co243 O249 2.052 . S
Co243 O251 2.135 . S
O244 Co243 2.061 1_565 S
O244 C247 1.235 . S
C245 O248 1.238 . S
C245 O249 1.241 1_565 S
C246 O239 1.247 . S
C246 O240 1.261 1_545 S
C247 O242 1.259 . S
C247 O244 1.235 . S
O248 Co238 2.019 . S
O248 C245 1.238 . S
O249 Co243 2.052 . S
O249 C245 1.241 1_545 S
O250 Co238 2.134 1_545 S
O250 C241 1.247 . S
O251 Co238 2.235 1_545 S
O251 C241 1.272 . S
O251 Co243 2.135 . S
H252 C260 0.929 . S
H253 C262 0.930 . S
H254 C264 0.930 1_556 S
H255 C267 0.929 . S
H256 C270 0.930 . S
H257 C272 0.960 . S
H258 C272 0.960 1_554 S
H259 C272 0.960 . S
C260 H252 0.929 . S
C260 C261 1.377 . S
C260 C262 1.384 . S
C261 C260 1.377 . S
C261 C267 1.390 . S
C262 H253 0.930 . S
C262 C260 1.384 . S
C262 C263 1.372 . S
C263 C262 1.372 . S
C263 C264 1.400 . S
C263 C268 1.490 . S
C264 H254 0.930 1_554 S
C264 C263 1.400 . S
C264 C267 1.386 . S
H265 C281 0.930 . S
H266 C282 0.931 . S
C267 H255 0.929 . S
C267 C261 1.390 . S
C267 C264 1.386 . S
C268 C263 1.490 . S
C268 C270 1.395 1_545 S
C268 C271 1.403 1_554 S
H269 C275 0.930 . S
C270 H256 0.930 . S
C270 C268 1.395 1_565 S
C270 C273 1.403 . S
C271 C268 1.403 1_556 S
C271 C272 1.524 . S
C271 C275 1.400 . S
C272 H257 0.960 . S
C272 H258 0.960 1_556 S
C272 H259 0.960 . S
C272 C271 1.524 . S
C273 C270 1.403 . S
C273 C274 1.392 1_554 S
C273 C277 1.495 . S
C274 C273 1.392 1_556 S
C274 C275 1.385 1_565 S
C274 C276 1.478 . S
C275 H269 0.930 . S
C275 C271 1.400 . S
C275 C274 1.385 1_545 S
C276 C274 1.478 . S
C276 C278 1.381 . S
C276 C282 1.383 . S
C277 C273 1.495 . S
C277 H283 0.959 . S
C277 H284 0.961 1_554 S
C277 H285 0.960 . S
C278 C276 1.381 . S
C278 C279 1.394 . S
C278 H286 0.930 1_556 S
C279 C278 1.394 . S
C279 C280 1.383 . S
C279 H287 0.929 . S
C280 C279 1.383 . S
C280 C281 1.377 . S
C281 H265 0.930 . S
C281 C280 1.377 . S
C281 C282 1.379 . S
C282 H266 0.931 . S
C282 C276 1.383 . S
C282 C281 1.379 . S
H283 C277 0.959 . S
H284 C277 0.961 1_556 S
H285 C277 0.960 . S
H286 C278 0.930 1_554 S
H287 C279 0.929 . S
H288 C296 0.929 1_455 S
H289 C298 0.929 1_455 S
H290 C300 0.930 . S
H291 C303 0.929 . S
H292 C306 0.930 . S
H293 C308 0.960 . S
H294 C308 0.960 . S
H295 C308 0.960 . S
C296 H288 0.929 1_655 S
C296 C297 1.377 . S
C296 C298 1.383 . S
C297 C296 1.377 . S
C297 C303 1.390 . S
C298 H289 0.929 1_655 S
C298 C296 1.383 . S
C298 C299 1.374 . S
C299 C298 1.374 . S
C299 C300 1.400 . S
C299 C304 1.490 . S
C300 H290 0.930 . S
C300 C299 1.400 . S
C300 C303 1.386 . S
H301 C317 0.930 1_655 S
H302 C318 0.931 1_655 S
C303 H291 0.929 . S
C303 C297 1.390 . S
C303 C300 1.386 . S
C304 C299 1.490 . S
C304 C306 1.395 1_655 S
C304 C307 1.403 . S
H305 C311 0.925 1_556 S
C306 H292 0.930 . S
C306 C304 1.395 1_455 S
C306 C309 1.403 1_554 S
C307 C304 1.403 . S
C307 C308 1.524 . S
C307 C311 1.423 . S
C308 H293 0.960 . S
C308 H294 0.960 . S
C308 H295 0.960 . S
C308 C307 1.524 . S
C309 C306 1.403 1_556 S
C309 C310 1.392 . S
C309 C313 1.495 . S
C310 C309 1.392 . S
C310 C311 1.369 1_456 S
C310 C312 1.478 . S
C311 H305 0.925 1_554 S
C311 C307 1.423 . S
C311 C310 1.369 1_654 S
C312 C310 1.478 . S
C312 C314 1.381 . S
C312 C318 1.383 . S
C313 C309 1.495 . S
C313 H319 0.959 . S
C313 H320 0.961 . S
C313 H321 0.960 . S
C314 C312 1.381 . S
C314 C315 1.394 . S
C314 H322 0.930 1_556 S
C315 C314 1.394 . S
C315 C316 1.383 . S
C315 H323 0.929 . S
C316 C315 1.383 . S
C316 C317 1.377 . S
C317 H301 0.930 1_455 S
C317 C316 1.377 . S
C317 C318 1.379 . S
C318 H302 0.931 1_455 S
C318 C312 1.383 . S
C318 C317 1.379 . S
H319 C313 0.959 . S
H320 C313 0.961 . S
H321 C313 0.960 . S
H322 C314 0.930 1_554 S
H323 C315 0.929 . S
H324 C332 0.929 . S
H325 C334 0.930 . S
H326 C336 0.930 . S
H327 C339 0.929 . S
H328 C342 0.930 . S
H329 C344 0.960 . S
H330 C344 0.960 . S
H331 C344 0.960 . S
C332 H324 0.929 . S
C332 C333 1.377 . S
C332 C334 1.384 . S
C333 C332 1.377 . S
C333 C339 1.390 . S
C334 H325 0.930 . S
C334 C332 1.384 . S
C334 C335 1.372 . S
C335 C334 1.372 . S
C335 C336 1.400 . S
C335 C340 1.490 . S
C336 H326 0.930 . S
C336 C335 1.400 . S
C336 C339 1.386 . S
H337 C353 0.930 . S
H338 C354 0.931 . S
C339 H327 0.929 . S
C339 C333 1.390 . S
C339 C336 1.386 . S
C340 C335 1.490 . S
C340 C342 1.395 1_556 S
C340 C343 1.403 . S
H341 C347 0.930 . S
C342 H328 0.930 . S
C342 C340 1.395 1_554 S
C342 C345 1.403 . S
C343 C340 1.403 . S
C343 C344 1.524 . S
C343 C347 1.400 . S
C344 H329 0.960 . S
C344 H330 0.960 . S
C344 H331 0.960 . S
C344 C343 1.524 . S
C345 C342 1.403 . S
C345 C346 1.392 . S
C345 C349 1.495 . S
C346 C345 1.392 . S
C346 C347 1.385 1_554 S
C346 C348 1.478 . S
C347 H341 0.930 . S
C347 C343 1.400 . S
C347 C346 1.385 1_556 S
C348 C346 1.478 . S
C348 C350 1.381 . S
C348 C354 1.383 . S
C349 C345 1.495 . S
C349 H355 0.959 . S
C349 H356 0.961 . S
C349 H357 0.960 . S
C350 C348 1.381 . S
C350 C351 1.394 . S
C350 H358 0.930 . S
C351 C350 1.394 . S
C351 C352 1.383 . S
C351 H359 0.929 . S
C352 C351 1.383 . S
C352 C353 1.377 . S
C353 H337 0.930 . S
C353 C352 1.377 . S
C353 C354 1.379 . S
C354 H338 0.931 . S
C354 C348 1.383 . S
C354 C353 1.379 . S
H355 C349 0.959 . S
H356 C349 0.961 . S
H357 C349 0.960 . S
H358 C350 0.930 . S
H359 C351 0.929 . S
H360 C368 0.929 . S
H361 C370 0.930 . S
H362 C372 0.930 . S
H363 C375 0.929 . S
H364 C378 0.930 . S
H365 C380 0.960 . S
H366 C380 0.960 . S
H367 C380 0.960 . S
C368 H360 0.929 . S
C368 C369 1.377 . S
C368 C370 1.384 . S
C369 C368 1.377 . S
C369 C375 1.390 . S
C370 H361 0.930 . S
C370 C368 1.384 . S
C370 C371 1.372 . S
C371 C370 1.372 . S
C371 C372 1.400 . S
C371 C376 1.490 . S
C372 H362 0.930 . S
C372 C371 1.400 . S
C372 C375 1.386 . S
H373 C389 0.930 . S
H374 C390 0.931 . S
C375 H363 0.929 . S
C375 C369 1.390 . S
C375 C372 1.386 . S
C376 C371 1.490 . S
C376 C378 1.395 . S
C376 C379 1.403 . S
H377 C383 0.930 . S
C378 H364 0.930 . S
C378 C376 1.395 . S
C378 C381 1.403 . S
C379 C376 1.403 . S
C379 C380 1.524 . S
C379 C383 1.400 . S
C380 H365 0.960 . S
C380 H366 0.960 . S
C380 H367 0.960 . S
C380 C379 1.524 . S
C381 C378 1.403 . S
C381 C382 1.392 . S
C381 C385 1.495 . S
C382 C381 1.392 . S
C382 C383 1.385 . S
C382 C384 1.478 . S
C383 H377 0.930 . S
C383 C379 1.400 . S
C383 C382 1.385 . S
C384 C382 1.478 . S
C384 C386 1.381 . S
C384 C390 1.383 . S
C385 C381 1.495 . S
C385 H391 0.959 . S
C385 H392 0.961 . S
C385 H393 0.960 . S
C386 C384 1.381 . S
C386 C387 1.394 . S
C386 H394 0.930 . S
C387 C386 1.394 . S
C387 C388 1.383 . S
C387 H395 0.929 . S
C388 C387 1.383 . S
C388 C389 1.377 . S
C389 H373 0.930 . S
C389 C388 1.377 . S
C389 C390 1.379 . S
C390 H374 0.931 . S
C390 C384 1.383 . S
C390 C389 1.379 . S
H391 C385 0.959 . S
H392 C385 0.961 . S
H393 C385 0.960 . S
H394 C386 0.930 . S
H395 C387 0.929 . S
H396 C404 0.929 . S
H397 C406 0.930 . S
H398 C408 0.930 . S
H399 C411 0.929 . S
H400 C414 0.930 . S
H401 C416 0.960 . S
H402 C416 0.960 . S
H403 C416 0.960 . S
C404 H396 0.929 . S
C404 C405 1.377 . S
C404 C406 1.384 . S
C405 C404 1.377 . S
C405 C411 1.390 . S
C406 H397 0.930 . S
C406 C404 1.384 . S
C406 C407 1.372 . S
C407 C406 1.372 . S
C407 C408 1.400 . S
C407 C412 1.490 . S
C408 H398 0.930 . S
C408 C407 1.400 . S
C408 C411 1.386 . S
H409 C425 0.930 . S
H410 C426 0.931 . S
C411 H399 0.929 . S
C411 C405 1.390 . S
C411 C408 1.386 . S
C412 C407 1.490 . S
C412 C414 1.395 . S
C412 C415 1.403 . S
H413 C419 0.930 . S
C414 H400 0.930 . S
C414 C412 1.395 . S
C414 C417 1.403 . S
C415 C412 1.403 . S
C415 C416 1.524 . S
C415 C419 1.400 . S
C416 H401 0.960 . S
C416 H402 0.960 . S
C416 H403 0.960 . S
C416 C415 1.524 . S
C417 C414 1.403 . S
C417 C418 1.392 . S
C417 C421 1.495 . S
C418 C417 1.392 . S
C418 C419 1.385 . S
C418 C420 1.478 . S
C419 H413 0.930 . S
C419 C415 1.400 . S
C419 C418 1.385 . S
C420 C418 1.478 . S
C420 C422 1.381 . S
C420 C426 1.383 . S
C421 C417 1.495 . S
C421 H427 0.959 . S
C421 H428 0.961 . S
C421 H429 0.960 . S
C422 C420 1.381 . S
C422 C423 1.394 . S
C422 H430 0.930 . S
C423 C422 1.394 . S
C423 C424 1.383 . S
C423 H431 0.929 . S
C424 C423 1.383 . S
C424 C425 1.377 . S
C425 H409 0.930 . S
C425 C424 1.377 . S
C425 C426 1.379 . S
C426 H410 0.931 . S
C426 C420 1.383 . S
C426 C425 1.379 . S
H427 C421 0.959 . S
H428 C421 0.961 . S
H429 C421 0.960 . S
H430 C422 0.930 . S
H431 C423 0.929 . S
H432 C440 0.929 . S
H433 C442 0.930 . S
H434 C444 0.930 . S
H435 C447 0.929 . S
H436 C450 0.930 . S
H437 C452 0.960 . S
H438 C452 0.960 . S
H439 C452 0.960 . S
C440 H432 0.929 . S
C440 C441 1.377 . S
C440 C442 1.384 . S
C441 C440 1.377 . S
C441 C447 1.390 . S
C442 H433 0.930 . S
C442 C440 1.384 . S
C442 C443 1.372 . S
C443 C442 1.372 . S
C443 C444 1.400 . S
C443 C448 1.490 . S
C444 H434 0.930 . S
C444 C443 1.400 . S
C444 C447 1.386 . S
H445 C461 0.930 . S
H446 C462 0.931 . S
C447 H435 0.929 . S
C447 C441 1.390 . S
C447 C444 1.386 . S
C448 C443 1.490 . S
C448 C450 1.395 . S
C448 C451 1.403 . S
H449 C455 0.930 . S
C450 H436 0.930 . S
C450 C448 1.395 . S
C450 C453 1.403 . S
C451 C448 1.403 . S
C451 C452 1.524 . S
C451 C455 1.400 . S
C452 H437 0.960 . S
C452 H438 0.960 . S
C452 H439 0.960 . S
C452 C451 1.524 . S
C453 C450 1.403 . S
C453 C454 1.392 . S
C453 C457 1.495 . S
C454 C453 1.392 . S
C454 C455 1.385 . S
C454 C456 1.478 . S
C455 H449 0.930 . S
C455 C451 1.400 . S
C455 C454 1.385 . S
C456 C454 1.478 . S
C456 C458 1.381 . S
C456 C462 1.383 . S
C457 C453 1.495 . S
C457 H463 0.959 . S
C457 H464 0.961 . S
C457 H465 0.960 . S
C458 C456 1.381 . S
C458 C459 1.394 . S
C458 H466 0.930 . S
C459 C458 1.394 . S
C459 C460 1.383 . S
C459 H467 0.929 . S
C460 C459 1.383 . S
C460 C461 1.377 . S
C461 H445 0.930 . S
C461 C460 1.377 . S
C461 C462 1.379 . S
C462 H446 0.931 . S
C462 C456 1.383 . S
C462 C461 1.379 . S
H463 C457 0.959 . S
H464 C457 0.961 . S
H465 C457 0.960 . S
H466 C458 0.930 . S
H467 C459 0.929 . S
H468 C476 0.929 . S
H469 C478 0.930 . S
H470 C480 0.930 . S
H471 C483 0.929 . S
H472 C486 0.930 . S
H473 C488 0.960 . S
H474 C488 0.960 . S
H475 C488 0.960 . S
C476 H468 0.929 . S
C476 C477 1.377 . S
C476 C478 1.384 . S
C477 C476 1.377 . S
C477 C483 1.390 . S
C478 H469 0.930 . S
C478 C476 1.384 . S
C478 C479 1.372 . S
C479 C478 1.372 . S
C479 C480 1.400 . S
C479 C484 1.490 . S
C480 H470 0.930 . S
C480 C479 1.400 . S
C480 C483 1.386 . S
H481 C497 0.930 . S
H482 C498 0.931 . S
C483 H471 0.929 . S
C483 C477 1.390 . S
C483 C480 1.386 . S
C484 C479 1.490 . S
C484 C486 1.395 . S
C484 C487 1.403 . S
H485 C491 0.930 . S
C486 H472 0.930 . S
C486 C484 1.395 . S
C486 C489 1.403 . S
C487 C484 1.403 . S
C487 C488 1.524 . S
C487 C491 1.400 . S
C488 H473 0.960 . S
C488 H474 0.960 . S
C488 H475 0.960 . S
C488 C487 1.524 . S
C489 C486 1.403 . S
C489 C490 1.392 . S
C489 C493 1.495 . S
C490 C489 1.392 . S
C490 C491 1.385 . S
C490 C492 1.478 . S
C491 H485 0.930 . S
C491 C487 1.400 . S
C491 C490 1.385 . S
C492 C490 1.478 . S
C492 C494 1.381 . S
C492 C498 1.383 . S
C493 C489 1.495 . S
C493 H499 0.959 . S
C493 H500 0.961 . S
C493 H501 0.960 . S
C494 C492 1.381 . S
C494 C495 1.394 . S
C494 H502 0.930 . S
C495 C494 1.394 . S
C495 C496 1.383 . S
C495 H503 0.929 . S
C496 C495 1.383 . S
C496 C497 1.377 . S
C497 H481 0.930 . S
C497 C496 1.377 . S
C497 C498 1.379 . S
C498 H482 0.931 . S
C498 C492 1.383 . S
C498 C497 1.379 . S
H499 C493 0.959 . S
H500 C493 0.961 . S
H501 C493 0.960 . S
H502 C494 0.930 . S
H503 C495 0.929 . S
H504 C512 0.929 . S
H505 C514 0.930 . S
H506 C516 0.930 . S
H507 C519 0.929 . S
H508 C522 0.930 . S
H509 C524 0.960 . S
H510 C524 0.960 . S
H511 C524 0.960 . S
C512 H504 0.929 . S
C512 C513 1.377 . S
C512 C514 1.384 . S
C513 C512 1.377 . S
C513 C519 1.390 . S
C514 H505 0.930 . S
C514 C512 1.384 . S
C514 C515 1.372 . S
C515 C514 1.372 . S
C515 C516 1.400 . S
C515 C520 1.490 . S
C516 H506 0.930 . S
C516 C515 1.400 . S
C516 C519 1.386 . S
H517 C533 0.930 . S
H518 C534 0.931 . S
C519 H507 0.929 . S
C519 C513 1.390 . S
C519 C516 1.386 . S
C520 C515 1.490 . S
C520 C522 1.395 . S
C520 C523 1.403 . S
H521 C527 0.930 . S
C522 H508 0.930 . S
C522 C520 1.395 . S
C522 C525 1.403 . S
C523 C520 1.403 . S
C523 C524 1.524 . S
C523 C527 1.400 . S
C524 H509 0.960 . S
C524 H510 0.960 . S
C524 H511 0.960 . S
C524 C523 1.524 . S
C525 C522 1.403 . S
C525 C526 1.392 . S
C525 C529 1.495 . S
C526 C525 1.392 . S
C526 C527 1.385 . S
C526 C528 1.478 . S
C527 H521 0.930 . S
C527 C523 1.400 . S
C527 C526 1.385 . S
C528 C526 1.478 . S
C528 C530 1.381 . S
C528 C534 1.383 . S
C529 C525 1.495 . S
C529 H535 0.959 . S
C529 H536 0.961 . S
C529 H537 0.960 . S
C530 C528 1.381 . S
C530 C531 1.394 . S
C530 H538 0.930 . S
C531 C530 1.394 . S
C531 C532 1.383 . S
C531 H539 0.929 . S
C532 C531 1.383 . S
C532 C533 1.377 . S
C533 H517 0.930 . S
C533 C532 1.377 . S
C533 C534 1.379 . S
C534 H518 0.931 . S
C534 C528 1.383 . S
C534 C533 1.379 . S
H535 C529 0.959 . S
H536 C529 0.961 . S
H537 C529 0.960 . S
H538 C530 0.930 . S
H539 C531 0.929 . S
H540 C548 0.929 . S
H541 C550 0.930 . S
H542 C552 0.930 . S
H543 C555 0.929 . S
H544 C558 0.930 . S
H545 C560 0.960 . S
H546 C560 0.960 . S
H547 C560 0.960 . S
C548 H540 0.929 . S
C548 C549 1.377 . S
C548 C550 1.384 . S
C549 C548 1.377 . S
C549 C555 1.390 . S
C550 H541 0.930 . S
C550 C548 1.384 . S
C550 C551 1.372 . S
C551 C550 1.372 . S
C551 C552 1.400 . S
C551 C556 1.490 . S
C552 H542 0.930 . S
C552 C551 1.400 . S
C552 C555 1.386 . S
H553 C569 0.930 . S
H554 C570 0.931 . S
C555 H543 0.929 . S
C555 C549 1.390 . S
C555 C552 1.386 . S
C556 C551 1.490 . S
C556 C558 1.395 . S
C556 C559 1.403 . S
H557 C563 0.930 . S
C558 H544 0.930 . S
C558 C556 1.395 . S
C558 C561 1.403 . S
C559 C556 1.403 . S
C559 C560 1.524 . S
C559 C563 1.400 . S
C560 H545 0.960 . S
C560 H546 0.960 . S
C560 H547 0.960 . S
C560 C559 1.524 . S
C561 C558 1.403 . S
C561 C562 1.392 . S
C561 C565 1.495 . S
C562 C561 1.392 . S
C562 C563 1.385 . S
C562 C564 1.478 . S
C563 H557 0.930 . S
C563 C559 1.400 . S
C563 C562 1.385 . S
C564 C562 1.478 . S
C564 C566 1.381 . S
C564 C570 1.383 . S
C565 C561 1.495 . S
C565 H571 0.959 . S
C565 H572 0.961 . S
C565 H573 0.960 . S
C566 C564 1.381 . S
C566 C567 1.394 . S
C566 H574 0.930 . S
C567 C566 1.394 . S
C567 C568 1.383 . S
C567 H575 0.929 . S
C568 C567 1.383 . S
C568 C569 1.377 . S
C569 H553 0.930 . S
C569 C568 1.377 . S
C569 C570 1.379 . S
C570 H554 0.931 . S
C570 C564 1.383 . S
C570 C569 1.379 . S
H571 C565 0.959 . S
H572 C565 0.961 . S
H573 C565 0.960 . S
H574 C566 0.930 . S
H575 C567 0.929 . S
H576 C584 0.929 . S
H577 C586 0.930 . S
H578 C588 0.930 . S
H579 C591 0.929 . S
H580 C594 0.930 . S
H581 C596 0.960 . S
H582 C596 0.960 . S
H583 C596 0.960 . S
C584 H576 0.929 . S
C584 C585 1.377 . S
C584 C586 1.384 . S
C585 C584 1.377 . S
C585 C591 1.390 . S
C586 H577 0.930 . S
C586 C584 1.384 . S
C586 C587 1.372 . S
C587 C586 1.372 . S
C587 C588 1.400 . S
C587 C592 1.490 . S
C588 H578 0.930 . S
C588 C587 1.400 . S
C588 C591 1.386 . S
H589 C605 0.930 . S
H590 C606 0.931 . S
C591 H579 0.929 . S
C591 C585 1.390 . S
C591 C588 1.386 . S
C592 C587 1.490 . S
C592 C594 1.395 . S
C592 C595 1.403 . S
H593 C599 0.930 . S
C594 H580 0.930 . S
C594 C592 1.395 . S
C594 C597 1.403 . S
C595 C592 1.403 . S
C595 C596 1.524 . S
C595 C599 1.400 . S
C596 H581 0.960 . S
C596 H582 0.960 . S
C596 H583 0.960 . S
C596 C595 1.524 . S
C597 C594 1.403 . S
C597 C598 1.392 . S
C597 C601 1.495 . S
C598 C597 1.392 . S
C598 C599 1.385 . S
C598 C600 1.478 . S
C599 H593 0.930 . S
C599 C595 1.400 . S
C599 C598 1.385 . S
C600 C598 1.478 . S
C600 C602 1.381 . S
C600 C606 1.383 . S
C601 C597 1.495 . S
C601 H607 0.959 . S
C601 H608 0.961 . S
C601 H609 0.960 . S
C602 C600 1.381 . S
C602 C603 1.394 . S
C602 H610 0.930 . S
C603 C602 1.394 . S
C603 C604 1.383 . S
C603 H611 0.929 . S
C604 C603 1.383 . S
C604 C605 1.377 . S
C605 H589 0.930 . S
C605 C604 1.377 . S
C605 C606 1.379 . S
C606 H590 0.931 . S
C606 C600 1.383 . S
C606 C605 1.379 . S
H607 C601 0.959 . S
H608 C601 0.961 . S
H609 C601 0.960 . S
H610 C602 0.930 . S
H611 C603 0.929 . S
H612 C620 0.929 . S
H613 C622 0.930 . S
H614 C624 0.930 . S
H615 C627 0.929 . S
H616 C630 0.930 . S
H617 C632 0.960 . S
H618 C632 0.960 . S
H619 C632 0.960 . S
C620 H612 0.929 . S
C620 C621 1.377 . S
C620 C622 1.384 . S
C621 C620 1.377 . S
C621 C627 1.390 . S
C622 H613 0.930 . S
C622 C620 1.384 . S
C622 C623 1.372 . S
C623 C622 1.372 . S
C623 C624 1.400 . S
C623 C628 1.490 . S
C624 H614 0.930 . S
C624 C623 1.400 . S
C624 C627 1.386 . S
H625 C641 0.930 . S
H626 C642 0.931 . S
C627 H615 0.929 . S
C627 C621 1.390 . S
C627 C624 1.386 . S
C628 C623 1.490 . S
C628 C630 1.395 . S
C628 C631 1.403 . S
H629 C635 0.930 . S
C630 H616 0.930 . S
C630 C628 1.395 . S
C630 C633 1.403 . S
C631 C628 1.403 . S
C631 C632 1.524 . S
C631 C635 1.400 . S
C632 H617 0.960 . S
C632 H618 0.960 . S
C632 H619 0.960 . S
C632 C631 1.524 . S
C633 C630 1.403 . S
C633 C634 1.392 . S
C633 C637 1.495 . S
C634 C633 1.392 . S
C634 C635 1.385 . S
C634 C636 1.478 . S
C635 H629 0.930 . S
C635 C631 1.400 . S
C635 C634 1.385 . S
C636 C634 1.478 . S
C636 C638 1.381 . S
C636 C642 1.383 . S
C637 C633 1.495 . S
C637 H643 0.959 . S
C637 H644 0.961 . S
C637 H645 0.960 . S
C638 C636 1.381 . S
C638 C639 1.394 . S
C638 H646 0.930 . S
C639 C638 1.394 . S
C639 C640 1.383 . S
C639 H647 0.929 . S
C640 C639 1.383 . S
C640 C641 1.377 . S
C641 H625 0.930 . S
C641 C640 1.377 . S
C641 C642 1.379 . S
C642 H626 0.931 . S
C642 C636 1.383 . S
C642 C641 1.379 . S
H643 C637 0.959 . S
H644 C637 0.961 . S
H645 C637 0.960 . S
H646 C638 0.930 . S
H647 C639 0.929 . S
H648 C656 0.929 . S
H649 C658 0.930 . S
H650 C660 0.930 . S
H651 C663 0.929 . S
H652 C666 0.930 . S
H653 C668 0.960 . S
H654 C668 0.960 . S
H655 C668 0.960 . S
C656 H648 0.929 . S
C656 C657 1.377 . S
C656 C658 1.384 . S
C657 C656 1.377 . S
C657 C663 1.390 . S
C658 H649 0.930 . S
C658 C656 1.384 . S
C658 C659 1.372 . S
C659 C658 1.372 . S
C659 C660 1.400 . S
C659 C664 1.490 . S
C660 H650 0.930 . S
C660 C659 1.400 . S
C660 C663 1.386 . S
H661 C677 0.930 . S
H662 C678 0.931 . S
C663 H651 0.929 . S
C663 C657 1.390 . S
C663 C660 1.386 . S
C664 C659 1.490 . S
C664 C666 1.395 . S
C664 C667 1.403 . S
H665 C671 0.930 . S
C666 H652 0.930 . S
C666 C664 1.395 . S
C666 C669 1.403 . S
C667 C664 1.403 . S
C667 C668 1.524 . S
C667 C671 1.400 . S
C668 H653 0.960 . S
C668 H654 0.960 . S
C668 H655 0.960 . S
C668 C667 1.524 . S
C669 C666 1.403 . S
C669 C670 1.392 . S
C669 C673 1.495 . S
C670 C669 1.392 . S
C670 C671 1.385 . S
C670 C672 1.478 . S
C671 H665 0.930 . S
C671 C667 1.400 . S
C671 C670 1.385 . S
C672 C670 1.478 . S
C672 C674 1.381 . S
C672 C678 1.383 . S
C673 C669 1.495 . S
C673 H679 0.959 . S
C673 H680 0.961 . S
C673 H681 0.960 . S
C674 C672 1.381 . S
C674 C675 1.394 . S
C674 H682 0.930 . S
C675 C674 1.394 . S
C675 C676 1.383 . S
C675 H683 0.929 . S
C676 C675 1.383 . S
C676 C677 1.377 . S
C677 H661 0.930 . S
C677 C676 1.377 . S
C677 C678 1.379 . S
C678 H662 0.931 . S
C678 C672 1.383 . S
C678 C677 1.379 . S
H679 C673 0.959 . S
H680 C673 0.961 . S
H681 C673 0.960 . S
H682 C674 0.930 . S
H683 C675 0.929 . S
H684 C692 0.929 . S
H685 C694 0.930 . S
H686 C696 0.930 . S
H687 C699 0.929 . S
H688 C702 0.930 . S
H689 C704 0.960 . S
H690 C704 0.960 . S
H691 C704 0.960 . S
C692 H684 0.929 . S
C692 C693 1.377 . S
C692 C694 1.384 . S
C693 C692 1.377 . S
C693 C699 1.390 . S
C694 H685 0.930 . S
C694 C692 1.384 . S
C694 C695 1.372 . S
C695 C694 1.372 . S
C695 C696 1.400 . S
C695 C700 1.490 . S
C696 H686 0.930 . S
C696 C695 1.400 . S
C696 C699 1.386 . S
H697 C713 0.930 . S
H698 C714 0.931 . S
C699 H687 0.929 . S
C699 C693 1.390 . S
C699 C696 1.386 . S
C700 C695 1.490 . S
C700 C702 1.395 . S
C700 C703 1.403 . S
H701 C707 0.930 . S
C702 H688 0.930 . S
C702 C700 1.395 . S
C702 C705 1.403 . S
C703 C700 1.403 . S
C703 C704 1.524 . S
C703 C707 1.400 . S
C704 H689 0.960 . S
C704 H690 0.960 . S
C704 H691 0.960 . S
C704 C703 1.524 . S
C705 C702 1.403 . S
C705 C706 1.392 . S
C705 C709 1.495 . S
C706 C705 1.392 . S
C706 C707 1.385 . S
C706 C708 1.478 . S
C707 H701 0.930 . S
C707 C703 1.400 . S
C707 C706 1.385 . S
C708 C706 1.478 . S
C708 C710 1.381 . S
C708 C714 1.383 . S
C709 C705 1.495 . S
C709 H715 0.959 . S
C709 H716 0.961 . S
C709 H717 0.960 . S
C710 C708 1.381 . S
C710 C711 1.394 . S
C710 H718 0.930 . S
C711 C710 1.394 . S
C711 C712 1.383 . S
C711 H719 0.929 . S
C712 C711 1.383 . S
C712 C713 1.377 . S
C713 H697 0.930 . S
C713 C712 1.377 . S
C713 C714 1.379 . S
C714 H698 0.931 . S
C714 C708 1.383 . S
C714 C713 1.379 . S
H715 C709 0.959 . S
H716 C709 0.961 . S
H717 C709 0.960 . S
H718 C710 0.930 . S
H719 C711 0.929 . S
H720 C728 0.929 . S
H721 C730 0.930 . S
H722 C732 0.930 . S
H723 C735 0.929 . S
H724 C738 0.930 . S
H725 C740 0.960 . S
H726 C740 0.960 . S
H727 C740 0.960 . S
C728 H720 0.929 . S
C728 C729 1.377 . S
C728 C730 1.384 . S
C729 C728 1.377 . S
C729 C735 1.390 . S
C730 H721 0.930 . S
C730 C728 1.384 . S
C730 C731 1.372 . S
C731 C730 1.372 . S
C731 C732 1.400 . S
C731 C736 1.490 . S
C732 H722 0.930 . S
C732 C731 1.400 . S
C732 C735 1.386 . S
H733 C749 0.930 . S
H734 C750 0.931 . S
C735 H723 0.929 . S
C735 C729 1.390 . S
C735 C732 1.386 . S
C736 C731 1.490 . S
C736 C738 1.395 . S
C736 C739 1.403 . S
H737 C743 0.930 . S
C738 H724 0.930 . S
C738 C736 1.395 . S
C738 C741 1.403 . S
C739 C736 1.403 . S
C739 C740 1.524 . S
C739 C743 1.400 . S
C740 H725 0.960 . S
C740 H726 0.960 . S
C740 H727 0.960 . S
C740 C739 1.524 . S
C741 C738 1.403 . S
C741 C742 1.392 . S
C741 C745 1.495 . S
C742 C741 1.392 . S
C742 C743 1.385 . S
C742 C744 1.478 . S
C743 H737 0.930 . S
C743 C739 1.400 . S
C743 C742 1.385 . S
C744 C742 1.478 . S
C744 C746 1.381 . S
C744 C750 1.383 . S
C745 C741 1.495 . S
C745 H751 0.959 . S
C745 H752 0.961 . S
C745 H753 0.960 . S
C746 C744 1.381 . S
C746 C747 1.394 . S
C746 H754 0.930 . S
C747 C746 1.394 . S
C747 C748 1.383 . S
C747 H755 0.929 . S
C748 C747 1.383 . S
C748 C749 1.377 . S
C749 H733 0.930 . S
C749 C748 1.377 . S
C749 C750 1.379 . S
C750 H734 0.931 . S
C750 C744 1.383 . S
C750 C749 1.379 . S
H751 C745 0.959 . S
H752 C745 0.961 . S
H753 C745 0.960 . S
H754 C746 0.930 . S
H755 C747 0.929 . S
H756 C764 0.929 . S
H757 C766 0.930 . S
H758 C768 0.930 . S
H759 C771 0.929 . S
H760 C774 0.930 . S
H761 C776 0.960 . S
H762 C776 0.960 . S
H763 C776 0.960 . S
C764 H756 0.929 . S
C764 C765 1.377 . S
C764 C766 1.384 . S
C765 C764 1.377 . S
C765 C771 1.390 . S
C766 H757 0.930 . S
C766 C764 1.384 . S
C766 C767 1.372 . S
C767 C766 1.372 . S
C767 C768 1.400 . S
C767 C772 1.490 . S
C768 H758 0.930 . S
C768 C767 1.400 . S
C768 C771 1.386 . S
H769 C785 0.930 . S
H770 C786 0.931 . S
C771 H759 0.929 . S
C771 C765 1.390 . S
C771 C768 1.386 . S
C772 C767 1.490 . S
C772 C774 1.395 . S
C772 C775 1.403 . S
H773 C779 0.930 . S
C774 H760 0.930 . S
C774 C772 1.395 . S
C774 C777 1.403 . S
C775 C772 1.403 . S
C775 C776 1.524 . S
C775 C779 1.400 . S
C776 H761 0.960 . S
C776 H762 0.960 . S
C776 H763 0.960 . S
C776 C775 1.524 . S
C777 C774 1.403 . S
C777 C778 1.392 . S
C777 C781 1.495 . S
C778 C777 1.392 . S
C778 C779 1.385 . S
C778 C780 1.478 . S
C779 H773 0.930 . S
C779 C775 1.400 . S
C779 C778 1.385 . S
C780 C778 1.478 . S
C780 C782 1.381 . S
C780 C786 1.383 . S
C781 C777 1.495 . S
C781 H787 0.959 . S
C781 H788 0.961 . S
C781 H789 0.960 . S
C782 C780 1.381 . S
C782 C783 1.394 . S
C782 H790 0.930 . S
C783 C782 1.394 . S
C783 C784 1.383 . S
C783 H791 0.929 . S
C784 C783 1.383 . S
C784 C785 1.377 . S
C785 H769 0.930 . S
C785 C784 1.377 . S
C785 C786 1.379 . S
C786 H770 0.931 . S
C786 C780 1.383 . S
C786 C785 1.379 . S
H787 C781 0.959 . S
H788 C781 0.961 . S
H789 C781 0.960 . S
H790 C782 0.930 . S
H791 C783 0.929 . S
H792 C800 0.929 . S
H793 C802 0.930 . S
H794 C804 0.930 . S
H795 C807 0.933 1_655 S
H796 C810 0.930 . S
H797 C812 0.960 . S
H798 C812 0.960 . S
H799 C812 0.960 . S
C800 H792 0.929 . S
C800 C801 1.377 . S
C800 C802 1.384 . S
C801 C800 1.377 . S
C801 C807 1.392 . S
C802 H793 0.930 . S
C802 C800 1.384 . S
C802 C803 1.372 . S
C803 C802 1.372 . S
C803 C804 1.400 1_455 S
C803 C808 1.490 . S
C804 H794 0.930 . S
C804 C803 1.400 1_655 S
C804 C807 1.380 1_655 S
H805 C821 0.930 . S
H806 C822 0.931 . S
C807 H795 0.933 1_455 S
C807 C801 1.392 . S
C807 C804 1.380 1_455 S
C808 C803 1.490 . S
C808 C810 1.395 1_455 S
C808 C811 1.403 . S
H809 C815 0.930 . S
C810 H796 0.930 . S
C810 C808 1.395 1_655 S
C810 C813 1.403 . S
C811 C808 1.403 . S
C811 C812 1.524 . S
C811 C815 1.400 . S
C812 H797 0.960 . S
C812 H798 0.960 . S
C812 H799 0.960 . S
C812 C811 1.524 . S
C813 C810 1.403 . S
C813 C814 1.392 . S
C813 C817 1.495 . S
C814 C813 1.392 . S
C814 C815 1.385 1_655 S
C814 C816 1.478 . S
C815 H809 0.930 . S
C815 C811 1.400 . S
C815 C814 1.385 1_455 S
C816 C814 1.478 . S
C816 C818 1.382 . S
C816 C822 1.383 . S
C817 C813 1.495 . S
C817 H823 0.959 . S
C817 H824 0.961 . S
C817 H825 0.960 . S
C818 C816 1.382 . S
C818 C819 1.393 . S
C818 H826 0.931 1_655 S
C819 C818 1.393 . S
C819 C820 1.383 . S
C819 H827 0.929 1_655 S
C820 C819 1.383 . S
C820 C821 1.377 . S
C821 H805 0.930 . S
C821 C820 1.377 . S
C821 C822 1.379 . S
C822 H806 0.931 . S
C822 C816 1.383 . S
C822 C821 1.379 . S
H823 C817 0.959 . S
H824 C817 0.961 . S
H825 C817 0.960 . S
H826 C818 0.931 1_455 S
H827 C819 0.929 1_455 S
H828 C836 0.929 . S
H829 C838 0.930 . S
H830 C840 0.930 . S
H831 C843 0.929 . S
H832 C846 0.930 . S
H833 C848 0.960 . S
H834 C848 0.960 . S
H835 C848 0.960 . S
C836 H828 0.929 . S
C836 C837 1.377 . S
C836 C838 1.384 . S
C837 C836 1.377 . S
C837 C843 1.390 . S
C838 H829 0.930 . S
C838 C836 1.384 . S
C838 C839 1.372 . S
C839 C838 1.372 . S
C839 C840 1.400 . S
C839 C844 1.490 . S
C840 H830 0.930 . S
C840 C839 1.400 . S
C840 C843 1.386 . S
H841 C857 0.930 . S
H842 C858 0.931 . S
C843 H831 0.929 . S
C843 C837 1.390 . S
C843 C840 1.386 . S
C844 C839 1.490 . S
C844 C846 1.395 . S
C844 C847 1.403 . S
H845 C851 0.930 . S
C846 H832 0.930 . S
C846 C844 1.395 . S
C846 C849 1.403 . S
C847 C844 1.403 . S
C847 C848 1.524 . S
C847 C851 1.400 . S
C848 H833 0.960 . S
C848 H834 0.960 . S
C848 H835 0.960 . S
C848 C847 1.524 . S
C849 C846 1.403 . S
C849 C850 1.392 . S
C849 C853 1.495 . S
C850 C849 1.392 . S
C850 C851 1.385 . S
C850 C852 1.478 . S
C851 H845 0.930 . S
C851 C847 1.400 . S
C851 C850 1.385 . S
C852 C850 1.478 . S
C852 C854 1.381 . S
C852 C858 1.383 . S
C853 C849 1.495 . S
C853 H859 0.959 . S
C853 H860 0.961 . S
C853 H861 0.960 . S
C854 C852 1.381 . S
C854 C855 1.394 . S
C854 H862 0.930 . S
C855 C854 1.394 . S
C855 C856 1.383 . S
C855 H863 0.929 . S
C856 C855 1.383 . S
C856 C857 1.377 . S
C857 H841 0.930 . S
C857 C856 1.377 . S
C857 C858 1.379 . S
C858 H842 0.931 . S
C858 C852 1.383 . S
C858 C857 1.379 . S
H859 C853 0.959 . S
H860 C853 0.961 . S
H861 C853 0.960 . S
H862 C854 0.930 . S
H863 C855 0.929 . S
H864 C872 0.929 . S
H865 C874 0.930 . S
H866 C876 0.930 . S
H867 C879 0.929 . S
H868 C882 0.930 . S
H869 C884 0.960 . S
H870 C884 0.960 . S
H871 C884 0.960 . S
C872 H864 0.929 . S
C872 C873 1.377 1_565 S
C872 C874 1.384 . S
C873 C872 1.377 1_545 S
C873 C879 1.390 . S
C874 H865 0.930 . S
C874 C872 1.384 . S
C874 C875 1.372 1_565 S
C875 C874 1.372 1_545 S
C875 C876 1.400 . S
C875 C880 1.490 . S
C876 H866 0.930 . S
C876 C875 1.400 . S
C876 C879 1.386 . S
H877 C893 0.930 . S
H878 C894 0.931 . S
C879 H867 0.929 . S
C879 C873 1.390 . S
C879 C876 1.386 . S
C880 C875 1.490 . S
C880 C882 1.395 . S
C880 C883 1.403 1_545 S
H881 C887 0.930 . S
C882 H868 0.930 . S
C882 C880 1.395 . S
C882 C885 1.403 . S
C883 C880 1.403 1_565 S
C883 C884 1.524 . S
C883 C887 1.400 . S
C884 H869 0.960 . S
C884 H870 0.960 . S
C884 H871 0.960 . S
C884 C883 1.524 . S
C885 C882 1.403 . S
C885 C886 1.410 . S
C885 C889 1.495 . S
C886 C885 1.410 . S
C886 C887 1.355 1_545 S
C886 C888 1.490 1_545 S
C887 H881 0.930 . S
C887 C883 1.400 . S
C887 C886 1.355 1_565 S
C888 C886 1.490 1_565 S
C888 C890 1.381 . S
C888 C894 1.383 1_565 S
C889 C885 1.495 . S
C889 H895 0.959 . S
C889 H896 0.961 . S
C889 H897 0.960 . S
C890 C888 1.381 . S
C890 C891 1.394 . S
C890 H898 0.930 . S
C891 C890 1.394 . S
C891 C892 1.383 . S
C891 H899 0.929 . S
C892 C891 1.383 . S
C892 C893 1.377 1_565 S
C893 H877 0.930 . S
C893 C892 1.377 1_545 S
C893 C894 1.379 . S
C894 H878 0.931 . S
C894 C888 1.383 1_545 S
C894 C893 1.379 . S
H895 C889 0.959 . S
H896 C889 0.961 . S
H897 C889 0.960 . S
H898 C890 0.930 . S
H899 C891 0.929 . S
H900 C908 0.929 . S
H901 C910 0.930 . S
H902 C912 0.930 1_556 S
H903 C915 0.929 . S
H904 C918 0.930 . S
H905 C920 0.960 . S
H906 C920 0.960 . S
H907 C920 0.960 . S
C908 H900 0.929 . S
C908 C909 1.377 . S
C908 C910 1.384 . S
C909 C908 1.377 . S
C909 C915 1.390 . S
C910 H901 0.930 . S
C910 C908 1.384 . S
C910 C911 1.372 . S
C911 C910 1.372 . S
C911 C912 1.400 . S
C911 C916 1.490 . S
C912 H902 0.930 1_554 S
C912 C911 1.400 . S
C912 C915 1.386 . S
H913 C929 0.930 . S
H914 C930 0.931 . S
C915 H903 0.929 . S
C915 C909 1.390 . S
C915 C912 1.386 . S
C916 C911 1.490 . S
C916 C918 1.395 . S
C916 C919 1.403 . S
H917 C923 0.930 . S
C918 H904 0.930 . S
C918 C916 1.395 . S
C918 C921 1.403 . S
C919 C916 1.403 . S
C919 C920 1.524 . S
C919 C923 1.400 1_554 S
C920 H905 0.960 . S
C920 H906 0.960 . S
C920 H907 0.960 . S
C920 C919 1.524 . S
C921 C918 1.403 . S
C921 C922 1.392 1_554 S
C921 C925 1.499 . S
C922 C921 1.392 1_556 S
C922 C923 1.385 . S
C922 C924 1.478 . S
C923 H917 0.930 . S
C923 C919 1.400 1_556 S
C923 C922 1.385 . S
C924 C922 1.478 . S
C924 C926 1.381 . S
C924 C930 1.383 . S
C925 C921 1.499 . S
C925 H931 0.975 . S
C925 H932 0.922 1_554 S
C925 H933 0.982 . S
C926 C924 1.381 . S
C926 C927 1.394 . S
C926 H934 0.930 1_556 S
C927 C926 1.394 . S
C927 C928 1.383 . S
C927 H935 0.929 . S
C928 C927 1.383 . S
C928 C929 1.377 . S
C929 H913 0.930 . S
C929 C928 1.377 . S
C929 C930 1.379 . S
C930 H914 0.931 . S
C930 C924 1.383 . S
C930 C929 1.379 . S
H931 C925 0.975 . S
H932 C925 0.922 1_556 S
H933 C925 0.982 . S
H934 C926 0.930 1_554 S
H935 C927 0.929 . S
H936 C944 0.929 1_655 S
H937 C946 0.930 . S
H938 C948 0.930 . S
H939 C951 0.929 . S
H940 C954 0.930 . S
H941 C956 0.960 . S
H942 C956 0.960 . S
H943 C956 0.960 . S
C944 H936 0.929 1_455 S
C944 C945 1.377 . S
C944 C946 1.384 . S
C945 C944 1.377 . S
C945 C951 1.390 . S
C946 H937 0.930 . S
C946 C944 1.384 . S
C946 C947 1.372 . S
C947 C946 1.372 . S
C947 C948 1.400 . S
C947 C952 1.490 . S
C948 H938 0.930 . S
C948 C947 1.400 . S
C948 C951 1.386 . S
H949 C965 0.930 . S
H950 C966 0.931 . S
C951 H939 0.929 . S
C951 C945 1.390 . S
C951 C948 1.386 . S
C952 C947 1.490 . S
C952 C954 1.395 1_554 S
C952 C955 1.403 . S
H953 C959 0.930 . S
C954 H940 0.930 . S
C954 C952 1.395 1_556 S
C954 C957 1.403 . S
C955 C952 1.403 . S
C955 C956 1.524 . S
C955 C959 1.400 . S
C956 H941 0.960 . S
C956 H942 0.960 . S
C956 H943 0.960 . S
C956 C955 1.524 . S
C957 C954 1.403 . S
C957 C958 1.392 . S
C957 C961 1.495 . S
C958 C957 1.392 . S
C958 C959 1.385 1_556 S
C958 C960 1.478 . S
C959 H953 0.930 . S
C959 C955 1.400 . S
C959 C958 1.385 1_554 S
C960 C958 1.478 . S
C960 C962 1.381 . S
C960 C966 1.383 . S
C961 C957 1.495 . S
C961 H967 0.959 . S
C961 H968 0.961 . S
C961 H969 0.960 . S
C962 C960 1.381 . S
C962 C963 1.394 . S
C962 H970 0.930 . S
C963 C962 1.394 . S
C963 C964 1.383 . S
C963 H971 0.929 . S
C964 C963 1.383 . S
C964 C965 1.377 . S
C965 H949 0.930 . S
C965 C964 1.377 . S
C965 C966 1.379 . S
C966 H950 0.931 . S
C966 C960 1.383 . S
C966 C965 1.379 . S
H967 C961 0.959 . S
H968 C961 0.961 . S
H969 C961 0.960 . S
H970 C962 0.930 . S
H971 C963 0.929 . S
H972 C980 0.929 . S
H973 C982 0.930 . S
H974 C984 0.930 . S
H975 C987 0.929 . S
H976 C990 0.930 . S
H977 C992 0.960 . S
H978 C992 0.960 . S
H979 C992 0.960 . S
C980 H972 0.929 . S
C980 C981 1.377 . S
C980 C982 1.384 . S
C981 C980 1.377 . S
C981 C987 1.390 . S
C982 H973 0.930 . S
C982 C980 1.384 . S
C982 C983 1.372 . S
C983 C982 1.372 . S
C983 C984 1.400 . S
C983 C988 1.490 . S
C984 H974 0.930 . S
C984 C983 1.400 . S
C984 C987 1.386 . S
H985 C1001 0.930 . S
H986 C1002 0.931 . S
C987 H975 0.929 . S
C987 C981 1.390 . S
C987 C984 1.386 . S
C988 C983 1.490 . S
C988 C990 1.395 . S
C988 C991 1.403 1_554 S
H989 C995 0.930 . S
C990 H976 0.930 . S
C990 C988 1.395 . S
C990 C993 1.403 . S
C991 C988 1.403 1_556 S
C991 C992 1.524 . S
C991 C995 1.400 . S
C992 H977 0.960 . S
C992 H978 0.960 . S
C992 H979 0.960 . S
C992 C991 1.524 . S
C993 C990 1.403 . S
C993 C994 1.392 1_554 S
C993 C997 1.495 . S
C994 C993 1.392 1_556 S
C994 C995 1.385 . S
C994 C996 1.478 . S
C995 H989 0.930 . S
C995 C991 1.400 . S
C995 C994 1.385 . S
C996 C994 1.478 . S
C996 C998 1.381 . S
C996 C1002 1.383 . S
C997 C993 1.495 . S
C997 H1003 0.959 . S
C997 H1004 0.961 . S
C997 H1005 0.960 . S
C998 C996 1.381 . S
C998 C999 1.394 . S
C998 H1006 0.930 . S
C999 C998 1.394 . S
C999 C1000 1.383 . S
C999 H1007 0.929 . S
C1000 C999 1.383 . S
C1000 C1001 1.377 . S
C1001 H985 0.930 . S
C1001 C1000 1.377 . S
C1001 C1002 1.379 . S
C1002 H986 0.931 . S
C1002 C996 1.383 . S
C1002 C1001 1.379 . S
H1003 C997 0.959 . S
H1004 C997 0.961 . S
H1005 C997 0.960 . S
H1006 C998 0.930 . S
H1007 C999 0.929 . S
H1008 C1016 0.929 1_565 S
H1009 C1018 0.930 1_554 S
H1010 C1020 0.930 . S
H1011 C1023 0.929 . S
H1012 C1026 0.930 . S
H1013 C1028 0.960 . S
H1014 C1028 0.960 . S
H1015 C1028 0.960 . S
C1016 H1008 0.929 1_545 S
C1016 C1017 1.377 . S
C1016 C1018 1.384 . S
C1017 C1016 1.377 . S
C1017 C1023 1.390 . S
C1018 H1009 0.930 1_556 S
C1018 C1016 1.384 . S
C1018 C1019 1.372 . S
C1019 C1018 1.372 . S
C1019 C1020 1.400 . S
C1019 C1024 1.490 . S
C1020 H1010 0.930 . S
C1020 C1019 1.400 . S
C1020 C1023 1.386 . S
H1021 C1037 0.930 . S
H1022 C1038 0.931 1_556 S
C1023 H1011 0.929 . S
C1023 C1017 1.390 . S
C1023 C1020 1.386 . S
C1024 C1019 1.490 . S
C1024 C1026 1.395 . S
C1024 C1027 1.403 . S
H1025 C1031 0.930 . S
C1026 H1012 0.930 . S
C1026 C1024 1.395 . S
C1026 C1029 1.403 1_556 S
C1027 C1024 1.403 . S
C1027 C1028 1.524 . S
C1027 C1031 1.400 1_556 S
C1028 H1013 0.960 . S
C1028 H1014 0.960 . S
C1028 H1015 0.960 . S
C1028 C1027 1.524 . S
C1029 C1026 1.403 1_554 S
C1029 C1030 1.392 . S
C1029 C1033 1.495 . S
C1030 C1029 1.392 . S
C1030 C1031 1.385 . S
C1030 C1032 1.478 . S
C1031 H1025 0.930 . S
C1031 C1027 1.400 1_554 S
C1031 C1030 1.385 . S
C1032 C1030 1.478 . S
C1032 C1034 1.381 . S
C1032 C1038 1.383 . S
C1033 C1029 1.495 . S
C1033 H1039 0.959 . S
C1033 H1040 0.961 . S
C1033 H1041 0.960 . S
C1034 C1032 1.381 . S
C1034 C1035 1.394 . S
C1034 H1042 0.930 . S
C1035 C1034 1.394 . S
C1035 C1036 1.383 . S
C1035 H1043 0.929 . S
C1036 C1035 1.383 . S
C1036 C1037 1.377 . S
C1037 H1021 0.930 . S
C1037 C1036 1.377 . S
C1037 C1038 1.379 . S
C1038 H1022 0.931 1_554 S
C1038 C1032 1.383 . S
C1038 C1037 1.379 . S
H1039 C1033 0.959 . S
H1040 C1033 0.961 . S
H1041 C1033 0.960 . S
H1042 C1034 0.930 . S
H1043 C1035 0.929 . S
H1044 C1052 0.964 . S
H1045 C1054 0.930 1_556 S
H1046 C1056 0.930 . S
H1047 C1059 0.929 . S
H1048 C1062 0.930 . S
H1049 C1064 0.960 . S
H1050 C1064 0.960 . S
H1051 C1064 0.960 . S
C1052 H1044 0.964 . S
C1052 C1053 1.377 . S
C1052 C1054 1.384 . S
C1053 C1052 1.377 . S
C1053 C1059 1.390 . S
C1054 H1045 0.930 1_554 S
C1054 C1052 1.384 . S
C1054 C1055 1.372 . S
C1055 C1054 1.372 . S
C1055 C1056 1.400 . S
C1055 C1060 1.490 . S
C1056 H1046 0.930 . S
C1056 C1055 1.400 . S
C1056 C1059 1.386 . S
H1057 C1073 0.930 . S
H1058 C1074 0.931 1_554 S
C1059 H1047 0.929 . S
C1059 C1053 1.390 . S
C1059 C1056 1.386 . S
C1060 C1055 1.490 . S
C1060 C1062 1.395 1_554 S
C1060 C1063 1.403 . S
H1061 C1067 0.930 . S
C1062 H1048 0.930 . S
C1062 C1060 1.395 1_556 S
C1062 C1065 1.403 . S
C1063 C1060 1.403 . S
C1063 C1064 1.524 . S
C1063 C1067 1.400 1_554 S
C1064 H1049 0.960 . S
C1064 H1050 0.960 . S
C1064 H1051 0.960 . S
C1064 C1063 1.524 . S
C1065 C1062 1.403 . S
C1065 C1066 1.392 . S
C1065 C1069 1.495 . S
C1066 C1065 1.392 . S
C1066 C1067 1.385 . S
C1066 C1068 1.478 . S
C1067 H1061 0.930 . S
C1067 C1063 1.400 1_556 S
C1067 C1066 1.385 . S
C1068 C1066 1.478 . S
C1068 C1070 1.381 . S
C1068 C1074 1.383 . S
C1069 C1065 1.495 . S
C1069 H1075 0.959 . S
C1069 H1076 0.961 . S
C1069 H1077 0.960 . S
C1070 C1068 1.381 . S
C1070 C1071 1.394 . S
C1070 H1078 0.930 . S
C1071 C1070 1.394 . S
C1071 C1072 1.383 . S
C1071 H1079 0.929 . S
C1072 C1071 1.383 . S
C1072 C1073 1.377 . S
C1073 H1057 0.930 . S
C1073 C1072 1.377 . S
C1073 C1074 1.379 . S
C1074 H1058 0.931 1_556 S
C1074 C1068 1.383 . S
C1074 C1073 1.379 . S
H1075 C1069 0.959 . S
H1076 C1069 0.961 . S
H1077 C1069 0.960 . S
H1078 C1070 0.930 . S
H1079 C1071 0.929 . S
H1080 C1088 0.929 . S
H1081 C1090 0.930 1_554 S
H1082 C1092 0.930 . S
H1083 C1095 0.929 . S
H1084 C1098 0.940 . S
H1085 C1100 0.960 . S
H1086 C1100 0.960 . S
H1087 C1100 0.960 . S
C1088 H1080 0.929 . S
C1088 C1089 1.377 . S
C1088 C1090 1.384 . S
C1089 C1088 1.377 . S
C1089 C1095 1.390 . S
C1090 H1081 0.930 1_556 S
C1090 C1088 1.384 . S
C1090 C1091 1.372 . S
C1091 C1090 1.372 . S
C1091 C1092 1.400 . S
C1091 C1096 1.490 . S
C1092 H1082 0.930 . S
C1092 C1091 1.400 . S
C1092 C1095 1.386 . S
H1093 C1109 0.930 . S
H1094 C1110 0.931 1_556 S
C1095 H1083 0.929 . S
C1095 C1089 1.390 . S
C1095 C1092 1.386 . S
C1096 C1091 1.490 . S
C1096 C1098 1.367 1_556 S
C1096 C1099 1.403 . S
H1097 C1103 0.930 . S
C1098 H1084 0.940 . S
C1098 C1096 1.367 1_554 S
C1098 C1101 1.424 . S
C1099 C1096 1.403 . S
C1099 C1100 1.524 . S
C1099 C1103 1.400 . S
C1100 H1085 0.960 . S
C1100 H1086 0.960 . S
C1100 H1087 0.960 . S
C1100 C1099 1.524 . S
C1101 C1098 1.424 . S
C1101 C1102 1.392 . S
C1101 C1105 1.495 . S
C1102 C1101 1.392 . S
C1102 C1103 1.385 1_554 S
C1102 C1104 1.478 . S
C1103 H1097 0.930 . S
C1103 C1099 1.400 . S
C1103 C1102 1.385 1_556 S
C1104 C1102 1.478 . S
C1104 C1106 1.381 . S
C1104 C1110 1.383 . S
C1105 C1101 1.495 . S
C1105 H1111 0.959 . S
C1105 H1112 0.961 . S
C1105 H1113 0.960 . S
C1106 C1104 1.381 . S
C1106 C1107 1.394 . S
C1106 H1114 0.930 . S
C1107 C1106 1.394 . S
C1107 C1108 1.383 . S
C1107 H1115 0.929 . S
C1108 C1107 1.383 . S
C1108 C1109 1.377 . S
C1109 H1093 0.930 . S
C1109 C1108 1.377 . S
C1109 C1110 1.379 . S
C1110 H1094 0.931 1_554 S
C1110 C1104 1.383 . S
C1110 C1109 1.379 . S
H1111 C1105 0.959 . S
H1112 C1105 0.961 . S
H1113 C1105 0.960 . S
H1114 C1106 0.930 . S
H1115 C1107 0.929 . S
H1116 C1124 0.929 . S
H1117 C1126 0.930 . S
H1118 C1128 0.930 . S
H1119 C1131 0.929 . S
H1120 C1134 0.930 . S
H1121 C1136 0.960 . S
H1122 C1136 0.960 . S
H1123 C1136 0.960 . S
C1124 H1116 0.929 . S
C1124 C1125 1.377 . S
C1124 C1126 1.384 . S
C1125 C1124 1.377 . S
C1125 C1131 1.390 . S
C1126 H1117 0.930 . S
C1126 C1124 1.384 . S
C1126 C1127 1.372 . S
C1127 C1126 1.372 . S
C1127 C1128 1.400 . S
C1127 C1132 1.490 . S
C1128 H1118 0.930 . S
C1128 C1127 1.400 . S
C1128 C1131 1.386 . S
H1129 C1145 0.930 . S
H1130 C1146 0.931 . S
C1131 H1119 0.929 . S
C1131 C1125 1.390 . S
C1131 C1128 1.386 . S
C1132 C1127 1.490 . S
C1132 C1134 1.395 . S
C1132 C1135 1.403 . S
H1133 C1139 0.930 . S
C1134 H1120 0.930 . S
C1134 C1132 1.395 . S
C1134 C1137 1.403 . S
C1135 C1132 1.403 . S
C1135 C1136 1.524 . S
C1135 C1139 1.400 . S
C1136 H1121 0.960 . S
C1136 H1122 0.960 . S
C1136 H1123 0.960 . S
C1136 C1135 1.524 . S
C1137 C1134 1.403 . S
C1137 C1138 1.392 . S
C1137 C1141 1.495 . S
C1138 C1137 1.392 . S
C1138 C1139 1.385 . S
C1138 C1140 1.478 . S
C1139 H1133 0.930 . S
C1139 C1135 1.400 . S
C1139 C1138 1.385 . S
C1140 C1138 1.478 . S
C1140 C1142 1.381 . S
C1140 C1146 1.383 . S
C1141 C1137 1.495 . S
C1141 H1147 0.959 . S
C1141 H1148 0.961 . S
C1141 H1149 0.960 . S
C1142 C1140 1.381 . S
C1142 C1143 1.394 . S
C1142 H1150 0.930 . S
C1143 C1142 1.394 . S
C1143 C1144 1.383 . S
C1143 H1151 0.929 . S
C1144 C1143 1.383 . S
C1144 C1145 1.377 . S
C1145 H1129 0.930 . S
C1145 C1144 1.377 . S
C1145 C1146 1.379 . S
C1146 H1130 0.931 . S
C1146 C1140 1.383 . S
C1146 C1145 1.379 . S
H1147 C1141 0.959 . S
H1148 C1141 0.961 . S
H1149 C1141 0.960 . S
H1150 C1142 0.930 . S
H1151 C1143 0.929 . S
H1152 C1160 0.929 . S
H1153 C1162 0.930 . S
H1154 C1164 0.930 . S
H1155 C1167 0.929 . S
H1156 C1170 0.930 . S
H1157 C1172 0.960 . S
H1158 C1172 0.960 . S
H1159 C1172 0.960 . S
C1160 H1152 0.929 . S
C1160 C1161 1.377 . S
C1160 C1162 1.384 . S
C1161 C1160 1.377 . S
C1161 C1167 1.390 . S
C1162 H1153 0.930 . S
C1162 C1160 1.384 . S
C1162 C1163 1.372 . S
C1163 C1162 1.372 . S
C1163 C1164 1.400 . S
C1163 C1168 1.490 . S
C1164 H1154 0.930 . S
C1164 C1163 1.400 . S
C1164 C1167 1.386 . S
H1165 C1181 0.930 . S
H1166 C1182 0.931 . S
C1167 H1155 0.929 . S
C1167 C1161 1.390 . S
C1167 C1164 1.386 . S
C1168 C1163 1.490 . S
C1168 C1170 1.395 . S
C1168 C1171 1.403 . S
H1169 C1175 0.930 . S
C1170 H1156 0.930 . S
C1170 C1168 1.395 . S
C1170 C1173 1.403 . S
C1171 C1168 1.403 . S
C1171 C1172 1.524 . S
C1171 C1175 1.400 . S
C1172 H1157 0.960 . S
C1172 H1158 0.960 . S
C1172 H1159 0.960 . S
C1172 C1171 1.524 . S
C1173 C1170 1.403 . S
C1173 C1174 1.392 . S
C1173 C1177 1.495 . S
C1174 C1173 1.392 . S
C1174 C1175 1.385 . S
C1174 C1176 1.478 . S
C1175 H1169 0.930 . S
C1175 C1171 1.400 . S
C1175 C1174 1.385 . S
C1176 C1174 1.478 . S
C1176 C1178 1.381 . S
C1176 C1182 1.383 . S
C1177 C1173 1.495 . S
C1177 H1183 0.959 . S
C1177 H1184 0.961 . S
C1177 H1185 0.960 . S
C1178 C1176 1.381 . S
C1178 C1179 1.394 . S
C1178 H1186 0.930 . S
C1179 C1178 1.394 . S
C1179 C1180 1.383 . S
C1179 H1187 0.929 . S
C1180 C1179 1.383 . S
C1180 C1181 1.377 . S
C1181 H1165 0.930 . S
C1181 C1180 1.377 . S
C1181 C1182 1.379 . S
C1182 H1166 0.931 . S
C1182 C1176 1.383 . S
C1182 C1181 1.379 . S
H1183 C1177 0.959 . S
H1184 C1177 0.961 . S
H1185 C1177 0.960 . S
H1186 C1178 0.930 . S
H1187 C1179 0.929 . S
H1188 C1196 0.929 . S
H1189 C1198 0.930 . S
H1190 C1200 0.930 . S
H1191 C1203 0.929 . S
H1192 C1206 0.930 . S
H1193 C1208 0.960 . S
H1194 C1208 0.960 . S
H1195 C1208 0.960 . S
C1196 H1188 0.929 . S
C1196 C1197 1.377 . S
C1196 C1198 1.384 . S
C1197 C1196 1.377 . S
C1197 C1203 1.390 . S
C1198 H1189 0.930 . S
C1198 C1196 1.384 . S
C1198 C1199 1.372 . S
C1199 C1198 1.372 . S
C1199 C1200 1.400 . S
C1199 C1204 1.490 . S
C1200 H1190 0.930 . S
C1200 C1199 1.400 . S
C1200 C1203 1.386 . S
H1201 C1217 0.930 . S
H1202 C1218 0.931 . S
C1203 H1191 0.929 . S
C1203 C1197 1.390 . S
C1203 C1200 1.386 . S
C1204 C1199 1.490 . S
C1204 C1206 1.395 . S
C1204 C1207 1.403 . S
H1205 C1211 0.930 . S
C1206 H1192 0.930 . S
C1206 C1204 1.395 . S
C1206 C1209 1.403 . S
C1207 C1204 1.403 . S
C1207 C1208 1.524 . S
C1207 C1211 1.400 . S
C1208 H1193 0.960 . S
C1208 H1194 0.960 . S
C1208 H1195 0.960 . S
C1208 C1207 1.524 . S
C1209 C1206 1.403 . S
C1209 C1210 1.392 . S
C1209 C1213 1.495 . S
C1210 C1209 1.392 . S
C1210 C1211 1.385 . S
C1210 C1212 1.478 . S
C1211 H1205 0.930 . S
C1211 C1207 1.400 . S
C1211 C1210 1.385 . S
C1212 C1210 1.478 . S
C1212 C1214 1.381 . S
C1212 C1218 1.383 . S
C1213 C1209 1.495 . S
C1213 H1219 0.959 . S
C1213 H1220 0.961 . S
C1213 H1221 0.960 . S
C1214 C1212 1.381 . S
C1214 C1215 1.394 . S
C1214 H1222 0.930 . S
C1215 C1214 1.394 . S
C1215 C1216 1.383 . S
C1215 H1223 0.929 . S
C1216 C1215 1.383 . S
C1216 C1217 1.377 . S
C1217 H1201 0.930 . S
C1217 C1216 1.377 . S
C1217 C1218 1.379 . S
C1218 H1202 0.931 . S
C1218 C1212 1.383 . S
C1218 C1217 1.379 . S
H1219 C1213 0.959 . S
H1220 C1213 0.961 . S
H1221 C1213 0.960 . S
H1222 C1214 0.930 . S
H1223 C1215 0.929 . S
H1224 C1232 0.929 . S
H1225 C1234 0.930 . S
H1226 C1236 0.930 . S
H1227 C1239 0.929 . S
H1228 C1242 0.930 . S
H1229 C1244 0.960 . S
H1230 C1244 0.960 . S
H1231 C1244 0.960 . S
C1232 H1224 0.929 . S
C1232 C1233 1.377 . S
C1232 C1234 1.384 . S
C1233 C1232 1.377 . S
C1233 C1239 1.390 . S
C1234 H1225 0.930 . S
C1234 C1232 1.384 . S
C1234 C1235 1.372 . S
C1235 C1234 1.372 . S
C1235 C1236 1.400 . S
C1235 C1240 1.490 . S
C1236 H1226 0.930 . S
C1236 C1235 1.400 . S
C1236 C1239 1.386 . S
H1237 C1253 0.930 . S
H1238 C1254 0.931 . S
C1239 H1227 0.929 . S
C1239 C1233 1.390 . S
C1239 C1236 1.386 . S
C1240 C1235 1.490 . S
C1240 C1242 1.395 . S
C1240 C1243 1.403 . S
H1241 C1247 0.930 . S
C1242 H1228 0.930 . S
C1242 C1240 1.395 . S
C1242 C1245 1.403 . S
C1243 C1240 1.403 . S
C1243 C1244 1.524 . S
C1243 C1247 1.400 . S
C1244 H1229 0.960 . S
C1244 H1230 0.960 . S
C1244 H1231 0.960 . S
C1244 C1243 1.524 . S
C1245 C1242 1.403 . S
C1245 C1246 1.392 . S
C1245 C1249 1.495 . S
C1246 C1245 1.392 . S
C1246 C1247 1.385 . S
C1246 C1248 1.478 . S
C1247 H1241 0.930 . S
C1247 C1243 1.400 . S
C1247 C1246 1.385 . S
C1248 C1246 1.478 . S
C1248 C1250 1.381 . S
C1248 C1254 1.383 . S
C1249 C1245 1.495 . S
C1249 H1255 0.959 . S
C1249 H1256 0.961 . S
C1249 H1257 0.960 . S
C1250 C1248 1.381 . S
C1250 C1251 1.394 . S
C1250 H1258 0.930 . S
C1251 C1250 1.394 . S
C1251 C1252 1.383 . S
C1251 H1259 0.929 . S
C1252 C1251 1.383 . S
C1252 C1253 1.377 . S
C1253 H1237 0.930 . S
C1253 C1252 1.377 . S
C1253 C1254 1.379 . S
C1254 H1238 0.931 . S
C1254 C1248 1.383 . S
C1254 C1253 1.379 . S
H1255 C1249 0.959 . S
H1256 C1249 0.961 . S
H1257 C1249 0.960 . S
H1258 C1250 0.930 . S
H1259 C1251 0.929 . S
H1260 C1268 0.929 . S
H1261 C1270 0.930 . S
H1262 C1272 0.930 . S
H1263 C1275 0.929 . S
H1264 C1278 0.930 . S
H1265 C1280 0.960 1_565 S
H1266 C1280 0.960 1_565 S
H1267 C1280 0.960 . S
C1268 H1260 0.929 . S
C1268 C1269 1.377 . S
C1268 C1270 1.384 . S
C1269 C1268 1.377 . S
C1269 C1275 1.390 . S
C1270 H1261 0.930 . S
C1270 C1268 1.384 . S
C1270 C1271 1.372 . S
C1271 C1270 1.372 . S
C1271 C1272 1.400 . S
C1271 C1276 1.490 . S
C1272 H1262 0.930 . S
C1272 C1271 1.400 . S
C1272 C1275 1.386 . S
H1273 C1289 0.930 . S
H1274 C1290 0.931 . S
C1275 H1263 0.929 . S
C1275 C1269 1.390 . S
C1275 C1272 1.386 . S
C1276 C1271 1.490 . S
C1276 C1278 1.395 . S
C1276 C1279 1.403 . S
H1277 C1283 0.930 . S
C1278 H1264 0.930 . S
C1278 C1276 1.395 . S
C1278 C1281 1.403 . S
C1279 C1276 1.403 . S
C1279 C1280 1.524 . S
C1279 C1283 1.400 . S
C1280 H1265 0.960 1_545 S
C1280 H1266 0.960 1_545 S
C1280 H1267 0.960 . S
C1280 C1279 1.524 . S
C1281 C1278 1.403 . S
C1281 C1282 1.392 . S
C1281 C1285 1.495 . S
C1282 C1281 1.392 . S
C1282 C1283 1.385 . S
C1282 C1284 1.478 . S
C1283 H1277 0.930 . S
C1283 C1279 1.400 . S
C1283 C1282 1.385 . S
C1284 C1282 1.478 . S
C1284 C1286 1.381 . S
C1284 C1290 1.383 . S
C1285 C1281 1.495 . S
C1285 H1291 0.959 . S
C1285 H1292 0.961 . S
C1285 H1293 0.960 . S
C1286 C1284 1.381 . S
C1286 C1287 1.394 1_545 S
C1286 H1294 0.930 1_545 S
C1287 C1286 1.394 1_565 S
C1287 C1288 1.383 1_565 S
C1287 H1295 0.929 . S
C1288 C1287 1.383 1_545 S
C1288 C1289 1.377 . S
C1289 H1273 0.930 . S
C1289 C1288 1.377 . S
C1289 C1290 1.379 . S
C1290 H1274 0.931 . S
C1290 C1284 1.383 . S
C1290 C1289 1.379 . S
H1291 C1285 0.959 . S
H1292 C1285 0.961 . S
H1293 C1285 0.960 . S
H1294 C1286 0.930 1_565 S
H1295 C1287 0.929 . S
H1296 C1304 0.929 . S
H1297 C1306 0.930 . S
H1298 C1308 0.930 . S
H1299 C1311 0.929 . S
H1300 C1314 0.930 . S
H1301 C1316 0.960 . S
H1302 C1316 0.960 . S
H1303 C1316 0.960 . S
C1304 H1296 0.929 . S
C1304 C1305 1.377 . S
C1304 C1306 1.384 . S
C1305 C1304 1.377 . S
C1305 C1311 1.390 . S
C1306 H1297 0.930 . S
C1306 C1304 1.384 . S
C1306 C1307 1.372 . S
C1307 C1306 1.372 . S
C1307 C1308 1.400 . S
C1307 C1312 1.490 . S
C1308 H1298 0.930 . S
C1308 C1307 1.400 . S
C1308 C1311 1.386 . S
H1309 C1325 0.930 1_455 S
H1310 C1326 0.931 . S
C1311 H1299 0.929 . S
C1311 C1305 1.390 . S
C1311 C1308 1.386 . S
C1312 C1307 1.490 . S
C1312 C1314 1.395 . S
C1312 C1315 1.403 . S
H1313 C1319 0.930 1_455 S
C1314 H1300 0.930 . S
C1314 C1312 1.395 . S
C1314 C1317 1.403 . S
C1315 C1312 1.403 . S
C1315 C1316 1.524 1_655 S
C1315 C1319 1.400 . S
C1316 H1301 0.960 . S
C1316 H1302 0.960 . S
C1316 H1303 0.960 . S
C1316 C1315 1.524 1_455 S
C1317 C1314 1.403 . S
C1317 C1318 1.392 . S
C1317 C1321 1.495 . S
C1318 C1317 1.392 . S
C1318 C1319 1.385 . S
C1318 C1320 1.478 . S
C1319 H1313 0.930 1_655 S
C1319 C1315 1.400 . S
C1319 C1318 1.385 . S
C1320 C1318 1.478 . S
C1320 C1322 1.381 . S
C1320 C1326 1.383 . S
C1321 C1317 1.495 . S
C1321 H1327 0.959 . S
C1321 H1328 0.961 . S
C1321 H1329 0.960 . S
C1322 C1320 1.381 . S
C1322 C1323 1.394 . S
C1322 H1330 0.930 . S
C1323 C1322 1.394 . S
C1323 C1324 1.383 . S
C1323 H1331 0.929 . S
C1324 C1323 1.383 . S
C1324 C1325 1.377 . S
C1325 H1309 0.930 1_655 S
C1325 C1324 1.377 . S
C1325 C1326 1.379 . S
C1326 H1310 0.931 . S
C1326 C1320 1.383 . S
C1326 C1325 1.379 . S
H1327 C1321 0.959 . S
H1328 C1321 0.961 . S
H1329 C1321 0.960 . S
H1330 C1322 0.930 . S
H1331 C1323 0.929 . S
H1332 C1340 0.929 . S
H1333 C1342 0.930 . S
H1334 C1344 0.930 . S
H1335 C1347 0.929 . S
H1336 C1350 0.930 . S
H1337 C1352 0.960 . S
H1338 C1352 0.960 . S
H1339 C1352 0.960 . S
C1340 H1332 0.929 . S
C1340 C1341 1.377 . S
C1340 C1342 1.384 . S
C1341 C1340 1.377 . S
C1341 C1347 1.390 . S
C1342 H1333 0.930 . S
C1342 C1340 1.384 . S
C1342 C1343 1.372 . S
C1343 C1342 1.372 . S
C1343 C1344 1.400 . S
C1343 C1348 1.490 . S
C1344 H1334 0.930 . S
C1344 C1343 1.400 . S
C1344 C1347 1.386 . S
H1345 C1361 0.930 . S
H1346 C1362 0.931 . S
C1347 H1335 0.929 . S
C1347 C1341 1.390 . S
C1347 C1344 1.386 . S
C1348 C1343 1.490 . S
C1348 C1350 1.395 . S
C1348 C1351 1.403 . S
H1349 C1355 0.930 . S
C1350 H1336 0.930 . S
C1350 C1348 1.395 . S
C1350 C1353 1.403 . S
C1351 C1348 1.403 . S
C1351 C1352 1.524 . S
C1351 C1355 1.400 . S
C1352 H1337 0.960 . S
C1352 H1338 0.960 . S
C1352 H1339 0.960 . S
C1352 C1351 1.524 . S
C1353 C1350 1.403 . S
C1353 C1354 1.392 . S
C1353 C1357 1.495 . S
C1354 C1353 1.392 . S
C1354 C1355 1.385 . S
C1354 C1356 1.478 . S
C1355 H1349 0.930 . S
C1355 C1351 1.400 . S
C1355 C1354 1.385 . S
C1356 C1354 1.478 . S
C1356 C1358 1.381 . S
C1356 C1362 1.383 . S
C1357 C1353 1.495 . S
C1357 H1363 0.959 . S
C1357 H1364 0.961 . S
C1357 H1365 0.960 . S
C1358 C1356 1.381 . S
C1358 C1359 1.394 . S
C1358 H1366 0.930 . S
C1359 C1358 1.394 . S
C1359 C1360 1.383 . S
C1359 H1367 0.929 . S
C1360 C1359 1.383 . S
C1360 C1361 1.377 . S
C1361 H1345 0.930 . S
C1361 C1360 1.377 . S
C1361 C1362 1.379 . S
C1362 H1346 0.931 . S
C1362 C1356 1.383 . S
C1362 C1361 1.379 . S
H1363 C1357 0.959 . S
H1364 C1357 0.961 . S
H1365 C1357 0.960 . S
H1366 C1358 0.930 . S
H1367 C1359 0.929 . S
H1368 C1376 0.929 . S
H1369 C1378 0.930 . S
H1370 C1380 0.930 . S
H1371 C1383 0.929 . S
H1372 C1386 0.930 . S
H1373 C1388 0.960 . S
H1374 C1388 0.960 . S
H1375 C1388 0.960 . S
C1376 H1368 0.929 . S
C1376 C1377 1.377 . S
C1376 C1378 1.384 . S
C1377 C1376 1.377 . S
C1377 C1383 1.390 1_565 S
C1378 H1369 0.930 . S
C1378 C1376 1.384 . S
C1378 C1379 1.372 . S
C1379 C1378 1.372 . S
C1379 C1380 1.400 1_565 S
C1379 C1384 1.490 . S
C1380 H1370 0.930 . S
C1380 C1379 1.400 1_545 S
C1380 C1383 1.386 . S
H1381 C1397 0.925 1_545 S
H1382 C1398 0.931 1_545 S
C1383 H1371 0.929 . S
C1383 C1377 1.390 1_545 S
C1383 C1380 1.386 . S
C1384 C1379 1.490 . S
C1384 C1386 1.395 . S
C1384 C1387 1.403 . S
H1385 C1391 0.930 . S
C1386 H1372 0.930 . S
C1386 C1384 1.395 . S
C1386 C1389 1.403 . S
C1387 C1384 1.403 . S
C1387 C1388 1.524 . S
C1387 C1391 1.400 . S
C1388 H1373 0.960 . S
C1388 H1374 0.960 . S
C1388 H1375 0.960 . S
C1388 C1387 1.524 . S
C1389 C1386 1.403 . S
C1389 C1390 1.392 . S
C1389 C1393 1.495 . S
C1390 C1389 1.392 . S
C1390 C1391 1.385 . S
C1390 C1392 1.478 . S
C1391 H1385 0.930 . S
C1391 C1387 1.400 . S
C1391 C1390 1.385 . S
C1392 C1390 1.478 . S
C1392 C1394 1.381 . S
C1392 C1398 1.383 . S
C1393 C1389 1.495 . S
C1393 H1399 0.959 . S
C1393 H1400 0.961 1_565 S
C1393 H1401 0.960 . S
C1394 C1392 1.381 . S
C1394 C1395 1.394 . S
C1394 H1402 0.930 . S
C1395 C1394 1.394 . S
C1395 C1396 1.383 . S
C1395 H1403 0.929 . S
C1396 C1395 1.383 . S
C1396 C1397 1.377 . S
C1397 H1381 0.925 1_565 S
C1397 C1396 1.377 . S
C1397 C1398 1.379 . S
C1398 H1382 0.931 1_565 S
C1398 C1392 1.383 . S
C1398 C1397 1.379 . S
H1399 C1393 0.959 . S
H1400 C1393 0.961 1_545 S
H1401 C1393 0.960 . S
H1402 C1394 0.930 . S
H1403 C1395 0.929 . S
H1404 C1412 0.934 . S
H1405 C1414 0.930 1_655 S
H1406 C1416 0.930 . S
H1407 C1419 0.929 . S
H1408 C1422 0.930 . S
H1409 C1424 0.960 . S
H1410 C1424 0.960 . S
H1411 C1424 0.960 . S
C1412 H1404 0.934 . S
C1412 C1413 1.377 . S
C1412 C1414 1.384 . S
C1413 C1412 1.377 . S
C1413 C1419 1.390 . S
C1414 H1405 0.930 1_455 S
C1414 C1412 1.384 . S
C1414 C1415 1.372 . S
C1415 C1414 1.372 . S
C1415 C1416 1.400 . S
C1415 C1420 1.490 . S
C1416 H1406 0.930 . S
C1416 C1415 1.400 . S
C1416 C1419 1.386 . S
H1417 C1433 0.930 . S
H1418 C1434 0.931 . S
C1419 H1407 0.929 . S
C1419 C1413 1.390 . S
C1419 C1416 1.386 . S
C1420 C1415 1.490 . S
C1420 C1422 1.395 1_455 S
C1420 C1423 1.403 . S
H1421 C1427 0.930 . S
C1422 H1408 0.930 . S
C1422 C1420 1.395 1_655 S
C1422 C1425 1.403 . S
C1423 C1420 1.403 . S
C1423 C1424 1.524 . S
C1423 C1427 1.400 . S
C1424 H1409 0.960 . S
C1424 H1410 0.960 . S
C1424 H1411 0.960 . S
C1424 C1423 1.524 . S
C1425 C1422 1.403 . S
C1425 C1426 1.392 1_655 S
C1425 C1429 1.495 . S
C1426 C1425 1.392 1_455 S
C1426 C1427 1.385 . S
C1426 C1428 1.478 . S
C1427 H1421 0.930 . S
C1427 C1423 1.400 . S
C1427 C1426 1.385 . S
C1428 C1426 1.478 . S
C1428 C1430 1.381 1_455 S
C1428 C1434 1.383 . S
C1429 C1425 1.495 . S
C1429 H1435 0.959 . S
C1429 H1436 0.961 . S
C1429 H1437 0.960 . S
C1430 C1428 1.381 1_655 S
C1430 C1431 1.394 . S
C1430 H1438 0.930 . S
C1431 C1430 1.394 . S
C1431 C1432 1.383 1_655 S
C1431 H1439 0.929 . S
C1432 C1431 1.383 1_455 S
C1432 C1433 1.377 . S
C1433 H1417 0.930 . S
C1433 C1432 1.377 . S
C1433 C1434 1.379 . S
C1434 H1418 0.931 . S
C1434 C1428 1.383 . S
C1434 C1433 1.379 . S
H1435 C1429 0.959 . S
H1436 C1429 0.961 . S
H1437 C1429 0.960 . S
H1438 C1430 0.930 . S
H1439 C1431 0.929 . S
H1440 C1448 0.929 . S
H1441 C1450 0.930 . S
H1442 C1452 0.930 . S
H1443 C1455 0.929 . S
H1444 C1458 0.930 . S
H1445 C1460 0.960 . S
H1446 C1460 0.960 . S
H1447 C1460 0.960 . S
C1448 H1440 0.929 . S
C1448 C1449 1.377 . S
C1448 C1450 1.384 . S
C1449 C1448 1.377 . S
C1449 C1455 1.390 . S
C1450 H1441 0.930 . S
C1450 C1448 1.384 . S
C1450 C1451 1.372 . S
C1451 C1450 1.372 . S
C1451 C1452 1.400 . S
C1451 C1456 1.490 . S
C1452 H1442 0.930 . S
C1452 C1451 1.400 . S
C1452 C1455 1.386 . S
H1453 C1469 0.930 . S
H1454 C1470 0.931 . S
C1455 H1443 0.929 . S
C1455 C1449 1.390 . S
C1455 C1452 1.386 . S
C1456 C1451 1.490 . S
C1456 C1458 1.395 . S
C1456 C1459 1.403 . S
H1457 C1463 0.930 . S
C1458 H1444 0.930 . S
C1458 C1456 1.395 . S
C1458 C1461 1.403 . S
C1459 C1456 1.403 . S
C1459 C1460 1.524 . S
C1459 C1463 1.400 . S
C1460 H1445 0.960 . S
C1460 H1446 0.960 . S
C1460 H1447 0.960 . S
C1460 C1459 1.524 . S
C1461 C1458 1.403 . S
C1461 C1462 1.392 . S
C1461 C1465 1.495 . S
C1462 C1461 1.392 . S
C1462 C1463 1.385 . S
C1462 C1464 1.478 . S
C1463 H1457 0.930 . S
C1463 C1459 1.400 . S
C1463 C1462 1.385 . S
C1464 C1462 1.478 . S
C1464 C1466 1.381 . S
C1464 C1470 1.383 . S
C1465 C1461 1.495 . S
C1465 H1471 0.959 . S
C1465 H1472 0.961 . S
C1465 H1473 0.960 . S
C1466 C1464 1.381 . S
C1466 C1467 1.394 . S
C1466 H1474 0.930 . S
C1467 C1466 1.394 . S
C1467 C1468 1.383 . S
C1467 H1475 0.929 . S
C1468 C1467 1.383 . S
C1468 C1469 1.377 . S
C1469 H1453 0.930 . S
C1469 C1468 1.377 . S
C1469 C1470 1.379 . S
C1470 H1454 0.931 . S
C1470 C1464 1.383 . S
C1470 C1469 1.379 . S
H1471 C1465 0.959 . S
H1472 C1465 0.961 . S
H1473 C1465 0.960 . S
H1474 C1466 0.930 . S
H1475 C1467 0.929 . S
H1476 C1484 0.929 . S
H1477 C1486 0.930 . S
H1478 C1488 0.930 . S
H1479 C1491 0.929 . S
H1480 C1494 0.930 . S
H1481 C1496 0.960 . S
H1482 C1496 0.960 . S
H1483 C1496 0.960 . S
C1484 H1476 0.929 . S
C1484 C1485 1.377 . S
C1484 C1486 1.384 . S
C1485 C1484 1.377 . S
C1485 C1491 1.390 . S
C1486 H1477 0.930 . S
C1486 C1484 1.384 . S
C1486 C1487 1.372 . S
C1487 C1486 1.372 . S
C1487 C1488 1.400 . S
C1487 C1492 1.490 . S
C1488 H1478 0.930 . S
C1488 C1487 1.400 . S
C1488 C1491 1.386 . S
H1489 C1505 0.930 . S
H1490 C1506 0.931 . S
C1491 H1479 0.929 . S
C1491 C1485 1.390 . S
C1491 C1488 1.386 . S
C1492 C1487 1.490 . S
C1492 C1494 1.395 . S
C1492 C1495 1.403 . S
H1493 C1499 0.930 . S
C1494 H1480 0.930 . S
C1494 C1492 1.395 . S
C1494 C1497 1.403 . S
C1495 C1492 1.403 . S
C1495 C1496 1.524 . S
C1495 C1499 1.400 . S
C1496 H1481 0.960 . S
C1496 H1482 0.960 . S
C1496 H1483 0.960 . S
C1496 C1495 1.524 . S
C1497 C1494 1.403 . S
C1497 C1498 1.392 . S
C1497 C1501 1.495 . S
C1498 C1497 1.392 . S
C1498 C1499 1.385 . S
C1498 C1500 1.478 . S
C1499 H1493 0.930 . S
C1499 C1495 1.400 . S
C1499 C1498 1.385 . S
C1500 C1498 1.478 . S
C1500 C1502 1.381 . S
C1500 C1506 1.383 . S
C1501 C1497 1.495 . S
C1501 H1507 0.959 . S
C1501 H1508 0.961 . S
C1501 H1509 0.960 . S
C1502 C1500 1.381 . S
C1502 C1503 1.394 . S
C1502 H1510 0.930 . S
C1503 C1502 1.394 . S
C1503 C1504 1.383 . S
C1503 H1511 0.929 . S
C1504 C1503 1.383 . S
C1504 C1505 1.377 . S
C1505 H1489 0.930 . S
C1505 C1504 1.377 . S
C1505 C1506 1.379 . S
C1506 H1490 0.931 . S
C1506 C1500 1.383 . S
C1506 C1505 1.379 . S
H1507 C1501 0.959 . S
H1508 C1501 0.961 . S
H1509 C1501 0.960 . S
H1510 C1502 0.930 . S
H1511 C1503 0.929 . S
H1512 C1520 0.929 . S
H1513 C1522 0.930 . S
H1514 C1524 0.930 . S
H1515 C1527 0.929 . S
H1516 C1530 0.930 . S
H1517 C1532 0.960 . S
H1518 C1532 0.960 . S
H1519 C1532 0.960 . S
C1520 H1512 0.929 . S
C1520 C1521 1.377 . S
C1520 C1522 1.384 . S
C1521 C1520 1.377 . S
C1521 C1527 1.390 . S
C1522 H1513 0.930 . S
C1522 C1520 1.384 . S
C1522 C1523 1.372 . S
C1523 C1522 1.372 . S
C1523 C1524 1.400 . S
C1523 C1528 1.490 . S
C1524 H1514 0.930 . S
C1524 C1523 1.400 . S
C1524 C1527 1.386 . S
H1525 C1541 0.930 . S
H1526 C1542 0.931 . S
C1527 H1515 0.929 . S
C1527 C1521 1.390 . S
C1527 C1524 1.386 . S
C1528 C1523 1.490 . S
C1528 C1530 1.395 . S
C1528 C1531 1.403 . S
H1529 C1535 0.930 . S
C1530 H1516 0.930 . S
C1530 C1528 1.395 . S
C1530 C1533 1.403 . S
C1531 C1528 1.403 . S
C1531 C1532 1.524 . S
C1531 C1535 1.400 . S
C1532 H1517 0.960 . S
C1532 H1518 0.960 . S
C1532 H1519 0.960 . S
C1532 C1531 1.524 . S
C1533 C1530 1.403 . S
C1533 C1534 1.392 . S
C1533 C1537 1.495 . S
C1534 C1533 1.392 . S
C1534 C1535 1.385 . S
C1534 C1536 1.478 . S
C1535 H1529 0.930 . S
C1535 C1531 1.400 . S
C1535 C1534 1.385 . S
C1536 C1534 1.478 . S
C1536 C1538 1.381 . S
C1536 C1542 1.383 . S
C1537 C1533 1.495 . S
C1537 H1543 0.959 . S
C1537 H1544 0.961 . S
C1537 H1545 0.960 . S
C1538 C1536 1.381 . S
C1538 C1539 1.394 . S
C1538 H1546 0.930 . S
C1539 C1538 1.394 . S
C1539 C1540 1.383 . S
C1539 H1547 0.929 . S
C1540 C1539 1.383 . S
C1540 C1541 1.377 . S
C1541 H1525 0.930 . S
C1541 C1540 1.377 . S
C1541 C1542 1.379 . S
C1542 H1526 0.931 . S
C1542 C1536 1.383 . S
C1542 C1541 1.379 . S
H1543 C1537 0.959 . S
H1544 C1537 0.961 . S
H1545 C1537 0.960 . S
H1546 C1538 0.930 . S
H1547 C1539 0.929 . S
C261 C8 2.233 . S
C280 C45 2.242 . S
C297 C17 2.199 . S
C316 C59 2.200 . S
C333 C73 2.165 . S
C352 C36 2.159 . S
C369 C92 2.227 . S
C388 C129 2.239 . S
C405 C101 2.195 . S
C424 C143 2.189 . S
C441 C157 2.159 1_455 S
C460 C120 2.144 . S
C477 C213 2.238 . S
C496 C176 2.205 . S
C513 C227 2.199 . S
C532 C185 2.185 . S
C549 C241 2.159 . S
C568 C204 2.147 . S
C585 C3 1.669 . S
C604 C134 1.667 . S
C621 C22 1.628 . S
C640 C148 1.611 . S
C657 C162 1.627 . S
C676 C31 1.622 . S
C693 C50 1.673 . S
C712 C171 1.642 . S
C729 C64 1.632 . S
C748 C190 1.646 . S
C765 C78 1.631 . S
C784 C199 1.597 . S
C801 C87 1.669 . S
C820 C218 1.692 . S
C837 C106 1.639 . S
C856 C232 1.623 . S
C873 C246 1.623 . S
C892 C115 1.625 . S
C909 C7 0.315 . S
C928 C63 0.307 . S
C945 C23 0.280 . S
C964 C77 0.358 . S
C981 C35 0.309 . S
C1000 C49 0.188 . S
C1017 C51 0.291 . S
C1036 C21 0.349 . S
C1053 C37 0.338 . S
C1072 C65 0.360 . S
C1089 C79 0.314 . S
C1108 C9 0.276 . S
C1125 C91 0.319 . S
C1144 C147 0.323 . S
C1161 C161 0.293 . S
C1180 C107 0.361 . S
C1197 C133 0.255 . S
C1216 C119 0.363 . S
C1233 C105 0.296 . S
C1252 C135 0.313 . S
C1269 C149 0.320 . S
C1288 C121 0.265 . S
C1305 C163 0.310 . S
C1324 C93 0.318 . S
C1341 C231 0.271 . S
C1360 C175 0.216 . S
C1377 C245 0.284 . S
C1396 C191 0.354 . S
C1413 C203 0.290 . S
C1432 C217 0.220 . S
C1449 C189 0.339 . S
C1468 C219 0.331 . S
C1485 C205 0.319 . S
C1504 C233 0.264 . S
C1521 C177 0.328 . S
C1540 C247 0.311 . S
