# Generated by pormake.
# Topology uoc, (4)-cn, num edge types: 1
# Building blocks:
#     Node 0, Type 0, BuildingBlock: ICAMEG_clean_sbu_1, # of connection points: 4
#     Node 1, Type 0, BuildingBlock: ICAMEG_clean_sbu_1, # of connection points: 4
#     Node 2, Type 0, BuildingBlock: ICAMEG_clean_sbu_1, # of connection points: 4
#     Node 3, Type 0, BuildingBlock: ICAMEG_clean_sbu_1, # of connection points: 4
#     Node 4, Type 0, BuildingBlock: ICAMEG_clean_sbu_1, # of connection points: 4
#     Node 5, Type 0, BuildingBlock: ICAMEG_clean_sbu_1, # of connection points: 4
#     Node 6, Type 0, BuildingBlock: ICAMEG_clean_sbu_1, # of connection points: 4
#     Node 7, Type 0, BuildingBlock: ICAMEG_clean_sbu_1, # of connection points: 4
#     Edge 8, Type (0, 0), BuildingBlock: KIFKEQ_clean_linker_1, # of connection points: 2
#     Edge 9, Type (0, 0), BuildingBlock: KIFKEQ_clean_linker_1, # of connection points: 2
#     Edge 10, Type (0, 0), BuildingBlock: KIFKEQ_clean_linker_1, # of connection points: 2
#     Edge 11, Type (0, 0), BuildingBlock: KIFKEQ_clean_linker_1, # of connection points: 2
#     Edge 12, Type (0, 0), BuildingBlock: KIFKEQ_clean_linker_1, # of connection points: 2
#     Edge 13, Type (0, 0), BuildingBlock: KIFKEQ_clean_linker_1, # of connection points: 2
#     Edge 14, Type (0, 0), BuildingBlock: KIFKEQ_clean_linker_1, # of connection points: 2
#     Edge 15, Type (0, 0), BuildingBlock: KIFKEQ_clean_linker_1, # of connection points: 2
#     Edge 16, Type (0, 0), BuildingBlock: KIFKEQ_clean_linker_1, # of connection points: 2
#     Edge 17, Type (0, 0), BuildingBlock: KIFKEQ_clean_linker_1, # of connection points: 2
#     Edge 18, Type (0, 0), BuildingBlock: KIFKEQ_clean_linker_1, # of connection points: 2
#     Edge 19, Type (0, 0), BuildingBlock: KIFKEQ_clean_linker_1, # of connection points: 2
#     Edge 20, Type (0, 0), BuildingBlock: KIFKEQ_clean_linker_1, # of connection points: 2
#     Edge 21, Type (0, 0), BuildingBlock: KIFKEQ_clean_linker_1, # of connection points: 2
#     Edge 22, Type (0, 0), BuildingBlock: KIFKEQ_clean_linker_1, # of connection points: 2
#     Edge 23, Type (0, 0), BuildingBlock: KIFKEQ_clean_linker_1, # of connection points: 2
# Relax obj value: 0.093
# Max RMSD: 0.101
# Mean RMSD: 0.101
data_MOF--net-uoc--node1-ICAMEG_clean_sbu_1--edge1-KIFKEQ_clean_linker_1
_symmetry_space_group_name_H-M    P1
_symmetry_Int_Tables_number       1
_symmetry_cell_setting            triclinic
loop_
_symmetry_equiv_pos_as_xyz
'x, y, z'
_cell_length_a     29.045606
_cell_length_b     28.918504
_cell_length_c     59.480741
_cell_angle_alpha  90.065391
_cell_angle_beta   90.036638
_cell_angle_gamma 100.14845
loop_
_atom_site_label
_atom_site_type_symbol
_atom_site_fract_x
_atom_site_fract_y
_atom_site_fract_z
_atom_type_partial_charge
Co0 Co 0.1538 0.2411 0.13903 0.0
Co1 Co 0.04841 0.2589 0.11796 0.0
O2 O 0.10476 0.27898 0.13579 0.0
C3 C 0.13181 0.26177 0.18634 0.0
O4 O 0.08786 0.24484 0.18171 0.0
C5 C 0.04393 0.34291 0.0902 0.0
O6 O 0.04509 0.31662 0.07226 0.0
O7 O 0.0877 0.25017 0.09121 0.0
O8 O 0.14593 0.21934 0.10693 0.0
H9 H 0.94748 0.15629 0.06233 0.0
H10 H 0.17308 0.34195 0.15162 0.0
O11 O 0.16295 0.26251 0.17118 0.0
H12 H 0.28868 0.32429 0.09296 0.0
H13 H 0.30889 0.20922 0.1669 0.0
H14 H 0.1654 0.14552 0.12476 0.0
H15 H 0.23152 0.2559 0.10561 0.0
H16 H 0.24683 0.25655 0.16173 0.0
O17 O 0.04874 0.32608 0.10969 0.0
H18 H 0.01787 0.18192 0.08546 0.0
H19 H 0.9584 0.29454 0.11194 0.0
H20 H 0.2267 0.09713 0.12939 0.0
H21 H 0.22994 0.41121 0.13962 0.0
H22 H 0.29909 0.12896 0.15059 0.0
H23 H 0.28824 0.40261 0.11007 0.0
O24 O 0.10727 0.1855 0.14853 0.0
H25 H 0.00636 0.34512 0.18622 0.0
H26 H 0.96568 0.2013 0.14062 0.0
H27 H 0.92013 0.21061 0.17474 0.0
H28 H 0.94029 0.28304 0.19779 0.0
H29 H 0.0514 0.33402 0.15213 0.0
H30 H 0.88746 0.27022 0.08903 0.0
H31 H 0.88165 0.20058 0.06402 0.0
O32 O 0.04614 0.19174 0.12637 0.0
C33 C 0.12254 0.22877 0.08984 0.0
C34 C 0.94959 0.18668 0.07317 0.0
C35 C 0.9159 0.25062 0.08815 0.0
N36 N 0.99228 0.23966 0.10005 0.0
C37 C 0.98935 0.20135 0.08631 0.0
C38 C 0.95618 0.26424 0.10107 0.0
C39 C 0.91267 0.21155 0.07412 0.0
C40 C 0.19854 0.33789 0.13885 0.0
N41 N 0.19915 0.2949 0.12942 0.0
C42 C 0.23055 0.37725 0.13208 0.0
C43 C 0.26323 0.37241 0.11548 0.0
C44 C 0.26348 0.32848 0.10587 0.0
C45 C 0.23094 0.28991 0.11306 0.0
C46 C 0.27755 0.195 0.15759 0.0
C47 C 0.19693 0.15973 0.13388 0.0
C48 C 0.24225 0.22159 0.15465 0.0
N49 N 0.20271 0.20394 0.1428 0.0
C50 C 0.23146 0.13211 0.13651 0.0
C51 C 0.27204 0.14997 0.14843 0.0
C52 C 0.0677 0.16867 0.13982 0.0
C53 C 0.99716 0.31343 0.1763 0.0
C54 C 0.97494 0.23269 0.15063 0.0
C55 C 0.94886 0.2379 0.16989 0.0
C56 C 0.96015 0.27856 0.1828 0.0
N57 N 0.01118 0.26705 0.14433 0.0
C58 C 0.02243 0.30702 0.15692 0.0
Co59 Co 0.74882 0.64686 0.38142 0.0
Co60 Co 0.75685 0.53686 0.40158 0.0
O61 O 0.78252 0.59412 0.38503 0.0
C62 C 0.77402 0.62561 0.33455 0.0
O63 O 0.76087 0.5809 0.33925 0.0
C64 C 0.85148 0.56158 0.42261 0.0
O65 O 0.84548 0.60511 0.42572 0.0
O66 O 0.74543 0.57484 0.42846 0.0
O67 O 0.72447 0.63902 0.41304 0.0
H68 H 0.63934 0.43628 0.45086 0.0
H69 H 0.84979 0.65968 0.37062 0.0
O70 O 0.77211 0.6566 0.34961 0.0
H71 H 0.83686 0.77435 0.43069 0.0
H72 H 0.73071 0.80813 0.35511 0.0
H73 H 0.65465 0.66438 0.39405 0.0
H74 H 0.76647 0.72285 0.416 0.0
H75 H 0.7724 0.7416 0.36031 0.0
O76 O 0.82 0.53187 0.41316 0.0
H77 H 0.6724 0.50746 0.4295 0.0
H78 H 0.78748 0.44472 0.40936 0.0
H79 H 0.61182 0.7302 0.38939 0.0
H80 H 0.92109 0.71075 0.38469 0.0
H81 H 0.64989 0.80274 0.36979 0.0
H82 H 0.91486 0.76853 0.41498 0.0
O83 O 0.6919 0.60423 0.37027 0.0
H84 H 0.85334 0.49437 0.33724 0.0
H85 H 0.70168 0.45625 0.37612 0.0
H86 H 0.71571 0.4116 0.34224 0.0
H87 H 0.79211 0.43053 0.32257 0.0
H88 H 0.83742 0.53859 0.37098 0.0
H89 H 0.75596 0.37309 0.4307 0.0
H90 H 0.68123 0.36846 0.45156 0.0
O91 O 0.69286 0.53856 0.39014 0.0
C92 C 0.72861 0.61269 0.42988 0.0
C93 C 0.67189 0.43784 0.44181 0.0
C94 C 0.73738 0.40241 0.43053 0.0
N95 N 0.73176 0.48022 0.41814 0.0
C96 C 0.69074 0.47802 0.42965 0.0
C97 C 0.75517 0.44315 0.41855 0.0
C98 C 0.69543 0.39982 0.44221 0.0
C99 C 0.84679 0.68501 0.38367 0.0
N100 N 0.80403 0.68846 0.39238 0.0
C101 C 0.88728 0.71372 0.39163 0.0
C102 C 0.88377 0.74609 0.40864 0.0
C103 C 0.84002 0.74935 0.41747 0.0
C104 C 0.8003 0.72003 0.40912 0.0
C105 C 0.71378 0.77675 0.36372 0.0
C106 C 0.67155 0.69594 0.38564 0.0
C107 C 0.73717 0.73893 0.36667 0.0
N108 N 0.71609 0.69929 0.37763 0.0
C109 C 0.64708 0.73304 0.38298 0.0
C110 C 0.66844 0.77371 0.37196 0.0
C111 C 0.67284 0.56348 0.37696 0.0
C112 C 0.81988 0.48582 0.34564 0.0
C113 C 0.73465 0.46512 0.36749 0.0
C114 C 0.74259 0.43949 0.3484 0.0
C115 C 0.7855 0.45006 0.3374 0.0
N116 N 0.76842 0.50032 0.37541 0.0
C117 C 0.8107 0.51065 0.3648 0.0
Co118 Co 0.34195 0.25878 0.63884 0.0
Co119 Co 0.44707 0.2409 0.61754 0.0
O120 O 0.39094 0.22089 0.63548 0.0
C121 C 0.36431 0.2382 0.68609 0.0
O122 O 0.40823 0.25515 0.68146 0.0
C123 C 0.45139 0.15657 0.58984 0.0
O124 O 0.45009 0.18264 0.57186 0.0
O125 O 0.40745 0.24947 0.59087 0.0
O126 O 0.34954 0.2805 0.60676 0.0
H127 H 0.54726 0.34316 0.56171 0.0
H128 H 0.32275 0.15796 0.65135 0.0
O129 O 0.33306 0.23743 0.67096 0.0
H130 H 0.20658 0.17556 0.5929 0.0
H131 H 0.18712 0.29075 0.66697 0.0
H132 H 0.33027 0.35439 0.62472 0.0
H133 H 0.26392 0.24395 0.60551 0.0
H134 H 0.24911 0.24339 0.66164 0.0
O135 O 0.44669 0.17363 0.6093 0.0
H136 H 0.47718 0.31766 0.58499 0.0
H137 H 0.53704 0.20528 0.61135 0.0
H138 H 0.26904 0.4028 0.62949 0.0
H139 H 0.26573 0.0887 0.63938 0.0
H140 H 0.19681 0.371 0.65075 0.0
H141 H 0.20715 0.09727 0.60994 0.0
O142 O 0.38861 0.31439 0.64831 0.0
H143 H 0.48995 0.15522 0.68575 0.0
H144 H 0.53008 0.29865 0.64002 0.0
H145 H 0.57606 0.28962 0.67406 0.0
H146 H 0.55617 0.21737 0.69717 0.0
H147 H 0.44448 0.16604 0.65175 0.0
H148 H 0.60768 0.22947 0.58829 0.0
H149 H 0.61313 0.29891 0.56326 0.0
O150 O 0.44939 0.30812 0.62596 0.0
C151 C 0.3727 0.27102 0.5896 0.0
C152 C 0.5453 0.31285 0.57255 0.0
C153 C 0.57922 0.24904 0.58747 0.0
N154 N 0.50298 0.26004 0.59952 0.0
C155 C 0.50571 0.29825 0.58578 0.0
C156 C 0.53911 0.2355 0.60047 0.0
C157 C 0.58225 0.288 0.57343 0.0
C158 C 0.29717 0.16201 0.63862 0.0
N159 N 0.2965 0.20498 0.62924 0.0
C160 C 0.26507 0.12265 0.63187 0.0
C161 C 0.23223 0.12747 0.61533 0.0
C162 C 0.23191 0.17138 0.60576 0.0
C163 C 0.26454 0.20996 0.61293 0.0
C164 C 0.21839 0.30496 0.65763 0.0
C165 C 0.29881 0.34018 0.63386 0.0
C166 C 0.25364 0.27835 0.6546 0.0
N167 N 0.29309 0.29598 0.64272 0.0
C168 C 0.26432 0.36782 0.63657 0.0
C169 C 0.22384 0.34997 0.64852 0.0
C170 C 0.42803 0.33123 0.6395 0.0
C171 C 0.49902 0.18682 0.6758 0.0
C172 C 0.52094 0.26735 0.65006 0.0
C173 C 0.54726 0.26229 0.66928 0.0
C174 C 0.53612 0.22173 0.68222 0.0
N175 N 0.48461 0.23295 0.64385 0.0
C176 C 0.47352 0.19307 0.65647 0.0
Co177 Co 0.74864 0.8533 0.88106 0.0
Co178 Co 0.73749 0.96133 0.90287 0.0
O179 O 0.7134 0.90485 0.8852 0.0
C180 C 0.72333 0.8759 0.83429 0.0
O181 O 0.73462 0.9206 0.83947 0.0
C182 C 0.64008 0.93267 0.92016 0.0
O183 O 0.64329 0.88811 0.91842 0.0
O184 O 0.7485 0.92189 0.92917 0.0
O185 O 0.77216 0.8599 0.91291 0.0
H186 H 0.85209 0.06042 0.95426 0.0
H187 H 0.64802 0.83763 0.8692 0.0
O188 O 0.72632 0.84463 0.84904 0.0
H189 H 0.66236 0.7213 0.92819 0.0
H190 H 0.77186 0.69479 0.85281 0.0
H191 H 0.84345 0.83782 0.8938 0.0
H192 H 0.73195 0.77573 0.91479 0.0
H193 H 0.72799 0.75947 0.85871 0.0
O194 O 0.67387 0.96455 0.91446 0.0
H195 H 0.82097 0.99038 0.93159 0.0
H196 H 0.70443 0.05169 0.9122 0.0
H197 H 0.88843 0.77385 0.88844 0.0
H198 H 0.57757 0.78348 0.88192 0.0
H199 H 0.85262 0.70168 0.86781 0.0
H200 H 0.5845 0.72489 0.91168 0.0
O201 O 0.80484 0.89779 0.87069 0.0
H202 H 0.64213 0.00717 0.83884 0.0
H203 H 0.7928 0.04374 0.87886 0.0
H204 H 0.77911 0.09059 0.84572 0.0
H205 H 0.70323 0.07245 0.82548 0.0
H206 H 0.65765 0.96081 0.87189 0.0
H207 H 0.73406 0.12216 0.93483 0.0
H208 H 0.80852 0.12693 0.95598 0.0
O209 O 0.80215 0.96153 0.89179 0.0
C210 C 0.76648 0.88473 0.93013 0.0
C211 C 0.81968 0.05881 0.94507 0.0
C212 C 0.7534 0.09344 0.93419 0.0
N213 N 0.76111 0.01705 0.92046 0.0
C214 C 0.80194 0.01929 0.93216 0.0
C215 C 0.73674 0.05337 0.92145 0.0
C216 C 0.79519 0.0961 0.94604 0.0
C217 C 0.65136 0.81191 0.882 0.0
N218 N 0.69404 0.80974 0.89118 0.0
C219 C 0.61133 0.78148 0.8892 0.0
C220 C 0.61523 0.74867 0.90592 0.0
C221 C 0.6589 0.74667 0.91521 0.0
C222 C 0.69816 0.7777 0.90761 0.0
C223 C 0.7878 0.72601 0.86187 0.0
C224 C 0.82752 0.8064 0.88494 0.0
C225 C 0.76317 0.76279 0.86522 0.0
N226 N 0.78302 0.80223 0.87674 0.0
C227 C 0.85321 0.77035 0.8819 0.0
C228 C 0.83311 0.7299 0.8703 0.0
C229 C 0.82307 0.93815 0.87823 0.0
C230 C 0.67534 0.01543 0.84752 0.0
C231 C 0.75996 0.03531 0.87003 0.0
C232 C 0.75226 0.06214 0.85134 0.0
C233 C 0.70965 0.052 0.84001 0.0
N234 N 0.72621 0.9994 0.87726 0.0
C235 C 0.68427 0.9894 0.86629 0.0
Co236 Co 0.65393 0.74446 0.62954 0.0
Co237 Co 0.54841 0.75768 0.60631 0.0
O238 O 0.60374 0.78091 0.62473 0.0
C239 C 0.62963 0.77149 0.67576 0.0
O240 O 0.58541 0.76031 0.67005 0.0
C241 C 0.57921 0.85671 0.5909 0.0
O242 O 0.62317 0.85269 0.59358 0.0
O243 O 0.58907 0.74688 0.58054 0.0
O244 O 0.64818 0.72019 0.59771 0.0
H245 H 0.45183 0.64498 0.55313 0.0
H246 H 0.67171 0.8457 0.64119 0.0
O247 O 0.6615 0.76748 0.66153 0.0
H248 H 0.78892 0.82745 0.58343 0.0
H249 H 0.80916 0.71796 0.65978 0.0
H250 H 0.66767 0.64829 0.61754 0.0
H251 H 0.73247 0.7589 0.59648 0.0
H252 H 0.74634 0.76355 0.65287 0.0
O253 O 0.54661 0.82235 0.59505 0.0
H254 H 0.52035 0.6748 0.57685 0.0
H255 H 0.45965 0.79228 0.59596 0.0
H256 H 0.72979 0.60159 0.62391 0.0
H257 H 0.72794 0.91511 0.62885 0.0
H258 H 0.80118 0.63643 0.64517 0.0
H259 H 0.78698 0.90623 0.5997 0.0
O260 O 0.60806 0.68917 0.63973 0.0
H261 H 0.49944 0.85213 0.67011 0.0
H262 H 0.4649 0.70184 0.62906 0.0
H263 H 0.41632 0.715 0.66161 0.0
H264 H 0.43342 0.79069 0.68236 0.0
H265 H 0.54752 0.83716 0.63765 0.0
H266 H 0.3907 0.76394 0.57229 0.0
H267 H 0.38639 0.68968 0.55074 0.0
O268 O 0.54687 0.69205 0.61712 0.0
C269 C 0.62501 0.72706 0.58012 0.0
C270 C 0.45324 0.67731 0.56249 0.0
C271 C 0.41896 0.74411 0.57322 0.0
N272 N 0.49387 0.73505 0.5879 0.0
C273 C 0.49189 0.69432 0.57599 0.0
C274 C 0.45815 0.76004 0.58655 0.0
C275 C 0.41655 0.70243 0.56114 0.0
C276 C 0.69761 0.84149 0.62868 0.0
N277 N 0.69885 0.7983 0.61961 0.0
C278 C 0.72922 0.88095 0.62168 0.0
C279 C 0.76228 0.87596 0.60529 0.0
C280 C 0.76335 0.83177 0.59614 0.0
C281 C 0.73116 0.79311 0.60353 0.0
C282 C 0.77828 0.70243 0.65044 0.0
C283 C 0.69877 0.66381 0.62667 0.0
C284 C 0.74255 0.72805 0.64651 0.0
N285 N 0.70356 0.70873 0.63464 0.0
C286 C 0.73376 0.63714 0.63029 0.0
C287 C 0.77378 0.65669 0.64224 0.0
C288 C 0.56859 0.67099 0.63138 0.0
C289 C 0.49159 0.81903 0.66119 0.0
C290 C 0.47284 0.73463 0.63811 0.0
C291 C 0.44505 0.74202 0.65646 0.0
C292 C 0.45461 0.78451 0.66808 0.0
N293 N 0.50912 0.7686 0.63148 0.0
C294 C 0.51858 0.81042 0.64274 0.0
Co295 Co 0.24026 0.14757 0.8895 0.0
Co296 Co 0.24489 0.03809 0.91077 0.0
O297 O 0.27189 0.09351 0.89323 0.0
C298 C 0.26093 0.12525 0.84213 0.0
O299 O 0.24036 0.0818 0.84599 0.0
C300 C 0.34324 0.0605 0.92717 0.0
O301 O 0.34134 0.10551 0.92683 0.0
O302 O 0.23805 0.07853 0.93731 0.0
O303 O 0.21569 0.14124 0.92117 0.0
H304 H 0.12766 0.94553 0.96302 0.0
H305 H 0.34102 0.15797 0.87837 0.0
O306 O 0.26429 0.15577 0.8578 0.0
H307 H 0.33159 0.27432 0.9381 0.0
H308 H 0.2273 0.30953 0.8622 0.0
H309 H 0.14711 0.16834 0.9018 0.0
H310 H 0.26015 0.22381 0.92389 0.0
H311 H 0.26668 0.24151 0.86787 0.0
O312 O 0.30808 0.03025 0.92138 0.0
H313 H 0.16205 0.01431 0.94033 0.0
H314 H 0.27157 0.94442 0.91923 0.0
H315 H 0.10656 0.23569 0.89664 0.0
H316 H 0.41329 0.20818 0.89191 0.0
H317 H 0.14671 0.30694 0.87672 0.0
H318 H 0.40884 0.26677 0.92204 0.0
O319 O 0.18245 0.10607 0.87859 0.0
H320 H 0.33146 0.98688 0.8448 0.0
H321 H 0.18349 0.95869 0.88721 0.0
H322 H 0.19166 0.91111 0.85353 0.0
H323 H 0.26616 0.92502 0.83208 0.0
H324 H 0.32151 0.034 0.87845 0.0
H325 H 0.23861 0.87508 0.94186 0.0
H326 H 0.16601 0.87527 0.96388 0.0
O327 O 0.18061 0.04266 0.90043 0.0
C328 C 0.22116 0.11636 0.93838 0.0
C329 C 0.15923 0.94497 0.95345 0.0
C330 C 0.22154 0.90546 0.9416 0.0
N331 N 0.21859 0.98329 0.92835 0.0
C332 C 0.17881 0.98377 0.94053 0.0
C333 C 0.24011 0.94489 0.92886 0.0
C334 C 0.1808 0.90558 0.95394 0.0
C335 C 0.33876 0.18371 0.89133 0.0
N336 N 0.29641 0.18803 0.90027 0.0
C337 C 0.37982 0.2119 0.899 0.0
C338 C 0.37731 0.2447 0.91593 0.0
C339 C 0.33398 0.24893 0.92496 0.0
C340 C 0.29366 0.22011 0.9169 0.0
C341 C 0.20948 0.27873 0.87096 0.0
C342 C 0.16493 0.19935 0.89325 0.0
C343 C 0.23157 0.24008 0.87419 0.0
N344 N 0.20936 0.20117 0.88534 0.0
C345 C 0.14173 0.23731 0.89032 0.0
C346 C 0.16427 0.27726 0.87911 0.0
C347 C 0.16173 0.06685 0.8864 0.0
C348 C 0.29884 0.98046 0.85401 0.0
C349 C 0.21581 0.96523 0.87789 0.0
C350 C 0.22035 0.93802 0.85887 0.0
C351 C 0.26217 0.9458 0.84686 0.0
N352 N 0.25189 0.99921 0.88478 0.0
C353 C 0.29303 0.00695 0.87311 0.0
Co354 Co 0.84246 0.75492 0.12983 0.0
Co355 Co 0.94814 0.74195 0.10667 0.0
O356 O 0.8929 0.71875 0.1251 0.0
C357 C 0.86739 0.729 0.1761 0.0
O358 O 0.91153 0.74017 0.17028 0.0
C359 C 0.91719 0.64314 0.09106 0.0
O360 O 0.87326 0.6475 0.09349 0.0
O361 O 0.9074 0.75247 0.08088 0.0
O362 O 0.8478 0.77854 0.09793 0.0
H363 H 0.04442 0.8544 0.05348 0.0
H364 H 0.82557 0.65391 0.14178 0.0
O365 O 0.83531 0.73256 0.16189 0.0
H366 H 0.70759 0.67011 0.08403 0.0
H367 H 0.68707 0.78087 0.16002 0.0
H368 H 0.82796 0.85064 0.11753 0.0
H369 H 0.76364 0.73927 0.09687 0.0
H370 H 0.75026 0.73566 0.15324 0.0
O371 O 0.94993 0.67724 0.09545 0.0
H372 H 0.976 0.82465 0.0772 0.0
H373 H 0.03691 0.7074 0.09635 0.0
H374 H 0.76547 0.89696 0.12376 0.0
H375 H 0.76977 0.5839 0.12965 0.0
H376 H 0.69439 0.86207 0.14514 0.0
H377 H 0.71035 0.59175 0.1005 0.0
O378 O 0.88808 0.81066 0.13982 0.0
H379 H 0.99754 0.64804 0.1705 0.0
H380 H 0.03157 0.79813 0.12945 0.0
H381 H 0.08029 0.7853 0.16201 0.0
H382 H 0.06345 0.70971 0.18276 0.0
H383 H 0.94932 0.66268 0.13802 0.0
H384 H 0.10578 0.73567 0.07268 0.0
H385 H 0.10993 0.80979 0.05111 0.0
O386 O 0.94957 0.80761 0.11745 0.0
C387 C 0.87115 0.77178 0.08038 0.0
C388 C 0.04309 0.82213 0.06285 0.0
C389 C 0.07749 0.75546 0.0736 0.0
N390 N 0.00259 0.76453 0.08827 0.0
C391 C 0.00449 0.80518 0.07635 0.0
C392 C 0.03834 0.73957 0.08694 0.0
C393 C 0.07981 0.79706 0.06151 0.0
C394 C 0.79949 0.65767 0.12927 0.0
N395 N 0.7978 0.70063 0.12009 0.0
C396 C 0.76813 0.61788 0.12239 0.0
C397 C 0.73486 0.62229 0.10601 0.0
C398 C 0.73333 0.66624 0.09674 0.0
C399 C 0.76528 0.70525 0.10401 0.0
C400 C 0.71782 0.79642 0.15063 0.0
C401 C 0.79699 0.8351 0.12671 0.0
C402 C 0.75375 0.77102 0.14677 0.0
N403 N 0.79257 0.79036 0.13483 0.0
C404 C 0.76179 0.86155 0.13025 0.0
C405 C 0.72194 0.84197 0.14227 0.0
C406 C 0.92762 0.8288 0.13157 0.0
C407 C 0.00528 0.6811 0.16158 0.0
C408 C 0.02375 0.76538 0.13849 0.0
C409 C 0.05161 0.75818 0.15686 0.0
C410 C 0.04219 0.71574 0.16847 0.0
N411 N 0.98753 0.73129 0.13185 0.0
C412 C 0.9782 0.68952 0.14311 0.0
Co413 Co 0.25671 0.3557 0.38967 0.0
Co414 Co 0.25295 0.4648 0.41103 0.0
O415 O 0.22539 0.40985 0.39334 0.0
C416 C 0.23539 0.37695 0.34226 0.0
O417 O 0.25649 0.42034 0.34588 0.0
C418 C 0.15581 0.44665 0.42945 0.0
O419 O 0.15954 0.40311 0.43419 0.0
O420 O 0.25757 0.42393 0.43764 0.0
O421 O 0.28203 0.36255 0.42125 0.0
H422 H 0.3687 0.55485 0.46493 0.0
H423 H 0.15559 0.3464 0.37964 0.0
O424 O 0.23182 0.34686 0.3581 0.0
H425 H 0.16663 0.22965 0.43887 0.0
H426 H 0.26898 0.19326 0.36264 0.0
H427 H 0.35012 0.33511 0.40161 0.0
H428 H 0.23777 0.27937 0.42396 0.0
H429 H 0.22972 0.26137 0.36837 0.0
O430 O 0.18954 0.47419 0.42038 0.0
H431 H 0.33424 0.48669 0.44177 0.0
H432 H 0.22824 0.55953 0.41897 0.0
H433 H 0.39055 0.26767 0.3964 0.0
H434 H 0.08354 0.29714 0.39395 0.0
H435 H 0.34991 0.19609 0.37679 0.0
H436 H 0.08882 0.23831 0.42381 0.0
O437 O 0.31415 0.39713 0.3784 0.0
H438 H 0.17193 0.5185 0.34379 0.0
H439 H 0.31738 0.54299 0.3883 0.0
H440 H 0.31243 0.59098 0.35448 0.0
H441 H 0.23922 0.57894 0.33197 0.0
H442 H 0.17867 0.47088 0.3776 0.0
H443 H 0.26131 0.62831 0.44204 0.0
H444 H 0.33217 0.62632 0.46516 0.0
O445 O 0.31741 0.45862 0.40165 0.0
C446 C 0.2753 0.38657 0.43861 0.0
C447 C 0.33789 0.55619 0.45488 0.0
C448 C 0.27758 0.59739 0.44206 0.0
N449 N 0.27944 0.5192 0.42892 0.0
C450 C 0.31827 0.51774 0.44169 0.0
C451 C 0.25892 0.55827 0.42908 0.0
C452 C 0.31735 0.59626 0.45502 0.0
C453 C 0.15816 0.32063 0.39252 0.0
N454 N 0.20082 0.3156 0.40087 0.0
C455 C 0.11725 0.29294 0.4006 0.0
C456 C 0.12024 0.25998 0.41738 0.0
C457 C 0.16388 0.25512 0.42584 0.0
C458 C 0.20404 0.28344 0.41736 0.0
C459 C 0.28701 0.2242 0.37126 0.0
C460 C 0.3321 0.30396 0.3932 0.0
C461 C 0.265 0.26291 0.37451 0.0
N462 N 0.28748 0.302 0.38549 0.0
C463 C 0.35522 0.26594 0.39023 0.0
C464 C 0.33242 0.22581 0.37921 0.0
C465 C 0.33553 0.43553 0.38684 0.0
C466 C 0.20402 0.52409 0.35345 0.0
C467 C 0.28562 0.53723 0.37851 0.0
C468 C 0.2829 0.56469 0.35942 0.0
C469 C 0.2418 0.55795 0.34681 0.0
N470 N 0.24847 0.504 0.3849 0.0
C471 C 0.20801 0.49731 0.37265 0.0
H472 H 0.11488 0.26903 0.04861 0.0
H473 H 0.16062 0.15137 0.08074 0.0
H474 H 0.13995 0.24317 0.01231 0.0
H475 H 0.1825 0.12327 0.04453 0.0
H476 H 0.25745 0.10287 0.97982 0.0
H477 H 0.23492 0.13151 0.01595 0.0
H478 H 0.12635 0.19178 0.98308 0.0
H479 H 0.15154 0.16602 0.94695 0.0
C480 C 0.12973 0.23723 0.04783 0.0
C481 C 0.13602 0.21244 0.06754 0.0
C482 C 0.14387 0.22202 0.02695 0.0
C483 C 0.16356 0.18086 0.02514 0.0
C484 C 0.16884 0.15573 0.045 0.0
C485 C 0.15585 0.17163 0.06587 0.0
C486 C 0.22882 0.12231 0.9804 0.0
C487 C 0.20638 0.13224 0.96054 0.0
C488 C 0.21549 0.13856 1.0012 0.0
C489 C 0.17844 0.16413 1.0028 0.0
C490 C 0.15567 0.17334 0.98278 0.0
C491 C 0.16984 0.15815 0.96195 0.0
H492 H 0.80811 0.5738 0.3019 0.0
H493 H 0.7747 0.71108 0.315 0.0
H494 H 0.83223 0.59855 0.26359 0.0
H495 H 0.79775 0.73519 0.27665 0.0
H496 H 0.78536 0.73147 0.19805 0.0
H497 H 0.76426 0.7064 0.2365 0.0
H498 H 0.89842 0.6642 0.24504 0.0
H499 H 0.9202 0.69032 0.20665 0.0
C500 C 0.80587 0.60917 0.2966 0.0
C501 C 0.78948 0.64047 0.31148 0.0
C502 C 0.81985 0.62335 0.27474 0.0
C503 C 0.81671 0.66872 0.26716 0.0
C504 C 0.80028 0.69994 0.28202 0.0
C505 C 0.78729 0.68615 0.30399 0.0
C506 C 0.8104 0.71684 0.2081 0.0
C507 C 0.85452 0.71299 0.19932 0.0
C508 C 0.79835 0.70268 0.23013 0.0
C509 C 0.82972 0.68341 0.24373 0.0
C510 C 0.87354 0.67878 0.23487 0.0
C511 C 0.88604 0.69392 0.21297 0.0
H512 H 0.38144 0.23212 0.54807 0.0
H513 H 0.33336 0.34783 0.58094 0.0
H514 H 0.35655 0.25871 0.5119 0.0
H515 H 0.31157 0.37661 0.54489 0.0
H516 H 0.23755 0.39803 0.47996 0.0
H517 H 0.25964 0.36848 0.51599 0.0
H518 H 0.37043 0.31145 0.48323 0.0
H519 H 0.34579 0.33812 0.44719 0.0
C520 C 0.36609 0.26362 0.54749 0.0
C521 C 0.35913 0.28766 0.56737 0.0
C522 C 0.35204 0.27926 0.52669 0.0
C523 C 0.33177 0.3201 0.52513 0.0
C524 C 0.32574 0.34443 0.54516 0.0
C525 C 0.33866 0.32812 0.56595 0.0
C526 C 0.26659 0.37913 0.48055 0.0
C527 C 0.28984 0.37036 0.46074 0.0
C528 C 0.27964 0.36235 0.50128 0.0
C529 C 0.31717 0.33739 0.50287 0.0
C530 C 0.34073 0.32938 0.48291 0.0
C531 C 0.32688 0.34511 0.46215 0.0
H532 H 0.68764 0.92723 0.80193 0.0
H533 H 0.72528 0.79145 0.81414 0.0
H534 H 0.66376 0.90259 0.76353 0.0
H535 H 0.70239 0.76745 0.77575 0.0
H536 H 0.71238 0.77054 0.69741 0.0
H537 H 0.73396 0.79628 0.73575 0.0
H538 H 0.59907 0.83661 0.74477 0.0
H539 H 0.57686 0.80991 0.70647 0.0
C540 C 0.69091 0.89224 0.79642 0.0
C541 C 0.70837 0.86131 0.81109 0.0
C542 C 0.67705 0.8781 0.7745 0.0
C543 C 0.68136 0.83317 0.76666 0.0
C544 C 0.69896 0.80238 0.7813 0.0
C545 C 0.71186 0.81609 0.80331 0.0
C546 C 0.68728 0.78493 0.70753 0.0
C547 C 0.64283 0.78805 0.69891 0.0
C548 C 0.69962 0.79948 0.72951 0.0
C549 C 0.66818 0.8184 0.74322 0.0
C550 C 0.62404 0.82235 0.73451 0.0
C551 C 0.61129 0.80685 0.71265 0.0
H552 H 0.18063 0.2937 0.33017 0.0
H553 H 0.24975 0.42616 0.30276 0.0
H554 H 0.15429 0.26745 0.29257 0.0
H555 H 0.22328 0.39975 0.26511 0.0
H556 H 0.21688 0.30995 0.20002 0.0
H557 H 0.23984 0.33932 0.23759 0.0
H558 H 0.10089 0.28502 0.26197 0.0
H559 H 0.07775 0.25555 0.22436 0.0
C560 C 0.19002 0.31735 0.31615 0.0
C561 C 0.21746 0.36203 0.31951 0.0
C562 C 0.17469 0.30235 0.2946 0.0
C563 C 0.18678 0.33144 0.27583 0.0
C564 C 0.21378 0.37631 0.2792 0.0
C565 C 0.22872 0.39154 0.3008 0.0
C566 C 0.19114 0.30429 0.21336 0.0
C567 C 0.14548 0.2802 0.20916 0.0
C568 C 0.20426 0.32143 0.23488 0.0
C569 C 0.17221 0.31453 0.25278 0.0
C570 C 0.12652 0.29055 0.24858 0.0
C571 C 0.11322 0.27382 0.227 0.0
H572 H 0.61658 0.76397 0.53832 0.0
H573 H 0.66783 0.65174 0.5725 0.0
H574 H 0.64281 0.73702 0.50259 0.0
H575 H 0.69091 0.62221 0.53673 0.0
H576 H 0.76514 0.60024 0.47145 0.0
H577 H 0.74175 0.62887 0.5075 0.0
H578 H 0.63029 0.68408 0.47431 0.0
H579 H 0.65633 0.65858 0.43835 0.0
C580 C 0.63293 0.73306 0.53812 0.0
C581 C 0.64021 0.71009 0.55824 0.0
C582 C 0.6477 0.71715 0.51753 0.0
C583 C 0.66902 0.67692 0.51637 0.0
C584 C 0.67575 0.6538 0.53666 0.0
C585 C 0.66212 0.67051 0.55729 0.0
C586 C 0.73564 0.61852 0.47198 0.0
C587 C 0.71274 0.62733 0.45207 0.0
C588 C 0.72186 0.63479 0.49273 0.0
C589 C 0.68392 0.65925 0.49419 0.0
C590 C 0.66042 0.66679 0.47414 0.0
C591 C 0.67504 0.65168 0.45339 0.0
H592 H 0.41844 0.24486 0.72414 0.0
H593 H 0.2794 0.1898 0.69974 0.0
H594 H 0.39539 0.21574 0.76177 0.0
H595 H 0.25652 0.16079 0.73733 0.0
H596 H 0.24674 0.07514 0.8028 0.0
H597 H 0.27325 0.10084 0.76509 0.0
H598 H 0.34179 0.23385 0.79217 0.0
H599 H 0.31542 0.20834 0.82981 0.0
C600 C 0.38302 0.2265 0.72677 0.0
C601 C 0.35075 0.21987 0.70891 0.0
C602 C 0.36977 0.20998 0.74836 0.0
C603 C 0.32412 0.18595 0.75255 0.0
C604 C 0.29208 0.17873 0.73462 0.0
C605 C 0.30514 0.19567 0.7131 0.0
C606 C 0.26767 0.10977 0.80073 0.0
C607 C 0.27879 0.1397 0.81934 0.0
C608 C 0.28264 0.12457 0.7791 0.0
C609 C 0.30954 0.16943 0.77562 0.0
C610 C 0.32148 0.19895 0.7943 0.0
C611 C 0.30611 0.18437 0.81587 0.0
H612 H 0.88028 0.73467 0.03865 0.0
H613 H 0.82713 0.84615 0.0726 0.0
H614 H 0.85361 0.76078 1.00283 0.0
H615 H 0.80359 0.87486 0.03677 0.0
H616 H 0.72901 0.89541 0.97163 0.0
H617 H 0.75256 0.86682 1.00759 0.0
H618 H 0.86528 0.81361 0.97447 0.0
H619 H 0.83911 0.83908 0.93852 0.0
C620 C 0.86341 0.76523 0.03838 0.0
C621 C 0.85571 0.78823 0.05846 0.0
C622 C 0.84837 0.78064 0.01774 0.0
C623 C 0.82635 0.82039 0.01651 0.0
C624 C 0.81926 0.84358 0.03676 0.0
C625 C 0.83316 0.82735 0.05743 0.0
C626 C 0.75878 0.87753 0.97213 0.0
C627 C 0.78206 0.86936 0.95224 0.0
C628 C 0.77267 0.86131 0.99284 0.0
C629 C 0.8111 0.83757 0.99432 0.0
C630 C 0.83483 0.83042 0.97428 0.0
C631 C 0.82012 0.84549 0.95354 0.0
H632 H 0.10844 0.09901 0.15869 0.0
H633 H 0.97831 0.12582 0.13059 0.0
H634 H 0.07454 0.01548 0.16166 0.0
H635 H 0.94476 0.04328 0.13399 0.0
H636 H 0.01614 0.87446 0.12239 0.0
H637 H 0.04985 0.95577 0.13003 0.0
H638 H 0.9215 0.97606 0.16198 0.0
H639 H 0.88747 0.8938 0.1547 0.0
C640 C 0.07245 0.08741 0.1536 0.0
C641 C 0.04621 0.11921 0.14434 0.0
C642 C 0.05312 0.03965 0.15527 0.0
C643 C 0.00701 0.02305 0.14811 0.0
C644 C 0.98013 0.05517 0.13994 0.0
C645 C -0.00042 0.10257 0.13791 0.0
C646 C 0.99521 0.89572 0.13147 0.0
C647 C 0.94897 0.87741 0.13792 0.0
C648 C 0.01477 0.94236 0.13595 0.0
C649 C 0.98837 0.9721 0.14667 0.0
C650 C 0.94258 0.95374 0.15368 0.0
C651 C 0.92315 0.90671 0.1495 0.0
H652 H 0.13761 0.53296 0.41859 0.0
H653 H 0.07458 0.40153 0.44927 0.0
H654 H 0.06466 0.56162 0.4219 0.0
H655 H 0.00114 0.43118 0.45328 0.0
H656 H 0.8691 0.47243 0.42141 0.0
H657 H 0.94233 0.44607 0.4277 0.0
H658 H 0.00742 0.58755 0.44542 0.0
H659 H 0.93346 0.61461 0.43831 0.0
C660 C 0.10834 0.51032 0.42641 0.0
C661 C 0.11184 0.46459 0.43344 0.0
C662 C 0.06647 0.52712 0.42853 0.0
C663 C 0.02691 0.4988 0.43784 0.0
C664 C 0.03084 0.4537 0.44574 0.0
C665 C 0.07288 0.4367 0.44351 0.0
C666 C 0.89878 0.49811 0.42681 0.0
C667 C 0.89551 0.54589 0.42902 0.0
C668 C 0.94084 0.48272 0.4307 0.0
C669 C 0.98092 0.51461 0.43701 0.0
C670 C 0.97728 0.56215 0.44027 0.0
C671 C 0.93493 0.57767 0.4363 0.0
H672 H 0.38748 0.401 0.65845 0.0
H673 H 0.51734 0.37403 0.63015 0.0
H674 H 0.42145 0.48455 0.66142 0.0
H675 H 0.55098 0.45657 0.63359 0.0
H676 H 0.48001 0.62544 0.62211 0.0
H677 H 0.44616 0.54419 0.62971 0.0
H678 H 0.57438 0.5238 0.66179 0.0
H679 H 0.60854 0.60602 0.65458 0.0
C680 C 0.42343 0.41256 0.65331 0.0
C681 C 0.44957 0.38071 0.64401 0.0
C682 C 0.4428 0.46033 0.655 0.0
C683 C 0.48887 0.47687 0.6478 0.0
C684 C 0.51565 0.44471 0.63957 0.0
C685 C 0.49615 0.39731 0.63752 0.0
C686 C 0.50088 0.60418 0.63122 0.0
C687 C 0.54712 0.62245 0.63773 0.0
C688 C 0.48124 0.55757 0.63567 0.0
C689 C 0.50757 0.52782 0.64641 0.0
C690 C 0.55336 0.54613 0.65348 0.0
C691 C 0.57285 0.59315 0.64935 0.0
H692 H 0.55042 0.88533 0.91478 0.0
H693 H 0.63092 0.0144 0.94044 0.0
H694 H 0.47861 0.91697 0.92022 0.0
H695 H 0.55945 0.04538 0.94678 0.0
H696 H 0.4328 0.10816 0.92234 0.0
H697 H 0.50447 0.07526 0.92433 0.0
H698 H 0.42437 0.94173 0.94515 0.0
H699 H 0.35285 0.97422 0.94227 0.0
C700 C 0.55258 0.91992 0.92215 0.0
C701 C 0.59612 0.94757 0.92697 0.0
C702 C 0.51147 0.93815 0.92533 0.0
C703 C 0.51321 0.98411 0.93369 0.0
C704 C 0.55679 0.01043 0.93977 0.0
C705 C 0.59774 0.99251 0.93631 0.0
C706 C 0.43075 0.07207 0.92772 0.0
C707 C 0.38732 0.04367 0.93195 0.0
C708 C 0.4718 0.05311 0.92892 0.0
C709 C 0.47024 0.00554 0.93469 0.0
C710 C 0.42686 0.97807 0.94014 0.0
C711 C 0.38589 0.99682 0.93865 0.0
H712 H 0.99562 0.62745 0.06985 0.0
H713 H 0.86939 0.55572 0.10161 0.0
H714 H 0.02484 0.55343 0.06728 0.0
H715 H 0.89915 0.48154 0.09934 0.0
H716 H 0.00713 0.38957 0.12362 0.0
H717 H 0.97181 0.45957 0.1204 0.0
H718 H 0.00534 0.4685 0.04969 0.0
H719 H 0.0403 0.39742 0.05272 0.0
C720 C 0.97376 0.59563 0.07589 0.0
C721 C 0.93031 0.59723 0.086 0.0
C722 C 0.99046 0.55333 0.07435 0.0
C723 C 0.9644 0.512 0.08327 0.0
C724 C 0.91999 0.51312 0.09247 0.0
C725 C 0.90283 0.55537 0.09361 0.0
C726 C 0.00741 0.40651 0.10737 0.0
C727 C 0.02681 0.38803 0.08842 0.0
C728 C 0.98659 0.44627 0.10551 0.0
C729 C 0.98532 0.46897 0.08475 0.0
C730 C 0.00571 0.4514 0.06587 0.0
C731 C 0.02584 0.41094 0.06763 0.0
H732 H 0.39317 0.39566 0.35877 0.0
H733 H 0.3878 0.51962 0.39883 0.0
H734 H 0.47459 0.4277 0.34903 0.0
H735 H 0.46755 0.55136 0.38868 0.0
H736 H 0.60622 0.61096 0.3602 0.0
H737 H 0.52248 0.58024 0.35604 0.0
H738 H 0.54587 0.44227 0.37511 0.0
H739 H 0.62831 0.47253 0.37971 0.0
C740 C 0.40889 0.42989 0.36518 0.0
C741 C 0.38381 0.45495 0.37959 0.0
C742 C 0.45531 0.44827 0.35951 0.0
C743 C 0.47702 0.49228 0.36787 0.0
C744 C 0.45139 0.51791 0.38156 0.0
C745 C 0.40559 0.49935 0.38751 0.0
C746 C 0.59362 0.57388 0.36297 0.0
C747 C 0.62402 0.54435 0.37048 0.0
C748 C 0.54577 0.55634 0.36058 0.0
C749 C 0.52784 0.50889 0.36527 0.0
C750 C 0.55876 0.47879 0.37109 0.0
C751 C 0.60618 0.49637 0.37385 0.0
H752 H 0.48814 0.11019 0.62336 0.0
H753 H 0.45519 0.10172 0.55242 0.0
H754 H 0.52357 0.04023 0.62026 0.0
H755 H 0.49026 0.03068 0.54951 0.0
H756 H 0.5007 0.87204 0.56958 0.0
H757 H 0.4711 0.94585 0.56702 0.0
H758 H 0.59632 0.01827 0.59943 0.0
H759 H 0.62646 0.94431 0.60169 0.0
C760 C 0.48792 0.09312 0.60713 0.0
C761 C 0.46856 0.11143 0.58812 0.0
C762 C 0.5088 0.05337 0.60534 0.0
C763 C 0.51017 0.03051 0.58461 0.0
C764 C 0.4898 0.0479 0.56568 0.0
C765 C 0.46961 0.08834 0.56736 0.0
C766 C 0.52237 0.90393 0.57571 0.0
C767 C 0.56582 0.90252 0.5859 0.0
C768 C 0.50546 0.94612 0.57418 0.0
C769 C 0.53127 0.98755 0.58319 0.0
C770 C 0.57566 0.98662 0.59249 0.0
C771 C 0.59303 0.94449 0.59363 0.0
H772 H 0.88958 0.89417 0.85875 0.0
H773 H 0.86768 0.02834 0.88475 0.0
H774 H 0.97298 0.926 0.8545 0.0
H775 H 0.95 0.05974 0.88017 0.0
H776 H 0.10126 0.11051 0.86187 0.0
H777 H 0.01904 0.07955 0.85318 0.0
H778 H 0.03082 0.94955 0.88643 0.0
H779 H 0.11151 0.98011 0.8955 0.0
C780 C 0.90217 0.93062 0.86303 0.0
C781 C 0.87189 0.95852 0.87226 0.0
C782 C 0.94984 0.9488 0.86059 0.0
C783 C 0.96783 0.99532 0.86701 0.0
C784 C 0.93705 0.024 0.87479 0.0
C785 C 0.88974 0.00575 0.87754 0.0
C786 C 0.08642 0.07511 0.86704 0.0
C787 C 0.11313 0.04789 0.87939 0.0
C788 C 0.03949 0.05742 0.86202 0.0
C789 C 0.01882 0.01199 0.86895 0.0
C790 C 0.04605 0.98426 0.88047 0.0
C791 C 0.09242 0.00209 0.88579 0.0
loop_
_geom_bond_atom_site_label_1
_geom_bond_atom_site_label_2
_geom_bond_distance
_geom_bond_site_symmetry_2
_ccdc_geom_bond_type
Co0 O2 2.143 . S
Co0 O8 2.074 . S
Co0 O11 2.093 . S
Co0 O24 2.097 . S
Co0 N41 2.151 . S
Co0 N49 2.214 . S
Co1 O2 2.160 . S
Co1 O7 2.058 . S
Co1 O17 2.057 . S
Co1 O32 2.037 . S
Co1 N36 2.145 . S
Co1 N57 2.257 . S
O2 Co0 2.143 . S
O2 Co1 2.160 . S
C3 O4 1.278 . S
C3 O11 1.224 . S
O4 C3 1.278 . S
C5 O6 1.245 . S
C5 O17 1.232 . S
O6 C5 1.245 . S
O7 Co1 2.058 . S
O7 C33 1.269 . S
O8 Co0 2.074 . S
O8 C33 1.257 . S
H9 C34 0.930 . S
H10 C40 0.930 . S
O11 Co0 2.093 . S
O11 C3 1.224 . S
H12 C44 0.929 . S
H13 C46 0.930 . S
H14 C47 0.930 . S
H15 C45 0.929 . S
H16 C48 0.928 . S
O17 Co1 2.057 . S
O17 C5 1.232 . S
H18 C37 0.929 . S
H19 C38 0.929 . S
H20 C50 0.931 . S
H21 C42 0.929 . S
H22 C51 0.930 . S
H23 C43 0.931 . S
O24 Co0 2.097 . S
O24 C52 1.214 . S
H25 C53 0.929 . S
H26 C54 0.929 . S
H27 C55 0.930 . S
H28 C56 0.929 . S
H29 C58 0.930 . S
H30 C35 0.930 . S
H31 C39 0.930 . S
O32 Co1 2.037 . S
O32 C52 1.234 . S
C33 O7 1.269 . S
C33 O8 1.257 . S
C34 H9 0.930 . S
C34 C37 1.388 1_655 S
C34 C39 1.418 . S
C35 H30 0.930 . S
C35 C38 1.404 . S
C35 C39 1.353 . S
N36 Co1 2.145 . S
N36 C37 1.397 . S
N36 C38 1.334 1_455 S
C37 H18 0.929 . S
C37 C34 1.388 1_455 S
C37 N36 1.397 . S
C38 H19 0.929 . S
C38 C35 1.404 . S
C38 N36 1.334 1_655 S
C39 H31 0.930 . S
C39 C34 1.418 . S
C39 C35 1.353 . S
C40 H10 0.930 . S
C40 N41 1.330 . S
C40 C42 1.446 . S
N41 Co0 2.151 . S
N41 C40 1.330 . S
N41 C45 1.418 . S
C42 H21 0.929 . S
C42 C40 1.446 . S
C42 C43 1.332 . S
C43 H23 0.931 . S
C43 C42 1.332 . S
C43 C44 1.267 . S
C44 H12 0.929 . S
C44 C43 1.267 . S
C44 C45 1.251 . S
C45 H15 0.929 . S
C45 N41 1.418 . S
C45 C44 1.251 . S
C46 H13 0.930 . S
C46 C48 1.406 . S
C46 C51 1.261 . S
C47 H14 0.930 . S
C47 N49 1.325 . S
C47 C50 1.357 . S
C48 H16 0.928 . S
C48 C46 1.406 . S
C48 N49 1.261 . S
N49 Co0 2.214 . S
N49 C47 1.325 . S
N49 C48 1.261 . S
C50 H20 0.931 . S
C50 C47 1.357 . S
C50 C51 1.312 . S
C51 H22 0.930 . S
C51 C46 1.261 . S
C51 C50 1.312 . S
C52 O24 1.214 . S
C52 O32 1.234 . S
C53 H25 0.929 . S
C53 C56 1.391 1_455 S
C53 C58 1.391 . S
C54 H26 0.929 . S
C54 C55 1.390 . S
C54 N57 1.391 1_655 S
C55 H27 0.930 . S
C55 C54 1.390 . S
C55 C56 1.392 . S
C56 H28 0.929 . S
C56 C53 1.391 1_655 S
C56 C55 1.392 . S
N57 Co1 2.257 . S
N57 C54 1.391 1_455 S
N57 C58 1.388 . S
C58 H29 0.930 . S
C58 C53 1.391 . S
C58 N57 1.388 . S
Co59 O61 2.143 . S
Co59 O67 2.074 . S
Co59 O70 2.093 . S
Co59 O83 2.097 . S
Co59 N100 2.151 . S
Co59 N108 2.214 . S
Co60 O61 2.160 . S
Co60 O66 2.058 . S
Co60 O76 2.057 . S
Co60 O91 2.037 . S
Co60 N95 2.145 . S
Co60 N116 2.257 . S
O61 Co59 2.143 . S
O61 Co60 2.160 . S
C62 O63 1.278 . S
C62 O70 1.224 . S
O63 C62 1.278 . S
C64 O65 1.245 . S
C64 O76 1.232 . S
O65 C64 1.245 . S
O66 Co60 2.058 . S
O66 C92 1.269 . S
O67 Co59 2.074 . S
O67 C92 1.257 . S
H68 C93 0.930 . S
H69 C99 0.930 . S
O70 Co59 2.093 . S
O70 C62 1.224 . S
H71 C103 0.929 . S
H72 C105 0.930 . S
H73 C106 0.930 . S
H74 C104 0.929 . S
H75 C107 0.928 . S
O76 Co60 2.057 . S
O76 C64 1.232 . S
H77 C96 0.929 . S
H78 C97 0.929 . S
H79 C109 0.931 . S
H80 C101 0.929 . S
H81 C110 0.930 . S
H82 C102 0.931 . S
O83 Co59 2.097 . S
O83 C111 1.214 . S
H84 C112 0.929 . S
H85 C113 0.929 . S
H86 C114 0.930 . S
H87 C115 0.929 . S
H88 C117 0.930 . S
H89 C94 0.930 . S
H90 C98 0.930 . S
O91 Co60 2.037 . S
O91 C111 1.234 . S
C92 O66 1.269 . S
C92 O67 1.257 . S
C93 H68 0.930 . S
C93 C96 1.388 . S
C93 C98 1.418 . S
C94 H89 0.930 . S
C94 C97 1.404 . S
C94 C98 1.353 . S
N95 Co60 2.145 . S
N95 C96 1.397 . S
N95 C97 1.334 . S
C96 H77 0.929 . S
C96 C93 1.388 . S
C96 N95 1.397 . S
C97 H78 0.929 . S
C97 C94 1.404 . S
C97 N95 1.334 . S
C98 H90 0.930 . S
C98 C93 1.418 . S
C98 C94 1.353 . S
C99 H69 0.930 . S
C99 N100 1.330 . S
C99 C101 1.446 . S
N100 Co59 2.151 . S
N100 C99 1.330 . S
N100 C104 1.418 . S
C101 H80 0.929 . S
C101 C99 1.446 . S
C101 C102 1.332 . S
C102 H82 0.931 . S
C102 C101 1.332 . S
C102 C103 1.267 . S
C103 H71 0.929 . S
C103 C102 1.267 . S
C103 C104 1.251 . S
C104 H74 0.929 . S
C104 N100 1.418 . S
C104 C103 1.251 . S
C105 H72 0.930 . S
C105 C107 1.406 . S
C105 C110 1.261 . S
C106 H73 0.930 . S
C106 N108 1.325 . S
C106 C109 1.357 . S
C107 H75 0.928 . S
C107 C105 1.406 . S
C107 N108 1.261 . S
N108 Co59 2.214 . S
N108 C106 1.325 . S
N108 C107 1.261 . S
C109 H79 0.931 . S
C109 C106 1.357 . S
C109 C110 1.312 . S
C110 H81 0.930 . S
C110 C105 1.261 . S
C110 C109 1.312 . S
C111 O83 1.214 . S
C111 O91 1.234 . S
C112 H84 0.929 . S
C112 C115 1.391 . S
C112 C117 1.391 . S
C113 H85 0.929 . S
C113 C114 1.390 . S
C113 N116 1.391 . S
C114 H86 0.930 . S
C114 C113 1.390 . S
C114 C115 1.392 . S
C115 H87 0.929 . S
C115 C112 1.391 . S
C115 C114 1.392 . S
N116 Co60 2.257 . S
N116 C113 1.391 . S
N116 C117 1.388 . S
C117 H88 0.930 . S
C117 C112 1.391 . S
C117 N116 1.388 . S
Co118 O120 2.143 . S
Co118 O126 2.074 . S
Co118 O129 2.093 . S
Co118 O142 2.097 . S
Co118 N159 2.151 . S
Co118 N167 2.214 . S
Co119 O120 2.160 . S
Co119 O125 2.058 . S
Co119 O135 2.057 . S
Co119 O150 2.037 . S
Co119 N154 2.145 . S
Co119 N175 2.257 . S
O120 Co118 2.143 . S
O120 Co119 2.160 . S
C121 O122 1.278 . S
C121 O129 1.224 . S
O122 C121 1.278 . S
C123 O124 1.245 . S
C123 O135 1.232 . S
O124 C123 1.245 . S
O125 Co119 2.058 . S
O125 C151 1.269 . S
O126 Co118 2.074 . S
O126 C151 1.257 . S
H127 C152 0.930 . S
H128 C158 0.930 . S
O129 Co118 2.093 . S
O129 C121 1.224 . S
H130 C162 0.929 . S
H131 C164 0.930 . S
H132 C165 0.930 . S
H133 C163 0.929 . S
H134 C166 0.928 . S
O135 Co119 2.057 . S
O135 C123 1.232 . S
H136 C155 0.929 . S
H137 C156 0.929 . S
H138 C168 0.931 . S
H139 C160 0.929 . S
H140 C169 0.930 . S
H141 C161 0.931 . S
O142 Co118 2.097 . S
O142 C170 1.214 . S
H143 C171 0.929 . S
H144 C172 0.929 . S
H145 C173 0.930 . S
H146 C174 0.929 . S
H147 C176 0.930 . S
H148 C153 0.930 . S
H149 C157 0.930 . S
O150 Co119 2.037 . S
O150 C170 1.234 . S
C151 O125 1.269 . S
C151 O126 1.257 . S
C152 H127 0.930 . S
C152 C155 1.388 . S
C152 C157 1.418 . S
C153 H148 0.930 . S
C153 C156 1.404 . S
C153 C157 1.353 . S
N154 Co119 2.145 . S
N154 C155 1.397 . S
N154 C156 1.334 . S
C155 H136 0.929 . S
C155 C152 1.388 . S
C155 N154 1.397 . S
C156 H137 0.929 . S
C156 C153 1.404 . S
C156 N154 1.334 . S
C157 H149 0.930 . S
C157 C152 1.418 . S
C157 C153 1.353 . S
C158 H128 0.930 . S
C158 N159 1.330 . S
C158 C160 1.446 . S
N159 Co118 2.151 . S
N159 C158 1.330 . S
N159 C163 1.418 . S
C160 H139 0.929 . S
C160 C158 1.446 . S
C160 C161 1.332 . S
C161 H141 0.931 . S
C161 C160 1.332 . S
C161 C162 1.267 . S
C162 H130 0.929 . S
C162 C161 1.267 . S
C162 C163 1.251 . S
C163 H133 0.929 . S
C163 N159 1.418 . S
C163 C162 1.251 . S
C164 H131 0.930 . S
C164 C166 1.406 . S
C164 C169 1.261 . S
C165 H132 0.930 . S
C165 N167 1.325 . S
C165 C168 1.357 . S
C166 H134 0.928 . S
C166 C164 1.406 . S
C166 N167 1.261 . S
N167 Co118 2.214 . S
N167 C165 1.325 . S
N167 C166 1.261 . S
C168 H138 0.931 . S
C168 C165 1.357 . S
C168 C169 1.312 . S
C169 H140 0.930 . S
C169 C164 1.261 . S
C169 C168 1.312 . S
C170 O142 1.214 . S
C170 O150 1.234 . S
C171 H143 0.929 . S
C171 C174 1.391 . S
C171 C176 1.391 . S
C172 H144 0.929 . S
C172 C173 1.390 . S
C172 N175 1.391 . S
C173 H145 0.930 . S
C173 C172 1.390 . S
C173 C174 1.392 . S
C174 H146 0.929 . S
C174 C171 1.391 . S
C174 C173 1.392 . S
N175 Co119 2.257 . S
N175 C172 1.391 . S
N175 C176 1.388 . S
C176 H147 0.930 . S
C176 C171 1.391 . S
C176 N175 1.388 . S
Co177 O179 2.143 . S
Co177 O185 2.074 . S
Co177 O188 2.093 . S
Co177 O201 2.097 . S
Co177 N218 2.151 . S
Co177 N226 2.214 . S
Co178 O179 2.160 . S
Co178 O184 2.058 . S
Co178 O194 2.057 . S
Co178 O209 2.037 . S
Co178 N213 2.145 . S
Co178 N234 2.257 . S
O179 Co177 2.143 . S
O179 Co178 2.160 . S
C180 O181 1.278 . S
C180 O188 1.224 . S
O181 C180 1.278 . S
C182 O183 1.245 . S
C182 O194 1.232 . S
O183 C182 1.245 . S
O184 Co178 2.058 . S
O184 C210 1.269 . S
O185 Co177 2.074 . S
O185 C210 1.257 . S
H186 C211 0.930 . S
H187 C217 0.930 . S
O188 Co177 2.093 . S
O188 C180 1.224 . S
H189 C221 0.929 . S
H190 C223 0.930 . S
H191 C224 0.930 . S
H192 C222 0.929 . S
H193 C225 0.928 . S
O194 Co178 2.057 . S
O194 C182 1.232 . S
H195 C214 0.929 . S
H196 C215 0.929 . S
H197 C227 0.931 . S
H198 C219 0.929 . S
H199 C228 0.930 . S
H200 C220 0.931 . S
O201 Co177 2.097 . S
O201 C229 1.214 . S
H202 C230 0.929 . S
H203 C231 0.929 . S
H204 C232 0.930 . S
H205 C233 0.929 . S
H206 C235 0.930 . S
H207 C212 0.930 . S
H208 C216 0.930 . S
O209 Co178 2.037 . S
O209 C229 1.234 . S
C210 O184 1.269 . S
C210 O185 1.257 . S
C211 H186 0.930 . S
C211 C214 1.388 1_545 S
C211 C216 1.418 . S
C212 H207 0.930 . S
C212 C215 1.404 . S
C212 C216 1.353 . S
N213 Co178 2.145 . S
N213 C214 1.397 . S
N213 C215 1.334 1_565 S
C214 H195 0.929 . S
C214 C211 1.388 1_565 S
C214 N213 1.397 . S
C215 H196 0.929 . S
C215 C212 1.404 . S
C215 N213 1.334 1_545 S
C216 H208 0.930 . S
C216 C211 1.418 . S
C216 C212 1.353 . S
C217 H187 0.930 . S
C217 N218 1.330 . S
C217 C219 1.446 . S
N218 Co177 2.151 . S
N218 C217 1.330 . S
N218 C222 1.418 . S
C219 H198 0.929 . S
C219 C217 1.446 . S
C219 C220 1.332 . S
C220 H200 0.931 . S
C220 C219 1.332 . S
C220 C221 1.267 . S
C221 H189 0.929 . S
C221 C220 1.267 . S
C221 C222 1.251 . S
C222 H192 0.929 . S
C222 N218 1.418 . S
C222 C221 1.251 . S
C223 H190 0.930 . S
C223 C225 1.406 . S
C223 C228 1.261 . S
C224 H191 0.930 . S
C224 N226 1.325 . S
C224 C227 1.357 . S
C225 H193 0.928 . S
C225 C223 1.406 . S
C225 N226 1.261 . S
N226 Co177 2.214 . S
N226 C224 1.325 . S
N226 C225 1.261 . S
C227 H197 0.931 . S
C227 C224 1.357 . S
C227 C228 1.312 . S
C228 H199 0.930 . S
C228 C223 1.261 . S
C228 C227 1.312 . S
C229 O201 1.214 . S
C229 O209 1.234 . S
C230 H202 0.929 . S
C230 C233 1.391 1_565 S
C230 C235 1.391 . S
C231 H203 0.929 . S
C231 C232 1.390 . S
C231 N234 1.391 1_545 S
C232 H204 0.930 . S
C232 C231 1.390 . S
C232 C233 1.392 . S
C233 H205 0.929 . S
C233 C230 1.391 1_545 S
C233 C232 1.392 . S
N234 Co178 2.257 . S
N234 C231 1.391 1_565 S
N234 C235 1.388 . S
C235 H206 0.930 . S
C235 C230 1.391 . S
C235 N234 1.388 . S
Co236 O238 2.143 . S
Co236 O244 2.074 . S
Co236 O247 2.093 . S
Co236 O260 2.097 . S
Co236 N277 2.151 . S
Co236 N285 2.214 . S
Co237 O238 2.160 . S
Co237 O243 2.058 . S
Co237 O253 2.057 . S
Co237 O268 2.037 . S
Co237 N272 2.145 . S
Co237 N293 2.257 . S
O238 Co236 2.143 . S
O238 Co237 2.160 . S
C239 O240 1.278 . S
C239 O247 1.224 . S
O240 C239 1.278 . S
C241 O242 1.245 . S
C241 O253 1.232 . S
O242 C241 1.245 . S
O243 Co237 2.058 . S
O243 C269 1.269 . S
O244 Co236 2.074 . S
O244 C269 1.257 . S
H245 C270 0.930 . S
H246 C276 0.930 . S
O247 Co236 2.093 . S
O247 C239 1.224 . S
H248 C280 0.929 . S
H249 C282 0.930 . S
H250 C283 0.930 . S
H251 C281 0.929 . S
H252 C284 0.928 . S
O253 Co237 2.057 . S
O253 C241 1.232 . S
H254 C273 0.929 . S
H255 C274 0.929 . S
H256 C286 0.931 . S
H257 C278 0.929 . S
H258 C287 0.930 . S
H259 C279 0.931 . S
O260 Co236 2.097 . S
O260 C288 1.214 . S
H261 C289 0.929 . S
H262 C290 0.929 . S
H263 C291 0.930 . S
H264 C292 0.929 . S
H265 C294 0.930 . S
H266 C271 0.930 . S
H267 C275 0.930 . S
O268 Co237 2.037 . S
O268 C288 1.234 . S
C269 O243 1.269 . S
C269 O244 1.257 . S
C270 H245 0.930 . S
C270 C273 1.388 . S
C270 C275 1.418 . S
C271 H266 0.930 . S
C271 C274 1.404 . S
C271 C275 1.353 . S
N272 Co237 2.145 . S
N272 C273 1.397 . S
N272 C274 1.334 . S
C273 H254 0.929 . S
C273 C270 1.388 . S
C273 N272 1.397 . S
C274 H255 0.929 . S
C274 C271 1.404 . S
C274 N272 1.334 . S
C275 H267 0.930 . S
C275 C270 1.418 . S
C275 C271 1.353 . S
C276 H246 0.930 . S
C276 N277 1.330 . S
C276 C278 1.446 . S
N277 Co236 2.151 . S
N277 C276 1.330 . S
N277 C281 1.418 . S
C278 H257 0.929 . S
C278 C276 1.446 . S
C278 C279 1.332 . S
C279 H259 0.931 . S
C279 C278 1.332 . S
C279 C280 1.267 . S
C280 H248 0.929 . S
C280 C279 1.267 . S
C280 C281 1.251 . S
C281 H251 0.929 . S
C281 N277 1.418 . S
C281 C280 1.251 . S
C282 H249 0.930 . S
C282 C284 1.406 . S
C282 C287 1.261 . S
C283 H250 0.930 . S
C283 N285 1.325 . S
C283 C286 1.357 . S
C284 H252 0.928 . S
C284 C282 1.406 . S
C284 N285 1.261 . S
N285 Co236 2.214 . S
N285 C283 1.325 . S
N285 C284 1.261 . S
C286 H256 0.931 . S
C286 C283 1.357 . S
C286 C287 1.312 . S
C287 H258 0.930 . S
C287 C282 1.261 . S
C287 C286 1.312 . S
C288 O260 1.214 . S
C288 O268 1.234 . S
C289 H261 0.929 . S
C289 C292 1.391 . S
C289 C294 1.391 . S
C290 H262 0.929 . S
C290 C291 1.390 . S
C290 N293 1.391 . S
C291 H263 0.930 . S
C291 C290 1.390 . S
C291 C292 1.392 . S
C292 H264 0.929 . S
C292 C289 1.391 . S
C292 C291 1.392 . S
N293 Co237 2.257 . S
N293 C290 1.391 . S
N293 C294 1.388 . S
C294 H265 0.930 . S
C294 C289 1.391 . S
C294 N293 1.388 . S
Co295 O297 2.143 . S
Co295 O303 2.074 . S
Co295 O306 2.093 . S
Co295 O319 2.097 . S
Co295 N336 2.151 . S
Co295 N344 2.214 . S
Co296 O297 2.160 . S
Co296 O302 2.058 . S
Co296 O312 2.057 . S
Co296 O327 2.037 . S
Co296 N331 2.145 . S
Co296 N352 2.257 . S
O297 Co295 2.143 . S
O297 Co296 2.160 . S
C298 O299 1.278 . S
C298 O306 1.224 . S
O299 C298 1.278 . S
C300 O301 1.245 . S
C300 O312 1.232 . S
O301 C300 1.245 . S
O302 Co296 2.058 . S
O302 C328 1.269 . S
O303 Co295 2.074 . S
O303 C328 1.257 . S
H304 C329 0.930 . S
H305 C335 0.930 . S
O306 Co295 2.093 . S
O306 C298 1.224 . S
H307 C339 0.929 . S
H308 C341 0.930 . S
H309 C342 0.930 . S
H310 C340 0.929 . S
H311 C343 0.928 . S
O312 Co296 2.057 . S
O312 C300 1.232 . S
H313 C332 0.929 . S
H314 C333 0.929 . S
H315 C345 0.931 . S
H316 C337 0.929 . S
H317 C346 0.930 . S
H318 C338 0.931 . S
O319 Co295 2.097 . S
O319 C347 1.214 . S
H320 C348 0.929 . S
H321 C349 0.929 . S
H322 C350 0.930 . S
H323 C351 0.929 . S
H324 C353 0.930 . S
H325 C330 0.930 . S
H326 C334 0.930 . S
O327 Co296 2.037 . S
O327 C347 1.234 . S
C328 O302 1.269 . S
C328 O303 1.257 . S
C329 H304 0.930 . S
C329 C332 1.388 1_565 S
C329 C334 1.418 . S
C330 H325 0.930 . S
C330 C333 1.404 . S
C330 C334 1.353 . S
N331 Co296 2.145 . S
N331 C332 1.397 . S
N331 C333 1.334 1_545 S
C332 H313 0.929 . S
C332 C329 1.388 1_545 S
C332 N331 1.397 . S
C333 H314 0.929 . S
C333 C330 1.404 . S
C333 N331 1.334 1_565 S
C334 H326 0.930 . S
C334 C329 1.418 . S
C334 C330 1.353 . S
C335 H305 0.930 . S
C335 N336 1.330 . S
C335 C337 1.446 . S
N336 Co295 2.151 . S
N336 C335 1.330 . S
N336 C340 1.418 . S
C337 H316 0.929 . S
C337 C335 1.446 . S
C337 C338 1.332 . S
C338 H318 0.931 . S
C338 C337 1.332 . S
C338 C339 1.267 . S
C339 H307 0.929 . S
C339 C338 1.267 . S
C339 C340 1.251 . S
C340 H310 0.929 . S
C340 N336 1.418 . S
C340 C339 1.251 . S
C341 H308 0.930 . S
C341 C343 1.406 . S
C341 C346 1.261 . S
C342 H309 0.930 . S
C342 N344 1.325 . S
C342 C345 1.357 . S
C343 H311 0.928 . S
C343 C341 1.406 . S
C343 N344 1.261 . S
N344 Co295 2.214 . S
N344 C342 1.325 . S
N344 C343 1.261 . S
C345 H315 0.931 . S
C345 C342 1.357 . S
C345 C346 1.312 . S
C346 H317 0.930 . S
C346 C341 1.261 . S
C346 C345 1.312 . S
C347 O319 1.214 . S
C347 O327 1.234 . S
C348 H320 0.929 . S
C348 C351 1.391 1_545 S
C348 C353 1.391 . S
C349 H321 0.929 . S
C349 C350 1.390 . S
C349 N352 1.391 1_565 S
C350 H322 0.930 . S
C350 C349 1.390 . S
C350 C351 1.392 . S
C351 H323 0.929 . S
C351 C348 1.391 1_565 S
C351 C350 1.392 . S
N352 Co296 2.257 . S
N352 C349 1.391 1_545 S
N352 C353 1.388 . S
C353 H324 0.930 . S
C353 C348 1.391 . S
C353 N352 1.388 . S
Co354 O356 2.143 . S
Co354 O362 2.074 . S
Co354 O365 2.093 . S
Co354 O378 2.097 . S
Co354 N395 2.151 . S
Co354 N403 2.214 . S
Co355 O356 2.160 . S
Co355 O361 2.058 . S
Co355 O371 2.057 . S
Co355 O386 2.037 . S
Co355 N390 2.145 . S
Co355 N411 2.257 . S
O356 Co354 2.143 . S
O356 Co355 2.160 . S
C357 O358 1.278 . S
C357 O365 1.224 . S
O358 C357 1.278 . S
C359 O360 1.245 . S
C359 O371 1.232 . S
O360 C359 1.245 . S
O361 Co355 2.058 . S
O361 C387 1.269 . S
O362 Co354 2.074 . S
O362 C387 1.257 . S
H363 C388 0.930 . S
H364 C394 0.930 . S
O365 Co354 2.093 . S
O365 C357 1.224 . S
H366 C398 0.929 . S
H367 C400 0.930 . S
H368 C401 0.930 . S
H369 C399 0.929 . S
H370 C402 0.928 . S
O371 Co355 2.057 . S
O371 C359 1.232 . S
H372 C391 0.929 . S
H373 C392 0.929 . S
H374 C404 0.931 . S
H375 C396 0.929 . S
H376 C405 0.930 . S
H377 C397 0.931 . S
O378 Co354 2.097 . S
O378 C406 1.214 . S
H379 C407 0.929 . S
H380 C408 0.929 . S
H381 C409 0.930 . S
H382 C410 0.929 . S
H383 C412 0.930 . S
H384 C389 0.930 . S
H385 C393 0.930 . S
O386 Co355 2.037 . S
O386 C406 1.234 . S
C387 O361 1.269 . S
C387 O362 1.257 . S
C388 H363 0.930 . S
C388 C391 1.388 1_455 S
C388 C393 1.418 . S
C389 H384 0.930 . S
C389 C392 1.404 . S
C389 C393 1.353 . S
N390 Co355 2.145 . S
N390 C391 1.397 . S
N390 C392 1.334 1_655 S
C391 H372 0.929 . S
C391 C388 1.388 1_655 S
C391 N390 1.397 . S
C392 H373 0.929 . S
C392 C389 1.404 . S
C392 N390 1.334 1_455 S
C393 H385 0.930 . S
C393 C388 1.418 . S
C393 C389 1.353 . S
C394 H364 0.930 . S
C394 N395 1.330 . S
C394 C396 1.446 . S
N395 Co354 2.151 . S
N395 C394 1.330 . S
N395 C399 1.418 . S
C396 H375 0.929 . S
C396 C394 1.446 . S
C396 C397 1.332 . S
C397 H377 0.931 . S
C397 C396 1.332 . S
C397 C398 1.267 . S
C398 H366 0.929 . S
C398 C397 1.267 . S
C398 C399 1.251 . S
C399 H369 0.929 . S
C399 N395 1.418 . S
C399 C398 1.251 . S
C400 H367 0.930 . S
C400 C402 1.406 . S
C400 C405 1.261 . S
C401 H368 0.930 . S
C401 N403 1.325 . S
C401 C404 1.357 . S
C402 H370 0.928 . S
C402 C400 1.406 . S
C402 N403 1.261 . S
N403 Co354 2.214 . S
N403 C401 1.325 . S
N403 C402 1.261 . S
C404 H374 0.931 . S
C404 C401 1.357 . S
C404 C405 1.312 . S
C405 H376 0.930 . S
C405 C400 1.261 . S
C405 C404 1.312 . S
C406 O378 1.214 . S
C406 O386 1.234 . S
C407 H379 0.929 . S
C407 C410 1.391 1_655 S
C407 C412 1.391 . S
C408 H380 0.929 . S
C408 C409 1.390 . S
C408 N411 1.391 1_455 S
C409 H381 0.930 . S
C409 C408 1.390 . S
C409 C410 1.392 . S
C410 H382 0.929 . S
C410 C407 1.391 1_455 S
C410 C409 1.392 . S
N411 Co355 2.257 . S
N411 C408 1.391 1_655 S
N411 C412 1.388 . S
C412 H383 0.930 . S
C412 C407 1.391 . S
C412 N411 1.388 . S
Co413 O415 2.143 . S
Co413 O421 2.074 . S
Co413 O424 2.093 . S
Co413 O437 2.097 . S
Co413 N454 2.151 . S
Co413 N462 2.214 . S
Co414 O415 2.160 . S
Co414 O420 2.058 . S
Co414 O430 2.057 . S
Co414 O445 2.037 . S
Co414 N449 2.145 . S
Co414 N470 2.257 . S
O415 Co413 2.143 . S
O415 Co414 2.160 . S
C416 O417 1.278 . S
C416 O424 1.224 . S
O417 C416 1.278 . S
C418 O419 1.245 . S
C418 O430 1.232 . S
O419 C418 1.245 . S
O420 Co414 2.058 . S
O420 C446 1.269 . S
O421 Co413 2.074 . S
O421 C446 1.257 . S
H422 C447 0.930 . S
H423 C453 0.930 . S
O424 Co413 2.093 . S
O424 C416 1.224 . S
H425 C457 0.929 . S
H426 C459 0.930 . S
H427 C460 0.930 . S
H428 C458 0.929 . S
H429 C461 0.928 . S
O430 Co414 2.057 . S
O430 C418 1.232 . S
H431 C450 0.929 . S
H432 C451 0.929 . S
H433 C463 0.931 . S
H434 C455 0.929 . S
H435 C464 0.930 . S
H436 C456 0.931 . S
O437 Co413 2.097 . S
O437 C465 1.214 . S
H438 C466 0.929 . S
H439 C467 0.929 . S
H440 C468 0.930 . S
H441 C469 0.929 . S
H442 C471 0.930 . S
H443 C448 0.930 . S
H444 C452 0.930 . S
O445 Co414 2.037 . S
O445 C465 1.234 . S
C446 O420 1.269 . S
C446 O421 1.257 . S
C447 H422 0.930 . S
C447 C450 1.388 . S
C447 C452 1.418 . S
C448 H443 0.930 . S
C448 C451 1.404 . S
C448 C452 1.353 . S
N449 Co414 2.145 . S
N449 C450 1.397 . S
N449 C451 1.334 . S
C450 H431 0.929 . S
C450 C447 1.388 . S
C450 N449 1.397 . S
C451 H432 0.929 . S
C451 C448 1.404 . S
C451 N449 1.334 . S
C452 H444 0.930 . S
C452 C447 1.418 . S
C452 C448 1.353 . S
C453 H423 0.930 . S
C453 N454 1.330 . S
C453 C455 1.446 . S
N454 Co413 2.151 . S
N454 C453 1.330 . S
N454 C458 1.418 . S
C455 H434 0.929 . S
C455 C453 1.446 . S
C455 C456 1.332 . S
C456 H436 0.931 . S
C456 C455 1.332 . S
C456 C457 1.267 . S
C457 H425 0.929 . S
C457 C456 1.267 . S
C457 C458 1.251 . S
C458 H428 0.929 . S
C458 N454 1.418 . S
C458 C457 1.251 . S
C459 H426 0.930 . S
C459 C461 1.406 . S
C459 C464 1.261 . S
C460 H427 0.930 . S
C460 N462 1.325 . S
C460 C463 1.357 . S
C461 H429 0.928 . S
C461 C459 1.406 . S
C461 N462 1.261 . S
N462 Co413 2.214 . S
N462 C460 1.325 . S
N462 C461 1.261 . S
C463 H433 0.931 . S
C463 C460 1.357 . S
C463 C464 1.312 . S
C464 H435 0.930 . S
C464 C459 1.261 . S
C464 C463 1.312 . S
C465 O437 1.214 . S
C465 O445 1.234 . S
C466 H438 0.929 . S
C466 C469 1.391 . S
C466 C471 1.391 . S
C467 H439 0.929 . S
C467 C468 1.390 . S
C467 N470 1.391 . S
C468 H440 0.930 . S
C468 C467 1.390 . S
C468 C469 1.392 . S
C469 H441 0.929 . S
C469 C466 1.391 . S
C469 C468 1.392 . S
N470 Co414 2.257 . S
N470 C467 1.391 . S
N470 C471 1.388 . S
C471 H442 0.930 . S
C471 C466 1.391 . S
C471 N470 1.388 . S
H472 C480 0.950 . S
H473 C485 0.950 . S
H474 C482 0.950 . S
H475 C484 0.950 . S
H476 C486 0.950 . S
H477 C488 0.950 . S
H478 C490 0.950 . S
H479 C491 0.950 . S
C480 H472 0.950 . S
C480 C481 1.386 . S
C480 C482 1.391 . S
C481 C480 1.386 . S
C481 C485 1.393 . S
C482 H474 0.950 . S
C482 C480 1.391 . S
C482 C483 1.400 . S
C483 C482 1.400 . S
C483 C484 1.398 . S
C483 C489 1.491 1_554 S
C484 H475 0.950 . S
C484 C483 1.398 . S
C484 C485 1.391 . S
C485 H473 0.950 . S
C485 C481 1.393 . S
C485 C484 1.391 . S
C486 H476 0.950 . S
C486 C487 1.386 . S
C486 C488 1.391 . S
C487 C486 1.386 . S
C487 C491 1.393 . S
C488 H477 0.950 . S
C488 C486 1.391 . S
C488 C489 1.400 . S
C489 C483 1.491 1_556 S
C489 C488 1.400 . S
C489 C490 1.398 . S
C490 H478 0.950 . S
C490 C489 1.398 . S
C490 C491 1.391 . S
C491 H479 0.950 . S
C491 C487 1.393 . S
C491 C490 1.391 . S
H492 C500 0.950 . S
H493 C505 0.950 . S
H494 C502 0.950 . S
H495 C504 0.950 . S
H496 C506 0.950 . S
H497 C508 0.950 . S
H498 C510 0.950 . S
H499 C511 0.950 . S
C500 H492 0.950 . S
C500 C501 1.386 . S
C500 C502 1.391 . S
C501 C500 1.386 . S
C501 C505 1.393 . S
C502 H494 0.950 . S
C502 C500 1.391 . S
C502 C503 1.400 . S
C503 C502 1.400 . S
C503 C504 1.398 . S
C503 C509 1.491 . S
C504 H495 0.950 . S
C504 C503 1.398 . S
C504 C505 1.391 . S
C505 H493 0.950 . S
C505 C501 1.393 . S
C505 C504 1.391 . S
C506 H496 0.950 . S
C506 C507 1.386 . S
C506 C508 1.391 . S
C507 C506 1.386 . S
C507 C511 1.393 . S
C508 H497 0.950 . S
C508 C506 1.391 . S
C508 C509 1.400 . S
C509 C503 1.491 . S
C509 C508 1.400 . S
C509 C510 1.398 . S
C510 H498 0.950 . S
C510 C509 1.398 . S
C510 C511 1.391 . S
C511 H499 0.950 . S
C511 C507 1.393 . S
C511 C510 1.391 . S
H512 C520 0.950 . S
H513 C525 0.950 . S
H514 C522 0.950 . S
H515 C524 0.950 . S
H516 C526 0.950 . S
H517 C528 0.950 . S
H518 C530 0.950 . S
H519 C531 0.950 . S
C520 H512 0.950 . S
C520 C521 1.386 . S
C520 C522 1.391 . S
C521 C520 1.386 . S
C521 C525 1.393 . S
C522 H514 0.950 . S
C522 C520 1.391 . S
C522 C523 1.400 . S
C523 C522 1.400 . S
C523 C524 1.398 . S
C523 C529 1.491 . S
C524 H515 0.950 . S
C524 C523 1.398 . S
C524 C525 1.391 . S
C525 H513 0.950 . S
C525 C521 1.393 . S
C525 C524 1.391 . S
C526 H516 0.950 . S
C526 C527 1.386 . S
C526 C528 1.391 . S
C527 C526 1.386 . S
C527 C531 1.393 . S
C528 H517 0.950 . S
C528 C526 1.391 . S
C528 C529 1.400 . S
C529 C523 1.491 . S
C529 C528 1.400 . S
C529 C530 1.398 . S
C530 H518 0.950 . S
C530 C529 1.398 . S
C530 C531 1.391 . S
C531 H519 0.950 . S
C531 C527 1.393 . S
C531 C530 1.391 . S
H532 C540 0.950 . S
H533 C545 0.950 . S
H534 C542 0.950 . S
H535 C544 0.950 . S
H536 C546 0.950 . S
H537 C548 0.950 . S
H538 C550 0.950 . S
H539 C551 0.950 . S
C540 H532 0.950 . S
C540 C541 1.386 . S
C540 C542 1.391 . S
C541 C540 1.386 . S
C541 C545 1.393 . S
C542 H534 0.950 . S
C542 C540 1.391 . S
C542 C543 1.400 . S
C543 C542 1.400 . S
C543 C544 1.398 . S
C543 C549 1.491 . S
C544 H535 0.950 . S
C544 C543 1.398 . S
C544 C545 1.391 . S
C545 H533 0.950 . S
C545 C541 1.393 . S
C545 C544 1.391 . S
C546 H536 0.950 . S
C546 C547 1.386 . S
C546 C548 1.391 . S
C547 C546 1.386 . S
C547 C551 1.393 . S
C548 H537 0.950 . S
C548 C546 1.391 . S
C548 C549 1.400 . S
C549 C543 1.491 . S
C549 C548 1.400 . S
C549 C550 1.398 . S
C550 H538 0.950 . S
C550 C549 1.398 . S
C550 C551 1.391 . S
C551 H539 0.950 . S
C551 C547 1.393 . S
C551 C550 1.391 . S
H552 C560 0.950 . S
H553 C565 0.950 . S
H554 C562 0.950 . S
H555 C564 0.950 . S
H556 C566 0.950 . S
H557 C568 0.950 . S
H558 C570 0.950 . S
H559 C571 0.950 . S
C560 H552 0.950 . S
C560 C561 1.386 . S
C560 C562 1.391 . S
C561 C560 1.386 . S
C561 C565 1.393 . S
C562 H554 0.950 . S
C562 C560 1.391 . S
C562 C563 1.400 . S
C563 C562 1.400 . S
C563 C564 1.398 . S
C563 C569 1.491 . S
C564 H555 0.950 . S
C564 C563 1.398 . S
C564 C565 1.391 . S
C565 H553 0.950 . S
C565 C561 1.393 . S
C565 C564 1.391 . S
C566 H556 0.950 . S
C566 C567 1.386 . S
C566 C568 1.391 . S
C567 C566 1.386 . S
C567 C571 1.393 . S
C568 H557 0.950 . S
C568 C566 1.391 . S
C568 C569 1.400 . S
C569 C563 1.491 . S
C569 C568 1.400 . S
C569 C570 1.398 . S
C570 H558 0.950 . S
C570 C569 1.398 . S
C570 C571 1.391 . S
C571 H559 0.950 . S
C571 C567 1.393 . S
C571 C570 1.391 . S
H572 C580 0.950 . S
H573 C585 0.950 . S
H574 C582 0.950 . S
H575 C584 0.950 . S
H576 C586 0.950 . S
H577 C588 0.950 . S
H578 C590 0.950 . S
H579 C591 0.950 . S
C580 H572 0.950 . S
C580 C581 1.386 . S
C580 C582 1.391 . S
C581 C580 1.386 . S
C581 C585 1.393 . S
C582 H574 0.950 . S
C582 C580 1.391 . S
C582 C583 1.400 . S
C583 C582 1.400 . S
C583 C584 1.398 . S
C583 C589 1.491 . S
C584 H575 0.950 . S
C584 C583 1.398 . S
C584 C585 1.391 . S
C585 H573 0.950 . S
C585 C581 1.393 . S
C585 C584 1.391 . S
C586 H576 0.950 . S
C586 C587 1.386 . S
C586 C588 1.391 . S
C587 C586 1.386 . S
C587 C591 1.393 . S
C588 H577 0.950 . S
C588 C586 1.391 . S
C588 C589 1.400 . S
C589 C583 1.491 . S
C589 C588 1.400 . S
C589 C590 1.398 . S
C590 H578 0.950 . S
C590 C589 1.398 . S
C590 C591 1.391 . S
C591 H579 0.950 . S
C591 C587 1.393 . S
C591 C590 1.391 . S
H592 C600 0.950 . S
H593 C605 0.950 . S
H594 C602 0.950 . S
H595 C604 0.950 . S
H596 C606 0.950 . S
H597 C608 0.950 . S
H598 C610 0.950 . S
H599 C611 0.950 . S
C600 H592 0.950 . S
C600 C601 1.386 . S
C600 C602 1.391 . S
C601 C600 1.386 . S
C601 C605 1.393 . S
C602 H594 0.950 . S
C602 C600 1.391 . S
C602 C603 1.400 . S
C603 C602 1.400 . S
C603 C604 1.398 . S
C603 C609 1.491 . S
C604 H595 0.950 . S
C604 C603 1.398 . S
C604 C605 1.391 . S
C605 H593 0.950 . S
C605 C601 1.393 . S
C605 C604 1.391 . S
C606 H596 0.950 . S
C606 C607 1.386 . S
C606 C608 1.391 . S
C607 C606 1.386 . S
C607 C611 1.393 . S
C608 H597 0.950 . S
C608 C606 1.391 . S
C608 C609 1.400 . S
C609 C603 1.491 . S
C609 C608 1.400 . S
C609 C610 1.398 . S
C610 H598 0.950 . S
C610 C609 1.398 . S
C610 C611 1.391 . S
C611 H599 0.950 . S
C611 C607 1.393 . S
C611 C610 1.391 . S
H612 C620 0.950 . S
H613 C625 0.950 . S
H614 C622 0.950 . S
H615 C624 0.950 . S
H616 C626 0.950 . S
H617 C628 0.950 . S
H618 C630 0.950 . S
H619 C631 0.950 . S
C620 H612 0.950 . S
C620 C621 1.386 . S
C620 C622 1.391 . S
C621 C620 1.386 . S
C621 C625 1.393 . S
C622 H614 0.950 . S
C622 C620 1.391 . S
C622 C623 1.400 . S
C623 C622 1.400 . S
C623 C624 1.398 . S
C623 C629 1.491 1_554 S
C624 H615 0.950 . S
C624 C623 1.398 . S
C624 C625 1.391 . S
C625 H613 0.950 . S
C625 C621 1.393 . S
C625 C624 1.391 . S
C626 H616 0.950 . S
C626 C627 1.386 . S
C626 C628 1.391 . S
C627 C626 1.386 . S
C627 C631 1.393 . S
C628 H617 0.950 . S
C628 C626 1.391 . S
C628 C629 1.400 . S
C629 C623 1.491 1_556 S
C629 C628 1.400 . S
C629 C630 1.398 . S
C630 H618 0.950 . S
C630 C629 1.398 . S
C630 C631 1.391 . S
C631 H619 0.950 . S
C631 C627 1.393 . S
C631 C630 1.391 . S
H632 C640 0.950 . S
H633 C645 0.950 . S
H634 C642 0.950 . S
H635 C644 0.950 1_655 S
H636 C646 0.950 . S
H637 C648 0.950 . S
H638 C650 0.950 1_455 S
H639 C651 0.950 . S
C640 H632 0.950 . S
C640 C641 1.386 . S
C640 C642 1.391 . S
C641 C640 1.386 . S
C641 C645 1.393 . S
C642 H634 0.950 . S
C642 C640 1.391 . S
C642 C643 1.400 . S
C643 C642 1.400 . S
C643 C644 1.398 . S
C643 C649 1.491 1_445 S
C644 H635 0.950 1_455 S
C644 C643 1.398 . S
C644 C645 1.391 . S
C645 H633 0.950 . S
C645 C641 1.393 . S
C645 C644 1.391 . S
C646 H636 0.950 . S
C646 C647 1.386 . S
C646 C648 1.391 . S
C647 C646 1.386 . S
C647 C651 1.393 . S
C648 H637 0.950 . S
C648 C646 1.391 . S
C648 C649 1.400 . S
C649 C643 1.491 1_665 S
C649 C648 1.400 . S
C649 C650 1.398 . S
C650 H638 0.950 1_655 S
C650 C649 1.398 . S
C650 C651 1.391 . S
C651 H639 0.950 . S
C651 C647 1.393 . S
C651 C650 1.391 . S
H652 C660 0.950 . S
H653 C665 0.950 . S
H654 C662 0.950 . S
H655 C664 0.950 1_655 S
H656 C666 0.950 . S
H657 C668 0.950 . S
H658 C670 0.950 1_455 S
H659 C671 0.950 . S
C660 H652 0.950 . S
C660 C661 1.386 . S
C660 C662 1.391 . S
C661 C660 1.386 . S
C661 C665 1.393 . S
C662 H654 0.950 . S
C662 C660 1.391 . S
C662 C663 1.400 . S
C663 C662 1.400 . S
C663 C664 1.398 . S
C663 C669 1.491 1_455 S
C664 H655 0.950 1_455 S
C664 C663 1.398 . S
C664 C665 1.391 . S
C665 H653 0.950 . S
C665 C661 1.393 . S
C665 C664 1.391 . S
C666 H656 0.950 . S
C666 C667 1.386 . S
C666 C668 1.391 . S
C667 C666 1.386 . S
C667 C671 1.393 . S
C668 H657 0.950 . S
C668 C666 1.391 . S
C668 C669 1.400 . S
C669 C663 1.491 1_655 S
C669 C668 1.400 . S
C669 C670 1.398 . S
C670 H658 0.950 1_655 S
C670 C669 1.398 . S
C670 C671 1.391 . S
C671 H659 0.950 . S
C671 C667 1.393 . S
C671 C670 1.391 . S
H672 C680 0.950 . S
H673 C685 0.950 . S
H674 C682 0.950 . S
H675 C684 0.950 . S
H676 C686 0.950 . S
H677 C688 0.950 . S
H678 C690 0.950 . S
H679 C691 0.950 . S
C680 H672 0.950 . S
C680 C681 1.386 . S
C680 C682 1.391 . S
C681 C680 1.386 . S
C681 C685 1.393 . S
C682 H674 0.950 . S
C682 C680 1.391 . S
C682 C683 1.400 . S
C683 C682 1.400 . S
C683 C684 1.398 . S
C683 C689 1.491 . S
C684 H675 0.950 . S
C684 C683 1.398 . S
C684 C685 1.391 . S
C685 H673 0.950 . S
C685 C681 1.393 . S
C685 C684 1.391 . S
C686 H676 0.950 . S
C686 C687 1.386 . S
C686 C688 1.391 . S
C687 C686 1.386 . S
C687 C691 1.393 . S
C688 H677 0.950 . S
C688 C686 1.391 . S
C688 C689 1.400 . S
C689 C683 1.491 . S
C689 C688 1.400 . S
C689 C690 1.398 . S
C690 H678 0.950 . S
C690 C689 1.398 . S
C690 C691 1.391 . S
C691 H679 0.950 . S
C691 C687 1.393 . S
C691 C690 1.391 . S
H692 C700 0.950 . S
H693 C705 0.950 . S
H694 C702 0.950 . S
H695 C704 0.950 . S
H696 C706 0.950 . S
H697 C708 0.950 . S
H698 C710 0.950 . S
H699 C711 0.950 . S
C700 H692 0.950 . S
C700 C701 1.386 . S
C700 C702 1.391 . S
C701 C700 1.386 . S
C701 C705 1.393 . S
C702 H694 0.950 . S
C702 C700 1.391 . S
C702 C703 1.400 . S
C703 C702 1.400 . S
C703 C704 1.398 1_565 S
C703 C709 1.491 1_565 S
C704 H695 0.950 . S
C704 C703 1.398 1_545 S
C704 C705 1.391 1_545 S
C705 H693 0.950 . S
C705 C701 1.393 . S
C705 C704 1.391 1_565 S
C706 H696 0.950 . S
C706 C707 1.386 . S
C706 C708 1.391 . S
C707 C706 1.386 . S
C707 C711 1.393 . S
C708 H697 0.950 . S
C708 C706 1.391 . S
C708 C709 1.400 . S
C709 C703 1.491 1_545 S
C709 C708 1.400 . S
C709 C710 1.398 1_545 S
C710 H698 0.950 . S
C710 C709 1.398 1_565 S
C710 C711 1.391 1_565 S
C711 H699 0.950 . S
C711 C707 1.393 . S
C711 C710 1.391 1_545 S
H712 C720 0.950 . S
H713 C725 0.950 . S
H714 C722 0.950 1_455 S
H715 C724 0.950 . S
H716 C726 0.950 . S
H717 C728 0.950 1_655 S
H718 C730 0.950 . S
H719 C731 0.950 . S
C720 H712 0.950 . S
C720 C721 1.386 . S
C720 C722 1.391 . S
C721 C720 1.386 . S
C721 C725 1.393 . S
C722 H714 0.950 1_655 S
C722 C720 1.391 . S
C722 C723 1.400 . S
C723 C722 1.400 . S
C723 C724 1.398 . S
C723 C729 1.491 1_655 S
C724 H715 0.950 . S
C724 C723 1.398 . S
C724 C725 1.391 . S
C725 H713 0.950 . S
C725 C721 1.393 . S
C725 C724 1.391 . S
C726 H716 0.950 . S
C726 C727 1.386 . S
C726 C728 1.391 . S
C727 C726 1.386 . S
C727 C731 1.393 . S
C728 H717 0.950 1_455 S
C728 C726 1.391 . S
C728 C729 1.400 . S
C729 C723 1.491 1_455 S
C729 C728 1.400 . S
C729 C730 1.398 . S
C730 H718 0.950 . S
C730 C729 1.398 . S
C730 C731 1.391 . S
C731 H719 0.950 . S
C731 C727 1.393 . S
C731 C730 1.391 . S
H732 C740 0.950 . S
H733 C745 0.950 . S
H734 C742 0.950 . S
H735 C744 0.950 . S
H736 C746 0.950 . S
H737 C748 0.950 . S
H738 C750 0.950 . S
H739 C751 0.950 . S
C740 H732 0.950 . S
C740 C741 1.386 . S
C740 C742 1.391 . S
C741 C740 1.386 . S
C741 C745 1.393 . S
C742 H734 0.950 . S
C742 C740 1.391 . S
C742 C743 1.400 . S
C743 C742 1.400 . S
C743 C744 1.398 . S
C743 C749 1.491 . S
C744 H735 0.950 . S
C744 C743 1.398 . S
C744 C745 1.391 . S
C745 H733 0.950 . S
C745 C741 1.393 . S
C745 C744 1.391 . S
C746 H736 0.950 . S
C746 C747 1.386 . S
C746 C748 1.391 . S
C747 C746 1.386 . S
C747 C751 1.393 . S
C748 H737 0.950 . S
C748 C746 1.391 . S
C748 C749 1.400 . S
C749 C743 1.491 . S
C749 C748 1.400 . S
C749 C750 1.398 . S
C750 H738 0.950 . S
C750 C749 1.398 . S
C750 C751 1.391 . S
C751 H739 0.950 . S
C751 C747 1.393 . S
C751 C750 1.391 . S
H752 C760 0.950 . S
H753 C765 0.950 . S
H754 C762 0.950 . S
H755 C764 0.950 1_565 S
H756 C766 0.950 . S
H757 C768 0.950 . S
H758 C770 0.950 1_545 S
H759 C771 0.950 . S
C760 H752 0.950 . S
C760 C761 1.386 . S
C760 C762 1.391 . S
C761 C760 1.386 . S
C761 C765 1.393 . S
C762 H754 0.950 . S
C762 C760 1.391 . S
C762 C763 1.400 . S
C763 C762 1.400 . S
C763 C764 1.398 . S
C763 C769 1.491 1_545 S
C764 H755 0.950 1_545 S
C764 C763 1.398 . S
C764 C765 1.391 . S
C765 H753 0.950 . S
C765 C761 1.393 . S
C765 C764 1.391 . S
C766 H756 0.950 . S
C766 C767 1.386 . S
C766 C768 1.391 . S
C767 C766 1.386 . S
C767 C771 1.393 . S
C768 H757 0.950 . S
C768 C766 1.391 . S
C768 C769 1.400 . S
C769 C763 1.491 1_565 S
C769 C768 1.400 . S
C769 C770 1.398 . S
C770 H758 0.950 1_565 S
C770 C769 1.398 . S
C770 C771 1.391 . S
C771 H759 0.950 . S
C771 C767 1.393 . S
C771 C770 1.391 . S
H772 C780 0.950 . S
H773 C785 0.950 . S
H774 C782 0.950 . S
H775 C784 0.931 1_545 S
H776 C786 0.950 . S
H777 C788 0.950 . S
H778 C790 0.931 1_565 S
H779 C791 0.950 . S
C780 H772 0.950 . S
C780 C781 1.386 . S
C780 C782 1.391 . S
C781 C780 1.386 . S
C781 C785 1.393 . S
C782 H774 0.950 . S
C782 C780 1.391 . S
C782 C783 1.400 . S
C783 C782 1.400 . S
C783 C784 1.408 . S
C783 C789 1.491 1_665 S
C784 H775 0.931 1_565 S
C784 C783 1.408 . S
C784 C785 1.400 . S
C785 H773 0.950 . S
C785 C781 1.393 . S
C785 C784 1.400 . S
C786 H776 0.950 . S
C786 C787 1.386 . S
C786 C788 1.391 . S
C787 C786 1.386 . S
C787 C791 1.393 . S
C788 H777 0.950 . S
C788 C786 1.391 . S
C788 C789 1.400 . S
C789 C783 1.491 1_445 S
C789 C788 1.400 . S
C789 C790 1.408 . S
C790 H778 0.931 1_545 S
C790 C789 1.408 . S
C790 C791 1.400 . S
C791 H779 0.950 . S
C791 C787 1.393 . S
C791 C790 1.400 . S
C481 C33 1.294 . S
C487 C328 1.284 . S
C501 C62 1.398 . S
C507 C357 1.398 . S
C521 C151 1.295 . S
C527 C446 1.284 . S
C541 C180 1.399 . S
C547 C239 1.399 . S
C561 C416 1.405 . S
C567 C3 1.406 . S
C581 C269 1.294 . S
C587 C92 1.284 . S
C601 C121 1.404 . S
C607 C298 1.403 . S
C621 C387 1.292 . S
C627 C210 1.286 . S
C641 C52 1.638 . S
C647 C406 1.639 . S
C661 C418 1.627 . S
C667 C64 1.631 . S
C681 C170 1.640 . S
C687 C288 1.639 . S
C701 C182 1.626 . S
C707 C300 1.623 . S
C721 C359 1.623 . S
C727 C5 1.625 . S
C741 C465 1.640 . S
C747 C111 1.642 . S
C761 C123 1.632 . S
C767 C241 1.633 . S
C781 C229 1.640 . S
C787 C347 1.642 . S
