# Generated by pormake.
# Topology afi, (4)-cn, num edge types: 1
# Building blocks:
#     Node 0, Type 0, BuildingBlock: UXUYUI_clean_sbu_0, # of connection points: 4
#     Node 1, Type 0, BuildingBlock: UXUYUI_clean_sbu_0, # of connection points: 4
#     Node 2, Type 0, BuildingBlock: UXUYUI_clean_sbu_0, # of connection points: 4
#     Node 3, Type 0, BuildingBlock: UXUYUI_clean_sbu_0, # of connection points: 4
#     Node 4, Type 0, BuildingBlock: UXUYUI_clean_sbu_0, # of connection points: 4
#     Node 5, Type 0, BuildingBlock: UXUYUI_clean_sbu_0, # of connection points: 4
#     Node 6, Type 0, BuildingBlock: UXUYUI_clean_sbu_0, # of connection points: 4
#     Node 7, Type 0, BuildingBlock: UXUYUI_clean_sbu_0, # of connection points: 4
#     Node 8, Type 0, BuildingBlock: UXUYUI_clean_sbu_0, # of connection points: 4
#     Node 9, Type 0, BuildingBlock: UXUYUI_clean_sbu_0, # of connection points: 4
#     Node 10, Type 0, BuildingBlock: UXUYUI_clean_sbu_0, # of connection points: 4
#     Node 11, Type 0, BuildingBlock: UXUYUI_clean_sbu_0, # of connection points: 4
#     Node 12, Type 0, BuildingBlock: UXUYUI_clean_sbu_0, # of connection points: 4
#     Node 13, Type 0, BuildingBlock: UXUYUI_clean_sbu_0, # of connection points: 4
#     Node 14, Type 0, BuildingBlock: UXUYUI_clean_sbu_0, # of connection points: 4
#     Node 15, Type 0, BuildingBlock: UXUYUI_clean_sbu_0, # of connection points: 4
#     Node 16, Type 0, BuildingBlock: UXUYUI_clean_sbu_0, # of connection points: 4
#     Node 17, Type 0, BuildingBlock: UXUYUI_clean_sbu_0, # of connection points: 4
#     Node 18, Type 0, BuildingBlock: UXUYUI_clean_sbu_0, # of connection points: 4
#     Node 19, Type 0, BuildingBlock: UXUYUI_clean_sbu_0, # of connection points: 4
#     Node 20, Type 0, BuildingBlock: UXUYUI_clean_sbu_0, # of connection points: 4
#     Node 21, Type 0, BuildingBlock: UXUYUI_clean_sbu_0, # of connection points: 4
#     Node 22, Type 0, BuildingBlock: UXUYUI_clean_sbu_0, # of connection points: 4
#     Node 23, Type 0, BuildingBlock: UXUYUI_clean_sbu_0, # of connection points: 4
#     Edge 24, Type (0, 0), BuildingBlock: OJICUG_clean_linker_0, # of connection points: 2
#     Edge 25, Type (0, 0), BuildingBlock: OJICUG_clean_linker_0, # of connection points: 2
#     Edge 26, Type (0, 0), BuildingBlock: OJICUG_clean_linker_0, # of connection points: 2
#     Edge 27, Type (0, 0), BuildingBlock: OJICUG_clean_linker_0, # of connection points: 2
#     Edge 28, Type (0, 0), BuildingBlock: OJICUG_clean_linker_0, # of connection points: 2
#     Edge 29, Type (0, 0), BuildingBlock: OJICUG_clean_linker_0, # of connection points: 2
#     Edge 30, Type (0, 0), BuildingBlock: OJICUG_clean_linker_0, # of connection points: 2
#     Edge 31, Type (0, 0), BuildingBlock: OJICUG_clean_linker_0, # of connection points: 2
#     Edge 32, Type (0, 0), BuildingBlock: OJICUG_clean_linker_0, # of connection points: 2
#     Edge 33, Type (0, 0), BuildingBlock: OJICUG_clean_linker_0, # of connection points: 2
#     Edge 34, Type (0, 0), BuildingBlock: OJICUG_clean_linker_0, # of connection points: 2
#     Edge 35, Type (0, 0), BuildingBlock: OJICUG_clean_linker_0, # of connection points: 2
#     Edge 36, Type (0, 0), BuildingBlock: OJICUG_clean_linker_0, # of connection points: 2
#     Edge 37, Type (0, 0), BuildingBlock: OJICUG_clean_linker_0, # of connection points: 2
#     Edge 38, Type (0, 0), BuildingBlock: OJICUG_clean_linker_0, # of connection points: 2
#     Edge 39, Type (0, 0), BuildingBlock: OJICUG_clean_linker_0, # of connection points: 2
#     Edge 40, Type (0, 0), BuildingBlock: OJICUG_clean_linker_0, # of connection points: 2
#     Edge 41, Type (0, 0), BuildingBlock: OJICUG_clean_linker_0, # of connection points: 2
#     Edge 42, Type (0, 0), BuildingBlock: OJICUG_clean_linker_0, # of connection points: 2
#     Edge 43, Type (0, 0), BuildingBlock: OJICUG_clean_linker_0, # of connection points: 2
#     Edge 44, Type (0, 0), BuildingBlock: OJICUG_clean_linker_0, # of connection points: 2
#     Edge 45, Type (0, 0), BuildingBlock: OJICUG_clean_linker_0, # of connection points: 2
#     Edge 46, Type (0, 0), BuildingBlock: OJICUG_clean_linker_0, # of connection points: 2
#     Edge 47, Type (0, 0), BuildingBlock: OJICUG_clean_linker_0, # of connection points: 2
#     Edge 48, Type (0, 0), BuildingBlock: OJICUG_clean_linker_0, # of connection points: 2
#     Edge 49, Type (0, 0), BuildingBlock: OJICUG_clean_linker_0, # of connection points: 2
#     Edge 50, Type (0, 0), BuildingBlock: OJICUG_clean_linker_0, # of connection points: 2
#     Edge 51, Type (0, 0), BuildingBlock: OJICUG_clean_linker_0, # of connection points: 2
#     Edge 52, Type (0, 0), BuildingBlock: OJICUG_clean_linker_0, # of connection points: 2
#     Edge 53, Type (0, 0), BuildingBlock: OJICUG_clean_linker_0, # of connection points: 2
#     Edge 54, Type (0, 0), BuildingBlock: OJICUG_clean_linker_0, # of connection points: 2
#     Edge 55, Type (0, 0), BuildingBlock: OJICUG_clean_linker_0, # of connection points: 2
#     Edge 56, Type (0, 0), BuildingBlock: OJICUG_clean_linker_0, # of connection points: 2
#     Edge 57, Type (0, 0), BuildingBlock: OJICUG_clean_linker_0, # of connection points: 2
#     Edge 58, Type (0, 0), BuildingBlock: OJICUG_clean_linker_0, # of connection points: 2
#     Edge 59, Type (0, 0), BuildingBlock: OJICUG_clean_linker_0, # of connection points: 2
#     Edge 60, Type (0, 0), BuildingBlock: OJICUG_clean_linker_0, # of connection points: 2
#     Edge 61, Type (0, 0), BuildingBlock: OJICUG_clean_linker_0, # of connection points: 2
#     Edge 62, Type (0, 0), BuildingBlock: OJICUG_clean_linker_0, # of connection points: 2
#     Edge 63, Type (0, 0), BuildingBlock: OJICUG_clean_linker_0, # of connection points: 2
#     Edge 64, Type (0, 0), BuildingBlock: OJICUG_clean_linker_0, # of connection points: 2
#     Edge 65, Type (0, 0), BuildingBlock: OJICUG_clean_linker_0, # of connection points: 2
#     Edge 66, Type (0, 0), BuildingBlock: OJICUG_clean_linker_0, # of connection points: 2
#     Edge 67, Type (0, 0), BuildingBlock: OJICUG_clean_linker_0, # of connection points: 2
#     Edge 68, Type (0, 0), BuildingBlock: OJICUG_clean_linker_0, # of connection points: 2
#     Edge 69, Type (0, 0), BuildingBlock: OJICUG_clean_linker_0, # of connection points: 2
#     Edge 70, Type (0, 0), BuildingBlock: OJICUG_clean_linker_0, # of connection points: 2
#     Edge 71, Type (0, 0), BuildingBlock: OJICUG_clean_linker_0, # of connection points: 2
# Relax obj value: 0.134
# Max RMSD: 0.127
# Mean RMSD: 0.126
data_MOF--net-afi--node1-UXUYUI_clean_sbu_0--edge1-OJICUG_clean_linker_0
_symmetry_space_group_name_H-M    P1
_symmetry_Int_Tables_number       1
_symmetry_cell_setting            triclinic
loop_
_symmetry_equiv_pos_as_xyz
'x, y, z'
_cell_length_a     79.447482
_cell_length_b     79.452222
_cell_length_c     49.403562
_cell_angle_alpha  90.012992
_cell_angle_beta   89.995376
_cell_angle_gamma 119.99793
loop_
_atom_site_label
_atom_site_type_symbol
_atom_site_fract_x
_atom_site_fract_y
_atom_site_fract_z
_atom_type_partial_charge
Li0 Li 0.48076 0.12972 0.1874 0.0
Li1 Li 0.44624 0.10509 0.19148 0.0
Li2 Li 0.45924 0.12436 0.14954 0.0
Li3 Li 0.45563 0.13902 0.19106 0.0
C4 C 0.46569 0.09469 0.14509 0.0
N5 N 0.46445 0.07272 0.10097 0.0
C6 C 0.45016 0.07576 0.14189 0.0
C7 C 0.48064 0.10241 0.12593 0.0
C8 C 0.4498 0.06489 0.11944 0.0
C9 C 0.47972 0.09108 0.10373 0.0
C10 C 0.45795 0.11625 0.24216 0.0
C11 C 0.43444 0.10002 0.27765 0.0
N12 N 0.44706 0.09573 0.29022 0.0
C13 C 0.47072 0.11175 0.25548 0.0
C14 C 0.43969 0.11042 0.25338 0.0
C15 C 0.46494 0.10135 0.27975 0.0
C16 C 0.51572 0.14833 0.2184 0.0
N17 N 0.50589 0.13501 0.1987 0.0
C18 C 0.52936 0.1246 0.19915 0.0
C19 C 0.51251 0.12345 0.18873 0.0
C20 C 0.53944 0.13767 0.22024 0.0
C21 C 0.53271 0.15001 0.22942 0.0
H22 H 0.50987 0.15702 0.22643 0.0
H23 H 0.50429 0.11276 0.17344 0.0
C24 C 0.4103 0.06999 0.205 0.0
N25 N 0.43004 0.07983 0.20632 0.0
C26 C 0.39966 0.05125 0.21594 0.0
C27 C 0.42988 0.05353 0.22991 0.0
C28 C 0.43986 0.07189 0.2182 0.0
C29 C 0.40946 0.04268 0.22857 0.0
H30 H 0.40286 0.07657 0.19515 0.0
H31 H 0.45557 0.07994 0.21858 0.0
C32 C 0.49681 0.16433 0.16672 0.0
N33 N 0.53508 0.19374 0.17004 0.0
C34 C 0.50228 0.1793 0.18556 0.0
C35 C 0.51077 0.16434 0.14949 0.0
C36 C 0.52171 0.19404 0.18692 0.0
C37 C 0.53006 0.17933 0.15152 0.0
C38 C 0.4216 0.12359 0.16746 0.0
C39 C 0.42152 0.13404 0.14476 0.0
C40 C 0.40866 0.12017 0.18869 0.0
C41 C 0.40857 0.14109 0.14382 0.0
C42 C 0.39595 0.1275 0.187 0.0
N43 N 0.39618 0.13773 0.16479 0.0
C44 C 0.44443 0.10778 0.09773 0.0
C45 C 0.46915 0.14092 0.09718 0.0
C46 C 0.44355 0.10742 0.06947 0.0
N47 N 0.45739 0.12426 0.11092 0.0
C48 C 0.46847 0.14132 0.06894 0.0
C49 C 0.45571 0.12435 0.05475 0.0
H50 H 0.4349 0.09487 0.10915 0.0
H51 H 0.4791 0.15391 0.10816 0.0
C52 C 0.44765 0.16003 0.23104 0.0
N53 N 0.45065 0.15869 0.20424 0.0
C54 C 0.44557 0.17543 0.24073 0.0
C55 C 0.44954 0.18765 0.195 0.0
C56 C 0.45156 0.17205 0.18623 0.0
C57 C 0.44675 0.18965 0.22266 0.0
H58 H 0.44741 0.14948 0.24504 0.0
H59 H 0.45426 0.17078 0.16508 0.0
O60 O 0.46621 0.10566 0.16677 0.0
O61 O 0.4632 0.12612 0.21811 0.0
O62 O 0.47794 0.14956 0.1654 0.0
O63 O 0.43447 0.11695 0.16904 0.0
H64 H 0.43843 0.06957 0.15645 0.0
H65 H 0.49272 0.11707 0.12802 0.0
H66 H 0.43783 0.05024 0.11666 0.0
H67 H 0.49112 0.09691 0.08866 0.0
H68 H 0.4203 0.0953 0.28646 0.0
H69 H 0.48485 0.11602 0.24704 0.0
H70 H 0.42957 0.11366 0.24325 0.0
H71 H 0.47464 0.09768 0.2902 0.0
H72 H 0.53416 0.11497 0.19128 0.0
H73 H 0.53992 0.16011 0.24586 0.0
H74 H 0.384 0.04345 0.21397 0.0
H75 H 0.43821 0.04797 0.23993 0.0
H76 H 0.49169 0.17943 0.19919 0.0
H77 H 0.50678 0.15281 0.13488 0.0
H78 H 0.52617 0.20569 0.20148 0.0
H79 H 0.54104 0.17948 0.13841 0.0
H80 H 0.43148 0.13685 0.12818 0.0
H81 H 0.40851 0.11206 0.20636 0.0
H82 H 0.40841 0.1493 0.12645 0.0
H83 H 0.38593 0.12506 0.20335 0.0
H84 H 0.43335 0.09412 0.05922 0.0
H85 H 0.47807 0.15464 0.05826 0.0
H86 H 0.44377 0.17654 0.26226 0.0
H87 H 0.45036 0.19815 0.18031 0.0
Li88 Li 0.35133 0.47542 0.19742 0.0
Li89 Li 0.33818 0.44008 0.19984 0.0
Li90 Li 0.33497 0.45629 0.15777 0.0
Li91 Li 0.31506 0.45252 0.19736 0.0
C92 C 0.37858 0.46965 0.17409 0.0
N93 N 0.4187 0.49129 0.17272 0.0
C94 C 0.38969 0.46282 0.18691 0.0
C95 C 0.38789 0.48736 0.16026 0.0
C96 C 0.40995 0.474 0.18606 0.0
C97 C 0.40818 0.49813 0.1599 0.0
C98 C 0.33088 0.45133 0.2523 0.0
C99 C 0.30909 0.43055 0.28711 0.0
N100 N 0.32326 0.44001 0.30591 0.0
C101 C 0.34512 0.46103 0.27205 0.0
C102 C 0.31263 0.43611 0.25995 0.0
C103 C 0.34104 0.45502 0.29901 0.0
C104 C 0.37287 0.51648 0.20693 0.0
N105 N 0.37193 0.49916 0.21149 0.0
C106 C 0.40119 0.51468 0.23745 0.0
C107 C 0.38559 0.49798 0.22657 0.0
C108 C 0.40263 0.53286 0.23326 0.0
C109 C 0.38817 0.53361 0.21772 0.0
H110 H 0.36169 0.51698 0.19508 0.0
H111 H 0.38439 0.48399 0.23008 0.0
C112 C 0.3386 0.40431 0.20103 0.0
N113 N 0.34394 0.42123 0.21434 0.0
C114 C 0.34447 0.39147 0.21062 0.0
C115 C 0.3611 0.41367 0.24746 0.0
C116 C 0.35495 0.42605 0.23715 0.0
C117 C 0.35605 0.39619 0.23403 0.0
H118 H 0.33013 0.40098 0.18264 0.0
H119 H 0.3597 0.43992 0.24672 0.0
C120 C 0.32731 0.48503 0.1541 0.0
N121 N 0.31995 0.50143 0.10961 0.0
C122 C 0.30818 0.47921 0.14673 0.0
C123 C 0.3427 0.49937 0.13905 0.0
C124 C 0.30476 0.48763 0.12413 0.0
C125 C 0.33868 0.50743 0.11656 0.0
C126 C 0.29847 0.41388 0.17714 0.0
C127 C 0.28557 0.40675 0.15531 0.0
C128 C 0.2944 0.40268 0.2006 0.0
C129 C 0.26855 0.38875 0.15759 0.0
C130 C 0.27725 0.38474 0.2021 0.0
N131 N 0.26477 0.37822 0.18076 0.0
C132 C 0.35147 0.46103 0.10531 0.0
C133 C 0.31787 0.45067 0.10572 0.0
C134 C 0.35165 0.46116 0.07704 0.0
N135 N 0.33477 0.45593 0.11903 0.0
C136 C 0.31736 0.45052 0.07745 0.0
C137 C 0.33442 0.45583 0.06266 0.0
H138 H 0.36469 0.46501 0.11629 0.0
H139 H 0.30477 0.44664 0.11708 0.0
C140 C 0.29223 0.4607 0.23192 0.0
N141 N 0.29109 0.44975 0.21011 0.0
C142 C 0.27561 0.46031 0.24191 0.0
C143 C 0.25686 0.43749 0.20666 0.0
C144 C 0.27387 0.4383 0.19737 0.0
C145 C 0.2576 0.44869 0.22915 0.0
H146 H 0.30615 0.46988 0.24145 0.0
H147 H 0.27338 0.43019 0.17959 0.0
O148 O 0.35871 0.45903 0.17507 0.0
O149 O 0.33464 0.45714 0.22581 0.0
O150 O 0.33094 0.47668 0.17586 0.0
O151 O 0.31524 0.43147 0.17516 0.0
H152 H 0.38277 0.44905 0.19744 0.0
H153 H 0.37954 0.49283 0.15015 0.0
H154 H 0.41872 0.46893 0.19601 0.0
H155 H 0.41556 0.51193 0.14946 0.0
H156 H 0.29503 0.41878 0.29327 0.0
H157 H 0.35923 0.47302 0.26665 0.0
H158 H 0.30118 0.42886 0.24522 0.0
H159 H 0.35199 0.46231 0.31444 0.0
H160 H 0.41211 0.51331 0.24877 0.0
H161 H 0.3885 0.54722 0.21422 0.0
H162 H 0.34021 0.37813 0.19965 0.0
H163 H 0.37041 0.41818 0.26513 0.0
H164 H 0.2961 0.46815 0.15816 0.0
H165 H 0.35759 0.5042 0.14462 0.0
H166 H 0.29002 0.48316 0.11808 0.0
H167 H 0.35045 0.51845 0.10463 0.0
H168 H 0.28858 0.41505 0.13684 0.0
H169 H 0.30446 0.40761 0.21735 0.0
H170 H 0.25837 0.38314 0.14092 0.0
H171 H 0.27391 0.37596 0.22018 0.0
H172 H 0.36521 0.4656 0.06659 0.0
H173 H 0.30367 0.44604 0.06733 0.0
H174 H 0.27687 0.46902 0.25947 0.0
H175 H 0.24338 0.4286 0.19588 0.0
Li176 Li 0.87713 0.34666 0.19604 0.0
Li177 Li 0.90021 0.33485 0.19878 0.0
Li178 Li 0.8803 0.33074 0.15628 0.0
Li179 Li 0.86473 0.31096 0.19659 0.0
C180 C 0.90873 0.37457 0.17369 0.0
N181 N 0.92364 0.4143 0.17499 0.0
C182 C 0.92369 0.38611 0.19167 0.0
C183 C 0.90152 0.38326 0.15613 0.0
C184 C 0.931 0.40617 0.19208 0.0
C185 C 0.9092 0.40336 0.15717 0.0
C186 C 0.88118 0.3239 0.2498 0.0
C187 C 0.88348 0.29988 0.27688 0.0
N188 N 0.88418 0.30983 0.29965 0.0
C189 C 0.88173 0.3338 0.27348 0.0
C190 C 0.88193 0.30674 0.25152 0.0
C191 C 0.88333 0.3265 0.29848 0.0
C192 C 0.86076 0.37177 0.19936 0.0
N193 N 0.87375 0.36714 0.20984 0.0
C194 C 0.88517 0.39337 0.24136 0.0
C195 C 0.8857 0.37743 0.23059 0.0
C196 C 0.87219 0.39881 0.2307 0.0
C197 C 0.85972 0.38766 0.20957 0.0
H198 H 0.85139 0.36331 0.1829 0.0
H199 H 0.8959 0.37341 0.23846 0.0
C200 C 0.93798 0.33894 0.1978 0.0
N201 N 0.92508 0.34136 0.21303 0.0
C202 C 0.95692 0.3457 0.2072 0.0
C203 C 0.94879 0.35698 0.24788 0.0
C204 C 0.93012 0.35013 0.23766 0.0
C205 C 0.96259 0.35505 0.23247 0.0
H206 H 0.9337 0.33221 0.17806 0.0
H207 H 0.9199 0.35259 0.24893 0.0
C208 C 0.84276 0.32198 0.15415 0.0
N209 N 0.8166 0.31373 0.11241 0.0
C210 C 0.82735 0.30304 0.15045 0.0
C211 C 0.84473 0.33676 0.13681 0.0
C212 C 0.81431 0.29916 0.12919 0.0
C213 C 0.8314 0.33228 0.11576 0.0
C214 C 0.88701 0.29522 0.17073 0.0
C215 C 0.87805 0.28341 0.14823 0.0
C216 C 0.89745 0.29028 0.18871 0.0
C217 C 0.8792 0.26659 0.14451 0.0
C218 C 0.89828 0.27335 0.18428 0.0
N219 N 0.8892 0.26193 0.16248 0.0
C220 C 0.89553 0.34606 0.10446 0.0
C221 C 0.86648 0.31557 0.10335 0.0
C222 C 0.89614 0.34682 0.07618 0.0
N223 N 0.88076 0.33067 0.11744 0.0
C224 C 0.86648 0.31574 0.07508 0.0
C225 C 0.88142 0.33155 0.06106 0.0
H226 H 0.90686 0.35777 0.11607 0.0
H227 H 0.85494 0.30343 0.11403 0.0
C228 C 0.83505 0.28742 0.23278 0.0
N229 N 0.84413 0.28668 0.20986 0.0
C230 C 0.81945 0.27054 0.2434 0.0
C231 C 0.82243 0.2524 0.20629 0.0
C232 C 0.83811 0.26964 0.19651 0.0
C233 C 0.81288 0.25272 0.23006 0.0
H234 H 0.83978 0.30122 0.24267 0.0
H235 H 0.84515 0.26942 0.17797 0.0
O236 O 0.90099 0.35483 0.17355 0.0
O237 O 0.87965 0.3309 0.22516 0.0
O238 O 0.85573 0.32603 0.17476 0.0
O239 O 0.88631 0.31194 0.17443 0.0
H240 H 0.92947 0.37965 0.20537 0.0
H241 H 0.89004 0.37457 0.14198 0.0
H242 H 0.94248 0.41526 0.20603 0.0
H243 H 0.90366 0.41026 0.14382 0.0
H244 H 0.88405 0.28659 0.27847 0.0
H245 H 0.88097 0.34701 0.27258 0.0
H246 H 0.88097 0.29864 0.23351 0.0
H247 H 0.88386 0.33406 0.31696 0.0
H248 H 0.89484 0.40133 0.25792 0.0
H249 H 0.8496 0.39142 0.20062 0.0
H250 H 0.96709 0.34388 0.19468 0.0
H251 H 0.95262 0.36451 0.26714 0.0
H252 H 0.82552 0.29145 0.16376 0.0
H253 H 0.85653 0.35149 0.13938 0.0
H254 H 0.80237 0.28455 0.12602 0.0
H255 H 0.83285 0.34355 0.10207 0.0
H256 H 0.8701 0.28706 0.13394 0.0
H257 H 0.90498 0.29948 0.20581 0.0
H258 H 0.87217 0.25724 0.12731 0.0
H259 H 0.90624 0.26933 0.19812 0.0
H260 H 0.90812 0.35915 0.0663 0.0
H261 H 0.8547 0.30375 0.06436 0.0
H262 H 0.81228 0.27153 0.26148 0.0
H263 H 0.81783 0.23897 0.19538 0.0
Li264 Li 0.55978 0.89645 0.19232 0.0
Li265 Li 0.52394 0.87253 0.1908 0.0
Li266 Li 0.5496 0.86244 0.19133 0.0
Li267 Li 0.54512 0.8767 0.15212 0.0
C268 C 0.54854 0.88623 0.24348 0.0
N269 N 0.55964 0.90741 0.29102 0.0
C270 C 0.53568 0.89056 0.25692 0.0
C271 C 0.56698 0.8925 0.2544 0.0
C272 C 0.54158 0.90132 0.28089 0.0
C273 C 0.57234 0.90325 0.27839 0.0
C274 C 0.54162 0.90833 0.14844 0.0
C275 C 0.52824 0.91947 0.11363 0.0
N276 N 0.54655 0.93253 0.10537 0.0
C277 C 0.5603 0.92186 0.13963 0.0
C278 C 0.52544 0.9071 0.13537 0.0
C279 C 0.56249 0.93397 0.11781 0.0
C280 C 0.59621 0.93184 0.20373 0.0
N281 N 0.57651 0.92204 0.20601 0.0
C282 C 0.57724 0.94908 0.22832 0.0
C283 C 0.56698 0.93035 0.21774 0.0
C284 C 0.59761 0.95977 0.22618 0.0
C285 C 0.60711 0.95084 0.21374 0.0
H286 H 0.60342 0.92508 0.19375 0.0
H287 H 0.55128 0.92235 0.21883 0.0
C288 C 0.48697 0.8519 0.21679 0.0
N289 N 0.49979 0.86857 0.20389 0.0
C290 C 0.47024 0.85027 0.22873 0.0
C291 C 0.48024 0.88287 0.21353 0.0
C292 C 0.4967 0.88386 0.20194 0.0
C293 C 0.46688 0.86604 0.22754 0.0
H294 H 0.49 0.84009 0.21837 0.0
H295 H 0.50734 0.89707 0.19204 0.0
C296 C 0.58343 0.87723 0.17035 0.0
N297 N 0.60881 0.86306 0.17395 0.0
C298 C 0.58313 0.86439 0.15075 0.0
C299 C 0.59672 0.88295 0.19168 0.0
C300 C 0.59606 0.85738 0.15294 0.0
C301 C 0.6094 0.87559 0.19319 0.0
C302 C 0.51402 0.84087 0.14837 0.0
C303 C 0.52162 0.83348 0.12926 0.0
C304 C 0.49484 0.83687 0.14577 0.0
C305 C 0.50995 0.82232 0.10776 0.0
C306 C 0.48362 0.82562 0.124 0.0
N307 N 0.49135 0.81866 0.1056 0.0
C308 C 0.55826 0.84216 0.23177 0.0
C309 C 0.55171 0.82792 0.18816 0.0
C310 C 0.56007 0.8268 0.2423 0.0
N311 N 0.55404 0.84239 0.20514 0.0
C312 C 0.55347 0.81236 0.19775 0.0
C313 C 0.55743 0.81148 0.22527 0.0
H314 H 0.55972 0.85362 0.24502 0.0
H315 H 0.54827 0.82833 0.16715 0.0
C316 C 0.56244 0.88363 0.09983 0.0
N317 N 0.5454 0.87773 0.11313 0.0
C318 C 0.56301 0.88409 0.07154 0.0
C319 C 0.52862 0.87301 0.07112 0.0
C320 C 0.52877 0.87296 0.09938 0.0
C321 C 0.54587 0.87846 0.05683 0.0
H322 H 0.57562 0.88798 0.11117 0.0
H323 H 0.51554 0.869 0.11035 0.0
O324 O 0.54317 0.87603 0.21967 0.0
O325 O 0.53919 0.89598 0.16926 0.0
O326 O 0.57059 0.88395 0.16887 0.0
O327 O 0.52516 0.85182 0.16964 0.0
H328 H 0.52134 0.88579 0.2489 0.0
H329 H 0.57712 0.8893 0.24432 0.0
H330 H 0.5318 0.90485 0.29142 0.0
H331 H 0.58662 0.90832 0.28694 0.0
H332 H 0.51586 0.91863 0.10324 0.0
H333 H 0.57297 0.92282 0.1493 0.0
H334 H 0.51087 0.89652 0.14172 0.0
H335 H 0.57687 0.94446 0.1107 0.0
H336 H 0.56921 0.95506 0.23813 0.0
H337 H 0.62274 0.95857 0.2112 0.0
H338 H 0.46044 0.83711 0.23957 0.0
H339 H 0.47812 0.89527 0.21181 0.0
H340 H 0.5728 0.85961 0.13426 0.0
H341 H 0.59718 0.89288 0.20701 0.0
H342 H 0.59589 0.84733 0.13802 0.0
H343 H 0.6197 0.87983 0.20966 0.0
H344 H 0.53652 0.83673 0.13055 0.0
H345 H 0.48869 0.84247 0.16029 0.0
H346 H 0.51572 0.81669 0.0927 0.0
H347 H 0.46878 0.82247 0.12171 0.0
H348 H 0.56286 0.82662 0.26372 0.0
H349 H 0.55161 0.80107 0.18375 0.0
H350 H 0.57664 0.88846 0.06131 0.0
H351 H 0.51518 0.869 0.06058 0.0
Li352 Li 0.65372 0.52621 0.197 0.0
Li353 Li 0.66752 0.56268 0.19924 0.0
Li354 Li 0.67032 0.54591 0.15617 0.0
Li355 Li 0.68774 0.54824 0.19674 0.0
C356 C 0.62815 0.53875 0.17076 0.0
N357 N 0.59046 0.53084 0.16233 0.0
C358 C 0.61875 0.54386 0.19029 0.0
C359 C 0.61841 0.52983 0.14677 0.0
C360 C 0.59969 0.53967 0.18571 0.0
C361 C 0.59936 0.52589 0.14295 0.0
C362 C 0.67817 0.54222 0.24755 0.0
C363 C 0.70064 0.55508 0.28496 0.0
N364 N 0.69787 0.53703 0.28987 0.0
C365 C 0.67554 0.5238 0.253 0.0
C366 C 0.69081 0.55801 0.26365 0.0
C367 C 0.68563 0.52147 0.27448 0.0
C368 C 0.63225 0.48514 0.20922 0.0
N369 N 0.63236 0.50233 0.21027 0.0
C370 C 0.60105 0.48682 0.23122 0.0
C371 C 0.61741 0.50348 0.2217 0.0
C372 C 0.60026 0.46881 0.22967 0.0
C373 C 0.61624 0.46809 0.21889 0.0
H374 H 0.64457 0.48463 0.20096 0.0
H375 H 0.61826 0.51738 0.22372 0.0
C376 C 0.65584 0.59092 0.19508 0.0
N377 N 0.66215 0.58202 0.21251 0.0
C378 C 0.64892 0.60284 0.20494 0.0
C379 C 0.65617 0.59706 0.25033 0.0
C380 C 0.6626 0.58499 0.23963 0.0
C381 C 0.64869 0.60579 0.23302 0.0
H382 H 0.65529 0.58798 0.17361 0.0
H383 H 0.66726 0.57742 0.2531 0.0
C384 C 0.66498 0.50879 0.15711 0.0
N385 N 0.64793 0.47672 0.12341 0.0
C386 C 0.67529 0.4996 0.14924 0.0
C387 C 0.64602 0.50169 0.14774 0.0
C388 C 0.66642 0.48341 0.13222 0.0
C389 C 0.63764 0.48546 0.13077 0.0
C390 C 0.70914 0.58203 0.16983 0.0
C391 C 0.71921 0.57545 0.15385 0.0
C392 C 0.71901 0.60066 0.18104 0.0
C393 C 0.73912 0.5876 0.14962 0.0
C394 C 0.73892 0.61238 0.17631 0.0
N395 N 0.74848 0.60565 0.16085 0.0
C396 C 0.66086 0.55473 0.10469 0.0
C397 C 0.68016 0.5397 0.10346 0.0
C398 C 0.66044 0.55515 0.07641 0.0
N399 N 0.67042 0.54686 0.11757 0.0
C400 C 0.68014 0.53984 0.07521 0.0
C401 C 0.67008 0.54753 0.06125 0.0
H402 H 0.65343 0.56055 0.11641 0.0
H403 H 0.68801 0.5339 0.11415 0.0
C404 C 0.71435 0.53552 0.20708 0.0
N405 N 0.71193 0.55121 0.20964 0.0
C406 C 0.73129 0.53626 0.21636 0.0
C407 C 0.74297 0.56927 0.23111 0.0
C408 C 0.72576 0.56787 0.22154 0.0
C409 C 0.74593 0.55332 0.22852 0.0
H410 H 0.70295 0.52229 0.19818 0.0
H411 H 0.72335 0.58002 0.22395 0.0
O412 O 0.647 0.54311 0.17466 0.0
O413 O 0.66878 0.54482 0.22612 0.0
O414 O 0.67369 0.52494 0.17331 0.0
O415 O 0.6897 0.57031 0.17441 0.0
H416 H 0.62598 0.55074 0.209 0.0
H417 H 0.62546 0.52602 0.13117 0.0
H418 H 0.59224 0.54344 0.20076 0.0
H419 H 0.59166 0.51895 0.12451 0.0
H420 H 0.71058 0.56719 0.29744 0.0
H421 H 0.66603 0.51147 0.24056 0.0
H422 H 0.69342 0.57246 0.25939 0.0
H423 H 0.6838 0.50731 0.27883 0.0
H424 H 0.58923 0.48805 0.24006 0.0
H425 H 0.61621 0.45447 0.21757 0.0
H426 H 0.64303 0.60893 0.19074 0.0
H427 H 0.65667 0.59912 0.27203 0.0
H428 H 0.69007 0.50501 0.156 0.0
H429 H 0.63778 0.50846 0.15378 0.0
H430 H 0.67426 0.47618 0.12595 0.0
H431 H 0.62294 0.47979 0.12349 0.0
H432 H 0.71176 0.56103 0.14514 0.0
H433 H 0.71136 0.60594 0.19342 0.0
H434 H 0.74714 0.58266 0.13747 0.0
H435 H 0.74679 0.6268 0.18495 0.0
H436 H 0.65239 0.56111 0.06656 0.0
H437 H 0.68811 0.53417 0.06442 0.0
H438 H 0.73273 0.52346 0.21446 0.0
H439 H 0.75387 0.58273 0.24027 0.0
Li440 Li 0.12326 0.67054 0.1596 0.0
Li441 Li 0.13909 0.68862 0.19987 0.0
Li442 Li 0.12704 0.65388 0.19801 0.0
Li443 Li 0.10453 0.6658 0.20081 0.0
C444 C 0.15638 0.66662 0.16012 0.0
N445 N 0.17341 0.65054 0.12849 0.0
C446 C 0.1766 0.6752 0.15918 0.0
C447 C 0.14482 0.64987 0.14495 0.0
C448 C 0.18494 0.66685 0.14307 0.0
C449 C 0.15371 0.64196 0.12909 0.0
C450 C 0.12573 0.70642 0.16339 0.0
C451 C 0.12201 0.73152 0.1416 0.0
N452 N 0.14062 0.7398 0.13246 0.0
C453 C 0.14482 0.71517 0.15379 0.0
C454 C 0.11422 0.71463 0.15727 0.0
C455 C 0.15208 0.73204 0.13818 0.0
C456 C 0.10548 0.66112 0.10789 0.0
N457 N 0.12277 0.6715 0.1209 0.0
C458 C 0.13952 0.68232 0.07866 0.0
C459 C 0.13962 0.68207 0.10691 0.0
C460 C 0.12191 0.67156 0.06456 0.0
C461 C 0.10471 0.66095 0.0796 0.0
H462 H 0.09231 0.65283 0.11952 0.0
H463 H 0.1532 0.69021 0.11768 0.0
C464 C 0.17628 0.71233 0.22076 0.0
N465 N 0.15966 0.71231 0.21425 0.0
C466 C 0.19201 0.72891 0.23181 0.0
C467 C 0.17321 0.74516 0.22938 0.0
C468 C 0.15781 0.72824 0.2184 0.0
C469 C 0.19062 0.74564 0.23628 0.0
H470 H 0.17728 0.69941 0.21735 0.0
H471 H 0.14436 0.72779 0.2133 0.0
C472 C 0.0886 0.62783 0.18366 0.0
N473 N 0.05852 0.59198 0.19956 0.0
C474 C 0.08646 0.62234 0.21089 0.0
C475 C 0.07545 0.61509 0.16453 0.0
C476 C 0.07116 0.60416 0.21852 0.0
C477 C 0.06034 0.59702 0.17297 0.0
C478 C 0.12358 0.6783 0.2508 0.0
C479 C 0.12858 0.67403 0.27595 0.0
C480 C 0.11796 0.69237 0.24899 0.0
C481 C 0.12787 0.68391 0.29893 0.0
C482 C 0.11745 0.70194 0.27243 0.0
N483 N 0.12237 0.69754 0.29671 0.0
C484 C 0.14169 0.63635 0.23303 0.0
C485 C 0.12426 0.61669 0.19558 0.0
C486 C 0.14404 0.62138 0.24371 0.0
N487 N 0.13169 0.63365 0.20961 0.0
C488 C 0.12626 0.60134 0.20551 0.0
C489 C 0.13602 0.60346 0.23011 0.0
H490 H 0.14752 0.65004 0.24366 0.0
H491 H 0.11629 0.61485 0.17704 0.0
C492 C 0.066 0.65861 0.19665 0.0
N493 N 0.07933 0.65913 0.21441 0.0
C494 C 0.04673 0.65143 0.20477 0.0
C495 C 0.05543 0.64612 0.24952 0.0
C496 C 0.0744 0.65306 0.24045 0.0
C497 C 0.04125 0.64494 0.23149 0.0
H498 H 0.07022 0.66316 0.17592 0.0
H499 H 0.08494 0.65282 0.25398 0.0
O500 O 0.14809 0.67472 0.17583 0.0
O501 O 0.1182 0.68984 0.17864 0.0
O502 O 0.10333 0.64564 0.17563 0.0
O503 O 0.12444 0.66887 0.22811 0.0
H504 H 0.18575 0.6882 0.17077 0.0
H505 H 0.12916 0.64306 0.14528 0.0
H506 H 0.20057 0.67334 0.14216 0.0
H507 H 0.14493 0.629 0.11725 0.0
H508 H 0.11326 0.73803 0.1367 0.0
H509 H 0.15397 0.70906 0.15835 0.0
H510 H 0.0994 0.708 0.16456 0.0
H511 H 0.16683 0.73896 0.13062 0.0
H512 H 0.1531 0.69096 0.06799 0.0
H513 H 0.09083 0.65227 0.06964 0.0
H514 H 0.20522 0.72868 0.23647 0.0
H515 H 0.17142 0.75764 0.23277 0.0
H516 H 0.09648 0.63198 0.22601 0.0
H517 H 0.0769 0.61912 0.14337 0.0
H518 H 0.06933 0.59974 0.23952 0.0
H519 H 0.05005 0.58702 0.15837 0.0
H520 H 0.13297 0.66318 0.27771 0.0
H521 H 0.114 0.69586 0.22975 0.0
H522 H 0.1317 0.68074 0.31853 0.0
H523 H 0.11313 0.71285 0.27132 0.0
H524 H 0.15191 0.62375 0.26252 0.0
H525 H 0.11963 0.58773 0.1945 0.0
H526 H 0.03616 0.65067 0.19024 0.0
H527 H 0.05169 0.64084 0.2701 0.0
Li528 Li 0.86612 0.54751 0.30421 0.0
Li529 Li 0.88053 0.54426 0.34608 0.0
Li530 Li 0.90054 0.55929 0.30562 0.0
Li531 Li 0.87781 0.52428 0.30774 0.0
C532 C 0.87852 0.58064 0.32905 0.0
N533 N 0.86147 0.60356 0.33136 0.0
C534 C 0.86729 0.57959 0.35146 0.0
C535 C 0.88119 0.59342 0.3079 0.0
C536 C 0.85878 0.59129 0.35223 0.0
C537 C 0.8724 0.60485 0.30942 0.0
C538 C 0.84248 0.50552 0.32596 0.0
C539 C 0.82963 0.47178 0.33757 0.0
N540 N 0.81509 0.46673 0.31926 0.0
C541 C 0.82741 0.49999 0.30726 0.0
C542 C 0.8436 0.49131 0.34128 0.0
C543 C 0.81369 0.48031 0.30419 0.0
C544 C 0.84539 0.55498 0.26335 0.0
N545 N 0.84585 0.55125 0.2901 0.0
C546 C 0.81582 0.55064 0.29754 0.0
C547 C 0.83152 0.54911 0.30721 0.0
C548 C 0.81479 0.55427 0.26992 0.0
C549 C 0.82997 0.55663 0.2528 0.0
H550 H 0.85682 0.55636 0.2501 0.0
H551 H 0.83209 0.5458 0.32831 0.0
C552 C 0.89384 0.56148 0.39766 0.0
N553 N 0.87991 0.54544 0.38469 0.0
C554 C 0.89403 0.56249 0.42591 0.0
C555 C 0.86532 0.53062 0.42689 0.0
C556 C 0.86568 0.53024 0.39864 0.0
C557 C 0.87968 0.54686 0.44094 0.0
H558 H 0.90491 0.57342 0.38602 0.0
H559 H 0.85459 0.51781 0.38785 0.0
C560 C 0.89215 0.54831 0.25465 0.0
N561 N 0.91543 0.56131 0.20912 0.0
C562 C 0.89898 0.53688 0.2428 0.0
C563 C 0.89707 0.5663 0.24324 0.0
C564 C 0.91074 0.54372 0.21979 0.0
C565 C 0.90889 0.57263 0.22026 0.0
C566 C 0.91152 0.54126 0.3526 0.0
C567 C 0.92869 0.55859 0.35813 0.0
C568 C 0.90483 0.52578 0.37085 0.0
C569 C 0.93887 0.56018 0.38194 0.0
C570 C 0.91541 0.52796 0.39447 0.0
N571 N 0.93206 0.54497 0.39948 0.0
C572 C 0.93307 0.59707 0.29259 0.0
C573 C 0.93613 0.56959 0.2822 0.0
C574 C 0.95158 0.60952 0.28199 0.0
N575 N 0.92574 0.57751 0.29231 0.0
C576 C 0.95446 0.5814 0.27099 0.0
C577 C 0.96239 0.60163 0.27075 0.0
H578 H 0.92455 0.60299 0.301 0.0
H579 H 0.93007 0.554 0.28271 0.0
C580 C 0.86146 0.49004 0.27552 0.0
N581 N 0.87432 0.49996 0.29566 0.0
C582 C 0.86003 0.47302 0.26509 0.0
C583 C 0.88503 0.47673 0.29642 0.0
C584 C 0.88594 0.49362 0.30626 0.0
C585 C 0.87213 0.46632 0.2753 0.0
H586 H 0.85268 0.49565 0.26708 0.0
H587 H 0.89624 0.50192 0.32195 0.0
O588 O 0.8866 0.56899 0.32763 0.0
O589 O 0.85625 0.52468 0.32894 0.0
O590 O 0.88097 0.54207 0.27753 0.0
O591 O 0.90109 0.53957 0.32971 0.0
H592 H 0.86499 0.56969 0.36793 0.0
H593 H 0.88978 0.59435 0.29038 0.0
H594 H 0.84997 0.59057 0.36938 0.0
H595 H 0.87424 0.61472 0.29313 0.0
H596 H 0.83039 0.46063 0.34916 0.0
H597 H 0.8264 0.51074 0.29504 0.0
H598 H 0.85532 0.49529 0.35556 0.0
H599 H 0.80199 0.47582 0.28974 0.0
H600 H 0.80432 0.54839 0.31141 0.0
H601 H 0.82989 0.55963 0.23144 0.0
H602 H 0.90548 0.57522 0.43586 0.0
H603 H 0.85378 0.51841 0.4376 0.0
H604 H 0.89546 0.523 0.25142 0.0
H605 H 0.89209 0.57543 0.2523 0.0
H606 H 0.91621 0.53507 0.21049 0.0
H607 H 0.91294 0.58659 0.21136 0.0
H608 H 0.934 0.57077 0.34435 0.0
H609 H 0.89146 0.51234 0.36703 0.0
H610 H 0.95213 0.57353 0.38654 0.0
H611 H 0.91033 0.51616 0.40887 0.0
H612 H 0.95729 0.62507 0.28223 0.0
H613 H 0.96248 0.5748 0.26297 0.0
H614 H 0.85006 0.46558 0.24859 0.0
H615 H 0.89447 0.47197 0.3051 0.0
Li616 Li 0.33593 0.88076 0.35032 0.0
Li617 Li 0.31814 0.86651 0.30808 0.0
Li618 Li 0.35186 0.87555 0.31304 0.0
Li619 Li 0.34342 0.90155 0.30967 0.0
C620 C 0.33342 0.84092 0.33115 0.0
N621 N 0.34298 0.81219 0.32437 0.0
C622 C 0.32491 0.82729 0.31035 0.0
C623 C 0.3468 0.83993 0.34851 0.0
C624 C 0.32992 0.81286 0.30727 0.0
C625 C 0.35145 0.8253 0.34474 0.0
C626 C 0.30037 0.88324 0.33786 0.0
C627 C 0.27209 0.88686 0.33376 0.0
N628 N 0.26299 0.87303 0.35311 0.0
C629 C 0.29079 0.86916 0.35783 0.0
C630 C 0.29101 0.89226 0.32581 0.0
C631 C 0.27188 0.86416 0.3652 0.0
C632 C 0.33531 0.89645 0.40204 0.0
N633 N 0.33364 0.88061 0.38899 0.0
C634 C 0.32974 0.86424 0.43111 0.0
C635 C 0.33063 0.86457 0.40287 0.0
C636 C 0.33196 0.88058 0.4453 0.0
C637 C 0.33463 0.89679 0.43031 0.0
H638 H 0.33752 0.90895 0.39047 0.0
H639 H 0.32893 0.85202 0.39201 0.0
C640 C 0.28832 0.84449 0.26768 0.0
N641 N 0.29324 0.84658 0.29437 0.0
C642 C 0.27081 0.82877 0.25883 0.0
C643 C 0.26363 0.81731 0.30491 0.0
C644 C 0.28128 0.8333 0.31289 0.0
C645 C 0.25825 0.8148 0.27749 0.0
H646 H 0.2981 0.8545 0.25287 0.0
H647 H 0.28572 0.83477 0.33383 0.0
C648 C 0.37175 0.90952 0.35727 0.0
N649 N 0.39074 0.92941 0.40365 0.0
C650 C 0.37583 0.92861 0.36132 0.0
C651 C 0.37748 0.90061 0.37674 0.0
C652 C 0.38543 0.93841 0.38491 0.0
C653 C 0.38701 0.91088 0.40008 0.0
C654 C 0.33326 0.88494 0.25816 0.0
C655 C 0.3393 0.88107 0.23353 0.0
C656 C 0.32114 0.89302 0.25825 0.0
C657 C 0.33294 0.88516 0.20935 0.0
C658 C 0.31513 0.89693 0.23365 0.0
N659 N 0.3211 0.89294 0.20991 0.0
C660 C 0.36838 0.85963 0.2779 0.0
C661 C 0.38828 0.87716 0.31511 0.0
C662 C 0.38326 0.85719 0.26704 0.0
N663 N 0.37125 0.86972 0.3013 0.0
C664 C 0.40351 0.87501 0.30506 0.0
C665 C 0.40129 0.86532 0.28037 0.0
H666 H 0.35472 0.85402 0.26724 0.0
H667 H 0.39027 0.88528 0.33349 0.0
C668 C 0.34824 0.94009 0.30601 0.0
N669 N 0.35258 0.92697 0.29524 0.0
C670 C 0.35654 0.95888 0.29515 0.0
C671 C 0.3727 0.9498 0.26164 0.0
C672 C 0.36457 0.9315 0.27354 0.0
C673 C 0.36915 0.96405 0.27273 0.0
H674 H 0.33876 0.93614 0.32344 0.0
H675 H 0.36792 0.92086 0.2655 0.0
O676 O 0.3291 0.85547 0.33402 0.0
O677 O 0.31888 0.88835 0.33026 0.0
O678 O 0.3621 0.89958 0.33448 0.0
O679 O 0.33977 0.88147 0.28197 0.0
H680 H 0.31472 0.82796 0.2965 0.0
H681 H 0.35372 0.8505 0.3645 0.0
H682 H 0.32349 0.80226 0.2912 0.0
H683 H 0.36185 0.82443 0.35794 0.0
H684 H 0.26465 0.89369 0.32457 0.0
H685 H 0.29777 0.86199 0.36732 0.0
H686 H 0.29829 0.90335 0.31054 0.0
H687 H 0.26425 0.85319 0.38051 0.0
H688 H 0.3272 0.85124 0.44168 0.0
H689 H 0.33658 0.90978 0.4403 0.0
H690 H 0.26751 0.8272 0.23739 0.0
H691 H 0.2544 0.80692 0.32005 0.0
H692 H 0.37158 0.93576 0.34647 0.0
H693 H 0.37425 0.88577 0.37413 0.0
H694 H 0.38861 0.95317 0.38833 0.0
H695 H 0.39134 0.90409 0.41542 0.0
H696 H 0.34884 0.87501 0.2331 0.0
H697 H 0.3164 0.89618 0.27709 0.0
H698 H 0.33747 0.8822 0.19014 0.0
H699 H 0.30573 0.90314 0.23343 0.0
H700 H 0.38095 0.84978 0.24783 0.0
H701 H 0.41704 0.88127 0.31623 0.0
H702 H 0.35349 0.96932 0.30471 0.0
H703 H 0.38179 0.95269 0.24397 0.0
Li704 Li 0.43807 0.33604 0.30375 0.0
Li705 Li 0.47356 0.34944 0.30534 0.0
Li706 Li 0.45107 0.31391 0.3028 0.0
Li707 Li 0.4537 0.33121 0.34438 0.0
C708 C 0.44521 0.3254 0.25264 0.0
N709 N 0.42519 0.30723 0.20598 0.0
C710 C 0.45469 0.33037 0.22764 0.0
C711 C 0.42555 0.31119 0.25395 0.0
C712 C 0.44431 0.32102 0.20427 0.0
C713 C 0.41569 0.30217 0.23012 0.0
C714 C 0.464 0.3736 0.33934 0.0
C715 C 0.48368 0.3984 0.37181 0.0
N716 N 0.47786 0.41034 0.36076 0.0
C717 C 0.45803 0.38603 0.32852 0.0
C718 C 0.47677 0.37974 0.36133 0.0
C719 C 0.46528 0.40458 0.33954 0.0
C720 C 0.40242 0.33691 0.30316 0.0
N721 N 0.4196 0.34254 0.29043 0.0
C722 C 0.41306 0.36091 0.25812 0.0
C723 C 0.42503 0.35422 0.26827 0.0
C724 C 0.39534 0.35566 0.27102 0.0
C725 C 0.38999 0.34336 0.29374 0.0
H726 H 0.39856 0.32773 0.32089 0.0
H727 H 0.43895 0.35876 0.25887 0.0
C728 C 0.51292 0.36834 0.28745 0.0
N729 N 0.4974 0.37066 0.29268 0.0
C730 C 0.53007 0.38375 0.27691 0.0
C731 C 0.51487 0.40357 0.27742 0.0
C732 C 0.49802 0.38776 0.28764 0.0
C733 C 0.53119 0.40169 0.27166 0.0
H734 H 0.51189 0.35442 0.29107 0.0
H735 H 0.48533 0.38908 0.29114 0.0
C736 C 0.42065 0.29483 0.34009 0.0
N737 N 0.40359 0.26084 0.36984 0.0
C738 C 0.43189 0.28707 0.34971 0.0
C739 C 0.40074 0.2853 0.34558 0.0
C740 C 0.423 0.26988 0.36472 0.0
C741 C 0.39238 0.26813 0.36066 0.0
C742 C 0.48963 0.33098 0.34136 0.0
C743 C 0.49237 0.31526 0.34685 0.0
C744 C 0.50264 0.3493 0.35184 0.0
C745 C 0.50793 0.31808 0.36318 0.0
C746 C 0.51803 0.35155 0.36806 0.0
N747 N 0.52032 0.33602 0.37338 0.0
C748 C 0.46529 0.29117 0.28071 0.0
C749 C 0.4309 0.27459 0.2834 0.0
C750 C 0.46481 0.27481 0.26955 0.0
N751 N 0.44851 0.29075 0.28747 0.0
C752 C 0.42974 0.25785 0.2723 0.0
C753 C 0.44687 0.25782 0.26522 0.0
H754 H 0.47907 0.30426 0.28413 0.0
H755 H 0.41775 0.2747 0.28875 0.0
C756 C 0.44384 0.33875 0.39592 0.0
N757 N 0.45273 0.33013 0.38314 0.0
C758 C 0.44306 0.33894 0.42418 0.0
C759 C 0.46024 0.32103 0.42565 0.0
C760 C 0.4606 0.32111 0.39739 0.0
C761 C 0.4515 0.33014 0.43943 0.0
H762 H 0.43752 0.34566 0.38412 0.0
H763 H 0.4671 0.31386 0.38692 0.0
O764 O 0.45524 0.33434 0.27569 0.0
O765 O 0.45693 0.35534 0.32883 0.0
O766 O 0.42899 0.31168 0.32541 0.0
O767 O 0.47442 0.3284 0.32546 0.0
H768 H 0.46991 0.34132 0.22634 0.0
H769 H 0.41799 0.30712 0.27313 0.0
H770 H 0.45146 0.32472 0.18477 0.0
H771 H 0.40048 0.29114 0.23083 0.0
H772 H 0.49359 0.40335 0.3888 0.0
H773 H 0.44801 0.38144 0.31167 0.0
H774 H 0.48114 0.37017 0.37048 0.0
H775 H 0.46089 0.4144 0.33123 0.0
H776 H 0.41798 0.37066 0.24092 0.0
H777 H 0.37642 0.33889 0.30422 0.0
H778 H 0.54212 0.38148 0.27239 0.0
H779 H 0.51504 0.41712 0.27411 0.0
H780 H 0.44729 0.2942 0.34558 0.0
H781 H 0.39184 0.29114 0.33826 0.0
H782 H 0.43153 0.26372 0.37228 0.0
H783 H 0.37698 0.2606 0.36508 0.0
H784 H 0.48249 0.30098 0.33875 0.0
H785 H 0.50101 0.36171 0.34726 0.0
H786 H 0.51016 0.30602 0.36774 0.0
H787 H 0.52819 0.36565 0.37634 0.0
H788 H 0.47839 0.27538 0.26476 0.0
H789 H 0.4156 0.24516 0.26902 0.0
H790 H 0.43626 0.34621 0.43397 0.0
H791 H 0.46658 0.31374 0.43659 0.0
Li792 Li 0.12557 0.4766 0.3101 0.0
Li793 Li 0.10249 0.44146 0.30864 0.0
Li794 Li 0.12191 0.45732 0.34858 0.0
Li795 Li 0.13762 0.45391 0.30788 0.0
C796 C 0.09041 0.45938 0.35363 0.0
N797 N 0.06847 0.45461 0.39943 0.0
C798 C 0.07417 0.44132 0.35941 0.0
C799 C 0.09539 0.47506 0.37106 0.0
C800 C 0.06328 0.4392 0.38267 0.0
C801 C 0.08415 0.47233 0.39415 0.0
C802 C 0.11994 0.44739 0.25806 0.0
C803 C 0.11397 0.41752 0.23698 0.0
N804 N 0.11619 0.42587 0.21223 0.0
C805 C 0.12218 0.45568 0.23244 0.0
C806 C 0.11582 0.42816 0.26041 0.0
C807 C 0.12022 0.44456 0.2095 0.0
C808 C 0.14369 0.51085 0.27815 0.0
N809 N 0.1294 0.50069 0.29652 0.0
C810 C 0.11937 0.52444 0.29506 0.0
C811 C 0.1173 0.50707 0.30502 0.0
C812 C 0.13399 0.53531 0.27603 0.0
C813 C 0.14629 0.52832 0.26762 0.0
H814 H 0.15303 0.50533 0.27166 0.0
H815 H 0.10587 0.49855 0.31933 0.0
C816 C 0.06802 0.40406 0.30276 0.0
N817 N 0.07806 0.42276 0.29393 0.0
C818 C 0.04964 0.39127 0.29208 0.0
C819 C 0.05264 0.41711 0.26302 0.0
C820 C 0.07083 0.4294 0.27437 0.0
C821 C 0.04168 0.3978 0.27201 0.0
H822 H 0.07413 0.39921 0.31841 0.0
H823 H 0.07914 0.44438 0.26788 0.0
C824 C 0.15991 0.49632 0.33301 0.0
N825 N 0.18616 0.53579 0.33417 0.0
C826 C 0.17834 0.50367 0.32151 0.0
C827 C 0.15501 0.50904 0.3456 0.0
C828 C 0.19137 0.52366 0.32218 0.0
C829 C 0.1684 0.52895 0.34582 0.0
C830 C 0.12485 0.42373 0.3465 0.0
C831 C 0.14255 0.43495 0.35992 0.0
C832 C 0.11492 0.40353 0.34934 0.0
C833 C 0.15004 0.42571 0.37588 0.0
C834 C 0.12291 0.39485 0.36547 0.0
N835 N 0.14015 0.40602 0.37829 0.0
C836 C 0.10863 0.44026 0.40052 0.0
C837 C 0.13547 0.47235 0.40128 0.0
C838 C 0.10846 0.43947 0.42879 0.0
N839 N 0.12194 0.4566 0.3874 0.0
C840 C 0.13578 0.47222 0.42952 0.0
C841 C 0.12213 0.45564 0.44368 0.0
H842 H 0.09813 0.42786 0.38899 0.0
H843 H 0.14615 0.485 0.39047 0.0
C844 C 0.16972 0.4646 0.27462 0.0
N845 N 0.15768 0.45036 0.29196 0.0
C846 C 0.18549 0.46418 0.26292 0.0
C847 C 0.1756 0.43379 0.28583 0.0
C848 C 0.15999 0.43481 0.29708 0.0
C849 C 0.18883 0.44879 0.26886 0.0
H850 H 0.16718 0.47649 0.27018 0.0
H851 H 0.14989 0.4232 0.30999 0.0
O852 O 0.10154 0.46161 0.33129 0.0
O853 O 0.12192 0.45818 0.28066 0.0
O854 O 0.14686 0.47677 0.33226 0.0
O855 O 0.11698 0.43239 0.33113 0.0
H856 H 0.07014 0.42901 0.34628 0.0
H857 H 0.10788 0.48914 0.36696 0.0
H858 H 0.05075 0.42527 0.38745 0.0
H859 H 0.08793 0.4843 0.40789 0.0
H860 H 0.11079 0.40263 0.23849 0.0
H861 H 0.12542 0.47057 0.23033 0.0
H862 H 0.11409 0.4215 0.28006 0.0
H863 H 0.12191 0.45078 0.18953 0.0
H864 H 0.10933 0.52906 0.30174 0.0
H865 H 0.15783 0.5363 0.25315 0.0
H866 H 0.04171 0.37647 0.29948 0.0
H867 H 0.04698 0.42287 0.24793 0.0
H868 H 0.18266 0.49405 0.31238 0.0
H869 H 0.14087 0.50363 0.35473 0.0
H870 H 0.20565 0.52953 0.31325 0.0
H871 H 0.16467 0.53895 0.3552 0.0
H872 H 0.15047 0.45059 0.35804 0.0
H873 H 0.10118 0.39465 0.33919 0.0
H874 H 0.16372 0.4342 0.38635 0.0
H875 H 0.11539 0.37922 0.36782 0.0
H876 H 0.09759 0.42643 0.43887 0.0
H877 H 0.1468 0.48488 0.44015 0.0
H878 H 0.19499 0.4758 0.24939 0.0
H879 H 0.17755 0.42162 0.29096 0.0
Li880 Li 0.66603 0.1194 0.34899 0.0
Li881 Li 0.686 0.1359 0.30951 0.0
Li882 Li 0.65121 0.12494 0.31162 0.0
Li883 Li 0.66142 0.0998 0.30951 0.0
C884 C 0.66719 0.15894 0.33434 0.0
N885 N 0.65539 0.1863 0.33352 0.0
C886 C 0.67732 0.17582 0.31885 0.0
C887 C 0.65128 0.15617 0.34981 0.0
C888 C 0.67108 0.18943 0.3186 0.0
C889 C 0.64547 0.17011 0.34902 0.0
C890 C 0.69691 0.11579 0.35277 0.0
C891 C 0.70823 0.10144 0.38592 0.0
N892 N 0.71813 0.11889 0.39871 0.0
C893 C 0.7073 0.13362 0.36617 0.0
C894 C 0.69743 0.09958 0.36265 0.0
C895 C 0.7179 0.13487 0.38939 0.0
C896 C 0.66303 0.10265 0.40167 0.0
N897 N 0.66637 0.11893 0.38807 0.0
C898 C 0.67136 0.13611 0.42978 0.0
C899 C 0.67058 0.13551 0.40154 0.0
C900 C 0.6677 0.11944 0.44437 0.0
C901 C 0.66347 0.10254 0.42995 0.0
H902 H 0.66019 0.08978 0.39057 0.0
H903 H 0.67352 0.14838 0.39034 0.0
C904 C 0.70895 0.16606 0.27335 0.0
N905 N 0.71002 0.15534 0.29403 0.0
C906 C 0.72586 0.18105 0.26179 0.0
C907 C 0.74476 0.17339 0.29246 0.0
C908 C 0.72746 0.15844 0.3033 0.0
C909 C 0.74409 0.18506 0.27159 0.0
H910 H 0.6949 0.1632 0.26616 0.0
H911 H 0.72801 0.14942 0.3192 0.0
C912 C 0.63007 0.08921 0.35304 0.0
N913 N 0.60825 0.06687 0.3963 0.0
C914 C 0.62725 0.07054 0.35692 0.0
C915 C 0.62152 0.09637 0.37096 0.0
C916 C 0.61623 0.0595 0.37894 0.0
C917 C 0.61064 0.08491 0.39277 0.0
C918 C 0.67388 0.11986 0.25861 0.0
C919 C 0.66887 0.12547 0.23452 0.0
C920 C 0.68764 0.1138 0.25829 0.0
C921 C 0.67772 0.12487 0.21037 0.0
C922 C 0.69615 0.1134 0.23373 0.0
N923 N 0.69106 0.1189 0.21049 0.0
C924 C 0.63651 0.14397 0.2786 0.0
C925 C 0.61327 0.11883 0.30654 0.0
C926 C 0.62199 0.1466 0.26676 0.0
N927 N 0.63187 0.13016 0.29795 0.0
C928 C 0.59833 0.12091 0.29523 0.0
C929 C 0.60255 0.13471 0.27473 0.0
H930 H 0.65141 0.15258 0.27187 0.0
H931 H 0.60993 0.10779 0.32168 0.0
C932 C 0.6572 0.06153 0.30462 0.0
N933 N 0.65394 0.07518 0.29307 0.0
C934 C 0.64946 0.04305 0.29295 0.0
C935 C 0.63607 0.05341 0.25706 0.0
C936 C 0.64369 0.07146 0.26967 0.0
C937 C 0.63843 0.03865 0.269 0.0
H938 H 0.66506 0.06466 0.32348 0.0
H939 H 0.64103 0.08242 0.26105 0.0
O940 O 0.67282 0.14522 0.33442 0.0
O941 O 0.68606 0.11422 0.33038 0.0
O942 O 0.64093 0.10027 0.33164 0.0
O943 O 0.66554 0.12061 0.28246 0.0
H944 H 0.68988 0.17843 0.30717 0.0
H945 H 0.64344 0.14337 0.36221 0.0
H946 H 0.67874 0.2025 0.30657 0.0
H947 H 0.63307 0.16805 0.36073 0.0
H948 H 0.7087 0.08899 0.39384 0.0
H949 H 0.70689 0.14627 0.35898 0.0
H950 H 0.68953 0.08569 0.35258 0.0
H951 H 0.72585 0.14853 0.40008 0.0
H952 H 0.67459 0.14942 0.44011 0.0
H953 H 0.66086 0.08947 0.4404 0.0
H954 H 0.72464 0.18975 0.24587 0.0
H955 H 0.75852 0.17577 0.30028 0.0
H956 H 0.63357 0.06466 0.3432 0.0
H957 H 0.62334 0.11066 0.36818 0.0
H958 H 0.61404 0.04508 0.38226 0.0
H959 H 0.60409 0.09035 0.4069 0.0
H960 H 0.65829 0.13027 0.2345 0.0
H961 H 0.69175 0.1095 0.27679 0.0
H962 H 0.674 0.12917 0.19155 0.0
H963 H 0.70682 0.10875 0.23316 0.0
H964 H 0.62584 0.15727 0.25083 0.0
H965 H 0.58357 0.11158 0.30218 0.0
H966 H 0.65148 0.03215 0.30321 0.0
H967 H 0.6281 0.051 0.23834 0.0
Li968 Li 0.5534 0.687 0.30602 0.0
Li969 Li 0.54978 0.66912 0.34587 0.0
Li970 Li 0.56618 0.66491 0.30599 0.0
Li971 Li 0.5294 0.65253 0.3065 0.0
C972 C 0.59221 0.70458 0.32797 0.0
N973 N 0.62819 0.73801 0.32645 0.0
C974 C 0.59771 0.71845 0.34852 0.0
C975 C 0.60518 0.70754 0.30694 0.0
C976 C 0.61591 0.73531 0.34729 0.0
C977 C 0.62326 0.72457 0.30646 0.0
C978 C 0.52573 0.68534 0.34354 0.0
C979 C 0.50301 0.69358 0.36321 0.0
N980 N 0.51811 0.71003 0.37375 0.0
C981 C 0.54101 0.70232 0.35452 0.0
C982 C 0.50656 0.68091 0.34786 0.0
C983 C 0.53687 0.71462 0.36975 0.0
C984 C 0.53953 0.71065 0.2859 0.0
N985 N 0.55645 0.711 0.2916 0.0
C986 C 0.57478 0.74381 0.27573 0.0
C987 C 0.57392 0.72714 0.2866 0.0
C988 C 0.55751 0.74385 0.26978 0.0
C989 C 0.53971 0.72694 0.27506 0.0
H990 H 0.5258 0.69757 0.28957 0.0
H991 H 0.58722 0.72714 0.2906 0.0
C992 C 0.56685 0.674 0.39765 0.0
N993 N 0.55 0.66927 0.38457 0.0
C994 C 0.56745 0.67398 0.42593 0.0
C995 C 0.53339 0.66442 0.4267 0.0
C996 C 0.53339 0.66438 0.39845 0.0
C997 C 0.55058 0.66927 0.4408 0.0
H998 H 0.5798 0.67769 0.38607 0.0
H999 H 0.52008 0.66028 0.38758 0.0
C1000 C 0.55028 0.67718 0.25509 0.0
N1001 N 0.55245 0.69878 0.21003 0.0
C1002 C 0.53334 0.67522 0.24352 0.0
C1003 C 0.56831 0.68997 0.24357 0.0
C1004 C 0.53474 0.6863 0.22079 0.0
C1005 C 0.56911 0.7008 0.22084 0.0
C1006 C 0.54007 0.63271 0.35113 0.0
C1007 C 0.55414 0.63022 0.36461 0.0
C1008 C 0.52115 0.62398 0.36135 0.0
C1009 C 0.54904 0.61906 0.38822 0.0
C1010 C 0.51662 0.61291 0.38501 0.0
N1011 N 0.53055 0.61072 0.39785 0.0
C1012 C 0.59712 0.65686 0.31054 0.0
C1013 C 0.58426 0.65393 0.26637 0.0
C1014 C 0.60931 0.65006 0.30149 0.0
N1015 N 0.5847 0.65832 0.29305 0.0
C1016 C 0.59639 0.64735 0.25638 0.0
C1017 C 0.60885 0.64498 0.27413 0.0
H1018 H 0.59723 0.66058 0.33162 0.0
H1019 H 0.5741 0.65504 0.25297 0.0
C1020 C 0.49051 0.63497 0.28647 0.0
N1021 N 0.50521 0.63193 0.29417 0.0
C1022 C 0.47302 0.61948 0.27689 0.0
C1023 C 0.48605 0.59809 0.28415 0.0
C1024 C 0.50334 0.61399 0.2931 0.0
C1025 C 0.47065 0.60074 0.2758 0.0
H1026 H 0.49241 0.64942 0.28762 0.0
H1027 H 0.51534 0.61205 0.29921 0.0
O1028 O 0.57458 0.68784 0.32912 0.0
O1029 O 0.5294 0.67304 0.32858 0.0
O1030 O 0.54923 0.66693 0.27788 0.0
O1031 O 0.54492 0.64413 0.32853 0.0
H1032 H 0.58808 0.7162 0.36535 0.0
H1033 H 0.60133 0.6969 0.29105 0.0
H1034 H 0.6203 0.74621 0.36298 0.0
H1035 H 0.63338 0.72711 0.29019 0.0
H1036 H 0.48824 0.69034 0.36675 0.0
H1037 H 0.55588 0.70598 0.35122 0.0
H1038 H 0.49457 0.66781 0.33945 0.0
H1039 H 0.54857 0.72782 0.37836 0.0
H1040 H 0.58884 0.75639 0.27156 0.0
H1041 H 0.52601 0.72632 0.27107 0.0
H1042 H 0.58101 0.67789 0.43606 0.0
H1043 H 0.52002 0.66042 0.43742 0.0
H1044 H 0.51928 0.66542 0.2522 0.0
H1045 H 0.58156 0.69166 0.25221 0.0
H1046 H 0.52175 0.68504 0.21175 0.0
H1047 H 0.58298 0.71086 0.21183 0.0
H1048 H 0.56887 0.63697 0.35707 0.0
H1049 H 0.51015 0.62599 0.35138 0.0
H1050 H 0.5598 0.61709 0.39894 0.0
H1051 H 0.50207 0.60617 0.39324 0.0
H1052 H 0.61882 0.64855 0.31576 0.0
H1053 H 0.59545 0.64339 0.23522 0.0
H1054 H 0.46141 0.62204 0.27073 0.0
H1055 H 0.48485 0.5839 0.28331 0.0
Li1056 Li 0.5589 0.89667 0.80254 0.0
Li1057 Li 0.54379 0.87762 0.84461 0.0
Li1058 Li 0.547 0.86178 0.8025 0.0
Li1059 Li 0.52512 0.8741 0.80449 0.0
C1060 C 0.58409 0.89393 0.84111 0.0
N1061 N 0.61564 0.91751 0.87337 0.0
C1062 C 0.58569 0.9107 0.85277 0.0
C1063 C 0.59854 0.88916 0.84584 0.0
C1064 C 0.60174 0.92243 0.86902 0.0
C1065 C 0.61439 0.90127 0.8622 0.0
C1066 C 0.52559 0.90199 0.83322 0.0
C1067 C 0.49725 0.89596 0.85882 0.0
N1068 N 0.49604 0.90978 0.84411 0.0
C1069 C 0.52412 0.9162 0.81844 0.0
C1070 C 0.51208 0.8918 0.85361 0.0
C1071 C 0.50905 0.9199 0.82422 0.0
C1072 C 0.56794 0.92832 0.77099 0.0
N1073 N 0.57682 0.92131 0.78721 0.0
C1074 C 0.60748 0.95029 0.78081 0.0
C1075 C 0.59634 0.93158 0.79159 0.0
C1076 C 0.59843 0.95831 0.76514 0.0
C1077 C 0.57847 0.94679 0.75969 0.0
H1078 H 0.55251 0.91955 0.76714 0.0
H1079 H 0.60328 0.92549 0.80374 0.0
C1080 C 0.54109 0.86131 0.8965 0.0
N1081 N 0.54457 0.87771 0.8832 0.0
C1082 C 0.5414 0.86098 0.92479 0.0
C1083 C 0.54915 0.89453 0.92511 0.0
C1084 C 0.54851 0.89415 0.89686 0.0
C1085 C 0.54551 0.87778 0.93945 0.0
H1086 H 0.53802 0.84845 0.88509 0.0
H1087 H 0.55106 0.90695 0.88581 0.0
C1088 C 0.5545 0.87941 0.75287 0.0
N1089 N 0.5777 0.88351 0.70882 0.0
C1090 C 0.54721 0.87744 0.72661 0.0
C1091 C 0.57361 0.88346 0.75672 0.0
C1092 C 0.55915 0.87956 0.70461 0.0
C1093 C 0.5851 0.88548 0.73419 0.0
C1094 C 0.50599 0.83802 0.82727 0.0
C1095 C 0.49771 0.82772 0.80343 0.0
C1096 C 0.4951 0.83274 0.85116 0.0
C1097 C 0.47854 0.81233 0.80383 0.0
C1098 C 0.476 0.81725 0.85073 0.0
N1099 N 0.46818 0.80746 0.82727 0.0
C1100 C 0.56185 0.83583 0.80331 0.0
C1101 C 0.54167 0.8323 0.7659 0.0
C1102 C 0.56409 0.82043 0.79404 0.0
N1103 N 0.55073 0.84137 0.78923 0.0
C1104 C 0.54348 0.81685 0.75593 0.0
C1105 C 0.55475 0.81064 0.77008 0.0
H1106 H 0.56884 0.84328 0.82186 0.0
H1107 H 0.53283 0.83693 0.75516 0.0
C1108 C 0.50262 0.87974 0.76666 0.0
N1109 N 0.50109 0.87104 0.79094 0.0
C1110 C 0.48659 0.87984 0.75533 0.0
C1111 C 0.46751 0.86184 0.79405 0.0
C1112 C 0.48398 0.86224 0.80477 0.0
C1113 C 0.46875 0.87087 0.7691 0.0
H1114 H 0.51646 0.887 0.75633 0.0
H1115 H 0.48319 0.85599 0.82445 0.0
O1116 O 0.56834 0.88199 0.82553 0.0
O1117 O 0.53991 0.89777 0.82741 0.0
O1118 O 0.54285 0.87732 0.77453 0.0
O1119 O 0.52468 0.85314 0.82734 0.0
H1120 H 0.57478 0.91476 0.84908 0.0
H1121 H 0.59751 0.87621 0.837 0.0
H1122 H 0.60316 0.93546 0.87813 0.0
H1123 H 0.62568 0.89775 0.86605 0.0
H1124 H 0.48663 0.88809 0.87443 0.0
H1125 H 0.53444 0.92425 0.80261 0.0
H1126 H 0.51278 0.88052 0.86495 0.0
H1127 H 0.50769 0.93079 0.81285 0.0
H1128 H 0.62284 0.95859 0.78545 0.0
H1129 H 0.57096 0.95208 0.74705 0.0
H1130 H 0.53866 0.84781 0.93507 0.0
H1131 H 0.55213 0.9077 0.93562 0.0
H1132 H 0.53243 0.87425 0.72327 0.0
H1133 H 0.57958 0.88503 0.77681 0.0
H1134 H 0.55368 0.87806 0.68417 0.0
H1135 H 0.5999 0.88862 0.73688 0.0
H1136 H 0.50589 0.83174 0.78475 0.0
H1137 H 0.50132 0.84061 0.86978 0.0
H1138 H 0.4719 0.80429 0.78549 0.0
H1139 H 0.46737 0.81303 0.86903 0.0
H1140 H 0.57308 0.81629 0.80547 0.0
H1141 H 0.53574 0.80958 0.73764 0.0
H1142 H 0.48815 0.88691 0.73599 0.0
H1143 H 0.4541 0.85507 0.80555 0.0
Li1144 Li 0.6678 0.54638 0.84851 0.0
Li1145 Li 0.66561 0.56245 0.80704 0.0
Li1146 Li 0.65157 0.52599 0.80792 0.0
Li1147 Li 0.6866 0.54862 0.80696 0.0
C1148 C 0.6277 0.53853 0.84303 0.0
N1149 N 0.59401 0.53067 0.86994 0.0
C1150 C 0.62451 0.55368 0.8505 0.0
C1151 C 0.61357 0.51935 0.84887 0.0
C1152 C 0.60745 0.54943 0.86421 0.0
C1153 C 0.59669 0.51568 0.86258 0.0
C1154 C 0.69704 0.58963 0.83301 0.0
C1155 C 0.71379 0.62178 0.81362 0.0
N1156 N 0.71315 0.62938 0.83801 0.0
C1157 C 0.69664 0.59775 0.85792 0.0
C1158 C 0.70578 0.60172 0.8107 0.0
C1159 C 0.70484 0.61789 0.86003 0.0
C1160 C 0.67857 0.54033 0.9006 0.0
N1161 N 0.66817 0.54711 0.88731 0.0
C1162 C 0.65865 0.55485 0.92934 0.0
C1163 C 0.65849 0.5545 0.90106 0.0
C1164 C 0.66894 0.54758 0.94365 0.0
C1165 C 0.67906 0.54032 0.92887 0.0
H1166 H 0.68649 0.53491 0.88922 0.0
H1167 H 0.65078 0.56031 0.89013 0.0
C1168 C 0.65406 0.57937 0.7668 0.0
N1169 N 0.66017 0.58166 0.79293 0.0
C1170 C 0.64746 0.59124 0.75588 0.0
C1171 C 0.65413 0.60807 0.79871 0.0
C1172 C 0.66052 0.59581 0.80883 0.0
C1173 C 0.64708 0.60562 0.77204 0.0
H1174 H 0.6536 0.56781 0.75471 0.0
H1175 H 0.6651 0.59717 0.82968 0.0
C1176 C 0.66517 0.50855 0.84488 0.0
N1177 N 0.65148 0.47379 0.87226 0.0
C1178 C 0.6741 0.49737 0.84133 0.0
C1179 C 0.6494 0.50213 0.86252 0.0
C1180 C 0.66693 0.47981 0.8553 0.0
C1181 C 0.64267 0.48452 0.87615 0.0
C1182 C 0.67576 0.5444 0.75605 0.0
C1183 C 0.67161 0.52648 0.74521 0.0
C1184 C 0.68933 0.56158 0.74328 0.0
C1185 C 0.68132 0.52606 0.72187 0.0
C1186 C 0.69875 0.56055 0.71999 0.0
N1187 N 0.69459 0.54296 0.70987 0.0
C1188 C 0.61592 0.5042 0.78272 0.0
C1189 C 0.63021 0.48519 0.7944 0.0
C1190 C 0.60006 0.48811 0.771 0.0
N1191 N 0.63053 0.50247 0.79416 0.0
C1192 C 0.61455 0.46866 0.78301 0.0
C1193 C 0.59925 0.47004 0.77097 0.0
H1194 H 0.61666 0.51817 0.78264 0.0
H1195 H 0.64221 0.48426 0.80299 0.0
C1196 C 0.727 0.5684 0.79304 0.0
N1197 N 0.71023 0.55098 0.79361 0.0
C1198 C 0.7441 0.56971 0.78309 0.0
C1199 C 0.72633 0.53512 0.77462 0.0
C1200 C 0.70962 0.5345 0.7847 0.0
C1201 C 0.74392 0.5529 0.77379 0.0
H1202 H 0.72714 0.58127 0.80045 0.0
H1203 H 0.69606 0.52085 0.78526 0.0
O1204 O 0.64422 0.54243 0.8292 0.0
O1205 O 0.68905 0.56995 0.83056 0.0
O1206 O 0.67195 0.52571 0.83117 0.0
O1207 O 0.66675 0.54511 0.77924 0.0
H1208 H 0.63518 0.56858 0.84609 0.0
H1209 H 0.61548 0.50735 0.84274 0.0
H1210 H 0.6049 0.56104 0.8703 0.0
H1211 H 0.58569 0.50091 0.86729 0.0
H1212 H 0.72049 0.6313 0.79648 0.0
H1213 H 0.69006 0.58862 0.87544 0.0
H1214 H 0.70619 0.59567 0.79127 0.0
H1215 H 0.70458 0.62438 0.87917 0.0
H1216 H 0.6506 0.56053 0.93986 0.0
H1217 H 0.68749 0.53491 0.93903 0.0
H1218 H 0.64187 0.58855 0.73539 0.0
H1219 H 0.65431 0.61907 0.81184 0.0
H1220 H 0.68641 0.50216 0.82789 0.0
H1221 H 0.64259 0.51078 0.86594 0.0
H1222 H 0.67366 0.47098 0.85267 0.0
H1223 H 0.63047 0.4794 0.88988 0.0
H1224 H 0.66117 0.51305 0.75489 0.0
H1225 H 0.69261 0.57555 0.75135 0.0
H1226 H 0.67835 0.5123 0.71334 0.0
H1227 H 0.70937 0.57373 0.70998 0.0
H1228 H 0.58849 0.48978 0.76222 0.0
H1229 H 0.61462 0.45507 0.78308 0.0
H1230 H 0.75737 0.58367 0.78312 0.0
H1231 H 0.72543 0.52185 0.7673 0.0
Li1232 Li 0.10155 0.66476 0.81186 0.0
Li1233 Li 0.1205 0.6682 0.85202 0.0
Li1234 Li 0.13611 0.68572 0.80942 0.0
Li1235 Li 0.12316 0.65082 0.81209 0.0
C1236 C 0.10513 0.69573 0.83402 0.0
N1237 N 0.07866 0.70863 0.8343 0.0
C1238 C 0.0902 0.6886 0.85319 0.0
C1239 C 0.10674 0.70958 0.8152 0.0
C1240 C 0.07691 0.69525 0.85294 0.0
C1241 C 0.09318 0.71589 0.81562 0.0
C1242 C 0.09634 0.62793 0.85071 0.0
C1243 C 0.10726 0.61117 0.8803 0.0
N1244 N 0.08886 0.59575 0.88115 0.0
C1245 C 0.07755 0.6119 0.85182 0.0
C1246 C 0.11135 0.62757 0.86501 0.0
C1247 C 0.07406 0.59577 0.86735 0.0
C1248 C 0.07289 0.66399 0.77554 0.0
N1249 N 0.07619 0.65895 0.80045 0.0
C1250 C 0.04204 0.64025 0.809 0.0
C1251 C 0.06125 0.64765 0.81737 0.0
C1252 C 0.03815 0.64447 0.7829 0.0
C1253 C 0.05389 0.65695 0.76636 0.0
H1254 H 0.0849 0.67278 0.76231 0.0
H1255 H 0.06428 0.64385 0.83708 0.0
C1256 C 0.13766 0.68048 0.90379 0.0
N1257 N 0.1206 0.66927 0.89061 0.0
C1258 C 0.13816 0.68122 0.93206 0.0
C1259 C 0.10348 0.65909 0.93267 0.0
C1260 C 0.10366 0.65876 0.90439 0.0
C1261 C 0.12092 0.67037 0.94692 0.0
H1262 H 0.15086 0.68889 0.8923 0.0
H1263 H 0.09027 0.65001 0.89341 0.0
C1264 C 0.12441 0.67274 0.75753 0.0
N1265 N 0.13605 0.68804 0.70619 0.0
C1266 C 0.13121 0.66407 0.73922 0.0
C1267 C 0.12351 0.68917 0.74967 0.0
C1268 C 0.13702 0.67203 0.71337 0.0
C1269 C 0.12947 0.69669 0.72365 0.0
C1270 C 0.16277 0.67485 0.82732 0.0
C1271 C 0.16649 0.67088 0.80115 0.0
C1272 C 0.17773 0.68249 0.84644 0.0
C1273 C 0.18515 0.67469 0.79447 0.0
C1274 C 0.19622 0.6861 0.83899 0.0
N1275 N 0.19952 0.68216 0.81337 0.0
C1276 C 0.16178 0.72641 0.80854 0.0
C1277 C 0.16761 0.70958 0.77354 0.0
C1278 C 0.17725 0.74412 0.79955 0.0
N1279 N 0.15722 0.70959 0.79545 0.0
C1280 C 0.18294 0.72693 0.76364 0.0
C1281 C 0.18796 0.74449 0.77671 0.0
H1282 H 0.15346 0.72604 0.82608 0.0
H1283 H 0.1641 0.69612 0.76364 0.0
C1284 C 0.11249 0.6185 0.77972 0.0
N1285 N 0.12482 0.62892 0.80005 0.0
C1286 C 0.1127 0.60238 0.76895 0.0
C1287 C 0.13805 0.6077 0.8007 0.0
C1288 C 0.13732 0.62375 0.81091 0.0
C1289 C 0.12566 0.59682 0.77936 0.0
H1290 H 0.1026 0.62288 0.77167 0.0
H1291 H 0.14674 0.63208 0.82743 0.0
O1292 O 0.11795 0.689 0.83352 0.0
O1293 O 0.09995 0.64376 0.83544 0.0
O1294 O 0.11885 0.66525 0.78303 0.0
O1295 O 0.14458 0.67119 0.83434 0.0
H1296 H 0.08873 0.67784 0.86786 0.0
H1297 H 0.11836 0.71543 0.80044 0.0
H1298 H 0.06519 0.68974 0.86752 0.0
H1299 H 0.09421 0.72655 0.80111 0.0
H1300 H 0.11873 0.61071 0.89148 0.0
H1301 H 0.0658 0.61191 0.84076 0.0
H1302 H 0.126 0.63979 0.86435 0.0
H1303 H 0.05958 0.58327 0.86841 0.0
H1304 H 0.03035 0.63088 0.82254 0.0
H1305 H 0.05158 0.66041 0.74599 0.0
H1306 H 0.15188 0.69035 0.94217 0.0
H1307 H 0.08988 0.65035 0.94325 0.0
H1308 H 0.13214 0.65143 0.74494 0.0
H1309 H 0.11856 0.69622 0.76366 0.0
H1310 H 0.14236 0.6655 0.69904 0.0
H1311 H 0.12894 0.70947 0.71739 0.0
H1312 H 0.15509 0.66493 0.78611 0.0
H1313 H 0.17512 0.68557 0.86684 0.0
H1314 H 0.18821 0.6717 0.77425 0.0
H1315 H 0.20794 0.69202 0.85359 0.0
H1316 H 0.1807 0.75739 0.81019 0.0
H1317 H 0.19105 0.72656 0.74626 0.0
H1318 H 0.10303 0.59456 0.75234 0.0
H1319 H 0.14805 0.60375 0.80959 0.0
Li1320 Li 0.44004 0.10372 0.80207 0.0
Li1321 Li 0.45475 0.12329 0.84196 0.0
Li1322 Li 0.45228 0.13842 0.80075 0.0
Li1323 Li 0.47467 0.12636 0.8034 0.0
C1324 C 0.41459 0.10701 0.83861 0.0
N1325 N 0.3824 0.08342 0.86981 0.0
C1326 C 0.41132 0.08889 0.84732 0.0
C1327 C 0.40147 0.11313 0.84572 0.0
C1328 C 0.39498 0.07718 0.86309 0.0
C1329 C 0.38529 0.101 0.86153 0.0
C1330 C 0.47178 0.10023 0.84263 0.0
C1331 C 0.49955 0.1126 0.87235 0.0
N1332 N 0.49638 0.09425 0.87566 0.0
C1333 C 0.46878 0.08149 0.84637 0.0
C1334 C 0.48727 0.11592 0.85576 0.0
C1335 C 0.48138 0.07877 0.86313 0.0
C1336 C 0.42966 0.0669 0.78474 0.0
N1337 N 0.42196 0.07862 0.78835 0.0
C1338 C 0.39091 0.05353 0.77286 0.0
C1339 C 0.40301 0.07244 0.78251 0.0
C1340 C 0.39844 0.04097 0.76954 0.0
C1341 C 0.41812 0.04794 0.77545 0.0
H1342 H 0.44485 0.07232 0.7892 0.0
H1343 H 0.39726 0.0821 0.78553 0.0
C1344 C 0.46176 0.14079 0.89394 0.0
N1345 N 0.45401 0.12351 0.8807 0.0
C1346 C 0.46214 0.14135 0.92225 0.0
C1347 C 0.44613 0.1063 0.92274 0.0
C1348 C 0.44638 0.10645 0.89449 0.0
C1349 C 0.45423 0.12393 0.93715 0.0
H1350 H 0.46789 0.15416 0.88249 0.0
H1351 H 0.4406 0.09289 0.88357 0.0
C1352 C 0.44532 0.11926 0.75097 0.0
N1353 N 0.42303 0.113 0.70511 0.0
C1354 C 0.45231 0.11774 0.72567 0.0
C1355 C 0.42698 0.11759 0.75296 0.0
C1356 C 0.44082 0.11458 0.70272 0.0
C1357 C 0.41594 0.11442 0.72954 0.0
C1358 C 0.48971 0.16539 0.81586 0.0
C1359 C 0.49481 0.16797 0.78846 0.0
C1360 C 0.49939 0.18095 0.83379 0.0
C1361 C 0.50947 0.18609 0.77946 0.0
C1362 C 0.51398 0.19885 0.824 0.0
N1363 N 0.51867 0.20103 0.79726 0.0
C1364 C 0.44061 0.16664 0.8031 0.0
C1365 C 0.4553 0.16617 0.76157 0.0
C1366 C 0.43882 0.1824 0.79429 0.0
N1367 N 0.44881 0.15893 0.78677 0.0
C1368 C 0.45374 0.18185 0.75192 0.0
C1369 C 0.44552 0.19027 0.76841 0.0
H1370 H 0.4357 0.16068 0.82312 0.0
H1371 H 0.46204 0.16003 0.74908 0.0
C1372 C 0.49678 0.11681 0.77044 0.0
N1373 N 0.49853 0.12894 0.79098 0.0
C1374 C 0.51318 0.11706 0.7599 0.0
C1375 C 0.533 0.14241 0.79178 0.0
C1376 C 0.51616 0.14161 0.80181 0.0
C1377 C 0.53161 0.12993 0.77062 0.0
H1378 H 0.48254 0.10685 0.76233 0.0
H1379 H 0.51714 0.15098 0.81834 0.0
O1380 O 0.43045 0.11879 0.82311 0.0
O1381 O 0.45946 0.10302 0.82635 0.0
O1382 O 0.45642 0.12226 0.77357 0.0
O1383 O 0.47532 0.14783 0.82526 0.0
H1384 H 0.42133 0.08391 0.84209 0.0
H1385 H 0.40378 0.12711 0.83909 0.0
H1386 H 0.3923 0.06313 0.87 0.0
H1387 H 0.37502 0.10555 0.8672 0.0
H1388 H 0.51158 0.12462 0.88262 0.0
H1389 H 0.4568 0.06916 0.83647 0.0
H1390 H 0.48978 0.13051 0.8533 0.0
H1391 H 0.47923 0.06434 0.8662 0.0
H1392 H 0.37579 0.04867 0.76859 0.0
H1393 H 0.42457 0.03884 0.77273 0.0
H1394 H 0.46889 0.15535 0.93225 0.0
H1395 H 0.43956 0.09245 0.93309 0.0
H1396 H 0.46647 0.119 0.72381 0.0
H1397 H 0.42131 0.11874 0.77233 0.0
H1398 H 0.44605 0.11338 0.683 0.0
H1399 H 0.40174 0.1131 0.73079 0.0
H1400 H 0.4876 0.15613 0.77425 0.0
H1401 H 0.49566 0.17922 0.85507 0.0
H1402 H 0.51354 0.18826 0.75831 0.0
H1403 H 0.52157 0.21101 0.83766 0.0
H1404 H 0.43225 0.18833 0.80759 0.0
H1405 H 0.4594 0.18763 0.73203 0.0
H1406 H 0.51146 0.10734 0.7434 0.0
H1407 H 0.54691 0.15239 0.80083 0.0
Li1408 Li 0.33402 0.45435 0.85025 0.0
Li1409 Li 0.33587 0.43897 0.80916 0.0
Li1410 Li 0.35043 0.47445 0.80871 0.0
Li1411 Li 0.3152 0.45254 0.80912 0.0
C1412 C 0.36832 0.44952 0.83701 0.0
N1413 N 0.38854 0.43011 0.84612 0.0
C1414 C 0.36237 0.43548 0.8574 0.0
C1415 C 0.3846 0.45372 0.82133 0.0
C1416 C 0.3728 0.42585 0.86171 0.0
C1417 C 0.3946 0.44371 0.8262 0.0
C1418 C 0.30438 0.41149 0.8352 0.0
C1419 C 0.28706 0.37925 0.81614 0.0
N1420 N 0.28775 0.37171 0.84055 0.0
C1421 C 0.30486 0.40342 0.86013 0.0
C1422 C 0.29534 0.39933 0.81304 0.0
C1423 C 0.29639 0.38327 0.86241 0.0
C1424 C 0.31707 0.44844 0.90219 0.0
N1425 N 0.33417 0.45492 0.88884 0.0
C1426 C 0.35156 0.4624 0.93068 0.0
C1427 C 0.35127 0.46204 0.90242 0.0
C1428 C 0.33409 0.45558 0.94509 0.0
C1429 C 0.31669 0.44865 0.93047 0.0
H1430 H 0.3037 0.443 0.89082 0.0
H1431 H 0.36472 0.46743 0.89129 0.0
C1432 C 0.34919 0.42357 0.7693 0.0
N1433 N 0.34113 0.41961 0.79442 0.0
C1434 C 0.35617 0.41212 0.75802 0.0
C1435 C 0.34596 0.39228 0.79832 0.0
C1436 C 0.3393 0.40421 0.8089 0.0
C1437 C 0.35488 0.39637 0.77273 0.0
H1438 H 0.35094 0.43615 0.75842 0.0
H1439 H 0.33341 0.40155 0.82911 0.0
C1440 C 0.33793 0.49117 0.84965 0.0
N1441 N 0.35215 0.52235 0.88481 0.0
C1442 C 0.3265 0.49933 0.85663 0.0
C1443 C 0.35656 0.4988 0.86062 0.0
C1444 C 0.33397 0.51512 0.87441 0.0
C1445 C 0.36349 0.51458 0.87834 0.0
C1446 C 0.32505 0.45639 0.75829 0.0
C1447 C 0.32862 0.47435 0.7484 0.0
C1448 C 0.31154 0.43929 0.74528 0.0
C1449 C 0.31839 0.4749 0.72573 0.0
C1450 C 0.30159 0.44046 0.72269 0.0
N1451 N 0.30518 0.45808 0.71348 0.0
C1452 C 0.38371 0.4958 0.77777 0.0
C1453 C 0.37281 0.51569 0.79798 0.0
C1454 C 0.39927 0.51195 0.76566 0.0
N1455 N 0.37108 0.49794 0.79394 0.0
C1456 C 0.38823 0.53228 0.78634 0.0
C1457 C 0.40177 0.53054 0.77 0.0
H1458 H 0.38158 0.48145 0.77411 0.0
H1459 H 0.36217 0.51701 0.80996 0.0
C1460 C 0.27515 0.4334 0.79372 0.0
N1461 N 0.29168 0.45085 0.79658 0.0
C1462 C 0.25817 0.43246 0.78404 0.0
C1463 C 0.27551 0.46749 0.78066 0.0
C1464 C 0.29213 0.46775 0.79042 0.0
C1465 C 0.25819 0.44967 0.77733 0.0
H1466 H 0.27511 0.42019 0.79898 0.0
H1467 H 0.3055 0.48143 0.79288 0.0
O1468 O 0.35801 0.45879 0.83211 0.0
O1469 O 0.31242 0.43117 0.83269 0.0
O1470 O 0.33065 0.47547 0.8327 0.0
O1471 O 0.3345 0.45551 0.78089 0.0
H1472 H 0.3496 0.43175 0.8694 0.0
H1473 H 0.38944 0.4645 0.80547 0.0
H1474 H 0.36827 0.41487 0.87731 0.0
H1475 H 0.40716 0.44675 0.81411 0.0
H1476 H 0.28013 0.36968 0.79912 0.0
H1477 H 0.31176 0.41261 0.8775 0.0
H1478 H 0.29495 0.40534 0.79357 0.0
H1479 H 0.2967 0.37682 0.88155 0.0
H1480 H 0.36534 0.46816 0.94113 0.0
H1481 H 0.30289 0.44315 0.94079 0.0
H1482 H 0.36326 0.41613 0.73848 0.0
H1483 H 0.34447 0.38022 0.81035 0.0
H1484 H 0.312 0.4935 0.84842 0.0
H1485 H 0.36559 0.49265 0.85546 0.0
H1486 H 0.3253 0.5216 0.87998 0.0
H1487 H 0.37789 0.52065 0.88696 0.0
H1488 H 0.33899 0.48771 0.75832 0.0
H1489 H 0.30868 0.42529 0.75267 0.0
H1490 H 0.32089 0.48869 0.71795 0.0
H1491 H 0.291 0.42734 0.7125 0.0
H1492 H 0.40936 0.50991 0.75327 0.0
H1493 H 0.38937 0.54628 0.78974 0.0
H1494 H 0.2451 0.41842 0.78219 0.0
H1495 H 0.27632 0.48111 0.77541 0.0
Li1496 Li 0.89856 0.33826 0.80595 0.0
Li1497 Li 0.88021 0.33538 0.84876 0.0
Li1498 Li 0.8641 0.31655 0.80593 0.0
Li1499 Li 0.87648 0.35081 0.80797 0.0
C1500 C 0.89754 0.30972 0.83214 0.0
N1501 N 0.92689 0.30082 0.83638 0.0
C1502 C 0.90969 0.31569 0.85481 0.0
C1503 C 0.90026 0.29916 0.81168 0.0
C1504 C 0.92445 0.31104 0.85657 0.0
C1505 C 0.9152 0.29483 0.81418 0.0
C1506 C 0.90857 0.37844 0.83011 0.0
C1507 C 0.91187 0.40808 0.84841 0.0
N1508 N 0.92431 0.41826 0.82798 0.0
C1509 C 0.92142 0.38918 0.80933 0.0
C1510 C 0.90376 0.38793 0.84985 0.0
C1511 C 0.92921 0.40931 0.8086 0.0
C1512 C 0.9258 0.34048 0.76672 0.0
N1513 N 0.92355 0.34412 0.79295 0.0
C1514 C 0.95794 0.36049 0.79992 0.0
C1515 C 0.9391 0.35365 0.80969 0.0
C1516 C 0.96077 0.35752 0.77262 0.0
C1517 C 0.94432 0.34691 0.75617 0.0
H1518 H 0.91329 0.33319 0.75368 0.0
H1519 H 0.93691 0.35661 0.83036 0.0
C1520 C 0.86599 0.31954 0.90047 0.0
N1521 N 0.88074 0.33477 0.88723 0.0
C1522 C 0.86595 0.31868 0.92873 0.0
C1523 C 0.89637 0.3491 0.92916 0.0
C1524 C 0.89585 0.34934 0.9009 0.0
C1525 C 0.88126 0.33364 0.94348 0.0
H1526 H 0.85419 0.30813 0.88902 0.0
H1527 H 0.90756 0.3611 0.88982 0.0
C1528 C 0.8701 0.32653 0.75539 0.0
N1529 N 0.84951 0.30608 0.71016 0.0
C1530 C 0.85743 0.33135 0.74244 0.0
C1531 C 0.87223 0.31124 0.74532 0.0
C1532 C 0.8472 0.32088 0.71958 0.0
C1533 C 0.8617 0.30108 0.72247 0.0
C1534 C 0.84296 0.33703 0.83641 0.0
C1535 C 0.83113 0.33752 0.81583 0.0
C1536 C 0.84165 0.34311 0.8625 0.0
C1537 C 0.81819 0.3441 0.82171 0.0
C1538 C 0.8285 0.34956 0.86757 0.0
N1539 N 0.81714 0.34993 0.84724 0.0
C1540 C 0.84384 0.27543 0.79702 0.0
C1541 C 0.82817 0.29196 0.78005 0.0
C1542 C 0.82894 0.25776 0.78692 0.0
N1543 N 0.84326 0.2921 0.79324 0.0
C1544 C 0.81318 0.27474 0.76931 0.0
C1545 C 0.81346 0.25735 0.7726 0.0
H1546 H 0.85589 0.27586 0.80778 0.0
H1547 H 0.82789 0.30527 0.77746 0.0
C1548 C 0.88161 0.37919 0.77018 0.0
N1549 N 0.87429 0.37263 0.79531 0.0
C1550 C 0.88116 0.39507 0.75901 0.0
C1551 C 0.86627 0.39778 0.80014 0.0
C1552 C 0.86716 0.38191 0.8106 0.0
C1553 C 0.8732 0.40451 0.77388 0.0
H1554 H 0.88803 0.37216 0.75886 0.0
H1555 H 0.86235 0.37719 0.83105 0.0
O1556 O 0.88339 0.31463 0.82968 0.0
O1557 O 0.90035 0.35868 0.83071 0.0
O1558 O 0.88011 0.33647 0.77802 0.0
O1559 O 0.85557 0.33042 0.83121 0.0
H1560 H 0.90787 0.32397 0.87076 0.0
H1561 H 0.89106 0.29452 0.79394 0.0
H1562 H 0.93402 0.31564 0.87395 0.0
H1563 H 0.91754 0.28675 0.79843 0.0
H1564 H 0.90819 0.41561 0.86345 0.0
H1565 H 0.92514 0.38202 0.79376 0.0
H1566 H 0.89361 0.37978 0.86584 0.0
H1567 H 0.9391 0.4178 0.79256 0.0
H1568 H 0.97014 0.36882 0.81329 0.0
H1569 H 0.94575 0.34402 0.73513 0.0
H1570 H 0.85391 0.30659 0.93891 0.0
H1571 H 0.90862 0.36077 0.93966 0.0
H1572 H 0.85519 0.3428 0.75019 0.0
H1573 H 0.8816 0.30697 0.75537 0.0
H1574 H 0.83729 0.32442 0.70945 0.0
H1575 H 0.86312 0.28914 0.71461 0.0
H1576 H 0.83225 0.33336 0.7954 0.0
H1577 H 0.85072 0.34293 0.87866 0.0
H1578 H 0.80906 0.34469 0.80593 0.0
H1579 H 0.82736 0.35432 0.88765 0.0
H1580 H 0.82966 0.24462 0.78989 0.0
H1581 H 0.80135 0.275 0.7588 0.0
H1582 H 0.88728 0.40008 0.73907 0.0
H1583 H 0.86008 0.4046 0.81246 0.0
Li1584 Li 0.13682 0.45233 0.69948 0.0
Li1585 Li 0.12366 0.47512 0.69426 0.0
Li1586 Li 0.10195 0.44049 0.69505 0.0
Li1587 Li 0.12156 0.45529 0.6563 0.0
C1588 C 0.10904 0.4502 0.74657 0.0
N1589 N 0.08494 0.43515 0.791 0.0
C1590 C 0.09706 0.45761 0.75416 0.0
C1591 C 0.10887 0.43523 0.76162 0.0
C1592 C 0.08494 0.44977 0.77667 0.0
C1593 C 0.09657 0.4278 0.78403 0.0
C1594 C 0.1596 0.49441 0.67763 0.0
C1595 C 0.172 0.52832 0.66764 0.0
N1596 N 0.18692 0.53313 0.6852 0.0
C1597 C 0.17509 0.49969 0.69549 0.0
C1598 C 0.15808 0.50883 0.66348 0.0
C1599 C 0.18874 0.51934 0.69906 0.0
C1600 C 0.16791 0.44481 0.69825 0.0
N1601 N 0.15726 0.44957 0.71478 0.0
C1602 C 0.17754 0.45286 0.75248 0.0
C1603 C 0.16168 0.45352 0.74144 0.0
C1604 C 0.18901 0.44821 0.73586 0.0
C1605 C 0.1839 0.44399 0.70842 0.0
H1606 H 0.16417 0.44199 0.67704 0.0
H1607 H 0.15312 0.45754 0.75403 0.0
C1608 C 0.11412 0.50482 0.69813 0.0
N1609 N 0.12636 0.49887 0.70752 0.0
C1610 C 0.11445 0.52113 0.70925 0.0
C1611 C 0.14002 0.52493 0.73954 0.0
C1612 C 0.13917 0.50851 0.72782 0.0
C1613 C 0.12736 0.53129 0.73048 0.0
H1614 H 0.10372 0.49662 0.6825 0.0
H1615 H 0.14839 0.50314 0.73536 0.0
C1616 C 0.10779 0.41168 0.67929 0.0
N1617 N 0.08775 0.37193 0.68744 0.0
C1618 C 0.09041 0.39994 0.66546 0.0
C1619 C 0.11498 0.40318 0.69725 0.0
C1620 C 0.08049 0.37989 0.66988 0.0
C1621 C 0.10464 0.38306 0.70108 0.0
C1622 C 0.09222 0.45948 0.64715 0.0
C1623 C 0.07645 0.44216 0.63774 0.0
C1624 C 0.09941 0.47631 0.63141 0.0
C1625 C 0.06816 0.44197 0.61272 0.0
C1626 C 0.09076 0.47551 0.60647 0.0
N1627 N 0.07544 0.4585 0.59772 0.0
C1628 C 0.06318 0.42808 0.70588 0.0
C1629 C 0.07186 0.40543 0.72216 0.0
C1630 C 0.04434 0.41678 0.71571 0.0
N1631 N 0.07644 0.42217 0.70875 0.0
C1632 C 0.05309 0.39361 0.73237 0.0
C1633 C 0.03898 0.39919 0.72899 0.0
H1634 H 0.06731 0.44183 0.69631 0.0
H1635 H 0.08279 0.40136 0.72537 0.0
C1636 C 0.13628 0.4709 0.60411 0.0
N1637 N 0.12319 0.45465 0.61755 0.0
C1638 C 0.1367 0.47122 0.57583 0.0
C1639 C 0.11049 0.43789 0.57568 0.0
C1640 C 0.11063 0.43822 0.60395 0.0
C1641 C 0.12353 0.45461 0.56119 0.0
H1642 H 0.14625 0.48372 0.61532 0.0
H1643 H 0.10035 0.4255 0.61502 0.0
O1644 O 0.12057 0.45729 0.72416 0.0
O1645 O 0.14589 0.47525 0.67421 0.0
O1646 O 0.11788 0.43132 0.675 0.0
O1647 O 0.10087 0.45984 0.67128 0.0
H1648 H 0.09695 0.46912 0.74258 0.0
H1649 H 0.1179 0.4292 0.7558 0.0
H1650 H 0.07549 0.45526 0.78269 0.0
H1651 H 0.09617 0.41613 0.79577 0.0
H1652 H 0.17091 0.53963 0.65699 0.0
H1653 H 0.17655 0.48877 0.7066 0.0
H1654 H 0.1461 0.50505 0.64978 0.0
H1655 H 0.20077 0.52363 0.71288 0.0
H1656 H 0.18079 0.45601 0.77378 0.0
H1657 H 0.19247 0.44063 0.69476 0.0
H1658 H 0.10456 0.52561 0.70146 0.0
H1659 H 0.15 0.53215 0.7561 0.0
H1660 H 0.08444 0.40624 0.65182 0.0
H1661 H 0.12835 0.41199 0.7082 0.0
H1662 H 0.06696 0.37066 0.65944 0.0
H1663 H 0.11002 0.37631 0.71494 0.0
H1664 H 0.07084 0.42892 0.64941 0.0
H1665 H 0.11175 0.48979 0.63816 0.0
H1666 H 0.05601 0.42865 0.60515 0.0
H1667 H 0.09627 0.48839 0.59402 0.0
H1668 H 0.03417 0.422 0.71339 0.0
H1669 H 0.04964 0.38024 0.74266 0.0
H1670 H 0.14724 0.48433 0.56556 0.0
H1671 H 0.09992 0.42483 0.56533 0.0
Li1672 Li 0.68745 0.13693 0.69932 0.0
Li1673 Li 0.6527 0.12549 0.69616 0.0
Li1674 Li 0.66441 0.10203 0.69687 0.0
Li1675 Li 0.66938 0.12223 0.6568 0.0
C1676 C 0.67176 0.11999 0.75133 0.0
N1677 N 0.68226 0.11896 0.80435 0.0
C1678 C 0.66502 0.12704 0.77211 0.0
C1679 C 0.68363 0.1122 0.75755 0.0
C1680 C 0.67055 0.12647 0.79878 0.0
C1681 C 0.68883 0.11186 0.78447 0.0
C1682 C 0.67779 0.16464 0.68433 0.0
C1683 C 0.68819 0.19847 0.67687 0.0
N1684 N 0.68576 0.20054 0.70368 0.0
C1685 C 0.67539 0.16713 0.7118 0.0
C1686 C 0.68424 0.18044 0.66671 0.0
C1687 C 0.67949 0.18537 0.72119 0.0
C1688 C 0.72735 0.16491 0.69694 0.0
N1689 N 0.71165 0.15694 0.71367 0.0
C1690 C 0.73022 0.179 0.74905 0.0
C1691 C 0.71279 0.1637 0.73929 0.0
C1692 C 0.74661 0.18769 0.73217 0.0
C1693 C 0.74506 0.18042 0.70579 0.0
H1694 H 0.726 0.15939 0.67656 0.0
H1695 H 0.70007 0.15767 0.75199 0.0
C1696 C 0.62081 0.11581 0.72868 0.0
N1697 N 0.63165 0.12834 0.70876 0.0
C1698 C 0.60473 0.11621 0.73918 0.0
C1699 C 0.61125 0.14249 0.70849 0.0
C1700 C 0.62722 0.14153 0.69849 0.0
C1701 C 0.59971 0.12963 0.72902 0.0
H1702 H 0.62467 0.10543 0.73633 0.0
H1703 H 0.63595 0.15118 0.68239 0.0
C1704 C 0.70058 0.10968 0.67523 0.0
N1705 N 0.72477 0.09401 0.67431 0.0
C1706 C 0.6999 0.09809 0.6535 0.0
C1707 C 0.71385 0.11364 0.6962 0.0
C1708 C 0.71216 0.0902 0.65349 0.0
C1709 C 0.72588 0.1055 0.69545 0.0
C1710 C 0.62913 0.09921 0.65701 0.0
C1711 C 0.61317 0.08052 0.65407 0.0
C1712 C 0.62929 0.11483 0.64374 0.0
C1713 C 0.59758 0.07775 0.63785 0.0
C1714 C 0.61342 0.11146 0.62771 0.0
N1715 N 0.59802 0.09315 0.62512 0.0
C1716 C 0.6456 0.07133 0.73256 0.0
C1717 C 0.65998 0.06354 0.69627 0.0
C1718 C 0.63735 0.05249 0.74265 0.0
N1719 N 0.6567 0.07653 0.70982 0.0
C1720 C 0.65185 0.04438 0.70559 0.0
C1721 C 0.64008 0.03857 0.72887 0.0
H1722 H 0.64264 0.08169 0.74249 0.0
H1723 H 0.66822 0.06774 0.6777 0.0
C1724 C 0.67618 0.1389 0.60427 0.0
N1725 N 0.67014 0.12214 0.61829 0.0
C1726 C 0.67606 0.13875 0.57597 0.0
C1727 C 0.66366 0.1041 0.57713 0.0
C1728 C 0.6639 0.10492 0.60539 0.0
C1729 C 0.66974 0.12117 0.56195 0.0
H1730 H 0.68087 0.15235 0.61507 0.0
H1731 H 0.659 0.09178 0.61711 0.0
O1732 O 0.66645 0.12048 0.72512 0.0
O1733 O 0.67404 0.14695 0.67464 0.0
O1734 O 0.68883 0.1177 0.67537 0.0
O1735 O 0.64447 0.1021 0.67285 0.0
H1736 H 0.65571 0.13301 0.76766 0.0
H1737 H 0.68855 0.10622 0.74184 0.0
H1738 H 0.66554 0.13197 0.81504 0.0
H1739 H 0.69802 0.10587 0.78957 0.0
H1740 H 0.6932 0.21081 0.66345 0.0
H1741 H 0.67039 0.15512 0.72577 0.0
H1742 H 0.68622 0.17882 0.64539 0.0
H1743 H 0.6777 0.18747 0.7424 0.0
H1744 H 0.73068 0.18444 0.76931 0.0
H1745 H 0.75738 0.18673 0.69215 0.0
H1746 H 0.59637 0.10618 0.75519 0.0
H1747 H 0.60774 0.1529 0.69988 0.0
H1748 H 0.68991 0.0951 0.63691 0.0
H1749 H 0.71502 0.12306 0.71277 0.0
H1750 H 0.71167 0.08107 0.63691 0.0
H1751 H 0.73616 0.10838 0.71161 0.0
H1752 H 0.61285 0.06829 0.66423 0.0
H1753 H 0.64151 0.1294 0.64578 0.0
H1754 H 0.58512 0.06336 0.63538 0.0
H1755 H 0.61334 0.12342 0.61733 0.0
H1756 H 0.62859 0.04878 0.76083 0.0
H1757 H 0.65407 0.03407 0.69405 0.0
H1758 H 0.68054 0.15222 0.56525 0.0
H1759 H 0.6589 0.09025 0.56733 0.0
Li1760 Li 0.55028 0.6847 0.69604 0.0
Li1761 Li 0.52756 0.64957 0.69168 0.0
Li1762 Li 0.56366 0.66239 0.69363 0.0
Li1763 Li 0.54802 0.66651 0.65348 0.0
C1764 C 0.54931 0.66791 0.74827 0.0
N1765 N 0.55558 0.6761 0.80297 0.0
C1766 C 0.53363 0.66294 0.76567 0.0
C1767 C 0.56814 0.67668 0.75884 0.0
C1768 C 0.53711 0.66732 0.79321 0.0
C1769 C 0.57102 0.6808 0.7865 0.0
C1770 C 0.50881 0.66595 0.66973 0.0
C1771 C 0.47587 0.64405 0.65542 0.0
N1772 N 0.46987 0.65501 0.66899 0.0
C1773 C 0.50233 0.67707 0.68337 0.0
C1774 C 0.4955 0.64938 0.65548 0.0
C1775 C 0.48258 0.67127 0.6828 0.0
C1776 C 0.56518 0.72546 0.69839 0.0
N1777 N 0.55323 0.70828 0.71085 0.0
C1778 C 0.54376 0.72433 0.7433 0.0
C1779 C 0.54255 0.70743 0.73284 0.0
C1780 C 0.55603 0.74234 0.73095 0.0
C1781 C 0.56692 0.74276 0.70825 0.0
H1782 H 0.57326 0.72573 0.68062 0.0
H1783 H 0.5326 0.69355 0.74178 0.0
C1784 C 0.49925 0.61018 0.69829 0.0
N1785 N 0.50327 0.62858 0.70383 0.0
C1786 C 0.48217 0.59426 0.7079 0.0
C1787 C 0.47358 0.6165 0.72863 0.0
C1788 C 0.49085 0.63199 0.71865 0.0
C1789 C 0.46911 0.5973 0.72347 0.0
H1790 H 0.5095 0.60786 0.68681 0.0
H1791 H 0.49442 0.64675 0.72293 0.0
C1792 C 0.59098 0.70023 0.67696 0.0
N1793 N 0.62956 0.72743 0.68609 0.0
C1794 C 0.60466 0.70526 0.65623 0.0
C1795 C 0.59691 0.70925 0.7022 0.0
C1796 C 0.6241 0.71898 0.66128 0.0
C1797 C 0.61647 0.72291 0.70646 0.0
C1798 C 0.54481 0.63223 0.6479 0.0
C1799 C 0.56236 0.63313 0.64138 0.0
C1800 C 0.5286 0.62184 0.63124 0.0
C1801 C 0.56346 0.62376 0.61807 0.0
C1802 C 0.5303 0.6127 0.60809 0.0
N1803 N 0.54755 0.61385 0.60203 0.0
C1804 C 0.57454 0.6415 0.72652 0.0
C1805 C 0.60084 0.66398 0.69945 0.0
C1806 C 0.58605 0.63468 0.73795 0.0
N1807 N 0.58205 0.6559 0.70773 0.0
C1808 C 0.61292 0.65757 0.71036 0.0
C1809 C 0.60553 0.64268 0.72988 0.0
H1810 H 0.55946 0.63515 0.73242 0.0
H1811 H 0.60642 0.67514 0.68412 0.0
C1812 C 0.53384 0.66661 0.60079 0.0
N1813 N 0.54915 0.66783 0.61475 0.0
C1814 C 0.53401 0.66693 0.57253 0.0
C1815 C 0.56588 0.67014 0.57342 0.0
C1816 C 0.56501 0.66959 0.60169 0.0
C1817 C 0.5502 0.66875 0.55837 0.0
H1818 H 0.52143 0.6653 0.61157 0.0
H1819 H 0.57695 0.67042 0.61323 0.0
O1820 O 0.54611 0.66352 0.72126 0.0
O1821 O 0.52808 0.67132 0.67025 0.0
O1822 O 0.5719 0.68673 0.67236 0.0
O1823 O 0.54358 0.6417 0.67027 0.0
H1824 H 0.51894 0.65593 0.758 0.0
H1825 H 0.58043 0.68011 0.74597 0.0
H1826 H 0.52511 0.6637 0.80683 0.0
H1827 H 0.58554 0.68764 0.79489 0.0
H1828 H 0.46541 0.63118 0.64466 0.0
H1829 H 0.51242 0.69005 0.69423 0.0
H1830 H 0.50024 0.64058 0.64487 0.0
H1831 H 0.47736 0.67971 0.69334 0.0
H1832 H 0.53471 0.72318 0.7604 0.0
H1833 H 0.57666 0.75629 0.69815 0.0
H1834 H 0.47952 0.57975 0.70379 0.0
H1835 H 0.46386 0.61954 0.74028 0.0
H1836 H 0.60035 0.69861 0.63648 0.0
H1837 H 0.5865 0.70594 0.71825 0.0
H1838 H 0.63484 0.72292 0.64546 0.0
H1839 H 0.62123 0.72996 0.72593 0.0
H1840 H 0.57506 0.64116 0.65399 0.0
H1841 H 0.5149 0.62095 0.63604 0.0
H1842 H 0.57698 0.62444 0.61268 0.0
H1843 H 0.51791 0.60471 0.59492 0.0
H1844 H 0.57957 0.62291 0.75246 0.0
H1845 H 0.62786 0.66419 0.7036 0.0
H1846 H 0.52142 0.66549 0.56195 0.0
H1847 H 0.57879 0.67181 0.56353 0.0
Li1848 Li 0.87946 0.52896 0.69173 0.0
Li1849 Li 0.86604 0.55154 0.69651 0.0
Li1850 Li 0.88191 0.54877 0.65365 0.0
Li1851 Li 0.90103 0.56358 0.69302 0.0
C1852 C 0.84417 0.50942 0.67453 0.0
N1853 N 0.81814 0.47038 0.68247 0.0
C1854 C 0.82923 0.50358 0.69351 0.0
C1855 C 0.84581 0.4954 0.65949 0.0
C1856 C 0.81622 0.48378 0.69723 0.0
C1857 C 0.83253 0.47574 0.66384 0.0
C1858 C 0.89269 0.55419 0.7446 0.0
C1859 C 0.90384 0.5775 0.78102 0.0
N1860 N 0.91517 0.57035 0.79021 0.0
C1861 C 0.90434 0.54698 0.75446 0.0
C1862 C 0.89236 0.56952 0.75798 0.0
C1863 C 0.91565 0.55539 0.77753 0.0
C1864 C 0.88508 0.4963 0.69232 0.0
N1865 N 0.87627 0.50501 0.705 0.0
C1866 C 0.86422 0.48074 0.73961 0.0
C1867 C 0.86591 0.49759 0.72815 0.0
C1868 C 0.87321 0.47144 0.72699 0.0
C1869 C 0.8836 0.47932 0.7029 0.0
H1870 H 0.89356 0.50271 0.67429 0.0
H1871 H 0.85919 0.50494 0.73791 0.0
C1872 C 0.83533 0.55982 0.69531 0.0
N1873 N 0.84543 0.55417 0.7115 0.0
C1874 C 0.8193 0.56058 0.7055 0.0
C1875 C 0.82448 0.54976 0.74882 0.0
C1876 C 0.84041 0.54925 0.73782 0.0
C1877 C 0.81356 0.55532 0.73254 0.0
H1878 H 0.83955 0.56344 0.67436 0.0
H1879 H 0.84855 0.54455 0.75012 0.0
C1880 C 0.91237 0.54592 0.6458 0.0
N1881 N 0.93163 0.54924 0.59773 0.0
C1882 C 0.92897 0.56345 0.63897 0.0
C1883 C 0.90557 0.53009 0.62812 0.0
C1884 C 0.93852 0.56482 0.61462 0.0
C1885 C 0.91549 0.53207 0.60392 0.0
C1886 C 0.89517 0.59232 0.67584 0.0
C1887 C 0.91253 0.60385 0.66188 0.0
C1888 C 0.88783 0.6011 0.69305 0.0
C1889 C 0.9223 0.62399 0.66543 0.0
C1890 C 0.89801 0.62129 0.69601 0.0
N1891 N 0.9149 0.63222 0.68227 0.0
C1892 C 0.86617 0.53371 0.60174 0.0
C1893 C 0.89409 0.56508 0.60089 0.0
C1894 C 0.86548 0.53316 0.57347 0.0
N1895 N 0.88049 0.54939 0.61484 0.0
C1896 C 0.89397 0.56515 0.57262 0.0
C1897 C 0.87963 0.54896 0.55849 0.0
H1898 H 0.85535 0.52153 0.61321 0.0
H1899 H 0.90532 0.57737 0.61168 0.0
C1900 C 0.93878 0.57502 0.7085 0.0
N1901 N 0.92609 0.58179 0.70811 0.0
C1902 C 0.95682 0.58562 0.72104 0.0
C1903 C 0.94864 0.61017 0.73281 0.0
C1904 C 0.9306 0.59895 0.72021 0.0
C1905 C 0.96192 0.6034 0.73355 0.0
H1906 H 0.93468 0.56106 0.69962 0.0
H1907 H 0.92003 0.60367 0.72099 0.0
O1908 O 0.85739 0.52873 0.67114 0.0
O1909 O 0.88201 0.54657 0.72157 0.0
O1910 O 0.9026 0.54439 0.66934 0.0
O1911 O 0.88521 0.5726 0.67235 0.0
H1912 H 0.82774 0.5142 0.70537 0.0
H1913 H 0.85743 0.49962 0.64498 0.0
H1914 H 0.80462 0.47906 0.71192 0.0
H1915 H 0.83374 0.46474 0.6525 0.0
H1916 H 0.90385 0.58945 0.7915 0.0
H1917 H 0.90484 0.5352 0.74419 0.0
H1918 H 0.88357 0.57539 0.75039 0.0
H1919 H 0.92485 0.55007 0.7853 0.0
H1920 H 0.85599 0.47505 0.75812 0.0
H1921 H 0.89099 0.47275 0.69277 0.0
H1922 H 0.81117 0.5647 0.69212 0.0
H1923 H 0.82071 0.54577 0.76983 0.0
H1924 H 0.93429 0.57597 0.65211 0.0
H1925 H 0.89254 0.51654 0.63273 0.0
H1926 H 0.95133 0.57831 0.60906 0.0
H1927 H 0.9103 0.51998 0.58998 0.0
H1928 H 0.91859 0.59733 0.64881 0.0
H1929 H 0.87446 0.59244 0.70409 0.0
H1930 H 0.93581 0.63307 0.65487 0.0
H1931 H 0.89251 0.62827 0.70929 0.0
H1932 H 0.85394 0.52052 0.56347 0.0
H1933 H 0.90529 0.57757 0.56196 0.0
H1934 H 0.96666 0.5799 0.72105 0.0
H1935 H 0.9519 0.62364 0.74267 0.0
Li1936 Li 0.34808 0.87725 0.6978 0.0
Li1937 Li 0.31362 0.86524 0.70127 0.0
Li1938 Li 0.32962 0.8797 0.65804 0.0
Li1939 Li 0.33423 0.89911 0.69846 0.0
C1940 C 0.31409 0.83681 0.67517 0.0
N1941 N 0.28612 0.79787 0.67488 0.0
C1942 C 0.31683 0.82349 0.69025 0.0
C1943 C 0.29712 0.83033 0.65995 0.0
C1944 C 0.30253 0.80386 0.68981 0.0
C1945 C 0.28314 0.81059 0.66008 0.0
C1946 C 0.32854 0.87348 0.7522 0.0
C1947 C 0.30828 0.86582 0.79189 0.0
N1948 N 0.31682 0.85612 0.80245 0.0
C1949 C 0.3372 0.86352 0.76356 0.0
C1950 C 0.31405 0.87474 0.76658 0.0
C1951 C 0.33105 0.85483 0.78895 0.0
C1952 C 0.38338 0.89002 0.72419 0.0
N1953 N 0.37014 0.87547 0.70827 0.0
C1954 C 0.38858 0.85922 0.70972 0.0
C1955 C 0.37252 0.86036 0.70061 0.0
C1956 C 0.40239 0.87393 0.72652 0.0
C1957 C 0.39971 0.88956 0.73356 0.0
H1958 H 0.38107 0.90187 0.72986 0.0
H1959 H 0.36197 0.84921 0.68745 0.0
C1960 C 0.27258 0.84183 0.70826 0.0
N1961 N 0.29001 0.84441 0.71672 0.0
C1962 C 0.25524 0.82635 0.71818 0.0
C1963 C 0.27406 0.81652 0.74545 0.0
C1964 C 0.29098 0.83195 0.73471 0.0
C1965 C 0.25589 0.81353 0.73714 0.0
H1966 H 0.27212 0.85161 0.69344 0.0
H1967 H 0.30488 0.83369 0.74031 0.0
C1968 C 0.36975 0.90438 0.65729 0.0
N1969 N 0.40065 0.91288 0.6234 0.0
C1970 C 0.3839 0.92369 0.65242 0.0
C1971 C 0.37129 0.88938 0.64492 0.0
C1972 C 0.39943 0.92769 0.63522 0.0
C1973 C 0.38703 0.89398 0.62785 0.0
C1974 C 0.30212 0.89512 0.68096 0.0
C1975 C 0.30437 0.90837 0.66073 0.0
C1976 C 0.29259 0.89459 0.70499 0.0
C1977 C 0.2973 0.9211 0.66507 0.0
C1978 C 0.28572 0.90754 0.70857 0.0
N1979 N 0.28822 0.92044 0.68871 0.0
C1980 C 0.32577 0.86332 0.60559 0.0
C1981 C 0.33347 0.89623 0.606 0.0
C1982 C 0.32612 0.86328 0.57731 0.0
N1983 N 0.3292 0.87958 0.61931 0.0
C1984 C 0.33386 0.89681 0.57771 0.0
C1985 C 0.33015 0.88017 0.56297 0.0
H1986 H 0.32302 0.85044 0.61657 0.0
H1987 H 0.33692 0.90918 0.61738 0.0
C1988 C 0.33899 0.92714 0.73747 0.0
N1989 N 0.34031 0.92433 0.71061 0.0
C1990 C 0.34597 0.94585 0.74766 0.0
C1991 C 0.35495 0.95846 0.7022 0.0
C1992 C 0.3478 0.93945 0.69288 0.0
C1993 C 0.35454 0.96187 0.73005 0.0
H1994 H 0.33323 0.91495 0.75117 0.0
H1995 H 0.34892 0.9368 0.67165 0.0
O1996 O 0.32768 0.85617 0.67586 0.0
O1997 O 0.33447 0.88219 0.7274 0.0
O1998 O 0.35442 0.90029 0.67396 0.0
O1999 O 0.30944 0.8829 0.67746 0.0
H2000 H 0.32967 0.82828 0.7026 0.0
H2001 H 0.29462 0.84051 0.64853 0.0
H2002 H 0.3044 0.7934 0.7015 0.0
H2003 H 0.26989 0.8054 0.64853 0.0
H2004 H 0.297 0.86659 0.80313 0.0
H2005 H 0.34837 0.86229 0.75283 0.0
H2006 H 0.3072 0.8824 0.75827 0.0
H2007 H 0.33755 0.84699 0.79788 0.0
H2008 H 0.39028 0.84708 0.70351 0.0
H2009 H 0.40992 0.90112 0.74663 0.0
H2010 H 0.24147 0.82445 0.71117 0.0
H2011 H 0.27518 0.80667 0.75954 0.0
H2012 H 0.38288 0.93546 0.66183 0.0
H2013 H 0.36045 0.87434 0.64835 0.0
H2014 H 0.41049 0.94258 0.63126 0.0
H2015 H 0.3884 0.88252 0.61813 0.0
H2016 H 0.31157 0.90892 0.64195 0.0
H2017 H 0.29057 0.88431 0.72074 0.0
H2018 H 0.29904 0.93151 0.64964 0.0
H2019 H 0.27841 0.90735 0.72714 0.0
H2020 H 0.32316 0.85012 0.56679 0.0
H2021 H 0.33745 0.91025 0.5675 0.0
H2022 H 0.34519 0.94781 0.76923 0.0
H2023 H 0.36163 0.97039 0.68796 0.0
Li2024 Li 0.45096 0.31673 0.69491 0.0
Li2025 Li 0.47357 0.35179 0.69123 0.0
Li2026 Li 0.43733 0.33857 0.69357 0.0
Li2027 Li 0.45267 0.33504 0.6521 0.0
C2028 C 0.45216 0.33023 0.74655 0.0
N2029 N 0.44614 0.31524 0.79836 0.0
C2030 C 0.468 0.33419 0.76308 0.0
C2031 C 0.43328 0.31893 0.7565 0.0
C2032 C 0.46465 0.32639 0.78918 0.0
C2033 C 0.43053 0.31141 0.78271 0.0
C2034 C 0.49184 0.33658 0.66245 0.0
C2035 C 0.52089 0.35749 0.63715 0.0
N2036 N 0.53015 0.3491 0.64953 0.0
C2037 C 0.50157 0.32803 0.67473 0.0
C2038 C 0.5015 0.35131 0.64334 0.0
C2039 C 0.52097 0.33462 0.668 0.0
C2040 C 0.43326 0.27572 0.70154 0.0
N2041 N 0.4483 0.29322 0.70936 0.0
C2042 C 0.46102 0.27763 0.73732 0.0
C2043 C 0.46212 0.29444 0.72676 0.0
C2044 C 0.44564 0.25931 0.72969 0.0
C2045 C 0.43161 0.2585 0.71155 0.0
H2046 H 0.42265 0.2751 0.68728 0.0
H2047 H 0.47421 0.3085 0.73208 0.0
C2048 C 0.50059 0.39097 0.70142 0.0
N2049 N 0.49787 0.37271 0.70322 0.0
C2050 C 0.5176 0.40681 0.71131 0.0
C2051 C 0.52871 0.38478 0.7249 0.0
C2052 C 0.51143 0.36934 0.7148 0.0
C2053 C 0.53195 0.40385 0.72335 0.0
H2054 H 0.48935 0.3932 0.69285 0.0
H2055 H 0.5087 0.35463 0.71666 0.0
C2056 C 0.40959 0.30394 0.66999 0.0
N2057 N 0.36954 0.28254 0.66666 0.0
C2058 C 0.40016 0.30395 0.64611 0.0
C2059 C 0.39867 0.29286 0.69206 0.0
C2060 C 0.37989 0.29307 0.64485 0.0
C2061 C 0.37843 0.2822 0.69002 0.0
C2062 C 0.45779 0.37239 0.65158 0.0
C2063 C 0.44148 0.3744 0.64733 0.0
C2064 C 0.47484 0.38404 0.63706 0.0
C2065 C 0.4424 0.38779 0.62822 0.0
C2066 C 0.47518 0.39726 0.61811 0.0
N2067 N 0.45909 0.39883 0.6141 0.0
C2068 C 0.42519 0.35661 0.73028 0.0
C2069 C 0.40111 0.33915 0.69717 0.0
C2070 C 0.41378 0.36354 0.74178 0.0
N2071 N 0.41878 0.34471 0.70835 0.0
C2072 C 0.38914 0.34566 0.70812 0.0
C2073 C 0.39551 0.35822 0.7306 0.0
H2074 H 0.43946 0.36114 0.73844 0.0
H2075 H 0.39646 0.33015 0.67931 0.0
C2076 C 0.46105 0.32578 0.60047 0.0
N2077 N 0.45156 0.33374 0.61333 0.0
C2078 C 0.46102 0.32481 0.57223 0.0
C2079 C 0.44111 0.33988 0.5709 0.0
C2080 C 0.44145 0.34047 0.59917 0.0
C2081 C 0.45107 0.33205 0.55698 0.0
H2082 H 0.46862 0.32013 0.61216 0.0
H2083 H 0.43354 0.34621 0.60975 0.0
O2084 O 0.45517 0.33762 0.72088 0.0
O2085 O 0.4729 0.33046 0.66896 0.0
O2086 O 0.42942 0.3145 0.67155 0.0
O2087 O 0.45716 0.35938 0.67027 0.0
H2088 H 0.48271 0.34305 0.75575 0.0
H2089 H 0.42089 0.31609 0.74419 0.0
H2090 H 0.47676 0.32921 0.80212 0.0
H2091 H 0.41599 0.30258 0.79065 0.0
H2092 H 0.52856 0.36893 0.62246 0.0
H2093 H 0.49427 0.3165 0.68938 0.0
H2094 H 0.49407 0.35782 0.63332 0.0
H2095 H 0.52872 0.32821 0.67746 0.0
H2096 H 0.47239 0.27896 0.75078 0.0
H2097 H 0.41947 0.24471 0.7052 0.0
H2098 H 0.51921 0.42115 0.71021 0.0
H2099 H 0.53938 0.3818 0.73388 0.0
H2100 H 0.40839 0.3123 0.62877 0.0
H2101 H 0.40574 0.29241 0.71051 0.0
H2102 H 0.3724 0.29302 0.62654 0.0
H2103 H 0.36979 0.27361 0.70698 0.0
H2104 H 0.4282 0.36559 0.65846 0.0
H2105 H 0.48773 0.38301 0.6405 0.0
H2106 H 0.42985 0.38939 0.62459 0.0
H2107 H 0.48827 0.40632 0.60667 0.0
H2108 H 0.41956 0.37351 0.75869 0.0
H2109 H 0.37514 0.34106 0.69889 0.0
H2110 H 0.46854 0.31825 0.56248 0.0
H2111 H 0.43333 0.34574 0.5601 0.0
C2112 C 0.40735 0.01071 0.23912 0.0
C2113 C 0.39876 0.02248 0.23968 0.0
H2114 H 0.40548 0.98395 0.25002 0.0
C2115 C 0.3801 0.01475 0.25112 0.0
H2116 H 0.42146 0.01578 0.22999 0.0
C2117 C 0.37039 0.99584 0.2617 0.0
C2118 C 0.37918 0.98422 0.26142 0.0
H2119 H 0.37302 0.02336 0.25223 0.0
H2120 H 0.35593 0.99032 0.26988 0.0
C2121 C 0.39789 0.99208 0.25016 0.0
C2122 C 0.375 0.37113 0.28021 0.0
C2123 C 0.38322 0.36395 0.26154 0.0
H2124 H 0.35973 0.3867 0.2862 0.0
C2125 C 0.38098 0.36604 0.23372 0.0
H2126 H 0.37657 0.36989 0.30178 0.0
C2127 C 0.37147 0.37582 0.22479 0.0
C2128 C 0.36402 0.38378 0.24347 0.0
H2129 H 0.38693 0.36046 0.2188 0.0
H2130 H 0.3707 0.37784 0.20324 0.0
C2131 C 0.36553 0.38096 0.27128 0.0
C2132 C 0.99853 0.37489 0.22415 0.0
C2133 C 0.98305 0.36405 0.24203 0.0
H2134 H 0.02919 0.39386 0.21952 0.0
C2135 C 0.98722 0.36315 0.26949 0.0
H2136 H 0.99583 0.37603 0.20293 0.0
C2137 C 0.00634 0.37347 0.27903 0.0
C2138 C 0.02172 0.38502 0.26136 0.0
H2139 H 0.97563 0.35476 0.28373 0.0
H2140 H 0.00897 0.37304 0.30046 0.0
C2141 C 0.01763 0.38528 0.23371 0.0
C2142 C 0.60048 0.99231 0.23447 0.0
C2143 C 0.60861 0.98017 0.23638 0.0
H2144 H 0.60297 0.01962 0.24385 0.0
C2145 C 0.62701 0.98764 0.24852 0.0
H2146 H 0.58655 0.98732 0.22481 0.0
C2147 C 0.63685 0.00664 0.25879 0.0
C2148 C 0.62849 0.01861 0.25732 0.0
H2149 H 0.6337 0.97871 0.25056 0.0
H2150 H 0.65103 0.01192 0.26783 0.0
C2151 C 0.61015 0.01112 0.245 0.0
C2152 C 0.61976 0.62056 0.27886 0.0
C2153 C 0.62026 0.63602 0.26446 0.0
H2154 H 0.62768 0.59859 0.27998 0.0
C2155 C 0.63079 0.64206 0.24013 0.0
H2156 H 0.61148 0.61538 0.29744 0.0
C2157 C 0.64047 0.63266 0.23026 0.0
C2158 C 0.63958 0.6168 0.2443 0.0
H2159 H 0.63152 0.65405 0.22872 0.0
H2160 H 0.64859 0.6378 0.21157 0.0
C2161 C 0.62916 0.61098 0.26883 0.0
C2162 C 0.01553 0.6402 0.26511 0.0
C2163 C 0.02062 0.6355 0.24013 0.0
H2164 H 0.99293 0.6333 0.29422 0.0
C2165 C 0.0061 0.62056 0.22442 0.0
H2166 H 0.02645 0.6517 0.27757 0.0
C2167 C 0.98704 0.60995 0.23404 0.0
C2168 C 0.98207 0.61424 0.25939 0.0
H2169 H 0.00965 0.61651 0.20521 0.0
H2170 H 0.97624 0.59811 0.2219 0.0
C2171 C 0.99637 0.62977 0.27456 0.0
C2172 C 0.60047 0.99029 0.75612 0.0
C2173 C 0.60935 0.9788 0.75554 0.0
H2174 H 0.60293 0.01775 0.74771 0.0
C2175 C 0.62858 0.98714 0.74605 0.0
H2176 H 0.5858 0.98449 0.76369 0.0
C2177 C 0.63862 0.00651 0.73727 0.0
C2178 C 0.62967 0.01795 0.73794 0.0
H2179 H 0.63581 0.97866 0.74516 0.0
H2180 H 0.65346 0.01259 0.73028 0.0
C2181 C 0.61043 0.00952 0.74733 0.0
C2182 C 0.64025 0.62293 0.73459 0.0
C2183 C 0.63803 0.61688 0.76176 0.0
H2184 H 0.63172 0.6357 0.70317 0.0
C2185 C 0.62604 0.62061 0.77872 0.0
H2186 H 0.64955 0.62051 0.72103 0.0
C2187 C 0.61604 0.62955 0.76858 0.0
C2188 C 0.61768 0.63493 0.74117 0.0
H2189 H 0.62379 0.61599 0.79967 0.0
H2190 H 0.60676 0.63197 0.78217 0.0
C2191 C 0.6302 0.63185 0.72441 0.0
C2192 C 0.98736 0.60461 0.76465 0.0
C2193 C 0.98084 0.61441 0.74777 0.0
H2194 H 0.01047 0.60638 0.78887 0.0
C2195 C 0.99282 0.63451 0.74384 0.0
H2196 H 0.97834 0.58916 0.76834 0.0
C2197 C 0.01128 0.64446 0.75575 0.0
C2198 C 0.01799 0.63452 0.77207 0.0
H2199 H 0.98817 0.64242 0.73088 0.0
H2200 H 0.02037 0.65988 0.75198 0.0
C2201 C 0.00568 0.61454 0.77668 0.0
C2202 C 0.38714 0.00552 0.77344 0.0
C2203 C 0.38601 0.0206 0.76033 0.0
H2204 H 0.3782 0.97531 0.77414 0.0
C2205 C 0.37364 0.01613 0.73784 0.0
H2206 H 0.3964 0.00848 0.79098 0.0
C2207 C 0.36312 0.99701 0.72815 0.0
C2208 C 0.36458 0.982 0.74101 0.0
H2209 H 0.37256 0.0275 0.72727 0.0
H2210 H 0.35394 0.99399 0.71052 0.0
C2211 C 0.37654 0.98646 0.76395 0.0
C2212 C 0.37377 0.37905 0.77966 0.0
C2213 C 0.36389 0.38514 0.76213 0.0
H2214 H 0.39101 0.36542 0.78366 0.0
C2215 C 0.36358 0.38126 0.7343 0.0
H2216 H 0.37456 0.38197 0.80117 0.0
C2217 C 0.37341 0.37212 0.72415 0.0
C2218 C 0.38373 0.36651 0.7416 0.0
H2219 H 0.3559 0.38549 0.72023 0.0
H2220 H 0.37341 0.37002 0.7025 0.0
C2221 C 0.38348 0.36979 0.76954 0.0
C2222 C 0.00299 0.3851 0.72435 0.0
C2223 C 0.01886 0.38712 0.73952 0.0
H2224 H 0.97249 0.37455 0.72293 0.0
C2225 C 0.01537 0.37831 0.76516 0.0
H2226 H 0.00512 0.39146 0.70437 0.0
C2227 C 0.99648 0.36826 0.77572 0.0
C2228 C 0.98069 0.36677 0.76083 0.0
H2229 H 0.02729 0.37968 0.77744 0.0
H2230 H 0.99429 0.36182 0.79565 0.0
C2231 C 0.98419 0.37513 0.73488 0.0
C2232 C 0.43316 0.20517 0.25357 0.0
C2233 C 0.44604 0.20693 0.23277 0.0
H2234 H 0.42336 0.21979 0.28019 0.0
C2235 C 0.45875 0.2255 0.22222 0.0
H2236 H 0.42306 0.19107 0.26198 0.0
C2237 C 0.4588 0.24191 0.23247 0.0
C2238 C 0.44615 0.2402 0.25356 0.0
H2239 H 0.46902 0.22744 0.20642 0.0
H2240 H 0.46879 0.25597 0.22387 0.0
C2241 C 0.43319 0.22161 0.26381 0.0
C2242 C 0.2243 0.46603 0.25695 0.0
C2243 C 0.20628 0.4487 0.25806 0.0
H2244 H 0.25445 0.47965 0.24672 0.0
C2245 C 0.20522 0.43135 0.2493 0.0
H2246 H 0.22573 0.47962 0.26383 0.0
C2247 C 0.2218 0.43132 0.2398 0.0
C2248 C 0.23985 0.44864 0.23891 0.0
H2249 H 0.19154 0.41777 0.24963 0.0
H2250 H 0.22054 0.41767 0.23354 0.0
C2251 C 0.24086 0.466 0.24748 0.0
C2252 C 0.76448 0.20562 0.23279 0.0
C2253 C 0.76222 0.20173 0.26073 0.0
H2254 H 0.78224 0.22474 0.20121 0.0
C2255 C 0.7771 0.21433 0.27837 0.0
H2256 H 0.75334 0.1961 0.21867 0.0
C2257 C 0.79366 0.23069 0.26838 0.0
C2258 C 0.79578 0.23477 0.2405 0.0
H2259 H 0.77573 0.21183 0.30001 0.0
H2260 H 0.80479 0.24022 0.28252 0.0
C2261 C 0.78111 0.22192 0.22278 0.0
C2262 C 0.54453 0.77548 0.22712 0.0
C2263 C 0.55793 0.79428 0.23626 0.0
H2264 H 0.5341 0.74499 0.2301 0.0
C2265 C 0.57146 0.7964 0.25625 0.0
H2266 H 0.53372 0.77325 0.21202 0.0
C2267 C 0.57148 0.78009 0.26695 0.0
C2268 C 0.55794 0.76129 0.25795 0.0
H2269 H 0.5821 0.81067 0.26357 0.0
H2270 H 0.58189 0.78221 0.28262 0.0
C2271 C 0.54456 0.75922 0.23777 0.0
C2272 C 0.77226 0.56333 0.26352 0.0
C2273 C 0.76402 0.55428 0.23871 0.0
H2274 H 0.79484 0.57065 0.29268 0.0
C2275 C 0.77295 0.54575 0.22392 0.0
H2276 H 0.76566 0.56989 0.27555 0.0
C2277 C 0.78953 0.546 0.23388 0.0
C2278 C 0.79763 0.5548 0.25887 0.0
H2279 H 0.76713 0.53886 0.20459 0.0
H2280 H 0.79575 0.5389 0.22221 0.0
C2281 C 0.78887 0.56357 0.2735 0.0
C2282 C 0.21861 0.76216 0.26874 0.0
C2283 C 0.20733 0.76349 0.24781 0.0
H2284 H 0.24348 0.7772 0.29438 0.0
C2285 C 0.21244 0.78194 0.23754 0.0
H2286 H 0.21493 0.74821 0.27736 0.0
C2287 C 0.22871 0.79862 0.24753 0.0
C2288 C 0.24022 0.79725 0.26807 0.0
H2289 H 0.20415 0.78348 0.22129 0.0
H2290 H 0.23233 0.8126 0.23904 0.0
C2291 C 0.23484 0.77883 0.27875 0.0
C2292 C 0.55775 0.77443 0.72288 0.0
C2293 C 0.55684 0.76039 0.74109 0.0
H2294 H 0.55818 0.80136 0.71768 0.0
C2295 C 0.55606 0.76345 0.769 0.0
H2296 H 0.55817 0.77249 0.70125 0.0
C2297 C 0.55575 0.7799 0.77843 0.0
C2298 C 0.55625 0.79372 0.76018 0.0
H2299 H 0.5556 0.75308 0.78363 0.0
H2300 H 0.55461 0.7815 0.80001 0.0
C2301 C 0.5575 0.79089 0.7323 0.0
C2302 C 0.76621 0.5391 0.77018 0.0
C2303 C 0.76195 0.55378 0.76352 0.0
H2304 H 0.78562 0.52798 0.76552 0.0
C2305 C 0.77497 0.56916 0.74684 0.0
H2306 H 0.75662 0.52716 0.78323 0.0
C2307 C 0.79175 0.56973 0.73688 0.0
C2308 C 0.79594 0.55499 0.74347 0.0
H2309 H 0.77205 0.58061 0.74113 0.0
H2310 H 0.8015 0.5818 0.72415 0.0
C2311 C 0.78298 0.5397 0.7603 0.0
C2312 C 0.23554 0.79231 0.77532 0.0
C2313 C 0.23782 0.79664 0.74751 0.0
H2314 H 0.21784 0.77251 0.80639 0.0
C2315 C 0.22313 0.78421 0.72955 0.0
H2316 H 0.24662 0.80172 0.78962 0.0
C2317 C 0.20677 0.76745 0.7391 0.0
C2318 C 0.20465 0.76294 0.76685 0.0
H2319 H 0.22458 0.78713 0.708 0.0
H2320 H 0.19582 0.75791 0.72475 0.0
C2321 C 0.21904 0.7757 0.78493 0.0
C2322 C 0.43957 0.22537 0.7226 0.0
C2323 C 0.44464 0.24122 0.73998 0.0
H2324 H 0.43567 0.19685 0.71796 0.0
C2325 C 0.4493 0.23987 0.76706 0.0
H2326 H 0.43607 0.22599 0.70157 0.0
C2327 C 0.44922 0.22321 0.7764 0.0
C2328 C 0.44454 0.20753 0.75887 0.0
H2329 H 0.45307 0.25173 0.78106 0.0
H2330 H 0.4533 0.22284 0.79721 0.0
C2331 C 0.43955 0.20875 0.73192 0.0
C2332 C 0.21881 0.4627 0.76535 0.0
C2333 C 0.20651 0.4483 0.74687 0.0
H2334 H 0.2445 0.47429 0.78964 0.0
C2335 C 0.21127 0.43423 0.73868 0.0
H2336 H 0.21574 0.47391 0.77185 0.0
C2337 C 0.22795 0.43461 0.74863 0.0
C2338 C 0.24029 0.44908 0.76699 0.0
H2339 H 0.20205 0.42282 0.72468 0.0
H2340 H 0.23132 0.42372 0.74159 0.0
C2341 C 0.23546 0.46307 0.77529 0.0
C2342 C 0.79053 0.23836 0.73509 0.0
C2343 C 0.79742 0.23894 0.76148 0.0
H2344 H 0.76916 0.22164 0.70509 0.0
C2345 C 0.78824 0.22214 0.77757 0.0
H2346 H 0.79744 0.25106 0.72217 0.0
C2347 C 0.77201 0.20531 0.76783 0.0
C2348 C 0.7648 0.2049 0.74168 0.0
H2349 H 0.79319 0.22221 0.79802 0.0
H2350 H 0.76493 0.19269 0.78086 0.0
C2351 C 0.77445 0.22148 0.72524 0.0
C2352 C 0.45347 0.13856 0.01049 0.0
C2353 C 0.45524 0.12424 0.02475 0.0
H2354 H 0.45105 0.14935 0.97192 0.0
C2355 C 0.45672 0.10987 0.0102 0.0
H2356 H 0.45213 0.14971 0.02128 0.0
C2357 C 0.4566 0.1099 0.9819 0.0
C2358 C 0.4546 0.12409 0.96742 0.0
H2359 H 0.45836 0.09882 0.02073 0.0
H2360 H 0.45836 0.0989 0.97144 0.0
C2361 C 0.45298 0.13839 0.98217 0.0
C2362 C 0.34539 0.44958 0.98962 0.0
C2363 C 0.33407 0.45559 0.97518 0.0
H2364 H 0.35405 0.44451 0.02833 0.0
C2365 C 0.32278 0.4616 0.98969 0.0
H2366 H 0.35401 0.44457 0.97903 0.0
C2367 C 0.32291 0.46173 0.01801 0.0
C2368 C 0.33424 0.45572 0.0325 0.0
H2369 H 0.31409 0.46655 0.97914 0.0
H2370 H 0.31436 0.46684 0.02853 0.0
C2371 C 0.34543 0.44959 0.01791 0.0
C2372 C 0.88721 0.35013 0.98877 0.0
C2373 C 0.88146 0.33313 0.97359 0.0
H2374 H 0.89138 0.36292 0.0281 0.0
C2375 C 0.87584 0.31564 0.98741 0.0
H2376 H 0.89135 0.36379 0.97878 0.0
C2377 C 0.87593 0.31514 0.01571 0.0
C2378 C 0.88159 0.33212 0.03091 0.0
H2379 H 0.87163 0.30234 0.97634 0.0
H2380 H 0.8718 0.30147 0.02565 0.0
C2381 C 0.88725 0.34963 0.01707 0.0
C2382 C 0.53113 0.86246 0.01248 0.0
C2383 C 0.54593 0.87823 0.02676 0.0
H2384 H 0.51943 0.84994 0.97374 0.0
C2385 C 0.56073 0.89374 0.01213 0.0
H2386 H 0.51963 0.85022 0.0232 0.0
C2387 C 0.56061 0.89358 0.98381 0.0
C2388 C 0.5458 0.87782 0.96953 0.0
H2389 H 0.57225 0.90614 0.02257 0.0
H2390 H 0.5722 0.90575 0.97309 0.0
C2391 C 0.53112 0.86222 0.98417 0.0
C2392 C 0.67112 0.56351 0.01678 0.0
C2393 C 0.66965 0.54753 0.03111 0.0
H2394 H 0.67234 0.57619 0.97806 0.0
C2395 C 0.66785 0.53155 0.0164 0.0
H2396 H 0.67282 0.57618 0.02743 0.0
C2397 C 0.66762 0.53158 0.9881 0.0
C2398 C 0.66915 0.54757 0.97378 0.0
H2399 H 0.66634 0.51886 0.02676 0.0
H2400 H 0.66596 0.51892 0.97745 0.0
C2401 C 0.67086 0.56352 0.98846 0.0
C2402 C 0.10628 0.67135 0.99169 0.0
C2403 C 0.12114 0.67072 0.97705 0.0
H2404 H 0.09501 0.67245 0.03062 0.0
C2405 C 0.13621 0.67032 0.99144 0.0
H2406 H 0.0946 0.67194 0.98124 0.0
C2407 C 0.13642 0.67056 0.01974 0.0
C2408 C 0.1216 0.67125 0.0344 0.0
H2409 H 0.1477 0.66949 0.98083 0.0
H2410 H 0.14807 0.66989 0.03013 0.0
C2411 C 0.10651 0.67163 0.02001 0.0
C2412 C 0.88396 0.56513 0.51318 0.0
C2413 C 0.87956 0.54845 0.52836 0.0
H2414 H 0.88718 0.57766 0.4738 0.0
C2415 C 0.87525 0.53128 0.51453 0.0
H2416 H 0.88708 0.57852 0.52316 0.0
C2417 C 0.8753 0.53078 0.48624 0.0
C2418 C 0.87968 0.54745 0.47106 0.0
H2419 H 0.87215 0.51826 0.52557 0.0
H2420 H 0.87221 0.5174 0.47627 0.0
C2421 C 0.88402 0.56464 0.48487 0.0
C2422 C 0.32235 0.88949 0.51797 0.0
C2423 C 0.33076 0.88048 0.53285 0.0
H2424 H 0.31575 0.89625 0.47884 0.0
C2425 C 0.33972 0.8717 0.51874 0.0
H2426 H 0.31514 0.89619 0.52823 0.0
C2427 C 0.3402 0.87185 0.49045 0.0
C2428 C 0.33163 0.88068 0.47549 0.0
H2429 H 0.34662 0.86492 0.52959 0.0
H2430 H 0.34753 0.86523 0.48031 0.0
C2431 C 0.32274 0.88955 0.48964 0.0
C2432 C 0.43441 0.32751 0.51195 0.0
C2433 C 0.45111 0.33147 0.52682 0.0
H2434 H 0.42138 0.32383 0.47282 0.0
C2435 C 0.4679 0.33495 0.51261 0.0
H2436 H 0.42111 0.32444 0.52217 0.0
C2437 C 0.46798 0.33444 0.48433 0.0
C2438 C 0.45131 0.33055 0.46951 0.0
H2439 H 0.48113 0.33839 0.52332 0.0
H2440 H 0.48123 0.33744 0.47403 0.0
C2441 C 0.43453 0.32712 0.48365 0.0
C2442 C 0.12573 0.47136 0.51706 0.0
C2443 C 0.12317 0.45483 0.53106 0.0
H2444 H 0.12712 0.48447 0.47866 0.0
C2445 C 0.12009 0.43848 0.51603 0.0
H2446 H 0.12775 0.48407 0.52796 0.0
C2447 C 0.11962 0.43868 0.48773 0.0
C2448 C 0.12229 0.45525 0.47377 0.0
H2449 H 0.11832 0.42559 0.52612 0.0
H2450 H 0.11752 0.42596 0.47677 0.0
C2451 C 0.12532 0.47158 0.48878 0.0
C2452 C 0.65386 0.10431 0.48951 0.0
C2453 C 0.66835 0.11975 0.47444 0.0
H2454 H 0.64261 0.09283 0.52875 0.0
C2455 C 0.68339 0.13558 0.48829 0.0
H2456 H 0.64195 0.09202 0.47941 0.0
C2457 C 0.68392 0.13598 0.51658 0.0
C2458 C 0.66933 0.12061 0.53176 0.0
H2459 H 0.69492 0.14758 0.47722 0.0
H2460 H 0.69592 0.14825 0.52654 0.0
C2461 C 0.65429 0.10477 0.51782 0.0
C2462 C 0.55959 0.66057 0.48524 0.0
C2463 C 0.55085 0.66942 0.47085 0.0
H2464 H 0.56581 0.65291 0.52397 0.0
C2465 C 0.54215 0.67829 0.48535 0.0
H2466 H 0.56622 0.65343 0.47458 0.0
C2467 C 0.54216 0.67827 0.51363 0.0
C2468 C 0.55065 0.66917 0.52817 0.0
H2469 H 0.53554 0.68547 0.47478 0.0
H2470 H 0.53564 0.68558 0.52408 0.0
C2471 C 0.55941 0.66034 0.51357 0.0
C2472 C 0.57283 0.15449 0.24128 0.0
C2473 C 0.55589 0.13725 0.23388 0.0
H2474 H 0.60096 0.16725 0.26 0.0
C2475 C 0.55448 0.11933 0.24009 0.0
H2476 H 0.57436 0.16851 0.23669 0.0
C2477 C 0.5696 0.11861 0.25335 0.0
C2478 C 0.58656 0.13579 0.26074 0.0
H2479 H 0.54152 0.10577 0.23503 0.0
H2480 H 0.56806 0.10453 0.25757 0.0
C2481 C 0.58809 0.15377 0.25445 0.0
C2482 C 0.44346 0.56649 0.28047 0.0
C2483 C 0.45237 0.58396 0.26581 0.0
H2484 H 0.42047 0.537 0.2823 0.0
C2485 C 0.44422 0.58493 0.24104 0.0
H2486 H 0.44929 0.56545 0.29983 0.0
C2487 C 0.42788 0.56848 0.23064 0.0
C2488 C 0.41923 0.55079 0.24497 0.0
H2489 H 0.45091 0.5982 0.22926 0.0
H2490 H 0.42245 0.56949 0.21097 0.0
C2491 C 0.42701 0.55017 0.2703 0.0
C2492 C 0.88952 0.44928 0.25878 0.0
C2493 C 0.87195 0.44905 0.26338 0.0
H2494 H 0.90337 0.43385 0.24439 0.0
C2495 C 0.85438 0.43231 0.25646 0.0
H2496 H 0.90333 0.4621 0.26329 0.0
C2497 C 0.8544 0.41604 0.24561 0.0
C2498 C 0.87199 0.41619 0.24142 0.0
H2499 H 0.8406 0.43165 0.25994 0.0
H2500 H 0.84063 0.4032 0.24104 0.0
C2501 C 0.88954 0.43308 0.24792 0.0
C2502 C 0.43155 0.84862 0.24106 0.0
C2503 C 0.45005 0.86539 0.24168 0.0
H2504 H 0.40163 0.83533 0.25297 0.0
C2505 C 0.45243 0.88179 0.25583 0.0
H2506 H 0.42922 0.83577 0.23024 0.0
C2507 C 0.43668 0.8816 0.26861 0.0
C2508 C 0.4181 0.86496 0.26771 0.0
H2509 H 0.46653 0.89485 0.25709 0.0
H2510 H 0.43902 0.89469 0.27872 0.0
C2511 C 0.41572 0.84843 0.25387 0.0
C2512 C 0.56422 0.4472 0.23142 0.0
C2513 C 0.58277 0.451 0.23932 0.0
H2514 H 0.53355 0.42844 0.23457 0.0
C2515 C 0.58437 0.43807 0.25705 0.0
H2516 H 0.56259 0.45678 0.21742 0.0
C2517 C 0.56769 0.42194 0.26737 0.0
C2518 C 0.54906 0.41832 0.25991 0.0
H2519 H 0.59852 0.44075 0.26358 0.0
H2520 H 0.56941 0.41263 0.28175 0.0
C2521 C 0.54759 0.431 0.24141 0.0
C2522 C 0.13398 0.58294 0.27 0.0
C2523 C 0.13694 0.58676 0.24209 0.0
H2524 H 0.13102 0.56394 0.30262 0.0
C2525 C 0.13988 0.574 0.22564 0.0
H2526 H 0.13148 0.59234 0.28324 0.0
C2527 C 0.13939 0.55757 0.23673 0.0
C2528 C 0.13591 0.55349 0.26453 0.0
H2529 H 0.14241 0.57663 0.20412 0.0
H2530 H 0.14117 0.54776 0.22337 0.0
C2531 C 0.13348 0.56652 0.28108 0.0
C2532 C 0.43318 0.85483 0.75795 0.0
C2533 C 0.45175 0.87149 0.75786 0.0
H2534 H 0.40303 0.84251 0.74796 0.0
C2535 C 0.45399 0.88887 0.74708 0.0
H2536 H 0.43105 0.84121 0.76597 0.0
C2537 C 0.43799 0.88961 0.7368 0.0
C2538 C 0.41943 0.87297 0.73688 0.0
H2539 H 0.46808 0.90199 0.74697 0.0
H2540 H 0.44018 0.90322 0.72864 0.0
C2541 C 0.4172 0.85553 0.74742 0.0
C2542 C 0.57383 0.4346 0.77106 0.0
C2543 C 0.58257 0.45283 0.75825 0.0
H2544 H 0.55086 0.40496 0.7704 0.0
C2545 C 0.57502 0.45463 0.73338 0.0
H2546 H 0.5792 0.4328 0.79037 0.0
C2547 C 0.55888 0.43867 0.72184 0.0
C2548 C 0.54982 0.42052 0.73492 0.0
H2549 H 0.58165 0.46839 0.72276 0.0
H2550 H 0.55352 0.44057 0.70259 0.0
C2551 C 0.55761 0.41864 0.75956 0.0
C2552 C 0.10885 0.56291 0.76069 0.0
C2553 C 0.1262 0.57982 0.7678 0.0
H2554 H 0.09562 0.53434 0.7438 0.0
C2555 C 0.14399 0.58049 0.76314 0.0
H2556 H 0.09489 0.56176 0.76448 0.0
C2557 C 0.14442 0.56474 0.75119 0.0
C2558 C 0.12706 0.54797 0.74365 0.0
H2559 H 0.15762 0.59339 0.76811 0.0
H2560 H 0.15836 0.56586 0.74732 0.0
C2561 C 0.10928 0.5472 0.74878 0.0
C2562 C 0.58288 0.14751 0.74508 0.0
C2563 C 0.58231 0.12987 0.73954 0.0
H2564 H 0.56733 0.16138 0.75929 0.0
C2565 C 0.56497 0.11233 0.74431 0.0
H2566 H 0.59608 0.16125 0.74181 0.0
C2567 C 0.54859 0.1124 0.7544 0.0
C2568 C 0.54915 0.13001 0.76004 0.0
H2569 H 0.56398 0.0985 0.73999 0.0
H2570 H 0.53552 0.09862 0.75805 0.0
C2571 C 0.56649 0.14758 0.75534 0.0
C2572 C 0.42431 0.54734 0.73098 0.0
C2573 C 0.41846 0.54795 0.75765 0.0
H2574 H 0.44456 0.56248 0.69911 0.0
C2575 C 0.42899 0.56517 0.77265 0.0
H2576 H 0.41631 0.53441 0.7187 0.0
C2577 C 0.44522 0.58126 0.76144 0.0
C2578 C 0.45128 0.58052 0.73492 0.0
H2579 H 0.42502 0.56604 0.79336 0.0
H2580 H 0.45334 0.59408 0.77385 0.0
C2581 C 0.44051 0.56343 0.71974 0.0
C2582 C 0.86863 0.42182 0.73439 0.0
C2583 C 0.87246 0.42139 0.76213 0.0
H2584 H 0.86573 0.43786 0.70164 0.0
C2585 C 0.8759 0.43736 0.77835 0.0
H2586 H 0.86552 0.40963 0.72137 0.0
C2587 C 0.87576 0.45343 0.76705 0.0
C2588 C 0.87234 0.45397 0.73924 0.0
H2589 H 0.8792 0.43771 0.79967 0.0
H2590 H 0.87887 0.46568 0.77995 0.0
C2591 C 0.86867 0.43795 0.72307 0.0
loop_
_geom_bond_atom_site_label_1
_geom_bond_atom_site_label_2
_geom_bond_distance
_geom_bond_site_symmetry_2
_ccdc_geom_bond_type
Li0 N17 1.990 . S
Li0 O60 1.956 . S
Li0 O61 1.970 . S
Li0 O62 1.961 . S
Li1 N25 1.990 . S
Li1 O60 1.970 . S
Li1 O61 1.956 . S
Li1 O63 1.961 . S
Li2 N47 1.990 . S
Li2 O60 1.961 . S
Li2 O62 1.956 . S
Li2 O63 1.970 . S
Li3 N53 1.990 . S
Li3 O61 1.961 . S
Li3 O62 1.970 . S
Li3 O63 1.956 . S
C4 C6 1.348 . S
C4 C7 1.356 . S
C4 O60 1.325 . S
N5 C8 1.314 . S
N5 C9 1.279 . S
C6 C4 1.348 . S
C6 C8 1.353 . S
C6 H64 0.929 . S
C7 C4 1.356 . S
C7 C9 1.358 . S
C7 H65 0.930 . S
C8 N5 1.314 . S
C8 C6 1.353 . S
C8 H66 0.930 . S
C9 N5 1.279 . S
C9 C7 1.358 . S
C9 H67 0.930 . S
C10 C13 1.348 . S
C10 C14 1.356 . S
C10 O61 1.325 . S
C11 N12 1.279 . S
C11 C14 1.358 . S
C11 H68 0.930 . S
N12 C11 1.279 . S
N12 C15 1.314 . S
C13 C10 1.348 . S
C13 C15 1.353 . S
C13 H69 0.929 . S
C14 C10 1.356 . S
C14 C11 1.358 . S
C14 H70 0.930 . S
C15 N12 1.314 . S
C15 C13 1.353 . S
C15 H71 0.930 . S
C16 N17 1.314 . S
C16 C21 1.353 . S
C16 H22 0.930 . S
N17 Li0 1.990 . S
N17 C16 1.314 . S
N17 C19 1.279 . S
C18 C19 1.358 . S
C18 C20 1.356 . S
C18 H72 0.930 . S
C19 N17 1.279 . S
C19 C18 1.358 . S
C19 H23 0.930 . S
C20 C18 1.356 . S
C20 C21 1.348 . S
C21 C16 1.353 . S
C21 C20 1.348 . S
C21 H73 0.929 . S
H22 C16 0.930 . S
H23 C19 0.930 . S
C24 N25 1.314 . S
C24 C26 1.353 . S
C24 H30 0.930 . S
N25 Li1 1.990 . S
N25 C24 1.314 . S
N25 C28 1.279 . S
C26 C24 1.353 . S
C26 C29 1.348 . S
C26 H74 0.929 . S
C27 C28 1.358 . S
C27 C29 1.356 . S
C27 H75 0.930 . S
C28 N25 1.279 . S
C28 C27 1.358 . S
C28 H31 0.930 . S
C29 C26 1.348 . S
C29 C27 1.356 . S
H30 C24 0.930 . S
H31 C28 0.930 . S
C32 C34 1.348 . S
C32 C35 1.356 . S
C32 O62 1.325 . S
N33 C36 1.314 . S
N33 C37 1.279 . S
C34 C32 1.348 . S
C34 C36 1.353 . S
C34 H76 0.929 . S
C35 C32 1.356 . S
C35 C37 1.358 . S
C35 H77 0.930 . S
C36 N33 1.314 . S
C36 C34 1.353 . S
C36 H78 0.930 . S
C37 N33 1.279 . S
C37 C35 1.358 . S
C37 H79 0.930 . S
C38 C39 1.348 . S
C38 C40 1.356 . S
C38 O63 1.325 . S
C39 C38 1.348 . S
C39 C41 1.353 . S
C39 H80 0.929 . S
C40 C38 1.356 . S
C40 C42 1.358 . S
C40 H81 0.930 . S
C41 C39 1.353 . S
C41 N43 1.314 . S
C41 H82 0.930 . S
C42 C40 1.358 . S
C42 N43 1.279 . S
C42 H83 0.930 . S
N43 C41 1.314 . S
N43 C42 1.279 . S
C44 C46 1.353 . S
C44 N47 1.314 . S
C44 H50 0.930 . S
C45 N47 1.279 . S
C45 C48 1.358 . S
C45 H51 0.930 . S
C46 C44 1.353 . S
C46 C49 1.348 . S
C46 H84 0.929 . S
N47 Li2 1.990 . S
N47 C44 1.314 . S
N47 C45 1.279 . S
C48 C45 1.358 . S
C48 C49 1.356 . S
C48 H85 0.930 . S
C49 C46 1.348 . S
C49 C48 1.356 . S
H50 C44 0.930 . S
H51 C45 0.930 . S
C52 N53 1.314 . S
C52 C54 1.353 . S
C52 H58 0.930 . S
N53 Li3 1.990 . S
N53 C52 1.314 . S
N53 C56 1.279 . S
C54 C52 1.353 . S
C54 C57 1.348 . S
C54 H86 0.929 . S
C55 C56 1.358 . S
C55 C57 1.356 . S
C55 H87 0.930 . S
C56 N53 1.279 . S
C56 C55 1.358 . S
C56 H59 0.930 . S
C57 C54 1.348 . S
C57 C55 1.356 . S
H58 C52 0.930 . S
H59 C56 0.930 . S
O60 Li0 1.956 . S
O60 Li1 1.970 . S
O60 Li2 1.961 . S
O60 C4 1.325 . S
O61 Li0 1.970 . S
O61 Li1 1.956 . S
O61 Li3 1.961 . S
O61 C10 1.325 . S
O62 Li0 1.961 . S
O62 Li2 1.956 . S
O62 Li3 1.970 . S
O62 C32 1.325 . S
O63 Li1 1.961 . S
O63 Li2 1.970 . S
O63 Li3 1.956 . S
O63 C38 1.325 . S
H64 C6 0.929 . S
H65 C7 0.930 . S
H66 C8 0.930 . S
H67 C9 0.930 . S
H68 C11 0.930 . S
H69 C13 0.929 . S
H70 C14 0.930 . S
H71 C15 0.930 . S
H72 C18 0.930 . S
H73 C21 0.929 . S
H74 C26 0.929 . S
H75 C27 0.930 . S
H76 C34 0.929 . S
H77 C35 0.930 . S
H78 C36 0.930 . S
H79 C37 0.930 . S
H80 C39 0.929 . S
H81 C40 0.930 . S
H82 C41 0.930 . S
H83 C42 0.930 . S
H84 C46 0.929 . S
H85 C48 0.930 . S
H86 C54 0.929 . S
H87 C55 0.930 . S
Li88 N105 1.990 . S
Li88 O148 1.956 . S
Li88 O149 1.970 . S
Li88 O150 1.961 . S
Li89 N113 1.990 . S
Li89 O148 1.970 . S
Li89 O149 1.956 . S
Li89 O151 1.961 . S
Li90 N135 1.990 . S
Li90 O148 1.961 . S
Li90 O150 1.956 . S
Li90 O151 1.970 . S
Li91 N141 1.990 . S
Li91 O149 1.961 . S
Li91 O150 1.970 . S
Li91 O151 1.956 . S
C92 C94 1.348 . S
C92 C95 1.356 . S
C92 O148 1.325 . S
N93 C96 1.314 . S
N93 C97 1.279 . S
C94 C92 1.348 . S
C94 C96 1.353 . S
C94 H152 0.929 . S
C95 C92 1.356 . S
C95 C97 1.358 . S
C95 H153 0.930 . S
C96 N93 1.314 . S
C96 C94 1.353 . S
C96 H154 0.930 . S
C97 N93 1.279 . S
C97 C95 1.358 . S
C97 H155 0.930 . S
C98 C101 1.348 . S
C98 C102 1.356 . S
C98 O149 1.325 . S
C99 N100 1.279 . S
C99 C102 1.358 . S
C99 H156 0.930 . S
N100 C99 1.279 . S
N100 C103 1.314 . S
C101 C98 1.348 . S
C101 C103 1.353 . S
C101 H157 0.929 . S
C102 C98 1.356 . S
C102 C99 1.358 . S
C102 H158 0.930 . S
C103 N100 1.314 . S
C103 C101 1.353 . S
C103 H159 0.930 . S
C104 N105 1.314 . S
C104 C109 1.353 . S
C104 H110 0.930 . S
N105 Li88 1.990 . S
N105 C104 1.314 . S
N105 C107 1.279 . S
C106 C107 1.358 . S
C106 C108 1.356 . S
C106 H160 0.930 . S
C107 N105 1.279 . S
C107 C106 1.358 . S
C107 H111 0.930 . S
C108 C106 1.356 . S
C108 C109 1.348 . S
C109 C104 1.353 . S
C109 C108 1.348 . S
C109 H161 0.929 . S
H110 C104 0.930 . S
H111 C107 0.930 . S
C112 N113 1.314 . S
C112 C114 1.353 . S
C112 H118 0.930 . S
N113 Li89 1.990 . S
N113 C112 1.314 . S
N113 C116 1.279 . S
C114 C112 1.353 . S
C114 C117 1.348 . S
C114 H162 0.929 . S
C115 C116 1.358 . S
C115 C117 1.356 . S
C115 H163 0.930 . S
C116 N113 1.279 . S
C116 C115 1.358 . S
C116 H119 0.930 . S
C117 C114 1.348 . S
C117 C115 1.356 . S
H118 C112 0.930 . S
H119 C116 0.930 . S
C120 C122 1.348 . S
C120 C123 1.356 . S
C120 O150 1.325 . S
N121 C124 1.314 . S
N121 C125 1.279 . S
C122 C120 1.348 . S
C122 C124 1.353 . S
C122 H164 0.929 . S
C123 C120 1.356 . S
C123 C125 1.358 . S
C123 H165 0.930 . S
C124 N121 1.314 . S
C124 C122 1.353 . S
C124 H166 0.930 . S
C125 N121 1.279 . S
C125 C123 1.358 . S
C125 H167 0.930 . S
C126 C127 1.348 . S
C126 C128 1.356 . S
C126 O151 1.325 . S
C127 C126 1.348 . S
C127 C129 1.353 . S
C127 H168 0.929 . S
C128 C126 1.356 . S
C128 C130 1.358 . S
C128 H169 0.930 . S
C129 C127 1.353 . S
C129 N131 1.314 . S
C129 H170 0.930 . S
C130 C128 1.358 . S
C130 N131 1.279 . S
C130 H171 0.930 . S
N131 C129 1.314 . S
N131 C130 1.279 . S
C132 C134 1.353 . S
C132 N135 1.314 . S
C132 H138 0.930 . S
C133 N135 1.279 . S
C133 C136 1.358 . S
C133 H139 0.930 . S
C134 C132 1.353 . S
C134 C137 1.348 . S
C134 H172 0.929 . S
N135 Li90 1.990 . S
N135 C132 1.314 . S
N135 C133 1.279 . S
C136 C133 1.358 . S
C136 C137 1.356 . S
C136 H173 0.930 . S
C137 C134 1.348 . S
C137 C136 1.356 . S
H138 C132 0.930 . S
H139 C133 0.930 . S
C140 N141 1.314 . S
C140 C142 1.353 . S
C140 H146 0.930 . S
N141 Li91 1.990 . S
N141 C140 1.314 . S
N141 C144 1.279 . S
C142 C140 1.353 . S
C142 C145 1.348 . S
C142 H174 0.929 . S
C143 C144 1.358 . S
C143 C145 1.356 . S
C143 H175 0.930 . S
C144 N141 1.279 . S
C144 C143 1.358 . S
C144 H147 0.930 . S
C145 C142 1.348 . S
C145 C143 1.356 . S
H146 C140 0.930 . S
H147 C144 0.930 . S
O148 Li88 1.956 . S
O148 Li89 1.970 . S
O148 Li90 1.961 . S
O148 C92 1.325 . S
O149 Li88 1.970 . S
O149 Li89 1.956 . S
O149 Li91 1.961 . S
O149 C98 1.325 . S
O150 Li88 1.961 . S
O150 Li90 1.956 . S
O150 Li91 1.970 . S
O150 C120 1.325 . S
O151 Li89 1.961 . S
O151 Li90 1.970 . S
O151 Li91 1.956 . S
O151 C126 1.325 . S
H152 C94 0.929 . S
H153 C95 0.930 . S
H154 C96 0.930 . S
H155 C97 0.930 . S
H156 C99 0.930 . S
H157 C101 0.929 . S
H158 C102 0.930 . S
H159 C103 0.930 . S
H160 C106 0.930 . S
H161 C109 0.929 . S
H162 C114 0.929 . S
H163 C115 0.930 . S
H164 C122 0.929 . S
H165 C123 0.930 . S
H166 C124 0.930 . S
H167 C125 0.930 . S
H168 C127 0.929 . S
H169 C128 0.930 . S
H170 C129 0.930 . S
H171 C130 0.930 . S
H172 C134 0.929 . S
H173 C136 0.930 . S
H174 C142 0.929 . S
H175 C143 0.930 . S
Li176 N193 1.990 . S
Li176 O236 1.956 . S
Li176 O237 1.970 . S
Li176 O238 1.961 . S
Li177 N201 1.990 . S
Li177 O236 1.970 . S
Li177 O237 1.956 . S
Li177 O239 1.961 . S
Li178 N223 1.990 . S
Li178 O236 1.961 . S
Li178 O238 1.956 . S
Li178 O239 1.970 . S
Li179 N229 1.990 . S
Li179 O237 1.961 . S
Li179 O238 1.970 . S
Li179 O239 1.956 . S
C180 C182 1.348 . S
C180 C183 1.356 . S
C180 O236 1.325 . S
N181 C184 1.314 . S
N181 C185 1.279 . S
C182 C180 1.348 . S
C182 C184 1.353 . S
C182 H240 0.929 . S
C183 C180 1.356 . S
C183 C185 1.358 . S
C183 H241 0.930 . S
C184 N181 1.314 . S
C184 C182 1.353 . S
C184 H242 0.930 . S
C185 N181 1.279 . S
C185 C183 1.358 . S
C185 H243 0.930 . S
C186 C189 1.348 . S
C186 C190 1.356 . S
C186 O237 1.325 . S
C187 N188 1.279 . S
C187 C190 1.358 . S
C187 H244 0.930 . S
N188 C187 1.279 . S
N188 C191 1.314 . S
C189 C186 1.348 . S
C189 C191 1.353 . S
C189 H245 0.929 . S
C190 C186 1.356 . S
C190 C187 1.358 . S
C190 H246 0.930 . S
C191 N188 1.314 . S
C191 C189 1.353 . S
C191 H247 0.930 . S
C192 N193 1.314 . S
C192 C197 1.353 . S
C192 H198 0.930 . S
N193 Li176 1.990 . S
N193 C192 1.314 . S
N193 C195 1.279 . S
C194 C195 1.358 . S
C194 C196 1.356 . S
C194 H248 0.930 . S
C195 N193 1.279 . S
C195 C194 1.358 . S
C195 H199 0.930 . S
C196 C194 1.356 . S
C196 C197 1.348 . S
C197 C192 1.353 . S
C197 C196 1.348 . S
C197 H249 0.929 . S
H198 C192 0.930 . S
H199 C195 0.930 . S
C200 N201 1.314 . S
C200 C202 1.353 . S
C200 H206 0.930 . S
N201 Li177 1.990 . S
N201 C200 1.314 . S
N201 C204 1.279 . S
C202 C200 1.353 . S
C202 C205 1.348 . S
C202 H250 0.929 . S
C203 C204 1.358 . S
C203 C205 1.356 . S
C203 H251 0.930 . S
C204 N201 1.279 . S
C204 C203 1.358 . S
C204 H207 0.930 . S
C205 C202 1.348 . S
C205 C203 1.356 . S
H206 C200 0.930 . S
H207 C204 0.930 . S
C208 C210 1.348 . S
C208 C211 1.356 . S
C208 O238 1.325 . S
N209 C212 1.314 . S
N209 C213 1.279 . S
C210 C208 1.348 . S
C210 C212 1.353 . S
C210 H252 0.929 . S
C211 C208 1.356 . S
C211 C213 1.358 . S
C211 H253 0.930 . S
C212 N209 1.314 . S
C212 C210 1.353 . S
C212 H254 0.930 . S
C213 N209 1.279 . S
C213 C211 1.358 . S
C213 H255 0.930 . S
C214 C215 1.348 . S
C214 C216 1.356 . S
C214 O239 1.325 . S
C215 C214 1.348 . S
C215 C217 1.353 . S
C215 H256 0.929 . S
C216 C214 1.356 . S
C216 C218 1.358 . S
C216 H257 0.930 . S
C217 C215 1.353 . S
C217 N219 1.314 . S
C217 H258 0.930 . S
C218 C216 1.358 . S
C218 N219 1.279 . S
C218 H259 0.930 . S
N219 C217 1.314 . S
N219 C218 1.279 . S
C220 C222 1.353 . S
C220 N223 1.314 . S
C220 H226 0.930 . S
C221 N223 1.279 . S
C221 C224 1.358 . S
C221 H227 0.930 . S
C222 C220 1.353 . S
C222 C225 1.348 . S
C222 H260 0.929 . S
N223 Li178 1.990 . S
N223 C220 1.314 . S
N223 C221 1.279 . S
C224 C221 1.358 . S
C224 C225 1.356 . S
C224 H261 0.930 . S
C225 C222 1.348 . S
C225 C224 1.356 . S
H226 C220 0.930 . S
H227 C221 0.930 . S
C228 N229 1.314 . S
C228 C230 1.353 . S
C228 H234 0.930 . S
N229 Li179 1.990 . S
N229 C228 1.314 . S
N229 C232 1.279 . S
C230 C228 1.353 . S
C230 C233 1.348 . S
C230 H262 0.929 . S
C231 C232 1.358 . S
C231 C233 1.356 . S
C231 H263 0.930 . S
C232 N229 1.279 . S
C232 C231 1.358 . S
C232 H235 0.930 . S
C233 C230 1.348 . S
C233 C231 1.356 . S
H234 C228 0.930 . S
H235 C232 0.930 . S
O236 Li176 1.956 . S
O236 Li177 1.970 . S
O236 Li178 1.961 . S
O236 C180 1.325 . S
O237 Li176 1.970 . S
O237 Li177 1.956 . S
O237 Li179 1.961 . S
O237 C186 1.325 . S
O238 Li176 1.961 . S
O238 Li178 1.956 . S
O238 Li179 1.970 . S
O238 C208 1.325 . S
O239 Li177 1.961 . S
O239 Li178 1.970 . S
O239 Li179 1.956 . S
O239 C214 1.325 . S
H240 C182 0.929 . S
H241 C183 0.930 . S
H242 C184 0.930 . S
H243 C185 0.930 . S
H244 C187 0.930 . S
H245 C189 0.929 . S
H246 C190 0.930 . S
H247 C191 0.930 . S
H248 C194 0.930 . S
H249 C197 0.929 . S
H250 C202 0.929 . S
H251 C203 0.930 . S
H252 C210 0.929 . S
H253 C211 0.930 . S
H254 C212 0.930 . S
H255 C213 0.930 . S
H256 C215 0.929 . S
H257 C216 0.930 . S
H258 C217 0.930 . S
H259 C218 0.930 . S
H260 C222 0.929 . S
H261 C224 0.930 . S
H262 C230 0.929 . S
H263 C231 0.930 . S
Li264 N281 1.990 . S
Li264 O324 1.956 . S
Li264 O325 1.970 . S
Li264 O326 1.961 . S
Li265 N289 1.990 . S
Li265 O324 1.970 . S
Li265 O325 1.956 . S
Li265 O327 1.961 . S
Li266 N311 1.990 . S
Li266 O324 1.961 . S
Li266 O326 1.956 . S
Li266 O327 1.970 . S
Li267 N317 1.990 . S
Li267 O325 1.961 . S
Li267 O326 1.970 . S
Li267 O327 1.956 . S
C268 C270 1.348 . S
C268 C271 1.356 . S
C268 O324 1.325 . S
N269 C272 1.314 . S
N269 C273 1.279 . S
C270 C268 1.348 . S
C270 C272 1.353 . S
C270 H328 0.929 . S
C271 C268 1.356 . S
C271 C273 1.358 . S
C271 H329 0.930 . S
C272 N269 1.314 . S
C272 C270 1.353 . S
C272 H330 0.930 . S
C273 N269 1.279 . S
C273 C271 1.358 . S
C273 H331 0.930 . S
C274 C277 1.348 . S
C274 C278 1.356 . S
C274 O325 1.325 . S
C275 N276 1.279 . S
C275 C278 1.358 . S
C275 H332 0.930 . S
N276 C275 1.279 . S
N276 C279 1.314 . S
C277 C274 1.348 . S
C277 C279 1.353 . S
C277 H333 0.929 . S
C278 C274 1.356 . S
C278 C275 1.358 . S
C278 H334 0.930 . S
C279 N276 1.314 . S
C279 C277 1.353 . S
C279 H335 0.930 . S
C280 N281 1.314 . S
C280 C285 1.353 . S
C280 H286 0.930 . S
N281 Li264 1.990 . S
N281 C280 1.314 . S
N281 C283 1.279 . S
C282 C283 1.358 . S
C282 C284 1.356 . S
C282 H336 0.930 . S
C283 N281 1.279 . S
C283 C282 1.358 . S
C283 H287 0.930 . S
C284 C282 1.356 . S
C284 C285 1.348 . S
C285 C280 1.353 . S
C285 C284 1.348 . S
C285 H337 0.929 . S
H286 C280 0.930 . S
H287 C283 0.930 . S
C288 N289 1.314 . S
C288 C290 1.353 . S
C288 H294 0.930 . S
N289 Li265 1.990 . S
N289 C288 1.314 . S
N289 C292 1.279 . S
C290 C288 1.353 . S
C290 C293 1.348 . S
C290 H338 0.929 . S
C291 C292 1.358 . S
C291 C293 1.356 . S
C291 H339 0.930 . S
C292 N289 1.279 . S
C292 C291 1.358 . S
C292 H295 0.930 . S
C293 C290 1.348 . S
C293 C291 1.356 . S
H294 C288 0.930 . S
H295 C292 0.930 . S
C296 C298 1.348 . S
C296 C299 1.356 . S
C296 O326 1.325 . S
N297 C300 1.314 . S
N297 C301 1.279 . S
C298 C296 1.348 . S
C298 C300 1.353 . S
C298 H340 0.929 . S
C299 C296 1.356 . S
C299 C301 1.358 . S
C299 H341 0.930 . S
C300 N297 1.314 . S
C300 C298 1.353 . S
C300 H342 0.930 . S
C301 N297 1.279 . S
C301 C299 1.358 . S
C301 H343 0.930 . S
C302 C303 1.348 . S
C302 C304 1.356 . S
C302 O327 1.325 . S
C303 C302 1.348 . S
C303 C305 1.353 . S
C303 H344 0.929 . S
C304 C302 1.356 . S
C304 C306 1.358 . S
C304 H345 0.930 . S
C305 C303 1.353 . S
C305 N307 1.314 . S
C305 H346 0.930 . S
C306 C304 1.358 . S
C306 N307 1.279 . S
C306 H347 0.930 . S
N307 C305 1.314 . S
N307 C306 1.279 . S
C308 C310 1.353 . S
C308 N311 1.314 . S
C308 H314 0.930 . S
C309 N311 1.279 . S
C309 C312 1.358 . S
C309 H315 0.930 . S
C310 C308 1.353 . S
C310 C313 1.348 . S
C310 H348 0.929 . S
N311 Li266 1.990 . S
N311 C308 1.314 . S
N311 C309 1.279 . S
C312 C309 1.358 . S
C312 C313 1.356 . S
C312 H349 0.930 . S
C313 C310 1.348 . S
C313 C312 1.356 . S
H314 C308 0.930 . S
H315 C309 0.930 . S
C316 N317 1.314 . S
C316 C318 1.353 . S
C316 H322 0.930 . S
N317 Li267 1.990 . S
N317 C316 1.314 . S
N317 C320 1.279 . S
C318 C316 1.353 . S
C318 C321 1.348 . S
C318 H350 0.929 . S
C319 C320 1.358 . S
C319 C321 1.356 . S
C319 H351 0.930 . S
C320 N317 1.279 . S
C320 C319 1.358 . S
C320 H323 0.930 . S
C321 C318 1.348 . S
C321 C319 1.356 . S
H322 C316 0.930 . S
H323 C320 0.930 . S
O324 Li264 1.956 . S
O324 Li265 1.970 . S
O324 Li266 1.961 . S
O324 C268 1.325 . S
O325 Li264 1.970 . S
O325 Li265 1.956 . S
O325 Li267 1.961 . S
O325 C274 1.325 . S
O326 Li264 1.961 . S
O326 Li266 1.956 . S
O326 Li267 1.970 . S
O326 C296 1.325 . S
O327 Li265 1.961 . S
O327 Li266 1.970 . S
O327 Li267 1.956 . S
O327 C302 1.325 . S
H328 C270 0.929 . S
H329 C271 0.930 . S
H330 C272 0.930 . S
H331 C273 0.930 . S
H332 C275 0.930 . S
H333 C277 0.929 . S
H334 C278 0.930 . S
H335 C279 0.930 . S
H336 C282 0.930 . S
H337 C285 0.929 . S
H338 C290 0.929 . S
H339 C291 0.930 . S
H340 C298 0.929 . S
H341 C299 0.930 . S
H342 C300 0.930 . S
H343 C301 0.930 . S
H344 C303 0.929 . S
H345 C304 0.930 . S
H346 C305 0.930 . S
H347 C306 0.930 . S
H348 C310 0.929 . S
H349 C312 0.930 . S
H350 C318 0.929 . S
H351 C319 0.930 . S
Li352 N369 1.990 . S
Li352 O412 1.956 . S
Li352 O413 1.970 . S
Li352 O414 1.961 . S
Li353 N377 1.990 . S
Li353 O412 1.970 . S
Li353 O413 1.956 . S
Li353 O415 1.961 . S
Li354 N399 1.990 . S
Li354 O412 1.961 . S
Li354 O414 1.956 . S
Li354 O415 1.970 . S
Li355 N405 1.990 . S
Li355 O413 1.961 . S
Li355 O414 1.970 . S
Li355 O415 1.956 . S
C356 C358 1.348 . S
C356 C359 1.356 . S
C356 O412 1.325 . S
N357 C360 1.314 . S
N357 C361 1.279 . S
C358 C356 1.348 . S
C358 C360 1.353 . S
C358 H416 0.929 . S
C359 C356 1.356 . S
C359 C361 1.358 . S
C359 H417 0.930 . S
C360 N357 1.314 . S
C360 C358 1.353 . S
C360 H418 0.930 . S
C361 N357 1.279 . S
C361 C359 1.358 . S
C361 H419 0.930 . S
C362 C365 1.348 . S
C362 C366 1.356 . S
C362 O413 1.325 . S
C363 N364 1.279 . S
C363 C366 1.358 . S
C363 H420 0.930 . S
N364 C363 1.279 . S
N364 C367 1.314 . S
C365 C362 1.348 . S
C365 C367 1.353 . S
C365 H421 0.929 . S
C366 C362 1.356 . S
C366 C363 1.358 . S
C366 H422 0.930 . S
C367 N364 1.314 . S
C367 C365 1.353 . S
C367 H423 0.930 . S
C368 N369 1.314 . S
C368 C373 1.353 . S
C368 H374 0.930 . S
N369 Li352 1.990 . S
N369 C368 1.314 . S
N369 C371 1.279 . S
C370 C371 1.358 . S
C370 C372 1.356 . S
C370 H424 0.930 . S
C371 N369 1.279 . S
C371 C370 1.358 . S
C371 H375 0.930 . S
C372 C370 1.356 . S
C372 C373 1.348 . S
C373 C368 1.353 . S
C373 C372 1.348 . S
C373 H425 0.929 . S
H374 C368 0.930 . S
H375 C371 0.930 . S
C376 N377 1.314 . S
C376 C378 1.353 . S
C376 H382 0.930 . S
N377 Li353 1.990 . S
N377 C376 1.314 . S
N377 C380 1.279 . S
C378 C376 1.353 . S
C378 C381 1.348 . S
C378 H426 0.929 . S
C379 C380 1.358 . S
C379 C381 1.356 . S
C379 H427 0.930 . S
C380 N377 1.279 . S
C380 C379 1.358 . S
C380 H383 0.930 . S
C381 C378 1.348 . S
C381 C379 1.356 . S
H382 C376 0.930 . S
H383 C380 0.930 . S
C384 C386 1.348 . S
C384 C387 1.356 . S
C384 O414 1.325 . S
N385 C388 1.314 . S
N385 C389 1.279 . S
C386 C384 1.348 . S
C386 C388 1.353 . S
C386 H428 0.929 . S
C387 C384 1.356 . S
C387 C389 1.358 . S
C387 H429 0.930 . S
C388 N385 1.314 . S
C388 C386 1.353 . S
C388 H430 0.930 . S
C389 N385 1.279 . S
C389 C387 1.358 . S
C389 H431 0.930 . S
C390 C391 1.348 . S
C390 C392 1.356 . S
C390 O415 1.325 . S
C391 C390 1.348 . S
C391 C393 1.353 . S
C391 H432 0.929 . S
C392 C390 1.356 . S
C392 C394 1.358 . S
C392 H433 0.930 . S
C393 C391 1.353 . S
C393 N395 1.314 . S
C393 H434 0.930 . S
C394 C392 1.358 . S
C394 N395 1.279 . S
C394 H435 0.930 . S
N395 C393 1.314 . S
N395 C394 1.279 . S
C396 C398 1.353 . S
C396 N399 1.314 . S
C396 H402 0.930 . S
C397 N399 1.279 . S
C397 C400 1.358 . S
C397 H403 0.930 . S
C398 C396 1.353 . S
C398 C401 1.348 . S
C398 H436 0.929 . S
N399 Li354 1.990 . S
N399 C396 1.314 . S
N399 C397 1.279 . S
C400 C397 1.358 . S
C400 C401 1.356 . S
C400 H437 0.930 . S
C401 C398 1.348 . S
C401 C400 1.356 . S
H402 C396 0.930 . S
H403 C397 0.930 . S
C404 N405 1.314 . S
C404 C406 1.353 . S
C404 H410 0.930 . S
N405 Li355 1.990 . S
N405 C404 1.314 . S
N405 C408 1.279 . S
C406 C404 1.353 . S
C406 C409 1.348 . S
C406 H438 0.929 . S
C407 C408 1.358 . S
C407 C409 1.356 . S
C407 H439 0.930 . S
C408 N405 1.279 . S
C408 C407 1.358 . S
C408 H411 0.930 . S
C409 C406 1.348 . S
C409 C407 1.356 . S
H410 C404 0.930 . S
H411 C408 0.930 . S
O412 Li352 1.956 . S
O412 Li353 1.970 . S
O412 Li354 1.961 . S
O412 C356 1.325 . S
O413 Li352 1.970 . S
O413 Li353 1.956 . S
O413 Li355 1.961 . S
O413 C362 1.325 . S
O414 Li352 1.961 . S
O414 Li354 1.956 . S
O414 Li355 1.970 . S
O414 C384 1.325 . S
O415 Li353 1.961 . S
O415 Li354 1.970 . S
O415 Li355 1.956 . S
O415 C390 1.325 . S
H416 C358 0.929 . S
H417 C359 0.930 . S
H418 C360 0.930 . S
H419 C361 0.930 . S
H420 C363 0.930 . S
H421 C365 0.929 . S
H422 C366 0.930 . S
H423 C367 0.930 . S
H424 C370 0.930 . S
H425 C373 0.929 . S
H426 C378 0.929 . S
H427 C379 0.930 . S
H428 C386 0.929 . S
H429 C387 0.930 . S
H430 C388 0.930 . S
H431 C389 0.930 . S
H432 C391 0.929 . S
H433 C392 0.930 . S
H434 C393 0.930 . S
H435 C394 0.930 . S
H436 C398 0.929 . S
H437 C400 0.930 . S
H438 C406 0.929 . S
H439 C407 0.930 . S
Li440 N457 1.990 . S
Li440 O500 1.956 . S
Li440 O501 1.970 . S
Li440 O502 1.961 . S
Li441 N465 1.990 . S
Li441 O500 1.970 . S
Li441 O501 1.956 . S
Li441 O503 1.961 . S
Li442 N487 1.990 . S
Li442 O500 1.961 . S
Li442 O502 1.956 . S
Li442 O503 1.970 . S
Li443 N493 1.990 . S
Li443 O501 1.961 . S
Li443 O502 1.970 . S
Li443 O503 1.956 . S
C444 C446 1.348 . S
C444 C447 1.356 . S
C444 O500 1.325 . S
N445 C448 1.314 . S
N445 C449 1.279 . S
C446 C444 1.348 . S
C446 C448 1.353 . S
C446 H504 0.929 . S
C447 C444 1.356 . S
C447 C449 1.358 . S
C447 H505 0.930 . S
C448 N445 1.314 . S
C448 C446 1.353 . S
C448 H506 0.930 . S
C449 N445 1.279 . S
C449 C447 1.358 . S
C449 H507 0.930 . S
C450 C453 1.348 . S
C450 C454 1.356 . S
C450 O501 1.325 . S
C451 N452 1.279 . S
C451 C454 1.358 . S
C451 H508 0.930 . S
N452 C451 1.279 . S
N452 C455 1.314 . S
C453 C450 1.348 . S
C453 C455 1.353 . S
C453 H509 0.929 . S
C454 C450 1.356 . S
C454 C451 1.358 . S
C454 H510 0.930 . S
C455 N452 1.314 . S
C455 C453 1.353 . S
C455 H511 0.930 . S
C456 N457 1.314 . S
C456 C461 1.353 . S
C456 H462 0.930 . S
N457 Li440 1.990 . S
N457 C456 1.314 . S
N457 C459 1.279 . S
C458 C459 1.358 . S
C458 C460 1.356 . S
C458 H512 0.930 . S
C459 N457 1.279 . S
C459 C458 1.358 . S
C459 H463 0.930 . S
C460 C458 1.356 . S
C460 C461 1.348 . S
C461 C456 1.353 . S
C461 C460 1.348 . S
C461 H513 0.929 . S
H462 C456 0.930 . S
H463 C459 0.930 . S
C464 N465 1.314 . S
C464 C466 1.353 . S
C464 H470 0.930 . S
N465 Li441 1.990 . S
N465 C464 1.314 . S
N465 C468 1.279 . S
C466 C464 1.353 . S
C466 C469 1.348 . S
C466 H514 0.929 . S
C467 C468 1.358 . S
C467 C469 1.356 . S
C467 H515 0.930 . S
C468 N465 1.279 . S
C468 C467 1.358 . S
C468 H471 0.930 . S
C469 C466 1.348 . S
C469 C467 1.356 . S
H470 C464 0.930 . S
H471 C468 0.930 . S
C472 C474 1.348 . S
C472 C475 1.356 . S
C472 O502 1.325 . S
N473 C476 1.314 . S
N473 C477 1.279 . S
C474 C472 1.348 . S
C474 C476 1.353 . S
C474 H516 0.929 . S
C475 C472 1.356 . S
C475 C477 1.358 . S
C475 H517 0.930 . S
C476 N473 1.314 . S
C476 C474 1.353 . S
C476 H518 0.930 . S
C477 N473 1.279 . S
C477 C475 1.358 . S
C477 H519 0.930 . S
C478 C479 1.348 . S
C478 C480 1.356 . S
C478 O503 1.325 . S
C479 C478 1.348 . S
C479 C481 1.353 . S
C479 H520 0.929 . S
C480 C478 1.356 . S
C480 C482 1.358 . S
C480 H521 0.930 . S
C481 C479 1.353 . S
C481 N483 1.314 . S
C481 H522 0.930 . S
C482 C480 1.358 . S
C482 N483 1.279 . S
C482 H523 0.930 . S
N483 C481 1.314 . S
N483 C482 1.279 . S
C484 C486 1.353 . S
C484 N487 1.314 . S
C484 H490 0.930 . S
C485 N487 1.279 . S
C485 C488 1.358 . S
C485 H491 0.930 . S
C486 C484 1.353 . S
C486 C489 1.348 . S
C486 H524 0.929 . S
N487 Li442 1.990 . S
N487 C484 1.314 . S
N487 C485 1.279 . S
C488 C485 1.358 . S
C488 C489 1.356 . S
C488 H525 0.930 . S
C489 C486 1.348 . S
C489 C488 1.356 . S
H490 C484 0.930 . S
H491 C485 0.930 . S
C492 N493 1.314 . S
C492 C494 1.353 . S
C492 H498 0.930 . S
N493 Li443 1.990 . S
N493 C492 1.314 . S
N493 C496 1.279 . S
C494 C492 1.353 . S
C494 C497 1.348 . S
C494 H526 0.929 . S
C495 C496 1.358 . S
C495 C497 1.356 . S
C495 H527 0.930 . S
C496 N493 1.279 . S
C496 C495 1.358 . S
C496 H499 0.930 . S
C497 C494 1.348 . S
C497 C495 1.356 . S
H498 C492 0.930 . S
H499 C496 0.930 . S
O500 Li440 1.956 . S
O500 Li441 1.970 . S
O500 Li442 1.961 . S
O500 C444 1.325 . S
O501 Li440 1.970 . S
O501 Li441 1.956 . S
O501 Li443 1.961 . S
O501 C450 1.325 . S
O502 Li440 1.961 . S
O502 Li442 1.956 . S
O502 Li443 1.970 . S
O502 C472 1.325 . S
O503 Li441 1.961 . S
O503 Li442 1.970 . S
O503 Li443 1.956 . S
O503 C478 1.325 . S
H504 C446 0.929 . S
H505 C447 0.930 . S
H506 C448 0.930 . S
H507 C449 0.930 . S
H508 C451 0.930 . S
H509 C453 0.929 . S
H510 C454 0.930 . S
H511 C455 0.930 . S
H512 C458 0.930 . S
H513 C461 0.929 . S
H514 C466 0.929 . S
H515 C467 0.930 . S
H516 C474 0.929 . S
H517 C475 0.930 . S
H518 C476 0.930 . S
H519 C477 0.930 . S
H520 C479 0.929 . S
H521 C480 0.930 . S
H522 C481 0.930 . S
H523 C482 0.930 . S
H524 C486 0.929 . S
H525 C488 0.930 . S
H526 C494 0.929 . S
H527 C495 0.930 . S
Li528 N545 1.990 . S
Li528 O588 1.956 . S
Li528 O589 1.970 . S
Li528 O590 1.961 . S
Li529 N553 1.990 . S
Li529 O588 1.970 . S
Li529 O589 1.956 . S
Li529 O591 1.961 . S
Li530 N575 1.990 . S
Li530 O588 1.961 . S
Li530 O590 1.956 . S
Li530 O591 1.970 . S
Li531 N581 1.990 . S
Li531 O589 1.961 . S
Li531 O590 1.970 . S
Li531 O591 1.956 . S
C532 C534 1.348 . S
C532 C535 1.356 . S
C532 O588 1.325 . S
N533 C536 1.314 . S
N533 C537 1.279 . S
C534 C532 1.348 . S
C534 C536 1.353 . S
C534 H592 0.929 . S
C535 C532 1.356 . S
C535 C537 1.358 . S
C535 H593 0.930 . S
C536 N533 1.314 . S
C536 C534 1.353 . S
C536 H594 0.930 . S
C537 N533 1.279 . S
C537 C535 1.358 . S
C537 H595 0.930 . S
C538 C541 1.348 . S
C538 C542 1.356 . S
C538 O589 1.325 . S
C539 N540 1.279 . S
C539 C542 1.358 . S
C539 H596 0.930 . S
N540 C539 1.279 . S
N540 C543 1.314 . S
C541 C538 1.348 . S
C541 C543 1.353 . S
C541 H597 0.929 . S
C542 C538 1.356 . S
C542 C539 1.358 . S
C542 H598 0.930 . S
C543 N540 1.314 . S
C543 C541 1.353 . S
C543 H599 0.930 . S
C544 N545 1.314 . S
C544 C549 1.353 . S
C544 H550 0.930 . S
N545 Li528 1.990 . S
N545 C544 1.314 . S
N545 C547 1.279 . S
C546 C547 1.358 . S
C546 C548 1.356 . S
C546 H600 0.930 . S
C547 N545 1.279 . S
C547 C546 1.358 . S
C547 H551 0.930 . S
C548 C546 1.356 . S
C548 C549 1.348 . S
C549 C544 1.353 . S
C549 C548 1.348 . S
C549 H601 0.929 . S
H550 C544 0.930 . S
H551 C547 0.930 . S
C552 N553 1.314 . S
C552 C554 1.353 . S
C552 H558 0.930 . S
N553 Li529 1.990 . S
N553 C552 1.314 . S
N553 C556 1.279 . S
C554 C552 1.353 . S
C554 C557 1.348 . S
C554 H602 0.929 . S
C555 C556 1.358 . S
C555 C557 1.356 . S
C555 H603 0.930 . S
C556 N553 1.279 . S
C556 C555 1.358 . S
C556 H559 0.930 . S
C557 C554 1.348 . S
C557 C555 1.356 . S
H558 C552 0.930 . S
H559 C556 0.930 . S
C560 C562 1.348 . S
C560 C563 1.356 . S
C560 O590 1.325 . S
N561 C564 1.314 . S
N561 C565 1.279 . S
C562 C560 1.348 . S
C562 C564 1.353 . S
C562 H604 0.929 . S
C563 C560 1.356 . S
C563 C565 1.358 . S
C563 H605 0.930 . S
C564 N561 1.314 . S
C564 C562 1.353 . S
C564 H606 0.930 . S
C565 N561 1.279 . S
C565 C563 1.358 . S
C565 H607 0.930 . S
C566 C567 1.348 . S
C566 C568 1.356 . S
C566 O591 1.325 . S
C567 C566 1.348 . S
C567 C569 1.353 . S
C567 H608 0.929 . S
C568 C566 1.356 . S
C568 C570 1.358 . S
C568 H609 0.930 . S
C569 C567 1.353 . S
C569 N571 1.314 . S
C569 H610 0.930 . S
C570 C568 1.358 . S
C570 N571 1.279 . S
C570 H611 0.930 . S
N571 C569 1.314 . S
N571 C570 1.279 . S
C572 C574 1.353 . S
C572 N575 1.314 . S
C572 H578 0.930 . S
C573 N575 1.279 . S
C573 C576 1.358 . S
C573 H579 0.930 . S
C574 C572 1.353 . S
C574 C577 1.348 . S
C574 H612 0.929 . S
N575 Li530 1.990 . S
N575 C572 1.314 . S
N575 C573 1.279 . S
C576 C573 1.358 . S
C576 C577 1.356 . S
C576 H613 0.930 . S
C577 C574 1.348 . S
C577 C576 1.356 . S
H578 C572 0.930 . S
H579 C573 0.930 . S
C580 N581 1.314 . S
C580 C582 1.353 . S
C580 H586 0.930 . S
N581 Li531 1.990 . S
N581 C580 1.314 . S
N581 C584 1.279 . S
C582 C580 1.353 . S
C582 C585 1.348 . S
C582 H614 0.929 . S
C583 C584 1.358 . S
C583 C585 1.356 . S
C583 H615 0.930 . S
C584 N581 1.279 . S
C584 C583 1.358 . S
C584 H587 0.930 . S
C585 C582 1.348 . S
C585 C583 1.356 . S
H586 C580 0.930 . S
H587 C584 0.930 . S
O588 Li528 1.956 . S
O588 Li529 1.970 . S
O588 Li530 1.961 . S
O588 C532 1.325 . S
O589 Li528 1.970 . S
O589 Li529 1.956 . S
O589 Li531 1.961 . S
O589 C538 1.325 . S
O590 Li528 1.961 . S
O590 Li530 1.956 . S
O590 Li531 1.970 . S
O590 C560 1.325 . S
O591 Li529 1.961 . S
O591 Li530 1.970 . S
O591 Li531 1.956 . S
O591 C566 1.325 . S
H592 C534 0.929 . S
H593 C535 0.930 . S
H594 C536 0.930 . S
H595 C537 0.930 . S
H596 C539 0.930 . S
H597 C541 0.929 . S
H598 C542 0.930 . S
H599 C543 0.930 . S
H600 C546 0.930 . S
H601 C549 0.929 . S
H602 C554 0.929 . S
H603 C555 0.930 . S
H604 C562 0.929 . S
H605 C563 0.930 . S
H606 C564 0.930 . S
H607 C565 0.930 . S
H608 C567 0.929 . S
H609 C568 0.930 . S
H610 C569 0.930 . S
H611 C570 0.930 . S
H612 C574 0.929 . S
H613 C576 0.930 . S
H614 C582 0.929 . S
H615 C583 0.930 . S
Li616 N633 1.990 . S
Li616 O676 1.956 . S
Li616 O677 1.970 . S
Li616 O678 1.961 . S
Li617 N641 1.990 . S
Li617 O676 1.970 . S
Li617 O677 1.956 . S
Li617 O679 1.961 . S
Li618 N663 1.990 . S
Li618 O676 1.961 . S
Li618 O678 1.956 . S
Li618 O679 1.970 . S
Li619 N669 1.990 . S
Li619 O677 1.961 . S
Li619 O678 1.970 . S
Li619 O679 1.956 . S
C620 C622 1.348 . S
C620 C623 1.356 . S
C620 O676 1.325 . S
N621 C624 1.314 . S
N621 C625 1.279 . S
C622 C620 1.348 . S
C622 C624 1.353 . S
C622 H680 0.929 . S
C623 C620 1.356 . S
C623 C625 1.358 . S
C623 H681 0.930 . S
C624 N621 1.314 . S
C624 C622 1.353 . S
C624 H682 0.930 . S
C625 N621 1.279 . S
C625 C623 1.358 . S
C625 H683 0.930 . S
C626 C629 1.348 . S
C626 C630 1.356 . S
C626 O677 1.325 . S
C627 N628 1.279 . S
C627 C630 1.358 . S
C627 H684 0.930 . S
N628 C627 1.279 . S
N628 C631 1.314 . S
C629 C626 1.348 . S
C629 C631 1.353 . S
C629 H685 0.929 . S
C630 C626 1.356 . S
C630 C627 1.358 . S
C630 H686 0.930 . S
C631 N628 1.314 . S
C631 C629 1.353 . S
C631 H687 0.930 . S
C632 N633 1.314 . S
C632 C637 1.353 . S
C632 H638 0.930 . S
N633 Li616 1.990 . S
N633 C632 1.314 . S
N633 C635 1.279 . S
C634 C635 1.358 . S
C634 C636 1.356 . S
C634 H688 0.930 . S
C635 N633 1.279 . S
C635 C634 1.358 . S
C635 H639 0.930 . S
C636 C634 1.356 . S
C636 C637 1.348 . S
C637 C632 1.353 . S
C637 C636 1.348 . S
C637 H689 0.929 . S
H638 C632 0.930 . S
H639 C635 0.930 . S
C640 N641 1.314 . S
C640 C642 1.353 . S
C640 H646 0.930 . S
N641 Li617 1.990 . S
N641 C640 1.314 . S
N641 C644 1.279 . S
C642 C640 1.353 . S
C642 C645 1.348 . S
C642 H690 0.929 . S
C643 C644 1.358 . S
C643 C645 1.356 . S
C643 H691 0.930 . S
C644 N641 1.279 . S
C644 C643 1.358 . S
C644 H647 0.930 . S
C645 C642 1.348 . S
C645 C643 1.356 . S
H646 C640 0.930 . S
H647 C644 0.930 . S
C648 C650 1.348 . S
C648 C651 1.356 . S
C648 O678 1.325 . S
N649 C652 1.314 . S
N649 C653 1.279 . S
C650 C648 1.348 . S
C650 C652 1.353 . S
C650 H692 0.929 . S
C651 C648 1.356 . S
C651 C653 1.358 . S
C651 H693 0.930 . S
C652 N649 1.314 . S
C652 C650 1.353 . S
C652 H694 0.930 . S
C653 N649 1.279 . S
C653 C651 1.358 . S
C653 H695 0.930 . S
C654 C655 1.348 . S
C654 C656 1.356 . S
C654 O679 1.325 . S
C655 C654 1.348 . S
C655 C657 1.353 . S
C655 H696 0.929 . S
C656 C654 1.356 . S
C656 C658 1.358 . S
C656 H697 0.930 . S
C657 C655 1.353 . S
C657 N659 1.314 . S
C657 H698 0.930 . S
C658 C656 1.358 . S
C658 N659 1.279 . S
C658 H699 0.930 . S
N659 C657 1.314 . S
N659 C658 1.279 . S
C660 C662 1.353 . S
C660 N663 1.314 . S
C660 H666 0.930 . S
C661 N663 1.279 . S
C661 C664 1.358 . S
C661 H667 0.930 . S
C662 C660 1.353 . S
C662 C665 1.348 . S
C662 H700 0.929 . S
N663 Li618 1.990 . S
N663 C660 1.314 . S
N663 C661 1.279 . S
C664 C661 1.358 . S
C664 C665 1.356 . S
C664 H701 0.930 . S
C665 C662 1.348 . S
C665 C664 1.356 . S
H666 C660 0.930 . S
H667 C661 0.930 . S
C668 N669 1.314 . S
C668 C670 1.353 . S
C668 H674 0.930 . S
N669 Li619 1.990 . S
N669 C668 1.314 . S
N669 C672 1.279 . S
C670 C668 1.353 . S
C670 C673 1.348 . S
C670 H702 0.929 . S
C671 C672 1.358 . S
C671 C673 1.356 . S
C671 H703 0.930 . S
C672 N669 1.279 . S
C672 C671 1.358 . S
C672 H675 0.930 . S
C673 C670 1.348 . S
C673 C671 1.356 . S
H674 C668 0.930 . S
H675 C672 0.930 . S
O676 Li616 1.956 . S
O676 Li617 1.970 . S
O676 Li618 1.961 . S
O676 C620 1.325 . S
O677 Li616 1.970 . S
O677 Li617 1.956 . S
O677 Li619 1.961 . S
O677 C626 1.325 . S
O678 Li616 1.961 . S
O678 Li618 1.956 . S
O678 Li619 1.970 . S
O678 C648 1.325 . S
O679 Li617 1.961 . S
O679 Li618 1.970 . S
O679 Li619 1.956 . S
O679 C654 1.325 . S
H680 C622 0.929 . S
H681 C623 0.930 . S
H682 C624 0.930 . S
H683 C625 0.930 . S
H684 C627 0.930 . S
H685 C629 0.929 . S
H686 C630 0.930 . S
H687 C631 0.930 . S
H688 C634 0.930 . S
H689 C637 0.929 . S
H690 C642 0.929 . S
H691 C643 0.930 . S
H692 C650 0.929 . S
H693 C651 0.930 . S
H694 C652 0.930 . S
H695 C653 0.930 . S
H696 C655 0.929 . S
H697 C656 0.930 . S
H698 C657 0.930 . S
H699 C658 0.930 . S
H700 C662 0.929 . S
H701 C664 0.930 . S
H702 C670 0.929 . S
H703 C671 0.930 . S
Li704 N721 1.990 . S
Li704 O764 1.956 . S
Li704 O765 1.970 . S
Li704 O766 1.961 . S
Li705 N729 1.990 . S
Li705 O764 1.970 . S
Li705 O765 1.956 . S
Li705 O767 1.961 . S
Li706 N751 1.990 . S
Li706 O764 1.961 . S
Li706 O766 1.956 . S
Li706 O767 1.970 . S
Li707 N757 1.990 . S
Li707 O765 1.961 . S
Li707 O766 1.970 . S
Li707 O767 1.956 . S
C708 C710 1.348 . S
C708 C711 1.356 . S
C708 O764 1.325 . S
N709 C712 1.314 . S
N709 C713 1.279 . S
C710 C708 1.348 . S
C710 C712 1.353 . S
C710 H768 0.929 . S
C711 C708 1.356 . S
C711 C713 1.358 . S
C711 H769 0.930 . S
C712 N709 1.314 . S
C712 C710 1.353 . S
C712 H770 0.930 . S
C713 N709 1.279 . S
C713 C711 1.358 . S
C713 H771 0.930 . S
C714 C717 1.348 . S
C714 C718 1.356 . S
C714 O765 1.325 . S
C715 N716 1.279 . S
C715 C718 1.358 . S
C715 H772 0.930 . S
N716 C715 1.279 . S
N716 C719 1.314 . S
C717 C714 1.348 . S
C717 C719 1.353 . S
C717 H773 0.929 . S
C718 C714 1.356 . S
C718 C715 1.358 . S
C718 H774 0.930 . S
C719 N716 1.314 . S
C719 C717 1.353 . S
C719 H775 0.930 . S
C720 N721 1.314 . S
C720 C725 1.353 . S
C720 H726 0.930 . S
N721 Li704 1.990 . S
N721 C720 1.314 . S
N721 C723 1.279 . S
C722 C723 1.358 . S
C722 C724 1.356 . S
C722 H776 0.930 . S
C723 N721 1.279 . S
C723 C722 1.358 . S
C723 H727 0.930 . S
C724 C722 1.356 . S
C724 C725 1.348 . S
C725 C720 1.353 . S
C725 C724 1.348 . S
C725 H777 0.929 . S
H726 C720 0.930 . S
H727 C723 0.930 . S
C728 N729 1.314 . S
C728 C730 1.353 . S
C728 H734 0.930 . S
N729 Li705 1.990 . S
N729 C728 1.314 . S
N729 C732 1.279 . S
C730 C728 1.353 . S
C730 C733 1.348 . S
C730 H778 0.929 . S
C731 C732 1.358 . S
C731 C733 1.356 . S
C731 H779 0.930 . S
C732 N729 1.279 . S
C732 C731 1.358 . S
C732 H735 0.930 . S
C733 C730 1.348 . S
C733 C731 1.356 . S
H734 C728 0.930 . S
H735 C732 0.930 . S
C736 C738 1.348 . S
C736 C739 1.356 . S
C736 O766 1.325 . S
N737 C740 1.314 . S
N737 C741 1.279 . S
C738 C736 1.348 . S
C738 C740 1.353 . S
C738 H780 0.929 . S
C739 C736 1.356 . S
C739 C741 1.358 . S
C739 H781 0.930 . S
C740 N737 1.314 . S
C740 C738 1.353 . S
C740 H782 0.930 . S
C741 N737 1.279 . S
C741 C739 1.358 . S
C741 H783 0.930 . S
C742 C743 1.348 . S
C742 C744 1.356 . S
C742 O767 1.325 . S
C743 C742 1.348 . S
C743 C745 1.353 . S
C743 H784 0.929 . S
C744 C742 1.356 . S
C744 C746 1.358 . S
C744 H785 0.930 . S
C745 C743 1.353 . S
C745 N747 1.314 . S
C745 H786 0.930 . S
C746 C744 1.358 . S
C746 N747 1.279 . S
C746 H787 0.930 . S
N747 C745 1.314 . S
N747 C746 1.279 . S
C748 C750 1.353 . S
C748 N751 1.314 . S
C748 H754 0.930 . S
C749 N751 1.279 . S
C749 C752 1.358 . S
C749 H755 0.930 . S
C750 C748 1.353 . S
C750 C753 1.348 . S
C750 H788 0.929 . S
N751 Li706 1.990 . S
N751 C748 1.314 . S
N751 C749 1.279 . S
C752 C749 1.358 . S
C752 C753 1.356 . S
C752 H789 0.930 . S
C753 C750 1.348 . S
C753 C752 1.356 . S
H754 C748 0.930 . S
H755 C749 0.930 . S
C756 N757 1.314 . S
C756 C758 1.353 . S
C756 H762 0.930 . S
N757 Li707 1.990 . S
N757 C756 1.314 . S
N757 C760 1.279 . S
C758 C756 1.353 . S
C758 C761 1.348 . S
C758 H790 0.929 . S
C759 C760 1.358 . S
C759 C761 1.356 . S
C759 H791 0.930 . S
C760 N757 1.279 . S
C760 C759 1.358 . S
C760 H763 0.930 . S
C761 C758 1.348 . S
C761 C759 1.356 . S
H762 C756 0.930 . S
H763 C760 0.930 . S
O764 Li704 1.956 . S
O764 Li705 1.970 . S
O764 Li706 1.961 . S
O764 C708 1.325 . S
O765 Li704 1.970 . S
O765 Li705 1.956 . S
O765 Li707 1.961 . S
O765 C714 1.325 . S
O766 Li704 1.961 . S
O766 Li706 1.956 . S
O766 Li707 1.970 . S
O766 C736 1.325 . S
O767 Li705 1.961 . S
O767 Li706 1.970 . S
O767 Li707 1.956 . S
O767 C742 1.325 . S
H768 C710 0.929 . S
H769 C711 0.930 . S
H770 C712 0.930 . S
H771 C713 0.930 . S
H772 C715 0.930 . S
H773 C717 0.929 . S
H774 C718 0.930 . S
H775 C719 0.930 . S
H776 C722 0.930 . S
H777 C725 0.929 . S
H778 C730 0.929 . S
H779 C731 0.930 . S
H780 C738 0.929 . S
H781 C739 0.930 . S
H782 C740 0.930 . S
H783 C741 0.930 . S
H784 C743 0.929 . S
H785 C744 0.930 . S
H786 C745 0.930 . S
H787 C746 0.930 . S
H788 C750 0.929 . S
H789 C752 0.930 . S
H790 C758 0.929 . S
H791 C759 0.930 . S
Li792 N809 1.990 . S
Li792 O852 1.956 . S
Li792 O853 1.970 . S
Li792 O854 1.961 . S
Li793 N817 1.990 . S
Li793 O852 1.970 . S
Li793 O853 1.956 . S
Li793 O855 1.961 . S
Li794 N839 1.990 . S
Li794 O852 1.961 . S
Li794 O854 1.956 . S
Li794 O855 1.970 . S
Li795 N845 1.990 . S
Li795 O853 1.961 . S
Li795 O854 1.970 . S
Li795 O855 1.956 . S
C796 C798 1.348 . S
C796 C799 1.356 . S
C796 O852 1.325 . S
N797 C800 1.314 . S
N797 C801 1.279 . S
C798 C796 1.348 . S
C798 C800 1.353 . S
C798 H856 0.929 . S
C799 C796 1.356 . S
C799 C801 1.358 . S
C799 H857 0.930 . S
C800 N797 1.314 . S
C800 C798 1.353 . S
C800 H858 0.930 . S
C801 N797 1.279 . S
C801 C799 1.358 . S
C801 H859 0.930 . S
C802 C805 1.348 . S
C802 C806 1.356 . S
C802 O853 1.325 . S
C803 N804 1.279 . S
C803 C806 1.358 . S
C803 H860 0.930 . S
N804 C803 1.279 . S
N804 C807 1.314 . S
C805 C802 1.348 . S
C805 C807 1.353 . S
C805 H861 0.929 . S
C806 C802 1.356 . S
C806 C803 1.358 . S
C806 H862 0.930 . S
C807 N804 1.314 . S
C807 C805 1.353 . S
C807 H863 0.930 . S
C808 N809 1.314 . S
C808 C813 1.353 . S
C808 H814 0.930 . S
N809 Li792 1.990 . S
N809 C808 1.314 . S
N809 C811 1.279 . S
C810 C811 1.358 . S
C810 C812 1.356 . S
C810 H864 0.930 . S
C811 N809 1.279 . S
C811 C810 1.358 . S
C811 H815 0.930 . S
C812 C810 1.356 . S
C812 C813 1.348 . S
C813 C808 1.353 . S
C813 C812 1.348 . S
C813 H865 0.929 . S
H814 C808 0.930 . S
H815 C811 0.930 . S
C816 N817 1.314 . S
C816 C818 1.353 . S
C816 H822 0.930 . S
N817 Li793 1.990 . S
N817 C816 1.314 . S
N817 C820 1.279 . S
C818 C816 1.353 . S
C818 C821 1.348 . S
C818 H866 0.929 . S
C819 C820 1.358 . S
C819 C821 1.356 . S
C819 H867 0.930 . S
C820 N817 1.279 . S
C820 C819 1.358 . S
C820 H823 0.930 . S
C821 C818 1.348 . S
C821 C819 1.356 . S
H822 C816 0.930 . S
H823 C820 0.930 . S
C824 C826 1.348 . S
C824 C827 1.356 . S
C824 O854 1.325 . S
N825 C828 1.314 . S
N825 C829 1.279 . S
C826 C824 1.348 . S
C826 C828 1.353 . S
C826 H868 0.929 . S
C827 C824 1.356 . S
C827 C829 1.358 . S
C827 H869 0.930 . S
C828 N825 1.314 . S
C828 C826 1.353 . S
C828 H870 0.930 . S
C829 N825 1.279 . S
C829 C827 1.358 . S
C829 H871 0.930 . S
C830 C831 1.348 . S
C830 C832 1.356 . S
C830 O855 1.325 . S
C831 C830 1.348 . S
C831 C833 1.353 . S
C831 H872 0.929 . S
C832 C830 1.356 . S
C832 C834 1.358 . S
C832 H873 0.930 . S
C833 C831 1.353 . S
C833 N835 1.314 . S
C833 H874 0.930 . S
C834 C832 1.358 . S
C834 N835 1.279 . S
C834 H875 0.930 . S
N835 C833 1.314 . S
N835 C834 1.279 . S
C836 C838 1.353 . S
C836 N839 1.314 . S
C836 H842 0.930 . S
C837 N839 1.279 . S
C837 C840 1.358 . S
C837 H843 0.930 . S
C838 C836 1.353 . S
C838 C841 1.348 . S
C838 H876 0.929 . S
N839 Li794 1.990 . S
N839 C836 1.314 . S
N839 C837 1.279 . S
C840 C837 1.358 . S
C840 C841 1.356 . S
C840 H877 0.930 . S
C841 C838 1.348 . S
C841 C840 1.356 . S
H842 C836 0.930 . S
H843 C837 0.930 . S
C844 N845 1.314 . S
C844 C846 1.353 . S
C844 H850 0.930 . S
N845 Li795 1.990 . S
N845 C844 1.314 . S
N845 C848 1.279 . S
C846 C844 1.353 . S
C846 C849 1.348 . S
C846 H878 0.929 . S
C847 C848 1.358 . S
C847 C849 1.356 . S
C847 H879 0.930 . S
C848 N845 1.279 . S
C848 C847 1.358 . S
C848 H851 0.930 . S
C849 C846 1.348 . S
C849 C847 1.356 . S
H850 C844 0.930 . S
H851 C848 0.930 . S
O852 Li792 1.956 . S
O852 Li793 1.970 . S
O852 Li794 1.961 . S
O852 C796 1.325 . S
O853 Li792 1.970 . S
O853 Li793 1.956 . S
O853 Li795 1.961 . S
O853 C802 1.325 . S
O854 Li792 1.961 . S
O854 Li794 1.956 . S
O854 Li795 1.970 . S
O854 C824 1.325 . S
O855 Li793 1.961 . S
O855 Li794 1.970 . S
O855 Li795 1.956 . S
O855 C830 1.325 . S
H856 C798 0.929 . S
H857 C799 0.930 . S
H858 C800 0.930 . S
H859 C801 0.930 . S
H860 C803 0.930 . S
H861 C805 0.929 . S
H862 C806 0.930 . S
H863 C807 0.930 . S
H864 C810 0.930 . S
H865 C813 0.929 . S
H866 C818 0.929 . S
H867 C819 0.930 . S
H868 C826 0.929 . S
H869 C827 0.930 . S
H870 C828 0.930 . S
H871 C829 0.930 . S
H872 C831 0.929 . S
H873 C832 0.930 . S
H874 C833 0.930 . S
H875 C834 0.930 . S
H876 C838 0.929 . S
H877 C840 0.930 . S
H878 C846 0.929 . S
H879 C847 0.930 . S
Li880 N897 1.990 . S
Li880 O940 1.956 . S
Li880 O941 1.970 . S
Li880 O942 1.961 . S
Li881 N905 1.990 . S
Li881 O940 1.970 . S
Li881 O941 1.956 . S
Li881 O943 1.961 . S
Li882 N927 1.990 . S
Li882 O940 1.961 . S
Li882 O942 1.956 . S
Li882 O943 1.970 . S
Li883 N933 1.990 . S
Li883 O941 1.961 . S
Li883 O942 1.970 . S
Li883 O943 1.956 . S
C884 C886 1.348 . S
C884 C887 1.356 . S
C884 O940 1.325 . S
N885 C888 1.314 . S
N885 C889 1.279 . S
C886 C884 1.348 . S
C886 C888 1.353 . S
C886 H944 0.929 . S
C887 C884 1.356 . S
C887 C889 1.358 . S
C887 H945 0.930 . S
C888 N885 1.314 . S
C888 C886 1.353 . S
C888 H946 0.930 . S
C889 N885 1.279 . S
C889 C887 1.358 . S
C889 H947 0.930 . S
C890 C893 1.348 . S
C890 C894 1.356 . S
C890 O941 1.325 . S
C891 N892 1.279 . S
C891 C894 1.358 . S
C891 H948 0.930 . S
N892 C891 1.279 . S
N892 C895 1.314 . S
C893 C890 1.348 . S
C893 C895 1.353 . S
C893 H949 0.929 . S
C894 C890 1.356 . S
C894 C891 1.358 . S
C894 H950 0.930 . S
C895 N892 1.314 . S
C895 C893 1.353 . S
C895 H951 0.930 . S
C896 N897 1.314 . S
C896 C901 1.353 . S
C896 H902 0.930 . S
N897 Li880 1.990 . S
N897 C896 1.314 . S
N897 C899 1.279 . S
C898 C899 1.358 . S
C898 C900 1.356 . S
C898 H952 0.930 . S
C899 N897 1.279 . S
C899 C898 1.358 . S
C899 H903 0.930 . S
C900 C898 1.356 . S
C900 C901 1.348 . S
C901 C896 1.353 . S
C901 C900 1.348 . S
C901 H953 0.929 . S
H902 C896 0.930 . S
H903 C899 0.930 . S
C904 N905 1.314 . S
C904 C906 1.353 . S
C904 H910 0.930 . S
N905 Li881 1.990 . S
N905 C904 1.314 . S
N905 C908 1.279 . S
C906 C904 1.353 . S
C906 C909 1.348 . S
C906 H954 0.929 . S
C907 C908 1.358 . S
C907 C909 1.356 . S
C907 H955 0.930 . S
C908 N905 1.279 . S
C908 C907 1.358 . S
C908 H911 0.930 . S
C909 C906 1.348 . S
C909 C907 1.356 . S
H910 C904 0.930 . S
H911 C908 0.930 . S
C912 C914 1.348 . S
C912 C915 1.356 . S
C912 O942 1.325 . S
N913 C916 1.314 . S
N913 C917 1.279 . S
C914 C912 1.348 . S
C914 C916 1.353 . S
C914 H956 0.929 . S
C915 C912 1.356 . S
C915 C917 1.358 . S
C915 H957 0.930 . S
C916 N913 1.314 . S
C916 C914 1.353 . S
C916 H958 0.930 . S
C917 N913 1.279 . S
C917 C915 1.358 . S
C917 H959 0.930 . S
C918 C919 1.348 . S
C918 C920 1.356 . S
C918 O943 1.325 . S
C919 C918 1.348 . S
C919 C921 1.353 . S
C919 H960 0.929 . S
C920 C918 1.356 . S
C920 C922 1.358 . S
C920 H961 0.930 . S
C921 C919 1.353 . S
C921 N923 1.314 . S
C921 H962 0.930 . S
C922 C920 1.358 . S
C922 N923 1.279 . S
C922 H963 0.930 . S
N923 C921 1.314 . S
N923 C922 1.279 . S
C924 C926 1.353 . S
C924 N927 1.314 . S
C924 H930 0.930 . S
C925 N927 1.279 . S
C925 C928 1.358 . S
C925 H931 0.930 . S
C926 C924 1.353 . S
C926 C929 1.348 . S
C926 H964 0.929 . S
N927 Li882 1.990 . S
N927 C924 1.314 . S
N927 C925 1.279 . S
C928 C925 1.358 . S
C928 C929 1.356 . S
C928 H965 0.930 . S
C929 C926 1.348 . S
C929 C928 1.356 . S
H930 C924 0.930 . S
H931 C925 0.930 . S
C932 N933 1.314 . S
C932 C934 1.353 . S
C932 H938 0.930 . S
N933 Li883 1.990 . S
N933 C932 1.314 . S
N933 C936 1.279 . S
C934 C932 1.353 . S
C934 C937 1.348 . S
C934 H966 0.929 . S
C935 C936 1.358 . S
C935 C937 1.356 . S
C935 H967 0.930 . S
C936 N933 1.279 . S
C936 C935 1.358 . S
C936 H939 0.930 . S
C937 C934 1.348 . S
C937 C935 1.356 . S
H938 C932 0.930 . S
H939 C936 0.930 . S
O940 Li880 1.956 . S
O940 Li881 1.970 . S
O940 Li882 1.961 . S
O940 C884 1.325 . S
O941 Li880 1.970 . S
O941 Li881 1.956 . S
O941 Li883 1.961 . S
O941 C890 1.325 . S
O942 Li880 1.961 . S
O942 Li882 1.956 . S
O942 Li883 1.970 . S
O942 C912 1.325 . S
O943 Li881 1.961 . S
O943 Li882 1.970 . S
O943 Li883 1.956 . S
O943 C918 1.325 . S
H944 C886 0.929 . S
H945 C887 0.930 . S
H946 C888 0.930 . S
H947 C889 0.930 . S
H948 C891 0.930 . S
H949 C893 0.929 . S
H950 C894 0.930 . S
H951 C895 0.930 . S
H952 C898 0.930 . S
H953 C901 0.929 . S
H954 C906 0.929 . S
H955 C907 0.930 . S
H956 C914 0.929 . S
H957 C915 0.930 . S
H958 C916 0.930 . S
H959 C917 0.930 . S
H960 C919 0.929 . S
H961 C920 0.930 . S
H962 C921 0.930 . S
H963 C922 0.930 . S
H964 C926 0.929 . S
H965 C928 0.930 . S
H966 C934 0.929 . S
H967 C935 0.930 . S
Li968 N985 1.990 . S
Li968 O1028 1.956 . S
Li968 O1029 1.970 . S
Li968 O1030 1.961 . S
Li969 N993 1.990 . S
Li969 O1028 1.970 . S
Li969 O1029 1.956 . S
Li969 O1031 1.961 . S
Li970 N1015 1.990 . S
Li970 O1028 1.961 . S
Li970 O1030 1.956 . S
Li970 O1031 1.970 . S
Li971 N1021 1.990 . S
Li971 O1029 1.961 . S
Li971 O1030 1.970 . S
Li971 O1031 1.956 . S
C972 C974 1.348 . S
C972 C975 1.356 . S
C972 O1028 1.325 . S
N973 C976 1.314 . S
N973 C977 1.279 . S
C974 C972 1.348 . S
C974 C976 1.353 . S
C974 H1032 0.929 . S
C975 C972 1.356 . S
C975 C977 1.358 . S
C975 H1033 0.930 . S
C976 N973 1.314 . S
C976 C974 1.353 . S
C976 H1034 0.930 . S
C977 N973 1.279 . S
C977 C975 1.358 . S
C977 H1035 0.930 . S
C978 C981 1.348 . S
C978 C982 1.356 . S
C978 O1029 1.325 . S
C979 N980 1.279 . S
C979 C982 1.358 . S
C979 H1036 0.930 . S
N980 C979 1.279 . S
N980 C983 1.314 . S
C981 C978 1.348 . S
C981 C983 1.353 . S
C981 H1037 0.929 . S
C982 C978 1.356 . S
C982 C979 1.358 . S
C982 H1038 0.930 . S
C983 N980 1.314 . S
C983 C981 1.353 . S
C983 H1039 0.930 . S
C984 N985 1.314 . S
C984 C989 1.353 . S
C984 H990 0.930 . S
N985 Li968 1.990 . S
N985 C984 1.314 . S
N985 C987 1.279 . S
C986 C987 1.358 . S
C986 C988 1.356 . S
C986 H1040 0.930 . S
C987 N985 1.279 . S
C987 C986 1.358 . S
C987 H991 0.930 . S
C988 C986 1.356 . S
C988 C989 1.348 . S
C989 C984 1.353 . S
C989 C988 1.348 . S
C989 H1041 0.929 . S
H990 C984 0.930 . S
H991 C987 0.930 . S
C992 N993 1.314 . S
C992 C994 1.353 . S
C992 H998 0.930 . S
N993 Li969 1.990 . S
N993 C992 1.314 . S
N993 C996 1.279 . S
C994 C992 1.353 . S
C994 C997 1.348 . S
C994 H1042 0.929 . S
C995 C996 1.358 . S
C995 C997 1.356 . S
C995 H1043 0.930 . S
C996 N993 1.279 . S
C996 C995 1.358 . S
C996 H999 0.930 . S
C997 C994 1.348 . S
C997 C995 1.356 . S
H998 C992 0.930 . S
H999 C996 0.930 . S
C1000 C1002 1.348 . S
C1000 C1003 1.356 . S
C1000 O1030 1.325 . S
N1001 C1004 1.314 . S
N1001 C1005 1.279 . S
C1002 C1000 1.348 . S
C1002 C1004 1.353 . S
C1002 H1044 0.929 . S
C1003 C1000 1.356 . S
C1003 C1005 1.358 . S
C1003 H1045 0.930 . S
C1004 N1001 1.314 . S
C1004 C1002 1.353 . S
C1004 H1046 0.930 . S
C1005 N1001 1.279 . S
C1005 C1003 1.358 . S
C1005 H1047 0.930 . S
C1006 C1007 1.348 . S
C1006 C1008 1.356 . S
C1006 O1031 1.325 . S
C1007 C1006 1.348 . S
C1007 C1009 1.353 . S
C1007 H1048 0.929 . S
C1008 C1006 1.356 . S
C1008 C1010 1.358 . S
C1008 H1049 0.930 . S
C1009 C1007 1.353 . S
C1009 N1011 1.314 . S
C1009 H1050 0.930 . S
C1010 C1008 1.358 . S
C1010 N1011 1.279 . S
C1010 H1051 0.930 . S
N1011 C1009 1.314 . S
N1011 C1010 1.279 . S
C1012 C1014 1.353 . S
C1012 N1015 1.314 . S
C1012 H1018 0.930 . S
C1013 N1015 1.279 . S
C1013 C1016 1.358 . S
C1013 H1019 0.930 . S
C1014 C1012 1.353 . S
C1014 C1017 1.348 . S
C1014 H1052 0.929 . S
N1015 Li970 1.990 . S
N1015 C1012 1.314 . S
N1015 C1013 1.279 . S
C1016 C1013 1.358 . S
C1016 C1017 1.356 . S
C1016 H1053 0.930 . S
C1017 C1014 1.348 . S
C1017 C1016 1.356 . S
H1018 C1012 0.930 . S
H1019 C1013 0.930 . S
C1020 N1021 1.314 . S
C1020 C1022 1.353 . S
C1020 H1026 0.930 . S
N1021 Li971 1.990 . S
N1021 C1020 1.314 . S
N1021 C1024 1.279 . S
C1022 C1020 1.353 . S
C1022 C1025 1.348 . S
C1022 H1054 0.929 . S
C1023 C1024 1.358 . S
C1023 C1025 1.356 . S
C1023 H1055 0.930 . S
C1024 N1021 1.279 . S
C1024 C1023 1.358 . S
C1024 H1027 0.930 . S
C1025 C1022 1.348 . S
C1025 C1023 1.356 . S
H1026 C1020 0.930 . S
H1027 C1024 0.930 . S
O1028 Li968 1.956 . S
O1028 Li969 1.970 . S
O1028 Li970 1.961 . S
O1028 C972 1.325 . S
O1029 Li968 1.970 . S
O1029 Li969 1.956 . S
O1029 Li971 1.961 . S
O1029 C978 1.325 . S
O1030 Li968 1.961 . S
O1030 Li970 1.956 . S
O1030 Li971 1.970 . S
O1030 C1000 1.325 . S
O1031 Li969 1.961 . S
O1031 Li970 1.970 . S
O1031 Li971 1.956 . S
O1031 C1006 1.325 . S
H1032 C974 0.929 . S
H1033 C975 0.930 . S
H1034 C976 0.930 . S
H1035 C977 0.930 . S
H1036 C979 0.930 . S
H1037 C981 0.929 . S
H1038 C982 0.930 . S
H1039 C983 0.930 . S
H1040 C986 0.930 . S
H1041 C989 0.929 . S
H1042 C994 0.929 . S
H1043 C995 0.930 . S
H1044 C1002 0.929 . S
H1045 C1003 0.930 . S
H1046 C1004 0.930 . S
H1047 C1005 0.930 . S
H1048 C1007 0.929 . S
H1049 C1008 0.930 . S
H1050 C1009 0.930 . S
H1051 C1010 0.930 . S
H1052 C1014 0.929 . S
H1053 C1016 0.930 . S
H1054 C1022 0.929 . S
H1055 C1023 0.930 . S
Li1056 N1073 1.990 . S
Li1056 O1116 1.956 . S
Li1056 O1117 1.970 . S
Li1056 O1118 1.961 . S
Li1057 N1081 1.990 . S
Li1057 O1116 1.970 . S
Li1057 O1117 1.956 . S
Li1057 O1119 1.961 . S
Li1058 N1103 1.990 . S
Li1058 O1116 1.961 . S
Li1058 O1118 1.956 . S
Li1058 O1119 1.970 . S
Li1059 N1109 1.990 . S
Li1059 O1117 1.961 . S
Li1059 O1118 1.970 . S
Li1059 O1119 1.956 . S
C1060 C1062 1.348 . S
C1060 C1063 1.356 . S
C1060 O1116 1.325 . S
N1061 C1064 1.314 . S
N1061 C1065 1.279 . S
C1062 C1060 1.348 . S
C1062 C1064 1.353 . S
C1062 H1120 0.929 . S
C1063 C1060 1.356 . S
C1063 C1065 1.358 . S
C1063 H1121 0.930 . S
C1064 N1061 1.314 . S
C1064 C1062 1.353 . S
C1064 H1122 0.930 . S
C1065 N1061 1.279 . S
C1065 C1063 1.358 . S
C1065 H1123 0.930 . S
C1066 C1069 1.348 . S
C1066 C1070 1.356 . S
C1066 O1117 1.325 . S
C1067 N1068 1.279 . S
C1067 C1070 1.358 . S
C1067 H1124 0.930 . S
N1068 C1067 1.279 . S
N1068 C1071 1.314 . S
C1069 C1066 1.348 . S
C1069 C1071 1.353 . S
C1069 H1125 0.929 . S
C1070 C1066 1.356 . S
C1070 C1067 1.358 . S
C1070 H1126 0.930 . S
C1071 N1068 1.314 . S
C1071 C1069 1.353 . S
C1071 H1127 0.930 . S
C1072 N1073 1.314 . S
C1072 C1077 1.353 . S
C1072 H1078 0.930 . S
N1073 Li1056 1.990 . S
N1073 C1072 1.314 . S
N1073 C1075 1.279 . S
C1074 C1075 1.358 . S
C1074 C1076 1.356 . S
C1074 H1128 0.930 . S
C1075 N1073 1.279 . S
C1075 C1074 1.358 . S
C1075 H1079 0.930 . S
C1076 C1074 1.356 . S
C1076 C1077 1.348 . S
C1077 C1072 1.353 . S
C1077 C1076 1.348 . S
C1077 H1129 0.929 . S
H1078 C1072 0.930 . S
H1079 C1075 0.930 . S
C1080 N1081 1.314 . S
C1080 C1082 1.353 . S
C1080 H1086 0.930 . S
N1081 Li1057 1.990 . S
N1081 C1080 1.314 . S
N1081 C1084 1.279 . S
C1082 C1080 1.353 . S
C1082 C1085 1.348 . S
C1082 H1130 0.929 . S
C1083 C1084 1.358 . S
C1083 C1085 1.356 . S
C1083 H1131 0.930 . S
C1084 N1081 1.279 . S
C1084 C1083 1.358 . S
C1084 H1087 0.930 . S
C1085 C1082 1.348 . S
C1085 C1083 1.356 . S
H1086 C1080 0.930 . S
H1087 C1084 0.930 . S
C1088 C1090 1.348 . S
C1088 C1091 1.356 . S
C1088 O1118 1.325 . S
N1089 C1092 1.314 . S
N1089 C1093 1.279 . S
C1090 C1088 1.348 . S
C1090 C1092 1.353 . S
C1090 H1132 0.929 . S
C1091 C1088 1.356 . S
C1091 C1093 1.358 . S
C1091 H1133 0.930 . S
C1092 N1089 1.314 . S
C1092 C1090 1.353 . S
C1092 H1134 0.930 . S
C1093 N1089 1.279 . S
C1093 C1091 1.358 . S
C1093 H1135 0.930 . S
C1094 C1095 1.348 . S
C1094 C1096 1.356 . S
C1094 O1119 1.325 . S
C1095 C1094 1.348 . S
C1095 C1097 1.353 . S
C1095 H1136 0.929 . S
C1096 C1094 1.356 . S
C1096 C1098 1.358 . S
C1096 H1137 0.930 . S
C1097 C1095 1.353 . S
C1097 N1099 1.314 . S
C1097 H1138 0.930 . S
C1098 C1096 1.358 . S
C1098 N1099 1.279 . S
C1098 H1139 0.930 . S
N1099 C1097 1.314 . S
N1099 C1098 1.279 . S
C1100 C1102 1.353 . S
C1100 N1103 1.314 . S
C1100 H1106 0.930 . S
C1101 N1103 1.279 . S
C1101 C1104 1.358 . S
C1101 H1107 0.930 . S
C1102 C1100 1.353 . S
C1102 C1105 1.348 . S
C1102 H1140 0.929 . S
N1103 Li1058 1.990 . S
N1103 C1100 1.314 . S
N1103 C1101 1.279 . S
C1104 C1101 1.358 . S
C1104 C1105 1.356 . S
C1104 H1141 0.930 . S
C1105 C1102 1.348 . S
C1105 C1104 1.356 . S
H1106 C1100 0.930 . S
H1107 C1101 0.930 . S
C1108 N1109 1.314 . S
C1108 C1110 1.353 . S
C1108 H1114 0.930 . S
N1109 Li1059 1.990 . S
N1109 C1108 1.314 . S
N1109 C1112 1.279 . S
C1110 C1108 1.353 . S
C1110 C1113 1.348 . S
C1110 H1142 0.929 . S
C1111 C1112 1.358 . S
C1111 C1113 1.356 . S
C1111 H1143 0.930 . S
C1112 N1109 1.279 . S
C1112 C1111 1.358 . S
C1112 H1115 0.930 . S
C1113 C1110 1.348 . S
C1113 C1111 1.356 . S
H1114 C1108 0.930 . S
H1115 C1112 0.930 . S
O1116 Li1056 1.956 . S
O1116 Li1057 1.970 . S
O1116 Li1058 1.961 . S
O1116 C1060 1.325 . S
O1117 Li1056 1.970 . S
O1117 Li1057 1.956 . S
O1117 Li1059 1.961 . S
O1117 C1066 1.325 . S
O1118 Li1056 1.961 . S
O1118 Li1058 1.956 . S
O1118 Li1059 1.970 . S
O1118 C1088 1.325 . S
O1119 Li1057 1.961 . S
O1119 Li1058 1.970 . S
O1119 Li1059 1.956 . S
O1119 C1094 1.325 . S
H1120 C1062 0.929 . S
H1121 C1063 0.930 . S
H1122 C1064 0.930 . S
H1123 C1065 0.930 . S
H1124 C1067 0.930 . S
H1125 C1069 0.929 . S
H1126 C1070 0.930 . S
H1127 C1071 0.930 . S
H1128 C1074 0.930 . S
H1129 C1077 0.929 . S
H1130 C1082 0.929 . S
H1131 C1083 0.930 . S
H1132 C1090 0.929 . S
H1133 C1091 0.930 . S
H1134 C1092 0.930 . S
H1135 C1093 0.930 . S
H1136 C1095 0.929 . S
H1137 C1096 0.930 . S
H1138 C1097 0.930 . S
H1139 C1098 0.930 . S
H1140 C1102 0.929 . S
H1141 C1104 0.930 . S
H1142 C1110 0.929 . S
H1143 C1111 0.930 . S
Li1144 N1161 1.990 . S
Li1144 O1204 1.956 . S
Li1144 O1205 1.970 . S
Li1144 O1206 1.961 . S
Li1145 N1169 1.990 . S
Li1145 O1204 1.970 . S
Li1145 O1205 1.956 . S
Li1145 O1207 1.961 . S
Li1146 N1191 1.990 . S
Li1146 O1204 1.961 . S
Li1146 O1206 1.956 . S
Li1146 O1207 1.970 . S
Li1147 N1197 1.990 . S
Li1147 O1205 1.961 . S
Li1147 O1206 1.970 . S
Li1147 O1207 1.956 . S
C1148 C1150 1.348 . S
C1148 C1151 1.356 . S
C1148 O1204 1.325 . S
N1149 C1152 1.314 . S
N1149 C1153 1.279 . S
C1150 C1148 1.348 . S
C1150 C1152 1.353 . S
C1150 H1208 0.929 . S
C1151 C1148 1.356 . S
C1151 C1153 1.358 . S
C1151 H1209 0.930 . S
C1152 N1149 1.314 . S
C1152 C1150 1.353 . S
C1152 H1210 0.930 . S
C1153 N1149 1.279 . S
C1153 C1151 1.358 . S
C1153 H1211 0.930 . S
C1154 C1157 1.348 . S
C1154 C1158 1.356 . S
C1154 O1205 1.325 . S
C1155 N1156 1.279 . S
C1155 C1158 1.358 . S
C1155 H1212 0.930 . S
N1156 C1155 1.279 . S
N1156 C1159 1.314 . S
C1157 C1154 1.348 . S
C1157 C1159 1.353 . S
C1157 H1213 0.929 . S
C1158 C1154 1.356 . S
C1158 C1155 1.358 . S
C1158 H1214 0.930 . S
C1159 N1156 1.314 . S
C1159 C1157 1.353 . S
C1159 H1215 0.930 . S
C1160 N1161 1.314 . S
C1160 C1165 1.353 . S
C1160 H1166 0.930 . S
N1161 Li1144 1.990 . S
N1161 C1160 1.314 . S
N1161 C1163 1.279 . S
C1162 C1163 1.358 . S
C1162 C1164 1.356 . S
C1162 H1216 0.930 . S
C1163 N1161 1.279 . S
C1163 C1162 1.358 . S
C1163 H1167 0.930 . S
C1164 C1162 1.356 . S
C1164 C1165 1.348 . S
C1165 C1160 1.353 . S
C1165 C1164 1.348 . S
C1165 H1217 0.929 . S
H1166 C1160 0.930 . S
H1167 C1163 0.930 . S
C1168 N1169 1.314 . S
C1168 C1170 1.353 . S
C1168 H1174 0.930 . S
N1169 Li1145 1.990 . S
N1169 C1168 1.314 . S
N1169 C1172 1.279 . S
C1170 C1168 1.353 . S
C1170 C1173 1.348 . S
C1170 H1218 0.929 . S
C1171 C1172 1.358 . S
C1171 C1173 1.356 . S
C1171 H1219 0.930 . S
C1172 N1169 1.279 . S
C1172 C1171 1.358 . S
C1172 H1175 0.930 . S
C1173 C1170 1.348 . S
C1173 C1171 1.356 . S
H1174 C1168 0.930 . S
H1175 C1172 0.930 . S
C1176 C1178 1.348 . S
C1176 C1179 1.356 . S
C1176 O1206 1.325 . S
N1177 C1180 1.314 . S
N1177 C1181 1.279 . S
C1178 C1176 1.348 . S
C1178 C1180 1.353 . S
C1178 H1220 0.929 . S
C1179 C1176 1.356 . S
C1179 C1181 1.358 . S
C1179 H1221 0.930 . S
C1180 N1177 1.314 . S
C1180 C1178 1.353 . S
C1180 H1222 0.930 . S
C1181 N1177 1.279 . S
C1181 C1179 1.358 . S
C1181 H1223 0.930 . S
C1182 C1183 1.348 . S
C1182 C1184 1.356 . S
C1182 O1207 1.325 . S
C1183 C1182 1.348 . S
C1183 C1185 1.353 . S
C1183 H1224 0.929 . S
C1184 C1182 1.356 . S
C1184 C1186 1.358 . S
C1184 H1225 0.930 . S
C1185 C1183 1.353 . S
C1185 N1187 1.314 . S
C1185 H1226 0.930 . S
C1186 C1184 1.358 . S
C1186 N1187 1.279 . S
C1186 H1227 0.930 . S
N1187 C1185 1.314 . S
N1187 C1186 1.279 . S
C1188 C1190 1.353 . S
C1188 N1191 1.314 . S
C1188 H1194 0.930 . S
C1189 N1191 1.279 . S
C1189 C1192 1.358 . S
C1189 H1195 0.930 . S
C1190 C1188 1.353 . S
C1190 C1193 1.348 . S
C1190 H1228 0.929 . S
N1191 Li1146 1.990 . S
N1191 C1188 1.314 . S
N1191 C1189 1.279 . S
C1192 C1189 1.358 . S
C1192 C1193 1.356 . S
C1192 H1229 0.930 . S
C1193 C1190 1.348 . S
C1193 C1192 1.356 . S
H1194 C1188 0.930 . S
H1195 C1189 0.930 . S
C1196 N1197 1.314 . S
C1196 C1198 1.353 . S
C1196 H1202 0.930 . S
N1197 Li1147 1.990 . S
N1197 C1196 1.314 . S
N1197 C1200 1.279 . S
C1198 C1196 1.353 . S
C1198 C1201 1.348 . S
C1198 H1230 0.929 . S
C1199 C1200 1.358 . S
C1199 C1201 1.356 . S
C1199 H1231 0.930 . S
C1200 N1197 1.279 . S
C1200 C1199 1.358 . S
C1200 H1203 0.930 . S
C1201 C1198 1.348 . S
C1201 C1199 1.356 . S
H1202 C1196 0.930 . S
H1203 C1200 0.930 . S
O1204 Li1144 1.956 . S
O1204 Li1145 1.970 . S
O1204 Li1146 1.961 . S
O1204 C1148 1.325 . S
O1205 Li1144 1.970 . S
O1205 Li1145 1.956 . S
O1205 Li1147 1.961 . S
O1205 C1154 1.325 . S
O1206 Li1144 1.961 . S
O1206 Li1146 1.956 . S
O1206 Li1147 1.970 . S
O1206 C1176 1.325 . S
O1207 Li1145 1.961 . S
O1207 Li1146 1.970 . S
O1207 Li1147 1.956 . S
O1207 C1182 1.325 . S
H1208 C1150 0.929 . S
H1209 C1151 0.930 . S
H1210 C1152 0.930 . S
H1211 C1153 0.930 . S
H1212 C1155 0.930 . S
H1213 C1157 0.929 . S
H1214 C1158 0.930 . S
H1215 C1159 0.930 . S
H1216 C1162 0.930 . S
H1217 C1165 0.929 . S
H1218 C1170 0.929 . S
H1219 C1171 0.930 . S
H1220 C1178 0.929 . S
H1221 C1179 0.930 . S
H1222 C1180 0.930 . S
H1223 C1181 0.930 . S
H1224 C1183 0.929 . S
H1225 C1184 0.930 . S
H1226 C1185 0.930 . S
H1227 C1186 0.930 . S
H1228 C1190 0.929 . S
H1229 C1192 0.930 . S
H1230 C1198 0.929 . S
H1231 C1199 0.930 . S
Li1232 N1249 1.990 . S
Li1232 O1292 1.956 . S
Li1232 O1293 1.970 . S
Li1232 O1294 1.961 . S
Li1233 N1257 1.990 . S
Li1233 O1292 1.970 . S
Li1233 O1293 1.956 . S
Li1233 O1295 1.961 . S
Li1234 N1279 1.990 . S
Li1234 O1292 1.961 . S
Li1234 O1294 1.956 . S
Li1234 O1295 1.970 . S
Li1235 N1285 1.990 . S
Li1235 O1293 1.961 . S
Li1235 O1294 1.970 . S
Li1235 O1295 1.956 . S
C1236 C1238 1.348 . S
C1236 C1239 1.356 . S
C1236 O1292 1.325 . S
N1237 C1240 1.314 . S
N1237 C1241 1.279 . S
C1238 C1236 1.348 . S
C1238 C1240 1.353 . S
C1238 H1296 0.929 . S
C1239 C1236 1.356 . S
C1239 C1241 1.358 . S
C1239 H1297 0.930 . S
C1240 N1237 1.314 . S
C1240 C1238 1.353 . S
C1240 H1298 0.930 . S
C1241 N1237 1.279 . S
C1241 C1239 1.358 . S
C1241 H1299 0.930 . S
C1242 C1245 1.348 . S
C1242 C1246 1.356 . S
C1242 O1293 1.325 . S
C1243 N1244 1.279 . S
C1243 C1246 1.358 . S
C1243 H1300 0.930 . S
N1244 C1243 1.279 . S
N1244 C1247 1.314 . S
C1245 C1242 1.348 . S
C1245 C1247 1.353 . S
C1245 H1301 0.929 . S
C1246 C1242 1.356 . S
C1246 C1243 1.358 . S
C1246 H1302 0.930 . S
C1247 N1244 1.314 . S
C1247 C1245 1.353 . S
C1247 H1303 0.930 . S
C1248 N1249 1.314 . S
C1248 C1253 1.353 . S
C1248 H1254 0.930 . S
N1249 Li1232 1.990 . S
N1249 C1248 1.314 . S
N1249 C1251 1.279 . S
C1250 C1251 1.358 . S
C1250 C1252 1.356 . S
C1250 H1304 0.930 . S
C1251 N1249 1.279 . S
C1251 C1250 1.358 . S
C1251 H1255 0.930 . S
C1252 C1250 1.356 . S
C1252 C1253 1.348 . S
C1253 C1248 1.353 . S
C1253 C1252 1.348 . S
C1253 H1305 0.929 . S
H1254 C1248 0.930 . S
H1255 C1251 0.930 . S
C1256 N1257 1.314 . S
C1256 C1258 1.353 . S
C1256 H1262 0.930 . S
N1257 Li1233 1.990 . S
N1257 C1256 1.314 . S
N1257 C1260 1.279 . S
C1258 C1256 1.353 . S
C1258 C1261 1.348 . S
C1258 H1306 0.929 . S
C1259 C1260 1.358 . S
C1259 C1261 1.356 . S
C1259 H1307 0.930 . S
C1260 N1257 1.279 . S
C1260 C1259 1.358 . S
C1260 H1263 0.930 . S
C1261 C1258 1.348 . S
C1261 C1259 1.356 . S
H1262 C1256 0.930 . S
H1263 C1260 0.930 . S
C1264 C1266 1.348 . S
C1264 C1267 1.356 . S
C1264 O1294 1.325 . S
N1265 C1268 1.314 . S
N1265 C1269 1.279 . S
C1266 C1264 1.348 . S
C1266 C1268 1.353 . S
C1266 H1308 0.929 . S
C1267 C1264 1.356 . S
C1267 C1269 1.358 . S
C1267 H1309 0.930 . S
C1268 N1265 1.314 . S
C1268 C1266 1.353 . S
C1268 H1310 0.930 . S
C1269 N1265 1.279 . S
C1269 C1267 1.358 . S
C1269 H1311 0.930 . S
C1270 C1271 1.348 . S
C1270 C1272 1.356 . S
C1270 O1295 1.325 . S
C1271 C1270 1.348 . S
C1271 C1273 1.353 . S
C1271 H1312 0.929 . S
C1272 C1270 1.356 . S
C1272 C1274 1.358 . S
C1272 H1313 0.930 . S
C1273 C1271 1.353 . S
C1273 N1275 1.314 . S
C1273 H1314 0.930 . S
C1274 C1272 1.358 . S
C1274 N1275 1.279 . S
C1274 H1315 0.930 . S
N1275 C1273 1.314 . S
N1275 C1274 1.279 . S
C1276 C1278 1.353 . S
C1276 N1279 1.314 . S
C1276 H1282 0.930 . S
C1277 N1279 1.279 . S
C1277 C1280 1.358 . S
C1277 H1283 0.930 . S
C1278 C1276 1.353 . S
C1278 C1281 1.348 . S
C1278 H1316 0.929 . S
N1279 Li1234 1.990 . S
N1279 C1276 1.314 . S
N1279 C1277 1.279 . S
C1280 C1277 1.358 . S
C1280 C1281 1.356 . S
C1280 H1317 0.930 . S
C1281 C1278 1.348 . S
C1281 C1280 1.356 . S
H1282 C1276 0.930 . S
H1283 C1277 0.930 . S
C1284 N1285 1.314 . S
C1284 C1286 1.353 . S
C1284 H1290 0.930 . S
N1285 Li1235 1.990 . S
N1285 C1284 1.314 . S
N1285 C1288 1.279 . S
C1286 C1284 1.353 . S
C1286 C1289 1.348 . S
C1286 H1318 0.929 . S
C1287 C1288 1.358 . S
C1287 C1289 1.356 . S
C1287 H1319 0.930 . S
C1288 N1285 1.279 . S
C1288 C1287 1.358 . S
C1288 H1291 0.930 . S
C1289 C1286 1.348 . S
C1289 C1287 1.356 . S
H1290 C1284 0.930 . S
H1291 C1288 0.930 . S
O1292 Li1232 1.956 . S
O1292 Li1233 1.970 . S
O1292 Li1234 1.961 . S
O1292 C1236 1.325 . S
O1293 Li1232 1.970 . S
O1293 Li1233 1.956 . S
O1293 Li1235 1.961 . S
O1293 C1242 1.325 . S
O1294 Li1232 1.961 . S
O1294 Li1234 1.956 . S
O1294 Li1235 1.970 . S
O1294 C1264 1.325 . S
O1295 Li1233 1.961 . S
O1295 Li1234 1.970 . S
O1295 Li1235 1.956 . S
O1295 C1270 1.325 . S
H1296 C1238 0.929 . S
H1297 C1239 0.930 . S
H1298 C1240 0.930 . S
H1299 C1241 0.930 . S
H1300 C1243 0.930 . S
H1301 C1245 0.929 . S
H1302 C1246 0.930 . S
H1303 C1247 0.930 . S
H1304 C1250 0.930 . S
H1305 C1253 0.929 . S
H1306 C1258 0.929 . S
H1307 C1259 0.930 . S
H1308 C1266 0.929 . S
H1309 C1267 0.930 . S
H1310 C1268 0.930 . S
H1311 C1269 0.930 . S
H1312 C1271 0.929 . S
H1313 C1272 0.930 . S
H1314 C1273 0.930 . S
H1315 C1274 0.930 . S
H1316 C1278 0.929 . S
H1317 C1280 0.930 . S
H1318 C1286 0.929 . S
H1319 C1287 0.930 . S
Li1320 N1337 1.990 . S
Li1320 O1380 1.956 . S
Li1320 O1381 1.970 . S
Li1320 O1382 1.961 . S
Li1321 N1345 1.990 . S
Li1321 O1380 1.970 . S
Li1321 O1381 1.956 . S
Li1321 O1383 1.961 . S
Li1322 N1367 1.990 . S
Li1322 O1380 1.961 . S
Li1322 O1382 1.956 . S
Li1322 O1383 1.970 . S
Li1323 N1373 1.990 . S
Li1323 O1381 1.961 . S
Li1323 O1382 1.970 . S
Li1323 O1383 1.956 . S
C1324 C1326 1.348 . S
C1324 C1327 1.356 . S
C1324 O1380 1.325 . S
N1325 C1328 1.314 . S
N1325 C1329 1.279 . S
C1326 C1324 1.348 . S
C1326 C1328 1.353 . S
C1326 H1384 0.929 . S
C1327 C1324 1.356 . S
C1327 C1329 1.358 . S
C1327 H1385 0.930 . S
C1328 N1325 1.314 . S
C1328 C1326 1.353 . S
C1328 H1386 0.930 . S
C1329 N1325 1.279 . S
C1329 C1327 1.358 . S
C1329 H1387 0.930 . S
C1330 C1333 1.348 . S
C1330 C1334 1.356 . S
C1330 O1381 1.325 . S
C1331 N1332 1.279 . S
C1331 C1334 1.358 . S
C1331 H1388 0.930 . S
N1332 C1331 1.279 . S
N1332 C1335 1.314 . S
C1333 C1330 1.348 . S
C1333 C1335 1.353 . S
C1333 H1389 0.929 . S
C1334 C1330 1.356 . S
C1334 C1331 1.358 . S
C1334 H1390 0.930 . S
C1335 N1332 1.314 . S
C1335 C1333 1.353 . S
C1335 H1391 0.930 . S
C1336 N1337 1.314 . S
C1336 C1341 1.353 . S
C1336 H1342 0.930 . S
N1337 Li1320 1.990 . S
N1337 C1336 1.314 . S
N1337 C1339 1.279 . S
C1338 C1339 1.358 . S
C1338 C1340 1.356 . S
C1338 H1392 0.930 . S
C1339 N1337 1.279 . S
C1339 C1338 1.358 . S
C1339 H1343 0.930 . S
C1340 C1338 1.356 . S
C1340 C1341 1.348 . S
C1341 C1336 1.353 . S
C1341 C1340 1.348 . S
C1341 H1393 0.929 . S
H1342 C1336 0.930 . S
H1343 C1339 0.930 . S
C1344 N1345 1.314 . S
C1344 C1346 1.353 . S
C1344 H1350 0.930 . S
N1345 Li1321 1.990 . S
N1345 C1344 1.314 . S
N1345 C1348 1.279 . S
C1346 C1344 1.353 . S
C1346 C1349 1.348 . S
C1346 H1394 0.929 . S
C1347 C1348 1.358 . S
C1347 C1349 1.356 . S
C1347 H1395 0.930 . S
C1348 N1345 1.279 . S
C1348 C1347 1.358 . S
C1348 H1351 0.930 . S
C1349 C1346 1.348 . S
C1349 C1347 1.356 . S
H1350 C1344 0.930 . S
H1351 C1348 0.930 . S
C1352 C1354 1.348 . S
C1352 C1355 1.356 . S
C1352 O1382 1.325 . S
N1353 C1356 1.314 . S
N1353 C1357 1.279 . S
C1354 C1352 1.348 . S
C1354 C1356 1.353 . S
C1354 H1396 0.929 . S
C1355 C1352 1.356 . S
C1355 C1357 1.358 . S
C1355 H1397 0.930 . S
C1356 N1353 1.314 . S
C1356 C1354 1.353 . S
C1356 H1398 0.930 . S
C1357 N1353 1.279 . S
C1357 C1355 1.358 . S
C1357 H1399 0.930 . S
C1358 C1359 1.348 . S
C1358 C1360 1.356 . S
C1358 O1383 1.325 . S
C1359 C1358 1.348 . S
C1359 C1361 1.353 . S
C1359 H1400 0.929 . S
C1360 C1358 1.356 . S
C1360 C1362 1.358 . S
C1360 H1401 0.930 . S
C1361 C1359 1.353 . S
C1361 N1363 1.314 . S
C1361 H1402 0.930 . S
C1362 C1360 1.358 . S
C1362 N1363 1.279 . S
C1362 H1403 0.930 . S
N1363 C1361 1.314 . S
N1363 C1362 1.279 . S
C1364 C1366 1.353 . S
C1364 N1367 1.314 . S
C1364 H1370 0.930 . S
C1365 N1367 1.279 . S
C1365 C1368 1.358 . S
C1365 H1371 0.930 . S
C1366 C1364 1.353 . S
C1366 C1369 1.348 . S
C1366 H1404 0.929 . S
N1367 Li1322 1.990 . S
N1367 C1364 1.314 . S
N1367 C1365 1.279 . S
C1368 C1365 1.358 . S
C1368 C1369 1.356 . S
C1368 H1405 0.930 . S
C1369 C1366 1.348 . S
C1369 C1368 1.356 . S
H1370 C1364 0.930 . S
H1371 C1365 0.930 . S
C1372 N1373 1.314 . S
C1372 C1374 1.353 . S
C1372 H1378 0.930 . S
N1373 Li1323 1.990 . S
N1373 C1372 1.314 . S
N1373 C1376 1.279 . S
C1374 C1372 1.353 . S
C1374 C1377 1.348 . S
C1374 H1406 0.929 . S
C1375 C1376 1.358 . S
C1375 C1377 1.356 . S
C1375 H1407 0.930 . S
C1376 N1373 1.279 . S
C1376 C1375 1.358 . S
C1376 H1379 0.930 . S
C1377 C1374 1.348 . S
C1377 C1375 1.356 . S
H1378 C1372 0.930 . S
H1379 C1376 0.930 . S
O1380 Li1320 1.956 . S
O1380 Li1321 1.970 . S
O1380 Li1322 1.961 . S
O1380 C1324 1.325 . S
O1381 Li1320 1.970 . S
O1381 Li1321 1.956 . S
O1381 Li1323 1.961 . S
O1381 C1330 1.325 . S
O1382 Li1320 1.961 . S
O1382 Li1322 1.956 . S
O1382 Li1323 1.970 . S
O1382 C1352 1.325 . S
O1383 Li1321 1.961 . S
O1383 Li1322 1.970 . S
O1383 Li1323 1.956 . S
O1383 C1358 1.325 . S
H1384 C1326 0.929 . S
H1385 C1327 0.930 . S
H1386 C1328 0.930 . S
H1387 C1329 0.930 . S
H1388 C1331 0.930 . S
H1389 C1333 0.929 . S
H1390 C1334 0.930 . S
H1391 C1335 0.930 . S
H1392 C1338 0.930 . S
H1393 C1341 0.929 . S
H1394 C1346 0.929 . S
H1395 C1347 0.930 . S
H1396 C1354 0.929 . S
H1397 C1355 0.930 . S
H1398 C1356 0.930 . S
H1399 C1357 0.930 . S
H1400 C1359 0.929 . S
H1401 C1360 0.930 . S
H1402 C1361 0.930 . S
H1403 C1362 0.930 . S
H1404 C1366 0.929 . S
H1405 C1368 0.930 . S
H1406 C1374 0.929 . S
H1407 C1375 0.930 . S
Li1408 N1425 1.990 . S
Li1408 O1468 1.956 . S
Li1408 O1469 1.970 . S
Li1408 O1470 1.961 . S
Li1409 N1433 1.990 . S
Li1409 O1468 1.970 . S
Li1409 O1469 1.956 . S
Li1409 O1471 1.961 . S
Li1410 N1455 1.990 . S
Li1410 O1468 1.961 . S
Li1410 O1470 1.956 . S
Li1410 O1471 1.970 . S
Li1411 N1461 1.990 . S
Li1411 O1469 1.961 . S
Li1411 O1470 1.970 . S
Li1411 O1471 1.956 . S
C1412 C1414 1.348 . S
C1412 C1415 1.356 . S
C1412 O1468 1.325 . S
N1413 C1416 1.314 . S
N1413 C1417 1.279 . S
C1414 C1412 1.348 . S
C1414 C1416 1.353 . S
C1414 H1472 0.929 . S
C1415 C1412 1.356 . S
C1415 C1417 1.358 . S
C1415 H1473 0.930 . S
C1416 N1413 1.314 . S
C1416 C1414 1.353 . S
C1416 H1474 0.930 . S
C1417 N1413 1.279 . S
C1417 C1415 1.358 . S
C1417 H1475 0.930 . S
C1418 C1421 1.348 . S
C1418 C1422 1.356 . S
C1418 O1469 1.325 . S
C1419 N1420 1.279 . S
C1419 C1422 1.358 . S
C1419 H1476 0.930 . S
N1420 C1419 1.279 . S
N1420 C1423 1.314 . S
C1421 C1418 1.348 . S
C1421 C1423 1.353 . S
C1421 H1477 0.929 . S
C1422 C1418 1.356 . S
C1422 C1419 1.358 . S
C1422 H1478 0.930 . S
C1423 N1420 1.314 . S
C1423 C1421 1.353 . S
C1423 H1479 0.930 . S
C1424 N1425 1.314 . S
C1424 C1429 1.353 . S
C1424 H1430 0.930 . S
N1425 Li1408 1.990 . S
N1425 C1424 1.314 . S
N1425 C1427 1.279 . S
C1426 C1427 1.358 . S
C1426 C1428 1.356 . S
C1426 H1480 0.930 . S
C1427 N1425 1.279 . S
C1427 C1426 1.358 . S
C1427 H1431 0.930 . S
C1428 C1426 1.356 . S
C1428 C1429 1.348 . S
C1429 C1424 1.353 . S
C1429 C1428 1.348 . S
C1429 H1481 0.929 . S
H1430 C1424 0.930 . S
H1431 C1427 0.930 . S
C1432 N1433 1.314 . S
C1432 C1434 1.353 . S
C1432 H1438 0.930 . S
N1433 Li1409 1.990 . S
N1433 C1432 1.314 . S
N1433 C1436 1.279 . S
C1434 C1432 1.353 . S
C1434 C1437 1.348 . S
C1434 H1482 0.929 . S
C1435 C1436 1.358 . S
C1435 C1437 1.356 . S
C1435 H1483 0.930 . S
C1436 N1433 1.279 . S
C1436 C1435 1.358 . S
C1436 H1439 0.930 . S
C1437 C1434 1.348 . S
C1437 C1435 1.356 . S
H1438 C1432 0.930 . S
H1439 C1436 0.930 . S
C1440 C1442 1.348 . S
C1440 C1443 1.356 . S
C1440 O1470 1.325 . S
N1441 C1444 1.314 . S
N1441 C1445 1.279 . S
C1442 C1440 1.348 . S
C1442 C1444 1.353 . S
C1442 H1484 0.929 . S
C1443 C1440 1.356 . S
C1443 C1445 1.358 . S
C1443 H1485 0.930 . S
C1444 N1441 1.314 . S
C1444 C1442 1.353 . S
C1444 H1486 0.930 . S
C1445 N1441 1.279 . S
C1445 C1443 1.358 . S
C1445 H1487 0.930 . S
C1446 C1447 1.348 . S
C1446 C1448 1.356 . S
C1446 O1471 1.325 . S
C1447 C1446 1.348 . S
C1447 C1449 1.353 . S
C1447 H1488 0.929 . S
C1448 C1446 1.356 . S
C1448 C1450 1.358 . S
C1448 H1489 0.930 . S
C1449 C1447 1.353 . S
C1449 N1451 1.314 . S
C1449 H1490 0.930 . S
C1450 C1448 1.358 . S
C1450 N1451 1.279 . S
C1450 H1491 0.930 . S
N1451 C1449 1.314 . S
N1451 C1450 1.279 . S
C1452 C1454 1.353 . S
C1452 N1455 1.314 . S
C1452 H1458 0.930 . S
C1453 N1455 1.279 . S
C1453 C1456 1.358 . S
C1453 H1459 0.930 . S
C1454 C1452 1.353 . S
C1454 C1457 1.348 . S
C1454 H1492 0.929 . S
N1455 Li1410 1.990 . S
N1455 C1452 1.314 . S
N1455 C1453 1.279 . S
C1456 C1453 1.358 . S
C1456 C1457 1.356 . S
C1456 H1493 0.930 . S
C1457 C1454 1.348 . S
C1457 C1456 1.356 . S
H1458 C1452 0.930 . S
H1459 C1453 0.930 . S
C1460 N1461 1.314 . S
C1460 C1462 1.353 . S
C1460 H1466 0.930 . S
N1461 Li1411 1.990 . S
N1461 C1460 1.314 . S
N1461 C1464 1.279 . S
C1462 C1460 1.353 . S
C1462 C1465 1.348 . S
C1462 H1494 0.929 . S
C1463 C1464 1.358 . S
C1463 C1465 1.356 . S
C1463 H1495 0.930 . S
C1464 N1461 1.279 . S
C1464 C1463 1.358 . S
C1464 H1467 0.930 . S
C1465 C1462 1.348 . S
C1465 C1463 1.356 . S
H1466 C1460 0.930 . S
H1467 C1464 0.930 . S
O1468 Li1408 1.956 . S
O1468 Li1409 1.970 . S
O1468 Li1410 1.961 . S
O1468 C1412 1.325 . S
O1469 Li1408 1.970 . S
O1469 Li1409 1.956 . S
O1469 Li1411 1.961 . S
O1469 C1418 1.325 . S
O1470 Li1408 1.961 . S
O1470 Li1410 1.956 . S
O1470 Li1411 1.970 . S
O1470 C1440 1.325 . S
O1471 Li1409 1.961 . S
O1471 Li1410 1.970 . S
O1471 Li1411 1.956 . S
O1471 C1446 1.325 . S
H1472 C1414 0.929 . S
H1473 C1415 0.930 . S
H1474 C1416 0.930 . S
H1475 C1417 0.930 . S
H1476 C1419 0.930 . S
H1477 C1421 0.929 . S
H1478 C1422 0.930 . S
H1479 C1423 0.930 . S
H1480 C1426 0.930 . S
H1481 C1429 0.929 . S
H1482 C1434 0.929 . S
H1483 C1435 0.930 . S
H1484 C1442 0.929 . S
H1485 C1443 0.930 . S
H1486 C1444 0.930 . S
H1487 C1445 0.930 . S
H1488 C1447 0.929 . S
H1489 C1448 0.930 . S
H1490 C1449 0.930 . S
H1491 C1450 0.930 . S
H1492 C1454 0.929 . S
H1493 C1456 0.930 . S
H1494 C1462 0.929 . S
H1495 C1463 0.930 . S
Li1496 N1513 1.990 . S
Li1496 O1556 1.956 . S
Li1496 O1557 1.970 . S
Li1496 O1558 1.961 . S
Li1497 N1521 1.990 . S
Li1497 O1556 1.970 . S
Li1497 O1557 1.956 . S
Li1497 O1559 1.961 . S
Li1498 N1543 1.990 . S
Li1498 O1556 1.961 . S
Li1498 O1558 1.956 . S
Li1498 O1559 1.970 . S
Li1499 N1549 1.990 . S
Li1499 O1557 1.961 . S
Li1499 O1558 1.970 . S
Li1499 O1559 1.956 . S
C1500 C1502 1.348 . S
C1500 C1503 1.356 . S
C1500 O1556 1.325 . S
N1501 C1504 1.314 . S
N1501 C1505 1.279 . S
C1502 C1500 1.348 . S
C1502 C1504 1.353 . S
C1502 H1560 0.929 . S
C1503 C1500 1.356 . S
C1503 C1505 1.358 . S
C1503 H1561 0.930 . S
C1504 N1501 1.314 . S
C1504 C1502 1.353 . S
C1504 H1562 0.930 . S
C1505 N1501 1.279 . S
C1505 C1503 1.358 . S
C1505 H1563 0.930 . S
C1506 C1509 1.348 . S
C1506 C1510 1.356 . S
C1506 O1557 1.325 . S
C1507 N1508 1.279 . S
C1507 C1510 1.358 . S
C1507 H1564 0.930 . S
N1508 C1507 1.279 . S
N1508 C1511 1.314 . S
C1509 C1506 1.348 . S
C1509 C1511 1.353 . S
C1509 H1565 0.929 . S
C1510 C1506 1.356 . S
C1510 C1507 1.358 . S
C1510 H1566 0.930 . S
C1511 N1508 1.314 . S
C1511 C1509 1.353 . S
C1511 H1567 0.930 . S
C1512 N1513 1.314 . S
C1512 C1517 1.353 . S
C1512 H1518 0.930 . S
N1513 Li1496 1.990 . S
N1513 C1512 1.314 . S
N1513 C1515 1.279 . S
C1514 C1515 1.358 . S
C1514 C1516 1.356 . S
C1514 H1568 0.930 . S
C1515 N1513 1.279 . S
C1515 C1514 1.358 . S
C1515 H1519 0.930 . S
C1516 C1514 1.356 . S
C1516 C1517 1.348 . S
C1517 C1512 1.353 . S
C1517 C1516 1.348 . S
C1517 H1569 0.929 . S
H1518 C1512 0.930 . S
H1519 C1515 0.930 . S
C1520 N1521 1.314 . S
C1520 C1522 1.353 . S
C1520 H1526 0.930 . S
N1521 Li1497 1.990 . S
N1521 C1520 1.314 . S
N1521 C1524 1.279 . S
C1522 C1520 1.353 . S
C1522 C1525 1.348 . S
C1522 H1570 0.929 . S
C1523 C1524 1.358 . S
C1523 C1525 1.356 . S
C1523 H1571 0.930 . S
C1524 N1521 1.279 . S
C1524 C1523 1.358 . S
C1524 H1527 0.930 . S
C1525 C1522 1.348 . S
C1525 C1523 1.356 . S
H1526 C1520 0.930 . S
H1527 C1524 0.930 . S
C1528 C1530 1.348 . S
C1528 C1531 1.356 . S
C1528 O1558 1.325 . S
N1529 C1532 1.314 . S
N1529 C1533 1.279 . S
C1530 C1528 1.348 . S
C1530 C1532 1.353 . S
C1530 H1572 0.929 . S
C1531 C1528 1.356 . S
C1531 C1533 1.358 . S
C1531 H1573 0.930 . S
C1532 N1529 1.314 . S
C1532 C1530 1.353 . S
C1532 H1574 0.930 . S
C1533 N1529 1.279 . S
C1533 C1531 1.358 . S
C1533 H1575 0.930 . S
C1534 C1535 1.348 . S
C1534 C1536 1.356 . S
C1534 O1559 1.325 . S
C1535 C1534 1.348 . S
C1535 C1537 1.353 . S
C1535 H1576 0.929 . S
C1536 C1534 1.356 . S
C1536 C1538 1.358 . S
C1536 H1577 0.930 . S
C1537 C1535 1.353 . S
C1537 N1539 1.314 . S
C1537 H1578 0.930 . S
C1538 C1536 1.358 . S
C1538 N1539 1.279 . S
C1538 H1579 0.930 . S
N1539 C1537 1.314 . S
N1539 C1538 1.279 . S
C1540 C1542 1.353 . S
C1540 N1543 1.314 . S
C1540 H1546 0.930 . S
C1541 N1543 1.279 . S
C1541 C1544 1.358 . S
C1541 H1547 0.930 . S
C1542 C1540 1.353 . S
C1542 C1545 1.348 . S
C1542 H1580 0.929 . S
N1543 Li1498 1.990 . S
N1543 C1540 1.314 . S
N1543 C1541 1.279 . S
C1544 C1541 1.358 . S
C1544 C1545 1.356 . S
C1544 H1581 0.930 . S
C1545 C1542 1.348 . S
C1545 C1544 1.356 . S
H1546 C1540 0.930 . S
H1547 C1541 0.930 . S
C1548 N1549 1.314 . S
C1548 C1550 1.353 . S
C1548 H1554 0.930 . S
N1549 Li1499 1.990 . S
N1549 C1548 1.314 . S
N1549 C1552 1.279 . S
C1550 C1548 1.353 . S
C1550 C1553 1.348 . S
C1550 H1582 0.929 . S
C1551 C1552 1.358 . S
C1551 C1553 1.356 . S
C1551 H1583 0.930 . S
C1552 N1549 1.279 . S
C1552 C1551 1.358 . S
C1552 H1555 0.930 . S
C1553 C1550 1.348 . S
C1553 C1551 1.356 . S
H1554 C1548 0.930 . S
H1555 C1552 0.930 . S
O1556 Li1496 1.956 . S
O1556 Li1497 1.970 . S
O1556 Li1498 1.961 . S
O1556 C1500 1.325 . S
O1557 Li1496 1.970 . S
O1557 Li1497 1.956 . S
O1557 Li1499 1.961 . S
O1557 C1506 1.325 . S
O1558 Li1496 1.961 . S
O1558 Li1498 1.956 . S
O1558 Li1499 1.970 . S
O1558 C1528 1.325 . S
O1559 Li1497 1.961 . S
O1559 Li1498 1.970 . S
O1559 Li1499 1.956 . S
O1559 C1534 1.325 . S
H1560 C1502 0.929 . S
H1561 C1503 0.930 . S
H1562 C1504 0.930 . S
H1563 C1505 0.930 . S
H1564 C1507 0.930 . S
H1565 C1509 0.929 . S
H1566 C1510 0.930 . S
H1567 C1511 0.930 . S
H1568 C1514 0.930 . S
H1569 C1517 0.929 . S
H1570 C1522 0.929 . S
H1571 C1523 0.930 . S
H1572 C1530 0.929 . S
H1573 C1531 0.930 . S
H1574 C1532 0.930 . S
H1575 C1533 0.930 . S
H1576 C1535 0.929 . S
H1577 C1536 0.930 . S
H1578 C1537 0.930 . S
H1579 C1538 0.930 . S
H1580 C1542 0.929 . S
H1581 C1544 0.930 . S
H1582 C1550 0.929 . S
H1583 C1551 0.930 . S
Li1584 N1601 1.990 . S
Li1584 O1644 1.956 . S
Li1584 O1645 1.970 . S
Li1584 O1646 1.961 . S
Li1585 N1609 1.990 . S
Li1585 O1644 1.970 . S
Li1585 O1645 1.956 . S
Li1585 O1647 1.961 . S
Li1586 N1631 1.990 . S
Li1586 O1644 1.961 . S
Li1586 O1646 1.956 . S
Li1586 O1647 1.970 . S
Li1587 N1637 1.990 . S
Li1587 O1645 1.961 . S
Li1587 O1646 1.970 . S
Li1587 O1647 1.956 . S
C1588 C1590 1.348 . S
C1588 C1591 1.356 . S
C1588 O1644 1.325 . S
N1589 C1592 1.314 . S
N1589 C1593 1.279 . S
C1590 C1588 1.348 . S
C1590 C1592 1.353 . S
C1590 H1648 0.929 . S
C1591 C1588 1.356 . S
C1591 C1593 1.358 . S
C1591 H1649 0.930 . S
C1592 N1589 1.314 . S
C1592 C1590 1.353 . S
C1592 H1650 0.930 . S
C1593 N1589 1.279 . S
C1593 C1591 1.358 . S
C1593 H1651 0.930 . S
C1594 C1597 1.348 . S
C1594 C1598 1.356 . S
C1594 O1645 1.325 . S
C1595 N1596 1.279 . S
C1595 C1598 1.358 . S
C1595 H1652 0.930 . S
N1596 C1595 1.279 . S
N1596 C1599 1.314 . S
C1597 C1594 1.348 . S
C1597 C1599 1.353 . S
C1597 H1653 0.929 . S
C1598 C1594 1.356 . S
C1598 C1595 1.358 . S
C1598 H1654 0.930 . S
C1599 N1596 1.314 . S
C1599 C1597 1.353 . S
C1599 H1655 0.930 . S
C1600 N1601 1.314 . S
C1600 C1605 1.353 . S
C1600 H1606 0.930 . S
N1601 Li1584 1.990 . S
N1601 C1600 1.314 . S
N1601 C1603 1.279 . S
C1602 C1603 1.358 . S
C1602 C1604 1.356 . S
C1602 H1656 0.930 . S
C1603 N1601 1.279 . S
C1603 C1602 1.358 . S
C1603 H1607 0.930 . S
C1604 C1602 1.356 . S
C1604 C1605 1.348 . S
C1605 C1600 1.353 . S
C1605 C1604 1.348 . S
C1605 H1657 0.929 . S
H1606 C1600 0.930 . S
H1607 C1603 0.930 . S
C1608 N1609 1.314 . S
C1608 C1610 1.353 . S
C1608 H1614 0.930 . S
N1609 Li1585 1.990 . S
N1609 C1608 1.314 . S
N1609 C1612 1.279 . S
C1610 C1608 1.353 . S
C1610 C1613 1.348 . S
C1610 H1658 0.929 . S
C1611 C1612 1.358 . S
C1611 C1613 1.356 . S
C1611 H1659 0.930 . S
C1612 N1609 1.279 . S
C1612 C1611 1.358 . S
C1612 H1615 0.930 . S
C1613 C1610 1.348 . S
C1613 C1611 1.356 . S
H1614 C1608 0.930 . S
H1615 C1612 0.930 . S
C1616 C1618 1.348 . S
C1616 C1619 1.356 . S
C1616 O1646 1.325 . S
N1617 C1620 1.314 . S
N1617 C1621 1.279 . S
C1618 C1616 1.348 . S
C1618 C1620 1.353 . S
C1618 H1660 0.929 . S
C1619 C1616 1.356 . S
C1619 C1621 1.358 . S
C1619 H1661 0.930 . S
C1620 N1617 1.314 . S
C1620 C1618 1.353 . S
C1620 H1662 0.930 . S
C1621 N1617 1.279 . S
C1621 C1619 1.358 . S
C1621 H1663 0.930 . S
C1622 C1623 1.348 . S
C1622 C1624 1.356 . S
C1622 O1647 1.325 . S
C1623 C1622 1.348 . S
C1623 C1625 1.353 . S
C1623 H1664 0.929 . S
C1624 C1622 1.356 . S
C1624 C1626 1.358 . S
C1624 H1665 0.930 . S
C1625 C1623 1.353 . S
C1625 N1627 1.314 . S
C1625 H1666 0.930 . S
C1626 C1624 1.358 . S
C1626 N1627 1.279 . S
C1626 H1667 0.930 . S
N1627 C1625 1.314 . S
N1627 C1626 1.279 . S
C1628 C1630 1.353 . S
C1628 N1631 1.314 . S
C1628 H1634 0.930 . S
C1629 N1631 1.279 . S
C1629 C1632 1.358 . S
C1629 H1635 0.930 . S
C1630 C1628 1.353 . S
C1630 C1633 1.348 . S
C1630 H1668 0.929 . S
N1631 Li1586 1.990 . S
N1631 C1628 1.314 . S
N1631 C1629 1.279 . S
C1632 C1629 1.358 . S
C1632 C1633 1.356 . S
C1632 H1669 0.930 . S
C1633 C1630 1.348 . S
C1633 C1632 1.356 . S
H1634 C1628 0.930 . S
H1635 C1629 0.930 . S
C1636 N1637 1.314 . S
C1636 C1638 1.353 . S
C1636 H1642 0.930 . S
N1637 Li1587 1.990 . S
N1637 C1636 1.314 . S
N1637 C1640 1.279 . S
C1638 C1636 1.353 . S
C1638 C1641 1.348 . S
C1638 H1670 0.929 . S
C1639 C1640 1.358 . S
C1639 C1641 1.356 . S
C1639 H1671 0.930 . S
C1640 N1637 1.279 . S
C1640 C1639 1.358 . S
C1640 H1643 0.930 . S
C1641 C1638 1.348 . S
C1641 C1639 1.356 . S
H1642 C1636 0.930 . S
H1643 C1640 0.930 . S
O1644 Li1584 1.956 . S
O1644 Li1585 1.970 . S
O1644 Li1586 1.961 . S
O1644 C1588 1.325 . S
O1645 Li1584 1.970 . S
O1645 Li1585 1.956 . S
O1645 Li1587 1.961 . S
O1645 C1594 1.325 . S
O1646 Li1584 1.961 . S
O1646 Li1586 1.956 . S
O1646 Li1587 1.970 . S
O1646 C1616 1.325 . S
O1647 Li1585 1.961 . S
O1647 Li1586 1.970 . S
O1647 Li1587 1.956 . S
O1647 C1622 1.325 . S
H1648 C1590 0.929 . S
H1649 C1591 0.930 . S
H1650 C1592 0.930 . S
H1651 C1593 0.930 . S
H1652 C1595 0.930 . S
H1653 C1597 0.929 . S
H1654 C1598 0.930 . S
H1655 C1599 0.930 . S
H1656 C1602 0.930 . S
H1657 C1605 0.929 . S
H1658 C1610 0.929 . S
H1659 C1611 0.930 . S
H1660 C1618 0.929 . S
H1661 C1619 0.930 . S
H1662 C1620 0.930 . S
H1663 C1621 0.930 . S
H1664 C1623 0.929 . S
H1665 C1624 0.930 . S
H1666 C1625 0.930 . S
H1667 C1626 0.930 . S
H1668 C1630 0.929 . S
H1669 C1632 0.930 . S
H1670 C1638 0.929 . S
H1671 C1639 0.930 . S
Li1672 N1689 1.990 . S
Li1672 O1732 1.956 . S
Li1672 O1733 1.970 . S
Li1672 O1734 1.961 . S
Li1673 N1697 1.990 . S
Li1673 O1732 1.970 . S
Li1673 O1733 1.956 . S
Li1673 O1735 1.961 . S
Li1674 N1719 1.990 . S
Li1674 O1732 1.961 . S
Li1674 O1734 1.956 . S
Li1674 O1735 1.970 . S
Li1675 N1725 1.990 . S
Li1675 O1733 1.961 . S
Li1675 O1734 1.970 . S
Li1675 O1735 1.956 . S
C1676 C1678 1.348 . S
C1676 C1679 1.356 . S
C1676 O1732 1.325 . S
N1677 C1680 1.314 . S
N1677 C1681 1.279 . S
C1678 C1676 1.348 . S
C1678 C1680 1.353 . S
C1678 H1736 0.929 . S
C1679 C1676 1.356 . S
C1679 C1681 1.358 . S
C1679 H1737 0.930 . S
C1680 N1677 1.314 . S
C1680 C1678 1.353 . S
C1680 H1738 0.930 . S
C1681 N1677 1.279 . S
C1681 C1679 1.358 . S
C1681 H1739 0.930 . S
C1682 C1685 1.348 . S
C1682 C1686 1.356 . S
C1682 O1733 1.325 . S
C1683 N1684 1.279 . S
C1683 C1686 1.358 . S
C1683 H1740 0.930 . S
N1684 C1683 1.279 . S
N1684 C1687 1.314 . S
C1685 C1682 1.348 . S
C1685 C1687 1.353 . S
C1685 H1741 0.929 . S
C1686 C1682 1.356 . S
C1686 C1683 1.358 . S
C1686 H1742 0.930 . S
C1687 N1684 1.314 . S
C1687 C1685 1.353 . S
C1687 H1743 0.930 . S
C1688 N1689 1.314 . S
C1688 C1693 1.353 . S
C1688 H1694 0.930 . S
N1689 Li1672 1.990 . S
N1689 C1688 1.314 . S
N1689 C1691 1.279 . S
C1690 C1691 1.358 . S
C1690 C1692 1.356 . S
C1690 H1744 0.930 . S
C1691 N1689 1.279 . S
C1691 C1690 1.358 . S
C1691 H1695 0.930 . S
C1692 C1690 1.356 . S
C1692 C1693 1.348 . S
C1693 C1688 1.353 . S
C1693 C1692 1.348 . S
C1693 H1745 0.929 . S
H1694 C1688 0.930 . S
H1695 C1691 0.930 . S
C1696 N1697 1.314 . S
C1696 C1698 1.353 . S
C1696 H1702 0.930 . S
N1697 Li1673 1.990 . S
N1697 C1696 1.314 . S
N1697 C1700 1.279 . S
C1698 C1696 1.353 . S
C1698 C1701 1.348 . S
C1698 H1746 0.929 . S
C1699 C1700 1.358 . S
C1699 C1701 1.356 . S
C1699 H1747 0.930 . S
C1700 N1697 1.279 . S
C1700 C1699 1.358 . S
C1700 H1703 0.930 . S
C1701 C1698 1.348 . S
C1701 C1699 1.356 . S
H1702 C1696 0.930 . S
H1703 C1700 0.930 . S
C1704 C1706 1.348 . S
C1704 C1707 1.356 . S
C1704 O1734 1.325 . S
N1705 C1708 1.314 . S
N1705 C1709 1.279 . S
C1706 C1704 1.348 . S
C1706 C1708 1.353 . S
C1706 H1748 0.929 . S
C1707 C1704 1.356 . S
C1707 C1709 1.358 . S
C1707 H1749 0.930 . S
C1708 N1705 1.314 . S
C1708 C1706 1.353 . S
C1708 H1750 0.930 . S
C1709 N1705 1.279 . S
C1709 C1707 1.358 . S
C1709 H1751 0.930 . S
C1710 C1711 1.348 . S
C1710 C1712 1.356 . S
C1710 O1735 1.325 . S
C1711 C1710 1.348 . S
C1711 C1713 1.353 . S
C1711 H1752 0.929 . S
C1712 C1710 1.356 . S
C1712 C1714 1.358 . S
C1712 H1753 0.930 . S
C1713 C1711 1.353 . S
C1713 N1715 1.314 . S
C1713 H1754 0.930 . S
C1714 C1712 1.358 . S
C1714 N1715 1.279 . S
C1714 H1755 0.930 . S
N1715 C1713 1.314 . S
N1715 C1714 1.279 . S
C1716 C1718 1.353 . S
C1716 N1719 1.314 . S
C1716 H1722 0.930 . S
C1717 N1719 1.279 . S
C1717 C1720 1.358 . S
C1717 H1723 0.930 . S
C1718 C1716 1.353 . S
C1718 C1721 1.348 . S
C1718 H1756 0.929 . S
N1719 Li1674 1.990 . S
N1719 C1716 1.314 . S
N1719 C1717 1.279 . S
C1720 C1717 1.358 . S
C1720 C1721 1.356 . S
C1720 H1757 0.930 . S
C1721 C1718 1.348 . S
C1721 C1720 1.356 . S
H1722 C1716 0.930 . S
H1723 C1717 0.930 . S
C1724 N1725 1.314 . S
C1724 C1726 1.353 . S
C1724 H1730 0.930 . S
N1725 Li1675 1.990 . S
N1725 C1724 1.314 . S
N1725 C1728 1.279 . S
C1726 C1724 1.353 . S
C1726 C1729 1.348 . S
C1726 H1758 0.929 . S
C1727 C1728 1.358 . S
C1727 C1729 1.356 . S
C1727 H1759 0.930 . S
C1728 N1725 1.279 . S
C1728 C1727 1.358 . S
C1728 H1731 0.930 . S
C1729 C1726 1.348 . S
C1729 C1727 1.356 . S
H1730 C1724 0.930 . S
H1731 C1728 0.930 . S
O1732 Li1672 1.956 . S
O1732 Li1673 1.970 . S
O1732 Li1674 1.961 . S
O1732 C1676 1.325 . S
O1733 Li1672 1.970 . S
O1733 Li1673 1.956 . S
O1733 Li1675 1.961 . S
O1733 C1682 1.325 . S
O1734 Li1672 1.961 . S
O1734 Li1674 1.956 . S
O1734 Li1675 1.970 . S
O1734 C1704 1.325 . S
O1735 Li1673 1.961 . S
O1735 Li1674 1.970 . S
O1735 Li1675 1.956 . S
O1735 C1710 1.325 . S
H1736 C1678 0.929 . S
H1737 C1679 0.930 . S
H1738 C1680 0.930 . S
H1739 C1681 0.930 . S
H1740 C1683 0.930 . S
H1741 C1685 0.929 . S
H1742 C1686 0.930 . S
H1743 C1687 0.930 . S
H1744 C1690 0.930 . S
H1745 C1693 0.929 . S
H1746 C1698 0.929 . S
H1747 C1699 0.930 . S
H1748 C1706 0.929 . S
H1749 C1707 0.930 . S
H1750 C1708 0.930 . S
H1751 C1709 0.930 . S
H1752 C1711 0.929 . S
H1753 C1712 0.930 . S
H1754 C1713 0.930 . S
H1755 C1714 0.930 . S
H1756 C1718 0.929 . S
H1757 C1720 0.930 . S
H1758 C1726 0.929 . S
H1759 C1727 0.930 . S
Li1760 N1777 1.990 . S
Li1760 O1820 1.956 . S
Li1760 O1821 1.970 . S
Li1760 O1822 1.961 . S
Li1761 N1785 1.990 . S
Li1761 O1820 1.970 . S
Li1761 O1821 1.956 . S
Li1761 O1823 1.961 . S
Li1762 N1807 1.990 . S
Li1762 O1820 1.961 . S
Li1762 O1822 1.956 . S
Li1762 O1823 1.970 . S
Li1763 N1813 1.990 . S
Li1763 O1821 1.961 . S
Li1763 O1822 1.970 . S
Li1763 O1823 1.956 . S
C1764 C1766 1.348 . S
C1764 C1767 1.356 . S
C1764 O1820 1.325 . S
N1765 C1768 1.314 . S
N1765 C1769 1.279 . S
C1766 C1764 1.348 . S
C1766 C1768 1.353 . S
C1766 H1824 0.929 . S
C1767 C1764 1.356 . S
C1767 C1769 1.358 . S
C1767 H1825 0.930 . S
C1768 N1765 1.314 . S
C1768 C1766 1.353 . S
C1768 H1826 0.930 . S
C1769 N1765 1.279 . S
C1769 C1767 1.358 . S
C1769 H1827 0.930 . S
C1770 C1773 1.348 . S
C1770 C1774 1.356 . S
C1770 O1821 1.325 . S
C1771 N1772 1.279 . S
C1771 C1774 1.358 . S
C1771 H1828 0.930 . S
N1772 C1771 1.279 . S
N1772 C1775 1.314 . S
C1773 C1770 1.348 . S
C1773 C1775 1.353 . S
C1773 H1829 0.929 . S
C1774 C1770 1.356 . S
C1774 C1771 1.358 . S
C1774 H1830 0.930 . S
C1775 N1772 1.314 . S
C1775 C1773 1.353 . S
C1775 H1831 0.930 . S
C1776 N1777 1.314 . S
C1776 C1781 1.353 . S
C1776 H1782 0.930 . S
N1777 Li1760 1.990 . S
N1777 C1776 1.314 . S
N1777 C1779 1.279 . S
C1778 C1779 1.358 . S
C1778 C1780 1.356 . S
C1778 H1832 0.930 . S
C1779 N1777 1.279 . S
C1779 C1778 1.358 . S
C1779 H1783 0.930 . S
C1780 C1778 1.356 . S
C1780 C1781 1.348 . S
C1781 C1776 1.353 . S
C1781 C1780 1.348 . S
C1781 H1833 0.929 . S
H1782 C1776 0.930 . S
H1783 C1779 0.930 . S
C1784 N1785 1.314 . S
C1784 C1786 1.353 . S
C1784 H1790 0.930 . S
N1785 Li1761 1.990 . S
N1785 C1784 1.314 . S
N1785 C1788 1.279 . S
C1786 C1784 1.353 . S
C1786 C1789 1.348 . S
C1786 H1834 0.929 . S
C1787 C1788 1.358 . S
C1787 C1789 1.356 . S
C1787 H1835 0.930 . S
C1788 N1785 1.279 . S
C1788 C1787 1.358 . S
C1788 H1791 0.930 . S
C1789 C1786 1.348 . S
C1789 C1787 1.356 . S
H1790 C1784 0.930 . S
H1791 C1788 0.930 . S
C1792 C1794 1.348 . S
C1792 C1795 1.356 . S
C1792 O1822 1.325 . S
N1793 C1796 1.314 . S
N1793 C1797 1.279 . S
C1794 C1792 1.348 . S
C1794 C1796 1.353 . S
C1794 H1836 0.929 . S
C1795 C1792 1.356 . S
C1795 C1797 1.358 . S
C1795 H1837 0.930 . S
C1796 N1793 1.314 . S
C1796 C1794 1.353 . S
C1796 H1838 0.930 . S
C1797 N1793 1.279 . S
C1797 C1795 1.358 . S
C1797 H1839 0.930 . S
C1798 C1799 1.348 . S
C1798 C1800 1.356 . S
C1798 O1823 1.325 . S
C1799 C1798 1.348 . S
C1799 C1801 1.353 . S
C1799 H1840 0.929 . S
C1800 C1798 1.356 . S
C1800 C1802 1.358 . S
C1800 H1841 0.930 . S
C1801 C1799 1.353 . S
C1801 N1803 1.314 . S
C1801 H1842 0.930 . S
C1802 C1800 1.358 . S
C1802 N1803 1.279 . S
C1802 H1843 0.930 . S
N1803 C1801 1.314 . S
N1803 C1802 1.279 . S
C1804 C1806 1.353 . S
C1804 N1807 1.314 . S
C1804 H1810 0.930 . S
C1805 N1807 1.279 . S
C1805 C1808 1.358 . S
C1805 H1811 0.930 . S
C1806 C1804 1.353 . S
C1806 C1809 1.348 . S
C1806 H1844 0.929 . S
N1807 Li1762 1.990 . S
N1807 C1804 1.314 . S
N1807 C1805 1.279 . S
C1808 C1805 1.358 . S
C1808 C1809 1.356 . S
C1808 H1845 0.930 . S
C1809 C1806 1.348 . S
C1809 C1808 1.356 . S
H1810 C1804 0.930 . S
H1811 C1805 0.930 . S
C1812 N1813 1.314 . S
C1812 C1814 1.353 . S
C1812 H1818 0.930 . S
N1813 Li1763 1.990 . S
N1813 C1812 1.314 . S
N1813 C1816 1.279 . S
C1814 C1812 1.353 . S
C1814 C1817 1.348 . S
C1814 H1846 0.929 . S
C1815 C1816 1.358 . S
C1815 C1817 1.356 . S
C1815 H1847 0.930 . S
C1816 N1813 1.279 . S
C1816 C1815 1.358 . S
C1816 H1819 0.930 . S
C1817 C1814 1.348 . S
C1817 C1815 1.356 . S
H1818 C1812 0.930 . S
H1819 C1816 0.930 . S
O1820 Li1760 1.956 . S
O1820 Li1761 1.970 . S
O1820 Li1762 1.961 . S
O1820 C1764 1.325 . S
O1821 Li1760 1.970 . S
O1821 Li1761 1.956 . S
O1821 Li1763 1.961 . S
O1821 C1770 1.325 . S
O1822 Li1760 1.961 . S
O1822 Li1762 1.956 . S
O1822 Li1763 1.970 . S
O1822 C1792 1.325 . S
O1823 Li1761 1.961 . S
O1823 Li1762 1.970 . S
O1823 Li1763 1.956 . S
O1823 C1798 1.325 . S
H1824 C1766 0.929 . S
H1825 C1767 0.930 . S
H1826 C1768 0.930 . S
H1827 C1769 0.930 . S
H1828 C1771 0.930 . S
H1829 C1773 0.929 . S
H1830 C1774 0.930 . S
H1831 C1775 0.930 . S
H1832 C1778 0.930 . S
H1833 C1781 0.929 . S
H1834 C1786 0.929 . S
H1835 C1787 0.930 . S
H1836 C1794 0.929 . S
H1837 C1795 0.930 . S
H1838 C1796 0.930 . S
H1839 C1797 0.930 . S
H1840 C1799 0.929 . S
H1841 C1800 0.930 . S
H1842 C1801 0.930 . S
H1843 C1802 0.930 . S
H1844 C1806 0.929 . S
H1845 C1808 0.930 . S
H1846 C1814 0.929 . S
H1847 C1815 0.930 . S
Li1848 N1865 1.990 . S
Li1848 O1908 1.956 . S
Li1848 O1909 1.970 . S
Li1848 O1910 1.961 . S
Li1849 N1873 1.990 . S
Li1849 O1908 1.970 . S
Li1849 O1909 1.956 . S
Li1849 O1911 1.961 . S
Li1850 N1895 1.990 . S
Li1850 O1908 1.961 . S
Li1850 O1910 1.956 . S
Li1850 O1911 1.970 . S
Li1851 N1901 1.990 . S
Li1851 O1909 1.961 . S
Li1851 O1910 1.970 . S
Li1851 O1911 1.956 . S
C1852 C1854 1.348 . S
C1852 C1855 1.356 . S
C1852 O1908 1.325 . S
N1853 C1856 1.314 . S
N1853 C1857 1.279 . S
C1854 C1852 1.348 . S
C1854 C1856 1.353 . S
C1854 H1912 0.929 . S
C1855 C1852 1.356 . S
C1855 C1857 1.358 . S
C1855 H1913 0.930 . S
C1856 N1853 1.314 . S
C1856 C1854 1.353 . S
C1856 H1914 0.930 . S
C1857 N1853 1.279 . S
C1857 C1855 1.358 . S
C1857 H1915 0.930 . S
C1858 C1861 1.348 . S
C1858 C1862 1.356 . S
C1858 O1909 1.325 . S
C1859 N1860 1.279 . S
C1859 C1862 1.358 . S
C1859 H1916 0.930 . S
N1860 C1859 1.279 . S
N1860 C1863 1.314 . S
C1861 C1858 1.348 . S
C1861 C1863 1.353 . S
C1861 H1917 0.929 . S
C1862 C1858 1.356 . S
C1862 C1859 1.358 . S
C1862 H1918 0.930 . S
C1863 N1860 1.314 . S
C1863 C1861 1.353 . S
C1863 H1919 0.930 . S
C1864 N1865 1.314 . S
C1864 C1869 1.353 . S
C1864 H1870 0.930 . S
N1865 Li1848 1.990 . S
N1865 C1864 1.314 . S
N1865 C1867 1.279 . S
C1866 C1867 1.358 . S
C1866 C1868 1.356 . S
C1866 H1920 0.930 . S
C1867 N1865 1.279 . S
C1867 C1866 1.358 . S
C1867 H1871 0.930 . S
C1868 C1866 1.356 . S
C1868 C1869 1.348 . S
C1869 C1864 1.353 . S
C1869 C1868 1.348 . S
C1869 H1921 0.929 . S
H1870 C1864 0.930 . S
H1871 C1867 0.930 . S
C1872 N1873 1.314 . S
C1872 C1874 1.353 . S
C1872 H1878 0.930 . S
N1873 Li1849 1.990 . S
N1873 C1872 1.314 . S
N1873 C1876 1.279 . S
C1874 C1872 1.353 . S
C1874 C1877 1.348 . S
C1874 H1922 0.929 . S
C1875 C1876 1.358 . S
C1875 C1877 1.356 . S
C1875 H1923 0.930 . S
C1876 N1873 1.279 . S
C1876 C1875 1.358 . S
C1876 H1879 0.930 . S
C1877 C1874 1.348 . S
C1877 C1875 1.356 . S
H1878 C1872 0.930 . S
H1879 C1876 0.930 . S
C1880 C1882 1.348 . S
C1880 C1883 1.356 . S
C1880 O1910 1.325 . S
N1881 C1884 1.314 . S
N1881 C1885 1.279 . S
C1882 C1880 1.348 . S
C1882 C1884 1.353 . S
C1882 H1924 0.929 . S
C1883 C1880 1.356 . S
C1883 C1885 1.358 . S
C1883 H1925 0.930 . S
C1884 N1881 1.314 . S
C1884 C1882 1.353 . S
C1884 H1926 0.930 . S
C1885 N1881 1.279 . S
C1885 C1883 1.358 . S
C1885 H1927 0.930 . S
C1886 C1887 1.348 . S
C1886 C1888 1.356 . S
C1886 O1911 1.325 . S
C1887 C1886 1.348 . S
C1887 C1889 1.353 . S
C1887 H1928 0.929 . S
C1888 C1886 1.356 . S
C1888 C1890 1.358 . S
C1888 H1929 0.930 . S
C1889 C1887 1.353 . S
C1889 N1891 1.314 . S
C1889 H1930 0.930 . S
C1890 C1888 1.358 . S
C1890 N1891 1.279 . S
C1890 H1931 0.930 . S
N1891 C1889 1.314 . S
N1891 C1890 1.279 . S
C1892 C1894 1.353 . S
C1892 N1895 1.314 . S
C1892 H1898 0.930 . S
C1893 N1895 1.279 . S
C1893 C1896 1.358 . S
C1893 H1899 0.930 . S
C1894 C1892 1.353 . S
C1894 C1897 1.348 . S
C1894 H1932 0.929 . S
N1895 Li1850 1.990 . S
N1895 C1892 1.314 . S
N1895 C1893 1.279 . S
C1896 C1893 1.358 . S
C1896 C1897 1.356 . S
C1896 H1933 0.930 . S
C1897 C1894 1.348 . S
C1897 C1896 1.356 . S
H1898 C1892 0.930 . S
H1899 C1893 0.930 . S
C1900 N1901 1.314 . S
C1900 C1902 1.353 . S
C1900 H1906 0.930 . S
N1901 Li1851 1.990 . S
N1901 C1900 1.314 . S
N1901 C1904 1.279 . S
C1902 C1900 1.353 . S
C1902 C1905 1.348 . S
C1902 H1934 0.929 . S
C1903 C1904 1.358 . S
C1903 C1905 1.356 . S
C1903 H1935 0.930 . S
C1904 N1901 1.279 . S
C1904 C1903 1.358 . S
C1904 H1907 0.930 . S
C1905 C1902 1.348 . S
C1905 C1903 1.356 . S
H1906 C1900 0.930 . S
H1907 C1904 0.930 . S
O1908 Li1848 1.956 . S
O1908 Li1849 1.970 . S
O1908 Li1850 1.961 . S
O1908 C1852 1.325 . S
O1909 Li1848 1.970 . S
O1909 Li1849 1.956 . S
O1909 Li1851 1.961 . S
O1909 C1858 1.325 . S
O1910 Li1848 1.961 . S
O1910 Li1850 1.956 . S
O1910 Li1851 1.970 . S
O1910 C1880 1.325 . S
O1911 Li1849 1.961 . S
O1911 Li1850 1.970 . S
O1911 Li1851 1.956 . S
O1911 C1886 1.325 . S
H1912 C1854 0.929 . S
H1913 C1855 0.930 . S
H1914 C1856 0.930 . S
H1915 C1857 0.930 . S
H1916 C1859 0.930 . S
H1917 C1861 0.929 . S
H1918 C1862 0.930 . S
H1919 C1863 0.930 . S
H1920 C1866 0.930 . S
H1921 C1869 0.929 . S
H1922 C1874 0.929 . S
H1923 C1875 0.930 . S
H1924 C1882 0.929 . S
H1925 C1883 0.930 . S
H1926 C1884 0.930 . S
H1927 C1885 0.930 . S
H1928 C1887 0.929 . S
H1929 C1888 0.930 . S
H1930 C1889 0.930 . S
H1931 C1890 0.930 . S
H1932 C1894 0.929 . S
H1933 C1896 0.930 . S
H1934 C1902 0.929 . S
H1935 C1903 0.930 . S
Li1936 N1953 1.990 . S
Li1936 O1996 1.956 . S
Li1936 O1997 1.970 . S
Li1936 O1998 1.961 . S
Li1937 N1961 1.990 . S
Li1937 O1996 1.970 . S
Li1937 O1997 1.956 . S
Li1937 O1999 1.961 . S
Li1938 N1983 1.990 . S
Li1938 O1996 1.961 . S
Li1938 O1998 1.956 . S
Li1938 O1999 1.970 . S
Li1939 N1989 1.990 . S
Li1939 O1997 1.961 . S
Li1939 O1998 1.970 . S
Li1939 O1999 1.956 . S
C1940 C1942 1.348 . S
C1940 C1943 1.356 . S
C1940 O1996 1.325 . S
N1941 C1944 1.314 . S
N1941 C1945 1.279 . S
C1942 C1940 1.348 . S
C1942 C1944 1.353 . S
C1942 H2000 0.929 . S
C1943 C1940 1.356 . S
C1943 C1945 1.358 . S
C1943 H2001 0.930 . S
C1944 N1941 1.314 . S
C1944 C1942 1.353 . S
C1944 H2002 0.930 . S
C1945 N1941 1.279 . S
C1945 C1943 1.358 . S
C1945 H2003 0.930 . S
C1946 C1949 1.348 . S
C1946 C1950 1.356 . S
C1946 O1997 1.325 . S
C1947 N1948 1.279 . S
C1947 C1950 1.358 . S
C1947 H2004 0.930 . S
N1948 C1947 1.279 . S
N1948 C1951 1.314 . S
C1949 C1946 1.348 . S
C1949 C1951 1.353 . S
C1949 H2005 0.929 . S
C1950 C1946 1.356 . S
C1950 C1947 1.358 . S
C1950 H2006 0.930 . S
C1951 N1948 1.314 . S
C1951 C1949 1.353 . S
C1951 H2007 0.930 . S
C1952 N1953 1.314 . S
C1952 C1957 1.353 . S
C1952 H1958 0.930 . S
N1953 Li1936 1.990 . S
N1953 C1952 1.314 . S
N1953 C1955 1.279 . S
C1954 C1955 1.358 . S
C1954 C1956 1.356 . S
C1954 H2008 0.930 . S
C1955 N1953 1.279 . S
C1955 C1954 1.358 . S
C1955 H1959 0.930 . S
C1956 C1954 1.356 . S
C1956 C1957 1.348 . S
C1957 C1952 1.353 . S
C1957 C1956 1.348 . S
C1957 H2009 0.929 . S
H1958 C1952 0.930 . S
H1959 C1955 0.930 . S
C1960 N1961 1.314 . S
C1960 C1962 1.353 . S
C1960 H1966 0.930 . S
N1961 Li1937 1.990 . S
N1961 C1960 1.314 . S
N1961 C1964 1.279 . S
C1962 C1960 1.353 . S
C1962 C1965 1.348 . S
C1962 H2010 0.929 . S
C1963 C1964 1.358 . S
C1963 C1965 1.356 . S
C1963 H2011 0.930 . S
C1964 N1961 1.279 . S
C1964 C1963 1.358 . S
C1964 H1967 0.930 . S
C1965 C1962 1.348 . S
C1965 C1963 1.356 . S
H1966 C1960 0.930 . S
H1967 C1964 0.930 . S
C1968 C1970 1.348 . S
C1968 C1971 1.356 . S
C1968 O1998 1.325 . S
N1969 C1972 1.314 . S
N1969 C1973 1.279 . S
C1970 C1968 1.348 . S
C1970 C1972 1.353 . S
C1970 H2012 0.929 . S
C1971 C1968 1.356 . S
C1971 C1973 1.358 . S
C1971 H2013 0.930 . S
C1972 N1969 1.314 . S
C1972 C1970 1.353 . S
C1972 H2014 0.930 . S
C1973 N1969 1.279 . S
C1973 C1971 1.358 . S
C1973 H2015 0.930 . S
C1974 C1975 1.348 . S
C1974 C1976 1.356 . S
C1974 O1999 1.325 . S
C1975 C1974 1.348 . S
C1975 C1977 1.353 . S
C1975 H2016 0.929 . S
C1976 C1974 1.356 . S
C1976 C1978 1.358 . S
C1976 H2017 0.930 . S
C1977 C1975 1.353 . S
C1977 N1979 1.314 . S
C1977 H2018 0.930 . S
C1978 C1976 1.358 . S
C1978 N1979 1.279 . S
C1978 H2019 0.930 . S
N1979 C1977 1.314 . S
N1979 C1978 1.279 . S
C1980 C1982 1.353 . S
C1980 N1983 1.314 . S
C1980 H1986 0.930 . S
C1981 N1983 1.279 . S
C1981 C1984 1.358 . S
C1981 H1987 0.930 . S
C1982 C1980 1.353 . S
C1982 C1985 1.348 . S
C1982 H2020 0.929 . S
N1983 Li1938 1.990 . S
N1983 C1980 1.314 . S
N1983 C1981 1.279 . S
C1984 C1981 1.358 . S
C1984 C1985 1.356 . S
C1984 H2021 0.930 . S
C1985 C1982 1.348 . S
C1985 C1984 1.356 . S
H1986 C1980 0.930 . S
H1987 C1981 0.930 . S
C1988 N1989 1.314 . S
C1988 C1990 1.353 . S
C1988 H1994 0.930 . S
N1989 Li1939 1.990 . S
N1989 C1988 1.314 . S
N1989 C1992 1.279 . S
C1990 C1988 1.353 . S
C1990 C1993 1.348 . S
C1990 H2022 0.929 . S
C1991 C1992 1.358 . S
C1991 C1993 1.356 . S
C1991 H2023 0.930 . S
C1992 N1989 1.279 . S
C1992 C1991 1.358 . S
C1992 H1995 0.930 . S
C1993 C1990 1.348 . S
C1993 C1991 1.356 . S
H1994 C1988 0.930 . S
H1995 C1992 0.930 . S
O1996 Li1936 1.956 . S
O1996 Li1937 1.970 . S
O1996 Li1938 1.961 . S
O1996 C1940 1.325 . S
O1997 Li1936 1.970 . S
O1997 Li1937 1.956 . S
O1997 Li1939 1.961 . S
O1997 C1946 1.325 . S
O1998 Li1936 1.961 . S
O1998 Li1938 1.956 . S
O1998 Li1939 1.970 . S
O1998 C1968 1.325 . S
O1999 Li1937 1.961 . S
O1999 Li1938 1.970 . S
O1999 Li1939 1.956 . S
O1999 C1974 1.325 . S
H2000 C1942 0.929 . S
H2001 C1943 0.930 . S
H2002 C1944 0.930 . S
H2003 C1945 0.930 . S
H2004 C1947 0.930 . S
H2005 C1949 0.929 . S
H2006 C1950 0.930 . S
H2007 C1951 0.930 . S
H2008 C1954 0.930 . S
H2009 C1957 0.929 . S
H2010 C1962 0.929 . S
H2011 C1963 0.930 . S
H2012 C1970 0.929 . S
H2013 C1971 0.930 . S
H2014 C1972 0.930 . S
H2015 C1973 0.930 . S
H2016 C1975 0.929 . S
H2017 C1976 0.930 . S
H2018 C1977 0.930 . S
H2019 C1978 0.930 . S
H2020 C1982 0.929 . S
H2021 C1984 0.930 . S
H2022 C1990 0.929 . S
H2023 C1991 0.930 . S
Li2024 N2041 1.990 . S
Li2024 O2084 1.956 . S
Li2024 O2085 1.970 . S
Li2024 O2086 1.961 . S
Li2025 N2049 1.990 . S
Li2025 O2084 1.970 . S
Li2025 O2085 1.956 . S
Li2025 O2087 1.961 . S
Li2026 N2071 1.990 . S
Li2026 O2084 1.961 . S
Li2026 O2086 1.956 . S
Li2026 O2087 1.970 . S
Li2027 N2077 1.990 . S
Li2027 O2085 1.961 . S
Li2027 O2086 1.970 . S
Li2027 O2087 1.956 . S
C2028 C2030 1.348 . S
C2028 C2031 1.356 . S
C2028 O2084 1.325 . S
N2029 C2032 1.314 . S
N2029 C2033 1.279 . S
C2030 C2028 1.348 . S
C2030 C2032 1.353 . S
C2030 H2088 0.929 . S
C2031 C2028 1.356 . S
C2031 C2033 1.358 . S
C2031 H2089 0.930 . S
C2032 N2029 1.314 . S
C2032 C2030 1.353 . S
C2032 H2090 0.930 . S
C2033 N2029 1.279 . S
C2033 C2031 1.358 . S
C2033 H2091 0.930 . S
C2034 C2037 1.348 . S
C2034 C2038 1.356 . S
C2034 O2085 1.325 . S
C2035 N2036 1.279 . S
C2035 C2038 1.358 . S
C2035 H2092 0.930 . S
N2036 C2035 1.279 . S
N2036 C2039 1.314 . S
C2037 C2034 1.348 . S
C2037 C2039 1.353 . S
C2037 H2093 0.929 . S
C2038 C2034 1.356 . S
C2038 C2035 1.358 . S
C2038 H2094 0.930 . S
C2039 N2036 1.314 . S
C2039 C2037 1.353 . S
C2039 H2095 0.930 . S
C2040 N2041 1.314 . S
C2040 C2045 1.353 . S
C2040 H2046 0.930 . S
N2041 Li2024 1.990 . S
N2041 C2040 1.314 . S
N2041 C2043 1.279 . S
C2042 C2043 1.358 . S
C2042 C2044 1.356 . S
C2042 H2096 0.930 . S
C2043 N2041 1.279 . S
C2043 C2042 1.358 . S
C2043 H2047 0.930 . S
C2044 C2042 1.356 . S
C2044 C2045 1.348 . S
C2045 C2040 1.353 . S
C2045 C2044 1.348 . S
C2045 H2097 0.929 . S
H2046 C2040 0.930 . S
H2047 C2043 0.930 . S
C2048 N2049 1.314 . S
C2048 C2050 1.353 . S
C2048 H2054 0.930 . S
N2049 Li2025 1.990 . S
N2049 C2048 1.314 . S
N2049 C2052 1.279 . S
C2050 C2048 1.353 . S
C2050 C2053 1.348 . S
C2050 H2098 0.929 . S
C2051 C2052 1.358 . S
C2051 C2053 1.356 . S
C2051 H2099 0.930 . S
C2052 N2049 1.279 . S
C2052 C2051 1.358 . S
C2052 H2055 0.930 . S
C2053 C2050 1.348 . S
C2053 C2051 1.356 . S
H2054 C2048 0.930 . S
H2055 C2052 0.930 . S
C2056 C2058 1.348 . S
C2056 C2059 1.356 . S
C2056 O2086 1.325 . S
N2057 C2060 1.314 . S
N2057 C2061 1.279 . S
C2058 C2056 1.348 . S
C2058 C2060 1.353 . S
C2058 H2100 0.929 . S
C2059 C2056 1.356 . S
C2059 C2061 1.358 . S
C2059 H2101 0.930 . S
C2060 N2057 1.314 . S
C2060 C2058 1.353 . S
C2060 H2102 0.930 . S
C2061 N2057 1.279 . S
C2061 C2059 1.358 . S
C2061 H2103 0.930 . S
C2062 C2063 1.348 . S
C2062 C2064 1.356 . S
C2062 O2087 1.325 . S
C2063 C2062 1.348 . S
C2063 C2065 1.353 . S
C2063 H2104 0.929 . S
C2064 C2062 1.356 . S
C2064 C2066 1.358 . S
C2064 H2105 0.930 . S
C2065 C2063 1.353 . S
C2065 N2067 1.314 . S
C2065 H2106 0.930 . S
C2066 C2064 1.358 . S
C2066 N2067 1.279 . S
C2066 H2107 0.930 . S
N2067 C2065 1.314 . S
N2067 C2066 1.279 . S
C2068 C2070 1.353 . S
C2068 N2071 1.314 . S
C2068 H2074 0.930 . S
C2069 N2071 1.279 . S
C2069 C2072 1.358 . S
C2069 H2075 0.930 . S
C2070 C2068 1.353 . S
C2070 C2073 1.348 . S
C2070 H2108 0.929 . S
N2071 Li2026 1.990 . S
N2071 C2068 1.314 . S
N2071 C2069 1.279 . S
C2072 C2069 1.358 . S
C2072 C2073 1.356 . S
C2072 H2109 0.930 . S
C2073 C2070 1.348 . S
C2073 C2072 1.356 . S
H2074 C2068 0.930 . S
H2075 C2069 0.930 . S
C2076 N2077 1.314 . S
C2076 C2078 1.353 . S
C2076 H2082 0.930 . S
N2077 Li2027 1.990 . S
N2077 C2076 1.314 . S
N2077 C2080 1.279 . S
C2078 C2076 1.353 . S
C2078 C2081 1.348 . S
C2078 H2110 0.929 . S
C2079 C2080 1.358 . S
C2079 C2081 1.356 . S
C2079 H2111 0.930 . S
C2080 N2077 1.279 . S
C2080 C2079 1.358 . S
C2080 H2083 0.930 . S
C2081 C2078 1.348 . S
C2081 C2079 1.356 . S
H2082 C2076 0.930 . S
H2083 C2080 0.930 . S
O2084 Li2024 1.956 . S
O2084 Li2025 1.970 . S
O2084 Li2026 1.961 . S
O2084 C2028 1.325 . S
O2085 Li2024 1.970 . S
O2085 Li2025 1.956 . S
O2085 Li2027 1.961 . S
O2085 C2034 1.325 . S
O2086 Li2024 1.961 . S
O2086 Li2026 1.956 . S
O2086 Li2027 1.970 . S
O2086 C2056 1.325 . S
O2087 Li2025 1.961 . S
O2087 Li2026 1.970 . S
O2087 Li2027 1.956 . S
O2087 C2062 1.325 . S
H2088 C2030 0.929 . S
H2089 C2031 0.930 . S
H2090 C2032 0.930 . S
H2091 C2033 0.930 . S
H2092 C2035 0.930 . S
H2093 C2037 0.929 . S
H2094 C2038 0.930 . S
H2095 C2039 0.930 . S
H2096 C2042 0.930 . S
H2097 C2045 0.929 . S
H2098 C2050 0.929 . S
H2099 C2051 0.930 . S
H2100 C2058 0.929 . S
H2101 C2059 0.930 . S
H2102 C2060 0.930 . S
H2103 C2061 0.930 . S
H2104 C2063 0.929 . S
H2105 C2064 0.930 . S
H2106 C2065 0.930 . S
H2107 C2066 0.930 . S
H2108 C2070 0.929 . S
H2109 C2072 0.930 . S
H2110 C2078 0.929 . S
H2111 C2079 0.930 . S
C2112 C2113 1.387 . S
C2112 H2116 0.950 . S
C2112 C2121 1.390 1_545 S
C2113 C2112 1.387 . S
C2113 C2115 1.387 . S
H2114 C2121 0.950 . S
C2115 C2113 1.387 . S
C2115 C2117 1.390 1_545 S
C2115 H2119 0.950 . S
H2116 C2112 0.950 . S
C2117 C2115 1.390 1_565 S
C2117 C2118 1.387 . S
C2117 H2120 0.950 . S
C2118 C2117 1.387 . S
C2118 C2121 1.387 . S
H2119 C2115 0.950 . S
H2120 C2117 0.950 . S
C2121 C2112 1.390 1_565 S
C2121 H2114 0.950 . S
C2121 C2118 1.387 . S
C2122 C2123 1.387 . S
C2122 H2126 0.950 . S
C2122 C2131 1.390 . S
C2123 C2122 1.387 . S
C2123 C2125 1.387 . S
H2124 C2131 0.950 . S
C2125 C2123 1.387 . S
C2125 C2127 1.390 . S
C2125 H2129 0.950 . S
H2126 C2122 0.950 . S
C2127 C2125 1.390 . S
C2127 C2128 1.387 . S
C2127 H2130 0.950 . S
C2128 C2127 1.387 . S
C2128 C2131 1.387 . S
H2129 C2125 0.950 . S
H2130 C2127 0.950 . S
C2131 C2122 1.390 . S
C2131 H2124 0.950 . S
C2131 C2128 1.387 . S
C2132 C2133 1.387 . S
C2132 H2136 0.950 . S
C2132 C2141 1.390 1_655 S
C2133 C2132 1.387 . S
C2133 C2135 1.387 . S
H2134 C2141 0.950 . S
C2135 C2133 1.387 . S
C2135 C2137 1.390 1_655 S
C2135 H2139 0.950 . S
H2136 C2132 0.950 . S
C2137 C2135 1.390 1_455 S
C2137 C2138 1.387 . S
C2137 H2140 0.950 . S
C2138 C2137 1.387 . S
C2138 C2141 1.387 . S
H2139 C2135 0.950 . S
H2140 C2137 0.950 . S
C2141 C2132 1.390 1_455 S
C2141 H2134 0.950 . S
C2141 C2138 1.387 . S
C2142 C2143 1.387 . S
C2142 H2146 0.950 . S
C2142 C2151 1.390 1_565 S
C2143 C2142 1.387 . S
C2143 C2145 1.387 . S
H2144 C2151 0.950 . S
C2145 C2143 1.387 . S
C2145 C2147 1.390 1_565 S
C2145 H2149 0.950 . S
H2146 C2142 0.950 . S
C2147 C2145 1.390 1_545 S
C2147 C2148 1.387 . S
C2147 H2150 0.950 . S
C2148 C2147 1.387 . S
C2148 C2151 1.387 . S
H2149 C2145 0.950 . S
H2150 C2147 0.950 . S
C2151 C2142 1.390 1_545 S
C2151 H2144 0.950 . S
C2151 C2148 1.387 . S
C2152 C2153 1.387 . S
C2152 H2156 0.950 . S
C2152 C2161 1.390 . S
C2153 C2152 1.387 . S
C2153 C2155 1.387 . S
H2154 C2161 0.950 . S
C2155 C2153 1.387 . S
C2155 C2157 1.390 . S
C2155 H2159 0.950 . S
H2156 C2152 0.950 . S
C2157 C2155 1.390 . S
C2157 C2158 1.387 . S
C2157 H2160 0.950 . S
C2158 C2157 1.387 . S
C2158 C2161 1.387 . S
H2159 C2155 0.950 . S
H2160 C2157 0.950 . S
C2161 C2152 1.390 . S
C2161 H2154 0.950 . S
C2161 C2158 1.387 . S
C2162 C2163 1.387 . S
C2162 H2166 0.950 . S
C2162 C2171 1.390 1_455 S
C2163 C2162 1.387 . S
C2163 C2165 1.387 . S
H2164 C2171 0.950 . S
C2165 C2163 1.387 . S
C2165 C2167 1.390 1_455 S
C2165 H2169 0.950 . S
H2166 C2162 0.950 . S
C2167 C2165 1.390 1_655 S
C2167 C2168 1.387 . S
C2167 H2170 0.950 . S
C2168 C2167 1.387 . S
C2168 C2171 1.387 . S
H2169 C2165 0.950 . S
H2170 C2167 0.950 . S
C2171 C2162 1.390 1_655 S
C2171 H2164 0.950 . S
C2171 C2168 1.387 . S
C2172 C2173 1.387 . S
C2172 H2176 0.950 . S
C2172 C2181 1.390 1_565 S
C2173 C2172 1.387 . S
C2173 C2175 1.387 . S
H2174 C2181 0.950 . S
C2175 C2173 1.387 . S
C2175 C2177 1.390 1_565 S
C2175 H2179 0.950 . S
H2176 C2172 0.950 . S
C2177 C2175 1.390 1_545 S
C2177 C2178 1.387 . S
C2177 H2180 0.950 . S
C2178 C2177 1.387 . S
C2178 C2181 1.387 . S
H2179 C2175 0.950 . S
H2180 C2177 0.950 . S
C2181 C2172 1.390 1_545 S
C2181 H2174 0.950 . S
C2181 C2178 1.387 . S
C2182 C2183 1.387 . S
C2182 H2186 0.950 . S
C2182 C2191 1.390 . S
C2183 C2182 1.387 . S
C2183 C2185 1.387 . S
H2184 C2191 0.950 . S
C2185 C2183 1.387 . S
C2185 C2187 1.390 . S
C2185 H2189 0.950 . S
H2186 C2182 0.950 . S
C2187 C2185 1.390 . S
C2187 C2188 1.387 . S
C2187 H2190 0.950 . S
C2188 C2187 1.387 . S
C2188 C2191 1.387 . S
H2189 C2185 0.950 . S
H2190 C2187 0.950 . S
C2191 C2182 1.390 . S
C2191 H2184 0.950 . S
C2191 C2188 1.387 . S
C2192 C2193 1.387 . S
C2192 H2196 0.950 . S
C2192 C2201 1.390 1_655 S
C2193 C2192 1.387 . S
C2193 C2195 1.387 . S
H2194 C2201 0.950 . S
C2195 C2193 1.387 . S
C2195 C2197 1.390 1_655 S
C2195 H2199 0.950 . S
H2196 C2192 0.950 . S
C2197 C2195 1.390 1_455 S
C2197 C2198 1.387 . S
C2197 H2200 0.950 . S
C2198 C2197 1.387 . S
C2198 C2201 1.387 . S
H2199 C2195 0.950 . S
H2200 C2197 0.950 . S
C2201 C2192 1.390 1_455 S
C2201 H2194 0.950 . S
C2201 C2198 1.387 . S
C2202 C2203 1.387 . S
C2202 H2206 0.950 . S
C2202 C2211 1.390 1_545 S
C2203 C2202 1.387 . S
C2203 C2205 1.387 . S
H2204 C2211 0.950 . S
C2205 C2203 1.387 . S
C2205 C2207 1.390 1_545 S
C2205 H2209 0.950 . S
H2206 C2202 0.950 . S
C2207 C2205 1.390 1_565 S
C2207 C2208 1.387 . S
C2207 H2210 0.950 . S
C2208 C2207 1.387 . S
C2208 C2211 1.387 . S
H2209 C2205 0.950 . S
H2210 C2207 0.950 . S
C2211 C2202 1.390 1_565 S
C2211 H2204 0.950 . S
C2211 C2208 1.387 . S
C2212 C2213 1.387 . S
C2212 H2216 0.950 . S
C2212 C2221 1.390 . S
C2213 C2212 1.387 . S
C2213 C2215 1.387 . S
H2214 C2221 0.950 . S
C2215 C2213 1.387 . S
C2215 C2217 1.390 . S
C2215 H2219 0.950 . S
H2216 C2212 0.950 . S
C2217 C2215 1.390 . S
C2217 C2218 1.387 . S
C2217 H2220 0.950 . S
C2218 C2217 1.387 . S
C2218 C2221 1.387 . S
H2219 C2215 0.950 . S
H2220 C2217 0.950 . S
C2221 C2212 1.390 . S
C2221 H2214 0.950 . S
C2221 C2218 1.387 . S
C2222 C2223 1.387 . S
C2222 H2226 0.950 . S
C2222 C2231 1.390 1_455 S
C2223 C2222 1.387 . S
C2223 C2225 1.387 . S
H2224 C2231 0.950 . S
C2225 C2223 1.387 . S
C2225 C2227 1.390 1_455 S
C2225 H2229 0.950 . S
H2226 C2222 0.950 . S
C2227 C2225 1.390 1_655 S
C2227 C2228 1.387 . S
C2227 H2230 0.950 . S
C2228 C2227 1.387 . S
C2228 C2231 1.387 . S
H2229 C2225 0.950 . S
H2230 C2227 0.950 . S
C2231 C2222 1.390 1_655 S
C2231 H2224 0.950 . S
C2231 C2228 1.387 . S
C2232 C2233 1.387 . S
C2232 H2236 0.950 . S
C2232 C2241 1.390 . S
C2233 C2232 1.387 . S
C2233 C2235 1.387 . S
H2234 C2241 0.950 . S
C2235 C2233 1.387 . S
C2235 C2237 1.390 . S
C2235 H2239 0.950 . S
H2236 C2232 0.950 . S
C2237 C2235 1.390 . S
C2237 C2238 1.387 . S
C2237 H2240 0.950 . S
C2238 C2237 1.387 . S
C2238 C2241 1.387 . S
H2239 C2235 0.950 . S
H2240 C2237 0.950 . S
C2241 C2232 1.390 . S
C2241 H2234 0.950 . S
C2241 C2238 1.387 . S
C2242 C2243 1.387 . S
C2242 H2246 0.950 . S
C2242 C2251 1.390 . S
C2243 C2242 1.387 . S
C2243 C2245 1.387 . S
H2244 C2251 0.950 . S
C2245 C2243 1.387 . S
C2245 C2247 1.390 . S
C2245 H2249 0.950 . S
H2246 C2242 0.950 . S
C2247 C2245 1.390 . S
C2247 C2248 1.387 . S
C2247 H2250 0.950 . S
C2248 C2247 1.387 . S
C2248 C2251 1.387 . S
H2249 C2245 0.950 . S
H2250 C2247 0.950 . S
C2251 C2242 1.390 . S
C2251 H2244 0.950 . S
C2251 C2248 1.387 . S
C2252 C2253 1.387 . S
C2252 H2256 0.950 . S
C2252 C2261 1.390 . S
C2253 C2252 1.387 . S
C2253 C2255 1.387 . S
H2254 C2261 0.950 . S
C2255 C2253 1.387 . S
C2255 C2257 1.390 . S
C2255 H2259 0.950 . S
H2256 C2252 0.950 . S
C2257 C2255 1.390 . S
C2257 C2258 1.387 . S
C2257 H2260 0.950 . S
C2258 C2257 1.387 . S
C2258 C2261 1.387 . S
H2259 C2255 0.950 . S
H2260 C2257 0.950 . S
C2261 C2252 1.390 . S
C2261 H2254 0.950 . S
C2261 C2258 1.387 . S
C2262 C2263 1.387 . S
C2262 H2266 0.950 . S
C2262 C2271 1.390 . S
C2263 C2262 1.387 . S
C2263 C2265 1.387 . S
H2264 C2271 0.950 . S
C2265 C2263 1.387 . S
C2265 C2267 1.390 . S
C2265 H2269 0.950 . S
H2266 C2262 0.950 . S
C2267 C2265 1.390 . S
C2267 C2268 1.387 . S
C2267 H2270 0.950 . S
C2268 C2267 1.387 . S
C2268 C2271 1.387 . S
H2269 C2265 0.950 . S
H2270 C2267 0.950 . S
C2271 C2262 1.390 . S
C2271 H2264 0.950 . S
C2271 C2268 1.387 . S
C2272 C2273 1.387 . S
C2272 H2276 0.950 . S
C2272 C2281 1.390 . S
C2273 C2272 1.387 . S
C2273 C2275 1.387 . S
H2274 C2281 0.950 . S
C2275 C2273 1.387 . S
C2275 C2277 1.390 . S
C2275 H2279 0.950 . S
H2276 C2272 0.950 . S
C2277 C2275 1.390 . S
C2277 C2278 1.387 . S
C2277 H2280 0.950 . S
C2278 C2277 1.387 . S
C2278 C2281 1.387 . S
H2279 C2275 0.950 . S
H2280 C2277 0.950 . S
C2281 C2272 1.390 . S
C2281 H2274 0.950 . S
C2281 C2278 1.387 . S
C2282 C2283 1.387 . S
C2282 H2286 0.950 . S
C2282 C2291 1.390 . S
C2283 C2282 1.387 . S
C2283 C2285 1.387 . S
H2284 C2291 0.950 . S
C2285 C2283 1.387 . S
C2285 C2287 1.390 . S
C2285 H2289 0.950 . S
H2286 C2282 0.950 . S
C2287 C2285 1.390 . S
C2287 C2288 1.387 . S
C2287 H2290 0.950 . S
C2288 C2287 1.387 . S
C2288 C2291 1.387 . S
H2289 C2285 0.950 . S
H2290 C2287 0.950 . S
C2291 C2282 1.390 . S
C2291 H2284 0.950 . S
C2291 C2288 1.387 . S
C2292 C2293 1.387 . S
C2292 H2296 0.950 . S
C2292 C2301 1.390 . S
C2293 C2292 1.387 . S
C2293 C2295 1.387 . S
H2294 C2301 0.950 . S
C2295 C2293 1.387 . S
C2295 C2297 1.390 . S
C2295 H2299 0.950 . S
H2296 C2292 0.950 . S
C2297 C2295 1.390 . S
C2297 C2298 1.387 . S
C2297 H2300 0.950 . S
C2298 C2297 1.387 . S
C2298 C2301 1.387 . S
H2299 C2295 0.950 . S
H2300 C2297 0.950 . S
C2301 C2292 1.390 . S
C2301 H2294 0.950 . S
C2301 C2298 1.387 . S
C2302 C2303 1.387 . S
C2302 H2306 0.950 . S
C2302 C2311 1.390 . S
C2303 C2302 1.387 . S
C2303 C2305 1.387 . S
H2304 C2311 0.950 . S
C2305 C2303 1.387 . S
C2305 C2307 1.390 . S
C2305 H2309 0.950 . S
H2306 C2302 0.950 . S
C2307 C2305 1.390 . S
C2307 C2308 1.387 . S
C2307 H2310 0.950 . S
C2308 C2307 1.387 . S
C2308 C2311 1.387 . S
H2309 C2305 0.950 . S
H2310 C2307 0.950 . S
C2311 C2302 1.390 . S
C2311 H2304 0.950 . S
C2311 C2308 1.387 . S
C2312 C2313 1.387 . S
C2312 H2316 0.950 . S
C2312 C2321 1.390 . S
C2313 C2312 1.387 . S
C2313 C2315 1.387 . S
H2314 C2321 0.950 . S
C2315 C2313 1.387 . S
C2315 C2317 1.390 . S
C2315 H2319 0.950 . S
H2316 C2312 0.950 . S
C2317 C2315 1.390 . S
C2317 C2318 1.387 . S
C2317 H2320 0.950 . S
C2318 C2317 1.387 . S
C2318 C2321 1.387 . S
H2319 C2315 0.950 . S
H2320 C2317 0.950 . S
C2321 C2312 1.390 . S
C2321 H2314 0.950 . S
C2321 C2318 1.387 . S
C2322 C2323 1.387 . S
C2322 H2326 0.950 . S
C2322 C2331 1.390 . S
C2323 C2322 1.387 . S
C2323 C2325 1.387 . S
H2324 C2331 0.950 . S
C2325 C2323 1.387 . S
C2325 C2327 1.390 . S
C2325 H2329 0.950 . S
H2326 C2322 0.950 . S
C2327 C2325 1.390 . S
C2327 C2328 1.387 . S
C2327 H2330 0.950 . S
C2328 C2327 1.387 . S
C2328 C2331 1.387 . S
H2329 C2325 0.950 . S
H2330 C2327 0.950 . S
C2331 C2322 1.390 . S
C2331 H2324 0.950 . S
C2331 C2328 1.387 . S
C2332 C2333 1.387 . S
C2332 H2336 0.950 . S
C2332 C2341 1.390 . S
C2333 C2332 1.387 . S
C2333 C2335 1.387 . S
H2334 C2341 0.950 . S
C2335 C2333 1.387 . S
C2335 C2337 1.390 . S
C2335 H2339 0.950 . S
H2336 C2332 0.950 . S
C2337 C2335 1.390 . S
C2337 C2338 1.387 . S
C2337 H2340 0.950 . S
C2338 C2337 1.387 . S
C2338 C2341 1.387 . S
H2339 C2335 0.950 . S
H2340 C2337 0.950 . S
C2341 C2332 1.390 . S
C2341 H2334 0.950 . S
C2341 C2338 1.387 . S
C2342 C2343 1.387 . S
C2342 H2346 0.950 . S
C2342 C2351 1.390 . S
C2343 C2342 1.387 . S
C2343 C2345 1.387 . S
H2344 C2351 0.950 . S
C2345 C2343 1.387 . S
C2345 C2347 1.390 . S
C2345 H2349 0.950 . S
H2346 C2342 0.950 . S
C2347 C2345 1.390 . S
C2347 C2348 1.387 . S
C2347 H2350 0.950 . S
C2348 C2347 1.387 . S
C2348 C2351 1.387 . S
H2349 C2345 0.950 . S
H2350 C2347 0.950 . S
C2351 C2342 1.390 . S
C2351 H2344 0.950 . S
C2351 C2348 1.387 . S
C2352 C2353 1.387 . S
C2352 H2356 0.950 . S
C2352 C2361 1.390 1_554 S
C2353 C2352 1.387 . S
C2353 C2355 1.387 . S
H2354 C2361 0.950 . S
C2355 C2353 1.387 . S
C2355 C2357 1.390 1_554 S
C2355 H2359 0.950 . S
H2356 C2352 0.950 . S
C2357 C2355 1.390 1_556 S
C2357 C2358 1.387 . S
C2357 H2360 0.950 . S
C2358 C2357 1.387 . S
C2358 C2361 1.387 . S
H2359 C2355 0.950 . S
H2360 C2357 0.950 . S
C2361 C2352 1.390 1_556 S
C2361 H2354 0.950 . S
C2361 C2358 1.387 . S
C2362 C2363 1.387 . S
C2362 H2366 0.950 . S
C2362 C2371 1.390 1_556 S
C2363 C2362 1.387 . S
C2363 C2365 1.387 . S
H2364 C2371 0.950 . S
C2365 C2363 1.387 . S
C2365 C2367 1.390 1_556 S
C2365 H2369 0.950 . S
H2366 C2362 0.950 . S
C2367 C2365 1.390 1_554 S
C2367 C2368 1.387 . S
C2367 H2370 0.950 . S
C2368 C2367 1.387 . S
C2368 C2371 1.387 . S
H2369 C2365 0.950 . S
H2370 C2367 0.950 . S
C2371 C2362 1.390 1_554 S
C2371 H2364 0.950 . S
C2371 C2368 1.387 . S
C2372 C2373 1.387 . S
C2372 H2376 0.950 . S
C2372 C2381 1.390 1_556 S
C2373 C2372 1.387 . S
C2373 C2375 1.387 . S
H2374 C2381 0.950 . S
C2375 C2373 1.387 . S
C2375 C2377 1.390 1_556 S
C2375 H2379 0.950 . S
H2376 C2372 0.950 . S
C2377 C2375 1.390 1_554 S
C2377 C2378 1.387 . S
C2377 H2380 0.950 . S
C2378 C2377 1.387 . S
C2378 C2381 1.387 . S
H2379 C2375 0.950 . S
H2380 C2377 0.950 . S
C2381 C2372 1.390 1_554 S
C2381 H2374 0.950 . S
C2381 C2378 1.387 . S
C2382 C2383 1.387 . S
C2382 H2386 0.950 . S
C2382 C2391 1.390 1_554 S
C2383 C2382 1.387 . S
C2383 C2385 1.387 . S
H2384 C2391 0.950 . S
C2385 C2383 1.387 . S
C2385 C2387 1.390 1_554 S
C2385 H2389 0.950 . S
H2386 C2382 0.950 . S
C2387 C2385 1.390 1_556 S
C2387 C2388 1.387 . S
C2387 H2390 0.950 . S
C2388 C2387 1.387 . S
C2388 C2391 1.387 . S
H2389 C2385 0.950 . S
H2390 C2387 0.950 . S
C2391 C2382 1.390 1_556 S
C2391 H2384 0.950 . S
C2391 C2388 1.387 . S
C2392 C2393 1.387 . S
C2392 H2396 0.950 . S
C2392 C2401 1.390 1_554 S
C2393 C2392 1.387 . S
C2393 C2395 1.387 . S
H2394 C2401 0.950 . S
C2395 C2393 1.387 . S
C2395 C2397 1.390 1_554 S
C2395 H2399 0.950 . S
H2396 C2392 0.950 . S
C2397 C2395 1.390 1_556 S
C2397 C2398 1.387 . S
C2397 H2400 0.950 . S
C2398 C2397 1.387 . S
C2398 C2401 1.387 . S
H2399 C2395 0.950 . S
H2400 C2397 0.950 . S
C2401 C2392 1.390 1_556 S
C2401 H2394 0.950 . S
C2401 C2398 1.387 . S
C2402 C2403 1.387 . S
C2402 H2406 0.950 . S
C2402 C2411 1.390 1_556 S
C2403 C2402 1.387 . S
C2403 C2405 1.387 . S
H2404 C2411 0.950 . S
C2405 C2403 1.387 . S
C2405 C2407 1.390 1_556 S
C2405 H2409 0.950 . S
H2406 C2402 0.950 . S
C2407 C2405 1.390 1_554 S
C2407 C2408 1.387 . S
C2407 H2410 0.950 . S
C2408 C2407 1.387 . S
C2408 C2411 1.387 . S
H2409 C2405 0.950 . S
H2410 C2407 0.950 . S
C2411 C2402 1.390 1_554 S
C2411 H2404 0.950 . S
C2411 C2408 1.387 . S
C2412 C2413 1.387 . S
C2412 H2416 0.950 . S
C2412 C2421 1.390 . S
C2413 C2412 1.387 . S
C2413 C2415 1.387 . S
H2414 C2421 0.950 . S
C2415 C2413 1.387 . S
C2415 C2417 1.390 . S
C2415 H2419 0.950 . S
H2416 C2412 0.950 . S
C2417 C2415 1.390 . S
C2417 C2418 1.387 . S
C2417 H2420 0.950 . S
C2418 C2417 1.387 . S
C2418 C2421 1.387 . S
H2419 C2415 0.950 . S
H2420 C2417 0.950 . S
C2421 C2412 1.390 . S
C2421 H2414 0.950 . S
C2421 C2418 1.387 . S
C2422 C2423 1.387 . S
C2422 H2426 0.950 . S
C2422 C2431 1.390 . S
C2423 C2422 1.387 . S
C2423 C2425 1.387 . S
H2424 C2431 0.950 . S
C2425 C2423 1.387 . S
C2425 C2427 1.390 . S
C2425 H2429 0.950 . S
H2426 C2422 0.950 . S
C2427 C2425 1.390 . S
C2427 C2428 1.387 . S
C2427 H2430 0.950 . S
C2428 C2427 1.387 . S
C2428 C2431 1.387 . S
H2429 C2425 0.950 . S
H2430 C2427 0.950 . S
C2431 C2422 1.390 . S
C2431 H2424 0.950 . S
C2431 C2428 1.387 . S
C2432 C2433 1.387 . S
C2432 H2436 0.950 . S
C2432 C2441 1.390 . S
C2433 C2432 1.387 . S
C2433 C2435 1.387 . S
H2434 C2441 0.950 . S
C2435 C2433 1.387 . S
C2435 C2437 1.390 . S
C2435 H2439 0.950 . S
H2436 C2432 0.950 . S
C2437 C2435 1.390 . S
C2437 C2438 1.387 . S
C2437 H2440 0.950 . S
C2438 C2437 1.387 . S
C2438 C2441 1.387 . S
H2439 C2435 0.950 . S
H2440 C2437 0.950 . S
C2441 C2432 1.390 . S
C2441 H2434 0.950 . S
C2441 C2438 1.387 . S
C2442 C2443 1.387 . S
C2442 H2446 0.950 . S
C2442 C2451 1.390 . S
C2443 C2442 1.387 . S
C2443 C2445 1.387 . S
H2444 C2451 0.950 . S
C2445 C2443 1.387 . S
C2445 C2447 1.390 . S
C2445 H2449 0.950 . S
H2446 C2442 0.950 . S
C2447 C2445 1.390 . S
C2447 C2448 1.387 . S
C2447 H2450 0.950 . S
C2448 C2447 1.387 . S
C2448 C2451 1.387 . S
H2449 C2445 0.950 . S
H2450 C2447 0.950 . S
C2451 C2442 1.390 . S
C2451 H2444 0.950 . S
C2451 C2448 1.387 . S
C2452 C2453 1.387 . S
C2452 H2456 0.950 . S
C2452 C2461 1.390 . S
C2453 C2452 1.387 . S
C2453 C2455 1.387 . S
H2454 C2461 0.950 . S
C2455 C2453 1.387 . S
C2455 C2457 1.390 . S
C2455 H2459 0.950 . S
H2456 C2452 0.950 . S
C2457 C2455 1.390 . S
C2457 C2458 1.387 . S
C2457 H2460 0.950 . S
C2458 C2457 1.387 . S
C2458 C2461 1.387 . S
H2459 C2455 0.950 . S
H2460 C2457 0.950 . S
C2461 C2452 1.390 . S
C2461 H2454 0.950 . S
C2461 C2458 1.387 . S
C2462 C2463 1.387 . S
C2462 H2466 0.950 . S
C2462 C2471 1.390 . S
C2463 C2462 1.387 . S
C2463 C2465 1.387 . S
H2464 C2471 0.950 . S
C2465 C2463 1.387 . S
C2465 C2467 1.390 . S
C2465 H2469 0.950 . S
H2466 C2462 0.950 . S
C2467 C2465 1.390 . S
C2467 C2468 1.387 . S
C2467 H2470 0.950 . S
C2468 C2467 1.387 . S
C2468 C2471 1.387 . S
H2469 C2465 0.950 . S
H2470 C2467 0.950 . S
C2471 C2462 1.390 . S
C2471 H2464 0.950 . S
C2471 C2468 1.387 . S
C2472 C2473 1.387 . S
C2472 H2476 0.950 . S
C2472 C2481 1.390 . S
C2473 C2472 1.387 . S
C2473 C2475 1.387 . S
H2474 C2481 0.950 . S
C2475 C2473 1.387 . S
C2475 C2477 1.390 . S
C2475 H2479 0.950 . S
H2476 C2472 0.950 . S
C2477 C2475 1.390 . S
C2477 C2478 1.387 . S
C2477 H2480 0.950 . S
C2478 C2477 1.387 . S
C2478 C2481 1.387 . S
H2479 C2475 0.950 . S
H2480 C2477 0.950 . S
C2481 C2472 1.390 . S
C2481 H2474 0.950 . S
C2481 C2478 1.387 . S
C2482 C2483 1.387 . S
C2482 H2486 0.950 . S
C2482 C2491 1.390 . S
C2483 C2482 1.387 . S
C2483 C2485 1.387 . S
H2484 C2491 0.950 . S
C2485 C2483 1.387 . S
C2485 C2487 1.390 . S
C2485 H2489 0.950 . S
H2486 C2482 0.950 . S
C2487 C2485 1.390 . S
C2487 C2488 1.387 . S
C2487 H2490 0.950 . S
C2488 C2487 1.387 . S
C2488 C2491 1.387 . S
H2489 C2485 0.950 . S
H2490 C2487 0.950 . S
C2491 C2482 1.390 . S
C2491 H2484 0.950 . S
C2491 C2488 1.387 . S
C2492 C2493 1.387 . S
C2492 H2496 0.950 . S
C2492 C2501 1.390 . S
C2493 C2492 1.387 . S
C2493 C2495 1.387 . S
H2494 C2501 0.950 . S
C2495 C2493 1.387 . S
C2495 C2497 1.390 . S
C2495 H2499 0.950 . S
H2496 C2492 0.950 . S
C2497 C2495 1.390 . S
C2497 C2498 1.387 . S
C2497 H2500 0.950 . S
C2498 C2497 1.387 . S
C2498 C2501 1.387 . S
H2499 C2495 0.950 . S
H2500 C2497 0.950 . S
C2501 C2492 1.390 . S
C2501 H2494 0.950 . S
C2501 C2498 1.387 . S
C2502 C2503 1.387 . S
C2502 H2506 0.950 . S
C2502 C2511 1.390 . S
C2503 C2502 1.387 . S
C2503 C2505 1.387 . S
H2504 C2511 0.950 . S
C2505 C2503 1.387 . S
C2505 C2507 1.390 . S
C2505 H2509 0.950 . S
H2506 C2502 0.950 . S
C2507 C2505 1.390 . S
C2507 C2508 1.387 . S
C2507 H2510 0.950 . S
C2508 C2507 1.387 . S
C2508 C2511 1.387 . S
H2509 C2505 0.950 . S
H2510 C2507 0.950 . S
C2511 C2502 1.390 . S
C2511 H2504 0.950 . S
C2511 C2508 1.387 . S
C2512 C2513 1.387 . S
C2512 H2516 0.950 . S
C2512 C2521 1.390 . S
C2513 C2512 1.387 . S
C2513 C2515 1.387 . S
H2514 C2521 0.950 . S
C2515 C2513 1.387 . S
C2515 C2517 1.390 . S
C2515 H2519 0.950 . S
H2516 C2512 0.950 . S
C2517 C2515 1.390 . S
C2517 C2518 1.387 . S
C2517 H2520 0.950 . S
C2518 C2517 1.387 . S
C2518 C2521 1.387 . S
H2519 C2515 0.950 . S
H2520 C2517 0.950 . S
C2521 C2512 1.390 . S
C2521 H2514 0.950 . S
C2521 C2518 1.387 . S
C2522 C2523 1.387 . S
C2522 H2526 0.950 . S
C2522 C2531 1.390 . S
C2523 C2522 1.387 . S
C2523 C2525 1.387 . S
H2524 C2531 0.950 . S
C2525 C2523 1.387 . S
C2525 C2527 1.390 . S
C2525 H2529 0.950 . S
H2526 C2522 0.950 . S
C2527 C2525 1.390 . S
C2527 C2528 1.387 . S
C2527 H2530 0.950 . S
C2528 C2527 1.387 . S
C2528 C2531 1.387 . S
H2529 C2525 0.950 . S
H2530 C2527 0.950 . S
C2531 C2522 1.390 . S
C2531 H2524 0.950 . S
C2531 C2528 1.387 . S
C2532 C2533 1.387 . S
C2532 H2536 0.950 . S
C2532 C2541 1.390 . S
C2533 C2532 1.387 . S
C2533 C2535 1.387 . S
H2534 C2541 0.950 . S
C2535 C2533 1.387 . S
C2535 C2537 1.390 . S
C2535 H2539 0.950 . S
H2536 C2532 0.950 . S
C2537 C2535 1.390 . S
C2537 C2538 1.387 . S
C2537 H2540 0.950 . S
C2538 C2537 1.387 . S
C2538 C2541 1.387 . S
H2539 C2535 0.950 . S
H2540 C2537 0.950 . S
C2541 C2532 1.390 . S
C2541 H2534 0.950 . S
C2541 C2538 1.387 . S
C2542 C2543 1.387 . S
C2542 H2546 0.950 . S
C2542 C2551 1.390 . S
C2543 C2542 1.387 . S
C2543 C2545 1.387 . S
H2544 C2551 0.950 . S
C2545 C2543 1.387 . S
C2545 C2547 1.390 . S
C2545 H2549 0.950 . S
H2546 C2542 0.950 . S
C2547 C2545 1.390 . S
C2547 C2548 1.387 . S
C2547 H2550 0.950 . S
C2548 C2547 1.387 . S
C2548 C2551 1.387 . S
H2549 C2545 0.950 . S
H2550 C2547 0.950 . S
C2551 C2542 1.390 . S
C2551 H2544 0.950 . S
C2551 C2548 1.387 . S
C2552 C2553 1.387 . S
C2552 H2556 0.950 . S
C2552 C2561 1.390 . S
C2553 C2552 1.387 . S
C2553 C2555 1.387 . S
H2554 C2561 0.950 . S
C2555 C2553 1.387 . S
C2555 C2557 1.390 . S
C2555 H2559 0.950 . S
H2556 C2552 0.950 . S
C2557 C2555 1.390 . S
C2557 C2558 1.387 . S
C2557 H2560 0.950 . S
C2558 C2557 1.387 . S
C2558 C2561 1.387 . S
H2559 C2555 0.950 . S
H2560 C2557 0.950 . S
C2561 C2552 1.390 . S
C2561 H2554 0.950 . S
C2561 C2558 1.387 . S
C2562 C2563 1.387 . S
C2562 H2566 0.950 . S
C2562 C2571 1.390 . S
C2563 C2562 1.387 . S
C2563 C2565 1.387 . S
H2564 C2571 0.950 . S
C2565 C2563 1.387 . S
C2565 C2567 1.390 . S
C2565 H2569 0.950 . S
H2566 C2562 0.950 . S
C2567 C2565 1.390 . S
C2567 C2568 1.387 . S
C2567 H2570 0.950 . S
C2568 C2567 1.387 . S
C2568 C2571 1.387 . S
H2569 C2565 0.950 . S
H2570 C2567 0.950 . S
C2571 C2562 1.390 . S
C2571 H2564 0.950 . S
C2571 C2568 1.387 . S
C2572 C2573 1.387 . S
C2572 H2576 0.950 . S
C2572 C2581 1.390 . S
C2573 C2572 1.387 . S
C2573 C2575 1.387 . S
H2574 C2581 0.950 . S
C2575 C2573 1.387 . S
C2575 C2577 1.390 . S
C2575 H2579 0.950 . S
H2576 C2572 0.950 . S
C2577 C2575 1.390 . S
C2577 C2578 1.387 . S
C2577 H2580 0.950 . S
C2578 C2577 1.387 . S
C2578 C2581 1.387 . S
H2579 C2575 0.950 . S
H2580 C2577 0.950 . S
C2581 C2572 1.390 . S
C2581 H2574 0.950 . S
C2581 C2578 1.387 . S
C2582 C2583 1.387 . S
C2582 H2586 0.950 . S
C2582 C2591 1.390 . S
C2583 C2582 1.387 . S
C2583 C2585 1.387 . S
H2584 C2591 0.950 . S
C2585 C2583 1.387 . S
C2585 C2587 1.390 . S
C2585 H2589 0.950 . S
H2586 C2582 0.950 . S
C2587 C2585 1.390 . S
C2587 C2588 1.387 . S
C2587 H2590 0.950 . S
C2588 C2587 1.387 . S
C2588 C2591 1.387 . S
H2589 C2585 0.950 . S
H2590 C2587 0.950 . S
C2591 C2582 1.390 . S
C2591 H2584 0.950 . S
C2591 C2588 1.387 . S
C2113 C29 1.338 . S
C2118 C673 1.339 . S
C2123 C724 1.340 . S
C2128 C117 1.338 . S
C2133 C205 1.339 . S
C2138 C821 1.338 . S
C2143 C284 1.339 . S
C2148 C937 1.339 . S
C2153 C1017 1.339 . S
C2158 C381 1.338 . S
C2163 C497 1.338 . S
C2168 C577 1.339 . S
C2173 C1076 1.329 . S
C2178 C1721 1.329 . S
C2183 C1173 1.329 . S
C2188 C1809 1.328 . S
C2193 C1905 1.329 . S
C2198 C1252 1.328 . S
C2203 C1340 1.329 . S
C2208 C1993 1.329 . S
C2213 C1437 1.327 . S
C2218 C2073 1.329 . S
C2223 C1633 1.329 . S
C2228 C1516 1.328 . S
C2233 C57 1.119 . S
C2238 C753 1.118 . S
C2243 C849 1.119 . S
C2248 C145 1.119 . S
C2253 C909 1.119 . S
C2258 C233 1.119 . S
C2263 C313 1.118 . S
C2268 C988 1.119 . S
C2273 C409 1.118 . S
C2278 C548 1.118 . S
C2283 C469 1.119 . S
C2288 C645 1.118 . S
C2293 C1780 1.127 . S
C2298 C1105 1.126 . S
C2303 C1201 1.126 . S
C2308 C1877 1.126 . S
C2313 C1965 1.126 . S
C2318 C1281 1.127 . S
C2323 C2044 1.127 . S
C2328 C1369 1.126 . S
C2333 C1604 1.126 . S
C2338 C1465 1.126 . S
C2343 C1545 1.126 . S
C2348 C1692 1.127 . S
C2353 C49 1.525 . S
C2358 C1349 1.525 . S
C2363 C1428 1.525 . S
C2368 C137 1.525 . S
C2373 C1525 1.525 . S
C2378 C225 1.525 . S
C2383 C321 1.525 . S
C2388 C1085 1.524 . S
C2393 C401 1.525 . S
C2398 C1164 1.525 . S
C2403 C1261 1.525 . S
C2408 C460 1.525 . S
C2413 C1897 1.525 . S
C2418 C557 1.525 . S
C2423 C1985 1.525 . S
C2428 C636 1.525 . S
C2433 C2081 1.525 . S
C2438 C761 1.525 . S
C2443 C1641 1.524 . S
C2448 C841 1.525 . S
C2453 C900 1.525 . S
C2458 C1729 1.525 . S
C2463 C997 1.525 . S
C2468 C1817 1.525 . S
C2473 C20 1.626 . S
C2478 C929 1.626 . S
C2483 C1025 1.625 . S
C2488 C108 1.626 . S
C2493 C585 1.626 . S
C2498 C196 1.625 . S
C2503 C293 1.626 . S
C2508 C665 1.626 . S
C2513 C372 1.625 . S
C2518 C733 1.625 . S
C2523 C489 1.626 . S
C2528 C812 1.625 . S
C2533 C1113 1.626 . S
C2538 C1956 1.626 . S
C2543 C1193 1.626 . S
C2548 C2053 1.625 . S
C2553 C1289 1.627 . S
C2558 C1613 1.626 . S
C2563 C1701 1.625 . S
C2568 C1377 1.625 . S
C2573 C1457 1.626 . S
C2578 C1789 1.626 . S
C2583 C1553 1.626 . S
C2588 C1868 1.626 . S
