# Generated by pormake.
# Topology xfh, (7)-cn, num edge types: 1
# Building blocks:
#     Node 0, Type 0, BuildingBlock: NUHQUE_clean_sbu_2, # of connection points: 7
#     Node 1, Type 0, BuildingBlock: NUHQUE_clean_sbu_2, # of connection points: 7
#     Node 2, Type 0, BuildingBlock: NUHQUE_clean_sbu_2, # of connection points: 7
#     Node 3, Type 0, BuildingBlock: NUHQUE_clean_sbu_2, # of connection points: 7
#     Node 4, Type 0, BuildingBlock: NUHQUE_clean_sbu_2, # of connection points: 7
#     Node 5, Type 0, BuildingBlock: NUHQUE_clean_sbu_2, # of connection points: 7
#     Node 6, Type 0, BuildingBlock: NUHQUE_clean_sbu_2, # of connection points: 7
#     Node 7, Type 0, BuildingBlock: NUHQUE_clean_sbu_2, # of connection points: 7
#     Node 8, Type 0, BuildingBlock: NUHQUE_clean_sbu_2, # of connection points: 7
#     Node 9, Type 0, BuildingBlock: NUHQUE_clean_sbu_2, # of connection points: 7
#     Node 10, Type 0, BuildingBlock: NUHQUE_clean_sbu_2, # of connection points: 7
#     Node 11, Type 0, BuildingBlock: NUHQUE_clean_sbu_2, # of connection points: 7
#     Node 12, Type 0, BuildingBlock: NUHQUE_clean_sbu_2, # of connection points: 7
#     Node 13, Type 0, BuildingBlock: NUHQUE_clean_sbu_2, # of connection points: 7
#     Node 14, Type 0, BuildingBlock: NUHQUE_clean_sbu_2, # of connection points: 7
#     Node 15, Type 0, BuildingBlock: NUHQUE_clean_sbu_2, # of connection points: 7
#     Edge 16, Type (0, 0), BuildingBlock: MIFKUJ_clean_linker_0, # of connection points: 2
#     Edge 17, Type (0, 0), BuildingBlock: MIFKUJ_clean_linker_0, # of connection points: 2
#     Edge 18, Type (0, 0), BuildingBlock: MIFKUJ_clean_linker_0, # of connection points: 2
#     Edge 19, Type (0, 0), BuildingBlock: MIFKUJ_clean_linker_0, # of connection points: 2
#     Edge 20, Type (0, 0), BuildingBlock: MIFKUJ_clean_linker_0, # of connection points: 2
#     Edge 21, Type (0, 0), BuildingBlock: MIFKUJ_clean_linker_0, # of connection points: 2
#     Edge 22, Type (0, 0), BuildingBlock: MIFKUJ_clean_linker_0, # of connection points: 2
#     Edge 23, Type (0, 0), BuildingBlock: MIFKUJ_clean_linker_0, # of connection points: 2
#     Edge 24, Type (0, 0), BuildingBlock: MIFKUJ_clean_linker_0, # of connection points: 2
#     Edge 25, Type (0, 0), BuildingBlock: MIFKUJ_clean_linker_0, # of connection points: 2
#     Edge 26, Type (0, 0), BuildingBlock: MIFKUJ_clean_linker_0, # of connection points: 2
#     Edge 27, Type (0, 0), BuildingBlock: MIFKUJ_clean_linker_0, # of connection points: 2
#     Edge 28, Type (0, 0), BuildingBlock: MIFKUJ_clean_linker_0, # of connection points: 2
#     Edge 29, Type (0, 0), BuildingBlock: MIFKUJ_clean_linker_0, # of connection points: 2
#     Edge 30, Type (0, 0), BuildingBlock: MIFKUJ_clean_linker_0, # of connection points: 2
#     Edge 31, Type (0, 0), BuildingBlock: MIFKUJ_clean_linker_0, # of connection points: 2
#     Edge 32, Type (0, 0), BuildingBlock: MIFKUJ_clean_linker_0, # of connection points: 2
#     Edge 33, Type (0, 0), BuildingBlock: MIFKUJ_clean_linker_0, # of connection points: 2
#     Edge 34, Type (0, 0), BuildingBlock: MIFKUJ_clean_linker_0, # of connection points: 2
#     Edge 35, Type (0, 0), BuildingBlock: MIFKUJ_clean_linker_0, # of connection points: 2
#     Edge 36, Type (0, 0), BuildingBlock: MIFKUJ_clean_linker_0, # of connection points: 2
#     Edge 37, Type (0, 0), BuildingBlock: MIFKUJ_clean_linker_0, # of connection points: 2
#     Edge 38, Type (0, 0), BuildingBlock: MIFKUJ_clean_linker_0, # of connection points: 2
#     Edge 39, Type (0, 0), BuildingBlock: MIFKUJ_clean_linker_0, # of connection points: 2
#     Edge 40, Type (0, 0), BuildingBlock: MIFKUJ_clean_linker_0, # of connection points: 2
#     Edge 41, Type (0, 0), BuildingBlock: MIFKUJ_clean_linker_0, # of connection points: 2
#     Edge 42, Type (0, 0), BuildingBlock: MIFKUJ_clean_linker_0, # of connection points: 2
#     Edge 43, Type (0, 0), BuildingBlock: MIFKUJ_clean_linker_0, # of connection points: 2
#     Edge 44, Type (0, 0), BuildingBlock: MIFKUJ_clean_linker_0, # of connection points: 2
#     Edge 45, Type (0, 0), BuildingBlock: MIFKUJ_clean_linker_0, # of connection points: 2
#     Edge 46, Type (0, 0), BuildingBlock: MIFKUJ_clean_linker_0, # of connection points: 2
#     Edge 47, Type (0, 0), BuildingBlock: MIFKUJ_clean_linker_0, # of connection points: 2
#     Edge 48, Type (0, 0), BuildingBlock: MIFKUJ_clean_linker_0, # of connection points: 2
#     Edge 49, Type (0, 0), BuildingBlock: MIFKUJ_clean_linker_0, # of connection points: 2
#     Edge 50, Type (0, 0), BuildingBlock: MIFKUJ_clean_linker_0, # of connection points: 2
#     Edge 51, Type (0, 0), BuildingBlock: MIFKUJ_clean_linker_0, # of connection points: 2
#     Edge 52, Type (0, 0), BuildingBlock: MIFKUJ_clean_linker_0, # of connection points: 2
#     Edge 53, Type (0, 0), BuildingBlock: MIFKUJ_clean_linker_0, # of connection points: 2
#     Edge 54, Type (0, 0), BuildingBlock: MIFKUJ_clean_linker_0, # of connection points: 2
#     Edge 55, Type (0, 0), BuildingBlock: MIFKUJ_clean_linker_0, # of connection points: 2
#     Edge 56, Type (0, 0), BuildingBlock: MIFKUJ_clean_linker_0, # of connection points: 2
#     Edge 57, Type (0, 0), BuildingBlock: MIFKUJ_clean_linker_0, # of connection points: 2
#     Edge 58, Type (0, 0), BuildingBlock: MIFKUJ_clean_linker_0, # of connection points: 2
#     Edge 59, Type (0, 0), BuildingBlock: MIFKUJ_clean_linker_0, # of connection points: 2
#     Edge 60, Type (0, 0), BuildingBlock: MIFKUJ_clean_linker_0, # of connection points: 2
#     Edge 61, Type (0, 0), BuildingBlock: MIFKUJ_clean_linker_0, # of connection points: 2
#     Edge 62, Type (0, 0), BuildingBlock: MIFKUJ_clean_linker_0, # of connection points: 2
#     Edge 63, Type (0, 0), BuildingBlock: MIFKUJ_clean_linker_0, # of connection points: 2
#     Edge 64, Type (0, 0), BuildingBlock: MIFKUJ_clean_linker_0, # of connection points: 2
#     Edge 65, Type (0, 0), BuildingBlock: MIFKUJ_clean_linker_0, # of connection points: 2
#     Edge 66, Type (0, 0), BuildingBlock: MIFKUJ_clean_linker_0, # of connection points: 2
#     Edge 67, Type (0, 0), BuildingBlock: MIFKUJ_clean_linker_0, # of connection points: 2
#     Edge 68, Type (0, 0), BuildingBlock: MIFKUJ_clean_linker_0, # of connection points: 2
#     Edge 69, Type (0, 0), BuildingBlock: MIFKUJ_clean_linker_0, # of connection points: 2
#     Edge 70, Type (0, 0), BuildingBlock: MIFKUJ_clean_linker_0, # of connection points: 2
#     Edge 71, Type (0, 0), BuildingBlock: MIFKUJ_clean_linker_0, # of connection points: 2
# Relax obj value: 0.259
# Max RMSD: 0.281
# Mean RMSD: 0.264
data_MOF--net-xfh--node1-NUHQUE_clean_sbu_2--edge1-MIFKUJ_clean_linker_0
_symmetry_space_group_name_H-M    P1
_symmetry_Int_Tables_number       1
_symmetry_cell_setting            triclinic
loop_
_symmetry_equiv_pos_as_xyz
'x, y, z'
_cell_length_a     43.960775
_cell_length_b     43.037492
_cell_length_c     85.40235
_cell_angle_alpha  90.114973
_cell_angle_beta   90.003991
_cell_angle_gamma 90.008318
loop_
_atom_site_label
_atom_site_type_symbol
_atom_site_fract_x
_atom_site_fract_y
_atom_site_fract_z
_atom_type_partial_charge
O0 O 0.24828 0.04619 0.07803 0.0
Tb1 Tb 0.24835 0.04194 0.10329 0.0
Eu2 Eu 0.30853 0.04187 0.13026 0.0
C3 C 0.27224 0.03926 0.06951 0.0
O4 O 0.29723 0.02962 0.07639 0.0
C5 C 0.26877 0.10091 0.12191 0.0
O6 O 0.31955 0.03277 0.15556 0.0
C7 C 0.35733 0.05099 0.1136 0.0
C8 C 0.29736 0.02339 0.16472 0.0
O9 O 0.27019 0.0194 0.15862 0.0
C10 C 0.28128 0.98039 0.11451 0.0
C11 C 0.38475 0.03495 0.10722 0.0
C12 C 0.38889 0.03279 0.09083 0.0
C13 C 0.41589 0.0203 0.08461 0.0
C14 C 0.43845 0.0094 0.09474 0.0
C15 C 0.43533 0.01206 0.11097 0.0
C16 C 0.40851 0.02493 0.11722 0.0
O17 O 0.26516 0.08897 0.10785 0.0
O18 O 0.27837 0.0836 0.13353 0.0
O19 O 0.19964 0.04235 0.09838 0.0
O20 O 0.21415 0.03186 0.12149 0.0
C21 C 0.19049 0.03509 0.11237 0.0
O22 O 0.2909 0.99338 0.12752 0.0
O23 O 0.27082 0.99661 0.10259 0.0
O24 O 0.35602 0.05539 0.12884 0.0
O25 O 0.33066 0.04444 0.10733 0.0
H26 H 0.37177 0.04195 0.08295 0.0
H27 H 0.4596 1.00064 0.08987 0.0
H28 H 0.40659 0.02772 0.12979 0.0
O29 O 0.73614 0.63809 0.38089 0.0
Tb30 Tb 0.73868 0.58724 0.3817 0.0
Eu31 Eu 0.74294 0.51755 0.3594 0.0
C32 C 0.75368 0.65526 0.37184 0.0
O33 O 0.77233 0.64151 0.36201 0.0
C34 C 0.7988 0.55337 0.37316 0.0
O35 O 0.74582 0.46455 0.35941 0.0
C36 C 0.74937 0.54328 0.33193 0.0
C37 C 0.74049 0.44907 0.37248 0.0
O38 O 0.73348 0.46501 0.38512 0.0
C39 C 0.68097 0.54938 0.37139 0.0
C40 C 0.73645 0.55669 0.31728 0.0
C41 C 0.73752 0.58922 0.31485 0.0
C42 C 0.72828 0.60211 0.30047 0.0
C43 C 0.718 0.58239 0.28856 0.0
C44 C 0.71827 0.55011 0.29035 0.0
C45 C 0.72745 0.53725 0.30473 0.0
O46 O 0.78347 0.57944 0.37139 0.0
O47 O 0.78471 0.52646 0.37377 0.0
O48 O 0.73983 0.60006 0.40641 0.0
O49 O 0.73879 0.55218 0.40047 0.0
C50 C 0.73963 0.57204 0.41202 0.0
O51 O 0.69648 0.52336 0.36994 0.0
O52 O 0.69433 0.5769 0.37126 0.0
O53 O 0.7484 0.51302 0.3341 0.0
O54 O 0.74695 0.55927 0.34502 0.0
H55 H 0.74636 0.60441 0.3239 0.0
H56 H 0.71214 0.59217 0.27725 0.0
H57 H 0.72846 0.5122 0.30591 0.0
O58 O 0.26061 0.95687 0.57329 0.0
Tb59 Tb 0.26684 0.95939 0.59859 0.0
Eu60 Eu 0.18562 0.94847 0.59396 0.0
C61 C 0.27202 0.93383 0.565 0.0
O62 O 0.2865 0.91135 0.57224 0.0
C63 C 0.23501 0.8947 0.59754 0.0
O64 O 0.18715 0.95533 0.62009 0.0
C65 C 0.12921 0.9418 0.58496 0.0
C66 C 0.18796 0.93178 0.62987 0.0
O67 O 0.18875 0.90328 0.62436 0.0
C68 C 0.21943 0.01204 0.59885 0.0
C69 C 0.09906 0.95736 0.58319 0.0
C70 C 0.08795 0.96359 0.56801 0.0
C71 C 0.05886 0.97643 0.56581 0.0
C72 C 0.04077 0.98293 0.5789 0.0
C73 C 0.05071 0.97614 0.59411 0.0
C74 C 0.07991 0.9632 0.59623 0.0
O75 O 0.25274 0.91333 0.60566 0.0
O76 O 0.21321 0.90544 0.58844 0.0
O77 O 0.3042 0.95415 0.61552 0.0
O78 O 0.31353 0.97571 0.59387 0.0
C79 C 0.32538 0.96704 0.60713 0.0
O80 O 0.20226 0.99698 0.58873 0.0
O81 O 0.23956 0.99739 0.60752 0.0
O82 O 0.13882 0.93532 0.59915 0.0
O83 O 0.15134 0.95003 0.57543 0.0
H84 H 0.10177 0.95809 0.55786 0.0
H85 H 0.01796 0.99187 0.57714 0.0
H86 H 0.08748 0.95753 0.60796 0.0
O87 O 0.80933 0.53695 0.82775 0.0
Tb88 Tb 0.79744 0.54102 0.85248 0.0
Eu89 Eu 0.80032 0.45821 0.85382 0.0
C90 C 0.7976 0.51585 0.81835 0.0
O91 O 0.77887 0.49502 0.82406 0.0
C92 C 0.85504 0.50397 0.85809 0.0
O93 O 0.80137 0.45393 0.88029 0.0
C94 C 0.80153 0.40409 0.84037 0.0
C95 C 0.78872 0.47529 0.88923 0.0
O96 O 0.77638 0.49972 0.8826 0.0
C97 C 0.7363 0.49939 0.85322 0.0
C98 C 0.78135 0.37697 0.83797 0.0
C99 C 0.77718 0.36482 0.82277 0.0
C100 C 0.76009 0.33759 0.82051 0.0
C101 C 0.74668 0.32302 0.83337 0.0
C102 C 0.75075 0.33461 0.84855 0.0
C103 C 0.76803 0.36163 0.85083 0.0
O104 O 0.83587 0.52228 0.86535 0.0
O105 O 0.84439 0.48312 0.84831 0.0
O106 O 0.80473 0.5903 0.84735 0.0
O107 O 0.78687 0.57744 0.8695 0.0
C108 C 0.79505 0.60066 0.86077 0.0
O109 O 0.75072 0.47249 0.85301 0.0
O110 O 0.75008 0.52659 0.85326 0.0
O111 O 0.81136 0.40915 0.8547 0.0
O112 O 0.79441 0.42972 0.83285 0.0
H113 H 0.78815 0.37577 0.81284 0.0
H114 H 0.73443 0.3014 0.83159 0.0
H115 H 0.7717 0.37008 0.86265 0.0
O116 O 0.77762 0.97897 0.93391 0.0
Tb117 Tb 0.7874 0.98439 0.90906 0.0
Eu118 Eu 0.70625 0.97202 0.90858 0.0
C119 C 0.78652 0.95371 0.94128 0.0
O120 O 0.79995 0.93161 0.93321 0.0
C121 C 0.75666 0.92214 0.90225 0.0
O122 O 0.70731 0.97603 0.88208 0.0
C123 C 0.65181 0.96346 0.91974 0.0
C124 C 0.69241 0.99806 0.8746 0.0
O125 O 0.6764 0.01817 0.88275 0.0
C126 C 0.73982 0.03643 0.90574 0.0
C127 C 0.62349 0.98076 0.9235 0.0
C128 C 0.612 0.98046 0.93896 0.0
C129 C 0.58409 0.99485 0.94247 0.0
C130 C 0.56809 0.01001 0.93062 0.0
C131 C 0.57888 0.01023 0.91521 0.0
C132 C 0.60649 0.99551 0.91162 0.0
O133 O 0.77354 0.94378 0.89577 0.0
O134 O 0.73538 0.92966 0.91238 0.0
O135 O 0.83382 0.96777 0.90451 0.0
O136 O 0.82637 0.01603 0.907 0.0
C137 C 0.84681 0.99489 0.90434 0.0
O138 O 0.72019 0.02092 0.91428 0.0
O139 O 0.76234 0.02234 0.89852 0.0
O140 O 0.65882 0.95988 0.90486 0.0
O141 O 0.67566 0.96868 0.92867 0.0
H142 H 0.6242 0.96825 0.94811 0.0
H143 H 0.54625 0.02051 0.9333 0.0
H144 H 0.61429 0.99517 0.89959 0.0
O145 O 0.30119 0.51462 0.67247 0.0
Tb146 Tb 0.28506 0.51697 0.64844 0.0
Eu147 Eu 0.29388 0.4331 0.64484 0.0
C148 C 0.29644 0.48977 0.68104 0.0
O149 O 0.2821 0.46604 0.67483 0.0
C150 C 0.34358 0.48379 0.64023 0.0
O151 O 0.29655 0.43016 0.61841 0.0
C152 C 0.29909 0.37957 0.65852 0.0
C153 C 0.2846 0.45238 0.60979 0.0
O154 O 0.271 0.47572 0.61683 0.0
C155 C 0.22811 0.46979 0.64905 0.0
C156 C 0.28049 0.352 0.6623 0.0
C157 C 0.28164 0.33944 0.67751 0.0
C158 C 0.26649 0.31156 0.68093 0.0
C159 C 0.24979 0.29664 0.66915 0.0
C160 C 0.24791 0.30906 0.65398 0.0
C161 C 0.26317 0.33697 0.65068 0.0
O162 O 0.32224 0.50079 0.63389 0.0
O163 O 0.33591 0.4614 0.64981 0.0
O164 O 0.28995 0.56714 0.6517 0.0
O165 O 0.26498 0.55016 0.63214 0.0
C166 C 0.27441 0.57498 0.63935 0.0
O167 O 0.24385 0.44475 0.64537 0.0
O168 O 0.2401 0.49732 0.6518 0.0
O169 O 0.30581 0.38422 0.64368 0.0
O170 O 0.29261 0.40526 0.66616 0.0
H171 H 0.29525 0.35065 0.68648 0.0
H172 H 0.23918 0.27449 0.67175 0.0
H173 H 0.26218 0.34653 0.63896 0.0
O174 O 0.74746 0.0554 0.43015 0.0
Tb175 Tb 0.74531 0.05078 0.40477 0.0
Eu176 Eu 0.80045 0.05299 0.37615 0.0
C177 C 0.76762 0.04046 0.43871 0.0
O178 O 0.78799 0.02284 0.43178 0.0
C179 C 0.7644 0.11277 0.38743 0.0
O180 O 0.81246 0.04502 0.35088 0.0
C181 C 0.84907 0.05664 0.39343 0.0
C182 C 0.79032 0.03722 0.34131 0.0
O183 O 0.76253 0.03531 0.3469 0.0
C184 C 0.77199 0.99021 0.38902 0.0
C185 C 0.87617 0.03861 0.39863 0.0
C186 C 0.8789 0.02984 0.41449 0.0
C187 C 0.90515 0.0145 0.41987 0.0
C188 C 0.92861 0.00784 0.4093 0.0
C189 C 0.92709 0.01755 0.39372 0.0
C190 C 0.90087 0.03295 0.38837 0.0
O191 O 0.76068 0.09902 0.40113 0.0
O192 O 0.77242 0.09663 0.37504 0.0
O193 O 0.6976 0.04334 0.4108 0.0
O194 O 0.70917 0.04972 0.38689 0.0
C195 C 0.68686 0.04457 0.39663 0.0
O196 O 0.77927 0.0056 0.37634 0.0
O197 O 0.76663 0.00479 0.40234 0.0
O198 O 0.84806 0.06531 0.37867 0.0
O199 O 0.82225 0.04867 0.39907 0.0
H200 H 0.86098 0.03558 0.42272 0.0
H201 H 0.94941 0.99717 0.41354 0.0
H202 H 0.90014 0.04105 0.37637 0.0
O203 O 0.2146 0.48705 0.19374 0.0
Tb204 Tb 0.21263 0.48367 0.16825 0.0
Eu205 Eu 0.21166 0.54479 0.13989 0.0
C206 C 0.19082 0.48161 0.20272 0.0
O207 O 0.16472 0.47436 0.19617 0.0
C208 C 0.15343 0.50568 0.15047 0.0
O209 O 0.21989 0.55896 0.11484 0.0
C210 C 0.20974 0.59349 0.15794 0.0
C211 C 0.19715 0.55969 0.10484 0.0
O212 O 0.16949 0.55421 0.10997 0.0
C213 C 0.27145 0.51164 0.15228 0.0
C214 C 0.22795 0.62186 0.16119 0.0
C215 C 0.23228 0.63195 0.17679 0.0
C216 C 0.2486 0.65946 0.18001 0.0
C217 C 0.26052 0.67653 0.16748 0.0
C218 C 0.2553 0.66772 0.15193 0.0
C219 C 0.23918 0.64026 0.14879 0.0
O220 O 0.1658 0.49974 0.16424 0.0
O221 O 0.1696 0.51559 0.13858 0.0
O222 O 0.21463 0.43393 0.17333 0.0
O223 O 0.21786 0.44867 0.14966 0.0
C224 C 0.21783 0.4246 0.15892 0.0
O225 O 0.25665 0.52068 0.13976 0.0
O226 O 0.25744 0.50554 0.16559 0.0
O227 O 0.19651 0.59196 0.14414 0.0
O228 O 0.22094 0.56664 0.1626 0.0
H229 H 0.22268 0.61867 0.18636 0.0
H230 H 0.27218 0.69822 0.16982 0.0
H231 H 0.23493 0.63368 0.13673 0.0
O232 O 0.7373 0.55082 0.58835 0.0
Tb233 Tb 0.7223 0.54886 0.61265 0.0
Eu234 Eu 0.80253 0.55639 0.61561 0.0
C235 C 0.73325 0.52676 0.57902 0.0
O236 O 0.7218 0.50109 0.58487 0.0
C237 C 0.75376 0.61071 0.6198 0.0
O238 O 0.80721 0.55539 0.64208 0.0
C239 C 0.85618 0.56271 0.60324 0.0
C240 C 0.78572 0.54492 0.65141 0.0
O241 O 0.75994 0.53536 0.64538 0.0
C242 C 0.76527 0.49043 0.6156 0.0
C243 C 0.88386 0.54456 0.59945 0.0
C244 C 0.89481 0.54433 0.58393 0.0
C245 C 0.92239 0.52957 0.58031 0.0
C246 C 0.93846 0.51423 0.59209 0.0
C247 C 0.92813 0.51433 0.60757 0.0
C248 C 0.90091 0.52969 0.6113 0.0
O249 O 0.73433 0.59057 0.62548 0.0
O250 O 0.77685 0.60124 0.61125 0.0
O251 O 0.67592 0.55581 0.60367 0.0
O252 O 0.68228 0.53226 0.6252 0.0
C253 C 0.66219 0.54194 0.61521 0.0
O254 O 0.78962 0.50599 0.61115 0.0
O255 O 0.73976 0.50408 0.61971 0.0
O256 O 0.85034 0.56782 0.6181 0.0
O257 O 0.83164 0.5571 0.59488 0.0
H258 H 0.88259 0.55666 0.57483 0.0
H259 H 0.96001 0.50327 0.58926 0.0
H260 H 0.89343 0.5304 0.62339 0.0
O261 O 0.21964 0.13251 0.87163 0.0
Tb262 Tb 0.21993 0.08169 0.87395 0.0
Eu263 Eu 0.22629 0.00822 0.85607 0.0
C264 C 0.24418 0.14909 0.87476 0.0
O265 O 0.2692 0.13457 0.87882 0.0
C266 C 0.28135 0.049 0.86682 0.0
O267 O 0.23145 0.9555 0.85723 0.0
C268 C 0.23079 0.03073 0.82794 0.0
C269 C 0.22401 0.94016 0.87005 0.0
O270 O 0.21346 0.95599 0.88206 0.0
C271 C 0.16364 0.03962 0.86636 0.0
C272 C 0.21851 0.04172 0.81278 0.0
C273 C 0.22516 0.07237 0.80802 0.0
C274 C 0.21876 0.08212 0.7927 0.0
C275 C 0.20455 0.06153 0.78235 0.0
C276 C 0.1976 0.031 0.78681 0.0
C277 C 0.2048 0.02105 0.80204 0.0
O278 O 0.26498 0.07403 0.86377 0.0
O279 O 0.26834 0.02185 0.86916 0.0
O280 O 0.21338 0.09355 0.8986 0.0
O281 O 0.23066 0.04892 0.89274 0.0
C282 C 0.22312 0.06732 0.90419 0.0
O283 O 0.18006 0.01408 0.86686 0.0
O284 O 0.17622 0.06713 0.86403 0.0
O285 O 0.2313 1.00077 0.83098 0.0
O286 O 0.22729 0.04826 0.84042 0.0
H287 H 0.23715 0.08797 0.81587 0.0
H288 H 0.20048 0.0689 0.77038 0.0
H289 H 0.20063 0.99711 0.8053 0.0
O290 O 0.78292 0.45006 0.06652 0.0
Tb291 Tb 0.78376 0.45907 0.09173 0.0
Eu292 Eu 0.69797 0.4513 0.09424 0.0
C293 C 0.76015 0.45841 0.05744 0.0
O294 O 0.73586 0.47089 0.06377 0.0
C295 C 0.74775 0.40017 0.09878 0.0
O296 O 0.6965 0.45621 0.12064 0.0
C297 C 0.64302 0.44419 0.0833 0.0
C298 C 0.71941 0.46824 0.12853 0.0
O299 O 0.74401 0.47662 0.12094 0.0
C300 C 0.73687 0.51744 0.09106 0.0
C301 C 0.61345 0.46043 0.08088 0.0
C302 C 0.60347 0.46688 0.0655 0.0
C303 C 0.57482 0.48048 0.06282 0.0
C304 C 0.5561 0.48729 0.07564 0.0
C305 C 0.56513 0.48063 0.09101 0.0
C306 C 0.59386 0.46712 0.09359 0.0
O307 O 0.76445 0.42162 0.10545 0.0
O308 O 0.72563 0.40819 0.08931 0.0
O309 O 0.83233 0.4474 0.08978 0.0
O310 O 0.81832 0.47852 0.10755 0.0
C311 C 0.84162 0.46441 0.10144 0.0
O312 O 0.71134 0.50128 0.09036 0.0
O313 O 0.76452 0.5056 0.09227 0.0
O314 O 0.65093 0.43724 0.09772 0.0
O315 O 0.66623 0.45259 0.07454 0.0
H316 H 0.61782 0.46102 0.0556 0.0
H317 H 0.53346 0.49641 0.07355 0.0
H318 H 0.60069 0.46157 0.10545 0.0
O319 O 0.3043 0.01823 0.34067 0.0
Tb320 Tb 0.30456 0.03424 0.36479 0.0
Eu321 Eu 0.30709 0.95489 0.36161 0.0
C322 C 0.32812 0.02331 0.33171 0.0
O323 O 0.35211 0.03697 0.3378 0.0
C324 C 0.3649 0.99955 0.36911 0.0
O325 O 0.29926 0.944 0.38735 0.0
C326 C 0.3079 0.90434 0.34491 0.0
C327 C 0.29761 0.96633 0.3979 0.0
O328 O 0.30135 0.99518 0.39342 0.0
C329 C 0.24543 0.99559 0.36548 0.0
C330 C 0.28674 0.87895 0.34053 0.0
C331 C 0.28486 0.86869 0.32484 0.0
C332 C 0.26628 0.84318 0.32083 0.0
C333 C 0.25041 0.82772 0.33272 0.0
C334 C 0.25229 0.83728 0.3484 0.0
C335 C 0.26993 0.86341 0.35215 0.0
O336 O 0.34667 0.01992 0.37562 0.0
O337 O 0.35412 0.97717 0.3601 0.0
O338 O 0.31 0.08107 0.3551 0.0
O339 O 0.29411 0.07573 0.37843 0.0
C340 C 0.30096 0.09569 0.36761 0.0
O341 O 0.25929 0.97349 0.35754 0.0
O342 O 0.26081 0.01751 0.37262 0.0
O343 O 0.31645 0.90558 0.35966 0.0
O344 O 0.30258 0.93189 0.33887 0.0
H345 H 0.29802 0.8803 0.31585 0.0
H346 H 0.2382 0.8066 0.32982 0.0
H347 H 0.27149 0.87086 0.36426 0.0
O348 O 0.29224 0.47994 0.43297 0.0
Tb349 Tb 0.30488 0.4847 0.40843 0.0
Eu350 Eu 0.22311 0.47017 0.40694 0.0
C351 C 0.30151 0.45558 0.44096 0.0
O352 O 0.31687 0.43378 0.43363 0.0
C353 C 0.27583 0.42079 0.40153 0.0
O354 O 0.21382 0.4746 0.3808 0.0
C355 C 0.1717 0.46307 0.4215 0.0
C356 C 0.23575 0.47543 0.37028 0.0
O357 O 0.26408 0.47395 0.37498 0.0
C358 C 0.25627 0.53395 0.40149 0.0
C359 C 0.14321 0.48044 0.42439 0.0
C360 C 0.13132 0.48175 0.43971 0.0
C361 C 0.10328 0.4963 0.44257 0.0
C362 C 0.0878 0.51045 0.43022 0.0
C363 C 0.09911 0.50925 0.41494 0.0
C364 C 0.12676 0.49407 0.41196 0.0
O365 O 0.29511 0.44159 0.39625 0.0
O366 O 0.25343 0.42862 0.41094 0.0
O367 O 0.35191 0.47016 0.40396 0.0
O368 O 0.34319 0.51742 0.40907 0.0
C369 C 0.36427 0.49738 0.40563 0.0
O370 O 0.23791 0.51951 0.41113 0.0
O371 O 0.28005 0.51986 0.39548 0.0
O372 O 0.17658 0.4533 0.40713 0.0
O373 O 0.19639 0.47348 0.42844 0.0
H374 H 0.14323 0.47048 0.44926 0.0
H375 H 0.06598 0.52139 0.43242 0.0
H376 H 0.13508 0.49256 0.40004 0.0
O377 O 0.81601 0.0087 0.16612 0.0
Tb378 Tb 0.81015 0.01881 0.14142 0.0
Eu379 Eu 0.813 0.93801 0.14515 0.0
C380 C 0.79326 0.0121 0.17596 0.0
O381 O 0.76672 0.02134 0.17066 0.0
C382 C 0.86965 0.98273 0.13833 0.0
O383 O 0.8068 0.93078 0.11889 0.0
C384 C 0.81619 0.88534 0.16004 0.0
C385 C 0.80201 0.95454 0.10948 0.0
O386 O 0.8017 0.98258 0.11542 0.0
C387 C 0.75024 0.97855 0.14354 0.0
C388 C 0.79694 0.85813 0.16411 0.0
C389 C 0.79252 0.84968 0.17995 0.0
C390 C 0.77507 0.82328 0.18383 0.0
C391 C 0.76261 0.80526 0.17173 0.0
C392 C 0.7675 0.81276 0.15599 0.0
C393 C 0.78442 0.83932 0.15223 0.0
O394 O 0.85149 1.00142 0.13063 0.0
O395 O 0.85832 0.96283 0.14847 0.0
O396 O 0.81431 0.06783 0.14821 0.0
O397 O 0.80102 0.05637 0.12498 0.0
C398 C 0.80639 0.07904 0.13465 0.0
O399 O 0.76482 0.95479 0.14973 0.0
O400 O 0.76429 1.00227 0.13713 0.0
O401 O 0.82379 0.88878 0.14524 0.0
O402 O 0.8099 0.91183 0.16701 0.0
H403 H 0.8027 0.86347 0.18921 0.0
H404 H 0.75045 0.78409 0.17461 0.0
H405 H 0.78821 0.84489 0.14001 0.0
O406 O 0.22728 0.54558 0.92902 0.0
Tb407 Tb 0.2316 0.54568 0.90367 0.0
Eu408 Eu 0.2954 0.54516 0.87776 0.0
C409 C 0.25033 0.55148 0.93837 0.0
O410 O 0.27728 0.55688 0.93231 0.0
C411 C 0.25782 0.60557 0.88763 0.0
O412 O 0.30818 0.53758 0.85249 0.0
C413 C 0.34459 0.55031 0.89461 0.0
C414 C 0.31872 0.51086 0.84732 0.0
O415 O 0.32327 0.48803 0.85723 0.0
C416 C 0.2618 0.48352 0.89072 0.0
C417 C 0.37342 0.53428 0.899 0.0
C418 C 0.3812 0.5312 0.91499 0.0
C419 C 0.41007 0.51999 0.91935 0.0
C420 C 0.43063 0.51083 0.90774 0.0
C421 C 0.42366 0.51393 0.89186 0.0
C422 C 0.3951 0.5258 0.88747 0.0
O423 O 0.25155 0.59217 0.90111 0.0
O424 O 0.26758 0.58905 0.8757 0.0
O425 O 0.18257 0.54979 0.90702 0.0
O426 O 0.19903 0.53931 0.88426 0.0
C427 C 0.17462 0.54396 0.89267 0.0
O428 O 0.27428 0.49755 0.87864 0.0
O429 O 0.25121 0.49879 0.903 0.0
O430 O 0.34222 0.56007 0.88009 0.0
O431 O 0.31867 0.53999 0.90039 0.0
H432 H 0.36553 0.53902 0.92397 0.0
H433 H 0.45309 0.50278 0.91115 0.0
H434 H 0.39021 0.52914 0.87515 0.0
O435 O 0.70038 0.98977 0.69623 0.0
Tb436 Tb 0.69914 0.99093 0.67061 0.0
Eu437 Eu 0.70216 0.04351 0.63947 0.0
C438 C 0.6884 0.01205 0.70487 0.0
O439 O 0.67499 0.03551 0.69787 0.0
C440 C 0.64232 0.0096 0.65044 0.0
O441 O 0.71235 0.0511 0.61387 0.0
C442 C 0.69509 0.09591 0.65421 0.0
C443 C 0.72518 0.02867 0.60571 0.0
O444 O 0.73176 1.0024 0.61275 0.0
C445 C 0.7607 0.01719 0.65705 0.0
C446 C 0.71142 0.12462 0.659 0.0
C447 C 0.71168 0.13325 0.67496 0.0
C448 C 0.72387 0.16199 0.6796 0.0
C449 C 0.73683 0.18154 0.66839 0.0
C450 C 0.73653 0.1737 0.6525 0.0
C451 C 0.72364 0.1453 0.64777 0.0
O452 O 0.65355 0.00885 0.66479 0.0
O453 O 0.6602 0.01404 0.63835 0.0
O454 O 0.69313 0.94067 0.67265 0.0
O455 O 0.7137 0.95879 0.65207 0.0
C456 C 0.70523 0.93353 0.65922 0.0
O457 O 0.74817 0.02293 0.64342 0.0
O458 O 0.74434 0.01276 0.66985 0.0
O459 O 0.68945 0.09216 0.63919 0.0
O460 O 0.70199 0.06981 0.66142 0.0
H461 H 0.70106 0.1184 0.68362 0.0
H462 H 0.74567 0.20401 0.67198 0.0
H463 H 0.72249 0.13984 0.63539 0.0
H464 H 0.22067 0.40077 0.12914 0.0
H465 H 0.22893 0.34635 0.12146 0.0
H466 H 0.23331 0.32019 0.17013 0.0
H467 H 0.22491 0.37433 0.17782 0.0
H468 H 0.28006 0.29484 0.15282 0.0
H469 H 0.1709 0.30441 0.14905 0.0
H470 H 0.12307 0.32763 0.13956 0.0
H471 H 0.14819 0.30645 0.09214 0.0
H472 H 0.19641 0.28348 0.10134 0.0
H473 H 0.26905 0.13199 0.14989 0.0
H474 H 0.26023 0.18711 0.15464 0.0
H475 H 0.24723 0.20187 0.10516 0.0
H476 H 0.25533 0.14632 0.10032 0.0
H477 H 0.2065 0.23435 0.12095 0.0
H478 H 0.31416 0.22329 0.124 0.0
H479 H 0.36292 0.20092 0.13272 0.0
H480 H 0.34249 0.22616 0.18024 0.0
H481 H 0.29339 0.24831 0.17184 0.0
C482 C 0.22327 0.38335 0.13817 0.0
C483 C 0.22209 0.39178 0.15407 0.0
C484 C 0.22792 0.35226 0.13378 0.0
C485 C 0.23163 0.32909 0.14522 0.0
C486 C 0.23055 0.3376 0.16109 0.0
C487 C 0.22564 0.36855 0.16547 0.0
C488 C 0.2371 0.29603 0.14077 0.0
C489 C 0.26382 0.28152 0.14599 0.0
C490 C 0.21644 0.27888 0.13141 0.0
C491 C 0.18741 0.29254 0.12587 0.0
C492 C 0.16634 0.30494 0.13659 0.0
C493 C 0.13914 0.31801 0.13126 0.0
C494 C 0.13264 0.3186 0.11525 0.0
C495 C 0.15329 0.30603 0.10453 0.0
C496 C 0.18054 0.29296 0.1098 0.0
C497 C 0.26437 0.14687 0.13998 0.0
C498 C 0.26315 0.13462 0.1247 0.0
C499 C 0.25944 0.17854 0.14272 0.0
C500 C 0.25359 0.19895 0.13025 0.0
C501 C 0.25182 0.18672 0.11499 0.0
C502 C 0.25655 0.15492 0.11224 0.0
C503 C 0.24931 0.23292 0.13323 0.0
C504 C 0.22287 0.24765 0.1277 0.0
C505 C 0.2704 0.25043 0.14219 0.0
C506 C 0.29996 0.23722 0.1473 0.0
C507 C 0.31996 0.22387 0.13633 0.0
C508 C 0.34768 0.21126 0.14121 0.0
C509 C 0.35577 0.21205 0.15703 0.0
C510 C 0.33618 0.22553 0.16799 0.0
C511 C 0.30841 0.23815 0.16317 0.0
H512 H 0.37724 0.20228 0.16079 0.0
H513 H 0.11157 0.32874 0.11115 0.0
H514 H 0.39172 0.55432 0.40633 0.0
H515 H 0.44522 0.56638 0.40089 0.0
H516 H 0.46341 0.46898 0.39339 0.0
H517 H 0.41004 0.45685 0.39891 0.0
H518 H 0.50735 0.49591 0.41104 0.0
H519 H 0.45537 0.51838 0.36268 0.0
H520 H 0.4168 0.54379 0.34611 0.0
H521 H 0.45229 0.63337 0.35873 0.0
H522 H 0.49084 0.60847 0.37556 0.0
H523 H 0.64597 0.49695 0.37091 0.0
H524 H 0.59216 0.49198 0.37708 0.0
H525 H 0.58583 0.59105 0.38391 0.0
H526 H 0.64006 0.59641 0.3776 0.0
H527 H 0.5361 0.56747 0.36801 0.0
H528 H 0.59001 0.54505 0.41515 0.0
H529 H 0.6289 0.5197 0.43153 0.0
H530 H 0.58982 0.43044 0.42143 0.0
H531 H 0.55095 0.45522 0.40477 0.0
C532 C 0.4072 0.5355 0.40359 0.0
C533 C 0.39676 0.50465 0.40301 0.0
C534 C 0.43771 0.54242 0.4004 0.0
C535 C 0.45831 0.51862 0.39657 0.0
C536 C 0.44797 0.48773 0.39631 0.0
C537 C 0.41747 0.48083 0.39943 0.0
C538 C 0.49062 0.52574 0.39276 0.0
C539 C 0.51361 0.51132 0.40153 0.0
C540 C 0.49886 0.54659 0.38065 0.0
C541 C 0.47576 0.56158 0.37052 0.0
C542 C 0.45479 0.5435 0.36203 0.0
C543 C 0.43296 0.55781 0.35257 0.0
C544 C 0.43204 0.59018 0.3514 0.0
C545 C 0.453 0.6083 0.35967 0.0
C546 C 0.47485 0.5941 0.36916 0.0
C547 C 0.63325 0.51783 0.37361 0.0
C548 C 0.64754 0.54711 0.37386 0.0
C549 C 0.6024 0.51488 0.3772 0.0
C550 C 0.58505 0.54105 0.38123 0.0
C551 C 0.59883 0.5705 0.38092 0.0
C552 C 0.62984 0.57351 0.37731 0.0
C553 C 0.55277 0.53721 0.38612 0.0
C554 C 0.52982 0.55226 0.37759 0.0
C555 C 0.54451 0.51699 0.39849 0.0
C556 C 0.5677 0.50199 0.40861 0.0
C557 C 0.58983 0.51999 0.41633 0.0
C558 C 0.61186 0.50573 0.42568 0.0
C559 C 0.61187 0.47347 0.4275 0.0
C560 C 0.5898 0.45542 0.42 0.0
C561 C 0.56774 0.46957 0.41061 0.0
H562 H 0.62895 0.46247 0.43474 0.0
H563 H 0.41513 0.60121 0.34407 0.0
H564 H 0.20192 0.84727 0.58415 0.0
H565 H 0.2073 0.79143 0.58905 0.0
H566 H 0.2813 0.8099 0.62092 0.0
H567 H 0.27659 0.86523 0.61591 0.0
H568 H 0.29461 0.76184 0.60311 0.0
H569 H 0.209 0.79497 0.63402 0.0
H570 H 0.1588 0.81893 0.63853 0.0
H571 H 0.11735 0.75209 0.60781 0.0
H572 H 0.16743 0.728 0.60294 0.0
H573 H 0.29916 0.62814 0.65104 0.0
H574 H 0.29078 0.68133 0.64181 0.0
H575 H 0.22824 0.64728 0.60684 0.0
H576 H 0.23677 0.59394 0.61594 0.0
H577 H 0.20746 0.70096 0.62362 0.0
H578 H 0.29494 0.66557 0.59489 0.0
H579 H 0.34575 0.64196 0.59208 0.0
H580 H 0.38432 0.71404 0.6207 0.0
H581 H 0.33364 0.73784 0.62387 0.0
C582 C 0.21946 0.83939 0.59212 0.0
C583 C 0.23872 0.86077 0.59969 0.0
C584 C 0.22241 0.8075 0.59496 0.0
C585 C 0.2445 0.79653 0.60549 0.0
C586 C 0.26412 0.8178 0.61274 0.0
C587 C 0.26129 0.84953 0.60989 0.0
C588 C 0.24709 0.76302 0.6093 0.0
C589 C 0.27557 0.74861 0.60767 0.0
C590 C 0.22214 0.74558 0.61501 0.0
C591 C 0.192 0.75993 0.61797 0.0
C592 C 0.18922 0.78554 0.62813 0.0
C593 C 0.16078 0.79912 0.63076 0.0
C594 C 0.13491 0.7871 0.62342 0.0
C595 C 0.13742 0.76141 0.61346 0.0
C596 C 0.16582 0.74779 0.61076 0.0
C597 C 0.28359 0.63204 0.64141 0.0
C598 C 0.26871 0.60704 0.63413 0.0
C599 C 0.27885 0.66235 0.63614 0.0
C600 C 0.25905 0.66812 0.62358 0.0
C601 C 0.24361 0.64324 0.61654 0.0
C602 C 0.24859 0.61286 0.6217 0.0
C603 C 0.25503 0.70013 0.61765 0.0
C604 C 0.22634 0.71417 0.61888 0.0
C605 C 0.27986 0.7174 0.61176 0.0
C606 C 0.31044 0.70334 0.60972 0.0
C607 C 0.31421 0.67626 0.60068 0.0
C608 C 0.343 0.66286 0.59901 0.0
C609 C 0.36824 0.67645 0.60623 0.0
C610 C 0.36475 0.70353 0.61511 0.0
C611 C 0.336 0.717 0.61684 0.0
H612 H 0.39051 0.66604 0.60493 0.0
H613 H 0.11291 0.79763 0.62548 0.0
H614 H 0.15253 0.51916 0.86519 0.0
H615 H 0.09897 0.5114 0.85794 0.0
H616 H 0.07103 0.55561 0.90101 0.0
H617 H 0.12422 0.56224 0.90846 0.0
H618 H 0.03868 0.50702 0.89741 0.0
H619 H 0.06585 0.59104 0.86326 0.0
H620 H 0.09578 0.61791 0.84296 0.0
H621 H 0.07343 0.54635 0.80979 0.0
H622 H 0.04367 0.51883 0.82997 0.0
H623 H 0.88378 0.53872 0.88051 0.0
H624 H 0.93846 0.54447 0.88492 0.0
H625 H 0.95674 0.48345 0.84596 0.0
H626 H 0.9019 0.47737 0.84151 0.0
H627 H 0.99401 0.5374 0.84635 0.0
H628 H 0.96416 0.45542 0.8813 0.0
H629 H 0.93284 0.4314 0.90195 0.0
H630 H 0.95938 0.50311 0.9342 0.0
H631 H 0.99052 0.52784 0.91366 0.0
C632 C 0.13489 0.52742 0.87301 0.0
C633 C 0.14256 0.54131 0.88738 0.0
C634 C 0.10423 0.52309 0.86885 0.0
C635 C 0.08068 0.53309 0.87886 0.0
C636 C 0.08856 0.54749 0.89308 0.0
C637 C 0.11905 0.55142 0.89731 0.0
C638 C 0.04785 0.52783 0.87495 0.0
C639 C 0.02897 0.51406 0.88629 0.0
C640 C 0.03497 0.53622 0.86032 0.0
C641 C 0.05283 0.5527 0.84817 0.0
C642 C 0.06752 0.58091 0.85167 0.0
C643 C 0.08441 0.59628 0.84019 0.0
C644 C 0.08658 0.5838 0.82511 0.0
C645 C 0.07178 0.55596 0.82148 0.0
C646 C 0.05488 0.54048 0.83294 0.0
C647 C 0.89937 0.52649 0.87286 0.0
C648 C 0.88837 0.50746 0.86069 0.0
C649 C 0.93067 0.52978 0.87541 0.0
C650 C 0.95177 0.51426 0.86583 0.0
C651 C 0.94092 0.49565 0.8535 0.0
C652 C 0.90954 0.49208 0.85103 0.0
C653 C 0.98506 0.51717 0.86891 0.0
C654 C 1.00392 0.53035 0.85742 0.0
C655 C 0.9979 0.50864 0.88348 0.0
C656 C 0.97946 0.49362 0.8959 0.0
C657 C 0.96314 0.4662 0.89276 0.0
C658 C 0.94545 0.45243 0.90445 0.0
C659 C 0.94407 0.46576 0.91936 0.0
C660 C 0.96045 0.49283 0.92263 0.0
C661 C 0.97815 0.50671 0.91098 0.0
H662 H 0.93034 0.45508 0.92839 0.0
H663 H 0.09966 0.59573 0.81623 0.0
H664 H 0.81594 0.65096 0.84466 0.0
H665 H 0.81069 0.70589 0.85191 0.0
H666 H 0.76306 0.6795 0.89399 0.0
H667 H 0.76842 0.62461 0.88685 0.0
H668 H 0.73409 0.72667 0.87718 0.0
H669 H 0.83403 0.70262 0.89689 0.0
H670 H 0.8867 0.68328 0.895 0.0
H671 H 0.90661 0.75164 0.85991 0.0
H672 H 0.8539 0.7711 0.86142 0.0
H673 H 0.73293 0.87089 0.91661 0.0
H674 H 0.74068 0.81646 0.90957 0.0
H675 H 0.79872 0.84421 0.87132 0.0
H676 H 0.79177 0.89872 0.87858 0.0
H677 H 0.82262 0.79624 0.88565 0.0
H678 H 0.72416 0.82065 0.86534 0.0
H679 H 0.67147 0.84021 0.86612 0.0
H680 H 0.64842 0.77171 0.90063 0.0
H681 H 0.70112 0.75201 0.90022 0.0
C682 C 0.80448 0.65694 0.85548 0.0
C683 C 0.79261 0.63365 0.86522 0.0
C684 C 0.80156 0.68824 0.85962 0.0
C685 C 0.78661 0.69669 0.87352 0.0
C686 C 0.77467 0.67343 0.88322 0.0
C687 C 0.77783 0.64214 0.87916 0.0
C688 C 0.78294 0.72983 0.87784 0.0
C689 C 0.75341 0.74184 0.87924 0.0
C690 C 0.8082 0.74971 0.88004 0.0
C691 C 0.83993 0.7381 0.87915 0.0
C692 C 0.84956 0.71335 0.88867 0.0
C693 C 0.87944 0.7024 0.88769 0.0
C694 C 0.89997 0.71616 0.87731 0.0
C695 C 0.89067 0.74097 0.86792 0.0
C696 C 0.86081 0.75198 0.86885 0.0
C697 C 0.74734 0.86544 0.90669 0.0
C698 C 0.76159 0.88914 0.8981 0.0
C699 C 0.75166 0.83429 0.90264 0.0
C700 C 0.76988 0.82624 0.88974 0.0
C701 C 0.78451 0.84986 0.88129 0.0
C702 C 0.78045 0.88101 0.88544 0.0
C703 C 0.77369 0.79319 0.88509 0.0
C704 C 0.80324 0.78116 0.88359 0.0
C705 C 0.74843 0.77334 0.88262 0.0
C706 C 0.71667 0.78505 0.88286 0.0
C707 C 0.70792 0.80991 0.87318 0.0
C708 C 0.67804 0.821 0.87354 0.0
C709 C 0.65663 0.80727 0.88345 0.0
C710 C 0.66504 0.78235 0.89298 0.0
C711 C 0.69491 0.7712 0.89268 0.0
H712 H 0.63351 0.81589 0.88371 0.0
H713 H 0.92309 0.70766 0.87657 0.0
H714 H 0.36692 0.52555 0.61931 0.0
H715 H 0.42049 0.53721 0.61426 0.0
H716 H 0.44715 0.46928 0.64868 0.0
H717 H 0.39365 0.45752 0.65386 0.0
H718 H 0.47793 0.52477 0.65194 0.0
H719 H 0.45279 0.45287 0.61033 0.0
H720 H 0.42272 0.43448 0.58777 0.0
H721 H 0.44516 0.51742 0.56241 0.0
H722 H 0.47503 0.53652 0.58492 0.0
H723 H 0.63342 0.50631 0.63671 0.0
H724 H 0.57884 0.49848 0.63997 0.0
H725 H 0.56139 0.55987 0.60109 0.0
H726 H 0.61642 0.56692 0.59745 0.0
H727 H 0.52477 0.51171 0.59947 0.0
H728 H 0.55107 0.5835 0.63977 0.0
H729 H 0.58006 0.60423 0.66219 0.0
H730 H 0.55426 0.52529 0.68985 0.0
H731 H 0.52545 0.50385 0.66751 0.0
C732 C 0.38417 0.51303 0.6258 0.0
C733 C 0.37601 0.49055 0.63698 0.0
C734 C 0.41478 0.51967 0.62285 0.0
C735 C 0.43781 0.50396 0.63102 0.0
C736 C 0.42973 0.48166 0.64225 0.0
C737 C 0.39914 0.47489 0.64515 0.0
C738 C 0.47035 0.51097 0.62802 0.0
C739 C 0.48829 0.52158 0.64052 0.0
C740 C 0.48354 0.5079 0.61298 0.0
C741 C 0.46589 0.49626 0.59937 0.0
C742 C 0.45113 0.46729 0.59999 0.0
C743 C 0.43415 0.45672 0.5872 0.0
C744 C 0.43196 0.47481 0.57368 0.0
C745 C 0.44684 0.50346 0.5729 0.0
C746 C 0.46381 0.51416 0.58566 0.0
C747 C 0.61795 0.51816 0.62885 0.0
C748 C 0.62908 0.53739 0.6169 0.0
C749 C 0.58673 0.5138 0.63078 0.0
C750 C 0.56589 0.52909 0.621 0.0
C751 C 0.577 0.54796 0.60884 0.0
C752 C 0.60838 0.55204 0.60679 0.0
C753 C 0.53261 0.52504 0.62348 0.0
C754 C 0.51447 0.51508 0.61089 0.0
C755 C 0.51909 0.52907 0.63842 0.0
C756 C 0.5363 0.54195 0.65191 0.0
C757 C 0.55175 0.57045 0.6506 0.0
C758 C 0.56813 0.58234 0.6633 0.0
C759 C 0.56906 0.56605 0.67742 0.0
C760 C 0.55354 0.53787 0.67889 0.0
C761 C 0.53716 0.52585 0.66622 0.0
H762 H 0.58175 0.5753 0.68724 0.0
H763 H 0.41878 0.4666 0.56379 0.0
H764 H 0.74815 0.15575 0.41005 0.0
H765 H 0.74357 0.21226 0.4072 0.0
H766 H 0.76832 0.20472 0.3585 0.0
H767 H 0.77326 0.14855 0.36128 0.0
H768 H 0.79758 0.25221 0.37123 0.0
H769 H 0.69381 0.21787 0.37046 0.0
H770 H 0.64839 0.19059 0.38035 0.0
H771 H 0.64964 0.2468 0.42194 0.0
H772 H 0.69535 0.27414 0.41239 0.0
H773 H 0.75568 0.40712 0.34915 0.0
H774 H 0.75899 0.35029 0.35116 0.0
H775 H 0.73332 0.35561 0.39982 0.0
H776 H 0.72957 0.41198 0.39783 0.0
H777 H 0.70413 0.30905 0.38667 0.0
H778 H 0.80833 0.34269 0.38772 0.0
H779 H 0.85397 0.3698 0.37798 0.0
H780 H 0.85199 0.31483 0.33597 0.0
H781 H 0.80608 0.28766 0.34538 0.0
C782 C 0.75257 0.16608 0.39871 0.0
C783 C 0.76103 0.14731 0.3859 0.0
C784 C 0.74982 0.1985 0.39708 0.0
C785 C 0.75531 0.21304 0.38257 0.0
C786 C 0.76395 0.19433 0.36983 0.0
C787 C 0.76666 0.162 0.37143 0.0
C788 C 0.75235 0.24763 0.38064 0.0
C789 C 0.77695 0.26452 0.37442 0.0
C790 C 0.72575 0.26412 0.38504 0.0
C791 C 0.69819 0.24783 0.39078 0.0
C792 C 0.68454 0.22425 0.38177 0.0
C793 C 0.65872 0.20881 0.3873 0.0
C794 C 0.64619 0.2169 0.40178 0.0
C795 C 0.6594 0.24053 0.41074 0.0
C796 C 0.68525 0.25602 0.40527 0.0
C797 C 0.75072 0.39618 0.36027 0.0
C798 C 0.74245 0.41435 0.37332 0.0
C799 C 0.75275 0.3636 0.36144 0.0
C800 C 0.74672 0.34836 0.37571 0.0
C801 C 0.7381 0.36652 0.38866 0.0
C802 C 0.73606 0.39895 0.38751 0.0
C803 C 0.7494 0.31366 0.3773 0.0
C804 C 0.72475 0.29674 0.38345 0.0
C805 C 0.77596 0.29714 0.37285 0.0
C806 C 0.80359 0.31338 0.36718 0.0
C807 C 0.81749 0.33655 0.37635 0.0
C808 C 0.84343 0.3519 0.3709 0.0
C809 C 0.85582 0.34411 0.35635 0.0
C810 C 0.84234 0.32088 0.34723 0.0
C811 C 0.81637 0.30549 0.35262 0.0
H812 H 0.87591 0.35602 0.35215 0.0
H813 H 0.62619 0.20491 0.40604 0.0
H814 H 0.89085 0.43026 0.09214 0.0
H815 H 0.94319 0.43371 0.10186 0.0
H816 H 0.91678 0.50842 0.13278 0.0
H817 H 0.86428 0.50416 0.12349 0.0
H818 H 0.98455 0.47478 0.10064 0.0
H819 H 0.96003 0.51108 0.16517 0.0
H820 H 0.92113 0.50196 0.18547 0.0
H821 H 0.89609 0.41609 0.16327 0.0
H822 H 0.9351 0.42447 0.14297 0.0
H823 H 0.11726 0.53907 0.13107 0.0
H824 H 0.06424 0.52974 0.12429 0.0
H825 H 0.06158 0.45242 0.15635 0.0
H826 H 0.11474 0.46275 0.16376 0.0
H827 H 0.00938 0.48006 0.15726 0.0
H828 H 0.0706 0.44259 0.1154 0.0
H829 H 0.11079 0.44463 0.09527 0.0
H830 H 0.06414 0.51925 0.07219 0.0
H831 H 0.02384 0.51794 0.09229 0.0
C832 C 0.89623 0.44732 0.10106 0.0
C833 C 0.87345 0.46685 0.1071 0.0
C834 C 0.9262 0.44934 0.1066 0.0
C835 C 0.93411 0.47104 0.11826 0.0
C836 C 0.91134 0.49093 0.12409 0.0
C837 C 0.88131 0.48865 0.11868 0.0
C838 C 0.96622 0.4734 0.12403 0.0
C839 C 0.98988 0.47586 0.11303 0.0
C840 C 0.97362 0.47398 0.1402 0.0
C841 C 0.95031 0.46858 0.15247 0.0
C842 C 0.94631 0.4902 0.16466 0.0
C843 C 0.92423 0.48516 0.17616 0.0
C844 C 0.90609 0.45851 0.17564 0.0
C845 C 0.91008 0.43678 0.16364 0.0
C846 C 0.93214 0.44168 0.15212 0.0
C847 C 0.10535 0.52021 0.1368 0.0
C848 C 0.1203 0.50144 0.14785 0.0
C849 C 0.075 0.51475 0.13282 0.0
C850 C 0.05897 0.48974 0.1394 0.0
C851 C 0.07343 0.47171 0.15097 0.0
C852 C 0.1038 0.47762 0.15523 0.0
C853 C 0.02748 0.4823 0.13386 0.0
C854 C 1.00399 0.47886 0.14488 0.0
C855 C 0.02034 0.47974 0.1177 0.0
C856 C 0.04429 0.4803 0.10543 0.0
C857 C 0.06898 0.45953 0.10607 0.0
C858 C 0.09178 0.46055 0.09467 0.0
C859 C 0.09005 0.4821 0.08248 0.0
C860 C 0.06545 0.50259 0.08165 0.0
C861 C 0.0426 0.50168 0.09303 0.0
H862 H 0.10775 0.48289 0.07368 0.0
H863 H 0.88899 0.45468 0.18454 0.0
H864 H 0.75201 0.91138 0.64138 0.0
H865 H 0.76163 0.85732 0.6339 0.0
H866 H 0.67729 0.82995 0.6559 0.0
H867 H 0.66926 0.88349 0.66454 0.0
H868 H 0.71419 0.78987 0.66285 0.0
H869 H 0.69191 0.8357 0.61272 0.0
H870 H 0.69813 0.87373 0.59138 0.0
H871 H 0.79113 0.84555 0.58545 0.0
H872 H 0.78552 0.80753 0.60685 0.0
H873 H 0.70226 0.63929 0.63058 0.0
H874 H 0.69418 0.69458 0.63548 0.0
H875 H 0.78588 0.71405 0.62045 0.0
H876 H 0.79379 0.65871 0.61499 0.0
H877 H 0.74749 0.75777 0.60976 0.0
H878 H 0.76469 0.70782 0.65991 0.0
H879 H 0.75327 0.66843 0.67999 0.0
H880 H 0.6628 0.7048 0.68492 0.0
H881 H 0.6734 0.74385 0.66455 0.0
C882 C 0.73551 0.89374 0.6445 0.0
C883 C 0.70984 0.90149 0.65348 0.0
C884 C 0.74086 0.86281 0.64011 0.0
C885 C 0.71994 0.83923 0.64402 0.0
C886 C 0.69396 0.84739 0.65274 0.0
C887 C 0.68922 0.87805 0.65762 0.0
C888 C 0.72545 0.80594 0.63966 0.0
C889 C 0.72099 0.78301 0.65114 0.0
C890 C 0.7351 0.79654 0.62451 0.0
C891 C 0.73835 0.81895 0.61145 0.0
C892 C 0.71371 0.8377 0.60689 0.0
C893 C 0.71712 0.85924 0.59479 0.0
C894 C 0.74503 0.8621 0.58709 0.0
C895 C 0.76954 0.84332 0.59143 0.0
C896 C 0.76624 0.82173 0.60352 0.0
C897 C 0.72074 0.65529 0.62829 0.0
C898 C 0.7488 0.64447 0.62253 0.0
C899 C 0.71609 0.68697 0.63113 0.0
C900 C 0.73961 0.70856 0.62864 0.0
C901 C 0.76741 0.69791 0.62253 0.0
C902 C 0.77194 0.66622 0.61947 0.0
C903 C 0.73547 0.74199 0.63286 0.0
C904 C 0.7405 0.76485 0.62142 0.0
C905 C 0.72562 0.75134 0.64794 0.0
C906 C 0.71978 0.7286 0.66062 0.0
C907 C 0.74233 0.70734 0.66524 0.0
C908 C 0.73598 0.68504 0.67666 0.0
C909 C 0.7073 0.68411 0.68371 0.0
C910 C 0.68498 0.70554 0.67942 0.0
C911 C 0.69114 0.72773 0.66794 0.0
H912 H 0.7023 0.66683 0.69252 0.0
H913 H 0.74764 0.87883 0.57774 0.0
H914 H 0.12158 0.08665 0.86958 0.0
H915 H 0.06712 0.08153 0.87521 0.0
H916 H 0.07575 0.98172 0.87457 0.0
H917 H 0.12982 0.98655 0.8688 0.0
H918 H 0.0252 0.99958 0.85946 0.0
H919 H 0.07308 0.02229 0.90899 0.0
H920 H 0.10469 0.05305 0.92716 0.0
H921 H 0.04504 0.13123 0.92151 0.0
H922 H 0.01331 0.10105 0.90312 0.0
H923 H 0.89138 0.95227 0.89858 0.0
H924 H 0.94451 0.96221 0.89157 0.0
H925 H 0.92842 0.06093 0.8946 0.0
H926 H 0.87536 0.05101 0.9019 0.0
H927 H 0.98184 0.04685 0.90756 0.0
H928 H 0.93258 0.02363 0.85897 0.0
H929 H 0.90108 0.99315 0.84064 0.0
H930 H 0.96318 0.91649 0.84423 0.0
H931 H 0.99486 0.94637 0.86276 0.0
C932 C 0.11185 0.06361 0.87051 0.0
C933 C 0.13021 0.03703 0.86879 0.0
C934 C 0.08072 0.06072 0.87382 0.0
C935 C 0.06735 0.03122 0.8755 0.0
C936 C 0.08548 0.00472 0.87335 0.0
C937 C 0.11651 0.00757 0.87009 0.0
C938 C 0.03465 0.02766 0.87978 0.0
C939 C 0.0158 0.00969 0.87006 0.0
C940 C 0.02211 0.04145 0.8934 0.0
C941 C 0.04102 0.05953 0.90455 0.0
C942 C 0.06684 0.04612 0.91153 0.0
C943 C 0.08475 0.06343 0.92188 0.0
C944 C 0.07693 0.09411 0.92545 0.0
C945 C 0.05111 0.10749 0.91871 0.0
C946 C 0.03314 0.09029 0.90833 0.0
C947 C 0.89923 0.97608 0.89781 0.0
C948 C 0.87923 1.00087 0.90073 0.0
C949 C 0.92956 0.98176 0.89372 0.0
C950 C 0.94045 0.01236 0.8923 0.0
C951 C 0.9206 0.03714 0.89556 0.0
C952 C 0.89027 0.03145 0.89971 0.0
C953 C 0.97244 0.01844 0.88733 0.0
C954 C 0.99116 0.03689 0.89691 0.0
C955 C 0.98487 0.00514 0.87355 0.0
C956 C 0.96595 0.98715 0.86236 0.0
C957 C 0.93941 1.00019 0.85594 0.0
C958 C 0.92153 0.98303 0.8455 0.0
C959 C 0.93008 0.95288 0.8413 0.0
C960 C 0.95657 0.93984 0.84751 0.0
C961 C 0.97451 0.95689 0.85797 0.0
H962 H 0.91621 0.93963 0.83322 0.0
H963 H 0.09083 0.10748 0.93347 0.0
H964 H 0.82383 0.12955 0.15192 0.0
H965 H 0.81492 0.18442 0.14578 0.0
H966 H 0.76861 0.15764 0.10326 0.0
H967 H 0.77874 0.10306 0.10901 0.0
H968 H 0.80177 0.20497 0.09727 0.0
H969 H 0.73024 0.18113 0.13795 0.0
H970 H 0.71376 0.16221 0.16384 0.0
H971 H 0.76879 0.23159 0.18635 0.0
H972 H 0.78592 0.25068 0.16059 0.0
H973 H 0.72402 0.34861 0.08432 0.0
H974 H 0.73445 0.29401 0.09046 0.0
H975 H 0.79432 0.32242 0.12784 0.0
H976 H 0.7842 0.37687 0.12178 0.0
H977 H 0.75427 0.27496 0.13648 0.0
H978 H 0.82447 0.29876 0.09475 0.0
H979 H 0.83862 0.31744 0.06846 0.0
H980 H 0.78231 0.24731 0.04743 0.0
H981 H 0.76747 0.22849 0.07362 0.0
C982 C 0.81191 0.13549 0.14124 0.0
C983 C 0.80191 0.11217 0.13095 0.0
C984 C 0.80662 0.16681 0.13778 0.0
C985 C 0.79057 0.17525 0.12418 0.0
C986 C 0.781 0.15183 0.11382 0.0
C987 C 0.78674 0.12062 0.11713 0.0
C988 C 0.78363 0.20837 0.12067 0.0
C989 C 0.79101 0.2201 0.1058 0.0
C990 C 0.77002 0.22841 0.13184 0.0
C991 C 0.75959 0.21713 0.14734 0.0
C992 C 0.73898 0.19222 0.14843 0.0
C993 C 0.7295 0.18148 0.16307 0.0
C994 C 0.74028 0.19563 0.17673 0.0
C995 C 0.7605 0.22062 0.17576 0.0
C996 C 0.77007 0.23143 0.16114 0.0
C997 C 0.73935 0.34322 0.09386 0.0
C998 C 0.75335 0.36708 0.10252 0.0
C999 C 0.74535 0.31204 0.09733 0.0
C1000 C 0.76529 0.30422 0.10955 0.0
C1001 C 0.77886 0.32797 0.11837 0.0
C1002 C 0.77313 0.35909 0.11483 0.0
C1003 C 0.77229 0.27129 0.11312 0.0
C1004 C 0.76496 0.25969 0.12799 0.0
C1005 C 0.78555 0.25126 0.10189 0.0
C1006 C 0.79462 0.26242 0.08615 0.0
C1007 C 0.81491 0.28748 0.08452 0.0
C1008 C 0.82309 0.29807 0.06964 0.0
C1009 C 0.81131 0.28362 0.05629 0.0
C1010 C 0.79139 0.2585 0.05779 0.0
C1011 C 0.7831 0.24785 0.07265 0.0
H1012 H 0.81768 0.29185 0.04478 0.0
H1013 H 0.73293 0.18728 0.18806 0.0
H1014 H 0.65815 0.05562 0.36857 0.0
H1015 H 0.60378 0.04907 0.36261 0.0
H1016 H 0.58863 0.01456 0.40937 0.0
H1017 H 0.64228 0.02237 0.4155 0.0
H1018 H 0.56557 0.00371 0.36079 0.0
H1019 H 0.52078 0.03313 0.4233 0.0
H1020 H 0.53473 0.0666 0.44567 0.0
H1021 H 0.5837 0.12739 0.41484 0.0
H1022 H 0.56971 0.09453 0.39227 0.0
H1023 H 0.41046 0.95619 0.36586 0.0
H1024 H 0.46527 0.96405 0.3694 0.0
H1025 H 0.44953 0.06126 0.37895 0.0
H1026 H 0.39496 0.0531 0.37628 0.0
H1027 H 0.48841 0.04426 0.39794 0.0
H1028 H 0.48058 0.03081 0.34275 0.0
H1029 H 0.46609 0.00512 0.31801 0.0
H1030 H 0.52123 0.92626 0.32989 0.0
H1031 H 0.53571 0.9513 0.35481 0.0
C1032 C 0.6431 0.04676 0.37756 0.0
C1033 C 0.65438 0.03986 0.39255 0.0
C1034 C 0.61205 0.04288 0.37413 0.0
C1035 C 0.59176 0.03183 0.38561 0.0
C1036 C 0.60342 0.02394 0.40041 0.0
C1037 C 0.63422 0.02828 0.40389 0.0
C1038 C 0.55842 0.02881 0.38232 0.0
C1039 C 0.54871 0.01263 0.3689 0.0
C1040 C 0.53615 0.04111 0.39262 0.0
C1041 C 0.54443 0.06117 0.40612 0.0
C1042 C 0.53442 0.0537 0.42129 0.0
C1043 C 0.54235 0.07256 0.43401 0.0
C1044 C 0.56017 0.09904 0.43168 0.0
C1045 C 0.57 0.1068 0.41663 0.0
C1046 C 0.5621 0.08805 0.40388 0.0
C1047 C 0.41876 0.97921 0.36872 0.0
C1048 C 0.39829 0.00396 0.37086 0.0
C1049 C 0.45019 0.98378 0.37063 0.0
C1050 C 0.46192 0.01341 0.37427 0.0
C1051 C 0.44135 0.03812 0.37625 0.0
C1052 C 0.41001 0.03343 0.37469 0.0
C1053 C 0.49537 0.01874 0.37649 0.0
C1054 C 0.50517 0.03534 0.38976 0.0
C1055 C 0.51757 0.00793 0.36571 0.0
C1056 C 0.50899 0.99281 0.35072 0.0
C1057 C 0.48944 0.0079 0.34014 0.0
C1058 C 0.48126 0.99346 0.32608 0.0
C1059 C 0.49267 0.96404 0.3224 0.0
C1060 C 0.51237 0.94903 0.33276 0.0
C1061 C 0.52059 0.96334 0.34685 0.0
H1062 H 0.48631 0.95291 0.31151 0.0
H1063 H 0.5663 0.11359 0.44154 0.0
H1064 H 0.32197 0.1407 0.34783 0.0
H1065 H 0.31831 0.19727 0.35146 0.0
H1066 H 0.27041 0.18321 0.39496 0.0
H1067 H 0.27429 0.12694 0.3915 0.0
H1068 H 0.24346 0.22797 0.37502 0.0
H1069 H 0.34225 0.20087 0.39651 0.0
H1070 H 0.39373 0.17827 0.39516 0.0
H1071 H 0.41658 0.24001 0.35751 0.0
H1072 H 0.36504 0.26269 0.3585 0.0
H1073 H 0.24932 0.37004 0.41493 0.0
H1074 H 0.25435 0.31582 0.407 0.0
H1075 H 0.31501 0.34274 0.36968 0.0
H1076 H 0.31081 0.39708 0.37787 0.0
H1077 H 0.3357 0.29252 0.38314 0.0
H1078 H 0.23985 0.32303 0.36246 0.0
H1079 H 0.18846 0.34596 0.36267 0.0
H1080 H 0.15957 0.27862 0.39659 0.0
H1081 H 0.21093 0.25555 0.39676 0.0
C1082 C 0.31065 0.14978 0.35813 0.0
C1083 C 0.29849 0.1296 0.36942 0.0
C1084 C 0.30862 0.18198 0.3602 0.0
C1085 C 0.29416 0.1943 0.3735 0.0
C1086 C 0.28159 0.17411 0.38461 0.0
C1087 C 0.28393 0.14202 0.38265 0.0
C1088 C 0.29237 0.22824 0.37608 0.0
C1089 C 0.26357 0.24212 0.37691 0.0
C1090 C 0.31869 0.24672 0.37799 0.0
C1091 C 0.34969 0.23321 0.37746 0.0
C1092 C 0.35816 0.20943 0.38785 0.0
C1093 C 0.38737 0.19665 0.38717 0.0
C1094 C 0.40838 0.20763 0.37622 0.0
C1095 C 0.40026 0.23149 0.36597 0.0
C1096 C 0.37106 0.24432 0.36659 0.0
C1097 C 0.26376 0.36446 0.40504 0.0
C1098 C 0.27957 0.38787 0.39698 0.0
C1099 C 0.26649 0.33344 0.40046 0.0
C1100 C 0.28457 0.32525 0.38753 0.0
C1101 C 0.30082 0.34852 0.37964 0.0
C1102 C 0.29839 0.37956 0.38434 0.0
C1103 C 0.28666 0.29234 0.38243 0.0
C1104 C 0.31551 0.27858 0.38109 0.0
C1105 C 0.26035 0.27403 0.37983 0.0
C1106 C 0.22934 0.28771 0.37971 0.0
C1107 C 0.22261 0.31324 0.37005 0.0
C1108 C 0.19347 0.32624 0.37009 0.0
C1109 C 0.17078 0.31379 0.37966 0.0
C1110 C 0.17717 0.28825 0.38919 0.0
C1111 C 0.20629 0.27518 0.38921 0.0
H1112 H 0.14824 0.32389 0.37968 0.0
H1113 H 0.43098 0.1977 0.37572 0.0
H1114 H 0.91522 0.95865 0.15677 0.0
H1115 H 0.97031 0.96563 0.15373 0.0
H1116 H 0.95509 0.02084 0.11241 0.0
H1117 H 0.90018 0.0142 0.1154 0.0
H1118 H 1.0008 0.97691 0.10838 0.0
H1119 H 0.97246 0.05562 0.14612 0.0
H1120 H 0.9498 0.07439 0.1708 0.0
H1121 H 0.01149 0.01737 0.19709 0.0
H1122 H 0.03424 0.99792 0.17253 0.0
H1123 H 0.14075 0.04944 0.09506 0.0
H1124 H 0.08746 0.03883 0.1009 0.0
H1125 H 0.11341 0.9973 0.14486 0.0
H1126 H 0.1671 0.00898 0.13922 0.0
H1127 H 0.06316 0.02966 0.14892 0.0
H1128 H 0.09351 0.95243 0.11217 0.0
H1129 H 0.11625 0.93153 0.08794 0.0
H1130 H 0.05116 0.98191 0.06042 0.0
H1131 H 0.02829 0.00348 0.08447 0.0
C1132 C 0.92359 0.97221 0.14701 0.0
C1133 C 0.90318 0.98593 0.13635 0.0
C1134 C 0.95511 0.97629 0.14533 0.0
C1135 C 0.9669 0.99395 0.1329 0.0
C1136 C 0.94659 0.00715 0.1221 0.0
C1137 C 0.91514 1.00339 0.12386 0.0
C1138 C 1.00034 0.99881 0.13104 0.0
C1139 C 0.01438 0.98871 0.11718 0.0
C1140 C 0.01834 0.01323 0.14274 0.0
C1141 C 1.00482 0.02506 0.15749 0.0
C1142 C 0.98102 0.04689 0.15716 0.0
C1143 C 0.96819 0.05768 0.17113 0.0
C1144 C 0.97913 0.047 0.1855 0.0
C1145 C 1.003 0.02558 0.18594 0.0
C1146 C 0.01588 0.01468 0.17201 0.0
C1147 C 0.13514 0.03818 0.10602 0.0
C1148 C 0.15815 0.02987 0.11664 0.0
C1149 C 0.1046 0.03191 0.10932 0.0
C1150 C 0.09624 0.01653 0.12317 0.0
C1151 C 0.11916 0.00899 0.13404 0.0
C1152 C 0.14985 0.01563 0.13081 0.0
C1153 C 0.06364 0.00826 0.12609 0.0
C1154 C 0.04971 0.01764 0.14015 0.0
C1155 C 0.04575 0.99279 0.11464 0.0
C1156 C 0.05934 0.97976 0.10013 0.0
C1157 C 0.08417 0.95922 0.10094 0.0
C1158 C 0.09707 0.94723 0.08724 0.0
C1159 C 0.0852 0.95544 0.07265 0.0
C1160 C 0.06035 0.9756 0.07173 0.0
C1161 C 0.04739 0.98768 0.0854 0.0
H1162 H 0.09522 0.94614 0.06206 0.0
H1163 H 0.96917 0.05539 0.1963 0.0
H1164 H 0.2353 0.6482 0.90884 0.0
H1165 H 0.22961 0.70444 0.90548 0.0
H1166 H 0.26686 0.69746 0.85891 0.0
H1167 H 0.27286 0.64142 0.86222 0.0
H1168 H 0.29058 0.74666 0.8736 0.0
H1169 H 0.19004 0.70715 0.86514 0.0
H1170 H 0.14367 0.67749 0.87149 0.0
H1171 H 0.13023 0.73326 0.91265 0.0
H1172 H 0.1768 0.76299 0.90667 0.0
H1173 H 0.24709 0.89903 0.84819 0.0
H1174 H 0.25274 0.84251 0.85065 0.0
H1175 H 0.21461 0.84658 0.89712 0.0
H1176 H 0.2086 0.90272 0.89468 0.0
H1177 H 0.19116 0.7986 0.88191 0.0
H1178 H 0.2922 0.83754 0.89057 0.0
H1179 H 0.33867 0.86705 0.88424 0.0
H1180 H 0.35115 0.81228 0.84265 0.0
H1181 H 0.30449 0.7827 0.84863 0.0
C1182 C 0.24232 0.65858 0.89787 0.0
C1183 C 0.25448 0.64002 0.8858 0.0
C1184 C 0.23892 0.69084 0.89593 0.0
C1185 C 0.2475 0.70542 0.88186 0.0
C1186 C 0.26002 0.68697 0.86989 0.0
C1187 C 0.26334 0.65476 0.87179 0.0
C1188 C 0.24347 0.73977 0.87957 0.0
C1189 C 0.26871 0.7579 0.87522 0.0
C1190 C 0.21514 0.75483 0.88193 0.0
C1191 C 0.18708 0.73708 0.88554 0.0
C1192 C 0.17733 0.71293 0.87561 0.0
C1193 C 0.15099 0.69613 0.87913 0.0
C1194 C 0.13406 0.70343 0.89249 0.0
C1195 C 0.1434 0.72761 0.90233 0.0
C1196 C 0.16975 0.74445 0.89887 0.0
C1197 C 0.23989 0.8879 0.85893 0.0
C1198 C 0.22746 0.90563 0.87124 0.0
C1199 C 0.24326 0.8555 0.86036 0.0
C1200 C 0.2344 0.84003 0.87416 0.0
C1201 C 0.22165 0.85772 0.88635 0.0
C1202 C 0.21832 0.89 0.88494 0.0
C1203 C 0.23831 0.80554 0.876 0.0
C1204 C 0.21303 0.78736 0.88026 0.0
C1205 C 0.2666 0.79044 0.87356 0.0
C1206 C 0.29468 0.80814 0.86996 0.0
C1207 C 0.30472 0.83196 0.88001 0.0
C1208 C 0.33112 0.84866 0.87649 0.0
C1209 C 0.3478 0.84161 0.86302 0.0
C1210 C 0.33817 0.81776 0.85306 0.0
C1211 C 0.31176 0.801 0.85651 0.0
H1212 H 0.36824 0.85457 0.86033 0.0
H1213 H 0.11367 0.69041 0.89519 0.0
H1214 H 0.35335 0.94417 0.63328 0.0
H1215 H 0.40643 0.95057 0.64133 0.0
H1216 H 0.4235 0.00623 0.6003 0.0
H1217 H 0.37057 0.99893 0.59197 0.0
H1218 H 0.4692 0.96896 0.60434 0.0
H1219 H 0.41468 0.03751 0.63904 0.0
H1220 H 0.37573 0.05131 0.65864 0.0
H1221 H 0.41385 0.98542 0.69083 0.0
H1222 H 0.45282 0.97096 0.67134 0.0
H1223 H 0.61034 0.03245 0.62573 0.0
H1224 H 0.55672 0.02551 0.61954 0.0
H1225 H 0.54483 0.97164 0.66164 0.0
H1226 H 0.5987 0.97991 0.6683 0.0
H1227 H 0.49661 0.00575 0.65758 0.0
H1228 H 0.55187 0.93799 0.62302 0.0
H1229 H 0.59122 0.92485 0.60351 0.0
H1230 H 0.55175 0.98933 0.57103 0.0
H1231 H 0.51235 1.0031 0.59041 0.0
C1232 C 0.36842 0.9578 0.62598 0.0
C1233 C 0.35769 0.97115 0.61201 0.0
C1234 C 0.39882 0.96164 0.63065 0.0
C1235 C 0.41918 0.97939 0.62161 0.0
C1236 C 0.40845 0.99249 0.60755 0.0
C1237 C 0.37811 0.98839 0.6028 0.0
C1238 C 0.45165 0.98398 0.62664 0.0
C1239 C 0.47508 0.97739 0.61593 0.0
C1240 C 0.45976 0.99412 0.64191 0.0
C1241 C 0.43648 1.00295 0.65367 0.0
C1242 C 0.41463 0.02583 0.65026 0.0
C1243 C 0.39258 0.03378 0.66135 0.0
C1244 C 0.39227 0.01919 0.67595 0.0
C1245 C 0.41409 0.99667 0.67951 0.0
C1246 C 0.43618 0.98861 0.66845 0.0
C1247 C 0.59637 0.01917 0.63374 0.0
C1248 C 0.60899 0.00647 0.64746 0.0
C1249 C 0.56559 0.01501 0.63011 0.0
C1250 C 0.54659 0.99718 0.63982 0.0
C1251 C 0.55889 0.98526 0.65382 0.0
C1252 C 0.58973 0.98999 0.65764 0.0
C1253 C 0.51412 0.99101 0.63522 0.0
C1254 C 0.49072 0.99722 0.64601 0.0
C1255 C 0.506 0.98048 0.62001 0.0
C1256 C 0.52929 0.97172 0.60821 0.0
C1257 C 0.55165 0.94944 0.61174 0.0
C1258 C 0.57396 0.94188 0.6007 0.0
C1259 C 0.57402 0.95629 0.58605 0.0
C1260 C 0.55168 0.97819 0.58238 0.0
C1261 C 0.52932 0.98584 0.59338 0.0
H1262 H 0.59135 0.95046 0.57753 0.0
H1263 H 0.37517 0.02538 0.68453 0.0
H1264 H 0.19324 0.09247 0.92894 0.0
H1265 H 0.20485 0.08578 0.95671 0.0
H1266 H 0.27875 0.02401 0.94468 0.0
H1267 H 0.26553 0.02896 0.91693 0.0
H1268 H 0.25572 1.00332 0.96923 0.0
H1269 H 0.28834 0.10511 0.95549 0.0
H1270 H 0.2855 0.15841 0.94501 0.0
H1271 H 0.21504 0.18073 0.97796 0.0
H1272 H 0.21712 0.12747 0.9885 0.0
H1273 H 0.31434 0.02016 0.04781 0.0
H1274 H 0.31039 0.02363 0.01925 0.0
H1275 H 0.22271 0.06769 0.02379 0.0
H1276 H 0.22637 0.06429 0.05222 0.0
H1277 H 0.26057 0.09749 1.00273 0.0
H1278 H 0.22826 0.99118 0.01462 0.0
H1279 H 0.23712 0.93914 0.02581 0.0
H1280 H 0.31529 0.92737 0.99623 0.0
H1281 H 0.307 0.97945 0.98496 0.0
C1282 C 0.2117 0.07719 0.93229 0.0
C1283 C 0.22857 0.06129 0.92089 0.0
C1284 C 0.21861 0.07364 0.94815 0.0
C1285 C 0.24338 0.05518 0.95286 0.0
C1286 C 0.25967 0.03855 0.94141 0.0
C1287 C 0.25213 0.04135 0.92557 0.0
C1288 C 0.25221 0.05337 0.96967 0.0
C1289 C 0.25724 0.02404 0.97644 0.0
C1290 C 0.25444 0.08028 0.97923 0.0
C1291 C 0.25277 0.11221 0.97272 0.0
C1292 C 0.27206 0.1213 0.96042 0.0
C1293 C 0.27061 0.15152 0.95448 0.0
C1294 C 0.25011 0.17292 0.96083 0.0
C1295 C 0.23092 0.16412 0.97307 0.0
C1296 C 0.23224 0.13394 0.97904 0.0
C1297 C 0.29427 0.03066 0.04271 0.0
C1298 C 0.27061 0.04187 0.05227 0.0
C1299 C 0.29204 0.03256 0.0264 0.0
C1300 C 0.2662 0.0458 0.01942 0.0
C1301 C 0.24285 0.05741 0.02895 0.0
C1302 C 0.24495 0.05535 0.04521 0.0
C1303 C 0.26302 0.04761 1.00218 0.0
C1304 C 0.25926 0.07694 0.99537 0.0
C1305 C 0.26272 0.02085 0.99256 0.0
C1306 C 0.26718 0.98928 0.99907 0.0
C1307 C 0.2474 0.97753 0.01056 0.0
C1308 C 0.25231 0.94803 0.0169 0.0
C1309 C 0.27679 0.92999 0.01176 0.0
C1310 C 0.29635 0.94136 1.00021 0.0
C1311 C 0.29153 0.97085 0.99383 0.0
H1312 H 0.28058 0.90718 0.01671 0.0
H1313 H 0.24918 0.19636 0.95633 0.0
H1314 H 0.66808 0.54903 0.27165 0.0
H1315 H 0.66533 0.52913 0.24473 0.0
H1316 H 0.75572 0.49152 0.24931 0.0
H1317 H 0.75827 0.51071 0.27638 0.0
H1318 H 0.7276 0.54777 0.22285 0.0
H1319 H 0.73122 0.43933 0.2433 0.0
H1320 H 0.71065 0.39813 0.26033 0.0
H1321 H 0.6223 0.40989 0.23971 0.0
H1322 H 0.64234 0.45152 0.22273 0.0
H1323 H 0.76401 0.48894 0.14824 0.0
H1324 H 0.76047 0.49884 0.1763 0.0
H1325 H 0.66652 0.46988 0.17586 0.0
H1326 H 0.67009 0.45926 0.14773 0.0
H1327 H 0.69298 0.44712 0.20072 0.0
H1328 H 0.68677 0.54723 0.17795 0.0
H1329 H 0.7006 0.592 0.16142 0.0
H1330 H 0.78483 0.60189 0.18637 0.0
H1331 H 0.77175 0.55689 0.2029 0.0
C1332 C 0.6868 0.53534 0.26711 0.0
C1333 C 0.7132 0.53093 0.27615 0.0
C1334 C 0.68529 0.52419 0.25174 0.0
C1335 C 0.71022 0.50869 0.24511 0.0
C1336 C 0.73605 0.50299 0.25433 0.0
C1337 C 0.73741 0.51373 0.26981 0.0
C1338 C 0.71071 0.50208 0.22809 0.0
C1339 C 0.72047 0.52565 0.21796 0.0
C1340 C 0.70011 0.47376 0.22179 0.0
C1341 C 0.68816 0.44878 0.23194 0.0
C1342 C 0.70734 0.43339 0.24255 0.0
C1343 C 0.6958 0.40989 0.25215 0.0
C1344 C 0.66515 0.40148 0.25115 0.0
C1345 C 0.64601 0.41648 0.24051 0.0
C1346 C 0.65745 0.44001 0.23089 0.0
C1347 C 0.74256 0.48461 0.15408 0.0
C1348 C 0.71729 0.4734 0.14569 0.0
C1349 C 0.74053 0.49047 0.17015 0.0
C1350 C 0.71308 0.48562 0.17821 0.0
C1351 C 0.68793 0.4739 0.16993 0.0
C1352 C 0.68999 0.46788 0.15382 0.0
C1353 C 0.71087 0.49256 0.19529 0.0
C1354 C 0.70039 0.46926 0.20548 0.0
C1355 C 0.72023 0.52152 0.20163 0.0
C1356 C 0.72844 0.54837 0.19154 0.0
C1357 C 0.70841 0.55871 0.1798 0.0
C1358 C 0.71608 0.58419 0.17045 0.0
C1359 C 0.74364 0.59967 0.17279 0.0
C1360 C 0.76353 0.5898 0.18453 0.0
C1361 C 0.75599 0.56432 0.1939 0.0
H1362 H 0.74955 0.61935 0.16553 0.0
H1363 H 0.65626 0.38328 0.25858 0.0
H1364 H 0.25481 0.98181 0.54593 0.0
H1365 H 0.25521 0.98322 0.51734 0.0
H1366 H 0.2847 0.88761 0.51608 0.0
H1367 H 0.28538 0.88646 0.5447 0.0
H1368 H 0.3168 0.91834 0.49651 0.0
H1369 H 0.21006 0.91213 0.50577 0.0
H1370 H 0.16039 0.92626 0.51714 0.0
H1371 H 0.16613 0.01656 0.49607 0.0
H1372 H 0.21609 1.00317 0.48477 0.0
H1373 H 0.29876 0.90988 0.41303 0.0
H1374 H 0.29043 0.90012 0.44105 0.0
H1375 H 0.27413 0.99781 0.44855 0.0
H1376 H 0.28245 0.00773 0.42077 0.0
H1377 H 0.23276 0.96112 0.46436 0.0
H1378 H 0.34191 0.9675 0.45729 0.0
H1379 H 0.39097 0.95219 0.44559 0.0
H1380 H 0.37882 0.85901 0.46236 0.0
H1381 H 0.32945 0.8737 0.47399 0.0
C1382 C 0.26113 0.96099 0.53957 0.0
C1383 C 0.27011 0.93403 0.54762 0.0
C1384 C 0.26118 0.96175 0.52318 0.0
C1385 C 0.26961 0.93539 0.51443 0.0
C1386 C 0.27811 0.90829 0.52249 0.0
C1387 C 0.27842 0.90763 0.53888 0.0
C1388 C 0.27111 0.93658 0.49695 0.0
C1389 C 0.29812 0.92713 0.4895 0.0
C1390 C 0.24702 0.94851 0.48769 0.0
C1391 C 0.21699 0.95671 0.49453 0.0
C1392 C 0.20087 0.9351 0.50367 0.0
C1393 C 0.17263 0.94296 0.51009 0.0
C1394 C 0.16014 0.97231 0.50736 0.0
C1395 C 0.17585 0.99384 0.49819 0.0
C1396 C 0.20412 0.98612 0.49177 0.0
C1397 C 0.29326 0.92923 0.42065 0.0
C1398 C 0.29151 0.9596 0.41467 0.0
C1399 C 0.28856 0.92364 0.43666 0.0
C1400 C 0.28183 0.94828 0.44694 0.0
C1401 C 0.27926 0.97843 0.44088 0.0
C1402 C 0.28422 0.98406 0.42497 0.0
C1403 C 0.27843 0.94315 0.46409 0.0
C1404 C 0.25117 0.95194 0.47144 0.0
C1405 C 0.30213 0.93039 0.47326 0.0
C1406 C 0.33185 0.9216 0.46635 0.0
C1407 C 0.34959 0.94369 0.45837 0.0
C1408 C 0.37747 0.93514 0.45178 0.0
C1409 C 0.38796 0.90462 0.45319 0.0
C1410 C 0.37063 0.88262 0.46125 0.0
C1411 C 0.34271 0.89105 0.46785 0.0
H1412 H 0.40956 0.89805 0.44808 0.0
H1413 H 0.13826 0.97834 0.51233 0.0
H1414 H 0.77918 0.47475 0.79567 0.0
H1415 H 0.78507 0.47971 0.76731 0.0
H1416 H 0.83508 0.56499 0.77384 0.0
H1417 H 0.82919 0.56027 0.8022 0.0
H1418 H 0.79252 0.57324 0.75291 0.0
H1419 H 0.86872 0.50034 0.76164 0.0
H1420 H 0.89599 0.45351 0.77028 0.0
H1421 H 0.84126 0.3973 0.73977 0.0
H1422 H 0.81226 0.44346 0.73164 0.0
H1423 H 0.82688 0.57723 0.6693 0.0
H1424 H 0.83489 0.57336 0.69773 0.0
H1425 H 0.76494 0.50341 0.7005 0.0
H1426 H 0.75622 0.50772 0.67228 0.0
H1427 H 0.82514 0.49012 0.71631 0.0
H1428 H 0.74514 0.56889 0.7117 0.0
H1429 H 0.72359 0.619 0.70335 0.0
H1430 H 0.79747 0.66742 0.72549 0.0
H1431 H 0.81969 0.61745 0.7338 0.0
C1432 C 0.79173 0.49439 0.79109 0.0
C1433 C 0.80355 0.51721 0.80123 0.0
C1434 C 0.79522 0.49711 0.77485 0.0
C1435 C 0.8106 0.52269 0.76839 0.0
C1436 C 0.82308 0.54507 0.77852 0.0
C1437 C 0.81974 0.54229 0.79476 0.0
C1438 C 0.81161 0.52725 0.7511 0.0
C1439 C 0.80017 0.55516 0.74496 0.0
C1440 C 0.8217 0.50378 0.74064 0.0
C1441 C 0.83784 0.47549 0.74622 0.0
C1442 C 0.86184 0.47793 0.75707 0.0
C1443 C 0.87763 0.45143 0.7619 0.0
C1444 C 0.87008 0.42236 0.75574 0.0
C1445 C 0.84669 0.41973 0.74476 0.0
C1446 C 0.83047 0.44606 0.74009 0.0
C1447 C 0.81319 0.56107 0.67599 0.0
C1448 C 0.79085 0.54284 0.66855 0.0
C1449 C 0.81778 0.55892 0.6922 0.0
C1450 C 0.80053 0.53807 0.70119 0.0
C1451 C 0.77852 0.5196 0.69376 0.0
C1452 C 0.77348 0.52221 0.67765 0.0
C1453 C 0.80511 0.53544 0.71836 0.0
C1454 C 0.81771 0.50802 0.72441 0.0
C1455 C 0.79699 0.55962 0.72877 0.0
C1456 C 0.78426 0.58945 0.72319 0.0
C1457 C 0.75703 0.59019 0.71458 0.0
C1458 C 0.74463 0.6186 0.70991 0.0
C1459 C 0.75916 0.64641 0.71389 0.0
C1460 C 0.78625 0.64586 0.72242 0.0
C1461 C 0.79875 0.61752 0.7271 0.0
H1462 H 0.7494 0.66843 0.71045 0.0
H1463 H 0.88253 0.40191 0.75937 0.0
H1464 H 0.78357 0.99863 0.08878 0.0
H1465 H 0.77683 0.99382 0.06061 0.0
H1466 H 0.80186 0.89706 0.06294 0.0
H1467 H 0.8089 0.90175 0.09142 0.0
H1468 H 0.83186 0.92773 0.03955 0.0
H1469 H 0.72798 0.91761 0.0559 0.0
H1470 H 0.68089 0.93178 0.06991 0.0
H1471 H 0.67863 0.01941 0.04601 0.0
H1472 H 0.72581 0.00587 0.03192 0.0
H1473 H 0.79875 0.903 0.95944 0.0
H1474 H 0.79749 0.89934 0.98796 0.0
H1475 H 0.7673 0.99454 0.9909 0.0
H1476 H 0.76784 0.99814 0.96228 0.0
H1477 H 0.73802 0.96046 0.01183 0.0
H1478 H 0.84247 0.97384 0.99721 0.0
H1479 H 0.89004 0.96196 0.98312 0.0
H1480 H 0.89256 0.87146 0.00416 0.0
H1481 H 0.84474 0.88267 0.01822 0.0
C1482 C 0.78754 0.9762 0.08338 0.0
C1483 C 0.79687 0.95055 0.0924 0.0
C1484 C 0.78343 0.97346 0.06723 0.0
C1485 C 0.78845 0.945 0.05964 0.0
C1486 C 0.79769 0.91923 0.06857 0.0
C1487 C 0.80166 0.92191 0.08483 0.0
C1488 C 0.78552 0.94293 0.04229 0.0
C1489 C 0.81112 0.93423 0.0335 0.0
C1490 C 0.75879 0.95243 0.03435 0.0
C1491 C 0.73054 0.96077 0.04291 0.0
C1492 C 0.71756 0.93999 0.05371 0.0
C1493 C 0.69081 0.94787 0.06163 0.0
C1494 C 0.67675 0.97644 0.05882 0.0
C1495 C 0.68952 0.99726 0.04815 0.0
C1496 C 0.71621 0.98945 0.04016 0.0
C1497 C 0.79165 0.92313 0.96613 0.0
C1498 C 0.78363 0.95096 0.95856 0.0
C1499 C 0.79107 0.92104 0.98247 0.0
C1500 C 0.78285 0.94683 0.99165 0.0
C1501 C 0.77383 0.97433 0.9841 0.0
C1502 C 0.77421 0.97639 0.96773 0.0
C1503 C 0.78442 0.94539 0.00909 0.0
C1504 C 0.75863 0.95357 0.01788 0.0
C1505 C 0.8111 0.93577 0.01706 0.0
C1506 C 0.83985 0.92896 0.00862 0.0
C1507 C 0.85304 0.95131 0.99873 0.0
C1508 C 0.88006 0.94472 0.99077 0.0
C1509 C 0.89426 0.91594 0.9927 0.0
C1510 C 0.8815 0.89372 1.00265 0.0
C1511 C 0.85445 0.90019 0.01062 0.0
H1512 H 0.91519 0.91088 0.98653 0.0
H1513 H 0.65596 0.98244 0.0649 0.0
H1514 H 0.31169 0.53891 0.69975 0.0
H1515 H 0.32243 0.53817 0.72779 0.0
H1516 H 0.31334 0.43829 0.72802 0.0
H1517 H 0.30129 0.4391 0.70008 0.0
H1518 H 0.2838 0.45968 0.75113 0.0
H1519 H 0.38424 0.47738 0.73283 0.0
H1520 H 0.42546 0.50206 0.71774 0.0
H1521 H 0.40901 0.58865 0.74131 0.0
H1522 H 0.36739 0.56462 0.7564 0.0
H1523 H 0.32759 0.45587 0.83171 0.0
H1524 H 0.33079 0.44797 0.80334 0.0
H1525 H 0.32278 0.54681 0.79615 0.0
H1526 H 0.31962 0.55491 0.82442 0.0
H1527 H 0.36607 0.51994 0.77684 0.0
H1528 H 0.26167 0.50059 0.79308 0.0
H1529 H 0.22138 0.47382 0.80796 0.0
H1530 H 0.24844 0.3865 0.78794 0.0
H1531 H 0.28924 0.4127 0.77314 0.0
C1532 C 0.3123 0.51676 0.70574 0.0
C1533 C 0.30553 0.48908 0.69772 0.0
C1534 C 0.31867 0.51632 0.72178 0.0
C1535 C 0.31914 0.48811 0.73007 0.0
C1536 C 0.31312 0.46036 0.72194 0.0
C1537 C 0.30626 0.46084 0.70596 0.0
C1538 C 0.32371 0.48786 0.74736 0.0
C1539 C 0.30224 0.47232 0.75669 0.0
C1540 C 0.34751 0.50461 0.75474 0.0
C1541 C 0.37251 0.51922 0.74567 0.0
C1542 C 0.38924 0.50175 0.73472 0.0
C1543 C 0.41272 0.51561 0.72617 0.0
C1544 C 0.41981 0.54692 0.72854 0.0
C1545 C 0.40348 0.56441 0.73948 0.0
C1546 C 0.37997 0.55066 0.74805 0.0
C1547 C 0.32687 0.47595 0.8241 0.0
C1548 C 0.32318 0.50603 0.83031 0.0
C1549 C 0.3286 0.47138 0.80789 0.0
C1550 C 0.32678 0.4968 0.79764 0.0
C1551 C 0.32425 0.52689 0.80385 0.0
C1552 C 0.3223 0.53146 0.82001 0.0
C1553 C 0.32594 0.49223 0.78042 0.0
C1554 C 0.34804 0.5069 0.77116 0.0
C1555 C 0.30301 0.4743 0.77309 0.0
C1556 C 0.27869 0.45856 0.78213 0.0
C1557 C 0.25921 0.47565 0.79196 0.0
C1558 C 0.23624 0.46058 0.80035 0.0
C1559 C 0.23233 0.42849 0.79887 0.0
C1560 C 0.25146 0.41137 0.78905 0.0
C1561 C 0.27452 0.4263 0.78067 0.0
H1562 H 0.21449 0.41688 0.80534 0.0
H1563 H 0.43799 0.55761 0.72192 0.0
H1564 H 0.70573 0.07496 0.5861 0.0
H1565 H 0.71504 0.07956 0.55789 0.0
H1566 H 0.7686 0.99566 0.55891 0.0
H1567 H 0.75934 0.99079 0.58703 0.0
H1568 H 0.79543 0.04289 0.5413 0.0
H1569 H 0.69847 0.99168 0.54606 0.0
H1570 H 0.64571 0.98612 0.55546 0.0
H1571 H 0.62112 0.0712 0.53254 0.0
H1572 H 0.67388 0.07751 0.52319 0.0
H1573 H 0.79862 0.00499 0.46002 0.0
H1574 H 0.7937 0.00575 0.48852 0.0
H1575 H 0.72912 0.08098 0.48517 0.0
H1576 H 0.73321 0.07964 0.45666 0.0
H1577 H 0.70837 0.04014 0.50439 0.0
H1578 H 0.80501 0.08917 0.49759 0.0
H1579 H 0.85814 0.09539 0.48892 0.0
H1580 H 0.88453 0.01638 0.51635 0.0
H1581 H 0.83138 0.00886 0.52468 0.0
C1582 C 0.71961 0.05758 0.58033 0.0
C1583 C 0.73165 0.03242 0.58879 0.0
C1584 C 0.72485 0.0602 0.56421 0.0
C1585 C 0.74236 0.03783 0.5563 0.0
C1586 C 0.75504 0.01317 0.56479 0.0
C1587 C 0.74959 0.01036 0.58085 0.0
C1588 C 0.74682 0.03959 0.53908 0.0
C1589 C 0.7765 0.04197 0.53316 0.0
C1590 C 0.72199 0.03912 0.52857 0.0
C1591 C 0.6902 0.03524 0.53407 0.0
C1592 C 0.68188 0.00934 0.54313 0.0
C1593 C 0.65196 0.00603 0.54844 0.0
C1594 C 0.6301 0.02834 0.54464 0.0
C1595 C 0.63809 0.05396 0.5355 0.0
C1596 C 0.66799 0.05741 0.53018 0.0
C1597 C 0.78353 0.02186 0.46535 0.0
C1598 C 0.76625 0.04222 0.45604 0.0
C1599 C 0.78084 0.02238 0.48168 0.0
C1600 C 0.76124 0.04365 0.48908 0.0
C1601 C 0.74436 0.06431 0.47978 0.0
C1602 C 0.74677 0.06357 0.46346 0.0
C1603 C 0.75718 0.04348 0.50641 0.0
C1604 C 0.72747 0.04128 0.51241 0.0
C1605 C 0.78208 0.04419 0.51698 0.0
C1606 C 0.81402 0.04823 0.51163 0.0
C1607 C 0.82202 0.0728 0.50159 0.0
C1608 C 0.85218 0.07656 0.49673 0.0
C1609 C 0.87467 0.05621 0.50202 0.0
C1610 C 0.86706 0.03206 0.5122 0.0
C1611 C 0.83689 0.02795 0.51693 0.0
H1612 H 0.89802 0.05919 0.49828 0.0
H1613 H 0.60695 0.02573 0.54876 0.0
H1614 H 0.24262 0.48951 0.22012 0.0
H1615 H 0.24762 0.4892 0.24863 0.0
H1616 H 0.15086 0.47567 0.25324 0.0
H1617 H 0.14561 0.476 0.22468 0.0
H1618 H 0.17292 0.51889 0.27449 0.0
H1619 H 0.19701 0.41526 0.25796 0.0
H1620 H 0.22355 0.37529 0.24239 0.0
H1621 H 0.30932 0.40547 0.26106 0.0
H1622 H 0.28332 0.44595 0.27658 0.0
H1623 H 0.17995 0.47489 0.35558 0.0
H1624 H 0.16986 0.47662 0.32734 0.0
H1625 H 0.26622 0.48261 0.3183 0.0
H1626 H 0.27644 0.48037 0.34631 0.0
H1627 H 0.24142 0.44172 0.29928 0.0
H1628 H 0.21815 0.54629 0.31516 0.0
H1629 H 0.19218 0.58672 0.33069 0.0
H1630 H 0.10569 0.55556 0.31334 0.0
H1631 H 0.13114 0.51463 0.29787 0.0
C1632 C 0.22235 0.48658 0.22717 0.0
C1633 C 0.19372 0.4826 0.22007 0.0
C1634 C 0.22527 0.48633 0.24349 0.0
C1635 C 0.19966 0.4821 0.25311 0.0
C1636 C 0.17095 0.47892 0.24608 0.0
C1637 C 0.16802 0.479 0.22973 0.0
C1638 C 0.20306 0.48027 0.27045 0.0
C1639 C 0.18756 0.50175 0.27995 0.0
C1640 C 0.22254 0.45824 0.27757 0.0
C1641 C 0.23823 0.43382 0.26832 0.0
C1642 C 0.22155 0.41354 0.25865 0.0
C1643 C 0.23649 0.39076 0.24985 0.0
C1644 C 0.26811 0.38789 0.25071 0.0
C1645 C 0.28484 0.40775 0.2604 0.0
C1646 C 0.27001 0.43059 0.26921 0.0
C1647 C 0.19896 0.47669 0.34757 0.0
C1648 C 0.22901 0.47746 0.35325 0.0
C1649 C 0.19316 0.47779 0.33142 0.0
C1650 C 0.21727 0.47995 0.32063 0.0
C1651 C 0.24721 0.48085 0.32632 0.0
C1652 C 0.25301 0.47965 0.3424 0.0
C1653 C 0.21167 0.48067 0.30339 0.0
C1654 C 0.2267 0.45886 0.29388 0.0
C1655 C 0.19186 0.50248 0.29629 0.0
C1656 C 0.17653 0.52718 0.3055 0.0
C1657 C 0.19358 0.5479 0.31475 0.0
C1658 C 0.17895 0.57093 0.32353 0.0
C1659 C 0.14729 0.57365 0.32303 0.0
C1660 C 0.1302 0.55339 0.31373 0.0
C1661 C 0.14472 0.53029 0.30495 0.0
H1662 H 0.13601 0.59149 0.32984 0.0
H1663 H 0.27964 0.37024 0.24389 0.0
H1664 H 0.74257 0.61295 0.43616 0.0
H1665 H 0.74477 0.60184 0.46415 0.0
H1666 H 0.74154 0.50353 0.45432 0.0
H1667 H 0.739 0.51467 0.4261 0.0
H1668 H 0.70381 0.51913 0.47829 0.0
H1669 H 0.80803 0.53786 0.46541 0.0
H1670 H 0.85132 0.56648 0.45408 0.0
H1671 H 0.83275 0.64401 0.48432 0.0
H1672 H 0.78906 0.61603 0.49568 0.0
H1673 H 0.73421 0.47989 0.55735 0.0
H1674 H 0.73891 0.4844 0.52894 0.0
H1675 H 0.7481 0.58383 0.53339 0.0
H1676 H 0.74435 0.57935 0.56188 0.0
H1677 H 0.78535 0.56366 0.51167 0.0
H1678 H 0.67916 0.54716 0.52301 0.0
H1679 H 0.63517 0.51946 0.53423 0.0
H1680 H 0.65681 0.43874 0.50678 0.0
H1681 H 0.70119 0.46585 0.49555 0.0
C1682 C 0.74237 0.58893 0.43993 0.0
C1683 C 0.74074 0.56465 0.42894 0.0
C1684 C 0.74379 0.58261 0.45596 0.0
C1685 C 0.74382 0.55183 0.46138 0.0
C1686 C 0.74173 0.52746 0.45042 0.0
C1687 C 0.74033 0.53382 0.43432 0.0
C1688 C 0.74546 0.54542 0.47851 0.0
C1689 C 0.72195 0.52838 0.48555 0.0
C1690 C 0.76875 0.55806 0.48807 0.0
C1691 C 0.79511 0.57492 0.48131 0.0
C1692 C 0.81303 0.5611 0.46956 0.0
C1693 C 0.83767 0.57719 0.46315 0.0
C1694 C 0.84475 0.60707 0.46845 0.0
C1695 C 0.82723 0.62088 0.48021 0.0
C1696 C 0.80255 0.6049 0.48666 0.0
C1697 C 0.73747 0.50272 0.5523 0.0
C1698 C 0.73866 0.5293 0.5619 0.0
C1699 C 0.73998 0.50528 0.53601 0.0
C1700 C 0.74319 0.53453 0.52892 0.0
C1701 C 0.74549 0.56099 0.53853 0.0
C1702 C 0.74332 0.55841 0.55485 0.0
C1703 C 0.74346 0.53772 0.51151 0.0
C1704 C 0.76734 0.55418 0.50441 0.0
C1705 C 0.72043 0.52466 0.50189 0.0
C1706 C 0.69367 0.50842 0.50857 0.0
C1707 C 0.67466 0.52343 0.51945 0.0
C1708 C 0.64964 0.50785 0.5258 0.0
C1709 C 0.64325 0.47733 0.52125 0.0
C1710 C 0.66182 0.46236 0.51031 0.0
C1711 C 0.68689 0.47783 0.50394 0.0
H1712 H 0.62387 0.46531 0.52618 0.0
H1713 H 0.86383 0.61949 0.46347 0.0
H1714 H 0.2039 0.89205 0.6535 0.0
H1715 H 0.20226 0.90208 0.68171 0.0
H1716 H 0.16629 0.99376 0.67292 0.0
H1717 H 0.16934 0.98438 0.6448 0.0
H1718 H 0.20621 0.99873 0.69389 0.0
H1719 H 0.12202 0.92922 0.6868 0.0
H1720 H 0.0962 0.88115 0.67834 0.0
H1721 H 0.15332 0.82751 0.70883 0.0
H1722 H 0.17976 0.87524 0.71732 0.0
H1723 H 0.15062 0.03951 0.76654 0.0
H1724 H 0.14426 0.01342 0.74131 0.0
H1725 H 0.21453 0.94804 0.75358 0.0
H1726 H 0.22143 0.97446 0.77882 0.0
H1727 H 0.15844 0.92668 0.732 0.0
H1728 H 0.24341 1.00018 0.73766 0.0
H1729 H 0.26406 0.05043 0.74665 0.0
H1730 H 0.19857 0.09881 0.71846 0.0
H1731 H 0.17723 0.04876 0.7095 0.0
C1732 C 0.19565 0.91433 0.65762 0.0
C1733 C 0.18679 0.93745 0.64695 0.0
C1734 C 0.1945 0.91997 0.67376 0.0
C1735 C 0.18371 0.94855 0.67953 0.0
C1736 C 0.17476 0.97155 0.66882 0.0
C1737 C 0.17649 0.96616 0.65272 0.0
C1738 C 0.18257 0.95511 0.69666 0.0
C1739 C 0.19549 0.98295 0.70211 0.0
C1740 C 0.16903 0.93447 0.70758 0.0
C1741 C 0.15308 0.90576 0.70256 0.0
C1742 C 0.12922 0.90715 0.69161 0.0
C1743 C 0.11445 0.87997 0.68683 0.0
C1744 C 0.12318 0.85128 0.69301 0.0
C1745 C 0.14662 0.84974 0.70403 0.0
C1746 C 0.16149 0.87685 0.70884 0.0
C1747 C 0.1639 0.01884 0.76411 0.0
C1748 C 0.18679 0.00924 0.77452 0.0
C1749 C 0.16019 0.00394 0.74972 0.0
C1750 C 0.17916 0.97908 0.74557 0.0
C1751 C 0.19961 0.96713 0.75665 0.0
C1752 C 0.20347 0.9822 0.77107 0.0
C1753 C 0.18175 0.97014 0.7289 0.0
C1754 C 0.16923 0.94207 0.72363 0.0
C1755 C 0.19517 0.99072 0.71803 0.0
C1756 C 0.20859 0.02077 0.72302 0.0
C1757 C 0.2333 0.02154 0.73347 0.0
C1758 C 0.24513 0.04998 0.73855 0.0
C1759 C 0.23258 0.0778 0.73316 0.0
C1760 C 0.20824 0.07724 0.72264 0.0
C1761 C 0.1963 0.04885 0.71754 0.0
H1762 H 0.24176 0.0998 0.73709 0.0
H1763 H 0.11172 0.83027 0.68929 0.0
H1764 H 0.82056 0.43467 0.9079 0.0
H1765 H 0.8177 0.42947 0.93644 0.0
H1766 H 0.7497 0.50173 0.93803 0.0
H1767 H 0.75339 0.50783 0.90974 0.0
H1768 H 0.78635 0.51098 0.96058 0.0
H1769 H 0.73353 0.42056 0.94188 0.0
H1770 H 0.727 0.37208 0.92681 0.0
H1771 H 0.80139 0.33056 0.95174 0.0
H1772 H 0.80863 0.37897 0.96682 0.0
H1773 H 0.72268 0.48388 0.03536 0.0
H1774 H 0.72929 0.48392 0.00694 0.0
H1775 H 0.81025 0.42823 0.01167 0.0
H1776 H 0.80399 0.4283 0.04023 0.0
H1777 H 0.77023 0.40925 0.98651 0.0
H1778 H 0.82004 0.50126 0.00605 0.0
H1779 H 0.82296 0.54974 0.02142 0.0
H1780 H 0.74934 0.58824 0.99472 0.0
H1781 H 0.74568 0.53979 0.97933 0.0
C1782 C 0.80502 0.44943 0.91436 0.0
C1783 C 0.78721 0.47166 0.90652 0.0
C1784 C 0.80325 0.44632 0.93069 0.0
C1785 C 0.78314 0.4649 0.93949 0.0
C1786 C 0.76545 0.48713 0.93161 0.0
C1787 C 0.76755 0.49055 0.91537 0.0
C1788 C 0.78061 0.46173 0.95688 0.0
C1789 C 0.78248 0.4887 0.96616 0.0
C1790 C 0.77619 0.43267 0.96437 0.0
C1791 C 0.77184 0.40351 0.95535 0.0
C1792 C 0.74865 0.40117 0.94407 0.0
C1793 C 0.74479 0.37369 0.93553 0.0
C1794 C 0.76383 0.34828 0.93828 0.0
C1795 C 0.7867 0.35028 0.9496 0.0
C1796 C 0.79068 0.37772 0.95815 0.0
C1797 C 0.74178 0.47139 0.03039 0.0
C1798 C 0.76291 0.45622 0.04011 0.0
C1799 C 0.74555 0.4715 0.01412 0.0
C1800 C 0.7704 0.45629 0.00718 0.0
C1801 C 0.79093 0.44014 0.01678 0.0
C1802 C 0.78736 0.4403 0.0331 0.0
C1803 C 0.7755 0.45848 0.98999 0.0
C1804 C 0.7742 0.4314 0.98082 0.0
C1805 C 0.77997 0.48746 0.98255 0.0
C1806 C 0.78242 0.51679 0.99163 0.0
C1807 C 0.80433 0.51998 0.00353 0.0
C1808 C 0.80614 0.54747 0.01223 0.0
C1809 C 0.7863 0.57203 0.00908 0.0
C1810 C 0.76467 0.56919 0.99716 0.0
C1811 C 0.76275 0.54173 0.98844 0.0
H1812 H 0.78771 0.59328 0.01584 0.0
H1813 H 0.76081 0.32703 0.93166 0.0
H1814 H 0.34935 0.0335 0.18175 0.0
H1815 H 0.3559 0.02824 0.2101 0.0
H1816 H 0.26299 0.99709 0.21435 0.0
H1817 H 0.25614 1.00271 0.18616 0.0
H1818 H 0.27512 0.04094 0.23532 0.0
H1819 H 0.32298 0.94654 0.21832 0.0
H1820 H 0.35892 0.91471 0.20299 0.0
H1821 H 0.4342 0.9629 0.22394 0.0
H1822 H 0.39868 0.99531 0.23926 0.0
H1823 H 0.28077 0.99872 0.31495 0.0
H1824 H 0.27706 0.9932 0.2865 0.0
H1825 H 0.36865 0.02778 0.28154 0.0
H1826 H 0.37269 0.03304 0.30996 0.0
H1827 H 0.35718 0.98046 0.26099 0.0
H1828 H 0.30976 0.07619 0.27689 0.0
H1829 H 0.27423 0.10874 0.29209 0.0
H1830 H 0.19847 0.05855 0.27287 0.0
H1831 H 0.2336 0.02538 0.25771 0.0
C1832 C 0.3304 0.02531 0.18871 0.0
C1833 C 0.3022 0.01862 0.1817 0.0
C1834 C 0.33421 0.02218 0.20491 0.0
C1835 C 0.30998 0.01206 0.21435 0.0
C1836 C 0.28199 0.00496 0.20731 0.0
C1837 C 0.27814 0.00815 0.19117 0.0
C1838 C 0.31322 0.0103 0.23163 0.0
C1839 C 0.29277 0.02728 0.24092 0.0
C1840 C 0.33673 0.99314 0.23895 0.0
C1841 C 0.35815 0.97355 0.22983 0.0
C1842 C 0.34719 0.95051 0.21957 0.0
C1843 C 0.36749 0.93234 0.2109 0.0
C1844 C 0.39882 0.93684 0.21246 0.0
C1845 C 0.40992 0.95947 0.22273 0.0
C1846 C 0.38971 0.97772 0.23142 0.0
C1847 C 0.30025 0.00481 0.30783 0.0
C1848 C 0.32688 0.01671 0.31471 0.0
C1849 C 0.29808 1.0017 0.29157 0.0
C1850 C 0.32242 0.01056 0.28189 0.0
C1851 C 0.34956 0.02091 0.28878 0.0
C1852 C 0.35177 0.02402 0.30503 0.0
C1853 C 0.31895 0.01092 0.26461 0.0
C1854 C 0.33941 0.99387 0.25535 0.0
C1855 C 0.29549 0.02808 0.25727 0.0
C1856 C 0.27432 0.0481 0.2663 0.0
C1857 C 0.28553 0.07194 0.276 0.0
C1858 C 0.26547 0.09052 0.28459 0.0
C1859 C 0.23412 0.08566 0.28348 0.0
C1860 C 0.22276 0.06225 0.27374 0.0
C1861 C 0.24274 0.04357 0.26514 0.0
H1862 H 0.21862 0.10008 0.29014 0.0
H1863 H 0.4145 0.92276 0.20573 0.0
H1864 H 0.2791 0.50042 0.46072 0.0
H1865 H 0.27563 0.49844 0.48932 0.0
H1866 H 0.31055 0.40481 0.48882 0.0
H1867 H 0.31401 0.40656 0.46026 0.0
H1868 H 0.26378 0.41103 0.50964 0.0
H1869 H 0.35691 0.46346 0.49788 0.0
H1870 H 0.38956 0.50287 0.48541 0.0
H1871 H 0.33973 0.57549 0.50852 0.0
H1872 H 0.30646 0.53649 0.52096 0.0
H1873 H 0.30455 0.4048 0.59087 0.0
H1874 H 0.30683 0.40398 0.56217 0.0
H1875 H 0.2713 0.49732 0.56077 0.0
H1876 H 0.26897 0.49835 0.58934 0.0
H1877 H 0.31936 0.49004 0.5409 0.0
H1878 H 0.22586 0.43676 0.5525 0.0
H1879 H 0.19394 0.39677 0.56501 0.0
H1880 H 0.24562 0.32501 0.54231 0.0
H1881 H 0.27814 0.36459 0.52983 0.0
C1882 C 0.28581 0.47931 0.46667 0.0
C1883 C 0.29703 0.45373 0.45818 0.0
C1884 C 0.28394 0.47826 0.48304 0.0
C1885 C 0.2932 0.4516 0.49125 0.0
C1886 C 0.30335 0.42565 0.48276 0.0
C1887 C 0.3054 0.42674 0.46641 0.0
C1888 C 0.29309 0.45108 0.5087 0.0
C1889 C 0.27624 0.42808 0.51647 0.0
C1890 C 0.30901 0.47354 0.51765 0.0
C1891 C 0.32898 0.49707 0.51022 0.0
C1892 C 0.35274 0.48784 0.5002 0.0
C1893 C 0.37139 0.5101 0.49315 0.0
C1894 C 0.36666 0.54167 0.49613 0.0
C1895 C 0.34332 0.55103 0.5062 0.0
C1896 C 0.32458 0.52886 0.51326 0.0
C1897 C 0.29724 0.42515 0.58445 0.0
C1898 C 0.28645 0.45158 0.59242 0.0
C1899 C 0.29845 0.42461 0.56804 0.0
C1900 C 0.289 0.45052 0.55929 0.0
C1901 C 0.27868 0.47706 0.56725 0.0
C1902 C 0.27726 0.47754 0.5836 0.0
C1903 C 0.28983 0.45017 0.54185 0.0
C1904 C 0.3069 0.47299 0.53407 0.0
C1905 C 0.27421 0.42746 0.53291 0.0
C1906 C 0.25464 0.40363 0.54037 0.0
C1907 C 0.23059 0.41245 0.55028 0.0
C1908 C 0.21235 0.38986 0.55735 0.0
C1909 C 0.2178 0.35837 0.5545 0.0
C1910 C 0.24145 0.34941 0.54453 0.0
C1911 C 0.25978 0.37191 0.53745 0.0
H1912 H 0.20366 0.34091 0.55998 0.0
H1913 H 0.38113 0.55887 0.49067 0.0
H1914 H 0.74993 0.01543 0.31979 0.0
H1915 H 0.75878 0.00464 0.29218 0.0
H1916 H 0.8527 0.03194 0.29725 0.0
H1917 H 0.84393 0.0431 0.32509 0.0
H1918 H 0.82652 0.05845 0.27184 0.0
H1919 H 0.83662 0.95618 0.29156 0.0
H1920 H 0.82318 0.91062 0.30759 0.0
H1921 H 0.73869 0.9015 0.28279 0.0
H1922 H 0.75152 0.94714 0.26666 0.0
H1923 H 0.84702 0.01203 0.19203 0.0
H1924 H 0.85395 0.00969 0.2205 0.0
H1925 H 0.75711 0.9993 0.22658 0.0
H1926 H 0.74992 1.00218 0.1982 0.0
H1927 H 0.79466 0.9597 0.24654 0.0
H1928 H 0.78254 0.06735 0.23023 0.0
H1929 H 0.79614 0.11349 0.21464 0.0
H1930 H 0.88655 0.11168 0.23367 0.0
H1931 H 0.87356 0.0652 0.24921 0.0
C1932 C 0.77254 0.01905 0.3151 0.0
C1933 C 0.79623 0.03018 0.32463 0.0
C1934 C 0.77762 0.01262 0.29931 0.0
C1935 C 0.80651 0.01704 0.2927 0.0
C1936 C 0.83028 0.02818 0.30216 0.0
C1937 C 0.82523 0.03453 0.31804 0.0
C1938 C 0.81101 0.01158 0.27571 0.0
C1939 C 0.82032 0.03659 0.26635 0.0
C1940 C 0.8026 0.98315 0.26853 0.0
C1941 C 0.79496 0.95525 0.27796 0.0
C1942 C 0.8151 0.94456 0.28957 0.0
C1943 C 0.8076 0.91871 0.29868 0.0
C1944 C 0.78003 0.90326 0.29626 0.0
C1945 C 0.75999 0.91356 0.28468 0.0
C1946 C 0.76743 0.93934 0.2755 0.0
C1947 C 0.82726 0.00884 0.19943 0.0
C1948 C 0.79789 0.00758 0.19293 0.0
C1949 C 0.83127 0.0075 0.21566 0.0
C1950 C 0.80602 0.00441 0.22559 0.0
C1951 C 0.77686 1.0016 0.21908 0.0
C1952 C 0.77278 0.00346 0.20289 0.0
C1953 C 0.8095 0.00677 0.24278 0.0
C1954 C 0.8016 0.98123 0.25212 0.0
C1955 C 0.81944 0.03461 0.24997 0.0
C1956 C 0.82722 0.06259 0.24071 0.0
C1957 C 0.8054 0.07662 0.23097 0.0
C1958 C 0.81298 0.10286 0.22217 0.0
C1959 C 0.84222 0.11544 0.22312 0.0
C1960 C 0.86392 0.10186 0.23292 0.0
C1961 C 0.85647 0.07558 0.24172 0.0
H1962 H 0.84805 0.13576 0.21631 0.0
H1963 H 0.77428 0.88322 0.30331 0.0
H1964 H 0.15533 0.55993 0.08115 0.0
H1965 H 0.16503 0.56096 0.053 0.0
H1966 H 0.26142 0.56791 0.06172 0.0
H1967 H 0.25191 0.56734 0.08997 0.0
H1968 H 0.24346 0.60541 0.03746 0.0
H1969 H 0.23019 0.49833 0.05265 0.0
H1970 H 0.2027 0.45526 0.06537 0.0
H1971 H 0.12621 0.47006 0.03503 0.0
H1972 H 0.15313 0.51347 0.02223 0.0
H1973 H 0.293 0.56042 0.96141 0.0
H1974 H 0.28454 0.56341 0.98969 0.0
H1975 H 0.18838 0.54933 0.9825 0.0
H1976 H 0.19672 0.54566 0.9543 0.0
H1977 H 0.20684 0.51553 0.00622 0.0
H1978 H 0.2185 0.62186 0.99096 0.0
H1979 H 0.24364 0.6669 0.97871 0.0
H1980 H 0.32055 0.65552 0.00916 0.0
H1981 H 0.29603 0.61012 0.02145 0.0
C1982 C 0.1786 0.56201 0.07711 0.0
C1983 C 0.20287 0.56331 0.08783 0.0
C1984 C 0.1841 0.56247 0.061 0.0
C1985 C 0.21399 0.56397 0.05524 0.0
C1986 C 0.23819 0.5666 0.0659 0.0
C1987 C 0.2327 0.56621 0.08204 0.0
C1988 C 0.22002 0.56152 0.03816 0.0
C1989 C 0.23584 0.58557 0.03065 0.0
C1990 C 0.20944 0.53597 0.02921 0.0
C1991 C 0.19359 0.50929 0.03657 0.0
C1992 C 0.20746 0.49247 0.04873 0.0
C1993 C 0.19199 0.46799 0.05595 0.0
C1994 C 0.16271 0.45997 0.05103 0.0
C1995 C 0.14889 0.47631 0.03882 0.0
C1996 C 0.16427 0.50081 0.03157 0.0
C1997 C 0.27005 0.55793 0.96584 0.0
C1998 C 0.24554 0.55288 0.95556 0.0
C1999 C 0.26522 0.5598 0.98203 0.0
C2000 C 0.23574 0.557 0.98825 0.0
C2001 C 0.21132 0.55158 0.97801 0.0
C2002 C 0.21614 0.54956 0.96186 0.0
C2003 C 0.23027 0.5595 0.00542 0.0
C2004 C 0.21456 0.53538 0.01298 0.0
C2005 C 0.24075 0.58512 0.01438 0.0
C2006 C 0.25557 0.61239 0.00701 0.0
C2007 C 0.24089 0.6288 0.99495 0.0
C2008 C 0.255 0.65442 0.98802 0.0
C2009 C 0.28371 0.66401 0.99312 0.0
C2010 C 0.29833 0.64804 0.0052 0.0
C2011 C 0.28433 0.62237 0.01216 0.0
H2012 H 0.2946 0.68386 0.98775 0.0
H2013 H 0.15072 0.44108 0.05667 0.0
H2014 H 0.71954 0.97056 0.72331 0.0
H2015 H 0.72203 0.96885 0.75191 0.0
H2016 H 0.66278 0.04856 0.75463 0.0
H2017 H 0.66103 0.05101 0.72606 0.0
H2018 H 0.70568 0.05477 0.77548 0.0
H2019 H 0.63779 0.97188 0.7617 0.0
H2020 H 0.62164 0.92403 0.74811 0.0
H2021 H 0.69498 0.87371 0.76949 0.0
H2022 H 0.71181 0.92138 0.78306 0.0
H2023 H 0.66222 0.03909 0.85561 0.0
H2024 H 0.66306 0.04199 0.82705 0.0
H2025 H 0.72584 0.96505 0.82539 0.0
H2026 H 0.72463 0.96162 0.854 0.0
H2027 H 0.6827 0.95746 0.80409 0.0
H2028 H 0.74822 0.04305 0.81874 0.0
H2029 H 0.76141 0.09182 0.83238 0.0
H2030 H 0.68748 0.13848 0.80949 0.0
H2031 H 0.67351 0.08984 0.79594 0.0
C2032 C 0.70703 0.98775 0.72998 0.0
C2033 C 0.68995 0.01082 0.72232 0.0
C2034 C 0.70836 0.98667 0.74639 0.0
C2035 C 0.69225 0.00832 0.75557 0.0
C2036 C 0.67548 0.03159 0.74791 0.0
C2037 C 0.67438 0.03286 0.73152 0.0
C2038 C 0.69275 0.00675 0.77311 0.0
C2039 C 0.70011 0.03362 0.78171 0.0
C2040 C 0.68632 0.97898 0.78139 0.0
C2041 C 0.67624 0.95027 0.77326 0.0
C2042 C 0.65061 0.95066 0.76341 0.0
C2043 C 0.64131 0.92357 0.75573 0.0
C2044 C 0.65733 0.89587 0.7579 0.0
C2045 C 0.68263 0.89519 0.7678 0.0
C2046 C 0.69205 0.92224 0.7755 0.0
C2047 C 0.67631 0.02281 0.84921 0.0
C2048 C 0.6934 1.00012 0.85717 0.0
C2049 C 0.67691 0.02463 0.83282 0.0
C2050 C 0.69486 0.00404 0.82396 0.0
C2051 C 0.71186 0.98129 0.8319 0.0
C2052 C 0.71119 0.97938 0.8483 0.0
C2053 C 0.69524 0.0056 0.80645 0.0
C2054 C 0.68811 0.97868 0.79785 0.0
C2055 C 0.70134 0.0335 0.7982 0.0
C2056 C 0.70971 0.06273 0.8064 0.0
C2057 C 0.73464 0.06365 0.81671 0.0
C2058 C 0.74226 0.09128 0.82442 0.0
C2059 C 0.72525 0.11822 0.82183 0.0
C2060 C 0.70059 0.11759 0.81152 0.0
C2061 C 0.69282 0.08999 0.80381 0.0
H2062 H 0.7312 0.13959 0.8278 0.0
H2063 H 0.65009 0.87491 0.75194 0.0
H2064 H 0.59581 0.02962 0.96848 0.0
H2065 H 0.56437 0.03311 0.99217 0.0
H2066 H 0.50673 0.95973 0.97454 0.0
H2067 H 0.53773 0.95701 0.95072 0.0
H2068 H 0.47246 0.00368 0.98486 0.0
H2069 H 0.55651 0.94906 0.00597 0.0
H2070 H 0.61023 0.93748 0.0118 0.0
H2071 H 0.6179 0.02278 0.03764 0.0
H2072 H 0.56429 0.03518 0.03174 0.0
H2073 H 0.40097 0.97918 0.06136 0.0
H2074 H 0.42634 0.97471 0.03573 0.0
H2075 H 0.47614 0.059 0.04524 0.0
H2076 H 0.45065 0.06358 0.07063 0.0
H2077 H 0.51298 0.0069 0.03901 0.0
H2078 H 0.42512 0.05883 0.01712 0.0
H2079 H 0.37075 0.06594 0.01097 0.0
H2080 H 0.3693 0.97802 0.98715 0.0
H2081 H 0.42356 0.97014 0.99336 0.0
C2082 C 0.57694 0.01369 0.96994 0.0
C2083 C 0.56953 0.99255 0.95803 0.0
C2084 C 0.55887 0.01574 0.98343 0.0
C2085 C 0.53319 0.99649 0.98527 0.0
C2086 C 0.52633 0.97482 0.97346 0.0
C2087 C 0.54425 0.97297 0.95995 0.0
C2088 C 0.51276 0.99991 0.99915 0.0
C2089 C 0.48131 0.00389 0.99672 0.0
C2090 C 0.52416 1.00049 0.01466 0.0
C2091 C 0.55644 0.99322 0.01825 0.0
C2092 C 0.56971 0.96551 0.01277 0.0
C2093 C 0.60012 0.95877 0.01611 0.0
C2094 C 0.61748 0.97943 0.02502 0.0
C2095 C 0.60443 0.00684 0.03069 0.0
C2096 C 0.57402 0.01373 0.02736 0.0
C2097 C 0.41636 0.99737 0.05762 0.0
C2098 C 0.42355 0.022 0.06777 0.0
C2099 C 0.43101 0.99471 0.04306 0.0
C2100 C 0.45326 0.01647 0.03861 0.0
C2101 C 0.45909 0.04197 0.04842 0.0
C2102 C 0.44432 0.04475 0.06284 0.0
C2103 C 0.47289 0.01107 0.02467 0.0
C2104 C 0.5042 0.00661 0.02714 0.0
C2105 C 0.46121 0.00929 0.00927 0.0
C2106 C 0.42838 0.01375 0.00585 0.0
C2107 C 0.41314 0.04082 0.01074 0.0
C2108 C 0.38235 0.04504 0.00719 0.0
C2109 C 0.3666 0.02246 0.99866 0.0
C2110 C 0.38154 0.99551 0.99374 0.0
C2111 C 0.41231 0.99117 0.99727 0.0
H2112 H 0.34286 0.02591 0.99578 0.0
H2113 H 0.64103 0.97414 0.02755 0.0
H2114 H 0.68557 0.64312 0.29043 0.0
H2115 H 0.69527 0.68998 0.27507 0.0
H2116 H 0.79123 0.68184 0.28462 0.0
H2117 H 0.78149 0.63488 0.30015 0.0
H2118 H 0.77071 0.7455 0.28083 0.0
H2119 H 0.76754 0.64714 0.25442 0.0
H2120 H 0.74568 0.59616 0.24746 0.0
H2121 H 0.66741 0.64116 0.22779 0.0
H2122 H 0.68847 0.6924 0.23495 0.0
H2123 H 0.81873 0.81237 0.20619 0.0
H2124 H 0.81219 0.7827 0.23055 0.0
H2125 H 0.71549 0.77839 0.22229 0.0
H2126 H 0.72195 0.80783 0.1981 0.0
H2127 H 0.73977 0.72132 0.22626 0.0
H2128 H 0.74596 0.82089 0.25182 0.0
H2129 H 0.77052 0.87091 0.25792 0.0
H2130 H 0.84617 0.82298 0.27854 0.0
H2131 H 0.82253 0.77257 0.27209 0.0
C2132 C 0.70856 0.65214 0.28985 0.0
C2133 C 0.73278 0.63537 0.29645 0.0
C2134 C 0.71412 0.67881 0.28098 0.0
C2135 C 0.74404 0.68906 0.27842 0.0
C2136 C 0.76797 0.67433 0.28641 0.0
C2137 C 0.76237 0.64759 0.29536 0.0
C2138 C 0.75042 0.71146 0.26556 0.0
C2139 C 0.76424 0.74018 0.26887 0.0
C2140 C 0.74199 0.70448 0.24993 0.0
C2141 C 0.72943 0.67365 0.24541 0.0
C2142 C 0.74553 0.64618 0.24874 0.0
C2143 C 0.73331 0.61722 0.24474 0.0
C2144 C 0.70513 0.61542 0.23723 0.0
C2145 C 0.68919 0.64258 0.23365 0.0
C2146 C 0.70126 0.67159 0.23768 0.0
C2147 C 0.79601 0.80596 0.20988 0.0
C2148 C 0.77086 0.81234 0.20022 0.0
C2149 C 0.79229 0.78885 0.22376 0.0
C2150 C 0.76334 0.77806 0.22822 0.0
C2151 C 0.73807 0.78621 0.21906 0.0
C2152 C 0.74176 0.80318 0.20527 0.0
C2153 C 0.75936 0.75591 0.2415 0.0
C2154 C 0.74618 0.72688 0.23821 0.0
C2155 C 0.76876 0.76258 0.25703 0.0
C2156 C 0.78263 0.7929 0.26127 0.0
C2157 C 0.76797 0.82097 0.25752 0.0
C2158 C 0.78172 0.84941 0.26106 0.0
C2159 C 0.80992 0.85013 0.26859 0.0
C2160 C 0.82436 0.82239 0.27267 0.0
C2161 C 0.81081 0.79386 0.26905 0.0
H2162 H 0.82057 0.87218 0.27127 0.0
H2163 H 0.69567 0.593 0.23418 0.0
H2164 H 0.92244 0.9602 0.43356 0.0
H2165 H 0.94464 0.95395 0.45964 0.0
H2166 H 0.92486 0.04996 0.47007 0.0
H2167 H 0.90265 0.05628 0.4439 0.0
H2168 H 0.98513 0.03522 0.47456 0.0
H2169 H 0.88884 0.99336 0.4877 0.0
H2170 H 0.8438 0.95964 0.48606 0.0
H2171 H 0.89962 0.87945 0.49426 0.0
H2172 H 0.94515 0.91273 0.49586 0.0
H2173 H 0.033 0.0292 0.55438 0.0
H2174 H 1.00435 0.03521 0.52998 0.0
H2175 H 0.02498 0.94039 0.51746 0.0
H2176 H 0.05389 0.93435 0.54192 0.0
H2177 H 0.96266 0.95534 0.51471 0.0
H2178 H 0.05886 0.99528 0.49806 0.0
H2179 H 0.1047 0.02815 0.4996 0.0
H2180 H 0.04927 0.11015 0.49718 0.0
H2181 H 1.00302 0.07774 0.49585 0.0
C2182 C 0.922 0.97968 0.44161 0.0
C2183 C 0.91078 0.00869 0.43675 0.0
C2184 C 0.93475 0.97613 0.45649 0.0
C2185 C 0.93658 1.00154 0.46678 0.0
C2186 C 0.92376 0.03008 0.46229 0.0
C2187 C 0.91075 0.03357 0.44742 0.0
C2188 C 0.95428 0.9989 0.48156 0.0
C2189 C 0.97985 0.01812 0.48347 0.0
C2190 C 0.94796 0.97588 0.49293 0.0
C2191 C 0.92055 0.95567 0.49189 0.0
C2192 C 0.89162 0.96856 0.48912 0.0
C2193 C 0.86594 0.9495 0.4882 0.0
C2194 C 0.86884 0.9174 0.49004 0.0
C2195 C 0.89741 0.90433 0.49284 0.0
C2196 C 0.92316 0.92332 0.4938 0.0
C2197 C 0.03184 0.00982 0.54628 0.0
C2198 C 0.04579 0.98136 0.54997 0.0
C2199 C 0.01543 0.01324 0.53237 0.0
C2200 C 0.01243 0.98822 0.52192 0.0
C2201 C 0.02693 0.95996 0.52539 0.0
C2202 C 0.04371 0.95664 0.53925 0.0
C2203 C 0.99348 0.9915 0.50759 0.0
C2204 C 0.96775 0.97246 0.50579 0.0
C2205 C 0.99969 0.01449 0.49623 0.0
C2206 C 0.02744 0.03408 0.49702 0.0
C2207 C 0.05641 0.02033 0.498 0.0
C2208 C 0.08248 0.03887 0.49881 0.0
C2209 C 0.07989 0.07122 0.49853 0.0
C2210 C 0.05123 0.08508 0.49741 0.0
C2211 C 0.02508 0.06664 0.49662 0.0
H2212 H 0.1001 0.08554 0.49915 0.0
H2213 H 0.84894 0.90265 0.4893 0.0
H2214 H 0.75211 0.14192 0.70631 0.0
H2215 H 0.75495 0.17016 0.73135 0.0
H2216 H 0.69205 0.23858 0.71361 0.0
H2217 H 0.68958 0.21063 0.68869 0.0
H2218 H 0.74123 0.26589 0.72436 0.0
H2219 H 0.67215 0.18943 0.7433 0.0
H2220 H 0.6525 0.13686 0.74863 0.0
H2221 H 0.73061 0.11733 0.77714 0.0
H2222 H 0.7509 0.16975 0.77187 0.0
H2223 H 0.72617 0.35403 0.79508 0.0
H2224 H 0.7167 0.32233 0.77159 0.0
H2225 H 0.77937 0.25299 0.78867 0.0
H2226 H 0.78818 0.28436 0.8122 0.0
H2227 H 0.7289 0.22601 0.77843 0.0
H2228 H 0.79709 0.30466 0.75901 0.0
H2229 H 0.81309 0.35873 0.75464 0.0
H2230 H 0.73354 0.37485 0.7266 0.0
H2231 H 0.71653 0.32103 0.73126 0.0
C2232 C 0.73824 0.16244 0.70802 0.0
C2233 C 0.72055 0.17414 0.6957 0.0
C2234 C 0.7399 0.17863 0.72227 0.0
C2235 C 0.72377 0.2066 0.72435 0.0
C2236 C 0.7048 0.2172 0.71227 0.0
C2237 C 0.70323 0.20114 0.6981 0.0
C2238 C 0.72866 0.22639 0.73843 0.0
C2239 C 0.7381 0.25725 0.73618 0.0
C2240 C 0.7252 0.21501 0.75386 0.0
C2241 C 0.71322 0.18341 0.75703 0.0
C2242 C 0.68529 0.17384 0.75059 0.0
C2243 C 0.67399 0.14411 0.75364 0.0
C2244 C 0.69031 0.12378 0.7632 0.0
C2245 C 0.71798 0.13313 0.76975 0.0
C2246 C 0.72937 0.16287 0.76675 0.0
C2247 C 0.73836 0.33236 0.79355 0.0
C2248 C 0.75828 0.32176 0.80519 0.0
C2249 C 0.73285 0.31417 0.78023 0.0
C2250 C 0.74747 0.28529 0.7783 0.0
C2251 C 0.76779 0.27509 0.78988 0.0
C2252 C 0.7731 0.29313 0.8032 0.0
C2253 C 0.7415 0.26546 0.76433 0.0
C2254 C 0.73198 0.2346 0.7666 0.0
C2255 C 0.74464 0.27688 0.74888 0.0
C2256 C 0.75537 0.3089 0.74563 0.0
C2257 C 0.78291 0.31977 0.75199 0.0
C2258 C 0.79215 0.35041 0.74946 0.0
C2259 C 0.77434 0.37026 0.74033 0.0
C2260 C 0.74729 0.35946 0.73368 0.0
C2261 C 0.7378 0.32891 0.73629 0.0
H2262 H 0.78145 0.39401 0.73841 0.0
H2263 H 0.68141 0.10086 0.76556 0.0
H2264 H 0.25933 0.09019 0.7694 0.0
H2265 H 0.2727 0.13833 0.75606 0.0
H2266 H 0.21642 0.19006 0.78828 0.0
H2267 H 0.20273 0.14127 0.80166 0.0
H2268 H 0.20384 0.20504 0.75834 0.0
H2269 H 0.29365 0.19993 0.78869 0.0
H2270 H 0.33855 0.1758 0.80096 0.0
H2271 H 0.37571 0.15567 0.75557 0.0
H2272 H 0.33082 0.17925 0.74301 0.0
H2273 H 0.24731 0.33294 0.7095 0.0
H2274 H 0.24444 0.30304 0.73403 0.0
H2275 H 0.28841 0.22556 0.71126 0.0
H2276 H 0.29101 0.25516 0.68688 0.0
H2277 H 0.30837 0.23401 0.742 0.0
H2278 H 0.21328 0.22824 0.71277 0.0
H2279 H 0.168 0.2511 0.70022 0.0
H2280 H 0.14109 0.29156 0.74409 0.0
H2281 H 0.18652 0.26929 0.75684 0.0
C2282 C 0.25026 0.11192 0.7738 0.0
C2283 C 0.23003 0.11213 0.78652 0.0
C2284 C 0.25803 0.13947 0.76624 0.0
C2285 C 0.24582 0.16796 0.77122 0.0
C2286 C 0.22624 0.16839 0.78427 0.0
C2287 C 0.21857 0.14063 0.79195 0.0
C2288 C 0.25167 0.19644 0.76181 0.0
C2289 C 0.22674 0.21198 0.75515 0.0
C2290 C 0.28152 0.20532 0.75743 0.0
C2291 C 0.30876 0.1913 0.7649 0.0
C2292 C 0.3113 0.1902 0.78131 0.0
C2293 C 0.33677 0.17663 0.78832 0.0
C2294 C 0.35995 0.16419 0.77905 0.0
C2295 C 0.35774 0.16534 0.76274 0.0
C2296 C 0.33231 0.17887 0.75567 0.0
C2297 C 0.25696 0.3098 0.70992 0.0
C2298 C 0.26933 0.29624 0.69637 0.0
C2299 C 0.2552 0.29272 0.72387 0.0
C2300 C 0.26604 0.26198 0.72444 0.0
C2301 C 0.28 0.24922 0.71113 0.0
C2302 C 0.28142 0.26609 0.6972 0.0
C2303 C 0.26058 0.24179 0.73827 0.0
C2304 C 0.28555 0.22772 0.74565 0.0
C2305 C 0.23081 0.23427 0.74333 0.0
C2306 C 0.20346 0.24748 0.7357 0.0
C2307 C 0.19784 0.24223 0.7197 0.0
C2308 C 0.17213 0.25504 0.71256 0.0
C2309 C 0.15173 0.27286 0.72134 0.0
C2310 C 0.15695 0.27782 0.73729 0.0
C2311 C 0.18267 0.26512 0.74448 0.0
H2312 H 0.13183 0.28275 0.71579 0.0
H2313 H 0.37964 0.15368 0.7845 0.0
H2314 H 0.20342 0.66786 0.20177 0.0
H2315 H 0.20613 0.69903 0.22584 0.0
H2316 H 0.30185 0.71444 0.21796 0.0
H2317 H 0.29937 0.68286 0.19418 0.0
H2318 H 0.29063 0.70482 0.24859 0.0
H2319 H 0.24756 0.77306 0.208 0.0
H2320 H 0.2097 0.78751 0.18784 0.0
H2321 H 0.13763 0.77555 0.22117 0.0
H2322 H 0.17503 0.76138 0.24151 0.0
H2323 H 0.31329 0.8309 0.30045 0.0
H2324 H 0.31069 0.8004 0.27618 0.0
H2325 H 0.21324 0.79348 0.28116 0.0
H2326 H 0.21565 0.82499 0.30487 0.0
H2327 H 0.22484 0.79822 0.25207 0.0
H2328 H 0.26265 0.73284 0.29273 0.0
H2329 H 0.29644 0.71693 0.31431 0.0
H2330 H 0.37321 0.71906 0.28325 0.0
H2331 H 0.33979 0.73489 0.26143 0.0
C2332 C 0.22518 0.6772 0.20542 0.0
C2333 C 0.25117 0.67288 0.19606 0.0
C2334 C 0.22663 0.69543 0.21904 0.0
C2335 C 0.25408 0.70972 0.22356 0.0
C2336 C 0.28037 0.70391 0.21471 0.0
C2337 C 0.27893 0.6858 0.20111 0.0
C2338 C 0.25549 0.73136 0.23722 0.0
C2339 C 0.2765 0.72545 0.24925 0.0
C2340 C 0.23643 0.75779 0.23843 0.0
C2341 C 0.21401 0.76583 0.22616 0.0
C2342 C 0.22361 0.77328 0.21094 0.0
C2343 C 0.20228 0.78149 0.19952 0.0
C2344 C 0.17131 0.78218 0.20319 0.0
C2345 C 0.16161 0.7749 0.21833 0.0
C2346 C 0.18286 0.76691 0.22981 0.0
C2347 C 0.29127 0.82362 0.2961 0.0
C2348 C 0.26471 0.83016 0.30466 0.0
C2349 C 0.28982 0.80574 0.28235 0.0
C2350 C 0.26182 0.79381 0.277 0.0
C2351 C 0.23515 0.80207 0.28503 0.0
C2352 C 0.23657 0.82007 0.29864 0.0
C2353 C 0.26016 0.77187 0.26344 0.0
C2354 C 0.23909 0.77767 0.25143 0.0
C2355 C 0.2786 0.74491 0.26247 0.0
C2356 C 0.2988 0.73537 0.2755 0.0
C2357 C 0.28677 0.7301 0.29053 0.0
C2358 C 0.30584 0.72107 0.3028 0.0
C2359 C 0.33699 0.71722 0.30019 0.0
C2360 C 0.34909 0.72215 0.28526 0.0
C2361 C 0.33008 0.73105 0.27293 0.0
H2362 H 0.35172 0.71029 0.30972 0.0
H2363 H 0.15485 0.7885 0.19433 0.0
H2364 H 0.97374 0.56046 0.57297 0.0
H2365 H 1.00385 0.55548 0.54903 0.0
H2366 H 0.93405 0.49738 0.5288 0.0
H2367 H 0.90406 0.50201 0.55305 0.0
H2368 H 0.98949 0.47087 0.52654 0.0
H2369 H 0.94717 0.57025 0.5146 0.0
H2370 H 0.93319 0.62494 0.51936 0.0
H2371 H 0.0274 0.6487 0.52513 0.0
H2372 H 0.04194 0.59405 0.52061 0.0
H2373 H 0.04997 0.46836 0.44933 0.0
H2374 H 0.0196 0.47401 0.47314 0.0
H2375 H 0.09112 0.52877 0.49409 0.0
H2376 H 0.12164 0.52317 0.47005 0.0
H2377 H 0.0349 0.55706 0.49593 0.0
H2378 H 0.07687 0.45711 0.50769 0.0
H2379 H 0.09031 0.4024 0.50259 0.0
H2380 H 0.99585 0.37974 0.49675 0.0
H2381 H 0.98187 0.43443 0.50161 0.0
C2382 C 0.96455 0.54729 0.56323 0.0
C2383 C 0.9366 0.5318 0.5647 0.0
C2384 C 0.98172 0.54446 0.54957 0.0
C2385 C 0.97116 0.52619 0.53707 0.0
C2386 C 0.94259 0.51165 0.5383 0.0
C2387 C 0.92534 0.51453 0.55203 0.0
C2388 C 0.99108 0.52048 0.52332 0.0
C2389 C 0.99899 0.4897 0.51967 0.0
C2390 C 1.00427 0.54508 0.51468 0.0
C2391 C 0.99562 0.57798 0.51741 0.0
C2392 C 0.9649 0.58708 0.51702 0.0
C2393 C 0.95687 0.61809 0.51964 0.0
C2394 C 0.97938 0.64026 0.52258 0.0
C2395 C 0.00998 0.63149 0.52286 0.0
C2396 C 0.01813 0.60051 0.52025 0.0
C2397 C 0.05947 0.48095 0.45919 0.0
C2398 C 0.08815 0.49514 0.458 0.0
C2399 C 0.04213 0.4842 0.47276 0.0
C2400 C 0.05314 0.5017 0.48542 0.0
C2401 C 0.08226 0.51511 0.48445 0.0
C2402 C 0.09976 0.51169 0.47084 0.0
C2403 C 0.03327 0.50748 0.49918 0.0
C2404 C 0.02538 0.53826 0.50282 0.0
C2405 C 0.02001 0.48287 0.50777 0.0
C2406 C 0.02835 0.44994 0.50488 0.0
C2407 C 0.05898 0.44052 0.50519 0.0
C2408 C 0.06669 0.4095 0.50237 0.0
C2409 C 0.04395 0.38763 0.49931 0.0
C2410 C 0.01345 0.39672 0.49911 0.0
C2411 C 0.00561 0.42772 0.50191 0.0
H2412 H 0.04997 0.36362 0.49713 0.0
H2413 H 0.97313 0.66426 0.52461 0.0
H2414 H 0.54748 0.53288 0.0518 0.0
H2415 H 0.51888 0.53884 0.02746 0.0
H2416 H 0.5451 0.44636 0.01337 0.0
H2417 H 0.57389 0.44028 0.03783 0.0
H2418 H 0.54493 0.48581 0.98863 0.0
H2419 H 0.47686 0.45785 0.02953 0.0
H2420 H 0.45351 0.46186 0.05571 0.0
H2421 H 0.42057 0.55317 0.04474 0.0
H2422 H 0.4442 0.54995 0.01858 0.0
H2423 H 0.391 0.48435 0.94408 0.0
H2424 H 0.41828 0.47689 0.96901 0.0
H2425 H 0.4825 0.54797 0.95579 0.0
H2426 H 0.45544 0.55528 0.93106 0.0
H2427 H 0.43555 0.51233 0.9943 0.0
H2428 H 0.55436 0.5226 0.96456 0.0
H2429 H 0.57855 0.51228 0.93901 0.0
H2430 H 0.50829 0.44667 0.92772 0.0
H2431 H 0.484 0.45611 0.95331 0.0
C2432 C 0.54752 0.51397 0.04341 0.0
C2433 C 0.56272 0.486 0.04679 0.0
C2434 C 0.53105 0.51735 0.02953 0.0
C2435 C 0.52923 0.49279 0.01874 0.0
C2436 C 0.54601 0.46555 0.02158 0.0
C2437 C 0.5626 0.46216 0.03551 0.0
C2438 C 0.50874 0.49522 0.0049 0.0
C2439 C 0.52105 0.49167 0.98986 0.0
C2440 C 0.47731 0.50194 0.00652 0.0
C2441 C 0.46253 0.50375 0.02213 0.0
C2442 C 0.4648 0.47887 0.03273 0.0
C2443 C 0.45151 0.481 0.04757 0.0
C2444 C 0.43563 0.50778 0.0519 0.0
C2445 C 0.43291 0.53245 0.04138 0.0
C2446 C 0.44623 0.53048 0.02654 0.0
C2447 C 0.41037 0.49895 0.94679 0.0
C2448 C 0.42114 0.5204 0.93574 0.0
C2449 C 0.42606 0.49458 0.96094 0.0
C2450 C 0.45282 0.51143 0.96412 0.0
C2451 C 0.46226 0.53431 0.9535 0.0
C2452 C 0.44666 0.53867 0.93944 0.0
C2453 C 0.47202 0.50407 0.978 0.0
C2454 C 0.45944 0.50656 0.99305 0.0
C2455 C 0.50309 0.49571 0.9764 0.0
C2456 C 0.51725 0.49025 0.96084 0.0
C2457 C 0.54412 0.5059 0.95665 0.0
C2458 C 0.55789 0.50015 0.94218 0.0
C2459 C 0.54505 0.47871 0.9318 0.0
C2460 C 0.51825 0.46321 0.9358 0.0
C2461 C 0.50445 0.46879 0.95028 0.0
H2462 H 0.55587 0.47414 0.92065 0.0
H2463 H 0.42538 0.50938 0.06339 0.0
H2464 H 0.3109 0.69267 0.14573 0.0
H2465 H 0.3199 0.74227 0.13259 0.0
H2466 H 0.22604 0.74489 0.11801 0.0
H2467 H 0.21707 0.69498 0.131 0.0
H2468 H 0.26838 0.77714 0.09693 0.0
H2469 H 0.24082 0.77041 0.15217 0.0
H2470 H 0.24872 0.74973 0.17876 0.0
H2471 H 0.33803 0.78993 0.18004 0.0
H2472 H 0.33114 0.80986 0.15319 0.0
H2473 H 0.24165 0.9414 0.09948 0.0
H2474 H 0.24088 0.88451 0.10053 0.0
H2475 H 0.32399 0.88557 0.1275 0.0
H2476 H 0.32368 0.94225 0.12726 0.0
H2477 H 0.28807 0.84985 0.14096 0.0
H2478 H 0.31742 0.85924 0.08722 0.0
H2479 H 0.31365 0.87775 0.05998 0.0
H2480 H 0.22662 0.83345 0.0552 0.0
H2481 H 0.22966 0.81503 0.0825 0.0
C2482 C 0.2926 0.70311 0.13907 0.0
C2483 C 0.26324 0.69022 0.13947 0.0
C2484 C 0.29772 0.73147 0.1316 0.0
C2485 C 0.27347 0.74754 0.12462 0.0
C2486 C 0.24504 0.73288 0.12334 0.0
C2487 C 0.23995 0.70432 0.13074 0.0
C2488 C 0.27611 0.78143 0.12171 0.0
C2489 C 0.27255 0.79318 0.10651 0.0
C2490 C 0.282 0.80223 0.13422 0.0
C2491 C 0.28558 0.79136 0.15061 0.0
C2492 C 0.2622 0.77472 0.15809 0.0
C2493 C 0.26649 0.76317 0.17321 0.0
C2494 C 0.29381 0.76859 0.1811 0.0
C2495 C 0.31689 0.7857 0.1739 0.0
C2496 C 0.31284 0.79708 0.15872 0.0
C2497 C 0.25992 0.92937 0.10545 0.0
C2498 C 0.28261 0.94616 0.11338 0.0
C2499 C 0.2596 0.89681 0.10597 0.0
C2500 C 0.28252 0.88049 0.11401 0.0
C2501 C 0.3059 0.89744 0.12132 0.0
C2502 C 0.30576 0.92987 0.12115 0.0
C2503 C 0.28102 0.84608 0.11601 0.0
C2504 C 0.28435 0.83409 0.13121 0.0
C2505 C 0.27542 0.82522 0.10343 0.0
C2506 C 0.27365 0.83599 0.08696 0.0
C2507 C 0.29738 0.85362 0.0804 0.0
C2508 C 0.29539 0.86407 0.06494 0.0
C2509 C 0.26988 0.85685 0.05588 0.0
C2510 C 0.24635 0.83906 0.06224 0.0
C2511 C 0.24821 0.82857 0.0777 0.0
H2512 H 0.26836 0.865 0.04392 0.0
H2513 H 0.2971 0.75954 0.19279 0.0
H2514 H 0.08209 0.56885 0.40961 0.0
H2515 H 0.03522 0.58466 0.39634 0.0
H2516 H 0.02204 0.49051 0.38026 0.0
H2517 H 0.06939 0.47498 0.39315 0.0
H2518 H 0.99629 0.53159 0.36001 0.0
H2519 H 0.99382 0.51092 0.41553 0.0
H2520 H 0.00962 0.51693 0.44308 0.0
H2521 H 0.98808 0.61416 0.44134 0.0
H2522 H 0.97199 0.60866 0.41375 0.0
H2523 H 0.83783 0.50475 0.36897 0.0
H2524 H 0.89329 0.50535 0.3706 0.0
H2525 H 0.89156 0.60366 0.38039 0.0
H2526 H 0.83586 0.60339 0.37861 0.0
H2527 H 0.92609 0.56801 0.40172 0.0
H2528 H 0.91739 0.58199 0.34635 0.0
H2529 H 0.8985 0.57018 0.31982 0.0
H2530 H 0.93911 0.47957 0.32201 0.0
H2531 H 0.95786 0.49065 0.34867 0.0
C2532 C 0.06998 0.552 0.40252 0.0
C2533 C 0.0792 0.52078 0.40233 0.0
C2534 C 0.04307 0.56092 0.3951 0.0
C2535 C 0.02472 0.53856 0.38769 0.0
C2536 C 0.03577 0.50812 0.38596 0.0
C2537 C 0.06291 0.49927 0.39324 0.0
C2538 C 0.99235 0.54542 0.38417 0.0
C2539 C 0.98092 0.53959 0.3691 0.0
C2540 C 0.97228 0.55599 0.39603 0.0
C2541 C 0.98206 0.55946 0.41256 0.0
C2542 C 0.99263 0.53361 0.421 0.0
C2543 C 1.00156 0.5369 0.43663 0.0
C2544 C 1.00005 0.56594 0.44393 0.0
C2545 C 0.98935 0.5917 0.43565 0.0
C2546 C 0.98022 0.5885 0.42004 0.0
C2547 C 0.8492 0.52657 0.37139 0.0
C2548 C 0.83244 0.55403 0.37372 0.0
C2549 C 0.88092 0.5269 0.37219 0.0
C2550 C 0.8965 0.5546 0.37546 0.0
C2551 C 0.87991 0.58209 0.37775 0.0
C2552 C 0.84813 0.58188 0.37673 0.0
C2553 C 0.92996 0.55415 0.37758 0.0
C2554 C 0.94155 0.56087 0.39248 0.0
C2555 C 0.94991 0.54378 0.36565 0.0
C2556 C 0.93887 0.5371 0.34956 0.0
C2557 C 0.9221 0.55946 0.34123 0.0
C2558 C 0.91145 0.55291 0.32615 0.0
C2559 C 0.91756 0.52413 0.31924 0.0
C2560 C 0.93439 0.50186 0.32738 0.0
C2561 C 0.94508 0.50828 0.34247 0.0
H2562 H 0.90929 0.5191 0.30757 0.0
H2563 H 0.00707 0.56844 0.45602 0.0
H2564 H 0.23478 0.0455 0.62452 0.0
H2565 H 0.2319 0.10142 0.62814 0.0
H2566 H 0.19386 0.11144 0.58181 0.0
H2567 H 0.19577 0.05476 0.57831 0.0
H2568 H 0.26136 0.14367 0.61333 0.0
H2569 H 0.15176 0.18066 0.58154 0.0
H2570 H 0.10171 0.15896 0.57428 0.0
H2571 H 0.10543 0.097 0.61359 0.0
H2572 H 0.15529 0.11859 0.62117 0.0
H2573 H 0.26836 0.29955 0.62404 0.0
H2574 H 0.25384 0.25679 0.60686 0.0
H2575 H 0.18165 0.23187 0.63864 0.0
H2576 H 0.19484 0.27575 0.65541 0.0
H2577 H 0.16945 0.21012 0.60929 0.0
H2578 H 0.25217 0.20836 0.64682 0.0
H2579 H 0.29973 0.22826 0.65842 0.0
H2580 H 0.34603 0.21424 0.61469 0.0
H2581 H 0.29851 0.19476 0.60276 0.0
C2582 C 0.22562 0.05951 0.61511 0.0
C2583 C 0.21572 0.04581 0.60108 0.0
C2584 C 0.22403 0.09152 0.61718 0.0
C2585 C 0.21286 0.11069 0.60522 0.0
C2586 C 0.20234 0.09708 0.59126 0.0
C2587 C 0.2035 0.06477 0.58926 0.0
C2588 C 0.21368 0.14486 0.60745 0.0
C2589 C 0.24129 0.15819 0.61223 0.0
C2590 C 0.18752 0.16388 0.6061 0.0
C2591 C 0.15741 0.15096 0.60178 0.0
C2592 C 0.14185 0.16245 0.58864 0.0
C2593 C 0.11352 0.15017 0.58447 0.0
C2594 C 0.10046 0.12652 0.59343 0.0
C2595 C 0.11563 0.11521 0.60662 0.0
C2596 C 0.14394 0.12743 0.61084 0.0
C2597 C 0.24839 0.28606 0.62699 0.0
C2598 C 0.2334 0.29036 0.64138 0.0
C2599 C 0.24016 0.26149 0.61715 0.0
C2600 C 0.21736 0.24056 0.62176 0.0
C2601 C 0.19958 0.2475 0.63494 0.0
C2602 C 0.20745 0.27235 0.64465 0.0
C2603 C 0.21695 0.20849 0.61543 0.0
C2604 C 0.18961 0.19564 0.6099 0.0
C2605 C 0.24305 0.18937 0.61666 0.0
C2606 C 0.27177 0.20048 0.62385 0.0
C2607 C 0.27247 0.20967 0.63966 0.0
C2608 C 0.2994 0.22089 0.6463 0.0
C2609 C 0.32588 0.22258 0.63728 0.0
C2610 C 0.32549 0.21298 0.62164 0.0
C2611 C 0.29856 0.20188 0.61493 0.0
H2612 H 0.34671 0.23127 0.64243 0.0
H2613 H 0.07854 0.11703 0.59018 0.0
H2614 H 0.69777 0.44946 0.85698 0.0
H2615 H 0.64237 0.45024 0.85965 0.0
H2616 H 0.64244 0.54973 0.85371 0.0
H2617 H 0.69769 0.54928 0.85133 0.0
H2618 H 0.60764 0.53453 0.87757 0.0
H2619 H 0.61772 0.49868 0.82442 0.0
H2620 H 0.6365 0.46433 0.80339 0.0
H2621 H 0.59377 0.38601 0.82537 0.0
H2622 H 0.57505 0.41984 0.84664 0.0
H2623 H 0.45074 0.55643 0.87294 0.0
H2624 H 0.50183 0.552 0.86161 0.0
H2625 H 0.50519 0.4555 0.87495 0.0
H2626 H 0.45429 0.46001 0.88645 0.0
H2627 H 0.5373 0.46895 0.84629 0.0
H2628 H 0.52832 0.50349 0.89939 0.0
H2629 H 0.50924 0.53666 0.92077 0.0
H2630 H 0.55053 0.61647 0.89944 0.0
H2631 H 0.56936 0.5838 0.87772 0.0
C2632 C 0.68603 0.47151 0.85611 0.0
C2633 C 0.70239 0.49931 0.85394 0.0
C2634 C 0.65425 0.4719 0.85758 0.0
C2635 C 0.63805 0.50003 0.85675 0.0
C2636 C 0.65432 0.52772 0.85442 0.0
C2637 C 0.68603 0.52738 0.85302 0.0
C2638 C 0.60435 0.50093 0.8589 0.0
C2639 C 0.5923 0.52058 0.87051 0.0
C2640 C 0.5842 0.48209 0.85004 0.0
C2641 C 0.59522 0.46175 0.8372 0.0
C2642 C 0.6125 0.4741 0.82482 0.0
C2643 C 0.62311 0.45473 0.81285 0.0
C2644 C 0.6164 0.42299 0.81306 0.0
C2645 C 0.59898 0.41059 0.82523 0.0
C2646 C 0.58833 0.42985 0.83723 0.0
C2647 C 0.46182 0.53395 0.87279 0.0
C2648 C 0.44859 0.50852 0.88049 0.0
C2649 C 0.4911 0.53148 0.86643 0.0
C2650 C 0.50747 0.50351 0.86762 0.0
C2651 C 0.49299 0.47726 0.87387 0.0
C2652 C 0.46388 0.47982 0.88039 0.0
C2653 C 0.54083 0.50291 0.86471 0.0
C2654 C 0.55274 0.48316 0.85315 0.0
C2655 C 0.56096 0.52153 0.87367 0.0
C2656 C 0.54999 0.54121 0.88682 0.0
C2657 C 0.53314 0.52814 0.89918 0.0
C2658 C 0.52236 0.54685 0.91136 0.0
C2659 C 0.52861 0.57867 0.91145 0.0
C2660 C 0.54568 0.59182 0.89935 0.0
C2661 C 0.55639 0.57321 0.88708 0.0
H2662 H 0.52028 0.59312 0.92091 0.0
H2663 H 0.62464 0.40803 0.80379 0.0
H2664 H 0.78365 0.07899 0.89911 0.0
H2665 H 0.77701 0.13491 0.89505 0.0
H2666 H 0.68071 0.12573 0.90335 0.0
H2667 H 0.68723 0.06983 0.90794 0.0
H2668 H 0.71467 0.15561 0.87108 0.0
H2669 H 0.69576 0.16124 0.92745 0.0
H2670 H 0.70893 0.14965 0.95489 0.0
H2671 H 0.79504 0.19535 0.94915 0.0
H2672 H 0.78256 0.20674 0.92158 0.0
H2673 H 0.69437 0.31049 0.85375 0.0
H2674 H 0.68354 0.26435 0.86948 0.0
H2675 H 0.77476 0.26711 0.88808 0.0
H2676 H 0.7855 0.3134 0.87252 0.0
H2677 H 0.73617 0.24069 0.90885 0.0
H2678 H 0.76205 0.23118 0.85467 0.0
H2679 H 0.75806 0.23932 0.8262 0.0
H2680 H 0.66933 0.19763 0.82614 0.0
H2681 H 0.67256 0.18976 0.85473 0.0
C2682 C 0.76111 0.08894 0.90022 0.0
C2683 C 0.73594 0.07017 0.90381 0.0
C2684 C 0.75741 0.12081 0.898 0.0
C2685 C 0.72847 0.13424 0.89911 0.0
C2686 C 0.70326 0.11566 0.9027 0.0
C2687 C 0.70703 0.08385 0.90527 0.0
C2688 C 0.72453 0.16719 0.89505 0.0
C2689 C 0.71843 0.17435 0.87939 0.0
C2690 C 0.73088 0.19122 0.90584 0.0
C2691 C 0.73837 0.1845 0.92241 0.0
C2692 C 0.71765 0.16848 0.93198 0.0
C2693 C 0.72495 0.16204 0.94757 0.0
C2694 C 0.75284 0.17167 0.95375 0.0
C2695 C 0.77346 0.18785 0.94435 0.0
C2696 C 0.76627 0.19433 0.92875 0.0
C2697 C 0.71161 0.30198 0.86173 0.0
C2698 C 0.74088 0.31509 0.8618 0.0
C2699 C 0.70547 0.2756 0.87065 0.0
C2700 C 0.72864 0.26188 0.87956 0.0
C2701 C 0.75663 0.27726 0.88118 0.0
C2702 C 0.76273 0.30378 0.87233 0.0
C2703 C 0.72573 0.22932 0.88485 0.0
C2704 C 0.73119 0.22213 0.90063 0.0
C2705 C 0.71965 0.20503 0.87404 0.0
C2706 C 0.7173 0.21042 0.8569 0.0
C2707 C 0.74149 0.22416 0.84864 0.0
C2708 C 0.73941 0.22865 0.83247 0.0
C2709 C 0.71338 0.21918 0.82437 0.0
C2710 C 0.68941 0.20513 0.83244 0.0
C2711 C 0.69133 0.20068 0.84864 0.0
H2712 H 0.71187 0.22261 0.81184 0.0
H2713 H 0.75845 0.16667 0.96582 0.0
H2714 H 0.18771 0.5114 0.66154 0.0
H2715 H 0.13234 0.51025 0.65979 0.0
H2716 H 0.13662 0.42206 0.63583 0.0
H2717 H 0.19217 0.42297 0.63748 0.0
H2718 H 0.10328 0.46551 0.61997 0.0
H2719 H 0.10768 0.42555 0.67212 0.0
H2720 H 0.12366 0.42428 0.69978 0.0
H2721 H 0.08067 0.51248 0.70777 0.0
H2722 H 0.0648 0.51451 0.68009 0.0
H2723 H 0.94894 0.45515 0.60956 0.0
H2724 H 0.99576 0.43912 0.62273 0.0
H2725 H 1.0019 0.52901 0.64491 0.0
H2726 H 0.95477 0.54501 0.63183 0.0
H2727 H 0.02857 0.47944 0.66303 0.0
H2728 H 0.03377 0.5249 0.61147 0.0
H2729 H 0.01887 0.5304 0.58379 0.0
H2730 H 0.0449 0.43584 0.57493 0.0
H2731 H 0.05999 0.4298 0.60263 0.0
C2732 C 0.17694 0.49152 0.65606 0.0
C2733 C 0.19447 0.46738 0.64954 0.0
C2734 C 0.14522 0.49081 0.65519 0.0
C2735 C 0.13036 0.46599 0.64776 0.0
C2736 C 0.14768 0.44138 0.64167 0.0
C2737 C 0.17943 0.44193 0.64264 0.0
C2738 C 0.09708 0.46737 0.64499 0.0
C2739 C 0.08693 0.46776 0.62943 0.0
C2740 C 0.07584 0.47147 0.6573 0.0
C2741 C 0.08524 0.47028 0.67398 0.0
C2742 C 0.10183 0.4448 0.67974 0.0
C2743 C 0.11084 0.44392 0.69543 0.0
C2744 C 0.10324 0.46831 0.70552 0.0
C2745 C 0.08656 0.49361 0.69994 0.0
C2746 C 0.07751 0.49461 0.68425 0.0
C2747 C 0.95951 0.47091 0.61785 0.0
C2748 C 0.94848 0.50132 0.61966 0.0
C2749 C 0.98629 0.4618 0.62531 0.0
C2750 C 1.00255 0.48312 0.63453 0.0
C2751 C 0.98966 0.51225 0.63783 0.0
C2752 C 0.9627 0.52134 0.63041 0.0
C2753 C 0.03504 0.47728 0.63808 0.0
C2754 C 0.045 0.47646 0.65367 0.0
C2755 C 0.05635 0.47324 0.62582 0.0
C2756 C 0.04768 0.47679 0.60913 0.0
C2757 C 0.03615 0.50523 0.60363 0.0
C2758 C 0.02773 0.50847 0.58794 0.0
C2759 C 0.03074 0.48344 0.57762 0.0
C2760 C 0.04248 0.45518 0.58295 0.0
C2761 C 0.05106 0.45186 0.59864 0.0
H2762 H 0.02408 0.48597 0.56548 0.0
H2763 H 0.11024 0.46759 0.71766 0.0
H2764 H 0.74414 0.94952 0.40934 0.0
H2765 H 0.73956 0.89301 0.4067 0.0
H2766 H 0.7927 0.89611 0.36425 0.0
H2767 H 0.79618 0.95247 0.36648 0.0
H2768 H 0.74937 0.85883 0.35941 0.0
H2769 H 0.82071 0.86895 0.40137 0.0
H2770 H 0.84015 0.88716 0.42687 0.0
H2771 H 0.76619 0.84165 0.45033 0.0
H2772 H 0.74606 0.8235 0.42493 0.0
H2773 H 0.78582 0.69755 0.35444 0.0
H2774 H 0.78773 0.75396 0.35764 0.0
H2775 H 0.72383 0.74806 0.39582 0.0
H2776 H 0.72202 0.69147 0.39279 0.0
H2777 H 0.77102 0.78628 0.40304 0.0
H2778 H 0.70255 0.77396 0.35924 0.0
H2779 H 0.68739 0.755 0.33311 0.0
H2780 H 0.76197 0.80435 0.31228 0.0
H2781 H 0.77786 0.82323 0.33832 0.0
C2782 C 0.755 0.93811 0.3995 0.0
C2783 C 0.77056 0.95563 0.38815 0.0
C2784 C 0.75248 0.90569 0.39802 0.0
C2785 C 0.76607 0.8899 0.38535 0.0
C2786 C 0.78185 0.90746 0.37411 0.0
C2787 C 0.78394 0.93982 0.37544 0.0
C2788 C 0.76348 0.8553 0.38352 0.0
C2789 C 0.75451 0.84305 0.36894 0.0
C2790 C 0.76963 0.83436 0.39594 0.0
C2791 C 0.7817 0.84516 0.41123 0.0
C2792 C 0.80846 0.86302 0.41196 0.0
C2793 C 0.81963 0.8733 0.4264 0.0
C2794 C 0.80437 0.86564 0.44021 0.0
C2795 C 0.77795 0.84761 0.43962 0.0
C2796 C 0.76667 0.8373 0.4252 0.0
C2797 C 0.772 0.70819 0.36347 0.0
C2798 C 0.75367 0.68983 0.37332 0.0
C2799 C 0.77305 0.74057 0.36526 0.0
C2800 C 0.75571 0.75548 0.37689 0.0
C2801 C 0.73741 0.73721 0.38674 0.0
C2802 C 0.73628 0.7048 0.38494 0.0
C2803 C 0.75712 0.78999 0.37895 0.0
C2804 C 0.76583 0.80217 0.39356 0.0
C2805 C 0.75135 0.81084 0.36646 0.0
C2806 C 0.74157 0.79977 0.35077 0.0
C2807 C 0.71585 0.78059 0.34911 0.0
C2808 C 0.70711 0.76988 0.33431 0.0
C2809 C 0.72376 0.77838 0.32105 0.0
C2810 C 0.74912 0.79773 0.32256 0.0
C2811 C 0.75799 0.80846 0.33734 0.0
H2812 H 0.71698 0.77003 0.30961 0.0
H2813 H 0.81305 0.87362 0.45138 0.0
H2814 H 0.54853 0.44061 0.11452 0.0
H2815 H 0.50398 0.44528 0.13167 0.0
H2816 H 0.48573 0.53636 0.11283 0.0
H2817 H 0.53069 0.53227 0.09625 0.0
H2818 H 0.46915 0.5358 0.14206 0.0
H2819 H 0.45289 0.46934 0.09738 0.0
H2820 H 0.46313 0.42461 0.08007 0.0
H2821 H 0.44678 0.36197 0.11824 0.0
H2822 H 0.43686 0.40641 0.13584 0.0
H2823 H 0.30888 0.54601 0.13386 0.0
H2824 H 0.36368 0.54002 0.13017 0.0
H2825 H 0.36484 0.46585 0.16402 0.0
H2826 H 0.30972 0.47227 0.16809 0.0
H2827 H 0.39242 0.45331 0.13256 0.0
H2828 H 0.39787 0.52546 0.17534 0.0
H2829 H 0.38413 0.57323 0.18966 0.0
H2830 H 0.4172 0.6287 0.15156 0.0
H2831 H 0.43073 0.58125 0.1369 0.0
C2832 C 0.5356 0.46203 0.11446 0.0
C2833 C 0.54287 0.4859 0.10389 0.0
C2834 C 0.50993 0.46455 0.12413 0.0
C2835 C 0.49097 0.49086 0.12328 0.0
C2836 C 0.49976 0.51573 0.11368 0.0
C2837 C 0.52542 0.51331 0.10412 0.0
C2838 C 0.46057 0.49159 0.13103 0.0
C2839 C 0.45245 0.51769 0.14002 0.0
C2840 C 0.43867 0.46789 0.12851 0.0
C2841 C 0.44455 0.44117 0.11797 0.0
C2842 C 0.45171 0.44603 0.1021 0.0
C2843 C 0.45742 0.42074 0.09224 0.0
C2844 C 0.4557 0.39047 0.09806 0.0
C2845 C 0.44818 0.38543 0.11376 0.0
C2846 C 0.44252 0.41065 0.12368 0.0
C2847 C 0.32082 0.52866 0.14068 0.0
C2848 C 0.30502 0.50957 0.15126 0.0
C2849 C 0.35215 0.52534 0.13859 0.0
C2850 C 0.36831 0.50256 0.14685 0.0
C2851 C 0.35275 0.48366 0.15759 0.0
C2852 C 0.32136 0.48743 0.15994 0.0
C2853 C 0.40104 0.49764 0.14337 0.0
C2854 C 0.40946 0.4709 0.13502 0.0
C2855 C 0.42291 0.52112 0.14612 0.0
C2856 C 0.41517 0.54975 0.15498 0.0
C2857 C 0.40203 0.54783 0.16997 0.0
C2858 C 0.3943 0.57487 0.17815 0.0
C2859 C 0.39975 0.60399 0.17151 0.0
C2860 C 0.413 0.60613 0.15669 0.0
C2861 C 0.42075 0.57917 0.14844 0.0
H2862 H 0.39373 0.62488 0.17787 0.0
H2863 H 0.46012 0.37092 0.09041 0.0
H2864 H 0.81517 0.4515 0.61531 0.0
H2865 H 0.81527 0.39468 0.61792 0.0
H2866 H 0.71717 0.39483 0.6195 0.0
H2867 H 0.71691 0.4511 0.61728 0.0
H2868 H 0.738 0.36051 0.64204 0.0
H2869 H 0.75899 0.36976 0.58682 0.0
H2870 H 0.78749 0.38768 0.56366 0.0
H2871 H 0.86758 0.34104 0.58023 0.0
H2872 H 0.83964 0.32319 0.60361 0.0
H2873 H 0.69995 0.20525 0.63262 0.0
H2874 H 0.71046 0.25691 0.62186 0.0
H2875 H 0.80351 0.25022 0.63739 0.0
H2876 H 0.79284 0.1988 0.64849 0.0
H2877 H 0.78942 0.28636 0.60617 0.0
H2878 H 0.76857 0.28011 0.66209 0.0
H2879 H 0.73943 0.26166 0.68494 0.0
H2880 H 0.65825 0.30295 0.6663 0.0
H2881 H 0.68688 0.32127 0.64322 0.0
C2882 C 0.79365 0.43935 0.61611 0.0
C2883 C 0.76607 0.45594 0.61622 0.0
C2884 C 0.79372 0.40685 0.61754 0.0
C2885 C 0.76619 0.39035 0.61886 0.0
C2886 C 0.73872 0.40693 0.6186 0.0
C2887 C 0.73864 0.43923 0.61733 0.0
C2888 C 0.76555 0.35605 0.62125 0.0
C2889 C 0.74906 0.34444 0.63406 0.0
C2890 C 0.78055 0.33485 0.61112 0.0
C2891 C 0.79732 0.34542 0.59704 0.0
C2892 C 0.78274 0.36353 0.58559 0.0
C2893 C 0.79878 0.37364 0.57241 0.0
C2894 C 0.82935 0.36558 0.5705 0.0
C2895 C 0.84391 0.34731 0.58174 0.0
C2896 C 0.82798 0.33717 0.59495 0.0
C2897 C 0.723 0.21415 0.63302 0.0
C2898 C 0.74566 0.19805 0.64125 0.0
C2899 C 0.72894 0.24371 0.62697 0.0
C2900 C 0.75772 0.25738 0.62891 0.0
C2901 C 0.78125 0.23996 0.63567 0.0
C2902 C 0.77517 0.21059 0.64195 0.0
C2903 C 0.7614 0.29132 0.62667 0.0
C2904 C 0.7785 0.30269 0.61406 0.0
C2905 C 0.74698 0.31248 0.63693 0.0
C2906 C 0.72978 0.30175 0.65086 0.0
C2907 C 0.74445 0.285 0.6628 0.0
C2908 C 0.72805 0.27462 0.6758 0.0
C2909 C 0.69699 0.28105 0.67705 0.0
C2910 C 0.6823 0.29794 0.66531 0.0
C2911 C 0.69861 0.30835 0.65227 0.0
H2912 H 0.68433 0.27305 0.68713 0.0
H2913 H 0.84173 0.37343 0.56029 0.0
H2914 H 0.55759 0.06921 0.9126 0.0
H2915 H 0.51154 0.0847 0.89853 0.0
H2916 H 0.5066 0.99373 0.87736 0.0
H2917 H 0.55315 0.97853 0.89113 0.0
H2918 H 0.481 0.03761 0.85834 0.0
H2919 H 0.47408 0.00464 0.9118 0.0
H2920 H 0.48698 0.00507 0.93991 0.0
H2921 H 0.45651 0.09959 0.94358 0.0
H2922 H 0.44378 0.09984 0.91541 0.0
H2923 H 0.32202 1.00191 0.86301 0.0
H2924 H 0.37729 0.0041 0.86598 0.0
H2925 H 0.37193 0.10226 0.87573 0.0
H2926 H 0.31656 0.10047 0.87234 0.0
H2927 H 0.40357 0.06145 0.89896 0.0
H2928 H 0.40253 0.08756 0.84427 0.0
H2929 H 0.38777 0.08052 0.81664 0.0
H2930 H 0.43078 0.99096 0.81599 0.0
H2931 H 0.44541 0.99726 0.8437 0.0
C2932 C 0.54742 0.0531 0.90437 0.0
C2933 C 0.55865 0.02269 0.90295 0.0
C2934 C 0.52105 0.06185 0.89642 0.0
C2935 C 0.50525 0.04007 0.88724 0.0
C2936 C 0.51838 0.01084 0.88444 0.0
C2937 C 0.54501 1.00219 0.89225 0.0
C2938 C 0.47308 0.04574 0.8829 0.0
C2939 C 0.46407 0.04287 0.8672 0.0
C2940 C 0.45095 0.05249 0.89449 0.0
C2941 C 0.45833 0.05239 0.91147 0.0
C2942 C 0.47033 0.02559 0.91858 0.0
C2943 C 0.47757 0.02569 0.93452 0.0
C2944 C 0.47267 0.05237 0.94351 0.0
C2945 C 0.46037 0.07897 0.93659 0.0
C2946 C 0.45312 0.079 0.92064 0.0
C2947 C 0.33259 0.02406 0.86563 0.0
C2948 C 0.31489 0.05101 0.86757 0.0
C2949 C 0.36416 0.02527 0.86723 0.0
C2950 C 0.37858 0.05335 0.87101 0.0
C2951 C 0.36112 0.08042 0.87273 0.0
C2952 C 0.32953 0.07935 0.87081 0.0
C2953 C 0.41154 0.05359 0.87441 0.0
C2954 C 0.42063 0.05708 0.89003 0.0
C2955 C 0.43346 0.04659 0.86281 0.0
C2956 C 0.42486 0.0428 0.84611 0.0
C2957 C 0.40862 0.06625 0.83828 0.0
C2958 C 0.40032 0.06241 0.82259 0.0
C2959 C 0.40828 0.03528 0.81457 0.0
C2960 C 0.42462 0.01196 0.82222 0.0
C2961 C 0.43296 0.01567 0.83791 0.0
H2962 H 0.40183 0.03235 0.80243 0.0
H2963 H 0.47831 0.05241 0.95585 0.0
H2964 H 0.71153 0.78623 0.15249 0.0
H2965 H 0.69905 0.74088 0.13637 0.0
H2966 H 0.78922 0.74282 0.11643 0.0
H2967 H 0.80161 0.7884 0.13236 0.0
H2968 H 0.7486 0.72281 0.09514 0.0
H2969 H 0.77427 0.70072 0.1485 0.0
H2970 H 0.77043 0.70345 0.17727 0.0
H2971 H 0.67972 0.6667 0.17517 0.0
H2972 H 0.68276 0.66441 0.14634 0.0
H2973 H 0.78132 0.56082 0.08597 0.0
H2974 H 0.77883 0.61635 0.09184 0.0
H2975 H 0.68433 0.60699 0.1045 0.0
H2976 H 0.68646 0.55149 0.09861 0.0
H2977 H 0.7215 0.63198 0.12802 0.0
H2978 H 0.70074 0.64833 0.07359 0.0
H2979 H 0.70972 0.64213 0.04526 0.0
H2980 H 0.79705 0.68585 0.04994 0.0
H2981 H 0.78881 0.69189 0.07836 0.0
C2982 C 0.72837 0.77742 0.14435 0.0
C2983 C 0.75762 0.79053 0.14377 0.0
C2984 C 0.72126 0.75152 0.13519 0.0
C2985 C 0.74346 0.73809 0.12549 0.0
C2986 C 0.7718 0.75277 0.12389 0.0
C2987 C 0.77884 0.77884 0.13296 0.0
C2988 C 0.73848 0.70698 0.11849 0.0
C2989 C 0.74271 0.70292 0.10231 0.0
C2990 C 0.73062 0.68106 0.12787 0.0
C2991 C 0.72855 0.68292 0.14522 0.0
C2992 C 0.75335 0.69362 0.15415 0.0
C2993 C 0.75133 0.69503 0.17048 0.0
C2994 C 0.72479 0.68541 0.17804 0.0
C2995 C 0.7002 0.67432 0.16929 0.0
C2996 C 0.70204 0.673 0.15295 0.0
C2997 C 0.75983 0.57066 0.0897 0.0
C2998 C 0.73417 0.55165 0.09195 0.0
C2999 C 0.75841 0.60243 0.09296 0.0
C3000 C 0.73139 0.61568 0.09859 0.0
C3001 C 0.70535 0.59713 0.10012 0.0
C3002 C 0.70663 0.56543 0.0967 0.0
C3003 C 0.73144 0.64784 0.10468 0.0
C3004 C 0.72663 0.65201 0.12077 0.0
C3005 C 0.73935 0.67358 0.09527 0.0
C3006 C 0.74423 0.67036 0.07814 0.0
C3007 C 0.72196 0.65642 0.06861 0.0
C3008 C 0.7269 0.65297 0.05253 0.0
C3009 C 0.75396 0.66353 0.04581 0.0
C3010 C 0.7761 0.67767 0.05516 0.0
C3011 C 0.77128 0.68115 0.07126 0.0
H3012 H 0.75776 0.6608 0.03336 0.0
H3013 H 0.72332 0.6864 0.19069 0.0
H3014 H 0.20995 0.0452 0.37323 0.0
H3015 H 0.15472 0.04781 0.37458 0.0
H3016 H 0.14871 0.95161 0.36061 0.0
H3017 H 0.20438 0.94917 0.35866 0.0
H3018 H 0.10487 0.98264 0.34696 0.0
H3019 H 0.13962 0.97498 0.39945 0.0
H3020 H 0.17014 0.98768 0.42283 0.0
H3021 H 0.13174 0.07939 0.42387 0.0
H3022 H 0.10132 0.0674 0.40034 0.0
H3023 H 0.95578 0.96478 0.38406 0.0
H3024 H 0.00872 0.96066 0.37508 0.0
H3025 H 0.01584 0.06055 0.37479 0.0
H3026 H 0.96267 0.0647 0.38336 0.0
H3027 H 0.05819 0.02565 0.39524 0.0
H3028 H 0.02162 0.02928 0.34201 0.0
H3029 H 0.99008 0.01199 0.31978 0.0
H3030 H 0.03061 0.92134 0.32201 0.0
H3031 H 0.06209 0.93796 0.34443 0.0
C3032 C 0.19697 0.02452 0.37044 0.0
C3033 C 0.21166 0.99685 0.366 0.0
C3034 C 0.16528 0.02604 0.37127 0.0
C3035 C 0.14739 0.99973 0.36805 0.0
C3036 C 0.16193 0.97221 0.36323 0.0
C3037 C 0.19378 0.9708 0.36217 0.0
C3038 C 0.11366 1.00111 0.37001 0.0
C3039 C 0.09471 0.99169 0.3576 0.0
C3040 C 0.10017 0.01303 0.38386 0.0
C3041 C 0.1184 0.02037 0.39803 0.0
C3042 C 0.13785 0.99794 0.40459 0.0
C3043 C 0.15511 0.005 0.41788 0.0
C3044 C 0.15293 0.03435 0.42481 0.0
C3045 C 0.13343 0.05668 0.41848 0.0
C3046 C 0.11616 0.04975 0.40517 0.0
C3047 C 0.96831 0.9858 0.38141 0.0
C3048 C 0.95511 0.01506 0.38416 0.0
C3049 C 0.99855 0.98344 0.37638 0.0
C3050 C 0.0162 0.0103 0.37432 0.0
C3051 C 1.00254 0.03956 0.37626 0.0
C3052 C 0.97213 0.04193 0.381 0.0
C3053 C 0.04963 0.00781 0.37211 0.0
C3054 C 0.06847 0.01676 0.38458 0.0
C3055 C 0.06285 0.99478 0.35851 0.0
C3056 C 0.04398 0.98478 0.34502 0.0
C3057 C 0.02359 0.00556 0.33787 0.0
C3058 C 0.00577 0.9959 0.32521 0.0
C3059 C 0.00827 0.96556 0.31951 0.0
C3060 C 0.02866 0.94483 0.32645 0.0
C3061 C 0.04652 0.95436 0.33912 0.0
H3062 H 0.99447 0.95812 0.3097 0.0
H3063 H 0.1663 0.03977 0.4351 0.0
H3064 H 0.27939 0.82134 0.3761 0.0
H3065 H 0.2699 0.77369 0.39051 0.0
H3066 H 0.19015 0.75626 0.36244 0.0
H3067 H 0.19827 0.80514 0.34864 0.0
H3068 H 0.18688 0.72454 0.38982 0.0
H3069 H 0.25618 0.73806 0.34755 0.0
H3070 H 0.29804 0.76382 0.33343 0.0
H3071 H 0.3601 0.73923 0.37021 0.0
H3072 H 0.31831 0.71425 0.38483 0.0
H3073 H 0.26802 0.56322 0.37401 0.0
H3074 H 0.25812 0.61758 0.36755 0.0
H3075 H 0.22311 0.63292 0.41421 0.0
H3076 H 0.23113 0.57806 0.42028 0.0
H3077 H 0.28108 0.66612 0.37708 0.0
H3078 H 0.17491 0.69379 0.41587 0.0
H3079 H 0.1285 0.66746 0.42521 0.0
H3080 H 0.13296 0.60383 0.3865 0.0
H3081 H 0.17913 0.63005 0.37679 0.0
C3082 C 0.25881 0.80846 0.37356 0.0
C3083 C 0.24024 0.81638 0.36077 0.0
C3084 C 0.25351 0.78102 0.38179 0.0
C3085 C 0.23011 0.76088 0.37705 0.0
C3086 C 0.20869 0.77121 0.36608 0.0
C3087 C 0.21359 0.79901 0.35807 0.0
C3088 C 0.23232 0.7273 0.38057 0.0
C3089 C 0.20749 0.71168 0.38721 0.0
C3090 C 0.25865 0.7103 0.3763 0.0
C3091 C 0.28405 0.72459 0.36738 0.0
C3092 C 0.27871 0.73833 0.35269 0.0
C3093 C 0.30241 0.75282 0.3446 0.0
C3094 C 0.33172 0.75313 0.35091 0.0
C3095 C 0.33737 0.739 0.36534 0.0
C3096 C 0.31366 0.72475 0.37356 0.0
C3097 C 0.258 0.57823 0.38281 0.0
C3098 C 0.25036 0.56664 0.39762 0.0
C3099 C 0.25235 0.60927 0.37914 0.0
C3100 C 0.23961 0.62944 0.39034 0.0
C3101 C 0.23219 0.61778 0.40521 0.0
C3102 C 0.23702 0.5865 0.40872 0.0
C3103 C 0.23579 0.66296 0.3867 0.0
C3104 C 0.2604 0.6787 0.37989 0.0
C3105 C 0.20862 0.67952 0.39003 0.0
C3106 C 0.18069 0.66372 0.3957 0.0
C3107 C 0.16593 0.67426 0.40932 0.0
C3108 C 0.13967 0.65934 0.41468 0.0
C3109 C 0.12785 0.63393 0.40648 0.0
C3110 C 0.14221 0.62344 0.39287 0.0
C3111 C 0.16845 0.63831 0.38744 0.0
H3112 H 0.10752 0.62245 0.41066 0.0
H3113 H 0.35006 0.76429 0.34461 0.0
H3114 H 0.4642 0.95642 0.1142 0.0
H3115 H 0.51593 0.94813 0.12418 0.0
H3116 H 0.52054 0.04434 0.13814 0.0
H3117 H 0.46854 0.05249 0.12847 0.0
H3118 H 0.56657 0.0232 0.11614 0.0
H3119 H 0.52209 0.99418 0.16563 0.0
H3120 H 0.48788 0.96396 0.18267 0.0
H3121 H 0.53173 0.87943 0.16834 0.0
H3122 H 0.56594 0.90911 0.15102 0.0
H3123 H 0.71434 0.02979 0.14484 0.0
H3124 H 0.65906 0.03256 0.14336 0.0
H3125 H 0.65421 0.93252 0.14099 0.0
H3126 H 0.70992 0.92961 0.1432 0.0
H3127 H 0.60746 0.95348 0.15727 0.0
H3128 H 0.65085 0.97863 0.10802 0.0
H3129 H 0.68522 0.00563 0.08976 0.0
H3130 H 0.64226 0.09262 0.1006 0.0
H3131 H 0.60833 0.06634 0.11939 0.0
C3132 C 0.47586 0.97542 0.11999 0.0
C3133 C 0.46232 0.00499 0.12076 0.0
C3134 C 0.50543 0.97072 0.12561 0.0
C3135 C 0.52211 0.99564 0.13186 0.0
C3136 C 0.50801 0.02478 0.1334 0.0
C3137 C 0.47824 0.02936 0.12803 0.0
C3138 C 0.55522 0.99222 0.13498 0.0
C3139 C 0.57554 0.0084 0.12531 0.0
C3140 C 0.56684 0.97171 0.14644 0.0
C3141 C 0.54639 0.95386 0.15691 0.0
C3142 C 0.52427 0.96912 0.166 0.0
C3143 C 0.50491 0.9521 0.17573 0.0
C3144 C 0.50757 0.91979 0.17656 0.0
C3145 C 0.52967 0.90445 0.16767 0.0
C3146 C 0.54907 0.92137 0.15791 0.0
C3147 C 0.70153 0.00832 0.14411 0.0
C3148 C 0.71652 0.97948 0.1439 0.0
C3149 C 0.66987 0.00994 0.14323 0.0
C3150 C 0.65236 0.9828 0.14162 0.0
C3151 C 0.66716 0.95382 0.14211 0.0
C3152 C 0.69899 0.95216 0.14334 0.0
C3153 C 0.61896 0.98509 0.13864 0.0
C3154 C 0.59857 0.96847 0.14816 0.0
C3155 C 0.60715 0.00467 0.12675 0.0
C3156 C 0.6272 0.02052 0.11524 0.0
C3157 C 0.64886 0.00356 0.10661 0.0
C3158 C 0.66827 0.01873 0.09616 0.0
C3159 C 0.66586 0.05079 0.09398 0.0
C3160 C 0.64409 0.06777 0.1023 0.0
C3161 C 0.62481 0.05276 0.11288 0.0
H3162 H 0.68087 0.06247 0.08585 0.0
H3163 H 0.49256 0.90665 0.1841 0.0
H3164 H 0.30348 0.44284 0.87897 0.0
H3165 H 0.29905 0.38653 0.87634 0.0
H3166 H 0.21016 0.38994 0.89775 0.0
H3167 H 0.21558 0.44629 0.90133 0.0
H3168 H 0.23519 0.34033 0.90697 0.0
H3169 H 0.22444 0.38406 0.8559 0.0
H3170 H 0.23961 0.41732 0.83378 0.0
H3171 H 0.32087 0.36339 0.82752 0.0
H3172 H 0.30658 0.33024 0.84989 0.0
H3173 H 0.1951 0.18834 0.87795 0.0
H3174 H 0.19587 0.24536 0.88002 0.0
H3175 H 0.29297 0.2451 0.87309 0.0
H3176 H 0.29248 0.18832 0.87139 0.0
H3177 H 0.2601 0.29277 0.85556 0.0
H3178 H 0.27056 0.25147 0.90789 0.0
H3179 H 0.25447 0.21879 0.93001 0.0
H3180 H 0.17009 0.26879 0.93289 0.0
H3181 H 0.18547 0.30135 0.91048 0.0
C3182 C 0.28308 0.43155 0.88322 0.0
C3183 C 0.25979 0.44904 0.89025 0.0
C3184 C 0.2804 0.39927 0.88159 0.0
C3185 C 0.25378 0.38373 0.88634 0.0
C3186 C 0.23086 0.40114 0.89384 0.0
C3187 C 0.23395 0.43341 0.8959 0.0
C3188 C 0.24983 0.34954 0.88332 0.0
C3189 C 0.24015 0.33018 0.89562 0.0
C3190 C 0.25651 0.33575 0.86857 0.0
C3191 C 0.26454 0.35479 0.85467 0.0
C3192 C 0.24558 0.37932 0.84983 0.0
C3193 C 0.25405 0.39819 0.83726 0.0
C3194 C 0.28121 0.3925 0.82925 0.0
C3195 C 0.29986 0.36779 0.83375 0.0
C3196 C 0.29159 0.34895 0.84638 0.0
C3197 C 0.21655 0.20047 0.8767 0.0
C3198 C 0.24374 0.18373 0.87456 0.0
C3199 C 0.21697 0.23306 0.87792 0.0
C3200 C 0.24451 0.24958 0.87674 0.0
C3201 C 0.27146 0.23295 0.874 0.0
C3202 C 0.27113 0.20043 0.8731 0.0
C3203 C 0.24566 0.28396 0.8792 0.0
C3204 C 0.25483 0.30321 0.86681 0.0
C3205 C 0.23808 0.29771 0.89375 0.0
C3206 C 0.22901 0.27858 0.90739 0.0
C3207 C 0.24846 0.25532 0.91315 0.0
C3208 C 0.23948 0.23684 0.92576 0.0
C3209 C 0.21123 0.24166 0.93286 0.0
C3210 C 0.19194 0.26504 0.92737 0.0
C3211 C 0.20078 0.2835 0.9147 0.0
H3212 H 0.20429 0.22732 0.94263 0.0
H3213 H 0.28782 0.40724 0.81958 0.0
H3214 H 0.01837 0.02843 0.60065 0.0
H3215 H 0.97449 0.03332 0.61789 0.0
H3216 H 0.98875 0.93973 0.63436 0.0
H3217 H 0.03256 0.93451 0.61662 0.0
H3218 H 0.93135 0.94688 0.62643 0.0
H3219 H 0.99795 0.0042 0.65904 0.0
H3220 H 0.03717 0.04281 0.66593 0.0
H3221 H 0.97865 0.1165 0.65048 0.0
H3222 H 0.93921 0.07831 0.64328 0.0
H3223 H 0.79636 0.97439 0.67223 0.0
H3224 H 0.85117 0.96551 0.66811 0.0
H3225 H 0.85512 0.04599 0.63819 0.0
H3226 H 0.80062 0.0544 0.64195 0.0
H3227 H 0.90667 0.0395 0.65871 0.0
H3228 H 0.84548 0.97987 0.62166 0.0
H3229 H 0.80604 0.94123 0.61507 0.0
H3230 H 0.85548 0.8711 0.64011 0.0
H3231 H 0.89501 0.90951 0.64707 0.0
C3232 C 0.01262 0.00912 0.60822 0.0
C3233 C 0.02896 0.98109 0.60727 0.0
C3234 C 0.98752 0.01197 0.61816 0.0
C3235 C 0.97822 0.98698 0.62759 0.0
C3236 C 0.99542 0.95939 0.62724 0.0
C3237 C 0.02067 0.95652 0.61724 0.0
C3238 C 0.94905 0.98914 0.63656 0.0
C3239 C 0.92633 0.96673 0.63384 0.0
C3240 C 0.94208 0.01515 0.64614 0.0
C3241 C 0.96565 0.03832 0.65055 0.0
C3242 C 0.99349 0.02862 0.65702 0.0
C3243 C 0.01577 0.05044 0.66099 0.0
C3244 C 0.01042 0.08208 0.65863 0.0
C3245 C 0.98275 0.09198 0.65231 0.0
C3246 C 0.9604 0.07025 0.64831 0.0
C3247 C 0.80918 0.9906 0.66513 0.0
C3248 C 0.79432 0.01512 0.65743 0.0
C3249 C 0.8404 0.98542 0.66271 0.0
C3250 C 0.85723 0.00504 0.65278 0.0
C3251 C 0.84268 0.03063 0.64592 0.0
C3252 C 0.81152 0.03539 0.64807 0.0
C3253 C 0.88914 0.99771 0.64823 0.0
C3254 C 0.91218 0.01924 0.65168 0.0
C3255 C 0.89648 0.97082 0.63943 0.0
C3256 C 0.87299 0.94764 0.63505 0.0
C3257 C 0.84781 0.95627 0.62587 0.0
C3258 C 0.82546 0.93441 0.62205 0.0
C3259 C 0.8282 0.90375 0.62721 0.0
C3260 C 0.85336 0.89487 0.63616 0.0
C3261 C 0.87574 0.91668 0.64004 0.0
H3262 H 0.81089 0.88685 0.62423 0.0
H3263 H 0.0277 0.09894 0.6617 0.0
loop_
_geom_bond_atom_site_label_1
_geom_bond_atom_site_label_2
_geom_bond_distance
_geom_bond_site_symmetry_2
_ccdc_geom_bond_type
O0 Tb1 2.292 . S
O0 C3 1.255 . S
Tb1 O0 2.292 . S
Tb1 O17 2.326 . S
Tb1 O19 2.500 . S
Tb1 O20 2.473 . S
Tb1 O23 2.324 . S
Eu2 O6 2.292 . S
Eu2 C7 2.852 . S
Eu2 O18 2.324 . S
Eu2 O22 2.326 . S
Eu2 O24 2.500 . S
Eu2 O25 2.473 . S
C3 O0 1.255 . S
C3 O4 1.247 . S
O4 C3 1.247 . S
C5 O17 1.242 . S
C5 O18 1.258 . S
O6 Eu2 2.292 . S
O6 C8 1.255 . S
C7 Eu2 2.852 . S
C7 C11 1.503 . S
C7 O24 1.273 . S
C7 O25 1.257 . S
C8 O6 1.255 . S
C8 O9 1.247 . S
O9 C8 1.247 . S
C10 O22 1.242 . S
C10 O23 1.258 . S
C11 C7 1.503 . S
C11 C12 1.379 . S
C11 C16 1.392 . S
C12 C11 1.379 . S
C12 C13 1.404 . S
C12 H26 0.929 . S
C13 C12 1.404 . S
C13 C14 1.389 . S
C14 C13 1.389 . S
C14 C15 1.399 . S
C14 H27 0.931 . S
C15 C14 1.399 . S
C15 C16 1.390 . S
C16 C11 1.392 . S
C16 C15 1.390 . S
C16 H28 0.929 . S
O17 Tb1 2.326 . S
O17 C5 1.242 . S
O18 Eu2 2.324 . S
O18 C5 1.258 . S
O19 Tb1 2.500 . S
O19 C21 1.273 . S
O20 Tb1 2.473 . S
O20 C21 1.257 . S
C21 O19 1.273 . S
C21 O20 1.257 . S
O22 Eu2 2.326 . S
O22 C10 1.242 . S
O23 Tb1 2.324 . S
O23 C10 1.258 . S
O24 Eu2 2.500 . S
O24 C7 1.273 . S
O25 Eu2 2.473 . S
O25 C7 1.257 . S
H26 C12 0.929 . S
H27 C14 0.931 . S
H28 C16 0.929 . S
O29 Tb30 2.292 . S
O29 C32 1.255 . S
Tb30 O29 2.292 . S
Tb30 O46 2.326 . S
Tb30 O48 2.500 . S
Tb30 O49 2.473 . S
Tb30 O52 2.324 . S
Eu31 O35 2.292 . S
Eu31 C36 2.852 . S
Eu31 O47 2.324 . S
Eu31 O51 2.326 . S
Eu31 O53 2.500 . S
Eu31 O54 2.473 . S
C32 O29 1.255 . S
C32 O33 1.247 . S
O33 C32 1.247 . S
C34 O46 1.242 . S
C34 O47 1.258 . S
O35 Eu31 2.292 . S
O35 C37 1.255 . S
C36 Eu31 2.852 . S
C36 C40 1.503 . S
C36 O53 1.273 . S
C36 O54 1.257 . S
C37 O35 1.255 . S
C37 O38 1.247 . S
O38 C37 1.247 . S
C39 O51 1.242 . S
C39 O52 1.258 . S
C40 C36 1.503 . S
C40 C41 1.379 . S
C40 C45 1.392 . S
C41 C40 1.379 . S
C41 C42 1.404 . S
C41 H55 0.929 . S
C42 C41 1.404 . S
C42 C43 1.389 . S
C43 C42 1.389 . S
C43 C44 1.399 . S
C43 H56 0.931 . S
C44 C43 1.399 . S
C44 C45 1.390 . S
C45 C40 1.392 . S
C45 C44 1.390 . S
C45 H57 0.929 . S
O46 Tb30 2.326 . S
O46 C34 1.242 . S
O47 Eu31 2.324 . S
O47 C34 1.258 . S
O48 Tb30 2.500 . S
O48 C50 1.273 . S
O49 Tb30 2.473 . S
O49 C50 1.257 . S
C50 O48 1.273 . S
C50 O49 1.257 . S
O51 Eu31 2.326 . S
O51 C39 1.242 . S
O52 Tb30 2.324 . S
O52 C39 1.258 . S
O53 Eu31 2.500 . S
O53 C36 1.273 . S
O54 Eu31 2.473 . S
O54 C36 1.257 . S
H55 C41 0.929 . S
H56 C43 0.931 . S
H57 C45 0.929 . S
O58 Tb59 2.292 . S
O58 C61 1.255 . S
Tb59 O58 2.292 . S
Tb59 O75 2.326 . S
Tb59 O77 2.500 . S
Tb59 O78 2.473 . S
Tb59 O81 2.324 . S
Eu60 O64 2.292 . S
Eu60 C65 2.852 . S
Eu60 O76 2.324 . S
Eu60 O80 2.326 . S
Eu60 O82 2.500 . S
Eu60 O83 2.473 . S
C61 O58 1.255 . S
C61 O62 1.247 . S
O62 C61 1.247 . S
C63 O75 1.242 . S
C63 O76 1.258 . S
O64 Eu60 2.292 . S
O64 C66 1.255 . S
C65 Eu60 2.852 . S
C65 C69 1.503 . S
C65 O82 1.273 . S
C65 O83 1.257 . S
C66 O64 1.255 . S
C66 O67 1.247 . S
O67 C66 1.247 . S
C68 O80 1.242 . S
C68 O81 1.258 . S
C69 C65 1.503 . S
C69 C70 1.379 . S
C69 C74 1.392 . S
C70 C69 1.379 . S
C70 C71 1.404 . S
C70 H84 0.929 . S
C71 C70 1.404 . S
C71 C72 1.389 . S
C72 C71 1.389 . S
C72 C73 1.399 . S
C72 H85 0.931 . S
C73 C72 1.399 . S
C73 C74 1.390 . S
C74 C69 1.392 . S
C74 C73 1.390 . S
C74 H86 0.929 . S
O75 Tb59 2.326 . S
O75 C63 1.242 . S
O76 Eu60 2.324 . S
O76 C63 1.258 . S
O77 Tb59 2.500 . S
O77 C79 1.273 . S
O78 Tb59 2.473 . S
O78 C79 1.257 . S
C79 O77 1.273 . S
C79 O78 1.257 . S
O80 Eu60 2.326 . S
O80 C68 1.242 . S
O81 Tb59 2.324 . S
O81 C68 1.258 . S
O82 Eu60 2.500 . S
O82 C65 1.273 . S
O83 Eu60 2.473 . S
O83 C65 1.257 . S
H84 C70 0.929 . S
H85 C72 0.931 . S
H86 C74 0.929 . S
O87 Tb88 2.292 . S
O87 C90 1.255 . S
Tb88 O87 2.292 . S
Tb88 O104 2.326 . S
Tb88 O106 2.500 . S
Tb88 O107 2.473 . S
Tb88 O110 2.324 . S
Eu89 O93 2.292 . S
Eu89 C94 2.852 . S
Eu89 O105 2.324 . S
Eu89 O109 2.326 . S
Eu89 O111 2.500 . S
Eu89 O112 2.473 . S
C90 O87 1.255 . S
C90 O91 1.247 . S
O91 C90 1.247 . S
C92 O104 1.242 . S
C92 O105 1.258 . S
O93 Eu89 2.292 . S
O93 C95 1.255 . S
C94 Eu89 2.852 . S
C94 C98 1.503 . S
C94 O111 1.273 . S
C94 O112 1.257 . S
C95 O93 1.255 . S
C95 O96 1.247 . S
O96 C95 1.247 . S
C97 O109 1.242 . S
C97 O110 1.258 . S
C98 C94 1.503 . S
C98 C99 1.379 . S
C98 C103 1.392 . S
C99 C98 1.379 . S
C99 C100 1.404 . S
C99 H113 0.929 . S
C100 C99 1.404 . S
C100 C101 1.389 . S
C101 C100 1.389 . S
C101 C102 1.399 . S
C101 H114 0.931 . S
C102 C101 1.399 . S
C102 C103 1.390 . S
C103 C98 1.392 . S
C103 C102 1.390 . S
C103 H115 0.929 . S
O104 Tb88 2.326 . S
O104 C92 1.242 . S
O105 Eu89 2.324 . S
O105 C92 1.258 . S
O106 Tb88 2.500 . S
O106 C108 1.273 . S
O107 Tb88 2.473 . S
O107 C108 1.257 . S
C108 O106 1.273 . S
C108 O107 1.257 . S
O109 Eu89 2.326 . S
O109 C97 1.242 . S
O110 Tb88 2.324 . S
O110 C97 1.258 . S
O111 Eu89 2.500 . S
O111 C94 1.273 . S
O112 Eu89 2.473 . S
O112 C94 1.257 . S
H113 C99 0.929 . S
H114 C101 0.931 . S
H115 C103 0.929 . S
O116 Tb117 2.292 . S
O116 C119 1.255 . S
Tb117 O116 2.292 . S
Tb117 O133 2.326 . S
Tb117 O135 2.500 . S
Tb117 O136 2.473 . S
Tb117 O139 2.298 1_565 S
Eu118 O122 2.292 . S
Eu118 C123 2.852 . S
Eu118 O134 2.324 . S
Eu118 O138 2.326 . S
Eu118 O140 2.500 . S
Eu118 O141 2.473 . S
C119 O116 1.255 . S
C119 O120 1.247 . S
O120 C119 1.247 . S
C121 O133 1.242 . S
C121 O134 1.258 . S
O122 Eu118 2.292 . S
O122 C124 1.255 . S
C123 Eu118 2.852 . S
C123 C127 1.503 . S
C123 O140 1.273 . S
C123 O141 1.257 . S
C124 O122 1.255 . S
C124 O125 1.247 . S
O125 C124 1.247 . S
C126 O138 1.231 1_545 S
C126 O139 1.258 . S
C127 C123 1.503 . S
C127 C128 1.379 . S
C127 C132 1.392 . S
C128 C127 1.379 . S
C128 C129 1.404 . S
C128 H142 0.929 . S
C129 C128 1.404 . S
C129 C130 1.389 . S
C130 C129 1.389 . S
C130 C131 1.399 . S
C130 H143 0.931 . S
C131 C130 1.399 . S
C131 C132 1.390 . S
C132 C127 1.392 . S
C132 C131 1.390 . S
C132 H144 0.929 . S
O133 Tb117 2.326 . S
O133 C121 1.242 . S
O134 Eu118 2.324 . S
O134 C121 1.258 . S
O135 Tb117 2.500 . S
O135 C137 1.273 . S
O136 Tb117 2.473 . S
O136 C137 1.257 . S
C137 O135 1.273 . S
C137 O136 1.257 . S
O138 Eu118 2.326 . S
O138 C126 1.231 1_565 S
O139 Tb117 2.298 1_545 S
O139 C126 1.258 . S
O140 Eu118 2.500 . S
O140 C123 1.273 . S
O141 Eu118 2.473 . S
O141 C123 1.257 . S
H142 C128 0.929 . S
H143 C130 0.931 . S
H144 C132 0.929 . S
O145 Tb146 2.292 . S
O145 C148 1.255 . S
Tb146 O145 2.292 . S
Tb146 O162 2.326 . S
Tb146 O164 2.500 . S
Tb146 O165 2.473 . S
Tb146 O168 2.324 . S
Eu147 O151 2.292 . S
Eu147 C152 2.852 . S
Eu147 O163 2.324 . S
Eu147 O167 2.326 . S
Eu147 O169 2.500 . S
Eu147 O170 2.473 . S
C148 O145 1.255 . S
C148 O149 1.247 . S
O149 C148 1.247 . S
C150 O162 1.242 . S
C150 O163 1.258 . S
O151 Eu147 2.292 . S
O151 C153 1.255 . S
C152 Eu147 2.852 . S
C152 C156 1.503 . S
C152 O169 1.273 . S
C152 O170 1.257 . S
C153 O151 1.255 . S
C153 O154 1.247 . S
O154 C153 1.247 . S
C155 O167 1.242 . S
C155 O168 1.258 . S
C156 C152 1.503 . S
C156 C157 1.379 . S
C156 C161 1.392 . S
C157 C156 1.379 . S
C157 C158 1.404 . S
C157 H171 0.929 . S
C158 C157 1.404 . S
C158 C159 1.389 . S
C159 C158 1.389 . S
C159 C160 1.399 . S
C159 H172 0.931 . S
C160 C159 1.399 . S
C160 C161 1.390 . S
C161 C156 1.392 . S
C161 C160 1.390 . S
C161 H173 0.929 . S
O162 Tb146 2.326 . S
O162 C150 1.242 . S
O163 Eu147 2.324 . S
O163 C150 1.258 . S
O164 Tb146 2.500 . S
O164 C166 1.273 . S
O165 Tb146 2.473 . S
O165 C166 1.257 . S
C166 O164 1.273 . S
C166 O165 1.257 . S
O167 Eu147 2.326 . S
O167 C155 1.242 . S
O168 Tb146 2.324 . S
O168 C155 1.258 . S
O169 Eu147 2.500 . S
O169 C152 1.273 . S
O170 Eu147 2.473 . S
O170 C152 1.257 . S
H171 C157 0.929 . S
H172 C159 0.931 . S
H173 C161 0.929 . S
O174 Tb175 2.292 . S
O174 C177 1.255 . S
Tb175 O174 2.292 . S
Tb175 O191 2.326 . S
Tb175 O193 2.500 . S
Tb175 O194 2.473 . S
Tb175 O197 2.324 . S
Eu176 O180 2.292 . S
Eu176 C181 2.852 . S
Eu176 O192 2.324 . S
Eu176 O196 2.326 . S
Eu176 O198 2.500 . S
Eu176 O199 2.473 . S
C177 O174 1.255 . S
C177 O178 1.247 . S
O178 C177 1.247 . S
C179 O191 1.242 . S
C179 O192 1.258 . S
O180 Eu176 2.292 . S
O180 C182 1.255 . S
C181 Eu176 2.852 . S
C181 C185 1.503 . S
C181 O198 1.273 . S
C181 O199 1.257 . S
C182 O180 1.255 . S
C182 O183 1.247 . S
O183 C182 1.247 . S
C184 O196 1.242 . S
C184 O197 1.258 . S
C185 C181 1.503 . S
C185 C186 1.379 . S
C185 C190 1.392 . S
C186 C185 1.379 . S
C186 C187 1.404 . S
C186 H200 0.929 . S
C187 C186 1.404 . S
C187 C188 1.389 . S
C188 C187 1.389 . S
C188 C189 1.399 . S
C188 H201 0.931 . S
C189 C188 1.399 . S
C189 C190 1.390 . S
C190 C185 1.392 . S
C190 C189 1.390 . S
C190 H202 0.929 . S
O191 Tb175 2.326 . S
O191 C179 1.242 . S
O192 Eu176 2.324 . S
O192 C179 1.258 . S
O193 Tb175 2.500 . S
O193 C195 1.273 . S
O194 Tb175 2.473 . S
O194 C195 1.257 . S
C195 O193 1.273 . S
C195 O194 1.257 . S
O196 Eu176 2.326 . S
O196 C184 1.242 . S
O197 Tb175 2.324 . S
O197 C184 1.258 . S
O198 Eu176 2.500 . S
O198 C181 1.273 . S
O199 Eu176 2.473 . S
O199 C181 1.257 . S
H200 C186 0.929 . S
H201 C188 0.931 . S
H202 C190 0.929 . S
O203 Tb204 2.292 . S
O203 C206 1.255 . S
Tb204 O203 2.292 . S
Tb204 O220 2.326 . S
Tb204 O222 2.500 . S
Tb204 O223 2.473 . S
Tb204 O226 2.324 . S
Eu205 O209 2.292 . S
Eu205 C210 2.852 . S
Eu205 O221 2.324 . S
Eu205 O225 2.326 . S
Eu205 O227 2.500 . S
Eu205 O228 2.473 . S
C206 O203 1.255 . S
C206 O207 1.247 . S
O207 C206 1.247 . S
C208 O220 1.242 . S
C208 O221 1.258 . S
O209 Eu205 2.292 . S
O209 C211 1.255 . S
C210 Eu205 2.852 . S
C210 C214 1.503 . S
C210 O227 1.273 . S
C210 O228 1.257 . S
C211 O209 1.255 . S
C211 O212 1.247 . S
O212 C211 1.247 . S
C213 O225 1.242 . S
C213 O226 1.258 . S
C214 C210 1.503 . S
C214 C215 1.379 . S
C214 C219 1.392 . S
C215 C214 1.379 . S
C215 C216 1.404 . S
C215 H229 0.929 . S
C216 C215 1.404 . S
C216 C217 1.389 . S
C217 C216 1.389 . S
C217 C218 1.399 . S
C217 H230 0.931 . S
C218 C217 1.399 . S
C218 C219 1.390 . S
C219 C214 1.392 . S
C219 C218 1.390 . S
C219 H231 0.929 . S
O220 Tb204 2.326 . S
O220 C208 1.242 . S
O221 Eu205 2.324 . S
O221 C208 1.258 . S
O222 Tb204 2.500 . S
O222 C224 1.273 . S
O223 Tb204 2.473 . S
O223 C224 1.257 . S
C224 O222 1.273 . S
C224 O223 1.257 . S
O225 Eu205 2.326 . S
O225 C213 1.242 . S
O226 Tb204 2.324 . S
O226 C213 1.258 . S
O227 Eu205 2.500 . S
O227 C210 1.273 . S
O228 Eu205 2.473 . S
O228 C210 1.257 . S
H229 C215 0.929 . S
H230 C217 0.931 . S
H231 C219 0.929 . S
O232 Tb233 2.292 . S
O232 C235 1.255 . S
Tb233 O232 2.292 . S
Tb233 O249 2.326 . S
Tb233 O251 2.500 . S
Tb233 O252 2.473 . S
Tb233 O255 2.324 . S
Eu234 O238 2.292 . S
Eu234 C239 2.852 . S
Eu234 O250 2.324 . S
Eu234 O254 2.326 . S
Eu234 O256 2.500 . S
Eu234 O257 2.473 . S
C235 O232 1.255 . S
C235 O236 1.247 . S
O236 C235 1.247 . S
C237 O249 1.242 . S
C237 O250 1.258 . S
O238 Eu234 2.292 . S
O238 C240 1.255 . S
C239 Eu234 2.852 . S
C239 C243 1.503 . S
C239 O256 1.273 . S
C239 O257 1.257 . S
C240 O238 1.255 . S
C240 O241 1.247 . S
O241 C240 1.247 . S
C242 O254 1.242 . S
C242 O255 1.258 . S
C243 C239 1.503 . S
C243 C244 1.379 . S
C243 C248 1.392 . S
C244 C243 1.379 . S
C244 C245 1.404 . S
C244 H258 0.929 . S
C245 C244 1.404 . S
C245 C246 1.389 . S
C246 C245 1.389 . S
C246 C247 1.399 . S
C246 H259 0.931 . S
C247 C246 1.399 . S
C247 C248 1.390 . S
C248 C243 1.392 . S
C248 C247 1.390 . S
C248 H260 0.929 . S
O249 Tb233 2.326 . S
O249 C237 1.242 . S
O250 Eu234 2.324 . S
O250 C237 1.258 . S
O251 Tb233 2.500 . S
O251 C253 1.273 . S
O252 Tb233 2.473 . S
O252 C253 1.257 . S
C253 O251 1.273 . S
C253 O252 1.257 . S
O254 Eu234 2.326 . S
O254 C242 1.242 . S
O255 Tb233 2.324 . S
O255 C242 1.258 . S
O256 Eu234 2.500 . S
O256 C239 1.273 . S
O257 Eu234 2.473 . S
O257 C239 1.257 . S
H258 C244 0.929 . S
H259 C246 0.931 . S
H260 C248 0.929 . S
O261 Tb262 2.292 . S
O261 C264 1.255 . S
Tb262 O261 2.292 . S
Tb262 O278 2.326 . S
Tb262 O280 2.500 . S
Tb262 O281 2.473 . S
Tb262 O284 2.324 . S
Eu263 O267 2.292 1_545 S
Eu263 C268 2.852 . S
Eu263 O279 2.324 . S
Eu263 O283 2.326 . S
Eu263 O285 2.500 . S
Eu263 O286 2.473 . S
C264 O261 1.255 . S
C264 O265 1.247 . S
O265 C264 1.247 . S
C266 O278 1.242 . S
C266 O279 1.258 . S
O267 Eu263 2.292 1_565 S
O267 C269 1.255 . S
C268 Eu263 2.852 . S
C268 C272 1.503 . S
C268 O285 1.273 . S
C268 O286 1.257 . S
C269 O267 1.255 . S
C269 O270 1.247 . S
O270 C269 1.247 . S
C271 O283 1.242 . S
C271 O284 1.258 . S
C272 C268 1.503 . S
C272 C273 1.379 . S
C272 C277 1.392 . S
C273 C272 1.379 . S
C273 C274 1.404 . S
C273 H287 0.929 . S
C274 C273 1.404 . S
C274 C275 1.389 . S
C275 C274 1.389 . S
C275 C276 1.399 . S
C275 H288 0.931 . S
C276 C275 1.399 . S
C276 C277 1.390 . S
C277 C272 1.392 . S
C277 C276 1.390 . S
C277 H289 0.929 . S
O278 Tb262 2.326 . S
O278 C266 1.242 . S
O279 Eu263 2.324 . S
O279 C266 1.258 . S
O280 Tb262 2.500 . S
O280 C282 1.273 . S
O281 Tb262 2.473 . S
O281 C282 1.257 . S
C282 O280 1.273 . S
C282 O281 1.257 . S
O283 Eu263 2.326 . S
O283 C271 1.242 . S
O284 Tb262 2.324 . S
O284 C271 1.258 . S
O285 Eu263 2.500 . S
O285 C268 1.273 . S
O286 Eu263 2.473 . S
O286 C268 1.257 . S
H287 C273 0.929 . S
H288 C275 0.931 . S
H289 C277 0.929 . S
O290 Tb291 2.292 . S
O290 C293 1.255 . S
Tb291 O290 2.292 . S
Tb291 O307 2.326 . S
Tb291 O309 2.500 . S
Tb291 O310 2.473 . S
Tb291 O313 2.324 . S
Eu292 O296 2.292 . S
Eu292 C297 2.852 . S
Eu292 O308 2.324 . S
Eu292 O312 2.326 . S
Eu292 O314 2.500 . S
Eu292 O315 2.473 . S
C293 O290 1.255 . S
C293 O294 1.247 . S
O294 C293 1.247 . S
C295 O307 1.242 . S
C295 O308 1.258 . S
O296 Eu292 2.292 . S
O296 C298 1.255 . S
C297 Eu292 2.852 . S
C297 C301 1.503 . S
C297 O314 1.273 . S
C297 O315 1.257 . S
C298 O296 1.255 . S
C298 O299 1.247 . S
O299 C298 1.247 . S
C300 O312 1.242 . S
C300 O313 1.258 . S
C301 C297 1.503 . S
C301 C302 1.379 . S
C301 C306 1.392 . S
C302 C301 1.379 . S
C302 C303 1.404 . S
C302 H316 0.929 . S
C303 C302 1.404 . S
C303 C304 1.389 . S
C304 C303 1.389 . S
C304 C305 1.399 . S
C304 H317 0.931 . S
C305 C304 1.399 . S
C305 C306 1.390 . S
C306 C301 1.392 . S
C306 C305 1.390 . S
C306 H318 0.929 . S
O307 Tb291 2.326 . S
O307 C295 1.242 . S
O308 Eu292 2.324 . S
O308 C295 1.258 . S
O309 Tb291 2.500 . S
O309 C311 1.273 . S
O310 Tb291 2.473 . S
O310 C311 1.257 . S
C311 O309 1.273 . S
C311 O310 1.257 . S
O312 Eu292 2.326 . S
O312 C300 1.242 . S
O313 Tb291 2.324 . S
O313 C300 1.258 . S
O314 Eu292 2.500 . S
O314 C297 1.273 . S
O315 Eu292 2.473 . S
O315 C297 1.257 . S
H316 C302 0.929 . S
H317 C304 0.931 . S
H318 C306 0.929 . S
O319 Tb320 2.292 . S
O319 C322 1.255 . S
Tb320 O319 2.292 . S
Tb320 O336 2.326 . S
Tb320 O338 2.500 1_565 S
Tb320 O339 2.473 1_565 S
Tb320 O342 2.324 . S
Eu321 O325 2.292 . S
Eu321 C326 2.852 . S
Eu321 O337 2.324 . S
Eu321 O341 2.326 . S
Eu321 O343 2.500 . S
Eu321 O344 2.473 . S
C322 O319 1.255 . S
C322 O323 1.247 . S
O323 C322 1.247 . S
C324 O336 1.242 . S
C324 O337 1.258 . S
O325 Eu321 2.292 . S
O325 C327 1.255 . S
C326 Eu321 2.852 . S
C326 C330 1.503 . S
C326 O343 1.273 . S
C326 O344 1.257 . S
C327 O325 1.255 . S
C327 O328 1.247 . S
O328 C327 1.247 . S
C329 O341 1.242 . S
C329 O342 1.258 . S
C330 C326 1.503 . S
C330 C331 1.379 . S
C330 C335 1.392 . S
C331 C330 1.379 . S
C331 C332 1.404 . S
C331 H345 0.929 . S
C332 C331 1.404 . S
C332 C333 1.389 . S
C333 C332 1.389 . S
C333 C334 1.399 . S
C333 H346 0.931 . S
C334 C333 1.399 . S
C334 C335 1.390 . S
C335 C330 1.392 . S
C335 C334 1.390 . S
C335 H347 0.929 . S
O336 Tb320 2.326 . S
O336 C324 1.242 . S
O337 Eu321 2.324 . S
O337 C324 1.258 . S
O338 Tb320 2.500 1_545 S
O338 C340 1.273 . S
O339 Tb320 2.473 1_545 S
O339 C340 1.257 . S
C340 O338 1.273 . S
C340 O339 1.257 . S
O341 Eu321 2.326 . S
O341 C329 1.242 . S
O342 Tb320 2.324 . S
O342 C329 1.258 . S
O343 Eu321 2.500 . S
O343 C326 1.273 . S
O344 Eu321 2.473 . S
O344 C326 1.257 . S
H345 C331 0.929 . S
H346 C333 0.931 . S
H347 C335 0.929 . S
O348 Tb349 2.292 . S
O348 C351 1.255 . S
Tb349 O348 2.292 . S
Tb349 O365 2.326 . S
Tb349 O367 2.500 . S
Tb349 O368 2.473 . S
Tb349 O371 2.324 . S
Eu350 O354 2.292 . S
Eu350 C355 2.852 . S
Eu350 O366 2.324 . S
Eu350 O370 2.326 . S
Eu350 O372 2.500 . S
Eu350 O373 2.473 . S
C351 O348 1.255 . S
C351 O352 1.247 . S
O352 C351 1.247 . S
C353 O365 1.242 . S
C353 O366 1.258 . S
O354 Eu350 2.292 . S
O354 C356 1.255 . S
C355 Eu350 2.852 . S
C355 C359 1.503 . S
C355 O372 1.273 . S
C355 O373 1.257 . S
C356 O354 1.255 . S
C356 O357 1.247 . S
O357 C356 1.247 . S
C358 O370 1.242 . S
C358 O371 1.258 . S
C359 C355 1.503 . S
C359 C360 1.379 . S
C359 C364 1.392 . S
C360 C359 1.379 . S
C360 C361 1.404 . S
C360 H374 0.929 . S
C361 C360 1.404 . S
C361 C362 1.389 . S
C362 C361 1.389 . S
C362 C363 1.399 . S
C362 H375 0.931 . S
C363 C362 1.399 . S
C363 C364 1.390 . S
C364 C359 1.392 . S
C364 C363 1.390 . S
C364 H376 0.929 . S
O365 Tb349 2.326 . S
O365 C353 1.242 . S
O366 Eu350 2.324 . S
O366 C353 1.258 . S
O367 Tb349 2.500 . S
O367 C369 1.273 . S
O368 Tb349 2.473 . S
O368 C369 1.257 . S
C369 O367 1.273 . S
C369 O368 1.257 . S
O370 Eu350 2.326 . S
O370 C358 1.242 . S
O371 Tb349 2.324 . S
O371 C358 1.258 . S
O372 Eu350 2.500 . S
O372 C355 1.273 . S
O373 Eu350 2.473 . S
O373 C355 1.257 . S
H374 C360 0.929 . S
H375 C362 0.931 . S
H376 C364 0.929 . S
O377 Tb378 2.292 . S
O377 C380 1.255 . S
Tb378 O377 2.292 . S
Tb378 O394 2.326 . S
Tb378 O396 2.500 1_565 S
Tb378 O397 2.473 . S
Tb378 O400 2.324 . S
Eu379 O383 2.292 . S
Eu379 C384 2.852 . S
Eu379 O395 2.324 . S
Eu379 O399 2.326 . S
Eu379 O401 2.500 . S
Eu379 O402 2.473 . S
C380 O377 1.255 . S
C380 O381 1.247 . S
O381 C380 1.247 . S
C382 O394 1.242 . S
C382 O395 1.258 . S
O383 Eu379 2.292 . S
O383 C385 1.255 . S
C384 Eu379 2.852 . S
C384 C388 1.503 . S
C384 O401 1.273 . S
C384 O402 1.257 . S
C385 O383 1.255 . S
C385 O386 1.247 . S
O386 C385 1.247 . S
C387 O399 1.242 . S
C387 O400 1.258 . S
C388 C384 1.503 . S
C388 C389 1.379 . S
C388 C393 1.392 . S
C389 C388 1.379 . S
C389 C390 1.404 . S
C389 H403 0.929 . S
C390 C389 1.404 . S
C390 C391 1.389 . S
C391 C390 1.389 . S
C391 C392 1.399 . S
C391 H404 0.931 . S
C392 C391 1.399 . S
C392 C393 1.390 . S
C393 C388 1.392 . S
C393 C392 1.390 . S
C393 H405 0.929 . S
O394 Tb378 2.326 . S
O394 C382 1.242 . S
O395 Eu379 2.324 . S
O395 C382 1.258 . S
O396 Tb378 2.500 1_545 S
O396 C398 1.273 . S
O397 Tb378 2.473 . S
O397 C398 1.257 1_565 S
C398 O396 1.273 . S
C398 O397 1.257 1_545 S
O399 Eu379 2.326 . S
O399 C387 1.242 . S
O400 Tb378 2.324 . S
O400 C387 1.258 . S
O401 Eu379 2.500 . S
O401 C384 1.273 . S
O402 Eu379 2.473 . S
O402 C384 1.257 . S
H403 C389 0.929 . S
H404 C391 0.931 . S
H405 C393 0.929 . S
O406 Tb407 2.292 . S
O406 C409 1.255 . S
Tb407 O406 2.292 . S
Tb407 O423 2.326 . S
Tb407 O425 2.500 . S
Tb407 O426 2.473 . S
Tb407 O429 2.324 . S
Eu408 O412 2.292 . S
Eu408 C413 2.852 . S
Eu408 O424 2.324 . S
Eu408 O428 2.326 . S
Eu408 O430 2.500 . S
Eu408 O431 2.473 . S
C409 O406 1.255 . S
C409 O410 1.247 . S
O410 C409 1.247 . S
C411 O423 1.242 . S
C411 O424 1.258 . S
O412 Eu408 2.292 . S
O412 C414 1.255 . S
C413 Eu408 2.852 . S
C413 C417 1.503 . S
C413 O430 1.273 . S
C413 O431 1.257 . S
C414 O412 1.255 . S
C414 O415 1.247 . S
O415 C414 1.247 . S
C416 O428 1.242 . S
C416 O429 1.258 . S
C417 C413 1.503 . S
C417 C418 1.379 . S
C417 C422 1.392 . S
C418 C417 1.379 . S
C418 C419 1.404 . S
C418 H432 0.929 . S
C419 C418 1.404 . S
C419 C420 1.389 . S
C420 C419 1.389 . S
C420 C421 1.399 . S
C420 H433 0.931 . S
C421 C420 1.399 . S
C421 C422 1.390 . S
C422 C417 1.392 . S
C422 C421 1.390 . S
C422 H434 0.929 . S
O423 Tb407 2.326 . S
O423 C411 1.242 . S
O424 Eu408 2.324 . S
O424 C411 1.258 . S
O425 Tb407 2.500 . S
O425 C427 1.273 . S
O426 Tb407 2.473 . S
O426 C427 1.257 . S
C427 O425 1.273 . S
C427 O426 1.257 . S
O428 Eu408 2.326 . S
O428 C416 1.242 . S
O429 Tb407 2.324 . S
O429 C416 1.258 . S
O430 Eu408 2.500 . S
O430 C413 1.273 . S
O431 Eu408 2.473 . S
O431 C413 1.257 . S
H432 C418 0.929 . S
H433 C420 0.931 . S
H434 C422 0.929 . S
O435 Tb436 2.292 . S
O435 C438 1.255 . S
Tb436 O435 2.292 . S
Tb436 O452 2.326 . S
Tb436 O454 2.500 1_545 S
Tb436 O455 2.473 1_545 S
Tb436 O458 2.324 . S
Eu437 O441 2.292 . S
Eu437 C442 2.852 . S
Eu437 O453 2.324 . S
Eu437 O457 2.326 . S
Eu437 O459 2.500 . S
Eu437 O460 2.473 . S
C438 O435 1.255 . S
C438 O439 1.247 . S
O439 C438 1.247 . S
C440 O452 1.242 . S
C440 O453 1.258 . S
O441 Eu437 2.292 . S
O441 C443 1.255 . S
C442 Eu437 2.852 . S
C442 C446 1.503 . S
C442 O459 1.273 . S
C442 O460 1.257 . S
C443 O441 1.255 . S
C443 O444 1.247 . S
O444 C443 1.247 . S
C445 O457 1.242 . S
C445 O458 1.258 . S
C446 C442 1.503 . S
C446 C447 1.379 . S
C446 C451 1.392 . S
C447 C446 1.379 . S
C447 C448 1.404 . S
C447 H461 0.929 . S
C448 C447 1.404 . S
C448 C449 1.389 . S
C449 C448 1.389 . S
C449 C450 1.399 . S
C449 H462 0.931 . S
C450 C449 1.399 . S
C450 C451 1.390 . S
C451 C446 1.392 . S
C451 C450 1.390 . S
C451 H463 0.929 . S
O452 Tb436 2.326 . S
O452 C440 1.242 . S
O453 Eu437 2.324 . S
O453 C440 1.258 . S
O454 Tb436 2.500 1_565 S
O454 C456 1.273 . S
O455 Tb436 2.473 1_565 S
O455 C456 1.257 . S
C456 O454 1.273 . S
C456 O455 1.257 . S
O457 Eu437 2.326 . S
O457 C445 1.242 . S
O458 Tb436 2.324 . S
O458 C445 1.258 . S
O459 Eu437 2.500 . S
O459 C442 1.273 . S
O460 Eu437 2.473 . S
O460 C442 1.257 . S
H461 C447 0.929 . S
H462 C449 0.931 . S
H463 C451 0.929 . S
H464 C482 0.951 . S
H465 C484 0.951 . S
H466 C486 0.950 . S
H467 C487 0.950 . S
H468 C489 0.950 . S
H469 C492 0.950 . S
H470 C493 0.950 . S
H471 C495 0.950 . S
H472 C496 0.950 . S
H473 C497 0.951 . S
H474 C499 0.951 . S
H475 C501 0.950 . S
H476 C502 0.950 . S
H477 C504 0.950 . S
H478 C507 0.950 . S
H479 C508 0.950 . S
H480 C510 0.950 . S
H481 C511 0.950 . S
C482 H464 0.951 . S
C482 C483 1.366 . S
C482 C484 1.388 . S
C483 C482 1.366 . S
C483 C487 1.385 . S
C484 H465 0.951 . S
C484 C482 1.388 . S
C484 C485 1.366 . S
C485 C484 1.366 . S
C485 C486 1.414 . S
C485 C488 1.499 . S
C486 H466 0.950 . S
C486 C485 1.414 . S
C486 C487 1.374 . S
C487 H467 0.950 . S
C487 C483 1.385 . S
C487 C486 1.374 . S
C488 C485 1.499 . S
C488 C489 1.373 . S
C488 C490 1.389 . S
C489 H468 0.950 . S
C489 C488 1.373 . S
C489 C505 1.377 . S
C490 C488 1.389 . S
C490 C491 1.524 . S
C490 C504 1.377 . S
C491 C490 1.524 . S
C491 C492 1.397 . S
C491 C496 1.363 . S
C492 H469 0.950 . S
C492 C491 1.397 . S
C492 C493 1.334 . S
C493 H470 0.950 . S
C493 C492 1.334 . S
C493 C494 1.287 . S
C494 C493 1.287 . S
C494 C495 1.524 . S
C494 H513 0.913 . S
C495 H471 0.950 . S
C495 C494 1.524 . S
C495 C496 1.415 . S
C496 H472 0.950 . S
C496 C491 1.363 . S
C496 C495 1.415 . S
C497 H473 0.951 . S
C497 C498 1.366 . S
C497 C499 1.388 . S
C498 C497 1.366 . S
C498 C502 1.385 . S
C499 H474 0.951 . S
C499 C497 1.388 . S
C499 C500 1.366 . S
C500 C499 1.366 . S
C500 C501 1.414 . S
C500 C503 1.499 . S
C501 H475 0.950 . S
C501 C500 1.414 . S
C501 C502 1.374 . S
C502 H476 0.950 . S
C502 C498 1.385 . S
C502 C501 1.374 . S
C503 C500 1.499 . S
C503 C504 1.373 . S
C503 C505 1.389 . S
C504 H477 0.950 . S
C504 C490 1.377 . S
C504 C503 1.373 . S
C505 C489 1.377 . S
C505 C503 1.389 . S
C505 C506 1.524 . S
C506 C505 1.524 . S
C506 C507 1.397 . S
C506 C511 1.363 . S
C507 H478 0.950 . S
C507 C506 1.397 . S
C507 C508 1.334 . S
C508 H479 0.950 . S
C508 C507 1.334 . S
C508 C509 1.287 . S
C509 C508 1.287 . S
C509 C510 1.524 . S
C509 H512 0.999 . S
C510 H480 0.950 . S
C510 C509 1.524 . S
C510 C511 1.415 . S
C511 H481 0.950 . S
C511 C506 1.363 . S
C511 C510 1.415 . S
H512 C509 0.999 . S
H513 C494 0.913 . S
H514 C532 0.951 . S
H515 C534 0.951 . S
H516 C536 0.950 . S
H517 C537 0.950 . S
H518 C539 0.950 . S
H519 C542 0.950 . S
H520 C543 0.950 . S
H521 C545 0.950 . S
H522 C546 0.950 . S
H523 C547 0.951 . S
H524 C549 0.951 . S
H525 C551 0.950 . S
H526 C552 0.950 . S
H527 C554 0.950 . S
H528 C557 0.950 . S
H529 C558 0.950 . S
H530 C560 0.950 . S
H531 C561 0.950 . S
C532 H514 0.951 . S
C532 C533 1.366 . S
C532 C534 1.388 . S
C533 C532 1.366 . S
C533 C537 1.385 . S
C534 H515 0.951 . S
C534 C532 1.388 . S
C534 C535 1.366 . S
C535 C534 1.366 . S
C535 C536 1.414 . S
C535 C538 1.499 . S
C536 H516 0.950 . S
C536 C535 1.414 . S
C536 C537 1.374 . S
C537 H517 0.950 . S
C537 C533 1.385 . S
C537 C536 1.374 . S
C538 C535 1.499 . S
C538 C539 1.373 . S
C538 C540 1.389 . S
C539 H518 0.950 . S
C539 C538 1.373 . S
C539 C555 1.377 . S
C540 C538 1.389 . S
C540 C541 1.524 . S
C540 C554 1.377 . S
C541 C540 1.524 . S
C541 C542 1.397 . S
C541 C546 1.363 . S
C542 H519 0.950 . S
C542 C541 1.397 . S
C542 C543 1.334 . S
C543 H520 0.950 . S
C543 C542 1.334 . S
C543 C544 1.287 . S
C544 C543 1.287 . S
C544 C545 1.524 . S
C544 H563 0.913 . S
C545 H521 0.950 . S
C545 C544 1.524 . S
C545 C546 1.415 . S
C546 H522 0.950 . S
C546 C541 1.363 . S
C546 C545 1.415 . S
C547 H523 0.951 . S
C547 C548 1.366 . S
C547 C549 1.388 . S
C548 C547 1.366 . S
C548 C552 1.385 . S
C549 H524 0.951 . S
C549 C547 1.388 . S
C549 C550 1.366 . S
C550 C549 1.366 . S
C550 C551 1.414 . S
C550 C553 1.499 . S
C551 H525 0.950 . S
C551 C550 1.414 . S
C551 C552 1.374 . S
C552 H526 0.950 . S
C552 C548 1.385 . S
C552 C551 1.374 . S
C553 C550 1.499 . S
C553 C554 1.373 . S
C553 C555 1.389 . S
C554 H527 0.950 . S
C554 C540 1.377 . S
C554 C553 1.373 . S
C555 C539 1.377 . S
C555 C553 1.389 . S
C555 C556 1.524 . S
C556 C555 1.524 . S
C556 C557 1.397 . S
C556 C561 1.363 . S
C557 H528 0.950 . S
C557 C556 1.397 . S
C557 C558 1.334 . S
C558 H529 0.950 . S
C558 C557 1.334 . S
C558 C559 1.287 . S
C559 C558 1.287 . S
C559 C560 1.524 . S
C559 H562 0.999 . S
C560 H530 0.950 . S
C560 C559 1.524 . S
C560 C561 1.415 . S
C561 H531 0.950 . S
C561 C556 1.363 . S
C561 C560 1.415 . S
H562 C559 0.999 . S
H563 C544 0.913 . S
H564 C582 0.951 . S
H565 C584 0.951 . S
H566 C586 0.950 . S
H567 C587 0.950 . S
H568 C589 0.950 . S
H569 C592 0.950 . S
H570 C593 0.950 . S
H571 C595 0.950 . S
H572 C596 0.950 . S
H573 C597 0.951 . S
H574 C599 0.951 . S
H575 C601 0.950 . S
H576 C602 0.950 . S
H577 C604 0.950 . S
H578 C607 0.950 . S
H579 C608 0.950 . S
H580 C610 0.950 . S
H581 C611 0.950 . S
C582 H564 0.951 . S
C582 C583 1.366 . S
C582 C584 1.388 . S
C583 C582 1.366 . S
C583 C587 1.385 . S
C584 H565 0.951 . S
C584 C582 1.388 . S
C584 C585 1.366 . S
C585 C584 1.366 . S
C585 C586 1.414 . S
C585 C588 1.499 . S
C586 H566 0.950 . S
C586 C585 1.414 . S
C586 C587 1.374 . S
C587 H567 0.950 . S
C587 C583 1.385 . S
C587 C586 1.374 . S
C588 C585 1.499 . S
C588 C589 1.373 . S
C588 C590 1.389 . S
C589 H568 0.950 . S
C589 C588 1.373 . S
C589 C605 1.377 . S
C590 C588 1.389 . S
C590 C591 1.524 . S
C590 C604 1.377 . S
C591 C590 1.524 . S
C591 C592 1.397 . S
C591 C596 1.363 . S
C592 H569 0.950 . S
C592 C591 1.397 . S
C592 C593 1.334 . S
C593 H570 0.950 . S
C593 C592 1.334 . S
C593 C594 1.287 . S
C594 C593 1.287 . S
C594 C595 1.524 . S
C594 H613 0.913 . S
C595 H571 0.950 . S
C595 C594 1.524 . S
C595 C596 1.415 . S
C596 H572 0.950 . S
C596 C591 1.363 . S
C596 C595 1.415 . S
C597 H573 0.951 . S
C597 C598 1.366 . S
C597 C599 1.388 . S
C598 C597 1.366 . S
C598 C602 1.385 . S
C599 H574 0.951 . S
C599 C597 1.388 . S
C599 C600 1.366 . S
C600 C599 1.366 . S
C600 C601 1.414 . S
C600 C603 1.499 . S
C601 H575 0.950 . S
C601 C600 1.414 . S
C601 C602 1.374 . S
C602 H576 0.950 . S
C602 C598 1.385 . S
C602 C601 1.374 . S
C603 C600 1.499 . S
C603 C604 1.373 . S
C603 C605 1.389 . S
C604 H577 0.950 . S
C604 C590 1.377 . S
C604 C603 1.373 . S
C605 C589 1.377 . S
C605 C603 1.389 . S
C605 C606 1.524 . S
C606 C605 1.524 . S
C606 C607 1.397 . S
C606 C611 1.363 . S
C607 H578 0.950 . S
C607 C606 1.397 . S
C607 C608 1.334 . S
C608 H579 0.950 . S
C608 C607 1.334 . S
C608 C609 1.287 . S
C609 C608 1.287 . S
C609 C610 1.524 . S
C609 H612 0.999 . S
C610 H580 0.950 . S
C610 C609 1.524 . S
C610 C611 1.415 . S
C611 H581 0.950 . S
C611 C606 1.363 . S
C611 C610 1.415 . S
H612 C609 0.999 . S
H613 C594 0.913 . S
H614 C632 0.951 . S
H615 C634 0.951 . S
H616 C636 0.950 . S
H617 C637 0.950 . S
H618 C639 0.950 . S
H619 C642 0.950 . S
H620 C643 0.950 . S
H621 C645 0.950 . S
H622 C646 0.950 . S
H623 C647 0.951 . S
H624 C649 0.951 . S
H625 C651 0.950 . S
H626 C652 0.950 . S
H627 C654 0.950 . S
H628 C657 0.950 . S
H629 C658 0.950 . S
H630 C660 0.950 . S
H631 C661 0.961 . S
C632 H614 0.951 . S
C632 C633 1.366 . S
C632 C634 1.388 . S
C633 C632 1.366 . S
C633 C637 1.385 . S
C634 H615 0.951 . S
C634 C632 1.388 . S
C634 C635 1.366 . S
C635 C634 1.366 . S
C635 C636 1.414 . S
C635 C638 1.499 . S
C636 H616 0.950 . S
C636 C635 1.414 . S
C636 C637 1.374 . S
C637 H617 0.950 . S
C637 C633 1.385 . S
C637 C636 1.374 . S
C638 C635 1.499 . S
C638 C639 1.373 . S
C638 C640 1.389 . S
C639 H618 0.950 . S
C639 C638 1.373 . S
C639 C655 1.377 . S
C640 C638 1.389 . S
C640 C641 1.524 . S
C640 C654 1.377 . S
C641 C640 1.524 . S
C641 C642 1.397 . S
C641 C646 1.363 . S
C642 H619 0.950 . S
C642 C641 1.397 . S
C642 C643 1.334 . S
C643 H620 0.950 . S
C643 C642 1.334 . S
C643 C644 1.287 . S
C644 C643 1.287 . S
C644 C645 1.524 . S
C644 H663 0.913 . S
C645 H621 0.950 . S
C645 C644 1.524 . S
C645 C646 1.415 . S
C646 H622 0.950 . S
C646 C641 1.363 . S
C646 C645 1.415 . S
C647 H623 0.951 . S
C647 C648 1.366 . S
C647 C649 1.388 . S
C648 C647 1.366 . S
C648 C652 1.385 . S
C649 H624 0.951 . S
C649 C647 1.388 . S
C649 C650 1.366 . S
C650 C649 1.366 . S
C650 C651 1.414 . S
C650 C653 1.499 1_655 S
C651 H625 0.950 . S
C651 C650 1.414 . S
C651 C652 1.374 . S
C652 H626 0.950 . S
C652 C648 1.385 . S
C652 C651 1.374 . S
C653 C650 1.499 1_455 S
C653 C654 1.373 . S
C653 C655 1.389 . S
C654 H627 0.950 . S
C654 C640 1.377 . S
C654 C653 1.373 . S
C655 C639 1.377 . S
C655 C653 1.389 . S
C655 C656 1.524 . S
C656 C655 1.524 . S
C656 C657 1.397 1_455 S
C656 C661 1.366 . S
C657 H628 0.950 . S
C657 C656 1.397 1_655 S
C657 C658 1.334 . S
C658 H629 0.950 . S
C658 C657 1.334 . S
C658 C659 1.287 . S
C659 C658 1.287 . S
C659 C660 1.524 . S
C659 H662 0.999 . S
C660 H630 0.950 . S
C660 C659 1.524 . S
C660 C661 1.401 1_655 S
C661 H631 0.961 . S
C661 C656 1.366 . S
C661 C660 1.401 1_455 S
H662 C659 0.999 . S
H663 C644 0.913 . S
H664 C682 0.951 . S
H665 C684 0.951 . S
H666 C686 0.950 . S
H667 C687 0.950 . S
H668 C689 0.950 . S
H669 C692 0.950 . S
H670 C693 0.950 . S
H671 C695 0.950 . S
H672 C696 0.950 . S
H673 C697 0.951 . S
H674 C699 0.951 . S
H675 C701 0.950 . S
H676 C702 0.950 . S
H677 C704 0.950 . S
H678 C707 0.950 . S
H679 C708 0.950 . S
H680 C710 0.950 . S
H681 C711 0.950 . S
C682 H664 0.951 . S
C682 C683 1.366 . S
C682 C684 1.388 . S
C683 C682 1.366 . S
C683 C687 1.385 . S
C684 H665 0.951 . S
C684 C682 1.388 . S
C684 C685 1.366 . S
C685 C684 1.366 . S
C685 C686 1.414 . S
C685 C688 1.499 . S
C686 H666 0.950 . S
C686 C685 1.414 . S
C686 C687 1.374 . S
C687 H667 0.950 . S
C687 C683 1.385 . S
C687 C686 1.374 . S
C688 C685 1.499 . S
C688 C689 1.373 . S
C688 C690 1.389 . S
C689 H668 0.950 . S
C689 C688 1.373 . S
C689 C705 1.377 . S
C690 C688 1.389 . S
C690 C691 1.524 . S
C690 C704 1.377 . S
C691 C690 1.524 . S
C691 C692 1.397 . S
C691 C696 1.363 . S
C692 H669 0.950 . S
C692 C691 1.397 . S
C692 C693 1.334 . S
C693 H670 0.950 . S
C693 C692 1.334 . S
C693 C694 1.287 . S
C694 C693 1.287 . S
C694 C695 1.524 . S
C694 H713 0.913 . S
C695 H671 0.950 . S
C695 C694 1.524 . S
C695 C696 1.415 . S
C696 H672 0.950 . S
C696 C691 1.363 . S
C696 C695 1.415 . S
C697 H673 0.951 . S
C697 C698 1.366 . S
C697 C699 1.388 . S
C698 C697 1.366 . S
C698 C702 1.385 . S
C699 H674 0.951 . S
C699 C697 1.388 . S
C699 C700 1.366 . S
C700 C699 1.366 . S
C700 C701 1.414 . S
C700 C703 1.499 . S
C701 H675 0.950 . S
C701 C700 1.414 . S
C701 C702 1.374 . S
C702 H676 0.950 . S
C702 C698 1.385 . S
C702 C701 1.374 . S
C703 C700 1.499 . S
C703 C704 1.373 . S
C703 C705 1.389 . S
C704 H677 0.950 . S
C704 C690 1.377 . S
C704 C703 1.373 . S
C705 C689 1.377 . S
C705 C703 1.389 . S
C705 C706 1.524 . S
C706 C705 1.524 . S
C706 C707 1.397 . S
C706 C711 1.363 . S
C707 H678 0.950 . S
C707 C706 1.397 . S
C707 C708 1.334 . S
C708 H679 0.950 . S
C708 C707 1.334 . S
C708 C709 1.287 . S
C709 C708 1.287 . S
C709 C710 1.524 . S
C709 H712 0.999 . S
C710 H680 0.950 . S
C710 C709 1.524 . S
C710 C711 1.415 . S
C711 H681 0.950 . S
C711 C706 1.363 . S
C711 C710 1.415 . S
H712 C709 0.999 . S
H713 C694 0.913 . S
H714 C732 0.951 . S
H715 C734 0.951 . S
H716 C736 0.950 . S
H717 C737 0.950 . S
H718 C739 0.950 . S
H719 C742 0.950 . S
H720 C743 0.950 . S
H721 C745 0.950 . S
H722 C746 0.950 . S
H723 C747 0.951 . S
H724 C749 0.951 . S
H725 C751 0.950 . S
H726 C752 0.950 . S
H727 C754 0.950 . S
H728 C757 0.950 . S
H729 C758 0.950 . S
H730 C760 0.950 . S
H731 C761 0.950 . S
C732 H714 0.951 . S
C732 C733 1.366 . S
C732 C734 1.388 . S
C733 C732 1.366 . S
C733 C737 1.385 . S
C734 H715 0.951 . S
C734 C732 1.388 . S
C734 C735 1.366 . S
C735 C734 1.366 . S
C735 C736 1.414 . S
C735 C738 1.499 . S
C736 H716 0.950 . S
C736 C735 1.414 . S
C736 C737 1.374 . S
C737 H717 0.950 . S
C737 C733 1.385 . S
C737 C736 1.374 . S
C738 C735 1.499 . S
C738 C739 1.373 . S
C738 C740 1.389 . S
C739 H718 0.950 . S
C739 C738 1.373 . S
C739 C755 1.377 . S
C740 C738 1.389 . S
C740 C741 1.524 . S
C740 C754 1.377 . S
C741 C740 1.524 . S
C741 C742 1.397 . S
C741 C746 1.363 . S
C742 H719 0.950 . S
C742 C741 1.397 . S
C742 C743 1.334 . S
C743 H720 0.950 . S
C743 C742 1.334 . S
C743 C744 1.287 . S
C744 C743 1.287 . S
C744 C745 1.524 . S
C744 H763 0.913 . S
C745 H721 0.950 . S
C745 C744 1.524 . S
C745 C746 1.415 . S
C746 H722 0.950 . S
C746 C741 1.363 . S
C746 C745 1.415 . S
C747 H723 0.951 . S
C747 C748 1.366 . S
C747 C749 1.388 . S
C748 C747 1.366 . S
C748 C752 1.385 . S
C749 H724 0.951 . S
C749 C747 1.388 . S
C749 C750 1.366 . S
C750 C749 1.366 . S
C750 C751 1.414 . S
C750 C753 1.499 . S
C751 H725 0.950 . S
C751 C750 1.414 . S
C751 C752 1.374 . S
C752 H726 0.950 . S
C752 C748 1.385 . S
C752 C751 1.374 . S
C753 C750 1.499 . S
C753 C754 1.373 . S
C753 C755 1.389 . S
C754 H727 0.950 . S
C754 C740 1.377 . S
C754 C753 1.373 . S
C755 C739 1.377 . S
C755 C753 1.389 . S
C755 C756 1.524 . S
C756 C755 1.524 . S
C756 C757 1.397 . S
C756 C761 1.363 . S
C757 H728 0.950 . S
C757 C756 1.397 . S
C757 C758 1.334 . S
C758 H729 0.950 . S
C758 C757 1.334 . S
C758 C759 1.287 . S
C759 C758 1.287 . S
C759 C760 1.524 . S
C759 H762 0.999 . S
C760 H730 0.950 . S
C760 C759 1.524 . S
C760 C761 1.415 . S
C761 H731 0.950 . S
C761 C756 1.363 . S
C761 C760 1.415 . S
H762 C759 0.999 . S
H763 C744 0.913 . S
H764 C782 0.951 . S
H765 C784 0.951 . S
H766 C786 0.950 . S
H767 C787 0.950 . S
H768 C789 0.950 . S
H769 C792 0.950 . S
H770 C793 0.950 . S
H771 C795 0.950 . S
H772 C796 0.950 . S
H773 C797 0.951 . S
H774 C799 0.951 . S
H775 C801 0.950 . S
H776 C802 0.950 . S
H777 C804 0.950 . S
H778 C807 0.950 . S
H779 C808 0.950 . S
H780 C810 0.950 . S
H781 C811 0.950 . S
C782 H764 0.951 . S
C782 C783 1.366 . S
C782 C784 1.388 . S
C783 C782 1.366 . S
C783 C787 1.385 . S
C784 H765 0.951 . S
C784 C782 1.388 . S
C784 C785 1.366 . S
C785 C784 1.366 . S
C785 C786 1.414 . S
C785 C788 1.499 . S
C786 H766 0.950 . S
C786 C785 1.414 . S
C786 C787 1.374 . S
C787 H767 0.950 . S
C787 C783 1.385 . S
C787 C786 1.374 . S
C788 C785 1.499 . S
C788 C789 1.373 . S
C788 C790 1.389 . S
C789 H768 0.950 . S
C789 C788 1.373 . S
C789 C805 1.377 . S
C790 C788 1.389 . S
C790 C791 1.524 . S
C790 C804 1.377 . S
C791 C790 1.524 . S
C791 C792 1.397 . S
C791 C796 1.363 . S
C792 H769 0.950 . S
C792 C791 1.397 . S
C792 C793 1.334 . S
C793 H770 0.950 . S
C793 C792 1.334 . S
C793 C794 1.287 . S
C794 C793 1.287 . S
C794 C795 1.524 . S
C794 H813 0.913 . S
C795 H771 0.950 . S
C795 C794 1.524 . S
C795 C796 1.415 . S
C796 H772 0.950 . S
C796 C791 1.363 . S
C796 C795 1.415 . S
C797 H773 0.951 . S
C797 C798 1.366 . S
C797 C799 1.388 . S
C798 C797 1.366 . S
C798 C802 1.385 . S
C799 H774 0.951 . S
C799 C797 1.388 . S
C799 C800 1.366 . S
C800 C799 1.366 . S
C800 C801 1.414 . S
C800 C803 1.499 . S
C801 H775 0.950 . S
C801 C800 1.414 . S
C801 C802 1.374 . S
C802 H776 0.950 . S
C802 C798 1.385 . S
C802 C801 1.374 . S
C803 C800 1.499 . S
C803 C804 1.373 . S
C803 C805 1.389 . S
C804 H777 0.950 . S
C804 C790 1.377 . S
C804 C803 1.373 . S
C805 C789 1.377 . S
C805 C803 1.389 . S
C805 C806 1.524 . S
C806 C805 1.524 . S
C806 C807 1.397 . S
C806 C811 1.363 . S
C807 H778 0.950 . S
C807 C806 1.397 . S
C807 C808 1.334 . S
C808 H779 0.950 . S
C808 C807 1.334 . S
C808 C809 1.287 . S
C809 C808 1.287 . S
C809 C810 1.524 . S
C809 H812 0.999 . S
C810 H780 0.950 . S
C810 C809 1.524 . S
C810 C811 1.415 . S
C811 H781 0.950 . S
C811 C806 1.363 . S
C811 C810 1.415 . S
H812 C809 0.999 . S
H813 C794 0.913 . S
H814 C832 0.951 . S
H815 C834 0.951 . S
H816 C836 0.950 . S
H817 C837 0.950 . S
H818 C839 0.950 . S
H819 C842 0.950 . S
H820 C843 0.950 . S
H821 C845 0.950 . S
H822 C846 0.950 . S
H823 C847 0.951 . S
H824 C849 0.951 . S
H825 C851 0.950 . S
H826 C852 0.950 . S
H827 C854 0.950 . S
H828 C857 0.950 . S
H829 C858 0.950 . S
H830 C860 0.950 . S
H831 C861 0.950 . S
C832 H814 0.951 . S
C832 C833 1.366 . S
C832 C834 1.388 . S
C833 C832 1.366 . S
C833 C837 1.385 . S
C834 H815 0.951 . S
C834 C832 1.388 . S
C834 C835 1.366 . S
C835 C834 1.366 . S
C835 C836 1.414 . S
C835 C838 1.499 . S
C836 H816 0.950 . S
C836 C835 1.414 . S
C836 C837 1.374 . S
C837 H817 0.950 . S
C837 C833 1.385 . S
C837 C836 1.374 . S
C838 C835 1.499 . S
C838 C839 1.373 . S
C838 C840 1.389 . S
C839 H818 0.950 . S
C839 C838 1.373 . S
C839 C855 1.377 . S
C840 C838 1.389 . S
C840 C841 1.524 . S
C840 C854 1.377 . S
C841 C840 1.524 . S
C841 C842 1.397 . S
C841 C846 1.363 . S
C842 H819 0.950 . S
C842 C841 1.397 . S
C842 C843 1.334 . S
C843 H820 0.950 . S
C843 C842 1.334 . S
C843 C844 1.287 . S
C844 C843 1.287 . S
C844 C845 1.524 . S
C844 H863 0.913 . S
C845 H821 0.950 . S
C845 C844 1.524 . S
C845 C846 1.415 . S
C846 H822 0.950 . S
C846 C841 1.363 . S
C846 C845 1.415 . S
C847 H823 0.951 . S
C847 C848 1.366 . S
C847 C849 1.388 . S
C848 C847 1.366 . S
C848 C852 1.385 . S
C849 H824 0.951 . S
C849 C847 1.388 . S
C849 C850 1.366 . S
C850 C849 1.366 . S
C850 C851 1.414 . S
C850 C853 1.499 1_455 S
C851 H825 0.950 . S
C851 C850 1.414 . S
C851 C852 1.374 . S
C852 H826 0.950 . S
C852 C848 1.385 . S
C852 C851 1.374 . S
C853 C850 1.499 1_655 S
C853 C854 1.373 . S
C853 C855 1.389 . S
C854 H827 0.950 . S
C854 C840 1.377 . S
C854 C853 1.373 . S
C855 C839 1.377 . S
C855 C853 1.389 . S
C855 C856 1.524 . S
C856 C855 1.524 . S
C856 C857 1.397 1_655 S
C856 C861 1.363 . S
C857 H828 0.950 . S
C857 C856 1.397 1_455 S
C857 C858 1.334 . S
C858 H829 0.950 . S
C858 C857 1.334 . S
C858 C859 1.269 1_455 S
C859 C858 1.269 1_655 S
C859 C860 1.552 . S
C859 H862 0.989 1_655 S
C860 H830 0.950 . S
C860 C859 1.552 . S
C860 C861 1.415 . S
C861 H831 0.950 . S
C861 C856 1.363 . S
C861 C860 1.415 . S
H862 C859 0.989 1_455 S
H863 C844 0.913 . S
H864 C882 0.951 . S
H865 C884 0.951 . S
H866 C886 0.950 . S
H867 C887 0.950 . S
H868 C889 0.950 . S
H869 C892 0.950 . S
H870 C893 0.950 . S
H871 C895 0.950 . S
H872 C896 0.950 . S
H873 C897 0.951 . S
H874 C899 0.951 . S
H875 C901 0.950 . S
H876 C902 0.950 . S
H877 C904 0.950 . S
H878 C907 0.950 . S
H879 C908 0.950 . S
H880 C910 0.950 . S
H881 C911 0.950 . S
C882 H864 0.951 . S
C882 C883 1.366 . S
C882 C884 1.388 . S
C883 C882 1.366 . S
C883 C887 1.385 . S
C884 H865 0.951 . S
C884 C882 1.388 . S
C884 C885 1.366 . S
C885 C884 1.366 . S
C885 C886 1.414 . S
C885 C888 1.499 . S
C886 H866 0.950 . S
C886 C885 1.414 . S
C886 C887 1.374 . S
C887 H867 0.950 . S
C887 C883 1.385 . S
C887 C886 1.374 . S
C888 C885 1.499 . S
C888 C889 1.373 . S
C888 C890 1.389 . S
C889 H868 0.950 . S
C889 C888 1.373 . S
C889 C905 1.377 . S
C890 C888 1.389 . S
C890 C891 1.524 . S
C890 C904 1.377 . S
C891 C890 1.524 . S
C891 C892 1.397 . S
C891 C896 1.363 . S
C892 H869 0.950 . S
C892 C891 1.397 . S
C892 C893 1.334 . S
C893 H870 0.950 . S
C893 C892 1.334 . S
C893 C894 1.287 . S
C894 C893 1.287 . S
C894 C895 1.524 . S
C894 H913 0.913 . S
C895 H871 0.950 . S
C895 C894 1.524 . S
C895 C896 1.415 . S
C896 H872 0.950 . S
C896 C891 1.363 . S
C896 C895 1.415 . S
C897 H873 0.951 . S
C897 C898 1.366 . S
C897 C899 1.388 . S
C898 C897 1.366 . S
C898 C902 1.385 . S
C899 H874 0.951 . S
C899 C897 1.388 . S
C899 C900 1.366 . S
C900 C899 1.366 . S
C900 C901 1.414 . S
C900 C903 1.499 . S
C901 H875 0.950 . S
C901 C900 1.414 . S
C901 C902 1.374 . S
C902 H876 0.950 . S
C902 C898 1.385 . S
C902 C901 1.374 . S
C903 C900 1.499 . S
C903 C904 1.373 . S
C903 C905 1.389 . S
C904 H877 0.950 . S
C904 C890 1.377 . S
C904 C903 1.373 . S
C905 C889 1.377 . S
C905 C903 1.389 . S
C905 C906 1.524 . S
C906 C905 1.524 . S
C906 C907 1.397 . S
C906 C911 1.363 . S
C907 H878 0.950 . S
C907 C906 1.397 . S
C907 C908 1.334 . S
C908 H879 0.950 . S
C908 C907 1.334 . S
C908 C909 1.287 . S
C909 C908 1.287 . S
C909 C910 1.524 . S
C909 H912 0.999 . S
C910 H880 0.950 . S
C910 C909 1.524 . S
C910 C911 1.415 . S
C911 H881 0.950 . S
C911 C906 1.363 . S
C911 C910 1.415 . S
H912 C909 0.999 . S
H913 C894 0.913 . S
H914 C932 0.951 . S
H915 C934 0.951 . S
H916 C936 0.932 1_565 S
H917 C937 0.947 1_565 S
H918 C939 0.950 1_455 S
H919 C942 0.950 . S
H920 C943 0.950 . S
H921 C945 0.950 . S
H922 C946 0.950 . S
H923 C947 0.951 . S
H924 C949 0.951 . S
H925 C951 0.950 1_545 S
H926 C952 0.950 . S
H927 C954 0.950 . S
H928 C957 0.950 . S
H929 C958 0.950 . S
H930 C960 0.950 . S
H931 C961 0.950 . S
C932 H914 0.951 . S
C932 C933 1.366 . S
C932 C934 1.388 . S
C933 C932 1.366 . S
C933 C937 1.385 . S
C934 H915 0.951 . S
C934 C932 1.388 . S
C934 C935 1.366 . S
C935 C934 1.366 . S
C935 C936 1.425 . S
C935 C938 1.499 1_455 S
C936 H916 0.932 1_545 S
C936 C935 1.425 . S
C936 C937 1.381 . S
C937 H917 0.947 1_545 S
C937 C933 1.385 . S
C937 C936 1.381 . S
C938 C935 1.499 1_655 S
C938 C939 1.373 1_545 S
C938 C940 1.389 . S
C939 H918 0.950 1_655 S
C939 C938 1.373 1_565 S
C939 C955 1.377 . S
C940 C938 1.389 . S
C940 C941 1.524 . S
C940 C954 1.377 . S
C941 C940 1.524 . S
C941 C942 1.397 1_655 S
C941 C946 1.363 . S
C942 H919 0.950 . S
C942 C941 1.397 1_455 S
C942 C943 1.334 . S
C943 H920 0.950 . S
C943 C942 1.334 . S
C943 C944 1.287 1_455 S
C944 C943 1.287 1_655 S
C944 C945 1.524 . S
C944 H963 0.913 . S
C945 H921 0.950 . S
C945 C944 1.524 . S
C945 C946 1.415 . S
C946 H922 0.950 . S
C946 C941 1.363 . S
C946 C945 1.415 . S
C947 H923 0.951 . S
C947 C948 1.366 . S
C947 C949 1.388 . S
C948 C947 1.366 . S
C948 C952 1.385 . S
C949 H924 0.951 . S
C949 C947 1.388 . S
C949 C950 1.366 . S
C950 C949 1.366 . S
C950 C951 1.414 . S
C950 C953 1.499 . S
C951 H925 0.950 1_565 S
C951 C950 1.414 . S
C951 C952 1.374 . S
C952 H926 0.950 . S
C952 C948 1.385 . S
C952 C951 1.374 . S
C953 C950 1.499 . S
C953 C954 1.373 1_565 S
C953 C955 1.389 . S
C954 H927 0.950 . S
C954 C940 1.377 . S
C954 C953 1.373 1_545 S
C955 C939 1.377 . S
C955 C953 1.389 . S
C955 C956 1.524 . S
C956 C955 1.524 . S
C956 C957 1.397 . S
C956 C961 1.363 . S
C957 H928 0.950 . S
C957 C956 1.397 . S
C957 C958 1.334 . S
C958 H929 0.950 . S
C958 C957 1.334 . S
C958 C959 1.287 . S
C959 C958 1.287 . S
C959 C960 1.524 . S
C959 H962 0.999 . S
C960 H930 0.950 . S
C960 C959 1.524 . S
C960 C961 1.415 . S
C961 H931 0.950 . S
C961 C956 1.363 . S
C961 C960 1.415 . S
H962 C959 0.999 . S
H963 C944 0.913 . S
H964 C982 0.951 . S
H965 C984 0.951 . S
H966 C986 0.950 . S
H967 C987 0.950 . S
H968 C989 0.950 . S
H969 C992 0.950 . S
H970 C993 0.950 . S
H971 C995 0.950 . S
H972 C996 0.950 . S
H973 C997 0.951 . S
H974 C999 0.951 . S
H975 C1001 0.950 . S
H976 C1002 0.950 . S
H977 C1004 0.950 . S
H978 C1007 0.950 . S
H979 C1008 0.950 . S
H980 C1010 0.950 . S
H981 C1011 0.950 . S
C982 H964 0.951 . S
C982 C983 1.366 . S
C982 C984 1.388 . S
C983 C982 1.366 . S
C983 C987 1.385 . S
C984 H965 0.951 . S
C984 C982 1.388 . S
C984 C985 1.366 . S
C985 C984 1.366 . S
C985 C986 1.414 . S
C985 C988 1.499 . S
C986 H966 0.950 . S
C986 C985 1.414 . S
C986 C987 1.374 . S
C987 H967 0.950 . S
C987 C983 1.385 . S
C987 C986 1.374 . S
C988 C985 1.499 . S
C988 C989 1.373 . S
C988 C990 1.389 . S
C989 H968 0.950 . S
C989 C988 1.373 . S
C989 C1005 1.377 . S
C990 C988 1.389 . S
C990 C991 1.524 . S
C990 C1004 1.377 . S
C991 C990 1.524 . S
C991 C992 1.397 . S
C991 C996 1.363 . S
C992 H969 0.950 . S
C992 C991 1.397 . S
C992 C993 1.334 . S
C993 H970 0.950 . S
C993 C992 1.334 . S
C993 C994 1.287 . S
C994 C993 1.287 . S
C994 C995 1.524 . S
C994 H1013 0.913 . S
C995 H971 0.950 . S
C995 C994 1.524 . S
C995 C996 1.415 . S
C996 H972 0.950 . S
C996 C991 1.363 . S
C996 C995 1.415 . S
C997 H973 0.951 . S
C997 C998 1.366 . S
C997 C999 1.388 . S
C998 C997 1.366 . S
C998 C1002 1.385 . S
C999 H974 0.951 . S
C999 C997 1.388 . S
C999 C1000 1.366 . S
C1000 C999 1.366 . S
C1000 C1001 1.414 . S
C1000 C1003 1.499 . S
C1001 H975 0.950 . S
C1001 C1000 1.414 . S
C1001 C1002 1.374 . S
C1002 H976 0.950 . S
C1002 C998 1.385 . S
C1002 C1001 1.374 . S
C1003 C1000 1.499 . S
C1003 C1004 1.373 . S
C1003 C1005 1.389 . S
C1004 H977 0.950 . S
C1004 C990 1.377 . S
C1004 C1003 1.373 . S
C1005 C989 1.377 . S
C1005 C1003 1.389 . S
C1005 C1006 1.524 . S
C1006 C1005 1.524 . S
C1006 C1007 1.397 . S
C1006 C1011 1.363 . S
C1007 H978 0.950 . S
C1007 C1006 1.397 . S
C1007 C1008 1.334 . S
C1008 H979 0.950 . S
C1008 C1007 1.334 . S
C1008 C1009 1.287 . S
C1009 C1008 1.287 . S
C1009 C1010 1.524 . S
C1009 H1012 0.999 . S
C1010 H980 0.950 . S
C1010 C1009 1.524 . S
C1010 C1011 1.415 . S
C1011 H981 0.950 . S
C1011 C1006 1.363 . S
C1011 C1010 1.415 . S
H1012 C1009 0.999 . S
H1013 C994 0.913 . S
H1014 C1032 0.951 . S
H1015 C1034 0.951 . S
H1016 C1036 0.950 1_565 S
H1017 C1037 0.950 . S
H1018 C1039 0.950 1_565 S
H1019 C1042 0.950 . S
H1020 C1043 0.950 . S
H1021 C1045 0.950 . S
H1022 C1046 0.950 . S
H1023 C1047 0.951 . S
H1024 C1049 0.951 . S
H1025 C1051 0.950 . S
H1026 C1052 0.950 . S
H1027 C1054 0.950 . S
H1028 C1057 0.947 1_545 S
H1029 C1058 0.950 . S
H1030 C1060 0.950 . S
H1031 C1061 0.950 . S
C1032 H1014 0.951 . S
C1032 C1033 1.366 . S
C1032 C1034 1.388 . S
C1033 C1032 1.366 . S
C1033 C1037 1.385 . S
C1034 H1015 0.951 . S
C1034 C1032 1.388 . S
C1034 C1035 1.366 . S
C1035 C1034 1.366 . S
C1035 C1036 1.414 . S
C1035 C1038 1.499 . S
C1036 H1016 0.950 1_545 S
C1036 C1035 1.414 . S
C1036 C1037 1.374 . S
C1037 H1017 0.950 . S
C1037 C1033 1.385 . S
C1037 C1036 1.374 . S
C1038 C1035 1.499 . S
C1038 C1039 1.373 . S
C1038 C1040 1.389 . S
C1039 H1018 0.950 1_545 S
C1039 C1038 1.373 . S
C1039 C1055 1.377 1_545 S
C1040 C1038 1.389 . S
C1040 C1041 1.524 . S
C1040 C1054 1.377 . S
C1041 C1040 1.524 . S
C1041 C1042 1.397 . S
C1041 C1046 1.363 . S
C1042 H1019 0.950 . S
C1042 C1041 1.397 . S
C1042 C1043 1.334 . S
C1043 H1020 0.950 . S
C1043 C1042 1.334 . S
C1043 C1044 1.287 . S
C1044 C1043 1.287 . S
C1044 C1045 1.524 . S
C1044 H1063 0.913 . S
C1045 H1021 0.950 . S
C1045 C1044 1.524 . S
C1045 C1046 1.415 . S
C1046 H1022 0.950 . S
C1046 C1041 1.363 . S
C1046 C1045 1.415 . S
C1047 H1023 0.951 . S
C1047 C1048 1.366 . S
C1047 C1049 1.388 . S
C1048 C1047 1.366 . S
C1048 C1052 1.385 1_565 S
C1049 H1024 0.951 . S
C1049 C1047 1.388 . S
C1049 C1050 1.383 . S
C1050 C1049 1.383 . S
C1050 C1051 1.402 1_565 S
C1050 C1053 1.493 1_565 S
C1051 H1025 0.950 . S
C1051 C1050 1.402 1_545 S
C1051 C1052 1.374 . S
C1052 H1026 0.950 . S
C1052 C1048 1.385 1_545 S
C1052 C1051 1.374 . S
C1053 C1050 1.493 1_545 S
C1053 C1054 1.373 . S
C1053 C1055 1.389 1_545 S
C1054 H1027 0.950 . S
C1054 C1040 1.377 . S
C1054 C1053 1.373 . S
C1055 C1039 1.377 1_565 S
C1055 C1053 1.389 1_565 S
C1055 C1056 1.524 . S
C1056 C1055 1.524 . S
C1056 C1057 1.397 . S
C1056 C1061 1.363 . S
C1057 H1028 0.947 1_565 S
C1057 C1056 1.397 . S
C1057 C1058 1.334 . S
C1058 H1029 0.950 . S
C1058 C1057 1.334 . S
C1058 C1059 1.287 . S
C1059 C1058 1.287 . S
C1059 C1060 1.524 . S
C1059 H1062 0.999 . S
C1060 H1030 0.950 . S
C1060 C1059 1.524 . S
C1060 C1061 1.415 . S
C1061 H1031 0.950 . S
C1061 C1056 1.363 . S
C1061 C1060 1.415 . S
H1062 C1059 0.999 . S
H1063 C1044 0.913 . S
H1064 C1082 0.951 . S
H1065 C1084 0.951 . S
H1066 C1086 0.950 . S
H1067 C1087 0.950 . S
H1068 C1089 0.950 . S
H1069 C1092 0.950 . S
H1070 C1093 0.950 . S
H1071 C1095 0.950 . S
H1072 C1096 0.950 . S
H1073 C1097 0.951 . S
H1074 C1099 0.951 . S
H1075 C1101 0.950 . S
H1076 C1102 0.950 . S
H1077 C1104 0.950 . S
H1078 C1107 0.950 . S
H1079 C1108 0.950 . S
H1080 C1110 0.950 . S
H1081 C1111 0.950 . S
C1082 H1064 0.951 . S
C1082 C1083 1.366 . S
C1082 C1084 1.388 . S
C1083 C1082 1.366 . S
C1083 C1087 1.385 . S
C1084 H1065 0.951 . S
C1084 C1082 1.388 . S
C1084 C1085 1.366 . S
C1085 C1084 1.366 . S
C1085 C1086 1.414 . S
C1085 C1088 1.499 . S
C1086 H1066 0.950 . S
C1086 C1085 1.414 . S
C1086 C1087 1.374 . S
C1087 H1067 0.950 . S
C1087 C1083 1.385 . S
C1087 C1086 1.374 . S
C1088 C1085 1.499 . S
C1088 C1089 1.373 . S
C1088 C1090 1.389 . S
C1089 H1068 0.950 . S
C1089 C1088 1.373 . S
C1089 C1105 1.377 . S
C1090 C1088 1.389 . S
C1090 C1091 1.524 . S
C1090 C1104 1.377 . S
C1091 C1090 1.524 . S
C1091 C1092 1.397 . S
C1091 C1096 1.363 . S
C1092 H1069 0.950 . S
C1092 C1091 1.397 . S
C1092 C1093 1.334 . S
C1093 H1070 0.950 . S
C1093 C1092 1.334 . S
C1093 C1094 1.287 . S
C1094 C1093 1.287 . S
C1094 C1095 1.524 . S
C1094 H1113 0.913 . S
C1095 H1071 0.950 . S
C1095 C1094 1.524 . S
C1095 C1096 1.415 . S
C1096 H1072 0.950 . S
C1096 C1091 1.363 . S
C1096 C1095 1.415 . S
C1097 H1073 0.951 . S
C1097 C1098 1.366 . S
C1097 C1099 1.388 . S
C1098 C1097 1.366 . S
C1098 C1102 1.385 . S
C1099 H1074 0.951 . S
C1099 C1097 1.388 . S
C1099 C1100 1.366 . S
C1100 C1099 1.366 . S
C1100 C1101 1.414 . S
C1100 C1103 1.499 . S
C1101 H1075 0.950 . S
C1101 C1100 1.414 . S
C1101 C1102 1.374 . S
C1102 H1076 0.950 . S
C1102 C1098 1.385 . S
C1102 C1101 1.374 . S
C1103 C1100 1.499 . S
C1103 C1104 1.373 . S
C1103 C1105 1.389 . S
C1104 H1077 0.950 . S
C1104 C1090 1.377 . S
C1104 C1103 1.373 . S
C1105 C1089 1.377 . S
C1105 C1103 1.389 . S
C1105 C1106 1.524 . S
C1106 C1105 1.524 . S
C1106 C1107 1.397 . S
C1106 C1111 1.363 . S
C1107 H1078 0.950 . S
C1107 C1106 1.397 . S
C1107 C1108 1.334 . S
C1108 H1079 0.950 . S
C1108 C1107 1.334 . S
C1108 C1109 1.287 . S
C1109 C1108 1.287 . S
C1109 C1110 1.524 . S
C1109 H1112 0.999 . S
C1110 H1080 0.950 . S
C1110 C1109 1.524 . S
C1110 C1111 1.415 . S
C1111 H1081 0.950 . S
C1111 C1106 1.363 . S
C1111 C1110 1.415 . S
H1112 C1109 0.999 . S
H1113 C1094 0.913 . S
H1114 C1132 0.951 . S
H1115 C1134 0.951 . S
H1116 C1136 0.950 . S
H1117 C1137 0.948 1_545 S
H1118 C1139 0.950 . S
H1119 C1142 0.950 . S
H1120 C1143 0.950 . S
H1121 C1145 0.950 . S
H1122 C1146 0.950 . S
H1123 C1147 0.951 . S
H1124 C1149 0.951 . S
H1125 C1151 0.950 . S
H1126 C1152 0.950 . S
H1127 C1154 0.950 . S
H1128 C1157 0.950 1_565 S
H1129 C1158 0.950 1_565 S
H1130 C1160 0.950 . S
H1131 C1161 0.950 . S
C1132 H1114 0.951 . S
C1132 C1133 1.366 . S
C1132 C1134 1.388 . S
C1133 C1132 1.366 . S
C1133 C1137 1.385 . S
C1134 H1115 0.951 . S
C1134 C1132 1.388 . S
C1134 C1135 1.366 . S
C1135 C1134 1.366 . S
C1135 C1136 1.414 1_565 S
C1135 C1138 1.499 1_665 S
C1136 H1116 0.950 . S
C1136 C1135 1.414 1_545 S
C1136 C1137 1.374 1_545 S
C1137 H1117 0.948 1_565 S
C1137 C1133 1.385 . S
C1137 C1136 1.374 1_565 S
C1138 C1135 1.499 1_445 S
C1138 C1139 1.373 . S
C1138 C1140 1.389 . S
C1139 H1118 0.950 . S
C1139 C1138 1.373 . S
C1139 C1155 1.377 . S
C1140 C1138 1.389 . S
C1140 C1141 1.524 . S
C1140 C1154 1.377 . S
C1141 C1140 1.524 . S
C1141 C1142 1.397 1_455 S
C1141 C1146 1.363 1_545 S
C1142 H1119 0.950 . S
C1142 C1141 1.397 1_655 S
C1142 C1143 1.334 . S
C1143 H1120 0.950 . S
C1143 C1142 1.334 . S
C1143 C1144 1.287 1_655 S
C1144 C1143 1.287 1_455 S
C1144 C1145 1.524 1_545 S
C1144 H1163 0.907 1_455 S
C1145 H1121 0.950 . S
C1145 C1144 1.524 1_565 S
C1145 C1146 1.415 . S
C1146 H1122 0.950 . S
C1146 C1141 1.363 1_565 S
C1146 C1145 1.415 . S
C1147 H1123 0.951 . S
C1147 C1148 1.366 . S
C1147 C1149 1.388 . S
C1148 C1147 1.366 . S
C1148 C1152 1.385 . S
C1149 H1124 0.951 . S
C1149 C1147 1.388 . S
C1149 C1150 1.366 . S
C1150 C1149 1.366 . S
C1150 C1151 1.414 . S
C1150 C1153 1.499 . S
C1151 H1125 0.950 . S
C1151 C1150 1.414 . S
C1151 C1152 1.374 . S
C1152 H1126 0.950 . S
C1152 C1148 1.385 . S
C1152 C1151 1.374 . S
C1153 C1150 1.499 . S
C1153 C1154 1.373 . S
C1153 C1155 1.389 . S
C1154 H1127 0.950 . S
C1154 C1140 1.377 . S
C1154 C1153 1.373 . S
C1155 C1139 1.377 . S
C1155 C1153 1.389 . S
C1155 C1156 1.524 . S
C1156 C1155 1.524 . S
C1156 C1157 1.397 . S
C1156 C1161 1.363 . S
C1157 H1128 0.950 1_545 S
C1157 C1156 1.397 . S
C1157 C1158 1.334 . S
C1158 H1129 0.950 1_545 S
C1158 C1157 1.334 . S
C1158 C1159 1.287 . S
C1159 C1158 1.287 . S
C1159 C1160 1.524 . S
C1159 H1162 0.999 . S
C1160 H1130 0.950 . S
C1160 C1159 1.524 . S
C1160 C1161 1.415 . S
C1161 H1131 0.950 . S
C1161 C1156 1.363 . S
C1161 C1160 1.415 . S
H1162 C1159 0.999 . S
H1163 C1144 0.907 1_655 S
H1164 C1182 0.951 . S
H1165 C1184 0.951 . S
H1166 C1186 0.950 . S
H1167 C1187 0.950 . S
H1168 C1189 0.950 . S
H1169 C1192 0.950 . S
H1170 C1193 0.950 . S
H1171 C1195 0.950 . S
H1172 C1196 0.950 . S
H1173 C1197 0.951 . S
H1174 C1199 0.951 . S
H1175 C1201 0.950 . S
H1176 C1202 0.950 . S
H1177 C1204 0.950 . S
H1178 C1207 0.950 . S
H1179 C1208 0.950 . S
H1180 C1210 0.950 . S
H1181 C1211 0.950 . S
C1182 H1164 0.951 . S
C1182 C1183 1.366 . S
C1182 C1184 1.388 . S
C1183 C1182 1.366 . S
C1183 C1187 1.385 . S
C1184 H1165 0.951 . S
C1184 C1182 1.388 . S
C1184 C1185 1.366 . S
C1185 C1184 1.366 . S
C1185 C1186 1.414 . S
C1185 C1188 1.499 . S
C1186 H1166 0.950 . S
C1186 C1185 1.414 . S
C1186 C1187 1.374 . S
C1187 H1167 0.950 . S
C1187 C1183 1.385 . S
C1187 C1186 1.374 . S
C1188 C1185 1.499 . S
C1188 C1189 1.373 . S
C1188 C1190 1.389 . S
C1189 H1168 0.950 . S
C1189 C1188 1.373 . S
C1189 C1205 1.377 . S
C1190 C1188 1.389 . S
C1190 C1191 1.524 . S
C1190 C1204 1.377 . S
C1191 C1190 1.524 . S
C1191 C1192 1.397 . S
C1191 C1196 1.363 . S
C1192 H1169 0.950 . S
C1192 C1191 1.397 . S
C1192 C1193 1.334 . S
C1193 H1170 0.950 . S
C1193 C1192 1.334 . S
C1193 C1194 1.287 . S
C1194 C1193 1.287 . S
C1194 C1195 1.524 . S
C1194 H1213 0.913 . S
C1195 H1171 0.950 . S
C1195 C1194 1.524 . S
C1195 C1196 1.415 . S
C1196 H1172 0.950 . S
C1196 C1191 1.363 . S
C1196 C1195 1.415 . S
C1197 H1173 0.951 . S
C1197 C1198 1.366 . S
C1197 C1199 1.388 . S
C1198 C1197 1.366 . S
C1198 C1202 1.385 . S
C1199 H1174 0.951 . S
C1199 C1197 1.388 . S
C1199 C1200 1.366 . S
C1200 C1199 1.366 . S
C1200 C1201 1.414 . S
C1200 C1203 1.499 . S
C1201 H1175 0.950 . S
C1201 C1200 1.414 . S
C1201 C1202 1.374 . S
C1202 H1176 0.950 . S
C1202 C1198 1.385 . S
C1202 C1201 1.374 . S
C1203 C1200 1.499 . S
C1203 C1204 1.373 . S
C1203 C1205 1.389 . S
C1204 H1177 0.950 . S
C1204 C1190 1.377 . S
C1204 C1203 1.373 . S
C1205 C1189 1.377 . S
C1205 C1203 1.389 . S
C1205 C1206 1.524 . S
C1206 C1205 1.524 . S
C1206 C1207 1.397 . S
C1206 C1211 1.363 . S
C1207 H1178 0.950 . S
C1207 C1206 1.397 . S
C1207 C1208 1.334 . S
C1208 H1179 0.950 . S
C1208 C1207 1.334 . S
C1208 C1209 1.287 . S
C1209 C1208 1.287 . S
C1209 C1210 1.524 . S
C1209 H1212 0.999 . S
C1210 H1180 0.950 . S
C1210 C1209 1.524 . S
C1210 C1211 1.415 . S
C1211 H1181 0.950 . S
C1211 C1206 1.363 . S
C1211 C1210 1.415 . S
H1212 C1209 0.999 . S
H1213 C1194 0.913 . S
H1214 C1232 0.951 . S
H1215 C1234 0.951 . S
H1216 C1236 0.950 1_545 S
H1217 C1237 0.950 . S
H1218 C1239 0.950 . S
H1219 C1242 0.950 . S
H1220 C1243 0.950 . S
H1221 C1245 0.950 . S
H1222 C1246 0.950 . S
H1223 C1247 0.951 . S
H1224 C1249 0.951 . S
H1225 C1251 0.950 . S
H1226 C1252 0.950 . S
H1227 C1254 0.950 . S
H1228 C1257 0.950 . S
H1229 C1258 0.950 . S
H1230 C1260 0.950 . S
H1231 C1261 0.950 . S
C1232 H1214 0.951 . S
C1232 C1233 1.366 . S
C1232 C1234 1.388 . S
C1233 C1232 1.366 . S
C1233 C1237 1.385 . S
C1234 H1215 0.951 . S
C1234 C1232 1.388 . S
C1234 C1235 1.366 . S
C1235 C1234 1.366 . S
C1235 C1236 1.414 . S
C1235 C1238 1.499 . S
C1236 H1216 0.950 1_565 S
C1236 C1235 1.414 . S
C1236 C1237 1.374 . S
C1237 H1217 0.950 . S
C1237 C1233 1.385 . S
C1237 C1236 1.374 . S
C1238 C1235 1.499 . S
C1238 C1239 1.373 1_565 S
C1238 C1240 1.389 . S
C1239 H1218 0.950 . S
C1239 C1238 1.373 1_545 S
C1239 C1255 1.377 . S
C1240 C1238 1.389 . S
C1240 C1241 1.524 . S
C1240 C1254 1.377 . S
C1241 C1240 1.524 . S
C1241 C1242 1.397 . S
C1241 C1246 1.363 . S
C1242 H1219 0.950 . S
C1242 C1241 1.397 . S
C1242 C1243 1.334 . S
C1243 H1220 0.950 . S
C1243 C1242 1.334 . S
C1243 C1244 1.287 . S
C1244 C1243 1.287 . S
C1244 C1245 1.524 . S
C1244 H1263 0.913 . S
C1245 H1221 0.950 . S
C1245 C1244 1.524 . S
C1245 C1246 1.415 . S
C1246 H1222 0.950 . S
C1246 C1241 1.363 . S
C1246 C1245 1.415 . S
C1247 H1223 0.951 . S
C1247 C1248 1.366 . S
C1247 C1249 1.388 . S
C1248 C1247 1.366 . S
C1248 C1252 1.385 1_545 S
C1249 H1224 0.951 . S
C1249 C1247 1.388 . S
C1249 C1250 1.366 . S
C1250 C1249 1.366 . S
C1250 C1251 1.414 1_545 S
C1250 C1253 1.499 1_545 S
C1251 H1225 0.950 . S
C1251 C1250 1.414 1_565 S
C1251 C1252 1.374 . S
C1252 H1226 0.950 . S
C1252 C1248 1.385 1_565 S
C1252 C1251 1.374 . S
C1253 C1250 1.499 1_565 S
C1253 C1254 1.373 . S
C1253 C1255 1.389 1_565 S
C1254 H1227 0.950 . S
C1254 C1240 1.377 . S
C1254 C1253 1.373 . S
C1255 C1239 1.377 . S
C1255 C1253 1.389 1_545 S
C1255 C1256 1.524 . S
C1256 C1255 1.524 . S
C1256 C1257 1.397 . S
C1256 C1261 1.363 . S
C1257 H1228 0.950 . S
C1257 C1256 1.397 . S
C1257 C1258 1.334 . S
C1258 H1229 0.950 . S
C1258 C1257 1.334 . S
C1258 C1259 1.287 . S
C1259 C1258 1.287 . S
C1259 C1260 1.524 . S
C1259 H1262 0.999 . S
C1260 H1230 0.950 . S
C1260 C1259 1.524 . S
C1260 C1261 1.415 . S
C1261 H1231 0.950 . S
C1261 C1256 1.363 . S
C1261 C1260 1.415 . S
H1262 C1259 0.999 . S
H1263 C1244 0.913 . S
H1264 C1282 0.951 . S
H1265 C1284 0.951 . S
H1266 C1286 0.950 . S
H1267 C1287 0.950 . S
H1268 C1289 0.950 . S
H1269 C1292 0.950 . S
H1270 C1293 0.950 . S
H1271 C1295 0.950 . S
H1272 C1296 0.950 . S
H1273 C1297 0.951 . S
H1274 C1299 0.951 . S
H1275 C1301 0.950 . S
H1276 C1302 0.950 . S
H1277 C1304 0.950 1_554 S
H1278 C1307 0.950 . S
H1279 C1308 0.950 1_565 S
H1280 C1310 0.950 . S
H1281 C1311 0.950 . S
C1282 H1264 0.951 . S
C1282 C1283 1.366 . S
C1282 C1284 1.388 . S
C1283 C1282 1.366 . S
C1283 C1287 1.385 . S
C1284 H1265 0.951 . S
C1284 C1282 1.388 . S
C1284 C1285 1.366 . S
C1285 C1284 1.366 . S
C1285 C1286 1.414 . S
C1285 C1288 1.499 . S
C1286 H1266 0.950 . S
C1286 C1285 1.414 . S
C1286 C1287 1.374 . S
C1287 H1267 0.950 . S
C1287 C1283 1.385 . S
C1287 C1286 1.374 . S
C1288 C1285 1.499 . S
C1288 C1289 1.373 . S
C1288 C1290 1.389 . S
C1289 H1268 0.950 . S
C1289 C1288 1.373 . S
C1289 C1305 1.377 . S
C1290 C1288 1.389 . S
C1290 C1291 1.524 . S
C1290 C1304 1.377 . S
C1291 C1290 1.524 . S
C1291 C1292 1.397 . S
C1291 C1296 1.363 . S
C1292 H1269 0.950 . S
C1292 C1291 1.397 . S
C1292 C1293 1.334 . S
C1293 H1270 0.950 . S
C1293 C1292 1.334 . S
C1293 C1294 1.287 . S
C1294 C1293 1.287 . S
C1294 C1295 1.524 . S
C1294 H1313 0.913 . S
C1295 H1271 0.950 . S
C1295 C1294 1.524 . S
C1295 C1296 1.415 . S
C1296 H1272 0.950 . S
C1296 C1291 1.363 . S
C1296 C1295 1.415 . S
C1297 H1273 0.951 . S
C1297 C1298 1.366 . S
C1297 C1299 1.388 . S
C1298 C1297 1.366 . S
C1298 C1302 1.385 . S
C1299 H1274 0.951 . S
C1299 C1297 1.388 . S
C1299 C1300 1.366 . S
C1300 C1299 1.366 . S
C1300 C1301 1.414 . S
C1300 C1303 1.499 . S
C1301 H1275 0.950 . S
C1301 C1300 1.414 . S
C1301 C1302 1.374 . S
C1302 H1276 0.950 . S
C1302 C1298 1.385 . S
C1302 C1301 1.374 . S
C1303 C1300 1.499 . S
C1303 C1304 1.373 1_554 S
C1303 C1305 1.389 1_554 S
C1304 H1277 0.950 1_556 S
C1304 C1290 1.377 . S
C1304 C1303 1.373 1_556 S
C1305 C1289 1.377 . S
C1305 C1303 1.389 1_556 S
C1305 C1306 1.524 . S
C1306 C1305 1.524 . S
C1306 C1307 1.397 1_556 S
C1306 C1311 1.363 . S
C1307 H1278 0.950 . S
C1307 C1306 1.397 1_554 S
C1307 C1308 1.334 . S
C1308 H1279 0.950 1_545 S
C1308 C1307 1.334 . S
C1308 C1309 1.281 1_545 S
C1309 C1308 1.281 1_565 S
C1309 C1310 1.512 1_564 S
C1309 H1312 1.018 . S
C1310 H1280 0.950 . S
C1310 C1309 1.512 1_546 S
C1310 C1311 1.415 . S
C1311 H1281 0.950 . S
C1311 C1306 1.363 . S
C1311 C1310 1.415 . S
H1312 C1309 1.018 . S
H1313 C1294 0.913 . S
H1314 C1332 0.951 . S
H1315 C1334 0.951 . S
H1316 C1336 0.950 . S
H1317 C1337 0.950 . S
H1318 C1339 0.950 . S
H1319 C1342 0.950 . S
H1320 C1343 0.950 . S
H1321 C1345 0.950 . S
H1322 C1346 0.950 . S
H1323 C1347 0.951 . S
H1324 C1349 0.951 . S
H1325 C1351 0.950 . S
H1326 C1352 0.950 . S
H1327 C1354 0.950 . S
H1328 C1357 0.950 . S
H1329 C1358 0.950 . S
H1330 C1360 0.950 . S
H1331 C1361 0.950 . S
C1332 H1314 0.951 . S
C1332 C1333 1.366 . S
C1332 C1334 1.388 . S
C1333 C1332 1.366 . S
C1333 C1337 1.385 . S
C1334 H1315 0.951 . S
C1334 C1332 1.388 . S
C1334 C1335 1.366 . S
C1335 C1334 1.366 . S
C1335 C1336 1.414 . S
C1335 C1338 1.499 . S
C1336 H1316 0.950 . S
C1336 C1335 1.414 . S
C1336 C1337 1.374 . S
C1337 H1317 0.950 . S
C1337 C1333 1.385 . S
C1337 C1336 1.374 . S
C1338 C1335 1.499 . S
C1338 C1339 1.373 . S
C1338 C1340 1.389 . S
C1339 H1318 0.950 . S
C1339 C1338 1.373 . S
C1339 C1355 1.377 . S
C1340 C1338 1.389 . S
C1340 C1341 1.524 . S
C1340 C1354 1.377 . S
C1341 C1340 1.524 . S
C1341 C1342 1.397 . S
C1341 C1346 1.363 . S
C1342 H1319 0.950 . S
C1342 C1341 1.397 . S
C1342 C1343 1.334 . S
C1343 H1320 0.950 . S
C1343 C1342 1.334 . S
C1343 C1344 1.287 . S
C1344 C1343 1.287 . S
C1344 C1345 1.524 . S
C1344 H1363 0.913 . S
C1345 H1321 0.950 . S
C1345 C1344 1.524 . S
C1345 C1346 1.415 . S
C1346 H1322 0.950 . S
C1346 C1341 1.363 . S
C1346 C1345 1.415 . S
C1347 H1323 0.951 . S
C1347 C1348 1.366 . S
C1347 C1349 1.388 . S
C1348 C1347 1.366 . S
C1348 C1352 1.385 . S
C1349 H1324 0.951 . S
C1349 C1347 1.388 . S
C1349 C1350 1.366 . S
C1350 C1349 1.366 . S
C1350 C1351 1.414 . S
C1350 C1353 1.499 . S
C1351 H1325 0.950 . S
C1351 C1350 1.414 . S
C1351 C1352 1.374 . S
C1352 H1326 0.950 . S
C1352 C1348 1.385 . S
C1352 C1351 1.374 . S
C1353 C1350 1.499 . S
C1353 C1354 1.373 . S
C1353 C1355 1.389 . S
C1354 H1327 0.950 . S
C1354 C1340 1.377 . S
C1354 C1353 1.373 . S
C1355 C1339 1.377 . S
C1355 C1353 1.389 . S
C1355 C1356 1.524 . S
C1356 C1355 1.524 . S
C1356 C1357 1.397 . S
C1356 C1361 1.363 . S
C1357 H1328 0.950 . S
C1357 C1356 1.397 . S
C1357 C1358 1.334 . S
C1358 H1329 0.950 . S
C1358 C1357 1.334 . S
C1358 C1359 1.287 . S
C1359 C1358 1.287 . S
C1359 C1360 1.524 . S
C1359 H1362 0.999 . S
C1360 H1330 0.950 . S
C1360 C1359 1.524 . S
C1360 C1361 1.415 . S
C1361 H1331 0.950 . S
C1361 C1356 1.363 . S
C1361 C1360 1.415 . S
H1362 C1359 0.999 . S
H1363 C1344 0.913 . S
H1364 C1382 0.951 . S
H1365 C1384 0.951 . S
H1366 C1386 0.950 . S
H1367 C1387 0.950 . S
H1368 C1389 0.950 . S
H1369 C1392 0.950 . S
H1370 C1393 0.950 . S
H1371 C1395 0.950 1_545 S
H1372 C1396 0.950 . S
H1373 C1397 0.951 . S
H1374 C1399 0.951 . S
H1375 C1401 0.950 . S
H1376 C1402 0.950 . S
H1377 C1404 0.950 . S
H1378 C1407 0.950 . S
H1379 C1408 0.950 . S
H1380 C1410 0.950 . S
H1381 C1411 0.950 . S
C1382 H1364 0.951 . S
C1382 C1383 1.366 . S
C1382 C1384 1.388 . S
C1383 C1382 1.366 . S
C1383 C1387 1.385 . S
C1384 H1365 0.951 . S
C1384 C1382 1.388 . S
C1384 C1385 1.366 . S
C1385 C1384 1.366 . S
C1385 C1386 1.414 . S
C1385 C1388 1.499 . S
C1386 H1366 0.950 . S
C1386 C1385 1.414 . S
C1386 C1387 1.374 . S
C1387 H1367 0.950 . S
C1387 C1383 1.385 . S
C1387 C1386 1.374 . S
C1388 C1385 1.499 . S
C1388 C1389 1.373 . S
C1388 C1390 1.389 . S
C1389 H1368 0.950 . S
C1389 C1388 1.373 . S
C1389 C1405 1.377 . S
C1390 C1388 1.389 . S
C1390 C1391 1.524 . S
C1390 C1404 1.377 . S
C1391 C1390 1.524 . S
C1391 C1392 1.397 . S
C1391 C1396 1.363 . S
C1392 H1369 0.950 . S
C1392 C1391 1.397 . S
C1392 C1393 1.334 . S
C1393 H1370 0.950 . S
C1393 C1392 1.334 . S
C1393 C1394 1.287 . S
C1394 C1393 1.287 . S
C1394 C1395 1.524 . S
C1394 H1413 0.913 . S
C1395 H1371 0.950 1_565 S
C1395 C1394 1.524 . S
C1395 C1396 1.415 . S
C1396 H1372 0.950 . S
C1396 C1391 1.363 . S
C1396 C1395 1.415 . S
C1397 H1373 0.951 . S
C1397 C1398 1.366 . S
C1397 C1399 1.388 . S
C1398 C1397 1.366 . S
C1398 C1402 1.385 . S
C1399 H1374 0.951 . S
C1399 C1397 1.388 . S
C1399 C1400 1.366 . S
C1400 C1399 1.366 . S
C1400 C1401 1.414 . S
C1400 C1403 1.499 . S
C1401 H1375 0.950 . S
C1401 C1400 1.414 . S
C1401 C1402 1.374 . S
C1402 H1376 0.950 . S
C1402 C1398 1.385 . S
C1402 C1401 1.374 . S
C1403 C1400 1.499 . S
C1403 C1404 1.373 . S
C1403 C1405 1.389 . S
C1404 H1377 0.950 . S
C1404 C1390 1.377 . S
C1404 C1403 1.373 . S
C1405 C1389 1.377 . S
C1405 C1403 1.389 . S
C1405 C1406 1.524 . S
C1406 C1405 1.524 . S
C1406 C1407 1.397 . S
C1406 C1411 1.363 . S
C1407 H1378 0.950 . S
C1407 C1406 1.397 . S
C1407 C1408 1.334 . S
C1408 H1379 0.950 . S
C1408 C1407 1.334 . S
C1408 C1409 1.287 . S
C1409 C1408 1.287 . S
C1409 C1410 1.524 . S
C1409 H1412 0.999 . S
C1410 H1380 0.950 . S
C1410 C1409 1.524 . S
C1410 C1411 1.415 . S
C1411 H1381 0.950 . S
C1411 C1406 1.363 . S
C1411 C1410 1.415 . S
H1412 C1409 0.999 . S
H1413 C1394 0.913 . S
H1414 C1432 0.951 . S
H1415 C1434 0.951 . S
H1416 C1436 0.950 . S
H1417 C1437 0.950 . S
H1418 C1439 0.950 . S
H1419 C1442 0.950 . S
H1420 C1443 0.950 . S
H1421 C1445 0.950 . S
H1422 C1446 0.950 . S
H1423 C1447 0.951 . S
H1424 C1449 0.951 . S
H1425 C1451 0.950 . S
H1426 C1452 0.950 . S
H1427 C1454 0.950 . S
H1428 C1457 0.950 . S
H1429 C1458 0.950 . S
H1430 C1460 0.950 . S
H1431 C1461 0.950 . S
C1432 H1414 0.951 . S
C1432 C1433 1.366 . S
C1432 C1434 1.388 . S
C1433 C1432 1.366 . S
C1433 C1437 1.385 . S
C1434 H1415 0.951 . S
C1434 C1432 1.388 . S
C1434 C1435 1.366 . S
C1435 C1434 1.366 . S
C1435 C1436 1.414 . S
C1435 C1438 1.499 . S
C1436 H1416 0.950 . S
C1436 C1435 1.414 . S
C1436 C1437 1.374 . S
C1437 H1417 0.950 . S
C1437 C1433 1.385 . S
C1437 C1436 1.374 . S
C1438 C1435 1.499 . S
C1438 C1439 1.373 . S
C1438 C1440 1.389 . S
C1439 H1418 0.950 . S
C1439 C1438 1.373 . S
C1439 C1455 1.377 . S
C1440 C1438 1.389 . S
C1440 C1441 1.524 . S
C1440 C1454 1.377 . S
C1441 C1440 1.524 . S
C1441 C1442 1.397 . S
C1441 C1446 1.363 . S
C1442 H1419 0.950 . S
C1442 C1441 1.397 . S
C1442 C1443 1.334 . S
C1443 H1420 0.950 . S
C1443 C1442 1.334 . S
C1443 C1444 1.287 . S
C1444 C1443 1.287 . S
C1444 C1445 1.524 . S
C1444 H1463 0.913 . S
C1445 H1421 0.950 . S
C1445 C1444 1.524 . S
C1445 C1446 1.415 . S
C1446 H1422 0.950 . S
C1446 C1441 1.363 . S
C1446 C1445 1.415 . S
C1447 H1423 0.951 . S
C1447 C1448 1.366 . S
C1447 C1449 1.388 . S
C1448 C1447 1.366 . S
C1448 C1452 1.385 . S
C1449 H1424 0.951 . S
C1449 C1447 1.388 . S
C1449 C1450 1.366 . S
C1450 C1449 1.366 . S
C1450 C1451 1.414 . S
C1450 C1453 1.499 . S
C1451 H1425 0.950 . S
C1451 C1450 1.414 . S
C1451 C1452 1.374 . S
C1452 H1426 0.950 . S
C1452 C1448 1.385 . S
C1452 C1451 1.374 . S
C1453 C1450 1.499 . S
C1453 C1454 1.373 . S
C1453 C1455 1.389 . S
C1454 H1427 0.950 . S
C1454 C1440 1.377 . S
C1454 C1453 1.373 . S
C1455 C1439 1.377 . S
C1455 C1453 1.389 . S
C1455 C1456 1.524 . S
C1456 C1455 1.524 . S
C1456 C1457 1.397 . S
C1456 C1461 1.363 . S
C1457 H1428 0.950 . S
C1457 C1456 1.397 . S
C1457 C1458 1.334 . S
C1458 H1429 0.950 . S
C1458 C1457 1.334 . S
C1458 C1459 1.287 . S
C1459 C1458 1.287 . S
C1459 C1460 1.524 . S
C1459 H1462 0.999 . S
C1460 H1430 0.950 . S
C1460 C1459 1.524 . S
C1460 C1461 1.415 . S
C1461 H1431 0.950 . S
C1461 C1456 1.363 . S
C1461 C1460 1.415 . S
H1462 C1459 0.999 . S
H1463 C1444 0.913 . S
H1464 C1482 0.951 . S
H1465 C1484 0.951 . S
H1466 C1486 0.950 . S
H1467 C1487 0.950 . S
H1468 C1489 0.950 . S
H1469 C1492 0.950 . S
H1470 C1493 0.950 . S
H1471 C1495 0.950 1_545 S
H1472 C1496 0.950 . S
H1473 C1497 0.951 . S
H1474 C1499 0.951 . S
H1475 C1501 0.950 . S
H1476 C1502 0.950 . S
H1477 C1504 0.950 . S
H1478 C1507 0.950 . S
H1479 C1508 0.950 . S
H1480 C1510 0.950 . S
H1481 C1511 0.950 . S
C1482 H1464 0.951 . S
C1482 C1483 1.366 . S
C1482 C1484 1.388 . S
C1483 C1482 1.366 . S
C1483 C1487 1.385 . S
C1484 H1465 0.951 . S
C1484 C1482 1.388 . S
C1484 C1485 1.366 . S
C1485 C1484 1.366 . S
C1485 C1486 1.414 . S
C1485 C1488 1.499 . S
C1486 H1466 0.950 . S
C1486 C1485 1.414 . S
C1486 C1487 1.374 . S
C1487 H1467 0.950 . S
C1487 C1483 1.385 . S
C1487 C1486 1.374 . S
C1488 C1485 1.499 . S
C1488 C1489 1.373 . S
C1488 C1490 1.389 . S
C1489 H1468 0.950 . S
C1489 C1488 1.373 . S
C1489 C1505 1.377 . S
C1490 C1488 1.389 . S
C1490 C1491 1.524 . S
C1490 C1504 1.377 . S
C1491 C1490 1.524 . S
C1491 C1492 1.397 . S
C1491 C1496 1.363 . S
C1492 H1469 0.950 . S
C1492 C1491 1.397 . S
C1492 C1493 1.334 . S
C1493 H1470 0.950 . S
C1493 C1492 1.334 . S
C1493 C1494 1.287 . S
C1494 C1493 1.287 . S
C1494 C1495 1.524 . S
C1494 H1513 0.913 . S
C1495 H1471 0.950 1_565 S
C1495 C1494 1.524 . S
C1495 C1496 1.415 . S
C1496 H1472 0.950 . S
C1496 C1491 1.363 . S
C1496 C1495 1.415 . S
C1497 H1473 0.951 . S
C1497 C1498 1.366 . S
C1497 C1499 1.388 . S
C1498 C1497 1.366 . S
C1498 C1502 1.385 . S
C1499 H1474 0.951 . S
C1499 C1497 1.388 . S
C1499 C1500 1.366 . S
C1500 C1499 1.366 . S
C1500 C1501 1.414 . S
C1500 C1503 1.460 1_556 S
C1501 H1475 0.950 . S
C1501 C1500 1.414 . S
C1501 C1502 1.374 . S
C1502 H1476 0.950 . S
C1502 C1498 1.385 . S
C1502 C1501 1.374 . S
C1503 C1500 1.460 1_554 S
C1503 C1504 1.397 . S
C1503 C1505 1.406 . S
C1504 H1477 0.950 . S
C1504 C1490 1.377 . S
C1504 C1503 1.397 . S
C1505 C1489 1.377 . S
C1505 C1503 1.406 . S
C1505 C1506 1.524 1_554 S
C1506 C1505 1.524 1_556 S
C1506 C1507 1.397 . S
C1506 C1511 1.363 1_556 S
C1507 H1478 0.950 . S
C1507 C1506 1.397 . S
C1507 C1508 1.334 . S
C1508 H1479 0.950 . S
C1508 C1507 1.334 . S
C1508 C1509 1.287 . S
C1509 C1508 1.287 . S
C1509 C1510 1.524 . S
C1509 H1512 0.999 . S
C1510 H1480 0.950 . S
C1510 C1509 1.524 . S
C1510 C1511 1.415 1_556 S
C1511 H1481 0.950 . S
C1511 C1506 1.363 1_554 S
C1511 C1510 1.415 1_554 S
H1512 C1509 0.999 . S
H1513 C1494 0.913 . S
H1514 C1532 0.951 . S
H1515 C1534 0.951 . S
H1516 C1536 0.950 . S
H1517 C1537 0.950 . S
H1518 C1539 0.950 . S
H1519 C1542 0.950 . S
H1520 C1543 0.950 . S
H1521 C1545 0.950 . S
H1522 C1546 0.950 . S
H1523 C1547 0.951 . S
H1524 C1549 0.951 . S
H1525 C1551 0.950 . S
H1526 C1552 0.950 . S
H1527 C1554 0.950 . S
H1528 C1557 0.950 . S
H1529 C1558 0.950 . S
H1530 C1560 0.950 . S
H1531 C1561 0.950 . S
C1532 H1514 0.951 . S
C1532 C1533 1.366 . S
C1532 C1534 1.388 . S
C1533 C1532 1.366 . S
C1533 C1537 1.385 . S
C1534 H1515 0.951 . S
C1534 C1532 1.388 . S
C1534 C1535 1.366 . S
C1535 C1534 1.366 . S
C1535 C1536 1.414 . S
C1535 C1538 1.499 . S
C1536 H1516 0.950 . S
C1536 C1535 1.414 . S
C1536 C1537 1.374 . S
C1537 H1517 0.950 . S
C1537 C1533 1.385 . S
C1537 C1536 1.374 . S
C1538 C1535 1.499 . S
C1538 C1539 1.373 . S
C1538 C1540 1.389 . S
C1539 H1518 0.950 . S
C1539 C1538 1.373 . S
C1539 C1555 1.377 . S
C1540 C1538 1.389 . S
C1540 C1541 1.524 . S
C1540 C1554 1.377 . S
C1541 C1540 1.524 . S
C1541 C1542 1.397 . S
C1541 C1546 1.363 . S
C1542 H1519 0.950 . S
C1542 C1541 1.397 . S
C1542 C1543 1.334 . S
C1543 H1520 0.950 . S
C1543 C1542 1.334 . S
C1543 C1544 1.287 . S
C1544 C1543 1.287 . S
C1544 C1545 1.524 . S
C1544 H1563 0.913 . S
C1545 H1521 0.950 . S
C1545 C1544 1.524 . S
C1545 C1546 1.415 . S
C1546 H1522 0.950 . S
C1546 C1541 1.363 . S
C1546 C1545 1.415 . S
C1547 H1523 0.951 . S
C1547 C1548 1.366 . S
C1547 C1549 1.388 . S
C1548 C1547 1.366 . S
C1548 C1552 1.385 . S
C1549 H1524 0.951 . S
C1549 C1547 1.388 . S
C1549 C1550 1.366 . S
C1550 C1549 1.366 . S
C1550 C1551 1.414 . S
C1550 C1553 1.499 . S
C1551 H1525 0.950 . S
C1551 C1550 1.414 . S
C1551 C1552 1.374 . S
C1552 H1526 0.950 . S
C1552 C1548 1.385 . S
C1552 C1551 1.374 . S
C1553 C1550 1.499 . S
C1553 C1554 1.373 . S
C1553 C1555 1.389 . S
C1554 H1527 0.950 . S
C1554 C1540 1.377 . S
C1554 C1553 1.373 . S
C1555 C1539 1.377 . S
C1555 C1553 1.389 . S
C1555 C1556 1.524 . S
C1556 C1555 1.524 . S
C1556 C1557 1.397 . S
C1556 C1561 1.363 . S
C1557 H1528 0.950 . S
C1557 C1556 1.397 . S
C1557 C1558 1.334 . S
C1558 H1529 0.950 . S
C1558 C1557 1.334 . S
C1558 C1559 1.287 . S
C1559 C1558 1.287 . S
C1559 C1560 1.524 . S
C1559 H1562 0.999 . S
C1560 H1530 0.950 . S
C1560 C1559 1.524 . S
C1560 C1561 1.415 . S
C1561 H1531 0.950 . S
C1561 C1556 1.363 . S
C1561 C1560 1.415 . S
H1562 C1559 0.999 . S
H1563 C1544 0.913 . S
H1564 C1582 0.951 . S
H1565 C1584 0.951 . S
H1566 C1586 0.950 . S
H1567 C1587 0.950 . S
H1568 C1589 0.950 . S
H1569 C1592 0.950 . S
H1570 C1593 0.950 . S
H1571 C1595 0.952 . S
H1572 C1596 0.950 . S
H1573 C1597 0.951 . S
H1574 C1599 0.951 . S
H1575 C1601 0.950 . S
H1576 C1602 0.950 . S
H1577 C1604 0.950 . S
H1578 C1607 0.950 . S
H1579 C1608 0.950 . S
H1580 C1610 0.950 . S
H1581 C1611 0.950 . S
C1582 H1564 0.951 . S
C1582 C1583 1.366 . S
C1582 C1584 1.388 . S
C1583 C1582 1.366 . S
C1583 C1587 1.385 . S
C1584 H1565 0.951 . S
C1584 C1582 1.388 . S
C1584 C1585 1.366 . S
C1585 C1584 1.366 . S
C1585 C1586 1.414 . S
C1585 C1588 1.499 . S
C1586 H1566 0.950 . S
C1586 C1585 1.414 . S
C1586 C1587 1.374 . S
C1587 H1567 0.950 . S
C1587 C1583 1.385 . S
C1587 C1586 1.374 . S
C1588 C1585 1.499 . S
C1588 C1589 1.373 . S
C1588 C1590 1.389 . S
C1589 H1568 0.950 . S
C1589 C1588 1.373 . S
C1589 C1605 1.377 . S
C1590 C1588 1.389 . S
C1590 C1591 1.524 . S
C1590 C1604 1.377 . S
C1591 C1590 1.524 . S
C1591 C1592 1.397 . S
C1591 C1596 1.363 . S
C1592 H1569 0.950 . S
C1592 C1591 1.397 . S
C1592 C1593 1.334 1_545 S
C1593 H1570 0.950 . S
C1593 C1592 1.334 1_565 S
C1593 C1594 1.287 . S
C1594 C1593 1.287 . S
C1594 C1595 1.524 1_565 S
C1594 H1613 0.913 . S
C1595 H1571 0.952 . S
C1595 C1594 1.524 1_545 S
C1595 C1596 1.415 . S
C1596 H1572 0.950 . S
C1596 C1591 1.363 . S
C1596 C1595 1.415 . S
C1597 H1573 0.951 . S
C1597 C1598 1.366 . S
C1597 C1599 1.388 . S
C1598 C1597 1.366 . S
C1598 C1602 1.385 . S
C1599 H1574 0.951 . S
C1599 C1597 1.388 . S
C1599 C1600 1.366 . S
C1600 C1599 1.366 . S
C1600 C1601 1.414 . S
C1600 C1603 1.499 . S
C1601 H1575 0.950 . S
C1601 C1600 1.414 . S
C1601 C1602 1.374 . S
C1602 H1576 0.950 . S
C1602 C1598 1.385 . S
C1602 C1601 1.374 . S
C1603 C1600 1.499 . S
C1603 C1604 1.373 . S
C1603 C1605 1.389 . S
C1604 H1577 0.950 . S
C1604 C1590 1.377 . S
C1604 C1603 1.373 . S
C1605 C1589 1.377 . S
C1605 C1603 1.389 . S
C1605 C1606 1.524 . S
C1606 C1605 1.524 . S
C1606 C1607 1.397 . S
C1606 C1611 1.363 . S
C1607 H1578 0.950 . S
C1607 C1606 1.397 . S
C1607 C1608 1.334 . S
C1608 H1579 0.950 . S
C1608 C1607 1.334 . S
C1608 C1609 1.287 . S
C1609 C1608 1.287 . S
C1609 C1610 1.524 . S
C1609 H1612 0.999 . S
C1610 H1580 0.950 . S
C1610 C1609 1.524 . S
C1610 C1611 1.415 . S
C1611 H1581 0.950 . S
C1611 C1606 1.363 . S
C1611 C1610 1.415 . S
H1612 C1609 0.999 . S
H1613 C1594 0.913 . S
H1614 C1632 0.951 . S
H1615 C1634 0.951 . S
H1616 C1636 0.950 . S
H1617 C1637 0.950 . S
H1618 C1639 0.950 . S
H1619 C1642 0.950 . S
H1620 C1643 0.950 . S
H1621 C1645 0.950 . S
H1622 C1646 0.950 . S
H1623 C1647 0.951 . S
H1624 C1649 0.951 . S
H1625 C1651 0.950 . S
H1626 C1652 0.950 . S
H1627 C1654 0.950 . S
H1628 C1657 0.950 . S
H1629 C1658 0.950 . S
H1630 C1660 0.950 . S
H1631 C1661 0.950 . S
C1632 H1614 0.951 . S
C1632 C1633 1.366 . S
C1632 C1634 1.388 . S
C1633 C1632 1.366 . S
C1633 C1637 1.385 . S
C1634 H1615 0.951 . S
C1634 C1632 1.388 . S
C1634 C1635 1.366 . S
C1635 C1634 1.366 . S
C1635 C1636 1.414 . S
C1635 C1638 1.499 . S
C1636 H1616 0.950 . S
C1636 C1635 1.414 . S
C1636 C1637 1.374 . S
C1637 H1617 0.950 . S
C1637 C1633 1.385 . S
C1637 C1636 1.374 . S
C1638 C1635 1.499 . S
C1638 C1639 1.373 . S
C1638 C1640 1.389 . S
C1639 H1618 0.950 . S
C1639 C1638 1.373 . S
C1639 C1655 1.377 . S
C1640 C1638 1.389 . S
C1640 C1641 1.524 . S
C1640 C1654 1.377 . S
C1641 C1640 1.524 . S
C1641 C1642 1.397 . S
C1641 C1646 1.363 . S
C1642 H1619 0.950 . S
C1642 C1641 1.397 . S
C1642 C1643 1.334 . S
C1643 H1620 0.950 . S
C1643 C1642 1.334 . S
C1643 C1644 1.287 . S
C1644 C1643 1.287 . S
C1644 C1645 1.524 . S
C1644 H1663 0.913 . S
C1645 H1621 0.950 . S
C1645 C1644 1.524 . S
C1645 C1646 1.415 . S
C1646 H1622 0.950 . S
C1646 C1641 1.363 . S
C1646 C1645 1.415 . S
C1647 H1623 0.951 . S
C1647 C1648 1.366 . S
C1647 C1649 1.388 . S
C1648 C1647 1.366 . S
C1648 C1652 1.385 . S
C1649 H1624 0.951 . S
C1649 C1647 1.388 . S
C1649 C1650 1.366 . S
C1650 C1649 1.366 . S
C1650 C1651 1.414 . S
C1650 C1653 1.499 . S
C1651 H1625 0.950 . S
C1651 C1650 1.414 . S
C1651 C1652 1.374 . S
C1652 H1626 0.950 . S
C1652 C1648 1.385 . S
C1652 C1651 1.374 . S
C1653 C1650 1.499 . S
C1653 C1654 1.373 . S
C1653 C1655 1.389 . S
C1654 H1627 0.950 . S
C1654 C1640 1.377 . S
C1654 C1653 1.373 . S
C1655 C1639 1.377 . S
C1655 C1653 1.389 . S
C1655 C1656 1.524 . S
C1656 C1655 1.524 . S
C1656 C1657 1.397 . S
C1656 C1661 1.363 . S
C1657 H1628 0.950 . S
C1657 C1656 1.397 . S
C1657 C1658 1.334 . S
C1658 H1629 0.950 . S
C1658 C1657 1.334 . S
C1658 C1659 1.287 . S
C1659 C1658 1.287 . S
C1659 C1660 1.524 . S
C1659 H1662 0.999 . S
C1660 H1630 0.950 . S
C1660 C1659 1.524 . S
C1660 C1661 1.415 . S
C1661 H1631 0.950 . S
C1661 C1656 1.363 . S
C1661 C1660 1.415 . S
H1662 C1659 0.999 . S
H1663 C1644 0.913 . S
H1664 C1682 0.951 . S
H1665 C1684 0.951 . S
H1666 C1686 0.950 . S
H1667 C1687 0.950 . S
H1668 C1689 0.950 . S
H1669 C1692 0.950 . S
H1670 C1693 0.950 . S
H1671 C1695 0.950 . S
H1672 C1696 0.950 . S
H1673 C1697 0.951 . S
H1674 C1699 0.951 . S
H1675 C1701 0.950 . S
H1676 C1702 0.950 . S
H1677 C1704 0.950 . S
H1678 C1707 0.950 . S
H1679 C1708 0.950 . S
H1680 C1710 0.950 . S
H1681 C1711 0.950 . S
C1682 H1664 0.951 . S
C1682 C1683 1.366 . S
C1682 C1684 1.388 . S
C1683 C1682 1.366 . S
C1683 C1687 1.385 . S
C1684 H1665 0.951 . S
C1684 C1682 1.388 . S
C1684 C1685 1.366 . S
C1685 C1684 1.366 . S
C1685 C1686 1.414 . S
C1685 C1688 1.499 . S
C1686 H1666 0.950 . S
C1686 C1685 1.414 . S
C1686 C1687 1.374 . S
C1687 H1667 0.950 . S
C1687 C1683 1.385 . S
C1687 C1686 1.374 . S
C1688 C1685 1.499 . S
C1688 C1689 1.373 . S
C1688 C1690 1.389 . S
C1689 H1668 0.950 . S
C1689 C1688 1.373 . S
C1689 C1705 1.377 . S
C1690 C1688 1.389 . S
C1690 C1691 1.524 . S
C1690 C1704 1.377 . S
C1691 C1690 1.524 . S
C1691 C1692 1.397 . S
C1691 C1696 1.363 . S
C1692 H1669 0.950 . S
C1692 C1691 1.397 . S
C1692 C1693 1.334 . S
C1693 H1670 0.950 . S
C1693 C1692 1.334 . S
C1693 C1694 1.287 . S
C1694 C1693 1.287 . S
C1694 C1695 1.524 . S
C1694 H1713 0.913 . S
C1695 H1671 0.950 . S
C1695 C1694 1.524 . S
C1695 C1696 1.415 . S
C1696 H1672 0.950 . S
C1696 C1691 1.363 . S
C1696 C1695 1.415 . S
C1697 H1673 0.951 . S
C1697 C1698 1.366 . S
C1697 C1699 1.388 . S
C1698 C1697 1.366 . S
C1698 C1702 1.385 . S
C1699 H1674 0.951 . S
C1699 C1697 1.388 . S
C1699 C1700 1.366 . S
C1700 C1699 1.366 . S
C1700 C1701 1.414 . S
C1700 C1703 1.499 . S
C1701 H1675 0.950 . S
C1701 C1700 1.414 . S
C1701 C1702 1.374 . S
C1702 H1676 0.950 . S
C1702 C1698 1.385 . S
C1702 C1701 1.374 . S
C1703 C1700 1.499 . S
C1703 C1704 1.373 . S
C1703 C1705 1.389 . S
C1704 H1677 0.950 . S
C1704 C1690 1.377 . S
C1704 C1703 1.373 . S
C1705 C1689 1.377 . S
C1705 C1703 1.389 . S
C1705 C1706 1.524 . S
C1706 C1705 1.524 . S
C1706 C1707 1.397 . S
C1706 C1711 1.363 . S
C1707 H1678 0.950 . S
C1707 C1706 1.397 . S
C1707 C1708 1.334 . S
C1708 H1679 0.950 . S
C1708 C1707 1.334 . S
C1708 C1709 1.287 . S
C1709 C1708 1.287 . S
C1709 C1710 1.524 . S
C1709 H1712 0.999 . S
C1710 H1680 0.950 . S
C1710 C1709 1.524 . S
C1710 C1711 1.415 . S
C1711 H1681 0.950 . S
C1711 C1706 1.363 . S
C1711 C1710 1.415 . S
H1712 C1709 0.999 . S
H1713 C1694 0.913 . S
H1714 C1732 0.951 . S
H1715 C1734 0.951 . S
H1716 C1736 0.950 . S
H1717 C1737 0.950 . S
H1718 C1739 0.950 . S
H1719 C1742 0.950 . S
H1720 C1743 0.950 . S
H1721 C1745 0.950 . S
H1722 C1746 0.950 . S
H1723 C1747 0.951 . S
H1724 C1749 0.951 . S
H1725 C1751 0.950 1_565 S
H1726 C1752 0.950 . S
H1727 C1754 0.950 . S
H1728 C1757 0.950 . S
H1729 C1758 0.950 . S
H1730 C1760 0.950 . S
H1731 C1761 0.950 . S
C1732 H1714 0.951 . S
C1732 C1733 1.366 . S
C1732 C1734 1.388 . S
C1733 C1732 1.366 . S
C1733 C1737 1.385 1_565 S
C1734 H1715 0.951 . S
C1734 C1732 1.388 . S
C1734 C1735 1.366 . S
C1735 C1734 1.366 . S
C1735 C1736 1.414 1_565 S
C1735 C1738 1.499 1_565 S
C1736 H1716 0.950 . S
C1736 C1735 1.414 1_545 S
C1736 C1737 1.374 . S
C1737 H1717 0.950 . S
C1737 C1733 1.385 1_545 S
C1737 C1736 1.374 . S
C1738 C1735 1.499 1_545 S
C1738 C1739 1.373 . S
C1738 C1740 1.389 1_545 S
C1739 H1718 0.950 . S
C1739 C1738 1.373 . S
C1739 C1755 1.377 . S
C1740 C1738 1.389 1_565 S
C1740 C1741 1.524 . S
C1740 C1754 1.377 . S
C1741 C1740 1.524 . S
C1741 C1742 1.397 . S
C1741 C1746 1.363 . S
C1742 H1719 0.950 . S
C1742 C1741 1.397 . S
C1742 C1743 1.334 . S
C1743 H1720 0.950 . S
C1743 C1742 1.334 . S
C1743 C1744 1.287 . S
C1744 C1743 1.287 . S
C1744 C1745 1.524 . S
C1744 H1763 0.913 . S
C1745 H1721 0.950 . S
C1745 C1744 1.524 . S
C1745 C1746 1.415 . S
C1746 H1722 0.950 . S
C1746 C1741 1.363 . S
C1746 C1745 1.415 . S
C1747 H1723 0.951 . S
C1747 C1748 1.366 . S
C1747 C1749 1.388 . S
C1748 C1747 1.366 . S
C1748 C1752 1.385 . S
C1749 H1724 0.951 . S
C1749 C1747 1.388 . S
C1749 C1750 1.366 . S
C1750 C1749 1.366 . S
C1750 C1751 1.414 . S
C1750 C1753 1.499 . S
C1751 H1725 0.950 1_545 S
C1751 C1750 1.414 . S
C1751 C1752 1.374 . S
C1752 H1726 0.950 . S
C1752 C1748 1.385 . S
C1752 C1751 1.374 . S
C1753 C1750 1.499 . S
C1753 C1754 1.373 1_545 S
C1753 C1755 1.389 . S
C1754 H1727 0.950 . S
C1754 C1740 1.377 . S
C1754 C1753 1.373 1_565 S
C1755 C1739 1.377 . S
C1755 C1753 1.389 . S
C1755 C1756 1.524 . S
C1756 C1755 1.524 . S
C1756 C1757 1.397 . S
C1756 C1761 1.363 . S
C1757 H1728 0.950 . S
C1757 C1756 1.397 . S
C1757 C1758 1.334 . S
C1758 H1729 0.950 . S
C1758 C1757 1.334 . S
C1758 C1759 1.287 . S
C1759 C1758 1.287 . S
C1759 C1760 1.524 . S
C1759 H1762 0.999 . S
C1760 H1730 0.950 . S
C1760 C1759 1.524 . S
C1760 C1761 1.415 . S
C1761 H1731 0.950 . S
C1761 C1756 1.363 . S
C1761 C1760 1.415 . S
H1762 C1759 0.999 . S
H1763 C1744 0.913 . S
H1764 C1782 0.951 . S
H1765 C1784 0.951 . S
H1766 C1786 0.950 . S
H1767 C1787 0.950 . S
H1768 C1789 0.950 . S
H1769 C1792 0.950 . S
H1770 C1793 0.950 . S
H1771 C1795 0.950 . S
H1772 C1796 0.950 . S
H1773 C1797 0.951 . S
H1774 C1799 0.951 . S
H1775 C1801 0.950 . S
H1776 C1802 0.950 . S
H1777 C1804 0.950 . S
H1778 C1807 0.950 . S
H1779 C1808 0.950 . S
H1780 C1810 0.961 . S
H1781 C1811 0.950 . S
C1782 H1764 0.951 . S
C1782 C1783 1.366 . S
C1782 C1784 1.388 . S
C1783 C1782 1.366 . S
C1783 C1787 1.385 . S
C1784 H1765 0.951 . S
C1784 C1782 1.388 . S
C1784 C1785 1.366 . S
C1785 C1784 1.366 . S
C1785 C1786 1.414 . S
C1785 C1788 1.499 . S
C1786 H1766 0.950 . S
C1786 C1785 1.414 . S
C1786 C1787 1.374 . S
C1787 H1767 0.950 . S
C1787 C1783 1.385 . S
C1787 C1786 1.374 . S
C1788 C1785 1.499 . S
C1788 C1789 1.373 . S
C1788 C1790 1.389 . S
C1789 H1768 0.950 . S
C1789 C1788 1.373 . S
C1789 C1805 1.377 . S
C1790 C1788 1.389 . S
C1790 C1791 1.524 . S
C1790 C1804 1.377 . S
C1791 C1790 1.524 . S
C1791 C1792 1.397 . S
C1791 C1796 1.363 . S
C1792 H1769 0.950 . S
C1792 C1791 1.397 . S
C1792 C1793 1.334 . S
C1793 H1770 0.950 . S
C1793 C1792 1.334 . S
C1793 C1794 1.287 . S
C1794 C1793 1.287 . S
C1794 C1795 1.524 . S
C1794 H1813 0.913 . S
C1795 H1771 0.950 . S
C1795 C1794 1.524 . S
C1795 C1796 1.415 . S
C1796 H1772 0.950 . S
C1796 C1791 1.363 . S
C1796 C1795 1.415 . S
C1797 H1773 0.951 . S
C1797 C1798 1.366 . S
C1797 C1799 1.388 . S
C1798 C1797 1.366 . S
C1798 C1802 1.385 . S
C1799 H1774 0.951 . S
C1799 C1797 1.388 . S
C1799 C1800 1.366 . S
C1800 C1799 1.366 . S
C1800 C1801 1.414 . S
C1800 C1803 1.499 1_554 S
C1801 H1775 0.950 . S
C1801 C1800 1.414 . S
C1801 C1802 1.374 . S
C1802 H1776 0.950 . S
C1802 C1798 1.385 . S
C1802 C1801 1.374 . S
C1803 C1800 1.499 1_556 S
C1803 C1804 1.373 . S
C1803 C1805 1.389 . S
C1804 H1777 0.950 . S
C1804 C1790 1.377 . S
C1804 C1803 1.373 . S
C1805 C1789 1.377 . S
C1805 C1803 1.389 . S
C1805 C1806 1.524 . S
C1806 C1805 1.524 . S
C1806 C1807 1.397 1_556 S
C1806 C1811 1.363 . S
C1807 H1778 0.950 . S
C1807 C1806 1.397 1_554 S
C1807 C1808 1.334 . S
C1808 H1779 0.950 . S
C1808 C1807 1.334 . S
C1808 C1809 1.287 . S
C1809 C1808 1.287 . S
C1809 C1810 1.492 1_554 S
C1809 H1812 0.999 . S
C1810 H1780 0.961 . S
C1810 C1809 1.492 1_556 S
C1810 C1811 1.436 . S
C1811 H1781 0.950 . S
C1811 C1806 1.363 . S
C1811 C1810 1.436 . S
H1812 C1809 0.999 . S
H1813 C1794 0.913 . S
H1814 C1832 0.951 . S
H1815 C1834 0.951 . S
H1816 C1836 0.950 . S
H1817 C1837 0.950 . S
H1818 C1839 0.950 . S
H1819 C1842 0.950 . S
H1820 C1843 0.950 . S
H1821 C1845 0.950 . S
H1822 C1846 0.950 . S
H1823 C1847 0.951 . S
H1824 C1849 0.951 . S
H1825 C1851 0.950 . S
H1826 C1852 0.950 . S
H1827 C1854 0.950 . S
H1828 C1857 0.950 . S
H1829 C1858 0.950 . S
H1830 C1860 0.950 . S
H1831 C1861 0.950 . S
C1832 H1814 0.951 . S
C1832 C1833 1.366 . S
C1832 C1834 1.388 . S
C1833 C1832 1.366 . S
C1833 C1837 1.385 . S
C1834 H1815 0.951 . S
C1834 C1832 1.388 . S
C1834 C1835 1.366 . S
C1835 C1834 1.366 . S
C1835 C1836 1.414 . S
C1835 C1838 1.499 . S
C1836 H1816 0.950 . S
C1836 C1835 1.414 . S
C1836 C1837 1.374 . S
C1837 H1817 0.950 . S
C1837 C1833 1.385 . S
C1837 C1836 1.374 . S
C1838 C1835 1.499 . S
C1838 C1839 1.373 . S
C1838 C1840 1.389 1_545 S
C1839 H1818 0.950 . S
C1839 C1838 1.373 . S
C1839 C1855 1.377 . S
C1840 C1838 1.389 1_565 S
C1840 C1841 1.524 . S
C1840 C1854 1.377 . S
C1841 C1840 1.524 . S
C1841 C1842 1.397 . S
C1841 C1846 1.363 . S
C1842 H1819 0.950 . S
C1842 C1841 1.397 . S
C1842 C1843 1.334 . S
C1843 H1820 0.950 . S
C1843 C1842 1.334 . S
C1843 C1844 1.287 . S
C1844 C1843 1.287 . S
C1844 C1845 1.524 . S
C1844 H1863 0.913 . S
C1845 H1821 0.950 . S
C1845 C1844 1.524 . S
C1845 C1846 1.415 . S
C1846 H1822 0.950 . S
C1846 C1841 1.363 . S
C1846 C1845 1.415 . S
C1847 H1823 0.951 . S
C1847 C1848 1.366 . S
C1847 C1849 1.388 1_565 S
C1848 C1847 1.366 . S
C1848 C1852 1.385 . S
C1849 H1824 0.951 . S
C1849 C1847 1.388 1_545 S
C1849 C1850 1.366 1_545 S
C1850 C1849 1.366 1_565 S
C1850 C1851 1.414 . S
C1850 C1853 1.499 1_565 S
C1851 H1825 0.950 . S
C1851 C1850 1.414 . S
C1851 C1852 1.374 . S
C1852 H1826 0.950 . S
C1852 C1848 1.385 . S
C1852 C1851 1.374 . S
C1853 C1850 1.499 1_545 S
C1853 C1854 1.373 1_545 S
C1853 C1855 1.389 . S
C1854 H1827 0.950 . S
C1854 C1840 1.377 . S
C1854 C1853 1.373 1_565 S
C1855 C1839 1.377 . S
C1855 C1853 1.389 . S
C1855 C1856 1.524 . S
C1856 C1855 1.524 . S
C1856 C1857 1.397 . S
C1856 C1861 1.363 . S
C1857 H1828 0.950 . S
C1857 C1856 1.397 . S
C1857 C1858 1.334 . S
C1858 H1829 0.950 . S
C1858 C1857 1.334 . S
C1858 C1859 1.287 . S
C1859 C1858 1.287 . S
C1859 C1860 1.524 . S
C1859 H1862 0.999 . S
C1860 H1830 0.950 . S
C1860 C1859 1.524 . S
C1860 C1861 1.415 . S
C1861 H1831 0.950 . S
C1861 C1856 1.363 . S
C1861 C1860 1.415 . S
H1862 C1859 0.999 . S
H1863 C1844 0.913 . S
H1864 C1882 0.951 . S
H1865 C1884 0.951 . S
H1866 C1886 0.950 . S
H1867 C1887 0.950 . S
H1868 C1889 0.950 . S
H1869 C1892 0.950 . S
H1870 C1893 0.950 . S
H1871 C1895 0.950 . S
H1872 C1896 0.950 . S
H1873 C1897 0.951 . S
H1874 C1899 0.951 . S
H1875 C1901 0.950 . S
H1876 C1902 0.950 . S
H1877 C1904 0.950 . S
H1878 C1907 0.950 . S
H1879 C1908 0.950 . S
H1880 C1910 0.950 . S
H1881 C1911 0.950 . S
C1882 H1864 0.951 . S
C1882 C1883 1.366 . S
C1882 C1884 1.388 . S
C1883 C1882 1.366 . S
C1883 C1887 1.385 . S
C1884 H1865 0.951 . S
C1884 C1882 1.388 . S
C1884 C1885 1.366 . S
C1885 C1884 1.366 . S
C1885 C1886 1.414 . S
C1885 C1888 1.499 . S
C1886 H1866 0.950 . S
C1886 C1885 1.414 . S
C1886 C1887 1.374 . S
C1887 H1867 0.950 . S
C1887 C1883 1.385 . S
C1887 C1886 1.374 . S
C1888 C1885 1.499 . S
C1888 C1889 1.373 . S
C1888 C1890 1.389 . S
C1889 H1868 0.950 . S
C1889 C1888 1.373 . S
C1889 C1905 1.377 . S
C1890 C1888 1.389 . S
C1890 C1891 1.524 . S
C1890 C1904 1.377 . S
C1891 C1890 1.524 . S
C1891 C1892 1.397 . S
C1891 C1896 1.363 . S
C1892 H1869 0.950 . S
C1892 C1891 1.397 . S
C1892 C1893 1.334 . S
C1893 H1870 0.950 . S
C1893 C1892 1.334 . S
C1893 C1894 1.287 . S
C1894 C1893 1.287 . S
C1894 C1895 1.524 . S
C1894 H1913 0.913 . S
C1895 H1871 0.950 . S
C1895 C1894 1.524 . S
C1895 C1896 1.415 . S
C1896 H1872 0.950 . S
C1896 C1891 1.363 . S
C1896 C1895 1.415 . S
C1897 H1873 0.951 . S
C1897 C1898 1.366 . S
C1897 C1899 1.388 . S
C1898 C1897 1.366 . S
C1898 C1902 1.385 . S
C1899 H1874 0.951 . S
C1899 C1897 1.388 . S
C1899 C1900 1.366 . S
C1900 C1899 1.366 . S
C1900 C1901 1.414 . S
C1900 C1903 1.499 . S
C1901 H1875 0.950 . S
C1901 C1900 1.414 . S
C1901 C1902 1.374 . S
C1902 H1876 0.950 . S
C1902 C1898 1.385 . S
C1902 C1901 1.374 . S
C1903 C1900 1.499 . S
C1903 C1904 1.373 . S
C1903 C1905 1.389 . S
C1904 H1877 0.950 . S
C1904 C1890 1.377 . S
C1904 C1903 1.373 . S
C1905 C1889 1.377 . S
C1905 C1903 1.389 . S
C1905 C1906 1.524 . S
C1906 C1905 1.524 . S
C1906 C1907 1.397 . S
C1906 C1911 1.363 . S
C1907 H1878 0.950 . S
C1907 C1906 1.397 . S
C1907 C1908 1.334 . S
C1908 H1879 0.950 . S
C1908 C1907 1.334 . S
C1908 C1909 1.287 . S
C1909 C1908 1.287 . S
C1909 C1910 1.524 . S
C1909 H1912 0.999 . S
C1910 H1880 0.950 . S
C1910 C1909 1.524 . S
C1910 C1911 1.415 . S
C1911 H1881 0.950 . S
C1911 C1906 1.363 . S
C1911 C1910 1.415 . S
H1912 C1909 0.999 . S
H1913 C1894 0.913 . S
H1914 C1932 0.951 . S
H1915 C1934 0.951 . S
H1916 C1936 0.950 . S
H1917 C1937 0.950 . S
H1918 C1939 0.950 . S
H1919 C1942 0.950 . S
H1920 C1943 0.950 . S
H1921 C1945 0.950 . S
H1922 C1946 0.950 . S
H1923 C1947 0.951 1_545 S
H1924 C1949 0.951 1_545 S
H1925 C1951 0.950 . S
H1926 C1952 0.950 . S
H1927 C1954 0.950 . S
H1928 C1957 0.950 . S
H1929 C1958 0.950 . S
H1930 C1960 0.950 . S
H1931 C1961 0.950 . S
C1932 H1914 0.951 . S
C1932 C1933 1.366 1_565 S
C1932 C1934 1.388 . S
C1933 C1932 1.366 1_545 S
C1933 C1937 1.385 . S
C1934 H1915 0.951 . S
C1934 C1932 1.388 . S
C1934 C1935 1.366 1_565 S
C1935 C1934 1.366 1_545 S
C1935 C1936 1.414 . S
C1935 C1938 1.499 1_545 S
C1936 H1916 0.950 . S
C1936 C1935 1.414 . S
C1936 C1937 1.374 . S
C1937 H1917 0.950 . S
C1937 C1933 1.385 . S
C1937 C1936 1.374 . S
C1938 C1935 1.499 1_565 S
C1938 C1939 1.373 1_565 S
C1938 C1940 1.389 . S
C1939 H1918 0.950 . S
C1939 C1938 1.373 1_545 S
C1939 C1955 1.377 . S
C1940 C1938 1.389 . S
C1940 C1941 1.524 . S
C1940 C1954 1.377 . S
C1941 C1940 1.524 . S
C1941 C1942 1.397 . S
C1941 C1946 1.363 . S
C1942 H1919 0.950 . S
C1942 C1941 1.397 . S
C1942 C1943 1.334 . S
C1943 H1920 0.950 . S
C1943 C1942 1.334 . S
C1943 C1944 1.287 . S
C1944 C1943 1.287 . S
C1944 C1945 1.524 . S
C1944 H1963 0.913 . S
C1945 H1921 0.950 . S
C1945 C1944 1.524 . S
C1945 C1946 1.415 . S
C1946 H1922 0.950 . S
C1946 C1941 1.363 . S
C1946 C1945 1.415 . S
C1947 H1923 0.951 1_565 S
C1947 C1948 1.366 . S
C1947 C1949 1.388 . S
C1948 C1947 1.366 . S
C1948 C1952 1.385 . S
C1949 H1924 0.951 1_565 S
C1949 C1947 1.388 . S
C1949 C1950 1.366 . S
C1950 C1949 1.366 . S
C1950 C1951 1.414 . S
C1950 C1953 1.499 . S
C1951 H1925 0.950 . S
C1951 C1950 1.414 . S
C1951 C1952 1.374 . S
C1952 H1926 0.950 . S
C1952 C1948 1.385 . S
C1952 C1951 1.374 . S
C1953 C1950 1.499 . S
C1953 C1954 1.373 . S
C1953 C1955 1.389 1_565 S
C1954 H1927 0.950 . S
C1954 C1940 1.377 . S
C1954 C1953 1.373 . S
C1955 C1939 1.377 . S
C1955 C1953 1.389 1_545 S
C1955 C1956 1.524 . S
C1956 C1955 1.524 . S
C1956 C1957 1.397 . S
C1956 C1961 1.363 . S
C1957 H1928 0.950 . S
C1957 C1956 1.397 . S
C1957 C1958 1.334 . S
C1958 H1929 0.950 . S
C1958 C1957 1.334 . S
C1958 C1959 1.287 . S
C1959 C1958 1.287 . S
C1959 C1960 1.524 . S
C1959 H1962 0.999 . S
C1960 H1930 0.950 . S
C1960 C1959 1.524 . S
C1960 C1961 1.415 . S
C1961 H1931 0.950 . S
C1961 C1956 1.363 . S
C1961 C1960 1.415 . S
H1962 C1959 0.999 . S
H1963 C1944 0.913 . S
H1964 C1982 0.951 . S
H1965 C1984 0.951 . S
H1966 C1986 0.950 . S
H1967 C1987 0.950 . S
H1968 C1989 0.950 . S
H1969 C1992 0.950 . S
H1970 C1993 0.950 . S
H1971 C1995 0.950 . S
H1972 C1996 0.950 . S
H1973 C1997 0.951 . S
H1974 C1999 0.951 . S
H1975 C2001 0.950 . S
H1976 C2002 0.950 . S
H1977 C2004 0.978 . S
H1978 C2007 0.950 . S
H1979 C2008 0.950 . S
H1980 C2010 0.950 . S
H1981 C2011 0.950 . S
C1982 H1964 0.951 . S
C1982 C1983 1.366 . S
C1982 C1984 1.388 . S
C1983 C1982 1.366 . S
C1983 C1987 1.385 . S
C1984 H1965 0.951 . S
C1984 C1982 1.388 . S
C1984 C1985 1.366 . S
C1985 C1984 1.366 . S
C1985 C1986 1.414 . S
C1985 C1988 1.499 . S
C1986 H1966 0.950 . S
C1986 C1985 1.414 . S
C1986 C1987 1.374 . S
C1987 H1967 0.950 . S
C1987 C1983 1.385 . S
C1987 C1986 1.374 . S
C1988 C1985 1.499 . S
C1988 C1989 1.373 . S
C1988 C1990 1.389 . S
C1989 H1968 0.950 . S
C1989 C1988 1.373 . S
C1989 C2005 1.377 . S
C1990 C1988 1.389 . S
C1990 C1991 1.524 . S
C1990 C2004 1.377 . S
C1991 C1990 1.524 . S
C1991 C1992 1.397 . S
C1991 C1996 1.363 . S
C1992 H1969 0.950 . S
C1992 C1991 1.397 . S
C1992 C1993 1.334 . S
C1993 H1970 0.950 . S
C1993 C1992 1.334 . S
C1993 C1994 1.287 . S
C1994 C1993 1.287 . S
C1994 C1995 1.524 . S
C1994 H2013 0.913 . S
C1995 H1971 0.950 . S
C1995 C1994 1.524 . S
C1995 C1996 1.415 . S
C1996 H1972 0.950 . S
C1996 C1991 1.363 . S
C1996 C1995 1.415 . S
C1997 H1973 0.951 . S
C1997 C1998 1.366 . S
C1997 C1999 1.388 . S
C1998 C1997 1.366 . S
C1998 C2002 1.385 . S
C1999 H1974 0.951 . S
C1999 C1997 1.388 . S
C1999 C2000 1.366 . S
C2000 C1999 1.366 . S
C2000 C2001 1.414 . S
C2000 C2003 1.499 1_556 S
C2001 H1975 0.950 . S
C2001 C2000 1.414 . S
C2001 C2002 1.374 . S
C2002 H1976 0.950 . S
C2002 C1998 1.385 . S
C2002 C2001 1.374 . S
C2003 C2000 1.499 1_554 S
C2003 C2004 1.373 . S
C2003 C2005 1.389 . S
C2004 H1977 0.978 . S
C2004 C1990 1.377 . S
C2004 C2003 1.373 . S
C2005 C1989 1.377 . S
C2005 C2003 1.389 . S
C2005 C2006 1.524 . S
C2006 C2005 1.524 . S
C2006 C2007 1.397 1_554 S
C2006 C2011 1.363 . S
C2007 H1978 0.950 . S
C2007 C2006 1.397 1_556 S
C2007 C2008 1.334 . S
C2008 H1979 0.950 . S
C2008 C2007 1.334 . S
C2008 C2009 1.287 1_556 S
C2009 C2008 1.287 1_554 S
C2009 C2010 1.524 . S
C2009 H2012 0.999 1_554 S
C2010 H1980 0.950 . S
C2010 C2009 1.524 . S
C2010 C2011 1.415 . S
C2011 H1981 0.950 . S
C2011 C2006 1.363 . S
C2011 C2010 1.415 . S
H2012 C2009 0.999 1_556 S
H2013 C1994 0.913 . S
H2014 C2032 0.951 . S
H2015 C2034 0.951 . S
H2016 C2036 0.950 . S
H2017 C2037 0.950 . S
H2018 C2039 0.950 . S
H2019 C2042 0.929 1_545 S
H2020 C2043 0.950 1_545 S
H2021 C2045 0.950 . S
H2022 C2046 0.950 . S
H2023 C2047 0.951 . S
H2024 C2049 0.951 . S
H2025 C2051 0.950 . S
H2026 C2052 0.950 . S
H2027 C2054 0.950 . S
H2028 C2057 0.950 1_565 S
H2029 C2058 0.950 . S
H2030 C2060 0.950 . S
H2031 C2061 0.950 . S
C2032 H2014 0.951 . S
C2032 C2033 1.366 1_565 S
C2032 C2034 1.388 . S
C2033 C2032 1.366 1_545 S
C2033 C2037 1.385 . S
C2034 H2015 0.951 . S
C2034 C2032 1.388 . S
C2034 C2035 1.366 1_565 S
C2035 C2034 1.366 1_545 S
C2035 C2036 1.414 . S
C2035 C2038 1.499 . S
C2036 H2016 0.950 . S
C2036 C2035 1.414 . S
C2036 C2037 1.374 . S
C2037 H2017 0.950 . S
C2037 C2033 1.385 . S
C2037 C2036 1.374 . S
C2038 C2035 1.499 . S
C2038 C2039 1.373 . S
C2038 C2040 1.389 1_545 S
C2039 H2018 0.950 . S
C2039 C2038 1.373 . S
C2039 C2055 1.377 . S
C2040 C2038 1.389 1_565 S
C2040 C2041 1.524 . S
C2040 C2054 1.377 . S
C2041 C2040 1.524 . S
C2041 C2042 1.411 . S
C2041 C2046 1.363 . S
C2042 H2019 0.929 1_565 S
C2042 C2041 1.411 . S
C2042 C2043 1.341 . S
C2043 H2020 0.950 1_565 S
C2043 C2042 1.341 . S
C2043 C2044 1.287 . S
C2044 C2043 1.287 . S
C2044 C2045 1.524 . S
C2044 H2063 0.913 . S
C2045 H2021 0.950 . S
C2045 C2044 1.524 . S
C2045 C2046 1.415 . S
C2046 H2022 0.950 . S
C2046 C2041 1.363 . S
C2046 C2045 1.415 . S
C2047 H2023 0.951 . S
C2047 C2048 1.366 1_545 S
C2047 C2049 1.388 . S
C2048 C2047 1.366 1_565 S
C2048 C2052 1.385 . S
C2049 H2024 0.951 . S
C2049 C2047 1.388 . S
C2049 C2050 1.366 1_545 S
C2050 C2049 1.366 1_565 S
C2050 C2051 1.414 . S
C2050 C2053 1.498 1_565 S
C2051 H2025 0.950 . S
C2051 C2050 1.414 . S
C2051 C2052 1.374 . S
C2052 H2026 0.950 . S
C2052 C2048 1.385 . S
C2052 C2051 1.374 . S
C2053 C2050 1.498 1_545 S
C2053 C2054 1.373 1_545 S
C2053 C2055 1.390 . S
C2054 H2027 0.950 . S
C2054 C2040 1.377 . S
C2054 C2053 1.373 1_565 S
C2055 C2039 1.377 . S
C2055 C2053 1.390 . S
C2055 C2056 1.524 . S
C2056 C2055 1.524 . S
C2056 C2057 1.397 . S
C2056 C2061 1.363 . S
C2057 H2028 0.950 1_545 S
C2057 C2056 1.397 . S
C2057 C2058 1.334 . S
C2058 H2029 0.950 . S
C2058 C2057 1.334 . S
C2058 C2059 1.287 . S
C2059 C2058 1.287 . S
C2059 C2060 1.524 . S
C2059 H2062 0.999 . S
C2060 H2030 0.950 . S
C2060 C2059 1.524 . S
C2060 C2061 1.415 . S
C2061 H2031 0.950 . S
C2061 C2056 1.363 . S
C2061 C2060 1.415 . S
H2062 C2059 0.999 . S
H2063 C2044 0.913 . S
H2064 C2082 0.951 . S
H2065 C2084 0.951 . S
H2066 C2086 0.950 . S
H2067 C2087 0.950 . S
H2068 C2089 0.950 . S
H2069 C2092 0.950 . S
H2070 C2093 0.950 . S
H2071 C2095 0.950 . S
H2072 C2096 0.950 . S
H2073 C2097 0.951 . S
H2074 C2099 0.951 . S
H2075 C2101 0.950 . S
H2076 C2102 0.950 . S
H2077 C2104 0.950 . S
H2078 C2107 0.950 . S
H2079 C2108 0.950 . S
H2080 C2110 0.950 . S
H2081 C2111 0.950 . S
C2082 H2064 0.951 . S
C2082 C2083 1.366 . S
C2082 C2084 1.388 . S
C2083 C2082 1.366 . S
C2083 C2087 1.385 . S
C2084 H2065 0.951 . S
C2084 C2082 1.388 . S
C2084 C2085 1.366 . S
C2085 C2084 1.366 . S
C2085 C2086 1.414 . S
C2085 C2088 1.499 . S
C2086 H2066 0.950 . S
C2086 C2085 1.414 . S
C2086 C2087 1.374 . S
C2087 H2067 0.950 . S
C2087 C2083 1.385 . S
C2087 C2086 1.374 . S
C2088 C2085 1.499 . S
C2088 C2089 1.373 1_565 S
C2088 C2090 1.389 1_556 S
C2089 H2068 0.950 . S
C2089 C2088 1.373 1_545 S
C2089 C2105 1.377 1_556 S
C2090 C2088 1.389 1_554 S
C2090 C2091 1.524 . S
C2090 C2104 1.377 . S
C2091 C2090 1.524 . S
C2091 C2092 1.397 1_554 S
C2091 C2096 1.363 . S
C2092 H2069 0.950 . S
C2092 C2091 1.397 1_556 S
C2092 C2093 1.334 . S
C2093 H2070 0.950 . S
C2093 C2092 1.334 . S
C2093 C2094 1.287 1_556 S
C2094 C2093 1.287 1_554 S
C2094 C2095 1.524 . S
C2094 H2113 0.913 . S
C2095 H2071 0.950 . S
C2095 C2094 1.524 . S
C2095 C2096 1.415 . S
C2096 H2072 0.950 . S
C2096 C2091 1.363 . S
C2096 C2095 1.415 . S
C2097 H2073 0.951 . S
C2097 C2098 1.366 . S
C2097 C2099 1.388 . S
C2098 C2097 1.366 . S
C2098 C2102 1.385 . S
C2099 H2074 0.951 . S
C2099 C2097 1.388 . S
C2099 C2100 1.366 . S
C2100 C2099 1.366 . S
C2100 C2101 1.414 . S
C2100 C2103 1.499 . S
C2101 H2075 0.950 . S
C2101 C2100 1.414 . S
C2101 C2102 1.374 . S
C2102 H2076 0.950 . S
C2102 C2098 1.385 . S
C2102 C2101 1.374 . S
C2103 C2100 1.499 . S
C2103 C2104 1.373 1_545 S
C2103 C2105 1.389 . S
C2104 H2077 0.950 . S
C2104 C2090 1.377 . S
C2104 C2103 1.373 1_565 S
C2105 C2089 1.377 1_554 S
C2105 C2103 1.389 . S
C2105 C2106 1.524 . S
C2106 C2105 1.524 . S
C2106 C2107 1.397 . S
C2106 C2111 1.363 1_554 S
C2107 H2078 0.950 . S
C2107 C2106 1.397 . S
C2107 C2108 1.334 . S
C2108 H2079 0.950 . S
C2108 C2107 1.334 . S
C2108 C2109 1.287 . S
C2109 C2108 1.287 . S
C2109 C2110 1.524 1_554 S
C2109 H2112 0.999 . S
C2110 H2080 0.950 . S
C2110 C2109 1.524 1_556 S
C2110 C2111 1.415 . S
C2111 H2081 0.950 . S
C2111 C2106 1.363 1_556 S
C2111 C2110 1.415 . S
H2112 C2109 0.999 . S
H2113 C2094 0.913 . S
H2114 C2132 0.951 . S
H2115 C2134 0.951 . S
H2116 C2136 0.950 . S
H2117 C2137 0.950 . S
H2118 C2139 0.950 . S
H2119 C2142 0.950 . S
H2120 C2143 0.950 . S
H2121 C2145 0.950 . S
H2122 C2146 0.950 . S
H2123 C2147 0.951 . S
H2124 C2149 0.951 . S
H2125 C2151 0.950 . S
H2126 C2152 0.950 . S
H2127 C2154 0.950 . S
H2128 C2157 0.950 . S
H2129 C2158 0.950 . S
H2130 C2160 0.950 . S
H2131 C2161 0.950 . S
C2132 H2114 0.951 . S
C2132 C2133 1.366 . S
C2132 C2134 1.388 . S
C2133 C2132 1.366 . S
C2133 C2137 1.385 . S
C2134 H2115 0.951 . S
C2134 C2132 1.388 . S
C2134 C2135 1.366 . S
C2135 C2134 1.366 . S
C2135 C2136 1.414 . S
C2135 C2138 1.499 . S
C2136 H2116 0.950 . S
C2136 C2135 1.414 . S
C2136 C2137 1.374 . S
C2137 H2117 0.950 . S
C2137 C2133 1.385 . S
C2137 C2136 1.374 . S
C2138 C2135 1.499 . S
C2138 C2139 1.373 . S
C2138 C2140 1.389 . S
C2139 H2118 0.950 . S
C2139 C2138 1.373 . S
C2139 C2155 1.377 . S
C2140 C2138 1.389 . S
C2140 C2141 1.524 . S
C2140 C2154 1.377 . S
C2141 C2140 1.524 . S
C2141 C2142 1.397 . S
C2141 C2146 1.363 . S
C2142 H2119 0.950 . S
C2142 C2141 1.397 . S
C2142 C2143 1.334 . S
C2143 H2120 0.950 . S
C2143 C2142 1.334 . S
C2143 C2144 1.287 . S
C2144 C2143 1.287 . S
C2144 C2145 1.524 . S
C2144 H2163 0.913 . S
C2145 H2121 0.950 . S
C2145 C2144 1.524 . S
C2145 C2146 1.415 . S
C2146 H2122 0.950 . S
C2146 C2141 1.363 . S
C2146 C2145 1.415 . S
C2147 H2123 0.951 . S
C2147 C2148 1.366 . S
C2147 C2149 1.388 . S
C2148 C2147 1.366 . S
C2148 C2152 1.385 . S
C2149 H2124 0.951 . S
C2149 C2147 1.388 . S
C2149 C2150 1.366 . S
C2150 C2149 1.366 . S
C2150 C2151 1.414 . S
C2150 C2153 1.499 . S
C2151 H2125 0.950 . S
C2151 C2150 1.414 . S
C2151 C2152 1.374 . S
C2152 H2126 0.950 . S
C2152 C2148 1.385 . S
C2152 C2151 1.374 . S
C2153 C2150 1.499 . S
C2153 C2154 1.373 . S
C2153 C2155 1.389 . S
C2154 H2127 0.950 . S
C2154 C2140 1.377 . S
C2154 C2153 1.373 . S
C2155 C2139 1.377 . S
C2155 C2153 1.389 . S
C2155 C2156 1.524 . S
C2156 C2155 1.524 . S
C2156 C2157 1.397 . S
C2156 C2161 1.363 . S
C2157 H2128 0.950 . S
C2157 C2156 1.397 . S
C2157 C2158 1.334 . S
C2158 H2129 0.950 . S
C2158 C2157 1.334 . S
C2158 C2159 1.287 . S
C2159 C2158 1.287 . S
C2159 C2160 1.524 . S
C2159 H2162 0.999 . S
C2160 H2130 0.950 . S
C2160 C2159 1.524 . S
C2160 C2161 1.415 . S
C2161 H2131 0.950 . S
C2161 C2156 1.363 . S
C2161 C2160 1.415 . S
H2162 C2159 0.999 . S
H2163 C2144 0.913 . S
H2164 C2182 0.951 1_565 S
H2165 C2184 0.963 . S
H2166 C2186 0.950 . S
H2167 C2187 0.950 . S
H2168 C2189 0.950 . S
H2169 C2192 0.950 1_545 S
H2170 C2193 0.950 . S
H2171 C2195 0.950 . S
H2172 C2196 0.950 . S
H2173 C2197 0.951 1_545 S
H2174 C2199 0.951 1_545 S
H2175 C2201 0.950 . S
H2176 C2202 0.950 . S
H2177 C2204 0.950 . S
H2178 C2207 0.950 1_565 S
H2179 C2208 0.950 . S
H2180 C2210 0.950 . S
H2181 C2211 0.950 . S
C2182 H2164 0.951 1_545 S
C2182 C2183 1.366 . S
C2182 C2184 1.384 1_545 S
C2183 C2182 1.366 . S
C2183 C2187 1.385 . S
C2184 H2165 0.963 . S
C2184 C2182 1.384 1_565 S
C2184 C2185 1.357 1_565 S
C2185 C2184 1.357 1_545 S
C2185 C2186 1.414 . S
C2185 C2188 1.499 . S
C2186 H2166 0.950 . S
C2186 C2185 1.414 . S
C2186 C2187 1.374 . S
C2187 H2167 0.950 . S
C2187 C2183 1.385 . S
C2187 C2186 1.374 . S
C2188 C2185 1.499 . S
C2188 C2189 1.373 1_655 S
C2188 C2190 1.389 1_545 S
C2189 H2168 0.950 . S
C2189 C2188 1.373 1_455 S
C2189 C2205 1.377 . S
C2190 C2188 1.389 1_565 S
C2190 C2191 1.524 . S
C2190 C2204 1.377 . S
C2191 C2190 1.524 . S
C2191 C2192 1.397 . S
C2191 C2196 1.363 . S
C2192 H2169 0.950 1_565 S
C2192 C2191 1.397 . S
C2192 C2193 1.334 . S
C2193 H2170 0.950 . S
C2193 C2192 1.334 . S
C2193 C2194 1.287 . S
C2194 C2193 1.287 . S
C2194 C2195 1.524 . S
C2194 H2213 0.913 . S
C2195 H2171 0.950 . S
C2195 C2194 1.524 . S
C2195 C2196 1.415 . S
C2196 H2172 0.950 . S
C2196 C2191 1.363 . S
C2196 C2195 1.415 . S
C2197 H2173 0.951 1_565 S
C2197 C2198 1.366 . S
C2197 C2199 1.388 . S
C2198 C2197 1.366 . S
C2198 C2202 1.385 . S
C2199 H2174 0.951 1_565 S
C2199 C2197 1.388 . S
C2199 C2200 1.366 . S
C2200 C2199 1.366 . S
C2200 C2201 1.414 . S
C2200 C2203 1.499 . S
C2201 H2175 0.950 . S
C2201 C2200 1.414 . S
C2201 C2202 1.374 . S
C2202 H2176 0.950 . S
C2202 C2198 1.385 . S
C2202 C2201 1.374 . S
C2203 C2200 1.499 . S
C2203 C2204 1.373 1_455 S
C2203 C2205 1.389 1_565 S
C2204 H2177 0.950 . S
C2204 C2190 1.377 . S
C2204 C2203 1.373 1_655 S
C2205 C2189 1.377 . S
C2205 C2203 1.389 1_545 S
C2205 C2206 1.524 . S
C2206 C2205 1.524 . S
C2206 C2207 1.397 . S
C2206 C2211 1.363 . S
C2207 H2178 0.950 1_545 S
C2207 C2206 1.397 . S
C2207 C2208 1.334 . S
C2208 H2179 0.950 . S
C2208 C2207 1.334 . S
C2208 C2209 1.287 . S
C2209 C2208 1.287 . S
C2209 C2210 1.524 . S
C2209 H2212 0.999 . S
C2210 H2180 0.950 . S
C2210 C2209 1.524 . S
C2210 C2211 1.415 . S
C2211 H2181 0.950 . S
C2211 C2206 1.363 . S
C2211 C2210 1.415 . S
H2212 C2209 0.999 . S
H2213 C2194 0.913 . S
H2214 C2232 0.951 . S
H2215 C2234 0.951 . S
H2216 C2236 0.950 . S
H2217 C2237 0.950 . S
H2218 C2239 0.950 . S
H2219 C2242 0.950 . S
H2220 C2243 0.950 . S
H2221 C2245 0.950 . S
H2222 C2246 0.950 . S
H2223 C2247 0.951 . S
H2224 C2249 0.951 . S
H2225 C2251 0.950 . S
H2226 C2252 0.950 . S
H2227 C2254 0.950 . S
H2228 C2257 0.950 . S
H2229 C2258 0.950 . S
H2230 C2260 0.950 . S
H2231 C2261 0.950 . S
C2232 H2214 0.951 . S
C2232 C2233 1.366 . S
C2232 C2234 1.388 . S
C2233 C2232 1.366 . S
C2233 C2237 1.385 . S
C2234 H2215 0.951 . S
C2234 C2232 1.388 . S
C2234 C2235 1.366 . S
C2235 C2234 1.366 . S
C2235 C2236 1.414 . S
C2235 C2238 1.499 . S
C2236 H2216 0.950 . S
C2236 C2235 1.414 . S
C2236 C2237 1.374 . S
C2237 H2217 0.950 . S
C2237 C2233 1.385 . S
C2237 C2236 1.374 . S
C2238 C2235 1.499 . S
C2238 C2239 1.373 . S
C2238 C2240 1.389 . S
C2239 H2218 0.950 . S
C2239 C2238 1.373 . S
C2239 C2255 1.377 . S
C2240 C2238 1.389 . S
C2240 C2241 1.524 . S
C2240 C2254 1.377 . S
C2241 C2240 1.524 . S
C2241 C2242 1.397 . S
C2241 C2246 1.363 . S
C2242 H2219 0.950 . S
C2242 C2241 1.397 . S
C2242 C2243 1.334 . S
C2243 H2220 0.950 . S
C2243 C2242 1.334 . S
C2243 C2244 1.287 . S
C2244 C2243 1.287 . S
C2244 C2245 1.524 . S
C2244 H2263 0.913 . S
C2245 H2221 0.950 . S
C2245 C2244 1.524 . S
C2245 C2246 1.415 . S
C2246 H2222 0.950 . S
C2246 C2241 1.363 . S
C2246 C2245 1.415 . S
C2247 H2223 0.951 . S
C2247 C2248 1.366 . S
C2247 C2249 1.388 . S
C2248 C2247 1.366 . S
C2248 C2252 1.385 . S
C2249 H2224 0.951 . S
C2249 C2247 1.388 . S
C2249 C2250 1.366 . S
C2250 C2249 1.366 . S
C2250 C2251 1.414 . S
C2250 C2253 1.499 . S
C2251 H2225 0.950 . S
C2251 C2250 1.414 . S
C2251 C2252 1.374 . S
C2252 H2226 0.950 . S
C2252 C2248 1.385 . S
C2252 C2251 1.374 . S
C2253 C2250 1.499 . S
C2253 C2254 1.373 . S
C2253 C2255 1.389 . S
C2254 H2227 0.950 . S
C2254 C2240 1.377 . S
C2254 C2253 1.373 . S
C2255 C2239 1.377 . S
C2255 C2253 1.389 . S
C2255 C2256 1.524 . S
C2256 C2255 1.524 . S
C2256 C2257 1.397 . S
C2256 C2261 1.363 . S
C2257 H2228 0.950 . S
C2257 C2256 1.397 . S
C2257 C2258 1.334 . S
C2258 H2229 0.950 . S
C2258 C2257 1.334 . S
C2258 C2259 1.287 . S
C2259 C2258 1.287 . S
C2259 C2260 1.524 . S
C2259 H2262 0.999 . S
C2260 H2230 0.950 . S
C2260 C2259 1.524 . S
C2260 C2261 1.415 . S
C2261 H2231 0.950 . S
C2261 C2256 1.363 . S
C2261 C2260 1.415 . S
H2262 C2259 0.999 . S
H2263 C2244 0.913 . S
H2264 C2282 0.951 . S
H2265 C2284 0.951 . S
H2266 C2286 0.950 . S
H2267 C2287 0.950 . S
H2268 C2289 0.950 . S
H2269 C2292 0.950 . S
H2270 C2293 0.950 . S
H2271 C2295 0.950 . S
H2272 C2296 0.950 . S
H2273 C2297 0.951 . S
H2274 C2299 0.951 . S
H2275 C2301 0.950 . S
H2276 C2302 0.950 . S
H2277 C2304 0.950 . S
H2278 C2307 0.950 . S
H2279 C2308 0.950 . S
H2280 C2310 0.950 . S
H2281 C2311 0.950 . S
C2282 H2264 0.951 . S
C2282 C2283 1.366 . S
C2282 C2284 1.388 . S
C2283 C2282 1.366 . S
C2283 C2287 1.385 . S
C2284 H2265 0.951 . S
C2284 C2282 1.388 . S
C2284 C2285 1.366 . S
C2285 C2284 1.366 . S
C2285 C2286 1.414 . S
C2285 C2288 1.499 . S
C2286 H2266 0.950 . S
C2286 C2285 1.414 . S
C2286 C2287 1.374 . S
C2287 H2267 0.950 . S
C2287 C2283 1.385 . S
C2287 C2286 1.374 . S
C2288 C2285 1.499 . S
C2288 C2289 1.373 . S
C2288 C2290 1.389 . S
C2289 H2268 0.950 . S
C2289 C2288 1.373 . S
C2289 C2305 1.377 . S
C2290 C2288 1.389 . S
C2290 C2291 1.524 . S
C2290 C2304 1.377 . S
C2291 C2290 1.524 . S
C2291 C2292 1.397 . S
C2291 C2296 1.363 . S
C2292 H2269 0.950 . S
C2292 C2291 1.397 . S
C2292 C2293 1.334 . S
C2293 H2270 0.950 . S
C2293 C2292 1.334 . S
C2293 C2294 1.287 . S
C2294 C2293 1.287 . S
C2294 C2295 1.524 . S
C2294 H2313 0.913 . S
C2295 H2271 0.950 . S
C2295 C2294 1.524 . S
C2295 C2296 1.415 . S
C2296 H2272 0.950 . S
C2296 C2291 1.363 . S
C2296 C2295 1.415 . S
C2297 H2273 0.951 . S
C2297 C2298 1.366 . S
C2297 C2299 1.388 . S
C2298 C2297 1.366 . S
C2298 C2302 1.385 . S
C2299 H2274 0.951 . S
C2299 C2297 1.388 . S
C2299 C2300 1.366 . S
C2300 C2299 1.366 . S
C2300 C2301 1.414 . S
C2300 C2303 1.499 . S
C2301 H2275 0.950 . S
C2301 C2300 1.414 . S
C2301 C2302 1.374 . S
C2302 H2276 0.950 . S
C2302 C2298 1.385 . S
C2302 C2301 1.374 . S
C2303 C2300 1.499 . S
C2303 C2304 1.373 . S
C2303 C2305 1.389 . S
C2304 H2277 0.950 . S
C2304 C2290 1.377 . S
C2304 C2303 1.373 . S
C2305 C2289 1.377 . S
C2305 C2303 1.389 . S
C2305 C2306 1.524 . S
C2306 C2305 1.524 . S
C2306 C2307 1.397 . S
C2306 C2311 1.363 . S
C2307 H2278 0.950 . S
C2307 C2306 1.397 . S
C2307 C2308 1.334 . S
C2308 H2279 0.950 . S
C2308 C2307 1.334 . S
C2308 C2309 1.287 . S
C2309 C2308 1.287 . S
C2309 C2310 1.524 . S
C2309 H2312 0.999 . S
C2310 H2280 0.950 . S
C2310 C2309 1.524 . S
C2310 C2311 1.415 . S
C2311 H2281 0.950 . S
C2311 C2306 1.363 . S
C2311 C2310 1.415 . S
H2312 C2309 0.999 . S
H2313 C2294 0.913 . S
H2314 C2332 0.951 . S
H2315 C2334 0.951 . S
H2316 C2336 0.950 . S
H2317 C2337 0.950 . S
H2318 C2339 0.950 . S
H2319 C2342 0.950 . S
H2320 C2343 0.950 . S
H2321 C2345 0.950 . S
H2322 C2346 0.950 . S
H2323 C2347 0.951 . S
H2324 C2349 0.951 . S
H2325 C2351 0.950 . S
H2326 C2352 0.950 . S
H2327 C2354 0.950 . S
H2328 C2357 0.950 . S
H2329 C2358 0.950 . S
H2330 C2360 0.950 . S
H2331 C2361 0.950 . S
C2332 H2314 0.951 . S
C2332 C2333 1.366 . S
C2332 C2334 1.388 . S
C2333 C2332 1.366 . S
C2333 C2337 1.385 . S
C2334 H2315 0.951 . S
C2334 C2332 1.388 . S
C2334 C2335 1.366 . S
C2335 C2334 1.366 . S
C2335 C2336 1.414 . S
C2335 C2338 1.499 . S
C2336 H2316 0.950 . S
C2336 C2335 1.414 . S
C2336 C2337 1.374 . S
C2337 H2317 0.950 . S
C2337 C2333 1.385 . S
C2337 C2336 1.374 . S
C2338 C2335 1.499 . S
C2338 C2339 1.373 . S
C2338 C2340 1.389 . S
C2339 H2318 0.950 . S
C2339 C2338 1.373 . S
C2339 C2355 1.377 . S
C2340 C2338 1.389 . S
C2340 C2341 1.524 . S
C2340 C2354 1.377 . S
C2341 C2340 1.524 . S
C2341 C2342 1.397 . S
C2341 C2346 1.363 . S
C2342 H2319 0.950 . S
C2342 C2341 1.397 . S
C2342 C2343 1.334 . S
C2343 H2320 0.950 . S
C2343 C2342 1.334 . S
C2343 C2344 1.287 . S
C2344 C2343 1.287 . S
C2344 C2345 1.524 . S
C2344 H2363 0.913 . S
C2345 H2321 0.950 . S
C2345 C2344 1.524 . S
C2345 C2346 1.415 . S
C2346 H2322 0.950 . S
C2346 C2341 1.363 . S
C2346 C2345 1.415 . S
C2347 H2323 0.951 . S
C2347 C2348 1.366 . S
C2347 C2349 1.388 . S
C2348 C2347 1.366 . S
C2348 C2352 1.385 . S
C2349 H2324 0.951 . S
C2349 C2347 1.388 . S
C2349 C2350 1.366 . S
C2350 C2349 1.366 . S
C2350 C2351 1.414 . S
C2350 C2353 1.499 . S
C2351 H2325 0.950 . S
C2351 C2350 1.414 . S
C2351 C2352 1.374 . S
C2352 H2326 0.950 . S
C2352 C2348 1.385 . S
C2352 C2351 1.374 . S
C2353 C2350 1.499 . S
C2353 C2354 1.373 . S
C2353 C2355 1.389 . S
C2354 H2327 0.950 . S
C2354 C2340 1.377 . S
C2354 C2353 1.373 . S
C2355 C2339 1.377 . S
C2355 C2353 1.389 . S
C2355 C2356 1.524 . S
C2356 C2355 1.524 . S
C2356 C2357 1.397 . S
C2356 C2361 1.363 . S
C2357 H2328 0.950 . S
C2357 C2356 1.397 . S
C2357 C2358 1.334 . S
C2358 H2329 0.950 . S
C2358 C2357 1.334 . S
C2358 C2359 1.287 . S
C2359 C2358 1.287 . S
C2359 C2360 1.524 . S
C2359 H2362 0.999 . S
C2360 H2330 0.950 . S
C2360 C2359 1.524 . S
C2360 C2361 1.415 . S
C2361 H2331 0.950 . S
C2361 C2356 1.363 . S
C2361 C2360 1.415 . S
H2362 C2359 0.999 . S
H2363 C2344 0.913 . S
H2364 C2382 0.951 . S
H2365 C2384 0.951 1_455 S
H2366 C2386 0.950 . S
H2367 C2387 0.950 . S
H2368 C2389 0.950 . S
H2369 C2392 0.920 1_655 S
H2370 C2393 0.950 . S
H2371 C2395 0.950 . S
H2372 C2396 0.950 . S
H2373 C2397 0.951 . S
H2374 C2399 0.951 1_655 S
H2375 C2401 0.950 . S
H2376 C2402 0.950 . S
H2377 C2404 0.950 . S
H2378 C2407 0.950 1_455 S
H2379 C2408 0.950 . S
H2380 C2410 0.950 . S
H2381 C2411 0.950 . S
C2382 H2364 0.951 . S
C2382 C2383 1.366 . S
C2382 C2384 1.388 . S
C2383 C2382 1.366 . S
C2383 C2387 1.385 . S
C2384 H2365 0.951 1_655 S
C2384 C2382 1.388 . S
C2384 C2385 1.366 . S
C2385 C2384 1.366 . S
C2385 C2386 1.414 . S
C2385 C2388 1.499 . S
C2386 H2366 0.950 . S
C2386 C2385 1.414 . S
C2386 C2387 1.374 . S
C2387 H2367 0.950 . S
C2387 C2383 1.385 . S
C2387 C2386 1.374 . S
C2388 C2385 1.499 . S
C2388 C2389 1.373 . S
C2388 C2390 1.389 1_655 S
C2389 H2368 0.950 . S
C2389 C2388 1.373 . S
C2389 C2405 1.377 . S
C2390 C2388 1.389 1_455 S
C2390 C2391 1.524 . S
C2390 C2404 1.377 . S
C2391 C2390 1.524 . S
C2391 C2392 1.397 . S
C2391 C2396 1.363 . S
C2392 H2369 0.920 1_455 S
C2392 C2391 1.397 . S
C2392 C2393 1.334 . S
C2393 H2370 0.950 . S
C2393 C2392 1.334 . S
C2393 C2394 1.287 . S
C2394 C2393 1.287 . S
C2394 C2395 1.524 . S
C2394 H2413 0.913 . S
C2395 H2371 0.950 . S
C2395 C2394 1.524 . S
C2395 C2396 1.415 . S
C2396 H2372 0.950 . S
C2396 C2391 1.363 . S
C2396 C2395 1.415 . S
C2397 H2373 0.951 . S
C2397 C2398 1.366 . S
C2397 C2399 1.388 . S
C2398 C2397 1.366 . S
C2398 C2402 1.385 . S
C2399 H2374 0.951 1_455 S
C2399 C2397 1.388 . S
C2399 C2400 1.366 . S
C2400 C2399 1.366 . S
C2400 C2401 1.414 . S
C2400 C2403 1.499 . S
C2401 H2375 0.950 . S
C2401 C2400 1.414 . S
C2401 C2402 1.374 . S
C2402 H2376 0.950 . S
C2402 C2398 1.385 . S
C2402 C2401 1.374 . S
C2403 C2400 1.499 . S
C2403 C2404 1.373 . S
C2403 C2405 1.389 1_455 S
C2404 H2377 0.950 . S
C2404 C2390 1.377 . S
C2404 C2403 1.373 . S
C2405 C2389 1.377 . S
C2405 C2403 1.389 1_655 S
C2405 C2406 1.524 . S
C2406 C2405 1.524 . S
C2406 C2407 1.397 . S
C2406 C2411 1.363 . S
C2407 H2378 0.950 1_655 S
C2407 C2406 1.397 . S
C2407 C2408 1.334 . S
C2408 H2379 0.950 . S
C2408 C2407 1.334 . S
C2408 C2409 1.287 . S
C2409 C2408 1.287 . S
C2409 C2410 1.524 . S
C2409 H2412 0.999 . S
C2410 H2380 0.950 . S
C2410 C2409 1.524 . S
C2410 C2411 1.415 . S
C2411 H2381 0.950 . S
C2411 C2406 1.363 . S
C2411 C2410 1.415 . S
H2412 C2409 0.999 . S
H2413 C2394 0.913 . S
H2414 C2432 0.951 . S
H2415 C2434 0.951 . S
H2416 C2436 0.950 . S
H2417 C2437 0.950 . S
H2418 C2439 0.950 . S
H2419 C2442 0.950 . S
H2420 C2443 0.950 . S
H2421 C2445 0.950 . S
H2422 C2446 0.950 . S
H2423 C2447 0.951 . S
H2424 C2449 0.951 . S
H2425 C2451 0.950 . S
H2426 C2452 0.950 . S
H2427 C2454 0.950 . S
H2428 C2457 0.950 . S
H2429 C2458 0.950 . S
H2430 C2460 0.950 . S
H2431 C2461 0.950 . S
C2432 H2414 0.951 . S
C2432 C2433 1.366 . S
C2432 C2434 1.388 . S
C2433 C2432 1.366 . S
C2433 C2437 1.385 . S
C2434 H2415 0.951 . S
C2434 C2432 1.388 . S
C2434 C2435 1.366 . S
C2435 C2434 1.366 . S
C2435 C2436 1.414 . S
C2435 C2438 1.499 . S
C2436 H2416 0.950 . S
C2436 C2435 1.414 . S
C2436 C2437 1.374 . S
C2437 H2417 0.950 . S
C2437 C2433 1.385 . S
C2437 C2436 1.374 . S
C2438 C2435 1.499 . S
C2438 C2439 1.373 1_554 S
C2438 C2440 1.389 . S
C2439 H2418 0.950 . S
C2439 C2438 1.373 1_556 S
C2439 C2455 1.377 . S
C2440 C2438 1.389 . S
C2440 C2441 1.524 . S
C2440 C2454 1.377 1_554 S
C2441 C2440 1.524 . S
C2441 C2442 1.397 . S
C2441 C2446 1.363 . S
C2442 H2419 0.950 . S
C2442 C2441 1.397 . S
C2442 C2443 1.334 . S
C2443 H2420 0.950 . S
C2443 C2442 1.334 . S
C2443 C2444 1.287 . S
C2444 C2443 1.287 . S
C2444 C2445 1.524 . S
C2444 H2463 0.913 . S
C2445 H2421 0.950 . S
C2445 C2444 1.524 . S
C2445 C2446 1.415 . S
C2446 H2422 0.950 . S
C2446 C2441 1.363 . S
C2446 C2445 1.415 . S
C2447 H2423 0.951 . S
C2447 C2448 1.366 . S
C2447 C2449 1.388 . S
C2448 C2447 1.366 . S
C2448 C2452 1.385 . S
C2449 H2424 0.951 . S
C2449 C2447 1.388 . S
C2449 C2450 1.366 . S
C2450 C2449 1.366 . S
C2450 C2451 1.414 . S
C2450 C2453 1.499 . S
C2451 H2425 0.950 . S
C2451 C2450 1.414 . S
C2451 C2452 1.374 . S
C2452 H2426 0.950 . S
C2452 C2448 1.385 . S
C2452 C2451 1.374 . S
C2453 C2450 1.499 . S
C2453 C2454 1.373 . S
C2453 C2455 1.389 . S
C2454 H2427 0.950 . S
C2454 C2440 1.377 1_556 S
C2454 C2453 1.373 . S
C2455 C2439 1.377 . S
C2455 C2453 1.389 . S
C2455 C2456 1.524 . S
C2456 C2455 1.524 . S
C2456 C2457 1.397 . S
C2456 C2461 1.363 . S
C2457 H2428 0.950 . S
C2457 C2456 1.397 . S
C2457 C2458 1.334 . S
C2458 H2429 0.950 . S
C2458 C2457 1.334 . S
C2458 C2459 1.287 . S
C2459 C2458 1.287 . S
C2459 C2460 1.524 . S
C2459 H2462 0.999 . S
C2460 H2430 0.950 . S
C2460 C2459 1.524 . S
C2460 C2461 1.415 . S
C2461 H2431 0.950 . S
C2461 C2456 1.363 . S
C2461 C2460 1.415 . S
H2462 C2459 0.999 . S
H2463 C2444 0.913 . S
H2464 C2482 0.951 . S
H2465 C2484 0.951 . S
H2466 C2486 0.950 . S
H2467 C2487 0.950 . S
H2468 C2489 0.950 . S
H2469 C2492 0.950 . S
H2470 C2493 0.950 . S
H2471 C2495 0.950 . S
H2472 C2496 0.950 . S
H2473 C2497 0.951 . S
H2474 C2499 0.951 . S
H2475 C2501 0.950 . S
H2476 C2502 0.950 . S
H2477 C2504 0.950 . S
H2478 C2507 0.950 . S
H2479 C2508 0.950 . S
H2480 C2510 0.950 . S
H2481 C2511 0.950 . S
C2482 H2464 0.951 . S
C2482 C2483 1.366 . S
C2482 C2484 1.388 . S
C2483 C2482 1.366 . S
C2483 C2487 1.385 . S
C2484 H2465 0.951 . S
C2484 C2482 1.388 . S
C2484 C2485 1.366 . S
C2485 C2484 1.366 . S
C2485 C2486 1.414 . S
C2485 C2488 1.499 . S
C2486 H2466 0.950 . S
C2486 C2485 1.414 . S
C2486 C2487 1.374 . S
C2487 H2467 0.950 . S
C2487 C2483 1.385 . S
C2487 C2486 1.374 . S
C2488 C2485 1.499 . S
C2488 C2489 1.373 . S
C2488 C2490 1.389 . S
C2489 H2468 0.950 . S
C2489 C2488 1.373 . S
C2489 C2505 1.377 . S
C2490 C2488 1.389 . S
C2490 C2491 1.524 . S
C2490 C2504 1.377 . S
C2491 C2490 1.524 . S
C2491 C2492 1.397 . S
C2491 C2496 1.363 . S
C2492 H2469 0.950 . S
C2492 C2491 1.397 . S
C2492 C2493 1.334 . S
C2493 H2470 0.950 . S
C2493 C2492 1.334 . S
C2493 C2494 1.287 . S
C2494 C2493 1.287 . S
C2494 C2495 1.524 . S
C2494 H2513 0.913 . S
C2495 H2471 0.950 . S
C2495 C2494 1.524 . S
C2495 C2496 1.415 . S
C2496 H2472 0.950 . S
C2496 C2491 1.363 . S
C2496 C2495 1.415 . S
C2497 H2473 0.951 . S
C2497 C2498 1.366 . S
C2497 C2499 1.388 . S
C2498 C2497 1.366 . S
C2498 C2502 1.385 . S
C2499 H2474 0.951 . S
C2499 C2497 1.388 . S
C2499 C2500 1.366 . S
C2500 C2499 1.366 . S
C2500 C2501 1.414 . S
C2500 C2503 1.499 . S
C2501 H2475 0.950 . S
C2501 C2500 1.414 . S
C2501 C2502 1.374 . S
C2502 H2476 0.950 . S
C2502 C2498 1.385 . S
C2502 C2501 1.374 . S
C2503 C2500 1.499 . S
C2503 C2504 1.373 . S
C2503 C2505 1.389 . S
C2504 H2477 0.950 . S
C2504 C2490 1.377 . S
C2504 C2503 1.373 . S
C2505 C2489 1.377 . S
C2505 C2503 1.389 . S
C2505 C2506 1.524 . S
C2506 C2505 1.524 . S
C2506 C2507 1.397 . S
C2506 C2511 1.363 . S
C2507 H2478 0.950 . S
C2507 C2506 1.397 . S
C2507 C2508 1.334 . S
C2508 H2479 0.950 . S
C2508 C2507 1.334 . S
C2508 C2509 1.287 . S
C2509 C2508 1.287 . S
C2509 C2510 1.524 . S
C2509 H2512 0.999 . S
C2510 H2480 0.950 . S
C2510 C2509 1.524 . S
C2510 C2511 1.415 . S
C2511 H2481 0.950 . S
C2511 C2506 1.363 . S
C2511 C2510 1.415 . S
H2512 C2509 0.999 . S
H2513 C2494 0.913 . S
H2514 C2532 0.951 . S
H2515 C2534 0.951 . S
H2516 C2536 0.950 . S
H2517 C2537 0.950 1_455 S
H2518 C2539 0.950 . S
H2519 C2542 0.950 . S
H2520 C2543 0.950 . S
H2521 C2545 0.950 . S
H2522 C2546 0.950 . S
H2523 C2547 0.951 . S
H2524 C2549 0.951 . S
H2525 C2551 0.950 . S
H2526 C2552 0.950 . S
H2527 C2554 0.950 . S
H2528 C2557 0.950 . S
H2529 C2558 0.950 . S
H2530 C2560 0.950 . S
H2531 C2561 0.950 . S
C2532 H2514 0.951 . S
C2532 C2533 1.366 . S
C2532 C2534 1.388 1_455 S
C2533 C2532 1.366 . S
C2533 C2537 1.385 1_455 S
C2534 H2515 0.951 . S
C2534 C2532 1.388 1_655 S
C2534 C2535 1.366 . S
C2535 C2534 1.366 . S
C2535 C2536 1.414 . S
C2535 C2538 1.499 . S
C2536 H2516 0.950 . S
C2536 C2535 1.414 . S
C2536 C2537 1.374 . S
C2537 H2517 0.950 1_655 S
C2537 C2533 1.385 1_655 S
C2537 C2536 1.374 . S
C2538 C2535 1.499 . S
C2538 C2539 1.373 . S
C2538 C2540 1.389 . S
C2539 H2518 0.950 . S
C2539 C2538 1.373 . S
C2539 C2555 1.377 . S
C2540 C2538 1.389 . S
C2540 C2541 1.524 . S
C2540 C2554 1.377 . S
C2541 C2540 1.524 . S
C2541 C2542 1.397 . S
C2541 C2546 1.363 . S
C2542 H2519 0.950 . S
C2542 C2541 1.397 . S
C2542 C2543 1.334 . S
C2543 H2520 0.950 . S
C2543 C2542 1.334 . S
C2543 C2544 1.287 . S
C2544 C2543 1.287 . S
C2544 C2545 1.524 . S
C2544 H2563 0.913 . S
C2545 H2521 0.950 . S
C2545 C2544 1.524 . S
C2545 C2546 1.415 . S
C2546 H2522 0.950 . S
C2546 C2541 1.363 . S
C2546 C2545 1.415 . S
C2547 H2523 0.951 . S
C2547 C2548 1.366 . S
C2547 C2549 1.388 . S
C2548 C2547 1.366 . S
C2548 C2552 1.385 . S
C2549 H2524 0.951 . S
C2549 C2547 1.388 . S
C2549 C2550 1.366 . S
C2550 C2549 1.366 . S
C2550 C2551 1.414 . S
C2550 C2553 1.499 . S
C2551 H2525 0.950 . S
C2551 C2550 1.414 . S
C2551 C2552 1.374 . S
C2552 H2526 0.950 . S
C2552 C2548 1.385 . S
C2552 C2551 1.374 . S
C2553 C2550 1.499 . S
C2553 C2554 1.373 . S
C2553 C2555 1.389 . S
C2554 H2527 0.950 . S
C2554 C2540 1.377 . S
C2554 C2553 1.373 . S
C2555 C2539 1.377 . S
C2555 C2553 1.389 . S
C2555 C2556 1.524 . S
C2556 C2555 1.524 . S
C2556 C2557 1.397 . S
C2556 C2561 1.363 . S
C2557 H2528 0.950 . S
C2557 C2556 1.397 . S
C2557 C2558 1.334 . S
C2558 H2529 0.950 . S
C2558 C2557 1.334 . S
C2558 C2559 1.287 . S
C2559 C2558 1.287 . S
C2559 C2560 1.524 . S
C2559 H2562 0.999 . S
C2560 H2530 0.950 . S
C2560 C2559 1.524 . S
C2560 C2561 1.415 . S
C2561 H2531 0.950 . S
C2561 C2556 1.363 . S
C2561 C2560 1.415 . S
H2562 C2559 0.999 . S
H2563 C2544 0.913 . S
H2564 C2582 0.951 . S
H2565 C2584 0.951 . S
H2566 C2586 0.950 . S
H2567 C2587 0.950 . S
H2568 C2589 0.950 . S
H2569 C2592 0.950 . S
H2570 C2593 0.950 . S
H2571 C2595 0.950 . S
H2572 C2596 0.950 . S
H2573 C2597 0.951 . S
H2574 C2599 0.951 . S
H2575 C2601 0.950 . S
H2576 C2602 0.950 . S
H2577 C2604 0.950 . S
H2578 C2607 0.950 . S
H2579 C2608 0.950 . S
H2580 C2610 0.950 . S
H2581 C2611 0.950 . S
C2582 H2564 0.951 . S
C2582 C2583 1.366 . S
C2582 C2584 1.388 . S
C2583 C2582 1.366 . S
C2583 C2587 1.385 . S
C2584 H2565 0.951 . S
C2584 C2582 1.388 . S
C2584 C2585 1.366 . S
C2585 C2584 1.366 . S
C2585 C2586 1.414 . S
C2585 C2588 1.499 . S
C2586 H2566 0.950 . S
C2586 C2585 1.414 . S
C2586 C2587 1.374 . S
C2587 H2567 0.950 . S
C2587 C2583 1.385 . S
C2587 C2586 1.374 . S
C2588 C2585 1.499 . S
C2588 C2589 1.373 . S
C2588 C2590 1.389 . S
C2589 H2568 0.950 . S
C2589 C2588 1.373 . S
C2589 C2605 1.377 . S
C2590 C2588 1.389 . S
C2590 C2591 1.524 . S
C2590 C2604 1.377 . S
C2591 C2590 1.524 . S
C2591 C2592 1.397 . S
C2591 C2596 1.363 . S
C2592 H2569 0.950 . S
C2592 C2591 1.397 . S
C2592 C2593 1.334 . S
C2593 H2570 0.950 . S
C2593 C2592 1.334 . S
C2593 C2594 1.287 . S
C2594 C2593 1.287 . S
C2594 C2595 1.524 . S
C2594 H2613 0.913 . S
C2595 H2571 0.950 . S
C2595 C2594 1.524 . S
C2595 C2596 1.415 . S
C2596 H2572 0.950 . S
C2596 C2591 1.363 . S
C2596 C2595 1.415 . S
C2597 H2573 0.951 . S
C2597 C2598 1.366 . S
C2597 C2599 1.388 . S
C2598 C2597 1.366 . S
C2598 C2602 1.385 . S
C2599 H2574 0.951 . S
C2599 C2597 1.388 . S
C2599 C2600 1.366 . S
C2600 C2599 1.366 . S
C2600 C2601 1.414 . S
C2600 C2603 1.499 . S
C2601 H2575 0.950 . S
C2601 C2600 1.414 . S
C2601 C2602 1.374 . S
C2602 H2576 0.950 . S
C2602 C2598 1.385 . S
C2602 C2601 1.374 . S
C2603 C2600 1.499 . S
C2603 C2604 1.373 . S
C2603 C2605 1.389 . S
C2604 H2577 0.950 . S
C2604 C2590 1.377 . S
C2604 C2603 1.373 . S
C2605 C2589 1.377 . S
C2605 C2603 1.389 . S
C2605 C2606 1.524 . S
C2606 C2605 1.524 . S
C2606 C2607 1.397 . S
C2606 C2611 1.363 . S
C2607 H2578 0.950 . S
C2607 C2606 1.397 . S
C2607 C2608 1.334 . S
C2608 H2579 0.950 . S
C2608 C2607 1.334 . S
C2608 C2609 1.287 . S
C2609 C2608 1.287 . S
C2609 C2610 1.524 . S
C2609 H2612 0.999 . S
C2610 H2580 0.950 . S
C2610 C2609 1.524 . S
C2610 C2611 1.415 . S
C2611 H2581 0.950 . S
C2611 C2606 1.363 . S
C2611 C2610 1.415 . S
H2612 C2609 0.999 . S
H2613 C2594 0.913 . S
H2614 C2632 0.951 . S
H2615 C2634 0.951 . S
H2616 C2636 0.950 . S
H2617 C2637 0.950 . S
H2618 C2639 0.950 . S
H2619 C2642 0.950 . S
H2620 C2643 0.950 . S
H2621 C2645 0.950 . S
H2622 C2646 0.950 . S
H2623 C2647 0.951 . S
H2624 C2649 0.951 . S
H2625 C2651 0.950 . S
H2626 C2652 0.950 . S
H2627 C2654 0.950 . S
H2628 C2657 0.950 . S
H2629 C2658 0.950 . S
H2630 C2660 0.950 . S
H2631 C2661 0.950 . S
C2632 H2614 0.951 . S
C2632 C2633 1.366 . S
C2632 C2634 1.388 . S
C2633 C2632 1.366 . S
C2633 C2637 1.385 . S
C2634 H2615 0.951 . S
C2634 C2632 1.388 . S
C2634 C2635 1.366 . S
C2635 C2634 1.366 . S
C2635 C2636 1.414 . S
C2635 C2638 1.499 . S
C2636 H2616 0.950 . S
C2636 C2635 1.414 . S
C2636 C2637 1.374 . S
C2637 H2617 0.950 . S
C2637 C2633 1.385 . S
C2637 C2636 1.374 . S
C2638 C2635 1.499 . S
C2638 C2639 1.373 . S
C2638 C2640 1.389 . S
C2639 H2618 0.950 . S
C2639 C2638 1.373 . S
C2639 C2655 1.377 . S
C2640 C2638 1.389 . S
C2640 C2641 1.524 . S
C2640 C2654 1.377 . S
C2641 C2640 1.524 . S
C2641 C2642 1.397 . S
C2641 C2646 1.363 . S
C2642 H2619 0.950 . S
C2642 C2641 1.397 . S
C2642 C2643 1.334 . S
C2643 H2620 0.950 . S
C2643 C2642 1.334 . S
C2643 C2644 1.287 . S
C2644 C2643 1.287 . S
C2644 C2645 1.524 . S
C2644 H2663 0.913 . S
C2645 H2621 0.950 . S
C2645 C2644 1.524 . S
C2645 C2646 1.415 . S
C2646 H2622 0.950 . S
C2646 C2641 1.363 . S
C2646 C2645 1.415 . S
C2647 H2623 0.951 . S
C2647 C2648 1.366 . S
C2647 C2649 1.388 . S
C2648 C2647 1.366 . S
C2648 C2652 1.385 . S
C2649 H2624 0.951 . S
C2649 C2647 1.388 . S
C2649 C2650 1.366 . S
C2650 C2649 1.366 . S
C2650 C2651 1.414 . S
C2650 C2653 1.499 . S
C2651 H2625 0.950 . S
C2651 C2650 1.414 . S
C2651 C2652 1.374 . S
C2652 H2626 0.950 . S
C2652 C2648 1.385 . S
C2652 C2651 1.374 . S
C2653 C2650 1.499 . S
C2653 C2654 1.373 . S
C2653 C2655 1.389 . S
C2654 H2627 0.950 . S
C2654 C2640 1.377 . S
C2654 C2653 1.373 . S
C2655 C2639 1.377 . S
C2655 C2653 1.389 . S
C2655 C2656 1.524 . S
C2656 C2655 1.524 . S
C2656 C2657 1.397 . S
C2656 C2661 1.363 . S
C2657 H2628 0.950 . S
C2657 C2656 1.397 . S
C2657 C2658 1.334 . S
C2658 H2629 0.950 . S
C2658 C2657 1.334 . S
C2658 C2659 1.287 . S
C2659 C2658 1.287 . S
C2659 C2660 1.524 . S
C2659 H2662 0.999 . S
C2660 H2630 0.950 . S
C2660 C2659 1.524 . S
C2660 C2661 1.415 . S
C2661 H2631 0.950 . S
C2661 C2656 1.363 . S
C2661 C2660 1.415 . S
H2662 C2659 0.999 . S
H2663 C2644 0.913 . S
H2664 C2682 0.951 . S
H2665 C2684 0.951 . S
H2666 C2686 0.950 . S
H2667 C2687 0.950 . S
H2668 C2689 0.950 . S
H2669 C2692 0.950 . S
H2670 C2693 0.950 . S
H2671 C2695 0.950 . S
H2672 C2696 0.950 . S
H2673 C2697 0.951 . S
H2674 C2699 0.951 . S
H2675 C2701 0.950 . S
H2676 C2702 0.950 . S
H2677 C2704 0.950 . S
H2678 C2707 0.950 . S
H2679 C2708 0.950 . S
H2680 C2710 0.950 . S
H2681 C2711 0.950 . S
C2682 H2664 0.951 . S
C2682 C2683 1.366 . S
C2682 C2684 1.388 . S
C2683 C2682 1.366 . S
C2683 C2687 1.385 . S
C2684 H2665 0.951 . S
C2684 C2682 1.388 . S
C2684 C2685 1.366 . S
C2685 C2684 1.366 . S
C2685 C2686 1.414 . S
C2685 C2688 1.499 . S
C2686 H2666 0.950 . S
C2686 C2685 1.414 . S
C2686 C2687 1.374 . S
C2687 H2667 0.950 . S
C2687 C2683 1.385 . S
C2687 C2686 1.374 . S
C2688 C2685 1.499 . S
C2688 C2689 1.373 . S
C2688 C2690 1.389 . S
C2689 H2668 0.950 . S
C2689 C2688 1.373 . S
C2689 C2705 1.377 . S
C2690 C2688 1.389 . S
C2690 C2691 1.524 . S
C2690 C2704 1.377 . S
C2691 C2690 1.524 . S
C2691 C2692 1.397 . S
C2691 C2696 1.363 . S
C2692 H2669 0.950 . S
C2692 C2691 1.397 . S
C2692 C2693 1.334 . S
C2693 H2670 0.950 . S
C2693 C2692 1.334 . S
C2693 C2694 1.287 . S
C2694 C2693 1.287 . S
C2694 C2695 1.524 . S
C2694 H2713 0.913 . S
C2695 H2671 0.950 . S
C2695 C2694 1.524 . S
C2695 C2696 1.415 . S
C2696 H2672 0.950 . S
C2696 C2691 1.363 . S
C2696 C2695 1.415 . S
C2697 H2673 0.951 . S
C2697 C2698 1.366 . S
C2697 C2699 1.388 . S
C2698 C2697 1.366 . S
C2698 C2702 1.385 . S
C2699 H2674 0.951 . S
C2699 C2697 1.388 . S
C2699 C2700 1.366 . S
C2700 C2699 1.366 . S
C2700 C2701 1.414 . S
C2700 C2703 1.499 . S
C2701 H2675 0.950 . S
C2701 C2700 1.414 . S
C2701 C2702 1.374 . S
C2702 H2676 0.950 . S
C2702 C2698 1.385 . S
C2702 C2701 1.374 . S
C2703 C2700 1.499 . S
C2703 C2704 1.373 . S
C2703 C2705 1.389 . S
C2704 H2677 0.950 . S
C2704 C2690 1.377 . S
C2704 C2703 1.373 . S
C2705 C2689 1.377 . S
C2705 C2703 1.389 . S
C2705 C2706 1.524 . S
C2706 C2705 1.524 . S
C2706 C2707 1.397 . S
C2706 C2711 1.363 . S
C2707 H2678 0.950 . S
C2707 C2706 1.397 . S
C2707 C2708 1.334 . S
C2708 H2679 0.950 . S
C2708 C2707 1.334 . S
C2708 C2709 1.287 . S
C2709 C2708 1.287 . S
C2709 C2710 1.524 . S
C2709 H2712 0.999 . S
C2710 H2680 0.950 . S
C2710 C2709 1.524 . S
C2710 C2711 1.415 . S
C2711 H2681 0.950 . S
C2711 C2706 1.363 . S
C2711 C2710 1.415 . S
H2712 C2709 0.999 . S
H2713 C2694 0.913 . S
H2714 C2732 0.951 . S
H2715 C2734 0.951 . S
H2716 C2736 0.950 . S
H2717 C2737 0.950 . S
H2718 C2739 0.950 . S
H2719 C2742 0.950 . S
H2720 C2743 0.950 . S
H2721 C2745 0.950 . S
H2722 C2746 0.950 . S
H2723 C2747 0.951 . S
H2724 C2749 0.951 . S
H2725 C2751 0.950 . S
H2726 C2752 0.950 . S
H2727 C2754 0.950 . S
H2728 C2757 0.950 . S
H2729 C2758 0.950 . S
H2730 C2760 0.950 . S
H2731 C2761 0.950 . S
C2732 H2714 0.951 . S
C2732 C2733 1.366 . S
C2732 C2734 1.388 . S
C2733 C2732 1.366 . S
C2733 C2737 1.385 . S
C2734 H2715 0.951 . S
C2734 C2732 1.388 . S
C2734 C2735 1.366 . S
C2735 C2734 1.366 . S
C2735 C2736 1.414 . S
C2735 C2738 1.499 . S
C2736 H2716 0.950 . S
C2736 C2735 1.414 . S
C2736 C2737 1.374 . S
C2737 H2717 0.950 . S
C2737 C2733 1.385 . S
C2737 C2736 1.374 . S
C2738 C2735 1.499 . S
C2738 C2739 1.373 . S
C2738 C2740 1.389 . S
C2739 H2718 0.950 . S
C2739 C2738 1.373 . S
C2739 C2755 1.377 . S
C2740 C2738 1.389 . S
C2740 C2741 1.524 . S
C2740 C2754 1.377 . S
C2741 C2740 1.524 . S
C2741 C2742 1.397 . S
C2741 C2746 1.363 . S
C2742 H2719 0.950 . S
C2742 C2741 1.397 . S
C2742 C2743 1.334 . S
C2743 H2720 0.950 . S
C2743 C2742 1.334 . S
C2743 C2744 1.287 . S
C2744 C2743 1.287 . S
C2744 C2745 1.524 . S
C2744 H2763 0.913 . S
C2745 H2721 0.950 . S
C2745 C2744 1.524 . S
C2745 C2746 1.415 . S
C2746 H2722 0.950 . S
C2746 C2741 1.363 . S
C2746 C2745 1.415 . S
C2747 H2723 0.951 . S
C2747 C2748 1.366 . S
C2747 C2749 1.388 1_655 S
C2748 C2747 1.366 . S
C2748 C2752 1.385 1_655 S
C2749 H2724 0.951 . S
C2749 C2747 1.388 1_455 S
C2749 C2750 1.366 . S
C2750 C2749 1.366 . S
C2750 C2751 1.414 . S
C2750 C2753 1.499 . S
C2751 H2725 0.950 . S
C2751 C2750 1.414 . S
C2751 C2752 1.374 . S
C2752 H2726 0.950 . S
C2752 C2748 1.385 1_455 S
C2752 C2751 1.374 . S
C2753 C2750 1.499 . S
C2753 C2754 1.373 . S
C2753 C2755 1.389 . S
C2754 H2727 0.950 . S
C2754 C2740 1.377 . S
C2754 C2753 1.373 . S
C2755 C2739 1.377 . S
C2755 C2753 1.389 . S
C2755 C2756 1.524 . S
C2756 C2755 1.524 . S
C2756 C2757 1.397 . S
C2756 C2761 1.363 . S
C2757 H2728 0.950 . S
C2757 C2756 1.397 . S
C2757 C2758 1.334 . S
C2758 H2729 0.950 . S
C2758 C2757 1.334 . S
C2758 C2759 1.287 . S
C2759 C2758 1.287 . S
C2759 C2760 1.524 . S
C2759 H2762 0.999 . S
C2760 H2730 0.950 . S
C2760 C2759 1.524 . S
C2760 C2761 1.415 . S
C2761 H2731 0.950 . S
C2761 C2756 1.363 . S
C2761 C2760 1.415 . S
H2762 C2759 0.999 . S
H2763 C2744 0.913 . S
H2764 C2782 0.951 . S
H2765 C2784 0.951 . S
H2766 C2786 0.950 . S
H2767 C2787 0.950 . S
H2768 C2789 0.950 . S
H2769 C2792 0.950 . S
H2770 C2793 0.950 . S
H2771 C2795 0.950 . S
H2772 C2796 0.950 . S
H2773 C2797 0.951 . S
H2774 C2799 0.951 . S
H2775 C2801 0.950 . S
H2776 C2802 0.950 . S
H2777 C2804 0.950 . S
H2778 C2807 0.950 . S
H2779 C2808 0.950 . S
H2780 C2810 0.950 . S
H2781 C2811 0.950 . S
C2782 H2764 0.951 . S
C2782 C2783 1.366 . S
C2782 C2784 1.388 . S
C2783 C2782 1.366 . S
C2783 C2787 1.385 . S
C2784 H2765 0.951 . S
C2784 C2782 1.388 . S
C2784 C2785 1.366 . S
C2785 C2784 1.366 . S
C2785 C2786 1.414 . S
C2785 C2788 1.499 . S
C2786 H2766 0.950 . S
C2786 C2785 1.414 . S
C2786 C2787 1.374 . S
C2787 H2767 0.950 . S
C2787 C2783 1.385 . S
C2787 C2786 1.374 . S
C2788 C2785 1.499 . S
C2788 C2789 1.373 . S
C2788 C2790 1.389 . S
C2789 H2768 0.950 . S
C2789 C2788 1.373 . S
C2789 C2805 1.377 . S
C2790 C2788 1.389 . S
C2790 C2791 1.524 . S
C2790 C2804 1.377 . S
C2791 C2790 1.524 . S
C2791 C2792 1.397 . S
C2791 C2796 1.363 . S
C2792 H2769 0.950 . S
C2792 C2791 1.397 . S
C2792 C2793 1.334 . S
C2793 H2770 0.950 . S
C2793 C2792 1.334 . S
C2793 C2794 1.287 . S
C2794 C2793 1.287 . S
C2794 C2795 1.524 . S
C2794 H2813 0.913 . S
C2795 H2771 0.950 . S
C2795 C2794 1.524 . S
C2795 C2796 1.415 . S
C2796 H2772 0.950 . S
C2796 C2791 1.363 . S
C2796 C2795 1.415 . S
C2797 H2773 0.951 . S
C2797 C2798 1.366 . S
C2797 C2799 1.388 . S
C2798 C2797 1.366 . S
C2798 C2802 1.385 . S
C2799 H2774 0.951 . S
C2799 C2797 1.388 . S
C2799 C2800 1.366 . S
C2800 C2799 1.366 . S
C2800 C2801 1.414 . S
C2800 C2803 1.499 . S
C2801 H2775 0.950 . S
C2801 C2800 1.414 . S
C2801 C2802 1.374 . S
C2802 H2776 0.950 . S
C2802 C2798 1.385 . S
C2802 C2801 1.374 . S
C2803 C2800 1.499 . S
C2803 C2804 1.373 . S
C2803 C2805 1.389 . S
C2804 H2777 0.950 . S
C2804 C2790 1.377 . S
C2804 C2803 1.373 . S
C2805 C2789 1.377 . S
C2805 C2803 1.389 . S
C2805 C2806 1.524 . S
C2806 C2805 1.524 . S
C2806 C2807 1.397 . S
C2806 C2811 1.363 . S
C2807 H2778 0.950 . S
C2807 C2806 1.397 . S
C2807 C2808 1.334 . S
C2808 H2779 0.950 . S
C2808 C2807 1.334 . S
C2808 C2809 1.287 . S
C2809 C2808 1.287 . S
C2809 C2810 1.524 . S
C2809 H2812 0.999 . S
C2810 H2780 0.950 . S
C2810 C2809 1.524 . S
C2810 C2811 1.415 . S
C2811 H2781 0.950 . S
C2811 C2806 1.363 . S
C2811 C2810 1.415 . S
H2812 C2809 0.999 . S
H2813 C2794 0.913 . S
H2814 C2832 0.951 . S
H2815 C2834 0.951 . S
H2816 C2836 0.950 . S
H2817 C2837 0.950 . S
H2818 C2839 0.950 . S
H2819 C2842 0.950 . S
H2820 C2843 0.950 . S
H2821 C2845 0.950 . S
H2822 C2846 0.950 . S
H2823 C2847 0.951 . S
H2824 C2849 0.951 . S
H2825 C2851 0.950 . S
H2826 C2852 0.950 . S
H2827 C2854 0.950 . S
H2828 C2857 0.950 . S
H2829 C2858 0.950 . S
H2830 C2860 0.950 . S
H2831 C2861 0.950 . S
C2832 H2814 0.951 . S
C2832 C2833 1.366 . S
C2832 C2834 1.388 . S
C2833 C2832 1.366 . S
C2833 C2837 1.385 . S
C2834 H2815 0.951 . S
C2834 C2832 1.388 . S
C2834 C2835 1.366 . S
C2835 C2834 1.366 . S
C2835 C2836 1.414 . S
C2835 C2838 1.499 . S
C2836 H2816 0.950 . S
C2836 C2835 1.414 . S
C2836 C2837 1.374 . S
C2837 H2817 0.950 . S
C2837 C2833 1.385 . S
C2837 C2836 1.374 . S
C2838 C2835 1.499 . S
C2838 C2839 1.373 . S
C2838 C2840 1.389 . S
C2839 H2818 0.950 . S
C2839 C2838 1.373 . S
C2839 C2855 1.377 . S
C2840 C2838 1.389 . S
C2840 C2841 1.524 . S
C2840 C2854 1.377 . S
C2841 C2840 1.524 . S
C2841 C2842 1.397 . S
C2841 C2846 1.363 . S
C2842 H2819 0.950 . S
C2842 C2841 1.397 . S
C2842 C2843 1.334 . S
C2843 H2820 0.950 . S
C2843 C2842 1.334 . S
C2843 C2844 1.287 . S
C2844 C2843 1.287 . S
C2844 C2845 1.524 . S
C2844 H2863 0.913 . S
C2845 H2821 0.950 . S
C2845 C2844 1.524 . S
C2845 C2846 1.415 . S
C2846 H2822 0.950 . S
C2846 C2841 1.363 . S
C2846 C2845 1.415 . S
C2847 H2823 0.951 . S
C2847 C2848 1.366 . S
C2847 C2849 1.388 . S
C2848 C2847 1.366 . S
C2848 C2852 1.385 . S
C2849 H2824 0.951 . S
C2849 C2847 1.388 . S
C2849 C2850 1.366 . S
C2850 C2849 1.366 . S
C2850 C2851 1.414 . S
C2850 C2853 1.499 . S
C2851 H2825 0.950 . S
C2851 C2850 1.414 . S
C2851 C2852 1.374 . S
C2852 H2826 0.950 . S
C2852 C2848 1.385 . S
C2852 C2851 1.374 . S
C2853 C2850 1.499 . S
C2853 C2854 1.373 . S
C2853 C2855 1.389 . S
C2854 H2827 0.950 . S
C2854 C2840 1.377 . S
C2854 C2853 1.373 . S
C2855 C2839 1.377 . S
C2855 C2853 1.389 . S
C2855 C2856 1.524 . S
C2856 C2855 1.524 . S
C2856 C2857 1.397 . S
C2856 C2861 1.363 . S
C2857 H2828 0.950 . S
C2857 C2856 1.397 . S
C2857 C2858 1.334 . S
C2858 H2829 0.950 . S
C2858 C2857 1.334 . S
C2858 C2859 1.287 . S
C2859 C2858 1.287 . S
C2859 C2860 1.524 . S
C2859 H2862 0.999 . S
C2860 H2830 0.950 . S
C2860 C2859 1.524 . S
C2860 C2861 1.415 . S
C2861 H2831 0.950 . S
C2861 C2856 1.363 . S
C2861 C2860 1.415 . S
H2862 C2859 0.999 . S
H2863 C2844 0.913 . S
H2864 C2882 0.951 . S
H2865 C2884 0.951 . S
H2866 C2886 0.950 . S
H2867 C2887 0.950 . S
H2868 C2889 0.950 . S
H2869 C2892 0.950 . S
H2870 C2893 0.950 . S
H2871 C2895 0.950 . S
H2872 C2896 0.950 . S
H2873 C2897 0.951 . S
H2874 C2899 0.951 . S
H2875 C2901 0.950 . S
H2876 C2902 0.950 . S
H2877 C2904 0.950 . S
H2878 C2907 0.950 . S
H2879 C2908 0.950 . S
H2880 C2910 0.950 . S
H2881 C2911 0.950 . S
C2882 H2864 0.951 . S
C2882 C2883 1.366 . S
C2882 C2884 1.388 . S
C2883 C2882 1.366 . S
C2883 C2887 1.385 . S
C2884 H2865 0.951 . S
C2884 C2882 1.388 . S
C2884 C2885 1.366 . S
C2885 C2884 1.366 . S
C2885 C2886 1.414 . S
C2885 C2888 1.499 . S
C2886 H2866 0.950 . S
C2886 C2885 1.414 . S
C2886 C2887 1.374 . S
C2887 H2867 0.950 . S
C2887 C2883 1.385 . S
C2887 C2886 1.374 . S
C2888 C2885 1.499 . S
C2888 C2889 1.373 . S
C2888 C2890 1.389 . S
C2889 H2868 0.950 . S
C2889 C2888 1.373 . S
C2889 C2905 1.377 . S
C2890 C2888 1.389 . S
C2890 C2891 1.524 . S
C2890 C2904 1.377 . S
C2891 C2890 1.524 . S
C2891 C2892 1.397 . S
C2891 C2896 1.363 . S
C2892 H2869 0.950 . S
C2892 C2891 1.397 . S
C2892 C2893 1.334 . S
C2893 H2870 0.950 . S
C2893 C2892 1.334 . S
C2893 C2894 1.287 . S
C2894 C2893 1.287 . S
C2894 C2895 1.524 . S
C2894 H2913 0.913 . S
C2895 H2871 0.950 . S
C2895 C2894 1.524 . S
C2895 C2896 1.415 . S
C2896 H2872 0.950 . S
C2896 C2891 1.363 . S
C2896 C2895 1.415 . S
C2897 H2873 0.951 . S
C2897 C2898 1.366 . S
C2897 C2899 1.388 . S
C2898 C2897 1.366 . S
C2898 C2902 1.385 . S
C2899 H2874 0.951 . S
C2899 C2897 1.388 . S
C2899 C2900 1.366 . S
C2900 C2899 1.366 . S
C2900 C2901 1.414 . S
C2900 C2903 1.499 . S
C2901 H2875 0.950 . S
C2901 C2900 1.414 . S
C2901 C2902 1.374 . S
C2902 H2876 0.950 . S
C2902 C2898 1.385 . S
C2902 C2901 1.374 . S
C2903 C2900 1.499 . S
C2903 C2904 1.373 . S
C2903 C2905 1.389 . S
C2904 H2877 0.950 . S
C2904 C2890 1.377 . S
C2904 C2903 1.373 . S
C2905 C2889 1.377 . S
C2905 C2903 1.389 . S
C2905 C2906 1.524 . S
C2906 C2905 1.524 . S
C2906 C2907 1.397 . S
C2906 C2911 1.363 . S
C2907 H2878 0.950 . S
C2907 C2906 1.397 . S
C2907 C2908 1.334 . S
C2908 H2879 0.950 . S
C2908 C2907 1.334 . S
C2908 C2909 1.287 . S
C2909 C2908 1.287 . S
C2909 C2910 1.524 . S
C2909 H2912 0.999 . S
C2910 H2880 0.950 . S
C2910 C2909 1.524 . S
C2910 C2911 1.415 . S
C2911 H2881 0.950 . S
C2911 C2906 1.363 . S
C2911 C2910 1.415 . S
H2912 C2909 0.999 . S
H2913 C2894 0.913 . S
H2914 C2932 0.951 . S
H2915 C2934 0.951 . S
H2916 C2936 0.950 . S
H2917 C2937 0.950 . S
H2918 C2939 0.950 1_565 S
H2919 C2942 0.950 . S
H2920 C2943 0.950 . S
H2921 C2945 0.950 . S
H2922 C2946 0.950 . S
H2923 C2947 0.951 . S
H2924 C2949 0.951 . S
H2925 C2951 0.950 . S
H2926 C2952 0.950 . S
H2927 C2954 0.950 . S
H2928 C2957 0.950 . S
H2929 C2958 0.950 . S
H2930 C2960 0.950 . S
H2931 C2961 0.950 . S
C2932 H2914 0.951 . S
C2932 C2933 1.366 . S
C2932 C2934 1.388 . S
C2933 C2932 1.366 . S
C2933 C2937 1.385 1_545 S
C2934 H2915 0.951 . S
C2934 C2932 1.388 . S
C2934 C2935 1.366 . S
C2935 C2934 1.366 . S
C2935 C2936 1.414 1_545 S
C2935 C2938 1.499 . S
C2936 H2916 0.950 . S
C2936 C2935 1.414 1_565 S
C2936 C2937 1.374 . S
C2937 H2917 0.950 . S
C2937 C2933 1.385 1_565 S
C2937 C2936 1.374 . S
C2938 C2935 1.499 . S
C2938 C2939 1.373 . S
C2938 C2940 1.389 . S
C2939 H2918 0.950 1_545 S
C2939 C2938 1.373 . S
C2939 C2955 1.377 . S
C2940 C2938 1.389 . S
C2940 C2941 1.524 . S
C2940 C2954 1.377 . S
C2941 C2940 1.524 . S
C2941 C2942 1.397 . S
C2941 C2946 1.363 . S
C2942 H2919 0.950 . S
C2942 C2941 1.397 . S
C2942 C2943 1.334 . S
C2943 H2920 0.950 . S
C2943 C2942 1.334 . S
C2943 C2944 1.287 . S
C2944 C2943 1.287 . S
C2944 C2945 1.524 . S
C2944 H2963 0.913 . S
C2945 H2921 0.950 . S
C2945 C2944 1.524 . S
C2945 C2946 1.415 . S
C2946 H2922 0.950 . S
C2946 C2941 1.363 . S
C2946 C2945 1.415 . S
C2947 H2923 0.951 . S
C2947 C2948 1.366 . S
C2947 C2949 1.388 . S
C2948 C2947 1.366 . S
C2948 C2952 1.385 . S
C2949 H2924 0.951 . S
C2949 C2947 1.388 . S
C2949 C2950 1.366 . S
C2950 C2949 1.366 . S
C2950 C2951 1.414 . S
C2950 C2953 1.499 . S
C2951 H2925 0.950 . S
C2951 C2950 1.414 . S
C2951 C2952 1.374 . S
C2952 H2926 0.950 . S
C2952 C2948 1.385 . S
C2952 C2951 1.374 . S
C2953 C2950 1.499 . S
C2953 C2954 1.373 . S
C2953 C2955 1.389 . S
C2954 H2927 0.950 . S
C2954 C2940 1.377 . S
C2954 C2953 1.373 . S
C2955 C2939 1.377 . S
C2955 C2953 1.389 . S
C2955 C2956 1.524 1_545 S
C2956 C2955 1.524 1_565 S
C2956 C2957 1.397 1_565 S
C2956 C2961 1.363 . S
C2957 H2928 0.950 . S
C2957 C2956 1.397 1_545 S
C2957 C2958 1.334 1_545 S
C2958 H2929 0.950 . S
C2958 C2957 1.334 1_565 S
C2958 C2959 1.287 . S
C2959 C2958 1.287 . S
C2959 C2960 1.524 . S
C2959 H2962 0.999 . S
C2960 H2930 0.950 . S
C2960 C2959 1.524 . S
C2960 C2961 1.415 . S
C2961 H2931 0.950 . S
C2961 C2956 1.363 . S
C2961 C2960 1.415 . S
H2962 C2959 0.999 . S
H2963 C2944 0.913 . S
H2964 C2982 0.951 . S
H2965 C2984 0.951 . S
H2966 C2986 0.950 . S
H2967 C2987 0.950 . S
H2968 C2989 0.950 . S
H2969 C2992 0.950 . S
H2970 C2993 0.950 . S
H2971 C2995 0.950 . S
H2972 C2996 0.950 . S
H2973 C2997 0.951 . S
H2974 C2999 0.951 . S
H2975 C3001 0.950 . S
H2976 C3002 0.950 . S
H2977 C3004 0.950 . S
H2978 C3007 0.950 . S
H2979 C3008 0.950 . S
H2980 C3010 0.950 . S
H2981 C3011 0.950 . S
C2982 H2964 0.951 . S
C2982 C2983 1.366 . S
C2982 C2984 1.388 . S
C2983 C2982 1.366 . S
C2983 C2987 1.385 . S
C2984 H2965 0.951 . S
C2984 C2982 1.388 . S
C2984 C2985 1.366 . S
C2985 C2984 1.366 . S
C2985 C2986 1.414 . S
C2985 C2988 1.499 . S
C2986 H2966 0.950 . S
C2986 C2985 1.414 . S
C2986 C2987 1.374 . S
C2987 H2967 0.950 . S
C2987 C2983 1.385 . S
C2987 C2986 1.374 . S
C2988 C2985 1.499 . S
C2988 C2989 1.373 . S
C2988 C2990 1.389 . S
C2989 H2968 0.950 . S
C2989 C2988 1.373 . S
C2989 C3005 1.377 . S
C2990 C2988 1.389 . S
C2990 C2991 1.524 . S
C2990 C3004 1.377 . S
C2991 C2990 1.524 . S
C2991 C2992 1.397 . S
C2991 C2996 1.363 . S
C2992 H2969 0.950 . S
C2992 C2991 1.397 . S
C2992 C2993 1.334 . S
C2993 H2970 0.950 . S
C2993 C2992 1.334 . S
C2993 C2994 1.287 . S
C2994 C2993 1.287 . S
C2994 C2995 1.524 . S
C2994 H3013 0.913 . S
C2995 H2971 0.950 . S
C2995 C2994 1.524 . S
C2995 C2996 1.415 . S
C2996 H2972 0.950 . S
C2996 C2991 1.363 . S
C2996 C2995 1.415 . S
C2997 H2973 0.951 . S
C2997 C2998 1.366 . S
C2997 C2999 1.388 . S
C2998 C2997 1.366 . S
C2998 C3002 1.385 . S
C2999 H2974 0.951 . S
C2999 C2997 1.388 . S
C2999 C3000 1.366 . S
C3000 C2999 1.366 . S
C3000 C3001 1.414 . S
C3000 C3003 1.499 . S
C3001 H2975 0.950 . S
C3001 C3000 1.414 . S
C3001 C3002 1.374 . S
C3002 H2976 0.950 . S
C3002 C2998 1.385 . S
C3002 C3001 1.374 . S
C3003 C3000 1.499 . S
C3003 C3004 1.373 . S
C3003 C3005 1.389 . S
C3004 H2977 0.950 . S
C3004 C2990 1.377 . S
C3004 C3003 1.373 . S
C3005 C2989 1.377 . S
C3005 C3003 1.389 . S
C3005 C3006 1.524 . S
C3006 C3005 1.524 . S
C3006 C3007 1.397 . S
C3006 C3011 1.363 . S
C3007 H2978 0.950 . S
C3007 C3006 1.397 . S
C3007 C3008 1.334 . S
C3008 H2979 0.950 . S
C3008 C3007 1.334 . S
C3008 C3009 1.287 . S
C3009 C3008 1.287 . S
C3009 C3010 1.524 . S
C3009 H3012 0.999 . S
C3010 H2980 0.950 . S
C3010 C3009 1.524 . S
C3010 C3011 1.415 . S
C3011 H2981 0.950 . S
C3011 C3006 1.363 . S
C3011 C3010 1.415 . S
H3012 C3009 0.999 . S
H3013 C2994 0.913 . S
H3014 C3032 0.951 . S
H3015 C3034 0.951 . S
H3016 C3036 0.950 . S
H3017 C3037 0.950 . S
H3018 C3039 0.950 . S
H3019 C3042 0.950 . S
H3020 C3043 0.950 . S
H3021 C3045 0.950 1_545 S
H3022 C3046 0.950 1_545 S
H3023 C3047 0.951 . S
H3024 C3049 0.951 . S
H3025 C3051 0.950 . S
H3026 C3052 0.950 . S
H3027 C3054 0.950 . S
H3028 C3057 0.950 . S
H3029 C3058 0.950 . S
H3030 C3060 0.950 . S
H3031 C3061 0.950 . S
C3032 H3014 0.951 . S
C3032 C3033 1.366 . S
C3032 C3034 1.388 . S
C3033 C3032 1.366 . S
C3033 C3037 1.385 . S
C3034 H3015 0.951 . S
C3034 C3032 1.388 . S
C3034 C3035 1.366 . S
C3035 C3034 1.366 . S
C3035 C3036 1.414 . S
C3035 C3038 1.499 . S
C3036 H3016 0.950 . S
C3036 C3035 1.414 . S
C3036 C3037 1.374 . S
C3037 H3017 0.950 . S
C3037 C3033 1.385 . S
C3037 C3036 1.374 . S
C3038 C3035 1.499 . S
C3038 C3039 1.373 . S
C3038 C3040 1.389 . S
C3039 H3018 0.950 . S
C3039 C3038 1.373 . S
C3039 C3055 1.377 . S
C3040 C3038 1.389 . S
C3040 C3041 1.524 . S
C3040 C3054 1.377 . S
C3041 C3040 1.524 . S
C3041 C3042 1.397 . S
C3041 C3046 1.363 . S
C3042 H3019 0.950 . S
C3042 C3041 1.397 . S
C3042 C3043 1.334 . S
C3043 H3020 0.950 . S
C3043 C3042 1.334 . S
C3043 C3044 1.287 . S
C3044 C3043 1.287 . S
C3044 C3045 1.524 . S
C3044 H3063 0.913 . S
C3045 H3021 0.950 1_565 S
C3045 C3044 1.524 . S
C3045 C3046 1.415 . S
C3046 H3022 0.950 1_565 S
C3046 C3041 1.363 . S
C3046 C3045 1.415 . S
C3047 H3023 0.951 . S
C3047 C3048 1.366 1_565 S
C3047 C3049 1.388 1_655 S
C3048 C3047 1.366 1_545 S
C3048 C3052 1.385 1_655 S
C3049 H3024 0.951 . S
C3049 C3047 1.388 1_455 S
C3049 C3050 1.366 . S
C3050 C3049 1.366 . S
C3050 C3051 1.414 1_565 S
C3050 C3053 1.499 . S
C3051 H3025 0.950 . S
C3051 C3050 1.414 1_545 S
C3051 C3052 1.374 . S
C3052 H3026 0.950 . S
C3052 C3048 1.385 1_455 S
C3052 C3051 1.374 . S
C3053 C3050 1.499 . S
C3053 C3054 1.373 . S
C3053 C3055 1.389 . S
C3054 H3027 0.950 . S
C3054 C3040 1.377 . S
C3054 C3053 1.373 . S
C3055 C3039 1.377 . S
C3055 C3053 1.389 . S
C3055 C3056 1.524 . S
C3056 C3055 1.524 . S
C3056 C3057 1.397 1_565 S
C3056 C3061 1.363 . S
C3057 H3028 0.950 . S
C3057 C3056 1.397 1_545 S
C3057 C3058 1.334 . S
C3058 H3029 0.950 . S
C3058 C3057 1.334 . S
C3058 C3059 1.287 1_545 S
C3059 C3058 1.287 1_565 S
C3059 C3060 1.524 . S
C3059 H3062 0.999 . S
C3060 H3030 0.950 . S
C3060 C3059 1.524 . S
C3060 C3061 1.415 . S
C3061 H3031 0.950 . S
C3061 C3056 1.363 . S
C3061 C3060 1.415 . S
H3062 C3059 0.999 . S
H3063 C3044 0.913 . S
H3064 C3082 0.951 . S
H3065 C3084 0.951 . S
H3066 C3086 0.950 . S
H3067 C3087 0.950 . S
H3068 C3089 0.950 . S
H3069 C3092 0.950 . S
H3070 C3093 0.950 . S
H3071 C3095 0.950 . S
H3072 C3096 0.950 . S
H3073 C3097 0.951 . S
H3074 C3099 0.951 . S
H3075 C3101 0.950 . S
H3076 C3102 0.950 . S
H3077 C3104 0.950 . S
H3078 C3107 0.950 . S
H3079 C3108 0.950 . S
H3080 C3110 0.950 . S
H3081 C3111 0.950 . S
C3082 H3064 0.951 . S
C3082 C3083 1.366 . S
C3082 C3084 1.388 . S
C3083 C3082 1.366 . S
C3083 C3087 1.385 . S
C3084 H3065 0.951 . S
C3084 C3082 1.388 . S
C3084 C3085 1.366 . S
C3085 C3084 1.366 . S
C3085 C3086 1.414 . S
C3085 C3088 1.499 . S
C3086 H3066 0.950 . S
C3086 C3085 1.414 . S
C3086 C3087 1.374 . S
C3087 H3067 0.950 . S
C3087 C3083 1.385 . S
C3087 C3086 1.374 . S
C3088 C3085 1.499 . S
C3088 C3089 1.373 . S
C3088 C3090 1.389 . S
C3089 H3068 0.950 . S
C3089 C3088 1.373 . S
C3089 C3105 1.377 . S
C3090 C3088 1.389 . S
C3090 C3091 1.524 . S
C3090 C3104 1.377 . S
C3091 C3090 1.524 . S
C3091 C3092 1.397 . S
C3091 C3096 1.363 . S
C3092 H3069 0.950 . S
C3092 C3091 1.397 . S
C3092 C3093 1.334 . S
C3093 H3070 0.950 . S
C3093 C3092 1.334 . S
C3093 C3094 1.287 . S
C3094 C3093 1.287 . S
C3094 C3095 1.524 . S
C3094 H3113 0.913 . S
C3095 H3071 0.950 . S
C3095 C3094 1.524 . S
C3095 C3096 1.415 . S
C3096 H3072 0.950 . S
C3096 C3091 1.363 . S
C3096 C3095 1.415 . S
C3097 H3073 0.951 . S
C3097 C3098 1.366 . S
C3097 C3099 1.388 . S
C3098 C3097 1.366 . S
C3098 C3102 1.385 . S
C3099 H3074 0.951 . S
C3099 C3097 1.388 . S
C3099 C3100 1.366 . S
C3100 C3099 1.366 . S
C3100 C3101 1.414 . S
C3100 C3103 1.499 . S
C3101 H3075 0.950 . S
C3101 C3100 1.414 . S
C3101 C3102 1.374 . S
C3102 H3076 0.950 . S
C3102 C3098 1.385 . S
C3102 C3101 1.374 . S
C3103 C3100 1.499 . S
C3103 C3104 1.373 . S
C3103 C3105 1.389 . S
C3104 H3077 0.950 . S
C3104 C3090 1.377 . S
C3104 C3103 1.373 . S
C3105 C3089 1.377 . S
C3105 C3103 1.389 . S
C3105 C3106 1.524 . S
C3106 C3105 1.524 . S
C3106 C3107 1.397 . S
C3106 C3111 1.363 . S
C3107 H3078 0.950 . S
C3107 C3106 1.397 . S
C3107 C3108 1.334 . S
C3108 H3079 0.950 . S
C3108 C3107 1.334 . S
C3108 C3109 1.287 . S
C3109 C3108 1.287 . S
C3109 C3110 1.524 . S
C3109 H3112 0.999 . S
C3110 H3080 0.950 . S
C3110 C3109 1.524 . S
C3110 C3111 1.415 . S
C3111 H3081 0.950 . S
C3111 C3106 1.363 . S
C3111 C3110 1.415 . S
H3112 C3109 0.999 . S
H3113 C3094 0.913 . S
H3114 C3132 0.951 . S
H3115 C3134 0.951 . S
H3116 C3136 0.950 . S
H3117 C3137 0.950 . S
H3118 C3139 0.950 . S
H3119 C3142 0.950 . S
H3120 C3143 0.950 . S
H3121 C3145 0.950 . S
H3122 C3146 0.950 . S
H3123 C3147 0.951 . S
H3124 C3149 0.951 . S
H3125 C3151 0.950 . S
H3126 C3152 0.950 . S
H3127 C3154 0.950 . S
H3128 C3157 0.950 . S
H3129 C3158 0.950 . S
H3130 C3160 0.950 1_545 S
H3131 C3161 0.950 1_545 S
C3132 H3114 0.951 . S
C3132 C3133 1.366 1_565 S
C3132 C3134 1.388 . S
C3133 C3132 1.366 1_545 S
C3133 C3137 1.385 . S
C3134 H3115 0.951 . S
C3134 C3132 1.388 . S
C3134 C3135 1.366 . S
C3135 C3134 1.366 . S
C3135 C3136 1.414 1_565 S
C3135 C3138 1.499 . S
C3136 H3116 0.950 . S
C3136 C3135 1.414 1_545 S
C3136 C3137 1.374 . S
C3137 H3117 0.950 . S
C3137 C3133 1.385 . S
C3137 C3136 1.374 . S
C3138 C3135 1.499 . S
C3138 C3139 1.373 . S
C3138 C3140 1.389 . S
C3139 H3118 0.950 . S
C3139 C3138 1.373 . S
C3139 C3155 1.377 . S
C3140 C3138 1.389 . S
C3140 C3141 1.524 . S
C3140 C3154 1.377 . S
C3141 C3140 1.524 . S
C3141 C3142 1.397 1_565 S
C3141 C3146 1.363 . S
C3142 H3119 0.950 . S
C3142 C3141 1.397 1_545 S
C3142 C3143 1.334 . S
C3143 H3120 0.950 . S
C3143 C3142 1.334 . S
C3143 C3144 1.287 1_545 S
C3144 C3143 1.287 1_565 S
C3144 C3145 1.524 . S
C3144 H3163 0.913 . S
C3145 H3121 0.950 . S
C3145 C3144 1.524 . S
C3145 C3146 1.415 . S
C3146 H3122 0.950 . S
C3146 C3141 1.363 . S
C3146 C3145 1.415 . S
C3147 H3123 0.951 . S
C3147 C3148 1.366 . S
C3147 C3149 1.388 . S
C3148 C3147 1.366 . S
C3148 C3152 1.385 . S
C3149 H3124 0.951 . S
C3149 C3147 1.388 . S
C3149 C3150 1.366 . S
C3150 C3149 1.366 . S
C3150 C3151 1.414 . S
C3150 C3153 1.499 . S
C3151 H3125 0.950 . S
C3151 C3150 1.414 . S
C3151 C3152 1.374 . S
C3152 H3126 0.950 . S
C3152 C3148 1.385 . S
C3152 C3151 1.374 . S
C3153 C3150 1.499 . S
C3153 C3154 1.373 . S
C3153 C3155 1.389 . S
C3154 H3127 0.950 . S
C3154 C3140 1.377 . S
C3154 C3153 1.373 . S
C3155 C3139 1.377 . S
C3155 C3153 1.389 . S
C3155 C3156 1.524 . S
C3156 C3155 1.524 . S
C3156 C3157 1.397 . S
C3156 C3161 1.363 . S
C3157 H3128 0.950 . S
C3157 C3156 1.397 . S
C3157 C3158 1.334 . S
C3158 H3129 0.950 . S
C3158 C3157 1.334 . S
C3158 C3159 1.287 . S
C3159 C3158 1.287 . S
C3159 C3160 1.524 . S
C3159 H3162 0.999 . S
C3160 H3130 0.950 1_565 S
C3160 C3159 1.524 . S
C3160 C3161 1.415 . S
C3161 H3131 0.950 1_565 S
C3161 C3156 1.363 . S
C3161 C3160 1.415 . S
H3162 C3159 0.999 . S
H3163 C3144 0.913 . S
H3164 C3182 0.951 . S
H3165 C3184 0.951 . S
H3166 C3186 0.950 . S
H3167 C3187 0.950 . S
H3168 C3189 0.950 . S
H3169 C3192 0.950 . S
H3170 C3193 0.950 . S
H3171 C3195 0.950 . S
H3172 C3196 0.950 . S
H3173 C3197 0.951 . S
H3174 C3199 0.951 . S
H3175 C3201 0.950 . S
H3176 C3202 0.950 . S
H3177 C3204 0.950 . S
H3178 C3207 0.950 . S
H3179 C3208 0.950 . S
H3180 C3210 0.950 . S
H3181 C3211 0.950 . S
C3182 H3164 0.951 . S
C3182 C3183 1.366 . S
C3182 C3184 1.388 . S
C3183 C3182 1.366 . S
C3183 C3187 1.385 . S
C3184 H3165 0.951 . S
C3184 C3182 1.388 . S
C3184 C3185 1.366 . S
C3185 C3184 1.366 . S
C3185 C3186 1.414 . S
C3185 C3188 1.499 . S
C3186 H3166 0.950 . S
C3186 C3185 1.414 . S
C3186 C3187 1.374 . S
C3187 H3167 0.950 . S
C3187 C3183 1.385 . S
C3187 C3186 1.374 . S
C3188 C3185 1.499 . S
C3188 C3189 1.373 . S
C3188 C3190 1.389 . S
C3189 H3168 0.950 . S
C3189 C3188 1.373 . S
C3189 C3205 1.377 . S
C3190 C3188 1.389 . S
C3190 C3191 1.524 . S
C3190 C3204 1.377 . S
C3191 C3190 1.524 . S
C3191 C3192 1.397 . S
C3191 C3196 1.363 . S
C3192 H3169 0.950 . S
C3192 C3191 1.397 . S
C3192 C3193 1.334 . S
C3193 H3170 0.950 . S
C3193 C3192 1.334 . S
C3193 C3194 1.287 . S
C3194 C3193 1.287 . S
C3194 C3195 1.524 . S
C3194 H3213 0.913 . S
C3195 H3171 0.950 . S
C3195 C3194 1.524 . S
C3195 C3196 1.415 . S
C3196 H3172 0.950 . S
C3196 C3191 1.363 . S
C3196 C3195 1.415 . S
C3197 H3173 0.951 . S
C3197 C3198 1.366 . S
C3197 C3199 1.388 . S
C3198 C3197 1.366 . S
C3198 C3202 1.385 . S
C3199 H3174 0.951 . S
C3199 C3197 1.388 . S
C3199 C3200 1.366 . S
C3200 C3199 1.366 . S
C3200 C3201 1.414 . S
C3200 C3203 1.499 . S
C3201 H3175 0.950 . S
C3201 C3200 1.414 . S
C3201 C3202 1.374 . S
C3202 H3176 0.950 . S
C3202 C3198 1.385 . S
C3202 C3201 1.374 . S
C3203 C3200 1.499 . S
C3203 C3204 1.373 . S
C3203 C3205 1.389 . S
C3204 H3177 0.950 . S
C3204 C3190 1.377 . S
C3204 C3203 1.373 . S
C3205 C3189 1.377 . S
C3205 C3203 1.389 . S
C3205 C3206 1.524 . S
C3206 C3205 1.524 . S
C3206 C3207 1.397 . S
C3206 C3211 1.363 . S
C3207 H3178 0.950 . S
C3207 C3206 1.397 . S
C3207 C3208 1.334 . S
C3208 H3179 0.950 . S
C3208 C3207 1.334 . S
C3208 C3209 1.287 . S
C3209 C3208 1.287 . S
C3209 C3210 1.524 . S
C3209 H3212 0.999 . S
C3210 H3180 0.950 . S
C3210 C3209 1.524 . S
C3210 C3211 1.415 . S
C3211 H3181 0.950 . S
C3211 C3206 1.363 . S
C3211 C3210 1.415 . S
H3212 C3209 0.999 . S
H3213 C3194 0.913 . S
H3214 C3232 0.951 . S
H3215 C3234 0.951 . S
H3216 C3236 0.950 . S
H3217 C3237 0.950 . S
H3218 C3239 0.950 1_565 S
H3219 C3242 0.950 . S
H3220 C3243 0.950 . S
H3221 C3245 0.950 . S
H3222 C3246 0.950 . S
H3223 C3247 0.951 . S
H3224 C3249 0.951 . S
H3225 C3251 0.950 . S
H3226 C3252 0.950 . S
H3227 C3254 0.950 . S
H3228 C3257 0.950 . S
H3229 C3258 0.950 . S
H3230 C3260 0.950 . S
H3231 C3261 0.950 . S
C3232 H3214 0.951 . S
C3232 C3233 1.366 1_655 S
C3232 C3234 1.388 1_565 S
C3233 C3232 1.366 1_455 S
C3233 C3237 1.385 . S
C3234 H3215 0.951 . S
C3234 C3232 1.388 1_545 S
C3234 C3235 1.366 . S
C3235 C3234 1.366 . S
C3235 C3236 1.414 . S
C3235 C3238 1.499 . S
C3236 H3216 0.950 . S
C3236 C3235 1.414 . S
C3236 C3237 1.374 1_645 S
C3237 H3217 0.950 . S
C3237 C3233 1.385 . S
C3237 C3236 1.374 1_465 S
C3238 C3235 1.499 . S
C3238 C3239 1.373 . S
C3238 C3240 1.389 . S
C3239 H3218 0.950 1_545 S
C3239 C3238 1.373 . S
C3239 C3255 1.377 . S
C3240 C3238 1.389 . S
C3240 C3241 1.524 . S
C3240 C3254 1.377 . S
C3241 C3240 1.524 . S
C3241 C3242 1.397 . S
C3241 C3246 1.363 . S
C3242 H3219 0.950 . S
C3242 C3241 1.397 . S
C3242 C3243 1.334 . S
C3243 H3220 0.950 . S
C3243 C3242 1.334 . S
C3243 C3244 1.287 . S
C3244 C3243 1.287 . S
C3244 C3245 1.524 . S
C3244 H3263 0.913 . S
C3245 H3221 0.950 . S
C3245 C3244 1.524 . S
C3245 C3246 1.415 . S
C3246 H3222 0.950 . S
C3246 C3241 1.363 . S
C3246 C3245 1.415 . S
C3247 H3223 0.951 . S
C3247 C3248 1.366 . S
C3247 C3249 1.388 . S
C3248 C3247 1.366 . S
C3248 C3252 1.385 . S
C3249 H3224 0.951 . S
C3249 C3247 1.388 . S
C3249 C3250 1.366 . S
C3250 C3249 1.366 . S
C3250 C3251 1.414 . S
C3250 C3253 1.499 . S
C3251 H3225 0.950 . S
C3251 C3250 1.414 . S
C3251 C3252 1.374 . S
C3252 H3226 0.950 . S
C3252 C3248 1.385 . S
C3252 C3251 1.374 . S
C3253 C3250 1.499 . S
C3253 C3254 1.373 . S
C3253 C3255 1.389 . S
C3254 H3227 0.950 . S
C3254 C3240 1.377 . S
C3254 C3253 1.373 . S
C3255 C3239 1.377 . S
C3255 C3253 1.389 . S
C3255 C3256 1.524 1_545 S
C3256 C3255 1.524 1_565 S
C3256 C3257 1.397 . S
C3256 C3261 1.363 . S
C3257 H3228 0.950 . S
C3257 C3256 1.397 . S
C3257 C3258 1.334 . S
C3258 H3229 0.950 . S
C3258 C3257 1.334 . S
C3258 C3259 1.287 . S
C3259 C3258 1.287 . S
C3259 C3260 1.524 . S
C3259 H3262 0.999 . S
C3260 H3230 0.950 . S
C3260 C3259 1.524 . S
C3260 C3261 1.415 . S
C3261 H3231 0.950 . S
C3261 C3256 1.363 . S
C3261 C3260 1.415 . S
H3262 C3259 0.999 . S
H3263 C3244 0.913 . S
C483 C224 2.286 . S
C498 C5 2.341 . S
C533 C369 2.662 . S
C548 C39 2.756 . S
C583 C63 2.764 . S
C598 C166 2.729 . S
C633 C427 2.464 . S
C648 C92 2.490 . S
C683 C108 2.557 . S
C698 C121 2.587 . S
C733 C150 2.705 . S
C748 C253 2.609 . S
C783 C179 2.595 . S
C798 C37 2.397 . S
C833 C311 2.604 . S
C848 C208 2.617 . S
C883 C456 2.287 . S
C898 C237 2.341 . S
C933 C271 2.756 . S
C948 C137 2.662 . S
C983 C398 2.729 . S
C998 C295 2.764 . S
C1033 C195 2.464 . S
C1048 C324 2.489 . S
C1083 C340 2.557 . S
C1098 C353 2.587 . S
C1133 C382 2.705 . S
C1148 C21 2.610 . S
C1183 C411 2.596 . S
C1198 C269 2.397 . S
C1233 C79 2.604 . S
C1248 C440 2.617 . S
C1283 C282 1.032 . S
C1298 C3 1.025 . S
C1333 C44 0.690 . S
C1348 C298 0.676 . S
C1383 C61 0.568 . S
C1398 C327 0.528 . S
C1433 C90 0.810 . S
C1448 C240 0.820 . S
C1483 C385 0.440 . S
C1498 C119 0.442 . S
C1533 C148 1.313 . S
C1548 C414 1.342 . S
C1583 C443 0.797 . S
C1598 C177 0.791 . S
C1633 C206 1.121 . S
C1648 C356 1.156 . S
C1683 C50 1.032 . S
C1698 C235 1.025 . S
C1733 C66 0.675 . S
C1748 C276 0.693 . S
C1783 C95 0.526 . S
C1798 C293 0.568 . S
C1833 C8 0.819 . S
C1848 C322 0.810 . S
C1883 C351 0.442 . S
C1898 C153 0.441 . S
C1933 C182 1.340 . S
C1948 C380 1.314 . S
C1983 C211 0.797 . S
C1998 C409 0.791 . S
C2033 C438 1.121 . S
C2048 C124 1.157 . S
C2083 C129 1.853 . S
C2098 C13 1.856 . S
C2133 C42 1.781 . S
C2148 C390 1.834 . S
C2183 C187 1.534 . S
C2198 C71 1.536 . S
C2233 C448 1.944 . S
C2248 C100 1.942 . S
C2283 C274 1.781 . S
C2298 C158 1.835 . S
C2333 C216 1.944 . S
C2348 C332 1.942 . S
C2383 C245 1.856 . S
C2398 C361 1.853 . S
C2433 C303 1.536 . S
C2448 C419 1.535 . S
C2483 C218 1.382 . S
C2498 C10 1.345 1_565 S
C2533 C363 1.582 . S
C2548 C34 1.505 . S
C2583 C68 0.949 1_545 S
C2598 C160 0.969 . S
C2633 C97 1.644 . S
C2648 C421 1.670 . S
C2683 C126 1.240 . S
C2698 C102 1.257 . S
C2733 C155 1.617 . S
C2748 C247 1.681 . S
C2783 C184 1.843 1_565 S
C2798 C32 1.904 . S
C2833 C305 1.822 . S
C2848 C213 1.781 . S
C2883 C242 1.344 . S
C2898 C450 1.382 . S
C2933 C131 1.582 1_545 S
C2948 C266 1.505 . S
C2983 C392 0.969 . S
C2998 C300 0.951 . S
C3033 C329 1.645 . S
C3048 C189 1.670 . S
C3083 C334 1.258 . S
C3098 C358 1.227 . S
C3133 C15 1.681 . S
C3148 C387 1.616 . S
C3183 C416 1.843 . S
C3198 C264 1.904 . S
C3233 C73 1.821 . S
C3248 C445 1.782 . S
