# Generated by pormake.
# Topology fcj, (5)-cn, num edge types: 1
# Building blocks:
#     Node 0, Type 0, BuildingBlock: BEQFEK_clean_sbu_0, # of connection points: 5
#     Node 1, Type 0, BuildingBlock: BEQFEK_clean_sbu_0, # of connection points: 5
#     Node 2, Type 0, BuildingBlock: BEQFEK_clean_sbu_0, # of connection points: 5
#     Node 3, Type 0, BuildingBlock: BEQFEK_clean_sbu_0, # of connection points: 5
#     Node 4, Type 0, BuildingBlock: BEQFEK_clean_sbu_0, # of connection points: 5
#     Node 5, Type 0, BuildingBlock: BEQFEK_clean_sbu_0, # of connection points: 5
#     Node 6, Type 0, BuildingBlock: BEQFEK_clean_sbu_0, # of connection points: 5
#     Node 7, Type 0, BuildingBlock: BEQFEK_clean_sbu_0, # of connection points: 5
#     Node 8, Type 0, BuildingBlock: BEQFEK_clean_sbu_0, # of connection points: 5
#     Node 9, Type 0, BuildingBlock: BEQFEK_clean_sbu_0, # of connection points: 5
#     Node 10, Type 0, BuildingBlock: BEQFEK_clean_sbu_0, # of connection points: 5
#     Node 11, Type 0, BuildingBlock: BEQFEK_clean_sbu_0, # of connection points: 5
#     Node 12, Type 0, BuildingBlock: BEQFEK_clean_sbu_0, # of connection points: 5
#     Node 13, Type 0, BuildingBlock: BEQFEK_clean_sbu_0, # of connection points: 5
#     Node 14, Type 0, BuildingBlock: BEQFEK_clean_sbu_0, # of connection points: 5
#     Node 15, Type 0, BuildingBlock: BEQFEK_clean_sbu_0, # of connection points: 5
#     Node 16, Type 0, BuildingBlock: BEQFEK_clean_sbu_0, # of connection points: 5
#     Node 17, Type 0, BuildingBlock: BEQFEK_clean_sbu_0, # of connection points: 5
#     Node 18, Type 0, BuildingBlock: BEQFEK_clean_sbu_0, # of connection points: 5
#     Node 19, Type 0, BuildingBlock: BEQFEK_clean_sbu_0, # of connection points: 5
#     Node 20, Type 0, BuildingBlock: BEQFEK_clean_sbu_0, # of connection points: 5
#     Node 21, Type 0, BuildingBlock: BEQFEK_clean_sbu_0, # of connection points: 5
#     Node 22, Type 0, BuildingBlock: BEQFEK_clean_sbu_0, # of connection points: 5
#     Node 23, Type 0, BuildingBlock: BEQFEK_clean_sbu_0, # of connection points: 5
#     Edge 24, Type (0, 0), BuildingBlock: XUDNAN_clean_linker_2, # of connection points: 2
#     Edge 25, Type (0, 0), BuildingBlock: XUDNAN_clean_linker_2, # of connection points: 2
#     Edge 26, Type (0, 0), BuildingBlock: XUDNAN_clean_linker_2, # of connection points: 2
#     Edge 27, Type (0, 0), BuildingBlock: XUDNAN_clean_linker_2, # of connection points: 2
#     Edge 28, Type (0, 0), BuildingBlock: XUDNAN_clean_linker_2, # of connection points: 2
#     Edge 29, Type (0, 0), BuildingBlock: XUDNAN_clean_linker_2, # of connection points: 2
#     Edge 30, Type (0, 0), BuildingBlock: XUDNAN_clean_linker_2, # of connection points: 2
#     Edge 31, Type (0, 0), BuildingBlock: XUDNAN_clean_linker_2, # of connection points: 2
#     Edge 32, Type (0, 0), BuildingBlock: XUDNAN_clean_linker_2, # of connection points: 2
#     Edge 33, Type (0, 0), BuildingBlock: XUDNAN_clean_linker_2, # of connection points: 2
#     Edge 34, Type (0, 0), BuildingBlock: XUDNAN_clean_linker_2, # of connection points: 2
#     Edge 35, Type (0, 0), BuildingBlock: XUDNAN_clean_linker_2, # of connection points: 2
#     Edge 36, Type (0, 0), BuildingBlock: XUDNAN_clean_linker_2, # of connection points: 2
#     Edge 37, Type (0, 0), BuildingBlock: XUDNAN_clean_linker_2, # of connection points: 2
#     Edge 38, Type (0, 0), BuildingBlock: XUDNAN_clean_linker_2, # of connection points: 2
#     Edge 39, Type (0, 0), BuildingBlock: XUDNAN_clean_linker_2, # of connection points: 2
#     Edge 40, Type (0, 0), BuildingBlock: XUDNAN_clean_linker_2, # of connection points: 2
#     Edge 41, Type (0, 0), BuildingBlock: XUDNAN_clean_linker_2, # of connection points: 2
#     Edge 42, Type (0, 0), BuildingBlock: XUDNAN_clean_linker_2, # of connection points: 2
#     Edge 43, Type (0, 0), BuildingBlock: XUDNAN_clean_linker_2, # of connection points: 2
#     Edge 44, Type (0, 0), BuildingBlock: XUDNAN_clean_linker_2, # of connection points: 2
#     Edge 45, Type (0, 0), BuildingBlock: XUDNAN_clean_linker_2, # of connection points: 2
#     Edge 46, Type (0, 0), BuildingBlock: XUDNAN_clean_linker_2, # of connection points: 2
#     Edge 47, Type (0, 0), BuildingBlock: XUDNAN_clean_linker_2, # of connection points: 2
#     Edge 48, Type (0, 0), BuildingBlock: XUDNAN_clean_linker_2, # of connection points: 2
#     Edge 49, Type (0, 0), BuildingBlock: XUDNAN_clean_linker_2, # of connection points: 2
#     Edge 50, Type (0, 0), BuildingBlock: XUDNAN_clean_linker_2, # of connection points: 2
#     Edge 51, Type (0, 0), BuildingBlock: XUDNAN_clean_linker_2, # of connection points: 2
#     Edge 52, Type (0, 0), BuildingBlock: XUDNAN_clean_linker_2, # of connection points: 2
#     Edge 53, Type (0, 0), BuildingBlock: XUDNAN_clean_linker_2, # of connection points: 2
#     Edge 54, Type (0, 0), BuildingBlock: XUDNAN_clean_linker_2, # of connection points: 2
#     Edge 55, Type (0, 0), BuildingBlock: XUDNAN_clean_linker_2, # of connection points: 2
#     Edge 56, Type (0, 0), BuildingBlock: XUDNAN_clean_linker_2, # of connection points: 2
#     Edge 57, Type (0, 0), BuildingBlock: XUDNAN_clean_linker_2, # of connection points: 2
#     Edge 58, Type (0, 0), BuildingBlock: XUDNAN_clean_linker_2, # of connection points: 2
#     Edge 59, Type (0, 0), BuildingBlock: XUDNAN_clean_linker_2, # of connection points: 2
#     Edge 60, Type (0, 0), BuildingBlock: XUDNAN_clean_linker_2, # of connection points: 2
#     Edge 61, Type (0, 0), BuildingBlock: XUDNAN_clean_linker_2, # of connection points: 2
#     Edge 62, Type (0, 0), BuildingBlock: XUDNAN_clean_linker_2, # of connection points: 2
#     Edge 63, Type (0, 0), BuildingBlock: XUDNAN_clean_linker_2, # of connection points: 2
#     Edge 64, Type (0, 0), BuildingBlock: XUDNAN_clean_linker_2, # of connection points: 2
#     Edge 65, Type (0, 0), BuildingBlock: XUDNAN_clean_linker_2, # of connection points: 2
#     Edge 66, Type (0, 0), BuildingBlock: XUDNAN_clean_linker_2, # of connection points: 2
#     Edge 67, Type (0, 0), BuildingBlock: XUDNAN_clean_linker_2, # of connection points: 2
#     Edge 68, Type (0, 0), BuildingBlock: XUDNAN_clean_linker_2, # of connection points: 2
#     Edge 69, Type (0, 0), BuildingBlock: XUDNAN_clean_linker_2, # of connection points: 2
#     Edge 70, Type (0, 0), BuildingBlock: XUDNAN_clean_linker_2, # of connection points: 2
#     Edge 71, Type (0, 0), BuildingBlock: XUDNAN_clean_linker_2, # of connection points: 2
#     Edge 72, Type (0, 0), BuildingBlock: XUDNAN_clean_linker_2, # of connection points: 2
#     Edge 73, Type (0, 0), BuildingBlock: XUDNAN_clean_linker_2, # of connection points: 2
#     Edge 74, Type (0, 0), BuildingBlock: XUDNAN_clean_linker_2, # of connection points: 2
#     Edge 75, Type (0, 0), BuildingBlock: XUDNAN_clean_linker_2, # of connection points: 2
#     Edge 76, Type (0, 0), BuildingBlock: XUDNAN_clean_linker_2, # of connection points: 2
#     Edge 77, Type (0, 0), BuildingBlock: XUDNAN_clean_linker_2, # of connection points: 2
#     Edge 78, Type (0, 0), BuildingBlock: XUDNAN_clean_linker_2, # of connection points: 2
#     Edge 79, Type (0, 0), BuildingBlock: XUDNAN_clean_linker_2, # of connection points: 2
#     Edge 80, Type (0, 0), BuildingBlock: XUDNAN_clean_linker_2, # of connection points: 2
#     Edge 81, Type (0, 0), BuildingBlock: XUDNAN_clean_linker_2, # of connection points: 2
#     Edge 82, Type (0, 0), BuildingBlock: XUDNAN_clean_linker_2, # of connection points: 2
#     Edge 83, Type (0, 0), BuildingBlock: XUDNAN_clean_linker_2, # of connection points: 2
# Relax obj value: 0.323
# Max RMSD: 0.218
# Mean RMSD: 0.218
data_MOF--net-fcj--node1-BEQFEK_clean_sbu_0--edge1-XUDNAN_clean_linker_2
_symmetry_space_group_name_H-M    P1
_symmetry_Int_Tables_number       1
_symmetry_cell_setting            triclinic
loop_
_symmetry_equiv_pos_as_xyz
'x, y, z'
_cell_length_a     52.220566
_cell_length_b     52.215699
_cell_length_c     52.232346
_cell_angle_alpha  89.959094
_cell_angle_beta   89.968486
_cell_angle_gamma 90.008012
loop_
_atom_site_label
_atom_site_type_symbol
_atom_site_fract_x
_atom_site_fract_y
_atom_site_fract_z
_atom_type_partial_charge
Co0 Co 0.09671 0.17639 0.32484 0.0
Co1 Co 0.06337 0.22277 0.34333 0.0
C2 C 0.04049 0.17343 0.32251 0.0
O3 O 0.06198 0.16225 0.31952 0.0
O4 O 0.03914 0.19622 0.33105 0.0
C5 C 0.13113 0.14747 0.29481 0.0
O6 O 0.11864 0.15902 0.27627 0.0
C7 C 0.02284 0.24388 0.37485 0.0
C8 C 0.02848 0.28562 0.37107 0.0
C9 C 0.01262 0.26734 0.3821 0.0
N10 N 0.04345 0.24817 0.36007 0.0
N11 N 0.04684 0.27315 0.35794 0.0
C12 C 0.01435 0.21768 0.38279 0.0
H13 H 0.00018 0.21038 0.36875 0.0
H14 H 0.03091 0.20436 0.38294 0.0
H15 H 0.00537 0.21813 0.40205 0.0
C16 C 0.11775 0.18205 0.37674 0.0
N17 N 0.10077 0.18861 0.35856 0.0
N18 N 0.0877 0.20871 0.36621 0.0
C19 C 0.09629 0.21591 0.38947 0.0
C20 C 0.11544 0.19907 0.39702 0.0
C21 C 0.13793 0.16198 0.3731 0.0
H22 H 0.15065 0.16773 0.35706 0.0
H23 H 0.1287 0.14358 0.36784 0.0
H24 H 0.1498 0.15911 0.39043 0.0
O25 O 0.10263 0.20449 0.29982 0.0
O26 O 0.08031 0.23813 0.31298 0.0
H27 H 0.08885 0.25616 0.39079 0.0
H28 H 0.09845 0.24247 0.42125 0.0
C29 C 0.08728 0.23919 0.40348 0.0
H30 H 0.06681 0.23676 0.40859 0.0
H31 H 0.06146 0.28165 0.34729 0.0
O32 O 0.12362 0.15054 0.31772 0.0
C33 C 0.09547 0.22762 0.29702 0.0
Co34 Co 0.58636 0.35443 0.07991 0.0
Co35 Co 0.53977 0.31848 0.09191 0.0
C36 C 0.59206 0.29916 0.07426 0.0
O37 O 0.60289 0.32101 0.07459 0.0
O38 O 0.56844 0.29633 0.07976 0.0
C39 C 0.63266 0.38968 0.07779 0.0
O40 O 0.64759 0.37373 0.09025 0.0
C41 C 0.51636 0.27798 0.12288 0.0
C42 C 0.47744 0.27598 0.10645 0.0
C43 C 0.49348 0.26461 0.12426 0.0
N44 N 0.51393 0.29643 0.10508 0.0
N45 N 0.49054 0.29529 0.0955 0.0
C46 C 0.54079 0.27196 0.13654 0.0
H47 H 0.55682 0.2836 0.12883 0.0
H48 H 0.53855 0.27622 0.15721 0.0
H49 H 0.54522 0.25125 0.13464 0.0
C50 C 0.57478 0.37303 0.13168 0.0
N51 N 0.57098 0.35642 0.11242 0.0
N52 N 0.55057 0.34246 0.1173 0.0
C53 C 0.54032 0.35029 0.13971 0.0
C54 C 0.5556 0.36963 0.14973 0.0
C55 C 0.59427 0.39407 0.13089 0.0
H56 H 0.61362 0.38555 0.12909 0.0
H57 H 0.59373 0.40635 0.14816 0.0
H58 H 0.59075 0.40627 0.11386 0.0
O59 O 0.56013 0.35977 0.0533 0.0
O60 O 0.52572 0.33634 0.06153 0.0
H61 H 0.5012 0.33895 0.13465 0.0
H62 H 0.50796 0.35374 0.16538 0.0
C63 C 0.51545 0.3408 0.15029 0.0
H64 H 0.51841 0.32156 0.15877 0.0
H65 H 0.4838 0.30716 0.08091 0.0
O66 O 0.60949 0.38377 0.07337 0.0
C67 C 0.53755 0.35259 0.04777 0.0
Co68 Co 0.39651 0.81553 0.81295 0.0
Co69 Co 0.43896 0.78107 0.83851 0.0
C70 C 0.45214 0.82953 0.81078 0.0
O71 O 0.4288 0.83381 0.80499 0.0
O72 O 0.45875 0.81024 0.8242 0.0
C73 C 0.3537 0.83243 0.78238 0.0
O74 O 0.36177 0.81492 0.76624 0.0
C75 C 0.48425 0.76428 0.8676 0.0
C76 C 0.474 0.72414 0.87627 0.0
C77 C 0.49324 0.74215 0.87926 0.0
N78 N 0.46083 0.75946 0.85806 0.0
N79 N 0.45482 0.73546 0.86335 0.0
C80 C 0.49705 0.78988 0.86638 0.0
H81 H 0.50638 0.79211 0.84741 0.0
H82 H 0.48259 0.8053 0.8685 0.0
H83 H 0.51175 0.79183 0.88159 0.0
C84 C 0.37617 0.81414 0.86534 0.0
N85 N 0.39409 0.80765 0.84806 0.0
N86 N 0.41143 0.79308 0.85908 0.0
C87 C 0.4051 0.78996 0.88397 0.0
C88 C 0.38239 0.80299 0.8886 0.0
C89 C 0.35414 0.83165 0.85978 0.0
H90 H 0.34056 0.82188 0.84669 0.0
H91 H 0.3613 0.84911 0.85002 0.0
H92 H 0.34388 0.83748 0.87743 0.0
O93 O 0.39591 0.78403 0.79257 0.0
O94 O 0.42672 0.75997 0.80916 0.0
H95 H 0.41895 0.75372 0.89676 0.0
H96 H 0.41232 0.77588 0.92233 0.0
C97 C 0.41997 0.7741 0.9026 0.0
H98 H 0.44036 0.78004 0.90231 0.0
H99 H 0.4377 0.72672 0.85788 0.0
O100 O 0.36631 0.8365 0.8028 0.0
C101 C 0.40925 0.76368 0.79258 0.0
Co102 Co 0.91111 0.6531 0.57998 0.0
Co103 Co 0.95801 0.68664 0.59683 0.0
C104 C 0.91313 0.70795 0.56667 0.0
O105 O 0.90049 0.68705 0.56667 0.0
O106 O 0.935 0.70959 0.5773 0.0
C107 C 0.88257 0.61872 0.55071 0.0
O108 O 0.89512 0.63094 0.53263 0.0
C109 C 0.97924 0.73093 0.62266 0.0
C110 C 0.02062 0.72229 0.62373 0.0
C111 C 0.00276 0.74098 0.62995 0.0
N112 N 0.98316 0.7077 0.61239 0.0
N113 N 0.00789 0.70252 0.61319 0.0
C114 C 0.9532 0.74229 0.62631 0.0
H115 H 0.93869 0.72685 0.62818 0.0
H116 H 0.9527 0.75468 0.64355 0.0
H117 H 0.94821 0.75395 0.60926 0.0
C118 C 0.91092 0.64075 0.63478 0.0
N119 N 0.91958 0.65462 0.61492 0.0
N120 N 0.93993 0.66762 0.62208 0.0
C121 C 0.94504 0.6621 0.64678 0.0
C122 C 0.92669 0.64504 0.65566 0.0
C123 C 0.89007 0.62118 0.63278 0.0
H124 H 0.89701 0.60479 0.62118 0.0
H125 H 0.8733 0.62964 0.62287 0.0
H126 H 0.88415 0.61409 0.65193 0.0
O127 O 0.94122 0.64077 0.56061 0.0
O128 O 0.97511 0.66383 0.57191 0.0
H129 H 0.98576 0.66576 0.64911 0.0
H130 H 0.97004 0.66172 0.67984 0.0
C131 C 0.96859 0.67068 0.66062 0.0
H132 H 0.96808 0.6918 0.66279 0.0
H133 H 0.0161 0.68572 0.60616 0.0
O134 O 0.88476 0.62643 0.57368 0.0
C135 C 0.96491 0.64605 0.55878 0.0
Co136 Co 0.60827 0.30902 0.6786 0.0
Co137 Co 0.56555 0.27325 0.65615 0.0
C138 C 0.55302 0.32426 0.679 0.0
O139 O 0.57637 0.32858 0.68464 0.0
O140 O 0.54619 0.30399 0.66731 0.0
C141 C 0.64161 0.34667 0.70357 0.0
O142 O 0.6236 0.34918 0.72095 0.0
C143 C 0.52232 0.25729 0.62439 0.0
C144 C 0.52755 0.21533 0.6229 0.0
C145 C 0.51194 0.23503 0.61436 0.0
N146 N 0.54307 0.25101 0.63825 0.0
N147 N 0.54608 0.22591 0.63733 0.0
C148 C 0.51395 0.28425 0.6195 0.0
H149 H 0.53081 0.29719 0.61916 0.0
H150 H 0.50345 0.28577 0.60109 0.0
H151 H 0.50111 0.29047 0.63525 0.0
C152 C 0.6287 0.30241 0.62655 0.0
N153 N 0.61067 0.29777 0.64434 0.0
N154 N 0.59331 0.28232 0.63469 0.0
C155 C 0.59997 0.27644 0.61037 0.0
C156 C 0.62249 0.28918 0.60451 0.0
C157 C 0.65207 0.3184 0.63096 0.0
H158 H 0.66299 0.31039 0.64733 0.0
H159 H 0.64612 0.33819 0.63586 0.0
H160 H 0.66476 0.31902 0.61394 0.0
O161 O 0.60847 0.27982 0.70293 0.0
O162 O 0.57733 0.25516 0.68767 0.0
H163 H 0.58373 0.2398 0.6022 0.0
H164 H 0.59452 0.25712 0.57417 0.0
C165 C 0.5852 0.25898 0.59318 0.0
H166 H 0.56554 0.26657 0.59063 0.0
H167 H 0.56088 0.21604 0.64642 0.0
O168 O 0.63845 0.33102 0.68526 0.0
C169 C 0.59439 0.25992 0.70447 0.0
Co170 Co 0.41961 0.85365 0.41928 0.0
Co171 Co 0.46223 0.81604 0.39984 0.0
C172 C 0.41396 0.7972 0.425 0.0
O173 O 0.40559 0.81984 0.42863 0.0
O174 O 0.43516 0.793 0.41367 0.0
C175 C 0.37231 0.8858 0.42608 0.0
O176 O 0.35792 0.86883 0.41437 0.0
C177 C 0.48428 0.77505 0.36837 0.0
C178 C 0.52547 0.77916 0.37709 0.0
C179 C 0.50805 0.76425 0.36384 0.0
N180 N 0.4875 0.79552 0.38363 0.0
N181 N 0.51221 0.79805 0.3885 0.0
C182 C 0.45878 0.76478 0.36042 0.0
H183 H 0.44369 0.77954 0.36292 0.0
H184 H 0.45942 0.75844 0.34016 0.0
H185 H 0.45403 0.74789 0.37242 0.0
C186 C 0.424 0.87253 0.3664 0.0
N187 N 0.42979 0.85539 0.38469 0.0
N188 N 0.44834 0.84041 0.37646 0.0
C189 C 0.45496 0.8477 0.35253 0.0
C190 C 0.43976 0.86833 0.3455 0.0
C191 C 0.40457 0.89339 0.36945 0.0
H192 H 0.41043 0.90626 0.38529 0.0
H193 H 0.38586 0.88474 0.37443 0.0
H194 H 0.40216 0.90477 0.35168 0.0
O195 O 0.44936 0.86083 0.44071 0.0
O196 O 0.47975 0.83357 0.42899 0.0
H197 H 0.49429 0.83652 0.34998 0.0
H198 H 0.48076 0.84788 0.32009 0.0
C199 C 0.47691 0.83674 0.33778 0.0
H200 H 0.47241 0.81667 0.33251 0.0
H201 H 0.51992 0.81216 0.40036 0.0
O202 O 0.39617 0.88185 0.4287 0.0
C203 C 0.47172 0.85168 0.44313 0.0
Co204 Co 0.90676 0.6671 0.18027 0.0
Co205 Co 0.94517 0.70746 0.15729 0.0
C206 C 0.96288 0.66348 0.18983 0.0
O207 O 0.94009 0.65555 0.19349 0.0
O208 O 0.96774 0.68273 0.1756 0.0
C209 C 0.86909 0.64308 0.21127 0.0
O210 O 0.87922 0.65803 0.22878 0.0
C211 C 0.98821 0.72624 0.12639 0.0
C212 C 0.97877 0.76731 0.12271 0.0
C213 C 0.99704 0.74919 0.1161 0.0
N214 N 0.96598 0.73078 0.13856 0.0
N215 N 0.96042 0.75534 0.13624 0.0
C216 C -0.00037 0.70012 0.12371 0.0
H217 H 0.01312 0.69672 0.13977 0.0
H218 H 0.98438 0.68533 0.12469 0.0
H219 H 0.01021 0.69836 0.10536 0.0
C220 C 0.89149 0.66357 0.12669 0.0
N221 N 0.90762 0.67223 0.14469 0.0
N222 N 0.92215 0.69032 0.13488 0.0
C223 C 0.9152 0.69417 0.11027 0.0
C224 C 0.89534 0.67745 0.10438 0.0
C225 C 0.87153 0.64349 0.13139 0.0
H226 H 0.88001 0.62741 0.14238 0.0
H227 H 0.86363 0.63597 0.11317 0.0
H228 H 0.85573 0.65184 0.1429 0.0
O229 O 0.89766 0.69942 0.19729 0.0
O230 O 0.92616 0.72785 0.18334 0.0
H231 H 0.92237 0.73402 0.10427 0.0
H232 H 0.9151 0.71654 0.07528 0.0
C233 C 0.92504 0.71562 0.09402 0.0
H234 H 0.94586 0.71295 0.09076 0.0
H235 H 0.94414 0.76395 0.14401 0.0
O236 O 0.87899 0.64263 0.18906 0.0
C237 C 0.90716 0.72181 0.19736 0.0
Co238 Co 0.07463 0.14886 0.94063 0.0
Co239 Co 0.03494 0.18584 0.91464 0.0
C240 C 0.08624 0.20389 0.93474 0.0
O241 O 0.09351 0.18163 0.94158 0.0
O242 O 0.06436 0.20792 0.92473 0.0
C243 C 0.11975 0.11693 0.95217 0.0
O244 O 0.13398 0.13488 0.94172 0.0
C245 C 0.01648 0.22517 0.87883 0.0
C246 C 0.97473 0.22322 0.88551 0.0
C247 C 0.99345 0.23668 0.8724 0.0
N248 N 0.01155 0.2058 0.89509 0.0
N249 N 0.98653 0.2045 0.89868 0.0
C250 C 0.04282 0.23413 0.8721 0.0
H251 H 0.05655 0.21794 0.87317 0.0
H252 H 0.04316 0.24269 0.85266 0.0
H253 H 0.04882 0.24901 0.88601 0.0
C254 C 0.06956 0.12274 0.89081 0.0
N255 N 0.06328 0.14175 0.90697 0.0
N256 N 0.0458 0.15636 0.89624 0.0
C257 C 0.03979 0.14658 0.87308 0.0
C258 C 0.05457 0.12477 0.86893 0.0
C259 C 0.0914 0.10468 0.8953 0.0
H260 H 0.10825 0.11573 0.90182 0.0
H261 H 0.09706 0.09423 0.87774 0.0
H262 H 0.08609 0.09076 0.91046 0.0
O263 O 0.04535 0.1507 0.96487 0.0
O264 O 0.01687 0.1762 0.9464 0.0
H265 H 0.01395 0.14357 0.84081 0.0
H266 H 0.02688 0.17514 0.84685 0.0
C267 C 0.01955 0.15737 0.85593 0.0
H268 H 0.00242 0.16246 0.8674 0.0
H269 H 0.97762 0.19152 0.911 0.0
O270 O 0.09563 0.11986 0.95337 0.0
C271 C 0.0238 0.16211 0.965 0.0
Co272 Co 0.32249 0.10622 0.17607 0.0
Co273 Co 0.34722 0.06858 0.21567 0.0
C274 C 0.32294 0.05021 0.1667 0.0
O275 O 0.31747 0.07282 0.1594 0.0
O276 O 0.33448 0.04596 0.18774 0.0
C277 C 0.31615 0.13826 0.13032 0.0
O278 O 0.33147 0.12247 0.11813 0.0
C279 C 0.38049 0.02688 0.23242 0.0
C280 C 0.38194 0.03268 0.27425 0.0
C281 C 0.39024 0.01649 0.25489 0.0
N282 N 0.36689 0.04791 0.23834 0.0
N283 N 0.36796 0.05139 0.26336 0.0
C284 C 0.38494 0.01802 0.20554 0.0
H285 H 0.36954 0.00445 0.20007 0.0
H286 H 0.38428 0.03453 0.19217 0.0
H287 H 0.40372 0.00822 0.20381 0.0
C288 C 0.37354 0.13022 0.17986 0.0
N289 N 0.35669 0.11185 0.18634 0.0
N290 N 0.36767 0.09582 0.20239 0.0
C291 C 0.39223 0.10318 0.20605 0.0
C292 C 0.39675 0.12508 0.19161 0.0
C293 C 0.3671 0.15355 0.16444 0.0
H294 H 0.34756 0.16027 0.16921 0.0
H295 H 0.36809 0.14881 0.14378 0.0
H296 H 0.38071 0.16941 0.16829 0.0
O297 O 0.29973 0.10721 0.20551 0.0
O298 O 0.31645 0.08168 0.23502 0.0
H299 H 0.40391 0.08819 0.24227 0.0
H300 H 0.4302 0.09832 0.22202 0.0
C301 C 0.41109 0.08904 0.2223 0.0
H302 H 0.41295 0.06913 0.21521 0.0
H303 H 0.35881 0.0663 0.27301 0.0
O304 O 0.31044 0.13399 0.15357 0.0
C305 C 0.29886 0.09691 0.22752 0.0
Co306 Co 0.65122 0.56601 0.93379 0.0
Co307 Co 0.69292 0.59621 0.9648 0.0
C308 C 0.70729 0.56589 0.91914 0.0
O309 O 0.68421 0.55846 0.91616 0.0
O310 O 0.71348 0.58153 0.93675 0.0
C311 C 0.62029 0.55648 0.88894 0.0
O312 O 0.63817 0.56937 0.87677 0.0
C313 C 0.73904 0.6214 0.98569 0.0
C314 C 0.72191 0.6473 0.0144 0.0
C315 C 0.7451 0.64023 0.00357 0.0
N316 N 0.71344 0.61838 0.98542 0.0
N317 N 0.70342 0.63357 0.00297 0.0
C318 C 0.75708 0.6041 0.97164 0.0
H319 H 0.7484 0.5849 0.9692 0.0
H320 H 0.7611 0.61226 0.95243 0.0
H321 H 0.77534 0.60178 0.98221 0.0
C322 C 0.6274 0.6175 0.93259 0.0
N323 N 0.6464 0.60153 0.93962 0.0
N324 N 0.66472 0.61481 0.95073 0.0
C325 C 0.6586 0.63996 0.94951 0.0
C326 C 0.63457 0.64234 0.93851 0.0
C327 C 0.60342 0.60929 0.91916 0.0
H328 H 0.59665 0.59076 0.92699 0.0
H329 H 0.60754 0.60708 0.89847 0.0
H330 H 0.58787 0.62356 0.92106 0.0
O331 O 0.6512 0.54732 0.96626 0.0
O332 O 0.68189 0.56734 0.98778 0.0
H333 H 0.6711 0.66685 0.97766 0.0
H334 H 0.67251 0.67872 0.94564 0.0
C335 C 0.67568 0.66149 0.95764 0.0
H336 H 0.69607 0.65579 0.95621 0.0
H337 H 0.68393 0.63435 0.00732 0.0
O338 O 0.62267 0.55246 0.91283 0.0
C339 C 0.66519 0.54959 0.98605 0.0
Co340 Co 0.17365 0.90906 0.66294 0.0
Co341 Co 0.14976 0.94107 0.70845 0.0
C342 C 0.1784 0.96542 0.66379 0.0
O343 O 0.18183 0.94435 0.65194 0.0
O344 O 0.16683 0.96629 0.68529 0.0
C345 C 0.206 0.87364 0.63741 0.0
O346 O 0.22333 0.8841 0.65233 0.0
C347 C 0.12385 0.9832 0.73682 0.0
C348 C 0.10534 0.96145 0.76803 0.0
C349 C 0.10746 0.98585 0.75776 0.0
N350 N 0.1301 0.95827 0.7344 0.0
N351 N 0.11938 0.94555 0.75347 0.0
C352 C 0.13602 0.00406 0.72135 0.0
H353 H 0.15616 0.99904 0.71713 0.0
H354 H 0.12558 0.00627 0.70299 0.0
H355 H 0.13615 0.02253 0.73179 0.0
C356 C 0.12141 0.88931 0.66032 0.0
N357 N 0.13866 0.90552 0.67036 0.0
N358 N 0.12798 0.91867 0.68904 0.0
C359 C 0.10317 0.91136 0.69098 0.0
C360 C 0.09845 0.89235 0.67309 0.0
C361 C 0.12719 0.87033 0.63963 0.0
H362 H 0.13632 0.8803 0.62324 0.0
H363 H 0.10961 0.86052 0.63282 0.0
H364 H 0.14083 0.85581 0.64703 0.0
O365 O 0.19403 0.9007 0.69341 0.0
O366 O 0.1774 0.92159 0.72636 0.0
H367 H 0.08785 0.91152 0.72884 0.0
H368 H 0.06448 0.91714 0.70429 0.0
C369 C 0.08446 0.92121 0.71027 0.0
H370 H 0.08684 0.94216 0.71268 0.0
H371 H 0.12155 0.9259 0.75644 0.0
O372 O 0.18356 0.88302 0.63704 0.0
C373 C 0.19399 0.9063 0.71706 0.0
Co374 Co 0.83808 0.42877 0.42735 0.0
Co375 Co 0.80645 0.40237 0.47112 0.0
C376 C 0.78219 0.42381 0.42257 0.0
O377 O 0.8035 0.42981 0.41227 0.0
O378 O 0.78115 0.41377 0.44482 0.0
C379 C 0.86724 0.44038 0.37965 0.0
O380 O 0.84929 0.42937 0.36589 0.0
C381 C 0.7683 0.36675 0.49196 0.0
C382 C 0.78301 0.35983 0.53102 0.0
C383 C 0.7638 0.35297 0.51412 0.0
N384 N 0.78945 0.38102 0.49541 0.0
N385 N 0.79802 0.37696 0.51888 0.0
C386 C 0.75354 0.36543 0.46747 0.0
H387 H 0.74171 0.38297 0.46556 0.0
H388 H 0.76699 0.36474 0.45102 0.0
H389 H 0.74078 0.34843 0.46705 0.0
C390 C 0.86645 0.38003 0.43023 0.0
N391 N 0.84714 0.39535 0.43774 0.0
N392 N 0.83417 0.38397 0.4561 0.0
C393 C 0.84487 0.36084 0.46076 0.0
C394 C 0.86581 0.35781 0.44468 0.0
C395 C 0.88458 0.38614 0.40885 0.0
H396 H 0.8959 0.4034 0.41385 0.0
H397 H 0.8734 0.39017 0.39131 0.0
H398 H 0.89781 0.37012 0.4046 0.0
O399 O 0.83891 0.45249 0.45681 0.0
O400 O 0.81887 0.4336 0.48917 0.0
H401 H 0.83886 0.35154 0.50007 0.0
H402 H 0.84698 0.32437 0.48045 0.0
C403 C 0.8361 0.3426 0.48103 0.0
H404 H 0.81542 0.33852 0.47849 0.0
H405 H 0.81436 0.3856 0.52648 0.0
O406 O 0.86469 0.44191 0.4038 0.0
C407 C 0.83123 0.45253 0.47994 0.0
Co408 Co 0.82446 0.39432 0.81675 0.0
Co409 Co 0.85162 0.43515 0.78194 0.0
C410 C 0.82367 0.44853 0.83144 0.0
O411 O 0.8184 0.42536 0.8371 0.0
O412 O 0.83603 0.45441 0.81117 0.0
C413 C 0.80874 0.35391 0.855 0.0
O414 O 0.81619 0.36758 0.87473 0.0
C415 C 0.88199 0.4807 0.76894 0.0
C416 C 0.88988 0.4742 0.72793 0.0
C417 C 0.89306 0.4919 0.74746 0.0
N418 N 0.87239 0.45778 0.76221 0.0
N419 N 0.87743 0.45389 0.73775 0.0
C420 C 0.88127 0.4909 0.79568 0.0
H421 H 0.8823 0.47487 0.80961 0.0
H422 H 0.89739 0.50431 0.79913 0.0
H423 H 0.86292 0.50116 0.7987 0.0
C424 C 0.87598 0.37157 0.81526 0.0
N425 N 0.85933 0.38989 0.80826 0.0
N426 N 0.87125 0.40702 0.79414 0.0
C427 C 0.89618 0.40032 0.79215 0.0
C428 C 0.89997 0.3777 0.80567 0.0
C429 C 0.8687 0.34795 0.82987 0.0
H430 H 0.85145 0.33924 0.82114 0.0
H431 H 0.86422 0.35323 0.84994 0.0
H432 H 0.88415 0.33338 0.82977 0.0
O433 O 0.80331 0.39801 0.7864 0.0
O434 O 0.82288 0.42391 0.75904 0.0
H435 H 0.91203 0.41625 0.758 0.0
H436 H 0.93562 0.4083 0.78209 0.0
C437 C 0.91609 0.41603 0.77884 0.0
H438 H 0.91517 0.43606 0.78585 0.0
H439 H 0.87172 0.43767 0.72758 0.0
O440 O 0.81093 0.36281 0.83248 0.0
C441 C 0.80416 0.40948 0.76503 0.0
Co442 Co 0.35016 0.07253 0.56095 0.0
Co443 Co 0.31131 0.09939 0.52367 0.0
C444 C 0.29479 0.0772 0.57408 0.0
O445 O 0.31754 0.07091 0.58024 0.0
O446 O 0.2896 0.08779 0.55272 0.0
C447 C 0.3815 0.06369 0.60644 0.0
O448 O 0.36344 0.07564 0.61924 0.0
C449 C 0.27005 0.13306 0.50521 0.0
C450 C 0.28357 0.14198 0.46609 0.0
C451 C 0.26433 0.1472 0.48353 0.0
N452 N 0.29196 0.12025 0.50091 0.0
N453 N 0.29978 0.12545 0.4774 0.0
C454 C 0.25588 0.13286 0.5301 0.0
H455 H 0.2461 0.11413 0.53237 0.0
H456 H 0.26965 0.13499 0.54614 0.0
H457 H 0.24144 0.14842 0.53096 0.0
C458 C 0.37643 0.1223 0.55562 0.0
N459 N 0.357 0.10632 0.55006 0.0
N460 N 0.34046 0.11817 0.5352 0.0
C461 C 0.34869 0.14242 0.53129 0.0
C462 C 0.37187 0.14564 0.54382 0.0
C463 C 0.39784 0.11592 0.57362 0.0
H464 H 0.40712 0.09782 0.56757 0.0
H465 H 0.38984 0.11333 0.59309 0.0
H466 H 0.41251 0.13117 0.57471 0.0
O467 O 0.34815 0.04913 0.53122 0.0
O468 O 0.32136 0.06826 0.50432 0.0
H469 H 0.33593 0.15684 0.49528 0.0
H470 H 0.34332 0.18142 0.51816 0.0
C471 C 0.33481 0.16211 0.5158 0.0
H472 H 0.31438 0.16266 0.52154 0.0
H473 H 0.31648 0.11809 0.46927 0.0
O474 O 0.37886 0.06015 0.5825 0.0
C475 C 0.33602 0.04964 0.51008 0.0
Co476 Co 0.67661 0.59291 0.32696 0.0
Co477 Co 0.65174 0.56026 0.2833 0.0
C478 C 0.67094 0.53686 0.33251 0.0
O479 O 0.67626 0.55846 0.34247 0.0
O480 O 0.66246 0.53486 0.30973 0.0
C481 C 0.68303 0.62316 0.37432 0.0
O482 O 0.66531 0.60905 0.38529 0.0
C483 C 0.6178 0.52169 0.26044 0.0
C484 C 0.61044 0.53822 0.22218 0.0
C485 C 0.60429 0.51779 0.23794 0.0
N486 N 0.63125 0.54353 0.25814 0.0
N487 N 0.62689 0.55323 0.23517 0.0
C488 C 0.61633 0.50617 0.28449 0.0
H489 H 0.61526 0.5191 0.3013 0.0
H490 H 0.59944 0.49328 0.28443 0.0
H491 H 0.63398 0.49447 0.28627 0.0
C492 C 0.62829 0.62175 0.32153 0.0
N493 N 0.64389 0.60232 0.31505 0.0
N494 N 0.63241 0.58774 0.29803 0.0
C495 C 0.60854 0.59696 0.29397 0.0
C496 C 0.60517 0.61874 0.30887 0.0
C497 C 0.6362 0.64427 0.33744 0.0
H498 H 0.65661 0.64888 0.33396 0.0
H499 H 0.6334 0.63969 0.35797 0.0
H500 H 0.62462 0.66147 0.33278 0.0
O501 O 0.70128 0.59348 0.29877 0.0
O502 O 0.68364 0.57305 0.26606 0.0
H503 H 0.59379 0.58836 0.25687 0.0
H504 H 0.56946 0.59203 0.28112 0.0
C505 C 0.58895 0.58455 0.27719 0.0
H506 H 0.58903 0.56356 0.28035 0.0
H507 H 0.63479 0.57036 0.22855 0.0
O508 O 0.68974 0.61848 0.35142 0.0
C509 C 0.70216 0.58566 0.27576 0.0
Co510 Co 0.15322 0.92525 0.07289 0.0
Co511 Co 0.19299 0.90106 0.03499 0.0
C512 C 0.20977 0.92764 0.08263 0.0
O513 O 0.18671 0.93303 0.08855 0.0
O514 O 0.2152 0.91447 0.06283 0.0
C515 C 0.11629 0.95718 0.09738 0.0
O516 O 0.127 0.97512 0.08333 0.0
C517 C 0.23532 0.86968 0.01554 0.0
C518 C 0.22564 0.86707 0.97445 0.0
C519 C 0.24384 0.85979 0.99236 0.0
N520 N 0.21329 0.8823 0.01137 0.0
N521 N 0.20756 0.88061 0.9868 0.0
C522 C 0.24691 0.86616 0.04149 0.0
H523 H 0.25982 0.88253 0.0456 0.0
H524 H 0.23166 0.86587 0.0563 0.0
H525 H 0.25811 0.84812 0.04243 0.0
C526 C 0.13237 0.87314 0.07104 0.0
N527 N 0.15008 0.89048 0.06418 0.0
N528 N 0.16636 0.87994 0.04813 0.0
C529 C 0.15948 0.85528 0.04433 0.0
C530 C 0.13756 0.85031 0.05858 0.0
C531 C 0.11126 0.8783 0.08979 0.0
H532 H 0.09767 0.89228 0.08135 0.0
H533 H 0.11944 0.88687 0.1074 0.0
H534 H 0.10076 0.86062 0.09511 0.0
O535 O 0.14987 0.94703 0.04242 0.0
O536 O 0.17933 0.93146 0.01608 0.0
H537 H 0.17258 0.84527 0.00692 0.0
H538 H 0.16381 0.81809 0.0265 0.0
C539 C 0.17293 0.83729 0.02659 0.0
H540 H 0.19324 0.83542 0.03251 0.0
H541 H 0.1914 0.88887 0.97846 0.0
O542 O 0.12523 0.9346 0.09661 0.0
C543 C 0.16213 0.94794 0.02141 0.0
Co544 Co 0.18701 0.32291 0.09466 0.0
Co545 Co 0.22672 0.35156 0.05902 0.0
C546 C 0.18042 0.32377 0.03811 0.0
O547 O 0.17207 0.3178 0.06028 0.0
O548 O 0.20107 0.33649 0.03516 0.0
C549 C 0.16671 0.28918 0.13387 0.0
O550 O 0.18487 0.27347 0.12638 0.0
C551 C 0.24709 0.38353 0.01709 0.0
C552 C 0.28336 0.3974 0.03388 0.0
C553 C 0.26813 0.39894 0.01229 0.0
N554 N 0.24956 0.3735 0.04068 0.0
N555 N 0.27141 0.3817 0.0505 0.0
C556 C 0.22466 0.37902 -0.00011 0.0
H557 H 0.22547 0.35911 0.99253 0.0
H558 H 0.20664 0.38117 0.01095 0.0
H559 H 0.22461 0.39252 0.98347 0.0
C560 C 0.18535 0.37333 0.11902 0.0
N561 N 0.19402 0.35772 0.10051 0.0
N562 N 0.21046 0.37019 0.08602 0.0
C563 C 0.21256 0.39443 0.09492 0.0
C564 C 0.19695 0.39699 0.11628 0.0
C565 C 0.16599 0.36571 0.13877 0.0
H566 H 0.14934 0.35667 0.1292 0.0
H567 H 0.15913 0.38235 0.15003 0.0
H568 H 0.17464 0.35144 0.15194 0.0
O569 O 0.21871 0.30271 0.09678 0.0
O570 O 0.24738 0.32246 0.07237 0.0
H571 H 0.22561 0.43364 0.09188 0.0
H572 H 0.22832 0.41479 0.06296 0.0
C573 C 0.23004 0.41438 0.08411 0.0
H574 H 0.25006 0.40954 0.0892 0.0
H575 H 0.27811 0.37665 0.06863 0.0
O576 O 0.16357 0.31027 0.12206 0.0
C577 C 0.24106 0.30415 0.08721 0.0
Co578 Co 0.67568 0.17223 0.90387 0.0
Co579 Co 0.71929 0.14924 0.93843 0.0
C580 C 0.67397 0.17821 0.96018 0.0
O581 O 0.66304 0.1815 0.93858 0.0
O582 O 0.69523 0.16642 0.962 0.0
C583 C 0.62858 0.18131 0.87198 0.0
O584 O 0.61435 0.16832 0.88817 0.0
C585 C 0.73803 0.11759 0.98047 0.0
C586 C 0.77946 0.11543 0.97231 0.0
C587 C 0.76097 0.10786 0.98986 0.0
N588 N 0.74291 0.13038 0.95867 0.0
N589 N 0.76769 0.12895 0.95383 0.0
C590 C 0.71159 0.11381 0.99085 0.0
H591 H 0.69735 0.11476 0.9751 0.0
H592 H 0.70998 0.09511 0.00082 0.0
H593 H 0.7072 0.1294 0.0046 0.0
C594 C 0.6755 0.11902 0.88414 0.0
N595 N 0.68329 0.13685 0.90104 0.0
N596 N 0.70188 0.12727 0.91514 0.0
C597 C 0.70643 0.10298 0.90765 0.0
C598 C 0.68971 0.09687 0.88794 0.0
C599 C 0.65781 0.12447 0.86222 0.0
H600 H 0.63802 0.12649 0.86962 0.0
H601 H 0.65805 0.1091 0.84761 0.0
H602 H 0.66345 0.14265 0.85284 0.0
O603 O 0.70695 0.19187 0.89647 0.0
O604 O 0.7387 0.17629 0.92009 0.0
H605 H 0.74614 0.0963 0.915 0.0
H606 H 0.72787 0.06745 0.90875 0.0
C607 C 0.7275 0.08657 0.91802 0.0
H608 H 0.72474 0.08399 0.9389 0.0
H609 H 0.77657 0.13744 0.93806 0.0
O610 O 0.65236 0.18411 0.87629 0.0
C611 C 0.73021 0.19202 0.90356 0.0
Co612 Co 0.56648 0.94304 0.64346 0.0
Co613 Co 0.59361 0.97712 0.68489 0.0
C614 C 0.56443 0.92903 0.69854 0.0
O615 O 0.55851 0.92437 0.6753 0.0
O616 O 0.57814 0.9483 0.70477 0.0
C617 C 0.54892 0.90375 0.6047 0.0
O618 O 0.55305 0.8843 0.62013 0.0
C619 C 0.62508 0.99209 0.72935 0.0
C620 C 0.63942 0.02989 0.71672 0.0
C621 C 0.6408 0.01223 0.73641 0.0
N622 N 0.61505 0.99744 0.70625 0.0
N623 N 0.62349 0.02018 0.69897 0.0
C624 C 0.62054 0.96771 0.74367 0.0
H625 H 0.62308 0.95119 0.73055 0.0
H626 H 0.63377 0.96579 0.76019 0.0
H627 H 0.60049 0.9674 0.7507 0.0
C628 C 0.61836 0.94192 0.62215 0.0
N629 N 0.60166 0.94958 0.64015 0.0
N630 N 0.6135 0.96405 0.65701 0.0
C631 C 0.63847 0.96581 0.65024 0.0
C632 C 0.64217 0.95212 0.62776 0.0
C633 C 0.61182 0.92396 0.60079 0.0
H634 H 0.5986 0.93365 0.58727 0.0
H635 H 0.60194 0.90696 0.60878 0.0
H636 H 0.62903 0.91738 0.59025 0.0
O637 O 0.54729 0.97498 0.64396 0.0
O638 O 0.56493 -6e-05 0.6733 0.0
H639 H 0.65442 0.0014 0.66233 0.0
H640 H 0.67785 0.97667 0.65735 0.0
C641 C 0.65829 0.98066 0.6646 0.0
H642 H 0.65731 0.97581 0.68524 0.0
H643 H 0.61865 0.0289 0.68165 0.0
O644 O 0.55352 0.92643 0.61214 0.0
C645 C 0.5479 0.99585 0.65634 0.0
Co646 Co 0.80776 0.81609 0.39278 0.0
Co647 Co 0.77157 0.84028 0.43411 0.0
C648 C 0.82392 0.81802 0.44656 0.0
O649 O 0.8298 0.81338 0.42332 0.0
O650 O 0.80232 0.82755 0.45289 0.0
C651 C 0.84745 0.7998 0.35485 0.0
O652 O 0.86541 0.80098 0.3724 0.0
C653 C 0.75682 0.87291 0.4776 0.0
C654 C 0.7151 0.87636 0.47144 0.0
C655 C 0.73473 0.88376 0.48768 0.0
N656 N 0.75042 0.85971 0.45645 0.0
N657 N 0.72547 0.86183 0.45291 0.0
C658 C 0.78372 0.87609 0.48685 0.0
H659 H 0.79715 0.87602 0.47037 0.0
H660 H 0.78593 0.89417 0.49779 0.0
H661 H 0.78868 0.85974 0.4995 0.0
C662 C 0.80202 0.86698 0.36999 0.0
N663 N 0.79638 0.84991 0.38837 0.0
N664 N 0.78101 0.8605 0.40526 0.0
C665 C 0.77625 0.88489 0.39795 0.0
C666 C 0.7892 0.88962 0.37516 0.0
C667 C 0.82139 0.86237 0.34931 0.0
H668 H 0.81309 0.84937 0.33472 0.0
H669 H 0.83853 0.85304 0.35765 0.0
H670 H 0.82754 0.88038 0.33988 0.0
O671 O 0.7789 0.79208 0.39689 0.0
O672 O 0.75158 0.80958 0.42419 0.0
H673 H 0.74024 0.89478 0.41461 0.0
H674 H 0.75804 0.92188 0.40252 0.0
C675 C 0.75963 0.90315 0.41244 0.0
H676 H 0.76768 0.90609 0.43186 0.0
H677 H 0.71554 0.85335 0.43779 0.0
O678 O 0.82442 0.80501 0.36068 0.0
C679 C 0.75798 0.79137 0.40934 0.0
Co680 Co 0.9277 0.07423 0.15748 0.0
Co681 Co 0.90546 0.03085 0.19248 0.0
C682 C 0.92544 0.08136 0.21311 0.0
O683 O 0.92937 0.09101 0.19108 0.0
O684 O 0.91735 0.05852 0.21604 0.0
C685 C 0.93718 0.12086 0.12649 0.0
O686 O 0.92382 0.13437 0.14297 0.0
C687 C 0.87134 0.01127 0.23237 0.0
C688 C 0.87158 0.96967 0.22476 0.0
C689 C 0.86155 0.98811 0.24104 0.0
N690 N 0.88648 0.00666 0.21207 0.0
N691 N 0.88655 0.98176 0.2076 0.0
C692 C 0.8653 0.03757 0.24195 0.0
H693 H 0.86633 0.05159 0.22599 0.0
H694 H 0.84597 0.03817 0.25078 0.0
H695 H 0.87969 0.04312 0.25655 0.0
C696 C 0.87787 0.06775 0.13197 0.0
N697 N 0.89454 0.06196 0.15067 0.0
N698 N 0.88477 0.04391 0.16532 0.0
C699 C 0.86129 0.03776 0.15636 0.0
C700 C 0.85632 0.05257 0.13486 0.0
C701 C 0.88235 0.08796 0.11211 0.0
H702 H 0.89967 0.08307 0.10081 0.0
H703 H 0.88575 0.10652 0.12178 0.0
H704 H 0.86581 0.09023 0.099 0.0
O705 O 0.95234 0.04589 0.1567 0.0
O706 O 0.93642 0.01332 0.17876 0.0
H707 H 0.85522 0.99893 0.16777 0.0
H708 H 0.82674 0.01484 0.15609 0.0
C709 C 0.84456 0.01729 0.16739 0.0
H710 H 0.83952 0.02235 0.18738 0.0
H711 H 0.89682 0.97304 0.19285 0.0
O712 O 0.93997 0.09694 0.12984 0.0
C713 C 0.95401 0.02305 0.16493 0.0
Co714 Co 0.31844 0.6777 0.59737 0.0
Co715 Co 0.27819 0.65528 0.55896 0.0
C716 C 0.32778 0.67889 0.54132 0.0
O717 O 0.33498 0.68361 0.56413 0.0
O718 O 0.30661 0.66771 0.53654 0.0
C719 C 0.36474 0.68567 0.62878 0.0
O720 O 0.3784 0.67441 0.61091 0.0
C721 C 0.25935 0.62188 0.51802 0.0
C722 C 0.21786 0.62069 0.52617 0.0
C723 C 0.23642 0.61139 0.50963 0.0
N724 N 0.25449 0.63665 0.53852 0.0
N725 N 0.22965 0.63594 0.54324 0.0
C726 C 0.28571 0.61657 0.50812 0.0
H727 H 0.29985 0.61782 0.52394 0.0
H728 H 0.28671 0.59735 0.49913 0.0
H729 H 0.29075 0.63122 0.49357 0.0
C730 C 0.31361 0.62607 0.61957 0.0
N731 N 0.30757 0.64358 0.60168 0.0
N732 N 0.29066 0.63378 0.5858 0.0
C733 C 0.28562 0.60942 0.59304 0.0
C734 C 0.29988 0.60391 0.61477 0.0
C735 C 0.33297 0.63027 0.6403 0.0
H736 H 0.35178 0.63442 0.63142 0.0
H737 H 0.33523 0.61333 0.65288 0.0
H738 H 0.32725 0.64701 0.65205 0.0
O739 O 0.28945 0.70116 0.59928 0.0
O740 O 0.25995 0.68633 0.57266 0.0
H741 H 0.24794 0.60147 0.57924 0.0
H742 H 0.26518 0.57348 0.59013 0.0
C743 C 0.26696 0.59208 0.57999 0.0
H744 H 0.27339 0.58859 0.56007 0.0
H745 H 0.2208 0.64566 0.55829 0.0
O746 O 0.34074 0.68827 0.62587 0.0
C747 C 0.26766 0.70308 0.58868 0.0
Co748 Co 0.06469 0.54806 0.36314 0.0
Co749 Co 0.09037 0.51499 0.3201 0.0
C750 C 0.06801 0.56741 0.30991 0.0
O751 O 0.06107 0.57067 0.33311 0.0
O752 O 0.07961 0.54717 0.30262 0.0
C753 C 0.04867 0.58596 0.40305 0.0
O754 O 0.05593 0.60526 0.38863 0.0
C755 C 0.124 0.50212 0.27677 0.0
C756 C 0.126 0.46 0.28021 0.0
C757 C 0.13422 0.48039 0.26531 0.0
N758 N 0.11028 0.49478 0.2973 0.0
N759 N 0.11162 0.4696 0.29928 0.0
C760 C 0.12811 0.52948 0.26933 0.0
H761 H 0.12789 0.54184 0.28661 0.0
H762 H 0.14658 0.53188 0.25908 0.0
H763 H 0.11229 0.53565 0.25656 0.0
C764 C 0.11559 0.54273 0.38605 0.0
N765 N 0.09868 0.5372 0.36752 0.0
N766 N 0.10975 0.52287 0.35003 0.0
C767 C 0.13433 0.51879 0.35701 0.0
C768 C 0.13872 0.53104 0.38024 0.0
C769 C 0.11036 0.5615 0.40711 0.0
H770 H 0.09685 0.55283 0.42104 0.0
H771 H 0.10125 0.57881 0.3989 0.0
H772 H 0.12799 0.5675 0.41724 0.0
O773 O 0.04197 0.51892 0.35818 0.0
O774 O 0.05862 0.49473 0.32765 0.0
H775 H 0.14544 0.48485 0.33706 0.0
H776 H 0.1718 0.50183 0.35168 0.0
C777 C 0.15332 0.50407 0.34144 0.0
H778 H 0.15663 0.51416 0.32304 0.0
H779 H 0.10252 0.45896 0.31355 0.0
O780 O 0.05146 0.56315 0.39515 0.0
C781 C 0.04099 0.49936 0.34384 0.0
Co782 Co 0.43648 0.43416 0.84521 0.0
Co783 Co 0.40991 0.47008 0.80498 0.0
C784 C 0.43851 0.42228 0.78964 0.0
O785 O 0.44419 0.41677 0.81273 0.0
O786 O 0.42499 0.44184 0.78397 0.0
C787 C 0.45257 0.39447 0.88527 0.0
O788 O 0.44054 0.37499 0.87489 0.0
C789 C 0.37585 0.48525 0.76257 0.0
C790 C 0.37093 0.52651 0.77048 0.0
C791 C 0.36407 0.50734 0.75346 0.0
N792 N 0.38906 0.49126 0.78384 0.0
N793 N 0.38601 0.51593 0.78846 0.0
C794 C 0.37357 0.45859 0.75238 0.0
H795 H 0.37535 0.44452 0.76822 0.0
H796 H 0.355 0.45586 0.74243 0.0
H797 H 0.38936 0.45506 0.73859 0.0
C798 C 0.38472 0.43459 0.86763 0.0
N799 N 0.40136 0.44113 0.84911 0.0
N800 N 0.39012 0.45683 0.83289 0.0
C801 C 0.36582 0.46085 0.84081 0.0
C802 C 0.3616 0.44669 0.86291 0.0
C803 C 0.39172 0.41921 0.8908 0.0
H804 H 0.4092 0.42735 0.89967 0.0
H805 H 0.39592 0.39927 0.88487 0.0
H806 H 0.3762 0.41895 0.9053 0.0
O807 O 0.45586 0.46599 0.84559 0.0
O808 O 0.43884 0.49223 0.81704 0.0
H809 H 0.35483 0.49821 0.82833 0.0
H810 H 0.32821 0.47793 0.83737 0.0
C811 C 0.34723 0.47839 0.82789 0.0
H812 H 0.34505 0.47263 0.80758 0.0
H813 H 0.3943 0.52556 0.80386 0.0
O814 O 0.45139 0.41652 0.87509 0.0
C815 C 0.45568 0.48729 0.83394 0.0
H816 H 0.21431 0.13354 0.48641 0.0
H817 H 0.26461 0.19661 0.46746 0.0
H818 H 0.22748 0.22186 0.45239 0.0
H819 H 0.18081 0.13616 0.43183 0.0
H820 H 0.15005 0.12744 0.44485 0.0
H821 H 0.17877 0.11749 0.46083 0.0
H822 H 0.16318 0.13929 0.50263 0.0
H823 H 0.13429 0.14939 0.48663 0.0
H824 H 0.15443 0.17268 0.50222 0.0
H825 H 0.18741 0.23664 0.4321 0.0
H826 H 0.14888 0.23805 0.40467 0.0
H827 H 0.12441 0.16495 0.43503 0.0
C828 C 0.21717 0.15311 0.48017 0.0
C829 C 0.24198 0.16355 0.47861 0.0
C830 C 0.24553 0.18864 0.46914 0.0
C831 C 0.22456 0.20311 0.46074 0.0
C832 C 0.20026 0.19206 0.46176 0.0
C833 C 0.19647 0.16756 0.47119 0.0
C834 C 0.16955 0.15825 0.46579 0.0
C835 C 0.16984 0.13339 0.44987 0.0
C836 C 0.15447 0.1547 0.49081 0.0
C837 C 0.15931 0.18065 0.45051 0.0
C838 C 0.177 0.20035 0.44917 0.0
C839 C 0.17312 0.22171 0.43357 0.0
C840 C 0.1512 0.22243 0.41813 0.0
C841 C 0.13375 0.20177 0.41823 0.0
C842 C 0.13729 0.18121 0.43532 0.0
H843 H 0.58388 0.37688 0.19233 0.0
H844 H 0.51697 0.40422 0.15206 0.0
H845 H 0.51719 0.44364 0.17819 0.0
H846 H 0.57022 0.41105 0.25719 0.0
H847 H 0.60393 0.4175 0.26088 0.0
H848 H 0.59349 0.38843 0.24542 0.0
H849 H 0.62115 0.39998 0.20589 0.0
H850 H 0.63122 0.42919 0.22084 0.0
H851 H 0.61601 0.43016 0.18988 0.0
H852 H 0.53201 0.48381 0.19849 0.0
H853 H 0.5575 0.52006 0.21521 0.0
H854 H 0.61471 0.467 0.24318 0.0
C855 C 0.56837 0.39051 0.19034 0.0
C856 C 0.55008 0.38752 0.17077 0.0
C857 C 0.53067 0.40604 0.16752 0.0
C858 C 0.53079 0.42852 0.18219 0.0
C859 C 0.55028 0.43188 0.20016 0.0
C860 C 0.56838 0.41306 0.20478 0.0
C861 C 0.58965 0.42289 0.22187 0.0
C862 C 0.58929 0.40915 0.24789 0.0
C863 C 0.61604 0.42041 0.20882 0.0
C864 C 0.58172 0.45061 0.2246 0.0
C865 C 0.55873 0.45534 0.21232 0.0
C866 C 0.54948 0.48019 0.20902 0.0
C867 C 0.56413 0.50066 0.21837 0.0
C868 C 0.58763 0.49612 0.23099 0.0
C869 C 0.59627 0.4708 0.2345 0.0
H870 H 0.333 0.78914 0.8947 0.0
H871 H 0.39746 0.82214 0.93485 0.0
H872 H 0.36903 0.83348 0.97113 0.0
H873 H 0.2922 0.83666 0.90703 0.0
H874 H 0.26365 0.81759 0.91067 0.0
H875 H 0.28968 0.80595 0.8915 0.0
H876 H 0.29198 0.7646 0.91888 0.0
H877 H 0.26561 0.77596 0.93807 0.0
H878 H 0.29532 0.76697 0.95315 0.0
H879 H 0.33249 0.84913 0.99802 0.0
H880 H 0.29168 0.86705 0.01346 0.0
H881 H 0.25079 0.82385 0.9556 0.0
C882 C 0.3412 0.79778 0.91167 0.0
C883 C 0.36728 0.80454 0.91237 0.0
C884 C 0.37753 0.81644 0.93436 0.0
C885 C 0.36151 0.82295 0.95496 0.0
C886 C 0.33546 0.81716 0.95318 0.0
C887 C 0.32545 0.80451 0.93217 0.0
C888 C 0.29651 0.8038 0.93296 0.0
C889 C 0.28485 0.81678 0.90915 0.0
C890 C 0.28679 0.77619 0.93595 0.0
C891 C 0.29167 0.81924 0.95694 0.0
C892 C 0.31432 0.8263 0.96869 0.0
C893 C 0.31463 0.84298 0.98953 0.0
C894 C 0.29126 0.85295 0.99832 0.0
C895 C 0.26795 0.84627 0.98619 0.0
C896 C 0.26827 0.82886 0.96557 0.0
H897 H 0.92896 0.5076 0.71324 0.0
H898 H 0.87682 0.53628 0.77114 0.0
H899 H 0.88801 0.5804 0.75944 0.0
H900 H 0.97708 0.56212 0.71578 0.0
H901 H 0.98093 0.56136 0.6815 0.0
H902 H 0.97415 0.53222 0.69879 0.0
H903 H 0.93459 0.52425 0.66985 0.0
H904 H 0.94126 0.55321 0.65258 0.0
H905 H 0.91035 0.54872 0.66729 0.0
H906 H 0.89761 0.62075 0.73593 0.0
H907 H 0.90436 0.65326 0.70196 0.0
H908 H 0.94951 0.59893 0.65881 0.0
C909 C 0.92066 0.52319 0.72411 0.0
C910 C 0.90273 0.51834 0.74375 0.0
C911 C 0.89156 0.53926 0.75692 0.0
C912 C 0.89765 0.56454 0.75022 0.0
C913 C 0.91493 0.56866 0.7303 0.0
C914 C 0.9264 0.5485 0.71751 0.0
C915 C 0.94122 0.55777 0.69437 0.0
C916 C 0.97006 0.55309 0.69783 0.0
C917 C 0.93124 0.54525 0.66958 0.0
C918 C 0.93505 0.58606 0.69527 0.0
C919 C 0.92037 0.59211 0.71648 0.0
C920 C 0.90976 0.61645 0.71971 0.0
C921 C 0.91369 0.63479 0.70044 0.0
C922 C 0.92798 0.62854 0.6784 0.0
C923 C 0.93932 0.60421 0.67609 0.0
H924 H 0.71336 0.36493 0.51566 0.0
H925 H 0.7668 0.30267 0.52708 0.0
H926 H 0.73136 0.27482 0.54188 0.0
H927 H 0.68248 0.35617 0.57191 0.0
H928 H 0.65103 0.36507 0.56084 0.0
H929 H 0.67885 0.37734 0.54485 0.0
H930 H 0.66203 0.35898 0.50186 0.0
H931 H 0.63421 0.34634 0.51799 0.0
H932 H 0.65444 0.32538 0.49948 0.0
H933 H 0.69246 0.25654 0.56213 0.0
H934 H 0.65526 0.25137 0.59101 0.0
H935 H 0.62733 0.326 0.56862 0.0
C936 C 0.71725 0.34509 0.52034 0.0
C937 C 0.74244 0.33554 0.51975 0.0
C938 C 0.74739 0.30999 0.52708 0.0
C939 C 0.72737 0.29406 0.53529 0.0
C940 C 0.70264 0.30414 0.53627 0.0
C941 C 0.69756 0.32919 0.52915 0.0
C942 C 0.6706 0.33694 0.53646 0.0
C943 C 0.67078 0.36023 0.5546 0.0
C944 C 0.65436 0.34221 0.51251 0.0
C945 C 0.66175 0.31286 0.54999 0.0
C946 C 0.68016 0.29382 0.54888 0.0
C947 C 0.67761 0.27099 0.56255 0.0
C948 C 0.65639 0.26808 0.57877 0.0
C949 C 0.63834 0.28803 0.5813 0.0
C950 C 0.64048 0.31016 0.56604 0.0
H951 H 0.42407 0.00585 0.29287 0.0
H952 H 0.38577 0.97121 0.22793 0.0
H953 H 0.40429 0.92948 0.23916 0.0
H954 H 0.48223 0.9622 0.29423 0.0
H955 H 0.48182 0.96154 0.32873 0.0
H956 H 0.47132 0.9898 0.31186 0.0
H957 H 0.42781 0.98801 0.33583 0.0
H958 H 0.43823 0.95999 0.35274 0.0
H959 H 0.40899 0.95908 0.33446 0.0
H960 H 0.41913 0.89035 0.26216 0.0
H961 H 0.4271 0.85799 0.29598 0.0
H962 H 0.45547 0.91741 0.3461 0.0
C963 C 0.42037 0.98964 0.28048 0.0
C964 C 0.40418 0.9921 0.259 0.0
C965 C 0.39906 0.97027 0.24374 0.0
C966 C 0.4094 0.94631 0.25011 0.0
C967 C 0.42485 0.94444 0.27178 0.0
C968 C 0.4304 0.96561 0.28669 0.0
C969 C 0.44399 0.95803 0.31112 0.0
C970 C 0.47148 0.96852 0.31149 0.0
C971 C 0.42884 0.96678 0.33491 0.0
C972 C 0.44384 0.92921 0.30837 0.0
C973 C 0.43332 0.92167 0.28527 0.0
C974 C 0.4281 0.89597 0.27996 0.0
C975 C 0.43273 0.8777 0.29916 0.0
C976 C 0.44223 0.88541 0.32323 0.0
C977 C 0.44888 0.91119 0.32746 0.0
H978 H 0.84459 0.68589 0.10761 0.0
H979 H 0.90522 0.67077 0.05314 0.0
H980 H 0.87276 0.66518 0.01878 0.0
H981 H 0.80636 0.63711 0.08782 0.0
H982 H 0.77633 0.65322 0.09333 0.0
H983 H 0.80409 0.66197 0.11163 0.0
H984 H 0.79934 0.70923 0.09708 0.0
H985 H 0.77129 0.70071 0.0789 0.0
H986 H 0.79772 0.71663 0.0634 0.0
H987 H 0.83282 0.65659 0.99188 0.0
H988 H 0.79027 0.64402 0.97557 0.0
H989 H 0.75714 0.65992 0.0501 0.0
C990 C 0.85103 0.68205 0.08827 0.0
C991 C 0.87721 0.67876 0.0828 0.0
C992 C 0.88513 0.6736 0.05746 0.0
C993 C 0.86685 0.67039 0.03794 0.0
C994 C 0.84093 0.67246 0.04431 0.0
C995 C 0.83312 0.67827 0.06893 0.0
C996 C 0.80446 0.67604 0.07199 0.0
C997 C 0.79742 0.65589 0.09238 0.0
C998 C 0.7925 0.70222 0.0782 0.0
C999 C 0.79726 0.66726 0.04545 0.0
C1000 C 0.81836 0.66586 0.02952 0.0
C1001 C 0.81624 0.65746 0.00428 0.0
C1002 C 0.79203 0.64988 0.99533 0.0
C1003 C 0.77048 0.6499 0.01187 0.0
C1004 C 0.77321 0.65939 0.037 0.0
H1005 H 0.09147 0.99312 0.80684 0.0
H1006 H 0.09292 0.03057 0.73264 0.0
H1007 H 0.07568 0.0699 0.75221 0.0
H1008 H 0.03009 0.02255 0.82688 0.0
H1009 H 0.04007 0.0243 0.85986 0.0
H1010 H 0.0518 0.99893 0.83963 0.0
H1011 H 0.09855 0.01189 0.8503 0.0
H1012 H 0.08697 0.0372 0.87054 0.0
H1013 H 0.10875 0.04443 0.84476 0.0
H1014 H 0.06418 0.10707 0.78173 0.0
H1015 H 0.05625 0.13698 0.81771 0.0
H1016 H 0.05484 0.07287 0.87039 0.0
C1017 C 0.08796 0.00946 0.79456 0.0
C1018 C 0.09499 0.00911 0.76844 0.0
C1019 C 0.08944 0.03079 0.75304 0.0
C1020 C 0.07906 0.05311 0.76388 0.0
C1021 C 0.07326 0.05305 0.78993 0.0
C1022 C 0.07695 0.03153 0.80488 0.0
C1023 C 0.06939 0.03631 0.8324 0.0
C1024 C 0.04647 0.01953 0.84014 0.0
C1025 C 0.09228 0.03222 0.85055 0.0
C1026 C 0.06192 0.06423 0.83085 0.0
C1027 C 0.06429 0.07367 0.80624 0.0
C1028 C 0.0615 0.09974 0.80093 0.0
C1029 C 0.05686 0.11658 0.82142 0.0
C1030 C 0.05484 0.10715 0.84673 0.0
C1031 C 0.05629 0.08056 0.85118 0.0
H1032 H 0.41827 0.13622 0.14623 0.0
H1033 H 0.42714 0.14834 0.22766 0.0
H1034 H 0.4598 0.1818 0.21901 0.0
H1035 H 0.48542 0.15342 0.1251 0.0
H1036 H 0.47306 0.16954 0.0972 0.0
H1037 H 0.4565 0.14209 0.11005 0.0
H1038 H 0.41494 0.16902 0.11334 0.0
H1039 H 0.43132 0.19662 0.10102 0.0
H1040 H 0.41521 0.19836 0.1315 0.0
H1041 H 0.48542 0.21908 0.20093 0.0
H1042 H 0.50056 0.25637 0.17571 0.0
H1043 H 0.47152 0.22128 0.10647 0.0
C1044 C 0.42795 0.1452 0.16222 0.0
C1045 C 0.42063 0.13963 0.18755 0.0
C1046 C 0.43304 0.15206 0.20812 0.0
C1047 C 0.45147 0.17113 0.20333 0.0
C1048 C 0.45714 0.17735 0.17791 0.0
C1049 C 0.44581 0.16452 0.1577 0.0
C1050 C 0.45158 0.17723 0.13235 0.0
C1051 C 0.4676 0.15951 0.11516 0.0
C1052 C 0.4268 0.18582 0.11879 0.0
C1053 C 0.46709 0.19986 0.14139 0.0
C1054 C 0.47074 0.19936 0.16762 0.0
C1055 C 0.48313 0.21934 0.18034 0.0
C1056 C 0.49172 0.2404 0.1659 0.0
C1057 C 0.48739 0.24142 0.13919 0.0
C1058 C 0.47521 0.22078 0.12687 0.0
H1059 H 0.58799 0.65506 0.95719 0.0
H1060 H 0.64759 0.68093 0.90574 0.0
H1061 H 0.61936 0.71581 0.89045 0.0
H1062 H 0.54053 0.6593 0.9137 0.0
H1063 H 0.51551 0.66918 0.93534 0.0
H1064 H 0.54224 0.65109 0.94719 0.0
H1065 H 0.55206 0.68661 0.98039 0.0
H1066 H 0.52512 0.70483 0.9688 0.0
H1067 H 0.55651 0.71916 0.96976 0.0
H1068 H 0.58245 0.74246 0.87549 0.0
H1069 H 0.54007 0.75756 0.86106 0.0
H1070 H 0.50373 0.71273 0.92076 0.0
C1071 C 0.5953 0.66874 0.94341 0.0
C1072 C 0.61996 0.66582 0.93291 0.0
C1073 C 0.62891 0.68341 0.9144 0.0
C1074 C 0.61298 0.70318 0.90561 0.0
C1075 C 0.58823 0.70494 0.91555 0.0
C1076 C 0.57947 0.68819 0.93414 0.0
C1077 C 0.55106 0.69137 0.93877 0.0
C1078 C 0.5365 0.66625 0.93341 0.0
C1079 C 0.54589 0.70108 0.96605 0.0
C1080 C 0.5449 0.71168 0.91908 0.0
C1081 C 0.56667 0.71978 0.90633 0.0
C1082 C 0.56538 0.73681 0.8858 0.0
C1083 C 0.54122 0.74543 0.87783 0.0
C1084 C 0.51872 0.73677 0.89023 0.0
C1085 C 0.52071 0.72002 0.91131 0.0
H1086 H 0.09871 0.84265 0.68671 0.0
H1087 H 0.05022 0.90203 0.65529 0.0
H1088 H 0.01665 0.86964 0.64602 0.0
H1089 H 0.087 0.79832 0.64095 0.0
H1090 H 0.08739 0.77061 0.66155 0.0
H1091 H 0.10498 0.79881 0.6704 0.0
H1092 H 0.08071 0.80088 0.71365 0.0
H1093 H 0.06317 0.77241 0.7051 0.0
H1094 H 0.04619 0.80115 0.71385 0.0
H1095 H 0.99241 0.82997 0.63343 0.0
H1096 H 0.97864 0.78702 0.61993 0.0
H1097 H 0.04267 0.75348 0.66083 0.0
C1098 C 0.08058 0.84883 0.67874 0.0
C1099 C 0.07662 0.87462 0.67195 0.0
C1100 C 0.05317 0.88228 0.66094 0.0
C1101 C 0.03413 0.86404 0.65562 0.0
C1102 C 0.03895 0.83845 0.66175 0.0
C1103 C 0.06151 0.83093 0.67339 0.0
C1104 C 0.06336 0.80212 0.67552 0.0
C1105 C 0.08707 0.79188 0.66125 0.0
C1106 C 0.06335 0.79364 0.70371 0.0
C1107 C 0.03883 0.79444 0.66227 0.0
C1108 C 0.02481 0.81562 0.65477 0.0
C1109 C 0.00274 0.81324 0.63999 0.0
C1110 C 0.99489 0.78863 0.6326 0.0
C1111 C 0.00903 0.7667 0.64009 0.0
C1112 C 0.03113 0.76981 0.6553 0.0
H1113 H 0.00348 0.3085 0.41263 0.0
H1114 H 0.96735 0.2401 0.38248 0.0
H1115 H 0.92687 0.25223 0.40324 0.0
H1116 H 0.96616 0.31268 0.47383 0.0
H1117 H 0.96426 0.34708 0.47166 0.0
H1118 H 0.99171 0.33048 0.4589 0.0
H1119 H 0.98415 0.35182 0.41466 0.0
H1120 H 0.95687 0.36849 0.42732 0.0
H1121 H 0.95335 0.34853 0.39941 0.0
H1122 H 0.88869 0.27512 0.42109 0.0
H1123 H 0.85632 0.30777 0.43295 0.0
H1124 H 0.91697 0.36107 0.45157 0.0
C1125 C 0.98724 0.2957 0.41104 0.0
C1126 C 0.98892 0.27288 0.39668 0.0
C1127 C 0.96703 0.25703 0.39436 0.0
C1128 C 0.94379 0.26388 0.40596 0.0
C1129 C 0.94273 0.28665 0.41981 0.0
C1130 C 0.96393 0.30231 0.42242 0.0
C1131 C 0.9571 0.32723 0.43549 0.0
C1132 C 0.97061 0.32949 0.46152 0.0
C1133 C 0.96322 0.35036 0.41818 0.0
C1134 C 0.92855 0.32365 0.43879 0.0
C1135 C 0.92062 0.29995 0.43005 0.0
C1136 C 0.89472 0.29347 0.42858 0.0
C1137 C 0.87648 0.31201 0.43542 0.0
C1138 C 0.88437 0.33661 0.44338 0.0
C1139 C 0.91064 0.34212 0.44598 0.0
H1140 H 0.97075 0.27905 0.89112 0.0
H1141 H 0.00507 0.24787 0.82247 0.0
H1142 H 0.99143 0.28642 0.79816 0.0
H1143 H 0.91663 0.30173 0.86377 0.0
H1144 H 0.91398 0.33026 0.88298 0.0
H1145 H 0.93054 0.30281 0.89535 0.0
H1146 H 0.97102 0.33059 0.90305 0.0
H1147 H 0.95449 0.35822 0.89058 0.0
H1148 H 0.98466 0.34853 0.87688 0.0
H1149 H 0.96647 0.32411 0.78023 0.0
H1150 H 0.93348 0.35705 0.77091 0.0
H1151 H 0.91861 0.36496 0.85199 0.0
C1152 C 0.97605 0.28079 0.87113 0.0
C1153 C 0.98912 0.26086 0.85858 0.0
C1154 C 0.99543 0.26332 0.83239 0.0
C1155 C 0.98776 0.2851 0.81852 0.0
C1156 C 0.97431 0.30433 0.83136 0.0
C1157 C 0.9689 0.30248 0.85724 0.0
C1158 C 0.95209 0.32424 0.86621 0.0
C1159 C 0.92683 0.31415 0.87773 0.0
C1160 C 0.96643 0.34141 0.88531 0.0
C1161 C 0.94767 0.33794 0.84113 0.0
C1162 C 0.96082 0.32645 0.8212 0.0
C1163 C 0.95673 0.33374 0.79577 0.0
C1164 C 0.93808 0.3525 0.79061 0.0
C1165 C 0.92387 0.36353 0.81081 0.0
C1166 C 0.92965 0.35703 0.83632 0.0
H1167 H 0.42142 0.15068 0.53014 0.0
H1168 H 0.35828 0.19139 0.56494 0.0
H1169 H 0.38807 0.22525 0.57948 0.0
H1170 H 0.45991 0.1558 0.57985 0.0
H1171 H 0.48979 0.15922 0.56289 0.0
H1172 H 0.46337 0.14321 0.5479 0.0
H1173 H 0.46546 0.17464 0.50952 0.0
H1174 H 0.49228 0.19063 0.52425 0.0
H1175 H 0.46429 0.20867 0.5152 0.0
H1176 H 0.42513 0.24859 0.59847 0.0
H1177 H 0.46571 0.25926 0.6202 0.0
H1178 H 0.50507 0.20184 0.57508 0.0
C1179 C 0.41385 0.16745 0.53971 0.0
C1180 C 0.38773 0.16884 0.54619 0.0
C1181 C 0.37826 0.19042 0.55942 0.0
C1182 C 0.39506 0.20965 0.56777 0.0
C1183 C 0.42116 0.20689 0.5626 0.0
C1184 C 0.43047 0.1864 0.5486 0.0
C1185 C 0.4594 0.18509 0.54963 0.0
C1186 C 0.46863 0.15932 0.56074 0.0
C1187 C 0.47104 0.19007 0.52307 0.0
C1188 C 0.46486 0.20703 0.56767 0.0
C1189 C 0.44268 0.2199 0.57432 0.0
C1190 C 0.44271 0.2392 0.59278 0.0
C1191 C 0.46587 0.2452 0.60499 0.0
C1192 C 0.48855 0.23169 0.59888 0.0
C1193 C 0.48803 0.21273 0.57972 0.0
H1194 H 0.58424 0.63508 0.35322 0.0
H1195 H 0.576 0.64067 0.27094 0.0
H1196 H 0.54349 0.67484 0.2766 0.0
H1197 H 0.51746 0.6534 0.3722 0.0
H1198 H 0.52922 0.67188 0.39885 0.0
H1199 H 0.5464 0.64382 0.3884 0.0
H1200 H 0.58758 0.67108 0.3832 0.0
H1201 H 0.57058 0.69919 0.39336 0.0
H1202 H 0.58692 0.69904 0.36295 0.0
H1203 H 0.51694 0.71285 0.29142 0.0
H1204 H 0.50072 0.7517 0.31355 0.0
H1205 H 0.5301 0.7229 0.38549 0.0
C1206 C 0.57503 0.64303 0.33643 0.0
C1207 C 0.58238 0.63528 0.31169 0.0
C1208 C 0.5702 0.64613 0.29009 0.0
C1209 C 0.55181 0.66557 0.29316 0.0
C1210 C 0.54595 0.67377 0.31793 0.0
C1211 C 0.55722 0.6627 0.33919 0.0
C1212 C 0.55096 0.6772 0.36342 0.0
C1213 C 0.53505 0.66058 0.3818 0.0
C1214 C 0.57546 0.68722 0.37647 0.0
C1215 C 0.53516 0.69878 0.35246 0.0
C1216 C 0.53182 0.6962 0.32631 0.0
C1217 C 0.51907 0.7148 0.31193 0.0
C1218 C 0.50991 0.73673 0.32458 0.0
C1219 C 0.51409 0.73991 0.35111 0.0
C1220 C 0.52651 0.7206 0.36519 0.0
H1221 H 0.00462 0.78633 0.08062 0.0
H1222 H 0.04466 0.72696 0.12264 0.0
H1223 H 0.08556 0.74162 0.10431 0.0
H1224 H 0.04835 0.78879 0.0232 0.0
H1225 H 0.04565 0.82316 0.02152 0.0
H1226 H 0.01911 0.80428 0.03302 0.0
H1227 H 0.01831 0.83086 0.07496 0.0
H1228 H 0.0447 0.84973 0.0636 0.0
H1229 H 0.04709 0.83335 0.09388 0.0
H1230 H 0.12269 0.76757 0.08785 0.0
H1231 H 0.1519 0.8032 0.07622 0.0
H1232 H 0.0878 0.84576 0.04557 0.0
C1233 C 0.0219 0.77586 0.0853 0.0
C1234 C 0.02126 0.75501 0.10248 0.0
C1235 C 0.04438 0.74227 0.10871 0.0
C1236 C 0.06783 0.75061 0.09848 0.0
C1237 C 0.06783 0.77166 0.08203 0.0
C1238 C 0.04537 0.78403 0.07539 0.0
C1239 C 0.05062 0.80822 0.06035 0.0
C1240 C 0.04032 0.80596 0.03289 0.0
C1241 C 0.03954 0.83192 0.07403 0.0
C1242 C 0.07956 0.8083 0.06067 0.0
C1243 C 0.08923 0.78679 0.07275 0.0
C1244 C 0.11537 0.78414 0.07779 0.0
C1245 C 0.13184 0.80436 0.07108 0.0
C1246 C 0.12194 0.82685 0.05979 0.0
C1247 C 0.09573 0.82841 0.05372 0.0
H1248 H 0.17062 0.44503 0.25476 0.0
H1249 H 0.12896 0.50825 0.22076 0.0
H1250 H 0.14855 0.49868 0.17891 0.0
H1251 H 0.22937 0.4486 0.21252 0.0
H1252 H 0.23155 0.41417 0.21137 0.0
H1253 H 0.21914 0.42973 0.23957 0.0
H1254 H 0.17764 0.40259 0.23632 0.0
H1255 H 0.18989 0.38705 0.20824 0.0
H1256 H 0.1594 0.40316 0.20701 0.0
H1257 H 0.16575 0.47707 0.13953 0.0
H1258 H 0.1784 0.44503 0.10683 0.0
H1259 H 0.20886 0.39622 0.16642 0.0
C1260 C 0.16635 0.45741 0.23868 0.0
C1261 C 0.14884 0.47781 0.2412 0.0
C1262 C 0.1431 0.49317 0.2196 0.0
C1263 C 0.15404 0.48775 0.19564 0.0
C1264 C 0.17077 0.46703 0.19367 0.0
C1265 C 0.17705 0.45223 0.21473 0.0
C1266 C 0.1926 0.42902 0.20716 0.0
C1267 C 0.21978 0.43048 0.21832 0.0
C1268 C 0.17906 0.404 0.21515 0.0
C1269 C 0.19293 0.43226 0.17842 0.0
C1270 C 0.18071 0.45455 0.17093 0.0
C1271 C 0.176 0.45997 0.14516 0.0
C1272 C 0.18327 0.44178 0.12672 0.0
C1273 C 0.19486 0.41856 0.13431 0.0
C1274 C 0.20052 0.41421 0.16029 0.0
H1275 H 0.65093 0.06462 0.87586 0.0
H1276 H 0.73016 0.08186 0.8589 0.0
H1277 H 0.7284 0.05339 0.82119 0.0
H1278 H 0.65072 0.99576 0.84877 0.0
H1279 H 0.61881 0.00038 0.83646 0.0
H1280 H 0.62841 0.01587 0.86578 0.0
H1281 H 0.61534 0.05972 0.84662 0.0
H1282 H 0.60612 0.04459 0.8172 0.0
H1283 H 0.62945 0.07005 0.81683 0.0
H1284 H 0.71498 0.03355 0.78039 0.0
H1285 H 0.69184 0.02045 0.7412 0.0
H1286 H 0.62149 0.01426 0.78458 0.0
C1287 C 0.66819 0.0612 0.86488 0.0
C1288 C 0.69078 0.0749 0.8703 0.0
C1289 C 0.71289 0.07098 0.85523 0.0
C1290 C 0.712 0.05491 0.83377 0.0
C1291 C 0.68894 0.04272 0.82797 0.0
C1292 C 0.66754 0.04522 0.84341 0.0
C1293 C 0.64417 0.0333 0.83107 0.0
C1294 C 0.63499 0.00993 0.84643 0.0
C1295 C 0.62252 0.0531 0.82773 0.0
C1296 C 0.65532 0.02529 0.80555 0.0
C1297 C 0.68128 0.03052 0.80429 0.0
C1298 C 0.69494 0.02841 0.78143 0.0
C1299 C 0.68168 0.02111 0.75928 0.0
C1300 C 0.65519 0.01578 0.76029 0.0
C1301 C 0.64199 0.01731 0.78375 0.0
H1302 H 0.64793 0.96529 0.57827 0.0
H1303 H 0.68752 0.93011 0.64192 0.0
H1304 H 0.7218 0.91549 0.61252 0.0
H1305 H 0.65437 0.91601 0.5388 0.0
H1306 H 0.65831 0.93378 0.50946 0.0
H1307 H 0.64145 0.94789 0.53585 0.0
H1308 H 0.6724 0.9867 0.53552 0.0
H1309 H 0.68927 0.97288 0.50875 0.0
H1310 H 0.70646 0.98142 0.53742 0.0
H1311 H 0.74611 0.89706 0.57532 0.0
H1312 H 0.75805 0.87666 0.53439 0.0
H1313 H 0.70163 0.92296 0.49492 0.0
C1314 C 0.6645 0.95555 0.58607 0.0
C1315 C 0.66552 0.94911 0.61221 0.0
C1316 C 0.68686 0.93565 0.62194 0.0
C1317 C 0.70632 0.92725 0.60536 0.0
C1318 C 0.70406 0.93268 0.57926 0.0
C1319 C 0.68376 0.94682 0.56975 0.0
C1320 C 0.68324 0.94656 0.54081 0.0
C1321 C 0.65786 0.93539 0.53066 0.0
C1322 C 0.68814 0.9735 0.52999 0.0
C1323 C 0.70554 0.92894 0.53545 0.0
C1324 C 0.71777 0.92162 0.55777 0.0
C1325 C 0.73722 0.90329 0.55768 0.0
C1326 C 0.74398 0.89188 0.53429 0.0
C1327 C 0.73113 0.89869 0.51142 0.0
C1328 C 0.71207 0.91778 0.51207 0.0
H1329 H 0.82506 0.95136 0.2451 0.0
H1330 H 0.86279 0.01124 0.28836 0.0
H1331 H 0.83972 0.99766 0.32727 0.0
H1332 H 0.76262 0.95141 0.28198 0.0
H1333 H 0.76034 0.91703 0.27977 0.0
H1334 H 0.77529 0.93504 0.25436 0.0
H1335 H 0.81635 0.90742 0.25887 0.0
H1336 H 0.80152 0.88939 0.28409 0.0
H1337 H 0.83176 0.90505 0.28967 0.0
H1338 H 0.81965 0.97222 0.36276 0.0
H1339 H 0.80529 0.93687 0.39099 0.0
H1340 H 0.77934 0.89453 0.32475 0.0
C1341 C 0.82779 0.96214 0.2626 0.0
C1342 C 0.84521 0.98275 0.26355 0.0
C1343 C 0.84884 0.996 0.28691 0.0
C1344 C 0.83587 0.98832 0.30918 0.0
C1345 C 0.81916 0.96754 0.30771 0.0
C1346 C 0.81493 0.95478 0.28489 0.0
C1347 C 0.79873 0.93109 0.28886 0.0
C1348 C 0.7727 0.93382 0.27545 0.0
C1349 C 0.81295 0.90683 0.27986 0.0
C1350 C 0.79574 0.93164 0.31765 0.0
C1351 C 0.80722 0.95305 0.32822 0.0
C1352 C 0.8099 0.95582 0.35469 0.0
C1353 C 0.8016 0.93576 0.37062 0.0
C1354 C 0.79094 0.91334 0.3599 0.0
C1355 C 0.78692 0.91185 0.33329 0.0
H1356 H 0.85591 0.04041 0.08469 0.0
H1357 H 0.80733 0.06614 0.14661 0.0
H1358 H 0.77302 0.07641 0.11546 0.0
H1359 H 0.84356 0.08878 0.04527 0.0
H1360 H 0.84394 0.07122 0.01557 0.0
H1361 H 0.86157 0.05944 0.04261 0.0
H1362 H 0.83735 0.0162 0.04038 0.0
H1363 H 0.81984 0.02764 0.01291 0.0
H1364 H 0.80282 0.01592 0.04058 0.0
H1365 H 0.74894 0.09294 0.07745 0.0
H1366 H 0.73599 0.11201 0.03644 0.0
H1367 H 0.79983 0.07451 0.9988 0.0
C1368 C 0.83753 0.04705 0.09165 0.0
C1369 C 0.83388 0.05225 0.11783 0.0
C1370 C 0.81009 0.06168 0.12655 0.0
C1371 C 0.79061 0.06759 0.10899 0.0
C1372 C 0.79529 0.06359 0.08296 0.0
C1373 C 0.81805 0.05307 0.07437 0.0
C1374 C 0.81993 0.05397 0.04548 0.0
C1375 C 0.84364 0.06927 0.03675 0.0
C1376 C 0.81998 0.02681 0.03417 0.0
C1377 C 0.79537 0.06791 0.03917 0.0
C1378 C 0.78116 0.07291 0.06095 0.0
C1379 C 0.75934 0.08825 0.06015 0.0
C1380 C 0.75197 0.09888 0.03659 0.0
C1381 C 0.76634 0.09405 0.01408 0.0
C1382 C 0.78808 0.07806 0.01552 0.0
H1383 H 0.32598 0.54192 0.74687 0.0
H1384 H 0.36956 0.48415 0.70626 0.0
H1385 H 0.34887 0.49698 0.66587 0.0
H1386 H 0.26674 0.54069 0.70484 0.0
H1387 H 0.26351 0.57498 0.70724 0.0
H1388 H 0.27658 0.55695 0.73364 0.0
H1389 H 0.31722 0.58553 0.73303 0.0
H1390 H 0.30429 0.60355 0.70681 0.0
H1391 H 0.33525 0.58862 0.70373 0.0
H1392 H 0.33059 0.52185 0.62908 0.0
H1393 H 0.3178 0.55715 0.60001 0.0
H1394 H 0.28624 0.59868 0.66428 0.0
C1395 C 0.33046 0.53134 0.72961 0.0
C1396 C 0.34886 0.51156 0.7299 0.0
C1397 C 0.3548 0.49865 0.70681 0.0
C1398 C 0.3432 0.50594 0.68367 0.0
C1399 C 0.32563 0.52607 0.68395 0.0
C1400 C 0.31916 0.53846 0.70644 0.0
C1401 C 0.30286 0.56186 0.70136 0.0
C1402 C 0.27581 0.5584 0.71243 0.0
C1403 C 0.31569 0.58631 0.71184 0.0
C1404 C 0.30241 0.56164 0.67242 0.0
C1405 C 0.31511 0.54053 0.66265 0.0
C1406 C 0.31997 0.53803 0.63647 0.0
C1407 C 0.31259 0.55806 0.62007 0.0
C1408 C 0.30079 0.58022 0.63007 0.0
C1409 C 0.29467 0.5815 0.65628 0.0
H1410 H 0.14619 0.52162 0.43045 0.0
H1411 H 0.18419 0.55 0.36253 0.0
H1412 H 0.21952 0.56681 0.38926 0.0
H1413 H 0.15379 0.57461 0.46407 0.0
H1414 H 0.1584 0.56023 0.49512 0.0
H1415 H 0.14091 0.5433 0.47091 0.0
H1416 H 0.17182 0.50466 0.4748 0.0
H1417 H 0.18928 0.52134 0.49946 0.0
H1418 H 0.20583 0.5096 0.47154 0.0
H1419 H 0.24488 0.5888 0.42353 0.0
H1420 H 0.25808 0.61337 0.46169 0.0
H1421 H 0.20215 0.57246 0.50738 0.0
C1422 C 0.16266 0.53025 0.42123 0.0
C1423 C 0.16284 0.53428 0.39457 0.0
C1424 C 0.18411 0.5463 0.38294 0.0
C1425 C 0.20416 0.55598 0.39801 0.0
C1426 C 0.20257 0.55329 0.42458 0.0
C1427 C 0.18244 0.5404 0.43606 0.0
C1428 C 0.18257 0.54392 0.46481 0.0
C1429 C 0.15744 0.55625 0.47425 0.0
C1430 C 0.18769 0.51836 0.47846 0.0
C1431 C 0.205 0.56198 0.46764 0.0
C1432 C 0.21678 0.56663 0.44438 0.0
C1433 C 0.23634 0.58468 0.44196 0.0
C1434 C 0.24379 0.59851 0.46377 0.0
C1435 C 0.23147 0.5944 0.48757 0.0
C1436 C 0.21215 0.57564 0.48949 0.0
H1437 H 0.27585 0.37834 0.96526 0.0
H1438 H 0.27721 0.44989 0.00698 0.0
H1439 H 0.29359 0.4722 0.96843 0.0
H1440 H 0.33433 0.38692 0.93725 0.0
H1441 H 0.3267 0.37168 0.90726 0.0
H1442 H 0.30961 0.36284 0.93577 0.0
H1443 H 0.26661 0.3736 0.91336 0.0
H1444 H 0.28371 0.38263 0.88474 0.0
H1445 H 0.26194 0.40492 0.89958 0.0
H1446 H 0.31508 0.48535 0.92776 0.0
H1447 H 0.34426 0.48727 0.8904 0.0
H1448 H 0.33125 0.40672 0.87605 0.0
C1449 C 0.27872 0.39888 0.96582 0.0
C1450 C 0.27475 0.41269 0.98863 0.0
C1451 C 0.27978 0.43925 0.98937 0.0
C1452 C 0.28891 0.45203 0.96757 0.0
C1453 C 0.29315 0.43782 0.94535 0.0
C1454 C 0.28838 0.41176 0.9444 0.0
C1455 C 0.29842 0.40012 0.91982 0.0
C1456 C 0.31845 0.37918 0.92537 0.0
C1457 C 0.27635 0.38971 0.9034 0.0
C1458 C 0.31048 0.42346 0.90757 0.0
C1459 C 0.30657 0.44519 0.9222 0.0
C1460 C 0.31783 0.4686 0.91588 0.0
C1461 C 0.33424 0.46959 0.89462 0.0
C1462 C 0.33947 0.44723 0.88037 0.0
C1463 C 0.32688 0.42415 0.88642 0.0
H1464 H 0.17045 0.24703 0.16515 0.0
H1465 H 0.13008 0.31924 0.15651 0.0
H1466 H 0.10814 0.3118 0.19769 0.0
H1467 H 0.11782 0.21185 0.19383 0.0
H1468 H 0.13837 0.19411 0.21516 0.0
H1469 H 0.15041 0.20497 0.18473 0.0
H1470 H 0.18762 0.22811 0.20789 0.0
H1471 H 0.17546 0.21759 0.2384 0.0
H1472 H 0.18052 0.25123 0.23251 0.0
H1473 H 0.0915 0.29714 0.24053 0.0
H1474 H 0.07945 0.27498 0.28058 0.0
H1475 H 0.13049 0.2123 0.26093 0.0
C1476 C 0.15683 0.26119 0.17177 0.0
C1477 C 0.15201 0.28374 0.15754 0.0
C1478 C 0.1341 0.30181 0.167 0.0
C1479 C 0.12157 0.2978 0.19042 0.0
C1480 C 0.12707 0.27558 0.20414 0.0
C1481 C 0.14411 0.25746 0.19507 0.0
C1482 C 0.14663 0.23522 0.21355 0.0
C1483 C 0.13776 0.21005 0.20107 0.0
C1484 C 0.17419 0.23292 0.22368 0.0
C1485 C 0.12836 0.24369 0.23441 0.0
C1486 C 0.11735 0.26706 0.2287 0.0
C1487 C 0.09993 0.27878 0.24518 0.0
C1488 C 0.09327 0.26609 0.26794 0.0
C1489 C 0.10394 0.24187 0.27394 0.0
C1490 C 0.12189 0.23075 0.25695 0.0
H1491 H 0.45141 0.35488 0.92067 0.0
H1492 H 0.48727 0.42819 0.90412 0.0
H1493 H 0.51121 0.4257 0.94441 0.0
H1494 H 0.44475 0.36516 0.98891 0.0
H1495 H 0.45199 0.33251 0.9975 0.0
H1496 H 0.43738 0.33951 0.96704 0.0
H1497 H 0.4743 0.31602 0.94368 0.0
H1498 H 0.48892 0.3088 0.97407 0.0
H1499 H 0.50695 0.32545 0.94978 0.0
H1500 H 0.53184 0.4157 0.98532 0.0
H1501 H 0.54887 0.39811 0.02552 0.0
H1502 H 0.49953 0.3316 0.01758 0.0
C1503 C 0.4644 0.37029 0.92552 0.0
C1504 C 0.46741 0.39172 0.90921 0.0
C1505 C 0.48449 0.41161 0.9163 0.0
C1506 C 0.49822 0.41042 0.93918 0.0
C1507 C 0.49464 0.38928 0.95493 0.0
C1508 C 0.47823 0.36953 0.94855 0.0
C1509 C 0.47817 0.34906 0.96922 0.0
C1510 C 0.45148 0.34642 0.98139 0.0
C1511 C 0.48766 0.32331 0.95854 0.0
C1512 C 0.49724 0.36042 0.98798 0.0
C1513 C 0.50642 0.38363 0.97922 0.0
C1514 C 0.52476 0.3976 0.99252 0.0
C1515 C 0.53433 0.38741 0.01531 0.0
C1516 C 0.52546 0.36354 0.0247 0.0
C1517 C 0.50639 0.35003 0.01101 0.0
H1518 H 0.3679 0.75966 0.76113 0.0
H1519 H 0.44321 0.72745 0.7751 0.0
H1520 H 0.43984 0.70249 0.73495 0.0
H1521 H 0.3395 0.70205 0.73213 0.0
H1522 H 0.32114 0.72075 0.70968 0.0
H1523 H 0.32879 0.73373 0.74069 0.0
H1524 H 0.34937 0.77327 0.71881 0.0
H1525 H 0.34218 0.76025 0.68776 0.0
H1526 H 0.37468 0.76865 0.69578 0.0
H1527 H 0.42975 0.68476 0.69057 0.0
H1528 H 0.41199 0.6726 0.64826 0.0
H1529 H 0.34346 0.71663 0.66478 0.0
C1530 C 0.38352 0.747 0.75604 0.0
C1531 C 0.40583 0.74551 0.77119 0.0
C1532 C 0.42584 0.72872 0.76386 0.0
C1533 C 0.42415 0.71459 0.74102 0.0
C1534 C 0.40222 0.71729 0.72603 0.0
C1535 C 0.38209 0.73277 0.73353 0.0
C1536 C 0.36098 0.73319 0.71379 0.0
C1537 C 0.33614 0.72174 0.72473 0.0
C1538 C 0.35657 0.76045 0.70343 0.0
C1539 C 0.37258 0.71598 0.69367 0.0
C1540 C 0.39635 0.70693 0.70096 0.0
C1541 C 0.41101 0.69148 0.68482 0.0
C1542 C 0.40088 0.68482 0.66079 0.0
C1543 C 0.37633 0.69358 0.6533 0.0
C1544 C 0.36219 0.70942 0.67002 0.0
H1545 H 0.04639 0.63076 0.43111 0.0
H1546 H 0.02498 0.55035 0.43283 0.0
H1547 H 0.00494 0.55646 0.47492 0.0
H1548 H 0.06021 0.63612 0.50014 0.0
H1549 H 0.04722 0.66802 0.50243 0.0
H1550 H 0.06147 0.65728 0.47288 0.0
H1551 H 0.01965 0.66826 0.44853 0.0
H1552 H 0.00537 0.67914 0.47794 0.0
H1553 H 0.98977 0.65468 0.45927 0.0
H1554 H 0.98353 0.57157 0.51418 0.0
H1555 H 0.96277 0.59513 0.54952 0.0
H1556 H -0.00022 0.66522 0.52469 0.0
C1557 C 0.03766 0.61443 0.44046 0.0
C1558 C 0.03728 0.5901 0.42863 0.0
C1559 C 0.02563 0.56918 0.44149 0.0
C1560 C 0.01422 0.57241 0.46547 0.0
C1561 C 0.01485 0.59658 0.47656 0.0
C1562 C 0.02637 0.61724 0.46466 0.0
C1563 C 0.02344 0.64135 0.48056 0.0
C1564 C 0.04965 0.65127 0.48953 0.0
C1565 C 0.00867 0.66207 0.46569 0.0
C1566 C 0.00786 0.63109 0.50283 0.0
C1567 C 0.00322 0.60517 0.5001 0.0
C1568 C 0.98745 0.59173 0.5169 0.0
C1569 C 0.97576 0.60522 0.53685 0.0
C1570 C 0.98018 0.63175 0.53999 0.0
C1571 C 0.9968 0.64475 0.52308 0.0
H1572 H 0.65006 0.21636 0.83969 0.0
H1573 H 0.5838 0.16691 0.84825 0.0
H1574 H 0.56859 0.18024 0.80533 0.0
H1575 H 0.61725 0.26787 0.8076 0.0
H1576 H 0.64411 0.27527 0.78721 0.0
H1577 H 0.64943 0.26164 0.81843 0.0
H1578 H 0.67539 0.22472 0.79779 0.0
H1579 H 0.6699 0.23807 0.76647 0.0
H1580 H 0.66082 0.20544 0.77316 0.0
H1581 H 0.56161 0.1982 0.76061 0.0
H1582 H 0.56105 0.22227 0.7199 0.0
H1583 H 0.63155 0.2606 0.74167 0.0
C1584 C 0.63228 0.20836 0.83263 0.0
C1585 C 0.61812 0.19053 0.8473 0.0
C1586 C 0.59488 0.18068 0.8374 0.0
C1587 C 0.5862 0.18803 0.81299 0.0
C1588 C 0.60089 0.20536 0.79888 0.0
C1589 C 0.62327 0.21562 0.80851 0.0
C1590 C 0.6353 0.23432 0.78989 0.0
C1591 C 0.63658 0.26137 0.80147 0.0
C1592 C 0.66193 0.22507 0.78132 0.0
C1593 C 0.61621 0.23301 0.76816 0.0
C1594 C 0.59662 0.21603 0.77356 0.0
C1595 C 0.57682 0.2116 0.75625 0.0
C1596 C 0.57675 0.22529 0.73309 0.0
C1597 C 0.59624 0.24339 0.72753 0.0
C1598 C 0.61635 0.24694 0.74527 0.0
H1599 H 0.54057 0.8582 0.57876 0.0
H1600 H 0.53667 0.94097 0.57043 0.0
H1601 H 0.52119 0.93595 0.52645 0.0
H1602 H 0.5608 0.84506 0.51211 0.0
H1603 H 0.54166 0.81644 0.50969 0.0
H1604 H 0.55446 0.82608 0.54025 0.0
H1605 H 0.5088 0.82572 0.55971 0.0
H1606 H 0.49593 0.81593 0.52931 0.0
H1607 H 0.48389 0.84435 0.54474 0.0
H1608 H 0.50252 0.92293 0.48554 0.0
H1609 H 0.48093 0.90195 0.44921 0.0
H1610 H 0.49794 0.82746 0.48172 0.0
C1611 C 0.53667 0.87523 0.56758 0.0
C1612 C 0.5399 0.89996 0.57812 0.0
C1613 C 0.53446 0.92178 0.56287 0.0
C1614 C 0.52574 0.91918 0.53776 0.0
C1615 C 0.52273 0.89464 0.52795 0.0
C1616 C 0.52803 0.873 0.54223 0.0
C1617 C 0.5218 0.84891 0.5272 0.0
C1618 C 0.54613 0.8332 0.522 0.0
C1619 C 0.50138 0.83279 0.54107 0.0
C1620 C 0.51139 0.86054 0.50267 0.0
C1621 C 0.5124 0.88698 0.50356 0.0
C1622 C 0.50209 0.90225 0.48431 0.0
C1623 C 0.48989 0.89021 0.46379 0.0
C1624 C 0.48835 0.86322 0.46258 0.0
C1625 C 0.49967 0.84813 0.48194 0.0
H1626 H 0.89372 0.78412 0.33453 0.0
H1627 H 0.81459 0.8 0.31433 0.0
H1628 H 0.82322 0.78694 0.27001 0.0
H1629 H 0.92195 0.80476 0.27245 0.0
H1630 H 0.94548 0.7795 0.2727 0.0
H1631 H 0.93406 0.79274 0.30246 0.0
H1632 H 0.92087 0.74739 0.31779 0.0
H1633 H 0.93236 0.73405 0.2882 0.0
H1634 H 0.89979 0.72838 0.29816 0.0
H1635 H 0.83831 0.76726 0.22975 0.0
H1636 H 0.8597 0.74229 0.19564 0.0
H1637 H 0.92953 0.74074 0.24027 0.0
C1638 C 0.87834 0.78524 0.32068 0.0
C1639 C 0.85349 0.79308 0.32799 0.0
C1640 C 0.8338 0.79402 0.30931 0.0
C1641 C 0.83852 0.78678 0.28398 0.0
C1642 C 0.86307 0.77884 0.27746 0.0
C1643 C 0.88274 0.77812 0.29517 0.0
C1644 C 0.9069 0.76711 0.28343 0.0
C1645 C 0.92837 0.78723 0.28272 0.0
C1646 C 0.91547 0.74279 0.29775 0.0
C1647 C 0.89742 0.76095 0.2567 0.0
C1648 C 0.87212 0.76812 0.25363 0.0
C1649 C 0.85831 0.76217 0.23159 0.0
C1650 C 0.87054 0.74807 0.21235 0.0
C1651 C 0.89631 0.74046 0.21521 0.0
C1652 C 0.91007 0.74733 0.23739 0.0
H1653 H 0.02579 0.1257 0.00271 0.0
H1654 H 0.98431 0.19373 0.97896 0.0
H1655 H 0.95828 0.19154 0.01844 0.0
H1656 H 0.97123 0.0929 0.02966 0.0
H1657 H 0.9895 0.07888 0.05537 0.0
H1658 H 0.00481 0.08614 0.02534 0.0
H1659 H 0.0385 0.11365 0.04925 0.0
H1660 H 0.0231 0.10663 0.0793 0.0
H1661 H 0.02795 0.13943 0.06964 0.0
H1662 H 0.93787 0.18271 0.06164 0.0
H1663 H 0.92201 0.1654 0.10292 0.0
H1664 H 0.9759 0.10243 0.09687 0.0
C1665 C 0.0112 0.14012 0.00576 0.0
C1666 C 0.00715 0.15994 0.98781 0.0
C1667 C 0.9877 0.17831 0.99242 0.0
C1668 C 0.97291 0.17732 0.01485 0.0
C1669 C 0.97763 0.15769 0.0323 0.0
C1670 C 0.99609 0.13923 0.02783 0.0
C1671 C 0.99696 0.11973 0.04923 0.0
C1672 C 0.99021 0.09283 0.0393 0.0
C1673 C 0.02318 0.11989 0.06264 0.0
C1674 C 0.97619 0.13015 0.0665 0.0
C1675 C 0.96541 0.15219 0.05661 0.0
C1676 C 0.94608 0.16539 0.06952 0.0
C1677 C 0.93729 0.15552 0.09297 0.0
C1678 C 0.94766 0.13257 0.10299 0.0
C1679 C 0.96747 0.11994 0.0896 0.0
H1680 H 0.25569 0.12188 0.21263 0.0
H1681 H 0.28917 0.08239 0.2777 0.0
H1682 H 0.24902 0.08955 0.30221 0.0
H1683 H 0.22158 0.16982 0.24728 0.0
H1684 H 0.19471 0.16932 0.22564 0.0
H1685 H 0.22619 0.16131 0.21415 0.0
H1686 H 0.20887 0.11781 0.19756 0.0
H1687 H 0.17741 0.1256 0.20932 0.0
H1688 H 0.19284 0.09643 0.21944 0.0
H1689 H 0.20464 0.10234 0.31951 0.0
H1690 H 0.16111 0.11931 0.32783 0.0
H1691 H 0.15776 0.14818 0.24996 0.0
C1692 C 0.25486 0.11481 0.2321 0.0
C1693 C 0.27573 0.10169 0.2433 0.0
C1694 C 0.27348 0.09258 0.26876 0.0
C1695 C 0.25074 0.09652 0.28276 0.0
C1696 C 0.23048 0.10937 0.2709 0.0
C1697 C 0.23245 0.11831 0.2461 0.0
C1698 C 0.20812 0.13126 0.2373 0.0
C1699 C 0.21295 0.1596 0.23072 0.0
C1700 C 0.19611 0.1169 0.21457 0.0
C1701 C 0.19203 0.12849 0.26113 0.0
C1702 C 0.20513 0.11588 0.28039 0.0
C1703 C 0.1942 0.11204 0.30447 0.0
C1704 C 0.16945 0.12169 0.30899 0.0
C1705 C 0.15592 0.13484 0.28947 0.0
C1706 C 0.16736 0.13788 0.26519 0.0
H1707 H 0.62601 0.51595 0.99374 0.0
H1708 H 0.70075 0.53736 0.02298 0.0
H1709 H 0.70013 0.49964 0.05174 0.0
H1710 H 0.60017 0.49095 0.05456 0.0
H1711 H 0.58292 0.46576 0.03847 0.0
H1712 H 0.58849 0.49582 0.02245 0.0
H1713 H 0.60983 0.47158 0.98474 0.0
H1714 H 0.60461 0.44154 0.00078 0.0
H1715 H 0.63649 0.45056 0.99104 0.0
H1716 H 0.69294 0.45634 0.07384 0.0
H1717 H 0.67827 0.41389 0.08944 0.0
H1718 H 0.6082 0.42256 0.04562 0.0
C1719 C 0.64207 0.51304 0.00653 0.0
C1720 C 0.66343 0.52961 0.00611 0.0
C1721 C 0.68407 0.52504 0.02312 0.0
C1722 C 0.68393 0.5036 0.03945 0.0
C1723 C 0.66287 0.48717 0.03873 0.0
C1724 C 0.64214 0.49196 0.02297 0.0
C1725 C 0.62225 0.47104 0.02487 0.0
C1726 C 0.59697 0.48152 0.03574 0.0
C1727 C 0.61807 0.45791 0.99881 0.0
C1728 C 0.63525 0.45332 0.04367 0.0
C1729 C 0.65863 0.46283 0.05158 0.0
C1730 C 0.67449 0.44892 0.06802 0.0
C1731 C 0.66609 0.42479 0.07669 0.0
C1732 C 0.64206 0.41493 0.06888 0.0
C1733 C 0.62657 0.42957 0.05221 0.0
H1734 H 0.22787 0.86851 0.70454 0.0
H1735 H 0.20794 0.92113 0.76573 0.0
H1736 H 0.2462 0.90705 0.78993 0.0
H1737 H 0.25338 0.81737 0.74527 0.0
H1738 H 0.2781 0.80951 0.72249 0.0
H1739 H 0.24801 0.82232 0.71154 0.0
H1740 H 0.2724 0.85852 0.68795 0.0
H1741 H 0.30247 0.8461 0.69925 0.0
H1742 H 0.29387 0.8789 0.70571 0.0
H1743 H 0.28854 0.88934 0.8058 0.0
H1744 H 0.33008 0.86791 0.81316 0.0
H1745 H 0.3218 0.82738 0.74107 0.0
C1746 C 0.23129 0.87692 0.72317 0.0
C1747 C 0.21491 0.896 0.73322 0.0
C1748 C 0.22013 0.9064 0.7577 0.0
C1749 C 0.24186 0.89858 0.77153 0.0
C1750 C 0.25798 0.88024 0.76067 0.0
C1751 C 0.25275 0.86936 0.73715 0.0
C1752 C 0.27341 0.85065 0.7292 0.0
C1753 C 0.26258 0.82335 0.72701 0.0
C1754 C 0.28629 0.85907 0.70405 0.0
C1755 C 0.29146 0.85309 0.7517 0.0
C1756 C 0.2822 0.87013 0.76972 0.0
C1757 C 0.29587 0.87583 0.7919 0.0
C1758 C 0.3195 0.86364 0.79586 0.0
C1759 C 0.32924 0.84598 0.77769 0.0
C1760 C 0.31494 0.84077 0.75534 0.0
H1761 H 0.8536 0.49722 0.46452 0.0
H1762 H 0.8196 0.46043 0.53093 0.0
H1763 H 0.82699 0.49988 0.55622 0.0
H1764 H 0.90274 0.53083 0.49764 0.0
H1765 H 0.90071 0.55868 0.47735 0.0
H1766 H 0.89235 0.52767 0.46489 0.0
H1767 H 0.84774 0.54504 0.4517 0.0
H1768 H 0.85588 0.57608 0.46432 0.0
H1769 H 0.82755 0.55982 0.47549 0.0
H1770 H 0.83933 0.54371 0.57433 0.0
H1771 H 0.85629 0.58699 0.5837 0.0
H1772 H 0.88081 0.59426 0.50461 0.0
C1773 C 0.84769 0.4973 0.48439 0.0
C1774 C 0.83605 0.47564 0.49573 0.0
C1775 C 0.82859 0.47676 0.52181 0.0
C1776 C 0.83264 0.49911 0.5363 0.0
C1777 C 0.84404 0.52016 0.52437 0.0
C1778 C 0.85144 0.51935 0.49899 0.0
C1779 C 0.86355 0.54426 0.49056 0.0
C1780 C 0.89149 0.5401 0.48213 0.0
C1781 C 0.84773 0.55705 0.46926 0.0
C1782 C 0.86204 0.55928 0.51522 0.0
C1783 C 0.8507 0.54517 0.53455 0.0
C1784 C 0.84808 0.55495 0.55927 0.0
C1785 C 0.85769 0.57958 0.56439 0.0
C1786 C 0.86973 0.59412 0.54486 0.0
C1787 C 0.87149 0.58383 0.51993 0.0
H1788 H 0.75507 0.41048 0.78023 0.0
H1789 H 0.80266 0.40162 0.71286 0.0
H1790 H 0.7642 0.38936 0.68763 0.0
H1791 H 0.71806 0.35815 0.77202 0.0
H1792 H 0.68848 0.372 0.7832 0.0
H1793 H 0.71851 0.38445 0.79438 0.0
H1794 H 0.70608 0.42989 0.77876 0.0
H1795 H 0.67573 0.41767 0.76778 0.0
H1796 H 0.69645 0.4346 0.74596 0.0
H1797 H 0.7219 0.37115 0.67241 0.0
H1798 H 0.67944 0.35124 0.6674 0.0
H1799 H 0.65968 0.37323 0.74501 0.0
C1800 C 0.75726 0.40664 0.75996 0.0
C1801 C 0.78164 0.40692 0.74834 0.0
C1802 C 0.78399 0.40173 0.72191 0.0
C1803 C 0.76229 0.39473 0.70754 0.0
C1804 C 0.73854 0.39367 0.71992 0.0
C1805 C 0.7359 0.40001 0.74545 0.0
C1806 C 0.70891 0.39549 0.75497 0.0
C1807 C 0.70849 0.37638 0.77745 0.0
C1808 C 0.69603 0.42093 0.76229 0.0
C1809 C 0.69696 0.3842 0.73121 0.0
C1810 C 0.7142 0.38362 0.71107 0.0
C1811 C 0.70812 0.37204 0.68787 0.0
C1812 C 0.68395 0.36061 0.68527 0.0
C1813 C 0.66614 0.36072 0.70579 0.0
C1814 C 0.67268 0.37313 0.72885 0.0
H1815 H 0.39329 0.91739 0.46164 0.0
H1816 H 0.32745 0.90955 0.41162 0.0
H1817 H 0.31159 0.95192 0.42619 0.0
H1818 H 0.35984 0.94654 0.51382 0.0
H1819 H 0.38629 0.96703 0.52229 0.0
H1820 H 0.39225 0.93657 0.50732 0.0
H1821 H 0.41804 0.9593 0.47148 0.0
H1822 H 0.41197 0.98988 0.4862 0.0
H1823 H 0.40316 0.98458 0.45326 0.0
H1824 H 0.30391 0.99605 0.4459 0.0
H1825 H 0.30276 0.0357 0.47182 0.0
H1826 H 0.37317 0.01282 0.50956 0.0
C1827 C 0.37552 0.92454 0.45368 0.0
C1828 C 0.36163 0.91028 0.4354 0.0
C1829 C 0.33833 0.92017 0.42571 0.0
C1830 C 0.32929 0.94424 0.43376 0.0
C1831 C 0.34369 0.95793 0.45163 0.0
C1832 C 0.36616 0.94822 0.46166 0.0
C1833 C 0.37778 0.9661 0.48121 0.0
C1834 C 0.3791 0.95329 0.50773 0.0
C1835 C 0.4043 0.97552 0.47251 0.0
C1836 C 0.35834 0.9875 0.48074 0.0
C1837 C 0.33895 0.98267 0.46338 0.0
C1838 C 0.31895 -5e-05 0.45959 0.0
C1839 C 0.31854 0.02247 0.47431 0.0
C1840 C 0.33784 0.0273 0.49276 0.0
C1841 C 0.35807 0.00964 0.4957 0.0
H1842 H 0.84158 0.64316 0.25575 0.0
H1843 H 0.84089 0.61323 0.17825 0.0
H1844 H 0.79812 0.59437 0.18606 0.0
H1845 H 0.80904 0.5895 0.28592 0.0
H1846 H 0.79169 0.60989 0.3077 0.0
H1847 H 0.82275 0.61948 0.29617 0.0
H1848 H 0.80336 0.66213 0.27966 0.0
H1849 H 0.77224 0.65256 0.29095 0.0
H1850 H 0.77664 0.66127 0.25784 0.0
H1851 H 0.75394 0.5804 0.20232 0.0
H1852 H 0.7136 0.57174 0.22591 0.0
H1853 H 0.74436 0.61174 0.29197 0.0
C1854 C 0.83266 0.63236 0.24048 0.0
C1855 C 0.84466 0.62961 0.21643 0.0
C1856 C 0.83214 0.61549 0.19691 0.0
C1857 C 0.8078 0.60475 0.20114 0.0
C1858 C 0.79631 0.60828 0.22499 0.0
C1859 C 0.80846 0.62163 0.24434 0.0
C1860 C 0.79192 0.62344 0.268 0.0
C1861 C 0.80461 0.60975 0.29079 0.0
C1862 C 0.78567 0.65151 0.27447 0.0
C1863 C 0.76842 0.60922 0.25892 0.0
C1864 C 0.77119 0.60051 0.23412 0.0
C1865 C 0.75164 0.58706 0.22179 0.0
C1866 C 0.72877 0.58229 0.2353 0.0
C1867 C 0.72572 0.59103 0.2608 0.0
C1868 C 0.74592 0.60472 0.27252 0.0
H1869 H 0.12203 0.98157 0.02202 0.0
H1870 H 0.19412 0.96589 0.9837 0.0
H1871 H 0.19106 0.00745 0.96118 0.0
H1872 H 0.09128 0.01451 0.96775 0.0
H1873 H 0.07515 0.03689 0.9885 0.0
H1874 H 0.08226 0.00504 -0.00029 0.0
H1875 H 0.10627 0.02434 0.03858 0.0
H1876 H 0.09967 0.05622 0.02727 0.0
H1877 H 0.13224 0.04645 0.03317 0.0
H1878 H 0.18218 0.05293 0.94645 0.0
H1879 H 0.16552 0.09624 0.93663 0.0
H1880 H 0.09883 0.08102 0.98386 0.0
C1881 C 0.13695 0.9866 0.00851 0.0
C1882 C 0.15832 0.97047 0.00462 0.0
C1883 C 0.17746 0.97783 0.98683 0.0
C1884 C 0.17597 0.00148 0.97408 0.0
C1885 C 0.15507 0.01733 0.97908 0.0
C1886 C 0.13566 0.00994 0.9955 0.0
C1887 C 0.1155 0.03059 0.99806 0.0
C1888 C 0.08951 0.02119 0.98789 0.0
C1889 C 0.11331 0.03994 0.02592 0.0
C1890 C 0.12683 0.05099 0.9809 0.0
C1891 C 0.14971 0.04309 0.9702 0.0
C1892 C 0.16412 0.05919 0.95447 0.0
C1893 C 0.15463 0.08381 0.94917 0.0
C1894 C 0.13087 0.09194 0.95942 0.0
C1895 C 0.11697 0.07528 0.97558 0.0
H1896 H 0.27928 0.17063 0.14775 0.0
H1897 H 0.33582 0.16187 0.08745 0.0
H1898 H 0.32495 0.20514 0.0712 0.0
H1899 H 0.23236 0.20357 0.1102 0.0
H1900 H 0.22246 0.22381 0.13634 0.0
H1901 H 0.23507 0.19239 0.14276 0.0
H1902 H 0.26927 0.21246 0.17259 0.0
H1903 H 0.257 0.24399 0.16591 0.0
H1904 H 0.29032 0.23693 0.16029 0.0
H1905 H 0.30784 0.25006 0.0622 0.0
H1906 H 0.28307 0.29035 0.05857 0.0
H1907 H 0.2384 0.26851 0.12519 0.0
C1908 C 0.28936 0.17771 0.13105 0.0
C1909 C 0.30841 0.16292 0.11885 0.0
C1910 C 0.32103 0.17285 0.09698 0.0
C1911 C 0.31513 0.19745 0.08776 0.0
C1912 C 0.29655 0.21172 0.10062 0.0
C1913 C 0.28368 0.20202 0.12162 0.0
C1914 C 0.26409 0.22071 0.13177 0.0
C1915 C 0.23689 0.20945 0.13015 0.0
C1916 C 0.27058 0.22901 0.15927 0.0
C1917 C 0.26774 0.24247 0.11308 0.0
C1918 C 0.28669 0.23715 0.09539 0.0
C1919 C 0.29298 0.25441 0.07598 0.0
C1920 C 0.27895 0.27732 0.07417 0.0
C1921 C 0.25877 0.28252 0.09155 0.0
C1922 C 0.25364 0.26507 0.11155 0.0
H1923 H 0.80129 0.32632 0.89973 0.0
H1924 H 0.79502 0.32118 0.8169 0.0
H1925 H 0.77921 0.27717 0.82074 0.0
H1926 H 0.82088 0.25908 0.91024 0.0
H1927 H 0.80226 0.25592 0.93914 0.0
H1928 H 0.81525 0.28665 0.93023 0.0
H1929 H 0.76986 0.30663 0.93212 0.0
H1930 H 0.75681 0.27606 0.94122 0.0
H1931 H 0.7444 0.29255 0.91355 0.0
H1932 H 0.76026 0.23595 0.83282 0.0
H1933 H 0.73837 0.19932 0.8532 0.0
H1934 H 0.75793 0.22898 0.92814 0.0
C1935 C 0.79683 0.31582 0.88243 0.0
C1936 C 0.79944 0.3273 0.85804 0.0
C1937 C 0.79321 0.31294 0.83585 0.0
C1938 C 0.78432 0.2878 0.83777 0.0
C1939 C 0.78189 0.27708 0.86199 0.0
C1940 C 0.78793 0.29051 0.88397 0.0
C1941 C 0.782 0.27474 0.90766 0.0
C1942 C 0.80657 0.26874 0.9227 0.0
C1943 C 0.76208 0.2883 0.92463 0.0
C1944 C 0.77104 0.25075 0.89547 0.0
C1945 C 0.77141 0.25253 0.86906 0.0
C1946 C 0.76034 0.23399 0.85344 0.0
C1947 C 0.74801 0.21329 0.86512 0.0
C1948 C 0.74715 0.21121 0.89207 0.0
C1949 C 0.75923 0.22983 0.90746 0.0
H1950 H 0.42134 0.03717 0.58548 0.0
H1951 H 0.398 0.07652 0.65484 0.0
H1952 H 0.44052 0.06773 0.67392 0.0
H1953 H 0.45529 0.98725 0.61582 0.0
H1954 H 0.47975 0.98563 0.59151 0.0
H1955 H 0.44813 0.99653 0.58335 0.0
H1956 H 0.46752 0.03853 0.56518 0.0
H1957 H 0.49921 0.02788 0.57368 0.0
H1958 H 0.48748 0.05817 0.58535 0.0
H1959 H 0.48578 0.0531 0.68571 0.0
H1960 H 0.52718 0.03028 0.6905 0.0
H1961 H 0.51964 0.00108 0.61316 0.0
C1962 C 0.42511 0.04405 0.60467 0.0
C1963 C 0.40633 0.05755 0.61866 0.0
C1964 C 0.41207 0.06605 0.64377 0.0
C1965 C 0.43623 0.06133 0.65469 0.0
C1966 C 0.4544 0.04815 0.6402 0.0
C1967 C 0.44896 0.03949 0.61579 0.0
C1968 C 0.47107 0.02459 0.60459 0.0
C1969 C 0.46308 0.99686 0.59848 0.0
C1970 C 0.48196 0.03811 0.5808 0.0
C1971 C 0.48967 0.02568 0.6267 0.0
C1972 C 0.48002 0.03968 0.64697 0.0
C1973 C 0.49359 0.04227 0.66987 0.0
C1974 C 0.51716 0.02942 0.67237 0.0
C1975 C 0.52659 0.01399 0.65219 0.0
C1976 C 0.51296 0.01284 0.62889 0.0
H1977 H 0.72349 0.65221 0.35922 0.0
H1978 H 0.66238 0.64895 0.41546 0.0
H1979 H 0.67452 0.69218 0.43083 0.0
H1980 H 0.7696 0.6864 0.3986 0.0
H1981 H 0.78159 0.70457 0.3718 0.0
H1982 H 0.76884 0.67292 0.36684 0.0
H1983 H 0.73716 0.69118 0.33332 0.0
H1984 H 0.74944 0.72296 0.33846 0.0
H1985 H 0.71572 0.71669 0.34234 0.0
H1986 H 0.69221 0.73734 0.43794 0.0
H1987 H 0.71585 0.77846 0.43848 0.0
H1988 H 0.76454 0.75092 0.37695 0.0
C1989 C 0.71283 0.66037 0.37503 0.0
C1990 C 0.69202 0.64721 0.38619 0.0
C1991 C 0.67856 0.65861 0.40679 0.0
C1992 C 0.68521 0.68321 0.41552 0.0
C1993 C 0.70542 0.69595 0.4035 0.0
C1994 C 0.71919 0.68471 0.3839 0.0
C1995 C 0.73973 0.70235 0.37371 0.0
C1996 C 0.76652 0.69088 0.37801 0.0
C1997 C 0.73522 0.70866 0.34528 0.0
C1998 C 0.73529 0.72548 0.39046 0.0
C1999 C 0.71544 0.72156 0.40753 0.0
C2000 C 0.70787 0.74053 0.42473 0.0
C2001 C 0.7213 0.76387 0.4248 0.0
C2002 C 0.74207 0.76795 0.40778 0.0
C2003 C 0.74881 0.74849 0.39026 0.0
H2004 H 0.99492 0.03947 0.13693 0.0
H2005 H 0.96581 0.97312 0.17786 0.0
H2006 H 0.00519 0.94921 0.16646 0.0
H2007 H 0.0232 0.00581 0.08516 0.0
H2008 H 0.05023 0.02714 0.0827 0.0
H2009 H 0.02011 0.03886 0.09465 0.0
H2010 H 0.0425 0.05449 0.13604 0.0
H2011 H 0.07273 0.04276 0.12429 0.0
H2012 H 0.06085 0.03216 0.15493 0.0
H2013 H 0.04772 0.93253 0.14953 0.0
H2014 H 0.08907 0.92422 0.12805 0.0
H2015 H 0.08951 0.00215 0.09895 0.0
C2016 C 0.99669 0.01991 0.14361 0.0
C2017 C 0.97721 0.00816 0.15831 0.0
C2018 C 0.98046 0.98252 0.16657 0.0
C2019 C 0.00276 0.96883 0.16023 0.0
C2020 C 0.02157 0.98112 0.14573 0.0
C2021 C 0.01868 0.0061 0.13755 0.0
C2022 C 0.04138 0.015 0.12191 0.0
C2023 C 0.03323 0.02211 0.09449 0.0
C2024 C 0.05518 0.03742 0.13509 0.0
C2025 C 0.05752 0.99101 0.12231 0.0
C2026 C 0.04588 0.97168 0.13621 0.0
C2027 C 0.05704 0.94757 0.13872 0.0
C2028 C 0.08054 0.94306 0.12647 0.0
C2029 C 0.09258 0.96257 0.11189 0.0
C2030 C 0.08093 0.98688 0.11009 0.0
H2031 H 0.28134 0.74321 0.61908 0.0
H2032 H 0.22025 0.71673 0.56929 0.0
H2033 H 0.19775 0.75811 0.57545 0.0
H2034 H 0.24225 0.77863 0.66371 0.0
H2035 H 0.26589 0.80353 0.66732 0.0
H2036 H 0.27579 0.77138 0.65985 0.0
H2037 H 0.30003 0.78858 0.62002 0.0
H2038 H 0.28969 0.82067 0.6272 0.0
H2039 H 0.28288 0.80689 0.59631 0.0
H2040 H 0.18247 0.8033 0.58705 0.0
H2041 H 0.17538 0.84711 0.60373 0.0
H2042 H 0.24794 0.84321 0.64405 0.0
C2043 C 0.26308 0.74582 0.60962 0.0
C2044 C 0.25252 0.72658 0.59375 0.0
C2045 C 0.22867 0.7311 0.58164 0.0
C2046 C 0.21581 0.75457 0.58496 0.0
C2047 C 0.22714 0.77327 0.60035 0.0
C2048 C 0.25022 0.76902 0.61253 0.0
C2049 C 0.25888 0.7922 0.62754 0.0
C2050 C 0.26079 0.78606 0.65631 0.0
C2051 C 0.28438 0.8027 0.61713 0.0
C2052 C 0.23703 0.8103 0.62201 0.0
C2053 C 0.21884 0.79913 0.60636 0.0
C2054 C 0.19667 0.8122 0.59923 0.0
C2055 C 0.19285 0.83711 0.60871 0.0
C2056 C 0.21121 0.84869 0.62502 0.0
C2057 C 0.23368 0.8351 0.63137 0.0
H2058 H 0.00868 0.49481 0.38414 0.0
H2059 H 0.01964 0.46955 0.30583 0.0
H2060 H 0.97604 0.45057 0.30611 0.0
H2061 H 0.97036 0.43963 0.40579 0.0
H2062 H 0.95077 0.45964 0.42596 0.0
H2063 H 0.98365 0.46818 0.41994 0.0
H2064 H 0.96876 0.51272 0.40374 0.0
H2065 H 0.93584 0.50413 0.40914 0.0
H2066 H 0.946 0.51459 0.37785 0.0
H2067 H 0.92892 0.43831 0.3143 0.0
H2068 H 0.88509 0.43035 0.33086 0.0
H2069 H 0.90663 0.46487 0.40328 0.0
C2070 C 0.00218 0.4848 0.36718 0.0
C2071 C 0.01751 0.48361 0.34496 0.0
C2072 C 0.00828 0.47041 0.32316 0.0
C2073 C 0.98349 0.45977 0.3231 0.0
C2074 C 0.96845 0.46231 0.34508 0.0
C2075 C 0.97774 0.47414 0.36685 0.0
C2076 C 0.95778 0.47546 0.38773 0.0
C2077 C 0.96614 0.45979 0.41124 0.0
C2078 C 0.95175 0.50338 0.39502 0.0
C2079 C 0.9355 0.46305 0.37421 0.0
C2080 C 0.94185 0.45546 0.34967 0.0
C2081 C 0.92386 0.44399 0.33357 0.0
C2082 C 0.89897 0.43974 0.34305 0.0
C2083 C 0.8924 0.44699 0.36836 0.0
C2084 C 0.91096 0.45903 0.38386 0.0
H2085 H 0.58152 0.52685 0.90776 0.0
H2086 H 0.60383 0.57139 0.8412 0.0
H2087 H 0.56192 0.56211 0.82112 0.0
H2088 H 0.54938 0.47754 0.87376 0.0
H2089 H 0.52487 0.47355 0.89775 0.0
H2090 H 0.55611 0.48484 0.90681 0.0
H2091 H 0.53536 0.52491 0.92758 0.0
H2092 H 0.50405 0.51388 0.91818 0.0
H2093 H 0.5149 0.54523 0.9086 0.0
H2094 H 0.51719 0.54703 0.80816 0.0
H2095 H 0.47615 0.52392 0.8019 0.0
H2096 H 0.48434 0.48967 0.87714 0.0
C2097 C 0.57765 0.53471 0.88896 0.0
C2098 C 0.59594 0.54987 0.87606 0.0
C2099 C 0.59012 0.55964 0.85142 0.0
C2100 C 0.5663 0.55463 0.83994 0.0
C2101 C 0.54856 0.53984 0.85337 0.0
C2102 C 0.55412 0.52984 0.87725 0.0
C2103 C 0.53243 0.51355 0.8873 0.0
C2104 C 0.54122 0.48573 0.89164 0.0
C2105 C 0.52101 0.52509 0.91187 0.0
C2106 C 0.51391 0.51555 0.86519 0.0
C2107 C 0.52327 0.53106 0.84589 0.0
C2108 C 0.50964 0.53495 0.82321 0.0
C2109 C 0.48627 0.52193 0.81988 0.0
C2110 C 0.4771 0.50505 0.83903 0.0
C2111 C 0.49084 0.50249 0.86216 0.0
H2112 H 0.96472 0.06877 0.24392 0.0
H2113 H 0.9073 0.12701 0.23065 0.0
H2114 H 0.927 0.15414 0.26425 0.0
H2115 H 0.97624 0.0808 0.31426 0.0
H2116 H 0.01023 0.07609 0.31052 0.0
H2117 H 0.9881 0.05881 0.29045 0.0
H2118 H 0.01106 0.07641 0.25011 0.0
H2119 H 0.03309 0.0938 0.26996 0.0
H2120 H 0.01453 0.11055 0.24615 0.0
H2121 H 0.95577 0.17675 0.29488 0.0
H2122 H 0.99324 0.19526 0.31662 0.0
H2123 H 0.03422 0.12353 0.30706 0.0
C2124 C 0.95577 0.08679 0.24898 0.0
C2125 C 0.93417 0.09568 0.23553 0.0
C2126 C 0.92354 0.11983 0.24137 0.0
C2127 C 0.93455 0.13522 0.26042 0.0
C2128 C 0.95636 0.12623 0.273 0.0
C2129 C 0.96696 0.10261 0.2674 0.0
C2130 C 0.99272 0.09923 0.28029 0.0
C2131 C 0.99175 0.07744 0.30006 0.0
C2132 C 0.01409 0.09475 0.26044 0.0
C2133 C 0.99543 0.125 0.29321 0.0
C2134 C 0.97392 0.13997 0.28944 0.0
C2135 C 0.97258 0.1651 0.29822 0.0
C2136 C 0.99403 0.17545 0.31055 0.0
C2137 C 0.01675 0.16087 0.31347 0.0
C2138 C 0.01712 0.13511 0.30524 0.0
H2139 H 0.57715 0.26735 0.03632 0.0
H2140 H 0.63957 0.28285 0.08863 0.0
H2141 H 0.66501 0.24815 0.06854 0.0
H2142 H 0.58699 0.1971 0.0284 0.0
H2143 H 0.58001 0.19847 0.99463 0.0
H2144 H 0.56492 0.22072 0.01629 0.0
H2145 H 0.58205 0.25868 0.98926 0.0
H2146 H 0.5972 0.23663 0.96762 0.0
H2147 H 0.61594 0.26112 0.98309 0.0
H2148 H 0.68448 0.21429 0.04095 0.0
H2149 H 0.6992 0.18785 0.00486 0.0
H2150 H 0.62549 0.19757 0.96761 0.0
C2151 C 0.59587 0.26278 0.04401 0.0
C2152 C 0.60633 0.27711 0.06434 0.0
C2153 C 0.63125 0.27164 0.0733 0.0
C2154 C 0.64569 0.25196 0.0621 0.0
C2155 C 0.635 0.23838 0.04172 0.0
C2156 C 0.61077 0.24376 0.03254 0.0
C2157 C 0.60519 0.22911 0.00815 0.0
C2158 C 0.58296 0.21023 0.01212 0.0
C2159 C 0.59979 0.24749 0.98571 0.0
C2160 C 0.63033 0.21514 0.00464 0.0
C2161 C 0.64694 0.22016 0.02462 0.0
C2162 C 0.6716 0.2101 0.02528 0.0
C2163 C 0.67975 0.19506 0.00465 0.0
C2164 C 0.66351 0.19072 0.98333 0.0
C2165 C 0.63831 0.20051 0.98364 0.0
H2166 H 0.51765 0.90654 0.69748 0.0
H2167 H 0.58425 0.91736 0.74582 0.0
H2168 H 0.56276 0.89315 0.78064 0.0
H2169 H 0.4718 0.91651 0.747 0.0
H2170 H 0.44939 0.8934 0.73457 0.0
H2171 H 0.47076 0.90995 0.71313 0.0
H2172 H 0.48787 0.86654 0.69617 0.0
H2173 H 0.46637 0.84985 0.71735 0.0
H2174 H 0.50023 0.84328 0.71849 0.0
H2175 H 0.53383 0.86626 0.80953 0.0
H2176 H 0.4992 0.8416 0.83078 0.0
H2177 H 0.45072 0.85276 0.76433 0.0
C2178 C 0.52789 0.90346 0.71525 0.0
C2179 C 0.55274 0.91336 0.71891 0.0
C2180 C 0.56525 0.90967 0.74266 0.0
C2181 C 0.5532 0.89599 0.76248 0.0
C2182 C 0.5285 0.88669 0.7583 0.0
C2183 C 0.51595 0.89051 0.73532 0.0
C2184 C 0.48906 0.87983 0.73595 0.0
C2185 C 0.46908 0.9012 0.73246 0.0
C2186 C 0.4857 0.85861 0.7158 0.0
C2187 C 0.48844 0.86912 0.7628 0.0
C2188 C 0.51142 0.87296 0.77537 0.0
C2189 C 0.51566 0.86344 0.79997 0.0
C2190 C 0.49595 0.84951 0.81189 0.0
C2191 C 0.47223 0.84573 0.79933 0.0
C2192 C 0.46845 0.85591 0.77462 0.0
H2193 H 0.86337 0.71909 0.55381 0.0
H2194 H 0.9414 0.74667 0.54606 0.0
H2195 H 0.92648 0.78104 0.51732 0.0
H2196 H 0.84429 0.72842 0.49113 0.0
H2197 H 0.81236 0.73933 0.4984 0.0
H2198 H 0.82875 0.71844 0.52031 0.0
H2199 H 0.82226 0.75137 0.55686 0.0
H2200 H 0.80572 0.77238 0.53502 0.0
H2201 H 0.8331 0.78388 0.5526 0.0
H2202 H 0.90426 0.80744 0.48389 0.0
H2203 H 0.87508 0.82738 0.45213 0.0
H2204 H 0.81113 0.78605 0.48508 0.0
C2205 C 0.87721 0.73267 0.54644 0.0
C2206 C 0.90351 0.73018 0.55208 0.0
C2207 C 0.9211 0.7483 0.54209 0.0
C2208 C 0.91284 0.76788 0.52572 0.0
C2209 C 0.88685 0.76948 0.52006 0.0
C2210 C 0.8692 0.75273 0.53056 0.0
C2211 C 0.84248 0.75816 0.52076 0.0
C2212 C 0.83133 0.7347 0.50682 0.0
C2213 C 0.82485 0.76698 0.54262 0.0
C2214 C 0.84805 0.77985 0.50233 0.0
C2215 C 0.87378 0.78606 0.50211 0.0
C2216 C 0.88394 0.80338 0.48445 0.0
C2217 C 0.86735 0.81454 0.46649 0.0
C2218 C 0.84095 0.80868 0.46682 0.0
C2219 C 0.83116 0.79147 0.48518 0.0
H2220 H 0.48582 0.4013 0.7906 0.0
H2221 H 0.41941 0.41123 0.74182 0.0
H2222 H 0.44186 0.38808 0.70684 0.0
H2223 H 0.53212 0.4129 0.74136 0.0
H2224 H 0.5548 0.39014 0.75397 0.0
H2225 H 0.53293 0.40624 0.77522 0.0
H2226 H 0.51642 0.36246 0.79195 0.0
H2227 H 0.53844 0.34625 0.77098 0.0
H2228 H 0.50472 0.33905 0.76945 0.0
H2229 H 0.47152 0.36138 0.67825 0.0
H2230 H 0.50644 0.33639 0.65784 0.0
H2231 H 0.5542 0.34893 0.72452 0.0
C2232 C 0.47584 0.3983 0.77267 0.0
C2233 C 0.45075 0.40753 0.76896 0.0
C2234 C 0.43858 0.40399 0.74502 0.0
C2235 C 0.45119 0.39094 0.72511 0.0
C2236 C 0.4761 0.38222 0.72939 0.0
C2237 C 0.48833 0.38605 0.75253 0.0
C2238 C 0.5154 0.37587 0.75217 0.0
C2239 C 0.53496 0.39759 0.7559 0.0
C2240 C 0.51894 0.35465 0.77233 0.0
C2241 C 0.51647 0.36528 0.72532 0.0
C2242 C 0.4936 0.36882 0.71247 0.0
C2243 C 0.48965 0.35891 0.68798 0.0
C2244 C 0.50952 0.3448 0.67654 0.0
C2245 C 0.5331 0.34128 0.68943 0.0
C2246 C 0.53663 0.35199 0.71393 0.0
H2247 H 0.34476 0.72739 0.54022 0.0
H2248 H 0.34093 0.65825 0.4946 0.0
H2249 H 0.36288 0.68087 0.45879 0.0
H2250 H 0.3293 0.76954 0.48869 0.0
H2251 H 0.34941 0.79508 0.50028 0.0
H2252 H 0.3354 0.77274 0.52251 0.0
H2253 H 0.38043 0.76177 0.54033 0.0
H2254 H 0.39457 0.78424 0.51833 0.0
H2255 H 0.40521 0.7514 0.51863 0.0
H2256 H 0.38755 0.71161 0.42901 0.0
H2257 H 0.4084 0.74817 0.40673 0.0
H2258 H 0.39016 0.79746 0.47092 0.0
C2259 C 0.34896 0.71689 0.52283 0.0
C2260 C 0.3419 0.691 0.52021 0.0
C2261 C 0.34668 0.67804 0.49693 0.0
C2262 C 0.35905 0.69074 0.47659 0.0
C2263 C 0.36568 0.71647 0.47979 0.0
C2264 C 0.36038 0.72942 0.50225 0.0
C2265 C 0.36772 0.75732 0.50058 0.0
C2266 C 0.34405 0.77468 0.50316 0.0
C2267 C 0.3882 0.76406 0.52065 0.0
C2268 C 0.37848 0.75813 0.47379 0.0
C2269 C 0.37752 0.73438 0.46211 0.0
C2270 C 0.38797 0.73035 0.43783 0.0
C2271 C 0.39973 0.75114 0.42534 0.0
C2272 C 0.40031 0.77562 0.43695 0.0
C2273 C 0.38933 0.77908 0.46133 0.0
H2274 H 0.96048 0.64553 0.23833 0.0
H2275 H 0.01229 0.65479 0.17411 0.0
H2276 H 0.04682 0.63363 0.19906 0.0
H2277 H 0.00809 0.65876 0.2876 0.0
H2278 H 0.99431 0.63607 0.30968 0.0
H2279 H 0.97421 0.65221 0.28676 0.0
H2280 H 0.95818 0.60842 0.26968 0.0
H2281 H 0.97806 0.59218 0.29264 0.0
H2282 H 0.98118 0.58498 0.25904 0.0
H2283 H 0.0739 0.60724 0.23002 0.0
H2284 H 0.09202 0.58091 0.26515 0.0
H2285 H 0.0233 0.59357 0.30996 0.0
C2286 C 0.97911 0.64307 0.22952 0.0
C2287 C 0.98378 0.65134 0.20426 0.0
C2288 C 0.00845 0.64837 0.19346 0.0
C2289 C 0.0281 0.63646 0.20748 0.0
C2290 C 0.0228 0.62838 0.23241 0.0
C2291 C 0.99898 0.63195 0.24341 0.0
C2292 C 0.99801 0.62176 0.27046 0.0
C2293 C 0.99339 0.6435 0.28976 0.0
C2294 C 0.97766 0.60058 0.27309 0.0
C2295 C 0.02479 0.61114 0.27281 0.0
C2296 C 0.03884 0.61498 0.25068 0.0
C2297 C 0.06329 0.60464 0.24764 0.0
C2298 C 0.07342 0.58973 0.26762 0.0
C2299 C 0.05923 0.58573 0.29037 0.0
C2300 C 0.03488 0.59702 0.29309 0.0
H2301 H 0.13082 0.30747 0.03419 0.0
H2302 H 0.20167 0.31403 0.99129 0.0
H2303 H 0.18312 0.2878 0.95667 0.0
H2304 H 0.11889 0.24498 0.02186 0.0
H2305 H 0.08465 0.24757 0.01843 0.0
H2306 H 0.1017 0.27037 0.03772 0.0
H2307 H 0.08318 0.30771 0.01077 0.0
H2308 H 0.06574 0.28499 0.99151 0.0
H2309 H 0.08711 0.30757 0.97648 0.0
H2310 H 0.16028 0.25365 0.93151 0.0
H2311 H 0.13248 0.21867 0.91519 0.0
H2312 H 0.07548 0.23718 0.97243 0.0
C2313 C 0.14213 0.30406 0.01714 0.0
C2314 C 0.16765 0.31277 0.01541 0.0
C2315 C 0.18197 0.30776 0.99291 0.0
C2316 C 0.17162 0.29281 0.97316 0.0
C2317 C 0.14673 0.28359 0.97594 0.0
C2318 C 0.13192 0.28958 0.99708 0.0
C2319 C 0.10638 0.27594 0.9963 0.0
C2320 C 0.10272 0.2587 0.01997 0.0
C2321 C 0.08429 0.29521 0.9936 0.0
C2322 C 0.10966 0.26029 0.97218 0.0
C2323 C 0.13302 0.26498 0.9606 0.0
C2324 C 0.14158 0.25044 0.93985 0.0
C2325 C 0.12582 0.23062 0.93077 0.0
C2326 C 0.10181 0.22594 0.94226 0.0
C2327 C 0.0935 0.24113 0.96291 0.0
H2328 H 0.20838 0.97525 0.10254 0.0
H2329 H 0.25832 0.90967 0.09275 0.0
H2330 H 0.29378 0.93378 0.11342 0.0
H2331 H 0.25512 0.02137 0.08576 0.0
H2332 H 0.24346 0.04518 0.10786 0.0
H2333 H 0.22176 0.02188 0.09465 0.0
H2334 H 0.20844 0.00773 0.14037 0.0
H2335 H 0.22983 0.03123 0.15372 0.0
H2336 H 0.23276 0.99807 0.16288 0.0
H2337 H 0.32322 0.96571 0.13681 0.0
H2338 H 0.34447 0.00304 0.15732 0.0
H2339 H 0.27572 0.04811 0.14608 0.0
C2340 C 0.22662 0.96574 0.10523 0.0
C2341 C 0.23056 0.94046 0.09668 0.0
C2342 C 0.25493 0.92896 0.09959 0.0
C2343 C 0.27511 0.94251 0.11123 0.0
C2344 C 0.27062 0.96764 0.11917 0.0
C2345 C 0.24699 0.97915 0.116 0.0
C2346 C 0.24726 0.0068 0.1244 0.0
C2347 C 0.24157 0.02486 0.10182 0.0
C2348 C 0.22847 0.0112 0.14667 0.0
C2349 C 0.27471 0.00914 0.13307 0.0
C2350 C 0.28789 0.98634 0.13034 0.0
C2351 C 0.31317 0.98373 0.13865 0.0
C2352 C 0.32509 0.00495 0.1502 0.0
C2353 C 0.31186 0.02848 0.15264 0.0
C2354 C 0.28651 0.03055 0.14371 0.0
H2355 H 0.77625 0.44819 0.85237 0.0
H2356 H 0.84358 0.4958 0.84275 0.0
H2357 H 0.82093 0.53193 0.86369 0.0
H2358 H 0.73157 0.49683 0.83674 0.0
H2359 H 0.7076 0.48602 0.85913 0.0
H2360 H 0.72983 0.46347 0.84548 0.0
H2361 H 0.74407 0.44934 0.8909 0.0
H2362 H 0.72159 0.47154 0.90469 0.0
H2363 H 0.75494 0.47314 0.9134 0.0
H2364 H 0.7905 0.56252 0.88634 0.0
H2365 H 0.75468 0.58532 0.90751 0.0
H2366 H 0.70659 0.51823 0.89813 0.0
C2367 C 0.78643 0.46605 0.85521 0.0
C2368 C 0.81177 0.4692 0.84643 0.0
C2369 C 0.8242 0.49307 0.8496 0.0
C2370 C 0.81149 0.51362 0.86141 0.0
C2371 C 0.78624 0.51002 0.8694 0.0
C2372 C 0.77384 0.48683 0.8663 0.0
C2373 C 0.74631 0.48819 0.87513 0.0
C2374 C 0.72774 0.48334 0.85279 0.0
C2375 C 0.74145 0.46945 0.89735 0.0
C2376 C 0.74514 0.5157 0.88398 0.0
C2377 C 0.76838 0.52797 0.88075 0.0
C2378 C 0.77215 0.55318 0.88871 0.0
C2379 C 0.75173 0.56598 0.90063 0.0
C2380 C 0.72779 0.55367 0.90403 0.0
C2381 C 0.72447 0.52835 0.89523 0.0
H2382 H 0.2567 0.04493 0.561 0.0
H2383 H 0.2872 0.08858 0.62446 0.0
H2384 H 0.25484 0.06919 0.65335 0.0
H2385 H 0.18808 0.04173 0.58195 0.0
H2386 H 0.18518 0.00891 0.57167 0.0
H2387 H 0.20654 0.0304 0.55507 0.0
H2388 H 0.24412 0.9989 0.56271 0.0
H2389 H 0.22299 0.97743 0.57937 0.0
H2390 H 0.25157 0.98894 0.59492 0.0
H2391 H 0.22216 0.04213 0.6758 0.0
H2392 H 0.19573 0.0062 0.69137 0.0
H2393 H 0.18969 0.97702 0.61387 0.0
C2394 C 0.2558 0.05106 0.58079 0.0
C2395 C 0.2737 0.06871 0.59056 0.0
C2396 C 0.27312 0.07546 0.61672 0.0
C2397 C 0.2548 0.06461 0.63315 0.0
C2398 C 0.23765 0.04676 0.62308 0.0
C2399 C 0.23819 0.03982 0.59753 0.0
C2400 C 0.22066 0.01732 0.59232 0.0
C2401 C 0.19882 0.02506 0.57418 0.0
C2402 C 0.23574 0.9943 0.58172 0.0
C2403 C 0.21074 0.01214 0.61904 0.0
C2404 C 0.22013 0.02983 0.63636 0.0
C2405 C 0.21448 0.02835 0.66238 0.0
C2406 C 0.19936 0.00791 0.67103 0.0
C2407 C 0.1906 0.9889 0.65379 0.0
C2408 C 0.19602 0.99136 0.62742 0.0
H2409 H 0.70794 0.50373 0.31886 0.0
H2410 H 0.65244 0.51977 0.37823 0.0
H2411 H 0.67044 0.48462 0.40462 0.0
H2412 H 0.7158 0.43243 0.33042 0.0
H2413 H 0.74985 0.43447 0.3251 0.0
H2414 H 0.72845 0.45567 0.30822 0.0
H2415 H 0.75367 0.49481 0.32537 0.0
H2416 H 0.77501 0.47383 0.34228 0.0
H2417 H 0.75798 0.49848 0.35942 0.0
H2418 H 0.69793 0.45232 0.42662 0.0
H2419 H 0.73515 0.42979 0.44481 0.0
H2420 H 0.77525 0.43765 0.37243 0.0
C2421 C 0.69896 0.49896 0.33695 0.0
C2422 C 0.67841 0.51365 0.34638 0.0
C2423 C 0.66783 0.50812 0.37063 0.0
C2424 C 0.67787 0.48818 0.3856 0.0
C2425 C 0.6987 0.47436 0.3761 0.0
C2426 C 0.70925 0.47965 0.35237 0.0
C2427 C 0.73427 0.46551 0.34852 0.0
C2428 C 0.73194 0.44584 0.32677 0.0
C2429 C 0.75653 0.48428 0.34363 0.0
C2430 C 0.7368 0.45238 0.37423 0.0
C2431 C 0.71565 0.45696 0.3895 0.0
C2432 C 0.71441 0.4483 0.41471 0.0
C2433 C 0.73568 0.43546 0.42487 0.0
C2434 C 0.75814 0.43199 0.41003 0.0
C2435 C 0.75829 0.43987 0.38416 0.0
loop_
_geom_bond_atom_site_label_1
_geom_bond_atom_site_label_2
_geom_bond_distance
_geom_bond_site_symmetry_2
_ccdc_geom_bond_type
Co0 O3 1.970 . S
Co0 N17 1.989 . S
Co0 O25 1.967 . S
Co0 O32 1.920 . S
Co1 O4 1.966 . S
Co1 N10 2.022 . S
Co1 N18 1.993 . S
Co1 O26 1.941 . S
C2 O3 1.258 . S
C2 O4 1.263 . S
O3 Co0 1.970 . S
O3 C2 1.258 . S
O4 Co1 1.966 . S
O4 C2 1.263 . S
C5 O6 1.235 . S
C5 O32 1.289 . S
O6 C5 1.235 . S
C7 C9 1.400 . S
C7 N10 1.351 . S
C7 C12 1.501 . S
C8 C9 1.387 . S
C8 N11 1.341 . S
C9 C7 1.400 . S
C9 C8 1.387 . S
N10 Co1 2.022 . S
N10 C7 1.351 . S
N10 N11 1.365 . S
N11 C8 1.341 . S
N11 N10 1.365 . S
N11 H31 0.862 . S
C12 C7 1.501 . S
C12 H13 0.961 . S
C12 H14 0.961 . S
C12 H15 0.960 1_455 S
H13 C12 0.961 . S
H14 C12 0.961 . S
H15 C12 0.960 1_655 S
C16 N17 1.342 . S
C16 C20 1.401 . S
C16 C21 1.499 . S
N17 Co0 1.989 . S
N17 C16 1.342 . S
N17 N18 1.388 . S
N18 Co1 1.993 . S
N18 N17 1.388 . S
N18 C19 1.346 . S
C19 N18 1.346 . S
C19 C20 1.396 . S
C19 C29 1.510 . S
C20 C16 1.401 . S
C20 C19 1.396 . S
C21 C16 1.499 . S
C21 H22 0.959 . S
C21 H23 0.960 . S
C21 H24 0.961 . S
H22 C21 0.959 . S
H23 C21 0.960 . S
H24 C21 0.961 . S
O25 Co0 1.967 . S
O25 C33 1.258 . S
O26 Co1 1.941 . S
O26 C33 1.266 . S
H27 C29 0.959 . S
H28 C29 0.961 . S
C29 C19 1.510 . S
C29 H27 0.959 . S
C29 H28 0.961 . S
C29 H30 0.960 . S
H30 C29 0.960 . S
H31 N11 0.862 . S
O32 Co0 1.920 . S
O32 C5 1.289 . S
C33 O25 1.258 . S
C33 O26 1.266 . S
Co34 O37 1.970 . S
Co34 N51 1.989 . S
Co34 O59 1.967 . S
Co34 O66 1.920 . S
Co35 O38 1.966 . S
Co35 N44 2.022 . S
Co35 N52 1.993 . S
Co35 O60 1.941 . S
C36 O37 1.258 . S
C36 O38 1.263 . S
O37 Co34 1.970 . S
O37 C36 1.258 . S
O38 Co35 1.966 . S
O38 C36 1.263 . S
C39 O40 1.235 . S
C39 O66 1.289 . S
O40 C39 1.235 . S
C41 C43 1.400 . S
C41 N44 1.351 . S
C41 C46 1.501 . S
C42 C43 1.387 . S
C42 N45 1.341 . S
C43 C41 1.400 . S
C43 C42 1.387 . S
N44 Co35 2.022 . S
N44 C41 1.351 . S
N44 N45 1.365 . S
N45 C42 1.341 . S
N45 N44 1.365 . S
N45 H65 0.862 . S
C46 C41 1.501 . S
C46 H47 0.961 . S
C46 H48 0.961 . S
C46 H49 0.960 . S
H47 C46 0.961 . S
H48 C46 0.961 . S
H49 C46 0.960 . S
C50 N51 1.342 . S
C50 C54 1.401 . S
C50 C55 1.499 . S
N51 Co34 1.989 . S
N51 C50 1.342 . S
N51 N52 1.388 . S
N52 Co35 1.993 . S
N52 N51 1.388 . S
N52 C53 1.346 . S
C53 N52 1.346 . S
C53 C54 1.396 . S
C53 C63 1.510 . S
C54 C50 1.401 . S
C54 C53 1.396 . S
C55 C50 1.499 . S
C55 H56 0.959 . S
C55 H57 0.960 . S
C55 H58 0.961 . S
H56 C55 0.959 . S
H57 C55 0.960 . S
H58 C55 0.961 . S
O59 Co34 1.967 . S
O59 C67 1.258 . S
O60 Co35 1.941 . S
O60 C67 1.266 . S
H61 C63 0.959 . S
H62 C63 0.961 . S
C63 C53 1.510 . S
C63 H61 0.959 . S
C63 H62 0.961 . S
C63 H64 0.960 . S
H64 C63 0.960 . S
H65 N45 0.862 . S
O66 Co34 1.920 . S
O66 C39 1.289 . S
C67 O59 1.258 . S
C67 O60 1.266 . S
Co68 O71 1.970 . S
Co68 N85 1.989 . S
Co68 O93 1.967 . S
Co68 O100 1.920 . S
Co69 O72 1.966 . S
Co69 N78 2.022 . S
Co69 N86 1.993 . S
Co69 O94 1.941 . S
C70 O71 1.258 . S
C70 O72 1.263 . S
O71 Co68 1.970 . S
O71 C70 1.258 . S
O72 Co69 1.966 . S
O72 C70 1.263 . S
C73 O74 1.235 . S
C73 O100 1.289 . S
O74 C73 1.235 . S
C75 C77 1.400 . S
C75 N78 1.351 . S
C75 C80 1.501 . S
C76 C77 1.387 . S
C76 N79 1.341 . S
C77 C75 1.400 . S
C77 C76 1.387 . S
N78 Co69 2.022 . S
N78 C75 1.351 . S
N78 N79 1.365 . S
N79 C76 1.341 . S
N79 N78 1.365 . S
N79 H99 0.862 . S
C80 C75 1.501 . S
C80 H81 0.961 . S
C80 H82 0.961 . S
C80 H83 0.960 . S
H81 C80 0.961 . S
H82 C80 0.961 . S
H83 C80 0.960 . S
C84 N85 1.342 . S
C84 C88 1.401 . S
C84 C89 1.499 . S
N85 Co68 1.989 . S
N85 C84 1.342 . S
N85 N86 1.388 . S
N86 Co69 1.993 . S
N86 N85 1.388 . S
N86 C87 1.346 . S
C87 N86 1.346 . S
C87 C88 1.396 . S
C87 C97 1.510 . S
C88 C84 1.401 . S
C88 C87 1.396 . S
C89 C84 1.499 . S
C89 H90 0.959 . S
C89 H91 0.960 . S
C89 H92 0.961 . S
H90 C89 0.959 . S
H91 C89 0.960 . S
H92 C89 0.961 . S
O93 Co68 1.967 . S
O93 C101 1.258 . S
O94 Co69 1.941 . S
O94 C101 1.266 . S
H95 C97 0.959 . S
H96 C97 0.961 . S
C97 C87 1.510 . S
C97 H95 0.959 . S
C97 H96 0.961 . S
C97 H98 0.960 . S
H98 C97 0.960 . S
H99 N79 0.862 . S
O100 Co68 1.920 . S
O100 C73 1.289 . S
C101 O93 1.258 . S
C101 O94 1.266 . S
Co102 O105 1.970 . S
Co102 N119 1.989 . S
Co102 O127 1.967 . S
Co102 O134 1.920 . S
Co103 O106 1.966 . S
Co103 N112 2.022 . S
Co103 N120 1.993 . S
Co103 O128 1.941 . S
C104 O105 1.258 . S
C104 O106 1.263 . S
O105 Co102 1.970 . S
O105 C104 1.258 . S
O106 Co103 1.966 . S
O106 C104 1.263 . S
C107 O108 1.235 . S
C107 O134 1.289 . S
O108 C107 1.235 . S
C109 C111 1.400 . S
C109 N112 1.351 . S
C109 C114 1.501 . S
C110 C111 1.387 1_455 S
C110 N113 1.341 1_455 S
C111 C109 1.400 . S
C111 C110 1.387 1_655 S
N112 Co103 2.022 . S
N112 C109 1.351 . S
N112 N113 1.365 . S
N113 C110 1.341 1_655 S
N113 N112 1.365 . S
N113 H133 0.862 1_655 S
C114 C109 1.501 . S
C114 H115 0.961 . S
C114 H116 0.961 . S
C114 H117 0.960 . S
H115 C114 0.961 . S
H116 C114 0.961 . S
H117 C114 0.960 . S
C118 N119 1.342 . S
C118 C122 1.401 . S
C118 C123 1.499 . S
N119 Co102 1.989 . S
N119 C118 1.342 . S
N119 N120 1.388 . S
N120 Co103 1.993 . S
N120 N119 1.388 . S
N120 C121 1.346 . S
C121 N120 1.346 . S
C121 C122 1.396 . S
C121 C131 1.510 . S
C122 C118 1.401 . S
C122 C121 1.396 . S
C123 C118 1.499 . S
C123 H124 0.959 . S
C123 H125 0.960 . S
C123 H126 0.961 . S
H124 C123 0.959 . S
H125 C123 0.960 . S
H126 C123 0.961 . S
O127 Co102 1.967 . S
O127 C135 1.258 . S
O128 Co103 1.941 . S
O128 C135 1.266 . S
H129 C131 0.959 . S
H130 C131 0.961 . S
C131 C121 1.510 . S
C131 H129 0.959 . S
C131 H130 0.961 . S
C131 H132 0.960 . S
H132 C131 0.960 . S
H133 N113 0.862 1_455 S
O134 Co102 1.920 . S
O134 C107 1.289 . S
C135 O127 1.258 . S
C135 O128 1.266 . S
Co136 O139 1.970 . S
Co136 N153 1.989 . S
Co136 O161 1.967 . S
Co136 O168 1.920 . S
Co137 O140 1.966 . S
Co137 N146 2.022 . S
Co137 N154 1.993 . S
Co137 O162 1.941 . S
C138 O139 1.258 . S
C138 O140 1.263 . S
O139 Co136 1.970 . S
O139 C138 1.258 . S
O140 Co137 1.966 . S
O140 C138 1.263 . S
C141 O142 1.235 . S
C141 O168 1.289 . S
O142 C141 1.235 . S
C143 C145 1.400 . S
C143 N146 1.351 . S
C143 C148 1.501 . S
C144 C145 1.387 . S
C144 N147 1.341 . S
C145 C143 1.400 . S
C145 C144 1.387 . S
N146 Co137 2.022 . S
N146 C143 1.351 . S
N146 N147 1.365 . S
N147 C144 1.341 . S
N147 N146 1.365 . S
N147 H167 0.862 . S
C148 C143 1.501 . S
C148 H149 0.961 . S
C148 H150 0.961 . S
C148 H151 0.960 . S
H149 C148 0.961 . S
H150 C148 0.961 . S
H151 C148 0.960 . S
C152 N153 1.342 . S
C152 C156 1.401 . S
C152 C157 1.499 . S
N153 Co136 1.989 . S
N153 C152 1.342 . S
N153 N154 1.388 . S
N154 Co137 1.993 . S
N154 N153 1.388 . S
N154 C155 1.346 . S
C155 N154 1.346 . S
C155 C156 1.396 . S
C155 C165 1.510 . S
C156 C152 1.401 . S
C156 C155 1.396 . S
C157 C152 1.499 . S
C157 H158 0.959 . S
C157 H159 0.960 . S
C157 H160 0.961 . S
H158 C157 0.959 . S
H159 C157 0.960 . S
H160 C157 0.961 . S
O161 Co136 1.967 . S
O161 C169 1.258 . S
O162 Co137 1.941 . S
O162 C169 1.266 . S
H163 C165 0.959 . S
H164 C165 0.961 . S
C165 C155 1.510 . S
C165 H163 0.959 . S
C165 H164 0.961 . S
C165 H166 0.960 . S
H166 C165 0.960 . S
H167 N147 0.862 . S
O168 Co136 1.920 . S
O168 C141 1.289 . S
C169 O161 1.258 . S
C169 O162 1.266 . S
Co170 O173 1.970 . S
Co170 N187 1.989 . S
Co170 O195 1.967 . S
Co170 O202 1.920 . S
Co171 O174 1.966 . S
Co171 N180 2.022 . S
Co171 N188 1.993 . S
Co171 O196 1.941 . S
C172 O173 1.258 . S
C172 O174 1.263 . S
O173 Co170 1.970 . S
O173 C172 1.258 . S
O174 Co171 1.966 . S
O174 C172 1.263 . S
C175 O176 1.235 . S
C175 O202 1.289 . S
O176 C175 1.235 . S
C177 C179 1.400 . S
C177 N180 1.351 . S
C177 C182 1.501 . S
C178 C179 1.387 . S
C178 N181 1.341 . S
C179 C177 1.400 . S
C179 C178 1.387 . S
N180 Co171 2.022 . S
N180 C177 1.351 . S
N180 N181 1.365 . S
N181 C178 1.341 . S
N181 N180 1.365 . S
N181 H201 0.862 . S
C182 C177 1.501 . S
C182 H183 0.961 . S
C182 H184 0.961 . S
C182 H185 0.960 . S
H183 C182 0.961 . S
H184 C182 0.961 . S
H185 C182 0.960 . S
C186 N187 1.342 . S
C186 C190 1.401 . S
C186 C191 1.499 . S
N187 Co170 1.989 . S
N187 C186 1.342 . S
N187 N188 1.388 . S
N188 Co171 1.993 . S
N188 N187 1.388 . S
N188 C189 1.346 . S
C189 N188 1.346 . S
C189 C190 1.396 . S
C189 C199 1.510 . S
C190 C186 1.401 . S
C190 C189 1.396 . S
C191 C186 1.499 . S
C191 H192 0.959 . S
C191 H193 0.960 . S
C191 H194 0.961 . S
H192 C191 0.959 . S
H193 C191 0.960 . S
H194 C191 0.961 . S
O195 Co170 1.967 . S
O195 C203 1.258 . S
O196 Co171 1.941 . S
O196 C203 1.266 . S
H197 C199 0.959 . S
H198 C199 0.961 . S
C199 C189 1.510 . S
C199 H197 0.959 . S
C199 H198 0.961 . S
C199 H200 0.960 . S
H200 C199 0.960 . S
H201 N181 0.862 . S
O202 Co170 1.920 . S
O202 C175 1.289 . S
C203 O195 1.258 . S
C203 O196 1.266 . S
Co204 O207 1.970 . S
Co204 N221 1.989 . S
Co204 O229 1.967 . S
Co204 O236 1.920 . S
Co205 O208 1.966 . S
Co205 N214 2.022 . S
Co205 N222 1.993 . S
Co205 O230 1.941 . S
C206 O207 1.258 . S
C206 O208 1.263 . S
O207 Co204 1.970 . S
O207 C206 1.258 . S
O208 Co205 1.966 . S
O208 C206 1.263 . S
C209 O210 1.235 . S
C209 O236 1.289 . S
O210 C209 1.235 . S
C211 C213 1.400 . S
C211 N214 1.351 . S
C211 C216 1.501 . S
C212 C213 1.387 . S
C212 N215 1.341 . S
C213 C211 1.400 . S
C213 C212 1.387 . S
N214 Co205 2.022 . S
N214 C211 1.351 . S
N214 N215 1.365 . S
N215 C212 1.341 . S
N215 N214 1.365 . S
N215 H235 0.862 . S
C216 C211 1.501 . S
C216 H217 0.961 . S
C216 H218 0.961 . S
C216 H219 0.960 1_655 S
H217 C216 0.961 . S
H218 C216 0.961 . S
H219 C216 0.960 1_455 S
C220 N221 1.342 . S
C220 C224 1.401 . S
C220 C225 1.499 . S
N221 Co204 1.989 . S
N221 C220 1.342 . S
N221 N222 1.388 . S
N222 Co205 1.993 . S
N222 N221 1.388 . S
N222 C223 1.346 . S
C223 N222 1.346 . S
C223 C224 1.396 . S
C223 C233 1.510 . S
C224 C220 1.401 . S
C224 C223 1.396 . S
C225 C220 1.499 . S
C225 H226 0.959 . S
C225 H227 0.960 . S
C225 H228 0.961 . S
H226 C225 0.959 . S
H227 C225 0.960 . S
H228 C225 0.961 . S
O229 Co204 1.967 . S
O229 C237 1.258 . S
O230 Co205 1.941 . S
O230 C237 1.266 . S
H231 C233 0.959 . S
H232 C233 0.961 . S
C233 C223 1.510 . S
C233 H231 0.959 . S
C233 H232 0.961 . S
C233 H234 0.960 . S
H234 C233 0.960 . S
H235 N215 0.862 . S
O236 Co204 1.920 . S
O236 C209 1.289 . S
C237 O229 1.258 . S
C237 O230 1.266 . S
Co238 O241 1.970 . S
Co238 N255 1.989 . S
Co238 O263 1.967 . S
Co238 O270 1.920 . S
Co239 O242 1.966 . S
Co239 N248 2.022 . S
Co239 N256 1.993 . S
Co239 O264 1.941 . S
C240 O241 1.258 . S
C240 O242 1.263 . S
O241 Co238 1.970 . S
O241 C240 1.258 . S
O242 Co239 1.966 . S
O242 C240 1.263 . S
C243 O244 1.235 . S
C243 O270 1.289 . S
O244 C243 1.235 . S
C245 C247 1.400 . S
C245 N248 1.351 . S
C245 C250 1.501 . S
C246 C247 1.387 1_655 S
C246 N249 1.341 1_655 S
C247 C245 1.400 . S
C247 C246 1.387 1_455 S
N248 Co239 2.022 . S
N248 C245 1.351 . S
N248 N249 1.365 . S
N249 C246 1.341 1_455 S
N249 N248 1.365 . S
N249 H269 0.862 1_455 S
C250 C245 1.501 . S
C250 H251 0.961 . S
C250 H252 0.961 . S
C250 H253 0.960 . S
H251 C250 0.961 . S
H252 C250 0.961 . S
H253 C250 0.960 . S
C254 N255 1.342 . S
C254 C258 1.401 . S
C254 C259 1.499 . S
N255 Co238 1.989 . S
N255 C254 1.342 . S
N255 N256 1.388 . S
N256 Co239 1.993 . S
N256 N255 1.388 . S
N256 C257 1.346 . S
C257 N256 1.346 . S
C257 C258 1.396 . S
C257 C267 1.510 . S
C258 C254 1.401 . S
C258 C257 1.396 . S
C259 C254 1.499 . S
C259 H260 0.959 . S
C259 H261 0.960 . S
C259 H262 0.961 . S
H260 C259 0.959 . S
H261 C259 0.960 . S
H262 C259 0.961 . S
O263 Co238 1.967 . S
O263 C271 1.258 . S
O264 Co239 1.941 . S
O264 C271 1.266 . S
H265 C267 0.959 . S
H266 C267 0.961 . S
C267 C257 1.510 . S
C267 H265 0.959 . S
C267 H266 0.961 . S
C267 H268 0.960 . S
H268 C267 0.960 . S
H269 N249 0.862 1_655 S
O270 Co238 1.920 . S
O270 C243 1.289 . S
C271 O263 1.258 . S
C271 O264 1.266 . S
Co272 O275 1.970 . S
Co272 N289 1.989 . S
Co272 O297 1.967 . S
Co272 O304 1.920 . S
Co273 O276 1.966 . S
Co273 N282 2.022 . S
Co273 N290 1.993 . S
Co273 O298 1.941 . S
C274 O275 1.258 . S
C274 O276 1.263 . S
O275 Co272 1.970 . S
O275 C274 1.258 . S
O276 Co273 1.966 . S
O276 C274 1.263 . S
C277 O278 1.235 . S
C277 O304 1.289 . S
O278 C277 1.235 . S
C279 C281 1.400 . S
C279 N282 1.351 . S
C279 C284 1.501 . S
C280 C281 1.387 . S
C280 N283 1.341 . S
C281 C279 1.400 . S
C281 C280 1.387 . S
N282 Co273 2.022 . S
N282 C279 1.351 . S
N282 N283 1.365 . S
N283 C280 1.341 . S
N283 N282 1.365 . S
N283 H303 0.862 . S
C284 C279 1.501 . S
C284 H285 0.961 . S
C284 H286 0.961 . S
C284 H287 0.960 1_545 S
H285 C284 0.961 . S
H286 C284 0.961 . S
H287 C284 0.960 1_565 S
C288 N289 1.342 . S
C288 C292 1.401 . S
C288 C293 1.499 . S
N289 Co272 1.989 . S
N289 C288 1.342 . S
N289 N290 1.388 . S
N290 Co273 1.993 . S
N290 N289 1.388 . S
N290 C291 1.346 . S
C291 N290 1.346 . S
C291 C292 1.396 . S
C291 C301 1.510 . S
C292 C288 1.401 . S
C292 C291 1.396 . S
C293 C288 1.499 . S
C293 H294 0.959 . S
C293 H295 0.960 . S
C293 H296 0.961 . S
H294 C293 0.959 . S
H295 C293 0.960 . S
H296 C293 0.961 . S
O297 Co272 1.967 . S
O297 C305 1.258 . S
O298 Co273 1.941 . S
O298 C305 1.266 . S
H299 C301 0.959 . S
H300 C301 0.961 . S
C301 C291 1.510 . S
C301 H299 0.959 . S
C301 H300 0.961 . S
C301 H302 0.960 . S
H302 C301 0.960 . S
H303 N283 0.862 . S
O304 Co272 1.920 . S
O304 C277 1.289 . S
C305 O297 1.258 . S
C305 O298 1.266 . S
Co306 O309 1.970 . S
Co306 N323 1.989 . S
Co306 O331 1.967 . S
Co306 O338 1.920 . S
Co307 O310 1.966 . S
Co307 N316 2.022 . S
Co307 N324 1.993 . S
Co307 O332 1.941 . S
C308 O309 1.258 . S
C308 O310 1.263 . S
O309 Co306 1.970 . S
O309 C308 1.258 . S
O310 Co307 1.966 . S
O310 C308 1.263 . S
C311 O312 1.235 . S
C311 O338 1.289 . S
O312 C311 1.235 . S
C313 C315 1.400 . S
C313 N316 1.351 . S
C313 C318 1.501 . S
C314 C315 1.387 1_554 S
C314 N317 1.341 1_554 S
C315 C313 1.400 . S
C315 C314 1.387 1_556 S
N316 Co307 2.022 . S
N316 C313 1.351 . S
N316 N317 1.365 . S
N317 C314 1.341 1_556 S
N317 N316 1.365 . S
N317 H337 0.862 1_556 S
C318 C313 1.501 . S
C318 H319 0.961 . S
C318 H320 0.961 . S
C318 H321 0.960 . S
H319 C318 0.961 . S
H320 C318 0.961 . S
H321 C318 0.960 . S
C322 N323 1.342 . S
C322 C326 1.401 . S
C322 C327 1.499 . S
N323 Co306 1.989 . S
N323 C322 1.342 . S
N323 N324 1.388 . S
N324 Co307 1.993 . S
N324 N323 1.388 . S
N324 C325 1.346 . S
C325 N324 1.346 . S
C325 C326 1.396 . S
C325 C335 1.510 . S
C326 C322 1.401 . S
C326 C325 1.396 . S
C327 C322 1.499 . S
C327 H328 0.959 . S
C327 H329 0.960 . S
C327 H330 0.961 . S
H328 C327 0.959 . S
H329 C327 0.960 . S
H330 C327 0.961 . S
O331 Co306 1.967 . S
O331 C339 1.258 . S
O332 Co307 1.941 . S
O332 C339 1.266 . S
H333 C335 0.959 . S
H334 C335 0.961 . S
C335 C325 1.510 . S
C335 H333 0.959 . S
C335 H334 0.961 . S
C335 H336 0.960 . S
H336 C335 0.960 . S
H337 N317 0.862 1_554 S
O338 Co306 1.920 . S
O338 C311 1.289 . S
C339 O331 1.258 . S
C339 O332 1.266 . S
Co340 O343 1.970 . S
Co340 N357 1.989 . S
Co340 O365 1.967 . S
Co340 O372 1.920 . S
Co341 O344 1.966 . S
Co341 N350 2.022 . S
Co341 N358 1.993 . S
Co341 O366 1.941 . S
C342 O343 1.258 . S
C342 O344 1.263 . S
O343 Co340 1.970 . S
O343 C342 1.258 . S
O344 Co341 1.966 . S
O344 C342 1.263 . S
C345 O346 1.235 . S
C345 O372 1.289 . S
O346 C345 1.235 . S
C347 C349 1.400 . S
C347 N350 1.351 . S
C347 C352 1.501 . S
C348 C349 1.387 . S
C348 N351 1.341 . S
C349 C347 1.400 . S
C349 C348 1.387 . S
N350 Co341 2.022 . S
N350 C347 1.351 . S
N350 N351 1.365 . S
N351 C348 1.341 . S
N351 N350 1.365 . S
N351 H371 0.862 . S
C352 C347 1.501 . S
C352 H353 0.961 . S
C352 H354 0.961 . S
C352 H355 0.960 1_565 S
H353 C352 0.961 . S
H354 C352 0.961 . S
H355 C352 0.960 1_545 S
C356 N357 1.342 . S
C356 C360 1.401 . S
C356 C361 1.499 . S
N357 Co340 1.989 . S
N357 C356 1.342 . S
N357 N358 1.388 . S
N358 Co341 1.993 . S
N358 N357 1.388 . S
N358 C359 1.346 . S
C359 N358 1.346 . S
C359 C360 1.396 . S
C359 C369 1.510 . S
C360 C356 1.401 . S
C360 C359 1.396 . S
C361 C356 1.499 . S
C361 H362 0.959 . S
C361 H363 0.960 . S
C361 H364 0.961 . S
H362 C361 0.959 . S
H363 C361 0.960 . S
H364 C361 0.961 . S
O365 Co340 1.967 . S
O365 C373 1.258 . S
O366 Co341 1.941 . S
O366 C373 1.266 . S
H367 C369 0.959 . S
H368 C369 0.961 . S
C369 C359 1.510 . S
C369 H367 0.959 . S
C369 H368 0.961 . S
C369 H370 0.960 . S
H370 C369 0.960 . S
H371 N351 0.862 . S
O372 Co340 1.920 . S
O372 C345 1.289 . S
C373 O365 1.258 . S
C373 O366 1.266 . S
Co374 O377 1.970 . S
Co374 N391 1.989 . S
Co374 O399 1.967 . S
Co374 O406 1.920 . S
Co375 O378 1.966 . S
Co375 N384 2.022 . S
Co375 N392 1.993 . S
Co375 O400 1.941 . S
C376 O377 1.258 . S
C376 O378 1.263 . S
O377 Co374 1.970 . S
O377 C376 1.258 . S
O378 Co375 1.966 . S
O378 C376 1.263 . S
C379 O380 1.235 . S
C379 O406 1.289 . S
O380 C379 1.235 . S
C381 C383 1.400 . S
C381 N384 1.351 . S
C381 C386 1.501 . S
C382 C383 1.387 . S
C382 N385 1.341 . S
C383 C381 1.400 . S
C383 C382 1.387 . S
N384 Co375 2.022 . S
N384 C381 1.351 . S
N384 N385 1.365 . S
N385 C382 1.341 . S
N385 N384 1.365 . S
N385 H405 0.862 . S
C386 C381 1.501 . S
C386 H387 0.961 . S
C386 H388 0.961 . S
C386 H389 0.960 . S
H387 C386 0.961 . S
H388 C386 0.961 . S
H389 C386 0.960 . S
C390 N391 1.342 . S
C390 C394 1.401 . S
C390 C395 1.499 . S
N391 Co374 1.989 . S
N391 C390 1.342 . S
N391 N392 1.388 . S
N392 Co375 1.993 . S
N392 N391 1.388 . S
N392 C393 1.346 . S
C393 N392 1.346 . S
C393 C394 1.396 . S
C393 C403 1.510 . S
C394 C390 1.401 . S
C394 C393 1.396 . S
C395 C390 1.499 . S
C395 H396 0.959 . S
C395 H397 0.960 . S
C395 H398 0.961 . S
H396 C395 0.959 . S
H397 C395 0.960 . S
H398 C395 0.961 . S
O399 Co374 1.967 . S
O399 C407 1.258 . S
O400 Co375 1.941 . S
O400 C407 1.266 . S
H401 C403 0.959 . S
H402 C403 0.961 . S
C403 C393 1.510 . S
C403 H401 0.959 . S
C403 H402 0.961 . S
C403 H404 0.960 . S
H404 C403 0.960 . S
H405 N385 0.862 . S
O406 Co374 1.920 . S
O406 C379 1.289 . S
C407 O399 1.258 . S
C407 O400 1.266 . S
Co408 O411 1.970 . S
Co408 N425 1.989 . S
Co408 O433 1.967 . S
Co408 O440 1.920 . S
Co409 O412 1.966 . S
Co409 N418 2.022 . S
Co409 N426 1.993 . S
Co409 O434 1.941 . S
C410 O411 1.258 . S
C410 O412 1.263 . S
O411 Co408 1.970 . S
O411 C410 1.258 . S
O412 Co409 1.966 . S
O412 C410 1.263 . S
C413 O414 1.235 . S
C413 O440 1.289 . S
O414 C413 1.235 . S
C415 C417 1.400 . S
C415 N418 1.351 . S
C415 C420 1.501 . S
C416 C417 1.387 . S
C416 N419 1.341 . S
C417 C415 1.400 . S
C417 C416 1.387 . S
N418 Co409 2.022 . S
N418 C415 1.351 . S
N418 N419 1.365 . S
N419 C416 1.341 . S
N419 N418 1.365 . S
N419 H439 0.862 . S
C420 C415 1.501 . S
C420 H421 0.961 . S
C420 H422 0.961 . S
C420 H423 0.960 . S
H421 C420 0.961 . S
H422 C420 0.961 . S
H423 C420 0.960 . S
C424 N425 1.342 . S
C424 C428 1.401 . S
C424 C429 1.499 . S
N425 Co408 1.989 . S
N425 C424 1.342 . S
N425 N426 1.388 . S
N426 Co409 1.993 . S
N426 N425 1.388 . S
N426 C427 1.346 . S
C427 N426 1.346 . S
C427 C428 1.396 . S
C427 C437 1.510 . S
C428 C424 1.401 . S
C428 C427 1.396 . S
C429 C424 1.499 . S
C429 H430 0.959 . S
C429 H431 0.960 . S
C429 H432 0.961 . S
H430 C429 0.959 . S
H431 C429 0.960 . S
H432 C429 0.961 . S
O433 Co408 1.967 . S
O433 C441 1.258 . S
O434 Co409 1.941 . S
O434 C441 1.266 . S
H435 C437 0.959 . S
H436 C437 0.961 . S
C437 C427 1.510 . S
C437 H435 0.959 . S
C437 H436 0.961 . S
C437 H438 0.960 . S
H438 C437 0.960 . S
H439 N419 0.862 . S
O440 Co408 1.920 . S
O440 C413 1.289 . S
C441 O433 1.258 . S
C441 O434 1.266 . S
Co442 O445 1.970 . S
Co442 N459 1.989 . S
Co442 O467 1.967 . S
Co442 O474 1.920 . S
Co443 O446 1.966 . S
Co443 N452 2.022 . S
Co443 N460 1.993 . S
Co443 O468 1.941 . S
C444 O445 1.258 . S
C444 O446 1.263 . S
O445 Co442 1.970 . S
O445 C444 1.258 . S
O446 Co443 1.966 . S
O446 C444 1.263 . S
C447 O448 1.235 . S
C447 O474 1.289 . S
O448 C447 1.235 . S
C449 C451 1.400 . S
C449 N452 1.351 . S
C449 C454 1.501 . S
C450 C451 1.387 . S
C450 N453 1.341 . S
C451 C449 1.400 . S
C451 C450 1.387 . S
N452 Co443 2.022 . S
N452 C449 1.351 . S
N452 N453 1.365 . S
N453 C450 1.341 . S
N453 N452 1.365 . S
N453 H473 0.862 . S
C454 C449 1.501 . S
C454 H455 0.961 . S
C454 H456 0.961 . S
C454 H457 0.960 . S
H455 C454 0.961 . S
H456 C454 0.961 . S
H457 C454 0.960 . S
C458 N459 1.342 . S
C458 C462 1.401 . S
C458 C463 1.499 . S
N459 Co442 1.989 . S
N459 C458 1.342 . S
N459 N460 1.388 . S
N460 Co443 1.993 . S
N460 N459 1.388 . S
N460 C461 1.346 . S
C461 N460 1.346 . S
C461 C462 1.396 . S
C461 C471 1.510 . S
C462 C458 1.401 . S
C462 C461 1.396 . S
C463 C458 1.499 . S
C463 H464 0.959 . S
C463 H465 0.960 . S
C463 H466 0.961 . S
H464 C463 0.959 . S
H465 C463 0.960 . S
H466 C463 0.961 . S
O467 Co442 1.967 . S
O467 C475 1.258 . S
O468 Co443 1.941 . S
O468 C475 1.266 . S
H469 C471 0.959 . S
H470 C471 0.961 . S
C471 C461 1.510 . S
C471 H469 0.959 . S
C471 H470 0.961 . S
C471 H472 0.960 . S
H472 C471 0.960 . S
H473 N453 0.862 . S
O474 Co442 1.920 . S
O474 C447 1.289 . S
C475 O467 1.258 . S
C475 O468 1.266 . S
Co476 O479 1.970 . S
Co476 N493 1.989 . S
Co476 O501 1.967 . S
Co476 O508 1.920 . S
Co477 O480 1.966 . S
Co477 N486 2.022 . S
Co477 N494 1.993 . S
Co477 O502 1.941 . S
C478 O479 1.258 . S
C478 O480 1.263 . S
O479 Co476 1.970 . S
O479 C478 1.258 . S
O480 Co477 1.966 . S
O480 C478 1.263 . S
C481 O482 1.235 . S
C481 O508 1.289 . S
O482 C481 1.235 . S
C483 C485 1.400 . S
C483 N486 1.351 . S
C483 C488 1.501 . S
C484 C485 1.387 . S
C484 N487 1.341 . S
C485 C483 1.400 . S
C485 C484 1.387 . S
N486 Co477 2.022 . S
N486 C483 1.351 . S
N486 N487 1.365 . S
N487 C484 1.341 . S
N487 N486 1.365 . S
N487 H507 0.862 . S
C488 C483 1.501 . S
C488 H489 0.961 . S
C488 H490 0.961 . S
C488 H491 0.960 . S
H489 C488 0.961 . S
H490 C488 0.961 . S
H491 C488 0.960 . S
C492 N493 1.342 . S
C492 C496 1.401 . S
C492 C497 1.499 . S
N493 Co476 1.989 . S
N493 C492 1.342 . S
N493 N494 1.388 . S
N494 Co477 1.993 . S
N494 N493 1.388 . S
N494 C495 1.346 . S
C495 N494 1.346 . S
C495 C496 1.396 . S
C495 C505 1.510 . S
C496 C492 1.401 . S
C496 C495 1.396 . S
C497 C492 1.499 . S
C497 H498 0.959 . S
C497 H499 0.960 . S
C497 H500 0.961 . S
H498 C497 0.959 . S
H499 C497 0.960 . S
H500 C497 0.961 . S
O501 Co476 1.967 . S
O501 C509 1.258 . S
O502 Co477 1.941 . S
O502 C509 1.266 . S
H503 C505 0.959 . S
H504 C505 0.961 . S
C505 C495 1.510 . S
C505 H503 0.959 . S
C505 H504 0.961 . S
C505 H506 0.960 . S
H506 C505 0.960 . S
H507 N487 0.862 . S
O508 Co476 1.920 . S
O508 C481 1.289 . S
C509 O501 1.258 . S
C509 O502 1.266 . S
Co510 O513 1.970 . S
Co510 N527 1.989 . S
Co510 O535 1.967 . S
Co510 O542 1.920 . S
Co511 O514 1.966 . S
Co511 N520 2.022 . S
Co511 N528 1.993 . S
Co511 O536 1.941 . S
C512 O513 1.258 . S
C512 O514 1.263 . S
O513 Co510 1.970 . S
O513 C512 1.258 . S
O514 Co511 1.966 . S
O514 C512 1.263 . S
C515 O516 1.235 . S
C515 O542 1.289 . S
O516 C515 1.235 . S
C517 C519 1.400 . S
C517 N520 1.351 . S
C517 C522 1.501 . S
C518 C519 1.387 1_556 S
C518 N521 1.341 1_556 S
C519 C517 1.400 . S
C519 C518 1.387 1_554 S
N520 Co511 2.022 . S
N520 C517 1.351 . S
N520 N521 1.365 . S
N521 C518 1.341 1_554 S
N521 N520 1.365 . S
N521 H541 0.862 1_554 S
C522 C517 1.501 . S
C522 H523 0.961 . S
C522 H524 0.961 . S
C522 H525 0.960 . S
H523 C522 0.961 . S
H524 C522 0.961 . S
H525 C522 0.960 . S
C526 N527 1.342 . S
C526 C530 1.401 . S
C526 C531 1.499 . S
N527 Co510 1.989 . S
N527 C526 1.342 . S
N527 N528 1.388 . S
N528 Co511 1.993 . S
N528 N527 1.388 . S
N528 C529 1.346 . S
C529 N528 1.346 . S
C529 C530 1.396 . S
C529 C539 1.510 . S
C530 C526 1.401 . S
C530 C529 1.396 . S
C531 C526 1.499 . S
C531 H532 0.959 . S
C531 H533 0.960 . S
C531 H534 0.961 . S
H532 C531 0.959 . S
H533 C531 0.960 . S
H534 C531 0.961 . S
O535 Co510 1.967 . S
O535 C543 1.258 . S
O536 Co511 1.941 . S
O536 C543 1.266 . S
H537 C539 0.959 . S
H538 C539 0.961 . S
C539 C529 1.510 . S
C539 H537 0.959 . S
C539 H538 0.961 . S
C539 H540 0.960 . S
H540 C539 0.960 . S
H541 N521 0.862 1_556 S
O542 Co510 1.920 . S
O542 C515 1.289 . S
C543 O535 1.258 . S
C543 O536 1.266 . S
Co544 O547 1.970 . S
Co544 N561 1.989 . S
Co544 O569 1.967 . S
Co544 O576 1.920 . S
Co545 O548 1.966 . S
Co545 N554 2.022 . S
Co545 N562 1.993 . S
Co545 O570 1.941 . S
C546 O547 1.258 . S
C546 O548 1.263 . S
O547 Co544 1.970 . S
O547 C546 1.258 . S
O548 Co545 1.966 . S
O548 C546 1.263 . S
C549 O550 1.235 . S
C549 O576 1.289 . S
O550 C549 1.235 . S
C551 C553 1.400 . S
C551 N554 1.351 . S
C551 C556 1.501 . S
C552 C553 1.387 . S
C552 N555 1.341 . S
C553 C551 1.400 . S
C553 C552 1.387 . S
N554 Co545 2.022 . S
N554 C551 1.351 . S
N554 N555 1.365 . S
N555 C552 1.341 . S
N555 N554 1.365 . S
N555 H575 0.862 . S
C556 C551 1.501 . S
C556 H557 0.961 . S
C556 H558 0.961 . S
C556 H559 0.960 1_554 S
H557 C556 0.961 . S
H558 C556 0.961 . S
H559 C556 0.960 1_556 S
C560 N561 1.342 . S
C560 C564 1.401 . S
C560 C565 1.499 . S
N561 Co544 1.989 . S
N561 C560 1.342 . S
N561 N562 1.388 . S
N562 Co545 1.993 . S
N562 N561 1.388 . S
N562 C563 1.346 . S
C563 N562 1.346 . S
C563 C564 1.396 . S
C563 C573 1.510 . S
C564 C560 1.401 . S
C564 C563 1.396 . S
C565 C560 1.499 . S
C565 H566 0.959 . S
C565 H567 0.960 . S
C565 H568 0.961 . S
H566 C565 0.959 . S
H567 C565 0.960 . S
H568 C565 0.961 . S
O569 Co544 1.967 . S
O569 C577 1.258 . S
O570 Co545 1.941 . S
O570 C577 1.266 . S
H571 C573 0.959 . S
H572 C573 0.961 . S
C573 C563 1.510 . S
C573 H571 0.959 . S
C573 H572 0.961 . S
C573 H574 0.960 . S
H574 C573 0.960 . S
H575 N555 0.862 . S
O576 Co544 1.920 . S
O576 C549 1.289 . S
C577 O569 1.258 . S
C577 O570 1.266 . S
Co578 O581 1.970 . S
Co578 N595 1.989 . S
Co578 O603 1.967 . S
Co578 O610 1.920 . S
Co579 O582 1.966 . S
Co579 N588 2.022 . S
Co579 N596 1.993 . S
Co579 O604 1.941 . S
C580 O581 1.258 . S
C580 O582 1.263 . S
O581 Co578 1.970 . S
O581 C580 1.258 . S
O582 Co579 1.966 . S
O582 C580 1.263 . S
C583 O584 1.235 . S
C583 O610 1.289 . S
O584 C583 1.235 . S
C585 C587 1.400 . S
C585 N588 1.351 . S
C585 C590 1.501 . S
C586 C587 1.387 . S
C586 N589 1.341 . S
C587 C585 1.400 . S
C587 C586 1.387 . S
N588 Co579 2.022 . S
N588 C585 1.351 . S
N588 N589 1.365 . S
N589 C586 1.341 . S
N589 N588 1.365 . S
N589 H609 0.862 . S
C590 C585 1.501 . S
C590 H591 0.961 . S
C590 H592 0.961 . S
C590 H593 0.960 1_556 S
H591 C590 0.961 . S
H592 C590 0.961 . S
H593 C590 0.960 1_554 S
C594 N595 1.342 . S
C594 C598 1.401 . S
C594 C599 1.499 . S
N595 Co578 1.989 . S
N595 C594 1.342 . S
N595 N596 1.388 . S
N596 Co579 1.993 . S
N596 N595 1.388 . S
N596 C597 1.346 . S
C597 N596 1.346 . S
C597 C598 1.396 . S
C597 C607 1.510 . S
C598 C594 1.401 . S
C598 C597 1.396 . S
C599 C594 1.499 . S
C599 H600 0.959 . S
C599 H601 0.960 . S
C599 H602 0.961 . S
H600 C599 0.959 . S
H601 C599 0.960 . S
H602 C599 0.961 . S
O603 Co578 1.967 . S
O603 C611 1.258 . S
O604 Co579 1.941 . S
O604 C611 1.266 . S
H605 C607 0.959 . S
H606 C607 0.961 . S
C607 C597 1.510 . S
C607 H605 0.959 . S
C607 H606 0.961 . S
C607 H608 0.960 . S
H608 C607 0.960 . S
H609 N589 0.862 . S
O610 Co578 1.920 . S
O610 C583 1.289 . S
C611 O603 1.258 . S
C611 O604 1.266 . S
Co612 O615 1.970 . S
Co612 N629 1.989 . S
Co612 O637 1.967 . S
Co612 O644 1.920 . S
Co613 O616 1.966 . S
Co613 N622 2.022 . S
Co613 N630 1.993 . S
Co613 O638 1.941 . S
C614 O615 1.258 . S
C614 O616 1.263 . S
O615 Co612 1.970 . S
O615 C614 1.258 . S
O616 Co613 1.966 . S
O616 C614 1.263 . S
C617 O618 1.235 . S
C617 O644 1.289 . S
O618 C617 1.235 . S
C619 C621 1.400 . S
C619 N622 1.351 . S
C619 C624 1.501 . S
C620 C621 1.387 1_545 S
C620 N623 1.341 1_545 S
C621 C619 1.400 . S
C621 C620 1.387 1_565 S
N622 Co613 2.022 . S
N622 C619 1.351 . S
N622 N623 1.365 . S
N623 C620 1.341 1_565 S
N623 N622 1.365 . S
N623 H643 0.862 1_565 S
C624 C619 1.501 . S
C624 H625 0.961 . S
C624 H626 0.961 . S
C624 H627 0.960 . S
H625 C624 0.961 . S
H626 C624 0.961 . S
H627 C624 0.960 . S
C628 N629 1.342 . S
C628 C632 1.401 . S
C628 C633 1.499 . S
N629 Co612 1.989 . S
N629 C628 1.342 . S
N629 N630 1.388 . S
N630 Co613 1.993 . S
N630 N629 1.388 . S
N630 C631 1.346 . S
C631 N630 1.346 . S
C631 C632 1.396 . S
C631 C641 1.510 . S
C632 C628 1.401 . S
C632 C631 1.396 . S
C633 C628 1.499 . S
C633 H634 0.959 . S
C633 H635 0.960 . S
C633 H636 0.961 . S
H634 C633 0.959 . S
H635 C633 0.960 . S
H636 C633 0.961 . S
O637 Co612 1.967 . S
O637 C645 1.258 . S
O638 Co613 1.941 . S
O638 C645 1.266 . S
H639 C641 0.959 . S
H640 C641 0.961 . S
C641 C631 1.510 . S
C641 H639 0.959 . S
C641 H640 0.961 . S
C641 H642 0.960 . S
H642 C641 0.960 . S
H643 N623 0.862 1_545 S
O644 Co612 1.920 . S
O644 C617 1.289 . S
C645 O637 1.258 . S
C645 O638 1.266 . S
Co646 O649 1.970 . S
Co646 N663 1.989 . S
Co646 O671 1.967 . S
Co646 O678 1.920 . S
Co647 O650 1.966 . S
Co647 N656 2.022 . S
Co647 N664 1.993 . S
Co647 O672 1.941 . S
C648 O649 1.258 . S
C648 O650 1.263 . S
O649 Co646 1.970 . S
O649 C648 1.258 . S
O650 Co647 1.966 . S
O650 C648 1.263 . S
C651 O652 1.235 . S
C651 O678 1.289 . S
O652 C651 1.235 . S
C653 C655 1.400 . S
C653 N656 1.351 . S
C653 C658 1.501 . S
C654 C655 1.387 . S
C654 N657 1.341 . S
C655 C653 1.400 . S
C655 C654 1.387 . S
N656 Co647 2.022 . S
N656 C653 1.351 . S
N656 N657 1.365 . S
N657 C654 1.341 . S
N657 N656 1.365 . S
N657 H677 0.862 . S
C658 C653 1.501 . S
C658 H659 0.961 . S
C658 H660 0.961 . S
C658 H661 0.960 . S
H659 C658 0.961 . S
H660 C658 0.961 . S
H661 C658 0.960 . S
C662 N663 1.342 . S
C662 C666 1.401 . S
C662 C667 1.499 . S
N663 Co646 1.989 . S
N663 C662 1.342 . S
N663 N664 1.388 . S
N664 Co647 1.993 . S
N664 N663 1.388 . S
N664 C665 1.346 . S
C665 N664 1.346 . S
C665 C666 1.396 . S
C665 C675 1.510 . S
C666 C662 1.401 . S
C666 C665 1.396 . S
C667 C662 1.499 . S
C667 H668 0.959 . S
C667 H669 0.960 . S
C667 H670 0.961 . S
H668 C667 0.959 . S
H669 C667 0.960 . S
H670 C667 0.961 . S
O671 Co646 1.967 . S
O671 C679 1.258 . S
O672 Co647 1.941 . S
O672 C679 1.266 . S
H673 C675 0.959 . S
H674 C675 0.961 . S
C675 C665 1.510 . S
C675 H673 0.959 . S
C675 H674 0.961 . S
C675 H676 0.960 . S
H676 C675 0.960 . S
H677 N657 0.862 . S
O678 Co646 1.920 . S
O678 C651 1.289 . S
C679 O671 1.258 . S
C679 O672 1.266 . S
Co680 O683 1.970 . S
Co680 N697 1.989 . S
Co680 O705 1.967 . S
Co680 O712 1.920 . S
Co681 O684 1.966 . S
Co681 N690 2.022 . S
Co681 N698 1.993 . S
Co681 O706 1.941 . S
C682 O683 1.258 . S
C682 O684 1.263 . S
O683 Co680 1.970 . S
O683 C682 1.258 . S
O684 Co681 1.966 . S
O684 C682 1.263 . S
C685 O686 1.235 . S
C685 O712 1.289 . S
O686 C685 1.235 . S
C687 C689 1.400 . S
C687 N690 1.351 . S
C687 C692 1.501 . S
C688 C689 1.387 1_565 S
C688 N691 1.341 1_565 S
C689 C687 1.400 . S
C689 C688 1.387 1_545 S
N690 Co681 2.022 . S
N690 C687 1.351 . S
N690 N691 1.365 . S
N691 C688 1.341 1_545 S
N691 N690 1.365 . S
N691 H711 0.862 1_545 S
C692 C687 1.501 . S
C692 H693 0.961 . S
C692 H694 0.961 . S
C692 H695 0.960 . S
H693 C692 0.961 . S
H694 C692 0.961 . S
H695 C692 0.960 . S
C696 N697 1.342 . S
C696 C700 1.401 . S
C696 C701 1.499 . S
N697 Co680 1.989 . S
N697 C696 1.342 . S
N697 N698 1.388 . S
N698 Co681 1.993 . S
N698 N697 1.388 . S
N698 C699 1.346 . S
C699 N698 1.346 . S
C699 C700 1.396 . S
C699 C709 1.510 . S
C700 C696 1.401 . S
C700 C699 1.396 . S
C701 C696 1.499 . S
C701 H702 0.959 . S
C701 H703 0.960 . S
C701 H704 0.961 . S
H702 C701 0.959 . S
H703 C701 0.960 . S
H704 C701 0.961 . S
O705 Co680 1.967 . S
O705 C713 1.258 . S
O706 Co681 1.941 . S
O706 C713 1.266 . S
H707 C709 0.959 . S
H708 C709 0.961 . S
C709 C699 1.510 . S
C709 H707 0.959 . S
C709 H708 0.961 . S
C709 H710 0.960 . S
H710 C709 0.960 . S
H711 N691 0.862 1_565 S
O712 Co680 1.920 . S
O712 C685 1.289 . S
C713 O705 1.258 . S
C713 O706 1.266 . S
Co714 O717 1.970 . S
Co714 N731 1.989 . S
Co714 O739 1.967 . S
Co714 O746 1.920 . S
Co715 O718 1.966 . S
Co715 N724 2.022 . S
Co715 N732 1.993 . S
Co715 O740 1.941 . S
C716 O717 1.258 . S
C716 O718 1.263 . S
O717 Co714 1.970 . S
O717 C716 1.258 . S
O718 Co715 1.966 . S
O718 C716 1.263 . S
C719 O720 1.235 . S
C719 O746 1.289 . S
O720 C719 1.235 . S
C721 C723 1.400 . S
C721 N724 1.351 . S
C721 C726 1.501 . S
C722 C723 1.387 . S
C722 N725 1.341 . S
C723 C721 1.400 . S
C723 C722 1.387 . S
N724 Co715 2.022 . S
N724 C721 1.351 . S
N724 N725 1.365 . S
N725 C722 1.341 . S
N725 N724 1.365 . S
N725 H745 0.862 . S
C726 C721 1.501 . S
C726 H727 0.961 . S
C726 H728 0.961 . S
C726 H729 0.960 . S
H727 C726 0.961 . S
H728 C726 0.961 . S
H729 C726 0.960 . S
C730 N731 1.342 . S
C730 C734 1.401 . S
C730 C735 1.499 . S
N731 Co714 1.989 . S
N731 C730 1.342 . S
N731 N732 1.388 . S
N732 Co715 1.993 . S
N732 N731 1.388 . S
N732 C733 1.346 . S
C733 N732 1.346 . S
C733 C734 1.396 . S
C733 C743 1.510 . S
C734 C730 1.401 . S
C734 C733 1.396 . S
C735 C730 1.499 . S
C735 H736 0.959 . S
C735 H737 0.960 . S
C735 H738 0.961 . S
H736 C735 0.959 . S
H737 C735 0.960 . S
H738 C735 0.961 . S
O739 Co714 1.967 . S
O739 C747 1.258 . S
O740 Co715 1.941 . S
O740 C747 1.266 . S
H741 C743 0.959 . S
H742 C743 0.961 . S
C743 C733 1.510 . S
C743 H741 0.959 . S
C743 H742 0.961 . S
C743 H744 0.960 . S
H744 C743 0.960 . S
H745 N725 0.862 . S
O746 Co714 1.920 . S
O746 C719 1.289 . S
C747 O739 1.258 . S
C747 O740 1.266 . S
Co748 O751 1.970 . S
Co748 N765 1.989 . S
Co748 O773 1.967 . S
Co748 O780 1.920 . S
Co749 O752 1.966 . S
Co749 N758 2.022 . S
Co749 N766 1.993 . S
Co749 O774 1.941 . S
C750 O751 1.258 . S
C750 O752 1.263 . S
O751 Co748 1.970 . S
O751 C750 1.258 . S
O752 Co749 1.966 . S
O752 C750 1.263 . S
C753 O754 1.235 . S
C753 O780 1.289 . S
O754 C753 1.235 . S
C755 C757 1.400 . S
C755 N758 1.351 . S
C755 C760 1.501 . S
C756 C757 1.387 . S
C756 N759 1.341 . S
C757 C755 1.400 . S
C757 C756 1.387 . S
N758 Co749 2.022 . S
N758 C755 1.351 . S
N758 N759 1.365 . S
N759 C756 1.341 . S
N759 N758 1.365 . S
N759 H779 0.862 . S
C760 C755 1.501 . S
C760 H761 0.961 . S
C760 H762 0.961 . S
C760 H763 0.960 . S
H761 C760 0.961 . S
H762 C760 0.961 . S
H763 C760 0.960 . S
C764 N765 1.342 . S
C764 C768 1.401 . S
C764 C769 1.499 . S
N765 Co748 1.989 . S
N765 C764 1.342 . S
N765 N766 1.388 . S
N766 Co749 1.993 . S
N766 N765 1.388 . S
N766 C767 1.346 . S
C767 N766 1.346 . S
C767 C768 1.396 . S
C767 C777 1.510 . S
C768 C764 1.401 . S
C768 C767 1.396 . S
C769 C764 1.499 . S
C769 H770 0.959 . S
C769 H771 0.960 . S
C769 H772 0.961 . S
H770 C769 0.959 . S
H771 C769 0.960 . S
H772 C769 0.961 . S
O773 Co748 1.967 . S
O773 C781 1.258 . S
O774 Co749 1.941 . S
O774 C781 1.266 . S
H775 C777 0.959 . S
H776 C777 0.961 . S
C777 C767 1.510 . S
C777 H775 0.959 . S
C777 H776 0.961 . S
C777 H778 0.960 . S
H778 C777 0.960 . S
H779 N759 0.862 . S
O780 Co748 1.920 . S
O780 C753 1.289 . S
C781 O773 1.258 . S
C781 O774 1.266 . S
Co782 O785 1.970 . S
Co782 N799 1.989 . S
Co782 O807 1.967 . S
Co782 O814 1.920 . S
Co783 O786 1.966 . S
Co783 N792 2.022 . S
Co783 N800 1.993 . S
Co783 O808 1.941 . S
C784 O785 1.258 . S
C784 O786 1.263 . S
O785 Co782 1.970 . S
O785 C784 1.258 . S
O786 Co783 1.966 . S
O786 C784 1.263 . S
C787 O788 1.235 . S
C787 O814 1.289 . S
O788 C787 1.235 . S
C789 C791 1.400 . S
C789 N792 1.351 . S
C789 C794 1.501 . S
C790 C791 1.387 . S
C790 N793 1.341 . S
C791 C789 1.400 . S
C791 C790 1.387 . S
N792 Co783 2.022 . S
N792 C789 1.351 . S
N792 N793 1.365 . S
N793 C790 1.341 . S
N793 N792 1.365 . S
N793 H813 0.862 . S
C794 C789 1.501 . S
C794 H795 0.961 . S
C794 H796 0.961 . S
C794 H797 0.960 . S
H795 C794 0.961 . S
H796 C794 0.961 . S
H797 C794 0.960 . S
C798 N799 1.342 . S
C798 C802 1.401 . S
C798 C803 1.499 . S
N799 Co782 1.989 . S
N799 C798 1.342 . S
N799 N800 1.388 . S
N800 Co783 1.993 . S
N800 N799 1.388 . S
N800 C801 1.346 . S
C801 N800 1.346 . S
C801 C802 1.396 . S
C801 C811 1.510 . S
C802 C798 1.401 . S
C802 C801 1.396 . S
C803 C798 1.499 . S
C803 H804 0.959 . S
C803 H805 0.960 . S
C803 H806 0.961 . S
H804 C803 0.959 . S
H805 C803 0.960 . S
H806 C803 0.961 . S
O807 Co782 1.967 . S
O807 C815 1.258 . S
O808 Co783 1.941 . S
O808 C815 1.266 . S
H809 C811 0.959 . S
H810 C811 0.961 . S
C811 C801 1.510 . S
C811 H809 0.959 . S
C811 H810 0.961 . S
C811 H812 0.960 . S
H812 C811 0.960 . S
H813 N793 0.862 . S
O814 Co782 1.920 . S
O814 C787 1.289 . S
C815 O807 1.258 . S
C815 O808 1.266 . S
H816 C828 0.930 . S
H817 C830 0.930 . S
H818 C831 0.930 . S
H819 C835 0.959 . S
H820 C835 0.959 . S
H821 C835 0.961 . S
H822 C836 0.960 . S
H823 C836 0.961 . S
H824 C836 0.959 . S
H825 C839 0.929 . S
H826 C840 0.931 . S
H827 C842 0.930 . S
C828 H816 0.930 . S
C828 C829 1.399 . S
C828 C833 1.399 . S
C829 C828 1.399 . S
C829 C830 1.376 . S
C830 H817 0.930 . S
C830 C829 1.376 . S
C830 C831 1.388 . S
C831 H818 0.930 . S
C831 C830 1.388 . S
C831 C832 1.390 . S
C832 C831 1.390 . S
C832 C833 1.394 . S
C832 C838 1.465 . S
C833 C828 1.399 . S
C833 C832 1.394 . S
C833 C834 1.516 . S
C834 C833 1.516 . S
C834 C835 1.502 . S
C834 C836 1.561 . S
C834 C837 1.526 . S
C835 H819 0.959 . S
C835 H820 0.959 . S
C835 H821 0.961 . S
C835 C834 1.502 . S
C836 H822 0.960 . S
C836 H823 0.961 . S
C836 H824 0.959 . S
C836 C834 1.561 . S
C837 C834 1.526 . S
C837 C838 1.396 . S
C837 C842 1.390 . S
C838 C832 1.465 . S
C838 C837 1.396 . S
C838 C839 1.399 . S
C839 H825 0.929 . S
C839 C838 1.399 . S
C839 C840 1.385 . S
C840 H826 0.931 . S
C840 C839 1.385 . S
C840 C841 1.389 . S
C841 C840 1.389 . S
C841 C842 1.387 . S
C842 H827 0.930 . S
C842 C837 1.390 . S
C842 C841 1.387 . S
H843 C855 0.930 . S
H844 C857 0.930 . S
H845 C858 0.930 . S
H846 C862 0.959 . S
H847 C862 0.959 . S
H848 C862 0.961 . S
H849 C863 0.960 . S
H850 C863 0.961 . S
H851 C863 0.959 . S
H852 C866 0.929 . S
H853 C867 0.931 . S
H854 C869 0.930 . S
C855 H843 0.930 . S
C855 C856 1.399 . S
C855 C860 1.399 . S
C856 C855 1.399 . S
C856 C857 1.376 . S
C857 H844 0.930 . S
C857 C856 1.376 . S
C857 C858 1.388 . S
C858 H845 0.930 . S
C858 C857 1.388 . S
C858 C859 1.390 . S
C859 C858 1.390 . S
C859 C860 1.394 . S
C859 C865 1.465 . S
C860 C855 1.399 . S
C860 C859 1.394 . S
C860 C861 1.516 . S
C861 C860 1.516 . S
C861 C862 1.502 . S
C861 C863 1.561 . S
C861 C864 1.526 . S
C862 H846 0.959 . S
C862 H847 0.959 . S
C862 H848 0.961 . S
C862 C861 1.502 . S
C863 H849 0.960 . S
C863 H850 0.961 . S
C863 H851 0.959 . S
C863 C861 1.561 . S
C864 C861 1.526 . S
C864 C865 1.396 . S
C864 C869 1.390 . S
C865 C859 1.465 . S
C865 C864 1.396 . S
C865 C866 1.399 . S
C866 H852 0.929 . S
C866 C865 1.399 . S
C866 C867 1.385 . S
C867 H853 0.931 . S
C867 C866 1.385 . S
C867 C868 1.389 . S
C868 C867 1.389 . S
C868 C869 1.387 . S
C869 H854 0.930 . S
C869 C864 1.390 . S
C869 C868 1.387 . S
H870 C882 0.930 . S
H871 C884 0.930 . S
H872 C885 0.930 . S
H873 C889 0.959 . S
H874 C889 0.959 . S
H875 C889 0.961 . S
H876 C890 0.960 . S
H877 C890 0.961 1_554 S
H878 C890 0.946 1_554 S
H879 C893 0.929 . S
H880 C894 0.931 . S
H881 C896 0.930 1_554 S
C882 H870 0.930 . S
C882 C883 1.399 . S
C882 C887 1.399 . S
C883 C882 1.399 . S
C883 C884 1.376 . S
C884 H871 0.930 . S
C884 C883 1.376 . S
C884 C885 1.388 . S
C885 H872 0.930 . S
C885 C884 1.388 . S
C885 C886 1.390 . S
C886 C885 1.390 . S
C886 C887 1.394 . S
C886 C892 1.465 . S
C887 C882 1.399 . S
C887 C886 1.394 . S
C887 C888 1.516 . S
C888 C887 1.516 . S
C888 C889 1.502 . S
C888 C890 1.561 . S
C888 C891 1.526 . S
C889 H873 0.959 . S
C889 H874 0.959 . S
C889 H875 0.961 . S
C889 C888 1.502 . S
C890 H876 0.960 . S
C890 H877 0.961 1_556 S
C890 H878 0.946 1_556 S
C890 C888 1.561 . S
C891 C888 1.526 . S
C891 C892 1.396 . S
C891 C896 1.390 . S
C892 C886 1.465 . S
C892 C891 1.396 . S
C892 C893 1.399 . S
C893 H879 0.929 . S
C893 C892 1.399 . S
C893 C894 1.385 . S
C894 H880 0.931 . S
C894 C893 1.385 . S
C894 C895 1.389 1_556 S
C895 C894 1.389 1_554 S
C895 C896 1.387 1_554 S
C896 H881 0.930 1_556 S
C896 C891 1.390 . S
C896 C895 1.387 1_556 S
H897 C909 0.930 . S
H898 C911 0.930 . S
H899 C912 0.930 . S
H900 C916 0.959 . S
H901 C916 0.959 . S
H902 C916 0.961 . S
H903 C917 0.960 . S
H904 C917 0.961 . S
H905 C917 0.959 . S
H906 C920 0.929 . S
H907 C921 0.931 . S
H908 C923 0.930 . S
C909 H897 0.930 . S
C909 C910 1.399 . S
C909 C914 1.399 . S
C910 C909 1.399 . S
C910 C911 1.376 . S
C911 H898 0.930 . S
C911 C910 1.376 . S
C911 C912 1.388 . S
C912 H899 0.930 . S
C912 C911 1.388 . S
C912 C913 1.390 . S
C913 C912 1.390 . S
C913 C914 1.394 . S
C913 C919 1.465 . S
C914 C909 1.399 . S
C914 C913 1.394 . S
C914 C915 1.516 . S
C915 C914 1.516 . S
C915 C916 1.502 . S
C915 C917 1.561 . S
C915 C918 1.526 . S
C916 H900 0.959 . S
C916 H901 0.959 . S
C916 H902 0.961 . S
C916 C915 1.502 . S
C917 H903 0.960 . S
C917 H904 0.961 . S
C917 H905 0.959 . S
C917 C915 1.561 . S
C918 C915 1.526 . S
C918 C919 1.396 . S
C918 C923 1.390 . S
C919 C913 1.465 . S
C919 C918 1.396 . S
C919 C920 1.399 . S
C920 H906 0.929 . S
C920 C919 1.399 . S
C920 C921 1.385 . S
C921 H907 0.931 . S
C921 C920 1.385 . S
C921 C922 1.389 . S
C922 C921 1.389 . S
C922 C923 1.387 . S
C923 H908 0.930 . S
C923 C918 1.390 . S
C923 C922 1.387 . S
H924 C936 0.930 . S
H925 C938 0.930 . S
H926 C939 0.930 . S
H927 C943 0.959 . S
H928 C943 0.959 . S
H929 C943 0.961 . S
H930 C944 0.960 . S
H931 C944 0.961 . S
H932 C944 0.959 . S
H933 C947 0.929 . S
H934 C948 0.931 . S
H935 C950 0.930 . S
C936 H924 0.930 . S
C936 C937 1.399 . S
C936 C941 1.399 . S
C937 C936 1.399 . S
C937 C938 1.376 . S
C938 H925 0.930 . S
C938 C937 1.376 . S
C938 C939 1.388 . S
C939 H926 0.930 . S
C939 C938 1.388 . S
C939 C940 1.390 . S
C940 C939 1.390 . S
C940 C941 1.394 . S
C940 C946 1.465 . S
C941 C936 1.399 . S
C941 C940 1.394 . S
C941 C942 1.516 . S
C942 C941 1.516 . S
C942 C943 1.502 . S
C942 C944 1.561 . S
C942 C945 1.526 . S
C943 H927 0.959 . S
C943 H928 0.959 . S
C943 H929 0.961 . S
C943 C942 1.502 . S
C944 H930 0.960 . S
C944 H931 0.961 . S
C944 H932 0.959 . S
C944 C942 1.561 . S
C945 C942 1.526 . S
C945 C946 1.396 . S
C945 C950 1.390 . S
C946 C940 1.465 . S
C946 C945 1.396 . S
C946 C947 1.399 . S
C947 H933 0.929 . S
C947 C946 1.399 . S
C947 C948 1.385 . S
C948 H934 0.931 . S
C948 C947 1.385 . S
C948 C949 1.389 . S
C949 C948 1.389 . S
C949 C950 1.387 . S
C950 H935 0.930 . S
C950 C945 1.390 . S
C950 C949 1.387 . S
H951 C963 0.930 . S
H952 C965 0.930 1_545 S
H953 C966 0.930 . S
H954 C970 0.959 . S
H955 C970 0.959 . S
H956 C970 0.961 . S
H957 C971 0.960 . S
H958 C971 0.961 . S
H959 C971 0.959 . S
H960 C974 0.929 . S
H961 C975 0.931 . S
H962 C977 0.930 . S
C963 H951 0.930 . S
C963 C964 1.399 . S
C963 C968 1.399 . S
C964 C963 1.399 . S
C964 C965 1.376 . S
C965 H952 0.930 1_565 S
C965 C964 1.376 . S
C965 C966 1.388 . S
C966 H953 0.930 . S
C966 C965 1.388 . S
C966 C967 1.390 . S
C967 C966 1.390 . S
C967 C968 1.394 . S
C967 C973 1.465 . S
C968 C963 1.399 . S
C968 C967 1.394 . S
C968 C969 1.516 . S
C969 C968 1.516 . S
C969 C970 1.502 . S
C969 C971 1.561 . S
C969 C972 1.526 . S
C970 H954 0.959 . S
C970 H955 0.959 . S
C970 H956 0.961 . S
C970 C969 1.502 . S
C971 H957 0.960 . S
C971 H958 0.961 . S
C971 H959 0.959 . S
C971 C969 1.561 . S
C972 C969 1.526 . S
C972 C973 1.396 . S
C972 C977 1.390 . S
C973 C967 1.465 . S
C973 C972 1.396 . S
C973 C974 1.399 . S
C974 H960 0.929 . S
C974 C973 1.399 . S
C974 C975 1.385 . S
C975 H961 0.931 . S
C975 C974 1.385 . S
C975 C976 1.389 . S
C976 C975 1.389 . S
C976 C977 1.387 . S
C977 H962 0.930 . S
C977 C972 1.390 . S
C977 C976 1.387 . S
H978 C990 0.930 . S
H979 C992 0.930 . S
H980 C993 0.930 . S
H981 C997 0.959 . S
H982 C997 0.959 . S
H983 C997 0.961 . S
H984 C998 0.960 . S
H985 C998 0.961 . S
H986 C998 0.959 . S
H987 C1001 0.929 . S
H988 C1002 0.931 . S
H989 C1004 0.930 . S
C990 H978 0.930 . S
C990 C991 1.399 . S
C990 C995 1.399 . S
C991 C990 1.399 . S
C991 C992 1.376 . S
C992 H979 0.930 . S
C992 C991 1.376 . S
C992 C993 1.388 . S
C993 H980 0.930 . S
C993 C992 1.388 . S
C993 C994 1.390 . S
C994 C993 1.390 . S
C994 C995 1.394 . S
C994 C1000 1.465 . S
C995 C990 1.399 . S
C995 C994 1.394 . S
C995 C996 1.516 . S
C996 C995 1.516 . S
C996 C997 1.502 . S
C996 C998 1.561 . S
C996 C999 1.526 . S
C997 H981 0.959 . S
C997 H982 0.959 . S
C997 H983 0.961 . S
C997 C996 1.502 . S
C998 H984 0.960 . S
C998 H985 0.961 . S
C998 H986 0.959 . S
C998 C996 1.561 . S
C999 C996 1.526 . S
C999 C1000 1.396 . S
C999 C1004 1.390 . S
C1000 C994 1.465 . S
C1000 C999 1.396 . S
C1000 C1001 1.399 1_554 S
C1001 H987 0.929 . S
C1001 C1000 1.399 1_556 S
C1001 C1002 1.385 . S
C1002 H988 0.931 . S
C1002 C1001 1.385 . S
C1002 C1003 1.389 . S
C1003 C1002 1.389 . S
C1003 C1004 1.387 1_556 S
C1004 H989 0.930 . S
C1004 C999 1.390 . S
C1004 C1003 1.387 1_554 S
H1005 C1017 0.930 1_565 S
H1006 C1019 0.930 . S
H1007 C1020 0.930 . S
H1008 C1024 0.959 . S
H1009 C1024 0.959 . S
H1010 C1024 0.961 . S
H1011 C1025 0.960 . S
H1012 C1025 0.961 . S
H1013 C1025 0.959 . S
H1014 C1028 0.929 . S
H1015 C1029 0.931 . S
H1016 C1031 0.930 . S
C1017 H1005 0.930 1_545 S
C1017 C1018 1.399 . S
C1017 C1022 1.399 . S
C1018 C1017 1.399 . S
C1018 C1019 1.376 . S
C1019 H1006 0.930 . S
C1019 C1018 1.376 . S
C1019 C1020 1.388 . S
C1020 H1007 0.930 . S
C1020 C1019 1.388 . S
C1020 C1021 1.390 . S
C1021 C1020 1.390 . S
C1021 C1022 1.394 . S
C1021 C1027 1.465 . S
C1022 C1017 1.399 . S
C1022 C1021 1.394 . S
C1022 C1023 1.516 . S
C1023 C1022 1.516 . S
C1023 C1024 1.502 . S
C1023 C1025 1.561 . S
C1023 C1026 1.526 . S
C1024 H1008 0.959 . S
C1024 H1009 0.959 . S
C1024 H1010 0.961 . S
C1024 C1023 1.502 . S
C1025 H1011 0.960 . S
C1025 H1012 0.961 . S
C1025 H1013 0.959 . S
C1025 C1023 1.561 . S
C1026 C1023 1.526 . S
C1026 C1027 1.396 . S
C1026 C1031 1.390 . S
C1027 C1021 1.465 . S
C1027 C1026 1.396 . S
C1027 C1028 1.399 . S
C1028 H1014 0.929 . S
C1028 C1027 1.399 . S
C1028 C1029 1.385 . S
C1029 H1015 0.931 . S
C1029 C1028 1.385 . S
C1029 C1030 1.389 . S
C1030 C1029 1.389 . S
C1030 C1031 1.387 . S
C1031 H1016 0.930 . S
C1031 C1026 1.390 . S
C1031 C1030 1.387 . S
H1032 C1044 0.930 . S
H1033 C1046 0.930 . S
H1034 C1047 0.930 . S
H1035 C1051 0.959 . S
H1036 C1051 0.959 . S
H1037 C1051 0.961 . S
H1038 C1052 0.960 . S
H1039 C1052 0.961 . S
H1040 C1052 0.959 . S
H1041 C1055 0.929 . S
H1042 C1056 0.931 . S
H1043 C1058 0.930 . S
C1044 H1032 0.930 . S
C1044 C1045 1.399 . S
C1044 C1049 1.399 . S
C1045 C1044 1.399 . S
C1045 C1046 1.376 . S
C1046 H1033 0.930 . S
C1046 C1045 1.376 . S
C1046 C1047 1.388 . S
C1047 H1034 0.930 . S
C1047 C1046 1.388 . S
C1047 C1048 1.390 . S
C1048 C1047 1.390 . S
C1048 C1049 1.394 . S
C1048 C1054 1.465 . S
C1049 C1044 1.399 . S
C1049 C1048 1.394 . S
C1049 C1050 1.516 . S
C1050 C1049 1.516 . S
C1050 C1051 1.502 . S
C1050 C1052 1.561 . S
C1050 C1053 1.526 . S
C1051 H1035 0.959 . S
C1051 H1036 0.959 . S
C1051 H1037 0.961 . S
C1051 C1050 1.502 . S
C1052 H1038 0.960 . S
C1052 H1039 0.961 . S
C1052 H1040 0.959 . S
C1052 C1050 1.561 . S
C1053 C1050 1.526 . S
C1053 C1054 1.396 . S
C1053 C1058 1.390 . S
C1054 C1048 1.465 . S
C1054 C1053 1.396 . S
C1054 C1055 1.399 . S
C1055 H1041 0.929 . S
C1055 C1054 1.399 . S
C1055 C1056 1.385 . S
C1056 H1042 0.931 . S
C1056 C1055 1.385 . S
C1056 C1057 1.389 . S
C1057 C1056 1.389 . S
C1057 C1058 1.387 . S
C1058 H1043 0.930 . S
C1058 C1053 1.390 . S
C1058 C1057 1.387 . S
H1059 C1071 0.930 . S
H1060 C1073 0.930 . S
H1061 C1074 0.930 . S
H1062 C1078 0.959 . S
H1063 C1078 0.959 . S
H1064 C1078 0.961 . S
H1065 C1079 0.960 . S
H1066 C1079 0.961 . S
H1067 C1079 0.959 . S
H1068 C1082 0.929 . S
H1069 C1083 0.931 . S
H1070 C1085 0.930 . S
C1071 H1059 0.930 . S
C1071 C1072 1.399 . S
C1071 C1076 1.399 . S
C1072 C1071 1.399 . S
C1072 C1073 1.376 . S
C1073 H1060 0.930 . S
C1073 C1072 1.376 . S
C1073 C1074 1.388 . S
C1074 H1061 0.930 . S
C1074 C1073 1.388 . S
C1074 C1075 1.390 . S
C1075 C1074 1.390 . S
C1075 C1076 1.394 . S
C1075 C1081 1.465 . S
C1076 C1071 1.399 . S
C1076 C1075 1.394 . S
C1076 C1077 1.516 . S
C1077 C1076 1.516 . S
C1077 C1078 1.502 . S
C1077 C1079 1.561 . S
C1077 C1080 1.526 . S
C1078 H1062 0.959 . S
C1078 H1063 0.959 . S
C1078 H1064 0.961 . S
C1078 C1077 1.502 . S
C1079 H1065 0.960 . S
C1079 H1066 0.961 . S
C1079 H1067 0.959 . S
C1079 C1077 1.561 . S
C1080 C1077 1.526 . S
C1080 C1081 1.396 . S
C1080 C1085 1.390 . S
C1081 C1075 1.465 . S
C1081 C1080 1.396 . S
C1081 C1082 1.399 . S
C1082 H1068 0.929 . S
C1082 C1081 1.399 . S
C1082 C1083 1.385 . S
C1083 H1069 0.931 . S
C1083 C1082 1.385 . S
C1083 C1084 1.389 . S
C1084 C1083 1.389 . S
C1084 C1085 1.387 . S
C1085 H1070 0.930 . S
C1085 C1080 1.390 . S
C1085 C1084 1.387 . S
H1086 C1098 0.930 . S
H1087 C1100 0.930 . S
H1088 C1101 0.930 . S
H1089 C1105 0.959 . S
H1090 C1105 0.959 . S
H1091 C1105 0.961 . S
H1092 C1106 0.960 . S
H1093 C1106 0.961 . S
H1094 C1106 0.959 . S
H1095 C1109 0.929 . S
H1096 C1110 0.931 . S
H1097 C1112 0.930 . S
C1098 H1086 0.930 . S
C1098 C1099 1.399 . S
C1098 C1103 1.399 . S
C1099 C1098 1.399 . S
C1099 C1100 1.376 . S
C1100 H1087 0.930 . S
C1100 C1099 1.376 . S
C1100 C1101 1.388 . S
C1101 H1088 0.930 . S
C1101 C1100 1.388 . S
C1101 C1102 1.390 . S
C1102 C1101 1.390 . S
C1102 C1103 1.394 . S
C1102 C1108 1.465 . S
C1103 C1098 1.399 . S
C1103 C1102 1.394 . S
C1103 C1104 1.516 . S
C1104 C1103 1.516 . S
C1104 C1105 1.502 . S
C1104 C1106 1.561 . S
C1104 C1107 1.526 . S
C1105 H1089 0.959 . S
C1105 H1090 0.959 . S
C1105 H1091 0.961 . S
C1105 C1104 1.502 . S
C1106 H1092 0.960 . S
C1106 H1093 0.961 . S
C1106 H1094 0.959 . S
C1106 C1104 1.561 . S
C1107 C1104 1.526 . S
C1107 C1108 1.396 . S
C1107 C1112 1.390 . S
C1108 C1102 1.465 . S
C1108 C1107 1.396 . S
C1108 C1109 1.399 1_455 S
C1109 H1095 0.929 . S
C1109 C1108 1.399 1_655 S
C1109 C1110 1.385 . S
C1110 H1096 0.931 . S
C1110 C1109 1.385 . S
C1110 C1111 1.389 . S
C1111 C1110 1.389 . S
C1111 C1112 1.387 1_655 S
C1112 H1097 0.930 . S
C1112 C1107 1.390 . S
C1112 C1111 1.387 1_455 S
H1113 C1125 0.930 . S
H1114 C1127 0.930 1_455 S
H1115 C1128 0.930 . S
H1116 C1132 0.959 . S
H1117 C1132 0.959 . S
H1118 C1132 0.961 . S
H1119 C1133 0.960 . S
H1120 C1133 0.961 . S
H1121 C1133 0.959 . S
H1122 C1136 0.929 . S
H1123 C1137 0.931 . S
H1124 C1139 0.930 . S
C1125 H1113 0.930 . S
C1125 C1126 1.399 . S
C1125 C1130 1.399 . S
C1126 C1125 1.399 . S
C1126 C1127 1.376 . S
C1127 H1114 0.930 1_655 S
C1127 C1126 1.376 . S
C1127 C1128 1.388 . S
C1128 H1115 0.930 . S
C1128 C1127 1.388 . S
C1128 C1129 1.390 . S
C1129 C1128 1.390 . S
C1129 C1130 1.394 . S
C1129 C1135 1.465 . S
C1130 C1125 1.399 . S
C1130 C1129 1.394 . S
C1130 C1131 1.516 . S
C1131 C1130 1.516 . S
C1131 C1132 1.502 . S
C1131 C1133 1.561 . S
C1131 C1134 1.526 . S
C1132 H1116 0.959 . S
C1132 H1117 0.959 . S
C1132 H1118 0.961 . S
C1132 C1131 1.502 . S
C1133 H1119 0.960 . S
C1133 H1120 0.961 . S
C1133 H1121 0.959 . S
C1133 C1131 1.561 . S
C1134 C1131 1.526 . S
C1134 C1135 1.396 . S
C1134 C1139 1.390 . S
C1135 C1129 1.465 . S
C1135 C1134 1.396 . S
C1135 C1136 1.399 . S
C1136 H1122 0.929 . S
C1136 C1135 1.399 . S
C1136 C1137 1.385 . S
C1137 H1123 0.931 . S
C1137 C1136 1.385 . S
C1137 C1138 1.389 . S
C1138 C1137 1.389 . S
C1138 C1139 1.387 . S
C1139 H1124 0.930 . S
C1139 C1134 1.390 . S
C1139 C1138 1.387 . S
H1140 C1152 0.940 . S
H1141 C1154 0.930 . S
H1142 C1155 0.930 . S
H1143 C1159 0.959 . S
H1144 C1159 0.959 . S
H1145 C1159 0.961 . S
H1146 C1160 0.960 1_455 S
H1147 C1160 0.961 . S
H1148 C1160 0.961 . S
H1149 C1163 0.929 . S
H1150 C1164 0.931 . S
H1151 C1166 0.930 . S
C1152 H1140 0.940 . S
C1152 C1153 1.401 . S
C1152 C1157 1.387 1_455 S
C1153 C1152 1.401 . S
C1153 C1154 1.376 1_455 S
C1154 H1141 0.930 . S
C1154 C1153 1.376 1_655 S
C1154 C1155 1.388 . S
C1155 H1142 0.930 . S
C1155 C1154 1.388 . S
C1155 C1156 1.390 . S
C1156 C1155 1.390 . S
C1156 C1157 1.394 . S
C1156 C1162 1.465 . S
C1157 C1152 1.387 1_655 S
C1157 C1156 1.394 . S
C1157 C1158 1.516 . S
C1158 C1157 1.516 . S
C1158 C1159 1.502 . S
C1158 C1160 1.561 . S
C1158 C1161 1.526 . S
C1159 H1143 0.959 . S
C1159 H1144 0.959 . S
C1159 H1145 0.961 . S
C1159 C1158 1.502 . S
C1160 H1146 0.960 1_655 S
C1160 H1147 0.961 . S
C1160 H1148 0.961 . S
C1160 C1158 1.561 . S
C1161 C1158 1.526 . S
C1161 C1162 1.396 . S
C1161 C1166 1.390 . S
C1162 C1156 1.465 . S
C1162 C1161 1.396 . S
C1162 C1163 1.399 . S
C1163 H1149 0.929 . S
C1163 C1162 1.399 . S
C1163 C1164 1.385 . S
C1164 H1150 0.931 . S
C1164 C1163 1.385 . S
C1164 C1165 1.389 . S
C1165 C1164 1.389 . S
C1165 C1166 1.387 . S
C1166 H1151 0.930 . S
C1166 C1161 1.390 . S
C1166 C1165 1.387 . S
H1167 C1179 0.930 . S
H1168 C1181 0.930 . S
H1169 C1182 0.930 . S
H1170 C1186 0.959 . S
H1171 C1186 0.959 . S
H1172 C1186 0.961 . S
H1173 C1187 0.960 . S
H1174 C1187 0.961 . S
H1175 C1187 0.959 . S
H1176 C1190 0.929 . S
H1177 C1191 0.931 . S
H1178 C1193 0.930 . S
C1179 H1167 0.930 . S
C1179 C1180 1.399 . S
C1179 C1184 1.399 . S
C1180 C1179 1.399 . S
C1180 C1181 1.376 . S
C1181 H1168 0.930 . S
C1181 C1180 1.376 . S
C1181 C1182 1.388 . S
C1182 H1169 0.930 . S
C1182 C1181 1.388 . S
C1182 C1183 1.390 . S
C1183 C1182 1.390 . S
C1183 C1184 1.394 . S
C1183 C1189 1.465 . S
C1184 C1179 1.399 . S
C1184 C1183 1.394 . S
C1184 C1185 1.516 . S
C1185 C1184 1.516 . S
C1185 C1186 1.502 . S
C1185 C1187 1.561 . S
C1185 C1188 1.526 . S
C1186 H1170 0.959 . S
C1186 H1171 0.959 . S
C1186 H1172 0.961 . S
C1186 C1185 1.502 . S
C1187 H1173 0.960 . S
C1187 H1174 0.961 . S
C1187 H1175 0.959 . S
C1187 C1185 1.561 . S
C1188 C1185 1.526 . S
C1188 C1189 1.396 . S
C1188 C1193 1.390 . S
C1189 C1183 1.465 . S
C1189 C1188 1.396 . S
C1189 C1190 1.399 . S
C1190 H1176 0.929 . S
C1190 C1189 1.399 . S
C1190 C1191 1.385 . S
C1191 H1177 0.931 . S
C1191 C1190 1.385 . S
C1191 C1192 1.389 . S
C1192 C1191 1.389 . S
C1192 C1193 1.387 . S
C1193 H1178 0.930 . S
C1193 C1188 1.390 . S
C1193 C1192 1.387 . S
H1194 C1206 0.930 . S
H1195 C1208 0.930 . S
H1196 C1209 0.930 . S
H1197 C1213 0.959 . S
H1198 C1213 0.959 . S
H1199 C1213 0.961 . S
H1200 C1214 0.960 . S
H1201 C1214 0.961 . S
H1202 C1214 0.959 . S
H1203 C1217 0.929 . S
H1204 C1218 0.931 . S
H1205 C1220 0.930 . S
C1206 H1194 0.930 . S
C1206 C1207 1.399 . S
C1206 C1211 1.399 . S
C1207 C1206 1.399 . S
C1207 C1208 1.376 . S
C1208 H1195 0.930 . S
C1208 C1207 1.376 . S
C1208 C1209 1.388 . S
C1209 H1196 0.930 . S
C1209 C1208 1.388 . S
C1209 C1210 1.390 . S
C1210 C1209 1.390 . S
C1210 C1211 1.394 . S
C1210 C1216 1.465 . S
C1211 C1206 1.399 . S
C1211 C1210 1.394 . S
C1211 C1212 1.516 . S
C1212 C1211 1.516 . S
C1212 C1213 1.502 . S
C1212 C1214 1.561 . S
C1212 C1215 1.526 . S
C1213 H1197 0.959 . S
C1213 H1198 0.959 . S
C1213 H1199 0.961 . S
C1213 C1212 1.502 . S
C1214 H1200 0.960 . S
C1214 H1201 0.961 . S
C1214 H1202 0.959 . S
C1214 C1212 1.561 . S
C1215 C1212 1.526 . S
C1215 C1216 1.396 . S
C1215 C1220 1.390 . S
C1216 C1210 1.465 . S
C1216 C1215 1.396 . S
C1216 C1217 1.399 . S
C1217 H1203 0.929 . S
C1217 C1216 1.399 . S
C1217 C1218 1.385 . S
C1218 H1204 0.931 . S
C1218 C1217 1.385 . S
C1218 C1219 1.389 . S
C1219 C1218 1.389 . S
C1219 C1220 1.387 . S
C1220 H1205 0.930 . S
C1220 C1215 1.390 . S
C1220 C1219 1.387 . S
H1221 C1233 0.930 . S
H1222 C1235 0.930 1_655 S
H1223 C1236 0.930 . S
H1224 C1240 0.959 . S
H1225 C1240 0.959 . S
H1226 C1240 0.961 . S
H1227 C1241 0.960 . S
H1228 C1241 0.961 . S
H1229 C1241 0.959 . S
H1230 C1244 0.929 . S
H1231 C1245 0.931 . S
H1232 C1247 0.930 . S
C1233 H1221 0.930 . S
C1233 C1234 1.399 . S
C1233 C1238 1.399 . S
C1234 C1233 1.399 . S
C1234 C1235 1.376 . S
C1235 H1222 0.930 1_455 S
C1235 C1234 1.376 . S
C1235 C1236 1.388 . S
C1236 H1223 0.930 . S
C1236 C1235 1.388 . S
C1236 C1237 1.390 . S
C1237 C1236 1.390 . S
C1237 C1238 1.394 . S
C1237 C1243 1.465 . S
C1238 C1233 1.399 . S
C1238 C1237 1.394 . S
C1238 C1239 1.516 . S
C1239 C1238 1.516 . S
C1239 C1240 1.502 . S
C1239 C1241 1.561 . S
C1239 C1242 1.526 . S
C1240 H1224 0.959 . S
C1240 H1225 0.959 . S
C1240 H1226 0.961 . S
C1240 C1239 1.502 . S
C1241 H1227 0.960 . S
C1241 H1228 0.961 . S
C1241 H1229 0.959 . S
C1241 C1239 1.561 . S
C1242 C1239 1.526 . S
C1242 C1243 1.396 . S
C1242 C1247 1.390 . S
C1243 C1237 1.465 . S
C1243 C1242 1.396 . S
C1243 C1244 1.399 . S
C1244 H1230 0.929 . S
C1244 C1243 1.399 . S
C1244 C1245 1.385 . S
C1245 H1231 0.931 . S
C1245 C1244 1.385 . S
C1245 C1246 1.389 . S
C1246 C1245 1.389 . S
C1246 C1247 1.387 . S
C1247 H1232 0.930 . S
C1247 C1242 1.390 . S
C1247 C1246 1.387 . S
H1248 C1260 0.930 . S
H1249 C1262 0.930 . S
H1250 C1263 0.930 . S
H1251 C1267 0.959 . S
H1252 C1267 0.959 . S
H1253 C1267 0.961 . S
H1254 C1268 0.960 . S
H1255 C1268 0.961 . S
H1256 C1268 0.959 . S
H1257 C1271 0.929 . S
H1258 C1272 0.931 . S
H1259 C1274 0.930 . S
C1260 H1248 0.930 . S
C1260 C1261 1.399 . S
C1260 C1265 1.399 . S
C1261 C1260 1.399 . S
C1261 C1262 1.376 . S
C1262 H1249 0.930 . S
C1262 C1261 1.376 . S
C1262 C1263 1.388 . S
C1263 H1250 0.930 . S
C1263 C1262 1.388 . S
C1263 C1264 1.390 . S
C1264 C1263 1.390 . S
C1264 C1265 1.394 . S
C1264 C1270 1.465 . S
C1265 C1260 1.399 . S
C1265 C1264 1.394 . S
C1265 C1266 1.516 . S
C1266 C1265 1.516 . S
C1266 C1267 1.502 . S
C1266 C1268 1.561 . S
C1266 C1269 1.526 . S
C1267 H1251 0.959 . S
C1267 H1252 0.959 . S
C1267 H1253 0.961 . S
C1267 C1266 1.502 . S
C1268 H1254 0.960 . S
C1268 H1255 0.961 . S
C1268 H1256 0.959 . S
C1268 C1266 1.561 . S
C1269 C1266 1.526 . S
C1269 C1270 1.396 . S
C1269 C1274 1.390 . S
C1270 C1264 1.465 . S
C1270 C1269 1.396 . S
C1270 C1271 1.399 . S
C1271 H1257 0.929 . S
C1271 C1270 1.399 . S
C1271 C1272 1.385 . S
C1272 H1258 0.931 . S
C1272 C1271 1.385 . S
C1272 C1273 1.389 . S
C1273 C1272 1.389 . S
C1273 C1274 1.387 . S
C1274 H1259 0.930 . S
C1274 C1269 1.390 . S
C1274 C1273 1.387 . S
H1275 C1287 0.930 . S
H1276 C1289 0.930 . S
H1277 C1290 0.930 . S
H1278 C1294 0.955 1_545 S
H1279 C1294 0.988 . S
H1280 C1294 0.956 1_545 S
H1281 C1295 0.960 . S
H1282 C1295 0.961 1_565 S
H1283 C1295 0.959 . S
H1284 C1298 0.929 . S
H1285 C1299 0.931 . S
H1286 C1301 0.930 . S
C1287 H1275 0.930 . S
C1287 C1288 1.399 . S
C1287 C1292 1.399 . S
C1288 C1287 1.399 . S
C1288 C1289 1.376 . S
C1289 H1276 0.930 . S
C1289 C1288 1.376 . S
C1289 C1290 1.388 . S
C1290 H1277 0.930 . S
C1290 C1289 1.388 . S
C1290 C1291 1.390 . S
C1291 C1290 1.390 . S
C1291 C1292 1.394 . S
C1291 C1297 1.465 . S
C1292 C1287 1.399 . S
C1292 C1291 1.394 . S
C1292 C1293 1.516 . S
C1293 C1292 1.516 . S
C1293 C1294 1.483 1_545 S
C1293 C1295 1.561 . S
C1293 C1296 1.526 . S
C1294 H1278 0.955 1_565 S
C1294 H1279 0.988 . S
C1294 H1280 0.956 1_565 S
C1294 C1293 1.483 1_565 S
C1295 H1281 0.960 . S
C1295 H1282 0.961 1_545 S
C1295 H1283 0.959 . S
C1295 C1293 1.561 . S
C1296 C1293 1.526 . S
C1296 C1297 1.396 . S
C1296 C1301 1.390 1_545 S
C1297 C1291 1.465 . S
C1297 C1296 1.396 . S
C1297 C1298 1.399 . S
C1298 H1284 0.929 . S
C1298 C1297 1.399 . S
C1298 C1299 1.385 . S
C1299 H1285 0.931 . S
C1299 C1298 1.385 . S
C1299 C1300 1.389 1_545 S
C1300 C1299 1.389 1_565 S
C1300 C1301 1.387 . S
C1301 H1286 0.930 . S
C1301 C1296 1.390 1_565 S
C1301 C1300 1.387 . S
H1302 C1314 0.930 . S
H1303 C1316 0.930 . S
H1304 C1317 0.930 . S
H1305 C1321 0.959 . S
H1306 C1321 0.959 . S
H1307 C1321 0.961 . S
H1308 C1322 0.960 . S
H1309 C1322 0.961 . S
H1310 C1322 0.959 . S
H1311 C1325 0.929 . S
H1312 C1326 0.931 . S
H1313 C1328 0.930 . S
C1314 H1302 0.930 . S
C1314 C1315 1.399 . S
C1314 C1319 1.399 . S
C1315 C1314 1.399 . S
C1315 C1316 1.376 . S
C1316 H1303 0.930 . S
C1316 C1315 1.376 . S
C1316 C1317 1.388 . S
C1317 H1304 0.930 . S
C1317 C1316 1.388 . S
C1317 C1318 1.390 . S
C1318 C1317 1.390 . S
C1318 C1319 1.394 . S
C1318 C1324 1.465 . S
C1319 C1314 1.399 . S
C1319 C1318 1.394 . S
C1319 C1320 1.516 . S
C1320 C1319 1.516 . S
C1320 C1321 1.502 . S
C1320 C1322 1.561 . S
C1320 C1323 1.526 . S
C1321 H1305 0.959 . S
C1321 H1306 0.959 . S
C1321 H1307 0.961 . S
C1321 C1320 1.502 . S
C1322 H1308 0.960 . S
C1322 H1309 0.961 . S
C1322 H1310 0.959 . S
C1322 C1320 1.561 . S
C1323 C1320 1.526 . S
C1323 C1324 1.396 . S
C1323 C1328 1.390 . S
C1324 C1318 1.465 . S
C1324 C1323 1.396 . S
C1324 C1325 1.399 . S
C1325 H1311 0.929 . S
C1325 C1324 1.399 . S
C1325 C1326 1.385 . S
C1326 H1312 0.931 . S
C1326 C1325 1.385 . S
C1326 C1327 1.389 . S
C1327 C1326 1.389 . S
C1327 C1328 1.387 . S
C1328 H1313 0.930 . S
C1328 C1323 1.390 . S
C1328 C1327 1.387 . S
H1329 C1341 0.930 . S
H1330 C1343 0.930 . S
H1331 C1344 0.930 . S
H1332 C1348 0.959 . S
H1333 C1348 0.959 . S
H1334 C1348 0.961 . S
H1335 C1349 0.960 . S
H1336 C1349 0.961 . S
H1337 C1349 0.959 . S
H1338 C1352 0.929 . S
H1339 C1353 0.931 . S
H1340 C1355 0.930 . S
C1341 H1329 0.930 . S
C1341 C1342 1.399 1_565 S
C1341 C1346 1.399 . S
C1342 C1341 1.399 1_545 S
C1342 C1343 1.376 . S
C1343 H1330 0.930 . S
C1343 C1342 1.376 . S
C1343 C1344 1.388 1_545 S
C1344 H1331 0.930 . S
C1344 C1343 1.388 1_565 S
C1344 C1345 1.390 . S
C1345 C1344 1.390 . S
C1345 C1346 1.394 . S
C1345 C1351 1.465 . S
C1346 C1341 1.399 . S
C1346 C1345 1.394 . S
C1346 C1347 1.516 . S
C1347 C1346 1.516 . S
C1347 C1348 1.502 . S
C1347 C1349 1.561 . S
C1347 C1350 1.526 . S
C1348 H1332 0.959 . S
C1348 H1333 0.959 . S
C1348 H1334 0.961 . S
C1348 C1347 1.502 . S
C1349 H1335 0.960 . S
C1349 H1336 0.961 . S
C1349 H1337 0.959 . S
C1349 C1347 1.561 . S
C1350 C1347 1.526 . S
C1350 C1351 1.396 . S
C1350 C1355 1.390 . S
C1351 C1345 1.465 . S
C1351 C1350 1.396 . S
C1351 C1352 1.399 . S
C1352 H1338 0.929 . S
C1352 C1351 1.399 . S
C1352 C1353 1.385 . S
C1353 H1339 0.931 . S
C1353 C1352 1.385 . S
C1353 C1354 1.389 . S
C1354 C1353 1.389 . S
C1354 C1355 1.387 . S
C1355 H1340 0.930 . S
C1355 C1350 1.390 . S
C1355 C1354 1.387 . S
H1356 C1368 0.930 . S
H1357 C1370 0.930 . S
H1358 C1371 0.930 . S
H1359 C1375 0.959 . S
H1360 C1375 0.959 . S
H1361 C1375 0.961 . S
H1362 C1376 0.960 . S
H1363 C1376 0.961 . S
H1364 C1376 0.959 . S
H1365 C1379 0.929 . S
H1366 C1380 0.931 . S
H1367 C1382 0.921 1_556 S
C1368 H1356 0.930 . S
C1368 C1369 1.399 . S
C1368 C1373 1.399 . S
C1369 C1368 1.399 . S
C1369 C1370 1.376 . S
C1370 H1357 0.930 . S
C1370 C1369 1.376 . S
C1370 C1371 1.388 . S
C1371 H1358 0.930 . S
C1371 C1370 1.388 . S
C1371 C1372 1.390 . S
C1372 C1371 1.390 . S
C1372 C1373 1.394 . S
C1372 C1378 1.465 . S
C1373 C1368 1.399 . S
C1373 C1372 1.394 . S
C1373 C1374 1.516 . S
C1374 C1373 1.516 . S
C1374 C1375 1.502 . S
C1374 C1376 1.561 . S
C1374 C1377 1.526 . S
C1375 H1359 0.959 . S
C1375 H1360 0.959 . S
C1375 H1361 0.961 . S
C1375 C1374 1.502 . S
C1376 H1362 0.960 . S
C1376 H1363 0.961 . S
C1376 H1364 0.959 . S
C1376 C1374 1.561 . S
C1377 C1374 1.526 . S
C1377 C1378 1.396 . S
C1377 C1382 1.390 . S
C1378 C1372 1.465 . S
C1378 C1377 1.396 . S
C1378 C1379 1.399 . S
C1379 H1365 0.929 . S
C1379 C1378 1.399 . S
C1379 C1380 1.385 . S
C1380 H1366 0.931 . S
C1380 C1379 1.385 . S
C1380 C1381 1.389 . S
C1381 C1380 1.389 . S
C1381 C1382 1.387 . S
C1382 H1367 0.921 1_554 S
C1382 C1377 1.390 . S
C1382 C1381 1.387 . S
H1383 C1395 0.930 . S
H1384 C1397 0.930 . S
H1385 C1398 0.930 . S
H1386 C1402 0.959 . S
H1387 C1402 0.959 . S
H1388 C1402 0.961 . S
H1389 C1403 0.960 . S
H1390 C1403 0.961 . S
H1391 C1403 0.959 . S
H1392 C1406 0.929 . S
H1393 C1407 0.931 . S
H1394 C1409 0.930 . S
C1395 H1383 0.930 . S
C1395 C1396 1.399 . S
C1395 C1400 1.399 . S
C1396 C1395 1.399 . S
C1396 C1397 1.376 . S
C1397 H1384 0.930 . S
C1397 C1396 1.376 . S
C1397 C1398 1.388 . S
C1398 H1385 0.930 . S
C1398 C1397 1.388 . S
C1398 C1399 1.390 . S
C1399 C1398 1.390 . S
C1399 C1400 1.394 . S
C1399 C1405 1.465 . S
C1400 C1395 1.399 . S
C1400 C1399 1.394 . S
C1400 C1401 1.516 . S
C1401 C1400 1.516 . S
C1401 C1402 1.502 . S
C1401 C1403 1.561 . S
C1401 C1404 1.526 . S
C1402 H1386 0.959 . S
C1402 H1387 0.959 . S
C1402 H1388 0.961 . S
C1402 C1401 1.502 . S
C1403 H1389 0.960 . S
C1403 H1390 0.961 . S
C1403 H1391 0.959 . S
C1403 C1401 1.561 . S
C1404 C1401 1.526 . S
C1404 C1405 1.396 . S
C1404 C1409 1.390 . S
C1405 C1399 1.465 . S
C1405 C1404 1.396 . S
C1405 C1406 1.399 . S
C1406 H1392 0.929 . S
C1406 C1405 1.399 . S
C1406 C1407 1.385 . S
C1407 H1393 0.931 . S
C1407 C1406 1.385 . S
C1407 C1408 1.389 . S
C1408 C1407 1.389 . S
C1408 C1409 1.387 . S
C1409 H1394 0.930 . S
C1409 C1404 1.390 . S
C1409 C1408 1.387 . S
H1410 C1422 0.930 . S
H1411 C1424 0.930 . S
H1412 C1425 0.930 . S
H1413 C1429 0.959 . S
H1414 C1429 0.959 . S
H1415 C1429 0.961 . S
H1416 C1430 0.960 . S
H1417 C1430 0.961 . S
H1418 C1430 0.959 . S
H1419 C1433 0.929 . S
H1420 C1434 0.931 . S
H1421 C1436 0.930 . S
C1422 H1410 0.930 . S
C1422 C1423 1.399 . S
C1422 C1427 1.399 . S
C1423 C1422 1.399 . S
C1423 C1424 1.376 . S
C1424 H1411 0.930 . S
C1424 C1423 1.376 . S
C1424 C1425 1.388 . S
C1425 H1412 0.930 . S
C1425 C1424 1.388 . S
C1425 C1426 1.390 . S
C1426 C1425 1.390 . S
C1426 C1427 1.394 . S
C1426 C1432 1.465 . S
C1427 C1422 1.399 . S
C1427 C1426 1.394 . S
C1427 C1428 1.516 . S
C1428 C1427 1.516 . S
C1428 C1429 1.502 . S
C1428 C1430 1.561 . S
C1428 C1431 1.526 . S
C1429 H1413 0.959 . S
C1429 H1414 0.959 . S
C1429 H1415 0.961 . S
C1429 C1428 1.502 . S
C1430 H1416 0.960 . S
C1430 H1417 0.961 . S
C1430 H1418 0.959 . S
C1430 C1428 1.561 . S
C1431 C1428 1.526 . S
C1431 C1432 1.396 . S
C1431 C1436 1.390 . S
C1432 C1426 1.465 . S
C1432 C1431 1.396 . S
C1432 C1433 1.399 . S
C1433 H1419 0.929 . S
C1433 C1432 1.399 . S
C1433 C1434 1.385 . S
C1434 H1420 0.931 . S
C1434 C1433 1.385 . S
C1434 C1435 1.389 . S
C1435 C1434 1.389 . S
C1435 C1436 1.387 . S
C1436 H1421 0.930 . S
C1436 C1431 1.390 . S
C1436 C1435 1.387 . S
H1437 C1449 0.930 . S
H1438 C1451 0.930 . S
H1439 C1452 0.930 . S
H1440 C1456 0.959 . S
H1441 C1456 0.959 . S
H1442 C1456 0.961 . S
H1443 C1457 0.960 . S
H1444 C1457 0.961 . S
H1445 C1457 0.959 . S
H1446 C1460 0.929 . S
H1447 C1461 0.931 . S
H1448 C1463 0.930 . S
C1449 H1437 0.930 . S
C1449 C1450 1.399 . S
C1449 C1454 1.399 . S
C1450 C1449 1.399 . S
C1450 C1451 1.376 . S
C1451 H1438 0.930 . S
C1451 C1450 1.376 . S
C1451 C1452 1.388 . S
C1452 H1439 0.930 . S
C1452 C1451 1.388 . S
C1452 C1453 1.390 . S
C1453 C1452 1.390 . S
C1453 C1454 1.394 . S
C1453 C1459 1.465 . S
C1454 C1449 1.399 . S
C1454 C1453 1.394 . S
C1454 C1455 1.516 . S
C1455 C1454 1.516 . S
C1455 C1456 1.502 . S
C1455 C1457 1.561 . S
C1455 C1458 1.526 . S
C1456 H1440 0.959 . S
C1456 H1441 0.959 . S
C1456 H1442 0.961 . S
C1456 C1455 1.502 . S
C1457 H1443 0.960 . S
C1457 H1444 0.961 . S
C1457 H1445 0.959 . S
C1457 C1455 1.561 . S
C1458 C1455 1.526 . S
C1458 C1459 1.396 . S
C1458 C1463 1.390 . S
C1459 C1453 1.465 . S
C1459 C1458 1.396 . S
C1459 C1460 1.399 . S
C1460 H1446 0.929 . S
C1460 C1459 1.399 . S
C1460 C1461 1.385 . S
C1461 H1447 0.931 . S
C1461 C1460 1.385 . S
C1461 C1462 1.389 . S
C1462 C1461 1.389 . S
C1462 C1463 1.387 . S
C1463 H1448 0.930 . S
C1463 C1458 1.390 . S
C1463 C1462 1.387 . S
H1464 C1476 0.930 . S
H1465 C1478 0.930 . S
H1466 C1479 0.930 . S
H1467 C1483 0.959 . S
H1468 C1483 0.959 . S
H1469 C1483 0.961 . S
H1470 C1484 0.960 . S
H1471 C1484 0.961 . S
H1472 C1484 0.959 . S
H1473 C1487 0.929 . S
H1474 C1488 0.931 . S
H1475 C1490 0.930 . S
C1476 H1464 0.930 . S
C1476 C1477 1.399 . S
C1476 C1481 1.399 . S
C1477 C1476 1.399 . S
C1477 C1478 1.376 . S
C1478 H1465 0.930 . S
C1478 C1477 1.376 . S
C1478 C1479 1.388 . S
C1479 H1466 0.930 . S
C1479 C1478 1.388 . S
C1479 C1480 1.390 . S
C1480 C1479 1.390 . S
C1480 C1481 1.394 . S
C1480 C1486 1.465 . S
C1481 C1476 1.399 . S
C1481 C1480 1.394 . S
C1481 C1482 1.516 . S
C1482 C1481 1.516 . S
C1482 C1483 1.502 . S
C1482 C1484 1.561 . S
C1482 C1485 1.526 . S
C1483 H1467 0.959 . S
C1483 H1468 0.959 . S
C1483 H1469 0.961 . S
C1483 C1482 1.502 . S
C1484 H1470 0.960 . S
C1484 H1471 0.961 . S
C1484 H1472 0.959 . S
C1484 C1482 1.561 . S
C1485 C1482 1.526 . S
C1485 C1486 1.396 . S
C1485 C1490 1.390 . S
C1486 C1480 1.465 . S
C1486 C1485 1.396 . S
C1486 C1487 1.399 . S
C1487 H1473 0.929 . S
C1487 C1486 1.399 . S
C1487 C1488 1.385 . S
C1488 H1474 0.931 . S
C1488 C1487 1.385 . S
C1488 C1489 1.389 . S
C1489 C1488 1.389 . S
C1489 C1490 1.387 . S
C1490 H1475 0.930 . S
C1490 C1485 1.390 . S
C1490 C1489 1.387 . S
H1491 C1503 0.930 . S
H1492 C1505 0.930 . S
H1493 C1506 0.930 . S
H1494 C1510 0.959 . S
H1495 C1510 0.959 . S
H1496 C1510 0.961 . S
H1497 C1511 0.960 . S
H1498 C1511 0.961 . S
H1499 C1511 0.959 . S
H1500 C1514 0.929 . S
H1501 C1515 0.931 . S
H1502 C1517 0.930 . S
C1503 H1491 0.930 . S
C1503 C1504 1.399 . S
C1503 C1508 1.399 . S
C1504 C1503 1.399 . S
C1504 C1505 1.376 . S
C1505 H1492 0.930 . S
C1505 C1504 1.376 . S
C1505 C1506 1.388 . S
C1506 H1493 0.930 . S
C1506 C1505 1.388 . S
C1506 C1507 1.390 . S
C1507 C1506 1.390 . S
C1507 C1508 1.394 . S
C1507 C1513 1.465 . S
C1508 C1503 1.399 . S
C1508 C1507 1.394 . S
C1508 C1509 1.516 . S
C1509 C1508 1.516 . S
C1509 C1510 1.502 . S
C1509 C1511 1.561 . S
C1509 C1512 1.526 . S
C1510 H1494 0.959 . S
C1510 H1495 0.959 . S
C1510 H1496 0.961 . S
C1510 C1509 1.502 . S
C1511 H1497 0.960 . S
C1511 H1498 0.961 . S
C1511 H1499 0.959 . S
C1511 C1509 1.561 . S
C1512 C1509 1.526 . S
C1512 C1513 1.396 . S
C1512 C1517 1.390 1_556 S
C1513 C1507 1.465 . S
C1513 C1512 1.396 . S
C1513 C1514 1.399 . S
C1514 H1500 0.929 . S
C1514 C1513 1.399 . S
C1514 C1515 1.385 1_556 S
C1515 H1501 0.931 . S
C1515 C1514 1.385 1_554 S
C1515 C1516 1.389 . S
C1516 C1515 1.389 . S
C1516 C1517 1.387 . S
C1517 H1502 0.930 . S
C1517 C1512 1.390 1_554 S
C1517 C1516 1.387 . S
H1518 C1530 0.930 . S
H1519 C1532 0.930 . S
H1520 C1533 0.930 . S
H1521 C1537 0.959 . S
H1522 C1537 0.959 . S
H1523 C1537 0.961 . S
H1524 C1538 0.960 . S
H1525 C1538 0.961 . S
H1526 C1538 0.959 . S
H1527 C1541 0.929 . S
H1528 C1542 0.931 . S
H1529 C1544 0.930 . S
C1530 H1518 0.930 . S
C1530 C1531 1.399 . S
C1530 C1535 1.399 . S
C1531 C1530 1.399 . S
C1531 C1532 1.376 . S
C1532 H1519 0.930 . S
C1532 C1531 1.376 . S
C1532 C1533 1.388 . S
C1533 H1520 0.930 . S
C1533 C1532 1.388 . S
C1533 C1534 1.390 . S
C1534 C1533 1.390 . S
C1534 C1535 1.394 . S
C1534 C1540 1.465 . S
C1535 C1530 1.399 . S
C1535 C1534 1.394 . S
C1535 C1536 1.516 . S
C1536 C1535 1.516 . S
C1536 C1537 1.502 . S
C1536 C1538 1.561 . S
C1536 C1539 1.526 . S
C1537 H1521 0.959 . S
C1537 H1522 0.959 . S
C1537 H1523 0.961 . S
C1537 C1536 1.502 . S
C1538 H1524 0.960 . S
C1538 H1525 0.961 . S
C1538 H1526 0.959 . S
C1538 C1536 1.561 . S
C1539 C1536 1.526 . S
C1539 C1540 1.396 . S
C1539 C1544 1.390 . S
C1540 C1534 1.465 . S
C1540 C1539 1.396 . S
C1540 C1541 1.399 . S
C1541 H1527 0.929 . S
C1541 C1540 1.399 . S
C1541 C1542 1.385 . S
C1542 H1528 0.931 . S
C1542 C1541 1.385 . S
C1542 C1543 1.389 . S
C1543 C1542 1.389 . S
C1543 C1544 1.387 . S
C1544 H1529 0.930 . S
C1544 C1539 1.390 . S
C1544 C1543 1.387 . S
H1545 C1557 0.930 . S
H1546 C1559 0.930 . S
H1547 C1560 0.930 . S
H1548 C1564 0.959 . S
H1549 C1564 0.959 . S
H1550 C1564 0.961 . S
H1551 C1565 0.960 1_455 S
H1552 C1565 0.961 . S
H1553 C1565 0.959 . S
H1554 C1568 0.929 . S
H1555 C1569 0.931 . S
H1556 C1571 0.930 . S
C1557 H1545 0.930 . S
C1557 C1558 1.399 . S
C1557 C1562 1.399 . S
C1558 C1557 1.399 . S
C1558 C1559 1.376 . S
C1559 H1546 0.930 . S
C1559 C1558 1.376 . S
C1559 C1560 1.388 . S
C1560 H1547 0.930 . S
C1560 C1559 1.388 . S
C1560 C1561 1.390 . S
C1561 C1560 1.390 . S
C1561 C1562 1.394 . S
C1561 C1567 1.465 . S
C1562 C1557 1.399 . S
C1562 C1561 1.394 . S
C1562 C1563 1.516 . S
C1563 C1562 1.516 . S
C1563 C1564 1.502 . S
C1563 C1565 1.561 1_455 S
C1563 C1566 1.526 . S
C1564 H1548 0.959 . S
C1564 H1549 0.959 . S
C1564 H1550 0.961 . S
C1564 C1563 1.502 . S
C1565 H1551 0.960 1_655 S
C1565 H1552 0.961 . S
C1565 H1553 0.959 . S
C1565 C1563 1.561 1_655 S
C1566 C1563 1.526 . S
C1566 C1567 1.396 . S
C1566 C1571 1.390 1_455 S
C1567 C1561 1.465 . S
C1567 C1566 1.396 . S
C1567 C1568 1.399 1_455 S
C1568 H1554 0.929 . S
C1568 C1567 1.399 1_655 S
C1568 C1569 1.385 . S
C1569 H1555 0.931 . S
C1569 C1568 1.385 . S
C1569 C1570 1.389 . S
C1570 C1569 1.389 . S
C1570 C1571 1.387 . S
C1571 H1556 0.930 . S
C1571 C1566 1.390 1_655 S
C1571 C1570 1.387 . S
H1572 C1584 0.930 . S
H1573 C1586 0.930 . S
H1574 C1587 0.930 . S
H1575 C1591 0.959 . S
H1576 C1591 0.959 . S
H1577 C1591 0.961 . S
H1578 C1592 0.960 . S
H1579 C1592 0.961 . S
H1580 C1592 0.959 . S
H1581 C1595 0.929 . S
H1582 C1596 0.931 . S
H1583 C1598 0.930 . S
C1584 H1572 0.930 . S
C1584 C1585 1.399 . S
C1584 C1589 1.399 . S
C1585 C1584 1.399 . S
C1585 C1586 1.376 . S
C1586 H1573 0.930 . S
C1586 C1585 1.376 . S
C1586 C1587 1.388 . S
C1587 H1574 0.930 . S
C1587 C1586 1.388 . S
C1587 C1588 1.390 . S
C1588 C1587 1.390 . S
C1588 C1589 1.394 . S
C1588 C1594 1.465 . S
C1589 C1584 1.399 . S
C1589 C1588 1.394 . S
C1589 C1590 1.516 . S
C1590 C1589 1.516 . S
C1590 C1591 1.502 . S
C1590 C1592 1.561 . S
C1590 C1593 1.526 . S
C1591 H1575 0.959 . S
C1591 H1576 0.959 . S
C1591 H1577 0.961 . S
C1591 C1590 1.502 . S
C1592 H1578 0.960 . S
C1592 H1579 0.961 . S
C1592 H1580 0.959 . S
C1592 C1590 1.561 . S
C1593 C1590 1.526 . S
C1593 C1594 1.396 . S
C1593 C1598 1.390 . S
C1594 C1588 1.465 . S
C1594 C1593 1.396 . S
C1594 C1595 1.399 . S
C1595 H1581 0.929 . S
C1595 C1594 1.399 . S
C1595 C1596 1.385 . S
C1596 H1582 0.931 . S
C1596 C1595 1.385 . S
C1596 C1597 1.389 . S
C1597 C1596 1.389 . S
C1597 C1598 1.387 . S
C1598 H1583 0.930 . S
C1598 C1593 1.390 . S
C1598 C1597 1.387 . S
H1599 C1611 0.930 . S
H1600 C1613 0.930 . S
H1601 C1614 0.930 . S
H1602 C1618 0.959 . S
H1603 C1618 0.959 . S
H1604 C1618 0.961 . S
H1605 C1619 0.960 . S
H1606 C1619 0.961 . S
H1607 C1619 0.959 . S
H1608 C1622 0.929 . S
H1609 C1623 0.931 . S
H1610 C1625 0.930 . S
C1611 H1599 0.930 . S
C1611 C1612 1.399 . S
C1611 C1616 1.399 . S
C1612 C1611 1.399 . S
C1612 C1613 1.376 . S
C1613 H1600 0.930 . S
C1613 C1612 1.376 . S
C1613 C1614 1.388 . S
C1614 H1601 0.930 . S
C1614 C1613 1.388 . S
C1614 C1615 1.390 . S
C1615 C1614 1.390 . S
C1615 C1616 1.394 . S
C1615 C1621 1.465 . S
C1616 C1611 1.399 . S
C1616 C1615 1.394 . S
C1616 C1617 1.516 . S
C1617 C1616 1.516 . S
C1617 C1618 1.502 . S
C1617 C1619 1.561 . S
C1617 C1620 1.526 . S
C1618 H1602 0.959 . S
C1618 H1603 0.959 . S
C1618 H1604 0.961 . S
C1618 C1617 1.502 . S
C1619 H1605 0.960 . S
C1619 H1606 0.961 . S
C1619 H1607 0.959 . S
C1619 C1617 1.561 . S
C1620 C1617 1.526 . S
C1620 C1621 1.396 . S
C1620 C1625 1.390 . S
C1621 C1615 1.465 . S
C1621 C1620 1.396 . S
C1621 C1622 1.399 . S
C1622 H1608 0.929 . S
C1622 C1621 1.399 . S
C1622 C1623 1.385 . S
C1623 H1609 0.931 . S
C1623 C1622 1.385 . S
C1623 C1624 1.389 . S
C1624 C1623 1.389 . S
C1624 C1625 1.387 . S
C1625 H1610 0.930 . S
C1625 C1620 1.390 . S
C1625 C1624 1.387 . S
H1626 C1638 0.930 . S
H1627 C1640 0.930 . S
H1628 C1641 0.930 . S
H1629 C1645 0.959 . S
H1630 C1645 0.959 . S
H1631 C1645 0.961 . S
H1632 C1646 0.960 . S
H1633 C1646 0.961 . S
H1634 C1646 0.959 . S
H1635 C1649 0.929 . S
H1636 C1650 0.931 . S
H1637 C1652 0.930 . S
C1638 H1626 0.930 . S
C1638 C1639 1.399 . S
C1638 C1643 1.399 . S
C1639 C1638 1.399 . S
C1639 C1640 1.376 . S
C1640 H1627 0.930 . S
C1640 C1639 1.376 . S
C1640 C1641 1.388 . S
C1641 H1628 0.930 . S
C1641 C1640 1.388 . S
C1641 C1642 1.390 . S
C1642 C1641 1.390 . S
C1642 C1643 1.394 . S
C1642 C1648 1.465 . S
C1643 C1638 1.399 . S
C1643 C1642 1.394 . S
C1643 C1644 1.516 . S
C1644 C1643 1.516 . S
C1644 C1645 1.502 . S
C1644 C1646 1.561 . S
C1644 C1647 1.526 . S
C1645 H1629 0.959 . S
C1645 H1630 0.959 . S
C1645 H1631 0.961 . S
C1645 C1644 1.502 . S
C1646 H1632 0.960 . S
C1646 H1633 0.961 . S
C1646 H1634 0.959 . S
C1646 C1644 1.561 . S
C1647 C1644 1.526 . S
C1647 C1648 1.396 . S
C1647 C1652 1.390 . S
C1648 C1642 1.465 . S
C1648 C1647 1.396 . S
C1648 C1649 1.399 . S
C1649 H1635 0.929 . S
C1649 C1648 1.399 . S
C1649 C1650 1.385 . S
C1650 H1636 0.931 . S
C1650 C1649 1.385 . S
C1650 C1651 1.389 . S
C1651 C1650 1.389 . S
C1651 C1652 1.387 . S
C1652 H1637 0.930 . S
C1652 C1647 1.390 . S
C1652 C1651 1.387 . S
H1653 C1665 0.930 . S
H1654 C1667 0.930 . S
H1655 C1668 0.930 . S
H1656 C1672 0.959 . S
H1657 C1672 0.959 . S
H1658 C1672 0.961 1_556 S
H1659 C1673 0.960 . S
H1660 C1673 0.961 1_655 S
H1661 C1673 0.959 . S
H1662 C1676 0.929 . S
H1663 C1677 0.931 . S
H1664 C1679 0.930 . S
C1665 H1653 0.930 . S
C1665 C1666 1.399 . S
C1665 C1670 1.399 1_456 S
C1666 C1665 1.399 . S
C1666 C1667 1.376 . S
C1667 H1654 0.930 . S
C1667 C1666 1.376 . S
C1667 C1668 1.388 1_556 S
C1668 H1655 0.930 . S
C1668 C1667 1.388 1_554 S
C1668 C1669 1.390 1_455 S
C1669 C1668 1.390 1_655 S
C1669 C1670 1.394 . S
C1669 C1675 1.465 . S
C1670 C1665 1.399 1_654 S
C1670 C1669 1.394 . S
C1670 C1671 1.516 . S
C1671 C1670 1.516 . S
C1671 C1672 1.502 . S
C1671 C1673 1.561 1_655 S
C1671 C1674 1.526 . S
C1672 H1656 0.959 . S
C1672 H1657 0.959 . S
C1672 H1658 0.961 1_554 S
C1672 C1671 1.502 . S
C1673 H1659 0.960 . S
C1673 H1660 0.961 1_455 S
C1673 H1661 0.959 . S
C1673 C1671 1.561 1_455 S
C1674 C1671 1.526 . S
C1674 C1675 1.396 . S
C1674 C1679 1.390 . S
C1675 C1669 1.465 . S
C1675 C1674 1.396 . S
C1675 C1676 1.399 . S
C1676 H1662 0.929 . S
C1676 C1675 1.399 . S
C1676 C1677 1.385 . S
C1677 H1663 0.931 . S
C1677 C1676 1.385 . S
C1677 C1678 1.389 . S
C1678 C1677 1.389 . S
C1678 C1679 1.387 . S
C1679 H1664 0.930 . S
C1679 C1674 1.390 . S
C1679 C1678 1.387 . S
H1680 C1692 0.930 . S
H1681 C1694 0.930 . S
H1682 C1695 0.930 . S
H1683 C1699 0.959 . S
H1684 C1699 0.959 . S
H1685 C1699 0.961 . S
H1686 C1700 0.960 . S
H1687 C1700 0.961 . S
H1688 C1700 0.959 . S
H1689 C1703 0.929 . S
H1690 C1704 0.931 . S
H1691 C1706 0.930 . S
C1692 H1680 0.930 . S
C1692 C1693 1.399 . S
C1692 C1697 1.399 . S
C1693 C1692 1.399 . S
C1693 C1694 1.376 . S
C1694 H1681 0.930 . S
C1694 C1693 1.376 . S
C1694 C1695 1.388 . S
C1695 H1682 0.930 . S
C1695 C1694 1.388 . S
C1695 C1696 1.390 . S
C1696 C1695 1.390 . S
C1696 C1697 1.394 . S
C1696 C1702 1.465 . S
C1697 C1692 1.399 . S
C1697 C1696 1.394 . S
C1697 C1698 1.516 . S
C1698 C1697 1.516 . S
C1698 C1699 1.502 . S
C1698 C1700 1.561 . S
C1698 C1701 1.526 . S
C1699 H1683 0.959 . S
C1699 H1684 0.959 . S
C1699 H1685 0.961 . S
C1699 C1698 1.502 . S
C1700 H1686 0.960 . S
C1700 H1687 0.961 . S
C1700 H1688 0.959 . S
C1700 C1698 1.561 . S
C1701 C1698 1.526 . S
C1701 C1702 1.396 . S
C1701 C1706 1.390 . S
C1702 C1696 1.465 . S
C1702 C1701 1.396 . S
C1702 C1703 1.399 . S
C1703 H1689 0.929 . S
C1703 C1702 1.399 . S
C1703 C1704 1.385 . S
C1704 H1690 0.931 . S
C1704 C1703 1.385 . S
C1704 C1705 1.389 . S
C1705 C1704 1.389 . S
C1705 C1706 1.387 . S
C1706 H1691 0.930 . S
C1706 C1701 1.390 . S
C1706 C1705 1.387 . S
H1707 C1719 0.930 . S
H1708 C1721 0.930 . S
H1709 C1722 0.930 . S
H1710 C1726 0.959 . S
H1711 C1726 0.959 . S
H1712 C1726 0.950 1_556 S
H1713 C1727 0.960 . S
H1714 C1727 0.961 . S
H1715 C1727 0.959 . S
H1716 C1730 0.929 . S
H1717 C1731 0.931 . S
H1718 C1733 0.930 . S
C1719 H1707 0.930 . S
C1719 C1720 1.399 . S
C1719 C1724 1.399 . S
C1720 C1719 1.399 . S
C1720 C1721 1.376 . S
C1721 H1708 0.930 . S
C1721 C1720 1.376 . S
C1721 C1722 1.388 1_556 S
C1722 H1709 0.930 . S
C1722 C1721 1.388 1_554 S
C1722 C1723 1.390 . S
C1723 C1722 1.390 . S
C1723 C1724 1.394 1_554 S
C1723 C1729 1.465 . S
C1724 C1719 1.399 . S
C1724 C1723 1.394 1_556 S
C1724 C1725 1.516 . S
C1725 C1724 1.516 . S
C1725 C1726 1.501 1_556 S
C1725 C1727 1.562 . S
C1725 C1728 1.525 1_556 S
C1726 H1710 0.959 . S
C1726 H1711 0.959 . S
C1726 H1712 0.950 1_554 S
C1726 C1725 1.501 1_554 S
C1727 H1713 0.960 . S
C1727 H1714 0.961 . S
C1727 H1715 0.959 . S
C1727 C1725 1.562 . S
C1728 C1725 1.525 1_554 S
C1728 C1729 1.396 . S
C1728 C1733 1.390 . S
C1729 C1723 1.465 . S
C1729 C1728 1.396 . S
C1729 C1730 1.399 . S
C1730 H1716 0.929 . S
C1730 C1729 1.399 . S
C1730 C1731 1.385 . S
C1731 H1717 0.931 . S
C1731 C1730 1.385 . S
C1731 C1732 1.389 . S
C1732 C1731 1.389 . S
C1732 C1733 1.387 . S
C1733 H1718 0.930 . S
C1733 C1728 1.390 . S
C1733 C1732 1.387 . S
H1734 C1746 0.930 . S
H1735 C1748 0.930 . S
H1736 C1749 0.930 . S
H1737 C1753 0.959 . S
H1738 C1753 0.959 . S
H1739 C1753 0.961 . S
H1740 C1754 0.960 . S
H1741 C1754 0.961 . S
H1742 C1754 0.959 . S
H1743 C1757 0.929 . S
H1744 C1758 0.931 . S
H1745 C1760 0.930 . S
C1746 H1734 0.930 . S
C1746 C1747 1.399 . S
C1746 C1751 1.399 . S
C1747 C1746 1.399 . S
C1747 C1748 1.376 . S
C1748 H1735 0.930 . S
C1748 C1747 1.376 . S
C1748 C1749 1.388 . S
C1749 H1736 0.930 . S
C1749 C1748 1.388 . S
C1749 C1750 1.390 . S
C1750 C1749 1.390 . S
C1750 C1751 1.394 . S
C1750 C1756 1.465 . S
C1751 C1746 1.399 . S
C1751 C1750 1.394 . S
C1751 C1752 1.516 . S
C1752 C1751 1.516 . S
C1752 C1753 1.502 . S
C1752 C1754 1.561 . S
C1752 C1755 1.526 . S
C1753 H1737 0.959 . S
C1753 H1738 0.959 . S
C1753 H1739 0.961 . S
C1753 C1752 1.502 . S
C1754 H1740 0.960 . S
C1754 H1741 0.961 . S
C1754 H1742 0.959 . S
C1754 C1752 1.561 . S
C1755 C1752 1.526 . S
C1755 C1756 1.396 . S
C1755 C1760 1.390 . S
C1756 C1750 1.465 . S
C1756 C1755 1.396 . S
C1756 C1757 1.399 . S
C1757 H1743 0.929 . S
C1757 C1756 1.399 . S
C1757 C1758 1.385 . S
C1758 H1744 0.931 . S
C1758 C1757 1.385 . S
C1758 C1759 1.389 . S
C1759 C1758 1.389 . S
C1759 C1760 1.387 . S
C1760 H1745 0.930 . S
C1760 C1755 1.390 . S
C1760 C1759 1.387 . S
H1761 C1773 0.930 . S
H1762 C1775 0.930 . S
H1763 C1776 0.930 . S
H1764 C1780 0.959 . S
H1765 C1780 0.959 . S
H1766 C1780 0.961 . S
H1767 C1781 0.960 . S
H1768 C1781 0.961 . S
H1769 C1781 0.959 . S
H1770 C1784 0.929 . S
H1771 C1785 0.931 . S
H1772 C1787 0.930 . S
C1773 H1761 0.930 . S
C1773 C1774 1.399 . S
C1773 C1778 1.399 . S
C1774 C1773 1.399 . S
C1774 C1775 1.376 . S
C1775 H1762 0.930 . S
C1775 C1774 1.376 . S
C1775 C1776 1.388 . S
C1776 H1763 0.930 . S
C1776 C1775 1.388 . S
C1776 C1777 1.390 . S
C1777 C1776 1.390 . S
C1777 C1778 1.394 . S
C1777 C1783 1.465 . S
C1778 C1773 1.399 . S
C1778 C1777 1.394 . S
C1778 C1779 1.516 . S
C1779 C1778 1.516 . S
C1779 C1780 1.502 . S
C1779 C1781 1.561 . S
C1779 C1782 1.526 . S
C1780 H1764 0.959 . S
C1780 H1765 0.959 . S
C1780 H1766 0.961 . S
C1780 C1779 1.502 . S
C1781 H1767 0.960 . S
C1781 H1768 0.961 . S
C1781 H1769 0.959 . S
C1781 C1779 1.561 . S
C1782 C1779 1.526 . S
C1782 C1783 1.396 . S
C1782 C1787 1.390 . S
C1783 C1777 1.465 . S
C1783 C1782 1.396 . S
C1783 C1784 1.399 . S
C1784 H1770 0.929 . S
C1784 C1783 1.399 . S
C1784 C1785 1.385 . S
C1785 H1771 0.931 . S
C1785 C1784 1.385 . S
C1785 C1786 1.389 . S
C1786 C1785 1.389 . S
C1786 C1787 1.387 . S
C1787 H1772 0.930 . S
C1787 C1782 1.390 . S
C1787 C1786 1.387 . S
H1788 C1800 0.930 . S
H1789 C1802 0.930 . S
H1790 C1803 0.930 . S
H1791 C1807 0.959 . S
H1792 C1807 0.959 . S
H1793 C1807 0.961 . S
H1794 C1808 0.960 . S
H1795 C1808 0.961 . S
H1796 C1808 0.959 . S
H1797 C1811 0.929 . S
H1798 C1812 0.931 . S
H1799 C1814 0.930 . S
C1800 H1788 0.930 . S
C1800 C1801 1.399 . S
C1800 C1805 1.399 . S
C1801 C1800 1.399 . S
C1801 C1802 1.376 . S
C1802 H1789 0.930 . S
C1802 C1801 1.376 . S
C1802 C1803 1.388 . S
C1803 H1790 0.930 . S
C1803 C1802 1.388 . S
C1803 C1804 1.390 . S
C1804 C1803 1.390 . S
C1804 C1805 1.394 . S
C1804 C1810 1.465 . S
C1805 C1800 1.399 . S
C1805 C1804 1.394 . S
C1805 C1806 1.516 . S
C1806 C1805 1.516 . S
C1806 C1807 1.502 . S
C1806 C1808 1.561 . S
C1806 C1809 1.526 . S
C1807 H1791 0.959 . S
C1807 H1792 0.959 . S
C1807 H1793 0.961 . S
C1807 C1806 1.502 . S
C1808 H1794 0.960 . S
C1808 H1795 0.961 . S
C1808 H1796 0.959 . S
C1808 C1806 1.561 . S
C1809 C1806 1.526 . S
C1809 C1810 1.396 . S
C1809 C1814 1.390 . S
C1810 C1804 1.465 . S
C1810 C1809 1.396 . S
C1810 C1811 1.399 . S
C1811 H1797 0.929 . S
C1811 C1810 1.399 . S
C1811 C1812 1.385 . S
C1812 H1798 0.931 . S
C1812 C1811 1.385 . S
C1812 C1813 1.389 . S
C1813 C1812 1.389 . S
C1813 C1814 1.387 . S
C1814 H1799 0.930 . S
C1814 C1809 1.390 . S
C1814 C1813 1.387 . S
H1815 C1827 0.930 . S
H1816 C1829 0.930 . S
H1817 C1830 0.930 . S
H1818 C1834 0.959 . S
H1819 C1834 0.959 . S
H1820 C1834 0.961 . S
H1821 C1835 0.960 . S
H1822 C1835 0.961 . S
H1823 C1835 0.959 . S
H1824 C1838 0.929 . S
H1825 C1839 0.931 . S
H1826 C1841 0.930 . S
C1827 H1815 0.930 . S
C1827 C1828 1.399 . S
C1827 C1832 1.399 . S
C1828 C1827 1.399 . S
C1828 C1829 1.376 . S
C1829 H1816 0.930 . S
C1829 C1828 1.376 . S
C1829 C1830 1.388 . S
C1830 H1817 0.930 . S
C1830 C1829 1.388 . S
C1830 C1831 1.390 . S
C1831 C1830 1.390 . S
C1831 C1832 1.394 . S
C1831 C1837 1.465 . S
C1832 C1827 1.399 . S
C1832 C1831 1.394 . S
C1832 C1833 1.516 . S
C1833 C1832 1.516 . S
C1833 C1834 1.502 . S
C1833 C1835 1.561 . S
C1833 C1836 1.526 . S
C1834 H1818 0.959 . S
C1834 H1819 0.959 . S
C1834 H1820 0.961 . S
C1834 C1833 1.502 . S
C1835 H1821 0.960 . S
C1835 H1822 0.961 . S
C1835 H1823 0.959 . S
C1835 C1833 1.561 . S
C1836 C1833 1.526 . S
C1836 C1837 1.396 . S
C1836 C1841 1.390 1_565 S
C1837 C1831 1.465 . S
C1837 C1836 1.396 . S
C1837 C1838 1.399 1_565 S
C1838 H1824 0.929 . S
C1838 C1837 1.399 1_545 S
C1838 C1839 1.385 . S
C1839 H1825 0.931 . S
C1839 C1838 1.385 . S
C1839 C1840 1.389 . S
C1840 C1839 1.389 . S
C1840 C1841 1.387 . S
C1841 H1826 0.930 . S
C1841 C1836 1.390 1_545 S
C1841 C1840 1.387 . S
H1842 C1854 0.930 . S
H1843 C1856 0.930 . S
H1844 C1857 0.930 . S
H1845 C1861 0.959 . S
H1846 C1861 0.959 . S
H1847 C1861 0.961 . S
H1848 C1862 0.960 . S
H1849 C1862 0.961 . S
H1850 C1862 0.959 . S
H1851 C1865 0.929 . S
H1852 C1866 0.931 . S
H1853 C1868 0.930 . S
C1854 H1842 0.930 . S
C1854 C1855 1.399 . S
C1854 C1859 1.399 . S
C1855 C1854 1.399 . S
C1855 C1856 1.376 . S
C1856 H1843 0.930 . S
C1856 C1855 1.376 . S
C1856 C1857 1.388 . S
C1857 H1844 0.930 . S
C1857 C1856 1.388 . S
C1857 C1858 1.390 . S
C1858 C1857 1.390 . S
C1858 C1859 1.394 . S
C1858 C1864 1.465 . S
C1859 C1854 1.399 . S
C1859 C1858 1.394 . S
C1859 C1860 1.516 . S
C1860 C1859 1.516 . S
C1860 C1861 1.502 . S
C1860 C1862 1.561 . S
C1860 C1863 1.526 . S
C1861 H1845 0.959 . S
C1861 H1846 0.959 . S
C1861 H1847 0.961 . S
C1861 C1860 1.502 . S
C1862 H1848 0.960 . S
C1862 H1849 0.961 . S
C1862 H1850 0.959 . S
C1862 C1860 1.561 . S
C1863 C1860 1.526 . S
C1863 C1864 1.396 . S
C1863 C1868 1.390 . S
C1864 C1858 1.465 . S
C1864 C1863 1.396 . S
C1864 C1865 1.399 . S
C1865 H1851 0.929 . S
C1865 C1864 1.399 . S
C1865 C1866 1.385 . S
C1866 H1852 0.931 . S
C1866 C1865 1.385 . S
C1866 C1867 1.389 . S
C1867 C1866 1.389 . S
C1867 C1868 1.387 . S
C1868 H1853 0.930 . S
C1868 C1863 1.390 . S
C1868 C1867 1.387 . S
H1869 C1881 0.930 . S
H1870 C1883 0.930 . S
H1871 C1884 0.930 . S
H1872 C1888 0.959 1_556 S
H1873 C1888 0.959 . S
H1874 C1888 0.961 . S
H1875 C1889 0.960 . S
H1876 C1889 0.961 . S
H1877 C1889 0.959 . S
H1878 C1892 0.929 . S
H1879 C1893 0.931 . S
H1880 C1895 0.930 . S
C1881 H1869 0.930 . S
C1881 C1882 1.399 . S
C1881 C1886 1.399 1_565 S
C1882 C1881 1.399 . S
C1882 C1883 1.376 1_554 S
C1883 H1870 0.930 . S
C1883 C1882 1.376 1_556 S
C1883 C1884 1.388 . S
C1884 H1871 0.930 . S
C1884 C1883 1.388 . S
C1884 C1885 1.390 1_565 S
C1885 C1884 1.390 1_545 S
C1885 C1886 1.394 1_556 S
C1885 C1891 1.465 . S
C1886 C1881 1.399 1_545 S
C1886 C1885 1.394 1_554 S
C1886 C1887 1.516 . S
C1887 C1886 1.516 . S
C1887 C1888 1.502 . S
C1887 C1889 1.561 . S
C1887 C1890 1.526 1_554 S
C1888 H1872 0.959 1_554 S
C1888 H1873 0.959 . S
C1888 H1874 0.961 . S
C1888 C1887 1.502 . S
C1889 H1875 0.960 . S
C1889 H1876 0.961 . S
C1889 H1877 0.959 . S
C1889 C1887 1.561 . S
C1890 C1887 1.526 1_556 S
C1890 C1891 1.396 . S
C1890 C1895 1.390 . S
C1891 C1885 1.465 . S
C1891 C1890 1.396 . S
C1891 C1892 1.399 . S
C1892 H1878 0.929 . S
C1892 C1891 1.399 . S
C1892 C1893 1.385 . S
C1893 H1879 0.931 . S
C1893 C1892 1.385 . S
C1893 C1894 1.389 . S
C1894 C1893 1.389 . S
C1894 C1895 1.387 . S
C1895 H1880 0.930 . S
C1895 C1890 1.390 . S
C1895 C1894 1.387 . S
H1896 C1908 0.930 . S
H1897 C1910 0.930 . S
H1898 C1911 0.930 . S
H1899 C1915 0.959 . S
H1900 C1915 0.959 . S
H1901 C1915 0.961 . S
H1902 C1916 0.960 . S
H1903 C1916 0.961 . S
H1904 C1916 0.959 . S
H1905 C1919 0.929 . S
H1906 C1920 0.931 . S
H1907 C1922 0.930 . S
C1908 H1896 0.930 . S
C1908 C1909 1.399 . S
C1908 C1913 1.399 . S
C1909 C1908 1.399 . S
C1909 C1910 1.376 . S
C1910 H1897 0.930 . S
C1910 C1909 1.376 . S
C1910 C1911 1.388 . S
C1911 H1898 0.930 . S
C1911 C1910 1.388 . S
C1911 C1912 1.390 . S
C1912 C1911 1.390 . S
C1912 C1913 1.394 . S
C1912 C1918 1.465 . S
C1913 C1908 1.399 . S
C1913 C1912 1.394 . S
C1913 C1914 1.516 . S
C1914 C1913 1.516 . S
C1914 C1915 1.502 . S
C1914 C1916 1.561 . S
C1914 C1917 1.526 . S
C1915 H1899 0.959 . S
C1915 H1900 0.959 . S
C1915 H1901 0.961 . S
C1915 C1914 1.502 . S
C1916 H1902 0.960 . S
C1916 H1903 0.961 . S
C1916 H1904 0.959 . S
C1916 C1914 1.561 . S
C1917 C1914 1.526 . S
C1917 C1918 1.396 . S
C1917 C1922 1.390 . S
C1918 C1912 1.465 . S
C1918 C1917 1.396 . S
C1918 C1919 1.399 . S
C1919 H1905 0.929 . S
C1919 C1918 1.399 . S
C1919 C1920 1.385 . S
C1920 H1906 0.931 . S
C1920 C1919 1.385 . S
C1920 C1921 1.389 . S
C1921 C1920 1.389 . S
C1921 C1922 1.387 . S
C1922 H1907 0.930 . S
C1922 C1917 1.390 . S
C1922 C1921 1.387 . S
H1923 C1935 0.930 . S
H1924 C1937 0.930 . S
H1925 C1938 0.930 . S
H1926 C1942 0.959 . S
H1927 C1942 0.959 . S
H1928 C1942 0.961 . S
H1929 C1943 0.960 . S
H1930 C1943 0.961 . S
H1931 C1943 0.959 . S
H1932 C1946 0.929 . S
H1933 C1947 0.931 . S
H1934 C1949 0.930 . S
C1935 H1923 0.930 . S
C1935 C1936 1.399 . S
C1935 C1940 1.399 . S
C1936 C1935 1.399 . S
C1936 C1937 1.376 . S
C1937 H1924 0.930 . S
C1937 C1936 1.376 . S
C1937 C1938 1.388 . S
C1938 H1925 0.930 . S
C1938 C1937 1.388 . S
C1938 C1939 1.390 . S
C1939 C1938 1.390 . S
C1939 C1940 1.394 . S
C1939 C1945 1.465 . S
C1940 C1935 1.399 . S
C1940 C1939 1.394 . S
C1940 C1941 1.516 . S
C1941 C1940 1.516 . S
C1941 C1942 1.502 . S
C1941 C1943 1.561 . S
C1941 C1944 1.526 . S
C1942 H1926 0.959 . S
C1942 H1927 0.959 . S
C1942 H1928 0.961 . S
C1942 C1941 1.502 . S
C1943 H1929 0.960 . S
C1943 H1930 0.961 . S
C1943 H1931 0.959 . S
C1943 C1941 1.561 . S
C1944 C1941 1.526 . S
C1944 C1945 1.396 . S
C1944 C1949 1.390 . S
C1945 C1939 1.465 . S
C1945 C1944 1.396 . S
C1945 C1946 1.399 . S
C1946 H1932 0.929 . S
C1946 C1945 1.399 . S
C1946 C1947 1.385 . S
C1947 H1933 0.931 . S
C1947 C1946 1.385 . S
C1947 C1948 1.389 . S
C1948 C1947 1.389 . S
C1948 C1949 1.387 . S
C1949 H1934 0.930 . S
C1949 C1944 1.390 . S
C1949 C1948 1.387 . S
H1950 C1962 0.930 . S
H1951 C1964 0.930 . S
H1952 C1965 0.930 . S
H1953 C1969 0.959 . S
H1954 C1969 0.959 . S
H1955 C1969 0.961 . S
H1956 C1970 0.960 . S
H1957 C1970 0.961 . S
H1958 C1970 0.959 . S
H1959 C1973 0.929 . S
H1960 C1974 0.931 . S
H1961 C1976 0.930 . S
C1962 H1950 0.930 . S
C1962 C1963 1.399 . S
C1962 C1967 1.399 . S
C1963 C1962 1.399 . S
C1963 C1964 1.376 . S
C1964 H1951 0.930 . S
C1964 C1963 1.376 . S
C1964 C1965 1.388 . S
C1965 H1952 0.930 . S
C1965 C1964 1.388 . S
C1965 C1966 1.390 . S
C1966 C1965 1.390 . S
C1966 C1967 1.394 . S
C1966 C1972 1.465 . S
C1967 C1962 1.399 . S
C1967 C1966 1.394 . S
C1967 C1968 1.516 . S
C1968 C1967 1.516 . S
C1968 C1969 1.502 1_545 S
C1968 C1970 1.561 . S
C1968 C1971 1.524 1_545 S
C1969 H1953 0.959 . S
C1969 H1954 0.959 . S
C1969 H1955 0.961 . S
C1969 C1968 1.502 1_565 S
C1970 H1956 0.960 . S
C1970 H1957 0.961 . S
C1970 H1958 0.959 . S
C1970 C1968 1.561 . S
C1971 C1968 1.524 1_565 S
C1971 C1972 1.387 1_565 S
C1971 C1976 1.399 . S
C1972 C1966 1.465 . S
C1972 C1971 1.387 1_545 S
C1972 C1973 1.399 . S
C1973 H1959 0.929 . S
C1973 C1972 1.399 . S
C1973 C1974 1.398 . S
C1974 H1960 0.931 . S
C1974 C1973 1.398 . S
C1974 C1975 1.376 1_545 S
C1975 C1974 1.376 1_565 S
C1975 C1976 1.387 . S
C1976 H1961 0.930 . S
C1976 C1971 1.399 . S
C1976 C1975 1.387 . S
H1977 C1989 0.930 . S
H1978 C1991 0.930 . S
H1979 C1992 0.930 . S
H1980 C1996 0.959 . S
H1981 C1996 0.959 . S
H1982 C1996 0.961 . S
H1983 C1997 0.960 . S
H1984 C1997 0.961 . S
H1985 C1997 0.959 . S
H1986 C2000 0.929 . S
H1987 C2001 0.931 . S
H1988 C2003 0.930 . S
C1989 H1977 0.930 . S
C1989 C1990 1.399 . S
C1989 C1994 1.399 . S
C1990 C1989 1.399 . S
C1990 C1991 1.376 . S
C1991 H1978 0.930 . S
C1991 C1990 1.376 . S
C1991 C1992 1.388 . S
C1992 H1979 0.930 . S
C1992 C1991 1.388 . S
C1992 C1993 1.390 . S
C1993 C1992 1.390 . S
C1993 C1994 1.394 . S
C1993 C1999 1.465 . S
C1994 C1989 1.399 . S
C1994 C1993 1.394 . S
C1994 C1995 1.516 . S
C1995 C1994 1.516 . S
C1995 C1996 1.502 . S
C1995 C1997 1.561 . S
C1995 C1998 1.526 . S
C1996 H1980 0.959 . S
C1996 H1981 0.959 . S
C1996 H1982 0.961 . S
C1996 C1995 1.502 . S
C1997 H1983 0.960 . S
C1997 H1984 0.961 . S
C1997 H1985 0.959 . S
C1997 C1995 1.561 . S
C1998 C1995 1.526 . S
C1998 C1999 1.396 . S
C1998 C2003 1.390 . S
C1999 C1993 1.465 . S
C1999 C1998 1.396 . S
C1999 C2000 1.399 . S
C2000 H1986 0.929 . S
C2000 C1999 1.399 . S
C2000 C2001 1.385 . S
C2001 H1987 0.931 . S
C2001 C2000 1.385 . S
C2001 C2002 1.389 . S
C2002 C2001 1.389 . S
C2002 C2003 1.387 . S
C2003 H1988 0.930 . S
C2003 C1998 1.390 . S
C2003 C2002 1.387 . S
H2004 C2016 0.930 . S
H2005 C2018 0.930 . S
H2006 C2019 0.930 . S
H2007 C2023 0.959 . S
H2008 C2023 0.947 1_565 S
H2009 C2023 0.961 . S
H2010 C2024 0.960 . S
H2011 C2024 0.961 . S
H2012 C2024 0.959 . S
H2013 C2027 0.929 . S
H2014 C2028 0.931 . S
H2015 C2030 0.930 . S
C2016 H2004 0.930 . S
C2016 C2017 1.399 . S
C2016 C2021 1.399 1_645 S
C2017 C2016 1.399 . S
C2017 C2018 1.376 . S
C2018 H2005 0.930 . S
C2018 C2017 1.376 . S
C2018 C2019 1.388 1_545 S
C2019 H2006 0.930 . S
C2019 C2018 1.388 1_565 S
C2019 C2020 1.390 1_655 S
C2020 C2019 1.390 1_455 S
C2020 C2021 1.394 . S
C2020 C2026 1.465 . S
C2021 C2016 1.399 1_465 S
C2021 C2020 1.394 . S
C2021 C2022 1.516 . S
C2022 C2021 1.516 . S
C2022 C2023 1.502 1_565 S
C2022 C2024 1.561 . S
C2022 C2025 1.526 . S
C2023 H2007 0.959 . S
C2023 H2008 0.947 1_545 S
C2023 H2009 0.961 . S
C2023 C2022 1.502 1_545 S
C2024 H2010 0.960 . S
C2024 H2011 0.961 . S
C2024 H2012 0.959 . S
C2024 C2022 1.561 . S
C2025 C2022 1.526 . S
C2025 C2026 1.396 . S
C2025 C2030 1.390 . S
C2026 C2020 1.465 . S
C2026 C2025 1.396 . S
C2026 C2027 1.399 . S
C2027 H2013 0.929 . S
C2027 C2026 1.399 . S
C2027 C2028 1.385 . S
C2028 H2014 0.931 . S
C2028 C2027 1.385 . S
C2028 C2029 1.389 . S
C2029 C2028 1.389 . S
C2029 C2030 1.387 . S
C2030 H2015 0.930 . S
C2030 C2025 1.390 . S
C2030 C2029 1.387 . S
H2031 C2043 0.930 . S
H2032 C2045 0.930 . S
H2033 C2046 0.930 . S
H2034 C2050 0.959 . S
H2035 C2050 0.959 . S
H2036 C2050 0.961 . S
H2037 C2051 0.960 . S
H2038 C2051 0.961 . S
H2039 C2051 0.959 . S
H2040 C2054 0.929 . S
H2041 C2055 0.931 . S
H2042 C2057 0.930 . S
C2043 H2031 0.930 . S
C2043 C2044 1.399 . S
C2043 C2048 1.399 . S
C2044 C2043 1.399 . S
C2044 C2045 1.376 . S
C2045 H2032 0.930 . S
C2045 C2044 1.376 . S
C2045 C2046 1.388 . S
C2046 H2033 0.930 . S
C2046 C2045 1.388 . S
C2046 C2047 1.390 . S
C2047 C2046 1.390 . S
C2047 C2048 1.394 . S
C2047 C2053 1.465 . S
C2048 C2043 1.399 . S
C2048 C2047 1.394 . S
C2048 C2049 1.516 . S
C2049 C2048 1.516 . S
C2049 C2050 1.502 . S
C2049 C2051 1.561 . S
C2049 C2052 1.526 . S
C2050 H2034 0.959 . S
C2050 H2035 0.959 . S
C2050 H2036 0.961 . S
C2050 C2049 1.502 . S
C2051 H2037 0.960 . S
C2051 H2038 0.961 . S
C2051 H2039 0.959 . S
C2051 C2049 1.561 . S
C2052 C2049 1.526 . S
C2052 C2053 1.396 . S
C2052 C2057 1.390 . S
C2053 C2047 1.465 . S
C2053 C2052 1.396 . S
C2053 C2054 1.399 . S
C2054 H2040 0.929 . S
C2054 C2053 1.399 . S
C2054 C2055 1.385 . S
C2055 H2041 0.931 . S
C2055 C2054 1.385 . S
C2055 C2056 1.389 . S
C2056 C2055 1.389 . S
C2056 C2057 1.387 . S
C2057 H2042 0.930 . S
C2057 C2052 1.390 . S
C2057 C2056 1.387 . S
H2058 C2070 0.930 . S
H2059 C2072 0.930 . S
H2060 C2073 0.930 . S
H2061 C2077 0.959 . S
H2062 C2077 0.959 . S
H2063 C2077 0.961 1_455 S
H2064 C2078 0.960 1_455 S
H2065 C2078 0.961 . S
H2066 C2078 0.959 . S
H2067 C2081 0.929 . S
H2068 C2082 0.931 . S
H2069 C2084 0.930 . S
C2070 H2058 0.930 . S
C2070 C2071 1.399 . S
C2070 C2075 1.399 1_455 S
C2071 C2070 1.399 . S
C2071 C2072 1.376 . S
C2072 H2059 0.930 . S
C2072 C2071 1.376 . S
C2072 C2073 1.388 1_455 S
C2073 H2060 0.930 . S
C2073 C2072 1.388 1_655 S
C2073 C2074 1.390 . S
C2074 C2073 1.390 . S
C2074 C2075 1.394 . S
C2074 C2080 1.465 . S
C2075 C2070 1.399 1_655 S
C2075 C2074 1.394 . S
C2075 C2076 1.516 . S
C2076 C2075 1.516 . S
C2076 C2077 1.502 . S
C2076 C2078 1.561 . S
C2076 C2079 1.526 . S
C2077 H2061 0.959 . S
C2077 H2062 0.959 . S
C2077 H2063 0.961 1_655 S
C2077 C2076 1.502 . S
C2078 H2064 0.960 1_655 S
C2078 H2065 0.961 . S
C2078 H2066 0.959 . S
C2078 C2076 1.561 . S
C2079 C2076 1.526 . S
C2079 C2080 1.396 . S
C2079 C2084 1.390 . S
C2080 C2074 1.465 . S
C2080 C2079 1.396 . S
C2080 C2081 1.399 . S
C2081 H2067 0.929 . S
C2081 C2080 1.399 . S
C2081 C2082 1.385 . S
C2082 H2068 0.931 . S
C2082 C2081 1.385 . S
C2082 C2083 1.389 . S
C2083 C2082 1.389 . S
C2083 C2084 1.387 . S
C2084 H2069 0.930 . S
C2084 C2079 1.390 . S
C2084 C2083 1.387 . S
H2085 C2097 0.930 . S
H2086 C2099 0.930 . S
H2087 C2100 0.930 . S
H2088 C2104 0.959 . S
H2089 C2104 0.959 . S
H2090 C2104 0.961 . S
H2091 C2105 0.960 . S
H2092 C2105 0.961 . S
H2093 C2105 0.959 . S
H2094 C2108 0.929 . S
H2095 C2109 0.931 . S
H2096 C2111 0.930 . S
C2097 H2085 0.930 . S
C2097 C2098 1.399 . S
C2097 C2102 1.399 . S
C2098 C2097 1.399 . S
C2098 C2099 1.376 . S
C2099 H2086 0.930 . S
C2099 C2098 1.376 . S
C2099 C2100 1.388 . S
C2100 H2087 0.930 . S
C2100 C2099 1.388 . S
C2100 C2101 1.390 . S
C2101 C2100 1.390 . S
C2101 C2102 1.394 . S
C2101 C2107 1.465 . S
C2102 C2097 1.399 . S
C2102 C2101 1.394 . S
C2102 C2103 1.516 . S
C2103 C2102 1.516 . S
C2103 C2104 1.502 . S
C2103 C2105 1.561 . S
C2103 C2106 1.526 . S
C2104 H2088 0.959 . S
C2104 H2089 0.959 . S
C2104 H2090 0.961 . S
C2104 C2103 1.502 . S
C2105 H2091 0.960 . S
C2105 H2092 0.961 . S
C2105 H2093 0.959 . S
C2105 C2103 1.561 . S
C2106 C2103 1.526 . S
C2106 C2107 1.396 . S
C2106 C2111 1.390 . S
C2107 C2101 1.465 . S
C2107 C2106 1.396 . S
C2107 C2108 1.399 . S
C2108 H2094 0.929 . S
C2108 C2107 1.399 . S
C2108 C2109 1.385 . S
C2109 H2095 0.931 . S
C2109 C2108 1.385 . S
C2109 C2110 1.389 . S
C2110 C2109 1.389 . S
C2110 C2111 1.387 . S
C2111 H2096 0.930 . S
C2111 C2106 1.390 . S
C2111 C2110 1.387 . S
H2112 C2124 0.930 . S
H2113 C2126 0.930 . S
H2114 C2127 0.930 . S
H2115 C2131 0.959 1_655 S
H2116 C2131 0.959 . S
H2117 C2131 0.961 . S
H2118 C2132 0.960 . S
H2119 C2132 0.961 . S
H2120 C2132 0.959 . S
H2121 C2135 0.929 1_655 S
H2122 C2136 0.931 . S
H2123 C2138 0.930 . S
C2124 H2112 0.930 . S
C2124 C2125 1.399 . S
C2124 C2129 1.399 . S
C2125 C2124 1.399 . S
C2125 C2126 1.376 . S
C2126 H2113 0.930 . S
C2126 C2125 1.376 . S
C2126 C2127 1.388 . S
C2127 H2114 0.930 . S
C2127 C2126 1.388 . S
C2127 C2128 1.390 . S
C2128 C2127 1.390 . S
C2128 C2129 1.394 . S
C2128 C2134 1.465 1_655 S
C2129 C2124 1.399 . S
C2129 C2128 1.394 . S
C2129 C2130 1.516 1_655 S
C2130 C2129 1.516 1_455 S
C2130 C2131 1.502 . S
C2130 C2132 1.561 . S
C2130 C2133 1.526 . S
C2131 H2115 0.959 1_455 S
C2131 H2116 0.959 . S
C2131 H2117 0.961 . S
C2131 C2130 1.502 . S
C2132 H2118 0.960 . S
C2132 H2119 0.961 . S
C2132 H2120 0.959 . S
C2132 C2130 1.561 . S
C2133 C2130 1.526 . S
C2133 C2134 1.396 . S
C2133 C2138 1.390 . S
C2134 C2128 1.465 1_455 S
C2134 C2133 1.396 . S
C2134 C2135 1.399 . S
C2135 H2121 0.929 1_455 S
C2135 C2134 1.399 . S
C2135 C2136 1.385 . S
C2136 H2122 0.931 . S
C2136 C2135 1.385 . S
C2136 C2137 1.389 . S
C2137 C2136 1.389 . S
C2137 C2138 1.387 . S
C2138 H2123 0.930 . S
C2138 C2133 1.390 . S
C2138 C2137 1.387 . S
H2139 C2151 0.930 . S
H2140 C2153 0.930 . S
H2141 C2154 0.930 1_556 S
H2142 C2158 0.959 . S
H2143 C2158 0.959 . S
H2144 C2158 0.961 . S
H2145 C2159 0.960 . S
H2146 C2159 0.961 . S
H2147 C2159 0.959 . S
H2148 C2162 0.929 . S
H2149 C2163 0.931 . S
H2150 C2165 0.930 . S
C2151 H2139 0.930 . S
C2151 C2152 1.399 . S
C2151 C2156 1.399 . S
C2152 C2151 1.399 . S
C2152 C2153 1.376 . S
C2153 H2140 0.930 . S
C2153 C2152 1.376 . S
C2153 C2154 1.388 . S
C2154 H2141 0.930 1_554 S
C2154 C2153 1.388 . S
C2154 C2155 1.390 . S
C2155 C2154 1.390 . S
C2155 C2156 1.394 . S
C2155 C2161 1.465 1_554 S
C2156 C2151 1.399 . S
C2156 C2155 1.394 . S
C2156 C2157 1.516 . S
C2157 C2156 1.516 . S
C2157 C2158 1.502 . S
C2157 C2159 1.561 . S
C2157 C2160 1.526 1_554 S
C2158 H2142 0.959 . S
C2158 H2143 0.959 . S
C2158 H2144 0.961 . S
C2158 C2157 1.502 . S
C2159 H2145 0.960 . S
C2159 H2146 0.961 . S
C2159 H2147 0.959 . S
C2159 C2157 1.561 . S
C2160 C2157 1.526 1_556 S
C2160 C2161 1.396 . S
C2160 C2165 1.390 . S
C2161 C2155 1.465 1_556 S
C2161 C2160 1.396 . S
C2161 C2162 1.399 . S
C2162 H2148 0.929 . S
C2162 C2161 1.399 . S
C2162 C2163 1.385 . S
C2163 H2149 0.931 . S
C2163 C2162 1.385 . S
C2163 C2164 1.389 . S
C2164 C2163 1.389 . S
C2164 C2165 1.387 . S
C2165 H2150 0.930 . S
C2165 C2160 1.390 . S
C2165 C2164 1.387 . S
H2166 C2178 0.930 . S
H2167 C2180 0.930 . S
H2168 C2181 0.930 . S
H2169 C2185 0.959 . S
H2170 C2185 0.959 . S
H2171 C2185 0.961 . S
H2172 C2186 0.960 . S
H2173 C2186 0.961 . S
H2174 C2186 0.959 . S
H2175 C2189 0.929 . S
H2176 C2190 0.931 . S
H2177 C2192 0.930 . S
C2178 H2166 0.930 . S
C2178 C2179 1.399 . S
C2178 C2183 1.399 . S
C2179 C2178 1.399 . S
C2179 C2180 1.376 . S
C2180 H2167 0.930 . S
C2180 C2179 1.376 . S
C2180 C2181 1.388 . S
C2181 H2168 0.930 . S
C2181 C2180 1.388 . S
C2181 C2182 1.390 . S
C2182 C2181 1.390 . S
C2182 C2183 1.394 . S
C2182 C2188 1.465 . S
C2183 C2178 1.399 . S
C2183 C2182 1.394 . S
C2183 C2184 1.516 . S
C2184 C2183 1.516 . S
C2184 C2185 1.502 . S
C2184 C2186 1.561 . S
C2184 C2187 1.526 . S
C2185 H2169 0.959 . S
C2185 H2170 0.959 . S
C2185 H2171 0.961 . S
C2185 C2184 1.502 . S
C2186 H2172 0.960 . S
C2186 H2173 0.961 . S
C2186 H2174 0.959 . S
C2186 C2184 1.561 . S
C2187 C2184 1.526 . S
C2187 C2188 1.396 . S
C2187 C2192 1.390 . S
C2188 C2182 1.465 . S
C2188 C2187 1.396 . S
C2188 C2189 1.399 . S
C2189 H2175 0.929 . S
C2189 C2188 1.399 . S
C2189 C2190 1.385 . S
C2190 H2176 0.931 . S
C2190 C2189 1.385 . S
C2190 C2191 1.389 . S
C2191 C2190 1.389 . S
C2191 C2192 1.387 . S
C2192 H2177 0.930 . S
C2192 C2187 1.390 . S
C2192 C2191 1.387 . S
H2193 C2205 0.930 . S
H2194 C2207 0.930 . S
H2195 C2208 0.930 . S
H2196 C2212 0.959 . S
H2197 C2212 0.959 . S
H2198 C2212 0.961 . S
H2199 C2213 0.960 . S
H2200 C2213 0.961 . S
H2201 C2213 0.959 . S
H2202 C2216 0.929 . S
H2203 C2217 0.931 . S
H2204 C2219 0.930 . S
C2205 H2193 0.930 . S
C2205 C2206 1.399 . S
C2205 C2210 1.399 . S
C2206 C2205 1.399 . S
C2206 C2207 1.376 . S
C2207 H2194 0.930 . S
C2207 C2206 1.376 . S
C2207 C2208 1.388 . S
C2208 H2195 0.930 . S
C2208 C2207 1.388 . S
C2208 C2209 1.390 . S
C2209 C2208 1.390 . S
C2209 C2210 1.394 . S
C2209 C2215 1.465 . S
C2210 C2205 1.399 . S
C2210 C2209 1.394 . S
C2210 C2211 1.516 . S
C2211 C2210 1.516 . S
C2211 C2212 1.502 . S
C2211 C2213 1.561 . S
C2211 C2214 1.526 . S
C2212 H2196 0.959 . S
C2212 H2197 0.959 . S
C2212 H2198 0.961 . S
C2212 C2211 1.502 . S
C2213 H2199 0.960 . S
C2213 H2200 0.961 . S
C2213 H2201 0.959 . S
C2213 C2211 1.561 . S
C2214 C2211 1.526 . S
C2214 C2215 1.396 . S
C2214 C2219 1.390 . S
C2215 C2209 1.465 . S
C2215 C2214 1.396 . S
C2215 C2216 1.399 . S
C2216 H2202 0.929 . S
C2216 C2215 1.399 . S
C2216 C2217 1.385 . S
C2217 H2203 0.931 . S
C2217 C2216 1.385 . S
C2217 C2218 1.389 . S
C2218 C2217 1.389 . S
C2218 C2219 1.387 . S
C2219 H2204 0.930 . S
C2219 C2214 1.390 . S
C2219 C2218 1.387 . S
H2220 C2232 0.930 . S
H2221 C2234 0.930 . S
H2222 C2235 0.930 . S
H2223 C2239 0.959 . S
H2224 C2239 0.959 . S
H2225 C2239 0.961 . S
H2226 C2240 0.960 . S
H2227 C2240 0.961 . S
H2228 C2240 0.959 . S
H2229 C2243 0.929 . S
H2230 C2244 0.931 . S
H2231 C2246 0.930 . S
C2232 H2220 0.930 . S
C2232 C2233 1.399 . S
C2232 C2237 1.399 . S
C2233 C2232 1.399 . S
C2233 C2234 1.376 . S
C2234 H2221 0.930 . S
C2234 C2233 1.376 . S
C2234 C2235 1.388 . S
C2235 H2222 0.930 . S
C2235 C2234 1.388 . S
C2235 C2236 1.390 . S
C2236 C2235 1.390 . S
C2236 C2237 1.394 . S
C2236 C2242 1.465 . S
C2237 C2232 1.399 . S
C2237 C2236 1.394 . S
C2237 C2238 1.516 . S
C2238 C2237 1.516 . S
C2238 C2239 1.502 . S
C2238 C2240 1.561 . S
C2238 C2241 1.526 . S
C2239 H2223 0.959 . S
C2239 H2224 0.959 . S
C2239 H2225 0.961 . S
C2239 C2238 1.502 . S
C2240 H2226 0.960 . S
C2240 H2227 0.961 . S
C2240 H2228 0.959 . S
C2240 C2238 1.561 . S
C2241 C2238 1.526 . S
C2241 C2242 1.396 . S
C2241 C2246 1.390 . S
C2242 C2236 1.465 . S
C2242 C2241 1.396 . S
C2242 C2243 1.399 . S
C2243 H2229 0.929 . S
C2243 C2242 1.399 . S
C2243 C2244 1.385 . S
C2244 H2230 0.931 . S
C2244 C2243 1.385 . S
C2244 C2245 1.389 . S
C2245 C2244 1.389 . S
C2245 C2246 1.387 . S
C2246 H2231 0.930 . S
C2246 C2241 1.390 . S
C2246 C2245 1.387 . S
H2247 C2259 0.930 . S
H2248 C2261 0.930 . S
H2249 C2262 0.930 . S
H2250 C2266 0.959 . S
H2251 C2266 0.959 . S
H2252 C2266 0.961 . S
H2253 C2267 0.960 . S
H2254 C2267 0.961 . S
H2255 C2267 0.959 . S
H2256 C2270 0.929 . S
H2257 C2271 0.931 . S
H2258 C2273 0.930 . S
C2259 H2247 0.930 . S
C2259 C2260 1.399 . S
C2259 C2264 1.399 . S
C2260 C2259 1.399 . S
C2260 C2261 1.376 . S
C2261 H2248 0.930 . S
C2261 C2260 1.376 . S
C2261 C2262 1.388 . S
C2262 H2249 0.930 . S
C2262 C2261 1.388 . S
C2262 C2263 1.390 . S
C2263 C2262 1.390 . S
C2263 C2264 1.394 . S
C2263 C2269 1.465 . S
C2264 C2259 1.399 . S
C2264 C2263 1.394 . S
C2264 C2265 1.516 . S
C2265 C2264 1.516 . S
C2265 C2266 1.502 . S
C2265 C2267 1.561 . S
C2265 C2268 1.526 . S
C2266 H2250 0.959 . S
C2266 H2251 0.959 . S
C2266 H2252 0.961 . S
C2266 C2265 1.502 . S
C2267 H2253 0.960 . S
C2267 H2254 0.961 . S
C2267 H2255 0.959 . S
C2267 C2265 1.561 . S
C2268 C2265 1.526 . S
C2268 C2269 1.396 . S
C2268 C2273 1.390 . S
C2269 C2263 1.465 . S
C2269 C2268 1.396 . S
C2269 C2270 1.399 . S
C2270 H2256 0.929 . S
C2270 C2269 1.399 . S
C2270 C2271 1.385 . S
C2271 H2257 0.931 . S
C2271 C2270 1.385 . S
C2271 C2272 1.389 . S
C2272 C2271 1.389 . S
C2272 C2273 1.387 . S
C2273 H2258 0.930 . S
C2273 C2268 1.390 . S
C2273 C2272 1.387 . S
H2274 C2286 0.930 . S
H2275 C2288 0.930 . S
H2276 C2289 0.930 1_455 S
H2277 C2293 0.959 1_455 S
H2278 C2293 0.959 . S
H2279 C2293 0.961 . S
H2280 C2294 0.960 . S
H2281 C2294 0.961 . S
H2282 C2294 0.959 . S
H2283 C2297 0.929 . S
H2284 C2298 0.931 . S
H2285 C2300 0.930 . S
C2286 H2274 0.930 . S
C2286 C2287 1.399 . S
C2286 C2291 1.399 . S
C2287 C2286 1.399 . S
C2287 C2288 1.376 . S
C2288 H2275 0.930 . S
C2288 C2287 1.376 . S
C2288 C2289 1.388 . S
C2289 H2276 0.930 1_655 S
C2289 C2288 1.388 . S
C2289 C2290 1.390 . S
C2290 C2289 1.390 . S
C2290 C2291 1.394 . S
C2290 C2296 1.465 1_655 S
C2291 C2286 1.399 . S
C2291 C2290 1.394 . S
C2291 C2292 1.516 . S
C2292 C2291 1.516 . S
C2292 C2293 1.502 . S
C2292 C2294 1.561 . S
C2292 C2295 1.526 1_655 S
C2293 H2277 0.959 1_655 S
C2293 H2278 0.959 . S
C2293 H2279 0.961 . S
C2293 C2292 1.502 . S
C2294 H2280 0.960 . S
C2294 H2281 0.961 . S
C2294 H2282 0.959 . S
C2294 C2292 1.561 . S
C2295 C2292 1.526 1_455 S
C2295 C2296 1.396 . S
C2295 C2300 1.390 . S
C2296 C2290 1.465 1_455 S
C2296 C2295 1.396 . S
C2296 C2297 1.399 . S
C2297 H2283 0.929 . S
C2297 C2296 1.399 . S
C2297 C2298 1.385 . S
C2298 H2284 0.931 . S
C2298 C2297 1.385 . S
C2298 C2299 1.389 . S
C2299 C2298 1.389 . S
C2299 C2300 1.387 . S
C2300 H2285 0.930 . S
C2300 C2295 1.390 . S
C2300 C2299 1.387 . S
H2301 C2313 0.930 . S
H2302 C2315 0.930 . S
H2303 C2316 0.930 . S
H2304 C2320 0.959 . S
H2305 C2320 0.959 1_556 S
H2306 C2320 0.961 . S
H2307 C2321 0.960 . S
H2308 C2321 0.961 . S
H2309 C2321 0.959 . S
H2310 C2324 0.929 . S
H2311 C2325 0.931 . S
H2312 C2327 0.930 . S
C2313 H2301 0.930 . S
C2313 C2314 1.399 . S
C2313 C2318 1.399 . S
C2314 C2313 1.399 . S
C2314 C2315 1.376 . S
C2315 H2302 0.930 . S
C2315 C2314 1.376 . S
C2315 C2316 1.388 . S
C2316 H2303 0.930 . S
C2316 C2315 1.388 . S
C2316 C2317 1.390 . S
C2317 C2316 1.390 . S
C2317 C2318 1.394 . S
C2317 C2323 1.465 1_554 S
C2318 C2313 1.399 . S
C2318 C2317 1.394 . S
C2318 C2319 1.516 1_554 S
C2319 C2318 1.516 1_556 S
C2319 C2320 1.502 1_556 S
C2319 C2321 1.561 . S
C2319 C2322 1.526 . S
C2320 H2304 0.959 . S
C2320 H2305 0.959 1_554 S
C2320 H2306 0.961 . S
C2320 C2319 1.502 1_554 S
C2321 H2307 0.960 . S
C2321 H2308 0.961 . S
C2321 H2309 0.959 . S
C2321 C2319 1.561 . S
C2322 C2319 1.526 . S
C2322 C2323 1.396 . S
C2322 C2327 1.390 . S
C2323 C2317 1.465 1_556 S
C2323 C2322 1.396 . S
C2323 C2324 1.399 . S
C2324 H2310 0.929 . S
C2324 C2323 1.399 . S
C2324 C2325 1.385 . S
C2325 H2311 0.931 . S
C2325 C2324 1.385 . S
C2325 C2326 1.389 . S
C2326 C2325 1.389 . S
C2326 C2327 1.387 . S
C2327 H2312 0.930 . S
C2327 C2322 1.390 . S
C2327 C2326 1.387 . S
H2328 C2340 0.930 . S
H2329 C2342 0.930 . S
H2330 C2343 0.930 . S
H2331 C2347 0.956 1_545 S
H2332 C2347 0.958 1_545 S
H2333 C2347 0.963 . S
H2334 C2348 0.960 . S
H2335 C2348 0.961 . S
H2336 C2348 0.959 . S
H2337 C2351 0.929 . S
H2338 C2352 0.931 . S
H2339 C2354 0.930 . S
C2340 H2328 0.930 . S
C2340 C2341 1.399 . S
C2340 C2345 1.399 . S
C2341 C2340 1.399 . S
C2341 C2342 1.376 . S
C2342 H2329 0.930 . S
C2342 C2341 1.376 . S
C2342 C2343 1.388 . S
C2343 H2330 0.930 . S
C2343 C2342 1.388 . S
C2343 C2344 1.390 . S
C2344 C2343 1.390 . S
C2344 C2345 1.394 . S
C2344 C2350 1.465 1_565 S
C2345 C2340 1.399 . S
C2345 C2344 1.394 . S
C2345 C2346 1.516 . S
C2346 C2345 1.516 . S
C2346 C2347 1.503 . S
C2346 C2348 1.561 . S
C2346 C2349 1.526 1_565 S
C2347 H2331 0.956 1_565 S
C2347 H2332 0.958 1_565 S
C2347 H2333 0.963 . S
C2347 C2346 1.503 . S
C2348 H2334 0.960 . S
C2348 H2335 0.961 . S
C2348 H2336 0.959 . S
C2348 C2346 1.561 . S
C2349 C2346 1.526 1_545 S
C2349 C2350 1.396 . S
C2349 C2354 1.390 . S
C2350 C2344 1.465 1_545 S
C2350 C2349 1.396 . S
C2350 C2351 1.399 . S
C2351 H2337 0.929 . S
C2351 C2350 1.399 . S
C2351 C2352 1.385 . S
C2352 H2338 0.931 . S
C2352 C2351 1.385 . S
C2352 C2353 1.389 . S
C2353 C2352 1.389 . S
C2353 C2354 1.387 . S
C2354 H2339 0.930 . S
C2354 C2349 1.390 . S
C2354 C2353 1.387 . S
H2355 C2367 0.930 . S
H2356 C2369 0.930 . S
H2357 C2370 0.930 . S
H2358 C2374 0.959 . S
H2359 C2374 0.959 . S
H2360 C2374 0.961 . S
H2361 C2375 0.960 . S
H2362 C2375 0.961 . S
H2363 C2375 0.959 . S
H2364 C2378 0.929 . S
H2365 C2379 0.931 . S
H2366 C2381 0.930 . S
C2367 H2355 0.930 . S
C2367 C2368 1.399 . S
C2367 C2372 1.399 . S
C2368 C2367 1.399 . S
C2368 C2369 1.376 . S
C2369 H2356 0.930 . S
C2369 C2368 1.376 . S
C2369 C2370 1.388 . S
C2370 H2357 0.930 . S
C2370 C2369 1.388 . S
C2370 C2371 1.390 . S
C2371 C2370 1.390 . S
C2371 C2372 1.394 . S
C2371 C2377 1.465 . S
C2372 C2367 1.399 . S
C2372 C2371 1.394 . S
C2372 C2373 1.516 . S
C2373 C2372 1.516 . S
C2373 C2374 1.502 . S
C2373 C2375 1.561 . S
C2373 C2376 1.526 . S
C2374 H2358 0.959 . S
C2374 H2359 0.959 . S
C2374 H2360 0.961 . S
C2374 C2373 1.502 . S
C2375 H2361 0.960 . S
C2375 H2362 0.961 . S
C2375 H2363 0.959 . S
C2375 C2373 1.561 . S
C2376 C2373 1.526 . S
C2376 C2377 1.396 . S
C2376 C2381 1.390 . S
C2377 C2371 1.465 . S
C2377 C2376 1.396 . S
C2377 C2378 1.399 . S
C2378 H2364 0.929 . S
C2378 C2377 1.399 . S
C2378 C2379 1.385 . S
C2379 H2365 0.931 . S
C2379 C2378 1.385 . S
C2379 C2380 1.389 . S
C2380 C2379 1.389 . S
C2380 C2381 1.387 . S
C2381 H2366 0.930 . S
C2381 C2376 1.390 . S
C2381 C2380 1.387 . S
H2382 C2394 0.930 . S
H2383 C2396 0.930 . S
H2384 C2397 0.930 . S
H2385 C2401 0.959 . S
H2386 C2401 0.959 1_565 S
H2387 C2401 0.961 . S
H2388 C2402 0.960 . S
H2389 C2402 0.961 . S
H2390 C2402 0.959 . S
H2391 C2405 0.929 . S
H2392 C2406 0.931 . S
H2393 C2408 0.930 . S
C2394 H2382 0.930 . S
C2394 C2395 1.399 . S
C2394 C2399 1.399 . S
C2395 C2394 1.399 . S
C2395 C2396 1.376 . S
C2396 H2383 0.930 . S
C2396 C2395 1.376 . S
C2396 C2397 1.388 . S
C2397 H2384 0.930 . S
C2397 C2396 1.388 . S
C2397 C2398 1.390 . S
C2398 C2397 1.390 . S
C2398 C2399 1.394 . S
C2398 C2404 1.465 1_545 S
C2399 C2394 1.399 . S
C2399 C2398 1.394 . S
C2399 C2400 1.516 1_545 S
C2400 C2399 1.516 1_565 S
C2400 C2401 1.502 1_565 S
C2400 C2402 1.561 . S
C2400 C2403 1.526 . S
C2401 H2385 0.959 . S
C2401 H2386 0.959 1_545 S
C2401 H2387 0.961 . S
C2401 C2400 1.502 1_545 S
C2402 H2388 0.960 . S
C2402 H2389 0.961 . S
C2402 H2390 0.959 . S
C2402 C2400 1.561 . S
C2403 C2400 1.526 . S
C2403 C2404 1.396 . S
C2403 C2408 1.390 . S
C2404 C2398 1.465 1_565 S
C2404 C2403 1.396 . S
C2404 C2405 1.399 . S
C2405 H2391 0.929 . S
C2405 C2404 1.399 . S
C2405 C2406 1.385 . S
C2406 H2392 0.931 . S
C2406 C2405 1.385 . S
C2406 C2407 1.389 . S
C2407 C2406 1.389 . S
C2407 C2408 1.387 . S
C2408 H2393 0.930 . S
C2408 C2403 1.390 . S
C2408 C2407 1.387 . S
H2409 C2421 0.930 . S
H2410 C2423 0.930 . S
H2411 C2424 0.930 . S
H2412 C2428 0.959 . S
H2413 C2428 0.959 . S
H2414 C2428 0.961 . S
H2415 C2429 0.960 . S
H2416 C2429 0.961 . S
H2417 C2429 0.959 . S
H2418 C2432 0.929 . S
H2419 C2433 0.931 . S
H2420 C2435 0.930 . S
C2421 H2409 0.930 . S
C2421 C2422 1.399 . S
C2421 C2426 1.399 . S
C2422 C2421 1.399 . S
C2422 C2423 1.376 . S
C2423 H2410 0.930 . S
C2423 C2422 1.376 . S
C2423 C2424 1.388 . S
C2424 H2411 0.930 . S
C2424 C2423 1.388 . S
C2424 C2425 1.390 . S
C2425 C2424 1.390 . S
C2425 C2426 1.394 . S
C2425 C2431 1.465 . S
C2426 C2421 1.399 . S
C2426 C2425 1.394 . S
C2426 C2427 1.516 . S
C2427 C2426 1.516 . S
C2427 C2428 1.502 . S
C2427 C2429 1.561 . S
C2427 C2430 1.526 . S
C2428 H2412 0.959 . S
C2428 H2413 0.959 . S
C2428 H2414 0.961 . S
C2428 C2427 1.502 . S
C2429 H2415 0.960 . S
C2429 H2416 0.961 . S
C2429 H2417 0.959 . S
C2429 C2427 1.561 . S
C2430 C2427 1.526 . S
C2430 C2431 1.396 . S
C2430 C2435 1.390 . S
C2431 C2425 1.465 . S
C2431 C2430 1.396 . S
C2431 C2432 1.399 . S
C2432 H2418 0.929 . S
C2432 C2431 1.399 . S
C2432 C2433 1.385 . S
C2433 H2419 0.931 . S
C2433 C2432 1.385 . S
C2433 C2434 1.389 . S
C2434 C2433 1.389 . S
C2434 C2435 1.387 . S
C2435 H2420 0.930 . S
C2435 C2430 1.390 . S
C2435 C2434 1.387 . S
C829 C451 1.550 . S
C841 C20 1.644 . S
C856 C54 1.600 . S
C868 C485 1.445 . S
C883 C88 1.613 . S
C895 C519 1.463 . S
C910 C417 1.479 . S
C922 C122 1.621 . S
C937 C383 1.555 . S
C949 C156 1.648 . S
C964 C281 1.444 1_565 S
C976 C190 1.601 . S
C991 C224 1.649 . S
C1003 C315 1.552 . S
C1018 C349 1.541 1_545 S
C1030 C258 1.645 . S
C1045 C292 1.624 . S
C1057 C43 1.511 . S
C1072 C326 1.609 . S
C1084 C77 1.455 . S
C1099 C360 1.646 . S
C1111 C111 1.540 . S
C1126 C9 1.444 1_655 S
C1138 C394 1.601 . S
C1153 C247 1.517 . S
C1165 C428 1.627 . S
C1180 C462 1.623 . S
C1192 C145 1.484 . S
C1207 C496 1.639 . S
C1219 C179 1.541 . S
C1234 C213 1.443 1_455 S
C1246 C530 1.602 . S
C1261 C757 1.533 . S
C1273 C564 1.643 . S
C1288 C598 1.602 . S
C1300 C621 1.453 . S
C1315 C632 1.632 . S
C1327 C655 1.505 . S
C1342 C689 1.484 . S
C1354 C666 1.624 . S
C1369 C700 1.631 . S
C1381 C587 1.503 1_554 S
C1396 C791 1.506 . S
C1408 C734 1.633 . S
C1423 C768 1.627 . S
C1435 C723 1.493 . S
C1450 C553 1.555 1_556 S
C1462 C802 1.647 . S
C1477 C549 1.191 . S
C1489 C33 1.248 . S
C1504 C787 1.201 . S
C1516 C67 1.227 . S
C1531 C101 1.227 . S
C1543 C719 1.219 . S
C1558 C753 1.198 . S
C1570 C135 1.231 . S
C1585 C583 1.245 . S
C1597 C169 1.189 . S
C1612 C617 1.234 . S
C1624 C203 1.197 . S
C1639 C651 1.193 . S
C1651 C237 1.236 . S
C1666 C271 1.187 . S
C1678 C685 1.250 . S
C1693 C305 1.244 . S
C1705 C5 1.187 . S
C1720 C339 1.196 . S
C1732 C39 1.246 . S
C1747 C373 1.241 . S
C1759 C73 1.203 . S
C1774 C407 1.245 . S
C1786 C107 1.187 . S
C1801 C441 1.250 . S
C1813 C141 1.185 . S
C1828 C175 1.199 . S
C1840 C475 1.243 . S
C1855 C209 1.197 . S
C1867 C509 1.231 . S
C1882 C543 1.209 . S
C1894 C243 1.236 . S
C1909 C277 1.231 . S
C1921 C577 1.215 . S
C1936 C413 1.202 . S
C1948 C611 1.226 . S
C1963 C447 1.230 . S
C1975 C645 1.216 . S
C1990 C481 1.247 . S
C2002 C679 1.197 . S
C2017 C713 1.250 . S
C2029 C515 1.185 . S
C2044 C747 1.251 . S
C2056 C345 1.187 . S
C2071 C781 1.203 . S
C2083 C379 1.226 . S
C2098 C311 1.238 . S
C2110 C815 1.208 . S
C2125 C682 1.180 . S
C2137 C2 1.179 . S
C2152 C36 1.162 . S
C2164 C580 1.163 . S
C2179 C614 1.194 . S
C2191 C70 1.195 . S
C2206 C104 1.173 . S
C2218 C648 1.174 . S
C2233 C784 1.185 . S
C2245 C138 1.187 . S
C2260 C716 1.193 . S
C2272 C172 1.191 . S
C2287 C206 1.193 . S
C2299 C750 1.192 . S
C2314 C546 1.177 . S
C2326 C240 1.179 . S
C2341 C512 1.188 . S
C2353 C274 1.189 . S
C2368 C410 1.168 . S
C2380 C308 1.167 . S
C2395 C444 1.174 . S
C2407 C342 1.173 . S
C2422 C478 1.167 . S
C2434 C376 1.166 . S
