# Generated by pormake.
# Topology snp, (6)-cn, num edge types: 1
# Building blocks:
#     Node 0, Type 0, BuildingBlock: UKALOJ_clean_sbu_0, # of connection points: 6
#     Node 1, Type 0, BuildingBlock: UKALOJ_clean_sbu_0, # of connection points: 6
#     Node 2, Type 0, BuildingBlock: UKALOJ_clean_sbu_0, # of connection points: 6
#     Node 3, Type 0, BuildingBlock: UKALOJ_clean_sbu_0, # of connection points: 6
#     Edge 4, Type (0, 0), BuildingBlock: FUNLAD_clean_linker_0, # of connection points: 2
#     Edge 5, Type (0, 0), BuildingBlock: FUNLAD_clean_linker_0, # of connection points: 2
#     Edge 6, Type (0, 0), BuildingBlock: FUNLAD_clean_linker_0, # of connection points: 2
#     Edge 7, Type (0, 0), BuildingBlock: FUNLAD_clean_linker_0, # of connection points: 2
#     Edge 8, Type (0, 0), BuildingBlock: FUNLAD_clean_linker_0, # of connection points: 2
#     Edge 9, Type (0, 0), BuildingBlock: FUNLAD_clean_linker_0, # of connection points: 2
#     Edge 10, Type (0, 0), BuildingBlock: FUNLAD_clean_linker_0, # of connection points: 2
#     Edge 11, Type (0, 0), BuildingBlock: FUNLAD_clean_linker_0, # of connection points: 2
#     Edge 12, Type (0, 0), BuildingBlock: FUNLAD_clean_linker_0, # of connection points: 2
#     Edge 13, Type (0, 0), BuildingBlock: FUNLAD_clean_linker_0, # of connection points: 2
#     Edge 14, Type (0, 0), BuildingBlock: FUNLAD_clean_linker_0, # of connection points: 2
#     Edge 15, Type (0, 0), BuildingBlock: FUNLAD_clean_linker_0, # of connection points: 2
# Relax obj value: 0.835
# Max RMSD: 0.248
# Mean RMSD: 0.247
data_MOF--net-snp--node1-UKALOJ_clean_sbu_0--edge1-FUNLAD_clean_linker_0
_symmetry_space_group_name_H-M    P1
_symmetry_Int_Tables_number       1
_symmetry_cell_setting            triclinic
loop_
_symmetry_equiv_pos_as_xyz
'x, y, z'
_cell_length_a     36.759049
_cell_length_b     36.963011
_cell_length_c     26.326566
_cell_angle_alpha  97.060746
_cell_angle_beta   97.106247
_cell_angle_gamma 90.652798
loop_
_atom_site_label
_atom_site_type_symbol
_atom_site_fract_x
_atom_site_fract_y
_atom_site_fract_z
_atom_type_partial_charge
Zn0 Zn 0.26329 0.017 0.09042 0.0
O1 O 0.24902 0.97266 0.02897 0.0
C2 C 0.24033 0.06911 0.01472 0.0
Zn3 Zn 0.203 0.02694 0.0832 0.0
C4 C 0.216 0.96562 0.00814 0.0
O5 O 0.19013 0.98504 0.02338 0.0
C6 C 0.24741 0.07891 0.16512 0.0
O7 O 0.19712 0.98947 0.13476 0.0
O8 O 0.25622 0.98045 0.1472 0.0
N9 N 0.14969 0.04325 0.08381 0.0
C10 C 0.13328 0.05158 0.12667 0.0
C11 C 0.10992 0.08501 0.07147 0.0
N12 N 0.13473 0.06376 0.0493 0.0
N13 N 0.10908 0.07831 0.12043 0.0
C14 C 0.34299 1.00472 0.06083 0.0
C15 C 0.37186 0.99369 0.13229 0.0
N16 N 0.31838 1.00547 0.09504 0.0
N17 N 0.33646 0.9985 0.13933 0.0
N18 N 0.37686 0.99764 0.0834 0.0
H19 H 0.30471 0.99924 0.99121 0.0
H20 H 0.35216 0.99318 0.98116 0.0
H21 H 0.33584 0.03803 0.99977 0.0
C22 C 0.33333 1.00881 0.0049 0.0
C23 C 0.14041 0.03312 0.17457 0.0
H24 H 0.13782 1.00317 0.16395 0.0
H25 H 0.12026 0.04071 0.20179 0.0
H26 H 0.16844 0.0403 0.1943 0.0
O27 O 0.21593 0.06888 0.14266 0.0
O28 O 0.27539 0.06195 0.15204 0.0
C29 C 0.2239 0.9736 0.15682 0.0
O30 O 0.26864 0.05331 0.03327 0.0
O31 O 0.20976 0.06326 0.03023 0.0
Zn32 Zn 0.04525 0.22884 0.57919 0.0
O33 O 0.08344 0.23985 0.52575 0.0
C34 C 0.98581 0.20846 0.4948 0.0
Zn35 Zn 0.0478 0.16966 0.54957 0.0
C36 C 0.09288 0.21391 0.49408 0.0
O37 O 0.08075 0.18191 0.49499 0.0
C38 C 1.00226 0.18146 0.63654 0.0
O39 O 0.09468 0.1616 0.60137 0.0
O40 O 0.09098 0.21911 0.6339 0.0
N41 N 0.04482 0.11664 0.51473 0.0
C42 C 1.01305 0.09783 0.49846 0.0
C43 C 0.04993 0.08126 0.44437 0.0
N44 N 0.06797 0.10572 0.48151 0.0
N45 N 0.01514 0.07637 0.45367 0.0
C46 C 0.04945 0.31348 0.58351 0.0
C47 C 0.04579 0.33224 0.66245 0.0
N48 N 0.04636 0.28364 0.60779 0.0
N49 N 0.04402 0.29542 0.65685 0.0
N50 N 0.04949 0.34428 0.61702 0.0
H51 H 0.03607 0.28787 0.50479 0.0
H52 H 0.07917 0.31261 0.51848 0.0
H53 H 0.03707 0.33696 0.51239 0.0
C54 C 0.05024 0.3126 0.5265 0.0
C55 C 0.97994 0.09985 0.52687 0.0
H56 H 0.98839 0.09641 0.56784 0.0
H57 H 0.95941 0.07794 0.51045 0.0
H58 H 0.96688 0.12659 0.52538 0.0
O59 O 0.01553 0.15777 0.60534 0.0
O60 O 1.00846 0.21525 0.63401 0.0
C61 C 0.10651 0.18844 0.63471 0.0
O62 O 0.99853 0.23688 0.52391 0.0
O63 O 1.00119 0.17836 0.49883 0.0
Zn64 Zn 0.8762 0.99475 0.05133 0.0
O65 O 0.88396 0.95426 0.99159 0.0
C66 C 0.8615 0.0475 0.97498 0.0
Zn67 Zn 0.81598 0.9988 0.02828 0.0
C68 C 0.85534 0.94112 0.96272 0.0
O69 O 0.82405 0.95398 0.9702 0.0
C70 C 0.83828 0.05203 0.11736 0.0
O71 O 0.80616 0.95975 0.08176 0.0
O72 O 0.86567 0.95456 0.09588 0.0
N73 N 0.76048 0.99862 1.00206 0.0
C74 C 0.7309 0.99531 0.02712 0.0
C75 C 0.71096 1.00071 0.94903 0.0
N76 N 0.74796 1.00202 0.95354 0.0
N77 N 0.6995 0.99624 0.99461 0.0
C78 C 0.94792 0.02202 0.11667 0.0
C79 C 0.96997 0.97261 0.13944 0.0
N80 N 0.92985 0.99444 0.08482 0.0
N81 N 0.94402 0.96375 0.09865 0.0
N82 N 0.97243 1.00905 0.15203 0.0
H83 H 0.96942 0.07698 0.12347 0.0
H84 H 0.92369 0.07355 0.13895 0.0
H85 H 0.93193 0.06621 0.07256 0.0
C86 C 0.9428 0.06186 0.11233 0.0
C87 C 0.73275 0.99336 0.08398 0.0
H88 H 0.73272 0.96433 0.09083 0.0
H89 H 0.7087 1.00638 0.09948 0.0
H90 H 0.75805 1.00689 0.1053 0.0
O91 O 0.80961 0.04423 0.08559 0.0
O92 O 0.86713 0.03452 0.11135 0.0
C93 C 0.83396 0.94475 0.10339 0.0
O94 O 0.88688 0.03474 0.00453 0.0
O95 O 0.82832 0.03699 0.97559 0.0
Zn96 Zn 0.01685 0.837 0.52791 0.0
O97 O 0.05409 0.84453 0.47636 0.0
C98 C 0.96511 0.79437 0.44349 0.0
Zn99 Zn 0.02687 0.77718 0.51868 0.0
C100 C 0.07111 0.81843 0.45493 0.0
O101 O 0.06509 0.78606 0.46451 0.0
C102 C 0.97307 0.79812 0.5927 0.0
O103 O 0.07031 0.78994 0.58232 0.0
O104 O 0.05909 0.84868 0.58779 0.0
N105 N 0.03844 0.72238 0.51262 0.0
C106 C 0.03861 0.69764 0.54641 0.0
C107 C 0.05087 0.66944 0.47528 0.0
N108 N 0.04617 0.70474 0.46853 0.0
N109 N 0.04606 0.66412 0.52377 0.0
C110 C 0.98985 0.90698 0.48969 0.0
C111 C 0.96087 0.92974 0.55064 0.0
N112 N 1.00114 0.89004 0.53109 0.0
N113 N 0.98353 0.90469 0.56924 0.0
N114 N 0.96387 0.93119 0.50047 0.0
H115 H 0.99715 0.87302 0.41907 0.0
H116 H 0.03537 0.90309 0.44586 0.0
H117 H 0.99532 0.92116 0.41329 0.0
C118 C 1.00503 0.90067 0.43896 0.0
C119 C 0.03358 0.70678 0.60213 0.0
H120 H 0.04285 0.7352 0.61655 0.0
H121 H 0.04908 0.68798 0.62602 0.0
H122 H 1.00406 0.70395 0.6063 0.0
O123 O 0.98852 0.77007 0.57305 0.0
O124 O 0.98046 0.82905 0.58 0.0
C125 C 0.07783 0.82259 0.60341 0.0
O126 O 0.97422 0.8252 0.46848 0.0
O127 O 0.98314 0.76656 0.45459 0.0
C128 C 0.96861 0.05218 0.23018 0.0
C129 C 0.98926 0.02823 0.20015 0.0
C130 C 0.98576 0.07536 0.2723 0.0
C131 C 0.02375 0.07417 0.28594 0.0
C132 C 0.04365 0.047 0.25995 0.0
C133 C 0.02651 0.0243 0.21696 0.0
C134 C 0.04377 0.10632 0.31641 0.0
C135 C 0.04342 0.13659 0.29269 0.0
C136 C 0.06203 0.13363 0.24558 0.0
C137 C 0.04079 0.12594 0.197 0.0
C138 C 0.05662 0.10946 0.15458 0.0
C139 C 0.09388 0.10122 0.16022 0.0
H140 H 0.11685 0.13433 0.28655 0.0
C141 C 0.11591 0.11357 0.20685 0.0
C142 C 0.1 0.12895 0.24955 0.0
H143 H 0.14509 0.10884 0.21127 0.0
H144 H 0.93943 0.05413 0.21962 0.0
H145 H 0.96985 0.09592 0.29189 0.0
H146 H 0.07309 0.0458 0.26962 0.0
H147 H 0.04271 1.00544 0.19493 0.0
H148 H 0.07042 0.09952 0.33514 0.0
H149 H 0.01698 0.14944 0.2876 0.0
H150 H 1.01133 0.12901 0.1932 0.0
H151 H 0.03939 0.10074 0.11864 0.0
C152 C 0.92145 0.92286 0.41957 0.0
C153 C 0.93691 0.9453 0.46432 0.0
C154 C 0.89769 0.93711 0.38203 0.0
C155 C 0.88883 0.9739 0.38898 0.0
C156 C 0.90103 0.99535 0.43617 0.0
C157 C 0.92523 0.98116 0.4735 0.0
C158 C 0.87091 0.99061 0.34442 0.0
C159 C 0.88632 0.01888 0.32634 0.0
C160 C 0.9222 0.03566 0.34989 0.0
C161 C 0.95382 0.01458 0.35513 0.0
C162 C 0.98506 0.02828 0.38807 0.0
C163 C 0.985 0.06323 0.41555 0.0
H164 H 0.89947 0.08831 0.37037 0.0
C165 C 0.95478 0.0855 0.40582 0.0
C166 C 0.92347 0.07168 0.37371 0.0
H167 H 0.95484 0.11321 0.42478 0.0
H168 H 0.92871 0.89456 0.41292 0.0
H169 H 0.888 0.91999 0.34638 0.0
H170 H 0.89352 0.02362 0.44284 0.0
H171 H 0.93597 0.99849 0.50845 0.0
H172 H 0.84532 0.97849 0.32406 0.0
H173 H 0.87087 0.03105 0.29536 0.0
H174 H 0.95349 0.9868 0.33628 0.0
H175 H 1.00849 0.01113 0.39401 0.0
C176 C 0.63535 0.01632 0.98417 0.0
C177 C 0.66192 0.99323 0.00462 0.0
C178 C 0.59895 0.01399 0.99463 0.0
C179 C 0.58822 0.98805 0.02536 0.0
C180 C 0.61483 0.96458 0.04487 0.0
C181 C 0.65109 0.96692 0.03433 0.0
C182 C 0.55032 0.98523 0.03991 0.0
C183 C 0.52029 0.99957 0.0157 0.0
C184 C 0.48284 0.99736 0.03205 0.0
C185 C 0.45671 0.02271 0.01684 0.0
C186 C 0.42167 0.02242 0.03258 0.0
C187 C 0.41171 0.99639 0.06335 0.0
H188 H 0.4911 0.94995 0.07337 0.0
C189 C 0.4375 0.9706 0.07781 0.0
C190 C 0.47251 0.97081 0.06206 0.0
H191 H 0.43048 0.95023 0.10148 0.0
H192 H 0.64302 0.03675 0.961 0.0
H193 H 0.5798 0.03316 0.97952 0.0
H194 H 0.60752 0.9442 0.0684 0.0
H195 H 0.67063 0.94793 0.04914 0.0
H196 H 0.54747 0.97065 0.07258 0.0
H197 H 0.523 0.01446 0.9833 0.0
H198 H 0.46371 0.04344 0.99369 0.0
H199 H 0.40287 0.04335 0.0221 0.0
C200 C 0.02953 0.40812 0.62808 0.0
C201 C 0.0528 0.38177 0.60772 0.0
C202 C 0.03171 0.44427 0.61731 0.0
C203 C 0.05769 0.45491 0.58639 0.0
C204 C 0.08149 0.42853 0.56727 0.0
C205 C 0.07925 0.39253 0.57806 0.0
C206 C 0.06022 0.49243 0.5711 0.0
C207 C 0.0448 0.52219 0.59385 0.0
C208 C 0.04664 0.55914 0.57648 0.0
C209 C 0.02029 0.58468 0.58985 0.0
C210 C 0.02033 0.61929 0.57337 0.0
C211 C 0.04712 0.62944 0.54372 0.0
H212 H 0.09542 0.55144 0.53745 0.0
C213 C 0.07379 0.6042 0.53087 0.0
C214 C 0.07383 0.56959 0.54737 0.0
H215 H 0.09475 0.61138 0.50809 0.0
H216 H 1.00898 0.40044 0.65119 0.0
H217 H 1.01234 0.46325 0.63228 0.0
H218 H 0.10192 0.43576 0.54365 0.0
H219 H 0.09832 0.37307 0.56325 0.0
H220 H 0.07539 0.49518 0.53891 0.0
H221 H 0.02922 0.51963 0.62566 0.0
H222 H 0.99903 0.57756 0.61222 0.0
H223 H 0.99874 0.63768 0.58256 0.0
C224 C 0.11107 0.20954 0.40619 0.0
C225 C 0.12047 0.21883 0.45947 0.0
C226 C 0.13834 0.20278 0.37393 0.0
C227 C 0.17565 0.20415 0.39464 0.0
C228 C 0.18497 0.21543 0.44767 0.0
C229 C 0.1576 0.22308 0.47978 0.0
C230 C 0.20437 0.18859 0.36359 0.0
C231 C 0.20119 0.18689 0.31182 0.0
C232 C 0.22363 0.1634 0.27824 0.0
C233 C 0.22247 0.16951 0.2265 0.0
C234 C 0.23511 0.14343 0.19027 0.0
C235 C 0.24936 0.11068 0.20495 0.0
H236 H 0.2416 0.12566 0.33298 0.0
C237 C 0.25351 0.10569 0.25728 0.0
C238 C 0.24078 0.13187 0.29378 0.0
H239 H 0.26324 0.08009 0.26916 0.0
H240 H 0.08256 0.20517 0.38997 0.0
H241 H 0.12982 0.19375 0.33355 0.0
H242 H 0.21339 0.21644 0.46476 0.0
H243 H 0.16541 0.22922 0.52104 0.0
H244 H 0.22774 0.17652 0.384 0.0
H245 H 0.17956 0.2019 0.29238 0.0
H246 H 0.20928 0.19332 0.21325 0.0
H247 H 0.23074 0.14743 0.14988 0.0
C248 C 0.9613 0.19113 0.70817 0.0
C249 C 0.98287 0.16844 0.67764 0.0
C250 C 0.94491 0.17761 0.74804 0.0
C251 C 0.95049 0.14141 0.75843 0.0
C252 C 0.97179 0.11903 0.72768 0.0
C253 C 0.98738 0.13212 0.6877 0.0
C254 C 0.9375 0.1263 0.80312 0.0
C255 C 0.90555 0.13413 0.8218 0.0
C256 C 0.8936 0.11497 0.86403 0.0
C257 C 0.91924 0.105 0.90378 0.0
C258 C 0.90839 0.08418 0.94041 0.0
C259 C 0.87154 0.07276 0.93865 0.0
H260 H 0.836 0.11298 0.83392 0.0
C261 C 0.84549 0.08425 0.9005 0.0
C262 C 0.85642 0.10534 0.86375 0.0
H263 H 0.81686 0.07618 0.89817 0.0
H264 H 0.95737 0.21924 0.70155 0.0
H265 H 0.92906 0.19573 0.77169 0.0
H266 H 0.97676 0.09115 0.73491 0.0
H267 H 1.004 0.11378 0.66558 0.0
H268 H 0.95413 0.10518 0.81882 0.0
H269 H 0.88671 0.15232 0.80316 0.0
H270 H 0.94792 0.11296 0.90641 0.0
H271 H 0.92922 0.07643 0.96962 0.0
C272 C 0.906 0.81709 0.40552 0.0
C273 C 0.93509 0.79313 0.40043 0.0
C274 C 0.88255 0.82452 0.36236 0.0
C275 C 0.88794 0.8084 0.31264 0.0
C276 C 0.91506 0.78187 0.30829 0.0
C277 C 0.93844 0.77424 0.3518 0.0
C278 C 0.8692 0.82112 0.26444 0.0
C279 C 0.84885 0.85143 0.26322 0.0
C280 C 0.83975 0.86999 0.2161 0.0
C281 C 0.81243 0.89648 0.21533 0.0
C282 C 0.80796 0.91922 0.17606 0.0
C283 C 0.83125 0.91618 0.13748 0.0
H284 H 0.88327 0.84648 0.17454 0.0
C285 C 0.85708 0.88846 0.13667 0.0
C286 C 0.86129 0.86564 0.17528 0.0
H287 H 0.87553 0.88565 0.10741 0.0
H288 H 0.90267 0.83184 0.4428 0.0
H289 H 0.86157 0.8442 0.36853 0.0
H290 H 0.91977 0.76866 0.27069 0.0
H291 H 0.96081 0.75585 0.34675 0.0
H292 H 0.87544 0.8066 0.2283 0.0
H293 H 0.84076 0.8654 0.2985 0.0
H294 H 0.79566 0.90076 0.24649 0.0
H295 H 0.78817 0.94069 0.17794 0.0
C296 C 0.11594 0.80666 0.6831 0.0
C297 C 0.10765 0.83088 0.64642 0.0
C298 C 0.14078 0.81732 0.72746 0.0
C299 C 0.1581 0.85211 0.73511 0.0
C300 C 0.15162 0.87509 0.69657 0.0
C301 C 0.1263 0.86482 0.65305 0.0
C302 C 0.18077 0.86668 0.78414 0.0
C303 C 0.17182 0.86031 0.83035 0.0
C304 C 0.18599 0.88381 0.87878 0.0
C305 C 0.16184 0.89282 0.91535 0.0
C306 C 0.17211 0.91872 0.95804 0.0
C307 C 0.20716 0.93553 0.96584 0.0
H308 H 0.24125 0.89235 0.86065 0.0
C309 C 0.23233 0.92483 0.93117 0.0
C310 C 0.22174 0.89935 0.88767 0.0
H311 H 0.25959 0.93726 0.93647 0.0
H312 H 0.10198 0.78028 0.67872 0.0
H313 H 0.14581 0.79871 0.7561 0.0
H314 H 0.16476 0.90191 0.70137 0.0
H315 H 0.12072 0.88385 0.62502 0.0
H316 H 0.20103 0.888 0.78242 0.0
H317 H 0.14894 0.84174 0.83181 0.0
H318 H 0.13426 0.88109 0.9096 0.0
H319 H 0.1523 0.92612 0.98452 0.0
C320 C 0.89289 0.89622 0.91406 0.0
C321 C 0.85882 0.91214 0.91952 0.0
C322 C 0.89733 0.87139 0.87092 0.0
C323 C 0.86769 0.86176 0.83214 0.0
C324 C 0.83333 0.87671 0.83856 0.0
C325 C 0.82884 0.90146 0.8819 0.0
C326 C 0.87287 0.84062 0.78176 0.0
C327 C 0.90181 0.81933 0.77441 0.0
C328 C 0.91337 0.80798 0.72264 0.0
C329 C 0.93909 0.7803 0.71701 0.0
C330 C 0.95646 0.77441 0.67227 0.0
C331 C 0.94873 0.7966 0.63292 0.0
H332 H 0.88476 0.8502 0.68383 0.0
C333 C 0.92124 0.82246 0.63696 0.0
C334 C 0.90371 0.8281 0.68115 0.0
H335 H 0.91483 0.83998 0.60711 0.0
H336 H 0.91656 0.90377 0.94237 0.0
H337 H 0.92452 0.86142 0.8671 0.0
H338 H 0.8101 0.87012 0.80911 0.0
H339 H 0.8022 0.91318 0.88494 0.0
H340 H 0.85308 0.84477 0.74895 0.0
H341 H 0.91954 0.81212 0.80758 0.0
H342 H 0.94726 0.76455 0.74843 0.0
H343 H 0.97786 0.75457 0.67032 0.0
C344 C 0.1819 0.92979 0.18702 0.0
C345 C 0.21643 0.94764 0.19309 0.0
C346 C 0.17252 0.90806 0.22343 0.0
C347 C 0.19735 0.90389 0.26728 0.0
C348 C 0.23224 0.92105 0.27284 0.0
C349 C 0.24193 0.94234 0.23568 0.0
C350 C 0.18563 0.88575 0.31029 0.0
C351 C 0.15971 0.8588 0.30312 0.0
C352 C 0.14147 0.8468 0.34591 0.0
C353 C 0.12573 0.81145 0.34081 0.0
C354 C 0.10426 0.80126 0.37755 0.0
C355 C 0.09734 0.82667 0.41924 0.0
H356 H 0.14648 0.89936 0.39357 0.0
C357 C 0.11378 0.86171 0.42489 0.0
C358 C 0.13571 0.87162 0.38891 0.0
H359 H 0.109 0.8819 0.45668 0.0
H360 H 0.16166 0.9333 0.15452 0.0
H361 H 0.14507 0.89615 0.21836 0.0
H362 H 0.25173 0.91865 0.30658 0.0
H363 H 0.26864 0.95596 0.24149 0.0
H364 H 0.19767 0.89611 0.34922 0.0
H365 H 0.15025 0.84601 0.26426 0.0
H366 H 0.12937 0.79195 0.3077 0.0
H367 H 0.09176 0.77416 0.37206 0.0
C368 C 0.15039 0.14862 0.68173 0.0
C369 C 0.13565 0.18319 0.67728 0.0
C370 C 0.17366 0.14241 0.72589 0.0
C371 C 0.18287 0.17078 0.76653 0.0
C372 C 0.16965 0.20572 0.76073 0.0
C373 C 0.14645 0.21193 0.71662 0.0
C374 C 0.20158 0.16405 0.8179 0.0
C375 C 0.22086 0.13409 0.82652 0.0
C376 C 0.23061 0.12319 0.87905 0.0
C377 C 0.25885 0.09844 0.88753 0.0
C378 C 0.26429 0.08285 0.93375 0.0
C379 C 0.24105 0.09127 0.97182 0.0
H380 H 0.18629 0.15139 0.91363 0.0
C381 C 0.21413 0.11742 0.96448 0.0
C382 C 0.20896 0.13323 0.91877 0.0
H383 H 0.19571 0.12431 0.99311 0.0
H384 H 0.14262 0.12585 0.65219 0.0
H385 H 0.18251 0.11488 0.72899 0.0
H386 H 0.1761 0.22806 0.79141 0.0
H387 H 0.13573 0.23895 0.71446 0.0
H388 H 0.19754 0.18399 0.85048 0.0
H389 H 0.22818 0.11573 0.79415 0.0
H390 H 0.27572 0.08997 0.85747 0.0
H391 H 0.28494 0.06242 0.9381 0.0
C392 C 0.82588 0.11554 0.15706 0.0
C393 C 0.83965 0.08063 0.16176 0.0
C394 C 0.83451 0.1441 0.1975 0.0
C395 C 0.85607 0.13767 0.24334 0.0
C396 C 0.86859 0.10237 0.24809 0.0
C397 C 0.86049 0.07431 0.20789 0.0
C398 C 0.86917 0.16796 0.28425 0.0
C399 C 0.87214 0.16289 0.3344 0.0
C400 C 0.89654 0.18469 0.37681 0.0
C401 C 0.89331 0.17849 0.42766 0.0
C402 C 0.92106 0.1901 0.46769 0.0
C403 C 0.95249 0.20845 0.45781 0.0
H404 H 0.93087 0.21032 0.32896 0.0
C405 C 0.95469 0.21731 0.40797 0.0
C406 C 0.92687 0.20559 0.36764 0.0
H407 H 0.97927 0.23048 0.39932 0.0
H408 H 0.81039 0.12119 0.12129 0.0
H409 H 0.8251 0.17125 0.19259 0.0
H410 H 0.88651 0.09683 0.2818 0.0
H411 H 0.87195 0.0478 0.21189 0.0
H412 H 0.87938 0.19295 0.27263 0.0
H413 H 0.85869 0.13882 0.34436 0.0
H414 H 0.87056 0.16219 0.43587 0.0
H415 H 0.91928 0.1822 0.50564 0.0
loop_
_geom_bond_atom_site_label_1
_geom_bond_atom_site_label_2
_geom_bond_distance
_geom_bond_site_symmetry_2
_ccdc_geom_bond_type
Zn0 O1 2.066 . S
Zn0 O8 2.063 . S
Zn0 N16 2.035 1_565 S
Zn0 O28 2.040 1_565 S
Zn0 O30 2.050 1_565 S
O1 Zn0 2.066 . S
O1 C4 1.259 1_554 S
C2 O30 1.256 . S
C2 O31 1.244 . S
Zn3 O5 2.053 . S
Zn3 O7 2.063 . S
Zn3 N9 2.035 1_565 S
Zn3 O27 2.059 1_565 S
Zn3 O31 2.044 1_565 S
C4 O1 1.259 1_556 S
C4 O5 1.254 1_556 S
O5 Zn3 2.053 . S
O5 C4 1.254 1_554 S
C6 O27 1.256 . S
C6 O28 1.244 . S
O7 Zn3 2.063 . S
O7 C29 1.259 . S
O8 Zn0 2.063 . S
O8 C29 1.254 . S
N9 Zn3 2.035 1_545 S
N9 C10 1.298 . S
N9 N12 1.398 . S
C10 N9 1.298 . S
C10 N13 1.367 . S
C10 C23 1.481 1_545 S
C11 N12 1.299 . S
C11 N13 1.379 . S
N12 N9 1.398 . S
N12 C11 1.299 . S
N13 C10 1.367 . S
N13 C11 1.379 . S
C14 N16 1.298 . S
C14 N18 1.367 . S
C14 C22 1.481 1_545 S
C15 N17 1.299 . S
C15 N18 1.379 . S
N16 Zn0 2.035 1_545 S
N16 C14 1.298 . S
N16 N17 1.398 . S
N17 C15 1.299 . S
N17 N16 1.398 . S
N18 C14 1.367 . S
N18 C15 1.379 . S
H19 C22 0.980 . S
H20 C22 0.981 1_556 S
H21 C22 0.981 1_546 S
C22 C14 1.481 1_565 S
C22 H19 0.980 . S
C22 H20 0.981 1_554 S
C22 H21 0.981 1_564 S
C23 C10 1.481 1_565 S
C23 H24 0.980 . S
C23 H25 0.981 . S
C23 H26 0.981 1_565 S
H24 C23 0.980 . S
H25 C23 0.981 . S
H26 C23 0.981 1_545 S
O27 Zn3 2.059 1_545 S
O27 C6 1.256 . S
O28 Zn0 2.040 1_545 S
O28 C6 1.244 . S
C29 O7 1.259 . S
C29 O8 1.254 . S
O30 Zn0 2.050 1_545 S
O30 C2 1.256 . S
O31 C2 1.244 . S
O31 Zn3 2.044 1_545 S
Zn32 O33 2.055 . S
Zn32 O40 2.046 . S
Zn32 N48 2.036 . S
Zn32 O60 2.053 1_455 S
Zn32 O62 2.066 1_455 S
O33 Zn32 2.055 . S
O33 C36 1.259 . S
C34 O62 1.256 . S
C34 O63 1.244 . S
Zn35 O37 2.046 . S
Zn35 O39 2.055 . S
Zn35 N41 2.036 . S
Zn35 O59 2.066 1_455 S
Zn35 O63 2.053 1_455 S
C36 O33 1.259 . S
C36 O37 1.254 . S
O37 Zn35 2.046 . S
O37 C36 1.254 . S
C38 O59 1.256 . S
C38 O60 1.244 . S
O39 Zn35 2.055 . S
O39 C61 1.259 . S
O40 Zn32 2.046 . S
O40 C61 1.254 . S
N41 Zn35 2.036 . S
N41 C42 1.298 . S
N41 N44 1.398 . S
C42 N41 1.298 . S
C42 N45 1.367 . S
C42 C55 1.481 . S
C43 N44 1.299 1_655 S
C43 N45 1.379 1_655 S
N44 N41 1.398 . S
N44 C43 1.299 1_455 S
N45 C42 1.367 . S
N45 C43 1.379 1_455 S
C46 N48 1.298 . S
C46 N50 1.367 . S
C46 C54 1.481 . S
C47 N49 1.296 1_655 S
C47 N50 1.370 1_655 S
N48 Zn32 2.036 . S
N48 C46 1.298 . S
N48 N49 1.398 . S
N49 C47 1.296 1_455 S
N49 N48 1.398 . S
N50 C46 1.367 . S
N50 C47 1.370 1_455 S
H51 C54 0.980 . S
H52 C54 0.981 . S
H53 C54 0.981 . S
C54 C46 1.481 . S
C54 H51 0.980 . S
C54 H52 0.981 . S
C54 H53 0.981 . S
C55 C42 1.481 . S
C55 H56 0.980 . S
C55 H57 0.981 . S
C55 H58 0.981 . S
H56 C55 0.980 . S
H57 C55 0.981 . S
H58 C55 0.981 . S
O59 Zn35 2.066 1_655 S
O59 C38 1.256 . S
O60 Zn32 2.053 1_655 S
O60 C38 1.244 . S
C61 O39 1.259 . S
C61 O40 1.254 . S
O62 Zn32 2.066 1_655 S
O62 C34 1.256 . S
O63 C34 1.244 . S
O63 Zn35 2.053 1_655 S
Zn64 O65 2.055 1_554 S
Zn64 O72 2.046 . S
Zn64 N80 2.036 . S
Zn64 O92 2.053 1_565 S
Zn64 O94 2.066 1_564 S
O65 Zn64 2.055 1_556 S
O65 C68 1.259 . S
C66 O94 1.256 . S
C66 O95 1.244 . S
Zn67 O69 2.046 1_554 S
Zn67 O71 2.055 . S
Zn67 N73 2.036 . S
Zn67 O91 2.066 1_565 S
Zn67 O95 2.053 1_564 S
C68 O65 1.259 . S
C68 O69 1.254 . S
O69 Zn67 2.046 1_556 S
O69 C68 1.254 . S
C70 O91 1.256 . S
C70 O92 1.244 . S
O71 Zn67 2.055 . S
O71 C93 1.259 . S
O72 Zn64 2.046 . S
O72 C93 1.254 . S
N73 Zn67 2.036 . S
N73 C74 1.298 . S
N73 N76 1.398 1_564 S
C74 N73 1.298 . S
C74 N77 1.367 1_565 S
C74 C87 1.481 . S
C75 N76 1.299 . S
C75 N77 1.379 1_556 S
N76 N73 1.398 1_546 S
N76 C75 1.299 . S
N77 C74 1.367 1_545 S
N77 C75 1.379 1_554 S
C78 N80 1.298 . S
C78 N82 1.367 1_565 S
C78 C86 1.481 1_554 S
C79 N81 1.299 . S
C79 N82 1.379 . S
N80 Zn64 2.036 . S
N80 C78 1.298 . S
N80 N81 1.398 1_565 S
N81 C79 1.299 . S
N81 N80 1.398 1_545 S
N82 C78 1.367 1_545 S
N82 C79 1.379 . S
H83 C86 0.980 . S
H84 C86 0.981 . S
H85 C86 0.974 1_545 S
C86 C78 1.481 1_556 S
C86 H83 0.980 . S
C86 H84 0.981 . S
C86 H85 0.974 1_565 S
C87 C74 1.481 . S
C87 H88 0.980 . S
C87 H89 0.981 . S
C87 H90 0.992 . S
H88 C87 0.980 . S
H89 C87 0.981 . S
H90 C87 0.992 . S
O91 Zn67 2.066 1_545 S
O91 C70 1.256 . S
O92 Zn64 2.053 1_545 S
O92 C70 1.244 . S
C93 O71 1.259 . S
C93 O72 1.254 . S
O94 Zn64 2.066 1_546 S
O94 C66 1.256 . S
O95 C66 1.244 . S
O95 Zn67 2.053 1_546 S
Zn96 O97 2.055 . S
Zn96 O104 2.046 . S
Zn96 N112 2.036 . S
Zn96 O124 2.053 1_455 S
Zn96 O126 2.066 1_455 S
O97 Zn96 2.055 . S
O97 C100 1.259 . S
C98 O126 1.256 . S
C98 O127 1.244 . S
Zn99 O101 2.046 . S
Zn99 O103 2.055 . S
Zn99 N105 2.036 . S
Zn99 O123 2.066 1_455 S
Zn99 O127 2.053 1_455 S
C100 O97 1.259 . S
C100 O101 1.254 . S
O101 Zn99 2.046 . S
O101 C100 1.254 . S
C102 O123 1.256 . S
C102 O124 1.244 . S
O103 Zn99 2.055 . S
O103 C125 1.259 . S
O104 Zn96 2.046 . S
O104 C125 1.254 . S
N105 Zn99 2.036 . S
N105 C106 1.298 . S
N105 N108 1.398 1_455 S
C106 N105 1.298 . S
C106 N109 1.367 . S
C106 C119 1.481 . S
C107 N108 1.299 . S
C107 N109 1.379 1_655 S
N108 N105 1.398 1_655 S
N108 C107 1.299 . S
N109 C106 1.367 . S
N109 C107 1.379 1_455 S
C110 N112 1.298 . S
C110 N114 1.377 . S
C110 C118 1.481 . S
C111 N113 1.299 . S
C111 N114 1.370 1_655 S
N112 Zn96 2.036 . S
N112 C110 1.298 . S
N112 N113 1.398 1_455 S
N113 C111 1.299 . S
N113 N112 1.398 1_655 S
N114 C110 1.377 . S
N114 C111 1.370 1_455 S
H115 C118 0.980 . S
H116 C118 0.981 . S
H117 C118 0.981 . S
C118 C110 1.481 . S
C118 H115 0.980 . S
C118 H116 0.981 . S
C118 H117 0.981 . S
C119 C106 1.481 . S
C119 H120 0.980 . S
C119 H121 0.981 . S
C119 H122 0.981 . S
H120 C119 0.980 . S
H121 C119 0.981 . S
H122 C119 0.981 . S
O123 Zn99 2.066 1_655 S
O123 C102 1.256 . S
O124 Zn96 2.053 1_655 S
O124 C102 1.244 . S
C125 O103 1.259 . S
C125 O104 1.254 . S
O126 Zn96 2.066 1_655 S
O126 C98 1.256 . S
O127 C98 1.244 . S
O127 Zn99 2.053 1_655 S
C128 C129 1.386 . S
C128 C130 1.383 1_556 S
C128 H144 0.951 . S
C129 C128 1.386 . S
C129 C133 1.383 1_545 S
C130 C128 1.383 1_554 S
C130 C131 1.402 . S
C130 H145 0.951 . S
C131 C130 1.402 . S
C131 C132 1.375 1_545 S
C131 C134 1.461 1_655 S
C132 C131 1.375 1_565 S
C132 C133 1.367 1_554 S
C132 H146 0.951 . S
C133 C129 1.383 1_565 S
C133 C132 1.367 1_556 S
C133 H147 0.950 . S
C134 C131 1.461 1_455 S
C134 C135 1.313 . S
C134 H148 0.955 1_545 S
C135 C134 1.313 . S
C135 C136 1.479 . S
C135 H149 0.950 . S
C136 C135 1.479 . S
C136 C137 1.375 . S
C136 C142 1.404 . S
C137 C136 1.375 . S
C137 C138 1.369 . S
C137 H150 0.950 . S
C138 C137 1.369 . S
C138 C139 1.392 . S
C138 H151 0.951 . S
C139 C138 1.392 . S
C139 C141 1.405 . S
H140 C142 0.949 1_565 S
C141 C139 1.405 . S
C141 C142 1.388 . S
C141 H143 0.927 1_545 S
C142 C136 1.404 . S
C142 H140 0.949 1_545 S
C142 C141 1.388 . S
H143 C141 0.927 1_565 S
H144 C128 0.951 . S
H145 C130 0.951 . S
H146 C132 0.951 . S
H147 C133 0.950 . S
H148 C134 0.955 1_565 S
H149 C135 0.950 . S
H150 C137 0.950 . S
H151 C138 0.951 . S
C152 C153 1.386 1_455 S
C152 C154 1.383 . S
C152 H168 0.951 . S
C153 C152 1.386 1_655 S
C153 C157 1.383 . S
C154 C152 1.383 . S
C154 C155 1.402 1_455 S
C154 H169 0.951 . S
C155 C154 1.402 1_655 S
C155 C156 1.375 . S
C155 C158 1.481 . S
C156 C155 1.375 . S
C156 C157 1.367 . S
C156 H170 0.951 . S
C157 C153 1.383 . S
C157 C156 1.367 . S
C157 H171 0.950 . S
C158 C155 1.481 . S
C158 C159 1.297 1_665 S
C158 H172 0.950 . S
C159 C158 1.297 1_445 S
C159 C160 1.479 . S
C159 H173 0.950 . S
C160 C159 1.479 . S
C160 C161 1.375 . S
C160 C166 1.404 1_455 S
C161 C160 1.375 . S
C161 C162 1.369 . S
C161 H174 0.950 . S
C162 C161 1.369 . S
C162 C163 1.392 . S
C162 H175 0.951 . S
C163 C162 1.392 . S
C163 C165 1.384 1_455 S
H164 C166 0.949 . S
C165 C163 1.384 1_655 S
C165 C166 1.385 . S
C165 H167 0.950 . S
C166 C160 1.404 1_655 S
C166 H164 0.949 . S
C166 C165 1.385 . S
H167 C165 0.950 . S
H168 C152 0.951 . S
H169 C154 0.951 . S
H170 C156 0.951 . S
H171 C157 0.950 . S
H172 C158 0.950 . S
H173 C159 0.950 . S
H174 C161 0.950 . S
H175 C162 0.951 . S
C176 C177 1.386 . S
C176 C178 1.383 . S
C176 H192 0.951 . S
C177 C176 1.386 . S
C177 C181 1.383 1_545 S
C178 C176 1.383 . S
C178 C179 1.402 1_545 S
C178 H193 0.951 . S
C179 C178 1.402 1_565 S
C179 C180 1.375 . S
C179 C182 1.481 . S
C180 C179 1.375 . S
C180 C181 1.367 . S
C180 H194 0.951 . S
C181 C177 1.383 1_565 S
C181 C180 1.367 . S
C181 H195 0.950 . S
C182 C179 1.481 . S
C182 C183 1.297 1_565 S
C182 H196 0.950 . S
C183 C182 1.297 1_545 S
C183 C184 1.479 . S
C183 H197 0.950 . S
C184 C183 1.479 . S
C184 C185 1.375 . S
C184 C190 1.404 1_545 S
C185 C184 1.375 . S
C185 C186 1.369 . S
C185 H198 0.950 . S
C186 C185 1.369 . S
C186 C187 1.392 . S
C186 H199 0.951 . S
C187 C186 1.392 . S
C187 C189 1.384 1_545 S
H188 C190 0.949 . S
C189 C187 1.384 1_565 S
C189 C190 1.385 . S
C189 H191 0.950 . S
C190 C184 1.404 1_565 S
C190 H188 0.949 . S
C190 C189 1.385 . S
H191 C189 0.950 . S
H192 C176 0.951 . S
H193 C178 0.951 . S
H194 C180 0.951 . S
H195 C181 0.950 . S
H196 C182 0.950 . S
H197 C183 0.950 . S
H198 C185 0.950 . S
H199 C186 0.951 . S
C200 C201 1.393 . S
C200 C202 1.385 . S
C200 H216 0.942 1_455 S
C201 C200 1.393 . S
C201 C205 1.383 . S
C202 C200 1.385 . S
C202 C203 1.402 . S
C202 H217 0.951 1_455 S
C203 C202 1.402 . S
C203 C204 1.375 . S
C203 C206 1.481 . S
C204 C203 1.375 . S
C204 C205 1.367 . S
C204 H218 0.951 . S
C205 C201 1.383 . S
C205 C204 1.367 . S
C205 H219 0.950 . S
C206 C203 1.481 . S
C206 C207 1.297 . S
C206 H220 0.950 . S
C207 C206 1.297 . S
C207 C208 1.479 . S
C207 H221 0.950 . S
C208 C207 1.479 . S
C208 C209 1.375 1_455 S
C208 C214 1.404 . S
C209 C208 1.375 1_655 S
C209 C210 1.369 . S
C209 H222 0.950 . S
C210 C209 1.369 . S
C210 C211 1.392 1_655 S
C210 H223 0.951 . S
C211 C210 1.392 1_455 S
C211 C213 1.384 . S
H212 C214 0.949 . S
C213 C211 1.384 . S
C213 C214 1.385 . S
C213 H215 0.950 . S
C214 C208 1.404 . S
C214 H212 0.949 . S
C214 C213 1.385 . S
H215 C213 0.950 . S
H216 C200 0.942 1_655 S
H217 C202 0.951 1_655 S
H218 C204 0.951 . S
H219 C205 0.950 . S
H220 C206 0.950 . S
H221 C207 0.950 . S
H222 C209 0.950 . S
H223 C210 0.951 . S
C224 C225 1.386 . S
C224 C226 1.383 . S
C224 H240 0.951 . S
C225 C224 1.386 . S
C225 C229 1.383 . S
C226 C224 1.383 . S
C226 C227 1.402 . S
C226 H241 0.951 . S
C227 C226 1.402 . S
C227 C228 1.375 . S
C227 C230 1.481 . S
C228 C227 1.375 . S
C228 C229 1.367 . S
C228 H242 0.951 . S
C229 C225 1.383 . S
C229 C228 1.367 . S
C229 H243 0.950 . S
C230 C227 1.481 . S
C230 C231 1.297 . S
C230 H244 0.950 . S
C231 C230 1.297 . S
C231 C232 1.479 . S
C231 H245 0.950 . S
C232 C231 1.479 . S
C232 C233 1.375 . S
C232 C238 1.404 . S
C233 C232 1.375 . S
C233 C234 1.369 . S
C233 H246 0.950 . S
C234 C233 1.369 . S
C234 C235 1.392 . S
C234 H247 0.951 . S
C235 C234 1.392 . S
C235 C237 1.384 . S
H236 C238 0.949 . S
C237 C235 1.384 . S
C237 C238 1.385 . S
C237 H239 0.950 . S
C238 C232 1.404 . S
C238 H236 0.949 . S
C238 C237 1.385 . S
H239 C237 0.950 . S
H240 C224 0.951 . S
H241 C226 0.951 . S
H242 C228 0.951 . S
H243 C229 0.950 . S
H244 C230 0.950 . S
H245 C231 0.950 . S
H246 C233 0.950 . S
H247 C234 0.951 . S
C248 C249 1.386 . S
C248 C250 1.383 . S
C248 H264 0.951 . S
C249 C248 1.386 . S
C249 C253 1.383 . S
C250 C248 1.383 . S
C250 C251 1.402 . S
C250 H265 0.951 . S
C251 C250 1.402 . S
C251 C252 1.375 . S
C251 C254 1.481 . S
C252 C251 1.375 . S
C252 C253 1.367 . S
C252 H266 0.951 . S
C253 C249 1.383 . S
C253 C252 1.367 . S
C253 H267 0.950 . S
C254 C251 1.481 . S
C254 C255 1.297 . S
C254 H268 0.950 . S
C255 C254 1.297 . S
C255 C256 1.479 . S
C255 H269 0.950 . S
C256 C255 1.479 . S
C256 C257 1.375 . S
C256 C262 1.404 . S
C257 C256 1.375 . S
C257 C258 1.369 . S
C257 H270 0.950 . S
C258 C257 1.369 . S
C258 C259 1.392 . S
C258 H271 0.951 . S
C259 C258 1.392 . S
C259 C261 1.384 . S
H260 C262 0.949 . S
C261 C259 1.384 . S
C261 C262 1.385 . S
C261 H263 0.950 . S
C262 C256 1.404 . S
C262 H260 0.949 . S
C262 C261 1.385 . S
H263 C261 0.950 . S
H264 C248 0.951 . S
H265 C250 0.951 . S
H266 C252 0.951 . S
H267 C253 0.950 . S
H268 C254 0.950 . S
H269 C255 0.950 . S
H270 C257 0.950 . S
H271 C258 0.951 . S
C272 C273 1.386 . S
C272 C274 1.383 . S
C272 H288 0.951 . S
C273 C272 1.386 . S
C273 C277 1.383 . S
C274 C272 1.383 . S
C274 C275 1.402 . S
C274 H289 0.951 . S
C275 C274 1.402 . S
C275 C276 1.375 . S
C275 C278 1.481 . S
C276 C275 1.375 . S
C276 C277 1.367 . S
C276 H290 0.951 . S
C277 C273 1.383 . S
C277 C276 1.367 . S
C277 H291 0.950 . S
C278 C275 1.481 . S
C278 C279 1.297 . S
C278 H292 0.950 . S
C279 C278 1.297 . S
C279 C280 1.479 . S
C279 H293 0.950 . S
C280 C279 1.479 . S
C280 C281 1.375 . S
C280 C286 1.404 . S
C281 C280 1.375 . S
C281 C282 1.369 . S
C281 H294 0.950 . S
C282 C281 1.369 . S
C282 C283 1.392 . S
C282 H295 0.951 . S
C283 C282 1.392 . S
C283 C285 1.384 . S
H284 C286 0.949 . S
C285 C283 1.384 . S
C285 C286 1.385 . S
C285 H287 0.950 . S
C286 C280 1.404 . S
C286 H284 0.949 . S
C286 C285 1.385 . S
H287 C285 0.950 . S
H288 C272 0.951 . S
H289 C274 0.951 . S
H290 C276 0.951 . S
H291 C277 0.950 . S
H292 C278 0.950 . S
H293 C279 0.950 . S
H294 C281 0.950 . S
H295 C282 0.951 . S
C296 C297 1.386 . S
C296 C298 1.383 . S
C296 H312 0.951 . S
C297 C296 1.386 . S
C297 C301 1.383 . S
C298 C296 1.383 . S
C298 C299 1.402 . S
C298 H313 0.951 . S
C299 C298 1.402 . S
C299 C300 1.375 . S
C299 C302 1.481 . S
C300 C299 1.375 . S
C300 C301 1.367 . S
C300 H314 0.951 . S
C301 C297 1.383 . S
C301 C300 1.367 . S
C301 H315 0.950 . S
C302 C299 1.481 . S
C302 C303 1.297 . S
C302 H316 0.950 . S
C303 C302 1.297 . S
C303 C304 1.479 . S
C303 H317 0.950 . S
C304 C303 1.479 . S
C304 C305 1.375 . S
C304 C310 1.404 . S
C305 C304 1.375 . S
C305 C306 1.369 . S
C305 H318 0.950 . S
C306 C305 1.369 . S
C306 C307 1.392 . S
C306 H319 0.951 . S
C307 C306 1.392 . S
C307 C309 1.384 . S
H308 C310 0.949 . S
C309 C307 1.384 . S
C309 C310 1.385 . S
C309 H311 0.950 . S
C310 C304 1.404 . S
C310 H308 0.949 . S
C310 C309 1.385 . S
H311 C309 0.950 . S
H312 C296 0.951 . S
H313 C298 0.951 . S
H314 C300 0.951 . S
H315 C301 0.950 . S
H316 C302 0.950 . S
H317 C303 0.950 . S
H318 C305 0.950 . S
H319 C306 0.951 . S
C320 C321 1.386 . S
C320 C322 1.383 . S
C320 H336 0.951 . S
C321 C320 1.386 . S
C321 C325 1.383 . S
C322 C320 1.383 . S
C322 C323 1.402 . S
C322 H337 0.951 . S
C323 C322 1.402 . S
C323 C324 1.375 . S
C323 C326 1.481 . S
C324 C323 1.375 . S
C324 C325 1.367 . S
C324 H338 0.951 . S
C325 C321 1.383 . S
C325 C324 1.367 . S
C325 H339 0.950 . S
C326 C323 1.481 . S
C326 C327 1.297 . S
C326 H340 0.950 . S
C327 C326 1.297 . S
C327 C328 1.479 . S
C327 H341 0.950 . S
C328 C327 1.479 . S
C328 C329 1.375 . S
C328 C334 1.404 . S
C329 C328 1.375 . S
C329 C330 1.369 . S
C329 H342 0.950 . S
C330 C329 1.369 . S
C330 C331 1.392 . S
C330 H343 0.951 . S
C331 C330 1.392 . S
C331 C333 1.384 . S
H332 C334 0.949 . S
C333 C331 1.384 . S
C333 C334 1.385 . S
C333 H335 0.950 . S
C334 C328 1.404 . S
C334 H332 0.949 . S
C334 C333 1.385 . S
H335 C333 0.950 . S
H336 C320 0.951 . S
H337 C322 0.951 . S
H338 C324 0.951 . S
H339 C325 0.950 . S
H340 C326 0.950 . S
H341 C327 0.950 . S
H342 C329 0.950 . S
H343 C330 0.951 . S
C344 C345 1.386 . S
C344 C346 1.383 . S
C344 H360 0.951 . S
C345 C344 1.386 . S
C345 C349 1.383 . S
C346 C344 1.383 . S
C346 C347 1.402 . S
C346 H361 0.951 . S
C347 C346 1.402 . S
C347 C348 1.375 . S
C347 C350 1.481 . S
C348 C347 1.375 . S
C348 C349 1.367 . S
C348 H362 0.951 . S
C349 C345 1.383 . S
C349 C348 1.367 . S
C349 H363 0.950 . S
C350 C347 1.481 . S
C350 C351 1.297 . S
C350 H364 0.950 . S
C351 C350 1.297 . S
C351 C352 1.479 . S
C351 H365 0.950 . S
C352 C351 1.479 . S
C352 C353 1.375 . S
C352 C358 1.404 . S
C353 C352 1.375 . S
C353 C354 1.369 . S
C353 H366 0.950 . S
C354 C353 1.369 . S
C354 C355 1.392 . S
C354 H367 0.951 . S
C355 C354 1.392 . S
C355 C357 1.384 . S
H356 C358 0.949 . S
C357 C355 1.384 . S
C357 C358 1.385 . S
C357 H359 0.950 . S
C358 C352 1.404 . S
C358 H356 0.949 . S
C358 C357 1.385 . S
H359 C357 0.950 . S
H360 C344 0.951 . S
H361 C346 0.951 . S
H362 C348 0.951 . S
H363 C349 0.950 . S
H364 C350 0.950 . S
H365 C351 0.950 . S
H366 C353 0.950 . S
H367 C354 0.951 . S
C368 C369 1.386 . S
C368 C370 1.383 . S
C368 H384 0.951 . S
C369 C368 1.386 . S
C369 C373 1.383 . S
C370 C368 1.383 . S
C370 C371 1.402 . S
C370 H385 0.951 . S
C371 C370 1.402 . S
C371 C372 1.375 . S
C371 C374 1.481 . S
C372 C371 1.375 . S
C372 C373 1.367 . S
C372 H386 0.951 . S
C373 C369 1.383 . S
C373 C372 1.367 . S
C373 H387 0.950 . S
C374 C371 1.481 . S
C374 C375 1.297 . S
C374 H388 0.950 . S
C375 C374 1.297 . S
C375 C376 1.479 . S
C375 H389 0.950 . S
C376 C375 1.479 . S
C376 C377 1.375 . S
C376 C382 1.404 . S
C377 C376 1.375 . S
C377 C378 1.369 . S
C377 H390 0.950 . S
C378 C377 1.369 . S
C378 C379 1.392 . S
C378 H391 0.951 . S
C379 C378 1.392 . S
C379 C381 1.384 . S
H380 C382 0.949 . S
C381 C379 1.384 . S
C381 C382 1.385 . S
C381 H383 0.950 . S
C382 C376 1.404 . S
C382 H380 0.949 . S
C382 C381 1.385 . S
H383 C381 0.950 . S
H384 C368 0.951 . S
H385 C370 0.951 . S
H386 C372 0.951 . S
H387 C373 0.950 . S
H388 C374 0.950 . S
H389 C375 0.950 . S
H390 C377 0.950 . S
H391 C378 0.951 . S
C392 C393 1.386 . S
C392 C394 1.383 . S
C392 H408 0.951 . S
C393 C392 1.386 . S
C393 C397 1.383 . S
C394 C392 1.383 . S
C394 C395 1.402 . S
C394 H409 0.951 . S
C395 C394 1.402 . S
C395 C396 1.375 . S
C395 C398 1.481 . S
C396 C395 1.375 . S
C396 C397 1.367 . S
C396 H410 0.951 . S
C397 C393 1.383 . S
C397 C396 1.367 . S
C397 H411 0.950 . S
C398 C395 1.481 . S
C398 C399 1.297 . S
C398 H412 0.950 . S
C399 C398 1.297 . S
C399 C400 1.479 . S
C399 H413 0.950 . S
C400 C399 1.479 . S
C400 C401 1.375 . S
C400 C406 1.404 . S
C401 C400 1.375 . S
C401 C402 1.369 . S
C401 H414 0.950 . S
C402 C401 1.369 . S
C402 C403 1.392 . S
C402 H415 0.951 . S
C403 C402 1.392 . S
C403 C405 1.384 . S
H404 C406 0.949 . S
C405 C403 1.384 . S
C405 C406 1.385 . S
C405 H407 0.950 . S
C406 C400 1.404 . S
C406 H404 0.949 . S
C406 C405 1.385 . S
H407 C405 0.950 . S
H408 C392 0.951 . S
H409 C394 0.951 . S
H410 C396 0.951 . S
H411 C397 0.950 . S
H412 C398 0.950 . S
H413 C399 0.950 . S
H414 C401 0.950 . S
H415 C402 0.951 . S
C129 N82 2.706 1_556 S
C139 N13 2.798 . S
C153 N114 2.752 1_655 S
C163 N45 2.709 . S
C177 N77 0.973 . S
C187 N18 1.022 . S
C201 N50 0.994 . S
C211 N109 0.989 . S
C225 C36 1.703 . S
C235 C6 1.675 . S
C249 C38 2.072 . S
C259 C66 2.028 . S
C273 C98 1.668 . S
C283 C93 1.656 . S
C297 C125 1.388 . S
C307 C4 1.338 . S
C321 C68 1.793 . S
C331 C102 1.801 . S
C345 C29 2.012 . S
C355 C100 2.018 . S
C369 C61 1.802 . S
C379 C2 1.800 1_556 S
C393 C70 1.596 . S
C403 C34 1.574 . S
