# Generated by pormake.
# Topology snk, (6)-cn, num edge types: 1
# Building blocks:
#     Node 0, Type 0, BuildingBlock: FUNLAD_clean_sbu_0, # of connection points: 6
#     Node 1, Type 0, BuildingBlock: FUNLAD_clean_sbu_0, # of connection points: 6
#     Node 2, Type 0, BuildingBlock: FUNLAD_clean_sbu_0, # of connection points: 6
#     Node 3, Type 0, BuildingBlock: FUNLAD_clean_sbu_0, # of connection points: 6
#     Node 4, Type 0, BuildingBlock: FUNLAD_clean_sbu_0, # of connection points: 6
#     Node 5, Type 0, BuildingBlock: FUNLAD_clean_sbu_0, # of connection points: 6
#     Node 6, Type 0, BuildingBlock: FUNLAD_clean_sbu_0, # of connection points: 6
#     Node 7, Type 0, BuildingBlock: FUNLAD_clean_sbu_0, # of connection points: 6
#     Edge 8, Type (0, 0), BuildingBlock: AJUNOK_clean_linker_0, # of connection points: 2
#     Edge 9, Type (0, 0), BuildingBlock: AJUNOK_clean_linker_0, # of connection points: 2
#     Edge 10, Type (0, 0), BuildingBlock: AJUNOK_clean_linker_0, # of connection points: 2
#     Edge 11, Type (0, 0), BuildingBlock: AJUNOK_clean_linker_0, # of connection points: 2
#     Edge 12, Type (0, 0), BuildingBlock: AJUNOK_clean_linker_0, # of connection points: 2
#     Edge 13, Type (0, 0), BuildingBlock: AJUNOK_clean_linker_0, # of connection points: 2
#     Edge 14, Type (0, 0), BuildingBlock: AJUNOK_clean_linker_0, # of connection points: 2
#     Edge 15, Type (0, 0), BuildingBlock: AJUNOK_clean_linker_0, # of connection points: 2
#     Edge 16, Type (0, 0), BuildingBlock: AJUNOK_clean_linker_0, # of connection points: 2
#     Edge 17, Type (0, 0), BuildingBlock: AJUNOK_clean_linker_0, # of connection points: 2
#     Edge 18, Type (0, 0), BuildingBlock: AJUNOK_clean_linker_0, # of connection points: 2
#     Edge 19, Type (0, 0), BuildingBlock: AJUNOK_clean_linker_0, # of connection points: 2
#     Edge 20, Type (0, 0), BuildingBlock: AJUNOK_clean_linker_0, # of connection points: 2
#     Edge 21, Type (0, 0), BuildingBlock: AJUNOK_clean_linker_0, # of connection points: 2
#     Edge 22, Type (0, 0), BuildingBlock: AJUNOK_clean_linker_0, # of connection points: 2
#     Edge 23, Type (0, 0), BuildingBlock: AJUNOK_clean_linker_0, # of connection points: 2
#     Edge 24, Type (0, 0), BuildingBlock: AJUNOK_clean_linker_0, # of connection points: 2
#     Edge 25, Type (0, 0), BuildingBlock: AJUNOK_clean_linker_0, # of connection points: 2
#     Edge 26, Type (0, 0), BuildingBlock: AJUNOK_clean_linker_0, # of connection points: 2
#     Edge 27, Type (0, 0), BuildingBlock: AJUNOK_clean_linker_0, # of connection points: 2
#     Edge 28, Type (0, 0), BuildingBlock: AJUNOK_clean_linker_0, # of connection points: 2
#     Edge 29, Type (0, 0), BuildingBlock: AJUNOK_clean_linker_0, # of connection points: 2
#     Edge 30, Type (0, 0), BuildingBlock: AJUNOK_clean_linker_0, # of connection points: 2
#     Edge 31, Type (0, 0), BuildingBlock: AJUNOK_clean_linker_0, # of connection points: 2
# Relax obj value: 0.373
# Max RMSD: 0.134
# Mean RMSD: 0.102
data_MOF--net-snk--node1-FUNLAD_clean_sbu_0--edge1-AJUNOK_clean_linker_0
_symmetry_space_group_name_H-M    P1
_symmetry_Int_Tables_number       1
_symmetry_cell_setting            triclinic
loop_
_symmetry_equiv_pos_as_xyz
'x, y, z'
_cell_length_a     37.992956
_cell_length_b     37.944771
_cell_length_c     11.344131
_cell_angle_alpha  78.055951
_cell_angle_beta   78.050682
_cell_angle_gamma 96.966445
loop_
_atom_site_label
_atom_site_type_symbol
_atom_site_fract_x
_atom_site_fract_y
_atom_site_fract_z
_atom_type_partial_charge
C0 C 1.05144 0.05887 0.70503 0.0
N1 N 0.11106 1.00286 0.47585 0.0
C2 C 0.13961 1.01142 0.52612 0.0
C3 C 0.16364 0.98699 0.54599 0.0
C4 C 0.15808 0.95309 0.51567 0.0
C5 C 0.12821 0.94453 0.46562 0.0
C6 C 0.10503 0.9701 0.44543 0.0
Zn7 Zn 0.07583 1.03998 0.4576 0.0
C8 C 0.99387 0.99798 0.52657 0.0
N9 N 1.00244 0.11767 0.4331 0.0
C10 C 1.0161 0.14615 0.33186 0.0
C11 C 0.96767 0.114 0.50167 0.0
C12 C 0.94509 0.13906 0.46685 0.0
C13 C 0.95834 0.16799 0.36007 0.0
C14 C 0.99463 0.17165 0.29415 0.0
Zn15 Zn 1.03623 0.07898 0.45951 0.0
O16 O 0.07084 1.04059 0.64434 0.0
C17 C 0.11831 0.12059 0.39412 0.0
O18 O 1.03175 0.07864 0.65128 0.0
H19 H 0.95709 0.09114 0.58121 0.0
H20 H 0.1436 1.03716 0.55238 0.0
H21 H 1.04345 0.14846 0.27642 0.0
O22 O 0.12371 0.0875 0.40441 0.0
O23 O 0.08493 0.12521 0.41043 0.0
H24 H 0.08212 0.96365 0.40621 0.0
O25 O 1.04151 0.07821 0.26984 0.0
O26 O 0.08017 1.03986 0.2689 0.0
O27 O 0.98824 1.0312 0.51161 0.0
O28 O 1.02734 0.99353 0.51148 0.0
C29 C 0.06102 0.05934 0.21216 0.0
H30 H 0.18623 0.99436 0.58586 0.0
H31 H 0.12319 0.91861 0.44087 0.0
H32 H 0.91742 0.13553 0.52192 0.0
H33 H 1.00595 0.19323 0.21093 0.0
C34 C 0.30934 0.81562 0.89107 0.0
N35 N 0.37544 0.89033 0.56272 0.0
C36 C 0.35594 0.91563 0.59853 0.0
C37 C 0.35576 0.92295 0.71382 0.0
C38 C 0.38092 0.9093 0.77916 0.0
C39 C 0.40965 0.89545 0.7129 0.0
C40 C 0.40641 0.8863 0.60226 0.0
Zn41 Zn 0.3404 0.84065 0.6029 0.0
C42 C 0.37381 0.77659 0.67194 0.0
N43 N 0.26182 0.74227 0.71198 0.0
C44 C 0.23123 0.74606 0.6701 0.0
C45 C 0.28134 0.71629 0.68197 0.0
C46 C 0.28011 0.70502 0.57352 0.0
C47 C 0.25359 0.71521 0.50924 0.0
C48 C 0.22673 0.73303 0.56723 0.0
Zn49 Zn 0.29574 0.79188 0.67756 0.0
O50 O 0.33141 0.83914 0.80113 0.0
C51 C 0.26183 0.85574 0.61285 0.0
O52 O 0.28812 0.79069 0.86818 0.0
H53 H 0.30181 0.70836 0.73024 0.0
H54 H 0.33582 0.92487 0.55053 0.0
H55 H 0.21268 0.76291 0.7057 0.0
O56 O 0.2956 0.86883 0.585 0.0
O57 O 0.25179 0.82184 0.66229 0.0
H58 H 0.42568 0.87118 0.55965 0.0
O59 O 0.30412 0.79298 0.48175 0.0
O60 O 0.34759 0.84111 0.41122 0.0
O61 O 0.34002 0.76428 0.69587 0.0
O62 O 0.38471 0.81036 0.62153 0.0
C63 C 0.32596 0.81601 0.39053 0.0
H64 H 0.33466 0.93686 0.75215 0.0
H65 H 0.43314 0.88964 0.74843 0.0
H66 H 0.30084 0.69005 0.54068 0.0
H67 H 0.20304 0.73822 0.53189 0.0
C68 C 0.552 0.05643 0.78103 0.0
N69 N 0.48175 0.9944 0.11639 0.0
C70 C 0.45614 1.00667 0.05913 0.0
C71 C 0.4224 0.98532 0.08108 0.0
C72 C 0.4148 0.95 0.16039 0.0
C73 C 0.44041 0.93953 0.22865 0.0
C74 C 0.47421 0.96231 0.20415 0.0
Zn75 Zn 0.52963 1.02851 0.06419 0.0
C76 C 0.59365 0.9948 0.00132 0.0
N77 N 0.62645 0.10881 0.94581 0.0
C78 C 0.62214 0.13997 -0.01631 0.0
C79 C 0.65362 0.09104 0.97445 0.0
C80 C 0.66505 0.09375 0.08161 0.0
C81 C 0.65231 0.11919 0.1476 0.0
C82 C 0.63448 0.14551 0.08676 0.0
Zn83 Zn 0.57763 0.07273 -0.00872 0.0
O84 O 0.52847 1.03507 0.87218 0.0
C85 C 0.51271 0.10625 0.05094 0.0
O86 O 0.57732 0.07768 0.80207 0.0
H87 H 0.66217 0.07053 0.92715 0.0
H88 H 0.46241 1.03254 -0.00871 0.0
H89 H 0.60494 0.15777 0.94619 0.0
O90 O 0.49971 0.07236 0.08278 0.0
O91 O 0.54664 0.11603 0.00237 0.0
H92 H 0.49483 0.95379 0.25151 0.0
O93 O 0.57748 0.06665 0.18667 0.0
O94 O 0.5307 1.02196 0.25118 0.0
O95 O 0.60637 1.02859 -0.02111 0.0
O96 O 0.5595 0.9843 0.0459 0.0
C97 C 0.55446 1.04386 0.27578 0.0
H98 H 0.40421 0.99549 0.02537 0.0
H99 H 0.4354 0.91326 0.29411 0.0
H100 H 0.68197 0.07472 0.11151 0.0
H101 H 0.62825 0.16918 0.12075 0.0
C102 C 0.30569 0.31465 0.97816 0.0
N103 N 0.36243 0.2541 0.20567 0.0
C104 C 0.35508 0.2278 0.14455 0.0
C105 C 0.37983 0.20436 0.11978 0.0
C106 C 0.41273 0.20783 0.1578 0.0
C107 C 0.41945 0.23484 0.22251 0.0
C108 C 0.39386 0.25784 0.24531 0.0
Zn109 Zn 0.3258 0.28984 0.22509 0.0
C110 C 0.36704 0.37147 0.15721 0.0
N111 N 0.24919 0.36389 0.25115 0.0
C112 C 0.21521 0.3584 0.22957 0.0
C113 C 0.25838 0.38958 0.31245 0.0
C114 C 0.23276 0.40963 0.35968 0.0
C115 C 0.19705 0.40362 0.34367 0.0
C116 C 0.18868 0.37825 0.27451 0.0
Zn117 Zn 0.28595 0.32851 0.22439 0.0
O118 O 0.32508 0.29558 0.03519 0.0
C119 C 0.24441 0.24735 0.2895 0.0
O120 O 0.28567 0.3334 0.03542 0.0
H121 H 0.28514 0.3932 0.33144 0.0
H122 H 0.33017 0.22535 0.11272 0.0
H123 H 0.2082 0.33767 0.18174 0.0
O124 O 0.27766 0.24222 0.27689 0.0
O125 O 0.23942 0.28064 0.27551 0.0
H126 H 0.39928 0.27893 0.29356 0.0
O127 O 0.28662 0.32271 0.41163 0.0
O128 O 0.32576 0.28501 0.4171 0.0
O129 O 0.33359 0.37582 0.17115 0.0
O130 O 0.37275 0.33833 0.17257 0.0
C131 C 0.30532 0.30392 0.47184 0.0
H132 H 0.37355 0.18407 0.0692 0.0
H133 H 0.4441 0.23802 0.25584 0.0
H134 H 0.24053 0.42863 0.41288 0.0
H135 H 0.1618 0.37336 0.25684 0.0
C136 C 0.81221 0.32115 0.38411 0.0
N137 N 0.87536 0.3833 0.03599 0.0
C138 C 0.86671 0.41587 0.05388 0.0
C139 C 0.89415 0.44409 0.04918 0.0
C140 C 0.92948 0.43619 0.04188 0.0
C141 C 0.93876 0.40749 -0.01239 0.0
C142 C 0.91051 0.38026 -0.01176 0.0
Zn143 Zn 0.83677 0.3377 0.10946 0.0
C144 C 0.86614 0.26941 0.17584 0.0
N145 N 0.75404 0.24655 0.25808 0.0
C146 C 0.72753 0.24662 0.35926 0.0
C147 C 0.76045 0.2152 0.22527 0.0
C148 C 0.74014 0.18204 0.29601 0.0
C149 C 0.71212 0.18088 0.40131 0.0
C150 C 0.70637 0.21388 0.43326 0.0
Zn151 Zn 0.79179 0.29128 0.17816 0.0
O152 O 0.83461 0.34482 0.29594 0.0
C153 C 0.76063 0.35715 0.119 0.0
O154 O 0.79148 0.29701 0.35715 0.0
H155 H 0.78196 0.21588 0.14528 0.0
H156 H 0.83886 0.41886 0.08803 0.0
H157 H 0.72334 0.27203 0.38436 0.0
O158 O 0.79459 0.36995 0.08784 0.0
O159 O 0.7505 0.3232 0.16606 0.0
H160 H 0.91689 0.35502 0.96642 0.0
O161 O 0.79261 0.28596 -0.00648 0.0
O162 O 0.8393 0.33092 0.92813 0.0
O163 O 0.83229 0.25804 0.19397 0.0
O164 O 0.87783 0.30359 0.13529 0.0
C165 C 0.81628 0.30796 0.90395 0.0
H166 H 0.88608 0.46726 0.08328 0.0
H167 H 0.9664 0.40184 0.97313 0.0
H168 H 0.74561 0.15791 0.26376 0.0
H169 H 0.68493 0.21445 0.51205 0.0
C170 C 0.80667 0.81189 0.47944 0.0
N171 N 0.86009 0.74995 0.7133 0.0
C172 C 0.85039 0.72292 0.65776 0.0
C173 C 0.87134 0.69546 0.64665 0.0
C174 C 0.90278 0.69554 0.69313 0.0
C175 C 0.91258 0.72398 0.74871 0.0
C176 C 0.89065 0.75097 0.75843 0.0
Zn177 Zn 0.82565 0.78801 0.72663 0.0
C178 C 0.86828 0.86902 0.65654 0.0
N179 N 0.74973 0.86278 0.7464 0.0
C180 C 0.71631 0.85693 0.72071 0.0
C181 C 0.75802 0.88898 0.80675 0.0
C182 C 0.73209 0.90967 0.84711 0.0
C183 C 0.69699 0.90354 0.82571 0.0
C184 C 0.68942 0.87718 0.7595 0.0
Zn185 Zn 0.78631 0.82716 0.72508 0.0
O186 O 0.82542 0.79294 0.5394 0.0
C187 C 0.74415 0.7466 0.79228 0.0
O188 O 0.78658 0.83121 0.53378 0.0
H189 H 0.78436 0.8928 0.82888 0.0
H190 H 0.82623 0.72256 0.62137 0.0
H191 H 0.71003 0.83576 0.6738 0.0
O192 O 0.77737 0.7417 0.77973 0.0
O193 O 0.73894 0.77979 0.77749 0.0
H194 H 0.89795 0.77261 0.80227 0.0
O195 O 0.78672 0.8221 0.91503 0.0
O196 O 0.8254 0.78378 0.91529 0.0
O197 O 0.83498 0.87414 0.67063 0.0
O198 O 0.87325 0.83559 0.67276 0.0
C199 C 0.80574 0.80272 0.97239 0.0
H200 H 0.86326 0.67465 0.60041 0.0
H201 H 0.93675 0.7251 0.78537 0.0
H202 H 0.73913 0.92957 0.89812 0.0
H203 H 0.66299 0.87212 0.73851 0.0
C204 C 0.55014 0.56069 0.21096 0.0
N205 N 0.60994 0.50449 -0.01918 0.0
C206 C 0.63679 0.51242 0.03901 0.0
C207 C 0.66113 0.48841 0.05947 0.0
C208 C 0.65783 0.45569 0.02045 0.0
C209 C 0.63021 0.44829 0.95906 0.0
C210 C 0.60638 0.47321 0.94017 0.0
Zn211 Zn 0.57408 0.54057 0.96442 0.0
C212 C 0.49304 0.49938 0.03253 0.0
N213 N 0.50168 0.61851 0.9413 0.0
C214 C 0.50888 0.65231 0.96348 0.0
C215 C 0.47492 0.61048 0.88293 0.0
C216 C 0.45501 0.63702 0.8412 0.0
C217 C 0.4626 0.67245 0.85887 0.0
C218 C 0.48955 0.67984 0.92276 0.0
Zn219 Zn 0.5362 0.5809 0.96455 0.0
O220 O 0.569 0.54105 0.15442 0.0
C221 C 0.61727 0.62139 0.89883 0.0
O222 O 0.53167 0.58086 0.15321 0.0
H223 H 0.47007 0.58386 0.86328 0.0
H224 H 0.63907 0.53724 0.07158 0.0
H225 H 0.53043 0.65835 0.00901 0.0
O226 O 0.62147 0.58791 0.91169 0.0
O227 O 0.58436 0.62732 0.91306 0.0
H228 H 0.58489 0.46743 0.89404 0.0
O229 O 0.54137 0.58065 0.77716 0.0
O230 O 0.57833 0.54076 0.773 0.0
O231 O 0.48853 0.53292 0.01794 0.0
O232 O 0.52613 0.49378 0.01762 0.0
C233 C 0.5598 0.5615 0.71768 0.0
H234 H 0.68192 0.49507 0.10764 0.0
H235 H 0.62716 0.42362 0.92559 0.0
H236 H 0.43455 0.63016 0.79205 0.0
H237 H 0.49574 0.7066 0.9405 0.0
C238 C 1.03736 0.53565 0.35608 0.0
N239 N 0.97615 0.46815 0.70072 0.0
C240 C 0.94456 0.47871 0.68033 0.0
C241 C 0.93009 0.46754 0.58829 0.0
C242 C 0.94763 0.44396 0.52532 0.0
C243 C 0.97268 0.42533 0.57713 0.0
C244 C 0.98515 0.43684 0.6721 0.0
Zn245 Zn 1.0201 0.51075 0.63464 0.0
C246 C 0.09128 0.48666 0.56119 0.0
N247 N 0.10744 0.59908 0.48458 0.0
C248 C 0.10767 0.62412 0.37909 0.0
C249 C 0.13831 0.59513 0.52408 0.0
C250 C 0.17141 0.61574 0.45397 0.0
C251 C 0.17312 0.64049 0.34041 0.0
C252 C 0.14048 0.64506 0.30457 0.0
Zn253 Zn 0.06454 0.55863 0.56063 0.0
O254 O 1.01581 0.512 0.44633 0.0
C255 C 0.99575 0.5856 0.62244 0.0
O256 O 0.05944 0.55955 0.3788 0.0
H257 H 0.13745 0.57481 0.6074 0.0
H258 H 0.93415 0.50013 0.71895 0.0
H259 H 0.08261 0.6267 0.34945 0.0
O260 O 0.98409 0.55124 0.65314 0.0
O261 O 1.02963 0.59688 0.57705 0.0
H262 H 1.00688 0.42505 0.70463 0.0
O263 O 0.06896 0.55704 0.74902 0.0
O264 O 1.02549 0.50866 0.81693 0.0
O265 O 0.10109 0.52097 0.53862 0.0
O266 O 0.0579 0.47338 0.6102 0.0
C267 C 1.04824 0.53238 0.83907 0.0
H268 H 0.90827 0.48003 0.5583 0.0
H269 H 0.98552 0.40528 0.53638 0.0
H270 H 0.19531 0.61237 0.4903 0.0
H271 H 0.14037 0.66452 0.22015 0.0
C272 C 0.18728 0.1484 0.35346 0.0
C273 C 0.15027 0.15328 0.36635 0.0
C274 C 0.21695 0.17821 0.32975 0.0
C275 C 0.21191 0.21521 0.31724 0.0
H276 H 0.1936 0.12105 0.36204 0.0
H277 H 0.24432 0.17202 0.32095 0.0
S278 S 0.12088 0.24423 0.34184 0.0
N279 N 0.11114 0.1994 0.36362 0.0
N280 N 0.16563 0.25416 0.3201 0.0
C281 C 0.17503 0.22045 0.32985 0.0
C282 C 0.14487 0.19014 0.35391 0.0
C283 C 0.17249 0.89264 0.6158 0.0
C284 C 0.18411 0.92744 0.5341 0.0
C285 C 0.19761 0.86931 0.64028 0.0
C286 C 0.23518 0.87997 0.58347 0.0
H287 H 0.14395 0.88379 0.66334 0.0
H288 H 0.1876 0.84305 0.70572 0.0
S289 S 0.27827 0.96666 0.3491 0.0
N290 N 0.23478 0.97028 0.38912 0.0
N291 N 0.28179 0.92654 0.43163 0.0
C292 C 0.24668 0.91421 0.49746 0.0
C293 C 0.22121 0.93791 0.47373 0.0
C294 C 0.35695 0.93239 0.96991 0.0
C295 C 0.37707 0.90876 0.9135 0.0
C296 C 0.3591 0.93656 0.08802 0.0
C297 C 0.38645 0.92263 0.1408 0.0
H298 H 0.3415 0.94987 0.92152 0.0
H299 H 0.34634 0.9578 0.12155 0.0
S300 S 0.42275 0.84 0.08122 0.0
N301 N 0.4056 0.85471 0.96142 0.0
N302 N 0.41573 0.86895 0.17053 0.0
C303 C 0.39799 0.89185 0.10493 0.0
C304 C 0.39323 0.88473 -0.00957 0.0
C305 C 0.45059 0.12088 0.12622 0.0
C306 C 0.48828 0.13327 0.07508 0.0
C307 C 0.42668 0.14509 0.1532 0.0
C308 C 0.43927 0.18285 0.13085 0.0
H309 H 0.43925 0.09209 0.1461 0.0
H310 H 0.39801 0.134 0.19303 0.0
S311 S 0.53516 0.22987 -0.00432 0.0
N312 N 0.53697 0.18626 0.0022 0.0
N313 N 0.49188 0.23173 0.05189 0.0
C314 C 0.47684 0.19577 0.0797 0.0
C315 C 0.50131 0.17106 0.05186 0.0
C316 C 0.92482 0.96896 0.57629 0.0
C317 C 0.96207 0.96475 0.5601 0.0
C318 C 0.89533 0.93861 0.60651 0.0
C319 C 0.90073 0.90161 0.62288 0.0
H320 H 0.91815 0.99621 0.56545 0.0
H321 H 0.86778 0.94439 0.61727 0.0
S322 S 0.99251 0.87415 0.59186 0.0
N323 N 1.00183 0.91916 0.56399 0.0
N324 N 0.94765 0.86344 0.61953 0.0
C325 C 0.93784 0.89701 0.60698 0.0
C326 C 0.96784 0.92789 0.57625 0.0
C327 C 0.9472 0.23148 0.27373 0.0
C328 C 0.93444 0.19345 0.31312 0.0
C329 C 0.92557 0.25581 0.22578 0.0
C330 C 0.89029 0.24312 0.21459 0.0
H331 H 0.97401 0.24264 0.28161 0.0
H332 H 0.93636 0.28483 0.19973 0.0
S333 S 0.84521 0.14568 0.29484 0.0
N334 N 0.88507 0.14416 0.33039 0.0
N335 N 0.84443 0.1894 0.24166 0.0
C336 C 0.87758 0.20499 0.25109 0.0
C337 C 0.89956 0.18034 0.30011 0.0
C338 C 0.64924 0.15306 0.43914 0.0
C339 C 0.68391 0.14744 0.45499 0.0
C340 C 0.63681 0.14068 0.34488 0.0
C341 C 0.6574 0.11993 0.27505 0.0
H342 H 0.6362 0.1736 0.47618 0.0
H343 H 0.61258 0.1497 0.3221 0.0
S344 S 0.72648 0.06917 0.39129 0.0
N345 N 0.72051 0.09965 0.47523 0.0
N346 N 0.6988 0.07498 0.29682 0.0
C347 C 0.68272 0.1024 0.33188 0.0
C348 C 0.694 0.115 0.4304 0.0
C349 C 0.67959 0.96332 0.85228 0.0
C350 C 0.66923 0.92542 0.87094 0.0
C351 C 0.65509 0.98487 0.89701 0.0
C352 C 0.61881 0.96972 0.96285 0.0
H353 H 0.70697 0.97668 0.80137 0.0
H354 H 0.66486 1.01392 0.87756 0.0
S355 S 0.57788 0.87143 0.03908 0.0
N356 N 0.62028 0.87316 0.96199 0.0
N357 N 0.57382 0.91394 0.04485 0.0
C358 C 0.6079 0.93173 -0.0177 0.0
C359 C 0.6331 0.90959 0.93651 0.0
C360 C 0.64542 0.69002 0.85774 0.0
C361 C 0.65012 0.65296 0.87063 0.0
C362 C 0.67529 0.71952 0.8335 0.0
C363 C 0.71213 0.71418 0.82063 0.0
H364 H 0.61816 0.69652 0.86657 0.0
H365 H 0.66928 0.74699 0.82462 0.0
S366 S 0.74062 0.62285 0.84562 0.0
N367 N 0.69581 0.61334 0.86798 0.0
N368 N 0.75084 0.66766 0.8233 0.0
C369 C 0.71723 0.67724 0.83338 0.0
C370 C 0.68683 0.64722 0.85793 0.0
C371 C 0.74573 0.41901 0.04092 0.0
C372 C 0.73359 0.38148 0.09629 0.0
C373 C 0.72111 0.4426 0.01588 0.0
C374 C 0.6833 0.42969 0.04452 0.0
H375 H 0.77456 0.4304 0.01619 0.0
H376 H 0.73182 0.47121 0.97289 0.0
S377 S 0.63693 0.33427 0.19379 0.0
N378 N 0.68077 0.33271 0.18093 0.0
N379 N 0.63466 0.37725 0.13433 0.0
C380 C 0.67066 0.39234 0.10008 0.0
C381 C 0.69572 0.36824 0.12603 0.0
C382 C 0.94374 0.41001 0.36191 0.0
C383 C 0.94475 0.44317 0.39811 0.0
C384 C 0.94334 0.40877 0.24044 0.0
C385 C 0.94387 0.4407 0.14991 0.0
H386 H 0.94221 0.3846 0.42876 0.0
H387 H 0.93999 0.38205 0.22024 0.0
S388 S 0.94947 0.53492 0.1942 0.0
N389 N 0.94877 0.50932 0.3317 0.0
N390 N 0.94775 0.50654 0.10239 0.0
C391 C 0.94659 0.47427 0.18324 0.0
C392 C 0.94676 0.47559 0.3076 0.0
C393 C 0.96357 0.67671 0.62867 0.0
C394 C 0.92576 0.66674 0.67961 0.0
C395 C 0.98562 0.6503 0.60988 0.0
C396 C 0.97094 0.61264 0.64198 0.0
H397 H 0.97617 0.70528 0.60099 0.0
H398 H 1.01455 0.65969 0.56961 0.0
S399 S 0.87352 0.57206 0.78514 0.0
N400 N 0.87459 0.61655 0.76625 0.0
N401 N 0.91593 0.5669 0.73123 0.0
C402 C 0.93313 0.60227 0.6946 0.0
C403 C 0.91062 0.62926 0.71322 0.0
C404 C 0.43597 0.40004 0.10908 0.0
C405 C 0.39882 0.40455 0.12495 0.0
C406 C 0.46557 0.43015 0.08014 0.0
C407 C 0.46037 0.46717 0.06497 0.0
H408 H 0.44246 0.37273 0.11912 0.0
H409 H 0.49304 0.42416 0.06947 0.0
S410 S 0.36893 0.49535 0.09625 0.0
N411 N 0.35933 0.45038 0.12249 0.0
N412 N 0.41381 0.50575 0.06921 0.0
C413 C 0.42337 0.47209 0.08067 0.0
C414 C 0.39323 0.44143 0.11007 0.0
C415 C 0.4033 0.69165 0.83788 0.0
C416 C 0.44145 0.70073 0.81265 0.0
C417 C 0.38229 0.71637 0.79093 0.0
C418 C 0.39829 0.75148 0.71552 0.0
H419 H 0.3894 0.6651 0.89522 0.0
H420 H 0.353 0.70767 0.81588 0.0
S421 S 0.49743 0.78913 0.62321 0.0
N422 N 0.49478 0.74746 0.70835 0.0
N423 N 0.45503 0.7943 0.62027 0.0
C424 C 0.4365 0.76127 0.69081 0.0
C425 C 0.45809 0.73587 0.73932 0.0
C426 C 0.22875 0.72293 0.31949 0.0
C427 C 0.25075 0.70503 0.39048 0.0
C428 C 0.20678 0.70301 0.2628 0.0
C429 C 0.20783 0.66563 0.27461 0.0
H430 H 0.22397 0.75021 0.32432 0.0
H431 H 0.18442 0.71479 0.23417 0.0
S432 S 0.283 0.61879 0.34565 0.0
N433 N 0.28746 0.65594 0.39928 0.0
N434 N 0.24852 0.62122 0.2782 0.0
C435 C 0.24016 0.65399 0.2943 0.0
C436 C 0.26082 0.67266 0.36086 0.0
C437 C 0.17878 0.46112 0.39523 0.0
C438 C 0.16915 0.42369 0.40092 0.0
C439 C 0.15383 0.48064 0.45113 0.0
C440 C 0.11789 0.46376 0.51529 0.0
H441 H 0.20582 0.47574 0.34554 0.0
H442 H 0.16278 0.50953 0.44161 0.0
S443 S 0.07908 0.3658 0.56208 0.0
N444 N 0.12141 0.37 0.48069 0.0
N445 N 0.07419 0.40688 0.58307 0.0
C446 C 0.10789 0.4262 0.52297 0.0
C447 C 0.13349 0.4062 0.46624 0.0
C448 C 1.03492 0.08028 0.90156 0.0
C449 C 1.05364 0.058 0.83509 0.0
C450 C 1.03788 0.0808 0.02249 0.0
C451 C 0.05969 0.05909 0.08222 0.0
H452 H 1.01798 0.09765 0.85983 0.0
H453 H 1.02278 0.09841 0.06948 0.0
S454 S 0.11428 0.99565 0.94932 0.0
N455 N 0.09479 1.01335 0.83905 0.0
N456 N 0.10026 1.01454 0.06527 0.0
C457 C 0.07856 1.03666 0.01691 0.0
C458 C 0.07553 1.03604 0.8939 0.0
C459 C 0.31171 0.84535 0.19085 0.0
C460 C 0.32273 0.81566 0.2626 0.0
C461 C 0.30647 0.84493 0.07165 0.0
C462 C 0.31189 0.81473 0.02048 0.0
H463 H 0.30681 0.86894 0.22765 0.0
H464 H 0.29827 0.86842 0.01896 0.0
S465 S 0.34134 0.73049 0.16944 0.0
N466 N 0.33877 0.7553 0.27377 0.0
N467 N 0.32922 0.7546 0.05008 0.0
C468 C 0.3224 0.78471 0.09203 0.0
C469 C 0.3277 0.78513 0.21312 0.0
C470 C 0.58484 0.05995 0.56207 0.0
C471 C 0.55172 0.0538 0.65239 0.0
C472 C 0.5855 0.05513 0.44217 0.0
C473 C 0.55323 1.04515 0.40648 0.0
H474 H 0.61055 0.06754 0.58509 0.0
H475 H 0.61147 0.05839 0.37726 0.0
S476 S 0.45937 1.02466 0.60888 0.0
N477 N 0.48579 1.03553 0.69919 0.0
N478 N 0.48709 1.0281 0.4725 0.0
C479 C 0.51995 1.03832 0.49636 0.0
C480 C 0.51922 1.04246 0.61928 0.0
C481 C 0.32849 0.29258 0.78707 0.0
C482 C 0.30539 0.31305 0.8484 0.0
C483 C 0.32797 0.28924 0.66648 0.0
C484 C 0.30427 0.30614 0.60201 0.0
H485 H 0.34723 0.27888 0.83247 0.0
H486 H 0.34651 0.27349 0.62334 0.0
S487 S 0.23757 0.36226 0.72151 0.0
N488 N 0.2578 0.35013 0.83538 0.0
N489 N 0.2565 0.34379 0.61005 0.0
C490 C 0.28081 0.32653 0.66261 0.0
C491 C 0.28147 0.33002 0.78519 0.0
C492 C 0.84182 0.33468 0.67528 0.0
C493 C 0.81526 0.30983 0.77218 0.0
C494 C 0.8402 0.33906 0.55049 0.0
C495 C 0.81191 0.31882 0.51716 0.0
H496 H 0.86414 0.35111 0.69565 0.0
H497 H 0.86159 0.35809 0.47972 0.0
S498 S 0.73483 0.25082 0.7352 0.0
N499 N 0.75943 0.26514 0.82543 0.0
N500 N 0.75609 0.27339 0.59262 0.0
C501 C 0.78497 0.29407 0.61335 0.0
C502 C 0.78674 0.28953 0.74013 0.0
C503 C 0.78588 0.82936 0.28221 0.0
C504 C 0.80733 0.80965 0.34959 0.0
C505 C 0.78527 0.82658 0.16118 0.0
C506 C 0.80602 0.80391 0.10237 0.0
H507 H 0.7693 0.84704 0.32316 0.0
H508 H 0.76841 0.84253 0.11334 0.0
S509 S 0.86671 0.74622 0.23837 0.0
N510 N 0.84996 0.76644 0.34778 0.0
N511 N 0.84857 0.76125 0.12146 0.0
C512 C 0.82754 0.78397 0.16871 0.0
C513 C 0.82827 0.78684 0.29178 0.0
C514 C 0.57491 0.53871 0.52356 0.0
C515 C 0.55773 0.56239 0.58756 0.0
C516 C 0.5719 0.53811 0.40275 0.0
C517 C 0.55152 0.5611 0.34075 0.0
H518 H 0.59065 0.52027 0.56721 0.0
H519 H 0.58579 0.51939 0.35771 0.0
S520 S 0.50157 0.62874 0.46638 0.0
N521 N 0.51983 0.60994 0.57858 0.0
N522 N 0.51415 0.60856 0.35268 0.0
C523 C 0.53425 0.585 0.40352 0.0
C524 C 0.53739 0.58573 0.52636 0.0
C525 C 1.05073 0.56594 0.00629 0.0
C526 C 1.04796 0.53268 0.96977 0.0
C527 C 1.04672 0.56661 0.13177 0.0
C528 C 1.03962 0.53404 0.22534 0.0
H529 H 1.05505 0.59161 0.93783 0.0
H530 H 1.04875 0.59282 0.15598 0.0
S531 S 1.0367 0.44031 0.17564 0.0
N532 N 1.04164 0.46662 0.03561 0.0
N533 N 1.03493 0.468 0.27076 0.0
C534 C 1.03844 0.50073 0.1894 0.0
C535 C 1.04233 0.50002 0.06184 0.0
loop_
_geom_bond_atom_site_label_1
_geom_bond_atom_site_label_2
_geom_bond_distance
_geom_bond_site_symmetry_2
_ccdc_geom_bond_type
C0 O16 1.245 1_645 S
C0 O18 1.258 . S
N1 C2 1.333 . S
N1 C6 1.307 . S
N1 Zn7 2.020 . S
C2 N1 1.333 . S
C2 C3 1.379 . S
C2 H20 0.952 . S
C3 C2 1.379 . S
C3 C4 1.390 . S
C3 H30 0.949 . S
C4 C3 1.390 . S
C4 C5 1.357 . S
C5 C4 1.357 . S
C5 C6 1.370 . S
C5 H31 0.950 . S
C6 N1 1.307 . S
C6 C5 1.370 . S
C6 H24 0.948 . S
Zn7 N1 2.020 . S
Zn7 O16 2.039 . S
Zn7 O22 2.034 1_565 S
Zn7 O26 2.025 . S
Zn7 O28 2.024 1_455 S
C8 O27 1.246 . S
C8 O28 1.249 . S
N9 C10 1.307 . S
N9 C11 1.333 . S
N9 Zn15 2.020 . S
C10 N9 1.307 . S
C10 C14 1.370 . S
C10 H21 0.948 . S
C11 N9 1.333 . S
C11 C12 1.379 . S
C11 H19 0.952 . S
C12 C11 1.379 . S
C12 C13 1.390 . S
C12 H32 0.949 . S
C13 C12 1.390 . S
C13 C14 1.357 . S
C14 C10 1.370 . S
C14 C13 1.357 . S
C14 H33 0.950 . S
Zn15 N9 2.020 . S
Zn15 O18 2.025 . S
Zn15 O23 2.024 1_655 S
Zn15 O25 2.039 . S
Zn15 O27 2.034 1_545 S
O16 C0 1.245 1_465 S
O16 Zn7 2.039 . S
C17 O22 1.246 . S
C17 O23 1.249 . S
O18 C0 1.258 . S
O18 Zn15 2.025 . S
H19 C11 0.952 . S
H20 C2 0.952 . S
H21 C10 0.948 . S
O22 Zn7 2.034 1_545 S
O22 C17 1.246 . S
O23 Zn15 2.024 1_455 S
O23 C17 1.249 . S
H24 C6 0.948 . S
O25 Zn15 2.039 . S
O25 C29 1.251 1_645 S
O26 Zn7 2.025 . S
O26 C29 1.254 . S
O27 C8 1.246 . S
O27 Zn15 2.034 1_565 S
O28 Zn7 2.024 1_655 S
O28 C8 1.249 . S
C29 O25 1.251 1_465 S
C29 O26 1.254 . S
H30 C3 0.949 . S
H31 C5 0.950 . S
H32 C12 0.949 . S
H33 C14 0.950 . S
C34 O50 1.253 . S
C34 O52 1.258 . S
N35 C36 1.333 . S
N35 C40 1.307 . S
N35 Zn41 2.020 . S
C36 N35 1.333 . S
C36 C37 1.379 . S
C36 H54 0.952 . S
C37 C36 1.379 . S
C37 C38 1.390 . S
C37 H64 0.949 . S
C38 C37 1.390 . S
C38 C39 1.357 . S
C39 C38 1.357 . S
C39 C40 1.370 . S
C39 H65 0.950 . S
C40 N35 1.307 . S
C40 C39 1.370 . S
C40 H58 0.948 . S
Zn41 N35 2.020 . S
Zn41 O50 2.039 . S
Zn41 O56 2.034 . S
Zn41 O60 2.025 . S
Zn41 O62 2.024 . S
C42 O61 1.246 . S
C42 O62 1.249 . S
N43 C44 1.307 . S
N43 C45 1.333 . S
N43 Zn49 2.020 . S
C44 N43 1.307 . S
C44 C48 1.370 . S
C44 H55 0.948 . S
C45 N43 1.333 . S
C45 C46 1.379 . S
C45 H53 0.952 . S
C46 C45 1.379 . S
C46 C47 1.390 . S
C46 H66 0.949 . S
C47 C46 1.390 . S
C47 C48 1.357 . S
C48 C44 1.370 . S
C48 C47 1.357 . S
C48 H67 0.950 . S
Zn49 N43 2.020 . S
Zn49 O52 2.025 . S
Zn49 O57 2.024 . S
Zn49 O59 2.039 . S
Zn49 O61 2.034 . S
O50 C34 1.253 . S
O50 Zn41 2.039 . S
C51 O56 1.246 . S
C51 O57 1.249 . S
O52 C34 1.258 . S
O52 Zn49 2.025 . S
H53 C45 0.952 . S
H54 C36 0.952 . S
H55 C44 0.948 . S
O56 Zn41 2.034 . S
O56 C51 1.246 . S
O57 Zn49 2.024 . S
O57 C51 1.249 . S
H58 C40 0.948 . S
O59 Zn49 2.039 . S
O59 C63 1.251 . S
O60 Zn41 2.025 . S
O60 C63 1.254 . S
O61 C42 1.246 . S
O61 Zn49 2.034 . S
O62 Zn41 2.024 . S
O62 C42 1.249 . S
C63 O59 1.251 . S
C63 O60 1.254 . S
H64 C37 0.949 . S
H65 C39 0.950 . S
H66 C46 0.949 . S
H67 C48 0.950 . S
C68 O84 1.251 1_545 S
C68 O86 1.254 . S
N69 C70 1.333 1_554 S
N69 C74 1.307 . S
N69 Zn75 2.020 . S
C70 N69 1.333 1_556 S
C70 C71 1.379 . S
C70 H88 0.952 . S
C71 C70 1.379 . S
C71 C72 1.390 1_556 S
C71 H98 0.949 . S
C72 C71 1.390 1_554 S
C72 C73 1.357 . S
C73 C72 1.357 . S
C73 C74 1.370 . S
C73 H99 0.950 . S
C74 N69 1.307 . S
C74 C73 1.370 . S
C74 H92 0.948 . S
Zn75 N69 2.020 . S
Zn75 O84 2.039 1_554 S
Zn75 O90 2.034 1_565 S
Zn75 O94 2.025 . S
Zn75 O96 2.024 1_554 S
C76 O95 1.246 . S
C76 O96 1.249 . S
N77 C78 1.307 . S
N77 C79 1.333 1_556 S
N77 Zn83 2.020 . S
C78 N77 1.307 . S
C78 C82 1.370 . S
C78 H89 0.948 . S
C79 N77 1.333 1_554 S
C79 C80 1.379 . S
C79 H87 0.952 . S
C80 C79 1.379 . S
C80 C81 1.390 1_554 S
C80 H100 0.949 . S
C81 C80 1.390 1_556 S
C81 C82 1.357 . S
C82 C78 1.370 . S
C82 C81 1.357 . S
C82 H101 0.950 . S
Zn83 N77 2.020 . S
Zn83 O86 2.025 . S
Zn83 O91 2.024 1_556 S
Zn83 O93 2.039 1_556 S
Zn83 O95 2.034 1_545 S
O84 C68 1.251 1_565 S
O84 Zn75 2.039 1_556 S
C85 O90 1.246 . S
C85 O91 1.249 . S
O86 C68 1.254 . S
O86 Zn83 2.025 . S
H87 C79 0.952 . S
H88 C70 0.952 . S
H89 C78 0.948 . S
O90 Zn75 2.034 1_545 S
O90 C85 1.246 . S
O91 Zn83 2.024 1_554 S
O91 C85 1.249 . S
H92 C74 0.948 . S
O93 Zn83 2.039 1_554 S
O93 C97 1.251 1_545 S
O94 Zn75 2.025 . S
O94 C97 1.254 . S
O95 C76 1.246 . S
O95 Zn83 2.034 1_565 S
O96 Zn75 2.024 1_556 S
O96 C76 1.249 . S
C97 O93 1.251 1_565 S
C97 O94 1.254 . S
H98 C71 0.949 . S
H99 C73 0.950 . S
H100 C80 0.949 . S
H101 C82 0.950 . S
C102 O118 1.251 . S
C102 O120 1.254 . S
N103 C104 1.333 . S
N103 C108 1.307 . S
N103 Zn109 2.020 . S
C104 N103 1.333 . S
C104 C105 1.379 . S
C104 H122 0.952 . S
C105 C104 1.379 . S
C105 C106 1.390 . S
C105 H132 0.949 . S
C106 C105 1.390 . S
C106 C107 1.357 . S
C107 C106 1.357 . S
C107 C108 1.370 . S
C107 H133 0.950 . S
C108 N103 1.307 . S
C108 C107 1.370 . S
C108 H126 0.948 . S
Zn109 N103 2.020 . S
Zn109 O118 2.039 . S
Zn109 O124 2.034 . S
Zn109 O128 2.025 . S
Zn109 O130 2.024 . S
C110 O129 1.246 . S
C110 O130 1.249 . S
N111 C112 1.307 . S
N111 C113 1.333 . S
N111 Zn117 2.020 . S
C112 N111 1.307 . S
C112 C116 1.370 . S
C112 H123 0.948 . S
C113 N111 1.333 . S
C113 C114 1.379 . S
C113 H121 0.952 . S
C114 C113 1.379 . S
C114 C115 1.390 . S
C114 H134 0.949 . S
C115 C114 1.390 . S
C115 C116 1.357 . S
C116 C112 1.370 . S
C116 C115 1.357 . S
C116 H135 0.950 . S
Zn117 N111 2.020 . S
Zn117 O120 2.025 . S
Zn117 O125 2.024 . S
Zn117 O127 2.039 . S
Zn117 O129 2.034 . S
O118 C102 1.251 . S
O118 Zn109 2.039 . S
C119 O124 1.246 . S
C119 O125 1.249 . S
O120 C102 1.254 . S
O120 Zn117 2.025 . S
H121 C113 0.952 . S
H122 C104 0.952 . S
H123 C112 0.948 . S
O124 Zn109 2.034 . S
O124 C119 1.246 . S
O125 Zn117 2.024 . S
O125 C119 1.249 . S
H126 C108 0.948 . S
O127 Zn117 2.039 . S
O127 C131 1.251 . S
O128 Zn109 2.025 . S
O128 C131 1.254 . S
O129 C110 1.246 . S
O129 Zn117 2.034 . S
O130 Zn109 2.024 . S
O130 C110 1.249 . S
C131 O127 1.251 . S
C131 O128 1.254 . S
H132 C105 0.949 . S
H133 C107 0.950 . S
H134 C114 0.949 . S
H135 C116 0.950 . S
C136 O152 1.251 . S
C136 O154 1.254 . S
N137 C138 1.333 . S
N137 C142 1.307 . S
N137 Zn143 2.020 . S
C138 N137 1.333 . S
C138 C139 1.379 . S
C138 H156 0.952 . S
C139 C138 1.379 . S
C139 C140 1.390 . S
C139 H166 0.949 . S
C140 C139 1.390 . S
C140 C141 1.357 . S
C141 C140 1.357 . S
C141 C142 1.370 . S
C141 H167 0.950 . S
C142 N137 1.307 . S
C142 C141 1.370 . S
C142 H160 0.948 . S
Zn143 N137 2.020 . S
Zn143 O152 2.039 . S
Zn143 O158 2.034 . S
Zn143 O162 2.025 . S
Zn143 O164 2.024 . S
C144 O163 1.246 . S
C144 O164 1.249 . S
N145 C146 1.307 . S
N145 C147 1.333 . S
N145 Zn151 2.020 . S
C146 N145 1.307 . S
C146 C150 1.370 . S
C146 H157 0.948 . S
C147 N145 1.333 . S
C147 C148 1.379 . S
C147 H155 0.952 . S
C148 C147 1.379 . S
C148 C149 1.390 . S
C148 H168 0.949 . S
C149 C148 1.390 . S
C149 C150 1.357 . S
C150 C146 1.370 . S
C150 C149 1.357 . S
C150 H169 0.950 . S
Zn151 N145 2.020 . S
Zn151 O154 2.025 . S
Zn151 O159 2.024 . S
Zn151 O161 2.039 . S
Zn151 O163 2.034 . S
O152 C136 1.251 . S
O152 Zn143 2.039 . S
C153 O158 1.246 . S
C153 O159 1.249 . S
O154 C136 1.254 . S
O154 Zn151 2.025 . S
H155 C147 0.952 . S
H156 C138 0.952 . S
H157 C146 0.948 . S
O158 Zn143 2.034 . S
O158 C153 1.246 . S
O159 Zn151 2.024 . S
O159 C153 1.249 . S
H160 C142 0.948 . S
O161 Zn151 2.039 . S
O161 C165 1.253 . S
O162 Zn143 2.025 . S
O162 C165 1.258 . S
O163 C144 1.246 . S
O163 Zn151 2.034 . S
O164 Zn143 2.024 . S
O164 C144 1.249 . S
C165 O161 1.253 . S
C165 O162 1.258 . S
H166 C139 0.949 . S
H167 C141 0.950 . S
H168 C148 0.949 . S
H169 C150 0.950 . S
C170 O186 1.251 . S
C170 O188 1.254 . S
N171 C172 1.333 . S
N171 C176 1.307 . S
N171 Zn177 2.020 . S
C172 N171 1.333 . S
C172 C173 1.379 . S
C172 H190 0.952 . S
C173 C172 1.379 . S
C173 C174 1.390 . S
C173 H200 0.949 . S
C174 C173 1.390 . S
C174 C175 1.357 . S
C175 C174 1.357 . S
C175 C176 1.370 . S
C175 H201 0.950 . S
C176 N171 1.307 . S
C176 C175 1.370 . S
C176 H194 0.948 . S
Zn177 N171 2.020 . S
Zn177 O186 2.039 . S
Zn177 O192 2.034 . S
Zn177 O196 2.025 . S
Zn177 O198 2.024 . S
C178 O197 1.246 . S
C178 O198 1.249 . S
N179 C180 1.307 . S
N179 C181 1.333 . S
N179 Zn185 2.020 . S
C180 N179 1.307 . S
C180 C184 1.370 . S
C180 H191 0.948 . S
C181 N179 1.333 . S
C181 C182 1.379 . S
C181 H189 0.952 . S
C182 C181 1.379 . S
C182 C183 1.390 . S
C182 H202 0.949 . S
C183 C182 1.390 . S
C183 C184 1.357 . S
C184 C180 1.370 . S
C184 C183 1.357 . S
C184 H203 0.950 . S
Zn185 N179 2.020 . S
Zn185 O188 2.025 . S
Zn185 O193 2.024 . S
Zn185 O195 2.039 . S
Zn185 O197 2.034 . S
O186 C170 1.251 . S
O186 Zn177 2.039 . S
C187 O192 1.246 . S
C187 O193 1.249 . S
O188 C170 1.254 . S
O188 Zn185 2.025 . S
H189 C181 0.952 . S
H190 C172 0.952 . S
H191 C180 0.948 . S
O192 Zn177 2.034 . S
O192 C187 1.246 . S
O193 Zn185 2.024 . S
O193 C187 1.249 . S
H194 C176 0.948 . S
O195 Zn185 2.039 . S
O195 C199 1.251 . S
O196 Zn177 2.025 . S
O196 C199 1.254 . S
O197 C178 1.246 . S
O197 Zn185 2.034 . S
O198 Zn177 2.024 . S
O198 C178 1.249 . S
C199 O195 1.251 . S
C199 O196 1.254 . S
H200 C173 0.949 . S
H201 C175 0.950 . S
H202 C182 0.949 . S
H203 C184 0.950 . S
C204 O220 1.251 . S
C204 O222 1.254 . S
N205 C206 1.333 . S
N205 C210 1.307 1_554 S
N205 Zn211 2.020 . S
C206 N205 1.333 . S
C206 C207 1.379 . S
C206 H224 0.952 . S
C207 C206 1.379 . S
C207 C208 1.390 . S
C207 H234 0.949 . S
C208 C207 1.390 . S
C208 C209 1.357 1_554 S
C209 C208 1.357 1_556 S
C209 C210 1.370 . S
C209 H235 0.950 . S
C210 N205 1.307 1_556 S
C210 C209 1.370 . S
C210 H228 0.948 . S
Zn211 N205 2.020 . S
Zn211 O220 2.039 . S
Zn211 O226 2.034 1_554 S
Zn211 O230 2.025 1_554 S
Zn211 O232 2.024 . S
C212 O231 1.246 . S
C212 O232 1.249 . S
N213 C214 1.307 1_556 S
N213 C215 1.333 . S
N213 Zn219 2.020 . S
C214 N213 1.307 1_554 S
C214 C218 1.370 . S
C214 H225 0.948 . S
C215 N213 1.333 . S
C215 C216 1.379 . S
C215 H223 0.952 . S
C216 C215 1.379 . S
C216 C217 1.390 . S
C216 H236 0.949 . S
C217 C216 1.390 . S
C217 C218 1.357 1_556 S
C218 C214 1.370 . S
C218 C217 1.357 1_554 S
C218 H237 0.950 . S
Zn219 N213 2.020 . S
Zn219 O222 2.025 1_556 S
Zn219 O227 2.024 . S
Zn219 O229 2.039 . S
Zn219 O231 2.034 1_556 S
O220 C204 1.251 . S
O220 Zn211 2.039 . S
C221 O226 1.246 . S
C221 O227 1.249 . S
O222 C204 1.254 . S
O222 Zn219 2.025 1_554 S
H223 C215 0.952 . S
H224 C206 0.952 . S
H225 C214 0.948 . S
O226 Zn211 2.034 1_556 S
O226 C221 1.246 . S
O227 Zn219 2.024 . S
O227 C221 1.249 . S
H228 C210 0.948 . S
O229 Zn219 2.039 . S
O229 C233 1.251 . S
O230 Zn211 2.025 1_556 S
O230 C233 1.254 . S
O231 C212 1.246 . S
O231 Zn219 2.034 1_554 S
O232 Zn211 2.024 . S
O232 C212 1.249 . S
C233 O229 1.251 . S
C233 O230 1.254 . S
H234 C207 0.949 . S
H235 C209 0.950 . S
H236 C216 0.949 . S
H237 C218 0.950 . S
C238 O254 1.251 1_455 S
C238 O256 1.254 . S
N239 C240 1.333 . S
N239 C244 1.307 . S
N239 Zn245 2.020 . S
C240 N239 1.333 . S
C240 C241 1.379 . S
C240 H258 0.952 . S
C241 C240 1.379 . S
C241 C242 1.390 . S
C241 H268 0.949 . S
C242 C241 1.390 . S
C242 C243 1.357 . S
C243 C242 1.357 . S
C243 C244 1.370 . S
C243 H269 0.950 . S
C244 N239 1.307 . S
C244 C243 1.370 . S
C244 H262 0.948 . S
Zn245 N239 2.020 . S
Zn245 O254 2.039 . S
Zn245 O260 2.034 . S
Zn245 O264 2.025 . S
Zn245 O266 2.024 1_655 S
C246 O265 1.246 . S
C246 O266 1.249 . S
N247 C248 1.307 . S
N247 C249 1.333 . S
N247 Zn253 2.020 . S
C248 N247 1.307 . S
C248 C252 1.370 . S
C248 H259 0.948 . S
C249 N247 1.333 . S
C249 C250 1.379 . S
C249 H257 0.952 . S
C250 C249 1.379 . S
C250 C251 1.390 . S
C250 H270 0.949 . S
C251 C250 1.390 . S
C251 C252 1.357 . S
C252 C248 1.370 . S
C252 C251 1.357 . S
C252 H271 0.950 . S
Zn253 N247 2.020 . S
Zn253 O256 2.025 . S
Zn253 O261 2.024 1_455 S
Zn253 O263 2.039 . S
Zn253 O265 2.034 . S
O254 C238 1.251 1_655 S
O254 Zn245 2.039 . S
C255 O260 1.246 . S
C255 O261 1.249 . S
O256 C238 1.254 . S
O256 Zn253 2.025 . S
H257 C249 0.952 . S
H258 C240 0.952 . S
H259 C248 0.948 . S
O260 Zn245 2.034 . S
O260 C255 1.246 . S
O261 Zn253 2.024 1_655 S
O261 C255 1.249 . S
H262 C244 0.948 . S
O263 Zn253 2.039 . S
O263 C267 1.251 1_455 S
O264 Zn245 2.025 . S
O264 C267 1.254 . S
O265 C246 1.246 . S
O265 Zn253 2.034 . S
O266 Zn245 2.024 1_455 S
O266 C246 1.249 . S
C267 O263 1.251 1_655 S
C267 O264 1.254 . S
H268 C241 0.949 . S
H269 C243 0.950 . S
H270 C250 0.949 . S
H271 C252 0.950 . S
C272 C273 1.369 . S
C272 C274 1.419 . S
C272 H276 0.930 . S
C273 C272 1.369 . S
C273 C282 1.429 . S
C274 C272 1.419 . S
C274 C275 1.363 . S
C274 H277 0.929 . S
C275 C274 1.363 . S
C275 C281 1.428 . S
H276 C272 0.930 . S
H277 C274 0.929 . S
S278 N279 1.613 . S
S278 N280 1.610 . S
N279 S278 1.613 . S
N279 C282 1.350 . S
N280 S278 1.610 . S
N280 C281 1.351 . S
C281 C275 1.428 . S
C281 N280 1.351 . S
C281 C282 1.434 . S
C282 C273 1.429 . S
C282 N279 1.350 . S
C282 C281 1.434 . S
C283 C284 1.369 . S
C283 C285 1.419 . S
C283 H287 0.930 . S
C284 C283 1.369 . S
C284 C293 1.429 . S
C285 C283 1.419 . S
C285 C286 1.363 . S
C285 H288 0.929 . S
C286 C285 1.363 . S
C286 C292 1.428 . S
H287 C283 0.930 . S
H288 C285 0.929 . S
S289 N290 1.613 . S
S289 N291 1.610 . S
N290 S289 1.613 . S
N290 C293 1.350 . S
N291 S289 1.610 . S
N291 C292 1.351 . S
C292 C286 1.428 . S
C292 N291 1.351 . S
C292 C293 1.434 . S
C293 C284 1.429 . S
C293 N290 1.350 . S
C293 C292 1.434 . S
C294 C295 1.369 . S
C294 C296 1.419 . S
C294 H298 0.930 . S
C295 C294 1.369 . S
C295 C304 1.429 . S
C296 C294 1.419 . S
C296 C297 1.363 . S
C296 H299 0.929 . S
C297 C296 1.363 . S
C297 C303 1.428 . S
H298 C294 0.930 . S
H299 C296 0.929 . S
S300 N301 1.613 1_554 S
S300 N302 1.610 . S
N301 S300 1.613 1_556 S
N301 C304 1.350 . S
N302 S300 1.610 . S
N302 C303 1.351 1_554 S
C303 C297 1.428 . S
C303 N302 1.351 1_556 S
C303 C304 1.434 . S
C304 C295 1.429 . S
C304 N301 1.350 . S
C304 C303 1.434 . S
C305 C306 1.369 . S
C305 C307 1.419 . S
C305 H309 0.930 . S
C306 C305 1.369 . S
C306 C315 1.429 . S
C307 C305 1.419 . S
C307 C308 1.363 . S
C307 H310 0.929 . S
C308 C307 1.363 . S
C308 C314 1.428 . S
H309 C305 0.930 . S
H310 C307 0.929 . S
S311 N312 1.613 . S
S311 N313 1.610 . S
N312 S311 1.613 . S
N312 C315 1.350 . S
N313 S311 1.610 . S
N313 C314 1.351 . S
C314 C308 1.428 . S
C314 N313 1.351 . S
C314 C315 1.434 . S
C315 C306 1.429 . S
C315 N312 1.350 . S
C315 C314 1.434 . S
C316 C317 1.369 . S
C316 C318 1.419 . S
C316 H320 0.930 . S
C317 C316 1.369 . S
C317 C326 1.429 . S
C318 C316 1.419 . S
C318 C319 1.363 . S
C318 H321 0.929 . S
C319 C318 1.363 . S
C319 C325 1.428 . S
H320 C316 0.930 . S
H321 C318 0.929 . S
S322 N323 1.613 . S
S322 N324 1.610 . S
N323 S322 1.613 . S
N323 C326 1.350 . S
N324 S322 1.610 . S
N324 C325 1.351 . S
C325 C319 1.428 . S
C325 N324 1.351 . S
C325 C326 1.434 . S
C326 C317 1.429 . S
C326 N323 1.350 . S
C326 C325 1.434 . S
C327 C328 1.369 . S
C327 C329 1.419 . S
C327 H331 0.930 . S
C328 C327 1.369 . S
C328 C337 1.429 . S
C329 C327 1.419 . S
C329 C330 1.363 . S
C329 H332 0.929 . S
C330 C329 1.363 . S
C330 C336 1.428 . S
H331 C327 0.930 . S
H332 C329 0.929 . S
S333 N334 1.613 . S
S333 N335 1.610 . S
N334 S333 1.613 . S
N334 C337 1.350 . S
N335 S333 1.610 . S
N335 C336 1.351 . S
C336 C330 1.428 . S
C336 N335 1.351 . S
C336 C337 1.434 . S
C337 C328 1.429 . S
C337 N334 1.350 . S
C337 C336 1.434 . S
C338 C339 1.369 . S
C338 C340 1.419 . S
C338 H342 0.930 . S
C339 C338 1.369 . S
C339 C348 1.429 . S
C340 C338 1.419 . S
C340 C341 1.363 . S
C340 H343 0.929 . S
C341 C340 1.363 . S
C341 C347 1.428 . S
H342 C338 0.930 . S
H343 C340 0.929 . S
S344 N345 1.613 1_556 S
S344 N346 1.610 . S
N345 S344 1.613 1_554 S
N345 C348 1.350 . S
N346 S344 1.610 . S
N346 C347 1.351 1_556 S
C347 C341 1.428 . S
C347 N346 1.351 1_554 S
C347 C348 1.434 . S
C348 C339 1.429 . S
C348 N345 1.350 . S
C348 C347 1.434 . S
C349 C350 1.369 . S
C349 C351 1.419 . S
C349 H353 0.930 . S
C350 C349 1.369 . S
C350 C359 1.429 . S
C351 C349 1.419 . S
C351 C352 1.363 . S
C351 H354 0.929 . S
C352 C351 1.363 . S
C352 C358 1.428 1_556 S
H353 C349 0.930 . S
H354 C351 0.929 . S
S355 N356 1.613 . S
S355 N357 1.610 . S
N356 S355 1.613 . S
N356 C359 1.350 1_554 S
N357 S355 1.610 . S
N357 C358 1.351 . S
C358 C352 1.428 1_554 S
C358 N357 1.351 . S
C358 C359 1.434 1_554 S
C359 C350 1.429 . S
C359 N356 1.350 1_556 S
C359 C358 1.434 1_556 S
C360 C361 1.369 . S
C360 C362 1.419 . S
C360 H364 0.930 1_556 S
C361 C360 1.369 . S
C361 C370 1.429 . S
C362 C360 1.419 . S
C362 C363 1.363 . S
C362 H365 0.929 1_556 S
C363 C362 1.363 . S
C363 C369 1.428 . S
H364 C360 0.930 1_554 S
H365 C362 0.929 1_554 S
S366 N367 1.613 . S
S366 N368 1.610 . S
N367 S366 1.613 . S
N367 C370 1.350 . S
N368 S366 1.610 . S
N368 C369 1.351 . S
C369 C363 1.428 . S
C369 N368 1.351 . S
C369 C370 1.434 . S
C370 C361 1.429 . S
C370 N367 1.350 . S
C370 C369 1.434 . S
C371 C372 1.369 . S
C371 C373 1.419 . S
C371 H375 0.930 . S
C372 C371 1.369 . S
C372 C381 1.429 . S
C373 C371 1.419 . S
C373 C374 1.363 . S
C373 H376 0.929 . S
C374 C373 1.363 . S
C374 C380 1.428 . S
H375 C371 0.930 . S
H376 C373 0.929 . S
S377 N378 1.613 . S
S377 N379 1.610 . S
N378 S377 1.613 . S
N378 C381 1.350 . S
N379 S377 1.610 . S
N379 C380 1.351 . S
C380 C374 1.428 . S
C380 N379 1.351 . S
C380 C381 1.434 . S
C381 C372 1.429 . S
C381 N378 1.350 . S
C381 C380 1.434 . S
C382 C383 1.369 . S
C382 C384 1.419 . S
C382 H386 0.930 . S
C383 C382 1.369 . S
C383 C392 1.429 . S
C384 C382 1.419 . S
C384 C385 1.363 . S
C384 H387 0.929 . S
C385 C384 1.363 . S
C385 C391 1.428 . S
H386 C382 0.930 . S
H387 C384 0.929 . S
S388 N389 1.613 . S
S388 N390 1.610 . S
N389 S388 1.613 . S
N389 C392 1.350 . S
N390 S388 1.610 . S
N390 C391 1.351 . S
C391 C385 1.428 . S
C391 N390 1.351 . S
C391 C392 1.434 . S
C392 C383 1.429 . S
C392 N389 1.350 . S
C392 C391 1.434 . S
C393 C394 1.369 . S
C393 C395 1.419 . S
C393 H397 0.930 . S
C394 C393 1.369 . S
C394 C403 1.429 . S
C395 C393 1.419 . S
C395 C396 1.363 . S
C395 H398 0.929 . S
C396 C395 1.363 . S
C396 C402 1.428 . S
H397 C393 0.930 . S
H398 C395 0.929 . S
S399 N400 1.613 . S
S399 N401 1.610 . S
N400 S399 1.613 . S
N400 C403 1.350 . S
N401 S399 1.610 . S
N401 C402 1.351 . S
C402 C396 1.428 . S
C402 N401 1.351 . S
C402 C403 1.434 . S
C403 C394 1.429 . S
C403 N400 1.350 . S
C403 C402 1.434 . S
C404 C405 1.369 . S
C404 C406 1.419 . S
C404 H408 0.930 1_554 S
C405 C404 1.369 . S
C405 C414 1.429 . S
C406 C404 1.419 . S
C406 C407 1.363 . S
C406 H409 0.929 1_554 S
C407 C406 1.363 . S
C407 C413 1.428 . S
H408 C404 0.930 1_556 S
H409 C406 0.929 1_556 S
S410 N411 1.613 . S
S410 N412 1.610 . S
N411 S410 1.613 . S
N411 C414 1.350 . S
N412 S410 1.610 . S
N412 C413 1.351 . S
C413 C407 1.428 . S
C413 N412 1.351 . S
C413 C414 1.434 . S
C414 C405 1.429 . S
C414 N411 1.350 . S
C414 C413 1.434 . S
C415 C416 1.369 . S
C415 C417 1.419 . S
C415 H419 0.930 . S
C416 C415 1.369 . S
C416 C425 1.429 . S
C417 C415 1.419 . S
C417 C418 1.363 . S
C417 H420 0.929 . S
C418 C417 1.363 . S
C418 C424 1.428 . S
H419 C415 0.930 . S
H420 C417 0.929 . S
S421 N422 1.613 . S
S421 N423 1.610 1_554 S
N422 S421 1.613 . S
N422 C425 1.350 1_554 S
N423 S421 1.610 1_556 S
N423 C424 1.351 . S
C424 C418 1.428 . S
C424 N423 1.351 . S
C424 C425 1.434 . S
C425 C416 1.429 . S
C425 N422 1.350 1_556 S
C425 C424 1.434 . S
C426 C427 1.369 . S
C426 C428 1.419 . S
C426 H430 0.930 . S
C427 C426 1.369 . S
C427 C436 1.429 . S
C428 C426 1.419 . S
C428 C429 1.363 . S
C428 H431 0.929 . S
C429 C428 1.363 . S
C429 C435 1.428 . S
H430 C426 0.930 . S
H431 C428 0.929 . S
S432 N433 1.613 . S
S432 N434 1.610 . S
N433 S432 1.613 . S
N433 C436 1.350 . S
N434 S432 1.610 . S
N434 C435 1.351 . S
C435 C429 1.428 . S
C435 N434 1.351 . S
C435 C436 1.434 . S
C436 C427 1.429 . S
C436 N433 1.350 . S
C436 C435 1.434 . S
C437 C438 1.369 . S
C437 C439 1.419 . S
C437 H441 0.930 . S
C438 C437 1.369 . S
C438 C447 1.429 . S
C439 C437 1.419 . S
C439 C440 1.363 . S
C439 H442 0.929 . S
C440 C439 1.363 . S
C440 C446 1.428 . S
H441 C437 0.930 . S
H442 C439 0.929 . S
S443 N444 1.613 . S
S443 N445 1.610 . S
N444 S443 1.613 . S
N444 C447 1.350 . S
N445 S443 1.610 . S
N445 C446 1.351 . S
C446 C440 1.428 . S
C446 N445 1.351 . S
C446 C447 1.434 . S
C447 C438 1.429 . S
C447 N444 1.350 . S
C447 C446 1.434 . S
C448 C449 1.367 1_545 S
C448 C450 1.419 1_556 S
C448 H452 0.930 . S
C449 C448 1.367 1_565 S
C449 C458 1.429 1_655 S
C450 C448 1.419 1_554 S
C450 C451 1.363 1_655 S
C450 H453 0.929 . S
C451 C450 1.363 1_455 S
C451 C457 1.427 1_545 S
H452 C448 0.930 . S
H453 C450 0.929 . S
S454 N455 1.613 . S
S454 N456 1.610 1_556 S
N455 S454 1.613 . S
N455 C458 1.350 . S
N456 S454 1.610 1_554 S
N456 C457 1.351 . S
C457 C451 1.427 1_565 S
C457 N456 1.351 . S
C457 C458 1.434 1_554 S
C458 C449 1.429 1_455 S
C458 N455 1.350 . S
C458 C457 1.434 1_556 S
C459 C460 1.369 . S
C459 C461 1.419 . S
C459 H463 0.930 . S
C460 C459 1.369 . S
C460 C469 1.429 . S
C461 C459 1.419 . S
C461 C462 1.363 . S
C461 H464 0.929 . S
C462 C461 1.363 . S
C462 C468 1.428 . S
H463 C459 0.930 . S
H464 C461 0.929 . S
S465 N466 1.613 . S
S465 N467 1.610 . S
N466 S465 1.613 . S
N466 C469 1.350 . S
N467 S465 1.610 . S
N467 C468 1.351 . S
C468 C462 1.428 . S
C468 N467 1.351 . S
C468 C469 1.434 . S
C469 C460 1.429 . S
C469 N466 1.350 . S
C469 C468 1.434 . S
C470 C471 1.369 . S
C470 C472 1.419 1_545 S
C470 H474 0.930 . S
C471 C470 1.369 . S
C471 C480 1.429 . S
C472 C470 1.419 1_565 S
C472 C473 1.363 . S
C472 H475 0.929 . S
C473 C472 1.363 . S
C473 C479 1.428 . S
H474 C470 0.930 . S
H475 C472 0.929 . S
S476 N477 1.613 . S
S476 N478 1.610 1_545 S
N477 S476 1.613 . S
N477 C480 1.350 . S
N478 S476 1.610 1_565 S
N478 C479 1.351 . S
C479 C473 1.428 . S
C479 N478 1.351 . S
C479 C480 1.434 1_565 S
C480 C471 1.429 . S
C480 N477 1.350 . S
C480 C479 1.434 1_545 S
C481 C482 1.369 . S
C481 C483 1.419 . S
C481 H485 0.930 . S
C482 C481 1.369 . S
C482 C491 1.429 . S
C483 C481 1.419 . S
C483 C484 1.363 . S
C483 H486 0.929 . S
C484 C483 1.363 . S
C484 C490 1.428 . S
H485 C481 0.930 . S
H486 C483 0.929 . S
S487 N488 1.613 . S
S487 N489 1.610 . S
N488 S487 1.613 . S
N488 C491 1.350 . S
N489 S487 1.610 . S
N489 C490 1.351 . S
C490 C484 1.428 . S
C490 N489 1.351 . S
C490 C491 1.434 . S
C491 C482 1.429 . S
C491 N488 1.350 . S
C491 C490 1.434 . S
C492 C493 1.369 . S
C492 C494 1.419 . S
C492 H496 0.930 . S
C493 C492 1.369 . S
C493 C502 1.429 . S
C494 C492 1.419 . S
C494 C495 1.363 . S
C494 H497 0.929 . S
C495 C494 1.363 . S
C495 C501 1.428 . S
H496 C492 0.930 . S
H497 C494 0.929 . S
S498 N499 1.613 . S
S498 N500 1.610 . S
N499 S498 1.613 . S
N499 C502 1.350 . S
N500 S498 1.610 . S
N500 C501 1.351 . S
C501 C495 1.428 . S
C501 N500 1.351 . S
C501 C502 1.434 . S
C502 C493 1.429 . S
C502 N499 1.350 . S
C502 C501 1.434 . S
C503 C504 1.369 . S
C503 C505 1.419 . S
C503 H507 0.930 . S
C504 C503 1.369 . S
C504 C513 1.429 . S
C505 C503 1.419 . S
C505 C506 1.363 . S
C505 H508 0.929 . S
C506 C505 1.363 . S
C506 C512 1.428 . S
H507 C503 0.930 . S
H508 C505 0.929 . S
S509 N510 1.613 . S
S509 N511 1.610 . S
N510 S509 1.613 . S
N510 C513 1.350 . S
N511 S509 1.610 . S
N511 C512 1.351 . S
C512 C506 1.428 . S
C512 N511 1.351 . S
C512 C513 1.434 . S
C513 C504 1.429 . S
C513 N510 1.350 . S
C513 C512 1.434 . S
C514 C515 1.369 . S
C514 C516 1.419 . S
C514 H518 0.930 . S
C515 C514 1.369 . S
C515 C524 1.429 . S
C516 C514 1.419 . S
C516 C517 1.363 . S
C516 H519 0.929 . S
C517 C516 1.363 . S
C517 C523 1.428 . S
H518 C514 0.930 . S
H519 C516 0.929 . S
S520 N521 1.613 . S
S520 N522 1.610 . S
N521 S520 1.613 . S
N521 C524 1.350 . S
N522 S520 1.610 . S
N522 C523 1.351 . S
C523 C517 1.428 . S
C523 N522 1.351 . S
C523 C524 1.434 . S
C524 C515 1.429 . S
C524 N521 1.350 . S
C524 C523 1.434 . S
C525 C526 1.369 . S
C525 C527 1.419 1_556 S
C525 H529 0.930 . S
C526 C525 1.369 . S
C526 C535 1.429 1_655 S
C527 C525 1.419 1_554 S
C527 C528 1.363 1_655 S
C527 H530 0.929 . S
C528 C527 1.363 1_455 S
C528 C534 1.428 . S
H529 C525 0.930 . S
H530 C527 0.929 . S
S531 N532 1.613 1_554 S
S531 N533 1.610 . S
N532 S531 1.613 1_556 S
N532 C535 1.350 . S
N533 S531 1.610 . S
N533 C534 1.351 . S
C534 C528 1.428 . S
C534 N533 1.351 . S
C534 C535 1.434 1_554 S
C535 C526 1.429 1_455 S
C535 N532 1.350 . S
C535 C534 1.434 1_556 S
C273 C17 3.293 . S
C275 C119 3.291 . S
C284 C4 1.525 . S
C286 C51 1.524 . S
C295 C38 0.736 . S
C297 C72 0.760 1_556 S
C306 C85 1.523 . S
C308 C106 1.525 . S
C317 C8 3.291 . S
C319 C178 3.293 . S
C328 C13 1.524 . S
C330 C144 1.524 . S
C339 C149 0.736 . S
C341 C81 0.759 1_554 S
C350 C183 1.524 . S
C352 C76 1.524 . S
C361 C221 3.293 . S
C363 C187 3.292 . S
C372 C153 1.523 . S
C374 C208 1.525 . S
C383 C242 0.738 . S
C385 C140 0.759 . S
C394 C174 1.525 . S
C396 C255 1.524 . S
C405 C110 3.292 . S
C407 C212 3.293 . S
C416 C217 1.525 . S
C418 C42 1.523 . S
C427 C47 0.742 . S
C429 C251 0.755 . S
C438 C115 1.525 . S
C440 C246 1.523 . S
C449 C0 1.267 1_565 S
C451 C29 1.269 1_545 S
C460 C63 1.325 . S
C462 C34 1.322 1_554 S
C471 C68 1.323 . S
C473 C97 1.329 . S
C482 C102 1.269 1_556 S
C484 C131 1.265 . S
C493 C165 1.316 1_556 S
C495 C136 1.329 . S
C504 C170 1.265 . S
C506 C199 1.268 1_554 S
C515 C233 1.265 . S
C517 C204 1.267 . S
C526 C267 1.329 . S
C528 C238 1.325 . S
