# Generated by pormake.
# Topology ukg, (4)-cn, num edge types: 1
# Building blocks:
#     Node 0, Type 0, BuildingBlock: ICAMEG_clean_sbu_1, # of connection points: 4
#     Node 1, Type 0, BuildingBlock: ICAMEG_clean_sbu_1, # of connection points: 4
#     Node 2, Type 0, BuildingBlock: ICAMEG_clean_sbu_1, # of connection points: 4
#     Node 3, Type 0, BuildingBlock: ICAMEG_clean_sbu_1, # of connection points: 4
#     Node 4, Type 0, BuildingBlock: ICAMEG_clean_sbu_1, # of connection points: 4
#     Node 5, Type 0, BuildingBlock: ICAMEG_clean_sbu_1, # of connection points: 4
#     Node 6, Type 0, BuildingBlock: ICAMEG_clean_sbu_1, # of connection points: 4
#     Node 7, Type 0, BuildingBlock: ICAMEG_clean_sbu_1, # of connection points: 4
#     Edge 8, Type (0, 0), BuildingBlock: EZIPEK_clean_linker_0, # of connection points: 2
#     Edge 9, Type (0, 0), BuildingBlock: EZIPEK_clean_linker_0, # of connection points: 2
#     Edge 10, Type (0, 0), BuildingBlock: EZIPEK_clean_linker_0, # of connection points: 2
#     Edge 11, Type (0, 0), BuildingBlock: EZIPEK_clean_linker_0, # of connection points: 2
#     Edge 12, Type (0, 0), BuildingBlock: EZIPEK_clean_linker_0, # of connection points: 2
#     Edge 13, Type (0, 0), BuildingBlock: EZIPEK_clean_linker_0, # of connection points: 2
#     Edge 14, Type (0, 0), BuildingBlock: EZIPEK_clean_linker_0, # of connection points: 2
#     Edge 15, Type (0, 0), BuildingBlock: EZIPEK_clean_linker_0, # of connection points: 2
#     Edge 16, Type (0, 0), BuildingBlock: EZIPEK_clean_linker_0, # of connection points: 2
#     Edge 17, Type (0, 0), BuildingBlock: EZIPEK_clean_linker_0, # of connection points: 2
#     Edge 18, Type (0, 0), BuildingBlock: EZIPEK_clean_linker_0, # of connection points: 2
#     Edge 19, Type (0, 0), BuildingBlock: EZIPEK_clean_linker_0, # of connection points: 2
#     Edge 20, Type (0, 0), BuildingBlock: EZIPEK_clean_linker_0, # of connection points: 2
#     Edge 21, Type (0, 0), BuildingBlock: EZIPEK_clean_linker_0, # of connection points: 2
#     Edge 22, Type (0, 0), BuildingBlock: EZIPEK_clean_linker_0, # of connection points: 2
#     Edge 23, Type (0, 0), BuildingBlock: EZIPEK_clean_linker_0, # of connection points: 2
# Relax obj value: 0.015
# Max RMSD: 0.100
# Mean RMSD: 0.100
data_MOF--net-ukg--node1-ICAMEG_clean_sbu_1--edge1-EZIPEK_clean_linker_0
_symmetry_space_group_name_H-M    P1
_symmetry_Int_Tables_number       1
_symmetry_cell_setting            triclinic
loop_
_symmetry_equiv_pos_as_xyz
'x, y, z'
_cell_length_a     24.664092
_cell_length_b     24.68068
_cell_length_c     29.946115
_cell_angle_alpha  90.280211
_cell_angle_beta   90.050289
_cell_angle_gamma 89.956199
loop_
_atom_site_label
_atom_site_type_symbol
_atom_site_fract_x
_atom_site_fract_y
_atom_site_fract_z
_atom_type_partial_charge
Co0 Co 0.05062 0.63275 0.21903 0.0
Co1 Co 0.96673 0.67355 0.13218 0.0
O2 O 0.03476 0.64584 0.15626 0.0
C3 C 0.13455 0.7098 0.18936 0.0
O4 O 0.09544 0.73735 0.17053 0.0
C5 C 0.98354 0.56939 0.08296 0.0
O6 O 0.99483 0.54604 0.12111 0.0
O7 O 0.92358 0.62091 0.16858 0.0
O8 O 0.97692 0.60049 0.22757 0.0
H9 H 0.77037 0.72945 0.13444 0.0
H10 H 0.12706 0.59204 0.15007 0.0
O11 O 0.12439 0.66609 0.21021 0.0
H12 H 0.06742 0.43028 0.23213 0.0
H13 H 0.17776 0.59052 0.346 0.0
H14 H 0.9873 0.62202 0.30494 0.0
H15 H 0.03327 0.52084 0.25279 0.0
H16 H 0.1527 0.60627 0.26783 0.0
O17 O 0.97193 0.61961 0.08159 0.0
H18 H 0.8599 0.71327 0.16765 0.0
H19 H 0.92905 0.69249 0.03921 0.0
H20 H 0.01067 0.60679 0.38328 0.0
H21 H 0.16332 0.50245 0.12872 0.0
H22 H 0.10665 0.59102 0.40462 0.0
H23 H 0.13313 0.42063 0.16976 0.0
O24 O 0.02088 0.70554 0.23665 0.0
H25 H 0.11941 0.73085 0.03196 0.0
H26 H 0.95766 0.79184 0.11494 0.0
H27 H 0.0112 0.85833 0.07234 0.0
H28 H 0.09274 0.82791 0.03049 0.0
H29 H 0.0648 0.66584 0.07509 0.0
H30 H 0.84048 0.70974 1.00426 0.0
H31 H 0.75979 0.72536 0.05191 0.0
O32 O 0.96113 0.72853 0.18249 0.0
C33 C 0.93226 0.59766 0.20605 0.0
C34 C 0.80506 0.72158 0.11326 0.0
C35 C 0.84437 0.71045 0.04026 0.0
N36 N 0.89948 0.6997 0.10587 0.0
C37 C 0.85594 0.71195 0.1321 0.0
C38 C 0.89448 0.70064 0.06035 0.0
C39 C 0.79919 0.71976 0.06702 0.0
C40 C 0.11458 0.55685 0.16846 0.0
N41 N 0.0786 0.56187 0.20281 0.0
C42 C 0.1349 0.50612 0.15609 0.0
C43 C 0.11787 0.46023 0.17907 0.0
C44 C 0.081 0.46561 0.21404 0.0
C45 C 0.06173 0.51704 0.22554 0.0
C46 C 0.13592 0.59855 0.3373 0.0
C47 C 0.02925 0.61732 0.31352 0.0
C48 C 0.12142 0.60832 0.29296 0.0
N49 N 0.06869 0.61879 0.28148 0.0
C50 C 0.04224 0.60772 0.3582 0.0
C51 C 0.09603 0.59868 0.37014 0.0
C52 C 0.98485 0.73709 0.22009 0.0
C53 C 0.08388 0.74458 0.04995 0.0
C54 C 0.99304 0.77834 0.09671 0.0
C55 C 0.02318 0.81614 0.07265 0.0
C56 C 0.06893 0.79904 0.04919 0.0
N57 N 0.00805 0.72506 0.09739 0.0
C58 C 0.05271 0.70792 0.07432 0.0
Co59 Co 0.34806 0.54532 0.72377 0.0
Co60 Co 0.32379 0.4778 0.62385 0.0
O61 O 0.3499 0.54005 0.6585 0.0
C62 C 0.28324 0.6385 0.694 0.0
O63 O 0.25961 0.60511 0.66594 0.0
C64 C 0.43505 0.49713 0.58706 0.0
O65 O 0.45357 0.50797 0.6272 0.0
O66 O 0.36707 0.42683 0.66207 0.0
O67 O 0.37552 0.46939 0.72879 0.0
H68 H 0.24757 0.29072 0.6012 0.0
H69 H 0.40662 0.6274 0.67039 0.0
O70 O 0.32072 0.62192 0.71979 0.0
H71 H 0.54406 0.54901 0.77075 0.0
H72 H 0.37411 0.63958 0.87177 0.0
H73 H 0.31376 0.47197 0.79648 0.0
H74 H 0.44906 0.51811 0.7737 0.0
H75 H 0.37774 0.63144 0.78967 0.0
O76 O 0.38566 0.48463 0.58095 0.0
H77 H 0.28213 0.36796 0.645 0.0
H78 H 0.31304 0.45544 0.52618 0.0
H79 H 0.30981 0.47821 0.87866 0.0
H80 H 0.50107 0.65972 0.66636 0.0
H81 H 0.34013 0.56251 0.91682 0.0
H82 H 0.5706 0.62033 0.71677 0.0
O83 O 0.27162 0.51858 0.72615 0.0
H84 H 0.29752 0.64805 0.53518 0.0
H85 H 0.20919 0.48231 0.59001 0.0
H86 H 0.15611 0.54773 0.54618 0.0
H87 H 0.20031 0.63138 0.51831 0.0
H88 H 0.34886 0.58168 0.57955 0.0
H89 H 0.27999 0.37869 0.48086 0.0
H90 H 0.24612 0.29584 0.51833 0.0
O91 O 0.25995 0.4687 0.66448 0.0
C92 C 0.38227 0.42859 0.70303 0.0
C93 C 0.26221 0.32653 0.58441 0.0
C94 C 0.28019 0.376 0.51692 0.0
N95 N 0.29869 0.41656 0.58843 0.0
C96 C 0.28171 0.37048 0.60915 0.0
C97 C 0.29895 0.41933 0.54282 0.0
C98 C 0.26135 0.32947 0.53797 0.0
C99 C 0.43652 0.61047 0.69266 0.0
N100 N 0.42229 0.57115 0.72235 0.0
C101 C 0.48999 0.62878 0.69014 0.0
C102 C 0.52899 0.6066 0.71839 0.0
C103 C 0.51413 0.5666 0.74869 0.0
C104 C 0.46028 0.54926 0.7502 0.0
C105 C 0.36089 0.6026 0.85552 0.0
C106 C 0.32738 0.50864 0.81288 0.0
C107 C 0.36275 0.59781 0.80905 0.0
N108 N 0.34638 0.55112 0.78836 0.0
C109 C 0.32489 0.512 0.8594 0.0
C110 C 0.34184 0.55933 0.88079 0.0
C111 C 0.24272 0.48768 0.70149 0.0
C112 C 0.27781 0.61169 0.54702 0.0
C113 C 0.22864 0.5186 0.57839 0.0
C114 C 0.19843 0.55549 0.55334 0.0
C115 C 0.22326 0.60237 0.53766 0.0
N116 N 0.28212 0.52796 0.58748 0.0
C117 C 0.30675 0.5738 0.57204 0.0
Co118 Co 0.45511 0.84118 0.22509 0.0
Co119 Co 0.53311 0.832 0.1304 0.0
O120 O 0.4639 0.8466 0.16018 0.0
C121 C 0.35236 0.79697 0.18345 0.0
O122 O 0.37279 0.80368 0.14355 0.0
C123 C 0.49482 0.93464 0.08757 0.0
O124 O 0.49024 0.95604 0.12762 0.0
O125 O 0.56857 0.88784 0.16869 0.0
O126 O 0.5302 0.87035 0.23517 0.0
H127 H 0.73621 0.82671 0.1223 0.0
H128 H 0.37567 0.90435 0.17068 0.0
O129 O 0.37925 0.8105 0.21823 0.0
H130 H 0.44393 0.03189 0.28458 0.0
H131 H 0.35481 0.85488 0.37127 0.0
H132 H 0.52599 0.80192 0.29808 0.0
H133 H 0.4771 0.93778 0.28207 0.0
H134 H 0.36608 0.86507 0.28993 0.0
O135 O 0.51512 0.88749 0.08381 0.0
H136 H 0.64782 0.82506 0.16032 0.0
H137 H 0.56689 0.81468 0.03553 0.0
H138 H 0.51661 0.79139 0.37954 0.0
H139 H 0.34023 0.99755 0.17285 0.0
H140 H 0.43051 0.81797 0.41668 0.0
H141 H 0.37462 0.06226 0.22991 0.0
O142 O 0.48411 0.76636 0.22325 0.0
H143 H 0.38743 0.75941 0.02879 0.0
H144 H 0.55803 0.71665 0.10683 0.0
H145 H 0.51273 0.64584 0.0623 0.0
H146 H 0.42673 0.66698 0.02281 0.0
H147 H 0.43369 0.82881 0.07428 0.0
H148 H 0.65434 0.81506 0.99609 0.0
H149 H 0.73981 0.82316 0.03943 0.0
O150 O 0.55269 0.77443 0.17516 0.0
C151 C 0.56738 0.89125 0.2112 0.0
C152 C 0.69922 0.82356 0.10299 0.0
C153 C 0.65329 0.81713 0.03219 0.0
N154 N 0.60197 0.82034 0.10031 0.0
C155 C 0.64898 0.82258 0.1244 0.0
C156 C 0.60379 0.81673 0.05476 0.0
C157 C 0.70122 0.82154 0.05653 0.0
C158 C 0.39008 0.93169 0.1962 0.0
N159 N 0.42741 0.91494 0.22689 0.0
C160 C 0.37014 0.98469 0.19705 0.0
C161 C 0.3895 0.02101 0.22903 0.0
C162 C 0.42833 0.00399 0.25972 0.0
C163 C 0.44697 0.95057 0.2581 0.0
C164 C 0.39255 0.84324 0.35549 0.0
C165 C 0.48851 0.81389 0.31401 0.0
C166 C 0.39911 0.84879 0.30941 0.0
N167 N 0.44676 0.83446 0.28929 0.0
C168 C 0.48339 0.80769 0.36015 0.0
C169 C 0.43505 0.82255 0.38095 0.0
C170 C 0.52694 0.74782 0.20485 0.0
C171 C 0.42481 0.74963 0.04593 0.0
C172 C 0.52033 0.72611 0.09032 0.0
C173 C 0.49501 0.68587 0.06485 0.0
C174 C 0.44683 0.69778 0.04263 0.0
N175 N 0.49823 0.77679 0.09378 0.0
C176 C 0.45129 0.78883 0.0717 0.0
Co177 Co 0.13771 0.95548 0.71637 0.0
Co178 Co 0.18398 0.02843 0.62449 0.0
O179 O 0.15047 0.96493 0.65231 0.0
C180 C 0.19038 0.85255 0.68242 0.0
O181 O 0.1876 0.87107 0.64168 0.0
C182 C 0.07932 0.01191 0.57739 0.0
O183 O 0.05763 0.01285 0.61736 0.0
O184 O 0.13462 0.07873 0.65883 0.0
O185 O 0.10827 0.03143 0.71958 0.0
H186 H 0.29321 0.20139 0.61989 0.0
H187 H 0.0899 0.87475 0.65136 0.0
O188 O 0.17 0.87954 0.71497 0.0
H189 H 0.93581 0.94644 0.73763 0.0
H190 H 0.0802 0.85392 0.85404 0.0
H191 H 0.15136 0.02627 0.7962 0.0
H192 H 0.02835 0.97951 0.75207 0.0
H193 H 0.09544 0.86611 0.77341 0.0
O194 O 0.12957 0.02299 0.57413 0.0
H195 H 0.24597 0.12658 0.65634 0.0
H196 H 0.20016 0.06231 0.52983 0.0
H197 H 0.13614 0.01636 0.87698 0.0
H198 H 0.99877 0.83898 0.63723 0.0
H199 H 0.1004 0.92955 0.90649 0.0
H200 H 0.92055 0.87506 0.68024 0.0
O201 O 0.21109 0.98282 0.73158 0.0
H202 H 0.23045 0.86891 0.52617 0.0
H203 H 0.30384 0.02335 0.61185 0.0
H204 H 0.36642 0.96245 0.57185 0.0
H205 H 0.32986 0.88463 0.52844 0.0
H206 H 0.16934 0.92997 0.56768 0.0
H207 H 0.24575 0.13766 0.49222 0.0
H208 H 0.29351 0.20763 0.53717 0.0
O209 O 0.23813 0.03394 0.67389 0.0
C210 C 0.10972 0.07493 0.69636 0.0
C211 C 0.27187 0.1716 0.5999 0.0
C212 C 0.24521 0.13587 0.52833 0.0
N213 N 0.2178 0.09063 0.59562 0.0
C214 C 0.24459 0.1289 0.62042 0.0
C215 C 0.21857 0.09356 0.55 0.0
C216 C 0.27204 0.17508 0.55353 0.0
C217 C 0.05684 0.89001 0.671 0.0
N218 N 0.06517 0.92864 0.70311 0.0
C219 C 0.00494 0.86973 0.66261 0.0
C220 C 0.96105 0.89009 0.68665 0.0
C221 C 0.96957 0.93015 0.71878 0.0
C222 C 0.02213 0.94893 0.72663 0.0
C223 C 0.09602 0.89187 0.84164 0.0
C224 C 0.13586 0.98847 0.80865 0.0
C225 C 0.10512 0.89882 0.796 0.0
N226 N 0.1248 0.94668 0.77998 0.0
C227 C 0.1273 0.98304 0.8545 0.0
C228 C 0.10727 0.93433 0.87104 0.0
C229 C 0.24472 0.01421 0.71266 0.0
C230 C 0.24689 0.90282 0.54481 0.0
C231 C 0.28745 0.9894 0.59337 0.0
C232 C 0.32318 0.95516 0.57059 0.0
C233 C 0.30265 0.91158 0.54617 0.0
N234 N 0.23275 0.98043 0.59209 0.0
C235 C 0.2124 0.93788 0.56807 0.0
Co236 Co 0.94969 0.34511 0.78738 0.0
Co237 Co 0.03162 0.33538 0.87974 0.0
O238 O 0.96123 0.34857 0.85184 0.0
C239 C 0.86324 0.27649 0.82439 0.0
O240 O 0.90008 0.25412 0.84993 0.0
C241 C 0.99585 0.43997 0.9209 0.0
O242 O 0.98115 0.45724 0.88134 0.0
O243 O 0.06625 0.39038 0.84036 0.0
O244 O 0.02294 0.3763 0.77536 0.0
H245 H 0.23488 0.33516 0.8858 0.0
H246 H 0.86911 0.40097 0.84477 0.0
O247 O 0.87572 0.31412 0.79747 0.0
H248 H 0.93189 0.5394 0.73874 0.0
H249 H 0.83918 0.3631 0.64675 0.0
H250 H 0.0159 0.30977 0.70986 0.0
H251 H 0.96747 0.44611 0.73491 0.0
H252 H 0.85588 0.36952 0.72785 0.0
O253 O 0.01586 0.39284 0.92572 0.0
H254 H 0.14612 0.3299 0.84835 0.0
H255 H 0.06678 0.32378 0.97406 0.0
H256 H 0.00117 0.30312 0.6286 0.0
H257 H 0.8318 0.49352 0.84951 0.0
H258 H 0.91223 0.32993 0.59651 0.0
H259 H 0.86341 0.5636 0.79627 0.0
O260 O 0.9812 0.27067 0.78536 0.0
H261 H 0.88714 0.26538 0.98255 0.0
H262 H 0.05825 0.22173 0.90519 0.0
H263 H 0.0142 0.15226 0.95167 0.0
H264 H 0.92809 0.17399 0.99085 0.0
H265 H 0.93219 0.33339 0.93527 0.0
H266 H 0.15458 0.32934 0.01278 0.0
H267 H 0.23901 0.33812 0.96877 0.0
O268 O 0.04949 0.27602 0.83488 0.0
C269 C 0.06187 0.39612 0.79822 0.0
C270 C 0.1982 0.33168 0.90539 0.0
C271 C 0.15314 0.32843 0.97666 0.0
N272 N 0.10119 0.32514 0.90883 0.0
C273 C 0.1478 0.32786 0.88432 0.0
C274 C 0.10354 0.32464 0.95446 0.0
C275 C 0.20059 0.33304 0.95187 0.0
C276 C 0.88234 0.43095 0.82112 0.0
N277 N 0.91995 0.41793 0.7894 0.0
C278 C 0.86138 0.48342 0.82411 0.0
C279 C 0.87923 0.52274 0.79431 0.0
C280 C 0.91768 0.5092 0.76204 0.0
C281 C 0.93776 0.45631 0.76011 0.0
C282 C 0.87816 0.35147 0.66031 0.0
C283 C 0.9773 0.32195 0.69614 0.0
C284 C 0.88784 0.35496 0.7062 0.0
N285 N 0.93708 0.34067 0.72351 0.0
C286 C 0.9691 0.31789 0.6501 0.0
C287 C 0.91917 0.33286 0.63214 0.0
C288 C 0.02446 0.25176 0.80295 0.0
C289 C 0.92473 0.25548 0.96576 0.0
C290 C 0.02062 0.23136 0.92193 0.0
C291 C 0.99597 0.19194 0.94833 0.0
C292 C 0.94768 0.20418 0.97033 0.0
N293 N 0.99785 0.28158 0.91762 0.0
C294 C 0.95055 0.2939 0.93912 0.0
Co295 Co 0.64919 0.44948 0.28844 0.0
Co296 Co 0.6729 0.52496 0.38467 0.0
O297 O 0.64829 0.45902 0.35375 0.0
C298 C 0.69806 0.34795 0.32601 0.0
O299 O 0.69705 0.36916 0.36613 0.0
C300 C 0.56357 0.507 0.42521 0.0
O301 O 0.54324 0.49708 0.38551 0.0
O302 O 0.62566 0.57119 0.34559 0.0
O303 O 0.62217 0.52474 0.28064 0.0
H304 H 0.73593 0.71816 0.39492 0.0
H305 H 0.59046 0.37045 0.34545 0.0
O306 O 0.67838 0.37351 0.29289 0.0
H307 H 0.45223 0.44616 0.24447 0.0
H308 H 0.61829 0.34933 0.14363 0.0
H309 H 0.68406 0.51858 0.21307 0.0
H310 H 0.54747 0.47561 0.23933 0.0
H311 H 0.61617 0.36127 0.22544 0.0
O312 O 0.61346 0.51836 0.42989 0.0
H313 H 0.70422 0.63585 0.35658 0.0
H314 H 0.68939 0.55465 0.48052 0.0
H315 H 0.68653 0.50853 0.13111 0.0
H316 H 0.4959 0.33937 0.35139 0.0
H317 H 0.65352 0.42338 0.09588 0.0
H318 H 0.42592 0.37736 0.3007 0.0
O319 O 0.72529 0.47537 0.28471 0.0
H320 H 0.71133 0.37 0.4886 0.0
H321 H 0.79056 0.52577 0.40984 0.0
H322 H 0.84922 0.46811 0.4561 0.0
H323 H 0.80967 0.38959 0.49607 0.0
H324 H 0.65434 0.42783 0.44092 0.0
H325 H 0.71991 0.63662 0.52054 0.0
H326 H 0.74427 0.71891 0.4777 0.0
O327 O 0.73434 0.53356 0.34154 0.0
C328 C 0.6129 0.56666 0.30431 0.0
C329 C 0.72567 0.68259 0.41408 0.0
C330 C 0.71689 0.63669 0.48448 0.0
N331 N 0.69642 0.58992 0.41599 0.0
C332 C 0.70789 0.63568 0.39242 0.0
C333 C 0.69972 0.59035 0.46159 0.0
C334 C 0.73034 0.68295 0.46044 0.0
C335 C 0.56055 0.38657 0.32282 0.0
N336 N 0.5748 0.4241 0.2916 0.0
C337 C 0.50692 0.36905 0.32652 0.0
C338 C 0.46766 0.39047 0.29814 0.0
C339 C 0.48239 0.42906 0.26659 0.0
C340 C 0.53642 0.44558 0.26385 0.0
C341 C 0.63272 0.38665 0.15859 0.0
C342 C 0.66931 0.48153 0.19797 0.0
C343 C 0.63174 0.39358 0.2049 0.0
N344 N 0.64969 0.44068 0.224 0.0
C345 C 0.67094 0.47602 0.15155 0.0
C346 C 0.65247 0.42822 0.13181 0.0
C347 C 0.75281 0.51005 0.3067 0.0
C348 C 0.72905 0.40411 0.47136 0.0
C349 C 0.77305 0.49133 0.42644 0.0
C350 C 0.80646 0.45899 0.45295 0.0
C351 C 0.78424 0.41504 0.47546 0.0
N352 N 0.71899 0.48014 0.42223 0.0
C353 C 0.69688 0.43733 0.44455 0.0
Co354 Co 0.54342 0.14357 0.78956 0.0
Co355 Co 0.46601 0.17889 0.8813 0.0
O356 O 0.5321 0.15176 0.85377 0.0
C357 C 0.64278 0.19709 0.82849 0.0
O358 O 0.61841 0.20058 0.86726 0.0
C359 C 0.47469 0.07445 0.93199 0.0
O360 O 0.46568 0.04838 0.8944 0.0
O361 O 0.42269 0.12465 0.84786 0.0
O362 O 0.4679 0.11277 0.78299 0.0
H363 H 0.32678 0.31528 0.93551 0.0
H364 H 0.61804 0.09375 0.85658 0.0
O365 O 0.61898 0.17547 0.79483 0.0
H366 H 0.56393 0.94454 0.7562 0.0
H367 H 0.651 0.10108 0.65065 0.0
H368 H 0.47466 0.16221 0.70984 0.0
H369 H 0.52801 0.03666 0.74501 0.0
H370 H 0.63633 0.10936 0.73182 0.0
O371 O 0.47735 0.12603 0.93201 0.0
H372 H 0.40905 0.28744 0.89621 0.0
H373 H 0.37494 0.12232 0.92353 0.0
H374 H 0.4873 0.15381 0.62845 0.0
H375 H 0.65583 0.00267 0.86834 0.0
H376 H 0.57603 0.1231 0.59834 0.0
H377 H 0.62867 0.92709 0.81809 0.0
O378 O 0.51524 0.21749 0.77794 0.0
H379 H 0.59861 0.24369 1.00014 0.0
H380 H 0.49234 0.29985 0.86959 0.0
H381 H 0.5491 0.36535 0.9073 0.0
H382 H 0.60283 0.33851 0.97358 0.0
H383 H 0.54298 0.17801 0.96157 0.0
H384 H 0.29152 0.14842 0.96254 0.0
H385 H 0.26743 0.24515 0.97002 0.0
O386 O 0.45129 0.23029 0.83036 0.0
C387 C 0.42608 0.10673 0.80796 0.0
C388 C 0.33745 0.27282 0.9336 0.0
C389 C 0.31766 0.17927 0.94869 0.0
N390 N 0.39944 0.20333 0.9099 0.0
C391 C 0.38492 0.25675 0.91182 0.0
C392 C 0.36539 0.16481 0.92678 0.0
C393 C 0.30404 0.2337 0.95261 0.0
C394 C 0.60637 0.06146 0.8342 0.0
N395 N 0.57141 0.07097 0.79971 0.0
C396 C 0.6279 0.00979 0.84109 0.0
C397 C 0.61259 0.9674 0.81294 0.0
C398 C 0.57631 0.97716 0.77823 0.0
C399 C 0.5561 0.02946 0.77207 0.0
C400 C 0.61213 0.11446 0.66336 0.0
C401 C 0.51324 0.14841 0.69705 0.0
C402 C 0.60368 0.11946 0.70931 0.0
N403 N 0.55458 0.13593 0.72563 0.0
C404 C 0.52023 0.14393 0.6509 0.0
C405 C 0.57004 0.12677 0.63403 0.0
C406 C 0.47499 0.24325 0.79393 0.0
C407 C 0.5745 0.25622 0.97178 0.0
C408 C 0.51425 0.28599 0.89828 0.0
C409 C 0.54693 0.3243 0.91973 0.0
C410 C 0.57709 0.3093 0.95682 0.0
N411 N 0.51025 0.23369 0.9135 0.0
C412 C 0.54133 0.2189 0.9496 0.0
Co413 Co 0.86014 0.04352 0.28179 0.0
Co414 Co 0.82758 0.98191 0.38221 0.0
O415 O 0.85679 0.04143 0.3469 0.0
C416 C 0.79241 0.13504 0.30906 0.0
O417 O 0.76915 0.10056 0.3359 0.0
C418 C 0.93599 0.00781 0.42189 0.0
O419 O 0.95601 0.00404 0.3814 0.0
O420 O 0.87548 0.929 0.3491 0.0
O421 O 0.88929 0.96683 0.28116 0.0
H422 H 0.71956 0.81164 0.4132 0.0
H423 H 0.91515 0.12454 0.33976 0.0
O424 O 0.83082 0.1198 0.28342 0.0
H425 H 0.05613 0.05923 0.23634 0.0
H426 H 0.89047 0.13232 0.13272 0.0
H427 H 0.83643 0.96457 0.20957 0.0
H428 H 0.96322 0.02285 0.23239 0.0
H429 H 0.88848 0.1285 0.21502 0.0
O430 O 0.88641 0.99536 0.42777 0.0
H431 H 0.7598 0.88084 0.36586 0.0
H432 H 0.82533 0.95977 0.48026 0.0
H433 H 0.83863 0.96638 0.12726 0.0
H434 H 0.00716 0.16288 0.34454 0.0
H435 H 0.86576 0.05074 0.0883 0.0
H436 H 0.07864 0.1299 0.29271 0.0
O437 O 0.78482 0.01583 0.27533 0.0
H438 H 0.78724 0.15716 0.46186 0.0
H439 H 0.71019 0.98513 0.40661 0.0
H440 H 0.65086 0.05109 0.44466 0.0
H441 H 0.68931 0.13782 0.47266 0.0
H442 H 0.84506 0.09023 0.42336 0.0
H443 H 0.78727 0.88991 0.52843 0.0
H444 H 0.73325 0.8152 0.4953 0.0
O445 O 0.76808 0.96862 0.33754 0.0
C446 C 0.89402 0.92739 0.30892 0.0
C447 C 0.74435 0.84308 0.42799 0.0
C448 C 0.78216 0.88706 0.49259 0.0
N449 N 0.7986 0.92344 0.41932 0.0
C450 C 0.76796 0.88267 0.40111 0.0
C451 C 0.80476 0.92621 0.46474 0.0
C452 C 0.75181 0.8452 0.47401 0.0
C453 C 0.94578 0.11027 0.31701 0.0
N454 N 0.93368 0.07136 0.28602 0.0
C455 C 0.99791 0.1321 0.31983 0.0
C456 C 0.03799 0.11356 0.29077 0.0
C457 C 0.0254 0.07391 0.25917 0.0
C458 C 0.9727 0.05337 0.25717 0.0
C459 C 0.8787 0.0953 0.14932 0.0
C460 C 0.84884 0.00125 0.19287 0.0
C461 C 0.87728 0.09296 0.19591 0.0
N462 N 0.8629 0.04618 0.21707 0.0
C463 C 0.84974 0.00212 0.14625 0.0
C464 C 0.86487 0.04949 0.12441 0.0
C465 C 0.75504 0.98508 0.29869 0.0
C466 C 0.77007 0.11932 0.45015 0.0
C467 C 0.72739 0.02258 0.41891 0.0
C468 C 0.69353 0.05985 0.44038 0.0
C469 C 0.71512 0.10851 0.45609 0.0
N470 N 0.78134 0.03334 0.41339 0.0
C471 C 0.80272 0.08107 0.42859 0.0
C472 C 0.04084 0.4929 0.98225 0.0
C473 C 0.99235 0.47624 0.96057 0.0
C474 C 0.93828 0.52538 0.01664 0.0
C475 C 0.98655 0.53786 0.04053 0.0
N476 N 0.08376 0.53278 0.04758 0.0
N477 N 0.89483 0.47114 0.95887 0.0
C478 C 0.03784 0.52121 0.02378 0.0
C479 C 0.94099 0.49145 0.97798 0.0
N480 N 0.08974 0.48363 0.96198 0.0
N481 N 0.8898 0.5461 0.03089 0.0
H482 H 0.89518 0.44646 0.93049 0.0
H483 H 0.85637 0.47537 0.97272 0.0
H484 H 0.88558 0.56837 0.06037 0.0
H485 H 0.85421 0.5442 0.01225 0.0
H486 H 0.12642 0.49912 0.97348 0.0
H487 H 0.09346 0.46386 0.93126 0.0
H488 H 0.12158 0.51601 0.04072 0.0
H489 H 0.08372 0.55763 0.0758 0.0
C490 C 0.49015 0.55032 0.53192 0.0
C491 C 0.47101 0.49955 0.54737 0.0
C492 C 0.50748 0.45454 0.48028 0.0
C493 C 0.52909 0.50487 0.4659 0.0
N494 N 0.54579 0.59996 0.47934 0.0
N495 N 0.46729 0.40239 0.54044 0.0
C496 C 0.52201 0.55249 0.49227 0.0
C497 C 0.48106 0.45141 0.52253 0.0
N498 N 0.47547 0.59679 0.55392 0.0
N499 N 0.51253 0.40962 0.45366 0.0
H500 H 0.44867 0.39857 0.57154 0.0
H501 H 0.47804 0.3652 0.52655 0.0
H502 H 0.535 0.40911 0.42421 0.0
H503 H 0.49211 0.37341 0.45925 0.0
H504 H 0.48229 0.63555 0.54164 0.0
H505 H 0.453 0.59688 0.5834 0.0
H506 H 0.54873 0.63404 0.4998 0.0
H507 H 0.56508 0.6048 0.44863 0.0
C508 C 0.4516 0.01618 0.04951 0.0
C509 C 0.48243 0.96764 0.04635 0.0
C510 C 0.5115 0.99324 0.97119 0.0
C511 C 0.48198 0.0424 0.97405 0.0
N512 N 0.43103 0.10524 0.02063 0.0
N513 N 0.51252 0.90003 0.99294 0.0
C514 C 0.45412 0.0554 0.01456 0.0
C515 C 0.50447 0.95307 1.00414 0.0
N516 N 0.41456 0.02158 0.08318 0.0
N517 N 0.54817 0.98544 0.93763 0.0
H518 H 0.49542 0.86857 0.01108 0.0
H519 H 0.52599 0.88769 0.9615 0.0
H520 H 0.55736 0.01559 0.91461 0.0
H521 H 0.57416 0.95211 0.9364 0.0
H522 H 0.3869 0.0533 0.08563 0.0
H523 H 0.40559 0.98994 0.10484 0.0
H524 H 0.41687 0.11907 0.05138 0.0
H525 H 0.43025 0.13536 0.99668 0.0
C526 C 0.02905 0.02571 0.45653 0.0
C527 C 0.97241 0.0178 0.46182 0.0
C528 C 0.98717 0.99777 0.54101 0.0
C529 C 0.04399 0.00537 0.53623 0.0
N530 N 0.11816 0.00263 0.48309 0.0
N531 N 0.89972 0.02679 0.51546 0.0
C532 C 0.06496 0.01299 0.49226 0.0
C533 C 0.95187 0.01258 0.50585 0.0
N534 N 0.04851 0.05013 0.41902 0.0
N535 N 0.96658 0.97165 0.57729 0.0
H536 H 0.87515 0.04676 0.49258 0.0
H537 H 0.88438 0.02719 0.5479 0.0
H538 H 0.99113 0.95132 0.59996 0.0
H539 H 0.92557 0.96209 0.58036 0.0
H540 H 0.089 0.06118 0.41518 0.0
H541 H 0.02305 0.06757 0.39536 0.0
H542 H 0.13413 0.00354 0.4509 0.0
H543 H 0.14394 0.98391 0.50567 0.0
C544 C 0.20426 0.77561 0.2171 0.0
C545 C 0.19037 0.73162 0.18874 0.0
C546 C 0.2844 0.72531 0.1634 0.0
C547 C 0.29714 0.77335 0.18755 0.0
N548 N 0.26556 0.85033 0.23064 0.0
N549 N 0.21389 0.67317 0.12707 0.0
C550 C 0.2562 0.8001 0.21289 0.0
C551 C 0.22949 0.70877 0.15968 0.0
N552 N 0.16805 0.79374 0.24833 0.0
N553 N 0.32484 0.69438 0.14522 0.0
H554 H 0.17344 0.66282 0.12172 0.0
H555 H 0.24003 0.65904 0.1023 0.0
H556 H 0.36586 0.70373 0.14875 0.0
H557 H 0.31798 0.65646 0.13086 0.0
H558 H 0.17808 0.8217 0.27316 0.0
H559 H 0.12919 0.77757 0.25175 0.0
H560 H 0.23538 0.87398 0.2453 0.0
H561 H 0.30203 0.8709 0.22686 0.0
C562 C 0.22403 0.71112 0.72589 0.0
C563 C 0.26542 0.69564 0.69575 0.0
C564 C 0.26661 0.78769 0.66616 0.0
C565 C 0.21785 0.79958 0.68971 0.0
N566 N 0.14363 0.76572 0.73444 0.0
N567 N 0.32286 0.71765 0.63331 0.0
C568 C 0.19488 0.75969 0.718 0.0
C569 C 0.28583 0.73347 0.66466 0.0
N570 N 0.2126 0.67971 0.76202 0.0
N571 N 0.29579 0.82831 0.64675 0.0
H572 H 0.33866 0.67848 0.63179 0.0
H573 H 0.33458 0.74229 0.60685 0.0
H574 H 0.28518 0.86907 0.64962 0.0
H575 H 0.33376 0.82218 0.63235 0.0
H576 H 0.18525 0.6915 0.78676 0.0
H577 H 0.2351 0.64516 0.76969 0.0
H578 H 0.12394 0.73547 0.75238 0.0
H579 H 0.11831 0.79749 0.72513 0.0
C580 C 0.71176 0.26941 0.84404 0.0
C581 C 0.699 0.21826 0.82466 0.0
C582 C 0.79336 0.2092 0.80001 0.0
C583 C 0.80707 0.25609 0.82497 0.0
N584 N 0.78132 0.32498 0.87816 0.0
N585 N 0.73151 0.13403 0.79245 0.0
C586 C 0.76686 0.28453 0.84923 0.0
C587 C 0.74075 0.18662 0.80462 0.0
N588 N 0.67136 0.30463 0.85577 0.0
N589 N 0.8302 0.18668 0.77136 0.0
H590 H 0.69471 0.11454 0.79752 0.0
H591 H 0.76219 0.10794 0.78183 0.0
H592 H 0.86896 0.20259 0.76683 0.0
H593 H 0.82048 0.1556 0.74908 0.0
H594 H 0.67871 0.34421 0.86642 0.0
H595 H 0.63047 0.29659 0.84997 0.0
H596 H 0.75393 0.34368 0.89977 0.0
H597 H 0.82162 0.33571 0.88392 0.0
C598 C 0.77535 0.28371 0.33876 0.0
C599 C 0.72416 0.29442 0.31887 0.0
C600 C 0.72614 0.20456 0.28358 0.0
C601 C 0.77264 0.19141 0.30903 0.0
N602 N 0.83495 0.21495 0.36819 0.0
N603 N 0.64563 0.26014 0.27925 0.0
C604 C 0.79552 0.22996 0.3387 0.0
C605 C 0.69818 0.25371 0.29274 0.0
N606 N 0.80581 0.32494 0.35625 0.0
N607 N 0.70849 0.16996 0.25092 0.0
H608 H 0.62221 0.29372 0.28783 0.0
H609 H 0.62334 0.22949 0.2638 0.0
H610 H 0.72816 0.13355 0.24353 0.0
H611 H 0.67767 0.17978 0.22855 0.0
H612 H 0.84546 0.31951 0.36745 0.0
H613 H 0.79412 0.36551 0.35497 0.0
H614 H 0.84887 0.24029 0.39367 0.0
H615 H 0.84969 0.17551 0.37006 0.0
C616 C 0.83762 0.49332 0.25947 0.0
C617 C 0.8061 0.52829 0.28738 0.0
C618 C 0.85292 0.60659 0.25676 0.0
C619 C 0.88587 0.57273 0.22993 0.0
N620 N 0.91617 0.48293 0.21073 0.0
N621 N 0.81059 0.61308 0.32823 0.0
C622 C 0.88021 0.51561 0.23274 0.0
C623 C 0.82103 0.58357 0.29061 0.0
N624 N 0.82814 0.43882 0.25974 0.0
N625 N 0.85309 0.66127 0.25128 0.0
H626 H 0.80038 0.59478 0.35821 0.0
H627 H 0.82278 0.65326 0.33228 0.0
H628 H 0.88053 0.68066 0.23059 0.0
H629 H 0.82448 0.6866 0.26634 0.0
H630 H 0.84398 0.412 0.2362 0.0
H631 H 0.80429 0.42032 0.28401 0.0
H632 H 0.91823 0.44114 0.21484 0.0
H633 H 0.94619 0.49825 0.18982 0.0
C634 C 0.37532 0.33397 0.73293 0.0
C635 C 0.40761 0.37983 0.72316 0.0
C636 C 0.48476 0.33732 0.7616 0.0
C637 C 0.45334 0.28978 0.7679 0.0
N638 N 0.37566 0.23744 0.74504 0.0
N639 N 0.49601 0.42117 0.72056 0.0
C640 C 0.40058 0.28647 0.74932 0.0
C641 C 0.46333 0.38034 0.73524 0.0
N642 N 0.32023 0.33639 0.72878 0.0
N643 N 0.5343 0.34203 0.78168 0.0
H644 H 0.48167 0.45251 0.70054 0.0
H645 H 0.53793 0.42137 0.72472 0.0
H646 H 0.55158 0.31105 0.80049 0.0
H647 H 0.55641 0.37795 0.78245 0.0
H648 H 0.29472 0.30523 0.73918 0.0
H649 H 0.29989 0.37173 0.71973 0.0
H650 H 0.33897 0.23228 0.72822 0.0
H651 H 0.3951 0.20138 0.75339 0.0
C652 C 0.65648 0.88201 0.25055 0.0
C653 C 0.61431 0.91587 0.23451 0.0
C654 C 0.66073 0.99502 0.26614 0.0
C655 C 0.70589 0.96181 0.27715 0.0
N656 N 0.75156 0.87586 0.26885 0.0
N657 N 0.57835 0.00538 0.22249 0.0
C658 C 0.70508 0.90583 0.2664 0.0
C659 C 0.61714 0.97273 0.24079 0.0
N660 N 0.65002 0.82707 0.25142 0.0
N661 N 0.65837 0.04708 0.28149 0.0
H662 H 0.54493 0.99017 0.20513 0.0
H663 H 0.58125 0.04746 0.22178 0.0
H664 H 0.68869 0.06384 0.30124 0.0
H665 H 0.62436 0.07179 0.27831 0.0
H666 H 0.67744 0.80108 0.26693 0.0
H667 H 0.6149 0.80793 0.24038 0.0
H668 H 0.75439 0.83608 0.25724 0.0
H669 H 0.78876 0.89266 0.27779 0.0
C670 C 0.01308 0.15873 0.76799 0.0
C671 C 0.04812 0.20149 0.78172 0.0
C672 C 0.11703 0.16868 0.72963 0.0
C673 C 0.08404 0.12412 0.71728 0.0
N674 N 0.99633 0.08233 0.71782 0.0
N675 N 0.14209 0.22767 0.79014 0.0
C676 C 0.03074 0.12052 0.73489 0.0
C677 C 0.10273 0.20079 0.76703 0.0
N678 N 0.96471 0.15248 0.78945 0.0
N679 N 0.16079 0.18241 0.7045 0.0
H680 H 0.13532 0.24417 0.82153 0.0
H681 H 0.18303 0.2257 0.78163 0.0
H682 H 0.16672 0.16586 0.67304 0.0
H683 H 0.18475 0.21631 0.71109 0.0
H684 H 0.93793 0.12065 0.78385 0.0
H685 H 0.95387 0.1768 0.81654 0.0
H686 H 0.95567 0.07874 0.72641 0.0
H687 H 0.00776 0.0567 0.69165 0.0
C688 C 0.13195 0.39169 0.73823 0.0
C689 C 0.10678 0.42181 0.77293 0.0
C690 C 0.16093 0.50128 0.75202 0.0
C691 C 0.18834 0.4696 0.71921 0.0
N692 N 0.17398 0.39637 0.66635 0.0
N693 N 0.09752 0.5054 0.81415 0.0
C694 C 0.16672 0.41804 0.70788 0.0
C695 C 0.12129 0.47678 0.78024 0.0
N696 N 0.12419 0.33708 0.73489 0.0
N697 N 0.1685 0.55601 0.75246 0.0
H698 H 0.06588 0.49009 0.83331 0.0
H699 H 0.11082 0.54322 0.82503 0.0
H700 H 0.19101 0.57523 0.72777 0.0
H701 H 0.14733 0.58286 0.77286 0.0
H702 H 0.14655 0.31242 0.71336 0.0
H703 H 0.09965 0.31575 0.75681 0.0
H704 H 0.15597 0.36028 0.65589 0.0
H705 H 0.18848 0.41892 0.63983 0.0
C706 C 0.62716 0.64698 0.25545 0.0
C707 C 0.59087 0.61392 0.27994 0.0
C708 C 0.51361 0.65827 0.24361 0.0
C709 C 0.5496 0.69545 0.22279 0.0
N710 N 0.64006 0.70537 0.19208 0.0
N711 N 0.49981 0.58867 0.29946 0.0
C712 C 0.60643 0.68471 0.22398 0.0
C713 C 0.53412 0.61963 0.27449 0.0
N714 N 0.68181 0.64208 0.26212 0.0
N715 N 0.46052 0.65671 0.23044 0.0
H716 H 0.51365 0.55919 0.32149 0.0
H717 H 0.45811 0.59485 0.30103 0.0
H718 H 0.44588 0.67997 0.20402 0.0
H719 H 0.43273 0.62794 0.24127 0.0
H720 H 0.71008 0.67005 0.25062 0.0
H721 H 0.69886 0.61213 0.28207 0.0
H722 H 0.68127 0.69672 0.18994 0.0
H723 H 0.626 0.72289 0.1629 0.0
C724 C 0.38293 0.0283 0.76782 0.0
C725 C 0.37747 0.07979 0.78861 0.0
C726 C 0.28169 0.08211 0.76652 0.0
C727 C 0.29013 0.03531 0.73975 0.0
N728 N 0.34939 0.96541 0.71182 0.0
N729 N 0.32085 0.15744 0.80674 0.0
C730 C 0.34099 0.0088 0.73946 0.0
C731 C 0.32641 0.10686 0.78834 0.0
N732 N 0.42663 0.99658 0.77769 0.0
N733 N 0.23066 0.1029 0.77125 0.0
H734 H 0.35173 0.17814 0.82311 0.0
H735 H 0.28669 0.18166 0.80236 0.0
H736 H 0.19759 0.08851 0.75324 0.0
H737 H 0.2202 0.13144 0.79546 0.0
H738 H 0.43111 0.95687 0.76634 0.0
H739 H 0.45493 0.00787 0.80188 0.0
H740 H 0.38739 0.94802 0.70669 0.0
H741 H 0.31894 0.9493 0.69153 0.0
C742 C 0.98541 0.83821 0.23688 0.0
C743 C 0.96735 0.78521 0.2472 0.0
C744 C 0.90354 0.82381 0.3015 0.0
C745 C 0.92282 0.87703 0.2925 0.0
N746 N -6e-05 0.92791 0.26728 0.0
N747 N 0.92522 0.72878 0.30271 0.0
C748 C 0.96901 0.88234 0.26455 0.0
C749 C 0.9318 0.77839 0.28392 0.0
N750 N 0.01859 0.84677 0.20125 0.0
N751 N 0.85658 0.81566 0.32434 0.0
H752 H 0.94402 0.69451 0.28997 0.0
H753 H 0.9046 0.72286 0.33268 0.0
H754 H 0.83296 0.84707 0.33615 0.0
H755 H 0.83831 0.77774 0.32725 0.0
H756 H 0.02876 0.88547 0.19023 0.0
H757 H 0.03248 0.81537 0.18098 0.0
H758 H 0.03623 0.93263 0.24991 0.0
H759 H 0.99303 0.95698 0.29202 0.0
loop_
_geom_bond_atom_site_label_1
_geom_bond_atom_site_label_2
_geom_bond_distance
_geom_bond_site_symmetry_2
_ccdc_geom_bond_type
Co0 O2 2.143 . S
Co0 O8 2.074 1_455 S
Co0 O11 2.093 . S
Co0 O24 2.097 . S
Co0 N41 2.151 . S
Co0 N49 2.214 . S
Co1 O2 2.160 1_655 S
Co1 O7 2.058 . S
Co1 O17 2.057 . S
Co1 O32 2.037 . S
Co1 N36 2.145 . S
Co1 N57 2.257 . S
O2 Co0 2.143 . S
O2 Co1 2.160 1_455 S
C3 O4 1.278 . S
C3 O11 1.224 . S
O4 C3 1.278 . S
C5 O6 1.245 . S
C5 O17 1.232 1_455 S
O6 C5 1.245 . S
O7 Co1 2.058 . S
O7 C33 1.269 . S
O8 Co0 2.074 1_655 S
O8 C33 1.257 . S
H9 C34 0.930 . S
H10 C40 0.930 . S
O11 Co0 2.093 . S
O11 C3 1.224 . S
H12 C44 0.929 . S
H13 C46 0.930 . S
H14 C47 0.930 1_655 S
H15 C45 0.929 . S
H16 C48 0.928 . S
O17 Co1 2.057 . S
O17 C5 1.232 1_655 S
H18 C37 0.929 . S
H19 C38 0.929 . S
H20 C50 0.931 1_655 S
H21 C42 0.929 . S
H22 C51 0.930 . S
H23 C43 0.931 . S
O24 Co0 2.097 . S
O24 C52 1.214 1_455 S
H25 C53 0.929 . S
H26 C54 0.929 . S
H27 C55 0.930 . S
H28 C56 0.929 . S
H29 C58 0.930 . S
H30 C35 0.930 . S
H31 C39 0.930 . S
O32 Co1 2.037 . S
O32 C52 1.234 . S
C33 O7 1.269 . S
C33 O8 1.257 . S
C34 H9 0.930 . S
C34 C37 1.388 . S
C34 C39 1.418 . S
C35 H30 0.930 . S
C35 C38 1.404 . S
C35 C39 1.353 . S
N36 Co1 2.145 . S
N36 C37 1.397 . S
N36 C38 1.334 . S
C37 H18 0.929 . S
C37 C34 1.388 . S
C37 N36 1.397 . S
C38 H19 0.929 . S
C38 C35 1.404 . S
C38 N36 1.334 . S
C39 H31 0.930 . S
C39 C34 1.418 . S
C39 C35 1.353 . S
C40 H10 0.930 . S
C40 N41 1.330 . S
C40 C42 1.446 . S
N41 Co0 2.151 . S
N41 C40 1.330 . S
N41 C45 1.418 . S
C42 H21 0.929 . S
C42 C40 1.446 . S
C42 C43 1.332 . S
C43 H23 0.931 . S
C43 C42 1.332 . S
C43 C44 1.267 . S
C44 H12 0.929 . S
C44 C43 1.267 . S
C44 C45 1.251 . S
C45 H15 0.929 . S
C45 N41 1.418 . S
C45 C44 1.251 . S
C46 H13 0.930 . S
C46 C48 1.406 . S
C46 C51 1.261 . S
C47 H14 0.930 1_455 S
C47 N49 1.325 . S
C47 C50 1.357 . S
C48 H16 0.928 . S
C48 C46 1.406 . S
C48 N49 1.261 . S
N49 Co0 2.214 . S
N49 C47 1.325 . S
N49 C48 1.261 . S
C50 H20 0.931 1_455 S
C50 C47 1.357 . S
C50 C51 1.312 . S
C51 H22 0.930 . S
C51 C46 1.261 . S
C51 C50 1.312 . S
C52 O24 1.214 1_655 S
C52 O32 1.234 . S
C53 H25 0.929 . S
C53 C56 1.391 . S
C53 C58 1.391 . S
C54 H26 0.929 . S
C54 C55 1.390 . S
C54 N57 1.391 . S
C55 H27 0.930 . S
C55 C54 1.390 . S
C55 C56 1.392 1_655 S
C56 H28 0.929 . S
C56 C53 1.391 . S
C56 C55 1.392 1_455 S
N57 Co1 2.257 . S
N57 C54 1.391 . S
N57 C58 1.388 1_655 S
C58 H29 0.930 . S
C58 C53 1.391 . S
C58 N57 1.388 1_455 S
Co59 O61 2.143 . S
Co59 O67 2.074 . S
Co59 O70 2.093 . S
Co59 O83 2.097 . S
Co59 N100 2.151 . S
Co59 N108 2.214 . S
Co60 O61 2.160 . S
Co60 O66 2.058 . S
Co60 O76 2.057 . S
Co60 O91 2.037 . S
Co60 N95 2.145 . S
Co60 N116 2.257 . S
O61 Co59 2.143 . S
O61 Co60 2.160 . S
C62 O63 1.278 . S
C62 O70 1.224 . S
O63 C62 1.278 . S
C64 O65 1.245 . S
C64 O76 1.232 . S
O65 C64 1.245 . S
O66 Co60 2.058 . S
O66 C92 1.269 . S
O67 Co59 2.074 . S
O67 C92 1.257 . S
H68 C93 0.930 . S
H69 C99 0.930 . S
O70 Co59 2.093 . S
O70 C62 1.224 . S
H71 C103 0.929 . S
H72 C105 0.930 . S
H73 C106 0.930 . S
H74 C104 0.929 . S
H75 C107 0.928 . S
O76 Co60 2.057 . S
O76 C64 1.232 . S
H77 C96 0.929 . S
H78 C97 0.929 . S
H79 C109 0.931 . S
H80 C101 0.929 . S
H81 C110 0.930 . S
H82 C102 0.931 . S
O83 Co59 2.097 . S
O83 C111 1.214 . S
H84 C112 0.929 . S
H85 C113 0.929 . S
H86 C114 0.930 . S
H87 C115 0.929 . S
H88 C117 0.930 . S
H89 C94 0.930 . S
H90 C98 0.930 . S
O91 Co60 2.037 . S
O91 C111 1.234 . S
C92 O66 1.269 . S
C92 O67 1.257 . S
C93 H68 0.930 . S
C93 C96 1.388 . S
C93 C98 1.418 . S
C94 H89 0.930 . S
C94 C97 1.404 . S
C94 C98 1.353 . S
N95 Co60 2.145 . S
N95 C96 1.397 . S
N95 C97 1.334 . S
C96 H77 0.929 . S
C96 C93 1.388 . S
C96 N95 1.397 . S
C97 H78 0.929 . S
C97 C94 1.404 . S
C97 N95 1.334 . S
C98 H90 0.930 . S
C98 C93 1.418 . S
C98 C94 1.353 . S
C99 H69 0.930 . S
C99 N100 1.330 . S
C99 C101 1.446 . S
N100 Co59 2.151 . S
N100 C99 1.330 . S
N100 C104 1.418 . S
C101 H80 0.929 . S
C101 C99 1.446 . S
C101 C102 1.332 . S
C102 H82 0.931 . S
C102 C101 1.332 . S
C102 C103 1.267 . S
C103 H71 0.929 . S
C103 C102 1.267 . S
C103 C104 1.251 . S
C104 H74 0.929 . S
C104 N100 1.418 . S
C104 C103 1.251 . S
C105 H72 0.930 . S
C105 C107 1.406 . S
C105 C110 1.261 . S
C106 H73 0.930 . S
C106 N108 1.325 . S
C106 C109 1.357 . S
C107 H75 0.928 . S
C107 C105 1.406 . S
C107 N108 1.261 . S
N108 Co59 2.214 . S
N108 C106 1.325 . S
N108 C107 1.261 . S
C109 H79 0.931 . S
C109 C106 1.357 . S
C109 C110 1.312 . S
C110 H81 0.930 . S
C110 C105 1.261 . S
C110 C109 1.312 . S
C111 O83 1.214 . S
C111 O91 1.234 . S
C112 H84 0.929 . S
C112 C115 1.391 . S
C112 C117 1.391 . S
C113 H85 0.929 . S
C113 C114 1.390 . S
C113 N116 1.391 . S
C114 H86 0.930 . S
C114 C113 1.390 . S
C114 C115 1.392 . S
C115 H87 0.929 . S
C115 C112 1.391 . S
C115 C114 1.392 . S
N116 Co60 2.257 . S
N116 C113 1.391 . S
N116 C117 1.388 . S
C117 H88 0.930 . S
C117 C112 1.391 . S
C117 N116 1.388 . S
Co118 O120 2.143 . S
Co118 O126 2.074 . S
Co118 O129 2.093 . S
Co118 O142 2.097 . S
Co118 N159 2.151 . S
Co118 N167 2.214 . S
Co119 O120 2.160 . S
Co119 O125 2.058 . S
Co119 O135 2.057 . S
Co119 O150 2.037 . S
Co119 N154 2.145 . S
Co119 N175 2.257 . S
O120 Co118 2.143 . S
O120 Co119 2.160 . S
C121 O122 1.278 . S
C121 O129 1.224 . S
O122 C121 1.278 . S
C123 O124 1.245 . S
C123 O135 1.232 . S
O124 C123 1.245 . S
O125 Co119 2.058 . S
O125 C151 1.269 . S
O126 Co118 2.074 . S
O126 C151 1.257 . S
H127 C152 0.930 . S
H128 C158 0.930 . S
O129 Co118 2.093 . S
O129 C121 1.224 . S
H130 C162 0.929 1_545 S
H131 C164 0.930 . S
H132 C165 0.930 . S
H133 C163 0.929 . S
H134 C166 0.928 . S
O135 Co119 2.057 . S
O135 C123 1.232 . S
H136 C155 0.929 . S
H137 C156 0.929 . S
H138 C168 0.931 . S
H139 C160 0.929 . S
H140 C169 0.930 . S
H141 C161 0.931 . S
O142 Co118 2.097 . S
O142 C170 1.214 . S
H143 C171 0.929 . S
H144 C172 0.929 . S
H145 C173 0.930 . S
H146 C174 0.929 . S
H147 C176 0.930 . S
H148 C153 0.930 . S
H149 C157 0.930 . S
O150 Co119 2.037 . S
O150 C170 1.234 . S
C151 O125 1.269 . S
C151 O126 1.257 . S
C152 H127 0.930 . S
C152 C155 1.388 . S
C152 C157 1.418 . S
C153 H148 0.930 . S
C153 C156 1.404 . S
C153 C157 1.353 . S
N154 Co119 2.145 . S
N154 C155 1.397 . S
N154 C156 1.334 . S
C155 H136 0.929 . S
C155 C152 1.388 . S
C155 N154 1.397 . S
C156 H137 0.929 . S
C156 C153 1.404 . S
C156 N154 1.334 . S
C157 H149 0.930 . S
C157 C152 1.418 . S
C157 C153 1.353 . S
C158 H128 0.930 . S
C158 N159 1.330 . S
C158 C160 1.446 . S
N159 Co118 2.151 . S
N159 C158 1.330 . S
N159 C163 1.418 . S
C160 H139 0.929 . S
C160 C158 1.446 . S
C160 C161 1.332 1_565 S
C161 H141 0.931 . S
C161 C160 1.332 1_545 S
C161 C162 1.267 1_545 S
C162 H130 0.929 1_565 S
C162 C161 1.267 1_565 S
C162 C163 1.251 . S
C163 H133 0.929 . S
C163 N159 1.418 . S
C163 C162 1.251 . S
C164 H131 0.930 . S
C164 C166 1.406 . S
C164 C169 1.261 . S
C165 H132 0.930 . S
C165 N167 1.325 . S
C165 C168 1.357 . S
C166 H134 0.928 . S
C166 C164 1.406 . S
C166 N167 1.261 . S
N167 Co118 2.214 . S
N167 C165 1.325 . S
N167 C166 1.261 . S
C168 H138 0.931 . S
C168 C165 1.357 . S
C168 C169 1.312 . S
C169 H140 0.930 . S
C169 C164 1.261 . S
C169 C168 1.312 . S
C170 O142 1.214 . S
C170 O150 1.234 . S
C171 H143 0.929 . S
C171 C174 1.391 . S
C171 C176 1.391 . S
C172 H144 0.929 . S
C172 C173 1.390 . S
C172 N175 1.391 . S
C173 H145 0.930 . S
C173 C172 1.390 . S
C173 C174 1.392 . S
C174 H146 0.929 . S
C174 C171 1.391 . S
C174 C173 1.392 . S
N175 Co119 2.257 . S
N175 C172 1.391 . S
N175 C176 1.388 . S
C176 H147 0.930 . S
C176 C171 1.391 . S
C176 N175 1.388 . S
Co177 O179 2.143 . S
Co177 O185 2.074 1_565 S
Co177 O188 2.093 . S
Co177 O201 2.097 . S
Co177 N218 2.151 . S
Co177 N226 2.214 . S
Co178 O179 2.160 1_545 S
Co178 O184 2.058 . S
Co178 O194 2.057 . S
Co178 O209 2.037 . S
Co178 N213 2.145 . S
Co178 N234 2.257 . S
O179 Co177 2.143 . S
O179 Co178 2.160 1_565 S
C180 O181 1.278 . S
C180 O188 1.224 . S
O181 C180 1.278 . S
C182 O183 1.245 . S
C182 O194 1.232 1_565 S
O183 C182 1.245 . S
O184 Co178 2.058 . S
O184 C210 1.269 . S
O185 Co177 2.074 1_545 S
O185 C210 1.257 . S
H186 C211 0.930 . S
H187 C217 0.930 . S
O188 Co177 2.093 . S
O188 C180 1.224 . S
H189 C221 0.929 1_655 S
H190 C223 0.930 . S
H191 C224 0.930 1_545 S
H192 C222 0.929 . S
H193 C225 0.928 . S
O194 Co178 2.057 . S
O194 C182 1.232 1_545 S
H195 C214 0.929 . S
H196 C215 0.929 . S
H197 C227 0.931 1_545 S
H198 C219 0.929 . S
H199 C228 0.930 . S
H200 C220 0.931 . S
O201 Co177 2.097 . S
O201 C229 1.214 1_565 S
H202 C230 0.929 . S
H203 C231 0.929 . S
H204 C232 0.930 . S
H205 C233 0.929 . S
H206 C235 0.930 . S
H207 C212 0.930 . S
H208 C216 0.930 . S
O209 Co178 2.037 . S
O209 C229 1.234 . S
C210 O184 1.269 . S
C210 O185 1.257 . S
C211 H186 0.930 . S
C211 C214 1.388 . S
C211 C216 1.418 . S
C212 H207 0.930 . S
C212 C215 1.404 . S
C212 C216 1.353 . S
N213 Co178 2.145 . S
N213 C214 1.397 . S
N213 C215 1.334 . S
C214 H195 0.929 . S
C214 C211 1.388 . S
C214 N213 1.397 . S
C215 H196 0.929 . S
C215 C212 1.404 . S
C215 N213 1.334 . S
C216 H208 0.930 . S
C216 C211 1.418 . S
C216 C212 1.353 . S
C217 H187 0.930 . S
C217 N218 1.330 . S
C217 C219 1.446 . S
N218 Co177 2.151 . S
N218 C217 1.330 . S
N218 C222 1.418 . S
C219 H198 0.929 . S
C219 C217 1.446 . S
C219 C220 1.332 1_455 S
C220 H200 0.931 . S
C220 C219 1.332 1_655 S
C220 C221 1.267 1_655 S
C221 H189 0.929 1_455 S
C221 C220 1.267 1_455 S
C221 C222 1.251 . S
C222 H192 0.929 . S
C222 N218 1.418 . S
C222 C221 1.251 . S
C223 H190 0.930 . S
C223 C225 1.406 . S
C223 C228 1.261 . S
C224 H191 0.930 1_565 S
C224 N226 1.325 . S
C224 C227 1.357 . S
C225 H193 0.928 . S
C225 C223 1.406 . S
C225 N226 1.261 . S
N226 Co177 2.214 . S
N226 C224 1.325 . S
N226 C225 1.261 . S
C227 H197 0.931 1_565 S
C227 C224 1.357 . S
C227 C228 1.312 . S
C228 H199 0.930 . S
C228 C223 1.261 . S
C228 C227 1.312 . S
C229 O201 1.214 1_545 S
C229 O209 1.234 . S
C230 H202 0.929 . S
C230 C233 1.391 . S
C230 C235 1.391 . S
C231 H203 0.929 . S
C231 C232 1.390 . S
C231 N234 1.391 . S
C232 H204 0.930 . S
C232 C231 1.390 . S
C232 C233 1.392 1_545 S
C233 H205 0.929 . S
C233 C230 1.391 . S
C233 C232 1.392 1_565 S
N234 Co178 2.257 . S
N234 C231 1.391 . S
N234 C235 1.388 1_545 S
C235 H206 0.930 . S
C235 C230 1.391 . S
C235 N234 1.388 1_565 S
Co236 O238 2.143 . S
Co236 O244 2.074 1_655 S
Co236 O247 2.093 . S
Co236 O260 2.097 . S
Co236 N277 2.151 . S
Co236 N285 2.214 . S
Co237 O238 2.160 1_455 S
Co237 O243 2.058 . S
Co237 O253 2.057 . S
Co237 O268 2.037 . S
Co237 N272 2.145 . S
Co237 N293 2.257 . S
O238 Co236 2.143 . S
O238 Co237 2.160 1_655 S
C239 O240 1.278 . S
C239 O247 1.224 . S
O240 C239 1.278 . S
C241 O242 1.245 . S
C241 O253 1.232 1_655 S
O242 C241 1.245 . S
O243 Co237 2.058 . S
O243 C269 1.269 . S
O244 Co236 2.074 1_455 S
O244 C269 1.257 . S
H245 C270 0.930 . S
H246 C276 0.930 . S
O247 Co236 2.093 . S
O247 C239 1.224 . S
H248 C280 0.929 . S
H249 C282 0.930 . S
H250 C283 0.930 1_455 S
H251 C281 0.929 . S
H252 C284 0.928 . S
O253 Co237 2.057 . S
O253 C241 1.232 1_455 S
H254 C273 0.929 . S
H255 C274 0.929 . S
H256 C286 0.931 1_455 S
H257 C278 0.929 . S
H258 C287 0.930 . S
H259 C279 0.931 . S
O260 Co236 2.097 . S
O260 C288 1.214 1_655 S
H261 C289 0.929 . S
H262 C290 0.929 . S
H263 C291 0.930 . S
H264 C292 0.929 . S
H265 C294 0.930 . S
H266 C271 0.930 . S
H267 C275 0.930 . S
O268 Co237 2.037 . S
O268 C288 1.234 . S
C269 O243 1.269 . S
C269 O244 1.257 . S
C270 H245 0.930 . S
C270 C273 1.388 . S
C270 C275 1.418 . S
C271 H266 0.930 . S
C271 C274 1.404 . S
C271 C275 1.353 . S
N272 Co237 2.145 . S
N272 C273 1.397 . S
N272 C274 1.334 . S
C273 H254 0.929 . S
C273 C270 1.388 . S
C273 N272 1.397 . S
C274 H255 0.929 . S
C274 C271 1.404 . S
C274 N272 1.334 . S
C275 H267 0.930 . S
C275 C270 1.418 . S
C275 C271 1.353 . S
C276 H246 0.930 . S
C276 N277 1.330 . S
C276 C278 1.446 . S
N277 Co236 2.151 . S
N277 C276 1.330 . S
N277 C281 1.418 . S
C278 H257 0.929 . S
C278 C276 1.446 . S
C278 C279 1.332 . S
C279 H259 0.931 . S
C279 C278 1.332 . S
C279 C280 1.267 . S
C280 H248 0.929 . S
C280 C279 1.267 . S
C280 C281 1.251 . S
C281 H251 0.929 . S
C281 N277 1.418 . S
C281 C280 1.251 . S
C282 H249 0.930 . S
C282 C284 1.406 . S
C282 C287 1.261 . S
C283 H250 0.930 1_655 S
C283 N285 1.325 . S
C283 C286 1.357 . S
C284 H252 0.928 . S
C284 C282 1.406 . S
C284 N285 1.261 . S
N285 Co236 2.214 . S
N285 C283 1.325 . S
N285 C284 1.261 . S
C286 H256 0.931 1_655 S
C286 C283 1.357 . S
C286 C287 1.312 . S
C287 H258 0.930 . S
C287 C282 1.261 . S
C287 C286 1.312 . S
C288 O260 1.214 1_455 S
C288 O268 1.234 . S
C289 H261 0.929 . S
C289 C292 1.391 . S
C289 C294 1.391 . S
C290 H262 0.929 . S
C290 C291 1.390 . S
C290 N293 1.391 . S
C291 H263 0.930 . S
C291 C290 1.390 . S
C291 C292 1.392 1_455 S
C292 H264 0.929 . S
C292 C289 1.391 . S
C292 C291 1.392 1_655 S
N293 Co237 2.257 . S
N293 C290 1.391 . S
N293 C294 1.388 1_455 S
C294 H265 0.930 . S
C294 C289 1.391 . S
C294 N293 1.388 1_655 S
Co295 O297 2.143 . S
Co295 O303 2.074 . S
Co295 O306 2.093 . S
Co295 O319 2.097 . S
Co295 N336 2.151 . S
Co295 N344 2.214 . S
Co296 O297 2.160 . S
Co296 O302 2.058 . S
Co296 O312 2.057 . S
Co296 O327 2.037 . S
Co296 N331 2.145 . S
Co296 N352 2.257 . S
O297 Co295 2.143 . S
O297 Co296 2.160 . S
C298 O299 1.278 . S
C298 O306 1.224 . S
O299 C298 1.278 . S
C300 O301 1.245 . S
C300 O312 1.232 . S
O301 C300 1.245 . S
O302 Co296 2.058 . S
O302 C328 1.269 . S
O303 Co295 2.074 . S
O303 C328 1.257 . S
H304 C329 0.930 . S
H305 C335 0.930 . S
O306 Co295 2.093 . S
O306 C298 1.224 . S
H307 C339 0.929 . S
H308 C341 0.930 . S
H309 C342 0.930 . S
H310 C340 0.929 . S
H311 C343 0.928 . S
O312 Co296 2.057 . S
O312 C300 1.232 . S
H313 C332 0.929 . S
H314 C333 0.929 . S
H315 C345 0.931 . S
H316 C337 0.929 . S
H317 C346 0.930 . S
H318 C338 0.931 . S
O319 Co295 2.097 . S
O319 C347 1.214 . S
H320 C348 0.929 . S
H321 C349 0.929 . S
H322 C350 0.930 . S
H323 C351 0.929 . S
H324 C353 0.930 . S
H325 C330 0.930 . S
H326 C334 0.930 . S
O327 Co296 2.037 . S
O327 C347 1.234 . S
C328 O302 1.269 . S
C328 O303 1.257 . S
C329 H304 0.930 . S
C329 C332 1.388 . S
C329 C334 1.418 . S
C330 H325 0.930 . S
C330 C333 1.404 . S
C330 C334 1.353 . S
N331 Co296 2.145 . S
N331 C332 1.397 . S
N331 C333 1.334 . S
C332 H313 0.929 . S
C332 C329 1.388 . S
C332 N331 1.397 . S
C333 H314 0.929 . S
C333 C330 1.404 . S
C333 N331 1.334 . S
C334 H326 0.930 . S
C334 C329 1.418 . S
C334 C330 1.353 . S
C335 H305 0.930 . S
C335 N336 1.330 . S
C335 C337 1.446 . S
N336 Co295 2.151 . S
N336 C335 1.330 . S
N336 C340 1.418 . S
C337 H316 0.929 . S
C337 C335 1.446 . S
C337 C338 1.332 . S
C338 H318 0.931 . S
C338 C337 1.332 . S
C338 C339 1.267 . S
C339 H307 0.929 . S
C339 C338 1.267 . S
C339 C340 1.251 . S
C340 H310 0.929 . S
C340 N336 1.418 . S
C340 C339 1.251 . S
C341 H308 0.930 . S
C341 C343 1.406 . S
C341 C346 1.261 . S
C342 H309 0.930 . S
C342 N344 1.325 . S
C342 C345 1.357 . S
C343 H311 0.928 . S
C343 C341 1.406 . S
C343 N344 1.261 . S
N344 Co295 2.214 . S
N344 C342 1.325 . S
N344 C343 1.261 . S
C345 H315 0.931 . S
C345 C342 1.357 . S
C345 C346 1.312 . S
C346 H317 0.930 . S
C346 C341 1.261 . S
C346 C345 1.312 . S
C347 O319 1.214 . S
C347 O327 1.234 . S
C348 H320 0.929 . S
C348 C351 1.391 . S
C348 C353 1.391 . S
C349 H321 0.929 . S
C349 C350 1.390 . S
C349 N352 1.391 . S
C350 H322 0.930 . S
C350 C349 1.390 . S
C350 C351 1.392 . S
C351 H323 0.929 . S
C351 C348 1.391 . S
C351 C350 1.392 . S
N352 Co296 2.257 . S
N352 C349 1.391 . S
N352 C353 1.388 . S
C353 H324 0.930 . S
C353 C348 1.391 . S
C353 N352 1.388 . S
Co354 O356 2.143 . S
Co354 O362 2.074 . S
Co354 O365 2.093 . S
Co354 O378 2.097 . S
Co354 N395 2.151 . S
Co354 N403 2.214 . S
Co355 O356 2.160 . S
Co355 O361 2.058 . S
Co355 O371 2.057 . S
Co355 O386 2.037 . S
Co355 N390 2.145 . S
Co355 N411 2.257 . S
O356 Co354 2.143 . S
O356 Co355 2.160 . S
C357 O358 1.278 . S
C357 O365 1.224 . S
O358 C357 1.278 . S
C359 O360 1.245 . S
C359 O371 1.232 . S
O360 C359 1.245 . S
O361 Co355 2.058 . S
O361 C387 1.269 . S
O362 Co354 2.074 . S
O362 C387 1.257 . S
H363 C388 0.930 . S
H364 C394 0.930 . S
O365 Co354 2.093 . S
O365 C357 1.224 . S
H366 C398 0.929 1_565 S
H367 C400 0.930 . S
H368 C401 0.930 . S
H369 C399 0.929 . S
H370 C402 0.928 . S
O371 Co355 2.057 . S
O371 C359 1.232 . S
H372 C391 0.929 . S
H373 C392 0.929 . S
H374 C404 0.931 . S
H375 C396 0.929 . S
H376 C405 0.930 . S
H377 C397 0.931 . S
O378 Co354 2.097 . S
O378 C406 1.214 . S
H379 C407 0.929 . S
H380 C408 0.929 . S
H381 C409 0.930 . S
H382 C410 0.929 . S
H383 C412 0.930 . S
H384 C389 0.930 . S
H385 C393 0.930 . S
O386 Co355 2.037 . S
O386 C406 1.234 . S
C387 O361 1.269 . S
C387 O362 1.257 . S
C388 H363 0.930 . S
C388 C391 1.388 . S
C388 C393 1.418 . S
C389 H384 0.930 . S
C389 C392 1.404 . S
C389 C393 1.353 . S
N390 Co355 2.145 . S
N390 C391 1.397 . S
N390 C392 1.334 . S
C391 H372 0.929 . S
C391 C388 1.388 . S
C391 N390 1.397 . S
C392 H373 0.929 . S
C392 C389 1.404 . S
C392 N390 1.334 . S
C393 H385 0.930 . S
C393 C388 1.418 . S
C393 C389 1.353 . S
C394 H364 0.930 . S
C394 N395 1.330 . S
C394 C396 1.446 . S
N395 Co354 2.151 . S
N395 C394 1.330 . S
N395 C399 1.418 . S
C396 H375 0.929 . S
C396 C394 1.446 . S
C396 C397 1.332 1_545 S
C397 H377 0.931 . S
C397 C396 1.332 1_565 S
C397 C398 1.267 1_565 S
C398 H366 0.929 1_545 S
C398 C397 1.267 1_545 S
C398 C399 1.251 . S
C399 H369 0.929 . S
C399 N395 1.418 . S
C399 C398 1.251 . S
C400 H367 0.930 . S
C400 C402 1.406 . S
C400 C405 1.261 . S
C401 H368 0.930 . S
C401 N403 1.325 . S
C401 C404 1.357 . S
C402 H370 0.928 . S
C402 C400 1.406 . S
C402 N403 1.261 . S
N403 Co354 2.214 . S
N403 C401 1.325 . S
N403 C402 1.261 . S
C404 H374 0.931 . S
C404 C401 1.357 . S
C404 C405 1.312 . S
C405 H376 0.930 . S
C405 C400 1.261 . S
C405 C404 1.312 . S
C406 O378 1.214 . S
C406 O386 1.234 . S
C407 H379 0.929 . S
C407 C410 1.391 . S
C407 C412 1.391 . S
C408 H380 0.929 . S
C408 C409 1.390 . S
C408 N411 1.391 . S
C409 H381 0.930 . S
C409 C408 1.390 . S
C409 C410 1.392 . S
C410 H382 0.929 . S
C410 C407 1.391 . S
C410 C409 1.392 . S
N411 Co355 2.257 . S
N411 C408 1.391 . S
N411 C412 1.388 . S
C412 H383 0.930 . S
C412 C407 1.391 . S
C412 N411 1.388 . S
Co413 O415 2.143 . S
Co413 O421 2.074 1_545 S
Co413 O424 2.093 . S
Co413 O437 2.097 . S
Co413 N454 2.151 . S
Co413 N462 2.214 . S
Co414 O415 2.160 1_565 S
Co414 O420 2.058 . S
Co414 O430 2.057 . S
Co414 O445 2.037 . S
Co414 N449 2.145 . S
Co414 N470 2.257 . S
O415 Co413 2.143 . S
O415 Co414 2.160 1_545 S
C416 O417 1.278 . S
C416 O424 1.224 . S
O417 C416 1.278 . S
C418 O419 1.245 . S
C418 O430 1.232 1_545 S
O419 C418 1.245 . S
O420 Co414 2.058 . S
O420 C446 1.269 . S
O421 Co413 2.074 1_565 S
O421 C446 1.257 . S
H422 C447 0.930 . S
H423 C453 0.930 . S
O424 Co413 2.093 . S
O424 C416 1.224 . S
H425 C457 0.929 1_455 S
H426 C459 0.930 . S
H427 C460 0.930 1_565 S
H428 C458 0.929 . S
H429 C461 0.928 . S
O430 Co414 2.057 . S
O430 C418 1.232 1_565 S
H431 C450 0.929 . S
H432 C451 0.929 . S
H433 C463 0.931 1_565 S
H434 C455 0.929 . S
H435 C464 0.930 . S
H436 C456 0.931 . S
O437 Co413 2.097 . S
O437 C465 1.214 1_545 S
H438 C466 0.929 . S
H439 C467 0.929 . S
H440 C468 0.930 . S
H441 C469 0.929 . S
H442 C471 0.930 . S
H443 C448 0.930 . S
H444 C452 0.930 . S
O445 Co414 2.037 . S
O445 C465 1.234 . S
C446 O420 1.269 . S
C446 O421 1.257 . S
C447 H422 0.930 . S
C447 C450 1.388 . S
C447 C452 1.418 . S
C448 H443 0.930 . S
C448 C451 1.404 . S
C448 C452 1.353 . S
N449 Co414 2.145 . S
N449 C450 1.397 . S
N449 C451 1.334 . S
C450 H431 0.929 . S
C450 C447 1.388 . S
C450 N449 1.397 . S
C451 H432 0.929 . S
C451 C448 1.404 . S
C451 N449 1.334 . S
C452 H444 0.930 . S
C452 C447 1.418 . S
C452 C448 1.353 . S
C453 H423 0.930 . S
C453 N454 1.330 . S
C453 C455 1.446 . S
N454 Co413 2.151 . S
N454 C453 1.330 . S
N454 C458 1.418 . S
C455 H434 0.929 . S
C455 C453 1.446 . S
C455 C456 1.332 1_655 S
C456 H436 0.931 . S
C456 C455 1.332 1_455 S
C456 C457 1.267 1_455 S
C457 H425 0.929 1_655 S
C457 C456 1.267 1_655 S
C457 C458 1.251 . S
C458 H428 0.929 . S
C458 N454 1.418 . S
C458 C457 1.251 . S
C459 H426 0.930 . S
C459 C461 1.406 . S
C459 C464 1.261 . S
C460 H427 0.930 1_545 S
C460 N462 1.325 . S
C460 C463 1.357 . S
C461 H429 0.928 . S
C461 C459 1.406 . S
C461 N462 1.261 . S
N462 Co413 2.214 . S
N462 C460 1.325 . S
N462 C461 1.261 . S
C463 H433 0.931 1_545 S
C463 C460 1.357 . S
C463 C464 1.312 . S
C464 H435 0.930 . S
C464 C459 1.261 . S
C464 C463 1.312 . S
C465 O437 1.214 1_565 S
C465 O445 1.234 . S
C466 H438 0.929 . S
C466 C469 1.391 . S
C466 C471 1.391 . S
C467 H439 0.929 . S
C467 C468 1.390 . S
C467 N470 1.391 . S
C468 H440 0.930 . S
C468 C467 1.390 . S
C468 C469 1.392 1_565 S
C469 H441 0.929 . S
C469 C466 1.391 . S
C469 C468 1.392 1_545 S
N470 Co414 2.257 . S
N470 C467 1.391 . S
N470 C471 1.388 1_565 S
C471 H442 0.930 . S
C471 C466 1.391 . S
C471 N470 1.388 1_545 S
C472 C473 1.363 1_455 S
C472 C478 1.379 1_556 S
C472 N480 1.356 . S
C473 C472 1.363 1_655 S
C473 C479 1.363 . S
C474 C475 1.363 1_655 S
C474 C479 1.379 1_554 S
C474 N481 1.356 . S
C475 C474 1.363 1_455 S
C475 C478 1.363 . S
N476 C478 1.356 . S
N476 H488 0.984 1_554 S
N476 H489 0.985 . S
N477 C479 1.356 . S
N477 H482 0.984 . S
N477 H483 0.985 1_556 S
C478 C472 1.379 1_554 S
C478 C475 1.363 . S
C478 N476 1.356 . S
C479 C473 1.363 . S
C479 C474 1.379 1_556 S
C479 N477 1.356 . S
N480 C472 1.356 . S
N480 H486 0.984 . S
N480 H487 0.984 . S
N481 C474 1.356 . S
N481 H484 0.984 . S
N481 H485 0.985 . S
H482 N477 0.984 . S
H483 N477 0.985 1_554 S
H484 N481 0.984 . S
H485 N481 0.985 . S
H486 N480 0.984 . S
H487 N480 0.984 . S
H488 N476 0.984 1_556 S
H489 N476 0.985 . S
C490 C491 1.363 . S
C490 C496 1.379 . S
C490 N498 1.356 . S
C491 C490 1.363 . S
C491 C497 1.363 . S
C492 C493 1.363 . S
C492 C497 1.379 . S
C492 N499 1.356 . S
C493 C492 1.363 . S
C493 C496 1.363 . S
N494 C496 1.356 . S
N494 H506 0.984 . S
N494 H507 0.985 . S
N495 C497 1.356 . S
N495 H500 0.984 . S
N495 H501 0.985 . S
C496 C490 1.379 . S
C496 C493 1.363 . S
C496 N494 1.356 . S
C497 C491 1.363 . S
C497 C492 1.379 . S
C497 N495 1.356 . S
N498 C490 1.356 . S
N498 H504 0.984 . S
N498 H505 0.984 . S
N499 C492 1.356 . S
N499 H502 0.984 . S
N499 H503 0.985 . S
H500 N495 0.984 . S
H501 N495 0.985 . S
H502 N499 0.984 . S
H503 N499 0.985 . S
H504 N498 0.984 . S
H505 N498 0.984 . S
H506 N494 0.984 . S
H507 N494 0.985 . S
C508 C509 1.363 1_545 S
C508 C514 1.379 . S
C508 N516 1.356 1_545 S
C509 C508 1.363 1_565 S
C509 C515 1.363 1_554 S
C510 C511 1.363 1_565 S
C510 C515 1.379 . S
C510 N517 1.356 1_565 S
C511 C510 1.363 1_545 S
C511 C514 1.363 1_556 S
N512 C514 1.356 1_556 S
N512 H524 0.984 1_556 S
N512 H525 0.985 . S
N513 C515 1.356 1_554 S
N513 H518 0.984 . S
N513 H519 0.985 1_554 S
C514 C508 1.379 . S
C514 C511 1.363 1_554 S
C514 N512 1.356 1_554 S
C515 C509 1.363 1_556 S
C515 C510 1.379 . S
C515 N513 1.356 1_556 S
N516 C508 1.356 1_565 S
N516 H522 0.984 1_565 S
N516 H523 0.984 . S
N517 C510 1.356 1_545 S
N517 H520 0.984 . S
N517 H521 0.985 1_545 S
H518 N513 0.984 . S
H519 N513 0.985 1_556 S
H520 N517 0.984 . S
H521 N517 0.985 1_565 S
H522 N516 0.984 1_545 S
H523 N516 0.984 . S
H524 N512 0.984 1_554 S
H525 N512 0.985 . S
C526 C527 1.363 . S
C526 C532 1.379 1_655 S
C526 N534 1.356 . S
C527 C526 1.363 . S
C527 C533 1.363 1_545 S
C528 C529 1.363 . S
C528 C533 1.379 1_455 S
C528 N535 1.356 . S
C529 C528 1.363 . S
C529 C532 1.363 1_565 S
N530 C532 1.356 . S
N530 H542 0.984 . S
N530 H543 0.985 . S
N531 C533 1.356 . S
N531 H536 0.984 . S
N531 H537 0.985 . S
C532 C526 1.379 1_455 S
C532 C529 1.363 1_545 S
C532 N530 1.356 . S
C533 C527 1.363 1_565 S
C533 C528 1.379 1_655 S
C533 N531 1.356 . S
N534 C526 1.356 . S
N534 H540 0.984 1_655 S
N534 H541 0.984 . S
N535 C528 1.356 . S
N535 H538 0.984 . S
N535 H539 0.985 1_455 S
H536 N531 0.984 . S
H537 N531 0.985 . S
H538 N535 0.984 . S
H539 N535 0.985 1_655 S
H540 N534 0.984 1_455 S
H541 N534 0.984 . S
H542 N530 0.984 . S
H543 N530 0.985 . S
C544 C545 1.363 . S
C544 C550 1.379 . S
C544 N552 1.356 . S
C545 C544 1.363 . S
C545 C551 1.363 . S
C546 C547 1.363 . S
C546 C551 1.379 . S
C546 N553 1.356 . S
C547 C546 1.363 . S
C547 C550 1.363 . S
N548 C550 1.356 . S
N548 H560 0.984 . S
N548 H561 0.985 . S
N549 C551 1.356 . S
N549 H554 0.984 . S
N549 H555 0.985 . S
C550 C544 1.379 . S
C550 C547 1.363 . S
C550 N548 1.356 . S
C551 C545 1.363 . S
C551 C546 1.379 . S
C551 N549 1.356 . S
N552 C544 1.356 . S
N552 H558 0.984 . S
N552 H559 0.984 . S
N553 C546 1.356 . S
N553 H556 0.984 . S
N553 H557 0.985 . S
H554 N549 0.984 . S
H555 N549 0.985 . S
H556 N553 0.984 . S
H557 N553 0.985 . S
H558 N552 0.984 . S
H559 N552 0.984 . S
H560 N548 0.984 . S
H561 N548 0.985 . S
C562 C563 1.363 . S
C562 C568 1.379 . S
C562 N570 1.356 . S
C563 C562 1.363 . S
C563 C569 1.363 . S
C564 C565 1.363 . S
C564 C569 1.379 . S
C564 N571 1.356 . S
C565 C564 1.363 . S
C565 C568 1.363 . S
N566 C568 1.356 . S
N566 H578 0.984 . S
N566 H579 0.985 . S
N567 C569 1.356 . S
N567 H572 0.984 . S
N567 H573 0.985 . S
C568 C562 1.379 . S
C568 C565 1.363 . S
C568 N566 1.356 . S
C569 C563 1.363 . S
C569 C564 1.379 . S
C569 N567 1.356 . S
N570 C562 1.356 . S
N570 H576 0.984 . S
N570 H577 0.984 . S
N571 C564 1.356 . S
N571 H574 0.984 . S
N571 H575 0.985 . S
H572 N567 0.984 . S
H573 N567 0.985 . S
H574 N571 0.984 . S
H575 N571 0.985 . S
H576 N570 0.984 . S
H577 N570 0.984 . S
H578 N566 0.984 . S
H579 N566 0.985 . S
C580 C581 1.363 . S
C580 C586 1.379 . S
C580 N588 1.356 . S
C581 C580 1.363 . S
C581 C587 1.363 . S
C582 C583 1.363 . S
C582 C587 1.379 . S
C582 N589 1.356 . S
C583 C582 1.363 . S
C583 C586 1.363 . S
N584 C586 1.356 . S
N584 H596 0.984 . S
N584 H597 0.985 . S
N585 C587 1.356 . S
N585 H590 0.984 . S
N585 H591 0.985 . S
C586 C580 1.379 . S
C586 C583 1.363 . S
C586 N584 1.356 . S
C587 C581 1.363 . S
C587 C582 1.379 . S
C587 N585 1.356 . S
N588 C580 1.356 . S
N588 H594 0.984 . S
N588 H595 0.984 . S
N589 C582 1.356 . S
N589 H592 0.984 . S
N589 H593 0.985 . S
H590 N585 0.984 . S
H591 N585 0.985 . S
H592 N589 0.984 . S
H593 N589 0.985 . S
H594 N588 0.984 . S
H595 N588 0.984 . S
H596 N584 0.984 . S
H597 N584 0.985 . S
C598 C599 1.363 . S
C598 C604 1.379 . S
C598 N606 1.356 . S
C599 C598 1.363 . S
C599 C605 1.363 . S
C600 C601 1.363 . S
C600 C605 1.379 . S
C600 N607 1.356 . S
C601 C600 1.363 . S
C601 C604 1.363 . S
N602 C604 1.356 . S
N602 H614 0.984 . S
N602 H615 0.985 . S
N603 C605 1.356 . S
N603 H608 0.984 . S
N603 H609 0.985 . S
C604 C598 1.379 . S
C604 C601 1.363 . S
C604 N602 1.356 . S
C605 C599 1.363 . S
C605 C600 1.379 . S
C605 N603 1.356 . S
N606 C598 1.356 . S
N606 H612 0.984 . S
N606 H613 0.984 . S
N607 C600 1.356 . S
N607 H610 0.984 . S
N607 H611 0.985 . S
H608 N603 0.984 . S
H609 N603 0.985 . S
H610 N607 0.984 . S
H611 N607 0.985 . S
H612 N606 0.984 . S
H613 N606 0.984 . S
H614 N602 0.984 . S
H615 N602 0.985 . S
C616 C617 1.363 . S
C616 C622 1.379 . S
C616 N624 1.356 . S
C617 C616 1.363 . S
C617 C623 1.363 . S
C618 C619 1.363 . S
C618 C623 1.379 . S
C618 N625 1.356 . S
C619 C618 1.363 . S
C619 C622 1.363 . S
N620 C622 1.356 . S
N620 H632 0.984 . S
N620 H633 0.985 . S
N621 C623 1.356 . S
N621 H626 0.984 . S
N621 H627 0.985 . S
C622 C616 1.379 . S
C622 C619 1.363 . S
C622 N620 1.356 . S
C623 C617 1.363 . S
C623 C618 1.379 . S
C623 N621 1.356 . S
N624 C616 1.356 . S
N624 H630 0.984 . S
N624 H631 0.984 . S
N625 C618 1.356 . S
N625 H628 0.984 . S
N625 H629 0.985 . S
H626 N621 0.984 . S
H627 N621 0.985 . S
H628 N625 0.984 . S
H629 N625 0.985 . S
H630 N624 0.984 . S
H631 N624 0.984 . S
H632 N620 0.984 . S
H633 N620 0.985 . S
C634 C635 1.363 . S
C634 C640 1.379 . S
C634 N642 1.356 . S
C635 C634 1.363 . S
C635 C641 1.363 . S
C636 C637 1.363 . S
C636 C641 1.379 . S
C636 N643 1.356 . S
C637 C636 1.363 . S
C637 C640 1.363 . S
N638 C640 1.356 . S
N638 H650 0.984 . S
N638 H651 0.985 . S
N639 C641 1.356 . S
N639 H644 0.984 . S
N639 H645 0.985 . S
C640 C634 1.379 . S
C640 C637 1.363 . S
C640 N638 1.356 . S
C641 C635 1.363 . S
C641 C636 1.379 . S
C641 N639 1.356 . S
N642 C634 1.356 . S
N642 H648 0.984 . S
N642 H649 0.984 . S
N643 C636 1.356 . S
N643 H646 0.984 . S
N643 H647 0.985 . S
H644 N639 0.984 . S
H645 N639 0.985 . S
H646 N643 0.984 . S
H647 N643 0.985 . S
H648 N642 0.984 . S
H649 N642 0.984 . S
H650 N638 0.984 . S
H651 N638 0.985 . S
C652 C653 1.363 . S
C652 C658 1.379 . S
C652 N660 1.356 . S
C653 C652 1.363 . S
C653 C659 1.363 . S
C654 C655 1.363 . S
C654 C659 1.379 . S
C654 N661 1.356 1_565 S
C655 C654 1.363 . S
C655 C658 1.363 . S
N656 C658 1.356 . S
N656 H668 0.984 . S
N656 H669 0.985 . S
N657 C659 1.356 . S
N657 H662 0.984 . S
N657 H663 0.985 1_565 S
C658 C652 1.379 . S
C658 C655 1.363 . S
C658 N656 1.356 . S
C659 C653 1.363 . S
C659 C654 1.379 . S
C659 N657 1.356 . S
N660 C652 1.356 . S
N660 H666 0.984 . S
N660 H667 0.984 . S
N661 C654 1.356 1_545 S
N661 H664 0.984 . S
N661 H665 0.985 . S
H662 N657 0.984 . S
H663 N657 0.985 1_545 S
H664 N661 0.984 . S
H665 N661 0.985 . S
H666 N660 0.984 . S
H667 N660 0.984 . S
H668 N656 0.984 . S
H669 N656 0.985 . S
C670 C671 1.363 . S
C670 C676 1.379 . S
C670 N678 1.356 1_455 S
C671 C670 1.363 . S
C671 C677 1.363 . S
C672 C673 1.363 . S
C672 C677 1.379 . S
C672 N679 1.356 . S
C673 C672 1.363 . S
C673 C676 1.363 . S
N674 C676 1.356 . S
N674 H686 0.984 1_455 S
N674 H687 0.985 . S
N675 C677 1.356 . S
N675 H680 0.984 . S
N675 H681 0.985 . S
C676 C670 1.379 . S
C676 C673 1.363 . S
C676 N674 1.356 . S
C677 C671 1.363 . S
C677 C672 1.379 . S
C677 N675 1.356 . S
N678 C670 1.356 1_655 S
N678 H684 0.984 . S
N678 H685 0.984 . S
N679 C672 1.356 . S
N679 H682 0.984 . S
N679 H683 0.985 . S
H680 N675 0.984 . S
H681 N675 0.985 . S
H682 N679 0.984 . S
H683 N679 0.985 . S
H684 N678 0.984 . S
H685 N678 0.984 . S
H686 N674 0.984 1_655 S
H687 N674 0.985 . S
C688 C689 1.363 . S
C688 C694 1.379 . S
C688 N696 1.356 . S
C689 C688 1.363 . S
C689 C695 1.363 . S
C690 C691 1.363 . S
C690 C695 1.379 . S
C690 N697 1.356 . S
C691 C690 1.363 . S
C691 C694 1.363 . S
N692 C694 1.356 . S
N692 H704 0.984 . S
N692 H705 0.985 . S
N693 C695 1.356 . S
N693 H698 0.984 . S
N693 H699 0.985 . S
C694 C688 1.379 . S
C694 C691 1.363 . S
C694 N692 1.356 . S
C695 C689 1.363 . S
C695 C690 1.379 . S
C695 N693 1.356 . S
N696 C688 1.356 . S
N696 H702 0.984 . S
N696 H703 0.984 . S
N697 C690 1.356 . S
N697 H700 0.984 . S
N697 H701 0.985 . S
H698 N693 0.984 . S
H699 N693 0.985 . S
H700 N697 0.984 . S
H701 N697 0.985 . S
H702 N696 0.984 . S
H703 N696 0.984 . S
H704 N692 0.984 . S
H705 N692 0.985 . S
C706 C707 1.363 . S
C706 C712 1.379 . S
C706 N714 1.356 . S
C707 C706 1.363 . S
C707 C713 1.363 . S
C708 C709 1.363 . S
C708 C713 1.379 . S
C708 N715 1.356 . S
C709 C708 1.363 . S
C709 C712 1.363 . S
N710 C712 1.356 . S
N710 H722 0.984 . S
N710 H723 0.985 . S
N711 C713 1.356 . S
N711 H716 0.984 . S
N711 H717 0.985 . S
C712 C706 1.379 . S
C712 C709 1.363 . S
C712 N710 1.356 . S
C713 C707 1.363 . S
C713 C708 1.379 . S
C713 N711 1.356 . S
N714 C706 1.356 . S
N714 H720 0.984 . S
N714 H721 0.984 . S
N715 C708 1.356 . S
N715 H718 0.984 . S
N715 H719 0.985 . S
H716 N711 0.984 . S
H717 N711 0.985 . S
H718 N715 0.984 . S
H719 N715 0.985 . S
H720 N714 0.984 . S
H721 N714 0.984 . S
H722 N710 0.984 . S
H723 N710 0.985 . S
C724 C725 1.363 . S
C724 C730 1.379 . S
C724 N732 1.356 . S
C725 C724 1.363 . S
C725 C731 1.363 . S
C726 C727 1.363 . S
C726 C731 1.379 . S
C726 N733 1.356 . S
C727 C726 1.363 . S
C727 C730 1.363 . S
N728 C730 1.356 1_565 S
N728 H740 0.984 . S
N728 H741 0.985 . S
N729 C731 1.356 . S
N729 H734 0.984 . S
N729 H735 0.985 . S
C730 C724 1.379 . S
C730 C727 1.363 . S
C730 N728 1.356 1_545 S
C731 C725 1.363 . S
C731 C726 1.379 . S
C731 N729 1.356 . S
N732 C724 1.356 . S
N732 H738 0.984 . S
N732 H739 0.984 . S
N733 C726 1.356 . S
N733 H736 0.984 . S
N733 H737 0.985 . S
H734 N729 0.984 . S
H735 N729 0.985 . S
H736 N733 0.984 . S
H737 N733 0.985 . S
H738 N732 0.984 . S
H739 N732 0.984 . S
H740 N728 0.984 . S
H741 N728 0.985 . S
C742 C743 1.363 . S
C742 C748 1.379 . S
C742 N750 1.356 . S
C743 C742 1.363 . S
C743 C749 1.363 . S
C744 C745 1.363 . S
C744 C749 1.379 . S
C744 N751 1.356 . S
C745 C744 1.363 . S
C745 C748 1.363 . S
N746 C748 1.356 . S
N746 H758 0.984 . S
N746 H759 0.985 . S
N747 C749 1.356 . S
N747 H752 0.984 . S
N747 H753 0.985 . S
C748 C742 1.379 . S
C748 C745 1.363 . S
C748 N746 1.356 . S
C749 C743 1.363 . S
C749 C744 1.379 . S
C749 N747 1.356 . S
N750 C742 1.356 . S
N750 H756 0.984 1_655 S
N750 H757 0.984 . S
N751 C744 1.356 . S
N751 H754 0.984 . S
N751 H755 0.985 . S
H752 N747 0.984 . S
H753 N747 0.985 . S
H754 N751 0.984 . S
H755 N751 0.985 . S
H756 N750 0.984 1_455 S
H757 N750 0.984 . S
H758 N746 0.984 . S
H759 N746 0.985 . S
C473 C241 1.522 . S
C475 C5 1.522 . S
C491 C64 1.522 . S
C493 C300 1.522 . S
C509 C123 1.522 . S
C511 C359 1.522 . S
C527 C418 1.522 . S
C529 C182 1.522 . S
C545 C3 1.444 . S
C547 C121 1.444 . S
C563 C62 1.445 . S
C565 C180 1.445 . S
C581 C357 1.444 . S
C583 C239 1.444 . S
C599 C298 1.445 . S
C601 C416 1.445 . S
C617 C347 1.346 . S
C619 C33 1.339 . S
C635 C92 1.339 . S
C637 C406 1.346 . S
C653 C151 1.339 . S
C655 C465 1.346 . S
C671 C288 1.346 . S
C673 C210 1.339 . S
C689 C269 1.339 . S
C691 C111 1.346 . S
C707 C328 1.339 . S
C709 C170 1.346 . S
C725 C387 1.339 . S
C727 C229 1.346 . S
C743 C52 1.346 . S
C745 C446 1.339 . S
