# Generated by pormake.
# Topology umh, (4)-cn, num edge types: 1
# Building blocks:
#     Node 0, Type 0, BuildingBlock: MUDLON_clean_sbu_0, # of connection points: 4
#     Node 1, Type 0, BuildingBlock: MUDLON_clean_sbu_0, # of connection points: 4
#     Node 2, Type 0, BuildingBlock: MUDLON_clean_sbu_0, # of connection points: 4
#     Node 3, Type 0, BuildingBlock: MUDLON_clean_sbu_0, # of connection points: 4
#     Node 4, Type 0, BuildingBlock: MUDLON_clean_sbu_0, # of connection points: 4
#     Node 5, Type 0, BuildingBlock: MUDLON_clean_sbu_0, # of connection points: 4
#     Node 6, Type 0, BuildingBlock: MUDLON_clean_sbu_0, # of connection points: 4
#     Node 7, Type 0, BuildingBlock: MUDLON_clean_sbu_0, # of connection points: 4
#     Node 8, Type 0, BuildingBlock: MUDLON_clean_sbu_0, # of connection points: 4
#     Node 9, Type 0, BuildingBlock: MUDLON_clean_sbu_0, # of connection points: 4
#     Node 10, Type 0, BuildingBlock: MUDLON_clean_sbu_0, # of connection points: 4
#     Node 11, Type 0, BuildingBlock: MUDLON_clean_sbu_0, # of connection points: 4
#     Node 12, Type 0, BuildingBlock: MUDLON_clean_sbu_0, # of connection points: 4
#     Node 13, Type 0, BuildingBlock: MUDLON_clean_sbu_0, # of connection points: 4
#     Node 14, Type 0, BuildingBlock: MUDLON_clean_sbu_0, # of connection points: 4
#     Node 15, Type 0, BuildingBlock: MUDLON_clean_sbu_0, # of connection points: 4
#     Edge 16, Type (0, 0), BuildingBlock: EZIPEK_clean_linker_0, # of connection points: 2
#     Edge 17, Type (0, 0), BuildingBlock: EZIPEK_clean_linker_0, # of connection points: 2
#     Edge 18, Type (0, 0), BuildingBlock: EZIPEK_clean_linker_0, # of connection points: 2
#     Edge 19, Type (0, 0), BuildingBlock: EZIPEK_clean_linker_0, # of connection points: 2
#     Edge 20, Type (0, 0), BuildingBlock: EZIPEK_clean_linker_0, # of connection points: 2
#     Edge 21, Type (0, 0), BuildingBlock: EZIPEK_clean_linker_0, # of connection points: 2
#     Edge 22, Type (0, 0), BuildingBlock: EZIPEK_clean_linker_0, # of connection points: 2
#     Edge 23, Type (0, 0), BuildingBlock: EZIPEK_clean_linker_0, # of connection points: 2
#     Edge 24, Type (0, 0), BuildingBlock: EZIPEK_clean_linker_0, # of connection points: 2
#     Edge 25, Type (0, 0), BuildingBlock: EZIPEK_clean_linker_0, # of connection points: 2
#     Edge 26, Type (0, 0), BuildingBlock: EZIPEK_clean_linker_0, # of connection points: 2
#     Edge 27, Type (0, 0), BuildingBlock: EZIPEK_clean_linker_0, # of connection points: 2
#     Edge 28, Type (0, 0), BuildingBlock: EZIPEK_clean_linker_0, # of connection points: 2
#     Edge 29, Type (0, 0), BuildingBlock: EZIPEK_clean_linker_0, # of connection points: 2
#     Edge 30, Type (0, 0), BuildingBlock: EZIPEK_clean_linker_0, # of connection points: 2
#     Edge 31, Type (0, 0), BuildingBlock: EZIPEK_clean_linker_0, # of connection points: 2
#     Edge 32, Type (0, 0), BuildingBlock: EZIPEK_clean_linker_0, # of connection points: 2
#     Edge 33, Type (0, 0), BuildingBlock: EZIPEK_clean_linker_0, # of connection points: 2
#     Edge 34, Type (0, 0), BuildingBlock: EZIPEK_clean_linker_0, # of connection points: 2
#     Edge 35, Type (0, 0), BuildingBlock: EZIPEK_clean_linker_0, # of connection points: 2
#     Edge 36, Type (0, 0), BuildingBlock: EZIPEK_clean_linker_0, # of connection points: 2
#     Edge 37, Type (0, 0), BuildingBlock: EZIPEK_clean_linker_0, # of connection points: 2
#     Edge 38, Type (0, 0), BuildingBlock: EZIPEK_clean_linker_0, # of connection points: 2
#     Edge 39, Type (0, 0), BuildingBlock: EZIPEK_clean_linker_0, # of connection points: 2
#     Edge 40, Type (0, 0), BuildingBlock: EZIPEK_clean_linker_0, # of connection points: 2
#     Edge 41, Type (0, 0), BuildingBlock: EZIPEK_clean_linker_0, # of connection points: 2
#     Edge 42, Type (0, 0), BuildingBlock: EZIPEK_clean_linker_0, # of connection points: 2
#     Edge 43, Type (0, 0), BuildingBlock: EZIPEK_clean_linker_0, # of connection points: 2
#     Edge 44, Type (0, 0), BuildingBlock: EZIPEK_clean_linker_0, # of connection points: 2
#     Edge 45, Type (0, 0), BuildingBlock: EZIPEK_clean_linker_0, # of connection points: 2
#     Edge 46, Type (0, 0), BuildingBlock: EZIPEK_clean_linker_0, # of connection points: 2
#     Edge 47, Type (0, 0), BuildingBlock: EZIPEK_clean_linker_0, # of connection points: 2
# Relax obj value: 0.037
# Max RMSD: 0.081
# Mean RMSD: 0.081
data_MOF--net-umh--node1-MUDLON_clean_sbu_0--edge1-EZIPEK_clean_linker_0
_symmetry_space_group_name_H-M    P1
_symmetry_Int_Tables_number       1
_symmetry_cell_setting            triclinic
loop_
_symmetry_equiv_pos_as_xyz
'x, y, z'
_cell_length_a     30.892253
_cell_length_b     30.977203
_cell_length_c     40.665516
_cell_angle_alpha  90.012071
_cell_angle_beta   90.1769
_cell_angle_gamma 91.52837
loop_
_atom_site_label
_atom_site_type_symbol
_atom_site_fract_x
_atom_site_fract_y
_atom_site_fract_z
_atom_type_partial_charge
Mg0 Mg 0.32315 0.07307 0.164 0.0
C1 C 0.33296 0.07448 0.09234 0.0
O2 O 0.36208 0.10275 0.10314 0.0
C3 C 0.29125 0.05962 0.23214 0.0
O4 O 0.3326 0.06817 0.23727 0.0
C5 C 0.40639 0.02725 0.16555 0.0
O6 O 0.38366 1.00348 0.14469 0.0
O7 O 0.3897 0.0605 0.17797 0.0
O8 O 0.31028 0.05305 0.11312 0.0
O9 O 0.31102 0.14095 0.16237 0.0
C10 C 0.27148 0.14818 0.15637 0.0
O11 O 0.24414 0.11563 0.15144 0.0
O12 O 0.27791 0.05379 0.20277 0.0
Mg13 Mg 0.43752 0.28834 0.65571 0.0
C14 C 0.42148 0.2997 0.58534 0.0
O15 O 0.39097 0.32138 0.59981 0.0
C16 C 0.44158 0.24413 0.71708 0.0
O17 O 0.42026 0.27965 0.72201 0.0
C18 C 0.45399 0.38743 0.66342 0.0
O19 O 0.41799 0.39103 0.6465 0.0
O20 O 0.46697 0.3502 0.67132 0.0
O21 O 0.44846 0.27968 0.60305 0.0
O22 O 0.36886 0.27576 0.662 0.0
C23 C 0.33909 0.29446 0.67747 0.0
O24 O 0.34642 0.33272 0.69058 0.0
O25 O 0.45846 0.23793 0.68899 0.0
Mg26 Mg 0.1625 0.39971 0.16245 0.0
C27 C 0.13618 0.3981 0.09422 0.0
O28 O 0.10579 0.37531 0.10931 0.0
C29 C 0.2114 0.40752 0.22293 0.0
O30 O 0.17707 0.38363 0.23039 0.0
C31 C 0.10033 0.46458 0.18017 0.0
O32 O 0.1366 0.48676 0.17547 0.0
O33 O 0.10057 0.42363 0.17836 0.0
O34 O 0.16707 0.41515 0.11087 0.0
O35 O 0.17067 0.33091 0.16334 0.0
C36 C 0.20856 0.32177 0.15386 0.0
O37 O 0.23525 0.35323 0.14474 0.0
O38 O 0.2146 0.42337 0.19418 0.0
Mg39 Mg 0.0936 0.15996 0.67206 0.0
C40 C 0.10891 0.14423 0.60108 0.0
O41 O 0.14761 0.13921 0.61367 0.0
C42 C 0.07411 0.21112 0.72956 0.0
O43 O 0.09374 0.1774 0.74139 0.0
C44 C 0.08709 0.06223 0.68476 0.0
O45 O 0.12218 0.06082 0.66667 0.0
O46 O 0.07255 0.09854 0.69326 0.0
O47 O 0.07808 0.15497 0.61989 0.0
O48 O 0.16046 0.1829 0.67351 0.0
C49 C 0.18895 0.18108 0.69599 0.0
O50 O 0.18184 0.15712 0.72216 0.0
O51 O 0.06385 0.2116 0.69923 0.0
Mg52 Mg 0.35285 0.38557 0.39834 0.0
C53 C 0.38668 0.34873 0.45668 0.0
O54 O 0.36742 0.38447 0.46475 0.0
C55 C 0.32845 0.41745 0.3335 0.0
O56 O 0.33222 0.45283 0.35118 0.0
C57 C 0.41816 0.45577 0.38908 0.0
O58 O 0.42546 0.42964 0.36436 0.0
O59 O 0.38726 0.44636 0.40871 0.0
O60 O 0.38767 0.33768 0.4265 0.0
O61 O 0.286 0.37451 0.41381 0.0
C62 C 0.27303 0.33818 0.40216 0.0
O63 O 0.30024 0.31522 0.38517 0.0
O64 O 0.34164 0.38212 0.34552 0.0
Mg65 Mg 0.14289 0.38771 0.8812 0.0
C66 C 0.14171 0.40761 0.95244 0.0
O67 O 0.15834 0.44343 0.93995 0.0
C68 C 0.0972 0.35046 0.82215 0.0
O69 O 0.09924 0.39142 0.81379 0.0
C70 C 0.12472 0.48755 0.87212 0.0
O71 O 0.16612 0.4968 0.87626 0.0
O72 O 0.11125 0.44846 0.87118 0.0
O73 O 0.13092 0.37672 0.93321 0.0
O74 O 0.21152 0.3754 0.87191 0.0
C75 C 0.23907 0.37408 0.89523 0.0
O76 O 0.22997 0.39236 0.92335 0.0
O77 O 0.11062 0.33922 0.8504 0.0
Mg78 Mg 0.11818 0.1282 0.39018 0.0
C79 C 0.08925 0.11836 0.46064 0.0
O80 O 0.05156 0.11221 0.44614 0.0
C81 C 0.16359 0.09478 0.33195 0.0
O82 O 0.12761 0.10918 0.31925 0.0
C83 C 0.0197 0.10807 0.37039 0.0
O84 O 0.01091 0.14919 0.37282 0.0
O85 O 0.0581 0.09551 0.37491 0.0
O86 O 0.12333 0.1227 0.44332 0.0
O87 O 0.13277 0.19638 0.3815 0.0
C88 C 0.12556 0.22471 0.40334 0.0
O89 O 0.09734 0.21602 0.42662 0.0
O90 O 0.16922 0.09663 0.36296 0.0
Mg91 Mg 0.40752 0.15584 0.90936 0.0
C92 C 0.33967 0.10126 0.95404 0.0
O93 O 0.31186 0.09731 0.92966 0.0
C94 C 0.4248 0.17023 0.84202 0.0
O95 O 0.4478 0.19793 0.85978 0.0
C96 C 0.47688 0.09728 0.91223 0.0
O97 O 0.44122 0.07417 0.90715 0.0
O98 O 0.47443 0.13804 0.91571 0.0
O99 O 0.37605 0.12053 0.9497 0.0
O100 O 0.38721 0.22282 0.91356 0.0
C101 C 0.35149 0.22791 0.89847 0.0
O102 O 0.33316 0.1945 0.88358 0.0
O103 O 0.40049 0.14266 0.85691 0.0
Mg104 Mg 0.69676 0.93109 0.91231 0.0
C105 C 0.67187 0.89836 0.97632 0.0
O106 O 0.65025 0.87461 0.95475 0.0
C107 C 0.74309 0.98348 0.85957 0.0
O108 O 0.70572 1.00241 0.8572 0.0
C109 C 0.63414 0.99992 0.91339 0.0
O110 O 0.66808 0.0164 0.92895 0.0
O111 O 0.6362 0.96215 0.90122 0.0
O112 O 0.69768 0.92807 0.96586 0.0
O113 O 0.70454 0.864 0.89852 0.0
C114 C 0.74208 0.85275 0.90764 0.0
O115 O 0.76729 0.88096 0.9231 0.0
O116 O 0.75037 0.95981 0.88442 0.0
Mg117 Mg 0.58265 0.68429 0.4139 0.0
C118 C 0.67692 0.70099 0.38399 0.0
O119 O 0.67163 0.66832 0.36365 0.0
C120 C 0.52286 0.61387 0.39169 0.0
O121 O 0.50257 0.64842 0.38217 0.0
C122 C 0.55841 0.72373 0.35297 0.0
O123 O 0.58657 0.69394 0.34639 0.0
O124 O 0.54578 0.72755 0.38262 0.0
O125 O 0.64812 0.70907 0.40518 0.0
O126 O 0.57895 0.68457 0.46737 0.0
C127 C 0.60642 0.65857 0.47904 0.0
O128 O 0.63175 0.63824 0.45866 0.0
O129 O 0.5612 0.61822 0.40305 0.0
Mg130 Mg 0.88199 0.61745 0.88875 0.0
C131 C 0.89606 0.62834 0.96013 0.0
O132 O 0.91905 0.6601 0.94694 0.0
C133 C 0.8423 0.55297 0.8365 0.0
O134 O 0.87433 0.52747 0.84353 0.0
C135 C 0.96925 0.57836 0.88842 0.0
O136 O 0.95019 0.55765 0.91277 0.0
O137 O 0.94884 0.60747 0.87324 0.0
O138 O 0.87589 0.60172 0.94123 0.0
O139 O 0.86161 0.68396 0.88677 0.0
C140 C 0.8222 0.6877 0.89511 0.0
O141 O 0.79955 0.65316 0.90391 0.0
O142 O 0.8373 0.58725 0.85316 0.0
Mg143 Mg 0.9079 0.865 0.39947 0.0
C144 C 0.81141 0.83512 0.38077 0.0
O145 O 0.8064 0.87144 0.3647 0.0
C146 C 0.91426 0.95323 0.3613 0.0
O147 O 0.9012 0.93218 0.3349 0.0
C148 C 0.93036 0.82264 0.33763 0.0
O149 O 0.89181 0.83823 0.33258 0.0
O150 O 0.94904 0.83001 0.36517 0.0
O151 O 0.84671 0.82833 0.39575 0.0
O152 O 0.92206 0.86335 0.45227 0.0
C153 C 0.88991 0.87451 0.46965 0.0
O154 O 0.85397 0.88443 0.45443 0.0
O155 O 0.91515 0.934 0.3889 0.0
Mg156 Mg 0.6547 0.58602 0.68201 0.0
C157 C 0.63157 0.61631 0.61656 0.0
O158 O 0.61005 0.64009 0.63731 0.0
C159 C 0.73735 0.56563 0.72065 0.0
O160 O 0.75248 0.60011 0.70548 0.0
C161 C 0.59059 0.51628 0.67927 0.0
O162 O 0.62645 0.50096 0.66716 0.0
O163 O 0.59111 0.55498 0.69001 0.0
O164 O 0.65631 0.58749 0.62803 0.0
O165 O 0.66742 0.65396 0.69517 0.0
C166 C 0.69884 0.66999 0.67849 0.0
O167 O 0.71693 0.64602 0.65608 0.0
O168 O 0.70045 0.54959 0.71245 0.0
Mg169 Mg 0.91588 0.66338 0.17167 0.0
C170 C 0.84248 0.7188 0.18236 0.0
O171 O 0.87344 0.74536 0.17219 0.0
C172 C 0.97627 0.59456 0.17853 0.0
O173 O 0.99851 0.62657 0.16501 0.0
C174 C 0.94338 0.70832 0.23119 0.0
O175 O 0.91593 0.67764 0.24058 0.0
O176 O 0.95404 0.70991 0.20096 0.0
O177 O 0.84991 0.67868 0.18464 0.0
O178 O 0.92079 0.66569 0.11793 0.0
C179 C 0.89483 0.64019 0.10242 0.0
O180 O 0.86706 0.61611 0.11916 0.0
O181 O 0.93675 0.59973 0.18571 0.0
Mg182 Mg 0.86894 0.89349 0.68384 0.0
C183 C 0.87317 0.8737 0.61195 0.0
O184 O 0.87096 0.83495 0.62506 0.0
C185 C 0.84222 0.93402 0.7461 0.0
O186 O 0.87601 0.91191 0.75492 0.0
C187 C 0.9456 0.94439 0.69772 0.0
O188 O 0.91453 0.9716 0.69221 0.0
O189 O 0.93646 0.90409 0.69763 0.0
O190 O 0.87043 0.90641 0.63082 0.0
O191 O 0.8381 0.82994 0.69003 0.0
C192 C 0.7976 0.83005 0.68395 0.0
O193 O 0.77982 0.86652 0.67557 0.0
O194 O 0.83122 0.93482 0.71587 0.0
Mg195 Mg 0.61147 0.8618 0.18225 0.0
C196 C 0.68107 0.80334 0.20577 0.0
O197 O 0.64691 0.78183 0.21672 0.0
C198 C 0.55228 0.92844 0.18179 0.0
O199 O 0.53491 0.89415 0.16742 0.0
C200 C 0.57017 0.82815 0.24112 0.0
O201 O 0.59803 0.8586 0.25048 0.0
O202 O 0.56627 0.82106 0.21041 0.0
O203 O 0.67672 0.84084 0.19353 0.0
O204 O 0.60955 0.86372 0.12861 0.0
C205 C 0.63913 0.84704 0.11142 0.0
O206 O 0.66623 0.82078 0.1255 0.0
O207 O 0.5906 0.92653 0.19325 0.0
C208 C 0.29585 0.10233 1.00653 0.0
C209 C 0.32957 0.08438 0.98757 0.0
C210 C 0.35919 0.05062 0.03716 0.0
C211 C 0.32661 0.06993 0.05625 0.0
N212 N 0.25795 0.10464 0.05879 0.0
N213 N 0.3855 0.0322 0.98281 0.0
C214 C 0.29271 0.09231 0.0407 0.0
C215 C 0.35868 0.05541 1.00233 0.0
N216 N 0.2688 0.13136 0.99253 0.0
N217 N 0.39148 0.02896 0.05254 0.0
H218 H 0.38502 0.03452 0.95721 0.0
H219 H 0.40514 0.00791 0.99153 0.0
H220 H 0.39116 0.02258 0.07773 0.0
H221 H 0.41931 0.01888 0.04074 0.0
H222 H 0.24748 0.14997 1.00588 0.0
H223 H 0.26925 0.13888 0.96759 0.0
H224 H 0.23019 0.11753 0.04857 0.0
H225 H 0.25522 0.09844 0.08391 0.0
C226 C 0.44398 0.33772 0.49893 0.0
C227 C 0.40534 0.32253 0.48341 0.0
C228 C 0.38633 0.2793 0.53195 0.0
C229 C 0.42226 0.29849 0.54884 0.0
N230 N 0.49112 0.33654 0.54703 0.0
N231 N 0.34558 0.27153 0.48074 0.0
C232 C 0.45339 0.3242 0.53165 0.0
C233 C 0.37872 0.29034 0.49844 0.0
N234 N 0.4702 0.36692 0.48279 0.0
N235 N 0.3587 0.252 0.54865 0.0
H236 H 0.33979 0.2794 0.4562 0.0
H237 H 0.32567 0.24639 0.48926 0.0
H238 H 0.36512 0.24165 0.57257 0.0
H239 H 0.32939 0.23996 0.53938 0.0
H240 H 0.49655 0.38325 0.49341 0.0
H241 H 0.4648 0.37547 0.4583 0.0
H242 H 0.51654 0.35327 0.53562 0.0
H243 H 0.49839 0.32736 0.57104 0.0
C244 C 0.11845 0.43717 1.00683 0.0
C245 C 0.13753 0.40342 0.98865 0.0
C246 C 0.14937 0.36366 0.03982 0.0
C247 C 0.13625 0.40004 0.058 0.0
N248 N 0.11218 0.47339 0.05942 0.0
N249 N 0.17918 0.33831 0.98885 0.0
C250 C 0.1221 0.43752 0.04168 0.0
C251 C 0.1549 0.36745 1.00534 0.0
N252 N 0.09508 0.46772 0.9909 0.0
N253 N 0.15642 0.32535 0.05536 0.0
H254 H 0.18595 0.34077 0.96391 0.0
H255 H 0.19647 0.31428 1.00056 0.0
H256 H 0.15364 0.32135 0.08073 0.0
H257 H 0.16143 0.29662 0.04277 0.0
H258 H 0.07716 0.4908 1.00306 0.0
H259 H 0.08969 0.46719 0.96557 0.0
H260 H 0.10613 0.50316 0.04867 0.0
H261 H 0.11316 0.47429 0.08506 0.0
C262 C 0.11549 0.09758 0.55077 0.0
C263 C 0.10177 0.13667 0.56536 0.0
C264 C 0.0738 0.16029 0.51199 0.0
C265 C 0.09177 0.12351 0.49684 0.0
N266 N 0.13318 0.05884 0.50097 0.0
N267 N 0.07591 0.20899 0.55856 0.0
C268 C 0.11378 0.09274 0.516 0.0
C269 C 0.08277 0.16895 0.5457 0.0
N270 N 0.1284 0.06422 0.57019 0.0
N271 N 0.04826 0.18723 0.49428 0.0
H272 H 0.08348 0.21739 0.58276 0.0
H273 H 0.06689 0.2353 0.54441 0.0
H274 H 0.04206 0.18342 0.46926 0.0
H275 H 0.03025 0.21142 0.505 0.0
H276 H 0.13378 0.0333 0.56133 0.0
H277 H 0.13012 0.06607 0.59572 0.0
H278 H 0.1545 0.03861 0.51297 0.0
H279 H 0.13003 0.0523 0.47591 0.0
C280 C 0.68997 0.87608 0.06779 0.0
C281 C 0.64736 0.86266 0.07727 0.0
C282 C 0.62084 0.885 1.02322 0.0
C283 C 0.66415 0.89052 1.01196 0.0
N284 N 0.74074 0.88438 1.023 0.0
N285 N 0.57282 0.84842 0.06161 0.0
C286 C 0.69903 0.88432 1.03409 0.0
C287 C 0.61284 0.86566 0.05437 0.0
N288 N 0.72143 0.88322 0.09102 0.0
N289 N 0.58731 0.89955 1.00463 0.0
H290 H 0.5659 0.83242 0.0836 0.0
H291 H 0.54779 0.84608 0.04441 0.0
H292 H 0.592 0.91586 0.98243 0.0
H293 H 0.55549 0.8999 1.01306 0.0
H294 H 0.75178 0.89677 0.08546 0.0
H295 H 0.71569 0.88076 0.1162 0.0
H296 H 0.76662 0.87508 0.03766 0.0
H297 H 0.74918 0.88975 0.99854 0.0
C298 C 0.66053 0.64088 0.56154 0.0
C299 C 0.62566 0.62378 0.58063 0.0
C300 C 0.57715 0.62952 0.53267 0.0
C301 C 0.61105 0.65045 0.51486 0.0
N302 N 0.68216 0.68414 0.51439 0.0
N303 N 0.54912 0.60646 0.58555 0.0
C304 C 0.65198 0.65833 0.5299 0.0
C305 C 0.58343 0.61967 0.56656 0.0
N306 N 0.70193 0.64031 0.57338 0.0
N307 N 0.53971 0.61708 0.51687 0.0
H308 H 0.55237 0.59603 0.60977 0.0
H309 H 0.517 0.60817 0.57791 0.0
H310 H 0.5337 0.62389 0.49219 0.0
H311 H 0.51597 0.59708 0.52744 0.0
H312 H 0.72902 0.64829 0.55924 0.0
H313 H 0.70978 0.62782 0.59628 0.0
H314 H 0.71096 0.6949 0.5254 0.0
H315 H 0.67634 0.69864 0.49171 0.0
C316 C 0.85581 0.63631 1.01336 0.0
C317 C 0.89415 0.62508 0.99666 0.0
C318 C 0.93236 0.62019 0.04975 0.0
C319 C 0.89556 0.63659 0.06589 0.0
N320 N 0.82449 0.66658 0.06255 0.0
N321 N 0.96966 0.60758 0.99833 0.0
C322 C 0.85775 0.64606 0.04757 0.0
C323 C 0.93267 0.61743 1.01474 0.0
N324 N 0.81744 0.63763 0.99661 0.0
N325 N 0.96622 0.60543 0.06794 0.0
H326 H 0.9701 0.60136 0.97314 0.0
H327 H 1.00012 0.60723 1.00934 0.0
H328 H 0.96724 0.60692 0.09355 0.0
H329 H 0.99181 0.58864 0.05796 0.0
H330 H 0.78764 0.64121 1.00805 0.0
H331 H 0.81476 0.63134 0.97151 0.0
H332 H 0.79806 0.67863 0.0499 0.0
H333 H 0.82534 0.67548 0.08726 0.0
C334 C 0.91125 0.84548 0.52593 0.0
C335 C 0.89175 0.87765 0.50637 0.0
C336 C 0.85959 0.90819 0.55619 0.0
C337 C 0.8819 0.87818 0.57594 0.0
N338 N 0.94143 0.82916 0.57923 0.0
N339 N 0.86053 0.94844 0.5053 0.0
C340 C 0.91166 0.85021 0.56071 0.0
C341 C 0.87006 0.91182 0.52226 0.0
N342 N 0.92718 0.80913 0.51194 0.0
N343 N 0.82682 0.93162 0.56899 0.0
H344 H 0.87038 0.95372 0.48108 0.0
H345 H 0.84784 0.97554 0.51656 0.0
H346 H 0.81619 0.92849 0.59317 0.0
H347 H 0.80711 0.95076 0.55449 0.0
H348 H 0.9378 0.78317 0.52585 0.0
H349 H 0.92556 0.80262 0.48685 0.0
H350 H 0.966 0.81123 0.56885 0.0
H351 H 0.945 0.83414 0.60447 0.0
C352 C 0.22048 0.25206 0.1836 0.0
C353 C 0.2238 0.27689 0.15432 0.0
C354 C 0.26297 0.21861 0.12764 0.0
C355 C 0.25567 0.19254 0.15577 0.0
N356 N 0.22096 0.18099 0.20825 0.0
N357 N 0.24234 0.28151 0.09665 0.0
C358 C 0.23225 0.20815 0.18301 0.0
C359 C 0.24361 0.25962 0.12583 0.0
N360 N 0.20877 0.271 0.21249 0.0
N361 N 0.28851 0.20425 0.10271 0.0
H362 H 0.2285 0.3116 0.09408 0.0
H363 H 0.25164 0.26834 0.07428 0.0
H364 H 0.30173 0.17362 0.10255 0.0
H365 H 0.29916 0.22369 0.08332 0.0
H366 H 0.21038 0.25553 0.23519 0.0
H367 H 0.20187 0.30362 0.21448 0.0
H368 H 0.19987 0.18944 0.22698 0.0
H369 H 0.22985 0.14877 0.20913 0.0
C370 C 0.28059 0.26311 0.71486 0.0
C371 C 0.29786 0.26958 0.68278 0.0
C372 C 0.24981 0.21164 0.66205 0.0
C373 C 0.2285 0.20922 0.69285 0.0
N374 N 0.21765 0.24129 0.74648 0.0
N375 N 0.2904 0.25721 0.62438 0.0
C376 C 0.24209 0.2374 0.71874 0.0
C377 C 0.27973 0.2461 0.6559 0.0
N378 N 0.30188 0.27911 0.74192 0.0
N379 N 0.24298 0.17999 0.63907 0.0
H380 H 0.31066 0.28368 0.61884 0.0
H381 H 0.27527 0.24327 0.60387 0.0
H382 H 0.22375 0.15248 0.64366 0.0
H383 H 0.26052 0.17851 0.61726 0.0
H384 H 0.29275 0.27101 0.76585 0.0
H385 H 0.33111 0.29651 0.74076 0.0
H386 H 0.22434 0.26457 0.76443 0.0
H387 H 0.18827 0.22473 0.75004 0.0
C388 C 0.21645 0.29983 0.43552 0.0
C389 C 0.22808 0.321 0.40594 0.0
C390 C 0.16318 0.2898 0.37904 0.0
C391 C 0.15645 0.26223 0.40646 0.0
N392 N 0.1804 0.2377 0.46006 0.0
N393 N 0.21351 0.33627 0.34895 0.0
C394 C 0.18339 0.26693 0.4349 0.0
C395 C 0.20132 0.3165 0.37763 0.0
N396 N 0.2381 0.31007 0.46394 0.0
N397 N 0.13297 0.29041 0.35443 0.0
H398 H 0.24051 0.35707 0.34746 0.0
H399 H 0.19843 0.3303 0.32641 0.0
H400 H 0.10457 0.27141 0.35508 0.0
H401 H 0.134 0.31246 0.33511 0.0
H402 H 0.2285 0.29872 0.48697 0.0
H403 H 0.26315 0.33329 0.46486 0.0
H404 H 0.20258 0.23672 0.47936 0.0
H405 H 0.1584 0.2117 0.46051 0.0
C406 C 0.28433 0.26452 0.9148 0.0
C407 C 0.32647 0.26803 0.90131 0.0
C408 C 0.31329 0.34349 0.88621 0.0
C409 C 0.26942 0.33771 0.8959 0.0
N410 N 0.21107 0.28963 0.91351 0.0
N411 N 0.38043 0.3093 0.87124 0.0
C412 C 0.25435 0.29734 0.90854 0.0
C413 C 0.34104 0.30727 0.88642 0.0
N414 N 0.27333 0.23018 0.93447 0.0
N415 N 0.32837 0.38353 0.87702 0.0
H416 H 0.40163 0.28366 0.87139 0.0
H417 H 0.39093 0.33527 0.85682 0.0
H418 H 0.30842 0.41014 0.87567 0.0
H419 H 0.36097 0.39095 0.87286 0.0
H420 H 0.24451 0.228 0.94768 0.0
H421 H 0.29512 0.20623 0.94047 0.0
H422 H 0.19799 0.25925 0.91936 0.0
H423 H 0.18764 0.31244 0.90883 0.0
C424 C 0.76602 0.79147 0.87183 0.0
C425 C 0.75734 0.80819 0.90356 0.0
C426 C 0.79598 0.74872 0.92898 0.0
C427 C 0.80221 0.73041 0.8975 0.0
N428 N 0.78654 0.72955 0.83942 0.0
N429 N 0.75458 0.79754 0.96222 0.0
C430 C 0.78525 0.75035 0.869 0.0
C431 C 0.7695 0.78517 0.93213 0.0
N432 N 0.75787 0.81564 0.84449 0.0
N433 N 0.81655 0.73209 0.95576 0.0
H434 H 0.73372 0.82318 0.96514 0.0
H435 H 0.75901 0.77976 0.98364 0.0
H436 H 0.83724 0.70614 0.95408 0.0
H437 H 0.81655 0.74651 0.97889 0.0
H438 H 0.76818 0.80733 0.82102 0.0
H439 H 0.7434 0.84563 0.84553 0.0
H440 H 0.76963 0.73979 0.81881 0.0
H441 H 0.80163 0.70011 0.8362 0.0
C442 C 0.73796 0.74258 0.41042 0.0
C443 C 0.71466 0.73155 0.38143 0.0
C444 C 0.75863 0.78498 0.35081 0.0
C445 C 0.77696 0.80051 0.3808 0.0
N446 N 0.77663 0.79894 0.44023 0.0
N447 N 0.69742 0.74843 0.32483 0.0
C448 C 0.76468 0.78053 0.41094 0.0
C449 C 0.72356 0.75426 0.35173 0.0
N450 N 0.73522 0.71629 0.43735 0.0
N451 N 0.77568 0.79793 0.32136 0.0
H452 H 0.67075 0.72715 0.32441 0.0
H453 H 0.6999 0.76777 0.3039 0.0
H454 H 0.80212 0.81936 0.31935 0.0
H455 H 0.76644 0.7837 0.29911 0.0
H456 H 0.7546 0.7207 0.45817 0.0
H457 H 0.71701 0.68742 0.43742 0.0
H458 H 0.76514 0.78783 0.46285 0.0
H459 H 0.79388 0.8282 0.44176 0.0
C460 C 0.74822 0.77734 0.65466 0.0
C461 C 0.77068 0.78963 0.68386 0.0
C462 C 0.74022 0.72565 0.71218 0.0
C463 C 0.71654 0.71451 0.68328 0.0
N464 N 0.68976 0.7347 0.63 0.0
N465 N 0.78225 0.78022 0.74205 0.0
C466 C 0.71792 0.74211 0.65551 0.0
C467 C 0.76498 0.76517 0.71315 0.0
N468 N 0.7576 0.79777 0.62562 0.0
N469 N 0.74079 0.6976 0.73811 0.0
H470 H 0.80146 0.80831 0.74369 0.0
H471 H 0.77494 0.76664 0.76481 0.0
H472 H 0.72164 0.66942 0.73899 0.0
H473 H 0.76189 0.70104 0.75802 0.0
H474 H 0.74583 0.78712 0.60292 0.0
H475 H 0.7805 0.82296 0.6236 0.0
H476 H 0.68619 0.75589 0.61035 0.0
H477 H 0.66673 0.70945 0.6302 0.0
C478 C 0.79775 0.76862 0.21569 0.0
C479 C 0.79984 0.7364 0.19092 0.0
C480 C 0.72287 0.74509 0.17845 0.0
C481 C 0.72197 0.78028 0.20099 0.0
N482 N 0.7589 0.82847 0.23889 0.0
N483 N 0.76625 0.69676 0.14619 0.0
C484 C 0.75958 0.79297 0.21894 0.0
C485 C 0.76276 0.72495 0.17189 0.0
N486 N 0.8318 0.77464 0.23692 0.0
N487 N 0.68569 0.7311 0.16297 0.0
H488 H 0.79449 0.68047 0.141 0.0
H489 H 0.74221 0.69152 0.12854 0.0
H490 H 0.65657 0.74721 0.16418 0.0
H491 H 0.68296 0.7021 0.15009 0.0
H492 H 0.83128 0.79494 0.2573 0.0
H493 H 0.85944 0.75609 0.23594 0.0
H494 H 0.78648 0.84246 0.24966 0.0
H495 H 0.73092 0.8457 0.24323 0.0
C496 C 0.19634 0.04363 0.29153 0.0
C497 C 0.19914 0.08292 0.30951 0.0
C498 C 0.26038 0.10756 0.27557 0.0
C499 C 0.25974 0.06699 0.25908 0.0
N500 N 0.23178 0.99387 0.25478 0.0
N501 N 0.23807 0.14929 0.32265 0.0
C502 C 0.22896 0.03427 0.268 0.0
C503 C 0.23279 0.11371 0.30297 0.0
N504 N 0.16208 0.0156 0.29659 0.0
N505 N 0.28498 0.14141 0.2636 0.0
H506 H 0.21737 0.15624 0.34203 0.0
H507 H 0.26506 0.17011 0.3215 0.0
H508 H 0.30372 0.13952 0.24242 0.0
H509 H 0.28302 0.1729 0.27232 0.0
H510 H 0.15524 0.98895 0.28167 0.0
H511 H 0.13891 0.02038 0.31476 0.0
H512 H 0.21317 0.96737 0.26268 0.0
H513 H 0.25535 0.98593 0.23766 0.0
C514 C 0.47635 0.20068 0.76168 0.0
C515 C 0.43937 0.2103 0.74281 0.0
C516 C 0.39168 0.17983 0.78546 0.0
C517 C 0.42857 0.17306 0.80558 0.0
N518 N 0.50556 0.16303 0.80876 0.0
N519 N 0.36439 0.19496 0.73071 0.0
C520 C 0.47081 0.17857 0.7921 0.0
C521 C 0.39786 0.19487 0.75274 0.0
N522 N 0.51634 0.2151 0.75164 0.0
N523 N 0.35089 0.17527 0.79807 0.0
H524 H 0.36864 0.20525 0.70646 0.0
H525 H 0.33405 0.18084 0.73535 0.0
H526 H 0.34444 0.16308 0.82141 0.0
H527 H 0.32335 0.1857 0.78589 0.0
H528 H 0.54399 0.21394 0.76628 0.0
H529 H 0.52144 0.23021 0.72901 0.0
H530 H 0.53672 0.1626 0.7991 0.0
H531 H 0.50228 0.14683 0.83113 0.0
C532 C 0.23267 0.43816 0.27719 0.0
C533 C 0.24477 0.41583 0.2485 0.0
C534 C 0.31506 0.40033 0.27365 0.0
C535 C 0.30028 0.41731 0.30387 0.0
N536 N 0.24074 0.44429 0.33599 0.0
N537 N 0.29552 0.37125 0.22014 0.0
C538 C 0.25806 0.43445 0.30606 0.0
C539 C 0.28562 0.39595 0.24676 0.0
N540 N 0.19689 0.46318 0.27675 0.0
N541 N 0.3574 0.38943 0.27037 0.0
H542 H 0.27517 0.36795 0.1998 0.0
H543 H 0.32243 0.35173 0.21921 0.0
H544 H 0.37986 0.39253 0.28949 0.0
H545 H 0.37111 0.38098 0.24798 0.0
H546 H 0.18885 0.48367 0.29599 0.0
H547 H 0.17786 0.46689 0.25574 0.0
H548 H 0.20856 0.45262 0.33906 0.0
H549 H 0.25649 0.43902 0.35827 0.0
C550 C 0.10651 0.28332 0.74423 0.0
C551 C 0.07396 0.25093 0.74974 0.0
C552 C 0.05204 0.28802 0.8002 0.0
C553 C 0.08793 0.31716 0.79671 0.0
N554 N 0.15381 0.33826 0.76839 0.0
N555 N 0.01706 0.22031 0.78348 0.0
C556 C 0.11611 0.31404 0.76932 0.0
C557 C 0.04694 0.25279 0.77785 0.0
N558 N 0.12893 0.28438 0.71527 0.0
N559 N 0.02237 0.29466 0.82443 0.0
H560 H 0.01084 0.19547 0.76663 0.0
H561 H 0.99996 0.21677 0.80537 0.0
H562 H 0.02532 0.32009 0.84119 0.0
H563 H 0.99323 0.27722 0.82641 0.0
H564 H 0.14948 0.30998 0.7084 0.0
H565 H 0.1246 0.26147 0.69674 0.0
H566 H 0.17808 0.33379 0.75112 0.0
H567 H 0.16308 0.36017 0.78672 0.0
C568 C 0.74947 0.9423 0.80699 0.0
C569 C 0.7669 0.97417 0.82887 0.0
C570 C 0.82941 0.98563 0.7924 0.0
C571 C 0.81386 0.95117 0.77217 0.0
N572 N 0.76204 0.893 0.76205 0.0
N573 N 0.82424 0.02422 0.84433 0.0
C574 C 0.77438 0.92888 0.7797 0.0
C575 C 0.80708 0.99545 0.82205 0.0
N576 N 0.70907 0.92452 0.81241 0.0
N577 N 0.86513 0.00936 0.7828 0.0
H578 H 0.80796 0.03299 0.86566 0.0
H579 H 0.85542 0.0376 0.84281 0.0
H580 H 0.88191 1.00294 0.76117 0.0
H581 H 0.87628 0.03728 0.79466 0.0
H582 H 0.69221 0.90576 0.79514 0.0
H583 H 0.69092 0.93035 0.83342 0.0
H584 H 0.73721 0.8716 0.76907 0.0
H585 H 0.77862 0.8826 0.74141 0.0
C586 C 0.53673 0.73119 0.29433 0.0
C587 C 0.54343 0.75132 0.32535 0.0
C588 C 0.54082 0.82138 0.29784 0.0
C589 C 0.54841 0.80114 0.26715 0.0
N590 N 0.54876 0.73433 0.23577 0.0
N591 N 0.55083 0.81778 0.35663 0.0
C592 C 0.54394 0.75535 0.26499 0.0
C593 C 0.54404 0.7971 0.32734 0.0
N594 N 0.52328 0.68885 0.29309 0.0
N595 N 0.53078 0.86401 0.2986 0.0
H596 H 0.55296 0.80199 0.3791 0.0
H597 H 0.557 0.85095 0.3583 0.0
H598 H 0.52666 0.8818 0.27706 0.0
H599 H 0.52165 0.87986 0.32 0.0
H600 H 0.51418 0.67319 0.27137 0.0
H601 H 0.51659 0.67099 0.31434 0.0
H602 H 0.55278 0.7011 0.23421 0.0
H603 H 0.54964 0.74955 0.21304 0.0
C604 C 0.7688 0.5464 0.8103 0.0
C605 C 0.81444 0.54533 0.80691 0.0
C606 C 0.80538 0.54065 0.74692 0.0
C607 C 0.76108 0.55039 0.75021 0.0
N608 N 0.70092 0.56667 0.78573 0.0
N609 N 0.8769 0.54613 0.77101 0.0
C610 C 0.74255 0.55363 0.78208 0.0
C611 C 0.83302 0.54288 0.77498 0.0
N612 N 0.75054 0.54034 0.84056 0.0
N613 N 0.82106 0.52951 0.7168 0.0
H614 H 0.89865 0.5493 0.79048 0.0
H615 H 0.89167 0.54961 0.74814 0.0
H616 H 0.80135 0.52741 0.69592 0.0
H617 H 0.85212 0.51809 0.71327 0.0
H618 H 0.71727 0.53668 0.84416 0.0
H619 H 0.76893 0.53445 0.86158 0.0
H620 H 0.68776 0.57474 0.8084 0.0
H621 H 0.68033 0.57277 0.76605 0.0
C622 C 0.95038 0.81424 0.27861 0.0
C623 C 0.94995 0.79677 0.31087 0.0
C624 C 0.96824 0.72646 0.28792 0.0
C625 C 0.95765 0.74138 0.25599 0.0
N626 N 0.9415 0.80145 0.22031 0.0
N627 N 0.95892 0.73529 0.34659 0.0
C628 C 0.95071 0.78608 0.25095 0.0
C629 C 0.96016 0.75284 0.31578 0.0
N630 N 0.95049 0.858 0.27457 0.0
N631 N 0.98576 0.68671 0.29141 0.0
H632 H 0.95346 0.75324 0.36774 0.0
H633 H 0.96064 0.70226 0.351 0.0
H634 H 0.99267 0.66743 0.27114 0.0
H635 H 0.99762 0.67515 0.31364 0.0
H636 H 0.955 0.87326 0.25197 0.0
H637 H 0.95045 0.87914 0.29449 0.0
H638 H 0.92922 0.83195 0.21612 0.0
H639 H 0.94465 0.78347 0.19893 0.0
C640 C 0.4612 0.9979 0.20506 0.0
C641 C 0.45122 0.01504 0.1736 0.0
C642 C 0.51926 0.98884 0.15149 0.0
C643 C 0.5271 0.96828 0.18195 0.0
N644 N 0.51451 0.96366 0.23997 0.0
N645 N 0.47567 0.03875 0.12034 0.0
C646 C 0.50119 0.97684 0.20964 0.0
C647 C 0.48215 0.01459 0.14796 0.0
N648 N 0.43126 0.99897 0.22969 0.0
N649 N 0.54624 0.98167 0.1256 0.0
H650 H 0.44891 0.05833 0.11761 0.0
H651 H 0.49825 0.04242 0.10154 0.0
H652 H 0.57486 0.96478 0.12827 0.0
H653 H 0.53988 0.99115 0.10155 0.0
H654 H 0.4344 0.98277 0.25195 0.0
H655 H 0.40191 0.01449 0.22729 0.0
H656 H 0.4989 0.97129 0.26177 0.0
H657 H 0.54385 0.94831 0.24341 0.0
C658 C 0.53635 0.47745 0.64361 0.0
C659 C 0.54984 0.48996 0.67571 0.0
C660 C 0.49328 0.44205 0.69934 0.0
C661 C 0.48406 0.42537 0.66747 0.0
N662 N 0.49958 0.42401 0.60931 0.0
N663 N 0.543 0.48328 0.73448 0.0
C664 C 0.50591 0.44261 0.63954 0.0
C665 C 0.52838 0.47249 0.70373 0.0
N666 N 0.55251 0.4993 0.61693 0.0
N667 N 0.46805 0.4291 0.72526 0.0
H668 H 0.56791 0.50607 0.73854 0.0
H669 H 0.53229 0.46801 0.75587 0.0
H670 H 0.44238 0.40673 0.72273 0.0
H671 H 0.47015 0.44291 0.74856 0.0
H672 H 0.5405 0.49519 0.59315 0.0
H673 H 0.57541 0.52451 0.61896 0.0
H674 H 0.51849 0.43153 0.58884 0.0
H675 H 0.4776 0.3985 0.60504 0.0
C676 C 0.055 0.51441 0.21253 0.0
C677 C 0.05967 0.48823 0.18427 0.0
C678 C 0.9969 0.52192 0.15878 0.0
C679 C 0.99778 0.55319 0.18416 0.0
N680 N 0.02492 0.57904 0.23623 0.0
N681 N 0.0353 0.46594 0.13027 0.0
C682 C 0.02559 0.54894 0.21167 0.0
C683 C 0.02999 0.49088 0.15762 0.0
N684 N 0.0788 0.50595 0.24006 0.0
N685 N 0.9648 0.52253 0.1356 0.0
H686 H 0.05836 0.44213 0.12882 0.0
H687 H 0.01848 0.47021 0.10835 0.0
H688 H 0.94048 0.54528 0.13588 0.0
H689 H 0.95993 0.49856 0.11793 0.0
H690 H 0.07494 0.5216 0.26246 0.0
H691 H 0.09997 0.48028 0.2412 0.0
H692 H 0.04763 0.58111 0.25515 0.0
H693 H 1.00205 0.60321 0.23694 0.0
C694 C 1.00751 0.98373 0.72518 0.0
C695 C 0.99073 0.96147 0.69733 0.0
C696 C 0.04177 1.00038 0.66163 0.0
C697 C 0.05884 0.0231 0.68944 0.0
N698 N 0.06553 0.02886 0.74831 0.0
N699 N 1.00009 0.93841 0.6414 0.0
C700 C 0.04424 0.01211 0.72151 0.0
C701 C 0.01124 0.96594 0.66647 0.0
N702 N 0.98712 0.97905 0.75477 0.0
N703 N 0.05101 0.0143 0.63047 0.0
H704 H 0.97714 0.91337 0.64418 0.0
H705 H 0.01669 0.93766 0.61915 0.0
H706 H 0.07027 0.0415 0.62546 0.0
H707 H 0.03575 1.00173 0.60955 0.0
H708 H 0.99427 0.99822 0.77522 0.0
H709 H 0.96155 0.95683 0.75832 0.0
H710 H 0.05874 0.01948 0.77237 0.0
H711 H 0.09272 0.0494 0.74619 0.0
C712 C 0.51588 0.53278 0.38368 0.0
C713 C 0.49814 0.57213 0.39429 0.0
C714 C 0.42739 0.53569 0.4012 0.0
C715 C 0.44583 0.49553 0.39328 0.0
N716 N 0.51125 0.45493 0.38763 0.0
N717 N 0.44121 0.60612 0.42486 0.0
C718 C 0.49123 0.49373 0.38774 0.0
C719 C 0.45518 0.57212 0.40669 0.0
N720 N 0.55524 0.53254 0.36848 0.0
N721 N 0.38353 0.54018 0.40178 0.0
H722 H 0.46151 0.63204 0.43172 0.0
H723 H 0.41125 0.60574 0.43661 0.0
H724 H 0.36146 0.51539 0.39591 0.0
H725 H 0.36923 0.57009 0.40446 0.0
H726 H 0.56738 0.505 0.35747 0.0
H727 H 0.5738 0.56049 0.364 0.0
H728 H 0.54478 0.45235 0.38645 0.0
H729 H 0.49496 0.42581 0.39282 0.0
C730 C 0.06181 0.52275 0.84547 0.0
C731 C 0.09176 0.52172 0.87197 0.0
C732 C 0.04752 0.57281 0.90238 0.0
C733 C 0.01385 0.5665 0.87907 0.0
N734 N 0.9884 0.53641 0.82768 0.0
N735 N 0.11281 0.54524 0.92662 0.0
C736 C 0.02112 0.54246 0.85001 0.0
C737 C 0.0851 0.54737 0.90045 0.0
N738 N 0.07255 0.50483 0.81599 0.0
N739 N 0.04346 0.60344 0.92626 0.0
H740 H 0.14109 0.52776 0.92634 0.0
H741 H 0.10634 0.55862 0.94952 0.0
H742 H 0.0166 0.62314 0.92748 0.0
H743 H 0.0683 0.61243 0.94243 0.0
H744 H 0.05392 0.50751 0.79475 0.0
H745 H 0.10242 0.49073 0.81206 0.0
H746 H 0.98965 0.5148 0.80812 0.0
H747 H 0.95887 0.55164 0.82966 0.0
C748 C 0.97215 1.00359 0.33816 0.0
C749 C 0.93544 0.99687 0.35873 0.0
C750 C 0.94981 0.06758 0.38455 0.0
C751 C 0.9855 0.07468 0.36304 0.0
N752 N 0.02158 0.05563 0.31292 0.0
N753 N 0.88312 0.02689 0.39545 0.0
C754 C 0.99337 0.04476 0.33757 0.0
C755 C 0.92218 0.03046 0.37989 0.0
N756 N 0.98935 0.96995 0.32136 0.0
N757 N 0.94384 0.09443 0.41072 0.0
H758 H 0.8621 1.00026 0.39228 0.0
H759 H 0.86982 0.05199 0.40878 0.0
H760 H 0.96318 0.12184 0.41523 0.0
H761 H 0.92161 0.08774 0.42936 0.0
H762 H 0.01869 0.9724 0.30884 0.0
H763 H 0.97719 0.9384 0.32292 0.0
H764 H 0.02582 0.0365 0.29216 0.0
H765 H 0.03704 0.08596 0.3116 0.0
C766 C 0.57576 0.03918 0.94272 0.0
C767 C 0.59337 0.02424 0.91265 0.0
C768 C 0.53377 0.05677 0.88228 0.0
C769 C 0.51885 0.07533 0.912 0.0
N770 N 0.52831 0.08892 0.96997 0.0
N771 N 0.59299 0.02422 0.85329 0.0
C772 C 0.54091 0.06826 0.94202 0.0
C773 C 0.57336 0.03436 0.88226 0.0
N774 N 0.59056 0.02344 0.97199 0.0
N775 N 0.50973 0.05989 0.85412 0.0
H776 H 0.6217 0.00746 0.85208 0.0
H777 H 0.58273 0.03538 0.83048 0.0
H778 H 0.48158 0.07762 0.8526 0.0
H779 H 0.51606 0.04258 0.83279 0.0
H780 H 0.57603 0.02955 0.99453 0.0
H781 H 0.61458 1.0005 0.97358 0.0
H782 H 0.54608 0.08881 0.99177 0.0
H783 H 0.50179 0.10904 0.97074 0.0
loop_
_geom_bond_atom_site_label_1
_geom_bond_atom_site_label_2
_geom_bond_distance
_geom_bond_site_symmetry_2
_ccdc_geom_bond_type
Mg0 O7 2.141 . S
Mg0 O8 2.048 . S
Mg0 O9 2.048 . S
Mg0 O12 2.141 . S
C1 O2 1.313 . S
C1 O8 1.195 . S
O2 C1 1.313 . S
C3 O4 1.245 . S
C3 O12 1.289 . S
O4 C3 1.245 . S
C5 O6 1.255 . S
C5 O7 1.291 . S
O6 C5 1.255 . S
O7 Mg0 2.141 . S
O7 C5 1.291 . S
O8 Mg0 2.048 . S
O8 C1 1.195 . S
O9 Mg0 2.048 . S
O9 C10 1.195 . S
C10 O9 1.195 . S
C10 O11 1.313 . S
O11 C10 1.313 . S
O12 Mg0 2.141 . S
O12 C3 1.289 . S
Mg13 O20 2.141 . S
Mg13 O21 2.048 . S
Mg13 O22 2.048 . S
Mg13 O25 2.141 . S
C14 O15 1.313 . S
C14 O21 1.195 . S
O15 C14 1.313 . S
C16 O17 1.245 . S
C16 O25 1.289 . S
O17 C16 1.245 . S
C18 O19 1.245 . S
C18 O20 1.289 . S
O19 C18 1.245 . S
O20 Mg13 2.141 . S
O20 C18 1.289 . S
O21 Mg13 2.048 . S
O21 C14 1.195 . S
O22 Mg13 2.048 . S
O22 C23 1.195 . S
C23 O22 1.195 . S
C23 O24 1.313 . S
O24 C23 1.313 . S
O25 Mg13 2.141 . S
O25 C16 1.289 . S
Mg26 O33 2.141 . S
Mg26 O34 2.048 . S
Mg26 O35 2.048 . S
Mg26 O38 2.141 . S
C27 O28 1.313 . S
C27 O34 1.195 . S
O28 C27 1.313 . S
C29 O30 1.245 . S
C29 O38 1.289 . S
O30 C29 1.245 . S
C31 O32 1.245 . S
C31 O33 1.289 . S
O32 C31 1.245 . S
O33 Mg26 2.141 . S
O33 C31 1.289 . S
O34 Mg26 2.048 . S
O34 C27 1.195 . S
O35 Mg26 2.048 . S
O35 C36 1.195 . S
C36 O35 1.195 . S
C36 O37 1.313 . S
O37 C36 1.313 . S
O38 Mg26 2.141 . S
O38 C29 1.289 . S
Mg39 O46 2.141 . S
Mg39 O47 2.048 . S
Mg39 O48 2.048 . S
Mg39 O51 2.141 . S
C40 O41 1.313 . S
C40 O47 1.195 . S
O41 C40 1.313 . S
C42 O43 1.245 . S
C42 O51 1.289 . S
O43 C42 1.245 . S
C44 O45 1.255 . S
C44 O46 1.291 . S
O45 C44 1.255 . S
O46 Mg39 2.141 . S
O46 C44 1.291 . S
O47 Mg39 2.048 . S
O47 C40 1.195 . S
O48 Mg39 2.048 . S
O48 C49 1.195 . S
C49 O48 1.195 . S
C49 O50 1.313 . S
O50 C49 1.313 . S
O51 Mg39 2.141 . S
O51 C42 1.289 . S
Mg52 O59 2.141 . S
Mg52 O60 2.048 . S
Mg52 O61 2.048 . S
Mg52 O64 2.141 . S
C53 O54 1.313 . S
C53 O60 1.195 . S
O54 C53 1.313 . S
C55 O56 1.245 . S
C55 O64 1.289 . S
O56 C55 1.245 . S
C57 O58 1.245 . S
C57 O59 1.289 . S
O58 C57 1.245 . S
O59 Mg52 2.141 . S
O59 C57 1.289 . S
O60 Mg52 2.048 . S
O60 C53 1.195 . S
O61 Mg52 2.048 . S
O61 C62 1.195 . S
C62 O61 1.195 . S
C62 O63 1.313 . S
O63 C62 1.313 . S
O64 Mg52 2.141 . S
O64 C55 1.289 . S
Mg65 O72 2.141 . S
Mg65 O73 2.048 . S
Mg65 O74 2.048 . S
Mg65 O77 2.141 . S
C66 O67 1.313 . S
C66 O73 1.195 . S
O67 C66 1.313 . S
C68 O69 1.245 . S
C68 O77 1.289 . S
O69 C68 1.245 . S
C70 O71 1.255 . S
C70 O72 1.291 . S
O71 C70 1.255 . S
O72 Mg65 2.141 . S
O72 C70 1.291 . S
O73 Mg65 2.048 . S
O73 C66 1.195 . S
O74 Mg65 2.048 . S
O74 C75 1.195 . S
C75 O74 1.195 . S
C75 O76 1.313 . S
O76 C75 1.313 . S
O77 Mg65 2.141 . S
O77 C68 1.289 . S
Mg78 O85 2.141 . S
Mg78 O86 2.048 . S
Mg78 O87 2.048 . S
Mg78 O90 2.141 . S
C79 O80 1.313 . S
C79 O86 1.195 . S
O80 C79 1.313 . S
C81 O82 1.245 . S
C81 O90 1.289 . S
O82 C81 1.245 . S
C83 O84 1.255 . S
C83 O85 1.291 . S
O84 C83 1.255 . S
O85 Mg78 2.141 . S
O85 C83 1.291 . S
O86 Mg78 2.048 . S
O86 C79 1.195 . S
O87 Mg78 2.048 . S
O87 C88 1.195 . S
C88 O87 1.195 . S
C88 O89 1.313 . S
O89 C88 1.313 . S
O90 Mg78 2.141 . S
O90 C81 1.289 . S
Mg91 O98 2.141 . S
Mg91 O99 2.048 . S
Mg91 O100 2.048 . S
Mg91 O103 2.141 . S
C92 O93 1.313 . S
C92 O99 1.195 . S
O93 C92 1.313 . S
C94 O95 1.245 . S
C94 O103 1.289 . S
O95 C94 1.245 . S
C96 O97 1.245 . S
C96 O98 1.289 . S
O97 C96 1.245 . S
O98 Mg91 2.141 . S
O98 C96 1.289 . S
O99 Mg91 2.048 . S
O99 C92 1.195 . S
O100 Mg91 2.048 . S
O100 C101 1.195 . S
C101 O100 1.195 . S
C101 O102 1.313 . S
O102 C101 1.313 . S
O103 Mg91 2.141 . S
O103 C94 1.289 . S
Mg104 O111 2.141 . S
Mg104 O112 2.048 . S
Mg104 O113 2.048 . S
Mg104 O116 2.141 . S
C105 O106 1.313 . S
C105 O112 1.195 . S
O106 C105 1.313 . S
C107 O108 1.245 . S
C107 O116 1.289 . S
O108 C107 1.245 . S
C109 O110 1.245 . S
C109 O111 1.289 1_545 S
O110 C109 1.245 . S
O111 Mg104 2.141 . S
O111 C109 1.289 1_565 S
O112 Mg104 2.048 . S
O112 C105 1.195 . S
O113 Mg104 2.048 . S
O113 C114 1.195 . S
C114 O113 1.195 . S
C114 O115 1.313 . S
O115 C114 1.313 . S
O116 Mg104 2.141 . S
O116 C107 1.289 . S
Mg117 O124 2.141 . S
Mg117 O125 2.048 . S
Mg117 O126 2.048 . S
Mg117 O129 2.141 . S
C118 O119 1.313 . S
C118 O125 1.195 . S
O119 C118 1.313 . S
C120 O121 1.245 . S
C120 O129 1.289 . S
O121 C120 1.245 . S
C122 O123 1.245 . S
C122 O124 1.289 . S
O123 C122 1.245 . S
O124 Mg117 2.141 . S
O124 C122 1.289 . S
O125 Mg117 2.048 . S
O125 C118 1.195 . S
O126 Mg117 2.048 . S
O126 C127 1.195 . S
C127 O126 1.195 . S
C127 O128 1.313 . S
O128 C127 1.313 . S
O129 Mg117 2.141 . S
O129 C120 1.289 . S
Mg130 O137 2.141 . S
Mg130 O138 2.048 . S
Mg130 O139 2.048 . S
Mg130 O142 2.141 . S
C131 O132 1.313 . S
C131 O138 1.195 . S
O132 C131 1.313 . S
C133 O134 1.245 . S
C133 O142 1.289 . S
O134 C133 1.245 . S
C135 O136 1.245 . S
C135 O137 1.289 . S
O136 C135 1.245 . S
O137 Mg130 2.141 . S
O137 C135 1.289 . S
O138 Mg130 2.048 . S
O138 C131 1.195 . S
O139 Mg130 2.048 . S
O139 C140 1.195 . S
C140 O139 1.195 . S
C140 O141 1.313 . S
O141 C140 1.313 . S
O142 Mg130 2.141 . S
O142 C133 1.289 . S
Mg143 O150 2.141 . S
Mg143 O151 2.048 . S
Mg143 O152 2.048 . S
Mg143 O155 2.141 . S
C144 O145 1.313 . S
C144 O151 1.195 . S
O145 C144 1.313 . S
C146 O147 1.255 . S
C146 O155 1.291 . S
O147 C146 1.255 . S
C148 O149 1.245 . S
C148 O150 1.289 . S
O149 C148 1.245 . S
O150 Mg143 2.141 . S
O150 C148 1.289 . S
O151 Mg143 2.048 . S
O151 C144 1.195 . S
O152 Mg143 2.048 . S
O152 C153 1.195 . S
C153 O152 1.195 . S
C153 O154 1.313 . S
O154 C153 1.313 . S
O155 Mg143 2.141 . S
O155 C146 1.291 . S
Mg156 O163 2.141 . S
Mg156 O164 2.048 . S
Mg156 O165 2.048 . S
Mg156 O168 2.141 . S
C157 O158 1.313 . S
C157 O164 1.195 . S
O158 C157 1.313 . S
C159 O160 1.245 . S
C159 O168 1.289 . S
O160 C159 1.245 . S
C161 O162 1.245 . S
C161 O163 1.289 . S
O162 C161 1.245 . S
O163 Mg156 2.141 . S
O163 C161 1.289 . S
O164 Mg156 2.048 . S
O164 C157 1.195 . S
O165 Mg156 2.048 . S
O165 C166 1.195 . S
C166 O165 1.195 . S
C166 O167 1.313 . S
O167 C166 1.313 . S
O168 Mg156 2.141 . S
O168 C159 1.289 . S
Mg169 O176 2.141 . S
Mg169 O177 2.048 . S
Mg169 O178 2.048 . S
Mg169 O181 2.141 . S
C170 O171 1.313 . S
C170 O177 1.195 . S
O171 C170 1.313 . S
C172 O173 1.255 . S
C172 O181 1.291 . S
O173 C172 1.255 . S
C174 O175 1.245 . S
C174 O176 1.289 . S
O175 C174 1.245 . S
O176 Mg169 2.141 . S
O176 C174 1.289 . S
O177 Mg169 2.048 . S
O177 C170 1.195 . S
O178 Mg169 2.048 . S
O178 C179 1.195 . S
C179 O178 1.195 . S
C179 O180 1.313 . S
O180 C179 1.313 . S
O181 Mg169 2.141 . S
O181 C172 1.291 . S
Mg182 O189 2.141 . S
Mg182 O190 2.048 . S
Mg182 O191 2.048 . S
Mg182 O194 2.141 . S
C183 O184 1.313 . S
C183 O190 1.195 . S
O184 C183 1.313 . S
C185 O186 1.245 . S
C185 O194 1.289 . S
O186 C185 1.245 . S
C187 O188 1.245 . S
C187 O189 1.289 1_545 S
O188 C187 1.245 . S
O189 Mg182 2.141 . S
O189 C187 1.289 1_565 S
O190 Mg182 2.048 . S
O190 C183 1.195 . S
O191 Mg182 2.048 . S
O191 C192 1.195 . S
C192 O191 1.195 . S
C192 O193 1.313 . S
O193 C192 1.313 . S
O194 Mg182 2.141 . S
O194 C185 1.289 . S
Mg195 O202 2.141 . S
Mg195 O203 2.048 . S
Mg195 O204 2.048 . S
Mg195 O207 2.141 . S
C196 O197 1.313 . S
C196 O203 1.195 . S
O197 C196 1.313 . S
C198 O199 1.245 . S
C198 O207 1.289 . S
O199 C198 1.245 . S
C200 O201 1.245 . S
C200 O202 1.289 . S
O201 C200 1.245 . S
O202 Mg195 2.141 . S
O202 C200 1.289 . S
O203 Mg195 2.048 . S
O203 C196 1.195 . S
O204 Mg195 2.048 . S
O204 C205 1.195 . S
C205 O204 1.195 . S
C205 O206 1.313 . S
O206 C205 1.313 . S
O207 Mg195 2.141 . S
O207 C198 1.289 . S
C208 C209 1.363 . S
C208 C214 1.379 1_556 S
C208 N216 1.356 . S
C209 C208 1.363 . S
C209 C215 1.363 . S
C210 C211 1.363 . S
C210 C215 1.379 1_554 S
C210 N217 1.356 . S
C211 C210 1.363 . S
C211 C214 1.363 . S
N212 C214 1.356 . S
N212 H224 0.984 . S
N212 H225 0.985 . S
N213 C215 1.356 . S
N213 H218 0.984 . S
N213 H219 0.985 . S
C214 C208 1.379 1_554 S
C214 C211 1.363 . S
C214 N212 1.356 . S
C215 C209 1.363 . S
C215 C210 1.379 1_556 S
C215 N213 1.356 . S
N216 C208 1.356 . S
N216 H222 0.964 1_556 S
N216 H223 0.984 . S
N217 C210 1.356 . S
N217 H220 0.984 . S
N217 H221 0.964 1_554 S
H218 N213 0.984 . S
H219 N213 0.985 . S
H220 N217 0.984 . S
H221 N217 0.964 1_556 S
H222 N216 0.964 1_554 S
H223 N216 0.984 . S
H224 N212 0.984 . S
H225 N212 0.985 . S
C226 C227 1.363 . S
C226 C232 1.379 . S
C226 N234 1.356 . S
C227 C226 1.363 . S
C227 C233 1.363 . S
C228 C229 1.363 . S
C228 C233 1.379 . S
C228 N235 1.356 . S
C229 C228 1.363 . S
C229 C232 1.363 . S
N230 C232 1.356 . S
N230 H242 0.984 . S
N230 H243 0.985 . S
N231 C233 1.356 . S
N231 H236 0.984 . S
N231 H237 0.985 . S
C232 C226 1.379 . S
C232 C229 1.363 . S
C232 N230 1.356 . S
C233 C227 1.363 . S
C233 C228 1.379 . S
C233 N231 1.356 . S
N234 C226 1.356 . S
N234 H240 0.984 . S
N234 H241 0.984 . S
N235 C228 1.356 . S
N235 H238 0.984 . S
N235 H239 0.985 . S
H236 N231 0.984 . S
H237 N231 0.985 . S
H238 N235 0.984 . S
H239 N235 0.985 . S
H240 N234 0.984 . S
H241 N234 0.984 . S
H242 N230 0.984 . S
H243 N230 0.985 . S
C244 C245 1.346 1_554 S
C244 C250 1.395 . S
C244 N252 1.351 1_554 S
C245 C244 1.346 1_556 S
C245 C251 1.363 . S
C246 C247 1.346 1_556 S
C246 C251 1.395 . S
C246 N253 1.351 1_556 S
C247 C246 1.346 1_554 S
C247 C250 1.363 . S
N248 C250 1.356 . S
N248 H260 0.984 . S
N248 H261 0.985 . S
N249 C251 1.356 . S
N249 H254 0.984 . S
N249 H255 0.985 . S
C250 C244 1.395 . S
C250 C247 1.363 . S
C250 N248 1.356 . S
C251 C245 1.363 . S
C251 C246 1.395 . S
C251 N249 1.356 . S
N252 C244 1.351 1_556 S
N252 H258 0.984 1_556 S
N252 H259 0.984 . S
N253 C246 1.351 1_554 S
N253 H256 0.984 . S
N253 H257 0.985 1_554 S
H254 N249 0.984 . S
H255 N249 0.985 . S
H256 N253 0.984 . S
H257 N253 0.985 1_556 S
H258 N252 0.984 1_554 S
H259 N252 0.984 . S
H260 N248 0.984 . S
H261 N248 0.985 . S
C262 C263 1.363 . S
C262 C268 1.379 . S
C262 N270 1.356 . S
C263 C262 1.363 . S
C263 C269 1.363 . S
C264 C265 1.363 . S
C264 C269 1.379 . S
C264 N271 1.356 . S
C265 C264 1.363 . S
C265 C268 1.363 . S
N266 C268 1.356 . S
N266 H278 0.984 . S
N266 H279 0.985 . S
N267 C269 1.356 . S
N267 H272 0.984 . S
N267 H273 0.985 . S
C268 C262 1.379 . S
C268 C265 1.363 . S
C268 N266 1.356 . S
C269 C263 1.363 . S
C269 C264 1.379 . S
C269 N267 1.356 . S
N270 C262 1.356 . S
N270 H276 0.984 . S
N270 H277 0.984 . S
N271 C264 1.356 . S
N271 H274 0.984 . S
N271 H275 0.985 . S
H272 N267 0.984 . S
H273 N267 0.985 . S
H274 N271 0.984 . S
H275 N271 0.985 . S
H276 N270 0.984 . S
H277 N270 0.984 . S
H278 N266 0.984 . S
H279 N266 0.985 . S
C280 C281 1.363 . S
C280 C286 1.379 . S
C280 N288 1.356 . S
C281 C280 1.363 . S
C281 C287 1.363 1_554 S
C282 C283 1.363 . S
C282 C287 1.379 . S
C282 N289 1.356 . S
C283 C282 1.363 . S
C283 C286 1.363 1_556 S
N284 C286 1.356 1_556 S
N284 H296 0.984 1_556 S
N284 H297 0.985 . S
N285 C287 1.356 1_554 S
N285 H290 0.984 . S
N285 H291 0.985 1_554 S
C286 C280 1.379 . S
C286 C283 1.363 1_554 S
C286 N284 1.356 1_554 S
C287 C281 1.363 1_556 S
C287 C282 1.379 . S
C287 N285 1.356 1_556 S
N288 C280 1.356 . S
N288 H294 0.984 . S
N288 H295 0.984 . S
N289 C282 1.356 . S
N289 H292 0.984 . S
N289 H293 0.985 . S
H290 N285 0.984 . S
H291 N285 0.985 1_556 S
H292 N289 0.984 . S
H293 N289 0.985 . S
H294 N288 0.984 . S
H295 N288 0.984 . S
H296 N284 0.984 1_554 S
H297 N284 0.985 . S
C298 C299 1.363 . S
C298 C304 1.379 . S
C298 N306 1.356 . S
C299 C298 1.363 . S
C299 C305 1.363 . S
C300 C301 1.363 . S
C300 C305 1.379 . S
C300 N307 1.356 . S
C301 C300 1.363 . S
C301 C304 1.363 . S
N302 C304 1.356 . S
N302 H314 0.984 . S
N302 H315 0.985 . S
N303 C305 1.356 . S
N303 H308 0.984 . S
N303 H309 0.985 . S
C304 C298 1.379 . S
C304 C301 1.363 . S
C304 N302 1.356 . S
C305 C299 1.363 . S
C305 C300 1.379 . S
C305 N303 1.356 . S
N306 C298 1.356 . S
N306 H312 0.984 . S
N306 H313 0.984 . S
N307 C300 1.356 . S
N307 H310 0.984 . S
N307 H311 0.985 . S
H308 N303 0.984 . S
H309 N303 0.985 . S
H310 N307 0.984 . S
H311 N307 0.985 . S
H312 N306 0.984 . S
H313 N306 0.984 . S
H314 N302 0.984 . S
H315 N302 0.985 . S
C316 C317 1.363 1_554 S
C316 C322 1.379 . S
C316 N324 1.356 1_554 S
C317 C316 1.363 1_556 S
C317 C323 1.363 . S
C318 C319 1.363 1_556 S
C318 C323 1.379 . S
C318 N325 1.356 1_556 S
C319 C318 1.363 1_554 S
C319 C322 1.363 . S
N320 C322 1.356 . S
N320 H332 0.984 . S
N320 H333 0.985 . S
N321 C323 1.356 . S
N321 H326 0.984 . S
N321 H327 0.985 . S
C322 C316 1.379 . S
C322 C319 1.363 . S
C322 N320 1.356 . S
C323 C317 1.363 . S
C323 C318 1.379 . S
C323 N321 1.356 . S
N324 C316 1.356 1_556 S
N324 H330 0.984 1_556 S
N324 H331 0.984 . S
N325 C318 1.356 1_554 S
N325 H328 0.984 . S
N325 H329 0.985 1_554 S
H326 N321 0.984 . S
H327 N321 0.985 . S
H328 N325 0.984 . S
H329 N325 0.985 1_556 S
H330 N324 0.984 1_554 S
H331 N324 0.984 . S
H332 N320 0.984 . S
H333 N320 0.985 . S
C334 C335 1.363 . S
C334 C340 1.379 . S
C334 N342 1.356 . S
C335 C334 1.363 . S
C335 C341 1.363 . S
C336 C337 1.363 . S
C336 C341 1.379 . S
C336 N343 1.356 . S
C337 C336 1.363 . S
C337 C340 1.363 . S
N338 C340 1.356 . S
N338 H350 0.984 . S
N338 H351 0.985 . S
N339 C341 1.356 . S
N339 H344 0.984 . S
N339 H345 0.985 . S
C340 C334 1.379 . S
C340 C337 1.363 . S
C340 N338 1.356 . S
C341 C335 1.363 . S
C341 C336 1.379 . S
C341 N339 1.356 . S
N342 C334 1.356 . S
N342 H348 0.984 . S
N342 H349 0.984 . S
N343 C336 1.356 . S
N343 H346 0.984 . S
N343 H347 0.985 . S
H344 N339 0.984 . S
H345 N339 0.985 . S
H346 N343 0.984 . S
H347 N343 0.985 . S
H348 N342 0.984 . S
H349 N342 0.984 . S
H350 N338 0.984 . S
H351 N338 0.985 . S
C352 C353 1.363 . S
C352 C358 1.379 . S
C352 N360 1.356 . S
C353 C352 1.363 . S
C353 C359 1.363 . S
C354 C355 1.363 . S
C354 C359 1.379 . S
C354 N361 1.356 . S
C355 C354 1.363 . S
C355 C358 1.363 . S
N356 C358 1.356 . S
N356 H368 0.984 . S
N356 H369 0.985 . S
N357 C359 1.356 . S
N357 H362 0.984 . S
N357 H363 0.985 . S
C358 C352 1.379 . S
C358 C355 1.363 . S
C358 N356 1.356 . S
C359 C353 1.363 . S
C359 C354 1.379 . S
C359 N357 1.356 . S
N360 C352 1.356 . S
N360 H366 0.984 . S
N360 H367 0.984 . S
N361 C354 1.356 . S
N361 H364 0.984 . S
N361 H365 0.985 . S
H362 N357 0.984 . S
H363 N357 0.985 . S
H364 N361 0.984 . S
H365 N361 0.985 . S
H366 N360 0.984 . S
H367 N360 0.984 . S
H368 N356 0.984 . S
H369 N356 0.985 . S
C370 C371 1.363 . S
C370 C376 1.379 . S
C370 N378 1.356 . S
C371 C370 1.363 . S
C371 C377 1.363 . S
C372 C373 1.363 . S
C372 C377 1.379 . S
C372 N379 1.356 . S
C373 C372 1.363 . S
C373 C376 1.363 . S
N374 C376 1.356 . S
N374 H386 0.984 . S
N374 H387 0.985 . S
N375 C377 1.356 . S
N375 H380 0.984 . S
N375 H381 0.985 . S
C376 C370 1.379 . S
C376 C373 1.363 . S
C376 N374 1.356 . S
C377 C371 1.363 . S
C377 C372 1.379 . S
C377 N375 1.356 . S
N378 C370 1.356 . S
N378 H384 0.984 . S
N378 H385 0.984 . S
N379 C372 1.356 . S
N379 H382 0.984 . S
N379 H383 0.985 . S
H380 N375 0.984 . S
H381 N375 0.985 . S
H382 N379 0.984 . S
H383 N379 0.985 . S
H384 N378 0.984 . S
H385 N378 0.984 . S
H386 N374 0.984 . S
H387 N374 0.985 . S
C388 C389 1.363 . S
C388 C394 1.379 . S
C388 N396 1.356 . S
C389 C388 1.363 . S
C389 C395 1.363 . S
C390 C391 1.363 . S
C390 C395 1.379 . S
C390 N397 1.356 . S
C391 C390 1.363 . S
C391 C394 1.363 . S
N392 C394 1.356 . S
N392 H404 0.984 . S
N392 H405 0.985 . S
N393 C395 1.356 . S
N393 H398 0.984 . S
N393 H399 0.985 . S
C394 C388 1.379 . S
C394 C391 1.363 . S
C394 N392 1.356 . S
C395 C389 1.363 . S
C395 C390 1.379 . S
C395 N393 1.356 . S
N396 C388 1.356 . S
N396 H402 0.984 . S
N396 H403 0.984 . S
N397 C390 1.356 . S
N397 H400 0.984 . S
N397 H401 0.985 . S
H398 N393 0.984 . S
H399 N393 0.985 . S
H400 N397 0.984 . S
H401 N397 0.985 . S
H402 N396 0.984 . S
H403 N396 0.984 . S
H404 N392 0.984 . S
H405 N392 0.985 . S
C406 C407 1.363 . S
C406 C412 1.379 . S
C406 N414 1.356 . S
C407 C406 1.363 . S
C407 C413 1.363 . S
C408 C409 1.363 . S
C408 C413 1.379 . S
C408 N415 1.356 . S
C409 C408 1.363 . S
C409 C412 1.363 . S
N410 C412 1.356 . S
N410 H422 0.984 . S
N410 H423 0.985 . S
N411 C413 1.356 . S
N411 H416 0.984 . S
N411 H417 0.985 . S
C412 C406 1.379 . S
C412 C409 1.363 . S
C412 N410 1.356 . S
C413 C407 1.363 . S
C413 C408 1.379 . S
C413 N411 1.356 . S
N414 C406 1.356 . S
N414 H420 0.984 . S
N414 H421 0.984 . S
N415 C408 1.356 . S
N415 H418 0.984 . S
N415 H419 0.985 . S
H416 N411 0.984 . S
H417 N411 0.985 . S
H418 N415 0.984 . S
H419 N415 0.985 . S
H420 N414 0.984 . S
H421 N414 0.984 . S
H422 N410 0.984 . S
H423 N410 0.985 . S
C424 C425 1.363 . S
C424 C430 1.379 . S
C424 N432 1.356 . S
C425 C424 1.363 . S
C425 C431 1.363 . S
C426 C427 1.363 . S
C426 C431 1.379 . S
C426 N433 1.356 . S
C427 C426 1.363 . S
C427 C430 1.363 . S
N428 C430 1.356 . S
N428 H440 0.984 . S
N428 H441 0.985 . S
N429 C431 1.356 . S
N429 H434 0.984 . S
N429 H435 0.985 . S
C430 C424 1.379 . S
C430 C427 1.363 . S
C430 N428 1.356 . S
C431 C425 1.363 . S
C431 C426 1.379 . S
C431 N429 1.356 . S
N432 C424 1.356 . S
N432 H438 0.984 . S
N432 H439 0.984 . S
N433 C426 1.356 . S
N433 H436 0.984 . S
N433 H437 0.985 . S
H434 N429 0.984 . S
H435 N429 0.985 . S
H436 N433 0.984 . S
H437 N433 0.985 . S
H438 N432 0.984 . S
H439 N432 0.984 . S
H440 N428 0.984 . S
H441 N428 0.985 . S
C442 C443 1.363 . S
C442 C448 1.379 . S
C442 N450 1.356 . S
C443 C442 1.363 . S
C443 C449 1.363 . S
C444 C445 1.363 . S
C444 C449 1.379 . S
C444 N451 1.356 . S
C445 C444 1.363 . S
C445 C448 1.363 . S
N446 C448 1.356 . S
N446 H458 0.984 . S
N446 H459 0.985 . S
N447 C449 1.356 . S
N447 H452 0.984 . S
N447 H453 0.985 . S
C448 C442 1.379 . S
C448 C445 1.363 . S
C448 N446 1.356 . S
C449 C443 1.363 . S
C449 C444 1.379 . S
C449 N447 1.356 . S
N450 C442 1.356 . S
N450 H456 0.984 . S
N450 H457 0.984 . S
N451 C444 1.356 . S
N451 H454 0.984 . S
N451 H455 0.985 . S
H452 N447 0.984 . S
H453 N447 0.985 . S
H454 N451 0.984 . S
H455 N451 0.985 . S
H456 N450 0.984 . S
H457 N450 0.984 . S
H458 N446 0.984 . S
H459 N446 0.985 . S
C460 C461 1.363 . S
C460 C466 1.379 . S
C460 N468 1.356 . S
C461 C460 1.363 . S
C461 C467 1.363 . S
C462 C463 1.363 . S
C462 C467 1.379 . S
C462 N469 1.356 . S
C463 C462 1.363 . S
C463 C466 1.363 . S
N464 C466 1.356 . S
N464 H476 0.984 . S
N464 H477 0.985 . S
N465 C467 1.356 . S
N465 H470 0.984 . S
N465 H471 0.985 . S
C466 C460 1.379 . S
C466 C463 1.363 . S
C466 N464 1.356 . S
C467 C461 1.363 . S
C467 C462 1.379 . S
C467 N465 1.356 . S
N468 C460 1.356 . S
N468 H474 0.984 . S
N468 H475 0.984 . S
N469 C462 1.356 . S
N469 H472 0.984 . S
N469 H473 0.985 . S
H470 N465 0.984 . S
H471 N465 0.985 . S
H472 N469 0.984 . S
H473 N469 0.985 . S
H474 N468 0.984 . S
H475 N468 0.984 . S
H476 N464 0.984 . S
H477 N464 0.985 . S
C478 C479 1.363 . S
C478 C484 1.379 . S
C478 N486 1.356 . S
C479 C478 1.363 . S
C479 C485 1.363 . S
C480 C481 1.363 . S
C480 C485 1.379 . S
C480 N487 1.356 . S
C481 C480 1.363 . S
C481 C484 1.363 . S
N482 C484 1.356 . S
N482 H494 0.984 . S
N482 H495 0.985 . S
N483 C485 1.356 . S
N483 H488 0.984 . S
N483 H489 0.985 . S
C484 C478 1.379 . S
C484 C481 1.363 . S
C484 N482 1.356 . S
C485 C479 1.363 . S
C485 C480 1.379 . S
C485 N483 1.356 . S
N486 C478 1.356 . S
N486 H492 0.984 . S
N486 H493 0.984 . S
N487 C480 1.356 . S
N487 H490 0.984 . S
N487 H491 0.985 . S
H488 N483 0.984 . S
H489 N483 0.985 . S
H490 N487 0.984 . S
H491 N487 0.985 . S
H492 N486 0.984 . S
H493 N486 0.984 . S
H494 N482 0.984 . S
H495 N482 0.985 . S
C496 C497 1.363 . S
C496 C502 1.379 . S
C496 N504 1.356 . S
C497 C496 1.363 . S
C497 C503 1.363 . S
C498 C499 1.363 . S
C498 C503 1.379 . S
C498 N505 1.356 . S
C499 C498 1.363 . S
C499 C502 1.363 . S
N500 C502 1.356 . S
N500 H512 0.984 1_545 S
N500 H513 0.985 . S
N501 C503 1.356 . S
N501 H506 0.984 . S
N501 H507 0.985 . S
C502 C496 1.379 . S
C502 C499 1.363 . S
C502 N500 1.356 . S
C503 C497 1.363 . S
C503 C498 1.379 . S
C503 N501 1.356 . S
N504 C496 1.356 . S
N504 H510 0.984 1_545 S
N504 H511 0.984 . S
N505 C498 1.356 . S
N505 H508 0.984 . S
N505 H509 0.985 . S
H506 N501 0.984 . S
H507 N501 0.985 . S
H508 N505 0.984 . S
H509 N505 0.985 . S
H510 N504 0.984 1_565 S
H511 N504 0.984 . S
H512 N500 0.984 1_565 S
H513 N500 0.985 . S
C514 C515 1.363 . S
C514 C520 1.379 . S
C514 N522 1.356 . S
C515 C514 1.363 . S
C515 C521 1.363 . S
C516 C517 1.363 . S
C516 C521 1.379 . S
C516 N523 1.356 . S
C517 C516 1.363 . S
C517 C520 1.363 . S
N518 C520 1.356 . S
N518 H530 0.984 . S
N518 H531 0.985 . S
N519 C521 1.356 . S
N519 H524 0.984 . S
N519 H525 0.985 . S
C520 C514 1.379 . S
C520 C517 1.363 . S
C520 N518 1.356 . S
C521 C515 1.363 . S
C521 C516 1.379 . S
C521 N519 1.356 . S
N522 C514 1.356 . S
N522 H528 0.984 . S
N522 H529 0.984 . S
N523 C516 1.356 . S
N523 H526 0.984 . S
N523 H527 0.985 . S
H524 N519 0.984 . S
H525 N519 0.985 . S
H526 N523 0.984 . S
H527 N523 0.985 . S
H528 N522 0.984 . S
H529 N522 0.984 . S
H530 N518 0.984 . S
H531 N518 0.985 . S
C532 C533 1.363 . S
C532 C538 1.379 . S
C532 N540 1.356 . S
C533 C532 1.363 . S
C533 C539 1.363 . S
C534 C535 1.363 . S
C534 C539 1.379 . S
C534 N541 1.356 . S
C535 C534 1.363 . S
C535 C538 1.363 . S
N536 C538 1.356 . S
N536 H548 0.984 . S
N536 H549 0.985 . S
N537 C539 1.356 . S
N537 H542 0.984 . S
N537 H543 0.985 . S
C538 C532 1.379 . S
C538 C535 1.363 . S
C538 N536 1.356 . S
C539 C533 1.363 . S
C539 C534 1.379 . S
C539 N537 1.356 . S
N540 C532 1.356 . S
N540 H546 0.984 . S
N540 H547 0.984 . S
N541 C534 1.356 . S
N541 H544 0.984 . S
N541 H545 0.985 . S
H542 N537 0.984 . S
H543 N537 0.985 . S
H544 N541 0.984 . S
H545 N541 0.985 . S
H546 N540 0.984 . S
H547 N540 0.984 . S
H548 N536 0.984 . S
H549 N536 0.985 . S
C550 C551 1.363 . S
C550 C556 1.379 . S
C550 N558 1.356 . S
C551 C550 1.363 . S
C551 C557 1.363 . S
C552 C553 1.363 . S
C552 C557 1.379 . S
C552 N559 1.356 . S
C553 C552 1.363 . S
C553 C556 1.363 . S
N554 C556 1.356 . S
N554 H566 0.984 . S
N554 H567 0.985 . S
N555 C557 1.356 . S
N555 H560 0.984 . S
N555 H561 0.985 1_455 S
C556 C550 1.379 . S
C556 C553 1.363 . S
C556 N554 1.356 . S
C557 C551 1.363 . S
C557 C552 1.379 . S
C557 N555 1.356 . S
N558 C550 1.356 . S
N558 H564 0.984 . S
N558 H565 0.984 . S
N559 C552 1.356 . S
N559 H562 0.984 . S
N559 H563 0.985 1_455 S
H560 N555 0.984 . S
H561 N555 0.985 1_655 S
H562 N559 0.984 . S
H563 N559 0.985 1_655 S
H564 N558 0.984 . S
H565 N558 0.984 . S
H566 N554 0.984 . S
H567 N554 0.985 . S
C568 C569 1.363 . S
C568 C574 1.379 . S
C568 N576 1.356 . S
C569 C568 1.363 . S
C569 C575 1.363 . S
C570 C571 1.363 . S
C570 C575 1.379 . S
C570 N577 1.356 . S
C571 C570 1.363 . S
C571 C574 1.363 . S
N572 C574 1.356 . S
N572 H584 0.984 1_565 S
N572 H585 0.985 . S
N573 C575 1.356 . S
N573 H578 0.984 . S
N573 H579 0.985 . S
C574 C568 1.379 . S
C574 C571 1.363 . S
C574 N572 1.356 . S
C575 C569 1.363 . S
C575 C570 1.379 . S
C575 N573 1.356 . S
N576 C568 1.356 . S
N576 H582 0.984 1_565 S
N576 H583 0.984 . S
N577 C570 1.356 . S
N577 H580 0.984 . S
N577 H581 0.985 . S
H578 N573 0.984 . S
H579 N573 0.985 . S
H580 N577 0.984 . S
H581 N577 0.985 . S
H582 N576 0.984 1_545 S
H583 N576 0.984 . S
H584 N572 0.984 1_545 S
H585 N572 0.985 . S
C586 C587 1.363 . S
C586 C592 1.379 . S
C586 N594 1.356 . S
C587 C586 1.363 . S
C587 C593 1.363 . S
C588 C589 1.363 . S
C588 C593 1.379 . S
C588 N595 1.356 . S
C589 C588 1.363 . S
C589 C592 1.363 . S
N590 C592 1.356 . S
N590 H602 0.984 . S
N590 H603 0.985 . S
N591 C593 1.356 . S
N591 H596 0.984 . S
N591 H597 0.985 . S
C592 C586 1.379 . S
C592 C589 1.363 . S
C592 N590 1.356 . S
C593 C587 1.363 . S
C593 C588 1.379 . S
C593 N591 1.356 . S
N594 C586 1.356 . S
N594 H600 0.984 . S
N594 H601 0.984 . S
N595 C588 1.356 . S
N595 H598 0.984 . S
N595 H599 0.985 . S
H596 N591 0.984 . S
H597 N591 0.985 . S
H598 N595 0.984 . S
H599 N595 0.985 . S
H600 N594 0.984 . S
H601 N594 0.984 . S
H602 N590 0.984 . S
H603 N590 0.985 . S
C604 C605 1.363 . S
C604 C610 1.379 . S
C604 N612 1.356 . S
C605 C604 1.363 . S
C605 C611 1.363 . S
C606 C607 1.363 . S
C606 C611 1.379 . S
C606 N613 1.356 . S
C607 C606 1.363 . S
C607 C610 1.363 . S
N608 C610 1.356 . S
N608 H620 0.984 . S
N608 H621 0.985 . S
N609 C611 1.356 . S
N609 H614 0.984 . S
N609 H615 0.985 . S
C610 C604 1.379 . S
C610 C607 1.363 . S
C610 N608 1.356 . S
C611 C605 1.363 . S
C611 C606 1.379 . S
C611 N609 1.356 . S
N612 C604 1.356 . S
N612 H618 0.984 . S
N612 H619 0.984 . S
N613 C606 1.356 . S
N613 H616 0.984 . S
N613 H617 0.985 . S
H614 N609 0.984 . S
H615 N609 0.985 . S
H616 N613 0.984 . S
H617 N613 0.985 . S
H618 N612 0.984 . S
H619 N612 0.984 . S
H620 N608 0.984 . S
H621 N608 0.985 . S
C622 C623 1.363 . S
C622 C628 1.379 . S
C622 N630 1.356 . S
C623 C622 1.363 . S
C623 C629 1.363 . S
C624 C625 1.363 . S
C624 C629 1.379 . S
C624 N631 1.356 . S
C625 C624 1.363 . S
C625 C628 1.363 . S
N626 C628 1.356 . S
N626 H638 0.984 . S
N626 H639 0.985 . S
N627 C629 1.356 . S
N627 H632 0.984 . S
N627 H633 0.985 . S
C628 C622 1.379 . S
C628 C625 1.363 . S
C628 N626 1.356 . S
C629 C623 1.363 . S
C629 C624 1.379 . S
C629 N627 1.356 . S
N630 C622 1.356 . S
N630 H636 0.984 . S
N630 H637 0.984 . S
N631 C624 1.356 . S
N631 H634 0.984 . S
N631 H635 0.985 . S
H632 N627 0.984 . S
H633 N627 0.985 . S
H634 N631 0.984 . S
H635 N631 0.985 . S
H636 N630 0.984 . S
H637 N630 0.984 . S
H638 N626 0.984 . S
H639 N626 0.985 . S
C640 C641 1.363 . S
C640 C646 1.379 . S
C640 N648 1.356 . S
C641 C640 1.363 . S
C641 C647 1.363 . S
C642 C643 1.363 . S
C642 C647 1.379 . S
C642 N649 1.356 . S
C643 C642 1.363 . S
C643 C646 1.363 . S
N644 C646 1.356 . S
N644 H656 0.984 . S
N644 H657 0.985 . S
N645 C647 1.356 . S
N645 H650 0.984 1_565 S
N645 H651 0.991 . S
C646 C640 1.379 . S
C646 C643 1.363 . S
C646 N644 1.356 . S
C647 C641 1.363 . S
C647 C642 1.379 . S
C647 N645 1.356 . S
N648 C640 1.356 . S
N648 H654 0.984 . S
N648 H655 0.984 . S
N649 C642 1.356 . S
N649 H652 0.984 . S
N649 H653 0.985 . S
H650 N645 0.984 1_545 S
H651 N645 0.991 . S
H652 N649 0.984 . S
H653 N649 0.985 . S
H654 N648 0.984 . S
H655 N648 0.984 . S
H656 N644 0.984 . S
H657 N644 0.985 . S
C658 C659 1.363 . S
C658 C664 1.379 . S
C658 N666 1.356 . S
C659 C658 1.363 . S
C659 C665 1.363 . S
C660 C661 1.363 . S
C660 C665 1.379 . S
C660 N667 1.356 . S
C661 C660 1.363 . S
C661 C664 1.363 . S
N662 C664 1.356 . S
N662 H674 0.984 . S
N662 H675 0.985 . S
N663 C665 1.356 . S
N663 H668 0.984 . S
N663 H669 0.985 . S
C664 C658 1.379 . S
C664 C661 1.363 . S
C664 N662 1.356 . S
C665 C659 1.363 . S
C665 C660 1.379 . S
C665 N663 1.356 . S
N666 C658 1.356 . S
N666 H672 0.984 . S
N666 H673 0.984 . S
N667 C660 1.356 . S
N667 H670 0.984 . S
N667 H671 0.985 . S
H668 N663 0.984 . S
H669 N663 0.985 . S
H670 N667 0.984 . S
H671 N667 0.985 . S
H672 N666 0.984 . S
H673 N666 0.984 . S
H674 N662 0.984 . S
H675 N662 0.985 . S
C676 C677 1.363 . S
C676 C682 1.379 . S
C676 N684 1.356 . S
C677 C676 1.363 . S
C677 C683 1.363 . S
C678 C679 1.363 . S
C678 C683 1.379 . S
C678 N685 1.356 . S
C679 C678 1.363 . S
C679 C682 1.363 . S
N680 C682 1.356 . S
N680 H692 0.984 . S
N680 H693 0.985 . S
N681 C683 1.356 . S
N681 H686 0.984 . S
N681 H687 0.985 . S
C682 C676 1.379 . S
C682 C679 1.363 . S
C682 N680 1.356 . S
C683 C677 1.363 . S
C683 C678 1.379 . S
C683 N681 1.356 . S
N684 C676 1.356 . S
N684 H690 0.984 . S
N684 H691 0.984 . S
N685 C678 1.356 . S
N685 H688 0.984 1_455 S
N685 H689 0.991 . S
H686 N681 0.984 . S
H687 N681 0.985 . S
H688 N685 0.984 1_655 S
H689 N685 0.991 . S
H690 N684 0.984 . S
H691 N684 0.984 . S
H692 N680 0.984 . S
H693 N680 0.985 . S
C694 C695 1.363 . S
C694 C700 1.379 . S
C694 N702 1.356 . S
C695 C694 1.363 . S
C695 C701 1.363 . S
C696 C697 1.363 . S
C696 C701 1.379 . S
C696 N703 1.356 . S
C697 C696 1.363 . S
C697 C700 1.363 . S
N698 C700 1.356 . S
N698 H710 0.984 . S
N698 H711 0.985 . S
N699 C701 1.356 . S
N699 H704 0.984 1_545 S
N699 H705 0.991 . S
C700 C694 1.379 . S
C700 C697 1.363 . S
C700 N698 1.356 . S
C701 C695 1.363 . S
C701 C696 1.379 . S
C701 N699 1.356 . S
N702 C694 1.356 . S
N702 H708 0.984 . S
N702 H709 0.984 . S
N703 C696 1.356 . S
N703 H706 0.984 1_655 S
N703 H707 0.991 . S
H704 N699 0.984 1_565 S
H705 N699 0.991 . S
H706 N703 0.984 1_455 S
H707 N703 0.991 . S
H708 N702 0.984 . S
H709 N702 0.984 . S
H710 N698 0.984 . S
H711 N698 0.985 . S
C712 C713 1.363 . S
C712 C718 1.379 . S
C712 N720 1.356 . S
C713 C712 1.363 . S
C713 C719 1.363 . S
C714 C715 1.363 . S
C714 C719 1.379 . S
C714 N721 1.356 . S
C715 C714 1.363 . S
C715 C718 1.363 . S
N716 C718 1.356 . S
N716 H728 0.984 . S
N716 H729 0.985 . S
N717 C719 1.356 . S
N717 H722 0.984 . S
N717 H723 0.985 . S
C718 C712 1.379 . S
C718 C715 1.363 . S
C718 N716 1.356 . S
C719 C713 1.363 . S
C719 C714 1.379 . S
C719 N717 1.356 . S
N720 C712 1.356 . S
N720 H726 0.984 . S
N720 H727 0.984 . S
N721 C714 1.356 . S
N721 H724 0.984 . S
N721 H725 0.985 . S
H722 N717 0.984 . S
H723 N717 0.985 . S
H724 N721 0.984 . S
H725 N721 0.985 . S
H726 N720 0.984 . S
H727 N720 0.984 . S
H728 N716 0.984 . S
H729 N716 0.985 . S
C730 C731 1.363 . S
C730 C736 1.379 . S
C730 N738 1.356 . S
C731 C730 1.363 . S
C731 C737 1.363 . S
C732 C733 1.363 . S
C732 C737 1.379 . S
C732 N739 1.356 . S
C733 C732 1.363 . S
C733 C736 1.363 . S
N734 C736 1.356 . S
N734 H746 0.984 . S
N734 H747 0.985 . S
N735 C737 1.356 . S
N735 H740 0.984 . S
N735 H741 0.985 . S
C736 C730 1.379 . S
C736 C733 1.363 . S
C736 N734 1.356 . S
C737 C731 1.363 . S
C737 C732 1.379 . S
C737 N735 1.356 . S
N738 C730 1.356 . S
N738 H744 0.991 . S
N738 H745 0.984 1_655 S
N739 C732 1.356 . S
N739 H742 0.984 . S
N739 H743 0.985 . S
H740 N735 0.984 . S
H741 N735 0.985 . S
H742 N739 0.984 . S
H743 N739 0.985 . S
H744 N738 0.991 . S
H745 N738 0.984 1_455 S
H746 N734 0.984 . S
H747 N734 0.985 . S
C748 C749 1.363 . S
C748 C754 1.379 . S
C748 N756 1.356 . S
C749 C748 1.363 . S
C749 C755 1.363 . S
C750 C751 1.363 . S
C750 C755 1.379 . S
C750 N757 1.356 . S
C751 C750 1.363 . S
C751 C754 1.363 . S
N752 C754 1.356 . S
N752 H764 0.984 . S
N752 H765 0.985 . S
N753 C755 1.356 . S
N753 H758 0.984 1_455 S
N753 H759 0.991 . S
C754 C748 1.379 . S
C754 C751 1.363 . S
C754 N752 1.356 . S
C755 C749 1.363 . S
C755 C750 1.379 . S
C755 N753 1.356 . S
N756 C748 1.356 . S
N756 H762 0.984 . S
N756 H763 0.984 . S
N757 C750 1.356 . S
N757 H760 0.984 1_565 S
N757 H761 0.991 . S
H758 N753 0.984 1_655 S
H759 N753 0.991 . S
H760 N757 0.984 1_545 S
H761 N757 0.991 . S
H762 N756 0.984 . S
H763 N756 0.984 . S
H764 N752 0.984 . S
H765 N752 0.985 . S
C766 C767 1.363 . S
C766 C772 1.379 . S
C766 N774 1.356 . S
C767 C766 1.363 . S
C767 C773 1.363 . S
C768 C769 1.363 . S
C768 C773 1.379 . S
C768 N775 1.356 . S
C769 C768 1.363 . S
C769 C772 1.363 . S
N770 C772 1.356 . S
N770 H782 0.984 . S
N770 H783 0.985 . S
N771 C773 1.356 . S
N771 H776 0.984 . S
N771 H777 0.985 . S
C772 C766 1.379 . S
C772 C769 1.363 . S
C772 N770 1.356 . S
C773 C767 1.363 . S
C773 C768 1.379 . S
C773 N771 1.356 . S
N774 C766 1.356 . S
N774 H780 0.991 . S
N774 H781 0.984 1_545 S
N775 C768 1.356 . S
N775 H778 0.984 . S
N775 H779 0.985 . S
H776 N771 0.984 . S
H777 N771 0.985 . S
H778 N775 0.984 . S
H779 N775 0.985 . S
H780 N774 0.991 . S
H781 N774 0.984 1_565 S
H782 N770 0.984 . S
H783 N770 0.985 . S
C209 C92 1.564 . S
C211 C1 1.564 . S
C227 C53 1.564 . S
C229 C14 1.564 . S
C245 C66 1.564 . S
C247 C27 1.564 . S
C263 C40 1.564 . S
C265 C79 1.564 . S
C281 C205 1.564 . S
C283 C105 1.597 . S
C299 C157 1.597 . S
C301 C127 1.564 . S
C317 C131 1.597 . S
C319 C179 1.564 . S
C335 C153 1.564 . S
C337 C183 1.597 . S
C353 C36 1.547 . S
C355 C10 1.547 . S
C371 C23 1.547 . S
C373 C49 1.547 . S
C389 C62 1.547 . S
C391 C88 1.547 . S
C407 C101 1.547 . S
C409 C75 1.547 . S
C425 C114 1.623 . S
C427 C140 1.623 . S
C443 C118 1.547 . S
C445 C144 1.547 . S
C461 C192 1.623 . S
C463 C166 1.623 . S
C479 C170 1.547 . S
C481 C196 1.547 . S
C497 C81 1.559 . S
C499 C3 1.559 . S
C515 C16 1.559 . S
C517 C94 1.559 . S
C533 C29 1.559 . S
C535 C55 1.559 . S
C551 C42 1.559 . S
C553 C68 1.559 . S
C569 C107 1.572 . S
C571 C185 1.572 . S
C587 C122 1.559 . S
C589 C200 1.559 . S
C605 C133 1.572 . S
C607 C159 1.572 . S
C623 C148 1.559 . S
C625 C174 1.559 . S
C641 C5 1.599 1_565 S
C643 C198 1.611 . S
C659 C161 1.651 . S
C661 C18 1.611 . S
C677 C31 1.611 . S
C679 C172 1.599 1_455 S
C695 C187 1.651 . S
C697 C44 1.600 1_655 S
C713 C120 1.611 . S
C715 C57 1.611 . S
C731 C70 1.599 1_655 S
C733 C135 1.651 . S
C749 C146 1.600 1_455 S
C751 C83 1.600 1_565 S
C767 C109 1.651 . S
C769 C96 1.611 . S
