# Generated by pormake.
# Topology wji, (4)-cn, num edge types: 1
# Building blocks:
#     Node 0, Type 0, BuildingBlock: QUQFOY_clean_sbu_3, # of connection points: 4
#     Node 1, Type 0, BuildingBlock: QUQFOY_clean_sbu_3, # of connection points: 4
#     Node 2, Type 0, BuildingBlock: QUQFOY_clean_sbu_3, # of connection points: 4
#     Node 3, Type 0, BuildingBlock: QUQFOY_clean_sbu_3, # of connection points: 4
#     Node 4, Type 0, BuildingBlock: QUQFOY_clean_sbu_3, # of connection points: 4
#     Node 5, Type 0, BuildingBlock: QUQFOY_clean_sbu_3, # of connection points: 4
#     Node 6, Type 0, BuildingBlock: QUQFOY_clean_sbu_3, # of connection points: 4
#     Node 7, Type 0, BuildingBlock: QUQFOY_clean_sbu_3, # of connection points: 4
#     Node 8, Type 0, BuildingBlock: QUQFOY_clean_sbu_3, # of connection points: 4
#     Node 9, Type 0, BuildingBlock: QUQFOY_clean_sbu_3, # of connection points: 4
#     Node 10, Type 0, BuildingBlock: QUQFOY_clean_sbu_3, # of connection points: 4
#     Node 11, Type 0, BuildingBlock: QUQFOY_clean_sbu_3, # of connection points: 4
#     Edge 12, Type (0, 0), BuildingBlock: EYOCIG_clean_linker_4, # of connection points: 2
#     Edge 13, Type (0, 0), BuildingBlock: EYOCIG_clean_linker_4, # of connection points: 2
#     Edge 14, Type (0, 0), BuildingBlock: EYOCIG_clean_linker_4, # of connection points: 2
#     Edge 15, Type (0, 0), BuildingBlock: EYOCIG_clean_linker_4, # of connection points: 2
#     Edge 16, Type (0, 0), BuildingBlock: EYOCIG_clean_linker_4, # of connection points: 2
#     Edge 17, Type (0, 0), BuildingBlock: EYOCIG_clean_linker_4, # of connection points: 2
#     Edge 18, Type (0, 0), BuildingBlock: EYOCIG_clean_linker_4, # of connection points: 2
#     Edge 19, Type (0, 0), BuildingBlock: EYOCIG_clean_linker_4, # of connection points: 2
#     Edge 20, Type (0, 0), BuildingBlock: EYOCIG_clean_linker_4, # of connection points: 2
#     Edge 21, Type (0, 0), BuildingBlock: EYOCIG_clean_linker_4, # of connection points: 2
#     Edge 22, Type (0, 0), BuildingBlock: EYOCIG_clean_linker_4, # of connection points: 2
#     Edge 23, Type (0, 0), BuildingBlock: EYOCIG_clean_linker_4, # of connection points: 2
#     Edge 24, Type (0, 0), BuildingBlock: EYOCIG_clean_linker_4, # of connection points: 2
#     Edge 25, Type (0, 0), BuildingBlock: EYOCIG_clean_linker_4, # of connection points: 2
#     Edge 26, Type (0, 0), BuildingBlock: EYOCIG_clean_linker_4, # of connection points: 2
#     Edge 27, Type (0, 0), BuildingBlock: EYOCIG_clean_linker_4, # of connection points: 2
#     Edge 28, Type (0, 0), BuildingBlock: EYOCIG_clean_linker_4, # of connection points: 2
#     Edge 29, Type (0, 0), BuildingBlock: EYOCIG_clean_linker_4, # of connection points: 2
#     Edge 30, Type (0, 0), BuildingBlock: EYOCIG_clean_linker_4, # of connection points: 2
#     Edge 31, Type (0, 0), BuildingBlock: EYOCIG_clean_linker_4, # of connection points: 2
#     Edge 32, Type (0, 0), BuildingBlock: EYOCIG_clean_linker_4, # of connection points: 2
#     Edge 33, Type (0, 0), BuildingBlock: EYOCIG_clean_linker_4, # of connection points: 2
#     Edge 34, Type (0, 0), BuildingBlock: EYOCIG_clean_linker_4, # of connection points: 2
#     Edge 35, Type (0, 0), BuildingBlock: EYOCIG_clean_linker_4, # of connection points: 2
# Relax obj value: 0.213
# Max RMSD: 0.131
# Mean RMSD: 0.131
data_MOF--net-wji--node1-QUQFOY_clean_sbu_3--edge1-EYOCIG_clean_linker_4
_symmetry_space_group_name_H-M    P1
_symmetry_Int_Tables_number       1
_symmetry_cell_setting            triclinic
loop_
_symmetry_equiv_pos_as_xyz
'x, y, z'
_cell_length_a     48.158341
_cell_length_b     48.187186
_cell_length_c     18.815657
_cell_angle_alpha  90.031672
_cell_angle_beta   89.708474
_cell_angle_gamma 119.98857
loop_
_atom_site_label
_atom_site_type_symbol
_atom_site_fract_x
_atom_site_fract_y
_atom_site_fract_z
_atom_type_partial_charge
C0 C 0.4522 0.37902 0.4304 0.0
O1 O 0.4367 0.39139 0.45722 0.0
Cd2 Cd 0.38011 0.36383 0.47882 0.0
O3 O 0.43865 0.34932 0.41591 0.0
Cd4 Cd 0.38454 0.30194 0.43196 0.0
C5 C 0.35433 0.33154 0.31233 0.0
O6 O 0.36642 0.31546 0.53873 0.0
O7 O 0.32979 0.2763 0.47683 0.0
O8 O 0.40941 0.27878 0.50017 0.0
C9 C 0.33764 0.29298 0.53291 0.0
O10 O 0.35642 0.35066 0.36135 0.0
C11 C 0.39722 0.2526 0.46653 0.0
O12 O 0.36455 0.31189 0.32037 0.0
O13 O 0.38073 0.24977 0.4115 0.0
C14 C 0.05457 0.45959 0.60312 0.0
O15 O 0.02714 0.44326 0.63168 0.0
Cd16 Cd 0.0002 0.38679 0.65291 0.0
O17 O 0.07139 0.44699 0.58588 0.0
Cd18 Cd 0.06669 0.39359 0.59796 0.0
C19 C 0.00463 0.36167 0.48413 0.0
O20 O 0.0374 0.37516 0.70761 0.0
O21 O 0.03979 0.33888 0.64389 0.0
O22 O 0.11636 0.41927 0.66023 0.0
C23 C 0.03173 0.34663 0.70141 0.0
O24 O -0.01197 0.36302 0.53536 0.0
C25 C 0.12994 0.40751 0.62315 0.0
O26 O 0.03479 0.37283 0.48924 0.0
O27 O 0.11517 0.39093 0.56902 0.0
C28 C 0.58384 0.06951 0.78397 0.0
O29 O 0.57076 0.04134 0.80917 0.0
Cd30 Cd 0.59622 0.00989 0.82018 0.0
O31 O 0.61312 0.08437 0.76493 0.0
Cd32 Cd 0.65868 0.07428 0.76747 0.0
C33 C 0.62201 0.01543 0.64724 0.0
O34 O 0.64659 0.04305 0.87436 0.0
O35 O 0.68315 0.04299 0.80679 0.0
O36 O 0.68715 0.12372 0.82956 0.0
C37 C 0.66768 0.03505 0.86485 0.0
O38 O 0.60405 -0.00147 0.69815 0.0
C39 C 0.71152 0.13582 0.78924 0.0
O40 O 0.64322 0.04478 0.65533 0.0
O41 O 0.71102 0.12015 0.73436 0.0
C42 C 0.50141 0.58927 0.91854 0.0
O43 O 0.51727 0.57511 0.92841 0.0
Cd44 Cd 0.57435 0.60115 0.93074 0.0
O45 O 0.51515 0.6196 0.91366 0.0
Cd46 Cd 0.57068 0.66498 0.92507 0.0
C47 C 0.59072 0.64336 0.77351 0.0
O48 O 0.59332 0.64479 0.01068 0.0
O49 O 0.62748 0.68642 0.94999 0.0
O50 O 0.5504 0.68489 0.01664 0.0
C51 C 0.62197 0.66695 0.00047 0.0
O52 O 0.59074 0.62141 0.81092 0.0
C53 C 0.56146 0.71254 -0.01009 0.0
O54 O 0.58241 0.66263 0.79913 0.0
O55 O 0.57568 0.7181 0.93006 0.0
C56 C 0.89141 0.50597 0.08063 0.0
O57 O 0.92158 0.52207 0.08762 0.0
Cd58 Cd 0.95213 0.57914 0.09017 0.0
O59 O 0.87446 0.5194 0.07978 0.0
Cd60 Cd 0.8846 0.57464 0.09703 0.0
C61 C 0.92219 0.59615 0.94057 0.0
O62 O 0.92992 0.59844 0.17602 0.0
O63 O 0.91991 0.63155 0.11836 0.0
O64 O 0.84886 0.55386 0.19739 0.0
C65 C 0.93546 0.6268 0.16622 0.0
O66 O 0.94496 0.59601 0.97409 0.0
C67 C 0.83066 0.56426 0.1777 0.0
O68 O 0.89507 0.58733 0.96974 0.0
O69 O 0.83616 0.57819 0.11758 0.0
C70 C 0.36561 0.89289 0.2413 0.0
O71 O 0.38038 0.92207 0.2598 0.0
Cd72 Cd 0.35674 0.95456 0.28147 0.0
O73 O 0.33521 0.87707 0.23713 0.0
Cd74 Cd 0.29131 0.88814 0.26501 0.0
C75 C 0.31276 0.93908 0.12765 0.0
O76 O 0.31285 0.92673 0.35954 0.0
O77 O 0.27148 0.92294 0.30452 0.0
O78 O 0.27286 0.8464 0.35226 0.0
C79 C 0.29112 0.93418 0.35541 0.0
O80 O 0.33546 0.95807 0.16795 0.0
C81 C 0.24426 0.83122 0.33036 0.0
O82 O 0.29305 0.91021 0.14578 0.0
O83 O 0.23754 0.8408 0.27334 0.0
C84 C 0.58447 0.50797 0.35563 0.0
O85 O 0.57311 0.52298 0.32264 0.0
Cd86 Cd 0.60145 0.57889 0.29481 0.0
O87 O 0.61365 0.52175 0.37487 0.0
Cd88 Cd 0.66141 0.57588 0.3615 0.0
C89 C 0.62649 0.6077 0.46333 0.0
O90 O 0.65161 0.59042 0.24625 0.0
O91 O 0.68865 0.62928 0.30722 0.0
O92 O 0.68962 0.55114 0.31376 0.0
C93 C 0.67357 0.61945 0.24933 0.0
O94 O 0.60942 0.60497 0.40956 0.0
C95 C 0.7134 0.56475 0.35499 0.0
O96 O 0.64631 0.59746 0.463 0.0
O97 O 0.71237 0.5822 0.4045 0.0
C98 C 0.05287 0.5898 0.53156 0.0
O99 O 0.02652 0.57808 0.49849 0.0
Cd100 Cd -0.00107 0.60621 0.46891 0.0
O101 O 0.06818 0.61913 0.5496 0.0
Cd102 Cd 0.06196 0.66673 0.5323 0.0
C103 C -0.00468 0.6339 0.63509 0.0
O104 O 0.03735 0.65558 0.41735 0.0
O105 O 0.03622 0.69368 0.47631 0.0
O106 O 0.11397 0.6919 0.47981 0.0
C107 C 0.0309 0.67802 0.41914 0.0
O108 O -0.0189 0.61602 0.58224 0.0
C109 C 0.12537 0.71725 0.51638 0.0
O110 O 0.02542 0.65367 0.63447 0.0
O111 O 0.10817 0.71853 0.56645 0.0
C112 C 0.45502 0.07061 0.72358 0.0
O113 O 0.44082 0.04217 0.70004 0.0
Cd114 Cd 0.38496 0.01073 0.67417 0.0
O115 O 0.44042 0.08625 0.73186 0.0
Cd116 Cd 0.38601 0.07663 0.70555 0.0
C117 C 0.35384 0.01989 0.83212 0.0
O118 O 0.37074 0.04213 0.60353 0.0
O119 O 0.3323 0.04448 0.65924 0.0
O120 O 0.41109 0.12189 0.62793 0.0
C121 C 0.34159 0.03494 0.60638 0.0
O122 O 0.35812 0.00246 0.78775 0.0
C123 C 0.39759 0.13632 0.65423 0.0
O124 O 0.36348 0.0494 0.81984 0.0
O125 O 0.38026 0.12445 0.70955 0.0
C126 C 0.36943 0.46035 0.87277 0.0
O127 O 0.38261 0.44422 0.85527 0.0
Cd128 Cd 0.3555 0.38727 0.84431 0.0
O129 O 0.33925 0.44723 0.88098 0.0
Cd130 Cd 0.29244 0.39297 0.86427 0.0
C131 C 0.31575 0.36769 0.00571 0.0
O132 O 0.31017 0.37113 0.7714 0.0
O133 O 0.26857 0.33672 0.83215 0.0
O134 O 0.27463 0.4169 0.77752 0.0
C135 C 0.28745 0.34261 0.78001 0.0
O136 O 0.33681 0.36826 0.96377 0.0
C137 C 0.24688 0.40622 0.80376 0.0
O138 O 0.29653 0.37723 -0.01351 0.0
O139 O 0.24039 0.39077 0.8621 0.0
C140 C 0.89204 0.37613 0.03918 0.0
O141 O 0.92175 0.3903 0.02491 0.0
Cd142 Cd 0.95324 0.36475 0.01792 0.0
O143 O 0.87574 0.34587 0.04602 0.0
Cd144 Cd 0.88619 0.30088 0.03079 0.0
C145 C 0.93112 0.32363 0.17699 0.0
O146 O 0.92763 0.32008 0.94126 0.0
O147 O 0.92087 0.27905 0.00325 0.0
O148 O 0.84624 0.28204 0.94007 0.0
C149 C 0.93405 0.29787 0.95124 0.0
O150 O 0.95206 0.34541 0.13714 0.0
C151 C 0.82961 0.25409 0.96533 0.0
O152 O 0.90298 0.30403 0.15496 0.0
O153 O 0.83788 0.24792 0.02476 0.0
C154 C 0.49602 0.89503 0.18716 0.0
O155 O 0.5113 0.92415 0.16796 0.0
Cd156 Cd 0.56836 0.9564 0.16216 0.0
O157 O 0.51038 0.87972 0.20223 0.0
Cd158 Cd 0.5664 0.89065 0.20018 0.0
C159 C 0.58569 0.94388 0.33237 0.0
O160 O 0.58748 0.9264 0.10001 0.0
O161 O 0.62281 0.92424 0.16732 0.0
O162 O 0.54758 0.84385 0.12819 0.0
C163 C 0.61642 0.93426 0.11105 0.0
O164 O 0.58534 0.96265 0.28538 0.0
C165 C 0.55913 0.83048 0.16625 0.0
O166 O 0.57793 0.91504 0.31826 0.0
O167 O 0.57295 0.84415 0.22378 0.0
C168 C 0.31938 0.34706 0.13214 0.0
C169 C 0.3151 0.35679 0.07673 0.0
C170 C 0.32954 0.33805 0.19363 0.0
C171 C 0.34105 0.33354 0.24594 0.0
C172 C 0.97241 0.33663 0.36655 0.0
C173 C -0.01142 0.34829 0.41853 0.0
C174 C 0.95355 0.32647 0.30475 0.0
C175 C 0.94021 0.32235 0.2486 0.0
C176 C 0.60308 0.96924 0.45943 0.0
C177 C 0.59493 0.95601 0.40287 0.0
C178 C 0.6117 -0.01362 0.52375 0.0
C179 C 0.61738 0.00076 0.57895 0.0
C180 C 0.61664 0.63253 0.57878 0.0
C181 C 0.62168 0.6211 0.52686 0.0
C182 C 0.60824 0.64195 0.64238 0.0
C183 C 0.59989 0.64535 0.70051 0.0
C184 C 0.9594 0.62481 0.74838 0.0
C185 C -0.0232 0.62987 0.69798 0.0
C186 C 0.94038 0.61565 0.81046 0.0
C187 C 0.92823 0.60636 0.868 0.0
C188 C 0.32578 -0.0116 0.94885 0.0
C189 C 0.3386 0.00531 0.89808 0.0
C190 C 0.31486 0.96725 0.00735 0.0
C191 C 0.31077 0.95127 0.05969 0.0
C192 C 0.54158 0.44865 0.38754 0.0
C193 C 0.56307 0.47538 0.37549 0.0
C194 C 0.51247 0.42036 0.40155 0.0
C195 C 0.48529 0.39962 0.41286 0.0
C196 C 0.07097 0.51935 0.57652 0.0
C197 C 0.06569 0.49249 0.58661 0.0
C198 C 0.07053 0.54787 0.56345 0.0
C199 C 0.06459 0.56886 0.5513 0.0
C200 C 0.51513 0.09111 0.75428 0.0
C201 C 0.48807 0.08469 0.74232 0.0
C202 C 0.54375 0.09067 0.7653 0.0
C203 C 0.56419 0.0835 0.77176 0.0
C204 C 0.43988 0.54966 0.9035 0.0
C205 C 0.46748 0.57016 0.90966 0.0
C206 C 0.41064 0.52103 0.89439 0.0
C207 C 0.38951 0.49385 0.88594 0.0
C208 C 0.87022 0.4157 0.05712 0.0
C209 C 0.87722 0.39516 0.0501 0.0
C210 C 0.87001 0.44459 0.06545 0.0
C211 C 0.8767 0.47205 0.07195 0.0
C212 C 0.40492 0.87176 0.21231 0.0
C213 C 0.38417 0.87813 0.22388 0.0
C214 C 0.43428 0.87261 0.20211 0.0
C215 C 0.46208 0.88018 0.19687 0.0
C216 C 0.28792 0.30199 0.68938 0.0
C217 C 0.28482 0.31788 0.73429 0.0
C218 C 0.29902 0.29141 0.63249 0.0
C219 C 0.31426 0.28964 0.58397 0.0
C220 C 0.97522 0.29789 0.86094 0.0
C221 C 0.95625 0.2951 0.90581 0.0
C222 C -0.00357 0.30841 0.80309 0.0
C223 C 0.01267 0.32328 0.75334 0.0
C224 C 0.6569 0.97483 0.01868 0.0
C225 C 0.64101 0.95634 0.06459 0.0
C226 C 0.66793 -0.00353 0.96168 0.0
C227 C 0.67032 0.01399 0.9139 0.0
C228 C 0.66335 0.66555 0.08703 0.0
C229 C 0.64704 0.66896 0.04392 0.0
C230 C 0.67443 0.65517 0.1441 0.0
C231 C 0.67636 0.64125 0.19493 0.0
C232 C -0.00164 0.67989 0.31068 0.0
C233 C 0.01319 0.68147 0.36292 0.0
C234 C -0.02234 0.66885 0.25245 0.0
C235 C 0.9581 0.65221 0.20951 0.0
C236 C 0.29408 0.97495 0.45038 0.0
C237 C 0.29039 0.95628 0.40435 0.0
C238 C 0.30496 -0.00347 0.50703 0.0
C239 C 0.31953 0.01411 0.55488 0.0
C240 C 0.40057 0.20632 0.53176 0.0
C241 C 0.39787 0.22591 0.49764 0.0
C242 C 0.4007 0.18356 0.57836 0.0
C243 C 0.39835 0.16223 0.61565 0.0
C244 C 0.20434 0.41124 0.72607 0.0
C245 C 0.22293 0.40838 0.76351 0.0
C246 C 0.18109 0.41134 0.68125 0.0
C247 C 0.15807 0.40842 0.64998 0.0
C248 C 0.78389 0.21067 0.88551 0.0
C249 C 0.80455 0.22978 0.92365 0.0
C250 C 0.76067 0.18698 0.84142 0.0
C251 C 0.73986 0.1639 0.81184 0.0
C252 C 0.55812 0.78037 0.10918 0.0
C253 C 0.55962 0.80298 0.13971 0.0
C254 C 0.55835 0.75661 0.06625 0.0
C255 C 0.56024 0.73715 0.02973 0.0
C256 C 0.76327 0.5618 0.30998 0.0
C257 C 0.7422 0.56475 0.33684 0.0
C258 C 0.78654 0.56105 0.26587 0.0
C259 C 0.80662 0.56267 0.22513 0.0
C260 C 0.17728 0.76481 0.46091 0.0
C261 C 0.15382 0.74497 0.49192 0.0
C262 C 0.20097 0.78694 0.41437 0.0
C263 C 0.21998 0.80699 0.37442 0.0
loop_
_geom_bond_atom_site_label_1
_geom_bond_atom_site_label_2
_geom_bond_distance
_geom_bond_site_symmetry_2
_ccdc_geom_bond_type
C0 O1 1.306 . S
C0 O3 1.160 . S
O1 C0 1.306 . S
O1 Cd2 2.228 . S
Cd2 O1 2.228 . S
Cd2 O6 2.273 . S
Cd2 O10 2.277 . S
O3 C0 1.160 . S
O3 Cd4 2.203 . S
Cd4 O3 2.203 . S
Cd4 O6 2.411 . S
Cd4 O7 2.333 . S
Cd4 O8 2.352 . S
Cd4 O12 2.277 . S
Cd4 O13 2.356 . S
C5 O10 1.209 . S
C5 O12 1.226 . S
O6 Cd2 2.273 . S
O6 Cd4 2.411 . S
O6 C9 1.320 . S
O7 Cd4 2.333 . S
O7 C9 1.214 . S
O8 Cd4 2.352 . S
O8 C11 1.258 . S
C9 O6 1.320 . S
C9 O7 1.214 . S
O10 Cd2 2.277 . S
O10 C5 1.209 . S
C11 O8 1.258 . S
C11 O13 1.282 . S
O12 Cd4 2.277 . S
O12 C5 1.226 . S
O13 Cd4 2.356 . S
O13 C11 1.282 . S
C14 O15 1.306 . S
C14 O17 1.160 . S
O15 C14 1.306 . S
O15 Cd16 2.228 . S
Cd16 O15 2.228 . S
Cd16 O20 2.273 . S
Cd16 O24 2.277 . S
O17 C14 1.160 . S
O17 Cd18 2.203 . S
Cd18 O17 2.203 . S
Cd18 O20 2.411 . S
Cd18 O21 2.333 . S
Cd18 O22 2.352 . S
Cd18 O26 2.277 . S
Cd18 O27 2.356 . S
C19 O24 1.209 . S
C19 O26 1.226 . S
O20 Cd16 2.273 . S
O20 Cd18 2.411 . S
O20 C23 1.320 . S
O21 Cd18 2.333 . S
O21 C23 1.214 . S
O22 Cd18 2.352 . S
O22 C25 1.258 . S
C23 O20 1.320 . S
C23 O21 1.214 . S
O24 Cd16 2.277 . S
O24 C19 1.209 . S
C25 O22 1.258 . S
C25 O27 1.282 . S
O26 Cd18 2.277 . S
O26 C19 1.226 . S
O27 Cd18 2.356 . S
O27 C25 1.282 . S
C28 O29 1.306 . S
C28 O31 1.160 . S
O29 C28 1.306 . S
O29 Cd30 2.228 . S
Cd30 O29 2.228 . S
Cd30 O34 2.273 . S
Cd30 O38 2.277 . S
O31 C28 1.160 . S
O31 Cd32 2.203 . S
Cd32 O31 2.203 . S
Cd32 O34 2.411 . S
Cd32 O35 2.333 . S
Cd32 O36 2.352 . S
Cd32 O40 2.277 . S
Cd32 O41 2.356 . S
C33 O38 1.209 . S
C33 O40 1.226 . S
O34 Cd30 2.273 . S
O34 Cd32 2.411 . S
O34 C37 1.320 . S
O35 Cd32 2.333 . S
O35 C37 1.214 . S
O36 Cd32 2.352 . S
O36 C39 1.258 . S
C37 O34 1.320 . S
C37 O35 1.214 . S
O38 Cd30 2.277 . S
O38 C33 1.209 . S
C39 O36 1.258 . S
C39 O41 1.282 . S
O40 Cd32 2.277 . S
O40 C33 1.226 . S
O41 Cd32 2.356 . S
O41 C39 1.282 . S
C42 O43 1.306 . S
C42 O45 1.160 . S
O43 C42 1.306 . S
O43 Cd44 2.228 . S
Cd44 O43 2.228 . S
Cd44 O48 2.273 1_556 S
Cd44 O52 2.277 . S
O45 C42 1.160 . S
O45 Cd46 2.203 . S
Cd46 O45 2.203 . S
Cd46 O48 2.411 1_556 S
Cd46 O49 2.337 . S
Cd46 O50 2.352 1_556 S
Cd46 O54 2.277 . S
Cd46 O55 2.356 . S
C47 O52 1.209 . S
C47 O54 1.226 . S
O48 Cd44 2.273 1_554 S
O48 Cd46 2.411 1_554 S
O48 C51 1.320 . S
O49 Cd46 2.337 . S
O49 C51 1.210 1_556 S
O50 Cd46 2.352 1_554 S
O50 C53 1.258 1_554 S
C51 O48 1.320 . S
C51 O49 1.210 1_554 S
O52 Cd44 2.277 . S
O52 C47 1.209 . S
C53 O50 1.258 1_556 S
C53 O55 1.282 . S
O54 Cd46 2.277 . S
O54 C47 1.226 . S
O55 Cd46 2.356 . S
O55 C53 1.282 . S
C56 O57 1.306 . S
C56 O59 1.160 . S
O57 C56 1.306 . S
O57 Cd58 2.228 . S
Cd58 O57 2.228 . S
Cd58 O62 2.273 . S
Cd58 O66 2.277 . S
O59 C56 1.160 . S
O59 Cd60 2.203 . S
Cd60 O59 2.203 . S
Cd60 O62 2.411 . S
Cd60 O63 2.333 . S
Cd60 O64 2.352 . S
Cd60 O68 2.277 1_554 S
Cd60 O69 2.356 . S
C61 O66 1.209 1_556 S
C61 O68 1.226 . S
O62 Cd58 2.273 . S
O62 Cd60 2.411 . S
O62 C65 1.320 . S
O63 Cd60 2.333 . S
O63 C65 1.214 . S
O64 Cd60 2.352 . S
O64 C67 1.258 . S
C65 O62 1.320 . S
C65 O63 1.214 . S
O66 Cd58 2.277 . S
O66 C61 1.209 1_554 S
C67 O64 1.258 . S
C67 O69 1.282 . S
O68 Cd60 2.277 1_556 S
O68 C61 1.226 . S
O69 Cd60 2.356 . S
O69 C67 1.282 . S
C70 O71 1.306 . S
C70 O73 1.160 . S
O71 C70 1.306 . S
O71 Cd72 2.228 . S
Cd72 O71 2.228 . S
Cd72 O76 2.273 . S
Cd72 O80 2.277 . S
O73 C70 1.160 . S
O73 Cd74 2.203 . S
Cd74 O73 2.203 . S
Cd74 O76 2.411 . S
Cd74 O77 2.333 . S
Cd74 O78 2.352 . S
Cd74 O82 2.277 . S
Cd74 O83 2.356 . S
C75 O80 1.209 . S
C75 O82 1.226 . S
O76 Cd72 2.273 . S
O76 Cd74 2.411 . S
O76 C79 1.320 . S
O77 Cd74 2.333 . S
O77 C79 1.214 . S
O78 Cd74 2.352 . S
O78 C81 1.258 . S
C79 O76 1.320 . S
C79 O77 1.214 . S
O80 Cd72 2.277 . S
O80 C75 1.209 . S
C81 O78 1.258 . S
C81 O83 1.282 . S
O82 Cd74 2.277 . S
O82 C75 1.226 . S
O83 Cd74 2.356 . S
O83 C81 1.282 . S
C84 O85 1.306 . S
C84 O87 1.160 . S
O85 C84 1.306 . S
O85 Cd86 2.228 . S
Cd86 O85 2.228 . S
Cd86 O90 2.273 . S
Cd86 O94 2.277 . S
O87 C84 1.160 . S
O87 Cd88 2.203 . S
Cd88 O87 2.203 . S
Cd88 O90 2.411 . S
Cd88 O91 2.333 . S
Cd88 O92 2.352 . S
Cd88 O96 2.277 . S
Cd88 O97 2.356 . S
C89 O94 1.209 . S
C89 O96 1.226 . S
O90 Cd86 2.273 . S
O90 Cd88 2.411 . S
O90 C93 1.320 . S
O91 Cd88 2.333 . S
O91 C93 1.214 . S
O92 Cd88 2.352 . S
O92 C95 1.258 . S
C93 O90 1.320 . S
C93 O91 1.214 . S
O94 Cd86 2.277 . S
O94 C89 1.209 . S
C95 O92 1.258 . S
C95 O97 1.282 . S
O96 Cd88 2.277 . S
O96 C89 1.226 . S
O97 Cd88 2.356 . S
O97 C95 1.282 . S
C98 O99 1.306 . S
C98 O101 1.160 . S
O99 C98 1.306 . S
O99 Cd100 2.228 . S
Cd100 O99 2.228 . S
Cd100 O104 2.273 . S
Cd100 O108 2.277 . S
O101 C98 1.160 . S
O101 Cd102 2.203 . S
Cd102 O101 2.203 . S
Cd102 O104 2.411 . S
Cd102 O105 2.333 . S
Cd102 O106 2.352 . S
Cd102 O110 2.277 . S
Cd102 O111 2.356 . S
C103 O108 1.209 . S
C103 O110 1.226 . S
O104 Cd100 2.273 . S
O104 Cd102 2.411 . S
O104 C107 1.320 . S
O105 Cd102 2.333 . S
O105 C107 1.214 . S
O106 Cd102 2.352 . S
O106 C109 1.258 . S
C107 O104 1.320 . S
C107 O105 1.214 . S
O108 Cd100 2.277 . S
O108 C103 1.209 . S
C109 O106 1.258 . S
C109 O111 1.282 . S
O110 Cd102 2.277 . S
O110 C103 1.226 . S
O111 Cd102 2.356 . S
O111 C109 1.282 . S
C112 O113 1.306 . S
C112 O115 1.160 . S
O113 C112 1.306 . S
O113 Cd114 2.228 . S
Cd114 O113 2.228 . S
Cd114 O118 2.273 . S
Cd114 O122 2.277 . S
O115 C112 1.160 . S
O115 Cd116 2.203 . S
Cd116 O115 2.203 . S
Cd116 O118 2.411 . S
Cd116 O119 2.333 . S
Cd116 O120 2.352 . S
Cd116 O124 2.277 . S
Cd116 O125 2.356 . S
C117 O122 1.209 . S
C117 O124 1.226 . S
O118 Cd114 2.273 . S
O118 Cd116 2.411 . S
O118 C121 1.320 . S
O119 Cd116 2.333 . S
O119 C121 1.214 . S
O120 Cd116 2.352 . S
O120 C123 1.258 . S
C121 O118 1.320 . S
C121 O119 1.214 . S
O122 Cd114 2.277 . S
O122 C117 1.209 . S
C123 O120 1.258 . S
C123 O125 1.282 . S
O124 Cd116 2.277 . S
O124 C117 1.226 . S
O125 Cd116 2.356 . S
O125 C123 1.282 . S
C126 O127 1.306 . S
C126 O129 1.160 . S
O127 C126 1.306 . S
O127 Cd128 2.228 . S
Cd128 O127 2.228 . S
Cd128 O132 2.273 . S
Cd128 O136 2.277 . S
O129 C126 1.160 . S
O129 Cd130 2.203 . S
Cd130 O129 2.203 . S
Cd130 O132 2.411 . S
Cd130 O133 2.333 . S
Cd130 O134 2.352 . S
Cd130 O138 2.277 1_556 S
Cd130 O139 2.356 . S
C131 O136 1.209 1_554 S
C131 O138 1.226 . S
O132 Cd128 2.273 . S
O132 Cd130 2.411 . S
O132 C135 1.320 . S
O133 Cd130 2.333 . S
O133 C135 1.214 . S
O134 Cd130 2.352 . S
O134 C137 1.258 . S
C135 O132 1.320 . S
C135 O133 1.214 . S
O136 Cd128 2.277 . S
O136 C131 1.209 1_556 S
C137 O134 1.258 . S
C137 O139 1.282 . S
O138 Cd130 2.277 1_554 S
O138 C131 1.226 . S
O139 Cd130 2.356 . S
O139 C137 1.282 . S
C140 O141 1.306 . S
C140 O143 1.160 . S
O141 C140 1.306 . S
O141 Cd142 2.228 . S
Cd142 O141 2.228 . S
Cd142 O146 2.273 1_554 S
Cd142 O150 2.277 . S
O143 C140 1.160 . S
O143 Cd144 2.203 . S
Cd144 O143 2.203 . S
Cd144 O146 2.411 1_554 S
Cd144 O147 2.337 . S
Cd144 O148 2.352 1_554 S
Cd144 O152 2.277 . S
Cd144 O153 2.356 . S
C145 O150 1.209 . S
C145 O152 1.226 . S
O146 Cd142 2.273 1_556 S
O146 Cd144 2.411 1_556 S
O146 C149 1.320 . S
O147 Cd144 2.337 . S
O147 C149 1.210 1_554 S
O148 Cd144 2.352 1_556 S
O148 C151 1.258 1_556 S
C149 O146 1.320 . S
C149 O147 1.210 1_556 S
O150 Cd142 2.277 . S
O150 C145 1.209 . S
C151 O148 1.258 1_554 S
C151 O153 1.282 . S
O152 Cd144 2.277 . S
O152 C145 1.226 . S
O153 Cd144 2.356 . S
O153 C151 1.282 . S
C154 O155 1.306 . S
C154 O157 1.160 . S
O155 C154 1.306 . S
O155 Cd156 2.228 . S
Cd156 O155 2.228 . S
Cd156 O160 2.273 . S
Cd156 O164 2.277 . S
O157 C154 1.160 . S
O157 Cd158 2.203 . S
Cd158 O157 2.203 . S
Cd158 O160 2.411 . S
Cd158 O161 2.333 . S
Cd158 O162 2.352 . S
Cd158 O166 2.277 . S
Cd158 O167 2.356 . S
C159 O164 1.209 . S
C159 O166 1.226 . S
O160 Cd156 2.273 . S
O160 Cd158 2.411 . S
O160 C163 1.320 . S
O161 Cd158 2.333 . S
O161 C163 1.214 . S
O162 Cd158 2.352 . S
O162 C165 1.258 . S
C163 O160 1.320 . S
C163 O161 1.214 . S
O164 Cd156 2.277 . S
O164 C159 1.209 . S
C165 O162 1.258 . S
C165 O167 1.282 . S
O166 Cd158 2.277 . S
O166 C159 1.226 . S
O167 Cd158 2.356 . S
O167 C165 1.282 . S
C168 C169 1.170 . S
C168 C170 1.380 . S
C169 C168 1.170 . S
C170 C168 1.380 . S
C170 C171 1.170 . S
C171 C170 1.170 . S
C172 C173 1.170 . S
C172 C174 1.380 1_455 S
C173 C172 1.170 . S
C174 C172 1.380 1_655 S
C174 C175 1.170 . S
C175 C174 1.170 . S
C176 C177 1.170 . S
C176 C178 1.380 1_565 S
C177 C176 1.170 . S
C178 C176 1.380 1_545 S
C178 C179 1.170 . S
C179 C178 1.170 . S
C180 C181 1.170 . S
C180 C182 1.380 . S
C181 C180 1.170 . S
C182 C180 1.380 . S
C182 C183 1.170 . S
C183 C182 1.170 . S
C184 C185 1.170 . S
C184 C186 1.380 1_455 S
C185 C184 1.170 . S
C186 C184 1.380 1_655 S
C186 C187 1.170 . S
C187 C186 1.170 . S
C188 C189 1.170 . S
C188 C190 1.380 1_546 S
C189 C188 1.170 . S
C190 C188 1.380 1_564 S
C190 C191 1.170 . S
C191 C190 1.170 . S
C192 C193 1.170 . S
C192 C194 1.380 . S
C193 C192 1.170 . S
C194 C192 1.380 . S
C194 C195 1.170 . S
C195 C194 1.170 . S
C196 C197 1.170 . S
C196 C198 1.380 . S
C197 C196 1.170 . S
C198 C196 1.380 . S
C198 C199 1.170 . S
C199 C198 1.170 . S
C200 C201 1.170 . S
C200 C202 1.380 . S
C201 C200 1.170 . S
C202 C200 1.380 . S
C202 C203 1.170 . S
C203 C202 1.170 . S
C204 C205 1.170 . S
C204 C206 1.380 . S
C205 C204 1.170 . S
C206 C204 1.380 . S
C206 C207 1.170 . S
C207 C206 1.170 . S
C208 C209 1.170 . S
C208 C210 1.380 . S
C209 C208 1.170 . S
C210 C208 1.380 . S
C210 C211 1.170 . S
C211 C210 1.170 . S
C212 C213 1.170 . S
C212 C214 1.380 . S
C213 C212 1.170 . S
C214 C212 1.380 . S
C214 C215 1.170 . S
C215 C214 1.170 . S
C216 C217 1.170 . S
C216 C218 1.380 . S
C217 C216 1.170 . S
C218 C216 1.380 . S
C218 C219 1.170 . S
C219 C218 1.170 . S
C220 C221 1.170 . S
C220 C222 1.380 1_655 S
C221 C220 1.170 . S
C222 C220 1.380 1_455 S
C222 C223 1.170 . S
C223 C222 1.170 . S
C224 C225 1.170 . S
C224 C226 1.380 1_564 S
C225 C224 1.170 . S
C226 C224 1.380 1_546 S
C226 C227 1.170 . S
C227 C226 1.170 . S
C228 C229 1.170 . S
C228 C230 1.380 . S
C229 C228 1.170 . S
C230 C228 1.380 . S
C230 C231 1.170 . S
C231 C230 1.170 . S
C232 C233 1.170 . S
C232 C234 1.380 1_455 S
C233 C232 1.170 . S
C234 C232 1.380 1_655 S
C234 C235 1.170 . S
C235 C234 1.170 . S
C236 C237 1.170 . S
C236 C238 1.380 1_565 S
C237 C236 1.170 . S
C238 C236 1.380 1_545 S
C238 C239 1.170 . S
C239 C238 1.170 . S
C240 C241 1.170 . S
C240 C242 1.380 . S
C241 C240 1.170 . S
C242 C240 1.380 . S
C242 C243 1.170 . S
C243 C242 1.170 . S
C244 C245 1.170 . S
C244 C246 1.380 . S
C245 C244 1.170 . S
C246 C244 1.380 . S
C246 C247 1.170 . S
C247 C246 1.170 . S
C248 C249 1.170 . S
C248 C250 1.380 . S
C249 C248 1.170 . S
C250 C248 1.380 . S
C250 C251 1.170 . S
C251 C250 1.170 . S
C252 C253 1.170 . S
C252 C254 1.380 . S
C253 C252 1.170 . S
C254 C252 1.380 . S
C254 C255 1.170 . S
C255 C254 1.170 . S
C256 C257 1.170 . S
C256 C258 1.380 . S
C257 C256 1.170 . S
C258 C256 1.380 . S
C258 C259 1.170 . S
C259 C258 1.170 . S
C260 C261 1.170 . S
C260 C262 1.380 . S
C261 C260 1.170 . S
C262 C260 1.380 . S
C262 C263 1.170 . S
C263 C262 1.170 . S
C169 C131 1.583 . S
C171 C5 1.581 . S
C173 C19 1.576 . S
C175 C145 1.586 . S
C177 C159 1.577 . S
C179 C33 1.570 . S
C181 C89 1.571 . S
C183 C47 1.587 . S
C185 C103 1.571 . S
C187 C61 1.587 . S
C189 C117 1.576 . S
C191 C75 1.571 . S
C193 C84 1.525 . S
C195 C0 1.535 . S
C197 C14 1.529 . S
C199 C98 1.522 . S
C201 C112 1.560 . S
C203 C28 1.560 . S
C205 C42 1.549 . S
C207 C126 1.538 . S
C209 C140 1.561 . S
C211 C56 1.557 . S
C213 C70 1.555 . S
C215 C154 1.560 . S
C217 C135 1.406 . S
C219 C9 1.394 . S
C221 C149 1.405 . S
C223 C23 1.397 . S
C225 C163 1.404 . S
C227 C37 1.391 . S
C229 C51 1.390 . S
C231 C93 1.396 . S
C233 C107 1.392 . S
C235 C65 1.393 . S
C237 C79 1.396 . S
C239 C121 1.390 . S
C241 C11 1.292 . S
C243 C123 1.280 . S
C245 C137 1.297 . S
C247 C25 1.272 . S
C249 C151 1.285 1_556 S
C251 C39 1.280 . S
C253 C165 1.282 . S
C255 C53 1.283 1_554 S
C257 C95 1.297 . S
C259 C67 1.272 . S
C261 C109 1.289 . S
C263 C81 1.283 . S
