# Generated by pormake.
# Topology qtz-e, (6)-cn, num edge types: 1
# Building blocks:
#     Node 0, Type 0, BuildingBlock: KUMBUR_clean_sbu_0, # of connection points: 6
#     Node 1, Type 0, BuildingBlock: KUMBUR_clean_sbu_0, # of connection points: 6
#     Node 2, Type 0, BuildingBlock: KUMBUR_clean_sbu_0, # of connection points: 6
#     Node 3, Type 0, BuildingBlock: KUMBUR_clean_sbu_0, # of connection points: 6
#     Node 4, Type 0, BuildingBlock: KUMBUR_clean_sbu_0, # of connection points: 6
#     Node 5, Type 0, BuildingBlock: KUMBUR_clean_sbu_0, # of connection points: 6
#     Edge 6, Type (0, 0), BuildingBlock: OJICUG_clean_linker_0, # of connection points: 2
#     Edge 7, Type (0, 0), BuildingBlock: OJICUG_clean_linker_0, # of connection points: 2
#     Edge 8, Type (0, 0), BuildingBlock: OJICUG_clean_linker_0, # of connection points: 2
#     Edge 9, Type (0, 0), BuildingBlock: OJICUG_clean_linker_0, # of connection points: 2
#     Edge 10, Type (0, 0), BuildingBlock: OJICUG_clean_linker_0, # of connection points: 2
#     Edge 11, Type (0, 0), BuildingBlock: OJICUG_clean_linker_0, # of connection points: 2
#     Edge 12, Type (0, 0), BuildingBlock: OJICUG_clean_linker_0, # of connection points: 2
#     Edge 13, Type (0, 0), BuildingBlock: OJICUG_clean_linker_0, # of connection points: 2
#     Edge 14, Type (0, 0), BuildingBlock: OJICUG_clean_linker_0, # of connection points: 2
#     Edge 15, Type (0, 0), BuildingBlock: OJICUG_clean_linker_0, # of connection points: 2
#     Edge 16, Type (0, 0), BuildingBlock: OJICUG_clean_linker_0, # of connection points: 2
#     Edge 17, Type (0, 0), BuildingBlock: OJICUG_clean_linker_0, # of connection points: 2
#     Edge 18, Type (0, 0), BuildingBlock: OJICUG_clean_linker_0, # of connection points: 2
#     Edge 19, Type (0, 0), BuildingBlock: OJICUG_clean_linker_0, # of connection points: 2
#     Edge 20, Type (0, 0), BuildingBlock: OJICUG_clean_linker_0, # of connection points: 2
#     Edge 21, Type (0, 0), BuildingBlock: OJICUG_clean_linker_0, # of connection points: 2
#     Edge 22, Type (0, 0), BuildingBlock: OJICUG_clean_linker_0, # of connection points: 2
#     Edge 23, Type (0, 0), BuildingBlock: OJICUG_clean_linker_0, # of connection points: 2
# Relax obj value: 0.063
# Max RMSD: 0.154
# Mean RMSD: 0.154
data_MOF--net-qtz-e--node1-KUMBUR_clean_sbu_0--edge1-OJICUG_clean_linker_0
_symmetry_space_group_name_H-M    P1
_symmetry_Int_Tables_number       1
_symmetry_cell_setting            triclinic
loop_
_symmetry_equiv_pos_as_xyz
'x, y, z'
_cell_length_a     21.956624
_cell_length_b     21.941158
_cell_length_c     37.038084
_cell_angle_alpha  90.063518
_cell_angle_beta   90.036746
_cell_angle_gamma 120.2272
loop_
_atom_site_label
_atom_site_type_symbol
_atom_site_fract_x
_atom_site_fract_y
_atom_site_fract_z
_atom_type_partial_charge
Tb0 Tb 0.29589 0.53964 0.07268 0.0
C1 C 0.07466 0.25177 0.02462 0.0
C2 C 0.10119 0.18221 0.06524 0.0
C3 C 0.9807 0.13748 0.04495 0.0
C4 C 0.12262 0.24397 0.04487 0.0
C5 C 1.00338 0.19783 0.02344 0.0
C6 C 0.0296 0.12972 0.06591 0.0
C7 C 0.98461 0.26371 0.97693 0.0
N8 N 0.09913 0.31018 1.00393 0.0
C9 C 0.05598 0.31541 0.97898 0.0
C10 C 0.95788 0.2051 0.99967 0.0
Tb11 Tb 0.21578 0.39431 1.01006 0.0
N12 N 0.19115 0.29532 0.04279 0.0
C13 C 0.24198 0.28607 0.05899 0.0
C14 C 0.15263 0.17416 0.08331 0.0
C15 C 0.22347 0.22593 0.07974 0.0
H16 H 0.07633 0.36082 0.9614 0.0
H17 H 0.26389 0.21976 0.0931 0.0
H18 H 1.01191 0.08211 0.08163 0.0
H19 H 0.95033 0.26913 0.95781 0.0
H20 H 0.29694 0.32557 0.05701 0.0
H21 H 0.33538 0.77647 1.00679 0.0
H22 H 0.13844 0.12756 0.0993 0.0
H23 H 0.4065 0.50643 0.12031 0.0
H24 H 0.26753 0.65304 0.0266 0.0
H25 H 0.52898 0.57224 0.14125 0.0
H26 H 0.92601 0.0957 0.04476 0.0
H27 H 0.46159 0.84918 0.02272 0.0
H28 H 0.56676 0.8594 0.05527 0.0
H29 H 0.90271 0.16487 0.9979 0.0
H30 H 0.61874 0.80447 0.09266 0.0
N31 N 0.35498 0.65311 0.05142 0.0
C32 C 0.32284 0.68316 0.03299 0.0
C33 C 0.4322 0.79447 0.03106 0.0
C34 C 0.46406 0.76473 0.05163 0.0
C35 C 0.36107 0.7536 0.02197 0.0
C36 C 0.4234 0.69323 0.06175 0.0
H37 H 0.60506 0.69755 0.1248 0.0
N38 N 0.41116 0.59364 0.09211 0.0
C39 C 0.50799 0.59834 0.12496 0.0
C40 C 0.45221 0.6629 0.08334 0.0
C41 C 0.43798 0.56125 0.11311 0.0
C42 C 0.55077 0.66914 0.11569 0.0
C43 C 0.5231 0.70235 0.09464 0.0
O44 O 0.28745 0.54173 0.12898 0.0
O45 O 0.21903 0.42806 0.0656 0.0
O46 O 0.13379 0.42352 0.02368 0.0
O47 O 0.19998 0.53415 0.05182 0.0
O48 O 0.28539 0.45506 0.10806 0.0
O49 O 0.25145 0.59681 0.09431 0.0
O50 O 0.20641 0.3831 0.95326 0.0
O51 O 0.28057 0.50532 1.01758 0.0
O52 O 0.3825 0.5437 0.04275 0.0
O53 O 0.32973 0.42798 0.02216 0.0
O54 O 0.21501 0.47181 0.97365 0.0
O55 O 0.26971 0.3511 0.98202 0.0
C56 C 0.23061 0.40319 0.09386 0.0
C57 C 0.30674 0.65076 0.14948 0.0
C58 C 0.35031 0.70166 0.20886 0.0
C59 C 0.31204 0.64259 0.18662 0.0
C60 C 0.38621 0.76921 0.19291 0.0
C61 C 0.34137 0.7186 0.13428 0.0
C62 C 0.38197 0.77731 0.15587 0.0
C63 C 0.1412 0.48422 0.03657 0.0
C64 C 0.26629 0.58752 0.12725 0.0
C65 C 0.56416 0.77329 0.08426 0.0
C66 C 0.53466 0.80446 0.06285 0.0
C67 C 0.262 0.52681 0.99054 0.0
C68 C 0.22341 0.29518 0.92482 0.0
C69 C 0.26543 0.29791 0.89472 0.0
C70 C 0.24194 0.23934 0.87077 0.0
C71 C 0.17556 0.17954 0.87722 0.0
C72 C 0.15792 0.23411 0.93014 0.0
C73 C 0.13416 0.17713 0.90642 0.0
C74 C 0.38707 0.49045 0.02947 0.0
C75 C 0.24692 0.35599 0.95028 0.0
H76 H 0.28495 0.59014 0.19824 0.0
H77 H 0.41471 0.81645 0.20913 0.0
H78 H 0.337 0.72667 0.10587 0.0
H79 H 0.40858 0.82947 0.14402 0.0
H80 H 0.31652 0.34447 0.89049 0.0
H81 H 0.15567 0.13397 0.85961 0.0
H82 H 0.12491 0.23044 0.95268 0.0
H83 H 0.08336 0.13038 0.91086 0.0
Tb84 Tb 0.75314 0.27505 0.3856 0.0
C85 C 0.82787 0.04637 0.35809 0.0
C86 C 0.91531 0.07351 0.40439 0.0
C87 C 0.84299 0.95267 0.38341 0.0
C88 C 0.8796 0.0946 0.38034 0.0
C89 C 0.80971 0.97495 0.35862 0.0
C90 C 0.8957 1.00195 0.40635 0.0
C91 C 0.73165 0.95475 0.30832 0.0
N92 N 0.79798 0.07046 0.33445 0.0
C93 C 0.75194 0.02629 0.30885 0.0
C94 C 0.76011 0.92873 0.33359 0.0
Tb95 Tb 0.83051 0.18719 0.33798 0.0
N96 N 0.89716 0.16297 0.37707 0.0
C97 C 0.95361 0.21407 0.39583 0.0
C98 C 0.97073 0.1252 0.42495 0.0
C99 C 0.99055 0.19593 0.42027 0.0
H100 H 0.72948 0.04592 0.2893 0.0
H101 H 0.03411 0.23656 0.43559 0.0
H102 H 0.92203 0.98449 0.42487 0.0
H103 H 0.69414 0.91978 0.28843 0.0
H104 H 0.96962 0.26896 0.39298 0.0
H105 H 0.57523 0.31347 0.30079 0.0
H106 H 0.99946 0.11128 0.44383 0.0
H107 H 0.89371 0.39008 0.43539 0.0
H108 H 0.62114 0.24492 0.33108 0.0
H109 H 0.95397 0.51565 0.45021 0.0
H110 H 0.82948 0.89792 0.38449 0.0
H111 H 0.63256 0.44222 0.3109 0.0
H112 H 0.72636 0.5505 0.34247 0.0
H113 H 0.74463 0.87341 0.33305 0.0
H114 H 0.82794 0.60494 0.38385 0.0
N115 N 0.70721 0.33431 0.35584 0.0
C116 C 0.64825 0.30136 0.33469 0.0
C117 C 0.65366 0.41247 0.32381 0.0
C118 C 0.71186 0.44548 0.34694 0.0
C119 C 0.62134 0.33992 0.31792 0.0
C120 C 0.73719 0.40429 0.36305 0.0
H121 H 0.9131 0.59242 0.42406 0.0
N122 N 0.81624 0.39279 0.40139 0.0
C123 C 0.90841 0.49338 0.43259 0.0
C124 C 0.79316 0.43453 0.38692 0.0
C125 C 0.87314 0.42138 0.42425 0.0
C126 C 0.88525 0.53658 0.41776 0.0
C127 C 0.82707 0.50739 0.39455 0.0
O128 O 0.72756 0.27071 0.44013 0.0
O129 O 0.79193 0.20163 0.38884 0.0
O130 O 0.71864 0.10493 0.35342 0.0
O131 O 0.66732 0.17466 0.3657 0.0
O132 O 0.81677 0.26955 0.4301 0.0
O133 O 0.64643 0.2336 0.39871 0.0
O134 O 0.84465 0.1804 0.28193 0.0
O135 O 0.77966 0.24791 0.33469 0.0
O136 O 0.83796 0.35351 0.35298 0.0
O137 O 0.90696 0.30159 0.35283 0.0
O138 O 0.75633 0.17302 0.29532 0.0
O139 O 0.93347 0.24293 0.31561 0.0
C140 C 0.82139 0.21649 0.41939 0.0
C141 C 0.63382 0.28959 0.45049 0.0
C142 C 0.61255 0.33143 0.50699 0.0
C143 C 0.63849 0.29436 0.48799 0.0
C144 C 0.58404 0.36661 0.4877 0.0
C145 C 0.60464 0.32409 0.43139 0.0
C146 C 0.58059 0.36317 0.45004 0.0
C147 C 0.66231 0.11284 0.35934 0.0
C148 C 0.6617 0.24937 0.43272 0.0
C149 C 0.80258 0.54889 0.37833 0.0
C150 C 0.74494 0.51795 0.35466 0.0
C151 C 0.74375 0.22109 0.30646 0.0
C152 C 0.95549 0.20255 0.25943 0.0
C153 C 0.99542 0.24506 0.22955 0.0
C154 C 0.03562 0.225 0.20747 0.0
C155 C 0.03324 0.16114 0.21558 0.0
C156 C 0.95534 0.13978 0.26644 0.0
C157 C 0.99362 0.11924 0.24458 0.0
C158 C 0.90003 0.35874 0.3501 0.0
C159 C 0.91249 0.22241 0.2826 0.0
H160 H 0.6619 0.26824 0.50248 0.0
H161 H 0.56216 0.39463 0.50164 0.0
H162 H 0.60014 0.32088 0.40232 0.0
H163 H 0.55797 0.38966 0.43535 0.0
H164 H 0.99623 0.29393 0.22401 0.0
H165 H 0.0623 0.14333 0.19931 0.0
H166 H 0.92519 0.10637 0.28878 0.0
H167 H 0.99278 0.07042 0.25021 0.0
Tb168 Tb 0.51271 0.75664 0.73879 0.0
C169 C 0.80103 0.8579 0.68931 0.0
C170 C 0.86177 0.95922 0.72868 0.0
C171 C 0.9197 0.89468 0.71029 0.0
C172 C 0.80171 0.91206 0.70848 0.0
C173 C 0.8608 0.84972 0.68912 0.0
C174 C 0.92016 0.94934 0.73008 0.0
C175 C 0.80314 0.75909 0.64385 0.0
N176 N 0.74368 0.81636 0.66881 0.0
C177 C 0.74557 0.76984 0.64473 0.0
C178 C 0.86062 0.79844 0.66658 0.0
Tb179 Tb 0.65113 0.83693 0.67259 0.0
N180 N 0.74452 0.92016 0.70617 0.0
C181 C 0.74526 0.97641 0.72271 0.0
C182 C 0.86198 0.01577 0.7462 0.0
C183 C 0.8037 0.02473 0.74289 0.0
H184 H 0.70176 0.73981 0.62659 0.0
H185 H 0.80342 0.06857 0.75616 0.0
H186 H 0.96653 0.98468 0.74567 0.0
H187 H 0.80335 0.72085 0.62545 0.0
H188 H 0.70085 0.9843 0.72125 0.0
H189 H 0.27645 0.57206 0.66611 0.0
H190 H 0.90708 0.05319 0.76194 0.0
H191 H 0.53305 0.86332 0.80856 0.0
H192 H 0.39956 0.6257 0.68505 0.0
H193 H 0.46263 0.90307 0.84111 0.0
H194 H 0.96585 0.88883 0.71076 0.0
H195 H 0.20143 0.61677 0.69035 0.0
H196 H 0.18773 0.69738 0.73342 0.0
H197 H 0.90549 0.79052 0.66562 0.0
H198 H 0.23807 0.78661 0.78163 0.0
N199 N 0.39775 0.70358 0.71868 0.0
C200 C 0.36851 0.64651 0.69598 0.0
C201 C 0.25607 0.64105 0.69869 0.0
C202 C 0.28431 0.69565 0.72406 0.0
C203 C 0.29813 0.6156 0.68504 0.0
C204 C 0.35592 0.72561 0.73386 0.0
H205 H 0.33991 0.8623 0.82247 0.0
N206 N 0.45225 0.80041 0.7703 0.0
C207 C 0.43991 0.86744 0.81842 0.0
C208 C 0.38391 0.77527 0.7609 0.0
C209 C 0.47991 0.84453 0.79956 0.0
C210 C 0.37072 0.84438 0.80782 0.0
C211 C 0.34159 0.79717 0.77899 0.0
O212 O 0.51574 0.72884 0.79281 0.0
O213 O 0.62472 0.79774 0.72793 0.0
O214 O 0.62583 0.72462 0.68023 0.0
O215 O 0.51565 0.67303 0.70838 0.0
O216 O 0.59792 0.82685 0.77449 0.0
O217 O 0.46428 0.6493 0.75168 0.0
O218 O 0.67016 0.83988 0.6164 0.0
O219 O 0.54168 0.78945 0.68384 0.0
O220 O 0.5131 0.85293 0.72531 0.0
O221 O 0.60668 0.90863 0.68432 0.0
O222 O 0.5686 0.7656 0.63509 0.0
O223 O 0.68874 0.93315 0.64427 0.0
C224 C 0.65019 0.83131 0.75717 0.0
C225 C 0.40429 0.63237 0.80648 0.0
C226 C 0.34217 0.63057 0.86111 0.0
C227 C 0.40523 0.65377 0.84219 0.0
C228 C 0.27755 0.58711 0.84338 0.0
C229 C 0.33928 0.58729 0.7896 0.0
C230 C 0.27636 0.56583 0.80785 0.0
C231 C 0.56626 0.66828 0.69177 0.0
C232 C 0.47058 0.66274 0.78612 0.0
C233 C 0.27122 0.76998 0.76829 0.0
C234 C 0.24261 0.71931 0.74082 0.0
C235 C 0.51635 0.75668 0.65471 0.0
C236 C 0.75273 0.95023 0.58923 0.0
C237 C 0.748 0.98815 0.55902 0.0
C238 C 0.80801 0.03057 0.53704 0.0
C239 C 0.87153 0.0328 0.54555 0.0
C240 C 0.81736 0.95448 0.59657 0.0
C241 C 0.87597 0.99506 0.57481 0.0
C242 C 0.55474 0.90681 0.70436 0.0
C243 C 0.69071 0.90664 0.61306 0.0
H244 H 0.45518 0.68825 0.85535 0.0
H245 H 0.22779 0.56653 0.85742 0.0
H246 H 0.33672 0.56938 0.76212 0.0
H247 H 0.22654 0.5316 0.79462 0.0
H248 H 0.69858 0.98598 0.55322 0.0
H249 H 0.9183 0.06422 0.52944 0.0
H250 H 0.82266 0.92646 0.61924 0.0
H251 H 0.92552 0.99774 0.58082 0.0
Tb252 Tb 0.76157 0.4867 0.05499 0.0
C253 C 0.9876 0.78793 0.02576 0.0
C254 C 0.95984 0.84871 0.0715 0.0
C255 C 0.08106 0.89698 0.05167 0.0
C256 C 0.93892 0.79176 0.04741 0.0
C257 C 0.05908 0.84126 0.02684 0.0
C258 C 0.03147 0.90063 0.07404 0.0
C259 C 0.07994 0.7836 0.9767 0.0
N260 N 0.96394 0.73373 1.00209 0.0
C261 C 1.00831 0.73227 0.97664 0.0
C262 C 0.10568 0.83793 1.00223 0.0
Tb263 Tb 0.84688 0.65015 1.00465 0.0
N264 N 0.87045 0.741 0.04366 0.0
C265 C 0.81925 0.7461 0.06214 0.0
C266 C 0.90796 0.85254 0.09159 0.0
C267 C 0.83725 0.80141 0.08655 0.0
H268 H 0.98861 0.69019 0.95692 0.0
H269 H 0.79653 0.80432 0.10158 0.0
H270 H 0.04875 0.9446 0.09256 0.0
H271 H 0.11518 0.78128 0.95705 0.0
H272 H 0.7644 0.70693 0.05902 0.0
H273 H 0.70862 0.25443 0.97929 0.0
H274 H 0.92177 0.89532 0.11047 0.0
H275 H 0.6541 0.5243 0.10323 0.0
H276 H 0.7819 0.37468 1.00308 0.0
H277 H 0.53144 0.46182 0.12353 0.0
H278 H 0.13588 0.93825 0.05319 0.0
H279 H 0.58227 0.18497 0.99532 0.0
H280 H 0.47989 0.17677 0.02976 0.0
H281 H 0.16107 0.87786 1.00213 0.0
H282 H 0.43242 0.23235 0.06986 0.0
N283 N 0.69715 0.37663 0.02986 0.0
C284 C 0.72633 0.34634 1.00914 0.0
C285 C 0.61401 0.23842 1.00531 0.0
C286 C 0.58506 0.26826 0.02798 0.0
C287 C 0.68516 0.27751 0.99609 0.0
C288 C 0.62873 0.33805 0.04025 0.0
H289 H 0.45122 0.33847 0.1049 0.0
N290 N 0.64628 0.43643 0.07402 0.0
C291 C 0.55094 0.43483 0.10686 0.0
C292 C 0.6025 0.36865 0.06342 0.0
C293 C 0.62125 0.46985 0.09553 0.0
C294 C 0.50577 0.36519 0.09627 0.0
C295 C 0.53119 0.33129 0.07414 0.0
O296 O 0.76953 0.4663 0.10936 0.0
O297 O 0.83595 0.59958 0.0562 0.0
O298 O 0.9279 0.61919 1.01842 0.0
O299 O 0.8569 0.49802 0.0305 0.0
O300 O 0.77304 0.55847 0.09936 0.0
O301 O 0.80878 0.42649 0.06719 0.0
O302 O 0.85605 0.67091 0.94874 0.0
O303 O 0.78553 0.53837 1.00363 0.0
O304 O 0.68023 0.48989 0.02336 0.0
O305 O 0.73256 0.61149 1.01862 0.0
O306 O 0.85077 0.58693 0.96024 0.0
O307 O 0.79618 0.70177 0.98174 0.0
C308 C 0.82467 0.61586 0.08719 0.0
C309 C 0.75298 0.35311 0.11754 0.0
C310 C 0.69902 0.28304 0.17128 0.0
C311 C 0.73294 0.34825 0.1537 0.0
C312 C 0.68044 0.2214 0.1512 0.0
C313 C 0.7358 0.29142 0.09814 0.0
C314 C 0.69821 0.22578 0.11477 0.0
C315 C 0.91892 0.55445 0.02367 0.0
C316 C 0.79232 0.42334 0.1012 0.0
C317 C 0.48732 0.26192 0.06189 0.0
C318 C 0.51426 0.23039 0.03893 0.0
C319 C 0.80357 0.52723 0.9731 0.0
C320 C 0.84136 0.76329 0.9256 0.0
C321 C 0.80304 0.76117 0.89407 0.0
C322 C 0.82779 0.82102 0.87114 0.0
C323 C 0.89213 0.88171 0.88015 0.0
C324 C 0.90471 0.82507 0.93359 0.0
C325 C 0.92991 0.88359 0.91094 0.0
C326 C 0.67535 0.54669 1.01823 0.0
C327 C 0.81712 0.70001 0.94895 0.0
H328 H 0.74623 0.39599 0.16853 0.0
H329 H 0.65566 0.17004 0.16389 0.0
H330 H 0.75185 0.29359 0.07039 0.0
H331 H 0.6851 0.17836 0.09975 0.0
H332 H 0.75377 0.71368 0.88781 0.0
H333 H 0.91353 0.92825 0.86326 0.0
H334 H 0.93508 0.82781 0.95723 0.0
H335 H 0.97918 0.93092 0.91728 0.0
Tb336 Tb 0.25471 0.7569 0.41542 0.0
C337 C 0.17582 0.94864 0.35817 0.0
C338 C 0.06366 0.90175 0.38858 0.0
C339 C 0.13542 0.0279 0.37836 0.0
C340 C 0.11555 0.89186 0.37156 0.0
C341 C 0.18561 0.01722 0.36039 0.0
C342 C 0.07455 0.97022 0.39251 0.0
C343 C 0.28931 0.05803 0.32337 0.0
N344 N 0.22261 0.93599 0.34079 0.0
C345 C 0.27682 0.98898 0.32174 0.0
C346 C 0.24418 0.0725 0.34334 0.0
Tb347 Tb 0.20008 0.82172 0.34111 0.0
N348 N 0.10696 0.82665 0.36699 0.0
C349 C 0.04556 0.7684 0.37777 0.0
C350 C 1.00196 0.84248 0.4006 0.0
C351 C 0.99269 0.77549 0.39489 0.0
H352 H 0.311 0.97814 0.30533 0.0
H353 H 0.94481 0.72916 0.40376 0.0
H354 H 0.03558 0.97894 0.40574 0.0
H355 H 0.33336 0.09988 0.30896 0.0
H356 H 0.0367 0.71601 0.37403 0.0
H357 H 0.45272 0.69985 0.3646 0.0
H358 H 0.96087 0.8478 0.41384 0.0
H359 H 0.12737 0.66886 0.47825 0.0
H360 H 0.40451 0.77564 0.37921 0.0
H361 H 0.06729 0.55113 0.50473 0.0
H362 H 0.14232 0.08026 0.38067 0.0
H363 H 0.38776 0.57388 0.38149 0.0
H364 H 0.28695 0.47577 0.41471 0.0
H365 H 0.25358 0.12592 0.34435 0.0
H366 H 0.18341 0.43598 0.45382 0.0
N367 N 0.30864 0.69332 0.40135 0.0
C368 C 0.37393 0.72091 0.3861 0.0
C369 C 0.36538 0.6069 0.38752 0.0
C370 C 0.3023 0.58044 0.40668 0.0
C371 C 0.40218 0.67791 0.37798 0.0
C372 C 0.27538 0.6257 0.41381 0.0
H373 H 0.10209 0.46397 0.48793 0.0
N374 N 0.19459 0.64936 0.44411 0.0
C375 C 0.10894 0.56491 0.48525 0.0
C376 C 0.21759 0.60348 0.43646 0.0
C377 C 0.14323 0.63202 0.46969 0.0
C378 C 0.12883 0.51591 0.47576 0.0
C379 C 0.18455 0.53524 0.45165 0.0
O380 O 0.29749 0.83835 0.45432 0.0
O381 O 0.22105 0.83088 0.39905 0.0
O382 O 0.31391 0.9025 0.35354 0.0
O383 O 0.35129 0.8418 0.39141 0.0
O384 O 0.16929 0.76553 0.4406 0.0
O385 O 0.31792 0.75333 0.45738 0.0
O386 O 0.20854 0.85126 0.2861 0.0
O387 O 0.24333 0.75727 0.35735 0.0
O388 O 0.15828 0.66386 0.39705 0.0
O389 O 0.12648 0.7046 0.34632 0.0
O390 O 0.28139 0.81559 0.31076 0.0
O391 O 0.11515 0.76094 0.30538 0.0
C392 C 0.17804 0.82111 0.42435 0.0
C393 C 0.29152 0.78979 0.51174 0.0
C394 C 0.29666 0.74792 0.57158 0.0
C395 C 0.32263 0.76575 0.53631 0.0
C396 C 0.23808 0.75316 0.58213 0.0
C397 C 0.23329 0.79558 0.52266 0.0
C398 C 0.2064 0.77678 0.55757 0.0
C399 C 0.36452 0.89734 0.37149 0.0
C400 C 0.31885 0.80514 0.47463 0.0
C401 C 0.2087 0.48884 0.44275 0.0
C402 C 0.26746 0.5114 0.42034 0.0
C403 C 0.28599 0.77093 0.33153 0.0
C404 C 0.10143 0.81816 0.25362 0.0
C405 C 0.06179 0.77436 0.22387 0.0
C406 C 0.01929 0.79193 0.20197 0.0
C407 C 0.01877 0.85429 0.21011 0.0
C408 C 0.09851 0.87945 0.26059 0.0
C409 C 0.05794 0.89739 0.23892 0.0
C410 C 0.11768 0.65299 0.36871 0.0
C411 C 0.14569 0.80044 0.27739 0.0
H412 H 0.36884 0.7633 0.5282 0.0
H413 H 0.21804 0.74052 0.60946 0.0
H414 H 0.20828 0.81429 0.50444 0.0
H415 H 0.16158 0.78146 0.5657 0.0
H416 H 0.06277 0.72637 0.21836 0.0
H417 H 0.98746 0.86974 0.19408 0.0
H418 H 0.12779 0.91374 0.28286 0.0
H419 H 0.05644 0.94502 0.24466 0.0
Tb420 Tb 0.54651 0.2683 0.72835 0.0
C421 C 0.25058 0.19622 0.70238 0.0
C422 C 0.19621 0.09873 0.74418 0.0
C423 C 0.14125 0.16908 0.73232 0.0
C424 C 0.25109 0.14161 0.72017 0.0
C425 C 0.19501 0.20996 0.70757 0.0
C426 C 0.14191 0.11354 0.75065 0.0
C427 C 0.24713 0.29951 0.66146 0.0
N428 N 0.30307 0.23386 0.67864 0.0
C429 C 0.3008 0.28341 0.65722 0.0
C430 C 0.19434 0.26315 0.68707 0.0
Tb431 Tb 0.39029 0.20618 0.67404 0.0
N432 N 0.30454 0.12934 0.7131 0.0
C433 C 0.30399 0.07201 0.72788 0.0
C434 C 0.19699 0.04164 0.7604 0.0
C435 C 0.25078 0.02781 0.75189 0.0
H436 H 0.34135 0.31156 0.63724 0.0
H437 H 0.25138 0.98311 0.76383 0.0
H438 H 0.09957 0.0816 0.76922 0.0
H439 H 0.24644 0.33981 0.64493 0.0
H440 H 0.34435 0.05988 0.72161 0.0
H441 H 0.75508 0.39574 0.6299 0.0
H442 H 0.15587 1.00738 0.77901 0.0
H443 H 0.54652 0.17259 0.79865 0.0
H444 H 0.6626 0.38593 0.67159 0.0
H445 H 0.59191 0.0927 0.81279 0.0
H446 H 0.09832 0.17907 0.73693 0.0
H447 H 0.78671 0.30221 0.62873 0.0
H448 H 0.777 0.19431 0.65846 0.0
H449 H 0.15261 0.27541 0.6902 0.0
H450 H 0.73379 0.1122 0.70987 0.0
N451 N 0.63693 0.28452 0.69081 0.0
C452 C 0.6749 0.34401 0.6706 0.0
C453 C 0.74517 0.29704 0.64648 0.0
C454 C 0.71306 0.24127 0.67103 0.0
C455 C 0.72772 0.35006 0.64719 0.0
C456 C 0.6594 0.23734 0.69352 0.0
H457 H 0.66623 0.07538 0.76847 0.0
N458 N 0.59136 0.19733 0.74586 0.0
C459 C 0.60435 0.11999 0.78716 0.0
C460 C 0.63653 0.19249 0.72262 0.0
C461 C 0.57879 0.16539 0.77907 0.0
C462 C 0.64612 0.11017 0.76204 0.0
C463 C 0.6645 0.14834 0.72975 0.0
O464 O 0.56629 0.30625 0.78182 0.0
O465 O 0.43741 0.24277 0.72695 0.0
O466 O 0.42785 0.32035 0.68751 0.0
O467 O 0.54238 0.36165 0.71009 0.0
O468 O 0.47237 0.22021 0.77311 0.0
O469 O 0.6403 0.36329 0.73985 0.0
O470 O 0.36074 0.20503 0.61946 0.0
O471 O 0.50269 0.2469 0.67342 0.0
O472 O 0.49886 0.15567 0.72454 0.0
O473 O 0.43168 0.13086 0.67283 0.0
O474 O 0.45833 0.28712 0.63741 0.0
O475 O 0.34043 0.10943 0.64501 0.0
C476 C 0.4182 0.21807 0.75857 0.0
C477 C 0.68493 0.35102 0.79574 0.0
C478 C 0.73215 0.34872 0.85501 0.0
C479 C 0.68747 0.36161 0.83304 0.0
C480 C 0.77208 0.32197 0.839 0.0
C481 C 0.72928 0.32948 0.78003 0.0
C482 C 0.77122 0.31336 0.80166 0.0
C483 C 0.49165 0.37284 0.69823 0.0
C484 C 0.63036 0.35488 0.77443 0.0
C485 C 0.71249 0.14659 0.7053 0.0
C486 C 0.73685 0.19314 0.67591 0.0
C487 C 0.51594 0.28977 0.64733 0.0
C488 C 0.27148 0.09749 0.59204 0.0
C489 C 0.26979 0.05651 0.56145 0.0
C490 C 0.20788 0.0195 0.53958 0.0
C491 C 0.14939 0.02645 0.5488 0.0
C492 C 0.21123 0.10129 0.60013 0.0
C493 C 0.15108 0.06644 0.5786 0.0
C494 C 0.46887 0.11666 0.69618 0.0
C495 C 0.3363 0.13775 0.61487 0.0
H496 H 0.65568 0.38173 0.84454 0.0
H497 H 0.80574 0.30986 0.85515 0.0
H498 H 0.73055 0.32358 0.75117 0.0
H499 H 0.80357 0.29467 0.78941 0.0
H500 H 0.3159 0.05269 0.55512 0.0
H501 H 0.10168 1.00105 0.53273 0.0
H502 H 0.21085 0.13183 0.62304 0.0
H503 H 0.10515 0.07049 0.58503 0.0
C504 C 0.2618 0.66529 0.29862 0.0
C505 C 0.31149 0.72686 0.31628 0.0
H506 H 0.23443 0.60946 0.24875 0.0
C507 C 0.3813 0.7627 0.30386 0.0
H508 H 0.20757 0.63706 0.30779 0.0
C509 C 0.39783 0.74554 0.27058 0.0
C510 C 0.34373 0.69493 0.24872 0.0
H511 H 0.42054 0.81076 0.31702 0.0
H512 H 0.45039 0.7788 0.25991 0.0
C513 C 0.27739 0.64996 0.26444 0.0
C514 C 0.59511 0.37403 0.60312 0.0
C515 C 0.56714 0.30717 0.61887 0.0
H516 H 0.6341 0.43508 0.55499 0.0
C517 C 0.56796 0.25245 0.60004 0.0
H518 H 0.59399 0.41653 0.61751 0.0
C519 C 0.58823 0.2621 0.56397 0.0
C520 C 0.60865 0.32691 0.54674 0.0
H521 H 0.54507 0.20022 0.61173 0.0
H522 H 0.58119 0.21669 0.54889 0.0
C523 C 0.61659 0.38414 0.56729 0.0
C524 C 0.26709 0.61829 0.95185 0.0
C525 C 0.3042 0.59156 0.97045 0.0
H526 H 0.25315 0.65665 0.90143 0.0
C527 C 0.36946 0.60473 0.95739 0.0
H528 H 0.21682 0.60918 0.96191 0.0
C529 C 0.38873 0.6289 0.92216 0.0
C530 C 0.3432 0.64122 0.90056 0.0
H531 H 0.39901 0.58475 0.97147 0.0
H532 H 0.43317 0.62735 0.91055 0.0
C533 C 0.28727 0.64426 0.91704 0.0
C534 C 0.65293 0.20457 0.26344 0.0
C535 C 0.71495 0.25137 0.28184 0.0
H536 H 0.59634 0.18024 0.21372 0.0
C537 C 0.76051 0.31781 0.26736 0.0
H538 H 0.61736 0.15281 0.2744 0.0
C539 C 0.75066 0.33217 0.23194 0.0
C540 C 0.69426 0.28045 0.21119 0.0
H541 H 0.80902 0.35418 0.28112 0.0
H542 H 0.79227 0.37991 0.21985 0.0
C543 C 0.64181 0.21972 0.22846 0.0
C544 C 0.41861 0.78245 0.64841 0.0
C545 C 0.45023 0.74326 0.63812 0.0
H546 H 0.34234 0.81214 0.63599 0.0
C547 C 0.42248 0.69626 0.60901 0.0
H548 H 0.43835 0.81892 0.67057 0.0
C549 C 0.36648 0.6918 0.58915 0.0
C550 C 0.3384 0.73496 0.59808 0.0
H551 H 0.44607 0.66541 0.6007 0.0
H552 H 0.34826 0.65831 0.56543 0.0
C553 C 0.36257 0.77774 0.62883 0.0
C554 C 0.7092 0.42111 0.9429 0.0
C555 C 0.77983 0.4618 0.95343 0.0
H556 H 0.63709 0.3478 0.90429 0.0
C557 C 0.8313 0.45227 0.93639 0.0
H558 H 0.66893 0.42851 0.95557 0.0
C559 C 0.81395 0.40834 0.90651 0.0
C560 C 0.74465 0.37351 0.89304 0.0
H561 H 0.8863 0.48417 0.94401 0.0
H562 H 0.85659 0.40834 0.89187 0.0
C563 C 0.69144 0.3759 0.91323 0.0
C564 C 0.47433 0.45048 1.01467 0.0
C565 C 0.46019 0.5047 0.02223 0.0
H566 H 0.55285 0.42177 1.0059 0.0
C567 C 0.51794 0.5746 0.02428 0.0
H568 H 0.43169 0.39639 1.01239 0.0
C569 C 0.58778 0.58928 0.02153 0.0
C570 C 0.60204 0.53461 1.01592 0.0
H571 H 0.50953 0.61851 0.0287 0.0
H572 H 0.63043 0.64309 0.02495 0.0
C573 C 0.54422 0.46536 1.01121 0.0
C574 C 0.07688 0.52271 0.37059 0.0
C575 C 0.06465 0.57763 0.36011 0.0
H576 H 0.03601 0.41087 0.37533 0.0
C577 C 1.00169 0.55906 0.34188 0.0
H578 H 0.12604 0.53479 0.38308 0.0
C579 C 0.95067 0.48772 0.33655 0.0
C580 C 0.96114 0.43271 0.3491 0.0
H581 H 0.99059 0.59948 0.33295 0.0
H582 H 0.90142 0.47557 0.32375 0.0
C583 C 0.0259 0.45129 0.36529 0.0
C584 C 0.52486 0.05326 0.6663 0.0
C585 C 0.47895 0.05495 0.69244 0.0
H586 H 0.5866 1.00645 0.64956 0.0
C587 C 0.45985 1.00888 0.72179 0.0
H588 H 0.54329 0.09062 0.64422 0.0
C589 C 0.48608 0.96308 0.72543 0.0
C590 C 0.53276 0.96115 0.69998 0.0
H591 H 0.42713 1.01081 0.74316 0.0
H592 H 0.47045 0.93007 0.749 0.0
C593 C 0.55132 1.00653 0.66995 0.0
C594 C 0.4814 0.53939 0.68091 0.0
C595 C 0.5515 0.59423 0.68687 0.0
H596 H 0.40722 0.42808 0.67999 0.0
C597 C 0.60239 0.57529 0.69437 0.0
H598 H 0.44063 0.55159 0.67477 0.0
C599 C 0.58284 0.50365 0.69761 0.0
C600 C 0.51187 0.44881 0.69326 0.0
H601 H 0.6565 0.6157 0.6996 0.0
H602 H 0.62358 0.49147 0.70425 0.0
C603 C 0.46189 0.46801 0.68396 0.0
C604 C 1.01743 0.45314 1.01851 0.0
C605 C 0.08484 0.50282 0.03089 0.0
H606 H 0.9133 0.43103 1.00574 0.0
C607 C 0.09895 0.5724 0.03769 0.0
H608 H 1.00426 0.39948 1.01286 0.0
C609 C 0.04686 0.59109 0.03321 0.0
C610 C 0.97879 0.54051 0.02227 0.0
H611 H 0.1502 0.61281 0.04714 0.0
H612 H 0.05903 0.64415 0.03988 0.0
C613 C 0.96523 0.47163 1.01438 0.0
C614 C 0.46287 0.01427 0.3474 0.0
C615 C 0.44136 0.95087 0.36588 0.0
H616 H 0.54881 0.11386 0.33056 0.0
C617 C 0.49486 0.93861 0.37929 0.0
H618 H 0.4243 0.02636 0.33676 0.0
C619 C 0.56702 0.98828 0.3748 0.0
C620 C 0.58802 0.0526 0.35754 0.0
H621 H 0.4814 0.89112 0.39414 0.0
H622 H 0.60611 0.97798 0.38661 0.0
C623 C 0.53482 0.06441 0.34362 0.0
C624 C 0.35135 0.27687 0.78321 0.0
C625 C 0.36436 0.22007 0.78273 0.0
H626 H 0.30423 0.32908 0.81173 0.0
C627 C 0.33719 0.17134 0.81126 0.0
H628 H 0.37321 0.31662 0.76228 0.0
C629 C 0.2982 0.17836 0.83928 0.0
C630 C 0.28638 0.23571 0.8406 0.0
H631 H 0.34766 0.1281 0.81236 0.0
H632 H 0.27839 0.13928 0.86058 0.0
C633 C 0.31307 0.28479 0.81195 0.0
C634 C 0.06057 0.29829 0.14942 0.0
C635 C 0.08329 0.27008 0.17713 0.0
H636 H 0.08769 0.36 0.10035 0.0
C637 C 0.15253 0.28193 0.17482 0.0
H638 H 1.00753 0.28976 0.14991 0.0
C639 C 0.19793 0.32167 0.14664 0.0
C640 C 0.17587 0.35024 0.11908 0.0
H641 H 0.17244 0.26153 0.19546 0.0
H642 H 0.25149 0.3315 0.14685 0.0
C643 C 0.10614 0.33751 0.12061 0.0
C644 C 0.76373 0.04884 0.4761 0.0
C645 C 0.80836 0.07642 0.50649 0.0
H646 H 0.73387 0.07019 0.42405 0.0
C647 C 0.85904 0.14889 0.50636 0.0
H648 H 0.72484 0.99319 0.47491 0.0
C649 C 0.86418 0.19264 0.47746 0.0
C650 C 0.82013 0.16558 0.44701 0.0
H651 H 0.89468 0.17213 0.52902 0.0
H652 H 0.90272 0.24841 0.47904 0.0
C653 C 0.76976 0.09281 0.44663 0.0
C654 C 0.74037 0.8878 0.80526 0.0
C655 C 0.70758 0.83315 0.77978 0.0
H656 H 0.80239 0.92671 0.85328 0.0
C657 C 0.71597 0.77386 0.78381 0.0
H658 H 0.73253 0.93271 0.80404 0.0
C659 C 0.75467 0.76907 0.81326 0.0
C660 C 0.78651 0.82382 0.83909 0.0
H661 H 0.68919 0.72951 0.76552 0.0
H662 H 0.759 0.72228 0.81606 0.0
C663 C 0.77969 0.88372 0.83399 0.0
C664 C 0.89953 0.72568 0.17248 0.0
C665 C 0.97134 0.7455 0.17202 0.0
H666 H 0.79865 0.67092 0.14628 0.0
C667 C 0.99627 0.72599 0.1415 0.0
H668 H 0.87822 0.73994 0.19523 0.0
C669 C 0.95032 0.6875 0.11257 0.0
C670 C 0.87821 0.66714 0.1136 0.0
H671 H 0.05136 0.74119 0.1398 0.0
H672 H 0.9708 0.67204 0.08996 0.0
C673 C 0.85388 0.68669 0.14413 0.0
C674 C 0.25491 0.98962 0.48231 0.0
C675 C 0.2008 0.97182 0.5079 0.0
H676 H 0.28948 0.95858 0.43466 0.0
C677 C 0.13684 0.90785 0.5022 0.0
H678 H 0.30456 0.03851 0.48512 0.0
C679 C 0.12796 0.86266 0.47314 0.0
C680 C 0.18248 0.87907 0.44831 0.0
H681 H 0.09371 0.89106 0.52109 0.0
H682 H 0.07922 0.81257 0.4712 0.0
C683 C 0.24568 0.94428 0.45281 0.0
loop_
_geom_bond_atom_site_label_1
_geom_bond_atom_site_label_2
_geom_bond_distance
_geom_bond_site_symmetry_2
_ccdc_geom_bond_type
Tb0 N31 2.660 . S
Tb0 N38 2.600 . S
Tb0 O44 2.546 . S
Tb0 O45 2.610 . S
Tb0 O47 2.320 . S
Tb0 O48 2.552 . S
Tb0 O49 2.413 . S
Tb0 O51 2.362 1_554 S
Tb0 O52 2.421 . S
Tb0 C64 2.833 . S
C1 C4 1.432 . S
C1 C5 1.414 1_455 S
C1 N8 1.359 1_554 S
C2 C4 1.417 . S
C2 C6 1.432 1_455 S
C2 C14 1.410 . S
C3 C5 1.444 . S
C3 C6 1.317 . S
C3 H26 0.929 . S
C4 C1 1.432 . S
C4 C2 1.417 . S
C4 N12 1.360 . S
C5 C1 1.414 1_655 S
C5 C3 1.444 . S
C5 C10 1.385 1_554 S
C6 C2 1.432 1_655 S
C6 C3 1.317 . S
C6 H18 0.930 . S
C7 C9 1.392 . S
C7 C10 1.370 . S
C7 H19 0.931 . S
N8 C1 1.359 1_556 S
N8 C9 1.327 1_455 S
N8 Tb11 2.600 . S
C9 C7 1.392 . S
C9 N8 1.327 1_655 S
C9 H16 0.930 1_655 S
C10 C5 1.385 1_556 S
C10 C7 1.370 . S
C10 H29 0.930 . S
Tb11 N8 2.600 . S
Tb11 N12 2.660 1_556 S
Tb11 O45 2.362 1_556 S
Tb11 O46 2.421 . S
Tb11 O50 2.546 . S
Tb11 O51 2.610 . S
Tb11 O53 2.320 1_556 S
Tb11 O54 2.552 . S
Tb11 O55 2.413 . S
Tb11 C75 2.833 . S
N12 C4 1.360 . S
N12 Tb11 2.660 1_554 S
N12 C13 1.305 . S
C13 N12 1.305 . S
C13 C15 1.407 . S
C13 H20 0.930 . S
C14 C2 1.410 . S
C14 C15 1.345 . S
C14 H22 0.930 . S
C15 C13 1.407 . S
C15 C14 1.345 . S
C15 H17 0.930 . S
H16 C9 0.930 1_455 S
H17 C15 0.930 . S
H18 C6 0.930 . S
H19 C7 0.931 . S
H20 C13 0.930 . S
H21 C35 0.930 . S
H22 C14 0.930 . S
H23 C41 0.930 . S
H24 C32 0.930 . S
H25 C39 0.931 . S
H26 C3 0.929 . S
H27 C33 0.930 . S
H28 C66 0.930 . S
H29 C10 0.930 . S
H30 C65 0.929 . S
N31 Tb0 2.660 . S
N31 C32 1.305 1_554 S
N31 C36 1.360 . S
C32 H24 0.930 . S
C32 N31 1.305 1_556 S
C32 C35 1.407 . S
C33 H27 0.930 . S
C33 C34 1.410 . S
C33 C35 1.345 . S
C34 C33 1.410 . S
C34 C36 1.417 1_556 S
C34 C66 1.432 . S
C35 H21 0.930 . S
C35 C32 1.407 . S
C35 C33 1.345 . S
C36 N31 1.360 . S
C36 C34 1.417 1_554 S
C36 C40 1.432 . S
H37 C42 0.930 . S
N38 Tb0 2.600 . S
N38 C40 1.359 . S
N38 C41 1.327 . S
C39 H25 0.931 . S
C39 C41 1.392 . S
C39 C42 1.370 . S
C40 C36 1.432 . S
C40 N38 1.359 . S
C40 C43 1.414 . S
C41 H23 0.930 . S
C41 N38 1.327 . S
C41 C39 1.392 . S
C42 H37 0.930 . S
C42 C39 1.370 . S
C42 C43 1.385 . S
C43 C40 1.414 . S
C43 C42 1.385 . S
C43 C65 1.444 . S
O44 Tb0 2.546 . S
O44 C64 1.251 . S
O45 Tb0 2.610 . S
O45 Tb11 2.362 1_554 S
O45 C56 1.283 . S
O46 Tb11 2.421 . S
O46 C63 1.262 1_556 S
O47 Tb0 2.320 . S
O47 C63 1.260 . S
O48 Tb0 2.552 . S
O48 C56 1.243 . S
O49 Tb0 2.413 . S
O49 C64 1.256 . S
O50 Tb11 2.546 . S
O50 C75 1.251 . S
O51 Tb0 2.362 1_556 S
O51 Tb11 2.610 . S
O51 C67 1.283 . S
O52 Tb0 2.421 . S
O52 C74 1.262 . S
O53 Tb11 2.320 1_554 S
O53 C74 1.260 . S
O54 Tb11 2.552 . S
O54 C67 1.243 . S
O55 Tb11 2.413 . S
O55 C75 1.256 . S
C56 O45 1.283 . S
C56 O48 1.243 . S
C57 C59 1.382 . S
C57 C61 1.393 . S
C57 C64 1.500 . S
C58 C59 1.400 . S
C58 C60 1.384 . S
C59 C57 1.382 . S
C59 C58 1.400 . S
C59 H76 0.930 . S
C60 C58 1.384 . S
C60 C62 1.392 . S
C60 H77 0.931 . S
C61 C57 1.393 . S
C61 C62 1.401 . S
C61 H78 0.930 . S
C62 C60 1.392 . S
C62 C61 1.401 . S
C62 H79 0.930 . S
C63 O46 1.262 1_554 S
C63 O47 1.260 . S
C64 Tb0 2.833 . S
C64 O44 1.251 . S
C64 O49 1.256 . S
C64 C57 1.500 . S
C65 H30 0.929 . S
C65 C43 1.444 . S
C65 C66 1.317 1_554 S
C66 H28 0.930 . S
C66 C34 1.432 . S
C66 C65 1.317 1_556 S
C67 O51 1.283 . S
C67 O54 1.243 . S
C68 C69 1.382 . S
C68 C72 1.393 . S
C68 C75 1.500 . S
C69 C68 1.382 . S
C69 C70 1.400 . S
C69 H80 0.930 . S
C70 C69 1.400 . S
C70 C71 1.384 . S
C71 C70 1.384 . S
C71 C73 1.392 . S
C71 H81 0.931 . S
C72 C68 1.393 . S
C72 C73 1.401 . S
C72 H82 0.930 . S
C73 C71 1.392 . S
C73 C72 1.401 . S
C73 H83 0.930 . S
C74 O52 1.262 . S
C74 O53 1.260 . S
C75 Tb11 2.833 . S
C75 O50 1.251 . S
C75 O55 1.256 . S
C75 C68 1.500 . S
H76 C59 0.930 . S
H77 C60 0.931 . S
H78 C61 0.930 . S
H79 C62 0.930 . S
H80 C69 0.930 . S
H81 C71 0.931 . S
H82 C72 0.930 . S
H83 C73 0.930 . S
Tb84 N115 2.660 . S
Tb84 N122 2.600 . S
Tb84 O128 2.546 . S
Tb84 O129 2.610 . S
Tb84 O131 2.320 . S
Tb84 O132 2.552 . S
Tb84 O133 2.413 . S
Tb84 O135 2.362 . S
Tb84 O136 2.421 . S
Tb84 C148 2.833 . S
C85 C88 1.432 . S
C85 C89 1.414 1_545 S
C85 N92 1.359 . S
C86 C88 1.417 . S
C86 C90 1.432 1_545 S
C86 C98 1.410 . S
C87 C89 1.444 . S
C87 C90 1.317 . S
C87 H110 0.929 . S
C88 C85 1.432 . S
C88 C86 1.417 . S
C88 N96 1.360 . S
C89 C85 1.414 1_565 S
C89 C87 1.444 . S
C89 C94 1.385 . S
C90 C86 1.432 1_565 S
C90 C87 1.317 . S
C90 H102 0.930 . S
C91 C93 1.392 . S
C91 C94 1.370 . S
C91 H103 0.931 . S
N92 C85 1.359 . S
N92 C93 1.327 1_545 S
N92 Tb95 2.600 . S
C93 C91 1.392 . S
C93 N92 1.327 1_565 S
C93 H100 0.930 1_565 S
C94 C89 1.385 . S
C94 C91 1.370 . S
C94 H113 0.930 . S
Tb95 N92 2.600 . S
Tb95 N96 2.660 . S
Tb95 O129 2.362 . S
Tb95 O130 2.421 . S
Tb95 O134 2.546 . S
Tb95 O135 2.610 . S
Tb95 O137 2.320 . S
Tb95 O138 2.552 . S
Tb95 O139 2.413 . S
Tb95 C159 2.833 . S
N96 C88 1.360 . S
N96 Tb95 2.660 . S
N96 C97 1.305 . S
C97 N96 1.305 . S
C97 C99 1.407 1_655 S
C97 H104 0.930 . S
C98 C86 1.410 . S
C98 C99 1.345 1_655 S
C98 H106 0.930 1_655 S
C99 C97 1.407 1_455 S
C99 C98 1.345 1_455 S
C99 H101 0.930 . S
H100 C93 0.930 1_545 S
H101 C99 0.930 . S
H102 C90 0.930 . S
H103 C91 0.931 . S
H104 C97 0.930 . S
H105 C119 0.930 . S
H106 C98 0.930 1_455 S
H107 C125 0.930 . S
H108 C116 0.930 . S
H109 C123 0.931 . S
H110 C87 0.929 . S
H111 C117 0.930 . S
H112 C150 0.930 . S
H113 C94 0.930 . S
H114 C149 0.929 . S
N115 Tb84 2.660 . S
N115 C116 1.305 . S
N115 C120 1.360 . S
C116 H108 0.930 . S
C116 N115 1.305 . S
C116 C119 1.407 . S
C117 H111 0.930 . S
C117 C118 1.410 . S
C117 C119 1.345 . S
C118 C117 1.410 . S
C118 C120 1.417 . S
C118 C150 1.432 . S
C119 H105 0.930 . S
C119 C116 1.407 . S
C119 C117 1.345 . S
C120 N115 1.360 . S
C120 C118 1.417 . S
C120 C124 1.432 . S
H121 C126 0.930 . S
N122 Tb84 2.600 . S
N122 C124 1.359 . S
N122 C125 1.327 . S
C123 H109 0.931 . S
C123 C125 1.392 . S
C123 C126 1.370 . S
C124 C120 1.432 . S
C124 N122 1.359 . S
C124 C127 1.414 . S
C125 H107 0.930 . S
C125 N122 1.327 . S
C125 C123 1.392 . S
C126 H121 0.930 . S
C126 C123 1.370 . S
C126 C127 1.385 . S
C127 C124 1.414 . S
C127 C126 1.385 . S
C127 C149 1.444 . S
O128 Tb84 2.546 . S
O128 C148 1.251 . S
O129 Tb84 2.610 . S
O129 Tb95 2.362 . S
O129 C140 1.283 . S
O130 Tb95 2.421 . S
O130 C147 1.262 . S
O131 Tb84 2.320 . S
O131 C147 1.260 . S
O132 Tb84 2.552 . S
O132 C140 1.243 . S
O133 Tb84 2.413 . S
O133 C148 1.256 . S
O134 Tb95 2.546 . S
O134 C159 1.251 . S
O135 Tb84 2.362 . S
O135 Tb95 2.610 . S
O135 C151 1.283 . S
O136 Tb84 2.421 . S
O136 C158 1.262 . S
O137 Tb95 2.320 . S
O137 C158 1.260 . S
O138 Tb95 2.552 . S
O138 C151 1.243 . S
O139 Tb95 2.413 . S
O139 C159 1.256 . S
C140 O129 1.283 . S
C140 O132 1.243 . S
C141 C143 1.382 . S
C141 C145 1.393 . S
C141 C148 1.500 . S
C142 C143 1.400 . S
C142 C144 1.384 . S
C143 C141 1.382 . S
C143 C142 1.400 . S
C143 H160 0.930 . S
C144 C142 1.384 . S
C144 C146 1.392 . S
C144 H161 0.931 . S
C145 C141 1.393 . S
C145 C146 1.401 . S
C145 H162 0.930 . S
C146 C144 1.392 . S
C146 C145 1.401 . S
C146 H163 0.930 . S
C147 O130 1.262 . S
C147 O131 1.260 . S
C148 Tb84 2.833 . S
C148 O128 1.251 . S
C148 O133 1.256 . S
C148 C141 1.500 . S
C149 H114 0.929 . S
C149 C127 1.444 . S
C149 C150 1.317 . S
C150 H112 0.930 . S
C150 C118 1.432 . S
C150 C149 1.317 . S
C151 O135 1.283 . S
C151 O138 1.243 . S
C152 C153 1.382 . S
C152 C156 1.393 . S
C152 C159 1.500 . S
C153 C152 1.382 . S
C153 C154 1.400 1_655 S
C153 H164 0.930 1_655 S
C154 C153 1.400 1_455 S
C154 C155 1.384 . S
C155 C154 1.384 . S
C155 C157 1.392 1_455 S
C155 H165 0.931 . S
C156 C152 1.393 . S
C156 C157 1.401 . S
C156 H166 0.930 . S
C157 C155 1.392 1_655 S
C157 C156 1.401 . S
C157 H167 0.930 . S
C158 O136 1.262 . S
C158 O137 1.260 . S
C159 Tb95 2.833 . S
C159 O134 1.251 . S
C159 O139 1.256 . S
C159 C152 1.500 . S
H160 C143 0.930 . S
H161 C144 0.931 . S
H162 C145 0.930 . S
H163 C146 0.930 . S
H164 C153 0.930 1_455 S
H165 C155 0.931 . S
H166 C156 0.930 . S
H167 C157 0.930 . S
Tb168 N199 2.660 . S
Tb168 N206 2.600 . S
Tb168 O212 2.546 . S
Tb168 O213 2.610 . S
Tb168 O215 2.320 . S
Tb168 O216 2.552 . S
Tb168 O217 2.413 . S
Tb168 O219 2.362 . S
Tb168 O220 2.421 . S
Tb168 C232 2.833 . S
C169 C172 1.432 . S
C169 C173 1.414 . S
C169 N176 1.359 . S
C170 C172 1.417 . S
C170 C174 1.432 . S
C170 C182 1.410 . S
C171 C173 1.444 . S
C171 C174 1.317 . S
C171 H194 0.929 . S
C172 C169 1.432 . S
C172 C170 1.417 . S
C172 N180 1.360 . S
C173 C169 1.414 . S
C173 C171 1.444 . S
C173 C178 1.385 . S
C174 C170 1.432 . S
C174 C171 1.317 . S
C174 H186 0.930 . S
C175 C177 1.392 . S
C175 C178 1.370 . S
C175 H187 0.931 . S
N176 C169 1.359 . S
N176 C177 1.327 . S
N176 Tb179 2.600 . S
C177 C175 1.392 . S
C177 N176 1.327 . S
C177 H184 0.930 . S
C178 C173 1.385 . S
C178 C175 1.370 . S
C178 H197 0.930 . S
Tb179 N176 2.600 . S
Tb179 N180 2.660 . S
Tb179 O213 2.362 . S
Tb179 O214 2.421 . S
Tb179 O218 2.546 . S
Tb179 O219 2.610 . S
Tb179 O221 2.320 . S
Tb179 O222 2.552 . S
Tb179 O223 2.413 . S
Tb179 C243 2.833 . S
N180 C172 1.360 . S
N180 Tb179 2.660 . S
N180 C181 1.305 . S
C181 N180 1.305 . S
C181 C183 1.407 1_565 S
C181 H188 0.930 . S
C182 C170 1.410 . S
C182 C183 1.345 1_565 S
C182 H190 0.930 1_565 S
C183 C181 1.407 1_545 S
C183 C182 1.345 1_545 S
C183 H185 0.930 . S
H184 C177 0.930 . S
H185 C183 0.930 . S
H186 C174 0.930 . S
H187 C175 0.931 . S
H188 C181 0.930 . S
H189 C203 0.930 . S
H190 C182 0.930 1_545 S
H191 C209 0.930 . S
H192 C200 0.930 . S
H193 C207 0.931 . S
H194 C171 0.929 . S
H195 C201 0.930 . S
H196 C234 0.930 . S
H197 C178 0.930 . S
H198 C233 0.929 . S
N199 Tb168 2.660 . S
N199 C200 1.305 . S
N199 C204 1.360 . S
C200 H192 0.930 . S
C200 N199 1.305 . S
C200 C203 1.407 . S
C201 H195 0.930 . S
C201 C202 1.410 . S
C201 C203 1.345 . S
C202 C201 1.410 . S
C202 C204 1.417 . S
C202 C234 1.432 . S
C203 H189 0.930 . S
C203 C200 1.407 . S
C203 C201 1.345 . S
C204 N199 1.360 . S
C204 C202 1.417 . S
C204 C208 1.432 . S
H205 C210 0.930 . S
N206 Tb168 2.600 . S
N206 C208 1.359 . S
N206 C209 1.327 . S
C207 H193 0.931 . S
C207 C209 1.392 . S
C207 C210 1.370 . S
C208 C204 1.432 . S
C208 N206 1.359 . S
C208 C211 1.414 . S
C209 H191 0.930 . S
C209 N206 1.327 . S
C209 C207 1.392 . S
C210 H205 0.930 . S
C210 C207 1.370 . S
C210 C211 1.385 . S
C211 C208 1.414 . S
C211 C210 1.385 . S
C211 C233 1.444 . S
O212 Tb168 2.546 . S
O212 C232 1.251 . S
O213 Tb168 2.610 . S
O213 Tb179 2.362 . S
O213 C224 1.283 . S
O214 Tb179 2.421 . S
O214 C231 1.262 . S
O215 Tb168 2.320 . S
O215 C231 1.260 . S
O216 Tb168 2.552 . S
O216 C224 1.243 . S
O217 Tb168 2.413 . S
O217 C232 1.256 . S
O218 Tb179 2.546 . S
O218 C243 1.251 . S
O219 Tb168 2.362 . S
O219 Tb179 2.610 . S
O219 C235 1.283 . S
O220 Tb168 2.421 . S
O220 C242 1.262 . S
O221 Tb179 2.320 . S
O221 C242 1.260 . S
O222 Tb179 2.552 . S
O222 C235 1.243 . S
O223 Tb179 2.413 . S
O223 C243 1.256 . S
C224 O213 1.283 . S
C224 O216 1.243 . S
C225 C227 1.382 . S
C225 C229 1.393 . S
C225 C232 1.500 . S
C226 C227 1.400 . S
C226 C228 1.384 . S
C227 C225 1.382 . S
C227 C226 1.400 . S
C227 H244 0.930 . S
C228 C226 1.384 . S
C228 C230 1.392 . S
C228 H245 0.931 . S
C229 C225 1.393 . S
C229 C230 1.401 . S
C229 H246 0.930 . S
C230 C228 1.392 . S
C230 C229 1.401 . S
C230 H247 0.930 . S
C231 O214 1.262 . S
C231 O215 1.260 . S
C232 Tb168 2.833 . S
C232 O212 1.251 . S
C232 O217 1.256 . S
C232 C225 1.500 . S
C233 H198 0.929 . S
C233 C211 1.444 . S
C233 C234 1.317 . S
C234 H196 0.930 . S
C234 C202 1.432 . S
C234 C233 1.317 . S
C235 O219 1.283 . S
C235 O222 1.243 . S
C236 C237 1.382 . S
C236 C240 1.393 . S
C236 C243 1.500 . S
C237 C236 1.382 . S
C237 C238 1.400 1_565 S
C237 H248 0.930 1_565 S
C238 C237 1.400 1_545 S
C238 C239 1.384 . S
C239 C238 1.384 . S
C239 C241 1.392 1_545 S
C239 H249 0.931 . S
C240 C236 1.393 . S
C240 C241 1.401 . S
C240 H250 0.930 . S
C241 C239 1.392 1_565 S
C241 C240 1.401 . S
C241 H251 0.930 . S
C242 O220 1.262 . S
C242 O221 1.260 . S
C243 Tb179 2.833 . S
C243 O218 1.251 . S
C243 O223 1.256 . S
C243 C236 1.500 . S
H244 C227 0.930 . S
H245 C228 0.931 . S
H246 C229 0.930 . S
H247 C230 0.930 . S
H248 C237 0.930 1_545 S
H249 C239 0.931 . S
H250 C240 0.930 . S
H251 C241 0.930 . S
Tb252 N283 2.660 . S
Tb252 N290 2.600 . S
Tb252 O296 2.546 . S
Tb252 O297 2.610 . S
Tb252 O299 2.320 . S
Tb252 O300 2.552 . S
Tb252 O301 2.413 . S
Tb252 O303 2.362 1_554 S
Tb252 O304 2.421 . S
Tb252 C316 2.833 . S
C253 C256 1.432 . S
C253 C257 1.414 1_655 S
C253 N260 1.359 1_554 S
C254 C256 1.417 . S
C254 C258 1.432 1_655 S
C254 C266 1.410 . S
C255 C257 1.444 . S
C255 C258 1.317 . S
C255 H278 0.929 . S
C256 C253 1.432 . S
C256 C254 1.417 . S
C256 N264 1.360 . S
C257 C253 1.414 1_455 S
C257 C255 1.444 . S
C257 C262 1.385 1_554 S
C258 C254 1.432 1_455 S
C258 C255 1.317 . S
C258 H270 0.930 . S
C259 C261 1.392 . S
C259 C262 1.370 . S
C259 H271 0.931 . S
N260 C253 1.359 1_556 S
N260 C261 1.327 1_655 S
N260 Tb263 2.600 . S
C261 C259 1.392 . S
C261 N260 1.327 1_455 S
C261 H268 0.930 1_455 S
C262 C257 1.385 1_556 S
C262 C259 1.370 . S
C262 H281 0.930 . S
Tb263 N260 2.600 . S
Tb263 N264 2.660 1_556 S
Tb263 O297 2.362 1_556 S
Tb263 O298 2.421 . S
Tb263 O302 2.546 . S
Tb263 O303 2.610 . S
Tb263 O305 2.320 1_556 S
Tb263 O306 2.552 . S
Tb263 O307 2.413 . S
Tb263 C327 2.833 . S
N264 C256 1.360 . S
N264 Tb263 2.660 1_554 S
N264 C265 1.305 . S
C265 N264 1.305 . S
C265 C267 1.407 . S
C265 H272 0.930 . S
C266 C254 1.410 . S
C266 C267 1.345 . S
C266 H274 0.930 . S
C267 C265 1.407 . S
C267 C266 1.345 . S
C267 H269 0.930 . S
H268 C261 0.930 1_655 S
H269 C267 0.930 . S
H270 C258 0.930 . S
H271 C259 0.931 . S
H272 C265 0.930 . S
H273 C287 0.930 . S
H274 C266 0.930 . S
H275 C293 0.930 . S
H276 C284 0.930 . S
H277 C291 0.931 . S
H278 C255 0.929 . S
H279 C285 0.930 . S
H280 C318 0.930 . S
H281 C262 0.930 . S
H282 C317 0.929 . S
N283 Tb252 2.660 . S
N283 C284 1.305 1_554 S
N283 C288 1.360 . S
C284 H276 0.930 . S
C284 N283 1.305 1_556 S
C284 C287 1.407 . S
C285 H279 0.930 . S
C285 C286 1.410 . S
C285 C287 1.345 . S
C286 C285 1.410 . S
C286 C288 1.417 1_556 S
C286 C318 1.432 . S
C287 H273 0.930 . S
C287 C284 1.407 . S
C287 C285 1.345 . S
C288 N283 1.360 . S
C288 C286 1.417 1_554 S
C288 C292 1.432 . S
H289 C294 0.930 . S
N290 Tb252 2.600 . S
N290 C292 1.359 . S
N290 C293 1.327 . S
C291 H277 0.931 . S
C291 C293 1.392 . S
C291 C294 1.370 . S
C292 C288 1.432 . S
C292 N290 1.359 . S
C292 C295 1.414 . S
C293 H275 0.930 . S
C293 N290 1.327 . S
C293 C291 1.392 . S
C294 H289 0.930 . S
C294 C291 1.370 . S
C294 C295 1.385 . S
C295 C292 1.414 . S
C295 C294 1.385 . S
C295 C317 1.444 . S
O296 Tb252 2.546 . S
O296 C316 1.251 . S
O297 Tb252 2.610 . S
O297 Tb263 2.362 1_554 S
O297 C308 1.283 . S
O298 Tb263 2.421 . S
O298 C315 1.262 1_556 S
O299 Tb252 2.320 . S
O299 C315 1.260 . S
O300 Tb252 2.552 . S
O300 C308 1.243 . S
O301 Tb252 2.413 . S
O301 C316 1.256 . S
O302 Tb263 2.546 . S
O302 C327 1.251 . S
O303 Tb252 2.362 1_556 S
O303 Tb263 2.610 . S
O303 C319 1.283 . S
O304 Tb252 2.421 . S
O304 C326 1.262 . S
O305 Tb263 2.320 1_554 S
O305 C326 1.260 . S
O306 Tb263 2.552 . S
O306 C319 1.243 . S
O307 Tb263 2.413 . S
O307 C327 1.256 . S
C308 O297 1.283 . S
C308 O300 1.243 . S
C309 C311 1.382 . S
C309 C313 1.393 . S
C309 C316 1.500 . S
C310 C311 1.400 . S
C310 C312 1.384 . S
C311 C309 1.382 . S
C311 C310 1.400 . S
C311 H328 0.930 . S
C312 C310 1.384 . S
C312 C314 1.392 . S
C312 H329 0.931 . S
C313 C309 1.393 . S
C313 C314 1.401 . S
C313 H330 0.930 . S
C314 C312 1.392 . S
C314 C313 1.401 . S
C314 H331 0.930 . S
C315 O298 1.262 1_554 S
C315 O299 1.260 . S
C316 Tb252 2.833 . S
C316 O296 1.251 . S
C316 O301 1.256 . S
C316 C309 1.500 . S
C317 H282 0.929 . S
C317 C295 1.444 . S
C317 C318 1.317 1_554 S
C318 H280 0.930 . S
C318 C286 1.432 . S
C318 C317 1.317 1_556 S
C319 O303 1.283 . S
C319 O306 1.243 . S
C320 C321 1.382 . S
C320 C324 1.393 . S
C320 C327 1.500 . S
C321 C320 1.382 . S
C321 C322 1.400 . S
C321 H332 0.930 . S
C322 C321 1.400 . S
C322 C323 1.384 . S
C323 C322 1.384 . S
C323 C325 1.392 . S
C323 H333 0.931 . S
C324 C320 1.393 . S
C324 C325 1.401 . S
C324 H334 0.930 . S
C325 C323 1.392 . S
C325 C324 1.401 . S
C325 H335 0.930 . S
C326 O304 1.262 . S
C326 O305 1.260 . S
C327 Tb263 2.833 . S
C327 O302 1.251 . S
C327 O307 1.256 . S
C327 C320 1.500 . S
H328 C311 0.930 . S
H329 C312 0.931 . S
H330 C313 0.930 . S
H331 C314 0.930 . S
H332 C321 0.930 . S
H333 C323 0.931 . S
H334 C324 0.930 . S
H335 C325 0.930 . S
Tb336 N367 2.660 . S
Tb336 N374 2.600 . S
Tb336 O380 2.546 . S
Tb336 O381 2.610 . S
Tb336 O383 2.320 . S
Tb336 O384 2.552 . S
Tb336 O385 2.413 . S
Tb336 O387 2.362 . S
Tb336 O388 2.421 . S
Tb336 C400 2.833 . S
C337 C340 1.432 . S
C337 C341 1.414 1_565 S
C337 N344 1.359 . S
C338 C340 1.417 . S
C338 C342 1.432 1_565 S
C338 C350 1.410 . S
C339 C341 1.444 . S
C339 C342 1.317 . S
C339 H362 0.929 . S
C340 C337 1.432 . S
C340 C338 1.417 . S
C340 N348 1.360 . S
C341 C337 1.414 1_545 S
C341 C339 1.444 . S
C341 C346 1.385 . S
C342 C338 1.432 1_545 S
C342 C339 1.317 . S
C342 H354 0.930 . S
C343 C345 1.392 . S
C343 C346 1.370 . S
C343 H355 0.931 . S
N344 C337 1.359 . S
N344 C345 1.327 1_565 S
N344 Tb347 2.600 . S
C345 C343 1.392 . S
C345 N344 1.327 1_545 S
C345 H352 0.930 1_545 S
C346 C341 1.385 . S
C346 C343 1.370 . S
C346 H365 0.930 . S
Tb347 N344 2.600 . S
Tb347 N348 2.660 . S
Tb347 O381 2.362 . S
Tb347 O382 2.421 . S
Tb347 O386 2.546 . S
Tb347 O387 2.610 . S
Tb347 O389 2.320 . S
Tb347 O390 2.552 . S
Tb347 O391 2.413 . S
Tb347 C411 2.833 . S
N348 C340 1.360 . S
N348 Tb347 2.660 . S
N348 C349 1.305 . S
C349 N348 1.305 . S
C349 C351 1.407 1_455 S
C349 H356 0.930 . S
C350 C338 1.410 . S
C350 C351 1.345 1_455 S
C350 H358 0.930 1_455 S
C351 C349 1.407 1_655 S
C351 C350 1.345 1_655 S
C351 H353 0.930 . S
H352 C345 0.930 1_565 S
H353 C351 0.930 . S
H354 C342 0.930 . S
H355 C343 0.931 . S
H356 C349 0.930 . S
H357 C371 0.930 . S
H358 C350 0.930 1_655 S
H359 C377 0.930 . S
H360 C368 0.930 . S
H361 C375 0.931 . S
H362 C339 0.929 . S
H363 C369 0.930 . S
H364 C402 0.930 . S
H365 C346 0.930 . S
H366 C401 0.929 . S
N367 Tb336 2.660 . S
N367 C368 1.305 . S
N367 C372 1.360 . S
C368 H360 0.930 . S
C368 N367 1.305 . S
C368 C371 1.407 . S
C369 H363 0.930 . S
C369 C370 1.410 . S
C369 C371 1.345 . S
C370 C369 1.410 . S
C370 C372 1.417 . S
C370 C402 1.432 . S
C371 H357 0.930 . S
C371 C368 1.407 . S
C371 C369 1.345 . S
C372 N367 1.360 . S
C372 C370 1.417 . S
C372 C376 1.432 . S
H373 C378 0.930 . S
N374 Tb336 2.600 . S
N374 C376 1.359 . S
N374 C377 1.327 . S
C375 H361 0.931 . S
C375 C377 1.392 . S
C375 C378 1.370 . S
C376 C372 1.432 . S
C376 N374 1.359 . S
C376 C379 1.414 . S
C377 H359 0.930 . S
C377 N374 1.327 . S
C377 C375 1.392 . S
C378 H373 0.930 . S
C378 C375 1.370 . S
C378 C379 1.385 . S
C379 C376 1.414 . S
C379 C378 1.385 . S
C379 C401 1.444 . S
O380 Tb336 2.546 . S
O380 C400 1.251 . S
O381 Tb336 2.610 . S
O381 Tb347 2.362 . S
O381 C392 1.283 . S
O382 Tb347 2.421 . S
O382 C399 1.262 . S
O383 Tb336 2.320 . S
O383 C399 1.260 . S
O384 Tb336 2.552 . S
O384 C392 1.243 . S
O385 Tb336 2.413 . S
O385 C400 1.256 . S
O386 Tb347 2.546 . S
O386 C411 1.251 . S
O387 Tb336 2.362 . S
O387 Tb347 2.610 . S
O387 C403 1.283 . S
O388 Tb336 2.421 . S
O388 C410 1.262 . S
O389 Tb347 2.320 . S
O389 C410 1.260 . S
O390 Tb347 2.552 . S
O390 C403 1.243 . S
O391 Tb347 2.413 . S
O391 C411 1.256 . S
C392 O381 1.283 . S
C392 O384 1.243 . S
C393 C395 1.382 . S
C393 C397 1.393 . S
C393 C400 1.500 . S
C394 C395 1.400 . S
C394 C396 1.384 . S
C395 C393 1.382 . S
C395 C394 1.400 . S
C395 H412 0.930 . S
C396 C394 1.384 . S
C396 C398 1.392 . S
C396 H413 0.931 . S
C397 C393 1.393 . S
C397 C398 1.401 . S
C397 H414 0.930 . S
C398 C396 1.392 . S
C398 C397 1.401 . S
C398 H415 0.930 . S
C399 O382 1.262 . S
C399 O383 1.260 . S
C400 Tb336 2.833 . S
C400 O380 1.251 . S
C400 O385 1.256 . S
C400 C393 1.500 . S
C401 H366 0.929 . S
C401 C379 1.444 . S
C401 C402 1.317 . S
C402 H364 0.930 . S
C402 C370 1.432 . S
C402 C401 1.317 . S
C403 O387 1.283 . S
C403 O390 1.243 . S
C404 C405 1.382 . S
C404 C408 1.393 . S
C404 C411 1.500 . S
C405 C404 1.382 . S
C405 C406 1.400 1_455 S
C405 H416 0.930 1_455 S
C406 C405 1.400 1_655 S
C406 C407 1.384 . S
C407 C406 1.384 . S
C407 C409 1.392 1_655 S
C407 H417 0.931 . S
C408 C404 1.393 . S
C408 C409 1.401 . S
C408 H418 0.930 . S
C409 C407 1.392 1_455 S
C409 C408 1.401 . S
C409 H419 0.930 . S
C410 O388 1.262 . S
C410 O389 1.260 . S
C411 Tb347 2.833 . S
C411 O386 1.251 . S
C411 O391 1.256 . S
C411 C404 1.500 . S
H412 C395 0.930 . S
H413 C396 0.931 . S
H414 C397 0.930 . S
H415 C398 0.930 . S
H416 C405 0.930 1_655 S
H417 C407 0.931 . S
H418 C408 0.930 . S
H419 C409 0.930 . S
Tb420 N451 2.660 . S
Tb420 N458 2.600 . S
Tb420 O464 2.546 . S
Tb420 O465 2.610 . S
Tb420 O467 2.320 . S
Tb420 O468 2.552 . S
Tb420 O469 2.413 . S
Tb420 O471 2.362 . S
Tb420 O472 2.421 . S
Tb420 C484 2.833 . S
C421 C424 1.432 . S
C421 C425 1.414 . S
C421 N428 1.359 . S
C422 C424 1.417 . S
C422 C426 1.432 . S
C422 C434 1.410 . S
C423 C425 1.444 . S
C423 C426 1.317 . S
C423 H446 0.929 . S
C424 C421 1.432 . S
C424 C422 1.417 . S
C424 N432 1.360 . S
C425 C421 1.414 . S
C425 C423 1.444 . S
C425 C430 1.385 . S
C426 C422 1.432 . S
C426 C423 1.317 . S
C426 H438 0.930 . S
C427 C429 1.392 . S
C427 C430 1.370 . S
C427 H439 0.931 . S
N428 C421 1.359 . S
N428 C429 1.327 . S
N428 Tb431 2.600 . S
C429 C427 1.392 . S
C429 N428 1.327 . S
C429 H436 0.930 . S
C430 C425 1.385 . S
C430 C427 1.370 . S
C430 H449 0.930 . S
Tb431 N428 2.600 . S
Tb431 N432 2.660 . S
Tb431 O465 2.362 . S
Tb431 O466 2.421 . S
Tb431 O470 2.546 . S
Tb431 O471 2.610 . S
Tb431 O473 2.320 . S
Tb431 O474 2.552 . S
Tb431 O475 2.413 . S
Tb431 C495 2.833 . S
N432 C424 1.360 . S
N432 Tb431 2.660 . S
N432 C433 1.305 . S
C433 N432 1.305 . S
C433 C435 1.407 1_545 S
C433 H440 0.930 . S
C434 C422 1.410 . S
C434 C435 1.345 1_545 S
C434 H442 0.930 1_545 S
C435 C433 1.407 1_565 S
C435 C434 1.345 1_565 S
C435 H437 0.930 . S
H436 C429 0.930 . S
H437 C435 0.930 . S
H438 C426 0.930 . S
H439 C427 0.931 . S
H440 C433 0.930 . S
H441 C455 0.930 . S
H442 C434 0.930 1_565 S
H443 C461 0.930 . S
H444 C452 0.930 . S
H445 C459 0.931 . S
H446 C423 0.929 . S
H447 C453 0.930 . S
H448 C486 0.930 . S
H449 C430 0.930 . S
H450 C485 0.929 . S
N451 Tb420 2.660 . S
N451 C452 1.305 . S
N451 C456 1.360 . S
C452 H444 0.930 . S
C452 N451 1.305 . S
C452 C455 1.407 . S
C453 H447 0.930 . S
C453 C454 1.410 . S
C453 C455 1.345 . S
C454 C453 1.410 . S
C454 C456 1.417 . S
C454 C486 1.432 . S
C455 H441 0.930 . S
C455 C452 1.407 . S
C455 C453 1.345 . S
C456 N451 1.360 . S
C456 C454 1.417 . S
C456 C460 1.432 . S
H457 C462 0.930 . S
N458 Tb420 2.600 . S
N458 C460 1.359 . S
N458 C461 1.327 . S
C459 H445 0.931 . S
C459 C461 1.392 . S
C459 C462 1.370 . S
C460 C456 1.432 . S
C460 N458 1.359 . S
C460 C463 1.414 . S
C461 H443 0.930 . S
C461 N458 1.327 . S
C461 C459 1.392 . S
C462 H457 0.930 . S
C462 C459 1.370 . S
C462 C463 1.385 . S
C463 C460 1.414 . S
C463 C462 1.385 . S
C463 C485 1.444 . S
O464 Tb420 2.546 . S
O464 C484 1.251 . S
O465 Tb420 2.610 . S
O465 Tb431 2.362 . S
O465 C476 1.283 . S
O466 Tb431 2.421 . S
O466 C483 1.262 . S
O467 Tb420 2.320 . S
O467 C483 1.260 . S
O468 Tb420 2.552 . S
O468 C476 1.243 . S
O469 Tb420 2.413 . S
O469 C484 1.256 . S
O470 Tb431 2.546 . S
O470 C495 1.251 . S
O471 Tb420 2.362 . S
O471 Tb431 2.610 . S
O471 C487 1.283 . S
O472 Tb420 2.421 . S
O472 C494 1.262 . S
O473 Tb431 2.320 . S
O473 C494 1.260 . S
O474 Tb431 2.552 . S
O474 C487 1.243 . S
O475 Tb431 2.413 . S
O475 C495 1.256 . S
C476 O465 1.283 . S
C476 O468 1.243 . S
C477 C479 1.382 . S
C477 C481 1.393 . S
C477 C484 1.500 . S
C478 C479 1.400 . S
C478 C480 1.384 . S
C479 C477 1.382 . S
C479 C478 1.400 . S
C479 H496 0.930 . S
C480 C478 1.384 . S
C480 C482 1.392 . S
C480 H497 0.931 . S
C481 C477 1.393 . S
C481 C482 1.401 . S
C481 H498 0.930 . S
C482 C480 1.392 . S
C482 C481 1.401 . S
C482 H499 0.930 . S
C483 O466 1.262 . S
C483 O467 1.260 . S
C484 Tb420 2.833 . S
C484 O464 1.251 . S
C484 O469 1.256 . S
C484 C477 1.500 . S
C485 H450 0.929 . S
C485 C463 1.444 . S
C485 C486 1.317 . S
C486 H448 0.930 . S
C486 C454 1.432 . S
C486 C485 1.317 . S
C487 O471 1.283 . S
C487 O474 1.243 . S
C488 C489 1.382 . S
C488 C492 1.393 . S
C488 C495 1.500 . S
C489 C488 1.382 . S
C489 C490 1.400 1_545 S
C489 H500 0.930 1_545 S
C490 C489 1.400 1_565 S
C490 C491 1.384 . S
C491 C490 1.384 . S
C491 C493 1.392 1_565 S
C491 H501 0.931 . S
C492 C488 1.393 . S
C492 C493 1.401 . S
C492 H502 0.930 . S
C493 C491 1.392 1_545 S
C493 C492 1.401 . S
C493 H503 0.930 . S
C494 O472 1.262 . S
C494 O473 1.260 . S
C495 Tb431 2.833 . S
C495 O470 1.251 . S
C495 O475 1.256 . S
C495 C488 1.500 . S
H496 C479 0.930 . S
H497 C480 0.931 . S
H498 C481 0.930 . S
H499 C482 0.930 . S
H500 C489 0.930 1_565 S
H501 C491 0.931 . S
H502 C492 0.930 . S
H503 C493 0.930 . S
C504 C505 1.387 . S
C504 H508 0.950 . S
C504 C513 1.390 . S
C505 C504 1.387 . S
C505 C507 1.387 . S
H506 C513 0.950 . S
C507 C505 1.387 . S
C507 C509 1.390 . S
C507 H511 0.950 . S
H508 C504 0.950 . S
C509 C507 1.390 . S
C509 C510 1.387 . S
C509 H512 0.950 . S
C510 C509 1.387 . S
C510 C513 1.387 . S
H511 C507 0.950 . S
H512 C509 0.950 . S
C513 C504 1.390 . S
C513 H506 0.950 . S
C513 C510 1.387 . S
C514 C515 1.387 . S
C514 H518 0.950 . S
C514 C523 1.390 . S
C515 C514 1.387 . S
C515 C517 1.387 . S
H516 C523 0.950 . S
C517 C515 1.387 . S
C517 C519 1.390 . S
C517 H521 0.950 . S
H518 C514 0.950 . S
C519 C517 1.390 . S
C519 C520 1.387 . S
C519 H522 0.950 . S
C520 C519 1.387 . S
C520 C523 1.387 . S
H521 C517 0.950 . S
H522 C519 0.950 . S
C523 C514 1.390 . S
C523 H516 0.950 . S
C523 C520 1.387 . S
C524 C525 1.387 . S
C524 H528 0.950 . S
C524 C533 1.390 . S
C525 C524 1.387 . S
C525 C527 1.387 . S
H526 C533 0.950 . S
C527 C525 1.387 . S
C527 C529 1.390 . S
C527 H531 0.950 . S
H528 C524 0.950 . S
C529 C527 1.390 . S
C529 C530 1.387 . S
C529 H532 0.950 . S
C530 C529 1.387 . S
C530 C533 1.387 . S
H531 C527 0.950 . S
H532 C529 0.950 . S
C533 C524 1.390 . S
C533 H526 0.950 . S
C533 C530 1.387 . S
C534 C535 1.387 . S
C534 H538 0.950 . S
C534 C543 1.390 . S
C535 C534 1.387 . S
C535 C537 1.387 . S
H536 C543 0.950 . S
C537 C535 1.387 . S
C537 C539 1.390 . S
C537 H541 0.950 . S
H538 C534 0.950 . S
C539 C537 1.390 . S
C539 C540 1.387 . S
C539 H542 0.950 . S
C540 C539 1.387 . S
C540 C543 1.387 . S
H541 C537 0.950 . S
H542 C539 0.950 . S
C543 C534 1.390 . S
C543 H536 0.950 . S
C543 C540 1.387 . S
C544 C545 1.387 . S
C544 H548 0.950 . S
C544 C553 1.390 . S
C545 C544 1.387 . S
C545 C547 1.387 . S
H546 C553 0.950 . S
C547 C545 1.387 . S
C547 C549 1.390 . S
C547 H551 0.950 . S
H548 C544 0.950 . S
C549 C547 1.390 . S
C549 C550 1.387 . S
C549 H552 0.950 . S
C550 C549 1.387 . S
C550 C553 1.387 . S
H551 C547 0.950 . S
H552 C549 0.950 . S
C553 C544 1.390 . S
C553 H546 0.950 . S
C553 C550 1.387 . S
C554 C555 1.387 . S
C554 H558 0.950 . S
C554 C563 1.390 . S
C555 C554 1.387 . S
C555 C557 1.387 . S
H556 C563 0.950 . S
C557 C555 1.387 . S
C557 C559 1.390 . S
C557 H561 0.950 . S
H558 C554 0.950 . S
C559 C557 1.390 . S
C559 C560 1.387 . S
C559 H562 0.950 . S
C560 C559 1.387 . S
C560 C563 1.387 . S
H561 C557 0.950 . S
H562 C559 0.950 . S
C563 C554 1.390 . S
C563 H556 0.950 . S
C563 C560 1.387 . S
C564 C565 1.387 1_556 S
C564 H568 0.950 . S
C564 C573 1.390 . S
C565 C564 1.387 1_554 S
C565 C567 1.387 . S
H566 C573 0.950 . S
C567 C565 1.387 . S
C567 C569 1.390 . S
C567 H571 0.950 . S
H568 C564 0.950 . S
C569 C567 1.390 . S
C569 C570 1.387 . S
C569 H572 0.950 . S
C570 C569 1.387 . S
C570 C573 1.387 1_554 S
H571 C567 0.950 . S
H572 C569 0.950 . S
C573 C564 1.390 . S
C573 H566 0.950 . S
C573 C570 1.387 1_556 S
C574 C575 1.387 . S
C574 H578 0.950 . S
C574 C583 1.390 1_455 S
C575 C574 1.387 . S
C575 C577 1.387 . S
H576 C583 0.950 . S
C577 C575 1.387 . S
C577 C579 1.390 1_455 S
C577 H581 0.950 . S
H578 C574 0.950 . S
C579 C577 1.390 1_655 S
C579 C580 1.387 . S
C579 H582 0.950 . S
C580 C579 1.387 . S
C580 C583 1.387 . S
H581 C577 0.950 . S
H582 C579 0.950 . S
C583 C574 1.390 1_655 S
C583 H576 0.950 . S
C583 C580 1.387 . S
C584 C585 1.387 . S
C584 H588 0.950 . S
C584 C593 1.390 1_545 S
C585 C584 1.387 . S
C585 C587 1.387 . S
H586 C593 0.950 . S
C587 C585 1.387 . S
C587 C589 1.390 1_545 S
C587 H591 0.950 . S
H588 C584 0.950 . S
C589 C587 1.390 1_565 S
C589 C590 1.387 . S
C589 H592 0.950 . S
C590 C589 1.387 . S
C590 C593 1.387 . S
H591 C587 0.950 . S
H592 C589 0.950 . S
C593 C584 1.390 1_565 S
C593 H586 0.950 . S
C593 C590 1.387 . S
C594 C595 1.387 . S
C594 H598 0.950 . S
C594 C603 1.390 . S
C595 C594 1.387 . S
C595 C597 1.387 . S
H596 C603 0.950 . S
C597 C595 1.387 . S
C597 C599 1.390 . S
C597 H601 0.950 . S
H598 C594 0.950 . S
C599 C597 1.390 . S
C599 C600 1.387 . S
C599 H602 0.950 . S
C600 C599 1.387 . S
C600 C603 1.387 . S
H601 C597 0.950 . S
H602 C599 0.950 . S
C603 C594 1.390 . S
C603 H596 0.950 . S
C603 C600 1.387 . S
C604 C605 1.387 1_556 S
C604 H608 0.950 . S
C604 C613 1.390 1_455 S
C605 C604 1.387 1_554 S
C605 C607 1.387 . S
H606 C613 0.950 . S
C607 C605 1.387 . S
C607 C609 1.390 1_455 S
C607 H611 0.950 . S
H608 C604 0.950 . S
C609 C607 1.390 1_655 S
C609 C610 1.387 . S
C609 H612 0.950 . S
C610 C609 1.387 . S
C610 C613 1.387 1_554 S
H611 C607 0.950 . S
H612 C609 0.950 . S
C613 C604 1.390 1_655 S
C613 H606 0.950 . S
C613 C610 1.387 1_556 S
C614 C615 1.387 . S
C614 H618 0.950 . S
C614 C623 1.390 1_565 S
C615 C614 1.387 . S
C615 C617 1.387 . S
H616 C623 0.950 . S
C617 C615 1.387 . S
C617 C619 1.390 1_565 S
C617 H621 0.950 . S
H618 C614 0.950 . S
C619 C617 1.390 1_545 S
C619 C620 1.387 . S
C619 H622 0.950 . S
C620 C619 1.387 . S
C620 C623 1.387 . S
H621 C617 0.950 . S
H622 C619 0.950 . S
C623 C614 1.390 1_545 S
C623 H616 0.950 . S
C623 C620 1.387 . S
C624 C625 1.387 . S
C624 H628 0.950 . S
C624 C633 1.390 . S
C625 C624 1.387 . S
C625 C627 1.387 . S
H626 C633 0.950 . S
C627 C625 1.387 . S
C627 C629 1.390 . S
C627 H631 0.950 . S
H628 C624 0.950 . S
C629 C627 1.390 . S
C629 C630 1.387 . S
C629 H632 0.950 . S
C630 C629 1.387 . S
C630 C633 1.387 . S
H631 C627 0.950 . S
H632 C629 0.950 . S
C633 C624 1.390 . S
C633 H626 0.950 . S
C633 C630 1.387 . S
C634 C635 1.387 . S
C634 H638 0.950 . S
C634 C643 1.390 . S
C635 C634 1.387 . S
C635 C637 1.387 . S
H636 C643 0.950 . S
C637 C635 1.387 . S
C637 C639 1.390 . S
C637 H641 0.950 . S
H638 C634 0.950 . S
C639 C637 1.390 . S
C639 C640 1.387 . S
C639 H642 0.950 . S
C640 C639 1.387 . S
C640 C643 1.387 . S
H641 C637 0.950 . S
H642 C639 0.950 . S
C643 C634 1.390 . S
C643 H636 0.950 . S
C643 C640 1.387 . S
C644 C645 1.387 . S
C644 H648 0.950 . S
C644 C653 1.390 . S
C645 C644 1.387 . S
C645 C647 1.387 . S
H646 C653 0.950 . S
C647 C645 1.387 . S
C647 C649 1.390 . S
C647 H651 0.950 . S
H648 C644 0.950 . S
C649 C647 1.390 . S
C649 C650 1.387 . S
C649 H652 0.950 . S
C650 C649 1.387 . S
C650 C653 1.387 . S
H651 C647 0.950 . S
H652 C649 0.950 . S
C653 C644 1.390 . S
C653 H646 0.950 . S
C653 C650 1.387 . S
C654 C655 1.387 . S
C654 H658 0.950 . S
C654 C663 1.390 . S
C655 C654 1.387 . S
C655 C657 1.387 . S
H656 C663 0.950 . S
C657 C655 1.387 . S
C657 C659 1.390 . S
C657 H661 0.950 . S
H658 C654 0.950 . S
C659 C657 1.390 . S
C659 C660 1.387 . S
C659 H662 0.950 . S
C660 C659 1.387 . S
C660 C663 1.387 . S
H661 C657 0.950 . S
H662 C659 0.950 . S
C663 C654 1.390 . S
C663 H656 0.950 . S
C663 C660 1.387 . S
C664 C665 1.387 . S
C664 H668 0.950 . S
C664 C673 1.390 . S
C665 C664 1.387 . S
C665 C667 1.387 . S
H666 C673 0.950 . S
C667 C665 1.387 . S
C667 C669 1.390 . S
C667 H671 0.950 . S
H668 C664 0.950 . S
C669 C667 1.390 . S
C669 C670 1.387 . S
C669 H672 0.950 . S
C670 C669 1.387 . S
C670 C673 1.387 . S
H671 C667 0.950 . S
H672 C669 0.950 . S
C673 C664 1.390 . S
C673 H666 0.950 . S
C673 C670 1.387 . S
C674 C675 1.387 . S
C674 H678 0.950 1_565 S
C674 C683 1.390 . S
C675 C674 1.387 . S
C675 C677 1.387 . S
H676 C683 0.950 . S
C677 C675 1.387 . S
C677 C679 1.390 . S
C677 H681 0.950 . S
H678 C674 0.950 1_545 S
C679 C677 1.390 . S
C679 C680 1.387 . S
C679 H682 0.950 . S
C680 C679 1.387 . S
C680 C683 1.387 . S
H681 C677 0.950 . S
H682 C679 0.950 . S
C683 C674 1.390 . S
C683 H676 0.950 . S
C683 C680 1.387 . S
C505 C403 1.190 . S
C510 C58 1.054 . S
C515 C487 1.185 . S
C520 C142 1.054 . S
C525 C67 1.188 . S
C530 C226 1.052 . S
C535 C151 1.186 . S
C540 C310 1.056 . S
C545 C235 1.191 . S
C550 C394 1.056 . S
C555 C319 1.187 . S
C560 C478 1.058 . S
C565 C74 2.026 . S
C570 C326 2.026 . S
C575 C410 2.024 . S
C580 C158 2.024 . S
C585 C494 2.026 . S
C590 C242 2.026 . S
C595 C231 1.937 . S
C600 C483 1.937 . S
C605 C63 1.937 . S
C610 C315 1.937 . S
C615 C399 1.937 . S
C620 C147 1.937 . S
C625 C476 1.290 . S
C630 C70 1.283 . S
C635 C154 1.283 . S
C640 C56 1.289 . S
C645 C238 1.284 . S
C650 C140 1.290 . S
C655 C224 1.294 . S
C660 C322 1.288 . S
C665 C406 1.287 . S
C670 C308 1.293 . S
C675 C490 1.283 . S
C680 C392 1.289 . S
