# Generated by pormake.
# Topology ulh, (4)-cn, num edge types: 1
# Building blocks:
#     Node 0, Type 0, BuildingBlock: CEKHIL_clean_sbu_0, # of connection points: 4
#     Node 1, Type 0, BuildingBlock: CEKHIL_clean_sbu_0, # of connection points: 4
#     Node 2, Type 0, BuildingBlock: CEKHIL_clean_sbu_0, # of connection points: 4
#     Node 3, Type 0, BuildingBlock: CEKHIL_clean_sbu_0, # of connection points: 4
#     Node 4, Type 0, BuildingBlock: CEKHIL_clean_sbu_0, # of connection points: 4
#     Node 5, Type 0, BuildingBlock: CEKHIL_clean_sbu_0, # of connection points: 4
#     Node 6, Type 0, BuildingBlock: CEKHIL_clean_sbu_0, # of connection points: 4
#     Node 7, Type 0, BuildingBlock: CEKHIL_clean_sbu_0, # of connection points: 4
#     Node 8, Type 0, BuildingBlock: CEKHIL_clean_sbu_0, # of connection points: 4
#     Node 9, Type 0, BuildingBlock: CEKHIL_clean_sbu_0, # of connection points: 4
#     Node 10, Type 0, BuildingBlock: CEKHIL_clean_sbu_0, # of connection points: 4
#     Node 11, Type 0, BuildingBlock: CEKHIL_clean_sbu_0, # of connection points: 4
#     Node 12, Type 0, BuildingBlock: CEKHIL_clean_sbu_0, # of connection points: 4
#     Node 13, Type 0, BuildingBlock: CEKHIL_clean_sbu_0, # of connection points: 4
#     Node 14, Type 0, BuildingBlock: CEKHIL_clean_sbu_0, # of connection points: 4
#     Node 15, Type 0, BuildingBlock: CEKHIL_clean_sbu_0, # of connection points: 4
#     Node 16, Type 0, BuildingBlock: CEKHIL_clean_sbu_0, # of connection points: 4
#     Node 17, Type 0, BuildingBlock: CEKHIL_clean_sbu_0, # of connection points: 4
#     Node 18, Type 0, BuildingBlock: CEKHIL_clean_sbu_0, # of connection points: 4
#     Node 19, Type 0, BuildingBlock: CEKHIL_clean_sbu_0, # of connection points: 4
#     Node 20, Type 0, BuildingBlock: CEKHIL_clean_sbu_0, # of connection points: 4
#     Node 21, Type 0, BuildingBlock: CEKHIL_clean_sbu_0, # of connection points: 4
#     Node 22, Type 0, BuildingBlock: CEKHIL_clean_sbu_0, # of connection points: 4
#     Node 23, Type 0, BuildingBlock: CEKHIL_clean_sbu_0, # of connection points: 4
#     Node 24, Type 0, BuildingBlock: CEKHIL_clean_sbu_0, # of connection points: 4
#     Node 25, Type 0, BuildingBlock: CEKHIL_clean_sbu_0, # of connection points: 4
#     Node 26, Type 0, BuildingBlock: CEKHIL_clean_sbu_0, # of connection points: 4
#     Node 27, Type 0, BuildingBlock: CEKHIL_clean_sbu_0, # of connection points: 4
#     Node 28, Type 0, BuildingBlock: CEKHIL_clean_sbu_0, # of connection points: 4
#     Node 29, Type 0, BuildingBlock: CEKHIL_clean_sbu_0, # of connection points: 4
#     Node 30, Type 0, BuildingBlock: CEKHIL_clean_sbu_0, # of connection points: 4
#     Node 31, Type 0, BuildingBlock: CEKHIL_clean_sbu_0, # of connection points: 4
#     Node 32, Type 0, BuildingBlock: CEKHIL_clean_sbu_0, # of connection points: 4
#     Node 33, Type 0, BuildingBlock: CEKHIL_clean_sbu_0, # of connection points: 4
#     Node 34, Type 0, BuildingBlock: CEKHIL_clean_sbu_0, # of connection points: 4
#     Node 35, Type 0, BuildingBlock: CEKHIL_clean_sbu_0, # of connection points: 4
#     Node 36, Type 0, BuildingBlock: CEKHIL_clean_sbu_0, # of connection points: 4
#     Node 37, Type 0, BuildingBlock: CEKHIL_clean_sbu_0, # of connection points: 4
#     Node 38, Type 0, BuildingBlock: CEKHIL_clean_sbu_0, # of connection points: 4
#     Node 39, Type 0, BuildingBlock: CEKHIL_clean_sbu_0, # of connection points: 4
#     Node 40, Type 0, BuildingBlock: CEKHIL_clean_sbu_0, # of connection points: 4
#     Node 41, Type 0, BuildingBlock: CEKHIL_clean_sbu_0, # of connection points: 4
#     Node 42, Type 0, BuildingBlock: CEKHIL_clean_sbu_0, # of connection points: 4
#     Node 43, Type 0, BuildingBlock: CEKHIL_clean_sbu_0, # of connection points: 4
#     Node 44, Type 0, BuildingBlock: CEKHIL_clean_sbu_0, # of connection points: 4
#     Node 45, Type 0, BuildingBlock: CEKHIL_clean_sbu_0, # of connection points: 4
#     Node 46, Type 0, BuildingBlock: CEKHIL_clean_sbu_0, # of connection points: 4
#     Node 47, Type 0, BuildingBlock: CEKHIL_clean_sbu_0, # of connection points: 4
#     Node 48, Type 0, BuildingBlock: CEKHIL_clean_sbu_0, # of connection points: 4
#     Node 49, Type 0, BuildingBlock: CEKHIL_clean_sbu_0, # of connection points: 4
#     Node 50, Type 0, BuildingBlock: CEKHIL_clean_sbu_0, # of connection points: 4
#     Node 51, Type 0, BuildingBlock: CEKHIL_clean_sbu_0, # of connection points: 4
#     Node 52, Type 0, BuildingBlock: CEKHIL_clean_sbu_0, # of connection points: 4
#     Node 53, Type 0, BuildingBlock: CEKHIL_clean_sbu_0, # of connection points: 4
#     Node 54, Type 0, BuildingBlock: CEKHIL_clean_sbu_0, # of connection points: 4
#     Node 55, Type 0, BuildingBlock: CEKHIL_clean_sbu_0, # of connection points: 4
#     Node 56, Type 0, BuildingBlock: CEKHIL_clean_sbu_0, # of connection points: 4
#     Node 57, Type 0, BuildingBlock: CEKHIL_clean_sbu_0, # of connection points: 4
#     Node 58, Type 0, BuildingBlock: CEKHIL_clean_sbu_0, # of connection points: 4
#     Node 59, Type 0, BuildingBlock: CEKHIL_clean_sbu_0, # of connection points: 4
#     Node 60, Type 0, BuildingBlock: CEKHIL_clean_sbu_0, # of connection points: 4
#     Node 61, Type 0, BuildingBlock: CEKHIL_clean_sbu_0, # of connection points: 4
#     Node 62, Type 0, BuildingBlock: CEKHIL_clean_sbu_0, # of connection points: 4
#     Node 63, Type 0, BuildingBlock: CEKHIL_clean_sbu_0, # of connection points: 4
#     Node 64, Type 0, BuildingBlock: CEKHIL_clean_sbu_0, # of connection points: 4
#     Node 65, Type 0, BuildingBlock: CEKHIL_clean_sbu_0, # of connection points: 4
#     Node 66, Type 0, BuildingBlock: CEKHIL_clean_sbu_0, # of connection points: 4
#     Node 67, Type 0, BuildingBlock: CEKHIL_clean_sbu_0, # of connection points: 4
#     Node 68, Type 0, BuildingBlock: CEKHIL_clean_sbu_0, # of connection points: 4
#     Node 69, Type 0, BuildingBlock: CEKHIL_clean_sbu_0, # of connection points: 4
#     Node 70, Type 0, BuildingBlock: CEKHIL_clean_sbu_0, # of connection points: 4
#     Node 71, Type 0, BuildingBlock: CEKHIL_clean_sbu_0, # of connection points: 4
#     Node 72, Type 0, BuildingBlock: CEKHIL_clean_sbu_0, # of connection points: 4
#     Node 73, Type 0, BuildingBlock: CEKHIL_clean_sbu_0, # of connection points: 4
#     Node 74, Type 0, BuildingBlock: CEKHIL_clean_sbu_0, # of connection points: 4
#     Node 75, Type 0, BuildingBlock: CEKHIL_clean_sbu_0, # of connection points: 4
#     Node 76, Type 0, BuildingBlock: CEKHIL_clean_sbu_0, # of connection points: 4
#     Node 77, Type 0, BuildingBlock: CEKHIL_clean_sbu_0, # of connection points: 4
#     Node 78, Type 0, BuildingBlock: CEKHIL_clean_sbu_0, # of connection points: 4
#     Node 79, Type 0, BuildingBlock: CEKHIL_clean_sbu_0, # of connection points: 4
#     Node 80, Type 0, BuildingBlock: CEKHIL_clean_sbu_0, # of connection points: 4
#     Node 81, Type 0, BuildingBlock: CEKHIL_clean_sbu_0, # of connection points: 4
#     Node 82, Type 0, BuildingBlock: CEKHIL_clean_sbu_0, # of connection points: 4
#     Node 83, Type 0, BuildingBlock: CEKHIL_clean_sbu_0, # of connection points: 4
#     Node 84, Type 0, BuildingBlock: CEKHIL_clean_sbu_0, # of connection points: 4
#     Node 85, Type 0, BuildingBlock: CEKHIL_clean_sbu_0, # of connection points: 4
#     Node 86, Type 0, BuildingBlock: CEKHIL_clean_sbu_0, # of connection points: 4
#     Node 87, Type 0, BuildingBlock: CEKHIL_clean_sbu_0, # of connection points: 4
#     Node 88, Type 0, BuildingBlock: CEKHIL_clean_sbu_0, # of connection points: 4
#     Node 89, Type 0, BuildingBlock: CEKHIL_clean_sbu_0, # of connection points: 4
#     Node 90, Type 0, BuildingBlock: CEKHIL_clean_sbu_0, # of connection points: 4
#     Node 91, Type 0, BuildingBlock: CEKHIL_clean_sbu_0, # of connection points: 4
#     Node 92, Type 0, BuildingBlock: CEKHIL_clean_sbu_0, # of connection points: 4
#     Node 93, Type 0, BuildingBlock: CEKHIL_clean_sbu_0, # of connection points: 4
#     Node 94, Type 0, BuildingBlock: CEKHIL_clean_sbu_0, # of connection points: 4
#     Node 95, Type 0, BuildingBlock: CEKHIL_clean_sbu_0, # of connection points: 4
#     Edge 96, Type (0, 0), BuildingBlock: XIVTED_clean_linker_0, # of connection points: 2
#     Edge 97, Type (0, 0), BuildingBlock: XIVTED_clean_linker_0, # of connection points: 2
#     Edge 98, Type (0, 0), BuildingBlock: XIVTED_clean_linker_0, # of connection points: 2
#     Edge 99, Type (0, 0), BuildingBlock: XIVTED_clean_linker_0, # of connection points: 2
#     Edge 100, Type (0, 0), BuildingBlock: XIVTED_clean_linker_0, # of connection points: 2
#     Edge 101, Type (0, 0), BuildingBlock: XIVTED_clean_linker_0, # of connection points: 2
#     Edge 102, Type (0, 0), BuildingBlock: XIVTED_clean_linker_0, # of connection points: 2
#     Edge 103, Type (0, 0), BuildingBlock: XIVTED_clean_linker_0, # of connection points: 2
#     Edge 104, Type (0, 0), BuildingBlock: XIVTED_clean_linker_0, # of connection points: 2
#     Edge 105, Type (0, 0), BuildingBlock: XIVTED_clean_linker_0, # of connection points: 2
#     Edge 106, Type (0, 0), BuildingBlock: XIVTED_clean_linker_0, # of connection points: 2
#     Edge 107, Type (0, 0), BuildingBlock: XIVTED_clean_linker_0, # of connection points: 2
#     Edge 108, Type (0, 0), BuildingBlock: XIVTED_clean_linker_0, # of connection points: 2
#     Edge 109, Type (0, 0), BuildingBlock: XIVTED_clean_linker_0, # of connection points: 2
#     Edge 110, Type (0, 0), BuildingBlock: XIVTED_clean_linker_0, # of connection points: 2
#     Edge 111, Type (0, 0), BuildingBlock: XIVTED_clean_linker_0, # of connection points: 2
#     Edge 112, Type (0, 0), BuildingBlock: XIVTED_clean_linker_0, # of connection points: 2
#     Edge 113, Type (0, 0), BuildingBlock: XIVTED_clean_linker_0, # of connection points: 2
#     Edge 114, Type (0, 0), BuildingBlock: XIVTED_clean_linker_0, # of connection points: 2
#     Edge 115, Type (0, 0), BuildingBlock: XIVTED_clean_linker_0, # of connection points: 2
#     Edge 116, Type (0, 0), BuildingBlock: XIVTED_clean_linker_0, # of connection points: 2
#     Edge 117, Type (0, 0), BuildingBlock: XIVTED_clean_linker_0, # of connection points: 2
#     Edge 118, Type (0, 0), BuildingBlock: XIVTED_clean_linker_0, # of connection points: 2
#     Edge 119, Type (0, 0), BuildingBlock: XIVTED_clean_linker_0, # of connection points: 2
#     Edge 120, Type (0, 0), BuildingBlock: XIVTED_clean_linker_0, # of connection points: 2
#     Edge 121, Type (0, 0), BuildingBlock: XIVTED_clean_linker_0, # of connection points: 2
#     Edge 122, Type (0, 0), BuildingBlock: XIVTED_clean_linker_0, # of connection points: 2
#     Edge 123, Type (0, 0), BuildingBlock: XIVTED_clean_linker_0, # of connection points: 2
#     Edge 124, Type (0, 0), BuildingBlock: XIVTED_clean_linker_0, # of connection points: 2
#     Edge 125, Type (0, 0), BuildingBlock: XIVTED_clean_linker_0, # of connection points: 2
#     Edge 126, Type (0, 0), BuildingBlock: XIVTED_clean_linker_0, # of connection points: 2
#     Edge 127, Type (0, 0), BuildingBlock: XIVTED_clean_linker_0, # of connection points: 2
#     Edge 128, Type (0, 0), BuildingBlock: XIVTED_clean_linker_0, # of connection points: 2
#     Edge 129, Type (0, 0), BuildingBlock: XIVTED_clean_linker_0, # of connection points: 2
#     Edge 130, Type (0, 0), BuildingBlock: XIVTED_clean_linker_0, # of connection points: 2
#     Edge 131, Type (0, 0), BuildingBlock: XIVTED_clean_linker_0, # of connection points: 2
#     Edge 132, Type (0, 0), BuildingBlock: XIVTED_clean_linker_0, # of connection points: 2
#     Edge 133, Type (0, 0), BuildingBlock: XIVTED_clean_linker_0, # of connection points: 2
#     Edge 134, Type (0, 0), BuildingBlock: XIVTED_clean_linker_0, # of connection points: 2
#     Edge 135, Type (0, 0), BuildingBlock: XIVTED_clean_linker_0, # of connection points: 2
#     Edge 136, Type (0, 0), BuildingBlock: XIVTED_clean_linker_0, # of connection points: 2
#     Edge 137, Type (0, 0), BuildingBlock: XIVTED_clean_linker_0, # of connection points: 2
#     Edge 138, Type (0, 0), BuildingBlock: XIVTED_clean_linker_0, # of connection points: 2
#     Edge 139, Type (0, 0), BuildingBlock: XIVTED_clean_linker_0, # of connection points: 2
#     Edge 140, Type (0, 0), BuildingBlock: XIVTED_clean_linker_0, # of connection points: 2
#     Edge 141, Type (0, 0), BuildingBlock: XIVTED_clean_linker_0, # of connection points: 2
#     Edge 142, Type (0, 0), BuildingBlock: XIVTED_clean_linker_0, # of connection points: 2
#     Edge 143, Type (0, 0), BuildingBlock: XIVTED_clean_linker_0, # of connection points: 2
#     Edge 144, Type (0, 0), BuildingBlock: XIVTED_clean_linker_0, # of connection points: 2
#     Edge 145, Type (0, 0), BuildingBlock: XIVTED_clean_linker_0, # of connection points: 2
#     Edge 146, Type (0, 0), BuildingBlock: XIVTED_clean_linker_0, # of connection points: 2
#     Edge 147, Type (0, 0), BuildingBlock: XIVTED_clean_linker_0, # of connection points: 2
#     Edge 148, Type (0, 0), BuildingBlock: XIVTED_clean_linker_0, # of connection points: 2
#     Edge 149, Type (0, 0), BuildingBlock: XIVTED_clean_linker_0, # of connection points: 2
#     Edge 150, Type (0, 0), BuildingBlock: XIVTED_clean_linker_0, # of connection points: 2
#     Edge 151, Type (0, 0), BuildingBlock: XIVTED_clean_linker_0, # of connection points: 2
#     Edge 152, Type (0, 0), BuildingBlock: XIVTED_clean_linker_0, # of connection points: 2
#     Edge 153, Type (0, 0), BuildingBlock: XIVTED_clean_linker_0, # of connection points: 2
#     Edge 154, Type (0, 0), BuildingBlock: XIVTED_clean_linker_0, # of connection points: 2
#     Edge 155, Type (0, 0), BuildingBlock: XIVTED_clean_linker_0, # of connection points: 2
#     Edge 156, Type (0, 0), BuildingBlock: XIVTED_clean_linker_0, # of connection points: 2
#     Edge 157, Type (0, 0), BuildingBlock: XIVTED_clean_linker_0, # of connection points: 2
#     Edge 158, Type (0, 0), BuildingBlock: XIVTED_clean_linker_0, # of connection points: 2
#     Edge 159, Type (0, 0), BuildingBlock: XIVTED_clean_linker_0, # of connection points: 2
#     Edge 160, Type (0, 0), BuildingBlock: XIVTED_clean_linker_0, # of connection points: 2
#     Edge 161, Type (0, 0), BuildingBlock: XIVTED_clean_linker_0, # of connection points: 2
#     Edge 162, Type (0, 0), BuildingBlock: XIVTED_clean_linker_0, # of connection points: 2
#     Edge 163, Type (0, 0), BuildingBlock: XIVTED_clean_linker_0, # of connection points: 2
#     Edge 164, Type (0, 0), BuildingBlock: XIVTED_clean_linker_0, # of connection points: 2
#     Edge 165, Type (0, 0), BuildingBlock: XIVTED_clean_linker_0, # of connection points: 2
#     Edge 166, Type (0, 0), BuildingBlock: XIVTED_clean_linker_0, # of connection points: 2
#     Edge 167, Type (0, 0), BuildingBlock: XIVTED_clean_linker_0, # of connection points: 2
#     Edge 168, Type (0, 0), BuildingBlock: XIVTED_clean_linker_0, # of connection points: 2
#     Edge 169, Type (0, 0), BuildingBlock: XIVTED_clean_linker_0, # of connection points: 2
#     Edge 170, Type (0, 0), BuildingBlock: XIVTED_clean_linker_0, # of connection points: 2
#     Edge 171, Type (0, 0), BuildingBlock: XIVTED_clean_linker_0, # of connection points: 2
#     Edge 172, Type (0, 0), BuildingBlock: XIVTED_clean_linker_0, # of connection points: 2
#     Edge 173, Type (0, 0), BuildingBlock: XIVTED_clean_linker_0, # of connection points: 2
#     Edge 174, Type (0, 0), BuildingBlock: XIVTED_clean_linker_0, # of connection points: 2
#     Edge 175, Type (0, 0), BuildingBlock: XIVTED_clean_linker_0, # of connection points: 2
#     Edge 176, Type (0, 0), BuildingBlock: XIVTED_clean_linker_0, # of connection points: 2
#     Edge 177, Type (0, 0), BuildingBlock: XIVTED_clean_linker_0, # of connection points: 2
#     Edge 178, Type (0, 0), BuildingBlock: XIVTED_clean_linker_0, # of connection points: 2
#     Edge 179, Type (0, 0), BuildingBlock: XIVTED_clean_linker_0, # of connection points: 2
#     Edge 180, Type (0, 0), BuildingBlock: XIVTED_clean_linker_0, # of connection points: 2
#     Edge 181, Type (0, 0), BuildingBlock: XIVTED_clean_linker_0, # of connection points: 2
#     Edge 182, Type (0, 0), BuildingBlock: XIVTED_clean_linker_0, # of connection points: 2
#     Edge 183, Type (0, 0), BuildingBlock: XIVTED_clean_linker_0, # of connection points: 2
#     Edge 184, Type (0, 0), BuildingBlock: XIVTED_clean_linker_0, # of connection points: 2
#     Edge 185, Type (0, 0), BuildingBlock: XIVTED_clean_linker_0, # of connection points: 2
#     Edge 186, Type (0, 0), BuildingBlock: XIVTED_clean_linker_0, # of connection points: 2
#     Edge 187, Type (0, 0), BuildingBlock: XIVTED_clean_linker_0, # of connection points: 2
#     Edge 188, Type (0, 0), BuildingBlock: XIVTED_clean_linker_0, # of connection points: 2
#     Edge 189, Type (0, 0), BuildingBlock: XIVTED_clean_linker_0, # of connection points: 2
#     Edge 190, Type (0, 0), BuildingBlock: XIVTED_clean_linker_0, # of connection points: 2
#     Edge 191, Type (0, 0), BuildingBlock: XIVTED_clean_linker_0, # of connection points: 2
#     Edge 192, Type (0, 0), BuildingBlock: XIVTED_clean_linker_0, # of connection points: 2
#     Edge 193, Type (0, 0), BuildingBlock: XIVTED_clean_linker_0, # of connection points: 2
#     Edge 194, Type (0, 0), BuildingBlock: XIVTED_clean_linker_0, # of connection points: 2
#     Edge 195, Type (0, 0), BuildingBlock: XIVTED_clean_linker_0, # of connection points: 2
#     Edge 196, Type (0, 0), BuildingBlock: XIVTED_clean_linker_0, # of connection points: 2
#     Edge 197, Type (0, 0), BuildingBlock: XIVTED_clean_linker_0, # of connection points: 2
#     Edge 198, Type (0, 0), BuildingBlock: XIVTED_clean_linker_0, # of connection points: 2
#     Edge 199, Type (0, 0), BuildingBlock: XIVTED_clean_linker_0, # of connection points: 2
#     Edge 200, Type (0, 0), BuildingBlock: XIVTED_clean_linker_0, # of connection points: 2
#     Edge 201, Type (0, 0), BuildingBlock: XIVTED_clean_linker_0, # of connection points: 2
#     Edge 202, Type (0, 0), BuildingBlock: XIVTED_clean_linker_0, # of connection points: 2
#     Edge 203, Type (0, 0), BuildingBlock: XIVTED_clean_linker_0, # of connection points: 2
#     Edge 204, Type (0, 0), BuildingBlock: XIVTED_clean_linker_0, # of connection points: 2
#     Edge 205, Type (0, 0), BuildingBlock: XIVTED_clean_linker_0, # of connection points: 2
#     Edge 206, Type (0, 0), BuildingBlock: XIVTED_clean_linker_0, # of connection points: 2
#     Edge 207, Type (0, 0), BuildingBlock: XIVTED_clean_linker_0, # of connection points: 2
#     Edge 208, Type (0, 0), BuildingBlock: XIVTED_clean_linker_0, # of connection points: 2
#     Edge 209, Type (0, 0), BuildingBlock: XIVTED_clean_linker_0, # of connection points: 2
#     Edge 210, Type (0, 0), BuildingBlock: XIVTED_clean_linker_0, # of connection points: 2
#     Edge 211, Type (0, 0), BuildingBlock: XIVTED_clean_linker_0, # of connection points: 2
#     Edge 212, Type (0, 0), BuildingBlock: XIVTED_clean_linker_0, # of connection points: 2
#     Edge 213, Type (0, 0), BuildingBlock: XIVTED_clean_linker_0, # of connection points: 2
#     Edge 214, Type (0, 0), BuildingBlock: XIVTED_clean_linker_0, # of connection points: 2
#     Edge 215, Type (0, 0), BuildingBlock: XIVTED_clean_linker_0, # of connection points: 2
#     Edge 216, Type (0, 0), BuildingBlock: XIVTED_clean_linker_0, # of connection points: 2
#     Edge 217, Type (0, 0), BuildingBlock: XIVTED_clean_linker_0, # of connection points: 2
#     Edge 218, Type (0, 0), BuildingBlock: XIVTED_clean_linker_0, # of connection points: 2
#     Edge 219, Type (0, 0), BuildingBlock: XIVTED_clean_linker_0, # of connection points: 2
#     Edge 220, Type (0, 0), BuildingBlock: XIVTED_clean_linker_0, # of connection points: 2
#     Edge 221, Type (0, 0), BuildingBlock: XIVTED_clean_linker_0, # of connection points: 2
#     Edge 222, Type (0, 0), BuildingBlock: XIVTED_clean_linker_0, # of connection points: 2
#     Edge 223, Type (0, 0), BuildingBlock: XIVTED_clean_linker_0, # of connection points: 2
#     Edge 224, Type (0, 0), BuildingBlock: XIVTED_clean_linker_0, # of connection points: 2
#     Edge 225, Type (0, 0), BuildingBlock: XIVTED_clean_linker_0, # of connection points: 2
#     Edge 226, Type (0, 0), BuildingBlock: XIVTED_clean_linker_0, # of connection points: 2
#     Edge 227, Type (0, 0), BuildingBlock: XIVTED_clean_linker_0, # of connection points: 2
#     Edge 228, Type (0, 0), BuildingBlock: XIVTED_clean_linker_0, # of connection points: 2
#     Edge 229, Type (0, 0), BuildingBlock: XIVTED_clean_linker_0, # of connection points: 2
#     Edge 230, Type (0, 0), BuildingBlock: XIVTED_clean_linker_0, # of connection points: 2
#     Edge 231, Type (0, 0), BuildingBlock: XIVTED_clean_linker_0, # of connection points: 2
#     Edge 232, Type (0, 0), BuildingBlock: XIVTED_clean_linker_0, # of connection points: 2
#     Edge 233, Type (0, 0), BuildingBlock: XIVTED_clean_linker_0, # of connection points: 2
#     Edge 234, Type (0, 0), BuildingBlock: XIVTED_clean_linker_0, # of connection points: 2
#     Edge 235, Type (0, 0), BuildingBlock: XIVTED_clean_linker_0, # of connection points: 2
#     Edge 236, Type (0, 0), BuildingBlock: XIVTED_clean_linker_0, # of connection points: 2
#     Edge 237, Type (0, 0), BuildingBlock: XIVTED_clean_linker_0, # of connection points: 2
#     Edge 238, Type (0, 0), BuildingBlock: XIVTED_clean_linker_0, # of connection points: 2
#     Edge 239, Type (0, 0), BuildingBlock: XIVTED_clean_linker_0, # of connection points: 2
#     Edge 240, Type (0, 0), BuildingBlock: XIVTED_clean_linker_0, # of connection points: 2
#     Edge 241, Type (0, 0), BuildingBlock: XIVTED_clean_linker_0, # of connection points: 2
#     Edge 242, Type (0, 0), BuildingBlock: XIVTED_clean_linker_0, # of connection points: 2
#     Edge 243, Type (0, 0), BuildingBlock: XIVTED_clean_linker_0, # of connection points: 2
#     Edge 244, Type (0, 0), BuildingBlock: XIVTED_clean_linker_0, # of connection points: 2
#     Edge 245, Type (0, 0), BuildingBlock: XIVTED_clean_linker_0, # of connection points: 2
#     Edge 246, Type (0, 0), BuildingBlock: XIVTED_clean_linker_0, # of connection points: 2
#     Edge 247, Type (0, 0), BuildingBlock: XIVTED_clean_linker_0, # of connection points: 2
#     Edge 248, Type (0, 0), BuildingBlock: XIVTED_clean_linker_0, # of connection points: 2
#     Edge 249, Type (0, 0), BuildingBlock: XIVTED_clean_linker_0, # of connection points: 2
#     Edge 250, Type (0, 0), BuildingBlock: XIVTED_clean_linker_0, # of connection points: 2
#     Edge 251, Type (0, 0), BuildingBlock: XIVTED_clean_linker_0, # of connection points: 2
#     Edge 252, Type (0, 0), BuildingBlock: XIVTED_clean_linker_0, # of connection points: 2
#     Edge 253, Type (0, 0), BuildingBlock: XIVTED_clean_linker_0, # of connection points: 2
#     Edge 254, Type (0, 0), BuildingBlock: XIVTED_clean_linker_0, # of connection points: 2
#     Edge 255, Type (0, 0), BuildingBlock: XIVTED_clean_linker_0, # of connection points: 2
#     Edge 256, Type (0, 0), BuildingBlock: XIVTED_clean_linker_0, # of connection points: 2
#     Edge 257, Type (0, 0), BuildingBlock: XIVTED_clean_linker_0, # of connection points: 2
#     Edge 258, Type (0, 0), BuildingBlock: XIVTED_clean_linker_0, # of connection points: 2
#     Edge 259, Type (0, 0), BuildingBlock: XIVTED_clean_linker_0, # of connection points: 2
#     Edge 260, Type (0, 0), BuildingBlock: XIVTED_clean_linker_0, # of connection points: 2
#     Edge 261, Type (0, 0), BuildingBlock: XIVTED_clean_linker_0, # of connection points: 2
#     Edge 262, Type (0, 0), BuildingBlock: XIVTED_clean_linker_0, # of connection points: 2
#     Edge 263, Type (0, 0), BuildingBlock: XIVTED_clean_linker_0, # of connection points: 2
#     Edge 264, Type (0, 0), BuildingBlock: XIVTED_clean_linker_0, # of connection points: 2
#     Edge 265, Type (0, 0), BuildingBlock: XIVTED_clean_linker_0, # of connection points: 2
#     Edge 266, Type (0, 0), BuildingBlock: XIVTED_clean_linker_0, # of connection points: 2
#     Edge 267, Type (0, 0), BuildingBlock: XIVTED_clean_linker_0, # of connection points: 2
#     Edge 268, Type (0, 0), BuildingBlock: XIVTED_clean_linker_0, # of connection points: 2
#     Edge 269, Type (0, 0), BuildingBlock: XIVTED_clean_linker_0, # of connection points: 2
#     Edge 270, Type (0, 0), BuildingBlock: XIVTED_clean_linker_0, # of connection points: 2
#     Edge 271, Type (0, 0), BuildingBlock: XIVTED_clean_linker_0, # of connection points: 2
#     Edge 272, Type (0, 0), BuildingBlock: XIVTED_clean_linker_0, # of connection points: 2
#     Edge 273, Type (0, 0), BuildingBlock: XIVTED_clean_linker_0, # of connection points: 2
#     Edge 274, Type (0, 0), BuildingBlock: XIVTED_clean_linker_0, # of connection points: 2
#     Edge 275, Type (0, 0), BuildingBlock: XIVTED_clean_linker_0, # of connection points: 2
#     Edge 276, Type (0, 0), BuildingBlock: XIVTED_clean_linker_0, # of connection points: 2
#     Edge 277, Type (0, 0), BuildingBlock: XIVTED_clean_linker_0, # of connection points: 2
#     Edge 278, Type (0, 0), BuildingBlock: XIVTED_clean_linker_0, # of connection points: 2
#     Edge 279, Type (0, 0), BuildingBlock: XIVTED_clean_linker_0, # of connection points: 2
#     Edge 280, Type (0, 0), BuildingBlock: XIVTED_clean_linker_0, # of connection points: 2
#     Edge 281, Type (0, 0), BuildingBlock: XIVTED_clean_linker_0, # of connection points: 2
#     Edge 282, Type (0, 0), BuildingBlock: XIVTED_clean_linker_0, # of connection points: 2
#     Edge 283, Type (0, 0), BuildingBlock: XIVTED_clean_linker_0, # of connection points: 2
#     Edge 284, Type (0, 0), BuildingBlock: XIVTED_clean_linker_0, # of connection points: 2
#     Edge 285, Type (0, 0), BuildingBlock: XIVTED_clean_linker_0, # of connection points: 2
#     Edge 286, Type (0, 0), BuildingBlock: XIVTED_clean_linker_0, # of connection points: 2
#     Edge 287, Type (0, 0), BuildingBlock: XIVTED_clean_linker_0, # of connection points: 2
# Relax obj value: 0.198
# Max RMSD: 0.230
# Mean RMSD: 0.230
data_MOF--net-ulh--node1-CEKHIL_clean_sbu_0--edge1-XIVTED_clean_linker_0
_symmetry_space_group_name_H-M    P1
_symmetry_Int_Tables_number       1
_symmetry_cell_setting            triclinic
loop_
_symmetry_equiv_pos_as_xyz
'x, y, z'
_cell_length_a     80.236063
_cell_length_b     80.232069
_cell_length_c     80.250435
_cell_angle_alpha  89.997448
_cell_angle_beta   90.006719
_cell_angle_gamma 89.990098
loop_
_atom_site_label
_atom_site_type_symbol
_atom_site_fract_x
_atom_site_fract_y
_atom_site_fract_z
_atom_type_partial_charge
Co0 Co 0.04278 0.31229 0.08725 0.0
O1 O 0.02898 0.29674 0.09888 0.0
O2 O 0.05282 0.29023 0.08644 0.0
C3 C 0.04235 0.33233 0.10695 0.0
O4 O 0.06044 0.32571 0.07484 0.0
Co5 Co 0.0268 0.34613 0.07671 0.0
O6 O 0.05011 0.35149 0.07037 0.0
C7 C 0.01927 0.31599 0.05746 0.0
C8 C 0.04011 0.28559 0.09539 0.0
C9 C 0.06193 0.34086 0.06967 0.0
O10 O 0.03053 0.30796 0.06562 0.0
O11 O 0.01459 0.33077 0.06123 0.0
O12 O 0.05242 0.31975 0.10832 0.0
O13 O 0.03162 0.33126 0.09499 0.0
Co14 Co 0.93857 0.28898 0.33774 0.0
O15 O 0.95368 0.27454 0.34925 0.0
O16 O 0.96079 0.29873 0.33791 0.0
C17 C 0.91799 0.28822 0.35692 0.0
O18 O 0.92555 0.30716 0.32554 0.0
Co19 Co 0.90503 0.27333 0.32586 0.0
O20 O 0.89996 0.29682 0.32005 0.0
C21 C 0.9356 0.26635 0.30712 0.0
C22 C 0.96508 0.28558 0.34641 0.0
C23 C 0.91053 0.30871 0.31996 0.0
O24 O 0.94338 0.27737 0.31583 0.0
O25 O 0.92074 0.26155 0.31037 0.0
O26 O 0.93067 0.29804 0.35892 0.0
O27 O 0.91929 0.2778 0.34471 0.0
Co28 Co 0.96159 0.18816 0.59042 0.0
O29 O 0.97631 0.20287 0.60207 0.0
O30 O 0.95251 0.21064 0.59031 0.0
C31 C 0.96165 0.16762 0.60967 0.0
O32 O 0.94303 0.17582 0.57821 0.0
Co33 Co 0.97573 0.15388 0.57873 0.0
O34 O 0.95202 0.14968 0.57305 0.0
C35 C 0.98414 0.18407 0.55992 0.0
C36 C 0.96558 0.21454 0.59909 0.0
C37 C 0.94069 0.16085 0.57286 0.0
O38 O 0.97349 0.19244 0.56853 0.0
O39 O 0.98823 0.16902 0.56326 0.0
O40 O 0.95217 0.1806 0.61158 0.0
O41 O 0.9721 0.16853 0.59745 0.0
Co42 Co 0.06332 0.21223 0.83767 0.0
O43 O 0.04764 0.22593 0.84924 0.0
O44 O 0.04129 0.20214 0.83663 0.0
C45 C 0.08322 0.21252 0.85752 0.0
O46 O 0.07695 0.19475 0.82519 0.0
Co47 Co 0.09707 0.22862 0.8275 0.0
O48 O 0.10265 0.20541 0.82102 0.0
C49 C 0.06701 0.236 0.80807 0.0
C50 C 0.03654 0.21483 0.84556 0.0
C51 C 0.09216 0.19348 0.82011 0.0
O52 O 0.05906 0.22463 0.81613 0.0
O53 O 0.08172 0.24079 0.81194 0.0
O54 O 0.07063 0.20244 0.8587 0.0
O55 O 0.0822 0.22339 0.84568 0.0
Co56 Co 0.0411 0.68911 0.91088 0.0
O57 O 0.02644 0.70397 0.89941 0.0
O58 O 0.04986 0.71173 0.9119 0.0
C59 C 0.04184 0.66926 0.89098 0.0
O60 O 0.05945 0.6765 0.92319 0.0
Co61 Co 0.02668 0.65448 0.92107 0.0
O62 O 0.05021 0.65026 0.92744 0.0
C63 C 0.01779 0.684 0.94066 0.0
C64 C 0.03687 0.71572 0.90302 0.0
C65 C 0.06156 0.66138 0.92825 0.0
O66 O 0.02864 0.6926 0.93254 0.0
O67 O 0.01379 0.66906 0.93677 0.0
O68 O 0.05117 0.68242 0.88977 0.0
O69 O 0.03101 0.66964 0.90289 0.0
Co70 Co 0.5635 0.28911 0.16013 0.0
O71 O 0.54871 0.27446 0.14851 0.0
O72 O 0.54108 0.2983 0.16031 0.0
C73 C 0.58395 0.28907 0.14082 0.0
O74 O 0.57596 0.30755 0.17243 0.0
Co75 Co 0.59768 0.27464 0.17167 0.0
O76 O 0.60197 0.29824 0.17773 0.0
C77 C 0.56744 0.2662 0.19036 0.0
C78 C 0.53708 0.28521 0.15159 0.0
C79 C 0.59091 0.30968 0.17794 0.0
O80 O 0.5592 0.27709 0.18192 0.0
O81 O 0.58244 0.262 0.18694 0.0
O82 O 0.57101 0.2986 0.139 0.0
O83 O 0.58306 0.27855 0.15298 0.0
Co84 Co 0.96217 0.81361 0.41674 0.0
O85 O 0.97716 0.79841 0.40614 0.0
O86 O 0.95265 0.79129 0.4168 0.0
C87 C 0.96317 0.83379 0.39719 0.0
O88 O 0.94351 0.82663 0.42816 0.0
Co89 Co 0.97707 0.84757 0.42835 0.0
O90 O 0.95339 0.85242 0.43358 0.0
C91 C 0.98441 0.81732 0.44744 0.0
C92 C 0.9662 0.78693 0.409 0.0
C93 C 0.94163 0.8417 0.43349 0.0
O94 O 0.97331 0.80939 0.43899 0.0
O95 O 0.98916 0.83213 0.4439 0.0
O96 O 0.95358 0.82092 0.39517 0.0
O97 O 0.97328 0.83287 0.40968 0.0
Co98 Co 0.43786 0.21217 0.65925 0.0
O99 O 0.45328 0.22617 0.64762 0.0
O100 O 0.45989 0.20203 0.65942 0.0
C101 C 0.41734 0.21299 0.64002 0.0
O102 O 0.42465 0.19434 0.67162 0.0
Co103 Co 0.40432 0.22806 0.67077 0.0
O104 O 0.39902 0.20466 0.67682 0.0
C105 C 0.43487 0.23509 0.68958 0.0
C106 C 0.46445 0.21496 0.65076 0.0
C107 C 0.40962 0.1928 0.6771 0.0
O108 O 0.4427 0.22399 0.68102 0.0
O109 O 0.42004 0.23988 0.68622 0.0
O110 O 0.42987 0.20291 0.63818 0.0
O111 O 0.41878 0.22354 0.65209 0.0
Co112 Co 0.08893 0.04088 0.3108 0.0
O113 O 0.10009 0.02665 0.29527 0.0
O114 O 0.08831 0.05079 0.28865 0.0
C115 C 0.10867 0.04016 0.33082 0.0
O116 O 0.07696 0.05885 0.32429 0.0
Co117 Co 0.07824 0.02492 0.34461 0.0
O118 O 0.07223 0.04831 0.34995 0.0
C119 C 0.05877 0.01784 0.31455 0.0
C120 C 0.09678 0.03773 0.28404 0.0
C121 C 0.07176 0.06026 0.33945 0.0
O122 O 0.067 0.0291 0.3066 0.0
O123 O 0.0626 0.01294 0.32923 0.0
O124 O 0.11026 0.0501 0.31816 0.0
O125 O 0.09653 0.02964 0.32974 0.0
Co126 Co 0.21142 0.33855 0.56131 0.0
O127 O 0.22599 0.34935 0.54585 0.0
O128 O 0.20172 0.33789 0.5391 0.0
C129 C 0.21224 0.35843 0.58117 0.0
O130 O 0.19304 0.32707 0.57456 0.0
Co131 Co 0.22648 0.32775 0.59548 0.0
O132 O 0.20284 0.32251 0.60053 0.0
C133 C 0.23359 0.30781 0.56572 0.0
C134 C 0.21491 0.34617 0.53456 0.0
C135 C 0.19115 0.32217 0.58975 0.0
O136 O 0.2228 0.31633 0.55744 0.0
O137 O 0.23824 0.31156 0.5805 0.0
O138 O 0.20252 0.36009 0.56835 0.0
O139 O 0.22253 0.34607 0.58039 0.0
Co140 Co 0.9133 0.4616 0.81215 0.0
O141 O 0.90301 0.47632 0.79646 0.0
O142 O 0.9137 0.45163 0.79005 0.0
C143 C 0.89337 0.46309 0.83195 0.0
O144 O 0.92446 0.44317 0.8257 0.0
Co145 Co 0.92428 0.47702 0.84611 0.0
O146 O 0.92956 0.45344 0.85139 0.0
C147 C 0.94412 0.48361 0.81616 0.0
C148 C 0.906 0.46509 0.78528 0.0
C149 C 0.92965 0.44153 0.84083 0.0
O150 O 0.93568 0.47254 0.80818 0.0
O151 O 0.94033 0.48861 0.83082 0.0
O152 O 0.89155 0.45325 0.81924 0.0
O153 O 0.90593 0.47312 0.83106 0.0
Co154 Co 0.78741 0.16621 0.06989 0.0
O155 O 0.77008 0.15834 0.05547 0.0
O156 O 0.79483 0.16711 0.04684 0.0
C157 C 0.78626 0.14506 0.08852 0.0
O158 O 0.80834 0.17483 0.08165 0.0
Co159 Co 0.77779 0.17548 0.10655 0.0
O160 O 0.80217 0.17814 0.10891 0.0
C161 C 0.77198 0.1998 0.07944 0.0
C162 C 0.78028 0.1609 0.04324 0.0
C163 C 0.81243 0.17852 0.09677 0.0
O164 O 0.77834 0.18982 0.06858 0.0
O165 O 0.76982 0.19594 0.09476 0.0
O166 O 0.7944 0.14335 0.07466 0.0
O167 O 0.77747 0.1585 0.08963 0.0
Co168 Co 0.08846 0.96335 0.68283 0.0
O169 O 0.09605 0.98005 0.6981 0.0
O170 O 0.08738 0.95484 0.70545 0.0
C171 C 0.10977 0.96558 0.66453 0.0
O172 O 0.0802 0.94285 0.67015 0.0
Co173 Co 0.07956 0.97405 0.6464 0.0
O174 O 0.07763 0.94971 0.64301 0.0
C175 C 0.05495 0.97891 0.67347 0.0
C176 C 0.09349 0.96922 0.70978 0.0
C177 C 0.07706 0.93911 0.65483 0.0
O178 O 0.0648 0.9722 0.68424 0.0
O179 O 0.05897 0.98156 0.65826 0.0
O180 O 0.11144 0.9568 0.678 0.0
O181 O 0.09623 0.97422 0.66364 0.0
Co182 Co 0.29138 0.3373 0.93764 0.0
O183 O 0.27691 0.34816 0.95318 0.0
O184 O 0.30121 0.33671 0.9598 0.0
C185 C 0.29054 0.35718 0.91776 0.0
O186 O 0.3096 0.32565 0.92426 0.0
Co187 Co 0.27594 0.32655 0.90362 0.0
O188 O 0.29946 0.32092 0.89845 0.0
C189 C 0.26894 0.30675 0.93352 0.0
C190 C 0.28803 0.34497 0.96442 0.0
C191 C 0.31127 0.32054 0.90911 0.0
O192 O 0.27991 0.31519 0.94165 0.0
O193 O 0.26416 0.31051 0.91878 0.0
O194 O 0.30034 0.35878 0.93052 0.0
O195 O 0.28017 0.34488 0.91861 0.0
Co196 Co 0.91385 0.53792 0.18688 0.0
O197 O 0.9026 0.5233 0.20197 0.0
O198 O 0.91389 0.54751 0.20915 0.0
C199 C 0.89444 0.53722 0.16651 0.0
O200 O 0.92572 0.55633 0.17399 0.0
Co201 Co 0.92542 0.52296 0.1529 0.0
O202 O 0.93088 0.54661 0.1481 0.0
C203 C 0.94455 0.5156 0.18316 0.0
C204 C 0.90545 0.53432 0.2134 0.0
C205 C 0.931 0.55826 0.15893 0.0
O206 O 0.93591 0.52643 0.19126 0.0
O207 O 0.94112 0.51103 0.16827 0.0
O208 O 0.89251 0.54691 0.17932 0.0
O209 O 0.90676 0.5269 0.16755 0.0
Co210 Co 0.70611 0.16309 0.44106 0.0
O211 O 0.72004 0.15175 0.45665 0.0
O212 O 0.69818 0.16724 0.4636 0.0
C213 C 0.70267 0.14155 0.42344 0.0
O214 O 0.68863 0.17583 0.42766 0.0
Co215 Co 0.72012 0.16815 0.40523 0.0
O216 O 0.69717 0.17615 0.40085 0.0
C217 C 0.73143 0.19033 0.43211 0.0
C218 C 0.71038 0.15756 0.46817 0.0
C219 C 0.6864 0.1793 0.41212 0.0
O220 O 0.7208 0.1836 0.44208 0.0
O221 O 0.73414 0.18489 0.41736 0.0
O222 O 0.69364 0.14271 0.4368 0.0
O223 O 0.71479 0.1521 0.42234 0.0
Co224 Co 0.31151 0.08845 0.03979 0.0
O225 O 0.29675 0.10026 0.02526 0.0
O226 O 0.28911 0.08837 0.04905 0.0
C227 C 0.3321 0.10761 0.03971 0.0
O228 O 0.32394 0.07605 0.05815 0.0
Co229 Co 0.34561 0.07669 0.0253 0.0
O230 O 0.34998 0.07079 0.04893 0.0
C231 C 0.31524 0.05815 0.01693 0.0
C232 C 0.28514 0.09723 0.03605 0.0
C233 C 0.33889 0.07059 0.06034 0.0
O234 O 0.30703 0.06669 0.02776 0.0
O235 O 0.33027 0.06145 0.01275 0.0
O236 O 0.31921 0.1095 0.0493 0.0
O237 O 0.33107 0.09547 0.02918 0.0
Co238 Co 0.8135 0.91428 0.46426 0.0
O239 O 0.79811 0.9033 0.4788 0.0
O240 O 0.79135 0.91452 0.45444 0.0
C241 C 0.83368 0.89469 0.46518 0.0
O242 O 0.82664 0.92594 0.44589 0.0
Co243 Co 0.84747 0.92563 0.47934 0.0
O244 O 0.85252 0.93094 0.45572 0.0
C245 C 0.8173 0.94493 0.48662 0.0
C246 C 0.78684 0.90627 0.46765 0.0
C247 C 0.84176 0.93108 0.444 0.0
O248 O 0.80923 0.93642 0.47566 0.0
O249 O 0.83213 0.94135 0.49129 0.0
O250 O 0.82092 0.89284 0.45542 0.0
O251 O 0.83268 0.90705 0.47546 0.0
Co252 Co 0.34131 0.06342 0.71167 0.0
O253 O 0.35315 0.04839 0.72589 0.0
O254 O 0.34088 0.04108 0.70221 0.0
C255 C 0.36065 0.08382 0.71159 0.0
O256 O 0.32873 0.07627 0.6937 0.0
Co257 Co 0.33021 0.09736 0.7271 0.0
O258 O 0.32376 0.1021 0.7037 0.0
C259 C 0.31119 0.06715 0.73484 0.0
C260 C 0.34986 0.0369 0.71507 0.0
C261 C 0.32325 0.0913 0.69203 0.0
O262 O 0.31966 0.05903 0.72389 0.0
O263 O 0.31469 0.08205 0.73933 0.0
O264 O 0.36229 0.07098 0.7019 0.0
O265 O 0.34874 0.08277 0.72237 0.0
Co266 Co 0.18927 0.58911 0.95924 0.0
O267 O 0.20482 0.59996 0.97369 0.0
O268 O 0.21136 0.58875 0.94927 0.0
C269 C 0.16922 0.60881 0.96043 0.0
O270 O 0.17588 0.57751 0.941 0.0
Co271 Co 0.15541 0.57794 0.97474 0.0
O272 O 0.15015 0.57246 0.9512 0.0
C273 C 0.18554 0.55841 0.98153 0.0
C274 C 0.21601 0.59691 0.96249 0.0
C275 C 0.16076 0.5723 0.93934 0.0
O276 O 0.19353 0.56694 0.97053 0.0
O277 O 0.17079 0.56203 0.9864 0.0
O278 O 0.18188 0.61062 0.95053 0.0
O279 O 0.17026 0.59641 0.97065 0.0
Co280 Co 0.16115 0.93794 0.21171 0.0
O281 O 0.1498 0.95377 0.22548 0.0
O282 O 0.16195 0.95989 0.2014 0.0
C283 C 0.14137 0.91795 0.21251 0.0
O284 O 0.17335 0.92414 0.19416 0.0
Co285 Co 0.17162 0.90439 0.22835 0.0
O286 O 0.1774 0.89852 0.20503 0.0
C287 C 0.19122 0.9345 0.23498 0.0
C288 C 0.15328 0.96478 0.21422 0.0
C289 C 0.17823 0.90886 0.19297 0.0
O290 O 0.18294 0.94234 0.22368 0.0
O291 O 0.18744 0.91985 0.24002 0.0
O292 O 0.13994 0.93046 0.20235 0.0
O293 O 0.15337 0.91917 0.22318 0.0
Co294 Co 0.68448 0.91266 0.04033 0.0
O295 O 0.69937 0.90043 0.02631 0.0
O296 O 0.70679 0.91284 0.04988 0.0
C297 C 0.6638 0.89361 0.04045 0.0
O298 O 0.67169 0.92562 0.05811 0.0
Co299 Co 0.6509 0.92422 0.02451 0.0
O300 O 0.646 0.93079 0.04783 0.0
C301 C 0.68148 0.94268 0.01686 0.0
C302 C 0.71088 0.90366 0.03713 0.0
C303 C 0.65669 0.93126 0.05961 0.0
O304 O 0.68933 0.9341 0.02792 0.0
O305 O 0.66653 0.93948 0.01231 0.0
O306 O 0.67655 0.89191 0.05025 0.0
O307 O 0.66506 0.90542 0.02957 0.0
Co308 Co 0.34079 0.43805 0.7908 0.0
O309 O 0.35257 0.45338 0.77688 0.0
O310 O 0.34013 0.46022 0.80062 0.0
C311 C 0.36028 0.4178 0.79051 0.0
O312 O 0.32822 0.42481 0.80851 0.0
Co313 Co 0.32996 0.40428 0.77483 0.0
O314 O 0.32349 0.39909 0.79813 0.0
C315 C 0.311 0.43457 0.76722 0.0
C316 C 0.3491 0.46467 0.78785 0.0
C317 C 0.32287 0.40971 0.80996 0.0
O318 O 0.31921 0.44252 0.77849 0.0
O319 O 0.31465 0.41977 0.76254 0.0
O320 O 0.36178 0.43042 0.80051 0.0
O321 O 0.34835 0.41897 0.77976 0.0
Co322 Co 0.66373 0.06315 0.28972 0.0
O323 O 0.65709 0.04869 0.27187 0.0
O324 O 0.66333 0.04029 0.29748 0.0
C325 C 0.64332 0.08229 0.28631 0.0
O326 O 0.67056 0.07458 0.3114 0.0
Co327 Co 0.6746 0.0998 0.28276 0.0
O328 O 0.67012 0.10228 0.30692 0.0
C329 C 0.69878 0.07216 0.27812 0.0
C330 C 0.65829 0.03659 0.28252 0.0
C331 C 0.67077 0.08975 0.31663 0.0
O332 O 0.68795 0.06126 0.28278 0.0
O333 O 0.69567 0.08777 0.27682 0.0
O334 O 0.64045 0.0686 0.29441 0.0
O335 O 0.65769 0.08312 0.27909 0.0
Co336 Co 0.04302 0.80711 0.5926 0.0
O337 O 0.02866 0.79209 0.60425 0.0
O338 O 0.05248 0.78477 0.59225 0.0
C339 C 0.04291 0.82759 0.61189 0.0
O340 O 0.06116 0.81995 0.58026 0.0
Co341 Co 0.02777 0.84116 0.58146 0.0
O342 O 0.05125 0.84581 0.57521 0.0
C343 C 0.01958 0.8109 0.56277 0.0
C344 C 0.0395 0.78059 0.60104 0.0
C345 C 0.06291 0.835 0.57488 0.0
O346 O 0.03086 0.80281 0.57084 0.0
O347 O 0.01505 0.82572 0.56652 0.0
O348 O 0.05262 0.81476 0.6137 0.0
O349 O 0.03226 0.82642 0.59989 0.0
Co350 Co 0.93547 0.78921 0.84037 0.0
O351 O 0.95111 0.77475 0.85109 0.0
O352 O 0.95765 0.79895 0.83937 0.0
C353 C 0.91574 0.78866 0.86038 0.0
O354 O 0.92199 0.80733 0.82865 0.0
Co355 Co 0.90139 0.77362 0.83004 0.0
O356 O 0.8962 0.79705 0.82404 0.0
C357 C 0.93116 0.7662 0.81028 0.0
C358 C 0.96237 0.78573 0.84752 0.0
C359 C 0.90682 0.80889 0.82353 0.0
O360 O 0.93924 0.77744 0.81838 0.0
O361 O 0.91647 0.76143 0.81425 0.0
O362 O 0.92858 0.79841 0.86182 0.0
O363 O 0.9165 0.77814 0.84822 0.0
Co364 Co 0.96153 0.68688 0.08733 0.0
O365 O 0.97594 0.70208 0.09873 0.0
O366 O 0.95186 0.70913 0.08707 0.0
C367 C 0.96223 0.66656 0.10675 0.0
O368 O 0.94332 0.67386 0.07527 0.0
Co369 Co 0.9768 0.65298 0.07594 0.0
O370 O 0.95323 0.648 0.07028 0.0
C371 C 0.98422 0.68327 0.0569 0.0
C372 C 0.96493 0.71346 0.09566 0.0
C373 C 0.94152 0.65876 0.07001 0.0
O374 O 0.97323 0.69131 0.0654 0.0
O375 O 0.98884 0.66841 0.06039 0.0
O376 O 0.95239 0.67927 0.10858 0.0
O377 O 0.97263 0.66767 0.09451 0.0
Co378 Co 0.06243 0.71342 0.33933 0.0
O379 O 0.04723 0.72792 0.35063 0.0
O380 O 0.04025 0.70361 0.33943 0.0
C381 C 0.08295 0.71434 0.35856 0.0
O382 O 0.07541 0.69513 0.32738 0.0
Co383 Co 0.09614 0.72873 0.32745 0.0
O384 O 0.1011 0.70515 0.32183 0.0
C385 C 0.06568 0.73559 0.30844 0.0
C386 C 0.0359 0.71679 0.34784 0.0
C387 C 0.09041 0.69338 0.32186 0.0
O388 O 0.05776 0.72478 0.31727 0.0
O389 O 0.08056 0.74034 0.31171 0.0
O390 O 0.07024 0.70456 0.36062 0.0
O391 O 0.08171 0.72464 0.34625 0.0
Co392 Co 0.04013 0.18775 0.41327 0.0
O393 O 0.02557 0.20291 0.40198 0.0
O394 O 0.04945 0.21015 0.41388 0.0
C395 C 0.04005 0.1677 0.39351 0.0
O396 O 0.05836 0.17476 0.42542 0.0
Co397 Co 0.02491 0.15359 0.42393 0.0
O398 O 0.04835 0.1489 0.43027 0.0
C399 C 0.01713 0.18347 0.44345 0.0
C400 C 0.03634 0.21443 0.4053 0.0
C401 C 0.06004 0.15968 0.43078 0.0
O402 O 0.02811 0.19171 0.43514 0.0
O403 O 0.01263 0.16863 0.43969 0.0
O404 O 0.04966 0.18062 0.39203 0.0
O405 O 0.02943 0.16847 0.40559 0.0
Co406 Co 0.56362 0.78928 0.66202 0.0
O407 O 0.54807 0.77495 0.651 0.0
O408 O 0.54154 0.79923 0.66256 0.0
C409 C 0.58371 0.78841 0.64236 0.0
O410 O 0.57696 0.80743 0.67379 0.0
Co411 Co 0.59749 0.77378 0.67313 0.0
O412 O 0.60273 0.7973 0.67875 0.0
C413 C 0.5674 0.76682 0.69263 0.0
C414 C 0.53687 0.78611 0.65424 0.0
C415 C 0.59208 0.80911 0.679 0.0
O416 O 0.55938 0.77778 0.68408 0.0
O417 O 0.58218 0.76203 0.68905 0.0
O418 O 0.57098 0.79824 0.64063 0.0
O419 O 0.5827 0.77801 0.65462 0.0
Co420 Co 0.96247 0.31284 0.91071 0.0
O421 O 0.97752 0.29738 0.90058 0.0
O422 O 0.95288 0.2906 0.9112 0.0
C423 C 0.96356 0.3327 0.89083 0.0
O424 O 0.94374 0.32605 0.92167 0.0
Co425 Co 0.97721 0.34707 0.92178 0.0
O426 O 0.95347 0.35196 0.92674 0.0
C427 C 0.98421 0.3173 0.94171 0.0
C428 C 0.96647 0.28602 0.9036 0.0
C429 C 0.94177 0.34119 0.92671 0.0
O430 O 0.97334 0.30912 0.93319 0.0
O431 O 0.98898 0.33204 0.93794 0.0
O432 O 0.95408 0.31973 0.88892 0.0
O433 O 0.97362 0.33199 0.90339 0.0
Co434 Co 0.43725 0.70959 0.16139 0.0
O435 O 0.45259 0.72367 0.1498 0.0
O436 O 0.45944 0.69979 0.16198 0.0
C437 C 0.41703 0.70989 0.14187 0.0
O438 O 0.42404 0.69174 0.17379 0.0
Co439 Co 0.40349 0.72546 0.1723 0.0
O440 O 0.39833 0.70211 0.17863 0.0
C441 C 0.43375 0.73302 0.19129 0.0
C442 C 0.4639 0.71269 0.1532 0.0
C443 C 0.40894 0.69027 0.17915 0.0
O444 O 0.44167 0.72175 0.18305 0.0
O445 O 0.41895 0.73772 0.18767 0.0
O446 O 0.42973 0.7 0.14032 0.0
O447 O 0.41812 0.72061 0.15384 0.0
Co448 Co 0.09049 0.54065 0.8103 0.0
O449 O 0.10154 0.52599 0.79508 0.0
O450 O 0.09005 0.55013 0.788 0.0
C451 C 0.11018 0.5401 0.83039 0.0
O452 O 0.07878 0.55911 0.82327 0.0
Co453 Co 0.07945 0.52602 0.84458 0.0
O454 O 0.07455 0.54978 0.84945 0.0
C455 C 0.05999 0.51823 0.81464 0.0
C456 C 0.09844 0.53694 0.78366 0.0
C457 C 0.07408 0.56131 0.83849 0.0
O458 O 0.06843 0.52905 0.80632 0.0
O459 O 0.06363 0.51384 0.82953 0.0
O460 O 0.11192 0.54972 0.8175 0.0
O461 O 0.09787 0.52975 0.82957 0.0
Co462 Co 0.21186 0.83985 0.06342 0.0
O463 O 0.22592 0.85207 0.04854 0.0
O464 O 0.20215 0.83999 0.04119 0.0
C465 C 0.21215 0.85865 0.08434 0.0
O466 O 0.19395 0.82702 0.0761 0.0
Co467 Co 0.22734 0.82778 0.09698 0.0
O468 O 0.20385 0.82173 0.10188 0.0
C469 C 0.23503 0.80963 0.0662 0.0
C470 C 0.21496 0.84907 0.0371 0.0
C471 C 0.19217 0.82147 0.09108 0.0
O472 O 0.22403 0.81829 0.05834 0.0
O473 O 0.23952 0.81271 0.08119 0.0
O474 O 0.20223 0.86064 0.07171 0.0
O475 O 0.22284 0.84671 0.08283 0.0
Co476 Co 0.91284 0.9603 0.31472 0.0
O477 O 0.90129 0.97449 0.29944 0.0
O478 O 0.91282 0.95028 0.29263 0.0
C479 C 0.89367 0.96128 0.33525 0.0
O480 O 0.92508 0.94231 0.32791 0.0
Co481 Co 0.92466 0.97622 0.34815 0.0
O482 O 0.93039 0.95275 0.35349 0.0
C483 C 0.94326 0.98313 0.31749 0.0
C484 C 0.90424 0.96333 0.28819 0.0
C485 C 0.93054 0.94082 0.34297 0.0
O486 O 0.93469 0.97195 0.30981 0.0
O487 O 0.93997 0.98804 0.3323 0.0
O488 O 0.89169 0.95127 0.32271 0.0
O489 O 0.90587 0.97169 0.33383 0.0
Co490 Co 0.79128 0.66147 0.56261 0.0
O491 O 0.77609 0.65171 0.54708 0.0
O492 O 0.80075 0.66228 0.5403 0.0
C493 C 0.78997 0.64118 0.58204 0.0
O494 O 0.81014 0.67211 0.57593 0.0
Co495 Co 0.77674 0.67193 0.59713 0.0
O496 O 0.80049 0.6769 0.60192 0.0
C497 C 0.76963 0.69237 0.56771 0.0
C498 C 0.78706 0.65487 0.5357 0.0
C499 C 0.81216 0.67701 0.59111 0.0
O500 O 0.78051 0.68407 0.55935 0.0
O501 O 0.76488 0.68828 0.58237 0.0
O502 O 0.79952 0.63947 0.5691 0.0
O503 O 0.7801 0.65389 0.58159 0.0
Co504 Co 0.09109 0.46044 0.18652 0.0
O505 O 0.10295 0.4745 0.20166 0.0
O506 O 0.09039 0.4509 0.20879 0.0
C507 C 0.11054 0.46034 0.16622 0.0
O508 O 0.0785 0.44257 0.17358 0.0
Co509 Co 0.08017 0.47594 0.15259 0.0
O510 O 0.07373 0.45255 0.14772 0.0
C511 C 0.06116 0.48386 0.18274 0.0
C512 C 0.09944 0.46367 0.21308 0.0
C513 C 0.07315 0.44089 0.15852 0.0
O514 O 0.06951 0.47282 0.19086 0.0
O515 O 0.0647 0.48831 0.16785 0.0
O516 O 0.11205 0.45056 0.17902 0.0
O517 O 0.09866 0.47117 0.16724 0.0
Co518 Co 0.29276 0.8377 0.44045 0.0
O519 O 0.2788 0.84912 0.456 0.0
O520 O 0.30282 0.83701 0.46251 0.0
C521 C 0.292 0.85742 0.42045 0.0
O522 O 0.31059 0.82558 0.42699 0.0
Co523 Co 0.27687 0.827 0.40662 0.0
O524 O 0.30028 0.82112 0.4012 0.0
C525 C 0.26951 0.80774 0.43679 0.0
C526 C 0.28997 0.84578 0.46714 0.0
C527 C 0.31213 0.82054 0.4118 0.0
O528 O 0.28079 0.81589 0.44477 0.0
O529 O 0.26473 0.81153 0.42205 0.0
O530 O 0.30208 0.85892 0.43301 0.0
O531 O 0.28146 0.8453 0.42153 0.0
Co532 Co 0.91084 0.03886 0.68758 0.0
O533 O 0.89967 0.02461 0.70307 0.0
O534 O 0.91466 0.04675 0.71018 0.0
C535 C 0.88935 0.04196 0.66979 0.0
O536 O 0.92345 0.05661 0.67442 0.0
Co537 Co 0.91623 0.02549 0.65149 0.0
O538 O 0.92419 0.04854 0.64749 0.0
C539 C 0.93756 0.01324 0.67869 0.0
C540 C 0.90529 0.03429 0.71468 0.0
C541 C 0.92711 0.05915 0.65897 0.0
O542 O 0.93148 0.02431 0.6886 0.0
O543 O 0.93184 0.01059 0.66403 0.0
O544 O 0.89024 0.05104 0.68314 0.0
O545 O 0.90016 0.0301 0.66875 0.0
Co546 Co 0.71227 0.66163 0.93775 0.0
O547 O 0.72704 0.65105 0.95322 0.0
O548 O 0.70247 0.66186 0.95991 0.0
C549 C 0.71351 0.64192 0.9177 0.0
O550 O 0.69374 0.67291 0.9245 0.0
Co551 Co 0.72732 0.673 0.90377 0.0
O552 O 0.70364 0.67802 0.89868 0.0
C553 C 0.73383 0.69286 0.93374 0.0
C554 C 0.71587 0.65394 0.96449 0.0
C555 C 0.69187 0.67805 0.90938 0.0
O556 O 0.72319 0.68401 0.94187 0.0
O557 O 0.73864 0.68935 0.91894 0.0
O558 O 0.70382 0.63998 0.9305 0.0
O559 O 0.7236 0.65445 0.91862 0.0
Co560 Co 0.31299 0.58883 0.53963 0.0
O561 O 0.29796 0.60027 0.52509 0.0
O562 O 0.29064 0.58857 0.54905 0.0
C563 C 0.33335 0.60822 0.53925 0.0
O564 O 0.32582 0.57674 0.55795 0.0
Co565 Co 0.347 0.57741 0.52463 0.0
O566 O 0.35175 0.57173 0.54824 0.0
C567 C 0.31682 0.55827 0.51707 0.0
C568 C 0.28646 0.59719 0.53596 0.0
C569 C 0.34089 0.57146 0.55986 0.0
O570 O 0.30867 0.56689 0.52788 0.0
O571 O 0.33173 0.5617 0.51258 0.0
O572 O 0.3205 0.61006 0.5489 0.0
O573 O 0.33235 0.59603 0.52878 0.0
Co574 Co 0.81219 0.41142 0.95824 0.0
O575 O 0.79748 0.39894 0.9722 0.0
O576 O 0.78985 0.41147 0.94875 0.0
C577 C 0.83299 0.39251 0.95802 0.0
O578 O 0.82477 0.42458 0.94048 0.0
Co579 Co 0.84589 0.42303 0.97379 0.0
O580 O 0.85058 0.42971 0.95044 0.0
C581 C 0.81519 0.441 0.98214 0.0
C582 C 0.78592 0.40209 0.9614 0.0
C583 C 0.83974 0.43022 0.93881 0.0
O584 O 0.80727 0.43272 0.97089 0.0
O585 O 0.83016 0.4377 0.98652 0.0
O586 O 0.82029 0.39078 0.94815 0.0
O587 O 0.83164 0.40429 0.96891 0.0
Co588 Co 0.33625 0.56252 0.20999 0.0
O589 O 0.34684 0.54719 0.22488 0.0
O590 O 0.33587 0.54022 0.20046 0.0
C591 C 0.35609 0.58243 0.21093 0.0
O592 O 0.32491 0.57563 0.19135 0.0
Co593 Co 0.32521 0.59679 0.22468 0.0
O594 O 0.32 0.6016 0.20099 0.0
C595 C 0.30526 0.56699 0.23178 0.0
C596 C 0.34388 0.53579 0.21386 0.0
C597 C 0.31983 0.59076 0.18935 0.0
O598 O 0.31393 0.55866 0.22114 0.0
O599 O 0.30893 0.58183 0.23634 0.0
O600 O 0.35789 0.56954 0.20133 0.0
O601 O 0.3436 0.58171 0.22106 0.0
Co602 Co 0.18614 0.08586 0.46289 0.0
O603 O 0.20157 0.09473 0.47882 0.0
O604 O 0.20859 0.08523 0.45382 0.0
C605 C 0.16707 0.10657 0.46468 0.0
O606 O 0.17315 0.07632 0.44314 0.0
Co607 Co 0.15057 0.07591 0.47532 0.0
O608 O 0.14643 0.07286 0.45122 0.0
C609 C 0.17866 0.05248 0.47985 0.0
C610 C 0.21307 0.0921 0.46781 0.0
C611 C 0.15783 0.07241 0.44016 0.0
O612 O 0.18877 0.06262 0.47257 0.0
O613 O 0.16335 0.05586 0.48281 0.0
O614 O 0.18028 0.10834 0.45554 0.0
O615 O 0.16694 0.09341 0.47397 0.0
Co616 Co 0.1646 0.43877 0.70995 0.0
O617 O 0.1544 0.45437 0.7248 0.0
O618 O 0.16527 0.46098 0.70023 0.0
C619 C 0.14449 0.41913 0.7111 0.0
O620 O 0.17569 0.4253 0.69144 0.0
Co621 Co 0.17521 0.40459 0.72517 0.0
O622 O 0.18062 0.39951 0.70158 0.0
C623 C 0.19533 0.43428 0.73203 0.0
C624 C 0.15756 0.46566 0.71372 0.0
C625 C 0.1808 0.41014 0.68974 0.0
O626 O 0.18698 0.44242 0.72101 0.0
O627 O 0.19138 0.41962 0.73693 0.0
O628 O 0.14282 0.43198 0.70142 0.0
O629 O 0.15701 0.4198 0.72122 0.0
Co630 Co 0.68799 0.4127 0.53822 0.0
O631 O 0.70321 0.40271 0.52283 0.0
O632 O 0.71032 0.4125 0.54769 0.0
C633 C 0.66792 0.39306 0.53663 0.0
O634 O 0.67495 0.42338 0.55729 0.0
Co635 Co 0.6538 0.42445 0.52382 0.0
O636 O 0.64908 0.42893 0.54767 0.0
C637 C 0.6838 0.44419 0.51721 0.0
C638 C 0.71468 0.40515 0.5339 0.0
C639 C 0.65986 0.42856 0.55937 0.0
O640 O 0.69194 0.43541 0.5279 0.0
O641 O 0.66904 0.44062 0.51236 0.0
O642 O 0.68084 0.39077 0.54607 0.0
O643 O 0.66875 0.40589 0.52694 0.0
Co644 Co 0.33742 0.93902 0.29244 0.0
O645 O 0.3486 0.95472 0.27844 0.0
O646 O 0.33649 0.96105 0.30251 0.0
C647 C 0.35729 0.91914 0.29167 0.0
O648 O 0.32551 0.92548 0.31029 0.0
Co649 Co 0.32687 0.90516 0.27655 0.0
O650 O 0.32106 0.89969 0.29997 0.0
C651 C 0.30718 0.93512 0.26948 0.0
C652 C 0.34512 0.96581 0.28962 0.0
C653 C 0.32053 0.91028 0.31183 0.0
O654 O 0.3155 0.94317 0.2806 0.0
O655 O 0.31098 0.92039 0.26468 0.0
O656 O 0.35874 0.93176 0.30169 0.0
O657 O 0.34515 0.92013 0.28113 0.0
Co658 Co 0.66126 0.56146 0.79077 0.0
O659 O 0.64924 0.54658 0.77654 0.0
O660 O 0.66129 0.53913 0.80028 0.0
C661 C 0.64221 0.58215 0.79055 0.0
O662 O 0.67396 0.57419 0.80878 0.0
Co663 Co 0.673 0.59516 0.77533 0.0
O664 O 0.67922 0.59996 0.79878 0.0
C665 C 0.6914 0.56456 0.76757 0.0
C666 C 0.65232 0.53505 0.78738 0.0
C667 C 0.67955 0.58918 0.81048 0.0
O668 O 0.68286 0.55665 0.77862 0.0
O669 O 0.68815 0.57951 0.76306 0.0
O670 O 0.64034 0.56944 0.80038 0.0
O671 O 0.65422 0.58085 0.7799 0.0
Co672 Co 0.54009 0.31223 0.58635 0.0
O673 O 0.52554 0.29664 0.59701 0.0
O674 O 0.54998 0.29009 0.58583 0.0
C675 C 0.53892 0.33212 0.60621 0.0
O676 O 0.55842 0.32564 0.57492 0.0
Co677 Co 0.52472 0.34621 0.57539 0.0
O678 O 0.54832 0.35146 0.57012 0.0
C679 C 0.51803 0.3163 0.5555 0.0
C680 C 0.53671 0.28543 0.59391 0.0
C681 C 0.56014 0.34081 0.56986 0.0
O682 O 0.52889 0.30819 0.56409 0.0
O683 O 0.51319 0.33105 0.55918 0.0
O684 O 0.54877 0.3194 0.60794 0.0
O685 O 0.52873 0.33122 0.59377 0.0
Co686 Co 0.4391 0.28809 0.83698 0.0
O687 O 0.45431 0.27355 0.84816 0.0
O688 O 0.46126 0.29791 0.83704 0.0
C689 C 0.41875 0.28719 0.85638 0.0
O690 O 0.42607 0.30643 0.82518 0.0
Co691 Co 0.40525 0.27291 0.82535 0.0
O692 O 0.40028 0.29652 0.81988 0.0
C693 C 0.43559 0.2658 0.80626 0.0
C694 C 0.46562 0.28473 0.84543 0.0
C695 C 0.41102 0.30826 0.81985 0.0
O696 O 0.4436 0.27671 0.81489 0.0
O697 O 0.42075 0.26109 0.80968 0.0
O698 O 0.4315 0.29694 0.85833 0.0
O699 O 0.41985 0.2769 0.84403 0.0
Co700 Co 0.46122 0.1853 0.08977 0.0
O701 O 0.4754 0.20058 0.10133 0.0
O702 O 0.45243 0.20779 0.08768 0.0
C703 C 0.45989 0.16606 0.11026 0.0
O704 O 0.4433 0.17233 0.07718 0.0
Co705 Co 0.4754 0.15 0.08149 0.0
O706 O 0.45214 0.14577 0.07433 0.0
C707 C 0.48591 0.17893 0.06155 0.0
C708 C 0.46506 0.21214 0.0969 0.0
C709 C 0.44107 0.15707 0.07264 0.0
O710 O 0.4747 0.18806 0.06855 0.0
O711 O 0.48932 0.1641 0.06635 0.0
O712 O 0.45037 0.17913 0.11075 0.0
O713 O 0.47104 0.16616 0.09869 0.0
Co714 Co 0.56034 0.20883 0.33656 0.0
O715 O 0.54497 0.22341 0.34746 0.0
O716 O 0.53802 0.19935 0.33571 0.0
C717 C 0.58002 0.20949 0.35666 0.0
O718 O 0.57357 0.19048 0.32489 0.0
Co719 Co 0.5947 0.22385 0.32625 0.0
O720 O 0.59959 0.20027 0.32059 0.0
C721 C 0.56503 0.23157 0.30632 0.0
C722 C 0.53358 0.2125 0.34413 0.0
C723 C 0.58877 0.18862 0.31998 0.0
O724 O 0.55667 0.22057 0.31449 0.0
O725 O 0.5798 0.23609 0.31032 0.0
O726 O 0.56723 0.19969 0.35807 0.0
O727 O 0.57939 0.21981 0.34433 0.0
Co728 Co 0.53909 0.69078 0.41326 0.0
O729 O 0.52492 0.70617 0.40182 0.0
O730 O 0.54915 0.71285 0.41335 0.0
C731 C 0.53808 0.6704 0.39394 0.0
O732 O 0.5571 0.6775 0.42537 0.0
Co733 Co 0.52325 0.65718 0.42479 0.0
O734 O 0.5467 0.65188 0.43062 0.0
C735 C 0.51636 0.68768 0.44369 0.0
C736 C 0.53614 0.71736 0.40477 0.0
C737 C 0.55861 0.66243 0.43079 0.0
O738 O 0.52749 0.69549 0.43517 0.0
O739 O 0.51146 0.6729 0.44024 0.0
O740 O 0.54809 0.68296 0.39204 0.0
O741 O 0.52769 0.67172 0.40616 0.0
Co742 Co 0.06269 0.29221 0.66192 0.0
O743 O 0.04738 0.2781 0.65036 0.0
O744 O 0.04049 0.30202 0.66244 0.0
C745 C 0.08293 0.29165 0.64244 0.0
O746 O 0.07594 0.31009 0.67425 0.0
Co747 Co 0.09644 0.27629 0.67293 0.0
O748 O 0.10162 0.29966 0.67917 0.0
C749 C 0.06615 0.26896 0.69195 0.0
C750 C 0.03606 0.28909 0.65368 0.0
C751 C 0.09103 0.31154 0.67962 0.0
O752 O 0.05823 0.28021 0.68367 0.0
O753 O 0.08091 0.26417 0.68831 0.0
O754 O 0.0703 0.30163 0.64079 0.0
O755 O 0.08175 0.28106 0.65451 0.0
Co756 Co 0.46111 0.81312 0.91217 0.0
O757 O 0.47565 0.79746 0.90162 0.0
O758 O 0.45104 0.79106 0.91254 0.0
C759 C 0.46272 0.83305 0.8924 0.0
O760 O 0.44274 0.82669 0.92337 0.0
Co761 Co 0.47663 0.84697 0.9234 0.0
O762 O 0.453 0.85243 0.92827 0.0
C763 C 0.48283 0.81695 0.94328 0.0
C764 C 0.46435 0.78633 0.90455 0.0
C765 C 0.44108 0.84189 0.92835 0.0
O766 O 0.47199 0.80895 0.93457 0.0
O767 O 0.48785 0.83165 0.93967 0.0
O768 O 0.45279 0.82042 0.89049 0.0
O769 O 0.47273 0.83203 0.90497 0.0
Co770 Co 0.94389 0.20994 0.16062 0.0
O771 O 0.95925 0.22431 0.14943 0.0
O772 O 0.96605 0.20011 0.16102 0.0
C773 C 0.92367 0.21075 0.14107 0.0
O774 O 0.93073 0.19173 0.17245 0.0
Co775 Co 0.90993 0.22528 0.17175 0.0
O776 O 0.90487 0.2017 0.17729 0.0
C777 C 0.94002 0.23248 0.19118 0.0
C778 C 0.97053 0.21319 0.15253 0.0
C779 C 0.9156 0.18995 0.17756 0.0
O780 O 0.94815 0.22153 0.18269 0.0
O781 O 0.92522 0.23717 0.18752 0.0
O782 O 0.93636 0.20089 0.13926 0.0
O783 O 0.9248 0.22113 0.15332 0.0
Co784 Co 0.59057 0.04377 0.80908 0.0
O785 O 0.60259 0.02992 0.79388 0.0
O786 O 0.58933 0.05312 0.78673 0.0
C787 C 0.61043 0.04432 0.82905 0.0
O788 O 0.57757 0.06133 0.82202 0.0
Co789 Co 0.58073 0.02826 0.84334 0.0
O790 O 0.57302 0.05132 0.84791 0.0
C791 C 0.56141 0.01955 0.81354 0.0
C792 C 0.59863 0.04054 0.78242 0.0
C793 C 0.57199 0.06286 0.83701 0.0
O794 O 0.56928 0.03075 0.80515 0.0
O795 O 0.56539 0.01534 0.8284 0.0
O796 O 0.61139 0.05425 0.81631 0.0
O797 O 0.59875 0.03328 0.82824 0.0
Co798 Co 0.71032 0.3427 0.06182 0.0
O799 O 0.72351 0.35516 0.04641 0.0
O800 O 0.70239 0.33882 0.0392 0.0
C801 C 0.70641 0.36368 0.08005 0.0
O802 O 0.6935 0.32887 0.07495 0.0
Co803 Co 0.72444 0.33739 0.09764 0.0
O804 O 0.70178 0.32847 0.10183 0.0
C805 C 0.7371 0.31682 0.07002 0.0
C806 C 0.71398 0.3493 0.0348 0.0
C807 C 0.69125 0.32507 0.09041 0.0
O808 O 0.72591 0.32284 0.06019 0.0
O809 O 0.7396 0.32233 0.08478 0.0
O810 O 0.69708 0.3625 0.06688 0.0
O811 O 0.71881 0.35346 0.08069 0.0
Co812 Co 0.41134 0.46268 0.31192 0.0
O813 O 0.40027 0.47712 0.29648 0.0
O814 O 0.41158 0.45277 0.2898 0.0
C815 C 0.3918 0.46366 0.33212 0.0
O816 O 0.42314 0.44447 0.32518 0.0
Co817 Co 0.42262 0.47814 0.34578 0.0
O818 O 0.4283 0.45462 0.35091 0.0
C819 C 0.44192 0.48513 0.31556 0.0
C820 C 0.40326 0.46594 0.28525 0.0
C821 C 0.42846 0.44279 0.34026 0.0
O822 O 0.43342 0.4741 0.30757 0.0
O823 O 0.43832 0.48995 0.33033 0.0
O824 O 0.38994 0.45381 0.31942 0.0
O825 O 0.40411 0.47398 0.33101 0.0
Co826 Co 0.28859 0.16099 0.56339 0.0
O827 O 0.27423 0.1492 0.54847 0.0
O828 O 0.29793 0.1613 0.54099 0.0
C829 C 0.28882 0.14155 0.58373 0.0
O830 O 0.30663 0.17361 0.5762 0.0
Co831 Co 0.27319 0.17191 0.59739 0.0
O832 O 0.29665 0.17818 0.6021 0.0
C833 C 0.26524 0.19095 0.56723 0.0
C834 C 0.28499 0.15239 0.53691 0.0
C835 C 0.30831 0.17889 0.5913 0.0
O836 O 0.27627 0.18261 0.55908 0.0
O837 O 0.26081 0.18738 0.58213 0.0
O838 O 0.29846 0.14001 0.57084 0.0
O839 O 0.27801 0.15345 0.58277 0.0
Co840 Co 0.58537 0.96284 0.18795 0.0
O841 O 0.59605 0.97799 0.20293 0.0
O842 O 0.58573 0.95339 0.21026 0.0
C843 C 0.60477 0.96388 0.16761 0.0
O844 O 0.57402 0.94395 0.17527 0.0
Co845 Co 0.57334 0.97713 0.15388 0.0
O846 O 0.56822 0.95335 0.14939 0.0
C847 C 0.55422 0.98443 0.18416 0.0
C848 C 0.59361 0.96694 0.21443 0.0
C849 C 0.56854 0.94179 0.16031 0.0
O850 O 0.56301 0.97373 0.19227 0.0
O851 O 0.55755 0.98899 0.16924 0.0
O852 O 0.60695 0.95441 0.18053 0.0
O853 O 0.59215 0.97387 0.1685 0.0
Co854 Co 0.78909 0.33729 0.43679 0.0
O855 O 0.77439 0.3482 0.45207 0.0
O856 O 0.79804 0.33582 0.45929 0.0
C857 C 0.78941 0.35781 0.41752 0.0
O858 O 0.80755 0.32549 0.42377 0.0
Co859 Co 0.77512 0.32829 0.40158 0.0
O860 O 0.79871 0.3224 0.39724 0.0
C861 C 0.76639 0.30729 0.4304 0.0
C862 C 0.78499 0.34445 0.46363 0.0
C863 C 0.8099 0.32111 0.40847 0.0
O864 O 0.77672 0.31542 0.43965 0.0
O865 O 0.76281 0.31163 0.41546 0.0
O866 O 0.79893 0.35874 0.43056 0.0
O867 O 0.77879 0.34574 0.41766 0.0
Co868 Co 0.41232 0.53971 0.68847 0.0
O869 O 0.40054 0.52542 0.70348 0.0
O870 O 0.41252 0.54927 0.71076 0.0
C871 C 0.39309 0.53939 0.66795 0.0
O872 O 0.42474 0.55784 0.6757 0.0
Co873 Co 0.42391 0.52457 0.65461 0.0
O874 O 0.42977 0.54812 0.6498 0.0
C875 C 0.44265 0.51679 0.685 0.0
C876 C 0.40365 0.53634 0.71493 0.0
C877 C 0.43009 0.55974 0.66066 0.0
O878 O 0.43408 0.52771 0.69307 0.0
O879 O 0.43932 0.51235 0.67005 0.0
O880 O 0.39127 0.54918 0.6807 0.0
O881 O 0.40519 0.52882 0.66911 0.0
Co882 Co 0.21016 0.16133 0.93762 0.0
O883 O 0.22406 0.14942 0.95285 0.0
O884 O 0.20063 0.16233 0.9599 0.0
C885 C 0.20976 0.14167 0.91755 0.0
O886 O 0.19249 0.1741 0.92455 0.0
Co887 Co 0.22585 0.17166 0.9036 0.0
O888 O 0.2026 0.17855 0.89868 0.0
C889 C 0.23397 0.1909 0.93357 0.0
C890 C 0.21328 0.15314 0.96425 0.0
C891 C 0.19093 0.17942 0.90946 0.0
O892 O 0.22285 0.18274 0.94176 0.0
O893 O 0.23838 0.18716 0.9187 0.0
O894 O 0.19996 0.14048 0.93035 0.0
O895 O 0.22078 0.15339 0.91842 0.0
Co896 Co 0.81109 0.09263 0.54074 0.0
O897 O 0.79614 0.10359 0.52569 0.0
O898 O 0.78876 0.09274 0.55005 0.0
C899 C 0.83137 0.11211 0.53975 0.0
O900 O 0.82346 0.08121 0.55973 0.0
Co901 Co 0.84591 0.08093 0.52806 0.0
O902 O 0.85055 0.07991 0.55239 0.0
C903 C 0.81596 0.06129 0.51975 0.0
C904 C 0.78465 0.10102 0.53673 0.0
C905 C 0.83894 0.0787 0.56316 0.0
O906 O 0.80706 0.07032 0.52961 0.0
O907 O 0.83121 0.06445 0.51626 0.0
O908 O 0.81848 0.11422 0.54929 0.0
O909 O 0.83061 0.0994 0.52991 0.0
Co910 Co 0.31154 0.91253 0.95913 0.0
O911 O 0.29647 0.90073 0.97331 0.0
O912 O 0.28917 0.91314 0.9497 0.0
C913 C 0.33185 0.89308 0.95902 0.0
O914 O 0.32452 0.92511 0.94121 0.0
Co915 Co 0.34544 0.9234 0.97476 0.0
O916 O 0.35034 0.92978 0.95138 0.0
C917 C 0.31525 0.94233 0.98271 0.0
C918 C 0.28496 0.90418 0.96256 0.0
C919 C 0.33963 0.9304 0.93964 0.0
O920 O 0.30721 0.93412 0.9715 0.0
O921 O 0.3301 0.93868 0.98725 0.0
O922 O 0.31903 0.89155 0.94926 0.0
O923 O 0.33081 0.90496 0.96983 0.0
Co924 Co 0.84173 0.06398 0.21397 0.0
O925 O 0.85385 0.04881 0.22782 0.0
O926 O 0.83968 0.04145 0.20523 0.0
C927 C 0.86199 0.08342 0.21225 0.0
O928 O 0.82854 0.07678 0.19635 0.0
Co929 Co 0.83333 0.09921 0.22818 0.0
O930 O 0.82631 0.10347 0.20488 0.0
C931 C 0.81416 0.07003 0.23944 0.0
C932 C 0.8493 0.0372 0.21759 0.0
C933 C 0.82424 0.0921 0.19396 0.0
O934 O 0.82092 0.06097 0.22803 0.0
O935 O 0.8188 0.08497 0.24261 0.0
O936 O 0.86238 0.07041 0.20263 0.0
O937 O 0.85063 0.0832 0.22361 0.0
Co938 Co 0.68717 0.59086 0.46267 0.0
O939 O 0.70262 0.60258 0.47652 0.0
O940 O 0.7093 0.58997 0.45282 0.0
C941 C 0.66705 0.61053 0.46273 0.0
O942 O 0.67389 0.57834 0.44501 0.0
Co943 Co 0.65329 0.58035 0.47855 0.0
O944 O 0.64808 0.57389 0.45525 0.0
C945 C 0.68338 0.56109 0.48625 0.0
C946 C 0.71386 0.59898 0.46552 0.0
C947 C 0.65876 0.57316 0.44348 0.0
O948 O 0.69145 0.5693 0.47508 0.0
O949 O 0.66856 0.5648 0.49083 0.0
O950 O 0.67976 0.61185 0.45282 0.0
O951 O 0.66807 0.59869 0.4736 0.0
Co952 Co 0.66097 0.93916 0.71021 0.0
O953 O 0.64889 0.9545 0.72387 0.0
O954 O 0.66146 0.96124 0.70018 0.0
C955 C 0.64171 0.91869 0.71046 0.0
O956 O 0.67378 0.92594 0.6927 0.0
Co957 Co 0.67209 0.90565 0.7265 0.0
O958 O 0.67865 0.90032 0.70325 0.0
C959 C 0.69092 0.93611 0.73373 0.0
C960 C 0.65225 0.9657 0.71277 0.0
C961 C 0.67924 0.91087 0.69137 0.0
O962 O 0.68247 0.94396 0.72256 0.0
O963 O 0.68748 0.92128 0.73848 0.0
O964 O 0.64014 0.93127 0.70041 0.0
O965 O 0.65352 0.92004 0.72132 0.0
Co966 Co 0.18978 0.90872 0.5402 0.0
O967 O 0.20477 0.89597 0.52678 0.0
O968 O 0.21234 0.91079 0.54887 0.0
C969 C 0.17014 0.88866 0.54251 0.0
O970 O 0.17713 0.92258 0.55734 0.0
Co971 Co 0.15469 0.91696 0.52549 0.0
O972 O 0.15067 0.92564 0.54827 0.0
C973 C 0.18399 0.93586 0.51412 0.0
C974 C 0.21643 0.90063 0.5369 0.0
C975 C 0.162 0.92766 0.55925 0.0
O976 O 0.19301 0.92915 0.5256 0.0
O977 O 0.16906 0.93121 0.51092 0.0
O978 O 0.18313 0.88848 0.55216 0.0
O979 O 0.17047 0.89967 0.53081 0.0
Co980 Co 0.83801 0.43642 0.28778 0.0
O981 O 0.84803 0.45152 0.27229 0.0
O982 O 0.83764 0.45891 0.29684 0.0
C983 C 0.85797 0.41658 0.28697 0.0
O984 O 0.82716 0.42363 0.30688 0.0
Co985 Co 0.82697 0.40188 0.27372 0.0
O986 O 0.82174 0.39764 0.29751 0.0
C987 C 0.80681 0.43143 0.26639 0.0
C988 C 0.84513 0.46315 0.28308 0.0
C989 C 0.82188 0.4086 0.30904 0.0
O990 O 0.81542 0.43986 0.27699 0.0
O991 O 0.81061 0.41662 0.26184 0.0
O992 O 0.85989 0.42973 0.29618 0.0
O993 O 0.84533 0.41705 0.27701 0.0
Co994 Co 0.16281 0.06511 0.78597 0.0
O995 O 0.15175 0.05057 0.77065 0.0
O996 O 0.16223 0.04262 0.79498 0.0
C997 C 0.14369 0.08573 0.78538 0.0
O998 O 0.17435 0.07729 0.80506 0.0
Co999 Co 0.17525 0.09937 0.77249 0.0
O1000 O 0.17962 0.10353 0.79647 0.0
C1001 C 0.19418 0.06906 0.76469 0.0
C1002 C 0.15405 0.03884 0.78149 0.0
C1003 C 0.17944 0.0923 0.80774 0.0
O1004 O 0.1851 0.06072 0.77496 0.0
O1005 O 0.19114 0.08417 0.76057 0.0
O1006 O 0.14137 0.07265 0.7946 0.0
O1007 O 0.15626 0.08488 0.77535 0.0
Co1008 Co 0.53648 0.81307 0.09027 0.0
O1009 O 0.52271 0.79725 0.10162 0.0
O1010 O 0.54669 0.79111 0.08927 0.0
C1011 C 0.53588 0.83299 0.1101 0.0
O1012 O 0.55407 0.82677 0.07807 0.0
Co1013 Co 0.5202 0.84683 0.07995 0.0
O1014 O 0.54348 0.85248 0.07379 0.0
C1015 C 0.51305 0.81681 0.06039 0.0
C1016 C 0.53391 0.78622 0.09799 0.0
C1017 C 0.55542 0.84199 0.07304 0.0
O1018 O 0.52435 0.80884 0.06854 0.0
O1019 O 0.5082 0.83151 0.06426 0.0
O1020 O 0.54598 0.82043 0.11145 0.0
O1021 O 0.52515 0.83188 0.09814 0.0
Co1022 Co 0.43918 0.79083 0.33732 0.0
O1023 O 0.4548 0.7765 0.34824 0.0
O1024 O 0.46124 0.80088 0.33686 0.0
C1025 C 0.41921 0.78963 0.35708 0.0
O1026 O 0.42567 0.809 0.32572 0.0
Co1027 Co 0.40532 0.77517 0.32633 0.0
O1028 O 0.39995 0.79868 0.32085 0.0
C1029 C 0.43542 0.76835 0.30677 0.0
C1030 C 0.46594 0.78774 0.34516 0.0
C1031 C 0.4105 0.81058 0.32062 0.0
O1032 O 0.4434 0.77946 0.31518 0.0
O1033 O 0.42071 0.76344 0.3105 0.0
O1034 O 0.43183 0.7996 0.35881 0.0
O1035 O 0.42024 0.77938 0.34471 0.0
Co1036 Co 0.46084 0.68875 0.59016 0.0
O1037 O 0.47518 0.7041 0.60143 0.0
O1038 O 0.45083 0.71083 0.59013 0.0
C1039 C 0.46194 0.6683 0.60942 0.0
O1040 O 0.44269 0.67556 0.5782 0.0
Co1041 Co 0.47646 0.65517 0.57835 0.0
O1042 O 0.45293 0.64992 0.57282 0.0
C1043 C 0.48328 0.68572 0.5595 0.0
C1044 C 0.46399 0.71534 0.59848 0.0
C1045 C 0.44105 0.66051 0.57278 0.0
O1046 O 0.47224 0.69349 0.56817 0.0
O1047 O 0.48816 0.67089 0.56281 0.0
O1048 O 0.45201 0.68091 0.61145 0.0
O1049 O 0.47224 0.66962 0.59712 0.0
Co1050 Co 0.56284 0.71109 0.83935 0.0
O1051 O 0.54794 0.72567 0.85091 0.0
O1052 O 0.5405 0.70167 0.83934 0.0
C1053 C 0.58339 0.71148 0.85853 0.0
O1054 O 0.57552 0.69272 0.8272 0.0
Co1055 Co 0.5968 0.72596 0.82759 0.0
O1056 O 0.60144 0.70232 0.82198 0.0
C1057 C 0.56644 0.73361 0.80876 0.0
C1058 C 0.53641 0.71477 0.848 0.0
C1059 C 0.59055 0.69073 0.82183 0.0
O1060 O 0.55833 0.72281 0.81744 0.0
O1061 O 0.58139 0.73807 0.81207 0.0
O1062 O 0.57055 0.70185 0.86052 0.0
O1063 O 0.58228 0.72193 0.84633 0.0
Co1064 Co 0.53463 0.18509 0.91095 0.0
O1065 O 0.51951 0.20186 0.90327 0.0
O1066 O 0.54464 0.20697 0.91364 0.0
C1067 C 0.53246 0.16796 0.88869 0.0
O1068 O 0.55368 0.17054 0.91958 0.0
Co1069 Co 0.52088 0.14921 0.91751 0.0
O1070 O 0.54482 0.14387 0.92012 0.0
C1071 C 0.51685 0.17534 0.94322 0.0
C1072 C 0.53098 0.2126 0.90697 0.0
C1073 C 0.5562 0.15483 0.9219 0.0
O1074 O 0.52471 0.18604 0.93419 0.0
O1075 O 0.51331 0.16057 0.93835 0.0
O1076 O 0.54211 0.18092 0.88816 0.0
O1077 O 0.52294 0.16709 0.90164 0.0
Co1078 Co 0.06302 0.78932 0.16127 0.0
O1079 O 0.04825 0.77473 0.14954 0.0
O1080 O 0.04067 0.79876 0.16096 0.0
C1081 C 0.08382 0.78879 0.14235 0.0
O1082 O 0.07555 0.8077 0.17359 0.0
Co1083 Co 0.09677 0.77442 0.17356 0.0
O1084 O 0.10135 0.79805 0.17931 0.0
C1085 C 0.06614 0.76696 0.19204 0.0
C1086 C 0.03669 0.78563 0.15229 0.0
C1087 C 0.09047 0.80966 0.17926 0.0
O1088 O 0.05817 0.77769 0.18315 0.0
O1089 O 0.08115 0.76248 0.189 0.0
O1090 O 0.07103 0.79847 0.14018 0.0
O1091 O 0.08254 0.77841 0.15459 0.0
Co1092 Co 0.4612 0.31304 0.40937 0.0
O1093 O 0.47516 0.29801 0.39723 0.0
O1094 O 0.45159 0.29076 0.40974 0.0
C1095 C 0.46105 0.33358 0.39017 0.0
O1096 O 0.44344 0.32591 0.42224 0.0
Co1097 Co 0.47692 0.34679 0.42058 0.0
O1098 O 0.4536 0.35167 0.42721 0.0
C1099 C 0.48471 0.31639 0.43929 0.0
C1100 C 0.46428 0.28657 0.40053 0.0
C1101 C 0.44188 0.34093 0.42777 0.0
O1102 O 0.47365 0.30838 0.43084 0.0
O1103 O 0.48921 0.33131 0.4359 0.0
O1104 O 0.45123 0.32083 0.38857 0.0
O1105 O 0.47195 0.33239 0.40196 0.0
Co1106 Co 0.93914 0.70762 0.66425 0.0
O1107 O 0.95515 0.72225 0.65438 0.0
O1108 O 0.9612 0.6976 0.66539 0.0
C1109 C 0.9199 0.70907 0.6438 0.0
O1110 O 0.92519 0.68929 0.67505 0.0
Co1111 Co 0.90491 0.72327 0.67412 0.0
O1112 O 0.8994 0.69972 0.67933 0.0
C1113 C 0.9343 0.72993 0.69472 0.0
C1114 C 0.96623 0.71103 0.65779 0.0
C1115 C 0.90989 0.68776 0.67975 0.0
O1116 O 0.94246 0.71868 0.68669 0.0
O1117 O 0.91982 0.73502 0.69038 0.0
O1118 O 0.93262 0.69918 0.64233 0.0
O1119 O 0.92052 0.71916 0.65632 0.0
Co1120 Co 0.58785 0.54222 0.3146 0.0
O1121 O 0.59955 0.52801 0.2995 0.0
O1122 O 0.58751 0.55192 0.2924 0.0
C1123 C 0.60716 0.54182 0.335 0.0
O1124 O 0.57546 0.56024 0.3275 0.0
Co1125 Co 0.57637 0.52688 0.34839 0.0
O1126 O 0.57043 0.55038 0.35335 0.0
C1127 C 0.55761 0.51923 0.31799 0.0
C1128 C 0.59634 0.53899 0.28812 0.0
C1129 C 0.5701 0.56205 0.34255 0.0
O1130 O 0.56615 0.53022 0.31001 0.0
O1131 O 0.56095 0.5147 0.33291 0.0
O1132 O 0.6089 0.55167 0.32229 0.0
O1133 O 0.59507 0.53123 0.33388 0.0
Co1134 Co 0.71247 0.8385 0.56397 0.0
O1135 O 0.72685 0.84983 0.5487 0.0
O1136 O 0.70299 0.83773 0.54167 0.0
C1137 C 0.71253 0.8583 0.58392 0.0
O1138 O 0.69436 0.8263 0.57702 0.0
Co1139 Co 0.72762 0.82801 0.5982 0.0
O1140 O 0.70419 0.82167 0.60297 0.0
C1141 C 0.73583 0.8087 0.5683 0.0
C1142 C 0.71598 0.8464 0.53729 0.0
C1143 C 0.69257 0.82107 0.59213 0.0
O1144 O 0.72466 0.81675 0.56005 0.0
O1145 O 0.74025 0.81257 0.58312 0.0
O1146 O 0.70283 0.85969 0.57105 0.0
O1147 O 0.7232 0.84626 0.58317 0.0
Co1148 Co 0.41505 0.96194 0.81322 0.0
O1149 O 0.40345 0.97622 0.79806 0.0
O1150 O 0.41548 0.95234 0.79095 0.0
C1151 C 0.39552 0.96225 0.83346 0.0
O1152 O 0.42735 0.94385 0.82618 0.0
Co1153 Co 0.4262 0.97722 0.84714 0.0
O1154 O 0.43221 0.95374 0.85206 0.0
C1155 C 0.4455 0.98471 0.817 0.0
C1156 C 0.40667 0.96528 0.78665 0.0
C1157 C 0.43265 0.94208 0.84126 0.0
O1158 O 0.43684 0.97394 0.80884 0.0
O1159 O 0.44209 0.98914 0.83194 0.0
O1160 O 0.39393 0.95245 0.8207 0.0
O1161 O 0.40761 0.97285 0.83249 0.0
Co1162 Co 0.28872 0.66245 0.06117 0.0
O1163 O 0.27451 0.65156 0.04542 0.0
O1164 O 0.29892 0.66298 0.0392 0.0
C1165 C 0.28755 0.64268 0.08115 0.0
O1166 O 0.30676 0.67408 0.07479 0.0
Co1167 Co 0.27284 0.67338 0.09493 0.0
O1168 O 0.29632 0.67888 0.10046 0.0
C1169 C 0.26622 0.69304 0.06486 0.0
C1170 C 0.28582 0.65472 0.03437 0.0
C1171 C 0.30827 0.67917 0.08997 0.0
O1172 O 0.27733 0.68459 0.05692 0.0
O1173 O 0.26124 0.68931 0.07954 0.0
O1174 O 0.29753 0.64097 0.06854 0.0
O1175 O 0.27721 0.65498 0.08006 0.0
Co1176 Co 0.58853 0.45887 0.68859 0.0
O1177 O 0.60026 0.4732 0.70361 0.0
O1178 O 0.58831 0.44936 0.71092 0.0
C1179 C 0.6078 0.45917 0.6681 0.0
O1180 O 0.57612 0.44078 0.67571 0.0
Co1181 Co 0.57708 0.47431 0.65479 0.0
O1182 O 0.57106 0.45081 0.64991 0.0
C1183 C 0.55825 0.48189 0.68514 0.0
C1184 C 0.59711 0.46233 0.7151 0.0
C1185 C 0.57071 0.43908 0.66065 0.0
O1186 O 0.56677 0.47088 0.69314 0.0
O1187 O 0.56165 0.48646 0.67025 0.0
O1188 O 0.6096 0.44938 0.68085 0.0
O1189 O 0.59574 0.46977 0.66928 0.0
Co1190 Co 0.78765 0.84027 0.93906 0.0
O1191 O 0.77326 0.85175 0.95419 0.0
O1192 O 0.79709 0.83971 0.96141 0.0
C1193 C 0.78743 0.85987 0.91889 0.0
O1194 O 0.80579 0.82803 0.92609 0.0
Co1195 Co 0.77237 0.82937 0.905 0.0
O1196 O 0.79584 0.82316 0.90022 0.0
C1197 C 0.76488 0.80987 0.93498 0.0
C1198 C 0.7841 0.84845 0.96567 0.0
C1199 C 0.80751 0.82267 0.91102 0.0
O1200 O 0.77569 0.81842 0.94321 0.0
O1201 O 0.76037 0.81346 0.92011 0.0
O1202 O 0.79716 0.86146 0.93172 0.0
O1203 O 0.77683 0.84778 0.91981 0.0
Co1204 Co 0.40758 0.03906 0.18995 0.0
O1205 O 0.39588 0.02519 0.20539 0.0
O1206 O 0.40803 0.04918 0.21196 0.0
C1207 C 0.38822 0.03835 0.16957 0.0
O1208 O 0.41993 0.05685 0.17671 0.0
Co1209 Co 0.41881 0.02319 0.15628 0.0
O1210 O 0.42491 0.04658 0.15101 0.0
C1211 C 0.4377 0.01589 0.1867 0.0
C1212 C 0.39914 0.0364 0.21653 0.0
C1213 C 0.42527 0.0584 0.16165 0.0
O1214 O 0.42933 0.02708 0.19461 0.0
O1215 O 0.43416 0.01113 0.1719 0.0
O1216 O 0.38649 0.04842 0.18212 0.0
O1217 O 0.40028 0.02777 0.1709 0.0
Co1218 Co 0.21113 0.66249 0.43715 0.0
O1219 O 0.2254 0.65026 0.45182 0.0
O1220 O 0.20181 0.66247 0.45955 0.0
C1221 C 0.21101 0.64356 0.41638 0.0
O1222 O 0.19307 0.67538 0.42469 0.0
Co1223 Co 0.22621 0.67434 0.40335 0.0
O1224 O 0.20273 0.68065 0.3988 0.0
C1225 C 0.23465 0.69234 0.43401 0.0
C1226 C 0.21467 0.65335 0.46345 0.0
C1227 C 0.19117 0.68098 0.40973 0.0
O1228 O 0.22353 0.68394 0.44197 0.0
O1229 O 0.23894 0.68913 0.41899 0.0
O1230 O 0.20129 0.6417 0.42917 0.0
O1231 O 0.22175 0.65549 0.41761 0.0
Co1232 Co 0.81306 0.58696 0.03901 0.0
O1233 O 0.79777 0.59826 0.02461 0.0
O1234 O 0.79091 0.58689 0.04887 0.0
C1235 C 0.83345 0.60632 0.03814 0.0
O1236 O 0.8262 0.57496 0.0572 0.0
Co1237 Co 0.84679 0.57537 0.02353 0.0
O1238 O 0.85192 0.56974 0.04707 0.0
C1239 C 0.81633 0.55653 0.0163 0.0
C1240 C 0.78647 0.5953 0.03572 0.0
C1241 C 0.84127 0.5696 0.05889 0.0
O1242 O 0.80847 0.56499 0.02744 0.0
O1243 O 0.83115 0.55998 0.01153 0.0
O1244 O 0.82077 0.60824 0.048 0.0
O1245 O 0.83225 0.59406 0.02778 0.0
Co1246 Co 0.31337 0.41192 0.46031 0.0
O1247 O 0.29838 0.40021 0.47466 0.0
O1248 O 0.29104 0.41224 0.45086 0.0
C1249 C 0.33374 0.39254 0.46043 0.0
O1250 O 0.32612 0.42432 0.44216 0.0
Co1251 Co 0.34739 0.42323 0.47532 0.0
O1252 O 0.35207 0.42928 0.4518 0.0
C1253 C 0.31717 0.44224 0.48319 0.0
C1254 C 0.28689 0.40336 0.46378 0.0
C1255 C 0.34115 0.42969 0.44024 0.0
O1256 O 0.30898 0.43367 0.47237 0.0
O1257 O 0.33213 0.43884 0.48754 0.0
O1258 O 0.32091 0.39086 0.45074 0.0
O1259 O 0.33277 0.4046 0.47106 0.0
Co1260 Co 0.83723 0.55922 0.70968 0.0
O1261 O 0.84848 0.54397 0.72413 0.0
O1262 O 0.83681 0.53695 0.70006 0.0
C1263 C 0.85687 0.57936 0.71016 0.0
O1264 O 0.82523 0.57234 0.69149 0.0
Co1265 Co 0.82625 0.5932 0.7251 0.0
O1266 O 0.82029 0.59814 0.70161 0.0
C1267 C 0.80691 0.56312 0.7325 0.0
C1268 C 0.84534 0.53258 0.71316 0.0
C1269 C 0.81994 0.58744 0.68984 0.0
O1270 O 0.81528 0.55504 0.72146 0.0
O1271 O 0.81058 0.57792 0.73718 0.0
O1272 O 0.85852 0.56656 0.70042 0.0
O1273 O 0.8447 0.57842 0.72066 0.0
Co1274 Co 0.68675 0.08938 0.96115 0.0
O1275 O 0.69918 0.10154 0.97745 0.0
O1276 O 0.70986 0.09162 0.95398 0.0
C1277 C 0.66484 0.10698 0.96005 0.0
O1278 O 0.67672 0.07697 0.9413 0.0
Co1279 Co 0.6526 0.07476 0.97286 0.0
O1280 O 0.65076 0.06906 0.94888 0.0
C1281 C 0.68351 0.05806 0.9827 0.0
C1282 C 0.71188 0.10018 0.96763 0.0
C1283 C 0.66244 0.07027 0.93815 0.0
O1284 O 0.69182 0.06742 0.97264 0.0
O1285 O 0.6681 0.06033 0.98609 0.0
O1286 O 0.67834 0.11025 0.95178 0.0
O1287 O 0.66592 0.09457 0.97024 0.0
Co1288 Co 0.65867 0.43895 0.21179 0.0
O1289 O 0.64823 0.45365 0.2274 0.0
O1290 O 0.65913 0.46157 0.20323 0.0
C1291 C 0.63876 0.41907 0.2123 0.0
O1292 O 0.66957 0.42693 0.19231 0.0
Co1293 Co 0.66974 0.40353 0.22328 0.0
O1294 O 0.67027 0.39961 0.1988 0.0
C1295 C 0.69022 0.4327 0.23218 0.0
C1296 C 0.65109 0.46544 0.21676 0.0
C1297 C 0.67161 0.41152 0.18836 0.0
O1298 O 0.68119 0.44209 0.22278 0.0
O1299 O 0.68681 0.41741 0.23523 0.0
O1300 O 0.63683 0.43233 0.20322 0.0
O1301 O 0.65156 0.41924 0.22205 0.0
Co1302 Co 0.19028 0.41173 0.03762 0.0
O1303 O 0.20584 0.40079 0.02323 0.0
O1304 O 0.21239 0.41225 0.04754 0.0
C1305 C 0.17029 0.39197 0.03674 0.0
O1306 O 0.17689 0.42343 0.0558 0.0
Co1307 Co 0.15634 0.42265 0.02209 0.0
O1308 O 0.15113 0.42831 0.0456 0.0
C1309 C 0.18636 0.44224 0.01508 0.0
C1310 C 0.21704 0.40394 0.0344 0.0
C1311 C 0.16175 0.4286 0.05743 0.0
O1312 O 0.19441 0.43382 0.02612 0.0
O1313 O 0.17162 0.43851 0.01026 0.0
O1314 O 0.18303 0.39029 0.04656 0.0
O1315 O 0.17125 0.40425 0.02637 0.0
Co1316 Co 0.83723 0.9383 0.79016 0.0
O1317 O 0.84918 0.95297 0.77568 0.0
O1318 O 0.83744 0.9607 0.79949 0.0
C1319 C 0.85623 0.91755 0.79016 0.0
O1320 O 0.82465 0.92581 0.80838 0.0
Co1321 Co 0.8253 0.9045 0.77508 0.0
O1322 O 0.81909 0.90002 0.79859 0.0
C1323 C 0.80681 0.93504 0.76731 0.0
C1324 C 0.84636 0.96458 0.78651 0.0
C1325 C 0.81894 0.91089 0.81021 0.0
O1326 O 0.81553 0.94305 0.77814 0.0
O1327 O 0.80996 0.92004 0.7629 0.0
O1328 O 0.85817 0.93043 0.79974 0.0
O1329 O 0.8442 0.91871 0.77951 0.0
Co1330 Co 0.15951 0.5638 0.28907 0.0
O1331 O 0.14749 0.54871 0.2751 0.0
O1332 O 0.16031 0.54149 0.29853 0.0
C1333 C 0.14009 0.58412 0.2894 0.0
O1334 O 0.1723 0.57668 0.30684 0.0
Co1335 Co 0.17029 0.59782 0.27365 0.0
O1336 O 0.17677 0.60265 0.29703 0.0
C1337 C 0.18908 0.56763 0.26525 0.0
C1338 C 0.15111 0.53725 0.28586 0.0
C1339 C 0.17752 0.59178 0.30861 0.0
O1340 O 0.18094 0.55948 0.27642 0.0
O1341 O 0.18547 0.58256 0.26093 0.0
O1342 O 0.13868 0.57131 0.29918 0.0
O1343 O 0.15186 0.58311 0.27846 0.0
H1344 H 0.03733 0.29966 0.03384 0.0
H1345 H 0.9656 0.30115 0.96507 0.0
H1346 H 0.98784 0.31773 0.04444 0.0
H1347 H 0.01541 0.31875 0.95522 0.0
H1348 H 0.97371 0.29548 0.99408 0.0
H1349 H 0.02895 0.29478 0.00479 0.0
C1350 C 0.02455 0.30203 0.0302 0.0
C1351 C 0.01325 0.30916 0.04148 0.0
C1352 C 0.98293 0.30017 0.98539 0.0
C1353 C 0.00364 0.30347 0.00853 0.0
C1354 C 0.97837 0.30331 0.96887 0.0
C1355 C 0.98987 0.31048 0.95782 0.0
C1356 C 0.99918 0.30383 0.99068 0.0
C1357 C 0.00619 0.31328 0.96342 0.0
C1358 C 0.01985 0.29937 0.01364 0.0
C1359 C 0.99691 0.31228 0.03607 0.0
N1360 N 0.01037 0.30998 0.9795 0.0
N1361 N 0.99259 0.30947 0.01993 0.0
H1362 H 0.95499 0.21358 0.21506 0.0
H1363 H 0.95312 0.28472 0.28455 0.0
H1364 H 0.93913 0.26381 0.20445 0.0
H1365 H 0.93414 0.23522 0.29334 0.0
H1366 H 0.95967 0.2767 0.25571 0.0
H1367 H 0.95912 0.22145 0.24439 0.0
C1368 C 0.95298 0.22641 0.21878 0.0
C1369 C 0.94669 0.23809 0.20738 0.0
C1370 C 0.95448 0.26752 0.26414 0.0
C1371 C 0.9515 0.24711 0.24067 0.0
C1372 C 0.95085 0.27202 0.28058 0.0
C1373 C 0.94302 0.26061 0.29128 0.0
C1374 C 0.95065 0.2514 0.25856 0.0
C1375 C 0.9401 0.24438 0.28544 0.0
C1376 C 0.9552 0.23082 0.23549 0.0
C1377 C 0.94397 0.25446 0.21289 0.0
N1378 N 0.94387 0.24026 0.26943 0.0
N1379 N 0.94633 0.25849 0.22919 0.0
H1380 H 0.01555 0.18244 0.54694 0.0
H1381 H 0.98582 0.18138 0.45667 0.0
H1382 H 0.96597 0.20016 0.53621 0.0
H1383 H 0.03516 0.19995 0.46703 0.0
H1384 H 0.97787 0.1873 0.48561 0.0
H1385 H 0.02346 0.18797 0.51792 0.0
C1386 C 0.00648 0.18791 0.53856 0.0
C1387 C 0.99013 0.19093 0.54394 0.0
C1388 C 0.99031 0.19046 0.48141 0.0
C1389 C 0.99887 0.19662 0.51072 0.0
C1390 C 0.99484 0.18707 0.46495 0.0
C1391 C 0.01114 0.19023 0.45949 0.0
C1392 C 0.00235 0.19644 0.49261 0.0
C1393 C 0.02243 0.19747 0.47073 0.0
C1394 C 0.01098 0.19105 0.52204 0.0
C1395 C 0.97876 0.19782 0.53256 0.0
N1396 N 0.01795 0.19993 0.48691 0.0
N1397 N 0.98321 0.20003 0.51634 0.0
H1398 H 0.06915 0.26735 0.79494 0.0
H1399 H 0.06717 0.23752 0.7049 0.0
H1400 H 0.04998 0.21819 0.78473 0.0
H1401 H 0.05035 0.28741 0.71562 0.0
H1402 H 0.06147 0.22971 0.7339 0.0
H1403 H 0.06295 0.2754 0.7661 0.0
C1404 C 0.06327 0.25839 0.78672 0.0
C1405 C 0.06007 0.2421 0.79217 0.0
C1406 C 0.05862 0.24224 0.72977 0.0
C1407 C 0.0535 0.25101 0.75918 0.0
C1408 C 0.06187 0.24669 0.71327 0.0
C1409 C 0.05918 0.2631 0.70791 0.0
C1410 C 0.05327 0.25446 0.74109 0.0
C1411 C 0.05245 0.27459 0.71926 0.0
C1412 C 0.05972 0.26298 0.77032 0.0
C1413 C 0.05254 0.23091 0.78102 0.0
N1414 N 0.05014 0.27018 0.73547 0.0
N1415 N 0.04991 0.23543 0.7649 0.0
H1416 H 0.01568 0.68254 0.04399 0.0
H1417 H 0.98651 0.68064 0.95368 0.0
H1418 H 0.96561 0.69877 0.03316 0.0
H1419 H 0.035 0.70122 0.9643 0.0
H1420 H 0.97818 0.68624 0.98258 0.0
H1421 H 0.02351 0.68843 0.01501 0.0
C1422 C 0.00647 0.68775 0.0356 0.0
C1423 C 0.99001 0.69025 0.04092 0.0
C1424 C 0.9905 0.6899 0.97844 0.0
C1425 C 0.99868 0.69636 0.00778 0.0
C1426 C 0.99524 0.6867 0.96201 0.0
C1427 C 0.01143 0.69051 0.95665 0.0
C1428 C 0.00223 0.69636 0.9897 0.0
C1429 C 0.02235 0.69822 0.96794 0.0
C1430 C 0.01092 0.6911 0.01911 0.0
C1431 C 0.97847 0.69683 0.02954 0.0
N1432 N 0.01771 0.7005 0.98408 0.0
N1433 N 0.9829 0.69925 0.01335 0.0
H1434 H 0.56952 0.2347 0.20307 0.0
H1435 H 0.56654 0.26314 0.29374 0.0
H1436 H 0.55033 0.28372 0.21387 0.0
H1437 H 0.54983 0.21345 0.28199 0.0
H1438 H 0.56142 0.27139 0.26474 0.0
H1439 H 0.56317 0.22624 0.23177 0.0
C1440 C 0.5636 0.24354 0.21139 0.0
C1441 C 0.5604 0.2599 0.20614 0.0
C1442 C 0.55848 0.2588 0.26863 0.0
C1443 C 0.5537 0.25053 0.23899 0.0
C1444 C 0.5614 0.2541 0.28513 0.0
C1445 C 0.55855 0.23763 0.29021 0.0
C1446 C 0.55328 0.24677 0.25704 0.0
C1447 C 0.55204 0.22632 0.27856 0.0
C1448 C 0.55997 0.23871 0.22771 0.0
C1449 C 0.55285 0.27094 0.21742 0.0
N1450 N 0.55004 0.23097 0.26238 0.0
N1451 N 0.55015 0.26619 0.23348 0.0
H1452 H 0.98773 0.81139 0.55092 0.0
H1453 H 0.01581 0.81919 0.4604 0.0
H1454 H 0.03771 0.79657 0.53797 0.0
H1455 H 0.96685 0.79947 0.47044 0.0
H1456 H 0.02438 0.81147 0.48871 0.0
H1457 H 0.97927 0.80724 0.52184 0.0
C1458 C 0.99678 0.80678 0.54202 0.0
C1459 C 0.0134 0.80424 0.5468 0.0
C1460 C 0.01188 0.80849 0.48457 0.0
C1461 C 0.00403 0.80018 0.51353 0.0
C1462 C 0.00699 0.81293 0.46847 0.0
C1463 C 0.99061 0.80997 0.46314 0.0
C1464 C 1.00015 0.80159 0.49556 0.0
C1465 C 0.97962 0.80188 0.47408 0.0
C1466 C 0.99197 0.80444 0.52546 0.0
C1467 C 0.02473 0.79849 0.53478 0.0
N1468 N 0.98445 0.79834 0.48995 0.0
N1469 N 0.01995 0.79709 0.51857 0.0
H1470 H 0.43355 0.26628 0.70315 0.0
H1471 H 0.43438 0.23463 0.79269 0.0
H1472 H 0.45154 0.21653 0.71261 0.0
H1473 H 0.45169 0.28456 0.78301 0.0
H1474 H 0.44022 0.2273 0.76359 0.0
H1475 H 0.43974 0.27369 0.73216 0.0
C1476 C 0.4392 0.25706 0.71124 0.0
C1477 C 0.44207 0.24079 0.70553 0.0
C1478 C 0.44315 0.23973 0.76796 0.0
C1479 C 0.44858 0.24898 0.73873 0.0
C1480 C 0.43982 0.2439 0.78452 0.0
C1481 C 0.4426 0.26019 0.7902 0.0
C1482 C 0.4487 0.2521 0.7569 0.0
C1483 C 0.44951 0.27182 0.77911 0.0
C1484 C 0.44274 0.26128 0.72775 0.0
C1485 C 0.44927 0.22925 0.71653 0.0
N1486 N 0.4519 0.26769 0.76284 0.0
N1487 N 0.45187 0.23342 0.73276 0.0
H1488 H 0.96612 0.96472 0.30044 0.0
H1489 H 0.03505 0.03635 0.29884 0.0
H1490 H 0.95662 0.01444 0.31848 0.0
H1491 H 0.04563 0.98645 0.31575 0.0
H1492 H 0.0059 0.02819 0.29409 0.0
H1493 H 0.99497 0.97289 0.29414 0.0
C1494 C 0.96994 0.9775 0.30254 0.0
C1495 C 0.95905 0.98893 0.31006 0.0
C1496 C 0.01477 0.01896 0.29839 0.0
C1497 C 0.99176 0.9983 0.30272 0.0
C1498 C 0.03138 0.02354 0.30097 0.0
C1499 C 0.04269 0.01204 0.30775 0.0
C1500 C 0.00963 0.00269 0.3022 0.0
C1501 C 0.03724 0.99567 0.31058 0.0
C1502 C 0.98639 0.98208 0.29905 0.0
C1503 C 0.96469 0.00526 0.31276 0.0
N1504 N 0.02105 0.99148 0.30785 0.0
N1505 N 0.9807 0.00947 0.30915 0.0
H1506 H 0.26481 0.29433 0.56685 0.0
H1507 H 0.23406 0.20443 0.56979 0.0
H1508 H 0.21463 0.28405 0.55066 0.0
H1509 H 0.28301 0.21406 0.54984 0.0
H1510 H 0.22624 0.23337 0.5637 0.0
H1511 H 0.27219 0.26512 0.5615 0.0
C1512 C 0.25548 0.286 0.56177 0.0
C1513 C 0.23913 0.29156 0.55911 0.0
C1514 C 0.23855 0.22901 0.56028 0.0
C1515 C 0.24727 0.25816 0.55361 0.0
C1516 C 0.24301 0.21254 0.56375 0.0
C1517 C 0.25918 0.20689 0.56028 0.0
C1518 C 0.25054 0.24001 0.55387 0.0
C1519 C 0.27037 0.21792 0.55259 0.0
C1520 C 0.25968 0.26938 0.55873 0.0
C1521 C 0.22742 0.28025 0.55271 0.0
N1522 N 0.26599 0.23411 0.55004 0.0
N1523 N 0.23159 0.26394 0.55058 0.0
H1524 H 0.96742 0.46491 0.80002 0.0
H1525 H 0.03644 0.53641 0.79832 0.0
H1526 H 0.95765 0.51482 0.8174 0.0
H1527 H 0.04677 0.48692 0.81656 0.0
H1528 H 0.00733 0.52817 0.79346 0.0
H1529 H 0.99643 0.47297 0.79428 0.0
C1530 C 0.97124 0.4777 0.80211 0.0
C1531 C 0.96021 0.48923 0.80926 0.0
C1532 C 0.01613 0.51904 0.79808 0.0
C1533 C 0.99308 0.49847 0.80254 0.0
C1534 C 0.03272 0.52366 0.80074 0.0
C1535 C 0.04394 0.51231 0.8079 0.0
C1536 C 0.01094 0.50286 0.80222 0.0
C1537 C 0.03844 0.49602 0.81108 0.0
C1538 C 0.98776 0.48221 0.79894 0.0
C1539 C 0.96583 0.50557 0.81197 0.0
N1540 N 0.02228 0.49178 0.80827 0.0
N1541 N 0.98192 0.50971 0.80865 0.0
H1542 H 0.77874 0.22667 0.09826 0.0
H1543 H 0.72738 0.29242 0.04785 0.0
H1544 H 0.75858 0.21296 0.05036 0.0
H1545 H 0.76663 0.30542 0.08223 0.0
H1546 H 0.73823 0.26376 0.04693 0.0
H1547 H 0.77344 0.25577 0.09202 0.0
C1548 C 0.77312 0.22983 0.08639 0.0
C1549 C 0.76889 0.21738 0.07489 0.0
C1550 C 0.74468 0.27304 0.05431 0.0
C1551 C 0.76271 0.25091 0.0676 0.0
C1552 C 0.73856 0.28941 0.05479 0.0
C1553 C 0.74592 0.30126 0.06541 0.0
C1554 C 0.75811 0.26858 0.06463 0.0
C1555 C 0.76034 0.29664 0.07414 0.0
C1556 C 0.77025 0.24649 0.08275 0.0
C1557 C 0.76193 0.22222 0.05957 0.0
N1558 N 0.76576 0.28064 0.07379 0.0
N1559 N 0.75877 0.23867 0.05645 0.0
H1560 H 0.04163 0.99224 0.70245 0.0
H1561 H 0.94909 0.98386 0.66624 0.0
H1562 H 0.02826 0.97205 0.65447 0.0
H1563 H 0.96176 0.02274 0.70118 0.0
H1564 H 0.97733 0.97302 0.66847 0.0
H1565 H 0.01177 0.99805 0.70776 0.0
C1566 C 0.03242 0.98892 0.69315 0.0
C1567 C 0.03735 0.98193 0.67789 0.0
C1568 C 0.97388 0.98379 0.67585 0.0
C1569 C 0.00357 0.98799 0.68402 0.0
C1570 C 0.95773 0.98996 0.67463 0.0
C1571 C 0.95314 0.00445 0.68326 0.0
C1572 C 0.98566 0.99218 0.68569 0.0
C1573 C 0.96483 0.01162 0.69419 0.0
C1574 C 0.01548 0.99223 0.69617 0.0
C1575 C 0.02501 0.97775 0.66626 0.0
N1576 N 0.98071 0.00559 0.69488 0.0
N1577 N 0.00876 0.98081 0.66958 0.0
H1578 H 0.21631 0.2142 0.95078 0.0
H1579 H 0.28771 0.28322 0.94919 0.0
H1580 H 0.26527 0.20418 0.93099 0.0
H1581 H 0.23768 0.29331 0.93235 0.0
H1582 H 0.27972 0.25409 0.9544 0.0
H1583 H 0.22472 0.24319 0.95596 0.0
C1584 C 0.229 0.21795 0.94807 0.0
C1585 C 0.24012 0.20684 0.94038 0.0
C1586 C 0.27044 0.26285 0.95 0.0
C1587 C 0.24976 0.23973 0.94646 0.0
C1588 C 0.27491 0.27944 0.94714 0.0
C1589 C 0.26332 0.29061 0.94029 0.0
C1590 C 0.25416 0.25759 0.94641 0.0
C1591 C 0.24697 0.28503 0.93758 0.0
C1592 C 0.23371 0.23447 0.95091 0.0
C1593 C 0.25633 0.2124 0.93686 0.0
N1594 N 0.24286 0.26887 0.94062 0.0
N1595 N 0.26066 0.2285 0.93988 0.0
H1596 H 0.04775 0.51509 0.18048 0.0
H1597 H 0.95794 0.48434 0.18208 0.0
H1598 H 0.03796 0.46592 0.19982 0.0
H1599 H 0.96801 0.53435 0.19893 0.0
H1600 H 0.98704 0.47688 0.18785 0.0
H1601 H 0.01877 0.52286 0.18648 0.0
C1602 C 0.03959 0.50609 0.18638 0.0
C1603 C 0.04521 0.48987 0.1897 0.0
C1604 C 0.98275 0.48936 0.19069 0.0
C1605 C 0.01206 0.49845 0.19599 0.0
C1606 C 0.9662 0.49361 0.1874 0.0
C1607 C 0.96062 0.50995 0.1901 0.0
C1608 C 0.99391 0.50171 0.19609 0.0
C1609 C 0.97182 0.52158 0.19684 0.0
C1610 C 0.02311 0.51051 0.1898 0.0
C1611 C 0.03413 0.4786 0.1972 0.0
N1612 N 0.98809 0.51736 0.19919 0.0
N1613 N 0.01793 0.48295 0.19969 0.0
H1614 H 0.75708 0.20645 0.41647 0.0
H1615 H 0.77755 0.28757 0.45631 0.0
H1616 H 0.72336 0.21123 0.45818 0.0
H1617 H 0.74063 0.28945 0.41716 0.0
H1618 H 0.77028 0.25809 0.46107 0.0
H1619 H 0.76562 0.23542 0.42057 0.0
C1620 C 0.75174 0.21341 0.42673 0.0
C1621 C 0.7393 0.20639 0.43687 0.0
C1622 C 0.76359 0.26521 0.45175 0.0
C1623 C 0.74919 0.23943 0.44157 0.0
C1624 C 0.76765 0.28199 0.44904 0.0
C1625 C 0.75984 0.29098 0.43616 0.0
C1626 C 0.75166 0.25756 0.44155 0.0
C1627 C 0.74716 0.28301 0.42706 0.0
C1628 C 0.75667 0.22989 0.42904 0.0
C1629 C 0.73293 0.21611 0.45003 0.0
N1630 N 0.74368 0.26668 0.42974 0.0
N1631 N 0.73771 0.23232 0.45181 0.0
H1632 H 0.31692 0.95503 0.01425 0.0
H1633 H 0.31672 0.04547 0.98541 0.0
H1634 H 0.29873 0.96603 0.9649 0.0
H1635 H 0.29882 0.03448 0.03485 0.0
H1636 H 0.31079 0.01661 0.97719 0.0
H1637 H 0.31096 0.98388 0.02251 0.0
C1638 C 0.31128 0.96343 0.00529 0.0
C1639 C 0.30828 0.95819 0.9889 0.0
C1640 C 0.30776 0.02065 0.98971 0.0
C1641 C 0.30204 0.9912 0.99805 0.0
C1642 C 0.31114 0.03707 0.99439 0.0
C1643 C 0.30819 0.04231 0.01079 0.0
C1644 C 0.30202 0.00928 0.0017 0.0
C1645 C 0.30112 0.03093 0.02203 0.0
C1646 C 0.30788 0.97984 0.01 0.0
C1647 C 0.3011 0.96957 0.9777 0.0
N1648 N 0.29868 0.01479 0.01741 0.0
N1649 N 0.29863 0.9857 0.98235 0.0
H1650 H 0.81811 0.04833 0.48843 0.0
H1651 H 0.81855 0.95798 0.51801 0.0
H1652 H 0.79971 0.03753 0.53771 0.0
H1653 H 0.80117 0.96852 0.46828 0.0
H1654 H 0.81241 0.98688 0.52594 0.0
H1655 H 0.81266 0.01933 0.48037 0.0
C1656 C 0.81252 0.03993 0.4974 0.0
C1657 C 0.80926 0.04527 0.51371 0.0
C1658 C 0.80955 0.98273 0.51341 0.0
C1659 C 0.80364 0.01209 0.50482 0.0
C1660 C 0.81306 0.96629 0.50889 0.0
C1661 C 0.81032 0.96091 0.4925 0.0
C1662 C 0.80386 0.99398 0.50128 0.0
C1663 C 0.80333 0.97218 0.48109 0.0
C1664 C 0.80941 0.02343 0.49281 0.0
C1665 C 0.80222 0.03389 0.52496 0.0
N1666 N 0.80074 0.98834 0.48557 0.0
N1667 N 0.80004 0.01768 0.52044 0.0
H1668 H 0.29746 0.069 0.76594 0.0
H1669 H 0.20831 0.07094 0.73381 0.0
H1670 H 0.28797 0.05085 0.71628 0.0
H1671 H 0.21684 0.05208 0.78338 0.0
H1672 H 0.23736 0.06451 0.72672 0.0
H1673 H 0.26821 0.06362 0.77313 0.0
C1674 C 0.28931 0.06347 0.75671 0.0
C1675 C 0.29509 0.06031 0.74053 0.0
C1676 C 0.23274 0.06139 0.73901 0.0
C1677 C 0.26165 0.05477 0.74844 0.0
C1678 C 0.21621 0.06506 0.74305 0.0
C1679 C 0.21022 0.06197 0.75916 0.0
C1680 C 0.24346 0.05519 0.75137 0.0
C1681 C 0.22098 0.0545 0.77077 0.0
C1682 C 0.27267 0.06041 0.7608 0.0
C1683 C 0.28401 0.05331 0.72894 0.0
N1684 N 0.23724 0.05177 0.76679 0.0
N1685 N 0.26767 0.0512 0.73297 0.0
H1686 H 0.20252 0.46557 0.03368 0.0
H1687 H 0.20188 0.53527 0.96282 0.0
H1688 H 0.1848 0.45583 0.9839 0.0
H1689 H 0.18418 0.5447 0.01267 0.0
H1690 H 0.20743 0.50617 0.97067 0.0
H1691 H 0.20763 0.49473 0.02579 0.0
C1692 C 0.20026 0.46943 0.02094 0.0
C1693 C 0.19318 0.45835 0.00941 0.0
C1694 C 0.20275 0.51478 0.97996 0.0
C1695 C 0.19914 0.49142 0.00036 0.0
C1696 C 0.19971 0.53136 0.97556 0.0
C1697 C 0.19251 0.54233 0.98713 0.0
C1698 C 0.19899 0.50933 0.99613 0.0
C1699 C 0.18967 0.53658 0.00339 0.0
C1700 C 0.20306 0.48604 0.01652 0.0
C1701 C 0.19021 0.46403 0.99314 0.0
N1702 N 0.19286 0.52043 0.00742 0.0
N1703 N 0.19315 0.48023 0.98909 0.0
H1704 H 0.2837 0.95127 0.28792 0.0
H1705 H 0.21457 0.95077 0.21648 0.0
H1706 H 0.29379 0.93355 0.23821 0.0
H1707 H 0.20463 0.93319 0.26627 0.0
H1708 H 0.24361 0.95621 0.22458 0.0
H1709 H 0.2546 0.9564 0.27981 0.0
C1710 C 0.27993 0.94901 0.27515 0.0
C1711 C 0.29109 0.94192 0.2637 0.0
C1712 C 0.2349 0.95159 0.2338 0.0
C1713 C 0.25808 0.94791 0.2544 0.0
C1714 C 0.21835 0.9486 0.22926 0.0
C1715 C 0.20725 0.94146 0.24074 0.0
C1716 C 0.2402 0.94782 0.25002 0.0
C1717 C 0.21285 0.93863 0.25706 0.0
C1718 C 0.26335 0.95181 0.2706 0.0
C1719 C 0.28552 0.93896 0.24739 0.0
N1720 N 0.22898 0.94176 0.26122 0.0
N1721 N 0.26936 0.94192 0.24322 0.0
H1722 H 0.69923 0.96524 0.03496 0.0
H1723 H 0.6999 0.03496 0.96414 0.0
H1724 H 0.67968 0.95638 0.98569 0.0
H1725 H 0.68272 0.04489 0.01405 0.0
H1726 H 0.70488 0.00575 0.97203 0.0
H1727 H 0.70548 0.99413 0.02691 0.0
C1728 C 0.69679 0.9692 0.02228 0.0
C1729 C 0.68886 0.95847 0.01096 0.0
C1730 C 0.70052 0.0145 0.98134 0.0
C1731 C 0.69617 0.99124 0.00172 0.0
C1732 C 0.69783 0.03114 0.97692 0.0
C1733 C 0.69092 0.04228 0.9885 0.0
C1734 C 0.69667 0.00916 0.99753 0.0
C1735 C 0.68808 0.03665 0.0048 0.0
C1736 C 0.70026 0.98567 0.01777 0.0
C1737 C 0.68573 0.96431 0.99478 0.0
N1738 N 0.69091 0.02043 0.00884 0.0
N1739 N 0.68934 0.98035 0.99064 0.0
H1740 H 0.28754 0.45116 0.78525 0.0
H1741 H 0.21883 0.45026 0.71346 0.0
H1742 H 0.29799 0.43294 0.73579 0.0
H1743 H 0.20876 0.43279 0.76327 0.0
H1744 H 0.24786 0.45571 0.72162 0.0
H1745 H 0.25854 0.45634 0.77684 0.0
C1746 C 0.28388 0.44882 0.77247 0.0
C1747 C 0.2951 0.44155 0.76118 0.0
C1748 C 0.23913 0.4511 0.73082 0.0
C1749 C 0.26221 0.44759 0.75155 0.0
C1750 C 0.22259 0.44809 0.72624 0.0
C1751 C 0.21147 0.441 0.73772 0.0
C1752 C 0.24436 0.44741 0.74708 0.0
C1753 C 0.21701 0.43818 0.75406 0.0
C1754 C 0.26735 0.45165 0.76775 0.0
C1755 C 0.28967 0.43849 0.74485 0.0
N1756 N 0.23312 0.44136 0.75826 0.0
N1757 N 0.27355 0.44146 0.74052 0.0
H1758 H 0.72572 0.08547 0.29282 0.0
H1759 H 0.79018 0.04816 0.22824 0.0
H1760 H 0.71137 0.04768 0.25748 0.0
H1761 H 0.80344 0.07885 0.27033 0.0
H1762 H 0.76224 0.04443 0.24024 0.0
H1763 H 0.75487 0.08024 0.2864 0.0
C1764 C 0.7288 0.07591 0.28378 0.0
C1765 C 0.71622 0.06709 0.27555 0.0
C1766 C 0.77141 0.05166 0.24701 0.0
C1767 C 0.74966 0.0612 0.26777 0.0
C1768 C 0.78738 0.05371 0.24022 0.0
C1769 C 0.79905 0.06407 0.24817 0.0
C1770 C 0.76717 0.06006 0.2618 0.0
C1771 C 0.79475 0.07101 0.26362 0.0
C1772 C 0.74546 0.07288 0.28013 0.0
C1773 C 0.72081 0.05474 0.26405 0.0
N1774 N 0.77914 0.06907 0.26978 0.0
N1775 N 0.73722 0.05236 0.26023 0.0
H1776 H 0.9485 0.78382 0.78698 0.0
H1777 H 0.94869 0.71121 0.71911 0.0
H1778 H 0.92877 0.73486 0.79714 0.0
H1779 H 0.93341 0.76142 0.70754 0.0
H1780 H 0.95298 0.71962 0.74827 0.0
H1781 H 0.95451 0.77505 0.75826 0.0
C1782 C 0.94592 0.77108 0.78332 0.0
C1783 C 0.93804 0.76004 0.79436 0.0
C1784 C 0.94912 0.72884 0.7392 0.0
C1785 C 0.94508 0.74999 0.76181 0.0
C1786 C 0.94679 0.72412 0.72259 0.0
C1787 C 0.94063 0.73566 0.71099 0.0
C1788 C 0.94567 0.74528 0.74404 0.0
C1789 C 0.9381 0.75217 0.71617 0.0
C1790 C 0.94926 0.76616 0.76695 0.0
C1791 C 0.93476 0.74375 0.78894 0.0
N1792 N 0.94058 0.7565 0.73235 0.0
N1793 N 0.93825 0.7392 0.77299 0.0
H1794 H 0.04929 0.71644 0.28575 0.0
H1795 H 0.04904 0.78575 0.21452 0.0
H1796 H 0.06683 0.76652 0.29422 0.0
H1797 H 0.06768 0.73603 0.20623 0.0
H1798 H 0.0434 0.77839 0.24372 0.0
H1799 H 0.04388 0.72366 0.25646 0.0
C1800 C 0.05143 0.72911 0.28159 0.0
C1801 C 0.05856 0.74092 0.29234 0.0
C1802 C 0.04827 0.769 0.23532 0.0
C1803 C 0.05225 0.74921 0.25914 0.0
C1804 C 0.05137 0.77312 0.21868 0.0
C1805 C 0.05888 0.76146 0.20802 0.0
C1806 C 0.05231 0.75302 0.24114 0.0
C1807 C 0.06193 0.74536 0.2141 0.0
C1808 C 0.04846 0.73315 0.26491 0.0
C1809 C 0.06138 0.75707 0.28628 0.0
N1810 N 0.05869 0.7416 0.23031 0.0
N1811 N 0.05827 0.76075 0.27003 0.0
H1812 H 0.55067 0.78544 0.71555 0.0
H1813 H 0.55012 0.71496 0.78561 0.0
H1814 H 0.56908 0.73576 0.70653 0.0
H1815 H 0.56783 0.76479 0.79514 0.0
H1816 H 0.54505 0.72273 0.7564 0.0
H1817 H 0.545 0.77768 0.74464 0.0
C1818 C 0.55298 0.77275 0.71954 0.0
C1819 C 0.56041 0.76121 0.7087 0.0
C1820 C 0.54959 0.73204 0.76506 0.0
C1821 C 0.55377 0.7523 0.74168 0.0
C1822 C 0.55236 0.72769 0.7817 0.0
C1823 C 0.55943 0.73928 0.79273 0.0
C1824 C 0.55353 0.74818 0.75961 0.0
C1825 C 0.5624 0.75552 0.78698 0.0
C1826 C 0.54985 0.7684 0.73612 0.0
C1827 C 0.56342 0.74501 0.71456 0.0
N1828 N 0.55949 0.75949 0.77077 0.0
N1829 N 0.56013 0.74103 0.7307 0.0
H1830 H 0.45118 0.71525 0.21439 0.0
H1831 H 0.4506 0.78719 0.28299 0.0
H1832 H 0.43171 0.76437 0.20449 0.0
H1833 H 0.43483 0.73695 0.29369 0.0
H1834 H 0.45553 0.77907 0.25385 0.0
H1835 H 0.45705 0.72377 0.24322 0.0
C1836 C 0.44867 0.72798 0.21812 0.0
C1837 C 0.44087 0.73912 0.20712 0.0
C1838 C 0.45144 0.76976 0.26274 0.0
C1839 C 0.44772 0.7489 0.23981 0.0
C1840 C 0.44875 0.77433 0.27934 0.0
C1841 C 0.44226 0.7627 0.29068 0.0
C1842 C 0.44803 0.75339 0.25765 0.0
C1843 C 0.43979 0.74626 0.28527 0.0
C1844 C 0.45191 0.73276 0.23455 0.0
C1845 C 0.43765 0.7554 0.21264 0.0
N1846 N 0.44263 0.74209 0.2691 0.0
N1847 N 0.44103 0.7598 0.22866 0.0
H1848 H 0.23501 0.70656 0.06592 0.0
H1849 H 0.26629 0.79625 0.06765 0.0
H1850 H 0.28509 0.71653 0.04922 0.0
H1851 H 0.21679 0.78669 0.04909 0.0
H1852 H 0.2739 0.76731 0.06135 0.0
H1853 H 0.22765 0.73569 0.06022 0.0
C1854 C 0.24432 0.7148 0.06066 0.0
C1855 C 0.26066 0.70918 0.058 0.0
C1856 C 0.26151 0.77168 0.05824 0.0
C1857 C 0.25251 0.74251 0.05205 0.0
C1858 C 0.25718 0.78816 0.06183 0.0
C1859 C 0.24092 0.79382 0.05884 0.0
C1860 C 0.24932 0.76068 0.05222 0.0
C1861 C 0.2295 0.78282 0.05145 0.0
C1862 C 0.24013 0.73138 0.0574 0.0
C1863 C 0.27233 0.72037 0.05131 0.0
N1864 N 0.23377 0.76662 0.0488 0.0
N1865 N 0.26815 0.73665 0.04897 0.0
H1866 H 0.73825 0.70537 0.56899 0.0
H1867 H 0.76727 0.79591 0.57094 0.0
H1868 H 0.78823 0.71647 0.55272 0.0
H1869 H 0.71845 0.78503 0.55128 0.0
H1870 H 0.77567 0.76707 0.56516 0.0
H1871 H 0.73033 0.73439 0.56342 0.0
C1872 C 0.74743 0.71385 0.56389 0.0
C1873 C 0.76388 0.70859 0.56126 0.0
C1874 C 0.76326 0.77114 0.56173 0.0
C1875 C 0.75511 0.74175 0.55545 0.0
C1876 C 0.75847 0.78754 0.56504 0.0
C1877 C 0.74217 0.7928 0.56156 0.0
C1878 C 0.75147 0.75982 0.55549 0.0
C1879 C 0.73118 0.78146 0.55403 0.0
C1880 C 0.74292 0.73035 0.56069 0.0
C1881 C 0.77539 0.72005 0.55477 0.0
N1882 N 0.73589 0.76535 0.55164 0.0
N1883 N 0.7709 0.73625 0.55248 0.0
H1884 H 0.26622 0.7049 0.43211 0.0
H1885 H 0.23784 0.79536 0.43604 0.0
H1886 H 0.21734 0.71554 0.45174 0.0
H1887 H 0.28776 0.78352 0.45199 0.0
H1888 H 0.22961 0.7664 0.44138 0.0
H1889 H 0.2748 0.73346 0.4389 0.0
C1890 C 0.25744 0.71314 0.43823 0.0
C1891 C 0.24107 0.70791 0.44139 0.0
C1892 C 0.24225 0.77027 0.44413 0.0
C1893 C 0.25058 0.74061 0.44861 0.0
C1894 C 0.24693 0.78674 0.44109 0.0
C1895 C 0.26347 0.79178 0.44362 0.0
C1896 C 0.25434 0.75865 0.44913 0.0
C1897 C 0.27485 0.78012 0.45001 0.0
C1898 C 0.26233 0.72939 0.44211 0.0
C1899 C 0.23011 0.71909 0.44922 0.0
N1900 N 0.27019 0.76395 0.45213 0.0
N1901 N 0.23492 0.73508 0.45216 0.0
H1902 H 0.71449 0.71556 0.94993 0.0
H1903 H 0.78354 0.78695 0.95163 0.0
H1904 H 0.76459 0.70742 0.93228 0.0
H1905 H 0.734 0.79563 0.93268 0.0
H1906 H 0.7762 0.75761 0.95644 0.0
H1907 H 0.72156 0.74487 0.95543 0.0
C1908 C 0.72713 0.7198 0.94775 0.0
C1909 C 0.739 0.70912 0.94061 0.0
C1910 C 0.76685 0.7661 0.95167 0.0
C1911 C 0.74712 0.74236 0.94705 0.0
C1912 C 0.77095 0.78282 0.94905 0.0
C1913 C 0.75934 0.79367 0.94171 0.0
C1914 C 0.75092 0.76036 0.94733 0.0
C1915 C 0.74329 0.78762 0.93831 0.0
C1916 C 0.73108 0.7365 0.95078 0.0
C1917 C 0.7551 0.7153 0.93774 0.0
N1918 N 0.73955 0.77132 0.9411 0.0
N1919 N 0.7587 0.73155 0.94094 0.0
H1920 H 0.30055 0.53505 0.53569 0.0
H1921 H 0.30019 0.46528 0.46497 0.0
H1922 H 0.31828 0.54466 0.48589 0.0
H1923 H 0.31919 0.45587 0.51435 0.0
H1924 H 0.2948 0.49437 0.47295 0.0
H1925 H 0.29536 0.50588 0.52785 0.0
C1926 C 0.30278 0.53117 0.52296 0.0
C1927 C 0.30988 0.54221 0.5114 0.0
C1928 C 0.29971 0.48576 0.48212 0.0
C1929 C 0.30381 0.50913 0.50241 0.0
C1930 C 0.30267 0.46918 0.47765 0.0
C1931 C 0.31019 0.45823 0.48903 0.0
C1932 C 0.30388 0.49122 0.49819 0.0
C1933 C 0.31343 0.46398 0.50522 0.0
C1934 C 0.29994 0.51455 0.51856 0.0
C1935 C 0.31283 0.53649 0.49515 0.0
N1936 N 0.3103 0.48013 0.50933 0.0
N1937 N 0.30983 0.5203 0.49112 0.0
H1938 H 0.81662 0.4534 0.01379 0.0
H1939 H 0.81719 0.54373 0.98481 0.0
H1940 H 0.79843 0.46465 0.96451 0.0
H1941 H 0.80002 0.53301 0.03457 0.0
H1942 H 0.81069 0.51497 0.97671 0.0
H1943 H 0.81082 0.48223 0.02216 0.0
C1944 C 0.81098 0.46184 0.00488 0.0
C1945 C 0.80797 0.45669 0.98846 0.0
C1946 C 0.80795 0.51905 0.98928 0.0
C1947 C 0.80194 0.4897 0.99773 0.0
C1948 C 0.81167 0.53541 0.9939 0.0
C1949 C 0.80911 0.5407 0.01035 0.0
C1950 C 0.80223 0.50777 0.00137 0.0
C1951 C 0.80205 0.52942 0.02172 0.0
C1952 C 0.80768 0.47825 0.00965 0.0
C1953 C 0.8008 0.46813 0.97733 0.0
N1954 N 0.79927 0.51333 0.01714 0.0
N1955 N 0.79845 0.48425 0.98203 0.0
H1956 H 0.28312 0.54847 0.21376 0.0
H1957 H 0.20131 0.56924 0.23354 0.0
H1958 H 0.29021 0.57094 0.26207 0.0
H1959 H 0.2131 0.55134 0.2828 0.0
H1960 H 0.23002 0.56328 0.22487 0.0
H1961 H 0.2538 0.54319 0.22091 0.0
C1962 C 0.27864 0.55184 0.22604 0.0
C1963 C 0.28902 0.56029 0.23731 0.0
C1964 C 0.22616 0.56017 0.23742 0.0
C1965 C 0.25571 0.55431 0.24547 0.0
C1966 C 0.20983 0.56361 0.24237 0.0
C1967 C 0.20486 0.56067 0.25886 0.0
C1968 C 0.23769 0.55428 0.2492 0.0
C1969 C 0.21642 0.55359 0.26992 0.0
C1970 C 0.26192 0.54896 0.23002 0.0
C1971 C 0.28255 0.56453 0.25299 0.0
N1972 N 0.23247 0.55108 0.26503 0.0
N1973 N 0.26627 0.56155 0.2566 0.0
H1974 H 0.17565 0.94647 0.48306 0.0
H1975 H 0.20643 0.04043 0.49654 0.0
H1976 H 0.20493 0.96036 0.52595 0.0
H1977 H 0.16258 0.02509 0.46956 0.0
H1978 H 0.21256 0.01074 0.50251 0.0
H1979 H 0.17853 0.9747 0.47227 0.0
C1980 C 0.18303 0.95538 0.49003 0.0
C1981 C 0.18981 0.95114 0.50557 0.0
C1982 C 0.20174 0.01397 0.49513 0.0
C1983 C 0.19285 0.98366 0.49343 0.0
C1984 C 0.19826 0.03081 0.49173 0.0
C1985 C 0.18387 0.03509 0.48276 0.0
C1986 C 0.19096 0.00153 0.48907 0.0
C1987 C 0.17367 0.02228 0.47673 0.0
C1988 C 0.18459 0.97153 0.48391 0.0
C1989 C 0.19943 0.96316 0.51395 0.0
N1990 N 0.17741 0.00615 0.47998 0.0
N1991 N 0.2004 0.97904 0.50794 0.0
H1992 H 0.68073 0.54757 0.51741 0.0
H1993 H 0.68327 0.45785 0.4861 0.0
H1994 H 0.70076 0.53796 0.46848 0.0
H1995 H 0.69876 0.4677 0.53658 0.0
H1996 H 0.689 0.48703 0.47897 0.0
H1997 H 0.68665 0.51858 0.52516 0.0
C1998 C 0.68675 0.53946 0.50845 0.0
C1999 C 0.69027 0.54512 0.4923 0.0
C2000 C 0.69154 0.48269 0.4915 0.0
C2001 C 0.6965 0.51196 0.50086 0.0
C2002 C 0.68827 0.46609 0.49556 0.0
C2003 C 0.69061 0.46042 0.51191 0.0
C2004 C 0.69657 0.49379 0.50404 0.0
C2005 C 0.69694 0.4716 0.52379 0.0
C2006 C 0.69013 0.52296 0.51287 0.0
C2007 C 0.69796 0.53409 0.4811 0.0
N2008 N 0.6993 0.4879 0.51973 0.0
N2009 N 0.70042 0.51788 0.48544 0.0
H2010 H 0.71446 0.54751 0.7857 0.0
H2011 H 0.78336 0.54708 0.71408 0.0
H2012 H 0.7046 0.56598 0.73621 0.0
H2013 H 0.79367 0.56451 0.76384 0.0
H2014 H 0.75427 0.54201 0.72226 0.0
H2015 H 0.74339 0.54173 0.77741 0.0
C2016 C 0.71823 0.54979 0.77294 0.0
C2017 C 0.7072 0.55728 0.76161 0.0
C2018 C 0.76307 0.5465 0.73146 0.0
C2019 C 0.74001 0.55054 0.75211 0.0
C2020 C 0.77964 0.54927 0.72687 0.0
C2021 C 0.79086 0.55627 0.73832 0.0
C2022 C 0.75787 0.55033 0.74769 0.0
C2023 C 0.78536 0.55916 0.75466 0.0
C2024 C 0.73471 0.5466 0.76829 0.0
C2025 C 0.71277 0.56025 0.7453 0.0
N2026 N 0.7692 0.55624 0.75887 0.0
N2027 N 0.72883 0.55693 0.74104 0.0
H2028 H 0.53703 0.3004 0.53231 0.0
H2029 H 0.46653 0.29932 0.46229 0.0
H2030 H 0.48697 0.3176 0.54159 0.0
H2031 H 0.51591 0.31833 0.45289 0.0
H2032 H 0.47448 0.29405 0.49139 0.0
H2033 H 0.52941 0.29508 0.5031 0.0
C2034 C 0.5243 0.30252 0.52833 0.0
C2035 C 0.51259 0.30949 0.5393 0.0
C2036 C 0.48366 0.29893 0.48278 0.0
C2037 C 0.50385 0.30325 0.50619 0.0
C2038 C 0.47921 0.30182 0.46619 0.0
C2039 C 0.49059 0.30932 0.45523 0.0
C2040 C 0.4997 0.30317 0.48826 0.0
C2041 C 0.50678 0.31258 0.46099 0.0
C2042 C 0.52003 0.29959 0.5117 0.0
C2043 C 0.49634 0.31227 0.53347 0.0
N2044 N 0.51085 0.30955 0.47716 0.0
N2045 N 0.49244 0.30918 0.51727 0.0
H2046 H 0.52193 0.15443 0.9688 0.0
H2047 H 0.47418 0.20155 0.03842 0.0
H2048 H 0.50543 0.20447 0.95809 0.0
H2049 H 0.5154 0.1685 0.04854 0.0
H2050 H 0.48385 0.20404 0.0094 0.0
H2051 H 0.51728 0.15935 0.99827 0.0
C2052 C 0.51723 0.16648 0.97269 0.0
C2053 C 0.51388 0.17901 0.961 0.0
C2054 C 0.49098 0.19663 0.01815 0.0
C2055 C 0.50849 0.18476 0.9949 0.0
C2056 C 0.48553 0.19525 0.03471 0.0
C2057 C 0.4938 0.1845 0.04582 0.0
C2058 C 0.50463 0.18707 0.0128 0.0
C2059 C 0.50841 0.17662 0.04033 0.0
C2060 C 0.51475 0.16935 0.98955 0.0
C2061 C 0.50808 0.19449 0.96678 0.0
N2062 N 0.51314 0.1778 0.02417 0.0
N2063 N 0.50527 0.19688 0.9834 0.0
H2064 H 0.53523 0.70367 0.46691 0.0
H2065 H 0.46465 0.70285 0.53689 0.0
H2066 H 0.48513 0.68682 0.45721 0.0
H2067 H 0.51437 0.68443 0.54568 0.0
H2068 H 0.47243 0.70902 0.50791 0.0
H2069 H 0.5275 0.70873 0.49611 0.0
C2070 C 0.52245 0.70162 0.47078 0.0
C2071 C 0.51078 0.69476 0.45971 0.0
C2072 C 0.48171 0.70406 0.51636 0.0
C2073 C 0.50193 0.70066 0.49283 0.0
C2074 C 0.47735 0.70065 0.53288 0.0
C2075 C 0.48889 0.69305 0.5436 0.0
C2076 C 0.49782 0.70025 0.51076 0.0
C2077 C 0.50511 0.69021 0.53773 0.0
C2078 C 0.51813 0.70439 0.48742 0.0
C2079 C 0.49448 0.69206 0.46541 0.0
N2080 N 0.5091 0.69375 0.52165 0.0
N2081 N 0.49053 0.69495 0.48163 0.0
H2082 H 0.5139 0.81737 0.95712 0.0
H2083 H 0.48196 0.81944 0.0467 0.0
H2084 H 0.46331 0.80201 0.96665 0.0
H2085 H 0.53102 0.79961 0.03727 0.0
H2086 H 0.47441 0.81371 0.01764 0.0
H2087 H 0.52084 0.81151 0.98632 0.0
C2088 C 0.50438 0.81237 0.96529 0.0
C2089 C 0.48804 0.8101 0.95953 0.0
C2090 C 0.48668 0.81023 0.02207 0.0
C2091 C 0.49571 0.804 0.99292 0.0
C2092 C 0.49099 0.81351 0.03861 0.0
C2093 C 0.50713 0.81 0.04435 0.0
C2094 C 0.49878 0.80397 0.0111 0.0
C2095 C 0.51841 0.80241 0.03334 0.0
C2096 C 0.50833 0.80903 0.9819 0.0
C2097 C 0.47609 0.80377 0.97062 0.0
N2098 N 0.51418 0.80005 0.0171 0.0
N2099 N 0.48004 0.80134 0.98693 0.0
H2100 H 0.46717 0.96737 0.79728 0.0
H2101 H 0.54966 0.98765 0.81499 0.0
H2102 H 0.46049 0.01503 0.82123 0.0
H2103 H 0.53653 0.03712 0.79867 0.0
H2104 H 0.52079 0.97876 0.81022 0.0
H2105 H 0.49618 0.97496 0.79105 0.0
C2106 C 0.47165 0.97961 0.8008 0.0
C2107 C 0.46148 0.99056 0.80992 0.0
C2108 C 0.52437 0.99142 0.80718 0.0
C2109 C 0.49448 0.99923 0.80284 0.0
C2110 C 0.54079 0.99648 0.80993 0.0
C2111 C 0.54546 0.01308 0.80707 0.0
C2112 C 0.51245 0.00319 0.80209 0.0
C2113 C 0.53345 0.02415 0.80079 0.0
C2114 C 0.48821 0.98384 0.79738 0.0
C2115 C 0.46798 0.00619 0.81432 0.0
N2116 N 0.51735 0.01913 0.79897 0.0
N2117 N 0.4841 0.01005 0.81078 0.0
H2118 H 0.53496 0.53719 0.30021 0.0
H2119 H 0.46547 0.46616 0.3002 0.0
H2120 H 0.54399 0.48806 0.32007 0.0
H2121 H 0.45529 0.51642 0.31629 0.0
H2122 H 0.4947 0.47399 0.2954 0.0
H2123 H 0.50608 0.52902 0.29406 0.0
C2124 C 0.53103 0.52452 0.30275 0.0
C2125 C 0.54179 0.51328 0.31073 0.0
C2126 C 0.4859 0.48337 0.29952 0.0
C2127 C 0.50906 0.50391 0.30355 0.0
C2128 C 0.46925 0.47898 0.30214 0.0
C2129 C 0.45803 0.49069 0.30869 0.0
C2130 C 0.49117 0.49965 0.30308 0.0
C2131 C 0.46361 0.50705 0.31128 0.0
C2132 C 0.51457 0.51995 0.29934 0.0
C2133 C 0.53602 0.4971 0.31398 0.0
N2134 N 0.47984 0.51106 0.30852 0.0
N2135 N 0.51999 0.49289 0.31044 0.0
H2136 H 0.54053 0.01553 0.18251 0.0
H2137 H 0.45083 0.98451 0.18562 0.0
H2138 H 0.53131 0.96597 0.2011 0.0
H2139 H 0.46134 0.03444 0.20243 0.0
H2140 H 0.47998 0.97694 0.19087 0.0
H2141 H 0.51167 0.02309 0.18922 0.0
C2142 C 0.53252 0.00638 0.18836 0.0
C2143 C 0.53825 0.99013 0.19129 0.0
C2144 C 0.47578 0.98942 0.19384 0.0
C2145 C 0.50522 0.99848 0.19843 0.0
C2146 C 0.45919 0.99373 0.19085 0.0
C2147 C 0.45372 0.0101 0.19364 0.0
C2148 C 0.48708 0.00173 0.19903 0.0
C2149 C 0.46506 0.02165 0.20026 0.0
C2150 C 0.5161 0.01069 0.19221 0.0
C2151 C 0.52736 0.97867 0.19878 0.0
N2152 N 0.48135 0.01738 0.2023 0.0
N2153 N 0.5112 0.98293 0.2017 0.0
H2154 H 0.53495 0.46351 0.70158 0.0
H2155 H 0.46586 0.53501 0.70175 0.0
H2156 H 0.54497 0.51323 0.68384 0.0
H2157 H 0.45594 0.48546 0.68347 0.0
H2158 H 0.49489 0.5268 0.70721 0.0
H2159 H 0.5059 0.47166 0.70696 0.0
C2160 C 0.53118 0.47629 0.69939 0.0
C2161 C 0.5423 0.48773 0.69222 0.0
C2162 C 0.48618 0.51765 0.70245 0.0
C2163 C 0.50935 0.49708 0.6985 0.0
C2164 C 0.46964 0.52225 0.69945 0.0
C2165 C 0.45856 0.51088 0.69211 0.0
C2166 C 0.49147 0.50146 0.69847 0.0
C2167 C 0.46414 0.49458 0.68909 0.0
C2168 C 0.51463 0.48086 0.70234 0.0
C2169 C 0.53673 0.50406 0.68933 0.0
N2170 N 0.48025 0.49036 0.69224 0.0
N2171 N 0.5206 0.50825 0.69243 0.0
H2172 H 0.71408 0.95246 0.71512 0.0
H2173 H 0.78403 0.95217 0.78571 0.0
H2174 H 0.70446 0.93489 0.76498 0.0
H2175 H 0.79308 0.93344 0.73617 0.0
H2176 H 0.75497 0.95793 0.77786 0.0
H2177 H 0.74325 0.95762 0.72294 0.0
C2178 C 0.71796 0.95027 0.72787 0.0
C2179 C 0.70691 0.9432 0.73944 0.0
C2180 C 0.7635 0.953 0.76862 0.0
C2181 C 0.74001 0.94922 0.7484 0.0
C2182 C 0.78006 0.94983 0.77302 0.0
C2183 C 0.7909 0.94228 0.76155 0.0
C2184 C 0.75794 0.94899 0.75254 0.0
C2185 C 0.78506 0.93922 0.74536 0.0
C2186 C 0.73458 0.95309 0.73224 0.0
C2187 C 0.71263 0.94031 0.75571 0.0
N2188 N 0.76893 0.94254 0.74133 0.0
N2189 N 0.72884 0.94327 0.75971 0.0
H2190 H 0.78329 0.44703 0.28523 0.0
H2191 H 0.71371 0.44951 0.21438 0.0
H2192 H 0.79308 0.42986 0.23528 0.0
H2193 H 0.7039 0.42914 0.26311 0.0
H2194 H 0.74294 0.45401 0.22254 0.0
H2195 H 0.7541 0.45218 0.27737 0.0
C2196 C 0.77942 0.44487 0.27248 0.0
C2197 C 0.79053 0.43799 0.26086 0.0
C2198 C 0.73423 0.44897 0.23153 0.0
C2199 C 0.75745 0.44404 0.25183 0.0
C2200 C 0.71759 0.44652 0.22697 0.0
C2201 C 0.70646 0.43894 0.23812 0.0
C2202 C 0.73957 0.44423 0.24749 0.0
C2203 C 0.71214 0.435 0.25417 0.0
C2204 C 0.7628 0.4477 0.26807 0.0
C2205 C 0.78485 0.43513 0.24458 0.0
N2206 N 0.72834 0.43767 0.2584 0.0
N2207 N 0.76866 0.43815 0.24053 0.0
H2208 H 0.0298 0.25701 0.08018 0.0
H2209 H 0.99839 0.22499 0.16787 0.0
H2210 H 0.04533 0.27714 0.12741 0.0
H2211 H 0.9796 0.20772 0.12069 0.0
H2212 H 0.0223 0.23746 0.15346 0.0
H2213 H 0.01833 0.23262 0.09469 0.0
C2214 C 0.03139 0.2559 0.09354 0.0
C2215 C 0.03851 0.26892 0.10268 0.0
C2216 C 0.01325 0.23048 0.14628 0.0
C2217 C 0.02499 0.24159 0.1194 0.0
C2218 C 0.99973 0.22324 0.15455 0.0
C2219 C 0.9872 0.21531 0.14539 0.0
C2220 C 0.01396 0.23002 0.12875 0.0
C2221 C 0.98916 0.21368 0.12813 0.0
C2222 C 0.02473 0.2421 0.10186 0.0
C2223 C 0.03997 0.26722 0.11999 0.0
N2224 N 0.00214 0.22123 0.12031 0.0
N2225 N 0.03301 0.25394 0.12783 0.0
H2226 H 0.97452 0.29405 0.37754 0.0
H2227 H 0.0456 0.22515 0.37481 0.0
H2228 H 0.99212 0.27036 0.33276 0.0
H2229 H 0.01986 0.24053 0.41928 0.0
H2230 H 0.03314 0.24863 0.35974 0.0
H2231 H 0.99786 0.28177 0.39296 0.0
C2232 C 0.98376 0.28683 0.37084 0.0
C2233 C 0.98161 0.28333 0.35388 0.0
C2234 C 0.03062 0.24722 0.37292 0.0
C2235 C 0.0079 0.26874 0.37145 0.0
C2236 C 0.03787 0.23394 0.38155 0.0
C2237 C 0.03386 0.23113 0.3983 0.0
C2238 C 0.01909 0.25756 0.38109 0.0
C2239 C 0.02341 0.2425 0.40641 0.0
C2240 C 0.99696 0.27967 0.37966 0.0
C2241 C 0.99356 0.27351 0.34581 0.0
N2242 N 0.01618 0.25511 0.39767 0.0
N2243 N 0.00609 0.26634 0.35472 0.0
H2244 H 0.97348 0.24396 0.5838 0.0
H2245 H 0.00854 0.2779 0.67 0.0
H2246 H 0.96424 0.2218 0.63178 0.0
H2247 H 0.02636 0.29324 0.6218 0.0
H2248 H 0.98462 0.26441 0.65653 0.0
H2249 H 0.98518 0.2686 0.59781 0.0
C2250 C 0.97336 0.2446 0.59728 0.0
C2251 C 0.96795 0.23098 0.60673 0.0
C2252 C 0.99345 0.27121 0.64892 0.0
C2253 C 0.98151 0.25872 0.62277 0.0
C2254 C 0.00697 0.27905 0.65664 0.0
C2255 C 0.01925 0.28671 0.64694 0.0
C2256 C 0.99247 0.27087 0.6314 0.0
C2257 C 0.01699 0.28752 0.62965 0.0
C2258 C 0.98012 0.25856 0.60528 0.0
C2259 C 0.96831 0.23216 0.62413 0.0
N2260 N 0.00401 0.27944 0.62238 0.0
N2261 N 0.97518 0.24569 0.63161 0.0
H2262 H 0.95111 0.26961 0.87818 0.0
H2263 H 0.00861 0.22746 0.83097 0.0
H2264 H 0.98965 0.2646 0.91517 0.0
H2265 H 0.02762 0.20756 0.87699 0.0
H2266 H 0.98515 0.23963 0.8462 0.0
H2267 H 0.96269 0.24546 0.86326 0.0
C2268 C 0.96164 0.26299 0.88345 0.0
C2269 C 0.96949 0.26894 0.89786 0.0
C2270 C 0.99393 0.23191 0.85292 0.0
C2271 C 0.98316 0.24197 0.8807 0.0
C2272 C 0.00731 0.22493 0.84417 0.0
C2273 C 0.01984 0.21639 0.85278 0.0
C2274 C 0.99342 0.23056 0.87042 0.0
C2275 C 0.01802 0.21393 0.86995 0.0
C2276 C 0.96841 0.24942 0.87481 0.0
C2277 C 0.98326 0.26027 0.90409 0.0
N2278 N 0.00527 0.22131 0.87827 0.0
N2279 N 0.98976 0.24731 0.89539 0.0
H2280 H 0.02457 0.74348 0.9183 0.0
H2281 H 0.97855 0.80025 0.87356 0.0
H2282 H 0.04159 0.7246 0.8711 0.0
H2283 H 0.98428 0.76367 0.83475 0.0
H2284 H 0.00308 0.78866 0.88775 0.0
H2285 H 0.01119 0.76679 0.90388 0.0
C2286 C 0.02617 0.74477 0.90496 0.0
C2287 C 0.03427 0.73232 0.89582 0.0
C2288 C 0.99918 0.78332 0.876 0.0
C2289 C 0.01877 0.75862 0.87909 0.0
C2290 C 0.98538 0.79015 0.86777 0.0
C2291 C 0.97957 0.78289 0.85299 0.0
C2292 C 0.00694 0.76904 0.86942 0.0
C2293 C 0.98852 0.76963 0.84609 0.0
C2294 C 0.01849 0.75806 0.89665 0.0
C2295 C 0.03556 0.73412 0.87853 0.0
N2296 N 0.00166 0.76302 0.85444 0.0
N2297 N 0.02761 0.74683 0.87069 0.0
H2298 H 0.52821 0.29117 0.11978 0.0
H2299 H 0.45716 0.22342 0.12751 0.0
H2300 H 0.50939 0.27222 0.16629 0.0
H2301 H 0.47991 0.23832 0.08129 0.0
H2302 H 0.46959 0.24766 0.14124 0.0
H2303 H 0.50442 0.27873 0.10529 0.0
C2304 C 0.51865 0.28492 0.12699 0.0
C2305 C 0.52057 0.28276 0.14419 0.0
C2306 C 0.47147 0.24597 0.12798 0.0
C2307 C 0.49376 0.26793 0.12773 0.0
C2308 C 0.46425 0.23223 0.12013 0.0
C2309 C 0.46747 0.22907 0.10328 0.0
C2310 C 0.48229 0.25635 0.11894 0.0
C2311 C 0.47703 0.24053 0.09428 0.0
C2312 C 0.50517 0.27769 0.11872 0.0
C2313 C 0.50816 0.27427 0.15301 0.0
N2314 N 0.48436 0.25355 0.1023 0.0
N2315 N 0.4954 0.26689 0.14463 0.0
H2316 H 0.95072 0.77096 0.38335 0.0
H2317 H 0.00787 0.73028 0.33423 0.0
H2318 H 0.98975 0.76549 0.41976 0.0
H2319 H 0.02773 0.7095 0.3795 0.0
H2320 H 0.98478 0.74228 0.35015 0.0
H2321 H 0.96248 0.74743 0.36764 0.0
C2322 C 0.9614 0.76436 0.38833 0.0
C2323 C 0.96931 0.77001 0.40283 0.0
C2324 C 0.99368 0.73444 0.35657 0.0
C2325 C 0.98321 0.74376 0.38473 0.0
C2326 C 0.00685 0.72757 0.34742 0.0
C2327 C 0.01948 0.71876 0.35561 0.0
C2328 C 0.99347 0.73272 0.37404 0.0
C2329 C 0.01804 0.71606 0.37278 0.0
C2330 C 0.96828 0.75115 0.37923 0.0
C2331 C 0.98329 0.76138 0.40865 0.0
N2332 N 0.00547 0.72332 0.38149 0.0
N2333 N 0.98989 0.74877 0.3995 0.0
H2334 H 0.54614 0.274 0.62411 0.0
H2335 H 0.47406 0.20653 0.61969 0.0
H2336 H 0.52038 0.25965 0.57931 0.0
H2337 H 0.49174 0.22919 0.66498 0.0
H2338 H 0.49797 0.21822 0.60475 0.0
H2339 H 0.53358 0.25026 0.63868 0.0
C2340 C 0.53841 0.26536 0.61718 0.0
C2341 C 0.53437 0.26856 0.60051 0.0
C2342 C 0.49695 0.22021 0.61806 0.0
C2343 C 0.5195 0.24186 0.61713 0.0
C2344 C 0.48341 0.2134 0.6266 0.0
C2345 C 0.48113 0.21683 0.64355 0.0
C2346 C 0.50807 0.23075 0.62653 0.0
C2347 C 0.49326 0.22614 0.65192 0.0
C2348 C 0.5311 0.25195 0.62552 0.0
C2349 C 0.52392 0.25739 0.59214 0.0
N2350 N 0.50611 0.23303 0.64326 0.0
N2351 N 0.51663 0.24465 0.60061 0.0
H2352 H 0.1274 0.04651 0.27328 0.0
H2353 H 0.12256 0.97504 0.20524 0.0
H2354 H 0.08217 0.02224 0.25772 0.0
H2355 H 0.16783 0.99177 0.22865 0.0
H2356 H 0.10789 0.99919 0.21681 0.0
H2357 H 0.14208 0.03381 0.24971 0.0
C2358 C 0.12042 0.03909 0.26441 0.0
C2359 C 0.10357 0.03551 0.26722 0.0
C2360 C 0.12115 0.99792 0.21899 0.0
C2361 C 0.12032 0.02043 0.24072 0.0
C2362 C 0.12954 0.98425 0.21224 0.0
C2363 C 0.1464 0.98162 0.2159 0.0
C2364 C 0.12966 0.00884 0.2297 0.0
C2365 C 0.15485 0.99356 0.2254 0.0
C2366 C 0.12882 0.03169 0.25108 0.0
C2367 C 0.09513 0.02544 0.25576 0.0
N2368 N 0.14633 0.00655 0.23221 0.0
N2369 N 0.10366 0.01802 0.24312 0.0
H2370 H 0.22761 0.33052 0.50731 0.0
H2371 H 0.25797 0.41816 0.47387 0.0
H2372 H 0.20891 0.3777 0.52469 0.0
H2373 H 0.27926 0.37098 0.45975 0.0
H2374 H 0.23393 0.4034 0.48575 0.0
H2375 H 0.24015 0.34466 0.4833 0.0
C2376 C 0.22557 0.34376 0.50564 0.0
C2377 C 0.21719 0.35301 0.51779 0.0
C2378 C 0.24359 0.39628 0.47959 0.0
C2379 C 0.232 0.36938 0.49092 0.0
C2380 C 0.2572 0.40473 0.47269 0.0
C2381 C 0.27044 0.3957 0.46583 0.0
C2382 C 0.24347 0.37872 0.47979 0.0
C2383 C 0.26917 0.37832 0.46491 0.0
C2384 C 0.23286 0.35188 0.49205 0.0
C2385 C 0.21521 0.37019 0.51541 0.0
N2386 N 0.25605 0.37036 0.47204 0.0
N2387 N 0.22282 0.37789 0.50239 0.0
H2388 H 0.83156 0.50498 0.72732 0.0
H2389 H 0.8807 0.44892 0.76945 0.0
H2390 H 0.87677 0.52386 0.70551 0.0
H2391 H 0.91667 0.48827 0.76337 0.0
H2392 H 0.86511 0.45985 0.74543 0.0
H2393 H 0.84747 0.4822 0.73994 0.0
C2394 C 0.84471 0.50377 0.7245 0.0
C2395 C 0.8529 0.51607 0.71523 0.0
C2396 C 0.87659 0.46589 0.74912 0.0
C2397 C 0.87131 0.49045 0.72994 0.0
C2398 C 0.88562 0.45948 0.76262 0.0
C2399 C 0.89995 0.46774 0.76824 0.0
C2400 C 0.882 0.48065 0.74137 0.0
C2401 C 0.90568 0.48156 0.7593 0.0
C2402 C 0.85385 0.49079 0.73174 0.0
C2403 C 0.87004 0.51441 0.71242 0.0
N2404 N 0.89662 0.48768 0.74639 0.0
N2405 N 0.87875 0.50208 0.72007 0.0
H2406 H 0.79475 0.13685 0.02411 0.0
H2407 H 0.71412 0.13342 0.96591 0.0
H2408 H 0.75419 0.17198 0.02507 0.0
H2409 H 0.74258 0.08976 0.9787 0.0
H2410 H 0.73503 0.15085 0.97956 0.0
H2411 H 0.78166 0.12288 1.00007 0.0
C2412 C 0.78345 0.14199 0.0188 0.0
C2413 C 0.77553 0.15561 0.02638 0.0
C2414 C 0.73698 0.1375 0.97901 0.0
C2415 C 0.76054 0.13977 0.99924 0.0
C2416 C 0.72514 0.12758 0.97111 0.0
C2417 C 0.72677 0.11021 0.97114 0.0
C2418 C 0.75044 0.12997 0.98726 0.0
C2419 C 0.74106 0.10316 0.97829 0.0
C2420 C 0.77592 0.13395 0.00525 0.0
C2421 C 0.7607 0.16158 0.01944 0.0
N2422 N 0.75228 0.11307 0.98633 0.0
N2423 N 0.75363 0.15358 0.00632 0.0
H2424 H 0.12218 0.03211 0.78912 0.0
H2425 H 0.11969 0.95539 0.72603 0.0
H2426 H 0.16602 0.01043 0.76706 0.0
H2427 H 0.08123 0.9925 0.73093 0.0
H2428 H 0.13446 0.96799 0.74977 0.0
H2429 H 0.10526 0.00983 0.77687 0.0
C2430 C 0.1283 0.0222 0.78228 0.0
C2431 C 0.14546 0.0229 0.77917 0.0
C2432 C 0.1225 0.97299 0.746 0.0
C2433 C 0.12625 0.99776 0.76481 0.0
C2434 C 0.11401 0.96573 0.73262 0.0
C2435 C 0.09922 0.97291 0.72673 0.0
C2436 C 0.11598 0.98738 0.75353 0.0
C2437 C 0.09255 0.98657 0.73527 0.0
C2438 C 0.11865 0.00961 0.77518 0.0
C2439 C 0.15283 0.01011 0.76987 0.0
N2440 N 0.10105 0.99346 0.74819 0.0
N2441 N 0.14313 0.99812 0.76279 0.0
H2442 H 0.2275 0.37364 0.04452 0.0
H2443 H 0.29821 0.37513 0.97523 0.0
H2444 H 0.24349 0.41756 0.01821 0.0
H2445 H 0.27142 0.33125 0.99053 0.0
H2446 H 0.28605 0.39047 0.99869 0.0
H2447 H 0.25114 0.35824 0.03276 0.0
C2448 C 0.23646 0.3802 0.03684 0.0
C2449 C 0.23376 0.39686 0.03241 0.0
C2450 C 0.28327 0.37734 0.99728 0.0
C2451 C 0.26039 0.37932 0.01852 0.0
C2452 C 0.29034 0.36856 0.98402 0.0
C2453 C 0.28589 0.35192 0.98117 0.0
C2454 C 0.27154 0.36942 0.00757 0.0
C2455 C 0.27528 0.34403 0.99253 0.0
C2456 C 0.24983 0.37139 0.03 0.0
C2457 C 0.24536 0.40476 0.02205 0.0
N2458 N 0.26826 0.35292 0.00513 0.0
N2459 N 0.25807 0.39584 0.01524 0.0
H2460 H 0.91908 0.52149 0.24178 0.0
H2461 H 0.86997 0.48021 0.29878 0.0
H2462 H 0.87352 0.54078 0.22108 0.0
H2463 H 0.83453 0.48364 0.25864 0.0
H2464 H 0.88526 0.50399 0.28693 0.0
H2465 H 0.90314 0.5092 0.26473 0.0
C2466 C 0.90581 0.52383 0.24258 0.0
C2467 C 0.89755 0.53228 0.22975 0.0
C2468 C 0.87396 0.49976 0.2809 0.0
C2469 C 0.87914 0.51798 0.25558 0.0
C2470 C 0.8651 0.48641 0.28782 0.0
C2471 C 0.85102 0.48011 0.27963 0.0
C2472 C 0.86861 0.50669 0.26571 0.0
C2473 C 0.84533 0.48825 0.2653 0.0
C2474 C 0.89665 0.51679 0.25566 0.0
C2475 C 0.88029 0.5345 0.23092 0.0
N2476 N 0.85422 0.50104 0.25872 0.0
N2477 N 0.8716 0.52707 0.24339 0.0
H2478 H 0.77762 0.13321 0.54286 0.0
H2479 H 0.70025 0.12866 0.48187 0.0
H2480 H 0.75565 0.08764 0.52499 0.0
H2481 H 0.72822 0.17321 0.49232 0.0
H2482 H 0.71389 0.1148 0.50539 0.0
H2483 H 0.75358 0.14875 0.53229 0.0
C2484 C 0.76739 0.12645 0.53719 0.0
C2485 C 0.76844 0.1092 0.53479 0.0
C2486 C 0.71664 0.12778 0.50294 0.0
C2487 C 0.74125 0.12684 0.52222 0.0
C2488 C 0.7087 0.13574 0.48966 0.0
C2489 C 0.71306 0.15209 0.48537 0.0
C2490 C 0.72924 0.13619 0.51171 0.0
C2491 C 0.72441 0.16065 0.49545 0.0
C2492 C 0.75374 0.13531 0.53108 0.0
C2493 C 0.75513 0.10096 0.52715 0.0
N2494 N 0.73236 0.15249 0.50801 0.0
N2495 N 0.74215 0.1099 0.52087 0.0
H2496 H 0.22369 0.16899 0.99242 0.0
H2497 H 0.25615 0.08205 0.02677 0.0
H2498 H 0.20902 0.12109 0.97321 0.0
H2499 H 0.27753 0.12977 0.03879 0.0
H2500 H 0.23193 0.09633 0.0146 0.0
H2501 H 0.23613 0.15509 0.01669 0.0
C2502 C 0.22248 0.1556 0.99372 0.0
C2503 C 0.21534 0.1461 0.98097 0.0
C2504 C 0.24167 0.10368 0.02038 0.0
C2505 C 0.22991 0.13011 0.00819 0.0
C2506 C 0.25538 0.09552 0.02743 0.0
C2507 C 0.26869 0.10483 0.03374 0.0
C2508 C 0.24149 0.12122 0.01956 0.0
C2509 C 0.26739 0.12223 0.03403 0.0
C2510 C 0.2297 0.14764 0.00745 0.0
C2511 C 0.21439 0.12878 0.98292 0.0
N2512 N 0.25415 0.12989 0.02681 0.0
N2513 N 0.22184 0.12129 0.99614 0.0
H2514 H 0.706 0.87676 0.52694 0.0
H2515 H 0.77647 0.87597 0.4574 0.0
H2516 H 0.73243 0.83292 0.51091 0.0
H2517 H 0.76046 0.91961 0.48417 0.0
H2518 H 0.75291 0.8604 0.46912 0.0
H2519 H 0.71814 0.89235 0.50365 0.0
C2520 C 0.71379 0.87026 0.51803 0.0
C2521 C 0.71814 0.85356 0.52063 0.0
C2522 C 0.75421 0.87353 0.472 0.0
C2523 C 0.7325 0.87133 0.49442 0.0
C2524 C 0.76753 0.88243 0.46519 0.0
C2525 C 0.77019 0.89906 0.46976 0.0
C2526 C 0.74365 0.88133 0.48358 0.0
C2527 C 0.75862 0.90683 0.48024 0.0
C2528 C 0.72086 0.87918 0.50487 0.0
C2529 C 0.72865 0.84575 0.50911 0.0
N2530 N 0.74595 0.89783 0.48699 0.0
N2531 N 0.73569 0.85477 0.49661 0.0
H2532 H 0.33459 0.00838 0.7255 0.0
H2533 H 0.42204 0.97596 0.7583 0.0
H2534 H 0.38211 0.02863 0.71103 0.0
H2535 H 0.37451 0.96096 0.77815 0.0
H2536 H 0.40774 0.98828 0.73421 0.0
H2537 H 0.34895 0.9843 0.73779 0.0
C2538 C 0.348 0.00736 0.72432 0.0
C2539 C 0.35725 0.02033 0.71724 0.0
C2540 C 0.40045 0.98183 0.74356 0.0
C2541 C 0.37377 0.99332 0.73166 0.0
C2542 C 0.40864 0.97467 0.75719 0.0
C2543 C 0.39937 0.96743 0.77005 0.0
C2544 C 0.3829 0.98191 0.74303 0.0
C2545 C 0.38203 0.96639 0.76834 0.0
C2546 C 0.35622 0.99374 0.73146 0.0
C2547 C 0.37461 0.01874 0.71634 0.0
N2548 N 0.37431 0.97379 0.75522 0.0
N2549 N 0.38235 0.00561 0.7237 0.0
H2550 H 0.22685 0.62723 0.95279 0.0
H2551 H 0.29571 0.62438 0.0238 0.0
H2552 H 0.24216 0.58283 0.97873 0.0
H2553 H 0.27014 0.66875 0.00783 0.0
H2554 H 0.28409 0.60933 0.99988 0.0
H2555 H 0.25039 0.6423 0.96516 0.0
C2556 C 0.23566 0.62049 0.96052 0.0
C2557 C 0.23278 0.60379 0.96468 0.0
C2558 C 0.28147 0.6225 0.00127 0.0
C2559 C 0.25926 0.62097 0.97929 0.0
C2560 C 0.28822 0.63111 0.0148 0.0
C2561 C 0.28395 0.6478 0.01757 0.0
C2562 C 0.2702 0.63065 0.99062 0.0
C2563 C 0.27385 0.65592 0.00591 0.0
C2564 C 0.24896 0.62912 0.96771 0.0
C2565 C 0.24417 0.59568 0.9751 0.0
N2566 N 0.2671 0.64719 0.99304 0.0
N2567 N 0.2568 0.60441 0.98227 0.0
H2568 H 0.74 0.91898 0.02844 0.0
H2569 H 0.77314 0.83241 0.99351 0.0
H2570 H 0.71851 0.87109 0.03956 0.0
H2571 H 0.78795 0.8805 0.9749 0.0
H2572 H 0.76018 0.84609 0.01763 0.0
H2573 H 0.76431 0.90486 0.01624 0.0
C2574 C 0.74077 0.90551 0.02892 0.0
C2575 C 0.7274 0.89611 0.035 0.0
C2576 C 0.76674 0.85363 0.00856 0.0
C2577 C 0.75471 0.87992 0.02076 0.0
C2578 C 0.77427 0.84579 0.99492 0.0
C2579 C 0.78164 0.8554 0.98239 0.0
C2580 C 0.76645 0.87116 0.00943 0.0
C2581 C 0.78243 0.87272 0.98446 0.0
C2582 C 0.75452 0.89744 0.02183 0.0
C2583 C 0.72869 0.8787 0.03501 0.0
N2584 N 0.7747 0.88009 0.99759 0.0
N2585 N 0.74199 0.87114 0.02778 0.0
H2586 H 0.33295 0.49274 0.77764 0.0
H2587 H 0.41921 0.52761 0.7439 0.0
H2588 H 0.38116 0.47385 0.79168 0.0
H2589 H 0.37114 0.53878 0.72283 0.0
H2590 H 0.40531 0.51549 0.76836 0.0
H2591 H 0.34652 0.51702 0.76489 0.0
C2592 C 0.34634 0.49412 0.77866 0.0
C2593 C 0.35602 0.48145 0.78572 0.0
C2594 C 0.3978 0.52108 0.75864 0.0
C2595 C 0.37164 0.50868 0.77076 0.0
C2596 C 0.40575 0.5281 0.74479 0.0
C2597 C 0.39623 0.53416 0.73149 0.0
C2598 C 0.38028 0.52004 0.75899 0.0
C2599 C 0.37884 0.53423 0.73295 0.0
C2600 C 0.35412 0.50785 0.77125 0.0
C2601 C 0.37334 0.4835 0.7864 0.0
N2602 N 0.3714 0.52705 0.74633 0.0
N2603 N 0.38064 0.49672 0.77876 0.0
H2604 H 0.62217 0.9529 0.22537 0.0
H2605 H 0.66899 0.01637 0.25765 0.0
H2606 H 0.58378 0.98775 0.23922 0.0
H2607 H 0.63221 0.02035 0.29651 0.0
H2608 H 0.65353 0.99286 0.24579 0.0
H2609 H 0.64036 0.96478 0.24697 0.0
C2610 C 0.61733 0.96252 0.23352 0.0
C2611 C 0.6015 0.96933 0.23072 0.0
C2612 C 0.64918 0.99842 0.25729 0.0
C2613 C 0.62219 0.98316 0.25493 0.0
C2614 C 0.65798 0.01183 0.264 0.0
C2615 C 0.65192 0.02003 0.27814 0.0
C2616 C 0.6339 0.99369 0.26443 0.0
C2617 C 0.63736 0.01407 0.28573 0.0
C2618 C 0.62775 0.96941 0.24564 0.0
C2619 C 0.59588 0.9821 0.2412 0.0
N2620 N 0.62851 0.00155 0.27847 0.0
N2621 N 0.6063 0.98875 0.25278 0.0
H2622 H 0.0275 0.75236 0.5864 0.0
H2623 H 0.98295 0.69572 0.63252 0.0
H2624 H 0.04484 0.77233 0.63305 0.0
H2625 H 0.98778 0.73364 0.67015 0.0
H2626 H 0.00743 0.70723 0.61816 0.0
H2627 H 0.01471 0.72909 0.60139 0.0
C2628 C 0.02931 0.75133 0.59974 0.0
C2629 C 0.03732 0.76407 0.60855 0.0
C2630 C 0.00335 0.71286 0.62971 0.0
C2631 C 0.02247 0.73782 0.62592 0.0
C2632 C 0.98959 0.70609 0.63806 0.0
C2633 C 0.9835 0.71378 0.6525 0.0
C2634 C 0.01083 0.72748 0.63588 0.0
C2635 C 0.99222 0.72737 0.65906 0.0
C2636 C 0.02197 0.73805 0.60836 0.0
C2637 C 0.03888 0.76258 0.62586 0.0
N2638 N 0.00534 0.73389 0.65061 0.0
N2639 N 0.03122 0.74989 0.63401 0.0
H2640 H 0.00793 0.7755 0.16733 0.0
H2641 H 0.97616 0.74144 0.08005 0.0
H2642 H 0.02894 0.78882 0.11981 0.0
H2643 H 0.96045 0.72245 0.12769 0.0
H2644 H 0.98869 0.76554 0.09412 0.0
H2645 H 0.984 0.76299 0.15289 0.0
C2646 C 0.00712 0.77637 0.15388 0.0
C2647 C 0.02025 0.78321 0.14467 0.0
C2648 C 0.98205 0.75639 0.10147 0.0
C2649 C 0.9934 0.76856 0.12808 0.0
C2650 C 0.97476 0.74275 0.09341 0.0
C2651 C 0.96723 0.73013 0.10278 0.0
C2652 C 0.98197 0.75716 0.11901 0.0
C2653 C 0.96608 0.73208 0.12009 0.0
C2654 C 0.99358 0.76912 0.14562 0.0
C2655 C 0.01893 0.78372 0.12728 0.0
N2656 N 0.9736 0.74521 0.12769 0.0
N2657 N 0.00586 0.77626 0.11951 0.0
H2658 H 0.45595 0.72553 0.62948 0.0
H2659 H 0.52597 0.79494 0.62368 0.0
H2660 H 0.47869 0.74208 0.58381 0.0
H2661 H 0.5105 0.77094 0.66908 0.0
H2662 H 0.50174 0.78304 0.60938 0.0
H2663 H 0.46851 0.74922 0.64408 0.0
C2664 C 0.46302 0.73462 0.62242 0.0
C2665 C 0.46622 0.73206 0.60546 0.0
C2666 C 0.50331 0.78079 0.62259 0.0
C2667 C 0.48114 0.75871 0.62209 0.0
C2668 C 0.51703 0.78771 0.63077 0.0
C2669 C 0.52002 0.78398 0.64754 0.0
C2670 C 0.49274 0.76985 0.63125 0.0
C2671 C 0.50842 0.77422 0.65615 0.0
C2672 C 0.47033 0.74802 0.63076 0.0
C2673 C 0.4758 0.74383 0.59688 0.0
N2674 N 0.49539 0.76726 0.64784 0.0
N2675 N 0.48317 0.75653 0.60535 0.0
H2676 H 0.47399 0.70506 0.12209 0.0
H2677 H 0.54248 0.77562 0.12871 0.0
H2678 H 0.49082 0.72688 0.1681 0.0
H2679 H 0.51984 0.75936 0.08289 0.0
H2680 H 0.53094 0.75116 0.14286 0.0
H2681 H 0.49769 0.71774 0.10764 0.0
C2682 C 0.48314 0.71195 0.12925 0.0
C2683 C 0.48065 0.71486 0.14627 0.0
C2684 C 0.52892 0.75261 0.1296 0.0
C2685 C 0.5073 0.72998 0.12981 0.0
C2686 C 0.53564 0.76647 0.12151 0.0
C2687 C 0.53217 0.76931 0.10464 0.0
C2688 C 0.51839 0.74175 0.12078 0.0
C2689 C 0.52291 0.75741 0.09589 0.0
C2690 C 0.49655 0.71933 0.12099 0.0
C2691 C 0.49251 0.72421 0.15498 0.0
N2692 N 0.51609 0.74426 0.10413 0.0
N2693 N 0.50519 0.73171 0.1466 0.0
H2694 H 0.08419 0.52334 0.756 0.0
H2695 H 0.13183 0.48166 0.69847 0.0
H2696 H 0.12998 0.54395 0.77482 0.0
H2697 H 0.16914 0.48742 0.73659 0.0
H2698 H 0.11657 0.50551 0.71018 0.0
H2699 H 0.09958 0.51107 0.7327 0.0
C2700 C 0.09738 0.52595 0.75471 0.0
C2701 C 0.10587 0.53478 0.76711 0.0
C2702 C 0.12826 0.50178 0.71579 0.0
C2703 C 0.1237 0.52053 0.74085 0.0
C2704 C 0.1371 0.4884 0.70892 0.0
C2705 C 0.15172 0.48273 0.71661 0.0
C2706 C 0.13413 0.50933 0.73049 0.0
C2707 C 0.15793 0.49154 0.7303 0.0
C2708 C 0.10622 0.51893 0.74141 0.0
C2709 C 0.12303 0.53736 0.76531 0.0
N2710 N 0.14901 0.50431 0.73692 0.0
N2711 N 0.13145 0.52996 0.75264 0.0
H2712 H 0.22254 0.83394 0.00755 0.0
H2713 H 0.25738 0.92037 0.97386 0.0
H2714 H 0.21325 0.88179 0.02996 0.0
H2715 H 0.27543 0.87222 0.95859 0.0
H2716 H 0.2335 0.9068 0.98735 0.0
H2717 H 0.23414 0.84809 0.98295 0.0
C2718 C 0.22235 0.84743 0.00696 0.0
C2719 C 0.21697 0.85679 0.02065 0.0
C2720 C 0.24238 0.89923 0.98057 0.0
C2721 C 0.23046 0.87301 0.99297 0.0
C2722 C 0.25587 0.907 0.97273 0.0
C2723 C 0.26821 0.89734 0.96509 0.0
C2724 C 0.24145 0.8817 0.98089 0.0
C2725 C 0.26602 0.88004 0.9643 0.0
C2726 C 0.22908 0.85551 0.99303 0.0
C2727 C 0.21728 0.87421 0.01955 0.0
N2728 N 0.25305 0.87272 0.97235 0.0
N2729 N 0.22413 0.88177 0.00605 0.0
H2730 H 0.87275 0.95652 0.27862 0.0
H2731 H 0.88034 0.02683 0.21018 0.0
H2732 H 0.91914 0.97681 0.26094 0.0
H2733 H 0.83394 0.0102 0.23133 0.0
H2734 H 0.89426 0.00236 0.2219 0.0
H2735 H 0.85833 0.96939 0.255 0.0
C2736 C 0.87998 0.96311 0.2693 0.0
C2737 C 0.89712 0.96553 0.27152 0.0
C2738 C 0.88094 0.00374 0.22359 0.0
C2739 C 0.88071 0.98089 0.24496 0.0
C2740 C 0.87299 0.01762 0.21678 0.0
C2741 C 0.85601 0.02035 0.21975 0.0
C2742 C 0.87189 0.99276 0.23379 0.0
C2743 C 0.84704 0.00835 0.22866 0.0
C2744 C 0.87174 0.9706 0.25593 0.0
C2745 C 0.90593 0.97452 0.25946 0.0
N2746 N 0.85515 0.99519 0.23565 0.0
N2747 N 0.89757 0.98213 0.24682 0.0
H2748 H 0.80128 0.62915 0.5187 0.0
H2749 H 0.74245 0.58396 0.47619 0.0
H2750 H 0.76422 0.66774 0.51472 0.0
H2751 H 0.72217 0.63096 0.46018 0.0
H2752 H 0.76649 0.5986 0.4879 0.0
H2753 H 0.78864 0.6149 0.49474 0.0
C2754 C 0.79085 0.6349 0.51234 0.0
C2755 C 0.78373 0.64959 0.51854 0.0
C2756 C 0.75726 0.60573 0.48115 0.0
C2757 C 0.76872 0.63311 0.49185 0.0
C2758 C 0.74353 0.5973 0.47444 0.0
C2759 C 0.7305 0.60633 0.46716 0.0
C2760 C 0.75769 0.62329 0.48072 0.0
C2761 C 0.73211 0.62362 0.46563 0.0
C2762 C 0.78343 0.62663 0.49888 0.0
C2763 C 0.77006 0.65645 0.51018 0.0
N2764 N 0.74528 0.63158 0.47264 0.0
N2765 N 0.76289 0.64806 0.49738 0.0
H2766 H 0.08288 0.47221 0.2415 0.0
H2767 H 0.16758 0.50861 0.27779 0.0
H2768 H 0.13173 0.46169 0.22197 0.0
H2769 H 0.11875 0.52858 0.2876 0.0
H2770 H 0.15457 0.4838 0.26537 0.0
H2771 H 0.09585 0.48494 0.26616 0.0
C2772 C 0.09632 0.47196 0.24279 0.0
C2773 C 0.10633 0.46595 0.22984 0.0
C2774 C 0.1467 0.49336 0.27074 0.0
C2775 C 0.1212 0.48075 0.25755 0.0
C2776 C 0.15413 0.5074 0.27794 0.0
C2777 C 0.14415 0.5205 0.28365 0.0
C2778 C 0.12923 0.49261 0.26923 0.0
C2779 C 0.1268 0.51863 0.28329 0.0
C2780 C 0.10373 0.47934 0.25674 0.0
C2781 C 0.12367 0.4662 0.23181 0.0
N2782 N 0.11986 0.50505 0.27597 0.0
N2783 N 0.13059 0.47372 0.24529 0.0
H2784 H 0.24542 0.91645 0.5284 0.0
H2785 H 0.27988 0.82991 0.49537 0.0
H2786 H 0.22473 0.86834 0.54009 0.0
H2787 H 0.29421 0.87785 0.47604 0.0
H2788 H 0.26717 0.84378 0.51948 0.0
H2789 H 0.2703 0.90259 0.51705 0.0
C2790 C 0.24646 0.90301 0.52916 0.0
C2791 C 0.23313 0.89344 0.53507 0.0
C2792 C 0.27359 0.85126 0.51027 0.0
C2793 C 0.26112 0.87755 0.52191 0.0
C2794 C 0.28098 0.84331 0.49663 0.0
C2795 C 0.28808 0.85282 0.48387 0.0
C2796 C 0.27312 0.8688 0.51088 0.0
C2797 C 0.28888 0.87016 0.48576 0.0
C2798 C 0.26055 0.89509 0.52259 0.0
C2799 C 0.23482 0.87607 0.53557 0.0
N2800 N 0.28121 0.87764 0.49887 0.0
N2801 N 0.24845 0.86866 0.52884 0.0
H2802 H 0.83296 0.99395 0.77571 0.0
H2803 H 0.88095 0.04988 0.73228 0.0
H2804 H 0.8789 0.97088 0.79102 0.0
H2805 H 0.91722 0.01046 0.73524 0.0
H2806 H 0.86641 0.03801 0.75643 0.0
H2807 H 0.84887 0.01686 0.76338 0.0
C2808 C 0.84638 0.99419 0.77717 0.0
C2809 C 0.8547 0.98071 0.78447 0.0
C2810 C 0.8777 0.03209 0.75203 0.0
C2811 C 0.8731 0.00658 0.77018 0.0
C2812 C 0.88617 0.03907 0.73847 0.0
C2813 C 0.90029 0.03113 0.73195 0.0
C2814 C 0.88337 0.01696 0.75884 0.0
C2815 C 0.90642 0.01698 0.74006 0.0
C2816 C 0.85553 0.00726 0.7701 0.0
C2817 C 0.8721 0.98121 0.7856 0.0
N2818 N 0.89782 0.01023 0.75297 0.0
N2819 N 0.88074 0.99375 0.77824 0.0
H2820 H 0.77667 0.62612 0.04484 0.0
H2821 H 0.70559 0.62397 0.97587 0.0
H2822 H 0.75964 0.58164 0.02017 0.0
H2823 H 0.73306 0.66779 0.99012 0.0
H2824 H 0.71773 0.60893 0.99957 0.0
H2825 H 0.75329 0.64157 0.03266 0.0
C2826 C 0.76754 0.61948 0.03743 0.0
C2827 C 0.76987 0.60262 0.03359 0.0
C2828 C 0.72068 0.622 0.99786 0.0
C2829 C 0.74355 0.62022 0.01917 0.0
C2830 C 0.71363 0.6306 0.98447 0.0
C2831 C 0.71826 0.64712 0.98127 0.0
C2832 C 0.73255 0.62998 0.00795 0.0
C2833 C 0.72906 0.6551 0.99238 0.0
C2834 C 0.75432 0.62831 0.03034 0.0
C2835 C 0.75806 0.59461 0.02356 0.0
N2836 N 0.73603 0.64638 0.00514 0.0
N2837 N 0.7455 0.60354 0.01648 0.0
H2838 H 0.22393 0.66846 0.49249 0.0
H2839 H 0.25849 0.58145 0.52489 0.0
H2840 H 0.21208 0.62077 0.47095 0.0
H2841 H 0.2775 0.62931 0.53992 0.0
H2842 H 0.2344 0.59538 0.51212 0.0
H2843 H 0.2363 0.65413 0.51658 0.0
C2844 C 0.22334 0.65499 0.49321 0.0
C2845 C 0.21699 0.6457 0.47989 0.0
C2846 C 0.24356 0.60281 0.51868 0.0
C2847 C 0.23143 0.62926 0.50694 0.0
C2848 C 0.25718 0.59484 0.52609 0.0
C2849 C 0.26981 0.60431 0.53348 0.0
C2850 C 0.2428 0.62035 0.51852 0.0
C2851 C 0.26787 0.62164 0.53439 0.0
C2852 C 0.23052 0.6468 0.50684 0.0
C2853 C 0.21683 0.62829 0.4811 0.0
N2854 N 0.25475 0.62915 0.52676 0.0
N2855 N 0.22417 0.62061 0.49428 0.0
H2856 H 0.75609 0.4171 0.96814 0.0
H2857 H 0.72458 0.33187 0.00753 0.0
H2858 H 0.77922 0.36926 0.96066 0.0
H2859 H 0.70972 0.38074 0.02398 0.0
H2860 H 0.73703 0.34445 0.98253 0.0
H2861 H 0.73183 0.40303 0.9805 0.0
C2862 C 0.75571 0.4036 0.96848 0.0
C2863 C 0.76954 0.39424 0.96347 0.0
C2864 C 0.73055 0.35237 0.99133 0.0
C2865 C 0.74227 0.37816 0.97784 0.0
C2866 C 0.72333 0.34515 0.00548 0.0
C2867 C 0.7162 0.35535 0.0177 0.0
C2868 C 0.73066 0.36984 0.98959 0.0
C2869 C 0.71516 0.37253 0.01474 0.0
C2870 C 0.74198 0.39558 0.97565 0.0
C2871 C 0.76871 0.37683 0.96444 0.0
N2872 N 0.72254 0.37928 0.00111 0.0
N2873 N 0.75541 0.36934 0.97173 0.0
H2874 H 0.37389 0.52458 0.20359 0.0
H2875 H 0.37273 0.45612 0.27523 0.0
H2876 H 0.3303 0.51017 0.23132 0.0
H2877 H 0.4167 0.48191 0.25855 0.0
H2878 H 0.35716 0.4679 0.25172 0.0
H2879 H 0.38924 0.50124 0.21603 0.0
C2880 C 0.36737 0.51601 0.21174 0.0
C2881 C 0.35082 0.51907 0.21635 0.0
C2882 C 0.37035 0.47055 0.25286 0.0
C2883 C 0.36832 0.4928 0.23098 0.0
C2884 C 0.37925 0.46369 0.26615 0.0
C2885 C 0.39599 0.46796 0.26861 0.0
C2886 C 0.37825 0.48188 0.24212 0.0
C2887 C 0.40383 0.47819 0.25687 0.0
C2888 C 0.37616 0.50283 0.21896 0.0
C2889 C 0.343 0.508 0.22732 0.0
N2890 N 0.39483 0.48501 0.24422 0.0
N2891 N 0.35189 0.49545 0.23445 0.0
H2892 H 0.22713 0.11999 0.45501 0.0
H2893 H 0.29356 0.12103 0.52881 0.0
H2894 H 0.23625 0.07935 0.48884 0.0
H2895 H 0.27009 0.16508 0.50911 0.0
H2896 H 0.28111 0.10459 0.5063 0.0
H2897 H 0.25095 0.13503 0.46709 0.0
C2898 C 0.23464 0.11396 0.46448 0.0
C2899 C 0.22995 0.0984 0.47089 0.0
C2900 C 0.27915 0.11794 0.50654 0.0
C2901 C 0.25683 0.11551 0.48487 0.0
C2902 C 0.28639 0.12734 0.51925 0.0
C2903 C 0.28295 0.1444 0.52061 0.0
C2904 C 0.26824 0.12567 0.49526 0.0
C2905 C 0.2732 0.15197 0.50827 0.0
C2906 C 0.24808 0.12259 0.47146 0.0
C2907 C 0.23967 0.09126 0.48349 0.0
N2908 N 0.26595 0.1425 0.4962 0.0
N2909 N 0.25258 0.09994 0.49018 0.0
H2910 H 0.77016 0.3303 0.49073 0.0
H2911 H 0.72999 0.37886 0.54893 0.0
H2912 H 0.79305 0.37551 0.47319 0.0
H2913 H 0.73653 0.41593 0.5107 0.0
H2914 H 0.75329 0.36288 0.53703 0.0
H2915 H 0.75792 0.34584 0.51398 0.0
C2916 C 0.77327 0.34335 0.49231 0.0
C2917 C 0.78277 0.35166 0.48027 0.0
C2918 C 0.74986 0.37467 0.53146 0.0
C2919 C 0.76853 0.36966 0.50644 0.0
C2920 C 0.73679 0.38392 0.53842 0.0
C2921 C 0.7315 0.3987 0.53076 0.0
C2922 C 0.75753 0.38034 0.51674 0.0
C2923 C 0.74037 0.40461 0.51697 0.0
C2924 C 0.76626 0.35227 0.50556 0.0
C2925 C 0.78596 0.36868 0.48242 0.0
N2926 N 0.75286 0.39534 0.51031 0.0
N2927 N 0.77855 0.3772 0.49502 0.0
H2928 H 0.4148 0.02822 0.24559 0.0
H2929 H 0.32867 0.99351 0.27898 0.0
H2930 H 0.36674 0.0395 0.22455 0.0
H2931 H 0.37687 0.97561 0.29431 0.0
H2932 H 0.34208 0.01794 0.26638 0.0
H2933 H 0.40091 0.01673 0.27035 0.0
C2934 C 0.40134 0.02888 0.24654 0.0
C2935 C 0.39182 0.03474 0.23317 0.0
C2936 C 0.3497 0.00897 0.27299 0.0
C2937 C 0.37588 0.02131 0.26098 0.0
C2938 C 0.34201 0.99515 0.28031 0.0
C2939 C 0.35175 0.9827 0.28767 0.0
C2940 C 0.36721 0.01008 0.27285 0.0
C2941 C 0.36901 0.98508 0.28877 0.0
C2942 C 0.3934 0.02222 0.26056 0.0
C2943 C 0.37444 0.03506 0.23472 0.0
N2944 N 0.37625 0.99836 0.28117 0.0
N2945 N 0.367 0.02819 0.24826 0.0
H2946 H 0.58128 0.47267 0.74332 0.0
H2947 H 0.66784 0.50631 0.77792 0.0
H2948 H 0.62936 0.45901 0.72383 0.0
H2949 H 0.61985 0.52701 0.79006 0.0
H2950 H 0.65386 0.48213 0.76534 0.0
H2951 H 0.59507 0.48546 0.76748 0.0
C2952 C 0.5947 0.47176 0.74453 0.0
C2953 C 0.60427 0.46475 0.73175 0.0
C2954 C 0.64639 0.4917 0.77123 0.0
C2955 C 0.62012 0.47974 0.75886 0.0
C2956 C 0.65438 0.50538 0.77854 0.0
C2957 C 0.64491 0.5185 0.78504 0.0
C2958 C 0.62886 0.49134 0.77034 0.0
C2959 C 0.62752 0.51701 0.78521 0.0
C2960 C 0.60259 0.4792 0.75819 0.0
C2961 C 0.62162 0.46424 0.73357 0.0
N2962 N 0.62003 0.5038 0.77775 0.0
N2963 N 0.62903 0.47186 0.74675 0.0
H2964 H 0.49364 0.27019 0.83298 0.0
H2965 H 0.51075 0.23603 0.92048 0.0
H2966 H 0.47338 0.29352 0.87681 0.0
H2967 H 0.54521 0.22744 0.88029 0.0
H2968 H 0.50018 0.26061 0.90587 0.0
H2969 H 0.51595 0.25813 0.85004 0.0
C2970 C 0.49439 0.27337 0.84608 0.0
C2971 C 0.48187 0.28292 0.85356 0.0
C2972 C 0.51046 0.25374 0.90045 0.0
C2973 C 0.50668 0.26861 0.87326 0.0
C2974 C 0.51654 0.23979 0.90887 0.0
C2975 C 0.52892 0.22993 0.9016 0.0
C2976 C 0.51635 0.25737 0.88434 0.0
C2977 C 0.53577 0.23495 0.88634 0.0
C2978 C 0.50702 0.26641 0.85586 0.0
C2979 C 0.48299 0.28633 0.87064 0.0
N2980 N 0.52909 0.2481 0.87797 0.0
N2981 N 0.49495 0.27887 0.88001 0.0
H2982 H 0.50649 0.2252 0.32817 0.0
H2983 H 0.47275 0.2571 0.41539 0.0
H2984 H 0.52351 0.20708 0.3757 0.0
H2985 H 0.46129 0.27938 0.36795 0.0
H2986 H 0.4841 0.23266 0.40081 0.0
H2987 H 0.48274 0.23852 0.34207 0.0
C2988 C 0.50477 0.22343 0.34145 0.0
C2989 C 0.51678 0.21499 0.35086 0.0
C2990 C 0.47863 0.24266 0.39359 0.0
C2991 C 0.49022 0.2307 0.36694 0.0
C2992 C 0.47204 0.2565 0.40193 0.0
C2993 C 0.46611 0.27012 0.39278 0.0
C2994 C 0.47938 0.24264 0.37604 0.0
C2995 C 0.46575 0.26902 0.37537 0.0
C2996 C 0.49135 0.23118 0.34943 0.0
C2997 C 0.51434 0.2134 0.36807 0.0
N2998 N 0.47252 0.25563 0.36755 0.0
N2999 N 0.50149 0.22144 0.37562 0.0
H3000 H 0.49329 0.77424 0.33038 0.0
H3001 H 0.52404 0.74566 0.4191 0.0
H3002 H 0.47556 0.79515 0.37647 0.0
H3003 H 0.54251 0.72566 0.3729 0.0
H3004 H 0.51222 0.76935 0.4038 0.0
H3005 H 0.51709 0.76221 0.34529 0.0
C3006 C 0.49485 0.77687 0.34353 0.0
C3007 C 0.48266 0.78576 0.35225 0.0
C3008 C 0.51932 0.76009 0.39703 0.0
C3009 C 0.50927 0.77148 0.36955 0.0
C3010 C 0.52619 0.74668 0.40581 0.0
C3011 C 0.53431 0.73389 0.39719 0.0
C3012 C 0.5203 0.7604 0.37951 0.0
C3013 C 0.53642 0.73544 0.37994 0.0
C3014 C 0.50832 0.76988 0.3521 0.0
C3015 C 0.48488 0.78848 0.36934 0.0
N3016 N 0.52921 0.74829 0.37161 0.0
N3017 N 0.49776 0.78111 0.37752 0.0
H3018 H 0.50759 0.72502 0.83311 0.0
H3019 H 0.47728 0.75934 0.92042 0.0
H3020 H 0.52871 0.71109 0.88041 0.0
H3021 H 0.45817 0.77604 0.87316 0.0
H3022 H 0.48993 0.73526 0.9065 0.0
H3023 H 0.48361 0.73719 0.84775 0.0
C3024 C 0.50679 0.72395 0.84655 0.0
C3025 C 0.51997 0.71704 0.85565 0.0
C3026 C 0.48253 0.74387 0.89921 0.0
C3027 C 0.49307 0.73132 0.87248 0.0
C3028 C 0.47517 0.7575 0.90721 0.0
C3029 C 0.46662 0.76948 0.89788 0.0
C3030 C 0.48159 0.74253 0.88174 0.0
C3031 C 0.46458 0.76688 0.88074 0.0
C3032 C 0.49322 0.73101 0.85493 0.0
C3033 C 0.51867 0.71626 0.87302 0.0
N3034 N 0.47226 0.75384 0.87315 0.0
N3035 N 0.50559 0.72355 0.88091 0.0
H3036 H 0.66778 0.99525 0.71957 0.0
H3037 H 0.58201 0.02981 0.75485 0.0
H3038 H 0.61964 0.9732 0.71089 0.0
H3039 H 0.6305 0.04438 0.77259 0.0
H3040 H 0.59522 0.01646 0.73069 0.0
H3041 H 0.65394 0.0202 0.73079 0.0
C3042 C 0.65429 0.99599 0.71942 0.0
C3043 C 0.64475 0.9823 0.71437 0.0
C3044 C 0.60294 0.02307 0.73956 0.0
C3045 C 0.62891 0.01037 0.72743 0.0
C3046 C 0.59538 0.03083 0.75322 0.0
C3047 C 0.60525 0.03818 0.76556 0.0
C3048 C 0.62045 0.02256 0.73847 0.0
C3049 C 0.62253 0.03885 0.7632 0.0
C3050 C 0.64639 0.01012 0.72593 0.0
C3051 C 0.62735 0.9836 0.7147 0.0
N3052 N 0.62963 0.03089 0.75006 0.0
N3053 N 0.61997 0.99729 0.72135 0.0
H3054 H 0.66687 0.49393 0.22662 0.0
H3055 H 0.58049 0.52884 0.2599 0.0
H3056 H 0.61871 0.47373 0.2143 0.0
H3057 H 0.62853 0.54259 0.27942 0.0
H3058 H 0.5943 0.51587 0.23588 0.0
H3059 H 0.65312 0.51855 0.23861 0.0
C3060 C 0.65343 0.49502 0.22593 0.0
C3061 C 0.64382 0.48195 0.21955 0.0
C3062 C 0.60182 0.52221 0.24513 0.0
C3063 C 0.62804 0.50962 0.23346 0.0
C3064 C 0.59391 0.52974 0.25871 0.0
C3065 C 0.60346 0.53676 0.27148 0.0
C3066 C 0.61935 0.52156 0.24458 0.0
C3067 C 0.62081 0.53731 0.26968 0.0
C3068 C 0.64557 0.50896 0.23284 0.0
C3069 C 0.62647 0.48367 0.21914 0.0
N3070 N 0.62824 0.52955 0.25662 0.0
N3071 N 0.61909 0.49714 0.22622 0.0
H3072 H 0.06722 0.36736 0.0491 0.0
H3073 H 0.16587 0.36495 0.05694 0.0
H3074 H 0.0932 0.32744 0.07413 0.0
H3075 H 0.1397 0.39682 0.02241 0.0
H3076 H 0.13967 0.35067 0.06316 0.0
H3077 H 0.09377 0.37805 0.03907 0.0
C3078 C 0.07853 0.36079 0.05245 0.0
C3079 C 0.07799 0.34654 0.06261 0.0
C3080 C 0.13969 0.36066 0.05409 0.0
C3081 C 0.10854 0.35883 0.05117 0.0
C3082 C 0.15463 0.36884 0.05055 0.0
C3083 C 0.15492 0.38218 0.03924 0.0
C3084 C 0.12491 0.366 0.04641 0.0
C3085 C 0.14003 0.38666 0.03127 0.0
C3086 C 0.0937 0.36687 0.04664 0.0
C3087 C 0.09305 0.33846 0.06635 0.0
N3088 N 0.12559 0.3787 0.03515 0.0
N3089 N 0.10775 0.34483 0.06078 0.0
H3090 H 0.88511 0.31389 0.29816 0.0
H3091 H 0.88493 0.41265 0.30745 0.0
H3092 H 0.92289 0.34028 0.3259 0.0
H3093 H 0.8537 0.38581 0.27288 0.0
H3094 H 0.89965 0.38671 0.31386 0.0
H3095 H 0.8741 0.34034 0.28834 0.0
C3096 C 0.89115 0.32528 0.30216 0.0
C3097 C 0.90487 0.32485 0.31302 0.0
C3098 C 0.88969 0.38653 0.30475 0.0
C3099 C 0.89218 0.35537 0.3018 0.0
C3100 C 0.88127 0.40132 0.30109 0.0
C3101 C 0.86798 0.40135 0.2897 0.0
C3102 C 0.88469 0.37163 0.29707 0.0
C3103 C 0.86381 0.38635 0.2818 0.0
C3104 C 0.88487 0.34041 0.29647 0.0
C3105 C 0.91228 0.34003 0.31757 0.0
N3106 N 0.87203 0.37208 0.28574 0.0
N3107 N 0.90572 0.35471 0.31208 0.0
H3108 H 0.86121 0.1077 0.52402 0.0
H3109 H 0.91013 0.17534 0.57878 0.0
H3110 H 0.837 0.13809 0.56121 0.0
H3111 H 0.93372 0.13529 0.55167 0.0
H3112 H 0.88289 0.1654 0.56891 0.0
H3113 H 0.88757 0.12148 0.53035 0.0
C3114 C 0.8614 0.11738 0.53342 0.0
C3115 C 0.84693 0.12163 0.54223 0.0
C3116 C 0.89408 0.15889 0.56507 0.0
C3117 C 0.87708 0.13746 0.54955 0.0
C3118 C 0.9096 0.16459 0.57064 0.0
C3119 C 0.9242 0.15604 0.56617 0.0
C3120 C 0.89323 0.14472 0.55481 0.0
C3121 C 0.92279 0.14216 0.55561 0.0
C3122 C 0.87647 0.12522 0.53706 0.0
C3123 C 0.84791 0.13436 0.5542 0.0
N3124 N 0.90761 0.13694 0.55033 0.0
N3125 N 0.86277 0.14178 0.5576 0.0
H3126 H 0.11595 0.08976 0.80462 0.0
H3127 H 0.11924 0.18869 0.80019 0.0
H3128 H 0.14964 0.11686 0.77266 0.0
H3129 H 0.07869 0.16207 0.82347 0.0
H3130 H 0.13022 0.16242 0.78977 0.0
H3131 H 0.10174 0.11586 0.81132 0.0
C3132 C 0.12027 0.1012 0.7989 0.0
C3133 C 0.13408 0.10118 0.78816 0.0
C3134 C 0.11885 0.16229 0.79705 0.0
C3135 C 0.11796 0.13109 0.79589 0.0
C3136 C 0.11259 0.1773 0.80308 0.0
C3137 C 0.09808 0.17758 0.81286 0.0
C3138 C 0.1107 0.14733 0.80095 0.0
C3139 C 0.08992 0.16243 0.81601 0.0
C3140 C 0.11213 0.11608 0.80272 0.0
C3141 C 0.1391 0.11632 0.78105 0.0
N3142 N 0.09645 0.14788 0.81021 0.0
N3143 N 0.13114 0.1307 0.78518 0.0
H3144 H 0.09254 0.67522 0.92295 0.0
H3145 H 0.1392 0.60454 0.97602 0.0
H3146 H 0.06755 0.63569 0.94955 0.0
H3147 H 0.16428 0.63563 0.94001 0.0
H3148 H 0.11325 0.61943 0.9703 0.0
H3149 H 0.11939 0.66433 0.93291 0.0
C3150 C 0.09269 0.6644 0.93103 0.0
C3151 C 0.07782 0.65624 0.93527 0.0
C3152 C 0.12446 0.62308 0.96373 0.0
C3153 C 0.10833 0.64381 0.9467 0.0
C3154 C 0.13928 0.6146 0.96702 0.0
C3155 C 0.15386 0.61874 0.95835 0.0
C3156 C 0.12423 0.63584 0.95172 0.0
C3157 C 0.15327 0.63195 0.94688 0.0
C3158 C 0.10799 0.65816 0.93664 0.0
C3159 C 0.07872 0.64225 0.94576 0.0
N3160 N 0.13866 0.63998 0.94382 0.0
N3161 N 0.09369 0.63647 0.95106 0.0
H3162 H 0.61581 0.31586 0.20007 0.0
H3163 H 0.61304 0.41437 0.19027 0.0
H3164 H 0.57733 0.34064 0.17179 0.0
H3165 H 0.64246 0.38879 0.22733 0.0
H3166 H 0.59932 0.38795 0.18342 0.0
H3167 H 0.62542 0.34275 0.21017 0.0
C3168 C 0.60932 0.32699 0.19601 0.0
C3169 C 0.59582 0.326 0.18495 0.0
C3170 C 0.60864 0.38818 0.19317 0.0
C3171 C 0.60687 0.357 0.19646 0.0
C3172 C 0.61648 0.40324 0.19709 0.0
C3173 C 0.62902 0.40374 0.20929 0.0
C3174 C 0.6135 0.37353 0.20142 0.0
C3175 C 0.63296 0.38897 0.21775 0.0
C3176 C 0.61479 0.34237 0.20186 0.0
C3177 C 0.5878 0.34085 0.1803 0.0
N3178 N 0.62535 0.37446 0.21354 0.0
N3179 N 0.59358 0.35579 0.18593 0.0
H3180 H 0.86381 0.89902 0.48054 0.0
H3181 H 0.9105 0.82849 0.42724 0.0
H3182 H 0.83864 0.86811 0.44444 0.0
H3183 H 0.93547 0.86757 0.45451 0.0
H3184 H 0.8836 0.83967 0.43675 0.0
H3185 H 0.88979 0.88428 0.47456 0.0
C3186 C 0.86372 0.88903 0.47146 0.0
C3187 C 0.8491 0.88488 0.46287 0.0
C3188 C 0.89501 0.8457 0.4407 0.0
C3189 C 0.87877 0.86796 0.45592 0.0
C3190 C 0.91034 0.83929 0.43533 0.0
C3191 C 0.92524 0.84721 0.43994 0.0
C3192 C 0.89466 0.85996 0.45089 0.0
C3193 C 0.92431 0.86118 0.45045 0.0
C3194 C 0.87856 0.88064 0.46801 0.0
C3195 C 0.84968 0.87178 0.45127 0.0
N3196 N 0.90931 0.86711 0.45552 0.0
N3197 N 0.86431 0.86383 0.44806 0.0
H3198 H 0.38697 0.08853 0.69054 0.0
H3199 H 0.38336 0.1872 0.6979 0.0
H3200 H 0.35569 0.11445 0.72578 0.0
H3201 H 0.42321 0.16165 0.67232 0.0
H3202 H 0.37315 0.16054 0.70812 0.0
H3203 H 0.40064 0.11491 0.68372 0.0
C3204 C 0.38308 0.09976 0.69695 0.0
C3205 C 0.37008 0.09934 0.70865 0.0
C3206 C 0.3842 0.16073 0.70038 0.0
C3207 C 0.38556 0.12955 0.7008 0.0
C3208 C 0.39001 0.17597 0.69445 0.0
C3209 C 0.40411 0.17666 0.6841 0.0
C3210 C 0.39237 0.14598 0.69579 0.0
C3211 C 0.4123 0.16169 0.68024 0.0
C3212 C 0.39091 0.1148 0.69307 0.0
C3213 C 0.36559 0.11422 0.71662 0.0
N3214 N 0.4062 0.14692 0.68594 0.0
N3215 N 0.3732 0.12875 0.71242 0.0
H3216 H 0.0608 0.16373 0.36681 0.0
H3217 H 0.05035 0.06519 0.36526 0.0
H3218 H 0.02543 0.1371 0.39734 0.0
H3219 H 0.07756 0.09189 0.32731 0.0
H3220 H 0.04082 0.09158 0.37671 0.0
H3221 H 0.06681 0.13791 0.35175 0.0
C3222 C 0.0542 0.15247 0.37026 0.0
C3223 C 0.04268 0.15252 0.38343 0.0
C3224 C 0.04876 0.09173 0.3658 0.0
C3225 C 0.04958 0.12293 0.36632 0.0
C3226 C 0.05428 0.07664 0.35927 0.0
C3227 C 0.06491 0.07633 0.34537 0.0
C3228 C 0.05405 0.10673 0.35857 0.0
C3229 C 0.06939 0.09156 0.33804 0.0
C3230 C 0.05762 0.13775 0.36163 0.0
C3231 C 0.03445 0.13761 0.38732 0.0
N3232 N 0.0641 0.10619 0.34486 0.0
N3233 N 0.03818 0.12339 0.3789 0.0
H3234 H 0.1602 0.32817 0.57617 0.0
H3235 H 0.11273 0.2757 0.64659 0.0
H3236 H 0.18481 0.30172 0.61605 0.0
H3237 H 0.08823 0.31267 0.61616 0.0
H3238 H 0.1388 0.28137 0.63194 0.0
H3239 H 0.13321 0.31894 0.58728 0.0
C3240 C 0.15994 0.32031 0.58713 0.0
C3241 C 0.17476 0.31585 0.59529 0.0
C3242 C 0.12769 0.28817 0.62839 0.0
C3243 C 0.14407 0.30521 0.60794 0.0
C3244 C 0.1128 0.28491 0.63673 0.0
C3245 C 0.09835 0.29385 0.63269 0.0
C3246 C 0.12812 0.30039 0.61586 0.0
C3247 C 0.09914 0.30559 0.61974 0.0
C3248 C 0.14456 0.3151 0.59349 0.0
C3249 C 0.1737 0.30565 0.60947 0.0
N3250 N 0.11381 0.30859 0.61182 0.0
N3251 N 0.15865 0.30071 0.61534 0.0
H3252 H 0.95011 0.43587 0.8673 0.0
H3253 H 0.94306 0.3371 0.86398 0.0
H3254 H 0.92459 0.41025 0.82745 0.0
H3255 H 0.97747 0.36344 0.89582 0.0
H3256 H 0.93624 0.36339 0.85009 0.0
H3257 H 0.96013 0.40926 0.87772 0.0
C3258 C 0.94661 0.42462 0.8607 0.0
C3259 C 0.93635 0.4253 0.84653 0.0
C3260 C 0.94541 0.36338 0.86 0.0
C3261 C 0.94785 0.39463 0.85852 0.0
C3262 C 0.94931 0.34839 0.86794 0.0
C3263 C 0.96076 0.34812 0.88117 0.0
C3264 C 0.95289 0.37823 0.86544 0.0
C3265 C 0.96851 0.36309 0.88574 0.0
C3266 C 0.95244 0.40941 0.86664 0.0
C3267 C 0.93244 0.4103 0.83842 0.0
N3268 N 0.96431 0.37755 0.87801 0.0
N3269 N 0.93807 0.39553 0.84464 0.0
H3270 H 0.84227 0.17068 0.08136 0.0
H3271 H 0.89451 0.22787 0.14448 0.0
H3272 H 0.82107 0.20045 0.12082 0.0
H3273 H 0.91716 0.18793 0.11646 0.0
H3274 H 0.86787 0.22161 0.13128 0.0
H3275 H 0.87025 0.18025 0.08984 0.0
C3276 C 0.8435 0.1793 0.09167 0.0
C3277 C 0.82939 0.1846 0.10055 0.0
C3278 C 0.87868 0.21427 0.12792 0.0
C3279 C 0.86104 0.1957 0.1101 0.0
C3280 C 0.89391 0.21787 0.13543 0.0
C3281 C 0.90801 0.20827 0.13172 0.0
C3282 C 0.87751 0.20098 0.11658 0.0
C3283 C 0.90653 0.19555 0.11977 0.0
C3284 C 0.8594 0.18471 0.09652 0.0
C3285 C 0.83162 0.19581 0.1138 0.0
N3286 N 0.89149 0.19217 0.1127 0.0
N3287 N 0.84709 0.20095 0.11815 0.0
H3288 H 0.02695 0.85724 0.60742 0.0
H3289 H 0.083 0.90941 0.67129 0.0
H3290 H 0.06582 0.83401 0.63646 0.0
H3291 H 0.05781 0.93023 0.62854 0.0
H3292 H 0.07329 0.88151 0.6628 0.0
H3293 H 0.0342 0.88406 0.61971 0.0
C3294 C 0.03692 0.85775 0.6165 0.0
C3295 C 0.04594 0.84342 0.62077 0.0
C3296 C 0.06991 0.89226 0.65537 0.0
C3297 C 0.05431 0.87411 0.6349 0.0
C3298 C 0.07541 0.90813 0.66021 0.0
C3299 C 0.07136 0.92212 0.65051 0.0
C3300 C 0.06005 0.89055 0.64099 0.0
C3301 C 0.06146 0.91979 0.63627 0.0
C3302 C 0.04109 0.87308 0.62348 0.0
C3303 C 0.05865 0.84481 0.63274 0.0
N3304 N 0.05613 0.90436 0.632 0.0
N3305 N 0.06254 0.85994 0.63935 0.0
H3306 H 0.34242 0.32534 0.92277 0.0
H3307 H 0.38832 0.27259 0.85136 0.0
H3308 H 0.31701 0.30027 0.8825 0.0
H3309 H 0.41402 0.30733 0.88339 0.0
H3310 H 0.36232 0.27891 0.86595 0.0
H3311 H 0.3691 0.31525 0.91161 0.0
C3312 C 0.34243 0.31761 0.9117 0.0
C3313 C 0.32748 0.31379 0.90346 0.0
C3314 C 0.37368 0.28507 0.86986 0.0
C3315 C 0.35782 0.30218 0.89074 0.0
C3316 C 0.38852 0.28143 0.86156 0.0
C3317 C 0.4033 0.28957 0.86607 0.0
C3318 C 0.37363 0.29688 0.88281 0.0
C3319 C 0.40286 0.30087 0.87943 0.0
C3320 C 0.35764 0.31191 0.90532 0.0
C3321 C 0.32823 0.30373 0.88915 0.0
N3322 N 0.38824 0.30425 0.88729 0.0
N3323 N 0.34311 0.29831 0.88325 0.0
H3324 H 0.97796 0.63665 0.10242 0.0
H3325 H 0.92493 0.58921 0.17252 0.0
H3326 H 0.94134 0.6613 0.13315 0.0
H3327 H 0.95195 0.56461 0.13303 0.0
H3328 H 0.9344 0.61621 0.16159 0.0
H3329 H 0.97219 0.61056 0.11702 0.0
C3330 C 0.96881 0.6366 0.11234 0.0
C3331 C 0.95999 0.6511 0.11647 0.0
C3332 C 0.93831 0.60486 0.15542 0.0
C3333 C 0.95332 0.62131 0.13324 0.0
C3334 C 0.93297 0.58947 0.16168 0.0
C3335 C 0.93751 0.57466 0.15357 0.0
C3336 C 0.9484 0.60535 0.14111 0.0
C3337 C 0.94794 0.57572 0.13956 0.0
C3338 C 0.96549 0.6217 0.12065 0.0
C3339 C 0.94832 0.65035 0.12949 0.0
N3340 N 0.95299 0.59077 0.13377 0.0
N3341 N 0.94525 0.63566 0.13737 0.0
H3342 H 0.6819 0.20039 0.38607 0.0
H3343 H 0.58375 0.18962 0.38408 0.0
H3344 H 0.65504 0.17539 0.42537 0.0
H3345 H 0.61024 0.22487 0.35328 0.0
H3346 H 0.60933 0.18475 0.39998 0.0
H3347 H 0.65558 0.21015 0.37455 0.0
C3348 C 0.67042 0.19709 0.39237 0.0
C3349 C 0.67062 0.18696 0.40662 0.0
C3350 C 0.60949 0.19369 0.38987 0.0
C3351 C 0.64035 0.19793 0.39334 0.0
C3352 C 0.59492 0.19644 0.38075 0.0
C3353 C 0.59494 0.20755 0.36724 0.0
C3354 C 0.62421 0.20197 0.3853 0.0
C3355 C 0.6097 0.21611 0.36353 0.0
C3356 C 0.65539 0.20271 0.38581 0.0
C3357 C 0.65541 0.1832 0.41437 0.0
N3358 N 0.62378 0.21301 0.37239 0.0
N3359 N 0.64082 0.18848 0.40747 0.0
H3360 H 0.32451 0.07641 0.09093 0.0
H3361 H 0.39273 0.02233 0.13986 0.0
H3362 H 0.36455 0.04943 0.06717 0.0
H3363 H 0.36225 0.05965 0.16376 0.0
H3364 H 0.37879 0.02831 0.11346 0.0
H3365 H 0.33464 0.06663 0.11811 0.0
C3366 C 0.3353 0.06831 0.09141 0.0
C3367 C 0.3438 0.06387 0.07678 0.0
C3368 C 0.37507 0.03512 0.12451 0.0
C3369 C 0.35534 0.05261 0.10769 0.0
C3370 C 0.383 0.03168 0.13959 0.0
C3371 C 0.37876 0.04064 0.15397 0.0
C3372 C 0.36274 0.04754 0.12382 0.0
C3373 C 0.36598 0.05255 0.15291 0.0
C3374 C 0.3411 0.06279 0.1069 0.0
C3375 C 0.35773 0.05335 0.07813 0.0
N3376 N 0.35846 0.05573 0.13806 0.0
N3377 N 0.36307 0.04812 0.09328 0.0
H3378 H 0.89862 0.97696 0.36511 0.0
H3379 H 0.82789 0.9253 0.41314 0.0
H3380 H 0.867 0.94086 0.34082 0.0
H3381 H 0.86819 0.95136 0.43749 0.0
H3382 H 0.83884 0.93454 0.3861 0.0
H3383 H 0.8842 0.97142 0.39136 0.0
C3384 C 0.88854 0.96798 0.36527 0.0
C3385 C 0.8841 0.95924 0.35082 0.0
C3386 C 0.84519 0.93829 0.3974 0.0
C3387 C 0.86755 0.95284 0.38079 0.0
C3388 C 0.83892 0.93308 0.41282 0.0
C3389 C 0.84723 0.93742 0.42758 0.0
C3390 C 0.85972 0.94806 0.39681 0.0
C3391 C 0.86149 0.94752 0.42643 0.0
C3392 C 0.88035 0.96478 0.38026 0.0
C3393 C 0.8709 0.94778 0.35173 0.0
N3394 N 0.86728 0.95246 0.41134 0.0
N3395 N 0.86313 0.94484 0.36649 0.0
H3396 H 0.30151 0.11678 0.68674 0.0
H3397 H 0.31004 0.11532 0.58812 0.0
H3398 H 0.32851 0.0782 0.66073 0.0
H3399 H 0.2744 0.14588 0.61434 0.0
H3400 H 0.31671 0.10113 0.61427 0.0
H3401 H 0.29124 0.12722 0.6602 0.0
C3402 C 0.30524 0.11045 0.67542 0.0
C3403 C 0.31602 0.09667 0.67595 0.0
C3404 C 0.30731 0.11082 0.61427 0.0
C3405 C 0.30431 0.10868 0.64539 0.0
C3406 C 0.30351 0.11895 0.59936 0.0
C3407 C 0.29174 0.13189 0.59911 0.0
C3408 C 0.2994 0.1158 0.62905 0.0
C3409 C 0.28361 0.13603 0.614 0.0
C3410 C 0.29929 0.11639 0.66025 0.0
C3411 C 0.32024 0.08886 0.66088 0.0
N3412 N 0.28772 0.12812 0.6284 0.0
N3413 N 0.31453 0.09511 0.64617 0.0
H3414 H 0.13669 0.561 0.83503 0.0
H3415 H 0.13459 0.55149 0.93358 0.0
H3416 H 0.10567 0.52544 0.86082 0.0
H3417 H 0.17394 0.57791 0.90812 0.0
H3418 H 0.12403 0.54189 0.90686 0.0
H3419 H 0.15082 0.56729 0.86132 0.0
C3420 C 0.13295 0.5544 0.8462 0.0
C3421 C 0.11989 0.54277 0.84578 0.0
C3422 C 0.13504 0.54968 0.90706 0.0
C3423 C 0.13589 0.55002 0.87588 0.0
C3424 C 0.14106 0.55526 0.92234 0.0
C3425 C 0.15511 0.56566 0.92309 0.0
C3426 C 0.14297 0.55468 0.89231 0.0
C3427 C 0.16306 0.56993 0.90811 0.0
C3428 C 0.14104 0.55799 0.86119 0.0
C3429 C 0.1156 0.53456 0.86059 0.0
N3430 N 0.15676 0.56457 0.89329 0.0
N3431 N 0.12347 0.53846 0.87506 0.0
H3432 H 0.19651 0.88066 0.18816 0.0
H3433 H 0.22999 0.85565 0.11318 0.0
H3434 H 0.17596 0.92267 0.16152 0.0
H3435 H 0.18878 0.88248 0.09139 0.0
H3436 H 0.22426 0.86912 0.13983 0.0
H3437 H 0.20679 0.8694 0.16211 0.0
C3438 C 0.1943 0.88765 0.17682 0.0
C3439 C 0.18531 0.90267 0.17707 0.0
C3440 C 0.21633 0.87194 0.12929 0.0
C3441 C 0.19754 0.88993 0.14699 0.0
C3442 C 0.21971 0.86437 0.11402 0.0
C3443 C 0.20968 0.86775 0.10014 0.0
C3444 C 0.2027 0.88288 0.13073 0.0
C3445 C 0.1967 0.87937 0.10186 0.0
C3446 C 0.20041 0.88128 0.16191 0.0
C3447 C 0.18289 0.9111 0.16193 0.0
N3448 N 0.19352 0.88646 0.11692 0.0
N3449 N 0.18881 0.90451 0.14744 0.0
H3450 H 0.63235 0.94441 0.16342 0.0
H3451 H 0.63095 0.95278 0.06468 0.0
H3452 H 0.59958 0.97777 0.13685 0.0
H3453 H 0.66968 0.9263 0.09102 0.0
H3454 H 0.6201 0.96282 0.09113 0.0
H3455 H 0.64696 0.93843 0.13737 0.0
C3456 C 0.62831 0.95059 0.15212 0.0
C3457 C 0.61463 0.9615 0.15226 0.0
C3458 C 0.63105 0.95493 0.09118 0.0
C3459 C 0.63124 0.95463 0.1224 0.0
C3460 C 0.63724 0.94912 0.07606 0.0
C3461 C 0.65117 0.93852 0.07564 0.0
C3462 C 0.63867 0.94998 0.10611 0.0
C3463 C 0.65891 0.93442 0.09077 0.0
C3464 C 0.63669 0.94719 0.13726 0.0
C3465 C 0.61001 0.96922 0.13729 0.0
N3466 N 0.65243 0.94 0.10543 0.0
N3467 N 0.61819 0.96551 0.12294 0.0
H3468 H 0.31072 0.38426 0.9136 0.0
H3469 H 0.30163 0.38374 0.81501 0.0
H3470 H 0.27599 0.35282 0.88719 0.0
H3471 H 0.32788 0.42259 0.84139 0.0
H3472 H 0.29171 0.37276 0.84147 0.0
H3473 H 0.3167 0.39902 0.88761 0.0
C3474 C 0.30424 0.38056 0.90235 0.0
C3475 C 0.29294 0.3672 0.90251 0.0
C3476 C 0.29951 0.38377 0.84152 0.0
C3477 C 0.29982 0.38394 0.87273 0.0
C3478 C 0.30526 0.39003 0.82639 0.0
C3479 C 0.31575 0.40403 0.82599 0.0
C3480 C 0.30444 0.3914 0.85645 0.0
C3481 C 0.31984 0.41176 0.84114 0.0
C3482 C 0.30764 0.38901 0.88754 0.0
C3483 C 0.28485 0.36299 0.88762 0.0
N3484 N 0.31433 0.40521 0.85579 0.0
N3485 N 0.28858 0.37122 0.8733 0.0
H3486 H 0.67144 0.13056 0.41629 0.0
H3487 H 0.69603 0.07808 0.33599 0.0
H3488 H 0.7222 0.12869 0.39864 0.0
H3489 H 0.65273 0.10988 0.3369 0.0
H3490 H 0.7038 0.08844 0.36383 0.0
H3491 H 0.66261 0.11483 0.39162 0.0
C3492 C 0.68076 0.12659 0.40735 0.0
C3493 C 0.69756 0.13094 0.40939 0.0
C3494 C 0.69244 0.09284 0.35801 0.0
C3495 C 0.68759 0.11278 0.38152 0.0
C3496 C 0.68794 0.08686 0.3423 0.0
C3497 C 0.67372 0.09315 0.33433 0.0
C3498 C 0.68239 0.10483 0.36583 0.0
C3499 C 0.66376 0.10475 0.34276 0.0
C3500 C 0.67569 0.1177 0.39332 0.0
C3501 C 0.70912 0.12564 0.39741 0.0
N3502 N 0.66827 0.11022 0.35812 0.0
N3503 N 0.70392 0.11675 0.38395 0.0
H3504 H 0.16593 0.86472 0.56655 0.0
H3505 H 0.06829 0.85882 0.55149 0.0
H3506 H 0.14043 0.88925 0.52605 0.0
H3507 H 0.09436 0.82376 0.58285 0.0
H3508 H 0.09489 0.86994 0.54215 0.0
H3509 H 0.14027 0.84938 0.57294 0.0
C3510 C 0.15498 0.86679 0.55894 0.0
C3511 C 0.15525 0.87838 0.54584 0.0
C3512 C 0.09487 0.85972 0.55095 0.0
C3513 C 0.12594 0.86099 0.55312 0.0
C3514 C 0.07966 0.85338 0.55634 0.0
C3515 C 0.07912 0.84042 0.56805 0.0
C3516 C 0.10974 0.85326 0.55751 0.0
C3517 C 0.09425 0.83375 0.57378 0.0
C3518 C 0.14037 0.858 0.56256 0.0
C3519 C 0.14075 0.88053 0.53633 0.0
N3520 N 0.10899 0.84041 0.56862 0.0
N3521 N 0.12666 0.87204 0.54025 0.0
H3522 H 0.88032 0.81427 0.80302 0.0
H3523 H 0.88313 0.91301 0.81047 0.0
H3524 H 0.92017 0.8402 0.82822 0.0
H3525 H 0.85087 0.88679 0.77635 0.0
H3526 H 0.89717 0.88675 0.81695 0.0
H3527 H 0.86962 0.84083 0.79306 0.0
C3528 C 0.88687 0.82557 0.80644 0.0
C3529 C 0.9011 0.82501 0.81662 0.0
C3530 C 0.88714 0.88676 0.80793 0.0
C3531 C 0.8888 0.85559 0.80522 0.0
C3532 C 0.87909 0.90174 0.80424 0.0
C3533 C 0.86573 0.90204 0.79294 0.0
C3534 C 0.88166 0.87195 0.8004 0.0
C3535 C 0.86107 0.88711 0.78518 0.0
C3536 C 0.88077 0.84075 0.80066 0.0
C3537 C 0.90915 0.84006 0.82043 0.0
N3538 N 0.86892 0.87264 0.78918 0.0
N3539 N 0.90277 0.85478 0.81487 0.0
H3540 H 0.86359 0.60152 0.02293 0.0
H3541 H 0.91048 0.67245 0.07542 0.0
H3542 H 0.83857 0.63309 0.05856 0.0
H3543 H 0.93542 0.63248 0.04941 0.0
H3544 H 0.88362 0.66139 0.06575 0.0
H3545 H 0.88968 0.61609 0.02884 0.0
C3546 C 0.86355 0.61162 0.03188 0.0
C3547 C 0.84894 0.616 0.04038 0.0
C3548 C 0.89501 0.65514 0.0621 0.0
C3549 C 0.87873 0.63273 0.04722 0.0
C3550 C 0.91033 0.66148 0.06756 0.0
C3551 C 0.9252 0.65328 0.06337 0.0
C3552 C 0.89465 0.64066 0.05224 0.0
C3553 C 0.92427 0.63909 0.05315 0.0
C3554 C 0.87845 0.61991 0.03529 0.0
C3555 C 0.8496 0.62923 0.05182 0.0
N3556 N 0.90928 0.63323 0.04798 0.0
N3557 N 0.86427 0.63709 0.05497 0.0
H3558 H 0.11587 0.68744 0.30027 0.0
H3559 H 0.11439 0.58904 0.31121 0.0
H3560 H 0.07739 0.66223 0.32815 0.0
H3561 H 0.14409 0.61437 0.27423 0.0
H3562 H 0.10039 0.61539 0.31758 0.0
H3563 H 0.12619 0.66061 0.29066 0.0
C3564 C 0.10954 0.67623 0.30434 0.0
C3565 C 0.09582 0.67708 0.31516 0.0
C3566 C 0.10985 0.61514 0.30795 0.0
C3567 C 0.10768 0.64619 0.3042 0.0
C3568 C 0.11787 0.60012 0.30433 0.0
C3569 C 0.13051 0.59956 0.29226 0.0
C3570 C 0.11466 0.62972 0.29957 0.0
C3571 C 0.13448 0.61425 0.28368 0.0
C3572 C 0.11541 0.6609 0.29877 0.0
C3573 C 0.08801 0.66214 0.31983 0.0
N3574 N 0.1267 0.62876 0.28762 0.0
N3575 N 0.09418 0.64726 0.31447 0.0
H3576 H 0.16367 0.13372 0.44429 0.0
H3577 H 0.06495 0.13466 0.45306 0.0
H3578 H 0.13637 0.10312 0.47907 0.0
H3579 H 0.09164 0.17207 0.42511 0.0
H3580 H 0.09127 0.12381 0.46335 0.0
H3581 H 0.13794 0.14883 0.43785 0.0
C3582 C 0.1523 0.1303 0.45071 0.0
C3583 C 0.15212 0.11702 0.46212 0.0
C3584 C 0.09145 0.13447 0.45508 0.0
C3585 C 0.12265 0.13417 0.45471 0.0
C3586 C 0.07639 0.14065 0.44912 0.0
C3587 C 0.07609 0.1542 0.43805 0.0
C3588 C 0.10647 0.1417 0.4498 0.0
C3589 C 0.09131 0.16158 0.4336 0.0
C3590 C 0.13763 0.13893 0.44702 0.0
C3591 C 0.13707 0.11317 0.4701 0.0
N3592 N 0.10593 0.1551 0.43933 0.0
N3593 N 0.12293 0.12158 0.46612 0.0
H3594 H 0.61537 0.91353 0.68954 0.0
H3595 H 0.61847 0.8151 0.6995 0.0
H3596 H 0.64659 0.88842 0.72543 0.0
H3597 H 0.57853 0.84018 0.67358 0.0
H3598 H 0.62887 0.84196 0.70898 0.0
H3599 H 0.60153 0.88705 0.68349 0.0
C3600 C 0.61922 0.90247 0.69625 0.0
C3601 C 0.63224 0.90313 0.70791 0.0
C3602 C 0.61776 0.84163 0.70133 0.0
C3603 C 0.61656 0.87281 0.70095 0.0
C3604 C 0.61184 0.82628 0.69583 0.0
C3605 C 0.59766 0.82539 0.68561 0.0
C3606 C 0.60962 0.85629 0.69642 0.0
C3607 C 0.5895 0.84029 0.68143 0.0
C3608 C 0.61129 0.88737 0.69281 0.0
C3609 C 0.63666 0.88846 0.71629 0.0
N3610 N 0.59571 0.85517 0.68671 0.0
N3611 N 0.62896 0.87386 0.71251 0.0
H3612 H 0.91091 0.32754 0.92038 0.0
H3613 H 0.86287 0.39694 0.97374 0.0
H3614 H 0.93518 0.36735 0.94725 0.0
H3615 H 0.83854 0.36666 0.93654 0.0
H3616 H 0.88909 0.3827 0.96772 0.0
H3617 H 0.88381 0.3384 0.92967 0.0
C3618 C 0.91055 0.33845 0.92833 0.0
C3619 C 0.9253 0.34665 0.93291 0.0
C3620 C 0.87799 0.3791 0.96094 0.0
C3621 C 0.89451 0.35901 0.94361 0.0
C3622 C 0.86302 0.38721 0.9644 0.0
C3623 C 0.84857 0.38308 0.95551 0.0
C3624 C 0.8785 0.36672 0.94856 0.0
C3625 C 0.84945 0.37031 0.94358 0.0
C3626 C 0.89511 0.34466 0.93357 0.0
C3627 C 0.92412 0.36075 0.94322 0.0
N3628 N 0.8642 0.3626 0.9404 0.0
N3629 N 0.90903 0.36647 0.94819 0.0
H3630 H 0.38306 0.68515 0.20046 0.0
H3631 H 0.38329 0.58655 0.19087 0.0
H3632 H 0.42169 0.65881 0.17385 0.0
H3633 H 0.35172 0.613 0.22545 0.0
H3634 H 0.39814 0.61252 0.18501 0.0
H3635 H 0.37201 0.65867 0.21022 0.0
C3636 C 0.38929 0.67377 0.19672 0.0
C3637 C 0.40325 0.6742 0.18618 0.0
C3638 C 0.38808 0.61261 0.19401 0.0
C3639 C 0.39053 0.6437 0.1973 0.0
C3640 C 0.37958 0.5978 0.19734 0.0
C3641 C 0.36616 0.59766 0.20856 0.0
C3642 C 0.38301 0.62741 0.20182 0.0
C3643 C 0.36193 0.61256 0.21664 0.0
C3644 C 0.38299 0.65863 0.20237 0.0
C3645 C 0.4109 0.65905 0.18194 0.0
N3646 N 0.37022 0.62686 0.21299 0.0
N3647 N 0.40431 0.64437 0.18736 0.0
H3648 H 0.07621 0.59136 0.82197 0.0
H3649 H 0.06314 0.66614 0.86467 0.0
H3650 H 0.05761 0.56899 0.86725 0.0
H3651 H 0.02794 0.63825 0.89423 0.0
H3652 H 0.07016 0.64076 0.84952 0.0
H3653 H 0.06699 0.61861 0.83213 0.0
C3654 C 0.07022 0.59217 0.83403 0.0
C3655 C 0.06791 0.57787 0.84385 0.0
C3656 C 0.0606 0.6402 0.85901 0.0
C3657 C 0.05761 0.60903 0.85572 0.0
C3658 C 0.0567 0.6547 0.86779 0.0
C3659 C 0.04497 0.65429 0.88076 0.0
C3660 C 0.05274 0.62515 0.86327 0.0
C3661 C 0.03706 0.63913 0.88433 0.0
C3662 C 0.0651 0.60777 0.83992 0.0
C3663 C 0.0599 0.57966 0.85932 0.0
N3664 N 0.04124 0.62513 0.87576 0.0
N3665 N 0.05507 0.59492 0.86476 0.0
H3666 H 0.16125 0.82652 0.07708 0.0
H3667 H 0.11403 0.77389 0.14765 0.0
H3668 H 0.18604 0.80076 0.11729 0.0
H3669 H 0.08911 0.80917 0.1156 0.0
H3670 H 0.14026 0.77994 0.13337 0.0
H3671 H 0.13438 0.81663 0.08787 0.0
C3672 C 0.16106 0.81866 0.08805 0.0
C3673 C 0.1759 0.81461 0.09639 0.0
C3674 C 0.12903 0.78629 0.12939 0.0
C3675 C 0.14532 0.80324 0.10873 0.0
C3676 C 0.11405 0.78281 0.13752 0.0
C3677 C 0.09942 0.79117 0.1329 0.0
C3678 C 0.12936 0.79815 0.11651 0.0
C3679 C 0.10015 0.80255 0.11963 0.0
C3680 C 0.14574 0.81308 0.09423 0.0
C3681 C 0.17492 0.80439 0.11057 0.0
N3682 N 0.1149 0.80577 0.11193 0.0
N3683 N 0.15992 0.7991 0.1163 0.0
H3684 H 0.97782 0.86424 0.40189 0.0
H3685 H 0.92529 0.90949 0.32986 0.0
H3686 H 0.94313 0.83829 0.37003 0.0
H3687 H 0.95126 0.93531 0.36929 0.0
H3688 H 0.93517 0.88289 0.34139 0.0
H3689 H 0.97173 0.89007 0.3869 0.0
C3690 C 0.96903 0.86395 0.39165 0.0
C3691 C 0.96085 0.84914 0.3873 0.0
C3692 C 0.93876 0.89442 0.34741 0.0
C3693 C 0.9538 0.87863 0.3701 0.0
C3694 C 0.93318 0.90958 0.34081 0.0
C3695 C 0.9373 0.92463 0.34872 0.0
C3696 C 0.94866 0.89437 0.36188 0.0
C3697 C 0.94757 0.92402 0.36289 0.0
C3698 C 0.96552 0.8787 0.38312 0.0
C3699 C 0.94962 0.84947 0.37387 0.0
N3700 N 0.95284 0.90917 0.36902 0.0
N3701 N 0.94636 0.864 0.36579 0.0
H3702 H 0.84318 0.67072 0.5777 0.0
H3703 H 0.89006 0.72513 0.6471 0.0
H3704 H 0.81847 0.69794 0.61698 0.0
H3705 H 0.91511 0.68781 0.61755 0.0
H3706 H 0.86419 0.71903 0.6323 0.0
H3707 H 0.87016 0.6804 0.58857 0.0
C3708 C 0.84342 0.67882 0.58849 0.0
C3709 C 0.82858 0.68338 0.59655 0.0
C3710 C 0.87537 0.71225 0.62897 0.0
C3711 C 0.85921 0.69456 0.6089 0.0
C3712 C 0.89016 0.71576 0.63738 0.0
C3713 C 0.9047 0.70683 0.63368 0.0
C3714 C 0.87513 0.69975 0.6167 0.0
C3715 C 0.90412 0.69489 0.62088 0.0
C3716 C 0.85878 0.68429 0.5947 0.0
C3717 C 0.8296 0.69391 0.61049 0.0
N3718 N 0.88953 0.69161 0.6129 0.0
N3719 N 0.84462 0.69911 0.61621 0.0
H3720 H 0.06325 0.33707 0.13339 0.0
H3721 H 0.05158 0.43531 0.13294 0.0
H3722 H 0.02676 0.36241 0.10308 0.0
H3723 H 0.07887 0.4097 0.17159 0.0
H3724 H 0.04203 0.40857 0.12228 0.0
H3725 H 0.06881 0.36322 0.14804 0.0
C3726 C 0.05631 0.34811 0.12992 0.0
C3727 C 0.04463 0.34762 0.1169 0.0
C3728 C 0.04997 0.40876 0.13319 0.0
C3729 C 0.05102 0.37757 0.13351 0.0
C3730 C 0.0555 0.42403 0.13925 0.0
C3731 C 0.06618 0.42473 0.1531 0.0
C3732 C 0.05532 0.39397 0.14084 0.0
C3733 C 0.07067 0.40972 0.16088 0.0
C3734 C 0.05946 0.36302 0.13831 0.0
C3735 C 0.03594 0.36225 0.11297 0.0
N3736 N 0.06539 0.39491 0.15451 0.0
N3737 N 0.03943 0.37667 0.12112 0.0
H3738 H 0.34334 0.82559 0.42514 0.0
H3739 H 0.3891 0.77424 0.35269 0.0
H3740 H 0.31774 0.80028 0.38515 0.0
H3741 H 0.41451 0.80966 0.3842 0.0
H3742 H 0.36326 0.7798 0.36785 0.0
H3743 H 0.37001 0.81604 0.41353 0.0
C3744 C 0.34332 0.8179 0.41405 0.0
C3745 C 0.32831 0.81388 0.406 0.0
C3746 C 0.37452 0.78628 0.37152 0.0
C3747 C 0.35864 0.8029 0.39276 0.0
C3748 C 0.38928 0.78307 0.3629 0.0
C3749 C 0.40392 0.79163 0.3671 0.0
C3750 C 0.37443 0.79805 0.38449 0.0
C3751 C 0.40345 0.80289 0.38048 0.0
C3752 C 0.35851 0.81251 0.4074 0.0
C3753 C 0.32901 0.80388 0.39165 0.0
N3754 N 0.38891 0.80584 0.38867 0.0
N3755 N 0.34389 0.79878 0.38548 0.0
H3756 H 0.94134 0.16306 0.63663 0.0
H3757 H 0.94742 0.06453 0.63241 0.0
H3758 H 0.97569 0.13698 0.60451 0.0
H3759 H 0.92434 0.08996 0.67379 0.0
H3760 H 0.95799 0.0911 0.62226 0.0
H3761 H 0.93503 0.13674 0.65073 0.0
C3762 C 0.94766 0.15182 0.63264 0.0
C3763 C 0.95894 0.15217 0.61928 0.0
C3764 C 0.95077 0.0909 0.63365 0.0
C3765 C 0.9517 0.12205 0.63525 0.0
C3766 C 0.94466 0.07573 0.63943 0.0
C3767 C 0.93487 0.07506 0.65391 0.0
C3768 C 0.94684 0.10563 0.64222 0.0
C3769 C 0.93185 0.08994 0.66259 0.0
C3770 C 0.94408 0.13682 0.64072 0.0
C3771 C 0.96683 0.13727 0.61468 0.0
N3772 N 0.93763 0.10468 0.65648 0.0
N3773 N 0.96292 0.12279 0.62253 0.0
H3774 H 0.61368 0.72626 0.85349 0.0
H3775 H 0.66093 0.67266 0.9233 0.0
H3776 H 0.58857 0.69057 0.88493 0.0
H3777 H 0.68553 0.69827 0.88288 0.0
H3778 H 0.634 0.68253 0.91256 0.0
H3779 H 0.63989 0.71969 0.86752 0.0
C3780 C 0.61366 0.71715 0.86344 0.0
C3781 C 0.59898 0.70884 0.86795 0.0
C3782 C 0.64534 0.68602 0.90613 0.0
C3783 C 0.62891 0.70124 0.88406 0.0
C3784 C 0.66069 0.68044 0.91227 0.0
C3785 C 0.67549 0.6845 0.90389 0.0
C3786 C 0.64487 0.69589 0.89166 0.0
C3787 C 0.67444 0.69463 0.88965 0.0
C3788 C 0.62863 0.71336 0.87142 0.0
C3789 C 0.59965 0.69718 0.88099 0.0
N3790 N 0.65943 0.69995 0.884 0.0
N3791 N 0.6144 0.69366 0.88856 0.0
H3792 H 0.3273 0.57726 0.59086 0.0
H3793 H 0.39752 0.52395 0.6379 0.0
H3794 H 0.36681 0.55045 0.56604 0.0
H3795 H 0.36673 0.56035 0.66279 0.0
H3796 H 0.38294 0.52992 0.61185 0.0
H3797 H 0.33828 0.56761 0.61777 0.0
C3798 C 0.33815 0.56922 0.59106 0.0
C3799 C 0.34625 0.5648 0.5762 0.0
C3800 C 0.3793 0.53654 0.62303 0.0
C3801 C 0.35878 0.5537 0.6068 0.0
C3802 C 0.3876 0.5331 0.63791 0.0
C3803 C 0.38343 0.54179 0.65248 0.0
C3804 C 0.36668 0.54869 0.62272 0.0
C3805 C 0.37041 0.55347 0.65179 0.0
C3806 C 0.34444 0.56378 0.60639 0.0
C3807 C 0.36028 0.55437 0.57718 0.0
N3808 N 0.36253 0.55664 0.63713 0.0
N3809 N 0.3661 0.54922 0.59218 0.0
H3810 H 0.82625 0.42524 0.90763 0.0
H3811 H 0.89765 0.47834 0.86216 0.0
H3812 H 0.86545 0.45168 0.93331 0.0
H3813 H 0.86619 0.44309 0.83646 0.0
H3814 H 0.88251 0.47253 0.88795 0.0
H3815 H 0.83738 0.43548 0.88102 0.0
C3816 C 0.83705 0.43334 0.90769 0.0
C3817 C 0.84504 0.43745 0.92269 0.0
C3818 C 0.87884 0.46615 0.87664 0.0
C3819 C 0.85777 0.4492 0.89242 0.0
C3820 C 0.88745 0.4695 0.86191 0.0
C3821 C 0.88328 0.46105 0.8472 0.0
C3822 C 0.86591 0.45432 0.87665 0.0
C3823 C 0.8699 0.44977 0.84758 0.0
C3824 C 0.84343 0.43912 0.89252 0.0
C3825 C 0.85901 0.44799 0.92204 0.0
N3826 N 0.86175 0.44666 0.86209 0.0
N3827 N 0.86495 0.45343 0.90718 0.0
H3828 H 0.27206 0.64705 0.1112 0.0
H3829 H 0.32558 0.57704 0.15837 0.0
H3830 H 0.30832 0.61614 0.08625 0.0
H3831 H 0.29909 0.61685 0.18304 0.0
H3832 H 0.31583 0.58788 0.13142 0.0
H3833 H 0.27816 0.63256 0.13729 0.0
C3834 C 0.28119 0.63711 0.11118 0.0
C3835 C 0.28982 0.63291 0.09659 0.0
C3836 C 0.31211 0.59414 0.14278 0.0
C3837 C 0.29689 0.61627 0.12638 0.0
C3838 C 0.31762 0.58793 0.15813 0.0
C3839 C 0.3133 0.59615 0.17296 0.0
C3840 C 0.30205 0.60849 0.14233 0.0
C3841 C 0.30294 0.61023 0.17193 0.0
C3842 C 0.28471 0.62887 0.12608 0.0
C3843 C 0.30147 0.61986 0.09726 0.0
N3844 N 0.29771 0.61595 0.15692 0.0
N3845 N 0.30474 0.61205 0.11194 0.0
H3846 H 0.17237 0.07888 0.40962 0.0
H3847 H 0.10485 0.024 0.36052 0.0
H3848 H 0.13214 0.05174 0.43285 0.0
H3849 H 0.13434 0.06194 0.33637 0.0
H3850 H 0.11887 0.03027 0.38677 0.0
H3851 H 0.16237 0.06926 0.38222 0.0
C3852 C 0.16155 0.07083 0.40897 0.0
C3853 C 0.15295 0.06628 0.42349 0.0
C3854 C 0.12236 0.03716 0.37571 0.0
C3855 C 0.14165 0.05514 0.39245 0.0
C3856 C 0.11438 0.03355 0.36071 0.0
C3857 C 0.1183 0.04259 0.3463 0.0
C3858 C 0.1344 0.04987 0.37631 0.0
C3859 C 0.13085 0.05477 0.34725 0.0
C3860 C 0.15584 0.06539 0.39338 0.0
C3861 C 0.13902 0.05579 0.42197 0.0
N3862 N 0.13841 0.05814 0.36204 0.0
N3863 N 0.13383 0.05061 0.40677 0.0
H3864 H 0.19159 0.38517 0.58561 0.0
H3865 H 0.20185 0.38419 0.6841 0.0
H3866 H 0.2271 0.35421 0.61156 0.0
H3867 H 0.17488 0.42303 0.65842 0.0
H3868 H 0.21137 0.37343 0.65744 0.0
H3869 H 0.18556 0.39967 0.61176 0.0
C3870 C 0.19823 0.38152 0.59679 0.0
C3871 C 0.20976 0.36836 0.59646 0.0
C3872 C 0.20347 0.38438 0.65757 0.0
C3873 C 0.20283 0.38481 0.62639 0.0
C3874 C 0.19795 0.3905 0.67282 0.0
C3875 C 0.1874 0.40445 0.67349 0.0
C3876 C 0.19828 0.39208 0.64277 0.0
C3877 C 0.18297 0.41222 0.65846 0.0
C3878 C 0.19479 0.38983 0.61169 0.0
C3879 C 0.21805 0.36421 0.61126 0.0
N3880 N 0.18828 0.40581 0.64367 0.0
N3881 N 0.2143 0.37229 0.62566 0.0
H3882 H 0.67311 0.42147 0.59032 0.0
H3883 H 0.60365 0.47502 0.63825 0.0
H3884 H 0.63412 0.44955 0.56608 0.0
H3885 H 0.63379 0.43776 0.66268 0.0
H3886 H 0.61813 0.46914 0.61214 0.0
H3887 H 0.66211 0.43053 0.61746 0.0
C3888 C 0.66236 0.42963 0.59069 0.0
C3889 C 0.65442 0.43461 0.57592 0.0
C3890 C 0.62165 0.4623 0.62323 0.0
C3891 C 0.6419 0.44506 0.60676 0.0
C3892 C 0.61341 0.46569 0.63815 0.0
C3893 C 0.61742 0.45676 0.6526 0.0
C3894 C 0.63405 0.44993 0.62276 0.0
C3895 C 0.63023 0.44485 0.65177 0.0
C3896 C 0.65606 0.43474 0.60615 0.0
C3897 C 0.64052 0.4452 0.57713 0.0
N3898 N 0.63806 0.44172 0.63706 0.0
N3899 N 0.63472 0.45003 0.59224 0.0
H3900 H 0.31254 0.88414 0.41561 0.0
H3901 H 0.29985 0.88398 0.31751 0.0
H3902 H 0.27623 0.85341 0.39051 0.0
H3903 H 0.3264 0.9232 0.34304 0.0
H3904 H 0.29094 0.87289 0.34429 0.0
H3905 H 0.31764 0.89896 0.38945 0.0
C3906 C 0.30555 0.8806 0.40462 0.0
C3907 C 0.29405 0.86743 0.40517 0.0
C3908 C 0.29859 0.884 0.34408 0.0
C3909 C 0.29991 0.88423 0.37524 0.0
C3910 C 0.30375 0.89032 0.32878 0.0
C3911 C 0.31402 0.90446 0.32804 0.0
C3912 C 0.3039 0.89172 0.35884 0.0
C3913 C 0.31851 0.91226 0.34304 0.0
C3914 C 0.30844 0.88909 0.38972 0.0
C3915 C 0.28527 0.86342 0.39062 0.0
N3916 N 0.31358 0.90565 0.35787 0.0
N3917 N 0.28851 0.87168 0.3762 0.0
H3918 H 0.6746 0.57563 0.84167 0.0
H3919 H 0.72821 0.64664 0.88727 0.0
H3920 H 0.70074 0.6151 0.81609 0.0
H3921 H 0.69337 0.61486 0.91312 0.0
H3922 H 0.72191 0.63188 0.86136 0.0
H3923 H 0.68494 0.58666 0.8683 0.0
C3924 C 0.68263 0.58648 0.84163 0.0
C3925 C 0.68665 0.59456 0.82665 0.0
C3926 C 0.71572 0.62806 0.87273 0.0
C3927 C 0.69853 0.60716 0.85694 0.0
C3928 C 0.71936 0.63645 0.88752 0.0
C3929 C 0.71118 0.63207 0.90232 0.0
C3930 C 0.70388 0.61514 0.87274 0.0
C3931 C 0.69986 0.61872 0.90194 0.0
C3932 C 0.68847 0.5928 0.85681 0.0
C3933 C 0.69711 0.60859 0.82734 0.0
N3934 N 0.69647 0.61078 0.88737 0.0
N3935 N 0.70263 0.61444 0.8422 0.0
H3936 H 0.63746 0.39833 0.52224 0.0
H3937 H 0.59122 0.32694 0.57465 0.0
H3938 H 0.66318 0.36579 0.55648 0.0
H3939 H 0.56611 0.36762 0.54992 0.0
H3940 H 0.61797 0.33795 0.56462 0.0
H3941 H 0.61141 0.38392 0.52862 0.0
C3942 C 0.63766 0.38805 0.53098 0.0
C3943 C 0.65246 0.38336 0.53897 0.0
C3944 C 0.60656 0.34437 0.56135 0.0
C3945 C 0.62271 0.36681 0.54636 0.0
C3946 C 0.59131 0.33808 0.56702 0.0
C3947 C 0.57642 0.34646 0.56327 0.0
C3948 C 0.60684 0.359 0.55171 0.0
C3949 C 0.57727 0.36085 0.55333 0.0
C3950 C 0.62278 0.37985 0.53466 0.0
C3951 C 0.652 0.36988 0.55014 0.0
N3952 N 0.59219 0.36665 0.54793 0.0
N3953 N 0.63734 0.36213 0.55358 0.0
H3954 H 0.38543 0.31447 0.79848 0.0
H3955 H 0.38632 0.41256 0.81184 0.0
H3956 H 0.42402 0.3393 0.82656 0.0
H3957 H 0.35632 0.38792 0.77462 0.0
H3958 H 0.40065 0.38618 0.81732 0.0
H3959 H 0.37488 0.34145 0.78954 0.0
C3960 C 0.39174 0.32563 0.80273 0.0
C3961 C 0.40556 0.32463 0.81341 0.0
C3962 C 0.39105 0.3866 0.80784 0.0
C3963 C 0.39342 0.35568 0.80325 0.0
C3964 C 0.38285 0.40163 0.80473 0.0
C3965 C 0.37002 0.40238 0.79286 0.0
C3966 C 0.38625 0.3722 0.79913 0.0
C3967 C 0.36606 0.38788 0.78395 0.0
C3968 C 0.38574 0.34105 0.79754 0.0
C3969 C 0.41334 0.33951 0.81833 0.0
N3970 N 0.37403 0.37335 0.78739 0.0
N3971 N 0.40703 0.35446 0.81337 0.0
H3972 H 0.4354 0.13113 0.05158 0.0
H3973 H 0.33692 0.13429 0.06033 0.0
H3974 H 0.41012 0.17125 0.07697 0.0
H3975 H 0.36252 0.10272 0.02512 0.0
H3976 H 0.36328 0.14842 0.06636 0.0
H3977 H 0.40867 0.12094 0.04151 0.0
C3978 C 0.4242 0.13787 0.05497 0.0
C3979 C 0.42497 0.15199 0.06526 0.0
C3980 C 0.36309 0.13852 0.05719 0.0
C3981 C 0.39421 0.14026 0.05384 0.0
C3982 C 0.34807 0.13042 0.05377 0.0
C3983 C 0.34758 0.11721 0.04231 0.0
C3984 C 0.37774 0.13323 0.04923 0.0
C3985 C 0.36235 0.11277 0.03411 0.0
C3986 C 0.40892 0.13206 0.04915 0.0
C3987 C 0.41007 0.16032 0.06907 0.0
N3988 N 0.37686 0.12065 0.03786 0.0
N3989 N 0.39524 0.15419 0.06353 0.0
H3990 H 0.57531 0.15732 0.32496 0.0
H3991 H 0.64737 0.11281 0.27195 0.0
H3992 H 0.61496 0.18303 0.29924 0.0
H3993 H 0.61532 0.08585 0.30569 0.0
H3994 H 0.63209 0.1383 0.27824 0.0
H3995 H 0.58654 0.13068 0.31469 0.0
C3996 C 0.58624 0.15738 0.31705 0.0
C3997 C 0.59431 0.1724 0.31311 0.0
C3998 C 0.62829 0.1268 0.2842 0.0
C3999 C 0.60709 0.14214 0.30129 0.0
C4000 C 0.637 0.11222 0.28056 0.0
C4001 C 0.63273 0.09722 0.28844 0.0
C4002 C 0.61519 0.12644 0.29582 0.0
C4003 C 0.61908 0.09719 0.29941 0.0
C4004 C 0.59267 0.1422 0.31124 0.0
C4005 C 0.60844 0.17176 0.30281 0.0
N4006 N 0.61086 0.11162 0.30289 0.0
N4007 N 0.61437 0.15693 0.29732 0.0
H4008 H 0.56404 0.63665 0.45217 0.0
H4009 H 0.66252 0.63676 0.44151 0.0
H4010 H 0.59 0.67505 0.42486 0.0
H4011 H 0.63666 0.60657 0.47772 0.0
H4012 H 0.6364 0.65126 0.43537 0.0
H4013 H 0.59067 0.62573 0.46173 0.0
C4014 C 0.57537 0.64284 0.44822 0.0
C4015 C 0.57479 0.65672 0.43757 0.0
C4016 C 0.63647 0.64158 0.44477 0.0
C4017 C 0.60545 0.64416 0.44846 0.0
C4018 C 0.65136 0.63328 0.44827 0.0
C4019 C 0.65172 0.62036 0.46006 0.0
C4020 C 0.6218 0.6368 0.453 0.0
C4021 C 0.63694 0.6164 0.46849 0.0
C4022 C 0.59059 0.63663 0.45376 0.0
C4023 C 0.58988 0.66432 0.43305 0.0
N4024 N 0.62255 0.62448 0.46467 0.0
N4025 N 0.60463 0.65782 0.43837 0.0
H4026 H 0.11732 0.41514 0.69098 0.0
H4027 H 0.11676 0.31658 0.70113 0.0
H4028 H 0.14855 0.38862 0.72582 0.0
H4029 H 0.07853 0.34305 0.67407 0.0
H4030 H 0.12792 0.34304 0.71083 0.0
H4031 H 0.10229 0.38925 0.6852 0.0
C4032 C 0.12092 0.40389 0.69753 0.0
C4033 C 0.1343 0.40399 0.7088 0.0
C4034 C 0.11701 0.34312 0.70289 0.0
C4035 C 0.11724 0.37433 0.70215 0.0
C4036 C 0.11065 0.32799 0.69727 0.0
C4037 C 0.09677 0.3276 0.68662 0.0
C4038 C 0.10962 0.35808 0.69767 0.0
C4039 C 0.08926 0.34279 0.68224 0.0
C4040 C 0.11231 0.38913 0.69424 0.0
C4041 C 0.13838 0.3891 0.71698 0.0
N4042 N 0.09591 0.35745 0.68763 0.0
N4043 N 0.12999 0.37484 0.71337 0.0
H4044 H 0.33675 0.86708 0.93755 0.0
H4045 H 0.43513 0.86824 0.94885 0.0
H4046 H 0.36211 0.89728 0.9741 0.0
H4047 H 0.40985 0.82899 0.9221 0.0
H4048 H 0.40831 0.8791 0.95784 0.0
H4049 H 0.36308 0.8529 0.93144 0.0
C4050 C 0.34783 0.87063 0.94438 0.0
C4051 C 0.34728 0.88346 0.95627 0.0
C4052 C 0.40858 0.86804 0.95011 0.0
C4053 C 0.37741 0.8674 0.94926 0.0
C4054 C 0.42391 0.86185 0.94488 0.0
C4055 C 0.42474 0.84773 0.93459 0.0
C4056 C 0.39386 0.86022 0.94486 0.0
C4057 C 0.40977 0.8399 0.93003 0.0
C4058 C 0.36283 0.86252 0.94091 0.0
C4059 C 0.36198 0.88753 0.96479 0.0
N4060 N 0.3949 0.84636 0.93506 0.0
N4061 N 0.37646 0.87963 0.961 0.0
H4062 H 0.92803 0.15872 0.1706 0.0
H4063 H 0.86089 0.11315 0.22861 0.0
H4064 H 0.89053 0.18419 0.19957 0.0
H4065 H 0.88618 0.08781 0.18846 0.0
H4066 H 0.87592 0.13861 0.22164 0.0
H4067 H 0.91682 0.13192 0.18046 0.0
C4068 C 0.91758 0.15867 0.17915 0.0
C4069 C 0.91009 0.17367 0.18416 0.0
C4070 C 0.87826 0.12747 0.21439 0.0
C4071 C 0.89739 0.14327 0.19551 0.0
C4072 C 0.8697 0.11291 0.21839 0.0
C4073 C 0.87215 0.0984 0.20897 0.0
C4074 C 0.88944 0.12753 0.20094 0.0
C4075 C 0.88383 0.09879 0.19595 0.0
C4076 C 0.91117 0.14342 0.18469 0.0
C4077 C 0.89656 0.17293 0.19521 0.0
N4078 N 0.89202 0.11318 0.19224 0.0
N4079 N 0.89066 0.15801 0.20049 0.0
H4080 H 0.5541 0.16551 0.86242 0.0
H4081 H 0.54904 0.06698 0.86158 0.0
H4082 H 0.5174 0.13743 0.88993 0.0
H4083 H 0.57617 0.0944 0.82409 0.0
H4084 H 0.53691 0.09293 0.87147 0.0
H4085 H 0.56169 0.14013 0.84728 0.0
C4086 C 0.54747 0.15406 0.86511 0.0
C4087 C 0.53527 0.15352 0.87764 0.0
C4088 C 0.54538 0.09332 0.86098 0.0
C4089 C 0.54402 0.12447 0.86051 0.0
C4090 C 0.55241 0.0785 0.85538 0.0
C4091 C 0.56379 0.07855 0.8421 0.0
C4092 C 0.54992 0.10844 0.85346 0.0
C4093 C 0.56749 0.09382 0.8344 0.0
C4094 C 0.55182 0.13959 0.85646 0.0
C4095 C 0.52702 0.13839 0.88053 0.0
N4096 N 0.56074 0.10822 0.84035 0.0
N4097 N 0.53171 0.12442 0.87221 0.0
H4098 H 0.58805 0.30882 0.11341 0.0
H4099 H 0.68662 0.30483 0.11721 0.0
H4100 H 0.61483 0.27555 0.14609 0.0
H4101 H 0.6604 0.32655 0.07559 0.0
H4102 H 0.66038 0.29367 0.12764 0.0
H4103 H 0.61415 0.31521 0.09901 0.0
C4104 C 0.59941 0.30275 0.11746 0.0
C4105 C 0.59932 0.29175 0.13106 0.0
C4106 C 0.66035 0.30071 0.11612 0.0
C4107 C 0.6292 0.2991 0.11473 0.0
C4108 C 0.67533 0.30714 0.11018 0.0
C4109 C 0.67566 0.31674 0.09557 0.0
C4110 C 0.64548 0.30413 0.10757 0.0
C4111 C 0.66068 0.3192 0.0869 0.0
C4112 C 0.61428 0.30637 0.1092 0.0
C4113 C 0.61435 0.28417 0.13573 0.0
N4114 N 0.64612 0.31313 0.09316 0.0
N4115 N 0.62873 0.28814 0.1277 0.0
H4116 H 0.43987 0.33847 0.36398 0.0
H4117 H 0.44944 0.43701 0.3663 0.0
H4118 H 0.4757 0.36403 0.39487 0.0
H4119 H 0.42287 0.41159 0.32704 0.0
H4120 H 0.45912 0.41026 0.37678 0.0
H4121 H 0.4335 0.36484 0.35005 0.0
C4122 C 0.4465 0.34961 0.36774 0.0
C4123 C 0.45825 0.3491 0.38069 0.0
C4124 C 0.45128 0.41049 0.3658 0.0
C4125 C 0.45092 0.37929 0.3649 0.0
C4126 C 0.44566 0.42578 0.35983 0.0
C4127 C 0.43519 0.42655 0.34583 0.0
C4128 C 0.44625 0.39575 0.35788 0.0
C4129 C 0.4309 0.41157 0.33787 0.0
C4130 C 0.44287 0.36464 0.35976 0.0
C4131 C 0.46651 0.36387 0.385 0.0
N4132 N 0.4363 0.39674 0.34412 0.0
N4133 N 0.46256 0.3784 0.37724 0.0
H4134 H 0.31346 0.19898 0.6181 0.0
H4135 H 0.38899 0.23174 0.64199 0.0
H4136 H 0.33961 0.17564 0.57728 0.0
H4137 H 0.40998 0.18915 0.61674 0.0
H4138 H 0.36235 0.22628 0.6284 0.0
H4139 H 0.33967 0.20953 0.62865 0.0
C4140 C 0.32474 0.19623 0.61121 0.0
C4141 C 0.3243 0.18633 0.59678 0.0
C4142 C 0.37269 0.21799 0.62595 0.0
C4143 C 0.35461 0.19888 0.60867 0.0
C4144 C 0.38797 0.22122 0.63359 0.0
C4145 C 0.40162 0.21072 0.63071 0.0
C4146 C 0.37099 0.20401 0.6155 0.0
C4147 C 0.39969 0.19744 0.61947 0.0
C4148 C 0.33976 0.20249 0.61715 0.0
C4149 C 0.33936 0.18326 0.58841 0.0
N4150 N 0.38461 0.19439 0.61235 0.0
N4151 N 0.35396 0.18934 0.59461 0.0
H4152 H 0.51954 0.86268 0.10665 0.0
H4153 H 0.57551 0.91098 0.17383 0.0
H4154 H 0.55793 0.83846 0.13551 0.0
H4155 H 0.54679 0.93504 0.1352 0.0
H4156 H 0.56577 0.88381 0.16353 0.0
H4157 H 0.52583 0.88887 0.12084 0.0
C4158 C 0.52919 0.86284 0.11608 0.0
C4159 C 0.53834 0.84843 0.11978 0.0
C4160 C 0.56156 0.89508 0.15741 0.0
C4161 C 0.54564 0.87835 0.13607 0.0
C4162 C 0.56706 0.91056 0.16331 0.0
C4163 C 0.56209 0.92527 0.15525 0.0
C4164 C 0.55087 0.8944 0.14354 0.0
C4165 C 0.55113 0.92401 0.14167 0.0
C4166 C 0.53281 0.8778 0.12415 0.0
C4167 C 0.55066 0.84934 0.13219 0.0
N4168 N 0.54593 0.90888 0.13625 0.0
N4169 N 0.55403 0.86408 0.13984 0.0
H4170 H 0.84077 0.32558 0.4229 0.0
H4171 H 0.88774 0.27329 0.35182 0.0
H4172 H 0.81602 0.30072 0.38212 0.0
H4173 H 0.91289 0.30841 0.38385 0.0
H4174 H 0.86162 0.2793 0.36632 0.0
H4175 H 0.86765 0.31554 0.41212 0.0
C4176 C 0.84097 0.31788 0.41182 0.0
C4177 C 0.82617 0.31414 0.40329 0.0
C4178 C 0.87288 0.28561 0.37025 0.0
C4179 C 0.8567 0.30258 0.391 0.0
C4180 C 0.8878 0.28215 0.36201 0.0
C4181 C 0.90245 0.29049 0.36653 0.0
C4182 C 0.87264 0.29744 0.38318 0.0
C4183 C 0.90182 0.30181 0.37987 0.0
C4184 C 0.85629 0.31222 0.40564 0.0
C4185 C 0.82714 0.30412 0.38897 0.0
N4186 N 0.88713 0.30502 0.38769 0.0
N4187 N 0.84211 0.29874 0.38328 0.0
H4188 H 0.47725 0.63826 0.60431 0.0
H4189 H 0.42488 0.59059 0.67476 0.0
H4190 H 0.44165 0.66289 0.63622 0.0
H4191 H 0.45068 0.56607 0.63442 0.0
H4192 H 0.43463 0.61755 0.66404 0.0
H4193 H 0.47142 0.612 0.61862 0.0
C4194 C 0.46832 0.63818 0.61443 0.0
C4195 C 0.4598 0.65273 0.61898 0.0
C4196 C 0.43822 0.60622 0.65764 0.0
C4197 C 0.45305 0.62275 0.6354 0.0
C4198 C 0.43272 0.59086 0.66378 0.0
C4199 C 0.43683 0.57607 0.65538 0.0
C4200 C 0.44804 0.60674 0.64314 0.0
C4201 C 0.44702 0.57715 0.64118 0.0
C4202 C 0.46496 0.62318 0.62257 0.0
C4203 C 0.4484 0.65191 0.63223 0.0
N4204 N 0.45223 0.59219 0.63551 0.0
N4205 N 0.44529 0.63715 0.63994 0.0
H4206 H 0.08745 0.19179 0.88415 0.0
H4207 H 0.18592 0.20099 0.88376 0.0
H4208 H 0.11364 0.22749 0.85364 0.0
H4209 H 0.15958 0.17458 0.92252 0.0
H4210 H 0.15945 0.21121 0.87303 0.0
H4211 H 0.11343 0.18573 0.89888 0.0
C4212 C 0.09865 0.19846 0.88065 0.0
C4213 C 0.09844 0.21006 0.86755 0.0
C4214 C 0.15942 0.20331 0.88397 0.0
C4215 C 0.12821 0.20309 0.88426 0.0
C4216 C 0.17454 0.1974 0.89008 0.0
C4217 C 0.17495 0.18677 0.90397 0.0
C4218 C 0.1445 0.1984 0.89163 0.0
C4219 C 0.15983 0.18272 0.91176 0.0
C4220 C 0.11346 0.19502 0.88909 0.0
C4221 C 0.11327 0.2184 0.8636 0.0
N4222 N 0.14517 0.18837 0.90535 0.0
N4223 N 0.12759 0.21462 0.8718 0.0
H4224 H 0.87603 0.02181 0.64587 0.0
H4225 H 0.82411 0.05539 0.58307 0.0
H4226 H 0.87977 0.07326 0.661 0.0
H4227 H 0.86454 0.09078 0.5816 0.0
H4228 H 0.83417 0.04562 0.61042 0.0
H4229 H 0.86079 0.03069 0.62078 0.0
C4230 C 0.87344 0.03493 0.64398 0.0
C4231 C 0.87899 0.04684 0.65548 0.0
C4232 C 0.8407 0.0556 0.60409 0.0
C4233 C 0.86202 0.05699 0.62695 0.0
C4234 C 0.83494 0.06123 0.58864 0.0
C4235 C 0.84363 0.07378 0.58016 0.0
C4236 C 0.85492 0.06294 0.61114 0.0
C4237 C 0.85763 0.08095 0.58776 0.0
C4238 C 0.86471 0.03995 0.62979 0.0
C4239 C 0.8755 0.06371 0.65248 0.0
N4240 N 0.8628 0.0755 0.60292 0.0
N4241 N 0.86751 0.06833 0.63829 0.0
H4242 H 0.32699 0.92477 0.9082 0.0
H4243 H 0.39923 0.97763 0.86369 0.0
H4244 H 0.36532 0.95191 0.93445 0.0
H4245 H 0.36873 0.9417 0.83777 0.0
H4246 H 0.3836 0.97195 0.88923 0.0
H4247 H 0.33886 0.93452 0.88171 0.0
C4248 C 0.33774 0.93293 0.9084 0.0
C4249 C 0.34529 0.93738 0.92353 0.0
C4250 C 0.38025 0.96538 0.87792 0.0
C4251 C 0.35886 0.94855 0.89341 0.0
C4252 C 0.38916 0.96865 0.86334 0.0
C4253 C 0.38537 0.96001 0.84864 0.0
C4254 C 0.36743 0.95344 0.87779 0.0
C4255 C 0.37215 0.94854 0.84889 0.0
C4256 C 0.34456 0.93842 0.8933 0.0
C4257 C 0.35923 0.94796 0.92307 0.0
N4258 N 0.36369 0.94553 0.86325 0.0
N4259 N 0.36558 0.95312 0.90829 0.0
H4260 H 0.82386 0.07498 0.16413 0.0
H4261 H 0.80607 0.11733 0.08993 0.0
H4262 H 0.80717 0.12068 0.18714 0.0
H4263 H 0.77413 0.14822 0.12021 0.0
H4264 H 0.81403 0.10168 0.11475 0.0
H4265 H 0.81274 0.08485 0.13746 0.0
C4266 C 0.81785 0.08706 0.16359 0.0
C4267 C 0.81669 0.09711 0.17786 0.0
C4268 C 0.80496 0.11157 0.11596 0.0
C4269 C 0.80421 0.10863 0.14736 0.0
C4270 C 0.80049 0.12062 0.10177 0.0
C4271 C 0.78949 0.13417 0.10302 0.0
C4272 C 0.79839 0.11617 0.13154 0.0
C4273 C 0.78271 0.13793 0.11867 0.0
C4274 C 0.81165 0.09277 0.1483 0.0
C4275 C 0.80862 0.11259 0.17644 0.0
N4276 N 0.78743 0.12911 0.13233 0.0
N4277 N 0.80274 0.11785 0.1615 0.0
H4278 H 0.63407 0.56211 0.33965 0.0
H4279 H 0.6325 0.55233 0.4381 0.0
H4280 H 0.60242 0.52705 0.36537 0.0
H4281 H 0.67203 0.57808 0.41226 0.0
H4282 H 0.62167 0.54267 0.41147 0.0
H4283 H 0.64855 0.56782 0.36585 0.0
C4284 C 0.63026 0.55551 0.35079 0.0
C4285 C 0.61693 0.54419 0.35039 0.0
C4286 C 0.6328 0.5503 0.41159 0.0
C4287 C 0.63336 0.55076 0.38039 0.0
C4288 C 0.63896 0.5559 0.4268 0.0
C4289 C 0.65312 0.56617 0.4274 0.0
C4290 C 0.64068 0.55518 0.39676 0.0
C4291 C 0.66108 0.5702 0.41236 0.0
C4292 C 0.63856 0.55876 0.36573 0.0
C4293 C 0.61257 0.53593 0.36515 0.0
N4294 N 0.65462 0.56486 0.39761 0.0
N4295 N 0.62065 0.53951 0.37959 0.0
H4296 H 0.70073 0.88507 0.6865 0.0
H4297 H 0.69162 0.88486 0.58794 0.0
H4298 H 0.6741 0.92352 0.65989 0.0
H4299 H 0.72714 0.85441 0.61448 0.0
H4300 H 0.68534 0.89962 0.61386 0.0
H4301 H 0.7108 0.87407 0.6601 0.0
C4302 C 0.69705 0.89126 0.67508 0.0
C4303 C 0.68642 0.90516 0.67539 0.0
C4304 C 0.69463 0.88983 0.61397 0.0
C4305 C 0.69788 0.89251 0.64502 0.0
C4306 C 0.6982 0.88137 0.5992 0.0
C4307 C 0.70982 0.86829 0.59911 0.0
C4308 C 0.7026 0.88504 0.62879 0.0
C4309 C 0.71803 0.86435 0.61401 0.0
C4310 C 0.70287 0.885 0.65999 0.0
C4311 C 0.68225 0.91277 0.66021 0.0
N4312 N 0.71414 0.87258 0.62829 0.0
N4313 N 0.68784 0.90621 0.64559 0.0
H4314 H 0.13714 0.9453 0.66194 0.0
H4315 H 0.13731 0.95046 0.56328 0.0
H4316 H 0.10707 0.97987 0.63378 0.0
H4317 H 0.17543 0.92415 0.59062 0.0
H4318 H 0.12714 0.96232 0.58925 0.0
H4319 H 0.15251 0.93842 0.63649 0.0
C4320 C 0.13392 0.95161 0.65045 0.0
C4321 C 0.12066 0.96301 0.64991 0.0
C4322 C 0.13784 0.9541 0.58962 0.0
C4323 C 0.13807 0.95511 0.62079 0.0
C4324 C 0.14362 0.94726 0.57478 0.0
C4325 C 0.15713 0.93616 0.57483 0.0
C4326 C 0.14541 0.94963 0.60474 0.0
C4327 C 0.16496 0.93264 0.59007 0.0
C4328 C 0.1427 0.94768 0.63594 0.0
C4329 C 0.11706 0.97086 0.63473 0.0
N4330 N 0.15882 0.93917 0.60449 0.0
N4331 N 0.12558 0.96662 0.62075 0.0
H4332 H 0.81259 0.38254 0.4131 0.0
H4333 H 0.79876 0.38474 0.31515 0.0
H4334 H 0.77308 0.35627 0.38777 0.0
H4335 H 0.82992 0.42071 0.3402 0.0
H4336 H 0.7892 0.37457 0.34201 0.0
H4337 H 0.81905 0.39722 0.38708 0.0
C4338 C 0.80517 0.37999 0.40211 0.0
C4339 C 0.79239 0.36804 0.40253 0.0
C4340 C 0.79803 0.38478 0.34171 0.0
C4341 C 0.79977 0.38466 0.37281 0.0
C4342 C 0.80357 0.39055 0.32635 0.0
C4343 C 0.81528 0.40349 0.32545 0.0
C4344 C 0.8044 0.39179 0.3564 0.0
C4345 C 0.82089 0.41069 0.34037 0.0
C4346 C 0.80886 0.38838 0.3873 0.0
C4347 C 0.78313 0.36526 0.38798 0.0
N4348 N 0.81555 0.40459 0.3553 0.0
N4349 N 0.78712 0.37338 0.3737 0.0
H4350 H 0.17594 0.07517 0.83731 0.0
H4351 H 0.18795 0.11593 0.9133 0.0
H4352 H 0.19661 0.12032 0.81652 0.0
H4353 H 0.22484 0.145 0.88713 0.0
H4354 H 0.18139 0.10141 0.88744 0.0
H4355 H 0.18469 0.08442 0.86502 0.0
C4356 C 0.18229 0.08702 0.83856 0.0
C4357 C 0.18531 0.09708 0.82457 0.0
C4358 C 0.19121 0.11064 0.88737 0.0
C4359 C 0.19509 0.10791 0.85626 0.0
C4360 C 0.19487 0.11907 0.90214 0.0
C4361 C 0.20693 0.13173 0.90234 0.0
C4362 C 0.19967 0.11497 0.87267 0.0
C4363 C 0.21545 0.13534 0.88753 0.0
C4364 C 0.18715 0.09238 0.85442 0.0
C4365 C 0.19376 0.11224 0.82694 0.0
N4366 N 0.21151 0.12713 0.87325 0.0
N4367 N 0.19832 0.11717 0.84244 0.0
H4368 H 0.56059 0.8689 0.05297 0.0
H4369 H 0.65927 0.86671 0.06074 0.0
H4370 H 0.58678 0.82871 0.07736 0.0
H4371 H 0.6331 0.8988 0.02642 0.0
H4372 H 0.63306 0.85246 0.06696 0.0
H4373 H 0.5871 0.87993 0.04317 0.0
C4374 C 0.57193 0.86234 0.05623 0.0
C4375 C 0.57146 0.84791 0.06613 0.0
C4376 C 0.63308 0.86251 0.05795 0.0
C4377 C 0.60196 0.86058 0.05496 0.0
C4378 C 0.64802 0.87068 0.05441 0.0
C4379 C 0.64832 0.88404 0.04313 0.0
C4380 C 0.61829 0.86788 0.0503 0.0
C4381 C 0.63341 0.8886 0.03524 0.0
C4382 C 0.58708 0.86862 0.05055 0.0
C4383 C 0.58656 0.83987 0.06977 0.0
N4384 N 0.61897 0.88065 0.03911 0.0
N4385 N 0.60124 0.84642 0.06433 0.0
H4386 H 0.38387 0.91445 0.31246 0.0
H4387 H 0.38456 0.81627 0.29953 0.0
H4388 H 0.35352 0.88908 0.27603 0.0
H4389 H 0.423 0.84192 0.32707 0.0
H4390 H 0.37337 0.843 0.29064 0.0
H4391 H 0.39875 0.88836 0.3178 0.0
C4392 C 0.38043 0.90342 0.30548 0.0
C4393 C 0.36735 0.90389 0.29387 0.0
C4394 C 0.38433 0.84284 0.29851 0.0
C4395 C 0.38423 0.87401 0.30001 0.0
C4396 C 0.39071 0.82755 0.30366 0.0
C4397 C 0.40467 0.82685 0.31419 0.0
C4398 C 0.39179 0.85764 0.30408 0.0
C4399 C 0.41221 0.84189 0.31897 0.0
C4400 C 0.38895 0.88855 0.30852 0.0
C4401 C 0.36346 0.88927 0.28515 0.0
N4402 N 0.40554 0.85671 0.31403 0.0
N4403 N 0.37175 0.87489 0.28851 0.0
H4404 H 0.36369 0.60359 0.52441 0.0
H4405 H 0.40992 0.67398 0.57817 0.0
H4406 H 0.3382 0.63472 0.5601 0.0
H4407 H 0.43517 0.63424 0.55211 0.0
H4408 H 0.38317 0.66292 0.56819 0.0
H4409 H 0.3897 0.61805 0.53088 0.0
C4410 C 0.36353 0.61356 0.5335 0.0
C4411 C 0.34881 0.61786 0.54185 0.0
C4412 C 0.39461 0.65672 0.56462 0.0
C4413 C 0.37851 0.63446 0.54932 0.0
C4414 C 0.40986 0.66304 0.57025 0.0
C4415 C 0.42479 0.65493 0.56611 0.0
C4416 C 0.39436 0.64232 0.55463 0.0
C4417 C 0.42397 0.64079 0.55581 0.0
C4418 C 0.37839 0.62179 0.53722 0.0
C4419 C 0.34932 0.63093 0.55347 0.0
N4420 N 0.40905 0.63494 0.55046 0.0
N4421 N 0.36396 0.63874 0.55693 0.0
H4422 H 0.5769 0.65984 0.82798 0.0
H4423 H 0.64669 0.61205 0.77482 0.0
H4424 H 0.61631 0.6843 0.80072 0.0
H4425 H 0.61602 0.58763 0.81163 0.0
H4426 H 0.63222 0.63822 0.7806 0.0
H4427 H 0.58775 0.6328 0.81855 0.0
C4428 C 0.5877 0.65953 0.81989 0.0
C4429 C 0.59581 0.67432 0.81527 0.0
C4430 C 0.62859 0.62711 0.78735 0.0
C4431 C 0.6082 0.64358 0.80443 0.0
C4432 C 0.63682 0.61216 0.78403 0.0
C4433 C 0.63265 0.5977 0.79288 0.0
C4434 C 0.61604 0.62758 0.79956 0.0
C4435 C 0.6197 0.59855 0.80462 0.0
C4436 C 0.59392 0.64413 0.81457 0.0
C4437 C 0.60977 0.67321 0.80477 0.0
N4438 N 0.61189 0.61327 0.80768 0.0
N4439 N 0.61553 0.65813 0.79976 0.0
H4440 H 0.5865 0.17111 0.92109 0.0
H4441 H 0.63358 0.09836 0.97048 0.0
H4442 H 0.56327 0.12511 0.93664 0.0
H4443 H 0.65993 0.13458 0.94071 0.0
H4444 H 0.60723 0.11099 0.96192 0.0
H4445 H 0.6133 0.16054 0.93159 0.0
C4446 C 0.58702 0.15885 0.92669 0.0
C4447 C 0.57264 0.14895 0.92787 0.0
C4448 C 0.61879 0.11622 0.95731 0.0
C4449 C 0.60303 0.13697 0.94006 0.0
C4450 C 0.63382 0.10906 0.96226 0.0
C4451 C 0.64893 0.11536 0.95619 0.0
C4452 C 0.61886 0.12989 0.94636 0.0
C4453 C 0.64852 0.12928 0.94558 0.0
C4454 C 0.60228 0.15283 0.93265 0.0
C4455 C 0.57402 0.13314 0.93528 0.0
N4456 N 0.63371 0.13609 0.94096 0.0
N4457 N 0.5889 0.1277 0.94113 0.0
H4458 H 0.14544 0.88799 0.22828 0.0
H4459 H 0.07678 0.84059 0.17331 0.0
H4460 H 0.1153 0.91271 0.19123 0.0
H4461 H 0.11592 0.81595 0.2008 0.0
H4462 H 0.08729 0.86754 0.18335 0.0
H4463 H 0.13111 0.86185 0.22202 0.0
C4464 C 0.1357 0.88795 0.21895 0.0
C4465 C 0.13167 0.90249 0.21014 0.0
C4466 C 0.09347 0.85619 0.18724 0.0
C4467 C 0.11522 0.87264 0.2029 0.0
C4468 C 0.08745 0.84083 0.18157 0.0
C4469 C 0.09559 0.82602 0.18607 0.0
C4470 C 0.10757 0.85667 0.19763 0.0
C4471 C 0.10938 0.82706 0.19681 0.0
C4472 C 0.12755 0.87302 0.21534 0.0
C4473 C 0.11888 0.90174 0.19821 0.0
N4474 N 0.11494 0.84209 0.20218 0.0
N4475 N 0.11116 0.88704 0.19487 0.0
H4476 H 0.33812 0.36579 0.43986 0.0
H4477 H 0.43668 0.36651 0.44943 0.0
H4478 H 0.36427 0.39696 0.47502 0.0
H4479 H 0.41053 0.32797 0.42252 0.0
H4480 H 0.41015 0.37727 0.4594 0.0
H4481 H 0.3642 0.35121 0.43382 0.0
C4482 C 0.34933 0.36948 0.44641 0.0
C4483 C 0.34908 0.3827 0.45786 0.0
C4484 C 0.41016 0.36637 0.45144 0.0
C4485 C 0.37895 0.36615 0.45092 0.0
C4486 C 0.42533 0.36024 0.44567 0.0
C4487 C 0.42582 0.3464 0.43498 0.0
C4488 C 0.39527 0.35878 0.44632 0.0
C4489 C 0.41072 0.33868 0.43072 0.0
C4490 C 0.3642 0.36112 0.44298 0.0
C4491 C 0.36393 0.3869 0.46604 0.0
N4492 N 0.39602 0.34511 0.43624 0.0
N4493 N 0.3783 0.37876 0.46229 0.0
H4494 H 0.88368 0.58379 0.68964 0.0
H4495 H 0.88327 0.6823 0.70002 0.0
H4496 H 0.85248 0.60983 0.72486 0.0
H4497 H 0.9226 0.65632 0.67408 0.0
H4498 H 0.872 0.6557 0.70915 0.0
H4499 H 0.89834 0.60988 0.68378 0.0
C4500 C 0.88 0.59497 0.69624 0.0
C4501 C 0.86675 0.59468 0.70767 0.0
C4502 C 0.88316 0.65576 0.70156 0.0
C4503 C 0.88338 0.62456 0.70093 0.0
C4504 C 0.88958 0.67097 0.69626 0.0
C4505 C 0.90384 0.67154 0.68613 0.0
C4506 C 0.89087 0.6409 0.69656 0.0
C4507 C 0.91158 0.65644 0.68186 0.0
C4508 C 0.8884 0.60985 0.69291 0.0
C4509 C 0.86256 0.6095 0.71591 0.0
N4510 N 0.90488 0.64169 0.68694 0.0
N4511 N 0.87074 0.62387 0.71225 0.0
H4512 H 0.52268 0.64039 0.3989 0.0
H4513 H 0.57514 0.59291 0.32844 0.0
H4514 H 0.55842 0.66506 0.36718 0.0
H4515 H 0.54959 0.56828 0.36889 0.0
H4516 H 0.56529 0.61982 0.33917 0.0
H4517 H 0.52853 0.61416 0.38455 0.0
C4518 C 0.53164 0.64032 0.38882 0.0
C4519 C 0.54021 0.65486 0.38434 0.0
C4520 C 0.56178 0.60848 0.3456 0.0
C4521 C 0.54696 0.62494 0.36786 0.0
C4522 C 0.56734 0.59314 0.33946 0.0
C4523 C 0.56333 0.57834 0.34788 0.0
C4524 C 0.552 0.60896 0.36012 0.0
C4525 C 0.55318 0.57937 0.36211 0.0
C4526 C 0.53501 0.62534 0.38065 0.0
C4527 C 0.55164 0.65408 0.37111 0.0
N4528 N 0.54791 0.5944 0.36778 0.0
N4529 N 0.55475 0.63933 0.36338 0.0
H4530 H 0.68695 0.79992 0.61806 0.0
H4531 H 0.58837 0.80882 0.61551 0.0
H4532 H 0.66139 0.8261 0.57862 0.0
H4533 H 0.61419 0.7738 0.64713 0.0
H4534 H 0.61465 0.81495 0.60133 0.0
H4535 H 0.66028 0.78996 0.62845 0.0
C4536 C 0.6757 0.80354 0.61152 0.0
C4537 C 0.6764 0.81401 0.59752 0.0
C4538 C 0.61454 0.8058 0.61125 0.0
C4539 C 0.64568 0.80264 0.60947 0.0
C4540 C 0.59955 0.8023 0.61937 0.0
C4541 C 0.59913 0.79088 0.63262 0.0
C4542 C 0.62925 0.79795 0.61654 0.0
C4543 C 0.61395 0.78276 0.63705 0.0
C4544 C 0.66046 0.79776 0.61744 0.0
C4545 C 0.66142 0.81808 0.58946 0.0
N4546 N 0.62844 0.78658 0.62914 0.0
N4547 N 0.64662 0.81254 0.59568 0.0
H4548 H 0.4537 0.93625 0.86722 0.0
H4549 H 0.44299 0.83785 0.86507 0.0
H4550 H 0.42725 0.91096 0.82779 0.0
H4551 H 0.47782 0.86324 0.89722 0.0
H4552 H 0.43765 0.86414 0.85057 0.0
H4553 H 0.46319 0.90946 0.87776 0.0
C4554 C 0.44994 0.92503 0.86072 0.0
C4555 C 0.43951 0.92584 0.84668 0.0
C4556 C 0.44659 0.86392 0.86068 0.0
C4557 C 0.45031 0.89499 0.85881 0.0
C4558 C 0.44963 0.84893 0.86898 0.0
C4559 C 0.46075 0.84841 0.88247 0.0
C4560 C 0.4546 0.87852 0.86603 0.0
C4561 C 0.46907 0.8631 0.88695 0.0
C4562 C 0.45543 0.90972 0.86672 0.0
C4563 C 0.43524 0.9109 0.83866 0.0
N4564 N 0.46569 0.87759 0.87887 0.0
N4565 N 0.44049 0.89604 0.84497 0.0
H4566 H 0.31387 0.69974 0.11636 0.0
H4567 H 0.41231 0.68907 0.11536 0.0
H4568 H 0.33957 0.67347 0.07707 0.0
H4569 H 0.3867 0.72486 0.14627 0.0
H4570 H 0.38608 0.68319 0.10095 0.0
H4571 H 0.34057 0.70899 0.12735 0.0
C4572 C 0.32515 0.69594 0.10999 0.0
C4573 C 0.32448 0.68569 0.09583 0.0
C4574 C 0.38624 0.69245 0.11077 0.0
C4575 C 0.35521 0.69624 0.10846 0.0
C4576 C 0.40119 0.69579 0.11902 0.0
C4577 C 0.40164 0.70739 0.13211 0.0
C4578 C 0.37161 0.70062 0.11578 0.0
C4579 C 0.3869 0.71578 0.1363 0.0
C4580 C 0.34041 0.70131 0.11625 0.0
C4581 C 0.33952 0.68136 0.08802 0.0
N4582 N 0.37245 0.71211 0.12827 0.0
N4583 N 0.35431 0.68651 0.09455 0.0
H4584 H 0.52347 0.36226 0.6022 0.0
H4585 H 0.57635 0.40782 0.67375 0.0
H4586 H 0.55925 0.33668 0.63316 0.0
H4587 H 0.54941 0.43346 0.63486 0.0
H4588 H 0.56657 0.38114 0.66232 0.0
H4589 H 0.52918 0.38801 0.61745 0.0
C4590 C 0.53242 0.36203 0.6123 0.0
C4591 C 0.54102 0.34736 0.61631 0.0
C4592 C 0.56273 0.39264 0.6564 0.0
C4593 C 0.54764 0.37676 0.63382 0.0
C4594 C 0.56825 0.40785 0.66295 0.0
C4595 C 0.56385 0.42287 0.65514 0.0
C4596 C 0.55261 0.39253 0.64209 0.0
C4597 C 0.55332 0.42219 0.64116 0.0
C4598 C 0.53571 0.37673 0.62099 0.0
C4599 C 0.55243 0.34776 0.62958 0.0
N4600 N 0.54813 0.4073 0.63508 0.0
N4601 N 0.55549 0.36225 0.63781 0.0
H4602 H 0.81286 0.80104 0.88548 0.0
H4603 H 0.91147 0.80968 0.88684 0.0
H4604 H 0.83883 0.82797 0.92413 0.0
H4605 H 0.88519 0.77405 0.85632 0.0
H4606 H 0.88536 0.81623 0.90116 0.0
H4607 H 0.83941 0.79081 0.87505 0.0
C4608 C 0.82418 0.80477 0.89183 0.0
C4609 C 0.82363 0.81552 0.90562 0.0
C4610 C 0.88535 0.80685 0.89146 0.0
C4611 C 0.85421 0.80384 0.89363 0.0
C4612 C 0.90024 0.80311 0.88326 0.0
C4613 C 0.90046 0.7914 0.87027 0.0
C4614 C 0.87056 0.79893 0.88651 0.0
C4615 C 0.88557 0.78322 0.86619 0.0
C4616 C 0.83936 0.79884 0.8859 0.0
C4617 C 0.83869 0.81973 0.91346 0.0
N4618 N 0.87119 0.78727 0.87416 0.0
N4619 N 0.85342 0.81403 0.90722 0.0
H4620 H 0.44743 0.06374 0.13658 0.0
H4621 H 0.43636 0.16198 0.1347 0.0
H4622 H 0.41882 0.08976 0.17397 0.0
H4623 H 0.47562 0.13598 0.1087 0.0
H4624 H 0.42932 0.13604 0.14926 0.0
H4625 H 0.45741 0.09035 0.12602 0.0
C4626 C 0.44329 0.07508 0.14262 0.0
C4627 C 0.43219 0.07454 0.15611 0.0
C4628 C 0.43959 0.13609 0.1405 0.0
C4629 C 0.44352 0.10516 0.14397 0.0
C4630 C 0.44359 0.15086 0.13217 0.0
C4631 C 0.45649 0.15107 0.12036 0.0
C4632 C 0.44844 0.12145 0.13681 0.0
C4633 C 0.46549 0.13635 0.1176 0.0
C4634 C 0.44906 0.09029 0.13662 0.0
C4635 C 0.42738 0.08964 0.16355 0.0
N4636 N 0.46118 0.12211 0.12563 0.0
N4637 N 0.43293 0.10439 0.15724 0.0
H4638 H 0.16022 0.67591 0.42372 0.0
H4639 H 0.11322 0.72924 0.35343 0.0
H4640 H 0.1851 0.70211 0.38386 0.0
H4641 H 0.08813 0.69399 0.38537 0.0
H4642 H 0.1394 0.72307 0.36776 0.0
H4643 H 0.13337 0.68604 0.41302 0.0
C4644 C 0.16006 0.68392 0.41285 0.0
C4645 C 0.17491 0.68802 0.40457 0.0
C4646 C 0.12814 0.71677 0.37171 0.0
C4647 C 0.14436 0.69966 0.39234 0.0
C4648 C 0.11319 0.72032 0.36356 0.0
C4649 C 0.09852 0.712 0.36811 0.0
C4650 C 0.12841 0.70487 0.38457 0.0
C4651 C 0.09919 0.7006 0.38138 0.0
C4652 C 0.14475 0.68964 0.40672 0.0
C4653 C 0.17396 0.69844 0.39053 0.0
N4654 N 0.11391 0.6973 0.3891 0.0
N4655 N 0.15898 0.70384 0.38485 0.0
H4656 H 0.89908 0.52224 0.13623 0.0
H4657 H 0.82794 0.57515 0.09006 0.0
H4658 H 0.86767 0.55773 0.16167 0.0
H4659 H 0.86748 0.54885 0.06475 0.0
H4660 H 0.83921 0.56541 0.11681 0.0
H4661 H 0.88436 0.52833 0.11027 0.0
C4662 C 0.88899 0.53121 0.13639 0.0
C4663 C 0.88469 0.5396 0.15108 0.0
C4664 C 0.84532 0.56172 0.10536 0.0
C4665 C 0.86778 0.54666 0.12143 0.0
C4666 C 0.83887 0.56722 0.09011 0.0
C4667 C 0.84687 0.56295 0.07516 0.0
C4668 C 0.85974 0.55175 0.1056 0.0
C4669 C 0.86101 0.55264 0.07596 0.0
C4670 C 0.88061 0.53472 0.12156 0.0
C4671 C 0.87147 0.55106 0.15057 0.0
N4672 N 0.86699 0.54744 0.09089 0.0
N4673 N 0.86352 0.55432 0.13596 0.0
H4674 H 0.32699 0.42475 0.40937 0.0
H4675 H 0.39663 0.47872 0.36231 0.0
H4676 H 0.36721 0.45056 0.43411 0.0
H4677 H 0.36521 0.44301 0.33722 0.0
H4678 H 0.38243 0.47233 0.38849 0.0
H4679 H 0.33749 0.43504 0.38252 0.0
C4680 C 0.3379 0.4327 0.40918 0.0
C4681 C 0.34633 0.43666 0.42398 0.0
C4682 C 0.37856 0.46597 0.37723 0.0
C4683 C 0.3583 0.4485 0.39345 0.0
C4684 C 0.38664 0.46966 0.36228 0.0
C4685 C 0.38221 0.46125 0.34762 0.0
C4686 C 0.3659 0.45387 0.3775 0.0
C4687 C 0.3691 0.44967 0.34829 0.0
C4688 C 0.34391 0.43851 0.39387 0.0
C4689 C 0.36043 0.447 0.423 0.0
N4690 N 0.36146 0.44625 0.36301 0.0
N4691 N 0.36597 0.45251 0.40802 0.0
H4692 H 0.79808 0.61276 0.68444 0.0
H4693 H 0.81034 0.61415 0.58615 0.0
H4694 H 0.82635 0.5751 0.65843 0.0
H4695 H 0.77465 0.64476 0.61225 0.0
H4696 H 0.81577 0.59892 0.61202 0.0
H4697 H 0.78878 0.62389 0.65784 0.0
C4698 C 0.80228 0.60676 0.67309 0.0
C4699 C 0.81316 0.59307 0.67365 0.0
C4700 C 0.80662 0.60885 0.61204 0.0
C4701 C 0.80258 0.60589 0.64301 0.0
C4702 C 0.80353 0.61756 0.59729 0.0
C4703 C 0.79213 0.63084 0.5971 0.0
C4704 C 0.79836 0.61356 0.62672 0.0
C4705 C 0.78362 0.63469 0.61185 0.0
C4706 C 0.7969 0.6131 0.65788 0.0
C4707 C 0.81799 0.58569 0.65855 0.0
N4708 N 0.78703 0.6262 0.62609 0.0
N4709 N 0.81283 0.59234 0.6438 0.0
H4710 H 0.64369 0.04334 0.93037 0.0
H4711 H 0.63461 0.0678 0.83458 0.0
H4712 H 0.67237 0.08277 0.90777 0.0
H4713 H 0.61011 0.02582 0.85758 0.0
H4714 H 0.65043 0.07227 0.86032 0.0
H4715 H 0.63354 0.03524 0.90298 0.0
C4716 C 0.648 0.05018 0.91955 0.0
C4717 C 0.65876 0.06384 0.92132 0.0
C4718 C 0.64171 0.06199 0.85967 0.0
C4719 C 0.6469 0.05482 0.88983 0.0
C4720 C 0.63265 0.05945 0.845 0.0
C4721 C 0.62091 0.04651 0.84401 0.0
C4722 C 0.63894 0.05155 0.87344 0.0
C4723 C 0.61893 0.03603 0.85784 0.0
C4724 C 0.64219 0.04555 0.90389 0.0
C4725 C 0.66409 0.07215 0.9069 0.0
N4726 N 0.62775 0.03886 0.87199 0.0
N4727 N 0.65789 0.06767 0.89173 0.0
H4728 H 0.6938 0.42734 0.16794 0.0
H4729 H 0.72675 0.37785 0.10322 0.0
H4730 H 0.65958 0.38593 0.16983 0.0
H4731 H 0.67502 0.37188 0.08991 0.0
H4732 H 0.71814 0.39256 0.12868 0.0
H4733 H 0.7028 0.41813 0.14005 0.0
C4734 C 0.68806 0.41646 0.16237 0.0
C4735 C 0.67609 0.40724 0.17113 0.0
C4736 C 0.70874 0.38829 0.11999 0.0
C4737 C 0.68606 0.3969 0.13954 0.0
C4738 C 0.71361 0.37984 0.10559 0.0
C4739 C 0.70155 0.3738 0.0945 0.0
C4740 C 0.69171 0.39021 0.12345 0.0
C4741 C 0.68467 0.37654 0.0981 0.0
C4742 C 0.69325 0.41119 0.14661 0.0
C4743 C 0.66901 0.39322 0.16349 0.0
N4744 N 0.68021 0.38427 0.11249 0.0
N4745 N 0.67403 0.38851 0.14804 0.0
H4746 H 0.13675 0.43911 0.16153 0.0
H4747 H 0.13573 0.44962 0.06308 0.0
H4748 H 0.10631 0.47526 0.13586 0.0
H4749 H 0.17468 0.42276 0.08871 0.0
H4750 H 0.12496 0.45907 0.08978 0.0
H4751 H 0.15105 0.43295 0.1353 0.0
C4752 C 0.13317 0.44585 0.15039 0.0
C4753 C 0.12024 0.45763 0.15083 0.0
C4754 C 0.13594 0.45122 0.08961 0.0
C4755 C 0.13645 0.45056 0.1208 0.0
C4756 C 0.14207 0.44574 0.07435 0.0
C4757 C 0.15607 0.43525 0.07366 0.0
C4758 C 0.14368 0.44604 0.1044 0.0
C4759 C 0.16386 0.43082 0.08868 0.0
C4760 C 0.14136 0.44235 0.13545 0.0
C4761 C 0.11615 0.46603 0.13607 0.0
N4762 N 0.15744 0.43609 0.10348 0.0
N4763 N 0.12412 0.46222 0.12163 0.0
H4764 H 0.80863 0.88611 0.91422 0.0
H4765 H 0.79654 0.88611 0.81592 0.0
H4766 H 0.77207 0.85604 0.8887 0.0
H4767 H 0.82546 0.92362 0.84142 0.0
H4768 H 0.78694 0.87561 0.84267 0.0
H4769 H 0.81448 0.90067 0.88807 0.0
C4770 C 0.80173 0.88267 0.90314 0.0
C4771 C 0.78995 0.86975 0.90358 0.0
C4772 C 0.79527 0.88622 0.84248 0.0
C4773 C 0.79664 0.88627 0.87365 0.0
C4774 C 0.80082 0.89221 0.82718 0.0
C4775 C 0.81196 0.90567 0.82644 0.0
C4776 C 0.80105 0.89357 0.85724 0.0
C4777 C 0.81689 0.9132 0.84144 0.0
C4778 C 0.80506 0.89101 0.88823 0.0
C4779 C 0.78132 0.86585 0.8889 0.0
N4780 N 0.81156 0.9069 0.85627 0.0
N4781 N 0.78496 0.87397 0.8745 0.0
H4782 H 0.22595 0.64843 0.38613 0.0
H4783 H 0.17287 0.57779 0.33958 0.0
H4784 H 0.19023 0.61707 0.41131 0.0
H4785 H 0.1982 0.61807 0.31445 0.0
H4786 H 0.18296 0.58871 0.36632 0.0
H4787 H 0.21973 0.63398 0.36004 0.0
C4788 C 0.2169 0.63841 0.38619 0.0
C4789 C 0.20847 0.63404 0.40085 0.0
C4790 C 0.18637 0.59506 0.35491 0.0
C4791 C 0.20131 0.61745 0.37108 0.0
C4792 C 0.18069 0.5888 0.33966 0.0
C4793 C 0.18456 0.59713 0.32478 0.0
C4794 C 0.19614 0.6096 0.3552 0.0
C4795 C 0.19472 0.61136 0.32562 0.0
C4796 C 0.21333 0.6302 0.3713 0.0
C4797 C 0.19691 0.62092 0.40024 0.0
N4798 N 0.20011 0.61715 0.34055 0.0
N4799 N 0.19362 0.61312 0.38557 0.0
loop_
_geom_bond_atom_site_label_1
_geom_bond_atom_site_label_2
_geom_bond_distance
_geom_bond_site_symmetry_2
_ccdc_geom_bond_type
Co0 O1 2.216 . S
Co0 O2 2.091 . S
Co0 O4 2.004 . S
Co0 O10 2.021 . S
Co0 O12 2.137 . S
Co0 O13 2.244 . S
O1 Co0 2.216 . S
O1 C8 1.247 . S
O2 Co0 2.091 . S
O2 C8 1.261 . S
C3 O12 1.247 . S
C3 O13 1.272 . S
O4 Co0 2.004 . S
O4 C9 1.259 . S
Co5 O6 2.061 . S
Co5 O11 2.052 . S
Co5 O13 2.135 . S
O6 Co5 2.061 . S
O6 C9 1.235 . S
C7 O10 1.238 . S
C7 O11 1.241 . S
C8 O1 1.247 . S
C8 O2 1.261 . S
C9 O4 1.259 . S
C9 O6 1.235 . S
O10 Co0 2.021 . S
O10 C7 1.238 . S
O11 Co5 2.052 . S
O11 C7 1.241 . S
O12 Co0 2.137 . S
O12 C3 1.247 . S
O13 Co0 2.244 . S
O13 C3 1.272 . S
O13 Co5 2.135 . S
Co14 O15 2.216 . S
Co14 O16 2.091 . S
Co14 O18 2.004 . S
Co14 O24 2.021 . S
Co14 O26 2.137 . S
Co14 O27 2.244 . S
O15 Co14 2.216 . S
O15 C22 1.247 . S
O16 Co14 2.091 . S
O16 C22 1.261 . S
C17 O26 1.247 . S
C17 O27 1.272 . S
O18 Co14 2.004 . S
O18 C23 1.259 . S
Co19 O20 2.061 . S
Co19 O25 2.052 . S
Co19 O27 2.135 . S
O20 Co19 2.061 . S
O20 C23 1.235 . S
C21 O24 1.238 . S
C21 O25 1.241 . S
C22 O15 1.247 . S
C22 O16 1.261 . S
C23 O18 1.259 . S
C23 O20 1.235 . S
O24 Co14 2.021 . S
O24 C21 1.238 . S
O25 Co19 2.052 . S
O25 C21 1.241 . S
O26 Co14 2.137 . S
O26 C17 1.247 . S
O27 Co14 2.244 . S
O27 C17 1.272 . S
O27 Co19 2.135 . S
Co28 O29 2.216 . S
Co28 O30 2.091 . S
Co28 O32 2.004 . S
Co28 O38 2.021 . S
Co28 O40 2.137 . S
Co28 O41 2.244 . S
O29 Co28 2.216 . S
O29 C36 1.247 . S
O30 Co28 2.091 . S
O30 C36 1.261 . S
C31 O40 1.247 . S
C31 O41 1.272 . S
O32 Co28 2.004 . S
O32 C37 1.259 . S
Co33 O34 2.061 . S
Co33 O39 2.052 . S
Co33 O41 2.135 . S
O34 Co33 2.061 . S
O34 C37 1.235 . S
C35 O38 1.238 . S
C35 O39 1.241 . S
C36 O29 1.247 . S
C36 O30 1.261 . S
C37 O32 1.259 . S
C37 O34 1.235 . S
O38 Co28 2.021 . S
O38 C35 1.238 . S
O39 Co33 2.052 . S
O39 C35 1.241 . S
O40 Co28 2.137 . S
O40 C31 1.247 . S
O41 Co28 2.244 . S
O41 C31 1.272 . S
O41 Co33 2.135 . S
Co42 O43 2.216 . S
Co42 O44 2.091 . S
Co42 O46 2.004 . S
Co42 O52 2.021 . S
Co42 O54 2.137 . S
Co42 O55 2.244 . S
O43 Co42 2.216 . S
O43 C50 1.247 . S
O44 Co42 2.091 . S
O44 C50 1.261 . S
C45 O54 1.247 . S
C45 O55 1.272 . S
O46 Co42 2.004 . S
O46 C51 1.259 . S
Co47 O48 2.061 . S
Co47 O53 2.052 . S
Co47 O55 2.135 . S
O48 Co47 2.061 . S
O48 C51 1.235 . S
C49 O52 1.238 . S
C49 O53 1.241 . S
C50 O43 1.247 . S
C50 O44 1.261 . S
C51 O46 1.259 . S
C51 O48 1.235 . S
O52 Co42 2.021 . S
O52 C49 1.238 . S
O53 Co47 2.052 . S
O53 C49 1.241 . S
O54 Co42 2.137 . S
O54 C45 1.247 . S
O55 Co42 2.244 . S
O55 C45 1.272 . S
O55 Co47 2.135 . S
Co56 O57 2.216 . S
Co56 O58 2.091 . S
Co56 O60 2.004 . S
Co56 O66 2.021 . S
Co56 O68 2.137 . S
Co56 O69 2.244 . S
O57 Co56 2.216 . S
O57 C64 1.247 . S
O58 Co56 2.091 . S
O58 C64 1.261 . S
C59 O68 1.247 . S
C59 O69 1.272 . S
O60 Co56 2.004 . S
O60 C65 1.259 . S
Co61 O62 2.061 . S
Co61 O67 2.052 . S
Co61 O69 2.135 . S
O62 Co61 2.061 . S
O62 C65 1.235 . S
C63 O66 1.238 . S
C63 O67 1.241 . S
C64 O57 1.247 . S
C64 O58 1.261 . S
C65 O60 1.259 . S
C65 O62 1.235 . S
O66 Co56 2.021 . S
O66 C63 1.238 . S
O67 Co61 2.052 . S
O67 C63 1.241 . S
O68 Co56 2.137 . S
O68 C59 1.247 . S
O69 Co56 2.244 . S
O69 C59 1.272 . S
O69 Co61 2.135 . S
Co70 O71 2.216 . S
Co70 O72 2.091 . S
Co70 O74 2.004 . S
Co70 O80 2.021 . S
Co70 O82 2.137 . S
Co70 O83 2.244 . S
O71 Co70 2.216 . S
O71 C78 1.247 . S
O72 Co70 2.091 . S
O72 C78 1.261 . S
C73 O82 1.247 . S
C73 O83 1.272 . S
O74 Co70 2.004 . S
O74 C79 1.259 . S
Co75 O76 2.061 . S
Co75 O81 2.052 . S
Co75 O83 2.135 . S
O76 Co75 2.061 . S
O76 C79 1.235 . S
C77 O80 1.238 . S
C77 O81 1.241 . S
C78 O71 1.247 . S
C78 O72 1.261 . S
C79 O74 1.259 . S
C79 O76 1.235 . S
O80 Co70 2.021 . S
O80 C77 1.238 . S
O81 Co75 2.052 . S
O81 C77 1.241 . S
O82 Co70 2.137 . S
O82 C73 1.247 . S
O83 Co70 2.244 . S
O83 C73 1.272 . S
O83 Co75 2.135 . S
Co84 O85 2.216 . S
Co84 O86 2.091 . S
Co84 O88 2.004 . S
Co84 O94 2.021 . S
Co84 O96 2.137 . S
Co84 O97 2.244 . S
O85 Co84 2.216 . S
O85 C92 1.247 . S
O86 Co84 2.091 . S
O86 C92 1.261 . S
C87 O96 1.247 . S
C87 O97 1.272 . S
O88 Co84 2.004 . S
O88 C93 1.259 . S
Co89 O90 2.061 . S
Co89 O95 2.052 . S
Co89 O97 2.135 . S
O90 Co89 2.061 . S
O90 C93 1.235 . S
C91 O94 1.238 . S
C91 O95 1.241 . S
C92 O85 1.247 . S
C92 O86 1.261 . S
C93 O88 1.259 . S
C93 O90 1.235 . S
O94 Co84 2.021 . S
O94 C91 1.238 . S
O95 Co89 2.052 . S
O95 C91 1.241 . S
O96 Co84 2.137 . S
O96 C87 1.247 . S
O97 Co84 2.244 . S
O97 C87 1.272 . S
O97 Co89 2.135 . S
Co98 O99 2.216 . S
Co98 O100 2.091 . S
Co98 O102 2.004 . S
Co98 O108 2.021 . S
Co98 O110 2.137 . S
Co98 O111 2.244 . S
O99 Co98 2.216 . S
O99 C106 1.247 . S
O100 Co98 2.091 . S
O100 C106 1.261 . S
C101 O110 1.247 . S
C101 O111 1.272 . S
O102 Co98 2.004 . S
O102 C107 1.259 . S
Co103 O104 2.061 . S
Co103 O109 2.052 . S
Co103 O111 2.135 . S
O104 Co103 2.061 . S
O104 C107 1.235 . S
C105 O108 1.238 . S
C105 O109 1.241 . S
C106 O99 1.247 . S
C106 O100 1.261 . S
C107 O102 1.259 . S
C107 O104 1.235 . S
O108 Co98 2.021 . S
O108 C105 1.238 . S
O109 Co103 2.052 . S
O109 C105 1.241 . S
O110 Co98 2.137 . S
O110 C101 1.247 . S
O111 Co98 2.244 . S
O111 C101 1.272 . S
O111 Co103 2.135 . S
Co112 O113 2.216 . S
Co112 O114 2.091 . S
Co112 O116 2.004 . S
Co112 O122 2.021 . S
Co112 O124 2.137 . S
Co112 O125 2.244 . S
O113 Co112 2.216 . S
O113 C120 1.247 . S
O114 Co112 2.091 . S
O114 C120 1.261 . S
C115 O124 1.247 . S
C115 O125 1.272 . S
O116 Co112 2.004 . S
O116 C121 1.259 . S
Co117 O118 2.061 . S
Co117 O123 2.052 . S
Co117 O125 2.135 . S
O118 Co117 2.061 . S
O118 C121 1.235 . S
C119 O122 1.238 . S
C119 O123 1.241 . S
C120 O113 1.247 . S
C120 O114 1.261 . S
C121 O116 1.259 . S
C121 O118 1.235 . S
O122 Co112 2.021 . S
O122 C119 1.238 . S
O123 Co117 2.052 . S
O123 C119 1.241 . S
O124 Co112 2.137 . S
O124 C115 1.247 . S
O125 Co112 2.244 . S
O125 C115 1.272 . S
O125 Co117 2.135 . S
Co126 O127 2.216 . S
Co126 O128 2.091 . S
Co126 O130 2.004 . S
Co126 O136 2.021 . S
Co126 O138 2.137 . S
Co126 O139 2.244 . S
O127 Co126 2.216 . S
O127 C134 1.247 . S
O128 Co126 2.091 . S
O128 C134 1.261 . S
C129 O138 1.247 . S
C129 O139 1.272 . S
O130 Co126 2.004 . S
O130 C135 1.259 . S
Co131 O132 2.061 . S
Co131 O137 2.052 . S
Co131 O139 2.135 . S
O132 Co131 2.061 . S
O132 C135 1.235 . S
C133 O136 1.238 . S
C133 O137 1.241 . S
C134 O127 1.247 . S
C134 O128 1.261 . S
C135 O130 1.259 . S
C135 O132 1.235 . S
O136 Co126 2.021 . S
O136 C133 1.238 . S
O137 Co131 2.052 . S
O137 C133 1.241 . S
O138 Co126 2.137 . S
O138 C129 1.247 . S
O139 Co126 2.244 . S
O139 C129 1.272 . S
O139 Co131 2.135 . S
Co140 O141 2.216 . S
Co140 O142 2.091 . S
Co140 O144 2.004 . S
Co140 O150 2.021 . S
Co140 O152 2.137 . S
Co140 O153 2.244 . S
O141 Co140 2.216 . S
O141 C148 1.247 . S
O142 Co140 2.091 . S
O142 C148 1.261 . S
C143 O152 1.247 . S
C143 O153 1.272 . S
O144 Co140 2.004 . S
O144 C149 1.259 . S
Co145 O146 2.061 . S
Co145 O151 2.052 . S
Co145 O153 2.135 . S
O146 Co145 2.061 . S
O146 C149 1.235 . S
C147 O150 1.238 . S
C147 O151 1.241 . S
C148 O141 1.247 . S
C148 O142 1.261 . S
C149 O144 1.259 . S
C149 O146 1.235 . S
O150 Co140 2.021 . S
O150 C147 1.238 . S
O151 Co145 2.052 . S
O151 C147 1.241 . S
O152 Co140 2.137 . S
O152 C143 1.247 . S
O153 Co140 2.244 . S
O153 C143 1.272 . S
O153 Co145 2.135 . S
Co154 O155 2.216 . S
Co154 O156 2.091 . S
Co154 O158 2.004 . S
Co154 O164 2.021 . S
Co154 O166 2.137 . S
Co154 O167 2.244 . S
O155 Co154 2.216 . S
O155 C162 1.247 . S
O156 Co154 2.091 . S
O156 C162 1.261 . S
C157 O166 1.247 . S
C157 O167 1.272 . S
O158 Co154 2.004 . S
O158 C163 1.259 . S
Co159 O160 2.061 . S
Co159 O165 2.052 . S
Co159 O167 2.135 . S
O160 Co159 2.061 . S
O160 C163 1.235 . S
C161 O164 1.238 . S
C161 O165 1.241 . S
C162 O155 1.247 . S
C162 O156 1.261 . S
C163 O158 1.259 . S
C163 O160 1.235 . S
O164 Co154 2.021 . S
O164 C161 1.238 . S
O165 Co159 2.052 . S
O165 C161 1.241 . S
O166 Co154 2.137 . S
O166 C157 1.247 . S
O167 Co154 2.244 . S
O167 C157 1.272 . S
O167 Co159 2.135 . S
Co168 O169 2.216 . S
Co168 O170 2.091 . S
Co168 O172 2.004 . S
Co168 O178 2.021 . S
Co168 O180 2.137 . S
Co168 O181 2.244 . S
O169 Co168 2.216 . S
O169 C176 1.247 . S
O170 Co168 2.091 . S
O170 C176 1.261 . S
C171 O180 1.247 . S
C171 O181 1.272 . S
O172 Co168 2.004 . S
O172 C177 1.259 . S
Co173 O174 2.061 . S
Co173 O179 2.052 . S
Co173 O181 2.135 . S
O174 Co173 2.061 . S
O174 C177 1.235 . S
C175 O178 1.238 . S
C175 O179 1.241 . S
C176 O169 1.247 . S
C176 O170 1.261 . S
C177 O172 1.259 . S
C177 O174 1.235 . S
O178 Co168 2.021 . S
O178 C175 1.238 . S
O179 Co173 2.052 . S
O179 C175 1.241 . S
O180 Co168 2.137 . S
O180 C171 1.247 . S
O181 Co168 2.244 . S
O181 C171 1.272 . S
O181 Co173 2.135 . S
Co182 O183 2.216 . S
Co182 O184 2.091 . S
Co182 O186 2.004 . S
Co182 O192 2.021 . S
Co182 O194 2.137 . S
Co182 O195 2.244 . S
O183 Co182 2.216 . S
O183 C190 1.247 . S
O184 Co182 2.091 . S
O184 C190 1.261 . S
C185 O194 1.247 . S
C185 O195 1.272 . S
O186 Co182 2.004 . S
O186 C191 1.259 . S
Co187 O188 2.061 . S
Co187 O193 2.052 . S
Co187 O195 2.135 . S
O188 Co187 2.061 . S
O188 C191 1.235 . S
C189 O192 1.238 . S
C189 O193 1.241 . S
C190 O183 1.247 . S
C190 O184 1.261 . S
C191 O186 1.259 . S
C191 O188 1.235 . S
O192 Co182 2.021 . S
O192 C189 1.238 . S
O193 Co187 2.052 . S
O193 C189 1.241 . S
O194 Co182 2.137 . S
O194 C185 1.247 . S
O195 Co182 2.244 . S
O195 C185 1.272 . S
O195 Co187 2.135 . S
Co196 O197 2.216 . S
Co196 O198 2.091 . S
Co196 O200 2.004 . S
Co196 O206 2.021 . S
Co196 O208 2.137 . S
Co196 O209 2.244 . S
O197 Co196 2.216 . S
O197 C204 1.247 . S
O198 Co196 2.091 . S
O198 C204 1.261 . S
C199 O208 1.247 . S
C199 O209 1.272 . S
O200 Co196 2.004 . S
O200 C205 1.259 . S
Co201 O202 2.061 . S
Co201 O207 2.052 . S
Co201 O209 2.135 . S
O202 Co201 2.061 . S
O202 C205 1.235 . S
C203 O206 1.238 . S
C203 O207 1.241 . S
C204 O197 1.247 . S
C204 O198 1.261 . S
C205 O200 1.259 . S
C205 O202 1.235 . S
O206 Co196 2.021 . S
O206 C203 1.238 . S
O207 Co201 2.052 . S
O207 C203 1.241 . S
O208 Co196 2.137 . S
O208 C199 1.247 . S
O209 Co196 2.244 . S
O209 C199 1.272 . S
O209 Co201 2.135 . S
Co210 O211 2.216 . S
Co210 O212 2.091 . S
Co210 O214 2.004 . S
Co210 O220 2.021 . S
Co210 O222 2.137 . S
Co210 O223 2.244 . S
O211 Co210 2.216 . S
O211 C218 1.247 . S
O212 Co210 2.091 . S
O212 C218 1.261 . S
C213 O222 1.247 . S
C213 O223 1.272 . S
O214 Co210 2.004 . S
O214 C219 1.259 . S
Co215 O216 2.061 . S
Co215 O221 2.052 . S
Co215 O223 2.135 . S
O216 Co215 2.061 . S
O216 C219 1.235 . S
C217 O220 1.238 . S
C217 O221 1.241 . S
C218 O211 1.247 . S
C218 O212 1.261 . S
C219 O214 1.259 . S
C219 O216 1.235 . S
O220 Co210 2.021 . S
O220 C217 1.238 . S
O221 Co215 2.052 . S
O221 C217 1.241 . S
O222 Co210 2.137 . S
O222 C213 1.247 . S
O223 Co210 2.244 . S
O223 C213 1.272 . S
O223 Co215 2.135 . S
Co224 O225 2.216 . S
Co224 O226 2.091 . S
Co224 O228 2.004 . S
Co224 O234 2.021 . S
Co224 O236 2.137 . S
Co224 O237 2.244 . S
O225 Co224 2.216 . S
O225 C232 1.247 . S
O226 Co224 2.091 . S
O226 C232 1.261 . S
C227 O236 1.247 . S
C227 O237 1.272 . S
O228 Co224 2.004 . S
O228 C233 1.259 . S
Co229 O230 2.061 . S
Co229 O235 2.052 . S
Co229 O237 2.135 . S
O230 Co229 2.061 . S
O230 C233 1.235 . S
C231 O234 1.238 . S
C231 O235 1.241 . S
C232 O225 1.247 . S
C232 O226 1.261 . S
C233 O228 1.259 . S
C233 O230 1.235 . S
O234 Co224 2.021 . S
O234 C231 1.238 . S
O235 Co229 2.052 . S
O235 C231 1.241 . S
O236 Co224 2.137 . S
O236 C227 1.247 . S
O237 Co224 2.244 . S
O237 C227 1.272 . S
O237 Co229 2.135 . S
Co238 O239 2.216 . S
Co238 O240 2.091 . S
Co238 O242 2.004 . S
Co238 O248 2.021 . S
Co238 O250 2.137 . S
Co238 O251 2.244 . S
O239 Co238 2.216 . S
O239 C246 1.247 . S
O240 Co238 2.091 . S
O240 C246 1.261 . S
C241 O250 1.247 . S
C241 O251 1.272 . S
O242 Co238 2.004 . S
O242 C247 1.259 . S
Co243 O244 2.061 . S
Co243 O249 2.052 . S
Co243 O251 2.135 . S
O244 Co243 2.061 . S
O244 C247 1.235 . S
C245 O248 1.238 . S
C245 O249 1.241 . S
C246 O239 1.247 . S
C246 O240 1.261 . S
C247 O242 1.259 . S
C247 O244 1.235 . S
O248 Co238 2.021 . S
O248 C245 1.238 . S
O249 Co243 2.052 . S
O249 C245 1.241 . S
O250 Co238 2.137 . S
O250 C241 1.247 . S
O251 Co238 2.244 . S
O251 C241 1.272 . S
O251 Co243 2.135 . S
Co252 O253 2.216 . S
Co252 O254 2.091 . S
Co252 O256 2.004 . S
Co252 O262 2.021 . S
Co252 O264 2.137 . S
Co252 O265 2.244 . S
O253 Co252 2.216 . S
O253 C260 1.247 . S
O254 Co252 2.091 . S
O254 C260 1.261 . S
C255 O264 1.247 . S
C255 O265 1.272 . S
O256 Co252 2.004 . S
O256 C261 1.259 . S
Co257 O258 2.061 . S
Co257 O263 2.052 . S
Co257 O265 2.135 . S
O258 Co257 2.061 . S
O258 C261 1.235 . S
C259 O262 1.238 . S
C259 O263 1.241 . S
C260 O253 1.247 . S
C260 O254 1.261 . S
C261 O256 1.259 . S
C261 O258 1.235 . S
O262 Co252 2.021 . S
O262 C259 1.238 . S
O263 Co257 2.052 . S
O263 C259 1.241 . S
O264 Co252 2.137 . S
O264 C255 1.247 . S
O265 Co252 2.244 . S
O265 C255 1.272 . S
O265 Co257 2.135 . S
Co266 O267 2.216 . S
Co266 O268 2.091 . S
Co266 O270 2.004 . S
Co266 O276 2.021 . S
Co266 O278 2.137 . S
Co266 O279 2.244 . S
O267 Co266 2.216 . S
O267 C274 1.247 . S
O268 Co266 2.091 . S
O268 C274 1.261 . S
C269 O278 1.247 . S
C269 O279 1.272 . S
O270 Co266 2.004 . S
O270 C275 1.259 . S
Co271 O272 2.061 . S
Co271 O277 2.052 . S
Co271 O279 2.135 . S
O272 Co271 2.061 . S
O272 C275 1.235 . S
C273 O276 1.238 . S
C273 O277 1.241 . S
C274 O267 1.247 . S
C274 O268 1.261 . S
C275 O270 1.259 . S
C275 O272 1.235 . S
O276 Co266 2.021 . S
O276 C273 1.238 . S
O277 Co271 2.052 . S
O277 C273 1.241 . S
O278 Co266 2.137 . S
O278 C269 1.247 . S
O279 Co266 2.244 . S
O279 C269 1.272 . S
O279 Co271 2.135 . S
Co280 O281 2.216 . S
Co280 O282 2.091 . S
Co280 O284 2.004 . S
Co280 O290 2.021 . S
Co280 O292 2.137 . S
Co280 O293 2.244 . S
O281 Co280 2.216 . S
O281 C288 1.247 . S
O282 Co280 2.091 . S
O282 C288 1.261 . S
C283 O292 1.247 . S
C283 O293 1.272 . S
O284 Co280 2.004 . S
O284 C289 1.259 . S
Co285 O286 2.061 . S
Co285 O291 2.052 . S
Co285 O293 2.135 . S
O286 Co285 2.061 . S
O286 C289 1.235 . S
C287 O290 1.238 . S
C287 O291 1.241 . S
C288 O281 1.247 . S
C288 O282 1.261 . S
C289 O284 1.259 . S
C289 O286 1.235 . S
O290 Co280 2.021 . S
O290 C287 1.238 . S
O291 Co285 2.052 . S
O291 C287 1.241 . S
O292 Co280 2.137 . S
O292 C283 1.247 . S
O293 Co280 2.244 . S
O293 C283 1.272 . S
O293 Co285 2.135 . S
Co294 O295 2.216 . S
Co294 O296 2.091 . S
Co294 O298 2.004 . S
Co294 O304 2.021 . S
Co294 O306 2.137 . S
Co294 O307 2.244 . S
O295 Co294 2.216 . S
O295 C302 1.247 . S
O296 Co294 2.091 . S
O296 C302 1.261 . S
C297 O306 1.247 . S
C297 O307 1.272 . S
O298 Co294 2.004 . S
O298 C303 1.259 . S
Co299 O300 2.061 . S
Co299 O305 2.052 . S
Co299 O307 2.135 . S
O300 Co299 2.061 . S
O300 C303 1.235 . S
C301 O304 1.238 . S
C301 O305 1.241 . S
C302 O295 1.247 . S
C302 O296 1.261 . S
C303 O298 1.259 . S
C303 O300 1.235 . S
O304 Co294 2.021 . S
O304 C301 1.238 . S
O305 Co299 2.052 . S
O305 C301 1.241 . S
O306 Co294 2.137 . S
O306 C297 1.247 . S
O307 Co294 2.244 . S
O307 C297 1.272 . S
O307 Co299 2.135 . S
Co308 O309 2.216 . S
Co308 O310 2.091 . S
Co308 O312 2.004 . S
Co308 O318 2.021 . S
Co308 O320 2.137 . S
Co308 O321 2.244 . S
O309 Co308 2.216 . S
O309 C316 1.247 . S
O310 Co308 2.091 . S
O310 C316 1.261 . S
C311 O320 1.247 . S
C311 O321 1.272 . S
O312 Co308 2.004 . S
O312 C317 1.259 . S
Co313 O314 2.061 . S
Co313 O319 2.052 . S
Co313 O321 2.135 . S
O314 Co313 2.061 . S
O314 C317 1.235 . S
C315 O318 1.238 . S
C315 O319 1.241 . S
C316 O309 1.247 . S
C316 O310 1.261 . S
C317 O312 1.259 . S
C317 O314 1.235 . S
O318 Co308 2.021 . S
O318 C315 1.238 . S
O319 Co313 2.052 . S
O319 C315 1.241 . S
O320 Co308 2.137 . S
O320 C311 1.247 . S
O321 Co308 2.244 . S
O321 C311 1.272 . S
O321 Co313 2.135 . S
Co322 O323 2.216 . S
Co322 O324 2.091 . S
Co322 O326 2.004 . S
Co322 O332 2.021 . S
Co322 O334 2.137 . S
Co322 O335 2.244 . S
O323 Co322 2.216 . S
O323 C330 1.247 . S
O324 Co322 2.091 . S
O324 C330 1.261 . S
C325 O334 1.247 . S
C325 O335 1.272 . S
O326 Co322 2.004 . S
O326 C331 1.259 . S
Co327 O328 2.061 . S
Co327 O333 2.052 . S
Co327 O335 2.135 . S
O328 Co327 2.061 . S
O328 C331 1.235 . S
C329 O332 1.238 . S
C329 O333 1.241 . S
C330 O323 1.247 . S
C330 O324 1.261 . S
C331 O326 1.259 . S
C331 O328 1.235 . S
O332 Co322 2.021 . S
O332 C329 1.238 . S
O333 Co327 2.052 . S
O333 C329 1.241 . S
O334 Co322 2.137 . S
O334 C325 1.247 . S
O335 Co322 2.244 . S
O335 C325 1.272 . S
O335 Co327 2.135 . S
Co336 O337 2.216 . S
Co336 O338 2.091 . S
Co336 O340 2.004 . S
Co336 O346 2.021 . S
Co336 O348 2.137 . S
Co336 O349 2.244 . S
O337 Co336 2.216 . S
O337 C344 1.247 . S
O338 Co336 2.091 . S
O338 C344 1.261 . S
C339 O348 1.247 . S
C339 O349 1.272 . S
O340 Co336 2.004 . S
O340 C345 1.259 . S
Co341 O342 2.061 . S
Co341 O347 2.052 . S
Co341 O349 2.135 . S
O342 Co341 2.061 . S
O342 C345 1.235 . S
C343 O346 1.238 . S
C343 O347 1.241 . S
C344 O337 1.247 . S
C344 O338 1.261 . S
C345 O340 1.259 . S
C345 O342 1.235 . S
O346 Co336 2.021 . S
O346 C343 1.238 . S
O347 Co341 2.052 . S
O347 C343 1.241 . S
O348 Co336 2.137 . S
O348 C339 1.247 . S
O349 Co336 2.244 . S
O349 C339 1.272 . S
O349 Co341 2.135 . S
Co350 O351 2.216 . S
Co350 O352 2.091 . S
Co350 O354 2.004 . S
Co350 O360 2.021 . S
Co350 O362 2.137 . S
Co350 O363 2.244 . S
O351 Co350 2.216 . S
O351 C358 1.247 . S
O352 Co350 2.091 . S
O352 C358 1.261 . S
C353 O362 1.247 . S
C353 O363 1.272 . S
O354 Co350 2.004 . S
O354 C359 1.259 . S
Co355 O356 2.061 . S
Co355 O361 2.052 . S
Co355 O363 2.135 . S
O356 Co355 2.061 . S
O356 C359 1.235 . S
C357 O360 1.238 . S
C357 O361 1.241 . S
C358 O351 1.247 . S
C358 O352 1.261 . S
C359 O354 1.259 . S
C359 O356 1.235 . S
O360 Co350 2.021 . S
O360 C357 1.238 . S
O361 Co355 2.052 . S
O361 C357 1.241 . S
O362 Co350 2.137 . S
O362 C353 1.247 . S
O363 Co350 2.244 . S
O363 C353 1.272 . S
O363 Co355 2.135 . S
Co364 O365 2.216 . S
Co364 O366 2.091 . S
Co364 O368 2.004 . S
Co364 O374 2.021 . S
Co364 O376 2.137 . S
Co364 O377 2.244 . S
O365 Co364 2.216 . S
O365 C372 1.247 . S
O366 Co364 2.091 . S
O366 C372 1.261 . S
C367 O376 1.247 . S
C367 O377 1.272 . S
O368 Co364 2.004 . S
O368 C373 1.259 . S
Co369 O370 2.061 . S
Co369 O375 2.052 . S
Co369 O377 2.135 . S
O370 Co369 2.061 . S
O370 C373 1.235 . S
C371 O374 1.238 . S
C371 O375 1.241 . S
C372 O365 1.247 . S
C372 O366 1.261 . S
C373 O368 1.259 . S
C373 O370 1.235 . S
O374 Co364 2.021 . S
O374 C371 1.238 . S
O375 Co369 2.052 . S
O375 C371 1.241 . S
O376 Co364 2.137 . S
O376 C367 1.247 . S
O377 Co364 2.244 . S
O377 C367 1.272 . S
O377 Co369 2.135 . S
Co378 O379 2.216 . S
Co378 O380 2.091 . S
Co378 O382 2.004 . S
Co378 O388 2.021 . S
Co378 O390 2.137 . S
Co378 O391 2.244 . S
O379 Co378 2.216 . S
O379 C386 1.247 . S
O380 Co378 2.091 . S
O380 C386 1.261 . S
C381 O390 1.247 . S
C381 O391 1.272 . S
O382 Co378 2.004 . S
O382 C387 1.259 . S
Co383 O384 2.061 . S
Co383 O389 2.052 . S
Co383 O391 2.135 . S
O384 Co383 2.061 . S
O384 C387 1.235 . S
C385 O388 1.238 . S
C385 O389 1.241 . S
C386 O379 1.247 . S
C386 O380 1.261 . S
C387 O382 1.259 . S
C387 O384 1.235 . S
O388 Co378 2.021 . S
O388 C385 1.238 . S
O389 Co383 2.052 . S
O389 C385 1.241 . S
O390 Co378 2.137 . S
O390 C381 1.247 . S
O391 Co378 2.244 . S
O391 C381 1.272 . S
O391 Co383 2.135 . S
Co392 O393 2.216 . S
Co392 O394 2.091 . S
Co392 O396 2.004 . S
Co392 O402 2.021 . S
Co392 O404 2.137 . S
Co392 O405 2.244 . S
O393 Co392 2.216 . S
O393 C400 1.247 . S
O394 Co392 2.091 . S
O394 C400 1.261 . S
C395 O404 1.247 . S
C395 O405 1.272 . S
O396 Co392 2.004 . S
O396 C401 1.259 . S
Co397 O398 2.061 . S
Co397 O403 2.052 . S
Co397 O405 2.135 . S
O398 Co397 2.061 . S
O398 C401 1.235 . S
C399 O402 1.238 . S
C399 O403 1.241 . S
C400 O393 1.247 . S
C400 O394 1.261 . S
C401 O396 1.259 . S
C401 O398 1.235 . S
O402 Co392 2.021 . S
O402 C399 1.238 . S
O403 Co397 2.052 . S
O403 C399 1.241 . S
O404 Co392 2.137 . S
O404 C395 1.247 . S
O405 Co392 2.244 . S
O405 C395 1.272 . S
O405 Co397 2.135 . S
Co406 O407 2.216 . S
Co406 O408 2.091 . S
Co406 O410 2.004 . S
Co406 O416 2.021 . S
Co406 O418 2.137 . S
Co406 O419 2.244 . S
O407 Co406 2.216 . S
O407 C414 1.247 . S
O408 Co406 2.091 . S
O408 C414 1.261 . S
C409 O418 1.247 . S
C409 O419 1.272 . S
O410 Co406 2.004 . S
O410 C415 1.259 . S
Co411 O412 2.061 . S
Co411 O417 2.052 . S
Co411 O419 2.135 . S
O412 Co411 2.061 . S
O412 C415 1.235 . S
C413 O416 1.238 . S
C413 O417 1.241 . S
C414 O407 1.247 . S
C414 O408 1.261 . S
C415 O410 1.259 . S
C415 O412 1.235 . S
O416 Co406 2.021 . S
O416 C413 1.238 . S
O417 Co411 2.052 . S
O417 C413 1.241 . S
O418 Co406 2.137 . S
O418 C409 1.247 . S
O419 Co406 2.244 . S
O419 C409 1.272 . S
O419 Co411 2.135 . S
Co420 O421 2.216 . S
Co420 O422 2.091 . S
Co420 O424 2.004 . S
Co420 O430 2.021 . S
Co420 O432 2.137 . S
Co420 O433 2.244 . S
O421 Co420 2.216 . S
O421 C428 1.247 . S
O422 Co420 2.091 . S
O422 C428 1.261 . S
C423 O432 1.247 . S
C423 O433 1.272 . S
O424 Co420 2.004 . S
O424 C429 1.259 . S
Co425 O426 2.061 . S
Co425 O431 2.052 . S
Co425 O433 2.135 . S
O426 Co425 2.061 . S
O426 C429 1.235 . S
C427 O430 1.238 . S
C427 O431 1.241 . S
C428 O421 1.247 . S
C428 O422 1.261 . S
C429 O424 1.259 . S
C429 O426 1.235 . S
O430 Co420 2.021 . S
O430 C427 1.238 . S
O431 Co425 2.052 . S
O431 C427 1.241 . S
O432 Co420 2.137 . S
O432 C423 1.247 . S
O433 Co420 2.244 . S
O433 C423 1.272 . S
O433 Co425 2.135 . S
Co434 O435 2.216 . S
Co434 O436 2.091 . S
Co434 O438 2.004 . S
Co434 O444 2.021 . S
Co434 O446 2.137 . S
Co434 O447 2.244 . S
O435 Co434 2.216 . S
O435 C442 1.247 . S
O436 Co434 2.091 . S
O436 C442 1.261 . S
C437 O446 1.247 . S
C437 O447 1.272 . S
O438 Co434 2.004 . S
O438 C443 1.259 . S
Co439 O440 2.061 . S
Co439 O445 2.052 . S
Co439 O447 2.135 . S
O440 Co439 2.061 . S
O440 C443 1.235 . S
C441 O444 1.238 . S
C441 O445 1.241 . S
C442 O435 1.247 . S
C442 O436 1.261 . S
C443 O438 1.259 . S
C443 O440 1.235 . S
O444 Co434 2.021 . S
O444 C441 1.238 . S
O445 Co439 2.052 . S
O445 C441 1.241 . S
O446 Co434 2.137 . S
O446 C437 1.247 . S
O447 Co434 2.244 . S
O447 C437 1.272 . S
O447 Co439 2.135 . S
Co448 O449 2.216 . S
Co448 O450 2.091 . S
Co448 O452 2.004 . S
Co448 O458 2.021 . S
Co448 O460 2.137 . S
Co448 O461 2.244 . S
O449 Co448 2.216 . S
O449 C456 1.247 . S
O450 Co448 2.091 . S
O450 C456 1.261 . S
C451 O460 1.247 . S
C451 O461 1.272 . S
O452 Co448 2.004 . S
O452 C457 1.259 . S
Co453 O454 2.061 . S
Co453 O459 2.052 . S
Co453 O461 2.135 . S
O454 Co453 2.061 . S
O454 C457 1.235 . S
C455 O458 1.238 . S
C455 O459 1.241 . S
C456 O449 1.247 . S
C456 O450 1.261 . S
C457 O452 1.259 . S
C457 O454 1.235 . S
O458 Co448 2.021 . S
O458 C455 1.238 . S
O459 Co453 2.052 . S
O459 C455 1.241 . S
O460 Co448 2.137 . S
O460 C451 1.247 . S
O461 Co448 2.244 . S
O461 C451 1.272 . S
O461 Co453 2.135 . S
Co462 O463 2.216 . S
Co462 O464 2.091 . S
Co462 O466 2.004 . S
Co462 O472 2.021 . S
Co462 O474 2.137 . S
Co462 O475 2.244 . S
O463 Co462 2.216 . S
O463 C470 1.247 . S
O464 Co462 2.091 . S
O464 C470 1.261 . S
C465 O474 1.247 . S
C465 O475 1.272 . S
O466 Co462 2.004 . S
O466 C471 1.259 . S
Co467 O468 2.061 . S
Co467 O473 2.052 . S
Co467 O475 2.135 . S
O468 Co467 2.061 . S
O468 C471 1.235 . S
C469 O472 1.238 . S
C469 O473 1.241 . S
C470 O463 1.247 . S
C470 O464 1.261 . S
C471 O466 1.259 . S
C471 O468 1.235 . S
O472 Co462 2.021 . S
O472 C469 1.238 . S
O473 Co467 2.052 . S
O473 C469 1.241 . S
O474 Co462 2.137 . S
O474 C465 1.247 . S
O475 Co462 2.244 . S
O475 C465 1.272 . S
O475 Co467 2.135 . S
Co476 O477 2.216 . S
Co476 O478 2.091 . S
Co476 O480 2.004 . S
Co476 O486 2.021 . S
Co476 O488 2.137 . S
Co476 O489 2.244 . S
O477 Co476 2.216 . S
O477 C484 1.247 . S
O478 Co476 2.091 . S
O478 C484 1.261 . S
C479 O488 1.247 . S
C479 O489 1.272 . S
O480 Co476 2.004 . S
O480 C485 1.259 . S
Co481 O482 2.061 . S
Co481 O487 2.052 . S
Co481 O489 2.135 . S
O482 Co481 2.061 . S
O482 C485 1.235 . S
C483 O486 1.238 . S
C483 O487 1.241 . S
C484 O477 1.247 . S
C484 O478 1.261 . S
C485 O480 1.259 . S
C485 O482 1.235 . S
O486 Co476 2.021 . S
O486 C483 1.238 . S
O487 Co481 2.052 . S
O487 C483 1.241 . S
O488 Co476 2.137 . S
O488 C479 1.247 . S
O489 Co476 2.244 . S
O489 C479 1.272 . S
O489 Co481 2.135 . S
Co490 O491 2.216 . S
Co490 O492 2.091 . S
Co490 O494 2.004 . S
Co490 O500 2.021 . S
Co490 O502 2.137 . S
Co490 O503 2.244 . S
O491 Co490 2.216 . S
O491 C498 1.247 . S
O492 Co490 2.091 . S
O492 C498 1.261 . S
C493 O502 1.247 . S
C493 O503 1.272 . S
O494 Co490 2.004 . S
O494 C499 1.259 . S
Co495 O496 2.061 . S
Co495 O501 2.052 . S
Co495 O503 2.135 . S
O496 Co495 2.061 . S
O496 C499 1.235 . S
C497 O500 1.238 . S
C497 O501 1.241 . S
C498 O491 1.247 . S
C498 O492 1.261 . S
C499 O494 1.259 . S
C499 O496 1.235 . S
O500 Co490 2.021 . S
O500 C497 1.238 . S
O501 Co495 2.052 . S
O501 C497 1.241 . S
O502 Co490 2.137 . S
O502 C493 1.247 . S
O503 Co490 2.244 . S
O503 C493 1.272 . S
O503 Co495 2.135 . S
Co504 O505 2.216 . S
Co504 O506 2.091 . S
Co504 O508 2.004 . S
Co504 O514 2.021 . S
Co504 O516 2.137 . S
Co504 O517 2.244 . S
O505 Co504 2.216 . S
O505 C512 1.247 . S
O506 Co504 2.091 . S
O506 C512 1.261 . S
C507 O516 1.247 . S
C507 O517 1.272 . S
O508 Co504 2.004 . S
O508 C513 1.259 . S
Co509 O510 2.061 . S
Co509 O515 2.052 . S
Co509 O517 2.135 . S
O510 Co509 2.061 . S
O510 C513 1.235 . S
C511 O514 1.238 . S
C511 O515 1.241 . S
C512 O505 1.247 . S
C512 O506 1.261 . S
C513 O508 1.259 . S
C513 O510 1.235 . S
O514 Co504 2.021 . S
O514 C511 1.238 . S
O515 Co509 2.052 . S
O515 C511 1.241 . S
O516 Co504 2.137 . S
O516 C507 1.247 . S
O517 Co504 2.244 . S
O517 C507 1.272 . S
O517 Co509 2.135 . S
Co518 O519 2.216 . S
Co518 O520 2.091 . S
Co518 O522 2.004 . S
Co518 O528 2.021 . S
Co518 O530 2.137 . S
Co518 O531 2.244 . S
O519 Co518 2.216 . S
O519 C526 1.247 . S
O520 Co518 2.091 . S
O520 C526 1.261 . S
C521 O530 1.247 . S
C521 O531 1.272 . S
O522 Co518 2.004 . S
O522 C527 1.259 . S
Co523 O524 2.061 . S
Co523 O529 2.052 . S
Co523 O531 2.135 . S
O524 Co523 2.061 . S
O524 C527 1.235 . S
C525 O528 1.238 . S
C525 O529 1.241 . S
C526 O519 1.247 . S
C526 O520 1.261 . S
C527 O522 1.259 . S
C527 O524 1.235 . S
O528 Co518 2.021 . S
O528 C525 1.238 . S
O529 Co523 2.052 . S
O529 C525 1.241 . S
O530 Co518 2.137 . S
O530 C521 1.247 . S
O531 Co518 2.244 . S
O531 C521 1.272 . S
O531 Co523 2.135 . S
Co532 O533 2.216 . S
Co532 O534 2.091 . S
Co532 O536 2.004 . S
Co532 O542 2.021 . S
Co532 O544 2.137 . S
Co532 O545 2.244 . S
O533 Co532 2.216 . S
O533 C540 1.247 . S
O534 Co532 2.091 . S
O534 C540 1.261 . S
C535 O544 1.247 . S
C535 O545 1.272 . S
O536 Co532 2.004 . S
O536 C541 1.259 . S
Co537 O538 2.061 . S
Co537 O543 2.052 . S
Co537 O545 2.135 . S
O538 Co537 2.061 . S
O538 C541 1.235 . S
C539 O542 1.238 . S
C539 O543 1.241 . S
C540 O533 1.247 . S
C540 O534 1.261 . S
C541 O536 1.259 . S
C541 O538 1.235 . S
O542 Co532 2.021 . S
O542 C539 1.238 . S
O543 Co537 2.052 . S
O543 C539 1.241 . S
O544 Co532 2.137 . S
O544 C535 1.247 . S
O545 Co532 2.244 . S
O545 C535 1.272 . S
O545 Co537 2.135 . S
Co546 O547 2.216 . S
Co546 O548 2.091 . S
Co546 O550 2.004 . S
Co546 O556 2.021 . S
Co546 O558 2.137 . S
Co546 O559 2.244 . S
O547 Co546 2.216 . S
O547 C554 1.247 . S
O548 Co546 2.091 . S
O548 C554 1.261 . S
C549 O558 1.247 . S
C549 O559 1.272 . S
O550 Co546 2.004 . S
O550 C555 1.259 . S
Co551 O552 2.061 . S
Co551 O557 2.052 . S
Co551 O559 2.135 . S
O552 Co551 2.061 . S
O552 C555 1.235 . S
C553 O556 1.238 . S
C553 O557 1.241 . S
C554 O547 1.247 . S
C554 O548 1.261 . S
C555 O550 1.259 . S
C555 O552 1.235 . S
O556 Co546 2.021 . S
O556 C553 1.238 . S
O557 Co551 2.052 . S
O557 C553 1.241 . S
O558 Co546 2.137 . S
O558 C549 1.247 . S
O559 Co546 2.244 . S
O559 C549 1.272 . S
O559 Co551 2.135 . S
Co560 O561 2.216 . S
Co560 O562 2.091 . S
Co560 O564 2.004 . S
Co560 O570 2.021 . S
Co560 O572 2.137 . S
Co560 O573 2.244 . S
O561 Co560 2.216 . S
O561 C568 1.247 . S
O562 Co560 2.091 . S
O562 C568 1.261 . S
C563 O572 1.247 . S
C563 O573 1.272 . S
O564 Co560 2.004 . S
O564 C569 1.259 . S
Co565 O566 2.061 . S
Co565 O571 2.052 . S
Co565 O573 2.135 . S
O566 Co565 2.061 . S
O566 C569 1.235 . S
C567 O570 1.238 . S
C567 O571 1.241 . S
C568 O561 1.247 . S
C568 O562 1.261 . S
C569 O564 1.259 . S
C569 O566 1.235 . S
O570 Co560 2.021 . S
O570 C567 1.238 . S
O571 Co565 2.052 . S
O571 C567 1.241 . S
O572 Co560 2.137 . S
O572 C563 1.247 . S
O573 Co560 2.244 . S
O573 C563 1.272 . S
O573 Co565 2.135 . S
Co574 O575 2.216 . S
Co574 O576 2.091 . S
Co574 O578 2.004 . S
Co574 O584 2.021 . S
Co574 O586 2.137 . S
Co574 O587 2.244 . S
O575 Co574 2.216 . S
O575 C582 1.247 . S
O576 Co574 2.091 . S
O576 C582 1.261 . S
C577 O586 1.247 . S
C577 O587 1.272 . S
O578 Co574 2.004 . S
O578 C583 1.259 . S
Co579 O580 2.061 . S
Co579 O585 2.052 . S
Co579 O587 2.135 . S
O580 Co579 2.061 . S
O580 C583 1.235 . S
C581 O584 1.238 . S
C581 O585 1.241 . S
C582 O575 1.247 . S
C582 O576 1.261 . S
C583 O578 1.259 . S
C583 O580 1.235 . S
O584 Co574 2.021 . S
O584 C581 1.238 . S
O585 Co579 2.052 . S
O585 C581 1.241 . S
O586 Co574 2.137 . S
O586 C577 1.247 . S
O587 Co574 2.244 . S
O587 C577 1.272 . S
O587 Co579 2.135 . S
Co588 O589 2.216 . S
Co588 O590 2.091 . S
Co588 O592 2.004 . S
Co588 O598 2.021 . S
Co588 O600 2.137 . S
Co588 O601 2.244 . S
O589 Co588 2.216 . S
O589 C596 1.247 . S
O590 Co588 2.091 . S
O590 C596 1.261 . S
C591 O600 1.247 . S
C591 O601 1.272 . S
O592 Co588 2.004 . S
O592 C597 1.259 . S
Co593 O594 2.061 . S
Co593 O599 2.052 . S
Co593 O601 2.135 . S
O594 Co593 2.061 . S
O594 C597 1.235 . S
C595 O598 1.238 . S
C595 O599 1.241 . S
C596 O589 1.247 . S
C596 O590 1.261 . S
C597 O592 1.259 . S
C597 O594 1.235 . S
O598 Co588 2.021 . S
O598 C595 1.238 . S
O599 Co593 2.052 . S
O599 C595 1.241 . S
O600 Co588 2.137 . S
O600 C591 1.247 . S
O601 Co588 2.244 . S
O601 C591 1.272 . S
O601 Co593 2.135 . S
Co602 O603 2.216 . S
Co602 O604 2.091 . S
Co602 O606 2.004 . S
Co602 O612 2.021 . S
Co602 O614 2.137 . S
Co602 O615 2.244 . S
O603 Co602 2.216 . S
O603 C610 1.247 . S
O604 Co602 2.091 . S
O604 C610 1.261 . S
C605 O614 1.247 . S
C605 O615 1.272 . S
O606 Co602 2.004 . S
O606 C611 1.259 . S
Co607 O608 2.061 . S
Co607 O613 2.052 . S
Co607 O615 2.135 . S
O608 Co607 2.061 . S
O608 C611 1.235 . S
C609 O612 1.238 . S
C609 O613 1.241 . S
C610 O603 1.247 . S
C610 O604 1.261 . S
C611 O606 1.259 . S
C611 O608 1.235 . S
O612 Co602 2.021 . S
O612 C609 1.238 . S
O613 Co607 2.052 . S
O613 C609 1.241 . S
O614 Co602 2.137 . S
O614 C605 1.247 . S
O615 Co602 2.244 . S
O615 C605 1.272 . S
O615 Co607 2.135 . S
Co616 O617 2.216 . S
Co616 O618 2.091 . S
Co616 O620 2.004 . S
Co616 O626 2.021 . S
Co616 O628 2.137 . S
Co616 O629 2.244 . S
O617 Co616 2.216 . S
O617 C624 1.247 . S
O618 Co616 2.091 . S
O618 C624 1.261 . S
C619 O628 1.247 . S
C619 O629 1.272 . S
O620 Co616 2.004 . S
O620 C625 1.259 . S
Co621 O622 2.061 . S
Co621 O627 2.052 . S
Co621 O629 2.135 . S
O622 Co621 2.061 . S
O622 C625 1.235 . S
C623 O626 1.238 . S
C623 O627 1.241 . S
C624 O617 1.247 . S
C624 O618 1.261 . S
C625 O620 1.259 . S
C625 O622 1.235 . S
O626 Co616 2.021 . S
O626 C623 1.238 . S
O627 Co621 2.052 . S
O627 C623 1.241 . S
O628 Co616 2.137 . S
O628 C619 1.247 . S
O629 Co616 2.244 . S
O629 C619 1.272 . S
O629 Co621 2.135 . S
Co630 O631 2.216 . S
Co630 O632 2.091 . S
Co630 O634 2.004 . S
Co630 O640 2.021 . S
Co630 O642 2.137 . S
Co630 O643 2.244 . S
O631 Co630 2.216 . S
O631 C638 1.247 . S
O632 Co630 2.091 . S
O632 C638 1.261 . S
C633 O642 1.247 . S
C633 O643 1.272 . S
O634 Co630 2.004 . S
O634 C639 1.259 . S
Co635 O636 2.061 . S
Co635 O641 2.052 . S
Co635 O643 2.135 . S
O636 Co635 2.061 . S
O636 C639 1.235 . S
C637 O640 1.238 . S
C637 O641 1.241 . S
C638 O631 1.247 . S
C638 O632 1.261 . S
C639 O634 1.259 . S
C639 O636 1.235 . S
O640 Co630 2.021 . S
O640 C637 1.238 . S
O641 Co635 2.052 . S
O641 C637 1.241 . S
O642 Co630 2.137 . S
O642 C633 1.247 . S
O643 Co630 2.244 . S
O643 C633 1.272 . S
O643 Co635 2.135 . S
Co644 O645 2.216 . S
Co644 O646 2.091 . S
Co644 O648 2.004 . S
Co644 O654 2.021 . S
Co644 O656 2.137 . S
Co644 O657 2.244 . S
O645 Co644 2.216 . S
O645 C652 1.247 . S
O646 Co644 2.091 . S
O646 C652 1.261 . S
C647 O656 1.247 . S
C647 O657 1.272 . S
O648 Co644 2.004 . S
O648 C653 1.259 . S
Co649 O650 2.061 . S
Co649 O655 2.052 . S
Co649 O657 2.135 . S
O650 Co649 2.061 . S
O650 C653 1.235 . S
C651 O654 1.238 . S
C651 O655 1.241 . S
C652 O645 1.247 . S
C652 O646 1.261 . S
C653 O648 1.259 . S
C653 O650 1.235 . S
O654 Co644 2.021 . S
O654 C651 1.238 . S
O655 Co649 2.052 . S
O655 C651 1.241 . S
O656 Co644 2.137 . S
O656 C647 1.247 . S
O657 Co644 2.244 . S
O657 C647 1.272 . S
O657 Co649 2.135 . S
Co658 O659 2.216 . S
Co658 O660 2.091 . S
Co658 O662 2.004 . S
Co658 O668 2.021 . S
Co658 O670 2.137 . S
Co658 O671 2.244 . S
O659 Co658 2.216 . S
O659 C666 1.247 . S
O660 Co658 2.091 . S
O660 C666 1.261 . S
C661 O670 1.247 . S
C661 O671 1.272 . S
O662 Co658 2.004 . S
O662 C667 1.259 . S
Co663 O664 2.061 . S
Co663 O669 2.052 . S
Co663 O671 2.135 . S
O664 Co663 2.061 . S
O664 C667 1.235 . S
C665 O668 1.238 . S
C665 O669 1.241 . S
C666 O659 1.247 . S
C666 O660 1.261 . S
C667 O662 1.259 . S
C667 O664 1.235 . S
O668 Co658 2.021 . S
O668 C665 1.238 . S
O669 Co663 2.052 . S
O669 C665 1.241 . S
O670 Co658 2.137 . S
O670 C661 1.247 . S
O671 Co658 2.244 . S
O671 C661 1.272 . S
O671 Co663 2.135 . S
Co672 O673 2.216 . S
Co672 O674 2.091 . S
Co672 O676 2.004 . S
Co672 O682 2.021 . S
Co672 O684 2.137 . S
Co672 O685 2.244 . S
O673 Co672 2.216 . S
O673 C680 1.247 . S
O674 Co672 2.091 . S
O674 C680 1.261 . S
C675 O684 1.247 . S
C675 O685 1.272 . S
O676 Co672 2.004 . S
O676 C681 1.259 . S
Co677 O678 2.061 . S
Co677 O683 2.052 . S
Co677 O685 2.135 . S
O678 Co677 2.061 . S
O678 C681 1.235 . S
C679 O682 1.238 . S
C679 O683 1.241 . S
C680 O673 1.247 . S
C680 O674 1.261 . S
C681 O676 1.259 . S
C681 O678 1.235 . S
O682 Co672 2.021 . S
O682 C679 1.238 . S
O683 Co677 2.052 . S
O683 C679 1.241 . S
O684 Co672 2.137 . S
O684 C675 1.247 . S
O685 Co672 2.244 . S
O685 C675 1.272 . S
O685 Co677 2.135 . S
Co686 O687 2.216 . S
Co686 O688 2.091 . S
Co686 O690 2.004 . S
Co686 O696 2.021 . S
Co686 O698 2.137 . S
Co686 O699 2.244 . S
O687 Co686 2.216 . S
O687 C694 1.247 . S
O688 Co686 2.091 . S
O688 C694 1.261 . S
C689 O698 1.247 . S
C689 O699 1.272 . S
O690 Co686 2.004 . S
O690 C695 1.259 . S
Co691 O692 2.061 . S
Co691 O697 2.052 . S
Co691 O699 2.135 . S
O692 Co691 2.061 . S
O692 C695 1.235 . S
C693 O696 1.238 . S
C693 O697 1.241 . S
C694 O687 1.247 . S
C694 O688 1.261 . S
C695 O690 1.259 . S
C695 O692 1.235 . S
O696 Co686 2.021 . S
O696 C693 1.238 . S
O697 Co691 2.052 . S
O697 C693 1.241 . S
O698 Co686 2.137 . S
O698 C689 1.247 . S
O699 Co686 2.244 . S
O699 C689 1.272 . S
O699 Co691 2.135 . S
Co700 O701 2.216 . S
Co700 O702 2.091 . S
Co700 O704 2.004 . S
Co700 O710 2.021 . S
Co700 O712 2.137 . S
Co700 O713 2.244 . S
O701 Co700 2.216 . S
O701 C708 1.247 . S
O702 Co700 2.091 . S
O702 C708 1.261 . S
C703 O712 1.247 . S
C703 O713 1.272 . S
O704 Co700 2.004 . S
O704 C709 1.259 . S
Co705 O706 2.061 . S
Co705 O711 2.052 . S
Co705 O713 2.135 . S
O706 Co705 2.061 . S
O706 C709 1.235 . S
C707 O710 1.238 . S
C707 O711 1.241 . S
C708 O701 1.247 . S
C708 O702 1.261 . S
C709 O704 1.259 . S
C709 O706 1.235 . S
O710 Co700 2.021 . S
O710 C707 1.238 . S
O711 Co705 2.052 . S
O711 C707 1.241 . S
O712 Co700 2.137 . S
O712 C703 1.247 . S
O713 Co700 2.244 . S
O713 C703 1.272 . S
O713 Co705 2.135 . S
Co714 O715 2.216 . S
Co714 O716 2.091 . S
Co714 O718 2.004 . S
Co714 O724 2.021 . S
Co714 O726 2.137 . S
Co714 O727 2.244 . S
O715 Co714 2.216 . S
O715 C722 1.247 . S
O716 Co714 2.091 . S
O716 C722 1.261 . S
C717 O726 1.247 . S
C717 O727 1.272 . S
O718 Co714 2.004 . S
O718 C723 1.259 . S
Co719 O720 2.061 . S
Co719 O725 2.052 . S
Co719 O727 2.135 . S
O720 Co719 2.061 . S
O720 C723 1.235 . S
C721 O724 1.238 . S
C721 O725 1.241 . S
C722 O715 1.247 . S
C722 O716 1.261 . S
C723 O718 1.259 . S
C723 O720 1.235 . S
O724 Co714 2.021 . S
O724 C721 1.238 . S
O725 Co719 2.052 . S
O725 C721 1.241 . S
O726 Co714 2.137 . S
O726 C717 1.247 . S
O727 Co714 2.244 . S
O727 C717 1.272 . S
O727 Co719 2.135 . S
Co728 O729 2.216 . S
Co728 O730 2.091 . S
Co728 O732 2.004 . S
Co728 O738 2.021 . S
Co728 O740 2.137 . S
Co728 O741 2.244 . S
O729 Co728 2.216 . S
O729 C736 1.247 . S
O730 Co728 2.091 . S
O730 C736 1.261 . S
C731 O740 1.247 . S
C731 O741 1.272 . S
O732 Co728 2.004 . S
O732 C737 1.259 . S
Co733 O734 2.061 . S
Co733 O739 2.052 . S
Co733 O741 2.135 . S
O734 Co733 2.061 . S
O734 C737 1.235 . S
C735 O738 1.238 . S
C735 O739 1.241 . S
C736 O729 1.247 . S
C736 O730 1.261 . S
C737 O732 1.259 . S
C737 O734 1.235 . S
O738 Co728 2.021 . S
O738 C735 1.238 . S
O739 Co733 2.052 . S
O739 C735 1.241 . S
O740 Co728 2.137 . S
O740 C731 1.247 . S
O741 Co728 2.244 . S
O741 C731 1.272 . S
O741 Co733 2.135 . S
Co742 O743 2.216 . S
Co742 O744 2.091 . S
Co742 O746 2.004 . S
Co742 O752 2.021 . S
Co742 O754 2.137 . S
Co742 O755 2.244 . S
O743 Co742 2.216 . S
O743 C750 1.247 . S
O744 Co742 2.091 . S
O744 C750 1.261 . S
C745 O754 1.247 . S
C745 O755 1.272 . S
O746 Co742 2.004 . S
O746 C751 1.259 . S
Co747 O748 2.061 . S
Co747 O753 2.052 . S
Co747 O755 2.135 . S
O748 Co747 2.061 . S
O748 C751 1.235 . S
C749 O752 1.238 . S
C749 O753 1.241 . S
C750 O743 1.247 . S
C750 O744 1.261 . S
C751 O746 1.259 . S
C751 O748 1.235 . S
O752 Co742 2.021 . S
O752 C749 1.238 . S
O753 Co747 2.052 . S
O753 C749 1.241 . S
O754 Co742 2.137 . S
O754 C745 1.247 . S
O755 Co742 2.244 . S
O755 C745 1.272 . S
O755 Co747 2.135 . S
Co756 O757 2.216 . S
Co756 O758 2.091 . S
Co756 O760 2.004 . S
Co756 O766 2.021 . S
Co756 O768 2.137 . S
Co756 O769 2.244 . S
O757 Co756 2.216 . S
O757 C764 1.247 . S
O758 Co756 2.091 . S
O758 C764 1.261 . S
C759 O768 1.247 . S
C759 O769 1.272 . S
O760 Co756 2.004 . S
O760 C765 1.259 . S
Co761 O762 2.061 . S
Co761 O767 2.052 . S
Co761 O769 2.135 . S
O762 Co761 2.061 . S
O762 C765 1.235 . S
C763 O766 1.238 . S
C763 O767 1.241 . S
C764 O757 1.247 . S
C764 O758 1.261 . S
C765 O760 1.259 . S
C765 O762 1.235 . S
O766 Co756 2.021 . S
O766 C763 1.238 . S
O767 Co761 2.052 . S
O767 C763 1.241 . S
O768 Co756 2.137 . S
O768 C759 1.247 . S
O769 Co756 2.244 . S
O769 C759 1.272 . S
O769 Co761 2.135 . S
Co770 O771 2.216 . S
Co770 O772 2.091 . S
Co770 O774 2.004 . S
Co770 O780 2.021 . S
Co770 O782 2.137 . S
Co770 O783 2.244 . S
O771 Co770 2.216 . S
O771 C778 1.247 . S
O772 Co770 2.091 . S
O772 C778 1.261 . S
C773 O782 1.247 . S
C773 O783 1.272 . S
O774 Co770 2.004 . S
O774 C779 1.259 . S
Co775 O776 2.061 . S
Co775 O781 2.052 . S
Co775 O783 2.135 . S
O776 Co775 2.061 . S
O776 C779 1.235 . S
C777 O780 1.238 . S
C777 O781 1.241 . S
C778 O771 1.247 . S
C778 O772 1.261 . S
C779 O774 1.259 . S
C779 O776 1.235 . S
O780 Co770 2.021 . S
O780 C777 1.238 . S
O781 Co775 2.052 . S
O781 C777 1.241 . S
O782 Co770 2.137 . S
O782 C773 1.247 . S
O783 Co770 2.244 . S
O783 C773 1.272 . S
O783 Co775 2.135 . S
Co784 O785 2.216 . S
Co784 O786 2.091 . S
Co784 O788 2.004 . S
Co784 O794 2.021 . S
Co784 O796 2.137 . S
Co784 O797 2.244 . S
O785 Co784 2.216 . S
O785 C792 1.247 . S
O786 Co784 2.091 . S
O786 C792 1.261 . S
C787 O796 1.247 . S
C787 O797 1.272 . S
O788 Co784 2.004 . S
O788 C793 1.259 . S
Co789 O790 2.061 . S
Co789 O795 2.052 . S
Co789 O797 2.135 . S
O790 Co789 2.061 . S
O790 C793 1.235 . S
C791 O794 1.238 . S
C791 O795 1.241 . S
C792 O785 1.247 . S
C792 O786 1.261 . S
C793 O788 1.259 . S
C793 O790 1.235 . S
O794 Co784 2.021 . S
O794 C791 1.238 . S
O795 Co789 2.052 . S
O795 C791 1.241 . S
O796 Co784 2.137 . S
O796 C787 1.247 . S
O797 Co784 2.244 . S
O797 C787 1.272 . S
O797 Co789 2.135 . S
Co798 O799 2.216 . S
Co798 O800 2.091 . S
Co798 O802 2.004 . S
Co798 O808 2.021 . S
Co798 O810 2.137 . S
Co798 O811 2.244 . S
O799 Co798 2.216 . S
O799 C806 1.247 . S
O800 Co798 2.091 . S
O800 C806 1.261 . S
C801 O810 1.247 . S
C801 O811 1.272 . S
O802 Co798 2.004 . S
O802 C807 1.259 . S
Co803 O804 2.061 . S
Co803 O809 2.052 . S
Co803 O811 2.135 . S
O804 Co803 2.061 . S
O804 C807 1.235 . S
C805 O808 1.238 . S
C805 O809 1.241 . S
C806 O799 1.247 . S
C806 O800 1.261 . S
C807 O802 1.259 . S
C807 O804 1.235 . S
O808 Co798 2.021 . S
O808 C805 1.238 . S
O809 Co803 2.052 . S
O809 C805 1.241 . S
O810 Co798 2.137 . S
O810 C801 1.247 . S
O811 Co798 2.244 . S
O811 C801 1.272 . S
O811 Co803 2.135 . S
Co812 O813 2.216 . S
Co812 O814 2.091 . S
Co812 O816 2.004 . S
Co812 O822 2.021 . S
Co812 O824 2.137 . S
Co812 O825 2.244 . S
O813 Co812 2.216 . S
O813 C820 1.247 . S
O814 Co812 2.091 . S
O814 C820 1.261 . S
C815 O824 1.247 . S
C815 O825 1.272 . S
O816 Co812 2.004 . S
O816 C821 1.259 . S
Co817 O818 2.061 . S
Co817 O823 2.052 . S
Co817 O825 2.135 . S
O818 Co817 2.061 . S
O818 C821 1.235 . S
C819 O822 1.238 . S
C819 O823 1.241 . S
C820 O813 1.247 . S
C820 O814 1.261 . S
C821 O816 1.259 . S
C821 O818 1.235 . S
O822 Co812 2.021 . S
O822 C819 1.238 . S
O823 Co817 2.052 . S
O823 C819 1.241 . S
O824 Co812 2.137 . S
O824 C815 1.247 . S
O825 Co812 2.244 . S
O825 C815 1.272 . S
O825 Co817 2.135 . S
Co826 O827 2.216 . S
Co826 O828 2.091 . S
Co826 O830 2.004 . S
Co826 O836 2.021 . S
Co826 O838 2.137 . S
Co826 O839 2.244 . S
O827 Co826 2.216 . S
O827 C834 1.247 . S
O828 Co826 2.091 . S
O828 C834 1.261 . S
C829 O838 1.247 . S
C829 O839 1.272 . S
O830 Co826 2.004 . S
O830 C835 1.259 . S
Co831 O832 2.061 . S
Co831 O837 2.052 . S
Co831 O839 2.135 . S
O832 Co831 2.061 . S
O832 C835 1.235 . S
C833 O836 1.238 . S
C833 O837 1.241 . S
C834 O827 1.247 . S
C834 O828 1.261 . S
C835 O830 1.259 . S
C835 O832 1.235 . S
O836 Co826 2.021 . S
O836 C833 1.238 . S
O837 Co831 2.052 . S
O837 C833 1.241 . S
O838 Co826 2.137 . S
O838 C829 1.247 . S
O839 Co826 2.244 . S
O839 C829 1.272 . S
O839 Co831 2.135 . S
Co840 O841 2.216 . S
Co840 O842 2.091 . S
Co840 O844 2.004 . S
Co840 O850 2.021 . S
Co840 O852 2.137 . S
Co840 O853 2.244 . S
O841 Co840 2.216 . S
O841 C848 1.247 . S
O842 Co840 2.091 . S
O842 C848 1.261 . S
C843 O852 1.247 . S
C843 O853 1.272 . S
O844 Co840 2.004 . S
O844 C849 1.259 . S
Co845 O846 2.061 . S
Co845 O851 2.052 . S
Co845 O853 2.135 . S
O846 Co845 2.061 . S
O846 C849 1.235 . S
C847 O850 1.238 . S
C847 O851 1.241 . S
C848 O841 1.247 . S
C848 O842 1.261 . S
C849 O844 1.259 . S
C849 O846 1.235 . S
O850 Co840 2.021 . S
O850 C847 1.238 . S
O851 Co845 2.052 . S
O851 C847 1.241 . S
O852 Co840 2.137 . S
O852 C843 1.247 . S
O853 Co840 2.244 . S
O853 C843 1.272 . S
O853 Co845 2.135 . S
Co854 O855 2.216 . S
Co854 O856 2.091 . S
Co854 O858 2.004 . S
Co854 O864 2.021 . S
Co854 O866 2.137 . S
Co854 O867 2.244 . S
O855 Co854 2.216 . S
O855 C862 1.247 . S
O856 Co854 2.091 . S
O856 C862 1.261 . S
C857 O866 1.247 . S
C857 O867 1.272 . S
O858 Co854 2.004 . S
O858 C863 1.259 . S
Co859 O860 2.061 . S
Co859 O865 2.052 . S
Co859 O867 2.135 . S
O860 Co859 2.061 . S
O860 C863 1.235 . S
C861 O864 1.238 . S
C861 O865 1.241 . S
C862 O855 1.247 . S
C862 O856 1.261 . S
C863 O858 1.259 . S
C863 O860 1.235 . S
O864 Co854 2.021 . S
O864 C861 1.238 . S
O865 Co859 2.052 . S
O865 C861 1.241 . S
O866 Co854 2.137 . S
O866 C857 1.247 . S
O867 Co854 2.244 . S
O867 C857 1.272 . S
O867 Co859 2.135 . S
Co868 O869 2.216 . S
Co868 O870 2.091 . S
Co868 O872 2.004 . S
Co868 O878 2.021 . S
Co868 O880 2.137 . S
Co868 O881 2.244 . S
O869 Co868 2.216 . S
O869 C876 1.247 . S
O870 Co868 2.091 . S
O870 C876 1.261 . S
C871 O880 1.247 . S
C871 O881 1.272 . S
O872 Co868 2.004 . S
O872 C877 1.259 . S
Co873 O874 2.061 . S
Co873 O879 2.052 . S
Co873 O881 2.135 . S
O874 Co873 2.061 . S
O874 C877 1.235 . S
C875 O878 1.238 . S
C875 O879 1.241 . S
C876 O869 1.247 . S
C876 O870 1.261 . S
C877 O872 1.259 . S
C877 O874 1.235 . S
O878 Co868 2.021 . S
O878 C875 1.238 . S
O879 Co873 2.052 . S
O879 C875 1.241 . S
O880 Co868 2.137 . S
O880 C871 1.247 . S
O881 Co868 2.244 . S
O881 C871 1.272 . S
O881 Co873 2.135 . S
Co882 O883 2.216 . S
Co882 O884 2.091 . S
Co882 O886 2.004 . S
Co882 O892 2.021 . S
Co882 O894 2.137 . S
Co882 O895 2.244 . S
O883 Co882 2.216 . S
O883 C890 1.247 . S
O884 Co882 2.091 . S
O884 C890 1.261 . S
C885 O894 1.247 . S
C885 O895 1.272 . S
O886 Co882 2.004 . S
O886 C891 1.259 . S
Co887 O888 2.061 . S
Co887 O893 2.052 . S
Co887 O895 2.135 . S
O888 Co887 2.061 . S
O888 C891 1.235 . S
C889 O892 1.238 . S
C889 O893 1.241 . S
C890 O883 1.247 . S
C890 O884 1.261 . S
C891 O886 1.259 . S
C891 O888 1.235 . S
O892 Co882 2.021 . S
O892 C889 1.238 . S
O893 Co887 2.052 . S
O893 C889 1.241 . S
O894 Co882 2.137 . S
O894 C885 1.247 . S
O895 Co882 2.244 . S
O895 C885 1.272 . S
O895 Co887 2.135 . S
Co896 O897 2.216 . S
Co896 O898 2.091 . S
Co896 O900 2.004 . S
Co896 O906 2.021 . S
Co896 O908 2.137 . S
Co896 O909 2.244 . S
O897 Co896 2.216 . S
O897 C904 1.247 . S
O898 Co896 2.091 . S
O898 C904 1.261 . S
C899 O908 1.247 . S
C899 O909 1.272 . S
O900 Co896 2.004 . S
O900 C905 1.259 . S
Co901 O902 2.061 . S
Co901 O907 2.052 . S
Co901 O909 2.135 . S
O902 Co901 2.061 . S
O902 C905 1.235 . S
C903 O906 1.238 . S
C903 O907 1.241 . S
C904 O897 1.247 . S
C904 O898 1.261 . S
C905 O900 1.259 . S
C905 O902 1.235 . S
O906 Co896 2.021 . S
O906 C903 1.238 . S
O907 Co901 2.052 . S
O907 C903 1.241 . S
O908 Co896 2.137 . S
O908 C899 1.247 . S
O909 Co896 2.244 . S
O909 C899 1.272 . S
O909 Co901 2.135 . S
Co910 O911 2.216 . S
Co910 O912 2.091 . S
Co910 O914 2.004 . S
Co910 O920 2.021 . S
Co910 O922 2.137 . S
Co910 O923 2.244 . S
O911 Co910 2.216 . S
O911 C918 1.247 . S
O912 Co910 2.091 . S
O912 C918 1.261 . S
C913 O922 1.247 . S
C913 O923 1.272 . S
O914 Co910 2.004 . S
O914 C919 1.259 . S
Co915 O916 2.061 . S
Co915 O921 2.052 . S
Co915 O923 2.135 . S
O916 Co915 2.061 . S
O916 C919 1.235 . S
C917 O920 1.238 . S
C917 O921 1.241 . S
C918 O911 1.247 . S
C918 O912 1.261 . S
C919 O914 1.259 . S
C919 O916 1.235 . S
O920 Co910 2.021 . S
O920 C917 1.238 . S
O921 Co915 2.052 . S
O921 C917 1.241 . S
O922 Co910 2.137 . S
O922 C913 1.247 . S
O923 Co910 2.244 . S
O923 C913 1.272 . S
O923 Co915 2.135 . S
Co924 O925 2.216 . S
Co924 O926 2.091 . S
Co924 O928 2.004 . S
Co924 O934 2.021 . S
Co924 O936 2.137 . S
Co924 O937 2.244 . S
O925 Co924 2.216 . S
O925 C932 1.247 . S
O926 Co924 2.091 . S
O926 C932 1.261 . S
C927 O936 1.247 . S
C927 O937 1.272 . S
O928 Co924 2.004 . S
O928 C933 1.259 . S
Co929 O930 2.061 . S
Co929 O935 2.052 . S
Co929 O937 2.135 . S
O930 Co929 2.061 . S
O930 C933 1.235 . S
C931 O934 1.238 . S
C931 O935 1.241 . S
C932 O925 1.247 . S
C932 O926 1.261 . S
C933 O928 1.259 . S
C933 O930 1.235 . S
O934 Co924 2.021 . S
O934 C931 1.238 . S
O935 Co929 2.052 . S
O935 C931 1.241 . S
O936 Co924 2.137 . S
O936 C927 1.247 . S
O937 Co924 2.244 . S
O937 C927 1.272 . S
O937 Co929 2.135 . S
Co938 O939 2.216 . S
Co938 O940 2.091 . S
Co938 O942 2.004 . S
Co938 O948 2.021 . S
Co938 O950 2.137 . S
Co938 O951 2.244 . S
O939 Co938 2.216 . S
O939 C946 1.247 . S
O940 Co938 2.091 . S
O940 C946 1.261 . S
C941 O950 1.247 . S
C941 O951 1.272 . S
O942 Co938 2.004 . S
O942 C947 1.259 . S
Co943 O944 2.061 . S
Co943 O949 2.052 . S
Co943 O951 2.135 . S
O944 Co943 2.061 . S
O944 C947 1.235 . S
C945 O948 1.238 . S
C945 O949 1.241 . S
C946 O939 1.247 . S
C946 O940 1.261 . S
C947 O942 1.259 . S
C947 O944 1.235 . S
O948 Co938 2.021 . S
O948 C945 1.238 . S
O949 Co943 2.052 . S
O949 C945 1.241 . S
O950 Co938 2.137 . S
O950 C941 1.247 . S
O951 Co938 2.244 . S
O951 C941 1.272 . S
O951 Co943 2.135 . S
Co952 O953 2.216 . S
Co952 O954 2.091 . S
Co952 O956 2.004 . S
Co952 O962 2.021 . S
Co952 O964 2.137 . S
Co952 O965 2.244 . S
O953 Co952 2.216 . S
O953 C960 1.247 . S
O954 Co952 2.091 . S
O954 C960 1.261 . S
C955 O964 1.247 . S
C955 O965 1.272 . S
O956 Co952 2.004 . S
O956 C961 1.259 . S
Co957 O958 2.061 . S
Co957 O963 2.052 . S
Co957 O965 2.135 . S
O958 Co957 2.061 . S
O958 C961 1.235 . S
C959 O962 1.238 . S
C959 O963 1.241 . S
C960 O953 1.247 . S
C960 O954 1.261 . S
C961 O956 1.259 . S
C961 O958 1.235 . S
O962 Co952 2.021 . S
O962 C959 1.238 . S
O963 Co957 2.052 . S
O963 C959 1.241 . S
O964 Co952 2.137 . S
O964 C955 1.247 . S
O965 Co952 2.244 . S
O965 C955 1.272 . S
O965 Co957 2.135 . S
Co966 O967 2.216 . S
Co966 O968 2.091 . S
Co966 O970 2.004 . S
Co966 O976 2.021 . S
Co966 O978 2.137 . S
Co966 O979 2.244 . S
O967 Co966 2.216 . S
O967 C974 1.247 . S
O968 Co966 2.091 . S
O968 C974 1.261 . S
C969 O978 1.247 . S
C969 O979 1.272 . S
O970 Co966 2.004 . S
O970 C975 1.259 . S
Co971 O972 2.061 . S
Co971 O977 2.052 . S
Co971 O979 2.135 . S
O972 Co971 2.061 . S
O972 C975 1.235 . S
C973 O976 1.238 . S
C973 O977 1.241 . S
C974 O967 1.247 . S
C974 O968 1.261 . S
C975 O970 1.259 . S
C975 O972 1.235 . S
O976 Co966 2.021 . S
O976 C973 1.238 . S
O977 Co971 2.052 . S
O977 C973 1.241 . S
O978 Co966 2.137 . S
O978 C969 1.247 . S
O979 Co966 2.244 . S
O979 C969 1.272 . S
O979 Co971 2.135 . S
Co980 O981 2.216 . S
Co980 O982 2.091 . S
Co980 O984 2.004 . S
Co980 O990 2.021 . S
Co980 O992 2.137 . S
Co980 O993 2.244 . S
O981 Co980 2.216 . S
O981 C988 1.247 . S
O982 Co980 2.091 . S
O982 C988 1.261 . S
C983 O992 1.247 . S
C983 O993 1.272 . S
O984 Co980 2.004 . S
O984 C989 1.259 . S
Co985 O986 2.061 . S
Co985 O991 2.052 . S
Co985 O993 2.135 . S
O986 Co985 2.061 . S
O986 C989 1.235 . S
C987 O990 1.238 . S
C987 O991 1.241 . S
C988 O981 1.247 . S
C988 O982 1.261 . S
C989 O984 1.259 . S
C989 O986 1.235 . S
O990 Co980 2.021 . S
O990 C987 1.238 . S
O991 Co985 2.052 . S
O991 C987 1.241 . S
O992 Co980 2.137 . S
O992 C983 1.247 . S
O993 Co980 2.244 . S
O993 C983 1.272 . S
O993 Co985 2.135 . S
Co994 O995 2.216 . S
Co994 O996 2.091 . S
Co994 O998 2.004 . S
Co994 O1004 2.021 . S
Co994 O1006 2.137 . S
Co994 O1007 2.244 . S
O995 Co994 2.216 . S
O995 C1002 1.247 . S
O996 Co994 2.091 . S
O996 C1002 1.261 . S
C997 O1006 1.247 . S
C997 O1007 1.272 . S
O998 Co994 2.004 . S
O998 C1003 1.259 . S
Co999 O1000 2.061 . S
Co999 O1005 2.052 . S
Co999 O1007 2.135 . S
O1000 Co999 2.061 . S
O1000 C1003 1.235 . S
C1001 O1004 1.238 . S
C1001 O1005 1.241 . S
C1002 O995 1.247 . S
C1002 O996 1.261 . S
C1003 O998 1.259 . S
C1003 O1000 1.235 . S
O1004 Co994 2.021 . S
O1004 C1001 1.238 . S
O1005 Co999 2.052 . S
O1005 C1001 1.241 . S
O1006 Co994 2.137 . S
O1006 C997 1.247 . S
O1007 Co994 2.244 . S
O1007 C997 1.272 . S
O1007 Co999 2.135 . S
Co1008 O1009 2.216 . S
Co1008 O1010 2.091 . S
Co1008 O1012 2.004 . S
Co1008 O1018 2.021 . S
Co1008 O1020 2.137 . S
Co1008 O1021 2.244 . S
O1009 Co1008 2.216 . S
O1009 C1016 1.247 . S
O1010 Co1008 2.091 . S
O1010 C1016 1.261 . S
C1011 O1020 1.247 . S
C1011 O1021 1.272 . S
O1012 Co1008 2.004 . S
O1012 C1017 1.259 . S
Co1013 O1014 2.061 . S
Co1013 O1019 2.052 . S
Co1013 O1021 2.135 . S
O1014 Co1013 2.061 . S
O1014 C1017 1.235 . S
C1015 O1018 1.238 . S
C1015 O1019 1.241 . S
C1016 O1009 1.247 . S
C1016 O1010 1.261 . S
C1017 O1012 1.259 . S
C1017 O1014 1.235 . S
O1018 Co1008 2.021 . S
O1018 C1015 1.238 . S
O1019 Co1013 2.052 . S
O1019 C1015 1.241 . S
O1020 Co1008 2.137 . S
O1020 C1011 1.247 . S
O1021 Co1008 2.244 . S
O1021 C1011 1.272 . S
O1021 Co1013 2.135 . S
Co1022 O1023 2.216 . S
Co1022 O1024 2.091 . S
Co1022 O1026 2.004 . S
Co1022 O1032 2.021 . S
Co1022 O1034 2.137 . S
Co1022 O1035 2.244 . S
O1023 Co1022 2.216 . S
O1023 C1030 1.247 . S
O1024 Co1022 2.091 . S
O1024 C1030 1.261 . S
C1025 O1034 1.247 . S
C1025 O1035 1.272 . S
O1026 Co1022 2.004 . S
O1026 C1031 1.259 . S
Co1027 O1028 2.061 . S
Co1027 O1033 2.052 . S
Co1027 O1035 2.135 . S
O1028 Co1027 2.061 . S
O1028 C1031 1.235 . S
C1029 O1032 1.238 . S
C1029 O1033 1.241 . S
C1030 O1023 1.247 . S
C1030 O1024 1.261 . S
C1031 O1026 1.259 . S
C1031 O1028 1.235 . S
O1032 Co1022 2.021 . S
O1032 C1029 1.238 . S
O1033 Co1027 2.052 . S
O1033 C1029 1.241 . S
O1034 Co1022 2.137 . S
O1034 C1025 1.247 . S
O1035 Co1022 2.244 . S
O1035 C1025 1.272 . S
O1035 Co1027 2.135 . S
Co1036 O1037 2.216 . S
Co1036 O1038 2.091 . S
Co1036 O1040 2.004 . S
Co1036 O1046 2.021 . S
Co1036 O1048 2.137 . S
Co1036 O1049 2.244 . S
O1037 Co1036 2.216 . S
O1037 C1044 1.247 . S
O1038 Co1036 2.091 . S
O1038 C1044 1.261 . S
C1039 O1048 1.247 . S
C1039 O1049 1.272 . S
O1040 Co1036 2.004 . S
O1040 C1045 1.259 . S
Co1041 O1042 2.061 . S
Co1041 O1047 2.052 . S
Co1041 O1049 2.135 . S
O1042 Co1041 2.061 . S
O1042 C1045 1.235 . S
C1043 O1046 1.238 . S
C1043 O1047 1.241 . S
C1044 O1037 1.247 . S
C1044 O1038 1.261 . S
C1045 O1040 1.259 . S
C1045 O1042 1.235 . S
O1046 Co1036 2.021 . S
O1046 C1043 1.238 . S
O1047 Co1041 2.052 . S
O1047 C1043 1.241 . S
O1048 Co1036 2.137 . S
O1048 C1039 1.247 . S
O1049 Co1036 2.244 . S
O1049 C1039 1.272 . S
O1049 Co1041 2.135 . S
Co1050 O1051 2.216 . S
Co1050 O1052 2.091 . S
Co1050 O1054 2.004 . S
Co1050 O1060 2.021 . S
Co1050 O1062 2.137 . S
Co1050 O1063 2.244 . S
O1051 Co1050 2.216 . S
O1051 C1058 1.247 . S
O1052 Co1050 2.091 . S
O1052 C1058 1.261 . S
C1053 O1062 1.247 . S
C1053 O1063 1.272 . S
O1054 Co1050 2.004 . S
O1054 C1059 1.259 . S
Co1055 O1056 2.061 . S
Co1055 O1061 2.052 . S
Co1055 O1063 2.135 . S
O1056 Co1055 2.061 . S
O1056 C1059 1.235 . S
C1057 O1060 1.238 . S
C1057 O1061 1.241 . S
C1058 O1051 1.247 . S
C1058 O1052 1.261 . S
C1059 O1054 1.259 . S
C1059 O1056 1.235 . S
O1060 Co1050 2.021 . S
O1060 C1057 1.238 . S
O1061 Co1055 2.052 . S
O1061 C1057 1.241 . S
O1062 Co1050 2.137 . S
O1062 C1053 1.247 . S
O1063 Co1050 2.244 . S
O1063 C1053 1.272 . S
O1063 Co1055 2.135 . S
Co1064 O1065 2.216 . S
Co1064 O1066 2.091 . S
Co1064 O1068 2.004 . S
Co1064 O1074 2.021 . S
Co1064 O1076 2.137 . S
Co1064 O1077 2.244 . S
O1065 Co1064 2.216 . S
O1065 C1072 1.247 . S
O1066 Co1064 2.091 . S
O1066 C1072 1.261 . S
C1067 O1076 1.247 . S
C1067 O1077 1.272 . S
O1068 Co1064 2.004 . S
O1068 C1073 1.259 . S
Co1069 O1070 2.061 . S
Co1069 O1075 2.052 . S
Co1069 O1077 2.135 . S
O1070 Co1069 2.061 . S
O1070 C1073 1.235 . S
C1071 O1074 1.238 . S
C1071 O1075 1.241 . S
C1072 O1065 1.247 . S
C1072 O1066 1.261 . S
C1073 O1068 1.259 . S
C1073 O1070 1.235 . S
O1074 Co1064 2.021 . S
O1074 C1071 1.238 . S
O1075 Co1069 2.052 . S
O1075 C1071 1.241 . S
O1076 Co1064 2.137 . S
O1076 C1067 1.247 . S
O1077 Co1064 2.244 . S
O1077 C1067 1.272 . S
O1077 Co1069 2.135 . S
Co1078 O1079 2.216 . S
Co1078 O1080 2.091 . S
Co1078 O1082 2.004 . S
Co1078 O1088 2.021 . S
Co1078 O1090 2.137 . S
Co1078 O1091 2.244 . S
O1079 Co1078 2.216 . S
O1079 C1086 1.247 . S
O1080 Co1078 2.091 . S
O1080 C1086 1.261 . S
C1081 O1090 1.247 . S
C1081 O1091 1.272 . S
O1082 Co1078 2.004 . S
O1082 C1087 1.259 . S
Co1083 O1084 2.061 . S
Co1083 O1089 2.052 . S
Co1083 O1091 2.135 . S
O1084 Co1083 2.061 . S
O1084 C1087 1.235 . S
C1085 O1088 1.238 . S
C1085 O1089 1.241 . S
C1086 O1079 1.247 . S
C1086 O1080 1.261 . S
C1087 O1082 1.259 . S
C1087 O1084 1.235 . S
O1088 Co1078 2.021 . S
O1088 C1085 1.238 . S
O1089 Co1083 2.052 . S
O1089 C1085 1.241 . S
O1090 Co1078 2.137 . S
O1090 C1081 1.247 . S
O1091 Co1078 2.244 . S
O1091 C1081 1.272 . S
O1091 Co1083 2.135 . S
Co1092 O1093 2.216 . S
Co1092 O1094 2.091 . S
Co1092 O1096 2.004 . S
Co1092 O1102 2.021 . S
Co1092 O1104 2.137 . S
Co1092 O1105 2.244 . S
O1093 Co1092 2.216 . S
O1093 C1100 1.247 . S
O1094 Co1092 2.091 . S
O1094 C1100 1.261 . S
C1095 O1104 1.247 . S
C1095 O1105 1.272 . S
O1096 Co1092 2.004 . S
O1096 C1101 1.259 . S
Co1097 O1098 2.061 . S
Co1097 O1103 2.052 . S
Co1097 O1105 2.135 . S
O1098 Co1097 2.061 . S
O1098 C1101 1.235 . S
C1099 O1102 1.238 . S
C1099 O1103 1.241 . S
C1100 O1093 1.247 . S
C1100 O1094 1.261 . S
C1101 O1096 1.259 . S
C1101 O1098 1.235 . S
O1102 Co1092 2.021 . S
O1102 C1099 1.238 . S
O1103 Co1097 2.052 . S
O1103 C1099 1.241 . S
O1104 Co1092 2.137 . S
O1104 C1095 1.247 . S
O1105 Co1092 2.244 . S
O1105 C1095 1.272 . S
O1105 Co1097 2.135 . S
Co1106 O1107 2.216 . S
Co1106 O1108 2.091 . S
Co1106 O1110 2.004 . S
Co1106 O1116 2.021 . S
Co1106 O1118 2.137 . S
Co1106 O1119 2.244 . S
O1107 Co1106 2.216 . S
O1107 C1114 1.247 . S
O1108 Co1106 2.091 . S
O1108 C1114 1.261 . S
C1109 O1118 1.247 . S
C1109 O1119 1.272 . S
O1110 Co1106 2.004 . S
O1110 C1115 1.259 . S
Co1111 O1112 2.061 . S
Co1111 O1117 2.052 . S
Co1111 O1119 2.135 . S
O1112 Co1111 2.061 . S
O1112 C1115 1.235 . S
C1113 O1116 1.238 . S
C1113 O1117 1.241 . S
C1114 O1107 1.247 . S
C1114 O1108 1.261 . S
C1115 O1110 1.259 . S
C1115 O1112 1.235 . S
O1116 Co1106 2.021 . S
O1116 C1113 1.238 . S
O1117 Co1111 2.052 . S
O1117 C1113 1.241 . S
O1118 Co1106 2.137 . S
O1118 C1109 1.247 . S
O1119 Co1106 2.244 . S
O1119 C1109 1.272 . S
O1119 Co1111 2.135 . S
Co1120 O1121 2.216 . S
Co1120 O1122 2.091 . S
Co1120 O1124 2.004 . S
Co1120 O1130 2.021 . S
Co1120 O1132 2.137 . S
Co1120 O1133 2.244 . S
O1121 Co1120 2.216 . S
O1121 C1128 1.247 . S
O1122 Co1120 2.091 . S
O1122 C1128 1.261 . S
C1123 O1132 1.247 . S
C1123 O1133 1.272 . S
O1124 Co1120 2.004 . S
O1124 C1129 1.259 . S
Co1125 O1126 2.061 . S
Co1125 O1131 2.052 . S
Co1125 O1133 2.135 . S
O1126 Co1125 2.061 . S
O1126 C1129 1.235 . S
C1127 O1130 1.238 . S
C1127 O1131 1.241 . S
C1128 O1121 1.247 . S
C1128 O1122 1.261 . S
C1129 O1124 1.259 . S
C1129 O1126 1.235 . S
O1130 Co1120 2.021 . S
O1130 C1127 1.238 . S
O1131 Co1125 2.052 . S
O1131 C1127 1.241 . S
O1132 Co1120 2.137 . S
O1132 C1123 1.247 . S
O1133 Co1120 2.244 . S
O1133 C1123 1.272 . S
O1133 Co1125 2.135 . S
Co1134 O1135 2.216 . S
Co1134 O1136 2.091 . S
Co1134 O1138 2.004 . S
Co1134 O1144 2.021 . S
Co1134 O1146 2.137 . S
Co1134 O1147 2.244 . S
O1135 Co1134 2.216 . S
O1135 C1142 1.247 . S
O1136 Co1134 2.091 . S
O1136 C1142 1.261 . S
C1137 O1146 1.247 . S
C1137 O1147 1.272 . S
O1138 Co1134 2.004 . S
O1138 C1143 1.259 . S
Co1139 O1140 2.061 . S
Co1139 O1145 2.052 . S
Co1139 O1147 2.135 . S
O1140 Co1139 2.061 . S
O1140 C1143 1.235 . S
C1141 O1144 1.238 . S
C1141 O1145 1.241 . S
C1142 O1135 1.247 . S
C1142 O1136 1.261 . S
C1143 O1138 1.259 . S
C1143 O1140 1.235 . S
O1144 Co1134 2.021 . S
O1144 C1141 1.238 . S
O1145 Co1139 2.052 . S
O1145 C1141 1.241 . S
O1146 Co1134 2.137 . S
O1146 C1137 1.247 . S
O1147 Co1134 2.244 . S
O1147 C1137 1.272 . S
O1147 Co1139 2.135 . S
Co1148 O1149 2.216 . S
Co1148 O1150 2.091 . S
Co1148 O1152 2.004 . S
Co1148 O1158 2.021 . S
Co1148 O1160 2.137 . S
Co1148 O1161 2.244 . S
O1149 Co1148 2.216 . S
O1149 C1156 1.247 . S
O1150 Co1148 2.091 . S
O1150 C1156 1.261 . S
C1151 O1160 1.247 . S
C1151 O1161 1.272 . S
O1152 Co1148 2.004 . S
O1152 C1157 1.259 . S
Co1153 O1154 2.061 . S
Co1153 O1159 2.052 . S
Co1153 O1161 2.135 . S
O1154 Co1153 2.061 . S
O1154 C1157 1.235 . S
C1155 O1158 1.238 . S
C1155 O1159 1.241 . S
C1156 O1149 1.247 . S
C1156 O1150 1.261 . S
C1157 O1152 1.259 . S
C1157 O1154 1.235 . S
O1158 Co1148 2.021 . S
O1158 C1155 1.238 . S
O1159 Co1153 2.052 . S
O1159 C1155 1.241 . S
O1160 Co1148 2.137 . S
O1160 C1151 1.247 . S
O1161 Co1148 2.244 . S
O1161 C1151 1.272 . S
O1161 Co1153 2.135 . S
Co1162 O1163 2.216 . S
Co1162 O1164 2.091 . S
Co1162 O1166 2.004 . S
Co1162 O1172 2.021 . S
Co1162 O1174 2.137 . S
Co1162 O1175 2.244 . S
O1163 Co1162 2.216 . S
O1163 C1170 1.247 . S
O1164 Co1162 2.091 . S
O1164 C1170 1.261 . S
C1165 O1174 1.247 . S
C1165 O1175 1.272 . S
O1166 Co1162 2.004 . S
O1166 C1171 1.259 . S
Co1167 O1168 2.061 . S
Co1167 O1173 2.052 . S
Co1167 O1175 2.135 . S
O1168 Co1167 2.061 . S
O1168 C1171 1.235 . S
C1169 O1172 1.238 . S
C1169 O1173 1.241 . S
C1170 O1163 1.247 . S
C1170 O1164 1.261 . S
C1171 O1166 1.259 . S
C1171 O1168 1.235 . S
O1172 Co1162 2.021 . S
O1172 C1169 1.238 . S
O1173 Co1167 2.052 . S
O1173 C1169 1.241 . S
O1174 Co1162 2.137 . S
O1174 C1165 1.247 . S
O1175 Co1162 2.244 . S
O1175 C1165 1.272 . S
O1175 Co1167 2.135 . S
Co1176 O1177 2.216 . S
Co1176 O1178 2.091 . S
Co1176 O1180 2.004 . S
Co1176 O1186 2.021 . S
Co1176 O1188 2.137 . S
Co1176 O1189 2.244 . S
O1177 Co1176 2.216 . S
O1177 C1184 1.247 . S
O1178 Co1176 2.091 . S
O1178 C1184 1.261 . S
C1179 O1188 1.247 . S
C1179 O1189 1.272 . S
O1180 Co1176 2.004 . S
O1180 C1185 1.259 . S
Co1181 O1182 2.061 . S
Co1181 O1187 2.052 . S
Co1181 O1189 2.135 . S
O1182 Co1181 2.061 . S
O1182 C1185 1.235 . S
C1183 O1186 1.238 . S
C1183 O1187 1.241 . S
C1184 O1177 1.247 . S
C1184 O1178 1.261 . S
C1185 O1180 1.259 . S
C1185 O1182 1.235 . S
O1186 Co1176 2.021 . S
O1186 C1183 1.238 . S
O1187 Co1181 2.052 . S
O1187 C1183 1.241 . S
O1188 Co1176 2.137 . S
O1188 C1179 1.247 . S
O1189 Co1176 2.244 . S
O1189 C1179 1.272 . S
O1189 Co1181 2.135 . S
Co1190 O1191 2.216 . S
Co1190 O1192 2.091 . S
Co1190 O1194 2.004 . S
Co1190 O1200 2.021 . S
Co1190 O1202 2.137 . S
Co1190 O1203 2.244 . S
O1191 Co1190 2.216 . S
O1191 C1198 1.247 . S
O1192 Co1190 2.091 . S
O1192 C1198 1.261 . S
C1193 O1202 1.247 . S
C1193 O1203 1.272 . S
O1194 Co1190 2.004 . S
O1194 C1199 1.259 . S
Co1195 O1196 2.061 . S
Co1195 O1201 2.052 . S
Co1195 O1203 2.135 . S
O1196 Co1195 2.061 . S
O1196 C1199 1.235 . S
C1197 O1200 1.238 . S
C1197 O1201 1.241 . S
C1198 O1191 1.247 . S
C1198 O1192 1.261 . S
C1199 O1194 1.259 . S
C1199 O1196 1.235 . S
O1200 Co1190 2.021 . S
O1200 C1197 1.238 . S
O1201 Co1195 2.052 . S
O1201 C1197 1.241 . S
O1202 Co1190 2.137 . S
O1202 C1193 1.247 . S
O1203 Co1190 2.244 . S
O1203 C1193 1.272 . S
O1203 Co1195 2.135 . S
Co1204 O1205 2.216 . S
Co1204 O1206 2.091 . S
Co1204 O1208 2.004 . S
Co1204 O1214 2.021 . S
Co1204 O1216 2.137 . S
Co1204 O1217 2.244 . S
O1205 Co1204 2.216 . S
O1205 C1212 1.247 . S
O1206 Co1204 2.091 . S
O1206 C1212 1.261 . S
C1207 O1216 1.247 . S
C1207 O1217 1.272 . S
O1208 Co1204 2.004 . S
O1208 C1213 1.259 . S
Co1209 O1210 2.061 . S
Co1209 O1215 2.052 . S
Co1209 O1217 2.135 . S
O1210 Co1209 2.061 . S
O1210 C1213 1.235 . S
C1211 O1214 1.238 . S
C1211 O1215 1.241 . S
C1212 O1205 1.247 . S
C1212 O1206 1.261 . S
C1213 O1208 1.259 . S
C1213 O1210 1.235 . S
O1214 Co1204 2.021 . S
O1214 C1211 1.238 . S
O1215 Co1209 2.052 . S
O1215 C1211 1.241 . S
O1216 Co1204 2.137 . S
O1216 C1207 1.247 . S
O1217 Co1204 2.244 . S
O1217 C1207 1.272 . S
O1217 Co1209 2.135 . S
Co1218 O1219 2.216 . S
Co1218 O1220 2.091 . S
Co1218 O1222 2.004 . S
Co1218 O1228 2.021 . S
Co1218 O1230 2.137 . S
Co1218 O1231 2.244 . S
O1219 Co1218 2.216 . S
O1219 C1226 1.247 . S
O1220 Co1218 2.091 . S
O1220 C1226 1.261 . S
C1221 O1230 1.247 . S
C1221 O1231 1.272 . S
O1222 Co1218 2.004 . S
O1222 C1227 1.259 . S
Co1223 O1224 2.061 . S
Co1223 O1229 2.052 . S
Co1223 O1231 2.135 . S
O1224 Co1223 2.061 . S
O1224 C1227 1.235 . S
C1225 O1228 1.238 . S
C1225 O1229 1.241 . S
C1226 O1219 1.247 . S
C1226 O1220 1.261 . S
C1227 O1222 1.259 . S
C1227 O1224 1.235 . S
O1228 Co1218 2.021 . S
O1228 C1225 1.238 . S
O1229 Co1223 2.052 . S
O1229 C1225 1.241 . S
O1230 Co1218 2.137 . S
O1230 C1221 1.247 . S
O1231 Co1218 2.244 . S
O1231 C1221 1.272 . S
O1231 Co1223 2.135 . S
Co1232 O1233 2.216 . S
Co1232 O1234 2.091 . S
Co1232 O1236 2.004 . S
Co1232 O1242 2.021 . S
Co1232 O1244 2.137 . S
Co1232 O1245 2.244 . S
O1233 Co1232 2.216 . S
O1233 C1240 1.247 . S
O1234 Co1232 2.091 . S
O1234 C1240 1.261 . S
C1235 O1244 1.247 . S
C1235 O1245 1.272 . S
O1236 Co1232 2.004 . S
O1236 C1241 1.259 . S
Co1237 O1238 2.061 . S
Co1237 O1243 2.052 . S
Co1237 O1245 2.135 . S
O1238 Co1237 2.061 . S
O1238 C1241 1.235 . S
C1239 O1242 1.238 . S
C1239 O1243 1.241 . S
C1240 O1233 1.247 . S
C1240 O1234 1.261 . S
C1241 O1236 1.259 . S
C1241 O1238 1.235 . S
O1242 Co1232 2.021 . S
O1242 C1239 1.238 . S
O1243 Co1237 2.052 . S
O1243 C1239 1.241 . S
O1244 Co1232 2.137 . S
O1244 C1235 1.247 . S
O1245 Co1232 2.244 . S
O1245 C1235 1.272 . S
O1245 Co1237 2.135 . S
Co1246 O1247 2.216 . S
Co1246 O1248 2.091 . S
Co1246 O1250 2.004 . S
Co1246 O1256 2.021 . S
Co1246 O1258 2.137 . S
Co1246 O1259 2.244 . S
O1247 Co1246 2.216 . S
O1247 C1254 1.247 . S
O1248 Co1246 2.091 . S
O1248 C1254 1.261 . S
C1249 O1258 1.247 . S
C1249 O1259 1.272 . S
O1250 Co1246 2.004 . S
O1250 C1255 1.259 . S
Co1251 O1252 2.061 . S
Co1251 O1257 2.052 . S
Co1251 O1259 2.135 . S
O1252 Co1251 2.061 . S
O1252 C1255 1.235 . S
C1253 O1256 1.238 . S
C1253 O1257 1.241 . S
C1254 O1247 1.247 . S
C1254 O1248 1.261 . S
C1255 O1250 1.259 . S
C1255 O1252 1.235 . S
O1256 Co1246 2.021 . S
O1256 C1253 1.238 . S
O1257 Co1251 2.052 . S
O1257 C1253 1.241 . S
O1258 Co1246 2.137 . S
O1258 C1249 1.247 . S
O1259 Co1246 2.244 . S
O1259 C1249 1.272 . S
O1259 Co1251 2.135 . S
Co1260 O1261 2.216 . S
Co1260 O1262 2.091 . S
Co1260 O1264 2.004 . S
Co1260 O1270 2.021 . S
Co1260 O1272 2.137 . S
Co1260 O1273 2.244 . S
O1261 Co1260 2.216 . S
O1261 C1268 1.247 . S
O1262 Co1260 2.091 . S
O1262 C1268 1.261 . S
C1263 O1272 1.247 . S
C1263 O1273 1.272 . S
O1264 Co1260 2.004 . S
O1264 C1269 1.259 . S
Co1265 O1266 2.061 . S
Co1265 O1271 2.052 . S
Co1265 O1273 2.135 . S
O1266 Co1265 2.061 . S
O1266 C1269 1.235 . S
C1267 O1270 1.238 . S
C1267 O1271 1.241 . S
C1268 O1261 1.247 . S
C1268 O1262 1.261 . S
C1269 O1264 1.259 . S
C1269 O1266 1.235 . S
O1270 Co1260 2.021 . S
O1270 C1267 1.238 . S
O1271 Co1265 2.052 . S
O1271 C1267 1.241 . S
O1272 Co1260 2.137 . S
O1272 C1263 1.247 . S
O1273 Co1260 2.244 . S
O1273 C1263 1.272 . S
O1273 Co1265 2.135 . S
Co1274 O1275 2.216 . S
Co1274 O1276 2.091 . S
Co1274 O1278 2.004 . S
Co1274 O1284 2.021 . S
Co1274 O1286 2.137 . S
Co1274 O1287 2.244 . S
O1275 Co1274 2.216 . S
O1275 C1282 1.247 . S
O1276 Co1274 2.091 . S
O1276 C1282 1.261 . S
C1277 O1286 1.247 . S
C1277 O1287 1.272 . S
O1278 Co1274 2.004 . S
O1278 C1283 1.259 . S
Co1279 O1280 2.061 . S
Co1279 O1285 2.052 . S
Co1279 O1287 2.135 . S
O1280 Co1279 2.061 . S
O1280 C1283 1.235 . S
C1281 O1284 1.238 . S
C1281 O1285 1.241 . S
C1282 O1275 1.247 . S
C1282 O1276 1.261 . S
C1283 O1278 1.259 . S
C1283 O1280 1.235 . S
O1284 Co1274 2.021 . S
O1284 C1281 1.238 . S
O1285 Co1279 2.052 . S
O1285 C1281 1.241 . S
O1286 Co1274 2.137 . S
O1286 C1277 1.247 . S
O1287 Co1274 2.244 . S
O1287 C1277 1.272 . S
O1287 Co1279 2.135 . S
Co1288 O1289 2.216 . S
Co1288 O1290 2.091 . S
Co1288 O1292 2.004 . S
Co1288 O1298 2.021 . S
Co1288 O1300 2.137 . S
Co1288 O1301 2.244 . S
O1289 Co1288 2.216 . S
O1289 C1296 1.247 . S
O1290 Co1288 2.091 . S
O1290 C1296 1.261 . S
C1291 O1300 1.247 . S
C1291 O1301 1.272 . S
O1292 Co1288 2.004 . S
O1292 C1297 1.259 . S
Co1293 O1294 2.061 . S
Co1293 O1299 2.052 . S
Co1293 O1301 2.135 . S
O1294 Co1293 2.061 . S
O1294 C1297 1.235 . S
C1295 O1298 1.238 . S
C1295 O1299 1.241 . S
C1296 O1289 1.247 . S
C1296 O1290 1.261 . S
C1297 O1292 1.259 . S
C1297 O1294 1.235 . S
O1298 Co1288 2.021 . S
O1298 C1295 1.238 . S
O1299 Co1293 2.052 . S
O1299 C1295 1.241 . S
O1300 Co1288 2.137 . S
O1300 C1291 1.247 . S
O1301 Co1288 2.244 . S
O1301 C1291 1.272 . S
O1301 Co1293 2.135 . S
Co1302 O1303 2.216 . S
Co1302 O1304 2.091 . S
Co1302 O1306 2.004 . S
Co1302 O1312 2.021 . S
Co1302 O1314 2.137 . S
Co1302 O1315 2.244 . S
O1303 Co1302 2.216 . S
O1303 C1310 1.247 . S
O1304 Co1302 2.091 . S
O1304 C1310 1.261 . S
C1305 O1314 1.247 . S
C1305 O1315 1.272 . S
O1306 Co1302 2.004 . S
O1306 C1311 1.259 . S
Co1307 O1308 2.061 . S
Co1307 O1313 2.052 . S
Co1307 O1315 2.135 . S
O1308 Co1307 2.061 . S
O1308 C1311 1.235 . S
C1309 O1312 1.238 . S
C1309 O1313 1.241 . S
C1310 O1303 1.247 . S
C1310 O1304 1.261 . S
C1311 O1306 1.259 . S
C1311 O1308 1.235 . S
O1312 Co1302 2.021 . S
O1312 C1309 1.238 . S
O1313 Co1307 2.052 . S
O1313 C1309 1.241 . S
O1314 Co1302 2.137 . S
O1314 C1305 1.247 . S
O1315 Co1302 2.244 . S
O1315 C1305 1.272 . S
O1315 Co1307 2.135 . S
Co1316 O1317 2.216 . S
Co1316 O1318 2.091 . S
Co1316 O1320 2.004 . S
Co1316 O1326 2.021 . S
Co1316 O1328 2.137 . S
Co1316 O1329 2.244 . S
O1317 Co1316 2.216 . S
O1317 C1324 1.247 . S
O1318 Co1316 2.091 . S
O1318 C1324 1.261 . S
C1319 O1328 1.247 . S
C1319 O1329 1.272 . S
O1320 Co1316 2.004 . S
O1320 C1325 1.259 . S
Co1321 O1322 2.061 . S
Co1321 O1327 2.052 . S
Co1321 O1329 2.135 . S
O1322 Co1321 2.061 . S
O1322 C1325 1.235 . S
C1323 O1326 1.238 . S
C1323 O1327 1.241 . S
C1324 O1317 1.247 . S
C1324 O1318 1.261 . S
C1325 O1320 1.259 . S
C1325 O1322 1.235 . S
O1326 Co1316 2.021 . S
O1326 C1323 1.238 . S
O1327 Co1321 2.052 . S
O1327 C1323 1.241 . S
O1328 Co1316 2.137 . S
O1328 C1319 1.247 . S
O1329 Co1316 2.244 . S
O1329 C1319 1.272 . S
O1329 Co1321 2.135 . S
Co1330 O1331 2.216 . S
Co1330 O1332 2.091 . S
Co1330 O1334 2.004 . S
Co1330 O1340 2.021 . S
Co1330 O1342 2.137 . S
Co1330 O1343 2.244 . S
O1331 Co1330 2.216 . S
O1331 C1338 1.247 . S
O1332 Co1330 2.091 . S
O1332 C1338 1.261 . S
C1333 O1342 1.247 . S
C1333 O1343 1.272 . S
O1334 Co1330 2.004 . S
O1334 C1339 1.259 . S
Co1335 O1336 2.061 . S
Co1335 O1341 2.052 . S
Co1335 O1343 2.135 . S
O1336 Co1335 2.061 . S
O1336 C1339 1.235 . S
C1337 O1340 1.238 . S
C1337 O1341 1.241 . S
C1338 O1331 1.247 . S
C1338 O1332 1.261 . S
C1339 O1334 1.259 . S
C1339 O1336 1.235 . S
O1340 Co1330 2.021 . S
O1340 C1337 1.238 . S
O1341 Co1335 2.052 . S
O1341 C1337 1.241 . S
O1342 Co1330 2.137 . S
O1342 C1333 1.247 . S
O1343 Co1330 2.244 . S
O1343 C1333 1.272 . S
O1343 Co1335 2.135 . S
H1344 C1350 0.930 . S
H1345 C1354 0.930 . S
H1346 C1359 0.929 . S
H1347 C1357 0.929 . S
H1348 C1352 0.967 . S
H1349 C1358 0.967 . S
C1350 H1344 0.930 . S
C1350 C1351 1.367 . S
C1350 C1358 1.378 . S
C1351 C1350 1.367 . S
C1351 C1359 1.433 . S
C1352 H1348 0.967 . S
C1352 C1354 1.378 . S
C1352 C1356 1.350 . S
C1353 C1356 1.463 1_454 S
C1353 C1358 1.350 . S
C1353 N1361 1.427 . S
C1354 H1345 0.930 . S
C1354 C1352 1.378 . S
C1354 C1355 1.367 . S
C1355 C1354 1.367 . S
C1355 C1357 1.433 . S
C1356 C1352 1.350 . S
C1356 C1353 1.463 1_656 S
C1356 N1360 1.427 . S
C1357 H1347 0.929 . S
C1357 C1355 1.433 . S
C1357 N1360 1.383 . S
C1358 H1349 0.967 . S
C1358 C1350 1.378 . S
C1358 C1353 1.350 . S
C1359 H1346 0.929 . S
C1359 C1351 1.433 . S
C1359 N1361 1.383 . S
N1360 C1356 1.427 . S
N1360 C1357 1.383 . S
N1361 C1353 1.427 . S
N1361 C1359 1.383 . S
H1362 C1368 0.930 . S
H1363 C1372 0.930 . S
H1364 C1377 0.929 . S
H1365 C1375 0.929 . S
H1366 C1370 0.929 . S
H1367 C1376 0.929 . S
C1368 H1362 0.930 . S
C1368 C1369 1.367 . S
C1368 C1376 1.378 . S
C1369 C1368 1.367 . S
C1369 C1377 1.433 . S
C1370 H1366 0.929 . S
C1370 C1372 1.378 . S
C1370 C1374 1.350 . S
C1371 C1374 1.463 . S
C1371 C1376 1.350 . S
C1371 N1379 1.427 . S
C1372 H1363 0.930 . S
C1372 C1370 1.378 . S
C1372 C1373 1.367 . S
C1373 C1372 1.367 . S
C1373 C1375 1.433 . S
C1374 C1370 1.350 . S
C1374 C1371 1.463 . S
C1374 N1378 1.427 . S
C1375 H1365 0.929 . S
C1375 C1373 1.433 . S
C1375 N1378 1.384 . S
C1376 H1367 0.929 . S
C1376 C1368 1.378 . S
C1376 C1371 1.350 . S
C1377 H1364 0.929 . S
C1377 C1369 1.433 . S
C1377 N1379 1.384 . S
N1378 C1374 1.427 . S
N1378 C1375 1.384 . S
N1379 C1371 1.427 . S
N1379 C1377 1.384 . S
H1380 C1386 0.930 . S
H1381 C1390 0.930 . S
H1382 C1395 0.929 . S
H1383 C1393 0.929 . S
H1384 C1388 0.929 1_655 S
H1385 C1394 0.929 1_455 S
C1386 H1380 0.930 . S
C1386 C1387 1.367 . S
C1386 C1394 1.378 . S
C1387 C1386 1.367 . S
C1387 C1395 1.433 . S
C1388 H1384 0.929 1_455 S
C1388 C1390 1.378 . S
C1388 C1392 1.350 . S
C1389 C1392 1.463 1_655 S
C1389 C1394 1.350 . S
C1389 N1397 1.427 . S
C1390 H1381 0.930 . S
C1390 C1388 1.378 . S
C1390 C1391 1.367 . S
C1391 C1390 1.367 . S
C1391 C1393 1.433 . S
C1392 C1388 1.350 . S
C1392 C1389 1.463 1_455 S
C1392 N1396 1.427 . S
C1393 H1383 0.929 . S
C1393 C1391 1.433 . S
C1393 N1396 1.384 . S
C1394 H1385 0.929 1_655 S
C1394 C1386 1.378 . S
C1394 C1389 1.350 . S
C1395 H1382 0.929 . S
C1395 C1387 1.433 . S
C1395 N1397 1.384 . S
N1396 C1392 1.427 . S
N1396 C1393 1.384 . S
N1397 C1389 1.427 . S
N1397 C1395 1.384 . S
H1398 C1404 0.930 . S
H1399 C1408 0.930 . S
H1400 C1413 0.929 . S
H1401 C1411 0.929 . S
H1402 C1406 0.929 . S
H1403 C1412 0.929 . S
C1404 H1398 0.930 . S
C1404 C1405 1.367 . S
C1404 C1412 1.378 . S
C1405 C1404 1.367 . S
C1405 C1413 1.433 . S
C1406 H1402 0.929 . S
C1406 C1408 1.378 . S
C1406 C1410 1.350 . S
C1407 C1410 1.463 . S
C1407 C1412 1.350 . S
C1407 N1415 1.427 . S
C1408 H1399 0.930 . S
C1408 C1406 1.378 . S
C1408 C1409 1.367 . S
C1409 C1408 1.367 . S
C1409 C1411 1.433 . S
C1410 C1406 1.350 . S
C1410 C1407 1.463 . S
C1410 N1414 1.427 . S
C1411 H1401 0.929 . S
C1411 C1409 1.433 . S
C1411 N1414 1.384 . S
C1412 H1403 0.929 . S
C1412 C1404 1.378 . S
C1412 C1407 1.350 . S
C1413 H1400 0.929 . S
C1413 C1405 1.433 . S
C1413 N1415 1.384 . S
N1414 C1410 1.427 . S
N1414 C1411 1.384 . S
N1415 C1407 1.427 . S
N1415 C1413 1.384 . S
H1416 C1422 0.930 . S
H1417 C1426 0.930 . S
H1418 C1431 0.929 . S
H1419 C1429 0.929 . S
H1420 C1424 0.905 1_655 S
H1421 C1430 0.905 1_455 S
C1422 H1416 0.930 . S
C1422 C1423 1.367 . S
C1422 C1430 1.395 . S
C1423 C1422 1.367 . S
C1423 C1431 1.433 . S
C1424 H1420 0.905 1_455 S
C1424 C1426 1.395 . S
C1424 C1428 1.358 . S
C1425 C1428 1.463 1_654 S
C1425 C1430 1.358 . S
C1425 N1433 1.427 . S
C1426 H1417 0.930 . S
C1426 C1424 1.395 . S
C1426 C1427 1.367 . S
C1427 C1426 1.367 . S
C1427 C1429 1.433 . S
C1428 C1424 1.358 . S
C1428 C1425 1.463 1_456 S
C1428 N1432 1.427 . S
C1429 H1419 0.929 . S
C1429 C1427 1.433 . S
C1429 N1432 1.384 . S
C1430 H1421 0.905 1_655 S
C1430 C1422 1.395 . S
C1430 C1425 1.358 . S
C1431 H1418 0.929 . S
C1431 C1423 1.433 . S
C1431 N1433 1.384 . S
N1432 C1428 1.427 . S
N1432 C1429 1.384 . S
N1433 C1425 1.427 . S
N1433 C1431 1.384 . S
H1434 C1440 0.930 . S
H1435 C1444 0.930 . S
H1436 C1449 0.929 . S
H1437 C1447 0.929 . S
H1438 C1442 0.929 . S
H1439 C1448 0.929 . S
C1440 H1434 0.930 . S
C1440 C1441 1.367 . S
C1440 C1448 1.378 . S
C1441 C1440 1.367 . S
C1441 C1449 1.433 . S
C1442 H1438 0.929 . S
C1442 C1444 1.378 . S
C1442 C1446 1.350 . S
C1443 C1446 1.463 . S
C1443 C1448 1.350 . S
C1443 N1451 1.427 . S
C1444 H1435 0.930 . S
C1444 C1442 1.378 . S
C1444 C1445 1.367 . S
C1445 C1444 1.367 . S
C1445 C1447 1.433 . S
C1446 C1442 1.350 . S
C1446 C1443 1.463 . S
C1446 N1450 1.427 . S
C1447 H1437 0.929 . S
C1447 C1445 1.433 . S
C1447 N1450 1.384 . S
C1448 H1439 0.929 . S
C1448 C1440 1.378 . S
C1448 C1443 1.350 . S
C1449 H1436 0.929 . S
C1449 C1441 1.433 . S
C1449 N1451 1.384 . S
N1450 C1446 1.427 . S
N1450 C1447 1.384 . S
N1451 C1443 1.427 . S
N1451 C1449 1.384 . S
H1452 C1458 0.930 . S
H1453 C1462 0.930 . S
H1454 C1467 0.929 . S
H1455 C1465 0.929 . S
H1456 C1460 0.929 1_455 S
H1457 C1466 0.929 1_655 S
C1458 H1452 0.930 . S
C1458 C1459 1.367 . S
C1458 C1466 1.378 . S
C1459 C1458 1.367 . S
C1459 C1467 1.433 . S
C1460 H1456 0.929 1_655 S
C1460 C1462 1.378 . S
C1460 C1464 1.350 . S
C1461 C1464 1.463 1_455 S
C1461 C1466 1.350 . S
C1461 N1469 1.427 . S
C1462 H1453 0.930 . S
C1462 C1460 1.378 . S
C1462 C1463 1.367 . S
C1463 C1462 1.367 . S
C1463 C1465 1.433 . S
C1464 C1460 1.350 . S
C1464 C1461 1.463 1_655 S
C1464 N1468 1.427 . S
C1465 H1455 0.929 . S
C1465 C1463 1.433 . S
C1465 N1468 1.384 . S
C1466 H1457 0.929 1_455 S
C1466 C1458 1.378 . S
C1466 C1461 1.350 . S
C1467 H1454 0.929 . S
C1467 C1459 1.433 . S
C1467 N1469 1.384 . S
N1468 C1464 1.427 . S
N1468 C1465 1.384 . S
N1469 C1461 1.427 . S
N1469 C1467 1.384 . S
H1470 C1476 0.930 . S
H1471 C1480 0.930 . S
H1472 C1485 0.929 . S
H1473 C1483 0.929 . S
H1474 C1478 0.929 . S
H1475 C1484 0.929 . S
C1476 H1470 0.930 . S
C1476 C1477 1.367 . S
C1476 C1484 1.378 . S
C1477 C1476 1.367 . S
C1477 C1485 1.433 . S
C1478 H1474 0.929 . S
C1478 C1480 1.378 . S
C1478 C1482 1.350 . S
C1479 C1482 1.463 . S
C1479 C1484 1.350 . S
C1479 N1487 1.427 . S
C1480 H1471 0.930 . S
C1480 C1478 1.378 . S
C1480 C1481 1.367 . S
C1481 C1480 1.367 . S
C1481 C1483 1.433 . S
C1482 C1478 1.350 . S
C1482 C1479 1.463 . S
C1482 N1486 1.427 . S
C1483 H1473 0.929 . S
C1483 C1481 1.433 . S
C1483 N1486 1.384 . S
C1484 H1475 0.929 . S
C1484 C1476 1.378 . S
C1484 C1479 1.350 . S
C1485 H1472 0.929 . S
C1485 C1477 1.433 . S
C1485 N1487 1.384 . S
N1486 C1482 1.427 . S
N1486 C1483 1.384 . S
N1487 C1479 1.427 . S
N1487 C1485 1.384 . S
H1488 C1494 0.930 . S
H1489 C1498 0.930 . S
H1490 C1503 0.929 . S
H1491 C1501 0.929 . S
H1492 C1496 0.945 . S
H1493 C1502 0.945 . S
C1494 H1488 0.930 . S
C1494 C1495 1.367 . S
C1494 C1502 1.378 . S
C1495 C1494 1.367 . S
C1495 C1503 1.433 . S
C1496 H1492 0.945 . S
C1496 C1498 1.378 . S
C1496 C1500 1.350 . S
C1497 C1500 1.463 1_665 S
C1497 C1502 1.350 . S
C1497 N1505 1.423 1_565 S
C1498 H1489 0.930 . S
C1498 C1496 1.378 . S
C1498 C1499 1.367 . S
C1499 C1498 1.367 . S
C1499 C1501 1.433 . S
C1500 C1496 1.350 . S
C1500 C1497 1.463 1_445 S
C1500 N1504 1.423 1_545 S
C1501 H1491 0.929 . S
C1501 C1499 1.433 . S
C1501 N1504 1.376 1_545 S
C1502 H1493 0.945 . S
C1502 C1494 1.378 . S
C1502 C1497 1.350 . S
C1503 H1490 0.929 . S
C1503 C1495 1.433 . S
C1503 N1505 1.376 1_565 S
N1504 C1500 1.423 1_565 S
N1504 C1501 1.376 1_565 S
N1505 C1497 1.423 1_545 S
N1505 C1503 1.376 1_545 S
H1506 C1512 0.930 . S
H1507 C1516 0.930 . S
H1508 C1521 0.929 . S
H1509 C1519 0.929 . S
H1510 C1514 0.929 . S
H1511 C1520 0.929 . S
C1512 H1506 0.930 . S
C1512 C1513 1.367 . S
C1512 C1520 1.378 . S
C1513 C1512 1.367 . S
C1513 C1521 1.433 . S
C1514 H1510 0.929 . S
C1514 C1516 1.378 . S
C1514 C1518 1.350 . S
C1515 C1518 1.463 . S
C1515 C1520 1.350 . S
C1515 N1523 1.427 . S
C1516 H1507 0.930 . S
C1516 C1514 1.378 . S
C1516 C1517 1.367 . S
C1517 C1516 1.367 . S
C1517 C1519 1.433 . S
C1518 C1514 1.350 . S
C1518 C1515 1.463 . S
C1518 N1522 1.427 . S
C1519 H1509 0.929 . S
C1519 C1517 1.433 . S
C1519 N1522 1.384 . S
C1520 H1511 0.929 . S
C1520 C1512 1.378 . S
C1520 C1515 1.350 . S
C1521 H1508 0.929 . S
C1521 C1513 1.433 . S
C1521 N1523 1.384 . S
N1522 C1518 1.427 . S
N1522 C1519 1.384 . S
N1523 C1515 1.427 . S
N1523 C1521 1.384 . S
H1524 C1530 0.930 . S
H1525 C1534 0.930 . S
H1526 C1539 0.929 . S
H1527 C1537 0.929 . S
H1528 C1532 0.929 . S
H1529 C1538 0.929 . S
C1530 H1524 0.930 . S
C1530 C1531 1.367 . S
C1530 C1538 1.378 . S
C1531 C1530 1.367 . S
C1531 C1539 1.433 . S
C1532 H1528 0.929 . S
C1532 C1534 1.378 . S
C1532 C1536 1.350 . S
C1533 C1536 1.463 1_655 S
C1533 C1538 1.350 . S
C1533 N1541 1.427 . S
C1534 H1525 0.930 . S
C1534 C1532 1.378 . S
C1534 C1535 1.367 . S
C1535 C1534 1.367 . S
C1535 C1537 1.433 . S
C1536 C1532 1.350 . S
C1536 C1533 1.463 1_455 S
C1536 N1540 1.427 . S
C1537 H1527 0.929 . S
C1537 C1535 1.433 . S
C1537 N1540 1.384 . S
C1538 H1529 0.929 . S
C1538 C1530 1.378 . S
C1538 C1533 1.350 . S
C1539 H1526 0.929 . S
C1539 C1531 1.433 . S
C1539 N1541 1.384 . S
N1540 C1536 1.427 . S
N1540 C1537 1.384 . S
N1541 C1533 1.427 . S
N1541 C1539 1.384 . S
H1542 C1548 0.930 . S
H1543 C1552 0.930 . S
H1544 C1557 0.929 . S
H1545 C1555 0.929 . S
H1546 C1550 0.929 . S
H1547 C1556 0.929 . S
C1548 H1542 0.930 . S
C1548 C1549 1.367 . S
C1548 C1556 1.378 . S
C1549 C1548 1.367 . S
C1549 C1557 1.433 . S
C1550 H1546 0.929 . S
C1550 C1552 1.378 . S
C1550 C1554 1.350 . S
C1551 C1554 1.463 . S
C1551 C1556 1.350 . S
C1551 N1559 1.427 . S
C1552 H1543 0.930 . S
C1552 C1550 1.378 . S
C1552 C1553 1.367 . S
C1553 C1552 1.367 . S
C1553 C1555 1.433 . S
C1554 C1550 1.350 . S
C1554 C1551 1.463 . S
C1554 N1558 1.427 . S
C1555 H1545 0.929 . S
C1555 C1553 1.433 . S
C1555 N1558 1.384 . S
C1556 H1547 0.929 . S
C1556 C1548 1.378 . S
C1556 C1551 1.350 . S
C1557 H1544 0.929 . S
C1557 C1549 1.433 . S
C1557 N1559 1.384 . S
N1558 C1554 1.427 . S
N1558 C1555 1.384 . S
N1559 C1551 1.427 . S
N1559 C1557 1.384 . S
H1560 C1566 0.930 . S
H1561 C1570 0.930 . S
H1562 C1575 0.929 . S
H1563 C1573 0.929 . S
H1564 C1568 0.947 . S
H1565 C1574 0.947 . S
C1566 H1560 0.930 . S
C1566 C1567 1.367 . S
C1566 C1574 1.378 . S
C1567 C1566 1.367 . S
C1567 C1575 1.433 . S
C1568 H1564 0.947 . S
C1568 C1570 1.378 . S
C1568 C1572 1.350 . S
C1569 C1572 1.463 1_465 S
C1569 C1574 1.350 . S
C1569 N1577 1.427 . S
C1570 H1561 0.930 . S
C1570 C1568 1.378 . S
C1570 C1571 1.367 . S
C1571 C1570 1.367 . S
C1571 C1573 1.433 . S
C1572 C1568 1.350 . S
C1572 C1569 1.463 1_645 S
C1572 N1576 1.427 . S
C1573 H1563 0.929 . S
C1573 C1571 1.433 . S
C1573 N1576 1.384 . S
C1574 H1565 0.947 . S
C1574 C1566 1.378 . S
C1574 C1569 1.350 . S
C1575 H1562 0.929 . S
C1575 C1567 1.433 . S
C1575 N1577 1.384 . S
N1576 C1572 1.427 . S
N1576 C1573 1.384 . S
N1577 C1569 1.427 . S
N1577 C1575 1.384 . S
H1578 C1584 0.930 . S
H1579 C1588 0.930 . S
H1580 C1593 0.929 . S
H1581 C1591 0.929 . S
H1582 C1586 0.929 . S
H1583 C1592 0.929 . S
C1584 H1578 0.930 . S
C1584 C1585 1.367 . S
C1584 C1592 1.378 . S
C1585 C1584 1.367 . S
C1585 C1593 1.433 . S
C1586 H1582 0.929 . S
C1586 C1588 1.378 . S
C1586 C1590 1.350 . S
C1587 C1590 1.463 . S
C1587 C1592 1.350 . S
C1587 N1595 1.427 . S
C1588 H1579 0.930 . S
C1588 C1586 1.378 . S
C1588 C1589 1.367 . S
C1589 C1588 1.367 . S
C1589 C1591 1.433 . S
C1590 C1586 1.350 . S
C1590 C1587 1.463 . S
C1590 N1594 1.427 . S
C1591 H1581 0.929 . S
C1591 C1589 1.433 . S
C1591 N1594 1.384 . S
C1592 H1583 0.929 . S
C1592 C1584 1.378 . S
C1592 C1587 1.350 . S
C1593 H1580 0.929 . S
C1593 C1585 1.433 . S
C1593 N1595 1.384 . S
N1594 C1590 1.427 . S
N1594 C1591 1.384 . S
N1595 C1587 1.427 . S
N1595 C1593 1.384 . S
H1596 C1602 0.930 . S
H1597 C1606 0.930 . S
H1598 C1611 0.929 . S
H1599 C1609 0.929 . S
H1600 C1604 0.929 . S
H1601 C1610 0.929 . S
C1602 H1596 0.930 . S
C1602 C1603 1.367 . S
C1602 C1610 1.378 . S
C1603 C1602 1.367 . S
C1603 C1611 1.433 . S
C1604 H1600 0.929 . S
C1604 C1606 1.378 . S
C1604 C1608 1.350 . S
C1605 C1608 1.463 1_455 S
C1605 C1610 1.350 . S
C1605 N1613 1.427 . S
C1606 H1597 0.930 . S
C1606 C1604 1.378 . S
C1606 C1607 1.367 . S
C1607 C1606 1.367 . S
C1607 C1609 1.433 . S
C1608 C1604 1.350 . S
C1608 C1605 1.463 1_655 S
C1608 N1612 1.427 . S
C1609 H1599 0.929 . S
C1609 C1607 1.433 . S
C1609 N1612 1.384 . S
C1610 H1601 0.929 . S
C1610 C1602 1.378 . S
C1610 C1605 1.350 . S
C1611 H1598 0.929 . S
C1611 C1603 1.433 . S
C1611 N1613 1.384 . S
N1612 C1608 1.427 . S
N1612 C1609 1.384 . S
N1613 C1605 1.427 . S
N1613 C1611 1.384 . S
H1614 C1620 0.930 . S
H1615 C1624 0.930 . S
H1616 C1629 0.929 . S
H1617 C1627 0.929 . S
H1618 C1622 0.929 . S
H1619 C1628 0.929 . S
C1620 H1614 0.930 . S
C1620 C1621 1.367 . S
C1620 C1628 1.378 . S
C1621 C1620 1.367 . S
C1621 C1629 1.433 . S
C1622 H1618 0.929 . S
C1622 C1624 1.378 . S
C1622 C1626 1.350 . S
C1623 C1626 1.463 . S
C1623 C1628 1.350 . S
C1623 N1631 1.427 . S
C1624 H1615 0.930 . S
C1624 C1622 1.378 . S
C1624 C1625 1.367 . S
C1625 C1624 1.367 . S
C1625 C1627 1.433 . S
C1626 C1622 1.350 . S
C1626 C1623 1.463 . S
C1626 N1630 1.427 . S
C1627 H1617 0.929 . S
C1627 C1625 1.433 . S
C1627 N1630 1.384 . S
C1628 H1619 0.929 . S
C1628 C1620 1.378 . S
C1628 C1623 1.350 . S
C1629 H1616 0.929 . S
C1629 C1621 1.433 . S
C1629 N1631 1.384 . S
N1630 C1626 1.427 . S
N1630 C1627 1.384 . S
N1631 C1623 1.427 . S
N1631 C1629 1.384 . S
H1632 C1638 0.928 1_554 S
H1633 C1642 0.928 1_556 S
H1634 C1647 0.929 . S
H1635 C1645 0.929 . S
H1636 C1640 0.929 . S
H1637 C1646 0.929 . S
C1638 H1632 0.928 1_556 S
C1638 C1639 1.367 . S
C1638 C1646 1.378 1_556 S
C1639 C1638 1.367 . S
C1639 C1647 1.433 . S
C1640 H1636 0.929 . S
C1640 C1642 1.378 1_556 S
C1640 C1644 1.350 1_556 S
C1641 C1644 1.463 1_566 S
C1641 C1646 1.350 1_556 S
C1641 N1649 1.427 . S
C1642 H1633 0.928 1_554 S
C1642 C1640 1.378 1_554 S
C1642 C1643 1.367 . S
C1643 C1642 1.367 . S
C1643 C1645 1.433 . S
C1644 C1640 1.350 1_554 S
C1644 C1641 1.463 1_544 S
C1644 N1648 1.427 . S
C1645 H1635 0.929 . S
C1645 C1643 1.433 . S
C1645 N1648 1.384 . S
C1646 H1637 0.929 . S
C1646 C1638 1.378 1_554 S
C1646 C1641 1.350 1_554 S
C1647 H1634 0.929 . S
C1647 C1639 1.433 . S
C1647 N1649 1.384 . S
N1648 C1644 1.427 . S
N1648 C1645 1.384 . S
N1649 C1641 1.427 . S
N1649 C1647 1.384 . S
H1650 C1656 0.930 . S
H1651 C1660 0.930 . S
H1652 C1665 0.929 . S
H1653 C1663 0.929 . S
H1654 C1658 0.929 . S
H1655 C1664 0.929 . S
C1656 H1650 0.930 . S
C1656 C1657 1.367 . S
C1656 C1664 1.378 . S
C1657 C1656 1.367 . S
C1657 C1665 1.433 . S
C1658 H1654 0.929 . S
C1658 C1660 1.378 . S
C1658 C1662 1.350 . S
C1659 C1662 1.463 1_545 S
C1659 C1664 1.350 . S
C1659 N1667 1.427 . S
C1660 H1651 0.930 . S
C1660 C1658 1.378 . S
C1660 C1661 1.367 . S
C1661 C1660 1.367 . S
C1661 C1663 1.433 . S
C1662 C1658 1.350 . S
C1662 C1659 1.463 1_565 S
C1662 N1666 1.427 . S
C1663 H1653 0.929 . S
C1663 C1661 1.433 . S
C1663 N1666 1.384 . S
C1664 H1655 0.929 . S
C1664 C1656 1.378 . S
C1664 C1659 1.350 . S
C1665 H1652 0.929 . S
C1665 C1657 1.433 . S
C1665 N1667 1.384 . S
N1666 C1662 1.427 . S
N1666 C1663 1.384 . S
N1667 C1659 1.427 . S
N1667 C1665 1.384 . S
H1668 C1674 0.930 . S
H1669 C1678 0.930 . S
H1670 C1683 0.929 . S
H1671 C1681 0.929 . S
H1672 C1676 0.929 . S
H1673 C1682 0.929 . S
C1674 H1668 0.930 . S
C1674 C1675 1.367 . S
C1674 C1682 1.378 . S
C1675 C1674 1.367 . S
C1675 C1683 1.433 . S
C1676 H1672 0.929 . S
C1676 C1678 1.378 . S
C1676 C1680 1.350 . S
C1677 C1680 1.463 . S
C1677 C1682 1.350 . S
C1677 N1685 1.427 . S
C1678 H1669 0.930 . S
C1678 C1676 1.378 . S
C1678 C1679 1.367 . S
C1679 C1678 1.367 . S
C1679 C1681 1.433 . S
C1680 C1676 1.350 . S
C1680 C1677 1.463 . S
C1680 N1684 1.427 . S
C1681 H1671 0.929 . S
C1681 C1679 1.433 . S
C1681 N1684 1.384 . S
C1682 H1673 0.929 . S
C1682 C1674 1.378 . S
C1682 C1677 1.350 . S
C1683 H1670 0.929 . S
C1683 C1675 1.433 . S
C1683 N1685 1.384 . S
N1684 C1680 1.427 . S
N1684 C1681 1.384 . S
N1685 C1677 1.427 . S
N1685 C1683 1.384 . S
H1686 C1692 0.930 . S
H1687 C1696 0.930 . S
H1688 C1701 0.929 . S
H1689 C1699 0.929 . S
H1690 C1694 0.929 . S
H1691 C1700 0.929 . S
C1692 H1686 0.930 . S
C1692 C1693 1.367 . S
C1692 C1700 1.378 . S
C1693 C1692 1.367 . S
C1693 C1701 1.433 . S
C1694 H1690 0.929 . S
C1694 C1696 1.378 . S
C1694 C1698 1.350 . S
C1695 C1698 1.463 1_554 S
C1695 C1700 1.350 . S
C1695 N1703 1.427 . S
C1696 H1687 0.930 . S
C1696 C1694 1.378 . S
C1696 C1697 1.367 . S
C1697 C1696 1.367 . S
C1697 C1699 1.433 . S
C1698 C1694 1.350 . S
C1698 C1695 1.463 1_556 S
C1698 N1702 1.427 . S
C1699 H1689 0.929 . S
C1699 C1697 1.433 . S
C1699 N1702 1.384 . S
C1700 H1691 0.929 . S
C1700 C1692 1.378 . S
C1700 C1695 1.350 . S
C1701 H1688 0.929 . S
C1701 C1693 1.433 . S
C1701 N1703 1.384 . S
N1702 C1698 1.427 . S
N1702 C1699 1.384 . S
N1703 C1695 1.427 . S
N1703 C1701 1.384 . S
H1704 C1710 0.930 . S
H1705 C1714 0.930 . S
H1706 C1719 0.929 . S
H1707 C1717 0.929 . S
H1708 C1712 0.929 . S
H1709 C1718 0.929 . S
C1710 H1704 0.930 . S
C1710 C1711 1.367 . S
C1710 C1718 1.378 . S
C1711 C1710 1.367 . S
C1711 C1719 1.433 . S
C1712 H1708 0.929 . S
C1712 C1714 1.378 . S
C1712 C1716 1.350 . S
C1713 C1716 1.463 . S
C1713 C1718 1.350 . S
C1713 N1721 1.427 . S
C1714 H1705 0.930 . S
C1714 C1712 1.378 . S
C1714 C1715 1.367 . S
C1715 C1714 1.367 . S
C1715 C1717 1.433 . S
C1716 C1712 1.350 . S
C1716 C1713 1.463 . S
C1716 N1720 1.427 . S
C1717 H1707 0.929 . S
C1717 C1715 1.433 . S
C1717 N1720 1.384 . S
C1718 H1709 0.929 . S
C1718 C1710 1.378 . S
C1718 C1713 1.350 . S
C1719 H1706 0.929 . S
C1719 C1711 1.433 . S
C1719 N1721 1.384 . S
N1720 C1716 1.427 . S
N1720 C1717 1.384 . S
N1721 C1713 1.427 . S
N1721 C1719 1.384 . S
H1722 C1728 0.930 . S
H1723 C1732 0.930 . S
H1724 C1737 0.929 . S
H1725 C1735 0.929 . S
H1726 C1730 0.929 . S
H1727 C1736 0.929 . S
C1728 H1722 0.930 . S
C1728 C1729 1.367 . S
C1728 C1736 1.378 . S
C1729 C1728 1.367 . S
C1729 C1737 1.433 . S
C1730 H1726 0.929 . S
C1730 C1732 1.378 . S
C1730 C1734 1.350 . S
C1731 C1734 1.463 1_564 S
C1731 C1736 1.350 . S
C1731 N1739 1.427 . S
C1732 H1723 0.930 . S
C1732 C1730 1.378 . S
C1732 C1733 1.367 . S
C1733 C1732 1.367 . S
C1733 C1735 1.433 . S
C1734 C1730 1.350 . S
C1734 C1731 1.463 1_546 S
C1734 N1738 1.427 . S
C1735 H1725 0.929 . S
C1735 C1733 1.433 . S
C1735 N1738 1.384 . S
C1736 H1727 0.929 . S
C1736 C1728 1.378 . S
C1736 C1731 1.350 . S
C1737 H1724 0.929 . S
C1737 C1729 1.433 . S
C1737 N1739 1.384 . S
N1738 C1734 1.427 . S
N1738 C1735 1.384 . S
N1739 C1731 1.427 . S
N1739 C1737 1.384 . S
H1740 C1746 0.930 . S
H1741 C1750 0.930 . S
H1742 C1755 0.929 . S
H1743 C1753 0.929 . S
H1744 C1748 0.929 . S
H1745 C1754 0.929 . S
C1746 H1740 0.930 . S
C1746 C1747 1.367 . S
C1746 C1754 1.378 . S
C1747 C1746 1.367 . S
C1747 C1755 1.433 . S
C1748 H1744 0.929 . S
C1748 C1750 1.378 . S
C1748 C1752 1.350 . S
C1749 C1752 1.463 . S
C1749 C1754 1.350 . S
C1749 N1757 1.427 . S
C1750 H1741 0.930 . S
C1750 C1748 1.378 . S
C1750 C1751 1.367 . S
C1751 C1750 1.367 . S
C1751 C1753 1.433 . S
C1752 C1748 1.350 . S
C1752 C1749 1.463 . S
C1752 N1756 1.427 . S
C1753 H1743 0.929 . S
C1753 C1751 1.433 . S
C1753 N1756 1.384 . S
C1754 H1745 0.929 . S
C1754 C1746 1.378 . S
C1754 C1749 1.350 . S
C1755 H1742 0.929 . S
C1755 C1747 1.433 . S
C1755 N1757 1.384 . S
N1756 C1752 1.427 . S
N1756 C1753 1.384 . S
N1757 C1749 1.427 . S
N1757 C1755 1.384 . S
H1758 C1764 0.930 . S
H1759 C1768 0.930 . S
H1760 C1773 0.929 . S
H1761 C1771 0.929 . S
H1762 C1766 0.929 . S
H1763 C1772 0.929 . S
C1764 H1758 0.930 . S
C1764 C1765 1.367 . S
C1764 C1772 1.378 . S
C1765 C1764 1.367 . S
C1765 C1773 1.433 . S
C1766 H1762 0.929 . S
C1766 C1768 1.378 . S
C1766 C1770 1.350 . S
C1767 C1770 1.463 . S
C1767 C1772 1.350 . S
C1767 N1775 1.427 . S
C1768 H1759 0.930 . S
C1768 C1766 1.378 . S
C1768 C1769 1.367 . S
C1769 C1768 1.367 . S
C1769 C1771 1.433 . S
C1770 C1766 1.350 . S
C1770 C1767 1.463 . S
C1770 N1774 1.427 . S
C1771 H1761 0.929 . S
C1771 C1769 1.433 . S
C1771 N1774 1.384 . S
C1772 H1763 0.929 . S
C1772 C1764 1.378 . S
C1772 C1767 1.350 . S
C1773 H1760 0.929 . S
C1773 C1765 1.433 . S
C1773 N1775 1.384 . S
N1774 C1770 1.427 . S
N1774 C1771 1.384 . S
N1775 C1767 1.427 . S
N1775 C1773 1.384 . S
H1776 C1782 0.930 . S
H1777 C1786 0.930 . S
H1778 C1791 0.929 . S
H1779 C1789 0.929 . S
H1780 C1784 0.929 . S
H1781 C1790 0.929 . S
C1782 H1776 0.930 . S
C1782 C1783 1.367 . S
C1782 C1790 1.378 . S
C1783 C1782 1.367 . S
C1783 C1791 1.433 . S
C1784 H1780 0.929 . S
C1784 C1786 1.378 . S
C1784 C1788 1.350 . S
C1785 C1788 1.463 . S
C1785 C1790 1.350 . S
C1785 N1793 1.427 . S
C1786 H1777 0.930 . S
C1786 C1784 1.378 . S
C1786 C1787 1.367 . S
C1787 C1786 1.367 . S
C1787 C1789 1.433 . S
C1788 C1784 1.350 . S
C1788 C1785 1.463 . S
C1788 N1792 1.427 . S
C1789 H1779 0.929 . S
C1789 C1787 1.433 . S
C1789 N1792 1.384 . S
C1790 H1781 0.929 . S
C1790 C1782 1.378 . S
C1790 C1785 1.350 . S
C1791 H1778 0.929 . S
C1791 C1783 1.433 . S
C1791 N1793 1.384 . S
N1792 C1788 1.427 . S
N1792 C1789 1.384 . S
N1793 C1785 1.427 . S
N1793 C1791 1.384 . S
H1794 C1800 0.930 . S
H1795 C1804 0.930 . S
H1796 C1809 0.929 . S
H1797 C1807 0.929 . S
H1798 C1802 0.929 . S
H1799 C1808 0.929 . S
C1800 H1794 0.930 . S
C1800 C1801 1.367 . S
C1800 C1808 1.378 . S
C1801 C1800 1.367 . S
C1801 C1809 1.433 . S
C1802 H1798 0.929 . S
C1802 C1804 1.378 . S
C1802 C1806 1.350 . S
C1803 C1806 1.463 . S
C1803 C1808 1.350 . S
C1803 N1811 1.427 . S
C1804 H1795 0.930 . S
C1804 C1802 1.378 . S
C1804 C1805 1.367 . S
C1805 C1804 1.367 . S
C1805 C1807 1.433 . S
C1806 C1802 1.350 . S
C1806 C1803 1.463 . S
C1806 N1810 1.427 . S
C1807 H1797 0.929 . S
C1807 C1805 1.433 . S
C1807 N1810 1.384 . S
C1808 H1799 0.929 . S
C1808 C1800 1.378 . S
C1808 C1803 1.350 . S
C1809 H1796 0.929 . S
C1809 C1801 1.433 . S
C1809 N1811 1.384 . S
N1810 C1806 1.427 . S
N1810 C1807 1.384 . S
N1811 C1803 1.427 . S
N1811 C1809 1.384 . S
H1812 C1818 0.930 . S
H1813 C1822 0.930 . S
H1814 C1827 0.929 . S
H1815 C1825 0.929 . S
H1816 C1820 0.929 . S
H1817 C1826 0.929 . S
C1818 H1812 0.930 . S
C1818 C1819 1.367 . S
C1818 C1826 1.378 . S
C1819 C1818 1.367 . S
C1819 C1827 1.433 . S
C1820 H1816 0.929 . S
C1820 C1822 1.378 . S
C1820 C1824 1.350 . S
C1821 C1824 1.463 . S
C1821 C1826 1.350 . S
C1821 N1829 1.427 . S
C1822 H1813 0.930 . S
C1822 C1820 1.378 . S
C1822 C1823 1.367 . S
C1823 C1822 1.367 . S
C1823 C1825 1.433 . S
C1824 C1820 1.350 . S
C1824 C1821 1.463 . S
C1824 N1828 1.427 . S
C1825 H1815 0.929 . S
C1825 C1823 1.433 . S
C1825 N1828 1.384 . S
C1826 H1817 0.929 . S
C1826 C1818 1.378 . S
C1826 C1821 1.350 . S
C1827 H1814 0.929 . S
C1827 C1819 1.433 . S
C1827 N1829 1.384 . S
N1828 C1824 1.427 . S
N1828 C1825 1.384 . S
N1829 C1821 1.427 . S
N1829 C1827 1.384 . S
H1830 C1836 0.930 . S
H1831 C1840 0.930 . S
H1832 C1845 0.929 . S
H1833 C1843 0.929 . S
H1834 C1838 0.929 . S
H1835 C1844 0.929 . S
C1836 H1830 0.930 . S
C1836 C1837 1.367 . S
C1836 C1844 1.378 . S
C1837 C1836 1.367 . S
C1837 C1845 1.433 . S
C1838 H1834 0.929 . S
C1838 C1840 1.378 . S
C1838 C1842 1.350 . S
C1839 C1842 1.463 . S
C1839 C1844 1.350 . S
C1839 N1847 1.427 . S
C1840 H1831 0.930 . S
C1840 C1838 1.378 . S
C1840 C1841 1.367 . S
C1841 C1840 1.367 . S
C1841 C1843 1.433 . S
C1842 C1838 1.350 . S
C1842 C1839 1.463 . S
C1842 N1846 1.427 . S
C1843 H1833 0.929 . S
C1843 C1841 1.433 . S
C1843 N1846 1.384 . S
C1844 H1835 0.929 . S
C1844 C1836 1.378 . S
C1844 C1839 1.350 . S
C1845 H1832 0.929 . S
C1845 C1837 1.433 . S
C1845 N1847 1.384 . S
N1846 C1842 1.427 . S
N1846 C1843 1.384 . S
N1847 C1839 1.427 . S
N1847 C1845 1.384 . S
H1848 C1854 0.930 . S
H1849 C1858 0.930 . S
H1850 C1863 0.929 . S
H1851 C1861 0.929 . S
H1852 C1856 0.929 . S
H1853 C1862 0.929 . S
C1854 H1848 0.930 . S
C1854 C1855 1.367 . S
C1854 C1862 1.378 . S
C1855 C1854 1.367 . S
C1855 C1863 1.433 . S
C1856 H1852 0.929 . S
C1856 C1858 1.378 . S
C1856 C1860 1.350 . S
C1857 C1860 1.463 . S
C1857 C1862 1.350 . S
C1857 N1865 1.427 . S
C1858 H1849 0.930 . S
C1858 C1856 1.378 . S
C1858 C1859 1.367 . S
C1859 C1858 1.367 . S
C1859 C1861 1.433 . S
C1860 C1856 1.350 . S
C1860 C1857 1.463 . S
C1860 N1864 1.427 . S
C1861 H1851 0.929 . S
C1861 C1859 1.433 . S
C1861 N1864 1.384 . S
C1862 H1853 0.929 . S
C1862 C1854 1.378 . S
C1862 C1857 1.350 . S
C1863 H1850 0.929 . S
C1863 C1855 1.433 . S
C1863 N1865 1.384 . S
N1864 C1860 1.427 . S
N1864 C1861 1.384 . S
N1865 C1857 1.427 . S
N1865 C1863 1.384 . S
H1866 C1872 0.930 . S
H1867 C1876 0.930 . S
H1868 C1881 0.929 . S
H1869 C1879 0.929 . S
H1870 C1874 0.929 . S
H1871 C1880 0.929 . S
C1872 H1866 0.930 . S
C1872 C1873 1.367 . S
C1872 C1880 1.378 . S
C1873 C1872 1.367 . S
C1873 C1881 1.433 . S
C1874 H1870 0.929 . S
C1874 C1876 1.378 . S
C1874 C1878 1.350 . S
C1875 C1878 1.463 . S
C1875 C1880 1.350 . S
C1875 N1883 1.427 . S
C1876 H1867 0.930 . S
C1876 C1874 1.378 . S
C1876 C1877 1.367 . S
C1877 C1876 1.367 . S
C1877 C1879 1.433 . S
C1878 C1874 1.350 . S
C1878 C1875 1.463 . S
C1878 N1882 1.427 . S
C1879 H1869 0.929 . S
C1879 C1877 1.433 . S
C1879 N1882 1.384 . S
C1880 H1871 0.929 . S
C1880 C1872 1.378 . S
C1880 C1875 1.350 . S
C1881 H1868 0.929 . S
C1881 C1873 1.433 . S
C1881 N1883 1.384 . S
N1882 C1878 1.427 . S
N1882 C1879 1.384 . S
N1883 C1875 1.427 . S
N1883 C1881 1.384 . S
H1884 C1890 0.930 . S
H1885 C1894 0.930 . S
H1886 C1899 0.929 . S
H1887 C1897 0.929 . S
H1888 C1892 0.929 . S
H1889 C1898 0.929 . S
C1890 H1884 0.930 . S
C1890 C1891 1.367 . S
C1890 C1898 1.378 . S
C1891 C1890 1.367 . S
C1891 C1899 1.433 . S
C1892 H1888 0.929 . S
C1892 C1894 1.378 . S
C1892 C1896 1.350 . S
C1893 C1896 1.463 . S
C1893 C1898 1.350 . S
C1893 N1901 1.427 . S
C1894 H1885 0.930 . S
C1894 C1892 1.378 . S
C1894 C1895 1.367 . S
C1895 C1894 1.367 . S
C1895 C1897 1.433 . S
C1896 C1892 1.350 . S
C1896 C1893 1.463 . S
C1896 N1900 1.427 . S
C1897 H1887 0.929 . S
C1897 C1895 1.433 . S
C1897 N1900 1.384 . S
C1898 H1889 0.929 . S
C1898 C1890 1.378 . S
C1898 C1893 1.350 . S
C1899 H1886 0.929 . S
C1899 C1891 1.433 . S
C1899 N1901 1.384 . S
N1900 C1896 1.427 . S
N1900 C1897 1.384 . S
N1901 C1893 1.427 . S
N1901 C1899 1.384 . S
H1902 C1908 0.930 . S
H1903 C1912 0.930 . S
H1904 C1917 0.929 . S
H1905 C1915 0.929 . S
H1906 C1910 0.929 . S
H1907 C1916 0.929 . S
C1908 H1902 0.930 . S
C1908 C1909 1.367 . S
C1908 C1916 1.378 . S
C1909 C1908 1.367 . S
C1909 C1917 1.433 . S
C1910 H1906 0.929 . S
C1910 C1912 1.378 . S
C1910 C1914 1.350 . S
C1911 C1914 1.463 . S
C1911 C1916 1.350 . S
C1911 N1919 1.427 . S
C1912 H1903 0.930 . S
C1912 C1910 1.378 . S
C1912 C1913 1.367 . S
C1913 C1912 1.367 . S
C1913 C1915 1.433 . S
C1914 C1910 1.350 . S
C1914 C1911 1.463 . S
C1914 N1918 1.427 . S
C1915 H1905 0.929 . S
C1915 C1913 1.433 . S
C1915 N1918 1.384 . S
C1916 H1907 0.929 . S
C1916 C1908 1.378 . S
C1916 C1911 1.350 . S
C1917 H1904 0.929 . S
C1917 C1909 1.433 . S
C1917 N1919 1.384 . S
N1918 C1914 1.427 . S
N1918 C1915 1.384 . S
N1919 C1911 1.427 . S
N1919 C1917 1.384 . S
H1920 C1926 0.930 . S
H1921 C1930 0.930 . S
H1922 C1935 0.929 . S
H1923 C1933 0.929 . S
H1924 C1928 0.929 . S
H1925 C1934 0.929 . S
C1926 H1920 0.930 . S
C1926 C1927 1.367 . S
C1926 C1934 1.378 . S
C1927 C1926 1.367 . S
C1927 C1935 1.433 . S
C1928 H1924 0.929 . S
C1928 C1930 1.378 . S
C1928 C1932 1.350 . S
C1929 C1932 1.463 . S
C1929 C1934 1.350 . S
C1929 N1937 1.427 . S
C1930 H1921 0.930 . S
C1930 C1928 1.378 . S
C1930 C1931 1.367 . S
C1931 C1930 1.367 . S
C1931 C1933 1.433 . S
C1932 C1928 1.350 . S
C1932 C1929 1.463 . S
C1932 N1936 1.427 . S
C1933 H1923 0.929 . S
C1933 C1931 1.433 . S
C1933 N1936 1.384 . S
C1934 H1925 0.929 . S
C1934 C1926 1.378 . S
C1934 C1929 1.350 . S
C1935 H1922 0.929 . S
C1935 C1927 1.433 . S
C1935 N1937 1.384 . S
N1936 C1932 1.427 . S
N1936 C1933 1.384 . S
N1937 C1929 1.427 . S
N1937 C1935 1.384 . S
H1938 C1944 0.919 1_554 S
H1939 C1948 0.919 1_556 S
H1940 C1953 0.929 . S
H1941 C1951 0.929 . S
H1942 C1946 0.929 . S
H1943 C1952 0.929 . S
C1944 H1938 0.919 1_556 S
C1944 C1945 1.367 . S
C1944 C1952 1.378 1_556 S
C1945 C1944 1.367 . S
C1945 C1953 1.433 . S
C1946 H1942 0.929 . S
C1946 C1948 1.378 1_556 S
C1946 C1950 1.350 1_556 S
C1947 C1950 1.463 1_556 S
C1947 C1952 1.350 1_556 S
C1947 N1955 1.427 . S
C1948 H1939 0.919 1_554 S
C1948 C1946 1.378 1_554 S
C1948 C1949 1.367 . S
C1949 C1948 1.367 . S
C1949 C1951 1.433 . S
C1950 C1946 1.350 1_554 S
C1950 C1947 1.463 1_554 S
C1950 N1954 1.427 . S
C1951 H1941 0.929 . S
C1951 C1949 1.433 . S
C1951 N1954 1.384 . S
C1952 H1943 0.929 . S
C1952 C1944 1.378 1_554 S
C1952 C1947 1.350 1_554 S
C1953 H1940 0.929 . S
C1953 C1945 1.433 . S
C1953 N1955 1.384 . S
N1954 C1950 1.427 . S
N1954 C1951 1.384 . S
N1955 C1947 1.427 . S
N1955 C1953 1.384 . S
H1956 C1962 0.930 . S
H1957 C1966 0.930 . S
H1958 C1971 0.929 . S
H1959 C1969 0.929 . S
H1960 C1964 0.929 . S
H1961 C1970 0.929 . S
C1962 H1956 0.930 . S
C1962 C1963 1.367 . S
C1962 C1970 1.378 . S
C1963 C1962 1.367 . S
C1963 C1971 1.433 . S
C1964 H1960 0.929 . S
C1964 C1966 1.378 . S
C1964 C1968 1.350 . S
C1965 C1968 1.463 . S
C1965 C1970 1.350 . S
C1965 N1973 1.427 . S
C1966 H1957 0.930 . S
C1966 C1964 1.378 . S
C1966 C1967 1.367 . S
C1967 C1966 1.367 . S
C1967 C1969 1.433 . S
C1968 C1964 1.350 . S
C1968 C1965 1.463 . S
C1968 N1972 1.427 . S
C1969 H1959 0.929 . S
C1969 C1967 1.433 . S
C1969 N1972 1.384 . S
C1970 H1961 0.929 . S
C1970 C1962 1.378 . S
C1970 C1965 1.350 . S
C1971 H1958 0.929 . S
C1971 C1963 1.433 . S
C1971 N1973 1.384 . S
N1972 C1968 1.427 . S
N1972 C1969 1.384 . S
N1973 C1965 1.427 . S
N1973 C1971 1.384 . S
H1974 C1980 0.930 . S
H1975 C1984 0.930 . S
H1976 C1989 0.929 . S
H1977 C1987 0.929 . S
H1978 C1982 0.929 . S
H1979 C1988 0.929 . S
C1980 H1974 0.930 . S
C1980 C1981 1.367 . S
C1980 C1988 1.378 . S
C1981 C1980 1.367 . S
C1981 C1989 1.433 . S
C1982 H1978 0.929 . S
C1982 C1984 1.378 . S
C1982 C1986 1.350 . S
C1983 C1986 1.463 1_565 S
C1983 C1988 1.350 . S
C1983 N1991 1.427 . S
C1984 H1975 0.930 . S
C1984 C1982 1.378 . S
C1984 C1985 1.367 . S
C1985 C1984 1.367 . S
C1985 C1987 1.433 . S
C1986 C1982 1.350 . S
C1986 C1983 1.463 1_545 S
C1986 N1990 1.427 . S
C1987 H1977 0.929 . S
C1987 C1985 1.433 . S
C1987 N1990 1.384 . S
C1988 H1979 0.929 . S
C1988 C1980 1.378 . S
C1988 C1983 1.350 . S
C1989 H1976 0.929 . S
C1989 C1981 1.433 . S
C1989 N1991 1.384 . S
N1990 C1986 1.427 . S
N1990 C1987 1.384 . S
N1991 C1983 1.427 . S
N1991 C1989 1.384 . S
H1992 C1998 0.930 . S
H1993 C2002 0.930 . S
H1994 C2007 0.929 . S
H1995 C2005 0.929 . S
H1996 C2000 0.929 . S
H1997 C2006 0.929 . S
C1998 H1992 0.930 . S
C1998 C1999 1.367 . S
C1998 C2006 1.378 . S
C1999 C1998 1.367 . S
C1999 C2007 1.433 . S
C2000 H1996 0.929 . S
C2000 C2002 1.378 . S
C2000 C2004 1.350 . S
C2001 C2004 1.463 . S
C2001 C2006 1.350 . S
C2001 N2009 1.427 . S
C2002 H1993 0.930 . S
C2002 C2000 1.378 . S
C2002 C2003 1.367 . S
C2003 C2002 1.367 . S
C2003 C2005 1.433 . S
C2004 C2000 1.350 . S
C2004 C2001 1.463 . S
C2004 N2008 1.427 . S
C2005 H1995 0.929 . S
C2005 C2003 1.433 . S
C2005 N2008 1.384 . S
C2006 H1997 0.929 . S
C2006 C1998 1.378 . S
C2006 C2001 1.350 . S
C2007 H1994 0.929 . S
C2007 C1999 1.433 . S
C2007 N2009 1.384 . S
N2008 C2004 1.427 . S
N2008 C2005 1.384 . S
N2009 C2001 1.427 . S
N2009 C2007 1.384 . S
H2010 C2016 0.930 . S
H2011 C2020 0.930 . S
H2012 C2025 0.929 . S
H2013 C2023 0.929 . S
H2014 C2018 0.929 . S
H2015 C2024 0.929 . S
C2016 H2010 0.930 . S
C2016 C2017 1.367 . S
C2016 C2024 1.378 . S
C2017 C2016 1.367 . S
C2017 C2025 1.433 . S
C2018 H2014 0.929 . S
C2018 C2020 1.378 . S
C2018 C2022 1.350 . S
C2019 C2022 1.463 . S
C2019 C2024 1.350 . S
C2019 N2027 1.427 . S
C2020 H2011 0.930 . S
C2020 C2018 1.378 . S
C2020 C2021 1.367 . S
C2021 C2020 1.367 . S
C2021 C2023 1.433 . S
C2022 C2018 1.350 . S
C2022 C2019 1.463 . S
C2022 N2026 1.427 . S
C2023 H2013 0.929 . S
C2023 C2021 1.433 . S
C2023 N2026 1.384 . S
C2024 H2015 0.929 . S
C2024 C2016 1.378 . S
C2024 C2019 1.350 . S
C2025 H2012 0.929 . S
C2025 C2017 1.433 . S
C2025 N2027 1.384 . S
N2026 C2022 1.427 . S
N2026 C2023 1.384 . S
N2027 C2019 1.427 . S
N2027 C2025 1.384 . S
H2028 C2034 0.930 . S
H2029 C2038 0.930 . S
H2030 C2043 0.929 . S
H2031 C2041 0.929 . S
H2032 C2036 0.929 . S
H2033 C2042 0.929 . S
C2034 H2028 0.930 . S
C2034 C2035 1.367 . S
C2034 C2042 1.378 . S
C2035 C2034 1.367 . S
C2035 C2043 1.433 . S
C2036 H2032 0.929 . S
C2036 C2038 1.378 . S
C2036 C2040 1.350 . S
C2037 C2040 1.463 . S
C2037 C2042 1.350 . S
C2037 N2045 1.427 . S
C2038 H2029 0.930 . S
C2038 C2036 1.378 . S
C2038 C2039 1.367 . S
C2039 C2038 1.367 . S
C2039 C2041 1.433 . S
C2040 C2036 1.350 . S
C2040 C2037 1.463 . S
C2040 N2044 1.427 . S
C2041 H2031 0.929 . S
C2041 C2039 1.433 . S
C2041 N2044 1.384 . S
C2042 H2033 0.929 . S
C2042 C2034 1.378 . S
C2042 C2037 1.350 . S
C2043 H2030 0.929 . S
C2043 C2035 1.433 . S
C2043 N2045 1.384 . S
N2044 C2040 1.427 . S
N2044 C2041 1.384 . S
N2045 C2037 1.427 . S
N2045 C2043 1.384 . S
H2046 C2052 0.930 . S
H2047 C2056 0.930 . S
H2048 C2061 0.929 . S
H2049 C2059 0.929 . S
H2050 C2054 0.929 . S
H2051 C2060 0.929 . S
C2052 H2046 0.930 . S
C2052 C2053 1.367 . S
C2052 C2060 1.378 . S
C2053 C2052 1.367 . S
C2053 C2061 1.433 . S
C2054 H2050 0.929 . S
C2054 C2056 1.378 . S
C2054 C2058 1.350 . S
C2055 C2058 1.463 1_556 S
C2055 C2060 1.350 . S
C2055 N2063 1.427 . S
C2056 H2047 0.930 . S
C2056 C2054 1.378 . S
C2056 C2057 1.367 . S
C2057 C2056 1.367 . S
C2057 C2059 1.433 . S
C2058 C2054 1.350 . S
C2058 C2055 1.463 1_554 S
C2058 N2062 1.427 . S
C2059 H2049 0.929 . S
C2059 C2057 1.433 . S
C2059 N2062 1.384 . S
C2060 H2051 0.929 . S
C2060 C2052 1.378 . S
C2060 C2055 1.350 . S
C2061 H2048 0.929 . S
C2061 C2053 1.433 . S
C2061 N2063 1.384 . S
N2062 C2058 1.427 . S
N2062 C2059 1.384 . S
N2063 C2055 1.427 . S
N2063 C2061 1.384 . S
H2064 C2070 0.930 . S
H2065 C2074 0.930 . S
H2066 C2079 0.929 . S
H2067 C2077 0.929 . S
H2068 C2072 0.929 . S
H2069 C2078 0.929 . S
C2070 H2064 0.930 . S
C2070 C2071 1.367 . S
C2070 C2078 1.378 . S
C2071 C2070 1.367 . S
C2071 C2079 1.433 . S
C2072 H2068 0.929 . S
C2072 C2074 1.378 . S
C2072 C2076 1.350 . S
C2073 C2076 1.463 . S
C2073 C2078 1.350 . S
C2073 N2081 1.427 . S
C2074 H2065 0.930 . S
C2074 C2072 1.378 . S
C2074 C2075 1.367 . S
C2075 C2074 1.367 . S
C2075 C2077 1.433 . S
C2076 C2072 1.350 . S
C2076 C2073 1.463 . S
C2076 N2080 1.427 . S
C2077 H2067 0.929 . S
C2077 C2075 1.433 . S
C2077 N2080 1.384 . S
C2078 H2069 0.929 . S
C2078 C2070 1.378 . S
C2078 C2073 1.350 . S
C2079 H2066 0.929 . S
C2079 C2071 1.433 . S
C2079 N2081 1.384 . S
N2080 C2076 1.427 . S
N2080 C2077 1.384 . S
N2081 C2073 1.427 . S
N2081 C2079 1.384 . S
H2082 C2088 0.930 . S
H2083 C2092 0.930 . S
H2084 C2097 0.929 . S
H2085 C2095 0.929 . S
H2086 C2090 0.929 . S
H2087 C2096 0.929 . S
C2088 H2082 0.930 . S
C2088 C2089 1.367 . S
C2088 C2096 1.378 . S
C2089 C2088 1.367 . S
C2089 C2097 1.433 . S
C2090 H2086 0.929 . S
C2090 C2092 1.378 . S
C2090 C2094 1.350 . S
C2091 C2094 1.463 1_556 S
C2091 C2096 1.350 . S
C2091 N2099 1.427 . S
C2092 H2083 0.930 . S
C2092 C2090 1.378 . S
C2092 C2093 1.367 . S
C2093 C2092 1.367 . S
C2093 C2095 1.433 . S
C2094 C2090 1.350 . S
C2094 C2091 1.463 1_554 S
C2094 N2098 1.427 . S
C2095 H2085 0.929 . S
C2095 C2093 1.433 . S
C2095 N2098 1.384 . S
C2096 H2087 0.929 . S
C2096 C2088 1.378 . S
C2096 C2091 1.350 . S
C2097 H2084 0.929 . S
C2097 C2089 1.433 . S
C2097 N2099 1.384 . S
N2098 C2094 1.427 . S
N2098 C2095 1.384 . S
N2099 C2091 1.427 . S
N2099 C2097 1.384 . S
H2100 C2106 0.930 . S
H2101 C2110 0.930 . S
H2102 C2115 0.929 . S
H2103 C2113 0.929 . S
H2104 C2108 0.929 . S
H2105 C2114 0.929 . S
C2106 H2100 0.930 . S
C2106 C2107 1.367 . S
C2106 C2114 1.378 . S
C2107 C2106 1.367 . S
C2107 C2115 1.433 . S
C2108 H2104 0.929 . S
C2108 C2110 1.378 . S
C2108 C2112 1.350 . S
C2109 C2112 1.463 1_565 S
C2109 C2114 1.350 . S
C2109 N2117 1.427 . S
C2110 H2101 0.930 . S
C2110 C2108 1.378 . S
C2110 C2111 1.367 . S
C2111 C2110 1.367 . S
C2111 C2113 1.433 . S
C2112 C2108 1.350 . S
C2112 C2109 1.463 1_545 S
C2112 N2116 1.427 . S
C2113 H2103 0.929 . S
C2113 C2111 1.433 . S
C2113 N2116 1.384 . S
C2114 H2105 0.929 . S
C2114 C2106 1.378 . S
C2114 C2109 1.350 . S
C2115 H2102 0.929 . S
C2115 C2107 1.433 . S
C2115 N2117 1.384 . S
N2116 C2112 1.427 . S
N2116 C2113 1.384 . S
N2117 C2109 1.427 . S
N2117 C2115 1.384 . S
H2118 C2124 0.930 . S
H2119 C2128 0.930 . S
H2120 C2133 0.929 . S
H2121 C2131 0.929 . S
H2122 C2126 0.929 . S
H2123 C2132 0.929 . S
C2124 H2118 0.930 . S
C2124 C2125 1.367 . S
C2124 C2132 1.378 . S
C2125 C2124 1.367 . S
C2125 C2133 1.433 . S
C2126 H2122 0.929 . S
C2126 C2128 1.378 . S
C2126 C2130 1.350 . S
C2127 C2130 1.463 . S
C2127 C2132 1.350 . S
C2127 N2135 1.427 . S
C2128 H2119 0.930 . S
C2128 C2126 1.378 . S
C2128 C2129 1.367 . S
C2129 C2128 1.367 . S
C2129 C2131 1.433 . S
C2130 C2126 1.350 . S
C2130 C2127 1.463 . S
C2130 N2134 1.427 . S
C2131 H2121 0.929 . S
C2131 C2129 1.433 . S
C2131 N2134 1.384 . S
C2132 H2123 0.929 . S
C2132 C2124 1.378 . S
C2132 C2127 1.350 . S
C2133 H2120 0.929 . S
C2133 C2125 1.433 . S
C2133 N2135 1.384 . S
N2134 C2130 1.427 . S
N2134 C2131 1.384 . S
N2135 C2127 1.427 . S
N2135 C2133 1.384 . S
H2136 C2142 0.930 . S
H2137 C2146 0.930 . S
H2138 C2151 0.929 . S
H2139 C2149 0.929 . S
H2140 C2144 0.929 . S
H2141 C2150 0.929 . S
C2142 H2136 0.930 . S
C2142 C2143 1.367 . S
C2142 C2150 1.378 . S
C2143 C2142 1.367 . S
C2143 C2151 1.433 . S
C2144 H2140 0.929 . S
C2144 C2146 1.378 . S
C2144 C2148 1.350 . S
C2145 C2148 1.463 1_565 S
C2145 C2150 1.350 . S
C2145 N2153 1.427 . S
C2146 H2137 0.930 . S
C2146 C2144 1.378 . S
C2146 C2147 1.367 . S
C2147 C2146 1.367 . S
C2147 C2149 1.433 . S
C2148 C2144 1.350 . S
C2148 C2145 1.463 1_545 S
C2148 N2152 1.427 . S
C2149 H2139 0.929 . S
C2149 C2147 1.433 . S
C2149 N2152 1.384 . S
C2150 H2141 0.929 . S
C2150 C2142 1.378 . S
C2150 C2145 1.350 . S
C2151 H2138 0.929 . S
C2151 C2143 1.433 . S
C2151 N2153 1.384 . S
N2152 C2148 1.427 . S
N2152 C2149 1.384 . S
N2153 C2145 1.427 . S
N2153 C2151 1.384 . S
H2154 C2160 0.930 . S
H2155 C2164 0.930 . S
H2156 C2169 0.929 . S
H2157 C2167 0.929 . S
H2158 C2162 0.929 . S
H2159 C2168 0.929 . S
C2160 H2154 0.930 . S
C2160 C2161 1.367 . S
C2160 C2168 1.378 . S
C2161 C2160 1.367 . S
C2161 C2169 1.433 . S
C2162 H2158 0.929 . S
C2162 C2164 1.378 . S
C2162 C2166 1.350 . S
C2163 C2166 1.463 . S
C2163 C2168 1.350 . S
C2163 N2171 1.427 . S
C2164 H2155 0.930 . S
C2164 C2162 1.378 . S
C2164 C2165 1.367 . S
C2165 C2164 1.367 . S
C2165 C2167 1.433 . S
C2166 C2162 1.350 . S
C2166 C2163 1.463 . S
C2166 N2170 1.427 . S
C2167 H2157 0.929 . S
C2167 C2165 1.433 . S
C2167 N2170 1.384 . S
C2168 H2159 0.929 . S
C2168 C2160 1.378 . S
C2168 C2163 1.350 . S
C2169 H2156 0.929 . S
C2169 C2161 1.433 . S
C2169 N2171 1.384 . S
N2170 C2166 1.427 . S
N2170 C2167 1.384 . S
N2171 C2163 1.427 . S
N2171 C2169 1.384 . S
H2172 C2178 0.930 . S
H2173 C2182 0.930 . S
H2174 C2187 0.929 . S
H2175 C2185 0.929 . S
H2176 C2180 0.929 . S
H2177 C2186 0.929 . S
C2178 H2172 0.930 . S
C2178 C2179 1.367 . S
C2178 C2186 1.378 . S
C2179 C2178 1.367 . S
C2179 C2187 1.433 . S
C2180 H2176 0.929 . S
C2180 C2182 1.378 . S
C2180 C2184 1.350 . S
C2181 C2184 1.463 . S
C2181 C2186 1.350 . S
C2181 N2189 1.427 . S
C2182 H2173 0.930 . S
C2182 C2180 1.378 . S
C2182 C2183 1.367 . S
C2183 C2182 1.367 . S
C2183 C2185 1.433 . S
C2184 C2180 1.350 . S
C2184 C2181 1.463 . S
C2184 N2188 1.427 . S
C2185 H2175 0.929 . S
C2185 C2183 1.433 . S
C2185 N2188 1.384 . S
C2186 H2177 0.929 . S
C2186 C2178 1.378 . S
C2186 C2181 1.350 . S
C2187 H2174 0.929 . S
C2187 C2179 1.433 . S
C2187 N2189 1.384 . S
N2188 C2184 1.427 . S
N2188 C2185 1.384 . S
N2189 C2181 1.427 . S
N2189 C2187 1.384 . S
H2190 C2196 0.930 . S
H2191 C2200 0.930 . S
H2192 C2205 0.929 . S
H2193 C2203 0.929 . S
H2194 C2198 0.929 . S
H2195 C2204 0.929 . S
C2196 H2190 0.930 . S
C2196 C2197 1.367 . S
C2196 C2204 1.378 . S
C2197 C2196 1.367 . S
C2197 C2205 1.433 . S
C2198 H2194 0.929 . S
C2198 C2200 1.378 . S
C2198 C2202 1.350 . S
C2199 C2202 1.463 . S
C2199 C2204 1.350 . S
C2199 N2207 1.427 . S
C2200 H2191 0.930 . S
C2200 C2198 1.378 . S
C2200 C2201 1.367 . S
C2201 C2200 1.367 . S
C2201 C2203 1.433 . S
C2202 C2198 1.350 . S
C2202 C2199 1.463 . S
C2202 N2206 1.427 . S
C2203 H2193 0.929 . S
C2203 C2201 1.433 . S
C2203 N2206 1.384 . S
C2204 H2195 0.929 . S
C2204 C2196 1.378 . S
C2204 C2199 1.350 . S
C2205 H2192 0.929 . S
C2205 C2197 1.433 . S
C2205 N2207 1.384 . S
N2206 C2202 1.427 . S
N2206 C2203 1.384 . S
N2207 C2199 1.427 . S
N2207 C2205 1.384 . S
H2208 C2214 0.930 . S
H2209 C2218 0.930 . S
H2210 C2223 0.929 . S
H2211 C2221 0.929 . S
H2212 C2216 0.929 1_455 S
H2213 C2222 0.929 . S
C2214 H2208 0.930 . S
C2214 C2215 1.367 . S
C2214 C2222 1.378 1_455 S
C2215 C2214 1.367 . S
C2215 C2223 1.433 . S
C2216 H2212 0.929 1_655 S
C2216 C2218 1.378 . S
C2216 C2220 1.350 . S
C2217 C2220 1.463 1_455 S
C2217 C2222 1.350 1_455 S
C2217 N2225 1.427 . S
C2218 H2209 0.930 . S
C2218 C2216 1.378 . S
C2218 C2219 1.367 . S
C2219 C2218 1.367 . S
C2219 C2221 1.433 . S
C2220 C2216 1.350 . S
C2220 C2217 1.463 1_655 S
C2220 N2224 1.427 . S
C2221 H2211 0.929 . S
C2221 C2219 1.433 . S
C2221 N2224 1.384 . S
C2222 H2213 0.929 . S
C2222 C2214 1.378 1_655 S
C2222 C2217 1.350 1_655 S
C2223 H2210 0.929 . S
C2223 C2215 1.433 . S
C2223 N2225 1.384 . S
N2224 C2220 1.427 . S
N2224 C2221 1.384 . S
N2225 C2217 1.427 . S
N2225 C2223 1.384 . S
H2226 C2232 0.930 . S
H2227 C2236 0.930 . S
H2228 C2241 0.929 . S
H2229 C2239 0.929 . S
H2230 C2234 0.929 . S
H2231 C2240 0.929 . S
C2232 H2226 0.930 . S
C2232 C2233 1.367 . S
C2232 C2240 1.378 . S
C2233 C2232 1.367 . S
C2233 C2241 1.433 . S
C2234 H2230 0.929 . S
C2234 C2236 1.378 . S
C2234 C2238 1.350 . S
C2235 C2238 1.463 1_655 S
C2235 C2240 1.350 . S
C2235 N2243 1.427 . S
C2236 H2227 0.930 . S
C2236 C2234 1.378 . S
C2236 C2237 1.367 . S
C2237 C2236 1.367 . S
C2237 C2239 1.433 . S
C2238 C2234 1.350 . S
C2238 C2235 1.463 1_455 S
C2238 N2242 1.427 1_455 S
C2239 H2229 0.929 . S
C2239 C2237 1.433 . S
C2239 N2242 1.384 1_455 S
C2240 H2231 0.929 . S
C2240 C2232 1.378 . S
C2240 C2235 1.350 . S
C2241 H2228 0.929 . S
C2241 C2233 1.433 . S
C2241 N2243 1.384 . S
N2242 C2238 1.427 1_655 S
N2242 C2239 1.384 1_655 S
N2243 C2235 1.427 . S
N2243 C2241 1.384 . S
H2244 C2250 0.930 . S
H2245 C2254 0.930 . S
H2246 C2259 0.929 . S
H2247 C2257 0.929 . S
H2248 C2252 0.929 . S
H2249 C2258 0.929 . S
C2250 H2244 0.930 . S
C2250 C2251 1.367 . S
C2250 C2258 1.378 . S
C2251 C2250 1.367 . S
C2251 C2259 1.433 . S
C2252 H2248 0.929 . S
C2252 C2254 1.378 . S
C2252 C2256 1.350 . S
C2253 C2256 1.463 1_655 S
C2253 C2258 1.350 . S
C2253 N2261 1.427 . S
C2254 H2245 0.930 . S
C2254 C2252 1.378 . S
C2254 C2255 1.367 . S
C2255 C2254 1.367 . S
C2255 C2257 1.433 . S
C2256 C2252 1.350 . S
C2256 C2253 1.463 1_455 S
C2256 N2260 1.427 . S
C2257 H2247 0.929 . S
C2257 C2255 1.433 . S
C2257 N2260 1.384 . S
C2258 H2249 0.929 . S
C2258 C2250 1.378 . S
C2258 C2253 1.350 . S
C2259 H2246 0.929 . S
C2259 C2251 1.433 . S
C2259 N2261 1.384 . S
N2260 C2256 1.427 . S
N2260 C2257 1.384 . S
N2261 C2253 1.427 . S
N2261 C2259 1.384 . S
H2262 C2268 0.930 . S
H2263 C2272 0.930 . S
H2264 C2277 0.929 . S
H2265 C2275 0.929 . S
H2266 C2270 0.929 . S
H2267 C2276 0.929 . S
C2268 H2262 0.930 . S
C2268 C2269 1.367 . S
C2268 C2276 1.378 . S
C2269 C2268 1.367 . S
C2269 C2277 1.433 . S
C2270 H2266 0.929 . S
C2270 C2272 1.378 . S
C2270 C2274 1.350 . S
C2271 C2274 1.463 1_655 S
C2271 C2276 1.350 . S
C2271 N2279 1.427 . S
C2272 H2263 0.930 . S
C2272 C2270 1.378 . S
C2272 C2273 1.367 . S
C2273 C2272 1.367 . S
C2273 C2275 1.433 . S
C2274 C2270 1.350 . S
C2274 C2271 1.463 1_455 S
C2274 N2278 1.427 . S
C2275 H2265 0.929 . S
C2275 C2273 1.433 . S
C2275 N2278 1.384 . S
C2276 H2267 0.929 . S
C2276 C2268 1.378 . S
C2276 C2271 1.350 . S
C2277 H2264 0.929 . S
C2277 C2269 1.433 . S
C2277 N2279 1.384 . S
N2278 C2274 1.427 . S
N2278 C2275 1.384 . S
N2279 C2271 1.427 . S
N2279 C2277 1.384 . S
H2280 C2286 0.930 . S
H2281 C2290 0.930 . S
H2282 C2295 0.929 . S
H2283 C2293 0.929 . S
H2284 C2288 0.929 1_455 S
H2285 C2294 0.929 . S
C2286 H2280 0.930 . S
C2286 C2287 1.367 . S
C2286 C2294 1.378 1_455 S
C2287 C2286 1.367 . S
C2287 C2295 1.433 . S
C2288 H2284 0.929 1_655 S
C2288 C2290 1.378 . S
C2288 C2292 1.350 . S
C2289 C2292 1.463 1_455 S
C2289 C2294 1.350 1_455 S
C2289 N2297 1.427 . S
C2290 H2281 0.930 . S
C2290 C2288 1.378 . S
C2290 C2291 1.367 . S
C2291 C2290 1.367 . S
C2291 C2293 1.433 . S
C2292 C2288 1.350 . S
C2292 C2289 1.463 1_655 S
C2292 N2296 1.427 . S
C2293 H2283 0.929 . S
C2293 C2291 1.433 . S
C2293 N2296 1.384 . S
C2294 H2285 0.929 . S
C2294 C2286 1.378 1_655 S
C2294 C2289 1.350 1_655 S
C2295 H2282 0.929 . S
C2295 C2287 1.433 . S
C2295 N2297 1.384 . S
N2296 C2292 1.427 . S
N2296 C2293 1.384 . S
N2297 C2289 1.427 . S
N2297 C2295 1.384 . S
H2298 C2304 0.930 . S
H2299 C2308 0.930 . S
H2300 C2313 0.929 . S
H2301 C2311 0.929 . S
H2302 C2306 0.929 . S
H2303 C2312 0.929 . S
C2304 H2298 0.930 . S
C2304 C2305 1.367 . S
C2304 C2312 1.378 . S
C2305 C2304 1.367 . S
C2305 C2313 1.433 . S
C2306 H2302 0.929 . S
C2306 C2308 1.378 . S
C2306 C2310 1.350 . S
C2307 C2310 1.463 . S
C2307 C2312 1.350 . S
C2307 N2315 1.427 . S
C2308 H2299 0.930 . S
C2308 C2306 1.378 . S
C2308 C2309 1.367 . S
C2309 C2308 1.367 . S
C2309 C2311 1.433 . S
C2310 C2306 1.350 . S
C2310 C2307 1.463 . S
C2310 N2314 1.427 . S
C2311 H2301 0.929 . S
C2311 C2309 1.433 . S
C2311 N2314 1.384 . S
C2312 H2303 0.929 . S
C2312 C2304 1.378 . S
C2312 C2307 1.350 . S
C2313 H2300 0.929 . S
C2313 C2305 1.433 . S
C2313 N2315 1.384 . S
N2314 C2310 1.427 . S
N2314 C2311 1.384 . S
N2315 C2307 1.427 . S
N2315 C2313 1.384 . S
H2316 C2322 0.930 . S
H2317 C2326 0.930 . S
H2318 C2331 0.929 . S
H2319 C2329 0.929 . S
H2320 C2324 0.929 . S
H2321 C2330 0.929 . S
C2322 H2316 0.930 . S
C2322 C2323 1.367 . S
C2322 C2330 1.378 . S
C2323 C2322 1.367 . S
C2323 C2331 1.433 . S
C2324 H2320 0.929 . S
C2324 C2326 1.378 . S
C2324 C2328 1.350 . S
C2325 C2328 1.463 1_655 S
C2325 C2330 1.350 . S
C2325 N2333 1.427 1_655 S
C2326 H2317 0.930 . S
C2326 C2324 1.378 . S
C2326 C2327 1.367 . S
C2327 C2326 1.367 . S
C2327 C2329 1.433 . S
C2328 C2324 1.350 . S
C2328 C2325 1.463 1_455 S
C2328 N2332 1.427 . S
C2329 H2319 0.929 . S
C2329 C2327 1.433 . S
C2329 N2332 1.384 . S
C2330 H2321 0.929 . S
C2330 C2322 1.378 . S
C2330 C2325 1.350 . S
C2331 H2318 0.929 . S
C2331 C2323 1.433 . S
C2331 N2333 1.384 1_655 S
N2332 C2328 1.427 . S
N2332 C2329 1.384 . S
N2333 C2325 1.427 1_455 S
N2333 C2331 1.384 1_455 S
H2334 C2340 0.930 . S
H2335 C2344 0.930 . S
H2336 C2349 0.929 . S
H2337 C2347 0.929 . S
H2338 C2342 0.929 . S
H2339 C2348 0.929 . S
C2340 H2334 0.930 . S
C2340 C2341 1.367 . S
C2340 C2348 1.378 . S
C2341 C2340 1.367 . S
C2341 C2349 1.433 . S
C2342 H2338 0.929 . S
C2342 C2344 1.378 . S
C2342 C2346 1.350 . S
C2343 C2346 1.463 . S
C2343 C2348 1.350 . S
C2343 N2351 1.427 . S
C2344 H2335 0.930 . S
C2344 C2342 1.378 . S
C2344 C2345 1.367 . S
C2345 C2344 1.367 . S
C2345 C2347 1.433 . S
C2346 C2342 1.350 . S
C2346 C2343 1.463 . S
C2346 N2350 1.427 . S
C2347 H2337 0.929 . S
C2347 C2345 1.433 . S
C2347 N2350 1.384 . S
C2348 H2339 0.929 . S
C2348 C2340 1.378 . S
C2348 C2343 1.350 . S
C2349 H2336 0.929 . S
C2349 C2341 1.433 . S
C2349 N2351 1.384 . S
N2350 C2346 1.427 . S
N2350 C2347 1.384 . S
N2351 C2343 1.427 . S
N2351 C2349 1.384 . S
H2352 C2358 0.930 . S
H2353 C2362 0.930 . S
H2354 C2367 0.929 . S
H2355 C2365 0.929 . S
H2356 C2360 0.929 . S
H2357 C2366 0.929 . S
C2358 H2352 0.930 . S
C2358 C2359 1.367 . S
C2358 C2366 1.378 . S
C2359 C2358 1.367 . S
C2359 C2367 1.433 . S
C2360 H2356 0.929 . S
C2360 C2362 1.378 . S
C2360 C2364 1.350 . S
C2361 C2364 1.463 1_545 S
C2361 C2366 1.350 . S
C2361 N2369 1.427 1_545 S
C2362 H2353 0.930 . S
C2362 C2360 1.378 . S
C2362 C2363 1.367 . S
C2363 C2362 1.367 . S
C2363 C2365 1.433 . S
C2364 C2360 1.350 . S
C2364 C2361 1.463 1_565 S
C2364 N2368 1.427 . S
C2365 H2355 0.929 . S
C2365 C2363 1.433 . S
C2365 N2368 1.384 . S
C2366 H2357 0.929 . S
C2366 C2358 1.378 . S
C2366 C2361 1.350 . S
C2367 H2354 0.929 . S
C2367 C2359 1.433 . S
C2367 N2369 1.384 1_545 S
N2368 C2364 1.427 . S
N2368 C2365 1.384 . S
N2369 C2361 1.427 1_565 S
N2369 C2367 1.384 1_565 S
H2370 C2376 0.930 . S
H2371 C2380 0.930 . S
H2372 C2385 0.929 . S
H2373 C2383 0.929 . S
H2374 C2378 0.929 . S
H2375 C2384 0.929 . S
C2376 H2370 0.930 . S
C2376 C2377 1.367 . S
C2376 C2384 1.378 . S
C2377 C2376 1.367 . S
C2377 C2385 1.433 . S
C2378 H2374 0.929 . S
C2378 C2380 1.378 . S
C2378 C2382 1.350 . S
C2379 C2382 1.463 . S
C2379 C2384 1.350 . S
C2379 N2387 1.427 . S
C2380 H2371 0.930 . S
C2380 C2378 1.378 . S
C2380 C2381 1.367 . S
C2381 C2380 1.367 . S
C2381 C2383 1.433 . S
C2382 C2378 1.350 . S
C2382 C2379 1.463 . S
C2382 N2386 1.427 . S
C2383 H2373 0.929 . S
C2383 C2381 1.433 . S
C2383 N2386 1.384 . S
C2384 H2375 0.929 . S
C2384 C2376 1.378 . S
C2384 C2379 1.350 . S
C2385 H2372 0.929 . S
C2385 C2377 1.433 . S
C2385 N2387 1.384 . S
N2386 C2382 1.427 . S
N2386 C2383 1.384 . S
N2387 C2379 1.427 . S
N2387 C2385 1.384 . S
H2388 C2394 0.930 . S
H2389 C2398 0.930 . S
H2390 C2403 0.929 . S
H2391 C2401 0.929 . S
H2392 C2396 0.929 . S
H2393 C2402 0.929 . S
C2394 H2388 0.930 . S
C2394 C2395 1.367 . S
C2394 C2402 1.378 . S
C2395 C2394 1.367 . S
C2395 C2403 1.433 . S
C2396 H2392 0.929 . S
C2396 C2398 1.378 . S
C2396 C2400 1.350 . S
C2397 C2400 1.463 . S
C2397 C2402 1.350 . S
C2397 N2405 1.427 . S
C2398 H2389 0.930 . S
C2398 C2396 1.378 . S
C2398 C2399 1.367 . S
C2399 C2398 1.367 . S
C2399 C2401 1.433 . S
C2400 C2396 1.350 . S
C2400 C2397 1.463 . S
C2400 N2404 1.427 . S
C2401 H2391 0.929 . S
C2401 C2399 1.433 . S
C2401 N2404 1.384 . S
C2402 H2393 0.929 . S
C2402 C2394 1.378 . S
C2402 C2397 1.350 . S
C2403 H2390 0.929 . S
C2403 C2395 1.433 . S
C2403 N2405 1.384 . S
N2404 C2400 1.427 . S
N2404 C2401 1.384 . S
N2405 C2397 1.427 . S
N2405 C2403 1.384 . S
H2406 C2412 0.930 . S
H2407 C2416 0.930 . S
H2408 C2421 0.929 . S
H2409 C2419 0.929 . S
H2410 C2414 0.909 1_554 S
H2411 C2420 0.929 1_556 S
C2412 H2406 0.930 . S
C2412 C2413 1.367 . S
C2412 C2420 1.378 . S
C2413 C2412 1.367 . S
C2413 C2421 1.433 . S
C2414 H2410 0.909 1_556 S
C2414 C2416 1.394 . S
C2414 C2418 1.353 . S
C2415 C2418 1.463 1_554 S
C2415 C2420 1.350 . S
C2415 N2423 1.427 . S
C2416 H2407 0.930 . S
C2416 C2414 1.394 . S
C2416 C2417 1.367 . S
C2417 C2416 1.367 . S
C2417 C2419 1.433 . S
C2418 C2414 1.353 . S
C2418 C2415 1.463 1_556 S
C2418 N2422 1.427 . S
C2419 H2409 0.929 . S
C2419 C2417 1.433 . S
C2419 N2422 1.384 . S
C2420 H2411 0.929 1_554 S
C2420 C2412 1.378 . S
C2420 C2415 1.350 . S
C2421 H2408 0.929 . S
C2421 C2413 1.433 . S
C2421 N2423 1.384 . S
N2422 C2418 1.427 . S
N2422 C2419 1.384 . S
N2423 C2415 1.427 . S
N2423 C2421 1.384 . S
H2424 C2430 0.930 . S
H2425 C2434 0.930 . S
H2426 C2439 0.929 . S
H2427 C2437 0.929 . S
H2428 C2432 0.929 . S
H2429 C2438 0.929 . S
C2430 H2424 0.930 . S
C2430 C2431 1.367 . S
C2430 C2438 1.378 . S
C2431 C2430 1.367 . S
C2431 C2439 1.433 . S
C2432 H2428 0.929 . S
C2432 C2434 1.378 . S
C2432 C2436 1.350 . S
C2433 C2436 1.463 1_545 S
C2433 C2438 1.350 . S
C2433 N2441 1.427 . S
C2434 H2425 0.930 . S
C2434 C2432 1.378 . S
C2434 C2435 1.367 . S
C2435 C2434 1.367 . S
C2435 C2437 1.433 . S
C2436 C2432 1.350 . S
C2436 C2433 1.463 1_565 S
C2436 N2440 1.427 1_565 S
C2437 H2427 0.929 . S
C2437 C2435 1.433 . S
C2437 N2440 1.384 1_565 S
C2438 H2429 0.929 . S
C2438 C2430 1.378 . S
C2438 C2433 1.350 . S
C2439 H2426 0.929 . S
C2439 C2431 1.433 . S
C2439 N2441 1.384 . S
N2440 C2436 1.427 1_545 S
N2440 C2437 1.384 1_545 S
N2441 C2433 1.427 . S
N2441 C2439 1.384 . S
H2442 C2448 0.930 . S
H2443 C2452 0.930 . S
H2444 C2457 0.929 . S
H2445 C2455 0.929 . S
H2446 C2450 0.929 . S
H2447 C2456 0.929 . S
C2448 H2442 0.930 . S
C2448 C2449 1.367 . S
C2448 C2456 1.378 . S
C2449 C2448 1.367 . S
C2449 C2457 1.433 . S
C2450 H2446 0.929 . S
C2450 C2452 1.378 . S
C2450 C2454 1.350 . S
C2451 C2454 1.463 1_554 S
C2451 C2456 1.350 . S
C2451 N2459 1.427 . S
C2452 H2443 0.930 . S
C2452 C2450 1.378 . S
C2452 C2453 1.367 . S
C2453 C2452 1.367 . S
C2453 C2455 1.433 . S
C2454 C2450 1.350 . S
C2454 C2451 1.463 1_556 S
C2454 N2458 1.427 . S
C2455 H2445 0.929 . S
C2455 C2453 1.433 . S
C2455 N2458 1.384 . S
C2456 H2447 0.929 . S
C2456 C2448 1.378 . S
C2456 C2451 1.350 . S
C2457 H2444 0.929 . S
C2457 C2449 1.433 . S
C2457 N2459 1.384 . S
N2458 C2454 1.427 . S
N2458 C2455 1.384 . S
N2459 C2451 1.427 . S
N2459 C2457 1.384 . S
H2460 C2466 0.930 . S
H2461 C2470 0.930 . S
H2462 C2475 0.929 . S
H2463 C2473 0.929 . S
H2464 C2468 0.929 . S
H2465 C2474 0.929 . S
C2466 H2460 0.930 . S
C2466 C2467 1.367 . S
C2466 C2474 1.378 . S
C2467 C2466 1.367 . S
C2467 C2475 1.433 . S
C2468 H2464 0.929 . S
C2468 C2470 1.378 . S
C2468 C2472 1.350 . S
C2469 C2472 1.463 . S
C2469 C2474 1.350 . S
C2469 N2477 1.427 . S
C2470 H2461 0.930 . S
C2470 C2468 1.378 . S
C2470 C2471 1.367 . S
C2471 C2470 1.367 . S
C2471 C2473 1.433 . S
C2472 C2468 1.350 . S
C2472 C2469 1.463 . S
C2472 N2476 1.427 . S
C2473 H2463 0.929 . S
C2473 C2471 1.433 . S
C2473 N2476 1.384 . S
C2474 H2465 0.929 . S
C2474 C2466 1.378 . S
C2474 C2469 1.350 . S
C2475 H2462 0.929 . S
C2475 C2467 1.433 . S
C2475 N2477 1.384 . S
N2476 C2472 1.427 . S
N2476 C2473 1.384 . S
N2477 C2469 1.427 . S
N2477 C2475 1.384 . S
H2478 C2484 0.930 . S
H2479 C2488 0.930 . S
H2480 C2493 0.929 . S
H2481 C2491 0.929 . S
H2482 C2486 0.929 . S
H2483 C2492 0.929 . S
C2484 H2478 0.930 . S
C2484 C2485 1.367 . S
C2484 C2492 1.378 . S
C2485 C2484 1.367 . S
C2485 C2493 1.433 . S
C2486 H2482 0.929 . S
C2486 C2488 1.378 . S
C2486 C2490 1.350 . S
C2487 C2490 1.463 . S
C2487 C2492 1.350 . S
C2487 N2495 1.427 . S
C2488 H2479 0.930 . S
C2488 C2486 1.378 . S
C2488 C2489 1.367 . S
C2489 C2488 1.367 . S
C2489 C2491 1.433 . S
C2490 C2486 1.350 . S
C2490 C2487 1.463 . S
C2490 N2494 1.427 . S
C2491 H2481 0.929 . S
C2491 C2489 1.433 . S
C2491 N2494 1.384 . S
C2492 H2483 0.929 . S
C2492 C2484 1.378 . S
C2492 C2487 1.350 . S
C2493 H2480 0.929 . S
C2493 C2485 1.433 . S
C2493 N2495 1.384 . S
N2494 C2490 1.427 . S
N2494 C2491 1.384 . S
N2495 C2487 1.427 . S
N2495 C2493 1.384 . S
H2496 C2502 0.930 . S
H2497 C2506 0.930 . S
H2498 C2511 0.929 . S
H2499 C2509 0.929 . S
H2500 C2504 0.929 . S
H2501 C2510 0.929 1_554 S
C2502 H2496 0.930 . S
C2502 C2503 1.367 . S
C2502 C2510 1.378 . S
C2503 C2502 1.367 . S
C2503 C2511 1.433 . S
C2504 H2500 0.929 . S
C2504 C2506 1.378 1_556 S
C2504 C2508 1.350 1_556 S
C2505 C2508 1.463 1_556 S
C2505 C2510 1.350 . S
C2505 N2513 1.427 . S
C2506 H2497 0.930 . S
C2506 C2504 1.378 1_554 S
C2506 C2507 1.367 . S
C2507 C2506 1.367 . S
C2507 C2509 1.433 . S
C2508 C2504 1.350 1_554 S
C2508 C2505 1.463 1_554 S
C2508 N2512 1.427 . S
C2509 H2499 0.929 . S
C2509 C2507 1.433 . S
C2509 N2512 1.384 . S
C2510 H2501 0.929 1_556 S
C2510 C2502 1.378 . S
C2510 C2505 1.350 . S
C2511 H2498 0.929 . S
C2511 C2503 1.433 . S
C2511 N2513 1.384 . S
N2512 C2508 1.427 . S
N2512 C2509 1.384 . S
N2513 C2505 1.427 . S
N2513 C2511 1.384 . S
H2514 C2520 0.930 . S
H2515 C2524 0.930 . S
H2516 C2529 0.929 . S
H2517 C2527 0.929 . S
H2518 C2522 0.929 . S
H2519 C2528 0.929 . S
C2520 H2514 0.930 . S
C2520 C2521 1.367 . S
C2520 C2528 1.378 . S
C2521 C2520 1.367 . S
C2521 C2529 1.433 . S
C2522 H2518 0.929 . S
C2522 C2524 1.378 . S
C2522 C2526 1.350 . S
C2523 C2526 1.463 . S
C2523 C2528 1.350 . S
C2523 N2531 1.427 . S
C2524 H2515 0.930 . S
C2524 C2522 1.378 . S
C2524 C2525 1.367 . S
C2525 C2524 1.367 . S
C2525 C2527 1.433 . S
C2526 C2522 1.350 . S
C2526 C2523 1.463 . S
C2526 N2530 1.427 . S
C2527 H2517 0.929 . S
C2527 C2525 1.433 . S
C2527 N2530 1.384 . S
C2528 H2519 0.929 . S
C2528 C2520 1.378 . S
C2528 C2523 1.350 . S
C2529 H2516 0.929 . S
C2529 C2521 1.433 . S
C2529 N2531 1.384 . S
N2530 C2526 1.427 . S
N2530 C2527 1.384 . S
N2531 C2523 1.427 . S
N2531 C2529 1.384 . S
H2532 C2538 0.930 . S
H2533 C2542 0.930 . S
H2534 C2547 0.929 . S
H2535 C2545 0.929 . S
H2536 C2540 0.929 1_545 S
H2537 C2546 0.929 1_565 S
C2538 H2532 0.930 . S
C2538 C2539 1.367 . S
C2538 C2546 1.378 . S
C2539 C2538 1.367 . S
C2539 C2547 1.433 . S
C2540 H2536 0.929 1_565 S
C2540 C2542 1.378 . S
C2540 C2544 1.350 . S
C2541 C2544 1.463 1_545 S
C2541 C2546 1.350 . S
C2541 N2549 1.427 . S
C2542 H2533 0.930 . S
C2542 C2540 1.378 . S
C2542 C2543 1.367 . S
C2543 C2542 1.367 . S
C2543 C2545 1.433 . S
C2544 C2540 1.350 . S
C2544 C2541 1.463 1_565 S
C2544 N2548 1.427 . S
C2545 H2535 0.929 . S
C2545 C2543 1.433 . S
C2545 N2548 1.384 . S
C2546 H2537 0.929 1_545 S
C2546 C2538 1.378 . S
C2546 C2541 1.350 . S
C2547 H2534 0.929 . S
C2547 C2539 1.433 . S
C2547 N2549 1.384 . S
N2548 C2544 1.427 . S
N2548 C2545 1.384 . S
N2549 C2541 1.427 . S
N2549 C2547 1.384 . S
H2550 C2556 0.930 . S
H2551 C2560 0.930 . S
H2552 C2565 0.929 . S
H2553 C2563 0.929 . S
H2554 C2558 0.929 . S
H2555 C2564 0.929 . S
C2556 H2550 0.930 . S
C2556 C2557 1.367 . S
C2556 C2564 1.378 . S
C2557 C2556 1.367 . S
C2557 C2565 1.433 . S
C2558 H2554 0.929 . S
C2558 C2560 1.378 . S
C2558 C2562 1.350 . S
C2559 C2562 1.463 1_556 S
C2559 C2564 1.350 . S
C2559 N2567 1.427 1_556 S
C2560 H2551 0.930 . S
C2560 C2558 1.378 . S
C2560 C2561 1.367 . S
C2561 C2560 1.367 . S
C2561 C2563 1.433 . S
C2562 C2558 1.350 . S
C2562 C2559 1.463 1_554 S
C2562 N2566 1.427 . S
C2563 H2553 0.929 . S
C2563 C2561 1.433 . S
C2563 N2566 1.384 . S
C2564 H2555 0.929 . S
C2564 C2556 1.378 . S
C2564 C2559 1.350 . S
C2565 H2552 0.929 . S
C2565 C2557 1.433 . S
C2565 N2567 1.384 1_556 S
N2566 C2562 1.427 . S
N2566 C2563 1.384 . S
N2567 C2559 1.427 1_554 S
N2567 C2565 1.384 1_554 S
H2568 C2574 0.930 . S
H2569 C2578 0.930 . S
H2570 C2583 0.929 . S
H2571 C2581 0.929 . S
H2572 C2576 0.929 . S
H2573 C2582 0.929 1_556 S
C2574 H2568 0.930 . S
C2574 C2575 1.367 . S
C2574 C2582 1.378 . S
C2575 C2574 1.367 . S
C2575 C2583 1.433 . S
C2576 H2572 0.929 . S
C2576 C2578 1.378 . S
C2576 C2580 1.350 . S
C2577 C2580 1.463 1_554 S
C2577 C2582 1.350 . S
C2577 N2585 1.427 . S
C2578 H2569 0.930 . S
C2578 C2576 1.378 . S
C2578 C2579 1.367 . S
C2579 C2578 1.367 . S
C2579 C2581 1.433 . S
C2580 C2576 1.350 . S
C2580 C2577 1.463 1_556 S
C2580 N2584 1.427 . S
C2581 H2571 0.929 . S
C2581 C2579 1.433 . S
C2581 N2584 1.384 . S
C2582 H2573 0.929 1_554 S
C2582 C2574 1.378 . S
C2582 C2577 1.350 . S
C2583 H2570 0.929 . S
C2583 C2575 1.433 . S
C2583 N2585 1.384 . S
N2584 C2580 1.427 . S
N2584 C2581 1.384 . S
N2585 C2577 1.427 . S
N2585 C2583 1.384 . S
H2586 C2592 0.930 . S
H2587 C2596 0.930 . S
H2588 C2601 0.929 . S
H2589 C2599 0.929 . S
H2590 C2594 0.929 . S
H2591 C2600 0.929 . S
C2592 H2586 0.930 . S
C2592 C2593 1.367 . S
C2592 C2600 1.378 . S
C2593 C2592 1.367 . S
C2593 C2601 1.433 . S
C2594 H2590 0.929 . S
C2594 C2596 1.378 . S
C2594 C2598 1.350 . S
C2595 C2598 1.463 . S
C2595 C2600 1.350 . S
C2595 N2603 1.427 . S
C2596 H2587 0.930 . S
C2596 C2594 1.378 . S
C2596 C2597 1.367 . S
C2597 C2596 1.367 . S
C2597 C2599 1.433 . S
C2598 C2594 1.350 . S
C2598 C2595 1.463 . S
C2598 N2602 1.427 . S
C2599 H2589 0.929 . S
C2599 C2597 1.433 . S
C2599 N2602 1.384 . S
C2600 H2591 0.929 . S
C2600 C2592 1.378 . S
C2600 C2595 1.350 . S
C2601 H2588 0.929 . S
C2601 C2593 1.433 . S
C2601 N2603 1.384 . S
N2602 C2598 1.427 . S
N2602 C2599 1.384 . S
N2603 C2595 1.427 . S
N2603 C2601 1.384 . S
H2604 C2610 0.930 . S
H2605 C2614 0.930 . S
H2606 C2619 0.929 . S
H2607 C2617 0.929 . S
H2608 C2612 0.929 . S
H2609 C2618 0.929 . S
C2610 H2604 0.930 . S
C2610 C2611 1.367 . S
C2610 C2618 1.378 . S
C2611 C2610 1.367 . S
C2611 C2619 1.433 . S
C2612 H2608 0.929 . S
C2612 C2614 1.378 . S
C2612 C2616 1.350 . S
C2613 C2616 1.463 1_565 S
C2613 C2618 1.350 . S
C2613 N2621 1.427 1_565 S
C2614 H2605 0.930 . S
C2614 C2612 1.378 . S
C2614 C2615 1.367 . S
C2615 C2614 1.367 . S
C2615 C2617 1.433 . S
C2616 C2612 1.350 . S
C2616 C2613 1.463 1_545 S
C2616 N2620 1.427 . S
C2617 H2607 0.929 . S
C2617 C2615 1.433 . S
C2617 N2620 1.384 . S
C2618 H2609 0.929 . S
C2618 C2610 1.378 . S
C2618 C2613 1.350 . S
C2619 H2606 0.929 . S
C2619 C2611 1.433 . S
C2619 N2621 1.384 1_565 S
N2620 C2616 1.427 . S
N2620 C2617 1.384 . S
N2621 C2613 1.427 1_545 S
N2621 C2619 1.384 1_545 S
H2622 C2628 0.930 . S
H2623 C2632 0.930 . S
H2624 C2637 0.929 . S
H2625 C2635 0.929 . S
H2626 C2630 0.929 1_455 S
H2627 C2636 0.929 . S
C2628 H2622 0.930 . S
C2628 C2629 1.367 . S
C2628 C2636 1.378 1_455 S
C2629 C2628 1.367 . S
C2629 C2637 1.433 . S
C2630 H2626 0.929 1_655 S
C2630 C2632 1.378 . S
C2630 C2634 1.350 . S
C2631 C2634 1.463 1_455 S
C2631 C2636 1.350 1_455 S
C2631 N2639 1.427 . S
C2632 H2623 0.930 . S
C2632 C2630 1.378 . S
C2632 C2633 1.367 . S
C2633 C2632 1.367 . S
C2633 C2635 1.433 . S
C2634 C2630 1.350 . S
C2634 C2631 1.463 1_655 S
C2634 N2638 1.427 . S
C2635 H2625 0.929 . S
C2635 C2633 1.433 . S
C2635 N2638 1.384 . S
C2636 H2627 0.929 . S
C2636 C2628 1.378 1_655 S
C2636 C2631 1.350 1_655 S
C2637 H2624 0.929 . S
C2637 C2629 1.433 . S
C2637 N2639 1.384 . S
N2638 C2634 1.427 . S
N2638 C2635 1.384 . S
N2639 C2631 1.427 . S
N2639 C2637 1.384 . S
H2640 C2646 0.930 . S
H2641 C2650 0.930 . S
H2642 C2655 0.929 . S
H2643 C2653 0.929 . S
H2644 C2648 0.929 . S
H2645 C2654 0.929 . S
C2646 H2640 0.930 . S
C2646 C2647 1.367 . S
C2646 C2654 1.378 . S
C2647 C2646 1.367 . S
C2647 C2655 1.433 . S
C2648 H2644 0.929 . S
C2648 C2650 1.378 . S
C2648 C2652 1.350 . S
C2649 C2652 1.463 1_455 S
C2649 C2654 1.350 . S
C2649 N2657 1.427 . S
C2650 H2641 0.930 . S
C2650 C2648 1.378 . S
C2650 C2651 1.367 . S
C2651 C2650 1.367 . S
C2651 C2653 1.433 . S
C2652 C2648 1.350 . S
C2652 C2649 1.463 1_655 S
C2652 N2656 1.435 . S
C2653 H2643 0.929 . S
C2653 C2651 1.433 . S
C2653 N2656 1.418 . S
C2654 H2645 0.929 . S
C2654 C2646 1.378 . S
C2654 C2649 1.350 . S
C2655 H2642 0.929 . S
C2655 C2647 1.433 . S
C2655 N2657 1.384 . S
N2656 C2652 1.435 . S
N2656 C2653 1.418 . S
N2657 C2649 1.427 . S
N2657 C2655 1.384 . S
H2658 C2664 0.930 . S
H2659 C2668 0.930 . S
H2660 C2673 0.929 . S
H2661 C2671 0.929 . S
H2662 C2666 0.929 . S
H2663 C2672 0.929 . S
C2664 H2658 0.930 . S
C2664 C2665 1.367 . S
C2664 C2672 1.378 . S
C2665 C2664 1.367 . S
C2665 C2673 1.433 . S
C2666 H2662 0.929 . S
C2666 C2668 1.378 . S
C2666 C2670 1.350 . S
C2667 C2670 1.463 . S
C2667 C2672 1.350 . S
C2667 N2675 1.427 . S
C2668 H2659 0.930 . S
C2668 C2666 1.378 . S
C2668 C2669 1.367 . S
C2669 C2668 1.367 . S
C2669 C2671 1.433 . S
C2670 C2666 1.350 . S
C2670 C2667 1.463 . S
C2670 N2674 1.427 . S
C2671 H2661 0.929 . S
C2671 C2669 1.433 . S
C2671 N2674 1.384 . S
C2672 H2663 0.929 . S
C2672 C2664 1.378 . S
C2672 C2667 1.350 . S
C2673 H2660 0.929 . S
C2673 C2665 1.433 . S
C2673 N2675 1.384 . S
N2674 C2670 1.427 . S
N2674 C2671 1.384 . S
N2675 C2667 1.427 . S
N2675 C2673 1.384 . S
H2676 C2682 0.930 . S
H2677 C2686 0.930 . S
H2678 C2691 0.929 . S
H2679 C2689 0.929 . S
H2680 C2684 0.929 . S
H2681 C2690 0.929 . S
C2682 H2676 0.930 . S
C2682 C2683 1.367 . S
C2682 C2690 1.378 . S
C2683 C2682 1.367 . S
C2683 C2691 1.433 . S
C2684 H2680 0.929 . S
C2684 C2686 1.378 . S
C2684 C2688 1.350 . S
C2685 C2688 1.463 . S
C2685 C2690 1.350 . S
C2685 N2693 1.427 . S
C2686 H2677 0.930 . S
C2686 C2684 1.378 . S
C2686 C2687 1.367 . S
C2687 C2686 1.367 . S
C2687 C2689 1.433 . S
C2688 C2684 1.350 . S
C2688 C2685 1.463 . S
C2688 N2692 1.427 . S
C2689 H2679 0.929 . S
C2689 C2687 1.433 . S
C2689 N2692 1.384 . S
C2690 H2681 0.929 . S
C2690 C2682 1.378 . S
C2690 C2685 1.350 . S
C2691 H2678 0.929 . S
C2691 C2683 1.433 . S
C2691 N2693 1.384 . S
N2692 C2688 1.427 . S
N2692 C2689 1.384 . S
N2693 C2685 1.427 . S
N2693 C2691 1.384 . S
H2694 C2700 0.930 . S
H2695 C2704 0.930 . S
H2696 C2709 0.929 . S
H2697 C2707 0.929 . S
H2698 C2702 0.929 . S
H2699 C2708 0.929 . S
C2700 H2694 0.930 . S
C2700 C2701 1.367 . S
C2700 C2708 1.378 . S
C2701 C2700 1.367 . S
C2701 C2709 1.433 . S
C2702 H2698 0.929 . S
C2702 C2704 1.378 . S
C2702 C2706 1.350 . S
C2703 C2706 1.463 . S
C2703 C2708 1.350 . S
C2703 N2711 1.427 . S
C2704 H2695 0.930 . S
C2704 C2702 1.378 . S
C2704 C2705 1.367 . S
C2705 C2704 1.367 . S
C2705 C2707 1.433 . S
C2706 C2702 1.350 . S
C2706 C2703 1.463 . S
C2706 N2710 1.427 . S
C2707 H2697 0.929 . S
C2707 C2705 1.433 . S
C2707 N2710 1.384 . S
C2708 H2699 0.929 . S
C2708 C2700 1.378 . S
C2708 C2703 1.350 . S
C2709 H2696 0.929 . S
C2709 C2701 1.433 . S
C2709 N2711 1.384 . S
N2710 C2706 1.427 . S
N2710 C2707 1.384 . S
N2711 C2703 1.427 . S
N2711 C2709 1.384 . S
H2712 C2718 0.930 . S
H2713 C2722 0.930 . S
H2714 C2727 0.929 . S
H2715 C2725 0.929 . S
H2716 C2720 0.929 . S
H2717 C2726 0.929 1_556 S
C2718 H2712 0.930 . S
C2718 C2719 1.367 . S
C2718 C2726 1.378 . S
C2719 C2718 1.367 . S
C2719 C2727 1.433 . S
C2720 H2716 0.929 . S
C2720 C2722 1.378 1_554 S
C2720 C2724 1.350 1_554 S
C2721 C2724 1.463 1_554 S
C2721 C2726 1.350 . S
C2721 N2729 1.427 . S
C2722 H2713 0.930 . S
C2722 C2720 1.378 1_556 S
C2722 C2723 1.367 . S
C2723 C2722 1.367 . S
C2723 C2725 1.433 . S
C2724 C2720 1.350 1_556 S
C2724 C2721 1.463 1_556 S
C2724 N2728 1.427 . S
C2725 H2715 0.929 . S
C2725 C2723 1.433 . S
C2725 N2728 1.384 . S
C2726 H2717 0.929 1_554 S
C2726 C2718 1.378 . S
C2726 C2721 1.350 . S
C2727 H2714 0.929 . S
C2727 C2719 1.433 . S
C2727 N2729 1.384 . S
N2728 C2724 1.427 . S
N2728 C2725 1.384 . S
N2729 C2721 1.427 . S
N2729 C2727 1.384 . S
H2730 C2736 0.930 . S
H2731 C2740 0.930 . S
H2732 C2745 0.929 . S
H2733 C2743 0.929 . S
H2734 C2738 0.929 . S
H2735 C2744 0.929 . S
C2736 H2730 0.930 . S
C2736 C2737 1.367 . S
C2736 C2744 1.378 . S
C2737 C2736 1.367 . S
C2737 C2745 1.433 . S
C2738 H2734 0.929 . S
C2738 C2740 1.378 . S
C2738 C2742 1.350 . S
C2739 C2742 1.463 1_565 S
C2739 C2744 1.350 . S
C2739 N2747 1.427 1_565 S
C2740 H2731 0.930 . S
C2740 C2738 1.378 . S
C2740 C2741 1.367 . S
C2741 C2740 1.367 . S
C2741 C2743 1.433 . S
C2742 C2738 1.350 . S
C2742 C2739 1.463 1_545 S
C2742 N2746 1.427 . S
C2743 H2733 0.929 . S
C2743 C2741 1.433 . S
C2743 N2746 1.384 . S
C2744 H2735 0.929 . S
C2744 C2736 1.378 . S
C2744 C2739 1.350 . S
C2745 H2732 0.929 . S
C2745 C2737 1.433 . S
C2745 N2747 1.384 1_565 S
N2746 C2742 1.427 . S
N2746 C2743 1.384 . S
N2747 C2739 1.427 1_545 S
N2747 C2745 1.384 1_545 S
H2748 C2754 0.930 . S
H2749 C2758 0.930 . S
H2750 C2763 0.929 . S
H2751 C2761 0.929 . S
H2752 C2756 0.929 . S
H2753 C2762 0.929 . S
C2754 H2748 0.930 . S
C2754 C2755 1.367 . S
C2754 C2762 1.378 . S
C2755 C2754 1.367 . S
C2755 C2763 1.433 . S
C2756 H2752 0.929 . S
C2756 C2758 1.378 . S
C2756 C2760 1.350 . S
C2757 C2760 1.463 . S
C2757 C2762 1.350 . S
C2757 N2765 1.427 . S
C2758 H2749 0.930 . S
C2758 C2756 1.378 . S
C2758 C2759 1.367 . S
C2759 C2758 1.367 . S
C2759 C2761 1.433 . S
C2760 C2756 1.350 . S
C2760 C2757 1.463 . S
C2760 N2764 1.427 . S
C2761 H2751 0.929 . S
C2761 C2759 1.433 . S
C2761 N2764 1.384 . S
C2762 H2753 0.929 . S
C2762 C2754 1.378 . S
C2762 C2757 1.350 . S
C2763 H2750 0.929 . S
C2763 C2755 1.433 . S
C2763 N2765 1.384 . S
N2764 C2760 1.427 . S
N2764 C2761 1.384 . S
N2765 C2757 1.427 . S
N2765 C2763 1.384 . S
H2766 C2772 0.930 . S
H2767 C2776 0.930 . S
H2768 C2781 0.929 . S
H2769 C2779 0.929 . S
H2770 C2774 0.929 . S
H2771 C2780 0.929 . S
C2772 H2766 0.930 . S
C2772 C2773 1.367 . S
C2772 C2780 1.378 . S
C2773 C2772 1.367 . S
C2773 C2781 1.433 . S
C2774 H2770 0.929 . S
C2774 C2776 1.378 . S
C2774 C2778 1.350 . S
C2775 C2778 1.463 . S
C2775 C2780 1.350 . S
C2775 N2783 1.427 . S
C2776 H2767 0.930 . S
C2776 C2774 1.378 . S
C2776 C2777 1.367 . S
C2777 C2776 1.367 . S
C2777 C2779 1.433 . S
C2778 C2774 1.350 . S
C2778 C2775 1.463 . S
C2778 N2782 1.427 . S
C2779 H2769 0.929 . S
C2779 C2777 1.433 . S
C2779 N2782 1.384 . S
C2780 H2771 0.929 . S
C2780 C2772 1.378 . S
C2780 C2775 1.350 . S
C2781 H2768 0.929 . S
C2781 C2773 1.433 . S
C2781 N2783 1.384 . S
N2782 C2778 1.427 . S
N2782 C2779 1.384 . S
N2783 C2775 1.427 . S
N2783 C2781 1.384 . S
H2784 C2790 0.930 . S
H2785 C2794 0.930 . S
H2786 C2799 0.929 . S
H2787 C2797 0.929 . S
H2788 C2792 0.929 . S
H2789 C2798 0.929 . S
C2790 H2784 0.930 . S
C2790 C2791 1.367 . S
C2790 C2798 1.378 . S
C2791 C2790 1.367 . S
C2791 C2799 1.433 . S
C2792 H2788 0.929 . S
C2792 C2794 1.378 . S
C2792 C2796 1.350 . S
C2793 C2796 1.463 . S
C2793 C2798 1.350 . S
C2793 N2801 1.427 . S
C2794 H2785 0.930 . S
C2794 C2792 1.378 . S
C2794 C2795 1.367 . S
C2795 C2794 1.367 . S
C2795 C2797 1.433 . S
C2796 C2792 1.350 . S
C2796 C2793 1.463 . S
C2796 N2800 1.427 . S
C2797 H2787 0.929 . S
C2797 C2795 1.433 . S
C2797 N2800 1.384 . S
C2798 H2789 0.929 . S
C2798 C2790 1.378 . S
C2798 C2793 1.350 . S
C2799 H2786 0.929 . S
C2799 C2791 1.433 . S
C2799 N2801 1.384 . S
N2800 C2796 1.427 . S
N2800 C2797 1.384 . S
N2801 C2793 1.427 . S
N2801 C2799 1.384 . S
H2802 C2808 0.930 . S
H2803 C2812 0.930 . S
H2804 C2817 0.929 . S
H2805 C2815 0.929 . S
H2806 C2810 0.929 . S
H2807 C2816 0.929 . S
C2808 H2802 0.930 . S
C2808 C2809 1.367 . S
C2808 C2816 1.378 . S
C2809 C2808 1.367 . S
C2809 C2817 1.433 . S
C2810 H2806 0.929 . S
C2810 C2812 1.378 . S
C2810 C2814 1.350 . S
C2811 C2814 1.463 1_565 S
C2811 C2816 1.350 . S
C2811 N2819 1.427 . S
C2812 H2803 0.930 . S
C2812 C2810 1.378 . S
C2812 C2813 1.367 . S
C2813 C2812 1.367 . S
C2813 C2815 1.433 . S
C2814 C2810 1.350 . S
C2814 C2811 1.463 1_545 S
C2814 N2818 1.427 1_545 S
C2815 H2805 0.929 . S
C2815 C2813 1.433 . S
C2815 N2818 1.384 1_545 S
C2816 H2807 0.929 . S
C2816 C2808 1.378 . S
C2816 C2811 1.350 . S
C2817 H2804 0.929 . S
C2817 C2809 1.433 . S
C2817 N2819 1.384 . S
N2818 C2814 1.427 1_565 S
N2818 C2815 1.384 1_565 S
N2819 C2811 1.427 . S
N2819 C2817 1.384 . S
H2820 C2826 0.930 . S
H2821 C2830 0.930 . S
H2822 C2835 0.929 . S
H2823 C2833 0.929 . S
H2824 C2828 0.958 . S
H2825 C2834 0.929 1_556 S
C2826 H2820 0.930 . S
C2826 C2827 1.367 . S
C2826 C2834 1.378 . S
C2827 C2826 1.367 . S
C2827 C2835 1.433 . S
C2828 H2824 0.958 . S
C2828 C2830 1.378 . S
C2828 C2832 1.350 . S
C2829 C2832 1.463 1_554 S
C2829 C2834 1.350 . S
C2829 N2837 1.427 . S
C2830 H2821 0.930 . S
C2830 C2828 1.378 . S
C2830 C2831 1.367 . S
C2831 C2830 1.367 . S
C2831 C2833 1.433 . S
C2832 C2828 1.350 . S
C2832 C2829 1.463 1_556 S
C2832 N2836 1.427 . S
C2833 H2823 0.929 . S
C2833 C2831 1.433 . S
C2833 N2836 1.384 . S
C2834 H2825 0.929 1_554 S
C2834 C2826 1.378 . S
C2834 C2829 1.350 . S
C2835 H2822 0.929 . S
C2835 C2827 1.433 . S
C2835 N2837 1.384 . S
N2836 C2832 1.427 . S
N2836 C2833 1.384 . S
N2837 C2829 1.427 . S
N2837 C2835 1.384 . S
H2838 C2844 0.930 . S
H2839 C2848 0.930 . S
H2840 C2853 0.929 . S
H2841 C2851 0.929 . S
H2842 C2846 0.929 . S
H2843 C2852 0.929 . S
C2844 H2838 0.930 . S
C2844 C2845 1.367 . S
C2844 C2852 1.378 . S
C2845 C2844 1.367 . S
C2845 C2853 1.433 . S
C2846 H2842 0.929 . S
C2846 C2848 1.378 . S
C2846 C2850 1.350 . S
C2847 C2850 1.463 . S
C2847 C2852 1.350 . S
C2847 N2855 1.427 . S
C2848 H2839 0.930 . S
C2848 C2846 1.378 . S
C2848 C2849 1.367 . S
C2849 C2848 1.367 . S
C2849 C2851 1.433 . S
C2850 C2846 1.350 . S
C2850 C2847 1.463 . S
C2850 N2854 1.427 . S
C2851 H2841 0.929 . S
C2851 C2849 1.433 . S
C2851 N2854 1.384 . S
C2852 H2843 0.929 . S
C2852 C2844 1.378 . S
C2852 C2847 1.350 . S
C2853 H2840 0.929 . S
C2853 C2845 1.433 . S
C2853 N2855 1.384 . S
N2854 C2850 1.427 . S
N2854 C2851 1.384 . S
N2855 C2847 1.427 . S
N2855 C2853 1.384 . S
H2856 C2862 0.930 . S
H2857 C2866 0.930 . S
H2858 C2871 0.929 . S
H2859 C2869 0.929 . S
H2860 C2864 0.966 . S
H2861 C2870 0.929 1_554 S
C2862 H2856 0.930 . S
C2862 C2863 1.367 . S
C2862 C2870 1.378 . S
C2863 C2862 1.367 . S
C2863 C2871 1.433 . S
C2864 H2860 0.966 . S
C2864 C2866 1.378 . S
C2864 C2868 1.350 . S
C2865 C2868 1.463 1_556 S
C2865 C2870 1.350 . S
C2865 N2873 1.427 . S
C2866 H2857 0.930 . S
C2866 C2864 1.378 . S
C2866 C2867 1.367 . S
C2867 C2866 1.367 . S
C2867 C2869 1.433 . S
C2868 C2864 1.350 . S
C2868 C2865 1.463 1_554 S
C2868 N2872 1.427 . S
C2869 H2859 0.929 . S
C2869 C2867 1.433 . S
C2869 N2872 1.384 . S
C2870 H2861 0.929 1_556 S
C2870 C2862 1.378 . S
C2870 C2865 1.350 . S
C2871 H2858 0.929 . S
C2871 C2863 1.433 . S
C2871 N2873 1.384 . S
N2872 C2868 1.427 . S
N2872 C2869 1.384 . S
N2873 C2865 1.427 . S
N2873 C2871 1.384 . S
H2874 C2880 0.930 . S
H2875 C2884 0.930 . S
H2876 C2889 0.929 . S
H2877 C2887 0.929 . S
H2878 C2882 0.929 . S
H2879 C2888 0.929 . S
C2880 H2874 0.930 . S
C2880 C2881 1.367 . S
C2880 C2888 1.378 . S
C2881 C2880 1.367 . S
C2881 C2889 1.433 . S
C2882 H2878 0.929 . S
C2882 C2884 1.378 . S
C2882 C2886 1.350 . S
C2883 C2886 1.463 . S
C2883 C2888 1.350 . S
C2883 N2891 1.427 . S
C2884 H2875 0.930 . S
C2884 C2882 1.378 . S
C2884 C2885 1.367 . S
C2885 C2884 1.367 . S
C2885 C2887 1.433 . S
C2886 C2882 1.350 . S
C2886 C2883 1.463 . S
C2886 N2890 1.427 . S
C2887 H2877 0.929 . S
C2887 C2885 1.433 . S
C2887 N2890 1.384 . S
C2888 H2879 0.929 . S
C2888 C2880 1.378 . S
C2888 C2883 1.350 . S
C2889 H2876 0.929 . S
C2889 C2881 1.433 . S
C2889 N2891 1.384 . S
N2890 C2886 1.427 . S
N2890 C2887 1.384 . S
N2891 C2883 1.427 . S
N2891 C2889 1.384 . S
H2892 C2898 0.930 . S
H2893 C2902 0.930 . S
H2894 C2907 0.929 . S
H2895 C2905 0.929 . S
H2896 C2900 0.929 . S
H2897 C2906 0.929 . S
C2898 H2892 0.930 . S
C2898 C2899 1.367 . S
C2898 C2906 1.378 . S
C2899 C2898 1.367 . S
C2899 C2907 1.433 . S
C2900 H2896 0.929 . S
C2900 C2902 1.378 . S
C2900 C2904 1.350 . S
C2901 C2904 1.463 . S
C2901 C2906 1.350 . S
C2901 N2909 1.427 . S
C2902 H2893 0.930 . S
C2902 C2900 1.378 . S
C2902 C2903 1.367 . S
C2903 C2902 1.367 . S
C2903 C2905 1.433 . S
C2904 C2900 1.350 . S
C2904 C2901 1.463 . S
C2904 N2908 1.427 . S
C2905 H2895 0.929 . S
C2905 C2903 1.433 . S
C2905 N2908 1.384 . S
C2906 H2897 0.929 . S
C2906 C2898 1.378 . S
C2906 C2901 1.350 . S
C2907 H2894 0.929 . S
C2907 C2899 1.433 . S
C2907 N2909 1.384 . S
N2908 C2904 1.427 . S
N2908 C2905 1.384 . S
N2909 C2901 1.427 . S
N2909 C2907 1.384 . S
H2910 C2916 0.930 . S
H2911 C2920 0.930 . S
H2912 C2925 0.929 . S
H2913 C2923 0.929 . S
H2914 C2918 0.929 . S
H2915 C2924 0.929 . S
C2916 H2910 0.930 . S
C2916 C2917 1.367 . S
C2916 C2924 1.378 . S
C2917 C2916 1.367 . S
C2917 C2925 1.433 . S
C2918 H2914 0.929 . S
C2918 C2920 1.378 . S
C2918 C2922 1.350 . S
C2919 C2922 1.463 . S
C2919 C2924 1.350 . S
C2919 N2927 1.427 . S
C2920 H2911 0.930 . S
C2920 C2918 1.378 . S
C2920 C2921 1.367 . S
C2921 C2920 1.367 . S
C2921 C2923 1.433 . S
C2922 C2918 1.350 . S
C2922 C2919 1.463 . S
C2922 N2926 1.427 . S
C2923 H2913 0.929 . S
C2923 C2921 1.433 . S
C2923 N2926 1.384 . S
C2924 H2915 0.929 . S
C2924 C2916 1.378 . S
C2924 C2919 1.350 . S
C2925 H2912 0.929 . S
C2925 C2917 1.433 . S
C2925 N2927 1.384 . S
N2926 C2922 1.427 . S
N2926 C2923 1.384 . S
N2927 C2919 1.427 . S
N2927 C2925 1.384 . S
H2928 C2934 0.930 . S
H2929 C2938 0.930 . S
H2930 C2943 0.929 . S
H2931 C2941 0.929 . S
H2932 C2936 0.929 1_545 S
H2933 C2942 0.929 . S
C2934 H2928 0.930 . S
C2934 C2935 1.367 . S
C2934 C2942 1.378 1_545 S
C2935 C2934 1.367 . S
C2935 C2943 1.433 . S
C2936 H2932 0.929 1_565 S
C2936 C2938 1.378 . S
C2936 C2940 1.350 . S
C2937 C2940 1.463 1_545 S
C2937 C2942 1.350 1_545 S
C2937 N2945 1.427 . S
C2938 H2929 0.930 . S
C2938 C2936 1.378 . S
C2938 C2939 1.367 . S
C2939 C2938 1.367 . S
C2939 C2941 1.433 . S
C2940 C2936 1.350 . S
C2940 C2937 1.463 1_565 S
C2940 N2944 1.427 . S
C2941 H2931 0.929 . S
C2941 C2939 1.433 . S
C2941 N2944 1.384 . S
C2942 H2933 0.929 . S
C2942 C2934 1.378 1_565 S
C2942 C2937 1.350 1_565 S
C2943 H2930 0.929 . S
C2943 C2935 1.433 . S
C2943 N2945 1.384 . S
N2944 C2940 1.427 . S
N2944 C2941 1.384 . S
N2945 C2937 1.427 . S
N2945 C2943 1.384 . S
H2946 C2952 0.930 . S
H2947 C2956 0.930 . S
H2948 C2961 0.929 . S
H2949 C2959 0.929 . S
H2950 C2954 0.929 . S
H2951 C2960 0.929 . S
C2952 H2946 0.930 . S
C2952 C2953 1.367 . S
C2952 C2960 1.378 . S
C2953 C2952 1.367 . S
C2953 C2961 1.433 . S
C2954 H2950 0.929 . S
C2954 C2956 1.378 . S
C2954 C2958 1.350 . S
C2955 C2958 1.463 . S
C2955 C2960 1.350 . S
C2955 N2963 1.427 . S
C2956 H2947 0.930 . S
C2956 C2954 1.378 . S
C2956 C2957 1.367 . S
C2957 C2956 1.367 . S
C2957 C2959 1.433 . S
C2958 C2954 1.350 . S
C2958 C2955 1.463 . S
C2958 N2962 1.427 . S
C2959 H2949 0.929 . S
C2959 C2957 1.433 . S
C2959 N2962 1.384 . S
C2960 H2951 0.929 . S
C2960 C2952 1.378 . S
C2960 C2955 1.350 . S
C2961 H2948 0.929 . S
C2961 C2953 1.433 . S
C2961 N2963 1.384 . S
N2962 C2958 1.427 . S
N2962 C2959 1.384 . S
N2963 C2955 1.427 . S
N2963 C2961 1.384 . S
H2964 C2970 0.930 . S
H2965 C2974 0.930 . S
H2966 C2979 0.929 . S
H2967 C2977 0.929 . S
H2968 C2972 0.929 . S
H2969 C2978 0.929 . S
C2970 H2964 0.930 . S
C2970 C2971 1.367 . S
C2970 C2978 1.378 . S
C2971 C2970 1.367 . S
C2971 C2979 1.433 . S
C2972 H2968 0.929 . S
C2972 C2974 1.378 . S
C2972 C2976 1.350 . S
C2973 C2976 1.463 . S
C2973 C2978 1.350 . S
C2973 N2981 1.427 . S
C2974 H2965 0.930 . S
C2974 C2972 1.378 . S
C2974 C2975 1.367 . S
C2975 C2974 1.367 . S
C2975 C2977 1.433 . S
C2976 C2972 1.350 . S
C2976 C2973 1.463 . S
C2976 N2980 1.427 . S
C2977 H2967 0.929 . S
C2977 C2975 1.433 . S
C2977 N2980 1.384 . S
C2978 H2969 0.929 . S
C2978 C2970 1.378 . S
C2978 C2973 1.350 . S
C2979 H2966 0.929 . S
C2979 C2971 1.433 . S
C2979 N2981 1.384 . S
N2980 C2976 1.427 . S
N2980 C2977 1.384 . S
N2981 C2973 1.427 . S
N2981 C2979 1.384 . S
H2982 C2988 0.930 . S
H2983 C2992 0.930 . S
H2984 C2997 0.929 . S
H2985 C2995 0.929 . S
H2986 C2990 0.929 . S
H2987 C2996 0.929 . S
C2988 H2982 0.930 . S
C2988 C2989 1.367 . S
C2988 C2996 1.378 . S
C2989 C2988 1.367 . S
C2989 C2997 1.433 . S
C2990 H2986 0.929 . S
C2990 C2992 1.378 . S
C2990 C2994 1.350 . S
C2991 C2994 1.463 . S
C2991 C2996 1.350 . S
C2991 N2999 1.427 . S
C2992 H2983 0.930 . S
C2992 C2990 1.378 . S
C2992 C2993 1.367 . S
C2993 C2992 1.367 . S
C2993 C2995 1.433 . S
C2994 C2990 1.350 . S
C2994 C2991 1.463 . S
C2994 N2998 1.427 . S
C2995 H2985 0.929 . S
C2995 C2993 1.433 . S
C2995 N2998 1.384 . S
C2996 H2987 0.929 . S
C2996 C2988 1.378 . S
C2996 C2991 1.350 . S
C2997 H2984 0.929 . S
C2997 C2989 1.433 . S
C2997 N2999 1.384 . S
N2998 C2994 1.427 . S
N2998 C2995 1.384 . S
N2999 C2991 1.427 . S
N2999 C2997 1.384 . S
H3000 C3006 0.930 . S
H3001 C3010 0.930 . S
H3002 C3015 0.929 . S
H3003 C3013 0.929 . S
H3004 C3008 0.929 . S
H3005 C3014 0.929 . S
C3006 H3000 0.930 . S
C3006 C3007 1.367 . S
C3006 C3014 1.378 . S
C3007 C3006 1.367 . S
C3007 C3015 1.433 . S
C3008 H3004 0.929 . S
C3008 C3010 1.378 . S
C3008 C3012 1.350 . S
C3009 C3012 1.463 . S
C3009 C3014 1.350 . S
C3009 N3017 1.427 . S
C3010 H3001 0.930 . S
C3010 C3008 1.378 . S
C3010 C3011 1.367 . S
C3011 C3010 1.367 . S
C3011 C3013 1.433 . S
C3012 C3008 1.350 . S
C3012 C3009 1.463 . S
C3012 N3016 1.427 . S
C3013 H3003 0.929 . S
C3013 C3011 1.433 . S
C3013 N3016 1.384 . S
C3014 H3005 0.929 . S
C3014 C3006 1.378 . S
C3014 C3009 1.350 . S
C3015 H3002 0.929 . S
C3015 C3007 1.433 . S
C3015 N3017 1.384 . S
N3016 C3012 1.427 . S
N3016 C3013 1.384 . S
N3017 C3009 1.427 . S
N3017 C3015 1.384 . S
H3018 C3024 0.930 . S
H3019 C3028 0.930 . S
H3020 C3033 0.929 . S
H3021 C3031 0.929 . S
H3022 C3026 0.929 . S
H3023 C3032 0.929 . S
C3024 H3018 0.930 . S
C3024 C3025 1.367 . S
C3024 C3032 1.378 . S
C3025 C3024 1.367 . S
C3025 C3033 1.433 . S
C3026 H3022 0.929 . S
C3026 C3028 1.378 . S
C3026 C3030 1.350 . S
C3027 C3030 1.463 . S
C3027 C3032 1.350 . S
C3027 N3035 1.427 . S
C3028 H3019 0.930 . S
C3028 C3026 1.378 . S
C3028 C3029 1.367 . S
C3029 C3028 1.367 . S
C3029 C3031 1.433 . S
C3030 C3026 1.350 . S
C3030 C3027 1.463 . S
C3030 N3034 1.427 . S
C3031 H3021 0.929 . S
C3031 C3029 1.433 . S
C3031 N3034 1.384 . S
C3032 H3023 0.929 . S
C3032 C3024 1.378 . S
C3032 C3027 1.350 . S
C3033 H3020 0.929 . S
C3033 C3025 1.433 . S
C3033 N3035 1.384 . S
N3034 C3030 1.427 . S
N3034 C3031 1.384 . S
N3035 C3027 1.427 . S
N3035 C3033 1.384 . S
H3036 C3042 0.930 . S
H3037 C3046 0.930 . S
H3038 C3051 0.929 . S
H3039 C3049 0.929 . S
H3040 C3044 0.929 . S
H3041 C3050 0.929 1_545 S
C3042 H3036 0.930 . S
C3042 C3043 1.367 . S
C3042 C3050 1.378 . S
C3043 C3042 1.367 . S
C3043 C3051 1.433 . S
C3044 H3040 0.929 . S
C3044 C3046 1.378 1_565 S
C3044 C3048 1.350 1_565 S
C3045 C3048 1.463 1_565 S
C3045 C3050 1.350 . S
C3045 N3053 1.427 . S
C3046 H3037 0.930 . S
C3046 C3044 1.378 1_545 S
C3046 C3047 1.367 . S
C3047 C3046 1.367 . S
C3047 C3049 1.433 . S
C3048 C3044 1.350 1_545 S
C3048 C3045 1.463 1_545 S
C3048 N3052 1.427 . S
C3049 H3039 0.929 . S
C3049 C3047 1.433 . S
C3049 N3052 1.384 . S
C3050 H3041 0.929 1_565 S
C3050 C3042 1.378 . S
C3050 C3045 1.350 . S
C3051 H3038 0.929 . S
C3051 C3043 1.433 . S
C3051 N3053 1.384 . S
N3052 C3048 1.427 . S
N3052 C3049 1.384 . S
N3053 C3045 1.427 . S
N3053 C3051 1.384 . S
H3054 C3060 0.930 . S
H3055 C3064 0.930 . S
H3056 C3069 0.929 . S
H3057 C3067 0.929 . S
H3058 C3062 0.929 . S
H3059 C3068 0.929 . S
C3060 H3054 0.930 . S
C3060 C3061 1.367 . S
C3060 C3068 1.378 . S
C3061 C3060 1.367 . S
C3061 C3069 1.433 . S
C3062 H3058 0.929 . S
C3062 C3064 1.378 . S
C3062 C3066 1.350 . S
C3063 C3066 1.463 . S
C3063 C3068 1.350 . S
C3063 N3071 1.427 . S
C3064 H3055 0.930 . S
C3064 C3062 1.378 . S
C3064 C3065 1.367 . S
C3065 C3064 1.367 . S
C3065 C3067 1.433 . S
C3066 C3062 1.350 . S
C3066 C3063 1.463 . S
C3066 N3070 1.427 . S
C3067 H3057 0.929 . S
C3067 C3065 1.433 . S
C3067 N3070 1.384 . S
C3068 H3059 0.929 . S
C3068 C3060 1.378 . S
C3068 C3063 1.350 . S
C3069 H3056 0.929 . S
C3069 C3061 1.433 . S
C3069 N3071 1.384 . S
N3070 C3066 1.427 . S
N3070 C3067 1.384 . S
N3071 C3063 1.427 . S
N3071 C3069 1.384 . S
H3072 C3078 0.930 . S
H3073 C3082 0.930 . S
H3074 C3087 0.929 . S
H3075 C3085 0.929 . S
H3076 C3080 0.929 . S
H3077 C3086 0.929 . S
C3078 H3072 0.930 . S
C3078 C3079 1.367 . S
C3078 C3086 1.378 . S
C3079 C3078 1.367 . S
C3079 C3087 1.433 . S
C3080 H3076 0.929 . S
C3080 C3082 1.378 . S
C3080 C3084 1.350 . S
C3081 C3084 1.463 . S
C3081 C3086 1.350 . S
C3081 N3089 1.427 . S
C3082 H3073 0.930 . S
C3082 C3080 1.378 . S
C3082 C3083 1.367 . S
C3083 C3082 1.367 . S
C3083 C3085 1.433 . S
C3084 C3080 1.350 . S
C3084 C3081 1.463 . S
C3084 N3088 1.427 . S
C3085 H3075 0.929 . S
C3085 C3083 1.433 . S
C3085 N3088 1.384 . S
C3086 H3077 0.929 . S
C3086 C3078 1.378 . S
C3086 C3081 1.350 . S
C3087 H3074 0.929 . S
C3087 C3079 1.433 . S
C3087 N3089 1.384 . S
N3088 C3084 1.427 . S
N3088 C3085 1.384 . S
N3089 C3081 1.427 . S
N3089 C3087 1.384 . S
H3090 C3096 0.930 . S
H3091 C3100 0.930 . S
H3092 C3105 0.929 . S
H3093 C3103 0.929 . S
H3094 C3098 0.929 . S
H3095 C3104 0.929 . S
C3096 H3090 0.930 . S
C3096 C3097 1.367 . S
C3096 C3104 1.378 . S
C3097 C3096 1.367 . S
C3097 C3105 1.433 . S
C3098 H3094 0.929 . S
C3098 C3100 1.378 . S
C3098 C3102 1.350 . S
C3099 C3102 1.463 . S
C3099 C3104 1.350 . S
C3099 N3107 1.427 . S
C3100 H3091 0.930 . S
C3100 C3098 1.378 . S
C3100 C3101 1.367 . S
C3101 C3100 1.367 . S
C3101 C3103 1.433 . S
C3102 C3098 1.350 . S
C3102 C3099 1.463 . S
C3102 N3106 1.427 . S
C3103 H3093 0.929 . S
C3103 C3101 1.433 . S
C3103 N3106 1.384 . S
C3104 H3095 0.929 . S
C3104 C3096 1.378 . S
C3104 C3099 1.350 . S
C3105 H3092 0.929 . S
C3105 C3097 1.433 . S
C3105 N3107 1.384 . S
N3106 C3102 1.427 . S
N3106 C3103 1.384 . S
N3107 C3099 1.427 . S
N3107 C3105 1.384 . S
H3108 C3114 0.930 . S
H3109 C3118 0.930 . S
H3110 C3123 0.929 . S
H3111 C3121 0.929 . S
H3112 C3116 0.929 . S
H3113 C3122 0.929 . S
C3114 H3108 0.930 . S
C3114 C3115 1.367 . S
C3114 C3122 1.378 . S
C3115 C3114 1.367 . S
C3115 C3123 1.433 . S
C3116 H3112 0.929 . S
C3116 C3118 1.378 . S
C3116 C3120 1.350 . S
C3117 C3120 1.463 . S
C3117 C3122 1.350 . S
C3117 N3125 1.427 . S
C3118 H3109 0.930 . S
C3118 C3116 1.378 . S
C3118 C3119 1.367 . S
C3119 C3118 1.367 . S
C3119 C3121 1.433 . S
C3120 C3116 1.350 . S
C3120 C3117 1.463 . S
C3120 N3124 1.427 . S
C3121 H3111 0.929 . S
C3121 C3119 1.433 . S
C3121 N3124 1.384 . S
C3122 H3113 0.929 . S
C3122 C3114 1.378 . S
C3122 C3117 1.350 . S
C3123 H3110 0.929 . S
C3123 C3115 1.433 . S
C3123 N3125 1.384 . S
N3124 C3120 1.427 . S
N3124 C3121 1.384 . S
N3125 C3117 1.427 . S
N3125 C3123 1.384 . S
H3126 C3132 0.930 . S
H3127 C3136 0.930 . S
H3128 C3141 0.929 . S
H3129 C3139 0.929 . S
H3130 C3134 0.929 . S
H3131 C3140 0.929 . S
C3132 H3126 0.930 . S
C3132 C3133 1.367 . S
C3132 C3140 1.378 . S
C3133 C3132 1.367 . S
C3133 C3141 1.433 . S
C3134 H3130 0.929 . S
C3134 C3136 1.378 . S
C3134 C3138 1.350 . S
C3135 C3138 1.463 . S
C3135 C3140 1.350 . S
C3135 N3143 1.427 . S
C3136 H3127 0.930 . S
C3136 C3134 1.378 . S
C3136 C3137 1.367 . S
C3137 C3136 1.367 . S
C3137 C3139 1.433 . S
C3138 C3134 1.350 . S
C3138 C3135 1.463 . S
C3138 N3142 1.427 . S
C3139 H3129 0.929 . S
C3139 C3137 1.433 . S
C3139 N3142 1.384 . S
C3140 H3131 0.929 . S
C3140 C3132 1.378 . S
C3140 C3135 1.350 . S
C3141 H3128 0.929 . S
C3141 C3133 1.433 . S
C3141 N3143 1.384 . S
N3142 C3138 1.427 . S
N3142 C3139 1.384 . S
N3143 C3135 1.427 . S
N3143 C3141 1.384 . S
H3144 C3150 0.930 . S
H3145 C3154 0.930 . S
H3146 C3159 0.929 . S
H3147 C3157 0.929 . S
H3148 C3152 0.929 . S
H3149 C3158 0.929 . S
C3150 H3144 0.930 . S
C3150 C3151 1.367 . S
C3150 C3158 1.378 . S
C3151 C3150 1.367 . S
C3151 C3159 1.433 . S
C3152 H3148 0.929 . S
C3152 C3154 1.378 . S
C3152 C3156 1.350 . S
C3153 C3156 1.463 . S
C3153 C3158 1.350 . S
C3153 N3161 1.427 . S
C3154 H3145 0.930 . S
C3154 C3152 1.378 . S
C3154 C3155 1.367 . S
C3155 C3154 1.367 . S
C3155 C3157 1.433 . S
C3156 C3152 1.350 . S
C3156 C3153 1.463 . S
C3156 N3160 1.427 . S
C3157 H3147 0.929 . S
C3157 C3155 1.433 . S
C3157 N3160 1.384 . S
C3158 H3149 0.929 . S
C3158 C3150 1.378 . S
C3158 C3153 1.350 . S
C3159 H3146 0.929 . S
C3159 C3151 1.433 . S
C3159 N3161 1.384 . S
N3160 C3156 1.427 . S
N3160 C3157 1.384 . S
N3161 C3153 1.427 . S
N3161 C3159 1.384 . S
H3162 C3168 0.930 . S
H3163 C3172 0.930 . S
H3164 C3177 0.929 . S
H3165 C3175 0.929 . S
H3166 C3170 0.929 . S
H3167 C3176 0.929 . S
C3168 H3162 0.930 . S
C3168 C3169 1.367 . S
C3168 C3176 1.378 . S
C3169 C3168 1.367 . S
C3169 C3177 1.433 . S
C3170 H3166 0.929 . S
C3170 C3172 1.378 . S
C3170 C3174 1.350 . S
C3171 C3174 1.463 . S
C3171 C3176 1.350 . S
C3171 N3179 1.427 . S
C3172 H3163 0.930 . S
C3172 C3170 1.378 . S
C3172 C3173 1.367 . S
C3173 C3172 1.367 . S
C3173 C3175 1.433 . S
C3174 C3170 1.350 . S
C3174 C3171 1.463 . S
C3174 N3178 1.427 . S
C3175 H3165 0.929 . S
C3175 C3173 1.433 . S
C3175 N3178 1.384 . S
C3176 H3167 0.929 . S
C3176 C3168 1.378 . S
C3176 C3171 1.350 . S
C3177 H3164 0.929 . S
C3177 C3169 1.433 . S
C3177 N3179 1.384 . S
N3178 C3174 1.427 . S
N3178 C3175 1.384 . S
N3179 C3171 1.427 . S
N3179 C3177 1.384 . S
H3180 C3186 0.930 . S
H3181 C3190 0.930 . S
H3182 C3195 0.929 . S
H3183 C3193 0.929 . S
H3184 C3188 0.929 . S
H3185 C3194 0.929 . S
C3186 H3180 0.930 . S
C3186 C3187 1.367 . S
C3186 C3194 1.378 . S
C3187 C3186 1.367 . S
C3187 C3195 1.433 . S
C3188 H3184 0.929 . S
C3188 C3190 1.378 . S
C3188 C3192 1.350 . S
C3189 C3192 1.463 . S
C3189 C3194 1.350 . S
C3189 N3197 1.427 . S
C3190 H3181 0.930 . S
C3190 C3188 1.378 . S
C3190 C3191 1.367 . S
C3191 C3190 1.367 . S
C3191 C3193 1.433 . S
C3192 C3188 1.350 . S
C3192 C3189 1.463 . S
C3192 N3196 1.427 . S
C3193 H3183 0.929 . S
C3193 C3191 1.433 . S
C3193 N3196 1.384 . S
C3194 H3185 0.929 . S
C3194 C3186 1.378 . S
C3194 C3189 1.350 . S
C3195 H3182 0.929 . S
C3195 C3187 1.433 . S
C3195 N3197 1.384 . S
N3196 C3192 1.427 . S
N3196 C3193 1.384 . S
N3197 C3189 1.427 . S
N3197 C3195 1.384 . S
H3198 C3204 0.930 . S
H3199 C3208 0.930 . S
H3200 C3213 0.929 . S
H3201 C3211 0.929 . S
H3202 C3206 0.929 . S
H3203 C3212 0.929 . S
C3204 H3198 0.930 . S
C3204 C3205 1.367 . S
C3204 C3212 1.378 . S
C3205 C3204 1.367 . S
C3205 C3213 1.433 . S
C3206 H3202 0.929 . S
C3206 C3208 1.378 . S
C3206 C3210 1.350 . S
C3207 C3210 1.463 . S
C3207 C3212 1.350 . S
C3207 N3215 1.427 . S
C3208 H3199 0.930 . S
C3208 C3206 1.378 . S
C3208 C3209 1.367 . S
C3209 C3208 1.367 . S
C3209 C3211 1.433 . S
C3210 C3206 1.350 . S
C3210 C3207 1.463 . S
C3210 N3214 1.427 . S
C3211 H3201 0.929 . S
C3211 C3209 1.433 . S
C3211 N3214 1.384 . S
C3212 H3203 0.929 . S
C3212 C3204 1.378 . S
C3212 C3207 1.350 . S
C3213 H3200 0.929 . S
C3213 C3205 1.433 . S
C3213 N3215 1.384 . S
N3214 C3210 1.427 . S
N3214 C3211 1.384 . S
N3215 C3207 1.427 . S
N3215 C3213 1.384 . S
H3216 C3222 0.930 . S
H3217 C3226 0.930 . S
H3218 C3231 0.929 . S
H3219 C3229 0.929 . S
H3220 C3224 0.929 . S
H3221 C3230 0.929 . S
C3222 H3216 0.930 . S
C3222 C3223 1.367 . S
C3222 C3230 1.378 . S
C3223 C3222 1.367 . S
C3223 C3231 1.433 . S
C3224 H3220 0.929 . S
C3224 C3226 1.378 . S
C3224 C3228 1.350 . S
C3225 C3228 1.463 . S
C3225 C3230 1.350 . S
C3225 N3233 1.427 . S
C3226 H3217 0.930 . S
C3226 C3224 1.378 . S
C3226 C3227 1.367 . S
C3227 C3226 1.367 . S
C3227 C3229 1.433 . S
C3228 C3224 1.350 . S
C3228 C3225 1.463 . S
C3228 N3232 1.427 . S
C3229 H3219 0.929 . S
C3229 C3227 1.433 . S
C3229 N3232 1.384 . S
C3230 H3221 0.929 . S
C3230 C3222 1.378 . S
C3230 C3225 1.350 . S
C3231 H3218 0.929 . S
C3231 C3223 1.433 . S
C3231 N3233 1.384 . S
N3232 C3228 1.427 . S
N3232 C3229 1.384 . S
N3233 C3225 1.427 . S
N3233 C3231 1.384 . S
H3234 C3240 0.930 . S
H3235 C3244 0.930 . S
H3236 C3249 0.929 . S
H3237 C3247 0.929 . S
H3238 C3242 0.929 . S
H3239 C3248 0.929 . S
C3240 H3234 0.930 . S
C3240 C3241 1.367 . S
C3240 C3248 1.378 . S
C3241 C3240 1.367 . S
C3241 C3249 1.433 . S
C3242 H3238 0.929 . S
C3242 C3244 1.378 . S
C3242 C3246 1.350 . S
C3243 C3246 1.463 . S
C3243 C3248 1.350 . S
C3243 N3251 1.427 . S
C3244 H3235 0.930 . S
C3244 C3242 1.378 . S
C3244 C3245 1.367 . S
C3245 C3244 1.367 . S
C3245 C3247 1.433 . S
C3246 C3242 1.350 . S
C3246 C3243 1.463 . S
C3246 N3250 1.427 . S
C3247 H3237 0.929 . S
C3247 C3245 1.433 . S
C3247 N3250 1.384 . S
C3248 H3239 0.929 . S
C3248 C3240 1.378 . S
C3248 C3243 1.350 . S
C3249 H3236 0.929 . S
C3249 C3241 1.433 . S
C3249 N3251 1.384 . S
N3250 C3246 1.427 . S
N3250 C3247 1.384 . S
N3251 C3243 1.427 . S
N3251 C3249 1.384 . S
H3252 C3258 0.930 . S
H3253 C3262 0.930 . S
H3254 C3267 0.929 . S
H3255 C3265 0.929 . S
H3256 C3260 0.929 . S
H3257 C3266 0.929 . S
C3258 H3252 0.930 . S
C3258 C3259 1.367 . S
C3258 C3266 1.378 . S
C3259 C3258 1.367 . S
C3259 C3267 1.433 . S
C3260 H3256 0.929 . S
C3260 C3262 1.378 . S
C3260 C3264 1.350 . S
C3261 C3264 1.463 . S
C3261 C3266 1.350 . S
C3261 N3269 1.427 . S
C3262 H3253 0.930 . S
C3262 C3260 1.378 . S
C3262 C3263 1.367 . S
C3263 C3262 1.367 . S
C3263 C3265 1.433 . S
C3264 C3260 1.350 . S
C3264 C3261 1.463 . S
C3264 N3268 1.427 . S
C3265 H3255 0.929 . S
C3265 C3263 1.433 . S
C3265 N3268 1.384 . S
C3266 H3257 0.929 . S
C3266 C3258 1.378 . S
C3266 C3261 1.350 . S
C3267 H3254 0.929 . S
C3267 C3259 1.433 . S
C3267 N3269 1.384 . S
N3268 C3264 1.427 . S
N3268 C3265 1.384 . S
N3269 C3261 1.427 . S
N3269 C3267 1.384 . S
H3270 C3276 0.930 . S
H3271 C3280 0.930 . S
H3272 C3285 0.929 . S
H3273 C3283 0.929 . S
H3274 C3278 0.929 . S
H3275 C3284 0.929 . S
C3276 H3270 0.930 . S
C3276 C3277 1.367 . S
C3276 C3284 1.378 . S
C3277 C3276 1.367 . S
C3277 C3285 1.433 . S
C3278 H3274 0.929 . S
C3278 C3280 1.378 . S
C3278 C3282 1.350 . S
C3279 C3282 1.463 . S
C3279 C3284 1.350 . S
C3279 N3287 1.427 . S
C3280 H3271 0.930 . S
C3280 C3278 1.378 . S
C3280 C3281 1.367 . S
C3281 C3280 1.367 . S
C3281 C3283 1.433 . S
C3282 C3278 1.350 . S
C3282 C3279 1.463 . S
C3282 N3286 1.427 . S
C3283 H3273 0.929 . S
C3283 C3281 1.433 . S
C3283 N3286 1.384 . S
C3284 H3275 0.929 . S
C3284 C3276 1.378 . S
C3284 C3279 1.350 . S
C3285 H3272 0.929 . S
C3285 C3277 1.433 . S
C3285 N3287 1.384 . S
N3286 C3282 1.427 . S
N3286 C3283 1.384 . S
N3287 C3279 1.427 . S
N3287 C3285 1.384 . S
H3288 C3294 0.930 . S
H3289 C3298 0.930 . S
H3290 C3303 0.929 . S
H3291 C3301 0.929 . S
H3292 C3296 0.929 . S
H3293 C3302 0.929 . S
C3294 H3288 0.930 . S
C3294 C3295 1.367 . S
C3294 C3302 1.378 . S
C3295 C3294 1.367 . S
C3295 C3303 1.433 . S
C3296 H3292 0.929 . S
C3296 C3298 1.378 . S
C3296 C3300 1.350 . S
C3297 C3300 1.463 . S
C3297 C3302 1.350 . S
C3297 N3305 1.427 . S
C3298 H3289 0.930 . S
C3298 C3296 1.378 . S
C3298 C3299 1.367 . S
C3299 C3298 1.367 . S
C3299 C3301 1.433 . S
C3300 C3296 1.350 . S
C3300 C3297 1.463 . S
C3300 N3304 1.427 . S
C3301 H3291 0.929 . S
C3301 C3299 1.433 . S
C3301 N3304 1.384 . S
C3302 H3293 0.929 . S
C3302 C3294 1.378 . S
C3302 C3297 1.350 . S
C3303 H3290 0.929 . S
C3303 C3295 1.433 . S
C3303 N3305 1.384 . S
N3304 C3300 1.427 . S
N3304 C3301 1.384 . S
N3305 C3297 1.427 . S
N3305 C3303 1.384 . S
H3306 C3312 0.930 . S
H3307 C3316 0.930 . S
H3308 C3321 0.929 . S
H3309 C3319 0.929 . S
H3310 C3314 0.929 . S
H3311 C3320 0.929 . S
C3312 H3306 0.930 . S
C3312 C3313 1.367 . S
C3312 C3320 1.378 . S
C3313 C3312 1.367 . S
C3313 C3321 1.433 . S
C3314 H3310 0.929 . S
C3314 C3316 1.378 . S
C3314 C3318 1.350 . S
C3315 C3318 1.463 . S
C3315 C3320 1.350 . S
C3315 N3323 1.427 . S
C3316 H3307 0.930 . S
C3316 C3314 1.378 . S
C3316 C3317 1.367 . S
C3317 C3316 1.367 . S
C3317 C3319 1.433 . S
C3318 C3314 1.350 . S
C3318 C3315 1.463 . S
C3318 N3322 1.427 . S
C3319 H3309 0.929 . S
C3319 C3317 1.433 . S
C3319 N3322 1.384 . S
C3320 H3311 0.929 . S
C3320 C3312 1.378 . S
C3320 C3315 1.350 . S
C3321 H3308 0.929 . S
C3321 C3313 1.433 . S
C3321 N3323 1.384 . S
N3322 C3318 1.427 . S
N3322 C3319 1.384 . S
N3323 C3315 1.427 . S
N3323 C3321 1.384 . S
H3324 C3330 0.930 . S
H3325 C3334 0.930 . S
H3326 C3339 0.929 . S
H3327 C3337 0.929 . S
H3328 C3332 0.929 . S
H3329 C3338 0.929 . S
C3330 H3324 0.930 . S
C3330 C3331 1.367 . S
C3330 C3338 1.378 . S
C3331 C3330 1.367 . S
C3331 C3339 1.433 . S
C3332 H3328 0.929 . S
C3332 C3334 1.378 . S
C3332 C3336 1.350 . S
C3333 C3336 1.463 . S
C3333 C3338 1.350 . S
C3333 N3341 1.427 . S
C3334 H3325 0.930 . S
C3334 C3332 1.378 . S
C3334 C3335 1.367 . S
C3335 C3334 1.367 . S
C3335 C3337 1.433 . S
C3336 C3332 1.350 . S
C3336 C3333 1.463 . S
C3336 N3340 1.427 . S
C3337 H3327 0.929 . S
C3337 C3335 1.433 . S
C3337 N3340 1.384 . S
C3338 H3329 0.929 . S
C3338 C3330 1.378 . S
C3338 C3333 1.350 . S
C3339 H3326 0.929 . S
C3339 C3331 1.433 . S
C3339 N3341 1.384 . S
N3340 C3336 1.427 . S
N3340 C3337 1.384 . S
N3341 C3333 1.427 . S
N3341 C3339 1.384 . S
H3342 C3348 0.930 . S
H3343 C3352 0.930 . S
H3344 C3357 0.929 . S
H3345 C3355 0.929 . S
H3346 C3350 0.929 . S
H3347 C3356 0.929 . S
C3348 H3342 0.930 . S
C3348 C3349 1.367 . S
C3348 C3356 1.378 . S
C3349 C3348 1.367 . S
C3349 C3357 1.433 . S
C3350 H3346 0.929 . S
C3350 C3352 1.378 . S
C3350 C3354 1.350 . S
C3351 C3354 1.463 . S
C3351 C3356 1.350 . S
C3351 N3359 1.427 . S
C3352 H3343 0.930 . S
C3352 C3350 1.378 . S
C3352 C3353 1.367 . S
C3353 C3352 1.367 . S
C3353 C3355 1.433 . S
C3354 C3350 1.350 . S
C3354 C3351 1.463 . S
C3354 N3358 1.427 . S
C3355 H3345 0.929 . S
C3355 C3353 1.433 . S
C3355 N3358 1.384 . S
C3356 H3347 0.929 . S
C3356 C3348 1.378 . S
C3356 C3351 1.350 . S
C3357 H3344 0.929 . S
C3357 C3349 1.433 . S
C3357 N3359 1.384 . S
N3358 C3354 1.427 . S
N3358 C3355 1.384 . S
N3359 C3351 1.427 . S
N3359 C3357 1.384 . S
H3360 C3366 0.930 . S
H3361 C3370 0.930 . S
H3362 C3375 0.929 . S
H3363 C3373 0.929 . S
H3364 C3368 0.929 . S
H3365 C3374 0.929 . S
C3366 H3360 0.930 . S
C3366 C3367 1.367 . S
C3366 C3374 1.378 . S
C3367 C3366 1.367 . S
C3367 C3375 1.433 . S
C3368 H3364 0.929 . S
C3368 C3370 1.378 . S
C3368 C3372 1.350 . S
C3369 C3372 1.463 . S
C3369 C3374 1.350 . S
C3369 N3377 1.427 . S
C3370 H3361 0.930 . S
C3370 C3368 1.378 . S
C3370 C3371 1.367 . S
C3371 C3370 1.367 . S
C3371 C3373 1.433 . S
C3372 C3368 1.350 . S
C3372 C3369 1.463 . S
C3372 N3376 1.427 . S
C3373 H3363 0.929 . S
C3373 C3371 1.433 . S
C3373 N3376 1.384 . S
C3374 H3365 0.929 . S
C3374 C3366 1.378 . S
C3374 C3369 1.350 . S
C3375 H3362 0.929 . S
C3375 C3367 1.433 . S
C3375 N3377 1.384 . S
N3376 C3372 1.427 . S
N3376 C3373 1.384 . S
N3377 C3369 1.427 . S
N3377 C3375 1.384 . S
H3378 C3384 0.930 . S
H3379 C3388 0.930 . S
H3380 C3393 0.929 . S
H3381 C3391 0.929 . S
H3382 C3386 0.929 . S
H3383 C3392 0.929 . S
C3384 H3378 0.930 . S
C3384 C3385 1.367 . S
C3384 C3392 1.378 . S
C3385 C3384 1.367 . S
C3385 C3393 1.433 . S
C3386 H3382 0.929 . S
C3386 C3388 1.378 . S
C3386 C3390 1.350 . S
C3387 C3390 1.463 . S
C3387 C3392 1.350 . S
C3387 N3395 1.427 . S
C3388 H3379 0.930 . S
C3388 C3386 1.378 . S
C3388 C3389 1.367 . S
C3389 C3388 1.367 . S
C3389 C3391 1.433 . S
C3390 C3386 1.350 . S
C3390 C3387 1.463 . S
C3390 N3394 1.427 . S
C3391 H3381 0.929 . S
C3391 C3389 1.433 . S
C3391 N3394 1.384 . S
C3392 H3383 0.929 . S
C3392 C3384 1.378 . S
C3392 C3387 1.350 . S
C3393 H3380 0.929 . S
C3393 C3385 1.433 . S
C3393 N3395 1.384 . S
N3394 C3390 1.427 . S
N3394 C3391 1.384 . S
N3395 C3387 1.427 . S
N3395 C3393 1.384 . S
H3396 C3402 0.930 . S
H3397 C3406 0.930 . S
H3398 C3411 0.929 . S
H3399 C3409 0.929 . S
H3400 C3404 0.929 . S
H3401 C3410 0.929 . S
C3402 H3396 0.930 . S
C3402 C3403 1.367 . S
C3402 C3410 1.378 . S
C3403 C3402 1.367 . S
C3403 C3411 1.433 . S
C3404 H3400 0.929 . S
C3404 C3406 1.378 . S
C3404 C3408 1.350 . S
C3405 C3408 1.463 . S
C3405 C3410 1.350 . S
C3405 N3413 1.427 . S
C3406 H3397 0.930 . S
C3406 C3404 1.378 . S
C3406 C3407 1.367 . S
C3407 C3406 1.367 . S
C3407 C3409 1.433 . S
C3408 C3404 1.350 . S
C3408 C3405 1.463 . S
C3408 N3412 1.427 . S
C3409 H3399 0.929 . S
C3409 C3407 1.433 . S
C3409 N3412 1.384 . S
C3410 H3401 0.929 . S
C3410 C3402 1.378 . S
C3410 C3405 1.350 . S
C3411 H3398 0.929 . S
C3411 C3403 1.433 . S
C3411 N3413 1.384 . S
N3412 C3408 1.427 . S
N3412 C3409 1.384 . S
N3413 C3405 1.427 . S
N3413 C3411 1.384 . S
H3414 C3420 0.930 . S
H3415 C3424 0.930 . S
H3416 C3429 0.929 . S
H3417 C3427 0.929 . S
H3418 C3422 0.929 . S
H3419 C3428 0.929 . S
C3420 H3414 0.930 . S
C3420 C3421 1.367 . S
C3420 C3428 1.378 . S
C3421 C3420 1.367 . S
C3421 C3429 1.433 . S
C3422 H3418 0.929 . S
C3422 C3424 1.378 . S
C3422 C3426 1.350 . S
C3423 C3426 1.463 . S
C3423 C3428 1.350 . S
C3423 N3431 1.427 . S
C3424 H3415 0.930 . S
C3424 C3422 1.378 . S
C3424 C3425 1.367 . S
C3425 C3424 1.367 . S
C3425 C3427 1.433 . S
C3426 C3422 1.350 . S
C3426 C3423 1.463 . S
C3426 N3430 1.427 . S
C3427 H3417 0.929 . S
C3427 C3425 1.433 . S
C3427 N3430 1.384 . S
C3428 H3419 0.929 . S
C3428 C3420 1.378 . S
C3428 C3423 1.350 . S
C3429 H3416 0.929 . S
C3429 C3421 1.433 . S
C3429 N3431 1.384 . S
N3430 C3426 1.427 . S
N3430 C3427 1.384 . S
N3431 C3423 1.427 . S
N3431 C3429 1.384 . S
H3432 C3438 0.930 . S
H3433 C3442 0.930 . S
H3434 C3447 0.929 . S
H3435 C3445 0.929 . S
H3436 C3440 0.929 . S
H3437 C3446 0.929 . S
C3438 H3432 0.930 . S
C3438 C3439 1.367 . S
C3438 C3446 1.378 . S
C3439 C3438 1.367 . S
C3439 C3447 1.433 . S
C3440 H3436 0.929 . S
C3440 C3442 1.378 . S
C3440 C3444 1.350 . S
C3441 C3444 1.463 . S
C3441 C3446 1.350 . S
C3441 N3449 1.427 . S
C3442 H3433 0.930 . S
C3442 C3440 1.378 . S
C3442 C3443 1.367 . S
C3443 C3442 1.367 . S
C3443 C3445 1.433 . S
C3444 C3440 1.350 . S
C3444 C3441 1.463 . S
C3444 N3448 1.427 . S
C3445 H3435 0.929 . S
C3445 C3443 1.433 . S
C3445 N3448 1.384 . S
C3446 H3437 0.929 . S
C3446 C3438 1.378 . S
C3446 C3441 1.350 . S
C3447 H3434 0.929 . S
C3447 C3439 1.433 . S
C3447 N3449 1.384 . S
N3448 C3444 1.427 . S
N3448 C3445 1.384 . S
N3449 C3441 1.427 . S
N3449 C3447 1.384 . S
H3450 C3456 0.930 . S
H3451 C3460 0.930 . S
H3452 C3465 0.929 . S
H3453 C3463 0.929 . S
H3454 C3458 0.929 . S
H3455 C3464 0.929 . S
C3456 H3450 0.930 . S
C3456 C3457 1.367 . S
C3456 C3464 1.378 . S
C3457 C3456 1.367 . S
C3457 C3465 1.433 . S
C3458 H3454 0.929 . S
C3458 C3460 1.378 . S
C3458 C3462 1.350 . S
C3459 C3462 1.463 . S
C3459 C3464 1.350 . S
C3459 N3467 1.427 . S
C3460 H3451 0.930 . S
C3460 C3458 1.378 . S
C3460 C3461 1.367 . S
C3461 C3460 1.367 . S
C3461 C3463 1.433 . S
C3462 C3458 1.350 . S
C3462 C3459 1.463 . S
C3462 N3466 1.427 . S
C3463 H3453 0.929 . S
C3463 C3461 1.433 . S
C3463 N3466 1.384 . S
C3464 H3455 0.929 . S
C3464 C3456 1.378 . S
C3464 C3459 1.350 . S
C3465 H3452 0.929 . S
C3465 C3457 1.433 . S
C3465 N3467 1.384 . S
N3466 C3462 1.427 . S
N3466 C3463 1.384 . S
N3467 C3459 1.427 . S
N3467 C3465 1.384 . S
H3468 C3474 0.930 . S
H3469 C3478 0.930 . S
H3470 C3483 0.929 . S
H3471 C3481 0.929 . S
H3472 C3476 0.929 . S
H3473 C3482 0.929 . S
C3474 H3468 0.930 . S
C3474 C3475 1.367 . S
C3474 C3482 1.378 . S
C3475 C3474 1.367 . S
C3475 C3483 1.433 . S
C3476 H3472 0.929 . S
C3476 C3478 1.378 . S
C3476 C3480 1.350 . S
C3477 C3480 1.463 . S
C3477 C3482 1.350 . S
C3477 N3485 1.427 . S
C3478 H3469 0.930 . S
C3478 C3476 1.378 . S
C3478 C3479 1.367 . S
C3479 C3478 1.367 . S
C3479 C3481 1.433 . S
C3480 C3476 1.350 . S
C3480 C3477 1.463 . S
C3480 N3484 1.427 . S
C3481 H3471 0.929 . S
C3481 C3479 1.433 . S
C3481 N3484 1.384 . S
C3482 H3473 0.929 . S
C3482 C3474 1.378 . S
C3482 C3477 1.350 . S
C3483 H3470 0.929 . S
C3483 C3475 1.433 . S
C3483 N3485 1.384 . S
N3484 C3480 1.427 . S
N3484 C3481 1.384 . S
N3485 C3477 1.427 . S
N3485 C3483 1.384 . S
H3486 C3492 0.930 . S
H3487 C3496 0.930 . S
H3488 C3501 0.929 . S
H3489 C3499 0.929 . S
H3490 C3494 0.929 . S
H3491 C3500 0.929 . S
C3492 H3486 0.930 . S
C3492 C3493 1.367 . S
C3492 C3500 1.378 . S
C3493 C3492 1.367 . S
C3493 C3501 1.433 . S
C3494 H3490 0.929 . S
C3494 C3496 1.378 . S
C3494 C3498 1.350 . S
C3495 C3498 1.463 . S
C3495 C3500 1.350 . S
C3495 N3503 1.427 . S
C3496 H3487 0.930 . S
C3496 C3494 1.378 . S
C3496 C3497 1.367 . S
C3497 C3496 1.367 . S
C3497 C3499 1.433 . S
C3498 C3494 1.350 . S
C3498 C3495 1.463 . S
C3498 N3502 1.427 . S
C3499 H3489 0.929 . S
C3499 C3497 1.433 . S
C3499 N3502 1.384 . S
C3500 H3491 0.929 . S
C3500 C3492 1.378 . S
C3500 C3495 1.350 . S
C3501 H3488 0.929 . S
C3501 C3493 1.433 . S
C3501 N3503 1.384 . S
N3502 C3498 1.427 . S
N3502 C3499 1.384 . S
N3503 C3495 1.427 . S
N3503 C3501 1.384 . S
H3504 C3510 0.930 . S
H3505 C3514 0.930 . S
H3506 C3519 0.929 . S
H3507 C3517 0.929 . S
H3508 C3512 0.929 . S
H3509 C3518 0.929 . S
C3510 H3504 0.930 . S
C3510 C3511 1.367 . S
C3510 C3518 1.378 . S
C3511 C3510 1.367 . S
C3511 C3519 1.433 . S
C3512 H3508 0.929 . S
C3512 C3514 1.378 . S
C3512 C3516 1.350 . S
C3513 C3516 1.463 . S
C3513 C3518 1.350 . S
C3513 N3521 1.427 . S
C3514 H3505 0.930 . S
C3514 C3512 1.378 . S
C3514 C3515 1.367 . S
C3515 C3514 1.367 . S
C3515 C3517 1.433 . S
C3516 C3512 1.350 . S
C3516 C3513 1.463 . S
C3516 N3520 1.427 . S
C3517 H3507 0.929 . S
C3517 C3515 1.433 . S
C3517 N3520 1.384 . S
C3518 H3509 0.929 . S
C3518 C3510 1.378 . S
C3518 C3513 1.350 . S
C3519 H3506 0.929 . S
C3519 C3511 1.433 . S
C3519 N3521 1.384 . S
N3520 C3516 1.427 . S
N3520 C3517 1.384 . S
N3521 C3513 1.427 . S
N3521 C3519 1.384 . S
H3522 C3528 0.930 . S
H3523 C3532 0.930 . S
H3524 C3537 0.929 . S
H3525 C3535 0.929 . S
H3526 C3530 0.929 . S
H3527 C3536 0.929 . S
C3528 H3522 0.930 . S
C3528 C3529 1.367 . S
C3528 C3536 1.378 . S
C3529 C3528 1.367 . S
C3529 C3537 1.433 . S
C3530 H3526 0.929 . S
C3530 C3532 1.378 . S
C3530 C3534 1.350 . S
C3531 C3534 1.463 . S
C3531 C3536 1.350 . S
C3531 N3539 1.427 . S
C3532 H3523 0.930 . S
C3532 C3530 1.378 . S
C3532 C3533 1.367 . S
C3533 C3532 1.367 . S
C3533 C3535 1.433 . S
C3534 C3530 1.350 . S
C3534 C3531 1.463 . S
C3534 N3538 1.427 . S
C3535 H3525 0.929 . S
C3535 C3533 1.433 . S
C3535 N3538 1.384 . S
C3536 H3527 0.929 . S
C3536 C3528 1.378 . S
C3536 C3531 1.350 . S
C3537 H3524 0.929 . S
C3537 C3529 1.433 . S
C3537 N3539 1.384 . S
N3538 C3534 1.427 . S
N3538 C3535 1.384 . S
N3539 C3531 1.427 . S
N3539 C3537 1.384 . S
H3540 C3546 0.930 . S
H3541 C3550 0.930 . S
H3542 C3555 0.929 . S
H3543 C3553 0.929 . S
H3544 C3548 0.929 . S
H3545 C3554 0.929 . S
C3546 H3540 0.930 . S
C3546 C3547 1.367 . S
C3546 C3554 1.378 . S
C3547 C3546 1.367 . S
C3547 C3555 1.433 . S
C3548 H3544 0.929 . S
C3548 C3550 1.378 . S
C3548 C3552 1.350 . S
C3549 C3552 1.463 . S
C3549 C3554 1.350 . S
C3549 N3557 1.427 . S
C3550 H3541 0.930 . S
C3550 C3548 1.378 . S
C3550 C3551 1.367 . S
C3551 C3550 1.367 . S
C3551 C3553 1.433 . S
C3552 C3548 1.350 . S
C3552 C3549 1.463 . S
C3552 N3556 1.427 . S
C3553 H3543 0.929 . S
C3553 C3551 1.433 . S
C3553 N3556 1.384 . S
C3554 H3545 0.929 . S
C3554 C3546 1.378 . S
C3554 C3549 1.350 . S
C3555 H3542 0.929 . S
C3555 C3547 1.433 . S
C3555 N3557 1.384 . S
N3556 C3552 1.427 . S
N3556 C3553 1.384 . S
N3557 C3549 1.427 . S
N3557 C3555 1.384 . S
H3558 C3564 0.930 . S
H3559 C3568 0.930 . S
H3560 C3573 0.929 . S
H3561 C3571 0.929 . S
H3562 C3566 0.929 . S
H3563 C3572 0.929 . S
C3564 H3558 0.930 . S
C3564 C3565 1.367 . S
C3564 C3572 1.378 . S
C3565 C3564 1.367 . S
C3565 C3573 1.433 . S
C3566 H3562 0.929 . S
C3566 C3568 1.378 . S
C3566 C3570 1.350 . S
C3567 C3570 1.463 . S
C3567 C3572 1.350 . S
C3567 N3575 1.427 . S
C3568 H3559 0.930 . S
C3568 C3566 1.378 . S
C3568 C3569 1.367 . S
C3569 C3568 1.367 . S
C3569 C3571 1.433 . S
C3570 C3566 1.350 . S
C3570 C3567 1.463 . S
C3570 N3574 1.427 . S
C3571 H3561 0.929 . S
C3571 C3569 1.433 . S
C3571 N3574 1.384 . S
C3572 H3563 0.929 . S
C3572 C3564 1.378 . S
C3572 C3567 1.350 . S
C3573 H3560 0.929 . S
C3573 C3565 1.433 . S
C3573 N3575 1.384 . S
N3574 C3570 1.427 . S
N3574 C3571 1.384 . S
N3575 C3567 1.427 . S
N3575 C3573 1.384 . S
H3576 C3582 0.930 . S
H3577 C3586 0.930 . S
H3578 C3591 0.929 . S
H3579 C3589 0.929 . S
H3580 C3584 0.929 . S
H3581 C3590 0.929 . S
C3582 H3576 0.930 . S
C3582 C3583 1.367 . S
C3582 C3590 1.378 . S
C3583 C3582 1.367 . S
C3583 C3591 1.433 . S
C3584 H3580 0.929 . S
C3584 C3586 1.378 . S
C3584 C3588 1.350 . S
C3585 C3588 1.463 . S
C3585 C3590 1.350 . S
C3585 N3593 1.427 . S
C3586 H3577 0.930 . S
C3586 C3584 1.378 . S
C3586 C3587 1.367 . S
C3587 C3586 1.367 . S
C3587 C3589 1.433 . S
C3588 C3584 1.350 . S
C3588 C3585 1.463 . S
C3588 N3592 1.427 . S
C3589 H3579 0.929 . S
C3589 C3587 1.433 . S
C3589 N3592 1.384 . S
C3590 H3581 0.929 . S
C3590 C3582 1.378 . S
C3590 C3585 1.350 . S
C3591 H3578 0.929 . S
C3591 C3583 1.433 . S
C3591 N3593 1.384 . S
N3592 C3588 1.427 . S
N3592 C3589 1.384 . S
N3593 C3585 1.427 . S
N3593 C3591 1.384 . S
H3594 C3600 0.930 . S
H3595 C3604 0.930 . S
H3596 C3609 0.929 . S
H3597 C3607 0.929 . S
H3598 C3602 0.929 . S
H3599 C3608 0.929 . S
C3600 H3594 0.930 . S
C3600 C3601 1.367 . S
C3600 C3608 1.378 . S
C3601 C3600 1.367 . S
C3601 C3609 1.433 . S
C3602 H3598 0.929 . S
C3602 C3604 1.378 . S
C3602 C3606 1.350 . S
C3603 C3606 1.463 . S
C3603 C3608 1.350 . S
C3603 N3611 1.427 . S
C3604 H3595 0.930 . S
C3604 C3602 1.378 . S
C3604 C3605 1.367 . S
C3605 C3604 1.367 . S
C3605 C3607 1.433 . S
C3606 C3602 1.350 . S
C3606 C3603 1.463 . S
C3606 N3610 1.427 . S
C3607 H3597 0.929 . S
C3607 C3605 1.433 . S
C3607 N3610 1.384 . S
C3608 H3599 0.929 . S
C3608 C3600 1.378 . S
C3608 C3603 1.350 . S
C3609 H3596 0.929 . S
C3609 C3601 1.433 . S
C3609 N3611 1.384 . S
N3610 C3606 1.427 . S
N3610 C3607 1.384 . S
N3611 C3603 1.427 . S
N3611 C3609 1.384 . S
H3612 C3618 0.930 . S
H3613 C3622 0.930 . S
H3614 C3627 0.929 . S
H3615 C3625 0.929 . S
H3616 C3620 0.929 . S
H3617 C3626 0.929 . S
C3618 H3612 0.930 . S
C3618 C3619 1.367 . S
C3618 C3626 1.378 . S
C3619 C3618 1.367 . S
C3619 C3627 1.433 . S
C3620 H3616 0.929 . S
C3620 C3622 1.378 . S
C3620 C3624 1.350 . S
C3621 C3624 1.463 . S
C3621 C3626 1.350 . S
C3621 N3629 1.427 . S
C3622 H3613 0.930 . S
C3622 C3620 1.378 . S
C3622 C3623 1.367 . S
C3623 C3622 1.367 . S
C3623 C3625 1.433 . S
C3624 C3620 1.350 . S
C3624 C3621 1.463 . S
C3624 N3628 1.427 . S
C3625 H3615 0.929 . S
C3625 C3623 1.433 . S
C3625 N3628 1.384 . S
C3626 H3617 0.929 . S
C3626 C3618 1.378 . S
C3626 C3621 1.350 . S
C3627 H3614 0.929 . S
C3627 C3619 1.433 . S
C3627 N3629 1.384 . S
N3628 C3624 1.427 . S
N3628 C3625 1.384 . S
N3629 C3621 1.427 . S
N3629 C3627 1.384 . S
H3630 C3636 0.930 . S
H3631 C3640 0.930 . S
H3632 C3645 0.929 . S
H3633 C3643 0.929 . S
H3634 C3638 0.929 . S
H3635 C3644 0.929 . S
C3636 H3630 0.930 . S
C3636 C3637 1.367 . S
C3636 C3644 1.378 . S
C3637 C3636 1.367 . S
C3637 C3645 1.433 . S
C3638 H3634 0.929 . S
C3638 C3640 1.378 . S
C3638 C3642 1.350 . S
C3639 C3642 1.463 . S
C3639 C3644 1.350 . S
C3639 N3647 1.427 . S
C3640 H3631 0.930 . S
C3640 C3638 1.378 . S
C3640 C3641 1.367 . S
C3641 C3640 1.367 . S
C3641 C3643 1.433 . S
C3642 C3638 1.350 . S
C3642 C3639 1.463 . S
C3642 N3646 1.427 . S
C3643 H3633 0.929 . S
C3643 C3641 1.433 . S
C3643 N3646 1.384 . S
C3644 H3635 0.929 . S
C3644 C3636 1.378 . S
C3644 C3639 1.350 . S
C3645 H3632 0.929 . S
C3645 C3637 1.433 . S
C3645 N3647 1.384 . S
N3646 C3642 1.427 . S
N3646 C3643 1.384 . S
N3647 C3639 1.427 . S
N3647 C3645 1.384 . S
H3648 C3654 0.930 . S
H3649 C3658 0.930 . S
H3650 C3663 0.929 . S
H3651 C3661 0.929 . S
H3652 C3656 0.929 . S
H3653 C3662 0.929 . S
C3654 H3648 0.930 . S
C3654 C3655 1.367 . S
C3654 C3662 1.378 . S
C3655 C3654 1.367 . S
C3655 C3663 1.433 . S
C3656 H3652 0.929 . S
C3656 C3658 1.378 . S
C3656 C3660 1.350 . S
C3657 C3660 1.463 . S
C3657 C3662 1.350 . S
C3657 N3665 1.427 . S
C3658 H3649 0.930 . S
C3658 C3656 1.378 . S
C3658 C3659 1.367 . S
C3659 C3658 1.367 . S
C3659 C3661 1.433 . S
C3660 C3656 1.350 . S
C3660 C3657 1.463 . S
C3660 N3664 1.427 . S
C3661 H3651 0.929 . S
C3661 C3659 1.433 . S
C3661 N3664 1.384 . S
C3662 H3653 0.929 . S
C3662 C3654 1.378 . S
C3662 C3657 1.350 . S
C3663 H3650 0.929 . S
C3663 C3655 1.433 . S
C3663 N3665 1.384 . S
N3664 C3660 1.427 . S
N3664 C3661 1.384 . S
N3665 C3657 1.427 . S
N3665 C3663 1.384 . S
H3666 C3672 0.930 . S
H3667 C3676 0.930 . S
H3668 C3681 0.929 . S
H3669 C3679 0.929 . S
H3670 C3674 0.929 . S
H3671 C3680 0.929 . S
C3672 H3666 0.930 . S
C3672 C3673 1.367 . S
C3672 C3680 1.378 . S
C3673 C3672 1.367 . S
C3673 C3681 1.433 . S
C3674 H3670 0.929 . S
C3674 C3676 1.378 . S
C3674 C3678 1.350 . S
C3675 C3678 1.463 . S
C3675 C3680 1.350 . S
C3675 N3683 1.427 . S
C3676 H3667 0.930 . S
C3676 C3674 1.378 . S
C3676 C3677 1.367 . S
C3677 C3676 1.367 . S
C3677 C3679 1.433 . S
C3678 C3674 1.350 . S
C3678 C3675 1.463 . S
C3678 N3682 1.427 . S
C3679 H3669 0.929 . S
C3679 C3677 1.433 . S
C3679 N3682 1.384 . S
C3680 H3671 0.929 . S
C3680 C3672 1.378 . S
C3680 C3675 1.350 . S
C3681 H3668 0.929 . S
C3681 C3673 1.433 . S
C3681 N3683 1.384 . S
N3682 C3678 1.427 . S
N3682 C3679 1.384 . S
N3683 C3675 1.427 . S
N3683 C3681 1.384 . S
H3684 C3690 0.930 . S
H3685 C3694 0.930 . S
H3686 C3699 0.929 . S
H3687 C3697 0.929 . S
H3688 C3692 0.929 . S
H3689 C3698 0.929 . S
C3690 H3684 0.930 . S
C3690 C3691 1.367 . S
C3690 C3698 1.378 . S
C3691 C3690 1.367 . S
C3691 C3699 1.433 . S
C3692 H3688 0.929 . S
C3692 C3694 1.378 . S
C3692 C3696 1.350 . S
C3693 C3696 1.463 . S
C3693 C3698 1.350 . S
C3693 N3701 1.427 . S
C3694 H3685 0.930 . S
C3694 C3692 1.378 . S
C3694 C3695 1.367 . S
C3695 C3694 1.367 . S
C3695 C3697 1.433 . S
C3696 C3692 1.350 . S
C3696 C3693 1.463 . S
C3696 N3700 1.427 . S
C3697 H3687 0.929 . S
C3697 C3695 1.433 . S
C3697 N3700 1.384 . S
C3698 H3689 0.929 . S
C3698 C3690 1.378 . S
C3698 C3693 1.350 . S
C3699 H3686 0.929 . S
C3699 C3691 1.433 . S
C3699 N3701 1.384 . S
N3700 C3696 1.427 . S
N3700 C3697 1.384 . S
N3701 C3693 1.427 . S
N3701 C3699 1.384 . S
H3702 C3708 0.930 . S
H3703 C3712 0.930 . S
H3704 C3717 0.929 . S
H3705 C3715 0.929 . S
H3706 C3710 0.929 . S
H3707 C3716 0.929 . S
C3708 H3702 0.930 . S
C3708 C3709 1.367 . S
C3708 C3716 1.378 . S
C3709 C3708 1.367 . S
C3709 C3717 1.433 . S
C3710 H3706 0.929 . S
C3710 C3712 1.378 . S
C3710 C3714 1.350 . S
C3711 C3714 1.463 . S
C3711 C3716 1.350 . S
C3711 N3719 1.427 . S
C3712 H3703 0.930 . S
C3712 C3710 1.378 . S
C3712 C3713 1.367 . S
C3713 C3712 1.367 . S
C3713 C3715 1.433 . S
C3714 C3710 1.350 . S
C3714 C3711 1.463 . S
C3714 N3718 1.427 . S
C3715 H3705 0.929 . S
C3715 C3713 1.433 . S
C3715 N3718 1.384 . S
C3716 H3707 0.929 . S
C3716 C3708 1.378 . S
C3716 C3711 1.350 . S
C3717 H3704 0.929 . S
C3717 C3709 1.433 . S
C3717 N3719 1.384 . S
N3718 C3714 1.427 . S
N3718 C3715 1.384 . S
N3719 C3711 1.427 . S
N3719 C3717 1.384 . S
H3720 C3726 0.930 . S
H3721 C3730 0.930 . S
H3722 C3735 0.929 . S
H3723 C3733 0.929 . S
H3724 C3728 0.929 . S
H3725 C3734 0.929 . S
C3726 H3720 0.930 . S
C3726 C3727 1.367 . S
C3726 C3734 1.378 . S
C3727 C3726 1.367 . S
C3727 C3735 1.433 . S
C3728 H3724 0.929 . S
C3728 C3730 1.378 . S
C3728 C3732 1.350 . S
C3729 C3732 1.463 . S
C3729 C3734 1.350 . S
C3729 N3737 1.427 . S
C3730 H3721 0.930 . S
C3730 C3728 1.378 . S
C3730 C3731 1.367 . S
C3731 C3730 1.367 . S
C3731 C3733 1.433 . S
C3732 C3728 1.350 . S
C3732 C3729 1.463 . S
C3732 N3736 1.427 . S
C3733 H3723 0.929 . S
C3733 C3731 1.433 . S
C3733 N3736 1.384 . S
C3734 H3725 0.929 . S
C3734 C3726 1.378 . S
C3734 C3729 1.350 . S
C3735 H3722 0.929 . S
C3735 C3727 1.433 . S
C3735 N3737 1.384 . S
N3736 C3732 1.427 . S
N3736 C3733 1.384 . S
N3737 C3729 1.427 . S
N3737 C3735 1.384 . S
H3738 C3744 0.930 . S
H3739 C3748 0.930 . S
H3740 C3753 0.929 . S
H3741 C3751 0.929 . S
H3742 C3746 0.929 . S
H3743 C3752 0.929 . S
C3744 H3738 0.930 . S
C3744 C3745 1.367 . S
C3744 C3752 1.378 . S
C3745 C3744 1.367 . S
C3745 C3753 1.433 . S
C3746 H3742 0.929 . S
C3746 C3748 1.378 . S
C3746 C3750 1.350 . S
C3747 C3750 1.463 . S
C3747 C3752 1.350 . S
C3747 N3755 1.427 . S
C3748 H3739 0.930 . S
C3748 C3746 1.378 . S
C3748 C3749 1.367 . S
C3749 C3748 1.367 . S
C3749 C3751 1.433 . S
C3750 C3746 1.350 . S
C3750 C3747 1.463 . S
C3750 N3754 1.427 . S
C3751 H3741 0.929 . S
C3751 C3749 1.433 . S
C3751 N3754 1.384 . S
C3752 H3743 0.929 . S
C3752 C3744 1.378 . S
C3752 C3747 1.350 . S
C3753 H3740 0.929 . S
C3753 C3745 1.433 . S
C3753 N3755 1.384 . S
N3754 C3750 1.427 . S
N3754 C3751 1.384 . S
N3755 C3747 1.427 . S
N3755 C3753 1.384 . S
H3756 C3762 0.930 . S
H3757 C3766 0.930 . S
H3758 C3771 0.929 . S
H3759 C3769 0.929 . S
H3760 C3764 0.929 . S
H3761 C3770 0.929 . S
C3762 H3756 0.930 . S
C3762 C3763 1.367 . S
C3762 C3770 1.378 . S
C3763 C3762 1.367 . S
C3763 C3771 1.433 . S
C3764 H3760 0.929 . S
C3764 C3766 1.378 . S
C3764 C3768 1.350 . S
C3765 C3768 1.463 . S
C3765 C3770 1.350 . S
C3765 N3773 1.427 . S
C3766 H3757 0.930 . S
C3766 C3764 1.378 . S
C3766 C3767 1.367 . S
C3767 C3766 1.367 . S
C3767 C3769 1.433 . S
C3768 C3764 1.350 . S
C3768 C3765 1.463 . S
C3768 N3772 1.427 . S
C3769 H3759 0.929 . S
C3769 C3767 1.433 . S
C3769 N3772 1.384 . S
C3770 H3761 0.929 . S
C3770 C3762 1.378 . S
C3770 C3765 1.350 . S
C3771 H3758 0.929 . S
C3771 C3763 1.433 . S
C3771 N3773 1.384 . S
N3772 C3768 1.427 . S
N3772 C3769 1.384 . S
N3773 C3765 1.427 . S
N3773 C3771 1.384 . S
H3774 C3780 0.930 . S
H3775 C3784 0.930 . S
H3776 C3789 0.929 . S
H3777 C3787 0.929 . S
H3778 C3782 0.929 . S
H3779 C3788 0.929 . S
C3780 H3774 0.930 . S
C3780 C3781 1.367 . S
C3780 C3788 1.378 . S
C3781 C3780 1.367 . S
C3781 C3789 1.433 . S
C3782 H3778 0.929 . S
C3782 C3784 1.378 . S
C3782 C3786 1.350 . S
C3783 C3786 1.463 . S
C3783 C3788 1.350 . S
C3783 N3791 1.427 . S
C3784 H3775 0.930 . S
C3784 C3782 1.378 . S
C3784 C3785 1.367 . S
C3785 C3784 1.367 . S
C3785 C3787 1.433 . S
C3786 C3782 1.350 . S
C3786 C3783 1.463 . S
C3786 N3790 1.427 . S
C3787 H3777 0.929 . S
C3787 C3785 1.433 . S
C3787 N3790 1.384 . S
C3788 H3779 0.929 . S
C3788 C3780 1.378 . S
C3788 C3783 1.350 . S
C3789 H3776 0.929 . S
C3789 C3781 1.433 . S
C3789 N3791 1.384 . S
N3790 C3786 1.427 . S
N3790 C3787 1.384 . S
N3791 C3783 1.427 . S
N3791 C3789 1.384 . S
H3792 C3798 0.930 . S
H3793 C3802 0.930 . S
H3794 C3807 0.929 . S
H3795 C3805 0.929 . S
H3796 C3800 0.929 . S
H3797 C3806 0.929 . S
C3798 H3792 0.930 . S
C3798 C3799 1.367 . S
C3798 C3806 1.378 . S
C3799 C3798 1.367 . S
C3799 C3807 1.433 . S
C3800 H3796 0.929 . S
C3800 C3802 1.378 . S
C3800 C3804 1.350 . S
C3801 C3804 1.463 . S
C3801 C3806 1.350 . S
C3801 N3809 1.427 . S
C3802 H3793 0.930 . S
C3802 C3800 1.378 . S
C3802 C3803 1.367 . S
C3803 C3802 1.367 . S
C3803 C3805 1.433 . S
C3804 C3800 1.350 . S
C3804 C3801 1.463 . S
C3804 N3808 1.427 . S
C3805 H3795 0.929 . S
C3805 C3803 1.433 . S
C3805 N3808 1.384 . S
C3806 H3797 0.929 . S
C3806 C3798 1.378 . S
C3806 C3801 1.350 . S
C3807 H3794 0.929 . S
C3807 C3799 1.433 . S
C3807 N3809 1.384 . S
N3808 C3804 1.427 . S
N3808 C3805 1.384 . S
N3809 C3801 1.427 . S
N3809 C3807 1.384 . S
H3810 C3816 0.930 . S
H3811 C3820 0.930 . S
H3812 C3825 0.929 . S
H3813 C3823 0.929 . S
H3814 C3818 0.929 . S
H3815 C3824 0.929 . S
C3816 H3810 0.930 . S
C3816 C3817 1.367 . S
C3816 C3824 1.378 . S
C3817 C3816 1.367 . S
C3817 C3825 1.433 . S
C3818 H3814 0.929 . S
C3818 C3820 1.378 . S
C3818 C3822 1.350 . S
C3819 C3822 1.463 . S
C3819 C3824 1.350 . S
C3819 N3827 1.427 . S
C3820 H3811 0.930 . S
C3820 C3818 1.378 . S
C3820 C3821 1.367 . S
C3821 C3820 1.367 . S
C3821 C3823 1.433 . S
C3822 C3818 1.350 . S
C3822 C3819 1.463 . S
C3822 N3826 1.427 . S
C3823 H3813 0.929 . S
C3823 C3821 1.433 . S
C3823 N3826 1.384 . S
C3824 H3815 0.929 . S
C3824 C3816 1.378 . S
C3824 C3819 1.350 . S
C3825 H3812 0.929 . S
C3825 C3817 1.433 . S
C3825 N3827 1.384 . S
N3826 C3822 1.427 . S
N3826 C3823 1.384 . S
N3827 C3819 1.427 . S
N3827 C3825 1.384 . S
H3828 C3834 0.930 . S
H3829 C3838 0.930 . S
H3830 C3843 0.929 . S
H3831 C3841 0.929 . S
H3832 C3836 0.929 . S
H3833 C3842 0.929 . S
C3834 H3828 0.930 . S
C3834 C3835 1.367 . S
C3834 C3842 1.378 . S
C3835 C3834 1.367 . S
C3835 C3843 1.433 . S
C3836 H3832 0.929 . S
C3836 C3838 1.378 . S
C3836 C3840 1.350 . S
C3837 C3840 1.463 . S
C3837 C3842 1.350 . S
C3837 N3845 1.427 . S
C3838 H3829 0.930 . S
C3838 C3836 1.378 . S
C3838 C3839 1.367 . S
C3839 C3838 1.367 . S
C3839 C3841 1.433 . S
C3840 C3836 1.350 . S
C3840 C3837 1.463 . S
C3840 N3844 1.427 . S
C3841 H3831 0.929 . S
C3841 C3839 1.433 . S
C3841 N3844 1.384 . S
C3842 H3833 0.929 . S
C3842 C3834 1.378 . S
C3842 C3837 1.350 . S
C3843 H3830 0.929 . S
C3843 C3835 1.433 . S
C3843 N3845 1.384 . S
N3844 C3840 1.427 . S
N3844 C3841 1.384 . S
N3845 C3837 1.427 . S
N3845 C3843 1.384 . S
H3846 C3852 0.930 . S
H3847 C3856 0.930 . S
H3848 C3861 0.929 . S
H3849 C3859 0.929 . S
H3850 C3854 0.929 . S
H3851 C3860 0.929 . S
C3852 H3846 0.930 . S
C3852 C3853 1.367 . S
C3852 C3860 1.378 . S
C3853 C3852 1.367 . S
C3853 C3861 1.433 . S
C3854 H3850 0.929 . S
C3854 C3856 1.378 . S
C3854 C3858 1.350 . S
C3855 C3858 1.463 . S
C3855 C3860 1.350 . S
C3855 N3863 1.427 . S
C3856 H3847 0.930 . S
C3856 C3854 1.378 . S
C3856 C3857 1.367 . S
C3857 C3856 1.367 . S
C3857 C3859 1.433 . S
C3858 C3854 1.350 . S
C3858 C3855 1.463 . S
C3858 N3862 1.427 . S
C3859 H3849 0.929 . S
C3859 C3857 1.433 . S
C3859 N3862 1.384 . S
C3860 H3851 0.929 . S
C3860 C3852 1.378 . S
C3860 C3855 1.350 . S
C3861 H3848 0.929 . S
C3861 C3853 1.433 . S
C3861 N3863 1.384 . S
N3862 C3858 1.427 . S
N3862 C3859 1.384 . S
N3863 C3855 1.427 . S
N3863 C3861 1.384 . S
H3864 C3870 0.930 . S
H3865 C3874 0.930 . S
H3866 C3879 0.929 . S
H3867 C3877 0.929 . S
H3868 C3872 0.929 . S
H3869 C3878 0.929 . S
C3870 H3864 0.930 . S
C3870 C3871 1.367 . S
C3870 C3878 1.378 . S
C3871 C3870 1.367 . S
C3871 C3879 1.433 . S
C3872 H3868 0.929 . S
C3872 C3874 1.378 . S
C3872 C3876 1.350 . S
C3873 C3876 1.463 . S
C3873 C3878 1.350 . S
C3873 N3881 1.427 . S
C3874 H3865 0.930 . S
C3874 C3872 1.378 . S
C3874 C3875 1.367 . S
C3875 C3874 1.367 . S
C3875 C3877 1.433 . S
C3876 C3872 1.350 . S
C3876 C3873 1.463 . S
C3876 N3880 1.427 . S
C3877 H3867 0.929 . S
C3877 C3875 1.433 . S
C3877 N3880 1.384 . S
C3878 H3869 0.929 . S
C3878 C3870 1.378 . S
C3878 C3873 1.350 . S
C3879 H3866 0.929 . S
C3879 C3871 1.433 . S
C3879 N3881 1.384 . S
N3880 C3876 1.427 . S
N3880 C3877 1.384 . S
N3881 C3873 1.427 . S
N3881 C3879 1.384 . S
H3882 C3888 0.930 . S
H3883 C3892 0.930 . S
H3884 C3897 0.929 . S
H3885 C3895 0.929 . S
H3886 C3890 0.929 . S
H3887 C3896 0.929 . S
C3888 H3882 0.930 . S
C3888 C3889 1.367 . S
C3888 C3896 1.378 . S
C3889 C3888 1.367 . S
C3889 C3897 1.433 . S
C3890 H3886 0.929 . S
C3890 C3892 1.378 . S
C3890 C3894 1.350 . S
C3891 C3894 1.463 . S
C3891 C3896 1.350 . S
C3891 N3899 1.427 . S
C3892 H3883 0.930 . S
C3892 C3890 1.378 . S
C3892 C3893 1.367 . S
C3893 C3892 1.367 . S
C3893 C3895 1.433 . S
C3894 C3890 1.350 . S
C3894 C3891 1.463 . S
C3894 N3898 1.427 . S
C3895 H3885 0.929 . S
C3895 C3893 1.433 . S
C3895 N3898 1.384 . S
C3896 H3887 0.929 . S
C3896 C3888 1.378 . S
C3896 C3891 1.350 . S
C3897 H3884 0.929 . S
C3897 C3889 1.433 . S
C3897 N3899 1.384 . S
N3898 C3894 1.427 . S
N3898 C3895 1.384 . S
N3899 C3891 1.427 . S
N3899 C3897 1.384 . S
H3900 C3906 0.930 . S
H3901 C3910 0.930 . S
H3902 C3915 0.929 . S
H3903 C3913 0.929 . S
H3904 C3908 0.929 . S
H3905 C3914 0.929 . S
C3906 H3900 0.930 . S
C3906 C3907 1.367 . S
C3906 C3914 1.378 . S
C3907 C3906 1.367 . S
C3907 C3915 1.433 . S
C3908 H3904 0.929 . S
C3908 C3910 1.378 . S
C3908 C3912 1.350 . S
C3909 C3912 1.463 . S
C3909 C3914 1.350 . S
C3909 N3917 1.427 . S
C3910 H3901 0.930 . S
C3910 C3908 1.378 . S
C3910 C3911 1.367 . S
C3911 C3910 1.367 . S
C3911 C3913 1.433 . S
C3912 C3908 1.350 . S
C3912 C3909 1.463 . S
C3912 N3916 1.427 . S
C3913 H3903 0.929 . S
C3913 C3911 1.433 . S
C3913 N3916 1.384 . S
C3914 H3905 0.929 . S
C3914 C3906 1.378 . S
C3914 C3909 1.350 . S
C3915 H3902 0.929 . S
C3915 C3907 1.433 . S
C3915 N3917 1.384 . S
N3916 C3912 1.427 . S
N3916 C3913 1.384 . S
N3917 C3909 1.427 . S
N3917 C3915 1.384 . S
H3918 C3924 0.930 . S
H3919 C3928 0.930 . S
H3920 C3933 0.929 . S
H3921 C3931 0.929 . S
H3922 C3926 0.929 . S
H3923 C3932 0.929 . S
C3924 H3918 0.930 . S
C3924 C3925 1.367 . S
C3924 C3932 1.378 . S
C3925 C3924 1.367 . S
C3925 C3933 1.433 . S
C3926 H3922 0.929 . S
C3926 C3928 1.378 . S
C3926 C3930 1.350 . S
C3927 C3930 1.463 . S
C3927 C3932 1.350 . S
C3927 N3935 1.427 . S
C3928 H3919 0.930 . S
C3928 C3926 1.378 . S
C3928 C3929 1.367 . S
C3929 C3928 1.367 . S
C3929 C3931 1.433 . S
C3930 C3926 1.350 . S
C3930 C3927 1.463 . S
C3930 N3934 1.427 . S
C3931 H3921 0.929 . S
C3931 C3929 1.433 . S
C3931 N3934 1.384 . S
C3932 H3923 0.929 . S
C3932 C3924 1.378 . S
C3932 C3927 1.350 . S
C3933 H3920 0.929 . S
C3933 C3925 1.433 . S
C3933 N3935 1.384 . S
N3934 C3930 1.427 . S
N3934 C3931 1.384 . S
N3935 C3927 1.427 . S
N3935 C3933 1.384 . S
H3936 C3942 0.930 . S
H3937 C3946 0.930 . S
H3938 C3951 0.929 . S
H3939 C3949 0.929 . S
H3940 C3944 0.929 . S
H3941 C3950 0.929 . S
C3942 H3936 0.930 . S
C3942 C3943 1.367 . S
C3942 C3950 1.378 . S
C3943 C3942 1.367 . S
C3943 C3951 1.433 . S
C3944 H3940 0.929 . S
C3944 C3946 1.378 . S
C3944 C3948 1.350 . S
C3945 C3948 1.463 . S
C3945 C3950 1.350 . S
C3945 N3953 1.427 . S
C3946 H3937 0.930 . S
C3946 C3944 1.378 . S
C3946 C3947 1.367 . S
C3947 C3946 1.367 . S
C3947 C3949 1.433 . S
C3948 C3944 1.350 . S
C3948 C3945 1.463 . S
C3948 N3952 1.427 . S
C3949 H3939 0.929 . S
C3949 C3947 1.433 . S
C3949 N3952 1.384 . S
C3950 H3941 0.929 . S
C3950 C3942 1.378 . S
C3950 C3945 1.350 . S
C3951 H3938 0.929 . S
C3951 C3943 1.433 . S
C3951 N3953 1.384 . S
N3952 C3948 1.427 . S
N3952 C3949 1.384 . S
N3953 C3945 1.427 . S
N3953 C3951 1.384 . S
H3954 C3960 0.930 . S
H3955 C3964 0.930 . S
H3956 C3969 0.929 . S
H3957 C3967 0.929 . S
H3958 C3962 0.929 . S
H3959 C3968 0.929 . S
C3960 H3954 0.930 . S
C3960 C3961 1.367 . S
C3960 C3968 1.378 . S
C3961 C3960 1.367 . S
C3961 C3969 1.433 . S
C3962 H3958 0.929 . S
C3962 C3964 1.378 . S
C3962 C3966 1.350 . S
C3963 C3966 1.463 . S
C3963 C3968 1.350 . S
C3963 N3971 1.427 . S
C3964 H3955 0.930 . S
C3964 C3962 1.378 . S
C3964 C3965 1.367 . S
C3965 C3964 1.367 . S
C3965 C3967 1.433 . S
C3966 C3962 1.350 . S
C3966 C3963 1.463 . S
C3966 N3970 1.427 . S
C3967 H3957 0.929 . S
C3967 C3965 1.433 . S
C3967 N3970 1.384 . S
C3968 H3959 0.929 . S
C3968 C3960 1.378 . S
C3968 C3963 1.350 . S
C3969 H3956 0.929 . S
C3969 C3961 1.433 . S
C3969 N3971 1.384 . S
N3970 C3966 1.427 . S
N3970 C3967 1.384 . S
N3971 C3963 1.427 . S
N3971 C3969 1.384 . S
H3972 C3978 0.930 . S
H3973 C3982 0.930 . S
H3974 C3987 0.929 . S
H3975 C3985 0.929 . S
H3976 C3980 0.929 . S
H3977 C3986 0.929 . S
C3978 H3972 0.930 . S
C3978 C3979 1.367 . S
C3978 C3986 1.378 . S
C3979 C3978 1.367 . S
C3979 C3987 1.433 . S
C3980 H3976 0.929 . S
C3980 C3982 1.378 . S
C3980 C3984 1.350 . S
C3981 C3984 1.463 . S
C3981 C3986 1.350 . S
C3981 N3989 1.427 . S
C3982 H3973 0.930 . S
C3982 C3980 1.378 . S
C3982 C3983 1.367 . S
C3983 C3982 1.367 . S
C3983 C3985 1.433 . S
C3984 C3980 1.350 . S
C3984 C3981 1.463 . S
C3984 N3988 1.427 . S
C3985 H3975 0.929 . S
C3985 C3983 1.433 . S
C3985 N3988 1.384 . S
C3986 H3977 0.929 . S
C3986 C3978 1.378 . S
C3986 C3981 1.350 . S
C3987 H3974 0.929 . S
C3987 C3979 1.433 . S
C3987 N3989 1.384 . S
N3988 C3984 1.427 . S
N3988 C3985 1.384 . S
N3989 C3981 1.427 . S
N3989 C3987 1.384 . S
H3990 C3996 0.930 . S
H3991 C4000 0.930 . S
H3992 C4005 0.929 . S
H3993 C4003 0.929 . S
H3994 C3998 0.929 . S
H3995 C4004 0.929 . S
C3996 H3990 0.930 . S
C3996 C3997 1.367 . S
C3996 C4004 1.378 . S
C3997 C3996 1.367 . S
C3997 C4005 1.433 . S
C3998 H3994 0.929 . S
C3998 C4000 1.378 . S
C3998 C4002 1.350 . S
C3999 C4002 1.463 . S
C3999 C4004 1.350 . S
C3999 N4007 1.427 . S
C4000 H3991 0.930 . S
C4000 C3998 1.378 . S
C4000 C4001 1.367 . S
C4001 C4000 1.367 . S
C4001 C4003 1.433 . S
C4002 C3998 1.350 . S
C4002 C3999 1.463 . S
C4002 N4006 1.427 . S
C4003 H3993 0.929 . S
C4003 C4001 1.433 . S
C4003 N4006 1.384 . S
C4004 H3995 0.929 . S
C4004 C3996 1.378 . S
C4004 C3999 1.350 . S
C4005 H3992 0.929 . S
C4005 C3997 1.433 . S
C4005 N4007 1.384 . S
N4006 C4002 1.427 . S
N4006 C4003 1.384 . S
N4007 C3999 1.427 . S
N4007 C4005 1.384 . S
H4008 C4014 0.930 . S
H4009 C4018 0.930 . S
H4010 C4023 0.929 . S
H4011 C4021 0.929 . S
H4012 C4016 0.929 . S
H4013 C4022 0.929 . S
C4014 H4008 0.930 . S
C4014 C4015 1.367 . S
C4014 C4022 1.378 . S
C4015 C4014 1.367 . S
C4015 C4023 1.433 . S
C4016 H4012 0.929 . S
C4016 C4018 1.378 . S
C4016 C4020 1.350 . S
C4017 C4020 1.463 . S
C4017 C4022 1.350 . S
C4017 N4025 1.427 . S
C4018 H4009 0.930 . S
C4018 C4016 1.378 . S
C4018 C4019 1.367 . S
C4019 C4018 1.367 . S
C4019 C4021 1.433 . S
C4020 C4016 1.350 . S
C4020 C4017 1.463 . S
C4020 N4024 1.427 . S
C4021 H4011 0.929 . S
C4021 C4019 1.433 . S
C4021 N4024 1.384 . S
C4022 H4013 0.929 . S
C4022 C4014 1.378 . S
C4022 C4017 1.350 . S
C4023 H4010 0.929 . S
C4023 C4015 1.433 . S
C4023 N4025 1.384 . S
N4024 C4020 1.427 . S
N4024 C4021 1.384 . S
N4025 C4017 1.427 . S
N4025 C4023 1.384 . S
H4026 C4032 0.930 . S
H4027 C4036 0.930 . S
H4028 C4041 0.929 . S
H4029 C4039 0.929 . S
H4030 C4034 0.929 . S
H4031 C4040 0.929 . S
C4032 H4026 0.930 . S
C4032 C4033 1.367 . S
C4032 C4040 1.378 . S
C4033 C4032 1.367 . S
C4033 C4041 1.433 . S
C4034 H4030 0.929 . S
C4034 C4036 1.378 . S
C4034 C4038 1.350 . S
C4035 C4038 1.463 . S
C4035 C4040 1.350 . S
C4035 N4043 1.427 . S
C4036 H4027 0.930 . S
C4036 C4034 1.378 . S
C4036 C4037 1.367 . S
C4037 C4036 1.367 . S
C4037 C4039 1.433 . S
C4038 C4034 1.350 . S
C4038 C4035 1.463 . S
C4038 N4042 1.427 . S
C4039 H4029 0.929 . S
C4039 C4037 1.433 . S
C4039 N4042 1.384 . S
C4040 H4031 0.929 . S
C4040 C4032 1.378 . S
C4040 C4035 1.350 . S
C4041 H4028 0.929 . S
C4041 C4033 1.433 . S
C4041 N4043 1.384 . S
N4042 C4038 1.427 . S
N4042 C4039 1.384 . S
N4043 C4035 1.427 . S
N4043 C4041 1.384 . S
H4044 C4050 0.930 . S
H4045 C4054 0.930 . S
H4046 C4059 0.929 . S
H4047 C4057 0.929 . S
H4048 C4052 0.929 . S
H4049 C4058 0.929 . S
C4050 H4044 0.930 . S
C4050 C4051 1.367 . S
C4050 C4058 1.378 . S
C4051 C4050 1.367 . S
C4051 C4059 1.433 . S
C4052 H4048 0.929 . S
C4052 C4054 1.378 . S
C4052 C4056 1.350 . S
C4053 C4056 1.463 . S
C4053 C4058 1.350 . S
C4053 N4061 1.427 . S
C4054 H4045 0.930 . S
C4054 C4052 1.378 . S
C4054 C4055 1.367 . S
C4055 C4054 1.367 . S
C4055 C4057 1.433 . S
C4056 C4052 1.350 . S
C4056 C4053 1.463 . S
C4056 N4060 1.427 . S
C4057 H4047 0.929 . S
C4057 C4055 1.433 . S
C4057 N4060 1.384 . S
C4058 H4049 0.929 . S
C4058 C4050 1.378 . S
C4058 C4053 1.350 . S
C4059 H4046 0.929 . S
C4059 C4051 1.433 . S
C4059 N4061 1.384 . S
N4060 C4056 1.427 . S
N4060 C4057 1.384 . S
N4061 C4053 1.427 . S
N4061 C4059 1.384 . S
H4062 C4068 0.930 . S
H4063 C4072 0.930 . S
H4064 C4077 0.929 . S
H4065 C4075 0.929 . S
H4066 C4070 0.929 . S
H4067 C4076 0.929 . S
C4068 H4062 0.930 . S
C4068 C4069 1.367 . S
C4068 C4076 1.378 . S
C4069 C4068 1.367 . S
C4069 C4077 1.433 . S
C4070 H4066 0.929 . S
C4070 C4072 1.378 . S
C4070 C4074 1.350 . S
C4071 C4074 1.463 . S
C4071 C4076 1.350 . S
C4071 N4079 1.427 . S
C4072 H4063 0.930 . S
C4072 C4070 1.378 . S
C4072 C4073 1.367 . S
C4073 C4072 1.367 . S
C4073 C4075 1.433 . S
C4074 C4070 1.350 . S
C4074 C4071 1.463 . S
C4074 N4078 1.427 . S
C4075 H4065 0.929 . S
C4075 C4073 1.433 . S
C4075 N4078 1.384 . S
C4076 H4067 0.929 . S
C4076 C4068 1.378 . S
C4076 C4071 1.350 . S
C4077 H4064 0.929 . S
C4077 C4069 1.433 . S
C4077 N4079 1.384 . S
N4078 C4074 1.427 . S
N4078 C4075 1.384 . S
N4079 C4071 1.427 . S
N4079 C4077 1.384 . S
H4080 C4086 0.930 . S
H4081 C4090 0.930 . S
H4082 C4095 0.929 . S
H4083 C4093 0.929 . S
H4084 C4088 0.929 . S
H4085 C4094 0.929 . S
C4086 H4080 0.930 . S
C4086 C4087 1.367 . S
C4086 C4094 1.378 . S
C4087 C4086 1.367 . S
C4087 C4095 1.433 . S
C4088 H4084 0.929 . S
C4088 C4090 1.378 . S
C4088 C4092 1.350 . S
C4089 C4092 1.463 . S
C4089 C4094 1.350 . S
C4089 N4097 1.427 . S
C4090 H4081 0.930 . S
C4090 C4088 1.378 . S
C4090 C4091 1.367 . S
C4091 C4090 1.367 . S
C4091 C4093 1.433 . S
C4092 C4088 1.350 . S
C4092 C4089 1.463 . S
C4092 N4096 1.427 . S
C4093 H4083 0.929 . S
C4093 C4091 1.433 . S
C4093 N4096 1.384 . S
C4094 H4085 0.929 . S
C4094 C4086 1.378 . S
C4094 C4089 1.350 . S
C4095 H4082 0.929 . S
C4095 C4087 1.433 . S
C4095 N4097 1.384 . S
N4096 C4092 1.427 . S
N4096 C4093 1.384 . S
N4097 C4089 1.427 . S
N4097 C4095 1.384 . S
H4098 C4104 0.930 . S
H4099 C4108 0.930 . S
H4100 C4113 0.929 . S
H4101 C4111 0.929 . S
H4102 C4106 0.929 . S
H4103 C4112 0.929 . S
C4104 H4098 0.930 . S
C4104 C4105 1.367 . S
C4104 C4112 1.378 . S
C4105 C4104 1.367 . S
C4105 C4113 1.433 . S
C4106 H4102 0.929 . S
C4106 C4108 1.378 . S
C4106 C4110 1.350 . S
C4107 C4110 1.463 . S
C4107 C4112 1.350 . S
C4107 N4115 1.427 . S
C4108 H4099 0.930 . S
C4108 C4106 1.378 . S
C4108 C4109 1.367 . S
C4109 C4108 1.367 . S
C4109 C4111 1.433 . S
C4110 C4106 1.350 . S
C4110 C4107 1.463 . S
C4110 N4114 1.427 . S
C4111 H4101 0.929 . S
C4111 C4109 1.433 . S
C4111 N4114 1.384 . S
C4112 H4103 0.929 . S
C4112 C4104 1.378 . S
C4112 C4107 1.350 . S
C4113 H4100 0.929 . S
C4113 C4105 1.433 . S
C4113 N4115 1.384 . S
N4114 C4110 1.427 . S
N4114 C4111 1.384 . S
N4115 C4107 1.427 . S
N4115 C4113 1.384 . S
H4116 C4122 0.930 . S
H4117 C4126 0.930 . S
H4118 C4131 0.929 . S
H4119 C4129 0.929 . S
H4120 C4124 0.929 . S
H4121 C4130 0.929 . S
C4122 H4116 0.930 . S
C4122 C4123 1.367 . S
C4122 C4130 1.378 . S
C4123 C4122 1.367 . S
C4123 C4131 1.433 . S
C4124 H4120 0.929 . S
C4124 C4126 1.378 . S
C4124 C4128 1.350 . S
C4125 C4128 1.463 . S
C4125 C4130 1.350 . S
C4125 N4133 1.427 . S
C4126 H4117 0.930 . S
C4126 C4124 1.378 . S
C4126 C4127 1.367 . S
C4127 C4126 1.367 . S
C4127 C4129 1.433 . S
C4128 C4124 1.350 . S
C4128 C4125 1.463 . S
C4128 N4132 1.427 . S
C4129 H4119 0.929 . S
C4129 C4127 1.433 . S
C4129 N4132 1.384 . S
C4130 H4121 0.929 . S
C4130 C4122 1.378 . S
C4130 C4125 1.350 . S
C4131 H4118 0.929 . S
C4131 C4123 1.433 . S
C4131 N4133 1.384 . S
N4132 C4128 1.427 . S
N4132 C4129 1.384 . S
N4133 C4125 1.427 . S
N4133 C4131 1.384 . S
H4134 C4140 0.930 . S
H4135 C4144 0.930 . S
H4136 C4149 0.929 . S
H4137 C4147 0.929 . S
H4138 C4142 0.929 . S
H4139 C4148 0.929 . S
C4140 H4134 0.930 . S
C4140 C4141 1.367 . S
C4140 C4148 1.378 . S
C4141 C4140 1.367 . S
C4141 C4149 1.433 . S
C4142 H4138 0.929 . S
C4142 C4144 1.378 . S
C4142 C4146 1.350 . S
C4143 C4146 1.463 . S
C4143 C4148 1.350 . S
C4143 N4151 1.427 . S
C4144 H4135 0.930 . S
C4144 C4142 1.378 . S
C4144 C4145 1.367 . S
C4145 C4144 1.367 . S
C4145 C4147 1.433 . S
C4146 C4142 1.350 . S
C4146 C4143 1.463 . S
C4146 N4150 1.427 . S
C4147 H4137 0.929 . S
C4147 C4145 1.433 . S
C4147 N4150 1.384 . S
C4148 H4139 0.929 . S
C4148 C4140 1.378 . S
C4148 C4143 1.350 . S
C4149 H4136 0.929 . S
C4149 C4141 1.433 . S
C4149 N4151 1.384 . S
N4150 C4146 1.427 . S
N4150 C4147 1.384 . S
N4151 C4143 1.427 . S
N4151 C4149 1.384 . S
H4152 C4158 0.930 . S
H4153 C4162 0.930 . S
H4154 C4167 0.929 . S
H4155 C4165 0.929 . S
H4156 C4160 0.929 . S
H4157 C4166 0.929 . S
C4158 H4152 0.930 . S
C4158 C4159 1.367 . S
C4158 C4166 1.378 . S
C4159 C4158 1.367 . S
C4159 C4167 1.433 . S
C4160 H4156 0.929 . S
C4160 C4162 1.378 . S
C4160 C4164 1.350 . S
C4161 C4164 1.463 . S
C4161 C4166 1.350 . S
C4161 N4169 1.427 . S
C4162 H4153 0.930 . S
C4162 C4160 1.378 . S
C4162 C4163 1.367 . S
C4163 C4162 1.367 . S
C4163 C4165 1.433 . S
C4164 C4160 1.350 . S
C4164 C4161 1.463 . S
C4164 N4168 1.427 . S
C4165 H4155 0.929 . S
C4165 C4163 1.433 . S
C4165 N4168 1.384 . S
C4166 H4157 0.929 . S
C4166 C4158 1.378 . S
C4166 C4161 1.350 . S
C4167 H4154 0.929 . S
C4167 C4159 1.433 . S
C4167 N4169 1.384 . S
N4168 C4164 1.427 . S
N4168 C4165 1.384 . S
N4169 C4161 1.427 . S
N4169 C4167 1.384 . S
H4170 C4176 0.930 . S
H4171 C4180 0.930 . S
H4172 C4185 0.929 . S
H4173 C4183 0.929 . S
H4174 C4178 0.929 . S
H4175 C4184 0.929 . S
C4176 H4170 0.930 . S
C4176 C4177 1.367 . S
C4176 C4184 1.378 . S
C4177 C4176 1.367 . S
C4177 C4185 1.433 . S
C4178 H4174 0.929 . S
C4178 C4180 1.378 . S
C4178 C4182 1.350 . S
C4179 C4182 1.463 . S
C4179 C4184 1.350 . S
C4179 N4187 1.427 . S
C4180 H4171 0.930 . S
C4180 C4178 1.378 . S
C4180 C4181 1.367 . S
C4181 C4180 1.367 . S
C4181 C4183 1.433 . S
C4182 C4178 1.350 . S
C4182 C4179 1.463 . S
C4182 N4186 1.427 . S
C4183 H4173 0.929 . S
C4183 C4181 1.433 . S
C4183 N4186 1.384 . S
C4184 H4175 0.929 . S
C4184 C4176 1.378 . S
C4184 C4179 1.350 . S
C4185 H4172 0.929 . S
C4185 C4177 1.433 . S
C4185 N4187 1.384 . S
N4186 C4182 1.427 . S
N4186 C4183 1.384 . S
N4187 C4179 1.427 . S
N4187 C4185 1.384 . S
H4188 C4194 0.930 . S
H4189 C4198 0.930 . S
H4190 C4203 0.929 . S
H4191 C4201 0.929 . S
H4192 C4196 0.929 . S
H4193 C4202 0.929 . S
C4194 H4188 0.930 . S
C4194 C4195 1.367 . S
C4194 C4202 1.378 . S
C4195 C4194 1.367 . S
C4195 C4203 1.433 . S
C4196 H4192 0.929 . S
C4196 C4198 1.378 . S
C4196 C4200 1.350 . S
C4197 C4200 1.463 . S
C4197 C4202 1.350 . S
C4197 N4205 1.427 . S
C4198 H4189 0.930 . S
C4198 C4196 1.378 . S
C4198 C4199 1.367 . S
C4199 C4198 1.367 . S
C4199 C4201 1.433 . S
C4200 C4196 1.350 . S
C4200 C4197 1.463 . S
C4200 N4204 1.427 . S
C4201 H4191 0.929 . S
C4201 C4199 1.433 . S
C4201 N4204 1.384 . S
C4202 H4193 0.929 . S
C4202 C4194 1.378 . S
C4202 C4197 1.350 . S
C4203 H4190 0.929 . S
C4203 C4195 1.433 . S
C4203 N4205 1.384 . S
N4204 C4200 1.427 . S
N4204 C4201 1.384 . S
N4205 C4197 1.427 . S
N4205 C4203 1.384 . S
H4206 C4212 0.930 . S
H4207 C4216 0.930 . S
H4208 C4221 0.929 . S
H4209 C4219 0.929 . S
H4210 C4214 0.929 . S
H4211 C4220 0.929 . S
C4212 H4206 0.930 . S
C4212 C4213 1.367 . S
C4212 C4220 1.378 . S
C4213 C4212 1.367 . S
C4213 C4221 1.433 . S
C4214 H4210 0.929 . S
C4214 C4216 1.378 . S
C4214 C4218 1.350 . S
C4215 C4218 1.463 . S
C4215 C4220 1.350 . S
C4215 N4223 1.427 . S
C4216 H4207 0.930 . S
C4216 C4214 1.378 . S
C4216 C4217 1.367 . S
C4217 C4216 1.367 . S
C4217 C4219 1.433 . S
C4218 C4214 1.350 . S
C4218 C4215 1.463 . S
C4218 N4222 1.427 . S
C4219 H4209 0.929 . S
C4219 C4217 1.433 . S
C4219 N4222 1.384 . S
C4220 H4211 0.929 . S
C4220 C4212 1.378 . S
C4220 C4215 1.350 . S
C4221 H4208 0.929 . S
C4221 C4213 1.433 . S
C4221 N4223 1.384 . S
N4222 C4218 1.427 . S
N4222 C4219 1.384 . S
N4223 C4215 1.427 . S
N4223 C4221 1.384 . S
H4224 C4230 0.930 . S
H4225 C4234 0.930 . S
H4226 C4239 0.929 . S
H4227 C4237 0.929 . S
H4228 C4232 0.929 . S
H4229 C4238 0.929 . S
C4230 H4224 0.930 . S
C4230 C4231 1.367 . S
C4230 C4238 1.378 . S
C4231 C4230 1.367 . S
C4231 C4239 1.433 . S
C4232 H4228 0.929 . S
C4232 C4234 1.378 . S
C4232 C4236 1.350 . S
C4233 C4236 1.463 . S
C4233 C4238 1.350 . S
C4233 N4241 1.427 . S
C4234 H4225 0.930 . S
C4234 C4232 1.378 . S
C4234 C4235 1.367 . S
C4235 C4234 1.367 . S
C4235 C4237 1.433 . S
C4236 C4232 1.350 . S
C4236 C4233 1.463 . S
C4236 N4240 1.427 . S
C4237 H4227 0.929 . S
C4237 C4235 1.433 . S
C4237 N4240 1.384 . S
C4238 H4229 0.929 . S
C4238 C4230 1.378 . S
C4238 C4233 1.350 . S
C4239 H4226 0.929 . S
C4239 C4231 1.433 . S
C4239 N4241 1.384 . S
N4240 C4236 1.427 . S
N4240 C4237 1.384 . S
N4241 C4233 1.427 . S
N4241 C4239 1.384 . S
H4242 C4248 0.930 . S
H4243 C4252 0.930 . S
H4244 C4257 0.929 . S
H4245 C4255 0.929 . S
H4246 C4250 0.929 . S
H4247 C4256 0.929 . S
C4248 H4242 0.930 . S
C4248 C4249 1.367 . S
C4248 C4256 1.378 . S
C4249 C4248 1.367 . S
C4249 C4257 1.433 . S
C4250 H4246 0.929 . S
C4250 C4252 1.378 . S
C4250 C4254 1.350 . S
C4251 C4254 1.463 . S
C4251 C4256 1.350 . S
C4251 N4259 1.427 . S
C4252 H4243 0.930 . S
C4252 C4250 1.378 . S
C4252 C4253 1.367 . S
C4253 C4252 1.367 . S
C4253 C4255 1.433 . S
C4254 C4250 1.350 . S
C4254 C4251 1.463 . S
C4254 N4258 1.427 . S
C4255 H4245 0.929 . S
C4255 C4253 1.433 . S
C4255 N4258 1.384 . S
C4256 H4247 0.929 . S
C4256 C4248 1.378 . S
C4256 C4251 1.350 . S
C4257 H4244 0.929 . S
C4257 C4249 1.433 . S
C4257 N4259 1.384 . S
N4258 C4254 1.427 . S
N4258 C4255 1.384 . S
N4259 C4251 1.427 . S
N4259 C4257 1.384 . S
H4260 C4266 0.930 . S
H4261 C4270 0.930 . S
H4262 C4275 0.929 . S
H4263 C4273 0.929 . S
H4264 C4268 0.929 . S
H4265 C4274 0.929 . S
C4266 H4260 0.930 . S
C4266 C4267 1.367 . S
C4266 C4274 1.378 . S
C4267 C4266 1.367 . S
C4267 C4275 1.433 . S
C4268 H4264 0.929 . S
C4268 C4270 1.378 . S
C4268 C4272 1.350 . S
C4269 C4272 1.463 . S
C4269 C4274 1.350 . S
C4269 N4277 1.427 . S
C4270 H4261 0.930 . S
C4270 C4268 1.378 . S
C4270 C4271 1.367 . S
C4271 C4270 1.367 . S
C4271 C4273 1.433 . S
C4272 C4268 1.350 . S
C4272 C4269 1.463 . S
C4272 N4276 1.427 . S
C4273 H4263 0.929 . S
C4273 C4271 1.433 . S
C4273 N4276 1.384 . S
C4274 H4265 0.929 . S
C4274 C4266 1.378 . S
C4274 C4269 1.350 . S
C4275 H4262 0.929 . S
C4275 C4267 1.433 . S
C4275 N4277 1.384 . S
N4276 C4272 1.427 . S
N4276 C4273 1.384 . S
N4277 C4269 1.427 . S
N4277 C4275 1.384 . S
H4278 C4284 0.930 . S
H4279 C4288 0.930 . S
H4280 C4293 0.929 . S
H4281 C4291 0.929 . S
H4282 C4286 0.929 . S
H4283 C4292 0.929 . S
C4284 H4278 0.930 . S
C4284 C4285 1.367 . S
C4284 C4292 1.378 . S
C4285 C4284 1.367 . S
C4285 C4293 1.433 . S
C4286 H4282 0.929 . S
C4286 C4288 1.378 . S
C4286 C4290 1.350 . S
C4287 C4290 1.463 . S
C4287 C4292 1.350 . S
C4287 N4295 1.427 . S
C4288 H4279 0.930 . S
C4288 C4286 1.378 . S
C4288 C4289 1.367 . S
C4289 C4288 1.367 . S
C4289 C4291 1.433 . S
C4290 C4286 1.350 . S
C4290 C4287 1.463 . S
C4290 N4294 1.427 . S
C4291 H4281 0.929 . S
C4291 C4289 1.433 . S
C4291 N4294 1.384 . S
C4292 H4283 0.929 . S
C4292 C4284 1.378 . S
C4292 C4287 1.350 . S
C4293 H4280 0.929 . S
C4293 C4285 1.433 . S
C4293 N4295 1.384 . S
N4294 C4290 1.427 . S
N4294 C4291 1.384 . S
N4295 C4287 1.427 . S
N4295 C4293 1.384 . S
H4296 C4302 0.930 . S
H4297 C4306 0.930 . S
H4298 C4311 0.929 . S
H4299 C4309 0.929 . S
H4300 C4304 0.929 . S
H4301 C4310 0.929 . S
C4302 H4296 0.930 . S
C4302 C4303 1.367 . S
C4302 C4310 1.378 . S
C4303 C4302 1.367 . S
C4303 C4311 1.433 . S
C4304 H4300 0.929 . S
C4304 C4306 1.378 . S
C4304 C4308 1.350 . S
C4305 C4308 1.463 . S
C4305 C4310 1.350 . S
C4305 N4313 1.427 . S
C4306 H4297 0.930 . S
C4306 C4304 1.378 . S
C4306 C4307 1.367 . S
C4307 C4306 1.367 . S
C4307 C4309 1.433 . S
C4308 C4304 1.350 . S
C4308 C4305 1.463 . S
C4308 N4312 1.427 . S
C4309 H4299 0.929 . S
C4309 C4307 1.433 . S
C4309 N4312 1.384 . S
C4310 H4301 0.929 . S
C4310 C4302 1.378 . S
C4310 C4305 1.350 . S
C4311 H4298 0.929 . S
C4311 C4303 1.433 . S
C4311 N4313 1.384 . S
N4312 C4308 1.427 . S
N4312 C4309 1.384 . S
N4313 C4305 1.427 . S
N4313 C4311 1.384 . S
H4314 C4320 0.930 . S
H4315 C4324 0.930 . S
H4316 C4329 0.929 . S
H4317 C4327 0.929 . S
H4318 C4322 0.929 . S
H4319 C4328 0.929 . S
C4320 H4314 0.930 . S
C4320 C4321 1.367 . S
C4320 C4328 1.378 . S
C4321 C4320 1.367 . S
C4321 C4329 1.433 . S
C4322 H4318 0.929 . S
C4322 C4324 1.378 . S
C4322 C4326 1.350 . S
C4323 C4326 1.463 . S
C4323 C4328 1.350 . S
C4323 N4331 1.427 . S
C4324 H4315 0.930 . S
C4324 C4322 1.378 . S
C4324 C4325 1.367 . S
C4325 C4324 1.367 . S
C4325 C4327 1.433 . S
C4326 C4322 1.350 . S
C4326 C4323 1.463 . S
C4326 N4330 1.427 . S
C4327 H4317 0.929 . S
C4327 C4325 1.433 . S
C4327 N4330 1.384 . S
C4328 H4319 0.929 . S
C4328 C4320 1.378 . S
C4328 C4323 1.350 . S
C4329 H4316 0.929 . S
C4329 C4321 1.433 . S
C4329 N4331 1.384 . S
N4330 C4326 1.427 . S
N4330 C4327 1.384 . S
N4331 C4323 1.427 . S
N4331 C4329 1.384 . S
H4332 C4338 0.930 . S
H4333 C4342 0.930 . S
H4334 C4347 0.929 . S
H4335 C4345 0.929 . S
H4336 C4340 0.929 . S
H4337 C4346 0.929 . S
C4338 H4332 0.930 . S
C4338 C4339 1.367 . S
C4338 C4346 1.378 . S
C4339 C4338 1.367 . S
C4339 C4347 1.433 . S
C4340 H4336 0.929 . S
C4340 C4342 1.378 . S
C4340 C4344 1.350 . S
C4341 C4344 1.463 . S
C4341 C4346 1.350 . S
C4341 N4349 1.427 . S
C4342 H4333 0.930 . S
C4342 C4340 1.378 . S
C4342 C4343 1.367 . S
C4343 C4342 1.367 . S
C4343 C4345 1.433 . S
C4344 C4340 1.350 . S
C4344 C4341 1.463 . S
C4344 N4348 1.427 . S
C4345 H4335 0.929 . S
C4345 C4343 1.433 . S
C4345 N4348 1.384 . S
C4346 H4337 0.929 . S
C4346 C4338 1.378 . S
C4346 C4341 1.350 . S
C4347 H4334 0.929 . S
C4347 C4339 1.433 . S
C4347 N4349 1.384 . S
N4348 C4344 1.427 . S
N4348 C4345 1.384 . S
N4349 C4341 1.427 . S
N4349 C4347 1.384 . S
H4350 C4356 0.930 . S
H4351 C4360 0.930 . S
H4352 C4365 0.929 . S
H4353 C4363 0.929 . S
H4354 C4358 0.929 . S
H4355 C4364 0.929 . S
C4356 H4350 0.930 . S
C4356 C4357 1.367 . S
C4356 C4364 1.378 . S
C4357 C4356 1.367 . S
C4357 C4365 1.433 . S
C4358 H4354 0.929 . S
C4358 C4360 1.378 . S
C4358 C4362 1.350 . S
C4359 C4362 1.463 . S
C4359 C4364 1.350 . S
C4359 N4367 1.427 . S
C4360 H4351 0.930 . S
C4360 C4358 1.378 . S
C4360 C4361 1.367 . S
C4361 C4360 1.367 . S
C4361 C4363 1.433 . S
C4362 C4358 1.350 . S
C4362 C4359 1.463 . S
C4362 N4366 1.427 . S
C4363 H4353 0.929 . S
C4363 C4361 1.433 . S
C4363 N4366 1.384 . S
C4364 H4355 0.929 . S
C4364 C4356 1.378 . S
C4364 C4359 1.350 . S
C4365 H4352 0.929 . S
C4365 C4357 1.433 . S
C4365 N4367 1.384 . S
N4366 C4362 1.427 . S
N4366 C4363 1.384 . S
N4367 C4359 1.427 . S
N4367 C4365 1.384 . S
H4368 C4374 0.930 . S
H4369 C4378 0.930 . S
H4370 C4383 0.929 . S
H4371 C4381 0.929 . S
H4372 C4376 0.929 . S
H4373 C4382 0.929 . S
C4374 H4368 0.930 . S
C4374 C4375 1.367 . S
C4374 C4382 1.378 . S
C4375 C4374 1.367 . S
C4375 C4383 1.433 . S
C4376 H4372 0.929 . S
C4376 C4378 1.378 . S
C4376 C4380 1.350 . S
C4377 C4380 1.463 . S
C4377 C4382 1.350 . S
C4377 N4385 1.427 . S
C4378 H4369 0.930 . S
C4378 C4376 1.378 . S
C4378 C4379 1.367 . S
C4379 C4378 1.367 . S
C4379 C4381 1.433 . S
C4380 C4376 1.350 . S
C4380 C4377 1.463 . S
C4380 N4384 1.427 . S
C4381 H4371 0.929 . S
C4381 C4379 1.433 . S
C4381 N4384 1.384 . S
C4382 H4373 0.929 . S
C4382 C4374 1.378 . S
C4382 C4377 1.350 . S
C4383 H4370 0.929 . S
C4383 C4375 1.433 . S
C4383 N4385 1.384 . S
N4384 C4380 1.427 . S
N4384 C4381 1.384 . S
N4385 C4377 1.427 . S
N4385 C4383 1.384 . S
H4386 C4392 0.930 . S
H4387 C4396 0.930 . S
H4388 C4401 0.929 . S
H4389 C4399 0.929 . S
H4390 C4394 0.929 . S
H4391 C4400 0.929 . S
C4392 H4386 0.930 . S
C4392 C4393 1.367 . S
C4392 C4400 1.378 . S
C4393 C4392 1.367 . S
C4393 C4401 1.433 . S
C4394 H4390 0.929 . S
C4394 C4396 1.378 . S
C4394 C4398 1.350 . S
C4395 C4398 1.463 . S
C4395 C4400 1.350 . S
C4395 N4403 1.427 . S
C4396 H4387 0.930 . S
C4396 C4394 1.378 . S
C4396 C4397 1.367 . S
C4397 C4396 1.367 . S
C4397 C4399 1.433 . S
C4398 C4394 1.350 . S
C4398 C4395 1.463 . S
C4398 N4402 1.427 . S
C4399 H4389 0.929 . S
C4399 C4397 1.433 . S
C4399 N4402 1.384 . S
C4400 H4391 0.929 . S
C4400 C4392 1.378 . S
C4400 C4395 1.350 . S
C4401 H4388 0.929 . S
C4401 C4393 1.433 . S
C4401 N4403 1.384 . S
N4402 C4398 1.427 . S
N4402 C4399 1.384 . S
N4403 C4395 1.427 . S
N4403 C4401 1.384 . S
H4404 C4410 0.930 . S
H4405 C4414 0.930 . S
H4406 C4419 0.929 . S
H4407 C4417 0.929 . S
H4408 C4412 0.929 . S
H4409 C4418 0.929 . S
C4410 H4404 0.930 . S
C4410 C4411 1.367 . S
C4410 C4418 1.378 . S
C4411 C4410 1.367 . S
C4411 C4419 1.433 . S
C4412 H4408 0.929 . S
C4412 C4414 1.378 . S
C4412 C4416 1.350 . S
C4413 C4416 1.463 . S
C4413 C4418 1.350 . S
C4413 N4421 1.427 . S
C4414 H4405 0.930 . S
C4414 C4412 1.378 . S
C4414 C4415 1.367 . S
C4415 C4414 1.367 . S
C4415 C4417 1.433 . S
C4416 C4412 1.350 . S
C4416 C4413 1.463 . S
C4416 N4420 1.427 . S
C4417 H4407 0.929 . S
C4417 C4415 1.433 . S
C4417 N4420 1.384 . S
C4418 H4409 0.929 . S
C4418 C4410 1.378 . S
C4418 C4413 1.350 . S
C4419 H4406 0.929 . S
C4419 C4411 1.433 . S
C4419 N4421 1.384 . S
N4420 C4416 1.427 . S
N4420 C4417 1.384 . S
N4421 C4413 1.427 . S
N4421 C4419 1.384 . S
H4422 C4428 0.930 . S
H4423 C4432 0.930 . S
H4424 C4437 0.929 . S
H4425 C4435 0.929 . S
H4426 C4430 0.929 . S
H4427 C4436 0.929 . S
C4428 H4422 0.930 . S
C4428 C4429 1.367 . S
C4428 C4436 1.378 . S
C4429 C4428 1.367 . S
C4429 C4437 1.433 . S
C4430 H4426 0.929 . S
C4430 C4432 1.378 . S
C4430 C4434 1.350 . S
C4431 C4434 1.463 . S
C4431 C4436 1.350 . S
C4431 N4439 1.427 . S
C4432 H4423 0.930 . S
C4432 C4430 1.378 . S
C4432 C4433 1.367 . S
C4433 C4432 1.367 . S
C4433 C4435 1.433 . S
C4434 C4430 1.350 . S
C4434 C4431 1.463 . S
C4434 N4438 1.427 . S
C4435 H4425 0.929 . S
C4435 C4433 1.433 . S
C4435 N4438 1.384 . S
C4436 H4427 0.929 . S
C4436 C4428 1.378 . S
C4436 C4431 1.350 . S
C4437 H4424 0.929 . S
C4437 C4429 1.433 . S
C4437 N4439 1.384 . S
N4438 C4434 1.427 . S
N4438 C4435 1.384 . S
N4439 C4431 1.427 . S
N4439 C4437 1.384 . S
H4440 C4446 0.930 . S
H4441 C4450 0.930 . S
H4442 C4455 0.929 . S
H4443 C4453 0.929 . S
H4444 C4448 0.929 . S
H4445 C4454 0.929 . S
C4446 H4440 0.930 . S
C4446 C4447 1.367 . S
C4446 C4454 1.378 . S
C4447 C4446 1.367 . S
C4447 C4455 1.433 . S
C4448 H4444 0.929 . S
C4448 C4450 1.378 . S
C4448 C4452 1.350 . S
C4449 C4452 1.463 . S
C4449 C4454 1.350 . S
C4449 N4457 1.427 . S
C4450 H4441 0.930 . S
C4450 C4448 1.378 . S
C4450 C4451 1.367 . S
C4451 C4450 1.367 . S
C4451 C4453 1.433 . S
C4452 C4448 1.350 . S
C4452 C4449 1.463 . S
C4452 N4456 1.427 . S
C4453 H4443 0.929 . S
C4453 C4451 1.433 . S
C4453 N4456 1.384 . S
C4454 H4445 0.929 . S
C4454 C4446 1.378 . S
C4454 C4449 1.350 . S
C4455 H4442 0.929 . S
C4455 C4447 1.433 . S
C4455 N4457 1.384 . S
N4456 C4452 1.427 . S
N4456 C4453 1.384 . S
N4457 C4449 1.427 . S
N4457 C4455 1.384 . S
H4458 C4464 0.930 . S
H4459 C4468 0.930 . S
H4460 C4473 0.929 . S
H4461 C4471 0.929 . S
H4462 C4466 0.929 . S
H4463 C4472 0.929 . S
C4464 H4458 0.930 . S
C4464 C4465 1.367 . S
C4464 C4472 1.378 . S
C4465 C4464 1.367 . S
C4465 C4473 1.433 . S
C4466 H4462 0.929 . S
C4466 C4468 1.378 . S
C4466 C4470 1.350 . S
C4467 C4470 1.463 . S
C4467 C4472 1.350 . S
C4467 N4475 1.427 . S
C4468 H4459 0.930 . S
C4468 C4466 1.378 . S
C4468 C4469 1.367 . S
C4469 C4468 1.367 . S
C4469 C4471 1.433 . S
C4470 C4466 1.350 . S
C4470 C4467 1.463 . S
C4470 N4474 1.427 . S
C4471 H4461 0.929 . S
C4471 C4469 1.433 . S
C4471 N4474 1.384 . S
C4472 H4463 0.929 . S
C4472 C4464 1.378 . S
C4472 C4467 1.350 . S
C4473 H4460 0.929 . S
C4473 C4465 1.433 . S
C4473 N4475 1.384 . S
N4474 C4470 1.427 . S
N4474 C4471 1.384 . S
N4475 C4467 1.427 . S
N4475 C4473 1.384 . S
H4476 C4482 0.930 . S
H4477 C4486 0.930 . S
H4478 C4491 0.929 . S
H4479 C4489 0.929 . S
H4480 C4484 0.929 . S
H4481 C4490 0.929 . S
C4482 H4476 0.930 . S
C4482 C4483 1.367 . S
C4482 C4490 1.378 . S
C4483 C4482 1.367 . S
C4483 C4491 1.433 . S
C4484 H4480 0.929 . S
C4484 C4486 1.378 . S
C4484 C4488 1.350 . S
C4485 C4488 1.463 . S
C4485 C4490 1.350 . S
C4485 N4493 1.427 . S
C4486 H4477 0.930 . S
C4486 C4484 1.378 . S
C4486 C4487 1.367 . S
C4487 C4486 1.367 . S
C4487 C4489 1.433 . S
C4488 C4484 1.350 . S
C4488 C4485 1.463 . S
C4488 N4492 1.427 . S
C4489 H4479 0.929 . S
C4489 C4487 1.433 . S
C4489 N4492 1.384 . S
C4490 H4481 0.929 . S
C4490 C4482 1.378 . S
C4490 C4485 1.350 . S
C4491 H4478 0.929 . S
C4491 C4483 1.433 . S
C4491 N4493 1.384 . S
N4492 C4488 1.427 . S
N4492 C4489 1.384 . S
N4493 C4485 1.427 . S
N4493 C4491 1.384 . S
H4494 C4500 0.930 . S
H4495 C4504 0.930 . S
H4496 C4509 0.929 . S
H4497 C4507 0.929 . S
H4498 C4502 0.929 . S
H4499 C4508 0.929 . S
C4500 H4494 0.930 . S
C4500 C4501 1.367 . S
C4500 C4508 1.378 . S
C4501 C4500 1.367 . S
C4501 C4509 1.433 . S
C4502 H4498 0.929 . S
C4502 C4504 1.378 . S
C4502 C4506 1.350 . S
C4503 C4506 1.463 . S
C4503 C4508 1.350 . S
C4503 N4511 1.427 . S
C4504 H4495 0.930 . S
C4504 C4502 1.378 . S
C4504 C4505 1.367 . S
C4505 C4504 1.367 . S
C4505 C4507 1.433 . S
C4506 C4502 1.350 . S
C4506 C4503 1.463 . S
C4506 N4510 1.427 . S
C4507 H4497 0.929 . S
C4507 C4505 1.433 . S
C4507 N4510 1.384 . S
C4508 H4499 0.929 . S
C4508 C4500 1.378 . S
C4508 C4503 1.350 . S
C4509 H4496 0.929 . S
C4509 C4501 1.433 . S
C4509 N4511 1.384 . S
N4510 C4506 1.427 . S
N4510 C4507 1.384 . S
N4511 C4503 1.427 . S
N4511 C4509 1.384 . S
H4512 C4518 0.930 . S
H4513 C4522 0.930 . S
H4514 C4527 0.929 . S
H4515 C4525 0.929 . S
H4516 C4520 0.929 . S
H4517 C4526 0.929 . S
C4518 H4512 0.930 . S
C4518 C4519 1.367 . S
C4518 C4526 1.378 . S
C4519 C4518 1.367 . S
C4519 C4527 1.433 . S
C4520 H4516 0.929 . S
C4520 C4522 1.378 . S
C4520 C4524 1.350 . S
C4521 C4524 1.463 . S
C4521 C4526 1.350 . S
C4521 N4529 1.427 . S
C4522 H4513 0.930 . S
C4522 C4520 1.378 . S
C4522 C4523 1.367 . S
C4523 C4522 1.367 . S
C4523 C4525 1.433 . S
C4524 C4520 1.350 . S
C4524 C4521 1.463 . S
C4524 N4528 1.427 . S
C4525 H4515 0.929 . S
C4525 C4523 1.433 . S
C4525 N4528 1.384 . S
C4526 H4517 0.929 . S
C4526 C4518 1.378 . S
C4526 C4521 1.350 . S
C4527 H4514 0.929 . S
C4527 C4519 1.433 . S
C4527 N4529 1.384 . S
N4528 C4524 1.427 . S
N4528 C4525 1.384 . S
N4529 C4521 1.427 . S
N4529 C4527 1.384 . S
H4530 C4536 0.930 . S
H4531 C4540 0.930 . S
H4532 C4545 0.929 . S
H4533 C4543 0.929 . S
H4534 C4538 0.929 . S
H4535 C4544 0.929 . S
C4536 H4530 0.930 . S
C4536 C4537 1.367 . S
C4536 C4544 1.378 . S
C4537 C4536 1.367 . S
C4537 C4545 1.433 . S
C4538 H4534 0.929 . S
C4538 C4540 1.378 . S
C4538 C4542 1.350 . S
C4539 C4542 1.463 . S
C4539 C4544 1.350 . S
C4539 N4547 1.427 . S
C4540 H4531 0.930 . S
C4540 C4538 1.378 . S
C4540 C4541 1.367 . S
C4541 C4540 1.367 . S
C4541 C4543 1.433 . S
C4542 C4538 1.350 . S
C4542 C4539 1.463 . S
C4542 N4546 1.427 . S
C4543 H4533 0.929 . S
C4543 C4541 1.433 . S
C4543 N4546 1.384 . S
C4544 H4535 0.929 . S
C4544 C4536 1.378 . S
C4544 C4539 1.350 . S
C4545 H4532 0.929 . S
C4545 C4537 1.433 . S
C4545 N4547 1.384 . S
N4546 C4542 1.427 . S
N4546 C4543 1.384 . S
N4547 C4539 1.427 . S
N4547 C4545 1.384 . S
H4548 C4554 0.930 . S
H4549 C4558 0.930 . S
H4550 C4563 0.929 . S
H4551 C4561 0.929 . S
H4552 C4556 0.929 . S
H4553 C4562 0.929 . S
C4554 H4548 0.930 . S
C4554 C4555 1.367 . S
C4554 C4562 1.378 . S
C4555 C4554 1.367 . S
C4555 C4563 1.433 . S
C4556 H4552 0.929 . S
C4556 C4558 1.378 . S
C4556 C4560 1.350 . S
C4557 C4560 1.463 . S
C4557 C4562 1.350 . S
C4557 N4565 1.427 . S
C4558 H4549 0.930 . S
C4558 C4556 1.378 . S
C4558 C4559 1.367 . S
C4559 C4558 1.367 . S
C4559 C4561 1.433 . S
C4560 C4556 1.350 . S
C4560 C4557 1.463 . S
C4560 N4564 1.427 . S
C4561 H4551 0.929 . S
C4561 C4559 1.433 . S
C4561 N4564 1.384 . S
C4562 H4553 0.929 . S
C4562 C4554 1.378 . S
C4562 C4557 1.350 . S
C4563 H4550 0.929 . S
C4563 C4555 1.433 . S
C4563 N4565 1.384 . S
N4564 C4560 1.427 . S
N4564 C4561 1.384 . S
N4565 C4557 1.427 . S
N4565 C4563 1.384 . S
H4566 C4572 0.930 . S
H4567 C4576 0.930 . S
H4568 C4581 0.929 . S
H4569 C4579 0.929 . S
H4570 C4574 0.929 . S
H4571 C4580 0.929 . S
C4572 H4566 0.930 . S
C4572 C4573 1.367 . S
C4572 C4580 1.378 . S
C4573 C4572 1.367 . S
C4573 C4581 1.433 . S
C4574 H4570 0.929 . S
C4574 C4576 1.378 . S
C4574 C4578 1.350 . S
C4575 C4578 1.463 . S
C4575 C4580 1.350 . S
C4575 N4583 1.427 . S
C4576 H4567 0.930 . S
C4576 C4574 1.378 . S
C4576 C4577 1.367 . S
C4577 C4576 1.367 . S
C4577 C4579 1.433 . S
C4578 C4574 1.350 . S
C4578 C4575 1.463 . S
C4578 N4582 1.427 . S
C4579 H4569 0.929 . S
C4579 C4577 1.433 . S
C4579 N4582 1.384 . S
C4580 H4571 0.929 . S
C4580 C4572 1.378 . S
C4580 C4575 1.350 . S
C4581 H4568 0.929 . S
C4581 C4573 1.433 . S
C4581 N4583 1.384 . S
N4582 C4578 1.427 . S
N4582 C4579 1.384 . S
N4583 C4575 1.427 . S
N4583 C4581 1.384 . S
H4584 C4590 0.930 . S
H4585 C4594 0.930 . S
H4586 C4599 0.929 . S
H4587 C4597 0.929 . S
H4588 C4592 0.929 . S
H4589 C4598 0.929 . S
C4590 H4584 0.930 . S
C4590 C4591 1.367 . S
C4590 C4598 1.378 . S
C4591 C4590 1.367 . S
C4591 C4599 1.433 . S
C4592 H4588 0.929 . S
C4592 C4594 1.378 . S
C4592 C4596 1.350 . S
C4593 C4596 1.463 . S
C4593 C4598 1.350 . S
C4593 N4601 1.427 . S
C4594 H4585 0.930 . S
C4594 C4592 1.378 . S
C4594 C4595 1.367 . S
C4595 C4594 1.367 . S
C4595 C4597 1.433 . S
C4596 C4592 1.350 . S
C4596 C4593 1.463 . S
C4596 N4600 1.427 . S
C4597 H4587 0.929 . S
C4597 C4595 1.433 . S
C4597 N4600 1.384 . S
C4598 H4589 0.929 . S
C4598 C4590 1.378 . S
C4598 C4593 1.350 . S
C4599 H4586 0.929 . S
C4599 C4591 1.433 . S
C4599 N4601 1.384 . S
N4600 C4596 1.427 . S
N4600 C4597 1.384 . S
N4601 C4593 1.427 . S
N4601 C4599 1.384 . S
H4602 C4608 0.930 . S
H4603 C4612 0.930 . S
H4604 C4617 0.929 . S
H4605 C4615 0.929 . S
H4606 C4610 0.929 . S
H4607 C4616 0.929 . S
C4608 H4602 0.930 . S
C4608 C4609 1.367 . S
C4608 C4616 1.378 . S
C4609 C4608 1.367 . S
C4609 C4617 1.433 . S
C4610 H4606 0.929 . S
C4610 C4612 1.378 . S
C4610 C4614 1.350 . S
C4611 C4614 1.463 . S
C4611 C4616 1.350 . S
C4611 N4619 1.427 . S
C4612 H4603 0.930 . S
C4612 C4610 1.378 . S
C4612 C4613 1.367 . S
C4613 C4612 1.367 . S
C4613 C4615 1.433 . S
C4614 C4610 1.350 . S
C4614 C4611 1.463 . S
C4614 N4618 1.427 . S
C4615 H4605 0.929 . S
C4615 C4613 1.433 . S
C4615 N4618 1.384 . S
C4616 H4607 0.929 . S
C4616 C4608 1.378 . S
C4616 C4611 1.350 . S
C4617 H4604 0.929 . S
C4617 C4609 1.433 . S
C4617 N4619 1.384 . S
N4618 C4614 1.427 . S
N4618 C4615 1.384 . S
N4619 C4611 1.427 . S
N4619 C4617 1.384 . S
H4620 C4626 0.930 . S
H4621 C4630 0.930 . S
H4622 C4635 0.929 . S
H4623 C4633 0.929 . S
H4624 C4628 0.929 . S
H4625 C4634 0.929 . S
C4626 H4620 0.930 . S
C4626 C4627 1.367 . S
C4626 C4634 1.378 . S
C4627 C4626 1.367 . S
C4627 C4635 1.433 . S
C4628 H4624 0.929 . S
C4628 C4630 1.378 . S
C4628 C4632 1.350 . S
C4629 C4632 1.463 . S
C4629 C4634 1.350 . S
C4629 N4637 1.427 . S
C4630 H4621 0.930 . S
C4630 C4628 1.378 . S
C4630 C4631 1.367 . S
C4631 C4630 1.367 . S
C4631 C4633 1.433 . S
C4632 C4628 1.350 . S
C4632 C4629 1.463 . S
C4632 N4636 1.427 . S
C4633 H4623 0.929 . S
C4633 C4631 1.433 . S
C4633 N4636 1.384 . S
C4634 H4625 0.929 . S
C4634 C4626 1.378 . S
C4634 C4629 1.350 . S
C4635 H4622 0.929 . S
C4635 C4627 1.433 . S
C4635 N4637 1.384 . S
N4636 C4632 1.427 . S
N4636 C4633 1.384 . S
N4637 C4629 1.427 . S
N4637 C4635 1.384 . S
H4638 C4644 0.930 . S
H4639 C4648 0.930 . S
H4640 C4653 0.929 . S
H4641 C4651 0.929 . S
H4642 C4646 0.929 . S
H4643 C4652 0.929 . S
C4644 H4638 0.930 . S
C4644 C4645 1.367 . S
C4644 C4652 1.378 . S
C4645 C4644 1.367 . S
C4645 C4653 1.433 . S
C4646 H4642 0.929 . S
C4646 C4648 1.378 . S
C4646 C4650 1.350 . S
C4647 C4650 1.463 . S
C4647 C4652 1.350 . S
C4647 N4655 1.427 . S
C4648 H4639 0.930 . S
C4648 C4646 1.378 . S
C4648 C4649 1.367 . S
C4649 C4648 1.367 . S
C4649 C4651 1.433 . S
C4650 C4646 1.350 . S
C4650 C4647 1.463 . S
C4650 N4654 1.427 . S
C4651 H4641 0.929 . S
C4651 C4649 1.433 . S
C4651 N4654 1.384 . S
C4652 H4643 0.929 . S
C4652 C4644 1.378 . S
C4652 C4647 1.350 . S
C4653 H4640 0.929 . S
C4653 C4645 1.433 . S
C4653 N4655 1.384 . S
N4654 C4650 1.427 . S
N4654 C4651 1.384 . S
N4655 C4647 1.427 . S
N4655 C4653 1.384 . S
H4656 C4662 0.930 . S
H4657 C4666 0.930 . S
H4658 C4671 0.929 . S
H4659 C4669 0.929 . S
H4660 C4664 0.929 . S
H4661 C4670 0.929 . S
C4662 H4656 0.930 . S
C4662 C4663 1.367 . S
C4662 C4670 1.378 . S
C4663 C4662 1.367 . S
C4663 C4671 1.433 . S
C4664 H4660 0.929 . S
C4664 C4666 1.378 . S
C4664 C4668 1.350 . S
C4665 C4668 1.463 . S
C4665 C4670 1.350 . S
C4665 N4673 1.427 . S
C4666 H4657 0.930 . S
C4666 C4664 1.378 . S
C4666 C4667 1.367 . S
C4667 C4666 1.367 . S
C4667 C4669 1.433 . S
C4668 C4664 1.350 . S
C4668 C4665 1.463 . S
C4668 N4672 1.427 . S
C4669 H4659 0.929 . S
C4669 C4667 1.433 . S
C4669 N4672 1.384 . S
C4670 H4661 0.929 . S
C4670 C4662 1.378 . S
C4670 C4665 1.350 . S
C4671 H4658 0.929 . S
C4671 C4663 1.433 . S
C4671 N4673 1.384 . S
N4672 C4668 1.427 . S
N4672 C4669 1.384 . S
N4673 C4665 1.427 . S
N4673 C4671 1.384 . S
H4674 C4680 0.930 . S
H4675 C4684 0.930 . S
H4676 C4689 0.929 . S
H4677 C4687 0.929 . S
H4678 C4682 0.929 . S
H4679 C4688 0.929 . S
C4680 H4674 0.930 . S
C4680 C4681 1.367 . S
C4680 C4688 1.378 . S
C4681 C4680 1.367 . S
C4681 C4689 1.433 . S
C4682 H4678 0.929 . S
C4682 C4684 1.378 . S
C4682 C4686 1.350 . S
C4683 C4686 1.463 . S
C4683 C4688 1.350 . S
C4683 N4691 1.427 . S
C4684 H4675 0.930 . S
C4684 C4682 1.378 . S
C4684 C4685 1.367 . S
C4685 C4684 1.367 . S
C4685 C4687 1.433 . S
C4686 C4682 1.350 . S
C4686 C4683 1.463 . S
C4686 N4690 1.427 . S
C4687 H4677 0.929 . S
C4687 C4685 1.433 . S
C4687 N4690 1.384 . S
C4688 H4679 0.929 . S
C4688 C4680 1.378 . S
C4688 C4683 1.350 . S
C4689 H4676 0.929 . S
C4689 C4681 1.433 . S
C4689 N4691 1.384 . S
N4690 C4686 1.427 . S
N4690 C4687 1.384 . S
N4691 C4683 1.427 . S
N4691 C4689 1.384 . S
H4692 C4698 0.930 . S
H4693 C4702 0.930 . S
H4694 C4707 0.929 . S
H4695 C4705 0.929 . S
H4696 C4700 0.929 . S
H4697 C4706 0.929 . S
C4698 H4692 0.930 . S
C4698 C4699 1.367 . S
C4698 C4706 1.378 . S
C4699 C4698 1.367 . S
C4699 C4707 1.433 . S
C4700 H4696 0.929 . S
C4700 C4702 1.378 . S
C4700 C4704 1.350 . S
C4701 C4704 1.463 . S
C4701 C4706 1.350 . S
C4701 N4709 1.427 . S
C4702 H4693 0.930 . S
C4702 C4700 1.378 . S
C4702 C4703 1.367 . S
C4703 C4702 1.367 . S
C4703 C4705 1.433 . S
C4704 C4700 1.350 . S
C4704 C4701 1.463 . S
C4704 N4708 1.427 . S
C4705 H4695 0.929 . S
C4705 C4703 1.433 . S
C4705 N4708 1.384 . S
C4706 H4697 0.929 . S
C4706 C4698 1.378 . S
C4706 C4701 1.350 . S
C4707 H4694 0.929 . S
C4707 C4699 1.433 . S
C4707 N4709 1.384 . S
N4708 C4704 1.427 . S
N4708 C4705 1.384 . S
N4709 C4701 1.427 . S
N4709 C4707 1.384 . S
H4710 C4716 0.930 . S
H4711 C4720 0.930 . S
H4712 C4725 0.929 . S
H4713 C4723 0.929 . S
H4714 C4718 0.929 . S
H4715 C4724 0.929 . S
C4716 H4710 0.930 . S
C4716 C4717 1.367 . S
C4716 C4724 1.378 . S
C4717 C4716 1.367 . S
C4717 C4725 1.433 . S
C4718 H4714 0.929 . S
C4718 C4720 1.378 . S
C4718 C4722 1.350 . S
C4719 C4722 1.463 . S
C4719 C4724 1.350 . S
C4719 N4727 1.427 . S
C4720 H4711 0.930 . S
C4720 C4718 1.378 . S
C4720 C4721 1.367 . S
C4721 C4720 1.367 . S
C4721 C4723 1.433 . S
C4722 C4718 1.350 . S
C4722 C4719 1.463 . S
C4722 N4726 1.427 . S
C4723 H4713 0.929 . S
C4723 C4721 1.433 . S
C4723 N4726 1.384 . S
C4724 H4715 0.929 . S
C4724 C4716 1.378 . S
C4724 C4719 1.350 . S
C4725 H4712 0.929 . S
C4725 C4717 1.433 . S
C4725 N4727 1.384 . S
N4726 C4722 1.427 . S
N4726 C4723 1.384 . S
N4727 C4719 1.427 . S
N4727 C4725 1.384 . S
H4728 C4734 0.930 . S
H4729 C4738 0.930 . S
H4730 C4743 0.929 . S
H4731 C4741 0.929 . S
H4732 C4736 0.929 . S
H4733 C4742 0.929 . S
C4734 H4728 0.930 . S
C4734 C4735 1.367 . S
C4734 C4742 1.378 . S
C4735 C4734 1.367 . S
C4735 C4743 1.433 . S
C4736 H4732 0.929 . S
C4736 C4738 1.378 . S
C4736 C4740 1.350 . S
C4737 C4740 1.463 . S
C4737 C4742 1.350 . S
C4737 N4745 1.427 . S
C4738 H4729 0.930 . S
C4738 C4736 1.378 . S
C4738 C4739 1.367 . S
C4739 C4738 1.367 . S
C4739 C4741 1.433 . S
C4740 C4736 1.350 . S
C4740 C4737 1.463 . S
C4740 N4744 1.427 . S
C4741 H4731 0.929 . S
C4741 C4739 1.433 . S
C4741 N4744 1.384 . S
C4742 H4733 0.929 . S
C4742 C4734 1.378 . S
C4742 C4737 1.350 . S
C4743 H4730 0.929 . S
C4743 C4735 1.433 . S
C4743 N4745 1.384 . S
N4744 C4740 1.427 . S
N4744 C4741 1.384 . S
N4745 C4737 1.427 . S
N4745 C4743 1.384 . S
H4746 C4752 0.930 . S
H4747 C4756 0.930 . S
H4748 C4761 0.929 . S
H4749 C4759 0.929 . S
H4750 C4754 0.929 . S
H4751 C4760 0.929 . S
C4752 H4746 0.930 . S
C4752 C4753 1.367 . S
C4752 C4760 1.378 . S
C4753 C4752 1.367 . S
C4753 C4761 1.433 . S
C4754 H4750 0.929 . S
C4754 C4756 1.378 . S
C4754 C4758 1.350 . S
C4755 C4758 1.463 . S
C4755 C4760 1.350 . S
C4755 N4763 1.427 . S
C4756 H4747 0.930 . S
C4756 C4754 1.378 . S
C4756 C4757 1.367 . S
C4757 C4756 1.367 . S
C4757 C4759 1.433 . S
C4758 C4754 1.350 . S
C4758 C4755 1.463 . S
C4758 N4762 1.427 . S
C4759 H4749 0.929 . S
C4759 C4757 1.433 . S
C4759 N4762 1.384 . S
C4760 H4751 0.929 . S
C4760 C4752 1.378 . S
C4760 C4755 1.350 . S
C4761 H4748 0.929 . S
C4761 C4753 1.433 . S
C4761 N4763 1.384 . S
N4762 C4758 1.427 . S
N4762 C4759 1.384 . S
N4763 C4755 1.427 . S
N4763 C4761 1.384 . S
H4764 C4770 0.930 . S
H4765 C4774 0.930 . S
H4766 C4779 0.929 . S
H4767 C4777 0.929 . S
H4768 C4772 0.929 . S
H4769 C4778 0.929 . S
C4770 H4764 0.930 . S
C4770 C4771 1.367 . S
C4770 C4778 1.378 . S
C4771 C4770 1.367 . S
C4771 C4779 1.433 . S
C4772 H4768 0.929 . S
C4772 C4774 1.378 . S
C4772 C4776 1.350 . S
C4773 C4776 1.463 . S
C4773 C4778 1.350 . S
C4773 N4781 1.427 . S
C4774 H4765 0.930 . S
C4774 C4772 1.378 . S
C4774 C4775 1.367 . S
C4775 C4774 1.367 . S
C4775 C4777 1.433 . S
C4776 C4772 1.350 . S
C4776 C4773 1.463 . S
C4776 N4780 1.427 . S
C4777 H4767 0.929 . S
C4777 C4775 1.433 . S
C4777 N4780 1.384 . S
C4778 H4769 0.929 . S
C4778 C4770 1.378 . S
C4778 C4773 1.350 . S
C4779 H4766 0.929 . S
C4779 C4771 1.433 . S
C4779 N4781 1.384 . S
N4780 C4776 1.427 . S
N4780 C4777 1.384 . S
N4781 C4773 1.427 . S
N4781 C4779 1.384 . S
H4782 C4788 0.930 . S
H4783 C4792 0.930 . S
H4784 C4797 0.929 . S
H4785 C4795 0.929 . S
H4786 C4790 0.929 . S
H4787 C4796 0.929 . S
C4788 H4782 0.930 . S
C4788 C4789 1.367 . S
C4788 C4796 1.378 . S
C4789 C4788 1.367 . S
C4789 C4797 1.433 . S
C4790 H4786 0.929 . S
C4790 C4792 1.378 . S
C4790 C4794 1.350 . S
C4791 C4794 1.463 . S
C4791 C4796 1.350 . S
C4791 N4799 1.427 . S
C4792 H4783 0.930 . S
C4792 C4790 1.378 . S
C4792 C4793 1.367 . S
C4793 C4792 1.367 . S
C4793 C4795 1.433 . S
C4794 C4790 1.350 . S
C4794 C4791 1.463 . S
C4794 N4798 1.427 . S
C4795 H4785 0.929 . S
C4795 C4793 1.433 . S
C4795 N4798 1.384 . S
C4796 H4787 0.929 . S
C4796 C4788 1.378 . S
C4796 C4791 1.350 . S
C4797 H4784 0.929 . S
C4797 C4789 1.433 . S
C4797 N4799 1.384 . S
N4798 C4794 1.427 . S
N4798 C4795 1.384 . S
N4799 C4791 1.427 . S
N4799 C4797 1.384 . S
C1351 C7 1.348 . S
C1355 C427 1.357 . S
C1369 C777 1.359 . S
C1373 C21 1.348 . S
C1387 C35 1.360 . S
C1391 C399 1.350 . S
C1405 C49 1.356 . S
C1409 C749 1.356 . S
C1423 C371 1.360 . S
C1427 C63 1.351 . S
C1441 C77 1.351 . S
C1445 C721 1.360 . S
C1459 C343 1.360 . S
C1463 C91 1.349 . S
C1477 C105 1.351 . S
C1481 C693 1.359 . S
C1495 C483 1.357 . S
C1499 C119 1.348 . S
C1513 C133 1.360 . S
C1517 C833 1.349 . S
C1531 C147 1.348 . S
C1535 C455 1.359 . S
C1549 C161 1.348 . S
C1553 C805 1.357 . S
C1567 C175 1.360 . S
C1571 C539 1.349 . S
C1585 C889 1.359 . S
C1589 C189 1.348 . S
C1603 C511 1.360 . S
C1607 C203 1.351 . S
C1621 C217 1.348 . S
C1625 C861 1.359 . S
C1639 C917 1.355 . S
C1643 C231 1.357 . S
C1657 C903 1.352 . S
C1661 C245 1.359 . S
C1675 C259 1.360 . S
C1679 C1001 1.350 . S
C1693 C1309 1.359 . S
C1697 C273 1.348 . S
C1711 C651 1.348 . S
C1715 C287 1.357 . S
C1729 C301 1.359 . S
C1733 C1281 1.348 . S
C1747 C315 1.351 . S
C1751 C623 1.353 . S
C1765 C329 1.350 . S
C1769 C931 1.355 . S
C1783 C357 1.355 . S
C1787 C1113 1.349 . S
C1801 C385 1.353 . S
C1805 C1085 1.351 . S
C1819 C413 1.356 . S
C1823 C1057 1.349 . S
C1837 C441 1.360 . S
C1841 C1029 1.348 . S
C1855 C1169 1.360 . S
C1859 C469 1.348 . S
C1873 C497 1.360 . S
C1877 C1141 1.349 . S
C1891 C1225 1.355 . S
C1895 C525 1.356 . S
C1909 C553 1.348 . S
C1913 C1197 1.358 . S
C1927 C567 1.355 . S
C1931 C1253 1.349 . S
C1945 C581 1.356 . S
C1949 C1239 1.356 . S
C1963 C595 1.360 . S
C1967 C1337 1.348 . S
C1981 C973 1.350 . S
C1985 C609 1.360 . S
C1999 C945 1.350 . S
C2003 C637 1.360 . S
C2017 C665 1.355 . S
C2021 C1267 1.349 . S
C2035 C679 1.350 . S
C2039 C1099 1.354 . S
C2053 C1071 1.348 . S
C2057 C707 1.360 . S
C2071 C735 1.348 . S
C2075 C1043 1.358 . S
C2089 C763 1.360 . S
C2093 C1015 1.348 . S
C2107 C1155 1.360 . S
C2111 C791 1.348 . S
C2125 C1127 1.350 . S
C2129 C819 1.355 . S
C2143 C847 1.348 . S
C2147 C1211 1.360 . S
C2161 C1183 1.349 . S
C2165 C875 1.356 . S
C2179 C959 1.349 . S
C2183 C1323 1.356 . S
C2197 C987 1.348 . S
C2201 C1295 1.357 . S
C2215 C8 1.366 . S
C2219 C778 1.370 . S
C2233 C22 1.364 . S
C2237 C400 1.367 . S
C2251 C36 1.370 . S
C2255 C750 1.366 . S
C2269 C428 1.370 . S
C2273 C50 1.364 . S
C2287 C64 1.364 . S
C2291 C358 1.370 . S
C2305 C78 1.365 . S
C2309 C708 1.366 . S
C2323 C92 1.370 . S
C2327 C386 1.364 . S
C2341 C680 1.364 . S
C2345 C106 1.368 . S
C2359 C120 1.368 . S
C2363 C288 1.364 . S
C2377 C134 1.367 . S
C2381 C1254 1.369 . S
C2395 C1268 1.364 . S
C2399 C148 1.370 . S
C2413 C162 1.369 . S
C2417 C1282 1.363 . S
C2431 C1002 1.363 . S
C2435 C176 1.369 . S
C2449 C1310 1.365 . S
C2453 C190 1.366 . S
C2467 C204 1.364 . S
C2471 C988 1.370 . S
C2485 C904 1.364 . S
C2489 C218 1.368 . S
C2503 C890 1.370 . S
C2507 C232 1.365 . S
C2521 C1142 1.364 . S
C2525 C246 1.368 . S
C2539 C260 1.369 . S
C2543 C1156 1.368 . S
C2557 C274 1.367 . S
C2561 C1170 1.364 . S
C2575 C302 1.369 . S
C2579 C1198 1.368 . S
C2593 C316 1.366 . S
C2597 C876 1.370 . S
C2611 C848 1.370 . S
C2615 C330 1.364 . S
C2629 C344 1.364 . S
C2633 C1114 1.370 . S
C2647 C1086 1.365 . S
C2651 C372 1.370 . S
C2665 C1044 1.364 . S
C2669 C414 1.367 . S
C2683 C442 1.365 . S
C2687 C1016 1.366 . S
C2701 C456 1.364 . S
C2705 C624 1.370 . S
C2719 C470 1.370 . S
C2723 C918 1.366 . S
C2737 C484 1.369 . S
C2741 C932 1.363 . S
C2755 C498 1.370 . S
C2759 C946 1.364 . S
C2773 C512 1.369 . S
C2777 C1338 1.368 . S
C2791 C974 1.369 . S
C2795 C526 1.368 . S
C2809 C1324 1.364 . S
C2813 C540 1.370 . S
C2827 C1240 1.364 . S
C2831 C554 1.369 . S
C2845 C1226 1.370 . S
C2849 C568 1.366 . S
C2863 C582 1.368 . S
C2867 C806 1.368 . S
C2881 C596 1.368 . S
C2885 C820 1.363 . S
C2899 C610 1.366 . S
C2903 C834 1.365 . S
C2917 C862 1.363 . S
C2921 C638 1.369 . S
C2935 C1212 1.366 . S
C2939 C652 1.370 . S
C2953 C1184 1.368 . S
C2957 C666 1.368 . S
C2971 C694 1.368 . S
C2975 C1072 1.368 . S
C2989 C722 1.368 . S
C2993 C1100 1.369 . S
C3007 C1030 1.368 . S
C3011 C736 1.368 . S
C3025 C1058 1.370 . S
C3029 C764 1.366 . S
C3043 C960 1.370 . S
C3047 C792 1.366 . S
C3061 C1296 1.370 . S
C3065 C1128 1.365 . S
C3079 C9 1.076 . S
C3083 C1305 1.175 . S
C3097 C23 1.088 . S
C3101 C983 1.175 . S
C3115 C899 1.185 . S
C3119 C37 1.087 . S
C3133 C997 1.182 . S
C3137 C51 1.074 . S
C3151 C65 1.074 . S
C3155 C269 1.182 . S
C3169 C79 1.080 . S
C3173 C1291 1.175 . S
C3187 C241 1.182 . S
C3191 C93 1.074 . S
C3205 C255 1.176 . S
C3209 C107 1.094 . S
C3223 C395 1.181 . S
C3227 C121 1.072 . S
C3241 C135 1.083 . S
C3245 C745 1.184 . S
C3259 C149 1.073 . S
C3263 C423 1.181 . S
C3277 C163 1.090 . S
C3281 C773 1.185 . S
C3295 C339 1.185 . S
C3299 C177 1.094 . S
C3313 C191 1.093 . S
C3317 C689 1.185 . S
C3331 C367 1.184 . S
C3335 C205 1.079 . S
C3349 C219 1.075 . S
C3353 C717 1.176 . S
C3367 C233 1.079 . S
C3371 C1207 1.184 . S
C3385 C479 1.184 . S
C3389 C247 1.082 . S
C3403 C261 1.095 . S
C3407 C829 1.177 . S
C3421 C451 1.176 . S
C3425 C275 1.093 . S
C3439 C289 1.100 . S
C3443 C465 1.180 . S
C3457 C843 1.176 . S
C3461 C303 1.091 . S
C3475 C185 1.175 . S
C3479 C317 1.083 . S
C3493 C213 1.177 . S
C3497 C331 1.096 . S
C3511 C969 1.176 . S
C3515 C345 1.094 . S
C3529 C359 1.080 . S
C3533 C1319 1.175 . S
C3547 C1235 1.182 . S
C3551 C373 1.101 . S
C3565 C387 1.087 . S
C3569 C1333 1.175 . S
C3583 C605 1.180 . S
C3587 C401 1.072 . S
C3601 C955 1.175 . S
C3605 C415 1.084 . S
C3619 C429 1.100 . S
C3623 C577 1.183 . S
C3637 C443 1.098 . S
C3641 C591 1.178 . S
C3655 C457 1.072 . S
C3659 C59 1.180 . S
C3673 C471 1.081 . S
C3677 C1081 1.184 . S
C3691 C87 1.183 . S
C3695 C485 1.100 . S
C3709 C499 1.083 . S
C3713 C1109 1.184 . S
C3727 C3 1.175 . S
C3731 C513 1.089 . S
C3745 C527 1.096 . S
C3749 C1025 1.184 . S
C3763 C31 1.175 . S
C3767 C541 1.076 . S
C3781 C1053 1.181 . S
C3785 C555 1.101 . S
C3799 C569 1.100 . S
C3803 C871 1.183 . S
C3817 C583 1.098 . S
C3821 C143 1.184 . S
C3835 C1165 1.183 . S
C3839 C597 1.100 . S
C3853 C611 1.083 . S
C3857 C115 1.184 . S
C3871 C129 1.175 . S
C3875 C625 1.086 . S
C3889 C639 1.093 . S
C3893 C1179 1.185 . S
C3907 C521 1.175 . S
C3911 C653 1.079 . S
C3925 C667 1.101 . S
C3929 C549 1.180 . S
C3943 C633 1.182 . S
C3947 C681 1.101 . S
C3961 C695 1.075 . S
C3965 C311 1.176 . S
C3979 C709 1.078 . S
C3983 C227 1.175 . S
C3997 C723 1.083 . S
C4001 C325 1.184 . S
C4015 C737 1.089 . S
C4019 C941 1.175 . S
C4033 C619 1.176 . S
C4037 C751 1.094 . S
C4051 C913 1.179 . S
C4055 C765 1.071 . S
C4069 C779 1.094 . S
C4073 C927 1.185 . S
C4087 C1067 1.176 . S
C4091 C793 1.075 . S
C4105 C73 1.181 . S
C4109 C807 1.072 . S
C4123 C1095 1.176 . S
C4127 C821 1.075 . S
C4141 C835 1.100 . S
C4145 C101 1.179 . S
C4159 C1011 1.184 . S
C4163 C849 1.096 . S
C4177 C863 1.087 . S
C4181 C17 1.185 . S
C4195 C1039 1.181 . S
C4199 C877 1.101 . S
C4213 C45 1.175 . S
C4217 C891 1.082 . S
C4231 C535 1.179 . S
C4235 C905 1.100 . S
C4249 C919 1.084 . S
C4253 C1151 1.185 . S
C4267 C933 1.071 . S
C4271 C157 1.180 . S
C4285 C1123 1.176 . S
C4289 C947 1.074 . S
C4303 C961 1.089 . S
C4307 C1137 1.175 . S
C4321 C171 1.175 . S
C4325 C975 1.077 . S
C4339 C857 1.175 . S
C4343 C989 1.084 . S
C4357 C1003 1.072 . S
C4361 C885 1.180 . S
C4375 C1017 1.071 . S
C4379 C297 1.179 . S
C4393 C647 1.177 . S
C4397 C1031 1.097 . S
C4411 C563 1.184 . S
C4415 C1045 1.098 . S
C4429 C1059 1.092 . S
C4433 C661 1.185 . S
C4447 C1073 1.101 . S
C4451 C1277 1.182 . S
C4465 C283 1.184 . S
C4469 C1087 1.081 . S
C4483 C1249 1.176 . S
C4487 C1101 1.074 . S
C4501 C1263 1.175 . S
C4505 C1115 1.090 . S
C4519 C731 1.184 . S
C4523 C1129 1.097 . S
C4537 C1143 1.072 . S
C4541 C409 1.177 . S
C4555 C1157 1.072 . S
C4559 C759 1.180 . S
C4573 C1171 1.084 . S
C4577 C437 1.175 . S
C4591 C675 1.183 . S
C4595 C1185 1.077 . S
C4609 C1199 1.095 . S
C4613 C353 1.177 . S
C4627 C1213 1.081 . S
C4631 C703 1.175 . S
C4645 C1227 1.081 . S
C4649 C381 1.184 . S
C4663 C199 1.185 . S
C4667 C1241 1.094 . S
C4681 C1255 1.088 . S
C4685 C815 1.185 . S
C4699 C1269 1.074 . S
C4703 C493 1.176 . S
C4717 C1283 1.080 . S
C4721 C787 1.175 . S
C4735 C1297 1.101 . S
C4739 C801 1.181 . S
C4753 C507 1.176 . S
C4757 C1311 1.092 . S
C4771 C1193 1.175 . S
C4775 C1325 1.079 . S
C4789 C1221 1.184 . S
C4793 C1339 1.098 . S
