# Generated by pormake.
# Topology umw, (4)-cn, num edge types: 1
# Building blocks:
#     Node 0, Type 0, BuildingBlock: UXUYUI_clean_sbu_0, # of connection points: 4
#     Node 1, Type 0, BuildingBlock: UXUYUI_clean_sbu_0, # of connection points: 4
#     Node 2, Type 0, BuildingBlock: UXUYUI_clean_sbu_0, # of connection points: 4
#     Node 3, Type 0, BuildingBlock: UXUYUI_clean_sbu_0, # of connection points: 4
#     Node 4, Type 0, BuildingBlock: UXUYUI_clean_sbu_0, # of connection points: 4
#     Node 5, Type 0, BuildingBlock: UXUYUI_clean_sbu_0, # of connection points: 4
#     Node 6, Type 0, BuildingBlock: UXUYUI_clean_sbu_0, # of connection points: 4
#     Node 7, Type 0, BuildingBlock: UXUYUI_clean_sbu_0, # of connection points: 4
#     Edge 8, Type (0, 0), BuildingBlock: MIFKUJ_clean_linker_0, # of connection points: 2
#     Edge 9, Type (0, 0), BuildingBlock: MIFKUJ_clean_linker_0, # of connection points: 2
#     Edge 10, Type (0, 0), BuildingBlock: MIFKUJ_clean_linker_0, # of connection points: 2
#     Edge 11, Type (0, 0), BuildingBlock: MIFKUJ_clean_linker_0, # of connection points: 2
#     Edge 12, Type (0, 0), BuildingBlock: MIFKUJ_clean_linker_0, # of connection points: 2
#     Edge 13, Type (0, 0), BuildingBlock: MIFKUJ_clean_linker_0, # of connection points: 2
#     Edge 14, Type (0, 0), BuildingBlock: MIFKUJ_clean_linker_0, # of connection points: 2
#     Edge 15, Type (0, 0), BuildingBlock: MIFKUJ_clean_linker_0, # of connection points: 2
#     Edge 16, Type (0, 0), BuildingBlock: MIFKUJ_clean_linker_0, # of connection points: 2
#     Edge 17, Type (0, 0), BuildingBlock: MIFKUJ_clean_linker_0, # of connection points: 2
#     Edge 18, Type (0, 0), BuildingBlock: MIFKUJ_clean_linker_0, # of connection points: 2
#     Edge 19, Type (0, 0), BuildingBlock: MIFKUJ_clean_linker_0, # of connection points: 2
#     Edge 20, Type (0, 0), BuildingBlock: MIFKUJ_clean_linker_0, # of connection points: 2
#     Edge 21, Type (0, 0), BuildingBlock: MIFKUJ_clean_linker_0, # of connection points: 2
#     Edge 22, Type (0, 0), BuildingBlock: MIFKUJ_clean_linker_0, # of connection points: 2
#     Edge 23, Type (0, 0), BuildingBlock: MIFKUJ_clean_linker_0, # of connection points: 2
# Relax obj value: 0.239
# Max RMSD: 0.148
# Mean RMSD: 0.148
data_MOF--net-umw--node1-UXUYUI_clean_sbu_0--edge1-MIFKUJ_clean_linker_0
_symmetry_space_group_name_H-M    P1
_symmetry_Int_Tables_number       1
_symmetry_cell_setting            triclinic
loop_
_symmetry_equiv_pos_as_xyz
'x, y, z'
_cell_length_a     75.618489
_cell_length_b     75.59385
_cell_length_c     41.810124
_cell_angle_alpha  89.98655
_cell_angle_beta   90.022014
_cell_angle_gamma 89.998338
loop_
_atom_site_label
_atom_site_type_symbol
_atom_site_fract_x
_atom_site_fract_y
_atom_site_fract_z
_atom_type_partial_charge
Li0 Li 0.38341 0.15188 0.26796 0.0
Li1 Li 0.40434 0.1671 0.29946 0.0
Li2 Li 0.37825 0.18198 0.28042 0.0
Li3 Li 0.40143 0.17351 0.24192 0.0
C4 C 0.36327 0.15878 0.32253 0.0
N5 N 0.32979 0.15275 0.34663 0.0
C6 C 0.36073 0.15692 0.35545 0.0
C7 C 0.34878 0.15762 0.30184 0.0
C8 C 0.3437 0.15386 0.36717 0.0
C9 C 0.33196 0.15456 0.3145 0.0
C10 C 0.41268 0.13383 0.26134 0.0
C11 C 0.41652 0.10715 0.23042 0.0
N12 N 0.41713 0.09757 0.25793 0.0
C13 C 0.41344 0.12371 0.28932 0.0
C14 C 0.41433 0.1255 0.23165 0.0
C15 C 0.41568 0.1054 0.28709 0.0
C16 C 0.36871 0.12324 0.23301 0.0
N17 N 0.37285 0.12925 0.26271 0.0
C18 C 0.36548 0.10139 0.28595 0.0
C19 C 0.37106 0.11885 0.28901 0.0
C20 C 0.36173 0.09453 0.25549 0.0
C21 C 0.36309 0.10578 0.22881 0.0
H22 H 0.37042 0.13181 0.21251 0.0
H23 H 0.3748 0.12386 0.31226 0.0
C24 C 0.41506 0.17514 0.36152 0.0
N25 N 0.41996 0.1662 0.33477 0.0
C26 C 0.42615 0.17546 0.38816 0.0
C27 C 0.44697 0.15712 0.35934 0.0
C28 C 0.4356 0.15738 0.33305 0.0
C29 C 0.44226 0.16628 0.38726 0.0
H30 H 0.40257 0.18211 0.36199 0.0
H31 H 0.43927 0.15067 0.31121 0.0
C32 C 0.36905 0.18203 0.21553 0.0
N33 N 0.35647 0.20585 0.17082 0.0
C34 C 0.37516 0.1995 0.21544 0.0
C35 C 0.35657 0.17669 0.19286 0.0
C36 C 0.36863 0.21133 0.19265 0.0
C37 C 0.35036 0.18893 0.17047 0.0
C38 C 0.41704 0.19906 0.29122 0.0
C39 C 0.41471 0.21337 0.31195 0.0
C40 C 0.43411 0.19292 0.28471 0.0
C41 C 0.42951 0.22118 0.32615 0.0
C42 C 0.44856 0.20108 0.2994 0.0
N43 N 0.44598 0.21491 0.31967 0.0
C44 C 0.36459 0.2055 0.32346 0.0
C45 C 0.34565 0.20179 0.27874 0.0
C46 C 0.35221 0.21628 0.3385 0.0
N47 N 0.36116 0.19857 0.29416 0.0
C48 C 0.33282 0.21251 0.29298 0.0
C49 C 0.33601 0.21978 0.32337 0.0
H50 H 0.37669 0.20203 0.3357 0.0
H51 H 0.34295 0.1956 0.25598 0.0
C52 C 0.41316 0.16937 0.17824 0.0
N53 N 0.41368 0.18019 0.20417 0.0
C54 C 0.42356 0.17308 0.15147 0.0
C55 C 0.43406 0.19948 0.17801 0.0
C56 C 0.42335 0.19534 0.20409 0.0
C57 C 0.43455 0.18806 0.15159 0.0
H58 H 0.40497 0.15765 0.17867 0.0
H59 H 0.42306 0.20406 0.22451 0.0
O60 O 0.37985 0.16216 0.31092 0.0
O61 O 0.40998 0.15172 0.26304 0.0
O62 O 0.37523 0.17005 0.2374 0.0
O63 O 0.4027 0.1909 0.27772 0.0
H64 H 0.37181 0.1579 0.37177 0.0
H65 H 0.35043 0.15915 0.27631 0.0
H66 H 0.34154 0.15239 0.39261 0.0
H67 H 0.32063 0.15365 0.29879 0.0
H68 H 0.41768 0.10053 0.20758 0.0
H69 H 0.41188 0.12986 0.3125 0.0
H70 H 0.41377 0.13308 0.20977 0.0
H71 H 0.41612 0.0974 0.30853 0.0
H72 H 0.36501 0.09312 0.30708 0.0
H73 H 0.36024 0.10103 0.20493 0.0
H74 H 0.42206 0.18258 0.40939 0.0
H75 H 0.4594 0.15005 0.35774 0.0
H76 H 0.38477 0.20396 0.23274 0.0
H77 H 0.35173 0.16321 0.19259 0.0
H78 H 0.37323 0.22488 0.19232 0.0
H79 H 0.34068 0.18497 0.15279 0.0
H80 H 0.40164 0.21844 0.31698 0.0
H81 H 0.43614 0.18179 0.26885 0.0
H82 H 0.42789 0.23222 0.34233 0.0
H83 H 0.46183 0.19637 0.29478 0.0
H84 H 0.35501 0.22123 0.36227 0.0
H85 H 0.32046 0.21487 0.28058 0.0
H86 H 0.42357 0.16396 0.13149 0.0
H87 H 0.44209 0.21134 0.1787 0.0
Li88 Li 0.83088 0.4059 0.54447 0.0
Li89 Li 0.84549 0.38496 0.5116 0.0
Li90 Li 0.82333 0.4046 0.48875 0.0
Li91 Li 0.81497 0.38072 0.52561 0.0
C92 C 0.86277 0.41694 0.51586 0.0
N93 N 0.89646 0.42805 0.53162 0.0
C94 C 0.87057 0.41143 0.54451 0.0
C95 C 0.87211 0.42805 0.4952 0.0
C96 C 0.88761 0.41721 0.55205 0.0
C97 C 0.88913 0.43355 0.50361 0.0
C98 C 0.83858 0.36411 0.56504 0.0
C99 C 0.84136 0.33288 0.55437 0.0
N100 N 0.84425 0.32992 0.58603 0.0
C101 C 0.84154 0.36076 0.59746 0.0
C102 C 0.83844 0.35006 0.54328 0.0
C103 C 0.84441 0.34339 0.60761 0.0
C104 C 0.82538 0.41524 0.60803 0.0
N105 N 0.83275 0.42114 0.58039 0.0
C106 C 0.84062 0.44855 0.60492 0.0
C107 C 0.84025 0.43745 0.57827 0.0
C108 C 0.8329 0.44287 0.63366 0.0
C109 C 0.82519 0.42601 0.63509 0.0
H110 H 0.81937 0.40226 0.60881 0.0
H111 H 0.84565 0.44197 0.55577 0.0
C112 C 0.87427 0.37587 0.47282 0.0
N113 N 0.86797 0.37473 0.50319 0.0
C114 C 0.89178 0.37126 0.46618 0.0
C115 C 0.89567 0.36364 0.52192 0.0
C116 C 0.87822 0.36865 0.52757 0.0
C117 C 0.90274 0.3653 0.49106 0.0
H118 H 0.86591 0.38112 0.45408 0.0
H119 H 0.87322 0.36853 0.55173 0.0
C120 C 0.79927 0.4198 0.53967 0.0
N121 N 0.78515 0.44883 0.57064 0.0
C122 C 0.78654 0.4175 0.56352 0.0
C123 C 0.80472 0.43687 0.53139 0.0
C124 C 0.77958 0.43234 0.57895 0.0
C125 C 0.79744 0.45137 0.54736 0.0
C126 C 0.81398 0.37286 0.45975 0.0
C127 C 0.79667 0.37938 0.46027 0.0
C128 C 0.81895 0.36074 0.4362 0.0
C129 C 0.78462 0.37361 0.43721 0.0
C130 C 0.8065 0.35527 0.41357 0.0
N131 N 0.78974 0.36177 0.41453 0.0
C132 C 0.82896 0.41983 0.42854 0.0
C133 C 0.80084 0.426 0.45109 0.0
C134 C 0.82524 0.43067 0.40235 0.0
N135 N 0.81689 0.41793 0.45235 0.0
C136 C 0.79668 0.43717 0.42562 0.0
C137 C 0.80905 0.43974 0.40107 0.0
H138 H 0.84162 0.41322 0.4303 0.0
H139 H 0.79142 0.42406 0.4702 0.0
C140 C 0.79289 0.36637 0.57005 0.0
N141 N 0.798 0.36395 0.53924 0.0
C142 C 0.78161 0.35432 0.58476 0.0
C143 C 0.78095 0.33742 0.53566 0.0
C144 C 0.79242 0.34977 0.52193 0.0
C145 C 0.77557 0.33959 0.56757 0.0
H146 H 0.79798 0.37749 0.58345 0.0
H147 H 0.79718 0.34774 0.49787 0.0
O148 O 0.84626 0.41115 0.50749 0.0
O149 O 0.8354 0.38105 0.55503 0.0
O150 O 0.80664 0.40543 0.52491 0.0
O151 O 0.82615 0.37837 0.48182 0.0
H152 H 0.8636 0.40272 0.5607 0.0
H153 H 0.86629 0.43233 0.47283 0.0
H154 H 0.89382 0.41303 0.57411 0.0
H155 H 0.89653 0.44214 0.48784 0.0
H156 H 0.84129 0.32189 0.53781 0.0
H157 H 0.84157 0.37149 0.61462 0.0
H158 H 0.83609 0.35235 0.51812 0.0
H159 H 0.84672 0.3406 0.63264 0.0
H160 H 0.8465 0.46157 0.60291 0.0
H161 H 0.81919 0.42119 0.65694 0.0
H162 H 0.89684 0.37278 0.4421 0.0
H163 H 0.90384 0.3595 0.54185 0.0
H164 H 0.78209 0.40441 0.57012 0.0
H165 H 0.81472 0.43888 0.51323 0.0
H166 H 0.76978 0.43075 0.59756 0.0
H167 H 0.80165 0.46464 0.54138 0.0
H168 H 0.79251 0.38871 0.47833 0.0
H169 H 0.83231 0.3556 0.43545 0.0
H170 H 0.77118 0.37852 0.43736 0.0
H171 H 0.81017 0.34588 0.39522 0.0
H172 H 0.83515 0.43246 0.38392 0.0
H173 H 0.78401 0.44385 0.42523 0.0
H174 H 0.77769 0.3565 0.60937 0.0
H175 H 0.77677 0.32605 0.52183 0.0
Li176 Li 0.58943 0.8318 0.79477 0.0
Li177 Li 0.61209 0.84897 0.76922 0.0
Li178 Li 0.59384 0.82775 0.73824 0.0
Li179 Li 0.61616 0.81743 0.77824 0.0
C180 C 0.57084 0.85847 0.75839 0.0
N181 N 0.53931 0.8768 0.75348 0.0
C182 C 0.56959 0.87583 0.76971 0.0
C183 C 0.55609 0.85053 0.7442 0.0
C184 C 0.55352 0.88484 0.76714 0.0
C185 C 0.54027 0.85999 0.74202 0.0
C186 C 0.61466 0.84777 0.8354 0.0
C187 C 0.62892 0.85813 0.88347 0.0
N188 N 0.6169 0.87146 0.88555 0.0
C189 C 0.60243 0.86155 0.83805 0.0
C190 C 0.628 0.84601 0.8583 0.0
C191 C 0.60378 0.87339 0.86356 0.0
C192 C 0.57904 0.82237 0.85568 0.0
N193 N 0.57291 0.83102 0.82942 0.0
C194 C 0.54524 0.8364 0.85526 0.0
C195 C 0.55634 0.83801 0.82874 0.0
C196 C 0.55122 0.82744 0.88267 0.0
C197 C 0.56837 0.82034 0.88258 0.0
H198 H 0.59222 0.81682 0.85552 0.0
H199 H 0.55163 0.84478 0.80777 0.0
C200 C 0.61606 0.88396 0.74856 0.0
N201 N 0.62328 0.8714 0.76776 0.0
C202 C 0.62238 0.90129 0.74944 0.0
C203 C 0.64402 0.89221 0.78876 0.0
C204 C 0.63727 0.87506 0.78711 0.0
C205 C 0.63631 0.90567 0.77027 0.0
H206 H 0.60496 0.88064 0.73338 0.0
H207 H 0.64287 0.8648 0.80197 0.0
C208 C 0.5794 0.7988 0.78603 0.0
N209 N 0.55427 0.7791 0.81819 0.0
C210 C 0.58453 0.78691 0.8099 0.0
C211 C 0.56151 0.80046 0.77817 0.0
C212 C 0.57162 0.77712 0.82597 0.0
C213 C 0.549 0.79045 0.7948 0.0
C214 C 0.63801 0.83329 0.73155 0.0
C215 C 0.64417 0.8344 0.70012 0.0
C216 C 0.64995 0.83466 0.75696 0.0
C217 C 0.66223 0.83685 0.69461 0.0
C218 C 0.6679 0.83711 0.75047 0.0
N219 N 0.67362 0.83815 0.71969 0.0
C220 C 0.5799 0.83736 0.67881 0.0
C221 C 0.5758 0.80718 0.69256 0.0
C222 C 0.56921 0.83538 0.65186 0.0
N223 N 0.5826 0.82345 0.69879 0.0
C224 C 0.56511 0.80457 0.66574 0.0
C225 C 0.56135 0.81892 0.64548 0.0
H226 H 0.58542 0.85017 0.68463 0.0
H227 H 0.57808 0.79643 0.70912 0.0
C228 C 0.63371 0.79714 0.82235 0.0
N229 N 0.63243 0.79978 0.79032 0.0
C230 C 0.64537 0.78459 0.83446 0.0
C231 C 0.65437 0.77776 0.78032 0.0
C232 C 0.64237 0.79042 0.76919 0.0
C233 C 0.65588 0.77471 0.81338 0.0
H234 H 0.62559 0.80481 0.83849 0.0
H235 H 0.64104 0.79286 0.7438 0.0
O236 O 0.58659 0.84957 0.76021 0.0
O237 O 0.61376 0.83611 0.81042 0.0
O238 O 0.5918 0.80888 0.77067 0.0
O239 O 0.62035 0.83095 0.73724 0.0
H240 H 0.5809 0.88234 0.78029 0.0
H241 H 0.55676 0.83719 0.7351 0.0
H242 H 0.55236 0.89825 0.77592 0.0
H243 H 0.52875 0.85396 0.73123 0.0
H244 H 0.63921 0.85695 0.90133 0.0
H245 H 0.592 0.86303 0.82067 0.0
H246 H 0.63763 0.83545 0.85651 0.0
H247 H 0.5944 0.88412 0.86587 0.0
H248 H 0.53219 0.84228 0.85439 0.0
H249 H 0.57346 0.81305 0.90289 0.0
H250 H 0.61591 0.91129 0.73504 0.0
H251 H 0.65492 0.89497 0.80481 0.0
H252 H 0.59831 0.78538 0.81619 0.0
H253 H 0.55731 0.80947 0.75962 0.0
H254 H 0.5754 0.76798 0.84467 0.0
H255 H 0.5351 0.79172 0.78914 0.0
H256 H 0.63507 0.83339 0.68019 0.0
H257 H 0.64544 0.83385 0.78145 0.0
H258 H 0.66718 0.83774 0.67039 0.0
H259 H 0.67728 0.83819 0.76991 0.0
H260 H 0.56675 0.84671 0.63662 0.0
H261 H 0.55917 0.79172 0.66179 0.0
H262 H 0.64634 0.78284 0.86012 0.0
H263 H 0.66224 0.77034 0.76333 0.0
Li264 Li 0.15363 0.61423 0.01686 0.0
Li265 Li 0.17635 0.59555 0.04778 0.0
Li266 Li 0.18448 0.62203 0.01862 0.0
Li267 Li 0.17644 0.59676 0.98973 0.0
C268 C 0.17312 0.63376 0.07462 0.0
N269 N 0.18507 0.6617 0.11139 0.0
C270 C 0.18504 0.63078 0.09961 0.0
C271 C 0.16704 0.65092 0.0687 0.0
C272 C 0.19098 0.64509 0.11785 0.0
C273 C 0.17331 0.66487 0.08745 0.0
C274 C 0.15313 0.5723 0.0039 0.0
C275 C 0.15844 0.54112 0.99639 0.0
N276 N 0.14617 0.54089 0.97259 0.0
C277 C 0.1405 0.57174 0.97951 0.0
C278 C 0.16214 0.55688 0.01252 0.0
C279 C 0.1372 0.55573 0.96391 0.0
C280 C 0.11959 0.62014 0.99102 0.0
N281 N 0.12983 0.62174 0.01755 0.0
C282 C 0.10563 0.63354 0.04733 0.0
C283 C 0.12331 0.62839 0.04531 0.0
C284 C 0.09452 0.63164 0.02058 0.0
C285 C 0.10177 0.62497 0.99203 0.0
H286 H 0.12522 0.61492 0.96921 0.0
H287 H 0.13181 0.62955 0.066 0.0
C288 C 0.19625 0.58026 0.09754 0.0
N289 N 0.17991 0.58125 0.0841 0.0
C290 C 0.19908 0.56952 0.12423 0.0
C291 C 0.16827 0.56091 0.12229 0.0
C292 C 0.166 0.57195 0.09589 0.0
C293 C 0.18499 0.5596 0.13677 0.0
H294 H 0.20705 0.58782 0.08749 0.0
H295 H 0.15317 0.57306 0.0846 0.0
C296 C 0.16718 0.63638 0.96345 0.0
N297 N 0.16367 0.6671 0.92812 0.0
C298 C 0.17644 0.63842 0.93474 0.0
C299 C 0.1559 0.64985 0.97388 0.0
C300 C 0.17456 0.65409 0.91733 0.0
C301 C 0.15436 0.66531 0.95576 0.0
C302 C 0.21229 0.59867 0.0028 0.0
C303 C 0.21444 0.60944 0.97594 0.0
C304 C 0.22614 0.58771 0.01266 0.0
C305 C 0.23045 0.60907 0.9593 0.0
C306 C 0.24195 0.5877 0.99538 0.0
N307 N 0.24376 0.59829 0.96927 0.0
C308 C 0.21434 0.6374 0.04355 0.0
C309 C 0.19838 0.65785 0.01175 0.0
C310 C 0.22563 0.65068 0.05408 0.0
N311 N 0.20077 0.64121 0.02339 0.0
C312 C 0.20947 0.6716 0.02158 0.0
C313 C 0.22304 0.66815 0.04366 0.0
H314 H 0.21571 0.62417 0.05307 0.0
H315 H 0.18746 0.66074 0.9961 0.0
C316 C 0.172 0.58593 0.92563 0.0
N317 N 0.18062 0.5824 0.9534 0.0
C318 C 0.17372 0.57453 0.89956 0.0
C319 C 0.1935 0.55636 0.93105 0.0
C320 C 0.19136 0.56808 0.95649 0.0
C321 C 0.18444 0.55941 0.90224 0.0
H322 H 0.16345 0.59737 0.92404 0.0
H323 H 0.1978 0.56545 0.97908 0.0
O324 O 0.16767 0.62 0.05574 0.0
O325 O 0.157 0.58796 0.0187 0.0
O326 O 0.16859 0.62095 0.98038 0.0
O327 O 0.1967 0.59871 0.01941 0.0
H328 H 0.18987 0.6176 0.10456 0.0
H329 H 0.15776 0.65347 0.04958 0.0
H330 H 0.20036 0.64299 0.13702 0.0
H331 H 0.16886 0.67824 0.08289 0.0
H332 H 0.1654 0.52911 0.00265 0.0
H333 H 0.1335 0.58357 0.97243 0.0
H334 H 0.17211 0.55712 0.0311 0.0
H335 H 0.12756 0.55512 0.94483 0.0
H336 H 0.10074 0.6389 0.06965 0.0
H337 H 0.09369 0.62306 0.97093 0.0
H338 H 0.21218 0.56876 0.13462 0.0
H339 H 0.15705 0.55361 0.1315 0.0
H340 H 0.1849 0.62798 0.92587 0.0
H341 H 0.14854 0.64852 0.99585 0.0
H342 H 0.18171 0.65587 0.89515 0.0
H343 H 0.14578 0.67588 0.96369 0.0
H344 H 0.2039 0.61804 0.96812 0.0
H345 H 0.22465 0.57927 0.0334 0.0
H346 H 0.23229 0.61735 0.93846 0.0
H347 H 0.25277 0.57927 0.00271 0.0
H348 H 0.23563 0.64742 0.07168 0.0
H349 H 0.20708 0.68486 0.01279 0.0
H350 H 0.16664 0.57743 0.87766 0.0
H351 H 0.20165 0.54473 0.93431 0.0
Li352 Li 0.39786 0.82463 0.30411 0.0
Li353 Li 0.37471 0.81529 0.27059 0.0
Li354 Li 0.40161 0.82508 0.24674 0.0
Li355 Li 0.38121 0.84608 0.27285 0.0
C356 C 0.41395 0.79534 0.27646 0.0
N357 N 0.44571 0.77741 0.2808 0.0
C358 C 0.41437 0.77693 0.27358 0.0
C359 C 0.42969 0.80464 0.28152 0.0
C360 C 0.43056 0.7681 0.27585 0.0
C361 C 0.44561 0.79533 0.28365 0.0
C362 C 0.36548 0.82218 0.334 0.0
C363 C 0.34871 0.82203 0.38307 0.0
N364 N 0.35171 0.80437 0.38607 0.0
C365 C 0.36838 0.80402 0.33757 0.0
C366 C 0.35556 0.83127 0.35691 0.0
C367 C 0.36131 0.79526 0.36406 0.0
C368 C 0.41737 0.83555 0.35741 0.0
N369 N 0.41009 0.82113 0.34323 0.0
C370 C 0.42292 0.80204 0.38241 0.0
C371 C 0.41239 0.8046 0.3554 0.0
C372 C 0.43112 0.81663 0.397 0.0
C373 C 0.428 0.8336 0.38445 0.0
H374 H 0.41525 0.84852 0.3472 0.0
H375 H 0.40642 0.79334 0.3437 0.0
C376 C 0.36062 0.78506 0.24406 0.0
N377 N 0.35639 0.79873 0.26364 0.0
C378 C 0.34749 0.77372 0.23297 0.0
C379 C 0.32598 0.7903 0.26355 0.0
C380 C 0.33957 0.80136 0.27409 0.0
C381 C 0.32984 0.7765 0.24215 0.0
H382 H 0.37408 0.78356 0.23575 0.0
H383 H 0.33659 0.81253 0.28932 0.0
C384 C 0.41509 0.85873 0.26412 0.0
N385 N 0.43034 0.88822 0.23641 0.0
C386 C 0.41059 0.86365 0.23291 0.0
C387 C 0.42737 0.86882 0.2812 0.0
C388 C 0.41843 0.87859 0.21934 0.0
C389 C 0.43493 0.88367 0.26677 0.0
C390 C 0.36143 0.82992 0.21884 0.0
C391 C 0.3601 0.81981 0.19094 0.0
C392 C 0.34619 0.83741 0.23208 0.0
C393 C 0.34353 0.81724 0.1769 0.0
C394 C 0.32987 0.83458 0.21726 0.0
N395 N 0.32888 0.82461 0.19025 0.0
C396 C 0.41278 0.81047 0.18852 0.0
C397 C 0.43409 0.82917 0.2126 0.0
C398 C 0.42375 0.80782 0.16212 0.0
N399 N 0.4179 0.82136 0.21265 0.0
C400 C 0.44543 0.82701 0.18662 0.0
C401 C 0.44021 0.81641 0.16067 0.0
H402 H 0.40015 0.80384 0.18984 0.0
H403 H 0.43821 0.83724 0.23256 0.0
C404 C 0.37314 0.87976 0.29806 0.0
N405 N 0.37311 0.86976 0.27106 0.0
C406 C 0.36931 0.89782 0.29637 0.0
C407 C 0.36515 0.89475 0.23928 0.0
C408 C 0.36902 0.8768 0.24208 0.0
C409 C 0.36558 0.90558 0.26656 0.0
H410 H 0.37671 0.8738 0.32069 0.0
H411 H 0.36934 0.86859 0.22093 0.0
O412 O 0.39812 0.80405 0.27422 0.0
O413 O 0.37228 0.83117 0.30839 0.0
O414 O 0.40737 0.84432 0.27822 0.0
O415 O 0.37743 0.83202 0.23375 0.0
H416 H 0.4023 0.76954 0.26966 0.0
H417 H 0.42969 0.81886 0.28392 0.0
H418 H 0.43107 0.75385 0.27369 0.0
H419 H 0.45788 0.80236 0.28759 0.0
H420 H 0.34102 0.82891 0.40098 0.0
H421 H 0.37597 0.79672 0.32012 0.0
H422 H 0.35321 0.84534 0.35448 0.0
H423 H 0.36347 0.78121 0.36711 0.0
H424 H 0.42477 0.78877 0.39156 0.0
H425 H 0.43419 0.8452 0.39473 0.0
H426 H 0.35103 0.76348 0.21602 0.0
H427 H 0.31255 0.79283 0.27131 0.0
H428 H 0.40118 0.85599 0.21923 0.0
H429 H 0.43103 0.86522 0.30535 0.0
H430 H 0.41505 0.88254 0.19523 0.0
H431 H 0.44445 0.8916 0.27972 0.0
H432 H 0.37169 0.81389 0.18031 0.0
H433 H 0.34689 0.845 0.25397 0.0
H434 H 0.3423 0.80935 0.15543 0.0
H435 H 0.31797 0.84019 0.2274 0.0
H436 H 0.41937 0.79916 0.14307 0.0
H437 H 0.45795 0.83396 0.18657 0.0
H438 H 0.36998 0.90574 0.31792 0.0
H439 H 0.36216 0.90017 0.21591 0.0
Li440 Li 0.1745 0.40271 0.55167 0.0
Li441 Li 0.17917 0.37791 0.51569 0.0
Li442 Li 0.17419 0.40771 0.49515 0.0
Li443 Li 0.1503 0.3907 0.51983 0.0
C444 C 0.20807 0.40601 0.50499 0.0
N445 N 0.23502 0.42025 0.46854 0.0
C446 C 0.21792 0.3952 0.48454 0.0
C447 C 0.21196 0.42406 0.50694 0.0
C448 C 0.2315 0.40265 0.46633 0.0
C449 C 0.22561 0.43101 0.48827 0.0
C450 C 0.16835 0.36355 0.56883 0.0
C451 C 0.16716 0.33174 0.57275 0.0
N452 N 0.17907 0.33231 0.59711 0.0
C453 C 0.18053 0.36383 0.59396 0.0
C454 C 0.16154 0.3474 0.55818 0.0
C455 C 0.18579 0.34789 0.60795 0.0
C456 C 0.16774 0.41096 0.6157 0.0
N457 N 0.17988 0.41285 0.59199 0.0
C458 C 0.19691 0.43268 0.624 0.0
C459 C 0.19453 0.42302 0.59588 0.0
C460 C 0.18409 0.43176 0.64827 0.0
C461 C 0.16959 0.42035 0.64419 0.0
H462 H 0.15625 0.4027 0.61188 0.0
H463 H 0.204 0.4242 0.57669 0.0
C464 C 0.18788 0.34687 0.48253 0.0
N465 N 0.19215 0.35684 0.50841 0.0
C466 C 0.1981 0.33223 0.47437 0.0
C467 C 0.21688 0.33824 0.51993 0.0
C468 C 0.20623 0.35278 0.52725 0.0
C469 C 0.21299 0.32792 0.49288 0.0
H470 H 0.17694 0.35066 0.46746 0.0
H471 H 0.20951 0.36116 0.54735 0.0
C472 C 0.15104 0.4282 0.54772 0.0
N473 N 0.14084 0.45223 0.59399 0.0
C474 C 0.13541 0.42557 0.56491 0.0
C475 C 0.16143 0.44311 0.55394 0.0
C476 C 0.13048 0.43788 0.58819 0.0
C477 C 0.15608 0.45507 0.57749 0.0
C478 C 0.15076 0.38035 0.45957 0.0
C479 C 0.14537 0.39193 0.43537 0.0
C480 C 0.14225 0.36404 0.46306 0.0
C481 C 0.13151 0.38701 0.41514 0.0
C482 C 0.12841 0.35963 0.4424 0.0
N483 N 0.12337 0.37111 0.41907 0.0
C484 C 0.18753 0.41669 0.43461 0.0
C485 C 0.1754 0.44084 0.4634 0.0
C486 C 0.19123 0.42763 0.40859 0.0
N487 N 0.1797 0.42344 0.46121 0.0
C488 C 0.17897 0.45229 0.43803 0.0
C489 C 0.18683 0.44566 0.41006 0.0
H490 H 0.19067 0.40275 0.43352 0.0
H491 H 0.16895 0.44578 0.48463 0.0
C492 C 0.11809 0.3735 0.53607 0.0
N493 N 0.12563 0.38636 0.51796 0.0
C494 C 0.10005 0.36987 0.53311 0.0
C495 C 0.09799 0.39287 0.49309 0.0
C496 C 0.11595 0.39626 0.49729 0.0
C497 C 0.08976 0.37946 0.51106 0.0
H498 H 0.12608 0.36602 0.55271 0.0
H499 H 0.12231 0.40656 0.48351 0.0
O500 O 0.19448 0.39903 0.52255 0.0
O501 O 0.16326 0.37898 0.55447 0.0
O502 O 0.15636 0.41604 0.52547 0.0
O503 O 0.16414 0.38504 0.47995 0.0
H504 H 0.21503 0.38124 0.48246 0.0
H505 H 0.20426 0.4327 0.52215 0.0
H506 H 0.23919 0.39445 0.45034 0.0
H507 H 0.22866 0.44498 0.48935 0.0
H508 H 0.16209 0.31914 0.56462 0.0
H509 H 0.18601 0.3762 0.60237 0.0
H510 H 0.15217 0.34694 0.53863 0.0
H511 H 0.19527 0.34789 0.62733 0.0
H512 H 0.20822 0.44139 0.62606 0.0
H513 H 0.15955 0.41903 0.66251 0.0
H514 H 0.19487 0.32491 0.45289 0.0
H515 H 0.22823 0.33533 0.53483 0.0
H516 H 0.12725 0.41407 0.5606 0.0
H517 H 0.17372 0.44522 0.54125 0.0
H518 H 0.11846 0.43596 0.60178 0.0
H519 H 0.16409 0.46656 0.58279 0.0
H520 H 0.15166 0.40467 0.43244 0.0
H521 H 0.14609 0.355 0.48188 0.0
H522 H 0.12716 0.39588 0.39641 0.0
H523 H 0.12163 0.34712 0.44501 0.0
H524 H 0.1974 0.42204 0.38751 0.0
H525 H 0.17514 0.46606 0.4399 0.0
H526 H 0.09427 0.35971 0.54806 0.0
H527 H 0.09077 0.40048 0.47547 0.0
Li528 Li 0.61728 0.17922 0.76803 0.0
Li529 Li 0.59467 0.17225 0.80956 0.0
Li530 Li 0.6132 0.14882 0.78514 0.0
Li531 Li 0.59072 0.16358 0.75467 0.0
C532 C 0.63872 0.16744 0.81904 0.0
N533 N 0.67421 0.16373 0.83323 0.0
C534 C 0.64456 0.16886 0.85064 0.0
C535 C 0.65091 0.16413 0.79465 0.0
C536 C 0.66256 0.16694 0.85733 0.0
C537 C 0.6688 0.1623 0.80231 0.0
C538 C 0.5817 0.19751 0.75276 0.0
C539 C 0.55223 0.2052 0.73557 0.0
N540 N 0.55919 0.21562 0.71223 0.0
C541 C 0.58856 0.20844 0.72881 0.0
C542 C 0.56338 0.19602 0.7564 0.0
C543 C 0.57696 0.21744 0.7085 0.0
C544 C 0.63729 0.19502 0.72088 0.0
N545 N 0.63373 0.19587 0.75266 0.0
C546 C 0.65326 0.22044 0.75891 0.0
C547 C 0.64142 0.20817 0.77185 0.0
C548 C 0.65706 0.21997 0.72599 0.0
C549 C 0.64899 0.20696 0.70699 0.0
H550 H 0.63082 0.18517 0.70626 0.0
H551 H 0.63826 0.2085 0.79707 0.0
C552 C 0.58404 0.1694 0.87366 0.0
N553 N 0.5832 0.1798 0.84721 0.0
C554 C 0.57373 0.17338 0.9004 0.0
C555 C 0.56223 0.19888 0.87225 0.0
C556 C 0.57292 0.19453 0.84623 0.0
C557 C 0.56235 0.18806 0.89952 0.0
H558 H 0.59222 0.15765 0.87348 0.0
H559 H 0.57252 0.20252 0.8248 0.0
C560 C 0.6156 0.14426 0.71967 0.0
N561 N 0.61685 0.11621 0.67734 0.0
C562 C 0.6033 0.13052 0.72195 0.0
C563 C 0.62854 0.14373 0.69584 0.0
C564 C 0.60414 0.11646 0.70034 0.0
C565 C 0.62896 0.12944 0.67467 0.0
C566 C 0.57161 0.14079 0.79823 0.0
C567 C 0.56989 0.12255 0.79352 0.0
C568 C 0.557 0.1506 0.80848 0.0
C569 C 0.55352 0.11449 0.79877 0.0
C570 C 0.54086 0.14204 0.81351 0.0
N571 N 0.53947 0.12432 0.80856 0.0
C572 C 0.61711 0.11572 0.81462 0.0
C573 C 0.6384 0.1217 0.77443 0.0
C574 C 0.62331 0.09841 0.81773 0.0
N575 N 0.62441 0.12677 0.79267 0.0
C576 C 0.64499 0.10451 0.77669 0.0
C577 C 0.63714 0.0925 0.79799 0.0
H578 H 0.606 0.12015 0.82881 0.0
H579 H 0.64406 0.13078 0.7573 0.0
C580 C 0.58006 0.16943 0.69253 0.0
N581 N 0.57444 0.16142 0.71982 0.0
C582 C 0.56925 0.16988 0.66557 0.0
C583 C 0.54736 0.15299 0.69458 0.0
C584 C 0.5585 0.15311 0.72123 0.0
C585 C 0.55265 0.16167 0.6665 0.0
H586 H 0.5929 0.17573 0.69194 0.0
H587 H 0.55427 0.1467 0.74289 0.0
O588 O 0.62111 0.16924 0.81222 0.0
O589 O 0.59287 0.18826 0.7724 0.0
O590 O 0.6152 0.1581 0.7408 0.0
O591 O 0.58763 0.14883 0.79356 0.0
H592 H 0.63526 0.17139 0.86978 0.0
H593 H 0.64664 0.16296 0.77006 0.0
H594 H 0.66728 0.168 0.88168 0.0
H595 H 0.67838 0.15973 0.78367 0.0
H596 H 0.53803 0.20402 0.73792 0.0
H597 H 0.60267 0.20988 0.72576 0.0
H598 H 0.55782 0.18768 0.7748 0.0
H599 H 0.5821 0.22584 0.68972 0.0
H600 H 0.65909 0.23036 0.77433 0.0
H601 H 0.65173 0.20594 0.68164 0.0
H602 H 0.57403 0.16463 0.92091 0.0
H603 H 0.55369 0.21037 0.87083 0.0
H604 H 0.59321 0.13069 0.74016 0.0
H605 H 0.63827 0.15417 0.69387 0.0
H606 H 0.5947 0.10575 0.70186 0.0
H607 H 0.63893 0.12884 0.65616 0.0
H608 H 0.58106 0.11468 0.78586 0.0
H609 H 0.55801 0.16466 0.81235 0.0
H610 H 0.552 0.10041 0.7951 0.0
H611 H 0.52945 0.14951 0.82133 0.0
H612 H 0.61677 0.08953 0.83425 0.0
H613 H 0.65583 0.10054 0.76135 0.0
H614 H 0.57386 0.1765 0.64415 0.0
H615 H 0.5346 0.14653 0.69612 0.0
Li616 Li 0.81869 0.61902 0.01365 0.0
Li617 Li 0.82483 0.59631 0.05575 0.0
Li618 Li 0.84898 0.61362 0.03064 0.0
Li619 Li 0.83316 0.59164 0.00082 0.0
C620 C 0.83183 0.63997 0.06511 0.0
N621 N 0.83772 0.675 0.08064 0.0
C622 C 0.83167 0.64534 0.09708 0.0
C623 C 0.83501 0.6524 0.04103 0.0
C624 C 0.83467 0.66311 0.10445 0.0
C625 C 0.83795 0.67004 0.04937 0.0
C626 C 0.79876 0.58414 -0.0005 0.0
C627 C 0.7899 0.55492 0.98265 0.0
N628 N 0.77929 0.56224 0.95995 0.0
C629 C 0.78762 0.59136 0.97623 0.0
C630 C 0.79977 0.56577 0.00298 0.0
C631 C 0.77793 0.58008 0.9564 0.0
C632 C 0.80342 0.6389 0.96581 0.0
N633 N 0.80283 0.63614 0.99787 0.0
C634 C 0.77988 0.65757 0.00376 0.0
C635 C 0.79143 0.64512 0.01702 0.0
C636 C 0.78019 0.66069 0.9706 0.0
C637 C 0.79217 0.65116 0.95159 0.0
H638 H 0.81247 0.63133 0.95123 0.0
H639 H 0.79132 0.64261 0.04249 0.0
C640 C 0.82703 0.5869 0.12058 0.0
N641 N 0.81687 0.58561 0.09388 0.0
C642 C 0.82269 0.5772 0.14788 0.0
C643 C 0.79734 0.56537 0.11975 0.0
C644 C 0.80202 0.57548 0.09317 0.0
C645 C 0.80791 0.56594 0.14731 0.0
H646 H 0.83885 0.59497 0.12021 0.0
H647 H 0.79423 0.57473 0.07155 0.0
C648 C 0.85333 0.61571 0.96513 0.0
N649 N 0.8812 0.61601 0.9224 0.0
C650 C 0.86665 0.60295 0.96724 0.0
C651 C 0.8542 0.62865 0.94131 0.0
C652 C 0.88062 0.60331 0.94541 0.0
C653 C 0.8684 0.62857 0.91992 0.0
C654 C 0.85507 0.57166 0.04432 0.0
C655 C 0.87311 0.56885 0.03891 0.0
C656 C 0.84455 0.55765 0.05506 0.0
C657 C 0.88026 0.55205 0.04403 0.0
C658 C 0.8522 0.54105 0.05994 0.0
N659 N 0.86975 0.53861 0.05435 0.0
C660 C 0.88291 0.61563 0.05746 0.0
C661 C 0.87658 0.63827 0.01995 0.0
C662 C 0.90052 0.62105 0.05928 0.0
N663 N 0.87153 0.62394 0.03734 0.0
C664 C 0.894 0.64427 0.02129 0.0
C665 C 0.90639 0.63531 0.04044 0.0
H666 H 0.87849 0.6043 0.07108 0.0
H667 H 0.86726 0.64465 0.00411 0.0
C668 C 0.82634 0.58065 0.93903 0.0
N669 N 0.83464 0.57515 0.96613 0.0
C670 C 0.82582 0.56982 0.91209 0.0
C671 C 0.84323 0.54816 0.94072 0.0
C672 C 0.84311 0.55928 0.96737 0.0
C673 C 0.83435 0.55337 0.91282 0.0
H674 H 0.81998 0.59346 0.9385 0.0
H675 H 0.84977 0.55512 0.98883 0.0
O676 O 0.829 0.62259 0.05761 0.0
O677 O 0.80863 0.595 0.0187 0.0
O678 O 0.83962 0.6158 0.9865 0.0
O679 O 0.8479 0.5881 0.0397 0.0
H680 H 0.82926 0.63585 0.11599 0.0
H681 H 0.83528 0.64847 0.01617 0.0
H682 H 0.83458 0.66746 0.1291 0.0
H683 H 0.84045 0.6798 0.03098 0.0
H684 H 0.7907 0.54069 0.98487 0.0
H685 H 0.78652 0.60552 0.97336 0.0
H686 H 0.80826 0.55992 0.02086 0.0
H687 H 0.76935 0.5855 0.93816 0.0
H688 H 0.77092 0.66473 0.01925 0.0
H689 H 0.7926 0.65288 0.92589 0.0
H690 H 0.83125 0.57782 0.16863 0.0
H691 H 0.78579 0.55691 0.11856 0.0
H692 H 0.86622 0.59288 0.9855 0.0
H693 H 0.84409 0.63873 0.93949 0.0
H694 H 0.89101 0.5935 0.9468 0.0
H695 H 0.86925 0.63853 0.90139 0.0
H696 H 0.88151 0.5795 0.03071 0.0
H697 H 0.83063 0.55949 0.05945 0.0
H698 H 0.89418 0.54969 0.03982 0.0
H699 H 0.84419 0.53011 0.06815 0.0
H700 H 0.90957 0.61358 0.07412 0.0
H701 H 0.89782 0.65552 0.00681 0.0
H702 H 0.81903 0.57433 0.89078 0.0
H703 H 0.84993 0.53552 0.94204 0.0
H704 H 0.45735 0.13766 0.41583 0.0
H705 H 0.4761 0.13731 0.4637 0.0
H706 H 0.47245 0.19415 0.46989 0.0
H707 H 0.45354 0.19456 0.42217 0.0
H708 H 0.50778 0.17935 0.47693 0.0
H709 H 0.44859 0.17304 0.51818 0.0
H710 H 0.41901 0.15942 0.52138 0.0
H711 H 0.44245 0.10961 0.54667 0.0
H712 H 0.47221 0.12287 0.54313 0.0
H713 H 0.5433 0.19062 0.63177 0.0
H714 H 0.52433 0.19168 0.58442 0.0
H715 H 0.51699 0.13511 0.58991 0.0
H716 H 0.53551 0.13414 0.63797 0.0
H717 H 0.48703 0.14999 0.57625 0.0
H718 H 0.54588 0.15508 0.53506 0.0
H719 H 0.57593 0.16748 0.53042 0.0
H720 H 0.55422 0.21777 0.50319 0.0
H721 H 0.52402 0.20573 0.5081 0.0
C722 C 0.46066 0.15006 0.42733 0.0
C723 C 0.45401 0.16613 0.41548 0.0
C724 C 0.47127 0.14985 0.45465 0.0
C725 C 0.47553 0.1657 0.47028 0.0
C726 C 0.46924 0.1818 0.4581 0.0
C727 C 0.45841 0.182 0.43104 0.0
C728 C 0.48639 0.16542 0.49962 0.0
C729 C 0.50322 0.17315 0.49883 0.0
C730 C 0.48051 0.15688 0.52774 0.0
C731 C 0.46263 0.14891 0.53006 0.0
C732 C 0.44744 0.15914 0.52414 0.0
C733 C 0.43065 0.1515 0.52607 0.0
C734 C 0.42886 0.13365 0.53413 0.0
C735 C 0.44386 0.12342 0.54037 0.0
C736 C 0.46069 0.131 0.53843 0.0
C737 C 0.53764 0.17843 0.62277 0.0
C738 C 0.54091 0.16228 0.63828 0.0
C739 C 0.52687 0.17902 0.59569 0.0
C740 C 0.51951 0.16342 0.58322 0.0
C741 C 0.52255 0.14731 0.59905 0.0
C742 C 0.53311 0.14675 0.62645 0.0
C743 C 0.50859 0.1639 0.55375 0.0
C744 C 0.4917 0.1562 0.55444 0.0
C745 C 0.51453 0.17228 0.52538 0.0
C746 C 0.53268 0.17954 0.52225 0.0
C747 C 0.54751 0.16882 0.5283 0.0
C748 C 0.56457 0.17578 0.52559 0.0
C749 C 0.56698 0.19342 0.5166 0.0
C750 C 0.55233 0.20412 0.5102 0.0
C751 C 0.53524 0.19723 0.51292 0.0
H752 H 0.5802 0.19878 0.51451 0.0
H753 H 0.41584 0.12775 0.53563 0.0
H754 H 0.86077 0.46047 0.65994 0.0
H755 H 0.86061 0.47928 0.70776 0.0
H756 H 0.80458 0.47046 0.71864 0.0
H757 H 0.8047 0.45148 0.67103 0.0
H758 H 0.81633 0.50711 0.72417 0.0
H759 H 0.82893 0.44871 0.76514 0.0
H760 H 0.84534 0.42055 0.76728 0.0
H761 H 0.89326 0.44864 0.78865 0.0
H762 H 0.87717 0.47701 0.78615 0.0
H763 H 0.80553 0.54234 0.87944 0.0
H764 H 0.80496 0.52331 0.8321 0.0
H765 H 0.86196 0.51988 0.83446 0.0
H766 H 0.86243 0.53827 0.88268 0.0
H767 H 0.84949 0.48922 0.8214 0.0
H768 H 0.83841 0.54733 0.78041 0.0
H769 H 0.82335 0.57619 0.77648 0.0
H770 H 0.77462 0.55011 0.75285 0.0
H771 H 0.78933 0.52107 0.75707 0.0
C772 C 0.84843 0.46264 0.6725 0.0
C773 C 0.83276 0.45452 0.662 0.0
C774 C 0.84836 0.47329 0.69977 0.0
C775 C 0.83259 0.47614 0.71666 0.0
C776 C 0.81686 0.46836 0.70585 0.0
C777 C 0.81697 0.45748 0.67887 0.0
C778 C 0.83259 0.48708 0.74591 0.0
C779 C 0.82338 0.50316 0.74563 0.0
C780 C 0.84222 0.48205 0.7734 0.0
C781 C 0.85188 0.46499 0.77512 0.0
C782 C 0.84299 0.4489 0.77001 0.0
C783 C 0.85223 0.4329 0.77134 0.0
C784 C 0.87034 0.43281 0.77801 0.0
C785 C 0.87924 0.44873 0.78344 0.0
C786 C 0.87006 0.46477 0.78209 0.0
C787 C 0.8179 0.53749 0.86975 0.0
C788 C 0.83403 0.54176 0.88446 0.0
C789 C 0.81759 0.52671 0.84265 0.0
C790 C 0.83345 0.52044 0.82929 0.0
C791 C 0.84956 0.52457 0.84428 0.0
C792 C 0.84984 0.53507 0.87175 0.0
C793 C 0.83325 0.50945 0.79987 0.0
C794 C 0.84243 0.4933 0.80004 0.0
C795 C 0.8238 0.51457 0.77208 0.0
C796 C 0.81494 0.53202 0.76936 0.0
C797 C 0.82445 0.54775 0.7746 0.0
C798 C 0.81598 0.56414 0.77229 0.0
C799 C 0.79803 0.56498 0.7645 0.0
C800 C 0.78852 0.54944 0.75892 0.0
C801 C 0.79692 0.53301 0.76124 0.0
H802 H 0.7915 0.57768 0.76272 0.0
H803 H 0.87747 0.42041 0.77904 0.0
H804 H 0.47638 0.8139 0.1582 0.0
H805 H 0.49514 0.81433 0.11063 0.0
H806 H 0.44883 0.81547 0.05048 0.0
H807 H 0.42992 0.81558 0.09786 0.0
H808 H 0.47577 0.79219 0.02872 0.0
H809 H 0.4686 0.85258 0.06373 0.0
H810 H 0.46951 0.87681 0.10317 0.0
H811 H 0.52522 0.86856 0.11638 0.0
H812 H 0.52459 0.84408 0.07735 0.0
H813 H 0.51553 0.82104 0.88436 0.0
H814 H 0.4967 0.81798 0.93147 0.0
H815 H 0.54207 0.82548 0.99261 0.0
H816 H 0.5608 0.82952 0.9457 0.0
H817 H 0.51548 0.84386 0.01429 0.0
H818 H 0.52346 0.78406 0.9795 0.0
H819 H 0.52316 0.75923 0.94128 0.0
H820 H 0.46712 0.76535 0.92887 0.0
H821 H 0.46713 0.79039 0.9667 0.0
C822 C 0.47015 0.8143 0.13488 0.0
C823 C 0.45163 0.81489 0.13188 0.0
C824 C 0.4809 0.81443 0.10775 0.0
C825 C 0.47333 0.8151 0.07715 0.0
C826 C 0.45488 0.81492 0.07395 0.0
C827 C 0.44411 0.81491 0.10107 0.0
C828 C 0.48467 0.81691 0.04855 0.0
C829 C 0.48433 0.80355 0.0253 0.0
C830 C 0.49608 0.83157 0.04462 0.0
C831 C 0.49651 0.84638 0.06787 0.0
C832 C 0.48102 0.85584 0.07524 0.0
C833 C 0.48148 0.86963 0.09749 0.0
C834 C 0.4974 0.87419 0.11234 0.0
C835 C 0.51289 0.865 0.1049 0.0
C836 C 0.51249 0.85117 0.0827 0.0
C837 C 0.52147 0.82225 0.90782 0.0
C838 C 0.5397 0.82548 0.91122 0.0
C839 C 0.51073 0.82026 0.93474 0.0
C840 C 0.51803 0.82122 0.96558 0.0
C841 C 0.53617 0.82459 0.96905 0.0
C842 C 0.54689 0.82673 0.94218 0.0
C843 C 0.50672 0.81907 0.99429 0.0
C844 C 0.50701 0.83242 0.01761 0.0
C845 C 0.49539 0.80432 0.99838 0.0
C846 C 0.49533 0.78922 0.9757 0.0
C847 C 0.5111 0.7802 0.96844 0.0
C848 C 0.51097 0.76607 0.94687 0.0
C849 C 0.49514 0.76074 0.93259 0.0
C850 C 0.47938 0.76951 0.93992 0.0
C851 C 0.47943 0.78366 0.96144 0.0
H852 H 0.49507 0.7498 0.9159 0.0
H853 H 0.49773 0.88487 0.12956 0.0
H854 H 0.17922 0.43863 0.34764 0.0
H855 H 0.1823 0.45839 0.30181 0.0
H856 H 0.20385 0.49886 0.36333 0.0
H857 H 0.20052 0.47915 0.40947 0.0
H858 H 0.17977 0.51251 0.32574 0.0
H859 H 0.23014 0.47581 0.3096 0.0
H860 H 0.24679 0.44791 0.30444 0.0
H861 H 0.21566 0.43363 0.22252 0.0
H862 H 0.19864 0.46133 0.22746 0.0
H863 H 0.20222 0.56729 0.19252 0.0
H864 H 0.20565 0.54818 0.23952 0.0
H865 H 0.17715 0.5066 0.19119 0.0
H866 H 0.17377 0.52558 0.14411 0.0
H867 H 0.20769 0.49477 0.22326 0.0
H868 H 0.15596 0.53078 0.24326 0.0
H869 H 0.1398 0.55895 0.24878 0.0
H870 H 0.1749 0.57489 0.32423 0.0
H871 H 0.19143 0.5469 0.31882 0.0
C872 C 0.18487 0.45164 0.35132 0.0
C873 C 0.18968 0.45734 0.38209 0.0
C874 C 0.18665 0.46292 0.3251 0.0
C875 C 0.19354 0.48003 0.32904 0.0
C876 C 0.19852 0.48571 0.35973 0.0
C877 C 0.19659 0.47447 0.38604 0.0
C878 C 0.19465 0.49226 0.30136 0.0
C879 C 0.1862 0.50875 0.30356 0.0
C880 C 0.20278 0.48726 0.27221 0.0
C881 C 0.21302 0.4706 0.26906 0.0
C882 C 0.22676 0.46666 0.29063 0.0
C883 C 0.23627 0.45089 0.28771 0.0
C884 C 0.23226 0.43899 0.2632 0.0
C885 C 0.21874 0.44285 0.24151 0.0
C886 C 0.20917 0.4586 0.24433 0.0
C887 C 0.19685 0.55401 0.19185 0.0
C888 C 0.18765 0.54792 0.16479 0.0
C889 C 0.19874 0.54317 0.2187 0.0
C890 C 0.19156 0.52605 0.21881 0.0
C891 C 0.18278 0.51978 0.19152 0.0
C892 C 0.18074 0.53066 0.1648 0.0
C893 C 0.19266 0.51481 0.24769 0.0
C894 C 0.20149 0.49854 0.24564 0.0
C895 C 0.18502 0.52005 0.27705 0.0
C896 C 0.17505 0.53685 0.28038 0.0
C897 C 0.16033 0.54036 0.26083 0.0
C898 C 0.15108 0.55628 0.26398 0.0
C899 C 0.15635 0.56873 0.28677 0.0
C900 C 0.17085 0.56525 0.30654 0.0
C901 C 0.18016 0.54936 0.30345 0.0
H902 H 0.14918 0.58104 0.28918 0.0
H903 H 0.23965 0.42679 0.26099 0.0
H904 H 0.3405 0.25011 0.35785 0.0
H905 H 0.31837 0.26587 0.38942 0.0
H906 H 0.27841 0.22884 0.35875 0.0
H907 H 0.30054 0.2129 0.32719 0.0
H908 H 0.26653 0.26282 0.35729 0.0
H909 H 0.2957 0.22501 0.432 0.0
H910 H 0.32122 0.21158 0.45954 0.0
H911 H 0.33672 0.26258 0.49501 0.0
H912 H 0.31144 0.27636 0.46726 0.0
H913 H 0.20444 0.29525 0.46916 0.0
H914 H 0.2244 0.27404 0.44362 0.0
H915 H 0.26888 0.30755 0.4661 0.0
H916 H 0.24905 0.32882 0.49145 0.0
H917 H 0.27685 0.27244 0.47327 0.0
H918 H 0.24941 0.31034 0.3943 0.0
H919 H 0.22405 0.32391 0.36646 0.0
H920 H 0.2054 0.27245 0.33896 0.0
H921 H 0.23053 0.25857 0.36707 0.0
C922 C 0.327 0.24531 0.35785 0.0
C923 C 0.32228 0.23021 0.34021 0.0
C924 C 0.31439 0.25431 0.37591 0.0
C925 C 0.29684 0.24832 0.37685 0.0
C926 C 0.29191 0.23361 0.35841 0.0
C927 C 0.30454 0.22459 0.34028 0.0
C928 C 0.2837 0.25743 0.39724 0.0
C929 C 0.26861 0.26464 0.38276 0.0
C930 C 0.28659 0.26 0.43037 0.0
C931 C 0.30174 0.25174 0.44733 0.0
C932 C 0.30462 0.23338 0.44548 0.0
C933 C 0.31904 0.2257 0.46115 0.0
C934 C 0.33061 0.23622 0.47896 0.0
C935 C 0.32776 0.25444 0.48119 0.0
C936 C 0.31337 0.2622 0.46552 0.0
C937 C 0.2185 0.298 0.46894 0.0
C938 C 0.22517 0.31378 0.48203 0.0
C939 C 0.22987 0.28587 0.45441 0.0
C940 C 0.24806 0.28939 0.45255 0.0
C941 C 0.25487 0.3046 0.46729 0.0
C942 C 0.24352 0.31672 0.48187 0.0
C943 C 0.25984 0.27802 0.43322 0.0
C944 C 0.27468 0.2704 0.44789 0.0
C945 C 0.25673 0.27507 0.40025 0.0
C946 C 0.24173 0.28341 0.38308 0.0
C947 C 0.23983 0.30192 0.38251 0.0
C948 C 0.2255 0.30966 0.36667 0.0
C949 C 0.21309 0.29905 0.35103 0.0
C950 C 0.21501 0.28066 0.35113 0.0
C951 C 0.22929 0.27284 0.36701 0.0
H952 H 0.20201 0.30507 0.33877 0.0
H953 H 0.34176 0.23025 0.49108 0.0
H954 H 0.77959 0.32498 0.6267 0.0
H955 H 0.75969 0.30437 0.65385 0.0
H956 H 0.7256 0.30382 0.57109 0.0
H957 H 0.74539 0.32465 0.54388 0.0
H958 H 0.70755 0.30917 0.62812 0.0
H959 H 0.75093 0.26911 0.58558 0.0
H960 H 0.78105 0.25776 0.57611 0.0
H961 H 0.78861 0.25111 0.67719 0.0
H962 H 0.75861 0.26267 0.6873 0.0
H963 H 0.65308 0.23698 0.66886 0.0
H964 H 0.67367 0.25727 0.64307 0.0
H965 H 0.7088 0.25335 0.72412 0.0
H966 H 0.68851 0.23239 0.74962 0.0
H967 H 0.72667 0.25059 0.66911 0.0
H968 H 0.68371 0.29023 0.71235 0.0
H969 H 0.65386 0.30197 0.7229 0.0
H970 H 0.64582 0.31008 0.62229 0.0
H971 H 0.67554 0.29814 0.61109 0.0
C972 C 0.76784 0.32047 0.61432 0.0
C973 C 0.76397 0.32644 0.58325 0.0
C974 C 0.75657 0.30862 0.62975 0.0
C975 C 0.74125 0.30254 0.61438 0.0
C976 C 0.73739 0.30837 0.58328 0.0
C977 C 0.74874 0.32015 0.56772 0.0
C978 C 0.72899 0.29049 0.6312 0.0
C979 C 0.71163 0.29624 0.6367 0.0
C980 C 0.73456 0.27392 0.64324 0.0
C981 C 0.75259 0.26692 0.63721 0.0
C982 C 0.75907 0.26537 0.60581 0.0
C983 C 0.77611 0.25887 0.60032 0.0
C984 C 0.78675 0.25376 0.62604 0.0
C985 C 0.78036 0.2551 0.65729 0.0
C986 C 0.76333 0.26161 0.66292 0.0
C987 C 0.66524 0.24033 0.68114 0.0
C988 C 0.66921 0.23302 0.71124 0.0
C989 C 0.67691 0.25208 0.66652 0.0
C990 C 0.69267 0.25696 0.68183 0.0
C991 C 0.69666 0.24978 0.71195 0.0
C992 C 0.685 0.23795 0.7266 0.0
C993 C 0.70516 0.26921 0.66591 0.0
C994 C 0.72258 0.26352 0.6606 0.0
C995 C 0.69968 0.28591 0.65422 0.0
C996 C 0.6818 0.29313 0.66087 0.0
C997 C 0.67552 0.29438 0.69245 0.0
C998 C 0.65863 0.3011 0.69856 0.0
C999 C 0.64793 0.30673 0.67328 0.0
C1000 C 0.65411 0.30569 0.64185 0.0
C1001 C 0.67099 0.29897 0.63561 0.0
H1002 H 0.63486 0.31193 0.67806 0.0
H1003 H 0.79994 0.24873 0.62174 0.0
H1004 H 0.74505 0.66542 0.98357 0.0
H1005 H 0.72428 0.68492 0.95586 0.0
H1006 H 0.76641 0.70363 0.89508 0.0
H1007 H 0.78737 0.68462 0.92338 0.0
H1008 H 0.74536 0.73036 0.91366 0.0
H1009 H 0.73779 0.67255 0.86841 0.0
H1010 H 0.73242 0.64038 0.86953 0.0
H1011 H 0.68147 0.64903 0.91204 0.0
H1012 H 0.68665 0.68126 0.91161 0.0
H1013 H 0.69033 0.76954 0.7958 0.0
H1014 H 0.71184 0.74957 0.8207 0.0
H1015 H 0.67157 0.7307 0.88534 0.0
H1016 H 0.64997 0.75031 0.86015 0.0
H1017 H 0.69221 0.70388 0.86306 0.0
H1018 H 0.70025 0.76166 0.90956 0.0
H1019 H 0.70568 0.79382 0.9084 0.0
H1020 H 0.75589 0.78513 0.86308 0.0
H1021 H 0.75064 0.75291 0.86357 0.0
C1022 C 0.74995 0.6739 0.96467 0.0
C1023 C 0.76782 0.67339 0.95548 0.0
C1024 C 0.73803 0.68489 0.94865 0.0
C1025 C 0.74377 0.69547 0.92306 0.0
C1026 C 0.76171 0.69547 0.91461 0.0
C1027 C 0.77362 0.68451 0.93064 0.0
C1028 C 0.731 0.70626 0.90463 0.0
C1029 C 0.73387 0.72455 0.90222 0.0
C1030 C 0.71587 0.69868 0.89015 0.0
C1031 C 0.71268 0.67931 0.89025 0.0
C1032 C 0.7255 0.66759 0.87822 0.0
C1033 C 0.72248 0.64934 0.87869 0.0
C1034 C 0.70664 0.64267 0.89092 0.0
C1035 C 0.69375 0.65422 0.90262 0.0
C1036 C 0.69671 0.67248 0.90224 0.0
C1037 C 0.68602 0.76091 0.81495 0.0
C1038 C 0.66853 0.76157 0.82625 0.0
C1039 C 0.69833 0.74963 0.8293 0.0
C1040 C 0.69332 0.73888 0.85514 0.0
C1041 C 0.6757 0.73897 0.86553 0.0
C1042 C 0.66342 0.75025 0.85128 0.0
C1043 C 0.70654 0.72797 0.87223 0.0
C1044 C 0.70375 0.70967 0.87439 0.0
C1045 C 0.72175 0.73553 0.88644 0.0
C1046 C 0.72497 0.75489 0.88629 0.0
C1047 C 0.71239 0.76661 0.89912 0.0
C1048 C 0.71544 0.78485 0.89862 0.0
C1049 C 0.7311 0.79152 0.88559 0.0
C1050 C 0.74375 0.77995 0.87312 0.0
C1051 C 0.74075 0.7617 0.87351 0.0
H1052 H 0.73344 0.80564 0.88523 0.0
H1053 H 0.70433 0.62854 0.89127 0.0
H1054 H 0.25821 0.66825 0.05901 0.0
H1055 H 0.27359 0.68959 0.09292 0.0
H1056 H 0.22706 0.72249 0.09503 0.0
H1057 H 0.21122 0.70084 0.06227 0.0
H1058 H 0.26475 0.73992 0.08873 0.0
H1059 H 0.22769 0.70147 0.15281 0.0
H1060 H 0.21584 0.67216 0.16728 0.0
H1061 H 0.26819 0.65411 0.19007 0.0
H1062 H 0.2804 0.68323 0.17506 0.0
H1063 H 0.29794 0.78836 0.21995 0.0
H1064 H 0.2764 0.77192 0.18809 0.0
H1065 H 0.30841 0.72489 0.1965 0.0
H1066 H 0.32955 0.741 0.22964 0.0
H1067 H 0.27439 0.7165 0.19839 0.0
H1068 H 0.312 0.75288 0.13226 0.0
H1069 H 0.32547 0.78107 0.11525 0.0
H1070 H 0.27401 0.80212 0.09423 0.0
H1071 H 0.26021 0.77414 0.11167 0.0
C1072 C 0.25127 0.6801 0.0664 0.0
C1073 C 0.2334 0.6827 0.05834 0.0
C1074 C 0.26012 0.69232 0.08553 0.0
C1075 C 0.25135 0.70745 0.09654 0.0
C1076 C 0.234 0.71087 0.08657 0.0
C1077 C 0.22502 0.6985 0.06774 0.0
C1078 C 0.25973 0.71848 0.12132 0.0
C1079 C 0.26658 0.73504 0.11292 0.0
C1080 C 0.26232 0.71182 0.15256 0.0
C1081 C 0.25497 0.69448 0.16254 0.0
C1082 C 0.23669 0.69121 0.16067 0.0
C1083 C 0.2299 0.67463 0.16898 0.0
C1084 C 0.24126 0.66126 0.17952 0.0
C1085 C 0.25941 0.66447 0.18187 0.0
C1086 C 0.26627 0.68101 0.17348 0.0
C1087 C 0.30013 0.77439 0.21583 0.0
C1088 C 0.31554 0.76601 0.22704 0.0
C1089 C 0.2879 0.76506 0.19732 0.0
C1090 C 0.29101 0.7473 0.18936 0.0
C1091 C 0.30581 0.73863 0.20217 0.0
C1092 C 0.31796 0.74789 0.22087 0.0
C1093 C 0.27967 0.73801 0.16589 0.0
C1094 C 0.2723 0.72165 0.17446 0.0
C1095 C 0.27677 0.74481 0.13471 0.0
C1096 C 0.28506 0.7615 0.1236 0.0
C1097 C 0.30355 0.76356 0.12419 0.0
C1098 C 0.31124 0.7795 0.11447 0.0
C1099 C 0.3006 0.79339 0.10375 0.0
C1100 C 0.28224 0.79136 0.10261 0.0
C1101 C 0.27447 0.77547 0.11241 0.0
H1102 H 0.30658 0.80573 0.09626 0.0
H1103 H 0.23598 0.64843 0.18592 0.0
H1104 H 0.34649 0.92766 0.30549 0.0
H1105 H 0.34349 0.95985 0.30101 0.0
H1106 H 0.37606 0.95936 0.21633 0.0
H1107 H 0.37946 0.92735 0.22106 0.0
H1108 H 0.38628 0.9847 0.25811 0.0
H1109 H 0.33186 0.96486 0.21041 0.0
H1110 H 0.30376 0.94834 0.20845 0.0
H1111 H 0.28483 0.97704 0.29017 0.0
H1112 H 0.31293 0.99357 0.29289 0.0
H1113 H 0.37446 0.07224 0.20951 0.0
H1114 H 0.372 0.04006 0.20793 0.0
H1115 H 0.33908 0.04113 0.29214 0.0
H1116 H 0.34089 0.07343 0.29315 0.0
H1117 H 0.32846 0.0155 0.25048 0.0
H1118 H 0.38254 0.03476 0.29945 0.0
H1119 H 0.41037 0.05169 0.30214 0.0
H1120 H 0.42998 0.02394 0.21987 0.0
H1121 H 0.40211 0.00708 0.21632 0.0
C1122 C 0.35302 0.93444 0.28596 0.0
C1123 C 0.36313 0.92497 0.26354 0.0
C1124 C 0.35118 0.95278 0.28329 0.0
C1125 C 0.35942 0.96195 0.25815 0.0
C1126 C 0.36954 0.95253 0.23581 0.0
C1127 C 0.37134 0.93422 0.23841 0.0
C1128 C 0.35801 0.98144 0.2556 0.0
C1129 C 0.37365 0.99141 0.25598 0.0
C1130 C 0.3415 0.99019 0.25371 0.0
C1131 C 0.32457 0.98032 0.25204 0.0
C1132 C 0.32176 0.96754 0.22812 0.0
C1133 C 0.30583 0.9582 0.22684 0.0
C1134 C 0.29254 0.96161 0.24922 0.0
C1135 C 0.29514 0.9744 0.27288 0.0
C1136 C 0.31106 0.98377 0.27428 0.0
C1137 C 0.36626 0.0657 0.22714 0.0
C1138 C 0.35801 0.07538 0.25167 0.0
C1139 C 0.365 0.04729 0.22638 0.0
C1140 C 0.35566 0.03822 0.25031 0.0
C1141 C 0.34646 0.04788 0.27359 0.0
C1142 C 0.34763 0.06631 0.27428 0.0
C1143 C 0.35673 0.0187 0.25264 0.0
C1144 C 0.34107 0.00875 0.25245 0.0
C1145 C 0.37323 0.00993 0.25494 0.0
C1146 C 0.39016 0.01978 0.25743 0.0
C1147 C 0.39274 0.03235 0.28181 0.0
C1148 C 0.40852 0.04193 0.28349 0.0
C1149 C 0.42192 0.03892 0.26115 0.0
C1150 C 0.41958 0.02627 0.23714 0.0
C1151 C 0.40379 0.0167 0.23528 0.0
H1152 H 0.43413 0.04636 0.26247 0.0
H1153 H 0.28021 0.95436 0.24819 0.0
H1154 H 0.9256 0.3876 0.46138 0.0
H1155 H 0.95776 0.38556 0.45981 0.0
H1156 H 0.9554 0.33505 0.50788 0.0
H1157 H 0.9231 0.33739 0.5104 0.0
H1158 H 0.97827 0.35431 0.53611 0.0
H1159 H 0.96912 0.33952 0.42744 0.0
H1160 H 0.95695 0.34177 0.37289 0.0
H1161 H 0.98169 0.39247 0.36106 0.0
H1162 H 0.9938 0.39066 0.41573 0.0
H1163 H 0.07304 0.34717 0.51431 0.0
H1164 H 0.04153 0.34098 0.50742 0.0
H1165 H 0.03171 0.3962 0.48905 0.0
H1166 H 0.0629 0.4028 0.49774 0.0
H1167 H 0.01609 0.3697 0.44324 0.0
H1168 H 0.02153 0.38451 0.55648 0.0
H1169 H 0.03411 0.38057 0.61044 0.0
H1170 H 0.01665 0.32652 0.61141 0.0
H1171 H 0.00419 0.33008 0.5572 0.0
C1172 C 0.93193 0.37586 0.47089 0.0
C1173 C 0.9219 0.36262 0.48591 0.0
C1174 C 0.95033 0.37467 0.46993 0.0
C1175 C 0.95906 0.36003 0.48338 0.0
C1176 C 0.94898 0.34646 0.49734 0.0
C1177 C 0.93056 0.34778 0.49872 0.0
C1178 C 0.97866 0.3598 0.48543 0.0
C1179 C 0.98651 0.35726 0.51556 0.0
C1180 C 0.98952 0.36382 0.45878 0.0
C1181 C 0.98228 0.365 0.42582 0.0
C1182 C 0.97186 0.35121 0.41331 0.0
C1183 C 0.96499 0.3524 0.38234 0.0
C1184 C 0.96852 0.36727 0.36354 0.0
C1185 C 0.97896 0.38097 0.37565 0.0
C1186 C 0.98585 0.37985 0.40662 0.0
C1187 C 0.06419 0.35808 0.50931 0.0
C1188 C 0.07062 0.37552 0.50664 0.0
C1189 C 0.04622 0.35446 0.50504 0.0
C1190 C 0.03442 0.36814 0.49756 0.0
C1191 C 0.04073 0.38547 0.49449 0.0
C1192 C 0.0586 0.38917 0.49932 0.0
C1193 C 0.01535 0.36456 0.49381 0.0
C1194 C 0.00772 0.36641 0.46346 0.0
C1195 C 0.00472 0.3596 0.52006 0.0
C1196 C 0.01215 0.35749 0.55265 0.0
C1197 C 0.02054 0.37173 0.56807 0.0
C1198 C 0.02761 0.36958 0.59872 0.0
C1199 C 0.02624 0.35328 0.6143 0.0
C1200 C 0.01774 0.33912 0.59929 0.0
C1201 C 0.01067 0.3412 0.56861 0.0
H1202 H 0.03172 0.35164 0.63804 0.0
H1203 H 0.96319 0.36816 0.33957 0.0
H1204 H 0.64379 0.92281 0.82615 0.0
H1205 H 0.64942 0.95433 0.83372 0.0
H1206 H 0.64602 0.96259 0.73183 0.0
H1207 H 0.64087 0.93091 0.72392 0.0
H1208 H 0.67223 0.98309 0.76022 0.0
H1209 H 0.61051 0.96914 0.77638 0.0
H1210 H 0.58565 0.95302 0.80104 0.0
H1211 H 0.60126 0.97178 0.89379 0.0
H1212 H 0.62639 0.9878 0.86969 0.0
H1213 H 0.64345 0.07172 0.746 0.0
H1214 H 0.64876 0.03993 0.74492 0.0
H1215 H 0.64731 0.03845 0.84806 0.0
H1216 H 0.64188 0.07039 0.84929 0.0
H1217 H 0.6263 0.01416 0.82368 0.0
H1218 H 0.68618 0.03126 0.80629 0.0
H1219 H 0.71081 0.04745 0.7811 0.0
H1220 H 0.69886 0.02325 0.69075 0.0
H1221 H 0.67398 0.00709 0.71528 0.0
C1222 C 0.64469 0.93123 0.80525 0.0
C1223 C 0.64176 0.92438 0.77442 0.0
C1224 C 0.64778 0.94926 0.80967 0.0
C1225 C 0.6479 0.96079 0.78337 0.0
C1226 C 0.64593 0.95389 0.75243 0.0
C1227 C 0.64283 0.93584 0.74798 0.0
C1228 C 0.64856 0.98017 0.78829 0.0
C1229 C 0.66217 0.98995 0.77393 0.0
C1230 C 0.63563 0.98899 0.80681 0.0
C1231 C 0.62043 0.9795 0.82129 0.0
C1232 C 0.60872 0.96971 0.80206 0.0
C1233 C 0.59457 0.96061 0.81593 0.0
C1234 C 0.59191 0.96133 0.84897 0.0
C1235 C 0.60336 0.9712 0.8682 0.0
C1236 C 0.61755 0.9803 0.85445 0.0
C1237 C 0.6447 0.06472 0.7685 0.0
C1238 C 0.64228 0.07357 0.79775 0.0
C1239 C 0.64775 0.04652 0.76784 0.0
C1240 C 0.64863 0.03682 0.79642 0.0
C1241 C 0.6467 0.04569 0.82572 0.0
C1242 C 0.64356 0.06391 0.82639 0.0
C1243 C 0.64995 0.01726 0.79545 0.0
C1244 C 0.6366 0.00738 0.81042 0.0
C1245 C 0.66312 0.0084 0.77746 0.0
C1246 C 0.67812 0.01805 0.76261 0.0
C1247 C 0.68871 0.02948 0.781 0.0
C1248 C 0.70274 0.03864 0.76684 0.0
C1249 C 0.70637 0.0364 0.73433 0.0
C1250 C 0.69602 0.02497 0.71592 0.0
C1251 C 0.68197 0.01579 0.72996 0.0
H1252 H 0.71723 0.04351 0.72342 0.0
H1253 H 0.58095 0.95427 0.85967 0.0
H1254 H 0.93079 0.63501 0.08918 0.0
H1255 H 0.96273 0.63873 0.08476 0.0
H1256 H 0.95725 0.65025 0.98415 0.0
H1257 H 0.92548 0.64545 0.98791 0.0
H1258 H 0.98176 0.62703 0.99185 0.0
H1259 H 0.96916 0.68255 0.04054 0.0
H1260 H 0.95636 0.70308 0.08004 0.0
H1261 H 0.98644 0.67835 0.1548 0.0
H1262 H -0.00075 0.65749 0.11582 0.0
H1263 H 0.07326 0.64696 0.97504 0.0
H1264 H 0.04131 0.65182 0.97773 0.0
H1265 H 0.04054 0.63128 0.07393 0.0
H1266 H 0.0723 0.62586 0.07121 0.0
H1267 H 0.0195 0.66196 0.06557 0.0
H1268 H 0.02952 0.60482 0.01617 0.0
H1269 H 0.04238 0.58479 0.97586 0.0
H1270 H 0.01682 0.61405 0.9009 0.0
H1271 H 0.004 0.63442 0.94079 0.0
C1272 C 0.93636 0.63835 0.0661 0.0
C1273 C 0.92551 0.63984 0.03889 0.0
C1274 C 0.95463 0.64073 0.0637 0.0
C1275 C 0.96241 0.64495 0.03417 0.0
C1276 C 0.95156 0.64705 0.00721 0.0
C1277 C 0.93332 0.64448 0.0095 0.0
C1278 C 0.98194 0.64571 0.03084 0.0
C1279 C 0.98995 0.63499 0.00756 0.0
C1280 C 0.99271 0.65581 0.05171 0.0
C1281 C 0.98506 0.66835 0.07526 0.0
C1282 C 0.97295 0.68139 0.06544 0.0
C1283 C 0.96571 0.69311 0.08774 0.0
C1284 C 0.97056 0.692 0.11992 0.0
C1285 C 0.98269 0.67919 0.12986 0.0
C1286 C 0.98996 0.66743 0.10767 0.0
C1287 C 0.0663 0.64341 0.99674 0.0
C1288 C 0.07537 0.6359 0.02283 0.0
C1289 C 0.04808 0.64633 0.9983 0.0
C1290 C 0.03861 0.64184 0.02599 0.0
C1291 C 0.04766 0.63494 0.05244 0.0
C1292 C 0.06584 0.6319 0.05084 0.0
C1293 C 0.01911 0.64325 0.02678 0.0
C1294 C 0.01118 0.65428 0.04962 0.0
C1295 C 0.00837 0.63356 0.00537 0.0
C1296 C 0.01598 0.62126 0.98142 0.0
C1297 C 0.02677 0.60707 0.99107 0.0
C1298 C 0.03403 0.59564 0.96831 0.0
C1299 C 0.03047 0.59818 0.93583 0.0
C1300 C 0.01959 0.61212 0.92606 0.0
C1301 C 0.01232 0.62361 0.94873 0.0
H1302 H 0.03609 0.58931 0.91824 0.0
H1303 H 0.96493 0.70108 0.13715 0.0
H1304 H 0.52702 0.19413 0.8948 0.0
H1305 H 0.50566 0.19708 0.93824 0.0
H1306 H 0.54787 0.19228 0.00728 0.0
H1307 H 0.56923 0.18874 0.96368 0.0
H1308 H 0.52224 0.17211 0.02415 0.0
H1309 H 0.52557 0.23251 0.992 0.0
H1310 H 0.52512 0.25782 0.9548 0.0
H1311 H 0.47126 0.24613 0.93003 0.0
H1312 H 0.47147 0.22058 0.96676 0.0
H1313 H 0.46945 0.19613 0.15713 0.0
H1314 H 0.49124 0.19899 0.11424 0.0
H1315 H 0.45051 0.18953 0.04409 0.0
H1316 H 0.42855 0.18658 0.08704 0.0
H1317 H 0.47563 0.21825 0.02934 0.0
H1318 H 0.47388 0.15667 0.06111 0.0
H1319 H 0.475 0.13235 0.10037 0.0
H1320 H 0.52736 0.14809 0.12819 0.0
H1321 H 0.52643 0.17269 0.08941 0.0
C1322 C 0.53176 0.19399 0.91925 0.0
C1323 C 0.54976 0.19129 0.92595 0.0
C1324 C 0.51955 0.19573 0.94408 0.0
C1325 C 0.52516 0.19516 0.97609 0.0
C1326 C 0.54322 0.19277 0.98279 0.0
C1327 C 0.55541 0.19076 0.95793 0.0
C1328 C 0.51206 0.19594 0.00249 0.0
C1329 C 0.51227 0.18241 0.02551 0.0
C1330 C 0.49878 0.20916 0.00403 0.0
C1331 C 0.49859 0.22453 0.98194 0.0
C1332 C 0.51367 0.23525 0.97844 0.0
C1333 C 0.51345 0.24965 0.95746 0.0
C1334 C 0.49818 0.25355 0.94 0.0
C1335 C 0.48309 0.24308 0.94354 0.0
C1336 C 0.48324 0.22865 0.96447 0.0
C1337 C 0.46508 0.19494 0.13255 0.0
C1338 C 0.44732 0.19111 0.12535 0.0
C1339 C 0.47754 0.19651 0.10813 0.0
C1340 C 0.47245 0.1944 0.07612 0.0
C1341 C 0.45463 0.19121 0.06872 0.0
C1342 C 0.44217 0.18942 0.0932 0.0
C1343 C 0.48595 0.19448 0.0506 0.0
C1344 C 0.48574 0.20809 0.02786 0.0
C1345 C 0.49938 0.18151 0.0495 0.0
C1346 C 0.50001 0.16662 0.07261 0.0
C1347 C 0.48557 0.15504 0.0758 0.0
C1348 C 0.48618 0.14118 0.09792 0.0
C1349 C 0.50122 0.1387 0.11683 0.0
C1350 C 0.5157 0.15004 0.11357 0.0
C1351 C 0.51515 0.16393 0.0915 0.0
H1352 H 0.50167 0.12797 0.13395 0.0
H1353 H 0.49804 0.26471 0.92378 0.0
H1354 H 0.80212 0.53054 0.14448 0.0
H1355 H 0.79881 0.50995 0.18901 0.0
H1356 H 0.80234 0.55342 0.2557 0.0
H1357 H 0.80633 0.57401 0.21098 0.0
H1358 H 0.82229 0.52849 0.27533 0.0
H1359 H 0.7625 0.5301 0.24051 0.0
H1360 H 0.73758 0.5288 0.20255 0.0
H1361 H 0.75043 0.47488 0.18013 0.0
H1362 H 0.7756 0.47593 0.21763 0.0
H1363 H 0.79809 0.4738 0.40737 0.0
H1364 H 0.79453 0.49591 0.36495 0.0
H1365 H 0.80856 0.45682 0.29427 0.0
H1366 H 0.81241 0.43468 0.33671 0.0
H1367 H 0.77755 0.48051 0.27962 0.0
H1368 H 0.83921 0.48122 0.31293 0.0
H1369 H 0.86293 0.4833 0.35325 0.0
H1370 H 0.8442 0.53463 0.38131 0.0
H1371 H 0.82018 0.53271 0.34145 0.0
C1372 C 0.8019 0.53571 0.16864 0.0
C1373 C 0.80439 0.55385 0.17436 0.0
C1374 C 0.79994 0.52395 0.1941 0.0
C1375 C 0.80003 0.53013 0.22578 0.0
C1376 C 0.8022 0.54833 0.23149 0.0
C1377 C 0.80446 0.56008 0.20599 0.0
C1378 C 0.79909 0.51745 0.25286 0.0
C1379 C 0.81227 0.51824 0.27649 0.0
C1380 C 0.78618 0.50386 0.25429 0.0
C1381 C 0.77104 0.50314 0.23172 0.0
C1382 C 0.7601 0.518 0.22731 0.0
C1383 C 0.74591 0.5173 0.2059 0.0
C1384 C 0.74245 0.50178 0.18889 0.0
C1385 C 0.75314 0.4869 0.19331 0.0
C1386 C 0.76736 0.48753 0.21467 0.0
C1387 C 0.80016 0.46988 0.38273 0.0
C1388 C 0.80555 0.45259 0.3752 0.0
C1389 C 0.79817 0.4825 0.35862 0.0
C1390 C 0.80131 0.47793 0.32662 0.0
C1391 C 0.80604 0.46051 0.31888 0.0
C1392 C 0.80833 0.44795 0.34306 0.0
C1393 C 0.80077 0.49163 0.30148 0.0
C1394 C 0.78738 0.49095 0.27837 0.0
C1395 C 0.81327 0.50551 0.30075 0.0
C1396 C 0.82779 0.50673 0.32449 0.0
C1397 C 0.84005 0.49287 0.32791 0.0
C1398 C 0.85357 0.49404 0.35063 0.0
C1399 C 0.85504 0.50907 0.3699 0.0
C1400 C 0.84303 0.52299 0.36641 0.0
C1401 C 0.82947 0.52187 0.34375 0.0
H1402 H 0.86551 0.50995 0.38747 0.0
H1403 H 0.73146 0.50126 0.17233 0.0
H1404 H 0.55856 0.79212 0.60161 0.0
H1405 H 0.53605 0.78878 0.55974 0.0
H1406 H 0.51214 0.83802 0.58886 0.0
H1407 H 0.5344 0.84133 0.63082 0.0
H1408 H 0.48772 0.811 0.58043 0.0
H1409 H 0.53727 0.837 0.52399 0.0
H1410 H 0.56822 0.83831 0.50557 0.0
H1411 H 0.56198 0.78833 0.4581 0.0
H1412 H 0.53105 0.78661 0.47663 0.0
H1413 H 0.43425 0.83703 0.45078 0.0
H1414 H 0.45605 0.83418 0.49354 0.0
H1415 H 0.47745 0.78762 0.44811 0.0
H1416 H 0.45609 0.79079 0.40457 0.0
H1417 H 0.50321 0.80942 0.46516 0.0
H1418 H 0.45323 0.78421 0.51672 0.0
H1419 H 0.42232 0.78212 0.53507 0.0
H1420 H 0.42916 0.82892 0.5919 0.0
H1421 H 0.46005 0.83145 0.57354 0.0
C1422 C 0.54849 0.80221 0.59903 0.0
C1423 C 0.54829 0.81705 0.61928 0.0
C1424 C 0.53571 0.80032 0.57509 0.0
C1425 C 0.5225 0.8132 0.5712 0.0
C1426 C 0.52224 0.82795 0.59151 0.0
C1427 C 0.53505 0.82991 0.61523 0.0
C1428 C 0.50889 0.81143 0.546 0.0
C1429 C 0.49106 0.81078 0.55519 0.0
C1430 C 0.51335 0.81053 0.51321 0.0
C1431 C 0.53192 0.81158 0.50202 0.0
C1432 C 0.54255 0.82622 0.50987 0.0
C1433 C 0.56008 0.82705 0.49936 0.0
C1434 C 0.56708 0.81338 0.48076 0.0
C1435 C 0.55655 0.79888 0.47256 0.0
C1436 C 0.53902 0.79798 0.48305 0.0
C1437 C 0.4436 0.82619 0.44987 0.0
C1438 C 0.44344 0.81415 0.42426 0.0
C1439 C 0.45593 0.82446 0.47451 0.0
C1440 C 0.46826 0.81057 0.47419 0.0
C1441 C 0.46801 0.79839 0.44889 0.0
C1442 C 0.45569 0.80013 0.42418 0.0
C1443 C 0.48194 0.80935 0.4995 0.0
C1444 C 0.49981 0.80941 0.49037 0.0
C1445 C 0.47751 0.80956 0.53238 0.0
C1446 C 0.45893 0.8081 0.54353 0.0
C1447 C 0.44811 0.79414 0.53293 0.0
C1448 C 0.43059 0.79286 0.54337 0.0
C1449 C 0.42377 0.8054 0.56458 0.0
C1450 C 0.43446 0.81923 0.57545 0.0
C1451 C 0.45198 0.82058 0.56506 0.0
H1452 H 0.41021 0.80438 0.57265 0.0
H1453 H 0.58065 0.81405 0.47263 0.0
H1454 H 0.21383 0.54216 0.8801 0.0
H1455 H 0.21523 0.51954 0.83828 0.0
H1456 H 0.15908 0.52484 0.82262 0.0
H1457 H 0.1575 0.54706 0.86496 0.0
H1458 H 0.16895 0.49053 0.82674 0.0
H1459 H 0.18857 0.54272 0.77077 0.0
H1460 H 0.20739 0.5689 0.76182 0.0
H1461 H 0.25336 0.53567 0.75678 0.0
H1462 H 0.23483 0.5093 0.76613 0.0
H1463 H 0.15727 0.45014 0.67642 0.0
H1464 H 0.15907 0.47048 0.72154 0.0
H1465 H 0.21517 0.46092 0.72882 0.0
H1466 H 0.21345 0.44031 0.68367 0.0
H1467 H 0.20745 0.49597 0.73117 0.0
H1468 H 0.18769 0.44357 0.78372 0.0
H1469 H 0.16893 0.41733 0.79242 0.0
H1470 H 0.12345 0.4507 0.80419 0.0
H1471 H 0.14189 0.47714 0.7951 0.0
C1472 C 0.20179 0.53847 0.86777 0.0
C1473 C 0.18556 0.54642 0.87574 0.0
C1474 C 0.20263 0.52565 0.84375 0.0
C1475 C 0.18727 0.52062 0.82722 0.0
C1476 C 0.17108 0.52857 0.83507 0.0
C1477 C 0.17023 0.54139 0.85903 0.0
C1478 C 0.18795 0.50681 0.80213 0.0
C1479 C 0.17722 0.4918 0.80567 0.0
C1480 C 0.19919 0.50822 0.7752 0.0
C1481 C 0.21034 0.52406 0.76951 0.0
C1482 C 0.20271 0.54101 0.76803 0.0
C1483 C 0.21332 0.55588 0.76283 0.0
C1484 C 0.23156 0.55395 0.75883 0.0
C1485 C 0.23923 0.53714 0.75993 0.0
C1486 C 0.22868 0.52223 0.76516 0.0
C1487 C 0.16995 0.45207 0.68798 0.0
C1488 C 0.1852 0.44348 0.67665 0.0
C1489 C 0.17096 0.46376 0.7137 0.0
C1490 C 0.18722 0.46705 0.72875 0.0
C1491 C 0.20249 0.45853 0.71754 0.0
C1492 C 0.20149 0.4468 0.69174 0.0
C1493 C 0.18822 0.47983 0.75553 0.0
C1494 C 0.19928 0.49463 0.75236 0.0
C1495 C 0.1773 0.47821 0.78286 0.0
C1496 C 0.16616 0.46234 0.78847 0.0
C1497 C 0.17367 0.44531 0.78792 0.0
C1498 C 0.16309 0.4304 0.79297 0.0
C1499 C 0.145 0.43235 0.79879 0.0
C1500 C 0.13746 0.44921 0.79965 0.0
C1501 C 0.14797 0.46417 0.79459 0.0
H1502 H 0.13684 0.42079 0.80269 0.0
H1503 H 0.23975 0.56548 0.7548 0.0
loop_
_geom_bond_atom_site_label_1
_geom_bond_atom_site_label_2
_geom_bond_distance
_geom_bond_site_symmetry_2
_ccdc_geom_bond_type
Li0 N17 1.990 . S
Li0 O60 1.956 . S
Li0 O61 1.970 . S
Li0 O62 1.961 . S
Li1 N25 1.990 . S
Li1 O60 1.970 . S
Li1 O61 1.956 . S
Li1 O63 1.961 . S
Li2 N47 1.990 . S
Li2 O60 1.961 . S
Li2 O62 1.956 . S
Li2 O63 1.970 . S
Li3 N53 1.990 . S
Li3 O61 1.961 . S
Li3 O62 1.970 . S
Li3 O63 1.956 . S
C4 C6 1.348 . S
C4 C7 1.356 . S
C4 O60 1.325 . S
N5 C8 1.314 . S
N5 C9 1.279 . S
C6 C4 1.348 . S
C6 C8 1.353 . S
C6 H64 0.929 . S
C7 C4 1.356 . S
C7 C9 1.358 . S
C7 H65 0.930 . S
C8 N5 1.314 . S
C8 C6 1.353 . S
C8 H66 0.930 . S
C9 N5 1.279 . S
C9 C7 1.358 . S
C9 H67 0.930 . S
C10 C13 1.348 . S
C10 C14 1.356 . S
C10 O61 1.325 . S
C11 N12 1.279 . S
C11 C14 1.358 . S
C11 H68 0.930 . S
N12 C11 1.279 . S
N12 C15 1.314 . S
C13 C10 1.348 . S
C13 C15 1.353 . S
C13 H69 0.929 . S
C14 C10 1.356 . S
C14 C11 1.358 . S
C14 H70 0.930 . S
C15 N12 1.314 . S
C15 C13 1.353 . S
C15 H71 0.930 . S
C16 N17 1.314 . S
C16 C21 1.353 . S
C16 H22 0.930 . S
N17 Li0 1.990 . S
N17 C16 1.314 . S
N17 C19 1.279 . S
C18 C19 1.358 . S
C18 C20 1.356 . S
C18 H72 0.930 . S
C19 N17 1.279 . S
C19 C18 1.358 . S
C19 H23 0.930 . S
C20 C18 1.356 . S
C20 C21 1.348 . S
C21 C16 1.353 . S
C21 C20 1.348 . S
C21 H73 0.929 . S
H22 C16 0.930 . S
H23 C19 0.930 . S
C24 N25 1.314 . S
C24 C26 1.353 . S
C24 H30 0.930 . S
N25 Li1 1.990 . S
N25 C24 1.314 . S
N25 C28 1.279 . S
C26 C24 1.353 . S
C26 C29 1.348 . S
C26 H74 0.929 . S
C27 C28 1.358 . S
C27 C29 1.356 . S
C27 H75 0.930 . S
C28 N25 1.279 . S
C28 C27 1.358 . S
C28 H31 0.930 . S
C29 C26 1.348 . S
C29 C27 1.356 . S
H30 C24 0.930 . S
H31 C28 0.930 . S
C32 C34 1.348 . S
C32 C35 1.356 . S
C32 O62 1.325 . S
N33 C36 1.314 . S
N33 C37 1.279 . S
C34 C32 1.348 . S
C34 C36 1.353 . S
C34 H76 0.929 . S
C35 C32 1.356 . S
C35 C37 1.358 . S
C35 H77 0.930 . S
C36 N33 1.314 . S
C36 C34 1.353 . S
C36 H78 0.930 . S
C37 N33 1.279 . S
C37 C35 1.358 . S
C37 H79 0.930 . S
C38 C39 1.348 . S
C38 C40 1.356 . S
C38 O63 1.325 . S
C39 C38 1.348 . S
C39 C41 1.353 . S
C39 H80 0.929 . S
C40 C38 1.356 . S
C40 C42 1.358 . S
C40 H81 0.930 . S
C41 C39 1.353 . S
C41 N43 1.314 . S
C41 H82 0.930 . S
C42 C40 1.358 . S
C42 N43 1.279 . S
C42 H83 0.930 . S
N43 C41 1.314 . S
N43 C42 1.279 . S
C44 C46 1.353 . S
C44 N47 1.314 . S
C44 H50 0.930 . S
C45 N47 1.279 . S
C45 C48 1.358 . S
C45 H51 0.930 . S
C46 C44 1.353 . S
C46 C49 1.348 . S
C46 H84 0.929 . S
N47 Li2 1.990 . S
N47 C44 1.314 . S
N47 C45 1.279 . S
C48 C45 1.358 . S
C48 C49 1.356 . S
C48 H85 0.930 . S
C49 C46 1.348 . S
C49 C48 1.356 . S
H50 C44 0.930 . S
H51 C45 0.930 . S
C52 N53 1.314 . S
C52 C54 1.353 . S
C52 H58 0.930 . S
N53 Li3 1.990 . S
N53 C52 1.314 . S
N53 C56 1.279 . S
C54 C52 1.353 . S
C54 C57 1.348 . S
C54 H86 0.929 . S
C55 C56 1.358 . S
C55 C57 1.356 . S
C55 H87 0.930 . S
C56 N53 1.279 . S
C56 C55 1.358 . S
C56 H59 0.930 . S
C57 C54 1.348 . S
C57 C55 1.356 . S
H58 C52 0.930 . S
H59 C56 0.930 . S
O60 Li0 1.956 . S
O60 Li1 1.970 . S
O60 Li2 1.961 . S
O60 C4 1.325 . S
O61 Li0 1.970 . S
O61 Li1 1.956 . S
O61 Li3 1.961 . S
O61 C10 1.325 . S
O62 Li0 1.961 . S
O62 Li2 1.956 . S
O62 Li3 1.970 . S
O62 C32 1.325 . S
O63 Li1 1.961 . S
O63 Li2 1.970 . S
O63 Li3 1.956 . S
O63 C38 1.325 . S
H64 C6 0.929 . S
H65 C7 0.930 . S
H66 C8 0.930 . S
H67 C9 0.930 . S
H68 C11 0.930 . S
H69 C13 0.929 . S
H70 C14 0.930 . S
H71 C15 0.930 . S
H72 C18 0.930 . S
H73 C21 0.929 . S
H74 C26 0.929 . S
H75 C27 0.930 . S
H76 C34 0.929 . S
H77 C35 0.930 . S
H78 C36 0.930 . S
H79 C37 0.930 . S
H80 C39 0.929 . S
H81 C40 0.930 . S
H82 C41 0.930 . S
H83 C42 0.930 . S
H84 C46 0.929 . S
H85 C48 0.930 . S
H86 C54 0.929 . S
H87 C55 0.930 . S
Li88 N105 1.990 . S
Li88 O148 1.956 . S
Li88 O149 1.970 . S
Li88 O150 1.961 . S
Li89 N113 1.990 . S
Li89 O148 1.970 . S
Li89 O149 1.956 . S
Li89 O151 1.961 . S
Li90 N135 1.990 . S
Li90 O148 1.961 . S
Li90 O150 1.956 . S
Li90 O151 1.970 . S
Li91 N141 1.990 . S
Li91 O149 1.961 . S
Li91 O150 1.970 . S
Li91 O151 1.956 . S
C92 C94 1.348 . S
C92 C95 1.356 . S
C92 O148 1.325 . S
N93 C96 1.314 . S
N93 C97 1.279 . S
C94 C92 1.348 . S
C94 C96 1.353 . S
C94 H152 0.929 . S
C95 C92 1.356 . S
C95 C97 1.358 . S
C95 H153 0.930 . S
C96 N93 1.314 . S
C96 C94 1.353 . S
C96 H154 0.930 . S
C97 N93 1.279 . S
C97 C95 1.358 . S
C97 H155 0.930 . S
C98 C101 1.348 . S
C98 C102 1.356 . S
C98 O149 1.325 . S
C99 N100 1.279 . S
C99 C102 1.358 . S
C99 H156 0.930 . S
N100 C99 1.279 . S
N100 C103 1.314 . S
C101 C98 1.348 . S
C101 C103 1.353 . S
C101 H157 0.929 . S
C102 C98 1.356 . S
C102 C99 1.358 . S
C102 H158 0.930 . S
C103 N100 1.314 . S
C103 C101 1.353 . S
C103 H159 0.930 . S
C104 N105 1.314 . S
C104 C109 1.353 . S
C104 H110 0.930 . S
N105 Li88 1.990 . S
N105 C104 1.314 . S
N105 C107 1.279 . S
C106 C107 1.358 . S
C106 C108 1.356 . S
C106 H160 0.930 . S
C107 N105 1.279 . S
C107 C106 1.358 . S
C107 H111 0.930 . S
C108 C106 1.356 . S
C108 C109 1.348 . S
C109 C104 1.353 . S
C109 C108 1.348 . S
C109 H161 0.929 . S
H110 C104 0.930 . S
H111 C107 0.930 . S
C112 N113 1.314 . S
C112 C114 1.353 . S
C112 H118 0.930 . S
N113 Li89 1.990 . S
N113 C112 1.314 . S
N113 C116 1.279 . S
C114 C112 1.353 . S
C114 C117 1.348 . S
C114 H162 0.929 . S
C115 C116 1.358 . S
C115 C117 1.356 . S
C115 H163 0.930 . S
C116 N113 1.279 . S
C116 C115 1.358 . S
C116 H119 0.930 . S
C117 C114 1.348 . S
C117 C115 1.356 . S
H118 C112 0.930 . S
H119 C116 0.930 . S
C120 C122 1.348 . S
C120 C123 1.356 . S
C120 O150 1.325 . S
N121 C124 1.314 . S
N121 C125 1.279 . S
C122 C120 1.348 . S
C122 C124 1.353 . S
C122 H164 0.929 . S
C123 C120 1.356 . S
C123 C125 1.358 . S
C123 H165 0.930 . S
C124 N121 1.314 . S
C124 C122 1.353 . S
C124 H166 0.930 . S
C125 N121 1.279 . S
C125 C123 1.358 . S
C125 H167 0.930 . S
C126 C127 1.348 . S
C126 C128 1.356 . S
C126 O151 1.325 . S
C127 C126 1.348 . S
C127 C129 1.353 . S
C127 H168 0.929 . S
C128 C126 1.356 . S
C128 C130 1.358 . S
C128 H169 0.930 . S
C129 C127 1.353 . S
C129 N131 1.314 . S
C129 H170 0.930 . S
C130 C128 1.358 . S
C130 N131 1.279 . S
C130 H171 0.930 . S
N131 C129 1.314 . S
N131 C130 1.279 . S
C132 C134 1.353 . S
C132 N135 1.314 . S
C132 H138 0.930 . S
C133 N135 1.279 . S
C133 C136 1.358 . S
C133 H139 0.930 . S
C134 C132 1.353 . S
C134 C137 1.348 . S
C134 H172 0.929 . S
N135 Li90 1.990 . S
N135 C132 1.314 . S
N135 C133 1.279 . S
C136 C133 1.358 . S
C136 C137 1.356 . S
C136 H173 0.930 . S
C137 C134 1.348 . S
C137 C136 1.356 . S
H138 C132 0.930 . S
H139 C133 0.930 . S
C140 N141 1.314 . S
C140 C142 1.353 . S
C140 H146 0.930 . S
N141 Li91 1.990 . S
N141 C140 1.314 . S
N141 C144 1.279 . S
C142 C140 1.353 . S
C142 C145 1.348 . S
C142 H174 0.929 . S
C143 C144 1.358 . S
C143 C145 1.356 . S
C143 H175 0.930 . S
C144 N141 1.279 . S
C144 C143 1.358 . S
C144 H147 0.930 . S
C145 C142 1.348 . S
C145 C143 1.356 . S
H146 C140 0.930 . S
H147 C144 0.930 . S
O148 Li88 1.956 . S
O148 Li89 1.970 . S
O148 Li90 1.961 . S
O148 C92 1.325 . S
O149 Li88 1.970 . S
O149 Li89 1.956 . S
O149 Li91 1.961 . S
O149 C98 1.325 . S
O150 Li88 1.961 . S
O150 Li90 1.956 . S
O150 Li91 1.970 . S
O150 C120 1.325 . S
O151 Li89 1.961 . S
O151 Li90 1.970 . S
O151 Li91 1.956 . S
O151 C126 1.325 . S
H152 C94 0.929 . S
H153 C95 0.930 . S
H154 C96 0.930 . S
H155 C97 0.930 . S
H156 C99 0.930 . S
H157 C101 0.929 . S
H158 C102 0.930 . S
H159 C103 0.930 . S
H160 C106 0.930 . S
H161 C109 0.929 . S
H162 C114 0.929 . S
H163 C115 0.930 . S
H164 C122 0.929 . S
H165 C123 0.930 . S
H166 C124 0.930 . S
H167 C125 0.930 . S
H168 C127 0.929 . S
H169 C128 0.930 . S
H170 C129 0.930 . S
H171 C130 0.930 . S
H172 C134 0.929 . S
H173 C136 0.930 . S
H174 C142 0.929 . S
H175 C143 0.930 . S
Li176 N193 1.990 . S
Li176 O236 1.956 . S
Li176 O237 1.970 . S
Li176 O238 1.961 . S
Li177 N201 1.990 . S
Li177 O236 1.970 . S
Li177 O237 1.956 . S
Li177 O239 1.961 . S
Li178 N223 1.990 . S
Li178 O236 1.961 . S
Li178 O238 1.956 . S
Li178 O239 1.970 . S
Li179 N229 1.990 . S
Li179 O237 1.961 . S
Li179 O238 1.970 . S
Li179 O239 1.956 . S
C180 C182 1.348 . S
C180 C183 1.356 . S
C180 O236 1.325 . S
N181 C184 1.314 . S
N181 C185 1.279 . S
C182 C180 1.348 . S
C182 C184 1.353 . S
C182 H240 0.929 . S
C183 C180 1.356 . S
C183 C185 1.358 . S
C183 H241 0.930 . S
C184 N181 1.314 . S
C184 C182 1.353 . S
C184 H242 0.930 . S
C185 N181 1.279 . S
C185 C183 1.358 . S
C185 H243 0.930 . S
C186 C189 1.348 . S
C186 C190 1.356 . S
C186 O237 1.325 . S
C187 N188 1.279 . S
C187 C190 1.358 . S
C187 H244 0.930 . S
N188 C187 1.279 . S
N188 C191 1.314 . S
C189 C186 1.348 . S
C189 C191 1.353 . S
C189 H245 0.929 . S
C190 C186 1.356 . S
C190 C187 1.358 . S
C190 H246 0.930 . S
C191 N188 1.314 . S
C191 C189 1.353 . S
C191 H247 0.930 . S
C192 N193 1.314 . S
C192 C197 1.353 . S
C192 H198 0.930 . S
N193 Li176 1.990 . S
N193 C192 1.314 . S
N193 C195 1.279 . S
C194 C195 1.358 . S
C194 C196 1.356 . S
C194 H248 0.930 . S
C195 N193 1.279 . S
C195 C194 1.358 . S
C195 H199 0.930 . S
C196 C194 1.356 . S
C196 C197 1.348 . S
C197 C192 1.353 . S
C197 C196 1.348 . S
C197 H249 0.929 . S
H198 C192 0.930 . S
H199 C195 0.930 . S
C200 N201 1.314 . S
C200 C202 1.353 . S
C200 H206 0.930 . S
N201 Li177 1.990 . S
N201 C200 1.314 . S
N201 C204 1.279 . S
C202 C200 1.353 . S
C202 C205 1.348 . S
C202 H250 0.929 . S
C203 C204 1.358 . S
C203 C205 1.356 . S
C203 H251 0.930 . S
C204 N201 1.279 . S
C204 C203 1.358 . S
C204 H207 0.930 . S
C205 C202 1.348 . S
C205 C203 1.356 . S
H206 C200 0.930 . S
H207 C204 0.930 . S
C208 C210 1.348 . S
C208 C211 1.356 . S
C208 O238 1.325 . S
N209 C212 1.314 . S
N209 C213 1.279 . S
C210 C208 1.348 . S
C210 C212 1.353 . S
C210 H252 0.929 . S
C211 C208 1.356 . S
C211 C213 1.358 . S
C211 H253 0.930 . S
C212 N209 1.314 . S
C212 C210 1.353 . S
C212 H254 0.930 . S
C213 N209 1.279 . S
C213 C211 1.358 . S
C213 H255 0.930 . S
C214 C215 1.348 . S
C214 C216 1.356 . S
C214 O239 1.325 . S
C215 C214 1.348 . S
C215 C217 1.353 . S
C215 H256 0.929 . S
C216 C214 1.356 . S
C216 C218 1.358 . S
C216 H257 0.930 . S
C217 C215 1.353 . S
C217 N219 1.314 . S
C217 H258 0.930 . S
C218 C216 1.358 . S
C218 N219 1.279 . S
C218 H259 0.930 . S
N219 C217 1.314 . S
N219 C218 1.279 . S
C220 C222 1.353 . S
C220 N223 1.314 . S
C220 H226 0.930 . S
C221 N223 1.279 . S
C221 C224 1.358 . S
C221 H227 0.930 . S
C222 C220 1.353 . S
C222 C225 1.348 . S
C222 H260 0.929 . S
N223 Li178 1.990 . S
N223 C220 1.314 . S
N223 C221 1.279 . S
C224 C221 1.358 . S
C224 C225 1.356 . S
C224 H261 0.930 . S
C225 C222 1.348 . S
C225 C224 1.356 . S
H226 C220 0.930 . S
H227 C221 0.930 . S
C228 N229 1.314 . S
C228 C230 1.353 . S
C228 H234 0.930 . S
N229 Li179 1.990 . S
N229 C228 1.314 . S
N229 C232 1.279 . S
C230 C228 1.353 . S
C230 C233 1.348 . S
C230 H262 0.929 . S
C231 C232 1.358 . S
C231 C233 1.356 . S
C231 H263 0.930 . S
C232 N229 1.279 . S
C232 C231 1.358 . S
C232 H235 0.930 . S
C233 C230 1.348 . S
C233 C231 1.356 . S
H234 C228 0.930 . S
H235 C232 0.930 . S
O236 Li176 1.956 . S
O236 Li177 1.970 . S
O236 Li178 1.961 . S
O236 C180 1.325 . S
O237 Li176 1.970 . S
O237 Li177 1.956 . S
O237 Li179 1.961 . S
O237 C186 1.325 . S
O238 Li176 1.961 . S
O238 Li178 1.956 . S
O238 Li179 1.970 . S
O238 C208 1.325 . S
O239 Li177 1.961 . S
O239 Li178 1.970 . S
O239 Li179 1.956 . S
O239 C214 1.325 . S
H240 C182 0.929 . S
H241 C183 0.930 . S
H242 C184 0.930 . S
H243 C185 0.930 . S
H244 C187 0.930 . S
H245 C189 0.929 . S
H246 C190 0.930 . S
H247 C191 0.930 . S
H248 C194 0.930 . S
H249 C197 0.929 . S
H250 C202 0.929 . S
H251 C203 0.930 . S
H252 C210 0.929 . S
H253 C211 0.930 . S
H254 C212 0.930 . S
H255 C213 0.930 . S
H256 C215 0.929 . S
H257 C216 0.930 . S
H258 C217 0.930 . S
H259 C218 0.930 . S
H260 C222 0.929 . S
H261 C224 0.930 . S
H262 C230 0.929 . S
H263 C231 0.930 . S
Li264 N281 1.990 . S
Li264 O324 1.956 . S
Li264 O325 1.970 . S
Li264 O326 1.964 . S
Li265 N289 1.990 . S
Li265 O324 1.970 . S
Li265 O325 1.956 . S
Li265 O327 1.961 . S
Li266 N311 1.990 . S
Li266 O324 1.961 . S
Li266 O326 1.960 . S
Li266 O327 1.970 . S
Li267 N317 1.981 1_554 S
Li267 O325 1.967 . S
Li267 O326 1.970 . S
Li267 O327 1.965 . S
C268 C270 1.348 . S
C268 C271 1.356 . S
C268 O324 1.325 . S
N269 C272 1.314 . S
N269 C273 1.279 . S
C270 C268 1.348 . S
C270 C272 1.353 . S
C270 H328 0.929 . S
C271 C268 1.356 . S
C271 C273 1.358 . S
C271 H329 0.930 . S
C272 N269 1.314 . S
C272 C270 1.353 . S
C272 H330 0.930 . S
C273 N269 1.279 . S
C273 C271 1.358 . S
C273 H331 0.930 . S
C274 C277 1.348 . S
C274 C278 1.356 . S
C274 O325 1.325 . S
C275 N276 1.279 . S
C275 C278 1.358 . S
C275 H332 0.930 . S
N276 C275 1.279 . S
N276 C279 1.314 . S
C277 C274 1.348 . S
C277 C279 1.353 . S
C277 H333 0.929 . S
C278 C274 1.356 . S
C278 C275 1.358 . S
C278 H334 0.930 . S
C279 N276 1.314 . S
C279 C277 1.353 . S
C279 H335 0.930 . S
C280 N281 1.314 . S
C280 C285 1.354 . S
C280 H286 0.930 1_554 S
N281 Li264 1.990 . S
N281 C280 1.314 . S
N281 C283 1.279 . S
C282 C283 1.358 . S
C282 C284 1.356 . S
C282 H336 0.930 . S
C283 N281 1.279 . S
C283 C282 1.358 . S
C283 H287 0.930 . S
C284 C282 1.356 . S
C284 C285 1.351 . S
C285 C280 1.354 . S
C285 C284 1.351 . S
C285 H337 0.925 1_554 S
H286 C280 0.930 1_556 S
H287 C283 0.930 . S
C288 N289 1.314 . S
C288 C290 1.353 . S
C288 H294 0.930 . S
N289 Li265 1.990 . S
N289 C288 1.314 . S
N289 C292 1.279 . S
C290 C288 1.353 . S
C290 C293 1.348 . S
C290 H338 0.929 . S
C291 C292 1.358 . S
C291 C293 1.356 . S
C291 H339 0.930 . S
C292 N289 1.279 . S
C292 C291 1.358 . S
C292 H295 0.930 . S
C293 C290 1.348 . S
C293 C291 1.356 . S
H294 C288 0.930 . S
H295 C292 0.930 . S
C296 C298 1.348 . S
C296 C299 1.356 . S
C296 O326 1.321 1_556 S
N297 C300 1.314 . S
N297 C301 1.279 . S
C298 C296 1.348 . S
C298 C300 1.353 . S
C298 H340 0.929 . S
C299 C296 1.356 . S
C299 C301 1.358 . S
C299 H341 0.927 . S
C300 N297 1.314 . S
C300 C298 1.353 . S
C300 H342 0.930 . S
C301 N297 1.279 . S
C301 C299 1.358 . S
C301 H343 0.930 . S
C302 C303 1.348 . S
C302 C304 1.356 . S
C302 O327 1.325 . S
C303 C302 1.348 . S
C303 C305 1.353 . S
C303 H344 0.929 . S
C304 C302 1.356 . S
C304 C306 1.358 . S
C304 H345 0.930 . S
C305 C303 1.353 . S
C305 N307 1.314 . S
C305 H346 0.930 . S
C306 C304 1.358 . S
C306 N307 1.279 . S
C306 H347 0.930 . S
N307 C305 1.314 . S
N307 C306 1.279 . S
C308 C310 1.353 . S
C308 N311 1.314 . S
C308 H314 0.930 . S
C309 N311 1.279 . S
C309 C312 1.358 . S
C309 H315 0.930 . S
C310 C308 1.353 . S
C310 C313 1.348 . S
C310 H348 0.929 . S
N311 Li266 1.990 . S
N311 C308 1.314 . S
N311 C309 1.279 . S
C312 C309 1.358 . S
C312 C313 1.356 . S
C312 H349 0.930 . S
C313 C310 1.348 . S
C313 C312 1.356 . S
H314 C308 0.930 . S
H315 C309 0.930 . S
C316 N317 1.314 . S
C316 C318 1.353 . S
C316 H322 0.930 . S
N317 Li267 1.981 1_556 S
N317 C316 1.314 . S
N317 C320 1.279 . S
C318 C316 1.353 . S
C318 C321 1.348 . S
C318 H350 0.929 . S
C319 C320 1.358 . S
C319 C321 1.356 . S
C319 H351 0.930 . S
C320 N317 1.279 . S
C320 C319 1.358 . S
C320 H323 0.930 . S
C321 C318 1.348 . S
C321 C319 1.356 . S
H322 C316 0.930 . S
H323 C320 0.930 . S
O324 Li264 1.956 . S
O324 Li265 1.970 . S
O324 Li266 1.961 . S
O324 C268 1.325 . S
O325 Li264 1.970 . S
O325 Li265 1.956 . S
O325 Li267 1.967 . S
O325 C274 1.325 . S
O326 Li264 1.964 . S
O326 Li266 1.960 . S
O326 Li267 1.970 . S
O326 C296 1.321 1_554 S
O327 Li265 1.961 . S
O327 Li266 1.970 . S
O327 Li267 1.965 . S
O327 C302 1.325 . S
H328 C270 0.929 . S
H329 C271 0.930 . S
H330 C272 0.930 . S
H331 C273 0.930 . S
H332 C275 0.930 . S
H333 C277 0.929 . S
H334 C278 0.930 . S
H335 C279 0.930 . S
H336 C282 0.930 . S
H337 C285 0.925 1_556 S
H338 C290 0.929 . S
H339 C291 0.930 . S
H340 C298 0.929 . S
H341 C299 0.927 . S
H342 C300 0.930 . S
H343 C301 0.930 . S
H344 C303 0.929 . S
H345 C304 0.930 . S
H346 C305 0.930 . S
H347 C306 0.930 . S
H348 C310 0.929 . S
H349 C312 0.930 . S
H350 C318 0.929 . S
H351 C319 0.930 . S
Li352 N369 1.990 . S
Li352 O412 1.956 . S
Li352 O413 1.970 . S
Li352 O414 1.961 . S
Li353 N377 1.990 . S
Li353 O412 1.970 . S
Li353 O413 1.956 . S
Li353 O415 1.961 . S
Li354 N399 1.990 . S
Li354 O412 1.961 . S
Li354 O414 1.956 . S
Li354 O415 1.970 . S
Li355 N405 1.990 . S
Li355 O413 1.961 . S
Li355 O414 1.970 . S
Li355 O415 1.956 . S
C356 C358 1.348 . S
C356 C359 1.356 . S
C356 O412 1.325 . S
N357 C360 1.314 . S
N357 C361 1.279 . S
C358 C356 1.348 . S
C358 C360 1.353 . S
C358 H416 0.929 . S
C359 C356 1.356 . S
C359 C361 1.358 . S
C359 H417 0.930 . S
C360 N357 1.314 . S
C360 C358 1.353 . S
C360 H418 0.930 . S
C361 N357 1.279 . S
C361 C359 1.358 . S
C361 H419 0.930 . S
C362 C365 1.348 . S
C362 C366 1.356 . S
C362 O413 1.325 . S
C363 N364 1.279 . S
C363 C366 1.358 . S
C363 H420 0.930 . S
N364 C363 1.279 . S
N364 C367 1.314 . S
C365 C362 1.348 . S
C365 C367 1.353 . S
C365 H421 0.929 . S
C366 C362 1.356 . S
C366 C363 1.358 . S
C366 H422 0.930 . S
C367 N364 1.314 . S
C367 C365 1.353 . S
C367 H423 0.930 . S
C368 N369 1.314 . S
C368 C373 1.353 . S
C368 H374 0.930 . S
N369 Li352 1.990 . S
N369 C368 1.314 . S
N369 C371 1.279 . S
C370 C371 1.358 . S
C370 C372 1.356 . S
C370 H424 0.930 . S
C371 N369 1.279 . S
C371 C370 1.358 . S
C371 H375 0.930 . S
C372 C370 1.356 . S
C372 C373 1.348 . S
C373 C368 1.353 . S
C373 C372 1.348 . S
C373 H425 0.929 . S
H374 C368 0.930 . S
H375 C371 0.930 . S
C376 N377 1.314 . S
C376 C378 1.353 . S
C376 H382 0.930 . S
N377 Li353 1.990 . S
N377 C376 1.314 . S
N377 C380 1.279 . S
C378 C376 1.353 . S
C378 C381 1.348 . S
C378 H426 0.929 . S
C379 C380 1.358 . S
C379 C381 1.356 . S
C379 H427 0.930 . S
C380 N377 1.279 . S
C380 C379 1.358 . S
C380 H383 0.930 . S
C381 C378 1.348 . S
C381 C379 1.356 . S
H382 C376 0.930 . S
H383 C380 0.930 . S
C384 C386 1.348 . S
C384 C387 1.356 . S
C384 O414 1.325 . S
N385 C388 1.314 . S
N385 C389 1.279 . S
C386 C384 1.348 . S
C386 C388 1.353 . S
C386 H428 0.929 . S
C387 C384 1.356 . S
C387 C389 1.358 . S
C387 H429 0.930 . S
C388 N385 1.314 . S
C388 C386 1.353 . S
C388 H430 0.930 . S
C389 N385 1.279 . S
C389 C387 1.358 . S
C389 H431 0.930 . S
C390 C391 1.348 . S
C390 C392 1.356 . S
C390 O415 1.325 . S
C391 C390 1.348 . S
C391 C393 1.353 . S
C391 H432 0.929 . S
C392 C390 1.356 . S
C392 C394 1.358 . S
C392 H433 0.930 . S
C393 C391 1.353 . S
C393 N395 1.314 . S
C393 H434 0.930 . S
C394 C392 1.358 . S
C394 N395 1.279 . S
C394 H435 0.930 . S
N395 C393 1.314 . S
N395 C394 1.279 . S
C396 C398 1.353 . S
C396 N399 1.314 . S
C396 H402 0.930 . S
C397 N399 1.279 . S
C397 C400 1.358 . S
C397 H403 0.930 . S
C398 C396 1.353 . S
C398 C401 1.348 . S
C398 H436 0.929 . S
N399 Li354 1.990 . S
N399 C396 1.314 . S
N399 C397 1.279 . S
C400 C397 1.358 . S
C400 C401 1.356 . S
C400 H437 0.930 . S
C401 C398 1.348 . S
C401 C400 1.356 . S
H402 C396 0.930 . S
H403 C397 0.930 . S
C404 N405 1.314 . S
C404 C406 1.353 . S
C404 H410 0.930 . S
N405 Li355 1.990 . S
N405 C404 1.314 . S
N405 C408 1.279 . S
C406 C404 1.353 . S
C406 C409 1.348 . S
C406 H438 0.929 . S
C407 C408 1.358 . S
C407 C409 1.356 . S
C407 H439 0.930 . S
C408 N405 1.279 . S
C408 C407 1.358 . S
C408 H411 0.930 . S
C409 C406 1.348 . S
C409 C407 1.356 . S
H410 C404 0.930 . S
H411 C408 0.930 . S
O412 Li352 1.956 . S
O412 Li353 1.970 . S
O412 Li354 1.961 . S
O412 C356 1.325 . S
O413 Li352 1.970 . S
O413 Li353 1.956 . S
O413 Li355 1.961 . S
O413 C362 1.325 . S
O414 Li352 1.961 . S
O414 Li354 1.956 . S
O414 Li355 1.970 . S
O414 C384 1.325 . S
O415 Li353 1.961 . S
O415 Li354 1.970 . S
O415 Li355 1.956 . S
O415 C390 1.325 . S
H416 C358 0.929 . S
H417 C359 0.930 . S
H418 C360 0.930 . S
H419 C361 0.930 . S
H420 C363 0.930 . S
H421 C365 0.929 . S
H422 C366 0.930 . S
H423 C367 0.930 . S
H424 C370 0.930 . S
H425 C373 0.929 . S
H426 C378 0.929 . S
H427 C379 0.930 . S
H428 C386 0.929 . S
H429 C387 0.930 . S
H430 C388 0.930 . S
H431 C389 0.930 . S
H432 C391 0.929 . S
H433 C392 0.930 . S
H434 C393 0.930 . S
H435 C394 0.930 . S
H436 C398 0.929 . S
H437 C400 0.930 . S
H438 C406 0.929 . S
H439 C407 0.930 . S
Li440 N457 1.990 . S
Li440 O500 1.956 . S
Li440 O501 1.970 . S
Li440 O502 1.961 . S
Li441 N465 1.990 . S
Li441 O500 1.970 . S
Li441 O501 1.956 . S
Li441 O503 1.961 . S
Li442 N487 1.990 . S
Li442 O500 1.961 . S
Li442 O502 1.956 . S
Li442 O503 1.970 . S
Li443 N493 1.990 . S
Li443 O501 1.961 . S
Li443 O502 1.970 . S
Li443 O503 1.956 . S
C444 C446 1.348 . S
C444 C447 1.356 . S
C444 O500 1.325 . S
N445 C448 1.314 . S
N445 C449 1.279 . S
C446 C444 1.348 . S
C446 C448 1.353 . S
C446 H504 0.929 . S
C447 C444 1.356 . S
C447 C449 1.358 . S
C447 H505 0.930 . S
C448 N445 1.314 . S
C448 C446 1.353 . S
C448 H506 0.930 . S
C449 N445 1.279 . S
C449 C447 1.358 . S
C449 H507 0.930 . S
C450 C453 1.348 . S
C450 C454 1.356 . S
C450 O501 1.325 . S
C451 N452 1.279 . S
C451 C454 1.358 . S
C451 H508 0.930 . S
N452 C451 1.279 . S
N452 C455 1.314 . S
C453 C450 1.348 . S
C453 C455 1.353 . S
C453 H509 0.929 . S
C454 C450 1.356 . S
C454 C451 1.358 . S
C454 H510 0.930 . S
C455 N452 1.314 . S
C455 C453 1.353 . S
C455 H511 0.930 . S
C456 N457 1.314 . S
C456 C461 1.353 . S
C456 H462 0.930 . S
N457 Li440 1.990 . S
N457 C456 1.314 . S
N457 C459 1.279 . S
C458 C459 1.358 . S
C458 C460 1.356 . S
C458 H512 0.930 . S
C459 N457 1.279 . S
C459 C458 1.358 . S
C459 H463 0.930 . S
C460 C458 1.356 . S
C460 C461 1.348 . S
C461 C456 1.353 . S
C461 C460 1.348 . S
C461 H513 0.929 . S
H462 C456 0.930 . S
H463 C459 0.930 . S
C464 N465 1.314 . S
C464 C466 1.353 . S
C464 H470 0.930 . S
N465 Li441 1.990 . S
N465 C464 1.314 . S
N465 C468 1.279 . S
C466 C464 1.353 . S
C466 C469 1.348 . S
C466 H514 0.929 . S
C467 C468 1.358 . S
C467 C469 1.356 . S
C467 H515 0.930 . S
C468 N465 1.279 . S
C468 C467 1.358 . S
C468 H471 0.930 . S
C469 C466 1.348 . S
C469 C467 1.356 . S
H470 C464 0.930 . S
H471 C468 0.930 . S
C472 C474 1.348 . S
C472 C475 1.356 . S
C472 O502 1.325 . S
N473 C476 1.314 . S
N473 C477 1.279 . S
C474 C472 1.348 . S
C474 C476 1.353 . S
C474 H516 0.929 . S
C475 C472 1.356 . S
C475 C477 1.358 . S
C475 H517 0.930 . S
C476 N473 1.314 . S
C476 C474 1.353 . S
C476 H518 0.930 . S
C477 N473 1.279 . S
C477 C475 1.358 . S
C477 H519 0.930 . S
C478 C479 1.348 . S
C478 C480 1.356 . S
C478 O503 1.325 . S
C479 C478 1.348 . S
C479 C481 1.353 . S
C479 H520 0.929 . S
C480 C478 1.356 . S
C480 C482 1.358 . S
C480 H521 0.930 . S
C481 C479 1.353 . S
C481 N483 1.314 . S
C481 H522 0.930 . S
C482 C480 1.358 . S
C482 N483 1.279 . S
C482 H523 0.930 . S
N483 C481 1.314 . S
N483 C482 1.279 . S
C484 C486 1.353 . S
C484 N487 1.314 . S
C484 H490 0.930 . S
C485 N487 1.279 . S
C485 C488 1.358 . S
C485 H491 0.930 . S
C486 C484 1.353 . S
C486 C489 1.348 . S
C486 H524 0.929 . S
N487 Li442 1.990 . S
N487 C484 1.314 . S
N487 C485 1.279 . S
C488 C485 1.358 . S
C488 C489 1.356 . S
C488 H525 0.930 . S
C489 C486 1.348 . S
C489 C488 1.356 . S
H490 C484 0.930 . S
H491 C485 0.930 . S
C492 N493 1.314 . S
C492 C494 1.353 . S
C492 H498 0.930 . S
N493 Li443 1.990 . S
N493 C492 1.314 . S
N493 C496 1.279 . S
C494 C492 1.353 . S
C494 C497 1.348 . S
C494 H526 0.929 . S
C495 C496 1.358 . S
C495 C497 1.356 . S
C495 H527 0.930 . S
C496 N493 1.279 . S
C496 C495 1.358 . S
C496 H499 0.930 . S
C497 C494 1.348 . S
C497 C495 1.356 . S
H498 C492 0.930 . S
H499 C496 0.930 . S
O500 Li440 1.956 . S
O500 Li441 1.970 . S
O500 Li442 1.961 . S
O500 C444 1.325 . S
O501 Li440 1.970 . S
O501 Li441 1.956 . S
O501 Li443 1.961 . S
O501 C450 1.325 . S
O502 Li440 1.961 . S
O502 Li442 1.956 . S
O502 Li443 1.970 . S
O502 C472 1.325 . S
O503 Li441 1.961 . S
O503 Li442 1.970 . S
O503 Li443 1.956 . S
O503 C478 1.325 . S
H504 C446 0.929 . S
H505 C447 0.930 . S
H506 C448 0.930 . S
H507 C449 0.930 . S
H508 C451 0.930 . S
H509 C453 0.929 . S
H510 C454 0.930 . S
H511 C455 0.930 . S
H512 C458 0.930 . S
H513 C461 0.929 . S
H514 C466 0.929 . S
H515 C467 0.930 . S
H516 C474 0.929 . S
H517 C475 0.930 . S
H518 C476 0.930 . S
H519 C477 0.930 . S
H520 C479 0.929 . S
H521 C480 0.930 . S
H522 C481 0.930 . S
H523 C482 0.930 . S
H524 C486 0.929 . S
H525 C488 0.930 . S
H526 C494 0.929 . S
H527 C495 0.930 . S
Li528 N545 1.990 . S
Li528 O588 1.956 . S
Li528 O589 1.970 . S
Li528 O590 1.961 . S
Li529 N553 1.990 . S
Li529 O588 1.970 . S
Li529 O589 1.956 . S
Li529 O591 1.961 . S
Li530 N575 1.990 . S
Li530 O588 1.961 . S
Li530 O590 1.956 . S
Li530 O591 1.970 . S
Li531 N581 1.990 . S
Li531 O589 1.961 . S
Li531 O590 1.970 . S
Li531 O591 1.956 . S
C532 C534 1.348 . S
C532 C535 1.356 . S
C532 O588 1.325 . S
N533 C536 1.314 . S
N533 C537 1.279 . S
C534 C532 1.348 . S
C534 C536 1.353 . S
C534 H592 0.929 . S
C535 C532 1.356 . S
C535 C537 1.358 . S
C535 H593 0.930 . S
C536 N533 1.314 . S
C536 C534 1.353 . S
C536 H594 0.930 . S
C537 N533 1.279 . S
C537 C535 1.358 . S
C537 H595 0.930 . S
C538 C541 1.348 . S
C538 C542 1.356 . S
C538 O589 1.325 . S
C539 N540 1.279 . S
C539 C542 1.358 . S
C539 H596 0.930 . S
N540 C539 1.279 . S
N540 C543 1.314 . S
C541 C538 1.348 . S
C541 C543 1.353 . S
C541 H597 0.929 . S
C542 C538 1.356 . S
C542 C539 1.358 . S
C542 H598 0.930 . S
C543 N540 1.314 . S
C543 C541 1.353 . S
C543 H599 0.930 . S
C544 N545 1.314 . S
C544 C549 1.353 . S
C544 H550 0.930 . S
N545 Li528 1.990 . S
N545 C544 1.314 . S
N545 C547 1.279 . S
C546 C547 1.358 . S
C546 C548 1.356 . S
C546 H600 0.930 . S
C547 N545 1.279 . S
C547 C546 1.358 . S
C547 H551 0.930 . S
C548 C546 1.356 . S
C548 C549 1.348 . S
C549 C544 1.353 . S
C549 C548 1.348 . S
C549 H601 0.929 . S
H550 C544 0.930 . S
H551 C547 0.930 . S
C552 N553 1.314 . S
C552 C554 1.353 . S
C552 H558 0.930 . S
N553 Li529 1.990 . S
N553 C552 1.314 . S
N553 C556 1.279 . S
C554 C552 1.353 . S
C554 C557 1.348 . S
C554 H602 0.929 . S
C555 C556 1.358 . S
C555 C557 1.356 . S
C555 H603 0.930 . S
C556 N553 1.279 . S
C556 C555 1.358 . S
C556 H559 0.930 . S
C557 C554 1.348 . S
C557 C555 1.356 . S
H558 C552 0.930 . S
H559 C556 0.930 . S
C560 C562 1.348 . S
C560 C563 1.356 . S
C560 O590 1.325 . S
N561 C564 1.314 . S
N561 C565 1.279 . S
C562 C560 1.348 . S
C562 C564 1.353 . S
C562 H604 0.929 . S
C563 C560 1.356 . S
C563 C565 1.358 . S
C563 H605 0.930 . S
C564 N561 1.314 . S
C564 C562 1.353 . S
C564 H606 0.930 . S
C565 N561 1.279 . S
C565 C563 1.358 . S
C565 H607 0.930 . S
C566 C567 1.348 . S
C566 C568 1.356 . S
C566 O591 1.325 . S
C567 C566 1.348 . S
C567 C569 1.353 . S
C567 H608 0.929 . S
C568 C566 1.356 . S
C568 C570 1.358 . S
C568 H609 0.930 . S
C569 C567 1.353 . S
C569 N571 1.314 . S
C569 H610 0.930 . S
C570 C568 1.358 . S
C570 N571 1.279 . S
C570 H611 0.930 . S
N571 C569 1.314 . S
N571 C570 1.279 . S
C572 C574 1.353 . S
C572 N575 1.314 . S
C572 H578 0.930 . S
C573 N575 1.279 . S
C573 C576 1.358 . S
C573 H579 0.930 . S
C574 C572 1.353 . S
C574 C577 1.348 . S
C574 H612 0.929 . S
N575 Li530 1.990 . S
N575 C572 1.314 . S
N575 C573 1.279 . S
C576 C573 1.358 . S
C576 C577 1.356 . S
C576 H613 0.930 . S
C577 C574 1.348 . S
C577 C576 1.356 . S
H578 C572 0.930 . S
H579 C573 0.930 . S
C580 N581 1.314 . S
C580 C582 1.353 . S
C580 H586 0.930 . S
N581 Li531 1.990 . S
N581 C580 1.314 . S
N581 C584 1.279 . S
C582 C580 1.353 . S
C582 C585 1.348 . S
C582 H614 0.929 . S
C583 C584 1.358 . S
C583 C585 1.356 . S
C583 H615 0.930 . S
C584 N581 1.279 . S
C584 C583 1.358 . S
C584 H587 0.930 . S
C585 C582 1.348 . S
C585 C583 1.356 . S
H586 C580 0.930 . S
H587 C584 0.930 . S
O588 Li528 1.956 . S
O588 Li529 1.970 . S
O588 Li530 1.961 . S
O588 C532 1.325 . S
O589 Li528 1.970 . S
O589 Li529 1.956 . S
O589 Li531 1.961 . S
O589 C538 1.325 . S
O590 Li528 1.961 . S
O590 Li530 1.956 . S
O590 Li531 1.970 . S
O590 C560 1.325 . S
O591 Li529 1.961 . S
O591 Li530 1.970 . S
O591 Li531 1.956 . S
O591 C566 1.325 . S
H592 C534 0.929 . S
H593 C535 0.930 . S
H594 C536 0.930 . S
H595 C537 0.930 . S
H596 C539 0.930 . S
H597 C541 0.929 . S
H598 C542 0.930 . S
H599 C543 0.930 . S
H600 C546 0.930 . S
H601 C549 0.929 . S
H602 C554 0.929 . S
H603 C555 0.930 . S
H604 C562 0.929 . S
H605 C563 0.930 . S
H606 C564 0.930 . S
H607 C565 0.930 . S
H608 C567 0.929 . S
H609 C568 0.930 . S
H610 C569 0.930 . S
H611 C570 0.930 . S
H612 C574 0.929 . S
H613 C576 0.930 . S
H614 C582 0.929 . S
H615 C583 0.930 . S
Li616 N633 1.990 . S
Li616 O676 1.956 . S
Li616 O677 1.970 . S
Li616 O678 1.961 1_554 S
Li617 N641 1.990 . S
Li617 O676 1.970 . S
Li617 O677 1.956 . S
Li617 O679 1.961 . S
Li618 N663 1.990 . S
Li618 O676 1.961 . S
Li618 O678 1.956 1_554 S
Li618 O679 1.970 . S
Li619 N669 1.990 . S
Li619 O677 1.961 1_556 S
Li619 O678 1.970 . S
Li619 O679 1.956 1_556 S
C620 C622 1.348 . S
C620 C623 1.356 . S
C620 O676 1.325 . S
N621 C624 1.314 . S
N621 C625 1.279 . S
C622 C620 1.348 . S
C622 C624 1.353 . S
C622 H680 0.929 . S
C623 C620 1.356 . S
C623 C625 1.358 . S
C623 H681 0.930 . S
C624 N621 1.314 . S
C624 C622 1.353 . S
C624 H682 0.930 . S
C625 N621 1.279 . S
C625 C623 1.358 . S
C625 H683 0.930 . S
C626 C629 1.348 . S
C626 C630 1.356 . S
C626 O677 1.325 . S
C627 N628 1.279 . S
C627 C630 1.358 . S
C627 H684 0.930 . S
N628 C627 1.279 . S
N628 C631 1.314 . S
C629 C626 1.348 . S
C629 C631 1.353 . S
C629 H685 0.929 . S
C630 C626 1.356 . S
C630 C627 1.358 . S
C630 H686 0.930 . S
C631 N628 1.314 . S
C631 C629 1.353 . S
C631 H687 0.930 . S
C632 N633 1.314 1_556 S
C632 C637 1.353 . S
C632 H638 0.930 . S
N633 Li616 1.990 . S
N633 C632 1.314 1_554 S
N633 C635 1.279 . S
C634 C635 1.358 . S
C634 C636 1.356 1_554 S
C634 H688 0.930 . S
C635 N633 1.279 . S
C635 C634 1.358 . S
C635 H639 0.930 . S
C636 C634 1.356 1_556 S
C636 C637 1.348 . S
C637 C632 1.353 . S
C637 C636 1.348 . S
C637 H689 0.929 . S
H638 C632 0.930 . S
H639 C635 0.930 . S
C640 N641 1.314 . S
C640 C642 1.353 . S
C640 H646 0.930 . S
N641 Li617 1.990 . S
N641 C640 1.314 . S
N641 C644 1.279 . S
C642 C640 1.353 . S
C642 C645 1.348 . S
C642 H690 0.929 . S
C643 C644 1.358 . S
C643 C645 1.356 . S
C643 H691 0.930 . S
C644 N641 1.279 . S
C644 C643 1.358 . S
C644 H647 0.930 . S
C645 C642 1.348 . S
C645 C643 1.356 . S
H646 C640 0.930 . S
H647 C644 0.930 . S
C648 C650 1.348 . S
C648 C651 1.356 . S
C648 O678 1.325 . S
N649 C652 1.314 . S
N649 C653 1.279 . S
C650 C648 1.348 . S
C650 C652 1.353 . S
C650 H692 0.929 . S
C651 C648 1.356 . S
C651 C653 1.358 . S
C651 H693 0.930 . S
C652 N649 1.314 . S
C652 C650 1.353 . S
C652 H694 0.930 . S
C653 N649 1.279 . S
C653 C651 1.358 . S
C653 H695 0.930 . S
C654 C655 1.348 . S
C654 C656 1.356 . S
C654 O679 1.325 . S
C655 C654 1.348 . S
C655 C657 1.353 . S
C655 H696 0.929 . S
C656 C654 1.356 . S
C656 C658 1.358 . S
C656 H697 0.930 . S
C657 C655 1.353 . S
C657 N659 1.314 . S
C657 H698 0.930 . S
C658 C656 1.358 . S
C658 N659 1.279 . S
C658 H699 0.930 . S
N659 C657 1.314 . S
N659 C658 1.279 . S
C660 C662 1.353 . S
C660 N663 1.314 . S
C660 H666 0.930 . S
C661 N663 1.279 1_556 S
C661 C664 1.358 . S
C661 H667 0.930 . S
C662 C660 1.353 . S
C662 C665 1.348 . S
C662 H700 0.929 . S
N663 Li618 1.990 . S
N663 C660 1.314 . S
N663 C661 1.279 1_554 S
C664 C661 1.358 . S
C664 C665 1.356 1_556 S
C664 H701 0.930 . S
C665 C662 1.348 . S
C665 C664 1.356 1_554 S
H666 C660 0.930 . S
H667 C661 0.930 . S
C668 N669 1.314 . S
C668 C670 1.353 . S
C668 H674 0.930 . S
N669 Li619 1.990 . S
N669 C668 1.314 . S
N669 C672 1.279 . S
C670 C668 1.353 . S
C670 C673 1.348 . S
C670 H702 0.929 . S
C671 C672 1.358 . S
C671 C673 1.356 . S
C671 H703 0.930 . S
C672 N669 1.279 . S
C672 C671 1.358 . S
C672 H675 0.930 . S
C673 C670 1.348 . S
C673 C671 1.356 . S
H674 C668 0.930 . S
H675 C672 0.930 . S
O676 Li616 1.956 . S
O676 Li617 1.970 . S
O676 Li618 1.961 . S
O676 C620 1.325 . S
O677 Li616 1.970 . S
O677 Li617 1.956 . S
O677 Li619 1.961 1_554 S
O677 C626 1.325 . S
O678 Li616 1.961 1_556 S
O678 Li618 1.956 1_556 S
O678 Li619 1.970 . S
O678 C648 1.325 . S
O679 Li617 1.961 . S
O679 Li618 1.970 . S
O679 Li619 1.956 1_554 S
O679 C654 1.325 . S
H680 C622 0.929 . S
H681 C623 0.930 . S
H682 C624 0.930 . S
H683 C625 0.930 . S
H684 C627 0.930 . S
H685 C629 0.929 . S
H686 C630 0.930 . S
H687 C631 0.930 . S
H688 C634 0.930 . S
H689 C637 0.929 . S
H690 C642 0.929 . S
H691 C643 0.930 . S
H692 C650 0.929 . S
H693 C651 0.930 . S
H694 C652 0.930 . S
H695 C653 0.930 . S
H696 C655 0.929 . S
H697 C656 0.930 . S
H698 C657 0.930 . S
H699 C658 0.930 . S
H700 C662 0.929 . S
H701 C664 0.930 . S
H702 C670 0.929 . S
H703 C671 0.930 . S
H704 C722 0.951 . S
H705 C724 0.951 . S
H706 C726 0.950 . S
H707 C727 0.950 . S
H708 C729 0.950 . S
H709 C732 0.950 . S
H710 C733 0.950 . S
H711 C735 0.950 . S
H712 C736 0.950 . S
H713 C737 0.951 . S
H714 C739 0.951 . S
H715 C741 0.950 . S
H716 C742 0.950 . S
H717 C744 0.950 . S
H718 C747 0.950 . S
H719 C748 0.950 . S
H720 C750 0.950 . S
H721 C751 0.950 . S
C722 H704 0.951 . S
C722 C723 1.366 . S
C722 C724 1.388 . S
C723 C722 1.366 . S
C723 C727 1.385 . S
C724 H705 0.951 . S
C724 C722 1.388 . S
C724 C725 1.366 . S
C725 C724 1.366 . S
C725 C726 1.414 . S
C725 C728 1.499 . S
C726 H706 0.950 . S
C726 C725 1.414 . S
C726 C727 1.374 . S
C727 H707 0.950 . S
C727 C723 1.385 . S
C727 C726 1.374 . S
C728 C725 1.499 . S
C728 C729 1.373 . S
C728 C730 1.389 . S
C729 H708 0.950 . S
C729 C728 1.373 . S
C729 C745 1.377 . S
C730 C728 1.389 . S
C730 C731 1.524 . S
C730 C744 1.377 . S
C731 C730 1.524 . S
C731 C732 1.397 . S
C731 C736 1.363 . S
C732 H709 0.950 . S
C732 C731 1.397 . S
C732 C733 1.334 . S
C733 H710 0.950 . S
C733 C732 1.334 . S
C733 C734 1.287 . S
C734 C733 1.287 . S
C734 C735 1.524 . S
C734 H753 0.913 . S
C735 H711 0.950 . S
C735 C734 1.524 . S
C735 C736 1.415 . S
C736 H712 0.950 . S
C736 C731 1.363 . S
C736 C735 1.415 . S
C737 H713 0.951 . S
C737 C738 1.366 . S
C737 C739 1.388 . S
C738 C737 1.366 . S
C738 C742 1.385 . S
C739 H714 0.951 . S
C739 C737 1.388 . S
C739 C740 1.366 . S
C740 C739 1.366 . S
C740 C741 1.414 . S
C740 C743 1.499 . S
C741 H715 0.950 . S
C741 C740 1.414 . S
C741 C742 1.374 . S
C742 H716 0.950 . S
C742 C738 1.385 . S
C742 C741 1.374 . S
C743 C740 1.499 . S
C743 C744 1.373 . S
C743 C745 1.389 . S
C744 H717 0.950 . S
C744 C730 1.377 . S
C744 C743 1.373 . S
C745 C729 1.377 . S
C745 C743 1.389 . S
C745 C746 1.524 . S
C746 C745 1.524 . S
C746 C747 1.397 . S
C746 C751 1.363 . S
C747 H718 0.950 . S
C747 C746 1.397 . S
C747 C748 1.334 . S
C748 H719 0.950 . S
C748 C747 1.334 . S
C748 C749 1.287 . S
C749 C748 1.287 . S
C749 C750 1.524 . S
C749 H752 0.999 . S
C750 H720 0.950 . S
C750 C749 1.524 . S
C750 C751 1.415 . S
C751 H721 0.950 . S
C751 C746 1.363 . S
C751 C750 1.415 . S
H752 C749 0.999 . S
H753 C734 0.913 . S
H754 C772 0.951 . S
H755 C774 0.951 . S
H756 C776 0.950 . S
H757 C777 0.950 . S
H758 C779 0.950 . S
H759 C782 0.950 . S
H760 C783 0.950 . S
H761 C785 0.950 . S
H762 C786 0.950 . S
H763 C787 0.951 . S
H764 C789 0.951 . S
H765 C791 0.950 . S
H766 C792 0.950 . S
H767 C794 0.950 . S
H768 C797 0.950 . S
H769 C798 0.950 . S
H770 C800 0.950 . S
H771 C801 0.950 . S
C772 H754 0.951 . S
C772 C773 1.366 . S
C772 C774 1.388 . S
C773 C772 1.366 . S
C773 C777 1.385 . S
C774 H755 0.951 . S
C774 C772 1.388 . S
C774 C775 1.366 . S
C775 C774 1.366 . S
C775 C776 1.414 . S
C775 C778 1.499 . S
C776 H756 0.950 . S
C776 C775 1.414 . S
C776 C777 1.374 . S
C777 H757 0.950 . S
C777 C773 1.385 . S
C777 C776 1.374 . S
C778 C775 1.499 . S
C778 C779 1.373 . S
C778 C780 1.389 . S
C779 H758 0.950 . S
C779 C778 1.373 . S
C779 C795 1.377 . S
C780 C778 1.389 . S
C780 C781 1.524 . S
C780 C794 1.377 . S
C781 C780 1.524 . S
C781 C782 1.397 . S
C781 C786 1.363 . S
C782 H759 0.950 . S
C782 C781 1.397 . S
C782 C783 1.334 . S
C783 H760 0.950 . S
C783 C782 1.334 . S
C783 C784 1.287 . S
C784 C783 1.287 . S
C784 C785 1.524 . S
C784 H803 0.913 . S
C785 H761 0.950 . S
C785 C784 1.524 . S
C785 C786 1.415 . S
C786 H762 0.950 . S
C786 C781 1.363 . S
C786 C785 1.415 . S
C787 H763 0.951 . S
C787 C788 1.366 . S
C787 C789 1.388 . S
C788 C787 1.366 . S
C788 C792 1.385 . S
C789 H764 0.951 . S
C789 C787 1.388 . S
C789 C790 1.366 . S
C790 C789 1.366 . S
C790 C791 1.414 . S
C790 C793 1.499 . S
C791 H765 0.950 . S
C791 C790 1.414 . S
C791 C792 1.374 . S
C792 H766 0.950 . S
C792 C788 1.385 . S
C792 C791 1.374 . S
C793 C790 1.499 . S
C793 C794 1.373 . S
C793 C795 1.389 . S
C794 H767 0.950 . S
C794 C780 1.377 . S
C794 C793 1.373 . S
C795 C779 1.377 . S
C795 C793 1.389 . S
C795 C796 1.524 . S
C796 C795 1.524 . S
C796 C797 1.397 . S
C796 C801 1.363 . S
C797 H768 0.950 . S
C797 C796 1.397 . S
C797 C798 1.334 . S
C798 H769 0.950 . S
C798 C797 1.334 . S
C798 C799 1.287 . S
C799 C798 1.287 . S
C799 C800 1.524 . S
C799 H802 0.999 . S
C800 H770 0.950 . S
C800 C799 1.524 . S
C800 C801 1.415 . S
C801 H771 0.950 . S
C801 C796 1.363 . S
C801 C800 1.415 . S
H802 C799 0.999 . S
H803 C784 0.913 . S
H804 C822 0.951 . S
H805 C824 0.951 . S
H806 C826 0.950 . S
H807 C827 0.950 . S
H808 C829 0.950 . S
H809 C832 0.950 . S
H810 C833 0.950 . S
H811 C835 0.950 . S
H812 C836 0.950 . S
H813 C837 0.951 . S
H814 C839 0.951 . S
H815 C841 0.950 . S
H816 C842 0.950 . S
H817 C844 0.950 . S
H818 C847 0.950 . S
H819 C848 0.950 . S
H820 C850 0.950 . S
H821 C851 0.950 . S
C822 H804 0.951 . S
C822 C823 1.366 . S
C822 C824 1.388 . S
C823 C822 1.366 . S
C823 C827 1.385 . S
C824 H805 0.951 . S
C824 C822 1.388 . S
C824 C825 1.366 . S
C825 C824 1.366 . S
C825 C826 1.414 . S
C825 C828 1.499 . S
C826 H806 0.950 . S
C826 C825 1.414 . S
C826 C827 1.374 . S
C827 H807 0.950 . S
C827 C823 1.385 . S
C827 C826 1.374 . S
C828 C825 1.499 . S
C828 C829 1.373 . S
C828 C830 1.389 . S
C829 H808 0.950 . S
C829 C828 1.373 . S
C829 C845 1.377 . S
C830 C828 1.389 . S
C830 C831 1.524 . S
C830 C844 1.377 . S
C831 C830 1.524 . S
C831 C832 1.397 . S
C831 C836 1.363 . S
C832 H809 0.950 . S
C832 C831 1.397 . S
C832 C833 1.334 . S
C833 H810 0.950 . S
C833 C832 1.334 . S
C833 C834 1.287 . S
C834 C833 1.287 . S
C834 C835 1.524 . S
C834 H853 0.913 . S
C835 H811 0.950 . S
C835 C834 1.524 . S
C835 C836 1.415 . S
C836 H812 0.950 . S
C836 C831 1.363 . S
C836 C835 1.415 . S
C837 H813 0.951 . S
C837 C838 1.366 . S
C837 C839 1.388 . S
C838 C837 1.366 . S
C838 C842 1.385 . S
C839 H814 0.951 . S
C839 C837 1.388 . S
C839 C840 1.366 . S
C840 C839 1.366 . S
C840 C841 1.414 . S
C840 C843 1.499 . S
C841 H815 0.950 . S
C841 C840 1.414 . S
C841 C842 1.374 . S
C842 H816 0.950 . S
C842 C838 1.385 . S
C842 C841 1.374 . S
C843 C840 1.499 . S
C843 C844 1.373 1_556 S
C843 C845 1.389 1_556 S
C844 H817 0.950 . S
C844 C830 1.377 . S
C844 C843 1.373 1_554 S
C845 C829 1.377 . S
C845 C843 1.389 1_554 S
C845 C846 1.524 1_554 S
C846 C845 1.524 1_556 S
C846 C847 1.397 . S
C846 C851 1.363 . S
C847 H818 0.950 . S
C847 C846 1.397 . S
C847 C848 1.334 . S
C848 H819 0.950 . S
C848 C847 1.334 . S
C848 C849 1.287 . S
C849 C848 1.287 . S
C849 C850 1.524 . S
C849 H852 0.999 . S
C850 H820 0.950 . S
C850 C849 1.524 . S
C850 C851 1.415 . S
C851 H821 0.950 . S
C851 C846 1.363 . S
C851 C850 1.415 . S
H852 C849 0.999 . S
H853 C834 0.913 . S
H854 C872 0.951 . S
H855 C874 0.951 . S
H856 C876 0.950 . S
H857 C877 0.950 . S
H858 C879 0.950 . S
H859 C882 0.950 . S
H860 C883 0.950 . S
H861 C885 0.950 . S
H862 C886 0.950 . S
H863 C887 0.951 . S
H864 C889 0.951 . S
H865 C891 0.950 . S
H866 C892 0.950 . S
H867 C894 0.950 . S
H868 C897 0.950 . S
H869 C898 0.950 . S
H870 C900 0.950 . S
H871 C901 0.950 . S
C872 H854 0.951 . S
C872 C873 1.366 . S
C872 C874 1.388 . S
C873 C872 1.366 . S
C873 C877 1.385 . S
C874 H855 0.951 . S
C874 C872 1.388 . S
C874 C875 1.366 . S
C875 C874 1.366 . S
C875 C876 1.414 . S
C875 C878 1.499 . S
C876 H856 0.950 . S
C876 C875 1.414 . S
C876 C877 1.374 . S
C877 H857 0.950 . S
C877 C873 1.385 . S
C877 C876 1.374 . S
C878 C875 1.499 . S
C878 C879 1.373 . S
C878 C880 1.389 . S
C879 H858 0.950 . S
C879 C878 1.373 . S
C879 C895 1.377 . S
C880 C878 1.389 . S
C880 C881 1.524 . S
C880 C894 1.377 . S
C881 C880 1.524 . S
C881 C882 1.397 . S
C881 C886 1.363 . S
C882 H859 0.950 . S
C882 C881 1.397 . S
C882 C883 1.334 . S
C883 H860 0.950 . S
C883 C882 1.334 . S
C883 C884 1.287 . S
C884 C883 1.287 . S
C884 C885 1.524 . S
C884 H903 0.913 . S
C885 H861 0.950 . S
C885 C884 1.524 . S
C885 C886 1.415 . S
C886 H862 0.950 . S
C886 C881 1.363 . S
C886 C885 1.415 . S
C887 H863 0.951 . S
C887 C888 1.366 . S
C887 C889 1.388 . S
C888 C887 1.366 . S
C888 C892 1.385 . S
C889 H864 0.951 . S
C889 C887 1.388 . S
C889 C890 1.366 . S
C890 C889 1.366 . S
C890 C891 1.414 . S
C890 C893 1.499 . S
C891 H865 0.950 . S
C891 C890 1.414 . S
C891 C892 1.374 . S
C892 H866 0.950 . S
C892 C888 1.385 . S
C892 C891 1.374 . S
C893 C890 1.499 . S
C893 C894 1.373 . S
C893 C895 1.389 . S
C894 H867 0.950 . S
C894 C880 1.377 . S
C894 C893 1.373 . S
C895 C879 1.377 . S
C895 C893 1.389 . S
C895 C896 1.524 . S
C896 C895 1.524 . S
C896 C897 1.397 . S
C896 C901 1.363 . S
C897 H868 0.950 . S
C897 C896 1.397 . S
C897 C898 1.334 . S
C898 H869 0.950 . S
C898 C897 1.334 . S
C898 C899 1.287 . S
C899 C898 1.287 . S
C899 C900 1.524 . S
C899 H902 0.999 . S
C900 H870 0.950 . S
C900 C899 1.524 . S
C900 C901 1.415 . S
C901 H871 0.950 . S
C901 C896 1.363 . S
C901 C900 1.415 . S
H902 C899 0.999 . S
H903 C884 0.913 . S
H904 C922 0.951 . S
H905 C924 0.951 . S
H906 C926 0.950 . S
H907 C927 0.950 . S
H908 C929 0.950 . S
H909 C932 0.950 . S
H910 C933 0.950 . S
H911 C935 0.950 . S
H912 C936 0.950 . S
H913 C937 0.951 . S
H914 C939 0.951 . S
H915 C941 0.950 . S
H916 C942 0.950 . S
H917 C944 0.950 . S
H918 C947 0.950 . S
H919 C948 0.950 . S
H920 C950 0.950 . S
H921 C951 0.950 . S
C922 H904 0.951 . S
C922 C923 1.366 . S
C922 C924 1.388 . S
C923 C922 1.366 . S
C923 C927 1.385 . S
C924 H905 0.951 . S
C924 C922 1.388 . S
C924 C925 1.366 . S
C925 C924 1.366 . S
C925 C926 1.414 . S
C925 C928 1.499 . S
C926 H906 0.950 . S
C926 C925 1.414 . S
C926 C927 1.374 . S
C927 H907 0.950 . S
C927 C923 1.385 . S
C927 C926 1.374 . S
C928 C925 1.499 . S
C928 C929 1.373 . S
C928 C930 1.389 . S
C929 H908 0.950 . S
C929 C928 1.373 . S
C929 C945 1.377 . S
C930 C928 1.389 . S
C930 C931 1.524 . S
C930 C944 1.377 . S
C931 C930 1.524 . S
C931 C932 1.397 . S
C931 C936 1.363 . S
C932 H909 0.950 . S
C932 C931 1.397 . S
C932 C933 1.334 . S
C933 H910 0.950 . S
C933 C932 1.334 . S
C933 C934 1.287 . S
C934 C933 1.287 . S
C934 C935 1.524 . S
C934 H953 0.913 . S
C935 H911 0.950 . S
C935 C934 1.524 . S
C935 C936 1.415 . S
C936 H912 0.950 . S
C936 C931 1.363 . S
C936 C935 1.415 . S
C937 H913 0.951 . S
C937 C938 1.366 . S
C937 C939 1.388 . S
C938 C937 1.366 . S
C938 C942 1.385 . S
C939 H914 0.951 . S
C939 C937 1.388 . S
C939 C940 1.366 . S
C940 C939 1.366 . S
C940 C941 1.414 . S
C940 C943 1.499 . S
C941 H915 0.950 . S
C941 C940 1.414 . S
C941 C942 1.374 . S
C942 H916 0.950 . S
C942 C938 1.385 . S
C942 C941 1.374 . S
C943 C940 1.499 . S
C943 C944 1.373 . S
C943 C945 1.389 . S
C944 H917 0.950 . S
C944 C930 1.377 . S
C944 C943 1.373 . S
C945 C929 1.377 . S
C945 C943 1.389 . S
C945 C946 1.524 . S
C946 C945 1.524 . S
C946 C947 1.397 . S
C946 C951 1.363 . S
C947 H918 0.950 . S
C947 C946 1.397 . S
C947 C948 1.334 . S
C948 H919 0.950 . S
C948 C947 1.334 . S
C948 C949 1.287 . S
C949 C948 1.287 . S
C949 C950 1.524 . S
C949 H952 0.999 . S
C950 H920 0.950 . S
C950 C949 1.524 . S
C950 C951 1.415 . S
C951 H921 0.950 . S
C951 C946 1.363 . S
C951 C950 1.415 . S
H952 C949 0.999 . S
H953 C934 0.913 . S
H954 C972 0.951 . S
H955 C974 0.951 . S
H956 C976 0.950 . S
H957 C977 0.950 . S
H958 C979 0.950 . S
H959 C982 0.950 . S
H960 C983 0.950 . S
H961 C985 0.950 . S
H962 C986 0.950 . S
H963 C987 0.951 . S
H964 C989 0.951 . S
H965 C991 0.950 . S
H966 C992 0.950 . S
H967 C994 0.950 . S
H968 C997 0.950 . S
H969 C998 0.950 . S
H970 C1000 0.950 . S
H971 C1001 0.950 . S
C972 H954 0.951 . S
C972 C973 1.366 . S
C972 C974 1.388 . S
C973 C972 1.366 . S
C973 C977 1.385 . S
C974 H955 0.951 . S
C974 C972 1.388 . S
C974 C975 1.366 . S
C975 C974 1.366 . S
C975 C976 1.414 . S
C975 C978 1.499 . S
C976 H956 0.950 . S
C976 C975 1.414 . S
C976 C977 1.374 . S
C977 H957 0.950 . S
C977 C973 1.385 . S
C977 C976 1.374 . S
C978 C975 1.499 . S
C978 C979 1.373 . S
C978 C980 1.389 . S
C979 H958 0.950 . S
C979 C978 1.373 . S
C979 C995 1.377 . S
C980 C978 1.389 . S
C980 C981 1.524 . S
C980 C994 1.377 . S
C981 C980 1.524 . S
C981 C982 1.397 . S
C981 C986 1.363 . S
C982 H959 0.950 . S
C982 C981 1.397 . S
C982 C983 1.334 . S
C983 H960 0.950 . S
C983 C982 1.334 . S
C983 C984 1.287 . S
C984 C983 1.287 . S
C984 C985 1.524 . S
C984 H1003 0.913 . S
C985 H961 0.950 . S
C985 C984 1.524 . S
C985 C986 1.415 . S
C986 H962 0.950 . S
C986 C981 1.363 . S
C986 C985 1.415 . S
C987 H963 0.951 . S
C987 C988 1.366 . S
C987 C989 1.388 . S
C988 C987 1.366 . S
C988 C992 1.385 . S
C989 H964 0.951 . S
C989 C987 1.388 . S
C989 C990 1.366 . S
C990 C989 1.366 . S
C990 C991 1.414 . S
C990 C993 1.499 . S
C991 H965 0.950 . S
C991 C990 1.414 . S
C991 C992 1.374 . S
C992 H966 0.950 . S
C992 C988 1.385 . S
C992 C991 1.374 . S
C993 C990 1.499 . S
C993 C994 1.373 . S
C993 C995 1.389 . S
C994 H967 0.950 . S
C994 C980 1.377 . S
C994 C993 1.373 . S
C995 C979 1.377 . S
C995 C993 1.389 . S
C995 C996 1.524 . S
C996 C995 1.524 . S
C996 C997 1.397 . S
C996 C1001 1.363 . S
C997 H968 0.950 . S
C997 C996 1.397 . S
C997 C998 1.334 . S
C998 H969 0.950 . S
C998 C997 1.334 . S
C998 C999 1.287 . S
C999 C998 1.287 . S
C999 C1000 1.524 . S
C999 H1002 0.999 . S
C1000 H970 0.950 . S
C1000 C999 1.524 . S
C1000 C1001 1.415 . S
C1001 H971 0.950 . S
C1001 C996 1.363 . S
C1001 C1000 1.415 . S
H1002 C999 0.999 . S
H1003 C984 0.913 . S
H1004 C1022 0.951 1_554 S
H1005 C1024 0.951 . S
H1006 C1026 0.950 . S
H1007 C1027 0.950 . S
H1008 C1029 0.950 . S
H1009 C1032 0.950 . S
H1010 C1033 0.950 . S
H1011 C1035 0.950 . S
H1012 C1036 0.950 . S
H1013 C1037 0.951 . S
H1014 C1039 0.951 . S
H1015 C1041 0.950 . S
H1016 C1042 0.950 . S
H1017 C1044 0.950 . S
H1018 C1047 0.950 . S
H1019 C1048 0.950 . S
H1020 C1050 0.950 . S
H1021 C1051 0.950 . S
C1022 H1004 0.951 1_556 S
C1022 C1023 1.366 . S
C1022 C1024 1.388 . S
C1023 C1022 1.366 . S
C1023 C1027 1.385 . S
C1024 H1005 0.951 . S
C1024 C1022 1.388 . S
C1024 C1025 1.366 . S
C1025 C1024 1.366 . S
C1025 C1026 1.414 . S
C1025 C1028 1.499 . S
C1026 H1006 0.950 . S
C1026 C1025 1.414 . S
C1026 C1027 1.374 . S
C1027 H1007 0.950 . S
C1027 C1023 1.385 . S
C1027 C1026 1.374 . S
C1028 C1025 1.499 . S
C1028 C1029 1.373 . S
C1028 C1030 1.389 . S
C1029 H1008 0.950 . S
C1029 C1028 1.373 . S
C1029 C1045 1.377 . S
C1030 C1028 1.389 . S
C1030 C1031 1.524 . S
C1030 C1044 1.377 . S
C1031 C1030 1.524 . S
C1031 C1032 1.397 . S
C1031 C1036 1.363 . S
C1032 H1009 0.950 . S
C1032 C1031 1.397 . S
C1032 C1033 1.334 . S
C1033 H1010 0.950 . S
C1033 C1032 1.334 . S
C1033 C1034 1.287 . S
C1034 C1033 1.287 . S
C1034 C1035 1.524 . S
C1034 H1053 0.913 . S
C1035 H1011 0.950 . S
C1035 C1034 1.524 . S
C1035 C1036 1.415 . S
C1036 H1012 0.950 . S
C1036 C1031 1.363 . S
C1036 C1035 1.415 . S
C1037 H1013 0.951 . S
C1037 C1038 1.366 . S
C1037 C1039 1.388 . S
C1038 C1037 1.366 . S
C1038 C1042 1.385 . S
C1039 H1014 0.951 . S
C1039 C1037 1.388 . S
C1039 C1040 1.366 . S
C1040 C1039 1.366 . S
C1040 C1041 1.414 . S
C1040 C1043 1.499 . S
C1041 H1015 0.950 . S
C1041 C1040 1.414 . S
C1041 C1042 1.374 . S
C1042 H1016 0.950 . S
C1042 C1038 1.385 . S
C1042 C1041 1.374 . S
C1043 C1040 1.499 . S
C1043 C1044 1.373 . S
C1043 C1045 1.389 . S
C1044 H1017 0.950 . S
C1044 C1030 1.377 . S
C1044 C1043 1.373 . S
C1045 C1029 1.377 . S
C1045 C1043 1.389 . S
C1045 C1046 1.524 . S
C1046 C1045 1.524 . S
C1046 C1047 1.397 . S
C1046 C1051 1.363 . S
C1047 H1018 0.950 . S
C1047 C1046 1.397 . S
C1047 C1048 1.334 . S
C1048 H1019 0.950 . S
C1048 C1047 1.334 . S
C1048 C1049 1.287 . S
C1049 C1048 1.287 . S
C1049 C1050 1.524 . S
C1049 H1052 0.999 . S
C1050 H1020 0.950 . S
C1050 C1049 1.524 . S
C1050 C1051 1.415 . S
C1051 H1021 0.950 . S
C1051 C1046 1.363 . S
C1051 C1050 1.415 . S
H1052 C1049 0.999 . S
H1053 C1034 0.913 . S
H1054 C1072 0.951 . S
H1055 C1074 0.951 . S
H1056 C1076 0.950 . S
H1057 C1077 0.950 . S
H1058 C1079 0.950 . S
H1059 C1082 0.950 . S
H1060 C1083 0.950 . S
H1061 C1085 0.950 . S
H1062 C1086 0.950 . S
H1063 C1087 0.951 . S
H1064 C1089 0.951 . S
H1065 C1091 0.950 . S
H1066 C1092 0.950 . S
H1067 C1094 0.950 . S
H1068 C1097 0.950 . S
H1069 C1098 0.950 . S
H1070 C1100 0.950 . S
H1071 C1101 0.950 . S
C1072 H1054 0.951 . S
C1072 C1073 1.366 . S
C1072 C1074 1.388 . S
C1073 C1072 1.366 . S
C1073 C1077 1.385 . S
C1074 H1055 0.951 . S
C1074 C1072 1.388 . S
C1074 C1075 1.366 . S
C1075 C1074 1.366 . S
C1075 C1076 1.414 . S
C1075 C1078 1.499 . S
C1076 H1056 0.950 . S
C1076 C1075 1.414 . S
C1076 C1077 1.374 . S
C1077 H1057 0.950 . S
C1077 C1073 1.385 . S
C1077 C1076 1.374 . S
C1078 C1075 1.499 . S
C1078 C1079 1.373 . S
C1078 C1080 1.389 . S
C1079 H1058 0.950 . S
C1079 C1078 1.373 . S
C1079 C1095 1.377 . S
C1080 C1078 1.389 . S
C1080 C1081 1.524 . S
C1080 C1094 1.377 . S
C1081 C1080 1.524 . S
C1081 C1082 1.397 . S
C1081 C1086 1.363 . S
C1082 H1059 0.950 . S
C1082 C1081 1.397 . S
C1082 C1083 1.334 . S
C1083 H1060 0.950 . S
C1083 C1082 1.334 . S
C1083 C1084 1.287 . S
C1084 C1083 1.287 . S
C1084 C1085 1.524 . S
C1084 H1103 0.913 . S
C1085 H1061 0.950 . S
C1085 C1084 1.524 . S
C1085 C1086 1.415 . S
C1086 H1062 0.950 . S
C1086 C1081 1.363 . S
C1086 C1085 1.415 . S
C1087 H1063 0.951 . S
C1087 C1088 1.366 . S
C1087 C1089 1.388 . S
C1088 C1087 1.366 . S
C1088 C1092 1.385 . S
C1089 H1064 0.951 . S
C1089 C1087 1.388 . S
C1089 C1090 1.366 . S
C1090 C1089 1.366 . S
C1090 C1091 1.414 . S
C1090 C1093 1.499 . S
C1091 H1065 0.950 . S
C1091 C1090 1.414 . S
C1091 C1092 1.374 . S
C1092 H1066 0.950 . S
C1092 C1088 1.385 . S
C1092 C1091 1.374 . S
C1093 C1090 1.499 . S
C1093 C1094 1.373 . S
C1093 C1095 1.389 . S
C1094 H1067 0.950 . S
C1094 C1080 1.377 . S
C1094 C1093 1.373 . S
C1095 C1079 1.377 . S
C1095 C1093 1.389 . S
C1095 C1096 1.524 . S
C1096 C1095 1.524 . S
C1096 C1097 1.397 . S
C1096 C1101 1.363 . S
C1097 H1068 0.950 . S
C1097 C1096 1.397 . S
C1097 C1098 1.334 . S
C1098 H1069 0.950 . S
C1098 C1097 1.334 . S
C1098 C1099 1.287 . S
C1099 C1098 1.287 . S
C1099 C1100 1.524 . S
C1099 H1102 0.999 . S
C1100 H1070 0.950 . S
C1100 C1099 1.524 . S
C1100 C1101 1.415 . S
C1101 H1071 0.950 . S
C1101 C1096 1.363 . S
C1101 C1100 1.415 . S
H1102 C1099 0.999 . S
H1103 C1084 0.913 . S
H1104 C1122 0.951 . S
H1105 C1124 0.951 . S
H1106 C1126 0.950 . S
H1107 C1127 0.950 . S
H1108 C1129 0.950 . S
H1109 C1132 0.950 . S
H1110 C1133 0.950 . S
H1111 C1135 0.950 . S
H1112 C1136 0.950 . S
H1113 C1137 0.951 . S
H1114 C1139 0.951 . S
H1115 C1141 0.950 . S
H1116 C1142 0.950 . S
H1117 C1144 0.950 . S
H1118 C1147 0.950 . S
H1119 C1148 0.950 . S
H1120 C1150 0.950 . S
H1121 C1151 0.950 . S
C1122 H1104 0.951 . S
C1122 C1123 1.366 . S
C1122 C1124 1.388 . S
C1123 C1122 1.366 . S
C1123 C1127 1.385 . S
C1124 H1105 0.951 . S
C1124 C1122 1.388 . S
C1124 C1125 1.366 . S
C1125 C1124 1.366 . S
C1125 C1126 1.414 . S
C1125 C1128 1.499 . S
C1126 H1106 0.950 . S
C1126 C1125 1.414 . S
C1126 C1127 1.374 . S
C1127 H1107 0.950 . S
C1127 C1123 1.385 . S
C1127 C1126 1.374 . S
C1128 C1125 1.499 . S
C1128 C1129 1.373 . S
C1128 C1130 1.389 . S
C1129 H1108 0.950 . S
C1129 C1128 1.373 . S
C1129 C1145 1.377 1_565 S
C1130 C1128 1.389 . S
C1130 C1131 1.524 . S
C1130 C1144 1.377 1_565 S
C1131 C1130 1.524 . S
C1131 C1132 1.397 . S
C1131 C1136 1.363 . S
C1132 H1109 0.950 . S
C1132 C1131 1.397 . S
C1132 C1133 1.334 . S
C1133 H1110 0.950 . S
C1133 C1132 1.334 . S
C1133 C1134 1.287 . S
C1134 C1133 1.287 . S
C1134 C1135 1.524 . S
C1134 H1153 0.913 . S
C1135 H1111 0.950 . S
C1135 C1134 1.524 . S
C1135 C1136 1.415 . S
C1136 H1112 0.950 . S
C1136 C1131 1.363 . S
C1136 C1135 1.415 . S
C1137 H1113 0.951 . S
C1137 C1138 1.366 . S
C1137 C1139 1.388 . S
C1138 C1137 1.366 . S
C1138 C1142 1.385 . S
C1139 H1114 0.951 . S
C1139 C1137 1.388 . S
C1139 C1140 1.366 . S
C1140 C1139 1.366 . S
C1140 C1141 1.414 . S
C1140 C1143 1.499 . S
C1141 H1115 0.950 . S
C1141 C1140 1.414 . S
C1141 C1142 1.374 . S
C1142 H1116 0.950 . S
C1142 C1138 1.385 . S
C1142 C1141 1.374 . S
C1143 C1140 1.499 . S
C1143 C1144 1.373 . S
C1143 C1145 1.389 . S
C1144 H1117 0.950 . S
C1144 C1130 1.377 1_545 S
C1144 C1143 1.373 . S
C1145 C1129 1.377 1_545 S
C1145 C1143 1.389 . S
C1145 C1146 1.524 . S
C1146 C1145 1.524 . S
C1146 C1147 1.397 . S
C1146 C1151 1.363 . S
C1147 H1118 0.950 . S
C1147 C1146 1.397 . S
C1147 C1148 1.334 . S
C1148 H1119 0.950 . S
C1148 C1147 1.334 . S
C1148 C1149 1.287 . S
C1149 C1148 1.287 . S
C1149 C1150 1.524 . S
C1149 H1152 0.999 . S
C1150 H1120 0.950 . S
C1150 C1149 1.524 . S
C1150 C1151 1.415 . S
C1151 H1121 0.950 . S
C1151 C1146 1.363 . S
C1151 C1150 1.415 . S
H1152 C1149 0.999 . S
H1153 C1134 0.913 . S
H1154 C1172 0.951 . S
H1155 C1174 0.951 . S
H1156 C1176 0.950 . S
H1157 C1177 0.950 . S
H1158 C1179 0.950 . S
H1159 C1182 0.950 . S
H1160 C1183 0.950 . S
H1161 C1185 0.950 . S
H1162 C1186 0.950 . S
H1163 C1187 0.951 . S
H1164 C1189 0.951 . S
H1165 C1191 0.950 . S
H1166 C1192 0.950 . S
H1167 C1194 0.950 . S
H1168 C1197 0.950 . S
H1169 C1198 0.950 . S
H1170 C1200 0.950 . S
H1171 C1201 0.950 . S
C1172 H1154 0.951 . S
C1172 C1173 1.366 . S
C1172 C1174 1.388 . S
C1173 C1172 1.366 . S
C1173 C1177 1.385 . S
C1174 H1155 0.951 . S
C1174 C1172 1.388 . S
C1174 C1175 1.366 . S
C1175 C1174 1.366 . S
C1175 C1176 1.414 . S
C1175 C1178 1.499 . S
C1176 H1156 0.950 . S
C1176 C1175 1.414 . S
C1176 C1177 1.374 . S
C1177 H1157 0.950 . S
C1177 C1173 1.385 . S
C1177 C1176 1.374 . S
C1178 C1175 1.499 . S
C1178 C1179 1.373 . S
C1178 C1180 1.389 . S
C1179 H1158 0.950 . S
C1179 C1178 1.373 . S
C1179 C1195 1.377 1_655 S
C1180 C1178 1.389 . S
C1180 C1181 1.524 . S
C1180 C1194 1.377 1_655 S
C1181 C1180 1.524 . S
C1181 C1182 1.397 . S
C1181 C1186 1.363 . S
C1182 H1159 0.950 . S
C1182 C1181 1.397 . S
C1182 C1183 1.334 . S
C1183 H1160 0.950 . S
C1183 C1182 1.334 . S
C1183 C1184 1.287 . S
C1184 C1183 1.287 . S
C1184 C1185 1.524 . S
C1184 H1203 0.913 . S
C1185 H1161 0.950 . S
C1185 C1184 1.524 . S
C1185 C1186 1.415 . S
C1186 H1162 0.950 . S
C1186 C1181 1.363 . S
C1186 C1185 1.415 . S
C1187 H1163 0.951 . S
C1187 C1188 1.366 . S
C1187 C1189 1.388 . S
C1188 C1187 1.366 . S
C1188 C1192 1.385 . S
C1189 H1164 0.951 . S
C1189 C1187 1.388 . S
C1189 C1190 1.366 . S
C1190 C1189 1.366 . S
C1190 C1191 1.414 . S
C1190 C1193 1.499 . S
C1191 H1165 0.950 . S
C1191 C1190 1.414 . S
C1191 C1192 1.374 . S
C1192 H1166 0.950 . S
C1192 C1188 1.385 . S
C1192 C1191 1.374 . S
C1193 C1190 1.499 . S
C1193 C1194 1.373 . S
C1193 C1195 1.389 . S
C1194 H1167 0.950 . S
C1194 C1180 1.377 1_455 S
C1194 C1193 1.373 . S
C1195 C1179 1.377 1_455 S
C1195 C1193 1.389 . S
C1195 C1196 1.524 . S
C1196 C1195 1.524 . S
C1196 C1197 1.397 . S
C1196 C1201 1.363 . S
C1197 H1168 0.950 . S
C1197 C1196 1.397 . S
C1197 C1198 1.334 . S
C1198 H1169 0.950 . S
C1198 C1197 1.334 . S
C1198 C1199 1.287 . S
C1199 C1198 1.287 . S
C1199 C1200 1.524 . S
C1199 H1202 0.999 . S
C1200 H1170 0.950 . S
C1200 C1199 1.524 . S
C1200 C1201 1.415 . S
C1201 H1171 0.950 . S
C1201 C1196 1.363 . S
C1201 C1200 1.415 . S
H1202 C1199 0.999 . S
H1203 C1184 0.913 . S
H1204 C1222 0.951 . S
H1205 C1224 0.951 . S
H1206 C1226 0.950 . S
H1207 C1227 0.950 . S
H1208 C1229 0.950 . S
H1209 C1232 0.950 . S
H1210 C1233 0.950 . S
H1211 C1235 0.950 . S
H1212 C1236 0.950 . S
H1213 C1237 0.951 . S
H1214 C1239 0.951 . S
H1215 C1241 0.950 . S
H1216 C1242 0.950 . S
H1217 C1244 0.950 . S
H1218 C1247 0.950 . S
H1219 C1248 0.950 . S
H1220 C1250 0.950 . S
H1221 C1251 0.950 . S
C1222 H1204 0.951 . S
C1222 C1223 1.366 . S
C1222 C1224 1.388 . S
C1223 C1222 1.366 . S
C1223 C1227 1.385 . S
C1224 H1205 0.951 . S
C1224 C1222 1.388 . S
C1224 C1225 1.366 . S
C1225 C1224 1.366 . S
C1225 C1226 1.414 . S
C1225 C1228 1.499 . S
C1226 H1206 0.950 . S
C1226 C1225 1.414 . S
C1226 C1227 1.374 . S
C1227 H1207 0.950 . S
C1227 C1223 1.385 . S
C1227 C1226 1.374 . S
C1228 C1225 1.499 . S
C1228 C1229 1.373 . S
C1228 C1230 1.389 . S
C1229 H1208 0.950 . S
C1229 C1228 1.373 . S
C1229 C1245 1.377 1_565 S
C1230 C1228 1.389 . S
C1230 C1231 1.524 . S
C1230 C1244 1.377 1_565 S
C1231 C1230 1.524 . S
C1231 C1232 1.397 . S
C1231 C1236 1.363 . S
C1232 H1209 0.950 . S
C1232 C1231 1.397 . S
C1232 C1233 1.334 . S
C1233 H1210 0.950 . S
C1233 C1232 1.334 . S
C1233 C1234 1.287 . S
C1234 C1233 1.287 . S
C1234 C1235 1.524 . S
C1234 H1253 0.913 . S
C1235 H1211 0.950 . S
C1235 C1234 1.524 . S
C1235 C1236 1.415 . S
C1236 H1212 0.950 . S
C1236 C1231 1.363 . S
C1236 C1235 1.415 . S
C1237 H1213 0.951 . S
C1237 C1238 1.366 . S
C1237 C1239 1.388 . S
C1238 C1237 1.366 . S
C1238 C1242 1.385 . S
C1239 H1214 0.951 . S
C1239 C1237 1.388 . S
C1239 C1240 1.366 . S
C1240 C1239 1.366 . S
C1240 C1241 1.414 . S
C1240 C1243 1.499 . S
C1241 H1215 0.950 . S
C1241 C1240 1.414 . S
C1241 C1242 1.374 . S
C1242 H1216 0.950 . S
C1242 C1238 1.385 . S
C1242 C1241 1.374 . S
C1243 C1240 1.499 . S
C1243 C1244 1.373 . S
C1243 C1245 1.389 . S
C1244 H1217 0.950 . S
C1244 C1230 1.377 1_545 S
C1244 C1243 1.373 . S
C1245 C1229 1.377 1_545 S
C1245 C1243 1.389 . S
C1245 C1246 1.524 . S
C1246 C1245 1.524 . S
C1246 C1247 1.397 . S
C1246 C1251 1.363 . S
C1247 H1218 0.950 . S
C1247 C1246 1.397 . S
C1247 C1248 1.334 . S
C1248 H1219 0.950 . S
C1248 C1247 1.334 . S
C1248 C1249 1.287 . S
C1249 C1248 1.287 . S
C1249 C1250 1.524 . S
C1249 H1252 0.999 . S
C1250 H1220 0.950 . S
C1250 C1249 1.524 . S
C1250 C1251 1.415 . S
C1251 H1221 0.950 . S
C1251 C1246 1.363 . S
C1251 C1250 1.415 . S
H1252 C1249 0.999 . S
H1253 C1234 0.913 . S
H1254 C1272 0.951 . S
H1255 C1274 0.951 . S
H1256 C1276 0.950 . S
H1257 C1277 0.950 . S
H1258 C1279 0.950 1_556 S
H1259 C1282 0.950 . S
H1260 C1283 0.950 . S
H1261 C1285 0.950 . S
H1262 C1286 0.950 . S
H1263 C1287 0.951 . S
H1264 C1289 0.951 . S
H1265 C1291 0.950 . S
H1266 C1292 0.950 . S
H1267 C1294 0.950 . S
H1268 C1297 0.950 . S
H1269 C1298 0.953 . S
H1270 C1300 0.950 . S
H1271 C1301 0.950 . S
C1272 H1254 0.951 . S
C1272 C1273 1.366 . S
C1272 C1274 1.388 . S
C1273 C1272 1.366 . S
C1273 C1277 1.385 1_554 S
C1274 H1255 0.951 . S
C1274 C1272 1.388 . S
C1274 C1275 1.366 . S
C1275 C1274 1.366 . S
C1275 C1276 1.414 1_554 S
C1275 C1278 1.499 . S
C1276 H1256 0.950 . S
C1276 C1275 1.414 1_556 S
C1276 C1277 1.374 . S
C1277 H1257 0.950 . S
C1277 C1273 1.385 1_556 S
C1277 C1276 1.374 . S
C1278 C1275 1.499 . S
C1278 C1279 1.373 . S
C1278 C1280 1.389 . S
C1279 H1258 0.950 1_554 S
C1279 C1278 1.373 . S
C1279 C1295 1.377 1_655 S
C1280 C1278 1.389 . S
C1280 C1281 1.524 . S
C1280 C1294 1.377 1_655 S
C1281 C1280 1.524 . S
C1281 C1282 1.397 . S
C1281 C1286 1.363 . S
C1282 H1259 0.950 . S
C1282 C1281 1.397 . S
C1282 C1283 1.334 . S
C1283 H1260 0.950 . S
C1283 C1282 1.334 . S
C1283 C1284 1.287 . S
C1284 C1283 1.287 . S
C1284 C1285 1.524 . S
C1284 H1303 0.913 . S
C1285 H1261 0.950 . S
C1285 C1284 1.524 . S
C1285 C1286 1.415 . S
C1286 H1262 0.950 . S
C1286 C1281 1.363 . S
C1286 C1285 1.415 . S
C1287 H1263 0.951 . S
C1287 C1288 1.366 1_556 S
C1287 C1289 1.388 . S
C1288 C1287 1.366 1_554 S
C1288 C1292 1.385 . S
C1289 H1264 0.951 . S
C1289 C1287 1.388 . S
C1289 C1290 1.366 1_556 S
C1290 C1289 1.366 1_554 S
C1290 C1291 1.414 . S
C1290 C1293 1.499 . S
C1291 H1265 0.950 . S
C1291 C1290 1.414 . S
C1291 C1292 1.374 . S
C1292 H1266 0.950 . S
C1292 C1288 1.385 . S
C1292 C1291 1.374 . S
C1293 C1290 1.499 . S
C1293 C1294 1.373 . S
C1293 C1295 1.389 . S
C1294 H1267 0.950 . S
C1294 C1280 1.377 1_455 S
C1294 C1293 1.373 . S
C1295 C1279 1.377 1_455 S
C1295 C1293 1.389 . S
C1295 C1296 1.524 1_554 S
C1296 C1295 1.524 1_556 S
C1296 C1297 1.397 1_556 S
C1296 C1301 1.363 . S
C1297 H1268 0.950 . S
C1297 C1296 1.397 1_554 S
C1297 C1298 1.334 1_554 S
C1298 H1269 0.953 . S
C1298 C1297 1.334 1_556 S
C1298 C1299 1.287 . S
C1299 C1298 1.287 . S
C1299 C1300 1.524 . S
C1299 H1302 0.999 . S
C1300 H1270 0.950 . S
C1300 C1299 1.524 . S
C1300 C1301 1.415 . S
C1301 H1271 0.950 . S
C1301 C1296 1.363 . S
C1301 C1300 1.415 . S
H1302 C1299 0.999 . S
H1303 C1284 0.913 . S
H1304 C1322 0.951 . S
H1305 C1324 0.951 . S
H1306 C1326 0.950 1_554 S
H1307 C1327 0.950 . S
H1308 C1329 0.950 . S
H1309 C1332 0.950 . S
H1310 C1333 0.950 . S
H1311 C1335 0.950 . S
H1312 C1336 0.950 . S
H1313 C1337 0.951 . S
H1314 C1339 0.951 . S
H1315 C1341 0.950 . S
H1316 C1342 0.950 . S
H1317 C1344 0.950 . S
H1318 C1347 0.950 . S
H1319 C1348 0.950 . S
H1320 C1350 0.950 . S
H1321 C1351 0.950 . S
C1322 H1304 0.951 . S
C1322 C1323 1.366 . S
C1322 C1324 1.388 . S
C1323 C1322 1.366 . S
C1323 C1327 1.385 . S
C1324 H1305 0.951 . S
C1324 C1322 1.388 . S
C1324 C1325 1.366 . S
C1325 C1324 1.366 . S
C1325 C1326 1.414 . S
C1325 C1328 1.497 . S
C1326 H1306 0.950 1_556 S
C1326 C1325 1.414 . S
C1326 C1327 1.374 . S
C1327 H1307 0.950 . S
C1327 C1323 1.385 . S
C1327 C1326 1.374 . S
C1328 C1325 1.497 . S
C1328 C1329 1.375 1_556 S
C1328 C1330 1.389 1_556 S
C1329 H1308 0.950 . S
C1329 C1328 1.375 1_554 S
C1329 C1345 1.377 . S
C1330 C1328 1.389 1_554 S
C1330 C1331 1.506 1_554 S
C1330 C1344 1.398 . S
C1331 C1330 1.506 1_556 S
C1331 C1332 1.397 . S
C1331 C1336 1.363 . S
C1332 H1309 0.950 . S
C1332 C1331 1.397 . S
C1332 C1333 1.334 . S
C1333 H1310 0.950 . S
C1333 C1332 1.334 . S
C1333 C1334 1.287 . S
C1334 C1333 1.287 . S
C1334 C1335 1.524 . S
C1334 H1353 0.913 . S
C1335 H1311 0.950 . S
C1335 C1334 1.524 . S
C1335 C1336 1.415 . S
C1336 H1312 0.950 . S
C1336 C1331 1.363 . S
C1336 C1335 1.415 . S
C1337 H1313 0.951 . S
C1337 C1338 1.366 . S
C1337 C1339 1.388 . S
C1338 C1337 1.366 . S
C1338 C1342 1.385 . S
C1339 H1314 0.951 . S
C1339 C1337 1.388 . S
C1339 C1340 1.366 . S
C1340 C1339 1.366 . S
C1340 C1341 1.414 . S
C1340 C1343 1.499 . S
C1341 H1315 0.950 . S
C1341 C1340 1.414 . S
C1341 C1342 1.374 . S
C1342 H1316 0.950 . S
C1342 C1338 1.385 . S
C1342 C1341 1.374 . S
C1343 C1340 1.499 . S
C1343 C1344 1.373 . S
C1343 C1345 1.389 . S
C1344 H1317 0.950 . S
C1344 C1330 1.398 . S
C1344 C1343 1.373 . S
C1345 C1329 1.377 . S
C1345 C1343 1.389 . S
C1345 C1346 1.524 . S
C1346 C1345 1.524 . S
C1346 C1347 1.397 . S
C1346 C1351 1.363 . S
C1347 H1318 0.950 . S
C1347 C1346 1.397 . S
C1347 C1348 1.334 . S
C1348 H1319 0.950 . S
C1348 C1347 1.334 . S
C1348 C1349 1.287 . S
C1349 C1348 1.287 . S
C1349 C1350 1.524 . S
C1349 H1352 0.999 . S
C1350 H1320 0.950 . S
C1350 C1349 1.524 . S
C1350 C1351 1.415 . S
C1351 H1321 0.950 . S
C1351 C1346 1.363 . S
C1351 C1350 1.415 . S
H1352 C1349 0.999 . S
H1353 C1334 0.913 . S
H1354 C1372 0.951 . S
H1355 C1374 0.951 . S
H1356 C1376 0.950 . S
H1357 C1377 0.950 . S
H1358 C1379 0.950 . S
H1359 C1382 0.950 . S
H1360 C1383 0.950 . S
H1361 C1385 0.950 . S
H1362 C1386 0.950 . S
H1363 C1387 0.951 . S
H1364 C1389 0.951 . S
H1365 C1391 0.950 . S
H1366 C1392 0.950 . S
H1367 C1394 0.950 . S
H1368 C1397 0.950 . S
H1369 C1398 0.950 . S
H1370 C1400 0.950 . S
H1371 C1401 0.950 . S
C1372 H1354 0.951 . S
C1372 C1373 1.366 . S
C1372 C1374 1.388 . S
C1373 C1372 1.366 . S
C1373 C1377 1.385 . S
C1374 H1355 0.951 . S
C1374 C1372 1.388 . S
C1374 C1375 1.366 . S
C1375 C1374 1.366 . S
C1375 C1376 1.414 . S
C1375 C1378 1.499 . S
C1376 H1356 0.950 . S
C1376 C1375 1.414 . S
C1376 C1377 1.374 . S
C1377 H1357 0.950 . S
C1377 C1373 1.385 . S
C1377 C1376 1.374 . S
C1378 C1375 1.499 . S
C1378 C1379 1.373 . S
C1378 C1380 1.389 . S
C1379 H1358 0.950 . S
C1379 C1378 1.373 . S
C1379 C1395 1.377 . S
C1380 C1378 1.389 . S
C1380 C1381 1.524 . S
C1380 C1394 1.377 . S
C1381 C1380 1.524 . S
C1381 C1382 1.397 . S
C1381 C1386 1.363 . S
C1382 H1359 0.950 . S
C1382 C1381 1.397 . S
C1382 C1383 1.334 . S
C1383 H1360 0.950 . S
C1383 C1382 1.334 . S
C1383 C1384 1.287 . S
C1384 C1383 1.287 . S
C1384 C1385 1.524 . S
C1384 H1403 0.913 . S
C1385 H1361 0.950 . S
C1385 C1384 1.524 . S
C1385 C1386 1.415 . S
C1386 H1362 0.950 . S
C1386 C1381 1.363 . S
C1386 C1385 1.415 . S
C1387 H1363 0.951 . S
C1387 C1388 1.366 . S
C1387 C1389 1.388 . S
C1388 C1387 1.366 . S
C1388 C1392 1.385 . S
C1389 H1364 0.951 . S
C1389 C1387 1.388 . S
C1389 C1390 1.366 . S
C1390 C1389 1.366 . S
C1390 C1391 1.414 . S
C1390 C1393 1.499 . S
C1391 H1365 0.950 . S
C1391 C1390 1.414 . S
C1391 C1392 1.374 . S
C1392 H1366 0.950 . S
C1392 C1388 1.385 . S
C1392 C1391 1.374 . S
C1393 C1390 1.499 . S
C1393 C1394 1.373 . S
C1393 C1395 1.389 . S
C1394 H1367 0.950 . S
C1394 C1380 1.377 . S
C1394 C1393 1.373 . S
C1395 C1379 1.377 . S
C1395 C1393 1.389 . S
C1395 C1396 1.524 . S
C1396 C1395 1.524 . S
C1396 C1397 1.397 . S
C1396 C1401 1.363 . S
C1397 H1368 0.950 . S
C1397 C1396 1.397 . S
C1397 C1398 1.334 . S
C1398 H1369 0.950 . S
C1398 C1397 1.334 . S
C1398 C1399 1.287 . S
C1399 C1398 1.287 . S
C1399 C1400 1.524 . S
C1399 H1402 0.999 . S
C1400 H1370 0.950 . S
C1400 C1399 1.524 . S
C1400 C1401 1.415 . S
C1401 H1371 0.950 . S
C1401 C1396 1.363 . S
C1401 C1400 1.415 . S
H1402 C1399 0.999 . S
H1403 C1384 0.913 . S
H1404 C1422 0.951 . S
H1405 C1424 0.951 . S
H1406 C1426 0.950 . S
H1407 C1427 0.950 . S
H1408 C1429 0.950 . S
H1409 C1432 0.950 . S
H1410 C1433 0.950 . S
H1411 C1435 0.950 . S
H1412 C1436 0.950 . S
H1413 C1437 0.951 . S
H1414 C1439 0.951 . S
H1415 C1441 0.950 . S
H1416 C1442 0.950 . S
H1417 C1444 0.950 . S
H1418 C1447 0.950 . S
H1419 C1448 0.950 . S
H1420 C1450 0.950 . S
H1421 C1451 0.950 . S
C1422 H1404 0.951 . S
C1422 C1423 1.366 . S
C1422 C1424 1.388 . S
C1423 C1422 1.366 . S
C1423 C1427 1.385 . S
C1424 H1405 0.951 . S
C1424 C1422 1.388 . S
C1424 C1425 1.366 . S
C1425 C1424 1.366 . S
C1425 C1426 1.414 . S
C1425 C1428 1.499 . S
C1426 H1406 0.950 . S
C1426 C1425 1.414 . S
C1426 C1427 1.374 . S
C1427 H1407 0.950 . S
C1427 C1423 1.385 . S
C1427 C1426 1.374 . S
C1428 C1425 1.499 . S
C1428 C1429 1.373 . S
C1428 C1430 1.389 . S
C1429 H1408 0.950 . S
C1429 C1428 1.373 . S
C1429 C1445 1.377 . S
C1430 C1428 1.389 . S
C1430 C1431 1.524 . S
C1430 C1444 1.377 . S
C1431 C1430 1.524 . S
C1431 C1432 1.397 . S
C1431 C1436 1.363 . S
C1432 H1409 0.950 . S
C1432 C1431 1.397 . S
C1432 C1433 1.334 . S
C1433 H1410 0.950 . S
C1433 C1432 1.334 . S
C1433 C1434 1.287 . S
C1434 C1433 1.287 . S
C1434 C1435 1.524 . S
C1434 H1453 0.913 . S
C1435 H1411 0.950 . S
C1435 C1434 1.524 . S
C1435 C1436 1.415 . S
C1436 H1412 0.950 . S
C1436 C1431 1.363 . S
C1436 C1435 1.415 . S
C1437 H1413 0.951 . S
C1437 C1438 1.366 . S
C1437 C1439 1.388 . S
C1438 C1437 1.366 . S
C1438 C1442 1.385 . S
C1439 H1414 0.951 . S
C1439 C1437 1.388 . S
C1439 C1440 1.366 . S
C1440 C1439 1.366 . S
C1440 C1441 1.414 . S
C1440 C1443 1.499 . S
C1441 H1415 0.950 . S
C1441 C1440 1.414 . S
C1441 C1442 1.374 . S
C1442 H1416 0.950 . S
C1442 C1438 1.385 . S
C1442 C1441 1.374 . S
C1443 C1440 1.499 . S
C1443 C1444 1.373 . S
C1443 C1445 1.389 . S
C1444 H1417 0.950 . S
C1444 C1430 1.377 . S
C1444 C1443 1.373 . S
C1445 C1429 1.377 . S
C1445 C1443 1.389 . S
C1445 C1446 1.524 . S
C1446 C1445 1.524 . S
C1446 C1447 1.397 . S
C1446 C1451 1.363 . S
C1447 H1418 0.950 . S
C1447 C1446 1.397 . S
C1447 C1448 1.334 . S
C1448 H1419 0.950 . S
C1448 C1447 1.334 . S
C1448 C1449 1.287 . S
C1449 C1448 1.287 . S
C1449 C1450 1.524 . S
C1449 H1452 0.999 . S
C1450 H1420 0.950 . S
C1450 C1449 1.524 . S
C1450 C1451 1.415 . S
C1451 H1421 0.950 . S
C1451 C1446 1.363 . S
C1451 C1450 1.415 . S
H1452 C1449 0.999 . S
H1453 C1434 0.913 . S
H1454 C1472 0.951 . S
H1455 C1474 0.951 . S
H1456 C1476 0.950 . S
H1457 C1477 0.950 . S
H1458 C1479 0.950 . S
H1459 C1482 0.950 . S
H1460 C1483 0.950 . S
H1461 C1485 0.950 . S
H1462 C1486 0.950 . S
H1463 C1487 0.951 . S
H1464 C1489 0.951 . S
H1465 C1491 0.950 . S
H1466 C1492 0.950 . S
H1467 C1494 0.950 . S
H1468 C1497 0.950 . S
H1469 C1498 0.950 . S
H1470 C1500 0.950 . S
H1471 C1501 0.950 . S
C1472 H1454 0.951 . S
C1472 C1473 1.366 . S
C1472 C1474 1.388 . S
C1473 C1472 1.366 . S
C1473 C1477 1.385 . S
C1474 H1455 0.951 . S
C1474 C1472 1.388 . S
C1474 C1475 1.366 . S
C1475 C1474 1.366 . S
C1475 C1476 1.414 . S
C1475 C1478 1.499 . S
C1476 H1456 0.950 . S
C1476 C1475 1.414 . S
C1476 C1477 1.374 . S
C1477 H1457 0.950 . S
C1477 C1473 1.385 . S
C1477 C1476 1.374 . S
C1478 C1475 1.499 . S
C1478 C1479 1.373 . S
C1478 C1480 1.389 . S
C1479 H1458 0.950 . S
C1479 C1478 1.373 . S
C1479 C1495 1.377 . S
C1480 C1478 1.389 . S
C1480 C1481 1.524 . S
C1480 C1494 1.377 . S
C1481 C1480 1.524 . S
C1481 C1482 1.397 . S
C1481 C1486 1.363 . S
C1482 H1459 0.950 . S
C1482 C1481 1.397 . S
C1482 C1483 1.334 . S
C1483 H1460 0.950 . S
C1483 C1482 1.334 . S
C1483 C1484 1.287 . S
C1484 C1483 1.287 . S
C1484 C1485 1.524 . S
C1484 H1503 0.913 . S
C1485 H1461 0.950 . S
C1485 C1484 1.524 . S
C1485 C1486 1.415 . S
C1486 H1462 0.950 . S
C1486 C1481 1.363 . S
C1486 C1485 1.415 . S
C1487 H1463 0.951 . S
C1487 C1488 1.366 . S
C1487 C1489 1.388 . S
C1488 C1487 1.366 . S
C1488 C1492 1.385 . S
C1489 H1464 0.951 . S
C1489 C1487 1.388 . S
C1489 C1490 1.366 . S
C1490 C1489 1.366 . S
C1490 C1491 1.414 . S
C1490 C1493 1.499 . S
C1491 H1465 0.950 . S
C1491 C1490 1.414 . S
C1491 C1492 1.374 . S
C1492 H1466 0.950 . S
C1492 C1488 1.385 . S
C1492 C1491 1.374 . S
C1493 C1490 1.499 . S
C1493 C1494 1.373 . S
C1493 C1495 1.389 . S
C1494 H1467 0.950 . S
C1494 C1480 1.377 . S
C1494 C1493 1.373 . S
C1495 C1479 1.377 . S
C1495 C1493 1.389 . S
C1495 C1496 1.524 . S
C1496 C1495 1.524 . S
C1496 C1497 1.397 . S
C1496 C1501 1.363 . S
C1497 H1468 0.950 . S
C1497 C1496 1.397 . S
C1497 C1498 1.334 . S
C1498 H1469 0.950 . S
C1498 C1497 1.334 . S
C1498 C1499 1.287 . S
C1499 C1498 1.287 . S
C1499 C1500 1.524 . S
C1499 H1502 0.999 . S
C1500 H1470 0.950 . S
C1500 C1499 1.524 . S
C1500 C1501 1.415 . S
C1501 H1471 0.950 . S
C1501 C1496 1.363 . S
C1501 C1500 1.415 . S
H1502 C1499 0.999 . S
H1503 C1484 0.913 . S
C723 C29 0.711 . S
C738 C585 0.711 . S
C773 C108 0.711 . S
C788 C673 0.711 . S
C823 C401 0.711 . S
C838 C196 0.711 . S
C873 C489 0.711 . S
C888 C293 0.711 . S
C923 C49 1.144 . S
C938 C469 1.144 . S
C973 C145 1.143 . S
C988 C548 1.144 . S
C1023 C636 1.144 . S
C1038 C233 1.144 . S
C1073 C313 1.144 . S
C1088 C381 1.144 . S
C1123 C409 1.255 . S
C1138 C20 1.256 . S
C1173 C117 1.255 . S
C1188 C497 1.255 . S
C1223 C205 1.255 . S
C1238 C577 1.255 . S
C1273 C665 1.255 . S
C1288 C284 1.255 . S
C1323 C557 1.673 . S
C1338 C57 1.673 . S
C1373 C645 1.673 . S
C1388 C137 1.673 . S
C1423 C225 1.673 . S
C1438 C372 1.673 . S
C1473 C321 1.673 . S
C1488 C460 1.673 . S
