# Generated by pormake.
# Topology sma, (6)-cn, num edge types: 1
# Building blocks:
#     Node 0, Type 0, BuildingBlock: PAMTOO_clean_sbu_0, # of connection points: 6
#     Node 1, Type 0, BuildingBlock: PAMTOO_clean_sbu_0, # of connection points: 6
#     Node 2, Type 0, BuildingBlock: PAMTOO_clean_sbu_0, # of connection points: 6
#     Edge 3, Type (0, 0), BuildingBlock: TEMPAE_clean_linker_10, # of connection points: 2
#     Edge 4, Type (0, 0), BuildingBlock: TEMPAE_clean_linker_10, # of connection points: 2
#     Edge 5, Type (0, 0), BuildingBlock: TEMPAE_clean_linker_10, # of connection points: 2
#     Edge 6, Type (0, 0), BuildingBlock: TEMPAE_clean_linker_10, # of connection points: 2
#     Edge 7, Type (0, 0), BuildingBlock: TEMPAE_clean_linker_10, # of connection points: 2
#     Edge 8, Type (0, 0), BuildingBlock: TEMPAE_clean_linker_10, # of connection points: 2
#     Edge 9, Type (0, 0), BuildingBlock: TEMPAE_clean_linker_10, # of connection points: 2
#     Edge 10, Type (0, 0), BuildingBlock: TEMPAE_clean_linker_10, # of connection points: 2
#     Edge 11, Type (0, 0), BuildingBlock: TEMPAE_clean_linker_10, # of connection points: 2
# Relax obj value: 0.152
# Max RMSD: 0.233
# Mean RMSD: 0.208
data_MOF--net-sma--node1-PAMTOO_clean_sbu_0--edge1-TEMPAE_clean_linker_10
_symmetry_space_group_name_H-M    P1
_symmetry_Int_Tables_number       1
_symmetry_cell_setting            triclinic
loop_
_symmetry_equiv_pos_as_xyz
'x, y, z'
_cell_length_a     30.879589
_cell_length_b     40.834933
_cell_length_c     14.173195
_cell_angle_alpha  90.950648
_cell_angle_beta   99.091212
_cell_angle_gamma 97.902284
loop_
_atom_site_label
_atom_site_type_symbol
_atom_site_fract_x
_atom_site_fract_y
_atom_site_fract_z
_atom_type_partial_charge
Dy0 Dy 0.08932 0.56521 -0.0191 0.0
Dy1 Dy 0.08275 0.48409 0.02927 0.0
C2 C 1.05522 0.50668 0.81632 0.0
O3 O 1.01776 0.54564 0.9409 0.0
O4 O 1.01545 0.49925 0.03248 0.0
O5 O 0.11883 0.60778 0.91257 0.0
O6 O 0.07097 0.61329 0.006 0.0
O7 O 0.12216 0.51884 0.14217 0.0
O8 O 0.07832 0.55787 0.12988 0.0
O9 O 0.14725 0.49612 -0.02504 0.0
O10 O 0.1585 0.55271 0.00597 0.0
O11 O 0.08136 0.45295 0.14975 0.0
O12 O 0.0803 0.43091 0.00879 0.0
C13 C 0.99571 0.52129 -0.01902 0.0
O14 O 0.07245 0.53758 0.8411 0.0
O15 O 1.05303 0.48248 0.87608 0.0
C16 C 0.12938 0.65707 0.00733 0.0
C17 C 0.18506 0.71252 0.10108 0.0
C18 C 0.1671 0.71317 0.0036 0.0
C19 C 0.13942 0.68568 0.95724 0.0
C20 C 0.14771 0.6561 0.10427 0.0
C21 C 0.17513 0.68365 0.15085 0.0
C22 C 0.09994 0.62842 0.95794 0.0
C23 C 0.10054 0.53841 0.18352 0.0
C24 C 0.17255 0.52514 -0.01785 0.0
C25 C 1.04261 0.39872 0.11837 0.0
C26 C 0.98359 0.3462 0.1752 0.0
C27 C 0.97833 0.37933 0.1929 0.0
C28 C 1.00744 0.40532 0.16454 0.0
C29 C 1.0472 0.36574 0.09841 0.0
C30 C 1.01796 0.33975 0.12622 0.0
C31 C 0.07683 0.42557 0.09813 0.0
H32 H 0.17387 0.73515 -0.03641 0.0
H33 H 0.12566 0.68682 0.88234 0.0
H34 H 0.14071 0.63408 0.14399 0.0
H35 H 0.18892 0.68226 0.22561 0.0
H36 H 0.9519 0.38518 0.22937 0.0
H37 H 1.00299 0.43055 0.1807 0.0
H38 H 0.07423 0.36005 0.06356 0.0
H39 H 1.02327 0.31457 0.11231 0.0
Dy40 Dy 0.54528 0.02513 0.54685 0.0
Dy41 Dy 0.65384 0.04255 0.53726 0.0
C42 C 0.61659 0.05978 0.72596 0.0
O43 O 0.55815 0.07997 0.56602 0.0
O44 O 0.62454 0.08969 0.50774 0.0
O45 O 0.49246 1.00115 0.61567 0.0
O46 O 0.47716 0.02379 0.47974 0.0
O47 O 0.61394 1.01236 0.4147 0.0
O48 O 0.55515 0.03905 0.40127 0.0
O49 O 0.64579 0.9939 0.60892 0.0
O50 O 0.57348 0.97773 0.53944 0.0
O51 O 0.69745 0.04974 0.43269 0.0
O52 O 0.72491 0.05258 0.58356 0.0
C53 C 0.59006 0.10019 0.53702 0.0
O54 O 0.57841 0.0413 0.69406 0.0
O55 O 0.64926 0.06551 0.67684 0.0
C56 C 0.43321 0.9741 0.50469 0.0
C57 C 0.37819 0.91606 0.42599 0.0
C58 C 0.4243 0.91937 0.42827 0.0
C59 C 0.45151 0.94816 0.467 0.0
C60 C 0.38739 0.97092 0.50344 0.0
C61 C 0.36004 0.94213 0.46431 0.0
C62 C 0.46189 1.00464 0.54323 0.0
C63 C 0.58436 0.02646 0.36099 0.0
C64 C 0.61096 0.9709 0.58769 0.0
C65 C 0.76052 0.08854 0.48013 0.0
C66 C 0.80866 0.14739 0.42642 0.0
C67 C 0.82254 0.11646 0.41251 0.0
C68 C 0.79866 0.08737 0.43901 0.0
C69 C 0.74679 0.11928 0.49574 0.0
C70 C 0.77067 0.14845 0.46932 0.0
C71 C 0.73285 0.05748 0.49661 0.0
H72 H 0.43929 0.89998 0.39825 0.0
H73 H 0.48682 0.95035 0.46661 0.0
H74 H 0.37275 0.99074 0.53223 0.0
H75 H 0.32472 0.9402 0.4645 0.0
H76 H 0.85111 0.11457 0.37826 0.0
H77 H 0.80932 0.06382 0.42491 0.0
H78 H 0.71709 0.12064 0.5265 0.0
H79 H 0.75923 0.17179 0.48204 0.0
Dy80 Dy 0.59199 0.5761 0.89032 0.0
Dy81 Dy 0.56482 0.49244 0.84598 0.0
C82 C 0.57232 0.52776 0.04706 0.0
O83 O 0.65326 0.55557 0.86598 0.0
O84 O 0.63761 0.50029 0.89759 0.0
O85 O 0.59118 0.62231 -0.03123 0.0
O86 O 0.6319 0.62041 0.85752 0.0
O87 O 0.58222 0.51995 0.7217 0.0
O88 O 0.55415 0.56747 0.74495 0.0
O89 O 0.49998 0.51265 0.83126 0.0
O90 O 0.51978 0.56539 0.90335 0.0
O91 O 0.53479 0.45254 0.74446 0.0
O92 O 0.5631 0.44188 0.8893 0.0
C93 C 0.66583 0.5267 0.88769 0.0
O94 O 0.6044 0.54863 0.02262 0.0
O95 O 0.54899 0.50507 -0.01338 0.0
C96 C 0.60845 0.67196 0.88568 0.0
C97 C 0.60482 0.73689 0.82054 0.0
C98 C 0.61792 0.73148 0.91808 0.0
C99 C 0.61981 0.69937 0.95014 0.0
C100 C 0.59349 0.67709 0.78887 0.0
C101 C 0.59176 0.70922 0.75665 0.0
C102 C 0.618 0.63913 0.91858 0.0
C103 C 0.55908 0.54306 0.68906 0.0
C104 C 0.48982 0.54 0.86832 0.0
C105 C 0.56088 0.40014 0.76851 0.0
C106 C 0.58194 0.33983 0.69889 0.0
C107 C 0.57829 0.36681 0.63892 0.0
C108 C 0.56784 0.39668 0.67333 0.0
C109 C 0.56559 0.37351 0.8288 0.0
C110 C 0.57605 0.34378 0.79461 0.0
C111 C 0.54454 0.42965 0.80445 0.0
H112 H 0.62854 0.75215 -0.03083 0.0
H113 H 0.63187 0.69604 0.02491 0.0
H114 H 0.58455 0.65635 0.73758 0.0
H115 H 0.58081 0.71244 0.68136 0.0
H116 H 0.583 0.36471 0.56506 0.0
H117 H 0.56426 0.41671 0.62483 0.0
H118 H 0.55977 0.37531 0.90202 0.0
H119 H 0.57777 0.32343 0.84246 0.0
C120 C 0.24487 0.50279 -0.00734 0.0
C121 C 0.21871 0.52737 -0.03651 0.0
C122 C 0.2892 0.50559 -0.02259 0.0
C123 C 0.30719 0.53301 0.92873 0.0
C124 C 0.2804 0.55745 0.89718 0.0
C125 C 0.23681 0.55463 0.91648 0.0
C126 C 0.31703 0.47956 0.01506 0.0
C127 C 0.29759 0.58641 0.84203 0.0
C128 C 0.43249 0.55732 0.95795 0.0
C129 C 0.4429 0.54059 0.87909 0.0
C130 C 0.38859 0.55482 -0.02449 0.0
C131 C 0.35399 0.53613 0.91073 0.0
C132 C 0.36417 0.52031 0.82886 0.0
C133 C 0.40854 0.52226 0.81495 0.0
C134 C 0.37942 0.57152 0.06469 0.0
C135 C 0.32821 0.50113 0.75622 0.0
H136 H 0.23104 0.48183 0.02967 0.0
H137 H 0.21646 0.57351 0.89296 0.0
H138 H 0.32975 0.46793 0.95572 0.0
H139 H 0.34619 0.49127 0.06634 0.0
H140 H 0.29821 0.45987 0.05168 0.0
H141 H 0.27193 0.6025 0.81897 0.0
H142 H 0.32629 0.60162 0.88662 0.0
H143 H 0.30939 0.57734 0.77771 0.0
H144 H 0.45893 0.57126 0.00834 0.0
H145 H 0.41638 0.50941 0.75363 0.0
H146 H 0.36149 0.55318 0.10696 0.0
H147 H 0.35778 0.59068 0.04502 0.0
H148 H 0.41027 0.58341 0.11072 0.0
H149 H 0.3117 0.47954 0.78978 0.0
H150 H 0.34128 0.49206 0.69349 0.0
H151 H 0.30253 0.5169 0.73078 0.0
C152 C 0.80995 0.20241 0.3483 0.0
C153 C 0.83305 0.17814 0.39353 0.0
C154 C 0.8325 0.23077 0.31323 0.0
C155 C 0.87932 0.23499 0.32319 0.0
C156 C 0.90286 0.21083 0.36987 0.0
C157 C 0.87951 0.18281 0.40458 0.0
C158 C 0.80615 0.25595 0.26408 0.0
C159 C 0.95279 0.21439 0.38228 0.0
C160 C 0.93858 0.28958 0.154 0.0
C161 C 0.95462 0.31845 0.21102 0.0
C162 C 0.91326 0.26255 0.18887 0.0
C163 C 0.90382 0.26429 0.28331 0.0
C164 C 0.91919 0.29359 0.34062 0.0
C165 C 0.94432 0.32029 0.30381 0.0
C166 C 0.89726 0.23188 0.12514 0.0
C167 C 0.90997 0.29646 0.4417 0.0
H168 H 0.77406 0.1989 0.33818 0.0
H169 H 0.89775 0.16452 0.44069 0.0
H170 H 0.81778 0.2808 0.29901 0.0
H171 H 0.8114 0.25758 0.18855 0.0
H172 H 0.77008 0.24969 0.2653 0.0
H173 H 0.9662 0.1937 0.42154 0.0
H174 H 0.96363 0.21525 0.31125 0.0
H175 H 0.96752 0.23799 0.42179 0.0
H176 H 0.94588 0.28811 0.08184 0.0
H177 H 0.95702 0.34232 0.34884 0.0
H178 H 0.86077 0.22561 0.11864 0.0
H179 H 0.91208 0.21059 0.15745 0.0
H180 H 0.90596 0.2349 0.05236 0.0
H181 H 0.87383 0.29112 0.44254 0.0
H182 H 0.92251 0.32141 0.47546 0.0
H183 H 0.92586 0.27786 0.4859 0.0
C184 C 0.57645 0.91169 0.58887 0.0
C185 C 0.61298 0.93627 0.61783 0.0
C186 C 0.57597 0.87929 0.62068 0.0
C187 C 0.61296 0.87095 0.68321 0.0
C188 C 0.65031 0.89541 0.71159 0.0
C189 C 0.64989 0.92776 0.67858 0.0
C190 C 0.53547 0.85408 0.58831 0.0
C191 C 0.69042 0.8875 0.77808 0.0
C192 C 0.59238 0.7963 0.8366 0.0
C193 C 0.60664 0.77125 0.78522 0.0
C194 C 0.59477 0.82888 0.80491 0.0
C195 C 0.61199 0.83676 0.71983 0.0
C196 C 0.62667 0.81165 0.66793 0.0
C197 C 0.62377 0.77927 0.70109 0.0
C198 C 0.57838 0.85481 0.86198 0.0
C199 C 0.64535 0.81897 0.5771 0.0
H200 H 0.54772 0.91777 0.54179 0.0
H201 H 0.6782 0.9465 0.70171 0.0
H202 H 0.54489 0.83248 0.55195 0.0
H203 H 0.52089 0.84485 0.65121 0.0
H204 H 0.50965 0.8644 0.53858 0.0
H205 H 0.71732 0.9089 0.79109 0.0
H206 H 0.68093 0.87998 0.84771 0.0
H207 H 0.70347 0.86635 0.74782 0.0
H208 H 0.57875 0.79033 0.90115 0.0
H209 H 0.63559 0.76026 0.66174 0.0
H210 H 0.55043 0.86455 0.81752 0.0
H211 H 0.60509 0.87596 0.88251 0.0
H212 H 0.56705 0.84494 0.92788 0.0
H213 H 0.61998 0.82785 0.523 0.0
H214 H 0.65633 0.79692 0.54628 0.0
H215 H 0.67398 0.83901 0.59128 0.0
C216 C 0.72868 0.4942 0.88183 0.0
C217 C 0.71379 0.52407 0.90221 0.0
C218 C 0.77422 0.49174 0.8943 0.0
C219 C 0.8055 0.51952 0.93074 0.0
C220 C 0.79049 0.54949 0.95352 0.0
C221 C 0.74489 0.55154 0.93764 0.0
C222 C 0.78888 0.45965 0.86657 0.0
C223 C 0.82261 0.57945 -0.0053 0.0
C224 C 0.923 0.5071 0.03869 0.0
C225 C 0.94685 0.51882 -0.03312 0.0
C226 C 0.87689 0.50697 0.0279 0.0
C227 C 0.854 0.51779 0.94194 0.0
C228 C 0.87784 0.52836 0.86774 0.0
C229 C 0.92401 0.52921 0.8817 0.0
C230 C 0.85296 0.49631 0.10968 0.0
C231 C 0.85466 0.53917 0.77392 0.0
H232 H 0.70473 0.47295 0.854 0.0
H233 H 0.73351 0.57457 0.9546 0.0
H234 H 0.80997 0.46398 0.81019 0.0
H235 H 0.80927 0.45015 0.92888 0.0
H236 H 0.76043 0.44033 0.83954 0.0
H237 H 0.80548 0.60019 0.01412 0.0
H238 H 0.84441 0.57282 0.05946 0.0
H239 H 0.84424 0.58818 0.94208 0.0
H240 H 0.94058 0.4991 0.10463 0.0
H241 H 0.94231 0.53787 0.82546 0.0
H242 H 0.82566 0.47589 0.08537 0.0
H243 H 0.8378 0.51725 0.13499 0.0
H244 H 0.87539 0.48794 0.17091 0.0
H245 H 0.82691 0.51986 0.74308 0.0
H246 H 0.87743 0.54413 0.72085 0.0
H247 H 0.84027 0.56202 0.78596 0.0
C248 C 0.36175 0.85439 0.39867 0.0
C249 C 0.34918 0.8858 0.3819 0.0
C250 C 0.33536 0.82572 0.35504 0.0
C251 C 0.29541 0.82849 0.29311 0.0
C252 C 0.28231 0.86007 0.27661 0.0
C253 C 0.30934 0.88833 0.32118 0.0
C254 C 0.35036 0.79247 0.37475 0.0
C255 C 0.23999 0.86406 0.21088 0.0
C256 C 0.24734 0.75934 0.10767 0.0
C257 C 0.21375 0.74196 0.15085 0.0
C258 C 0.27441 0.78736 0.15355 0.0
C259 C 0.26754 0.7984 0.24456 0.0
C260 C 0.23375 0.78092 0.28863 0.0
C261 C 0.20735 0.75285 0.24136 0.0
C262 C 0.31035 0.80518 0.10459 0.0
C263 C 0.2252 0.79205 0.38529 0.0
H264 H 0.39221 0.85221 0.44647 0.0
H265 H 0.2997 0.91253 0.30685 0.0
H266 H 0.32472 0.7761 0.40509 0.0
H267 H 0.35468 0.78031 0.30695 0.0
H268 H 0.38209 0.79453 0.42532 0.0
H269 H 0.23401 0.89025 0.20731 0.0
H270 H 0.24137 0.85467 0.13765 0.0
H271 H 0.21135 0.84915 0.23549 0.0
H272 H 0.25277 0.75078 0.03825 0.0
H273 H 0.1811 0.73973 0.27457 0.0
H274 H 0.34306 0.80588 0.1507 0.0
H275 H 0.30472 0.83117 0.0932 0.0
H276 H 0.31172 0.7932 0.03436 0.0
H277 H 0.25568 0.79287 0.43901 0.0
H278 H 0.19802 0.77548 0.41035 0.0
H279 H 0.21636 0.81749 0.38197 0.0
C280 C 0.61631 0.28748 0.71782 0.0
C281 C 0.58912 0.30697 0.66138 0.0
C282 C 0.61893 0.25484 0.68901 0.0
C283 C 0.59396 0.24128 0.60122 0.0
C284 C 0.56837 0.26138 0.54141 0.0
C285 C 0.56616 0.29393 0.57227 0.0
C286 C 0.64675 0.23433 0.75487 0.0
C287 C 0.54147 0.24795 0.44705 0.0
C288 C 0.62061 0.15909 0.51045 0.0
C289 C 0.58886 0.13638 0.54481 0.0
C290 C 0.62205 0.19339 0.52581 0.0
C291 C 0.59117 0.20526 0.5771 0.0
C292 C 0.55835 0.18249 0.60958 0.0
C293 C 0.55753 0.14844 0.59283 0.0
C294 C 0.65733 0.21685 0.48936 0.0
C295 C 0.52488 0.19403 0.6649 0.0
H296 H 0.63484 0.29754 0.7859 0.0
H297 H 0.54477 0.30862 0.52839 0.0
H298 H 0.62488 0.21413 0.78256 0.0
H299 H 0.66921 0.2226 0.7153 0.0
H300 H 0.66699 0.24926 0.81669 0.0
H301 H 0.52764 0.26769 0.40394 0.0
H302 H 0.56205 0.23533 0.40466 0.0
H303 H 0.5136 0.2293 0.4602 0.0
H304 H 0.64486 0.15009 0.47288 0.0
H305 H 0.53294 0.13123 0.62008 0.0
H306 H 0.68025 0.23004 0.55062 0.0
H307 H 0.64203 0.23585 0.44579 0.0
H308 H 0.67695 0.20384 0.44536 0.0
H309 H 0.54221 0.20689 0.73282 0.0
H310 H 0.50052 0.17326 0.68212 0.0
H311 H 0.50661 0.21206 0.62333 0.0
C312 C 1.04146 0.46993 0.66964 0.0
C313 C 1.03781 0.49986 0.71518 0.0
C314 C 1.03795 0.46791 0.56993 0.0
C315 C 1.03247 0.49674 0.51819 0.0
C316 C 1.02103 0.52483 0.5627 0.0
C317 C 1.02331 0.52582 0.66138 0.0
C318 C 1.0448 0.43634 0.52137 0.0
C319 C 1.01241 0.55552 0.50875 0.0
C320 C 0.11273 0.52352 0.35221 0.0
C321 C 0.08353 0.52671 0.2686 0.0
C322 C 0.09652 0.5119 0.43384 0.0
C323 C 1.05032 0.50136 0.42855 0.0
C324 C 1.02133 0.50191 0.34129 0.0
C325 C 1.03814 0.51591 0.26323 0.0
C326 C 0.12855 0.5129 0.5267 0.0
C327 C 0.97248 0.489 0.32964 0.0
H328 H 1.05083 0.44931 0.71157 0.0
H329 H 1.01798 0.54825 0.69726 0.0
H330 H 1.02538 0.43322 0.44802 0.0
H331 H 0.08032 0.43713 0.51551 0.0
H332 H 1.03504 0.41449 0.563 0.0
H333 H 1.00335 0.57497 0.5547 0.0
H334 H 1.0424 0.56599 0.47937 0.0
H335 H 0.98505 0.54919 0.44788 0.0
H336 H 0.14791 0.53141 0.35465 0.0
H337 H 1.01561 0.51815 0.19796 0.0
H338 H 0.12872 0.48766 0.55415 0.0
H339 H 0.1181 0.52848 0.58154 0.0
H340 H 0.16298 0.523 0.51841 0.0
H341 H 0.96293 0.47202 0.26544 0.0
H342 H 0.95305 0.50989 0.31676 0.0
H343 H 0.96299 0.47552 0.39224 0.0
C344 C 0.60417 1.02064 0.20129 0.0
C345 C 0.59657 0.04099 0.27471 0.0
C346 C 0.61617 0.03437 0.11813 0.0
C347 C 0.6227 0.06936 0.11159 0.0
C348 C 0.61862 0.09001 0.18952 0.0
C349 C 0.60415 0.07547 0.26941 0.0
C350 C 0.61944 1.01128 0.03576 0.0
C351 C 0.62796 0.12727 0.18875 0.0
C352 C 0.6633 0.07897 0.88141 0.0
C353 C 0.62203 0.0746 0.82201 0.0
C354 C 0.66557 0.08372 -0.01985 0.0
C355 C 0.62568 0.08306 0.01744 0.0
C356 C 0.58549 0.08507 0.95593 0.0
C357 C 0.5842 0.08081 0.85797 0.0
C358 C 0.70951 0.085 0.04494 0.0
C359 C 0.54261 0.08646 -0.00655 0.0
H360 H 0.59911 0.994 0.20767 0.0
H361 H 0.59919 0.09117 0.3279 0.0
H362 H 0.59548 1.01582 -0.02807 0.0
H363 H 0.6531 1.01583 0.01645 0.0
H364 H 0.61252 0.98481 0.05289 0.0
H365 H 0.64679 0.13731 0.259 0.0
H366 H 0.64704 0.13611 0.13179 0.0
H367 H 0.59618 0.13756 0.1785 0.0
H368 H 0.69294 0.0756 0.85251 0.0
H369 H 0.55274 0.07934 0.81042 0.0
H370 H 0.71443 0.05966 0.06698 0.0
H371 H 0.71048 0.10051 0.11057 0.0
H372 H 0.73733 0.09497 0.00782 0.0
H373 H 0.53249 0.06268 0.0262 0.0
H374 H 0.51534 0.09091 0.93604 0.0
H375 H 0.54705 0.10642 0.04948 0.0
C376 C 0.51633 0.56681 0.54996 0.0
C377 C 0.53711 0.54071 0.59008 0.0
C378 C 0.50242 0.56681 0.45139 0.0
C379 C 0.51088 0.54061 0.39409 0.0
C380 C 0.5247 0.51178 0.43627 0.0
C381 C 0.53775 0.51227 0.53461 0.0
C382 C 0.48418 0.59665 0.40871 0.0
C383 C 0.53275 0.4826 0.37748 0.0
C384 C 0.50949 0.52538 0.13635 0.0
C385 C 0.5545 0.5354 0.13242 0.0
C386 C 0.49209 0.5318 0.21849 0.0
C387 C 0.52104 0.54716 0.29845 0.0
C388 C 0.56528 0.56045 0.29114 0.0
C389 C 0.58145 0.55443 0.20731 0.0
C390 C 0.44387 0.5201 0.22232 0.0
C391 C 0.59699 0.57796 0.37477 0.0
H392 H 0.51359 0.58816 0.59401 0.0
H393 H 0.55152 0.49126 0.56678 0.0
H394 H 0.51175 0.61713 0.40808 0.0
H395 H 0.46649 0.59137 0.33445 0.0
H396 H 0.46116 0.60537 0.45323 0.0
H397 H 0.53869 0.46098 0.42187 0.0
H398 H 0.50414 0.47476 0.32036 0.0
H399 H 0.56228 0.48975 0.34275 0.0
H400 H 0.48796 0.51207 0.07599 0.0
H401 H 0.61579 0.56313 0.20227 0.0
H402 H 0.42883 0.53998 0.2538 0.0
H403 H 0.44069 0.49865 0.26889 0.0
H404 H 0.42478 0.51257 0.15031 0.0
H405 H 0.58226 0.59828 0.40466 0.0
H406 H 0.62913 0.58861 0.35434 0.0
H407 H 0.6037 0.56032 0.43221 0.0
loop_
_geom_bond_atom_site_label_1
_geom_bond_atom_site_label_2
_geom_bond_distance
_geom_bond_site_symmetry_2
_ccdc_geom_bond_type
Dy0 O3 2.307 1_455 S
Dy0 O5 2.395 . S
Dy0 O6 2.379 . S
Dy0 O8 2.339 . S
Dy0 O10 2.298 . S
Dy0 O14 2.275 . S
Dy0 C22 2.738 . S
Dy1 O4 2.298 1_455 S
Dy1 O7 2.275 . S
Dy1 O9 2.307 . S
Dy1 O11 2.395 1_455 S
Dy1 O12 2.379 1_455 S
Dy1 O15 2.339 1_554 S
Dy1 C31 2.738 1_455 S
C2 O14 1.254 1_556 S
C2 O15 1.257 . S
O3 Dy0 2.307 1_655 S
O3 C13 1.266 . S
O4 Dy1 2.298 1_655 S
O4 C13 1.236 . S
O5 Dy0 2.395 . S
O5 C22 1.255 . S
O6 Dy0 2.379 . S
O6 C22 1.249 . S
O7 Dy1 2.275 . S
O7 C23 1.254 . S
O8 Dy0 2.339 . S
O8 C23 1.257 . S
O9 Dy1 2.307 . S
O9 C24 1.266 . S
O10 Dy0 2.298 . S
O10 C24 1.236 . S
O11 Dy1 2.395 1_655 S
O11 C31 1.255 . S
O12 Dy1 2.379 1_655 S
O12 C31 1.249 . S
C13 O3 1.266 . S
C13 O4 1.236 . S
O14 Dy0 2.275 . S
O14 C2 1.254 1_554 S
O15 Dy1 2.339 1_556 S
O15 C2 1.257 . S
C16 C19 1.344 . S
C16 C20 1.328 . S
C16 C22 1.516 . S
C17 C18 1.304 . S
C17 C21 1.323 . S
C18 C17 1.304 . S
C18 C19 1.371 . S
C18 H32 0.930 1_554 S
C19 C16 1.344 . S
C19 C18 1.371 . S
C19 H33 0.931 1_554 S
C20 C16 1.328 . S
C20 C21 1.433 . S
C20 H34 0.931 . S
C21 C17 1.323 . S
C21 C20 1.433 . S
C21 H35 0.933 . S
C22 Dy0 2.738 . S
C22 O5 1.255 . S
C22 O6 1.249 . S
C22 C16 1.516 . S
C23 O7 1.254 . S
C23 O8 1.257 . S
C24 O9 1.266 . S
C24 O10 1.236 . S
C25 C28 1.344 . S
C25 C29 1.328 . S
C25 C31 1.516 . S
C26 C27 1.304 . S
C26 C30 1.323 . S
C27 C26 1.304 . S
C27 C28 1.371 . S
C27 H36 0.930 . S
C28 C25 1.344 . S
C28 C27 1.371 . S
C28 H37 0.931 . S
C29 C25 1.328 . S
C29 C30 1.433 . S
C29 H38 0.931 1_554 S
C30 C26 1.323 . S
C30 C29 1.433 . S
C30 H39 0.933 . S
C31 Dy1 2.738 1_655 S
C31 O11 1.255 . S
C31 O12 1.249 . S
C31 C25 1.516 . S
H32 C18 0.930 1_556 S
H33 C19 0.931 1_556 S
H34 C20 0.931 . S
H35 C21 0.933 . S
H36 C27 0.930 . S
H37 C28 0.931 . S
H38 C29 0.931 1_556 S
H39 C30 0.933 . S
Dy40 O43 2.307 1_565 S
Dy40 O45 2.395 . S
Dy40 O46 2.379 . S
Dy40 O48 2.339 1_565 S
Dy40 O50 2.298 . S
Dy40 O54 2.275 1_565 S
Dy40 C62 2.738 . S
Dy41 O44 2.298 . S
Dy41 O47 2.275 . S
Dy41 O49 2.307 1_545 S
Dy41 O51 2.395 . S
Dy41 O52 2.379 . S
Dy41 O55 2.339 . S
Dy41 C71 2.738 . S
C42 O54 1.254 . S
C42 O55 1.257 . S
O43 Dy40 2.307 1_545 S
O43 C53 1.266 . S
O44 Dy41 2.298 . S
O44 C53 1.236 . S
O45 Dy40 2.395 . S
O45 C62 1.255 . S
O46 Dy40 2.379 . S
O46 C62 1.249 . S
O47 Dy41 2.275 . S
O47 C63 1.254 . S
O48 Dy40 2.339 1_545 S
O48 C63 1.257 . S
O49 Dy41 2.307 1_565 S
O49 C64 1.266 . S
O50 Dy40 2.298 . S
O50 C64 1.236 . S
O51 Dy41 2.395 . S
O51 C71 1.255 . S
O52 Dy41 2.379 . S
O52 C71 1.249 . S
C53 O43 1.266 . S
C53 O44 1.236 . S
O54 Dy40 2.275 1_545 S
O54 C42 1.254 . S
O55 Dy41 2.339 . S
O55 C42 1.257 . S
C56 C59 1.344 . S
C56 C60 1.328 . S
C56 C62 1.516 . S
C57 C58 1.304 . S
C57 C61 1.323 . S
C58 C57 1.304 . S
C58 C59 1.371 . S
C58 H72 0.930 . S
C59 C56 1.344 . S
C59 C58 1.371 . S
C59 H73 0.931 . S
C60 C56 1.328 . S
C60 C61 1.433 . S
C60 H74 0.931 . S
C61 C57 1.323 . S
C61 C60 1.433 . S
C61 H75 0.933 . S
C62 Dy40 2.738 . S
C62 O45 1.255 . S
C62 O46 1.249 . S
C62 C56 1.516 . S
C63 O47 1.254 . S
C63 O48 1.257 . S
C64 O49 1.266 . S
C64 O50 1.236 . S
C65 C68 1.344 . S
C65 C69 1.328 . S
C65 C71 1.516 . S
C66 C67 1.304 . S
C66 C70 1.323 . S
C67 C66 1.304 . S
C67 C68 1.371 . S
C67 H76 0.930 . S
C68 C65 1.344 . S
C68 C67 1.371 . S
C68 H77 0.931 . S
C69 C65 1.328 . S
C69 C70 1.433 . S
C69 H78 0.931 . S
C70 C66 1.323 . S
C70 C69 1.433 . S
C70 H79 0.933 . S
C71 Dy41 2.738 . S
C71 O51 1.255 . S
C71 O52 1.249 . S
C71 C65 1.516 . S
H72 C58 0.930 . S
H73 C59 0.931 . S
H74 C60 0.931 . S
H75 C61 0.933 . S
H76 C67 0.930 . S
H77 C68 0.931 . S
H78 C69 0.931 . S
H79 C70 0.933 . S
Dy80 O83 2.307 . S
Dy80 O85 2.395 . S
Dy80 O86 2.379 . S
Dy80 O88 2.339 . S
Dy80 O90 2.298 . S
Dy80 O94 2.275 . S
Dy80 C102 2.738 . S
Dy81 O84 2.298 . S
Dy81 O87 2.275 . S
Dy81 O89 2.307 . S
Dy81 O91 2.395 . S
Dy81 O92 2.379 . S
Dy81 O95 2.339 1_556 S
Dy81 C111 2.738 . S
C82 O94 1.254 1_554 S
C82 O95 1.257 . S
O83 Dy80 2.307 . S
O83 C93 1.266 . S
O84 Dy81 2.298 . S
O84 C93 1.236 . S
O85 Dy80 2.395 . S
O85 C102 1.255 . S
O86 Dy80 2.379 . S
O86 C102 1.249 . S
O87 Dy81 2.275 . S
O87 C103 1.254 . S
O88 Dy80 2.339 . S
O88 C103 1.257 . S
O89 Dy81 2.307 . S
O89 C104 1.266 . S
O90 Dy80 2.298 . S
O90 C104 1.236 . S
O91 Dy81 2.395 . S
O91 C111 1.255 . S
O92 Dy81 2.379 . S
O92 C111 1.249 . S
C93 O83 1.266 . S
C93 O84 1.236 . S
O94 Dy80 2.275 . S
O94 C82 1.254 1_556 S
O95 Dy81 2.339 1_554 S
O95 C82 1.257 . S
C96 C99 1.344 . S
C96 C100 1.328 . S
C96 C102 1.516 . S
C97 C98 1.304 . S
C97 C101 1.323 . S
C98 C97 1.304 . S
C98 C99 1.371 . S
C98 H112 0.930 1_556 S
C99 C96 1.344 . S
C99 C98 1.371 . S
C99 H113 0.931 1_556 S
C100 C96 1.328 . S
C100 C101 1.433 . S
C100 H114 0.931 . S
C101 C97 1.323 . S
C101 C100 1.433 . S
C101 H115 0.933 . S
C102 Dy80 2.738 . S
C102 O85 1.255 . S
C102 O86 1.249 . S
C102 C96 1.516 . S
C103 O87 1.254 . S
C103 O88 1.257 . S
C104 O89 1.266 . S
C104 O90 1.236 . S
C105 C108 1.344 . S
C105 C109 1.328 . S
C105 C111 1.516 . S
C106 C107 1.304 . S
C106 C110 1.323 . S
C107 C106 1.304 . S
C107 C108 1.371 . S
C107 H116 0.930 . S
C108 C105 1.344 . S
C108 C107 1.371 . S
C108 H117 0.931 . S
C109 C105 1.328 . S
C109 C110 1.433 . S
C109 H118 0.931 . S
C110 C106 1.323 . S
C110 C109 1.433 . S
C110 H119 0.933 . S
C111 Dy81 2.738 . S
C111 O91 1.255 . S
C111 O92 1.249 . S
C111 C105 1.516 . S
H112 C98 0.930 1_554 S
H113 C99 0.931 1_554 S
H114 C100 0.931 . S
H115 C101 0.933 . S
H116 C107 0.930 . S
H117 C108 0.931 . S
H118 C109 0.931 . S
H119 C110 0.933 . S
C120 C121 1.391 . S
C120 C122 1.394 . S
C120 H136 0.931 . S
C121 C120 1.391 . S
C121 C125 1.376 1_554 S
C122 C120 1.394 . S
C122 C123 1.369 1_554 S
C122 C126 1.531 . S
C123 C122 1.369 1_556 S
C123 C124 1.410 . S
C123 C131 1.503 . S
C124 C123 1.410 . S
C124 C125 1.392 . S
C124 C127 1.511 . S
C125 C121 1.376 1_556 S
C125 C124 1.392 . S
C125 H137 0.929 . S
C126 C122 1.531 . S
C126 H138 0.960 . S
C126 H139 0.962 . S
C126 H140 0.960 . S
C127 C124 1.511 . S
C127 H141 0.961 . S
C127 H142 0.961 . S
C127 H143 0.961 . S
C128 C129 1.370 . S
C128 C130 1.363 . S
C128 H144 0.931 . S
C129 C128 1.370 . S
C129 C133 1.408 . S
C130 C128 1.363 . S
C130 C131 1.370 . S
C130 C134 1.524 1_556 S
C131 C123 1.503 . S
C131 C130 1.370 . S
C131 C132 1.403 . S
C132 C131 1.403 . S
C132 C133 1.404 . S
C132 C135 1.539 . S
C133 C129 1.408 . S
C133 C132 1.404 . S
C133 H145 0.930 . S
C134 C130 1.524 1_554 S
C134 H146 0.956 . S
C134 H147 0.961 1_554 S
C134 H148 0.961 . S
C135 C132 1.539 . S
C135 H149 0.958 . S
C135 H150 0.961 . S
C135 H151 0.960 . S
H136 C120 0.931 . S
H137 C125 0.929 . S
H138 C126 0.960 . S
H139 C126 0.962 . S
H140 C126 0.960 . S
H141 C127 0.961 . S
H142 C127 0.961 . S
H143 C127 0.961 . S
H144 C128 0.931 . S
H145 C133 0.930 . S
H146 C134 0.956 . S
H147 C134 0.961 1_556 S
H148 C134 0.961 . S
H149 C135 0.958 . S
H150 C135 0.961 . S
H151 C135 0.960 . S
C152 C153 1.391 . S
C152 C154 1.394 . S
C152 H168 0.931 . S
C153 C152 1.391 . S
C153 C157 1.376 . S
C154 C152 1.394 . S
C154 C155 1.369 . S
C154 C158 1.531 . S
C155 C154 1.369 . S
C155 C156 1.410 . S
C155 C163 1.503 . S
C156 C155 1.410 . S
C156 C157 1.392 . S
C156 C159 1.511 . S
C157 C153 1.376 . S
C157 C156 1.392 . S
C157 H169 0.929 . S
C158 C154 1.531 . S
C158 H170 0.960 . S
C158 H171 0.962 . S
C158 H172 0.960 . S
C159 C156 1.511 . S
C159 H173 0.961 . S
C159 H174 0.961 . S
C159 H175 0.961 . S
C160 C161 1.370 . S
C160 C162 1.363 . S
C160 H176 0.931 . S
C161 C160 1.370 . S
C161 C165 1.408 . S
C162 C160 1.363 . S
C162 C163 1.370 . S
C162 C166 1.524 . S
C163 C155 1.503 . S
C163 C162 1.370 . S
C163 C164 1.403 . S
C164 C163 1.403 . S
C164 C165 1.404 . S
C164 C167 1.539 . S
C165 C161 1.408 . S
C165 C164 1.404 . S
C165 H177 0.930 . S
C166 C162 1.524 . S
C166 H178 0.956 . S
C166 H179 0.961 . S
C166 H180 0.961 . S
C167 C164 1.539 . S
C167 H181 0.958 . S
C167 H182 0.961 . S
C167 H183 0.960 . S
H168 C152 0.931 . S
H169 C157 0.929 . S
H170 C158 0.960 . S
H171 C158 0.962 . S
H172 C158 0.960 . S
H173 C159 0.961 . S
H174 C159 0.961 . S
H175 C159 0.961 . S
H176 C160 0.931 . S
H177 C165 0.930 . S
H178 C166 0.956 . S
H179 C166 0.961 . S
H180 C166 0.961 . S
H181 C167 0.958 . S
H182 C167 0.961 . S
H183 C167 0.960 . S
C184 C185 1.391 . S
C184 C186 1.394 . S
C184 H200 0.931 . S
C185 C184 1.391 . S
C185 C189 1.376 . S
C186 C184 1.394 . S
C186 C187 1.369 . S
C186 C190 1.531 . S
C187 C186 1.369 . S
C187 C188 1.410 . S
C187 C195 1.503 . S
C188 C187 1.410 . S
C188 C189 1.392 . S
C188 C191 1.511 . S
C189 C185 1.376 . S
C189 C188 1.392 . S
C189 H201 0.929 . S
C190 C186 1.531 . S
C190 H202 0.960 . S
C190 H203 0.962 . S
C190 H204 0.960 . S
C191 C188 1.511 . S
C191 H205 0.961 . S
C191 H206 0.961 . S
C191 H207 0.961 . S
C192 C193 1.370 . S
C192 C194 1.363 . S
C192 H208 0.931 . S
C193 C192 1.370 . S
C193 C197 1.408 . S
C194 C192 1.363 . S
C194 C195 1.370 . S
C194 C198 1.524 . S
C195 C187 1.503 . S
C195 C194 1.370 . S
C195 C196 1.403 . S
C196 C195 1.403 . S
C196 C197 1.404 . S
C196 C199 1.539 . S
C197 C193 1.408 . S
C197 C196 1.404 . S
C197 H209 0.930 . S
C198 C194 1.524 . S
C198 H210 0.956 . S
C198 H211 0.961 . S
C198 H212 0.961 . S
C199 C196 1.539 . S
C199 H213 0.958 . S
C199 H214 0.961 . S
C199 H215 0.960 . S
H200 C184 0.931 . S
H201 C189 0.929 . S
H202 C190 0.960 . S
H203 C190 0.962 . S
H204 C190 0.960 . S
H205 C191 0.961 . S
H206 C191 0.961 . S
H207 C191 0.961 . S
H208 C192 0.931 . S
H209 C197 0.930 . S
H210 C198 0.956 . S
H211 C198 0.961 . S
H212 C198 0.961 . S
H213 C199 0.958 . S
H214 C199 0.961 . S
H215 C199 0.960 . S
C216 C217 1.391 . S
C216 C218 1.394 . S
C216 H232 0.931 . S
C217 C216 1.391 . S
C217 C221 1.376 . S
C218 C216 1.394 . S
C218 C219 1.369 . S
C218 C222 1.531 . S
C219 C218 1.369 . S
C219 C220 1.410 . S
C219 C227 1.503 . S
C220 C219 1.410 . S
C220 C221 1.392 . S
C220 C223 1.511 . S
C221 C217 1.376 . S
C221 C220 1.392 . S
C221 H233 0.929 . S
C222 C218 1.531 . S
C222 H234 0.960 . S
C222 H235 0.962 1_556 S
C222 H236 0.960 . S
C223 C220 1.511 . S
C223 H237 0.961 . S
C223 H238 0.961 . S
C223 H239 0.961 . S
C224 C225 1.370 . S
C224 C226 1.363 . S
C224 H240 0.931 . S
C225 C224 1.370 . S
C225 C229 1.408 1_554 S
C226 C224 1.363 . S
C226 C227 1.370 1_554 S
C226 C230 1.524 . S
C227 C219 1.503 . S
C227 C226 1.370 1_556 S
C227 C228 1.403 . S
C228 C227 1.403 . S
C228 C229 1.404 . S
C228 C231 1.539 . S
C229 C225 1.408 1_556 S
C229 C228 1.404 . S
C229 H241 0.930 . S
C230 C226 1.524 . S
C230 H242 0.956 . S
C230 H243 0.961 . S
C230 H244 0.961 . S
C231 C228 1.539 . S
C231 H245 0.958 . S
C231 H246 0.961 . S
C231 H247 0.960 . S
H232 C216 0.931 . S
H233 C221 0.929 . S
H234 C222 0.960 . S
H235 C222 0.962 1_554 S
H236 C222 0.960 . S
H237 C223 0.961 . S
H238 C223 0.961 . S
H239 C223 0.961 . S
H240 C224 0.931 . S
H241 C229 0.930 . S
H242 C230 0.956 . S
H243 C230 0.961 . S
H244 C230 0.961 . S
H245 C231 0.958 . S
H246 C231 0.961 . S
H247 C231 0.960 . S
C248 C249 1.391 . S
C248 C250 1.394 . S
C248 H264 0.931 . S
C249 C248 1.391 . S
C249 C253 1.376 . S
C250 C248 1.394 . S
C250 C251 1.369 . S
C250 C254 1.531 . S
C251 C250 1.369 . S
C251 C252 1.410 . S
C251 C259 1.503 . S
C252 C251 1.410 . S
C252 C253 1.392 . S
C252 C255 1.511 . S
C253 C249 1.376 . S
C253 C252 1.392 . S
C253 H265 0.929 . S
C254 C250 1.531 . S
C254 H266 0.960 . S
C254 H267 0.962 . S
C254 H268 0.960 . S
C255 C252 1.511 . S
C255 H269 0.961 . S
C255 H270 0.961 . S
C255 H271 0.961 . S
C256 C257 1.370 . S
C256 C258 1.363 . S
C256 H272 0.931 . S
C257 C256 1.370 . S
C257 C261 1.408 . S
C258 C256 1.363 . S
C258 C259 1.370 . S
C258 C262 1.524 . S
C259 C251 1.503 . S
C259 C258 1.370 . S
C259 C260 1.403 . S
C260 C259 1.403 . S
C260 C261 1.404 . S
C260 C263 1.539 . S
C261 C257 1.408 . S
C261 C260 1.404 . S
C261 H273 0.930 . S
C262 C258 1.524 . S
C262 H274 0.956 . S
C262 H275 0.961 . S
C262 H276 0.961 . S
C263 C260 1.539 . S
C263 H277 0.958 . S
C263 H278 0.961 . S
C263 H279 0.960 . S
H264 C248 0.931 . S
H265 C253 0.929 . S
H266 C254 0.960 . S
H267 C254 0.962 . S
H268 C254 0.960 . S
H269 C255 0.961 . S
H270 C255 0.961 . S
H271 C255 0.961 . S
H272 C256 0.931 . S
H273 C261 0.930 . S
H274 C262 0.956 . S
H275 C262 0.961 . S
H276 C262 0.961 . S
H277 C263 0.958 . S
H278 C263 0.961 . S
H279 C263 0.960 . S
C280 C281 1.391 . S
C280 C282 1.394 . S
C280 H296 0.931 . S
C281 C280 1.391 . S
C281 C285 1.376 . S
C282 C280 1.394 . S
C282 C283 1.369 . S
C282 C286 1.531 . S
C283 C282 1.369 . S
C283 C284 1.410 . S
C283 C291 1.503 . S
C284 C283 1.410 . S
C284 C285 1.392 . S
C284 C287 1.511 . S
C285 C281 1.376 . S
C285 C284 1.392 . S
C285 H297 0.929 . S
C286 C282 1.531 . S
C286 H298 0.960 . S
C286 H299 0.962 . S
C286 H300 0.960 . S
C287 C284 1.511 . S
C287 H301 0.961 . S
C287 H302 0.961 . S
C287 H303 0.961 . S
C288 C289 1.370 . S
C288 C290 1.363 . S
C288 H304 0.931 . S
C289 C288 1.370 . S
C289 C293 1.408 . S
C290 C288 1.363 . S
C290 C291 1.370 . S
C290 C294 1.524 . S
C291 C283 1.503 . S
C291 C290 1.370 . S
C291 C292 1.403 . S
C292 C291 1.403 . S
C292 C293 1.404 . S
C292 C295 1.539 . S
C293 C289 1.408 . S
C293 C292 1.404 . S
C293 H305 0.930 . S
C294 C290 1.524 . S
C294 H306 0.956 . S
C294 H307 0.961 . S
C294 H308 0.961 . S
C295 C292 1.539 . S
C295 H309 0.958 . S
C295 H310 0.961 . S
C295 H311 0.960 . S
H296 C280 0.931 . S
H297 C285 0.929 . S
H298 C286 0.960 . S
H299 C286 0.962 . S
H300 C286 0.960 . S
H301 C287 0.961 . S
H302 C287 0.961 . S
H303 C287 0.961 . S
H304 C288 0.931 . S
H305 C293 0.930 . S
H306 C294 0.956 . S
H307 C294 0.961 . S
H308 C294 0.961 . S
H309 C295 0.958 . S
H310 C295 0.961 . S
H311 C295 0.960 . S
C312 C313 1.391 1_655 S
C312 C314 1.394 . S
C312 H328 0.931 . S
C313 C312 1.391 1_455 S
C313 C317 1.376 . S
C314 C312 1.394 . S
C314 C315 1.369 1_655 S
C314 C318 1.531 . S
C315 C314 1.369 1_455 S
C315 C316 1.410 . S
C315 C323 1.503 . S
C316 C315 1.410 . S
C316 C317 1.392 . S
C316 C319 1.511 . S
C317 C313 1.376 . S
C317 C316 1.392 . S
C317 H329 0.929 . S
C318 C314 1.531 . S
C318 H330 0.960 . S
C318 H331 0.962 . S
C318 H332 0.960 . S
C319 C316 1.511 . S
C319 H333 0.961 . S
C319 H334 0.961 . S
C319 H335 0.961 . S
C320 C321 1.370 . S
C320 C322 1.363 . S
C320 H336 0.931 . S
C321 C320 1.370 . S
C321 C325 1.408 . S
C322 C320 1.363 . S
C322 C323 1.370 . S
C322 C326 1.524 . S
C323 C315 1.503 . S
C323 C322 1.370 . S
C323 C324 1.403 . S
C324 C323 1.403 . S
C324 C325 1.404 . S
C324 C327 1.539 . S
C325 C321 1.408 . S
C325 C324 1.404 . S
C325 H337 0.930 . S
C326 C322 1.524 . S
C326 H338 0.956 . S
C326 H339 0.961 . S
C326 H340 0.961 . S
C327 C324 1.539 . S
C327 H341 0.958 1_455 S
C327 H342 0.961 . S
C327 H343 0.960 . S
H328 C312 0.931 . S
H329 C317 0.929 . S
H330 C318 0.960 . S
H331 C318 0.962 . S
H332 C318 0.960 . S
H333 C319 0.961 . S
H334 C319 0.961 . S
H335 C319 0.961 . S
H336 C320 0.931 . S
H337 C325 0.930 . S
H338 C326 0.956 . S
H339 C326 0.961 . S
H340 C326 0.961 . S
H341 C327 0.958 1_655 S
H342 C327 0.961 . S
H343 C327 0.960 . S
C344 C345 1.391 1_565 S
C344 C346 1.394 . S
C344 H360 0.931 . S
C345 C344 1.391 1_545 S
C345 C349 1.376 . S
C346 C344 1.394 . S
C346 C347 1.369 1_565 S
C346 C350 1.531 . S
C347 C346 1.369 1_545 S
C347 C348 1.410 . S
C347 C355 1.503 1_554 S
C348 C347 1.410 . S
C348 C349 1.392 . S
C348 C351 1.511 . S
C349 C345 1.376 . S
C349 C348 1.392 . S
C349 H361 0.929 . S
C350 C346 1.531 . S
C350 H362 0.960 . S
C350 H363 0.962 . S
C350 H364 0.960 . S
C351 C348 1.511 . S
C351 H365 0.961 . S
C351 H366 0.952 1_554 S
C351 H367 0.961 . S
C352 C353 1.370 . S
C352 C354 1.363 . S
C352 H368 0.931 . S
C353 C352 1.370 . S
C353 C357 1.408 1_545 S
C354 C352 1.363 . S
C354 C355 1.370 . S
C354 C358 1.524 1_556 S
C355 C347 1.503 1_556 S
C355 C354 1.370 . S
C355 C356 1.403 1_545 S
C356 C355 1.403 1_565 S
C356 C357 1.404 . S
C356 C359 1.539 . S
C357 C353 1.408 1_565 S
C357 C356 1.404 . S
C357 H369 0.930 . S
C358 C354 1.524 1_554 S
C358 H370 0.956 . S
C358 H371 0.961 . S
C358 H372 0.961 1_554 S
C359 C356 1.539 . S
C359 H373 0.958 . S
C359 H374 0.961 . S
C359 H375 0.960 . S
H360 C344 0.931 . S
H361 C349 0.929 . S
H362 C350 0.960 . S
H363 C350 0.962 . S
H364 C350 0.960 . S
H365 C351 0.961 . S
H366 C351 0.952 1_556 S
H367 C351 0.961 . S
H368 C352 0.931 . S
H369 C357 0.930 . S
H370 C358 0.956 . S
H371 C358 0.961 . S
H372 C358 0.961 1_556 S
H373 C359 0.958 . S
H374 C359 0.961 . S
H375 C359 0.960 . S
C376 C377 1.391 . S
C376 C378 1.394 . S
C376 H392 0.931 . S
C377 C376 1.391 . S
C377 C381 1.376 . S
C378 C376 1.394 . S
C378 C379 1.369 . S
C378 C382 1.531 . S
C379 C378 1.369 . S
C379 C380 1.410 . S
C379 C387 1.503 . S
C380 C379 1.410 . S
C380 C381 1.392 . S
C380 C383 1.511 . S
C381 C377 1.376 . S
C381 C380 1.392 . S
C381 H393 0.929 . S
C382 C378 1.531 . S
C382 H394 0.960 . S
C382 H395 0.962 . S
C382 H396 0.960 . S
C383 C380 1.511 . S
C383 H397 0.961 . S
C383 H398 0.961 . S
C383 H399 0.961 . S
C384 C385 1.370 . S
C384 C386 1.363 . S
C384 H400 0.931 . S
C385 C384 1.370 . S
C385 C389 1.408 . S
C386 C384 1.363 . S
C386 C387 1.370 . S
C386 C390 1.524 . S
C387 C379 1.503 . S
C387 C386 1.370 . S
C387 C388 1.403 . S
C388 C387 1.403 . S
C388 C389 1.404 . S
C388 C391 1.539 . S
C389 C385 1.408 . S
C389 C388 1.404 . S
C389 H401 0.930 . S
C390 C386 1.524 . S
C390 H402 0.956 . S
C390 H403 0.961 . S
C390 H404 0.961 . S
C391 C388 1.539 . S
C391 H405 0.958 . S
C391 H406 0.961 . S
C391 H407 0.960 . S
H392 C376 0.931 . S
H393 C381 0.929 . S
H394 C382 0.960 . S
H395 C382 0.962 . S
H396 C382 0.960 . S
H397 C383 0.961 . S
H398 C383 0.961 . S
H399 C383 0.961 . S
H400 C384 0.931 . S
H401 C389 0.930 . S
H402 C390 0.956 . S
H403 C390 0.961 . S
H404 C390 0.961 . S
H405 C391 0.958 . S
H406 C391 0.961 . S
H407 C391 0.960 . S
C121 C24 2.960 . S
C129 C104 2.943 . S
C153 C66 1.517 . S
C161 C26 1.497 . S
C185 C64 2.460 . S
C193 C97 2.401 . S
C217 C93 2.512 . S
C225 C13 2.508 . S
C249 C57 1.434 . S
C257 C17 1.424 . S
C281 C106 1.951 . S
C289 C53 1.909 . S
C313 C2 0.595 . S
C321 C23 0.510 . S
C345 C63 0.478 . S
C353 C42 0.575 . S
C377 C103 0.531 . S
C385 C82 0.584 . S
