# Generated by pormake.
# Topology vbf, (5)-cn, num edge types: 1
# Building blocks:
#     Node 0, Type 0, BuildingBlock: BEQFEK_clean_sbu_0, # of connection points: 5
#     Node 1, Type 0, BuildingBlock: BEQFEK_clean_sbu_0, # of connection points: 5
#     Node 2, Type 0, BuildingBlock: BEQFEK_clean_sbu_0, # of connection points: 5
#     Node 3, Type 0, BuildingBlock: BEQFEK_clean_sbu_0, # of connection points: 5
#     Node 4, Type 0, BuildingBlock: BEQFEK_clean_sbu_0, # of connection points: 5
#     Node 5, Type 0, BuildingBlock: BEQFEK_clean_sbu_0, # of connection points: 5
#     Node 6, Type 0, BuildingBlock: BEQFEK_clean_sbu_0, # of connection points: 5
#     Node 7, Type 0, BuildingBlock: BEQFEK_clean_sbu_0, # of connection points: 5
#     Node 8, Type 0, BuildingBlock: BEQFEK_clean_sbu_0, # of connection points: 5
#     Node 9, Type 0, BuildingBlock: BEQFEK_clean_sbu_0, # of connection points: 5
#     Node 10, Type 0, BuildingBlock: BEQFEK_clean_sbu_0, # of connection points: 5
#     Node 11, Type 0, BuildingBlock: BEQFEK_clean_sbu_0, # of connection points: 5
#     Node 12, Type 0, BuildingBlock: BEQFEK_clean_sbu_0, # of connection points: 5
#     Node 13, Type 0, BuildingBlock: BEQFEK_clean_sbu_0, # of connection points: 5
#     Node 14, Type 0, BuildingBlock: BEQFEK_clean_sbu_0, # of connection points: 5
#     Node 15, Type 0, BuildingBlock: BEQFEK_clean_sbu_0, # of connection points: 5
#     Edge 16, Type (0, 0), BuildingBlock: EZIPEK_clean_linker_0, # of connection points: 2
#     Edge 17, Type (0, 0), BuildingBlock: EZIPEK_clean_linker_0, # of connection points: 2
#     Edge 18, Type (0, 0), BuildingBlock: EZIPEK_clean_linker_0, # of connection points: 2
#     Edge 19, Type (0, 0), BuildingBlock: EZIPEK_clean_linker_0, # of connection points: 2
#     Edge 20, Type (0, 0), BuildingBlock: EZIPEK_clean_linker_0, # of connection points: 2
#     Edge 21, Type (0, 0), BuildingBlock: EZIPEK_clean_linker_0, # of connection points: 2
#     Edge 22, Type (0, 0), BuildingBlock: EZIPEK_clean_linker_0, # of connection points: 2
#     Edge 23, Type (0, 0), BuildingBlock: EZIPEK_clean_linker_0, # of connection points: 2
#     Edge 24, Type (0, 0), BuildingBlock: EZIPEK_clean_linker_0, # of connection points: 2
#     Edge 25, Type (0, 0), BuildingBlock: EZIPEK_clean_linker_0, # of connection points: 2
#     Edge 26, Type (0, 0), BuildingBlock: EZIPEK_clean_linker_0, # of connection points: 2
#     Edge 27, Type (0, 0), BuildingBlock: EZIPEK_clean_linker_0, # of connection points: 2
#     Edge 28, Type (0, 0), BuildingBlock: EZIPEK_clean_linker_0, # of connection points: 2
#     Edge 29, Type (0, 0), BuildingBlock: EZIPEK_clean_linker_0, # of connection points: 2
#     Edge 30, Type (0, 0), BuildingBlock: EZIPEK_clean_linker_0, # of connection points: 2
#     Edge 31, Type (0, 0), BuildingBlock: EZIPEK_clean_linker_0, # of connection points: 2
#     Edge 32, Type (0, 0), BuildingBlock: EZIPEK_clean_linker_0, # of connection points: 2
#     Edge 33, Type (0, 0), BuildingBlock: EZIPEK_clean_linker_0, # of connection points: 2
#     Edge 34, Type (0, 0), BuildingBlock: EZIPEK_clean_linker_0, # of connection points: 2
#     Edge 35, Type (0, 0), BuildingBlock: EZIPEK_clean_linker_0, # of connection points: 2
#     Edge 36, Type (0, 0), BuildingBlock: EZIPEK_clean_linker_0, # of connection points: 2
#     Edge 37, Type (0, 0), BuildingBlock: EZIPEK_clean_linker_0, # of connection points: 2
#     Edge 38, Type (0, 0), BuildingBlock: EZIPEK_clean_linker_0, # of connection points: 2
#     Edge 39, Type (0, 0), BuildingBlock: EZIPEK_clean_linker_0, # of connection points: 2
#     Edge 40, Type (0, 0), BuildingBlock: EZIPEK_clean_linker_0, # of connection points: 2
#     Edge 41, Type (0, 0), BuildingBlock: EZIPEK_clean_linker_0, # of connection points: 2
#     Edge 42, Type (0, 0), BuildingBlock: EZIPEK_clean_linker_0, # of connection points: 2
#     Edge 43, Type (0, 0), BuildingBlock: EZIPEK_clean_linker_0, # of connection points: 2
#     Edge 44, Type (0, 0), BuildingBlock: EZIPEK_clean_linker_0, # of connection points: 2
#     Edge 45, Type (0, 0), BuildingBlock: EZIPEK_clean_linker_0, # of connection points: 2
#     Edge 46, Type (0, 0), BuildingBlock: EZIPEK_clean_linker_0, # of connection points: 2
#     Edge 47, Type (0, 0), BuildingBlock: EZIPEK_clean_linker_0, # of connection points: 2
#     Edge 48, Type (0, 0), BuildingBlock: EZIPEK_clean_linker_0, # of connection points: 2
#     Edge 49, Type (0, 0), BuildingBlock: EZIPEK_clean_linker_0, # of connection points: 2
#     Edge 50, Type (0, 0), BuildingBlock: EZIPEK_clean_linker_0, # of connection points: 2
#     Edge 51, Type (0, 0), BuildingBlock: EZIPEK_clean_linker_0, # of connection points: 2
#     Edge 52, Type (0, 0), BuildingBlock: EZIPEK_clean_linker_0, # of connection points: 2
#     Edge 53, Type (0, 0), BuildingBlock: EZIPEK_clean_linker_0, # of connection points: 2
#     Edge 54, Type (0, 0), BuildingBlock: EZIPEK_clean_linker_0, # of connection points: 2
#     Edge 55, Type (0, 0), BuildingBlock: EZIPEK_clean_linker_0, # of connection points: 2
# Relax obj value: 0.048
# Max RMSD: 0.099
# Mean RMSD: 0.099
data_MOF--net-vbf--node1-BEQFEK_clean_sbu_0--edge1-EZIPEK_clean_linker_0
_symmetry_space_group_name_H-M    P1
_symmetry_Int_Tables_number       1
_symmetry_cell_setting            triclinic
loop_
_symmetry_equiv_pos_as_xyz
'x, y, z'
_cell_length_a     28.316891
_cell_length_b     65.348517
_cell_length_c     22.672019
_cell_angle_alpha  89.994287
_cell_angle_beta   90.000543
_cell_angle_gamma 90.010779
loop_
_atom_site_label
_atom_site_type_symbol
_atom_site_fract_x
_atom_site_fract_y
_atom_site_fract_z
_atom_type_partial_charge
Co0 Co 0.11805 0.31643 0.94415 0.0
Co1 Co 0.06341 0.28519 0.02642 0.0
C2 C 0.16704 0.28138 1.00519 0.0
O3 O 0.16724 0.29733 0.97289 0.0
O4 O 0.12943 0.27493 0.02972 0.0
C5 C 0.18236 0.34953 0.92503 0.0
O6 O 0.19095 0.3465 0.98134 0.0
C7 C 0.03733 0.26519 0.13868 0.0
C8 C 0.96535 0.25398 0.11969 0.0
C9 C 0.99921 0.25507 0.16363 0.0
N10 N 0.02656 0.26993 0.08247 0.0
N11 N 0.98361 0.26299 0.0713 0.0
C12 C 0.08243 0.271 0.16852 0.0
H13 H 0.09907 0.28419 0.14569 0.0
H14 H 0.07593 0.27478 0.21557 0.0
H15 H 0.10708 0.25782 0.16679 0.0
C16 C 0.06745 0.34614 0.0209 0.0
N17 N 0.08068 0.32692 1.00683 0.0
N18 N 0.05917 0.31395 0.04241 0.0
C19 C 0.0324 0.32469 0.08078 0.0
C20 C 0.03712 0.34534 0.06854 0.0
C21 C 0.0767 0.36456 0.98366 0.0
H22 H 0.06928 0.36059 0.93716 0.0
H23 H 0.11406 0.36925 0.98819 0.0
H24 H 0.05412 0.37768 0.99661 0.0
O25 O 0.07794 0.3012 0.88809 0.0
O26 O 0.03916 0.27899 0.94504 0.0
H27 H 0.97601 0.3044 0.10337 0.0
H28 H 0.97852 0.32727 0.14814 0.0
C29 C 0.99993 0.31546 0.12532 0.0
H30 H 0.02126 0.3072 0.15862 0.0
H31 H 0.96632 0.2648 0.03099 0.0
O32 O 0.15171 0.3384 0.89957 0.0
C33 C 0.04873 0.28655 0.89446 0.0
Co34 Co 0.88522 0.69508 0.94137 0.0
Co35 Co 0.93878 0.72603 0.02536 0.0
C36 C 0.83528 0.72959 1.00391 0.0
O37 O 0.83553 0.71388 0.97067 0.0
O38 O 0.87266 0.73603 0.02895 0.0
C39 C 0.82115 0.66216 0.92133 0.0
O40 O 0.81239 0.66521 0.97758 0.0
C41 C 0.9633 0.74581 0.13818 0.0
C42 C 0.0359 0.7567 0.12138 0.0
C43 C 0.00117 0.75574 0.16427 0.0
N44 N 0.97505 0.74105 0.0823 0.0
N45 N 0.01836 0.7478 0.07243 0.0
C46 C 0.91748 0.74019 0.16659 0.0
H47 H 0.90211 0.7265 0.14487 0.0
H48 H 0.92247 0.73728 0.21444 0.0
H49 H 0.89239 0.75311 0.16148 0.0
C50 C 0.93561 0.66513 0.01763 0.0
N51 N 0.9224 0.68439 1.00392 0.0
N52 N 0.94331 0.69724 0.04036 0.0
C53 C 0.96957 0.68639 0.07904 0.0
C54 C 0.96522 0.66579 0.066 0.0
C55 C 0.92692 0.64685 0.97967 0.0
H56 H 0.9348 0.65101 0.93341 0.0
H57 H 0.88954 0.64208 0.98342 0.0
H58 H 0.94948 0.63371 0.9926 0.0
O59 O 0.92531 0.71069 0.88615 0.0
O60 O 0.9633 0.73272 0.94443 0.0
H61 H 0.02566 0.70649 0.10402 0.0
H62 H 0.02161 0.68361 0.14855 0.0
C63 C 0.00099 0.6955 0.12494 0.0
H64 H 0.97896 0.70382 0.15739 0.0
H65 H 0.03636 0.74593 0.03262 0.0
O66 O 0.85201 0.67322 0.89601 0.0
C67 C 0.95418 0.72541 0.89343 0.0
Co68 Co 0.13413 0.5663 0.19413 0.0
Co69 Co 0.18874 0.53498 0.27611 0.0
C70 C 0.08505 0.53121 0.25474 0.0
O71 O 0.08473 0.54722 0.22269 0.0
O72 O 0.12272 0.52475 0.27907 0.0
C73 C 0.0699 0.59939 0.17374 0.0
O74 O 0.06021 0.59629 0.22974 0.0
C75 C 0.21429 0.51487 0.38823 0.0
C76 C 0.28619 0.50351 0.36951 0.0
C77 C 0.25218 0.50463 0.41326 0.0
N78 N 0.22532 0.51964 0.33213 0.0
N79 N 0.26821 0.51261 0.32111 0.0
C80 C 0.16916 0.52075 0.41787 0.0
H81 H 0.15307 0.53415 0.39545 0.0
H82 H 0.17542 0.52424 0.46515 0.0
H83 H 0.14414 0.50771 0.41524 0.0
C84 C 0.18441 0.59594 0.27157 0.0
N85 N 0.17139 0.57673 0.25705 0.0
N86 N 0.19297 0.56371 0.29241 0.0
C87 C 0.21963 0.5744 0.33104 0.0
C88 C 0.21472 0.59508 0.31922 0.0
C89 C 0.17501 0.61444 0.23475 0.0
H90 H 0.18359 0.61074 0.18838 0.0
H91 H 0.13736 0.61877 0.23823 0.0
H92 H 0.19669 0.62771 0.24885 0.0
O93 O 0.17425 0.55106 0.1382 0.0
O94 O 0.21314 0.52883 0.1949 0.0
H95 H 0.27596 0.55405 0.35335 0.0
H96 H 0.27368 0.57691 0.3982 0.0
C97 C 0.25215 0.56512 0.37542 0.0
H98 H 0.23086 0.55686 0.40877 0.0
H99 H 0.28565 0.51443 0.28089 0.0
O100 O 0.10105 0.58831 0.1491 0.0
C101 C 0.20353 0.53644 0.14442 0.0
Co102 Co 0.86807 0.44545 0.19191 0.0
Co103 Co 0.81425 0.47636 0.27591 0.0
C104 C 0.91745 0.48034 0.25396 0.0
O105 O 0.91742 0.46456 0.22094 0.0
O106 O 0.88003 0.48667 0.27912 0.0
C107 C 0.93084 0.41186 0.17319 0.0
O108 O 0.93816 0.41445 0.22995 0.0
C109 C 0.78917 0.49645 0.38818 0.0
C110 C 0.71569 0.50621 0.37171 0.0
C111 C 0.75069 0.50591 0.41433 0.0
N112 N 0.77748 0.4913 0.33257 0.0
N113 N 0.73363 0.49739 0.32287 0.0
C114 C 0.8355 0.49154 0.41642 0.0
H115 H 0.8514 0.47781 0.39549 0.0
H116 H 0.83108 0.48901 0.46453 0.0
H117 H 0.85988 0.50464 0.40996 0.0
C118 C 0.81747 0.41551 0.26798 0.0
N119 N 0.8309 0.43476 0.25448 0.0
N120 N 0.81051 0.44759 0.29142 0.0
C121 C 0.78478 0.43672 0.3306 0.0
C122 C 0.78858 0.41612 0.31703 0.0
C123 C 0.82512 0.39733 0.22927 0.0
H124 H 0.82 0.40204 0.18287 0.0
H125 H 0.86145 0.39145 0.23537 0.0
H126 H 0.80005 0.38479 0.23974 0.0
O127 O 0.82768 0.46077 0.13657 0.0
O128 O 0.78946 0.48274 0.19483 0.0
H129 H 0.72836 0.45632 0.35736 0.0
H130 H 0.73539 0.43388 0.40309 0.0
C131 C 0.75442 0.44581 0.37764 0.0
H132 H 0.77697 0.45463 0.40837 0.0
H133 H 0.71554 0.49507 0.28333 0.0
O134 O 0.90161 0.42351 0.14708 0.0
C135 C 0.79852 0.47538 0.14387 0.0
Co136 Co 0.11911 0.81713 0.44078 0.0
Co137 Co 0.06444 0.78664 0.52524 0.0
C138 C 0.16772 0.78224 0.50329 0.0
O139 O 0.1681 0.79797 0.47009 0.0
O140 O 0.13012 0.77612 0.52848 0.0
C141 C 0.18503 0.84945 0.41886 0.0
O142 O 0.19488 0.84638 0.47482 0.0
C143 C 0.03959 0.76695 0.6381 0.0
C144 C 0.9663 0.75684 0.62193 0.0
C145 C 0.00137 0.75735 0.66445 0.0
N146 N 0.02771 0.77194 0.58243 0.0
N147 N 0.98397 0.76566 0.57293 0.0
C148 C 0.0859 0.77204 0.66608 0.0
H149 H 0.10148 0.7858 0.64498 0.0
H150 H 0.08157 0.77458 0.71419 0.0
H151 H 0.1105 0.75901 0.65959 0.0
C152 C 0.06933 0.84749 0.51636 0.0
N153 N 0.08228 0.82815 0.50325 0.0
N154 N 0.06105 0.81548 0.53994 0.0
C155 C 0.03492 0.82653 0.57827 0.0
C156 C 0.0395 0.8471 0.56458 0.0
C157 C 0.07851 0.86559 0.47788 0.0
H158 H 0.0687 0.86155 0.43209 0.0
H159 H 0.11642 0.86964 0.47959 0.0
H160 H 0.05767 0.87914 0.49179 0.0
O161 O 0.07831 0.80173 0.38593 0.0
O162 O 0.03944 0.78007 0.44449 0.0
H163 H 0.9778 0.80705 0.60367 0.0
H164 H 0.9839 0.82968 0.64888 0.0
C165 C 0.00343 0.81764 0.6245 0.0
H166 H 0.02524 0.8089 0.65626 0.0
H167 H 0.96581 0.7678 0.53335 0.0
O168 O 0.15295 0.83871 0.39475 0.0
C169 C 0.0488 0.78726 0.39342 0.0
Co170 Co 0.87908 0.19575 0.44631 0.0
Co171 Co 0.93653 0.22668 0.52619 0.0
C172 C 0.83261 0.23145 0.50646 0.0
O173 O 0.83101 0.21543 0.47456 0.0
O174 O 0.87092 0.23754 0.53007 0.0
C175 C 0.80363 0.16822 0.41491 0.0
O176 O 0.77773 0.18029 0.44803 0.0
C177 C 0.96313 0.24626 0.63819 0.0
C178 C 0.03563 0.25701 0.62015 0.0
C179 C 0.00142 0.25605 0.66371 0.0
N180 N 0.97409 0.24159 0.58202 0.0
N181 N 0.01738 0.24824 0.57139 0.0
C182 C 0.91764 0.24065 0.66744 0.0
H183 H 0.90168 0.22714 0.64549 0.0
H184 H 0.92331 0.23747 0.71502 0.0
H185 H 0.89275 0.2537 0.66354 0.0
C186 C 0.92625 0.16595 0.52337 0.0
N187 N 0.91577 0.1854 0.50866 0.0
N188 N 0.93951 0.19802 0.54281 0.0
C189 C 0.96575 0.18685 0.58071 0.0
C190 C 0.9581 0.16622 0.5696 0.0
C191 C 0.90949 0.14753 0.49019 0.0
H192 H 0.91721 0.1495 0.44255 0.0
H193 H 0.87073 0.14607 0.49551 0.0
H194 H 0.92659 0.1333 0.50613 0.0
O195 O 0.91971 0.21026 0.38872 0.0
O196 O 0.96033 0.2323 0.44436 0.0
H197 H 0.02391 0.20635 0.6022 0.0
H198 H 0.02017 0.18354 0.64724 0.0
C199 C 0.99946 0.19563 0.62462 0.0
H200 H 0.97917 0.20422 0.65822 0.0
H201 H 0.03486 0.24638 0.53123 0.0
O202 O 0.84702 0.17237 0.40679 0.0
C203 C 0.94988 0.22462 0.39418 0.0
Co204 Co 0.12849 0.06717 0.69755 0.0
Co205 Co 0.18539 0.03417 0.7704 0.0
C206 C 0.08094 0.03143 0.75704 0.0
O207 O 0.08007 0.0474 0.72488 0.0
O208 O 0.11913 0.02485 0.77964 0.0
C209 C 0.05918 0.09875 0.67799 0.0
O210 O 0.04576 0.0938 0.73164 0.0
C211 C 0.21357 0.015 0.88225 0.0
C212 C 0.28061 0.99965 0.85987 0.0
C213 C 0.24985 1.00343 0.90614 0.0
N214 N 0.22235 0.01801 0.8245 0.0
N215 N 0.26236 0.00862 0.81132 0.0
C216 C 0.1721 0.0237 0.9144 0.0
H217 H 0.15666 0.03669 0.88941 0.0
H218 H 0.18271 0.02878 0.9592 0.0
H219 H 0.14485 0.01161 0.91934 0.0
C220 C 0.1803 0.0954 0.7778 0.0
N221 N 0.16753 0.07651 0.75983 0.0
N222 N 0.19312 0.06282 0.78828 0.0
C223 C 0.2234 0.07278 0.82438 0.0
C224 C 0.21597 0.09364 0.81903 0.0
C225 C 0.16253 0.11502 0.75236 0.0
H226 H 0.1239 0.11445 0.74695 0.0
H227 H 0.17134 0.12823 0.78108 0.0
H228 H 0.17953 0.1174 0.7089 0.0
O229 O 0.16838 0.05353 0.63803 0.0
O230 O 0.20285 0.02789 0.68572 0.0
H231 H 0.28839 0.074 0.87423 0.0
H232 H 0.24472 0.0562 0.90032 0.0
C233 C 0.26112 0.0628 0.86026 0.0
H234 H 0.27809 0.05039 0.83459 0.0
H235 H 0.2777 0.00869 0.76947 0.0
O236 O 0.09428 0.08951 0.65542 0.0
C237 C 0.19368 0.03743 0.63774 0.0
Co238 Co 0.86657 0.94521 0.69384 0.0
Co239 Co 0.80943 0.97651 0.77298 0.0
C240 C 0.914 0.98024 0.75553 0.0
O241 O 0.91539 0.96417 0.72386 0.0
O242 O 0.87557 0.98669 0.77793 0.0
C243 C 0.93511 0.91389 0.6711 0.0
O244 O 0.94808 0.91837 0.72525 0.0
C245 C 0.78327 0.99578 0.88553 0.0
C246 C 0.7135 0.00918 0.86555 0.0
C247 C 0.74635 0.00673 0.9102 0.0
N248 N 0.77284 0.99188 0.82874 0.0
N249 N 0.7312 1.00008 0.81697 0.0
C250 C 0.82702 0.98859 0.91597 0.0
H251 H 0.84262 0.97539 0.89208 0.0
H252 H 0.81908 0.98427 0.96229 0.0
H253 H 0.85313 1.00125 0.91669 0.0
C254 C 0.81601 0.91547 0.77168 0.0
N255 N 0.82813 0.93468 0.75582 0.0
N256 N 0.8042 0.94776 0.78857 0.0
C257 C 0.77604 0.93715 0.82572 0.0
C258 C 0.78285 0.91644 0.81632 0.0
C259 C 0.83199 0.8964 0.74136 0.0
H260 H 0.87076 0.89633 0.73718 0.0
H261 H 0.82124 0.88247 0.76589 0.0
H262 H 0.81574 0.89593 0.69695 0.0
O263 O 0.82723 0.96063 0.63684 0.0
O264 O 0.78641 0.98279 0.69162 0.0
H265 H 0.71626 0.93486 0.88479 0.0
H266 H 0.76015 0.95365 0.90394 0.0
C267 C 0.74089 0.9465 0.86675 0.0
H268 H 0.72036 0.95844 0.84343 0.0
H269 H 0.7145 0.99918 0.77602 0.0
O270 O 0.90032 0.9234 0.64868 0.0
C271 C 0.7975 0.97516 0.64169 0.0
Co272 Co 0.61683 0.31798 0.44767 0.0
Co273 Co 0.56097 0.28443 0.5198 0.0
C274 C 0.66551 0.28248 0.50689 0.0
O275 O 0.66591 0.29848 0.47485 0.0
O276 O 0.62752 0.27562 0.52935 0.0
C277 C 0.68579 0.34963 0.42765 0.0
O278 O 0.70032 0.34431 0.48055 0.0
C279 C 0.53317 0.2645 0.6308 0.0
C280 C 0.46649 0.249 0.60761 0.0
C281 C 0.49717 0.25261 0.65406 0.0
N282 N 0.52432 0.26784 0.57322 0.0
N283 N 0.48451 0.25837 0.55956 0.0
C284 C 0.57451 0.27314 0.66337 0.0
H285 H 0.58948 0.28643 0.63928 0.0
H286 H 0.56393 0.27776 0.7086 0.0
H287 H 0.60212 0.26116 0.66723 0.0
C288 C 0.56462 0.34565 0.5289 0.0
N289 N 0.57747 0.32688 0.51005 0.0
N290 N 0.55226 0.313 0.53823 0.0
C291 C 0.52214 0.32272 0.57506 0.0
C292 C 0.5293 0.34362 0.57043 0.0
C293 C 0.58241 0.36543 0.50453 0.0
H294 H 0.62094 0.36474 0.49805 0.0
H295 H 0.57432 0.37839 0.53449 0.0
H296 H 0.56469 0.36828 0.46175 0.0
O297 O 0.57771 0.3042 0.38779 0.0
O298 O 0.54441 0.27814 0.43483 0.0
H299 H 0.45787 0.32351 0.62633 0.0
H300 H 0.50236 0.30586 0.65111 0.0
C301 C 0.48521 0.31247 0.61155 0.0
H302 H 0.4682 0.30003 0.58603 0.0
H303 H 0.46918 0.25862 0.51771 0.0
O304 O 0.65008 0.34064 0.40575 0.0
C305 C 0.55335 0.28783 0.38706 0.0
Co306 Co 0.3828 0.69559 0.44249 0.0
Co307 Co 0.43804 0.72688 0.52395 0.0
C308 C 0.33432 0.73078 0.50344 0.0
O309 O 0.33372 0.71476 0.47146 0.0
O310 O 0.37216 0.73721 0.52744 0.0
C311 C 0.3197 0.66197 0.42413 0.0
O312 O 0.31189 0.66471 0.48073 0.0
C313 C 0.46432 0.74699 0.63577 0.0
C314 C 0.53634 0.75813 0.61663 0.0
C315 C 0.50248 0.75711 0.66058 0.0
N316 N 0.47506 0.74217 0.57962 0.0
N317 N 0.51803 0.74907 0.56834 0.0
C318 C 0.41921 0.74123 0.6657 0.0
H319 H 0.40287 0.72786 0.64344 0.0
H320 H 0.42559 0.73775 0.71297 0.0
H321 H 0.39435 0.75432 0.6631 0.0
C322 C 0.43358 0.66593 0.51932 0.0
N323 N 0.42044 0.68515 0.50501 0.0
N324 N 0.44212 0.69814 0.54033 0.0
C325 C 0.46886 0.68743 0.57882 0.0
C326 C 0.46394 0.66677 0.5669 0.0
C327 C 0.42418 0.64745 0.48241 0.0
H328 H 0.42874 0.65162 0.43554 0.0
H329 H 0.38766 0.64203 0.49001 0.0
H330 H 0.44867 0.63473 0.49323 0.0
O331 O 0.42274 0.71074 0.38608 0.0
O332 O 0.46206 0.73294 0.44247 0.0
H333 H 0.52539 0.70768 0.60103 0.0
H334 H 0.52281 0.68488 0.64609 0.0
C335 C 0.50144 0.69669 0.62318 0.0
H336 H 0.48022 0.70502 0.65643 0.0
H337 H 0.53529 0.7472 0.52804 0.0
O338 O 0.34917 0.67355 0.39819 0.0
C339 C 0.45217 0.72532 0.39208 0.0
Co340 Co 0.63264 0.56687 0.69234 0.0
Co341 Co 0.68712 0.53604 0.77578 0.0
C342 C 0.58366 0.53197 0.75445 0.0
O343 O 0.58337 0.54776 0.72147 0.0
O344 O 0.62129 0.5257 0.77927 0.0
C345 C 0.56933 0.60023 0.6728 0.0
O346 O 0.56134 0.59756 0.72939 0.0
C347 C 0.71227 0.51632 0.88842 0.0
C348 C 0.78502 0.50568 0.87136 0.0
C349 C 0.75039 0.50654 0.9144 0.0
N350 N 0.72378 0.52109 0.83248 0.0
N351 N 0.76718 0.51449 0.82244 0.0
C352 C 0.66644 0.52181 0.91702 0.0
H353 H 0.64154 0.50881 0.91207 0.0
H354 H 0.65079 0.53544 0.8953 0.0
H355 H 0.67152 0.52475 0.96483 0.0
C356 C 0.68331 0.5969 0.76815 0.0
N357 N 0.66987 0.57764 0.75482 0.0
N358 N 0.69102 0.56481 0.79112 0.0
C359 C 0.71758 0.57569 0.82942 0.0
C360 C 0.71325 0.59628 0.81621 0.0
C361 C 0.6749 0.61511 0.72979 0.0
H362 H 0.68127 0.61065 0.68343 0.0
H363 H 0.63802 0.62041 0.73492 0.0
H364 H 0.6987 0.628 0.74126 0.0
O365 O 0.67307 0.55157 0.63688 0.0
O366 O 0.71181 0.52965 0.69475 0.0
H367 H 0.77424 0.55576 0.85342 0.0
H368 H 0.77011 0.57853 0.89835 0.0
C369 C 0.74953 0.56661 0.8748 0.0
H370 H 0.7279 0.55816 0.9074 0.0
H371 H 0.78505 0.51643 0.78257 0.0
O372 O 0.59913 0.58872 0.6472 0.0
C373 C 0.70244 0.53703 0.6439 0.0
Co374 Co 0.36942 0.44478 0.69717 0.0
Co375 Co 0.31301 0.47626 0.7759 0.0
C376 C 0.41721 0.48038 0.75577 0.0
O377 O 0.41844 0.46419 0.72453 0.0
O378 O 0.37904 0.48672 0.77919 0.0
C379 C 0.44275 0.41594 0.66948 0.0
O380 O 0.46837 0.42726 0.70507 0.0
C381 C 0.28719 0.49589 0.88787 0.0
C382 C 0.21591 0.50796 0.8692 0.0
C383 C 0.24964 0.50625 0.91315 0.0
N384 N 0.27629 0.49161 0.83144 0.0
N385 N 0.23375 0.49904 0.82042 0.0
C386 C 0.33188 0.48941 0.91754 0.0
H387 H 0.34756 0.47607 0.89439 0.0
H388 H 0.32516 0.48558 0.96451 0.0
H389 H 0.35745 0.50227 0.91604 0.0
C390 C 0.32067 0.41549 0.77439 0.0
N391 N 0.33225 0.43482 0.75965 0.0
N392 N 0.30871 0.44769 0.79321 0.0
C393 C 0.28142 0.43679 0.83066 0.0
C394 C 0.28835 0.4161 0.82002 0.0
C395 C 0.33629 0.39687 0.74131 0.0
H396 H 0.32892 0.39893 0.69362 0.0
H397 H 0.37487 0.3949 0.74696 0.0
H398 H 0.31816 0.38285 0.75716 0.0
O399 O 0.32941 0.45941 0.63911 0.0
O400 O 0.28935 0.48182 0.6941 0.0
H401 H 0.22433 0.45713 0.85013 0.0
H402 H 0.22458 0.434 0.89407 0.0
C403 C 0.24706 0.44588 0.8732 0.0
H404 H 0.26699 0.45392 0.90826 0.0
H405 H 0.21647 0.49763 0.77997 0.0
O406 O 0.40036 0.42106 0.65843 0.0
C407 C 0.2997 0.47396 0.64415 0.0
Co408 Co 0.62111 0.81614 0.94527 0.0
Co409 Co 0.56345 0.7849 0.0235 0.0
C410 C 0.66776 0.78042 1.00425 0.0
O411 O 0.66943 0.79657 0.97295 0.0
O412 O 0.62934 0.77419 0.02733 0.0
C413 C 0.69608 0.84381 0.91404 0.0
O414 O 0.72231 0.83165 0.9465 0.0
C415 C 0.53669 0.76565 0.13566 0.0
C416 C 0.4658 0.75328 0.11625 0.0
C417 C 0.49909 0.75523 0.16064 0.0
N418 N 0.52626 0.76971 0.07897 0.0
N419 N 0.48394 0.76212 0.06752 0.0
C420 C 0.58102 0.77232 0.1658 0.0
H421 H 0.59712 0.78544 0.14207 0.0
H422 H 0.57365 0.77655 0.21233 0.0
H423 H 0.60648 0.75942 0.16582 0.0
C424 C 0.57365 0.84563 0.02296 0.0
N425 N 0.5843 0.82624 1.00782 0.0
N426 N 0.55972 0.8135 0.04064 0.0
C427 C 0.53234 0.82453 0.07761 0.0
C428 C 0.54053 0.84518 0.06771 0.0
C429 C 0.59123 0.8642 0.9912 0.0
H430 H 0.58281 0.86286 0.94357 0.0
H431 H 0.63013 0.86514 0.99589 0.0
H432 H 0.57525 0.87845 0.00882 0.0
O433 O 0.58078 0.80168 0.88713 0.0
O434 O 0.53992 0.77941 0.94167 0.0
H435 H 0.47461 0.80429 0.0952 0.0
H436 H 0.47364 0.82764 0.13815 0.0
C437 C 0.49667 0.81565 0.11883 0.0
H438 H 0.51552 0.80778 0.15514 0.0
H439 H 0.46705 0.76334 0.02677 0.0
O440 O 0.65268 0.83965 0.90625 0.0
C441 C 0.55066 0.78728 0.89186 0.0
Co442 Co 0.38007 0.19444 0.93911 0.0
Co443 Co 0.43742 0.22498 0.0202 0.0
C444 C 0.33382 0.23004 1.00115 0.0
O445 O 0.33233 0.21416 0.9686 0.0
O446 O 0.37208 0.23606 0.02508 0.0
C447 C 0.30544 0.16604 0.91393 0.0
O448 O 0.28142 0.17723 0.95156 0.0
C449 C 0.46639 0.24932 0.12501 0.0
C450 C 0.5436 0.24468 0.12303 0.0
C451 C 0.50761 0.25299 0.15691 0.0
N452 N 0.47763 0.23882 0.07574 0.0
N453 N 0.52397 0.23654 0.07437 0.0
C454 C 0.41716 0.25558 0.14082 0.0
H455 H 0.40086 0.26367 0.10293 0.0
H456 H 0.39576 0.24169 0.14969 0.0
H457 H 0.41661 0.26573 0.18002 0.0
C458 C 0.42808 0.16424 0.01376 0.0
N459 N 0.41718 0.18376 1.0004 0.0
N460 N 0.43917 0.19619 0.03688 0.0
C461 C 0.46354 0.18471 0.07611 0.0
C462 C 0.45763 0.16421 0.06222 0.0
C463 C 0.41424 0.14608 0.97742 0.0
H464 H 0.42042 0.14938 0.93005 0.0
H465 H 0.3761 0.14301 0.98373 0.0
H466 H 0.43437 0.1322 0.9902 0.0
O467 O 0.42006 0.20889 0.88123 0.0
O468 O 0.46074 0.23072 0.93743 0.0
H469 H 0.52839 0.19737 0.10711 0.0
H470 H 0.49937 0.18099 0.15932 0.0
C471 C 0.4935 0.19285 0.12503 0.0
H472 H 0.47628 0.20629 0.14549 0.0
H473 H 0.54201 0.22861 0.04138 0.0
O474 O 0.34739 0.17117 0.90046 0.0
C475 C 0.4502 0.22323 0.88697 0.0
Co476 Co 0.63193 0.0671 0.19363 0.0
Co477 Co 0.68873 0.03584 0.27301 0.0
C478 C 0.58426 0.03199 0.25452 0.0
O479 O 0.58307 0.04809 0.223 0.0
O480 O 0.62254 0.02554 0.27737 0.0
C481 C 0.56272 0.09803 0.17033 0.0
O482 O 0.54952 0.09348 0.22435 0.0
C483 C 0.71492 0.01652 0.38557 0.0
C484 C 0.78492 1.00333 0.36558 0.0
C485 C 0.75201 1.00568 0.41022 0.0
N486 N 0.72532 0.02049 0.3288 0.0
N487 N 0.76709 0.01241 0.31703 0.0
C488 C 0.67106 0.02359 0.41601 0.0
H489 H 0.6453 0.01079 0.41717 0.0
H490 H 0.65503 0.03663 0.39187 0.0
H491 H 0.67903 0.02807 0.46218 0.0
C492 C 0.68214 0.0969 0.27172 0.0
N493 N 0.67005 0.07768 0.25587 0.0
N494 N 0.69392 0.06461 0.28869 0.0
C495 C 0.72207 0.07522 0.32585 0.0
C496 C 0.71533 0.09595 0.31638 0.0
C497 C 0.66601 0.11595 0.24148 0.0
H498 H 0.68288 0.11666 0.19746 0.0
H499 H 0.62729 0.1158 0.23638 0.0
H500 H 0.67601 0.12987 0.26661 0.0
O501 O 0.67153 0.05174 0.13677 0.0
O502 O 0.71212 0.02958 0.19179 0.0
H503 H 0.77782 0.05397 0.34358 0.0
H504 H 0.78171 0.07751 0.38515 0.0
C505 C 0.75717 0.06587 0.36693 0.0
H506 H 0.73786 0.05865 0.40397 0.0
H507 H 0.78381 0.01339 0.27611 0.0
O508 O 0.59804 0.08877 0.14832 0.0
C509 C 0.70122 0.0372 0.14179 0.0
Co510 Co 0.37017 0.94548 0.18633 0.0
Co511 Co 0.31458 0.97538 0.27146 0.0
C512 C 0.4173 0.98067 0.251 0.0
O513 O 0.41791 0.96506 0.21729 0.0
O514 O 0.37955 0.98663 0.27625 0.0
C515 C 0.43384 0.91215 0.16908 0.0
O516 O 0.43887 0.91422 0.22641 0.0
C517 C 0.28474 0.99945 0.37685 0.0
C518 C 0.20786 0.9938 0.37528 0.0
C519 C 0.24334 1.00267 0.40882 0.0
N520 N 0.27409 0.98867 0.32786 0.0
N521 N 0.22793 0.98577 0.32676 0.0
C522 C 0.33355 0.0064 0.39223 0.0
H523 H 0.34921 0.01453 0.35399 0.0
H524 H 0.35593 0.99283 0.40145 0.0
H525 H 0.33348 0.01671 0.43111 0.0
C526 C 0.3204 0.91462 0.26002 0.0
N527 N 0.3332 0.93405 0.24777 0.0
N528 N 0.31375 0.94642 0.28672 0.0
C529 C 0.29032 0.93495 0.32685 0.0
C530 C 0.29349 0.91458 0.31081 0.0
C531 C 0.32661 0.89695 0.21897 0.0
H532 H 0.32167 0.90237 0.17316 0.0
H533 H 0.36251 0.89048 0.22412 0.0
H534 H 0.30075 0.8846 0.22824 0.0
O535 O 0.32951 0.96039 0.13065 0.0
O536 O 0.28997 0.98172 0.18945 0.0
H537 H 0.22733 0.94728 0.36429 0.0
H538 H 0.26011 0.93111 0.41329 0.0
C539 C 0.26344 0.94301 0.37858 0.0
H540 H 0.28159 0.95653 0.3973 0.0
H541 H 0.21034 0.97754 0.29399 0.0
O542 O 0.40577 0.92406 0.14201 0.0
C543 C 0.29951 0.97464 0.13822 0.0
C544 C 0.18677 0.37992 0.85477 0.0
C545 C 0.20964 0.36539 0.89204 0.0
C546 C 0.28385 0.3846 0.88301 0.0
C547 C 0.26139 0.39856 0.8444 0.0
N548 N 0.19539 0.40667 0.78151 0.0
N549 N 0.28318 0.35061 0.92519 0.0
C550 C 0.21401 0.39537 0.82665 0.0
C551 C 0.25919 0.36679 0.90145 0.0
N552 N 0.13889 0.37968 0.84774 0.0
N553 N 0.32846 0.38854 0.90304 0.0
H554 H 0.26692 0.33675 0.93564 0.0
H555 H 0.31987 0.35002 0.92795 0.0
H556 H 0.34791 0.40131 0.88988 0.0
H557 H 0.34461 0.38006 0.93632 0.0
H558 H 0.12011 0.39168 0.82861 0.0
H559 H 0.11723 0.36819 0.86375 0.0
H560 H 0.16298 0.40342 0.7619 0.0
H561 H 0.21413 0.41816 0.75976 0.0
C562 C 0.74385 0.64559 0.89654 0.0
C563 C 0.79357 0.64647 0.88815 0.0
C564 C 0.78874 0.61615 0.82415 0.0
C565 C 0.74089 0.61359 0.84069 0.0
N566 N 0.67329 0.62462 0.89679 0.0
N567 N 0.86421 0.63149 0.84568 0.0
C568 C 0.71851 0.62798 0.87801 0.0
C569 C 0.81627 0.63157 0.85196 0.0
N570 N 0.72044 0.66208 0.91942 0.0
N571 N 0.80757 0.60425 0.78044 0.0
H572 H 0.88597 0.64305 0.86113 0.0
H573 H 0.88287 0.61928 0.82759 0.0
H574 H 0.7887 0.59268 0.75925 0.0
H575 H 0.84045 0.60701 0.76145 0.0
H576 H 0.68377 0.66308 0.92139 0.0
H577 H 0.73733 0.67578 0.93007 0.0
H578 H 0.657 0.6334 0.92929 0.0
H579 H 0.65331 0.61204 0.8834 0.0
C580 C 0.04009 0.64559 0.07586 0.0
C581 C 0.99213 0.64843 0.09143 0.0
C582 C 0.99344 0.61644 0.14754 0.0
C583 C 0.04322 0.61526 0.14007 0.0
N584 N 0.11482 0.62985 0.09886 0.0
N585 N 0.9236 0.63784 0.14651 0.0
C586 C 0.06681 0.63003 0.10426 0.0
C587 C 0.96889 0.6342 0.1285 0.0
N588 N 0.05982 0.65736 0.03245 0.0
N589 N 0.9692 0.6001 0.16996 0.0
H590 H 0.90421 0.65056 0.13277 0.0
H591 H 0.90667 0.62919 0.17878 0.0
H592 H 0.9855 0.58629 0.18085 0.0
H593 H 0.93248 0.59933 0.17124 0.0
H594 H 0.09282 0.65439 0.01406 0.0
H595 H 0.04159 0.66904 0.0109 0.0
H596 H 0.13404 0.64198 0.08116 0.0
H597 H 0.13608 0.61818 0.1146 0.0
C598 C 0.03202 0.37643 0.13282 0.0
C599 C 0.00974 0.36263 0.09358 0.0
C600 C 0.93544 0.38161 0.1025 0.0
C601 C 0.95818 0.39596 0.14047 0.0
N602 N 0.03147 0.41026 0.1761 0.0
N603 N 0.94404 0.35449 0.0303 0.0
C604 C 0.0075 0.39428 0.15119 0.0
C605 C 0.96256 0.36593 0.07522 0.0
N606 N 0.07637 0.3723 0.15344 0.0
N607 N 0.88775 0.3823 0.0939 0.0
H608 H 0.96249 0.34267 0.00969 0.0
H609 H 0.91197 0.3578 0.00995 0.0
H610 H 0.86648 0.39415 0.10856 0.0
H611 H 0.86867 0.37046 0.07446 0.0
H612 H 0.09233 0.3806 0.18721 0.0
H613 H 0.09575 0.35952 0.14024 0.0
H614 H 0.06811 0.4107 0.17988 0.0
H615 H 0.01536 0.42414 0.1867 0.0
C616 C 0.26267 0.86506 0.39041 0.0
C617 C 0.21267 0.86484 0.38454 0.0
C618 C 0.21743 0.89531 0.32113 0.0
C619 C 0.26597 0.8972 0.33513 0.0
N620 N 0.33479 0.88501 0.38669 0.0
N621 N 0.14177 0.88074 0.34581 0.0
C622 C 0.28865 0.88236 0.37067 0.0
C623 C 0.18984 0.8801 0.3498 0.0
N624 N 0.28558 0.84825 0.41214 0.0
N625 N 0.19791 0.90769 0.27899 0.0
H626 H 0.11984 0.86933 0.36179 0.0
H627 H 0.12326 0.89323 0.32908 0.0
H628 H 0.21679 0.91914 0.25729 0.0
H629 H 0.16425 0.90545 0.26164 0.0
H630 H 0.32219 0.84674 0.41229 0.0
H631 H 0.26803 0.83481 0.42379 0.0
H632 H 0.35167 0.87594 0.41803 0.0
H633 H 0.35523 0.89729 0.37204 0.0
C634 C 0.78813 0.14455 0.3294 0.0
C635 C 0.78317 0.14911 0.39033 0.0
C636 C 0.73343 0.11868 0.40309 0.0
C637 C 0.74127 0.1134 0.34326 0.0
N638 N 0.78573 0.11842 0.2537 0.0
N639 N 0.76154 0.13751 0.48794 0.0
C640 C 0.77174 0.12543 0.30774 0.0
C641 C 0.7588 0.13531 0.42808 0.0
N642 N 0.80615 0.15883 0.29153 0.0
N643 N 0.70067 0.10826 0.43563 0.0
H644 H 0.78126 0.14898 0.50831 0.0
H645 H 0.74845 0.12668 0.51745 0.0
H646 H 0.68151 0.09589 0.41912 0.0
H647 H 0.68972 0.11296 0.47736 0.0
H648 H 0.80593 0.15705 0.24587 0.0
H649 H 0.81698 0.17334 0.30501 0.0
H650 H 0.81153 0.12563 0.22836 0.0
H651 H 0.77503 0.10431 0.23685 0.0
C652 C 0.03238 0.14578 0.58211 0.0
C653 C 0.9838 0.14843 0.59469 0.0
C654 C 0.98346 0.11596 0.64838 0.0
C655 C 0.03359 0.11516 0.64506 0.0
N656 N 0.10652 0.13146 0.61342 0.0
N657 N 0.91361 0.1373 0.64559 0.0
C658 C 0.05835 0.13055 0.61283 0.0
C659 C 0.95944 0.13388 0.62951 0.0
N660 N 0.05358 0.15742 0.53954 0.0
N661 N 0.95847 0.0992 0.66652 0.0
H662 H 0.8947 0.1502 0.63231 0.0
H663 H 0.89578 0.12823 0.67614 0.0
H664 H 0.9744 0.08524 0.67651 0.0
H665 H 0.92175 0.09837 0.66464 0.0
H666 H 0.08757 0.15457 0.52395 0.0
H667 H 0.03568 0.1686 0.5155 0.0
H668 H 0.12545 0.14394 0.59724 0.0
H669 H 0.12787 0.12076 0.634 0.0
C670 C 0.93721 0.88209 0.60582 0.0
C671 C 0.96129 0.89783 0.63747 0.0
C672 C 0.03637 0.87974 0.62266 0.0
C673 C 0.01259 0.86462 0.58925 0.0
N674 N 0.94308 0.85419 0.53581 0.0
N675 N 0.03546 0.91458 0.65854 0.0
C676 C 0.96381 0.86664 0.57683 0.0
C677 C 0.01143 0.8975 0.64084 0.0
N678 N 0.88905 0.88119 0.60515 0.0
N679 N 0.08258 0.87697 0.63813 0.0
H680 H 0.01869 0.92837 0.66839 0.0
H681 H 0.07211 0.91584 0.65661 0.0
H682 H 0.10221 0.86424 0.62516 0.0
H683 H 0.10018 0.88643 0.66789 0.0
H684 H 0.87033 0.86846 0.59031 0.0
H685 H 0.86737 0.89243 0.62256 0.0
H686 H 0.90899 0.8565 0.51985 0.0
H687 H 0.96134 0.84271 0.51342 0.0
C688 C 0.71275 0.39715 0.33396 0.0
C689 C 0.76206 0.39874 0.34309 0.0
C690 C 0.76166 0.36579 0.39433 0.0
C691 C 0.71144 0.36588 0.39427 0.0
N692 N 0.63875 0.38343 0.36822 0.0
N693 N 0.8334 0.38582 0.38756 0.0
C694 C 0.68677 0.38196 0.36487 0.0
C695 C 0.78654 0.3834 0.37486 0.0
N696 N 0.69082 0.40973 0.2943 0.0
N697 N 0.78572 0.34848 0.4099 0.0
H698 H 0.85298 0.39846 0.37369 0.0
H699 H 0.85175 0.37617 0.41607 0.0
H700 H 0.76888 0.33476 0.42048 0.0
H701 H 0.82217 0.34697 0.40546 0.0
H702 H 0.65595 0.40772 0.28085 0.0
H703 H 0.70865 0.42097 0.27039 0.0
H704 H 0.62009 0.39633 0.35455 0.0
H705 H 0.61747 0.37261 0.38843 0.0
C706 C 0.21936 0.62606 0.38392 0.0
C707 C 0.24188 0.61237 0.34461 0.0
C708 C 0.31575 0.63169 0.35335 0.0
C709 C 0.29272 0.64595 0.39137 0.0
N710 N 0.21907 0.65994 0.42684 0.0
N711 N 0.30765 0.60454 0.28113 0.0
C712 C 0.24345 0.64404 0.40213 0.0
C713 C 0.28895 0.61588 0.32614 0.0
N714 N 0.17516 0.62172 0.40471 0.0
N715 N 0.3634 0.63258 0.34455 0.0
H716 H 0.28948 0.59263 0.26059 0.0
H717 H 0.33958 0.60802 0.26065 0.0
H718 H 0.38446 0.64456 0.35879 0.0
H719 H 0.3827 0.62079 0.32522 0.0
H720 H 0.15907 0.62996 0.43851 0.0
H721 H 0.1561 0.60882 0.39165 0.0
H722 H 0.18242 0.66019 0.43064 0.0
H723 H 0.2348 0.67392 0.43713 0.0
C724 C 0.46847 0.63562 0.63101 0.0
C725 C 0.4911 0.64946 0.59222 0.0
C726 C 0.56534 0.63051 0.60211 0.0
C727 C 0.54228 0.61612 0.63969 0.0
N728 N 0.46867 0.60174 0.67399 0.0
N729 N 0.5573 0.65762 0.52975 0.0
C730 C 0.49285 0.61776 0.64962 0.0
C731 C 0.53843 0.64618 0.57448 0.0
N732 N 0.42392 0.63971 0.65102 0.0
N733 N 0.61311 0.62987 0.59423 0.0
H734 H 0.53898 0.6694 0.50881 0.0
H735 H 0.58955 0.6543 0.50985 0.0
H736 H 0.63432 0.61804 0.60912 0.0
H737 H 0.63231 0.64175 0.57515 0.0
H738 H 0.40766 0.63136 0.68448 0.0
H739 H 0.40466 0.65251 0.63767 0.0
H740 H 0.43199 0.60128 0.67717 0.0
H741 H 0.48471 0.58786 0.6847 0.0
C742 C 0.474 0.37332 0.5617 0.0
C743 C 0.50207 0.36053 0.59798 0.0
C744 C 0.48369 0.38209 0.68321 0.0
C745 C 0.4622 0.39663 0.645 0.0
N746 N 0.44386 0.40746 0.5456 0.0
N747 N 0.5383 0.35373 0.69224 0.0
C748 C 0.45885 0.39257 0.5836 0.0
C749 C 0.50805 0.3651 0.65859 0.0
N750 N 0.46143 0.36696 0.50647 0.0
N751 N 0.47931 0.38399 0.74301 0.0
H752 H 0.55633 0.341 0.67609 0.0
H753 H 0.54826 0.35786 0.73484 0.0
H754 H 0.46059 0.39582 0.76309 0.0
H755 H 0.49007 0.3727 0.77254 0.0
H756 H 0.43731 0.3748 0.48014 0.0
H757 H 0.47143 0.35278 0.48941 0.0
H758 H 0.44548 0.40595 0.4999 0.0
H759 H 0.43439 0.42213 0.55924 0.0
C760 C 0.71067 0.86775 0.82905 0.0
C761 C 0.71617 0.86302 0.88979 0.0
C762 C 0.76534 0.89359 0.90286 0.0
C763 C 0.75703 0.89899 0.84323 0.0
N764 N 0.71213 0.8941 0.75397 0.0
N765 N 0.73828 0.87436 0.9875 0.0
C766 C 0.72653 0.88698 0.80772 0.0
C767 C 0.74052 0.87678 0.92767 0.0
N768 N 0.69268 0.85352 0.791 0.0
N769 N 0.79806 0.90405 0.93534 0.0
H770 H 0.71906 0.86271 1.00777 0.0
H771 H 0.75133 0.88514 0.01717 0.0
H772 H 0.81676 0.91658 0.919 0.0
H773 H 0.80939 0.89928 0.97685 0.0
H774 H 0.69253 0.85545 0.74539 0.0
H775 H 0.68228 0.83892 0.80421 0.0
H776 H 0.68632 0.88689 0.72868 0.0
H777 H 0.72253 0.9083 0.73736 0.0
C778 C 0.26459 0.13226 0.9295 0.0
C779 C 0.28502 0.14679 0.89034 0.0
C780 C 0.27087 0.12343 0.80775 0.0
C781 C 0.24362 0.1107 0.84521 0.0
N782 N 0.20975 0.10409 0.94095 0.0
N783 N 0.30042 0.15757 0.79011 0.0
C784 C 0.23927 0.11535 0.90599 0.0
C785 C 0.28656 0.1427 0.82885 0.0
N786 N 0.271 0.13405 0.98904 0.0
N787 N 0.28223 0.11698 0.7522 0.0
H788 H 0.31013 0.17227 0.80324 0.0
H789 H 0.29753 0.15601 0.74452 0.0
H790 H 0.27196 0.10274 0.73575 0.0
H791 H 0.30573 0.1248 0.72495 0.0
H792 H 0.26095 0.12276 0.01895 0.0
H793 H 0.29081 0.14573 1.00825 0.0
H794 H 0.20109 0.10828 0.98395 0.0
H795 H 0.19097 0.09144 0.92561 0.0
C796 C 0.56005 0.12966 0.1047 0.0
C797 C 0.53621 0.11384 0.13625 0.0
C798 C 0.46059 0.13132 0.11948 0.0
C799 C 0.48426 0.14653 0.08629 0.0
N800 N 0.55393 0.15713 0.03341 0.0
N801 N 0.46245 0.0966 0.15637 0.0
C802 C 0.53321 0.14477 0.07467 0.0
C803 C 0.48601 0.1138 0.13863 0.0
N804 N 0.60817 0.131 0.10517 0.0
N805 N 0.41408 0.13379 0.13389 0.0
H806 H 0.47965 0.08297 0.16697 0.0
H807 H 0.42589 0.09507 0.15381 0.0
H808 H 0.39412 0.14632 0.12003 0.0
H809 H 0.39642 0.12429 0.16348 0.0
H810 H 0.62649 0.14383 0.09023 0.0
H811 H 0.6301 0.1201 0.12385 0.0
H812 H 0.58829 0.15499 0.0182 0.0
H813 H 0.53544 0.16827 0.0099 0.0
C814 C 0.46757 0.86688 0.06977 0.0
C815 C 0.51361 0.86286 0.09122 0.0
C816 C 0.51051 0.89403 0.15088 0.0
C817 C 0.4618 0.89628 0.1371 0.0
N818 N 0.3927 0.88354 0.08541 0.0
N819 N 0.57802 0.87132 0.15616 0.0
C820 C 0.44001 0.88248 0.09665 0.0
C821 C 0.53488 0.87609 0.13289 0.0
N822 N 0.45059 0.85617 0.02245 0.0
N823 N 0.53417 0.90955 0.1785 0.0
H824 H 0.59729 0.85847 0.14328 0.0
H825 H 0.59293 0.87918 0.19154 0.0
H826 H 0.51831 0.92348 0.18903 0.0
H827 H 0.57061 0.90958 0.18472 0.0
H828 H 0.41964 0.86006 1.0003 0.0
H829 H 0.46947 0.84451 1.00175 0.0
H830 H 0.3741 0.87203 0.06368 0.0
H831 H 0.37108 0.89522 0.10039 0.0
C832 C 0.00126 0.2228 0.30416 0.0
C833 C 0.96909 0.23399 0.33961 0.0
C834 C 0.96517 0.26094 0.26433 0.0
C835 C 0.99256 0.24856 0.22594 0.0
N836 N 0.03584 0.21751 0.2072 0.0
N837 N 0.91798 0.26315 0.35332 0.0
C838 C 0.01086 0.22951 0.24551 0.0
C839 C 0.95089 0.25307 0.32003 0.0
N840 N 0.02312 0.20594 0.32721 0.0
N841 N 0.95325 0.28037 0.24769 0.0
H842 H 0.90778 0.25836 0.39528 0.0
H843 H 0.89853 0.2756 0.33818 0.0
H844 H 0.96172 0.2864 0.20652 0.0
H845 H 0.9382 0.29108 0.276 0.0
H846 H 0.05023 0.19807 0.30613 0.0
H847 H 0.01671 0.20077 0.37003 0.0
H848 H 0.0457 0.20249 0.21613 0.0
H849 H 0.04461 0.2222 0.16461 0.0
C850 C 0.04752 0.7582 0.32137 0.0
C851 C 0.02904 0.77732 0.34008 0.0
C852 C 0.98778 0.78135 0.2455 0.0
C853 C 0.00664 0.76232 0.22664 0.0
N854 N 0.04563 0.73058 0.25001 0.0
N855 N 0.97441 0.80508 0.32651 0.0
C856 C 0.03365 0.75008 0.26581 0.0
C857 C 0.99678 0.78825 0.30409 0.0
N858 N 0.08041 0.74833 0.35521 0.0
N859 N 0.96299 0.79319 0.20658 0.0
H860 H 0.98035 0.81035 0.36935 0.0
H861 H 0.94728 0.81278 0.30496 0.0
H862 H 0.95472 0.78837 0.16395 0.0
H863 H 0.95281 0.8082 0.21507 0.0
H864 H 0.10003 0.73585 0.34062 0.0
H865 H 0.09039 0.75332 0.39706 0.0
H866 H 0.06055 0.72001 0.27887 0.0
H867 H 0.0372 0.72435 0.20908 0.0
C868 C 0.28597 0.51032 0.51414 0.0
C869 C 0.2585 0.49805 0.47553 0.0
C870 C 0.24885 0.4723 0.55363 0.0
C871 C 0.28109 0.48337 0.58933 0.0
N872 N 0.33291 0.51229 0.60335 0.0
N873 N 0.21467 0.46716 0.45639 0.0
C874 C 0.29985 0.50236 0.56989 0.0
C875 C 0.2397 0.47906 0.49491 0.0
N876 N 0.29833 0.52972 0.49766 0.0
N877 N 0.22649 0.45554 0.57649 0.0
H878 H 0.20625 0.47189 0.41372 0.0
H879 H 0.20446 0.45218 0.46523 0.0
H880 H 0.23256 0.45034 0.61936 0.0
H881 H 0.1993 0.44779 0.5552 0.0
H882 H 0.31346 0.54035 0.52614 0.0
H883 H 0.29014 0.5358 0.45648 0.0
H884 H 0.35272 0.52465 0.5883 0.0
H885 H 0.34291 0.50745 0.64533 0.0
C886 C 0.75418 0.53837 0.55434 0.0
C887 C 0.72217 0.52727 0.59026 0.0
C888 C 0.71817 0.50009 0.5158 0.0
C889 C 0.74492 0.51247 0.47669 0.0
N890 N 0.78761 0.54361 0.45678 0.0
N891 N 0.67112 0.49813 0.6049 0.0
C892 C 0.76326 0.53159 0.49567 0.0
C893 C 0.70401 0.50812 0.57132 0.0
N894 N 0.77627 0.55525 0.57691 0.0
N895 N 0.70678 0.48051 0.50001 0.0
H896 H 0.6608 0.50308 0.64665 0.0
H897 H 0.65175 0.4856 0.59007 0.0
H898 H 0.71555 0.47431 0.45916 0.0
H899 H 0.69213 0.46987 0.52888 0.0
H900 H 0.80327 0.56306 0.55539 0.0
H901 H 0.77029 0.56045 0.61979 0.0
H902 H 0.79735 0.55867 0.4654 0.0
H903 H 0.79586 0.5389 0.41404 0.0
C904 C 0.00571 0.72448 0.80362 0.0
C905 C 0.97366 0.7354 0.83996 0.0
C906 C 0.96935 0.76284 0.76628 0.0
C907 C 0.99602 0.75062 0.72672 0.0
N908 N 0.03886 0.71962 0.70577 0.0
N909 N 0.92237 0.7644 0.8555 0.0
C910 C 0.01455 0.73147 0.74509 0.0
C911 C 0.95531 0.75459 0.82161 0.0
N912 N 0.02806 0.70759 0.82565 0.0
N913 N 0.95788 0.78247 0.7511 0.0
H914 H 0.91205 0.75926 0.89707 0.0
H915 H 0.90292 0.77695 0.84106 0.0
H916 H 0.9667 0.78885 0.71046 0.0
H917 H 0.94317 0.79298 0.7803 0.0
H918 H 0.0551 0.69992 0.80381 0.0
H919 H 0.02228 0.70224 0.86844 0.0
H920 H 0.0487 0.70454 0.71395 0.0
H921 H 0.04698 0.72448 0.66313 0.0
C922 C 0.99717 0.28796 0.80475 0.0
C923 C 0.02946 0.27691 0.84037 0.0
C924 C 0.03482 0.25014 0.76472 0.0
C925 C 0.00755 0.26249 0.72612 0.0
N926 N 0.96358 0.29337 0.70735 0.0
N927 N 0.08128 0.24799 0.85432 0.0
C928 C 0.98843 0.28138 0.7458 0.0
C929 C 0.04837 0.25797 0.82076 0.0
N930 N 0.97446 0.30459 0.82789 0.0
N931 N 0.0473 0.23078 0.74797 0.0
H932 H 0.0909 0.25273 0.89654 0.0
H933 H 0.10123 0.23569 0.8392 0.0
H934 H 0.03922 0.22478 0.70664 0.0
H935 H 0.06236 0.2201 0.77635 0.0
H936 H 0.94725 0.31233 0.8066 0.0
H937 H 0.98019 0.30963 0.87099 0.0
H938 H 0.95317 0.30831 0.71653 0.0
H939 H 0.95557 0.28881 0.66441 0.0
C940 C 0.28855 0.00943 1.00448 0.0
C941 C 0.25737 0.99764 0.96903 0.0
C942 C 0.24414 0.97402 0.05192 0.0
C943 C 0.27941 0.98441 0.08464 0.0
N944 N 0.33544 0.01195 0.09392 0.0
N945 N 0.20567 0.96865 0.95723 0.0
C946 C 0.30113 1.00231 0.06177 0.0
C947 C 0.23471 0.98004 0.99255 0.0
N948 N 0.30582 0.02754 0.98337 0.0
N949 N 0.21942 0.95854 0.07826 0.0
H950 H 0.19715 0.97289 0.91417 0.0
H951 H 0.19188 0.95448 0.96905 0.0
H952 H 0.2257 0.95398 0.12169 0.0
H953 H 0.19041 0.95131 0.05934 0.0
H954 H 0.32416 0.03813 0.00887 0.0
H955 H 0.2994 0.03269 0.94065 0.0
H956 H 0.35743 0.02332 0.07727 0.0
H957 H 0.3434 0.00798 0.13734 0.0
C958 C 0.75988 0.03207 0.99198 0.0
C959 C 0.74031 0.01324 0.97252 0.0
C960 C 0.70013 0.0088 0.06761 0.0
C961 C 0.71944 0.0277 0.08697 0.0
N962 N 0.77436 0.05537 0.07372 0.0
N963 N 0.6993 0.98181 0.99417 0.0
C964 C 0.75148 0.03873 0.05093 0.0
C965 C 0.71286 1.001 0.01124 0.0
N966 N 0.785 0.04389 0.95335 0.0
N967 N 0.66764 0.99883 0.10186 0.0
H968 H 0.70617 0.97597 0.95232 0.0
H969 H 0.68421 0.97112 0.02249 0.0
H970 H 0.65873 1.00353 0.14436 0.0
H971 H 0.64738 0.98655 0.08722 0.0
H972 H 0.7958 0.05879 0.96228 0.0
H973 H 0.793 0.0392 0.91053 0.0
H974 H 0.80141 0.06312 0.05212 0.0
H975 H 0.76888 0.06048 0.1168 0.0
C976 C 0.46 0.2583 0.75347 0.0
C977 C 0.48983 0.24638 0.71663 0.0
C978 C 0.50271 0.22202 0.79785 0.0
C979 C 0.46902 0.23275 0.83227 0.0
N980 N 0.41473 0.26084 0.84414 0.0
N981 N 0.53894 0.21674 0.70174 0.0
C982 C 0.44799 0.25101 0.81076 0.0
C983 C 0.51145 0.22829 0.73851 0.0
N984 N 0.44341 0.2767 0.73363 0.0
N985 N 0.52676 0.20604 0.82259 0.0
H986 H 0.54707 0.22117 0.65872 0.0
H987 H 0.55175 0.20229 0.71233 0.0
H988 H 0.52103 0.20127 0.86595 0.0
H989 H 0.55478 0.19852 0.80235 0.0
H990 H 0.42644 0.2874 0.7602 0.0
H991 H 0.44895 0.28191 0.6908 0.0
H992 H 0.39319 0.27254 0.82851 0.0
H993 H 0.40696 0.25669 0.88747 0.0
C994 C 0.49997 0.78927 0.80127 0.0
C995 C 0.53196 0.77804 0.83686 0.0
C996 C 0.53645 0.75121 0.76129 0.0
C997 C 0.50915 0.76362 0.72286 0.0
N998 N 0.46588 0.79468 0.70409 0.0
N999 N 0.5832 0.74892 0.8506 0.0
C1000 C 0.4907 0.78264 0.74247 0.0
C1001 C 0.5504 0.75902 0.81718 0.0
N1002 N 0.47793 0.80608 0.82432 0.0
N1003 N 0.54857 0.73182 0.74452 0.0
H1004 H 0.59317 0.75364 0.89271 0.0
H1005 H 0.60283 0.73652 0.83543 0.0
H1006 H 0.54042 0.72585 0.70319 0.0
H1007 H 0.56351 0.72108 0.77284 0.0
H1008 H 0.45091 0.81397 0.80311 0.0
H1009 H 0.4841 0.8112 0.86725 0.0
H1010 H 0.45592 0.80968 0.71311 0.0
H1011 H 0.45738 0.79004 0.66136 0.0
C1012 C 0.79733 0.50429 0.07128 0.0
C1013 C 0.77875 0.48523 0.0904 0.0
C1014 C 0.7373 0.48103 0.99601 0.0
C1015 C 0.75614 0.50003 0.9768 0.0
N1016 N 0.79534 0.53179 0.99955 0.0
N1017 N 0.72394 0.45749 0.07747 0.0
C1018 C 0.78332 0.51232 0.01567 0.0
C1019 C 0.74637 0.47425 0.05469 0.0
N1020 N 0.83045 0.51417 0.10475 0.0
N1021 N 0.71246 0.46912 0.95734 0.0
H1022 H 0.72991 0.4523 0.12037 0.0
H1023 H 0.69671 0.44978 0.05612 0.0
H1024 H 0.70418 0.47384 0.91462 0.0
H1025 H 0.70231 0.45412 0.96611 0.0
H1026 H 0.8501 0.5266 0.08983 0.0
H1027 H 0.84062 0.50922 0.14657 0.0
H1028 H 0.81034 0.5424 0.02823 0.0
H1029 H 0.78683 0.53796 0.95856 0.0
C1030 C 0.25555 0.53755 0.05516 0.0
C1031 C 0.22243 0.52676 0.09026 0.0
C1032 C 0.21528 0.50041 0.01366 0.0
C1033 C 0.24361 0.51255 0.97566 0.0
N1034 N 0.29 0.54286 0.95817 0.0
N1035 N 0.16872 0.49845 0.10323 0.0
C1036 C 0.26407 0.53108 0.99608 0.0
C1037 C 0.20227 0.50816 0.06998 0.0
N1038 N 0.2792 0.55382 0.07893 0.0
N1039 N 0.20124 0.48135 0.99605 0.0
H1040 H 0.15952 0.50311 0.14567 0.0
H1041 H 0.14793 0.48647 0.08774 0.0
H1042 H 0.20868 0.47548 0.95439 0.0
H1043 H 0.18534 0.47074 0.02394 0.0
H1044 H 0.30695 0.56134 0.05804 0.0
H1045 H 0.2736 0.55878 0.12214 0.0
H1046 H 0.30154 0.55759 0.96789 0.0
H1047 H 0.29785 0.53835 0.91514 0.0
C1048 C 0.4511 0.75349 0.31723 0.0
C1049 C 0.47114 0.7349 0.33778 0.0
C1050 C 0.51305 0.73047 0.24384 0.0
C1051 C 0.49272 0.74898 0.22315 0.0
N1052 N 0.45025 0.78019 0.24292 0.0
N1053 N 0.52783 0.70779 0.32695 0.0
C1054 C 0.46426 0.76116 0.26086 0.0
C1055 C 0.50431 0.72405 0.30293 0.0
N1056 N 0.41758 0.76327 0.35032 0.0
N1057 N 0.53909 0.71864 0.20618 0.0
H1058 H 0.52206 0.70287 0.37017 0.0
H1059 H 0.55561 0.70024 0.30627 0.0
H1060 H 0.54713 0.72312 0.16317 0.0
H1061 H 0.55056 0.70391 0.21607 0.0
H1062 H 0.39687 0.77526 0.3347 0.0
H1063 H 0.40835 0.75868 0.39283 0.0
H1064 H 0.43422 0.79084 0.27057 0.0
H1065 H 0.45777 0.786 0.2012 0.0
C1066 C 0.56878 0.28247 0.278 0.0
C1067 C 0.53925 0.27923 0.32817 0.0
C1068 C 0.4896 0.25695 0.26673 0.0
C1069 C 0.5147 0.26315 0.21537 0.0
N1070 N 0.5697 0.28718 0.17256 0.0
N1071 N 0.46321 0.26736 0.36355 0.0
C1072 C 0.55137 0.27772 0.22114 0.0
C1073 C 0.49703 0.26767 0.32068 0.0
N1074 N 0.61471 0.28855 0.28401 0.0
N1075 N 0.46085 0.2402 0.26552 0.0
H1076 H 0.46521 0.27621 0.40168 0.0
H1077 H 0.43055 0.26028 0.35754 0.0
H1078 H 0.45704 0.23098 0.22835 0.0
H1079 H 0.44516 0.23423 0.30341 0.0
H1080 H 0.63773 0.28957 0.24822 0.0
H1081 H 0.63185 0.28961 0.32449 0.0
H1082 H 0.59425 0.29904 0.17566 0.0
H1083 H 0.55625 0.28492 0.13022 0.0
C1084 C 0.74722 0.97362 0.55086 0.0
C1085 C 0.77938 0.98463 0.58679 0.0
C1086 C 0.78577 0.01135 0.51113 0.0
C1087 C 0.75816 0.99915 0.4725 0.0
N1088 N 0.71355 0.96847 0.45337 0.0
N1089 N 0.83157 0.01338 0.60132 0.0
C1090 C 0.73869 0.9803 0.49196 0.0
C1091 C 0.79876 1.0035 0.56735 0.0
N1092 N 0.72436 0.95697 0.57369 0.0
N1093 N 0.79923 0.03056 0.49413 0.0
H1094 H 0.84084 0.00859 0.64362 0.0
H1095 H 0.85178 0.02565 0.58656 0.0
H1096 H 0.79211 0.03646 0.45241 0.0
H1097 H 0.81444 0.04122 0.52246 0.0
H1098 H 0.69723 0.94926 0.55217 0.0
H1099 H 0.72996 0.95183 0.61671 0.0
H1100 H 0.70286 0.95355 0.46228 0.0
H1101 H 0.70547 0.97317 0.41057 0.0
C1102 C 0.1796 0.03173 0.52854 0.0
C1103 C 0.20888 0.02894 0.57914 0.0
C1104 C 0.26068 0.00726 0.51863 0.0
C1105 C 0.23548 0.01299 0.4669 0.0
N1106 N 0.17921 0.03621 0.423 0.0
N1107 N 0.28546 0.01819 0.61566 0.0
C1108 C 0.19779 0.02709 0.47198 0.0
C1109 C 0.25199 0.01797 0.57234 0.0
N1110 N 0.13325 0.03725 0.53388 0.0
N1111 N 0.29075 0.99096 0.51799 0.0
H1112 H 0.28246 0.02707 0.65365 0.0
H1113 H 0.31868 0.01157 0.61018 0.0
H1114 H 0.29564 0.98177 0.48097 0.0
H1115 H 0.3066 0.98527 0.55614 0.0
H1116 H 0.11046 0.03792 0.49779 0.0
H1117 H 0.11572 0.03817 0.57414 0.0
H1118 H 0.15384 0.04775 0.42557 0.0
H1119 H 0.19315 0.03402 0.38087 0.0
C1120 C 0.27072 0.24879 0.05865 0.0
C1121 C 0.29144 0.24336 1.00378 0.0
C1122 C 0.22779 0.26096 0.95126 0.0
C1123 C 0.20976 0.26826 1.00576 0.0
N1124 N 0.21748 0.27154 0.11121 0.0
N1125 N 0.29581 0.24857 0.89823 0.0
C1126 C 0.23213 0.26283 0.05958 0.0
C1127 C 0.27172 0.25066 0.95019 0.0
N1128 N 0.28673 0.23997 0.10951 0.0
N1129 N 0.202 0.26298 0.90055 0.0
H1130 H 0.32873 0.24154 0.89504 0.0
H1131 H 0.28538 0.2557 0.85924 0.0
H1132 H 0.16889 0.26992 0.89901 0.0
H1133 H 0.21122 0.25585 0.86109 0.0
H1134 H 0.27009 0.24172 0.15016 0.0
H1135 H 0.3144 0.22945 0.11025 0.0
H1136 H 0.23534 0.26981 0.15105 0.0
H1137 H 0.18959 0.28194 0.1133 0.0
C1138 C 0.76982 0.74728 0.05988 0.0
C1139 C 0.79216 0.74244 1.00556 0.0
C1140 C 0.72958 0.76021 0.95163 0.0
C1141 C 0.71002 0.76703 1.00583 0.0
N1142 N 0.71489 0.76945 0.11177 0.0
N1143 N 0.7994 0.74864 0.90072 0.0
C1144 C 0.73097 0.76118 0.06018 0.0
C1145 C 0.77375 0.75011 0.9517 0.0
N1146 N 0.78477 0.73813 0.11076 0.0
N1147 N 0.70515 0.76261 0.90003 0.0
H1148 H 0.83274 0.74193 0.89855 0.0
H1149 H 0.78979 0.75603 0.86179 0.0
H1150 H 0.67197 0.76946 0.89766 0.0
H1151 H 0.71558 0.75587 0.86047 0.0
H1152 H 0.76701 0.73945 0.1508 0.0
H1153 H 0.81278 0.72778 0.1119 0.0
H1154 H 0.73171 0.76741 0.15219 0.0
H1155 H 0.68688 0.77979 0.11343 0.0
C1156 C 0.02086 0.51248 0.31026 0.0
C1157 C 0.04219 0.51817 0.25598 0.0
C1158 C 0.97895 0.50093 0.20171 0.0
C1159 C 0.96039 0.49333 0.25558 0.0
N1160 N 0.96734 0.48936 0.36095 0.0
N1161 N 0.04777 0.51336 0.15035 0.0
C1162 C 0.98231 0.49843 0.30997 0.0
C1163 C 0.02301 0.51114 0.20177 0.0
N1164 N 0.03637 0.52102 0.36176 0.0
N1165 N 0.9536 0.49925 0.15056 0.0
H1166 H 0.08097 0.52019 0.14805 0.0
H1167 H 0.03759 0.50646 0.11091 0.0
H1168 H 0.92037 0.49244 0.14827 0.0
H1169 H 0.96333 0.50657 0.11156 0.0
H1170 H 0.01928 0.51907 0.40203 0.0
H1171 H 0.06407 0.53153 0.36339 0.0
H1172 H 0.98486 0.49087 0.40109 0.0
H1173 H 0.93964 0.47884 0.36211 0.0
C1174 C 0.27236 0.75097 0.45075 0.0
C1175 C 0.29161 0.74391 0.50487 0.0
C1176 C 0.23225 0.76385 0.55912 0.0
C1177 C 0.21028 0.76903 0.50483 0.0
N1178 N 0.203 0.76307 0.39987 0.0
N1179 N 0.28612 0.74112 0.61069 0.0
C1180 C 0.2285 0.76133 0.45088 0.0
C1181 C 0.27056 0.74968 0.55925 0.0
N1182 N 0.29689 0.74866 0.39919 0.0
N1183 N 0.21757 0.77297 0.61016 0.0
H1184 H 0.31365 0.73053 0.61219 0.0
H1185 H 0.26922 0.74313 0.65106 0.0
H1186 H 0.19003 0.78356 0.61143 0.0
H1187 H 0.23517 0.7714 0.65023 0.0
H1188 H 0.2867 0.75559 0.35979 0.0
H1189 H 0.32995 0.74171 0.3967 0.0
H1190 H 0.21244 0.7557 0.36085 0.0
H1191 H 0.1699 0.77001 0.39772 0.0
C1192 C 0.76942 0.25057 0.56285 0.0
C1193 C 0.79039 0.24486 0.50834 0.0
C1194 C 0.72664 0.26188 0.45464 0.0
C1195 C 0.70841 0.26952 0.50858 0.0
N1196 N 0.71524 0.27335 0.61393 0.0
N1197 N 0.79521 0.24956 0.40263 0.0
C1198 C 0.73056 0.26448 0.56282 0.0
C1199 C 0.77083 0.25182 0.45431 0.0
N1200 N 0.78541 0.24213 0.61424 0.0
N1201 N 0.70068 0.26327 0.40392 0.0
H1202 H 0.82847 0.24279 0.40009 0.0
H1203 H 0.78465 0.25638 0.36321 0.0
H1204 H 0.6669 0.26958 0.40251 0.0
H1205 H 0.71037 0.25607 0.36473 0.0
H1206 H 0.76867 0.24409 0.65473 0.0
H1207 H 0.81329 0.23172 0.61565 0.0
H1208 H 0.73284 0.27192 0.65404 0.0
H1209 H 0.68685 0.28352 0.61527 0.0
C1210 C 0.01605 0.01314 0.81267 0.0
C1211 C 0.03845 0.01819 0.75858 0.0
C1212 C 0.97648 1.00036 0.70383 0.0
C1213 C 0.95654 0.99347 0.75773 0.0
N1214 N 0.96068 0.99089 0.86368 0.0
N1215 N 0.04692 0.01184 0.65408 0.0
C1216 C 0.97716 0.99923 0.8124 0.0
C1217 C 0.02063 0.01045 0.70455 0.0
N1218 N 0.0311 0.02203 0.86387 0.0
N1219 N 0.95242 0.99808 0.65192 0.0
H1220 H 0.08065 0.01822 0.65297 0.0
H1221 H 0.03754 1.00459 0.61486 0.0
H1222 H 0.91915 0.99134 0.64906 0.0
H1223 H 0.96326 1.00487 0.61257 0.0
H1224 H 0.01333 0.02061 0.90386 0.0
H1225 H 0.05951 0.03219 0.86543 0.0
H1226 H 0.9771 0.99288 0.90437 0.0
H1227 H 0.93266 0.98053 0.86485 0.0
C1228 C 0.48062 0.49967 0.81115 0.0
C1229 C 0.4596 0.49372 0.75692 0.0
C1230 C 0.52258 0.51108 0.70245 0.0
C1231 C 0.54091 0.51887 0.75623 0.0
N1232 N 0.53382 0.52304 0.8615 0.0
N1233 N 0.45427 0.4981 0.65113 0.0
C1234 C 0.51899 0.51382 0.81066 0.0
C1235 C 0.47878 0.50065 0.70262 0.0
N1236 N 0.46504 0.49127 0.8628 0.0
N1237 N 0.54796 0.51278 0.65133 0.0
H1238 H 0.42135 0.49101 0.64886 0.0
H1239 H 0.46433 0.50493 0.61153 0.0
H1240 H 0.58098 0.51978 0.64896 0.0
H1241 H 0.53852 0.50532 0.61244 0.0
H1242 H 0.48193 0.49339 0.90313 0.0
H1243 H 0.43743 0.48072 0.86459 0.0
H1244 H 0.51629 0.52158 0.90165 0.0
H1245 H 0.56145 0.53359 0.86252 0.0
C1246 C 0.48139 0.9989 0.30833 0.0
C1247 C 0.46001 0.99382 0.25354 0.0
C1248 C 0.52326 0.01164 0.20086 0.0
C1249 C 0.54187 0.01865 0.25538 0.0
N1250 N 0.53548 0.02124 0.3611 0.0
N1251 N 0.45459 0.99969 0.14835 0.0
C1252 C 0.52012 0.01288 0.3093 0.0
C1253 C 0.47925 1.0014 0.2 0.0
N1254 N 0.4658 0.98983 0.35903 0.0
N1255 N 0.54852 0.01395 0.14983 0.0
H1256 H 0.42151 0.99278 0.14534 0.0
H1257 H 0.4647 0.00703 0.10955 0.0
H1258 H 0.58161 0.0209 0.14808 0.0
H1259 H 0.53889 0.00703 0.1102 0.0
H1260 H 0.48287 0.99131 0.39948 0.0
H1261 H 0.43799 0.97937 0.35974 0.0
H1262 H 0.51809 0.01929 0.40118 0.0
H1263 H 0.56357 0.03154 0.36322 0.0
loop_
_geom_bond_atom_site_label_1
_geom_bond_atom_site_label_2
_geom_bond_distance
_geom_bond_site_symmetry_2
_ccdc_geom_bond_type
Co0 O3 1.970 . S
Co0 N17 1.989 . S
Co0 O25 1.967 . S
Co0 O32 1.920 . S
Co1 O4 1.966 . S
Co1 N10 2.022 . S
Co1 N18 1.993 . S
Co1 O26 1.941 1_554 S
C2 O3 1.258 . S
C2 O4 1.263 1_556 S
O3 Co0 1.970 . S
O3 C2 1.258 . S
O4 Co1 1.966 . S
O4 C2 1.263 1_554 S
C5 O6 1.235 . S
C5 O32 1.289 . S
O6 C5 1.235 . S
C7 C9 1.400 . S
C7 N10 1.351 . S
C7 C12 1.501 . S
C8 C9 1.387 1_655 S
C8 N11 1.341 . S
C9 C7 1.400 . S
C9 C8 1.387 1_455 S
N10 Co1 2.022 . S
N10 C7 1.351 . S
N10 N11 1.365 1_455 S
N11 C8 1.341 . S
N11 N10 1.365 1_655 S
N11 H31 0.862 . S
C12 C7 1.501 . S
C12 H13 0.961 . S
C12 H14 0.961 . S
C12 H15 0.960 . S
H13 C12 0.961 . S
H14 C12 0.961 . S
H15 C12 0.960 . S
C16 N17 1.342 1_554 S
C16 C20 1.401 . S
C16 C21 1.499 1_554 S
N17 Co0 1.989 . S
N17 C16 1.342 1_556 S
N17 N18 1.388 1_556 S
N18 Co1 1.993 . S
N18 N17 1.388 1_554 S
N18 C19 1.346 . S
C19 N18 1.346 . S
C19 C20 1.396 . S
C19 C29 1.510 1_455 S
C20 C16 1.401 . S
C20 C19 1.396 . S
C21 C16 1.499 1_556 S
C21 H22 0.959 . S
C21 H23 0.965 . S
C21 H24 0.961 . S
H22 C21 0.959 . S
H23 C21 0.965 . S
H24 C21 0.961 . S
O25 Co0 1.967 . S
O25 C33 1.258 . S
O26 Co1 1.941 1_556 S
O26 C33 1.266 . S
H27 C29 0.959 . S
H28 C29 0.961 1_455 S
C29 C19 1.510 1_655 S
C29 H27 0.959 . S
C29 H28 0.961 1_655 S
C29 H30 0.960 1_655 S
H30 C29 0.960 1_455 S
H31 N11 0.862 . S
O32 Co0 1.920 . S
O32 C5 1.289 . S
C33 O25 1.258 . S
C33 O26 1.266 . S
Co34 O37 1.970 . S
Co34 N51 1.989 . S
Co34 O59 1.967 . S
Co34 O66 1.920 . S
Co35 O38 1.966 . S
Co35 N44 2.022 . S
Co35 N52 1.993 . S
Co35 O60 1.941 1_554 S
C36 O37 1.258 . S
C36 O38 1.263 1_556 S
O37 Co34 1.970 . S
O37 C36 1.258 . S
O38 Co35 1.966 . S
O38 C36 1.263 1_554 S
C39 O40 1.235 . S
C39 O66 1.289 . S
O40 C39 1.235 . S
C41 C43 1.400 . S
C41 N44 1.351 . S
C41 C46 1.501 . S
C42 C43 1.387 1_455 S
C42 N45 1.341 . S
C43 C41 1.400 . S
C43 C42 1.387 1_655 S
N44 Co35 2.022 . S
N44 C41 1.351 . S
N44 N45 1.365 1_655 S
N45 C42 1.341 . S
N45 N44 1.365 1_455 S
N45 H65 0.862 . S
C46 C41 1.501 . S
C46 H47 0.961 . S
C46 H48 0.961 . S
C46 H49 0.960 . S
H47 C46 0.961 . S
H48 C46 0.961 . S
H49 C46 0.960 . S
C50 N51 1.342 1_554 S
C50 C54 1.401 . S
C50 C55 1.499 1_554 S
N51 Co34 1.989 . S
N51 C50 1.342 1_556 S
N51 N52 1.388 1_556 S
N52 Co35 1.993 . S
N52 N51 1.388 1_554 S
N52 C53 1.346 . S
C53 N52 1.346 . S
C53 C54 1.396 . S
C53 C63 1.510 1_655 S
C54 C50 1.401 . S
C54 C53 1.396 . S
C55 C50 1.499 1_556 S
C55 H56 0.959 . S
C55 H57 0.965 . S
C55 H58 0.961 . S
H56 C55 0.959 . S
H57 C55 0.965 . S
H58 C55 0.961 . S
O59 Co34 1.967 . S
O59 C67 1.258 . S
O60 Co35 1.941 1_556 S
O60 C67 1.266 . S
H61 C63 0.959 . S
H62 C63 0.961 1_655 S
C63 C53 1.510 1_455 S
C63 H61 0.959 . S
C63 H62 0.961 1_455 S
C63 H64 0.960 1_455 S
H64 C63 0.960 1_655 S
H65 N45 0.862 . S
O66 Co34 1.920 . S
O66 C39 1.289 . S
C67 O59 1.258 . S
C67 O60 1.266 . S
Co68 O71 1.970 . S
Co68 N85 1.989 . S
Co68 O93 1.967 . S
Co68 O100 1.920 . S
Co69 O72 1.966 . S
Co69 N78 2.022 . S
Co69 N86 1.993 . S
Co69 O94 1.941 . S
C70 O71 1.258 . S
C70 O72 1.263 . S
O71 Co68 1.970 . S
O71 C70 1.258 . S
O72 Co69 1.966 . S
O72 C70 1.263 . S
C73 O74 1.235 . S
C73 O100 1.289 . S
O74 C73 1.235 . S
C75 C77 1.400 . S
C75 N78 1.351 . S
C75 C80 1.501 . S
C76 C77 1.387 . S
C76 N79 1.341 . S
C77 C75 1.400 . S
C77 C76 1.387 . S
N78 Co69 2.022 . S
N78 C75 1.351 . S
N78 N79 1.365 . S
N79 C76 1.341 . S
N79 N78 1.365 . S
N79 H99 0.862 . S
C80 C75 1.501 . S
C80 H81 0.961 . S
C80 H82 0.961 . S
C80 H83 0.960 . S
H81 C80 0.961 . S
H82 C80 0.961 . S
H83 C80 0.960 . S
C84 N85 1.342 . S
C84 C88 1.401 . S
C84 C89 1.499 . S
N85 Co68 1.989 . S
N85 C84 1.342 . S
N85 N86 1.388 . S
N86 Co69 1.993 . S
N86 N85 1.388 . S
N86 C87 1.346 . S
C87 N86 1.346 . S
C87 C88 1.396 . S
C87 C97 1.510 . S
C88 C84 1.401 . S
C88 C87 1.396 . S
C89 C84 1.499 . S
C89 H90 0.959 . S
C89 H91 0.960 . S
C89 H92 0.961 . S
H90 C89 0.959 . S
H91 C89 0.960 . S
H92 C89 0.961 . S
O93 Co68 1.967 . S
O93 C101 1.258 . S
O94 Co69 1.941 . S
O94 C101 1.266 . S
H95 C97 0.959 . S
H96 C97 0.961 . S
C97 C87 1.510 . S
C97 H95 0.959 . S
C97 H96 0.961 . S
C97 H98 0.960 . S
H98 C97 0.960 . S
H99 N79 0.862 . S
O100 Co68 1.920 . S
O100 C73 1.289 . S
C101 O93 1.258 . S
C101 O94 1.266 . S
Co102 O105 1.970 . S
Co102 N119 1.989 . S
Co102 O127 1.967 . S
Co102 O134 1.920 . S
Co103 O106 1.966 . S
Co103 N112 2.022 . S
Co103 N120 1.993 . S
Co103 O128 1.941 . S
C104 O105 1.258 . S
C104 O106 1.263 . S
O105 Co102 1.970 . S
O105 C104 1.258 . S
O106 Co103 1.966 . S
O106 C104 1.263 . S
C107 O108 1.235 . S
C107 O134 1.289 . S
O108 C107 1.235 . S
C109 C111 1.400 . S
C109 N112 1.351 . S
C109 C114 1.501 . S
C110 C111 1.387 . S
C110 N113 1.341 . S
C111 C109 1.400 . S
C111 C110 1.387 . S
N112 Co103 2.022 . S
N112 C109 1.351 . S
N112 N113 1.365 . S
N113 C110 1.341 . S
N113 N112 1.365 . S
N113 H133 0.862 . S
C114 C109 1.501 . S
C114 H115 0.961 . S
C114 H116 0.961 . S
C114 H117 0.960 . S
H115 C114 0.961 . S
H116 C114 0.961 . S
H117 C114 0.960 . S
C118 N119 1.342 . S
C118 C122 1.401 . S
C118 C123 1.499 . S
N119 Co102 1.989 . S
N119 C118 1.342 . S
N119 N120 1.388 . S
N120 Co103 1.993 . S
N120 N119 1.388 . S
N120 C121 1.346 . S
C121 N120 1.346 . S
C121 C122 1.396 . S
C121 C131 1.510 . S
C122 C118 1.401 . S
C122 C121 1.396 . S
C123 C118 1.499 . S
C123 H124 0.959 . S
C123 H125 0.960 . S
C123 H126 0.961 . S
H124 C123 0.959 . S
H125 C123 0.960 . S
H126 C123 0.961 . S
O127 Co102 1.967 . S
O127 C135 1.258 . S
O128 Co103 1.941 . S
O128 C135 1.266 . S
H129 C131 0.959 . S
H130 C131 0.961 . S
C131 C121 1.510 . S
C131 H129 0.959 . S
C131 H130 0.961 . S
C131 H132 0.960 . S
H132 C131 0.960 . S
H133 N113 0.862 . S
O134 Co102 1.920 . S
O134 C107 1.289 . S
C135 O127 1.258 . S
C135 O128 1.266 . S
Co136 O139 1.970 . S
Co136 N153 1.989 . S
Co136 O161 1.967 . S
Co136 O168 1.920 . S
Co137 O140 1.966 . S
Co137 N146 2.022 . S
Co137 N154 1.993 . S
Co137 O162 1.941 . S
C138 O139 1.258 . S
C138 O140 1.263 . S
O139 Co136 1.970 . S
O139 C138 1.258 . S
O140 Co137 1.966 . S
O140 C138 1.263 . S
C141 O142 1.235 . S
C141 O168 1.289 . S
O142 C141 1.235 . S
C143 C145 1.400 . S
C143 N146 1.351 . S
C143 C148 1.501 . S
C144 C145 1.387 1_655 S
C144 N147 1.341 . S
C145 C143 1.400 . S
C145 C144 1.387 1_455 S
N146 Co137 2.022 . S
N146 C143 1.351 . S
N146 N147 1.365 1_455 S
N147 C144 1.341 . S
N147 N146 1.365 1_655 S
N147 H167 0.862 . S
C148 C143 1.501 . S
C148 H149 0.961 . S
C148 H150 0.961 . S
C148 H151 0.960 . S
H149 C148 0.961 . S
H150 C148 0.961 . S
H151 C148 0.960 . S
C152 N153 1.342 . S
C152 C156 1.401 . S
C152 C157 1.499 . S
N153 Co136 1.989 . S
N153 C152 1.342 . S
N153 N154 1.388 . S
N154 Co137 1.993 . S
N154 N153 1.388 . S
N154 C155 1.346 . S
C155 N154 1.346 . S
C155 C156 1.396 . S
C155 C165 1.510 1_455 S
C156 C152 1.401 . S
C156 C155 1.396 . S
C157 C152 1.499 . S
C157 H158 0.959 . S
C157 H159 0.960 . S
C157 H160 0.961 . S
H158 C157 0.959 . S
H159 C157 0.960 . S
H160 C157 0.961 . S
O161 Co136 1.967 . S
O161 C169 1.258 . S
O162 Co137 1.941 . S
O162 C169 1.266 . S
H163 C165 0.959 . S
H164 C165 0.961 1_455 S
C165 C155 1.510 1_655 S
C165 H163 0.959 . S
C165 H164 0.961 1_655 S
C165 H166 0.960 1_655 S
H166 C165 0.960 1_455 S
H167 N147 0.862 . S
O168 Co136 1.920 . S
O168 C141 1.289 . S
C169 O161 1.258 . S
C169 O162 1.266 . S
Co170 O173 1.970 . S
Co170 N187 1.989 . S
Co170 O195 1.967 . S
Co170 O202 1.920 . S
Co171 O174 1.966 . S
Co171 N180 2.022 . S
Co171 N188 1.993 . S
Co171 O196 1.941 . S
C172 O173 1.258 . S
C172 O174 1.263 . S
O173 Co170 1.970 . S
O173 C172 1.258 . S
O174 Co171 1.966 . S
O174 C172 1.263 . S
C175 O176 1.235 . S
C175 O202 1.289 . S
O176 C175 1.235 . S
C177 C179 1.400 . S
C177 N180 1.351 . S
C177 C182 1.501 . S
C178 C179 1.387 1_455 S
C178 N181 1.341 . S
C179 C177 1.400 . S
C179 C178 1.387 1_655 S
N180 Co171 2.022 . S
N180 C177 1.351 . S
N180 N181 1.365 1_655 S
N181 C178 1.341 . S
N181 N180 1.365 1_455 S
N181 H201 0.862 . S
C182 C177 1.501 . S
C182 H183 0.961 . S
C182 H184 0.961 . S
C182 H185 0.960 . S
H183 C182 0.961 . S
H184 C182 0.961 . S
H185 C182 0.960 . S
C186 N187 1.342 . S
C186 C190 1.401 . S
C186 C191 1.499 . S
N187 Co170 1.989 . S
N187 C186 1.342 . S
N187 N188 1.388 . S
N188 Co171 1.993 . S
N188 N187 1.388 . S
N188 C189 1.346 . S
C189 N188 1.346 . S
C189 C190 1.396 . S
C189 C199 1.510 1_655 S
C190 C186 1.401 . S
C190 C189 1.396 . S
C191 C186 1.499 . S
C191 H192 0.959 . S
C191 H193 0.960 . S
C191 H194 0.961 . S
H192 C191 0.959 . S
H193 C191 0.960 . S
H194 C191 0.961 . S
O195 Co170 1.967 . S
O195 C203 1.258 . S
O196 Co171 1.941 . S
O196 C203 1.266 . S
H197 C199 0.959 . S
H198 C199 0.961 1_655 S
C199 C189 1.510 1_455 S
C199 H197 0.959 . S
C199 H198 0.961 1_455 S
C199 H200 0.960 1_455 S
H200 C199 0.960 1_655 S
H201 N181 0.862 . S
O202 Co170 1.920 . S
O202 C175 1.289 . S
C203 O195 1.258 . S
C203 O196 1.266 . S
Co204 O207 1.970 . S
Co204 N221 1.989 . S
Co204 O229 1.967 . S
Co204 O236 1.920 . S
Co205 O208 1.966 . S
Co205 N214 2.022 . S
Co205 N222 1.993 . S
Co205 O230 1.941 . S
C206 O207 1.258 . S
C206 O208 1.263 . S
O207 Co204 1.970 . S
O207 C206 1.258 . S
O208 Co205 1.966 . S
O208 C206 1.263 . S
C209 O210 1.235 . S
C209 O236 1.289 . S
O210 C209 1.235 . S
C211 C213 1.400 . S
C211 N214 1.351 . S
C211 C216 1.501 . S
C212 C213 1.387 . S
C212 N215 1.341 . S
C213 C211 1.400 . S
C213 C212 1.387 . S
N214 Co205 2.022 . S
N214 C211 1.351 . S
N214 N215 1.365 . S
N215 C212 1.341 . S
N215 N214 1.365 . S
N215 H235 0.862 . S
C216 C211 1.501 . S
C216 H217 0.961 . S
C216 H218 0.961 . S
C216 H219 0.960 1_545 S
H217 C216 0.961 . S
H218 C216 0.961 . S
H219 C216 0.960 1_565 S
C220 N221 1.342 . S
C220 C224 1.401 . S
C220 C225 1.499 . S
N221 Co204 1.989 . S
N221 C220 1.342 . S
N221 N222 1.388 . S
N222 Co205 1.993 . S
N222 N221 1.388 . S
N222 C223 1.346 . S
C223 N222 1.346 . S
C223 C224 1.396 . S
C223 C233 1.510 . S
C224 C220 1.401 . S
C224 C223 1.396 . S
C225 C220 1.499 . S
C225 H226 0.959 . S
C225 H227 0.960 . S
C225 H228 0.961 . S
H226 C225 0.959 . S
H227 C225 0.960 . S
H228 C225 0.961 . S
O229 Co204 1.967 . S
O229 C237 1.258 . S
O230 Co205 1.941 . S
O230 C237 1.266 . S
H231 C233 0.959 . S
H232 C233 0.961 . S
C233 C223 1.510 . S
C233 H231 0.959 . S
C233 H232 0.961 . S
C233 H234 0.960 . S
H234 C233 0.960 . S
H235 N215 0.862 . S
O236 Co204 1.920 . S
O236 C209 1.289 . S
C237 O229 1.258 . S
C237 O230 1.266 . S
Co238 O241 1.970 . S
Co238 N255 1.989 . S
Co238 O263 1.967 . S
Co238 O270 1.920 . S
Co239 O242 1.966 . S
Co239 N248 2.022 . S
Co239 N256 1.993 . S
Co239 O264 1.941 . S
C240 O241 1.258 . S
C240 O242 1.263 . S
O241 Co238 1.970 . S
O241 C240 1.258 . S
O242 Co239 1.966 . S
O242 C240 1.263 . S
C243 O244 1.235 . S
C243 O270 1.289 . S
O244 C243 1.235 . S
C245 C247 1.400 . S
C245 N248 1.351 . S
C245 C250 1.501 . S
C246 C247 1.387 . S
C246 N249 1.341 . S
C247 C245 1.400 . S
C247 C246 1.387 . S
N248 Co239 2.022 . S
N248 C245 1.351 . S
N248 N249 1.365 . S
N249 C246 1.341 . S
N249 N248 1.365 . S
N249 H269 0.862 . S
C250 C245 1.501 . S
C250 H251 0.961 . S
C250 H252 0.961 . S
C250 H253 0.960 1_565 S
H251 C250 0.961 . S
H252 C250 0.961 . S
H253 C250 0.960 1_545 S
C254 N255 1.342 . S
C254 C258 1.401 . S
C254 C259 1.499 . S
N255 Co238 1.989 . S
N255 C254 1.342 . S
N255 N256 1.388 . S
N256 Co239 1.993 . S
N256 N255 1.388 . S
N256 C257 1.346 . S
C257 N256 1.346 . S
C257 C258 1.396 . S
C257 C267 1.510 . S
C258 C254 1.401 . S
C258 C257 1.396 . S
C259 C254 1.499 . S
C259 H260 0.959 . S
C259 H261 0.960 . S
C259 H262 0.961 . S
H260 C259 0.959 . S
H261 C259 0.960 . S
H262 C259 0.961 . S
O263 Co238 1.967 . S
O263 C271 1.258 . S
O264 Co239 1.941 . S
O264 C271 1.266 . S
H265 C267 0.959 . S
H266 C267 0.961 . S
C267 C257 1.510 . S
C267 H265 0.959 . S
C267 H266 0.961 . S
C267 H268 0.960 . S
H268 C267 0.960 . S
H269 N249 0.862 . S
O270 Co238 1.920 . S
O270 C243 1.289 . S
C271 O263 1.258 . S
C271 O264 1.266 . S
Co272 O275 1.970 . S
Co272 N289 1.989 . S
Co272 O297 1.967 . S
Co272 O304 1.920 . S
Co273 O276 1.966 . S
Co273 N282 2.022 . S
Co273 N290 1.993 . S
Co273 O298 1.941 . S
C274 O275 1.258 . S
C274 O276 1.263 . S
O275 Co272 1.970 . S
O275 C274 1.258 . S
O276 Co273 1.966 . S
O276 C274 1.263 . S
C277 O278 1.235 . S
C277 O304 1.289 . S
O278 C277 1.235 . S
C279 C281 1.400 . S
C279 N282 1.351 . S
C279 C284 1.501 . S
C280 C281 1.387 . S
C280 N283 1.341 . S
C281 C279 1.400 . S
C281 C280 1.387 . S
N282 Co273 2.022 . S
N282 C279 1.351 . S
N282 N283 1.365 . S
N283 C280 1.341 . S
N283 N282 1.365 . S
N283 H303 0.862 . S
C284 C279 1.501 . S
C284 H285 0.961 . S
C284 H286 0.961 . S
C284 H287 0.960 . S
H285 C284 0.961 . S
H286 C284 0.961 . S
H287 C284 0.960 . S
C288 N289 1.342 . S
C288 C292 1.401 . S
C288 C293 1.499 . S
N289 Co272 1.989 . S
N289 C288 1.342 . S
N289 N290 1.388 . S
N290 Co273 1.993 . S
N290 N289 1.388 . S
N290 C291 1.346 . S
C291 N290 1.346 . S
C291 C292 1.396 . S
C291 C301 1.510 . S
C292 C288 1.401 . S
C292 C291 1.396 . S
C293 C288 1.499 . S
C293 H294 0.959 . S
C293 H295 0.960 . S
C293 H296 0.961 . S
H294 C293 0.959 . S
H295 C293 0.960 . S
H296 C293 0.961 . S
O297 Co272 1.967 . S
O297 C305 1.258 . S
O298 Co273 1.941 . S
O298 C305 1.266 . S
H299 C301 0.959 . S
H300 C301 0.961 . S
C301 C291 1.510 . S
C301 H299 0.959 . S
C301 H300 0.961 . S
C301 H302 0.960 . S
H302 C301 0.960 . S
H303 N283 0.862 . S
O304 Co272 1.920 . S
O304 C277 1.289 . S
C305 O297 1.258 . S
C305 O298 1.266 . S
Co306 O309 1.970 . S
Co306 N323 1.989 . S
Co306 O331 1.967 . S
Co306 O338 1.920 . S
Co307 O310 1.966 . S
Co307 N316 2.022 . S
Co307 N324 1.993 . S
Co307 O332 1.941 . S
C308 O309 1.258 . S
C308 O310 1.263 . S
O309 Co306 1.970 . S
O309 C308 1.258 . S
O310 Co307 1.966 . S
O310 C308 1.263 . S
C311 O312 1.235 . S
C311 O338 1.289 . S
O312 C311 1.235 . S
C313 C315 1.400 . S
C313 N316 1.351 . S
C313 C318 1.501 . S
C314 C315 1.387 . S
C314 N317 1.341 . S
C315 C313 1.400 . S
C315 C314 1.387 . S
N316 Co307 2.022 . S
N316 C313 1.351 . S
N316 N317 1.365 . S
N317 C314 1.341 . S
N317 N316 1.365 . S
N317 H337 0.862 . S
C318 C313 1.501 . S
C318 H319 0.961 . S
C318 H320 0.961 . S
C318 H321 0.960 . S
H319 C318 0.961 . S
H320 C318 0.961 . S
H321 C318 0.960 . S
C322 N323 1.342 . S
C322 C326 1.401 . S
C322 C327 1.499 . S
N323 Co306 1.989 . S
N323 C322 1.342 . S
N323 N324 1.388 . S
N324 Co307 1.993 . S
N324 N323 1.388 . S
N324 C325 1.346 . S
C325 N324 1.346 . S
C325 C326 1.396 . S
C325 C335 1.510 . S
C326 C322 1.401 . S
C326 C325 1.396 . S
C327 C322 1.499 . S
C327 H328 0.959 . S
C327 H329 0.960 . S
C327 H330 0.961 . S
H328 C327 0.959 . S
H329 C327 0.960 . S
H330 C327 0.961 . S
O331 Co306 1.967 . S
O331 C339 1.258 . S
O332 Co307 1.941 . S
O332 C339 1.266 . S
H333 C335 0.959 . S
H334 C335 0.961 . S
C335 C325 1.510 . S
C335 H333 0.959 . S
C335 H334 0.961 . S
C335 H336 0.960 . S
H336 C335 0.960 . S
H337 N317 0.862 . S
O338 Co306 1.920 . S
O338 C311 1.289 . S
C339 O331 1.258 . S
C339 O332 1.266 . S
Co340 O343 1.970 . S
Co340 N357 1.989 . S
Co340 O365 1.967 . S
Co340 O372 1.920 . S
Co341 O344 1.966 . S
Co341 N350 2.022 . S
Co341 N358 1.993 . S
Co341 O366 1.941 . S
C342 O343 1.258 . S
C342 O344 1.263 . S
O343 Co340 1.970 . S
O343 C342 1.258 . S
O344 Co341 1.966 . S
O344 C342 1.263 . S
C345 O346 1.235 . S
C345 O372 1.289 . S
O346 C345 1.235 . S
C347 C349 1.400 . S
C347 N350 1.351 . S
C347 C352 1.501 . S
C348 C349 1.387 . S
C348 N351 1.341 . S
C349 C347 1.400 . S
C349 C348 1.387 . S
N350 Co341 2.022 . S
N350 C347 1.351 . S
N350 N351 1.365 . S
N351 C348 1.341 . S
N351 N350 1.365 . S
N351 H371 0.862 . S
C352 C347 1.501 . S
C352 H353 0.961 . S
C352 H354 0.961 . S
C352 H355 0.960 . S
H353 C352 0.961 . S
H354 C352 0.961 . S
H355 C352 0.960 . S
C356 N357 1.342 . S
C356 C360 1.401 . S
C356 C361 1.499 . S
N357 Co340 1.989 . S
N357 C356 1.342 . S
N357 N358 1.388 . S
N358 Co341 1.993 . S
N358 N357 1.388 . S
N358 C359 1.346 . S
C359 N358 1.346 . S
C359 C360 1.396 . S
C359 C369 1.510 . S
C360 C356 1.401 . S
C360 C359 1.396 . S
C361 C356 1.499 . S
C361 H362 0.959 . S
C361 H363 0.960 . S
C361 H364 0.961 . S
H362 C361 0.959 . S
H363 C361 0.960 . S
H364 C361 0.961 . S
O365 Co340 1.967 . S
O365 C373 1.258 . S
O366 Co341 1.941 . S
O366 C373 1.266 . S
H367 C369 0.959 . S
H368 C369 0.961 . S
C369 C359 1.510 . S
C369 H367 0.959 . S
C369 H368 0.961 . S
C369 H370 0.960 . S
H370 C369 0.960 . S
H371 N351 0.862 . S
O372 Co340 1.920 . S
O372 C345 1.289 . S
C373 O365 1.258 . S
C373 O366 1.266 . S
Co374 O377 1.970 . S
Co374 N391 1.989 . S
Co374 O399 1.967 . S
Co374 O406 1.920 . S
Co375 O378 1.966 . S
Co375 N384 2.022 . S
Co375 N392 1.993 . S
Co375 O400 1.941 . S
C376 O377 1.258 . S
C376 O378 1.263 . S
O377 Co374 1.970 . S
O377 C376 1.258 . S
O378 Co375 1.966 . S
O378 C376 1.263 . S
C379 O380 1.235 . S
C379 O406 1.289 . S
O380 C379 1.235 . S
C381 C383 1.400 . S
C381 N384 1.351 . S
C381 C386 1.501 . S
C382 C383 1.387 . S
C382 N385 1.341 . S
C383 C381 1.400 . S
C383 C382 1.387 . S
N384 Co375 2.022 . S
N384 C381 1.351 . S
N384 N385 1.365 . S
N385 C382 1.341 . S
N385 N384 1.365 . S
N385 H405 0.862 . S
C386 C381 1.501 . S
C386 H387 0.961 . S
C386 H388 0.961 . S
C386 H389 0.960 . S
H387 C386 0.961 . S
H388 C386 0.961 . S
H389 C386 0.960 . S
C390 N391 1.342 . S
C390 C394 1.401 . S
C390 C395 1.499 . S
N391 Co374 1.989 . S
N391 C390 1.342 . S
N391 N392 1.388 . S
N392 Co375 1.993 . S
N392 N391 1.388 . S
N392 C393 1.346 . S
C393 N392 1.346 . S
C393 C394 1.396 . S
C393 C403 1.510 . S
C394 C390 1.401 . S
C394 C393 1.396 . S
C395 C390 1.499 . S
C395 H396 0.959 . S
C395 H397 0.960 . S
C395 H398 0.961 . S
H396 C395 0.959 . S
H397 C395 0.960 . S
H398 C395 0.961 . S
O399 Co374 1.967 . S
O399 C407 1.258 . S
O400 Co375 1.941 . S
O400 C407 1.266 . S
H401 C403 0.959 . S
H402 C403 0.961 . S
C403 C393 1.510 . S
C403 H401 0.959 . S
C403 H402 0.961 . S
C403 H404 0.960 . S
H404 C403 0.960 . S
H405 N385 0.862 . S
O406 Co374 1.920 . S
O406 C379 1.289 . S
C407 O399 1.258 . S
C407 O400 1.266 . S
Co408 O411 1.970 . S
Co408 N425 1.989 . S
Co408 O433 1.967 . S
Co408 O440 1.920 . S
Co409 O412 1.966 . S
Co409 N418 2.022 . S
Co409 N426 1.993 . S
Co409 O434 1.941 1_554 S
C410 O411 1.258 . S
C410 O412 1.263 1_556 S
O411 Co408 1.970 . S
O411 C410 1.258 . S
O412 Co409 1.966 . S
O412 C410 1.263 1_554 S
C413 O414 1.235 . S
C413 O440 1.289 . S
O414 C413 1.235 . S
C415 C417 1.400 . S
C415 N418 1.351 . S
C415 C420 1.501 . S
C416 C417 1.387 . S
C416 N419 1.341 . S
C417 C415 1.400 . S
C417 C416 1.387 . S
N418 Co409 2.022 . S
N418 C415 1.351 . S
N418 N419 1.365 . S
N419 C416 1.341 . S
N419 N418 1.365 . S
N419 H439 0.862 . S
C420 C415 1.501 . S
C420 H421 0.961 . S
C420 H422 0.961 . S
C420 H423 0.960 . S
H421 C420 0.961 . S
H422 C420 0.961 . S
H423 C420 0.960 . S
C424 N425 1.342 1_554 S
C424 C428 1.401 . S
C424 C429 1.499 1_554 S
N425 Co408 1.989 . S
N425 C424 1.342 1_556 S
N425 N426 1.388 1_556 S
N426 Co409 1.993 . S
N426 N425 1.388 1_554 S
N426 C427 1.346 . S
C427 N426 1.346 . S
C427 C428 1.396 . S
C427 C437 1.510 . S
C428 C424 1.401 . S
C428 C427 1.396 . S
C429 C424 1.499 1_556 S
C429 H430 0.959 . S
C429 H431 0.965 . S
C429 H432 0.961 . S
H430 C429 0.959 . S
H431 C429 0.965 . S
H432 C429 0.961 . S
O433 Co408 1.967 . S
O433 C441 1.258 . S
O434 Co409 1.941 1_556 S
O434 C441 1.266 . S
H435 C437 0.959 . S
H436 C437 0.961 . S
C437 C427 1.510 . S
C437 H435 0.959 . S
C437 H436 0.961 . S
C437 H438 0.960 . S
H438 C437 0.960 . S
H439 N419 0.862 . S
O440 Co408 1.920 . S
O440 C413 1.289 . S
C441 O433 1.258 . S
C441 O434 1.266 . S
Co442 O445 1.970 . S
Co442 N459 1.989 . S
Co442 O467 1.967 . S
Co442 O474 1.920 . S
Co443 O446 1.966 . S
Co443 N452 2.022 . S
Co443 N460 1.993 . S
Co443 O468 1.941 1_554 S
C444 O445 1.258 . S
C444 O446 1.263 1_556 S
O445 Co442 1.970 . S
O445 C444 1.258 . S
O446 Co443 1.966 . S
O446 C444 1.263 1_554 S
C447 O448 1.235 . S
C447 O474 1.289 . S
O448 C447 1.235 . S
C449 C451 1.400 . S
C449 N452 1.351 . S
C449 C454 1.501 . S
C450 C451 1.387 . S
C450 N453 1.341 . S
C451 C449 1.400 . S
C451 C450 1.387 . S
N452 Co443 2.022 . S
N452 C449 1.351 . S
N452 N453 1.365 . S
N453 C450 1.341 . S
N453 N452 1.365 . S
N453 H473 0.862 . S
C454 C449 1.501 . S
C454 H455 0.961 . S
C454 H456 0.961 . S
C454 H457 0.960 . S
H455 C454 0.961 . S
H456 C454 0.961 . S
H457 C454 0.960 . S
C458 N459 1.342 1_554 S
C458 C462 1.401 . S
C458 C463 1.499 1_554 S
N459 Co442 1.989 . S
N459 C458 1.342 1_556 S
N459 N460 1.388 1_556 S
N460 Co443 1.993 . S
N460 N459 1.388 1_554 S
N460 C461 1.346 . S
C461 N460 1.346 . S
C461 C462 1.396 . S
C461 C471 1.510 . S
C462 C458 1.401 . S
C462 C461 1.396 . S
C463 C458 1.499 1_556 S
C463 H464 0.959 . S
C463 H465 0.965 . S
C463 H466 0.961 . S
H464 C463 0.959 . S
H465 C463 0.965 . S
H466 C463 0.961 . S
O467 Co442 1.967 . S
O467 C475 1.258 . S
O468 Co443 1.941 1_556 S
O468 C475 1.266 . S
H469 C471 0.959 . S
H470 C471 0.961 . S
C471 C461 1.510 . S
C471 H469 0.959 . S
C471 H470 0.961 . S
C471 H472 0.960 . S
H472 C471 0.960 . S
H473 N453 0.862 . S
O474 Co442 1.920 . S
O474 C447 1.289 . S
C475 O467 1.258 . S
C475 O468 1.266 . S
Co476 O479 1.970 . S
Co476 N493 1.989 . S
Co476 O501 1.967 . S
Co476 O508 1.920 . S
Co477 O480 1.966 . S
Co477 N486 2.022 . S
Co477 N494 1.993 . S
Co477 O502 1.941 . S
C478 O479 1.258 . S
C478 O480 1.263 . S
O479 Co476 1.970 . S
O479 C478 1.258 . S
O480 Co477 1.966 . S
O480 C478 1.263 . S
C481 O482 1.235 . S
C481 O508 1.289 . S
O482 C481 1.235 . S
C483 C485 1.400 . S
C483 N486 1.351 . S
C483 C488 1.501 . S
C484 C485 1.387 . S
C484 N487 1.341 . S
C485 C483 1.400 . S
C485 C484 1.387 . S
N486 Co477 2.022 . S
N486 C483 1.351 . S
N486 N487 1.365 . S
N487 C484 1.341 . S
N487 N486 1.365 . S
N487 H507 0.862 . S
C488 C483 1.501 . S
C488 H489 0.961 . S
C488 H490 0.961 . S
C488 H491 0.960 1_545 S
H489 C488 0.961 . S
H490 C488 0.961 . S
H491 C488 0.960 1_565 S
C492 N493 1.342 . S
C492 C496 1.401 . S
C492 C497 1.499 . S
N493 Co476 1.989 . S
N493 C492 1.342 . S
N493 N494 1.388 . S
N494 Co477 1.993 . S
N494 N493 1.388 . S
N494 C495 1.346 . S
C495 N494 1.346 . S
C495 C496 1.396 . S
C495 C505 1.510 . S
C496 C492 1.401 . S
C496 C495 1.396 . S
C497 C492 1.499 . S
C497 H498 0.959 . S
C497 H499 0.960 . S
C497 H500 0.961 . S
H498 C497 0.959 . S
H499 C497 0.960 . S
H500 C497 0.961 . S
O501 Co476 1.967 . S
O501 C509 1.258 . S
O502 Co477 1.941 . S
O502 C509 1.266 . S
H503 C505 0.959 . S
H504 C505 0.961 . S
C505 C495 1.510 . S
C505 H503 0.959 . S
C505 H504 0.961 . S
C505 H506 0.960 . S
H506 C505 0.960 . S
H507 N487 0.862 . S
O508 Co476 1.920 . S
O508 C481 1.289 . S
C509 O501 1.258 . S
C509 O502 1.266 . S
Co510 O513 1.970 . S
Co510 N527 1.989 . S
Co510 O535 1.967 . S
Co510 O542 1.920 . S
Co511 O514 1.966 . S
Co511 N520 2.022 . S
Co511 N528 1.993 . S
Co511 O536 1.941 . S
C512 O513 1.258 . S
C512 O514 1.263 . S
O513 Co510 1.970 . S
O513 C512 1.258 . S
O514 Co511 1.966 . S
O514 C512 1.263 . S
C515 O516 1.235 . S
C515 O542 1.289 . S
O516 C515 1.235 . S
C517 C519 1.400 . S
C517 N520 1.351 . S
C517 C522 1.501 . S
C518 C519 1.387 . S
C518 N521 1.341 . S
C519 C517 1.400 . S
C519 C518 1.387 . S
N520 Co511 2.022 . S
N520 C517 1.351 . S
N520 N521 1.365 . S
N521 C518 1.341 . S
N521 N520 1.365 . S
N521 H541 0.862 . S
C522 C517 1.501 . S
C522 H523 0.961 . S
C522 H524 0.961 . S
C522 H525 0.960 1_565 S
H523 C522 0.961 . S
H524 C522 0.961 . S
H525 C522 0.960 1_545 S
C526 N527 1.342 . S
C526 C530 1.401 . S
C526 C531 1.499 . S
N527 Co510 1.989 . S
N527 C526 1.342 . S
N527 N528 1.388 . S
N528 Co511 1.993 . S
N528 N527 1.388 . S
N528 C529 1.346 . S
C529 N528 1.346 . S
C529 C530 1.396 . S
C529 C539 1.510 . S
C530 C526 1.401 . S
C530 C529 1.396 . S
C531 C526 1.499 . S
C531 H532 0.959 . S
C531 H533 0.960 . S
C531 H534 0.961 . S
H532 C531 0.959 . S
H533 C531 0.960 . S
H534 C531 0.961 . S
O535 Co510 1.967 . S
O535 C543 1.258 . S
O536 Co511 1.941 . S
O536 C543 1.266 . S
H537 C539 0.959 . S
H538 C539 0.961 . S
C539 C529 1.510 . S
C539 H537 0.959 . S
C539 H538 0.961 . S
C539 H540 0.960 . S
H540 C539 0.960 . S
H541 N521 0.862 . S
O542 Co510 1.920 . S
O542 C515 1.289 . S
C543 O535 1.258 . S
C543 O536 1.266 . S
C544 C545 1.363 . S
C544 C550 1.379 . S
C544 N552 1.356 . S
C545 C544 1.363 . S
C545 C551 1.363 . S
C546 C547 1.363 . S
C546 C551 1.379 . S
C546 N553 1.356 . S
C547 C546 1.363 . S
C547 C550 1.363 . S
N548 C550 1.356 . S
N548 H560 0.984 . S
N548 H561 0.985 . S
N549 C551 1.356 . S
N549 H554 0.984 . S
N549 H555 0.985 . S
C550 C544 1.379 . S
C550 C547 1.363 . S
C550 N548 1.356 . S
C551 C545 1.363 . S
C551 C546 1.379 . S
C551 N549 1.356 . S
N552 C544 1.356 . S
N552 H558 0.984 . S
N552 H559 0.984 . S
N553 C546 1.356 . S
N553 H556 0.984 . S
N553 H557 0.985 . S
H554 N549 0.984 . S
H555 N549 0.985 . S
H556 N553 0.984 . S
H557 N553 0.985 . S
H558 N552 0.984 . S
H559 N552 0.984 . S
H560 N548 0.984 . S
H561 N548 0.985 . S
C562 C563 1.363 . S
C562 C568 1.379 . S
C562 N570 1.356 . S
C563 C562 1.363 . S
C563 C569 1.363 . S
C564 C565 1.363 . S
C564 C569 1.379 . S
C564 N571 1.356 . S
C565 C564 1.363 . S
C565 C568 1.363 . S
N566 C568 1.356 . S
N566 H578 0.984 . S
N566 H579 0.985 . S
N567 C569 1.356 . S
N567 H572 0.984 . S
N567 H573 0.985 . S
C568 C562 1.379 . S
C568 C565 1.363 . S
C568 N566 1.356 . S
C569 C563 1.363 . S
C569 C564 1.379 . S
C569 N567 1.356 . S
N570 C562 1.356 . S
N570 H576 0.984 . S
N570 H577 0.984 . S
N571 C564 1.356 . S
N571 H574 0.984 . S
N571 H575 0.985 . S
H572 N567 0.984 . S
H573 N567 0.985 . S
H574 N571 0.984 . S
H575 N571 0.985 . S
H576 N570 0.984 . S
H577 N570 0.984 . S
H578 N566 0.984 . S
H579 N566 0.985 . S
C580 C581 1.363 . S
C580 C586 1.379 . S
C580 N588 1.356 . S
C581 C580 1.363 . S
C581 C587 1.363 1_455 S
C582 C583 1.363 . S
C582 C587 1.379 1_455 S
C582 N589 1.356 . S
C583 C582 1.363 . S
C583 C586 1.363 . S
N584 C586 1.356 . S
N584 H596 0.984 . S
N584 H597 0.985 . S
N585 C587 1.356 . S
N585 H590 0.984 . S
N585 H591 0.985 . S
C586 C580 1.379 . S
C586 C583 1.363 . S
C586 N584 1.356 . S
C587 C581 1.363 1_655 S
C587 C582 1.379 1_655 S
C587 N585 1.356 . S
N588 C580 1.356 . S
N588 H594 0.984 . S
N588 H595 0.984 . S
N589 C582 1.356 . S
N589 H592 0.984 . S
N589 H593 0.985 1_455 S
H590 N585 0.984 . S
H591 N585 0.985 . S
H592 N589 0.984 . S
H593 N589 0.985 1_655 S
H594 N588 0.984 . S
H595 N588 0.984 . S
H596 N584 0.984 . S
H597 N584 0.985 . S
C598 C599 1.363 1_455 S
C598 C604 1.379 1_455 S
C598 N606 1.356 . S
C599 C598 1.363 1_655 S
C599 C605 1.363 . S
C600 C601 1.363 . S
C600 C605 1.379 . S
C600 N607 1.356 . S
C601 C600 1.363 . S
C601 C604 1.363 . S
N602 C604 1.356 . S
N602 H614 0.984 1_655 S
N602 H615 0.985 . S
N603 C605 1.356 . S
N603 H608 0.984 . S
N603 H609 0.985 . S
C604 C598 1.379 1_655 S
C604 C601 1.363 . S
C604 N602 1.356 . S
C605 C599 1.363 . S
C605 C600 1.379 . S
C605 N603 1.356 . S
N606 C598 1.356 . S
N606 H612 0.984 . S
N606 H613 0.984 . S
N607 C600 1.356 . S
N607 H610 0.984 . S
N607 H611 0.985 . S
H608 N603 0.984 . S
H609 N603 0.985 . S
H610 N607 0.984 . S
H611 N607 0.985 . S
H612 N606 0.984 . S
H613 N606 0.984 . S
H614 N602 0.984 1_455 S
H615 N602 0.985 . S
C616 C617 1.363 . S
C616 C622 1.379 . S
C616 N624 1.356 . S
C617 C616 1.363 . S
C617 C623 1.363 . S
C618 C619 1.363 . S
C618 C623 1.379 . S
C618 N625 1.356 . S
C619 C618 1.363 . S
C619 C622 1.363 . S
N620 C622 1.356 . S
N620 H632 0.984 . S
N620 H633 0.985 . S
N621 C623 1.356 . S
N621 H626 0.984 . S
N621 H627 0.985 . S
C622 C616 1.379 . S
C622 C619 1.363 . S
C622 N620 1.356 . S
C623 C617 1.363 . S
C623 C618 1.379 . S
C623 N621 1.356 . S
N624 C616 1.356 . S
N624 H630 0.984 . S
N624 H631 0.984 . S
N625 C618 1.356 . S
N625 H628 0.984 . S
N625 H629 0.985 . S
H626 N621 0.984 . S
H627 N621 0.985 . S
H628 N625 0.984 . S
H629 N625 0.985 . S
H630 N624 0.984 . S
H631 N624 0.984 . S
H632 N620 0.984 . S
H633 N620 0.985 . S
C634 C635 1.363 . S
C634 C640 1.379 . S
C634 N642 1.356 . S
C635 C634 1.363 . S
C635 C641 1.363 . S
C636 C637 1.363 . S
C636 C641 1.379 . S
C636 N643 1.356 . S
C637 C636 1.363 . S
C637 C640 1.363 . S
N638 C640 1.356 . S
N638 H650 0.984 . S
N638 H651 0.985 . S
N639 C641 1.356 . S
N639 H644 0.984 . S
N639 H645 0.985 . S
C640 C634 1.379 . S
C640 C637 1.363 . S
C640 N638 1.356 . S
C641 C635 1.363 . S
C641 C636 1.379 . S
C641 N639 1.356 . S
N642 C634 1.356 . S
N642 H648 0.984 . S
N642 H649 0.984 . S
N643 C636 1.356 . S
N643 H646 0.984 . S
N643 H647 0.985 . S
H644 N639 0.984 . S
H645 N639 0.985 . S
H646 N643 0.984 . S
H647 N643 0.985 . S
H648 N642 0.984 . S
H649 N642 0.984 . S
H650 N638 0.984 . S
H651 N638 0.985 . S
C652 C653 1.363 . S
C652 C658 1.379 . S
C652 N660 1.356 . S
C653 C652 1.363 . S
C653 C659 1.363 1_455 S
C654 C655 1.363 . S
C654 C659 1.379 1_455 S
C654 N661 1.356 . S
C655 C654 1.363 . S
C655 C658 1.363 . S
N656 C658 1.356 . S
N656 H668 0.984 . S
N656 H669 0.985 . S
N657 C659 1.356 . S
N657 H662 0.984 . S
N657 H663 0.985 . S
C658 C652 1.379 . S
C658 C655 1.363 . S
C658 N656 1.356 . S
C659 C653 1.363 1_655 S
C659 C654 1.379 1_655 S
C659 N657 1.356 . S
N660 C652 1.356 . S
N660 H666 0.984 . S
N660 H667 0.984 . S
N661 C654 1.356 . S
N661 H664 0.984 . S
N661 H665 0.987 . S
H662 N657 0.984 . S
H663 N657 0.985 . S
H664 N661 0.984 . S
H665 N661 0.987 . S
H666 N660 0.984 . S
H667 N660 0.984 . S
H668 N656 0.984 . S
H669 N656 0.985 . S
C670 C671 1.363 . S
C670 C676 1.379 . S
C670 N678 1.356 . S
C671 C670 1.363 . S
C671 C677 1.363 . S
C672 C673 1.363 1_455 S
C672 C677 1.379 1_455 S
C672 N679 1.356 . S
C673 C672 1.363 1_655 S
C673 C676 1.363 . S
N674 C676 1.356 . S
N674 H686 0.984 . S
N674 H687 0.985 . S
N675 C677 1.356 . S
N675 H680 0.984 . S
N675 H681 0.985 1_655 S
C676 C670 1.379 . S
C676 C673 1.363 . S
C676 N674 1.356 . S
C677 C671 1.363 . S
C677 C672 1.379 1_655 S
C677 N675 1.356 . S
N678 C670 1.356 . S
N678 H684 0.984 . S
N678 H685 0.984 . S
N679 C672 1.356 . S
N679 H682 0.984 . S
N679 H683 0.985 . S
H680 N675 0.984 . S
H681 N675 0.985 1_455 S
H682 N679 0.984 . S
H683 N679 0.985 . S
H684 N678 0.984 . S
H685 N678 0.984 . S
H686 N674 0.984 . S
H687 N674 0.985 . S
C688 C689 1.363 . S
C688 C694 1.379 . S
C688 N696 1.356 . S
C689 C688 1.363 . S
C689 C695 1.363 . S
C690 C691 1.363 . S
C690 C695 1.379 . S
C690 N697 1.356 . S
C691 C690 1.363 . S
C691 C694 1.363 . S
N692 C694 1.356 . S
N692 H704 0.984 . S
N692 H705 0.985 . S
N693 C695 1.356 . S
N693 H698 0.984 . S
N693 H699 0.985 . S
C694 C688 1.379 . S
C694 C691 1.363 . S
C694 N692 1.356 . S
C695 C689 1.363 . S
C695 C690 1.379 . S
C695 N693 1.356 . S
N696 C688 1.356 . S
N696 H702 0.984 . S
N696 H703 0.984 . S
N697 C690 1.356 . S
N697 H700 0.984 . S
N697 H701 0.985 . S
H698 N693 0.984 . S
H699 N693 0.985 . S
H700 N697 0.984 . S
H701 N697 0.985 . S
H702 N696 0.984 . S
H703 N696 0.984 . S
H704 N692 0.984 . S
H705 N692 0.985 . S
C706 C707 1.363 . S
C706 C712 1.379 . S
C706 N714 1.356 . S
C707 C706 1.363 . S
C707 C713 1.363 . S
C708 C709 1.363 . S
C708 C713 1.379 . S
C708 N715 1.356 . S
C709 C708 1.363 . S
C709 C712 1.363 . S
N710 C712 1.356 . S
N710 H722 0.984 . S
N710 H723 0.985 . S
N711 C713 1.356 . S
N711 H716 0.984 . S
N711 H717 0.985 . S
C712 C706 1.379 . S
C712 C709 1.363 . S
C712 N710 1.356 . S
C713 C707 1.363 . S
C713 C708 1.379 . S
C713 N711 1.356 . S
N714 C706 1.356 . S
N714 H720 0.984 . S
N714 H721 0.984 . S
N715 C708 1.356 . S
N715 H718 0.984 . S
N715 H719 0.985 . S
H716 N711 0.984 . S
H717 N711 0.985 . S
H718 N715 0.984 . S
H719 N715 0.985 . S
H720 N714 0.984 . S
H721 N714 0.984 . S
H722 N710 0.984 . S
H723 N710 0.985 . S
C724 C725 1.363 . S
C724 C730 1.379 . S
C724 N732 1.356 . S
C725 C724 1.363 . S
C725 C731 1.363 . S
C726 C727 1.363 . S
C726 C731 1.379 . S
C726 N733 1.356 . S
C727 C726 1.363 . S
C727 C730 1.363 . S
N728 C730 1.356 . S
N728 H740 0.984 . S
N728 H741 0.985 . S
N729 C731 1.356 . S
N729 H734 0.984 . S
N729 H735 0.985 . S
C730 C724 1.379 . S
C730 C727 1.363 . S
C730 N728 1.356 . S
C731 C725 1.363 . S
C731 C726 1.379 . S
C731 N729 1.356 . S
N732 C724 1.356 . S
N732 H738 0.984 . S
N732 H739 0.984 . S
N733 C726 1.356 . S
N733 H736 0.984 . S
N733 H737 0.985 . S
H734 N729 0.984 . S
H735 N729 0.985 . S
H736 N733 0.984 . S
H737 N733 0.985 . S
H738 N732 0.984 . S
H739 N732 0.984 . S
H740 N728 0.984 . S
H741 N728 0.985 . S
C742 C743 1.363 . S
C742 C748 1.379 . S
C742 N750 1.356 . S
C743 C742 1.363 . S
C743 C749 1.363 . S
C744 C745 1.363 . S
C744 C749 1.379 . S
C744 N751 1.356 . S
C745 C744 1.363 . S
C745 C748 1.363 . S
N746 C748 1.356 . S
N746 H758 0.984 . S
N746 H759 0.985 . S
N747 C749 1.356 . S
N747 H752 0.984 . S
N747 H753 0.985 . S
C748 C742 1.379 . S
C748 C745 1.363 . S
C748 N746 1.356 . S
C749 C743 1.363 . S
C749 C744 1.379 . S
C749 N747 1.356 . S
N750 C742 1.356 . S
N750 H756 0.984 . S
N750 H757 0.984 . S
N751 C744 1.356 . S
N751 H754 0.984 . S
N751 H755 0.985 . S
H752 N747 0.984 . S
H753 N747 0.985 . S
H754 N751 0.984 . S
H755 N751 0.985 . S
H756 N750 0.984 . S
H757 N750 0.984 . S
H758 N746 0.984 . S
H759 N746 0.985 . S
C760 C761 1.363 . S
C760 C766 1.379 . S
C760 N768 1.356 . S
C761 C760 1.363 . S
C761 C767 1.363 . S
C762 C763 1.363 . S
C762 C767 1.379 . S
C762 N769 1.356 . S
C763 C762 1.363 . S
C763 C766 1.363 . S
N764 C766 1.356 . S
N764 H776 0.984 . S
N764 H777 0.985 . S
N765 C767 1.356 . S
N765 H770 0.984 . S
N765 H771 0.985 . S
C766 C760 1.379 . S
C766 C763 1.363 . S
C766 N764 1.356 . S
C767 C761 1.363 . S
C767 C762 1.379 . S
C767 N765 1.356 . S
N768 C760 1.356 . S
N768 H774 0.984 . S
N768 H775 0.984 . S
N769 C762 1.356 . S
N769 H772 0.984 . S
N769 H773 0.985 . S
H770 N765 0.984 . S
H771 N765 0.985 . S
H772 N769 0.984 . S
H773 N769 0.985 . S
H774 N768 0.984 . S
H775 N768 0.984 . S
H776 N764 0.984 . S
H777 N764 0.985 . S
C778 C779 1.363 . S
C778 C784 1.379 . S
C778 N786 1.356 . S
C779 C778 1.363 . S
C779 C785 1.363 . S
C780 C781 1.363 . S
C780 C785 1.379 . S
C780 N787 1.356 . S
C781 C780 1.363 . S
C781 C784 1.363 . S
N782 C784 1.356 . S
N782 H794 0.984 . S
N782 H795 0.985 . S
N783 C785 1.356 . S
N783 H788 0.984 . S
N783 H789 0.985 . S
C784 C778 1.379 . S
C784 C781 1.363 . S
C784 N782 1.356 . S
C785 C779 1.363 . S
C785 C780 1.379 . S
C785 N783 1.356 . S
N786 C778 1.356 . S
N786 H792 0.984 . S
N786 H793 0.984 . S
N787 C780 1.356 . S
N787 H790 0.984 . S
N787 H791 0.985 . S
H788 N783 0.984 . S
H789 N783 0.985 . S
H790 N787 0.984 . S
H791 N787 0.985 . S
H792 N786 0.984 . S
H793 N786 0.984 . S
H794 N782 0.984 . S
H795 N782 0.985 . S
C796 C797 1.363 . S
C796 C802 1.379 . S
C796 N804 1.356 . S
C797 C796 1.363 . S
C797 C803 1.363 . S
C798 C799 1.363 . S
C798 C803 1.379 . S
C798 N805 1.356 . S
C799 C798 1.363 . S
C799 C802 1.363 . S
N800 C802 1.356 . S
N800 H812 0.984 1_554 S
N800 H813 0.985 . S
N801 C803 1.356 . S
N801 H806 0.984 . S
N801 H807 0.985 . S
C802 C796 1.379 . S
C802 C799 1.363 . S
C802 N800 1.356 . S
C803 C797 1.363 . S
C803 C798 1.379 . S
C803 N801 1.356 . S
N804 C796 1.356 . S
N804 H810 0.984 . S
N804 H811 0.984 . S
N805 C798 1.356 . S
N805 H808 0.984 . S
N805 H809 0.985 . S
H806 N801 0.984 . S
H807 N801 0.985 . S
H808 N805 0.984 . S
H809 N805 0.985 . S
H810 N804 0.984 . S
H811 N804 0.984 . S
H812 N800 0.984 1_556 S
H813 N800 0.985 . S
C814 C815 1.363 . S
C814 C820 1.379 . S
C814 N822 1.356 . S
C815 C814 1.363 . S
C815 C821 1.363 . S
C816 C817 1.363 . S
C816 C821 1.379 . S
C816 N823 1.356 . S
C817 C816 1.363 . S
C817 C820 1.363 . S
N818 C820 1.356 . S
N818 H830 0.984 . S
N818 H831 0.985 . S
N819 C821 1.356 . S
N819 H824 0.984 . S
N819 H825 0.985 . S
C820 C814 1.379 . S
C820 C817 1.363 . S
C820 N818 1.356 . S
C821 C815 1.363 . S
C821 C816 1.379 . S
C821 N819 1.356 . S
N822 C814 1.356 . S
N822 H828 0.984 . S
N822 H829 0.984 . S
N823 C816 1.356 . S
N823 H826 0.984 . S
N823 H827 0.985 . S
H824 N819 0.984 . S
H825 N819 0.985 . S
H826 N823 0.984 . S
H827 N823 0.985 . S
H828 N822 0.984 . S
H829 N822 0.984 . S
H830 N818 0.984 . S
H831 N818 0.985 . S
C832 C833 1.363 . S
C832 C838 1.379 1_655 S
C832 N840 1.356 1_655 S
C833 C832 1.363 . S
C833 C839 1.363 . S
C834 C835 1.363 . S
C834 C839 1.379 . S
C834 N841 1.356 . S
C835 C834 1.363 . S
C835 C838 1.363 1_655 S
N836 C838 1.356 . S
N836 H848 0.984 . S
N836 H849 0.985 . S
N837 C839 1.356 . S
N837 H842 0.984 . S
N837 H843 0.985 . S
C838 C832 1.379 1_455 S
C838 C835 1.363 1_455 S
C838 N836 1.356 . S
C839 C833 1.363 . S
C839 C834 1.379 . S
C839 N837 1.356 . S
N840 C832 1.356 1_455 S
N840 H846 0.984 . S
N840 H847 0.984 1_455 S
N841 C834 1.356 . S
N841 H844 0.984 . S
N841 H845 0.985 . S
H842 N837 0.984 . S
H843 N837 0.985 . S
H844 N841 0.984 . S
H845 N841 0.985 . S
H846 N840 0.984 . S
H847 N840 0.984 1_655 S
H848 N836 0.984 . S
H849 N836 0.985 . S
C850 C851 1.363 . S
C850 C856 1.379 . S
C850 N858 1.356 . S
C851 C850 1.363 . S
C851 C857 1.363 . S
C852 C853 1.363 1_655 S
C852 C857 1.379 1_655 S
C852 N859 1.356 . S
C853 C852 1.363 1_455 S
C853 C856 1.363 . S
N854 C856 1.356 . S
N854 H866 0.984 . S
N854 H867 0.985 . S
N855 C857 1.356 . S
N855 H860 0.984 . S
N855 H861 0.985 . S
C856 C850 1.379 . S
C856 C853 1.363 . S
C856 N854 1.356 . S
C857 C851 1.363 . S
C857 C852 1.379 1_455 S
C857 N855 1.356 . S
N858 C850 1.356 . S
N858 H864 0.984 . S
N858 H865 0.984 . S
N859 C852 1.356 . S
N859 H862 0.984 . S
N859 H863 0.985 . S
H860 N855 0.984 . S
H861 N855 0.985 . S
H862 N859 0.984 . S
H863 N859 0.985 . S
H864 N858 0.984 . S
H865 N858 0.984 . S
H866 N854 0.984 . S
H867 N854 0.985 . S
C868 C869 1.363 . S
C868 C874 1.379 . S
C868 N876 1.356 . S
C869 C868 1.363 . S
C869 C875 1.363 . S
C870 C871 1.363 . S
C870 C875 1.379 . S
C870 N877 1.356 . S
C871 C870 1.363 . S
C871 C874 1.363 . S
N872 C874 1.356 . S
N872 H884 0.984 . S
N872 H885 0.985 . S
N873 C875 1.356 . S
N873 H878 0.984 . S
N873 H879 0.985 . S
C874 C868 1.379 . S
C874 C871 1.363 . S
C874 N872 1.356 . S
C875 C869 1.363 . S
C875 C870 1.379 . S
C875 N873 1.356 . S
N876 C868 1.356 . S
N876 H882 0.984 . S
N876 H883 0.984 . S
N877 C870 1.356 . S
N877 H880 0.984 . S
N877 H881 0.985 . S
H878 N873 0.984 . S
H879 N873 0.985 . S
H880 N877 0.984 . S
H881 N877 0.985 . S
H882 N876 0.984 . S
H883 N876 0.984 . S
H884 N872 0.984 . S
H885 N872 0.985 . S
C886 C887 1.363 . S
C886 C892 1.379 . S
C886 N894 1.356 . S
C887 C886 1.363 . S
C887 C893 1.363 . S
C888 C889 1.363 . S
C888 C893 1.379 . S
C888 N895 1.356 . S
C889 C888 1.363 . S
C889 C892 1.363 . S
N890 C892 1.356 . S
N890 H902 0.984 . S
N890 H903 0.985 . S
N891 C893 1.356 . S
N891 H896 0.984 . S
N891 H897 0.985 . S
C892 C886 1.379 . S
C892 C889 1.363 . S
C892 N890 1.356 . S
C893 C887 1.363 . S
C893 C888 1.379 . S
C893 N891 1.356 . S
N894 C886 1.356 . S
N894 H900 0.984 . S
N894 H901 0.984 . S
N895 C888 1.356 . S
N895 H898 0.984 . S
N895 H899 0.985 . S
H896 N891 0.984 . S
H897 N891 0.985 . S
H898 N895 0.984 . S
H899 N895 0.985 . S
H900 N894 0.984 . S
H901 N894 0.984 . S
H902 N890 0.984 . S
H903 N890 0.985 . S
C904 C905 1.363 . S
C904 C910 1.378 . S
C904 N912 1.356 . S
C905 C904 1.363 . S
C905 C911 1.363 . S
C906 C907 1.363 . S
C906 C911 1.379 . S
C906 N913 1.356 . S
C907 C906 1.363 . S
C907 C910 1.363 . S
N908 C910 1.357 1_455 S
N908 H920 0.984 . S
N908 H921 0.985 . S
N909 C911 1.356 . S
N909 H914 0.984 . S
N909 H915 0.985 . S
C910 C904 1.378 . S
C910 C907 1.363 . S
C910 N908 1.357 1_655 S
C911 C905 1.363 . S
C911 C906 1.379 . S
C911 N909 1.356 . S
N912 C904 1.356 . S
N912 H918 0.984 . S
N912 H919 0.984 . S
N913 C906 1.356 . S
N913 H916 0.984 . S
N913 H917 0.985 . S
H914 N909 0.984 . S
H915 N909 0.985 . S
H916 N913 0.984 . S
H917 N913 0.985 . S
H918 N912 0.984 . S
H919 N912 0.984 . S
H920 N908 0.984 . S
H921 N908 0.985 . S
C922 C923 1.363 . S
C922 C928 1.379 1_455 S
C922 N930 1.356 1_455 S
C923 C922 1.363 . S
C923 C929 1.363 . S
C924 C925 1.363 . S
C924 C929 1.379 . S
C924 N931 1.356 . S
C925 C924 1.363 . S
C925 C928 1.363 1_455 S
N926 C928 1.356 . S
N926 H938 0.984 . S
N926 H939 0.985 . S
N927 C929 1.356 . S
N927 H932 0.984 . S
N927 H933 0.985 . S
C928 C922 1.379 1_655 S
C928 C925 1.363 1_655 S
C928 N926 1.356 . S
C929 C923 1.363 . S
C929 C924 1.379 . S
C929 N927 1.356 . S
N930 C922 1.356 1_655 S
N930 H936 0.984 . S
N930 H937 0.984 1_655 S
N931 C924 1.356 . S
N931 H934 0.984 . S
N931 H935 0.985 . S
H932 N927 0.984 . S
H933 N927 0.985 . S
H934 N931 0.984 . S
H935 N931 0.985 . S
H936 N930 0.984 . S
H937 N930 0.984 1_455 S
H938 N926 0.984 . S
H939 N926 0.985 . S
C940 C941 1.363 1_544 S
C940 C946 1.379 1_545 S
C940 N948 1.356 1_554 S
C941 C940 1.363 1_566 S
C941 C947 1.363 . S
C942 C943 1.363 . S
C942 C947 1.379 1_554 S
C942 N949 1.356 . S
C943 C942 1.363 . S
C943 C946 1.363 . S
N944 C946 1.356 1_545 S
N944 H956 0.984 . S
N944 H957 0.985 1_545 S
N945 C947 1.356 . S
N945 H950 0.984 . S
N945 H951 0.985 . S
C946 C940 1.379 1_565 S
C946 C943 1.363 . S
C946 N944 1.356 1_565 S
C947 C941 1.363 . S
C947 C942 1.379 1_556 S
C947 N945 1.356 . S
N948 C940 1.356 1_556 S
N948 H954 0.984 . S
N948 H955 0.984 . S
N949 C942 1.356 . S
N949 H952 0.984 . S
N949 H953 0.985 . S
H950 N945 0.984 . S
H951 N945 0.985 . S
H952 N949 0.984 . S
H953 N949 0.985 . S
H954 N948 0.984 . S
H955 N948 0.984 . S
H956 N944 0.984 . S
H957 N944 0.985 1_565 S
C958 C959 1.363 . S
C958 C964 1.379 1_556 S
C958 N966 1.356 . S
C959 C958 1.363 . S
C959 C965 1.363 1_546 S
C960 C961 1.363 . S
C960 C965 1.379 1_545 S
C960 N967 1.356 1_545 S
C961 C960 1.363 . S
C961 C964 1.363 . S
N962 C964 1.356 . S
N962 H974 0.984 . S
N962 H975 0.985 . S
N963 C965 1.356 1_556 S
N963 H968 0.984 . S
N963 H969 0.985 1_556 S
C964 C958 1.379 1_554 S
C964 C961 1.363 . S
C964 N962 1.356 . S
C965 C959 1.363 1_564 S
C965 C960 1.379 1_565 S
C965 N963 1.356 1_554 S
N966 C958 1.356 . S
N966 H972 0.984 . S
N966 H973 0.984 . S
N967 C960 1.356 1_565 S
N967 H970 0.984 1_565 S
N967 H971 0.985 . S
H968 N963 0.984 . S
H969 N963 0.985 1_554 S
H970 N967 0.984 1_545 S
H971 N967 0.985 . S
H972 N966 0.984 . S
H973 N966 0.984 . S
H974 N962 0.984 . S
H975 N962 0.985 . S
C976 C977 1.363 . S
C976 C982 1.379 . S
C976 N984 1.356 . S
C977 C976 1.363 . S
C977 C983 1.363 . S
C978 C979 1.363 . S
C978 C983 1.379 . S
C978 N985 1.356 . S
C979 C978 1.363 . S
C979 C982 1.363 . S
N980 C982 1.356 . S
N980 H992 0.984 . S
N980 H993 0.985 . S
N981 C983 1.356 . S
N981 H986 0.984 . S
N981 H987 0.985 . S
C982 C976 1.379 . S
C982 C979 1.363 . S
C982 N980 1.356 . S
C983 C977 1.363 . S
C983 C978 1.379 . S
C983 N981 1.356 . S
N984 C976 1.356 . S
N984 H990 0.984 . S
N984 H991 0.984 . S
N985 C978 1.356 . S
N985 H988 0.984 . S
N985 H989 0.985 . S
H986 N981 0.984 . S
H987 N981 0.985 . S
H988 N985 0.984 . S
H989 N985 0.985 . S
H990 N984 0.984 . S
H991 N984 0.984 . S
H992 N980 0.984 . S
H993 N980 0.985 . S
C994 C995 1.363 . S
C994 C1000 1.379 . S
C994 N1002 1.356 . S
C995 C994 1.363 . S
C995 C1001 1.363 . S
C996 C997 1.363 . S
C996 C1001 1.379 . S
C996 N1003 1.356 . S
C997 C996 1.363 . S
C997 C1000 1.363 . S
N998 C1000 1.356 . S
N998 H1010 0.984 . S
N998 H1011 0.985 . S
N999 C1001 1.356 . S
N999 H1004 0.984 . S
N999 H1005 0.985 . S
C1000 C994 1.379 . S
C1000 C997 1.363 . S
C1000 N998 1.356 . S
C1001 C995 1.363 . S
C1001 C996 1.379 . S
C1001 N999 1.356 . S
N1002 C994 1.356 . S
N1002 H1008 0.984 . S
N1002 H1009 0.984 . S
N1003 C996 1.356 . S
N1003 H1006 0.984 . S
N1003 H1007 0.985 . S
H1004 N999 0.984 . S
H1005 N999 0.985 . S
H1006 N1003 0.984 . S
H1007 N1003 0.985 . S
H1008 N1002 0.984 . S
H1009 N1002 0.984 . S
H1010 N998 0.984 . S
H1011 N998 0.985 . S
C1012 C1013 1.363 . S
C1012 C1018 1.379 . S
C1012 N1020 1.356 . S
C1013 C1012 1.363 . S
C1013 C1019 1.363 . S
C1014 C1015 1.363 . S
C1014 C1019 1.379 1_556 S
C1014 N1021 1.356 . S
C1015 C1014 1.363 . S
C1015 C1018 1.363 1_556 S
N1016 C1018 1.356 . S
N1016 H1028 0.984 . S
N1016 H1029 0.985 1_554 S
N1017 C1019 1.356 . S
N1017 H1022 0.984 . S
N1017 H1023 0.985 . S
C1018 C1012 1.379 . S
C1018 C1015 1.363 1_554 S
C1018 N1016 1.356 . S
C1019 C1013 1.363 . S
C1019 C1014 1.379 1_554 S
C1019 N1017 1.356 . S
N1020 C1012 1.356 . S
N1020 H1026 0.984 . S
N1020 H1027 0.984 . S
N1021 C1014 1.356 . S
N1021 H1024 0.984 . S
N1021 H1025 0.985 . S
H1022 N1017 0.984 . S
H1023 N1017 0.985 . S
H1024 N1021 0.984 . S
H1025 N1021 0.985 . S
H1026 N1020 0.984 . S
H1027 N1020 0.984 . S
H1028 N1016 0.984 . S
H1029 N1016 0.985 1_556 S
C1030 C1031 1.363 . S
C1030 C1036 1.379 . S
C1030 N1038 1.356 . S
C1031 C1030 1.363 . S
C1031 C1037 1.363 . S
C1032 C1033 1.363 . S
C1032 C1037 1.379 1_556 S
C1032 N1039 1.356 . S
C1033 C1032 1.363 . S
C1033 C1036 1.363 1_556 S
N1034 C1036 1.356 1_556 S
N1034 H1046 0.984 1_556 S
N1034 H1047 0.985 . S
N1035 C1037 1.356 . S
N1035 H1040 0.984 . S
N1035 H1041 0.985 . S
C1036 C1030 1.379 . S
C1036 C1033 1.363 1_554 S
C1036 N1034 1.356 1_554 S
C1037 C1031 1.363 . S
C1037 C1032 1.379 1_554 S
C1037 N1035 1.356 . S
N1038 C1030 1.356 . S
N1038 H1044 0.984 . S
N1038 H1045 0.984 . S
N1039 C1032 1.356 . S
N1039 H1042 0.984 . S
N1039 H1043 0.985 . S
H1040 N1035 0.984 . S
H1041 N1035 0.985 . S
H1042 N1039 0.984 . S
H1043 N1039 0.985 . S
H1044 N1038 0.984 . S
H1045 N1038 0.984 . S
H1046 N1034 0.984 1_554 S
H1047 N1034 0.985 . S
C1048 C1049 1.363 . S
C1048 C1054 1.379 . S
C1048 N1056 1.356 . S
C1049 C1048 1.363 . S
C1049 C1055 1.363 . S
C1050 C1051 1.363 . S
C1050 C1055 1.379 . S
C1050 N1057 1.356 . S
C1051 C1050 1.363 . S
C1051 C1054 1.363 . S
N1052 C1054 1.356 . S
N1052 H1064 0.984 . S
N1052 H1065 0.985 . S
N1053 C1055 1.356 . S
N1053 H1058 0.984 . S
N1053 H1059 0.985 . S
C1054 C1048 1.379 . S
C1054 C1051 1.363 . S
C1054 N1052 1.356 . S
C1055 C1049 1.363 . S
C1055 C1050 1.379 . S
C1055 N1053 1.356 . S
N1056 C1048 1.356 . S
N1056 H1062 0.984 . S
N1056 H1063 0.984 . S
N1057 C1050 1.356 . S
N1057 H1060 0.984 . S
N1057 H1061 0.985 . S
H1058 N1053 0.984 . S
H1059 N1053 0.985 . S
H1060 N1057 0.984 . S
H1061 N1057 0.985 . S
H1062 N1056 0.984 . S
H1063 N1056 0.984 . S
H1064 N1052 0.984 . S
H1065 N1052 0.985 . S
C1066 C1067 1.363 . S
C1066 C1072 1.379 . S
C1066 N1074 1.356 . S
C1067 C1066 1.363 . S
C1067 C1073 1.363 . S
C1068 C1069 1.363 . S
C1068 C1073 1.379 . S
C1068 N1075 1.356 . S
C1069 C1068 1.363 . S
C1069 C1072 1.363 . S
N1070 C1072 1.356 . S
N1070 H1082 0.984 . S
N1070 H1083 0.985 . S
N1071 C1073 1.356 . S
N1071 H1076 0.984 . S
N1071 H1077 0.985 . S
C1072 C1066 1.379 . S
C1072 C1069 1.363 . S
C1072 N1070 1.356 . S
C1073 C1067 1.363 . S
C1073 C1068 1.379 . S
C1073 N1071 1.356 . S
N1074 C1066 1.356 . S
N1074 H1080 0.984 . S
N1074 H1081 0.984 . S
N1075 C1068 1.356 . S
N1075 H1078 0.984 . S
N1075 H1079 0.985 . S
H1076 N1071 0.984 . S
H1077 N1071 0.985 . S
H1078 N1075 0.984 . S
H1079 N1075 0.985 . S
H1080 N1074 0.984 . S
H1081 N1074 0.984 . S
H1082 N1070 0.984 . S
H1083 N1070 0.985 . S
C1084 C1085 1.363 . S
C1084 C1090 1.379 . S
C1084 N1092 1.356 . S
C1085 C1084 1.363 . S
C1085 C1091 1.363 . S
C1086 C1087 1.363 1_545 S
C1086 C1091 1.379 1_545 S
C1086 N1093 1.356 . S
C1087 C1086 1.363 1_565 S
C1087 C1090 1.363 . S
N1088 C1090 1.356 . S
N1088 H1100 0.984 . S
N1088 H1101 0.985 . S
N1089 C1091 1.356 . S
N1089 H1094 0.984 . S
N1089 H1095 0.985 1_565 S
C1090 C1084 1.379 . S
C1090 C1087 1.363 . S
C1090 N1088 1.356 . S
C1091 C1085 1.363 . S
C1091 C1086 1.379 1_565 S
C1091 N1089 1.356 . S
N1092 C1084 1.356 . S
N1092 H1098 0.984 . S
N1092 H1099 0.984 . S
N1093 C1086 1.356 . S
N1093 H1096 0.984 . S
N1093 H1097 0.985 . S
H1094 N1089 0.984 . S
H1095 N1089 0.985 1_545 S
H1096 N1093 0.984 . S
H1097 N1093 0.985 . S
H1098 N1092 0.984 . S
H1099 N1092 0.984 . S
H1100 N1088 0.984 . S
H1101 N1088 0.985 . S
C1102 C1103 1.363 . S
C1102 C1108 1.379 . S
C1102 N1110 1.356 . S
C1103 C1102 1.363 . S
C1103 C1109 1.363 . S
C1104 C1105 1.363 . S
C1104 C1109 1.379 . S
C1104 N1111 1.356 1_545 S
C1105 C1104 1.363 . S
C1105 C1108 1.363 . S
N1106 C1108 1.356 . S
N1106 H1118 0.984 . S
N1106 H1119 0.985 . S
N1107 C1109 1.356 . S
N1107 H1112 0.984 . S
N1107 H1113 0.985 1_545 S
C1108 C1102 1.379 . S
C1108 C1105 1.363 . S
C1108 N1106 1.356 . S
C1109 C1103 1.363 . S
C1109 C1104 1.379 . S
C1109 N1107 1.356 . S
N1110 C1102 1.356 . S
N1110 H1116 0.984 . S
N1110 H1117 0.984 . S
N1111 C1104 1.356 1_565 S
N1111 H1114 0.984 . S
N1111 H1115 0.985 . S
H1112 N1107 0.984 . S
H1113 N1107 0.985 1_565 S
H1114 N1111 0.984 . S
H1115 N1111 0.985 . S
H1116 N1110 0.984 . S
H1117 N1110 0.984 . S
H1118 N1106 0.984 . S
H1119 N1106 0.985 . S
C1120 C1121 1.363 1_554 S
C1120 C1126 1.379 . S
C1120 N1128 1.356 . S
C1121 C1120 1.363 1_556 S
C1121 C1127 1.363 . S
C1122 C1123 1.363 . S
C1122 C1127 1.379 . S
C1122 N1129 1.356 . S
C1123 C1122 1.363 . S
C1123 C1126 1.363 1_556 S
N1124 C1126 1.356 . S
N1124 H1136 0.984 . S
N1124 H1137 0.985 . S
N1125 C1127 1.356 . S
N1125 H1130 0.984 . S
N1125 H1131 0.985 . S
C1126 C1120 1.379 . S
C1126 C1123 1.363 1_554 S
C1126 N1124 1.356 . S
C1127 C1121 1.363 . S
C1127 C1122 1.379 . S
C1127 N1125 1.356 . S
N1128 C1120 1.356 . S
N1128 H1134 0.984 . S
N1128 H1135 0.984 . S
N1129 C1122 1.356 . S
N1129 H1132 0.984 . S
N1129 H1133 0.985 . S
H1130 N1125 0.984 . S
H1131 N1125 0.985 . S
H1132 N1129 0.984 . S
H1133 N1129 0.985 . S
H1134 N1128 0.984 . S
H1135 N1128 0.984 . S
H1136 N1124 0.984 . S
H1137 N1124 0.985 . S
C1138 C1139 1.363 1_554 S
C1138 C1144 1.379 . S
C1138 N1146 1.356 . S
C1139 C1138 1.363 1_556 S
C1139 C1145 1.363 . S
C1140 C1141 1.363 . S
C1140 C1145 1.379 . S
C1140 N1147 1.356 . S
C1141 C1140 1.363 . S
C1141 C1144 1.363 1_556 S
N1142 C1144 1.356 . S
N1142 H1154 0.984 . S
N1142 H1155 0.985 . S
N1143 C1145 1.356 . S
N1143 H1148 0.984 . S
N1143 H1149 0.985 . S
C1144 C1138 1.379 . S
C1144 C1141 1.363 1_554 S
C1144 N1142 1.356 . S
C1145 C1139 1.363 . S
C1145 C1140 1.379 . S
C1145 N1143 1.356 . S
N1146 C1138 1.356 . S
N1146 H1152 0.984 . S
N1146 H1153 0.984 . S
N1147 C1140 1.356 . S
N1147 H1150 0.984 . S
N1147 H1151 0.985 . S
H1148 N1143 0.984 . S
H1149 N1143 0.985 . S
H1150 N1147 0.984 . S
H1151 N1147 0.985 . S
H1152 N1146 0.984 . S
H1153 N1146 0.984 . S
H1154 N1142 0.984 . S
H1155 N1142 0.985 . S
C1156 C1157 1.363 . S
C1156 C1162 1.379 1_455 S
C1156 N1164 1.356 . S
C1157 C1156 1.363 . S
C1157 C1163 1.363 . S
C1158 C1159 1.363 . S
C1158 C1163 1.379 1_655 S
C1158 N1165 1.356 . S
C1159 C1158 1.363 . S
C1159 C1162 1.363 . S
N1160 C1162 1.356 . S
N1160 H1172 0.984 . S
N1160 H1173 0.985 . S
N1161 C1163 1.356 . S
N1161 H1166 0.984 . S
N1161 H1167 0.985 . S
C1162 C1156 1.379 1_655 S
C1162 C1159 1.363 . S
C1162 N1160 1.356 . S
C1163 C1157 1.363 . S
C1163 C1158 1.379 1_455 S
C1163 N1161 1.356 . S
N1164 C1156 1.356 . S
N1164 H1170 0.984 . S
N1164 H1171 0.984 . S
N1165 C1158 1.356 . S
N1165 H1168 0.984 . S
N1165 H1169 0.985 . S
H1166 N1161 0.984 . S
H1167 N1161 0.985 . S
H1168 N1165 0.984 . S
H1169 N1165 0.985 . S
H1170 N1164 0.984 . S
H1171 N1164 0.984 . S
H1172 N1160 0.984 . S
H1173 N1160 0.985 . S
C1174 C1175 1.363 . S
C1174 C1180 1.379 . S
C1174 N1182 1.356 . S
C1175 C1174 1.363 . S
C1175 C1181 1.363 . S
C1176 C1177 1.363 . S
C1176 C1181 1.379 . S
C1176 N1183 1.356 . S
C1177 C1176 1.363 . S
C1177 C1180 1.363 . S
N1178 C1180 1.356 . S
N1178 H1190 0.984 . S
N1178 H1191 0.985 . S
N1179 C1181 1.356 . S
N1179 H1184 0.984 . S
N1179 H1185 0.985 . S
C1180 C1174 1.379 . S
C1180 C1177 1.363 . S
C1180 N1178 1.356 . S
C1181 C1175 1.363 . S
C1181 C1176 1.379 . S
C1181 N1179 1.356 . S
N1182 C1174 1.356 . S
N1182 H1188 0.984 . S
N1182 H1189 0.984 . S
N1183 C1176 1.356 . S
N1183 H1186 0.984 . S
N1183 H1187 0.985 . S
H1184 N1179 0.984 . S
H1185 N1179 0.985 . S
H1186 N1183 0.984 . S
H1187 N1183 0.985 . S
H1188 N1182 0.984 . S
H1189 N1182 0.984 . S
H1190 N1178 0.984 . S
H1191 N1178 0.985 . S
C1192 C1193 1.363 . S
C1192 C1198 1.379 . S
C1192 N1200 1.356 . S
C1193 C1192 1.363 . S
C1193 C1199 1.363 . S
C1194 C1195 1.363 . S
C1194 C1199 1.379 . S
C1194 N1201 1.356 . S
C1195 C1194 1.363 . S
C1195 C1198 1.363 . S
N1196 C1198 1.356 . S
N1196 H1208 0.984 . S
N1196 H1209 0.985 . S
N1197 C1199 1.356 . S
N1197 H1202 0.984 . S
N1197 H1203 0.985 . S
C1198 C1192 1.379 . S
C1198 C1195 1.363 . S
C1198 N1196 1.356 . S
C1199 C1193 1.363 . S
C1199 C1194 1.379 . S
C1199 N1197 1.356 . S
N1200 C1192 1.356 . S
N1200 H1206 0.984 . S
N1200 H1207 0.984 . S
N1201 C1194 1.356 . S
N1201 H1204 0.984 . S
N1201 H1205 0.985 . S
H1202 N1197 0.984 . S
H1203 N1197 0.985 . S
H1204 N1201 0.984 . S
H1205 N1201 0.985 . S
H1206 N1200 0.984 . S
H1207 N1200 0.984 . S
H1208 N1196 0.984 . S
H1209 N1196 0.985 . S
C1210 C1211 1.363 1_565 S
C1210 C1216 1.379 1_455 S
C1210 N1218 1.356 1_565 S
C1211 C1210 1.363 1_545 S
C1211 C1217 1.363 . S
C1212 C1213 1.363 1_545 S
C1212 C1217 1.379 1_655 S
C1212 N1219 1.356 1_545 S
C1213 C1212 1.363 1_565 S
C1213 C1216 1.363 . S
N1214 C1216 1.356 . S
N1214 H1226 0.984 . S
N1214 H1227 0.985 . S
N1215 C1217 1.356 . S
N1215 H1220 0.984 . S
N1215 H1221 0.985 . S
C1216 C1210 1.379 1_655 S
C1216 C1213 1.363 . S
C1216 N1214 1.356 . S
C1217 C1211 1.363 . S
C1217 C1212 1.379 1_455 S
C1217 N1215 1.356 . S
N1218 C1210 1.356 1_545 S
N1218 H1224 0.984 1_545 S
N1218 H1225 0.984 . S
N1219 C1212 1.356 1_565 S
N1219 H1222 0.984 . S
N1219 H1223 0.985 1_565 S
H1220 N1215 0.984 . S
H1221 N1215 0.985 . S
H1222 N1219 0.984 . S
H1223 N1219 0.985 1_545 S
H1224 N1218 0.984 1_565 S
H1225 N1218 0.984 . S
H1226 N1214 0.984 . S
H1227 N1214 0.985 . S
C1228 C1229 1.363 . S
C1228 C1234 1.379 . S
C1228 N1236 1.356 . S
C1229 C1228 1.363 . S
C1229 C1235 1.363 . S
C1230 C1231 1.363 . S
C1230 C1235 1.379 . S
C1230 N1237 1.356 . S
C1231 C1230 1.363 . S
C1231 C1234 1.363 . S
N1232 C1234 1.356 . S
N1232 H1244 0.984 . S
N1232 H1245 0.985 . S
N1233 C1235 1.356 . S
N1233 H1238 0.984 . S
N1233 H1239 0.985 . S
C1234 C1228 1.379 . S
C1234 C1231 1.363 . S
C1234 N1232 1.356 . S
C1235 C1229 1.363 . S
C1235 C1230 1.379 . S
C1235 N1233 1.356 . S
N1236 C1228 1.356 . S
N1236 H1242 0.984 . S
N1236 H1243 0.984 . S
N1237 C1230 1.356 . S
N1237 H1240 0.984 . S
N1237 H1241 0.985 . S
H1238 N1233 0.984 . S
H1239 N1233 0.985 . S
H1240 N1237 0.984 . S
H1241 N1237 0.985 . S
H1242 N1236 0.984 . S
H1243 N1236 0.984 . S
H1244 N1232 0.984 . S
H1245 N1232 0.985 . S
C1246 C1247 1.363 1_545 S
C1246 C1252 1.379 . S
C1246 N1254 1.356 1_545 S
C1247 C1246 1.363 1_565 S
C1247 C1253 1.363 . S
C1248 C1249 1.363 1_565 S
C1248 C1253 1.379 . S
C1248 N1255 1.356 1_565 S
C1249 C1248 1.363 1_545 S
C1249 C1252 1.363 . S
N1250 C1252 1.356 . S
N1250 H1262 0.984 . S
N1250 H1263 0.985 . S
N1251 C1253 1.356 . S
N1251 H1256 0.984 . S
N1251 H1257 0.985 . S
C1252 C1246 1.379 . S
C1252 C1249 1.363 . S
C1252 N1250 1.356 . S
C1253 C1247 1.363 . S
C1253 C1248 1.379 . S
C1253 N1251 1.356 . S
N1254 C1246 1.356 1_565 S
N1254 H1260 0.984 1_565 S
N1254 H1261 0.984 . S
N1255 C1248 1.356 1_545 S
N1255 H1258 0.984 . S
N1255 H1259 0.985 1_545 S
H1256 N1251 0.984 . S
H1257 N1251 0.985 . S
H1258 N1255 0.984 . S
H1259 N1255 0.985 1_565 S
H1260 N1254 0.984 1_545 S
H1261 N1254 0.984 . S
H1262 N1250 0.984 . S
H1263 N1250 0.985 . S
C545 C5 1.400 . S
C547 C394 1.447 . S
C563 C39 1.400 . S
C565 C360 1.447 . S
C581 C54 1.446 1_455 S
C583 C73 1.399 . S
C599 C20 1.446 1_655 S
C601 C107 1.399 . S
C617 C141 1.400 . S
C619 C530 1.446 . S
C635 C175 1.400 . S
C637 C496 1.446 . S
C653 C190 1.446 1_455 S
C655 C209 1.400 . S
C671 C243 1.400 . S
C673 C156 1.446 1_655 S
C689 C122 1.446 . S
C691 C277 1.400 . S
C707 C88 1.446 . S
C709 C311 1.400 . S
C725 C326 1.446 . S
C727 C345 1.400 . S
C743 C292 1.446 . S
C745 C379 1.400 . S
C761 C413 1.400 . S
C763 C258 1.447 . S
C779 C447 1.400 . S
C781 C224 1.447 . S
C797 C481 1.400 . S
C799 C462 1.446 . S
C815 C428 1.446 . S
C817 C515 1.399 . S
C833 C203 1.559 . S
C835 C9 1.525 1_655 S
C851 C169 1.559 . S
C853 C43 1.525 1_455 S
C869 C77 1.527 . S
C871 C407 1.559 . S
C887 C373 1.559 . S
C889 C111 1.527 . S
C905 C67 1.559 . S
C907 C145 1.529 1_655 S
C923 C33 1.559 . S
C925 C179 1.529 1_455 S
C941 C213 1.527 1_565 S
C943 C543 1.559 . S
C959 C247 1.527 1_545 S
C961 C509 1.559 . S
C977 C281 1.527 . S
C979 C475 1.561 . S
C995 C441 1.559 . S
C997 C315 1.529 . S
C1013 C135 1.559 . S
C1015 C349 1.527 . S
C1031 C101 1.559 . S
C1033 C383 1.527 . S
C1049 C339 1.559 . S
C1051 C417 1.525 . S
C1067 C305 1.559 . S
C1069 C451 1.525 . S
C1085 C271 1.559 . S
C1087 C485 1.527 1_565 S
C1103 C237 1.559 . S
C1105 C519 1.527 1_545 S
C1121 C444 1.721 . S
C1123 C2 1.721 . S
C1139 C36 1.721 . S
C1141 C410 1.721 . S
C1157 C70 1.721 . S
C1159 C104 1.721 . S
C1175 C308 1.721 . S
C1177 C138 1.721 . S
C1193 C172 1.721 . S
C1195 C274 1.721 . S
C1211 C206 1.721 . S
C1213 C240 1.721 . S
C1229 C376 1.721 . S
C1231 C342 1.721 . S
C1247 C512 1.721 . S
C1249 C478 1.721 . S
