# Generated by pormake.
# Topology wfj, (8)-cn, num edge types: 1
# Building blocks:
#     Node 0, Type 0, BuildingBlock: TAGTUT_clean_sbu_3, # of connection points: 8
#     Node 1, Type 0, BuildingBlock: TAGTUT_clean_sbu_3, # of connection points: 8
#     Node 2, Type 0, BuildingBlock: TAGTUT_clean_sbu_3, # of connection points: 8
#     Node 3, Type 0, BuildingBlock: TAGTUT_clean_sbu_3, # of connection points: 8
#     Node 4, Type 0, BuildingBlock: TAGTUT_clean_sbu_3, # of connection points: 8
#     Node 5, Type 0, BuildingBlock: TAGTUT_clean_sbu_3, # of connection points: 8
#     Node 6, Type 0, BuildingBlock: TAGTUT_clean_sbu_3, # of connection points: 8
#     Node 7, Type 0, BuildingBlock: TAGTUT_clean_sbu_3, # of connection points: 8
#     Node 8, Type 0, BuildingBlock: TAGTUT_clean_sbu_3, # of connection points: 8
#     Node 9, Type 0, BuildingBlock: TAGTUT_clean_sbu_3, # of connection points: 8
#     Node 10, Type 0, BuildingBlock: TAGTUT_clean_sbu_3, # of connection points: 8
#     Node 11, Type 0, BuildingBlock: TAGTUT_clean_sbu_3, # of connection points: 8
#     Node 12, Type 0, BuildingBlock: TAGTUT_clean_sbu_3, # of connection points: 8
#     Node 13, Type 0, BuildingBlock: TAGTUT_clean_sbu_3, # of connection points: 8
#     Node 14, Type 0, BuildingBlock: TAGTUT_clean_sbu_3, # of connection points: 8
#     Node 15, Type 0, BuildingBlock: TAGTUT_clean_sbu_3, # of connection points: 8
#     Edge 16, Type (0, 0), BuildingBlock: UVAHIK_clean_linker_0, # of connection points: 2
#     Edge 17, Type (0, 0), BuildingBlock: UVAHIK_clean_linker_0, # of connection points: 2
#     Edge 18, Type (0, 0), BuildingBlock: UVAHIK_clean_linker_0, # of connection points: 2
#     Edge 19, Type (0, 0), BuildingBlock: UVAHIK_clean_linker_0, # of connection points: 2
#     Edge 20, Type (0, 0), BuildingBlock: UVAHIK_clean_linker_0, # of connection points: 2
#     Edge 21, Type (0, 0), BuildingBlock: UVAHIK_clean_linker_0, # of connection points: 2
#     Edge 22, Type (0, 0), BuildingBlock: UVAHIK_clean_linker_0, # of connection points: 2
#     Edge 23, Type (0, 0), BuildingBlock: UVAHIK_clean_linker_0, # of connection points: 2
#     Edge 24, Type (0, 0), BuildingBlock: UVAHIK_clean_linker_0, # of connection points: 2
#     Edge 25, Type (0, 0), BuildingBlock: UVAHIK_clean_linker_0, # of connection points: 2
#     Edge 26, Type (0, 0), BuildingBlock: UVAHIK_clean_linker_0, # of connection points: 2
#     Edge 27, Type (0, 0), BuildingBlock: UVAHIK_clean_linker_0, # of connection points: 2
#     Edge 28, Type (0, 0), BuildingBlock: UVAHIK_clean_linker_0, # of connection points: 2
#     Edge 29, Type (0, 0), BuildingBlock: UVAHIK_clean_linker_0, # of connection points: 2
#     Edge 30, Type (0, 0), BuildingBlock: UVAHIK_clean_linker_0, # of connection points: 2
#     Edge 31, Type (0, 0), BuildingBlock: UVAHIK_clean_linker_0, # of connection points: 2
#     Edge 32, Type (0, 0), BuildingBlock: UVAHIK_clean_linker_0, # of connection points: 2
#     Edge 33, Type (0, 0), BuildingBlock: UVAHIK_clean_linker_0, # of connection points: 2
#     Edge 34, Type (0, 0), BuildingBlock: UVAHIK_clean_linker_0, # of connection points: 2
#     Edge 35, Type (0, 0), BuildingBlock: UVAHIK_clean_linker_0, # of connection points: 2
#     Edge 36, Type (0, 0), BuildingBlock: UVAHIK_clean_linker_0, # of connection points: 2
#     Edge 37, Type (0, 0), BuildingBlock: UVAHIK_clean_linker_0, # of connection points: 2
#     Edge 38, Type (0, 0), BuildingBlock: UVAHIK_clean_linker_0, # of connection points: 2
#     Edge 39, Type (0, 0), BuildingBlock: UVAHIK_clean_linker_0, # of connection points: 2
#     Edge 40, Type (0, 0), BuildingBlock: UVAHIK_clean_linker_0, # of connection points: 2
#     Edge 41, Type (0, 0), BuildingBlock: UVAHIK_clean_linker_0, # of connection points: 2
#     Edge 42, Type (0, 0), BuildingBlock: UVAHIK_clean_linker_0, # of connection points: 2
#     Edge 43, Type (0, 0), BuildingBlock: UVAHIK_clean_linker_0, # of connection points: 2
#     Edge 44, Type (0, 0), BuildingBlock: UVAHIK_clean_linker_0, # of connection points: 2
#     Edge 45, Type (0, 0), BuildingBlock: UVAHIK_clean_linker_0, # of connection points: 2
#     Edge 46, Type (0, 0), BuildingBlock: UVAHIK_clean_linker_0, # of connection points: 2
#     Edge 47, Type (0, 0), BuildingBlock: UVAHIK_clean_linker_0, # of connection points: 2
#     Edge 48, Type (0, 0), BuildingBlock: UVAHIK_clean_linker_0, # of connection points: 2
#     Edge 49, Type (0, 0), BuildingBlock: UVAHIK_clean_linker_0, # of connection points: 2
#     Edge 50, Type (0, 0), BuildingBlock: UVAHIK_clean_linker_0, # of connection points: 2
#     Edge 51, Type (0, 0), BuildingBlock: UVAHIK_clean_linker_0, # of connection points: 2
#     Edge 52, Type (0, 0), BuildingBlock: UVAHIK_clean_linker_0, # of connection points: 2
#     Edge 53, Type (0, 0), BuildingBlock: UVAHIK_clean_linker_0, # of connection points: 2
#     Edge 54, Type (0, 0), BuildingBlock: UVAHIK_clean_linker_0, # of connection points: 2
#     Edge 55, Type (0, 0), BuildingBlock: UVAHIK_clean_linker_0, # of connection points: 2
#     Edge 56, Type (0, 0), BuildingBlock: UVAHIK_clean_linker_0, # of connection points: 2
#     Edge 57, Type (0, 0), BuildingBlock: UVAHIK_clean_linker_0, # of connection points: 2
#     Edge 58, Type (0, 0), BuildingBlock: UVAHIK_clean_linker_0, # of connection points: 2
#     Edge 59, Type (0, 0), BuildingBlock: UVAHIK_clean_linker_0, # of connection points: 2
#     Edge 60, Type (0, 0), BuildingBlock: UVAHIK_clean_linker_0, # of connection points: 2
#     Edge 61, Type (0, 0), BuildingBlock: UVAHIK_clean_linker_0, # of connection points: 2
#     Edge 62, Type (0, 0), BuildingBlock: UVAHIK_clean_linker_0, # of connection points: 2
#     Edge 63, Type (0, 0), BuildingBlock: UVAHIK_clean_linker_0, # of connection points: 2
#     Edge 64, Type (0, 0), BuildingBlock: UVAHIK_clean_linker_0, # of connection points: 2
#     Edge 65, Type (0, 0), BuildingBlock: UVAHIK_clean_linker_0, # of connection points: 2
#     Edge 66, Type (0, 0), BuildingBlock: UVAHIK_clean_linker_0, # of connection points: 2
#     Edge 67, Type (0, 0), BuildingBlock: UVAHIK_clean_linker_0, # of connection points: 2
#     Edge 68, Type (0, 0), BuildingBlock: UVAHIK_clean_linker_0, # of connection points: 2
#     Edge 69, Type (0, 0), BuildingBlock: UVAHIK_clean_linker_0, # of connection points: 2
#     Edge 70, Type (0, 0), BuildingBlock: UVAHIK_clean_linker_0, # of connection points: 2
#     Edge 71, Type (0, 0), BuildingBlock: UVAHIK_clean_linker_0, # of connection points: 2
#     Edge 72, Type (0, 0), BuildingBlock: UVAHIK_clean_linker_0, # of connection points: 2
#     Edge 73, Type (0, 0), BuildingBlock: UVAHIK_clean_linker_0, # of connection points: 2
#     Edge 74, Type (0, 0), BuildingBlock: UVAHIK_clean_linker_0, # of connection points: 2
#     Edge 75, Type (0, 0), BuildingBlock: UVAHIK_clean_linker_0, # of connection points: 2
#     Edge 76, Type (0, 0), BuildingBlock: UVAHIK_clean_linker_0, # of connection points: 2
#     Edge 77, Type (0, 0), BuildingBlock: UVAHIK_clean_linker_0, # of connection points: 2
#     Edge 78, Type (0, 0), BuildingBlock: UVAHIK_clean_linker_0, # of connection points: 2
#     Edge 79, Type (0, 0), BuildingBlock: UVAHIK_clean_linker_0, # of connection points: 2
# Relax obj value: 0.265
# Max RMSD: 0.262
# Mean RMSD: 0.259
data_MOF--net-wfj--node1-TAGTUT_clean_sbu_3--edge1-UVAHIK_clean_linker_0
_symmetry_space_group_name_H-M    P1
_symmetry_Int_Tables_number       1
_symmetry_cell_setting            triclinic
loop_
_symmetry_equiv_pos_as_xyz
'x, y, z'
_cell_length_a     79.440666
_cell_length_b     79.375247
_cell_length_c     20.00409
_cell_angle_alpha  89.489046
_cell_angle_beta   89.889816
_cell_angle_gamma 90.040808
loop_
_atom_site_label
_atom_site_type_symbol
_atom_site_fract_x
_atom_site_fract_y
_atom_site_fract_z
_atom_type_partial_charge
C0 C 0.15442 0.33411 0.43034 0.0
C1 C 0.20755 0.30513 0.50903 0.0
C2 C 0.18772 0.30901 0.70504 0.0
Mg3 Mg 0.12804 0.35794 0.49937 0.0
Mg4 Mg 0.1352 0.38173 0.63175 0.0
O5 O 0.13721 0.36066 0.59236 0.0
Mg6 Mg 0.15898 0.34854 0.57915 0.0
O7 O 0.17898 0.33408 0.55931 0.0
Mg8 Mg 0.16759 0.31148 0.55599 0.0
Mg9 Mg 0.19952 0.33496 0.60235 0.0
C10 C 0.15995 0.36309 0.73305 0.0
O11 O 0.1761 0.37224 0.56623 0.0
O12 O 0.10314 0.36856 0.53995 0.0
O13 O 0.20166 0.36194 0.59624 0.0
O14 O 0.13779 0.38506 0.4671 0.0
O15 O 0.10789 0.38307 0.63391 0.0
O16 O 0.14589 0.3983 0.55993 0.0
O17 O 0.14396 0.32477 0.59391 0.0
O18 O 0.1207 0.33063 0.5351 0.0
C19 C 0.12949 0.32059 0.57186 0.0
C20 C 0.09782 0.37685 0.59055 0.0
O21 O 0.16376 0.35148 0.69125 0.0
O22 O 0.19202 0.30091 0.51369 0.0
O23 O 0.1503 0.37558 0.71858 0.0
O24 O 0.17726 0.30375 0.6612 0.0
O25 O 0.21344 0.31838 0.53676 0.0
O26 O 0.19602 0.32261 0.69622 0.0
O27 O 0.15328 0.34671 0.46937 0.0
O28 O 0.15944 0.31971 0.45157 0.0
C29 C 0.14484 0.39755 0.4965 0.0
C30 C 0.19187 0.37409 0.57911 0.0
C31 C 0.38001 0.4321 0.73505 0.0
C32 C 0.35145 0.3776 0.71317 0.0
C33 C 0.39769 0.35384 0.7956 0.0
Mg34 Mg 0.41609 0.44532 0.72406 0.0
Mg35 Mg 0.44887 0.42622 0.65952 0.0
O36 O 0.43035 0.42459 0.71638 0.0
Mg37 Mg 0.41194 0.40724 0.70868 0.0
O38 O 0.39186 0.39202 0.70771 0.0
Mg39 Mg 0.3831 0.39442 0.80107 0.0
Mg40 Mg 0.38803 0.37185 0.66402 0.0
C41 C 0.44866 0.38719 0.7002 0.0
O42 O 0.41423 0.40344 0.5944 0.0
O43 O 0.4397 0.4599 0.74817 0.0
O44 O 0.40158 0.37842 0.57393 0.0
O45 O 0.4206 0.45369 0.61296 0.0
O46 O 0.46249 0.44669 0.70829 0.0
O47 O 0.43965 0.43647 0.56788 0.0
O48 O 0.40856 0.40826 0.82081 0.0
O49 O 0.41306 0.43597 0.83291 0.0
C50 C 0.41004 0.42128 0.85767 0.0
C51 C 0.45561 0.45903 0.73909 0.0
O52 O 0.43315 0.38724 0.71961 0.0
O53 O 0.35759 0.38365 0.76711 0.0
O54 O 0.45584 0.39987 0.67146 0.0
O55 O 0.39293 0.36699 0.82765 0.0
O56 O 0.36083 0.37271 0.66492 0.0
O57 O 0.39757 0.3533 0.73185 0.0
O58 O 0.39332 0.42912 0.70108 0.0
O59 O 0.37355 0.42072 0.77282 0.0
C60 C 0.42944 0.44882 0.56305 0.0
C61 C 0.41027 0.39127 0.55516 0.0
C62 C 0.31946 0.62453 0.01278 0.0
C63 C 0.37852 0.60029 0.9861 0.0
C64 C 0.39582 0.64486 0.09265 0.0
Mg65 Mg 0.30584 0.66162 0.01113 0.0
Mg66 Mg 0.32677 0.69342 0.95015 0.0
O67 O 0.32672 0.67592 0.01288 0.0
Mg68 Mg 0.34386 0.65758 0.00163 0.0
O69 O 0.35927 0.63798 0.9932 0.0
Mg70 Mg 0.35642 0.6271 0.08293 0.0
Mg71 Mg 0.38067 0.63881 0.9544 0.0
C72 C 0.36451 0.69414 -0.00137 0.0
O73 O 0.34745 0.66149 0.88994 0.0
O74 O 0.29092 0.68581 0.03454 0.0
O75 O 0.37383 0.65296 0.86455 0.0
O76 O 0.3 0.66673 0.89782 0.0
O77 O 0.3055 0.70733 0.98897 0.0
O78 O 0.31998 0.6835 0.85618 0.0
O79 O 0.34164 0.65176 0.11174 0.0
O80 O 0.31385 0.65692 0.12096 0.0
C81 C 0.32814 0.65283 0.14685 0.0
C82 C 0.29266 0.70156 0.0208 0.0
O83 O 0.36408 0.67863 0.01865 0.0
O84 O 0.36954 0.60351 0.03805 0.0
O85 O 0.35239 0.70116 0.96653 0.0
O86 O 0.38279 0.63745 0.11734 0.0
O87 O 0.38396 0.61193 0.9468 0.0
O88 O 0.39702 0.64819 0.03025 0.0
O89 O 0.32227 0.63909 0.9873 0.0
O90 O 0.33074 0.61711 0.04782 0.0
C91 C 0.30703 0.6743 0.84823 0.0
C92 C 0.35964 0.6596 0.84857 0.0
C93 C 0.08833 0.59398 0.16588 0.0
C94 C 0.05557 0.541 0.23003 0.0
C95 C 0.06176 0.55569 0.43018 0.0
Mg96 Mg 0.11203 0.61898 0.24743 0.0
Mg97 Mg 0.13647 0.60715 0.37451 0.0
O98 O 0.11554 0.60615 0.33361 0.0
Mg99 Mg 0.10263 0.58519 0.31353 0.0
O100 O 0.08702 0.56638 0.28729 0.0
Mg101 Mg 0.06515 0.57908 0.28839 0.0
Mg102 Mg 0.08646 0.54471 0.32225 0.0
C103 C 0.11715 0.5807 0.46833 0.0
O104 O 0.12528 0.56672 0.2939 0.0
O105 O 0.12281 0.64243 0.29973 0.0
O106 O 0.11316 0.5411 0.31161 0.0
O107 O 0.13919 0.61151 0.21087 0.0
O108 O 0.13724 0.63417 0.39081 0.0
O109 O 0.15339 0.60012 0.29671 0.0
O110 O 0.07966 0.60059 0.33397 0.0
O111 O 0.0848 0.62547 0.28652 0.0
C112 C 0.07506 0.61552 0.31957 0.0
C113 C 0.13119 0.64575 0.35279 0.0
O114 O 0.10545 0.57798 0.42524 0.0
O115 O 0.05272 0.55664 0.23969 0.0
O116 O 0.13008 0.58999 0.45589 0.0
O117 O 0.05721 0.56751 0.39017 0.0
O118 O 0.06854 0.53348 0.25385 0.0
O119 O 0.07457 0.54651 0.4178 0.0
O120 O 0.101 0.59423 0.20532 0.0
O121 O 0.07382 0.58907 0.18627 0.0
C122 C 0.15228 0.60415 0.23495 0.0
C123 C 0.12594 0.55048 0.29828 0.0
C124 C 0.87166 0.67929 0.47554 0.0
C125 C 0.89745 0.62118 0.45128 0.0
C126 C 0.8489 0.60407 0.54844 0.0
Mg127 Mg 0.83513 0.69271 0.48736 0.0
Mg128 Mg 0.80076 0.67334 0.43945 0.0
O129 O 0.82076 0.67179 0.48651 0.0
Mg130 Mg 0.83877 0.6548 0.46747 0.0
O131 O 0.85895 0.64008 0.45454 0.0
Mg132 Mg 0.86911 0.64201 0.54609 0.0
Mg133 Mg 0.85948 0.61922 0.41294 0.0
C134 C 0.80201 0.63403 0.47226 0.0
O135 O 0.83369 0.65224 0.35513 0.0
O136 O 0.8122 0.70703 0.52511 0.0
O137 O 0.84484 0.62704 0.32691 0.0
O138 O 0.82715 0.70068 0.38021 0.0
O139 O 0.78875 0.69295 0.49736 0.0
O140 O 0.80721 0.68327 0.34372 0.0
O141 O 0.84503 0.65605 0.57699 0.0
O142 O 0.84174 0.68371 0.59312 0.0
C143 C 0.84513 0.66889 0.61526 0.0
C144 C 0.79617 0.70537 0.52539 0.0
O145 O 0.81805 0.63369 0.48302 0.0
O146 O 0.89301 0.62931 0.50362 0.0
O147 O 0.79406 0.64725 0.45276 0.0
O148 O 0.85689 0.61597 0.57784 0.0
O149 O 0.88669 0.61611 0.40817 0.0
O150 O 0.84781 0.60333 0.48497 0.0
O151 O 0.85693 0.67649 0.45256 0.0
O152 O 0.87931 0.66821 0.51141 0.0
C153 C 0.81692 0.6959 0.33467 0.0
C154 C 0.8364 0.64042 0.31291 0.0
C155 C 0.56386 0.60986 0.28088 0.0
C156 C 0.61936 0.64353 0.26204 0.0
C157 C 0.64167 0.59696 0.35101 0.0
Mg158 Mg 0.55394 0.5715 0.28638 0.0
Mg159 Mg 0.58506 0.54495 0.20054 0.0
O160 O 0.57842 0.55975 0.2753 0.0
Mg161 Mg 0.59242 0.58134 0.26516 0.0
O162 O 0.60405 0.60366 0.25742 0.0
Mg163 Mg 0.6011 0.61177 0.35076 0.0
Mg164 Mg 0.62516 0.60649 0.21798 0.0
C165 C 0.62193 0.553 0.24046 0.0
O166 O 0.59581 0.57918 0.15259 0.0
O167 O 0.56741 0.5462 0.28954 0.0
O168 O 0.62003 0.59283 0.12738 0.0
O169 O 0.54803 0.56608 0.17386 0.0
O170 O 0.57268 0.52263 0.24015 0.0
O171 O 0.56976 0.55388 0.12023 0.0
O172 O 0.58992 0.58527 0.37489 0.0
O173 O 0.56316 0.57718 0.39321 0.0
C174 C 0.57744 0.58265 0.41422 0.0
C175 C 0.56274 0.53103 0.27707 0.0
O176 O 0.61701 0.56549 0.27591 0.0
O177 O 0.6111 0.63791 0.31295 0.0
O178 O 0.61212 0.54548 0.19986 0.0
O179 O 0.62878 0.60306 0.38134 0.0
O180 O 0.62581 0.63367 0.21856 0.0
O181 O 0.64234 0.59603 0.28754 0.0
O182 O 0.56832 0.59553 0.25746 0.0
O183 O 0.57407 0.6187 0.31597 0.0
C184 C 0.55511 0.56058 0.12044 0.0
C185 C 0.60739 0.58367 0.11127 0.0
C186 C 0.63413 0.32378 0.01578 0.0
C187 C 0.60565 0.37952 -0.00336 0.0
C188 C 0.65122 0.39942 0.10136 0.0
Mg189 Mg 0.67061 0.31155 0.03064 0.0
Mg190 Mg 0.70513 0.33178 0.98874 0.0
O191 O 0.68464 0.33261 0.03336 0.0
Mg192 Mg 0.66599 0.34943 0.01524 0.0
O193 O 0.64536 0.36355 0.00362 0.0
Mg194 Mg 0.63433 0.35971 0.09307 0.0
Mg195 Mg 0.64367 0.38462 0.96285 0.0
C196 C 0.70182 0.37093 0.02604 0.0
O197 O 0.67087 0.35337 0.90258 0.0
O198 O 0.69346 0.29657 0.06465 0.0
O199 O 0.65862 0.37824 0.87548 0.0
O200 O 0.67837 0.30579 0.92099 0.0
O201 O 0.71717 0.31067 0.04021 0.0
O202 O 0.69915 0.32329 0.89081 0.0
O203 O 0.65925 0.34675 0.12439 0.0
O204 O 0.66388 0.31913 0.13879 0.0
C205 C 0.65983 0.33363 0.16199 0.0
C206 C 0.70952 0.29776 0.06459 0.0
O207 O 0.68566 0.37078 0.03282 0.0
O208 O 0.61002 0.37122 0.04911 0.0
O209 O 0.7105 0.35805 0.008 0.0
O210 O 0.64431 0.38635 0.1284 0.0
O211 O 0.61647 0.38574 0.95563 0.0
O212 O 0.65299 0.40086 0.03813 0.0
O213 O 0.64891 0.32782 -0.00274 0.0
O214 O 0.62551 0.33343 0.05379 0.0
C215 C 0.68874 0.31155 0.87723 0.0
C216 C 0.66743 0.36522 0.86042 0.0
C217 C 0.90887 0.41362 0.86091 0.0
C218 C 0.94028 0.46604 0.7761 0.0
C219 C 0.93246 0.44724 0.58347 0.0
Mg220 Mg 0.88418 0.38769 0.79073 0.0
Mg221 Mg 0.85953 0.39652 0.66035 0.0
O222 O 0.88055 0.39838 0.7003 0.0
Mg223 Mg 0.89339 0.4197 0.71379 0.0
O224 O 0.90883 0.4391 0.73311 0.0
Mg225 Mg 0.93082 0.42662 0.73232 0.0
Mg226 Mg 0.90848 0.45998 0.69089 0.0
C227 C 0.87835 0.4214 0.55899 0.0
O228 O 0.87069 0.4379 0.7321 0.0
O229 O 0.87321 0.36307 0.7482 0.0
O230 O 0.88179 0.46348 0.70547 0.0
O231 O 0.85765 0.39733 0.82568 0.0
O232 O 0.85909 0.36924 0.65395 0.0
O233 O 0.84343 0.40634 0.73556 0.0
O234 O 0.91621 0.40396 0.69565 0.0
O235 O 0.91085 0.38011 0.75146 0.0
C236 C 0.92057 0.38924 0.7147 0.0
C237 C 0.86522 0.35853 0.69569 0.0
O238 O 0.88985 0.42515 0.60157 0.0
O239 O 0.9433 0.45026 0.77161 0.0
O240 O 0.86573 0.41187 0.57331 0.0
O241 O 0.93756 0.4363 0.62629 0.0
O242 O 0.92694 0.47282 0.75201 0.0
O243 O 0.91958 0.45642 0.59468 0.0
O244 O 0.89595 0.41279 0.82302 0.0
O245 O 0.9232 0.41843 0.83816 0.0
C246 C 0.84491 0.40466 0.79876 0.0
C247 C 0.86947 0.45399 0.72378 0.0
C248 C 0.65648 0.83386 0.94387 0.0
C249 C 0.71112 0.80625 0.00594 0.0
C250 C 0.69453 0.80905 0.20831 0.0
Mg251 Mg 0.63033 0.85649 0.02049 0.0
Mg252 Mg 0.63872 0.88049 0.151 0.0
O253 O 0.64072 0.85947 0.11127 0.0
Mg254 Mg 0.66265 0.84806 0.09279 0.0
O255 O 0.68274 0.83423 0.06748 0.0
Mg256 Mg 0.67197 0.81131 0.06513 0.0
Mg257 Mg 0.70413 0.83549 0.10311 0.0
C258 C 0.66503 0.86222 0.24732 0.0
O259 O 0.67892 0.87236 0.07908 0.0
O260 O 0.60585 0.86654 0.06616 0.0
O261 O 0.70526 0.86253 0.09916 0.0
O262 O 0.63887 0.88389 0.98598 0.0
O263 O 0.61142 0.88141 0.15847 0.0
O264 O 0.64809 0.89723 0.07696 0.0
O265 O 0.64868 0.82386 0.10924 0.0
O266 O 0.62408 0.82895 0.05928 0.0
C267 C 0.6339 0.81915 0.09287 0.0
C268 C 0.60098 0.87489 0.11725 0.0
O269 O 0.66867 0.85076 0.20458 0.0
O270 O 0.6959 0.80151 0.01583 0.0
O271 O 0.65499 0.87453 0.23466 0.0
O272 O 0.68335 0.80372 0.16754 0.0
O273 O 0.71715 0.81967 0.03197 0.0
O274 O 0.70277 0.82258 0.19678 0.0
O275 O 0.65549 0.8463 0.98383 0.0
O276 O 0.66209 0.81955 0.96343 0.0
C277 C 0.64608 0.89652 0.01389 0.0
C278 C 0.69486 0.87454 0.08711 0.0
C279 C 0.87709 0.92871 0.28692 0.0
C280 C 0.84925 0.87438 0.26738 0.0
C281 C 0.89681 0.8513 0.34526 0.0
Mg282 Mg 0.91271 0.94247 0.27079 0.0
Mg283 Mg 0.94428 0.92391 0.19731 0.0
O284 O 0.92754 0.92206 0.26215 0.0
Mg285 Mg 0.90931 0.9044 0.25705 0.0
O286 O 0.88942 0.88903 0.2585 0.0
Mg287 Mg 0.88123 0.89138 0.35296 0.0
Mg288 Mg 0.88563 0.86889 0.21478 0.0
C289 C 0.94593 0.88496 0.23885 0.0
O290 O 0.91084 0.90072 0.14258 0.0
O291 O 0.9364 0.95797 0.28746 0.0
O292 O 0.89834 0.87559 0.12288 0.0
O293 O 0.91466 0.95022 0.15843 0.0
O294 O 0.9583 0.94517 0.23837 0.0
O295 O 0.93238 0.93262 0.10823 0.0
O296 O 0.90677 0.90552 0.36945 0.0
O297 O 0.91141 0.93328 0.38086 0.0
C298 C 0.90861 0.91856 0.40605 0.0
C299 C 0.95201 0.95743 0.27156 0.0
O300 O 0.93091 0.88461 0.26362 0.0
O301 O 0.8555 0.88032 0.32137 0.0
O302 O 0.9521 0.89786 0.20796 0.0
O303 O 0.89184 0.86423 0.37819 0.0
O304 O 0.85853 0.86953 0.21878 0.0
O305 O 0.89615 0.85076 0.28158 0.0
O306 O 0.89026 0.92569 0.2524 0.0
O307 O 0.87097 0.91752 0.32636 0.0
C308 C 0.92192 0.94477 0.10571 0.0
C309 C 0.90678 0.88855 0.10358 0.0
C310 C 0.82004 0.12566 0.51684 0.0
C311 C 0.8791 0.10083 0.4879 0.0
C312 C 0.89677 0.14633 0.58883 0.0
Mg313 Mg 0.8068 0.1629 0.52188 0.0
Mg314 Mg 0.82693 0.19562 0.46285 0.0
O315 O 0.82784 0.17701 0.5198 0.0
Mg316 Mg 0.84467 0.15854 0.50384 0.0
O317 O 0.85967 0.13857 0.49292 0.0
Mg318 Mg 0.85757 0.12806 0.58398 0.0
Mg319 Mg 0.88089 0.13913 0.45311 0.0
C320 C 0.86583 0.19464 0.49831 0.0
O321 O 0.84756 0.16299 0.39125 0.0
O322 O 0.79228 0.18687 0.55068 0.0
O323 O 0.87364 0.15359 0.3654 0.0
O324 O 0.79977 0.16877 0.41056 0.0
O325 O 0.80652 0.20923 0.51044 0.0
O326 O 0.81827 0.18721 0.36911 0.0
O327 O 0.8433 0.1526 0.6134 0.0
O328 O 0.81575 0.15738 0.6299 0.0
C329 C 0.83042 0.1533 0.65195 0.0
C330 C 0.79388 0.20282 0.54161 0.0
O331 O 0.86559 0.17907 0.51744 0.0
O332 O 0.87044 0.10444 0.54015 0.0
O333 O 0.85305 0.2022 0.47276 0.0
O334 O 0.8842 0.13866 0.61585 0.0
O335 O 0.88426 0.11217 0.44663 0.0
O336 O 0.89741 0.14931 0.52613 0.0
O337 O 0.82275 0.14038 0.49253 0.0
O338 O 0.83147 0.11804 0.55067 0.0
C339 C 0.80576 0.1774 0.36158 0.0
C340 C 0.85975 0.1609 0.34978 0.0
C341 C 0.58801 0.09317 0.67402 0.0
C342 C 0.55409 0.04241 0.75605 0.0
C343 C 0.56129 0.06091 0.95023 0.0
Mg344 Mg 0.61218 0.11978 0.7472 0.0
Mg345 Mg 0.63541 0.11147 0.88284 0.0
O346 O 0.6156 0.10813 0.8356 0.0
Mg347 Mg 0.60236 0.08714 0.82171 0.0
O348 O 0.5863 0.06818 0.80222 0.0
Mg349 Mg 0.5647 0.08134 0.80189 0.0
Mg350 Mg 0.58544 0.04738 0.8448 0.0
C351 C 0.61662 0.08477 0.97684 0.0
O352 O 0.62453 0.06781 0.80617 0.0
O353 O 0.6215 0.14438 0.79571 0.0
O354 O 0.612 0.04293 0.8339 0.0
O355 O 0.64009 0.11227 0.71683 0.0
O356 O 0.634 0.1386 0.89384 0.0
O357 O 0.65401 0.10539 0.8106 0.0
O358 O 0.57963 0.1034 0.83963 0.0
O359 O 0.58488 0.12668 0.78075 0.0
C360 C 0.57517 0.11786 0.81841 0.0
C361 C 0.62823 0.14914 0.8507 0.0
O362 O 0.6052 0.08159 0.93333 0.0
O363 O 0.55157 0.05826 0.76098 0.0
O364 O 0.62929 0.09449 0.96545 0.0
O365 O 0.55678 0.07205 0.90714 0.0
O366 O 0.56704 0.03513 0.7812 0.0
O367 O 0.57397 0.0514 0.94008 0.0
O368 O 0.60106 0.09428 0.71122 0.0
O369 O 0.57359 0.0889 0.69753 0.0
C370 C 0.6535 0.10724 0.74715 0.0
C371 C 0.62488 0.0517 0.81626 0.0
C372 C 0.3713 0.18279 0.96386 0.0
C373 C 0.39676 0.12386 0.92985 0.0
C374 C 0.34946 0.10664 0.03134 0.0
Mg375 Mg 0.33416 0.19571 0.98186 0.0
Mg376 Mg 0.30004 0.17596 0.93448 0.0
O377 O 0.32031 0.17448 0.97974 0.0
Mg378 Mg 0.3385 0.15806 0.95639 0.0
O379 O 0.3587 0.14364 0.93898 0.0
Mg380 Mg 0.3695 0.14471 0.02952 0.0
Mg381 Mg 0.35855 0.12296 0.89605 0.0
C382 C 0.30218 0.13648 0.96135 0.0
O383 O 0.33252 0.15642 0.84423 0.0
O384 O 0.31114 0.20907 0.02408 0.0
O385 O 0.343 0.13114 0.81331 0.0
O386 O 0.32517 0.20453 0.87671 0.0
O387 O 0.28788 0.1947 -0.0039 0.0
O388 O 0.30565 0.18677 0.83948 0.0
O389 O 0.3456 0.15849 0.06543 0.0
O390 O 0.34172 0.18591 0.0852 0.0
C391 C 0.34571 0.17105 0.10517 0.0
C392 C 0.29516 0.20699 0.02551 0.0
O393 O 0.31828 0.13639 0.9708 0.0
O394 O 0.39294 0.13173 0.98359 0.0
O395 O 0.29388 0.1497 0.94442 0.0
O396 O 0.35758 0.11847 0.0607 0.0
O397 O 0.38562 0.11963 0.8868 0.0
O398 O 0.34771 0.10639 0.96804 0.0
O399 O 0.35624 0.18037 0.94332 0.0
O400 O 0.37946 0.17117 -0.00497 0.0
C401 C 0.31477 0.19987 0.83157 0.0
C402 C 0.33461 0.14466 0.80118 0.0
C403 C 0.07685 0.09147 0.89888 0.0
C404 C 0.03955 0.04166 0.79767 0.0
C405 C 0.05288 0.06536 0.61359 0.0
Mg406 Mg 0.10394 0.11651 0.82741 0.0
Mg407 Mg 0.12626 0.10623 0.69367 0.0
O408 O 0.10553 0.10597 0.73695 0.0
Mg409 Mg 0.09088 0.08574 0.75129 0.0
O410 O 0.07417 0.06719 0.7714 0.0
Mg411 Mg 0.05314 0.08125 0.77061 0.0
Mg412 Mg 0.07315 0.04762 0.72143 0.0
C413 C 0.10503 0.08337 0.59595 0.0
O414 O 0.11228 0.06546 0.76487 0.0
O415 O 0.11663 0.14042 0.78176 0.0
O416 O 0.09913 0.0411 0.73735 0.0
O417 O 0.13069 0.10536 0.85785 0.0
O418 O 0.12898 0.13329 0.68489 0.0
O419 O 0.14323 0.096 0.76502 0.0
O420 O 0.06891 0.10372 0.73956 0.0
O421 O 0.07769 0.12654 0.79384 0.0
C422 C 0.06628 0.11857 0.76167 0.0
C423 C 0.12444 0.14438 0.72751 0.0
O424 O 0.0932 0.08098 0.63893 0.0
O425 O 0.03823 0.05769 0.8031 0.0
O426 O 0.1187 0.09134 0.60889 0.0
O427 O 0.04673 0.07473 0.65953 0.0
O428 O 0.05225 0.03475 0.76936 0.0
O429 O 0.06497 0.05521 0.6252 0.0
O430 O 0.08971 0.09199 0.86004 0.0
O431 O 0.06214 0.08727 0.87765 0.0
C432 C 0.14299 0.09794 0.8282 0.0
C433 C 0.1122 0.04937 0.75575 0.0
C434 C 0.13506 0.82046 0.51409 0.0
C435 C 0.10772 0.87748 0.49042 0.0
C436 C 0.15405 0.89618 0.5925 0.0
Mg437 Mg 0.17202 0.80803 0.52404 0.0
Mg438 Mg 0.2054 0.82913 0.47555 0.0
O439 O 0.18577 0.82932 0.52575 0.0
Mg440 Mg 0.16693 0.84584 0.50794 0.0
O441 O 0.1464 0.85996 0.49616 0.0
Mg442 Mg 0.1359 0.85698 0.58702 0.0
Mg443 Mg 0.14592 0.88113 0.45584 0.0
C444 C 0.2024 0.86795 0.51443 0.0
O445 O 0.17148 0.84919 0.39555 0.0
O446 O 0.19567 0.79336 0.5555 0.0
O447 O 0.16028 0.87448 0.36773 0.0
O448 O 0.1791 0.80216 0.41337 0.0
O449 O 0.21837 0.80818 0.52287 0.0
O450 O 0.19826 0.82095 0.37873 0.0
O451 O 0.16069 0.84352 0.61705 0.0
O452 O 0.16561 0.81592 0.63229 0.0
C453 C 0.16136 0.83044 0.65493 0.0
C454 C 0.21166 0.79512 0.55016 0.0
O455 O 0.18634 0.8675 0.5235 0.0
O456 O 0.11164 0.86909 0.54335 0.0
O457 O 0.21109 0.85529 0.49447 0.0
O458 O 0.14643 0.88359 0.62003 0.0
O459 O 0.11888 0.88318 0.44969 0.0
O460 O 0.15623 0.89721 0.52943 0.0
O461 O 0.14974 0.82404 0.49262 0.0
O462 O 0.1268 0.83061 0.55132 0.0
C463 C 0.18849 0.80854 0.36746 0.0
C464 C 0.16843 0.86103 0.35304 0.0
C465 C 0.41095 0.91622 0.37494 0.0
C466 C 0.44117 0.96871 0.28993 0.0
C467 C 0.43462 0.94953 0.09693 0.0
Mg468 Mg 0.38712 0.88933 0.30831 0.0
Mg469 Mg 0.36218 0.89576 0.17709 0.0
O470 O 0.3831 0.8991 0.21662 0.0
Mg471 Mg 0.39541 0.921 0.22726 0.0
O472 O 0.41047 0.94088 0.24436 0.0
Mg473 Mg 0.4328 0.92903 0.24603 0.0
Mg474 Mg 0.40992 0.96184 0.20294 0.0
C475 C 0.38015 0.92087 0.07323 0.0
O476 O 0.37225 0.93902 0.24281 0.0
O477 O 0.37723 0.86403 0.26922 0.0
O478 O 0.38312 0.96464 0.21474 0.0
O479 O 0.36022 0.89827 0.34197 0.0
O480 O 0.36231 0.86822 0.17545 0.0
O481 O 0.34574 0.90583 0.25048 0.0
O482 O 0.41879 0.90575 0.21097 0.0
O483 O 0.41393 0.88233 0.27029 0.0
C484 C 0.42349 0.89133 0.23244 0.0
C485 C 0.36918 0.85837 0.2187 0.0
O486 O 0.39158 0.92541 0.11486 0.0
O487 O 0.44463 0.95304 0.2847 0.0
O488 O 0.36801 0.91082 0.08876 0.0
O489 O 0.43966 0.93854 0.13971 0.0
O490 O 0.42766 0.97517 0.26606 0.0
O491 O 0.4216 0.95856 0.10766 0.0
O492 O 0.39809 0.91499 0.337 0.0
O493 O 0.42521 0.92117 0.35216 0.0
C494 C 0.34724 0.90485 0.31387 0.0
C495 C 0.37084 0.95506 0.23271 0.0
C496 C 0.12564 0.29652 0.64966 0.0
C497 C 0.1241 0.30313 0.58466 0.0
C498 C 0.12367 0.2793 0.66175 0.0
C499 C 0.13127 0.23929 0.58469 0.0
H500 H 0.10474 0.2209 0.73094 0.0
C501 C 0.12845 0.16763 0.64327 0.0
C502 C 0.12638 0.16249 0.71023 0.0
C503 C 0.1278 0.18471 0.62552 0.0
C504 C 0.11244 0.22582 0.69056 0.0
H505 H 0.11918 0.29711 0.48123 0.0
H506 H 0.11607 0.26664 0.5022 0.0
H507 H 0.10275 0.25079 0.70319 0.0
H508 H 0.12294 0.17135 0.81153 0.0
H509 H 0.12258 0.20111 0.78119 0.0
H510 H 0.1416 0.21459 0.57372 0.0
C511 C 0.1185 0.27492 0.54383 0.0
C512 C 0.11113 0.24292 0.67425 0.0
C513 C 0.12009 0.2923 0.53195 0.0
C514 C 0.12445 0.17487 0.75941 0.0
C515 C 0.12404 0.19195 0.7418 0.0
C516 C 0.13279 0.22221 0.60162 0.0
C517 C 0.12053 0.26827 0.60878 0.0
C518 C 0.12061 0.24984 0.62149 0.0
C519 C 0.12529 0.19711 0.67441 0.0
C520 C 0.12351 0.21525 0.65524 0.0
H521 H 0.12896 0.30464 0.69088 0.0
H522 H 0.12546 0.2745 0.71212 0.0
H523 H 0.13892 0.24438 0.54443 0.0
H524 H 0.12981 0.15842 0.60398 0.0
H525 H 0.12865 0.18809 0.57308 0.0
C526 C 0.46083 0.37256 0.79773 0.0
C527 C 0.46024 0.3745 0.72799 0.0
C528 C 0.47591 0.36811 0.82915 0.0
C529 C 0.52123 0.37287 0.7886 0.0
H530 H 0.52632 0.36025 0.97486 0.0
C531 C 0.58139 0.39068 0.92941 0.0
C532 C 0.58769 0.37925 0.97706 0.0
C533 C 0.56525 0.38854 0.90289 0.0
C534 C 0.52526 0.36363 0.92251 0.0
H535 H 0.47385 0.37056 0.63578 0.0
H536 H 0.49965 0.3611 0.6899 0.0
H537 H 0.49985 0.35481 0.91862 0.0
H538 H 0.58177 0.35687 0.03567 0.0
H539 H 0.55411 0.35275 0.98778 0.0
H540 H 0.54681 0.38092 0.79127 0.0
C541 C 0.48896 0.36421 0.72104 0.0
C542 C 0.50992 0.36067 0.89028 0.0
C543 C 0.47404 0.36923 0.68973 0.0
C544 C 0.57725 0.36604 -0.00046 0.0
C545 C 0.56129 0.36368 0.97197 0.0
C546 C 0.53663 0.37547 0.8203 0.0
C547 C 0.49053 0.36504 0.79112 0.0
C548 C 0.50754 0.36558 0.82314 0.0
C549 C 0.55518 0.37467 0.92209 0.0
C550 C 0.53879 0.37127 0.88816 0.0
H551 H 0.4504 0.3767 0.82847 0.0
H552 H 0.4764 0.36882 0.88309 0.0
H553 H 0.52002 0.37721 0.73742 0.0
H554 H 0.5891 0.40104 0.91139 0.0
H555 H 0.56084 0.39764 0.86629 0.0
C556 C 0.35888 0.83204 0.16186 0.0
C557 C 0.37005 0.83999 0.20599 0.0
C558 C 0.36096 0.81497 0.14623 0.0
C559 C 0.39269 0.7831 0.12475 0.0
H560 H 0.35736 0.75006 0.153 0.0
C561 C 0.38238 0.71961 0.98851 0.0
C562 C 0.37665 0.706 0.02785 0.0
C563 C 0.38624 0.73503 0.01806 0.0
C564 C 0.36742 0.75912 0.14561 0.0
H565 H 0.39217 0.83617 0.26813 0.0
H566 H 0.39594 0.80666 0.23921 0.0
H567 H 0.35287 0.7793 0.18701 0.0
H568 H 0.37243 0.69718 0.12924 0.0
H569 H 0.37894 0.72423 0.18078 0.0
H570 H 0.4069 0.76307 0.0801 0.0
C571 C 0.3855 0.81358 0.21762 0.0
C572 C 0.36476 0.77583 0.16438 0.0
C573 C 0.38321 0.83045 0.23446 0.0
C574 C 0.37703 0.70739 0.09779 0.0
C575 C 0.3805 0.72294 0.12725 0.0
C576 C 0.3952 0.76644 0.10443 0.0
C577 C 0.37447 0.80571 0.17312 0.0
C578 C 0.37734 0.78797 0.15391 0.0
C579 C 0.38415 0.73711 0.0872 0.0
C580 C 0.38257 0.75431 0.11475 0.0
H581 H 0.34868 0.83904 0.13896 0.0
H582 H 0.35231 0.80913 0.11164 0.0
H583 H 0.40256 0.79229 0.1161 0.0
H584 H 0.38199 0.7189 0.93446 0.0
H585 H 0.38904 0.74577 0.9861 0.0
C586 C 0.92161 0.61039 0.38164 0.0
C587 C 0.91575 0.61968 0.43657 0.0
C588 C 0.93871 0.61065 0.36406 0.0
C589 C 0.977 0.63659 0.37906 0.0
H590 H 0.0012 0.59501 0.34794 0.0
C591 C 0.04799 0.63126 0.29477 0.0
C592 C 0.05722 0.61969 0.33369 0.0
C593 C 0.03044 0.63259 0.30303 0.0
C594 C 0.99456 0.60674 0.35603 0.0
H595 H 0.92348 0.63633 0.51659 0.0
H596 H 0.95309 0.63677 0.48568 0.0
H597 H 0.97094 0.59413 0.37 0.0
H598 H 0.05548 0.60149 0.41514 0.0
H599 H 0.02523 0.60362 0.42833 0.0
H600 H 1.00078 0.64914 0.36598 0.0
C601 C 0.94445 0.62939 0.45601 0.0
C602 C 0.97724 0.60623 0.36831 0.0
C603 C 0.92747 0.62895 0.47411 0.0
C604 C 0.04873 0.61026 0.38325 0.0
C605 C 0.03136 0.61143 0.39083 0.0
C606 C 0.99432 0.63712 0.36579 0.0
C607 C 0.95025 0.6204 0.40041 0.0
C608 C 0.96833 0.62111 0.38139 0.0
C609 C 0.02195 0.62226 0.34979 0.0
C610 C 0.00333 0.62215 0.35567 0.0
H611 H 0.91296 0.60316 0.35148 0.0
H612 H 0.94283 0.60358 0.32099 0.0
H613 H 0.9704 0.64828 0.38827 0.0
H614 H 0.05416 0.63866 0.25615 0.0
H615 H 0.02343 0.64114 0.27107 0.0
C616 C 0.87227 0.70722 0.41734 0.0
C617 C 0.87873 0.69649 0.46734 0.0
C618 C 0.87787 0.72381 0.41124 0.0
C619 C 0.89634 0.75863 0.50473 0.0
H620 H 0.90362 0.77714 0.32705 0.0
C621 C 0.89225 0.82977 0.43579 0.0
C622 C 0.90154 0.83554 0.38034 0.0
C623 C 0.89333 0.81286 0.45637 0.0
C624 C 0.90195 0.77221 0.37727 0.0
H625 H 0.89627 0.69482 0.55004 0.0
H626 H 0.90609 0.72406 0.53938 0.0
H627 H 0.89822 0.74723 0.34098 0.0
H628 H 0.92063 0.82881 0.30791 0.0
H629 H 0.92303 0.79962 0.34527 0.0
H630 H 0.8998 0.78381 0.54073 0.0
C631 C 0.89664 0.7195 0.50503 0.0
C632 C 0.89865 0.75504 0.38509 0.0
C633 C 0.89112 0.70274 0.51075 0.0
C634 C 0.91318 0.82463 0.35037 0.0
C635 C 0.91443 0.80786 0.37142 0.0
C636 C 0.8996 0.77592 0.49686 0.0
C637 C 0.89004 0.73021 0.45516 0.0
C638 C 0.89546 0.74809 0.44866 0.0
C639 C 0.90385 0.80152 0.42219 0.0
C640 C 0.90221 0.78296 0.43283 0.0
H641 H 0.86275 0.70283 0.38295 0.0
H642 H 0.87238 0.73177 0.37283 0.0
H643 H 0.89386 0.75365 0.55435 0.0
H644 H 0.88309 0.83788 0.45947 0.0
H645 H 0.88498 0.80842 0.49561 0.0
C646 C 0.53999 0.62993 0.30514 0.0
C647 C 0.54612 0.61554 0.2724 0.0
C648 C 0.52318 0.63498 0.29742 0.0
C649 C 0.48135 0.61862 0.24895 0.0
H650 H 0.47027 0.66529 0.21092 0.0
C651 C 0.41305 0.63774 0.1943 0.0
C652 C 0.41115 0.64693 0.13434 0.0
C653 C 0.42888 0.63626 0.22459 0.0
C654 C 0.47315 0.65222 0.22186 0.0
H655 H 0.53936 0.59562 0.20414 0.0
H656 H 0.51022 0.60421 0.19141 0.0
H657 H 0.49942 0.65745 0.23545 0.0
H658 H 0.42412 0.66314 0.06307 0.0
H659 H 0.45156 0.6606 0.11579 0.0
H660 H 0.4553 0.6132 0.23309 0.0
C661 C 0.51829 0.61144 0.224 0.0
C662 C 0.48983 0.64775 0.23635 0.0
C663 C 0.53506 0.6065 0.23129 0.0
C664 C 0.42512 0.65585 0.10892 0.0
C665 C 0.4409 0.65444 0.13937 0.0
C666 C 0.4647 0.62308 0.23493 0.0
C667 C 0.5121 0.62569 0.25716 0.0
C668 C 0.49418 0.63082 0.24853 0.0
C669 C 0.44312 0.64405 0.19595 0.0
C670 C 0.46042 0.63988 0.21984 0.0
H671 H 0.54814 0.63725 0.33709 0.0
H672 H 0.51878 0.64601 0.32375 0.0
H673 H 0.48424 0.6055 0.25899 0.0
H674 H 0.40258 0.63075 0.21549 0.0
H675 H 0.4301 0.62841 0.26888 0.0
C676 C 0.61799 0.29692 0.03901 0.0
C677 C 0.62827 0.30681 -0.00295 0.0
C678 C 0.61504 0.27992 0.02386 0.0
C679 C 0.619 0.24895 0.88544 0.0
H680 H 0.62469 0.21604 0.02787 0.0
C681 C 0.61655 0.178 0.83191 0.0
C682 C 0.62754 0.16729 0.86726 0.0
C683 C 0.61471 0.19483 0.84992 0.0
C684 C 0.62321 0.22507 0.98743 0.0
H685 H 0.64268 0.30704 0.90479 0.0
H686 H 0.63781 0.27779 0.87921 0.0
H687 H 0.62383 0.246 0.05442 0.0
H688 H 0.64536 0.16599 0.94904 0.0
H689 H 0.64274 0.19566 0.97874 0.0
H690 H 0.61941 0.22834 0.81793 0.0
C691 C 0.63185 0.28291 0.92333 0.0
C692 C 0.62241 0.24224 0.00283 0.0
C693 C 0.63478 0.29971 0.93838 0.0
C694 C 0.63681 0.17391 0.92072 0.0
C695 C 0.63515 0.19089 0.9382 0.0
C696 C 0.61998 0.23188 0.87001 0.0
C697 C 0.62219 0.27268 0.96627 0.0
C698 C 0.62062 0.2544 0.9518 0.0
C699 C 0.62401 0.20156 0.90314 0.0
C700 C 0.62231 0.2197 0.92062 0.0
H701 H 0.6129 0.30208 0.08472 0.0
H702 H 0.60742 0.27237 0.05766 0.0
H703 H 0.61738 0.25794 0.84494 0.0
H704 H 0.60897 0.1733 0.79115 0.0
H705 H 0.60575 0.20249 0.82256 0.0
C706 C 0.94635 0.39198 0.64562 0.0
C707 C 0.93798 0.38402 0.69918 0.0
C708 C 0.96333 0.38905 0.63385 0.0
C709 C 0.00214 0.37603 0.71791 0.0
H710 H 0.01904 0.3759 0.53593 0.0
C711 C 0.07251 0.38705 0.65447 0.0
C712 C 0.0794 0.37766 0.60181 0.0
C713 C 0.05517 0.38662 0.66728 0.0
C714 C 0.0146 0.3757 0.58714 0.0
H715 H 0.94071 0.3662 0.78108 0.0
H716 H 0.97071 0.36078 0.75973 0.0
H717 H 0.98893 0.37525 0.55583 0.0
H718 H 0.07338 0.3604 0.52155 0.0
H719 H 0.04351 0.35941 0.54464 0.0
H720 H 0.02792 0.37619 0.74908 0.0
C721 C 0.96401 0.36951 0.72751 0.0
C722 C 0.99729 0.37549 0.59853 0.0
C723 C 0.94685 0.37246 0.73933 0.0
C724 C 0.06855 0.36796 0.5621 0.0
C725 C 0.05134 0.36741 0.57525 0.0
C726 C 0.01953 0.37611 0.7065 0.0
C727 C 0.97245 0.37795 0.67501 0.0
C728 C 0.99083 0.37598 0.66394 0.0
C729 C 0.0444 0.37671 0.62798 0.0
C730 C 0.02596 0.37616 0.64089 0.0
H731 H 0.93986 0.40087 0.61337 0.0
H732 H 0.96943 0.39597 0.59367 0.0
H733 H 0.99756 0.37656 0.76888 0.0
H734 H 0.0805 0.39463 0.68607 0.0
H735 H 0.05021 0.39415 0.70766 0.0
C736 C 0.62881 0.66851 0.19358 0.0
C737 C 0.62009 0.66202 0.24945 0.0
C738 C 0.62817 0.68569 0.17768 0.0
C739 C 0.61897 0.72739 0.24969 0.0
H740 H 0.6169 0.74138 0.06351 0.0
C741 C 0.63791 0.79354 0.16346 0.0
C742 C 0.62889 0.80177 0.11226 0.0
C743 C 0.63437 0.77692 0.1811 0.0
C744 C 0.61722 0.73769 0.11575 0.0
H745 H 0.60403 0.66873 0.33297 0.0
H746 H 0.60291 0.69866 0.30514 0.0
H747 H 0.61577 0.71143 0.09259 0.0
H748 H 0.60878 0.79898 0.04025 0.0
H749 H 0.60253 0.76953 0.07126 0.0
H750 H 0.62047 0.75361 0.2729 0.0
C751 C 0.61035 0.69045 0.27385 0.0
C752 C 0.61682 0.72051 0.13242 0.0
C753 C 0.61101 0.67325 0.28983 0.0
C754 C 0.61592 0.79299 0.0799 0.0
C755 C 0.61243 0.77614 0.0974 0.0
C756 C 0.61938 0.74452 0.23304 0.0
C757 C 0.61878 0.69686 0.21714 0.0
C758 C 0.61801 0.71514 0.19955 0.0
C759 C 0.62169 0.76793 0.14817 0.0
C760 C 0.61888 0.74988 0.16582 0.0
H761 H 0.63598 0.66028 0.16133 0.0
H762 H 0.63511 0.69022 0.13447 0.0
H763 H 0.61998 0.72375 0.30183 0.0
H764 H 0.6479 0.79991 0.18996 0.0
H765 H 0.64193 0.77096 0.2196 0.0
C766 C 0.97204 0.86906 0.21665 0.0
C767 C 0.95837 0.87217 0.2594 0.0
C768 C 0.98771 0.86477 0.24309 0.0
C769 C 0.01316 0.85494 0.39159 0.0
H770 H 0.03935 0.89348 0.33129 0.0
C771 C 0.07695 0.87257 0.51363 0.0
C772 C 0.08977 0.87825 0.47031 0.0
C773 C 0.06041 0.87075 0.49063 0.0
C774 C 0.03243 0.88247 0.34803 0.0
H775 H 0.94956 0.87046 0.3618 0.0
H776 H 0.977 0.86278 0.40803 0.0
H777 H 0.01196 0.88819 0.28272 0.0
H778 H 0.09506 0.88687 0.36913 0.0
H779 H 0.06662 0.88333 0.32893 0.0
H780 H 0.03387 0.84903 0.45619 0.0
C781 C 0.97564 0.86383 0.35427 0.0
C782 C 0.01669 0.87944 0.32009 0.0
C783 C 0.95989 0.8681 0.32768 0.0
C784 C 0.08553 0.88263 0.40425 0.0
C785 C 0.06911 0.88062 0.38111 0.0
C786 C 0.02916 0.8578 0.41893 0.0
C787 C 0.98989 0.86347 0.31258 0.0
C788 C 0.00693 0.86562 0.34116 0.0
C789 C 0.05634 0.87444 0.42364 0.0
C790 C 0.03903 0.87159 0.3972 0.0
H791 H 0.97116 0.87201 0.16377 0.0
H792 H 0.99847 0.86423 0.20983 0.0
H793 H 0.00577 0.84431 0.40914 0.0
H794 H 0.07976 0.8691 0.56488 0.0
H795 H 0.05087 0.8663 0.52524 0.0
C796 C 0.88151 0.20927 0.58633 0.0
C797 C 0.8796 0.20591 0.51795 0.0
C798 C 0.88561 0.22558 0.60713 0.0
C799 C 0.87305 0.26578 0.54397 0.0
H800 H 0.89611 0.28526 0.69516 0.0
C801 C 0.86455 0.33566 0.6106 0.0
C802 C 0.86565 0.34046 0.67786 0.0
C803 C 0.86809 0.31913 0.59182 0.0
C804 C 0.88938 0.27995 0.65333 0.0
H805 H 0.88357 0.2157 0.41797 0.0
H806 H 0.89129 0.24391 0.45402 0.0
H807 H 0.90273 0.25644 0.66124 0.0
H808 H 0.87045 0.33141 0.77862 0.0
H809 H 0.87573 0.30235 0.74636 0.0
H810 H 0.85897 0.28857 0.53767 0.0
C811 C 0.88912 0.23424 0.49164 0.0
C812 C 0.89336 0.26352 0.63354 0.0
C813 C 0.88496 0.21802 0.47099 0.0
C814 C 0.86953 0.32812 0.72631 0.0
C815 C 0.87281 0.3115 0.70764 0.0
C816 C 0.86887 0.28199 0.5643 0.0
C817 C 0.88801 0.2385 0.55952 0.0
C818 C 0.88529 0.25633 0.57837 0.0
C819 C 0.87252 0.30684 0.63992 0.0
C820 C 0.87697 0.28937 0.61916 0.0
H821 H 0.87732 0.20017 0.6235 0.0
H822 H 0.88479 0.22849 0.65984 0.0
H823 H 0.86622 0.26038 0.50248 0.0
H824 H 0.86185 0.34488 0.57184 0.0
H825 H 0.86796 0.31619 0.53908 0.0
C826 C 0.54707 0.12746 0.77544 0.0
C827 C 0.55739 0.12245 0.82889 0.0
C828 C 0.52951 0.12795 0.78346 0.0
C829 C 0.49626 0.10987 0.8952 0.0
H830 H 0.46689 0.1414 0.80335 0.0
C831 C 0.42667 0.12064 0.96706 0.0
C832 C 0.41483 0.1211 0.91493 0.0
C833 C 0.4439 0.11991 0.95311 0.0
C834 C 0.47497 0.13242 0.82877 0.0
H835 H 0.55772 0.11504 0.93324 0.0
H836 H 0.52744 0.11685 0.94853 0.0
H837 H 0.49736 0.14333 0.78706 0.0
H838 H 0.41181 0.12096 0.8072 0.0
H839 H 0.44205 0.12 0.7829 0.0
H840 H 0.47387 0.09938 0.93863 0.0
C841 C 0.53261 0.11973 0.89962 0.0
C842 C 0.49243 0.1335 0.81941 0.0
C843 C 0.55001 0.11896 0.89125 0.0
C844 C 0.42061 0.12048 0.84848 0.0
C845 C 0.4379 0.12009 0.8345 0.0
C846 C 0.47888 0.10898 0.90528 0.0
C847 C 0.52202 0.12361 0.84531 0.0
C848 C 0.50335 0.12235 0.85314 0.0
C849 C 0.44971 0.11994 0.88673 0.0
C850 C 0.46806 0.12031 0.8726 0.0
H851 H 0.55246 0.12991 0.72652 0.0
H852 H 0.52181 0.13091 0.74035 0.0
H853 H 0.50413 0.10069 0.92045 0.0
H854 H 0.42262 0.12112 0.01875 0.0
H855 H 0.45273 0.11989 -0.00567 0.0
C856 C 0.39192 0.33312 0.88826 0.0
C857 C 0.40136 0.33788 0.83173 0.0
C858 C 0.3923 0.31643 0.91197 0.0
C859 C 0.40158 0.27355 0.84785 0.0
H860 H 0.39138 0.25993 0.02997 0.0
C861 C 0.39319 0.20333 0.92387 0.0
C862 C 0.37833 0.20001 0.95971 0.0
C863 C 0.39878 0.21998 0.91471 0.0
C864 C 0.39426 0.26355 0.97887 0.0
H865 H 0.41978 0.32936 0.75964 0.0
H866 H 0.42116 0.30062 0.80283 0.0
H867 H 0.39682 0.28958 0.0043 0.0
H868 H 0.35835 0.21126 0.0179 0.0
H869 H 0.36801 0.24014 0.00212 0.0
H870 H 0.39889 0.24752 0.8225 0.0
C871 C 0.41286 0.30946 0.82731 0.0
C872 C 0.39731 0.28057 0.96403 0.0
C873 C 0.41225 0.32601 0.80297 0.0
C874 C 0.36962 0.21347 0.98881 0.0
C875 C 0.3753 0.23003 0.98051 0.0
C876 C 0.39871 0.25653 0.86284 0.0
C877 C 0.40233 0.3042 0.88023 0.0
C878 C 0.40073 0.28589 0.89802 0.0
C879 C 0.38977 0.23354 0.94234 0.0
C880 C 0.3947 0.25135 0.92826 0.0
H881 H 0.38328 0.34194 0.91105 0.0
H882 H 0.38393 0.31295 0.95255 0.0
H883 H 0.40379 0.27705 0.79615 0.0
H884 H 0.40013 0.19313 0.90108 0.0
H885 H 0.41005 0.22227 0.88545 0.0
C886 C 0.9239 0.16172 0.60544 0.0
C887 C 0.91225 0.14959 0.62804 0.0
C888 C 0.94022 0.16219 0.6315 0.0
C889 C 0.96849 0.1439 0.76356 0.0
H890 H 0.00241 0.1493 0.62528 0.0
C891 C 0.03543 0.11629 0.78381 0.0
C892 C 0.04906 0.12555 0.7579 0.0
C893 C 0.01895 0.12209 0.77624 0.0
C894 C 0.99315 0.14805 0.66484 0.0
H895 H 0.90825 0.1292 0.69897 0.0
H896 H 0.93678 0.12973 0.74349 0.0
H897 H 0.97302 0.15452 0.59895 0.0
H898 H 0.05627 0.14849 0.70618 0.0
H899 H 0.02726 0.15869 0.69199 0.0
H900 H 0.98873 0.13666 0.82852 0.0
C901 C 0.93332 0.13909 0.70631 0.0
C902 C 0.97622 0.15109 0.64985 0.0
C903 C 0.91689 0.13877 0.68081 0.0
C904 C 0.04594 0.14108 0.72627 0.0
C905 C 0.02936 0.14684 0.71793 0.0
C906 C 0.98543 0.14072 0.77839 0.0
C907 C 0.9454 0.15039 0.68015 0.0
C908 C 0.96359 0.14881 0.69867 0.0
C909 C 0.01566 0.1373 0.74221 0.0
C910 C 0.99794 0.14249 0.72889 0.0
H911 H 0.92065 0.17036 0.56527 0.0
H912 H 0.94896 0.17142 0.6115 0.0
H913 H 0.95921 0.14228 0.80283 0.0
H914 H 0.03746 0.10452 0.81009 0.0
H915 H 0.00873 0.11437 0.79525 0.0
C916 C 0.1307 0.67646 0.32441 0.0
C917 C 0.13282 0.66361 0.37242 0.0
C918 C 0.13074 0.69334 0.34325 0.0
C919 C 0.12142 0.72092 0.48283 0.0
H920 H 0.14723 0.75381 0.38133 0.0
C921 C 0.12715 0.79174 0.55453 0.0
C922 C 0.12906 0.8033 0.50167 0.0
C923 C 0.12626 0.77444 0.54144 0.0
C924 C 0.13969 0.74486 0.40957 0.0
H925 H 0.13681 0.6584 0.47784 0.0
H926 H 0.13666 0.68806 0.51089 0.0
H927 H 0.14945 0.72411 0.35402 0.0
H928 H 0.13057 0.80629 0.39429 0.0
H929 H 0.12803 0.77635 0.37098 0.0
H930 H 0.11136 0.74174 0.53747 0.0
C931 C 0.13502 0.68496 0.45867 0.0
C932 C 0.1411 0.72782 0.39416 0.0
C933 C 0.13526 0.66803 0.43964 0.0
C934 C 0.12893 0.79754 0.43571 0.0
C935 C 0.12777 0.78038 0.42256 0.0
C936 C 0.11986 0.73805 0.49787 0.0
C937 C 0.13266 0.69775 0.41063 0.0
C938 C 0.13188 0.7157 0.43019 0.0
C939 C 0.12719 0.76854 0.47527 0.0
C940 C 0.12884 0.75025 0.46083 0.0
H941 H 0.12881 0.67348 0.27222 0.0
H942 H 0.12879 0.70295 0.30525 0.0
H943 H 0.11408 0.7118 0.51106 0.0
H944 H 0.12763 0.79595 0.60586 0.0
H945 H 0.1259 0.76569 0.58325 0.0
C946 C 0.57151 0.8661 0.09223 0.0
C947 C 0.58265 0.87584 0.13047 0.0
C948 C 0.5543 0.86619 0.10545 0.0
C949 C 0.52256 0.8769 0.23382 0.0
H950 H 0.49256 0.87717 0.08112 0.0
C951 C 0.44964 0.87471 0.26006 0.0
C952 C 0.44112 0.88643 0.21941 0.0
C953 C 0.46685 0.87169 0.25016 0.0
C954 C 0.50076 0.87711 0.12435 0.0
H955 H 0.58435 0.89333 0.21286 0.0
H956 H 0.55405 0.89387 0.2348 0.0
H957 H 0.52276 0.87649 0.06324 0.0
H958 H 0.44376 0.90362 0.13497 0.0
H959 H 0.47347 0.89858 0.11856 0.0
H960 H 0.50036 0.87825 0.29471 0.0
C961 C 0.55878 0.88591 0.19532 0.0
C962 C 0.51809 0.87656 0.11413 0.0
C963 C 0.57611 0.88572 0.18237 0.0
C964 C 0.44996 0.89461 0.16756 0.0
C965 C 0.46701 0.8916 0.1577 0.0
C966 C 0.50514 0.87753 0.24407 0.0
C967 C 0.54769 0.87615 0.15683 0.0
C968 C 0.52923 0.87655 0.16865 0.0
C969 C 0.47572 0.88023 0.19911 0.0
C970 C 0.49407 0.87786 0.18932 0.0
H971 H 0.57607 0.85814 0.05238 0.0
H972 H 0.54619 0.85827 0.07566 0.0
H973 H 0.5308 0.87668 0.2769 0.0
H974 H 0.44315 0.86826 0.30051 0.0
H975 H 0.47323 0.86275 0.2825 0.0
C976 C 0.15016 0.35314 0.33205 0.0
C977 C 0.15243 0.33679 0.35791 0.0
C978 C 0.15156 0.35619 0.2636 0.0
C979 C 0.17226 0.33878 0.11637 0.0
H980 H 0.14341 0.36979 0.01933 0.0
C981 C 0.16917 0.34524 0.82937 0.0
C982 C 0.16536 0.36123 0.8029 0.0
C983 C 0.17041 0.34291 0.89835 0.0
C984 C 0.15177 0.36133 0.04611 0.0
H985 H 0.1566 0.3106 0.33197 0.0
H986 H 0.15876 0.31594 0.21224 0.0
H987 H 0.13765 0.36372 0.13655 0.0
H988 H 0.16202 0.38766 0.82646 0.0
H989 H 0.16445 0.3836 0.94677 0.0
H990 H 0.18624 0.33626 0.02535 0.0
C991 C 0.15635 0.32643 0.2452 0.0
C992 C 0.14839 0.35779 0.11302 0.0
C993 C 0.15496 0.32337 0.31364 0.0
C994 C 0.16458 0.37512 0.84574 0.0
C995 C 0.16592 0.37281 0.9145 0.0
C996 C 0.17563 0.34231 0.04928 0.0
C997 C 0.15518 0.34293 0.2199 0.0
C998 C 0.15856 0.34644 0.14866 0.0
C999 C 0.16798 0.35657 0.94148 0.0
C1000 C 0.16539 0.35361 0.01361 0.0
H1001 H 0.14818 0.36375 0.36479 0.0
H1002 H 0.15063 0.36904 0.24537 0.0
H1003 H 0.18048 0.3302 0.14318 0.0
H1004 H 0.16991 0.33432 0.79741 0.0
H1005 H 0.17203 0.33024 0.91791 0.0
C1006 C 0.40653 0.3824 0.43704 0.0
C1007 C 0.41503 0.39234 0.48405 0.0
C1008 C 0.40962 0.38454 0.36904 0.0
C1009 C 0.41953 0.41759 0.25446 0.0
H1010 H 0.42314 0.38191 0.12407 0.0
C1011 C 0.41869 0.43076 0.97076 0.0
C1012 C 0.41043 0.41894 0.93057 0.0
C1013 C 0.42119 0.42747 0.03852 0.0
C1014 C 0.42195 0.392 0.15989 0.0
H1015 H 0.43464 0.41095 0.49707 0.0
H1016 H 0.43989 0.41488 0.37714 0.0
H1017 H 0.42577 0.3752 0.2429 0.0
H1018 H 0.39754 0.39485 0.93004 0.0
H1019 H 0.40122 0.38944 0.04901 0.0
H1020 H 0.41472 0.43427 0.17248 0.0
C1021 C 0.43056 0.4058 0.39364 0.0
C1022 C 0.42365 0.38816 0.22763 0.0
C1023 C 0.42748 0.40363 0.46188 0.0
C1024 C 0.40406 0.40412 0.95983 0.0
C1025 C 0.40635 0.40094 0.02778 0.0
C1026 C 0.41757 0.4214 0.18683 0.0
C1027 C 0.42127 0.39662 0.34687 0.0
C1028 C 0.42217 0.40089 0.27535 0.0
C1029 C 0.41527 0.41241 0.06754 0.0
C1030 C 0.41844 0.40859 0.13892 0.0
H1031 H 0.39693 0.37347 0.45242 0.0
H1032 H 0.40225 0.37738 0.33369 0.0
H1033 H 0.4181 0.42757 0.29068 0.0
H1034 H 0.42388 0.44223 0.94939 0.0
H1035 H 0.42824 0.43649 0.06758 0.0
C1036 C 0.31931 0.66293 0.25852 0.0
C1037 C 0.32972 0.65257 0.21991 0.0
C1038 C 0.32233 0.66481 0.32657 0.0
C1039 C 0.35584 0.65814 0.45359 0.0
H1040 H 0.319 0.66657 0.57602 0.0
C1041 C 0.34095 0.65538 0.75243 0.0
C1042 C 0.35593 0.66209 0.77764 0.0
C1043 C 0.33775 0.65578 0.68425 0.0
C1044 C 0.32944 0.66407 0.54268 0.0
H1045 H 0.35086 0.63536 0.22203 0.0
H1046 H 0.35548 0.63769 0.34202 0.0
H1047 H 0.31306 0.66204 0.45903 0.0
H1048 H 0.37931 0.67466 0.75267 0.0
H1049 H 0.37327 0.67641 0.63262 0.0
H1050 H 0.37207 0.65891 0.5384 0.0
C1051 C 0.34547 0.64502 0.31943 0.0
C1052 C 0.32605 0.66172 0.47516 0.0
C1053 C 0.34271 0.64348 0.25091 0.0
C1054 C 0.3676 0.66955 0.73392 0.0
C1055 C 0.36418 0.67038 0.66542 0.0
C1056 C 0.35918 0.66007 0.52149 0.0
C1057 C 0.33556 0.65602 0.35782 0.0
C1058 C 0.33919 0.65862 0.42975 0.0
C1059 C 0.34928 0.6633 0.63979 0.0
C1060 C 0.346 0.66286 0.56694 0.0
H1061 H 0.30937 0.67029 0.23558 0.0
H1062 H 0.31462 0.67363 0.35394 0.0
H1063 H 0.36634 0.65622 0.41996 0.0
H1064 H 0.33196 0.64918 0.78526 0.0
H1065 H 0.32639 0.64976 0.66646 0.0
C1066 C 0.12822 0.57551 0.58301 0.0
C1067 C 0.11454 0.57548 0.5386 0.0
C1068 C 0.1255 0.5755 0.65185 0.0
C1069 C 0.09356 0.57079 0.78592 0.0
H1070 H 0.11958 0.60629 0.86917 0.0
C1071 C 0.07748 0.59441 0.04868 0.0
C1072 C 0.09111 0.59584 0.09306 0.0
C1073 C 0.08028 0.59247 0.98031 0.0
C1074 C 0.11232 0.59624 0.84689 0.0
H1075 H 0.08736 0.5736 0.53139 0.0
H1076 H 0.0826 0.57367 0.65185 0.0
H1077 H 0.12493 0.59907 0.7531 0.0
H1078 H 0.11833 0.59761 0.09962 0.0
H1079 H 0.12318 0.59421 0.98036 0.0
H1080 H 0.0809 0.56805 0.87989 0.0
C1081 C 0.09543 0.57373 0.63345 0.0
C1082 C 0.11544 0.59203 0.78048 0.0
C1083 C 0.09816 0.57365 0.56436 0.0
C1084 C 0.10754 0.59653 0.06692 0.0
C1085 C 0.11033 0.59457 -0.00154 0.0
C1086 C 0.09045 0.575 0.8525 0.0
C1087 C 0.10905 0.57552 0.67767 0.0
C1088 C 0.10612 0.57924 0.74926 0.0
C1089 C 0.09675 0.59195 0.95478 0.0
C1090 C 0.09979 0.5878 0.88364 0.0
H1091 H 0.14101 0.57664 0.5646 0.0
H1092 H 0.13626 0.57636 0.68482 0.0
H1093 H 0.08625 0.56084 0.76334 0.0
H1094 H 0.06465 0.594 0.06702 0.0
H1095 H 0.06954 0.59091 0.94763 0.0
C1096 C 0.83057 0.62915 0.19978 0.0
C1097 C 0.83131 0.64297 0.24297 0.0
C1098 C 0.82958 0.63171 0.13101 0.0
C1099 C 0.82318 0.66315 -0.00319 0.0
H1100 H 0.85896 0.63826 0.90959 0.0
C1101 C 0.84524 0.67986 0.73169 0.0
C1102 C 0.8467 0.6662 0.68786 0.0
C1103 C 0.84358 0.67705 0.80022 0.0
C1104 C 0.84882 0.64517 0.93307 0.0
H1105 H 0.83013 0.67021 0.24881 0.0
H1106 H 0.82841 0.67469 0.12851 0.0
H1107 H 0.8526 0.63268 0.0267 0.0
H1108 H 0.84876 0.63897 0.68185 0.0
H1109 H 0.84578 0.63411 0.80127 0.0
H1110 H 0.81948 0.67569 0.90295 0.0
C1111 C 0.82853 0.6619 0.14782 0.0
C1112 C 0.84511 0.64192 -7e-05 0.0
C1113 C 0.82948 0.65934 0.21673 0.0
C1114 C 0.8476 0.64977 0.71424 0.0
C1115 C 0.84592 0.64697 0.78271 0.0
C1116 C 0.82686 0.66637 0.92972 0.0
C1117 C 0.82938 0.64812 0.10441 0.0
C1118 C 0.83228 0.65089 0.03239 0.0
C1119 C 0.8434 0.66056 0.82604 0.0
C1120 C 0.83977 0.65744 0.89739 0.0
H1121 H 0.83166 0.61638 0.21882 0.0
H1122 H 0.82987 0.62087 0.09846 0.0
H1123 H 0.81321 0.67018 0.02079 0.0
H1124 H 0.84465 0.6927 0.71296 0.0
H1125 H 0.84204 0.68777 0.83284 0.0
C1126 C 0.59672 0.58672 0.51019 0.0
C1127 C 0.58029 0.58424 0.48633 0.0
C1128 C 0.60003 0.58583 0.57821 0.0
C1129 C 0.58285 0.56769 0.73284 0.0
H1130 H 0.61534 0.59727 0.81646 0.0
C1131 C 0.58904 0.57841 0.01404 0.0
C1132 C 0.60529 0.57939 0.0409 0.0
C1133 C 0.58681 0.57633 0.94582 0.0
C1134 C 0.60647 0.58875 0.7933 0.0
H1135 H 0.55426 0.57992 0.51502 0.0
H1136 H 0.56002 0.57889 0.63469 0.0
H1137 H 0.60882 0.60101 0.69845 0.0
H1138 H 0.632 0.57861 0.0187 0.0
H1139 H 0.62807 0.57525 0.89811 0.0
H1140 H 0.58007 0.55591 0.82896 0.0
C1141 C 0.57038 0.58101 0.60033 0.0
C1142 C 0.60268 0.59092 0.72601 0.0
C1143 C 0.56707 0.58175 0.53202 0.0
C1144 C 0.61934 0.57784 -0.00114 0.0
C1145 C 0.61712 0.5759 0.93032 0.0
C1146 C 0.58651 0.56564 0.80042 0.0
C1147 C 0.58695 0.58265 0.62378 0.0
C1148 C 0.59078 0.58047 0.69528 0.0
C1149 C 0.60082 0.57546 0.90342 0.0
C1150 C 0.59829 0.57622 0.83099 0.0
H1151 H 0.60721 0.58861 0.47631 0.0
H1152 H 0.61295 0.58698 0.59477 0.0
H1153 H 0.57387 0.55924 0.71001 0.0
H1154 H 0.57806 0.5803 0.04507 0.0
H1155 H 0.57415 0.57644 0.92577 0.0
C1156 C 0.67029 0.37621 0.74348 0.0
C1157 C 0.6716 0.36275 0.78927 0.0
C1158 C 0.67063 0.37321 0.67488 0.0
C1159 C 0.68012 0.34177 0.54553 0.0
H1160 H 0.64193 0.36202 0.45477 0.0
C1161 C 0.66157 0.32246 0.27926 0.0
C1162 C 0.6581 0.33583 0.23488 0.0
C1163 C 0.6627 0.32534 0.34787 0.0
C1164 C 0.65275 0.35639 0.47916 0.0
H1165 H 0.67507 0.3358 0.79884 0.0
H1166 H 0.67608 0.33059 0.67948 0.0
H1167 H 0.64744 0.36885 0.57107 0.0
H1168 H 0.65206 0.36248 0.22817 0.0
H1169 H 0.65421 0.36748 0.34713 0.0
H1170 H 0.68549 0.32939 0.4534 0.0
C1171 C 0.67489 0.34345 0.69653 0.0
C1172 C 0.65594 0.36037 0.54563 0.0
C1173 C 0.67445 0.34644 0.76506 0.0
C1174 C 0.65482 0.35189 0.26085 0.0
C1175 C 0.65599 0.35477 0.32925 0.0
C1176 C 0.67698 0.33787 0.47879 0.0
C1177 C 0.67232 0.35672 0.65092 0.0
C1178 C 0.66967 0.35312 0.5794 0.0
C1179 C 0.66035 0.34162 0.37332 0.0
C1180 C 0.66326 0.34515 0.44493 0.0
H1181 H 0.66819 0.38895 0.76055 0.0
H1182 H 0.6689 0.38371 0.64057 0.0
H1183 H 0.6908 0.33604 0.57048 0.0
H1184 H 0.66408 0.30991 0.2609 0.0
H1185 H 0.66575 0.31489 0.38085 0.0
C1186 C 0.86776 0.42382 0.44194 0.0
C1187 C 0.88079 0.42628 0.48827 0.0
C1188 C 0.87101 0.42478 0.37353 0.0
C1189 C 0.9058 0.41682 0.26012 0.0
H1190 H 0.87486 0.43298 0.12437 0.0
C1191 C 0.92009 0.4153 0.9772 0.0
C1192 C 0.90662 0.41189 0.93389 0.0
C1193 C 0.91731 0.41693 0.04567 0.0
C1194 C 0.88352 0.42823 0.16182 0.0
H1195 H 0.9071 0.43305 0.49919 0.0
H1196 H 0.9127 0.43499 0.37965 0.0
H1197 H 0.86929 0.43898 0.24176 0.0
H1198 H 0.8799 0.40622 0.92919 0.0
H1199 H 0.87515 0.40876 0.04892 0.0
H1200 H 0.91991 0.40586 0.18041 0.0
C1201 C 0.90006 0.43202 0.3964 0.0
C1202 C 0.88038 0.43177 0.22886 0.0
C1203 C 0.8968 0.43109 0.46488 0.0
C1204 C 0.89053 0.40899 0.96105 0.0
C1205 C 0.88776 0.41061 0.02955 0.0
C1206 C 0.90893 0.41326 0.19312 0.0
C1207 C 0.88735 0.42821 0.35019 0.0
C1208 C 0.89143 0.42599 0.27869 0.0
C1209 C 0.90102 0.41512 0.07218 0.0
C1210 C 0.89773 0.4188 0.14336 0.0
H1211 H 0.85525 0.42024 0.45836 0.0
H1212 H 0.86097 0.42175 0.3391 0.0
H1213 H 0.91437 0.41191 0.29759 0.0
H1214 H 0.93265 0.41755 0.95797 0.0
H1215 H 0.92777 0.42043 0.07729 0.0
C1216 C 0.65287 0.85324 0.84595 0.0
C1217 C 0.65419 0.83675 0.87159 0.0
C1218 C 0.65452 0.85627 0.77747 0.0
C1219 C 0.67475 0.83764 0.63124 0.0
H1220 H 0.64858 0.87052 0.53197 0.0
C1221 C 0.67374 0.84412 0.34368 0.0
C1222 C 0.67076 0.86024 0.31677 0.0
C1223 C 0.67456 0.84181 0.41285 0.0
C1224 C 0.65621 0.86152 0.55937 0.0
H1225 H 0.65672 0.81039 0.84512 0.0
H1226 H 0.65931 0.81572 0.72558 0.0
H1227 H 0.64188 0.86492 0.6488 0.0
H1228 H 0.66863 0.88682 0.33973 0.0
H1229 H 0.67046 0.8828 0.46025 0.0
H1230 H 0.68898 0.83413 0.54137 0.0
C1231 C 0.65749 0.8263 0.75864 0.0
C1232 C 0.65229 0.85825 0.6261 0.0
C1233 C 0.65585 0.82327 0.82701 0.0
C1234 C 0.67056 0.8742 0.35938 0.0
C1235 C 0.67152 0.8719 0.42829 0.0
C1236 C 0.67869 0.84091 0.56439 0.0
C1237 C 0.65746 0.84287 0.73356 0.0
C1238 C 0.66145 0.84622 0.66255 0.0
C1239 C 0.67257 0.85561 0.45573 0.0
C1240 C 0.66943 0.85287 0.52781 0.0
H1241 H 0.65159 0.86391 0.87894 0.0
H1242 H 0.65443 0.86918 0.75945 0.0
H1243 H 0.68223 0.82851 0.65865 0.0
H1244 H 0.67401 0.83315 0.31187 0.0
H1245 H 0.67544 0.82909 0.43265 0.0
C1246 C 0.90139 0.8814 0.98482 0.0
C1247 C 0.91135 0.88964 0.03242 0.0
C1248 C 0.90477 0.8834 0.91694 0.0
C1249 C 0.91894 0.91462 0.80288 0.0
H1250 H 0.91949 0.87854 0.67347 0.0
C1251 C 0.91864 0.92744 0.51828 0.0
C1252 C 0.90938 0.9162 0.47889 0.0
C1253 C 0.92118 0.92404 0.58604 0.0
C1254 C 0.91917 0.88876 0.70894 0.0
H1255 H 0.93363 0.90489 0.04694 0.0
H1256 H 0.93924 0.90885 0.92716 0.0
H1257 H 0.92106 0.87181 0.79252 0.0
H1258 H 0.89482 0.89309 0.47966 0.0
H1259 H 0.89849 0.88759 0.59845 0.0
H1260 H 0.91592 0.93155 0.7203 0.0
C1261 C 0.92868 0.90113 0.94296 0.0
C1262 C 0.92028 0.88489 0.77683 0.0
C1263 C 0.92535 0.89906 0.0111 0.0
C1264 C 0.90213 0.90189 0.50883 0.0
C1265 C 0.90442 0.89865 0.57673 0.0
C1266 C 0.91753 0.9185 0.73502 0.0
C1267 C 0.91814 0.89365 0.8956 0.0
C1268 C 0.91984 0.89777 0.8242 0.0
C1269 C 0.91427 0.90949 0.61583 0.0
C1270 C 0.91724 0.90557 0.68739 0.0
H1271 H 0.89059 0.87393 -0.00017 0.0
H1272 H 0.89644 0.87757 0.88105 0.0
H1273 H 0.91838 0.92472 0.83891 0.0
H1274 H 0.92452 0.93849 0.49624 0.0
H1275 H 0.92895 0.93259 0.61451 0.0
C1276 C 0.84058 0.16441 0.25294 0.0
C1277 C 0.85695 0.16503 0.27901 0.0
C1278 C 0.83796 0.16532 0.18431 0.0
C1279 C 0.85852 0.15225 0.03419 0.0
H1280 H 0.82325 0.17712 0.94303 0.0
C1281 C 0.84956 0.15071 0.74981 0.0
C1282 C 0.8331 0.15174 0.72449 0.0
C1283 C 0.85247 0.15212 0.81804 0.0
C1284 C 0.83298 0.16991 0.96809 0.0
H1285 H 0.88341 0.16781 0.25431 0.0
H1286 H 0.87882 0.16916 0.13349 0.0
H1287 H 0.82889 0.18257 0.06084 0.0
H1288 H 0.80669 0.15377 0.75117 0.0
H1289 H 0.81178 0.15574 0.87095 0.0
H1290 H 0.86231 0.13917 0.94264 0.0
C1291 C 0.86804 0.16807 0.16656 0.0
C1292 C 0.8363 0.17318 0.0351 0.0
C1293 C 0.87065 0.16732 0.23541 0.0
C1294 C 0.81952 0.15311 0.76916 0.0
C1295 C 0.82244 0.15439 0.83762 0.0
C1296 C 0.85509 0.14886 0.96748 0.0
C1297 C 0.85171 0.16661 0.14059 0.0
C1298 C 0.84909 0.16436 0.06854 0.0
C1299 C 0.83898 0.1544 0.86243 0.0
C1300 C 0.84227 0.15763 0.93379 0.0
H1301 H 0.8299 0.16199 0.28509 0.0
H1302 H 0.82528 0.16388 0.16531 0.0
H1303 H 0.8682 0.14503 0.05953 0.0
H1304 H 0.86032 0.14964 0.71679 0.0
H1305 H 0.86537 0.1522 0.83553 0.0
C1306 C 0.58311 0.07763 0.56994 0.0
C1307 C 0.59047 0.09143 0.60195 0.0
C1308 C 0.58659 0.07443 0.50323 0.0
C1309 C 0.61604 0.08632 0.36533 0.0
H1310 H 0.5819 0.0643 0.25895 0.0
C1311 C 0.59764 0.07868 0.07223 0.0
C1312 C 0.61397 0.07889 0.04565 0.0
C1313 C 0.59521 0.07689 0.14082 0.0
C1314 C 0.59155 0.07063 0.28751 0.0
H1315 H 0.60705 0.11286 0.59024 0.0
H1316 H 0.61208 0.10824 0.47114 0.0
H1317 H 0.57619 0.07036 0.37458 0.0
H1318 H 0.64043 0.07555 0.06776 0.0
H1319 H 0.63616 0.07114 0.18732 0.0
H1320 H 0.6307 0.08815 0.27643 0.0
C1321 C 0.60419 0.09938 0.49818 0.0
C1322 C 0.58839 0.07384 0.35465 0.0
C1323 C 0.60116 0.10223 0.56601 0.0
C1324 C 0.62773 0.07568 0.0876 0.0
C1325 C 0.62526 0.07336 0.15609 0.0
C1326 C 0.61897 0.08363 0.29754 0.0
C1327 C 0.59709 0.0853 0.46611 0.0
C1328 C 0.60056 0.0818 0.39452 0.0
C1329 C 0.60905 0.07479 0.18399 0.0
C1330 C 0.60669 0.07589 0.25752 0.0
H1331 H 0.57518 0.06884 0.59733 0.0
H1332 H 0.5813 0.06317 0.48153 0.0
H1333 H 0.62592 0.09208 0.39449 0.0
H1334 H 0.58683 0.08124 0.04079 0.0
H1335 H 0.58253 0.07828 0.15989 0.0
C1336 C 0.32819 0.16373 0.70497 0.0
C1337 C 0.32894 0.14738 0.7321 0.0
C1338 C 0.32727 0.16607 0.63586 0.0
C1339 C 0.3422 0.14391 0.48967 0.0
H1340 H 0.32048 0.17987 0.39009 0.0
C1341 C 0.34667 0.15148 0.20335 0.0
C1342 C 0.34739 0.16798 0.17751 0.0
C1343 C 0.34455 0.14873 0.27177 0.0
C1344 C 0.32677 0.16989 0.41758 0.0
H1345 H 0.32706 0.12074 0.70988 0.0
H1346 H 0.32516 0.12485 0.58939 0.0
H1347 H 0.31325 0.1753 0.50762 0.0
H1348 H 0.34806 0.19448 0.20348 0.0
H1349 H 0.34469 0.18963 0.32302 0.0
H1350 H 0.35592 0.13864 0.40027 0.0
C1351 C 0.32584 0.13582 0.62113 0.0
C1352 C 0.32253 0.16722 0.48453 0.0
C1353 C 0.32686 0.13348 0.68998 0.0
C1354 C 0.34731 0.18162 0.2218 0.0
C1355 C 0.34523 0.17887 0.29015 0.0
C1356 C 0.34645 0.14659 0.4229 0.0
C1357 C 0.32699 0.15207 0.59334 0.0
C1358 C 0.33026 0.15423 0.52117 0.0
C1359 C 0.34322 0.16244 0.3154 0.0
C1360 C 0.33885 0.15966 0.38636 0.0
H1361 H 0.32977 0.17466 0.73639 0.0
H1362 H 0.32815 0.17875 0.61569 0.0
H1363 H 0.34866 0.13404 0.51719 0.0
H1364 H 0.34672 0.14069 0.17054 0.0
H1365 H 0.34305 0.13592 0.28995 0.0
C1366 C 0.096 0.09348 -0.00324 0.0
C1367 C 0.07954 0.09312 0.97121 0.0
C1368 C 0.09875 0.0919 0.06516 0.0
C1369 C 0.07824 0.07466 0.21534 0.0
H1370 H 0.11434 0.09784 0.30685 0.0
C1371 C 0.0857 0.07981 0.50015 0.0
C1372 C 0.10203 0.07876 0.52626 0.0
C1373 C 0.08306 0.07873 0.43161 0.0
C1374 C 0.1044 0.09108 0.2815 0.0
H1375 H 0.05302 0.09227 -0.00252 0.0
H1376 H 0.05786 0.09003 0.11743 0.0
H1377 H 0.10893 0.10419 0.1896 0.0
H1378 H 0.12836 0.07488 0.50233 0.0
H1379 H 0.12378 0.0732 0.3817 0.0
H1380 H 0.07341 0.06199 0.30847 0.0
C1381 C 0.06862 0.09094 0.08425 0.0
C1382 C 0.10125 0.09476 0.21459 0.0
C1383 C 0.06586 0.09238 0.01568 0.0
C1384 C 0.11564 0.07573 0.48321 0.0
C1385 C 0.11303 0.07478 0.41451 0.0
C1386 C 0.08128 0.07111 0.28256 0.0
C1387 C 0.0851 0.09015 0.10936 0.0
C1388 C 0.08813 0.08661 0.18087 0.0
C1389 C 0.09679 0.07684 0.38821 0.0
C1390 C 0.09439 0.0793 0.31601 0.0
H1391 H 0.10682 0.09407 0.96383 0.0
H1392 H 0.1116 0.09125 0.08294 0.0
H1393 H 0.06824 0.06793 0.19025 0.0
H1394 H 0.07513 0.0828 0.532 0.0
H1395 H 0.07046 0.08061 0.4123 0.0
C1396 C 0.17172 0.84146 0.25805 0.0
C1397 C 0.17207 0.858 0.28216 0.0
C1398 C 0.17206 0.83846 0.18966 0.0
C1399 C 0.15753 0.85761 0.03738 0.0
H1400 H 0.18389 0.82325 0.94889 0.0
C1401 C 0.15728 0.84901 0.75324 0.0
C1402 C 0.15931 0.83272 0.72749 0.0
C1403 C 0.15815 0.85173 0.8217 0.0
C1404 C 0.17624 0.83269 0.9732 0.0
H1405 H 0.17356 0.88441 0.25408 0.0
H1406 H 0.17398 0.87913 0.13369 0.0
H1407 H 0.18905 0.82933 0.06654 0.0
H1408 H 0.16261 0.80633 0.75365 0.0
H1409 H 0.16365 0.81106 0.87387 0.0
H1410 H 0.14435 0.8607 0.94519 0.0
C1411 C 0.17356 0.86852 0.1681 0.0
C1412 C 0.17934 0.83627 0.04016 0.0
C1413 C 0.17338 0.87152 0.23671 0.0
C1414 C 0.16115 0.81905 0.77195 0.0
C1415 C 0.1619 0.82178 0.8407 0.0
C1416 C 0.15429 0.8539 0.97074 0.0
C1417 C 0.17249 0.85198 0.14421 0.0
C1418 C 0.17005 0.84882 0.07255 0.0
C1419 C 0.1609 0.83821 0.86604 0.0
C1420 C 0.16366 0.84146 0.93785 0.0
H1421 H 0.16999 0.83089 0.29174 0.0
H1422 H 0.17092 0.82561 0.17233 0.0
H1423 H 0.14995 0.86708 0.06191 0.0
H1424 H 0.15581 0.85983 0.72045 0.0
H1425 H 0.15747 0.86456 0.83947 0.0
C1426 C 0.42202 0.9179 0.49141 0.0
C1427 C 0.40875 0.91409 0.44766 0.0
C1428 C 0.41914 0.91878 0.56005 0.0
C1429 C 0.38921 0.9072 0.69334 0.0
H1430 H 0.40664 0.94707 0.78044 0.0
C1431 C 0.36879 0.92284 0.95752 0.0
C1432 C 0.38209 0.9256 0.00228 0.0
C1433 C 0.37159 0.92361 0.88887 0.0
C1434 C 0.40177 0.93586 0.75676 0.0
H1435 H 0.38235 0.90712 0.44196 0.0
H1436 H 0.37737 0.9087 0.56156 0.0
H1437 H 0.41339 0.94201 0.66311 0.0
H1438 H 0.40835 0.93286 0.01043 0.0
H1439 H 0.41326 0.93408 0.89033 0.0
H1440 H 0.37764 0.90099 0.78672 0.0
C1441 C 0.38997 0.911 0.54283 0.0
C1442 C 0.4057 0.9329 0.68989 0.0
C1443 C 0.39283 0.91014 0.47425 0.0
C1444 C 0.39786 0.93063 0.97718 0.0
C1445 C 0.40068 0.93134 0.90836 0.0
C1446 C 0.38528 0.91016 0.76003 0.0
C1447 C 0.40298 0.9158 0.58611 0.0
C1448 C 0.39943 0.91855 0.65762 0.0
C1449 C 0.38775 0.92709 0.86379 0.0
C1450 C 0.39146 0.92454 0.79229 0.0
H1451 H 0.43446 0.9209 0.47256 0.0
H1452 H 0.42946 0.92218 0.59259 0.0
H1453 H 0.38439 0.89593 0.66989 0.0
H1454 H 0.3564 0.91924 0.97541 0.0
H1455 H 0.3613 0.92073 0.85541 0.0
C1456 C 0.23376 0.3011 0.44084 0.0
C1457 C 0.21838 0.29486 0.46546 0.0
C1458 C 0.24262 0.29221 0.39208 0.0
C1459 C 0.23496 0.26192 0.25851 0.0
H1460 H 0.28315 0.25453 0.26322 0.0
C1461 C 0.269 0.21456 0.08839 0.0
C1462 C 0.28518 0.21884 0.06564 0.0
C1463 C 0.26057 0.225 0.13319 0.0
C1464 C 0.26971 0.25673 0.26066 0.0
H1465 H 0.20083 0.27386 0.46186 0.0
H1466 H 0.21632 0.25843 0.37766 0.0
H1467 H 0.26968 0.2703 0.35272 0.0
H1468 H 0.30474 0.23797 0.06803 0.0
H1469 H 0.28992 0.25626 0.14501 0.0
H1470 H 0.23493 0.24834 0.16667 0.0
C1471 C 0.22132 0.27034 0.39467 0.0
C1472 C 0.26203 0.26571 0.31197 0.0
C1473 C 0.21251 0.27917 0.44319 0.0
C1474 C 0.29238 0.23418 0.08557 0.0
C1475 C 0.28394 0.24463 0.1299 0.0
C1476 C 0.24263 0.253 0.20711 0.0
C1477 C 0.2362 0.27698 0.36738 0.0
C1478 C 0.24456 0.26819 0.31174 0.0
C1479 C 0.26815 0.23995 0.15552 0.0
C1480 C 0.26006 0.25017 0.208 0.0
H1481 H 0.23859 0.31316 0.45704 0.0
H1482 H 0.25411 0.29756 0.3718 0.0
H1483 H 0.22148 0.26394 0.25658 0.0
H1484 H 0.26315 0.20281 0.07391 0.0
H1485 H 0.24844 0.22102 0.15242 0.0
C1486 C 0.5394 0.51051 0.25778 0.0
C1487 C 0.54536 0.52503 0.28975 0.0
C1488 C 0.52334 0.50425 0.2716 0.0
C1489 C 0.48223 0.51394 0.35319 0.0
H1490 H 0.48093 0.46547 0.37721 0.0
C1491 C 0.43454 0.47765 0.51842 0.0
C1492 C 0.43215 0.46041 0.50585 0.0
C1493 C 0.44444 0.4875 0.47524 0.0
C1494 C 0.48082 0.47897 0.36914 0.0
H1495 H 0.53893 0.54466 0.35984 0.0
H1496 H 0.51094 0.5334 0.38574 0.0
H1497 H 0.50644 0.47873 0.33734 0.0
H1498 H 0.43575 0.44076 0.43337 0.0
H1499 H 0.45227 0.45804 0.35617 0.0
H1500 H 0.45663 0.51406 0.38795 0.0
C1501 C 0.5186 0.52704 0.34895 0.0
C1502 C 0.49558 0.48663 0.34637 0.0
C1503 C 0.53468 0.53343 0.33453 0.0
C1504 C 0.43757 0.45393 0.44449 0.0
C1505 C 0.44723 0.46381 0.40081 0.0
C1506 C 0.46738 0.50623 0.37624 0.0
C1507 C 0.51285 0.51218 0.3185 0.0
C1508 C 0.49658 0.50422 0.33873 0.0
C1509 C 0.45188 0.48031 0.41833 0.0
C1510 C 0.46657 0.48864 0.3852 0.0
H1511 H 0.54721 0.50386 0.22228 0.0
H1512 H 0.51922 0.49301 0.24603 0.0
H1513 H 0.4825 0.52751 0.34717 0.0
H1514 H 0.43059 0.48301 0.56555 0.0
H1515 H 0.44765 0.50017 0.4903 0.0
C1516 C 0.30612 0.68372 0.72932 0.0
C1517 C 0.29786 0.67632 0.78446 0.0
C1518 C 0.29694 0.69213 0.67998 0.0
C1519 C 0.2538 0.70591 0.62944 0.0
H1520 H 0.27484 0.75003 0.63096 0.0
C1521 C 0.21559 0.76711 0.60627 0.0
C1522 C 0.22245 0.78074 0.56999 0.0
C1523 C 0.22514 0.75269 0.6189 0.0
C1524 C 0.26886 0.73779 0.6286 0.0
H1525 H 0.27344 0.66965 0.82554 0.0
H1526 H 0.25747 0.68481 0.7409 0.0
H1527 H 0.29072 0.72562 0.66705 0.0
H1528 H 0.24481 0.78991 0.51893 0.0
H1529 H 0.26146 0.7647 0.54072 0.0
H1530 H 0.23168 0.71837 0.5931 0.0
C1531 C 0.27101 0.68406 0.73523 0.0
C1532 C 0.27802 0.7237 0.64906 0.0
C1533 C 0.2802 0.67533 0.78399 0.0
C1534 C 0.2392 0.77973 0.54767 0.0
C1535 C 0.24873 0.76524 0.55998 0.0
C1536 C 0.24462 0.72005 0.60866 0.0
C1537 C 0.27939 0.69361 0.68579 0.0
C1538 C 0.27049 0.70765 0.65133 0.0
C1539 C 0.24176 0.7515 0.59528 0.0
C1540 C 0.25193 0.73621 0.60977 0.0
H1541 H 0.3197 0.68467 0.72793 0.0
H1542 H 0.30372 0.69892 0.64118 0.0
H1543 H 0.24768 0.69371 0.63023 0.0
H1544 H 0.20274 0.76749 0.62439 0.0
H1545 H 0.21951 0.74252 0.64766 0.0
C1546 C 0.02717 0.53855 0.1799 0.0
C1547 C 0.04342 0.53187 0.18835 0.0
C1548 C 0.016 0.53133 0.13516 0.0
C1549 C 0.01539 0.50699 0.98218 0.0
H1550 H 0.96785 0.50206 0.02269 0.0
C1551 C 0.9692 0.47027 0.81906 0.0
C1552 C 0.95265 0.47627 0.81231 0.0
C1553 C 0.98058 0.47843 0.86032 0.0
C1554 C 0.98104 0.50366 0.01035 0.0
H1555 H 0.06051 0.512 0.15881 0.0
H1556 H 0.04076 0.49921 0.07994 0.0
H1557 H 0.98707 0.51171 0.10914 0.0
H1558 H 0.93526 0.49604 0.84014 0.0
H1559 H 0.95534 0.51045 0.91299 0.0
H1560 H 0.00935 0.49884 0.88343 0.0
C1561 C 0.03684 0.51018 0.10779 0.0
C1562 C 0.99205 0.50904 0.05991 0.0
C1563 C 0.04806 0.51738 0.15316 0.0
C1564 C 0.94794 0.49115 0.84471 0.0
C1565 C 0.95936 0.49929 0.88661 0.0
C1566 C 0.00438 0.50161 0.93258 0.0
C1567 C 0.02082 0.51729 0.09775 0.0
C1568 C 0.00932 0.51072 0.0463 0.0
C1569 C 0.97565 0.49274 0.89588 0.0
C1570 C 0.98711 0.49984 0.94632 0.0
H1571 H 0.02317 0.54964 0.20682 0.0
H1572 H 0.0038 0.53716 0.12808 0.0
H1573 H 0.02861 0.50851 0.97004 0.0
H1574 H 0.97325 0.45892 0.794 0.0
H1575 H 0.993 0.47302 0.86684 0.0
C1576 C 0.79372 0.73337 0.57949 0.0
C1577 C 0.78628 0.71792 0.56243 0.0
C1578 C 0.7854 0.74452 0.6214 0.0
C1579 C 0.74424 0.75444 0.69739 0.0
H1580 H 0.77168 0.77213 0.84107 0.0
C1581 C 0.71513 0.78094 0.93515 0.0
C1582 C 0.72134 0.79639 0.95862 0.0
C1583 C 0.72349 0.77237 0.88474 0.0
C1584 C 0.76392 0.76748 0.80075 0.0
H1585 H 0.76393 0.70243 0.57294 0.0
H1586 H 0.74942 0.72187 0.64733 0.0
H1587 H 0.78483 0.7557 0.75282 0.0
H1588 H 0.74162 0.81459 0.94949 0.0
H1589 H 0.75639 0.7994 0.861 0.0
H1590 H 0.72328 0.76592 0.74633 0.0
C1591 C 0.76165 0.72539 0.62769 0.0
C1592 C 0.77142 0.7581 0.75015 0.0
C1593 C 0.76997 0.71424 0.58528 0.0
C1594 C 0.73654 0.80271 0.93249 0.0
C1595 C 0.74496 0.79406 0.88187 0.0
C1596 C 0.73674 0.76377 0.74809 0.0
C1597 C 0.76949 0.74045 0.64746 0.0
C1598 C 0.76162 0.75133 0.69837 0.0
C1599 C 0.73828 0.77899 0.85666 0.0
C1600 C 0.74648 0.77016 0.80071 0.0
H1601 H 0.80619 0.7367 0.56172 0.0
H1602 H 0.79158 0.7562 0.63452 0.0
H1603 H 0.73642 0.74961 0.6576 0.0
H1604 H 0.70356 0.77558 0.95469 0.0
H1605 H 0.7183 0.76057 0.86735 0.0
C1606 C 0.73646 0.28128 0.07542 0.0
C1607 C 0.71913 0.2829 0.08813 0.0
C1608 C 0.74485 0.26627 0.09151 0.0
C1609 C 0.74119 0.22881 0.20027 0.0
H1610 H 0.77528 0.21017 0.08333 0.0
C1611 C 0.7789 0.17465 0.29787 0.0
C1612 C 0.79597 0.17923 0.29913 0.0
C1613 C 0.76801 0.18234 0.2521 0.0
C1614 C 0.76568 0.21515 0.11618 0.0
H1615 H 0.69713 0.2701 0.12889 0.0
H1616 H 0.71165 0.24417 0.15612 0.0
H1617 H 0.75971 0.23534 0.04835 0.0
H1618 H 0.81557 0.19289 0.24561 0.0
H1619 H 0.79672 0.20632 0.16705 0.0
H1620 H 0.74746 0.20925 0.26928 0.0
C1621 C 0.71883 0.25445 0.13426 0.0
C1622 C 0.75689 0.22963 0.09645 0.0
C1623 C 0.7105 0.26936 0.11845 0.0
C1624 C 0.8024 0.18935 0.24693 0.0
C1625 C 0.79154 0.19705 0.20139 0.0
C1626 C 0.74993 0.2144 0.21991 0.0
C1627 C 0.73606 0.25267 0.1207 0.0
C1628 C 0.74479 0.23679 0.13898 0.0
C1629 C 0.77408 0.19469 0.20722 0.0
C1630 C 0.76255 0.2076 0.17887 0.0
H1631 H 0.74346 0.29143 0.05179 0.0
H1632 H 0.75822 0.26535 0.08144 0.0
H1633 H 0.73211 0.2341 0.23461 0.0
H1634 H 0.77359 0.16662 0.33658 0.0
H1635 H 0.75464 0.17986 0.25623 0.0
C1636 C 0.02302 0.01477 0.79402 0.0
C1637 C 0.02511 0.03112 0.81909 0.0
C1638 C 0.00842 0.00558 0.80833 0.0
C1639 C 0.96447 0.01059 0.87137 0.0
H1640 H 0.96886 0.96309 0.91378 0.0
C1641 C 0.92253 0.97298 0.05115 0.0
C1642 C 0.92224 0.95537 0.04473 0.0
C1643 C 0.93051 0.98294 0.00254 0.0
C1644 C 0.96725 0.97624 0.90038 0.0
H1645 H 0.01372 0.05044 0.88044 0.0
H1646 H 0.98862 0.03419 0.9075 0.0
H1647 H 0.99324 0.97869 0.87499 0.0
H1648 H 0.92691 0.93481 0.97726 0.0
H1649 H 0.94045 0.95213 0.89159 0.0
H1650 H 0.93858 0.00818 0.90076 0.0
C1651 C 0.99797 0.02865 0.87493 0.0
C1652 C 0.98132 0.98524 0.87831 0.0
C1653 C 0.01248 0.0379 0.8601 0.0
C1654 C 0.92734 0.94827 0.98397 0.0
C1655 C 0.93519 0.9582 0.93518 0.0
C1656 C 0.95039 0.00159 0.89401 0.0
C1657 C 0.99565 0.01245 0.8486 0.0
C1658 C 0.98022 0.00261 0.86511 0.0
C1659 C 0.93809 0.9754 0.94669 0.0
C1660 C 0.95173 0.98439 0.91019 0.0
H1661 H 0.03242 0.00926 0.76157 0.0
H1662 H 0.00701 0.9932 0.78671 0.0
H1663 H 0.96309 0.02389 0.86015 0.0
H1664 H 0.91862 0.97887 0.09732 0.0
H1665 H 0.9324 0.99618 0.01273 0.0
C1666 C 0.46996 0.97376 0.33234 0.0
C1667 C 0.45311 0.97901 0.32798 0.0
C1668 C 0.48089 0.9813 0.3772 0.0
C1669 C 0.48766 0.01779 0.48463 0.0
H1670 H 0.51292 0.98567 0.59229 0.0
C1671 C 0.5252 0.03894 0.71186 0.0
C1672 C 0.54173 0.0328 0.71727 0.0
C1673 C 0.51394 0.03174 0.66734 0.0
C1674 C 0.50608 0.99478 0.56224 0.0
H1675 H 0.43473 0.997 0.3635 0.0
H1676 H 0.454 0.0103 0.44291 0.0
H1677 H 0.49439 0.97558 0.50426 0.0
H1678 H 0.55922 0.01377 0.68337 0.0
H1679 H 0.53948 1.00117 0.6043 0.0
H1680 H 0.49944 0.037 0.54228 0.0
C1681 C 0.45867 1.00031 0.41136 0.0
C1682 C 0.49549 0.98903 0.51187 0.0
C1683 C 0.44767 0.99275 0.36598 0.0
C1684 C 0.54653 0.01868 0.68017 0.0
C1685 C 0.53524 0.01151 0.635 0.0
C1686 C 0.49829 0.02355 0.53492 0.0
C1687 C 0.4752 0.99422 0.41885 0.0
C1688 C 0.48625 1.00049 0.47242 0.0
C1689 C 0.519 0.01832 0.62688 0.0
C1690 C 0.5076 0.0121 0.57421 0.0
H1691 H 0.47457 0.96338 0.30266 0.0
H1692 H 0.49369 0.97669 0.38069 0.0
H1693 H 0.4808 0.02687 0.45454 0.0
H1694 H 0.52109 0.04966 0.7408 0.0
H1695 H 0.50138 0.03694 0.6635 0.0
C1696 C 0.15354 0.54033 0.33916 0.0
C1697 C 0.14171 0.54126 0.28746 0.0
C1698 C 0.16314 0.52567 0.34802 0.0
C1699 C 0.16745 0.48094 0.28395 0.0
H1700 H 0.16164 0.47073 0.47229 0.0
C1701 C 0.14558 0.41659 0.39485 0.0
C1702 C 0.15196 0.41186 0.45771 0.0
C1703 C 0.15062 0.43185 0.36481 0.0
C1704 C 0.16366 0.47334 0.41963 0.0
H1705 H 0.13235 0.52901 0.19893 0.0
H1706 H 0.14852 0.50357 0.21449 0.0
H1707 H 0.16133 0.49967 0.435 0.0
H1708 H 0.16998 0.41841 0.53476 0.0
H1709 H 0.17872 0.44475 0.48249 0.0
H1710 H 0.16838 0.45416 0.26917 0.0
C1711 C 0.1508 0.51385 0.24844 0.0
C1712 C 0.16364 0.49008 0.39799 0.0
C1713 C 0.14149 0.52857 0.2391 0.0
C1714 C 0.16449 0.42191 0.48707 0.0
C1715 C 0.16955 0.437 0.45711 0.0
C1716 C 0.16718 0.46409 0.30566 0.0
C1717 C 0.16068 0.51163 0.30618 0.0
C1718 C 0.16497 0.49419 0.32955 0.0
C1719 C 0.16218 0.4425 0.39708 0.0
C1720 C 0.16484 0.46013 0.37361 0.0
H1721 H 0.15389 0.54995 0.37724 0.0
H1722 H 0.17119 0.52474 0.3915 0.0
H1723 H 0.16889 0.48352 0.23102 0.0
H1724 H 0.13599 0.40906 0.37089 0.0
H1725 H 0.14469 0.43578 0.31854 0.0
C1726 C 0.32628 0.378 0.63763 0.0
C1727 C 0.33308 0.37945 0.70218 0.0
C1728 C 0.30977 0.38315 0.62457 0.0
C1729 C 0.26909 0.39189 0.70513 0.0
H1730 H 0.25994 0.41623 0.54014 0.0
C1731 C 0.2022 0.39906 0.63599 0.0
C1732 C 0.19995 0.39062 0.57541 0.0
C1733 C 0.21777 0.40639 0.65048 0.0
C1734 C 0.2623 0.40959 0.5867 0.0
H1735 H 0.32747 0.38662 0.80436 0.0
H1736 H 0.29872 0.39542 0.78157 0.0
H1737 H 0.2889 0.40879 0.56895 0.0
H1738 H 0.21038 0.38645 0.4772 0.0
H1739 H 0.23737 0.39909 0.50168 0.0
H1740 H 0.24263 0.39183 0.7218 0.0
C1741 C 0.30618 0.3904 0.74097 0.0
C1742 C 0.27887 0.4052 0.60291 0.0
C1743 C 0.32267 0.3853 0.75402 0.0
C1744 C 0.2119 0.39285 0.52445 0.0
C1745 C 0.22752 0.4 0.53898 0.0
C1746 C 0.25258 0.39622 0.6889 0.0
C1747 C 0.29967 0.38977 0.67579 0.0
C1748 C 0.28236 0.39586 0.66138 0.0
C1749 C 0.23114 0.4052 0.60447 0.0
C1750 C 0.24887 0.40468 0.62848 0.0
H1751 H 0.33392 0.37359 0.59643 0.0
H1752 H 0.30498 0.38212 0.57412 0.0
H1753 H 0.27133 0.38463 0.75034 0.0
H1754 H 0.19308 0.39757 0.67598 0.0
H1755 H 0.21996 0.41094 0.70061 0.0
C1756 C 0.38972 0.57862 0.90711 0.0
C1757 C 0.38076 0.5825 0.96576 0.0
C1758 C 0.38949 0.56231 0.88145 0.0
C1759 C 0.37949 0.51788 0.92299 0.0
H1760 H 0.37222 0.51424 0.73188 0.0
C1761 C 0.36579 0.4539 0.8051 0.0
C1762 C 0.37553 0.4499 0.74858 0.0
C1763 C 0.36495 0.47044 0.82796 0.0
C1764 C 0.37436 0.51504 0.78522 0.0
H1765 H 0.36528 0.57192 0.04525 0.0
H1766 H 0.36489 0.54351 0.00043 0.0
H1767 H 0.37525 0.54198 0.78206 0.0
H1768 H 0.39035 0.46053 0.66747 0.0
H1769 H 0.38913 0.48938 0.70794 0.0
H1770 H 0.37868 0.49097 0.92622 0.0
C1771 C 0.37212 0.5531 0.97435 0.0
C1772 C 0.37617 0.53093 0.81398 0.0
C1773 C 0.37234 0.56943 5e-05 0.0
C1774 C 0.38305 0.46311 0.71194 0.0
C1775 C 0.38227 0.47968 0.73498 0.0
C1776 C 0.37768 0.50201 0.89426 0.0
C1777 C 0.38033 0.54946 0.91384 0.0
C1778 C 0.37877 0.53254 0.88321 0.0
C1779 C 0.37376 0.4834 0.79477 0.0
C1780 C 0.37507 0.50039 0.82505 0.0
H1781 H 0.39644 0.58832 0.87952 0.0
H1782 H 0.39625 0.55983 0.83552 0.0
H1783 H 0.38169 0.51866 0.97629 0.0
H1784 H 0.35961 0.44413 0.83427 0.0
H1785 H 0.35789 0.47298 0.87314 0.0
C1786 C 0.17079 0.61209 0.13763 0.0
C1787 C 0.16727 0.60141 0.19232 0.0
C1788 C 0.18653 0.61147 0.10585 0.0
C1789 C 0.23008 0.59959 0.14747 0.0
H1790 H 0.23918 0.60938 0.96067 0.0
C1791 C 0.29802 0.60365 0.05411 0.0
C1792 C 0.30196 0.61787 0.01463 0.0
C1793 C 0.28127 0.599 0.06525 0.0
C1794 C 0.23683 0.60668 0.01302 0.0
H1795 H 0.17678 0.58063 0.2523 0.0
H1796 H 0.20388 0.57922 0.1959 0.0
H1797 H 0.21006 0.60588 -0.00121 0.0
H1798 H 0.29132 0.6373 0.95069 0.0
H1799 H 0.26212 0.62952 0.97165 0.0
H1800 H 0.25663 0.60079 0.16252 0.0
C1801 C 0.19482 0.5885 0.17895 0.0
C1802 C 0.22015 0.60468 0.03485 0.0
C1803 C 0.17923 0.58924 0.21107 0.0
C1804 C 0.28876 0.62653 0.98256 0.0
C1805 C 0.27198 0.62194 -0.00596 0.0
C1806 C 0.24666 0.60156 0.12576 0.0
C1807 C 0.19895 0.60006 0.12782 0.0
C1808 C 0.21658 0.60119 0.10251 0.0
C1809 C 0.26802 0.60847 0.0374 0.0
C1810 C 0.25029 0.60523 0.05839 0.0
H1811 H 0.16182 0.62162 0.1221 0.0
H1812 H 0.18928 0.62059 0.06674 0.0
H1813 H 0.22785 0.59735 0.20023 0.0
H1814 H 0.30782 0.59648 0.07886 0.0
H1815 H 0.27869 0.58828 0.09753 0.0
C1816 C 0.8407 0.46317 0.6923 0.0
C1817 C 0.85378 0.46286 0.7391 0.0
C1818 C 0.82997 0.47717 0.68861 0.0
C1819 C 0.82479 0.52127 0.75774 0.0
H1820 H 0.82728 0.53264 0.5693 0.0
C1821 C 0.84728 0.58504 0.64956 0.0
C1822 C 0.84086 0.59033 0.58749 0.0
C1823 C 0.84145 0.57007 0.67937 0.0
C1824 C 0.82611 0.52972 0.62211 0.0
H1825 H 0.86456 0.47535 0.82446 0.0
H1826 H 0.84644 0.49968 0.81766 0.0
H1827 H 0.8284 0.50353 0.60357 0.0
H1828 H 0.82196 0.58529 0.51198 0.0
H1829 H 0.81181 0.5594 0.56406 0.0
H1830 H 0.82404 0.54792 0.77544 0.0
C1831 C 0.84399 0.4894 0.78387 0.0
C1832 C 0.82663 0.51286 0.64204 0.0
C1833 C 0.85447 0.47537 0.788 0.0
C1834 C 0.82747 0.58129 0.55904 0.0
C1835 C 0.8216 0.56648 0.5889 0.0
C1836 C 0.82455 0.53823 0.73769 0.0
C1837 C 0.83255 0.49114 0.73062 0.0
C1838 C 0.82679 0.50837 0.71029 0.0
C1839 C 0.82904 0.56028 0.64775 0.0
C1840 C 0.82586 0.54262 0.66971 0.0
H1841 H 0.83997 0.45363 0.654 0.0
H1842 H 0.82083 0.47774 0.64857 0.0
H1843 H 0.82441 0.51835 0.81069 0.0
H1844 H 0.85752 0.59182 0.67278 0.0
H1845 H 0.84749 0.56558 0.72464 0.0
C1846 C 0.66242 0.60082 0.44471 0.0
C1847 C 0.65709 0.592 0.38795 0.0
C1848 C 0.67896 0.5989 0.46844 0.0
C1849 C 0.72031 0.59008 0.39741 0.0
H1850 H 0.73625 0.59265 0.57988 0.0
C1851 C 0.78909 0.60658 0.44125 0.0
C1852 C 0.79123 0.61944 0.48803 0.0
C1853 C 0.77422 0.59702 0.44109 0.0
C1854 C 0.73205 0.59198 0.52853 0.0
H1855 H 0.66418 0.57291 0.31631 0.0
H1856 H 0.69275 0.56947 0.35799 0.0
H1857 H 0.70628 0.5883 0.55826 0.0
H1858 H 0.78043 0.63145 0.57461 0.0
H1859 H 0.75463 0.61521 0.5742 0.0
H1860 H 0.74557 0.59487 0.36685 0.0
C1861 C 0.68442 0.57816 0.38319 0.0
C1862 C 0.71485 0.58945 0.51629 0.0
C1863 C 0.66802 0.5801 0.35949 0.0
C1864 C 0.77915 0.6214 0.53863 0.0
C1865 C 0.76427 0.61204 0.53813 0.0
C1866 C 0.7374 0.59284 0.40952 0.0
C1867 C 0.69035 0.58811 0.43588 0.0
C1868 C 0.70874 0.58879 0.45049 0.0
C1869 C 0.76111 0.60042 0.48691 0.0
C1870 C 0.74353 0.59425 0.47522 0.0
H1871 H 0.6543 0.6101 0.46754 0.0
H1872 H 0.68315 0.60676 0.50915 0.0
H1873 H 0.71603 0.5899 0.34603 0.0
H1874 H 0.79814 0.605 0.40119 0.0
H1875 H 0.77252 0.58782 0.40204 0.0
C1876 C 0.6393 0.53676 0.32037 0.0
C1877 C 0.63761 0.54399 0.25641 0.0
C1878 C 0.64839 0.52177 0.32888 0.0
C1879 C 0.6749 0.48978 0.24345 0.0
H1880 H 0.6391 0.45893 0.29369 0.0
C1881 C 0.66567 0.4272 0.11298 0.0
C1882 C 0.65655 0.41392 0.14285 0.0
C1883 C 0.66867 0.44209 0.14737 0.0
C1884 C 0.64954 0.46716 0.28127 0.0
H1885 H 0.646 0.54286 0.15369 0.0
H1886 H 0.66248 0.51727 0.16891 0.0
H1887 H 0.63665 0.48854 0.32068 0.0
H1888 H 0.64468 0.40542 0.2348 0.0
H1889 H 0.65022 0.43144 0.29579 0.0
H1890 H 0.68757 0.4685 0.20211 0.0
C1891 C 0.65662 0.52284 0.21236 0.0
C1892 C 0.64811 0.48424 0.29685 0.0
C1893 C 0.64725 0.53759 0.20359 0.0
C1894 C 0.65157 0.41546 0.21001 0.0
C1895 C 0.65467 0.43044 0.2448 0.0
C1896 C 0.67647 0.47264 0.22885 0.0
C1897 C 0.65621 0.51411 0.27381 0.0
C1898 C 0.66037 0.49586 0.27516 0.0
C1899 C 0.66279 0.44418 0.21313 0.0
C1900 C 0.66336 0.46124 0.24419 0.0
H1901 H 0.63183 0.54136 0.36174 0.0
H1902 H 0.648 0.51538 0.37693 0.0
H1903 H 0.68461 0.49844 0.22665 0.0
H1904 H 0.66993 0.42642 0.06162 0.0
H1905 H 0.67475 0.45231 0.12052 0.0
C1906 C 0.72615 0.38505 0.07678 0.0
C1907 C 0.71146 0.38636 0.03845 0.0
C1908 C 0.73889 0.397 0.07008 0.0
C1909 C 0.75494 0.42038 0.92849 0.0
H1910 H 0.79359 0.42422 0.04546 0.0
C1911 C 0.82042 0.42384 0.8154 0.0
C1912 C 0.83123 0.41135 0.84111 0.0
C1913 C 0.80613 0.42872 0.85091 0.0
C1914 C 0.78288 0.42339 0.01222 0.0
H1915 H 0.69737 0.40218 0.97009 0.0
H1916 H 0.71969 0.42337 0.9584 0.0
H1917 H 0.76552 0.42041 0.09354 0.0
H1918 H 0.83633 0.39523 0.92663 0.0
H1919 H 0.81104 0.40334 0.98794 0.0
H1920 H 0.77222 0.42233 0.84726 0.0
C1921 C 0.72151 0.41295 0.99296 0.0
C1922 C 0.76679 0.42127 0.0397 0.0
C1923 C 0.70867 0.40094 1e-05 0.0
C1924 C 0.82814 0.40477 0.90533 0.0
C1925 C 0.81371 0.40955 0.94068 0.0
C1926 C 0.77095 0.42261 0.90115 0.0
C1927 C 0.73723 0.41042 0.02421 0.0
C1928 C 0.75277 0.41868 -0.00199 0.0
C1929 C 0.80222 0.42112 0.91268 0.0
C1930 C 0.78521 0.42321 0.94257 0.0
H1931 H 0.72848 0.3739 0.10703 0.0
H1932 H 0.75071 0.39451 0.09509 0.0
H1933 H 0.74456 0.41831 0.89451 0.0
H1934 H 0.82271 0.42949 0.76672 0.0
H1935 H 0.79775 0.43794 0.8286 0.0
C1936 C 0.66489 0.92142 0.00068 0.0
C1937 C 0.65226 0.91106 0.97384 0.0
C1938 C 0.6691 0.9367 0.97012 0.0
C1939 C 0.66438 0.96383 0.82009 0.0
H1940 H 0.65946 0.99922 0.95087 0.0
C1941 C 0.63927 0.0291 0.75677 0.0
C1942 C 0.6402 0.04181 0.80492 0.0
C1943 C 0.64807 0.01403 0.76557 0.0
C1944 C 0.66147 0.98969 0.91338 0.0
H1945 H 0.63517 0.90794 0.89063 0.0
H1946 H 0.64242 0.93498 0.83713 0.0
H1947 H 0.66027 0.97023 0.98752 0.0
H1948 H 0.65296 0.04997 0.89422 0.0
H1949 H 0.66944 0.02417 0.90728 0.0
H1950 H 0.66537 0.98337 0.74567 0.0
C1951 C 0.64907 0.93114 0.88196 0.0
C1952 C 0.66178 0.97292 0.93465 0.0
C1953 C 0.64487 0.91571 0.91264 0.0
C1954 C 0.65212 0.04038 0.85615 0.0
C1955 C 0.66123 0.02538 0.86437 0.0
C1956 C 0.66436 0.98072 0.79869 0.0
C1957 C 0.66077 0.94207 0.91193 0.0
C1958 C 0.66273 0.95977 0.88826 0.0
C1959 C 0.65816 0.01147 0.82253 0.0
C1960 C 0.66229 0.9939 0.84491 0.0
H1961 H 0.67114 0.91802 0.04697 0.0
H1962 H 0.67839 0.94468 -0.00635 0.0
H1963 H 0.66534 0.95395 0.78328 0.0
H1964 H 0.63 0.02988 0.71716 0.0
H1965 H 0.64531 0.00384 0.73175 0.0
C1966 C 0.82444 0.87553 0.19052 0.0
C1967 C 0.83095 0.87666 0.25569 0.0
C1968 C 0.80832 0.8815 0.1759 0.0
C1969 C 0.76735 0.89154 0.24807 0.0
H1970 H 0.76209 0.91819 0.0859 0.0
C1971 C 0.70248 0.89901 0.15308 0.0
C1972 C 0.70217 0.89144 0.09003 0.0
C1973 C 0.71737 0.90635 0.17614 0.0
C1974 C 0.76333 0.91089 0.13162 0.0
H1975 H 0.82505 0.88395 0.35746 0.0
H1976 H 0.79672 0.89396 0.33196 0.0
H1977 H 0.79018 0.90969 0.12234 0.0
H1978 H 0.71528 0.88919 -0.00408 0.0
H1979 H 0.74102 0.90196 0.03484 0.0
H1980 H 0.74061 0.89165 0.25556 0.0
C1981 C 0.80426 0.8887 0.29212 0.0
C1982 C 0.77941 0.90594 0.15225 0.0
C1983 C 0.82047 0.88287 0.30672 0.0
C1984 C 0.71532 0.89484 0.04506 0.0
C1985 C 0.73024 0.90205 0.06801 0.0
C1986 C 0.75127 0.89633 0.22716 0.0
C1987 C 0.79825 0.88857 0.22616 0.0
C1988 C 0.7815 0.8957 0.20933 0.0
C1989 C 0.73195 0.90617 0.13597 0.0
C1990 C 0.74898 0.90552 0.16718 0.0
H1991 H 0.8321 0.87085 0.14987 0.0
H1992 H 0.80382 0.88084 0.1249 0.0
H1993 H 0.76857 0.88367 0.29229 0.0
H1994 H 0.69238 0.89668 0.1885 0.0
H1995 H 0.71806 0.9101 0.22799 0.0
C1996 C 0.87825 0.95912 0.25329 0.0
C1997 C 0.87245 0.94654 0.29758 0.0
C1998 C 0.87771 0.97607 0.27132 0.0
C1999 C 0.87847 1.00129 0.42379 0.0
H2000 H 0.87054 0.03897 0.30337 0.0
C2001 C 0.87468 0.07014 0.51251 0.0
C2002 C 0.88125 0.08284 0.47049 0.0
C2003 C 0.87419 0.05342 0.4915 0.0
C2004 C 0.87302 0.02856 0.33734 0.0
H2005 H 0.85993 0.94206 0.39268 0.0
H2006 H 0.85863 0.97164 0.4233 0.0
H2007 H 0.86638 0.01025 0.26388 0.0
H2008 H 0.89335 0.0877 0.37478 0.0
H2009 H 0.89269 0.05846 0.33868 0.0
H2010 H 0.8852 0.01954 0.49712 0.0
C2011 C 0.86408 0.96834 0.3755 0.0
C2012 C 0.87055 0.01213 0.3148 0.0
C2013 C 0.86464 0.95139 0.35751 0.0
C2014 C 0.88813 0.07827 0.40838 0.0
C2015 C 0.88761 0.06153 0.38734 0.0
C2016 C 0.88096 0.01769 0.44628 0.0
C2017 C 0.87124 0.98078 0.33386 0.0
C2018 C 0.8732 0.99831 0.35787 0.0
C2019 C 0.88026 0.049 0.42802 0.0
C2020 C 0.87824 0.03153 0.40337 0.0
H2021 H 0.88404 0.95578 0.20624 0.0
H2022 H 0.88328 0.98535 0.23796 0.0
H2023 H 0.88101 0.9909 0.45777 0.0
H2024 H 0.86929 0.07316 0.56069 0.0
H2025 H 0.86837 0.04409 0.52392 0.0
C2026 C 0.78909 0.12863 0.4934 0.0
C2027 C 0.80257 0.11882 0.51712 0.0
C2028 C 0.77244 0.12361 0.504 0.0
C2029 C 0.74772 0.09471 0.61562 0.0
H2030 H 0.71048 0.11559 0.52154 0.0
C2031 C 0.68468 0.10376 0.74556 0.0
C2032 C 0.66948 0.10466 0.70976 0.0
C2033 C 0.70004 0.10236 0.71261 0.0
C2034 C 0.72063 0.10933 0.54784 0.0
H2035 H 0.809 0.09488 0.56337 0.0
H2036 H 0.78008 0.08547 0.57742 0.0
H2037 H 0.73868 0.11764 0.47543 0.0
H2038 H 0.65862 0.10441 0.6105 0.0
H2039 H 0.68565 0.10132 0.55233 0.0
H2040 H 0.72962 0.08562 0.68597 0.0
C2041 C 0.78225 0.0977 0.5547 0.0
C2042 C 0.73699 0.1108 0.52197 0.0
C2043 C 0.79895 0.103 0.5459 0.0
C2044 C 0.67009 0.10378 0.6396 0.0
C2045 C 0.68561 0.1021 0.60632 0.0
C2046 C 0.73137 0.09285 0.64032 0.0
C2047 C 0.76868 0.10826 0.53661 0.0
C2048 C 0.75092 0.10414 0.557 0.0
C2049 C 0.70084 0.10147 0.64251 0.0
C2050 C 0.71766 0.10081 0.60868 0.0
H2051 H 0.7913 0.14062 0.46905 0.0
H2052 H 0.7626 0.13229 0.4893 0.0
H2053 H 0.75787 0.08937 0.64489 0.0
H2054 H 0.68484 0.10463 0.79957 0.0
H2055 H 0.71136 0.10251 0.74264 0.0
C2056 C 0.34867 0.08766 0.13307 0.0
C2057 C 0.3423 0.09231 0.07006 0.0
C2058 C 0.34366 0.07243 0.16336 0.0
C2059 C 0.33093 0.03078 0.10967 0.0
H2060 H 0.32624 0.02098 0.29882 0.0
C2061 C 0.34288 0.96432 0.19263 0.0
C2062 C 0.35487 0.96386 0.24387 0.0
C2063 C 0.33285 0.97868 0.18357 0.0
C2064 C 0.32752 0.02345 0.24575 0.0
H2065 H 0.32437 0.08557 0.99291 0.0
H2066 H 0.31575 0.05922 0.04559 0.0
H2067 H 0.32614 0.05024 0.2595 0.0
H2068 H 0.36415 0.97661 0.33134 0.0
H2069 H 0.34722 0.00156 0.31541 0.0
H2070 H 0.33374 0.00445 0.09532 0.0
C2071 C 0.32485 0.06707 0.07093 0.0
C2072 C 0.32743 0.04025 0.22335 0.0
C2073 C 0.32985 0.08217 0.04073 0.0
C2074 C 0.35488 0.97669 0.29161 0.0
C2075 C 0.34513 0.99111 0.28204 0.0
C2076 C 0.33131 0.01409 0.13199 0.0
C2077 C 0.33218 0.06169 0.13122 0.0
C2078 C 0.32962 0.04408 0.15521 0.0
C2079 C 0.33504 0.99289 0.22466 0.0
C2080 C 0.33022 0.01015 0.20065 0.0
H2081 H 0.3582 0.09525 0.15708 0.0
H2082 H 0.34959 0.06859 0.20977 0.0
H2083 H 0.33283 0.03329 0.05686 0.0
H2084 H 0.3427 0.95458 0.15501 0.0
H2085 H 0.32466 0.97926 0.1404 0.0
C2086 C 0.16952 0.08126 0.83661 0.0
C2087 C 0.15843 0.093 0.86522 0.0
C2088 C 0.1859 0.07939 0.86077 0.0
C2089 C 0.21584 0.09017 -0.00404 0.0
H2090 H 0.24696 0.09699 0.84869 0.0
C2091 C 0.27956 0.12277 0.02548 0.0
C2092 C 0.29178 0.12149 0.97505 0.0
C2093 C 0.26486 0.11315 0.02312 0.0
C2094 C 0.23868 0.09456 0.89072 0.0
H2095 H 0.15537 0.11082 0.9457 0.0
H2096 H 0.18412 0.10753 0.9882 0.0
H2097 H 0.21754 0.0918 0.82586 0.0
H2098 H 0.29917 0.10795 0.88656 0.0
H2099 H 0.2739 0.09028 0.88414 0.0
H2100 H 0.237 0.09313 0.06098 0.0
C2101 C 0.18008 0.09979 0.94689 0.0
C2102 C 0.22167 0.09168 0.87745 0.0
C2103 C 0.1636 0.10168 0.9226 0.0
C2104 C 0.29002 0.109 0.92652 0.0
C2105 C 0.27533 0.09916 0.92449 0.0
C2106 C 0.23298 0.09279 0.00935 0.0
C2107 C 0.19162 0.08918 0.91425 0.0
C2108 C 0.20995 0.08992 0.9298 0.0
C2109 C 0.26204 0.10193 0.97018 0.0
C2110 C 0.24459 0.09559 0.95689 0.0
H2111 H 0.16585 0.07415 0.79299 0.0
H2112 H 0.19436 0.07085 0.83542 0.0
H2113 H 0.20715 0.08864 0.03736 0.0
H2114 H 0.28055 0.13253 0.06284 0.0
H2115 H 0.25509 0.11583 0.05923 0.0
C2116 C 0.15075 0.91511 0.69181 0.0
C2117 C 0.15925 0.9109 0.63263 0.0
C2118 C 0.15311 0.93099 0.7206 0.0
C2119 C 0.16254 0.97356 0.66221 0.0
H2120 H 0.15808 0.9851 0.84914 0.0
C2121 C 0.14113 0.03956 0.72691 0.0
C2122 C 0.12718 0.0391 0.76987 0.0
C2123 C 0.15209 0.02572 0.72413 0.0
C2124 C 0.15939 0.98213 0.79667 0.0
H2125 H 0.1783 0.91918 0.56169 0.0
H2126 H 0.18251 0.94664 0.61219 0.0
H2127 H 0.16366 0.95592 0.818 0.0
H2128 H 0.11463 0.02496 0.84822 0.0
H2129 H 0.13338 1.001 0.8435 0.0
H2130 H 0.15708 0.99928 0.63996 0.0
C2131 C 0.1737 0.93795 0.63541 0.0
C2132 C 0.16259 0.96539 0.77893 0.0
C2133 C 0.1713 0.92218 0.60657 0.0
C2134 C 0.12541 0.0256 0.81499 0.0
C2135 C 0.13625 0.01182 0.8122 0.0
C2136 C 0.15916 0.9902 0.6798 0.0
C2137 C 0.16407 0.94285 0.69087 0.0
C2138 C 0.16366 0.96084 0.71135 0.0
C2139 C 0.14911 0.01122 0.76386 0.0
C2140 C 0.15689 0.99463 0.74716 0.0
H2141 H 0.14141 0.90668 0.7131 0.0
H2142 H 0.14545 0.93438 0.76325 0.0
H2143 H 0.16309 0.9705 0.60959 0.0
H2144 H 0.14264 0.04982 0.69129 0.0
H2145 H 0.16212 0.02588 0.6874 0.0
C2146 C 0.22634 0.88188 0.56866 0.0
C2147 C 0.21195 0.88333 0.52866 0.0
C2148 C 0.23896 0.89402 0.56516 0.0
C2149 C 0.25605 0.91875 0.42949 0.0
H2150 H 0.29321 0.92261 0.55382 0.0
C2151 C 0.32254 0.92382 0.32818 0.0
C2152 C 0.33327 0.91141 0.35492 0.0
C2153 C 0.30785 0.92839 0.36174 0.0
C2154 C 0.28293 0.92178 0.51855 0.0
H2155 H 0.19826 0.89944 0.46014 0.0
H2156 H 0.22042 0.92097 0.45386 0.0
H2157 H 0.26472 0.91788 0.59628 0.0
H2158 H 0.33783 0.89512 0.44037 0.0
H2159 H 0.31183 0.90263 0.49819 0.0
H2160 H 0.2742 0.92157 0.3517 0.0
C2161 C 0.22207 0.91032 0.48744 0.0
C2162 C 0.26659 0.91914 0.54283 0.0
C2163 C 0.20932 0.89811 0.49132 0.0
C2164 C 0.32971 0.90462 0.41839 0.0
C2165 C 0.31487 0.90905 0.45172 0.0
C2166 C 0.2723 0.92149 0.40533 0.0
C2167 C 0.23751 0.90778 0.52081 0.0
C2168 C 0.25313 0.91655 0.49835 0.0
C2169 C 0.30345 0.9205 0.42243 0.0
C2170 C 0.28606 0.9221 0.44938 0.0
H2171 H 0.22854 0.87055 0.59802 0.0
H2172 H 0.25059 0.89151 0.59158 0.0
H2173 H 0.24612 0.9167 0.39346 0.0
H2174 H 0.32519 0.92961 0.28004 0.0
H2175 H 0.29954 0.93754 0.33856 0.0
C2176 C 0.20868 0.30142 0.79246 0.0
C2177 C 0.19511 0.2965 0.75192 0.0
C2178 C 0.22171 0.29011 0.80631 0.0
C2179 C 0.24073 0.25572 0.71423 0.0
H2180 H 0.27256 0.25417 0.86052 0.0
C2181 C 0.2951 0.20837 0.7409 0.0
C2182 C 0.3084 0.21272 0.78383 0.0
C2183 C 0.28254 0.22011 0.72599 0.0
C2184 C 0.26396 0.25477 0.81861 0.0
H2185 H 0.18254 0.27486 0.70874 0.0
H2186 H 0.20503 0.25512 0.73448 0.0
H2187 H 0.24601 0.26911 0.87436 0.0
H2188 H 0.32124 0.2338 0.82988 0.0
H2189 H 0.29965 0.25433 0.80189 0.0
H2190 H 0.25868 0.24141 0.65841 0.0
C2191 C 0.20609 0.26795 0.75205 0.0
C2192 C 0.24865 0.26315 0.82699 0.0
C2193 C 0.19306 0.27926 0.73826 0.0
C2194 C 0.31088 0.22985 0.79856 0.0
C2195 C 0.29834 0.2416 0.78349 0.0
C2196 C 0.25606 0.24737 0.70579 0.0
C2197 C 0.22112 0.27366 0.78107 0.0
C2198 C 0.23682 0.26365 0.77502 0.0
C2199 C 0.28337 0.23644 0.75239 0.0
C2200 C 0.26785 0.24678 0.75789 0.0
H2201 H 0.21042 0.31453 0.80549 0.0
H2202 H 0.23298 0.29483 0.83012 0.0
H2203 H 0.23209 0.25628 0.67246 0.0
H2204 H 0.29309 0.19536 0.72692 0.0
H2205 H 0.27135 0.21578 0.70053 0.0
C2206 C 0.48346 0.47343 0.75911 0.0
C2207 C 0.46579 0.47338 0.76285 0.0
C2208 C 0.49261 0.48723 0.78284 0.0
C2209 C 0.48862 0.5204 0.90628 0.0
H2210 H 0.52817 0.53974 0.8216 0.0
C2211 C 0.52837 0.56486 0.0561 0.0
C2212 C 0.54525 0.55964 0.05799 0.0
C2213 C 0.51795 0.55981 0.00376 0.0
C2214 C 0.5171 0.53451 0.84574 0.0
H2215 H 0.44391 0.48819 0.79158 0.0
H2216 H 0.4598 0.5119 0.83231 0.0
H2217 H 0.5117 0.51843 0.76271 0.0
H2218 H 0.56499 0.54709 0.00177 0.0
H2219 H 0.54688 0.53796 0.91271 0.0
H2220 H 0.4943 0.53547 0.99059 0.0
C2221 C 0.46659 0.50126 0.81213 0.0
C2222 C 0.50775 0.52229 0.81213 0.0
C2223 C 0.45751 0.48758 0.7888 0.0
C2224 C 0.55196 0.55109 0.0027 0.0
C2225 C 0.54154 0.54595 0.95088 0.0
C2226 C 0.49799 0.53243 0.93998 0.0
C2227 C 0.48421 0.50113 0.81052 0.0
C2228 C 0.49361 0.51492 0.84276 0.0
C2229 C 0.52421 0.54933 0.95301 0.0
C2230 C 0.51258 0.53936 0.9109 0.0
H2231 H 0.49019 0.46275 0.73892 0.0
H2232 H 0.50624 0.4868 0.78155 0.0
H2233 H 0.47788 0.51479 0.93147 0.0
H2234 H 0.5229 0.57179 0.09717 0.0
H2235 H 0.50473 0.5631 0.00564 0.0
C2236 C 0.19957 0.80734 0.25088 0.0
C2237 C 0.19071 0.79955 0.30362 0.0
C2238 C 0.20639 0.79774 0.1995 0.0
C2239 C 0.21133 0.75398 0.13448 0.0
H2240 H 0.25819 0.76751 0.12281 0.0
C2241 C 0.26535 0.70763 0.07883 0.0
C2242 C 0.27911 0.71333 0.04047 0.0
C2243 C 0.2525 0.71871 0.09701 0.0
C2244 C 0.2451 0.76367 0.12416 0.0
H2245 H 0.1804 0.77584 0.33968 0.0
H2246 H 0.19289 0.75899 0.25158 0.0
H2247 H 0.23793 0.78617 0.17375 0.0
H2248 H 0.28988 0.73509 0.98961 0.0
H2249 H 0.26744 0.75435 0.02107 0.0
H2250 H 0.21887 0.73107 0.08706 0.0
C2251 C 0.19437 0.77254 0.24915 0.0
C2252 C 0.23341 0.77443 0.15324 0.0
C2253 C 0.18723 0.78222 0.29993 0.0
C2254 C 0.27958 0.7303 0.01982 0.0
C2255 C 0.26671 0.74135 0.03783 0.0
C2256 C 0.22309 0.74316 0.1053 0.0
C2257 C 0.20488 0.7801 0.20074 0.0
C2258 C 0.21644 0.76962 0.16 0.0
C2259 C 0.2531 0.73572 0.07713 0.0
C2260 C 0.24018 0.74776 0.10112 0.0
H2261 H 0.20235 0.82069 0.25183 0.0
H2262 H 0.21396 0.80402 0.16166 0.0
H2263 H 0.19834 0.74996 0.13841 0.0
H2264 H 0.26454 0.69464 0.09553 0.0
H2265 H 0.24234 0.71402 0.1282 0.0
C2266 C 0.05234 0.53349 0.51089 0.0
C2267 C 0.049 0.54874 0.47706 0.0
C2268 C 0.0392 0.52247 0.52694 0.0
C2269 C 0.99269 0.51682 0.52697 0.0
H2270 H 0.00397 0.47303 0.45442 0.0
C2271 C 0.94112 0.46832 0.49696 0.0
C2272 C 0.94473 0.45346 0.53302 0.0
C2273 C 0.95413 0.4792 0.47784 0.0
C2274 C 1.00063 0.48517 0.47488 0.0
H2275 H 0.02907 0.56586 0.44649 0.0
H2276 H 0.00628 0.54673 0.47465 0.0
H2277 H 0.02577 0.49447 0.46487 0.0
H2278 H 0.96488 0.43659 0.56345 0.0
H2279 H 0.98743 0.45545 0.52995 0.0
H2280 H 0.96756 0.50751 0.53714 0.0
C2281 C 0.01902 0.543 0.48704 0.0
C2282 C 0.01315 0.49741 0.48165 0.0
C2283 C 0.03216 0.55405 0.47111 0.0
C2284 C 0.9616 0.44816 0.53741 0.0
C2285 C 0.9746 0.45905 0.51837 0.0
C2286 C 0.98017 0.50459 0.52018 0.0
C2287 C 0.02252 0.52662 0.51033 0.0
C2288 C 0.00935 0.51335 0.50805 0.0
C2289 C 0.97091 0.47523 0.49343 0.0
C2290 C 0.98399 0.48861 0.49407 0.0
H2291 H 0.06515 0.52917 0.51797 0.0
H2292 H 0.04222 0.51016 0.54744 0.0
H2293 H 0.98936 0.52893 0.54765 0.0
H2294 H 0.92826 0.47258 0.4908 0.0
H2295 H 0.95095 0.49134 0.45612 0.0
C2296 C 0.71641 0.80172 0.29245 0.0
C2297 C 0.70235 0.79674 0.25476 0.0
C2298 C 0.7293 0.79024 0.30596 0.0
C2299 C 0.74286 0.74558 0.28654 0.0
H2300 H 0.78434 0.7664 0.22424 0.0
C2301 C 0.79857 0.70398 0.23939 0.0
C2302 C 0.81161 0.70836 0.28344 0.0
C2303 C 0.78643 0.71591 0.2217 0.0
C2304 C 0.77285 0.76042 0.24152 0.0
H2305 H 0.68899 0.77506 0.21593 0.0
H2306 H 0.71132 0.75517 0.23948 0.0
H2307 H 0.75951 0.78378 0.24321 0.0
H2308 H 0.82476 0.72947 0.32783 0.0
H2309 H 0.80378 0.7502 0.29646 0.0
H2310 H 0.75618 0.72223 0.28464 0.0
C2311 C 0.71277 0.76798 0.25669 0.0
C2312 C 0.75868 0.77038 0.2534 0.0
C2313 C 0.69985 0.77945 0.24346 0.0
C2314 C 0.81454 0.72554 0.29571 0.0
C2315 C 0.8024 0.73748 0.27801 0.0
C2316 C 0.757 0.73563 0.27438 0.0
C2317 C 0.72816 0.7736 0.28293 0.0
C2318 C 0.74352 0.76308 0.27627 0.0
C2319 C 0.78749 0.73238 0.24644 0.0
C2320 C 0.77215 0.74293 0.25168 0.0
H2321 H 0.71849 0.81487 0.30386 0.0
H2322 H 0.74075 0.79476 0.32904 0.0
H2323 H 0.73144 0.73958 0.30442 0.0
H2324 H 0.79631 0.69091 0.22688 0.0
H2325 H 0.77535 0.71182 0.19478 0.0
C2326 C 0.76521 0.20692 0.59093 0.0
C2327 C 0.78011 0.21395 0.56469 0.0
C2328 C 0.75188 0.2172 0.6104 0.0
C2329 C 0.73465 0.2605 0.59422 0.0
H2330 H 0.71348 0.24947 0.76376 0.0
C2331 C 0.70304 0.30818 0.76687 0.0
C2332 C 0.69109 0.30239 0.81372 0.0
C2333 C 0.70961 0.29727 0.71913 0.0
C2334 C 0.71888 0.25255 0.71542 0.0
H2335 H 0.79258 0.23741 0.53812 0.0
H2336 H 0.76942 0.25542 0.57388 0.0
H2337 H 0.73436 0.2306 0.71778 0.0
H2338 H 0.67469 0.28149 0.8402 0.0
H2339 H 0.68598 0.26254 0.75613 0.0
H2340 H 0.71954 0.28288 0.59363 0.0
C2341 C 0.76797 0.24189 0.5781 0.0
C2342 C 0.73096 0.24173 0.68916 0.0
C2343 C 0.78131 0.23157 0.55827 0.0
C2344 C 0.68413 0.28625 0.80576 0.0
C2345 C 0.69069 0.27534 0.75787 0.0
C2346 C 0.72252 0.27138 0.62062 0.0
C2347 C 0.75311 0.23481 0.60456 0.0
C2348 C 0.73925 0.24573 0.62897 0.0
C2349 C 0.70428 0.2804 0.71713 0.0
C2350 C 0.71476 0.26769 0.68228 0.0
H2351 H 0.76372 0.1934 0.59595 0.0
H2352 H 0.74055 0.21133 0.62974 0.0
H2353 H 0.7406 0.26379 0.54711 0.0
H2354 H 0.70843 0.32068 0.77067 0.0
H2355 H 0.71996 0.30166 0.68829 0.0
C2356 C 0.95461 0.98697 0.31122 0.0
C2357 C 0.96251 0.97214 0.28933 0.0
C2358 C 0.96406 1.00101 0.32866 0.0
C2359 C 0.00622 0.02071 0.31855 0.0
H2360 H 0.99274 0.04016 0.48746 0.0
C2361 C 0.05072 0.05301 0.49977 0.0
C2362 C 0.04407 0.06373 0.54883 0.0
C2363 C 0.04051 0.04686 0.44901 0.0
C2364 C 0.99647 0.03532 0.43922 0.0
H2365 H 0.98658 0.96067 0.26656 0.0
H2366 H 0.00326 0.98524 0.29923 0.0
H2367 H 0.97561 0.01844 0.43814 0.0
H2368 H 0.02225 0.0785 0.57681 0.0
H2369 H 0.00444 0.06795 0.48724 0.0
H2370 H 0.02751 0.03729 0.32139 0.0
C2371 C 0.98966 0.98597 0.30176 0.0
C2372 C 0.98666 0.02271 0.41109 0.0
C2373 C 0.98014 0.97186 0.28368 0.0
C2374 C 0.02768 0.07002 0.54056 0.0
C2375 C 0.01744 0.06387 0.48947 0.0
C2376 C 0.01606 0.03343 0.34674 0.0
C2377 C 0.98169 1.00061 0.32536 0.0
C2378 C 0.99158 0.015 0.35123 0.0
C2379 C 0.02342 0.05132 0.44616 0.0
C2380 C 0.01151 0.04058 0.40833 0.0
H2381 H 0.94104 0.98782 0.31497 0.0
H2382 H 0.95752 0.01218 0.34539 0.0
H2383 H 0.01018 0.01516 0.27182 0.0
H2384 H 0.06343 0.04816 0.50382 0.0
H2385 H 0.04563 0.03732 0.41642 0.0
C2386 C 0.46405 0.95116 0.05424 0.0
C2387 C 0.44712 0.95619 0.04824 0.0
C2388 C 0.47698 0.96242 0.03802 0.0
C2389 C 0.48701 0.00477 0.96733 0.0
H2390 H 0.51536 0.0079 0.12463 0.0
C2391 C 0.53164 0.06009 0.99091 0.0
C2392 C 0.54843 0.05475 -0.00153 0.0
C2393 C 0.5184 0.04921 0.00734 0.0
C2394 C 0.50759 0.00718 0.08033 0.0
H2395 H 0.43066 0.97533 0.00611 0.0
H2396 H 0.45315 0.99479 0.97739 0.0
H2397 H 0.49554 0.98461 0.11465 0.0
H2398 H 0.56433 0.03552 0.04324 0.0
H2399 H 0.54135 0.01668 0.07208 0.0
H2400 H 0.49911 0.02729 0.93285 0.0
C2401 C 0.45648 0.98247 -0.00308 0.0
C2402 C 0.49636 0.99373 0.07416 0.0
C2403 C 0.44354 0.97122 0.0132 0.0
C2404 C 0.55156 0.03985 0.03498 0.0
C2405 C 0.53833 0.02896 0.05136 0.0
C2406 C 0.49827 0.01821 0.97343 0.0
C2407 C 0.4732 0.97869 0.01427 0.0
C2408 C 0.48599 0.99233 0.01747 0.0
C2409 C 0.52175 0.03298 0.0327 0.0
C2410 C 0.5087 0.01957 0.03001 0.0
H2411 H 0.46735 0.93947 0.07928 0.0
H2412 H 0.48984 0.95891 0.04939 0.0
H2413 H 0.47922 0.00404 0.92308 0.0
H2414 H 0.52868 0.07172 0.96466 0.0
H2415 H 0.50566 0.05294 -0.00507 0.0
loop_
_geom_bond_atom_site_label_1
_geom_bond_atom_site_label_2
_geom_bond_distance
_geom_bond_site_symmetry_2
_ccdc_geom_bond_type
C0 O27 1.312 . S
C0 O28 1.208 . S
C1 O22 1.331 . S
C1 O25 1.244 . S
C2 O24 1.264 . S
C2 O26 1.273 . S
Mg3 O5 1.936 . S
Mg3 O12 2.081 . S
Mg3 O14 2.023 . S
Mg3 O18 2.031 . S
Mg3 O27 2.291 . S
Mg4 O5 1.963 . S
Mg4 O15 1.942 . S
Mg4 O16 1.955 . S
Mg4 O23 1.986 . S
O5 Mg3 1.936 . S
O5 Mg4 1.963 . S
O5 Mg6 1.915 . S
Mg6 O5 1.915 . S
Mg6 O7 1.915 . S
Mg6 O11 2.013 . S
Mg6 O17 2.114 . S
Mg6 O21 2.013 . S
Mg6 O27 2.114 . S
O7 Mg6 1.915 . S
O7 Mg8 1.936 . S
O7 Mg9 1.963 . S
Mg8 O7 1.936 . S
Mg8 O17 2.291 . S
Mg8 O22 2.081 . S
Mg8 O24 2.023 . S
Mg8 O28 2.031 . S
Mg9 O7 1.963 . S
Mg9 O13 1.986 . S
Mg9 O25 1.942 . S
Mg9 O26 1.955 . S
C10 O21 1.191 . S
C10 O23 1.307 . S
O11 Mg6 2.013 . S
O11 C30 1.191 . S
O12 Mg3 2.081 . S
O12 C20 1.331 . S
O13 Mg9 1.986 . S
O13 C30 1.307 . S
O14 Mg3 2.023 . S
O14 C29 1.264 . S
O15 Mg4 1.942 . S
O15 C20 1.244 . S
O16 Mg4 1.955 . S
O16 C29 1.273 . S
O17 Mg6 2.114 . S
O17 Mg8 2.291 . S
O17 C19 1.312 . S
O18 Mg3 2.031 . S
O18 C19 1.208 . S
C19 O17 1.312 . S
C19 O18 1.208 . S
C20 O12 1.331 . S
C20 O15 1.244 . S
O21 Mg6 2.013 . S
O21 C10 1.191 . S
O22 C1 1.331 . S
O22 Mg8 2.081 . S
O23 Mg4 1.986 . S
O23 C10 1.307 . S
O24 C2 1.264 . S
O24 Mg8 2.023 . S
O25 C1 1.244 . S
O25 Mg9 1.942 . S
O26 C2 1.273 . S
O26 Mg9 1.955 . S
O27 C0 1.312 . S
O27 Mg3 2.291 . S
O27 Mg6 2.114 . S
O28 C0 1.208 . S
O28 Mg8 2.031 . S
C29 O14 1.264 . S
C29 O16 1.273 . S
C30 O11 1.191 . S
C30 O13 1.307 . S
C31 O58 1.312 . S
C31 O59 1.208 . S
C32 O53 1.331 . S
C32 O56 1.244 . S
C33 O55 1.264 . S
C33 O57 1.273 . S
Mg34 O36 1.936 . S
Mg34 O43 2.081 . S
Mg34 O45 2.023 . S
Mg34 O49 2.031 . S
Mg34 O58 2.291 . S
Mg35 O36 1.963 . S
Mg35 O46 1.942 . S
Mg35 O47 1.955 . S
Mg35 O54 1.986 . S
O36 Mg34 1.936 . S
O36 Mg35 1.963 . S
O36 Mg37 1.915 . S
Mg37 O36 1.915 . S
Mg37 O38 1.915 . S
Mg37 O42 2.013 . S
Mg37 O48 2.114 . S
Mg37 O52 2.013 . S
Mg37 O58 2.114 . S
O38 Mg37 1.915 . S
O38 Mg39 1.936 . S
O38 Mg40 1.963 . S
Mg39 O38 1.936 . S
Mg39 O48 2.291 . S
Mg39 O53 2.081 . S
Mg39 O55 2.023 . S
Mg39 O59 2.031 . S
Mg40 O38 1.963 . S
Mg40 O44 1.986 . S
Mg40 O56 1.942 . S
Mg40 O57 1.955 . S
C41 O52 1.191 . S
C41 O54 1.307 . S
O42 Mg37 2.013 . S
O42 C61 1.191 . S
O43 Mg34 2.081 . S
O43 C51 1.331 . S
O44 Mg40 1.986 . S
O44 C61 1.307 . S
O45 Mg34 2.023 . S
O45 C60 1.264 . S
O46 Mg35 1.942 . S
O46 C51 1.244 . S
O47 Mg35 1.955 . S
O47 C60 1.273 . S
O48 Mg37 2.114 . S
O48 Mg39 2.291 . S
O48 C50 1.312 . S
O49 Mg34 2.031 . S
O49 C50 1.208 . S
C50 O48 1.312 . S
C50 O49 1.208 . S
C51 O43 1.331 . S
C51 O46 1.244 . S
O52 Mg37 2.013 . S
O52 C41 1.191 . S
O53 C32 1.331 . S
O53 Mg39 2.081 . S
O54 Mg35 1.986 . S
O54 C41 1.307 . S
O55 C33 1.264 . S
O55 Mg39 2.023 . S
O56 C32 1.244 . S
O56 Mg40 1.942 . S
O57 C33 1.273 . S
O57 Mg40 1.955 . S
O58 C31 1.312 . S
O58 Mg34 2.291 . S
O58 Mg37 2.114 . S
O59 C31 1.208 . S
O59 Mg39 2.031 . S
C60 O45 1.264 . S
C60 O47 1.273 . S
C61 O42 1.191 . S
C61 O44 1.307 . S
C62 O89 1.312 . S
C62 O90 1.208 . S
C63 O84 1.331 1_556 S
C63 O87 1.244 . S
C64 O86 1.264 . S
C64 O88 1.273 . S
Mg65 O67 1.936 . S
Mg65 O74 2.081 . S
Mg65 O76 2.023 . S
Mg65 O80 2.031 . S
Mg65 O89 2.291 . S
Mg66 O67 1.963 1_556 S
Mg66 O77 1.942 1_556 S
Mg66 O78 1.955 . S
Mg66 O85 1.984 1_556 S
O67 Mg65 1.936 . S
O67 Mg66 1.963 1_554 S
O67 Mg68 1.915 . S
Mg68 O67 1.915 . S
Mg68 O69 1.915 . S
Mg68 O73 2.013 1_554 S
Mg68 O79 2.114 . S
Mg68 O83 2.013 . S
Mg68 O89 2.114 . S
O69 Mg68 1.915 . S
O69 Mg70 1.936 . S
O69 Mg71 1.963 1_554 S
Mg70 O69 1.936 . S
Mg70 O79 2.291 . S
Mg70 O84 2.081 . S
Mg70 O86 2.023 . S
Mg70 O90 2.031 . S
Mg71 O69 1.963 1_556 S
Mg71 O75 1.986 . S
Mg71 O87 1.942 . S
Mg71 O88 1.955 1_556 S
C72 O83 1.191 . S
C72 O85 1.311 . S
O73 Mg68 2.013 1_556 S
O73 C92 1.191 . S
O74 Mg65 2.081 . S
O74 C82 1.331 . S
O75 Mg71 1.986 . S
O75 C92 1.307 . S
O76 Mg65 2.023 . S
O76 C91 1.264 1_554 S
O77 Mg66 1.942 1_554 S
O77 C82 1.244 . S
O78 Mg66 1.955 . S
O78 C91 1.273 . S
O79 Mg68 2.114 . S
O79 Mg70 2.291 . S
O79 C81 1.312 . S
O80 Mg65 2.031 . S
O80 C81 1.208 . S
C81 O79 1.312 . S
C81 O80 1.208 . S
C82 O74 1.331 . S
C82 O77 1.244 . S
O83 Mg68 2.013 . S
O83 C72 1.191 . S
O84 C63 1.331 1_554 S
O84 Mg70 2.081 . S
O85 Mg66 1.984 1_554 S
O85 C72 1.311 . S
O86 C64 1.264 . S
O86 Mg70 2.023 . S
O87 C63 1.244 . S
O87 Mg71 1.942 . S
O88 C64 1.273 . S
O88 Mg71 1.955 1_554 S
O89 C62 1.312 . S
O89 Mg65 2.291 . S
O89 Mg68 2.114 . S
O90 C62 1.208 . S
O90 Mg70 2.031 . S
C91 O76 1.264 1_556 S
C91 O78 1.273 . S
C92 O73 1.191 . S
C92 O75 1.307 . S
C93 O120 1.312 . S
C93 O121 1.208 . S
C94 O115 1.331 . S
C94 O118 1.244 . S
C95 O117 1.264 . S
C95 O119 1.273 . S
Mg96 O98 1.936 . S
Mg96 O105 2.081 . S
Mg96 O107 2.023 . S
Mg96 O111 2.031 . S
Mg96 O120 2.291 . S
Mg97 O98 1.963 . S
Mg97 O108 1.942 . S
Mg97 O109 1.955 . S
Mg97 O116 1.986 . S
O98 Mg96 1.936 . S
O98 Mg97 1.963 . S
O98 Mg99 1.915 . S
Mg99 O98 1.915 . S
Mg99 O100 1.915 . S
Mg99 O104 2.013 . S
Mg99 O110 2.114 . S
Mg99 O114 2.013 . S
Mg99 O120 2.114 . S
O100 Mg99 1.915 . S
O100 Mg101 1.936 . S
O100 Mg102 1.963 . S
Mg101 O100 1.936 . S
Mg101 O110 2.291 . S
Mg101 O115 2.081 . S
Mg101 O117 2.023 . S
Mg101 O121 2.031 . S
Mg102 O100 1.963 . S
Mg102 O106 1.986 . S
Mg102 O118 1.942 . S
Mg102 O119 1.955 . S
C103 O114 1.191 . S
C103 O116 1.307 . S
O104 Mg99 2.013 . S
O104 C123 1.191 . S
O105 Mg96 2.081 . S
O105 C113 1.331 . S
O106 Mg102 1.986 . S
O106 C123 1.307 . S
O107 Mg96 2.023 . S
O107 C122 1.264 . S
O108 Mg97 1.942 . S
O108 C113 1.244 . S
O109 Mg97 1.955 . S
O109 C122 1.273 . S
O110 Mg99 2.114 . S
O110 Mg101 2.291 . S
O110 C112 1.312 . S
O111 Mg96 2.031 . S
O111 C112 1.208 . S
C112 O110 1.312 . S
C112 O111 1.208 . S
C113 O105 1.331 . S
C113 O108 1.244 . S
O114 Mg99 2.013 . S
O114 C103 1.191 . S
O115 C94 1.331 . S
O115 Mg101 2.081 . S
O116 Mg97 1.986 . S
O116 C103 1.307 . S
O117 C95 1.264 . S
O117 Mg101 2.023 . S
O118 C94 1.244 . S
O118 Mg102 1.942 . S
O119 C95 1.273 . S
O119 Mg102 1.955 . S
O120 C93 1.312 . S
O120 Mg96 2.291 . S
O120 Mg99 2.114 . S
O121 C93 1.208 . S
O121 Mg101 2.031 . S
C122 O107 1.264 . S
C122 O109 1.273 . S
C123 O104 1.191 . S
C123 O106 1.307 . S
C124 O151 1.312 . S
C124 O152 1.208 . S
C125 O146 1.331 . S
C125 O149 1.244 . S
C126 O148 1.264 . S
C126 O150 1.273 . S
Mg127 O129 1.936 . S
Mg127 O136 2.081 . S
Mg127 O138 2.023 . S
Mg127 O142 2.031 . S
Mg127 O151 2.291 . S
Mg128 O129 1.963 . S
Mg128 O139 1.942 . S
Mg128 O140 1.955 . S
Mg128 O147 1.986 . S
O129 Mg127 1.936 . S
O129 Mg128 1.963 . S
O129 Mg130 1.915 . S
Mg130 O129 1.915 . S
Mg130 O131 1.915 . S
Mg130 O135 2.013 . S
Mg130 O141 2.114 . S
Mg130 O145 2.013 . S
Mg130 O151 2.114 . S
O131 Mg130 1.915 . S
O131 Mg132 1.936 . S
O131 Mg133 1.963 . S
Mg132 O131 1.936 . S
Mg132 O141 2.291 . S
Mg132 O146 2.081 . S
Mg132 O148 2.023 . S
Mg132 O152 2.031 . S
Mg133 O131 1.963 . S
Mg133 O137 1.986 . S
Mg133 O149 1.942 . S
Mg133 O150 1.955 . S
C134 O145 1.191 . S
C134 O147 1.307 . S
O135 Mg130 2.013 . S
O135 C154 1.191 . S
O136 Mg127 2.081 . S
O136 C144 1.331 . S
O137 Mg133 1.986 . S
O137 C154 1.307 . S
O138 Mg127 2.023 . S
O138 C153 1.264 . S
O139 Mg128 1.942 . S
O139 C144 1.244 . S
O140 Mg128 1.955 . S
O140 C153 1.273 . S
O141 Mg130 2.114 . S
O141 Mg132 2.291 . S
O141 C143 1.312 . S
O142 Mg127 2.031 . S
O142 C143 1.208 . S
C143 O141 1.312 . S
C143 O142 1.208 . S
C144 O136 1.331 . S
C144 O139 1.244 . S
O145 Mg130 2.013 . S
O145 C134 1.191 . S
O146 C125 1.331 . S
O146 Mg132 2.081 . S
O147 Mg128 1.986 . S
O147 C134 1.307 . S
O148 C126 1.264 . S
O148 Mg132 2.023 . S
O149 C125 1.244 . S
O149 Mg133 1.942 . S
O150 C126 1.273 . S
O150 Mg133 1.955 . S
O151 C124 1.312 . S
O151 Mg127 2.291 . S
O151 Mg130 2.114 . S
O152 C124 1.208 . S
O152 Mg132 2.031 . S
C153 O138 1.264 . S
C153 O140 1.273 . S
C154 O135 1.191 . S
C154 O137 1.307 . S
C155 O182 1.312 . S
C155 O183 1.208 . S
C156 O177 1.331 . S
C156 O180 1.244 . S
C157 O179 1.264 . S
C157 O181 1.273 . S
Mg158 O160 1.936 . S
Mg158 O167 2.081 . S
Mg158 O169 2.023 . S
Mg158 O173 2.031 . S
Mg158 O182 2.291 . S
Mg159 O160 1.963 . S
Mg159 O170 1.942 . S
Mg159 O171 1.955 . S
Mg159 O178 1.986 . S
O160 Mg158 1.936 . S
O160 Mg159 1.963 . S
O160 Mg161 1.915 . S
Mg161 O160 1.915 . S
Mg161 O162 1.915 . S
Mg161 O166 2.013 . S
Mg161 O172 2.114 . S
Mg161 O176 2.013 . S
Mg161 O182 2.114 . S
O162 Mg161 1.915 . S
O162 Mg163 1.936 . S
O162 Mg164 1.963 . S
Mg163 O162 1.936 . S
Mg163 O172 2.291 . S
Mg163 O177 2.081 . S
Mg163 O179 2.023 . S
Mg163 O183 2.031 . S
Mg164 O162 1.963 . S
Mg164 O168 1.986 . S
Mg164 O180 1.942 . S
Mg164 O181 1.955 . S
C165 O176 1.191 . S
C165 O178 1.307 . S
O166 Mg161 2.013 . S
O166 C185 1.191 . S
O167 Mg158 2.081 . S
O167 C175 1.331 . S
O168 Mg164 1.986 . S
O168 C185 1.307 . S
O169 Mg158 2.023 . S
O169 C184 1.264 . S
O170 Mg159 1.942 . S
O170 C175 1.244 . S
O171 Mg159 1.955 . S
O171 C184 1.273 . S
O172 Mg161 2.114 . S
O172 Mg163 2.291 . S
O172 C174 1.312 . S
O173 Mg158 2.031 . S
O173 C174 1.208 . S
C174 O172 1.312 . S
C174 O173 1.208 . S
C175 O167 1.331 . S
C175 O170 1.244 . S
O176 Mg161 2.013 . S
O176 C165 1.191 . S
O177 C156 1.331 . S
O177 Mg163 2.081 . S
O178 Mg159 1.986 . S
O178 C165 1.307 . S
O179 C157 1.264 . S
O179 Mg163 2.023 . S
O180 C156 1.244 . S
O180 Mg164 1.942 . S
O181 C157 1.273 . S
O181 Mg164 1.955 . S
O182 C155 1.312 . S
O182 Mg158 2.291 . S
O182 Mg161 2.114 . S
O183 C155 1.208 . S
O183 Mg163 2.031 . S
C184 O169 1.264 . S
C184 O171 1.273 . S
C185 O166 1.191 . S
C185 O168 1.307 . S
C186 O213 1.312 . S
C186 O214 1.208 . S
C187 O208 1.331 . S
C187 O211 1.244 . S
C188 O210 1.264 . S
C188 O212 1.273 . S
Mg189 O191 1.936 . S
Mg189 O198 2.081 . S
Mg189 O200 2.023 1_554 S
Mg189 O204 2.031 . S
Mg189 O213 2.291 . S
Mg190 O191 1.963 1_556 S
Mg190 O201 1.942 1_556 S
Mg190 O202 1.955 . S
Mg190 O209 1.986 . S
O191 Mg189 1.936 . S
O191 Mg190 1.963 1_554 S
O191 Mg192 1.915 . S
Mg192 O191 1.915 . S
Mg192 O193 1.915 1_554 S
Mg192 O197 2.013 1_554 S
Mg192 O203 2.114 . S
Mg192 O207 2.013 . S
Mg192 O213 2.114 . S
O193 Mg192 1.915 1_556 S
O193 Mg194 1.936 1_556 S
O193 Mg195 1.963 . S
Mg194 O193 1.936 1_554 S
Mg194 O203 2.291 . S
Mg194 O208 2.081 1_554 S
Mg194 O210 2.023 . S
Mg194 O214 2.031 . S
Mg195 O193 1.963 . S
Mg195 O199 1.986 . S
Mg195 O211 1.942 . S
Mg195 O212 1.955 1_556 S
C196 O207 1.191 . S
C196 O209 1.307 1_554 S
O197 Mg192 2.013 1_556 S
O197 C216 1.191 . S
O198 Mg189 2.081 . S
O198 C206 1.331 . S
O199 Mg195 1.986 . S
O199 C216 1.307 . S
O200 Mg189 2.023 1_556 S
O200 C215 1.264 . S
O201 Mg190 1.942 1_554 S
O201 C206 1.244 . S
O202 Mg190 1.955 . S
O202 C215 1.273 . S
O203 Mg192 2.114 . S
O203 Mg194 2.291 . S
O203 C205 1.312 . S
O204 Mg189 2.031 . S
O204 C205 1.208 . S
C205 O203 1.312 . S
C205 O204 1.208 . S
C206 O198 1.331 . S
C206 O201 1.244 . S
O207 Mg192 2.013 . S
O207 C196 1.191 . S
O208 C187 1.331 . S
O208 Mg194 2.081 1_556 S
O209 Mg190 1.986 . S
O209 C196 1.307 1_556 S
O210 C188 1.264 . S
O210 Mg194 2.023 . S
O211 C187 1.244 . S
O211 Mg195 1.942 . S
O212 C188 1.273 . S
O212 Mg195 1.955 1_554 S
O213 C186 1.312 . S
O213 Mg189 2.291 . S
O213 Mg192 2.114 . S
O214 C186 1.208 . S
O214 Mg194 2.031 . S
C215 O200 1.264 . S
C215 O202 1.273 . S
C216 O197 1.191 . S
C216 O199 1.307 . S
C217 O244 1.312 . S
C217 O245 1.208 . S
C218 O239 1.331 . S
C218 O242 1.244 . S
C219 O241 1.264 . S
C219 O243 1.273 . S
Mg220 O222 1.936 . S
Mg220 O229 2.081 . S
Mg220 O231 2.023 . S
Mg220 O235 2.031 . S
Mg220 O244 2.291 . S
Mg221 O222 1.963 . S
Mg221 O232 1.942 . S
Mg221 O233 1.955 . S
Mg221 O240 1.986 . S
O222 Mg220 1.936 . S
O222 Mg221 1.963 . S
O222 Mg223 1.915 . S
Mg223 O222 1.915 . S
Mg223 O224 1.915 . S
Mg223 O228 2.013 . S
Mg223 O234 2.114 . S
Mg223 O238 2.013 . S
Mg223 O244 2.114 . S
O224 Mg223 1.915 . S
O224 Mg225 1.936 . S
O224 Mg226 1.963 . S
Mg225 O224 1.936 . S
Mg225 O234 2.291 . S
Mg225 O239 2.081 . S
Mg225 O241 2.023 . S
Mg225 O245 2.031 . S
Mg226 O224 1.963 . S
Mg226 O230 1.986 . S
Mg226 O242 1.942 . S
Mg226 O243 1.955 . S
C227 O238 1.191 . S
C227 O240 1.307 . S
O228 Mg223 2.013 . S
O228 C247 1.191 . S
O229 Mg220 2.081 . S
O229 C237 1.331 . S
O230 Mg226 1.986 . S
O230 C247 1.307 . S
O231 Mg220 2.023 . S
O231 C246 1.264 . S
O232 Mg221 1.942 . S
O232 C237 1.244 . S
O233 Mg221 1.955 . S
O233 C246 1.273 . S
O234 Mg223 2.114 . S
O234 Mg225 2.291 . S
O234 C236 1.312 . S
O235 Mg220 2.031 . S
O235 C236 1.208 . S
C236 O234 1.312 . S
C236 O235 1.208 . S
C237 O229 1.331 . S
C237 O232 1.244 . S
O238 Mg223 2.013 . S
O238 C227 1.191 . S
O239 C218 1.331 . S
O239 Mg225 2.081 . S
O240 Mg221 1.986 . S
O240 C227 1.307 . S
O241 C219 1.264 . S
O241 Mg225 2.023 . S
O242 C218 1.244 . S
O242 Mg226 1.942 . S
O243 C219 1.273 . S
O243 Mg226 1.955 . S
O244 C217 1.312 . S
O244 Mg220 2.291 . S
O244 Mg223 2.114 . S
O245 C217 1.208 . S
O245 Mg225 2.031 . S
C246 O231 1.264 . S
C246 O233 1.273 . S
C247 O228 1.191 . S
C247 O230 1.307 . S
C248 O275 1.312 . S
C248 O276 1.208 . S
C249 O270 1.331 . S
C249 O273 1.244 . S
C250 O272 1.264 . S
C250 O274 1.273 . S
Mg251 O253 1.936 1_556 S
Mg251 O260 2.081 1_556 S
Mg251 O262 2.023 . S
Mg251 O266 2.034 . S
Mg251 O275 2.291 . S
Mg252 O253 1.963 . S
Mg252 O263 1.942 . S
Mg252 O264 1.955 . S
Mg252 O271 1.986 . S
O253 Mg251 1.936 1_554 S
O253 Mg252 1.963 . S
O253 Mg254 1.915 . S
Mg254 O253 1.915 . S
Mg254 O255 1.915 . S
Mg254 O259 2.013 . S
Mg254 O265 2.114 . S
Mg254 O269 2.013 . S
Mg254 O275 2.114 1_554 S
O255 Mg254 1.915 . S
O255 Mg256 1.936 1_554 S
O255 Mg257 1.963 . S
Mg256 O255 1.936 1_556 S
Mg256 O265 2.291 1_556 S
Mg256 O270 2.081 . S
Mg256 O272 2.023 1_556 S
Mg256 O276 2.031 . S
Mg257 O255 1.963 . S
Mg257 O261 1.986 . S
Mg257 O273 1.942 1_554 S
Mg257 O274 1.955 . S
C258 O269 1.191 . S
C258 O271 1.307 . S
O259 Mg254 2.013 . S
O259 C278 1.191 . S
O260 Mg251 2.081 1_554 S
O260 C268 1.331 . S
O261 Mg257 1.986 . S
O261 C278 1.307 . S
O262 Mg251 2.023 . S
O262 C277 1.264 . S
O263 Mg252 1.942 . S
O263 C268 1.244 . S
O264 Mg252 1.955 . S
O264 C277 1.273 1_554 S
O265 Mg254 2.114 . S
O265 Mg256 2.291 1_554 S
O265 C267 1.312 . S
O266 Mg251 2.034 . S
O266 C267 1.203 1_556 S
C267 O265 1.312 . S
C267 O266 1.203 1_554 S
C268 O260 1.331 . S
C268 O263 1.244 . S
O269 Mg254 2.013 . S
O269 C258 1.191 . S
O270 C249 1.331 . S
O270 Mg256 2.081 . S
O271 Mg252 1.986 . S
O271 C258 1.307 . S
O272 C250 1.264 . S
O272 Mg256 2.023 1_554 S
O273 C249 1.244 . S
O273 Mg257 1.942 1_556 S
O274 C250 1.273 . S
O274 Mg257 1.955 . S
O275 C248 1.312 . S
O275 Mg251 2.291 . S
O275 Mg254 2.114 1_556 S
O276 C248 1.208 . S
O276 Mg256 2.031 . S
C277 O262 1.264 . S
C277 O264 1.273 1_556 S
C278 O259 1.191 . S
C278 O261 1.307 . S
C279 O306 1.312 . S
C279 O307 1.208 . S
C280 O301 1.331 . S
C280 O304 1.244 . S
C281 O303 1.264 . S
C281 O305 1.273 . S
Mg282 O284 1.936 . S
Mg282 O291 2.081 . S
Mg282 O293 2.023 . S
Mg282 O297 2.031 . S
Mg282 O306 2.291 . S
Mg283 O284 1.963 . S
Mg283 O294 1.942 . S
Mg283 O295 1.955 . S
Mg283 O302 1.986 . S
O284 Mg282 1.936 . S
O284 Mg283 1.963 . S
O284 Mg285 1.915 . S
Mg285 O284 1.915 . S
Mg285 O286 1.915 . S
Mg285 O290 2.013 . S
Mg285 O296 2.114 . S
Mg285 O300 2.013 . S
Mg285 O306 2.114 . S
O286 Mg285 1.915 . S
O286 Mg287 1.936 . S
O286 Mg288 1.963 . S
Mg287 O286 1.936 . S
Mg287 O296 2.291 . S
Mg287 O301 2.081 . S
Mg287 O303 2.023 . S
Mg287 O307 2.031 . S
Mg288 O286 1.963 . S
Mg288 O292 1.986 . S
Mg288 O304 1.942 . S
Mg288 O305 1.955 . S
C289 O300 1.191 . S
C289 O302 1.307 . S
O290 Mg285 2.013 . S
O290 C309 1.191 . S
O291 Mg282 2.081 . S
O291 C299 1.331 . S
O292 Mg288 1.986 . S
O292 C309 1.307 . S
O293 Mg282 2.023 . S
O293 C308 1.264 . S
O294 Mg283 1.942 . S
O294 C299 1.244 . S
O295 Mg283 1.955 . S
O295 C308 1.273 . S
O296 Mg285 2.114 . S
O296 Mg287 2.291 . S
O296 C298 1.312 . S
O297 Mg282 2.031 . S
O297 C298 1.208 . S
C298 O296 1.312 . S
C298 O297 1.208 . S
C299 O291 1.331 . S
C299 O294 1.244 . S
O300 Mg285 2.013 . S
O300 C289 1.191 . S
O301 C280 1.331 . S
O301 Mg287 2.081 . S
O302 Mg283 1.986 . S
O302 C289 1.307 . S
O303 C281 1.264 . S
O303 Mg287 2.023 . S
O304 C280 1.244 . S
O304 Mg288 1.942 . S
O305 C281 1.273 . S
O305 Mg288 1.955 . S
O306 C279 1.312 . S
O306 Mg282 2.291 . S
O306 Mg285 2.114 . S
O307 C279 1.208 . S
O307 Mg287 2.031 . S
C308 O293 1.264 . S
C308 O295 1.273 . S
C309 O290 1.191 . S
C309 O292 1.307 . S
C310 O337 1.312 . S
C310 O338 1.208 . S
C311 O332 1.331 . S
C311 O335 1.244 . S
C312 O334 1.264 . S
C312 O336 1.273 . S
Mg313 O315 1.936 . S
Mg313 O322 2.081 . S
Mg313 O324 2.023 . S
Mg313 O328 2.031 . S
Mg313 O337 2.291 . S
Mg314 O315 1.963 . S
Mg314 O325 1.942 . S
Mg314 O326 1.955 . S
Mg314 O333 1.986 . S
O315 Mg313 1.936 . S
O315 Mg314 1.963 . S
O315 Mg316 1.915 . S
Mg316 O315 1.915 . S
Mg316 O317 1.915 . S
Mg316 O321 2.013 . S
Mg316 O327 2.114 . S
Mg316 O331 2.013 . S
Mg316 O337 2.114 . S
O317 Mg316 1.915 . S
O317 Mg318 1.936 . S
O317 Mg319 1.963 . S
Mg318 O317 1.936 . S
Mg318 O327 2.291 . S
Mg318 O332 2.081 . S
Mg318 O334 2.023 . S
Mg318 O338 2.031 . S
Mg319 O317 1.963 . S
Mg319 O323 1.986 . S
Mg319 O335 1.942 . S
Mg319 O336 1.955 . S
C320 O331 1.191 . S
C320 O333 1.307 . S
O321 Mg316 2.013 . S
O321 C340 1.191 . S
O322 Mg313 2.081 . S
O322 C330 1.331 . S
O323 Mg319 1.986 . S
O323 C340 1.307 . S
O324 Mg313 2.023 . S
O324 C339 1.264 . S
O325 Mg314 1.942 . S
O325 C330 1.244 . S
O326 Mg314 1.955 . S
O326 C339 1.273 . S
O327 Mg316 2.114 . S
O327 Mg318 2.291 . S
O327 C329 1.312 . S
O328 Mg313 2.031 . S
O328 C329 1.208 . S
C329 O327 1.312 . S
C329 O328 1.208 . S
C330 O322 1.331 . S
C330 O325 1.244 . S
O331 Mg316 2.013 . S
O331 C320 1.191 . S
O332 C311 1.331 . S
O332 Mg318 2.081 . S
O333 Mg314 1.986 . S
O333 C320 1.307 . S
O334 C312 1.264 . S
O334 Mg318 2.023 . S
O335 C311 1.244 . S
O335 Mg319 1.942 . S
O336 C312 1.273 . S
O336 Mg319 1.955 . S
O337 C310 1.312 . S
O337 Mg313 2.291 . S
O337 Mg316 2.114 . S
O338 C310 1.208 . S
O338 Mg318 2.031 . S
C339 O324 1.264 . S
C339 O326 1.273 . S
C340 O321 1.191 . S
C340 O323 1.307 . S
C341 O368 1.312 . S
C341 O369 1.208 . S
C342 O363 1.331 . S
C342 O366 1.244 . S
C343 O365 1.264 . S
C343 O367 1.273 . S
Mg344 O346 1.936 . S
Mg344 O353 2.081 . S
Mg344 O355 2.023 . S
Mg344 O359 2.031 . S
Mg344 O368 2.291 . S
Mg345 O346 1.963 . S
Mg345 O356 1.942 . S
Mg345 O357 1.955 . S
Mg345 O364 1.986 . S
O346 Mg344 1.936 . S
O346 Mg345 1.963 . S
O346 Mg347 1.915 . S
Mg347 O346 1.915 . S
Mg347 O348 1.915 . S
Mg347 O352 2.013 . S
Mg347 O358 2.114 . S
Mg347 O362 2.013 . S
Mg347 O368 2.114 . S
O348 Mg347 1.915 . S
O348 Mg349 1.936 . S
O348 Mg350 1.963 . S
Mg349 O348 1.936 . S
Mg349 O358 2.291 . S
Mg349 O363 2.081 . S
Mg349 O365 2.023 . S
Mg349 O369 2.031 . S
Mg350 O348 1.963 . S
Mg350 O354 1.986 . S
Mg350 O366 1.942 . S
Mg350 O367 1.955 . S
C351 O362 1.191 . S
C351 O364 1.307 . S
O352 Mg347 2.013 . S
O352 C371 1.191 . S
O353 Mg344 2.081 . S
O353 C361 1.331 . S
O354 Mg350 1.986 . S
O354 C371 1.307 . S
O355 Mg344 2.023 . S
O355 C370 1.264 . S
O356 Mg345 1.942 . S
O356 C361 1.244 . S
O357 Mg345 1.955 . S
O357 C370 1.273 . S
O358 Mg347 2.114 . S
O358 Mg349 2.291 . S
O358 C360 1.312 . S
O359 Mg344 2.031 . S
O359 C360 1.208 . S
C360 O358 1.312 . S
C360 O359 1.208 . S
C361 O353 1.331 . S
C361 O356 1.244 . S
O362 Mg347 2.013 . S
O362 C351 1.191 . S
O363 C342 1.331 . S
O363 Mg349 2.081 . S
O364 Mg345 1.986 . S
O364 C351 1.307 . S
O365 C343 1.264 . S
O365 Mg349 2.023 . S
O366 C342 1.244 . S
O366 Mg350 1.942 . S
O367 C343 1.273 . S
O367 Mg350 1.955 . S
O368 C341 1.312 . S
O368 Mg344 2.291 . S
O368 Mg347 2.114 . S
O369 C341 1.208 . S
O369 Mg349 2.031 . S
C370 O355 1.264 . S
C370 O357 1.273 . S
C371 O352 1.191 . S
C371 O354 1.307 . S
C372 O399 1.312 . S
C372 O400 1.208 . S
C373 O394 1.331 . S
C373 O397 1.244 . S
C374 O396 1.264 . S
C374 O398 1.273 . S
Mg375 O377 1.936 . S
Mg375 O384 2.081 . S
Mg375 O386 2.023 1_554 S
Mg375 O390 2.031 . S
Mg375 O399 2.291 . S
Mg376 O377 1.963 1_556 S
Mg376 O387 1.942 1_556 S
Mg376 O388 1.955 . S
Mg376 O395 1.986 . S
O377 Mg375 1.936 . S
O377 Mg376 1.963 1_554 S
O377 Mg378 1.915 1_554 S
Mg378 O377 1.915 1_556 S
Mg378 O379 1.915 . S
Mg378 O383 2.013 . S
Mg378 O389 2.114 1_556 S
Mg378 O393 2.013 1_556 S
Mg378 O399 2.114 1_556 S
O379 Mg378 1.915 . S
O379 Mg380 1.936 1_556 S
O379 Mg381 1.963 . S
Mg380 O379 1.936 1_554 S
Mg380 O389 2.291 . S
Mg380 O394 2.081 1_554 S
Mg380 O396 2.023 . S
Mg380 O400 2.031 . S
Mg381 O379 1.963 . S
Mg381 O385 1.986 . S
Mg381 O397 1.942 . S
Mg381 O398 1.955 1_556 S
C382 O393 1.191 . S
C382 O395 1.306 1_554 S
O383 Mg378 2.013 . S
O383 C402 1.191 . S
O384 Mg375 2.081 . S
O384 C392 1.331 . S
O385 Mg381 1.986 . S
O385 C402 1.307 . S
O386 Mg375 2.023 1_556 S
O386 C401 1.264 . S
O387 Mg376 1.942 1_554 S
O387 C392 1.244 . S
O388 Mg376 1.955 . S
O388 C401 1.273 . S
O389 Mg378 2.114 1_554 S
O389 Mg380 2.291 . S
O389 C391 1.312 . S
O390 Mg375 2.031 . S
O390 C391 1.208 . S
C391 O389 1.312 . S
C391 O390 1.208 . S
C392 O384 1.331 . S
C392 O387 1.244 . S
O393 Mg378 2.013 1_554 S
O393 C382 1.191 . S
O394 C373 1.331 . S
O394 Mg380 2.081 1_556 S
O395 Mg376 1.986 . S
O395 C382 1.306 1_556 S
O396 C374 1.264 . S
O396 Mg380 2.023 . S
O397 C373 1.244 . S
O397 Mg381 1.942 . S
O398 C374 1.273 . S
O398 Mg381 1.955 1_554 S
O399 C372 1.312 . S
O399 Mg375 2.291 . S
O399 Mg378 2.114 1_554 S
O400 C372 1.208 . S
O400 Mg380 2.031 . S
C401 O386 1.264 . S
C401 O388 1.273 . S
C402 O383 1.191 . S
C402 O385 1.307 . S
C403 O430 1.312 . S
C403 O431 1.208 . S
C404 O425 1.331 . S
C404 O428 1.244 . S
C405 O427 1.264 . S
C405 O429 1.273 . S
Mg406 O408 1.936 . S
Mg406 O415 2.081 . S
Mg406 O417 2.023 . S
Mg406 O421 2.031 . S
Mg406 O430 2.291 . S
Mg407 O408 1.963 . S
Mg407 O418 1.942 . S
Mg407 O419 1.955 . S
Mg407 O426 1.986 . S
O408 Mg406 1.936 . S
O408 Mg407 1.963 . S
O408 Mg409 1.915 . S
Mg409 O408 1.915 . S
Mg409 O410 1.915 . S
Mg409 O414 2.013 . S
Mg409 O420 2.114 . S
Mg409 O424 2.013 . S
Mg409 O430 2.114 . S
O410 Mg409 1.915 . S
O410 Mg411 1.936 . S
O410 Mg412 1.963 . S
Mg411 O410 1.936 . S
Mg411 O420 2.291 . S
Mg411 O425 2.081 . S
Mg411 O427 2.023 . S
Mg411 O431 2.031 . S
Mg412 O410 1.963 . S
Mg412 O416 1.986 . S
Mg412 O428 1.942 . S
Mg412 O429 1.955 . S
C413 O424 1.191 . S
C413 O426 1.307 . S
O414 Mg409 2.013 . S
O414 C433 1.191 . S
O415 Mg406 2.081 . S
O415 C423 1.331 . S
O416 Mg412 1.986 . S
O416 C433 1.307 . S
O417 Mg406 2.023 . S
O417 C432 1.264 . S
O418 Mg407 1.942 . S
O418 C423 1.244 . S
O419 Mg407 1.955 . S
O419 C432 1.273 . S
O420 Mg409 2.114 . S
O420 Mg411 2.291 . S
O420 C422 1.312 . S
O421 Mg406 2.031 . S
O421 C422 1.208 . S
C422 O420 1.312 . S
C422 O421 1.208 . S
C423 O415 1.331 . S
C423 O418 1.244 . S
O424 Mg409 2.013 . S
O424 C413 1.191 . S
O425 C404 1.331 . S
O425 Mg411 2.081 . S
O426 Mg407 1.986 . S
O426 C413 1.307 . S
O427 C405 1.264 . S
O427 Mg411 2.023 . S
O428 C404 1.244 . S
O428 Mg412 1.942 . S
O429 C405 1.273 . S
O429 Mg412 1.955 . S
O430 C403 1.312 . S
O430 Mg406 2.291 . S
O430 Mg409 2.114 . S
O431 C403 1.208 . S
O431 Mg411 2.031 . S
C432 O417 1.264 . S
C432 O419 1.273 . S
C433 O414 1.191 . S
C433 O416 1.307 . S
C434 O461 1.312 . S
C434 O462 1.208 . S
C435 O456 1.331 . S
C435 O459 1.244 . S
C436 O458 1.264 . S
C436 O460 1.273 . S
Mg437 O439 1.936 . S
Mg437 O446 2.081 . S
Mg437 O448 2.023 . S
Mg437 O452 2.031 . S
Mg437 O461 2.291 . S
Mg438 O439 1.963 . S
Mg438 O449 1.942 . S
Mg438 O450 1.955 . S
Mg438 O457 1.986 . S
O439 Mg437 1.936 . S
O439 Mg438 1.963 . S
O439 Mg440 1.915 . S
Mg440 O439 1.915 . S
Mg440 O441 1.915 . S
Mg440 O445 2.013 . S
Mg440 O451 2.114 . S
Mg440 O455 2.013 . S
Mg440 O461 2.114 . S
O441 Mg440 1.915 . S
O441 Mg442 1.936 . S
O441 Mg443 1.963 . S
Mg442 O441 1.936 . S
Mg442 O451 2.291 . S
Mg442 O456 2.081 . S
Mg442 O458 2.023 . S
Mg442 O462 2.031 . S
Mg443 O441 1.963 . S
Mg443 O447 1.986 . S
Mg443 O459 1.942 . S
Mg443 O460 1.955 . S
C444 O455 1.191 . S
C444 O457 1.307 . S
O445 Mg440 2.013 . S
O445 C464 1.191 . S
O446 Mg437 2.081 . S
O446 C454 1.331 . S
O447 Mg443 1.986 . S
O447 C464 1.307 . S
O448 Mg437 2.023 . S
O448 C463 1.264 . S
O449 Mg438 1.942 . S
O449 C454 1.244 . S
O450 Mg438 1.955 . S
O450 C463 1.273 . S
O451 Mg440 2.114 . S
O451 Mg442 2.291 . S
O451 C453 1.312 . S
O452 Mg437 2.031 . S
O452 C453 1.208 . S
C453 O451 1.312 . S
C453 O452 1.208 . S
C454 O446 1.331 . S
C454 O449 1.244 . S
O455 Mg440 2.013 . S
O455 C444 1.191 . S
O456 C435 1.331 . S
O456 Mg442 2.081 . S
O457 Mg438 1.986 . S
O457 C444 1.307 . S
O458 C436 1.264 . S
O458 Mg442 2.023 . S
O459 C435 1.244 . S
O459 Mg443 1.942 . S
O460 C436 1.273 . S
O460 Mg443 1.955 . S
O461 C434 1.312 . S
O461 Mg437 2.291 . S
O461 Mg440 2.114 . S
O462 C434 1.208 . S
O462 Mg442 2.031 . S
C463 O448 1.264 . S
C463 O450 1.273 . S
C464 O445 1.191 . S
C464 O447 1.307 . S
C465 O492 1.312 . S
C465 O493 1.208 . S
C466 O487 1.331 . S
C466 O490 1.244 . S
C467 O489 1.264 . S
C467 O491 1.273 . S
Mg468 O470 1.936 . S
Mg468 O477 2.081 . S
Mg468 O479 2.023 . S
Mg468 O483 2.031 . S
Mg468 O492 2.291 . S
Mg469 O470 1.963 . S
Mg469 O480 1.942 . S
Mg469 O481 1.955 . S
Mg469 O488 1.986 . S
O470 Mg468 1.936 . S
O470 Mg469 1.963 . S
O470 Mg471 1.915 . S
Mg471 O470 1.915 . S
Mg471 O472 1.915 . S
Mg471 O476 2.013 . S
Mg471 O482 2.114 . S
Mg471 O486 2.013 . S
Mg471 O492 2.114 . S
O472 Mg471 1.915 . S
O472 Mg473 1.936 . S
O472 Mg474 1.963 . S
Mg473 O472 1.936 . S
Mg473 O482 2.291 . S
Mg473 O487 2.081 . S
Mg473 O489 2.023 . S
Mg473 O493 2.031 . S
Mg474 O472 1.963 . S
Mg474 O478 1.986 . S
Mg474 O490 1.942 . S
Mg474 O491 1.955 . S
C475 O486 1.191 . S
C475 O488 1.307 . S
O476 Mg471 2.013 . S
O476 C495 1.191 . S
O477 Mg468 2.081 . S
O477 C485 1.331 . S
O478 Mg474 1.986 . S
O478 C495 1.307 . S
O479 Mg468 2.023 . S
O479 C494 1.264 . S
O480 Mg469 1.942 . S
O480 C485 1.244 . S
O481 Mg469 1.955 . S
O481 C494 1.273 . S
O482 Mg471 2.114 . S
O482 Mg473 2.291 . S
O482 C484 1.312 . S
O483 Mg468 2.031 . S
O483 C484 1.208 . S
C484 O482 1.312 . S
C484 O483 1.208 . S
C485 O477 1.331 . S
C485 O480 1.244 . S
O486 Mg471 2.013 . S
O486 C475 1.191 . S
O487 C466 1.331 . S
O487 Mg473 2.081 . S
O488 Mg469 1.986 . S
O488 C475 1.307 . S
O489 C467 1.264 . S
O489 Mg473 2.023 . S
O490 C466 1.244 . S
O490 Mg474 1.942 . S
O491 C467 1.273 . S
O491 Mg474 1.955 . S
O492 C465 1.312 . S
O492 Mg468 2.291 . S
O492 Mg471 2.114 . S
O493 C465 1.208 . S
O493 Mg473 2.031 . S
C494 O479 1.264 . S
C494 O481 1.273 . S
C495 O476 1.191 . S
C495 O478 1.307 . S
C496 C497 1.349 . S
C496 C498 1.327 . S
C496 H521 0.950 . S
C497 C496 1.349 . S
C497 C513 1.349 . S
C498 C496 1.327 . S
C498 C517 1.429 . S
C498 H522 0.950 . S
C499 C516 1.574 . S
C499 C518 1.368 . S
C499 H523 0.949 . S
H500 C504 0.949 . S
C501 C502 1.349 . S
C501 C503 1.327 . S
C501 H524 0.950 . S
C502 C501 1.349 . S
C502 C514 1.349 . S
C503 C501 1.327 . S
C503 C519 1.429 . S
C503 H525 0.950 . S
C504 H500 0.949 . S
C504 C512 1.574 . S
C504 C520 1.368 . S
H505 C513 0.950 . S
H506 C511 0.950 . S
H507 C512 0.949 . S
H508 C514 0.950 . S
H509 C515 0.950 . S
H510 C516 0.949 . S
C511 H506 0.950 . S
C511 C513 1.327 . S
C511 C517 1.429 . S
C512 C504 1.574 . S
C512 H507 0.949 . S
C512 C518 1.368 . S
C513 C497 1.349 . S
C513 H505 0.950 . S
C513 C511 1.327 . S
C514 C502 1.349 . S
C514 H508 0.950 . S
C514 C515 1.327 . S
C515 H509 0.950 . S
C515 C514 1.327 . S
C515 C519 1.429 . S
C516 C499 1.574 . S
C516 H510 0.949 . S
C516 C520 1.368 . S
C517 C498 1.429 . S
C517 C511 1.429 . S
C517 C518 1.523 . S
C518 C499 1.368 . S
C518 C512 1.368 . S
C518 C517 1.523 . S
C519 C503 1.429 . S
C519 C515 1.429 . S
C519 C520 1.523 . S
C520 C504 1.368 . S
C520 C516 1.368 . S
C520 C519 1.523 . S
H521 C496 0.950 . S
H522 C498 0.950 . S
H523 C499 0.949 . S
H524 C501 0.950 . S
H525 C503 0.950 . S
C526 C527 1.349 . S
C526 C528 1.327 . S
C526 H551 0.950 . S
C527 C526 1.349 . S
C527 C543 1.349 . S
C528 C526 1.327 . S
C528 C547 1.429 . S
C528 H552 0.950 . S
C529 C546 1.574 . S
C529 C548 1.368 . S
C529 H553 0.949 . S
H530 C534 0.949 . S
C531 C532 1.349 . S
C531 C533 1.327 . S
C531 H554 0.950 . S
C532 C531 1.349 . S
C532 C544 1.349 . S
C533 C531 1.327 . S
C533 C549 1.429 . S
C533 H555 0.950 . S
C534 H530 0.949 . S
C534 C542 1.574 . S
C534 C550 1.368 . S
H535 C543 0.950 . S
H536 C541 0.950 . S
H537 C542 0.949 . S
H538 C544 0.950 . S
H539 C545 0.950 . S
H540 C546 0.949 . S
C541 H536 0.950 . S
C541 C543 1.327 . S
C541 C547 1.429 . S
C542 C534 1.574 . S
C542 H537 0.949 . S
C542 C548 1.368 . S
C543 C527 1.349 . S
C543 H535 0.950 . S
C543 C541 1.327 . S
C544 C532 1.349 . S
C544 H538 0.950 . S
C544 C545 1.327 . S
C545 H539 0.950 . S
C545 C544 1.327 . S
C545 C549 1.429 . S
C546 C529 1.574 . S
C546 H540 0.949 . S
C546 C550 1.368 . S
C547 C528 1.429 . S
C547 C541 1.429 . S
C547 C548 1.523 . S
C548 C529 1.368 . S
C548 C542 1.368 . S
C548 C547 1.523 . S
C549 C533 1.429 . S
C549 C545 1.429 . S
C549 C550 1.523 . S
C550 C534 1.368 . S
C550 C546 1.368 . S
C550 C549 1.523 . S
H551 C526 0.950 . S
H552 C528 0.950 . S
H553 C529 0.949 . S
H554 C531 0.950 . S
H555 C533 0.950 . S
C556 C557 1.349 . S
C556 C558 1.327 . S
C556 H581 0.950 . S
C557 C556 1.349 . S
C557 C573 1.349 . S
C558 C556 1.327 . S
C558 C577 1.429 . S
C558 H582 0.950 . S
C559 C576 1.574 . S
C559 C578 1.368 . S
C559 H583 0.949 . S
H560 C564 0.949 . S
C561 C562 1.349 . S
C561 C563 1.327 . S
C561 H584 0.950 . S
C562 C561 1.349 . S
C562 C574 1.349 . S
C563 C561 1.327 . S
C563 C579 1.429 . S
C563 H585 0.950 . S
C564 H560 0.949 . S
C564 C572 1.574 . S
C564 C580 1.368 . S
H565 C573 0.950 . S
H566 C571 0.950 . S
H567 C572 0.949 . S
H568 C574 0.950 . S
H569 C575 0.950 . S
H570 C576 0.949 . S
C571 H566 0.950 . S
C571 C573 1.327 . S
C571 C577 1.429 . S
C572 C564 1.574 . S
C572 H567 0.949 . S
C572 C578 1.368 . S
C573 C557 1.349 . S
C573 H565 0.950 . S
C573 C571 1.327 . S
C574 C562 1.349 . S
C574 H568 0.950 . S
C574 C575 1.327 . S
C575 H569 0.950 . S
C575 C574 1.327 . S
C575 C579 1.429 . S
C576 C559 1.574 . S
C576 H570 0.949 . S
C576 C580 1.368 . S
C577 C558 1.429 . S
C577 C571 1.429 . S
C577 C578 1.523 . S
C578 C559 1.368 . S
C578 C572 1.368 . S
C578 C577 1.523 . S
C579 C563 1.429 . S
C579 C575 1.429 . S
C579 C580 1.523 . S
C580 C564 1.368 . S
C580 C576 1.368 . S
C580 C579 1.523 . S
H581 C556 0.950 . S
H582 C558 0.950 . S
H583 C559 0.949 . S
H584 C561 0.950 . S
H585 C563 0.950 . S
C586 C587 1.349 . S
C586 C588 1.327 . S
C586 H611 0.950 . S
C587 C586 1.349 . S
C587 C603 1.349 . S
C588 C586 1.327 . S
C588 C607 1.429 . S
C588 H612 0.950 . S
C589 C606 1.574 . S
C589 C608 1.368 . S
C589 H613 0.949 . S
H590 C594 0.949 . S
C591 C592 1.349 . S
C591 C593 1.327 . S
C591 H614 0.950 . S
C592 C591 1.349 . S
C592 C604 1.349 . S
C593 C591 1.327 . S
C593 C609 1.399 1_455 S
C593 H615 0.950 . S
C594 H590 0.949 . S
C594 C602 1.574 . S
C594 C610 1.368 . S
H595 C603 0.950 . S
H596 C601 0.950 . S
H597 C602 0.949 . S
H598 C604 0.950 . S
H599 C605 0.961 . S
H600 C606 0.949 . S
C601 H596 0.950 . S
C601 C603 1.327 . S
C601 C607 1.429 . S
C602 C594 1.574 . S
C602 H597 0.949 . S
C602 C608 1.368 . S
C603 C587 1.349 . S
C603 H595 0.950 . S
C603 C601 1.327 . S
C604 C592 1.349 . S
C604 H598 0.950 . S
C604 C605 1.327 . S
C605 H599 0.961 . S
C605 C604 1.327 . S
C605 C609 1.409 1_455 S
C606 C589 1.574 . S
C606 H600 0.949 . S
C606 C610 1.368 . S
C607 C588 1.429 . S
C607 C601 1.429 . S
C607 C608 1.523 . S
C608 C589 1.368 . S
C608 C602 1.368 . S
C608 C607 1.523 . S
C609 C593 1.399 1_655 S
C609 C605 1.409 1_655 S
C609 C610 1.570 . S
C610 C594 1.368 . S
C610 C606 1.368 . S
C610 C609 1.570 . S
H611 C586 0.950 . S
H612 C588 0.950 . S
H613 C589 0.949 . S
H614 C591 0.950 . S
H615 C593 0.950 . S
C616 C617 1.349 . S
C616 C618 1.327 . S
C616 H641 0.950 . S
C617 C616 1.349 . S
C617 C633 1.349 . S
C618 C616 1.327 . S
C618 C637 1.429 . S
C618 H642 0.950 . S
C619 C636 1.574 . S
C619 C638 1.368 . S
C619 H643 0.949 . S
H620 C624 0.949 . S
C621 C622 1.349 . S
C621 C623 1.327 . S
C621 H644 0.950 . S
C622 C621 1.349 . S
C622 C634 1.349 . S
C623 C621 1.327 . S
C623 C639 1.429 . S
C623 H645 0.950 . S
C624 H620 0.949 . S
C624 C632 1.574 . S
C624 C640 1.368 . S
H625 C633 0.950 . S
H626 C631 0.950 . S
H627 C632 0.949 . S
H628 C634 0.950 . S
H629 C635 0.950 . S
H630 C636 0.949 . S
C631 H626 0.950 . S
C631 C633 1.327 . S
C631 C637 1.429 . S
C632 C624 1.574 . S
C632 H627 0.949 . S
C632 C638 1.368 . S
C633 C617 1.349 . S
C633 H625 0.950 . S
C633 C631 1.327 . S
C634 C622 1.349 . S
C634 H628 0.950 . S
C634 C635 1.327 . S
C635 H629 0.950 . S
C635 C634 1.327 . S
C635 C639 1.429 . S
C636 C619 1.574 . S
C636 H630 0.949 . S
C636 C640 1.368 . S
C637 C618 1.429 . S
C637 C631 1.429 . S
C637 C638 1.523 . S
C638 C619 1.368 . S
C638 C632 1.368 . S
C638 C637 1.523 . S
C639 C623 1.429 . S
C639 C635 1.429 . S
C639 C640 1.523 . S
C640 C624 1.368 . S
C640 C636 1.368 . S
C640 C639 1.523 . S
H641 C616 0.950 . S
H642 C618 0.950 . S
H643 C619 0.949 . S
H644 C621 0.950 . S
H645 C623 0.950 . S
C646 C647 1.349 . S
C646 C648 1.327 . S
C646 H671 0.950 . S
C647 C646 1.349 . S
C647 C663 1.349 . S
C648 C646 1.327 . S
C648 C667 1.429 . S
C648 H672 0.950 . S
C649 C666 1.574 . S
C649 C668 1.368 . S
C649 H673 0.949 . S
H650 C654 0.949 . S
C651 C652 1.349 . S
C651 C653 1.327 . S
C651 H674 0.950 . S
C652 C651 1.349 . S
C652 C664 1.349 . S
C653 C651 1.327 . S
C653 C669 1.429 . S
C653 H675 0.950 . S
C654 H650 0.949 . S
C654 C662 1.574 . S
C654 C670 1.368 . S
H655 C663 0.950 . S
H656 C661 0.950 . S
H657 C662 0.949 . S
H658 C664 0.950 . S
H659 C665 0.950 . S
H660 C666 0.949 . S
C661 H656 0.950 . S
C661 C663 1.327 . S
C661 C667 1.429 . S
C662 C654 1.574 . S
C662 H657 0.949 . S
C662 C668 1.368 . S
C663 C647 1.349 . S
C663 H655 0.950 . S
C663 C661 1.327 . S
C664 C652 1.349 . S
C664 H658 0.950 . S
C664 C665 1.327 . S
C665 H659 0.950 . S
C665 C664 1.327 . S
C665 C669 1.429 . S
C666 C649 1.574 . S
C666 H660 0.949 . S
C666 C670 1.368 . S
C667 C648 1.429 . S
C667 C661 1.429 . S
C667 C668 1.523 . S
C668 C649 1.368 . S
C668 C662 1.368 . S
C668 C667 1.523 . S
C669 C653 1.429 . S
C669 C665 1.429 . S
C669 C670 1.523 . S
C670 C654 1.368 . S
C670 C666 1.368 . S
C670 C669 1.523 . S
H671 C646 0.950 . S
H672 C648 0.950 . S
H673 C649 0.949 . S
H674 C651 0.950 . S
H675 C653 0.950 . S
C676 C677 1.349 1_554 S
C676 C678 1.327 . S
C676 H701 0.950 . S
C677 C676 1.349 1_556 S
C677 C693 1.349 . S
C678 C676 1.327 . S
C678 C697 1.429 1_554 S
C678 H702 0.950 . S
C679 C696 1.574 . S
C679 C698 1.368 . S
C679 H703 0.949 . S
H680 C684 0.949 1_554 S
C681 C682 1.349 . S
C681 C683 1.327 . S
C681 H704 0.950 . S
C682 C681 1.349 . S
C682 C694 1.349 . S
C683 C681 1.327 . S
C683 C699 1.429 . S
C683 H705 0.950 . S
C684 H680 0.949 1_556 S
C684 C692 1.574 . S
C684 C700 1.368 . S
H685 C693 0.950 . S
H686 C691 0.950 . S
H687 C692 0.949 1_554 S
H688 C694 0.950 . S
H689 C695 0.950 . S
H690 C696 0.949 . S
C691 H686 0.950 . S
C691 C693 1.327 . S
C691 C697 1.429 . S
C692 C684 1.574 . S
C692 H687 0.949 1_556 S
C692 C698 1.368 . S
C693 C677 1.349 . S
C693 H685 0.950 . S
C693 C691 1.327 . S
C694 C682 1.349 . S
C694 H688 0.950 . S
C694 C695 1.327 . S
C695 H689 0.950 . S
C695 C694 1.327 . S
C695 C699 1.429 . S
C696 C679 1.574 . S
C696 H690 0.949 . S
C696 C700 1.368 . S
C697 C678 1.429 1_556 S
C697 C691 1.429 . S
C697 C698 1.523 . S
C698 C679 1.368 . S
C698 C692 1.368 . S
C698 C697 1.523 . S
C699 C683 1.429 . S
C699 C695 1.429 . S
C699 C700 1.523 . S
C700 C684 1.368 . S
C700 C696 1.368 . S
C700 C699 1.523 . S
H701 C676 0.950 . S
H702 C678 0.950 . S
H703 C679 0.949 . S
H704 C681 0.950 . S
H705 C683 0.950 . S
C706 C707 1.349 . S
C706 C708 1.327 . S
C706 H731 0.950 . S
C707 C706 1.349 . S
C707 C723 1.349 . S
C708 C706 1.327 . S
C708 C727 1.414 1_655 S
C708 H732 0.950 . S
C709 C726 1.574 . S
C709 C728 1.368 . S
C709 H733 0.949 . S
H710 C714 0.949 . S
C711 C712 1.349 . S
C711 C713 1.327 . S
C711 H734 0.950 . S
C712 C711 1.349 . S
C712 C724 1.349 . S
C713 C711 1.327 . S
C713 C729 1.429 . S
C713 H735 0.950 . S
C714 H710 0.949 . S
C714 C722 1.574 . S
C714 C730 1.368 . S
H715 C723 0.950 . S
H716 C721 0.950 . S
H717 C722 0.949 . S
H718 C724 0.950 . S
H719 C725 0.950 . S
H720 C726 0.949 . S
C721 H716 0.950 . S
C721 C723 1.327 . S
C721 C727 1.416 1_655 S
C722 C714 1.574 . S
C722 H717 0.949 . S
C722 C728 1.368 . S
C723 C707 1.349 . S
C723 H715 0.950 . S
C723 C721 1.327 . S
C724 C712 1.349 . S
C724 H718 0.950 . S
C724 C725 1.327 . S
C725 H719 0.950 . S
C725 C724 1.327 . S
C725 C729 1.429 . S
C726 C709 1.574 . S
C726 H720 0.949 . S
C726 C730 1.368 . S
C727 C708 1.414 1_455 S
C727 C721 1.416 1_455 S
C727 C728 1.549 . S
C728 C709 1.368 . S
C728 C722 1.368 . S
C728 C727 1.549 . S
C729 C713 1.429 . S
C729 C725 1.429 . S
C729 C730 1.523 . S
C730 C714 1.368 . S
C730 C726 1.368 . S
C730 C729 1.523 . S
H731 C706 0.950 . S
H732 C708 0.950 . S
H733 C709 0.949 . S
H734 C711 0.950 . S
H735 C713 0.950 . S
C736 C737 1.349 . S
C736 C738 1.327 . S
C736 H761 0.950 . S
C737 C736 1.349 . S
C737 C753 1.349 . S
C738 C736 1.327 . S
C738 C757 1.429 . S
C738 H762 0.950 . S
C739 C756 1.574 . S
C739 C758 1.368 . S
C739 H763 0.949 . S
H740 C744 0.949 1_556 S
C741 C742 1.349 . S
C741 C743 1.327 . S
C741 H764 0.950 . S
C742 C741 1.349 . S
C742 C754 1.349 1_554 S
C743 C741 1.327 . S
C743 C759 1.429 . S
C743 H765 0.950 . S
C744 H740 0.949 1_554 S
C744 C752 1.574 . S
C744 C760 1.368 . S
H745 C753 0.950 . S
H746 C751 0.950 . S
H747 C752 0.949 . S
H748 C754 0.950 . S
H749 C755 0.950 1_556 S
H750 C756 0.949 . S
C751 H746 0.950 . S
C751 C753 1.327 . S
C751 C757 1.429 . S
C752 C744 1.574 . S
C752 H747 0.949 . S
C752 C758 1.368 . S
C753 C737 1.349 . S
C753 H745 0.950 . S
C753 C751 1.327 . S
C754 C742 1.349 1_556 S
C754 H748 0.950 . S
C754 C755 1.327 1_556 S
C755 H749 0.950 1_554 S
C755 C754 1.327 1_554 S
C755 C759 1.429 . S
C756 C739 1.574 . S
C756 H750 0.949 . S
C756 C760 1.368 . S
C757 C738 1.429 . S
C757 C751 1.429 . S
C757 C758 1.523 . S
C758 C739 1.368 . S
C758 C752 1.368 . S
C758 C757 1.523 . S
C759 C743 1.429 . S
C759 C755 1.429 . S
C759 C760 1.523 . S
C760 C744 1.368 . S
C760 C756 1.368 . S
C760 C759 1.523 . S
H761 C736 0.950 . S
H762 C738 0.950 . S
H763 C739 0.949 . S
H764 C741 0.950 . S
H765 C743 0.950 . S
C766 C767 1.349 . S
C766 C768 1.327 . S
C766 H791 0.950 . S
C767 C766 1.349 . S
C767 C783 1.349 . S
C768 C766 1.327 . S
C768 C787 1.429 1_655 S
C768 H792 0.950 1_655 S
C769 C786 1.574 . S
C769 C788 1.368 . S
C769 H793 0.949 . S
H770 C774 0.949 . S
C771 C772 1.349 . S
C771 C773 1.327 . S
C771 H794 0.950 . S
C772 C771 1.349 . S
C772 C784 1.349 . S
C773 C771 1.327 . S
C773 C789 1.429 . S
C773 H795 0.950 . S
C774 H770 0.949 . S
C774 C782 1.574 . S
C774 C790 1.368 . S
H775 C783 0.950 . S
H776 C781 0.950 . S
H777 C782 0.949 . S
H778 C784 0.950 . S
H779 C785 0.950 . S
H780 C786 0.949 . S
C781 H776 0.950 . S
C781 C783 1.327 . S
C781 C787 1.429 1_655 S
C782 C774 1.574 . S
C782 H777 0.949 . S
C782 C788 1.368 . S
C783 C767 1.349 . S
C783 H775 0.950 . S
C783 C781 1.327 . S
C784 C772 1.349 . S
C784 H778 0.950 . S
C784 C785 1.327 . S
C785 H779 0.950 . S
C785 C784 1.327 . S
C785 C789 1.429 . S
C786 C769 1.574 . S
C786 H780 0.949 . S
C786 C790 1.368 . S
C787 C768 1.429 1_455 S
C787 C781 1.429 1_455 S
C787 C788 1.523 . S
C788 C769 1.368 . S
C788 C782 1.368 . S
C788 C787 1.523 . S
C789 C773 1.429 . S
C789 C785 1.429 . S
C789 C790 1.523 . S
C790 C774 1.368 . S
C790 C786 1.368 . S
C790 C789 1.523 . S
H791 C766 0.950 . S
H792 C768 0.950 1_455 S
H793 C769 0.949 . S
H794 C771 0.950 . S
H795 C773 0.950 . S
C796 C797 1.349 . S
C796 C798 1.327 . S
C796 H821 0.950 . S
C797 C796 1.349 . S
C797 C813 1.349 . S
C798 C796 1.327 . S
C798 C817 1.429 . S
C798 H822 0.950 . S
C799 C816 1.574 . S
C799 C818 1.368 . S
C799 H823 0.949 . S
H800 C804 0.949 . S
C801 C802 1.349 . S
C801 C803 1.327 . S
C801 H824 0.950 . S
C802 C801 1.349 . S
C802 C814 1.349 . S
C803 C801 1.327 . S
C803 C819 1.429 . S
C803 H825 0.950 . S
C804 H800 0.949 . S
C804 C812 1.574 . S
C804 C820 1.368 . S
H805 C813 0.950 . S
H806 C811 0.950 . S
H807 C812 0.949 . S
H808 C814 0.950 . S
H809 C815 0.950 . S
H810 C816 0.949 . S
C811 H806 0.950 . S
C811 C813 1.327 . S
C811 C817 1.429 . S
C812 C804 1.574 . S
C812 H807 0.949 . S
C812 C818 1.368 . S
C813 C797 1.349 . S
C813 H805 0.950 . S
C813 C811 1.327 . S
C814 C802 1.349 . S
C814 H808 0.950 . S
C814 C815 1.327 . S
C815 H809 0.950 . S
C815 C814 1.327 . S
C815 C819 1.429 . S
C816 C799 1.574 . S
C816 H810 0.949 . S
C816 C820 1.368 . S
C817 C798 1.429 . S
C817 C811 1.429 . S
C817 C818 1.523 . S
C818 C799 1.368 . S
C818 C812 1.368 . S
C818 C817 1.523 . S
C819 C803 1.429 . S
C819 C815 1.429 . S
C819 C820 1.523 . S
C820 C804 1.368 . S
C820 C816 1.368 . S
C820 C819 1.523 . S
H821 C796 0.950 . S
H822 C798 0.950 . S
H823 C799 0.949 . S
H824 C801 0.950 . S
H825 C803 0.950 . S
C826 C827 1.349 . S
C826 C828 1.327 . S
C826 H851 0.950 . S
C827 C826 1.349 . S
C827 C843 1.349 . S
C828 C826 1.327 . S
C828 C847 1.429 . S
C828 H852 0.950 . S
C829 C846 1.574 . S
C829 C848 1.368 . S
C829 H853 0.949 . S
H830 C834 0.949 . S
C831 C832 1.349 . S
C831 C833 1.327 . S
C831 H854 0.950 . S
C832 C831 1.349 . S
C832 C844 1.349 . S
C833 C831 1.327 . S
C833 C849 1.429 . S
C833 H855 0.950 . S
C834 H830 0.949 . S
C834 C842 1.574 . S
C834 C850 1.368 . S
H835 C843 0.950 . S
H836 C841 0.950 . S
H837 C842 0.949 . S
H838 C844 0.950 . S
H839 C845 0.950 . S
H840 C846 0.949 . S
C841 H836 0.950 . S
C841 C843 1.327 . S
C841 C847 1.429 . S
C842 C834 1.574 . S
C842 H837 0.949 . S
C842 C848 1.368 . S
C843 C827 1.349 . S
C843 H835 0.950 . S
C843 C841 1.327 . S
C844 C832 1.349 . S
C844 H838 0.950 . S
C844 C845 1.327 . S
C845 H839 0.950 . S
C845 C844 1.327 . S
C845 C849 1.429 . S
C846 C829 1.574 . S
C846 H840 0.949 . S
C846 C850 1.368 . S
C847 C828 1.429 . S
C847 C841 1.429 . S
C847 C848 1.523 . S
C848 C829 1.368 . S
C848 C842 1.368 . S
C848 C847 1.523 . S
C849 C833 1.429 . S
C849 C845 1.429 . S
C849 C850 1.523 . S
C850 C834 1.368 . S
C850 C846 1.368 . S
C850 C849 1.523 . S
H851 C826 0.950 . S
H852 C828 0.950 . S
H853 C829 0.949 . S
H854 C831 0.950 . S
H855 C833 0.950 . S
C856 C857 1.349 . S
C856 C858 1.327 . S
C856 H881 0.950 . S
C857 C856 1.349 . S
C857 C873 1.349 . S
C858 C856 1.327 . S
C858 C877 1.429 . S
C858 H882 0.950 . S
C859 C876 1.574 . S
C859 C878 1.368 . S
C859 H883 0.949 . S
H860 C864 0.949 1_554 S
C861 C862 1.349 . S
C861 C863 1.327 . S
C861 H884 0.950 . S
C862 C861 1.349 . S
C862 C874 1.349 1_556 S
C863 C861 1.327 . S
C863 C879 1.429 . S
C863 H885 0.950 . S
C864 H860 0.949 1_556 S
C864 C872 1.574 . S
C864 C880 1.368 . S
H865 C873 0.950 . S
H866 C871 0.950 . S
H867 C872 0.949 1_554 S
H868 C874 0.950 . S
H869 C875 0.950 . S
H870 C876 0.949 . S
C871 H866 0.950 . S
C871 C873 1.327 . S
C871 C877 1.429 . S
C872 C864 1.574 . S
C872 H867 0.949 1_556 S
C872 C878 1.368 . S
C873 C857 1.349 . S
C873 H865 0.950 . S
C873 C871 1.327 . S
C874 C862 1.349 1_554 S
C874 H868 0.950 . S
C874 C875 1.327 . S
C875 H869 0.950 . S
C875 C874 1.327 . S
C875 C879 1.429 1_554 S
C876 C859 1.574 . S
C876 H870 0.949 . S
C876 C880 1.368 . S
C877 C858 1.429 . S
C877 C871 1.429 . S
C877 C878 1.523 . S
C878 C859 1.368 . S
C878 C872 1.368 . S
C878 C877 1.523 . S
C879 C863 1.429 . S
C879 C875 1.429 1_556 S
C879 C880 1.523 . S
C880 C864 1.368 . S
C880 C876 1.368 . S
C880 C879 1.523 . S
H881 C856 0.950 . S
H882 C858 0.950 . S
H883 C859 0.949 . S
H884 C861 0.950 . S
H885 C863 0.950 . S
C886 C887 1.349 . S
C886 C888 1.327 . S
C886 H911 0.950 . S
C887 C886 1.349 . S
C887 C903 1.349 . S
C888 C886 1.327 . S
C888 C907 1.429 . S
C888 H912 0.950 . S
C889 C906 1.574 . S
C889 C908 1.368 . S
C889 H913 0.949 . S
H890 C894 0.949 . S
C891 C892 1.349 . S
C891 C893 1.391 . S
C891 H914 0.950 . S
C892 C891 1.349 . S
C892 C904 1.349 . S
C893 C891 1.391 . S
C893 C909 1.407 1_455 S
C893 H915 0.909 1_455 S
C894 H890 0.949 . S
C894 C902 1.574 . S
C894 C910 1.368 . S
H895 C903 0.950 . S
H896 C901 0.950 . S
H897 C902 0.949 . S
H898 C904 0.950 . S
H899 C905 0.950 . S
H900 C906 0.949 . S
C901 H896 0.950 . S
C901 C903 1.327 . S
C901 C907 1.429 . S
C902 C894 1.574 . S
C902 H897 0.949 . S
C902 C908 1.368 . S
C903 C887 1.349 . S
C903 H895 0.950 . S
C903 C901 1.327 . S
C904 C892 1.349 . S
C904 H898 0.950 . S
C904 C905 1.327 . S
C905 H899 0.950 . S
C905 C904 1.327 . S
C905 C909 1.429 1_455 S
C906 C889 1.574 . S
C906 H900 0.949 . S
C906 C910 1.368 . S
C907 C888 1.429 . S
C907 C901 1.429 . S
C907 C908 1.523 . S
C908 C889 1.368 . S
C908 C902 1.368 . S
C908 C907 1.523 . S
C909 C893 1.407 1_655 S
C909 C905 1.429 1_655 S
C909 C910 1.523 . S
C910 C894 1.368 . S
C910 C906 1.368 . S
C910 C909 1.523 . S
H911 C886 0.950 . S
H912 C888 0.950 . S
H913 C889 0.949 . S
H914 C891 0.950 . S
H915 C893 0.909 1_655 S
C916 C917 1.349 . S
C916 C918 1.327 . S
C916 H941 0.950 . S
C917 C916 1.349 . S
C917 C933 1.349 . S
C918 C916 1.327 . S
C918 C937 1.429 . S
C918 H942 0.950 . S
C919 C936 1.574 . S
C919 C938 1.368 . S
C919 H943 0.949 . S
H920 C924 0.949 . S
C921 C922 1.349 . S
C921 C923 1.327 . S
C921 H944 0.950 . S
C922 C921 1.349 . S
C922 C934 1.349 . S
C923 C921 1.327 . S
C923 C939 1.429 . S
C923 H945 0.950 . S
C924 H920 0.949 . S
C924 C932 1.574 . S
C924 C940 1.368 . S
H925 C933 0.950 . S
H926 C931 0.950 . S
H927 C932 0.949 . S
H928 C934 0.950 . S
H929 C935 0.950 . S
H930 C936 0.949 . S
C931 H926 0.950 . S
C931 C933 1.327 . S
C931 C937 1.429 . S
C932 C924 1.574 . S
C932 H927 0.949 . S
C932 C938 1.368 . S
C933 C917 1.349 . S
C933 H925 0.950 . S
C933 C931 1.327 . S
C934 C922 1.349 . S
C934 H928 0.950 . S
C934 C935 1.327 . S
C935 H929 0.950 . S
C935 C934 1.327 . S
C935 C939 1.429 . S
C936 C919 1.574 . S
C936 H930 0.949 . S
C936 C940 1.368 . S
C937 C918 1.429 . S
C937 C931 1.429 . S
C937 C938 1.523 . S
C938 C919 1.368 . S
C938 C932 1.368 . S
C938 C937 1.523 . S
C939 C923 1.429 . S
C939 C935 1.429 . S
C939 C940 1.523 . S
C940 C924 1.368 . S
C940 C936 1.368 . S
C940 C939 1.523 . S
H941 C916 0.950 . S
H942 C918 0.950 . S
H943 C919 0.949 . S
H944 C921 0.950 . S
H945 C923 0.950 . S
C946 C947 1.349 . S
C946 C948 1.327 . S
C946 H971 0.950 . S
C947 C946 1.349 . S
C947 C963 1.349 . S
C948 C946 1.327 . S
C948 C967 1.429 . S
C948 H972 0.950 . S
C949 C966 1.574 . S
C949 C968 1.368 . S
C949 H973 0.949 . S
H950 C954 0.949 . S
C951 C952 1.349 . S
C951 C953 1.327 . S
C951 H974 0.950 . S
C952 C951 1.349 . S
C952 C964 1.349 . S
C953 C951 1.327 . S
C953 C969 1.429 . S
C953 H975 0.950 . S
C954 H950 0.949 . S
C954 C962 1.574 . S
C954 C970 1.368 . S
H955 C963 0.950 . S
H956 C961 0.950 . S
H957 C962 0.949 . S
H958 C964 0.950 . S
H959 C965 0.950 . S
H960 C966 0.949 . S
C961 H956 0.950 . S
C961 C963 1.327 . S
C961 C967 1.429 . S
C962 C954 1.574 . S
C962 H957 0.949 . S
C962 C968 1.368 . S
C963 C947 1.349 . S
C963 H955 0.950 . S
C963 C961 1.327 . S
C964 C952 1.349 . S
C964 H958 0.950 . S
C964 C965 1.327 . S
C965 H959 0.950 . S
C965 C964 1.327 . S
C965 C969 1.429 . S
C966 C949 1.574 . S
C966 H960 0.949 . S
C966 C970 1.368 . S
C967 C948 1.429 . S
C967 C961 1.429 . S
C967 C968 1.523 . S
C968 C949 1.368 . S
C968 C962 1.368 . S
C968 C967 1.523 . S
C969 C953 1.429 . S
C969 C965 1.429 . S
C969 C970 1.523 . S
C970 C954 1.368 . S
C970 C966 1.368 . S
C970 C969 1.523 . S
H971 C946 0.950 . S
H972 C948 0.950 . S
H973 C949 0.949 . S
H974 C951 0.950 . S
H975 C953 0.950 . S
C976 C977 1.349 . S
C976 C978 1.327 . S
C976 H1001 0.950 . S
C977 C976 1.349 . S
C977 C993 1.349 . S
C978 C976 1.327 . S
C978 C997 1.429 . S
C978 H1002 0.950 . S
C979 C996 1.574 1_554 S
C979 C998 1.368 . S
C979 H1003 0.949 . S
H980 C984 0.949 . S
C981 C982 1.349 . S
C981 C983 1.327 . S
C981 H1004 0.950 . S
C982 C981 1.349 . S
C982 C994 1.349 . S
C983 C981 1.327 . S
C983 C999 1.429 . S
C983 H1005 0.950 . S
C984 H980 0.949 . S
C984 C992 1.574 1_556 S
C984 C1000 1.368 . S
H985 C993 0.950 . S
H986 C991 0.950 . S
H987 C992 0.949 . S
H988 C994 0.950 . S
H989 C995 0.950 . S
H990 C996 0.949 . S
C991 H986 0.950 . S
C991 C993 1.327 . S
C991 C997 1.429 . S
C992 C984 1.574 1_554 S
C992 H987 0.949 . S
C992 C998 1.368 . S
C993 C977 1.349 . S
C993 H985 0.950 . S
C993 C991 1.327 . S
C994 C982 1.349 . S
C994 H988 0.950 . S
C994 C995 1.327 . S
C995 H989 0.950 . S
C995 C994 1.327 . S
C995 C999 1.429 . S
C996 C979 1.574 1_556 S
C996 H990 0.949 . S
C996 C1000 1.368 . S
C997 C978 1.429 . S
C997 C991 1.429 . S
C997 C998 1.523 . S
C998 C979 1.368 . S
C998 C992 1.368 . S
C998 C997 1.523 . S
C999 C983 1.429 . S
C999 C995 1.429 . S
C999 C1000 1.523 . S
C1000 C984 1.368 . S
C1000 C996 1.368 . S
C1000 C999 1.523 . S
H1001 C976 0.950 . S
H1002 C978 0.950 . S
H1003 C979 0.949 . S
H1004 C981 0.950 . S
H1005 C983 0.950 . S
C1006 C1007 1.349 . S
C1006 C1008 1.327 . S
C1006 H1031 0.950 . S
C1007 C1006 1.349 . S
C1007 C1023 1.349 . S
C1008 C1006 1.327 . S
C1008 C1027 1.429 . S
C1008 H1032 0.950 . S
C1009 C1026 1.574 . S
C1009 C1028 1.368 . S
C1009 H1033 0.949 . S
H1010 C1014 0.949 . S
C1011 C1012 1.349 1_554 S
C1011 C1013 1.327 . S
C1011 H1034 0.950 1_554 S
C1012 C1011 1.349 1_556 S
C1012 C1024 1.349 1_556 S
C1013 C1011 1.327 . S
C1013 C1029 1.429 . S
C1013 H1035 0.950 . S
C1014 H1010 0.949 . S
C1014 C1022 1.574 . S
C1014 C1030 1.368 . S
H1015 C1023 0.950 . S
H1016 C1021 0.950 . S
H1017 C1022 0.949 . S
H1018 C1024 0.950 1_556 S
H1019 C1025 0.950 . S
H1020 C1026 0.949 . S
C1021 H1016 0.950 . S
C1021 C1023 1.327 . S
C1021 C1027 1.429 . S
C1022 C1014 1.574 . S
C1022 H1017 0.949 . S
C1022 C1028 1.368 . S
C1023 C1007 1.349 . S
C1023 H1015 0.950 . S
C1023 C1021 1.327 . S
C1024 C1012 1.349 1_554 S
C1024 H1018 0.950 1_554 S
C1024 C1025 1.327 . S
C1025 H1019 0.950 . S
C1025 C1024 1.327 . S
C1025 C1029 1.429 . S
C1026 C1009 1.574 . S
C1026 H1020 0.949 . S
C1026 C1030 1.368 . S
C1027 C1008 1.429 . S
C1027 C1021 1.429 . S
C1027 C1028 1.523 . S
C1028 C1009 1.368 . S
C1028 C1022 1.368 . S
C1028 C1027 1.523 . S
C1029 C1013 1.429 . S
C1029 C1025 1.429 . S
C1029 C1030 1.523 . S
C1030 C1014 1.368 . S
C1030 C1026 1.368 . S
C1030 C1029 1.523 . S
H1031 C1006 0.950 . S
H1032 C1008 0.950 . S
H1033 C1009 0.949 . S
H1034 C1011 0.950 1_556 S
H1035 C1013 0.950 . S
C1036 C1037 1.349 . S
C1036 C1038 1.327 . S
C1036 H1061 0.950 . S
C1037 C1036 1.349 . S
C1037 C1053 1.349 . S
C1038 C1036 1.327 . S
C1038 C1057 1.429 . S
C1038 H1062 0.950 . S
C1039 C1056 1.574 . S
C1039 C1058 1.368 . S
C1039 H1063 0.949 . S
H1040 C1044 0.949 . S
C1041 C1042 1.349 . S
C1041 C1043 1.327 . S
C1041 H1064 0.950 . S
C1042 C1041 1.349 . S
C1042 C1054 1.349 . S
C1043 C1041 1.327 . S
C1043 C1059 1.429 . S
C1043 H1065 0.950 . S
C1044 H1040 0.949 . S
C1044 C1052 1.574 . S
C1044 C1060 1.368 . S
H1045 C1053 0.950 . S
H1046 C1051 0.950 . S
H1047 C1052 0.949 . S
H1048 C1054 0.950 . S
H1049 C1055 0.950 . S
H1050 C1056 0.949 . S
C1051 H1046 0.950 . S
C1051 C1053 1.327 . S
C1051 C1057 1.429 . S
C1052 C1044 1.574 . S
C1052 H1047 0.949 . S
C1052 C1058 1.368 . S
C1053 C1037 1.349 . S
C1053 H1045 0.950 . S
C1053 C1051 1.327 . S
C1054 C1042 1.349 . S
C1054 H1048 0.950 . S
C1054 C1055 1.327 . S
C1055 H1049 0.950 . S
C1055 C1054 1.327 . S
C1055 C1059 1.429 . S
C1056 C1039 1.574 . S
C1056 H1050 0.949 . S
C1056 C1060 1.368 . S
C1057 C1038 1.429 . S
C1057 C1051 1.429 . S
C1057 C1058 1.523 . S
C1058 C1039 1.368 . S
C1058 C1052 1.368 . S
C1058 C1057 1.523 . S
C1059 C1043 1.429 . S
C1059 C1055 1.429 . S
C1059 C1060 1.523 . S
C1060 C1044 1.368 . S
C1060 C1056 1.368 . S
C1060 C1059 1.523 . S
H1061 C1036 0.950 . S
H1062 C1038 0.950 . S
H1063 C1039 0.949 . S
H1064 C1041 0.950 . S
H1065 C1043 0.950 . S
C1066 C1067 1.349 . S
C1066 C1068 1.327 . S
C1066 H1091 0.950 . S
C1067 C1066 1.349 . S
C1067 C1083 1.349 . S
C1068 C1066 1.327 . S
C1068 C1087 1.429 . S
C1068 H1092 0.950 . S
C1069 C1086 1.574 . S
C1069 C1088 1.368 . S
C1069 H1093 0.949 . S
H1070 C1074 0.949 . S
C1071 C1072 1.349 . S
C1071 C1073 1.327 1_554 S
C1071 H1094 0.950 . S
C1072 C1071 1.349 . S
C1072 C1084 1.349 . S
C1073 C1071 1.327 1_556 S
C1073 C1089 1.429 . S
C1073 H1095 0.950 . S
C1074 H1070 0.949 . S
C1074 C1082 1.574 . S
C1074 C1090 1.368 . S
H1075 C1083 0.950 . S
H1076 C1081 0.950 . S
H1077 C1082 0.949 . S
H1078 C1084 0.950 . S
H1079 C1085 0.950 . S
H1080 C1086 0.949 . S
C1081 H1076 0.950 . S
C1081 C1083 1.327 . S
C1081 C1087 1.429 . S
C1082 C1074 1.574 . S
C1082 H1077 0.949 . S
C1082 C1088 1.368 . S
C1083 C1067 1.349 . S
C1083 H1075 0.950 . S
C1083 C1081 1.327 . S
C1084 C1072 1.349 . S
C1084 H1078 0.950 . S
C1084 C1085 1.327 1_554 S
C1085 H1079 0.950 . S
C1085 C1084 1.327 1_556 S
C1085 C1089 1.429 . S
C1086 C1069 1.574 . S
C1086 H1080 0.949 . S
C1086 C1090 1.368 . S
C1087 C1068 1.429 . S
C1087 C1081 1.429 . S
C1087 C1088 1.523 . S
C1088 C1069 1.368 . S
C1088 C1082 1.368 . S
C1088 C1087 1.523 . S
C1089 C1073 1.429 . S
C1089 C1085 1.429 . S
C1089 C1090 1.523 . S
C1090 C1074 1.368 . S
C1090 C1086 1.368 . S
C1090 C1089 1.523 . S
H1091 C1066 0.950 . S
H1092 C1068 0.950 . S
H1093 C1069 0.949 . S
H1094 C1071 0.950 . S
H1095 C1073 0.950 . S
C1096 C1097 1.349 . S
C1096 C1098 1.327 . S
C1096 H1121 0.950 . S
C1097 C1096 1.349 . S
C1097 C1113 1.349 . S
C1098 C1096 1.327 . S
C1098 C1117 1.429 . S
C1098 H1122 0.950 . S
C1099 C1116 1.574 1_554 S
C1099 C1118 1.368 . S
C1099 H1123 0.949 . S
H1100 C1104 0.949 . S
C1101 C1102 1.349 . S
C1101 C1103 1.327 . S
C1101 H1124 0.950 . S
C1102 C1101 1.349 . S
C1102 C1114 1.349 . S
C1103 C1101 1.327 . S
C1103 C1119 1.429 . S
C1103 H1125 0.950 . S
C1104 H1100 0.949 . S
C1104 C1112 1.574 1_556 S
C1104 C1120 1.368 . S
H1105 C1113 0.950 . S
H1106 C1111 0.950 . S
H1107 C1112 0.949 . S
H1108 C1114 0.950 . S
H1109 C1115 0.950 . S
H1110 C1116 0.949 . S
C1111 H1106 0.950 . S
C1111 C1113 1.327 . S
C1111 C1117 1.429 . S
C1112 C1104 1.574 1_554 S
C1112 H1107 0.949 . S
C1112 C1118 1.368 . S
C1113 C1097 1.349 . S
C1113 H1105 0.950 . S
C1113 C1111 1.327 . S
C1114 C1102 1.349 . S
C1114 H1108 0.950 . S
C1114 C1115 1.327 . S
C1115 H1109 0.950 . S
C1115 C1114 1.327 . S
C1115 C1119 1.429 . S
C1116 C1099 1.574 1_556 S
C1116 H1110 0.949 . S
C1116 C1120 1.368 . S
C1117 C1098 1.429 . S
C1117 C1111 1.429 . S
C1117 C1118 1.523 . S
C1118 C1099 1.368 . S
C1118 C1112 1.368 . S
C1118 C1117 1.523 . S
C1119 C1103 1.429 . S
C1119 C1115 1.429 . S
C1119 C1120 1.523 . S
C1120 C1104 1.368 . S
C1120 C1116 1.368 . S
C1120 C1119 1.523 . S
H1121 C1096 0.950 . S
H1122 C1098 0.950 . S
H1123 C1099 0.949 . S
H1124 C1101 0.950 . S
H1125 C1103 0.950 . S
C1126 C1127 1.349 . S
C1126 C1128 1.327 . S
C1126 H1151 0.950 . S
C1127 C1126 1.349 . S
C1127 C1143 1.349 . S
C1128 C1126 1.327 . S
C1128 C1147 1.429 . S
C1128 H1152 0.950 . S
C1129 C1146 1.574 . S
C1129 C1148 1.368 . S
C1129 H1153 0.949 . S
H1130 C1134 0.949 . S
C1131 C1132 1.349 . S
C1131 C1133 1.327 1_554 S
C1131 H1154 0.950 . S
C1132 C1131 1.349 . S
C1132 C1144 1.349 . S
C1133 C1131 1.327 1_556 S
C1133 C1149 1.429 . S
C1133 H1155 0.950 . S
C1134 H1130 0.949 . S
C1134 C1142 1.574 . S
C1134 C1150 1.368 . S
H1135 C1143 0.950 . S
H1136 C1141 0.950 . S
H1137 C1142 0.949 . S
H1138 C1144 0.950 . S
H1139 C1145 0.950 . S
H1140 C1146 0.949 . S
C1141 H1136 0.950 . S
C1141 C1143 1.327 . S
C1141 C1147 1.429 . S
C1142 C1134 1.574 . S
C1142 H1137 0.949 . S
C1142 C1148 1.368 . S
C1143 C1127 1.349 . S
C1143 H1135 0.950 . S
C1143 C1141 1.327 . S
C1144 C1132 1.349 . S
C1144 H1138 0.950 . S
C1144 C1145 1.327 1_554 S
C1145 H1139 0.950 . S
C1145 C1144 1.327 1_556 S
C1145 C1149 1.429 . S
C1146 C1129 1.574 . S
C1146 H1140 0.949 . S
C1146 C1150 1.368 . S
C1147 C1128 1.429 . S
C1147 C1141 1.429 . S
C1147 C1148 1.523 . S
C1148 C1129 1.368 . S
C1148 C1142 1.368 . S
C1148 C1147 1.523 . S
C1149 C1133 1.429 . S
C1149 C1145 1.429 . S
C1149 C1150 1.523 . S
C1150 C1134 1.368 . S
C1150 C1146 1.368 . S
C1150 C1149 1.523 . S
H1151 C1126 0.950 . S
H1152 C1128 0.950 . S
H1153 C1129 0.949 . S
H1154 C1131 0.950 . S
H1155 C1133 0.950 . S
C1156 C1157 1.349 . S
C1156 C1158 1.327 . S
C1156 H1181 0.950 . S
C1157 C1156 1.349 . S
C1157 C1173 1.349 . S
C1158 C1156 1.327 . S
C1158 C1177 1.429 . S
C1158 H1182 0.950 . S
C1159 C1176 1.574 . S
C1159 C1178 1.368 . S
C1159 H1183 0.949 . S
H1160 C1164 0.949 . S
C1161 C1162 1.349 . S
C1161 C1163 1.327 . S
C1161 H1184 0.950 . S
C1162 C1161 1.349 . S
C1162 C1174 1.349 . S
C1163 C1161 1.327 . S
C1163 C1179 1.429 . S
C1163 H1185 0.950 . S
C1164 H1160 0.949 . S
C1164 C1172 1.574 . S
C1164 C1180 1.368 . S
H1165 C1173 0.950 . S
H1166 C1171 0.950 . S
H1167 C1172 0.949 . S
H1168 C1174 0.950 . S
H1169 C1175 0.950 . S
H1170 C1176 0.949 . S
C1171 H1166 0.950 . S
C1171 C1173 1.327 . S
C1171 C1177 1.429 . S
C1172 C1164 1.574 . S
C1172 H1167 0.949 . S
C1172 C1178 1.368 . S
C1173 C1157 1.349 . S
C1173 H1165 0.950 . S
C1173 C1171 1.327 . S
C1174 C1162 1.349 . S
C1174 H1168 0.950 . S
C1174 C1175 1.327 . S
C1175 H1169 0.950 . S
C1175 C1174 1.327 . S
C1175 C1179 1.429 . S
C1176 C1159 1.574 . S
C1176 H1170 0.949 . S
C1176 C1180 1.368 . S
C1177 C1158 1.429 . S
C1177 C1171 1.429 . S
C1177 C1178 1.523 . S
C1178 C1159 1.368 . S
C1178 C1172 1.368 . S
C1178 C1177 1.523 . S
C1179 C1163 1.429 . S
C1179 C1175 1.429 . S
C1179 C1180 1.523 . S
C1180 C1164 1.368 . S
C1180 C1176 1.368 . S
C1180 C1179 1.523 . S
H1181 C1156 0.950 . S
H1182 C1158 0.950 . S
H1183 C1159 0.949 . S
H1184 C1161 0.950 . S
H1185 C1163 0.950 . S
C1186 C1187 1.349 . S
C1186 C1188 1.327 . S
C1186 H1211 0.950 . S
C1187 C1186 1.349 . S
C1187 C1203 1.349 . S
C1188 C1186 1.327 . S
C1188 C1207 1.429 . S
C1188 H1212 0.950 . S
C1189 C1206 1.574 . S
C1189 C1208 1.368 . S
C1189 H1213 0.949 . S
H1190 C1194 0.949 . S
C1191 C1192 1.349 . S
C1191 C1193 1.327 1_556 S
C1191 H1214 0.950 . S
C1192 C1191 1.349 . S
C1192 C1204 1.352 . S
C1193 C1191 1.327 1_554 S
C1193 C1209 1.429 . S
C1193 H1215 0.950 . S
C1194 H1190 0.949 . S
C1194 C1202 1.574 . S
C1194 C1210 1.368 . S
H1195 C1203 0.950 . S
H1196 C1201 0.950 . S
H1197 C1202 0.949 . S
H1198 C1204 0.952 . S
H1199 C1205 0.950 . S
H1200 C1206 0.949 . S
C1201 H1196 0.950 . S
C1201 C1203 1.327 . S
C1201 C1207 1.429 . S
C1202 C1194 1.574 . S
C1202 H1197 0.949 . S
C1202 C1208 1.368 . S
C1203 C1187 1.349 . S
C1203 H1195 0.950 . S
C1203 C1201 1.327 . S
C1204 C1192 1.352 . S
C1204 H1198 0.952 . S
C1204 C1205 1.322 1_556 S
C1205 H1199 0.950 . S
C1205 C1204 1.322 1_554 S
C1205 C1209 1.429 . S
C1206 C1189 1.574 . S
C1206 H1200 0.949 . S
C1206 C1210 1.368 . S
C1207 C1188 1.429 . S
C1207 C1201 1.429 . S
C1207 C1208 1.523 . S
C1208 C1189 1.368 . S
C1208 C1202 1.368 . S
C1208 C1207 1.523 . S
C1209 C1193 1.429 . S
C1209 C1205 1.429 . S
C1209 C1210 1.523 . S
C1210 C1194 1.368 . S
C1210 C1206 1.368 . S
C1210 C1209 1.523 . S
H1211 C1186 0.950 . S
H1212 C1188 0.950 . S
H1213 C1189 0.949 . S
H1214 C1191 0.950 . S
H1215 C1193 0.950 . S
C1216 C1217 1.349 . S
C1216 C1218 1.327 . S
C1216 H1241 0.950 . S
C1217 C1216 1.349 . S
C1217 C1233 1.349 . S
C1218 C1216 1.327 . S
C1218 C1237 1.429 . S
C1218 H1242 0.950 . S
C1219 C1236 1.574 . S
C1219 C1238 1.368 . S
C1219 H1243 0.949 . S
H1220 C1224 0.949 . S
C1221 C1222 1.349 . S
C1221 C1223 1.327 . S
C1221 H1244 0.950 . S
C1222 C1221 1.349 . S
C1222 C1234 1.349 . S
C1223 C1221 1.327 . S
C1223 C1239 1.429 . S
C1223 H1245 0.950 . S
C1224 H1220 0.949 . S
C1224 C1232 1.574 . S
C1224 C1240 1.368 . S
H1225 C1233 0.950 . S
H1226 C1231 0.950 . S
H1227 C1232 0.949 . S
H1228 C1234 0.950 . S
H1229 C1235 0.950 . S
H1230 C1236 0.949 . S
C1231 H1226 0.950 . S
C1231 C1233 1.327 . S
C1231 C1237 1.429 . S
C1232 C1224 1.574 . S
C1232 H1227 0.949 . S
C1232 C1238 1.368 . S
C1233 C1217 1.349 . S
C1233 H1225 0.950 . S
C1233 C1231 1.327 . S
C1234 C1222 1.349 . S
C1234 H1228 0.950 . S
C1234 C1235 1.327 . S
C1235 H1229 0.950 . S
C1235 C1234 1.327 . S
C1235 C1239 1.429 . S
C1236 C1219 1.574 . S
C1236 H1230 0.949 . S
C1236 C1240 1.368 . S
C1237 C1218 1.429 . S
C1237 C1231 1.429 . S
C1237 C1238 1.523 . S
C1238 C1219 1.368 . S
C1238 C1232 1.368 . S
C1238 C1237 1.523 . S
C1239 C1223 1.429 . S
C1239 C1235 1.429 . S
C1239 C1240 1.523 . S
C1240 C1224 1.368 . S
C1240 C1236 1.368 . S
C1240 C1239 1.523 . S
H1241 C1216 0.950 . S
H1242 C1218 0.950 . S
H1243 C1219 0.949 . S
H1244 C1221 0.950 . S
H1245 C1223 0.950 . S
C1246 C1247 1.349 . S
C1246 C1248 1.327 1_554 S
C1246 H1271 0.950 . S
C1247 C1246 1.349 . S
C1247 C1263 1.349 . S
C1248 C1246 1.327 1_556 S
C1248 C1267 1.429 . S
C1248 H1272 0.950 . S
C1249 C1266 1.574 . S
C1249 C1268 1.368 . S
C1249 H1273 0.949 . S
H1250 C1254 0.949 . S
C1251 C1252 1.349 . S
C1251 C1253 1.327 . S
C1251 H1274 0.950 . S
C1252 C1251 1.349 . S
C1252 C1264 1.349 . S
C1253 C1251 1.327 . S
C1253 C1269 1.429 . S
C1253 H1275 0.950 . S
C1254 H1250 0.949 . S
C1254 C1262 1.574 . S
C1254 C1270 1.368 . S
H1255 C1263 0.950 . S
H1256 C1261 0.950 . S
H1257 C1262 0.949 . S
H1258 C1264 0.950 . S
H1259 C1265 0.950 . S
H1260 C1266 0.949 . S
C1261 H1256 0.950 . S
C1261 C1263 1.327 1_556 S
C1261 C1267 1.429 . S
C1262 C1254 1.574 . S
C1262 H1257 0.949 . S
C1262 C1268 1.368 . S
C1263 C1247 1.349 . S
C1263 H1255 0.950 . S
C1263 C1261 1.327 1_554 S
C1264 C1252 1.349 . S
C1264 H1258 0.950 . S
C1264 C1265 1.327 . S
C1265 H1259 0.950 . S
C1265 C1264 1.327 . S
C1265 C1269 1.429 . S
C1266 C1249 1.574 . S
C1266 H1260 0.949 . S
C1266 C1270 1.368 . S
C1267 C1248 1.429 . S
C1267 C1261 1.429 . S
C1267 C1268 1.523 . S
C1268 C1249 1.368 . S
C1268 C1262 1.368 . S
C1268 C1267 1.523 . S
C1269 C1253 1.429 . S
C1269 C1265 1.429 . S
C1269 C1270 1.523 . S
C1270 C1254 1.368 . S
C1270 C1266 1.368 . S
C1270 C1269 1.523 . S
H1271 C1246 0.950 . S
H1272 C1248 0.950 . S
H1273 C1249 0.949 . S
H1274 C1251 0.950 . S
H1275 C1253 0.950 . S
C1276 C1277 1.349 . S
C1276 C1278 1.327 . S
C1276 H1301 0.950 . S
C1277 C1276 1.349 . S
C1277 C1293 1.349 . S
C1278 C1276 1.327 . S
C1278 C1297 1.429 . S
C1278 H1302 0.950 . S
C1279 C1296 1.574 1_554 S
C1279 C1298 1.368 . S
C1279 H1303 0.949 . S
H1280 C1284 0.949 . S
C1281 C1282 1.349 . S
C1281 C1283 1.327 . S
C1281 H1304 0.950 . S
C1282 C1281 1.349 . S
C1282 C1294 1.349 . S
C1283 C1281 1.327 . S
C1283 C1299 1.429 . S
C1283 H1305 0.950 . S
C1284 H1280 0.949 . S
C1284 C1292 1.574 1_556 S
C1284 C1300 1.368 . S
H1285 C1293 0.950 . S
H1286 C1291 0.950 . S
H1287 C1292 0.949 . S
H1288 C1294 0.950 . S
H1289 C1295 0.950 . S
H1290 C1296 0.949 . S
C1291 H1286 0.950 . S
C1291 C1293 1.327 . S
C1291 C1297 1.429 . S
C1292 C1284 1.574 1_554 S
C1292 H1287 0.949 . S
C1292 C1298 1.368 . S
C1293 C1277 1.349 . S
C1293 H1285 0.950 . S
C1293 C1291 1.327 . S
C1294 C1282 1.349 . S
C1294 H1288 0.950 . S
C1294 C1295 1.327 . S
C1295 H1289 0.950 . S
C1295 C1294 1.327 . S
C1295 C1299 1.429 . S
C1296 C1279 1.574 1_556 S
C1296 H1290 0.949 . S
C1296 C1300 1.368 . S
C1297 C1278 1.429 . S
C1297 C1291 1.429 . S
C1297 C1298 1.523 . S
C1298 C1279 1.368 . S
C1298 C1292 1.368 . S
C1298 C1297 1.523 . S
C1299 C1283 1.429 . S
C1299 C1295 1.429 . S
C1299 C1300 1.523 . S
C1300 C1284 1.368 . S
C1300 C1296 1.368 . S
C1300 C1299 1.523 . S
H1301 C1276 0.950 . S
H1302 C1278 0.950 . S
H1303 C1279 0.949 . S
H1304 C1281 0.950 . S
H1305 C1283 0.950 . S
C1306 C1307 1.349 . S
C1306 C1308 1.327 . S
C1306 H1331 0.950 . S
C1307 C1306 1.349 . S
C1307 C1323 1.349 . S
C1308 C1306 1.327 . S
C1308 C1327 1.429 . S
C1308 H1332 0.950 . S
C1309 C1326 1.574 . S
C1309 C1328 1.368 . S
C1309 H1333 0.949 . S
H1310 C1314 0.949 . S
C1311 C1312 1.349 1_554 S
C1311 C1313 1.327 . S
C1311 H1334 0.950 . S
C1312 C1311 1.349 1_556 S
C1312 C1324 1.349 1_556 S
C1313 C1311 1.327 . S
C1313 C1329 1.429 . S
C1313 H1335 0.950 . S
C1314 H1310 0.949 . S
C1314 C1322 1.574 . S
C1314 C1330 1.368 . S
H1315 C1323 0.950 . S
H1316 C1321 0.950 . S
H1317 C1322 0.949 . S
H1318 C1324 0.950 . S
H1319 C1325 0.950 . S
H1320 C1326 0.949 . S
C1321 H1316 0.950 . S
C1321 C1323 1.327 . S
C1321 C1327 1.429 . S
C1322 C1314 1.574 . S
C1322 H1317 0.949 . S
C1322 C1328 1.368 . S
C1323 C1307 1.349 . S
C1323 H1315 0.950 . S
C1323 C1321 1.327 . S
C1324 C1312 1.349 1_554 S
C1324 H1318 0.950 . S
C1324 C1325 1.327 . S
C1325 H1319 0.950 . S
C1325 C1324 1.327 . S
C1325 C1329 1.429 . S
C1326 C1309 1.574 . S
C1326 H1320 0.949 . S
C1326 C1330 1.368 . S
C1327 C1308 1.429 . S
C1327 C1321 1.429 . S
C1327 C1328 1.523 . S
C1328 C1309 1.368 . S
C1328 C1322 1.368 . S
C1328 C1327 1.523 . S
C1329 C1313 1.429 . S
C1329 C1325 1.429 . S
C1329 C1330 1.523 . S
C1330 C1314 1.368 . S
C1330 C1326 1.368 . S
C1330 C1329 1.523 . S
H1331 C1306 0.950 . S
H1332 C1308 0.950 . S
H1333 C1309 0.949 . S
H1334 C1311 0.950 . S
H1335 C1313 0.950 . S
C1336 C1337 1.349 . S
C1336 C1338 1.327 . S
C1336 H1361 0.950 . S
C1337 C1336 1.349 . S
C1337 C1353 1.349 . S
C1338 C1336 1.327 . S
C1338 C1357 1.429 . S
C1338 H1362 0.950 . S
C1339 C1356 1.574 . S
C1339 C1358 1.368 . S
C1339 H1363 0.949 . S
H1340 C1344 0.949 . S
C1341 C1342 1.349 . S
C1341 C1343 1.327 . S
C1341 H1364 0.950 . S
C1342 C1341 1.349 . S
C1342 C1354 1.349 . S
C1343 C1341 1.327 . S
C1343 C1359 1.429 . S
C1343 H1365 0.950 . S
C1344 H1340 0.949 . S
C1344 C1352 1.574 . S
C1344 C1360 1.368 . S
H1345 C1353 0.950 . S
H1346 C1351 0.950 . S
H1347 C1352 0.949 . S
H1348 C1354 0.950 . S
H1349 C1355 0.950 . S
H1350 C1356 0.949 . S
C1351 H1346 0.950 . S
C1351 C1353 1.327 . S
C1351 C1357 1.429 . S
C1352 C1344 1.574 . S
C1352 H1347 0.949 . S
C1352 C1358 1.368 . S
C1353 C1337 1.349 . S
C1353 H1345 0.950 . S
C1353 C1351 1.327 . S
C1354 C1342 1.349 . S
C1354 H1348 0.950 . S
C1354 C1355 1.327 . S
C1355 H1349 0.950 . S
C1355 C1354 1.327 . S
C1355 C1359 1.429 . S
C1356 C1339 1.574 . S
C1356 H1350 0.949 . S
C1356 C1360 1.368 . S
C1357 C1338 1.429 . S
C1357 C1351 1.429 . S
C1357 C1358 1.523 . S
C1358 C1339 1.368 . S
C1358 C1352 1.368 . S
C1358 C1357 1.523 . S
C1359 C1343 1.429 . S
C1359 C1355 1.429 . S
C1359 C1360 1.523 . S
C1360 C1344 1.368 . S
C1360 C1356 1.368 . S
C1360 C1359 1.523 . S
H1361 C1336 0.950 . S
H1362 C1338 0.950 . S
H1363 C1339 0.949 . S
H1364 C1341 0.950 . S
H1365 C1343 0.950 . S
C1366 C1367 1.349 1_554 S
C1366 C1368 1.327 . S
C1366 H1391 0.950 1_554 S
C1367 C1366 1.349 1_556 S
C1367 C1383 1.349 1_556 S
C1368 C1366 1.327 . S
C1368 C1387 1.429 . S
C1368 H1392 0.950 . S
C1369 C1386 1.574 . S
C1369 C1388 1.368 . S
C1369 H1393 0.949 . S
H1370 C1374 0.949 . S
C1371 C1372 1.349 . S
C1371 C1373 1.327 . S
C1371 H1394 0.950 . S
C1372 C1371 1.349 . S
C1372 C1384 1.349 . S
C1373 C1371 1.327 . S
C1373 C1389 1.429 . S
C1373 H1395 0.950 . S
C1374 H1370 0.949 . S
C1374 C1382 1.574 . S
C1374 C1390 1.368 . S
H1375 C1383 0.950 1_556 S
H1376 C1381 0.950 . S
H1377 C1382 0.949 . S
H1378 C1384 0.950 . S
H1379 C1385 0.950 . S
H1380 C1386 0.949 . S
C1381 H1376 0.950 . S
C1381 C1383 1.327 . S
C1381 C1387 1.429 . S
C1382 C1374 1.574 . S
C1382 H1377 0.949 . S
C1382 C1388 1.368 . S
C1383 C1367 1.349 1_554 S
C1383 H1375 0.950 1_554 S
C1383 C1381 1.327 . S
C1384 C1372 1.349 . S
C1384 H1378 0.950 . S
C1384 C1385 1.327 . S
C1385 H1379 0.950 . S
C1385 C1384 1.327 . S
C1385 C1389 1.429 . S
C1386 C1369 1.574 . S
C1386 H1380 0.949 . S
C1386 C1390 1.368 . S
C1387 C1368 1.429 . S
C1387 C1381 1.429 . S
C1387 C1388 1.523 . S
C1388 C1369 1.368 . S
C1388 C1382 1.368 . S
C1388 C1387 1.523 . S
C1389 C1373 1.429 . S
C1389 C1385 1.429 . S
C1389 C1390 1.523 . S
C1390 C1374 1.368 . S
C1390 C1386 1.368 . S
C1390 C1389 1.523 . S
H1391 C1366 0.950 1_556 S
H1392 C1368 0.950 . S
H1393 C1369 0.949 . S
H1394 C1371 0.950 . S
H1395 C1373 0.950 . S
C1396 C1397 1.349 . S
C1396 C1398 1.327 . S
C1396 H1421 0.950 . S
C1397 C1396 1.349 . S
C1397 C1413 1.349 . S
C1398 C1396 1.327 . S
C1398 C1417 1.429 . S
C1398 H1422 0.950 . S
C1399 C1416 1.574 1_554 S
C1399 C1418 1.368 . S
C1399 H1423 0.949 . S
H1400 C1404 0.949 . S
C1401 C1402 1.349 . S
C1401 C1403 1.327 . S
C1401 H1424 0.950 . S
C1402 C1401 1.349 . S
C1402 C1414 1.349 . S
C1403 C1401 1.327 . S
C1403 C1419 1.429 . S
C1403 H1425 0.950 . S
C1404 H1400 0.949 . S
C1404 C1412 1.574 1_556 S
C1404 C1420 1.368 . S
H1405 C1413 0.950 . S
H1406 C1411 0.950 . S
H1407 C1412 0.949 . S
H1408 C1414 0.950 . S
H1409 C1415 0.950 . S
H1410 C1416 0.949 . S
C1411 H1406 0.950 . S
C1411 C1413 1.327 . S
C1411 C1417 1.429 . S
C1412 C1404 1.574 1_554 S
C1412 H1407 0.949 . S
C1412 C1418 1.368 . S
C1413 C1397 1.349 . S
C1413 H1405 0.950 . S
C1413 C1411 1.327 . S
C1414 C1402 1.349 . S
C1414 H1408 0.950 . S
C1414 C1415 1.327 . S
C1415 H1409 0.950 . S
C1415 C1414 1.327 . S
C1415 C1419 1.429 . S
C1416 C1399 1.574 1_556 S
C1416 H1410 0.949 . S
C1416 C1420 1.368 . S
C1417 C1398 1.429 . S
C1417 C1411 1.429 . S
C1417 C1418 1.523 . S
C1418 C1399 1.368 . S
C1418 C1412 1.368 . S
C1418 C1417 1.523 . S
C1419 C1403 1.429 . S
C1419 C1415 1.429 . S
C1419 C1420 1.523 . S
C1420 C1404 1.368 . S
C1420 C1416 1.368 . S
C1420 C1419 1.523 . S
H1421 C1396 0.950 . S
H1422 C1398 0.950 . S
H1423 C1399 0.949 . S
H1424 C1401 0.950 . S
H1425 C1403 0.950 . S
C1426 C1427 1.349 . S
C1426 C1428 1.327 . S
C1426 H1451 0.950 . S
C1427 C1426 1.349 . S
C1427 C1443 1.349 . S
C1428 C1426 1.327 . S
C1428 C1447 1.429 . S
C1428 H1452 0.950 . S
C1429 C1446 1.574 . S
C1429 C1448 1.368 . S
C1429 H1453 0.949 . S
H1430 C1434 0.949 . S
C1431 C1432 1.349 1_556 S
C1431 C1433 1.327 . S
C1431 H1454 0.950 1_556 S
C1432 C1431 1.349 1_554 S
C1432 C1444 1.349 . S
C1433 C1431 1.327 . S
C1433 C1449 1.429 . S
C1433 H1455 0.950 . S
C1434 H1430 0.949 . S
C1434 C1442 1.574 . S
C1434 C1450 1.368 . S
H1435 C1443 0.950 . S
H1436 C1441 0.950 . S
H1437 C1442 0.949 . S
H1438 C1444 0.950 . S
H1439 C1445 0.950 . S
H1440 C1446 0.949 . S
C1441 H1436 0.950 . S
C1441 C1443 1.327 . S
C1441 C1447 1.429 . S
C1442 C1434 1.574 . S
C1442 H1437 0.949 . S
C1442 C1448 1.368 . S
C1443 C1427 1.349 . S
C1443 H1435 0.950 . S
C1443 C1441 1.327 . S
C1444 C1432 1.349 . S
C1444 H1438 0.950 . S
C1444 C1445 1.327 1_554 S
C1445 H1439 0.950 . S
C1445 C1444 1.327 1_556 S
C1445 C1449 1.429 . S
C1446 C1429 1.574 . S
C1446 H1440 0.949 . S
C1446 C1450 1.368 . S
C1447 C1428 1.429 . S
C1447 C1441 1.429 . S
C1447 C1448 1.523 . S
C1448 C1429 1.368 . S
C1448 C1442 1.368 . S
C1448 C1447 1.523 . S
C1449 C1433 1.429 . S
C1449 C1445 1.429 . S
C1449 C1450 1.523 . S
C1450 C1434 1.368 . S
C1450 C1446 1.368 . S
C1450 C1449 1.523 . S
H1451 C1426 0.950 . S
H1452 C1428 0.950 . S
H1453 C1429 0.949 . S
H1454 C1431 0.950 1_554 S
H1455 C1433 0.950 . S
C1456 C1457 1.349 . S
C1456 C1458 1.327 . S
C1456 H1481 0.950 . S
C1457 C1456 1.349 . S
C1457 C1473 1.349 . S
C1458 C1456 1.327 . S
C1458 C1477 1.429 . S
C1458 H1482 0.950 . S
C1459 C1476 1.574 . S
C1459 C1478 1.368 . S
C1459 H1483 0.949 . S
H1460 C1464 0.949 . S
C1461 C1462 1.349 . S
C1461 C1463 1.327 . S
C1461 H1484 0.950 . S
C1462 C1461 1.349 . S
C1462 C1474 1.349 . S
C1463 C1461 1.327 . S
C1463 C1479 1.429 . S
C1463 H1485 0.950 . S
C1464 H1460 0.949 . S
C1464 C1472 1.574 . S
C1464 C1480 1.368 . S
H1465 C1473 0.950 . S
H1466 C1471 0.950 . S
H1467 C1472 0.949 . S
H1468 C1474 0.950 . S
H1469 C1475 0.950 . S
H1470 C1476 0.949 . S
C1471 H1466 0.950 . S
C1471 C1473 1.327 . S
C1471 C1477 1.429 . S
C1472 C1464 1.574 . S
C1472 H1467 0.949 . S
C1472 C1478 1.368 . S
C1473 C1457 1.349 . S
C1473 H1465 0.950 . S
C1473 C1471 1.327 . S
C1474 C1462 1.349 . S
C1474 H1468 0.950 . S
C1474 C1475 1.327 . S
C1475 H1469 0.950 . S
C1475 C1474 1.327 . S
C1475 C1479 1.429 . S
C1476 C1459 1.574 . S
C1476 H1470 0.949 . S
C1476 C1480 1.368 . S
C1477 C1458 1.429 . S
C1477 C1471 1.429 . S
C1477 C1478 1.523 . S
C1478 C1459 1.368 . S
C1478 C1472 1.368 . S
C1478 C1477 1.523 . S
C1479 C1463 1.429 . S
C1479 C1475 1.429 . S
C1479 C1480 1.523 . S
C1480 C1464 1.368 . S
C1480 C1476 1.368 . S
C1480 C1479 1.523 . S
H1481 C1456 0.950 . S
H1482 C1458 0.950 . S
H1483 C1459 0.949 . S
H1484 C1461 0.950 . S
H1485 C1463 0.950 . S
C1486 C1487 1.349 . S
C1486 C1488 1.327 . S
C1486 H1511 0.950 . S
C1487 C1486 1.349 . S
C1487 C1503 1.349 . S
C1488 C1486 1.327 . S
C1488 C1507 1.429 . S
C1488 H1512 0.950 . S
C1489 C1506 1.574 . S
C1489 C1508 1.368 . S
C1489 H1513 0.949 . S
H1490 C1494 0.949 . S
C1491 C1492 1.349 . S
C1491 C1493 1.327 . S
C1491 H1514 0.950 . S
C1492 C1491 1.349 . S
C1492 C1504 1.349 . S
C1493 C1491 1.327 . S
C1493 C1509 1.429 . S
C1493 H1515 0.950 . S
C1494 H1490 0.949 . S
C1494 C1502 1.574 . S
C1494 C1510 1.368 . S
H1495 C1503 0.950 . S
H1496 C1501 0.950 . S
H1497 C1502 0.949 . S
H1498 C1504 0.950 . S
H1499 C1505 0.950 . S
H1500 C1506 0.949 . S
C1501 H1496 0.950 . S
C1501 C1503 1.327 . S
C1501 C1507 1.429 . S
C1502 C1494 1.574 . S
C1502 H1497 0.949 . S
C1502 C1508 1.368 . S
C1503 C1487 1.349 . S
C1503 H1495 0.950 . S
C1503 C1501 1.327 . S
C1504 C1492 1.349 . S
C1504 H1498 0.950 . S
C1504 C1505 1.327 . S
C1505 H1499 0.950 . S
C1505 C1504 1.327 . S
C1505 C1509 1.429 . S
C1506 C1489 1.574 . S
C1506 H1500 0.949 . S
C1506 C1510 1.368 . S
C1507 C1488 1.429 . S
C1507 C1501 1.429 . S
C1507 C1508 1.523 . S
C1508 C1489 1.368 . S
C1508 C1502 1.368 . S
C1508 C1507 1.523 . S
C1509 C1493 1.429 . S
C1509 C1505 1.429 . S
C1509 C1510 1.523 . S
C1510 C1494 1.368 . S
C1510 C1506 1.368 . S
C1510 C1509 1.523 . S
H1511 C1486 0.950 . S
H1512 C1488 0.950 . S
H1513 C1489 0.949 . S
H1514 C1491 0.950 . S
H1515 C1493 0.950 . S
C1516 C1517 1.349 . S
C1516 C1518 1.327 . S
C1516 H1541 0.950 . S
C1517 C1516 1.349 . S
C1517 C1533 1.349 . S
C1518 C1516 1.327 . S
C1518 C1537 1.429 . S
C1518 H1542 0.950 . S
C1519 C1536 1.574 . S
C1519 C1538 1.368 . S
C1519 H1543 0.949 . S
H1520 C1524 0.949 . S
C1521 C1522 1.349 . S
C1521 C1523 1.327 . S
C1521 H1544 0.950 . S
C1522 C1521 1.349 . S
C1522 C1534 1.349 . S
C1523 C1521 1.327 . S
C1523 C1539 1.429 . S
C1523 H1545 0.950 . S
C1524 H1520 0.949 . S
C1524 C1532 1.574 . S
C1524 C1540 1.368 . S
H1525 C1533 0.950 . S
H1526 C1531 0.950 . S
H1527 C1532 0.949 . S
H1528 C1534 0.950 . S
H1529 C1535 0.950 . S
H1530 C1536 0.949 . S
C1531 H1526 0.950 . S
C1531 C1533 1.327 . S
C1531 C1537 1.429 . S
C1532 C1524 1.574 . S
C1532 H1527 0.949 . S
C1532 C1538 1.368 . S
C1533 C1517 1.349 . S
C1533 H1525 0.950 . S
C1533 C1531 1.327 . S
C1534 C1522 1.349 . S
C1534 H1528 0.950 . S
C1534 C1535 1.327 . S
C1535 H1529 0.950 . S
C1535 C1534 1.327 . S
C1535 C1539 1.429 . S
C1536 C1519 1.574 . S
C1536 H1530 0.949 . S
C1536 C1540 1.368 . S
C1537 C1518 1.429 . S
C1537 C1531 1.429 . S
C1537 C1538 1.523 . S
C1538 C1519 1.368 . S
C1538 C1532 1.368 . S
C1538 C1537 1.523 . S
C1539 C1523 1.429 . S
C1539 C1535 1.429 . S
C1539 C1540 1.523 . S
C1540 C1524 1.368 . S
C1540 C1536 1.368 . S
C1540 C1539 1.523 . S
H1541 C1516 0.950 . S
H1542 C1518 0.950 . S
H1543 C1519 0.949 . S
H1544 C1521 0.950 . S
H1545 C1523 0.950 . S
C1546 C1547 1.349 . S
C1546 C1548 1.327 . S
C1546 H1571 0.950 . S
C1547 C1546 1.349 . S
C1547 C1563 1.349 . S
C1548 C1546 1.327 . S
C1548 C1567 1.429 . S
C1548 H1572 0.950 . S
C1549 C1566 1.574 1_455 S
C1549 C1568 1.368 1_556 S
C1549 H1573 0.949 . S
H1550 C1554 0.949 . S
C1551 C1552 1.349 . S
C1551 C1553 1.327 . S
C1551 H1574 0.950 . S
C1552 C1551 1.349 . S
C1552 C1564 1.349 . S
C1553 C1551 1.327 . S
C1553 C1569 1.429 . S
C1553 H1575 0.950 . S
C1554 H1550 0.949 . S
C1554 C1562 1.574 1_655 S
C1554 C1570 1.368 1_554 S
H1555 C1563 0.950 . S
H1556 C1561 0.950 . S
H1557 C1562 0.949 . S
H1558 C1564 0.950 . S
H1559 C1565 0.950 . S
H1560 C1566 0.949 . S
C1561 H1556 0.950 . S
C1561 C1563 1.327 . S
C1561 C1567 1.429 . S
C1562 C1554 1.574 1_455 S
C1562 H1557 0.949 . S
C1562 C1568 1.368 . S
C1563 C1547 1.349 . S
C1563 H1555 0.950 . S
C1563 C1561 1.327 . S
C1564 C1552 1.349 . S
C1564 H1558 0.950 . S
C1564 C1565 1.327 . S
C1565 H1559 0.950 . S
C1565 C1564 1.327 . S
C1565 C1569 1.429 . S
C1566 C1549 1.574 1_655 S
C1566 H1560 0.949 . S
C1566 C1570 1.368 . S
C1567 C1548 1.429 . S
C1567 C1561 1.429 . S
C1567 C1568 1.523 . S
C1568 C1549 1.368 1_554 S
C1568 C1562 1.368 . S
C1568 C1567 1.523 . S
C1569 C1553 1.429 . S
C1569 C1565 1.429 . S
C1569 C1570 1.523 . S
C1570 C1554 1.368 1_556 S
C1570 C1566 1.368 . S
C1570 C1569 1.523 . S
H1571 C1546 0.950 . S
H1572 C1548 0.950 . S
H1573 C1549 0.949 . S
H1574 C1551 0.950 . S
H1575 C1553 0.950 . S
C1576 C1577 1.349 . S
C1576 C1578 1.327 . S
C1576 H1601 0.950 . S
C1577 C1576 1.349 . S
C1577 C1593 1.349 . S
C1578 C1576 1.327 . S
C1578 C1597 1.429 . S
C1578 H1602 0.950 . S
C1579 C1596 1.574 . S
C1579 C1598 1.368 . S
C1579 H1603 0.949 . S
H1580 C1584 0.949 . S
C1581 C1582 1.349 . S
C1581 C1583 1.327 . S
C1581 H1604 0.950 1_556 S
C1582 C1581 1.349 . S
C1582 C1594 1.349 . S
C1583 C1581 1.327 . S
C1583 C1599 1.429 . S
C1583 H1605 0.950 . S
C1584 H1580 0.949 . S
C1584 C1592 1.574 . S
C1584 C1600 1.368 . S
H1585 C1593 0.950 . S
H1586 C1591 0.950 . S
H1587 C1592 0.949 . S
H1588 C1594 0.950 . S
H1589 C1595 0.950 . S
H1590 C1596 0.949 . S
C1591 H1586 0.950 . S
C1591 C1593 1.327 . S
C1591 C1597 1.429 . S
C1592 C1584 1.574 . S
C1592 H1587 0.949 . S
C1592 C1598 1.368 . S
C1593 C1577 1.349 . S
C1593 H1585 0.950 . S
C1593 C1591 1.327 . S
C1594 C1582 1.349 . S
C1594 H1588 0.950 . S
C1594 C1595 1.327 . S
C1595 H1589 0.950 . S
C1595 C1594 1.327 . S
C1595 C1599 1.429 . S
C1596 C1579 1.574 . S
C1596 H1590 0.949 . S
C1596 C1600 1.368 . S
C1597 C1578 1.429 . S
C1597 C1591 1.429 . S
C1597 C1598 1.523 . S
C1598 C1579 1.368 . S
C1598 C1592 1.368 . S
C1598 C1597 1.523 . S
C1599 C1583 1.429 . S
C1599 C1595 1.429 . S
C1599 C1600 1.523 . S
C1600 C1584 1.368 . S
C1600 C1596 1.368 . S
C1600 C1599 1.523 . S
H1601 C1576 0.950 . S
H1602 C1578 0.950 . S
H1603 C1579 0.949 . S
H1604 C1581 0.950 1_554 S
H1605 C1583 0.950 . S
C1606 C1607 1.349 . S
C1606 C1608 1.327 . S
C1606 H1631 0.950 . S
C1607 C1606 1.349 . S
C1607 C1623 1.349 . S
C1608 C1606 1.327 . S
C1608 C1627 1.429 . S
C1608 H1632 0.950 . S
C1609 C1626 1.574 . S
C1609 C1628 1.368 . S
C1609 H1633 0.949 . S
H1610 C1614 0.949 . S
C1611 C1612 1.349 . S
C1611 C1613 1.327 . S
C1611 H1634 0.950 . S
C1612 C1611 1.349 . S
C1612 C1624 1.349 . S
C1613 C1611 1.327 . S
C1613 C1629 1.429 . S
C1613 H1635 0.950 . S
C1614 H1610 0.949 . S
C1614 C1622 1.574 . S
C1614 C1630 1.368 . S
H1615 C1623 0.950 . S
H1616 C1621 0.950 . S
H1617 C1622 0.949 . S
H1618 C1624 0.950 . S
H1619 C1625 0.950 . S
H1620 C1626 0.949 . S
C1621 H1616 0.950 . S
C1621 C1623 1.327 . S
C1621 C1627 1.429 . S
C1622 C1614 1.574 . S
C1622 H1617 0.949 . S
C1622 C1628 1.368 . S
C1623 C1607 1.349 . S
C1623 H1615 0.950 . S
C1623 C1621 1.327 . S
C1624 C1612 1.349 . S
C1624 H1618 0.950 . S
C1624 C1625 1.327 . S
C1625 H1619 0.950 . S
C1625 C1624 1.327 . S
C1625 C1629 1.429 . S
C1626 C1609 1.574 . S
C1626 H1620 0.949 . S
C1626 C1630 1.368 . S
C1627 C1608 1.429 . S
C1627 C1621 1.429 . S
C1627 C1628 1.523 . S
C1628 C1609 1.368 . S
C1628 C1622 1.368 . S
C1628 C1627 1.523 . S
C1629 C1613 1.429 . S
C1629 C1625 1.429 . S
C1629 C1630 1.523 . S
C1630 C1614 1.368 . S
C1630 C1626 1.368 . S
C1630 C1629 1.523 . S
H1631 C1606 0.950 . S
H1632 C1608 0.950 . S
H1633 C1609 0.949 . S
H1634 C1611 0.950 . S
H1635 C1613 0.950 . S
C1636 C1637 1.349 . S
C1636 C1638 1.327 1_545 S
C1636 H1661 0.950 1_545 S
C1637 C1636 1.349 . S
C1637 C1653 1.349 . S
C1638 C1636 1.327 1_565 S
C1638 C1657 1.429 1_565 S
C1638 H1662 0.950 . S
C1639 C1656 1.586 . S
C1639 C1658 1.358 1_654 S
C1639 H1663 0.944 1_654 S
H1640 C1644 0.949 . S
C1641 C1642 1.349 . S
C1641 C1643 1.327 . S
C1641 H1664 0.950 . S
C1642 C1641 1.349 . S
C1642 C1654 1.349 . S
C1643 C1641 1.327 . S
C1643 C1659 1.429 . S
C1643 H1665 0.950 1_565 S
C1644 H1640 0.949 . S
C1644 C1652 1.574 1_654 S
C1644 C1660 1.368 . S
H1645 C1653 0.950 . S
H1646 C1651 0.950 . S
H1647 C1652 0.949 . S
H1648 C1654 0.950 . S
H1649 C1655 0.950 . S
H1650 C1656 0.949 . S
C1651 H1646 0.950 . S
C1651 C1653 1.327 . S
C1651 C1657 1.429 . S
C1652 C1644 1.574 1_456 S
C1652 H1647 0.949 . S
C1652 C1658 1.368 1_565 S
C1653 C1637 1.349 . S
C1653 H1645 0.950 . S
C1653 C1651 1.327 . S
C1654 C1642 1.349 . S
C1654 H1648 0.950 . S
C1654 C1655 1.327 . S
C1655 H1649 0.950 . S
C1655 C1654 1.327 . S
C1655 C1659 1.429 . S
C1656 C1639 1.586 . S
C1656 H1650 0.949 . S
C1656 C1660 1.368 1_545 S
C1657 C1638 1.429 1_545 S
C1657 C1651 1.429 . S
C1657 C1658 1.523 . S
C1658 C1639 1.358 1_456 S
C1658 C1652 1.368 1_545 S
C1658 C1657 1.523 . S
C1659 C1643 1.429 . S
C1659 C1655 1.429 . S
C1659 C1660 1.523 . S
C1660 C1644 1.368 . S
C1660 C1656 1.368 1_565 S
C1660 C1659 1.523 . S
H1661 C1636 0.950 1_565 S
H1662 C1638 0.950 . S
H1663 C1639 0.944 1_456 S
H1664 C1641 0.950 . S
H1665 C1643 0.950 1_545 S
C1666 C1667 1.349 . S
C1666 C1668 1.327 . S
C1666 H1691 0.950 . S
C1667 C1666 1.349 . S
C1667 C1683 1.349 . S
C1668 C1666 1.327 . S
C1668 C1687 1.429 . S
C1668 H1692 0.950 . S
C1669 C1686 1.574 1_565 S
C1669 C1688 1.368 . S
C1669 H1693 0.949 . S
H1670 C1674 0.949 . S
C1671 C1672 1.349 . S
C1671 C1673 1.327 . S
C1671 H1694 0.950 . S
C1672 C1671 1.349 . S
C1672 C1684 1.349 . S
C1673 C1671 1.327 . S
C1673 C1689 1.429 . S
C1673 H1695 0.950 . S
C1674 H1670 0.949 . S
C1674 C1682 1.564 1_545 S
C1674 C1690 1.368 . S
H1675 C1683 0.950 . S
H1676 C1681 0.950 . S
H1677 C1682 0.952 . S
H1678 C1684 0.950 . S
H1679 C1685 0.950 . S
H1680 C1686 0.949 . S
C1681 H1676 0.950 . S
C1681 C1683 1.327 . S
C1681 C1687 1.429 . S
C1682 C1674 1.564 1_565 S
C1682 H1677 0.952 . S
C1682 C1688 1.376 . S
C1683 C1667 1.349 . S
C1683 H1675 0.950 . S
C1683 C1681 1.327 . S
C1684 C1672 1.349 . S
C1684 H1678 0.950 . S
C1684 C1685 1.327 . S
C1685 H1679 0.950 . S
C1685 C1684 1.327 . S
C1685 C1689 1.429 . S
C1686 C1669 1.574 1_545 S
C1686 H1680 0.949 . S
C1686 C1690 1.368 . S
C1687 C1668 1.429 . S
C1687 C1681 1.429 . S
C1687 C1688 1.523 . S
C1688 C1669 1.368 . S
C1688 C1682 1.376 . S
C1688 C1687 1.523 . S
C1689 C1673 1.429 . S
C1689 C1685 1.429 . S
C1689 C1690 1.523 . S
C1690 C1674 1.368 . S
C1690 C1686 1.368 . S
C1690 C1689 1.523 . S
H1691 C1666 0.950 . S
H1692 C1668 0.950 . S
H1693 C1669 0.949 . S
H1694 C1671 0.950 . S
H1695 C1673 0.950 . S
C1696 C1697 1.349 . S
C1696 C1698 1.327 . S
C1696 H1721 0.950 . S
C1697 C1696 1.349 . S
C1697 C1713 1.349 . S
C1698 C1696 1.327 . S
C1698 C1717 1.429 . S
C1698 H1722 0.950 . S
C1699 C1716 1.574 . S
C1699 C1718 1.368 . S
C1699 H1723 0.949 . S
H1700 C1704 0.949 . S
C1701 C1702 1.349 . S
C1701 C1703 1.327 . S
C1701 H1724 0.950 . S
C1702 C1701 1.349 . S
C1702 C1714 1.349 . S
C1703 C1701 1.327 . S
C1703 C1719 1.429 . S
C1703 H1725 0.950 . S
C1704 H1700 0.949 . S
C1704 C1712 1.574 . S
C1704 C1720 1.368 . S
H1705 C1713 0.950 . S
H1706 C1711 0.950 . S
H1707 C1712 0.949 . S
H1708 C1714 0.950 . S
H1709 C1715 0.950 . S
H1710 C1716 0.949 . S
C1711 H1706 0.950 . S
C1711 C1713 1.327 . S
C1711 C1717 1.429 . S
C1712 C1704 1.574 . S
C1712 H1707 0.949 . S
C1712 C1718 1.368 . S
C1713 C1697 1.349 . S
C1713 H1705 0.950 . S
C1713 C1711 1.327 . S
C1714 C1702 1.349 . S
C1714 H1708 0.950 . S
C1714 C1715 1.327 . S
C1715 H1709 0.950 . S
C1715 C1714 1.327 . S
C1715 C1719 1.429 . S
C1716 C1699 1.574 . S
C1716 H1710 0.949 . S
C1716 C1720 1.368 . S
C1717 C1698 1.429 . S
C1717 C1711 1.429 . S
C1717 C1718 1.523 . S
C1718 C1699 1.368 . S
C1718 C1712 1.368 . S
C1718 C1717 1.523 . S
C1719 C1703 1.429 . S
C1719 C1715 1.429 . S
C1719 C1720 1.523 . S
C1720 C1704 1.368 . S
C1720 C1716 1.368 . S
C1720 C1719 1.523 . S
H1721 C1696 0.950 . S
H1722 C1698 0.950 . S
H1723 C1699 0.949 . S
H1724 C1701 0.950 . S
H1725 C1703 0.950 . S
C1726 C1727 1.349 . S
C1726 C1728 1.327 . S
C1726 H1751 0.950 . S
C1727 C1726 1.349 . S
C1727 C1743 1.349 . S
C1728 C1726 1.327 . S
C1728 C1747 1.429 . S
C1728 H1752 0.950 . S
C1729 C1746 1.574 . S
C1729 C1748 1.368 . S
C1729 H1753 0.949 . S
H1730 C1734 0.949 . S
C1731 C1732 1.349 . S
C1731 C1733 1.327 . S
C1731 H1754 0.950 . S
C1732 C1731 1.349 . S
C1732 C1744 1.349 . S
C1733 C1731 1.327 . S
C1733 C1749 1.429 . S
C1733 H1755 0.950 . S
C1734 H1730 0.949 . S
C1734 C1742 1.574 . S
C1734 C1750 1.368 . S
H1735 C1743 0.950 . S
H1736 C1741 0.950 . S
H1737 C1742 0.949 . S
H1738 C1744 0.950 . S
H1739 C1745 0.950 . S
H1740 C1746 0.949 . S
C1741 H1736 0.950 . S
C1741 C1743 1.327 . S
C1741 C1747 1.429 . S
C1742 C1734 1.574 . S
C1742 H1737 0.949 . S
C1742 C1748 1.368 . S
C1743 C1727 1.349 . S
C1743 H1735 0.950 . S
C1743 C1741 1.327 . S
C1744 C1732 1.349 . S
C1744 H1738 0.950 . S
C1744 C1745 1.327 . S
C1745 H1739 0.950 . S
C1745 C1744 1.327 . S
C1745 C1749 1.429 . S
C1746 C1729 1.574 . S
C1746 H1740 0.949 . S
C1746 C1750 1.368 . S
C1747 C1728 1.429 . S
C1747 C1741 1.429 . S
C1747 C1748 1.523 . S
C1748 C1729 1.368 . S
C1748 C1742 1.368 . S
C1748 C1747 1.523 . S
C1749 C1733 1.429 . S
C1749 C1745 1.429 . S
C1749 C1750 1.523 . S
C1750 C1734 1.368 . S
C1750 C1746 1.368 . S
C1750 C1749 1.523 . S
H1751 C1726 0.950 . S
H1752 C1728 0.950 . S
H1753 C1729 0.949 . S
H1754 C1731 0.950 . S
H1755 C1733 0.950 . S
C1756 C1757 1.349 . S
C1756 C1758 1.327 . S
C1756 H1781 0.950 . S
C1757 C1756 1.349 . S
C1757 C1773 1.349 . S
C1758 C1756 1.327 . S
C1758 C1777 1.429 . S
C1758 H1782 0.950 . S
C1759 C1776 1.574 . S
C1759 C1778 1.368 . S
C1759 H1783 0.949 . S
H1760 C1764 0.949 . S
C1761 C1762 1.349 . S
C1761 C1763 1.327 . S
C1761 H1784 0.950 . S
C1762 C1761 1.349 . S
C1762 C1774 1.349 . S
C1763 C1761 1.327 . S
C1763 C1779 1.429 . S
C1763 H1785 0.950 . S
C1764 H1760 0.949 . S
C1764 C1772 1.574 . S
C1764 C1780 1.368 . S
H1765 C1773 0.950 1_554 S
H1766 C1771 0.950 . S
H1767 C1772 0.949 . S
H1768 C1774 0.950 . S
H1769 C1775 0.950 . S
H1770 C1776 0.949 . S
C1771 H1766 0.950 . S
C1771 C1773 1.327 . S
C1771 C1777 1.429 . S
C1772 C1764 1.574 . S
C1772 H1767 0.949 . S
C1772 C1778 1.368 . S
C1773 C1757 1.349 . S
C1773 H1765 0.950 1_556 S
C1773 C1771 1.327 . S
C1774 C1762 1.349 . S
C1774 H1768 0.950 . S
C1774 C1775 1.327 . S
C1775 H1769 0.950 . S
C1775 C1774 1.327 . S
C1775 C1779 1.429 . S
C1776 C1759 1.574 . S
C1776 H1770 0.949 . S
C1776 C1780 1.368 . S
C1777 C1758 1.429 . S
C1777 C1771 1.429 . S
C1777 C1778 1.523 . S
C1778 C1759 1.368 . S
C1778 C1772 1.368 . S
C1778 C1777 1.523 . S
C1779 C1763 1.429 . S
C1779 C1775 1.429 . S
C1779 C1780 1.523 . S
C1780 C1764 1.368 . S
C1780 C1776 1.368 . S
C1780 C1779 1.523 . S
H1781 C1756 0.950 . S
H1782 C1758 0.950 . S
H1783 C1759 0.949 . S
H1784 C1761 0.950 . S
H1785 C1763 0.950 . S
C1786 C1787 1.349 . S
C1786 C1788 1.327 . S
C1786 H1811 0.950 . S
C1787 C1786 1.349 . S
C1787 C1803 1.349 . S
C1788 C1786 1.327 . S
C1788 C1807 1.429 . S
C1788 H1812 0.950 . S
C1789 C1806 1.574 . S
C1789 C1808 1.368 . S
C1789 H1813 0.949 . S
H1790 C1794 0.949 1_556 S
C1791 C1792 1.349 . S
C1791 C1793 1.327 . S
C1791 H1814 0.950 . S
C1792 C1791 1.349 . S
C1792 C1804 1.349 1_554 S
C1793 C1791 1.327 . S
C1793 C1809 1.429 . S
C1793 H1815 0.950 . S
C1794 H1790 0.949 1_554 S
C1794 C1802 1.574 . S
C1794 C1810 1.368 . S
H1795 C1803 0.950 . S
H1796 C1801 0.950 . S
H1797 C1802 0.949 . S
H1798 C1804 0.950 . S
H1799 C1805 0.943 1_556 S
H1800 C1806 0.949 . S
C1801 H1796 0.950 . S
C1801 C1803 1.327 . S
C1801 C1807 1.429 . S
C1802 C1794 1.574 . S
C1802 H1797 0.949 . S
C1802 C1808 1.368 . S
C1803 C1787 1.349 . S
C1803 H1795 0.950 . S
C1803 C1801 1.327 . S
C1804 C1792 1.349 1_556 S
C1804 H1798 0.950 . S
C1804 C1805 1.325 1_556 S
C1805 H1799 0.943 1_554 S
C1805 C1804 1.325 1_554 S
C1805 C1809 1.437 . S
C1806 C1789 1.574 . S
C1806 H1800 0.949 . S
C1806 C1810 1.368 . S
C1807 C1788 1.429 . S
C1807 C1801 1.429 . S
C1807 C1808 1.523 . S
C1808 C1789 1.368 . S
C1808 C1802 1.368 . S
C1808 C1807 1.523 . S
C1809 C1793 1.429 . S
C1809 C1805 1.437 . S
C1809 C1810 1.523 . S
C1810 C1794 1.368 . S
C1810 C1806 1.368 . S
C1810 C1809 1.523 . S
H1811 C1786 0.950 . S
H1812 C1788 0.950 . S
H1813 C1789 0.949 . S
H1814 C1791 0.950 . S
H1815 C1793 0.950 . S
C1816 C1817 1.349 . S
C1816 C1818 1.327 . S
C1816 H1841 0.950 . S
C1817 C1816 1.349 . S
C1817 C1833 1.349 . S
C1818 C1816 1.327 . S
C1818 C1837 1.429 . S
C1818 H1842 0.950 . S
C1819 C1836 1.574 . S
C1819 C1838 1.368 . S
C1819 H1843 0.949 . S
H1820 C1824 0.949 . S
C1821 C1822 1.349 . S
C1821 C1823 1.327 . S
C1821 H1844 0.950 . S
C1822 C1821 1.349 . S
C1822 C1834 1.349 . S
C1823 C1821 1.327 . S
C1823 C1839 1.429 . S
C1823 H1845 0.950 . S
C1824 H1820 0.949 . S
C1824 C1832 1.574 . S
C1824 C1840 1.368 . S
H1825 C1833 0.950 . S
H1826 C1831 0.950 . S
H1827 C1832 0.949 . S
H1828 C1834 0.950 . S
H1829 C1835 0.950 . S
H1830 C1836 0.949 . S
C1831 H1826 0.950 . S
C1831 C1833 1.327 . S
C1831 C1837 1.429 . S
C1832 C1824 1.574 . S
C1832 H1827 0.949 . S
C1832 C1838 1.368 . S
C1833 C1817 1.349 . S
C1833 H1825 0.950 . S
C1833 C1831 1.327 . S
C1834 C1822 1.349 . S
C1834 H1828 0.950 . S
C1834 C1835 1.327 . S
C1835 H1829 0.950 . S
C1835 C1834 1.327 . S
C1835 C1839 1.429 . S
C1836 C1819 1.574 . S
C1836 H1830 0.949 . S
C1836 C1840 1.368 . S
C1837 C1818 1.429 . S
C1837 C1831 1.429 . S
C1837 C1838 1.523 . S
C1838 C1819 1.368 . S
C1838 C1832 1.368 . S
C1838 C1837 1.523 . S
C1839 C1823 1.429 . S
C1839 C1835 1.429 . S
C1839 C1840 1.523 . S
C1840 C1824 1.368 . S
C1840 C1836 1.368 . S
C1840 C1839 1.523 . S
H1841 C1816 0.950 . S
H1842 C1818 0.950 . S
H1843 C1819 0.949 . S
H1844 C1821 0.950 . S
H1845 C1823 0.950 . S
C1846 C1847 1.349 . S
C1846 C1848 1.327 . S
C1846 H1871 0.950 . S
C1847 C1846 1.349 . S
C1847 C1863 1.349 . S
C1848 C1846 1.327 . S
C1848 C1867 1.429 . S
C1848 H1872 0.950 . S
C1849 C1866 1.574 . S
C1849 C1868 1.368 . S
C1849 H1873 0.949 . S
H1850 C1854 0.949 . S
C1851 C1852 1.349 . S
C1851 C1853 1.327 . S
C1851 H1874 0.950 . S
C1852 C1851 1.349 . S
C1852 C1864 1.349 . S
C1853 C1851 1.327 . S
C1853 C1869 1.429 . S
C1853 H1875 0.950 . S
C1854 H1850 0.949 . S
C1854 C1862 1.574 . S
C1854 C1870 1.368 . S
H1855 C1863 0.950 . S
H1856 C1861 0.950 . S
H1857 C1862 0.949 . S
H1858 C1864 0.950 . S
H1859 C1865 0.950 . S
H1860 C1866 0.949 . S
C1861 H1856 0.950 . S
C1861 C1863 1.327 . S
C1861 C1867 1.429 . S
C1862 C1854 1.574 . S
C1862 H1857 0.949 . S
C1862 C1868 1.368 . S
C1863 C1847 1.349 . S
C1863 H1855 0.950 . S
C1863 C1861 1.327 . S
C1864 C1852 1.349 . S
C1864 H1858 0.950 . S
C1864 C1865 1.327 . S
C1865 H1859 0.950 . S
C1865 C1864 1.327 . S
C1865 C1869 1.429 . S
C1866 C1849 1.574 . S
C1866 H1860 0.949 . S
C1866 C1870 1.368 . S
C1867 C1848 1.429 . S
C1867 C1861 1.429 . S
C1867 C1868 1.523 . S
C1868 C1849 1.368 . S
C1868 C1862 1.368 . S
C1868 C1867 1.523 . S
C1869 C1853 1.429 . S
C1869 C1865 1.429 . S
C1869 C1870 1.523 . S
C1870 C1854 1.368 . S
C1870 C1866 1.368 . S
C1870 C1869 1.523 . S
H1871 C1846 0.950 . S
H1872 C1848 0.950 . S
H1873 C1849 0.949 . S
H1874 C1851 0.950 . S
H1875 C1853 0.950 . S
C1876 C1877 1.349 . S
C1876 C1878 1.327 . S
C1876 H1901 0.950 . S
C1877 C1876 1.349 . S
C1877 C1893 1.349 . S
C1878 C1876 1.327 . S
C1878 C1897 1.429 . S
C1878 H1902 0.950 . S
C1879 C1896 1.574 . S
C1879 C1898 1.368 . S
C1879 H1903 0.949 . S
H1880 C1884 0.949 . S
C1881 C1882 1.349 . S
C1881 C1883 1.327 . S
C1881 H1904 0.950 . S
C1882 C1881 1.349 . S
C1882 C1894 1.349 . S
C1883 C1881 1.327 . S
C1883 C1899 1.429 . S
C1883 H1905 0.950 . S
C1884 H1880 0.949 . S
C1884 C1892 1.574 . S
C1884 C1900 1.368 . S
H1885 C1893 0.950 . S
H1886 C1891 0.950 . S
H1887 C1892 0.949 . S
H1888 C1894 0.950 . S
H1889 C1895 0.950 . S
H1890 C1896 0.949 . S
C1891 H1886 0.950 . S
C1891 C1893 1.327 . S
C1891 C1897 1.429 . S
C1892 C1884 1.574 . S
C1892 H1887 0.949 . S
C1892 C1898 1.368 . S
C1893 C1877 1.349 . S
C1893 H1885 0.950 . S
C1893 C1891 1.327 . S
C1894 C1882 1.349 . S
C1894 H1888 0.950 . S
C1894 C1895 1.327 . S
C1895 H1889 0.950 . S
C1895 C1894 1.327 . S
C1895 C1899 1.429 . S
C1896 C1879 1.574 . S
C1896 H1890 0.949 . S
C1896 C1900 1.368 . S
C1897 C1878 1.429 . S
C1897 C1891 1.429 . S
C1897 C1898 1.523 . S
C1898 C1879 1.368 . S
C1898 C1892 1.368 . S
C1898 C1897 1.523 . S
C1899 C1883 1.429 . S
C1899 C1895 1.429 . S
C1899 C1900 1.523 . S
C1900 C1884 1.368 . S
C1900 C1896 1.368 . S
C1900 C1899 1.523 . S
H1901 C1876 0.950 . S
H1902 C1878 0.950 . S
H1903 C1879 0.949 . S
H1904 C1881 0.950 . S
H1905 C1883 0.950 . S
C1906 C1907 1.349 . S
C1906 C1908 1.327 . S
C1906 H1931 0.950 . S
C1907 C1906 1.349 . S
C1907 C1923 1.349 1_554 S
C1908 C1906 1.327 . S
C1908 C1927 1.429 1_554 S
C1908 H1932 0.950 . S
C1909 C1926 1.574 . S
C1909 C1928 1.368 . S
C1909 H1933 0.949 . S
H1910 C1914 0.949 . S
C1911 C1912 1.349 . S
C1911 C1913 1.327 . S
C1911 H1934 0.950 . S
C1912 C1911 1.349 . S
C1912 C1924 1.349 . S
C1913 C1911 1.327 . S
C1913 C1929 1.429 . S
C1913 H1935 0.950 . S
C1914 H1910 0.949 . S
C1914 C1922 1.574 . S
C1914 C1930 1.368 . S
H1915 C1923 0.950 . S
H1916 C1921 0.950 . S
H1917 C1922 0.949 1_554 S
H1918 C1924 0.950 . S
H1919 C1925 0.950 . S
H1920 C1926 0.949 . S
C1921 H1916 0.950 . S
C1921 C1923 1.327 . S
C1921 C1927 1.429 . S
C1922 C1914 1.574 . S
C1922 H1917 0.949 1_556 S
C1922 C1928 1.368 . S
C1923 C1907 1.349 1_556 S
C1923 H1915 0.950 . S
C1923 C1921 1.327 . S
C1924 C1912 1.349 . S
C1924 H1918 0.950 . S
C1924 C1925 1.327 . S
C1925 H1919 0.950 . S
C1925 C1924 1.327 . S
C1925 C1929 1.429 . S
C1926 C1909 1.574 . S
C1926 H1920 0.949 . S
C1926 C1930 1.368 . S
C1927 C1908 1.429 1_556 S
C1927 C1921 1.429 . S
C1927 C1928 1.523 . S
C1928 C1909 1.368 . S
C1928 C1922 1.368 . S
C1928 C1927 1.523 . S
C1929 C1913 1.429 . S
C1929 C1925 1.429 . S
C1929 C1930 1.523 . S
C1930 C1914 1.368 . S
C1930 C1926 1.368 . S
C1930 C1929 1.523 . S
H1931 C1906 0.950 . S
H1932 C1908 0.950 . S
H1933 C1909 0.949 . S
H1934 C1911 0.950 . S
H1935 C1913 0.950 . S
C1936 C1937 1.349 . S
C1936 C1938 1.327 . S
C1936 H1961 0.950 1_556 S
C1937 C1936 1.349 . S
C1937 C1953 1.349 . S
C1938 C1936 1.327 . S
C1938 C1957 1.429 . S
C1938 H1962 0.950 . S
C1939 C1956 1.574 . S
C1939 C1958 1.368 . S
C1939 H1963 0.949 . S
H1940 C1944 0.949 . S
C1941 C1942 1.349 . S
C1941 C1943 1.327 1_545 S
C1941 H1964 0.950 . S
C1942 C1941 1.349 . S
C1942 C1954 1.349 . S
C1943 C1941 1.327 1_565 S
C1943 C1959 1.429 . S
C1943 H1965 0.950 . S
C1944 H1940 0.949 . S
C1944 C1952 1.574 . S
C1944 C1960 1.368 . S
H1945 C1953 0.950 . S
H1946 C1951 0.950 . S
H1947 C1952 0.949 . S
H1948 C1954 0.950 . S
H1949 C1955 0.950 . S
H1950 C1956 0.949 . S
C1951 H1946 0.950 . S
C1951 C1953 1.327 . S
C1951 C1957 1.429 . S
C1952 C1944 1.574 . S
C1952 H1947 0.949 . S
C1952 C1958 1.368 . S
C1953 C1937 1.349 . S
C1953 H1945 0.950 . S
C1953 C1951 1.327 . S
C1954 C1942 1.349 . S
C1954 H1948 0.950 . S
C1954 C1955 1.327 . S
C1955 H1949 0.950 . S
C1955 C1954 1.327 . S
C1955 C1959 1.429 1_545 S
C1956 C1939 1.574 . S
C1956 H1950 0.949 . S
C1956 C1960 1.368 . S
C1957 C1938 1.429 . S
C1957 C1951 1.429 . S
C1957 C1958 1.523 . S
C1958 C1939 1.368 . S
C1958 C1952 1.368 . S
C1958 C1957 1.523 . S
C1959 C1943 1.429 . S
C1959 C1955 1.429 1_565 S
C1959 C1960 1.523 . S
C1960 C1944 1.368 . S
C1960 C1956 1.368 . S
C1960 C1959 1.523 . S
H1961 C1936 0.950 1_554 S
H1962 C1938 0.950 . S
H1963 C1939 0.949 . S
H1964 C1941 0.950 . S
H1965 C1943 0.950 . S
C1966 C1967 1.349 . S
C1966 C1968 1.327 . S
C1966 H1991 0.950 . S
C1967 C1966 1.349 . S
C1967 C1983 1.349 . S
C1968 C1966 1.327 . S
C1968 C1987 1.429 . S
C1968 H1992 0.950 . S
C1969 C1986 1.574 . S
C1969 C1988 1.368 . S
C1969 H1993 0.949 . S
H1970 C1974 0.949 1_556 S
C1971 C1972 1.349 . S
C1971 C1973 1.327 . S
C1971 H1994 0.950 . S
C1972 C1971 1.349 . S
C1972 C1984 1.349 1_554 S
C1973 C1971 1.327 . S
C1973 C1989 1.429 . S
C1973 H1995 0.950 . S
C1974 H1970 0.949 1_554 S
C1974 C1982 1.574 . S
C1974 C1990 1.368 . S
H1975 C1983 0.950 . S
H1976 C1981 0.950 . S
H1977 C1982 0.949 . S
H1978 C1984 0.950 . S
H1979 C1985 0.950 1_556 S
H1980 C1986 0.949 . S
C1981 H1976 0.950 . S
C1981 C1983 1.327 . S
C1981 C1987 1.429 . S
C1982 C1974 1.574 . S
C1982 H1977 0.949 . S
C1982 C1988 1.368 . S
C1983 C1967 1.349 . S
C1983 H1975 0.950 . S
C1983 C1981 1.327 . S
C1984 C1972 1.349 1_556 S
C1984 H1978 0.950 . S
C1984 C1985 1.327 1_556 S
C1985 H1979 0.950 1_554 S
C1985 C1984 1.327 1_554 S
C1985 C1989 1.429 . S
C1986 C1969 1.574 . S
C1986 H1980 0.949 . S
C1986 C1990 1.368 . S
C1987 C1968 1.429 . S
C1987 C1981 1.429 . S
C1987 C1988 1.523 . S
C1988 C1969 1.368 . S
C1988 C1982 1.368 . S
C1988 C1987 1.523 . S
C1989 C1973 1.429 . S
C1989 C1985 1.429 . S
C1989 C1990 1.523 . S
C1990 C1974 1.368 . S
C1990 C1986 1.368 . S
C1990 C1989 1.523 . S
H1991 C1966 0.950 . S
H1992 C1968 0.950 . S
H1993 C1969 0.949 . S
H1994 C1971 0.950 . S
H1995 C1973 0.950 . S
C1996 C1997 1.349 . S
C1996 C1998 1.327 . S
C1996 H2021 0.950 . S
C1997 C1996 1.349 . S
C1997 C2013 1.349 . S
C1998 C1996 1.327 . S
C1998 C2017 1.410 1_565 S
C1998 H2022 0.950 1_565 S
C1999 C2016 1.574 . S
C1999 C2018 1.368 . S
C1999 H2023 0.949 . S
H2000 C2004 0.949 . S
C2001 C2002 1.349 . S
C2001 C2003 1.327 . S
C2001 H2024 0.950 . S
C2002 C2001 1.349 . S
C2002 C2014 1.349 . S
C2003 C2001 1.327 . S
C2003 C2019 1.429 . S
C2003 H2025 0.950 . S
C2004 H2000 0.949 . S
C2004 C2012 1.574 . S
C2004 C2020 1.368 . S
H2005 C2013 0.950 . S
H2006 C2011 0.950 . S
H2007 C2012 0.949 . S
H2008 C2014 0.950 . S
H2009 C2015 0.950 . S
H2010 C2016 0.949 . S
C2011 H2006 0.950 . S
C2011 C2013 1.327 . S
C2011 C2017 1.396 1_565 S
C2012 C2004 1.574 . S
C2012 H2007 0.949 . S
C2012 C2018 1.368 . S
C2013 C1997 1.349 . S
C2013 H2005 0.950 . S
C2013 C2011 1.327 . S
C2014 C2002 1.349 . S
C2014 H2008 0.950 . S
C2014 C2015 1.327 . S
C2015 H2009 0.950 . S
C2015 C2014 1.327 . S
C2015 C2019 1.429 . S
C2016 C1999 1.574 . S
C2016 H2010 0.949 . S
C2016 C2020 1.368 . S
C2017 C1998 1.410 1_545 S
C2017 C2011 1.396 1_545 S
C2017 C2018 1.571 . S
C2018 C1999 1.368 . S
C2018 C2012 1.368 . S
C2018 C2017 1.571 . S
C2019 C2003 1.429 . S
C2019 C2015 1.429 . S
C2019 C2020 1.523 . S
C2020 C2004 1.368 . S
C2020 C2016 1.368 . S
C2020 C2019 1.523 . S
H2021 C1996 0.950 . S
H2022 C1998 0.950 1_545 S
H2023 C1999 0.949 . S
H2024 C2001 0.950 . S
H2025 C2003 0.950 . S
C2026 C2027 1.349 . S
C2026 C2028 1.327 . S
C2026 H2051 0.950 . S
C2027 C2026 1.349 . S
C2027 C2043 1.349 . S
C2028 C2026 1.327 . S
C2028 C2047 1.429 . S
C2028 H2052 0.950 . S
C2029 C2046 1.574 . S
C2029 C2048 1.368 . S
C2029 H2053 0.949 . S
H2030 C2034 0.949 . S
C2031 C2032 1.349 . S
C2031 C2033 1.327 . S
C2031 H2054 0.950 . S
C2032 C2031 1.349 . S
C2032 C2044 1.349 . S
C2033 C2031 1.327 . S
C2033 C2049 1.429 . S
C2033 H2055 0.950 . S
C2034 H2030 0.949 . S
C2034 C2042 1.574 . S
C2034 C2050 1.368 . S
H2035 C2043 0.950 . S
H2036 C2041 0.950 . S
H2037 C2042 0.949 . S
H2038 C2044 0.950 . S
H2039 C2045 0.950 . S
H2040 C2046 0.949 . S
C2041 H2036 0.950 . S
C2041 C2043 1.327 . S
C2041 C2047 1.429 . S
C2042 C2034 1.574 . S
C2042 H2037 0.949 . S
C2042 C2048 1.368 . S
C2043 C2027 1.349 . S
C2043 H2035 0.950 . S
C2043 C2041 1.327 . S
C2044 C2032 1.349 . S
C2044 H2038 0.950 . S
C2044 C2045 1.327 . S
C2045 H2039 0.950 . S
C2045 C2044 1.327 . S
C2045 C2049 1.429 . S
C2046 C2029 1.574 . S
C2046 H2040 0.949 . S
C2046 C2050 1.368 . S
C2047 C2028 1.429 . S
C2047 C2041 1.429 . S
C2047 C2048 1.523 . S
C2048 C2029 1.368 . S
C2048 C2042 1.368 . S
C2048 C2047 1.523 . S
C2049 C2033 1.429 . S
C2049 C2045 1.429 . S
C2049 C2050 1.523 . S
C2050 C2034 1.368 . S
C2050 C2046 1.368 . S
C2050 C2049 1.523 . S
H2051 C2026 0.950 . S
H2052 C2028 0.950 . S
H2053 C2029 0.949 . S
H2054 C2031 0.950 . S
H2055 C2033 0.950 . S
C2056 C2057 1.349 . S
C2056 C2058 1.327 . S
C2056 H2081 0.950 . S
C2057 C2056 1.349 . S
C2057 C2073 1.349 . S
C2058 C2056 1.327 . S
C2058 C2077 1.429 . S
C2058 H2082 0.950 . S
C2059 C2076 1.574 . S
C2059 C2078 1.368 . S
C2059 H2083 0.949 . S
H2060 C2064 0.949 . S
C2061 C2062 1.349 . S
C2061 C2063 1.327 . S
C2061 H2084 0.950 . S
C2062 C2061 1.349 . S
C2062 C2074 1.349 . S
C2063 C2061 1.327 . S
C2063 C2079 1.429 1_565 S
C2063 H2085 0.950 1_565 S
C2064 H2060 0.949 . S
C2064 C2072 1.574 . S
C2064 C2080 1.368 . S
H2065 C2073 0.950 . S
H2066 C2071 0.950 . S
H2067 C2072 0.949 . S
H2068 C2074 0.950 . S
H2069 C2075 0.950 1_545 S
H2070 C2076 0.949 . S
C2071 H2066 0.950 . S
C2071 C2073 1.327 . S
C2071 C2077 1.429 . S
C2072 C2064 1.574 . S
C2072 H2067 0.949 . S
C2072 C2078 1.368 . S
C2073 C2057 1.349 . S
C2073 H2065 0.950 . S
C2073 C2071 1.327 . S
C2074 C2062 1.349 . S
C2074 H2068 0.950 . S
C2074 C2075 1.327 . S
C2075 H2069 0.950 1_565 S
C2075 C2074 1.327 . S
C2075 C2079 1.429 1_565 S
C2076 C2059 1.574 . S
C2076 H2070 0.949 . S
C2076 C2080 1.368 . S
C2077 C2058 1.429 . S
C2077 C2071 1.429 . S
C2077 C2078 1.523 . S
C2078 C2059 1.368 . S
C2078 C2072 1.368 . S
C2078 C2077 1.523 . S
C2079 C2063 1.429 1_545 S
C2079 C2075 1.429 1_545 S
C2079 C2080 1.523 . S
C2080 C2064 1.368 . S
C2080 C2076 1.368 . S
C2080 C2079 1.523 . S
H2081 C2056 0.950 . S
H2082 C2058 0.950 . S
H2083 C2059 0.949 . S
H2084 C2061 0.950 . S
H2085 C2063 0.950 1_545 S
C2086 C2087 1.349 . S
C2086 C2088 1.327 . S
C2086 H2111 0.950 . S
C2087 C2086 1.349 . S
C2087 C2103 1.349 . S
C2088 C2086 1.327 . S
C2088 C2107 1.429 . S
C2088 H2112 0.950 . S
C2089 C2106 1.574 . S
C2089 C2108 1.368 . S
C2089 H2113 0.949 . S
H2090 C2094 0.949 . S
C2091 C2092 1.349 1_554 S
C2091 C2093 1.327 . S
C2091 H2114 0.950 . S
C2092 C2091 1.349 1_556 S
C2092 C2104 1.349 . S
C2093 C2091 1.327 . S
C2093 C2109 1.429 1_554 S
C2093 H2115 0.950 . S
C2094 H2090 0.949 . S
C2094 C2102 1.574 . S
C2094 C2110 1.368 . S
H2095 C2103 0.950 . S
H2096 C2101 0.950 . S
H2097 C2102 0.949 . S
H2098 C2104 0.950 . S
H2099 C2105 0.950 . S
H2100 C2106 0.949 1_554 S
C2101 H2096 0.950 . S
C2101 C2103 1.327 . S
C2101 C2107 1.429 . S
C2102 C2094 1.574 . S
C2102 H2097 0.949 . S
C2102 C2108 1.368 . S
C2103 C2087 1.349 . S
C2103 H2095 0.950 . S
C2103 C2101 1.327 . S
C2104 C2092 1.349 . S
C2104 H2098 0.950 . S
C2104 C2105 1.327 . S
C2105 H2099 0.950 . S
C2105 C2104 1.327 . S
C2105 C2109 1.429 . S
C2106 C2089 1.574 . S
C2106 H2100 0.949 1_556 S
C2106 C2110 1.368 . S
C2107 C2088 1.429 . S
C2107 C2101 1.429 . S
C2107 C2108 1.523 . S
C2108 C2089 1.368 . S
C2108 C2102 1.368 . S
C2108 C2107 1.523 . S
C2109 C2093 1.429 1_556 S
C2109 C2105 1.429 . S
C2109 C2110 1.523 . S
C2110 C2094 1.368 . S
C2110 C2106 1.368 . S
C2110 C2109 1.523 . S
H2111 C2086 0.950 . S
H2112 C2088 0.950 . S
H2113 C2089 0.949 . S
H2114 C2091 0.950 . S
H2115 C2093 0.950 . S
C2116 C2117 1.349 . S
C2116 C2118 1.327 . S
C2116 H2141 0.950 . S
C2117 C2116 1.349 . S
C2117 C2133 1.349 . S
C2118 C2116 1.327 . S
C2118 C2137 1.429 . S
C2118 H2142 0.950 . S
C2119 C2136 1.574 . S
C2119 C2138 1.368 . S
C2119 H2143 0.949 . S
H2120 C2124 0.949 . S
C2121 C2122 1.349 . S
C2121 C2123 1.327 . S
C2121 H2144 0.950 . S
C2122 C2121 1.349 . S
C2122 C2134 1.349 . S
C2123 C2121 1.327 . S
C2123 C2139 1.429 1_545 S
C2123 H2145 0.950 1_545 S
C2124 H2120 0.949 . S
C2124 C2132 1.574 . S
C2124 C2140 1.368 . S
H2125 C2133 0.950 . S
H2126 C2131 0.950 . S
H2127 C2132 0.949 . S
H2128 C2134 0.950 . S
H2129 C2135 0.937 1_565 S
H2130 C2136 0.949 . S
C2131 H2126 0.950 . S
C2131 C2133 1.327 . S
C2131 C2137 1.429 . S
C2132 C2124 1.574 . S
C2132 H2127 0.949 . S
C2132 C2138 1.368 . S
C2133 C2117 1.349 . S
C2133 H2125 0.950 . S
C2133 C2131 1.327 . S
C2134 C2122 1.349 . S
C2134 H2128 0.950 . S
C2134 C2135 1.327 . S
C2135 H2129 0.937 1_545 S
C2135 C2134 1.327 . S
C2135 C2139 1.429 1_545 S
C2136 C2119 1.574 . S
C2136 H2130 0.949 . S
C2136 C2140 1.368 . S
C2137 C2118 1.429 . S
C2137 C2131 1.429 . S
C2137 C2138 1.523 . S
C2138 C2119 1.368 . S
C2138 C2132 1.368 . S
C2138 C2137 1.523 . S
C2139 C2123 1.429 1_565 S
C2139 C2135 1.429 1_565 S
C2139 C2140 1.523 . S
C2140 C2124 1.368 . S
C2140 C2136 1.368 . S
C2140 C2139 1.523 . S
H2141 C2116 0.950 . S
H2142 C2118 0.950 . S
H2143 C2119 0.949 . S
H2144 C2121 0.950 . S
H2145 C2123 0.950 1_565 S
C2146 C2147 1.349 . S
C2146 C2148 1.327 . S
C2146 H2171 0.950 . S
C2147 C2146 1.349 . S
C2147 C2163 1.349 . S
C2148 C2146 1.327 . S
C2148 C2167 1.429 . S
C2148 H2172 0.950 . S
C2149 C2166 1.574 . S
C2149 C2168 1.368 . S
C2149 H2173 0.949 . S
H2150 C2154 0.949 . S
C2151 C2152 1.349 . S
C2151 C2153 1.327 . S
C2151 H2174 0.950 . S
C2152 C2151 1.349 . S
C2152 C2164 1.349 . S
C2153 C2151 1.327 . S
C2153 C2169 1.429 . S
C2153 H2175 0.950 . S
C2154 H2150 0.949 . S
C2154 C2162 1.574 . S
C2154 C2170 1.368 . S
H2155 C2163 0.950 . S
H2156 C2161 0.950 . S
H2157 C2162 0.949 . S
H2158 C2164 0.950 . S
H2159 C2165 0.950 . S
H2160 C2166 0.949 . S
C2161 H2156 0.950 . S
C2161 C2163 1.327 . S
C2161 C2167 1.429 . S
C2162 C2154 1.574 . S
C2162 H2157 0.949 . S
C2162 C2168 1.368 . S
C2163 C2147 1.349 . S
C2163 H2155 0.950 . S
C2163 C2161 1.327 . S
C2164 C2152 1.349 . S
C2164 H2158 0.950 . S
C2164 C2165 1.327 . S
C2165 H2159 0.950 . S
C2165 C2164 1.327 . S
C2165 C2169 1.429 . S
C2166 C2149 1.574 . S
C2166 H2160 0.949 . S
C2166 C2170 1.368 . S
C2167 C2148 1.429 . S
C2167 C2161 1.429 . S
C2167 C2168 1.523 . S
C2168 C2149 1.368 . S
C2168 C2162 1.368 . S
C2168 C2167 1.523 . S
C2169 C2153 1.429 . S
C2169 C2165 1.429 . S
C2169 C2170 1.523 . S
C2170 C2154 1.368 . S
C2170 C2166 1.368 . S
C2170 C2169 1.523 . S
H2171 C2146 0.950 . S
H2172 C2148 0.950 . S
H2173 C2149 0.949 . S
H2174 C2151 0.950 . S
H2175 C2153 0.950 . S
C2176 C2177 1.349 . S
C2176 C2178 1.327 . S
C2176 H2201 0.950 . S
C2177 C2176 1.349 . S
C2177 C2193 1.349 . S
C2178 C2176 1.327 . S
C2178 C2197 1.429 . S
C2178 H2202 0.950 . S
C2179 C2196 1.574 . S
C2179 C2198 1.368 . S
C2179 H2203 0.949 . S
H2180 C2184 0.949 . S
C2181 C2182 1.349 . S
C2181 C2183 1.327 . S
C2181 H2204 0.950 . S
C2182 C2181 1.349 . S
C2182 C2194 1.349 . S
C2183 C2181 1.327 . S
C2183 C2199 1.429 . S
C2183 H2205 0.950 . S
C2184 H2180 0.949 . S
C2184 C2192 1.574 . S
C2184 C2200 1.368 . S
H2185 C2193 0.950 . S
H2186 C2191 0.950 . S
H2187 C2192 0.949 . S
H2188 C2194 0.950 . S
H2189 C2195 0.950 . S
H2190 C2196 0.949 . S
C2191 H2186 0.950 . S
C2191 C2193 1.327 . S
C2191 C2197 1.429 . S
C2192 C2184 1.574 . S
C2192 H2187 0.949 . S
C2192 C2198 1.368 . S
C2193 C2177 1.349 . S
C2193 H2185 0.950 . S
C2193 C2191 1.327 . S
C2194 C2182 1.349 . S
C2194 H2188 0.950 . S
C2194 C2195 1.327 . S
C2195 H2189 0.950 . S
C2195 C2194 1.327 . S
C2195 C2199 1.429 . S
C2196 C2179 1.574 . S
C2196 H2190 0.949 . S
C2196 C2200 1.368 . S
C2197 C2178 1.429 . S
C2197 C2191 1.429 . S
C2197 C2198 1.523 . S
C2198 C2179 1.368 . S
C2198 C2192 1.368 . S
C2198 C2197 1.523 . S
C2199 C2183 1.429 . S
C2199 C2195 1.429 . S
C2199 C2200 1.523 . S
C2200 C2184 1.368 . S
C2200 C2196 1.368 . S
C2200 C2199 1.523 . S
H2201 C2176 0.950 . S
H2202 C2178 0.950 . S
H2203 C2179 0.949 . S
H2204 C2181 0.950 . S
H2205 C2183 0.950 . S
C2206 C2207 1.349 . S
C2206 C2208 1.327 . S
C2206 H2231 0.950 . S
C2207 C2206 1.349 . S
C2207 C2223 1.349 . S
C2208 C2206 1.327 . S
C2208 C2227 1.429 . S
C2208 H2232 0.950 . S
C2209 C2226 1.574 . S
C2209 C2228 1.368 1_554 S
C2209 H2233 0.949 . S
H2210 C2214 0.949 . S
C2211 C2212 1.349 . S
C2211 C2213 1.327 . S
C2211 H2234 0.950 . S
C2212 C2211 1.349 . S
C2212 C2224 1.349 . S
C2213 C2211 1.327 . S
C2213 C2229 1.429 . S
C2213 H2235 0.950 . S
C2214 H2210 0.949 . S
C2214 C2222 1.574 . S
C2214 C2230 1.368 1_556 S
H2215 C2223 0.950 . S
H2216 C2221 0.950 1_554 S
H2217 C2222 0.949 . S
H2218 C2224 0.950 . S
H2219 C2225 0.950 . S
H2220 C2226 0.949 . S
C2221 H2216 0.950 1_556 S
C2221 C2223 1.327 . S
C2221 C2227 1.429 . S
C2222 C2214 1.574 . S
C2222 H2217 0.949 . S
C2222 C2228 1.368 . S
C2223 C2207 1.349 . S
C2223 H2215 0.950 . S
C2223 C2221 1.327 . S
C2224 C2212 1.349 . S
C2224 H2218 0.950 . S
C2224 C2225 1.327 . S
C2225 H2219 0.950 . S
C2225 C2224 1.327 . S
C2225 C2229 1.429 . S
C2226 C2209 1.574 . S
C2226 H2220 0.949 . S
C2226 C2230 1.368 . S
C2227 C2208 1.429 . S
C2227 C2221 1.429 . S
C2227 C2228 1.523 . S
C2228 C2209 1.368 1_556 S
C2228 C2222 1.368 . S
C2228 C2227 1.523 . S
C2229 C2213 1.429 . S
C2229 C2225 1.429 . S
C2229 C2230 1.523 . S
C2230 C2214 1.368 1_554 S
C2230 C2226 1.368 . S
C2230 C2229 1.523 . S
H2231 C2206 0.950 . S
H2232 C2208 0.950 . S
H2233 C2209 0.949 . S
H2234 C2211 0.950 . S
H2235 C2213 0.950 . S
C2236 C2237 1.349 . S
C2236 C2238 1.327 . S
C2236 H2261 0.950 . S
C2237 C2236 1.349 . S
C2237 C2253 1.349 . S
C2238 C2236 1.327 . S
C2238 C2257 1.429 . S
C2238 H2262 0.950 . S
C2239 C2256 1.574 . S
C2239 C2258 1.368 . S
C2239 H2263 0.949 . S
H2240 C2244 0.949 . S
C2241 C2242 1.349 . S
C2241 C2243 1.327 . S
C2241 H2264 0.950 . S
C2242 C2241 1.349 . S
C2242 C2254 1.349 . S
C2243 C2241 1.327 . S
C2243 C2259 1.429 . S
C2243 H2265 0.950 . S
C2244 H2240 0.949 . S
C2244 C2252 1.574 . S
C2244 C2260 1.368 . S
H2245 C2253 0.950 . S
H2246 C2251 0.950 . S
H2247 C2252 0.949 . S
H2248 C2254 0.950 . S
H2249 C2255 0.950 . S
H2250 C2256 0.949 . S
C2251 H2246 0.950 . S
C2251 C2253 1.327 . S
C2251 C2257 1.429 . S
C2252 C2244 1.574 . S
C2252 H2247 0.949 . S
C2252 C2258 1.368 . S
C2253 C2237 1.349 . S
C2253 H2245 0.950 . S
C2253 C2251 1.327 . S
C2254 C2242 1.349 . S
C2254 H2248 0.950 . S
C2254 C2255 1.327 . S
C2255 H2249 0.950 . S
C2255 C2254 1.327 . S
C2255 C2259 1.429 . S
C2256 C2239 1.574 . S
C2256 H2250 0.949 . S
C2256 C2260 1.368 . S
C2257 C2238 1.429 . S
C2257 C2251 1.429 . S
C2257 C2258 1.523 . S
C2258 C2239 1.368 . S
C2258 C2252 1.368 . S
C2258 C2257 1.523 . S
C2259 C2243 1.429 . S
C2259 C2255 1.429 . S
C2259 C2260 1.523 . S
C2260 C2244 1.368 . S
C2260 C2256 1.368 . S
C2260 C2259 1.523 . S
H2261 C2236 0.950 . S
H2262 C2238 0.950 . S
H2263 C2239 0.949 . S
H2264 C2241 0.950 . S
H2265 C2243 0.950 . S
C2266 C2267 1.349 . S
C2266 C2268 1.327 . S
C2266 H2291 0.950 . S
C2267 C2266 1.349 . S
C2267 C2283 1.349 . S
C2268 C2266 1.327 . S
C2268 C2287 1.429 . S
C2268 H2292 0.950 . S
C2269 C2286 1.574 . S
C2269 C2288 1.368 1_655 S
C2269 H2293 0.949 . S
H2270 C2274 0.949 . S
C2271 C2272 1.349 . S
C2271 C2273 1.327 . S
C2271 H2294 0.950 . S
C2272 C2271 1.349 . S
C2272 C2284 1.349 . S
C2273 C2271 1.327 . S
C2273 C2289 1.429 . S
C2273 H2295 0.950 . S
C2274 H2270 0.949 . S
C2274 C2282 1.574 . S
C2274 C2290 1.368 1_455 S
H2275 C2283 0.950 . S
H2276 C2281 0.950 1_655 S
H2277 C2282 0.949 . S
H2278 C2284 0.950 . S
H2279 C2285 0.950 1_455 S
H2280 C2286 0.949 . S
C2281 H2276 0.950 1_455 S
C2281 C2283 1.327 . S
C2281 C2287 1.429 . S
C2282 C2274 1.574 . S
C2282 H2277 0.949 . S
C2282 C2288 1.368 . S
C2283 C2267 1.349 . S
C2283 H2275 0.950 . S
C2283 C2281 1.327 . S
C2284 C2272 1.349 . S
C2284 H2278 0.950 . S
C2284 C2285 1.327 . S
C2285 H2279 0.950 1_655 S
C2285 C2284 1.327 . S
C2285 C2289 1.429 . S
C2286 C2269 1.574 . S
C2286 H2280 0.949 . S
C2286 C2290 1.368 . S
C2287 C2268 1.429 . S
C2287 C2281 1.429 . S
C2287 C2288 1.523 . S
C2288 C2269 1.368 1_455 S
C2288 C2282 1.368 . S
C2288 C2287 1.523 . S
C2289 C2273 1.429 . S
C2289 C2285 1.429 . S
C2289 C2290 1.523 . S
C2290 C2274 1.368 1_655 S
C2290 C2286 1.368 . S
C2290 C2289 1.523 . S
H2291 C2266 0.950 . S
H2292 C2268 0.950 . S
H2293 C2269 0.949 . S
H2294 C2271 0.950 . S
H2295 C2273 0.950 . S
C2296 C2297 1.349 . S
C2296 C2298 1.327 . S
C2296 H2321 0.950 . S
C2297 C2296 1.349 . S
C2297 C2313 1.349 . S
C2298 C2296 1.327 . S
C2298 C2317 1.429 . S
C2298 H2322 0.950 . S
C2299 C2316 1.574 . S
C2299 C2318 1.368 . S
C2299 H2323 0.949 . S
H2300 C2304 0.949 . S
C2301 C2302 1.349 . S
C2301 C2303 1.327 . S
C2301 H2324 0.950 . S
C2302 C2301 1.349 . S
C2302 C2314 1.349 . S
C2303 C2301 1.327 . S
C2303 C2319 1.429 . S
C2303 H2325 0.950 . S
C2304 H2300 0.949 . S
C2304 C2312 1.574 . S
C2304 C2320 1.368 . S
H2305 C2313 0.950 . S
H2306 C2311 0.950 . S
H2307 C2312 0.949 . S
H2308 C2314 0.950 . S
H2309 C2315 0.950 . S
H2310 C2316 0.949 . S
C2311 H2306 0.950 . S
C2311 C2313 1.327 . S
C2311 C2317 1.429 . S
C2312 C2304 1.574 . S
C2312 H2307 0.949 . S
C2312 C2318 1.368 . S
C2313 C2297 1.349 . S
C2313 H2305 0.950 . S
C2313 C2311 1.327 . S
C2314 C2302 1.349 . S
C2314 H2308 0.950 . S
C2314 C2315 1.327 . S
C2315 H2309 0.950 . S
C2315 C2314 1.327 . S
C2315 C2319 1.429 . S
C2316 C2299 1.574 . S
C2316 H2310 0.949 . S
C2316 C2320 1.368 . S
C2317 C2298 1.429 . S
C2317 C2311 1.429 . S
C2317 C2318 1.523 . S
C2318 C2299 1.368 . S
C2318 C2312 1.368 . S
C2318 C2317 1.523 . S
C2319 C2303 1.429 . S
C2319 C2315 1.429 . S
C2319 C2320 1.523 . S
C2320 C2304 1.368 . S
C2320 C2316 1.368 . S
C2320 C2319 1.523 . S
H2321 C2296 0.950 . S
H2322 C2298 0.950 . S
H2323 C2299 0.949 . S
H2324 C2301 0.950 . S
H2325 C2303 0.950 . S
C2326 C2327 1.349 . S
C2326 C2328 1.327 . S
C2326 H2351 0.950 . S
C2327 C2326 1.349 . S
C2327 C2343 1.349 . S
C2328 C2326 1.327 . S
C2328 C2347 1.429 . S
C2328 H2352 0.950 . S
C2329 C2346 1.574 . S
C2329 C2348 1.368 . S
C2329 H2353 0.949 . S
H2330 C2334 0.949 . S
C2331 C2332 1.349 . S
C2331 C2333 1.327 . S
C2331 H2354 0.950 . S
C2332 C2331 1.349 . S
C2332 C2344 1.349 . S
C2333 C2331 1.327 . S
C2333 C2349 1.429 . S
C2333 H2355 0.950 . S
C2334 H2330 0.949 . S
C2334 C2342 1.574 . S
C2334 C2350 1.368 . S
H2335 C2343 0.950 . S
H2336 C2341 0.950 . S
H2337 C2342 0.949 . S
H2338 C2344 0.950 1_554 S
H2339 C2345 0.950 . S
H2340 C2346 0.949 . S
C2341 H2336 0.950 . S
C2341 C2343 1.327 . S
C2341 C2347 1.429 . S
C2342 C2334 1.574 . S
C2342 H2337 0.949 . S
C2342 C2348 1.368 . S
C2343 C2327 1.349 . S
C2343 H2335 0.950 . S
C2343 C2341 1.327 . S
C2344 C2332 1.349 . S
C2344 H2338 0.950 1_556 S
C2344 C2345 1.327 . S
C2345 H2339 0.950 . S
C2345 C2344 1.327 . S
C2345 C2349 1.429 . S
C2346 C2329 1.574 . S
C2346 H2340 0.949 . S
C2346 C2350 1.368 . S
C2347 C2328 1.429 . S
C2347 C2341 1.429 . S
C2347 C2348 1.523 . S
C2348 C2329 1.368 . S
C2348 C2342 1.368 . S
C2348 C2347 1.523 . S
C2349 C2333 1.429 . S
C2349 C2345 1.429 . S
C2349 C2350 1.523 . S
C2350 C2334 1.368 . S
C2350 C2346 1.368 . S
C2350 C2349 1.523 . S
H2351 C2326 0.950 . S
H2352 C2328 0.950 . S
H2353 C2329 0.949 . S
H2354 C2331 0.950 . S
H2355 C2333 0.950 . S
C2356 C2357 1.349 . S
C2356 C2358 1.327 . S
C2356 H2381 0.950 . S
C2357 C2356 1.349 . S
C2357 C2373 1.349 . S
C2358 C2356 1.327 . S
C2358 C2377 1.429 . S
C2358 H2382 0.950 1_655 S
C2359 C2376 1.574 . S
C2359 C2378 1.368 1_545 S
C2359 H2383 0.949 . S
H2360 C2364 0.949 . S
C2361 C2362 1.349 . S
C2361 C2363 1.327 . S
C2361 H2384 0.950 . S
C2362 C2361 1.349 . S
C2362 C2374 1.349 . S
C2363 C2361 1.327 . S
C2363 C2379 1.429 . S
C2363 H2385 0.928 1_455 S
C2364 H2360 0.949 . S
C2364 C2372 1.574 . S
C2364 C2380 1.368 1_565 S
H2365 C2373 0.950 . S
H2366 C2371 0.950 . S
H2367 C2372 0.949 . S
H2368 C2374 0.950 . S
H2369 C2375 0.950 . S
H2370 C2376 0.949 . S
C2371 H2366 0.950 . S
C2371 C2373 1.327 . S
C2371 C2377 1.429 . S
C2372 C2364 1.574 . S
C2372 H2367 0.949 . S
C2372 C2378 1.368 1_455 S
C2373 C2357 1.349 . S
C2373 H2365 0.950 . S
C2373 C2371 1.327 . S
C2374 C2362 1.349 . S
C2374 H2368 0.950 . S
C2374 C2375 1.327 . S
C2375 H2369 0.950 . S
C2375 C2374 1.327 . S
C2375 C2379 1.429 . S
C2376 C2359 1.574 . S
C2376 H2370 0.949 . S
C2376 C2380 1.368 1_655 S
C2377 C2358 1.429 . S
C2377 C2371 1.429 . S
C2377 C2378 1.523 . S
C2378 C2359 1.368 1_565 S
C2378 C2372 1.368 1_655 S
C2378 C2377 1.523 . S
C2379 C2363 1.429 . S
C2379 C2375 1.429 . S
C2379 C2380 1.523 . S
C2380 C2364 1.368 1_545 S
C2380 C2376 1.368 1_455 S
C2380 C2379 1.523 . S
H2381 C2356 0.950 . S
H2382 C2358 0.950 1_455 S
H2383 C2359 0.949 . S
H2384 C2361 0.950 . S
H2385 C2363 0.928 1_655 S
C2386 C2387 1.349 . S
C2386 C2388 1.327 . S
C2386 H2411 0.950 . S
C2387 C2386 1.349 . S
C2387 C2403 1.349 . S
C2388 C2386 1.327 . S
C2388 C2407 1.429 . S
C2388 H2412 0.950 . S
C2389 C2406 1.574 1_565 S
C2389 C2408 1.368 1_556 S
C2389 H2413 0.949 . S
H2390 C2394 0.949 . S
C2391 C2392 1.349 . S
C2391 C2393 1.327 . S
C2391 H2414 0.950 . S
C2392 C2391 1.349 . S
C2392 C2404 1.349 . S
C2393 C2391 1.327 . S
C2393 C2409 1.429 . S
C2393 H2415 0.950 . S
C2394 H2390 0.949 . S
C2394 C2402 1.574 1_545 S
C2394 C2410 1.368 1_554 S
H2395 C2403 0.950 . S
H2396 C2401 0.950 . S
H2397 C2402 0.949 . S
H2398 C2404 0.950 . S
H2399 C2405 0.950 1_554 S
H2400 C2406 0.949 . S
C2401 H2396 0.950 . S
C2401 C2403 1.327 . S
C2401 C2407 1.429 . S
C2402 C2394 1.574 1_565 S
C2402 H2397 0.949 . S
C2402 C2408 1.368 . S
C2403 C2387 1.349 . S
C2403 H2395 0.950 . S
C2403 C2401 1.327 . S
C2404 C2392 1.349 . S
C2404 H2398 0.950 . S
C2404 C2405 1.327 . S
C2405 H2399 0.950 1_556 S
C2405 C2404 1.327 . S
C2405 C2409 1.429 . S
C2406 C2389 1.574 1_545 S
C2406 H2400 0.949 . S
C2406 C2410 1.368 . S
C2407 C2388 1.429 . S
C2407 C2401 1.429 . S
C2407 C2408 1.523 . S
C2408 C2389 1.368 1_554 S
C2408 C2402 1.368 . S
C2408 C2407 1.523 . S
C2409 C2393 1.429 . S
C2409 C2405 1.429 . S
C2409 C2410 1.523 . S
C2410 C2394 1.368 1_556 S
C2410 C2406 1.368 . S
C2410 C2409 1.523 . S
H2411 C2386 0.950 . S
H2412 C2388 0.950 . S
H2413 C2389 0.949 . S
H2414 C2391 0.950 . S
H2415 C2393 0.950 . S
C497 C19 1.751 . S
C502 C423 1.705 . S
C527 C41 1.602 . S
C532 C187 1.695 . S
C557 C485 1.751 . S
C562 C72 1.658 . S
C587 C125 1.761 . S
C592 C112 1.810 . S
C617 C124 1.935 . S
C622 C281 1.875 . S
C647 C155 2.001 . S
C652 C64 1.944 . S
C677 C186 1.807 1_556 S
C682 C361 1.762 . S
C707 C236 1.742 . S
C712 C20 1.695 . S
C737 C156 1.705 . S
C742 C267 1.751 . S
C767 C289 1.603 . S
C772 C435 1.695 . S
C797 C320 1.658 . S
C802 C237 1.751 . S
C827 C360 1.810 . S
C832 C373 1.762 . S
C857 C33 1.875 . S
C862 C372 1.936 1_556 S
C887 C312 1.944 . S
C892 C422 2.001 . S
C917 C113 1.762 . S
C922 C434 1.807 . S
C947 C268 1.695 . S
C952 C484 1.742 . S
C977 C0 1.381 . S
C982 C10 1.393 . S
C1007 C61 1.394 . S
C1012 C50 1.382 . S
C1037 C81 1.384 . S
C1042 C92 1.396 . S
C1067 C103 1.395 . S
C1072 C93 1.383 . S
C1097 C154 1.393 . S
C1102 C143 1.381 . S
C1127 C174 1.382 . S
C1132 C185 1.395 . S
C1157 C216 1.396 . S
C1162 C205 1.384 . S
C1187 C227 1.395 . S
C1192 C217 1.383 . S
C1217 C248 1.381 . S
C1222 C258 1.393 . S
C1247 C309 1.394 . S
C1252 C298 1.382 . S
C1277 C340 1.396 . S
C1282 C329 1.384 . S
C1307 C341 1.383 . S
C1312 C351 1.395 . S
C1337 C402 1.393 . S
C1342 C391 1.381 . S
C1367 C403 1.382 . S
C1372 C413 1.395 . S
C1397 C464 1.396 . S
C1402 C453 1.384 . S
C1427 C465 1.383 . S
C1432 C475 1.395 . S
C1457 C1 0.573 . S
C1462 C392 0.573 . S
C1487 C175 0.562 . S
C1492 C60 0.593 . S
C1517 C91 0.600 . S
C1522 C454 0.571 . S
C1547 C94 0.577 . S
C1552 C218 0.578 . S
C1577 C144 0.574 . S
C1582 C249 0.573 . S
C1607 C206 0.571 . S
C1612 C339 0.600 . S
C1637 C404 0.562 . S
C1642 C308 0.593 . S
C1667 C466 0.578 . S
C1672 C342 0.577 . S
C1697 C123 1.757 . S
C1702 C29 1.925 . S
C1727 C32 1.758 . S
C1732 C30 1.592 . S
C1757 C63 1.809 . S
C1762 C31 1.753 . S
C1787 C122 1.978 . S
C1792 C62 1.926 . S
C1817 C247 1.778 . S
C1822 C126 1.944 . S
C1847 C157 2.010 . S
C1852 C134 1.846 . S
C1877 C165 1.824 . S
C1882 C188 1.990 . S
C1907 C196 1.755 . S
C1912 C246 1.923 . S
C1937 C277 1.925 . S
C1942 C371 1.757 . S
C1967 C280 1.758 . S
C1972 C278 1.592 . S
C1997 C279 1.753 . S
C2002 C311 1.809 . S
C2027 C310 1.927 . S
C2032 C370 1.978 . S
C2057 C374 1.944 . S
C2062 C495 1.778 . S
C2087 C432 2.010 . S
C2092 C382 1.846 1_556 S
C2117 C436 1.990 . S
C2122 C433 1.824 . S
C2147 C444 1.756 . S
C2152 C494 1.923 . S
C2177 C2 0.593 . S
C2182 C401 0.594 . S
C2207 C51 0.578 . S
C2212 C184 0.615 . S
C2237 C463 0.609 . S
C2242 C82 0.571 . S
C2267 C95 0.582 . S
C2272 C219 0.582 . S
C2297 C250 0.593 . S
C2302 C153 0.593 . S
C2327 C330 0.571 . S
C2332 C215 0.609 . S
C2357 C299 0.578 . S
C2362 C405 0.615 . S
C2387 C467 0.582 . S
C2392 C343 0.582 . S
