# Generated by pormake.
# Topology rkf, (6)-cn, num edge types: 1
# Building blocks:
#     Node 0, Type 0, BuildingBlock: BETFEN_clean_sbu_0, # of connection points: 6
#     Node 1, Type 0, BuildingBlock: BETFEN_clean_sbu_0, # of connection points: 6
#     Node 2, Type 0, BuildingBlock: BETFEN_clean_sbu_0, # of connection points: 6
#     Node 3, Type 0, BuildingBlock: BETFEN_clean_sbu_0, # of connection points: 6
#     Node 4, Type 0, BuildingBlock: BETFEN_clean_sbu_0, # of connection points: 6
#     Node 5, Type 0, BuildingBlock: BETFEN_clean_sbu_0, # of connection points: 6
#     Edge 6, Type (0, 0), BuildingBlock: XIVTED_clean_linker_0, # of connection points: 2
#     Edge 7, Type (0, 0), BuildingBlock: XIVTED_clean_linker_0, # of connection points: 2
#     Edge 8, Type (0, 0), BuildingBlock: XIVTED_clean_linker_0, # of connection points: 2
#     Edge 9, Type (0, 0), BuildingBlock: XIVTED_clean_linker_0, # of connection points: 2
#     Edge 10, Type (0, 0), BuildingBlock: XIVTED_clean_linker_0, # of connection points: 2
#     Edge 11, Type (0, 0), BuildingBlock: XIVTED_clean_linker_0, # of connection points: 2
#     Edge 12, Type (0, 0), BuildingBlock: XIVTED_clean_linker_0, # of connection points: 2
#     Edge 13, Type (0, 0), BuildingBlock: XIVTED_clean_linker_0, # of connection points: 2
#     Edge 14, Type (0, 0), BuildingBlock: XIVTED_clean_linker_0, # of connection points: 2
#     Edge 15, Type (0, 0), BuildingBlock: XIVTED_clean_linker_0, # of connection points: 2
#     Edge 16, Type (0, 0), BuildingBlock: XIVTED_clean_linker_0, # of connection points: 2
#     Edge 17, Type (0, 0), BuildingBlock: XIVTED_clean_linker_0, # of connection points: 2
#     Edge 18, Type (0, 0), BuildingBlock: XIVTED_clean_linker_0, # of connection points: 2
#     Edge 19, Type (0, 0), BuildingBlock: XIVTED_clean_linker_0, # of connection points: 2
#     Edge 20, Type (0, 0), BuildingBlock: XIVTED_clean_linker_0, # of connection points: 2
#     Edge 21, Type (0, 0), BuildingBlock: XIVTED_clean_linker_0, # of connection points: 2
#     Edge 22, Type (0, 0), BuildingBlock: XIVTED_clean_linker_0, # of connection points: 2
#     Edge 23, Type (0, 0), BuildingBlock: XIVTED_clean_linker_0, # of connection points: 2
# Relax obj value: 0.719
# Max RMSD: 0.249
# Mean RMSD: 0.249
data_MOF--net-rkf--node1-BETFEN_clean_sbu_0--edge1-XIVTED_clean_linker_0
_symmetry_space_group_name_H-M    P1
_symmetry_Int_Tables_number       1
_symmetry_cell_setting            triclinic
loop_
_symmetry_equiv_pos_as_xyz
'x, y, z'
_cell_length_a     25.499522
_cell_length_b     26.037498
_cell_length_c     46.588027
_cell_angle_alpha  90.636841
_cell_angle_beta   89.732804
_cell_angle_gamma 121.0664
loop_
_atom_site_label
_atom_site_type_symbol
_atom_site_fract_x
_atom_site_fract_y
_atom_site_fract_z
_atom_type_partial_charge
Pr0 Pr 0.27969 -0.00754 0.12971 0.0
Pr1 Pr 0.25072 0.08341 1.11454 0.0
C2 C 0.33113 0.92678 0.1401 0.0
C3 C 0.34409 0.9102 0.16809 0.0
C4 C 0.35556 0.9482 0.19185 0.0
C5 C 0.34521 0.92552 0.2196 0.0
C6 C 0.32333 0.86435 0.22414 0.0
C7 C 0.31976 0.82848 0.20048 0.0
C8 C 0.32954 0.85114 0.17261 0.0
C9 C 0.16033 0.95128 0.14237 0.0
C10 C 0.269 0.07169 0.18523 0.0
C11 C 0.22298 0.16989 1.10892 0.0
C12 C 0.24636 0.22545 1.09263 0.0
C13 C 0.27894 0.23416 1.06704 0.0
C14 C 0.30194 0.28773 1.05202 0.0
C15 C 0.29316 0.33373 1.06245 0.0
C16 C 0.26151 0.32509 1.08847 0.0
C17 C 0.23832 0.27137 1.1034 0.0
C18 C 0.37566 0.11989 1.11139 0.0
C19 C 0.2314 -0.00625 1.0593 0.0
O20 O 0.36346 -0.01649 0.1332 0.0
O21 O 0.27277 0.90307 0.13496 0.0
O22 O 0.18607 -0.01983 1.11968 0.0
O23 O 0.1961 0.94408 0.15939 0.0
O24 O 0.2374 0.08209 0.16593 0.0
O25 O 0.29653 0.04249 0.1763 0.0
O26 O 0.19558 0.1195 1.09435 0.0
O27 O 0.25957 0.17096 0.12865 0.0
O28 O 0.33886 0.09291 0.1311 0.0
O29 O 0.34803 0.12817 1.09023 0.0
O30 O 0.25674 0.97284 1.07755 0.0
O31 O 0.22213 0.03663 1.06857 0.0
H32 H 0.36668 -0.00604 0.18893 0.0
H33 H 0.34837 0.95475 0.23707 0.0
H34 H 0.30461 0.78159 0.20325 0.0
H35 H 0.32039 0.82108 0.15455 0.0
H36 H 0.28622 0.1994 1.05857 0.0
H37 H 0.32518 0.29237 1.03184 0.0
H38 H 0.25456 0.35979 1.09728 0.0
H39 H 0.21406 0.26566 1.12338 0.0
Pr40 Pr 0.36738 0.30684 0.4588 0.0
Pr41 Pr 0.2355 0.25316 0.4542 0.0
C42 C 0.48497 0.38103 0.47382 0.0
C43 C 0.50994 0.39865 0.50316 0.0
C44 C 0.47777 0.41101 0.52396 0.0
C45 C 0.48606 0.4054 0.55308 0.0
C46 C 0.52722 0.38796 0.56204 0.0
C47 C 0.56561 0.38429 0.54129 0.0
C48 C 0.55655 0.38895 0.51205 0.0
C49 C 0.30971 0.18423 0.46241 0.0
C50 C 0.28012 0.28551 0.52051 0.0
C51 C 0.11482 0.20393 0.44425 0.0
C52 C 0.07931 0.23158 0.43624 0.0
C53 C 0.0955 0.28852 0.44706 0.0
C54 C 0.07083 0.32033 0.43501 0.0
C55 C 0.03012 0.29607 0.41171 0.0
C56 C 0.01052 0.2371 0.40245 0.0
C57 C 0.03497 0.20518 0.41464 0.0
C58 C 0.30542 0.37948 0.44836 0.0
C59 C 0.30603 0.24094 0.39475 0.0
O60 O 0.44982 0.40061 0.46497 0.0
O61 O 0.46246 0.32435 0.46774 0.0
O62 O 0.29094 0.21553 0.47469 0.0
O63 O 0.36068 0.21645 0.44865 0.0
O64 O 0.23376 0.24609 0.50463 0.0
O65 O 0.33446 0.31845 0.50751 0.0
O66 O 0.15293 0.20637 0.42473 0.0
O67 O 0.13854 0.21635 0.46995 0.0
O68 O 0.31436 0.34196 0.43586 0.0
O69 O 0.25922 0.35215 0.46551 0.0
O70 O 0.35794 0.28277 0.40756 0.0
O71 O 0.2542 0.21768 0.40965 0.0
H72 H 0.442 0.41944 0.51779 0.0
H73 H 0.45577 0.40911 0.56815 0.0
H74 H 0.5995 0.37322 0.54739 0.0
H75 H 0.58232 0.37979 0.49639 0.0
H76 H 0.1298 0.30995 0.46374 0.0
H77 H 0.08622 0.36521 0.4429 0.0
H78 H -0.02011 0.21715 0.3843 0.0
H79 H 0.0222 0.16147 0.40592 0.0
Pr80 Pr 0.16859 0.37252 0.80232 0.0
Pr81 Pr 0.07126 0.25287 0.78656 0.0
C82 C 0.24955 0.48984 0.81141 0.0
C83 C 0.28755 0.52113 0.83694 0.0
C84 C 0.33217 0.50869 0.84627 0.0
C85 C 0.35664 0.52508 0.87384 0.0
C86 C 0.33728 0.5545 0.89275 0.0
C87 C 0.29807 0.57309 0.8822 0.0
C88 C 0.27328 0.55637 0.85455 0.0
C89 C 0.20069 0.29124 0.81719 0.0
C90 C 0.08218 0.28475 0.85735 0.0
C91 C -0.0206 0.13788 0.78015 0.0
C92 C 0.91394 0.10647 0.77334 0.0
C93 C 0.8805 0.1353 0.77643 0.0
C94 C 0.82087 0.10837 0.76565 0.0
C95 C 0.7942 0.05262 0.75128 0.0
C96 C 0.82683 0.02243 0.75002 0.0
C97 C 0.88615 0.04919 0.76097 0.0
C98 C 0.04367 0.34386 0.77765 0.0
C99 C 0.16679 0.31678 0.73386 0.0
O100 O 0.19046 0.46633 0.81446 0.0
O101 O 0.26307 0.45434 0.7975 0.0
O102 O 0.17454 0.28908 0.79379 0.0
O103 O 0.21102 0.33569 0.83383 0.0
O104 O 0.06387 0.24201 0.83755 0.0
O105 O 0.11993 0.34148 0.84935 0.0
O106 O 0.01609 0.16926 0.75935 0.0
O107 O -0.00406 0.16538 0.80496 0.0
O108 O 0.06686 0.33618 0.79944 0.0
O109 O 0.03308 0.30326 0.7585 0.0
O110 O 0.18166 0.36595 0.74974 0.0
O111 O 0.13057 0.26415 0.74564 0.0
H112 H 0.34494 0.48222 0.83319 0.0
H113 H 0.38641 0.5096 0.88104 0.0
H114 H 0.28332 0.59705 0.89595 0.0
H115 H 0.23972 0.5674 0.84772 0.0
H116 H 0.90145 0.17971 0.786 0.0
H117 H 0.79686 0.13254 0.76731 0.0
H118 H 0.80855 -0.01998 0.73872 0.0
H119 H 0.91151 0.02648 0.75837 0.0
Pr120 Pr 0.89594 0.16923 0.13516 0.0
Pr121 Pr 0.81367 0.0431 1.11497 0.0
C122 C 0.94248 0.28547 0.14895 0.0
C123 C 0.96304 0.32502 0.17446 0.0
C124 C 0.0113 0.33189 0.19167 0.0
C125 C 0.02423 0.36284 0.2178 0.0
C126 C -0.01115 0.38702 0.22726 0.0
C127 C 0.94304 0.3832 0.20922 0.0
C128 C 0.93054 0.35279 0.18294 0.0
C129 C 0.94702 0.09831 0.13843 0.0
C130 C 0.83979 0.0602 0.18633 0.0
C131 C 0.73939 0.93176 1.09424 0.0
C132 C 0.71892 0.88128 1.07412 0.0
C133 C 0.65652 0.84718 1.06715 0.0
C134 C 0.63442 0.79707 1.04914 0.0
C135 C 0.67448 0.78016 1.03779 0.0
C136 C 0.73714 0.81444 1.04495 0.0
C137 C 0.7592 0.86459 1.06303 0.0
C138 C 0.75362 0.10386 0.13097 0.0
C139 C 0.90433 0.1452 1.06387 0.0
O140 O 0.88367 0.24603 0.14788 0.0
O141 O -0.02354 0.26426 0.13982 0.0
O142 O 0.91664 0.09997 1.11771 0.0
O143 O 0.95703 0.13879 0.15784 0.0
O144 O 0.82604 0.02316 0.16398 0.0
O145 O 0.85856 0.11784 0.18121 0.0
O146 O 0.78537 0.94556 1.11149 0.0
O147 O 0.73436 -0.02264 1.08686 0.0
O148 O 0.79985 0.12393 1.11506 0.0
O149 O 0.74033 0.05273 0.14138 0.0
O150 O 0.92344 0.18546 1.08516 0.0
O151 O 0.86361 0.08768 1.0696 0.0
H152 H 0.03723 0.31109 0.18567 0.0
H153 H 0.05926 0.36428 0.23144 0.0
H154 H 0.91526 0.40158 0.21598 0.0
H155 H 0.89348 0.34853 0.16983 0.0
H156 H 0.62467 0.85911 1.07585 0.0
H157 H 0.58596 0.77145 1.0442 0.0
H158 H 0.76942 0.80329 1.03609 0.0
H159 H 0.80753 0.89029 1.06826 0.0
Pr160 Pr 0.79654 0.89719 0.46441 0.0
Pr161 Pr 0.82683 0.80556 0.44625 0.0
C162 C 0.74089 0.9525 0.48687 0.0
C163 C 0.70842 0.9501 0.51343 0.0
C164 C 0.71931 0.00356 0.52628 0.0
C165 C 0.69304 0.00261 0.55277 0.0
C166 C 0.65513 0.94799 0.56686 0.0
C167 C 0.64186 0.89418 0.55313 0.0
C168 C 0.66858 0.89523 0.52674 0.0
C169 C 0.91714 0.94235 0.44842 0.0
C170 C 0.84579 0.83948 0.51715 0.0
C171 C 0.86851 0.73693 0.42404 0.0
C172 C 0.92008 0.744 0.40687 0.0
C173 C 0.92995 0.696 0.40431 0.0
C174 C -0.01964 0.70269 0.38904 0.0
C175 C 0.0219 0.75772 0.37623 0.0
C176 C 0.01187 0.8059 0.37904 0.0
C177 C 0.96126 0.79903 0.39421 0.0
C178 C 0.70455 0.75409 0.4634 0.0
C179 C 0.81597 0.89485 0.39379 0.0
O180 O 0.71342 0.90557 0.46986 0.0
O181 O 0.79986 0.97434 0.48915 0.0
O182 O 0.8855 0.89811 0.46395 0.0
O183 O 0.88856 0.97012 0.44193 0.0
O184 O 0.85846 0.81362 0.49559 0.0
O185 O 0.81773 0.86964 0.51113 0.0
O186 O 0.88245 0.76089 0.44965 0.0
O187 O 0.82828 0.74537 0.41106 0.0
O188 O 0.73288 0.79964 0.4476 0.0
O189 O 0.73968 0.73412 0.47045 0.0
O190 O 0.7935 0.91344 0.41444 0.0
O191 O 0.83573 0.85767 0.40072 0.0
H192 H 0.74989 0.04628 0.5163 0.0
H193 H 0.7053 0.04503 0.56287 0.0
H194 H 0.61241 0.85134 0.56322 0.0
H195 H 0.65938 0.85326 0.51716 0.0
H196 H 0.89882 0.65341 0.41426 0.0
H197 H -0.01288 0.66496 0.38749 0.0
H198 H 0.04249 0.84858 0.36906 0.0
H199 H 0.95424 0.83657 0.39606 0.0
Pr200 Pr -0.02742 0.77365 0.79475 0.0
Pr201 Pr 0.09991 0.86035 0.77483 0.0
C202 C 0.85931 0.67839 0.80318 0.0
C203 C 0.80945 0.65843 0.82422 0.0
C204 C 0.78922 0.69696 0.83317 0.0
C205 C 0.74402 0.67888 0.85405 0.0
C206 C 0.71835 0.62208 0.86666 0.0
C207 C 0.73745 0.58287 0.85716 0.0
C208 C 0.7825 0.60087 0.83597 0.0
C209 C 0.00628 0.89216 0.80102 0.0
C210 C 0.07561 0.84503 0.84831 0.0
C211 C 0.21759 0.94754 0.76625 0.0
C212 C 0.25808 0.00519 0.75248 0.0
C213 C 0.32148 0.03073 0.75497 0.0
C214 C 0.36146 0.08326 0.74039 0.0
C215 C 0.33864 0.11118 0.72302 0.0
C216 C 0.27486 0.0866 0.72148 0.0
C217 C 0.23481 0.03379 0.73607 0.0
C218 C 0.06604 0.73893 0.77074 0.0
C219 C -0.00462 0.82077 0.72418 0.0
O220 O 0.90889 0.67972 0.81162 0.0
O221 O 0.87075 0.72436 0.78752 0.0
O222 O 0.01628 0.86902 0.77947 0.0
O223 O -0.02886 0.85159 0.81949 0.0
O224 O 0.11244 0.8754 0.82653 0.0
O225 O 0.0192 0.79935 0.84232 0.0
O226 O 0.18511 0.94739 0.78803 0.0
O227 O 0.18798 0.90071 0.74942 0.0
O228 O 0.05603 0.76324 0.79181 0.0
O229 O 0.09602 0.77787 0.75099 0.0
O230 O 0.9638 0.77475 0.7421 0.0
O231 O 0.04806 0.86695 0.73355 0.0
H232 H 0.80939 0.74177 0.82461 0.0
H233 H 0.73151 0.71077 0.86137 0.0
H234 H 0.71859 0.53896 0.86659 0.0
H235 H 0.79732 0.5704 0.82922 0.0
H236 H 0.3401 0.00927 0.76773 0.0
H237 H 0.41028 0.10148 0.74231 0.0
H238 H 0.25584 0.1067 0.70806 0.0
H239 H 0.18585 0.01449 0.73394 0.0
H240 H -0.02665 0.06603 0.18952 0.0
H241 H 0.06993 0.90193 1.10227 0.0
H242 H 0.9122 0.00287 1.10311 0.0
H243 H 0.10132 0.9284 0.19343 0.0
H244 H -0.03294 0.88327 1.10941 0.0
H245 H -0.02404 0.97542 0.19872 0.0
C246 C 0.96081 0.03308 0.17247 0.0
C247 C 0.9466 0.04338 0.14498 0.0
C248 C -0.0044 0.8917 0.12812 0.0
C249 C 0.94934 0.94001 0.15515 0.0
C250 C 0.05449 0.90289 1.12387 0.0
C251 C 0.09476 0.9213 0.14711 0.0
C252 C -0.01936 0.90564 0.15507 0.0
C253 C 0.07212 0.91807 0.17481 0.0
C254 C 0.96081 -0.01936 0.17786 0.0
C255 C 0.92672 -0.0021 1.12418 0.0
N256 N 0.01678 0.91285 0.17807 0.0
N257 N 0.92981 0.94862 0.12951 0.0
H258 H -0.00148 0.03568 0.41453 0.0
H259 H 0.23228 0.09736 0.49854 0.0
H260 H -0.02945 0.87777 0.45792 0.0
H261 H 0.2931 0.12945 0.41057 0.0
H262 H 0.13897 0.00647 0.4832 0.0
H263 H 0.10598 0.06586 0.40696 0.0
C264 C 0.01457 0.00672 0.42172 0.0
C265 C -0.023 0.95587 0.43795 0.0
C266 C 0.17389 0.03205 0.46734 0.0
C267 C 0.09776 -0.01082 0.42927 0.0
C268 C 0.22679 0.08382 0.47614 0.0
C269 C 0.26855 0.12121 0.45558 0.0
C270 C 0.1618 0.02066 0.43784 0.0
C271 C 0.26031 0.10213 0.42681 0.0
C272 C 0.07529 0.02318 0.41696 0.0
C273 C -0.00093 0.91873 0.44626 0.0
N274 N 0.20584 0.05451 0.41839 0.0
N275 N 0.0588 0.93712 0.44267 0.0
H276 H 0.02682 0.94303 0.8548 0.0
H277 H 0.25735 0.24706 0.78524 0.0
H278 H 0.09136 -0.02209 0.76725 0.0
H279 H 0.17202 0.23144 0.8673 0.0
H280 H 0.23982 0.14643 0.79069 0.0
H281 H 0.11091 0.04339 0.86855 0.0
C282 C 0.0584 0.97199 0.83851 0.0
C283 C 0.05154 0.95328 0.80974 0.0
C284 C 0.22656 0.16555 0.80801 0.0
C285 C 0.14836 0.06565 0.8254 0.0
C286 C 0.23675 0.22286 0.80485 0.0
C287 C 0.21351 0.24535 0.82532 0.0
C288 C 0.18903 0.1301 0.8306 0.0
C289 C 0.18864 0.2139 0.85072 0.0
C290 C 0.10697 0.0284 0.84646 0.0
C291 C 0.09443 -0.00875 0.78957 0.0
N292 N 0.17448 0.1562 0.8522 0.0
N293 N 0.14083 0.04569 0.79778 0.0
H294 H 0.23246 0.39376 1.05404 0.0
H295 H 0.44024 0.57062 0.92085 0.0
H296 H 0.3992 0.39851 1.0312 0.0
H297 H 0.25746 0.53531 0.93656 0.0
H298 H 0.44177 0.53634 0.96935 0.0
H299 H 0.25769 0.47318 1.0198 0.0
C300 C 0.27509 0.41232 1.0423 0.0
C301 C 0.31312 0.38842 1.04513 0.0
C302 C 0.40196 0.53751 0.96234 0.0
C303 C 0.34165 0.47882 1.00533 0.0
C304 C 0.40098 0.55703 0.93463 0.0
C305 C 0.34783 0.55405 0.92413 0.0
C306 C 0.34953 0.51513 0.97962 0.0
C307 C 0.29931 0.53803 0.94338 0.0
C308 C 0.28931 0.45756 1.02259 0.0
C309 C 0.36761 0.41431 1.02912 0.0
N310 N 0.30087 0.51802 0.96994 0.0
N311 N 0.37977 0.45744 1.00956 0.0
H312 H 0.1073 0.41416 0.39783 0.0
H313 H 0.09245 0.46048 0.25841 0.0
H314 H 0.92239 0.26684 0.38453 0.0
H315 H 0.89569 0.3563 0.26516 0.0
H316 H 0.09985 0.4646 0.31039 0.0
H317 H 0.09469 0.46655 0.35815 0.0
C318 C 0.06342 0.39323 0.38703 0.0
C319 C 0.01655 0.33476 0.39386 0.0
C320 C 0.05477 0.44291 0.30082 0.0
C321 C 0.00331 0.3932 0.34712 0.0
C322 C 0.05072 0.44024 0.27096 0.0
C323 C -0.00647 0.40675 0.25753 0.0
C324 C 0.0011 0.41101 0.3173 0.0
C325 C 0.9408 0.38211 0.27467 0.0
C326 C 0.05669 0.4229 0.3639 0.0
C327 C 0.96065 0.3107 0.37922 0.0
N328 N 0.94591 0.38323 0.30369 0.0
N329 N 0.95611 0.33937 0.35608 0.0
H330 H 0.76114 0.11943 0.71954 0.0
H331 H 0.61905 0.02046 0.59299 0.0
H332 H 0.7008 0.93621 0.74099 0.0
H333 H 0.65121 0.87643 0.61046 0.0
H334 H 0.61893 0.03814 0.64464 0.0
H335 H 0.69268 0.08409 0.67885 0.0
C336 C 0.73162 0.0715 0.71647 0.0
C337 C 0.73851 0.03086 0.73326 0.0
C338 C 0.62535 0.00227 0.63714 0.0
C339 C 0.65992 -0.01032 0.68594 0.0
C340 C 0.62525 -0.00798 0.60765 0.0
C341 C 0.63754 0.94841 0.59728 0.0
C342 C 0.63862 0.9691 0.65625 0.0
C343 C 0.64253 0.91121 0.61729 0.0
C344 C 0.69211 0.05111 0.69297 0.0
C345 C 0.69885 0.96932 0.72793 0.0
N346 N 0.64436 0.92328 0.64577 0.0
N347 N 0.66274 0.95066 0.70418 0.0
H348 H 0.59166 0.75027 0.99407 0.0
H349 H 0.72459 0.5731 0.91715 0.0
H350 H 0.70575 0.69408 1.03436 0.0
H351 H 0.62335 0.64161 0.87483 0.0
H352 H 0.68458 0.58298 0.96313 0.0
H353 H 0.57101 0.67937 0.95491 0.0
C354 C 0.6113 0.72206 0.99505 0.0
C355 C 0.65213 0.72948 1.01707 0.0
C356 C 0.66974 0.59438 0.94374 0.0
C357 C 0.62965 0.64915 0.97199 0.0
C358 C 0.69221 0.58825 0.91739 0.0
C359 C 0.67891 0.60858 0.89227 0.0
C360 C 0.6346 0.62179 0.94488 0.0
C361 C 0.63643 0.62746 0.89389 0.0
C362 C 0.59961 0.68166 0.97259 0.0
C363 C 0.67586 0.69142 1.01724 0.0
N364 N 0.61702 0.63517 0.91987 0.0
N365 N 0.66529 0.65377 0.99472 0.0
H366 H 0.02213 0.67743 0.33786 0.0
H367 H 0.35603 0.91084 0.27923 0.0
H368 H 0.14042 0.85277 0.37523 0.0
H369 H 0.21922 0.75501 0.23234 0.0
H370 H 0.28898 0.87695 0.32125 0.0
H371 H 0.10533 0.69297 0.30606 0.0
C372 C 0.06592 0.71883 0.33972 0.0
C373 C 0.07404 0.76424 0.35896 0.0
C374 C 0.27437 0.84969 0.30188 0.0
C375 C 0.16934 0.78252 0.32239 0.0
C376 C 0.31258 0.86897 0.27786 0.0
C377 C 0.29288 0.83664 0.25183 0.0
C378 C 0.21627 0.7975 0.29993 0.0
C379 C 0.23678 0.78177 0.25173 0.0
C380 C 0.11333 0.72776 0.32146 0.0
C381 C 0.13175 0.81712 0.36026 0.0
N382 N 0.20012 0.76451 0.27522 0.0
N383 N 0.17704 0.82506 0.34201 0.0
H384 H 0.43577 0.12462 0.6918 0.0
H385 H 0.49648 0.42151 0.61323 0.0
H386 H 0.33731 0.21427 0.71221 0.0
H387 H 0.54229 0.29517 0.57807 0.0
H388 H 0.46145 0.36225 0.65709 0.0
H389 H 0.49844 0.20383 0.65793 0.0
C390 C 0.42803 0.16156 0.68956 0.0
C391 C 0.38084 0.16255 0.70472 0.0
C392 C 0.4803 0.3484 0.63987 0.0
C393 C 0.45218 0.25313 0.66565 0.0
C394 C 0.50019 0.38205 0.61474 0.0
C395 C 0.5213 0.36292 0.59137 0.0
C396 C 0.4824 0.29578 0.64186 0.0
C397 C 0.52677 0.31237 0.59524 0.0
C398 C 0.46364 0.20658 0.67008 0.0
C399 C 0.37253 0.21126 0.70062 0.0
N400 N 0.5068 0.28031 0.61978 0.0
N401 N 0.40758 0.25446 0.68129 0.0
H402 H 0.43592 0.12895 0.15999 0.0
H403 H 0.73882 0.16726 1.08821 0.0
H404 H 0.46155 0.14482 1.06821 0.0
H405 H 0.66235 0.07929 0.16861 0.0
H406 H 0.65221 0.18326 1.08256 0.0
H407 H 0.53451 0.13719 0.16528 0.0
C408 C 0.4628 0.13497 0.14086 0.0
C409 C 0.4401 0.13544 1.11353 0.0
C410 C 0.65497 0.16111 1.10153 0.0
C411 C 0.55367 0.14446 1.11957 0.0
C412 C 0.70444 0.15237 1.10491 0.0
C413 C 0.70749 0.12182 0.12894 0.0
C414 C 0.60924 0.14019 1.12265 0.0
C415 C 0.66162 0.10291 0.14977 0.0
C416 C 0.51911 0.13946 0.14395 0.0
C417 C 0.47739 0.14408 1.08962 0.0
N418 N 0.61451 0.11241 0.14614 0.0
N419 N 0.5324 0.14763 1.09315 0.0
H420 H 0.34132 0.45079 0.49657 0.0
H421 H 0.62359 0.73232 0.41972 0.0
H422 H 0.38061 0.45213 0.40638 0.0
H423 H 0.6342 0.67941 0.5058 0.0
H424 H 0.51772 0.64684 0.41627 0.0
H425 H 0.43292 0.55167 0.50151 0.0
C426 C 0.36832 0.4731 0.47763 0.0
C427 C 0.35353 0.44344 0.45094 0.0
C428 C 0.54292 0.65488 0.4361 0.0
C429 C 0.45738 0.55838 0.45645 0.0
C430 C 0.60297 0.70386 0.43818 0.0
C431 C 0.63746 0.71273 0.46309 0.0
C432 C 0.51704 0.61545 0.45931 0.0
C433 C 0.60897 0.67395 0.48623 0.0
C434 C 0.4206 0.53026 0.48055 0.0
C435 C 0.39053 0.47365 0.42726 0.0
N436 N 0.55048 0.62688 0.48378 0.0
N437 N 0.44075 0.5295 0.43055 0.0
H438 H 0.03478 0.39637 0.72812 0.0
H439 H 0.02242 0.65855 0.81459 0.0
H440 H 0.03639 0.41095 0.82043 0.0
H441 H 0.08252 0.67801 0.7266 0.0
H442 H 0.00847 0.55825 0.81497 0.0
H443 H 0.03365 0.49039 0.72508 0.0
C444 C 0.03391 0.41881 0.74768 0.0
C445 C 0.03579 0.39604 0.77455 0.0
C446 C 0.02449 0.58433 0.79552 0.0
C447 C 0.03436 0.50285 0.7713 0.0
C448 C 0.03239 0.64156 0.79529 0.0
C449 C 0.05427 0.67689 0.77062 0.0
C450 C 0.03799 0.56179 0.77081 0.0
C451 C 0.06606 0.65239 0.74615 0.0
C452 C 0.03369 0.47253 0.74595 0.0
C453 C 0.03516 0.42707 0.79926 0.0
N454 N 0.05789 0.59638 0.74686 0.0
N455 N 0.03449 0.47868 0.79704 0.0
H456 H 0.19422 0.10335 0.21507 0.0
H457 H 0.39939 0.24447 0.35983 0.0
H458 H 0.35653 0.09517 0.22855 0.0
H459 H 0.20696 0.18203 0.35707 0.0
H460 H 0.3913 0.20286 0.3108 0.0
H461 H 0.20395 0.14306 0.26428 0.0
C462 C 0.2321 0.10966 0.22819 0.0
C463 C 0.27417 0.09468 0.21674 0.0
C464 C 0.35074 0.19831 0.32082 0.0
C465 C 0.28682 0.14319 0.27467 0.0
C466 C 0.35542 0.2226 0.34909 0.0
C467 C 0.30396 0.2177 0.36353 0.0
C468 C 0.29431 0.16939 0.30572 0.0
C469 C 0.24843 0.18771 0.34759 0.0
C470 C 0.23763 0.13266 0.25666 0.0
C471 C 0.3222 0.105 0.23577 0.0
N472 N 0.24543 0.16579 0.32009 0.0
N473 N 0.32736 0.12871 0.26315 0.0
H474 H 0.18392 0.2063 0.555 0.0
H475 H 0.25855 0.41164 0.69979 0.0
H476 H 0.34706 0.38088 0.56076 0.0
H477 H 0.12391 0.22314 0.69449 0.0
H478 H 0.28942 0.40659 0.64964 0.0
H479 H 0.15994 0.21643 0.60495 0.0
C480 C 0.21532 0.24698 0.56663 0.0
C481 C 0.26844 0.29231 0.55274 0.0
C482 C 0.25308 0.36627 0.65943 0.0
C483 C 0.23958 0.30506 0.61189 0.0
C484 C 0.23509 0.36918 0.68835 0.0
C485 C 0.18797 0.3178 0.70237 0.0
C486 C 0.22358 0.31167 0.64352 0.0
C487 C 0.16037 0.26441 0.68547 0.0
C488 C 0.20128 0.25276 0.59559 0.0
C489 C 0.30615 0.34386 0.56999 0.0
N490 N 0.17805 0.26304 0.65761 0.0
N491 N 0.29098 0.34883 0.59813 0.0
H492 H 0.10617 0.35553 0.90781 0.0
H493 H 0.88114 0.07764 1.01292 0.0
H494 H 0.00212 0.17142 0.87944 0.0
H495 H -0.01128 0.26001 1.04335 0.0
H496 H 0.9241 0.11143 0.96453 0.0
H497 H 0.06454 0.32298 0.95672 0.0
C498 C 0.07479 0.30829 0.91159 0.0
C499 C 0.05845 0.26677 0.88856 0.0
C500 C 0.93851 0.14433 0.9817 0.0
C501 C 0.00914 0.22824 0.94591 0.0
C502 C 0.91367 0.12485 1.00969 0.0
C503 C 0.93047 0.1654 1.03316 0.0
C504 C -0.01873 0.20553 0.97619 0.0
C505 C -0.02649 0.22624 1.02657 0.0
C506 C 0.05071 0.28952 0.93984 0.0
C507 C 0.01695 0.20596 0.89583 0.0
N508 N -0.00315 0.244 0.99923 0.0
N509 N -0.00576 0.18906 0.92326 0.0
H510 H 0.82886 0.95252 0.20332 0.0
H511 H 0.80561 -0.00908 0.37568 0.0
H512 H 0.8444 0.1113 0.24118 0.0
H513 H 0.83811 0.85679 0.33985 0.0
H514 H 0.81247 0.03071 0.32732 0.0
H515 H 0.82518 0.91375 0.25172 0.0
C516 C 0.83125 -0.02041 0.22165 0.0
C517 C 0.83685 0.03607 0.21716 0.0
C518 C 0.81815 -0.00743 0.3298 0.0
C519 C 0.83186 -0.01002 0.27448 0.0
C520 C 0.81407 0.96928 0.3578 0.0
C521 C 0.8211 0.9195 0.36288 0.0
C522 C 0.82851 0.96616 0.30546 0.0
C523 C 0.83229 0.89493 0.33785 0.0
C524 C 0.8293 0.95706 0.24965 0.0
C525 C 0.84004 0.06783 0.24271 0.0
N526 N 0.8351 0.91786 0.31076 0.0
N527 N 0.83708 0.04449 0.26969 0.0
H528 H 0.87445 0.91905 0.5639 0.0
H529 H 0.91679 0.72551 0.68709 0.0
H530 H 0.86431 0.75287 0.54287 0.0
H531 H 0.01818 0.91833 0.69013 0.0
H532 H 0.88138 0.72928 0.63819 0.0
H533 H 0.91022 0.91487 0.6126 0.0
C534 C 0.87904 0.88123 0.56934 0.0
C535 C 0.8657 0.83632 0.54832 0.0
C536 C 0.91127 0.77091 0.64949 0.0
C537 C 0.90649 0.83051 0.60584 0.0
C538 C 0.93161 0.76882 0.67778 0.0
C539 C -0.02861 0.82163 0.69361 0.0
C540 C 0.92857 0.8263 0.63641 0.0
C541 C -0.01185 0.87602 0.67938 0.0
C542 C 0.89998 0.87904 0.59745 0.0
C543 C 0.87367 0.78897 0.55766 0.0
N544 N -0.03353 0.87681 0.65231 0.0
N545 N 0.89247 0.78708 0.58527 0.0
H546 H 0.16459 0.95783 0.86924 0.0
H547 H 0.18724 0.87767 1.03515 0.0
H548 H 0.04096 0.78061 0.90086 0.0
H549 H 0.22678 0.0528 1.0105 0.0
H550 H 0.14859 0.84058 0.98587 0.0
H551 H 0.2013 -0.0082 0.91862 0.0
C552 C 0.14493 0.9255 0.88637 0.0
C553 C 0.09858 0.86558 0.87981 0.0
C554 C 0.16602 0.88728 0.9911 0.0
C555 C 0.14335 0.90527 0.9383 0.0
C556 C 0.18884 0.9089 1.01953 0.0
C557 C 0.21142 0.96933 1.02796 0.0
C558 C 0.16668 0.92609 0.96977 0.0
C559 C 0.21049 0.00611 1.00584 0.0
C560 C 0.16626 0.94535 0.91496 0.0
C561 C 0.07618 0.82715 0.90401 0.0
N562 N 0.18968 -0.01551 0.97838 0.0
N563 N 0.0989 0.84717 0.93153 0.0
loop_
_geom_bond_atom_site_label_1
_geom_bond_atom_site_label_2
_geom_bond_distance
_geom_bond_site_symmetry_2
_ccdc_geom_bond_type
Pr0 C2 2.880 . S
Pr0 O20 2.562 . S
Pr0 O21 2.490 . S
Pr0 O22 2.695 1_554 S
Pr0 O23 2.512 . S
Pr0 O25 2.437 . S
Pr0 O28 2.436 . S
Pr0 O30 2.438 1_554 S
Pr1 C11 2.880 . S
Pr1 O22 2.436 . S
Pr1 O24 2.438 1_556 S
Pr1 O26 2.562 . S
Pr1 O27 2.490 . S
Pr1 O28 2.695 1_556 S
Pr1 O29 2.512 . S
Pr1 O31 2.437 . S
C2 Pr0 2.880 . S
C2 C3 1.491 . S
C2 O20 1.254 . S
C2 O21 1.225 . S
C3 C2 1.491 . S
C3 C4 1.392 . S
C3 C8 1.356 . S
C4 C3 1.392 . S
C4 C5 1.368 1_545 S
C4 H32 0.929 . S
C5 C4 1.368 1_565 S
C5 C6 1.386 1_565 S
C5 H33 0.929 . S
C6 C5 1.386 1_545 S
C6 C7 1.373 . S
C7 C6 1.373 . S
C7 C8 1.409 . S
C7 H34 0.931 . S
C8 C3 1.356 . S
C8 C7 1.409 . S
C8 H35 0.930 . S
C9 O22 1.270 1_554 S
C9 O23 1.248 . S
C10 O24 1.267 . S
C10 O25 1.278 . S
C11 Pr1 2.880 . S
C11 C12 1.491 . S
C11 O26 1.254 . S
C11 O27 1.225 . S
C12 C11 1.491 . S
C12 C13 1.392 . S
C12 C17 1.356 . S
C13 C12 1.392 . S
C13 C14 1.368 . S
C13 H36 0.929 . S
C14 C13 1.368 . S
C14 C15 1.386 . S
C14 H37 0.929 . S
C15 C14 1.386 . S
C15 C16 1.373 . S
C16 C15 1.373 . S
C16 C17 1.409 . S
C16 H38 0.931 . S
C17 C12 1.356 . S
C17 C16 1.409 . S
C17 H39 0.930 . S
C18 O28 1.270 . S
C18 O29 1.248 1_554 S
C19 O30 1.267 . S
C19 O31 1.278 . S
O20 Pr0 2.562 . S
O20 C2 1.254 . S
O21 Pr0 2.490 . S
O21 C2 1.225 . S
O22 Pr0 2.695 1_556 S
O22 Pr1 2.436 . S
O22 C9 1.270 1_556 S
O23 Pr0 2.512 . S
O23 C9 1.248 . S
O24 Pr1 2.438 1_554 S
O24 C10 1.267 . S
O25 Pr0 2.437 . S
O25 C10 1.278 . S
O26 Pr1 2.562 . S
O26 C11 1.254 . S
O27 Pr1 2.490 . S
O27 C11 1.225 . S
O28 Pr0 2.436 . S
O28 Pr1 2.695 1_554 S
O28 C18 1.270 . S
O29 Pr1 2.512 . S
O29 C18 1.248 1_556 S
O30 Pr0 2.438 1_556 S
O30 C19 1.267 . S
O31 Pr1 2.437 . S
O31 C19 1.278 . S
H32 C4 0.929 . S
H33 C5 0.929 . S
H34 C7 0.931 . S
H35 C8 0.930 . S
H36 C13 0.929 . S
H37 C14 0.929 . S
H38 C16 0.931 . S
H39 C17 0.930 . S
Pr40 C42 2.880 . S
Pr40 O60 2.562 . S
Pr40 O61 2.490 . S
Pr40 O62 2.695 . S
Pr40 O63 2.512 . S
Pr40 O65 2.437 . S
Pr40 O68 2.436 . S
Pr40 O70 2.438 . S
Pr41 C51 2.880 . S
Pr41 O62 2.436 . S
Pr41 O64 2.438 . S
Pr41 O66 2.562 . S
Pr41 O67 2.490 . S
Pr41 O68 2.695 . S
Pr41 O69 2.512 . S
Pr41 O71 2.437 . S
C42 Pr40 2.880 . S
C42 C43 1.491 . S
C42 O60 1.254 . S
C42 O61 1.225 . S
C43 C42 1.491 . S
C43 C44 1.392 . S
C43 C48 1.356 . S
C44 C43 1.392 . S
C44 C45 1.368 . S
C44 H72 0.929 . S
C45 C44 1.368 . S
C45 C46 1.386 . S
C45 H73 0.929 . S
C46 C45 1.386 . S
C46 C47 1.373 . S
C47 C46 1.373 . S
C47 C48 1.409 . S
C47 H74 0.931 . S
C48 C43 1.356 . S
C48 C47 1.409 . S
C48 H75 0.930 . S
C49 O62 1.270 . S
C49 O63 1.248 . S
C50 O64 1.267 . S
C50 O65 1.278 . S
C51 Pr41 2.880 . S
C51 C52 1.491 . S
C51 O66 1.254 . S
C51 O67 1.225 . S
C52 C51 1.491 . S
C52 C53 1.392 . S
C52 C57 1.356 . S
C53 C52 1.392 . S
C53 C54 1.368 . S
C53 H76 0.929 . S
C54 C53 1.368 . S
C54 C55 1.386 . S
C54 H77 0.929 . S
C55 C54 1.386 . S
C55 C56 1.373 . S
C56 C55 1.373 . S
C56 C57 1.409 . S
C56 H78 0.931 . S
C57 C52 1.356 . S
C57 C56 1.409 . S
C57 H79 0.930 . S
C58 O68 1.270 . S
C58 O69 1.248 . S
C59 O70 1.267 . S
C59 O71 1.278 . S
O60 Pr40 2.562 . S
O60 C42 1.254 . S
O61 Pr40 2.490 . S
O61 C42 1.225 . S
O62 Pr40 2.695 . S
O62 Pr41 2.436 . S
O62 C49 1.270 . S
O63 Pr40 2.512 . S
O63 C49 1.248 . S
O64 Pr41 2.438 . S
O64 C50 1.267 . S
O65 Pr40 2.437 . S
O65 C50 1.278 . S
O66 Pr41 2.562 . S
O66 C51 1.254 . S
O67 Pr41 2.490 . S
O67 C51 1.225 . S
O68 Pr40 2.436 . S
O68 Pr41 2.695 . S
O68 C58 1.270 . S
O69 Pr41 2.512 . S
O69 C58 1.248 . S
O70 Pr40 2.438 . S
O70 C59 1.267 . S
O71 Pr41 2.437 . S
O71 C59 1.278 . S
H72 C44 0.929 . S
H73 C45 0.929 . S
H74 C47 0.931 . S
H75 C48 0.930 . S
H76 C53 0.929 . S
H77 C54 0.929 . S
H78 C56 0.931 . S
H79 C57 0.930 . S
Pr80 C82 2.880 . S
Pr80 O100 2.562 . S
Pr80 O101 2.490 . S
Pr80 O102 2.697 . S
Pr80 O103 2.512 . S
Pr80 O105 2.437 1_455 S
Pr80 O108 2.433 1_455 S
Pr80 O110 2.438 . S
Pr81 C91 2.880 . S
Pr81 O102 2.428 1_655 S
Pr81 O104 2.438 . S
Pr81 O106 2.562 . S
Pr81 O107 2.490 . S
Pr81 O108 2.696 . S
Pr81 O109 2.512 . S
Pr81 O111 2.437 1_655 S
C82 Pr80 2.880 . S
C82 C83 1.491 . S
C82 O100 1.254 . S
C82 O101 1.225 . S
C83 C82 1.491 . S
C83 C84 1.392 . S
C83 C88 1.356 . S
C84 C83 1.392 . S
C84 C85 1.368 . S
C84 H112 0.929 . S
C85 C84 1.368 . S
C85 C86 1.386 . S
C85 H113 0.929 . S
C86 C85 1.386 . S
C86 C87 1.373 . S
C87 C86 1.373 . S
C87 C88 1.409 . S
C87 H114 0.931 . S
C88 C83 1.356 . S
C88 C87 1.409 . S
C88 H115 0.930 . S
C89 O102 1.277 . S
C89 O103 1.248 . S
C90 O104 1.267 . S
C90 O105 1.278 . S
C91 Pr81 2.880 . S
C91 C92 1.491 . S
C91 O106 1.254 . S
C91 O107 1.225 . S
C92 C91 1.491 . S
C92 C93 1.392 . S
C92 C97 1.356 . S
C93 C92 1.392 . S
C93 C94 1.368 . S
C93 H116 0.929 . S
C94 C93 1.368 . S
C94 C95 1.386 . S
C94 H117 0.929 . S
C95 C94 1.386 . S
C95 C96 1.373 . S
C96 C95 1.373 . S
C96 C97 1.409 . S
C96 H118 0.931 . S
C97 C92 1.356 . S
C97 C96 1.409 . S
C97 H119 0.930 . S
C98 O108 1.273 . S
C98 O109 1.248 . S
C99 O110 1.267 . S
C99 O111 1.278 . S
O100 Pr80 2.562 . S
O100 C82 1.254 . S
O101 Pr80 2.490 . S
O101 C82 1.225 . S
O102 Pr80 2.697 . S
O102 Pr81 2.428 1_455 S
O102 C89 1.277 . S
O103 Pr80 2.512 . S
O103 C89 1.248 . S
O104 Pr81 2.438 . S
O104 C90 1.267 . S
O105 Pr80 2.437 1_655 S
O105 C90 1.278 . S
O106 Pr81 2.562 . S
O106 C91 1.254 . S
O107 Pr81 2.490 . S
O107 C91 1.225 . S
O108 Pr80 2.433 1_655 S
O108 Pr81 2.696 . S
O108 C98 1.273 . S
O109 Pr81 2.512 . S
O109 C98 1.248 . S
O110 Pr80 2.438 . S
O110 C99 1.267 . S
O111 Pr81 2.437 1_455 S
O111 C99 1.278 . S
H112 C84 0.929 . S
H113 C85 0.929 . S
H114 C87 0.931 . S
H115 C88 0.930 . S
H116 C93 0.929 . S
H117 C94 0.929 . S
H118 C96 0.931 . S
H119 C97 0.930 . S
Pr120 C122 2.880 . S
Pr120 O140 2.562 . S
Pr120 O141 2.490 . S
Pr120 O142 2.702 1_554 S
Pr120 O143 2.512 . S
Pr120 O145 2.437 1_545 S
Pr120 O148 2.435 1_545 S
Pr120 O150 2.438 1_554 S
Pr121 C131 2.880 . S
Pr121 O142 2.433 1_565 S
Pr121 O144 2.438 1_556 S
Pr121 O146 2.562 . S
Pr121 O147 2.490 . S
Pr121 O148 2.698 1_556 S
Pr121 O149 2.512 . S
Pr121 O151 2.437 1_565 S
C122 Pr120 2.880 . S
C122 C123 1.491 . S
C122 O140 1.254 . S
C122 O141 1.225 . S
C123 C122 1.491 . S
C123 C124 1.392 . S
C123 C128 1.356 . S
C124 C123 1.392 . S
C124 C125 1.368 . S
C124 H152 0.929 . S
C125 C124 1.368 . S
C125 C126 1.386 . S
C125 H153 0.929 . S
C126 C125 1.386 . S
C126 C127 1.373 . S
C127 C126 1.373 . S
C127 C128 1.409 . S
C127 H154 0.931 . S
C128 C123 1.356 . S
C128 C127 1.409 . S
C128 H155 0.930 . S
C129 O142 1.270 1_554 S
C129 O143 1.248 . S
C130 O144 1.267 . S
C130 O145 1.278 . S
C131 Pr121 2.880 . S
C131 C132 1.491 . S
C131 O146 1.254 . S
C131 O147 1.225 . S
C132 C131 1.491 . S
C132 C133 1.392 . S
C132 C137 1.356 . S
C133 C132 1.392 . S
C133 C134 1.368 . S
C133 H156 0.929 . S
C134 C133 1.368 . S
C134 C135 1.386 . S
C134 H157 0.929 . S
C135 C134 1.386 . S
C135 C136 1.373 . S
C136 C135 1.373 . S
C136 C137 1.409 . S
C136 H158 0.931 . S
C137 C132 1.356 . S
C137 C136 1.409 . S
C137 H159 0.930 . S
C138 O148 1.270 . S
C138 O149 1.248 1_554 S
C139 O150 1.267 . S
C139 O151 1.278 . S
O140 Pr120 2.562 . S
O140 C122 1.254 . S
O141 Pr120 2.490 . S
O141 C122 1.225 . S
O142 Pr120 2.702 1_556 S
O142 Pr121 2.433 1_545 S
O142 C129 1.270 1_556 S
O143 Pr120 2.512 . S
O143 C129 1.248 . S
O144 Pr121 2.438 1_554 S
O144 C130 1.267 . S
O145 Pr120 2.437 1_565 S
O145 C130 1.278 . S
O146 Pr121 2.562 . S
O146 C131 1.254 . S
O147 Pr121 2.490 . S
O147 C131 1.225 . S
O148 Pr120 2.435 1_565 S
O148 Pr121 2.698 1_554 S
O148 C138 1.270 . S
O149 Pr121 2.512 . S
O149 C138 1.248 1_556 S
O150 Pr120 2.438 1_556 S
O150 C139 1.267 . S
O151 Pr121 2.437 1_545 S
O151 C139 1.278 . S
H152 C124 0.929 . S
H153 C125 0.929 . S
H154 C127 0.931 . S
H155 C128 0.930 . S
H156 C133 0.929 . S
H157 C134 0.929 . S
H158 C136 0.931 . S
H159 C137 0.930 . S
Pr160 C162 2.880 . S
Pr160 O180 2.562 . S
Pr160 O181 2.490 . S
Pr160 O182 2.695 . S
Pr160 O183 2.512 . S
Pr160 O185 2.437 . S
Pr160 O188 2.436 . S
Pr160 O190 2.438 . S
Pr161 C171 2.880 . S
Pr161 O182 2.436 . S
Pr161 O184 2.438 . S
Pr161 O186 2.562 1_655 S
Pr161 O187 2.490 . S
Pr161 O188 2.695 . S
Pr161 O189 2.512 . S
Pr161 O191 2.437 . S
C162 Pr160 2.880 . S
C162 C163 1.491 . S
C162 O180 1.254 . S
C162 O181 1.225 . S
C163 C162 1.491 . S
C163 C164 1.392 . S
C163 C168 1.356 . S
C164 C163 1.392 . S
C164 C165 1.368 . S
C164 H192 0.929 . S
C165 C164 1.368 . S
C165 C166 1.386 . S
C165 H193 0.929 . S
C166 C165 1.386 . S
C166 C167 1.373 . S
C167 C166 1.373 . S
C167 C168 1.409 . S
C167 H194 0.931 . S
C168 C163 1.356 . S
C168 C167 1.409 . S
C168 H195 0.930 . S
C169 O182 1.270 1_455 S
C169 O183 1.248 1_455 S
C170 O184 1.267 . S
C170 O185 1.278 . S
C171 Pr161 2.880 . S
C171 C172 1.491 1_655 S
C171 O186 1.254 1_655 S
C171 O187 1.225 . S
C172 C171 1.491 1_455 S
C172 C173 1.392 1_455 S
C172 C177 1.356 . S
C173 C172 1.392 1_655 S
C173 C174 1.366 1_655 S
C173 H196 0.929 . S
C174 C173 1.366 1_455 S
C174 C175 1.387 . S
C174 H197 0.930 1_455 S
C175 C174 1.387 . S
C175 C176 1.373 . S
C176 C175 1.373 . S
C176 C177 1.409 . S
C176 H198 0.931 . S
C177 C172 1.356 . S
C177 C176 1.409 . S
C177 H199 0.930 . S
C178 O188 1.270 . S
C178 O189 1.248 . S
C179 O190 1.267 . S
C179 O191 1.278 . S
O180 Pr160 2.562 . S
O180 C162 1.254 . S
O181 Pr160 2.490 . S
O181 C162 1.225 . S
O182 Pr160 2.695 . S
O182 Pr161 2.436 . S
O182 C169 1.270 1_655 S
O183 Pr160 2.512 . S
O183 C169 1.248 1_655 S
O184 Pr161 2.438 . S
O184 C170 1.267 . S
O185 Pr160 2.437 . S
O185 C170 1.278 . S
O186 Pr161 2.562 1_455 S
O186 C171 1.254 1_455 S
O187 Pr161 2.490 . S
O187 C171 1.225 . S
O188 Pr160 2.436 . S
O188 Pr161 2.695 . S
O188 C178 1.270 . S
O189 Pr161 2.512 . S
O189 C178 1.248 . S
O190 Pr160 2.438 . S
O190 C179 1.267 . S
O191 Pr161 2.437 . S
O191 C179 1.278 . S
H192 C164 0.929 . S
H193 C165 0.929 . S
H194 C167 0.931 . S
H195 C168 0.930 . S
H196 C173 0.929 . S
H197 C174 0.930 1_655 S
H198 C176 0.931 . S
H199 C177 0.930 . S
Pr200 C202 2.880 . S
Pr200 O220 2.562 . S
Pr200 O221 2.490 . S
Pr200 O222 2.695 . S
Pr200 O223 2.512 . S
Pr200 O225 2.437 . S
Pr200 O228 2.436 . S
Pr200 O230 2.438 . S
Pr201 C211 2.880 . S
Pr201 O222 2.436 . S
Pr201 O224 2.438 . S
Pr201 O226 2.562 1_565 S
Pr201 O227 2.490 . S
Pr201 O228 2.695 . S
Pr201 O229 2.512 . S
Pr201 O231 2.437 . S
C202 Pr200 2.880 . S
C202 C203 1.491 . S
C202 O220 1.254 . S
C202 O221 1.225 . S
C203 C202 1.491 . S
C203 C204 1.392 . S
C203 C208 1.356 . S
C204 C203 1.392 . S
C204 C205 1.368 1_455 S
C204 H232 0.929 . S
C205 C204 1.368 1_655 S
C205 C206 1.386 1_655 S
C205 H233 0.929 . S
C206 C205 1.386 1_455 S
C206 C207 1.373 . S
C207 C206 1.373 . S
C207 C208 1.409 . S
C207 H234 0.931 . S
C208 C203 1.356 . S
C208 C207 1.409 . S
C208 H235 0.930 . S
C209 O222 1.270 1_545 S
C209 O223 1.248 1_545 S
C210 O224 1.267 . S
C210 O225 1.278 . S
C211 Pr201 2.880 . S
C211 C212 1.491 1_565 S
C211 O226 1.254 1_565 S
C211 O227 1.225 . S
C212 C211 1.491 1_545 S
C212 C213 1.392 1_545 S
C212 C217 1.356 . S
C213 C212 1.392 1_565 S
C213 C214 1.367 1_565 S
C213 H236 0.929 . S
C214 C213 1.367 1_545 S
C214 C215 1.393 . S
C214 H237 0.923 1_545 S
C215 C214 1.393 . S
C215 C216 1.373 . S
C216 C215 1.373 . S
C216 C217 1.409 . S
C216 H238 0.931 . S
C217 C212 1.356 . S
C217 C216 1.409 . S
C217 H239 0.930 . S
C218 O228 1.270 . S
C218 O229 1.248 . S
C219 O230 1.267 . S
C219 O231 1.278 . S
O220 Pr200 2.562 . S
O220 C202 1.254 . S
O221 Pr200 2.490 . S
O221 C202 1.225 . S
O222 Pr200 2.695 . S
O222 Pr201 2.436 . S
O222 C209 1.270 1_565 S
O223 Pr200 2.512 . S
O223 C209 1.248 1_565 S
O224 Pr201 2.438 . S
O224 C210 1.267 . S
O225 Pr200 2.437 . S
O225 C210 1.278 . S
O226 Pr201 2.562 1_545 S
O226 C211 1.254 1_545 S
O227 Pr201 2.490 . S
O227 C211 1.225 . S
O228 Pr200 2.436 . S
O228 Pr201 2.695 . S
O228 C218 1.270 . S
O229 Pr201 2.512 . S
O229 C218 1.248 . S
O230 Pr200 2.438 . S
O230 C219 1.267 . S
O231 Pr201 2.437 . S
O231 C219 1.278 . S
H232 C204 0.929 . S
H233 C205 0.929 . S
H234 C207 0.931 . S
H235 C208 0.930 . S
H236 C213 0.929 . S
H237 C214 0.923 1_565 S
H238 C216 0.931 . S
H239 C217 0.930 . S
H240 C246 0.930 . S
H241 C250 0.930 . S
H242 C255 0.929 . S
H243 C253 0.929 . S
H244 C248 0.929 . S
H245 C254 0.929 1_565 S
C246 H240 0.930 . S
C246 C247 1.367 1_565 S
C246 C254 1.378 1_665 S
C247 C246 1.367 1_545 S
C247 C255 1.433 . S
C248 H244 0.929 . S
C248 C250 1.378 . S
C248 C252 1.350 . S
C249 C252 1.463 . S
C249 C254 1.350 . S
C249 N257 1.427 . S
C250 H241 0.930 . S
C250 C248 1.378 . S
C250 C251 1.367 . S
C251 C250 1.367 . S
C251 C253 1.433 . S
C252 C248 1.350 . S
C252 C249 1.463 . S
C252 N256 1.427 . S
C253 H243 0.929 . S
C253 C251 1.433 . S
C253 N256 1.384 . S
C254 H245 0.929 1_545 S
C254 C246 1.378 1_445 S
C254 C249 1.350 . S
C255 H242 0.929 . S
C255 C247 1.433 . S
C255 N257 1.384 1_655 S
N256 C252 1.427 . S
N256 C253 1.384 . S
N257 C249 1.427 . S
N257 C255 1.384 1_455 S
H258 C264 0.930 . S
H259 C268 0.930 . S
H260 C273 0.929 . S
H261 C271 0.929 . S
H262 C266 0.929 . S
H263 C272 0.929 . S
C264 H258 0.930 . S
C264 C265 1.367 . S
C264 C272 1.378 1_565 S
C265 C264 1.367 . S
C265 C273 1.433 . S
C266 H262 0.929 . S
C266 C268 1.378 . S
C266 C270 1.350 . S
C267 C270 1.463 . S
C267 C272 1.350 . S
C267 N275 1.427 . S
C268 H259 0.930 . S
C268 C266 1.378 . S
C268 C269 1.367 . S
C269 C268 1.367 . S
C269 C271 1.433 . S
C270 C266 1.350 . S
C270 C267 1.463 . S
C270 N274 1.427 . S
C271 H261 0.929 . S
C271 C269 1.433 . S
C271 N274 1.384 . S
C272 H263 0.929 . S
C272 C264 1.378 1_545 S
C272 C267 1.350 . S
C273 H260 0.929 . S
C273 C265 1.433 . S
C273 N275 1.384 1_565 S
N274 C270 1.427 . S
N274 C271 1.384 . S
N275 C267 1.427 . S
N275 C273 1.384 1_545 S
H276 C282 0.930 . S
H277 C286 0.930 . S
H278 C291 0.929 . S
H279 C289 0.929 . S
H280 C284 0.929 . S
H281 C290 0.929 . S
C282 H276 0.930 . S
C282 C283 1.367 . S
C282 C290 1.378 . S
C283 C282 1.367 . S
C283 C291 1.433 1_545 S
C284 H280 0.929 . S
C284 C286 1.378 1_455 S
C284 C288 1.350 . S
C285 C288 1.463 . S
C285 C290 1.350 . S
C285 N293 1.427 . S
C286 H277 0.930 . S
C286 C284 1.378 1_655 S
C286 C287 1.367 1_655 S
C287 C286 1.367 1_455 S
C287 C289 1.433 . S
C288 C284 1.350 . S
C288 C285 1.463 . S
C288 N292 1.427 . S
C289 H279 0.929 . S
C289 C287 1.433 . S
C289 N292 1.384 . S
C290 H281 0.929 . S
C290 C282 1.378 . S
C290 C285 1.350 . S
C291 H278 0.929 . S
C291 C283 1.433 1_565 S
C291 N293 1.384 1_565 S
N292 C288 1.427 . S
N292 C289 1.384 . S
N293 C285 1.427 . S
N293 C291 1.384 1_545 S
H294 C300 0.930 . S
H295 C304 0.930 . S
H296 C309 0.929 . S
H297 C307 0.929 . S
H298 C302 0.929 . S
H299 C308 0.929 . S
C300 H294 0.930 . S
C300 C301 1.367 . S
C300 C308 1.378 . S
C301 C300 1.367 . S
C301 C309 1.433 . S
C302 H298 0.929 . S
C302 C304 1.378 . S
C302 C306 1.350 . S
C303 C306 1.463 . S
C303 C308 1.350 . S
C303 N311 1.427 . S
C304 H295 0.930 . S
C304 C302 1.378 . S
C304 C305 1.367 . S
C305 C304 1.367 . S
C305 C307 1.433 . S
C306 C302 1.350 . S
C306 C303 1.463 . S
C306 N310 1.427 . S
C307 H297 0.929 . S
C307 C305 1.433 . S
C307 N310 1.384 . S
C308 H299 0.929 . S
C308 C300 1.378 . S
C308 C303 1.350 . S
C309 H296 0.929 . S
C309 C301 1.433 . S
C309 N311 1.384 . S
N310 C306 1.427 . S
N310 C307 1.384 . S
N311 C303 1.427 . S
N311 C309 1.384 . S
H312 C318 0.930 . S
H313 C322 0.930 . S
H314 C327 0.929 . S
H315 C325 0.929 . S
H316 C320 0.929 . S
H317 C326 0.929 . S
C318 H312 0.930 . S
C318 C319 1.367 . S
C318 C326 1.378 . S
C319 C318 1.367 . S
C319 C327 1.433 . S
C320 H316 0.929 . S
C320 C322 1.378 . S
C320 C324 1.350 . S
C321 C324 1.463 1_455 S
C321 C326 1.350 . S
C321 N329 1.427 . S
C322 H313 0.930 . S
C322 C320 1.378 . S
C322 C323 1.367 . S
C323 C322 1.367 . S
C323 C325 1.433 . S
C324 C320 1.350 . S
C324 C321 1.463 1_655 S
C324 N328 1.427 . S
C325 H315 0.929 . S
C325 C323 1.433 . S
C325 N328 1.384 . S
C326 H317 0.929 . S
C326 C318 1.378 . S
C326 C321 1.350 . S
C327 H314 0.929 . S
C327 C319 1.433 . S
C327 N329 1.384 . S
N328 C324 1.427 . S
N328 C325 1.384 . S
N329 C321 1.427 . S
N329 C327 1.384 . S
H330 C336 0.930 . S
H331 C340 0.930 . S
H332 C345 0.929 . S
H333 C343 0.929 . S
H334 C338 0.929 . S
H335 C344 0.929 . S
C336 H330 0.930 . S
C336 C337 1.367 . S
C336 C344 1.378 . S
C337 C336 1.367 . S
C337 C345 1.433 . S
C338 H334 0.929 . S
C338 C340 1.378 . S
C338 C342 1.350 . S
C339 C342 1.463 1_545 S
C339 C344 1.350 . S
C339 N347 1.427 . S
C340 H331 0.930 . S
C340 C338 1.378 . S
C340 C341 1.367 . S
C341 C340 1.367 . S
C341 C343 1.433 . S
C342 C338 1.350 . S
C342 C339 1.463 1_565 S
C342 N346 1.427 . S
C343 H333 0.929 . S
C343 C341 1.433 . S
C343 N346 1.384 . S
C344 H335 0.929 . S
C344 C336 1.378 . S
C344 C339 1.350 . S
C345 H332 0.929 . S
C345 C337 1.433 . S
C345 N347 1.384 . S
N346 C342 1.427 . S
N346 C343 1.384 . S
N347 C339 1.427 . S
N347 C345 1.384 . S
H348 C354 0.930 . S
H349 C358 0.931 1_455 S
H350 C363 0.929 . S
H351 C361 0.929 . S
H352 C356 0.929 . S
H353 C362 0.929 . S
C354 H348 0.930 . S
C354 C355 1.367 . S
C354 C362 1.378 . S
C355 C354 1.367 . S
C355 C363 1.433 . S
C356 H352 0.929 . S
C356 C358 1.377 . S
C356 C360 1.350 . S
C357 C360 1.463 . S
C357 C362 1.350 . S
C357 N365 1.427 . S
C358 H349 0.931 1_655 S
C358 C356 1.377 . S
C358 C359 1.367 . S
C359 C358 1.367 . S
C359 C361 1.433 . S
C360 C356 1.350 . S
C360 C357 1.463 . S
C360 N364 1.427 . S
C361 H351 0.929 . S
C361 C359 1.433 . S
C361 N364 1.384 . S
C362 H353 0.929 . S
C362 C354 1.378 . S
C362 C357 1.350 . S
C363 H350 0.929 . S
C363 C355 1.433 . S
C363 N365 1.384 . S
N364 C360 1.427 . S
N364 C361 1.384 . S
N365 C357 1.427 . S
N365 C363 1.384 . S
H366 C372 0.930 . S
H367 C376 0.930 1_545 S
H368 C381 0.929 . S
H369 C379 0.929 . S
H370 C374 0.929 . S
H371 C380 0.929 . S
C372 H366 0.930 . S
C372 C373 1.367 . S
C372 C380 1.378 . S
C373 C372 1.367 . S
C373 C381 1.433 . S
C374 H370 0.929 . S
C374 C376 1.378 . S
C374 C378 1.350 . S
C375 C378 1.463 . S
C375 C380 1.350 . S
C375 N383 1.427 . S
C376 H367 0.930 1_565 S
C376 C374 1.378 . S
C376 C377 1.367 . S
C377 C376 1.367 . S
C377 C379 1.433 . S
C378 C374 1.350 . S
C378 C375 1.463 . S
C378 N382 1.427 . S
C379 H369 0.929 . S
C379 C377 1.433 . S
C379 N382 1.384 . S
C380 H371 0.929 . S
C380 C372 1.378 . S
C380 C375 1.350 . S
C381 H368 0.929 . S
C381 C373 1.433 . S
C381 N383 1.384 . S
N382 C378 1.427 . S
N382 C379 1.384 . S
N383 C375 1.427 . S
N383 C381 1.384 . S
H384 C390 0.930 . S
H385 C394 0.930 . S
H386 C399 0.929 . S
H387 C397 0.929 . S
H388 C392 0.929 . S
H389 C398 0.929 . S
C390 H384 0.930 . S
C390 C391 1.367 . S
C390 C398 1.378 . S
C391 C390 1.367 . S
C391 C399 1.433 . S
C392 H388 0.929 . S
C392 C394 1.378 . S
C392 C396 1.350 . S
C393 C396 1.463 . S
C393 C398 1.350 . S
C393 N401 1.427 . S
C394 H385 0.930 . S
C394 C392 1.378 . S
C394 C395 1.367 . S
C395 C394 1.367 . S
C395 C397 1.433 . S
C396 C392 1.350 . S
C396 C393 1.463 . S
C396 N400 1.427 . S
C397 H387 0.929 . S
C397 C395 1.433 . S
C397 N400 1.384 . S
C398 H389 0.929 . S
C398 C390 1.378 . S
C398 C393 1.350 . S
C399 H386 0.929 . S
C399 C391 1.433 . S
C399 N401 1.384 . S
N400 C396 1.427 . S
N400 C397 1.384 . S
N401 C393 1.427 . S
N401 C399 1.384 . S
H402 C408 0.930 . S
H403 C412 0.930 . S
H404 C417 0.929 . S
H405 C415 0.929 . S
H406 C410 0.929 . S
H407 C416 0.929 . S
C408 H402 0.930 . S
C408 C409 1.367 . S
C408 C416 1.378 . S
C409 C408 1.367 . S
C409 C417 1.433 1_554 S
C410 H406 0.929 . S
C410 C412 1.378 . S
C410 C414 1.350 1_556 S
C411 C414 1.463 . S
C411 C416 1.350 . S
C411 N419 1.427 1_554 S
C412 H403 0.930 . S
C412 C410 1.378 . S
C412 C413 1.376 1_556 S
C413 C412 1.376 1_554 S
C413 C415 1.436 1_545 S
C414 C410 1.350 1_554 S
C414 C411 1.463 . S
C414 N418 1.427 . S
C415 H405 0.929 . S
C415 C413 1.436 1_565 S
C415 N418 1.384 1_565 S
C416 H407 0.929 . S
C416 C408 1.378 . S
C416 C411 1.350 . S
C417 H404 0.929 . S
C417 C409 1.433 1_556 S
C417 N419 1.384 . S
N418 C414 1.427 . S
N418 C415 1.384 1_545 S
N419 C411 1.427 1_556 S
N419 C417 1.384 . S
H420 C426 0.930 . S
H421 C430 0.930 . S
H422 C435 0.929 . S
H423 C433 0.929 . S
H424 C428 0.929 . S
H425 C434 0.929 . S
C426 H420 0.930 . S
C426 C427 1.367 . S
C426 C434 1.378 . S
C427 C426 1.367 . S
C427 C435 1.433 . S
C428 H424 0.929 . S
C428 C430 1.378 . S
C428 C432 1.350 . S
C429 C432 1.463 . S
C429 C434 1.350 . S
C429 N437 1.427 . S
C430 H421 0.930 . S
C430 C428 1.378 . S
C430 C431 1.367 . S
C431 C430 1.367 . S
C431 C433 1.433 . S
C432 C428 1.350 . S
C432 C429 1.463 . S
C432 N436 1.427 . S
C433 H423 0.929 . S
C433 C431 1.433 . S
C433 N436 1.384 . S
C434 H425 0.929 . S
C434 C426 1.378 . S
C434 C429 1.350 . S
C435 H422 0.929 . S
C435 C427 1.433 . S
C435 N437 1.384 . S
N436 C432 1.427 . S
N436 C433 1.384 . S
N437 C429 1.427 . S
N437 C435 1.384 . S
H438 C444 0.930 . S
H439 C448 0.930 . S
H440 C453 0.929 1_655 S
H441 C451 0.929 . S
H442 C446 0.929 . S
H443 C452 0.929 . S
C444 H438 0.930 . S
C444 C445 1.367 . S
C444 C452 1.378 . S
C445 C444 1.367 . S
C445 C453 1.433 . S
C446 H442 0.929 . S
C446 C448 1.378 . S
C446 C450 1.350 . S
C447 C450 1.463 . S
C447 C452 1.350 . S
C447 N455 1.427 . S
C448 H439 0.930 . S
C448 C446 1.378 . S
C448 C449 1.367 . S
C449 C448 1.367 . S
C449 C451 1.433 . S
C450 C446 1.350 . S
C450 C447 1.463 . S
C450 N454 1.427 . S
C451 H441 0.929 . S
C451 C449 1.433 . S
C451 N454 1.384 . S
C452 H443 0.929 . S
C452 C444 1.378 . S
C452 C447 1.350 . S
C453 H440 0.929 1_455 S
C453 C445 1.433 . S
C453 N455 1.384 . S
N454 C450 1.427 . S
N454 C451 1.384 . S
N455 C447 1.427 . S
N455 C453 1.384 . S
H456 C462 0.930 . S
H457 C466 0.930 . S
H458 C471 0.929 . S
H459 C469 0.929 . S
H460 C464 0.929 . S
H461 C470 0.929 . S
C462 H456 0.930 . S
C462 C463 1.367 . S
C462 C470 1.378 . S
C463 C462 1.367 . S
C463 C471 1.433 . S
C464 H460 0.929 . S
C464 C466 1.378 . S
C464 C468 1.350 . S
C465 C468 1.463 . S
C465 C470 1.350 . S
C465 N473 1.427 . S
C466 H457 0.930 . S
C466 C464 1.378 . S
C466 C467 1.367 . S
C467 C466 1.367 . S
C467 C469 1.433 . S
C468 C464 1.350 . S
C468 C465 1.463 . S
C468 N472 1.427 . S
C469 H459 0.929 . S
C469 C467 1.433 . S
C469 N472 1.384 . S
C470 H461 0.929 . S
C470 C462 1.378 . S
C470 C465 1.350 . S
C471 H458 0.929 . S
C471 C463 1.433 . S
C471 N473 1.384 . S
N472 C468 1.427 . S
N472 C469 1.384 . S
N473 C465 1.427 . S
N473 C471 1.384 . S
H474 C480 0.930 . S
H475 C484 0.930 . S
H476 C489 0.929 . S
H477 C487 0.929 . S
H478 C482 0.929 . S
H479 C488 0.929 . S
C480 H474 0.930 . S
C480 C481 1.367 . S
C480 C488 1.378 . S
C481 C480 1.367 . S
C481 C489 1.433 . S
C482 H478 0.929 . S
C482 C484 1.378 . S
C482 C486 1.350 . S
C483 C486 1.463 . S
C483 C488 1.350 . S
C483 N491 1.427 . S
C484 H475 0.930 . S
C484 C482 1.378 . S
C484 C485 1.367 . S
C485 C484 1.367 . S
C485 C487 1.433 . S
C486 C482 1.350 . S
C486 C483 1.463 . S
C486 N490 1.427 . S
C487 H477 0.929 . S
C487 C485 1.433 . S
C487 N490 1.384 . S
C488 H479 0.929 . S
C488 C480 1.378 . S
C488 C483 1.350 . S
C489 H476 0.929 . S
C489 C481 1.433 . S
C489 N491 1.384 . S
N490 C486 1.427 . S
N490 C487 1.384 . S
N491 C483 1.427 . S
N491 C489 1.384 . S
H492 C498 0.930 . S
H493 C502 0.930 . S
H494 C507 0.929 . S
H495 C505 0.929 . S
H496 C500 0.929 . S
H497 C506 0.929 . S
C498 H492 0.930 . S
C498 C499 1.367 . S
C498 C506 1.378 . S
C499 C498 1.367 . S
C499 C507 1.433 . S
C500 H496 0.929 . S
C500 C502 1.378 . S
C500 C504 1.350 . S
C501 C504 1.463 . S
C501 C506 1.350 . S
C501 N509 1.427 . S
C502 H493 0.930 . S
C502 C500 1.378 . S
C502 C503 1.367 . S
C503 C502 1.367 . S
C503 C505 1.433 . S
C504 C500 1.350 . S
C504 C501 1.463 . S
C504 N508 1.427 . S
C505 H495 0.929 . S
C505 C503 1.433 . S
C505 N508 1.384 . S
C506 H497 0.929 . S
C506 C498 1.378 . S
C506 C501 1.350 . S
C507 H494 0.929 . S
C507 C499 1.433 . S
C507 N509 1.384 . S
N508 C504 1.427 . S
N508 C505 1.384 . S
N509 C501 1.427 . S
N509 C507 1.384 . S
H510 C516 0.930 . S
H511 C520 0.930 . S
H512 C525 0.929 . S
H513 C523 0.929 . S
H514 C518 0.929 . S
H515 C524 0.929 . S
C516 H510 0.930 . S
C516 C517 1.367 . S
C516 C524 1.378 . S
C517 C516 1.367 . S
C517 C525 1.433 . S
C518 H514 0.929 . S
C518 C520 1.378 . S
C518 C522 1.350 . S
C519 C522 1.463 . S
C519 C524 1.350 . S
C519 N527 1.427 . S
C520 H511 0.930 . S
C520 C518 1.378 . S
C520 C521 1.367 . S
C521 C520 1.367 . S
C521 C523 1.433 . S
C522 C518 1.350 . S
C522 C519 1.463 . S
C522 N526 1.427 . S
C523 H513 0.929 . S
C523 C521 1.433 . S
C523 N526 1.384 . S
C524 H515 0.929 . S
C524 C516 1.378 . S
C524 C519 1.350 . S
C525 H512 0.929 . S
C525 C517 1.433 . S
C525 N527 1.384 . S
N526 C522 1.427 . S
N526 C523 1.384 . S
N527 C519 1.427 . S
N527 C525 1.384 . S
H528 C534 0.930 . S
H529 C538 0.930 . S
H530 C543 0.929 . S
H531 C541 0.929 . S
H532 C536 0.929 . S
H533 C542 0.929 . S
C534 H528 0.930 . S
C534 C535 1.367 1_455 S
C534 C542 1.378 . S
C535 C534 1.367 1_655 S
C535 C543 1.433 . S
C536 H532 0.929 . S
C536 C538 1.378 . S
C536 C540 1.350 . S
C537 C540 1.463 . S
C537 C542 1.350 . S
C537 N545 1.427 1_455 S
C538 H529 0.930 . S
C538 C536 1.378 . S
C538 C539 1.367 . S
C539 C538 1.367 . S
C539 C541 1.433 . S
C540 C536 1.350 . S
C540 C537 1.463 . S
C540 N544 1.427 . S
C541 H531 0.929 . S
C541 C539 1.433 . S
C541 N544 1.384 . S
C542 H533 0.929 . S
C542 C534 1.378 . S
C542 C537 1.350 . S
C543 H530 0.929 . S
C543 C535 1.433 . S
C543 N545 1.384 . S
N544 C540 1.427 . S
N544 C541 1.384 . S
N545 C537 1.427 1_655 S
N545 C543 1.384 . S
H546 C552 0.930 . S
H547 C556 0.930 . S
H548 C561 0.929 . S
H549 C559 0.929 . S
H550 C554 0.929 1_565 S
H551 C560 0.929 . S
C552 H546 0.930 . S
C552 C553 1.367 1_545 S
C552 C560 1.378 . S
C553 C552 1.367 1_565 S
C553 C561 1.433 . S
C554 H550 0.929 1_545 S
C554 C556 1.378 . S
C554 C558 1.350 . S
C555 C558 1.463 . S
C555 C560 1.350 . S
C555 N563 1.427 1_545 S
C556 H547 0.930 . S
C556 C554 1.378 . S
C556 C557 1.367 . S
C557 C556 1.367 . S
C557 C559 1.433 . S
C558 C554 1.350 . S
C558 C555 1.463 . S
C558 N562 1.427 . S
C559 H549 0.929 . S
C559 C557 1.433 . S
C559 N562 1.384 . S
C560 H551 0.929 . S
C560 C552 1.378 . S
C560 C555 1.350 . S
C561 H548 0.929 . S
C561 C553 1.433 . S
C561 N563 1.384 . S
N562 C558 1.427 . S
N562 C559 1.384 . S
N563 C555 1.427 1_565 S
N563 C561 1.384 . S
C247 C129 0.664 . S
C251 C9 0.667 . S
C265 C169 0.650 . S
C269 C49 0.633 . S
C283 C209 0.657 . S
C287 C89 0.666 . S
C301 C15 0.737 . S
C305 C86 0.754 . S
C319 C55 0.759 . S
C323 C126 0.777 . S
C337 C95 0.772 . S
C341 C166 0.783 . S
C355 C135 0.784 . S
C359 C206 0.777 1_655 S
C373 C175 0.779 . S
C377 C6 0.784 1_565 S
C391 C215 0.774 . S
C395 C46 0.784 . S
C409 C18 1.236 . S
C413 C138 1.215 1_545 S
C427 C58 1.239 . S
C431 C178 1.230 . S
C445 C98 1.228 1_455 S
C449 C218 1.237 . S
C463 C10 4.060 . S
C467 C59 4.116 . S
C481 C50 4.060 . S
C485 C99 4.115 . S
C499 C90 4.061 . S
C503 C139 4.114 . S
C517 C130 4.062 . S
C521 C179 4.117 . S
C535 C170 4.058 . S
C539 C219 4.115 . S
C553 C210 4.058 . S
C557 C19 4.115 . S
