# Generated by pormake.
# Topology ooa, (5)-cn, num edge types: 1
# Building blocks:
#     Node 0, Type 0, BuildingBlock: BEQFEK_clean_sbu_0, # of connection points: 5
#     Node 1, Type 0, BuildingBlock: BEQFEK_clean_sbu_0, # of connection points: 5
#     Node 2, Type 0, BuildingBlock: BEQFEK_clean_sbu_0, # of connection points: 5
#     Node 3, Type 0, BuildingBlock: BEQFEK_clean_sbu_0, # of connection points: 5
#     Node 4, Type 0, BuildingBlock: BEQFEK_clean_sbu_0, # of connection points: 5
#     Node 5, Type 0, BuildingBlock: BEQFEK_clean_sbu_0, # of connection points: 5
#     Node 6, Type 0, BuildingBlock: BEQFEK_clean_sbu_0, # of connection points: 5
#     Node 7, Type 0, BuildingBlock: BEQFEK_clean_sbu_0, # of connection points: 5
#     Edge 8, Type (0, 0), BuildingBlock: AJUNOK_clean_linker_0, # of connection points: 2
#     Edge 9, Type (0, 0), BuildingBlock: AJUNOK_clean_linker_0, # of connection points: 2
#     Edge 10, Type (0, 0), BuildingBlock: AJUNOK_clean_linker_0, # of connection points: 2
#     Edge 11, Type (0, 0), BuildingBlock: AJUNOK_clean_linker_0, # of connection points: 2
#     Edge 12, Type (0, 0), BuildingBlock: AJUNOK_clean_linker_0, # of connection points: 2
#     Edge 13, Type (0, 0), BuildingBlock: AJUNOK_clean_linker_0, # of connection points: 2
#     Edge 14, Type (0, 0), BuildingBlock: AJUNOK_clean_linker_0, # of connection points: 2
#     Edge 15, Type (0, 0), BuildingBlock: AJUNOK_clean_linker_0, # of connection points: 2
#     Edge 16, Type (0, 0), BuildingBlock: AJUNOK_clean_linker_0, # of connection points: 2
#     Edge 17, Type (0, 0), BuildingBlock: AJUNOK_clean_linker_0, # of connection points: 2
#     Edge 18, Type (0, 0), BuildingBlock: AJUNOK_clean_linker_0, # of connection points: 2
#     Edge 19, Type (0, 0), BuildingBlock: AJUNOK_clean_linker_0, # of connection points: 2
#     Edge 20, Type (0, 0), BuildingBlock: AJUNOK_clean_linker_0, # of connection points: 2
#     Edge 21, Type (0, 0), BuildingBlock: AJUNOK_clean_linker_0, # of connection points: 2
#     Edge 22, Type (0, 0), BuildingBlock: AJUNOK_clean_linker_0, # of connection points: 2
#     Edge 23, Type (0, 0), BuildingBlock: AJUNOK_clean_linker_0, # of connection points: 2
#     Edge 24, Type (0, 0), BuildingBlock: AJUNOK_clean_linker_0, # of connection points: 2
#     Edge 25, Type (0, 0), BuildingBlock: AJUNOK_clean_linker_0, # of connection points: 2
#     Edge 26, Type (0, 0), BuildingBlock: AJUNOK_clean_linker_0, # of connection points: 2
#     Edge 27, Type (0, 0), BuildingBlock: AJUNOK_clean_linker_0, # of connection points: 2
# Relax obj value: 0.532
# Max RMSD: 0.278
# Mean RMSD: 0.278
data_MOF--net-ooa--node1-BEQFEK_clean_sbu_0--edge1-AJUNOK_clean_linker_0
_symmetry_space_group_name_H-M    P1
_symmetry_Int_Tables_number       1
_symmetry_cell_setting            triclinic
loop_
_symmetry_equiv_pos_as_xyz
'x, y, z'
_cell_length_a     21.019882
_cell_length_b     36.824894
_cell_length_c     36.826823
_cell_angle_alpha  90.093291
_cell_angle_beta   89.890977
_cell_angle_gamma 90.119314
loop_
_atom_site_label
_atom_site_type_symbol
_atom_site_fract_x
_atom_site_fract_y
_atom_site_fract_z
_atom_type_partial_charge
Co0 Co 0.18806 0.10879 0.05214 0.0
Co1 Co 0.21137 0.16235 0.11651 0.0
C2 C 0.22357 0.08397 0.12829 0.0
O3 O 0.21405 0.08065 0.09458 0.0
O4 O 0.22223 0.11496 0.14349 0.0
C5 C 0.09712 0.05905 0.04569 0.0
O6 O 0.09211 0.07251 0.07862 0.0
C7 C 0.22033 0.20094 0.18701 0.0
C8 C 0.20655 0.25799 0.17048 0.0
C9 C 0.21431 0.23602 0.20063 0.0
N10 N 0.21474 0.20207 0.15059 0.0
N11 N 0.20707 0.23635 0.14092 0.0
C12 C 0.23599 0.16725 0.20781 0.0
H13 H 0.2748 0.15241 0.1938 0.0
H14 H 0.19352 0.14931 0.20868 0.0
H15 H 0.2515 0.17358 0.2359 0.0
C16 C 0.07558 0.15307 0.04354 0.0
N17 N 0.12897 0.14531 0.06174 0.0
N18 N 0.13114 0.16412 0.09198 0.0
C19 C 0.07568 0.18253 0.09525 0.0
C20 C 0.03904 0.17632 0.06423 0.0
C21 C 0.05786 0.13674 1.00762 0.0
H22 H 0.10042 0.12593 0.99351 0.0
H23 H 0.02253 0.11471 1.01187 0.0
H24 H 0.03557 0.15743 0.98992 0.0
O25 O 0.26217 0.13181 0.03088 0.0
O26 O 0.28123 0.16909 0.0776 0.0
H27 H 0.07427 0.23327 0.1231 0.0
H28 H 0.00513 0.20563 0.13094 0.0
C29 C 0.05758 0.20501 0.12746 0.0
H30 H 0.08049 0.19428 0.15234 0.0
H31 H 0.20108 0.2449 0.11417 0.0
O32 O 0.14114 0.07103 0.02494 0.0
C33 C 0.29518 0.15684 0.0458 0.0
Co34 Co 0.29525 0.91373 0.0514 0.0
Co35 Co 0.26744 0.86047 0.11481 0.0
C36 C 0.25873 0.93891 0.12748 0.0
O37 O 0.27089 0.94231 0.09404 0.0
O38 O 0.25601 0.90774 0.14214 0.0
C39 C 0.38929 0.96128 0.04475 0.0
O40 O 0.39444 0.94723 0.07737 0.0
C41 C 0.27001 0.82265 0.18509 0.0
C42 C 0.2408 0.76694 0.17028 0.0
C43 C 0.2577 0.78854 0.19958 0.0
N44 N 0.25978 0.82143 0.14905 0.0
N45 N 0.24248 0.78799 0.14036 0.0
C46 C 0.29538 0.85526 0.20462 0.0
H47 H 0.33005 0.8698 0.18711 0.0
H48 H 0.31856 0.84748 0.23051 0.0
H49 H 0.25556 0.87409 0.21059 0.0
C50 C 0.40551 0.86768 0.04292 0.0
N51 N 0.35198 0.87606 0.06082 0.0
N52 N 0.34863 0.85757 0.09115 0.0
C53 C 0.40359 0.83879 0.09484 0.0
C54 C 0.44126 0.84455 0.06401 0.0
C55 C 0.42441 0.88345 1.00696 0.0
H56 H 0.38257 0.89485 0.99272 0.0
H57 H 0.4609 0.90487 1.01112 0.0
H58 H 0.44583 0.8622 0.98946 0.0
O59 O 0.22054 0.89238 0.02955 0.0
O60 O 0.19882 0.85439 0.07514 0.0
H61 H 0.38642 0.79343 0.12948 0.0
H62 H 0.4695 0.80602 0.12549 0.0
C63 C 0.42015 0.81655 0.12734 0.0
H64 H 0.41468 0.83329 0.15222 0.0
H65 H 0.23183 0.77954 0.11402 0.0
O66 O 0.34404 0.9505 0.02431 0.0
C67 C 0.18631 0.8674 0.04351 0.0
Co68 Co 0.1908 0.41757 0.49554 0.0
Co69 Co 0.21472 0.3626 0.43267 0.0
C70 C 0.22963 0.44061 0.41922 0.0
O71 O 0.21899 0.44462 0.45275 0.0
O72 O 0.22809 0.40932 0.40461 0.0
C73 C 0.10044 0.46719 0.49921 0.0
O74 O 0.09729 0.45253 0.46674 0.0
C75 C 0.21252 0.32266 0.36318 0.0
C76 C 0.2306 0.2663 0.38064 0.0
C77 C 0.21925 0.28745 0.35025 0.0
N78 N 0.21999 0.32242 0.39948 0.0
N79 N 0.2308 0.28859 0.40972 0.0
C80 C 0.19475 0.35563 0.34182 0.0
H81 H 0.16059 0.37237 0.35757 0.0
H82 H 0.1732 0.34814 0.31536 0.0
H83 H 0.23808 0.37215 0.33681 0.0
C84 C 0.07841 0.37308 0.5052 0.0
N85 N 0.13133 0.38097 0.48643 0.0
N86 N 0.13415 0.36097 0.45698 0.0
C87 C 0.07987 0.34116 0.45494 0.0
C88 C 0.04319 0.34802 0.48589 0.0
C89 C 0.06039 0.39047 0.54059 0.0
H90 H 0.02523 0.41231 0.53556 0.0
H91 H 0.03785 0.37045 0.55902 0.0
H92 H 0.10285 0.40185 0.55433 0.0
O93 O 0.26403 0.39485 0.51798 0.0
O94 O 0.28335 0.35671 0.47199 0.0
H95 H 0.09176 0.29057 0.42763 0.0
H96 H 0.01253 0.30911 0.42439 0.0
C97 C 0.06399 0.31595 0.42445 0.0
H98 H 0.07783 0.32846 0.39819 0.0
H99 H 0.2379 0.28071 0.43659 0.0
O100 O 0.143 0.45597 0.5212 0.0
C101 C 0.29696 0.36949 0.50359 0.0
Co102 Co 0.30572 0.60965 0.49571 0.0
Co103 Co 0.28036 0.66341 0.43212 0.0
C104 C 0.27145 0.58499 0.4191 0.0
O105 O 0.28101 0.5815 0.45278 0.0
O106 O 0.27169 0.61615 0.40434 0.0
C107 C 0.40152 0.56344 0.50004 0.0
O108 O 0.40458 0.57883 0.46796 0.0
C109 C 0.26566 0.70293 0.36248 0.0
C110 C 0.27871 0.75985 0.37987 0.0
C111 C 0.26883 0.73835 0.34947 0.0
N112 N 0.27426 0.70352 0.39874 0.0
N113 N 0.28153 0.73771 0.40891 0.0
C114 C 0.25033 0.6693 0.34135 0.0
H115 H 0.21466 0.65294 0.35638 0.0
H116 H 0.29411 0.65279 0.33818 0.0
H117 H 0.23076 0.67573 0.31417 0.0
C118 C 0.41421 0.6567 0.50621 0.0
N119 N 0.36212 0.64794 0.48719 0.0
N120 N 0.3602 0.66673 0.45702 0.0
C121 C 0.41482 0.68621 0.45462 0.0
C122 C 0.45062 0.68059 0.48612 0.0
C123 C 0.43102 0.64051 0.54227 0.0
H124 H 0.38876 0.62787 0.55513 0.0
H125 H 0.46914 0.62002 0.53858 0.0
H126 H 0.44936 0.66177 0.56086 0.0
O127 O 0.23017 0.63061 0.51741 0.0
O128 O 0.21026 0.6682 0.47117 0.0
H129 H 0.41444 0.73737 0.42774 0.0
H130 H 0.48502 0.71117 0.41991 0.0
C131 C 0.43258 0.7095 0.42298 0.0
H132 H 0.4107 0.69877 0.39773 0.0
H133 H 0.28928 0.7459 0.43567 0.0
O134 O 0.35628 0.57248 0.52144 0.0
C135 C 0.19636 0.65533 0.50271 0.0
Co136 Co 0.79917 0.91483 0.99692 0.0
Co137 Co 0.76835 0.86102 0.93406 0.0
C138 C 0.76267 0.93932 0.92071 0.0
O139 O 0.77511 0.94291 0.95407 0.0
O140 O 0.75864 0.90804 0.90632 0.0
C141 C 0.89618 0.96083 1.00034 0.0
O142 O 0.89865 0.94522 0.96829 0.0
C143 C 0.77009 0.8225 0.86417 0.0
C144 C 0.7359 0.76773 0.87886 0.0
C145 C 0.75552 0.78867 0.84966 0.0
N146 N 0.75855 0.8218 0.90012 0.0
N147 N 0.73826 0.78891 0.90874 0.0
C148 C 0.79872 0.85429 0.8448 0.0
H149 H 0.83344 0.86825 0.86272 0.0
H150 H 0.82265 0.84569 0.81932 0.0
H151 H 0.76058 0.87394 0.83809 0.0
C152 C 0.90607 0.8667 1.00585 0.0
N153 N 0.85342 0.87591 0.9877 0.0
N154 N 0.84922 0.857 0.95761 0.0
C155 C 0.90285 0.83691 0.95438 0.0
C156 C 0.94047 0.84236 0.98523 0.0
C157 C 0.92568 0.88303 0.04145 0.0
H158 H 0.88445 0.89565 0.05535 0.0
H159 H 0.96342 0.90363 0.03678 0.0
H160 H 0.94563 0.86186 0.05948 0.0
O161 O 0.72327 0.89494 1.01947 0.0
O162 O 0.70004 0.85675 0.97411 0.0
H163 H 0.88223 0.79177 0.91992 0.0
H164 H 0.96634 0.80149 0.92477 0.0
C165 C 0.91829 0.81368 0.92227 0.0
H166 H 0.91569 0.83027 0.8972 0.0
H167 H 0.72603 0.78093 0.93501 0.0
O168 O 0.85173 0.95161 1.02221 0.0
C169 C 0.68798 0.87029 1.00565 0.0
Co170 Co 0.68428 0.10648 0.9955 0.0
Co171 Co 0.7128 0.16168 0.9335 0.0
C172 C 0.72411 0.08358 0.91929 0.0
O173 O 0.71165 0.07941 0.95259 0.0
O174 O 0.72541 0.11503 0.90515 0.0
C175 C 0.59034 0.05897 0.99866 0.0
O176 O 0.58856 0.07407 0.96643 0.0
C177 C 0.71235 0.20172 0.86426 0.0
C178 C 0.73326 0.25782 0.88184 0.0
C179 C 0.72066 0.23683 0.85142 0.0
N180 N 0.72017 0.20185 0.90054 0.0
N181 N 0.73266 0.23553 0.91085 0.0
C182 C 0.69259 0.16903 0.84286 0.0
H183 H 0.6582 0.1526 0.85881 0.0
H184 H 0.67059 0.17687 0.81666 0.0
H185 H 0.73508 0.15206 0.83731 0.0
C186 C 0.57429 0.15255 1.00481 0.0
N187 N 0.62732 0.14412 0.98644 0.0
N188 N 0.63154 0.16397 0.95701 0.0
C189 C 0.57789 0.18415 0.95448 0.0
C190 C 0.54025 0.1777 0.98514 0.0
C191 C 0.55488 0.13549 0.0401 0.0
H192 H 0.59649 0.12339 0.05394 0.0
H193 H 0.51837 0.11431 0.03494 0.0
H194 H 0.53345 0.15597 0.05847 0.0
O195 O 0.75812 0.12785 1.01851 0.0
O196 O 0.78061 0.16661 0.97361 0.0
H197 H 0.59256 0.23414 0.92662 0.0
H198 H 0.5123 0.2168 0.9236 0.0
C199 C 0.56336 0.20917 0.92373 0.0
H200 H 0.57648 0.19608 0.89761 0.0
H201 H 0.74026 0.24333 0.93774 0.0
O202 O 0.63419 0.06864 1.02063 0.0
C203 C 0.79261 0.15305 1.00507 0.0
Co204 Co 0.80215 0.6081 0.55371 0.0
Co205 Co 0.77831 0.66274 0.61694 0.0
C206 C 0.76508 0.58436 0.62998 0.0
O207 O 0.77532 0.58033 0.59639 0.0
O208 O 0.76631 0.61567 0.64454 0.0
C209 C 0.89317 0.55881 0.54706 0.0
O210 O 0.89716 0.57146 0.58034 0.0
C211 C 0.76377 0.70254 0.68662 0.0
C212 C 0.78217 0.75907 0.66969 0.0
C213 C 0.76915 0.73784 0.69985 0.0
N214 N 0.77406 0.70292 0.65049 0.0
N215 N 0.78454 0.7369 0.64058 0.0
C216 C 0.74485 0.66933 0.70741 0.0
H217 H 0.70898 0.65375 0.69174 0.0
H218 H 0.78723 0.65184 0.71128 0.0
H219 H 0.7242 0.67627 0.73425 0.0
C220 C 0.91444 0.65259 0.54413 0.0
N221 N 0.86139 0.64477 0.56281 0.0
N222 N 0.85923 0.66414 0.5927 0.0
C223 C 0.91459 0.68293 0.59532 0.0
C224 C 0.95083 0.67647 0.56415 0.0
C225 C 0.93151 0.63631 0.50806 0.0
H226 H 0.88872 0.62536 0.49431 0.0
H227 H 0.96703 0.61445 0.51204 0.0
H228 H 0.95344 0.657 0.49013 0.0
O229 O 0.72887 0.63079 0.53188 0.0
O230 O 0.70918 0.66919 0.57754 0.0
H231 H 0.91954 0.73468 0.62112 0.0
H232 H 0.98515 0.70526 0.63123 0.0
C233 C 0.93292 0.70614 0.62692 0.0
H234 H 0.90768 0.69712 0.65183 0.0
H235 H 0.79417 0.74489 0.61397 0.0
O236 O 0.84918 0.57068 0.52643 0.0
C237 C 0.69593 0.65626 0.5459 0.0
Co238 Co 0.69026 0.41505 0.55373 0.0
Co239 Co 0.71308 0.3615 0.61785 0.0
C240 C 0.72426 0.43995 0.6302 0.0
O241 O 0.71481 0.44329 0.5965 0.0
O242 O 0.72361 0.40888 0.64516 0.0
C243 C 0.59894 0.46414 0.54675 0.0
O244 O 0.59281 0.45033 0.57944 0.0
C245 C 0.72267 0.32296 0.68819 0.0
C246 C 0.70602 0.26604 0.67179 0.0
C247 C 0.7155 0.288 0.70187 0.0
N248 N 0.71605 0.32179 0.65182 0.0
N249 N 0.7067 0.28758 0.64223 0.0
C250 C 0.74027 0.35653 0.70886 0.0
H251 H 0.77879 0.37114 0.6943 0.0
H252 H 0.69836 0.37474 0.71048 0.0
H253 H 0.7569 0.35004 0.73667 0.0
C254 C 0.57834 0.37025 0.54415 0.0
N255 N 0.63132 0.37822 0.56274 0.0
N256 N 0.63297 0.35947 0.59296 0.0
C257 C 0.57745 0.3409 0.59584 0.0
C258 C 0.54154 0.34686 0.56454 0.0
C259 C 0.56124 0.38649 0.50816 0.0
H260 H 0.52586 0.40845 0.51227 0.0
H261 H 0.53916 0.36579 0.49029 0.0
H262 H 0.60405 0.3974 0.49433 0.0
O263 O 0.76498 0.39253 0.53281 0.0
O264 O 0.78366 0.35502 0.57923 0.0
H265 H 0.57267 0.28999 0.62311 0.0
H266 H 0.50606 0.31923 0.63177 0.0
C267 C 0.55845 0.31859 0.62794 0.0
H268 H 0.58266 0.32858 0.65278 0.0
H269 H 0.6996 0.27902 0.61553 0.0
O270 O 0.64382 0.45259 0.52639 0.0
C271 C 0.79797 0.36755 0.54761 0.0
C272 C 0.00198 0.02068 0.05802 0.0
C273 C 0.04803 0.03324 0.0331 0.0
C274 C 0.95264 0.99764 0.04718 0.0
C275 C 0.94743 0.98616 1.011 0.0
H276 H 0.00366 0.02875 0.0863 0.0
H277 H 0.91868 0.98861 0.06742 0.0
S278 S 0.05527 0.01159 0.93485 0.0
N279 N 0.08506 0.03266 0.97056 0.0
N280 N 0.9923 0.98937 0.94989 0.0
C281 C 0.99319 0.99847 0.98569 0.0
C282 C 0.04354 0.02196 0.99681 0.0
C283 C 0.54079 0.01683 0.04349 0.0
C284 C 0.53885 0.03389 1.00951 0.0
C285 C 0.49188 0.99361 0.05454 0.0
C286 C 0.43908 0.98652 0.03203 0.0
H287 H 0.58033 0.0214 0.06178 0.0
H288 H 0.49589 0.98104 0.08101 0.0
S289 S 0.41037 0.02498 0.94059 0.0
N290 N 0.47899 0.04257 0.95342 0.0
N291 N 0.3874 0.99865 0.97438 0.0
C292 C 0.43636 1.00341 0.998 0.0
C293 C 0.48616 0.02715 0.98669 0.0
C294 C 0.98563 0.51869 0.55898 0.0
C295 C 0.94425 0.5349 0.53371 0.0
C296 C 0.03729 0.49769 0.54769 0.0
C297 C 0.04953 0.49216 0.51067 0.0
H298 H 0.97819 0.52218 0.58787 0.0
H299 H 0.06699 0.48518 0.56814 0.0
S300 S 0.95823 0.53067 0.43345 0.0
N301 N 0.92047 0.54519 0.47 0.0
N302 N 0.01806 0.50602 0.44852 0.0
C303 C 0.00921 0.50872 0.48501 0.0
C304 C 0.95632 0.52994 0.49658 0.0
C305 C 0.45043 0.52198 0.54551 0.0
C306 C 0.45252 0.53828 0.51116 0.0
C307 C 0.49845 0.49838 0.55669 0.0
C308 C 0.55047 0.49004 0.53393 0.0
H309 H 0.41142 0.52742 0.56399 0.0
H310 H 0.49426 0.48643 0.58344 0.0
S311 S 0.57919 0.52599 0.44142 0.0
N312 N 0.51185 0.54495 0.45445 0.0
N313 N 0.60157 0.50016 0.47561 0.0
C314 C 0.55344 0.50623 0.49956 0.0
C315 C 0.50461 0.53044 0.48814 0.0
C316 C 0.18925 0.988 0.15033 0.0
C317 C 0.25052 0.97302 0.14804 0.0
C318 C 0.18051 0.02586 0.15062 0.0
C319 C 0.23272 0.04984 0.14851 0.0
H320 H 0.1479 0.97068 0.14707 0.0
H321 H 0.1326 0.03626 0.14765 0.0
S322 S 0.40266 0.02398 0.14873 0.0
N323 N 0.36405 0.98486 0.14948 0.0
N324 N 0.34748 0.05586 0.14945 0.0
C325 C 0.29399 0.03514 0.15106 0.0
C326 C 0.3029 0.99667 0.15096 0.0
C327 C 0.18931 0.49903 0.39642 0.0
C328 C 0.24034 0.47436 0.39851 0.0
C329 C 0.19986 0.53676 0.39649 0.0
C330 C 0.26183 0.55097 0.39853 0.0
H331 H 0.14092 0.48929 0.3996 0.0
H332 H 0.15933 0.55461 0.39981 0.0
S333 S 0.41141 0.49794 0.39716 0.0
N334 N 0.35472 0.4668 0.3969 0.0
N335 N 0.37475 0.53759 0.39662 0.0
C336 C 0.31304 0.5266 0.39552 0.0
C337 C 0.30226 0.48824 0.39558 0.0
C338 C 0.80642 0.99767 0.89935 0.0
C339 C 0.75465 0.9733 0.90004 0.0
C340 C 0.79679 0.03542 0.89854 0.0
C341 C 0.73506 0.04994 0.89844 0.0
H342 H 0.85415 0.98774 0.90421 0.0
H343 H 0.8373 0.0531 0.90306 0.0
S344 S 0.58458 0.99768 0.89277 0.0
N345 N 0.64045 0.96624 0.8947 0.0
N346 N 0.62223 0.03712 0.89291 0.0
C347 C 0.68368 0.0258 0.8939 0.0
C348 C 0.69349 0.98739 0.8948 0.0
C349 C 0.68163 0.49865 0.65108 0.0
C350 C 0.73296 0.4741 0.65064 0.0
C351 C 0.69192 0.53638 0.65112 0.0
C352 C 0.75389 0.55072 0.65078 0.0
H353 H 0.63369 0.48876 0.64657 0.0
H354 H 0.65165 0.5541 0.6465 0.0
S355 S 0.90349 0.49812 0.65702 0.0
N356 N 0.84709 0.46682 0.65575 0.0
N357 N 0.86655 0.53768 0.65616 0.0
C358 C 0.80491 0.52653 0.65548 0.0
C359 C 0.79442 0.48814 0.65533 0.0
C360 C 0.3688 0.15493 0.9921 0.0
C361 C 0.35254 0.17037 0.02601 0.0
C362 C 0.42763 0.16203 0.97556 0.0
C363 C 0.47231 0.18498 0.99212 0.0
H364 H 0.33778 0.13527 0.9792 0.0
H365 H 0.44068 0.14662 0.95158 0.0
S366 S 0.44969 0.23763 0.07687 0.0
N367 N 0.3832 0.21403 0.07261 0.0
N368 N 0.49376 0.2271 0.04121 0.0
C369 C 0.45427 0.20364 1.02375 0.0
C370 C 0.39449 0.19631 0.04087 0.0
C371 C 0.03036 0.8192 1.02197 0.0
C372 C 0.00947 0.83733 0.99062 0.0
C373 C 0.08928 0.82755 0.0379 0.0
C374 C 0.12944 0.85438 1.023 0.0
H375 H -0.00171 0.80106 0.03623 0.0
H376 H 0.10146 0.81446 0.06326 0.0
S377 S 0.0996 0.90548 0.93757 0.0
N378 N 0.03567 0.87996 0.9429 0.0
N379 N 0.14677 0.89546 0.97189 0.0
C380 C 0.1114 0.87002 0.98951 0.0
C381 C 0.05145 0.8614 0.97346 0.0
C382 C 0.42991 0.36538 0.57328 0.0
C383 C 0.47319 0.34111 0.55746 0.0
C384 C 0.37129 0.37267 0.55677 0.0
C385 C 0.35394 0.35613 0.52359 0.0
H386 H 0.44392 0.38142 0.59666 0.0
H387 H 0.34135 0.39323 0.56902 0.0
S388 S 0.4472 0.28557 0.47491 0.0
N389 N 0.49213 0.29688 0.50991 0.0
N390 N 0.38199 0.31028 0.47856 0.0
C391 C 0.39451 0.3291 0.5095 0.0
C392 C 0.45405 0.32161 0.52659 0.0
C393 C 0.06286 0.65874 0.57251 0.0
C394 C 0.01905 0.68261 0.55675 0.0
C395 C 0.12158 0.65171 0.55583 0.0
C396 C 0.13854 0.6681 0.52252 0.0
H397 H 0.0493 0.64283 0.59603 0.0
H398 H 0.15203 0.63151 0.56814 0.0
S399 S 0.04352 0.7375 0.47374 0.0
N400 N -0.00102 0.72623 0.50897 0.0
N401 N 0.10927 0.71328 0.47729 0.0
C402 C 0.09728 0.69467 0.50839 0.0
C403 C 0.03765 0.70192 0.52566 0.0
C404 C 0.53271 0.82165 0.02812 0.0
C405 C 0.51057 0.84071 0.0587 0.0
C406 C 0.59165 0.83005 1.01216 0.0
C407 C 0.6306 0.85792 0.02621 0.0
H408 H 0.50169 0.80248 1.01447 0.0
H409 H 0.60493 0.81597 0.98745 0.0
S410 S 0.59666 0.91251 0.10913 0.0
N411 N 0.53394 0.88587 0.10464 0.0
N412 N 0.64501 0.9016 0.07548 0.0
C413 C 0.61112 0.87487 0.05885 0.0
C414 C 0.55114 0.86617 0.07497 0.0
C415 C 0.89075 0.19187 1.01088 0.0
C416 C 0.84965 0.16548 0.02575 0.0
C417 C 0.94995 0.19948 0.02679 0.0
C418 C 0.97019 0.18105 0.05807 0.0
H419 H 0.87903 0.20518 0.98556 0.0
H420 H 0.98252 0.21743 1.01265 0.0
S421 S 0.87764 0.1139 0.11106 0.0
N422 N 0.83077 0.12457 0.0768 0.0
N423 N 0.94261 0.13854 0.10567 0.0
C424 C 0.9275 0.15732 0.07514 0.0
C425 C 0.86716 0.14953 0.05916 0.0
C426 C 0.59704 0.69456 0.54179 0.0
C427 C 0.63934 0.66973 0.52554 0.0
C428 C 0.53813 0.70261 0.52577 0.0
C429 C 0.51925 0.68601 0.49309 0.0
H430 H 0.60751 0.70615 0.56817 0.0
H431 H 0.50467 0.71924 0.54077 0.0
S432 S 0.61653 0.62478 0.43588 0.0
N433 N 0.66171 0.63338 0.47149 0.0
N434 N 0.55017 0.6477 0.44258 0.0
C435 C 0.56339 0.66423 0.47473 0.0
C436 C 0.62354 0.65616 0.49074 0.0
C437 C 0.93005 0.36294 0.47707 0.0
C438 C 0.97544 0.34066 0.49367 0.0
C439 C 0.87119 0.36961 0.49373 0.0
C440 C 0.85562 0.35443 0.52784 0.0
H441 H 0.94241 0.37809 0.45284 0.0
H442 H 0.8395 0.38871 0.48071 0.0
S443 S 0.95494 0.28883 0.57897 0.0
N444 N -0.0016 0.29938 0.54308 0.0
N445 N 0.88786 0.31171 0.57475 0.0
C446 C 0.8984 0.32916 0.54281 0.0
C447 C 0.9582 0.32225 0.52556 0.0
C448 C 0.25084 0.29217 0.28475 0.0
C449 C 0.21625 0.27436 0.31221 0.0
C450 C 0.24983 0.27955 0.24875 0.0
C451 C 0.21451 0.24857 0.23896 0.0
H452 H 0.2797 0.3157 0.29124 0.0
H453 H 0.27763 0.29387 0.2285 0.0
S454 S 0.11002 0.19486 0.30003 0.0
N455 N 0.14269 0.22563 0.32686 0.0
N456 N 0.13914 0.20258 0.25907 0.0
C457 C 0.17824 0.23118 0.266 0.0
C458 C 0.17976 0.24383 0.30268 0.0
C459 C 0.29327 0.74469 0.2471 0.0
C460 C 0.26069 0.77668 0.23799 0.0
C461 C 0.29605 0.73251 0.28318 0.0
C462 C 0.2651 0.75144 0.31136 0.0
H463 H 0.3176 0.72923 0.22625 0.0
H464 H 0.32336 0.70833 0.28905 0.0
S465 S 0.16999 0.83555 0.30129 0.0
N466 N 0.19473 0.82629 0.25972 0.0
N467 N 0.19977 0.80342 0.32744 0.0
C468 C 0.23215 0.78341 0.30251 0.0
C469 C 0.22968 0.79592 0.26583 0.0
C470 C 0.79267 0.73134 0.76647 0.0
C471 C 0.76461 0.75102 0.73794 0.0
C472 C 0.78927 0.74367 0.80253 0.0
C473 C 0.75894 0.77652 0.8113 0.0
H474 H 0.81825 0.70645 0.76089 0.0
H475 H 0.81142 0.72764 0.82365 0.0
S476 S 0.67586 0.83753 0.74701 0.0
N477 N 0.70422 0.80461 0.72117 0.0
N478 N 0.69795 0.82772 0.78886 0.0
C479 C 0.73071 0.79647 0.78312 0.0
C480 C 0.73383 0.78383 0.74646 0.0
C481 C 0.74987 0.24415 0.74975 0.0
C482 C 0.71592 0.2756 0.74021 0.0
C483 C 0.75093 0.2316 0.78574 0.0
C484 C 0.71775 0.24994 0.81342 0.0
H485 H 0.77654 0.2294 0.72932 0.0
H486 H 0.7787 0.20768 0.79202 0.0
S487 S 0.6153 0.33087 0.80195 0.0
N488 N 0.64327 0.32265 0.76082 0.0
N489 N 0.64694 0.29971 0.82856 0.0
C490 C 0.68264 0.28095 0.80414 0.0
C491 C 0.68107 0.29355 0.76748 0.0
loop_
_geom_bond_atom_site_label_1
_geom_bond_atom_site_label_2
_geom_bond_distance
_geom_bond_site_symmetry_2
_ccdc_geom_bond_type
Co0 O3 1.970 . S
Co0 N17 1.989 . S
Co0 O25 1.967 . S
Co0 O32 1.920 1_554 S
Co1 O4 1.966 . S
Co1 N10 2.022 . S
Co1 N18 1.993 . S
Co1 O26 1.941 . S
C2 O3 1.258 . S
C2 O4 1.263 . S
O3 Co0 1.970 . S
O3 C2 1.258 . S
O4 Co1 1.966 . S
O4 C2 1.263 . S
C5 O6 1.239 . S
C5 O32 1.288 1_554 S
O6 C5 1.239 . S
C7 C9 1.400 . S
C7 N10 1.351 . S
C7 C12 1.501 . S
C8 C9 1.387 . S
C8 N11 1.341 . S
C9 C7 1.400 . S
C9 C8 1.387 . S
N10 Co1 2.022 . S
N10 C7 1.351 . S
N10 N11 1.365 . S
N11 C8 1.341 . S
N11 N10 1.365 . S
N11 H31 0.862 . S
C12 C7 1.501 . S
C12 H13 0.961 . S
C12 H14 0.961 . S
C12 H15 0.960 . S
H13 C12 0.961 . S
H14 C12 0.961 . S
H15 C12 0.960 . S
C16 N17 1.342 1_655 S
C16 C20 1.401 . S
C16 C21 1.499 . S
N17 Co0 1.989 . S
N17 C16 1.342 1_455 S
N17 N18 1.388 . S
N18 Co1 1.993 . S
N18 N17 1.388 . S
N18 C19 1.346 . S
C19 N18 1.346 . S
C19 C20 1.396 1_455 S
C19 C29 1.510 1_455 S
C20 C16 1.401 . S
C20 C19 1.396 1_655 S
C21 C16 1.499 . S
C21 H22 0.959 1_554 S
C21 H23 0.960 . S
C21 H24 0.961 1_554 S
H22 C21 0.959 1_556 S
H23 C21 0.960 . S
H24 C21 0.961 1_556 S
O25 Co0 1.967 . S
O25 C33 1.258 . S
O26 Co1 1.941 . S
O26 C33 1.266 . S
H27 C29 0.960 . S
H28 C29 0.963 . S
C29 C19 1.510 1_655 S
C29 H27 0.960 . S
C29 H28 0.963 . S
C29 H30 0.958 1_655 S
H30 C29 0.958 1_455 S
H31 N11 0.862 . S
O32 Co0 1.920 1_556 S
O32 C5 1.288 1_556 S
C33 O25 1.258 . S
C33 O26 1.266 . S
Co34 O37 1.970 . S
Co34 N51 1.989 . S
Co34 O59 1.967 . S
Co34 O66 1.920 1_554 S
Co35 O38 1.966 . S
Co35 N44 2.022 . S
Co35 N52 1.993 . S
Co35 O60 1.941 . S
C36 O37 1.258 . S
C36 O38 1.263 . S
O37 Co34 1.970 . S
O37 C36 1.258 . S
O38 Co35 1.966 . S
O38 C36 1.263 . S
C39 O40 1.239 . S
C39 O66 1.288 1_554 S
O40 C39 1.239 . S
C41 C43 1.400 . S
C41 N44 1.351 . S
C41 C46 1.501 . S
C42 C43 1.387 . S
C42 N45 1.341 . S
C43 C41 1.400 . S
C43 C42 1.387 . S
N44 Co35 2.022 . S
N44 C41 1.351 . S
N44 N45 1.365 . S
N45 C42 1.341 . S
N45 N44 1.365 . S
N45 H65 0.862 . S
C46 C41 1.501 . S
C46 H47 0.961 . S
C46 H48 0.961 . S
C46 H49 0.960 . S
H47 C46 0.961 . S
H48 C46 0.961 . S
H49 C46 0.960 . S
C50 N51 1.342 . S
C50 C54 1.401 . S
C50 C55 1.499 . S
N51 Co34 1.989 . S
N51 C50 1.342 . S
N51 N52 1.388 . S
N52 Co35 1.993 . S
N52 N51 1.388 . S
N52 C53 1.346 . S
C53 N52 1.346 . S
C53 C54 1.396 . S
C53 C63 1.510 . S
C54 C50 1.401 . S
C54 C53 1.396 . S
C55 C50 1.499 . S
C55 H56 0.959 1_554 S
C55 H57 0.960 . S
C55 H58 0.961 1_554 S
H56 C55 0.959 1_556 S
H57 C55 0.960 . S
H58 C55 0.961 1_556 S
O59 Co34 1.967 . S
O59 C67 1.258 . S
O60 Co35 1.941 . S
O60 C67 1.266 . S
H61 C63 0.959 . S
H62 C63 0.961 . S
C63 C53 1.510 . S
C63 H61 0.959 . S
C63 H62 0.961 . S
C63 H64 0.960 . S
H64 C63 0.960 . S
H65 N45 0.862 . S
O66 Co34 1.920 1_556 S
O66 C39 1.288 1_556 S
C67 O59 1.258 . S
C67 O60 1.266 . S
Co68 O71 1.970 . S
Co68 N85 1.989 . S
Co68 O93 1.967 . S
Co68 O100 1.920 . S
Co69 O72 1.966 . S
Co69 N78 2.022 . S
Co69 N86 1.993 . S
Co69 O94 1.941 . S
C70 O71 1.258 . S
C70 O72 1.263 . S
O71 Co68 1.970 . S
O71 C70 1.258 . S
O72 Co69 1.966 . S
O72 C70 1.263 . S
C73 O74 1.235 . S
C73 O100 1.289 . S
O74 C73 1.235 . S
C75 C77 1.400 . S
C75 N78 1.351 . S
C75 C80 1.501 . S
C76 C77 1.387 . S
C76 N79 1.341 . S
C77 C75 1.400 . S
C77 C76 1.387 . S
N78 Co69 2.022 . S
N78 C75 1.351 . S
N78 N79 1.365 . S
N79 C76 1.341 . S
N79 N78 1.365 . S
N79 H99 0.862 . S
C80 C75 1.501 . S
C80 H81 0.961 . S
C80 H82 0.961 . S
C80 H83 0.960 . S
H81 C80 0.961 . S
H82 C80 0.961 . S
H83 C80 0.960 . S
C84 N85 1.342 1_655 S
C84 C88 1.401 . S
C84 C89 1.499 . S
N85 Co68 1.989 . S
N85 C84 1.342 1_455 S
N85 N86 1.388 . S
N86 Co69 1.993 . S
N86 N85 1.388 . S
N86 C87 1.346 . S
C87 N86 1.346 . S
C87 C88 1.396 1_455 S
C87 C97 1.510 1_455 S
C88 C84 1.401 . S
C88 C87 1.396 1_655 S
C89 C84 1.499 . S
C89 H90 0.959 . S
C89 H91 0.960 . S
C89 H92 0.961 . S
H90 C89 0.959 . S
H91 C89 0.960 . S
H92 C89 0.961 . S
O93 Co68 1.967 . S
O93 C101 1.258 . S
O94 Co69 1.941 . S
O94 C101 1.266 . S
H95 C97 0.960 . S
H96 C97 0.963 . S
C97 C87 1.510 1_655 S
C97 H95 0.960 . S
C97 H96 0.963 . S
C97 H98 0.958 1_655 S
H98 C97 0.958 1_455 S
H99 N79 0.862 . S
O100 Co68 1.920 . S
O100 C73 1.289 . S
C101 O93 1.258 . S
C101 O94 1.266 . S
Co102 O105 1.970 . S
Co102 N119 1.989 . S
Co102 O127 1.967 . S
Co102 O134 1.920 . S
Co103 O106 1.966 . S
Co103 N112 2.022 . S
Co103 N120 1.993 . S
Co103 O128 1.941 . S
C104 O105 1.258 . S
C104 O106 1.263 . S
O105 Co102 1.970 . S
O105 C104 1.258 . S
O106 Co103 1.966 . S
O106 C104 1.263 . S
C107 O108 1.235 . S
C107 O134 1.289 . S
O108 C107 1.235 . S
C109 C111 1.400 . S
C109 N112 1.351 . S
C109 C114 1.501 . S
C110 C111 1.387 . S
C110 N113 1.341 . S
C111 C109 1.400 . S
C111 C110 1.387 . S
N112 Co103 2.022 . S
N112 C109 1.351 . S
N112 N113 1.365 . S
N113 C110 1.341 . S
N113 N112 1.365 . S
N113 H133 0.862 . S
C114 C109 1.501 . S
C114 H115 0.961 . S
C114 H116 0.961 . S
C114 H117 0.960 . S
H115 C114 0.961 . S
H116 C114 0.961 . S
H117 C114 0.960 . S
C118 N119 1.342 . S
C118 C122 1.401 . S
C118 C123 1.499 . S
N119 Co102 1.989 . S
N119 C118 1.342 . S
N119 N120 1.388 . S
N120 Co103 1.993 . S
N120 N119 1.388 . S
N120 C121 1.346 . S
C121 N120 1.346 . S
C121 C122 1.396 . S
C121 C131 1.510 . S
C122 C118 1.401 . S
C122 C121 1.396 . S
C123 C118 1.499 . S
C123 H124 0.959 . S
C123 H125 0.960 . S
C123 H126 0.961 . S
H124 C123 0.959 . S
H125 C123 0.960 . S
H126 C123 0.961 . S
O127 Co102 1.967 . S
O127 C135 1.258 . S
O128 Co103 1.941 . S
O128 C135 1.266 . S
H129 C131 0.959 . S
H130 C131 0.961 . S
C131 C121 1.510 . S
C131 H129 0.959 . S
C131 H130 0.961 . S
C131 H132 0.960 . S
H132 C131 0.960 . S
H133 N113 0.862 . S
O134 Co102 1.920 . S
O134 C107 1.289 . S
C135 O127 1.258 . S
C135 O128 1.266 . S
Co136 O139 1.970 . S
Co136 N153 1.989 . S
Co136 O161 1.967 . S
Co136 O168 1.920 1_556 S
Co137 O140 1.966 . S
Co137 N146 2.022 . S
Co137 N154 1.993 . S
Co137 O162 1.941 . S
C138 O139 1.258 . S
C138 O140 1.263 . S
O139 Co136 1.970 . S
O139 C138 1.258 . S
O140 Co137 1.966 . S
O140 C138 1.263 . S
C141 O142 1.239 . S
C141 O168 1.288 1_556 S
O142 C141 1.239 . S
C143 C145 1.400 . S
C143 N146 1.351 . S
C143 C148 1.501 . S
C144 C145 1.387 . S
C144 N147 1.341 . S
C145 C143 1.400 . S
C145 C144 1.387 . S
N146 Co137 2.022 . S
N146 C143 1.351 . S
N146 N147 1.365 . S
N147 C144 1.341 . S
N147 N146 1.365 . S
N147 H167 0.862 . S
C148 C143 1.501 . S
C148 H149 0.961 . S
C148 H150 0.961 . S
C148 H151 0.960 . S
H149 C148 0.961 . S
H150 C148 0.961 . S
H151 C148 0.960 . S
C152 N153 1.342 1_455 S
C152 C156 1.401 . S
C152 C157 1.499 . S
N153 Co136 1.989 . S
N153 C152 1.342 1_655 S
N153 N154 1.388 . S
N154 Co137 1.993 . S
N154 N153 1.388 . S
N154 C155 1.346 . S
C155 N154 1.346 . S
C155 C156 1.396 1_655 S
C155 C165 1.510 1_655 S
C156 C152 1.401 . S
C156 C155 1.396 1_455 S
C157 C152 1.499 . S
C157 H158 0.959 1_556 S
C157 H159 0.960 . S
C157 H160 0.961 1_556 S
H158 C157 0.959 1_554 S
H159 C157 0.960 . S
H160 C157 0.961 1_554 S
O161 Co136 1.967 . S
O161 C169 1.258 . S
O162 Co137 1.941 . S
O162 C169 1.266 . S
H163 C165 0.960 . S
H164 C165 0.963 . S
C165 C155 1.510 1_455 S
C165 H163 0.960 . S
C165 H164 0.963 . S
C165 H166 0.958 1_455 S
H166 C165 0.958 1_655 S
H167 N147 0.862 . S
O168 Co136 1.920 1_554 S
O168 C141 1.288 1_554 S
C169 O161 1.258 . S
C169 O162 1.266 . S
Co170 O173 1.970 . S
Co170 N187 1.989 . S
Co170 O195 1.967 . S
Co170 O202 1.920 1_556 S
Co171 O174 1.966 . S
Co171 N180 2.022 . S
Co171 N188 1.993 . S
Co171 O196 1.941 . S
C172 O173 1.258 . S
C172 O174 1.263 . S
O173 Co170 1.970 . S
O173 C172 1.258 . S
O174 Co171 1.966 . S
O174 C172 1.263 . S
C175 O176 1.239 . S
C175 O202 1.288 1_556 S
O176 C175 1.239 . S
C177 C179 1.400 . S
C177 N180 1.351 . S
C177 C182 1.501 . S
C178 C179 1.387 . S
C178 N181 1.341 . S
C179 C177 1.400 . S
C179 C178 1.387 . S
N180 Co171 2.022 . S
N180 C177 1.351 . S
N180 N181 1.365 . S
N181 C178 1.341 . S
N181 N180 1.365 . S
N181 H201 0.862 . S
C182 C177 1.501 . S
C182 H183 0.961 . S
C182 H184 0.961 . S
C182 H185 0.960 . S
H183 C182 0.961 . S
H184 C182 0.961 . S
H185 C182 0.960 . S
C186 N187 1.342 . S
C186 C190 1.401 . S
C186 C191 1.499 . S
N187 Co170 1.989 . S
N187 C186 1.342 . S
N187 N188 1.388 . S
N188 Co171 1.993 . S
N188 N187 1.388 . S
N188 C189 1.346 . S
C189 N188 1.346 . S
C189 C190 1.396 . S
C189 C199 1.510 . S
C190 C186 1.401 . S
C190 C189 1.396 . S
C191 C186 1.499 . S
C191 H192 0.959 1_556 S
C191 H193 0.960 . S
C191 H194 0.961 1_556 S
H192 C191 0.959 1_554 S
H193 C191 0.960 . S
H194 C191 0.961 1_554 S
O195 Co170 1.967 . S
O195 C203 1.258 . S
O196 Co171 1.941 . S
O196 C203 1.266 . S
H197 C199 0.959 . S
H198 C199 0.961 . S
C199 C189 1.510 . S
C199 H197 0.959 . S
C199 H198 0.961 . S
C199 H200 0.960 . S
H200 C199 0.960 . S
H201 N181 0.862 . S
O202 Co170 1.920 1_554 S
O202 C175 1.288 1_554 S
C203 O195 1.258 . S
C203 O196 1.266 . S
Co204 O207 1.970 . S
Co204 N221 1.989 . S
Co204 O229 1.967 . S
Co204 O236 1.920 . S
Co205 O208 1.966 . S
Co205 N214 2.022 . S
Co205 N222 1.993 . S
Co205 O230 1.941 . S
C206 O207 1.258 . S
C206 O208 1.263 . S
O207 Co204 1.970 . S
O207 C206 1.258 . S
O208 Co205 1.966 . S
O208 C206 1.263 . S
C209 O210 1.235 . S
C209 O236 1.289 . S
O210 C209 1.235 . S
C211 C213 1.400 . S
C211 N214 1.351 . S
C211 C216 1.501 . S
C212 C213 1.387 . S
C212 N215 1.341 . S
C213 C211 1.400 . S
C213 C212 1.387 . S
N214 Co205 2.022 . S
N214 C211 1.351 . S
N214 N215 1.365 . S
N215 C212 1.341 . S
N215 N214 1.365 . S
N215 H235 0.862 . S
C216 C211 1.501 . S
C216 H217 0.961 . S
C216 H218 0.961 . S
C216 H219 0.960 . S
H217 C216 0.961 . S
H218 C216 0.961 . S
H219 C216 0.960 . S
C220 N221 1.342 1_455 S
C220 C224 1.401 . S
C220 C225 1.499 . S
N221 Co204 1.989 . S
N221 C220 1.342 1_655 S
N221 N222 1.388 . S
N222 Co205 1.993 . S
N222 N221 1.388 . S
N222 C223 1.346 . S
C223 N222 1.346 . S
C223 C224 1.396 1_655 S
C223 C233 1.510 1_655 S
C224 C220 1.401 . S
C224 C223 1.396 1_455 S
C225 C220 1.499 . S
C225 H226 0.959 . S
C225 H227 0.960 . S
C225 H228 0.961 . S
H226 C225 0.959 . S
H227 C225 0.960 . S
H228 C225 0.961 . S
O229 Co204 1.967 . S
O229 C237 1.258 . S
O230 Co205 1.941 . S
O230 C237 1.266 . S
H231 C233 0.960 . S
H232 C233 0.963 . S
C233 C223 1.510 1_455 S
C233 H231 0.960 . S
C233 H232 0.963 . S
C233 H234 0.958 1_455 S
H234 C233 0.958 1_655 S
H235 N215 0.862 . S
O236 Co204 1.920 . S
O236 C209 1.289 . S
C237 O229 1.258 . S
C237 O230 1.266 . S
Co238 O241 1.970 . S
Co238 N255 1.989 . S
Co238 O263 1.967 . S
Co238 O270 1.920 . S
Co239 O242 1.966 . S
Co239 N248 2.022 . S
Co239 N256 1.993 . S
Co239 O264 1.941 . S
C240 O241 1.258 . S
C240 O242 1.263 . S
O241 Co238 1.970 . S
O241 C240 1.258 . S
O242 Co239 1.966 . S
O242 C240 1.263 . S
C243 O244 1.235 . S
C243 O270 1.289 . S
O244 C243 1.235 . S
C245 C247 1.400 . S
C245 N248 1.351 . S
C245 C250 1.501 . S
C246 C247 1.387 . S
C246 N249 1.341 . S
C247 C245 1.400 . S
C247 C246 1.387 . S
N248 Co239 2.022 . S
N248 C245 1.351 . S
N248 N249 1.365 . S
N249 C246 1.341 . S
N249 N248 1.365 . S
N249 H269 0.862 . S
C250 C245 1.501 . S
C250 H251 0.961 . S
C250 H252 0.961 . S
C250 H253 0.960 . S
H251 C250 0.961 . S
H252 C250 0.961 . S
H253 C250 0.960 . S
C254 N255 1.342 . S
C254 C258 1.401 . S
C254 C259 1.499 . S
N255 Co238 1.989 . S
N255 C254 1.342 . S
N255 N256 1.388 . S
N256 Co239 1.993 . S
N256 N255 1.388 . S
N256 C257 1.346 . S
C257 N256 1.346 . S
C257 C258 1.396 . S
C257 C267 1.510 . S
C258 C254 1.401 . S
C258 C257 1.396 . S
C259 C254 1.499 . S
C259 H260 0.959 . S
C259 H261 0.960 . S
C259 H262 0.961 . S
H260 C259 0.959 . S
H261 C259 0.960 . S
H262 C259 0.961 . S
O263 Co238 1.967 . S
O263 C271 1.258 . S
O264 Co239 1.941 . S
O264 C271 1.266 . S
H265 C267 0.959 . S
H266 C267 0.961 . S
C267 C257 1.510 . S
C267 H265 0.959 . S
C267 H266 0.961 . S
C267 H268 0.960 . S
H268 C267 0.960 . S
H269 N249 0.862 . S
O270 Co238 1.920 . S
O270 C243 1.289 . S
C271 O263 1.258 . S
C271 O264 1.266 . S
C272 C273 1.369 1_554 S
C272 C274 1.419 1_545 S
C272 H276 0.930 . S
C273 C272 1.369 1_556 S
C273 C282 1.429 1_455 S
C274 C272 1.419 1_565 S
C274 C275 1.363 1_455 S
C274 H277 0.929 . S
C275 C274 1.363 1_655 S
C275 C281 1.428 1_554 S
H276 C272 0.930 . S
H277 C274 0.929 . S
S278 N279 1.613 . S
S278 N280 1.610 1_545 S
N279 S278 1.613 . S
N279 C282 1.350 . S
N280 S278 1.610 1_565 S
N280 C281 1.351 . S
C281 C275 1.428 1_556 S
C281 N280 1.351 . S
C281 C282 1.434 1_565 S
C282 C273 1.429 1_655 S
C282 N279 1.350 . S
C282 C281 1.434 1_545 S
C283 C284 1.369 . S
C283 C285 1.419 1_545 S
C283 H287 0.930 . S
C284 C283 1.369 . S
C284 C293 1.429 1_554 S
C285 C283 1.419 1_565 S
C285 C286 1.363 1_554 S
C285 H288 0.929 . S
C286 C285 1.363 1_556 S
C286 C292 1.428 . S
H287 C283 0.930 . S
H288 C285 0.929 . S
S289 N290 1.613 . S
S289 N291 1.610 1_545 S
N290 S289 1.613 . S
N290 C293 1.350 . S
N291 S289 1.610 1_565 S
N291 C292 1.351 . S
C292 C286 1.428 . S
C292 N291 1.351 . S
C292 C293 1.434 1_565 S
C293 C284 1.429 1_556 S
C293 N290 1.350 . S
C293 C292 1.434 1_545 S
C294 C295 1.369 . S
C294 C296 1.419 . S
C294 H298 0.930 . S
C295 C294 1.369 . S
C295 C304 1.429 1_655 S
C296 C294 1.419 . S
C296 C297 1.363 1_655 S
C296 H299 0.929 . S
C297 C296 1.363 1_455 S
C297 C303 1.428 . S
H298 C294 0.930 . S
H299 C296 0.929 . S
S300 N301 1.613 . S
S300 N302 1.610 . S
N301 S300 1.613 . S
N301 C304 1.350 . S
N302 S300 1.610 . S
N302 C303 1.351 . S
C303 C297 1.428 . S
C303 N302 1.351 . S
C303 C304 1.434 . S
C304 C295 1.429 1_455 S
C304 N301 1.350 . S
C304 C303 1.434 . S
C305 C306 1.369 . S
C305 C307 1.419 . S
C305 H309 0.930 . S
C306 C305 1.369 . S
C306 C315 1.429 . S
C307 C305 1.419 . S
C307 C308 1.363 . S
C307 H310 0.929 . S
C308 C307 1.363 . S
C308 C314 1.428 . S
H309 C305 0.930 . S
H310 C307 0.929 . S
S311 N312 1.613 . S
S311 N313 1.610 . S
N312 S311 1.613 . S
N312 C315 1.350 . S
N313 S311 1.610 . S
N313 C314 1.351 . S
C314 C308 1.428 . S
C314 N313 1.351 . S
C314 C315 1.434 . S
C315 C306 1.429 . S
C315 N312 1.350 . S
C315 C314 1.434 . S
C316 C317 1.369 . S
C316 C318 1.419 1_565 S
C316 H320 0.930 . S
C317 C316 1.369 . S
C317 C326 1.429 . S
C318 C316 1.419 1_545 S
C318 C319 1.363 . S
C318 H321 0.929 . S
C319 C318 1.363 . S
C319 C325 1.428 . S
H320 C316 0.930 . S
H321 C318 0.929 . S
S322 N323 1.613 1_545 S
S322 N324 1.610 . S
N323 S322 1.613 1_565 S
N323 C326 1.350 . S
N324 S322 1.610 . S
N324 C325 1.351 . S
C325 C319 1.428 . S
C325 N324 1.351 . S
C325 C326 1.434 1_545 S
C326 C317 1.429 . S
C326 N323 1.350 . S
C326 C325 1.434 1_565 S
C327 C328 1.369 . S
C327 C329 1.419 . S
C327 H331 0.930 . S
C328 C327 1.369 . S
C328 C337 1.429 . S
C329 C327 1.419 . S
C329 C330 1.363 . S
C329 H332 0.929 . S
C330 C329 1.363 . S
C330 C336 1.428 . S
H331 C327 0.930 . S
H332 C329 0.929 . S
S333 N334 1.613 . S
S333 N335 1.610 . S
N334 S333 1.613 . S
N334 C337 1.350 . S
N335 S333 1.610 . S
N335 C336 1.351 . S
C336 C330 1.428 . S
C336 N335 1.351 . S
C336 C337 1.434 . S
C337 C328 1.429 . S
C337 N334 1.350 . S
C337 C336 1.434 . S
C338 C339 1.369 . S
C338 C340 1.419 1_565 S
C338 H342 0.930 . S
C339 C338 1.369 . S
C339 C348 1.429 . S
C340 C338 1.419 1_545 S
C340 C341 1.363 . S
C340 H343 0.929 . S
C341 C340 1.363 . S
C341 C347 1.428 . S
H342 C338 0.930 . S
H343 C340 0.929 . S
S344 N345 1.613 . S
S344 N346 1.610 1_565 S
N345 S344 1.613 . S
N345 C348 1.350 . S
N346 S344 1.610 1_545 S
N346 C347 1.351 . S
C347 C341 1.428 . S
C347 N346 1.351 . S
C347 C348 1.434 1_545 S
C348 C339 1.429 . S
C348 N345 1.350 . S
C348 C347 1.434 1_565 S
C349 C350 1.369 . S
C349 C351 1.419 . S
C349 H353 0.930 . S
C350 C349 1.369 . S
C350 C359 1.429 . S
C351 C349 1.419 . S
C351 C352 1.363 . S
C351 H354 0.929 . S
C352 C351 1.363 . S
C352 C358 1.428 . S
H353 C349 0.930 . S
H354 C351 0.929 . S
S355 N356 1.613 . S
S355 N357 1.610 . S
N356 S355 1.613 . S
N356 C359 1.350 . S
N357 S355 1.610 . S
N357 C358 1.351 . S
C358 C352 1.428 . S
C358 N357 1.351 . S
C358 C359 1.434 . S
C359 C350 1.429 . S
C359 N356 1.350 . S
C359 C358 1.434 . S
C360 C361 1.369 1_556 S
C360 C362 1.419 . S
C360 H364 0.930 . S
C361 C360 1.369 1_554 S
C361 C370 1.429 . S
C362 C360 1.419 . S
C362 C363 1.363 . S
C362 H365 0.929 . S
C363 C362 1.363 . S
C363 C369 1.428 . S
H364 C360 0.930 . S
H365 C362 0.929 . S
S366 N367 1.613 . S
S366 N368 1.610 . S
N367 S366 1.613 . S
N367 C370 1.350 . S
N368 S366 1.610 . S
N368 C369 1.351 1_554 S
C369 C363 1.428 . S
C369 N368 1.351 1_556 S
C369 C370 1.434 1_556 S
C370 C361 1.429 . S
C370 N367 1.350 . S
C370 C369 1.434 1_554 S
C371 C372 1.369 . S
C371 C373 1.419 . S
C371 H375 0.930 . S
C372 C371 1.369 . S
C372 C381 1.429 . S
C373 C371 1.419 . S
C373 C374 1.363 1_556 S
C373 H376 0.929 . S
C374 C373 1.363 1_554 S
C374 C380 1.428 . S
H375 C371 0.930 . S
H376 C373 0.929 . S
S377 N378 1.613 1_554 S
S377 N379 1.610 . S
N378 S377 1.613 1_556 S
N378 C381 1.350 . S
N379 S377 1.610 . S
N379 C380 1.351 . S
C380 C374 1.428 . S
C380 N379 1.351 . S
C380 C381 1.434 1_554 S
C381 C372 1.429 . S
C381 N378 1.350 . S
C381 C380 1.434 1_556 S
C382 C383 1.369 . S
C382 C384 1.419 . S
C382 H386 0.930 . S
C383 C382 1.369 . S
C383 C392 1.429 . S
C384 C382 1.419 . S
C384 C385 1.363 . S
C384 H387 0.929 . S
C385 C384 1.363 . S
C385 C391 1.428 . S
H386 C382 0.930 . S
H387 C384 0.929 . S
S388 N389 1.613 . S
S388 N390 1.610 . S
N389 S388 1.613 . S
N389 C392 1.350 . S
N390 S388 1.610 . S
N390 C391 1.351 . S
C391 C385 1.428 . S
C391 N390 1.351 . S
C391 C392 1.434 . S
C392 C383 1.429 . S
C392 N389 1.350 . S
C392 C391 1.434 . S
C393 C394 1.369 . S
C393 C395 1.419 . S
C393 H397 0.930 . S
C394 C393 1.369 . S
C394 C403 1.429 . S
C395 C393 1.419 . S
C395 C396 1.363 . S
C395 H398 0.929 . S
C396 C395 1.363 . S
C396 C402 1.428 . S
H397 C393 0.930 . S
H398 C395 0.929 . S
S399 N400 1.613 . S
S399 N401 1.610 . S
N400 S399 1.613 . S
N400 C403 1.350 . S
N401 S399 1.610 . S
N401 C402 1.351 . S
C402 C396 1.428 . S
C402 N401 1.351 . S
C402 C403 1.434 . S
C403 C394 1.429 . S
C403 N400 1.350 . S
C403 C402 1.434 . S
C404 C405 1.369 . S
C404 C406 1.417 1_554 S
C404 H408 0.930 . S
C405 C404 1.369 . S
C405 C414 1.429 . S
C406 C404 1.417 1_556 S
C406 C407 1.364 . S
C406 H409 0.930 . S
C407 C406 1.364 . S
C407 C413 1.428 1_556 S
H408 C404 0.930 . S
H409 C406 0.930 . S
S410 N411 1.613 . S
S410 N412 1.610 . S
N411 S410 1.613 . S
N411 C414 1.350 . S
N412 S410 1.610 . S
N412 C413 1.351 . S
C413 C407 1.428 1_554 S
C413 N412 1.351 . S
C413 C414 1.434 . S
C414 C405 1.429 . S
C414 N411 1.350 . S
C414 C413 1.434 . S
C415 C416 1.369 . S
C415 C417 1.419 1_556 S
C415 H419 0.930 . S
C416 C415 1.369 . S
C416 C425 1.429 1_556 S
C417 C415 1.419 1_554 S
C417 C418 1.363 . S
C417 H420 0.929 . S
C418 C417 1.363 . S
C418 C424 1.428 . S
H419 C415 0.930 . S
H420 C417 0.929 . S
S421 N422 1.613 . S
S421 N423 1.610 . S
N422 S421 1.613 . S
N422 C425 1.350 . S
N423 S421 1.610 . S
N423 C424 1.351 . S
C424 C418 1.428 . S
C424 N423 1.351 . S
C424 C425 1.434 . S
C425 C416 1.429 1_554 S
C425 N422 1.350 . S
C425 C424 1.434 . S
C426 C427 1.369 . S
C426 C428 1.419 . S
C426 H430 0.930 . S
C427 C426 1.369 . S
C427 C436 1.429 . S
C428 C426 1.419 . S
C428 C429 1.363 . S
C428 H431 0.929 . S
C429 C428 1.363 . S
C429 C435 1.428 . S
H430 C426 0.930 . S
H431 C428 0.929 . S
S432 N433 1.613 . S
S432 N434 1.610 . S
N433 S432 1.613 . S
N433 C436 1.350 . S
N434 S432 1.610 . S
N434 C435 1.351 . S
C435 C429 1.428 . S
C435 N434 1.351 . S
C435 C436 1.434 . S
C436 C427 1.429 . S
C436 N433 1.350 . S
C436 C435 1.434 . S
C437 C438 1.369 . S
C437 C439 1.419 . S
C437 H441 0.930 . S
C438 C437 1.369 . S
C438 C447 1.429 . S
C439 C437 1.419 . S
C439 C440 1.363 . S
C439 H442 0.929 . S
C440 C439 1.363 . S
C440 C446 1.428 . S
H441 C437 0.930 . S
H442 C439 0.929 . S
S443 N444 1.613 . S
S443 N445 1.610 . S
N444 S443 1.613 . S
N444 C447 1.350 . S
N445 S443 1.610 . S
N445 C446 1.351 . S
C446 C440 1.428 . S
C446 N445 1.351 . S
C446 C447 1.434 . S
C447 C438 1.429 . S
C447 N444 1.350 . S
C447 C446 1.434 . S
C448 C449 1.369 . S
C448 C450 1.419 . S
C448 H452 0.930 . S
C449 C448 1.369 . S
C449 C458 1.429 . S
C450 C448 1.419 . S
C450 C451 1.363 . S
C450 H453 0.929 . S
C451 C450 1.363 . S
C451 C457 1.428 . S
H452 C448 0.930 . S
H453 C450 0.929 . S
S454 N455 1.613 1_655 S
S454 N456 1.610 1_655 S
N455 S454 1.613 1_455 S
N455 C458 1.350 . S
N456 S454 1.610 1_455 S
N456 C457 1.351 . S
C457 C451 1.428 . S
C457 N456 1.351 . S
C457 C458 1.434 . S
C458 C449 1.429 . S
C458 N455 1.350 . S
C458 C457 1.434 . S
C459 C460 1.369 . S
C459 C461 1.419 . S
C459 H463 0.930 . S
C460 C459 1.369 . S
C460 C469 1.429 . S
C461 C459 1.419 . S
C461 C462 1.363 . S
C461 H464 0.929 . S
C462 C461 1.363 . S
C462 C468 1.428 . S
H463 C459 0.930 . S
H464 C461 0.929 . S
S465 N466 1.613 . S
S465 N467 1.610 . S
N466 S465 1.613 . S
N466 C469 1.350 . S
N467 S465 1.610 . S
N467 C468 1.351 . S
C468 C462 1.428 . S
C468 N467 1.351 . S
C468 C469 1.434 . S
C469 C460 1.429 . S
C469 N466 1.350 . S
C469 C468 1.434 . S
C470 C471 1.369 . S
C470 C472 1.419 . S
C470 H474 0.930 . S
C471 C470 1.369 . S
C471 C480 1.429 . S
C472 C470 1.419 . S
C472 C473 1.363 . S
C472 H475 0.929 . S
C473 C472 1.363 . S
C473 C479 1.428 . S
H474 C470 0.930 . S
H475 C472 0.929 . S
S476 N477 1.613 . S
S476 N478 1.610 . S
N477 S476 1.613 . S
N477 C480 1.350 . S
N478 S476 1.610 . S
N478 C479 1.351 . S
C479 C473 1.428 . S
C479 N478 1.351 . S
C479 C480 1.434 . S
C480 C471 1.429 . S
C480 N477 1.350 . S
C480 C479 1.434 . S
C481 C482 1.369 . S
C481 C483 1.419 . S
C481 H485 0.930 . S
C482 C481 1.369 . S
C482 C491 1.429 . S
C483 C481 1.419 . S
C483 C484 1.363 . S
C483 H486 0.929 . S
C484 C483 1.363 . S
C484 C490 1.428 . S
H485 C481 0.930 . S
H486 C483 0.929 . S
S487 N488 1.613 . S
S487 N489 1.610 . S
N488 S487 1.613 . S
N488 C491 1.350 . S
N489 S487 1.610 . S
N489 C490 1.351 . S
C490 C484 1.428 . S
C490 N489 1.351 . S
C490 C491 1.434 . S
C491 C482 1.429 . S
C491 N488 1.350 . S
C491 C490 1.434 . S
C273 C5 0.839 1_556 S
C275 C141 0.830 1_554 S
C284 C175 0.819 1_554 S
C286 C39 0.846 1_556 S
C295 C209 0.843 . S
C297 C73 0.834 . S
C306 C107 0.838 . S
C308 C243 0.839 . S
C317 C36 2.006 . S
C319 C2 2.008 . S
C328 C70 2.004 . S
C330 C104 2.004 . S
C339 C138 2.009 . S
C341 C172 2.006 . S
C350 C240 2.010 . S
C352 C206 2.008 . S
C361 C33 1.647 . S
C363 C190 1.523 . S
C372 C156 1.517 . S
C374 C67 1.646 . S
C383 C258 1.519 . S
C385 C101 1.646 . S
C394 C224 1.519 . S
C396 C135 1.647 . S
C405 C54 1.517 . S
C407 C169 1.646 . S
C416 C203 1.647 . S
C418 C20 1.523 . S
C427 C237 1.648 . S
C429 C122 1.528 . S
C438 C88 1.519 . S
C440 C271 1.646 . S
C449 C77 1.399 . S
C451 C9 1.401 . S
C460 C43 1.402 . S
C462 C111 1.397 . S
C471 C213 1.396 . S
C473 C145 1.401 . S
C482 C247 1.402 . S
C484 C179 1.399 . S
