# Generated by pormake.
# Topology yft, (5)-cn, num edge types: 1
# Building blocks:
#     Node 0, Type 0, BuildingBlock: BEQFEK_clean_sbu_0, # of connection points: 5
#     Node 1, Type 0, BuildingBlock: BEQFEK_clean_sbu_0, # of connection points: 5
#     Node 2, Type 0, BuildingBlock: BEQFEK_clean_sbu_0, # of connection points: 5
#     Node 3, Type 0, BuildingBlock: BEQFEK_clean_sbu_0, # of connection points: 5
#     Node 4, Type 0, BuildingBlock: BEQFEK_clean_sbu_0, # of connection points: 5
#     Node 5, Type 0, BuildingBlock: BEQFEK_clean_sbu_0, # of connection points: 5
#     Node 6, Type 0, BuildingBlock: BEQFEK_clean_sbu_0, # of connection points: 5
#     Node 7, Type 0, BuildingBlock: BEQFEK_clean_sbu_0, # of connection points: 5
#     Node 8, Type 0, BuildingBlock: BEQFEK_clean_sbu_0, # of connection points: 5
#     Node 9, Type 0, BuildingBlock: BEQFEK_clean_sbu_0, # of connection points: 5
#     Node 10, Type 0, BuildingBlock: BEQFEK_clean_sbu_0, # of connection points: 5
#     Node 11, Type 0, BuildingBlock: BEQFEK_clean_sbu_0, # of connection points: 5
#     Node 12, Type 0, BuildingBlock: BEQFEK_clean_sbu_0, # of connection points: 5
#     Node 13, Type 0, BuildingBlock: BEQFEK_clean_sbu_0, # of connection points: 5
#     Node 14, Type 0, BuildingBlock: BEQFEK_clean_sbu_0, # of connection points: 5
#     Node 15, Type 0, BuildingBlock: BEQFEK_clean_sbu_0, # of connection points: 5
#     Node 16, Type 0, BuildingBlock: BEQFEK_clean_sbu_0, # of connection points: 5
#     Node 17, Type 0, BuildingBlock: BEQFEK_clean_sbu_0, # of connection points: 5
#     Node 18, Type 0, BuildingBlock: BEQFEK_clean_sbu_0, # of connection points: 5
#     Node 19, Type 0, BuildingBlock: BEQFEK_clean_sbu_0, # of connection points: 5
#     Node 20, Type 0, BuildingBlock: BEQFEK_clean_sbu_0, # of connection points: 5
#     Node 21, Type 0, BuildingBlock: BEQFEK_clean_sbu_0, # of connection points: 5
#     Node 22, Type 0, BuildingBlock: BEQFEK_clean_sbu_0, # of connection points: 5
#     Node 23, Type 0, BuildingBlock: BEQFEK_clean_sbu_0, # of connection points: 5
#     Node 24, Type 0, BuildingBlock: BEQFEK_clean_sbu_0, # of connection points: 5
#     Node 25, Type 0, BuildingBlock: BEQFEK_clean_sbu_0, # of connection points: 5
#     Node 26, Type 0, BuildingBlock: BEQFEK_clean_sbu_0, # of connection points: 5
#     Node 27, Type 0, BuildingBlock: BEQFEK_clean_sbu_0, # of connection points: 5
#     Node 28, Type 0, BuildingBlock: BEQFEK_clean_sbu_0, # of connection points: 5
#     Node 29, Type 0, BuildingBlock: BEQFEK_clean_sbu_0, # of connection points: 5
#     Node 30, Type 0, BuildingBlock: BEQFEK_clean_sbu_0, # of connection points: 5
#     Node 31, Type 0, BuildingBlock: BEQFEK_clean_sbu_0, # of connection points: 5
#     Edge 32, Type (0, 0), BuildingBlock: EZIPEK_clean_linker_0, # of connection points: 2
#     Edge 33, Type (0, 0), BuildingBlock: EZIPEK_clean_linker_0, # of connection points: 2
#     Edge 34, Type (0, 0), BuildingBlock: EZIPEK_clean_linker_0, # of connection points: 2
#     Edge 35, Type (0, 0), BuildingBlock: EZIPEK_clean_linker_0, # of connection points: 2
#     Edge 36, Type (0, 0), BuildingBlock: EZIPEK_clean_linker_0, # of connection points: 2
#     Edge 37, Type (0, 0), BuildingBlock: EZIPEK_clean_linker_0, # of connection points: 2
#     Edge 38, Type (0, 0), BuildingBlock: EZIPEK_clean_linker_0, # of connection points: 2
#     Edge 39, Type (0, 0), BuildingBlock: EZIPEK_clean_linker_0, # of connection points: 2
#     Edge 40, Type (0, 0), BuildingBlock: EZIPEK_clean_linker_0, # of connection points: 2
#     Edge 41, Type (0, 0), BuildingBlock: EZIPEK_clean_linker_0, # of connection points: 2
#     Edge 42, Type (0, 0), BuildingBlock: EZIPEK_clean_linker_0, # of connection points: 2
#     Edge 43, Type (0, 0), BuildingBlock: EZIPEK_clean_linker_0, # of connection points: 2
#     Edge 44, Type (0, 0), BuildingBlock: EZIPEK_clean_linker_0, # of connection points: 2
#     Edge 45, Type (0, 0), BuildingBlock: EZIPEK_clean_linker_0, # of connection points: 2
#     Edge 46, Type (0, 0), BuildingBlock: EZIPEK_clean_linker_0, # of connection points: 2
#     Edge 47, Type (0, 0), BuildingBlock: EZIPEK_clean_linker_0, # of connection points: 2
#     Edge 48, Type (0, 0), BuildingBlock: EZIPEK_clean_linker_0, # of connection points: 2
#     Edge 49, Type (0, 0), BuildingBlock: EZIPEK_clean_linker_0, # of connection points: 2
#     Edge 50, Type (0, 0), BuildingBlock: EZIPEK_clean_linker_0, # of connection points: 2
#     Edge 51, Type (0, 0), BuildingBlock: EZIPEK_clean_linker_0, # of connection points: 2
#     Edge 52, Type (0, 0), BuildingBlock: EZIPEK_clean_linker_0, # of connection points: 2
#     Edge 53, Type (0, 0), BuildingBlock: EZIPEK_clean_linker_0, # of connection points: 2
#     Edge 54, Type (0, 0), BuildingBlock: EZIPEK_clean_linker_0, # of connection points: 2
#     Edge 55, Type (0, 0), BuildingBlock: EZIPEK_clean_linker_0, # of connection points: 2
#     Edge 56, Type (0, 0), BuildingBlock: EZIPEK_clean_linker_0, # of connection points: 2
#     Edge 57, Type (0, 0), BuildingBlock: EZIPEK_clean_linker_0, # of connection points: 2
#     Edge 58, Type (0, 0), BuildingBlock: EZIPEK_clean_linker_0, # of connection points: 2
#     Edge 59, Type (0, 0), BuildingBlock: EZIPEK_clean_linker_0, # of connection points: 2
#     Edge 60, Type (0, 0), BuildingBlock: EZIPEK_clean_linker_0, # of connection points: 2
#     Edge 61, Type (0, 0), BuildingBlock: EZIPEK_clean_linker_0, # of connection points: 2
#     Edge 62, Type (0, 0), BuildingBlock: EZIPEK_clean_linker_0, # of connection points: 2
#     Edge 63, Type (0, 0), BuildingBlock: EZIPEK_clean_linker_0, # of connection points: 2
#     Edge 64, Type (0, 0), BuildingBlock: EZIPEK_clean_linker_0, # of connection points: 2
#     Edge 65, Type (0, 0), BuildingBlock: EZIPEK_clean_linker_0, # of connection points: 2
#     Edge 66, Type (0, 0), BuildingBlock: EZIPEK_clean_linker_0, # of connection points: 2
#     Edge 67, Type (0, 0), BuildingBlock: EZIPEK_clean_linker_0, # of connection points: 2
#     Edge 68, Type (0, 0), BuildingBlock: EZIPEK_clean_linker_0, # of connection points: 2
#     Edge 69, Type (0, 0), BuildingBlock: EZIPEK_clean_linker_0, # of connection points: 2
#     Edge 70, Type (0, 0), BuildingBlock: EZIPEK_clean_linker_0, # of connection points: 2
#     Edge 71, Type (0, 0), BuildingBlock: EZIPEK_clean_linker_0, # of connection points: 2
#     Edge 72, Type (0, 0), BuildingBlock: EZIPEK_clean_linker_0, # of connection points: 2
#     Edge 73, Type (0, 0), BuildingBlock: EZIPEK_clean_linker_0, # of connection points: 2
#     Edge 74, Type (0, 0), BuildingBlock: EZIPEK_clean_linker_0, # of connection points: 2
#     Edge 75, Type (0, 0), BuildingBlock: EZIPEK_clean_linker_0, # of connection points: 2
#     Edge 76, Type (0, 0), BuildingBlock: EZIPEK_clean_linker_0, # of connection points: 2
#     Edge 77, Type (0, 0), BuildingBlock: EZIPEK_clean_linker_0, # of connection points: 2
#     Edge 78, Type (0, 0), BuildingBlock: EZIPEK_clean_linker_0, # of connection points: 2
#     Edge 79, Type (0, 0), BuildingBlock: EZIPEK_clean_linker_0, # of connection points: 2
#     Edge 80, Type (0, 0), BuildingBlock: EZIPEK_clean_linker_0, # of connection points: 2
#     Edge 81, Type (0, 0), BuildingBlock: EZIPEK_clean_linker_0, # of connection points: 2
#     Edge 82, Type (0, 0), BuildingBlock: EZIPEK_clean_linker_0, # of connection points: 2
#     Edge 83, Type (0, 0), BuildingBlock: EZIPEK_clean_linker_0, # of connection points: 2
#     Edge 84, Type (0, 0), BuildingBlock: EZIPEK_clean_linker_0, # of connection points: 2
#     Edge 85, Type (0, 0), BuildingBlock: EZIPEK_clean_linker_0, # of connection points: 2
#     Edge 86, Type (0, 0), BuildingBlock: EZIPEK_clean_linker_0, # of connection points: 2
#     Edge 87, Type (0, 0), BuildingBlock: EZIPEK_clean_linker_0, # of connection points: 2
#     Edge 88, Type (0, 0), BuildingBlock: EZIPEK_clean_linker_0, # of connection points: 2
#     Edge 89, Type (0, 0), BuildingBlock: EZIPEK_clean_linker_0, # of connection points: 2
#     Edge 90, Type (0, 0), BuildingBlock: EZIPEK_clean_linker_0, # of connection points: 2
#     Edge 91, Type (0, 0), BuildingBlock: EZIPEK_clean_linker_0, # of connection points: 2
#     Edge 92, Type (0, 0), BuildingBlock: EZIPEK_clean_linker_0, # of connection points: 2
#     Edge 93, Type (0, 0), BuildingBlock: EZIPEK_clean_linker_0, # of connection points: 2
#     Edge 94, Type (0, 0), BuildingBlock: EZIPEK_clean_linker_0, # of connection points: 2
#     Edge 95, Type (0, 0), BuildingBlock: EZIPEK_clean_linker_0, # of connection points: 2
#     Edge 96, Type (0, 0), BuildingBlock: EZIPEK_clean_linker_0, # of connection points: 2
#     Edge 97, Type (0, 0), BuildingBlock: EZIPEK_clean_linker_0, # of connection points: 2
#     Edge 98, Type (0, 0), BuildingBlock: EZIPEK_clean_linker_0, # of connection points: 2
#     Edge 99, Type (0, 0), BuildingBlock: EZIPEK_clean_linker_0, # of connection points: 2
#     Edge 100, Type (0, 0), BuildingBlock: EZIPEK_clean_linker_0, # of connection points: 2
#     Edge 101, Type (0, 0), BuildingBlock: EZIPEK_clean_linker_0, # of connection points: 2
#     Edge 102, Type (0, 0), BuildingBlock: EZIPEK_clean_linker_0, # of connection points: 2
#     Edge 103, Type (0, 0), BuildingBlock: EZIPEK_clean_linker_0, # of connection points: 2
#     Edge 104, Type (0, 0), BuildingBlock: EZIPEK_clean_linker_0, # of connection points: 2
#     Edge 105, Type (0, 0), BuildingBlock: EZIPEK_clean_linker_0, # of connection points: 2
#     Edge 106, Type (0, 0), BuildingBlock: EZIPEK_clean_linker_0, # of connection points: 2
#     Edge 107, Type (0, 0), BuildingBlock: EZIPEK_clean_linker_0, # of connection points: 2
#     Edge 108, Type (0, 0), BuildingBlock: EZIPEK_clean_linker_0, # of connection points: 2
#     Edge 109, Type (0, 0), BuildingBlock: EZIPEK_clean_linker_0, # of connection points: 2
#     Edge 110, Type (0, 0), BuildingBlock: EZIPEK_clean_linker_0, # of connection points: 2
#     Edge 111, Type (0, 0), BuildingBlock: EZIPEK_clean_linker_0, # of connection points: 2
# Relax obj value: 0.359
# Max RMSD: 0.226
# Mean RMSD: 0.226
data_MOF--net-yft--node1-BEQFEK_clean_sbu_0--edge1-EZIPEK_clean_linker_0
_symmetry_space_group_name_H-M    P1
_symmetry_Int_Tables_number       1
_symmetry_cell_setting            triclinic
loop_
_symmetry_equiv_pos_as_xyz
'x, y, z'
_cell_length_a     38.327377
_cell_length_b     38.318393
_cell_length_c     58.753354
_cell_angle_alpha  89.990779
_cell_angle_beta   89.999607
_cell_angle_gamma 90.029239
loop_
_atom_site_label
_atom_site_type_symbol
_atom_site_fract_x
_atom_site_fract_y
_atom_site_fract_z
_atom_type_partial_charge
Co0 Co 0.37329 0.20574 0.19237 0.0
Co1 Co 0.31529 0.17869 0.15944 0.0
C2 C 0.38779 0.14597 0.16428 0.0
O3 O 0.39412 0.16201 0.18266 0.0
O4 O 0.35905 0.1504 0.15365 0.0
C5 C 0.43309 0.21695 0.22137 0.0
O6 O 0.43821 0.18343 0.21806 0.0
C7 C 0.26436 0.12428 0.14666 0.0
C8 C 0.2281 0.15406 0.1248 0.0
C9 C 0.23385 0.12135 0.13408 0.0
N10 N 0.27596 0.15733 0.14503 0.0
N11 N 0.25419 0.17492 0.13188 0.0
C12 C 0.28263 0.09609 0.15956 0.0
H13 H 0.30217 0.10745 0.17139 0.0
H14 H 0.26362 0.07996 0.16915 0.0
H15 H 0.29614 0.07871 0.14729 0.0
C16 C 0.31631 0.21183 0.22368 0.0
N17 N 0.3298 0.19804 0.20467 0.0
N18 N 0.30458 0.18857 0.19076 0.0
C19 C 0.27385 0.19707 0.20047 0.0
C20 C 0.28048 0.21237 0.22146 0.0
C21 C 0.33733 0.23114 0.24106 0.0
H22 H 0.34575 0.25652 0.2338 0.0
H23 H 0.36094 0.21585 0.24547 0.0
H24 H 0.32185 0.23611 0.25669 0.0
O25 O 0.36802 0.23837 0.16647 0.0
O26 O 0.32419 0.2232 0.14382 0.0
H27 H 0.24208 0.21447 0.17284 0.0
H28 H 0.2183 0.207 0.19905 0.0
C29 C 0.23981 0.19744 0.18805 0.0
H30 H 0.23362 0.17069 0.18216 0.0
H31 H 0.25695 0.20133 0.12792 0.0
O32 O 0.40596 0.23066 0.21281 0.0
C33 C 0.34863 0.24403 0.14924 0.0
Co34 Co 0.04867 0.12953 0.43012 0.0
Co35 Co 0.07674 0.06534 0.40281 0.0
C36 C 0.11047 0.13542 0.3995 0.0
O37 O 0.08801 0.14826 0.41298 0.0
O38 O 0.11096 0.10292 0.395 0.0
C39 C 0.04723 0.18832 0.46126 0.0
O40 O 0.07979 0.18097 0.4663 0.0
C41 C 0.1273 0.01087 0.39147 0.0
C42 C 0.0945 0.97172 0.37398 0.0
C43 C 0.12835 0.97858 0.3809 0.0
N44 N 0.09426 0.02251 0.39099 0.0
N45 N 0.07477 0.99904 0.38047 0.0
C46 C 0.15715 0.03085 0.40139 0.0
H47 H 0.1484 0.04516 0.4168 0.0
H48 H 0.17929 0.01339 0.40563 0.0
H49 H 0.16619 0.05037 0.38874 0.0
C50 C 0.04618 0.0795 0.46665 0.0
N51 N 0.05906 0.08918 0.44637 0.0
N52 N 0.06878 0.06134 0.43487 0.0
C53 C 0.06219 0.03286 0.44763 0.0
C54 C 0.0471 0.04351 0.46795 0.0
C55 C 0.02607 0.10332 0.48195 0.0
H56 H 0.00346 0.11422 0.47255 0.0
H57 H 0.04314 0.12523 0.48719 0.0
H58 H 0.01661 0.08961 0.49741 0.0
O59 O 0.01198 0.11863 0.40844 0.0
O60 O 0.0319 0.07573 0.38659 0.0
H61 H 0.04418 0.99413 0.42426 0.0
H62 H 0.05562 0.97714 0.45202 0.0
C63 C 0.06277 0.99635 0.43866 0.0
H64 H 0.08925 0.99028 0.43227 0.0
H65 H 0.048 0.00168 0.37773 0.0
O66 O 0.0299 0.16819 0.44838 0.0
C67 C 0.00839 0.09787 0.39175 0.0
Co68 Co 0.11835 0.78348 0.67904 0.0
Co69 Co 0.17997 0.81823 0.65166 0.0
C70 C 0.1066 0.84498 0.64945 0.0
O71 O 0.09726 0.82385 0.6649 0.0
O72 O 0.13797 0.84607 0.6423 0.0
C73 C 0.06529 0.78213 0.71312 0.0
O74 O 0.07779 0.81306 0.71828 0.0
C75 C 0.23025 0.87362 0.63941 0.0
C76 C 0.27338 0.84277 0.62465 0.0
C77 C 0.26344 0.87649 0.63009 0.0
N78 N 0.22124 0.83969 0.63974 0.0
N79 N 0.24705 0.82146 0.63072 0.0
C80 C 0.20711 0.90245 0.6475 0.0
H81 H 0.18717 0.90774 0.63425 0.0
H82 H 0.19324 0.89421 0.6632 0.0
H83 H 0.22206 0.92677 0.65064 0.0
C84 C 0.17 0.78325 0.71491 0.0
N85 N 0.15858 0.79579 0.69493 0.0
N86 N 0.18473 0.81015 0.68376 0.0
C87 C 0.21385 0.80683 0.69649 0.0
C88 C 0.20542 0.78933 0.71641 0.0
C89 C 0.1494 0.75889 0.72958 0.0
H90 H 0.13776 0.73813 0.71883 0.0
H91 H 0.1281 0.77369 0.73788 0.0
H92 H 0.16558 0.74676 0.74309 0.0
O93 O 0.12991 0.74912 0.65495 0.0
O94 O 0.17505 0.77245 0.63644 0.0
H95 H 0.25571 0.79427 0.67398 0.0
H96 H 0.26965 0.80978 0.70155 0.0
C97 C 0.24999 0.81305 0.68784 0.0
H98 H 0.25188 0.83984 0.68093 0.0
H99 H 0.24686 0.79436 0.62897 0.0
O100 O 0.08068 0.76363 0.69825 0.0
C101 C 0.15297 0.74799 0.63933 0.0
Co102 Co 0.44721 0.86842 0.93723 0.0
Co103 Co 0.42028 0.92818 0.90541 0.0
C104 C 0.39041 0.8566 0.9032 0.0
O105 O 0.41222 0.8456 0.91783 0.0
O106 O 0.38833 0.88882 0.89811 0.0
C107 C 0.45198 0.80567 0.96469 0.0
O108 O 0.42084 0.79903 0.9564 0.0
C109 C 0.36884 0.98023 0.89079 0.0
C110 C 0.40151 0.01933 0.87319 0.0
C111 C 0.36748 0.01219 0.87969 0.0
N112 N 0.40216 0.96923 0.89108 0.0
N113 N 0.42152 0.99261 0.88038 0.0
C114 C 0.33918 0.96026 0.90099 0.0
H115 H 0.33434 0.93659 0.89058 0.0
H116 H 0.3464 0.95149 0.91837 0.0
H117 H 0.31494 0.97604 0.90158 0.0
C118 C 0.44177 0.92136 0.9714 0.0
N119 N 0.43177 0.9094 0.95093 0.0
N120 N 0.4246 0.93591 0.93745 0.0
C121 C 0.4307 0.96576 0.9489 0.0
C122 C 0.44232 0.95741 0.97061 0.0
C123 C 0.45917 0.89923 0.98904 0.0
H124 H 0.48583 0.89244 0.98316 0.0
H125 H 0.44416 0.87477 0.9915 0.0
H126 H 0.46119 0.91328 0.00551 0.0
O127 O 0.48699 0.88083 0.91827 0.0
O128 O 0.46698 0.91683 0.89175 0.0
H129 H 0.45342 -0.0003 0.92414 0.0
H130 H 0.44069 0.02137 0.95024 0.0
C131 C 0.43348 0.00078 0.93781 0.0
H132 H 0.40815 0.00758 0.92996 0.0
H133 H 0.44847 0.99057 0.87827 0.0
O134 O 0.46655 0.83411 0.95901 0.0
C135 C 0.49135 0.89798 0.89998 0.0
Co136 Co 0.38404 0.79312 0.31545 0.0
Co137 Co 0.31996 0.82161 0.34249 0.0
C138 C 0.39182 0.85178 0.34745 0.0
O139 O 0.40273 0.83301 0.3312 0.0
O140 O 0.36022 0.85034 0.35412 0.0
C141 C 0.44014 0.7969 0.28377 0.0
O142 O 0.42899 0.82883 0.28012 0.0
C143 C 0.26663 0.87354 0.35456 0.0
C144 C 0.22555 0.84035 0.36973 0.0
C145 C 0.23364 0.87453 0.3642 0.0
N146 N 0.27746 0.84019 0.3542 0.0
N147 N 0.25284 0.82052 0.36337 0.0
C148 C 0.28792 0.90365 0.34627 0.0
H149 H 0.30385 0.91374 0.3606 0.0
H150 H 0.3059 0.89501 0.33256 0.0
H151 H 0.27096 0.92511 0.34009 0.0
C152 C 0.33519 0.7928 0.27846 0.0
N153 N 0.34462 0.80478 0.299 0.0
N154 N 0.31703 0.81624 0.31004 0.0
C155 C 0.2888 0.81143 0.29668 0.0
C156 C 0.29947 0.79588 0.27648 0.0
C157 C 0.35849 0.77145 0.26349 0.0
H158 H 0.37017 0.74985 0.27349 0.0
H159 H 0.37981 0.78828 0.25707 0.0
H160 H 0.34431 0.76048 0.24865 0.0
O161 O 0.37331 0.75602 0.33798 0.0
O162 O 0.32598 0.7749 0.3562 0.0
H163 H 0.24805 0.79384 0.31866 0.0
H164 H 0.23309 0.80858 0.29109 0.0
C165 C 0.25202 0.81347 0.30503 0.0
H166 H 0.24724 0.83968 0.31227 0.0
H167 H 0.25458 0.79348 0.36516 0.0
O168 O 0.42291 0.77661 0.29661 0.0
C169 C 0.34959 0.75207 0.35296 0.0
Co170 Co 0.43744 0.13311 0.55821 0.0
Co171 Co 0.41519 0.07183 0.59057 0.0
C172 C 0.37519 0.14011 0.5876 0.0
O173 O 0.39536 0.15191 0.57225 0.0
O174 O 0.38064 0.11011 0.59627 0.0
C175 C 0.4647 0.19604 0.54592 0.0
O176 O 0.45718 0.20061 0.56751 0.0
C177 C 0.3658 0.01642 0.60302 0.0
C178 C 0.39789 0.98215 0.62482 0.0
C179 C 0.36489 0.98571 0.61549 0.0
N180 N 0.39793 0.03031 0.60476 0.0
N181 N 0.41696 0.00972 0.61788 0.0
C182 C 0.33647 0.03263 0.59 0.0
H183 H 0.34619 0.054 0.57894 0.0
H184 H 0.32295 0.01273 0.57952 0.0
H185 H 0.31711 0.04328 0.6022 0.0
C186 C 0.44321 0.07758 0.52565 0.0
N187 N 0.42993 0.08954 0.54528 0.0
N188 N 0.42323 0.06318 0.55898 0.0
C189 C 0.43292 0.03342 0.54854 0.0
C190 C 0.44629 0.04175 0.52726 0.0
C191 C 0.46046 0.10031 0.50826 0.0
H192 H 0.48534 0.11047 0.51532 0.0
H193 H 0.44332 0.12278 0.50421 0.0
H194 H 0.46614 0.08556 0.49243 0.0
O195 O 0.47421 0.12813 0.58132 0.0
O196 O 0.46018 0.08531 0.60515 0.0
H197 H 0.45465 0.00272 0.5754 0.0
H198 H 0.44792 0.97891 0.54911 0.0
C199 C 0.4371 0.99927 0.56054 0.0
H200 H 0.41138 0.99053 0.56692 0.0
H201 H 0.44306 0.01436 0.62194 0.0
O202 O 0.45668 0.1674 0.53643 0.0
C203 C 0.48096 0.10925 0.59857 0.0
Co204 Co 0.1199 0.20173 0.80987 0.0
Co205 Co 0.18033 0.17553 0.84041 0.0
C206 C 0.10721 0.14365 0.83868 0.0
O207 O 0.10098 0.1574 0.81955 0.0
O208 O 0.13616 0.14899 0.84887 0.0
C209 C 0.06441 0.20538 0.77798 0.0
O210 O 0.07466 0.17401 0.77194 0.0
C211 C 0.23109 0.12048 0.8526 0.0
C212 C 0.27023 0.15081 0.8719 0.0
C213 C 0.26278 0.11766 0.86391 0.0
N214 N 0.22049 0.15391 0.85368 0.0
N215 N 0.24397 0.17182 0.86533 0.0
C216 C 0.2108 0.09191 0.84144 0.0
H217 H 0.19129 0.10294 0.82947 0.0
H218 H 0.2285 0.07373 0.83236 0.0
H219 H 0.19691 0.07678 0.85476 0.0
C220 C 0.17408 0.20892 0.77637 0.0
N221 N 0.16208 0.19505 0.79578 0.0
N222 N 0.18825 0.18446 0.80854 0.0
C223 C 0.21821 0.19192 0.79754 0.0
C224 C 0.21005 0.2079 0.77699 0.0
C225 C 0.15204 0.22959 0.76024 0.0
H226 H 0.14072 0.25229 0.76936 0.0
H227 H 0.13022 0.21311 0.75409 0.0
H228 H 0.16733 0.23902 0.74542 0.0
O229 O 0.12632 0.23406 0.83581 0.0
O230 O 0.174 0.22088 0.85555 0.0
H231 H 0.25389 0.2085 0.82327 0.0
H232 H 0.27427 0.19845 0.79626 0.0
C233 C 0.25347 0.19068 0.80839 0.0
H234 H 0.25865 0.16387 0.81456 0.0
H235 H 0.24225 0.19853 0.86858 0.0
O236 O 0.08309 0.22332 0.79141 0.0
C237 C 0.14806 0.24063 0.85163 0.0
Co238 Co 0.05634 0.87222 0.05604 0.0
Co239 Co 0.08093 0.92995 0.08974 0.0
C240 C 0.1096 0.8587 0.09246 0.0
O241 O 0.0894 0.84956 0.07643 0.0
O242 O 0.11124 0.89022 0.09914 0.0
C243 C 0.05909 0.81161 0.02798 0.0
O244 O 0.09306 0.81616 0.02816 0.0
C245 C 0.1305 0.98237 0.10625 0.0
C246 C 0.09612 0.02095 0.12288 0.0
C247 C 0.13064 0.01442 0.11727 0.0
N248 N 0.09741 0.97081 0.10508 0.0
N249 N 0.07702 0.99382 0.11527 0.0
C250 C 0.16103 0.96299 0.0967 0.0
H251 H 0.15581 0.95634 0.07863 0.0
H252 H 0.1855 0.97833 0.09806 0.0
H253 H 0.16423 0.9381 0.10611 0.0
C254 C 0.0635 0.92524 0.02291 0.0
N255 N 0.07359 0.91261 0.04316 0.0
N256 N 0.07976 0.93853 0.05734 0.0
C257 C 0.07292 0.96875 0.04647 0.0
C258 C 0.0616 0.96118 0.02456 0.0
C259 C 0.04596 0.90341 0.00516 0.0
H260 H 0.01961 0.89583 0.01125 0.0
H261 H 0.0613 0.8793 0.00221 0.0
H262 H 0.04326 0.91797 0.98891 0.0
O263 O 0.01448 0.88476 0.0729 0.0
O264 O 0.03315 0.91786 0.10132 0.0
H265 H 0.04706 0.00015 0.07134 0.0
H266 H 0.06086 0.02398 0.0463 0.0
C267 C 0.06796 0.00288 0.05839 0.0
H268 H 0.0924 0.01018 0.06719 0.0
H269 H 0.04998 0.99137 0.1166 0.0
O270 O 0.03937 0.83554 0.03546 0.0
C271 C 0.00923 0.89989 0.09177 0.0
Co272 Co 0.61844 0.80661 0.81348 0.0
Co273 Co 0.68215 0.82385 0.84528 0.0
C274 C 0.61332 0.8614 0.84901 0.0
O275 O 0.60021 0.84428 0.83259 0.0
O276 O 0.64483 0.85694 0.85526 0.0
C277 C 0.55293 0.7846 0.80056 0.0
O278 O 0.54824 0.79116 0.82227 0.0
C279 C 0.73817 0.87056 0.85998 0.0
C280 C 0.77562 0.83448 0.87621 0.0
C281 C 0.77053 0.86923 0.87054 0.0
N282 N 0.72491 0.83811 0.85924 0.0
N283 N 0.7473 0.81668 0.86911 0.0
C284 C 0.71992 0.90195 0.85065 0.0
H285 H 0.69653 0.9074 0.86118 0.0
H286 H 0.71079 0.89635 0.83309 0.0
H287 H 0.73702 0.92531 0.85068 0.0
C288 C 0.67107 0.80734 0.77893 0.0
N289 N 0.66074 0.81741 0.79975 0.0
N290 N 0.68815 0.82132 0.81301 0.0
C291 C 0.71691 0.81286 0.80104 0.0
C292 C 0.70685 0.80317 0.77925 0.0
C293 C 0.64684 0.79326 0.7612 0.0
H294 H 0.63727 0.76721 0.76663 0.0
H295 H 0.62411 0.81093 0.75929 0.0
H296 H 0.66026 0.79055 0.74455 0.0
O297 O 0.62552 0.76556 0.83306 0.0
O298 O 0.66848 0.77703 0.85734 0.0
H299 H 0.74898 0.78556 0.82487 0.0
H300 H 0.77117 0.79741 0.79877 0.0
C301 C 0.75174 0.806 0.81161 0.0
H302 H 0.7613 0.83011 0.81989 0.0
H303 H 0.74349 0.78982 0.8707 0.0
O304 O 0.58233 0.79116 0.7916 0.0
C305 C 0.64454 0.75692 0.84989 0.0
Co306 Co 0.94934 0.87146 0.55727 0.0
Co307 Co 0.92605 0.93259 0.58847 0.0
C308 C 0.89338 0.85983 0.58772 0.0
O309 O 0.90525 0.8529 0.56814 0.0
O310 O 0.90013 0.88883 0.5974 0.0
C311 C 0.95464 0.81392 0.52585 0.0
O312 O 0.92206 0.82091 0.52062 0.0
C313 C 0.87033 0.98234 0.6 0.0
C314 C 0.89853 0.02088 0.62108 0.0
C315 C 0.86612 0.01329 0.61192 0.0
N316 N 0.90381 0.97222 0.60187 0.0
N317 N 0.92048 0.99534 0.61455 0.0
C318 C 0.84292 0.96237 0.58745 0.0
H319 H 0.8548 0.94075 0.57755 0.0
H320 H 0.82828 0.97994 0.57589 0.0
H321 H 0.82401 0.95151 0.59988 0.0
C322 C 0.95537 0.92609 0.52368 0.0
N323 N 0.94231 0.91398 0.54331 0.0
N324 N 0.93322 0.94022 0.5565 0.0
C325 C 0.94097 0.97021 0.54566 0.0
C326 C 0.95557 0.96213 0.52468 0.0
C327 C 0.97464 0.90391 0.50694 0.0
H328 H 0.99894 0.89409 0.51496 0.0
H329 H 0.95834 0.88111 0.50226 0.0
H330 H 0.98143 0.91883 0.49135 0.0
O331 O 0.98264 0.87822 0.58272 0.0
O332 O 0.97193 0.92616 0.60284 0.0
H333 H 0.95931 0.00384 0.57209 0.0
H334 H 0.95096 0.02586 0.54533 0.0
C335 C 0.9418 0.00508 0.55707 0.0
H336 H 0.91526 0.01167 0.56316 0.0
H337 H 0.94695 0.99383 0.6186 0.0
O338 O 0.97146 0.83456 0.53869 0.0
C339 C 0.9907 0.89963 0.59847 0.0
Co340 Co 0.87539 0.1992 0.30678 0.0
Co341 Co 0.81821 0.17479 0.34141 0.0
C342 C 0.889 0.14178 0.34001 0.0
O343 O 0.89782 0.1612 0.32347 0.0
O344 O 0.85857 0.14339 0.34862 0.0
C345 C 0.93911 0.22216 0.29232 0.0
O346 O 0.94608 0.20996 0.31267 0.0
C347 C 0.76629 0.12417 0.35726 0.0
C348 C 0.72905 0.15733 0.37611 0.0
C349 C 0.73495 0.1233 0.3691 0.0
N350 N 0.77808 0.15722 0.35702 0.0
N351 N 0.75586 0.17687 0.3685 0.0
C352 C 0.78479 0.09436 0.34612 0.0
H353 H 0.81028 0.0903 0.35466 0.0
H354 H 0.79023 0.10104 0.32808 0.0
H355 H 0.76938 0.06989 0.34707 0.0
C356 C 0.81933 0.19718 0.2751 0.0
N357 N 0.83278 0.18613 0.2949 0.0
N358 N 0.80751 0.17965 0.30949 0.0
C359 C 0.77687 0.18751 0.29939 0.0
C360 C 0.78357 0.19932 0.27745 0.0
C361 C 0.84053 0.21396 0.25672 0.0
H362 H 0.84885 0.2403 0.26243 0.0
H363 H 0.86417 0.1981 0.25332 0.0
H364 H 0.82518 0.21667 0.2408 0.0
O365 O 0.86708 0.2391 0.32732 0.0
O366 O 0.83085 0.22136 0.35432 0.0
H367 H 0.74669 0.21129 0.32572 0.0
H368 H 0.72185 0.20019 0.30051 0.0
C369 C 0.74324 0.19171 0.31199 0.0
H370 H 0.73599 0.16656 0.31995 0.0
H371 H 0.75865 0.20374 0.37075 0.0
O372 O 0.90867 0.2183 0.28418 0.0
C373 C 0.85085 0.24461 0.34585 0.0
Co374 Co 0.53012 0.12677 0.06828 0.0
Co375 Co 0.56526 0.06276 0.09303 0.0
C376 C 0.59647 0.13478 0.09445 0.0
O377 O 0.57187 0.14766 0.08252 0.0
O378 O 0.59822 0.10216 0.09848 0.0
C379 C 0.51712 0.18403 0.03594 0.0
O380 O 0.55121 0.18665 0.03438 0.0
C381 C 0.61996 0.01106 0.10288 0.0
C382 C 0.59015 0.96996 0.12074 0.0
C383 C 0.62329 0.97882 0.11337 0.0
N384 N 0.58627 0.02074 0.10386 0.0
N385 N 0.56863 0.99606 0.11459 0.0
C386 C 0.64829 0.03289 0.09274 0.0
H387 H 0.63839 0.04655 0.07738 0.0
H388 H 0.67143 0.01685 0.08836 0.0
H389 H 0.65626 0.053 0.1053 0.0
C390 C 0.52573 0.07585 0.03147 0.0
N391 N 0.53954 0.08601 0.05144 0.0
N392 N 0.55283 0.05866 0.06188 0.0
C393 C 0.54754 0.03016 0.04888 0.0
C394 C 0.52974 0.04017 0.02941 0.0
C395 C 0.50304 0.0983 0.01685 0.0
H396 H 0.47926 0.10537 0.02652 0.0
H397 H 0.51728 0.12245 0.01228 0.0
H398 H 0.49524 0.08468 0.00097 0.0
O399 O 0.49816 0.11514 0.09314 0.0
O400 O 0.52253 0.07081 0.11171 0.0
H401 H 0.53634 0.9884 0.07182 0.0
H402 H 0.54696 0.97436 0.04325 0.0
C403 C 0.55317 0.99353 0.05682 0.0
H404 H 0.58074 0.99022 0.06206 0.0
H405 H 0.54187 0.99713 0.1178 0.0
O406 O 0.5046 0.16172 0.0497 0.0
C407 C 0.49793 0.09278 0.10911 0.0
Co408 Co 0.62009 0.21236 0.67903 0.0
Co409 Co 0.67916 0.17737 0.64978 0.0
C410 C 0.60349 0.15526 0.64708 0.0
O411 O 0.5951 0.17595 0.66302 0.0
O412 O 0.63489 0.15285 0.64001 0.0
C413 C 0.56452 0.21892 0.71172 0.0
O414 O 0.56333 0.18477 0.70988 0.0
C415 C 0.72734 0.12047 0.63632 0.0
C416 C 0.77018 0.15054 0.62052 0.0
C417 C 0.76009 0.11703 0.62637 0.0
N418 N 0.71887 0.15456 0.63667 0.0
N419 N 0.74449 0.17229 0.627 0.0
C420 C 0.70451 0.09217 0.64554 0.0
H421 H 0.67936 0.09222 0.63619 0.0
H422 H 0.69862 0.09765 0.66369 0.0
H423 H 0.71698 0.06616 0.6439 0.0
C424 C 0.67148 0.20524 0.71461 0.0
N425 N 0.65947 0.19546 0.69411 0.0
N426 N 0.68512 0.18209 0.68201 0.0
C427 C 0.71467 0.18386 0.69447 0.0
C428 C 0.70693 0.19893 0.71536 0.0
C429 C 0.65144 0.22759 0.73091 0.0
H430 H 0.64495 0.25274 0.72257 0.0
H431 H 0.62682 0.21424 0.73558 0.0
H432 H 0.66652 0.23287 0.74666 0.0
O433 O 0.63398 0.24817 0.65659 0.0
O434 O 0.67755 0.22503 0.63667 0.0
H435 H 0.75484 0.19864 0.6712 0.0
H436 H 0.77083 0.18231 0.69814 0.0
C437 C 0.75046 0.17915 0.68486 0.0
H438 H 0.75265 0.15279 0.67736 0.0
H439 H 0.74471 0.19938 0.62518 0.0
O440 O 0.58695 0.23528 0.69991 0.0
C441 C 0.65685 0.25019 0.64093 0.0
Co442 Co 0.55084 0.87357 0.44007 0.0
Co443 Co 0.5732 0.93547 0.40922 0.0
C444 C 0.6068 0.86311 0.40894 0.0
O445 O 0.59437 0.85536 0.42824 0.0
O446 O 0.60012 0.89242 0.39958 0.0
C447 C 0.54689 0.81547 0.47109 0.0
O448 O 0.57947 0.82271 0.47621 0.0
C449 C 0.62656 0.98759 0.39673 0.0
C450 C 0.59526 0.02588 0.37739 0.0
C451 C 0.62862 0.01922 0.38529 0.0
N452 N 0.59339 0.97622 0.39578 0.0
N453 N 0.57487 0.9992 0.38413 0.0
C454 C 0.65566 0.96813 0.40791 0.0
H455 H 0.64526 0.94662 0.4186 0.0
H456 H 0.67168 0.98603 0.41844 0.0
H457 H 0.6729 0.95706 0.39456 0.0
C458 C 0.54511 0.92708 0.47413 0.0
N459 N 0.5584 0.91566 0.4544 0.0
N460 N 0.56701 0.94233 0.44143 0.0
C461 C 0.55877 0.97193 0.45257 0.0
C462 C 0.54409 0.96311 0.47341 0.0
C463 C 0.52588 0.9042 0.49051 0.0
H464 H 0.5019 0.89412 0.4822 0.0
H465 H 0.5425 0.88162 0.49514 0.0
H466 H 0.51855 0.91864 0.50617 0.0
O467 O 0.51624 0.88067 0.41549 0.0
O468 O 0.52684 0.92869 0.39549 0.0
H469 H 0.53854 0.00576 0.42685 0.0
H470 H 0.54813 0.02741 0.45352 0.0
C471 C 0.55691 0.00697 0.44142 0.0
H472 H 0.58301 0.01405 0.43477 0.0
H473 H 0.54818 0.99683 0.38096 0.0
O474 O 0.52967 0.83618 0.45855 0.0
C475 C 0.50783 0.90241 0.40004 0.0
Co476 Co 0.8867 0.79941 0.1776 0.0
Co477 Co 0.81978 0.82693 0.15146 0.0
C478 C 0.89094 0.85836 0.14484 0.0
O479 O 0.90455 0.83827 0.15957 0.0
O480 O 0.8586 0.85685 0.13991 0.0
C481 C 0.94585 0.79665 0.20962 0.0
O482 O 0.93836 0.82919 0.21468 0.0
C483 C 0.76542 0.87823 0.13952 0.0
C484 C 0.72447 0.84434 0.1249 0.0
C485 C 0.73224 0.87872 0.13006 0.0
N486 N 0.7766 0.84497 0.14014 0.0
N487 N 0.75205 0.8249 0.13127 0.0
C488 C 0.78648 0.90865 0.14757 0.0
H489 H 0.80023 0.90171 0.16357 0.0
H490 H 0.76992 0.93205 0.1502 0.0
H491 H 0.8066 0.9148 0.13459 0.0
C492 C 0.83807 0.80146 0.21553 0.0
N493 N 0.847 0.81216 0.19457 0.0
N494 N 0.81885 0.82309 0.18382 0.0
C495 C 0.79113 0.81934 0.19775 0.0
C496 C 0.80244 0.80479 0.21805 0.0
C497 C 0.86131 0.78029 0.23044 0.0
H498 H 0.86975 0.7568 0.22088 0.0
H499 H 0.88441 0.79616 0.23497 0.0
H500 H 0.84811 0.77209 0.24638 0.0
O501 O 0.87372 0.76198 0.15615 0.0
O502 O 0.82559 0.77929 0.13831 0.0
H503 H 0.74953 0.80141 0.17655 0.0
H504 H 0.73562 0.81659 0.20425 0.0
C505 C 0.75404 0.82124 0.18999 0.0
H506 H 0.74898 0.84736 0.18269 0.0
H507 H 0.75405 0.79785 0.12967 0.0
O508 O 0.9264 0.77991 0.19589 0.0
C509 C 0.84952 0.75681 0.14169 0.0
Co510 Co 0.95333 0.12952 0.93377 0.0
Co511 Co 0.92585 0.06319 0.90748 0.0
C512 C 0.88472 0.13039 0.90972 0.0
O513 O 0.90784 0.14462 0.92217 0.0
O514 O 0.88898 0.09942 0.90236 0.0
C515 C 0.95677 0.18596 0.96706 0.0
O516 O 0.92612 0.17506 0.97411 0.0
C517 C 0.8772 0.00526 0.89782 0.0
C518 C 0.91045 0.96975 0.87764 0.0
C519 C 0.87713 0.97363 0.88638 0.0
N520 N 0.90919 0.01947 0.89603 0.0
N521 N 0.92892 0.99805 0.88395 0.0
C522 C 0.84709 0.02207 0.9097 0.0
H523 H 0.85599 0.04453 0.9201 0.0
H524 H 0.83358 0.00283 0.92071 0.0
H525 H 0.82801 0.03118 0.8968 0.0
C526 C 0.96599 0.07732 0.96887 0.0
N527 N 0.94988 0.08711 0.94962 0.0
N528 N 0.9389 0.05914 0.93868 0.0
C529 C 0.94791 0.03064 0.95077 0.0
C530 C 0.96571 0.04135 0.97007 0.0
C531 C 0.98707 0.10136 0.98336 0.0
H532 H 0.00667 0.11482 0.97259 0.0
H533 H 0.96942 0.12117 0.99083 0.0
H534 H 0.00052 0.08731 0.99736 0.0
O535 O 0.98588 0.12283 0.90829 0.0
O536 O 0.96823 0.07543 0.88964 0.0
H537 H 0.96214 0.99186 0.92637 0.0
H538 H 0.95512 0.97494 0.95475 0.0
C539 C 0.94589 0.99411 0.94193 0.0
H540 H 0.91853 0.988 0.93736 0.0
H541 H 0.955 0.00285 0.87991 0.0
O542 O 0.97294 0.169 0.95177 0.0
C543 C 0.98969 0.1004 0.89253 0.0
Co544 Co 0.87721 0.71376 0.68845 0.0
Co545 Co 0.81808 0.68144 0.65834 0.0
C546 C 0.89242 0.65368 0.65991 0.0
O547 O 0.90003 0.67215 0.67711 0.0
O548 O 0.86214 0.65476 0.65085 0.0
C549 C 0.9333 0.72197 0.72049 0.0
O550 O 0.9336 0.68771 0.71984 0.0
C551 C 0.76795 0.62649 0.64459 0.0
C552 C 0.72857 0.65799 0.62631 0.0
C553 C 0.73624 0.62435 0.63321 0.0
N554 N 0.77828 0.66004 0.64461 0.0
N555 N 0.75471 0.67863 0.63353 0.0
C556 C 0.78843 0.59735 0.65493 0.0
H557 H 0.80214 0.60668 0.67042 0.0
H558 H 0.77143 0.57477 0.65906 0.0
H559 H 0.80846 0.58866 0.64253 0.0
C560 C 0.82256 0.7158 0.72195 0.0
N561 N 0.83532 0.70289 0.70246 0.0
N562 N 0.80978 0.69008 0.69002 0.0
C563 C 0.77953 0.69512 0.70129 0.0
C564 C 0.78675 0.71204 0.72166 0.0
C565 C 0.84315 0.73804 0.73802 0.0
H566 H 0.85116 0.76237 0.72921 0.0
H567 H 0.867 0.72386 0.74332 0.0
H568 H 0.82775 0.74489 0.75339 0.0
O569 O 0.86907 0.74639 0.66277 0.0
O570 O 0.8238 0.72659 0.64293 0.0
H571 H 0.7419 0.70974 0.67626 0.0
H572 H 0.7232 0.69667 0.70322 0.0
C573 C 0.74426 0.6913 0.69073 0.0
H574 H 0.74123 0.66444 0.68411 0.0
H575 H 0.75624 0.70557 0.63113 0.0
O576 O 0.91044 0.73783 0.70876 0.0
C577 C 0.84705 0.74949 0.64667 0.0
Co578 Co 0.53634 0.62462 0.93167 0.0
Co579 Co 0.5705 0.5627 0.90416 0.0
C580 C 0.59632 0.63705 0.9009 0.0
O581 O 0.57568 0.64674 0.91657 0.0
O582 O 0.59736 0.6054 0.89416 0.0
C583 C 0.52923 0.68162 0.96387 0.0
O584 O 0.56155 0.67452 0.96969 0.0
C585 C 0.62534 0.51116 0.89202 0.0
C586 C 0.59377 0.47086 0.87467 0.0
C587 C 0.62745 0.47891 0.88129 0.0
N588 N 0.59177 0.52149 0.89192 0.0
N589 N 0.57314 0.4973 0.88143 0.0
C590 C 0.6546 0.53214 0.90179 0.0
H591 H 0.6449 0.54874 0.91592 0.0
H592 H 0.67599 0.51496 0.9078 0.0
H593 H 0.66515 0.5495 0.88832 0.0
C594 C 0.53695 0.57358 0.96766 0.0
N595 N 0.54984 0.58487 0.94775 0.0
N596 N 0.56325 0.55839 0.93641 0.0
C597 C 0.55883 0.52918 0.94892 0.0
C598 C 0.54141 0.53788 0.96885 0.0
C599 C 0.51334 0.59481 0.98241 0.0
H600 H 0.49046 0.60334 0.97228 0.0
H601 H 0.52761 0.61823 0.98836 0.0
H602 H 0.50422 0.57993 0.99749 0.0
O603 O 0.5019 0.61122 0.90829 0.0
O604 O 0.52424 0.56627 0.88929 0.0
H605 H 0.54494 0.48905 0.92538 0.0
H606 H 0.55811 0.47308 0.95304 0.0
C607 C 0.56324 0.49306 0.93977 0.0
H608 H 0.5902 0.48987 0.93337 0.0
H609 H 0.54622 0.49874 0.87899 0.0
O610 O 0.51343 0.66181 0.94993 0.0
C611 C 0.49966 0.58782 0.893 0.0
Co612 Co 0.61835 0.29061 0.18021 0.0
Co613 Co 0.68446 0.3185 0.15347 0.0
C614 C 0.61345 0.35149 0.14919 0.0
O615 O 0.60033 0.3312 0.16398 0.0
O616 O 0.6454 0.34936 0.14341 0.0
C617 C 0.56069 0.28843 0.21281 0.0
O618 O 0.57004 0.32039 0.21817 0.0
C619 C 0.73722 0.37141 0.14184 0.0
C620 C 0.77812 0.33971 0.12528 0.0
C621 C 0.76969 0.37354 0.13148 0.0
N622 N 0.72703 0.33781 0.14192 0.0
N623 N 0.75157 0.31903 0.13193 0.0
C624 C 0.7157 0.40076 0.15097 0.0
H625 H 0.69653 0.40873 0.1378 0.0
H626 H 0.70094 0.39192 0.16617 0.0
H627 H 0.73216 0.42365 0.15526 0.0
C628 C 0.6689 0.28831 0.21712 0.0
N629 N 0.65917 0.30087 0.19674 0.0
N630 N 0.687 0.31199 0.18571 0.0
C631 C 0.71533 0.30658 0.19888 0.0
C632 C 0.70473 0.29082 0.219 0.0
C633 C 0.64577 0.26682 0.23196 0.0
H634 H 0.63617 0.24415 0.22202 0.0
H635 H 0.62326 0.2829 0.23735 0.0
H636 H 0.65953 0.25732 0.24738 0.0
O637 O 0.62944 0.25471 0.15721 0.0
O638 O 0.6772 0.27199 0.13881 0.0
H639 H 0.75562 0.29002 0.17621 0.0
H640 H 0.77108 0.30273 0.2041 0.0
C641 C 0.75205 0.30876 0.19041 0.0
H642 H 0.75712 0.3354 0.18388 0.0
H643 H 0.75017 0.29206 0.12962 0.0
O644 O 0.57888 0.27116 0.19864 0.0
C645 C 0.65273 0.24997 0.14204 0.0
Co646 Co 0.93912 0.36986 0.438 0.0
Co647 Co 0.92186 0.43333 0.40628 0.0
C648 C 0.88678 0.36347 0.40099 0.0
O649 O 0.90319 0.35044 0.41774 0.0
O650 O 0.89061 0.39529 0.39528 0.0
C651 C 0.96422 0.30594 0.4497 0.0
O652 O 0.95806 0.30278 0.42783 0.0
C653 C 0.87393 0.48783 0.39172 0.0
C654 C 0.90883 0.52616 0.37522 0.0
C655 C 0.87433 0.52013 0.38111 0.0
N656 N 0.90671 0.47551 0.39233 0.0
N657 N 0.92746 0.49839 0.3823 0.0
C658 C 0.84314 0.46876 0.40121 0.0
H659 H 0.83793 0.44543 0.39056 0.0
H660 H 0.84929 0.45945 0.41865 0.0
H661 H 0.81946 0.48538 0.4015 0.0
C662 C 0.93627 0.42215 0.47274 0.0
N663 N 0.92653 0.41168 0.45186 0.0
N664 N 0.92263 0.43908 0.43858 0.0
C665 C 0.93073 0.46793 0.45058 0.0
C666 C 0.94028 0.45801 0.47242 0.0
C667 C 0.95064 0.39808 0.49046 0.0
H668 H 0.97706 0.38934 0.48522 0.0
H669 H 0.93357 0.37482 0.49209 0.0
H670 H 0.95265 0.41138 0.50719 0.0
O671 O 0.98086 0.37886 0.41938 0.0
O672 O 0.96963 0.42185 0.39515 0.0
H673 H 0.95851 0.4997 0.42677 0.0
H674 H 0.94648 0.52217 0.45273 0.0
C675 C 0.93794 0.50266 0.43992 0.0
H676 H 0.914 0.51229 0.43149 0.0
H677 H 0.95438 0.49528 0.38059 0.0
O678 O 0.95543 0.3339 0.45972 0.0
C679 C 0.99002 0.39848 0.40297 0.0
Co680 Co 0.87468 0.274 0.82058 0.0
Co681 Co 0.80944 0.31012 0.84325 0.0
C682 C 0.8814 0.34025 0.84689 0.0
O683 O 0.89454 0.31543 0.83536 0.0
O684 O 0.84871 0.34227 0.85044 0.0
C685 C 0.93243 0.26666 0.78905 0.0
O686 O 0.93152 0.30093 0.78867 0.0
C687 C 0.75899 0.36596 0.85348 0.0
C688 C 0.71491 0.33621 0.86803 0.0
C689 C 0.72596 0.36968 0.86281 0.0
N690 N 0.76704 0.33179 0.85305 0.0
N691 N 0.74056 0.31418 0.8618 0.0
C692 C 0.78307 0.39435 0.84587 0.0
H693 H 0.80256 0.39926 0.85947 0.0
H694 H 0.79734 0.38597 0.83037 0.0
H695 H 0.76867 0.41893 0.84252 0.0
C696 C 0.82654 0.27067 0.78217 0.0
N697 N 0.83539 0.28417 0.80249 0.0
N698 N 0.80778 0.2989 0.81176 0.0
C699 C 0.78048 0.29522 0.79749 0.0
C700 C 0.79151 0.27683 0.77847 0.0
C701 C 0.84908 0.24636 0.76876 0.0
H702 H 0.85628 0.22384 0.77962 0.0
H703 H 0.87319 0.26013 0.76352 0.0
H704 H 0.83568 0.23666 0.75325 0.0
O705 O 0.8609 0.24102 0.84449 0.0
O706 O 0.81484 0.26587 0.86097 0.0
H707 H 0.73516 0.28567 0.81767 0.0
H708 H 0.7258 0.29956 0.78891 0.0
C709 C 0.7435 0.30322 0.80367 0.0
H710 H 0.7416 0.33054 0.80975 0.0
H711 H 0.74014 0.28711 0.8637 0.0
O712 O 0.91147 0.25087 0.80228 0.0
C713 C 0.83685 0.24103 0.85941 0.0
Co714 Co 0.96345 0.62958 0.068 0.0
Co715 Co 0.92877 0.56511 0.09292 0.0
C716 C 0.89869 0.6377 0.09556 0.0
O717 O 0.92276 0.65043 0.08311 0.0
O718 O 0.89677 0.60505 0.09968 0.0
C719 C 0.97855 0.68913 0.0372 0.0
O720 O 0.94487 0.69549 0.03698 0.0
C721 C 0.87487 0.51217 0.10377 0.0
C722 C 0.90687 0.47082 0.11963 0.0
C723 C 0.873 0.4793 0.11367 0.0
N724 N 0.90844 0.52251 0.10374 0.0
N725 N 0.92736 0.49766 0.1133 0.0
C726 C 0.84537 0.53384 0.09503 0.0
H727 H 0.83883 0.55397 0.10791 0.0
H728 H 0.85349 0.54753 0.07923 0.0
H729 H 0.82186 0.51768 0.09177 0.0
C730 C 0.96422 0.5805 0.03037 0.0
N731 N 0.9522 0.58977 0.05097 0.0
N732 N 0.93937 0.56212 0.06134 0.0
C733 C 0.9433 0.53421 0.04762 0.0
C734 C 0.95966 0.545 0.02777 0.0
C735 C 0.98571 0.60359 0.01537 0.0
H736 H 0.01053 0.60997 0.02412 0.0
H737 H 0.97134 0.62813 0.01203 0.0
H738 H 0.99172 0.59081 -0.00113 0.0
O739 O 0.99627 0.61659 0.09195 0.0
O740 O 0.97268 0.57198 0.11061 0.0
H741 H 0.95574 0.49122 0.06927 0.0
H742 H 0.94265 0.47872 0.04083 0.0
C743 C 0.9378 0.49727 0.05499 0.0
H744 H 0.91065 0.49404 0.0611 0.0
H745 H 0.95434 0.49906 0.11552 0.0
O746 O 0.98954 0.66423 0.04951 0.0
C747 C 0.99735 0.59374 0.10758 0.0
Co748 Co 0.6327 0.71551 0.30972 0.0
Co749 Co 0.69106 0.68623 0.34137 0.0
C750 C 0.61748 0.65589 0.33818 0.0
O751 O 0.61067 0.67308 0.32031 0.0
O752 O 0.6469 0.65879 0.34823 0.0
C753 C 0.57045 0.72825 0.28511 0.0
O754 O 0.56388 0.69538 0.28969 0.0
C755 C 0.74082 0.63103 0.35391 0.0
C756 C 0.77961 0.66078 0.37391 0.0
C757 C 0.77215 0.62785 0.36553 0.0
N758 N 0.73041 0.66446 0.35517 0.0
N759 N 0.75363 0.68204 0.36723 0.0
C760 C 0.72069 0.60285 0.34221 0.0
H761 H 0.7036 0.61419 0.32886 0.0
H762 H 0.73847 0.58315 0.33469 0.0
H763 H 0.704 0.58945 0.35493 0.0
C764 C 0.68792 0.71785 0.27696 0.0
N765 N 0.67506 0.70562 0.29659 0.0
N766 N 0.70061 0.69514 0.30987 0.0
C767 C 0.73107 0.70165 0.29918 0.0
C768 C 0.72382 0.71653 0.27815 0.0
C769 C 0.66678 0.73739 0.25976 0.0
H770 H 0.65974 0.76333 0.2668 0.0
H771 H 0.64236 0.72288 0.25611 0.0
H772 H 0.68158 0.74121 0.24371 0.0
O773 O 0.63921 0.748 0.33578 0.0
O774 O 0.6844 0.73123 0.35677 0.0
H775 H 0.76559 0.71881 0.32542 0.0
H776 H 0.78711 0.70855 0.2988 0.0
C777 C 0.76588 0.70083 0.31063 0.0
H778 H 0.77099 0.67414 0.31702 0.0
H779 H 0.75198 0.70872 0.37065 0.0
O780 O 0.60038 0.74079 0.28939 0.0
C781 C 0.6602 0.75278 0.35228 0.0
Co782 Co 0.55336 0.37175 0.56338 0.0
Co783 Co 0.57721 0.43675 0.59172 0.0
C784 C 0.61611 0.3682 0.59278 0.0
O785 O 0.59523 0.35448 0.57855 0.0
O786 O 0.61208 0.39969 0.59906 0.0
C787 C 0.54983 0.31233 0.53221 0.0
O788 O 0.58228 0.31869 0.52632 0.0
C789 C 0.62816 0.49037 0.60382 0.0
C790 C 0.59569 0.53007 0.62099 0.0
C791 C 0.62963 0.5225 0.61457 0.0
N792 N 0.59483 0.47946 0.60376 0.0
N793 N 0.57553 0.50327 0.61407 0.0
C794 C 0.65792 0.46979 0.59433 0.0
H795 H 0.66648 0.45045 0.60722 0.0
H796 H 0.64934 0.45533 0.57894 0.0
H797 H 0.68043 0.48684 0.59017 0.0
C798 C 0.54915 0.42299 0.52717 0.0
N799 N 0.56091 0.41329 0.54773 0.0
N800 N 0.56915 0.44118 0.5597 0.0
C801 C 0.56257 0.4697 0.54701 0.0
C802 C 0.54933 0.45904 0.52616 0.0
C803 C 0.53114 0.39885 0.51099 0.0
H804 H 0.50762 0.38778 0.51933 0.0
H805 H 0.54889 0.377 0.50668 0.0
H806 H 0.5233 0.41244 0.49511 0.0
O807 O 0.51764 0.38007 0.58627 0.0
O808 O 0.53265 0.42525 0.60779 0.0
H809 H 0.54388 0.50803 0.57041 0.0
H810 H 0.55542 0.52538 0.54275 0.0
C811 C 0.56263 0.50616 0.55608 0.0
H812 H 0.58898 0.51253 0.56265 0.0
H813 H 0.54863 0.50117 0.61645 0.0
O814 O 0.53379 0.33323 0.54526 0.0
C815 C 0.51155 0.40079 0.60267 0.0
Co816 Co 0.11776 0.30111 0.31854 0.0
Co817 Co 0.18371 0.32744 0.34526 0.0
C818 C 0.1118 0.35698 0.35297 0.0
O819 O 0.09939 0.33883 0.33685 0.0
O820 O 0.14389 0.35511 0.35852 0.0
C821 C 0.05938 0.30171 0.28667 0.0
O822 O 0.06833 0.33389 0.28163 0.0
C823 C 0.23735 0.37954 0.35718 0.0
C824 C 0.27961 0.34615 0.37059 0.0
C825 C 0.27111 0.38049 0.36576 0.0
N826 N 0.22665 0.34611 0.35665 0.0
N827 N 0.25196 0.32634 0.36486 0.0
C828 C 0.21549 0.40963 0.34951 0.0
H829 H 0.20661 0.40495 0.33179 0.0
H830 H 0.23003 0.43464 0.35048 0.0
H831 H 0.19187 0.41126 0.36037 0.0
C832 C 0.16588 0.30277 0.28092 0.0
N833 N 0.15687 0.31435 0.30167 0.0
N834 N 0.18494 0.325 0.31261 0.0
C835 C 0.21284 0.32031 0.29891 0.0
C836 C 0.20166 0.30528 0.27866 0.0
C837 C 0.14218 0.28188 0.26599 0.0
H838 H 0.13077 0.26002 0.27589 0.0
H839 H 0.12081 0.29901 0.26002 0.0
H840 H 0.15593 0.27129 0.25087 0.0
O841 O 0.13062 0.26252 0.33917 0.0
O842 O 0.17911 0.27886 0.35705 0.0
H843 H 0.25356 0.30094 0.32028 0.0
H844 H 0.26839 0.31648 0.29288 0.0
C845 C 0.2498 0.32122 0.30703 0.0
H846 H 0.25535 0.34702 0.31464 0.0
H847 H 0.25052 0.29923 0.36627 0.0
O848 O 0.07812 0.28378 0.30013 0.0
C849 C 0.15514 0.25651 0.35326 0.0
Co850 Co 0.45048 0.36918 0.05898 0.0
Co851 Co 0.42673 0.42961 0.09085 0.0
C852 C 0.39529 0.35963 0.09471 0.0
O853 O 0.41583 0.34874 0.07934 0.0
O854 O 0.39466 0.39155 0.10052 0.0
C855 C 0.44556 0.31073 0.02839 0.0
O856 O 0.41267 0.31942 0.02568 0.0
C857 C 0.37671 0.4823 0.10532 0.0
C858 C 0.40966 0.52194 0.12214 0.0
C859 C 0.37551 0.51452 0.11602 0.0
N860 N 0.41001 0.47134 0.10489 0.0
N861 N 0.42959 0.49503 0.11512 0.0
C862 C 0.34685 0.46187 0.09576 0.0
H863 H 0.34087 0.43987 0.10741 0.0
H864 H 0.35438 0.45058 0.07906 0.0
H865 H 0.3231 0.47814 0.09389 0.0
C866 C 0.44663 0.42099 0.02453 0.0
N867 N 0.43566 0.40964 0.04491 0.0
N868 N 0.42957 0.43644 0.05838 0.0
C869 C 0.43717 0.46593 0.04689 0.0
C870 C 0.44886 0.45696 0.0253 0.0
C871 C 0.46409 0.39797 0.0074 0.0
H872 H 0.48893 0.388 0.0146 0.0
H873 H 0.44701 0.37538 0.00357 0.0
H874 H 0.46972 0.41228 0.99138 0.0
O875 O 0.49204 0.38086 0.07643 0.0
O876 O 0.4736 0.41653 0.10365 0.0
H877 H 0.46176 0.49882 0.07148 0.0
H878 H 0.44961 0.52104 0.04547 0.0
C879 C 0.44166 0.50079 0.05795 0.0
H880 H 0.41676 0.50875 0.06595 0.0
H881 H 0.45659 0.49304 0.11703 0.0
O882 O 0.46591 0.33085 0.0392 0.0
C883 C 0.49709 0.39694 0.09502 0.0
Co884 Co 0.37633 0.69917 0.81275 0.0
Co885 Co 0.31334 0.67231 0.84036 0.0
C886 C 0.3855 0.63934 0.84062 0.0
O887 O 0.39285 0.65369 0.82186 0.0
O888 O 0.35636 0.6453 0.85038 0.0
C889 C 0.43412 0.70615 0.78118 0.0
O890 O 0.42542 0.67533 0.77325 0.0
C891 C 0.26156 0.61732 0.85085 0.0
C892 C 0.22169 0.64743 0.8696 0.0
C893 C 0.22951 0.61435 0.86166 0.0
N894 N 0.2721 0.65076 0.85219 0.0
N895 N 0.24813 0.66856 0.86346 0.0
C896 C 0.28213 0.58878 0.8399 0.0
H897 H 0.29123 0.5704 0.85323 0.0
H898 H 0.30494 0.59963 0.83064 0.0
H899 H 0.26541 0.57381 0.82798 0.0
C900 C 0.32502 0.70784 0.77732 0.0
N901 N 0.33539 0.69361 0.797 0.0
N902 N 0.30835 0.68124 0.80822 0.0
C903 C 0.27944 0.68756 0.79579 0.0
C904 C 0.28922 0.70488 0.77599 0.0
C905 C 0.348 0.72982 0.76253 0.0
H906 H 0.35968 0.75105 0.77287 0.0
H907 H 0.3695 0.71348 0.7558 0.0
H908 H 0.33346 0.74133 0.74802 0.0
O909 O 0.36827 0.73151 0.83868 0.0
O910 O 0.31787 0.71812 0.8552 0.0
H911 H 0.23969 0.70117 0.81965 0.0
H912 H 0.22346 0.69066 0.79153 0.0
C913 C 0.2431 0.68384 0.80469 0.0
H914 H 0.23887 0.65659 0.81034 0.0
H915 H 0.24976 0.69523 0.86689 0.0
O916 O 0.41469 0.72113 0.79568 0.0
C917 C 0.34434 0.73789 0.85315 0.0
Co918 Co 0.0404 0.62907 0.56263 0.0
Co919 Co 0.07053 0.56665 0.59167 0.0
C920 C 0.10792 0.63626 0.58684 0.0
O921 O 0.08484 0.64839 0.57341 0.0
O922 O 0.10458 0.60581 0.59528 0.0
C923 C 0.0296 0.68772 0.53116 0.0
O924 O 0.06351 0.69218 0.53261 0.0
C925 C 0.12342 0.51315 0.60228 0.0
C926 C 0.0945 0.47849 0.62568 0.0
C927 C 0.12666 0.48328 0.61542 0.0
N928 N 0.09073 0.52548 0.60459 0.0
N929 N 0.0736 0.50457 0.61858 0.0
C930 C 0.15121 0.53007 0.58825 0.0
H931 H 0.14045 0.55221 0.57831 0.0
H932 H 0.16292 0.51071 0.57648 0.0
H933 H 0.17234 0.53949 0.59962 0.0
C934 C 0.03152 0.57353 0.5294 0.0
N935 N 0.04623 0.58553 0.54861 0.0
N936 N 0.05764 0.55901 0.56078 0.0
C937 C 0.05001 0.52916 0.54972 0.0
C938 C 0.03287 0.53751 0.52965 0.0
C939 C 0.01058 0.59548 0.51341 0.0
H940 H 0.98598 0.60325 0.52194 0.0
H941 H 0.0254 0.61937 0.50896 0.0
H942 H 0.00412 0.58098 0.4976 0.0
O943 O 0.00921 0.62323 0.5889 0.0
O944 O 0.02803 0.57825 0.60948 0.0
H945 H 0.03766 0.49285 0.57613 0.0
H946 H 0.04327 0.47309 0.54835 0.0
C947 C 0.05292 0.49365 0.56008 0.0
H948 H 0.08059 0.48838 0.56429 0.0
H949 H 0.04767 0.50825 0.62343 0.0
O950 O 0.01595 0.66311 0.54262 0.0
C951 C 0.00611 0.60251 0.60569 0.0
Co952 Co 0.12804 0.70281 0.18827 0.0
Co953 Co 0.18555 0.67439 0.15555 0.0
C954 C 0.11194 0.64363 0.16028 0.0
O955 O 0.10598 0.6599 0.17864 0.0
O956 O 0.14083 0.64725 0.14962 0.0
C957 C 0.06852 0.71743 0.21685 0.0
O958 O 0.06072 0.68457 0.21296 0.0
C959 C 0.2365 0.61971 0.1428 0.0
C960 C 0.27366 0.65024 0.12201 0.0
C961 C 0.26773 0.61732 0.13088 0.0
N962 N 0.22478 0.65272 0.14122 0.0
N963 N 0.24705 0.67072 0.12866 0.0
C964 C 0.21778 0.5912 0.15514 0.0
H965 H 0.20005 0.60235 0.1682 0.0
H966 H 0.2365 0.57285 0.16312 0.0
H967 H 0.20191 0.57625 0.14271 0.0
C968 C 0.18436 0.70568 0.22016 0.0
N969 N 0.17094 0.69329 0.20074 0.0
N970 N 0.19614 0.68356 0.18694 0.0
C971 C 0.22688 0.69085 0.19704 0.0
C972 C 0.2202 0.70535 0.21827 0.0
C973 C 0.16356 0.7247 0.23778 0.0
H974 H 0.15647 0.75087 0.23114 0.0
H975 H 0.13921 0.71011 0.24148 0.0
H976 H 0.17873 0.72804 0.25373 0.0
O977 O 0.13414 0.73517 0.16231 0.0
O978 O 0.1783 0.71934 0.14017 0.0
H979 H 0.25933 0.7092 0.17001 0.0
H980 H 0.28261 0.69997 0.19617 0.0
C981 C 0.2611 0.69135 0.18484 0.0
H982 H 0.26694 0.66486 0.1784 0.0
H983 H 0.24442 0.69723 0.12497 0.0
O984 O 0.09676 0.72925 0.20867 0.0
C985 C 0.15416 0.74057 0.14536 0.0
Co986 Co 0.03547 0.37026 0.93353 0.0
Co987 Co 0.06501 0.42938 0.90196 0.0
C988 C 0.09373 0.3553 0.90342 0.0
O989 O 0.07568 0.34713 0.92073 0.0
O990 O 0.09174 0.38551 0.89433 0.0
C991 C 0.02633 0.31397 0.96589 0.0
O992 O 0.06024 0.31031 0.96364 0.0
C993 C 0.12085 0.47793 0.88789 0.0
C994 C 0.0907 0.51901 0.8703 0.0
C995 C 0.12413 0.50992 0.87697 0.0
N996 N 0.08694 0.4688 0.88792 0.0
N997 N 0.06914 0.49337 0.87722 0.0
C998 C 0.14929 0.45603 0.89781 0.0
H999 H 0.1395 0.44183 0.913 0.0
H1000 H 0.17241 0.47202 0.90231 0.0
H1001 H 0.15739 0.43644 0.88496 0.0
C1002 C 0.03758 0.42507 0.9671 0.0
N1003 N 0.04794 0.41226 0.94697 0.0
N1004 N 0.05889 0.43785 0.93383 0.0
C1005 C 0.05481 0.46816 0.94518 0.0
C1006 C 0.04087 0.46092 0.96647 0.0
C1007 C 0.01776 0.40446 0.98445 0.0
H1008 H 0.99189 0.39731 0.97738 0.0
H1009 H 0.03217 0.38014 0.98844 0.0
H1010 H 0.01389 0.4196 0.00036 0.0
O1011 O 0.00107 0.37876 0.90912 0.0
O1012 O 0.01827 0.42384 0.88813 0.0
H1013 H 0.03744 0.50481 0.92026 0.0
H1014 H 0.05145 0.52449 0.94674 0.0
C1015 C 0.05675 0.50336 0.93429 0.0
H1016 H 0.08306 0.50718 0.92696 0.0
H1017 H 0.04213 0.49291 0.87497 0.0
O1018 O 0.01149 0.33811 0.95471 0.0
C1019 C 0.99622 0.40005 0.89279 0.0
Co1020 Co 0.3797 0.2868 0.68053 0.0
Co1021 Co 0.31823 0.325 0.65521 0.0
C1022 C 0.39194 0.34931 0.65134 0.0
O1023 O 0.40102 0.32637 0.66571 0.0
O1024 O 0.36025 0.35258 0.64509 0.0
C1025 C 0.43461 0.28312 0.71336 0.0
O1026 O 0.42307 0.31388 0.71975 0.0
C1027 C 0.267 0.37958 0.64197 0.0
C1028 C 0.22337 0.34673 0.62979 0.0
C1029 C 0.23331 0.38105 0.63323 0.0
N1030 N 0.27627 0.34583 0.64387 0.0
N1031 N 0.25014 0.32643 0.63639 0.0
C1032 C 0.29025 0.40944 0.64813 0.0
H1033 H 0.31219 0.41061 0.63584 0.0
H1034 H 0.30158 0.40492 0.66526 0.0
H1035 H 0.27598 0.43463 0.64779 0.0
C1036 C 0.3303 0.28727 0.71747 0.0
N1037 N 0.34113 0.30047 0.69755 0.0
N1038 N 0.31518 0.31691 0.68747 0.0
C1039 C 0.28685 0.31477 0.70106 0.0
C1040 C 0.29545 0.29529 0.72019 0.0
C1041 C 0.35046 0.26086 0.73086 0.0
H1042 H 0.36107 0.24073 0.71919 0.0
H1043 H 0.37254 0.27414 0.73939 0.0
H1044 H 0.33431 0.2481 0.74414 0.0
O1045 O 0.36552 0.2526 0.65719 0.0
O1046 O 0.32106 0.27894 0.63992 0.0
H1047 H 0.24172 0.30504 0.68075 0.0
H1048 H 0.23232 0.32313 0.70842 0.0
C1049 C 0.25064 0.32396 0.69379 0.0
H1050 H 0.25046 0.35047 0.68629 0.0
H1051 H 0.25046 0.29921 0.63597 0.0
O1052 O 0.4179 0.26584 0.69848 0.0
C1053 C 0.34156 0.25304 0.64218 0.0
Co1054 Co 0.46267 0.63191 0.4303 0.0
Co1055 Co 0.43438 0.56895 0.40099 0.0
C1056 C 0.3969 0.63885 0.40421 0.0
O1057 O 0.41914 0.65128 0.41813 0.0
O1058 O 0.40071 0.6082 0.39616 0.0
C1059 C 0.47255 0.68965 0.46275 0.0
O1060 O 0.43859 0.69387 0.46153 0.0
C1061 C 0.38172 0.51499 0.39108 0.0
C1062 C 0.41085 0.47894 0.36874 0.0
C1063 C 0.37866 0.48416 0.37889 0.0
N1064 N 0.41433 0.52739 0.38839 0.0
N1065 N 0.43158 0.5057 0.375 0.0
C1066 C 0.35393 0.53267 0.40469 0.0
H1067 H 0.33373 0.543 0.39296 0.0
H1068 H 0.36504 0.5544 0.41485 0.0
H1069 H 0.34099 0.51364 0.41615 0.0
C1070 C 0.46789 0.57738 0.46461 0.0
N1071 N 0.45542 0.58888 0.44461 0.0
N1072 N 0.4451 0.56208 0.43229 0.0
C1073 C 0.45139 0.53254 0.44403 0.0
C1074 C 0.46627 0.5414 0.46474 0.0
C1075 C 0.48697 0.59966 0.48138 0.0
H1076 H 0.51248 0.60726 0.474 0.0
H1077 H 0.47168 0.62359 0.48491 0.0
H1078 H 0.49161 0.5855 0.49758 0.0
O1079 O 0.49555 0.62516 0.40504 0.0
O1080 O 0.47819 0.57983 0.38423 0.0
H1081 H 0.46534 0.49582 0.4182 0.0
H1082 H 0.45894 0.4766 0.44609 0.0
C1083 C 0.4495 0.49676 0.434 0.0
H1084 H 0.4221 0.49101 0.42945 0.0
H1085 H 0.45753 0.50915 0.37012 0.0
O1086 O 0.48634 0.66585 0.45069 0.0
C1087 C 0.4999 0.60412 0.38855 0.0
C1088 C 0.49521 0.29128 0.21653 0.0
C1089 C 0.52711 0.27366 0.2212 0.0
C1090 C 0.49398 0.22408 0.23682 0.0
C1091 C 0.46295 0.2396 0.22868 0.0
N1092 N 0.43342 0.29468 0.22474 0.0
N1093 N 0.55718 0.22512 0.23852 0.0
C1094 C 0.46326 0.27545 0.22298 0.0
C1095 C 0.52656 0.24073 0.23249 0.0
N1096 N 0.49492 0.32164 0.20431 0.0
N1097 N 0.49169 0.19457 0.24979 0.0
H1098 H 0.58097 0.23797 0.23748 0.0
H1099 H 0.55929 0.19948 0.24417 0.0
H1100 H 0.46763 0.18438 0.25482 0.0
H1101 H 0.51282 0.18237 0.25753 0.0
H1102 H 0.47201 0.33303 0.19831 0.0
H1103 H 0.51735 0.33381 0.19823 0.0
H1104 H 0.43275 0.32162 0.22234 0.0
H1105 H 0.41071 0.28449 0.23194 0.0
C1106 C -0.00042 0.22448 0.4775 0.0
C1107 C 0.0321 0.22302 0.46603 0.0
C1108 C 0.02434 0.28332 0.45337 0.0
C1109 C 0.98904 0.28152 0.4603 0.0
N1110 N 0.94284 0.25248 0.48043 0.0
N1111 N 0.07597 0.25112 0.44266 0.0
C1112 C 0.97674 0.25299 0.47327 0.0
C1113 C 0.04519 0.25281 0.45439 0.0
N1114 N 0.99067 0.19829 0.49215 0.0
N1115 N 0.03753 0.31413 0.4454 0.0
H1116 H 0.09251 0.22961 0.44301 0.0
H1117 H 0.08432 0.2704 0.43142 0.0
H1118 H 0.02261 0.33687 0.44466 0.0
H1119 H 0.06383 0.31807 0.44177 0.0
H1120 H 0.9684 0.19863 0.50228 0.0
H1121 H 0.00755 0.17761 0.49566 0.0
H1122 H 0.93093 0.23078 0.48773 0.0
H1123 H 0.92617 0.27375 0.47822 0.0
C1124 C 0.02782 0.73761 0.733 0.0
C1125 C 0.03095 0.7706 0.72202 0.0
C1126 C 0.96757 0.77756 0.72381 0.0
C1127 C 0.96445 0.74169 0.72891 0.0
N1128 N 0.98924 0.69448 0.75022 0.0
N1129 N 0.00283 0.82177 0.70593 0.0
C1130 C 0.99398 0.72364 0.73722 0.0
C1131 C 0.00066 0.79105 0.7177 0.0
N1132 N 0.05714 0.71936 0.73869 0.0
N1133 N 0.93907 0.79873 0.72545 0.0
H1134 H 0.02614 0.83235 0.70001 0.0
H1135 H 0.98093 0.83524 0.70017 0.0
H1136 H 0.91532 0.78959 0.73181 0.0
H1137 H 0.94033 0.82575 0.72358 0.0
H1138 H 0.05704 0.69354 0.74418 0.0
H1139 H 0.08203 0.73002 0.73739 0.0
H1140 H 0.00933 0.68067 0.75799 0.0
H1141 H 0.96442 0.68651 0.75539 0.0
C1142 C 0.52857 0.74729 0.96757 0.0
C1143 C 0.51207 0.71452 0.97123 0.0
C1144 C 0.45749 0.74471 0.98094 0.0
C1145 C 0.47338 0.77675 0.97475 0.0
N1146 N 0.52755 0.80863 0.97698 0.0
N1147 N 0.46479 0.68276 0.98863 0.0
C1148 C 0.51017 0.77817 0.97298 0.0
C1149 C 0.47765 0.71344 0.98029 0.0
N1150 N 0.56051 0.74949 0.95734 0.0
N1151 N 0.42335 0.74446 0.98757 0.0
H1152 H 0.47976 0.66013 0.98926 0.0
H1153 H 0.44078 0.68026 0.99671 0.0
H1154 H 0.40996 0.76747 0.99131 0.0
H1155 H 0.40853 0.72191 0.98955 0.0
H1156 H 0.57142 0.77323 0.95234 0.0
H1157 H 0.57461 0.72794 0.95173 0.0
H1158 H 0.55471 0.81026 0.97716 0.0
H1159 H 0.51497 0.83058 0.98351 0.0
C1160 C 0.48519 0.76317 0.26231 0.0
C1161 C 0.47681 0.78772 0.27946 0.0
C1162 C 0.53217 0.77695 0.29863 0.0
C1163 C 0.54078 0.75213 0.28151 0.0
N1164 N 0.52983 0.72732 0.24456 0.0
N1165 N 0.49574 0.82547 0.30991 0.0
C1166 C 0.51866 0.74718 0.26245 0.0
C1167 C 0.50173 0.79742 0.29606 0.0
N1168 N 0.46067 0.75436 0.24645 0.0
N1169 N 0.55105 0.77884 0.31838 0.0
H1170 H 0.47316 0.84054 0.30904 0.0
H1171 H 0.51462 0.8359 0.32071 0.0
H1172 H 0.57275 0.76347 0.32185 0.0
H1173 H 0.54328 0.79339 0.33245 0.0
H1174 H 0.46343 0.73366 0.23511 0.0
H1175 H 0.43677 0.76724 0.24525 0.0
H1176 H 0.51621 0.72495 0.22931 0.0
H1177 H 0.55438 0.71554 0.24428 0.0
C1178 C 0.54657 0.24753 0.53839 0.0
C1179 C 0.53314 0.27813 0.52784 0.0
C1180 C 0.47609 0.2501 0.52322 0.0
C1181 C 0.48903 0.22058 0.53492 0.0
N1182 N 0.53812 0.18614 0.54695 0.0
N1183 N 0.48944 0.30489 0.50429 0.0
C1184 C 0.52496 0.21755 0.54003 0.0
C1185 C 0.49927 0.27801 0.51813 0.0
N1186 N 0.57858 0.24791 0.54867 0.0
N1187 N 0.4414 0.25203 0.51802 0.0
H1188 H 0.50649 0.32515 0.50011 0.0
H1189 H 0.466 0.30549 0.49535 0.0
H1190 H 0.42429 0.23126 0.52079 0.0
H1191 H 0.42936 0.27448 0.51186 0.0
H1192 H 0.58739 0.22806 0.55932 0.0
H1193 H 0.59574 0.2689 0.54782 0.0
H1194 H 0.56469 0.18134 0.54894 0.0
H1195 H 0.52264 0.16386 0.54853 0.0
C1196 C 0.02174 0.25 0.76396 0.0
C1197 C 0.02809 0.21691 0.77408 0.0
C1198 C 0.96585 0.21097 0.78222 0.0
C1199 C 0.96138 0.24693 0.77763 0.0
N1200 N 0.97888 0.29362 0.75281 0.0
N1201 N 0.00584 0.16658 0.79465 0.0
C1202 C 0.98755 0.26457 0.76502 0.0
C1203 C -2e-05 0.19711 0.78322 0.0
N1204 N 0.0487 0.2678 0.75407 0.0
N1205 N 0.93748 0.18971 0.78446 0.0
H1206 H 0.0304 0.15556 0.79692 0.0
H1207 H 0.98643 0.15371 0.80382 0.0
H1208 H 0.91229 0.19847 0.78106 0.0
H1209 H 0.93937 0.1627 0.78614 0.0
H1210 H 0.04717 0.29368 0.74882 0.0
H1211 H 0.07331 0.25673 0.75173 0.0
H1212 H 0.99606 0.30703 0.74225 0.0
H1213 H 0.95304 0.3017 0.751 0.0
C1214 C 0.0559 0.74755 0.03743 0.0
C1215 C 0.04359 0.77652 0.02463 0.0
C1216 C 0.99278 0.74199 0.0125 0.0
C1217 C 0.00409 0.71451 0.02698 0.0
N1218 N 0.05619 0.68484 0.03977 0.0
N1219 N 0.00587 0.7983 0.99511 0.0
C1220 C 0.03889 0.71509 0.03506 0.0
C1221 C 0.01371 0.77272 0.0105 0.0
N1222 N 0.0818 0.75111 0.05326 0.0
N1223 N 0.96261 0.73825 0.00039 0.0
H1224 H 0.02145 0.82042 0.99301 0.0
H1225 H 0.98573 0.79668 0.9833 0.0
H1226 H 0.95035 0.71409 -0.00143 0.0
H1227 H 0.95023 0.7585 0.99181 0.0
H1228 H 0.08867 0.73097 0.06434 0.0
H1229 H 0.09374 0.77472 0.05725 0.0
H1230 H 0.0824 0.68438 0.04454 0.0
H1231 H 0.04617 0.66048 0.03535 0.0
C1232 C 0.5271 0.72573 0.79441 0.0
C1233 C 0.52773 0.76173 0.78883 0.0
C1234 C 0.47127 0.75661 0.76978 0.0
C1235 C 0.46911 0.72146 0.77727 0.0
N1236 N 0.49932 0.66945 0.78959 0.0
N1237 N 0.50613 0.80955 0.76648 0.0
C1238 C 0.49862 0.70489 0.78706 0.0
C1239 C 0.50174 0.77648 0.77471 0.0
N1240 N 0.55287 0.71193 0.80777 0.0
N1241 N 0.44341 0.77109 0.75877 0.0
H1242 H 0.52827 0.82442 0.77009 0.0
H1243 H 0.48939 0.82134 0.75486 0.0
H1244 H 0.42198 0.75619 0.75369 0.0
H1245 H 0.44112 0.79751 0.755 0.0
H1246 H 0.55147 0.68738 0.8153 0.0
H1247 H 0.57522 0.72584 0.8123 0.0
H1248 H 0.52141 0.65567 0.79461 0.0
H1249 H 0.47911 0.65318 0.78442 0.0
C1250 C 0.97068 0.71599 0.52588 0.0
C1251 C 0.00681 0.71559 0.52097 0.0
C1252 C 0.0034 0.77735 0.51003 0.0
C1253 C 0.97013 0.77931 0.52071 0.0
N1254 N 0.92323 0.74992 0.5409 0.0
N1255 N 0.05184 0.74064 0.49774 0.0
C1256 C 0.95364 0.74842 0.52876 0.0
C1257 C 0.02165 0.74484 0.50977 0.0
N1258 N 0.95229 0.68553 0.5267 0.0
N1259 N 0.01767 0.80676 0.50071 0.0
H1260 H 0.06281 0.71605 0.49509 0.0
H1261 H 0.06397 0.76023 0.48839 0.0
H1262 H 0.00379 0.83005 0.4992 0.0
H1263 H 0.04317 0.80853 0.49478 0.0
H1264 H 0.92527 0.68467 0.52866 0.0
H1265 H 0.96331 0.66181 0.52184 0.0
H1266 H 0.91282 0.72831 0.54928 0.0
H1267 H 0.9101 0.77299 0.5446 0.0
C1268 C 0.99403 0.23332 0.27093 0.0
C1269 C 0.96422 0.24661 0.28208 0.0
C1270 C 0.99405 0.3017 0.28981 0.0
C1271 C 0.02491 0.28744 0.28014 0.0
N1272 N 0.05132 0.24538 0.25517 0.0
N1273 N 0.93148 0.29613 0.2953 0.0
C1274 C 0.02379 0.25509 0.26847 0.0
C1275 C 0.96271 0.28197 0.28892 0.0
N1276 N 0.9943 0.19942 0.26376 0.0
N1277 N 0.99522 0.3325 0.30154 0.0
H1278 H 0.90827 0.28191 0.29502 0.0
H1279 H 0.92795 0.32254 0.29873 0.0
H1280 H 0.01742 0.34805 0.30264 0.0
H1281 H 0.97467 0.34188 0.31136 0.0
H1282 H 0.01655 0.18666 0.25792 0.0
H1283 H 0.97209 0.18366 0.26445 0.0
H1284 H 0.05141 0.2232 0.24494 0.0
H1285 H 0.07275 0.26169 0.25267 0.0
C1286 C 0.50718 0.23786 0.01147 0.0
C1287 C 0.49358 0.21086 0.02537 0.0
C1288 C 0.44209 0.24576 0.03394 0.0
C1289 C 0.45811 0.27501 0.02331 0.0
N1290 N 0.50298 0.29833 -0.00106 0.0
N1291 N 0.43949 0.18292 0.03573 0.0
C1292 C 0.4896 0.27068 0.01078 0.0
C1293 C 0.45818 0.21271 0.0321 0.0
N1294 N 0.53536 0.23114 0.99794 0.0
N1295 N 0.41339 0.24959 0.04754 0.0
H1296 H 0.44953 0.15836 0.03187 0.0
H1297 H 0.41278 0.18294 0.03909 0.0
H1298 H 0.40093 0.27327 0.05048 0.0
H1299 H 0.40378 0.22944 0.05769 0.0
H1300 H 0.54632 0.24898 0.98668 0.0
H1301 H 0.54541 0.20599 0.99613 0.0
H1302 H 0.52754 0.2986 0.99143 0.0
H1303 H 0.4893 0.32166 0.9969 0.0
C1304 C 0.53288 0.27507 0.71929 0.0
C1305 C 0.53517 0.23863 0.72252 0.0
C1306 C 0.47251 0.23635 0.73016 0.0
C1307 C 0.46932 0.27039 0.72068 0.0
N1308 N 0.49734 0.32224 0.70539 0.0
N1309 N 0.51139 0.19013 0.74313 0.0
C1310 C 0.49973 0.29028 0.71563 0.0
C1311 C 0.50616 0.22076 0.73176 0.0
N1312 N 0.56227 0.29511 0.72042 0.0
N1313 N 0.44328 0.21873 0.73688 0.0
H1314 H 0.53644 0.18083 0.74656 0.0
H1315 H 0.49183 0.17615 0.75134 0.0
H1316 H 0.41881 0.23051 0.73747 0.0
H1317 H 0.44296 0.19251 0.74143 0.0
H1318 H 0.56181 0.32229 0.71984 0.0
H1319 H 0.58632 0.28458 0.72514 0.0
H1320 H 0.51898 0.33548 0.69899 0.0
H1321 H 0.47384 0.33436 0.70141 0.0
C1322 C 0.48041 0.7453 0.48574 0.0
C1323 C 0.49526 0.71686 0.47373 0.0
C1324 C 0.54842 0.7502 0.46686 0.0
C1325 C 0.53188 0.78051 0.47572 0.0
N1326 N 0.48443 0.80657 0.49654 0.0
N1327 N 0.54986 0.68727 0.46729 0.0
C1328 C 0.49866 0.7778 0.4864 0.0
C1329 C 0.53142 0.71761 0.4689 0.0
N1330 N 0.45019 0.74028 0.49762 0.0
N1331 N 0.5788 0.75252 0.45475 0.0
H1332 H 0.53886 0.66324 0.47149 0.0
H1333 H 0.57689 0.6866 0.46534 0.0
H1334 H 0.59196 0.7758 0.45167 0.0
H1335 H 0.5892 0.73147 0.44579 0.0
H1336 H 0.438 0.75924 0.50744 0.0
H1337 H 0.43922 0.71552 0.49958 0.0
H1338 H 0.45899 0.80791 0.50261 0.0
H1339 H 0.49834 0.82975 0.49865 0.0
C1340 C 0.00897 0.72867 0.23328 0.0
C1341 C 0.04062 0.74207 0.22458 0.0
C1342 C 0.01148 0.79564 0.21266 0.0
C1343 C 0.97868 0.78023 0.21795 0.0
N1344 N 0.94623 0.73472 0.23684 0.0
N1345 N 0.07358 0.79514 0.22004 0.0
C1346 C 0.97749 0.74763 0.22964 0.0
C1347 C 0.04251 0.77784 0.21876 0.0
N1348 N 0.00977 0.69884 0.24601 0.0
N1349 N 0.01335 0.82575 0.20024 0.0
H1350 H 0.09576 0.78364 0.22708 0.0
H1351 H 0.07591 0.82195 0.21748 0.0
H1352 H 0.99156 0.83938 0.19452 0.0
H1353 H 0.03675 0.83551 0.19381 0.0
H1354 H 0.98817 0.68764 0.25384 0.0
H1355 H 0.03328 0.68696 0.25053 0.0
H1356 H 0.9424 0.70962 0.24308 0.0
H1357 H 0.92368 0.74965 0.23658 0.0
C1358 C 0.02112 0.2558 0.98587 0.0
C1359 C 0.0048 0.28531 0.9761 0.0
C1360 C 0.95217 0.25144 0.96851 0.0
C1361 C 0.97065 0.22046 0.9742 0.0
N1362 N 0.02041 0.1931 0.99179 0.0
N1363 N 0.94939 0.31426 0.97255 0.0
C1364 C 0.00433 0.22271 0.98431 0.0
C1365 C 0.96845 0.2842 0.97205 0.0
N1366 N 0.05145 0.26014 0.99774 0.0
N1367 N 0.92039 0.24981 0.95801 0.0
H1368 H 0.96035 0.33798 0.97754 0.0
H1369 H 0.92227 0.31472 0.97132 0.0
H1370 H 0.9075 0.22653 0.95449 0.0
H1371 H 0.90807 0.27161 0.9511 0.0
H1372 H 0.06434 0.24026 0.00637 0.0
H1373 H 0.06164 0.28489 0.00105 0.0
H1374 H 0.04643 0.19182 0.99676 0.0
H1375 H 0.00738 0.16934 0.99281 0.0
C1376 C 0.4388 0.08296 0.12652 0.0
C1377 C 0.47234 0.09836 0.12744 0.0
C1378 C 0.45103 0.14382 0.15265 0.0
C1379 C 0.41736 0.12777 0.15293 0.0
N1380 N 0.38212 0.07712 0.14456 0.0
N1381 N 0.51291 0.13574 0.14694 0.0
C1382 C 0.4121 0.09568 0.14124 0.0
C1383 C 0.47928 0.12583 0.14271 0.0
N1384 N 0.4323 0.05701 0.11118 0.0
N1385 N 0.45579 0.17758 0.15965 0.0
H1386 H 0.53424 0.12325 0.13952 0.0
H1387 H 0.51956 0.15365 0.15958 0.0
H1388 H 0.43578 0.19414 0.16472 0.0
H1389 H 0.47926 0.19094 0.15756 0.0
H1390 H 0.40739 0.04738 0.10787 0.0
H1391 H 0.45189 0.04638 0.10096 0.0
H1392 H 0.37801 0.05231 0.13784 0.0
H1393 H 0.36284 0.08508 0.15596 0.0
C1394 C 0.14873 0.1918 0.35246 0.0
C1395 C 0.15469 0.22249 0.36538 0.0
C1396 C 0.14817 0.18815 0.40025 0.0
C1397 C 0.13358 0.16043 0.3874 0.0
N1398 N 0.11805 0.13705 0.35029 0.0
N1399 N 0.15774 0.25036 0.40235 0.0
C1400 C 0.13409 0.16204 0.3632 0.0
C1401 C 0.15462 0.22075 0.38954 0.0
N1402 N 0.15667 0.19131 0.3298 0.0
N1403 N 0.15506 0.18336 0.42284 0.0
H1404 H 0.16151 0.27509 0.39546 0.0
H1405 H 0.15366 0.25076 0.41988 0.0
H1406 H 0.15085 0.15944 0.43092 0.0
H1407 H 0.16822 0.20166 0.43276 0.0
H1408 H 0.15609 0.16866 0.31999 0.0
H1409 H 0.16733 0.21282 0.32147 0.0
H1410 H 0.11375 0.13989 0.33288 0.0
H1411 H 0.10666 0.11458 0.35684 0.0
C1412 C 0.04959 0.83954 0.62988 0.0
C1413 C 0.07809 0.86121 0.63614 0.0
C1414 C 0.04932 0.91062 0.61732 0.0
C1415 C 0.01938 0.88939 0.61386 0.0
N1416 N 0.98751 0.83745 0.62429 0.0
N1417 N 0.10293 0.91891 0.63882 0.0
C1418 C 0.01839 0.8551 0.62261 0.0
C1419 C 0.07745 0.89733 0.63073 0.0
N1420 N 0.0528 0.80399 0.62956 0.0
N1421 N 0.05148 0.94263 0.60723 0.0
H1422 H 0.12348 0.90992 0.64886 0.0
H1423 H 0.10205 0.94596 0.63712 0.0
H1424 H 0.03134 0.95304 0.59741 0.0
H1425 H 0.07414 0.95766 0.60728 0.0
H1426 H 0.03321 0.78763 0.62339 0.0
H1427 H 0.07636 0.79118 0.63255 0.0
H1428 H 0.98544 0.81315 0.63218 0.0
H1429 H 0.96359 0.84892 0.62027 0.0
C1430 C 0.34696 0.77054 0.89054 0.0
C1431 C 0.34703 0.77065 0.86639 0.0
C1432 C 0.37065 0.82985 0.86605 0.0
C1433 C 0.37007 0.83024 0.89028 0.0
N1434 N 0.34729 0.80545 0.92495 0.0
N1435 N 0.34624 0.80457 0.83185 0.0
C1436 C 0.35462 0.80204 0.90231 0.0
C1437 C 0.35443 0.80185 0.85442 0.0
N1438 N 0.34191 0.74018 0.90228 0.0
N1439 N 0.38916 0.85411 0.85397 0.0
H1440 H 0.33367 0.78461 0.82295 0.0
H1441 H 0.34835 0.82787 0.8228 0.0
H1442 H 0.40363 0.87411 0.86132 0.0
H1443 H 0.39319 0.85218 0.83647 0.0
H1444 H 0.34564 0.73809 0.91979 0.0
H1445 H 0.33665 0.7164 0.8944 0.0
H1446 H 0.33344 0.78681 0.93419 0.0
H1447 H 0.3518 0.82862 0.93383 0.0
C1448 C 0.4786 0.85872 0.37597 0.0
C1449 C 0.47843 0.89283 0.38504 0.0
C1450 C 0.42031 0.90238 0.36852 0.0
C1451 C 0.41924 0.86662 0.36229 0.0
N1452 N 0.44316 0.80867 0.36774 0.0
N1453 N 0.44736 0.94636 0.39262 0.0
C1454 C 0.44712 0.84413 0.36838 0.0
C1455 C 0.4488 0.91468 0.38203 0.0
N1456 N 0.50909 0.84051 0.37398 0.0
N1457 N 0.39485 0.92454 0.36113 0.0
H1458 H 0.46777 0.956 0.40254 0.0
H1459 H 0.42504 0.96185 0.39287 0.0
H1460 H 0.37369 0.91607 0.35142 0.0
H1461 H 0.39603 0.95149 0.36331 0.0
H1462 H 0.51058 0.81625 0.36601 0.0
H1463 H 0.53331 0.85153 0.37779 0.0
H1464 H 0.46217 0.79152 0.37375 0.0
H1465 H 0.41943 0.79663 0.36399 0.0
C1466 C 0.34595 0.19834 0.58841 0.0
C1467 C 0.34999 0.16502 0.59835 0.0
C1468 C 0.33337 0.18892 0.63538 0.0
C1469 C 0.33862 0.22304 0.62645 0.0
N1470 N 0.34998 0.26056 0.59404 0.0
N1471 N 0.3284 0.12672 0.62747 0.0
C1472 C 0.34384 0.22801 0.60271 0.0
C1473 C 0.33771 0.15954 0.62078 0.0
N1474 N 0.34376 0.20123 0.5653 0.0
N1475 N 0.32526 0.18478 0.65788 0.0
H1476 H 0.3273 0.10603 0.61596 0.0
H1477 H 0.31774 0.12073 0.64327 0.0
H1478 H 0.31962 0.20581 0.66853 0.0
H1479 H 0.32498 0.16081 0.6662 0.0
H1480 H 0.33813 0.22455 0.55696 0.0
H1481 H 0.3434 0.17921 0.55483 0.0
H1482 H 0.35807 0.26484 0.57734 0.0
H1483 H 0.34983 0.28322 0.60383 0.0
C1484 C 0.04911 0.08673 0.87651 0.0
C1485 C 0.01783 0.10652 0.87591 0.0
C1486 C 0.04573 0.15062 0.85237 0.0
C1487 C 0.07668 0.12995 0.85144 0.0
N1488 N 0.10576 0.07553 0.85937 0.0
N1489 N 0.98333 0.15142 0.85825 0.0
C1490 C 0.0778 0.09707 0.86256 0.0
C1491 C 0.01518 0.13641 0.86204 0.0
N1492 N 0.05173 0.05889 0.89093 0.0
N1493 N 0.04595 0.18483 0.84566 0.0
H1494 H 0.96025 0.14145 0.8651 0.0
H1495 H 0.97941 0.17137 0.84646 0.0
H1496 H 0.06817 0.19793 0.84017 0.0
H1497 H 0.02495 0.20165 0.8482 0.0
H1498 H 0.07504 0.04582 0.89412 0.0
H1499 H 0.0308 0.05009 0.90073 0.0
H1500 H 0.10669 0.04995 0.86533 0.0
H1501 H 0.12692 0.08231 0.84912 0.0
C1502 C 0.17017 0.79666 0.12482 0.0
C1503 C 0.14556 0.77008 0.13018 0.0
C1504 C 0.09864 0.80602 0.11547 0.0
C1505 C 0.12317 0.83044 0.10709 0.0
N1506 N 0.18301 0.84771 0.1016 0.0
N1507 N 0.08844 0.74543 0.12356 0.0
C1508 C 0.1593 0.82549 0.11112 0.0
C1509 C 0.11041 0.7735 0.12329 0.0
N1510 N 0.2032 0.79515 0.13346 0.0
N1511 N 0.06413 0.81452 0.117 0.0
H1512 H 0.09699 0.72033 0.12759 0.0
H1513 H 0.06314 0.74642 0.11705 0.0
H1514 H 0.05503 0.8396 0.11348 0.0
H1515 H 0.04569 0.79821 0.12459 0.0
H1516 H 0.22109 0.81549 0.13194 0.0
H1517 H 0.21187 0.77463 0.14365 0.0
H1518 H 0.20983 0.84343 0.1021 0.0
H1519 H 0.17558 0.86924 0.09186 0.0
C1520 C 0.542 0.91817 0.87476 0.0
C1521 C 0.52425 0.89151 0.88714 0.0
C1522 C 0.57401 0.85295 0.8814 0.0
C1523 C 0.58817 0.87633 0.86532 0.0
N1524 N 0.5846 0.9308 0.84515 0.0
N1525 N 0.51981 0.8292 0.89441 0.0
C1526 C 0.57183 0.90894 0.86147 0.0
C1527 C 0.5393 0.85767 0.88842 0.0
N1528 N 0.53153 0.95212 0.87631 0.0
N1529 N 0.59305 0.82549 0.88943 0.0
H1530 H 0.49279 0.83008 0.89641 0.0
H1531 H 0.52973 0.80386 0.89407 0.0
H1532 H 0.61884 0.82094 0.88467 0.0
H1533 H 0.58405 0.80937 0.90249 0.0
H1534 H 0.54536 0.97266 0.86898 0.0
H1535 H 0.51121 0.96019 0.88685 0.0
H1536 H 0.57166 0.95335 0.83996 0.0
H1537 H 0.60734 0.92514 0.83609 0.0
C1538 C 0.89648 0.79806 0.6021 0.0
C1539 C 0.87857 0.83073 0.60128 0.0
C1540 C 0.83656 0.80873 0.62948 0.0
C1541 C 0.85394 0.77612 0.6292 0.0
N1542 N 0.89582 0.73732 0.61186 0.0
N1543 N 0.82737 0.86443 0.61065 0.0
C1544 C 0.88187 0.76999 0.6141 0.0
C1545 C 0.8473 0.83532 0.61397 0.0
N1546 N 0.9287 0.79289 0.59283 0.0
N1547 N 0.81061 0.81453 0.64495 0.0
H1548 H 0.834 0.88378 0.59895 0.0
H1549 H 0.80281 0.8679 0.61788 0.0
H1550 H 0.8015 0.79507 0.65587 0.0
H1551 H 0.79953 0.83894 0.64783 0.0
H1552 H 0.94415 0.81209 0.58533 0.0
H1553 H 0.94415 0.81209 0.58533 0.0
H1554 H 0.9167 0.73198 0.60099 0.0
H1555 H 0.88526 0.71538 0.61983 0.0
C1556 C 0.94241 0.1524 0.36219 0.0
C1557 C 0.91803 0.12782 0.35386 0.0
C1558 C 0.95323 0.08065 0.37032 0.0
C1559 C 0.97936 0.10559 0.37595 0.0
N1560 N 0.00294 0.1634 0.37 0.0
N1561 N 0.90115 0.06803 0.34792 0.0
C1562 C 0.97527 0.14087 0.36946 0.0
C1563 C 0.92365 0.09162 0.35726 0.0
N1564 N 0.93351 0.18675 0.36432 0.0
N1565 N 0.95597 0.04721 0.37812 0.0
H1566 H 0.87902 0.07569 0.33886 0.0
H1567 H 0.90557 0.04122 0.348 0.0
H1568 H 0.97735 0.03855 0.38754 0.0
H1569 H 0.93615 0.02879 0.37645 0.0
H1570 H 0.9497 0.2051 0.37211 0.0
H1571 H 0.90836 0.19576 0.361 0.0
H1572 H 0.00144 0.18881 0.3637 0.0
H1573 H 0.02818 0.15545 0.3742 0.0
C1574 C 0.64547 0.18577 0.1402 0.0
C1575 C 0.65034 0.21749 0.12833 0.0
C1576 C 0.6345 0.18781 0.09287 0.0
C1577 C 0.62115 0.15937 0.10569 0.0
N1578 N 0.61207 0.1328 0.1429 0.0
N1579 N 0.64989 0.24908 0.09269 0.0
C1580 C 0.62683 0.1582 0.12967 0.0
C1581 C 0.64576 0.21852 0.10436 0.0
N1582 N 0.65825 0.18233 0.16179 0.0
N1583 N 0.63641 0.18533 0.06971 0.0
H1584 H 0.65908 0.27193 0.10016 0.0
H1585 H 0.64231 0.25225 0.07579 0.0
H1586 H 0.62913 0.16274 0.06098 0.0
H1587 H 0.64857 0.20398 0.05952 0.0
H1588 H 0.65838 0.15872 0.1706 0.0
H1589 H 0.67219 0.20227 0.16976 0.0
H1590 H 0.61193 0.13388 0.16062 0.0
H1591 H 0.59734 0.11214 0.13669 0.0
C1592 C 0.54974 0.16613 0.62491 0.0
C1593 C 0.57431 0.14157 0.63319 0.0
C1594 C 0.53865 0.09415 0.61746 0.0
C1595 C 0.51203 0.11878 0.61224 0.0
N1596 N 0.48908 0.17706 0.61715 0.0
N1597 N 0.59087 0.08175 0.63959 0.0
C1598 C 0.51666 0.15444 0.6178 0.0
C1599 C 0.56851 0.10533 0.63008 0.0
N1600 N 0.55838 0.20067 0.62315 0.0
N1601 N 0.53618 0.06068 0.60964 0.0
H1602 H 0.61308 0.0893 0.6486 0.0
H1603 H 0.58607 0.055 0.63987 0.0
H1604 H 0.51501 0.05173 0.60015 0.0
H1605 H 0.55639 0.04263 0.61099 0.0
H1606 H 0.54229 0.21897 0.61524 0.0
H1607 H 0.58315 0.21023 0.62709 0.0
H1608 H 0.49074 0.20272 0.62297 0.0
H1609 H 0.46368 0.16914 0.61339 0.0
C1610 C 0.66756 0.81291 0.36894 0.0
C1611 C 0.6511 0.77979 0.36908 0.0
C1612 C 0.60577 0.80143 0.39433 0.0
C1613 C 0.62284 0.83455 0.39544 0.0
N1614 N 0.67386 0.86935 0.38732 0.0
N1615 N 0.60853 0.7405 0.38524 0.0
C1616 C 0.65492 0.83966 0.3837 0.0
C1617 C 0.62196 0.77343 0.38314 0.0
N1618 N 0.6945 0.81903 0.35424 0.0
N1619 N 0.57308 0.79563 0.40271 0.0
H1620 H 0.62027 0.71861 0.37796 0.0
H1621 H 0.5868 0.73494 0.39533 0.0
H1622 H 0.55676 0.81458 0.40966 0.0
H1623 H 0.55676 0.81458 0.40966 0.0
H1624 H 0.70507 0.84368 0.35139 0.0
H1625 H 0.70495 0.79955 0.34387 0.0
H1626 H 0.69887 0.87323 0.38089 0.0
H1627 H 0.66584 0.88889 0.3985 0.0
C1628 C 0.92937 0.85011 0.11204 0.0
C1629 C 0.91527 0.87344 0.12816 0.0
C1630 C 0.95802 0.91756 0.11671 0.0
C1631 C 0.97619 0.89168 0.10396 0.0
N1632 N 0.98213 0.82974 0.09487 0.0
N1633 N 0.91645 0.92896 0.14711 0.0
C1634 C 0.96256 0.85702 0.10283 0.0
C1635 C 0.92959 0.9072 0.13086 0.0
N1636 N 0.91156 0.82056 0.10606 0.0
N1637 N 0.96696 0.95193 0.1147 0.0
H1638 H 0.89469 0.92234 0.1569 0.0
H1639 H 0.92819 0.95251 0.15159 0.0
H1640 H 0.9863 0.96065 0.10359 0.0
H1641 H 0.95278 0.97203 0.12223 0.0
H1642 H 0.91932 0.80442 0.0927 0.0
H1643 H 0.88721 0.81422 0.11279 0.0
H1644 H 0.97412 0.80381 0.09613 0.0
H1645 H 0.00796 0.83173 0.08969 0.0
C1646 C 0.84093 0.14733 0.87929 0.0
C1647 C 0.85588 0.15311 0.90099 0.0
C1648 C 0.84207 0.21527 0.89863 0.0
C1649 C 0.83507 0.21081 0.87507 0.0
N1650 N 0.82157 0.17286 0.84357 0.0
N1651 N 0.85136 0.187 0.93514 0.0
C1652 C 0.83192 0.17674 0.86569 0.0
C1653 C 0.84988 0.18541 0.91196 0.0
N1654 N 0.83381 0.1141 0.87235 0.0
N1655 N 0.8444 0.24796 0.90781 0.0
H1656 H 0.85578 0.1647 0.94496 0.0
H1657 H 0.84441 0.20901 0.94449 0.0
H1658 H 0.83883 0.27062 0.89872 0.0
H1659 H 0.85374 0.25277 0.92415 0.0
H1660 H 0.82152 0.10792 0.85709 0.0
H1661 H 0.83603 0.09287 0.88333 0.0
H1662 H 0.82272 0.14941 0.83468 0.0
H1663 H 0.81251 0.19376 0.83383 0.0
C1664 C 0.98208 0.64384 0.63359 0.0
C1665 C 0.97929 0.61112 0.62276 0.0
C1666 C 0.92123 0.60293 0.63956 0.0
C1667 C 0.92208 0.63804 0.64729 0.0
N1668 N 0.95086 0.69465 0.64594 0.0
N1669 N 0.94575 0.55978 0.61376 0.0
C1670 C 0.95192 0.65924 0.64292 0.0
C1671 C 0.94881 0.59048 0.6254 0.0
N1672 N 0.01365 0.66039 0.63482 0.0
N1673 N 0.89467 0.58141 0.64615 0.0
H1674 H 0.96587 0.5497 0.60376 0.0
H1675 H 0.92269 0.54544 0.61297 0.0
H1676 H 0.87448 0.58971 0.65674 0.0
H1677 H 0.89423 0.55475 0.64272 0.0
H1678 H 0.01768 0.68287 0.64447 0.0
H1679 H 0.03654 0.64956 0.62826 0.0
H1680 H 0.9709 0.71123 0.64073 0.0
H1681 H 0.92862 0.70822 0.65091 0.0
C1682 C 0.58607 0.68951 0.87723 0.0
C1683 C 0.61036 0.66526 0.88625 0.0
C1684 C 0.65817 0.69895 0.86907 0.0
C1685 C 0.63392 0.72551 0.86302 0.0
N1686 N 0.57551 0.74913 0.86688 0.0
N1687 N 0.66989 0.64776 0.89245 0.0
C1688 C 0.59809 0.72162 0.86862 0.0
C1689 C 0.64662 0.67009 0.88259 0.0
N1690 N 0.55128 0.68165 0.87641 0.0
N1691 N 0.69168 0.7006 0.86126 0.0
H1692 H 0.66203 0.62618 0.90199 0.0
H1693 H 0.69675 0.6519 0.8924 0.0
H1694 H 0.70074 0.72095 0.85105 0.0
H1695 H 0.70963 0.68045 0.86328 0.0
H1696 H 0.53318 0.69681 0.8676 0.0
H1697 H 0.54099 0.6582 0.88234 0.0
H1698 H 0.55006 0.74836 0.87311 0.0
H1699 H 0.58299 0.77396 0.86165 0.0
C1700 C 0.57233 0.34314 0.11775 0.0
C1701 C 0.58848 0.36668 0.13293 0.0
C1702 C 0.54868 0.4128 0.1203 0.0
C1703 C 0.52882 0.38739 0.10821 0.0
N1704 N 0.51811 0.3255 0.10122 0.0
N1705 N 0.59152 0.42347 0.15012 0.0
C1706 C 0.53971 0.35178 0.10836 0.0
C1707 C 0.57657 0.40152 0.13465 0.0
N1708 N 0.58784 0.31199 0.11259 0.0
N1709 N 0.5419 0.44751 0.11743 0.0
H1710 H 0.61284 0.41602 0.16005 0.0
H1711 H 0.5816 0.4481 0.1539 0.0
H1712 H 0.52282 0.45674 0.10632 0.0
H1713 H 0.55741 0.46714 0.12435 0.0
H1714 H 0.57866 0.29548 0.09981 0.0
H1715 H 0.61183 0.30443 0.11931 0.0
H1716 H 0.524 0.29916 0.10348 0.0
H1717 H 0.49262 0.32914 0.09571 0.0
C1718 C 0.89187 0.29307 0.35774 0.0
C1719 C 0.85788 0.27783 0.35843 0.0
C1720 C 0.8403 0.32254 0.38624 0.0
C1721 C 0.87333 0.33861 0.38391 0.0
N1722 N 0.92566 0.34576 0.36147 0.0
N1723 N 0.797 0.28547 0.36839 0.0
C1724 C 0.89718 0.32631 0.36744 0.0
C1725 C 0.83114 0.29471 0.37125 0.0
N1726 N 0.92009 0.27502 0.34976 0.0
N1727 N 0.81788 0.33368 0.40274 0.0
H1728 H 0.78888 0.26733 0.35628 0.0
H1729 H 0.77645 0.2988 0.37608 0.0
H1730 H 0.82343 0.35506 0.41314 0.0
H1731 H 0.79492 0.32051 0.40682 0.0
H1732 H 0.9456 0.28425 0.35115 0.0
H1733 H 0.91924 0.2492 0.34459 0.0
H1734 H 0.9419 0.33906 0.34793 0.0
H1735 H 0.93116 0.37015 0.36843 0.0
C1736 C 0.90479 0.37195 0.88147 0.0
C1737 C 0.90573 0.3655 0.85762 0.0
C1738 C 0.9647 0.38995 0.85554 0.0
C1739 C 0.96374 0.39604 0.87937 0.0
N1740 N 0.92868 0.40538 0.91279 0.0
N1741 N 0.93101 0.37981 0.82125 0.0
C1742 C 0.93215 0.39152 0.89149 0.0
C1743 C 0.93383 0.37858 0.84441 0.0
N1744 N 0.87992 0.35703 0.89503 0.0
N1745 N 0.99533 0.39234 0.84374 0.0
H1746 H 0.90829 0.3723 0.81276 0.0
H1747 H 0.94955 0.3917 0.81084 0.0
H1748 H 0.01879 0.4002 0.85103 0.0
H1749 H 0.99798 0.38398 0.82695 0.0
H1750 H 0.88099 0.35788 0.91274 0.0
H1751 H 0.85997 0.34107 0.88906 0.0
H1752 H 0.90515 0.4054 0.92169 0.0
H1753 H 0.94836 0.42021 0.92036 0.0
C1754 C 0.87159 0.66326 0.13117 0.0
C1755 C 0.8748 0.66269 0.10702 0.0
C1756 C 0.8518 0.72233 0.10488 0.0
C1757 C 0.85 0.72326 0.12902 0.0
N1758 N 0.84491 0.69085 0.16391 0.0
N1759 N 0.85637 0.68629 0.07104 0.0
C1760 C 0.85524 0.69227 0.14168 0.0
C1761 C 0.86079 0.69047 0.09395 0.0
N1762 N 0.88657 0.63799 0.14437 0.0
N1763 N 0.84742 0.75208 0.09239 0.0
H1764 H 0.86225 0.66287 0.0628 0.0
H1765 H 0.84358 0.70443 0.06081 0.0
H1766 H 0.84005 0.77587 0.09942 0.0
H1767 H 0.85311 0.75363 0.07508 0.0
H1768 H 0.88887 0.64014 0.16199 0.0
H1769 H 0.89908 0.61602 0.13801 0.0
H1770 H 0.84506 0.66794 0.17348 0.0
H1771 H 0.83263 0.7118 0.17191 0.0
C1772 C 0.55917 0.59253 0.37139 0.0
C1773 C 0.52805 0.61253 0.37235 0.0
C1774 C 0.55659 0.66071 0.35291 0.0
C1775 C 0.58723 0.64008 0.35014 0.0
N1776 N 0.61572 0.58422 0.3534 0.0
N1777 N 0.49415 0.66079 0.35825 0.0
C1778 C 0.588 0.60524 0.35839 0.0
C1779 C 0.52581 0.64491 0.36104 0.0
N1780 N 0.56154 0.5622 0.3835 0.0
N1781 N 0.55733 0.69603 0.34947 0.0
H1782 H 0.47085 0.64965 0.36393 0.0
H1783 H 0.4907 0.68296 0.34821 0.0
H1784 H 0.5799 0.7098 0.34543 0.0
H1785 H 0.53648 0.71238 0.35344 0.0
H1786 H 0.58473 0.5484 0.38555 0.0
H1787 H 0.54053 0.55191 0.39259 0.0
H1788 H 0.61637 0.55768 0.35719 0.0
H1789 H 0.63692 0.59277 0.34376 0.0
C1790 C 0.65596 0.28241 0.60337 0.0
C1791 C 0.65862 0.2829 0.62748 0.0
C1792 C 0.64888 0.34621 0.62772 0.0
C1793 C 0.64216 0.34466 0.60391 0.0
N1794 N 0.6569 0.31666 0.56866 0.0
N1795 N 0.67078 0.31628 0.66127 0.0
C1796 C 0.65212 0.31449 0.59164 0.0
C1797 C 0.65936 0.31525 0.63923 0.0
N1798 N 0.65403 0.25158 0.59174 0.0
N1799 N 0.64425 0.37652 0.63954 0.0
H1800 H 0.67939 0.29405 0.66983 0.0
H1801 H 0.67497 0.33929 0.67028 0.0
H1802 H 0.64339 0.40089 0.6318 0.0
H1803 H 0.64223 0.37755 0.6572 0.0
H1804 H 0.64845 0.25019 0.57441 0.0
H1805 H 0.65514 0.22719 0.59948 0.0
H1806 H 0.66664 0.29618 0.55888 0.0
H1807 H 0.65472 0.3404 0.56002 0.0
C1808 C 0.04769 0.41585 0.38457 0.0
C1809 C 0.02309 0.38977 0.39103 0.0
C1810 C 0.06436 0.34457 0.37974 0.0
C1811 C 0.08585 0.37004 0.36946 0.0
N1812 N 0.09779 0.43016 0.36081 0.0
N1813 N 0.0051 0.32921 0.38802 0.0
C1814 C 0.07762 0.4059 0.37158 0.0
C1815 C 0.03067 0.35403 0.38691 0.0
N1816 N 0.04317 0.4496 0.3914 0.0
N1817 N 0.07589 0.31103 0.3822 0.0
H1818 H 0.97893 0.33518 0.39073 0.0
H1819 H 0.00911 0.30332 0.38324 0.0
H1820 H 0.10093 0.30328 0.37739 0.0
H1821 H 0.06202 0.29218 0.39128 0.0
H1822 H 0.06179 0.469 0.3888 0.0
H1823 H 0.02225 0.45751 0.4015 0.0
H1824 H 0.09106 0.45644 0.3597 0.0
H1825 H 0.1204 0.42339 0.35195 0.0
C1826 C 0.34465 0.32674 0.11249 0.0
C1827 C 0.38091 0.33298 0.11021 0.0
C1828 C 0.39388 0.27829 0.12918 0.0
C1829 C 0.35809 0.27352 0.13417 0.0
N1830 N 0.29936 0.29668 0.13378 0.0
N1831 N 0.43888 0.32118 0.12421 0.0
C1832 C 0.33322 0.29866 0.12667 0.0
C1833 C 0.40517 0.31077 0.12104 0.0
N1834 N 0.32141 0.34713 0.10098 0.0
N1835 N 0.417 0.25135 0.13121 0.0
H1836 H 0.4474 0.34621 0.11993 0.0
H1837 H 0.4568 0.30658 0.13358 0.0
H1838 H 0.40905 0.22594 0.13493 0.0
H1839 H 0.44304 0.2534 0.12622 0.0
H1840 H 0.29481 0.34168 0.10017 0.0
H1841 H 0.32928 0.36834 0.09106 0.0
H1842 H 0.28102 0.31609 0.13051 0.0
H1843 H 0.2903 0.2771 0.14459 0.0
C1844 C 0.40909 0.59211 0.86706 0.0
C1845 C 0.4146 0.62175 0.85289 0.0
C1846 C 0.47741 0.61563 0.85844 0.0
C1847 C 0.47147 0.59171 0.87618 0.0
N1848 N 0.43158 0.55734 0.89843 0.0
N1849 N 0.45496 0.66825 0.84228 0.0
C1850 C 0.43721 0.57983 0.8808 0.0
C1851 C 0.44908 0.63522 0.85026 0.0
N1852 N 0.37775 0.57521 0.86695 0.0
N1853 N 0.51025 0.62093 0.85017 0.0
H1854 H 0.43518 0.68649 0.83979 0.0
H1855 H 0.47981 0.67931 0.84156 0.0
H1856 H 0.53176 0.60677 0.85592 0.0
H1857 H 0.51519 0.63683 0.83612 0.0
H1858 H 0.37336 0.55197 0.87569 0.0
H1859 H 0.35732 0.58247 0.85626 0.0
H1860 H 0.40676 0.55067 0.90421 0.0
H1861 H 0.45209 0.54674 0.90785 0.0
C1862 C 0.14363 0.7237 0.60016 0.0
C1863 C 0.15252 0.71817 0.62338 0.0
C1864 C 0.15086 0.65485 0.61733 0.0
C1865 C 0.13487 0.66092 0.59596 0.0
N1866 N 0.13579 0.69754 0.56288 0.0
N1867 N 0.16877 0.67903 0.65372 0.0
C1868 C 0.13782 0.69434 0.58597 0.0
C1869 C 0.15795 0.68382 0.63177 0.0
N1870 N 0.13776 0.75667 0.59211 0.0
N1871 N 0.16115 0.6219 0.62302 0.0
H1872 H 0.17624 0.69971 0.66419 0.0
H1873 H 0.16918 0.65489 0.66183 0.0
H1874 H 0.16034 0.60147 0.61132 0.0
H1875 H 0.17467 0.61572 0.63784 0.0
H1876 H 0.1271 0.7617 0.57614 0.0
H1877 H 0.14105 0.77909 0.6019 0.0
H1878 H 0.14039 0.72082 0.55423 0.0
H1879 H 0.13365 0.67568 0.55234 0.0
C1880 C 0.04883 0.64444 0.14886 0.0
C1881 C 0.08162 0.62673 0.14896 0.0
C1882 C 0.05686 0.58183 0.12388 0.0
C1883 C 0.0241 0.59876 0.12524 0.0
N1884 N 0.98638 0.639 0.14473 0.0
N1885 N 0.1143 0.5744 0.14067 0.0
C1886 C 0.01927 0.62731 0.13999 0.0
C1887 C 0.08492 0.59402 0.13773 0.0
N1888 N 0.04616 0.67878 0.15506 0.0
N1889 N 0.06134 0.55495 0.10893 0.0
H1890 H 0.13469 0.58214 0.15129 0.0
H1891 H 0.11697 0.54915 0.13435 0.0
H1892 H 0.04075 0.5448 0.09935 0.0
H1893 H 0.08559 0.54404 0.10527 0.0
H1894 H 0.02329 0.69318 0.15312 0.0
H1895 H 0.06734 0.69452 0.1592 0.0
H1896 H 0.98131 0.65796 0.15702 0.0
H1897 H 0.96409 0.62706 0.13814 0.0
C1898 C 0.08951 0.29596 0.88661 0.0
C1899 C 0.11007 0.32616 0.89082 0.0
C1900 C 0.15859 0.29948 0.86988 0.0
C1901 C 0.13865 0.26843 0.86782 0.0
N1902 N 0.0903 0.2337 0.88105 0.0
N1903 N 0.16629 0.35442 0.88996 0.0
C1904 C 0.10585 0.26557 0.87854 0.0
C1905 C 0.14536 0.32735 0.88349 0.0
N1906 N 0.05397 0.29681 0.88876 0.0
N1907 N 0.1893 0.30277 0.8583 0.0
H1908 H 0.15739 0.3747 0.90026 0.0
H1909 H 0.19301 0.35516 0.88676 0.0
H1910 H 0.19982 0.28256 0.84859 0.0
H1911 H 0.20312 0.32612 0.85723 0.0
H1912 H 0.03801 0.27603 0.88394 0.0
H1913 H 0.04006 0.31948 0.89247 0.0
H1914 H 0.06746 0.23009 0.89041 0.0
H1915 H 0.10237 0.21054 0.876 0.0
C1916 C 0.45404 0.41438 0.62248 0.0
C1917 C 0.48216 0.39128 0.61777 0.0
C1918 C 0.44729 0.34207 0.63037 0.0
C1919 C 0.42075 0.36504 0.63801 0.0
N1920 N 0.40059 0.42392 0.64398 0.0
N1921 N 0.509 0.33522 0.62468 0.0
C1922 C 0.4245 0.40159 0.63484 0.0
C1923 C 0.47988 0.35582 0.62422 0.0
N1924 N 0.45489 0.44782 0.6145 0.0
N1925 N 0.44095 0.30713 0.62795 0.0
H1926 H 0.53393 0.34489 0.62128 0.0
H1927 H 0.50873 0.30978 0.631 0.0
H1928 H 0.41633 0.2961 0.63039 0.0
H1929 H 0.459 0.29003 0.62073 0.0
H1930 H 0.43363 0.46468 0.61543 0.0
H1931 H 0.47614 0.45791 0.60558 0.0
H1932 H 0.40376 0.45092 0.64405 0.0
H1933 H 0.37877 0.41521 0.65296 0.0
C1934 C 0.34843 0.68718 0.35863 0.0
C1935 C 0.35131 0.72122 0.36806 0.0
C1936 C 0.3651 0.69587 0.4052 0.0
C1937 C 0.37008 0.66317 0.39456 0.0
N1938 N 0.34737 0.62472 0.36575 0.0
N1939 N 0.36257 0.75844 0.40056 0.0
C1940 C 0.35588 0.6577 0.37257 0.0
C1941 C 0.35868 0.72574 0.39159 0.0
N1942 N 0.33962 0.68321 0.33624 0.0
N1943 N 0.36566 0.69786 0.4284 0.0
H1944 H 0.35884 0.78127 0.39124 0.0
H1945 H 0.37215 0.76303 0.41688 0.0
H1946 H 0.3682 0.67558 0.4385 0.0
H1947 H 0.35946 0.72039 0.43745 0.0
H1948 H 0.34127 0.65962 0.32753 0.0
H1949 H 0.33198 0.7041 0.32601 0.0
H1950 H 0.33513 0.61898 0.35039 0.0
H1951 H 0.34798 0.60359 0.3769 0.0
C1952 C 0.16827 0.04802 0.14451 0.0
C1953 C 0.16044 0.03839 0.12175 0.0
C1954 C 0.2073 0.07677 0.10824 0.0
C1955 C 0.21117 0.09038 0.13052 0.0
N1956 N 0.19137 0.09254 0.16952 0.0
N1957 N 0.16899 0.04812 0.08146 0.0
C1958 C 0.19078 0.07683 0.14865 0.0
C1959 C 0.17918 0.05376 0.10344 0.0
N1960 N 0.15474 0.02921 0.1622 0.0
N1961 N 0.23082 0.08549 0.0917 0.0
H1962 H 0.14807 0.03215 0.07709 0.0
H1963 H 0.1793 0.06178 0.06768 0.0
H1964 H 0.25206 0.10188 0.09473 0.0
H1965 H 0.23129 0.07368 0.07573 0.0
H1966 H 0.16223 0.03297 0.17906 0.0
H1967 H 0.13877 0.00746 0.15979 0.0
H1968 H 0.17409 0.08617 0.18257 0.0
H1969 H 0.20714 0.11395 0.17324 0.0
C1970 C 0.20304 0.91479 0.39105 0.0
C1971 C 0.21071 0.90503 0.36832 0.0
C1972 C 0.17046 0.94984 0.35434 0.0
C1973 C 0.15888 0.95562 0.37694 0.0
N1974 N 0.16133 0.94089 0.41686 0.0
N1975 N 0.19894 0.91043 0.3281 0.0
C1976 C 0.1746 0.9376 0.39538 0.0
C1977 C 0.19393 0.922 0.34985 0.0
N1978 N 0.22334 0.90266 0.40846 0.0
N1979 N 0.15952 0.9714 0.33723 0.0
H1980 H 0.21597 0.8902 0.32403 0.0
H1981 H 0.18426 0.91907 0.31429 0.0
H1982 H 0.14265 0.99234 0.34 0.0
H1983 H 0.16977 0.97066 0.32082 0.0
H1984 H 0.2212 0.91154 0.42516 0.0
H1985 H 0.24468 0.88625 0.40581 0.0
H1986 H 0.16913 0.92531 0.43047 0.0
H1987 H 0.14054 0.95732 0.42078 0.0
C1988 C 0.29886 0.92724 0.64495 0.0
C1989 C 0.28516 0.90812 0.62626 0.0
C1990 C 0.32327 0.94041 0.6002 0.0
C1991 C 0.33538 0.961 0.61867 0.0
N1992 N 0.32843 0.9797 0.65758 0.0
N1993 N 0.2777 0.90267 0.58569 0.0
C1994 C 0.32113 0.95621 0.64073 0.0
C1995 C 0.29526 0.91673 0.60374 0.0
N1996 N 0.29228 0.91668 0.66674 0.0
N1997 N 0.3397 0.94191 0.57959 0.0
H1998 H 0.25656 0.88577 0.58769 0.0
H1999 H 0.28172 0.91058 0.56892 0.0
H2000 H 0.36069 0.95844 0.57634 0.0
H2001 H 0.33446 0.92464 0.56633 0.0
H2002 H 0.30486 0.92721 0.68088 0.0
H2003 H 0.27639 0.89546 0.67065 0.0
H2004 H 0.31606 0.97948 0.67336 0.0
H2005 H 0.34426 0.0015 0.65499 0.0
C2006 C 0.29097 0.07422 0.88981 0.0
C2007 C 0.28526 0.08652 0.86736 0.0
C2008 C 0.32718 0.04353 0.85297 0.0
C2009 C 0.33694 0.03535 0.87565 0.0
N2010 N 0.33125 0.04681 0.91594 0.0
N2011 N 0.30135 0.08608 0.82762 0.0
C2012 C 0.31947 0.05149 0.8942 0.0
C2013 C 0.30404 0.07184 0.84887 0.0
N2014 N 0.26886 0.08398 0.9069 0.0
N2015 N 0.33956 0.02383 0.83534 0.0
H2016 H 0.2849 0.10694 0.82388 0.0
H2017 H 0.31748 0.07902 0.81412 0.0
H2018 H 0.35604 0.00248 0.83777 0.0
H2019 H 0.33071 0.02643 0.81867 0.0
H2020 H 0.26967 0.07318 0.92317 0.0
H2021 H 0.24742 0.10024 0.90418 0.0
H2022 H 0.32199 0.06108 0.92976 0.0
H2023 H 0.35234 0.03087 0.91997 0.0
C2024 C 0.83447 0.9441 0.86043 0.0
C2025 C 0.84761 0.94915 0.88274 0.0
C2026 C 0.80544 0.90654 0.89734 0.0
C2027 C 0.79573 0.89808 0.87468 0.0
N2028 N 0.80583 0.90467 0.8343 0.0
N2029 N 0.84967 0.93101 0.92206 0.0
C2030 C 0.81145 0.91582 0.85609 0.0
C2031 C 0.83413 0.92934 0.90116 0.0
N2032 N 0.84334 0.96682 0.84345 0.0
N2033 N 0.78668 0.89356 0.91522 0.0
H2034 H 0.87097 0.94708 0.9255 0.0
H2035 H 0.84335 0.91428 0.93542 0.0
H2036 H 0.76503 0.87737 0.91308 0.0
H2037 H 0.79041 0.90161 0.93197 0.0
H2038 H 0.83175 0.96648 0.82741 0.0
H2039 H 0.8597 0.98822 0.84607 0.0
H2040 H 0.81964 0.91423 0.82036 0.0
H2041 H 0.78973 0.88364 0.83033 0.0
C2042 C 0.81972 0.03873 0.63686 0.0
C2043 C 0.83426 0.0349 0.61482 0.0
C2044 C 0.79172 0.07685 0.59997 0.0
C2045 C 0.78166 0.08528 0.62254 0.0
N2046 N 0.78899 0.0765 0.66301 0.0
N2047 N 0.83678 0.05339 0.57555 0.0
C2048 C 0.79606 0.06652 0.64117 0.0
C2049 C 0.82073 0.05447 0.5963 0.0
N2050 N 0.82836 0.01558 0.65363 0.0
N2051 N 0.77326 0.09002 0.58202 0.0
H2052 H 0.85838 0.03772 0.57218 0.0
H2053 H 0.83045 0.07015 0.56222 0.0
H2054 H 0.75142 0.10594 0.58419 0.0
H2055 H 0.77732 0.08225 0.56524 0.0
H2056 H 0.81606 0.01498 0.66944 0.0
H2057 H 0.84536 0.99472 0.65092 0.0
H2058 H 0.80205 0.06645 0.6771 0.0
H2059 H 0.77204 0.09676 0.66702 0.0
C2060 C 0.67136 0.04797 0.35911 0.0
C2061 C 0.65938 0.04214 0.38161 0.0
C2062 C 0.70304 0.08349 0.39588 0.0
C2063 C 0.71108 0.09329 0.37319 0.0
N2064 N 0.69846 0.08845 0.33298 0.0
N2065 N 0.6602 0.05838 0.42133 0.0
C2066 C 0.69426 0.07633 0.35468 0.0
C2067 C 0.67439 0.06078 0.40005 0.0
N2068 N 0.66122 0.02607 0.34198 0.0
N2069 N 0.72319 0.09532 0.41345 0.0
H2070 H 0.63893 0.04245 0.42509 0.0
H2071 H 0.66766 0.0744 0.4348 0.0
H2072 H 0.74485 0.11138 0.41098 0.0
H2073 H 0.7206 0.08634 0.4301 0.0
H2074 H 0.67183 0.02699 0.32566 0.0
H2075 H 0.64486 0.00469 0.3447 0.0
H2076 H 0.68377 0.07949 0.31926 0.0
H2077 H 0.71432 0.10962 0.32893 0.0
C2078 C 0.69217 0.92614 0.14424 0.0
C2079 C 0.70876 0.90887 0.1258 0.0
C2080 C 0.67111 0.93977 0.09873 0.0
C2081 C 0.65524 0.95773 0.11713 0.0
N2082 N 0.65657 0.9749 0.15656 0.0
N2083 N 0.72039 0.90559 0.08557 0.0
C2084 C 0.66773 0.95311 0.13964 0.0
C2085 C 0.70024 0.91777 0.10304 0.0
N2086 N 0.69827 0.91559 0.16609 0.0
N2087 N 0.65735 0.9423 0.07733 0.0
H2088 H 0.74221 0.88982 0.08822 0.0
H2089 H 0.7176 0.91384 0.06878 0.0
H2090 H 0.63618 0.95829 0.07343 0.0
H2091 H 0.66525 0.92666 0.06379 0.0
H2092 H 0.68382 0.92436 0.17998 0.0
H2093 H 0.71605 0.89608 0.17025 0.0
H2094 H 0.66729 0.97509 0.17284 0.0
H2095 H 0.63895 0.99518 0.15367 0.0
C2096 C 0.67829 0.56158 0.60112 0.0
C2097 C 0.66065 0.54457 0.61923 0.0
C2098 C 0.69501 0.57763 0.64702 0.0
C2099 C 0.71366 0.59357 0.62891 0.0
N2100 N 0.72939 0.59412 0.58922 0.0
N2101 N 0.6583 0.52953 0.65904 0.0
C2102 C 0.70733 0.58334 0.60609 0.0
C2103 C 0.671 0.5504 0.64208 0.0
N2104 N 0.66627 0.55851 0.57931 0.0
N2105 N 0.69868 0.58969 0.66877 0.0
H2106 H 0.64104 0.50899 0.65596 0.0
H2107 H 0.66752 0.53032 0.67571 0.0
H2108 H 0.71599 0.60951 0.67319 0.0
H2109 H 0.68266 0.58186 0.68215 0.0
H2110 H 0.67572 0.57344 0.56583 0.0
H2111 H 0.64491 0.54307 0.57492 0.0
H2112 H 0.72808 0.58484 0.57258 0.0
H2113 H 0.75124 0.60963 0.59241 0.0
C2114 C 0.69968 0.41193 0.89041 0.0
C2115 C 0.70604 0.40214 0.86751 0.0
C2116 C 0.6693 0.45052 0.85444 0.0
C2117 C 0.65828 0.45628 0.87717 0.0
N2118 N 0.66087 0.44072 0.91694 0.0
N2119 N 0.69507 0.41031 0.82741 0.0
C2120 C 0.67323 0.43685 0.89527 0.0
C2121 C 0.69073 0.42123 0.84938 0.0
N2122 N 0.71929 0.39769 0.90747 0.0
N2123 N 0.65945 0.47332 0.83774 0.0
H2124 H 0.71067 0.3891 0.82297 0.0
H2125 H 0.68128 0.4207 0.81373 0.0
H2126 H 0.64408 0.49522 0.84104 0.0
H2127 H 0.66925 0.4725 0.82122 0.0
H2128 H 0.71825 0.40623 0.92429 0.0
H2129 H 0.73914 0.37966 0.90441 0.0
H2130 H 0.66773 0.42427 0.93032 0.0
H2131 H 0.64184 0.45893 0.92129 0.0
C2132 C 0.83185 0.45013 0.14073 0.0
C2133 C 0.84199 0.45692 0.11794 0.0
C2134 C 0.79767 0.41565 0.10441 0.0
C2135 C 0.79169 0.40482 0.12717 0.0
N2136 N 0.8055 0.40937 0.16714 0.0
N2137 N 0.83687 0.44405 0.07787 0.0
C2138 C 0.80913 0.42167 0.14543 0.0
C2139 C 0.82526 0.43942 0.09966 0.0
N2140 N 0.84359 0.47125 0.15783 0.0
N2141 N 0.77656 0.40361 0.08738 0.0
H2142 H 0.85681 0.46137 0.07364 0.0
H2143 H 0.8285 0.4289 0.06421 0.0
H2144 H 0.75586 0.3865 0.09035 0.0
H2145 H 0.77738 0.41312 0.07078 0.0
H2146 H 0.83448 0.46978 0.17451 0.0
H2147 H 0.85991 0.49259 0.15488 0.0
H2148 H 0.8207 0.41795 0.18073 0.0
H2149 H 0.78909 0.38867 0.17135 0.0
C2150 C 0.81312 0.58199 0.35038 0.0
C2151 C 0.79429 0.59655 0.36889 0.0
C2152 C 0.82745 0.56049 0.39563 0.0
C2153 C 0.84483 0.54442 0.37703 0.0
N2154 N 0.848 0.53368 0.33665 0.0
N2155 N 0.77721 0.59353 0.40831 0.0
C2156 C 0.83568 0.55323 0.35436 0.0
C2157 C 0.79944 0.58377 0.39127 0.0
N2158 N 0.81096 0.59667 0.32923 0.0
N2159 N 0.8388 0.55509 0.41739 0.0
H2160 H 0.75607 0.61016 0.40559 0.0
H2161 H 0.77761 0.58239 0.42448 0.0
H2162 H 0.85956 0.53869 0.4214 0.0
H2163 H 0.82959 0.56921 0.4313 0.0
H2164 H 0.82721 0.58966 0.31578 0.0
H2165 H 0.79485 0.6178 0.32555 0.0
H2166 H 0.83944 0.53677 0.31994 0.0
H2167 H 0.86411 0.51203 0.33897 0.0
C2168 C 0.30653 0.41828 0.39173 0.0
C2169 C 0.29459 0.41092 0.3694 0.0
C2170 C 0.33176 0.45787 0.35459 0.0
C2171 C 0.34768 0.46115 0.37627 0.0
N2172 N 0.35344 0.44083 0.41499 0.0
N2173 N 0.29925 0.42081 0.32889 0.0
C2174 C 0.33577 0.44059 0.3948 0.0
C2175 C 0.30786 0.43015 0.35061 0.0
N2176 N 0.2895 0.40441 0.41007 0.0
N2177 N 0.33909 0.4816 0.33789 0.0
H2178 H 0.28213 0.40053 0.32514 0.0
H2179 H 0.3113 0.43131 0.31454 0.0
H2180 H 0.35616 0.50249 0.34033 0.0
H2181 H 0.32568 0.48259 0.32248 0.0
H2182 H 0.29494 0.41153 0.42681 0.0
H2183 H 0.2675 0.38855 0.40844 0.0
H2184 H 0.34827 0.42344 0.4282 0.0
H2185 H 0.37528 0.45639 0.41785 0.0
C2186 C 0.32679 0.55262 0.10128 0.0
C2187 C 0.34484 0.53752 0.11996 0.0
C2188 C 0.31092 0.57359 0.14638 0.0
C2189 C 0.29134 0.58693 0.12779 0.0
N2190 N 0.27481 0.58258 0.08833 0.0
N2191 N 0.34817 0.52727 0.16039 0.0
C2192 C 0.29742 0.57427 0.10548 0.0
C2193 C 0.33501 0.54601 0.14256 0.0
N2194 N 0.33873 0.54793 0.07957 0.0
N2195 N 0.30806 0.58844 0.16743 0.0
H2196 H 0.36542 0.50648 0.15821 0.0
H2197 H 0.3393 0.53004 0.17706 0.0
H2198 H 0.29094 0.6088 0.17099 0.0
H2199 H 0.32467 0.58244 0.18091 0.0
H2200 H 0.32886 0.5615 0.06562 0.0
H2201 H 0.36052 0.53285 0.07569 0.0
H2202 H 0.27602 0.57138 0.07219 0.0
H2203 H 0.25267 0.59791 0.09094 0.0
C2204 C 0.18896 0.568 0.84648 0.0
C2205 C 0.20736 0.58296 0.86503 0.0
C2206 C 0.17311 0.54779 0.89178 0.0
C2207 C 0.15576 0.53167 0.87317 0.0
N2208 N 0.15369 0.51977 0.83293 0.0
N2209 N 0.22355 0.5805 0.90461 0.0
C2210 C 0.16589 0.53962 0.85054 0.0
C2211 C 0.20159 0.57061 0.88746 0.0
N2212 N 0.19184 0.58214 0.82521 0.0
N2213 N 0.16118 0.54313 0.91348 0.0
H2214 H 0.24494 0.59685 0.90192 0.0
H2215 H 0.22267 0.56971 0.92088 0.0
H2216 H 0.14022 0.52698 0.91748 0.0
H2217 H 0.17029 0.55747 0.92732 0.0
H2218 H 0.17599 0.57482 0.81162 0.0
H2219 H 0.20809 0.6032 0.82154 0.0
H2220 H 0.16271 0.52225 0.81628 0.0
H2221 H 0.1372 0.49842 0.8354 0.0
C2222 C 0.19952 0.4172 0.60551 0.0
C2223 C 0.21096 0.41178 0.6282 0.0
C2224 C 0.17354 0.45987 0.64091 0.0
C2225 C 0.15792 0.46107 0.61903 0.0
N2226 N 0.15308 0.43768 0.58101 0.0
N2227 N 0.20576 0.42531 0.66822 0.0
C2228 C 0.17032 0.43913 0.60135 0.0
C2229 C 0.19746 0.43266 0.64611 0.0
N2230 N 0.21688 0.40167 0.58791 0.0
N2231 N 0.16583 0.48501 0.65661 0.0
H2232 H 0.22293 0.4055 0.67286 0.0
H2233 H 0.19349 0.43705 0.68205 0.0
H2234 H 0.14874 0.50556 0.65324 0.0
H2235 H 0.17895 0.48744 0.67206 0.0
H2236 H 0.2118 0.40721 0.57087 0.0
H2237 H 0.23881 0.38598 0.59038 0.0
H2238 H 0.15863 0.41931 0.56847 0.0
H2239 H 0.13127 0.45292 0.57738 0.0
C2240 C 0.24253 0.22274 0.255 0.0
C2241 C 0.25727 0.23553 0.23462 0.0
C2242 C 0.23413 0.29393 0.24245 0.0
C2243 C 0.22249 0.28189 0.26392 0.0
N2244 N 0.21931 0.23608 0.2922 0.0
N2245 N 0.27072 0.28363 0.2095 0.0
C2246 C 0.22772 0.24661 0.27066 0.0
C2247 C 0.25396 0.27123 0.2284 0.0
N2248 N 0.24217 0.18761 0.25913 0.0
N2249 N 0.22566 0.32685 0.23536 0.0
H2250 H 0.28449 0.26768 0.19828 0.0
H2251 H 0.27285 0.31005 0.20561 0.0
H2252 H 0.21227 0.34459 0.24561 0.0
H2253 H 0.22982 0.33584 0.21886 0.0
H2254 H 0.22849 0.17618 0.27251 0.0
H2255 H 0.25298 0.16944 0.24794 0.0
H2256 H 0.22645 0.21198 0.29893 0.0
H2257 H 0.20757 0.25232 0.30416 0.0
C2258 C 0.01448 0.98783 0.51692 0.0
C2259 C 0.97864 0.98477 0.51101 0.0
C2260 C 0.98832 0.01789 0.47608 0.0
C2261 C 0.02381 0.02238 0.4825 0.0
N2262 N 0.06992 0.01657 0.51007 0.0
N2263 N 0.92987 0.00094 0.4875 0.0
C2264 C 0.0367 0.00876 0.50324 0.0
C2265 C 0.96509 0.00102 0.49131 0.0
N2266 N 0.02741 0.97001 0.53526 0.0
N2267 N 0.977 0.02916 0.45524 0.0
H2268 H 0.91219 0.98841 0.49826 0.0
H2269 H 0.91778 0.01551 0.47481 0.0
H2270 H 0.99269 0.04283 0.44382 0.0
H2271 H 0.95267 0.02299 0.44848 0.0
H2272 H 0.05392 0.96764 0.53879 0.0
H2273 H 0.01183 0.95567 0.5464 0.0
H2274 H 0.07964 0.01095 0.5262 0.0
H2275 H 0.08729 0.0309 0.50007 0.0
C2276 C 0.25798 0.76069 0.76754 0.0
C2277 C 0.26693 0.72614 0.76094 0.0
C2278 C 0.23766 0.73387 0.72435 0.0
C2279 C 0.2295 0.76872 0.73071 0.0
N2280 N 0.23598 0.8175 0.75608 0.0
N2281 N 0.27037 0.68114 0.73241 0.0
C2282 C 0.24089 0.78279 0.75167 0.0
C2283 C 0.2582 0.71309 0.73914 0.0
N2284 N 0.26551 0.77214 0.78905 0.0
N2285 N 0.22491 0.7204 0.70444 0.0
H2286 H 0.28423 0.66451 0.74318 0.0
H2287 H 0.26867 0.67183 0.71581 0.0
H2288 H 0.21163 0.73528 0.6924 0.0
H2289 H 0.22586 0.69403 0.70025 0.0
H2290 H 0.25637 0.7955 0.7958 0.0
H2291 H 0.2793 0.75734 0.8009 0.0
H2292 H 0.24661 0.83046 0.77001 0.0
H2293 H 0.22336 0.83425 0.74475 0.0
C2294 C 0.50067 0.98339 0.98 0.0
C2295 C 0.46465 0.97946 0.98526 0.0
C2296 C 0.47268 0.01121 0.02093 0.0
C2297 C 0.50798 0.01756 0.01478 0.0
N2298 N 0.55487 0.01393 0.98763 0.0
N2299 N 0.415 0.99306 0.0087 0.0
C2300 C 0.52181 0.0048 0.99408 0.0
C2301 C 0.45025 0.99436 0.00517 0.0
N2302 N 0.51488 0.96589 0.96194 0.0
N2303 N 0.46083 0.02067 0.04202 0.0
H2304 H 0.3979 0.98046 0.99758 0.0
H2305 H 0.4023 0.0067 0.02158 0.0
H2306 H 0.47623 0.03357 0.05398 0.0
H2307 H 0.43659 0.01339 0.04844 0.0
H2308 H 0.54159 0.96434 0.95891 0.0
H2309 H 0.50028 0.95074 0.9507 0.0
H2310 H 0.56504 0.00907 0.97151 0.0
H2311 H 0.57155 0.02855 0.99794 0.0
C2312 C 0.26602 0.78621 0.24058 0.0
C2313 C 0.27809 0.77322 0.2617 0.0
C2314 C 0.25846 0.71434 0.25179 0.0
C2315 C 0.24348 0.72796 0.23172 0.0
N2316 N 0.22955 0.77698 0.20746 0.0
N2317 N 0.28258 0.72621 0.28903 0.0
C2318 C 0.24642 0.76394 0.22614 0.0
C2319 C 0.27339 0.73761 0.26779 0.0
N2320 N 0.27399 0.81959 0.23416 0.0
N2321 N 0.25891 0.67905 0.25528 0.0
H2322 H 0.29427 0.74215 0.3012 0.0
H2323 H 0.27623 0.70163 0.29534 0.0
H2324 H 0.24803 0.66135 0.24379 0.0
H2325 H 0.27262 0.66704 0.26842 0.0
H2326 H 0.2696 0.82935 0.21788 0.0
H2327 H 0.28713 0.83706 0.24476 0.0
H2328 H 0.22704 0.80353 0.2041 0.0
H2329 H 0.21616 0.76139 0.19585 0.0
C2330 C 0.50674 0.01928 0.52059 0.0
C2331 C 0.47112 0.02067 0.51384 0.0
C2332 C 0.48385 0.98642 0.4797 0.0
C2333 C 0.51938 0.9846 0.48666 0.0
N2334 N 0.56442 0.99493 0.51439 0.0
N2335 N 0.42575 0.00964 0.48646 0.0
C2336 C 0.5308 -4e-05 0.50726 0.0
C2337 C 0.45963 0.00521 0.49328 0.0
N2338 N 0.51779 0.03778 0.5392 0.0
N2339 N 0.47313 0.96896 0.46059 0.0
H2340 H 0.40701 0.02204 0.49648 0.0
H2341 H 0.41622 0.0027 0.47053 0.0
H2342 H 0.49009 0.95591 0.44967 0.0
H2343 H 0.4472 0.96571 0.45586 0.0
H2344 H 0.54387 0.04142 0.54348 0.0
H2345 H 0.50105 0.05165 0.54983 0.0
H2346 H 0.5735 0.0015 0.53052 0.0
H2347 H 0.58315 0.98213 0.50457 0.0
C2348 C 0.26176 0.24034 0.72656 0.0
C2349 C 0.27116 0.27431 0.73412 0.0
C2350 C 0.23972 0.26512 0.7698 0.0
C2351 C 0.23303 0.23015 0.76302 0.0
N2352 N 0.24127 0.18258 0.73684 0.0
N2353 N 0.27288 0.31818 0.76343 0.0
C2354 C 0.24506 0.21722 0.74191 0.0
C2355 C 0.26114 0.28652 0.75589 0.0
N2356 N 0.26839 0.23039 0.70462 0.0
N2357 N 0.22479 0.27814 0.78917 0.0
H2358 H 0.28738 0.33515 0.75326 0.0
H2359 H 0.27009 0.32678 0.78014 0.0
H2360 H 0.20975 0.2631 0.80024 0.0
H2361 H 0.22532 0.30444 0.79359 0.0
H2362 H 0.25884 0.20749 0.69741 0.0
H2363 H 0.28113 0.24626 0.69287 0.0
H2364 H 0.25286 0.17062 0.72285 0.0
H2365 H 0.22885 0.16496 0.7477 0.0
C2366 C 0.04951 -0.00018 0.99129 0.0
C2367 C 0.03718 0.98273 0.01106 0.0
C2368 C 0.97824 0.00538 0.00448 0.0
C2369 C 0.99 0.02012 0.9838 0.0
N2370 N 0.03524 0.02822 0.95564 0.0
N2371 N 0.98917 0.96476 0.03517 0.0
C2372 C 0.02522 0.01644 0.97664 0.0
C2373 C 0.00135 0.98428 0.01735 0.0
N2374 N 0.08453 0.00078 0.98686 0.0
N2375 N 0.94522 0.01228 0.01208 0.0
H2376 H 0.00514 0.94963 0.04557 0.0
H2377 H 0.96277 0.96148 0.03875 0.0
H2378 H 0.92716 0.0267 0.0027 0.0
H2379 H 0.93644 0.0059 0.02832 0.0
H2380 H 0.09567 0.01597 0.9741 0.0
H2381 H 0.10296 0.98839 0.99714 0.0
H2382 H 0.05943 0.02288 0.94839 0.0
H2383 H 0.01849 0.0413 0.94458 0.0
C2384 C 0.74759 0.72069 0.75509 0.0
C2385 C 0.76264 0.73413 0.73494 0.0
C2386 C 0.74229 0.79299 0.74427 0.0
C2387 C 0.72618 0.77936 0.76402 0.0
N2388 N 0.70793 0.72979 0.7866 0.0
N2389 N 0.76969 0.78116 0.70793 0.0
C2390 C 0.72713 0.74303 0.76896 0.0
C2391 C 0.75847 0.76973 0.72874 0.0
N2392 N 0.75386 0.68687 0.76131 0.0
N2393 N 0.74302 0.82828 0.74078 0.0
H2394 H 0.78228 0.76511 0.6962 0.0
H2395 H 0.76417 0.8058 0.70142 0.0
H2396 H 0.7308 0.84602 0.75163 0.0
H2397 H 0.75774 0.84029 0.72812 0.0
H2398 H 0.74745 0.67664 0.77718 0.0
H2399 H 0.76743 0.66935 0.75099 0.0
H2400 H 0.70435 0.70321 0.78941 0.0
H2401 H 0.69333 0.74522 0.79767 0.0
C2402 C 0.73033 0.23223 0.22779 0.0
C2403 C 0.72619 0.26795 0.23373 0.0
C2404 C 0.75947 0.25876 0.26872 0.0
C2405 C 0.76127 0.22253 0.26357 0.0
N2406 N 0.7441 0.1736 0.2405 0.0
N2407 N 0.73225 0.31463 0.26086 0.0
C2408 C 0.74536 0.20892 0.24377 0.0
C2409 C 0.73945 0.28107 0.25451 0.0
N2410 N 0.7206 0.22076 0.20669 0.0
N2411 N 0.77784 0.27204 0.28671 0.0
H2412 H 0.7188 0.33209 0.25044 0.0
H2413 H 0.73755 0.32453 0.277 0.0
H2414 H 0.79206 0.25662 0.29799 0.0
H2415 H 0.78097 0.29864 0.28965 0.0
H2416 H 0.72642 0.196 0.20047 0.0
H2417 H 0.70918 0.23687 0.19451 0.0
H2418 H 0.72965 0.16172 0.22766 0.0
H2419 H 0.75513 0.15584 0.25189 0.0
C2420 C 0.74147 0.20219 0.75124 0.0
C2421 C 0.73143 0.2178 0.73045 0.0
C2422 C 0.76226 0.27165 0.74066 0.0
C2423 C 0.76944 0.25717 0.76231 0.0
N2424 N 0.76358 0.21027 0.78953 0.0
N2425 N 0.72915 0.26808 0.70565 0.0
C2426 C 0.75842 0.22283 0.76799 0.0
C2427 C 0.7411 0.2527 0.72516 0.0
N2428 N 0.73532 0.16743 0.75471 0.0
N2429 N 0.77637 0.30318 0.73476 0.0
H2430 H 0.71507 0.2547 0.69325 0.0
H2431 H 0.7314 0.29465 0.70226 0.0
H2432 H 0.79092 0.3184 0.74602 0.0
H2433 H 0.77568 0.31331 0.71833 0.0
H2434 H 0.74507 0.15344 0.7685 0.0
H2435 H 0.72278 0.15172 0.74273 0.0
H2436 H 0.75288 0.18704 0.79549 0.0
H2437 H 0.77659 0.22423 0.80217 0.0
C2438 C 0.77586 0.74702 0.22767 0.0
C2439 C 0.7815 0.78263 0.23345 0.0
C2440 C 0.75115 0.7744 0.26961 0.0
C2441 C 0.74715 0.73845 0.26426 0.0
N2442 N 0.76077 0.68892 0.24078 0.0
N2443 N 0.77957 0.82936 0.26081 0.0
C2444 C 0.76111 0.72427 0.24405 0.0
C2445 C 0.77062 0.79609 0.25472 0.0
N2446 N 0.78393 0.73513 0.20636 0.0
N2447 N 0.73542 0.78797 0.28854 0.0
H2448 H 0.79266 0.84641 0.24991 0.0
H2449 H 0.77604 0.83941 0.27711 0.0
H2450 H 0.72225 0.77274 0.30048 0.0
H2451 H 0.73365 0.81459 0.29185 0.0
H2452 H 0.77672 0.71063 0.20031 0.0
H2453 H 0.79553 0.7506 0.19391 0.0
H2454 H 0.77379 0.67648 0.22753 0.0
H2455 H 0.74998 0.67159 0.25255 0.0
C2456 C 0.50874 0.48011 0.01682 0.0
C2457 C 0.47278 0.47781 0.01098 0.0
C2458 C 0.48356 0.50939 0.97556 0.0
C2459 C 0.51877 0.51453 0.98242 0.0
N2460 N 0.56447 0.50842 0.01023 0.0
N2461 N 0.42473 0.49335 0.98665 0.0
C2462 C 0.5313 0.5008 0.00321 0.0
C2463 C 0.45984 0.49328 0.99083 0.0
N2464 N 0.5215 0.46181 0.035 0.0
N2465 N 0.47295 0.51949 0.95433 0.0
H2466 H 0.40667 0.48129 0.99737 0.0
H2467 H 0.41312 0.50758 0.9736 0.0
H2468 H 0.48925 0.53202 0.94273 0.0
H2469 H 0.44879 0.51302 0.94742 0.0
H2470 H 0.54799 0.45912 0.03847 0.0
H2471 H 0.50586 0.44712 0.0459 0.0
H2472 H 0.57382 0.50293 0.02647 0.0
H2473 H 0.58217 0.52229 0.00021 0.0
C2474 C 0.02315 0.49895 0.49601 0.0
C2475 C 0.00999 0.51446 0.51609 0.0
C2476 C 0.95091 0.49436 0.50703 0.0
C2477 C 0.96432 0.47748 0.48749 0.0
N2478 N 0.01364 0.45862 0.46491 0.0
N2479 N 0.9631 0.52284 0.543 0.0
C2480 C 0.00062 0.47824 0.48242 0.0
C2481 C 0.97435 0.51087 0.52232 0.0
N2482 N 0.05694 0.50497 0.4896 0.0
N2483 N 0.91565 0.49542 0.51057 0.0
H2484 H 0.97929 0.53572 0.55452 0.0
H2485 H 0.93842 0.51774 0.5496 0.0
H2486 H 0.89779 0.48293 0.49992 0.0
H2487 H 0.90379 0.51062 0.52304 0.0
H2488 H 0.06699 0.49815 0.47375 0.0
H2489 H 0.07459 0.51885 0.49965 0.0
H2490 H 0.04018 0.45485 0.46208 0.0
H2491 H 0.99809 0.44387 0.454 0.0
C2492 C 0.03656 0.49834 0.00095 0.0
C2493 C 0.02077 0.48502 0.98103 0.0
C2494 C 0.9652 0.5125 0.99116 0.0
C2495 C 0.98015 0.52303 0.01207 0.0
N2496 N 0.02858 0.52331 0.03845 0.0
N2497 N 0.96968 0.47613 0.9576 0.0
C2498 C 0.01547 0.51523 0.01743 0.0
C2499 C 0.98498 0.49129 0.97617 0.0
N2500 N 0.07184 0.49534 0.00383 0.0
N2501 N 0.93239 0.52347 0.98546 0.0
H2502 H 0.98352 0.46179 0.94554 0.0
H2503 H 0.94288 0.47597 0.95474 0.0
H2504 H 0.91669 0.53803 0.99642 0.0
H2505 H 0.92151 0.52021 0.96936 0.0
H2506 H 0.08564 0.50763 0.01681 0.0
H2507 H 0.08794 0.48284 0.99206 0.0
H2508 H 0.05276 0.51483 0.04429 0.0
H2509 H 0.01433 0.53644 0.05089 0.0
C2510 C 0.52259 0.51223 0.47467 0.0
C2511 C 0.48694 0.51859 0.47983 0.0
C2512 C 0.49184 0.4848 0.51496 0.0
C2513 C 0.52801 0.48031 0.5105 0.0
N2514 N 0.57916 0.49264 0.48814 0.0
N2515 N 0.43811 0.51496 0.50551 0.0
C2516 C 0.54377 0.49479 0.49088 0.0
C2517 C 0.47164 0.5059 0.50013 0.0
N2518 N 0.53601 0.5225 0.45414 0.0
N2519 N 0.47671 0.46835 0.53314 0.0
H2520 H 0.42209 0.52926 0.49459 0.0
H2521 H 0.42671 0.51026 0.52129 0.0
H2522 H 0.49077 0.45406 0.54513 0.0
H2523 H 0.44989 0.46701 0.53573 0.0
H2524 H 0.56054 0.51522 0.44825 0.0
H2525 H 0.52178 0.53652 0.44211 0.0
H2526 H 0.59294 0.5059 0.47557 0.0
H2527 H 0.59535 0.47945 0.49953 0.0
loop_
_geom_bond_atom_site_label_1
_geom_bond_atom_site_label_2
_geom_bond_distance
_geom_bond_site_symmetry_2
_ccdc_geom_bond_type
Co0 O3 1.970 . S
Co0 N17 1.989 . S
Co0 O25 1.967 . S
Co0 O32 1.920 . S
Co1 O4 1.966 . S
Co1 N10 2.022 . S
Co1 N18 1.993 . S
Co1 O26 1.941 . S
C2 O3 1.258 . S
C2 O4 1.263 . S
O3 Co0 1.970 . S
O3 C2 1.258 . S
O4 Co1 1.966 . S
O4 C2 1.263 . S
C5 O6 1.235 . S
C5 O32 1.289 . S
O6 C5 1.235 . S
C7 C9 1.400 . S
C7 N10 1.351 . S
C7 C12 1.501 . S
C8 C9 1.387 . S
C8 N11 1.341 . S
C9 C7 1.400 . S
C9 C8 1.387 . S
N10 Co1 2.022 . S
N10 C7 1.351 . S
N10 N11 1.365 . S
N11 C8 1.341 . S
N11 N10 1.365 . S
N11 H31 0.862 . S
C12 C7 1.501 . S
C12 H13 0.961 . S
C12 H14 0.961 . S
C12 H15 0.960 . S
H13 C12 0.961 . S
H14 C12 0.961 . S
H15 C12 0.960 . S
C16 N17 1.342 . S
C16 C20 1.401 . S
C16 C21 1.499 . S
N17 Co0 1.989 . S
N17 C16 1.342 . S
N17 N18 1.388 . S
N18 Co1 1.993 . S
N18 N17 1.388 . S
N18 C19 1.346 . S
C19 N18 1.346 . S
C19 C20 1.396 . S
C19 C29 1.510 . S
C20 C16 1.401 . S
C20 C19 1.396 . S
C21 C16 1.499 . S
C21 H22 0.959 . S
C21 H23 0.960 . S
C21 H24 0.961 . S
H22 C21 0.959 . S
H23 C21 0.960 . S
H24 C21 0.961 . S
O25 Co0 1.967 . S
O25 C33 1.258 . S
O26 Co1 1.941 . S
O26 C33 1.266 . S
H27 C29 0.959 . S
H28 C29 0.961 . S
C29 C19 1.510 . S
C29 H27 0.959 . S
C29 H28 0.961 . S
C29 H30 0.960 . S
H30 C29 0.960 . S
H31 N11 0.862 . S
O32 Co0 1.920 . S
O32 C5 1.289 . S
C33 O25 1.258 . S
C33 O26 1.266 . S
Co34 O37 1.970 . S
Co34 N51 1.989 . S
Co34 O59 1.967 . S
Co34 O66 1.920 . S
Co35 O38 1.966 . S
Co35 N44 2.022 . S
Co35 N52 1.993 . S
Co35 O60 1.941 . S
C36 O37 1.258 . S
C36 O38 1.263 . S
O37 Co34 1.970 . S
O37 C36 1.258 . S
O38 Co35 1.966 . S
O38 C36 1.263 . S
C39 O40 1.235 . S
C39 O66 1.289 . S
O40 C39 1.235 . S
C41 C43 1.400 1_545 S
C41 N44 1.351 . S
C41 C46 1.501 . S
C42 C43 1.387 . S
C42 N45 1.341 1_565 S
C43 C41 1.400 1_565 S
C43 C42 1.387 . S
N44 Co35 2.022 . S
N44 C41 1.351 . S
N44 N45 1.365 . S
N45 C42 1.341 1_545 S
N45 N44 1.365 . S
N45 H65 0.862 . S
C46 C41 1.501 . S
C46 H47 0.961 . S
C46 H48 0.961 . S
C46 H49 0.960 . S
H47 C46 0.961 . S
H48 C46 0.961 . S
H49 C46 0.960 . S
C50 N51 1.342 . S
C50 C54 1.401 . S
C50 C55 1.499 . S
N51 Co34 1.989 . S
N51 C50 1.342 . S
N51 N52 1.388 . S
N52 Co35 1.993 . S
N52 N51 1.388 . S
N52 C53 1.346 . S
C53 N52 1.346 . S
C53 C54 1.396 . S
C53 C63 1.510 . S
C54 C50 1.401 . S
C54 C53 1.396 . S
C55 C50 1.499 . S
C55 H56 0.959 . S
C55 H57 0.960 . S
C55 H58 0.961 . S
H56 C55 0.959 . S
H57 C55 0.960 . S
H58 C55 0.961 . S
O59 Co34 1.967 . S
O59 C67 1.258 . S
O60 Co35 1.941 . S
O60 C67 1.266 . S
H61 C63 0.959 1_565 S
H62 C63 0.961 . S
C63 C53 1.510 . S
C63 H61 0.959 1_545 S
C63 H62 0.961 . S
C63 H64 0.960 . S
H64 C63 0.960 . S
H65 N45 0.862 . S
O66 Co34 1.920 . S
O66 C39 1.289 . S
C67 O59 1.258 . S
C67 O60 1.266 . S
Co68 O71 1.970 . S
Co68 N85 1.989 . S
Co68 O93 1.967 . S
Co68 O100 1.920 . S
Co69 O72 1.966 . S
Co69 N78 2.022 . S
Co69 N86 1.993 . S
Co69 O94 1.941 . S
C70 O71 1.258 . S
C70 O72 1.263 . S
O71 Co68 1.970 . S
O71 C70 1.258 . S
O72 Co69 1.966 . S
O72 C70 1.263 . S
C73 O74 1.235 . S
C73 O100 1.289 . S
O74 C73 1.235 . S
C75 C77 1.400 . S
C75 N78 1.351 . S
C75 C80 1.501 . S
C76 C77 1.387 . S
C76 N79 1.341 . S
C77 C75 1.400 . S
C77 C76 1.387 . S
N78 Co69 2.022 . S
N78 C75 1.351 . S
N78 N79 1.365 . S
N79 C76 1.341 . S
N79 N78 1.365 . S
N79 H99 0.862 . S
C80 C75 1.501 . S
C80 H81 0.961 . S
C80 H82 0.961 . S
C80 H83 0.960 . S
H81 C80 0.961 . S
H82 C80 0.961 . S
H83 C80 0.960 . S
C84 N85 1.342 . S
C84 C88 1.401 . S
C84 C89 1.499 . S
N85 Co68 1.989 . S
N85 C84 1.342 . S
N85 N86 1.388 . S
N86 Co69 1.993 . S
N86 N85 1.388 . S
N86 C87 1.346 . S
C87 N86 1.346 . S
C87 C88 1.396 . S
C87 C97 1.510 . S
C88 C84 1.401 . S
C88 C87 1.396 . S
C89 C84 1.499 . S
C89 H90 0.959 . S
C89 H91 0.960 . S
C89 H92 0.961 . S
H90 C89 0.959 . S
H91 C89 0.960 . S
H92 C89 0.961 . S
O93 Co68 1.967 . S
O93 C101 1.258 . S
O94 Co69 1.941 . S
O94 C101 1.266 . S
H95 C97 0.959 . S
H96 C97 0.961 . S
C97 C87 1.510 . S
C97 H95 0.959 . S
C97 H96 0.961 . S
C97 H98 0.960 . S
H98 C97 0.960 . S
H99 N79 0.862 . S
O100 Co68 1.920 . S
O100 C73 1.289 . S
C101 O93 1.258 . S
C101 O94 1.266 . S
Co102 O105 1.970 . S
Co102 N119 1.989 . S
Co102 O127 1.967 . S
Co102 O134 1.920 . S
Co103 O106 1.966 . S
Co103 N112 2.022 . S
Co103 N120 1.993 . S
Co103 O128 1.941 . S
C104 O105 1.258 . S
C104 O106 1.263 . S
O105 Co102 1.970 . S
O105 C104 1.258 . S
O106 Co103 1.966 . S
O106 C104 1.263 . S
C107 O108 1.235 . S
C107 O134 1.289 . S
O108 C107 1.235 . S
C109 C111 1.400 1_565 S
C109 N112 1.351 . S
C109 C114 1.501 . S
C110 C111 1.387 . S
C110 N113 1.341 1_545 S
C111 C109 1.400 1_545 S
C111 C110 1.387 . S
N112 Co103 2.022 . S
N112 C109 1.351 . S
N112 N113 1.365 . S
N113 C110 1.341 1_565 S
N113 N112 1.365 . S
N113 H133 0.862 . S
C114 C109 1.501 . S
C114 H115 0.961 . S
C114 H116 0.961 . S
C114 H117 0.960 . S
H115 C114 0.961 . S
H116 C114 0.961 . S
H117 C114 0.960 . S
C118 N119 1.342 . S
C118 C122 1.401 . S
C118 C123 1.499 . S
N119 Co102 1.989 . S
N119 C118 1.342 . S
N119 N120 1.388 . S
N120 Co103 1.993 . S
N120 N119 1.388 . S
N120 C121 1.346 . S
C121 N120 1.346 . S
C121 C122 1.396 . S
C121 C131 1.510 . S
C122 C118 1.401 . S
C122 C121 1.396 . S
C123 C118 1.499 . S
C123 H124 0.959 . S
C123 H125 0.960 1_556 S
C123 H126 0.961 . S
H124 C123 0.959 . S
H125 C123 0.960 1_554 S
H126 C123 0.961 . S
O127 Co102 1.967 . S
O127 C135 1.258 . S
O128 Co103 1.941 . S
O128 C135 1.266 . S
H129 C131 0.959 1_545 S
H130 C131 0.961 . S
C131 C121 1.510 . S
C131 H129 0.959 1_565 S
C131 H130 0.961 . S
C131 H132 0.960 . S
H132 C131 0.960 . S
H133 N113 0.862 . S
O134 Co102 1.920 . S
O134 C107 1.289 . S
C135 O127 1.258 . S
C135 O128 1.266 . S
Co136 O139 1.970 . S
Co136 N153 1.989 . S
Co136 O161 1.967 . S
Co136 O168 1.920 . S
Co137 O140 1.966 . S
Co137 N146 2.022 . S
Co137 N154 1.993 . S
Co137 O162 1.941 . S
C138 O139 1.258 . S
C138 O140 1.263 . S
O139 Co136 1.970 . S
O139 C138 1.258 . S
O140 Co137 1.966 . S
O140 C138 1.263 . S
C141 O142 1.235 . S
C141 O168 1.289 . S
O142 C141 1.235 . S
C143 C145 1.400 . S
C143 N146 1.351 . S
C143 C148 1.501 . S
C144 C145 1.387 . S
C144 N147 1.341 . S
C145 C143 1.400 . S
C145 C144 1.387 . S
N146 Co137 2.022 . S
N146 C143 1.351 . S
N146 N147 1.365 . S
N147 C144 1.341 . S
N147 N146 1.365 . S
N147 H167 0.862 . S
C148 C143 1.501 . S
C148 H149 0.961 . S
C148 H150 0.961 . S
C148 H151 0.960 . S
H149 C148 0.961 . S
H150 C148 0.961 . S
H151 C148 0.960 . S
C152 N153 1.342 . S
C152 C156 1.401 . S
C152 C157 1.499 . S
N153 Co136 1.989 . S
N153 C152 1.342 . S
N153 N154 1.388 . S
N154 Co137 1.993 . S
N154 N153 1.388 . S
N154 C155 1.346 . S
C155 N154 1.346 . S
C155 C156 1.396 . S
C155 C165 1.510 . S
C156 C152 1.401 . S
C156 C155 1.396 . S
C157 C152 1.499 . S
C157 H158 0.959 . S
C157 H159 0.960 . S
C157 H160 0.961 . S
H158 C157 0.959 . S
H159 C157 0.960 . S
H160 C157 0.961 . S
O161 Co136 1.967 . S
O161 C169 1.258 . S
O162 Co137 1.941 . S
O162 C169 1.266 . S
H163 C165 0.959 . S
H164 C165 0.961 . S
C165 C155 1.510 . S
C165 H163 0.959 . S
C165 H164 0.961 . S
C165 H166 0.960 . S
H166 C165 0.960 . S
H167 N147 0.862 . S
O168 Co136 1.920 . S
O168 C141 1.289 . S
C169 O161 1.258 . S
C169 O162 1.266 . S
Co170 O173 1.970 . S
Co170 N187 1.989 . S
Co170 O195 1.967 . S
Co170 O202 1.920 . S
Co171 O174 1.966 . S
Co171 N180 2.022 . S
Co171 N188 1.993 . S
Co171 O196 1.941 . S
C172 O173 1.258 . S
C172 O174 1.263 . S
O173 Co170 1.970 . S
O173 C172 1.258 . S
O174 Co171 1.966 . S
O174 C172 1.263 . S
C175 O176 1.235 . S
C175 O202 1.289 . S
O176 C175 1.235 . S
C177 C179 1.400 1_545 S
C177 N180 1.351 . S
C177 C182 1.501 . S
C178 C179 1.387 . S
C178 N181 1.341 1_565 S
C179 C177 1.400 1_565 S
C179 C178 1.387 . S
N180 Co171 2.022 . S
N180 C177 1.351 . S
N180 N181 1.365 . S
N181 C178 1.341 1_545 S
N181 N180 1.365 . S
N181 H201 0.862 . S
C182 C177 1.501 . S
C182 H183 0.961 . S
C182 H184 0.961 . S
C182 H185 0.960 . S
H183 C182 0.961 . S
H184 C182 0.961 . S
H185 C182 0.960 . S
C186 N187 1.342 . S
C186 C190 1.401 . S
C186 C191 1.499 . S
N187 Co170 1.989 . S
N187 C186 1.342 . S
N187 N188 1.388 . S
N188 Co171 1.993 . S
N188 N187 1.388 . S
N188 C189 1.346 . S
C189 N188 1.346 . S
C189 C190 1.396 . S
C189 C199 1.510 . S
C190 C186 1.401 . S
C190 C189 1.396 . S
C191 C186 1.499 . S
C191 H192 0.959 . S
C191 H193 0.960 . S
C191 H194 0.961 . S
H192 C191 0.959 . S
H193 C191 0.960 . S
H194 C191 0.961 . S
O195 Co170 1.967 . S
O195 C203 1.258 . S
O196 Co171 1.941 . S
O196 C203 1.266 . S
H197 C199 0.959 1_565 S
H198 C199 0.961 . S
C199 C189 1.510 . S
C199 H197 0.959 1_545 S
C199 H198 0.961 . S
C199 H200 0.960 . S
H200 C199 0.960 . S
H201 N181 0.862 . S
O202 Co170 1.920 . S
O202 C175 1.289 . S
C203 O195 1.258 . S
C203 O196 1.266 . S
Co204 O207 1.970 . S
Co204 N221 1.989 . S
Co204 O229 1.967 . S
Co204 O236 1.920 . S
Co205 O208 1.966 . S
Co205 N214 2.022 . S
Co205 N222 1.993 . S
Co205 O230 1.941 . S
C206 O207 1.258 . S
C206 O208 1.263 . S
O207 Co204 1.970 . S
O207 C206 1.258 . S
O208 Co205 1.966 . S
O208 C206 1.263 . S
C209 O210 1.235 . S
C209 O236 1.289 . S
O210 C209 1.235 . S
C211 C213 1.400 . S
C211 N214 1.351 . S
C211 C216 1.501 . S
C212 C213 1.387 . S
C212 N215 1.341 . S
C213 C211 1.400 . S
C213 C212 1.387 . S
N214 Co205 2.022 . S
N214 C211 1.351 . S
N214 N215 1.365 . S
N215 C212 1.341 . S
N215 N214 1.365 . S
N215 H235 0.862 . S
C216 C211 1.501 . S
C216 H217 0.961 . S
C216 H218 0.961 . S
C216 H219 0.960 . S
H217 C216 0.961 . S
H218 C216 0.961 . S
H219 C216 0.960 . S
C220 N221 1.342 . S
C220 C224 1.401 . S
C220 C225 1.499 . S
N221 Co204 1.989 . S
N221 C220 1.342 . S
N221 N222 1.388 . S
N222 Co205 1.993 . S
N222 N221 1.388 . S
N222 C223 1.346 . S
C223 N222 1.346 . S
C223 C224 1.396 . S
C223 C233 1.510 . S
C224 C220 1.401 . S
C224 C223 1.396 . S
C225 C220 1.499 . S
C225 H226 0.959 . S
C225 H227 0.960 . S
C225 H228 0.961 . S
H226 C225 0.959 . S
H227 C225 0.960 . S
H228 C225 0.961 . S
O229 Co204 1.967 . S
O229 C237 1.258 . S
O230 Co205 1.941 . S
O230 C237 1.266 . S
H231 C233 0.959 . S
H232 C233 0.961 . S
C233 C223 1.510 . S
C233 H231 0.959 . S
C233 H232 0.961 . S
C233 H234 0.960 . S
H234 C233 0.960 . S
H235 N215 0.862 . S
O236 Co204 1.920 . S
O236 C209 1.289 . S
C237 O229 1.258 . S
C237 O230 1.266 . S
Co238 O241 1.970 . S
Co238 N255 1.989 . S
Co238 O263 1.967 . S
Co238 O270 1.920 . S
Co239 O242 1.966 . S
Co239 N248 2.022 . S
Co239 N256 1.993 . S
Co239 O264 1.941 . S
C240 O241 1.258 . S
C240 O242 1.263 . S
O241 Co238 1.970 . S
O241 C240 1.258 . S
O242 Co239 1.966 . S
O242 C240 1.263 . S
C243 O244 1.235 . S
C243 O270 1.289 . S
O244 C243 1.235 . S
C245 C247 1.400 1_565 S
C245 N248 1.351 . S
C245 C250 1.501 . S
C246 C247 1.387 . S
C246 N249 1.341 1_545 S
C247 C245 1.400 1_545 S
C247 C246 1.387 . S
N248 Co239 2.022 . S
N248 C245 1.351 . S
N248 N249 1.365 . S
N249 C246 1.341 1_565 S
N249 N248 1.365 . S
N249 H269 0.862 . S
C250 C245 1.501 . S
C250 H251 0.961 . S
C250 H252 0.961 . S
C250 H253 0.960 . S
H251 C250 0.961 . S
H252 C250 0.961 . S
H253 C250 0.960 . S
C254 N255 1.342 . S
C254 C258 1.401 . S
C254 C259 1.499 . S
N255 Co238 1.989 . S
N255 C254 1.342 . S
N255 N256 1.388 . S
N256 Co239 1.993 . S
N256 N255 1.388 . S
N256 C257 1.346 . S
C257 N256 1.346 . S
C257 C258 1.396 . S
C257 C267 1.510 . S
C258 C254 1.401 . S
C258 C257 1.396 . S
C259 C254 1.499 . S
C259 H260 0.959 . S
C259 H261 0.960 1_554 S
C259 H262 0.961 . S
H260 C259 0.959 . S
H261 C259 0.960 1_556 S
H262 C259 0.961 . S
O263 Co238 1.967 . S
O263 C271 1.258 . S
O264 Co239 1.941 . S
O264 C271 1.266 . S
H265 C267 0.959 1_545 S
H266 C267 0.961 . S
C267 C257 1.510 . S
C267 H265 0.959 1_565 S
C267 H266 0.961 . S
C267 H268 0.960 . S
H268 C267 0.960 . S
H269 N249 0.862 . S
O270 Co238 1.920 . S
O270 C243 1.289 . S
C271 O263 1.258 . S
C271 O264 1.266 . S
Co272 O275 1.970 . S
Co272 N289 1.989 . S
Co272 O297 1.967 . S
Co272 O304 1.920 . S
Co273 O276 1.966 . S
Co273 N282 2.022 . S
Co273 N290 1.993 . S
Co273 O298 1.941 . S
C274 O275 1.258 . S
C274 O276 1.263 . S
O275 Co272 1.970 . S
O275 C274 1.258 . S
O276 Co273 1.966 . S
O276 C274 1.263 . S
C277 O278 1.235 . S
C277 O304 1.289 . S
O278 C277 1.235 . S
C279 C281 1.400 . S
C279 N282 1.351 . S
C279 C284 1.501 . S
C280 C281 1.387 . S
C280 N283 1.341 . S
C281 C279 1.400 . S
C281 C280 1.387 . S
N282 Co273 2.022 . S
N282 C279 1.351 . S
N282 N283 1.365 . S
N283 C280 1.341 . S
N283 N282 1.365 . S
N283 H303 0.862 . S
C284 C279 1.501 . S
C284 H285 0.961 . S
C284 H286 0.961 . S
C284 H287 0.960 . S
H285 C284 0.961 . S
H286 C284 0.961 . S
H287 C284 0.960 . S
C288 N289 1.342 . S
C288 C292 1.401 . S
C288 C293 1.499 . S
N289 Co272 1.989 . S
N289 C288 1.342 . S
N289 N290 1.388 . S
N290 Co273 1.993 . S
N290 N289 1.388 . S
N290 C291 1.346 . S
C291 N290 1.346 . S
C291 C292 1.396 . S
C291 C301 1.510 . S
C292 C288 1.401 . S
C292 C291 1.396 . S
C293 C288 1.499 . S
C293 H294 0.959 . S
C293 H295 0.960 . S
C293 H296 0.961 . S
H294 C293 0.959 . S
H295 C293 0.960 . S
H296 C293 0.961 . S
O297 Co272 1.967 . S
O297 C305 1.258 . S
O298 Co273 1.941 . S
O298 C305 1.266 . S
H299 C301 0.959 . S
H300 C301 0.961 . S
C301 C291 1.510 . S
C301 H299 0.959 . S
C301 H300 0.961 . S
C301 H302 0.960 . S
H302 C301 0.960 . S
H303 N283 0.862 . S
O304 Co272 1.920 . S
O304 C277 1.289 . S
C305 O297 1.258 . S
C305 O298 1.266 . S
Co306 O309 1.970 . S
Co306 N323 1.989 . S
Co306 O331 1.967 . S
Co306 O338 1.920 . S
Co307 O310 1.966 . S
Co307 N316 2.022 . S
Co307 N324 1.993 . S
Co307 O332 1.941 . S
C308 O309 1.258 . S
C308 O310 1.263 . S
O309 Co306 1.970 . S
O309 C308 1.258 . S
O310 Co307 1.966 . S
O310 C308 1.263 . S
C311 O312 1.235 . S
C311 O338 1.289 . S
O312 C311 1.235 . S
C313 C315 1.400 1_565 S
C313 N316 1.351 . S
C313 C318 1.501 . S
C314 C315 1.387 . S
C314 N317 1.341 1_545 S
C315 C313 1.400 1_545 S
C315 C314 1.387 . S
N316 Co307 2.022 . S
N316 C313 1.351 . S
N316 N317 1.365 . S
N317 C314 1.341 1_565 S
N317 N316 1.365 . S
N317 H337 0.862 . S
C318 C313 1.501 . S
C318 H319 0.961 . S
C318 H320 0.961 . S
C318 H321 0.960 . S
H319 C318 0.961 . S
H320 C318 0.961 . S
H321 C318 0.960 . S
C322 N323 1.342 . S
C322 C326 1.401 . S
C322 C327 1.499 . S
N323 Co306 1.989 . S
N323 C322 1.342 . S
N323 N324 1.388 . S
N324 Co307 1.993 . S
N324 N323 1.388 . S
N324 C325 1.346 . S
C325 N324 1.346 . S
C325 C326 1.396 . S
C325 C335 1.510 . S
C326 C322 1.401 . S
C326 C325 1.396 . S
C327 C322 1.499 . S
C327 H328 0.959 . S
C327 H329 0.960 . S
C327 H330 0.961 . S
H328 C327 0.959 . S
H329 C327 0.960 . S
H330 C327 0.961 . S
O331 Co306 1.967 . S
O331 C339 1.258 . S
O332 Co307 1.941 . S
O332 C339 1.266 . S
H333 C335 0.959 1_545 S
H334 C335 0.961 . S
C335 C325 1.510 . S
C335 H333 0.959 1_565 S
C335 H334 0.961 . S
C335 H336 0.960 . S
H336 C335 0.960 . S
H337 N317 0.862 . S
O338 Co306 1.920 . S
O338 C311 1.289 . S
C339 O331 1.258 . S
C339 O332 1.266 . S
Co340 O343 1.970 . S
Co340 N357 1.989 . S
Co340 O365 1.967 . S
Co340 O372 1.920 . S
Co341 O344 1.966 . S
Co341 N350 2.022 . S
Co341 N358 1.993 . S
Co341 O366 1.941 . S
C342 O343 1.258 . S
C342 O344 1.263 . S
O343 Co340 1.970 . S
O343 C342 1.258 . S
O344 Co341 1.966 . S
O344 C342 1.263 . S
C345 O346 1.235 . S
C345 O372 1.289 . S
O346 C345 1.235 . S
C347 C349 1.400 . S
C347 N350 1.351 . S
C347 C352 1.501 . S
C348 C349 1.387 . S
C348 N351 1.341 . S
C349 C347 1.400 . S
C349 C348 1.387 . S
N350 Co341 2.022 . S
N350 C347 1.351 . S
N350 N351 1.365 . S
N351 C348 1.341 . S
N351 N350 1.365 . S
N351 H371 0.862 . S
C352 C347 1.501 . S
C352 H353 0.961 . S
C352 H354 0.961 . S
C352 H355 0.960 . S
H353 C352 0.961 . S
H354 C352 0.961 . S
H355 C352 0.960 . S
C356 N357 1.342 . S
C356 C360 1.401 . S
C356 C361 1.499 . S
N357 Co340 1.989 . S
N357 C356 1.342 . S
N357 N358 1.388 . S
N358 Co341 1.993 . S
N358 N357 1.388 . S
N358 C359 1.346 . S
C359 N358 1.346 . S
C359 C360 1.396 . S
C359 C369 1.510 . S
C360 C356 1.401 . S
C360 C359 1.396 . S
C361 C356 1.499 . S
C361 H362 0.959 . S
C361 H363 0.960 . S
C361 H364 0.961 . S
H362 C361 0.959 . S
H363 C361 0.960 . S
H364 C361 0.961 . S
O365 Co340 1.967 . S
O365 C373 1.258 . S
O366 Co341 1.941 . S
O366 C373 1.266 . S
H367 C369 0.959 . S
H368 C369 0.961 . S
C369 C359 1.510 . S
C369 H367 0.959 . S
C369 H368 0.961 . S
C369 H370 0.960 . S
H370 C369 0.960 . S
H371 N351 0.862 . S
O372 Co340 1.920 . S
O372 C345 1.289 . S
C373 O365 1.258 . S
C373 O366 1.266 . S
Co374 O377 1.970 . S
Co374 N391 1.989 . S
Co374 O399 1.967 . S
Co374 O406 1.920 . S
Co375 O378 1.966 . S
Co375 N384 2.022 . S
Co375 N392 1.993 . S
Co375 O400 1.941 . S
C376 O377 1.258 . S
C376 O378 1.263 . S
O377 Co374 1.970 . S
O377 C376 1.258 . S
O378 Co375 1.966 . S
O378 C376 1.263 . S
C379 O380 1.235 . S
C379 O406 1.289 . S
O380 C379 1.235 . S
C381 C383 1.400 1_545 S
C381 N384 1.351 . S
C381 C386 1.501 . S
C382 C383 1.387 . S
C382 N385 1.341 1_565 S
C383 C381 1.400 1_565 S
C383 C382 1.387 . S
N384 Co375 2.022 . S
N384 C381 1.351 . S
N384 N385 1.365 . S
N385 C382 1.341 1_545 S
N385 N384 1.365 . S
N385 H405 0.862 . S
C386 C381 1.501 . S
C386 H387 0.961 . S
C386 H388 0.961 . S
C386 H389 0.960 . S
H387 C386 0.961 . S
H388 C386 0.961 . S
H389 C386 0.960 . S
C390 N391 1.342 . S
C390 C394 1.401 . S
C390 C395 1.499 . S
N391 Co374 1.989 . S
N391 C390 1.342 . S
N391 N392 1.388 . S
N392 Co375 1.993 . S
N392 N391 1.388 . S
N392 C393 1.346 . S
C393 N392 1.346 . S
C393 C394 1.396 . S
C393 C403 1.510 . S
C394 C390 1.401 . S
C394 C393 1.396 . S
C395 C390 1.499 . S
C395 H396 0.959 . S
C395 H397 0.960 1_554 S
C395 H398 0.961 . S
H396 C395 0.959 . S
H397 C395 0.960 1_556 S
H398 C395 0.961 . S
O399 Co374 1.967 . S
O399 C407 1.258 . S
O400 Co375 1.941 . S
O400 C407 1.266 . S
H401 C403 0.959 1_565 S
H402 C403 0.961 . S
C403 C393 1.510 . S
C403 H401 0.959 1_545 S
C403 H402 0.961 . S
C403 H404 0.960 . S
H404 C403 0.960 . S
H405 N385 0.862 . S
O406 Co374 1.920 . S
O406 C379 1.289 . S
C407 O399 1.258 . S
C407 O400 1.266 . S
Co408 O411 1.970 . S
Co408 N425 1.989 . S
Co408 O433 1.967 . S
Co408 O440 1.920 . S
Co409 O412 1.966 . S
Co409 N418 2.022 . S
Co409 N426 1.993 . S
Co409 O434 1.941 . S
C410 O411 1.258 . S
C410 O412 1.263 . S
O411 Co408 1.970 . S
O411 C410 1.258 . S
O412 Co409 1.966 . S
O412 C410 1.263 . S
C413 O414 1.235 . S
C413 O440 1.289 . S
O414 C413 1.235 . S
C415 C417 1.400 . S
C415 N418 1.351 . S
C415 C420 1.501 . S
C416 C417 1.387 . S
C416 N419 1.341 . S
C417 C415 1.400 . S
C417 C416 1.387 . S
N418 Co409 2.022 . S
N418 C415 1.351 . S
N418 N419 1.365 . S
N419 C416 1.341 . S
N419 N418 1.365 . S
N419 H439 0.862 . S
C420 C415 1.501 . S
C420 H421 0.961 . S
C420 H422 0.961 . S
C420 H423 0.960 . S
H421 C420 0.961 . S
H422 C420 0.961 . S
H423 C420 0.960 . S
C424 N425 1.342 . S
C424 C428 1.401 . S
C424 C429 1.499 . S
N425 Co408 1.989 . S
N425 C424 1.342 . S
N425 N426 1.388 . S
N426 Co409 1.993 . S
N426 N425 1.388 . S
N426 C427 1.346 . S
C427 N426 1.346 . S
C427 C428 1.396 . S
C427 C437 1.510 . S
C428 C424 1.401 . S
C428 C427 1.396 . S
C429 C424 1.499 . S
C429 H430 0.959 . S
C429 H431 0.960 . S
C429 H432 0.961 . S
H430 C429 0.959 . S
H431 C429 0.960 . S
H432 C429 0.961 . S
O433 Co408 1.967 . S
O433 C441 1.258 . S
O434 Co409 1.941 . S
O434 C441 1.266 . S
H435 C437 0.959 . S
H436 C437 0.961 . S
C437 C427 1.510 . S
C437 H435 0.959 . S
C437 H436 0.961 . S
C437 H438 0.960 . S
H438 C437 0.960 . S
H439 N419 0.862 . S
O440 Co408 1.920 . S
O440 C413 1.289 . S
C441 O433 1.258 . S
C441 O434 1.266 . S
Co442 O445 1.970 . S
Co442 N459 1.989 . S
Co442 O467 1.967 . S
Co442 O474 1.920 . S
Co443 O446 1.966 . S
Co443 N452 2.022 . S
Co443 N460 1.993 . S
Co443 O468 1.941 . S
C444 O445 1.258 . S
C444 O446 1.263 . S
O445 Co442 1.970 . S
O445 C444 1.258 . S
O446 Co443 1.966 . S
O446 C444 1.263 . S
C447 O448 1.235 . S
C447 O474 1.289 . S
O448 C447 1.235 . S
C449 C451 1.400 1_565 S
C449 N452 1.351 . S
C449 C454 1.501 . S
C450 C451 1.387 . S
C450 N453 1.341 1_545 S
C451 C449 1.400 1_545 S
C451 C450 1.387 . S
N452 Co443 2.022 . S
N452 C449 1.351 . S
N452 N453 1.365 . S
N453 C450 1.341 1_565 S
N453 N452 1.365 . S
N453 H473 0.862 . S
C454 C449 1.501 . S
C454 H455 0.961 . S
C454 H456 0.961 . S
C454 H457 0.960 . S
H455 C454 0.961 . S
H456 C454 0.961 . S
H457 C454 0.960 . S
C458 N459 1.342 . S
C458 C462 1.401 . S
C458 C463 1.499 . S
N459 Co442 1.989 . S
N459 C458 1.342 . S
N459 N460 1.388 . S
N460 Co443 1.993 . S
N460 N459 1.388 . S
N460 C461 1.346 . S
C461 N460 1.346 . S
C461 C462 1.396 . S
C461 C471 1.510 . S
C462 C458 1.401 . S
C462 C461 1.396 . S
C463 C458 1.499 . S
C463 H464 0.959 . S
C463 H465 0.960 . S
C463 H466 0.961 . S
H464 C463 0.959 . S
H465 C463 0.960 . S
H466 C463 0.961 . S
O467 Co442 1.967 . S
O467 C475 1.258 . S
O468 Co443 1.941 . S
O468 C475 1.266 . S
H469 C471 0.959 1_545 S
H470 C471 0.961 . S
C471 C461 1.510 . S
C471 H469 0.959 1_565 S
C471 H470 0.961 . S
C471 H472 0.960 . S
H472 C471 0.960 . S
H473 N453 0.862 . S
O474 Co442 1.920 . S
O474 C447 1.289 . S
C475 O467 1.258 . S
C475 O468 1.266 . S
Co476 O479 1.970 . S
Co476 N493 1.989 . S
Co476 O501 1.967 . S
Co476 O508 1.920 . S
Co477 O480 1.966 . S
Co477 N486 2.022 . S
Co477 N494 1.993 . S
Co477 O502 1.941 . S
C478 O479 1.258 . S
C478 O480 1.263 . S
O479 Co476 1.970 . S
O479 C478 1.258 . S
O480 Co477 1.966 . S
O480 C478 1.263 . S
C481 O482 1.235 . S
C481 O508 1.289 . S
O482 C481 1.235 . S
C483 C485 1.400 . S
C483 N486 1.351 . S
C483 C488 1.501 . S
C484 C485 1.387 . S
C484 N487 1.341 . S
C485 C483 1.400 . S
C485 C484 1.387 . S
N486 Co477 2.022 . S
N486 C483 1.351 . S
N486 N487 1.365 . S
N487 C484 1.341 . S
N487 N486 1.365 . S
N487 H507 0.862 . S
C488 C483 1.501 . S
C488 H489 0.961 . S
C488 H490 0.961 . S
C488 H491 0.960 . S
H489 C488 0.961 . S
H490 C488 0.961 . S
H491 C488 0.960 . S
C492 N493 1.342 . S
C492 C496 1.401 . S
C492 C497 1.499 . S
N493 Co476 1.989 . S
N493 C492 1.342 . S
N493 N494 1.388 . S
N494 Co477 1.993 . S
N494 N493 1.388 . S
N494 C495 1.346 . S
C495 N494 1.346 . S
C495 C496 1.396 . S
C495 C505 1.510 . S
C496 C492 1.401 . S
C496 C495 1.396 . S
C497 C492 1.499 . S
C497 H498 0.959 . S
C497 H499 0.960 . S
C497 H500 0.961 . S
H498 C497 0.959 . S
H499 C497 0.960 . S
H500 C497 0.961 . S
O501 Co476 1.967 . S
O501 C509 1.258 . S
O502 Co477 1.941 . S
O502 C509 1.266 . S
H503 C505 0.959 . S
H504 C505 0.961 . S
C505 C495 1.510 . S
C505 H503 0.959 . S
C505 H504 0.961 . S
C505 H506 0.960 . S
H506 C505 0.960 . S
H507 N487 0.862 . S
O508 Co476 1.920 . S
O508 C481 1.289 . S
C509 O501 1.258 . S
C509 O502 1.266 . S
Co510 O513 1.970 . S
Co510 N527 1.989 . S
Co510 O535 1.967 . S
Co510 O542 1.920 . S
Co511 O514 1.966 . S
Co511 N520 2.022 . S
Co511 N528 1.993 . S
Co511 O536 1.941 . S
C512 O513 1.258 . S
C512 O514 1.263 . S
O513 Co510 1.970 . S
O513 C512 1.258 . S
O514 Co511 1.966 . S
O514 C512 1.263 . S
C515 O516 1.235 . S
C515 O542 1.289 . S
O516 C515 1.235 . S
C517 C519 1.400 1_545 S
C517 N520 1.351 . S
C517 C522 1.501 . S
C518 C519 1.387 . S
C518 N521 1.341 1_565 S
C519 C517 1.400 1_565 S
C519 C518 1.387 . S
N520 Co511 2.022 . S
N520 C517 1.351 . S
N520 N521 1.365 . S
N521 C518 1.341 1_545 S
N521 N520 1.365 . S
N521 H541 0.862 . S
C522 C517 1.501 . S
C522 H523 0.961 . S
C522 H524 0.961 . S
C522 H525 0.960 . S
H523 C522 0.961 . S
H524 C522 0.961 . S
H525 C522 0.960 . S
C526 N527 1.342 . S
C526 C530 1.401 . S
C526 C531 1.499 . S
N527 Co510 1.989 . S
N527 C526 1.342 . S
N527 N528 1.388 . S
N528 Co511 1.993 . S
N528 N527 1.388 . S
N528 C529 1.346 . S
C529 N528 1.346 . S
C529 C530 1.396 . S
C529 C539 1.510 . S
C530 C526 1.401 . S
C530 C529 1.396 . S
C531 C526 1.499 . S
C531 H532 0.959 . S
C531 H533 0.960 1_556 S
C531 H534 0.961 . S
H532 C531 0.959 . S
H533 C531 0.960 1_554 S
H534 C531 0.961 . S
O535 Co510 1.967 . S
O535 C543 1.258 . S
O536 Co511 1.941 . S
O536 C543 1.266 . S
H537 C539 0.959 1_565 S
H538 C539 0.961 . S
C539 C529 1.510 . S
C539 H537 0.959 1_545 S
C539 H538 0.961 . S
C539 H540 0.960 . S
H540 C539 0.960 . S
H541 N521 0.862 . S
O542 Co510 1.920 . S
O542 C515 1.289 . S
C543 O535 1.258 . S
C543 O536 1.266 . S
Co544 O547 1.970 . S
Co544 N561 1.989 . S
Co544 O569 1.967 . S
Co544 O576 1.920 . S
Co545 O548 1.966 . S
Co545 N554 2.022 . S
Co545 N562 1.993 . S
Co545 O570 1.941 . S
C546 O547 1.258 . S
C546 O548 1.263 . S
O547 Co544 1.970 . S
O547 C546 1.258 . S
O548 Co545 1.966 . S
O548 C546 1.263 . S
C549 O550 1.235 . S
C549 O576 1.289 . S
O550 C549 1.235 . S
C551 C553 1.400 . S
C551 N554 1.351 . S
C551 C556 1.501 . S
C552 C553 1.387 . S
C552 N555 1.341 . S
C553 C551 1.400 . S
C553 C552 1.387 . S
N554 Co545 2.022 . S
N554 C551 1.351 . S
N554 N555 1.365 . S
N555 C552 1.341 . S
N555 N554 1.365 . S
N555 H575 0.862 . S
C556 C551 1.501 . S
C556 H557 0.961 . S
C556 H558 0.961 . S
C556 H559 0.960 . S
H557 C556 0.961 . S
H558 C556 0.961 . S
H559 C556 0.960 . S
C560 N561 1.342 . S
C560 C564 1.401 . S
C560 C565 1.499 . S
N561 Co544 1.989 . S
N561 C560 1.342 . S
N561 N562 1.388 . S
N562 Co545 1.993 . S
N562 N561 1.388 . S
N562 C563 1.346 . S
C563 N562 1.346 . S
C563 C564 1.396 . S
C563 C573 1.510 . S
C564 C560 1.401 . S
C564 C563 1.396 . S
C565 C560 1.499 . S
C565 H566 0.959 . S
C565 H567 0.960 . S
C565 H568 0.961 . S
H566 C565 0.959 . S
H567 C565 0.960 . S
H568 C565 0.961 . S
O569 Co544 1.967 . S
O569 C577 1.258 . S
O570 Co545 1.941 . S
O570 C577 1.266 . S
H571 C573 0.959 . S
H572 C573 0.961 . S
C573 C563 1.510 . S
C573 H571 0.959 . S
C573 H572 0.961 . S
C573 H574 0.960 . S
H574 C573 0.960 . S
H575 N555 0.862 . S
O576 Co544 1.920 . S
O576 C549 1.289 . S
C577 O569 1.258 . S
C577 O570 1.266 . S
Co578 O581 1.970 . S
Co578 N595 1.989 . S
Co578 O603 1.967 . S
Co578 O610 1.920 . S
Co579 O582 1.966 . S
Co579 N588 2.022 . S
Co579 N596 1.993 . S
Co579 O604 1.941 . S
C580 O581 1.258 . S
C580 O582 1.263 . S
O581 Co578 1.970 . S
O581 C580 1.258 . S
O582 Co579 1.966 . S
O582 C580 1.263 . S
C583 O584 1.235 . S
C583 O610 1.289 . S
O584 C583 1.235 . S
C585 C587 1.400 . S
C585 N588 1.351 . S
C585 C590 1.501 . S
C586 C587 1.387 . S
C586 N589 1.341 . S
C587 C585 1.400 . S
C587 C586 1.387 . S
N588 Co579 2.022 . S
N588 C585 1.351 . S
N588 N589 1.365 . S
N589 C586 1.341 . S
N589 N588 1.365 . S
N589 H609 0.862 . S
C590 C585 1.501 . S
C590 H591 0.961 . S
C590 H592 0.961 . S
C590 H593 0.960 . S
H591 C590 0.961 . S
H592 C590 0.961 . S
H593 C590 0.960 . S
C594 N595 1.342 . S
C594 C598 1.401 . S
C594 C599 1.499 . S
N595 Co578 1.989 . S
N595 C594 1.342 . S
N595 N596 1.388 . S
N596 Co579 1.993 . S
N596 N595 1.388 . S
N596 C597 1.346 . S
C597 N596 1.346 . S
C597 C598 1.396 . S
C597 C607 1.510 . S
C598 C594 1.401 . S
C598 C597 1.396 . S
C599 C594 1.499 . S
C599 H600 0.959 . S
C599 H601 0.960 1_556 S
C599 H602 0.961 . S
H600 C599 0.959 . S
H601 C599 0.960 1_554 S
H602 C599 0.961 . S
O603 Co578 1.967 . S
O603 C611 1.258 . S
O604 Co579 1.941 . S
O604 C611 1.266 . S
H605 C607 0.959 . S
H606 C607 0.961 . S
C607 C597 1.510 . S
C607 H605 0.959 . S
C607 H606 0.961 . S
C607 H608 0.960 . S
H608 C607 0.960 . S
H609 N589 0.862 . S
O610 Co578 1.920 . S
O610 C583 1.289 . S
C611 O603 1.258 . S
C611 O604 1.266 . S
Co612 O615 1.970 . S
Co612 N629 1.989 . S
Co612 O637 1.967 . S
Co612 O644 1.920 . S
Co613 O616 1.966 . S
Co613 N622 2.022 . S
Co613 N630 1.993 . S
Co613 O638 1.941 . S
C614 O615 1.258 . S
C614 O616 1.263 . S
O615 Co612 1.970 . S
O615 C614 1.258 . S
O616 Co613 1.966 . S
O616 C614 1.263 . S
C617 O618 1.235 . S
C617 O644 1.289 . S
O618 C617 1.235 . S
C619 C621 1.400 . S
C619 N622 1.351 . S
C619 C624 1.501 . S
C620 C621 1.387 . S
C620 N623 1.341 . S
C621 C619 1.400 . S
C621 C620 1.387 . S
N622 Co613 2.022 . S
N622 C619 1.351 . S
N622 N623 1.365 . S
N623 C620 1.341 . S
N623 N622 1.365 . S
N623 H643 0.862 . S
C624 C619 1.501 . S
C624 H625 0.961 . S
C624 H626 0.961 . S
C624 H627 0.960 . S
H625 C624 0.961 . S
H626 C624 0.961 . S
H627 C624 0.960 . S
C628 N629 1.342 . S
C628 C632 1.401 . S
C628 C633 1.499 . S
N629 Co612 1.989 . S
N629 C628 1.342 . S
N629 N630 1.388 . S
N630 Co613 1.993 . S
N630 N629 1.388 . S
N630 C631 1.346 . S
C631 N630 1.346 . S
C631 C632 1.396 . S
C631 C641 1.510 . S
C632 C628 1.401 . S
C632 C631 1.396 . S
C633 C628 1.499 . S
C633 H634 0.959 . S
C633 H635 0.960 . S
C633 H636 0.961 . S
H634 C633 0.959 . S
H635 C633 0.960 . S
H636 C633 0.961 . S
O637 Co612 1.967 . S
O637 C645 1.258 . S
O638 Co613 1.941 . S
O638 C645 1.266 . S
H639 C641 0.959 . S
H640 C641 0.961 . S
C641 C631 1.510 . S
C641 H639 0.959 . S
C641 H640 0.961 . S
C641 H642 0.960 . S
H642 C641 0.960 . S
H643 N623 0.862 . S
O644 Co612 1.920 . S
O644 C617 1.289 . S
C645 O637 1.258 . S
C645 O638 1.266 . S
Co646 O649 1.970 . S
Co646 N663 1.989 . S
Co646 O671 1.967 . S
Co646 O678 1.920 . S
Co647 O650 1.966 . S
Co647 N656 2.022 . S
Co647 N664 1.993 . S
Co647 O672 1.941 . S
C648 O649 1.258 . S
C648 O650 1.263 . S
O649 Co646 1.970 . S
O649 C648 1.258 . S
O650 Co647 1.966 . S
O650 C648 1.263 . S
C651 O652 1.235 . S
C651 O678 1.289 . S
O652 C651 1.235 . S
C653 C655 1.400 . S
C653 N656 1.351 . S
C653 C658 1.501 . S
C654 C655 1.387 . S
C654 N657 1.341 . S
C655 C653 1.400 . S
C655 C654 1.387 . S
N656 Co647 2.022 . S
N656 C653 1.351 . S
N656 N657 1.365 . S
N657 C654 1.341 . S
N657 N656 1.365 . S
N657 H677 0.862 . S
C658 C653 1.501 . S
C658 H659 0.961 . S
C658 H660 0.961 . S
C658 H661 0.960 . S
H659 C658 0.961 . S
H660 C658 0.961 . S
H661 C658 0.960 . S
C662 N663 1.342 . S
C662 C666 1.401 . S
C662 C667 1.499 . S
N663 Co646 1.989 . S
N663 C662 1.342 . S
N663 N664 1.388 . S
N664 Co647 1.993 . S
N664 N663 1.388 . S
N664 C665 1.346 . S
C665 N664 1.346 . S
C665 C666 1.396 . S
C665 C675 1.510 . S
C666 C662 1.401 . S
C666 C665 1.396 . S
C667 C662 1.499 . S
C667 H668 0.959 . S
C667 H669 0.960 . S
C667 H670 0.961 . S
H668 C667 0.959 . S
H669 C667 0.960 . S
H670 C667 0.961 . S
O671 Co646 1.967 . S
O671 C679 1.258 . S
O672 Co647 1.941 . S
O672 C679 1.266 . S
H673 C675 0.959 . S
H674 C675 0.961 . S
C675 C665 1.510 . S
C675 H673 0.959 . S
C675 H674 0.961 . S
C675 H676 0.960 . S
H676 C675 0.960 . S
H677 N657 0.862 . S
O678 Co646 1.920 . S
O678 C651 1.289 . S
C679 O671 1.258 . S
C679 O672 1.266 . S
Co680 O683 1.970 . S
Co680 N697 1.989 . S
Co680 O705 1.967 . S
Co680 O712 1.920 . S
Co681 O684 1.966 . S
Co681 N690 2.022 . S
Co681 N698 1.993 . S
Co681 O706 1.941 . S
C682 O683 1.258 . S
C682 O684 1.263 . S
O683 Co680 1.970 . S
O683 C682 1.258 . S
O684 Co681 1.966 . S
O684 C682 1.263 . S
C685 O686 1.235 . S
C685 O712 1.289 . S
O686 C685 1.235 . S
C687 C689 1.400 . S
C687 N690 1.351 . S
C687 C692 1.501 . S
C688 C689 1.387 . S
C688 N691 1.341 . S
C689 C687 1.400 . S
C689 C688 1.387 . S
N690 Co681 2.022 . S
N690 C687 1.351 . S
N690 N691 1.365 . S
N691 C688 1.341 . S
N691 N690 1.365 . S
N691 H711 0.862 . S
C692 C687 1.501 . S
C692 H693 0.961 . S
C692 H694 0.961 . S
C692 H695 0.960 . S
H693 C692 0.961 . S
H694 C692 0.961 . S
H695 C692 0.960 . S
C696 N697 1.342 . S
C696 C700 1.401 . S
C696 C701 1.499 . S
N697 Co680 1.989 . S
N697 C696 1.342 . S
N697 N698 1.388 . S
N698 Co681 1.993 . S
N698 N697 1.388 . S
N698 C699 1.346 . S
C699 N698 1.346 . S
C699 C700 1.396 . S
C699 C709 1.510 . S
C700 C696 1.401 . S
C700 C699 1.396 . S
C701 C696 1.499 . S
C701 H702 0.959 . S
C701 H703 0.960 . S
C701 H704 0.961 . S
H702 C701 0.959 . S
H703 C701 0.960 . S
H704 C701 0.961 . S
O705 Co680 1.967 . S
O705 C713 1.258 . S
O706 Co681 1.941 . S
O706 C713 1.266 . S
H707 C709 0.959 . S
H708 C709 0.961 . S
C709 C699 1.510 . S
C709 H707 0.959 . S
C709 H708 0.961 . S
C709 H710 0.960 . S
H710 C709 0.960 . S
H711 N691 0.862 . S
O712 Co680 1.920 . S
O712 C685 1.289 . S
C713 O705 1.258 . S
C713 O706 1.266 . S
Co714 O717 1.970 . S
Co714 N731 1.989 . S
Co714 O739 1.967 . S
Co714 O746 1.920 . S
Co715 O718 1.966 . S
Co715 N724 2.022 . S
Co715 N732 1.993 . S
Co715 O740 1.941 . S
C716 O717 1.258 . S
C716 O718 1.263 . S
O717 Co714 1.970 . S
O717 C716 1.258 . S
O718 Co715 1.966 . S
O718 C716 1.263 . S
C719 O720 1.235 . S
C719 O746 1.289 . S
O720 C719 1.235 . S
C721 C723 1.400 . S
C721 N724 1.351 . S
C721 C726 1.501 . S
C722 C723 1.387 . S
C722 N725 1.341 . S
C723 C721 1.400 . S
C723 C722 1.387 . S
N724 Co715 2.022 . S
N724 C721 1.351 . S
N724 N725 1.365 . S
N725 C722 1.341 . S
N725 N724 1.365 . S
N725 H745 0.862 . S
C726 C721 1.501 . S
C726 H727 0.961 . S
C726 H728 0.961 . S
C726 H729 0.960 . S
H727 C726 0.961 . S
H728 C726 0.961 . S
H729 C726 0.960 . S
C730 N731 1.342 . S
C730 C734 1.401 . S
C730 C735 1.499 . S
N731 Co714 1.989 . S
N731 C730 1.342 . S
N731 N732 1.388 . S
N732 Co715 1.993 . S
N732 N731 1.388 . S
N732 C733 1.346 . S
C733 N732 1.346 . S
C733 C734 1.396 . S
C733 C743 1.510 . S
C734 C730 1.401 . S
C734 C733 1.396 . S
C735 C730 1.499 . S
C735 H736 0.959 . S
C735 H737 0.960 1_554 S
C735 H738 0.961 . S
H736 C735 0.959 . S
H737 C735 0.960 1_556 S
H738 C735 0.961 . S
O739 Co714 1.967 . S
O739 C747 1.258 . S
O740 Co715 1.941 . S
O740 C747 1.266 . S
H741 C743 0.959 . S
H742 C743 0.961 . S
C743 C733 1.510 . S
C743 H741 0.959 . S
C743 H742 0.961 . S
C743 H744 0.960 . S
H744 C743 0.960 . S
H745 N725 0.862 . S
O746 Co714 1.920 . S
O746 C719 1.289 . S
C747 O739 1.258 . S
C747 O740 1.266 . S
Co748 O751 1.970 . S
Co748 N765 1.989 . S
Co748 O773 1.967 . S
Co748 O780 1.920 . S
Co749 O752 1.966 . S
Co749 N758 2.022 . S
Co749 N766 1.993 . S
Co749 O774 1.941 . S
C750 O751 1.258 . S
C750 O752 1.263 . S
O751 Co748 1.970 . S
O751 C750 1.258 . S
O752 Co749 1.966 . S
O752 C750 1.263 . S
C753 O754 1.235 . S
C753 O780 1.289 . S
O754 C753 1.235 . S
C755 C757 1.400 . S
C755 N758 1.351 . S
C755 C760 1.501 . S
C756 C757 1.387 . S
C756 N759 1.341 . S
C757 C755 1.400 . S
C757 C756 1.387 . S
N758 Co749 2.022 . S
N758 C755 1.351 . S
N758 N759 1.365 . S
N759 C756 1.341 . S
N759 N758 1.365 . S
N759 H779 0.862 . S
C760 C755 1.501 . S
C760 H761 0.961 . S
C760 H762 0.961 . S
C760 H763 0.960 . S
H761 C760 0.961 . S
H762 C760 0.961 . S
H763 C760 0.960 . S
C764 N765 1.342 . S
C764 C768 1.401 . S
C764 C769 1.499 . S
N765 Co748 1.989 . S
N765 C764 1.342 . S
N765 N766 1.388 . S
N766 Co749 1.993 . S
N766 N765 1.388 . S
N766 C767 1.346 . S
C767 N766 1.346 . S
C767 C768 1.396 . S
C767 C777 1.510 . S
C768 C764 1.401 . S
C768 C767 1.396 . S
C769 C764 1.499 . S
C769 H770 0.959 . S
C769 H771 0.960 . S
C769 H772 0.961 . S
H770 C769 0.959 . S
H771 C769 0.960 . S
H772 C769 0.961 . S
O773 Co748 1.967 . S
O773 C781 1.258 . S
O774 Co749 1.941 . S
O774 C781 1.266 . S
H775 C777 0.959 . S
H776 C777 0.961 . S
C777 C767 1.510 . S
C777 H775 0.959 . S
C777 H776 0.961 . S
C777 H778 0.960 . S
H778 C777 0.960 . S
H779 N759 0.862 . S
O780 Co748 1.920 . S
O780 C753 1.289 . S
C781 O773 1.258 . S
C781 O774 1.266 . S
Co782 O785 1.970 . S
Co782 N799 1.989 . S
Co782 O807 1.967 . S
Co782 O814 1.920 . S
Co783 O786 1.966 . S
Co783 N792 2.022 . S
Co783 N800 1.993 . S
Co783 O808 1.941 . S
C784 O785 1.258 . S
C784 O786 1.263 . S
O785 Co782 1.970 . S
O785 C784 1.258 . S
O786 Co783 1.966 . S
O786 C784 1.263 . S
C787 O788 1.235 . S
C787 O814 1.289 . S
O788 C787 1.235 . S
C789 C791 1.400 . S
C789 N792 1.351 . S
C789 C794 1.501 . S
C790 C791 1.387 . S
C790 N793 1.341 . S
C791 C789 1.400 . S
C791 C790 1.387 . S
N792 Co783 2.022 . S
N792 C789 1.351 . S
N792 N793 1.365 . S
N793 C790 1.341 . S
N793 N792 1.365 . S
N793 H813 0.862 . S
C794 C789 1.501 . S
C794 H795 0.961 . S
C794 H796 0.961 . S
C794 H797 0.960 . S
H795 C794 0.961 . S
H796 C794 0.961 . S
H797 C794 0.960 . S
C798 N799 1.342 . S
C798 C802 1.401 . S
C798 C803 1.499 . S
N799 Co782 1.989 . S
N799 C798 1.342 . S
N799 N800 1.388 . S
N800 Co783 1.993 . S
N800 N799 1.388 . S
N800 C801 1.346 . S
C801 N800 1.346 . S
C801 C802 1.396 . S
C801 C811 1.510 . S
C802 C798 1.401 . S
C802 C801 1.396 . S
C803 C798 1.499 . S
C803 H804 0.959 . S
C803 H805 0.960 . S
C803 H806 0.961 . S
H804 C803 0.959 . S
H805 C803 0.960 . S
H806 C803 0.961 . S
O807 Co782 1.967 . S
O807 C815 1.258 . S
O808 Co783 1.941 . S
O808 C815 1.266 . S
H809 C811 0.959 . S
H810 C811 0.961 . S
C811 C801 1.510 . S
C811 H809 0.959 . S
C811 H810 0.961 . S
C811 H812 0.960 . S
H812 C811 0.960 . S
H813 N793 0.862 . S
O814 Co782 1.920 . S
O814 C787 1.289 . S
C815 O807 1.258 . S
C815 O808 1.266 . S
Co816 O819 1.970 . S
Co816 N833 1.989 . S
Co816 O841 1.967 . S
Co816 O848 1.920 . S
Co817 O820 1.966 . S
Co817 N826 2.022 . S
Co817 N834 1.993 . S
Co817 O842 1.941 . S
C818 O819 1.258 . S
C818 O820 1.263 . S
O819 Co816 1.970 . S
O819 C818 1.258 . S
O820 Co817 1.966 . S
O820 C818 1.263 . S
C821 O822 1.235 . S
C821 O848 1.289 . S
O822 C821 1.235 . S
C823 C825 1.400 . S
C823 N826 1.351 . S
C823 C828 1.501 . S
C824 C825 1.387 . S
C824 N827 1.341 . S
C825 C823 1.400 . S
C825 C824 1.387 . S
N826 Co817 2.022 . S
N826 C823 1.351 . S
N826 N827 1.365 . S
N827 C824 1.341 . S
N827 N826 1.365 . S
N827 H847 0.862 . S
C828 C823 1.501 . S
C828 H829 0.961 . S
C828 H830 0.961 . S
C828 H831 0.960 . S
H829 C828 0.961 . S
H830 C828 0.961 . S
H831 C828 0.960 . S
C832 N833 1.342 . S
C832 C836 1.401 . S
C832 C837 1.499 . S
N833 Co816 1.989 . S
N833 C832 1.342 . S
N833 N834 1.388 . S
N834 Co817 1.993 . S
N834 N833 1.388 . S
N834 C835 1.346 . S
C835 N834 1.346 . S
C835 C836 1.396 . S
C835 C845 1.510 . S
C836 C832 1.401 . S
C836 C835 1.396 . S
C837 C832 1.499 . S
C837 H838 0.959 . S
C837 H839 0.960 . S
C837 H840 0.961 . S
H838 C837 0.959 . S
H839 C837 0.960 . S
H840 C837 0.961 . S
O841 Co816 1.967 . S
O841 C849 1.258 . S
O842 Co817 1.941 . S
O842 C849 1.266 . S
H843 C845 0.959 . S
H844 C845 0.961 . S
C845 C835 1.510 . S
C845 H843 0.959 . S
C845 H844 0.961 . S
C845 H846 0.960 . S
H846 C845 0.960 . S
H847 N827 0.862 . S
O848 Co816 1.920 . S
O848 C821 1.289 . S
C849 O841 1.258 . S
C849 O842 1.266 . S
Co850 O853 1.970 . S
Co850 N867 1.989 . S
Co850 O875 1.967 . S
Co850 O882 1.920 . S
Co851 O854 1.966 . S
Co851 N860 2.022 . S
Co851 N868 1.993 . S
Co851 O876 1.941 . S
C852 O853 1.258 . S
C852 O854 1.263 . S
O853 Co850 1.970 . S
O853 C852 1.258 . S
O854 Co851 1.966 . S
O854 C852 1.263 . S
C855 O856 1.235 . S
C855 O882 1.289 . S
O856 C855 1.235 . S
C857 C859 1.400 . S
C857 N860 1.351 . S
C857 C862 1.501 . S
C858 C859 1.387 . S
C858 N861 1.341 . S
C859 C857 1.400 . S
C859 C858 1.387 . S
N860 Co851 2.022 . S
N860 C857 1.351 . S
N860 N861 1.365 . S
N861 C858 1.341 . S
N861 N860 1.365 . S
N861 H881 0.862 . S
C862 C857 1.501 . S
C862 H863 0.961 . S
C862 H864 0.961 . S
C862 H865 0.960 . S
H863 C862 0.961 . S
H864 C862 0.961 . S
H865 C862 0.960 . S
C866 N867 1.342 . S
C866 C870 1.401 . S
C866 C871 1.499 . S
N867 Co850 1.989 . S
N867 C866 1.342 . S
N867 N868 1.388 . S
N868 Co851 1.993 . S
N868 N867 1.388 . S
N868 C869 1.346 . S
C869 N868 1.346 . S
C869 C870 1.396 . S
C869 C879 1.510 . S
C870 C866 1.401 . S
C870 C869 1.396 . S
C871 C866 1.499 . S
C871 H872 0.959 . S
C871 H873 0.960 1_554 S
C871 H874 0.961 . S
H872 C871 0.959 . S
H873 C871 0.960 1_556 S
H874 C871 0.961 . S
O875 Co850 1.967 . S
O875 C883 1.258 . S
O876 Co851 1.941 . S
O876 C883 1.266 . S
H877 C879 0.959 . S
H878 C879 0.961 . S
C879 C869 1.510 . S
C879 H877 0.959 . S
C879 H878 0.961 . S
C879 H880 0.960 . S
H880 C879 0.960 . S
H881 N861 0.862 . S
O882 Co850 1.920 . S
O882 C855 1.289 . S
C883 O875 1.258 . S
C883 O876 1.266 . S
Co884 O887 1.970 . S
Co884 N901 1.989 . S
Co884 O909 1.967 . S
Co884 O916 1.920 . S
Co885 O888 1.966 . S
Co885 N894 2.022 . S
Co885 N902 1.993 . S
Co885 O910 1.941 . S
C886 O887 1.258 . S
C886 O888 1.263 . S
O887 Co884 1.970 . S
O887 C886 1.258 . S
O888 Co885 1.966 . S
O888 C886 1.263 . S
C889 O890 1.235 . S
C889 O916 1.289 . S
O890 C889 1.235 . S
C891 C893 1.400 . S
C891 N894 1.351 . S
C891 C896 1.501 . S
C892 C893 1.387 . S
C892 N895 1.341 . S
C893 C891 1.400 . S
C893 C892 1.387 . S
N894 Co885 2.022 . S
N894 C891 1.351 . S
N894 N895 1.365 . S
N895 C892 1.341 . S
N895 N894 1.365 . S
N895 H915 0.862 . S
C896 C891 1.501 . S
C896 H897 0.961 . S
C896 H898 0.961 . S
C896 H899 0.960 . S
H897 C896 0.961 . S
H898 C896 0.961 . S
H899 C896 0.960 . S
C900 N901 1.342 . S
C900 C904 1.401 . S
C900 C905 1.499 . S
N901 Co884 1.989 . S
N901 C900 1.342 . S
N901 N902 1.388 . S
N902 Co885 1.993 . S
N902 N901 1.388 . S
N902 C903 1.346 . S
C903 N902 1.346 . S
C903 C904 1.396 . S
C903 C913 1.510 . S
C904 C900 1.401 . S
C904 C903 1.396 . S
C905 C900 1.499 . S
C905 H906 0.959 . S
C905 H907 0.960 . S
C905 H908 0.961 . S
H906 C905 0.959 . S
H907 C905 0.960 . S
H908 C905 0.961 . S
O909 Co884 1.967 . S
O909 C917 1.258 . S
O910 Co885 1.941 . S
O910 C917 1.266 . S
H911 C913 0.959 . S
H912 C913 0.961 . S
C913 C903 1.510 . S
C913 H911 0.959 . S
C913 H912 0.961 . S
C913 H914 0.960 . S
H914 C913 0.960 . S
H915 N895 0.862 . S
O916 Co884 1.920 . S
O916 C889 1.289 . S
C917 O909 1.258 . S
C917 O910 1.266 . S
Co918 O921 1.970 . S
Co918 N935 1.989 . S
Co918 O943 1.967 . S
Co918 O950 1.920 . S
Co919 O922 1.966 . S
Co919 N928 2.022 . S
Co919 N936 1.993 . S
Co919 O944 1.941 . S
C920 O921 1.258 . S
C920 O922 1.263 . S
O921 Co918 1.970 . S
O921 C920 1.258 . S
O922 Co919 1.966 . S
O922 C920 1.263 . S
C923 O924 1.235 . S
C923 O950 1.289 . S
O924 C923 1.235 . S
C925 C927 1.400 . S
C925 N928 1.351 . S
C925 C930 1.501 . S
C926 C927 1.387 . S
C926 N929 1.341 . S
C927 C925 1.400 . S
C927 C926 1.387 . S
N928 Co919 2.022 . S
N928 C925 1.351 . S
N928 N929 1.365 . S
N929 C926 1.341 . S
N929 N928 1.365 . S
N929 H949 0.862 . S
C930 C925 1.501 . S
C930 H931 0.961 . S
C930 H932 0.961 . S
C930 H933 0.960 . S
H931 C930 0.961 . S
H932 C930 0.961 . S
H933 C930 0.960 . S
C934 N935 1.342 . S
C934 C938 1.401 . S
C934 C939 1.499 . S
N935 Co918 1.989 . S
N935 C934 1.342 . S
N935 N936 1.388 . S
N936 Co919 1.993 . S
N936 N935 1.388 . S
N936 C937 1.346 . S
C937 N936 1.346 . S
C937 C938 1.396 . S
C937 C947 1.510 . S
C938 C934 1.401 . S
C938 C937 1.396 . S
C939 C934 1.499 . S
C939 H940 0.959 . S
C939 H941 0.960 . S
C939 H942 0.961 . S
H940 C939 0.959 . S
H941 C939 0.960 . S
H942 C939 0.961 . S
O943 Co918 1.967 . S
O943 C951 1.258 . S
O944 Co919 1.941 . S
O944 C951 1.266 . S
H945 C947 0.959 . S
H946 C947 0.961 . S
C947 C937 1.510 . S
C947 H945 0.959 . S
C947 H946 0.961 . S
C947 H948 0.960 . S
H948 C947 0.960 . S
H949 N929 0.862 . S
O950 Co918 1.920 . S
O950 C923 1.289 . S
C951 O943 1.258 . S
C951 O944 1.266 . S
Co952 O955 1.970 . S
Co952 N969 1.989 . S
Co952 O977 1.967 . S
Co952 O984 1.920 . S
Co953 O956 1.966 . S
Co953 N962 2.022 . S
Co953 N970 1.993 . S
Co953 O978 1.941 . S
C954 O955 1.258 . S
C954 O956 1.263 . S
O955 Co952 1.970 . S
O955 C954 1.258 . S
O956 Co953 1.966 . S
O956 C954 1.263 . S
C957 O958 1.235 . S
C957 O984 1.289 . S
O958 C957 1.235 . S
C959 C961 1.400 . S
C959 N962 1.351 . S
C959 C964 1.501 . S
C960 C961 1.387 . S
C960 N963 1.341 . S
C961 C959 1.400 . S
C961 C960 1.387 . S
N962 Co953 2.022 . S
N962 C959 1.351 . S
N962 N963 1.365 . S
N963 C960 1.341 . S
N963 N962 1.365 . S
N963 H983 0.862 . S
C964 C959 1.501 . S
C964 H965 0.961 . S
C964 H966 0.961 . S
C964 H967 0.960 . S
H965 C964 0.961 . S
H966 C964 0.961 . S
H967 C964 0.960 . S
C968 N969 1.342 . S
C968 C972 1.401 . S
C968 C973 1.499 . S
N969 Co952 1.989 . S
N969 C968 1.342 . S
N969 N970 1.388 . S
N970 Co953 1.993 . S
N970 N969 1.388 . S
N970 C971 1.346 . S
C971 N970 1.346 . S
C971 C972 1.396 . S
C971 C981 1.510 . S
C972 C968 1.401 . S
C972 C971 1.396 . S
C973 C968 1.499 . S
C973 H974 0.959 . S
C973 H975 0.960 . S
C973 H976 0.961 . S
H974 C973 0.959 . S
H975 C973 0.960 . S
H976 C973 0.961 . S
O977 Co952 1.967 . S
O977 C985 1.258 . S
O978 Co953 1.941 . S
O978 C985 1.266 . S
H979 C981 0.959 . S
H980 C981 0.961 . S
C981 C971 1.510 . S
C981 H979 0.959 . S
C981 H980 0.961 . S
C981 H982 0.960 . S
H982 C981 0.960 . S
H983 N963 0.862 . S
O984 Co952 1.920 . S
O984 C957 1.289 . S
C985 O977 1.258 . S
C985 O978 1.266 . S
Co986 O989 1.970 . S
Co986 N1003 1.989 . S
Co986 O1011 1.967 . S
Co986 O1018 1.920 . S
Co987 O990 1.966 . S
Co987 N996 2.022 . S
Co987 N1004 1.993 . S
Co987 O1012 1.941 . S
C988 O989 1.258 . S
C988 O990 1.263 . S
O989 Co986 1.970 . S
O989 C988 1.258 . S
O990 Co987 1.966 . S
O990 C988 1.263 . S
C991 O992 1.235 . S
C991 O1018 1.289 . S
O992 C991 1.235 . S
C993 C995 1.400 . S
C993 N996 1.351 . S
C993 C998 1.501 . S
C994 C995 1.387 . S
C994 N997 1.341 . S
C995 C993 1.400 . S
C995 C994 1.387 . S
N996 Co987 2.022 . S
N996 C993 1.351 . S
N996 N997 1.365 . S
N997 C994 1.341 . S
N997 N996 1.365 . S
N997 H1017 0.862 . S
C998 C993 1.501 . S
C998 H999 0.961 . S
C998 H1000 0.961 . S
C998 H1001 0.960 . S
H999 C998 0.961 . S
H1000 C998 0.961 . S
H1001 C998 0.960 . S
C1002 N1003 1.342 . S
C1002 C1006 1.401 . S
C1002 C1007 1.499 . S
N1003 Co986 1.989 . S
N1003 C1002 1.342 . S
N1003 N1004 1.388 . S
N1004 Co987 1.993 . S
N1004 N1003 1.388 . S
N1004 C1005 1.346 . S
C1005 N1004 1.346 . S
C1005 C1006 1.396 . S
C1005 C1015 1.510 . S
C1006 C1002 1.401 . S
C1006 C1005 1.396 . S
C1007 C1002 1.499 . S
C1007 H1008 0.959 . S
C1007 H1009 0.960 1_556 S
C1007 H1010 0.961 . S
H1008 C1007 0.959 . S
H1009 C1007 0.960 1_554 S
H1010 C1007 0.961 . S
O1011 Co986 1.967 . S
O1011 C1019 1.258 . S
O1012 Co987 1.941 . S
O1012 C1019 1.266 . S
H1013 C1015 0.959 . S
H1014 C1015 0.961 . S
C1015 C1005 1.510 . S
C1015 H1013 0.959 . S
C1015 H1014 0.961 . S
C1015 H1016 0.960 . S
H1016 C1015 0.960 . S
H1017 N997 0.862 . S
O1018 Co986 1.920 . S
O1018 C991 1.289 . S
C1019 O1011 1.258 . S
C1019 O1012 1.266 . S
Co1020 O1023 1.970 . S
Co1020 N1037 1.989 . S
Co1020 O1045 1.967 . S
Co1020 O1052 1.920 . S
Co1021 O1024 1.966 . S
Co1021 N1030 2.022 . S
Co1021 N1038 1.993 . S
Co1021 O1046 1.941 . S
C1022 O1023 1.258 . S
C1022 O1024 1.263 . S
O1023 Co1020 1.970 . S
O1023 C1022 1.258 . S
O1024 Co1021 1.966 . S
O1024 C1022 1.263 . S
C1025 O1026 1.235 . S
C1025 O1052 1.289 . S
O1026 C1025 1.235 . S
C1027 C1029 1.400 . S
C1027 N1030 1.351 . S
C1027 C1032 1.501 . S
C1028 C1029 1.387 . S
C1028 N1031 1.341 . S
C1029 C1027 1.400 . S
C1029 C1028 1.387 . S
N1030 Co1021 2.022 . S
N1030 C1027 1.351 . S
N1030 N1031 1.365 . S
N1031 C1028 1.341 . S
N1031 N1030 1.365 . S
N1031 H1051 0.862 . S
C1032 C1027 1.501 . S
C1032 H1033 0.961 . S
C1032 H1034 0.961 . S
C1032 H1035 0.960 . S
H1033 C1032 0.961 . S
H1034 C1032 0.961 . S
H1035 C1032 0.960 . S
C1036 N1037 1.342 . S
C1036 C1040 1.401 . S
C1036 C1041 1.499 . S
N1037 Co1020 1.989 . S
N1037 C1036 1.342 . S
N1037 N1038 1.388 . S
N1038 Co1021 1.993 . S
N1038 N1037 1.388 . S
N1038 C1039 1.346 . S
C1039 N1038 1.346 . S
C1039 C1040 1.396 . S
C1039 C1049 1.510 . S
C1040 C1036 1.401 . S
C1040 C1039 1.396 . S
C1041 C1036 1.499 . S
C1041 H1042 0.959 . S
C1041 H1043 0.960 . S
C1041 H1044 0.961 . S
H1042 C1041 0.959 . S
H1043 C1041 0.960 . S
H1044 C1041 0.961 . S
O1045 Co1020 1.967 . S
O1045 C1053 1.258 . S
O1046 Co1021 1.941 . S
O1046 C1053 1.266 . S
H1047 C1049 0.959 . S
H1048 C1049 0.961 . S
C1049 C1039 1.510 . S
C1049 H1047 0.959 . S
C1049 H1048 0.961 . S
C1049 H1050 0.960 . S
H1050 C1049 0.960 . S
H1051 N1031 0.862 . S
O1052 Co1020 1.920 . S
O1052 C1025 1.289 . S
C1053 O1045 1.258 . S
C1053 O1046 1.266 . S
Co1054 O1057 1.970 . S
Co1054 N1071 1.989 . S
Co1054 O1079 1.967 . S
Co1054 O1086 1.920 . S
Co1055 O1058 1.966 . S
Co1055 N1064 2.022 . S
Co1055 N1072 1.993 . S
Co1055 O1080 1.941 . S
C1056 O1057 1.258 . S
C1056 O1058 1.263 . S
O1057 Co1054 1.970 . S
O1057 C1056 1.258 . S
O1058 Co1055 1.966 . S
O1058 C1056 1.263 . S
C1059 O1060 1.235 . S
C1059 O1086 1.289 . S
O1060 C1059 1.235 . S
C1061 C1063 1.400 . S
C1061 N1064 1.351 . S
C1061 C1066 1.501 . S
C1062 C1063 1.387 . S
C1062 N1065 1.341 . S
C1063 C1061 1.400 . S
C1063 C1062 1.387 . S
N1064 Co1055 2.022 . S
N1064 C1061 1.351 . S
N1064 N1065 1.365 . S
N1065 C1062 1.341 . S
N1065 N1064 1.365 . S
N1065 H1085 0.862 . S
C1066 C1061 1.501 . S
C1066 H1067 0.961 . S
C1066 H1068 0.961 . S
C1066 H1069 0.960 . S
H1067 C1066 0.961 . S
H1068 C1066 0.961 . S
H1069 C1066 0.960 . S
C1070 N1071 1.342 . S
C1070 C1074 1.401 . S
C1070 C1075 1.499 . S
N1071 Co1054 1.989 . S
N1071 C1070 1.342 . S
N1071 N1072 1.388 . S
N1072 Co1055 1.993 . S
N1072 N1071 1.388 . S
N1072 C1073 1.346 . S
C1073 N1072 1.346 . S
C1073 C1074 1.396 . S
C1073 C1083 1.510 . S
C1074 C1070 1.401 . S
C1074 C1073 1.396 . S
C1075 C1070 1.499 . S
C1075 H1076 0.959 . S
C1075 H1077 0.960 . S
C1075 H1078 0.961 . S
H1076 C1075 0.959 . S
H1077 C1075 0.960 . S
H1078 C1075 0.961 . S
O1079 Co1054 1.967 . S
O1079 C1087 1.258 . S
O1080 Co1055 1.941 . S
O1080 C1087 1.266 . S
H1081 C1083 0.959 . S
H1082 C1083 0.961 . S
C1083 C1073 1.510 . S
C1083 H1081 0.959 . S
C1083 H1082 0.961 . S
C1083 H1084 0.960 . S
H1084 C1083 0.960 . S
H1085 N1065 0.862 . S
O1086 Co1054 1.920 . S
O1086 C1059 1.289 . S
C1087 O1079 1.258 . S
C1087 O1080 1.266 . S
C1088 C1089 1.363 . S
C1088 C1094 1.379 . S
C1088 N1096 1.356 . S
C1089 C1088 1.363 . S
C1089 C1095 1.363 . S
C1090 C1091 1.363 . S
C1090 C1095 1.379 . S
C1090 N1097 1.356 . S
C1091 C1090 1.363 . S
C1091 C1094 1.363 . S
N1092 C1094 1.356 . S
N1092 H1104 0.984 . S
N1092 H1105 0.985 . S
N1093 C1095 1.356 . S
N1093 H1098 0.984 . S
N1093 H1099 0.985 . S
C1094 C1088 1.379 . S
C1094 C1091 1.363 . S
C1094 N1092 1.356 . S
C1095 C1089 1.363 . S
C1095 C1090 1.379 . S
C1095 N1093 1.356 . S
N1096 C1088 1.356 . S
N1096 H1102 0.984 . S
N1096 H1103 0.984 . S
N1097 C1090 1.356 . S
N1097 H1100 0.984 . S
N1097 H1101 0.985 . S
H1098 N1093 0.984 . S
H1099 N1093 0.985 . S
H1100 N1097 0.984 . S
H1101 N1097 0.985 . S
H1102 N1096 0.984 . S
H1103 N1096 0.984 . S
H1104 N1092 0.984 . S
H1105 N1092 0.985 . S
C1106 C1107 1.363 1_655 S
C1106 C1112 1.379 . S
C1106 N1114 1.356 . S
C1107 C1106 1.363 1_455 S
C1107 C1113 1.363 . S
C1108 C1109 1.363 1_455 S
C1108 C1113 1.379 . S
C1108 N1115 1.356 . S
C1109 C1108 1.363 1_655 S
C1109 C1112 1.363 . S
N1110 C1112 1.356 . S
N1110 H1122 0.984 . S
N1110 H1123 0.985 . S
N1111 C1113 1.356 . S
N1111 H1116 0.984 . S
N1111 H1117 0.985 . S
C1112 C1106 1.379 . S
C1112 C1109 1.363 . S
C1112 N1110 1.356 . S
C1113 C1107 1.363 . S
C1113 C1108 1.379 . S
C1113 N1111 1.356 . S
N1114 C1106 1.356 . S
N1114 H1120 0.984 . S
N1114 H1121 0.984 1_655 S
N1115 C1108 1.356 . S
N1115 H1118 0.984 1_455 S
N1115 H1119 0.985 . S
H1116 N1111 0.984 . S
H1117 N1111 0.985 . S
H1118 N1115 0.984 1_655 S
H1119 N1115 0.985 . S
H1120 N1114 0.984 . S
H1121 N1114 0.984 1_455 S
H1122 N1110 0.984 . S
H1123 N1110 0.985 . S
C1124 C1125 1.363 . S
C1124 C1130 1.379 1_455 S
C1124 N1132 1.356 . S
C1125 C1124 1.363 . S
C1125 C1131 1.363 . S
C1126 C1127 1.363 . S
C1126 C1131 1.379 1_655 S
C1126 N1133 1.356 . S
C1127 C1126 1.363 . S
C1127 C1130 1.363 . S
N1128 C1130 1.356 . S
N1128 H1140 0.984 . S
N1128 H1141 0.985 . S
N1129 C1131 1.356 . S
N1129 H1134 0.984 . S
N1129 H1135 0.985 . S
C1130 C1124 1.379 1_655 S
C1130 C1127 1.363 . S
C1130 N1128 1.356 . S
C1131 C1125 1.363 . S
C1131 C1126 1.379 1_455 S
C1131 N1129 1.356 . S
N1132 C1124 1.356 . S
N1132 H1138 0.984 . S
N1132 H1139 0.984 . S
N1133 C1126 1.356 . S
N1133 H1136 0.984 . S
N1133 H1137 0.985 . S
H1134 N1129 0.984 . S
H1135 N1129 0.985 . S
H1136 N1133 0.984 . S
H1137 N1133 0.985 . S
H1138 N1132 0.984 . S
H1139 N1132 0.984 . S
H1140 N1128 0.984 . S
H1141 N1128 0.985 . S
C1142 C1143 1.363 . S
C1142 C1148 1.379 . S
C1142 N1150 1.356 . S
C1143 C1142 1.363 . S
C1143 C1149 1.363 . S
C1144 C1145 1.363 . S
C1144 C1149 1.379 . S
C1144 N1151 1.356 1_556 S
C1145 C1144 1.363 . S
C1145 C1148 1.363 . S
N1146 C1148 1.356 . S
N1146 H1158 0.984 . S
N1146 H1159 0.985 . S
N1147 C1149 1.356 1_554 S
N1147 H1152 0.984 1_554 S
N1147 H1153 0.985 . S
C1148 C1142 1.379 . S
C1148 C1145 1.363 . S
C1148 N1146 1.356 . S
C1149 C1143 1.363 . S
C1149 C1144 1.379 . S
C1149 N1147 1.356 1_556 S
N1150 C1142 1.356 . S
N1150 H1156 0.984 . S
N1150 H1157 0.984 . S
N1151 C1144 1.356 1_554 S
N1151 H1154 0.984 1_554 S
N1151 H1155 0.985 . S
H1152 N1147 0.984 1_556 S
H1153 N1147 0.985 . S
H1154 N1151 0.984 1_556 S
H1155 N1151 0.985 . S
H1156 N1150 0.984 . S
H1157 N1150 0.984 . S
H1158 N1146 0.984 . S
H1159 N1146 0.985 . S
C1160 C1161 1.363 . S
C1160 C1166 1.379 . S
C1160 N1168 1.356 . S
C1161 C1160 1.363 . S
C1161 C1167 1.363 . S
C1162 C1163 1.363 . S
C1162 C1167 1.379 . S
C1162 N1169 1.356 . S
C1163 C1162 1.363 . S
C1163 C1166 1.363 . S
N1164 C1166 1.356 . S
N1164 H1176 0.984 . S
N1164 H1177 0.985 . S
N1165 C1167 1.356 . S
N1165 H1170 0.984 . S
N1165 H1171 0.985 . S
C1166 C1160 1.379 . S
C1166 C1163 1.363 . S
C1166 N1164 1.356 . S
C1167 C1161 1.363 . S
C1167 C1162 1.379 . S
C1167 N1165 1.356 . S
N1168 C1160 1.356 . S
N1168 H1174 0.984 . S
N1168 H1175 0.984 . S
N1169 C1162 1.356 . S
N1169 H1172 0.984 . S
N1169 H1173 0.985 . S
H1170 N1165 0.984 . S
H1171 N1165 0.985 . S
H1172 N1169 0.984 . S
H1173 N1169 0.985 . S
H1174 N1168 0.984 . S
H1175 N1168 0.984 . S
H1176 N1164 0.984 . S
H1177 N1164 0.985 . S
C1178 C1179 1.363 . S
C1178 C1184 1.379 . S
C1178 N1186 1.356 . S
C1179 C1178 1.363 . S
C1179 C1185 1.363 . S
C1180 C1181 1.363 . S
C1180 C1185 1.379 . S
C1180 N1187 1.356 . S
C1181 C1180 1.363 . S
C1181 C1184 1.363 . S
N1182 C1184 1.356 . S
N1182 H1194 0.984 . S
N1182 H1195 0.985 . S
N1183 C1185 1.356 . S
N1183 H1188 0.984 . S
N1183 H1189 0.985 . S
C1184 C1178 1.379 . S
C1184 C1181 1.363 . S
C1184 N1182 1.356 . S
C1185 C1179 1.363 . S
C1185 C1180 1.379 . S
C1185 N1183 1.356 . S
N1186 C1178 1.356 . S
N1186 H1192 0.984 . S
N1186 H1193 0.984 . S
N1187 C1180 1.356 . S
N1187 H1190 0.984 . S
N1187 H1191 0.985 . S
H1188 N1183 0.984 . S
H1189 N1183 0.985 . S
H1190 N1187 0.984 . S
H1191 N1187 0.985 . S
H1192 N1186 0.984 . S
H1193 N1186 0.984 . S
H1194 N1182 0.984 . S
H1195 N1182 0.985 . S
C1196 C1197 1.363 . S
C1196 C1202 1.379 1_455 S
C1196 N1204 1.356 . S
C1197 C1196 1.363 . S
C1197 C1203 1.363 . S
C1198 C1199 1.363 . S
C1198 C1203 1.379 1_655 S
C1198 N1205 1.356 . S
C1199 C1198 1.363 . S
C1199 C1202 1.363 . S
N1200 C1202 1.356 . S
N1200 H1212 0.984 . S
N1200 H1213 0.985 . S
N1201 C1203 1.356 . S
N1201 H1206 0.984 . S
N1201 H1207 0.985 . S
C1202 C1196 1.379 1_655 S
C1202 C1199 1.363 . S
C1202 N1200 1.356 . S
C1203 C1197 1.363 . S
C1203 C1198 1.379 1_455 S
C1203 N1201 1.356 . S
N1204 C1196 1.356 . S
N1204 H1210 0.984 . S
N1204 H1211 0.984 . S
N1205 C1198 1.356 . S
N1205 H1208 0.984 . S
N1205 H1209 0.985 . S
H1206 N1201 0.984 . S
H1207 N1201 0.985 . S
H1208 N1205 0.984 . S
H1209 N1205 0.985 . S
H1210 N1204 0.984 . S
H1211 N1204 0.984 . S
H1212 N1200 0.984 . S
H1213 N1200 0.985 . S
C1214 C1215 1.363 . S
C1214 C1220 1.379 . S
C1214 N1222 1.356 . S
C1215 C1214 1.363 . S
C1215 C1221 1.363 1_455 S
C1216 C1217 1.363 . S
C1216 C1221 1.379 . S
C1216 N1223 1.356 1_554 S
C1217 C1216 1.363 . S
C1217 C1220 1.363 1_655 S
N1218 C1220 1.356 . S
N1218 H1230 0.984 . S
N1218 H1231 0.985 1_455 S
N1219 C1221 1.356 1_556 S
N1219 H1224 0.984 1_656 S
N1219 H1225 0.985 . S
C1220 C1214 1.379 . S
C1220 C1217 1.363 1_455 S
C1220 N1218 1.356 . S
C1221 C1215 1.363 1_655 S
C1221 C1216 1.379 . S
C1221 N1219 1.356 1_554 S
N1222 C1214 1.356 . S
N1222 H1228 0.984 . S
N1222 H1229 0.984 . S
N1223 C1216 1.356 1_556 S
N1223 H1226 0.984 1_556 S
N1223 H1227 0.985 . S
H1224 N1219 0.984 1_454 S
H1225 N1219 0.985 . S
H1226 N1223 0.984 1_554 S
H1227 N1223 0.985 . S
H1228 N1222 0.984 . S
H1229 N1222 0.984 . S
H1230 N1218 0.984 . S
H1231 N1218 0.985 1_655 S
C1232 C1233 1.363 . S
C1232 C1238 1.379 . S
C1232 N1240 1.356 . S
C1233 C1232 1.363 . S
C1233 C1239 1.363 . S
C1234 C1235 1.363 . S
C1234 C1239 1.379 . S
C1234 N1241 1.356 . S
C1235 C1234 1.363 . S
C1235 C1238 1.363 . S
N1236 C1238 1.356 . S
N1236 H1248 0.984 . S
N1236 H1249 0.985 . S
N1237 C1239 1.356 . S
N1237 H1242 0.984 . S
N1237 H1243 0.985 . S
C1238 C1232 1.379 . S
C1238 C1235 1.363 . S
C1238 N1236 1.356 . S
C1239 C1233 1.363 . S
C1239 C1234 1.379 . S
C1239 N1237 1.356 . S
N1240 C1232 1.356 . S
N1240 H1246 0.984 . S
N1240 H1247 0.984 . S
N1241 C1234 1.356 . S
N1241 H1244 0.984 . S
N1241 H1245 0.985 . S
H1242 N1237 0.984 . S
H1243 N1237 0.985 . S
H1244 N1241 0.984 . S
H1245 N1241 0.985 . S
H1246 N1240 0.984 . S
H1247 N1240 0.984 . S
H1248 N1236 0.984 . S
H1249 N1236 0.985 . S
C1250 C1251 1.363 1_655 S
C1250 C1256 1.379 . S
C1250 N1258 1.356 . S
C1251 C1250 1.363 1_455 S
C1251 C1257 1.363 . S
C1252 C1253 1.363 1_455 S
C1252 C1257 1.379 . S
C1252 N1259 1.356 . S
C1253 C1252 1.363 1_655 S
C1253 C1256 1.363 . S
N1254 C1256 1.356 . S
N1254 H1266 0.984 . S
N1254 H1267 0.985 . S
N1255 C1257 1.356 . S
N1255 H1260 0.984 . S
N1255 H1261 0.985 . S
C1256 C1250 1.379 . S
C1256 C1253 1.363 . S
C1256 N1254 1.356 . S
C1257 C1251 1.363 . S
C1257 C1252 1.379 . S
C1257 N1255 1.356 . S
N1258 C1250 1.356 . S
N1258 H1264 0.984 . S
N1258 H1265 0.984 1_655 S
N1259 C1252 1.356 . S
N1259 H1262 0.984 1_455 S
N1259 H1263 0.985 . S
H1260 N1255 0.984 . S
H1261 N1255 0.985 . S
H1262 N1259 0.984 1_655 S
H1263 N1259 0.985 . S
H1264 N1258 0.984 . S
H1265 N1258 0.984 1_455 S
H1266 N1254 0.984 . S
H1267 N1254 0.985 . S
C1268 C1269 1.363 . S
C1268 C1274 1.379 1_655 S
C1268 N1276 1.356 . S
C1269 C1268 1.363 . S
C1269 C1275 1.363 . S
C1270 C1271 1.363 . S
C1270 C1275 1.379 1_455 S
C1270 N1277 1.356 . S
C1271 C1270 1.363 . S
C1271 C1274 1.363 . S
N1272 C1274 1.356 . S
N1272 H1284 0.984 . S
N1272 H1285 0.985 . S
N1273 C1275 1.356 . S
N1273 H1278 0.984 . S
N1273 H1279 0.985 . S
C1274 C1268 1.379 1_455 S
C1274 C1271 1.363 . S
C1274 N1272 1.356 . S
C1275 C1269 1.363 . S
C1275 C1270 1.379 1_655 S
C1275 N1273 1.356 . S
N1276 C1268 1.356 . S
N1276 H1282 0.984 . S
N1276 H1283 0.984 . S
N1277 C1270 1.356 . S
N1277 H1280 0.984 . S
N1277 H1281 0.985 . S
H1278 N1273 0.984 . S
H1279 N1273 0.985 . S
H1280 N1277 0.984 . S
H1281 N1277 0.985 . S
H1282 N1276 0.984 . S
H1283 N1276 0.984 . S
H1284 N1272 0.984 . S
H1285 N1272 0.985 . S
C1286 C1287 1.363 . S
C1286 C1292 1.379 . S
C1286 N1294 1.356 1_554 S
C1287 C1286 1.363 . S
C1287 C1293 1.363 . S
C1288 C1289 1.363 . S
C1288 C1293 1.379 . S
C1288 N1295 1.356 . S
C1289 C1288 1.363 . S
C1289 C1292 1.363 . S
N1290 C1292 1.356 1_556 S
N1290 H1302 0.984 . S
N1290 H1303 0.985 1_556 S
N1291 C1293 1.356 . S
N1291 H1296 0.984 . S
N1291 H1297 0.985 . S
C1292 C1286 1.379 . S
C1292 C1289 1.363 . S
C1292 N1290 1.356 1_554 S
C1293 C1287 1.363 . S
C1293 C1288 1.379 . S
C1293 N1291 1.356 . S
N1294 C1286 1.356 1_556 S
N1294 H1300 0.984 . S
N1294 H1301 0.984 1_556 S
N1295 C1288 1.356 . S
N1295 H1298 0.984 . S
N1295 H1299 0.985 . S
H1296 N1291 0.984 . S
H1297 N1291 0.985 . S
H1298 N1295 0.984 . S
H1299 N1295 0.985 . S
H1300 N1294 0.984 . S
H1301 N1294 0.984 1_554 S
H1302 N1290 0.984 . S
H1303 N1290 0.985 1_554 S
C1304 C1305 1.363 . S
C1304 C1310 1.379 . S
C1304 N1312 1.356 . S
C1305 C1304 1.363 . S
C1305 C1311 1.363 . S
C1306 C1307 1.363 . S
C1306 C1311 1.379 . S
C1306 N1313 1.356 . S
C1307 C1306 1.363 . S
C1307 C1310 1.363 . S
N1308 C1310 1.356 . S
N1308 H1320 0.984 . S
N1308 H1321 0.985 . S
N1309 C1311 1.356 . S
N1309 H1314 0.984 . S
N1309 H1315 0.985 . S
C1310 C1304 1.379 . S
C1310 C1307 1.363 . S
C1310 N1308 1.356 . S
C1311 C1305 1.363 . S
C1311 C1306 1.379 . S
C1311 N1309 1.356 . S
N1312 C1304 1.356 . S
N1312 H1318 0.984 . S
N1312 H1319 0.984 . S
N1313 C1306 1.356 . S
N1313 H1316 0.984 . S
N1313 H1317 0.985 . S
H1314 N1309 0.984 . S
H1315 N1309 0.985 . S
H1316 N1313 0.984 . S
H1317 N1313 0.985 . S
H1318 N1312 0.984 . S
H1319 N1312 0.984 . S
H1320 N1308 0.984 . S
H1321 N1308 0.985 . S
C1322 C1323 1.363 . S
C1322 C1328 1.379 . S
C1322 N1330 1.356 . S
C1323 C1322 1.363 . S
C1323 C1329 1.363 . S
C1324 C1325 1.363 . S
C1324 C1329 1.379 . S
C1324 N1331 1.356 . S
C1325 C1324 1.363 . S
C1325 C1328 1.363 . S
N1326 C1328 1.356 . S
N1326 H1338 0.984 . S
N1326 H1339 0.985 . S
N1327 C1329 1.356 . S
N1327 H1332 0.984 . S
N1327 H1333 0.985 . S
C1328 C1322 1.379 . S
C1328 C1325 1.363 . S
C1328 N1326 1.356 . S
C1329 C1323 1.363 . S
C1329 C1324 1.379 . S
C1329 N1327 1.356 . S
N1330 C1322 1.356 . S
N1330 H1336 0.984 . S
N1330 H1337 0.984 . S
N1331 C1324 1.356 . S
N1331 H1334 0.984 . S
N1331 H1335 0.985 . S
H1332 N1327 0.984 . S
H1333 N1327 0.985 . S
H1334 N1331 0.984 . S
H1335 N1331 0.985 . S
H1336 N1330 0.984 . S
H1337 N1330 0.984 . S
H1338 N1326 0.984 . S
H1339 N1326 0.985 . S
C1340 C1341 1.363 . S
C1340 C1346 1.379 1_455 S
C1340 N1348 1.356 . S
C1341 C1340 1.363 . S
C1341 C1347 1.363 . S
C1342 C1343 1.363 . S
C1342 C1347 1.379 1_655 S
C1342 N1349 1.356 . S
C1343 C1342 1.363 . S
C1343 C1346 1.363 . S
N1344 C1346 1.356 . S
N1344 H1356 0.984 . S
N1344 H1357 0.985 . S
N1345 C1347 1.356 . S
N1345 H1350 0.984 . S
N1345 H1351 0.985 . S
C1346 C1340 1.379 1_655 S
C1346 C1343 1.363 . S
C1346 N1344 1.356 . S
C1347 C1341 1.363 . S
C1347 C1342 1.379 1_455 S
C1347 N1345 1.356 . S
N1348 C1340 1.356 . S
N1348 H1354 0.984 . S
N1348 H1355 0.984 . S
N1349 C1342 1.356 . S
N1349 H1352 0.984 . S
N1349 H1353 0.985 . S
H1350 N1345 0.984 . S
H1351 N1345 0.985 . S
H1352 N1349 0.984 . S
H1353 N1349 0.985 . S
H1354 N1348 0.984 . S
H1355 N1348 0.984 . S
H1356 N1344 0.984 . S
H1357 N1344 0.985 . S
C1358 C1359 1.363 . S
C1358 C1364 1.379 . S
C1358 N1366 1.356 1_556 S
C1359 C1358 1.363 . S
C1359 C1365 1.363 1_455 S
C1360 C1361 1.363 . S
C1360 C1365 1.379 . S
C1360 N1367 1.356 . S
C1361 C1360 1.363 . S
C1361 C1364 1.363 1_655 S
N1362 C1364 1.356 1_554 S
N1362 H1374 0.984 . S
N1362 H1375 0.985 1_454 S
N1363 C1365 1.356 . S
N1363 H1368 0.984 1_655 S
N1363 H1369 0.985 . S
C1364 C1358 1.379 . S
C1364 C1361 1.363 1_455 S
C1364 N1362 1.356 1_556 S
C1365 C1359 1.363 1_655 S
C1365 C1360 1.379 . S
C1365 N1363 1.356 . S
N1366 C1358 1.356 1_554 S
N1366 H1372 0.984 . S
N1366 H1373 0.984 1_554 S
N1367 C1360 1.356 . S
N1367 H1370 0.984 . S
N1367 H1371 0.985 . S
H1368 N1363 0.984 1_455 S
H1369 N1363 0.985 . S
H1370 N1367 0.984 . S
H1371 N1367 0.985 . S
H1372 N1366 0.984 . S
H1373 N1366 0.984 1_556 S
H1374 N1362 0.984 . S
H1375 N1362 0.985 1_656 S
C1376 C1377 1.363 . S
C1376 C1382 1.379 . S
C1376 N1384 1.356 . S
C1377 C1376 1.363 . S
C1377 C1383 1.363 . S
C1378 C1379 1.363 . S
C1378 C1383 1.379 . S
C1378 N1385 1.356 . S
C1379 C1378 1.363 . S
C1379 C1382 1.363 . S
N1380 C1382 1.356 . S
N1380 H1392 0.984 . S
N1380 H1393 0.985 . S
N1381 C1383 1.356 . S
N1381 H1386 0.984 . S
N1381 H1387 0.985 . S
C1382 C1376 1.379 . S
C1382 C1379 1.363 . S
C1382 N1380 1.356 . S
C1383 C1377 1.363 . S
C1383 C1378 1.379 . S
C1383 N1381 1.356 . S
N1384 C1376 1.356 . S
N1384 H1390 0.984 . S
N1384 H1391 0.984 . S
N1385 C1378 1.356 . S
N1385 H1388 0.984 . S
N1385 H1389 0.985 . S
H1386 N1381 0.984 . S
H1387 N1381 0.985 . S
H1388 N1385 0.984 . S
H1389 N1385 0.985 . S
H1390 N1384 0.984 . S
H1391 N1384 0.984 . S
H1392 N1380 0.984 . S
H1393 N1380 0.985 . S
C1394 C1395 1.363 . S
C1394 C1400 1.379 . S
C1394 N1402 1.356 . S
C1395 C1394 1.363 . S
C1395 C1401 1.363 . S
C1396 C1397 1.363 . S
C1396 C1401 1.379 . S
C1396 N1403 1.356 . S
C1397 C1396 1.363 . S
C1397 C1400 1.363 . S
N1398 C1400 1.356 . S
N1398 H1410 0.984 . S
N1398 H1411 0.985 . S
N1399 C1401 1.356 . S
N1399 H1404 0.984 . S
N1399 H1405 0.985 . S
C1400 C1394 1.379 . S
C1400 C1397 1.363 . S
C1400 N1398 1.356 . S
C1401 C1395 1.363 . S
C1401 C1396 1.379 . S
C1401 N1399 1.356 . S
N1402 C1394 1.356 . S
N1402 H1408 0.984 . S
N1402 H1409 0.984 . S
N1403 C1396 1.356 . S
N1403 H1406 0.984 . S
N1403 H1407 0.985 . S
H1404 N1399 0.984 . S
H1405 N1399 0.985 . S
H1406 N1403 0.984 . S
H1407 N1403 0.985 . S
H1408 N1402 0.984 . S
H1409 N1402 0.984 . S
H1410 N1398 0.984 . S
H1411 N1398 0.985 . S
C1412 C1413 1.363 . S
C1412 C1418 1.379 . S
C1412 N1420 1.356 . S
C1413 C1412 1.363 . S
C1413 C1419 1.363 . S
C1414 C1415 1.363 . S
C1414 C1419 1.379 . S
C1414 N1421 1.356 1_455 S
C1415 C1414 1.363 . S
C1415 C1418 1.363 . S
N1416 C1418 1.356 . S
N1416 H1428 0.984 . S
N1416 H1429 0.985 1_455 S
N1417 C1419 1.356 . S
N1417 H1422 0.984 . S
N1417 H1423 0.985 . S
C1418 C1412 1.379 . S
C1418 C1415 1.363 . S
C1418 N1416 1.356 . S
C1419 C1413 1.363 . S
C1419 C1414 1.379 . S
C1419 N1417 1.356 . S
N1420 C1412 1.356 . S
N1420 H1426 0.984 . S
N1420 H1427 0.984 . S
N1421 C1414 1.356 1_655 S
N1421 H1424 0.984 . S
N1421 H1425 0.985 . S
H1422 N1417 0.984 . S
H1423 N1417 0.985 . S
H1424 N1421 0.984 . S
H1425 N1421 0.985 . S
H1426 N1420 0.984 . S
H1427 N1420 0.984 . S
H1428 N1416 0.984 . S
H1429 N1416 0.985 1_655 S
C1430 C1431 1.363 . S
C1430 C1436 1.379 . S
C1430 N1438 1.356 . S
C1431 C1430 1.363 . S
C1431 C1437 1.363 . S
C1432 C1433 1.363 . S
C1432 C1437 1.379 . S
C1432 N1439 1.356 . S
C1433 C1432 1.363 . S
C1433 C1436 1.363 . S
N1434 C1436 1.356 . S
N1434 H1446 0.984 . S
N1434 H1447 0.985 . S
N1435 C1437 1.356 . S
N1435 H1440 0.984 . S
N1435 H1441 0.985 . S
C1436 C1430 1.379 . S
C1436 C1433 1.363 . S
C1436 N1434 1.356 . S
C1437 C1431 1.363 . S
C1437 C1432 1.379 . S
C1437 N1435 1.356 . S
N1438 C1430 1.356 . S
N1438 H1444 0.984 . S
N1438 H1445 0.984 . S
N1439 C1432 1.356 . S
N1439 H1442 0.984 . S
N1439 H1443 0.985 . S
H1440 N1435 0.984 . S
H1441 N1435 0.985 . S
H1442 N1439 0.984 . S
H1443 N1439 0.985 . S
H1444 N1438 0.984 . S
H1445 N1438 0.984 . S
H1446 N1434 0.984 . S
H1447 N1434 0.985 . S
C1448 C1449 1.363 . S
C1448 C1454 1.379 . S
C1448 N1456 1.356 . S
C1449 C1448 1.363 . S
C1449 C1455 1.363 . S
C1450 C1451 1.363 . S
C1450 C1455 1.379 . S
C1450 N1457 1.356 . S
C1451 C1450 1.363 . S
C1451 C1454 1.363 . S
N1452 C1454 1.356 . S
N1452 H1464 0.984 . S
N1452 H1465 0.985 . S
N1453 C1455 1.356 . S
N1453 H1458 0.984 . S
N1453 H1459 0.985 . S
C1454 C1448 1.379 . S
C1454 C1451 1.363 . S
C1454 N1452 1.356 . S
C1455 C1449 1.363 . S
C1455 C1450 1.379 . S
C1455 N1453 1.356 . S
N1456 C1448 1.356 . S
N1456 H1462 0.984 . S
N1456 H1463 0.984 . S
N1457 C1450 1.356 . S
N1457 H1460 0.984 . S
N1457 H1461 0.985 . S
H1458 N1453 0.984 . S
H1459 N1453 0.985 . S
H1460 N1457 0.984 . S
H1461 N1457 0.985 . S
H1462 N1456 0.984 . S
H1463 N1456 0.984 . S
H1464 N1452 0.984 . S
H1465 N1452 0.985 . S
C1466 C1467 1.363 . S
C1466 C1472 1.379 . S
C1466 N1474 1.356 . S
C1467 C1466 1.363 . S
C1467 C1473 1.363 . S
C1468 C1469 1.363 . S
C1468 C1473 1.379 . S
C1468 N1475 1.356 . S
C1469 C1468 1.363 . S
C1469 C1472 1.363 . S
N1470 C1472 1.356 . S
N1470 H1482 0.984 . S
N1470 H1483 0.985 . S
N1471 C1473 1.356 . S
N1471 H1476 0.984 . S
N1471 H1477 0.985 . S
C1472 C1466 1.379 . S
C1472 C1469 1.363 . S
C1472 N1470 1.356 . S
C1473 C1467 1.363 . S
C1473 C1468 1.379 . S
C1473 N1471 1.356 . S
N1474 C1466 1.356 . S
N1474 H1480 0.984 . S
N1474 H1481 0.984 . S
N1475 C1468 1.356 . S
N1475 H1478 0.984 . S
N1475 H1479 0.985 . S
H1476 N1471 0.984 . S
H1477 N1471 0.985 . S
H1478 N1475 0.984 . S
H1479 N1475 0.985 . S
H1480 N1474 0.984 . S
H1481 N1474 0.984 . S
H1482 N1470 0.984 . S
H1483 N1470 0.985 . S
C1484 C1485 1.363 . S
C1484 C1490 1.379 . S
C1484 N1492 1.356 . S
C1485 C1484 1.363 . S
C1485 C1491 1.363 . S
C1486 C1487 1.363 . S
C1486 C1491 1.379 . S
C1486 N1493 1.356 . S
C1487 C1486 1.363 . S
C1487 C1490 1.363 . S
N1488 C1490 1.356 . S
N1488 H1500 0.984 . S
N1488 H1501 0.985 . S
N1489 C1491 1.356 1_655 S
N1489 H1494 0.984 . S
N1489 H1495 0.985 . S
C1490 C1484 1.379 . S
C1490 C1487 1.363 . S
C1490 N1488 1.356 . S
C1491 C1485 1.363 . S
C1491 C1486 1.379 . S
C1491 N1489 1.356 1_455 S
N1492 C1484 1.356 . S
N1492 H1498 0.984 . S
N1492 H1499 0.984 . S
N1493 C1486 1.356 . S
N1493 H1496 0.984 . S
N1493 H1497 0.985 . S
H1494 N1489 0.984 . S
H1495 N1489 0.985 . S
H1496 N1493 0.984 . S
H1497 N1493 0.985 . S
H1498 N1492 0.984 . S
H1499 N1492 0.984 . S
H1500 N1488 0.984 . S
H1501 N1488 0.985 . S
C1502 C1503 1.363 . S
C1502 C1508 1.379 . S
C1502 N1510 1.356 . S
C1503 C1502 1.363 . S
C1503 C1509 1.363 . S
C1504 C1505 1.363 . S
C1504 C1509 1.379 . S
C1504 N1511 1.356 . S
C1505 C1504 1.363 . S
C1505 C1508 1.363 . S
N1506 C1508 1.356 . S
N1506 H1518 0.984 . S
N1506 H1519 0.985 . S
N1507 C1509 1.356 . S
N1507 H1512 0.984 . S
N1507 H1513 0.985 . S
C1508 C1502 1.379 . S
C1508 C1505 1.363 . S
C1508 N1506 1.356 . S
C1509 C1503 1.363 . S
C1509 C1504 1.379 . S
C1509 N1507 1.356 . S
N1510 C1502 1.356 . S
N1510 H1516 0.984 . S
N1510 H1517 0.984 . S
N1511 C1504 1.356 . S
N1511 H1514 0.984 . S
N1511 H1515 0.985 . S
H1512 N1507 0.984 . S
H1513 N1507 0.985 . S
H1514 N1511 0.984 . S
H1515 N1511 0.985 . S
H1516 N1510 0.984 . S
H1517 N1510 0.984 . S
H1518 N1506 0.984 . S
H1519 N1506 0.985 . S
C1520 C1521 1.363 . S
C1520 C1526 1.379 . S
C1520 N1528 1.356 . S
C1521 C1520 1.363 . S
C1521 C1527 1.363 . S
C1522 C1523 1.363 . S
C1522 C1527 1.379 . S
C1522 N1529 1.356 . S
C1523 C1522 1.363 . S
C1523 C1526 1.363 . S
N1524 C1526 1.356 . S
N1524 H1536 0.984 . S
N1524 H1537 0.985 . S
N1525 C1527 1.356 . S
N1525 H1530 0.984 . S
N1525 H1531 0.985 . S
C1526 C1520 1.379 . S
C1526 C1523 1.363 . S
C1526 N1524 1.356 . S
C1527 C1521 1.363 . S
C1527 C1522 1.379 . S
C1527 N1525 1.356 . S
N1528 C1520 1.356 . S
N1528 H1534 0.984 . S
N1528 H1535 0.984 . S
N1529 C1522 1.356 . S
N1529 H1532 0.984 . S
N1529 H1533 0.985 . S
H1530 N1525 0.984 . S
H1531 N1525 0.985 . S
H1532 N1529 0.984 . S
H1533 N1529 0.985 . S
H1534 N1528 0.984 . S
H1535 N1528 0.984 . S
H1536 N1524 0.984 . S
H1537 N1524 0.985 . S
C1538 C1539 1.363 . S
C1538 C1544 1.379 . S
C1538 N1546 1.356 . S
C1539 C1538 1.363 . S
C1539 C1545 1.363 . S
C1540 C1541 1.363 . S
C1540 C1545 1.379 . S
C1540 N1547 1.356 . S
C1541 C1540 1.363 . S
C1541 C1544 1.363 . S
N1542 C1544 1.356 . S
N1542 H1554 0.984 . S
N1542 H1555 0.985 . S
N1543 C1545 1.356 . S
N1543 H1548 0.984 . S
N1543 H1549 0.985 . S
C1544 C1538 1.379 . S
C1544 C1541 1.363 . S
C1544 N1542 1.356 . S
C1545 C1539 1.363 . S
C1545 C1540 1.379 . S
C1545 N1543 1.356 . S
N1546 C1538 1.356 . S
N1546 H1552 0.984 . S
N1546 H1553 0.984 . S
N1547 C1540 1.356 . S
N1547 H1550 0.984 . S
N1547 H1551 0.985 . S
H1548 N1543 0.984 . S
H1549 N1543 0.985 . S
H1550 N1547 0.984 . S
H1551 N1547 0.985 . S
H1552 N1546 0.984 . S
H1553 N1546 0.984 . S
H1554 N1542 0.984 . S
H1555 N1542 0.985 . S
C1556 C1557 1.363 . S
C1556 C1562 1.379 . S
C1556 N1564 1.356 . S
C1557 C1556 1.363 . S
C1557 C1563 1.363 . S
C1558 C1559 1.363 . S
C1558 C1563 1.379 . S
C1558 N1565 1.356 1_655 S
C1559 C1558 1.363 . S
C1559 C1562 1.363 . S
N1560 C1562 1.356 . S
N1560 H1572 0.984 . S
N1560 H1573 0.985 1_655 S
N1561 C1563 1.356 . S
N1561 H1566 0.984 . S
N1561 H1567 0.985 . S
C1562 C1556 1.379 . S
C1562 C1559 1.363 . S
C1562 N1560 1.356 . S
C1563 C1557 1.363 . S
C1563 C1558 1.379 . S
C1563 N1561 1.356 . S
N1564 C1556 1.356 . S
N1564 H1570 0.984 . S
N1564 H1571 0.984 . S
N1565 C1558 1.356 1_455 S
N1565 H1568 0.984 . S
N1565 H1569 0.985 1_455 S
H1566 N1561 0.984 . S
H1567 N1561 0.985 . S
H1568 N1565 0.984 . S
H1569 N1565 0.985 1_655 S
H1570 N1564 0.984 . S
H1571 N1564 0.984 . S
H1572 N1560 0.984 . S
H1573 N1560 0.985 1_455 S
C1574 C1575 1.363 . S
C1574 C1580 1.379 . S
C1574 N1582 1.356 . S
C1575 C1574 1.363 . S
C1575 C1581 1.363 . S
C1576 C1577 1.363 . S
C1576 C1581 1.379 . S
C1576 N1583 1.356 . S
C1577 C1576 1.363 . S
C1577 C1580 1.363 . S
N1578 C1580 1.356 . S
N1578 H1590 0.984 . S
N1578 H1591 0.985 . S
N1579 C1581 1.356 . S
N1579 H1584 0.984 . S
N1579 H1585 0.985 . S
C1580 C1574 1.379 . S
C1580 C1577 1.363 . S
C1580 N1578 1.356 . S
C1581 C1575 1.363 . S
C1581 C1576 1.379 . S
C1581 N1579 1.356 . S
N1582 C1574 1.356 . S
N1582 H1588 0.984 . S
N1582 H1589 0.984 . S
N1583 C1576 1.356 . S
N1583 H1586 0.984 . S
N1583 H1587 0.985 . S
H1584 N1579 0.984 . S
H1585 N1579 0.985 . S
H1586 N1583 0.984 . S
H1587 N1583 0.985 . S
H1588 N1582 0.984 . S
H1589 N1582 0.984 . S
H1590 N1578 0.984 . S
H1591 N1578 0.985 . S
C1592 C1593 1.363 . S
C1592 C1598 1.379 . S
C1592 N1600 1.356 . S
C1593 C1592 1.363 . S
C1593 C1599 1.363 . S
C1594 C1595 1.363 . S
C1594 C1599 1.379 . S
C1594 N1601 1.356 . S
C1595 C1594 1.363 . S
C1595 C1598 1.363 . S
N1596 C1598 1.356 . S
N1596 H1608 0.984 . S
N1596 H1609 0.985 . S
N1597 C1599 1.356 . S
N1597 H1602 0.984 . S
N1597 H1603 0.985 . S
C1598 C1592 1.379 . S
C1598 C1595 1.363 . S
C1598 N1596 1.356 . S
C1599 C1593 1.363 . S
C1599 C1594 1.379 . S
C1599 N1597 1.356 . S
N1600 C1592 1.356 . S
N1600 H1606 0.984 . S
N1600 H1607 0.984 . S
N1601 C1594 1.356 . S
N1601 H1604 0.984 . S
N1601 H1605 0.985 . S
H1602 N1597 0.984 . S
H1603 N1597 0.985 . S
H1604 N1601 0.984 . S
H1605 N1601 0.985 . S
H1606 N1600 0.984 . S
H1607 N1600 0.984 . S
H1608 N1596 0.984 . S
H1609 N1596 0.985 . S
C1610 C1611 1.363 . S
C1610 C1616 1.379 . S
C1610 N1618 1.356 . S
C1611 C1610 1.363 . S
C1611 C1617 1.363 . S
C1612 C1613 1.363 . S
C1612 C1617 1.379 . S
C1612 N1619 1.356 . S
C1613 C1612 1.363 . S
C1613 C1616 1.363 . S
N1614 C1616 1.356 . S
N1614 H1626 0.984 . S
N1614 H1627 0.985 . S
N1615 C1617 1.356 . S
N1615 H1620 0.984 . S
N1615 H1621 0.985 . S
C1616 C1610 1.379 . S
C1616 C1613 1.363 . S
C1616 N1614 1.356 . S
C1617 C1611 1.363 . S
C1617 C1612 1.379 . S
C1617 N1615 1.356 . S
N1618 C1610 1.356 . S
N1618 H1624 0.984 . S
N1618 H1625 0.984 . S
N1619 C1612 1.356 . S
N1619 H1622 0.984 . S
N1619 H1623 0.985 . S
H1620 N1615 0.984 . S
H1621 N1615 0.985 . S
H1622 N1619 0.984 . S
H1623 N1619 0.985 . S
H1624 N1618 0.984 . S
H1625 N1618 0.984 . S
H1626 N1614 0.984 . S
H1627 N1614 0.985 . S
C1628 C1629 1.363 . S
C1628 C1634 1.379 . S
C1628 N1636 1.356 . S
C1629 C1628 1.363 . S
C1629 C1635 1.363 . S
C1630 C1631 1.363 . S
C1630 C1635 1.379 . S
C1630 N1637 1.356 1_655 S
C1631 C1630 1.363 . S
C1631 C1634 1.363 . S
N1632 C1634 1.356 . S
N1632 H1644 0.984 . S
N1632 H1645 0.985 1_655 S
N1633 C1635 1.356 . S
N1633 H1638 0.984 . S
N1633 H1639 0.985 . S
C1634 C1628 1.379 . S
C1634 C1631 1.363 . S
C1634 N1632 1.356 . S
C1635 C1629 1.363 . S
C1635 C1630 1.379 . S
C1635 N1633 1.356 . S
N1636 C1628 1.356 . S
N1636 H1642 0.984 . S
N1636 H1643 0.984 . S
N1637 C1630 1.356 1_455 S
N1637 H1640 0.984 . S
N1637 H1641 0.985 . S
H1638 N1633 0.984 . S
H1639 N1633 0.985 . S
H1640 N1637 0.984 . S
H1641 N1637 0.985 . S
H1642 N1636 0.984 . S
H1643 N1636 0.984 . S
H1644 N1632 0.984 . S
H1645 N1632 0.985 1_455 S
C1646 C1647 1.363 . S
C1646 C1652 1.379 . S
C1646 N1654 1.356 . S
C1647 C1646 1.363 . S
C1647 C1653 1.363 . S
C1648 C1649 1.363 . S
C1648 C1653 1.379 . S
C1648 N1655 1.356 . S
C1649 C1648 1.363 . S
C1649 C1652 1.363 . S
N1650 C1652 1.356 . S
N1650 H1662 0.984 . S
N1650 H1663 0.985 . S
N1651 C1653 1.356 . S
N1651 H1656 0.984 . S
N1651 H1657 0.985 . S
C1652 C1646 1.379 . S
C1652 C1649 1.363 . S
C1652 N1650 1.356 . S
C1653 C1647 1.363 . S
C1653 C1648 1.379 . S
C1653 N1651 1.356 . S
N1654 C1646 1.356 . S
N1654 H1660 0.984 . S
N1654 H1661 0.984 . S
N1655 C1648 1.356 . S
N1655 H1658 0.984 . S
N1655 H1659 0.985 . S
H1656 N1651 0.984 . S
H1657 N1651 0.985 . S
H1658 N1655 0.984 . S
H1659 N1655 0.985 . S
H1660 N1654 0.984 . S
H1661 N1654 0.984 . S
H1662 N1650 0.984 . S
H1663 N1650 0.985 . S
C1664 C1665 1.363 . S
C1664 C1670 1.379 . S
C1664 N1672 1.356 1_655 S
C1665 C1664 1.363 . S
C1665 C1671 1.363 . S
C1666 C1667 1.363 . S
C1666 C1671 1.379 . S
C1666 N1673 1.356 . S
C1667 C1666 1.363 . S
C1667 C1670 1.363 . S
N1668 C1670 1.356 . S
N1668 H1680 0.984 . S
N1668 H1681 0.985 . S
N1669 C1671 1.356 . S
N1669 H1674 0.984 1_655 S
N1669 H1675 0.985 . S
C1670 C1664 1.379 . S
C1670 C1667 1.363 . S
C1670 N1668 1.356 . S
C1671 C1665 1.363 . S
C1671 C1666 1.379 . S
C1671 N1669 1.356 . S
N1672 C1664 1.356 1_455 S
N1672 H1678 0.984 . S
N1672 H1679 0.984 . S
N1673 C1666 1.356 . S
N1673 H1676 0.984 . S
N1673 H1677 0.985 . S
H1674 N1669 0.984 1_455 S
H1675 N1669 0.985 . S
H1676 N1673 0.984 . S
H1677 N1673 0.985 . S
H1678 N1672 0.984 . S
H1679 N1672 0.984 . S
H1680 N1668 0.984 . S
H1681 N1668 0.985 . S
C1682 C1683 1.363 . S
C1682 C1688 1.379 . S
C1682 N1690 1.356 . S
C1683 C1682 1.363 . S
C1683 C1689 1.363 . S
C1684 C1685 1.363 . S
C1684 C1689 1.379 . S
C1684 N1691 1.356 . S
C1685 C1684 1.363 . S
C1685 C1688 1.363 . S
N1686 C1688 1.356 . S
N1686 H1698 0.984 . S
N1686 H1699 0.985 . S
N1687 C1689 1.356 . S
N1687 H1692 0.984 . S
N1687 H1693 0.985 . S
C1688 C1682 1.379 . S
C1688 C1685 1.363 . S
C1688 N1686 1.356 . S
C1689 C1683 1.363 . S
C1689 C1684 1.379 . S
C1689 N1687 1.356 . S
N1690 C1682 1.356 . S
N1690 H1696 0.984 . S
N1690 H1697 0.984 . S
N1691 C1684 1.356 . S
N1691 H1694 0.984 . S
N1691 H1695 0.985 . S
H1692 N1687 0.984 . S
H1693 N1687 0.985 . S
H1694 N1691 0.984 . S
H1695 N1691 0.985 . S
H1696 N1690 0.984 . S
H1697 N1690 0.984 . S
H1698 N1686 0.984 . S
H1699 N1686 0.985 . S
C1700 C1701 1.363 . S
C1700 C1706 1.379 . S
C1700 N1708 1.356 . S
C1701 C1700 1.363 . S
C1701 C1707 1.363 . S
C1702 C1703 1.363 . S
C1702 C1707 1.379 . S
C1702 N1709 1.356 . S
C1703 C1702 1.363 . S
C1703 C1706 1.363 . S
N1704 C1706 1.356 . S
N1704 H1716 0.984 . S
N1704 H1717 0.985 . S
N1705 C1707 1.356 . S
N1705 H1710 0.984 . S
N1705 H1711 0.985 . S
C1706 C1700 1.379 . S
C1706 C1703 1.363 . S
C1706 N1704 1.356 . S
C1707 C1701 1.363 . S
C1707 C1702 1.379 . S
C1707 N1705 1.356 . S
N1708 C1700 1.356 . S
N1708 H1714 0.984 . S
N1708 H1715 0.984 . S
N1709 C1702 1.356 . S
N1709 H1712 0.984 . S
N1709 H1713 0.985 . S
H1710 N1705 0.984 . S
H1711 N1705 0.985 . S
H1712 N1709 0.984 . S
H1713 N1709 0.985 . S
H1714 N1708 0.984 . S
H1715 N1708 0.984 . S
H1716 N1704 0.984 . S
H1717 N1704 0.985 . S
C1718 C1719 1.363 . S
C1718 C1724 1.379 . S
C1718 N1726 1.356 . S
C1719 C1718 1.363 . S
C1719 C1725 1.363 . S
C1720 C1721 1.363 . S
C1720 C1725 1.379 . S
C1720 N1727 1.356 . S
C1721 C1720 1.363 . S
C1721 C1724 1.363 . S
N1722 C1724 1.356 . S
N1722 H1734 0.984 . S
N1722 H1735 0.985 . S
N1723 C1725 1.356 . S
N1723 H1728 0.984 . S
N1723 H1729 0.985 . S
C1724 C1718 1.379 . S
C1724 C1721 1.363 . S
C1724 N1722 1.356 . S
C1725 C1719 1.363 . S
C1725 C1720 1.379 . S
C1725 N1723 1.356 . S
N1726 C1718 1.356 . S
N1726 H1732 0.984 . S
N1726 H1733 0.984 . S
N1727 C1720 1.356 . S
N1727 H1730 0.984 . S
N1727 H1731 0.985 . S
H1728 N1723 0.984 . S
H1729 N1723 0.985 . S
H1730 N1727 0.984 . S
H1731 N1727 0.985 . S
H1732 N1726 0.984 . S
H1733 N1726 0.984 . S
H1734 N1722 0.984 . S
H1735 N1722 0.985 . S
C1736 C1737 1.363 . S
C1736 C1742 1.379 . S
C1736 N1744 1.356 . S
C1737 C1736 1.363 . S
C1737 C1743 1.363 . S
C1738 C1739 1.363 . S
C1738 C1743 1.379 . S
C1738 N1745 1.356 1_655 S
C1739 C1738 1.363 . S
C1739 C1742 1.363 . S
N1740 C1742 1.356 . S
N1740 H1752 0.984 . S
N1740 H1753 0.985 . S
N1741 C1743 1.356 . S
N1741 H1746 0.984 . S
N1741 H1747 0.985 . S
C1742 C1736 1.379 . S
C1742 C1739 1.363 . S
C1742 N1740 1.356 . S
C1743 C1737 1.363 . S
C1743 C1738 1.379 . S
C1743 N1741 1.356 . S
N1744 C1736 1.356 . S
N1744 H1750 0.984 . S
N1744 H1751 0.984 . S
N1745 C1738 1.356 1_455 S
N1745 H1748 0.984 . S
N1745 H1749 0.985 . S
H1746 N1741 0.984 . S
H1747 N1741 0.985 . S
H1748 N1745 0.984 . S
H1749 N1745 0.985 . S
H1750 N1744 0.984 . S
H1751 N1744 0.984 . S
H1752 N1740 0.984 . S
H1753 N1740 0.985 . S
C1754 C1755 1.363 . S
C1754 C1760 1.379 . S
C1754 N1762 1.356 . S
C1755 C1754 1.363 . S
C1755 C1761 1.363 . S
C1756 C1757 1.363 . S
C1756 C1761 1.379 . S
C1756 N1763 1.356 . S
C1757 C1756 1.363 . S
C1757 C1760 1.363 . S
N1758 C1760 1.356 . S
N1758 H1770 0.984 . S
N1758 H1771 0.985 . S
N1759 C1761 1.356 . S
N1759 H1764 0.984 . S
N1759 H1765 0.985 . S
C1760 C1754 1.379 . S
C1760 C1757 1.363 . S
C1760 N1758 1.356 . S
C1761 C1755 1.363 . S
C1761 C1756 1.379 . S
C1761 N1759 1.356 . S
N1762 C1754 1.356 . S
N1762 H1768 0.984 . S
N1762 H1769 0.984 . S
N1763 C1756 1.356 . S
N1763 H1766 0.984 . S
N1763 H1767 0.985 . S
H1764 N1759 0.984 . S
H1765 N1759 0.985 . S
H1766 N1763 0.984 . S
H1767 N1763 0.985 . S
H1768 N1762 0.984 . S
H1769 N1762 0.984 . S
H1770 N1758 0.984 . S
H1771 N1758 0.985 . S
C1772 C1773 1.363 . S
C1772 C1778 1.379 . S
C1772 N1780 1.356 . S
C1773 C1772 1.363 . S
C1773 C1779 1.363 . S
C1774 C1775 1.363 . S
C1774 C1779 1.379 . S
C1774 N1781 1.356 . S
C1775 C1774 1.363 . S
C1775 C1778 1.363 . S
N1776 C1778 1.356 . S
N1776 H1788 0.984 . S
N1776 H1789 0.985 . S
N1777 C1779 1.356 . S
N1777 H1782 0.984 . S
N1777 H1783 0.985 . S
C1778 C1772 1.379 . S
C1778 C1775 1.363 . S
C1778 N1776 1.356 . S
C1779 C1773 1.363 . S
C1779 C1774 1.379 . S
C1779 N1777 1.356 . S
N1780 C1772 1.356 . S
N1780 H1786 0.984 . S
N1780 H1787 0.984 . S
N1781 C1774 1.356 . S
N1781 H1784 0.984 . S
N1781 H1785 0.985 . S
H1782 N1777 0.984 . S
H1783 N1777 0.985 . S
H1784 N1781 0.984 . S
H1785 N1781 0.985 . S
H1786 N1780 0.984 . S
H1787 N1780 0.984 . S
H1788 N1776 0.984 . S
H1789 N1776 0.985 . S
C1790 C1791 1.363 . S
C1790 C1796 1.379 . S
C1790 N1798 1.356 . S
C1791 C1790 1.363 . S
C1791 C1797 1.363 . S
C1792 C1793 1.363 . S
C1792 C1797 1.379 . S
C1792 N1799 1.356 . S
C1793 C1792 1.363 . S
C1793 C1796 1.363 . S
N1794 C1796 1.356 . S
N1794 H1806 0.984 . S
N1794 H1807 0.985 . S
N1795 C1797 1.356 . S
N1795 H1800 0.984 . S
N1795 H1801 0.985 . S
C1796 C1790 1.379 . S
C1796 C1793 1.363 . S
C1796 N1794 1.356 . S
C1797 C1791 1.363 . S
C1797 C1792 1.379 . S
C1797 N1795 1.356 . S
N1798 C1790 1.356 . S
N1798 H1804 0.984 . S
N1798 H1805 0.984 . S
N1799 C1792 1.356 . S
N1799 H1802 0.984 . S
N1799 H1803 0.985 . S
H1800 N1795 0.984 . S
H1801 N1795 0.985 . S
H1802 N1799 0.984 . S
H1803 N1799 0.985 . S
H1804 N1798 0.984 . S
H1805 N1798 0.984 . S
H1806 N1794 0.984 . S
H1807 N1794 0.985 . S
C1808 C1809 1.363 . S
C1808 C1814 1.379 . S
C1808 N1816 1.361 . S
C1809 C1808 1.363 . S
C1809 C1815 1.363 . S
C1810 C1811 1.363 . S
C1810 C1815 1.379 . S
C1810 N1817 1.356 . S
C1811 C1810 1.363 . S
C1811 C1814 1.363 . S
N1812 C1814 1.356 . S
N1812 H1824 0.984 . S
N1812 H1825 0.985 . S
N1813 C1815 1.356 . S
N1813 H1818 0.984 1_455 S
N1813 H1819 0.985 . S
C1814 C1808 1.379 . S
C1814 C1811 1.363 . S
C1814 N1812 1.356 . S
C1815 C1809 1.363 . S
C1815 C1810 1.379 . S
C1815 N1813 1.356 . S
N1816 C1808 1.361 . S
N1816 H1822 0.985 . S
N1816 H1823 0.979 1_455 S
N1817 C1810 1.356 . S
N1817 H1820 0.984 . S
N1817 H1821 0.985 . S
H1818 N1813 0.984 1_655 S
H1819 N1813 0.985 . S
H1820 N1817 0.984 . S
H1821 N1817 0.985 . S
H1822 N1816 0.985 . S
H1823 N1816 0.979 1_655 S
H1824 N1812 0.984 . S
H1825 N1812 0.985 . S
C1826 C1827 1.363 . S
C1826 C1832 1.379 . S
C1826 N1834 1.356 . S
C1827 C1826 1.363 . S
C1827 C1833 1.363 . S
C1828 C1829 1.363 . S
C1828 C1833 1.379 . S
C1828 N1835 1.356 . S
C1829 C1828 1.363 . S
C1829 C1832 1.363 . S
N1830 C1832 1.356 . S
N1830 H1842 0.984 . S
N1830 H1843 0.985 . S
N1831 C1833 1.356 . S
N1831 H1836 0.984 . S
N1831 H1837 0.985 . S
C1832 C1826 1.379 . S
C1832 C1829 1.363 . S
C1832 N1830 1.356 . S
C1833 C1827 1.363 . S
C1833 C1828 1.379 . S
C1833 N1831 1.356 . S
N1834 C1826 1.356 . S
N1834 H1840 0.984 . S
N1834 H1841 0.984 . S
N1835 C1828 1.356 . S
N1835 H1838 0.984 . S
N1835 H1839 0.985 . S
H1836 N1831 0.984 . S
H1837 N1831 0.985 . S
H1838 N1835 0.984 . S
H1839 N1835 0.985 . S
H1840 N1834 0.984 . S
H1841 N1834 0.984 . S
H1842 N1830 0.984 . S
H1843 N1830 0.985 . S
C1844 C1845 1.363 . S
C1844 C1850 1.379 . S
C1844 N1852 1.356 . S
C1845 C1844 1.363 . S
C1845 C1851 1.363 . S
C1846 C1847 1.363 . S
C1846 C1851 1.379 . S
C1846 N1853 1.356 . S
C1847 C1846 1.363 . S
C1847 C1850 1.363 . S
N1848 C1850 1.356 . S
N1848 H1860 0.984 . S
N1848 H1861 0.985 . S
N1849 C1851 1.356 . S
N1849 H1854 0.984 . S
N1849 H1855 0.985 . S
C1850 C1844 1.379 . S
C1850 C1847 1.363 . S
C1850 N1848 1.356 . S
C1851 C1845 1.363 . S
C1851 C1846 1.379 . S
C1851 N1849 1.356 . S
N1852 C1844 1.356 . S
N1852 H1858 0.984 . S
N1852 H1859 0.984 . S
N1853 C1846 1.356 . S
N1853 H1856 0.984 . S
N1853 H1857 0.985 . S
H1854 N1849 0.984 . S
H1855 N1849 0.985 . S
H1856 N1853 0.984 . S
H1857 N1853 0.985 . S
H1858 N1852 0.984 . S
H1859 N1852 0.984 . S
H1860 N1848 0.984 . S
H1861 N1848 0.985 . S
C1862 C1863 1.363 . S
C1862 C1868 1.379 . S
C1862 N1870 1.356 . S
C1863 C1862 1.363 . S
C1863 C1869 1.363 . S
C1864 C1865 1.363 . S
C1864 C1869 1.379 . S
C1864 N1871 1.356 . S
C1865 C1864 1.363 . S
C1865 C1868 1.363 . S
N1866 C1868 1.356 . S
N1866 H1878 0.984 . S
N1866 H1879 0.985 . S
N1867 C1869 1.356 . S
N1867 H1872 0.984 . S
N1867 H1873 0.985 . S
C1868 C1862 1.379 . S
C1868 C1865 1.363 . S
C1868 N1866 1.356 . S
C1869 C1863 1.363 . S
C1869 C1864 1.379 . S
C1869 N1867 1.356 . S
N1870 C1862 1.356 . S
N1870 H1876 0.984 . S
N1870 H1877 0.984 . S
N1871 C1864 1.356 . S
N1871 H1874 0.984 . S
N1871 H1875 0.985 . S
H1872 N1867 0.984 . S
H1873 N1867 0.985 . S
H1874 N1871 0.984 . S
H1875 N1871 0.985 . S
H1876 N1870 0.984 . S
H1877 N1870 0.984 . S
H1878 N1866 0.984 . S
H1879 N1866 0.985 . S
C1880 C1881 1.363 . S
C1880 C1886 1.379 . S
C1880 N1888 1.356 . S
C1881 C1880 1.363 . S
C1881 C1887 1.363 . S
C1882 C1883 1.363 . S
C1882 C1887 1.379 . S
C1882 N1889 1.356 . S
C1883 C1882 1.363 . S
C1883 C1886 1.363 . S
N1884 C1886 1.356 1_655 S
N1884 H1896 0.984 . S
N1884 H1897 0.985 . S
N1885 C1887 1.356 . S
N1885 H1890 0.984 . S
N1885 H1891 0.985 . S
C1886 C1880 1.379 . S
C1886 C1883 1.363 . S
C1886 N1884 1.356 1_455 S
C1887 C1881 1.363 . S
C1887 C1882 1.379 . S
C1887 N1885 1.356 . S
N1888 C1880 1.356 . S
N1888 H1894 0.984 . S
N1888 H1895 0.984 . S
N1889 C1882 1.356 . S
N1889 H1892 0.984 . S
N1889 H1893 0.985 . S
H1890 N1885 0.984 . S
H1891 N1885 0.985 . S
H1892 N1889 0.984 . S
H1893 N1889 0.985 . S
H1894 N1888 0.984 . S
H1895 N1888 0.984 . S
H1896 N1884 0.984 . S
H1897 N1884 0.985 . S
C1898 C1899 1.363 . S
C1898 C1904 1.379 . S
C1898 N1906 1.356 . S
C1899 C1898 1.363 . S
C1899 C1905 1.363 . S
C1900 C1901 1.363 . S
C1900 C1905 1.379 . S
C1900 N1907 1.356 . S
C1901 C1900 1.363 . S
C1901 C1904 1.363 . S
N1902 C1904 1.356 . S
N1902 H1914 0.984 . S
N1902 H1915 0.985 . S
N1903 C1905 1.356 . S
N1903 H1908 0.984 . S
N1903 H1909 0.985 . S
C1904 C1898 1.379 . S
C1904 C1901 1.363 . S
C1904 N1902 1.356 . S
C1905 C1899 1.363 . S
C1905 C1900 1.379 . S
C1905 N1903 1.356 . S
N1906 C1898 1.356 . S
N1906 H1912 0.984 . S
N1906 H1913 0.984 . S
N1907 C1900 1.356 . S
N1907 H1910 0.984 . S
N1907 H1911 0.985 . S
H1908 N1903 0.984 . S
H1909 N1903 0.985 . S
H1910 N1907 0.984 . S
H1911 N1907 0.985 . S
H1912 N1906 0.984 . S
H1913 N1906 0.984 . S
H1914 N1902 0.984 . S
H1915 N1902 0.985 . S
C1916 C1917 1.363 . S
C1916 C1922 1.379 . S
C1916 N1924 1.356 . S
C1917 C1916 1.363 . S
C1917 C1923 1.363 . S
C1918 C1919 1.363 . S
C1918 C1923 1.379 . S
C1918 N1925 1.356 . S
C1919 C1918 1.363 . S
C1919 C1922 1.363 . S
N1920 C1922 1.356 . S
N1920 H1932 0.984 . S
N1920 H1933 0.985 . S
N1921 C1923 1.356 . S
N1921 H1926 0.984 . S
N1921 H1927 0.985 . S
C1922 C1916 1.379 . S
C1922 C1919 1.363 . S
C1922 N1920 1.356 . S
C1923 C1917 1.363 . S
C1923 C1918 1.379 . S
C1923 N1921 1.356 . S
N1924 C1916 1.356 . S
N1924 H1930 0.984 . S
N1924 H1931 0.984 . S
N1925 C1918 1.356 . S
N1925 H1928 0.984 . S
N1925 H1929 0.985 . S
H1926 N1921 0.984 . S
H1927 N1921 0.985 . S
H1928 N1925 0.984 . S
H1929 N1925 0.985 . S
H1930 N1924 0.984 . S
H1931 N1924 0.984 . S
H1932 N1920 0.984 . S
H1933 N1920 0.985 . S
C1934 C1935 1.363 . S
C1934 C1940 1.379 . S
C1934 N1942 1.356 . S
C1935 C1934 1.363 . S
C1935 C1941 1.363 . S
C1936 C1937 1.363 . S
C1936 C1941 1.379 . S
C1936 N1943 1.356 . S
C1937 C1936 1.363 . S
C1937 C1940 1.363 . S
N1938 C1940 1.356 . S
N1938 H1950 0.984 . S
N1938 H1951 0.985 . S
N1939 C1941 1.356 . S
N1939 H1944 0.984 . S
N1939 H1945 0.985 . S
C1940 C1934 1.379 . S
C1940 C1937 1.363 . S
C1940 N1938 1.356 . S
C1941 C1935 1.363 . S
C1941 C1936 1.379 . S
C1941 N1939 1.356 . S
N1942 C1934 1.356 . S
N1942 H1948 0.984 . S
N1942 H1949 0.984 . S
N1943 C1936 1.356 . S
N1943 H1946 0.984 . S
N1943 H1947 0.985 . S
H1944 N1939 0.984 . S
H1945 N1939 0.985 . S
H1946 N1943 0.984 . S
H1947 N1943 0.985 . S
H1948 N1942 0.984 . S
H1949 N1942 0.984 . S
H1950 N1938 0.984 . S
H1951 N1938 0.985 . S
C1952 C1953 1.363 . S
C1952 C1958 1.379 . S
C1952 N1960 1.356 1_545 S
C1953 C1952 1.363 . S
C1953 C1959 1.363 . S
C1954 C1955 1.363 . S
C1954 C1959 1.379 . S
C1954 N1961 1.356 . S
C1955 C1954 1.363 . S
C1955 C1958 1.363 . S
N1956 C1958 1.356 . S
N1956 H1968 0.984 . S
N1956 H1969 0.985 . S
N1957 C1959 1.356 . S
N1957 H1962 0.984 . S
N1957 H1963 0.985 . S
C1958 C1952 1.379 . S
C1958 C1955 1.363 . S
C1958 N1956 1.356 . S
C1959 C1953 1.363 . S
C1959 C1954 1.379 . S
C1959 N1957 1.356 . S
N1960 C1952 1.356 1_565 S
N1960 H1966 0.984 . S
N1960 H1967 0.984 . S
N1961 C1954 1.356 . S
N1961 H1964 0.984 . S
N1961 H1965 0.985 . S
H1962 N1957 0.984 . S
H1963 N1957 0.985 . S
H1964 N1961 0.984 . S
H1965 N1961 0.985 . S
H1966 N1960 0.984 . S
H1967 N1960 0.984 . S
H1968 N1956 0.984 . S
H1969 N1956 0.985 . S
C1970 C1971 1.363 . S
C1970 C1976 1.379 . S
C1970 N1978 1.356 . S
C1971 C1970 1.363 . S
C1971 C1977 1.363 . S
C1972 C1973 1.363 . S
C1972 C1977 1.379 . S
C1972 N1979 1.356 1_565 S
C1973 C1972 1.363 . S
C1973 C1976 1.363 . S
N1974 C1976 1.356 . S
N1974 H1986 0.984 . S
N1974 H1987 0.985 . S
N1975 C1977 1.356 . S
N1975 H1980 0.984 . S
N1975 H1981 0.985 . S
C1976 C1970 1.379 . S
C1976 C1973 1.363 . S
C1976 N1974 1.356 . S
C1977 C1971 1.363 . S
C1977 C1972 1.379 . S
C1977 N1975 1.356 . S
N1978 C1970 1.356 . S
N1978 H1984 0.984 . S
N1978 H1985 0.984 . S
N1979 C1972 1.356 1_545 S
N1979 H1982 0.984 . S
N1979 H1983 0.985 . S
H1980 N1975 0.984 . S
H1981 N1975 0.985 . S
H1982 N1979 0.984 . S
H1983 N1979 0.985 . S
H1984 N1978 0.984 . S
H1985 N1978 0.984 . S
H1986 N1974 0.984 . S
H1987 N1974 0.985 . S
C1988 C1989 1.363 . S
C1988 C1994 1.379 . S
C1988 N1996 1.356 . S
C1989 C1988 1.363 . S
C1989 C1995 1.363 . S
C1990 C1991 1.363 . S
C1990 C1995 1.379 . S
C1990 N1997 1.356 . S
C1991 C1990 1.363 . S
C1991 C1994 1.363 . S
N1992 C1994 1.356 . S
N1992 H2004 0.984 . S
N1992 H2005 0.985 1_565 S
N1993 C1995 1.356 . S
N1993 H1998 0.984 . S
N1993 H1999 0.985 . S
C1994 C1988 1.379 . S
C1994 C1991 1.363 . S
C1994 N1992 1.356 . S
C1995 C1989 1.363 . S
C1995 C1990 1.379 . S
C1995 N1993 1.356 . S
N1996 C1988 1.356 . S
N1996 H2002 0.984 . S
N1996 H2003 0.984 . S
N1997 C1990 1.356 . S
N1997 H2000 0.984 . S
N1997 H2001 0.985 . S
H1998 N1993 0.984 . S
H1999 N1993 0.985 . S
H2000 N1997 0.984 . S
H2001 N1997 0.985 . S
H2002 N1996 0.984 . S
H2003 N1996 0.984 . S
H2004 N1992 0.984 . S
H2005 N1992 0.985 1_545 S
C2006 C2007 1.363 . S
C2006 C2012 1.379 . S
C2006 N2014 1.356 . S
C2007 C2006 1.363 . S
C2007 C2013 1.363 . S
C2008 C2009 1.363 . S
C2008 C2013 1.379 . S
C2008 N2015 1.356 . S
C2009 C2008 1.363 . S
C2009 C2012 1.363 . S
N2010 C2012 1.356 . S
N2010 H2022 0.984 . S
N2010 H2023 0.985 1_545 S
N2011 C2013 1.356 . S
N2011 H2016 0.984 . S
N2011 H2017 0.985 . S
C2012 C2006 1.379 . S
C2012 C2009 1.363 . S
C2012 N2010 1.356 . S
C2013 C2007 1.363 . S
C2013 C2008 1.379 . S
C2013 N2011 1.356 . S
N2014 C2006 1.356 . S
N2014 H2020 0.984 . S
N2014 H2021 0.984 . S
N2015 C2008 1.356 . S
N2015 H2018 0.984 . S
N2015 H2019 0.985 . S
H2016 N2011 0.984 . S
H2017 N2011 0.985 . S
H2018 N2015 0.984 . S
H2019 N2015 0.985 . S
H2020 N2014 0.984 . S
H2021 N2014 0.984 . S
H2022 N2010 0.984 . S
H2023 N2010 0.985 1_565 S
C2024 C2025 1.363 . S
C2024 C2030 1.379 . S
C2024 N2032 1.356 1_565 S
C2025 C2024 1.363 . S
C2025 C2031 1.363 . S
C2026 C2027 1.363 . S
C2026 C2031 1.379 . S
C2026 N2033 1.356 . S
C2027 C2026 1.363 . S
C2027 C2030 1.363 . S
N2028 C2030 1.356 . S
N2028 H2040 0.984 . S
N2028 H2041 0.985 . S
N2029 C2031 1.356 . S
N2029 H2034 0.984 . S
N2029 H2035 0.985 . S
C2030 C2024 1.379 . S
C2030 C2027 1.363 . S
C2030 N2028 1.356 . S
C2031 C2025 1.363 . S
C2031 C2026 1.379 . S
C2031 N2029 1.356 . S
N2032 C2024 1.356 1_545 S
N2032 H2038 0.984 . S
N2032 H2039 0.984 . S
N2033 C2026 1.356 . S
N2033 H2036 0.984 . S
N2033 H2037 0.985 . S
H2034 N2029 0.984 . S
H2035 N2029 0.985 . S
H2036 N2033 0.984 . S
H2037 N2033 0.985 . S
H2038 N2032 0.984 . S
H2039 N2032 0.984 . S
H2040 N2028 0.984 . S
H2041 N2028 0.985 . S
C2042 C2043 1.363 . S
C2042 C2048 1.379 . S
C2042 N2050 1.356 1_545 S
C2043 C2042 1.363 . S
C2043 C2049 1.363 . S
C2044 C2045 1.363 . S
C2044 C2049 1.379 . S
C2044 N2051 1.356 . S
C2045 C2044 1.363 . S
C2045 C2048 1.363 . S
N2046 C2048 1.356 . S
N2046 H2058 0.984 . S
N2046 H2059 0.985 . S
N2047 C2049 1.356 . S
N2047 H2052 0.984 . S
N2047 H2053 0.985 . S
C2048 C2042 1.379 . S
C2048 C2045 1.363 . S
C2048 N2046 1.356 . S
C2049 C2043 1.363 . S
C2049 C2044 1.379 . S
C2049 N2047 1.356 . S
N2050 C2042 1.356 1_565 S
N2050 H2056 0.984 . S
N2050 H2057 0.984 . S
N2051 C2044 1.356 . S
N2051 H2054 0.984 . S
N2051 H2055 0.985 . S
H2052 N2047 0.984 . S
H2053 N2047 0.985 . S
H2054 N2051 0.984 . S
H2055 N2051 0.985 . S
H2056 N2050 0.984 . S
H2057 N2050 0.984 . S
H2058 N2046 0.984 . S
H2059 N2046 0.985 . S
C2060 C2061 1.363 . S
C2060 C2066 1.379 . S
C2060 N2068 1.356 1_545 S
C2061 C2060 1.363 . S
C2061 C2067 1.363 . S
C2062 C2063 1.363 . S
C2062 C2067 1.379 . S
C2062 N2069 1.356 . S
C2063 C2062 1.363 . S
C2063 C2066 1.363 . S
N2064 C2066 1.356 . S
N2064 H2076 0.984 . S
N2064 H2077 0.985 . S
N2065 C2067 1.356 . S
N2065 H2070 0.984 . S
N2065 H2071 0.985 . S
C2066 C2060 1.379 . S
C2066 C2063 1.363 . S
C2066 N2064 1.356 . S
C2067 C2061 1.363 . S
C2067 C2062 1.379 . S
C2067 N2065 1.356 . S
N2068 C2060 1.356 1_565 S
N2068 H2074 0.984 . S
N2068 H2075 0.984 . S
N2069 C2062 1.356 . S
N2069 H2072 0.984 . S
N2069 H2073 0.985 . S
H2070 N2065 0.984 . S
H2071 N2065 0.985 . S
H2072 N2069 0.984 . S
H2073 N2069 0.985 . S
H2074 N2068 0.984 . S
H2075 N2068 0.984 . S
H2076 N2064 0.984 . S
H2077 N2064 0.985 . S
C2078 C2079 1.363 . S
C2078 C2084 1.379 . S
C2078 N2086 1.356 . S
C2079 C2078 1.363 . S
C2079 C2085 1.363 . S
C2080 C2081 1.363 . S
C2080 C2085 1.379 . S
C2080 N2087 1.356 . S
C2081 C2080 1.363 . S
C2081 C2084 1.363 . S
N2082 C2084 1.356 . S
N2082 H2094 0.984 . S
N2082 H2095 0.985 1_565 S
N2083 C2085 1.356 . S
N2083 H2088 0.984 . S
N2083 H2089 0.985 . S
C2084 C2078 1.379 . S
C2084 C2081 1.363 . S
C2084 N2082 1.356 . S
C2085 C2079 1.363 . S
C2085 C2080 1.379 . S
C2085 N2083 1.356 . S
N2086 C2078 1.356 . S
N2086 H2092 0.984 . S
N2086 H2093 0.984 . S
N2087 C2080 1.356 . S
N2087 H2090 0.984 . S
N2087 H2091 0.985 . S
H2088 N2083 0.984 . S
H2089 N2083 0.985 . S
H2090 N2087 0.984 . S
H2091 N2087 0.985 . S
H2092 N2086 0.984 . S
H2093 N2086 0.984 . S
H2094 N2082 0.984 . S
H2095 N2082 0.985 1_545 S
C2096 C2097 1.363 . S
C2096 C2102 1.379 . S
C2096 N2104 1.356 . S
C2097 C2096 1.363 . S
C2097 C2103 1.363 . S
C2098 C2099 1.363 . S
C2098 C2103 1.379 . S
C2098 N2105 1.356 . S
C2099 C2098 1.363 . S
C2099 C2102 1.363 . S
N2100 C2102 1.356 . S
N2100 H2112 0.984 . S
N2100 H2113 0.985 . S
N2101 C2103 1.356 . S
N2101 H2106 0.984 . S
N2101 H2107 0.985 . S
C2102 C2096 1.379 . S
C2102 C2099 1.363 . S
C2102 N2100 1.356 . S
C2103 C2097 1.363 . S
C2103 C2098 1.379 . S
C2103 N2101 1.356 . S
N2104 C2096 1.356 . S
N2104 H2110 0.984 . S
N2104 H2111 0.984 . S
N2105 C2098 1.356 . S
N2105 H2108 0.984 . S
N2105 H2109 0.985 . S
H2106 N2101 0.984 . S
H2107 N2101 0.985 . S
H2108 N2105 0.984 . S
H2109 N2105 0.985 . S
H2110 N2104 0.984 . S
H2111 N2104 0.984 . S
H2112 N2100 0.984 . S
H2113 N2100 0.985 . S
C2114 C2115 1.363 . S
C2114 C2120 1.379 . S
C2114 N2122 1.356 . S
C2115 C2114 1.363 . S
C2115 C2121 1.363 . S
C2116 C2117 1.363 . S
C2116 C2121 1.379 . S
C2116 N2123 1.356 . S
C2117 C2116 1.363 . S
C2117 C2120 1.363 . S
N2118 C2120 1.356 . S
N2118 H2130 0.984 . S
N2118 H2131 0.985 . S
N2119 C2121 1.356 . S
N2119 H2124 0.984 . S
N2119 H2125 0.985 . S
C2120 C2114 1.379 . S
C2120 C2117 1.363 . S
C2120 N2118 1.356 . S
C2121 C2115 1.363 . S
C2121 C2116 1.379 . S
C2121 N2119 1.356 . S
N2122 C2114 1.356 . S
N2122 H2128 0.984 . S
N2122 H2129 0.984 . S
N2123 C2116 1.356 . S
N2123 H2126 0.984 . S
N2123 H2127 0.985 . S
H2124 N2119 0.984 . S
H2125 N2119 0.985 . S
H2126 N2123 0.984 . S
H2127 N2123 0.985 . S
H2128 N2122 0.984 . S
H2129 N2122 0.984 . S
H2130 N2118 0.984 . S
H2131 N2118 0.985 . S
C2132 C2133 1.363 . S
C2132 C2138 1.379 . S
C2132 N2140 1.356 . S
C2133 C2132 1.363 . S
C2133 C2139 1.363 . S
C2134 C2135 1.363 . S
C2134 C2139 1.379 . S
C2134 N2141 1.356 . S
C2135 C2134 1.363 . S
C2135 C2138 1.363 . S
N2136 C2138 1.356 . S
N2136 H2148 0.984 . S
N2136 H2149 0.985 . S
N2137 C2139 1.356 . S
N2137 H2142 0.984 . S
N2137 H2143 0.985 . S
C2138 C2132 1.379 . S
C2138 C2135 1.363 . S
C2138 N2136 1.356 . S
C2139 C2133 1.363 . S
C2139 C2134 1.379 . S
C2139 N2137 1.356 . S
N2140 C2132 1.356 . S
N2140 H2146 0.984 . S
N2140 H2147 0.984 . S
N2141 C2134 1.356 . S
N2141 H2144 0.984 . S
N2141 H2145 0.985 . S
H2142 N2137 0.984 . S
H2143 N2137 0.985 . S
H2144 N2141 0.984 . S
H2145 N2141 0.985 . S
H2146 N2140 0.984 . S
H2147 N2140 0.984 . S
H2148 N2136 0.984 . S
H2149 N2136 0.985 . S
C2150 C2151 1.363 . S
C2150 C2156 1.379 . S
C2150 N2158 1.356 . S
C2151 C2150 1.363 . S
C2151 C2157 1.363 . S
C2152 C2153 1.363 . S
C2152 C2157 1.379 . S
C2152 N2159 1.356 . S
C2153 C2152 1.363 . S
C2153 C2156 1.363 . S
N2154 C2156 1.356 . S
N2154 H2166 0.984 . S
N2154 H2167 0.985 . S
N2155 C2157 1.356 . S
N2155 H2160 0.984 . S
N2155 H2161 0.985 . S
C2156 C2150 1.379 . S
C2156 C2153 1.363 . S
C2156 N2154 1.356 . S
C2157 C2151 1.363 . S
C2157 C2152 1.379 . S
C2157 N2155 1.356 . S
N2158 C2150 1.356 . S
N2158 H2164 0.984 . S
N2158 H2165 0.984 . S
N2159 C2152 1.356 . S
N2159 H2162 0.984 . S
N2159 H2163 0.985 . S
H2160 N2155 0.984 . S
H2161 N2155 0.985 . S
H2162 N2159 0.984 . S
H2163 N2159 0.985 . S
H2164 N2158 0.984 . S
H2165 N2158 0.984 . S
H2166 N2154 0.984 . S
H2167 N2154 0.985 . S
C2168 C2169 1.363 . S
C2168 C2174 1.379 . S
C2168 N2176 1.356 . S
C2169 C2168 1.363 . S
C2169 C2175 1.363 . S
C2170 C2171 1.363 . S
C2170 C2175 1.379 . S
C2170 N2177 1.356 . S
C2171 C2170 1.363 . S
C2171 C2174 1.363 . S
N2172 C2174 1.356 . S
N2172 H2184 0.984 . S
N2172 H2185 0.985 . S
N2173 C2175 1.356 . S
N2173 H2178 0.984 . S
N2173 H2179 0.985 . S
C2174 C2168 1.379 . S
C2174 C2171 1.363 . S
C2174 N2172 1.356 . S
C2175 C2169 1.363 . S
C2175 C2170 1.379 . S
C2175 N2173 1.356 . S
N2176 C2168 1.356 . S
N2176 H2182 0.984 . S
N2176 H2183 0.984 . S
N2177 C2170 1.356 . S
N2177 H2180 0.984 . S
N2177 H2181 0.985 . S
H2178 N2173 0.984 . S
H2179 N2173 0.985 . S
H2180 N2177 0.984 . S
H2181 N2177 0.985 . S
H2182 N2176 0.984 . S
H2183 N2176 0.984 . S
H2184 N2172 0.984 . S
H2185 N2172 0.985 . S
C2186 C2187 1.363 . S
C2186 C2192 1.379 . S
C2186 N2194 1.356 . S
C2187 C2186 1.363 . S
C2187 C2193 1.363 . S
C2188 C2189 1.363 . S
C2188 C2193 1.379 . S
C2188 N2195 1.356 . S
C2189 C2188 1.363 . S
C2189 C2192 1.363 . S
N2190 C2192 1.356 . S
N2190 H2202 0.984 . S
N2190 H2203 0.985 . S
N2191 C2193 1.356 . S
N2191 H2196 0.984 . S
N2191 H2197 0.985 . S
C2192 C2186 1.379 . S
C2192 C2189 1.363 . S
C2192 N2190 1.356 . S
C2193 C2187 1.363 . S
C2193 C2188 1.379 . S
C2193 N2191 1.356 . S
N2194 C2186 1.356 . S
N2194 H2200 0.984 . S
N2194 H2201 0.984 . S
N2195 C2188 1.356 . S
N2195 H2198 0.984 . S
N2195 H2199 0.985 . S
H2196 N2191 0.984 . S
H2197 N2191 0.985 . S
H2198 N2195 0.984 . S
H2199 N2195 0.985 . S
H2200 N2194 0.984 . S
H2201 N2194 0.984 . S
H2202 N2190 0.984 . S
H2203 N2190 0.985 . S
C2204 C2205 1.363 . S
C2204 C2210 1.379 . S
C2204 N2212 1.356 . S
C2205 C2204 1.363 . S
C2205 C2211 1.363 . S
C2206 C2207 1.363 . S
C2206 C2211 1.379 . S
C2206 N2213 1.356 . S
C2207 C2206 1.363 . S
C2207 C2210 1.363 . S
N2208 C2210 1.356 . S
N2208 H2220 0.984 . S
N2208 H2221 0.985 . S
N2209 C2211 1.356 . S
N2209 H2214 0.984 . S
N2209 H2215 0.985 . S
C2210 C2204 1.379 . S
C2210 C2207 1.363 . S
C2210 N2208 1.356 . S
C2211 C2205 1.363 . S
C2211 C2206 1.379 . S
C2211 N2209 1.356 . S
N2212 C2204 1.356 . S
N2212 H2218 0.984 . S
N2212 H2219 0.984 . S
N2213 C2206 1.356 . S
N2213 H2216 0.984 . S
N2213 H2217 0.985 . S
H2214 N2209 0.984 . S
H2215 N2209 0.985 . S
H2216 N2213 0.984 . S
H2217 N2213 0.985 . S
H2218 N2212 0.984 . S
H2219 N2212 0.984 . S
H2220 N2208 0.984 . S
H2221 N2208 0.985 . S
C2222 C2223 1.363 . S
C2222 C2228 1.379 . S
C2222 N2230 1.356 . S
C2223 C2222 1.363 . S
C2223 C2229 1.363 . S
C2224 C2225 1.363 . S
C2224 C2229 1.379 . S
C2224 N2231 1.356 . S
C2225 C2224 1.363 . S
C2225 C2228 1.363 . S
N2226 C2228 1.356 . S
N2226 H2238 0.984 . S
N2226 H2239 0.985 . S
N2227 C2229 1.356 . S
N2227 H2232 0.984 . S
N2227 H2233 0.985 . S
C2228 C2222 1.379 . S
C2228 C2225 1.363 . S
C2228 N2226 1.356 . S
C2229 C2223 1.363 . S
C2229 C2224 1.379 . S
C2229 N2227 1.356 . S
N2230 C2222 1.356 . S
N2230 H2236 0.984 . S
N2230 H2237 0.984 . S
N2231 C2224 1.356 . S
N2231 H2234 0.984 . S
N2231 H2235 0.985 . S
H2232 N2227 0.984 . S
H2233 N2227 0.985 . S
H2234 N2231 0.984 . S
H2235 N2231 0.985 . S
H2236 N2230 0.984 . S
H2237 N2230 0.984 . S
H2238 N2226 0.984 . S
H2239 N2226 0.985 . S
C2240 C2241 1.363 . S
C2240 C2246 1.379 . S
C2240 N2248 1.356 . S
C2241 C2240 1.363 . S
C2241 C2247 1.363 . S
C2242 C2243 1.363 . S
C2242 C2247 1.379 . S
C2242 N2249 1.356 . S
C2243 C2242 1.363 . S
C2243 C2246 1.363 . S
N2244 C2246 1.356 . S
N2244 H2256 0.984 . S
N2244 H2257 0.985 . S
N2245 C2247 1.356 . S
N2245 H2250 0.984 . S
N2245 H2251 0.985 . S
C2246 C2240 1.379 . S
C2246 C2243 1.363 . S
C2246 N2244 1.356 . S
C2247 C2241 1.363 . S
C2247 C2242 1.379 . S
C2247 N2245 1.356 . S
N2248 C2240 1.356 . S
N2248 H2254 0.984 . S
N2248 H2255 0.984 . S
N2249 C2242 1.356 . S
N2249 H2252 0.984 . S
N2249 H2253 0.985 . S
H2250 N2245 0.984 . S
H2251 N2245 0.985 . S
H2252 N2249 0.984 . S
H2253 N2249 0.985 . S
H2254 N2248 0.984 . S
H2255 N2248 0.984 . S
H2256 N2244 0.984 . S
H2257 N2244 0.985 . S
C2258 C2259 1.363 1_545 S
C2258 C2264 1.381 1_655 S
C2258 N2266 1.356 . S
C2259 C2258 1.363 1_565 S
C2259 C2265 1.360 . S
C2260 C2261 1.363 1_565 S
C2260 C2265 1.381 1_455 S
C2260 N2267 1.356 . S
C2261 C2260 1.363 1_545 S
C2261 C2264 1.360 . S
N2262 C2264 1.355 . S
N2262 H2274 0.984 1_455 S
N2262 H2275 0.985 . S
N2263 C2265 1.355 . S
N2263 H2268 0.984 . S
N2263 H2269 0.985 1_655 S
C2264 C2258 1.381 1_455 S
C2264 C2261 1.360 . S
C2264 N2262 1.355 . S
C2265 C2259 1.360 . S
C2265 C2260 1.381 1_655 S
C2265 N2263 1.355 . S
N2266 C2258 1.356 . S
N2266 H2272 0.984 . S
N2266 H2273 0.984 1_545 S
N2267 C2260 1.356 . S
N2267 H2270 0.984 1_565 S
N2267 H2271 0.985 . S
H2268 N2263 0.984 . S
H2269 N2263 0.985 1_455 S
H2270 N2267 0.984 1_545 S
H2271 N2267 0.985 . S
H2272 N2266 0.984 . S
H2273 N2266 0.984 1_565 S
H2274 N2262 0.984 1_655 S
H2275 N2262 0.985 . S
C2276 C2277 1.363 . S
C2276 C2282 1.379 . S
C2276 N2284 1.356 . S
C2277 C2276 1.363 . S
C2277 C2283 1.363 . S
C2278 C2279 1.363 . S
C2278 C2283 1.379 . S
C2278 N2285 1.356 . S
C2279 C2278 1.363 . S
C2279 C2282 1.363 . S
N2280 C2282 1.356 . S
N2280 H2292 0.984 . S
N2280 H2293 0.985 . S
N2281 C2283 1.356 . S
N2281 H2286 0.984 . S
N2281 H2287 0.985 . S
C2282 C2276 1.379 . S
C2282 C2279 1.363 . S
C2282 N2280 1.356 . S
C2283 C2277 1.363 . S
C2283 C2278 1.379 . S
C2283 N2281 1.356 . S
N2284 C2276 1.356 . S
N2284 H2290 0.984 . S
N2284 H2291 0.984 . S
N2285 C2278 1.356 . S
N2285 H2288 0.984 . S
N2285 H2289 0.985 . S
H2286 N2281 0.984 . S
H2287 N2281 0.985 . S
H2288 N2285 0.984 . S
H2289 N2285 0.985 . S
H2290 N2284 0.984 . S
H2291 N2284 0.984 . S
H2292 N2280 0.984 . S
H2293 N2280 0.985 . S
C2294 C2295 1.363 . S
C2294 C2300 1.370 1_565 S
C2294 N2302 1.356 . S
C2295 C2294 1.363 . S
C2295 C2301 1.372 1_556 S
C2296 C2297 1.363 . S
C2296 C2301 1.370 1_545 S
C2296 N2303 1.356 . S
C2297 C2296 1.363 . S
C2297 C2300 1.372 1_554 S
N2298 C2300 1.359 . S
N2298 H2310 0.984 1_545 S
N2298 H2311 0.985 . S
N2299 C2301 1.359 . S
N2299 H2304 0.984 . S
N2299 H2305 0.985 1_565 S
C2300 C2294 1.370 1_545 S
C2300 C2297 1.372 1_556 S
C2300 N2298 1.359 . S
C2301 C2295 1.372 1_554 S
C2301 C2296 1.370 1_565 S
C2301 N2299 1.359 . S
N2302 C2294 1.356 . S
N2302 H2308 0.984 . S
N2302 H2309 0.984 . S
N2303 C2296 1.356 . S
N2303 H2306 0.984 . S
N2303 H2307 0.985 . S
H2304 N2299 0.984 . S
H2305 N2299 0.985 1_545 S
H2306 N2303 0.984 . S
H2307 N2303 0.985 . S
H2308 N2302 0.984 . S
H2309 N2302 0.984 . S
H2310 N2298 0.984 1_565 S
H2311 N2298 0.985 . S
C2312 C2313 1.363 . S
C2312 C2318 1.379 . S
C2312 N2320 1.356 . S
C2313 C2312 1.363 . S
C2313 C2319 1.363 . S
C2314 C2315 1.363 . S
C2314 C2319 1.379 . S
C2314 N2321 1.356 . S
C2315 C2314 1.363 . S
C2315 C2318 1.363 . S
N2316 C2318 1.356 . S
N2316 H2328 0.984 . S
N2316 H2329 0.985 . S
N2317 C2319 1.356 . S
N2317 H2322 0.984 . S
N2317 H2323 0.985 . S
C2318 C2312 1.379 . S
C2318 C2315 1.363 . S
C2318 N2316 1.356 . S
C2319 C2313 1.363 . S
C2319 C2314 1.379 . S
C2319 N2317 1.356 . S
N2320 C2312 1.356 . S
N2320 H2326 0.984 . S
N2320 H2327 0.984 . S
N2321 C2314 1.356 . S
N2321 H2324 0.984 . S
N2321 H2325 0.985 . S
H2322 N2317 0.984 . S
H2323 N2317 0.985 . S
H2324 N2321 0.984 . S
H2325 N2321 0.985 . S
H2326 N2320 0.984 . S
H2327 N2320 0.984 . S
H2328 N2316 0.984 . S
H2329 N2316 0.985 . S
C2330 C2331 1.363 . S
C2330 C2336 1.379 1_545 S
C2330 N2338 1.356 . S
C2331 C2330 1.363 . S
C2331 C2337 1.363 . S
C2332 C2333 1.363 . S
C2332 C2337 1.379 1_565 S
C2332 N2339 1.356 . S
C2333 C2332 1.363 . S
C2333 C2336 1.363 . S
N2334 C2336 1.356 . S
N2334 H2346 0.984 . S
N2334 H2347 0.985 . S
N2335 C2337 1.356 . S
N2335 H2340 0.984 . S
N2335 H2341 0.985 . S
C2336 C2330 1.379 1_565 S
C2336 C2333 1.363 . S
C2336 N2334 1.356 . S
C2337 C2331 1.363 . S
C2337 C2332 1.379 1_545 S
C2337 N2335 1.356 . S
N2338 C2330 1.356 . S
N2338 H2344 0.984 . S
N2338 H2345 0.984 . S
N2339 C2332 1.356 . S
N2339 H2342 0.984 . S
N2339 H2343 0.985 . S
H2340 N2335 0.984 . S
H2341 N2335 0.985 . S
H2342 N2339 0.984 . S
H2343 N2339 0.985 . S
H2344 N2338 0.984 . S
H2345 N2338 0.984 . S
H2346 N2334 0.984 . S
H2347 N2334 0.985 . S
C2348 C2349 1.363 . S
C2348 C2354 1.379 . S
C2348 N2356 1.356 . S
C2349 C2348 1.363 . S
C2349 C2355 1.363 . S
C2350 C2351 1.363 . S
C2350 C2355 1.379 . S
C2350 N2357 1.356 . S
C2351 C2350 1.363 . S
C2351 C2354 1.363 . S
N2352 C2354 1.356 . S
N2352 H2364 0.984 . S
N2352 H2365 0.985 . S
N2353 C2355 1.356 . S
N2353 H2358 0.984 . S
N2353 H2359 0.985 . S
C2354 C2348 1.379 . S
C2354 C2351 1.363 . S
C2354 N2352 1.356 . S
C2355 C2349 1.363 . S
C2355 C2350 1.379 . S
C2355 N2353 1.356 . S
N2356 C2348 1.356 . S
N2356 H2362 0.984 . S
N2356 H2363 0.984 . S
N2357 C2350 1.356 . S
N2357 H2360 0.984 . S
N2357 H2361 0.985 . S
H2358 N2353 0.984 . S
H2359 N2353 0.985 . S
H2360 N2357 0.984 . S
H2361 N2357 0.985 . S
H2362 N2356 0.984 . S
H2363 N2356 0.984 . S
H2364 N2352 0.984 . S
H2365 N2352 0.985 . S
C2366 C2367 1.363 1_556 S
C2366 C2372 1.379 1_465 S
C2366 N2374 1.356 . S
C2367 C2366 1.363 1_554 S
C2367 C2373 1.363 . S
C2368 C2369 1.363 1_554 S
C2368 C2373 1.379 1_645 S
C2368 N2375 1.356 . S
C2369 C2368 1.363 1_556 S
C2369 C2372 1.363 . S
N2370 C2372 1.356 . S
N2370 H2382 0.984 . S
N2370 H2383 0.985 . S
N2371 C2373 1.356 . S
N2371 H2376 0.984 . S
N2371 H2377 0.985 . S
C2372 C2366 1.379 1_645 S
C2372 C2369 1.363 . S
C2372 N2370 1.356 . S
C2373 C2367 1.363 . S
C2373 C2368 1.379 1_465 S
C2373 N2371 1.356 . S
N2374 C2366 1.356 . S
N2374 H2380 0.984 . S
N2374 H2381 0.984 . S
N2375 C2368 1.356 . S
N2375 H2378 0.984 . S
N2375 H2379 0.985 . S
H2376 N2371 0.984 . S
H2377 N2371 0.985 . S
H2378 N2375 0.984 . S
H2379 N2375 0.985 . S
H2380 N2374 0.984 . S
H2381 N2374 0.984 . S
H2382 N2370 0.984 . S
H2383 N2370 0.985 . S
C2384 C2385 1.363 . S
C2384 C2390 1.379 . S
C2384 N2392 1.356 . S
C2385 C2384 1.363 . S
C2385 C2391 1.363 . S
C2386 C2387 1.363 . S
C2386 C2391 1.379 . S
C2386 N2393 1.356 . S
C2387 C2386 1.363 . S
C2387 C2390 1.363 . S
N2388 C2390 1.356 . S
N2388 H2400 0.984 . S
N2388 H2401 0.985 . S
N2389 C2391 1.356 . S
N2389 H2394 0.984 . S
N2389 H2395 0.985 . S
C2390 C2384 1.379 . S
C2390 C2387 1.363 . S
C2390 N2388 1.356 . S
C2391 C2385 1.363 . S
C2391 C2386 1.379 . S
C2391 N2389 1.356 . S
N2392 C2384 1.356 . S
N2392 H2398 0.984 . S
N2392 H2399 0.984 . S
N2393 C2386 1.356 . S
N2393 H2396 0.984 . S
N2393 H2397 0.985 . S
H2394 N2389 0.984 . S
H2395 N2389 0.985 . S
H2396 N2393 0.984 . S
H2397 N2393 0.985 . S
H2398 N2392 0.984 . S
H2399 N2392 0.984 . S
H2400 N2388 0.984 . S
H2401 N2388 0.985 . S
C2402 C2403 1.363 . S
C2402 C2408 1.379 . S
C2402 N2410 1.356 . S
C2403 C2402 1.363 . S
C2403 C2409 1.363 . S
C2404 C2405 1.363 . S
C2404 C2409 1.379 . S
C2404 N2411 1.356 . S
C2405 C2404 1.363 . S
C2405 C2408 1.363 . S
N2406 C2408 1.356 . S
N2406 H2418 0.984 . S
N2406 H2419 0.985 . S
N2407 C2409 1.356 . S
N2407 H2412 0.984 . S
N2407 H2413 0.985 . S
C2408 C2402 1.379 . S
C2408 C2405 1.363 . S
C2408 N2406 1.356 . S
C2409 C2403 1.363 . S
C2409 C2404 1.379 . S
C2409 N2407 1.356 . S
N2410 C2402 1.356 . S
N2410 H2416 0.984 . S
N2410 H2417 0.984 . S
N2411 C2404 1.356 . S
N2411 H2414 0.984 . S
N2411 H2415 0.985 . S
H2412 N2407 0.984 . S
H2413 N2407 0.985 . S
H2414 N2411 0.984 . S
H2415 N2411 0.985 . S
H2416 N2410 0.984 . S
H2417 N2410 0.984 . S
H2418 N2406 0.984 . S
H2419 N2406 0.985 . S
C2420 C2421 1.363 . S
C2420 C2426 1.379 . S
C2420 N2428 1.356 . S
C2421 C2420 1.363 . S
C2421 C2427 1.363 . S
C2422 C2423 1.363 . S
C2422 C2427 1.379 . S
C2422 N2429 1.356 . S
C2423 C2422 1.363 . S
C2423 C2426 1.363 . S
N2424 C2426 1.356 . S
N2424 H2436 0.984 . S
N2424 H2437 0.985 . S
N2425 C2427 1.356 . S
N2425 H2430 0.984 . S
N2425 H2431 0.985 . S
C2426 C2420 1.379 . S
C2426 C2423 1.363 . S
C2426 N2424 1.356 . S
C2427 C2421 1.363 . S
C2427 C2422 1.379 . S
C2427 N2425 1.356 . S
N2428 C2420 1.356 . S
N2428 H2434 0.984 . S
N2428 H2435 0.984 . S
N2429 C2422 1.356 . S
N2429 H2432 0.984 . S
N2429 H2433 0.985 . S
H2430 N2425 0.984 . S
H2431 N2425 0.985 . S
H2432 N2429 0.984 . S
H2433 N2429 0.985 . S
H2434 N2428 0.984 . S
H2435 N2428 0.984 . S
H2436 N2424 0.984 . S
H2437 N2424 0.985 . S
C2438 C2439 1.363 . S
C2438 C2444 1.379 . S
C2438 N2446 1.356 . S
C2439 C2438 1.363 . S
C2439 C2445 1.363 . S
C2440 C2441 1.363 . S
C2440 C2445 1.379 . S
C2440 N2447 1.356 . S
C2441 C2440 1.363 . S
C2441 C2444 1.363 . S
N2442 C2444 1.356 . S
N2442 H2454 0.984 . S
N2442 H2455 0.985 . S
N2443 C2445 1.356 . S
N2443 H2448 0.984 . S
N2443 H2449 0.985 . S
C2444 C2438 1.379 . S
C2444 C2441 1.363 . S
C2444 N2442 1.356 . S
C2445 C2439 1.363 . S
C2445 C2440 1.379 . S
C2445 N2443 1.356 . S
N2446 C2438 1.356 . S
N2446 H2452 0.984 . S
N2446 H2453 0.984 . S
N2447 C2440 1.356 . S
N2447 H2450 0.984 . S
N2447 H2451 0.985 . S
H2448 N2443 0.984 . S
H2449 N2443 0.985 . S
H2450 N2447 0.984 . S
H2451 N2447 0.985 . S
H2452 N2446 0.984 . S
H2453 N2446 0.984 . S
H2454 N2442 0.984 . S
H2455 N2442 0.985 . S
C2456 C2457 1.363 . S
C2456 C2462 1.379 . S
C2456 N2464 1.356 . S
C2457 C2456 1.363 . S
C2457 C2463 1.363 1_554 S
C2458 C2459 1.363 . S
C2458 C2463 1.379 . S
C2458 N2465 1.356 . S
C2459 C2458 1.363 . S
C2459 C2462 1.363 1_556 S
N2460 C2462 1.356 . S
N2460 H2472 0.984 . S
N2460 H2473 0.985 . S
N2461 C2463 1.356 . S
N2461 H2466 0.984 . S
N2461 H2467 0.985 . S
C2462 C2456 1.379 . S
C2462 C2459 1.363 1_554 S
C2462 N2460 1.356 . S
C2463 C2457 1.363 1_556 S
C2463 C2458 1.379 . S
C2463 N2461 1.356 . S
N2464 C2456 1.356 . S
N2464 H2470 0.984 . S
N2464 H2471 0.984 . S
N2465 C2458 1.356 . S
N2465 H2468 0.984 . S
N2465 H2469 0.985 . S
H2466 N2461 0.984 . S
H2467 N2461 0.985 . S
H2468 N2465 0.984 . S
H2469 N2465 0.985 . S
H2470 N2464 0.984 . S
H2471 N2464 0.984 . S
H2472 N2460 0.984 . S
H2473 N2460 0.985 . S
C2474 C2475 1.363 . S
C2474 C2480 1.379 1_455 S
C2474 N2482 1.356 . S
C2475 C2474 1.363 . S
C2475 C2481 1.363 . S
C2476 C2477 1.363 . S
C2476 C2481 1.379 1_655 S
C2476 N2483 1.356 . S
C2477 C2476 1.363 . S
C2477 C2480 1.363 . S
N2478 C2480 1.356 . S
N2478 H2490 0.984 . S
N2478 H2491 0.985 . S
N2479 C2481 1.356 . S
N2479 H2484 0.984 . S
N2479 H2485 0.985 . S
C2480 C2474 1.379 1_655 S
C2480 C2477 1.363 . S
C2480 N2478 1.356 . S
C2481 C2475 1.363 . S
C2481 C2476 1.379 1_455 S
C2481 N2479 1.356 . S
N2482 C2474 1.356 . S
N2482 H2488 0.984 . S
N2482 H2489 0.984 . S
N2483 C2476 1.356 . S
N2483 H2486 0.984 . S
N2483 H2487 0.985 . S
H2484 N2479 0.984 . S
H2485 N2479 0.985 . S
H2486 N2483 0.984 . S
H2487 N2483 0.985 . S
H2488 N2482 0.984 . S
H2489 N2482 0.984 . S
H2490 N2478 0.984 . S
H2491 N2478 0.985 . S
C2492 C2493 1.363 1_654 S
C2492 C2498 1.379 . S
C2492 N2500 1.356 1_655 S
C2493 C2492 1.363 1_456 S
C2493 C2499 1.363 . S
C2494 C2495 1.363 1_456 S
C2494 C2499 1.379 . S
C2494 N2501 1.356 1_455 S
C2495 C2494 1.363 1_654 S
C2495 C2498 1.363 . S
N2496 C2498 1.356 . S
N2496 H2508 0.984 . S
N2496 H2509 0.985 . S
N2497 C2499 1.356 . S
N2497 H2502 0.984 . S
N2497 H2503 0.985 . S
C2498 C2492 1.379 . S
C2498 C2495 1.363 . S
C2498 N2496 1.356 . S
C2499 C2493 1.363 . S
C2499 C2494 1.379 . S
C2499 N2497 1.356 . S
N2500 C2492 1.356 1_455 S
N2500 H2506 0.984 1_455 S
N2500 H2507 0.984 . S
N2501 C2494 1.356 1_655 S
N2501 H2504 0.984 . S
N2501 H2505 0.985 1_655 S
H2502 N2497 0.984 . S
H2503 N2497 0.985 . S
H2504 N2501 0.984 . S
H2505 N2501 0.985 1_455 S
H2506 N2500 0.984 1_655 S
H2507 N2500 0.984 . S
H2508 N2496 0.984 . S
H2509 N2496 0.985 . S
C2510 C2511 1.363 . S
C2510 C2516 1.379 . S
C2510 N2518 1.356 . S
C2511 C2510 1.363 . S
C2511 C2517 1.363 . S
C2512 C2513 1.363 . S
C2512 C2517 1.379 . S
C2512 N2519 1.356 . S
C2513 C2512 1.363 . S
C2513 C2516 1.363 . S
N2514 C2516 1.356 . S
N2514 H2526 0.984 . S
N2514 H2527 0.985 . S
N2515 C2517 1.356 . S
N2515 H2520 0.984 . S
N2515 H2521 0.985 . S
C2516 C2510 1.379 . S
C2516 C2513 1.363 . S
C2516 N2514 1.356 . S
C2517 C2511 1.363 . S
C2517 C2512 1.379 . S
C2517 N2515 1.356 . S
N2518 C2510 1.356 . S
N2518 H2524 0.984 . S
N2518 H2525 0.984 . S
N2519 C2512 1.356 . S
N2519 H2522 0.984 . S
N2519 H2523 0.985 . S
H2520 N2515 0.984 . S
H2521 N2515 0.985 . S
H2522 N2519 0.984 . S
H2523 N2519 0.985 . S
H2524 N2518 0.984 . S
H2525 N2518 0.984 . S
H2526 N2514 0.984 . S
H2527 N2514 0.985 . S
C1089 C617 0.922 . S
C1091 C5 0.922 . S
C1107 C39 0.922 . S
C1109 C651 0.922 . S
C1125 C73 0.922 . S
C1127 C549 0.922 . S
C1143 C583 0.922 . S
C1145 C107 0.922 . S
C1161 C141 0.922 . S
C1163 C753 0.922 . S
C1179 C787 0.922 . S
C1181 C175 0.922 . S
C1197 C209 0.922 . S
C1199 C685 0.922 . S
C1215 C243 0.922 . S
C1217 C719 0.922 . S
C1233 C277 0.922 . S
C1235 C889 0.922 . S
C1251 C923 0.922 . S
C1253 C311 0.922 . S
C1269 C345 0.922 . S
C1271 C821 0.922 . S
C1287 C379 0.922 . S
C1289 C855 0.922 . S
C1305 C413 0.922 . S
C1307 C1025 0.922 . S
C1323 C1059 0.922 . S
C1325 C447 0.922 . S
C1341 C957 0.922 . S
C1343 C481 0.922 . S
C1359 C991 0.922 . S
C1361 C515 0.922 . S
C1377 C407 1.484 . S
C1379 C2 1.428 . S
C1395 C849 1.484 . S
C1397 C36 1.428 . S
C1413 C70 1.428 . S
C1415 C339 1.484 1_455 S
C1431 C917 1.484 . S
C1433 C104 1.428 . S
C1449 C475 1.484 . S
C1451 C138 1.428 . S
C1467 C172 1.428 . S
C1469 C1053 1.484 . S
C1485 C543 1.484 1_455 S
C1487 C206 1.428 . S
C1503 C985 1.484 . S
C1505 C240 1.428 . S
C1521 C135 1.484 . S
C1523 C274 1.428 . S
C1539 C308 1.428 . S
C1541 C577 1.484 . S
C1557 C342 1.428 . S
C1559 C67 1.484 1_655 S
C1575 C645 1.484 . S
C1577 C376 1.428 . S
C1593 C410 1.428 . S
C1595 C203 1.484 . S
C1611 C781 1.484 . S
C1613 C444 1.428 . S
C1629 C478 1.428 . S
C1631 C271 1.484 1_655 S
C1647 C512 1.428 . S
C1649 C713 1.484 . S
C1665 C951 1.484 1_655 S
C1667 C546 1.428 . S
C1683 C580 1.428 . S
C1685 C305 1.484 . S
C1701 C614 1.428 . S
C1703 C883 1.484 . S
C1719 C373 1.484 . S
C1721 C648 1.428 . S
C1737 C682 1.428 . S
C1739 C1019 1.484 1_655 S
C1755 C716 1.428 . S
C1757 C509 1.484 . S
C1773 C1087 1.484 . S
C1775 C750 1.428 . S
C1791 C441 1.484 . S
C1793 C784 1.428 . S
C1809 C679 1.484 1_455 S
C1811 C818 1.428 . S
C1827 C852 1.428 . S
C1829 C33 1.484 . S
C1845 C886 1.428 . S
C1847 C611 1.484 . S
C1863 C101 1.484 . S
C1865 C920 1.428 . S
C1881 C954 1.428 . S
C1883 C747 1.484 1_455 S
C1899 C988 1.428 . S
C1901 C237 1.484 . S
C1917 C815 1.484 . S
C1919 C1022 1.428 . S
C1935 C169 1.484 . S
C1937 C1056 1.428 . S
C1953 C247 1.591 . S
C1955 C9 1.591 . S
C1971 C145 1.591 . S
C1973 C43 1.591 . S
C1989 C77 1.591 . S
C1991 C179 1.591 . S
C2007 C213 1.591 . S
C2009 C111 1.591 . S
C2025 C519 1.591 . S
C2027 C281 1.591 . S
C2043 C315 1.591 . S
C2045 C417 1.591 . S
C2061 C451 1.591 . S
C2063 C349 1.591 . S
C2079 C485 1.591 . S
C2081 C383 1.591 . S
C2097 C791 1.591 . S
C2099 C553 1.591 . S
C2115 C689 1.591 . S
C2117 C587 1.591 . S
C2133 C723 1.591 . S
C2135 C621 1.591 . S
C2151 C757 1.591 . S
C2153 C655 1.591 . S
C2169 C825 1.591 . S
C2171 C1063 1.591 . S
C2187 C859 1.591 . S
C2189 C961 1.591 . S
C2205 C893 1.591 . S
C2207 C995 1.591 . S
C2223 C1029 1.591 . S
C2225 C927 1.591 . S
C2241 C20 1.958 . S
C2243 C836 1.958 . S
C2259 C326 1.958 . S
C2261 C54 1.958 . S
C2277 C904 1.958 . S
C2279 C88 1.958 . S
C2295 C122 1.958 . S
C2297 C394 1.958 . S
C2313 C156 1.958 . S
C2315 C972 1.958 . S
C2331 C190 1.958 . S
C2333 C462 1.958 . S
C2349 C1040 1.958 . S
C2351 C224 1.958 . S
C2367 C258 1.958 . S
C2369 C530 1.958 . S
C2385 C564 1.958 . S
C2387 C292 1.958 . S
C2403 C632 1.958 . S
C2405 C360 1.958 . S
C2421 C428 1.958 . S
C2423 C700 1.958 . S
C2439 C496 1.958 . S
C2441 C768 1.958 . S
C2457 C870 1.958 . S
C2459 C598 1.958 . S
C2475 C938 1.958 . S
C2477 C666 1.958 . S
C2493 C1006 1.958 . S
C2495 C734 1.958 . S
C2511 C1074 1.958 . S
C2513 C802 1.958 . S
