# Generated by pormake.
# Topology uol, (4)-cn, num edge types: 1
# Building blocks:
#     Node 0, Type 0, BuildingBlock: CEKHIL_clean_sbu_0, # of connection points: 4
#     Node 1, Type 0, BuildingBlock: CEKHIL_clean_sbu_0, # of connection points: 4
#     Node 2, Type 0, BuildingBlock: CEKHIL_clean_sbu_0, # of connection points: 4
#     Node 3, Type 0, BuildingBlock: CEKHIL_clean_sbu_0, # of connection points: 4
#     Node 4, Type 0, BuildingBlock: CEKHIL_clean_sbu_0, # of connection points: 4
#     Node 5, Type 0, BuildingBlock: CEKHIL_clean_sbu_0, # of connection points: 4
#     Node 6, Type 0, BuildingBlock: CEKHIL_clean_sbu_0, # of connection points: 4
#     Node 7, Type 0, BuildingBlock: CEKHIL_clean_sbu_0, # of connection points: 4
#     Node 8, Type 0, BuildingBlock: CEKHIL_clean_sbu_0, # of connection points: 4
#     Node 9, Type 0, BuildingBlock: CEKHIL_clean_sbu_0, # of connection points: 4
#     Node 10, Type 0, BuildingBlock: CEKHIL_clean_sbu_0, # of connection points: 4
#     Node 11, Type 0, BuildingBlock: CEKHIL_clean_sbu_0, # of connection points: 4
#     Edge 12, Type (0, 0), BuildingBlock: MIFKUJ_clean_linker_0, # of connection points: 2
#     Edge 13, Type (0, 0), BuildingBlock: MIFKUJ_clean_linker_0, # of connection points: 2
#     Edge 14, Type (0, 0), BuildingBlock: MIFKUJ_clean_linker_0, # of connection points: 2
#     Edge 15, Type (0, 0), BuildingBlock: MIFKUJ_clean_linker_0, # of connection points: 2
#     Edge 16, Type (0, 0), BuildingBlock: MIFKUJ_clean_linker_0, # of connection points: 2
#     Edge 17, Type (0, 0), BuildingBlock: MIFKUJ_clean_linker_0, # of connection points: 2
#     Edge 18, Type (0, 0), BuildingBlock: MIFKUJ_clean_linker_0, # of connection points: 2
#     Edge 19, Type (0, 0), BuildingBlock: MIFKUJ_clean_linker_0, # of connection points: 2
#     Edge 20, Type (0, 0), BuildingBlock: MIFKUJ_clean_linker_0, # of connection points: 2
#     Edge 21, Type (0, 0), BuildingBlock: MIFKUJ_clean_linker_0, # of connection points: 2
#     Edge 22, Type (0, 0), BuildingBlock: MIFKUJ_clean_linker_0, # of connection points: 2
#     Edge 23, Type (0, 0), BuildingBlock: MIFKUJ_clean_linker_0, # of connection points: 2
#     Edge 24, Type (0, 0), BuildingBlock: MIFKUJ_clean_linker_0, # of connection points: 2
#     Edge 25, Type (0, 0), BuildingBlock: MIFKUJ_clean_linker_0, # of connection points: 2
#     Edge 26, Type (0, 0), BuildingBlock: MIFKUJ_clean_linker_0, # of connection points: 2
#     Edge 27, Type (0, 0), BuildingBlock: MIFKUJ_clean_linker_0, # of connection points: 2
#     Edge 28, Type (0, 0), BuildingBlock: MIFKUJ_clean_linker_0, # of connection points: 2
#     Edge 29, Type (0, 0), BuildingBlock: MIFKUJ_clean_linker_0, # of connection points: 2
#     Edge 30, Type (0, 0), BuildingBlock: MIFKUJ_clean_linker_0, # of connection points: 2
#     Edge 31, Type (0, 0), BuildingBlock: MIFKUJ_clean_linker_0, # of connection points: 2
#     Edge 32, Type (0, 0), BuildingBlock: MIFKUJ_clean_linker_0, # of connection points: 2
#     Edge 33, Type (0, 0), BuildingBlock: MIFKUJ_clean_linker_0, # of connection points: 2
#     Edge 34, Type (0, 0), BuildingBlock: MIFKUJ_clean_linker_0, # of connection points: 2
#     Edge 35, Type (0, 0), BuildingBlock: MIFKUJ_clean_linker_0, # of connection points: 2
# Relax obj value: 0.130
# Max RMSD: 0.171
# Mean RMSD: 0.171
data_MOF--net-uol--node1-CEKHIL_clean_sbu_0--edge1-MIFKUJ_clean_linker_0
_symmetry_space_group_name_H-M    P1
_symmetry_Int_Tables_number       1
_symmetry_cell_setting            triclinic
loop_
_symmetry_equiv_pos_as_xyz
'x, y, z'
_cell_length_a     42.308132
_cell_length_b     42.329886
_cell_length_c     84.756861
_cell_angle_alpha  90.045319
_cell_angle_beta   89.963392
_cell_angle_gamma 119.9841
loop_
_atom_site_label
_atom_site_type_symbol
_atom_site_fract_x
_atom_site_fract_y
_atom_site_fract_z
_atom_type_partial_charge
Co0 Co 0.1471 0.34842 0.08809 0.0
O1 O 0.12659 0.37446 0.0778 0.0
O2 O 0.161 0.39336 0.09927 0.0
C3 C 0.16801 0.33586 0.06591 0.0
O4 O 0.17375 0.32958 0.10177 0.0
Co5 Co 0.1186 0.26687 0.08116 0.0
O6 O 0.16285 0.27513 0.09274 0.0
C7 C 0.07709 0.28786 0.10268 0.0
C8 C 0.14248 0.39925 0.08858 0.0
C9 C 0.17964 0.30254 0.10186 0.0
O10 O 0.10209 0.32154 0.10151 0.0
O11 O 0.07759 0.26223 0.09483 0.0
O12 O 0.18702 0.36711 0.07292 0.0
O13 O 0.13606 0.31439 0.07175 0.0
Co14 Co 0.79382 0.14169 0.25487 0.0
O15 O 0.74808 0.11981 0.24375 0.0
O16 O 0.75965 0.15167 0.26585 0.0
C17 C 0.82891 0.16584 0.23328 0.0
O18 O 0.8378 0.16961 0.26934 0.0
Co19 Co 0.85229 0.11953 0.24834 0.0
O20 O 0.88513 0.16581 0.2595 0.0
C21 C 0.78895 0.07305 0.26879 0.0
C22 C 0.73685 0.13362 0.25456 0.0
C23 C 0.87195 0.17955 0.26902 0.0
O24 O 0.7774 0.0959 0.2676 0.0
O25 O 0.81706 0.0767 0.26144 0.0
O26 O 0.81413 0.18274 0.24017 0.0
O27 O 0.81997 0.13413 0.23891 0.0
Co28 Co 0.64718 0.79466 0.42221 0.0
O29 O 0.61935 0.74594 0.41402 0.0
O30 O 0.60292 0.76744 0.4344 0.0
C31 C 0.65862 0.82348 0.39879 0.0
O32 O 0.66842 0.84353 0.43371 0.0
Co33 Co 0.72885 0.84309 0.41314 0.0
O34 O 0.72425 0.88201 0.42403 0.0
C35 C 0.70768 0.78523 0.43705 0.0
C36 C 0.59557 0.7405 0.42489 0.0
C37 C 0.69734 0.87526 0.43296 0.0
O38 O 0.67449 0.77854 0.43657 0.0
O39 O 0.73281 0.80822 0.42794 0.0
O40 O 0.62782 0.81289 0.40597 0.0
O41 O 0.6798 0.81328 0.40517 0.0
Co42 Co 0.83876 0.63758 0.59032 0.0
O43 O 0.86061 0.61024 0.58261 0.0
O44 O 0.82077 0.59297 0.60231 0.0
C45 C 0.82336 0.64995 0.56663 0.0
O46 O 0.81045 0.6586 0.60123 0.0
Co47 Co 0.8737 0.71973 0.58158 0.0
O48 O 0.82959 0.71521 0.59206 0.0
C49 C 0.90802 0.69694 0.60576 0.0
C50 C 0.84141 0.58614 0.59321 0.0
C51 C 0.80836 0.68791 0.60059 0.0
O52 O 0.88033 0.66448 0.60554 0.0
O53 O 0.91242 0.72207 0.59611 0.0
O54 O 0.80268 0.61876 0.57343 0.0
O55 O 0.8542 0.67076 0.57351 0.0
Co56 Co 0.20132 0.85432 0.75479 0.0
O57 O 0.24522 0.87039 0.74269 0.0
O58 O 0.23384 0.84201 0.76572 0.0
C59 C 0.1626 0.82907 0.73435 0.0
O60 O 0.15872 0.83214 0.77029 0.0
Co61 Co 0.1493 0.88452 0.74823 0.0
O62 O 0.11493 0.84331 0.7618 0.0
C63 C 0.21737 0.92939 0.76605 0.0
C64 C 0.25575 0.85662 0.75378 0.0
C65 C 0.12622 0.8274 0.77109 0.0
O66 O 0.22351 0.90253 0.76616 0.0
O67 O 0.19068 0.92858 0.75856 0.0
O68 O 0.17598 0.81115 0.74146 0.0
O69 O 0.17536 0.8624 0.7389 0.0
Co70 Co 0.3477 0.20169 0.92092 0.0
O71 O 0.37565 0.24691 0.90983 0.0
O72 O 0.39276 0.23261 0.93212 0.0
C73 C 0.3344 0.16607 0.89937 0.0
O74 O 0.32672 0.15729 0.93543 0.0
Co75 Co 0.2657 0.15149 0.91378 0.0
O76 O 0.27072 0.11565 0.92708 0.0
C77 C 0.28926 0.21761 0.93305 0.0
C78 C 0.39999 0.25609 0.92083 0.0
C79 C 0.29808 0.12539 0.93615 0.0
O80 O 0.32197 0.22292 0.93323 0.0
O81 O 0.26349 0.19228 0.92495 0.0
O82 O 0.36526 0.17765 0.90665 0.0
O83 O 0.31393 0.1784 0.90458 0.0
Co84 Co 0.64645 0.8532 0.7419 0.0
O85 O 0.61768 0.87034 0.75242 0.0
O86 O 0.6012 0.83722 0.73055 0.0
C87 C 0.6611 0.833 0.76374 0.0
O88 O 0.66843 0.82948 0.72816 0.0
Co89 Co 0.72921 0.88908 0.7493 0.0
O90 O 0.7262 0.84917 0.73592 0.0
C91 C 0.70343 0.92687 0.72834 0.0
C92 C 0.5934 0.8538 0.74152 0.0
C93 C 0.69858 0.82898 0.72734 0.0
O94 O 0.67114 0.89883 0.72867 0.0
O95 O 0.72973 0.9297 0.73684 0.0
O96 O 0.62988 0.81298 0.75683 0.0
O97 O 0.68061 0.86561 0.7582 0.0
Co98 Co 0.79305 0.64627 0.90827 0.0
O99 O 0.74594 0.6212 0.91816 0.0
O100 O 0.76124 0.60218 0.89667 0.0
C101 C 0.82499 0.6566 0.93075 0.0
O102 O 0.8391 0.66401 0.89501 0.0
Co103 Co 0.84874 0.72678 0.91608 0.0
O104 O 0.88405 0.71548 0.90573 0.0
C105 C 0.78819 0.70963 0.89386 0.0
C106 C 0.73674 0.59654 0.90729 0.0
C107 C 0.87286 0.68902 0.89605 0.0
O108 O 0.77739 0.67537 0.89489 0.0
O109 O 0.81476 0.73408 0.90196 0.0
O110 O 0.81217 0.62554 0.9235 0.0
O111 O 0.8161 0.67924 0.9249 0.0
Co112 Co 0.14489 0.79214 0.07476 0.0
O113 O 0.12478 0.74576 0.08518 0.0
O114 O 0.15872 0.76106 0.06355 0.0
C115 C 0.16611 0.82598 0.09683 0.0
O116 O 0.17103 0.8374 0.06093 0.0
Co117 Co 0.11629 0.84524 0.08178 0.0
O118 O 0.16126 0.88131 0.07055 0.0
C119 C 0.07363 0.78133 0.06111 0.0
C120 C 0.14056 0.73681 0.07435 0.0
C121 C 0.17759 0.87053 0.06124 0.0
O122 O 0.09951 0.77374 0.06159 0.0
O123 O 0.07398 0.8071 0.06921 0.0
O124 O 0.18509 0.81367 0.08982 0.0
O125 O 0.1341 0.81533 0.09103 0.0
Co126 Co 0.34918 0.14198 0.24205 0.0
O127 O 0.37591 0.12288 0.25286 0.0
O128 O 0.39337 0.15407 0.2305 0.0
C129 C 0.33769 0.16539 0.26373 0.0
O130 O 0.32949 0.16717 0.22788 0.0
Co131 Co 0.26779 0.11407 0.24972 0.0
O132 O 0.2767 0.15852 0.23811 0.0
C133 C 0.28755 0.07044 0.22891 0.0
C134 C 0.40002 0.13722 0.24172 0.0
C135 C 0.30309 0.17406 0.2284 0.0
O136 O 0.32133 0.09552 0.22956 0.0
O137 O 0.26243 0.07171 0.23686 0.0
O138 O 0.36873 0.18357 0.25644 0.0
O139 O 0.3161 0.1329 0.2585 0.0
Co140 Co 0.2028 0.35379 0.40763 0.0
O141 O 0.2501 0.37965 0.41737 0.0
O142 O 0.23323 0.39872 0.39636 0.0
C143 C 0.17045 0.3413 0.43016 0.0
O144 O 0.15641 0.33523 0.39455 0.0
Co145 Co 0.14984 0.27212 0.41478 0.0
O146 O 0.11348 0.28049 0.40358 0.0
C147 C 0.21169 0.29295 0.39291 0.0
C148 C 0.25825 0.40457 0.40673 0.0
C149 C 0.12351 0.3081 0.39465 0.0
O150 O 0.21978 0.32656 0.39372 0.0
O151 O 0.18645 0.26766 0.40123 0.0
O152 O 0.18285 0.37274 0.42332 0.0
O153 O 0.18046 0.31978 0.42397 0.0
Co154 Co 0.85311 0.20288 0.57398 0.0
O155 O 0.87181 0.24887 0.58469 0.0
O156 O 0.83966 0.23392 0.56255 0.0
C157 C 0.82996 0.16776 0.59563 0.0
O158 O 0.82838 0.15799 0.55977 0.0
Co159 Co 0.88301 0.15103 0.58161 0.0
O160 O 0.84308 0.11628 0.56767 0.0
C161 C 0.92646 0.21589 0.56175 0.0
C162 C 0.85653 0.25781 0.57364 0.0
C163 C 0.82535 0.12621 0.55876 0.0
O164 O 0.89983 0.22242 0.56157 0.0
O165 O 0.92611 0.19039 0.57001 0.0
O166 O 0.81165 0.1805 0.58838 0.0
O167 O 0.86261 0.17913 0.59043 0.0
H168 H 0.18406 0.71611 0.05883 0.0
H169 H 0.1833 0.6581 0.06134 0.0
H170 H 0.09149 0.61872 0.09311 0.0
H171 H 0.0931 0.67699 0.09111 0.0
H172 H 0.13677 0.6018 0.10458 0.0
H173 H 0.08333 0.58948 0.05366 0.0
H174 H 0.07894 0.60683 0.02632 0.0
H175 H 0.17659 0.60513 0.01409 0.0
H176 H 0.18182 0.58822 0.04142 0.0
H177 H 0.09447 0.41109 0.07198 0.0
H178 H 0.0922 0.4674 0.07006 0.0
H179 H 0.18423 0.52047 0.10166 0.0
H180 H 0.18568 0.46354 0.10409 0.0
H181 H 0.13711 0.52966 0.05852 0.0
H182 H 0.18195 0.58854 0.12164 0.0
H183 H 0.17705 0.56651 0.14898 0.0
H184 H 0.07999 0.46666 0.13681 0.0
H185 H 0.08405 0.48829 0.10948 0.0
C186 C 0.16358 0.69493 0.06625 0.0
C187 C 0.13867 0.70104 0.07478 0.0
C188 C 0.16308 0.66175 0.06765 0.0
C189 C 0.13715 0.63385 0.07734 0.0
C190 C 0.11189 0.63983 0.08564 0.0
C191 C 0.11274 0.67311 0.08443 0.0
C192 C 0.13673 0.59872 0.07918 0.0
C193 C 0.13684 0.58604 0.09449 0.0
C194 C 0.13618 0.57773 0.06606 0.0
C195 C 0.13316 0.58795 0.04962 0.0
C196 C 0.10402 0.59309 0.04517 0.0
C197 C 0.10136 0.60279 0.02967 0.0
C198 C 0.12753 0.60718 0.01849 0.0
C199 C 0.15637 0.60178 0.02277 0.0
C200 C 0.15918 0.59211 0.03826 0.0
C201 C 0.11402 0.43467 0.07864 0.0
C202 C 0.14023 0.43294 0.08821 0.0
C203 C 0.1128 0.46691 0.07748 0.0
C204 C 0.13794 0.49823 0.08575 0.0
C205 C 0.16412 0.49653 0.09537 0.0
C206 C 0.165 0.46403 0.09673 0.0
C207 C 0.13713 0.53274 0.08391 0.0
C208 C 0.13704 0.54542 0.06861 0.0
C209 C 0.13639 0.55307 0.09703 0.0
C210 C 0.13357 0.5399 0.11347 0.0
C211 C 0.15952 0.56193 0.12482 0.0
C212 C 0.15689 0.54951 0.14031 0.0
C213 C 0.1283 0.51515 0.14461 0.0
C214 C 0.10221 0.4932 0.13345 0.0
C215 C 0.10469 0.50551 0.11795 0.0
H216 H 0.12633 0.50558 0.15661 0.0
H217 H 0.12541 0.61468 0.00649 0.0
H218 H 0.69261 0.11429 0.22883 0.0
H219 H 0.63419 0.1126 0.22632 0.0
H220 H 0.6401 0.14355 0.27517 0.0
H221 H 0.6992 0.14613 0.27772 0.0
H222 H 0.56831 0.08066 0.26278 0.0
H223 H 0.66105 0.20691 0.25243 0.0
H224 H 0.71556 0.25413 0.23859 0.0
H225 H 0.6605 0.21716 0.19412 0.0
H226 H 0.60583 0.16935 0.20769 0.0
H227 H 0.43178 0.1278 0.26765 0.0
H228 H 0.48778 0.12501 0.26915 0.0
H229 H 0.50002 0.13754 0.21858 0.0
H230 H 0.44473 0.14253 0.21719 0.0
H231 H 0.5625 0.17562 0.23065 0.0
H232 H 0.4702 0.05257 0.23871 0.0
H233 H 0.41511 0.00095 0.25029 0.0
H234 H 0.46672 0.02461 0.29575 0.0
H235 H 0.52196 0.0767 0.28449 0.0
C236 C 0.6814 0.1205 0.23909 0.0
C237 C 0.70051 0.13045 0.25347 0.0
C238 C 0.64808 0.11957 0.23761 0.0
C239 C 0.63303 0.12806 0.25054 0.0
C240 C 0.6514 0.13691 0.26507 0.0
C241 C 0.68512 0.13848 0.26649 0.0
C242 C 0.59867 0.12885 0.24869 0.0
C243 C 0.56695 0.10162 0.25594 0.0
C244 C 0.59684 0.1553 0.23918 0.0
C245 C 0.62951 0.18434 0.23106 0.0
C246 C 0.66068 0.20866 0.23969 0.0
C247 C 0.69158 0.23557 0.23189 0.0
C248 C 0.69153 0.23858 0.21548 0.0
C249 C 0.66052 0.21477 0.20683 0.0
C250 C 0.62957 0.18779 0.21457 0.0
C251 C 0.44635 0.12987 0.25684 0.0
C252 C 0.43382 0.13517 0.24228 0.0
C253 C 0.47828 0.12798 0.25769 0.0
C254 C 0.49781 0.13009 0.24394 0.0
C255 C 0.48542 0.13565 0.22936 0.0
C256 C 0.45382 0.13844 0.22855 0.0
C257 C 0.53164 0.12757 0.24495 0.0
C258 C 0.56344 0.15444 0.23748 0.0
C259 C 0.53328 0.10013 0.25394 0.0
C260 C 0.50013 0.06875 0.26077 0.0
C261 C 0.46971 0.04693 0.2512 0.0
C262 C 0.43847 0.01756 0.2577 0.0
C263 C 0.43739 0.00955 0.27375 0.0
C264 C 0.46758 0.03086 0.28332 0.0
C265 C 0.49889 0.06029 0.27688 0.0
H266 H 0.41317 0.9868 0.27876 0.0
H267 H 0.71548 0.25942 0.20946 0.0
H268 H 0.52737 0.73079 0.42786 0.0
H269 H 0.4696 0.67369 0.42475 0.0
H270 H 0.52842 0.61487 0.421 0.0
H271 H 0.58614 0.6725 0.4227 0.0
H272 H 0.48175 0.58975 0.40046 0.0
H273 H 0.47245 0.61248 0.45498 0.0
H274 H 0.47278 0.64705 0.47847 0.0
H275 H 0.38354 0.65605 0.45949 0.0
H276 H 0.38296 0.62191 0.43578 0.0
H277 H 0.32146 0.41529 0.41989 0.0
H278 H 0.37907 0.47301 0.42252 0.0
H279 H 0.33228 0.52891 0.39787 0.0
H280 H 0.27477 0.47097 0.39473 0.0
H281 H 0.3708 0.55418 0.43247 0.0
H282 H 0.38408 0.52818 0.37728 0.0
H283 H 0.38441 0.48804 0.35625 0.0
H284 H 0.46849 0.47891 0.38058 0.0
H285 H 0.46822 0.51855 0.40188 0.0
C286 C 0.52774 0.70549 0.42661 0.0
C287 C 0.56094 0.70577 0.42559 0.0
C288 C 0.49471 0.67277 0.42491 0.0
C289 C 0.49431 0.63956 0.42285 0.0
C290 C 0.52775 0.63995 0.42247 0.0
C291 C 0.56073 0.6728 0.42357 0.0
C292 C 0.45941 0.60479 0.42012 0.0
C293 C 0.45778 0.58199 0.40767 0.0
C294 C 0.42762 0.59437 0.4293 0.0
C295 C 0.42791 0.61494 0.44353 0.0
C296 C 0.45307 0.62206 0.45576 0.0
C297 C 0.45327 0.64154 0.46912 0.0
C298 C 0.42826 0.65382 0.47045 0.0
C299 C 0.40293 0.64657 0.45843 0.0
C300 C 0.40263 0.62712 0.44504 0.0
C301 C 0.32359 0.43981 0.41486 0.0
C302 C 0.29373 0.43874 0.40709 0.0
C303 C 0.35643 0.47266 0.41639 0.0
C304 C 0.35969 0.50502 0.41042 0.0
C305 C 0.33011 0.50407 0.40252 0.0
C306 C 0.29746 0.47103 0.40068 0.0
C307 C 0.39374 0.53996 0.41297 0.0
C308 C 0.39505 0.56246 0.42538 0.0
C309 C 0.42551 0.54956 0.40411 0.0
C310 C 0.42582 0.52597 0.39125 0.0
C311 C 0.40235 0.51729 0.37822 0.0
C312 C 0.4026 0.49471 0.36623 0.0
C313 C 0.42638 0.48084 0.3671 0.0
C314 C 0.45004 0.48962 0.37993 0.0
C315 C 0.44987 0.51216 0.39196 0.0
H316 H 0.42653 0.46337 0.3578 0.0
H317 H 0.42846 0.6689 0.48081 0.0
H318 H 0.78416 0.5179 0.58939 0.0
H319 H 0.78663 0.46177 0.58613 0.0
H320 H 0.90232 0.52122 0.59604 0.0
H321 H 0.90008 0.57781 0.59788 0.0
H322 H 0.89461 0.48174 0.57349 0.0
H323 H 0.83077 0.45455 0.62255 0.0
H324 H 0.78325 0.44736 0.64144 0.0
H325 H 0.70054 0.3657 0.61174 0.0
H326 H 0.74752 0.37272 0.59257 0.0
H327 H 0.90425 0.3192 0.58954 0.0
H328 H 0.90185 0.37552 0.59256 0.0
H329 H 0.80631 0.33121 0.56294 0.0
H330 H 0.80907 0.27501 0.55951 0.0
H331 H 0.80363 0.36141 0.59532 0.0
H332 H 0.87397 0.39096 0.5468 0.0
H333 H 0.92544 0.39806 0.53051 0.0
H334 H 0.00138 0.47612 0.56349 0.0
H335 H 0.95033 0.46907 0.5801 0.0
C336 C 0.80988 0.51863 0.59114 0.0
C337 C 0.84186 0.55177 0.59405 0.0
C338 C 0.81134 0.48654 0.58935 0.0
C339 C 0.8446 0.48684 0.59108 0.0
C340 C 0.87633 0.52006 0.59458 0.0
C341 C 0.87505 0.55232 0.59579 0.0
C342 C 0.84683 0.45322 0.58826 0.0
C343 C 0.87494 0.45565 0.57853 0.0
C344 C 0.82099 0.41875 0.59454 0.0
C345 C 0.79265 0.41442 0.60605 0.0
C346 C 0.80243 0.43524 0.61999 0.0
C347 C 0.77559 0.43116 0.63076 0.0
C348 C 0.73889 0.40615 0.62777 0.0
C349 C 0.72897 0.38509 0.61403 0.0
C350 C 0.75569 0.38908 0.60322 0.0
C351 C 0.88298 0.32162 0.58352 0.0
C352 C 0.85683 0.29278 0.57429 0.0
C353 C 0.88167 0.35376 0.58525 0.0
C354 C 0.85386 0.35733 0.578 0.0
C355 C 0.82794 0.32881 0.56862 0.0
C356 C 0.82967 0.2969 0.56661 0.0
C357 C 0.85122 0.39042 0.58072 0.0
C358 C 0.82313 0.38774 0.59041 0.0
C359 C 0.87766 0.42479 0.57483 0.0
C360 C 0.90833 0.4292 0.56477 0.0
C361 C 0.90164 0.40938 0.55065 0.0
C362 C 0.93074 0.41346 0.54134 0.0
C363 C 0.96666 0.43745 0.54598 0.0
C364 C 0.97355 0.45751 0.55992 0.0
C365 C 0.94454 0.45351 0.56928 0.0
H366 H 0.98915 0.44057 0.53876 0.0
H367 H 0.71816 0.40304 0.63612 0.0
H368 H 0.54446 0.8387 0.71746 0.0
H369 H 0.48641 0.83878 0.71881 0.0
H370 H 0.50495 0.8669 0.76816 0.0
H371 H 0.56302 0.86769 0.76685 0.0
H372 H 0.43246 0.80605 0.75969 0.0
H373 H 0.52032 0.93117 0.74568 0.0
H374 H 0.56856 0.97839 0.72901 0.0
H375 H 0.49646 0.94095 0.68909 0.0
H376 H 0.44794 0.89312 0.70549 0.0
H377 H 0.29643 0.85087 0.77749 0.0
H378 H 0.35385 0.85044 0.77491 0.0
H379 H 0.34942 0.85953 0.72431 0.0
H380 H 0.29335 0.86215 0.72697 0.0
H381 H 0.41472 0.89967 0.73239 0.0
H382 H 0.32658 0.77617 0.7447 0.0
H383 H 0.27724 0.72582 0.75976 0.0
H384 H 0.34689 0.75461 0.80038 0.0
H385 H 0.39652 0.80545 0.78562 0.0
C386 C 0.53609 0.84489 0.72857 0.0
C387 C 0.55826 0.85329 0.74203 0.0
C388 C 0.50305 0.84498 0.72932 0.0
C389 C 0.49155 0.85286 0.7436 0.0
C390 C 0.5134 0.86071 0.75706 0.0
C391 C 0.54661 0.8613 0.75626 0.0
C392 C 0.45681 0.85319 0.74461 0.0
C393 C 0.42853 0.82663 0.75384 0.0
C394 C 0.45156 0.87944 0.73659 0.0
C395 C 0.48066 0.9083 0.72676 0.0
C396 C 0.51487 0.93277 0.73331 0.0
C397 C 0.54224 0.9597 0.72392 0.0
C398 C 0.53562 0.96259 0.70798 0.0
C399 C 0.50157 0.93863 0.70142 0.0
C400 C 0.47413 0.91163 0.71076 0.0
C401 C 0.30784 0.85284 0.76584 0.0
C402 C 0.29045 0.85645 0.75243 0.0
C403 C 0.34052 0.85234 0.76434 0.0
C404 C 0.35574 0.85418 0.74936 0.0
C405 C 0.33838 0.85806 0.73599 0.0
C406 C 0.30625 0.85947 0.73752 0.0
C407 C 0.38986 0.85242 0.74757 0.0
C408 C 0.41822 0.87879 0.73819 0.0
C409 C 0.39488 0.82544 0.7552 0.0
C410 C 0.36514 0.79482 0.7641 0.0
C411 C 0.33129 0.77191 0.75688 0.0
C412 C 0.30328 0.74327 0.76535 0.0
C413 C 0.3089 0.73708 0.78102 0.0
C414 C 0.34257 0.75947 0.78824 0.0
C415 C 0.37065 0.78818 0.77983 0.0
H416 H 0.28718 0.71489 0.78757 0.0
H417 H 0.55684 0.98346 0.70073 0.0
H418 H 0.45683 0.2842 0.94194 0.0
H419 H 0.51383 0.34295 0.94025 0.0
H420 H 0.47799 0.36583 0.89627 0.0
H421 H 0.42113 0.30783 0.89798 0.0
H422 H 0.56802 0.36998 0.91871 0.0
H423 H 0.50738 0.45579 0.89357 0.0
H424 H 0.45008 0.45767 0.8949 0.0
H425 H 0.426 0.40494 0.94011 0.0
H426 H 0.48337 0.4032 0.93915 0.0
H427 H 0.7111 0.53663 0.88799 0.0
H428 H 0.65315 0.47912 0.89044 0.0
H429 H 0.62382 0.52262 0.9303 0.0
H430 H 0.68112 0.58006 0.92779 0.0
H431 H 0.56658 0.48566 0.91173 0.0
H432 H 0.65768 0.46557 0.93568 0.0
H433 H 0.71542 0.46457 0.93678 0.0
H434 H 0.67928 0.38736 0.89869 0.0
H435 H 0.62149 0.38829 0.89721 0.0
C436 C 0.4611 0.30186 0.93196 0.0
C437 C 0.43441 0.29147 0.92015 0.0
C438 C 0.49369 0.33531 0.93098 0.0
C439 C 0.49998 0.35893 0.91822 0.0
C440 C 0.47349 0.34835 0.90635 0.0
C441 C 0.44101 0.31508 0.90734 0.0
C442 C 0.53423 0.39461 0.91716 0.0
C443 C 0.56772 0.39527 0.9172 0.0
C444 C 0.53386 0.42769 0.91541 0.0
C445 C 0.49952 0.42907 0.9162 0.0
C446 C 0.48993 0.44474 0.90382 0.0
C447 C 0.45743 0.44576 0.90451 0.0
C448 C 0.43436 0.43133 0.91756 0.0
C449 C 0.44382 0.41598 0.92998 0.0
C450 C 0.47631 0.41493 0.92936 0.0
C451 C 0.69211 0.53402 0.89717 0.0
C452 C 0.70075 0.56279 0.90774 0.0
C453 C 0.65913 0.5011 0.89861 0.0
C454 C 0.63438 0.49642 0.9107 0.0
C455 C 0.6425 0.52558 0.92091 0.0
C456 C 0.67535 0.55839 0.91948 0.0
C457 C 0.60037 0.46097 0.91301 0.0
C458 C 0.5669 0.46035 0.9132 0.0
C459 C 0.60082 0.42807 0.91531 0.0
C460 C 0.63542 0.42727 0.91624 0.0
C461 C 0.66216 0.44858 0.92746 0.0
C462 C 0.69487 0.448 0.92816 0.0
C463 C 0.70105 0.42598 0.91778 0.0
C464 C 0.67447 0.40443 0.9067 0.0
C465 C 0.64173 0.40496 0.90594 0.0
H466 H 0.7264 0.42557 0.91834 0.0
H467 H 0.4092 0.43212 0.91806 0.0
H468 H 0.27457 0.21891 0.23153 0.0
H469 H 0.26315 0.25164 0.2106 0.0
H470 H 0.31246 0.21319 0.17668 0.0
H471 H 0.32584 0.18225 0.1978 0.0
H472 H 0.32726 0.27682 0.16816 0.0
H473 H 0.21674 0.17016 0.18374 0.0
H474 H 0.16803 0.12798 0.20173 0.0
H475 H 0.1421 0.21139 0.21294 0.0
H476 H 0.19106 0.25428 0.1952 0.0
H477 H 0.21614 0.26448 0.10119 0.0
H478 H 0.24721 0.254 0.12323 0.0
H479 H 0.22609 0.32436 0.15277 0.0
H480 H 0.19564 0.33563 0.13072 0.0
H481 H 0.19918 0.24985 0.16393 0.0
H482 H 0.30875 0.35389 0.14467 0.0
H483 H 0.35427 0.39026 0.12436 0.0
H484 H 0.37772 0.3036 0.11728 0.0
H485 H 0.33194 0.26646 0.1374 0.0
C486 C 0.28354 0.21804 0.21964 0.0
C487 C 0.30083 0.19784 0.21624 0.0
C488 C 0.27677 0.23652 0.20766 0.0
C489 C 0.2859 0.23403 0.19193 0.0
C490 C 0.30494 0.21543 0.18868 0.0
C491 C 0.31259 0.19773 0.20075 0.0
C492 C 0.2738 0.2489 0.17881 0.0
C493 C 0.29918 0.27066 0.16721 0.0
C494 C 0.23718 0.24123 0.17753 0.0
C495 C 0.2079 0.21558 0.18831 0.0
C496 C 0.20088 0.17962 0.19016 0.0
C497 C 0.17319 0.15556 0.20029 0.0
C498 C 0.15207 0.16704 0.20852 0.0
C499 C 0.15855 0.20258 0.2066 0.0
C500 C 0.18627 0.22677 0.19651 0.0
C501 C 0.21882 0.27836 0.11228 0.0
C502 C 0.20339 0.30082 0.11424 0.0
C503 C 0.23665 0.27242 0.12483 0.0
C504 C 0.2389 0.28844 0.13958 0.0
C505 C 0.22472 0.31191 0.14143 0.0
C506 C 0.20749 0.31842 0.1288 0.0
C507 C 0.25259 0.2776 0.15343 0.0
C508 C 0.22736 0.25635 0.16507 0.0
C509 C 0.28896 0.2849 0.15448 0.0
C510 C 0.31668 0.30727 0.14245 0.0
C511 C 0.32338 0.34245 0.13869 0.0
C512 C 0.34929 0.36324 0.12723 0.0
C513 C 0.36882 0.34922 0.11951 0.0
C514 C 0.36256 0.31441 0.12327 0.0
C515 C 0.33666 0.29351 0.13471 0.0
H516 H 0.38886 0.36535 0.11064 0.0
H517 H 0.13062 0.14836 0.21634 0.0
H518 H 0.94254 0.23366 0.26571 0.0
H519 H 0.98561 0.26821 0.28679 0.0
H520 H 0.90006 0.21317 0.3213 0.0
H521 H 0.85649 0.18061 0.3001 0.0
H522 H 0.94264 0.27687 0.33176 0.0
H523 H 0.96346 0.1839 0.31012 0.0
H524 H 0.97609 0.15093 0.28931 0.0
H525 H 0.07789 0.24753 0.27895 0.0
H526 H 0.06563 0.28121 0.29958 0.0
H527 H 0.04913 0.26577 0.3951 0.0
H528 H 0.00679 0.25642 0.37361 0.0
H529 H 0.09583 0.33665 0.34557 0.0
H530 H 0.13841 0.34652 0.36707 0.0
H531 H 0.05482 0.26732 0.33126 0.0
H532 H 0.03401 0.35608 0.35732 0.0
H533 H 0.01932 0.38289 0.38002 0.0
H534 H 0.91453 0.28602 0.3844 0.0
H535 H 0.92879 0.2584 0.36185 0.0
C536 C 0.93286 0.22965 0.27779 0.0
C537 C 0.89635 0.20437 0.28133 0.0
C538 C 0.95751 0.24914 0.28984 0.0
C539 C 0.94647 0.24247 0.30573 0.0
C540 C 0.90942 0.21874 0.30918 0.0
C541 C 0.8845 0.2001 0.29707 0.0
C542 C 0.97379 0.25795 0.31873 0.0
C543 C 0.96704 0.27457 0.33167 0.0
C544 C 0.00597 0.25537 0.31864 0.0
C545 C 0.01342 0.23517 0.30625 0.0
C546 C 0.98842 0.19816 0.30333 0.0
C547 C 0.99552 0.17935 0.29158 0.0
C548 C 0.02772 0.19715 0.28278 0.0
C549 C 0.05293 0.2338 0.28575 0.0
C550 C 0.04593 0.25276 0.29747 0.0
C551 C 0.05963 0.28199 0.38449 0.0
C552 C 0.09719 0.30674 0.38277 0.0
C553 C 0.03535 0.27671 0.37225 0.0
C554 C 0.0482 0.29588 0.35802 0.0
C555 C 0.0854 0.3217 0.35649 0.0
C556 C 0.10965 0.32737 0.36881 0.0
C557 C 0.02352 0.28597 0.34423 0.0
C558 C 0.0307 0.27015 0.33119 0.0
C559 C 0.99137 0.28838 0.34447 0.0
C560 C 0.98259 0.30507 0.35795 0.0
C561 C 0.00794 0.34038 0.36319 0.0
C562 C -0.00033 0.35575 0.37602 0.0
C563 C 0.96604 0.33615 0.38367 0.0
C564 C 0.94057 0.30117 0.37847 0.0
C565 C 0.94872 0.28567 0.36565 0.0
H566 H 0.95969 0.34809 0.3936 0.0
H567 H 0.03317 0.18254 0.27369 0.0
H568 H 0.81927 0.06091 0.55065 0.0
H569 H 0.78613 0.02162 0.52853 0.0
H570 H 0.74551 0.09355 0.516 0.0
H571 H 0.77974 0.13401 0.53793 0.0
H572 H 0.71356 0.98404 0.52102 0.0
H573 H 0.74532 0.10183 0.4861 0.0
H574 H 0.79227 0.16506 0.47945 0.0
H575 H 0.87475 0.13419 0.48006 0.0
H576 H 0.8285 0.0713 0.48738 0.0
H577 H 0.64445 0.87891 0.45061 0.0
H578 H 0.6538 0.92481 0.47057 0.0
H579 H 0.76932 0.98195 0.46059 0.0
H580 H 0.76003 0.93771 0.44034 0.0
H581 H 0.75142 0.02957 0.46644 0.0
H582 H 0.72549 0.91556 0.49101 0.0
H583 H 0.68696 0.84995 0.49642 0.0
H584 H 0.6046 0.8687 0.51654 0.0
H585 H 0.64218 0.93444 0.51068 0.0
C586 C 0.80323 0.06849 0.54327 0.0
C587 C 0.80246 0.10089 0.54606 0.0
C588 C 0.78422 0.04588 0.53061 0.0
C589 C 0.76383 0.05492 0.52043 0.0
C590 C 0.76186 0.08652 0.52344 0.0
C591 C 0.78119 0.10945 0.53608 0.0
C592 C 0.74561 0.03132 0.50655 0.0
C593 C 0.72116 0.99406 0.50904 0.0
C594 C 0.75583 0.04417 0.49096 0.0
C595 C 0.78372 0.08228 0.48753 0.0
C596 C 0.7736 0.10882 0.48506 0.0
C597 C 0.80008 0.14457 0.48124 0.0
C598 C 0.83658 0.15377 0.47953 0.0
C599 C 0.84664 0.12724 0.48168 0.0
C600 C 0.82037 0.09164 0.48577 0.0
C601 C 0.67172 0.90162 0.45252 0.0
C602 C 0.7015 0.90444 0.44393 0.0
C603 C 0.67707 0.92778 0.46398 0.0
C604 C 0.71239 0.95663 0.46732 0.0
C605 C 0.74177 0.96014 0.45827 0.0
C606 C 0.73639 0.93458 0.44667 0.0
C607 C 0.71993 0.9819 0.48085 0.0
C608 C 0.7425 0.01952 0.47833 0.0
C609 C 0.70867 0.96912 0.49646 0.0
C610 C 0.68639 0.92978 0.50021 0.0
C611 C 0.69906 0.90565 0.49649 0.0
C612 C 0.67739 0.86843 0.49965 0.0
C613 C 0.64338 0.85511 0.50687 0.0
C614 C 0.63093 0.87903 0.51093 0.0
C615 C 0.65233 0.91626 0.50763 0.0
H616 H 0.62668 0.82626 0.50933 0.0
H617 H 0.857 0.18137 0.47644 0.0
H618 H 0.79517 0.74484 0.60241 0.0
H619 H 0.76498 0.758 0.62375 0.0
H620 H 0.73477 0.65436 0.64523 0.0
H621 H 0.7657 0.64116 0.62404 0.0
H622 H 0.69987 0.73078 0.63733 0.0
H623 H 0.74953 0.66847 0.68498 0.0
H624 H 0.79713 0.65158 0.6886 0.0
H625 H 0.86584 0.73341 0.65513 0.0
H626 H 0.81891 0.75113 0.65151 0.0
H627 H 0.64476 0.77129 0.71071 0.0
H628 H 0.65282 0.73641 0.68955 0.0
H629 H 0.7697 0.80142 0.6949 0.0
H630 H 0.76186 0.83506 0.71631 0.0
H631 H 0.75392 0.73589 0.68986 0.0
H632 H 0.71815 0.81705 0.66614 0.0
H633 H 0.67743 0.84222 0.66152 0.0
H634 H 0.59312 0.73764 0.64531 0.0
H635 H 0.63301 0.71162 0.65018 0.0
C636 C 0.78158 0.72445 0.61149 0.0
C637 C 0.78352 0.69221 0.61163 0.0
C638 C 0.76411 0.73198 0.62367 0.0
C639 C 0.74821 0.70749 0.63624 0.0
C640 C 0.7474 0.67392 0.63577 0.0
C641 C 0.76501 0.66637 0.62359 0.0
C642 C 0.73629 0.71907 0.65052 0.0
C643 C 0.7113 0.7315 0.64887 0.0
C644 C 0.75179 0.7207 0.66551 0.0
C645 C 0.78049 0.71074 0.66783 0.0
C646 C 0.77485 0.6829 0.67844 0.0
C647 C 0.80171 0.67321 0.68049 0.0
C648 C 0.83442 0.69131 0.67205 0.0
C649 C 0.84044 0.71931 0.66161 0.0
C650 C 0.81371 0.72918 0.65955 0.0
C651 C 0.67213 0.77785 0.70746 0.0
C652 C 0.70265 0.80603 0.71519 0.0
C653 C 0.67672 0.75799 0.69532 0.0
C654 C 0.71191 0.76655 0.69045 0.0
C655 C 0.74226 0.79409 0.69844 0.0
C656 C 0.73771 0.81344 0.71069 0.0
C657 C 0.71779 0.7482 0.6767 0.0
C658 C 0.74172 0.73444 0.67843 0.0
C659 C 0.7023 0.7466 0.66168 0.0
C660 C 0.6784 0.7623 0.65871 0.0
C661 C 0.69083 0.79937 0.6617 0.0
C662 C 0.66793 0.8138 0.65903 0.0
C663 C 0.63274 0.79156 0.65313 0.0
C664 C 0.62037 0.75483 0.6499 0.0
C665 C 0.64308 0.74021 0.65264 0.0
H666 H 0.61508 0.8028 0.65105 0.0
H667 H 0.85515 0.68371 0.67362 0.0
H668 H 0.86024 0.66987 0.86507 0.0
H669 H 0.90582 0.68314 0.84463 0.0
H670 H 0.99036 0.7231 0.88012 0.0
H671 H 0.9449 0.71199 0.90045 0.0
H672 H 0.01072 0.77016 0.85923 0.0
H673 H 0.96324 0.64232 0.85599 0.0
H674 H 0.91669 0.57723 0.85393 0.0
H675 H 0.88381 0.59633 0.80868 0.0
H676 H 0.92982 0.66166 0.81055 0.0
H677 H 0.1447 0.80982 0.79939 0.0
H678 H 0.1039 0.77693 0.82146 0.0
H679 H 0.01132 0.76033 0.79381 0.0
H680 H 0.05183 0.79358 0.77181 0.0
H681 H 0.00035 0.69705 0.81175 0.0
H682 H 0.03971 0.82614 0.81892 0.0
H683 H 0.08396 0.89153 0.8223 0.0
H684 H 0.13334 0.86702 0.86112 0.0
H685 H 0.08895 0.80137 0.85804 0.0
C686 C 0.88844 0.68065 0.86853 0.0
C687 C 0.89913 0.69005 0.88431 0.0
C688 C 0.91456 0.68805 0.85683 0.0
C689 C 0.95173 0.70391 0.86076 0.0
C690 C 0.96197 0.71106 0.87672 0.0
C691 C 0.936 0.7046 0.88835 0.0
C692 C 0.98017 0.71731 0.84817 0.0
C693 C 0.00882 0.75359 0.8491 0.0
C694 C 0.97758 0.6963 0.83468 0.0
C695 C 0.94987 0.65699 0.83347 0.0
C696 C 0.94592 0.63271 0.84564 0.0
C697 C 0.91965 0.59575 0.8445 0.0
C698 C 0.89727 0.58267 0.83119 0.0
C699 C 0.90117 0.60651 0.81898 0.0
C700 C 0.92738 0.6435 0.82007 0.0
C701 C 0.11561 0.79874 0.79793 0.0
C702 C 0.10151 0.80446 0.78388 0.0
C703 C 0.09238 0.78005 0.81056 0.0
C704 C 0.05465 0.76631 0.80925 0.0
C705 C 0.04035 0.77065 0.79502 0.0
C706 C 0.06357 0.78981 0.7825 0.0
C707 C 0.03022 0.74948 0.82299 0.0
C708 C 0.00241 0.71286 0.82217 0.0
C709 C 0.03372 0.76986 0.83673 0.0
C710 C 0.06142 0.80896 0.83812 0.0
C711 C 0.06029 0.83471 0.82805 0.0
C712 C 0.08527 0.87182 0.82997 0.0
C713 C 0.11162 0.88346 0.84187 0.0
C714 C 0.11298 0.85797 0.85189 0.0
C715 C 0.08785 0.82083 0.8501 0.0
H716 H 0.13084 0.91222 0.8434 0.0
H717 H 0.87694 0.55404 0.83033 0.0
H718 H 0.17322 0.85866 0.02979 0.0
H719 H 0.20496 0.90345 0.00907 0.0
H720 H 0.26813 0.98439 0.04438 0.0
H721 H 0.23363 0.9401 0.06515 0.0
H722 H 0.24853 0.01467 0.0257 0.0
H723 H 0.30409 0.94301 0.01576 0.0
H724 H 0.3077 0.88735 0.01121 0.0
H725 H 0.244 0.8653 0.96899 0.0
H726 H 0.23957 0.92054 0.97339 0.0
H727 H 0.34054 0.1401 0.96266 0.0
H728 H 0.33183 0.09851 0.98446 0.0
H729 H 0.24072 0.01119 0.95996 0.0
H730 H 0.24914 0.05236 0.93817 0.0
H731 H 0.28667 0.9892 0.97414 0.0
H732 H 0.21905 0.05186 0.99039 0.0
H733 H 0.21421 0.10633 0.99626 0.0
H734 H 0.30763 0.14703 0.02669 0.0
H735 H 0.31215 0.09199 0.02139 0.0
C736 C 0.1944 0.88586 0.03306 0.0
C737 C 0.20125 0.89602 0.04899 0.0
C738 C 0.21286 0.91149 0.0212 0.0
C739 C 0.23974 0.94743 0.02501 0.0
C740 C 0.2476 0.95699 0.04103 0.0
C741 C 0.2281 0.93169 0.05291 0.0
C742 C 0.25671 0.97575 0.01241 0.0
C743 C 0.25782 0.00921 0.01464 0.0
C744 C 0.2685 0.969 0.99774 0.0
C745 C 0.27137 0.93588 0.99496 0.0
C746 C 0.2907 0.9262 0.00555 0.0
C747 C 0.2929 0.89472 0.00299 0.0
C748 C 0.27606 0.87278 0.98983 0.0
C749 C 0.25705 0.88233 0.97918 0.0
C750 C 0.25475 0.91376 0.98168 0.0
C751 C 0.31894 0.11194 0.96181 0.0
C752 C 0.29541 0.09965 0.94868 0.0
C753 C 0.3139 0.08826 0.97432 0.0
C754 C 0.28543 0.05184 0.97388 0.0
C755 C 0.26286 0.03918 0.96054 0.0
C756 C 0.26765 0.06283 0.94811 0.0
C757 C 0.27776 0.02717 0.98756 0.0
C758 C 0.27831 0.99458 0.98546 0.0
C759 C 0.26823 0.03487 0.00246 0.0
C760 C 0.26618 0.06821 0.00536 0.0
C761 C 0.23867 0.07259 0.99824 0.0
C762 C 0.23595 0.10351 0.00149 0.0
C763 C 0.26092 0.13045 0.01165 0.0
C764 C 0.28841 0.12625 0.01876 0.0
C765 C 0.29091 0.0951 0.01573 0.0
H766 H 0.25881 0.15443 0.0141 0.0
H767 H 0.27777 0.84841 0.98788 0.0
H768 H 0.23863 0.35918 0.05783 0.0
H769 H 0.26073 0.34324 0.03414 0.0
H770 H 0.14963 0.27639 0.01807 0.0
H771 H 0.12757 0.2903 0.04226 0.0
H772 H 0.18228 0.24275 0.01185 0.0
H773 H 0.21388 0.36696 0.00298 0.0
H774 H 0.24178 0.43249 0.00912 0.0
H775 H 0.34785 0.44246 0.01042 0.0
H776 H 0.32053 0.37688 0.00448 0.0
H777 H 0.22535 0.21919 0.93462 0.0
H778 H 0.2066 0.24648 0.95534 0.0
H779 H 0.3128 0.2919 0.9769 0.0
H780 H 0.33212 0.26528 0.95609 0.0
H781 H 0.28261 0.33755 0.97948 0.0
H782 H 0.24631 0.21026 0.98653 0.0
H783 H 0.21559 0.14683 0.97705 0.0
H784 H 0.11236 0.14319 0.97797 0.0
H785 H 0.14286 0.20756 0.98639 0.0
C786 C 0.21903 0.34099 0.04923 0.0
C787 C 0.18146 0.32599 0.0518 0.0
C788 C 0.23165 0.33215 0.03562 0.0
C789 C 0.20695 0.30926 0.02405 0.0
C790 C 0.16932 0.29412 0.02675 0.0
C791 C 0.1567 0.3021 0.04056 0.0
C792 C 0.22006 0.30037 0.00931 0.0
C793 C 0.20381 0.26366 0.00468 0.0
C794 C 0.24858 0.32745 -3e-05 0.0
C795 C 0.26511 0.36695 0.00342 0.0
C796 C 0.24313 0.38309 0.00466 0.0
C797 C 0.25884 0.42025 0.0081 0.0
C798 C 0.29655 0.44161 0.01019 0.0
C799 C 0.31864 0.42588 0.00881 0.0
C800 C 0.30307 0.38873 0.00539 0.0
C801 C 0.24502 0.23558 0.94357 0.0
C802 C 0.28003 0.2394 0.94385 0.0
C803 C 0.23424 0.25121 0.9554 0.0
C804 C 0.25808 0.27053 0.96781 0.0
C805 C 0.29395 0.27691 0.96745 0.0
C806 C 0.30486 0.2615 0.95557 0.0
C807 C 0.24446 0.28023 0.98207 0.0
C808 C 0.26083 0.3169 0.98665 0.0
C809 C 0.21549 0.25323 0.99119 0.0
C810 C 0.19697 0.21393 0.98693 0.0
C811 C 0.2171 0.19607 0.9846 0.0
C812 C 0.19972 0.15992 0.9794 0.0
C813 C 0.16199 0.14083 0.97706 0.0
C814 C 0.14159 0.15798 0.97981 0.0
C815 C 0.15896 0.19441 0.98468 0.0
H816 H 0.14858 0.11278 0.97308 0.0
H817 H 0.30866 0.47036 0.01286 0.0
H818 H 0.86034 0.23541 0.2216 0.0
H819 H 0.90304 0.26089 0.19942 0.0
H820 H 0.8975 0.15713 0.19272 0.0
H821 H 0.85598 0.13205 0.21508 0.0
H822 H 0.96493 0.20921 0.19053 0.0
H823 H 0.85036 0.18769 0.1688 0.0
H824 H 0.79556 0.19404 0.1675 0.0
H825 H 0.86305 0.31002 0.16231 0.0
H826 H 0.91829 0.30439 0.16379 0.0
H827 H 0.02778 0.21957 0.11321 0.0
H828 H 0.98549 0.2037 0.13528 0.0
H829 H 0.01816 0.31703 0.1416 0.0
H830 H 0.06091 0.33344 0.11951 0.0
H831 H 0.94059 0.26675 0.14467 0.0
H832 H 0.05523 0.28633 0.16457 0.0
H833 H 0.10908 0.27833 0.16539 0.0
H834 H 0.03984 0.16361 0.17363 0.0
H835 H 0.9855 0.17081 0.17258 0.0
C836 C 0.86833 0.21813 0.21539 0.0
C837 C 0.8548 0.18175 0.22003 0.0
C838 C 0.89257 0.23264 0.20268 0.0
C839 C 0.90316 0.21079 0.19427 0.0
C840 C 0.8898 0.17455 0.19903 0.0
C841 C 0.86597 0.16021 0.21179 0.0
C842 C 0.92828 0.22535 0.18056 0.0
C843 C 0.95935 0.22147 0.18046 0.0
C844 C 0.92162 0.24228 0.16757 0.0
C845 C 0.88844 0.24566 0.16658 0.0
C846 C 0.85351 0.21457 0.1675 0.0
C847 C 0.82237 0.21804 0.16671 0.0
C848 C 0.82582 0.25243 0.16487 0.0
C849 C 0.86042 0.28341 0.16376 0.0
C850 C 0.89165 0.2801 0.16456 0.0
C851 C 0.02569 0.24117 0.1191 0.0
C852 C 0.04804 0.27785 0.11465 0.0
C853 C 0.00156 0.23201 0.13175 0.0
C854 C -0.00088 0.25926 0.14015 0.0
C855 C 0.01982 0.29567 0.13526 0.0
C856 C 0.04428 0.30495 0.12267 0.0
C857 C 0.97648 0.24969 0.15458 0.0
C858 C 0.94612 0.25467 0.15482 0.0
C859 C 0.98358 0.23349 0.16767 0.0
C860 C 0.01625 0.22907 0.16835 0.0
C861 C 0.05145 0.25934 0.16641 0.0
C862 C 0.08207 0.25496 0.16694 0.0
C863 C 0.07788 0.22047 0.16953 0.0
C864 C 0.04305 0.1903 0.17161 0.0
C865 C 0.01233 0.19452 0.17105 0.0
H866 H 0.10163 0.21715 0.16997 0.0
H867 H 0.80168 0.25506 0.16427 0.0
H868 H 0.72037 0.0444 0.28148 0.0
H869 H 0.69274 0.99742 0.30187 0.0
H870 H 0.78922 0.98714 0.30258 0.0
H871 H 0.81624 0.03274 0.28182 0.0
H872 H 0.73279 0.92318 0.30575 0.0
H873 H 0.77254 0.04031 0.33017 0.0
H874 H 0.77495 0.09934 0.33367 0.0
H875 H 0.65941 0.04373 0.34207 0.0
H876 H 0.65626 0.98437 0.33842 0.0
H877 H 0.72264 0.85188 0.3824 0.0
H878 H 0.74002 0.89059 0.35893 0.0
H879 H 0.63577 0.8859 0.35953 0.0
H880 H 0.61844 0.84763 0.38315 0.0
H881 H 0.69077 0.95438 0.35493 0.0
H882 H 0.65347 0.83637 0.33275 0.0
H883 H 0.65346 0.77836 0.33001 0.0
H884 H 0.76741 0.83691 0.31823 0.0
H885 H 0.76823 0.89532 0.3211 0.0
C886 C 0.7355 0.03182 0.28587 0.0
C887 C 0.77058 0.04247 0.28009 0.0
C888 C 0.71977 0.00511 0.29759 0.0
C889 C 0.73921 0.98926 0.30402 0.0
C890 C 0.77367 -0.00104 0.29784 0.0
C891 C 0.78912 0.02513 0.28596 0.0
C892 C 0.72454 0.96361 0.31756 0.0
C893 C 0.72388 0.93016 0.31654 0.0
C894 C 0.7122 0.9723 0.33156 0.0
C895 C 0.71411 0.00795 0.33386 0.0
C896 C 0.74763 0.0407 0.33267 0.0
C897 C 0.74913 0.07421 0.33469 0.0
C898 C 0.71734 0.07529 0.33805 0.0
C899 C 0.684 0.04285 0.33944 0.0
C900 C 0.68234 0.00928 0.3374 0.0
C901 C 0.7034 0.85903 0.37751 0.0
C902 C 0.66916 0.84668 0.38458 0.0
C903 C 0.71329 0.881 0.36406 0.0
C904 C 0.68898 0.89072 0.35737 0.0
C905 C 0.65488 0.87862 0.36448 0.0
C906 C 0.64501 0.85672 0.37795 0.0
C907 C 0.69952 0.91427 0.34317 0.0
C908 C 0.69939 0.9473 0.34408 0.0
C909 C 0.71149 0.90536 0.32914 0.0
C910 C 0.71096 0.87023 0.32725 0.0
C911 C 0.67858 0.83689 0.32967 0.0
C912 C 0.67842 0.80393 0.32808 0.0
C913 C 0.71042 0.80395 0.32398 0.0
C914 C 0.74264 0.83694 0.32142 0.0
C915 C 0.74295 0.86997 0.323 0.0
H916 H 0.71025 0.77841 0.32277 0.0
H917 H 0.71855 0.10125 0.3396 0.0
H918 H 0.75906 0.61166 0.55075 0.0
H919 H 0.73832 0.63159 0.5279 0.0
H920 H 0.83953 0.73423 0.52787 0.0
H921 H 0.86027 0.71464 0.55086 0.0
H922 H 0.78198 0.74421 0.52506 0.0
H923 H 0.82275 0.66874 0.50036 0.0
H924 H 0.82577 0.61265 0.49622 0.0
H925 H 0.71124 0.55345 0.48558 0.0
H926 H 0.70743 0.60911 0.48988 0.0
H927 H 0.77578 0.80728 0.44851 0.0
H928 H 0.79264 0.7803 0.47003 0.0
H929 H 0.68044 0.69536 0.47494 0.0
H930 H 0.66295 0.72262 0.45351 0.0
H931 H 0.7406 0.6742 0.475 0.0
H932 H 0.69846 0.74661 0.50197 0.0
H933 H 0.69372 0.80143 0.50677 0.0
H934 H 0.80994 0.86524 0.51277 0.0
H935 H 0.81522 0.81042 0.50815 0.0
C936 C 0.77697 0.63842 0.54583 0.0
C937 C 0.8113 0.66162 0.55258 0.0
C938 C 0.76514 0.64969 0.53273 0.0
C939 C 0.78754 0.68424 0.52609 0.0
C940 C 0.82186 0.70743 0.5328 0.0
C941 C 0.83369 0.69619 0.54591 0.0
C942 C 0.77469 0.69674 0.51247 0.0
C943 C 0.77341 0.72907 0.51407 0.0
C944 C 0.76248 0.67648 0.49826 0.0
C945 C 0.76474 0.64302 0.49559 0.0
C946 C 0.79815 0.6437 0.49726 0.0
C947 C 0.80001 0.61199 0.49487 0.0
C948 C 0.7687 0.57948 0.49068 0.0
C949 C 0.73547 0.57864 0.48884 0.0
C950 C 0.73344 0.61027 0.49124 0.0
C951 C 0.75465 0.78265 0.45403 0.0
C952 C 0.71798 0.76712 0.44931 0.0
C953 C 0.76436 0.76735 0.46634 0.0
C954 C 0.73775 0.73596 0.47402 0.0
C955 C 0.7013 0.71959 0.46908 0.0
C956 C 0.6914 0.73527 0.4569 0.0
C957 C 0.74822 0.72155 0.48769 0.0
C958 C 0.74913 0.68907 0.48606 0.0
C959 C 0.76003 0.7415 0.5019 0.0
C960 C 0.75726 0.7746 0.50455 0.0
C961 C 0.72302 0.77241 0.50418 0.0
C962 C 0.72024 0.80347 0.50691 0.0
C963 C 0.75156 0.83696 0.50994 0.0
C964 C 0.78571 0.83933 0.51037 0.0
C965 C 0.7886 0.80823 0.50777 0.0
H966 H 0.74934 0.86101 0.51202 0.0
H967 H 0.7702 0.55496 0.48883 0.0
H968 H 0.1353 0.76161 0.72105 0.0
H969 H 0.09251 0.73623 0.69896 0.0
H970 H 0.08469 0.83397 0.69719 0.0
H971 H 0.12794 0.85975 0.71902 0.0
H972 H 0.02389 0.71917 0.69452 0.0
H973 H 0.07734 0.8544 0.65943 0.0
H974 H 0.13519 0.91195 0.65528 0.0
H975 H 0.19569 0.85848 0.66689 0.0
H976 H 0.13825 0.80054 0.67088 0.0
H977 H 0.8937 0.69518 0.63684 0.0
H978 H 0.93733 0.71573 0.65863 0.0
H979 H 0.02447 0.73982 0.62564 0.0
H980 H 0.98094 0.722 0.60373 0.0
H981 H 0.04873 0.79041 0.64507 0.0
H982 H 0.9833 0.66067 0.65226 0.0
H983 H 0.92854 0.59992 0.65516 0.0
H984 H 0.89834 0.63563 0.69705 0.0
H985 H 0.95273 0.6967 0.69431 0.0
C986 C 0.12435 0.77762 0.71598 0.0
C987 C 0.13517 0.81277 0.72167 0.0
C988 C 0.09985 0.76305 0.70339 0.0
C989 C 0.08581 0.7834 0.69628 0.0
C990 C 0.09572 0.81806 0.7023 0.0
C991 C 0.12033 0.83269 0.71482 0.0
C992 C 0.06123 0.76871 0.68242 0.0
C993 C 0.02932 0.73465 0.68368 0.0
C994 C 0.06875 0.78853 0.66815 0.0
C995 C 0.10346 0.82322 0.66561 0.0
C996 C 0.10299 0.8549 0.66104 0.0
C997 C 0.13571 0.88759 0.65872 0.0
C998 C 0.16909 0.8889 0.66087 0.0
C999 C 0.16982 0.85748 0.66529 0.0
C1000 C 0.13719 0.82471 0.6676 0.0
C1001 C 0.92219 0.70466 0.63434 0.0
C1002 C 0.93417 0.70678 0.61875 0.0
C1003 C 0.9471 0.71616 0.64678 0.0
C1004 C 0.98423 0.72854 0.6439 0.0
C1005 C 0.99604 0.73033 0.62823 0.0
C1006 C 0.97125 0.71999 0.61573 0.0
C1007 C 0.0109 0.74087 0.65715 0.0
C1008 C 0.04325 0.77465 0.65583 0.0
C1009 C 0.0043 0.72022 0.67117 0.0
C1010 C 0.97198 0.6833 0.67303 0.0
C1011 C 0.96492 0.65558 0.66206 0.0
C1012 C 0.93395 0.6211 0.66368 0.0
C1013 C 0.90996 0.61394 0.67627 0.0
C1014 C 0.91695 0.64121 0.68731 0.0
C1015 C 0.94788 0.67574 0.68575 0.0
H1016 H 0.88596 0.58724 0.67749 0.0
H1017 H 0.19438 0.91424 0.65908 0.0
H1018 H 0.36187 0.12283 0.88999 0.0
H1019 H 0.34683 0.08594 0.86597 0.0
H1020 H 0.2716 0.12201 0.85239 0.0
H1021 H 0.28505 0.15712 0.87677 0.0
H1022 H 0.24209 0.0554 0.84602 0.0
H1023 H 0.36092 0.15635 0.83557 0.0
H1024 H 0.42619 0.19921 0.84045 0.0
H1025 H 0.44821 0.11061 0.83913 0.0
H1026 H 0.38295 0.06713 0.83445 0.0
H1027 H 0.21562 0.99311 0.76836 0.0
H1028 H 0.24336 0.03941 0.78893 0.0
H1029 H 0.29694 0.98397 0.808 0.0
H1030 H 0.26978 0.9377 0.78736 0.0
H1031 H 0.33872 0.0616 0.81074 0.0
H1032 H 0.21557 0.96172 0.82007 0.0
H1033 H 0.15167 0.92425 0.81156 0.0
H1034 H 0.13799 0.01811 0.81341 0.0
H1035 H 0.20251 0.05661 0.82109 0.0
C1036 C 0.34199 0.12266 0.88189 0.0
C1037 C 0.32464 0.14281 0.8852 0.0
C1038 C 0.33364 0.10185 0.86809 0.0
C1039 C 0.30862 0.10173 0.85714 0.0
C1040 C 0.29101 0.12161 0.8606 0.0
C1041 C 0.29873 0.14171 0.87454 0.0
C1042 C 0.30012 0.08043 0.84223 0.0
C1043 C 0.26334 0.05729 0.83824 0.0
C1044 C 0.32771 0.08238 0.83206 0.0
C1045 C 0.36699 0.10845 0.83481 0.0
C1046 C 0.37964 0.14598 0.83643 0.0
C1047 C 0.41664 0.17038 0.83914 0.0
C1048 C 0.44132 0.15763 0.84014 0.0
C1049 C 0.42905 0.12044 0.83838 0.0
C1050 C 0.39207 0.09591 0.83568 0.0
C1051 C 0.23395 0.99112 0.77669 0.0
C1052 C 0.23979 0.96117 0.7764 0.0
C1053 C 0.24987 0.01771 0.78842 0.0
C1054 C 0.27157 0.01465 0.80015 0.0
C1055 C 0.28012 0.9867 0.79908 0.0
C1056 C 0.26436 0.96015 0.7873 0.0
C1057 C 0.28095 0.0372 0.81463 0.0
C1058 C 0.31771 0.06016 0.81855 0.0
C1059 C 0.2534 0.03578 0.82459 0.0
C1060 C 0.21402 0.01214 0.82098 0.0
C1061 C 0.19902 0.97444 0.81857 0.0
C1062 C 0.16271 0.95304 0.81383 0.0
C1063 C 0.14072 0.96876 0.81198 0.0
C1064 C 0.15506 0.00597 0.81484 0.0
C1065 C 0.19157 0.02764 0.8193 0.0
H1066 H 0.1126 0.95216 0.80831 0.0
H1067 H 0.46995 0.17657 0.84224 0.0
H1068 H 0.6249 0.7658 0.77749 0.0
H1069 H 0.64458 0.74385 0.80001 0.0
H1070 H 0.74431 0.84757 0.80279 0.0
H1071 H 0.725 0.86952 0.78012 0.0
H1072 H 0.75759 0.79238 0.80605 0.0
H1073 H 0.67495 0.82627 0.82852 0.0
H1074 H 0.6171 0.82663 0.83118 0.0
H1075 H 0.56002 0.71135 0.84009 0.0
H1076 H 0.6175 0.71021 0.83726 0.0
H1077 H 0.81336 0.77882 0.88288 0.0
H1078 H 0.78899 0.79796 0.86117 0.0
H1079 H 0.70016 0.68771 0.85579 0.0
H1080 H 0.72451 0.66798 0.8775 0.0
H1081 H 0.6802 0.74426 0.8539 0.0
H1082 H 0.76492 0.71195 0.83174 0.0
H1083 H 0.8239 0.71367 0.82974 0.0
H1084 H 0.87825 0.82887 0.82082 0.0
H1085 H 0.81963 0.82795 0.82303 0.0
C1086 C 0.65105 0.7839 0.78288 0.0
C1087 C 0.67336 0.81943 0.77709 0.0
C1088 C 0.66218 0.77138 0.79579 0.0
C1089 C 0.6957 0.79424 0.80321 0.0
C1090 C 0.7183 0.82951 0.79727 0.0
C1091 C 0.70721 0.84204 0.78434 0.0
C1092 C 0.70726 0.78137 0.81715 0.0
C1093 C 0.74084 0.78227 0.81657 0.0
C1094 C 0.68507 0.7675 0.83077 0.0
C1095 C 0.65047 0.76809 0.83251 0.0
C1096 C 0.65002 0.80094 0.83092 0.0
C1097 C 0.6173 0.8013 0.83248 0.0
C1098 C 0.58489 0.76902 0.83576 0.0
C1099 C 0.58515 0.73633 0.83753 0.0
C1100 C 0.61779 0.73581 0.83596 0.0
C1101 C 0.78836 0.75861 0.87726 0.0
C1102 C 0.77101 0.72177 0.88189 0.0
C1103 C 0.77458 0.76964 0.86481 0.0
C1104 C 0.74304 0.74416 0.85682 0.0
C1105 C 0.72461 0.70771 0.86182 0.0
C1106 C 0.73863 0.69651 0.87419 0.0
C1107 C 0.73048 0.75548 0.84276 0.0
C1108 C 0.69679 0.75427 0.84333 0.0
C1109 C 0.75267 0.76934 0.82917 0.0
C1110 C 0.78793 0.76994 0.82772 0.0
C1111 C 0.78949 0.73771 0.82949 0.0
C1112 C 0.82285 0.73853 0.8283 0.0
C1113 C 0.85482 0.77137 0.8252 0.0
C1114 C 0.85347 0.80346 0.82324 0.0
C1115 C 0.82018 0.8028 0.82446 0.0
H1116 H 0.88062 0.77195 0.82427 0.0
H1117 H 0.55959 0.76935 0.83697 0.0
H1118 H 0.87465 0.63543 0.93752 0.0
H1119 H 0.91491 0.65279 0.96054 0.0
H1120 H 0.86618 0.71384 0.97893 0.0
H1121 H 0.82811 0.69875 0.95538 0.0
H1122 H 0.93302 0.75157 0.98313 0.0
H1123 H 0.84862 0.62455 0.99343 0.0
H1124 H 0.8153 0.55872 0.98739 0.0
H1125 H 0.91674 0.55933 0.98312 0.0
H1126 H 0.95068 0.62525 0.98895 0.0
H1127 H 0.00934 0.78199 0.05897 0.0
H1128 H 0.96336 0.75512 0.03822 0.0
H1129 H 0.02375 0.70933 0.01653 0.0
H1130 H 0.06946 0.73534 0.03742 0.0
H1131 H 0.95081 0.66283 0.01454 0.0
H1132 H 0.03408 0.79085 0.00394 0.0
H1133 H 0.0662 0.85642 0.0105 0.0
H1134 H 0.96351 0.85268 0.01616 0.0
H1135 H 0.93079 0.78698 0.00983 0.0
C1136 C 0.87264 0.65249 0.94654 0.0
C1137 C 0.84841 0.66579 0.94477 0.0
C1138 C 0.89539 0.66216 0.95976 0.0
C1139 C 0.89318 0.68407 0.97172 0.0
C1140 C 0.86856 0.69698 0.96992 0.0
C1141 C 0.84674 0.68831 0.95649 0.0
C1142 C 0.91738 0.69492 0.98582 0.0
C1143 C 0.93627 0.73192 0.99012 0.0
C1144 C 0.92259 0.66962 0.9948 0.0
C1145 C 0.90218 0.62989 0.9915 0.0
C1146 C 0.86381 0.61067 0.99113 0.0
C1147 C 0.84482 0.57334 0.98775 0.0
C1148 C 0.86389 0.55487 0.98484 0.0
C1149 C 0.902 0.57367 0.98536 0.0
C1150 C 0.92113 0.611 0.98872 0.0
C1151 C 0.01265 0.76582 0.04991 0.0
C1152 C 0.0434 0.76127 0.04976 0.0
C1153 C 0.98636 0.75054 0.03804 0.0
C1154 C 0.99057 0.73091 0.02565 0.0
C1155 C 0.02007 0.72455 0.02594 0.0
C1156 C 0.04623 0.73953 0.03789 0.0
C1157 C 0.96567 0.71915 0.01186 0.0
C1158 C 0.94702 0.68219 0.00758 0.0
C1159 C 0.96029 0.74435 0.00297 0.0
C1160 C 0.98001 0.78397 0.00654 0.0
C1161 C 0.01837 0.80399 0.00666 0.0
C1162 C 0.03668 0.84117 0.01033 0.0
C1163 C 0.01691 0.85868 0.01378 0.0
C1164 C 0.97879 0.83907 0.0135 0.0
C1165 C 0.96035 0.80188 0.00986 0.0
H1166 H 0.03113 0.88746 0.01663 0.0
H1167 H 0.84914 0.52599 0.98221 0.0
H1168 H 0.12646 0.83938 0.11824 0.0
H1169 H 0.14875 0.87859 0.14147 0.0
H1170 H 0.25933 0.90794 0.12951 0.0
H1171 H 0.23678 0.86711 0.10663 0.0
H1172 H 0.25111 0.89844 0.15961 0.0
H1173 H 0.22296 0.96594 0.12261 0.0
H1174 H 0.18513 0.97649 0.10359 0.0
H1175 H 0.10682 0.95728 0.13995 0.0
H1176 H 0.14393 0.9461 0.15916 0.0
H1177 H 0.33153 0.05851 0.20885 0.0
H1178 H 0.31229 0.01426 0.18733 0.0
H1179 H 0.19984 0.97045 0.20101 0.0
H1180 H 0.21862 0.01459 0.22248 0.0
H1181 H 0.21134 0.98872 0.16981 0.0
H1182 H 0.24255 0.92193 0.2068 0.0
H1183 H 0.28318 0.91397 0.22519 0.0
H1184 H 0.35999 0.93629 0.18776 0.0
H1185 H 0.32002 0.94487 0.16919 0.0
C1186 C 0.15553 0.85426 0.12055 0.0
C1187 C 0.17995 0.85043 0.11061 0.0
C1188 C 0.16829 0.87682 0.1338 0.0
C1189 C 0.20583 0.89687 0.1371 0.0
C1190 C 0.23026 0.89284 0.12721 0.0
C1191 C 0.2174 0.86964 0.11411 0.0
C1192 C 0.21945 0.92186 0.1509 0.0
C1193 C 0.24281 0.91854 0.1617 0.0
C1194 C 0.20833 0.94784 0.15379 0.0
C1195 C 0.1861 0.95489 0.1423 0.0
C1196 C 0.19757 0.96375 0.12653 0.0
C1197 C 0.17626 0.96986 0.11572 0.0
C1198 C 0.14356 0.96749 0.12055 0.0
C1199 C 0.13214 0.95909 0.13622 0.0
C1200 C 0.15332 0.95289 0.14708 0.0
C1201 C 0.30273 0.0391 0.20747 0.0
C1202 C 0.27662 0.04037 0.21737 0.0
C1203 C 0.2918 0.01375 0.19517 0.0
C1204 C 0.25464 0.98912 0.19257 0.0
C1205 C 0.22866 0.98933 0.20279 0.0
C1206 C 0.23951 0.01456 0.2151 0.0
C1207 C 0.24253 0.96494 0.17855 0.0
C1208 C 0.21959 0.96859 0.16768 0.0
C1209 C 0.25452 0.93976 0.1755 0.0
C1210 C 0.27845 0.93439 0.18664 0.0
C1211 C 0.26824 0.92543 0.20252 0.0
C1212 C 0.29112 0.92075 0.21297 0.0
C1213 C 0.32419 0.92472 0.20766 0.0
C1214 C 0.33439 0.93327 0.19187 0.0
C1215 C 0.31161 0.93801 0.18137 0.0
H1216 H 0.34188 0.9211 0.21577 0.0
H1217 H 0.1271 0.97222 0.11216 0.0
H1218 H 0.36696 0.23711 0.27195 0.0
H1219 H 0.34874 0.26201 0.29398 0.0
H1220 H 0.26792 0.15284 0.3079 0.0
H1221 H 0.2848 0.12816 0.28548 0.0
H1222 H 0.23939 0.19317 0.30985 0.0
H1223 H 0.35402 0.20702 0.32746 0.0
H1224 H 0.4198 0.22808 0.32562 0.0
H1225 H 0.4439 0.33933 0.32387 0.0
H1226 H 0.3782 0.31889 0.32551 0.0
H1227 H 0.20105 0.22478 0.3868 0.0
H1228 H 0.22662 0.20651 0.36524 0.0
H1229 H 0.2901 0.31848 0.35019 0.0
H1230 H 0.26486 0.33729 0.37184 0.0
H1231 H 0.32855 0.28057 0.34836 0.0
H1232 H 0.21268 0.26501 0.33182 0.0
H1233 H 0.14673 0.24255 0.33433 0.0
H1234 H 0.12508 0.13205 0.33487 0.0
H1235 H 0.19097 0.15388 0.33257 0.0
C1236 C 0.34533 0.21852 0.27974 0.0
C1237 C 0.32731 0.18074 0.27705 0.0
C1238 C 0.33508 0.23273 0.29239 0.0
C1239 C 0.30732 0.2093 0.3028 0.0
C1240 C 0.28937 0.17153 0.30005 0.0
C1241 C 0.29908 0.15742 0.28725 0.0
C1242 C 0.2962 0.22382 0.31638 0.0
C1243 C 0.25894 0.21191 0.31836 0.0
C1244 C 0.32168 0.24908 0.32731 0.0
C1245 C 0.36118 0.2614 0.32645 0.0
C1246 C 0.37334 0.23596 0.32658 0.0
C1247 C 0.4106 0.24779 0.32559 0.0
C1248 C 0.436 0.28501 0.32459 0.0
C1249 C 0.42419 0.3105 0.32463 0.0
C1250 C 0.38695 0.29881 0.3256 0.0
C1251 C 0.22075 0.2457 0.37906 0.0
C1252 C 0.23053 0.28252 0.38099 0.0
C1253 C 0.23527 0.23514 0.3667 0.0
C1254 C 0.25975 0.26107 0.35598 0.0
C1255 C 0.27109 0.29804 0.35831 0.0
C1256 C 0.25654 0.30869 0.37068 0.0
C1257 C 0.27187 0.24921 0.3419 0.0
C1258 C 0.30918 0.26181 0.33981 0.0
C1259 C 0.24646 0.22428 0.33092 0.0
C1260 C 0.20679 0.2111 0.33215 0.0
C1261 C 0.19388 0.23593 0.33258 0.0
C1262 C 0.1565 0.22331 0.33395 0.0
C1263 C 0.13174 0.1859 0.33479 0.0
C1264 C 0.14429 0.16102 0.33423 0.0
C1265 C 0.18164 0.1735 0.33287 0.0
H1266 H 0.10281 0.17619 0.33585 0.0
H1267 H 0.46484 0.29411 0.32381 0.0
H1268 H 0.13669 0.37635 0.44252 0.0
H1269 H 0.09736 0.35905 0.46581 0.0
H1270 H 0.11143 0.2658 0.47276 0.0
H1271 H 0.14968 0.28228 0.44917 0.0
H1272 H 0.04362 0.24641 0.47719 0.0
H1273 H 0.15731 0.34574 0.49547 0.0
H1274 H 0.21051 0.40799 0.49521 0.0
H1275 H 0.13974 0.45274 0.50078 0.0
H1276 H 0.08606 0.39073 0.50086 0.0
H1277 H 0.98198 0.20267 0.5549 0.0
H1278 H 0.02707 0.22994 0.53389 0.0
H1279 H 0.98685 0.30284 0.52267 0.0
H1280 H 0.9412 0.27557 0.54367 0.0
H1281 H 0.06708 0.33412 0.52068 0.0
H1282 H 0.9533 0.23184 0.50349 0.0
H1283 H 0.90259 0.1688 0.50624 0.0
H1284 H 0.97656 0.12831 0.49928 0.0
H1285 H 0.02813 0.19134 0.49726 0.0
C1286 C 0.13134 0.35214 0.44901 0.0
C1287 C 0.14632 0.33071 0.44408 0.0
C1288 C 0.10903 0.3424 0.46238 0.0
C1289 C 0.1019 0.31145 0.47121 0.0
C1290 C 0.11658 0.28983 0.46616 0.0
C1291 C 0.13848 0.2993 0.4527 0.0
C1292 C 0.07878 0.30121 0.48559 0.0
C1293 C 0.0491 0.26554 0.48675 0.0
C1294 C 0.08542 0.32631 0.49799 0.0
C1295 C 0.11765 0.36361 0.49801 0.0
C1296 C 0.15308 0.36887 0.49652 0.0
C1297 C 0.18332 0.4041 0.49643 0.0
C1298 C 0.1785 0.43431 0.49793 0.0
C1299 C 0.14343 0.42932 0.49959 0.0
C1300 C 0.11309 0.39414 0.49967 0.0
C1301 C 0.98304 0.22498 0.54821 0.0
C1302 C 0.95751 0.23652 0.55083 0.0
C1303 C 0.00892 0.24055 0.53622 0.0
C1304 C 0.00992 0.26805 0.52667 0.0
C1305 C 0.98639 0.28158 0.52995 0.0
C1306 C 0.96021 0.26579 0.54188 0.0
C1307 C 0.03251 0.27945 0.51221 0.0
C1308 C 0.06181 0.3152 0.51105 0.0
C1309 C 0.02584 0.25436 0.49987 0.0
C1310 C 0.99467 0.21638 0.50041 0.0
C1311 C 0.95885 0.20954 0.5027 0.0
C1312 C 0.92995 0.17379 0.50415 0.0
C1313 C 0.93631 0.14452 0.5029 0.0
C1314 C 0.97167 0.151 0.50025 0.0
C1315 C 0.00079 0.18676 0.49902 0.0
H1316 H 0.91383 0.11684 0.50396 0.0
H1317 H 0.20195 0.46157 0.49786 0.0
H1318 H 0.66448 0.92133 0.70175 0.0
H1319 H 0.68353 0.96442 0.6798 0.0
H1320 H 0.78007 0.03969 0.70552 0.0
H1321 H 0.76159 0.99655 0.72751 0.0
H1322 H 0.74512 0.07303 0.6881 0.0
H1323 H 0.79161 0.99069 0.68164 0.0
H1324 H 0.7876 0.93063 0.68006 0.0
H1325 H 0.71424 0.90151 0.64075 0.0
H1326 H 0.71733 0.96124 0.64228 0.0
H1327 H 0.86144 0.13478 0.61168 0.0
H1328 H 0.83753 0.09537 0.63486 0.0
H1329 H 0.74054 0.1046 0.63337 0.0
H1330 H 0.76438 0.14422 0.61022 0.0
H1331 H 0.7764 0.02991 0.6392 0.0
H1332 H 0.71453 0.10622 0.67184 0.0
H1333 H 0.72384 0.16847 0.6739 0.0
H1334 H 0.83689 0.21347 0.66184 0.0
H1335 H 0.82836 0.15155 0.65992 0.0
C1336 C 0.68939 0.94735 0.70292 0.0
C1337 C 0.7117 0.95538 0.71634 0.0
C1338 C 0.70025 0.97186 0.69033 0.0
C1339 C 0.73331 0.00499 0.69103 0.0
C1340 C 0.75446 0.0142 0.70479 0.0
C1341 C 0.74391 0.98946 0.71731 0.0
C1342 C 0.74735 0.02852 0.67691 0.0
C1343 C 0.75176 0.06361 0.67737 0.0
C1344 C 0.75662 0.01633 0.66305 0.0
C1345 C 0.75438 0.98026 0.66219 0.0
C1346 C 0.77429 0.97133 0.67278 0.0
C1347 C 0.77227 0.93739 0.67186 0.0
C1348 C 0.75067 0.91227 0.66032 0.0
C1349 C 0.73096 0.921 0.64969 0.0
C1350 C 0.73283 0.95489 0.65057 0.0
C1351 C 0.83497 0.12833 0.61626 0.0
C1352 C 0.81483 0.14268 0.60918 0.0
C1353 C 0.82132 0.10575 0.62947 0.0
C1354 C 0.78744 0.09736 0.63592 0.0
C1355 C 0.76696 0.11112 0.6287 0.0
C1356 C 0.78055 0.13362 0.61544 0.0
C1357 C 0.77374 0.07438 0.65025 0.0
C1358 C 0.7694 0.0393 0.64985 0.0
C1359 C 0.76509 0.08684 0.66422 0.0
C1360 C 0.77068 0.12423 0.66557 0.0
C1361 C 0.7414 0.12941 0.66968 0.0
C1362 C 0.74653 0.16464 0.67082 0.0
C1363 C 0.7809 0.1949 0.66795 0.0
C1364 C 0.81025 0.19001 0.664 0.0
C1365 C 0.80526 0.15485 0.66286 0.0
H1366 H 0.78481 0.22214 0.66882 0.0
H1367 H 0.74931 0.88611 0.65958 0.0
loop_
_geom_bond_atom_site_label_1
_geom_bond_atom_site_label_2
_geom_bond_distance
_geom_bond_site_symmetry_2
_ccdc_geom_bond_type
Co0 O1 2.216 . S
Co0 O2 2.091 . S
Co0 O4 2.004 . S
Co0 O10 2.021 . S
Co0 O12 2.137 . S
Co0 O13 2.244 . S
O1 Co0 2.216 . S
O1 C8 1.247 . S
O2 Co0 2.091 . S
O2 C8 1.261 . S
C3 O12 1.247 . S
C3 O13 1.272 . S
O4 Co0 2.004 . S
O4 C9 1.259 . S
Co5 O6 2.061 . S
Co5 O11 2.052 . S
Co5 O13 2.135 . S
O6 Co5 2.061 . S
O6 C9 1.235 . S
C7 O10 1.238 . S
C7 O11 1.241 . S
C8 O1 1.247 . S
C8 O2 1.261 . S
C9 O4 1.259 . S
C9 O6 1.235 . S
O10 Co0 2.021 . S
O10 C7 1.238 . S
O11 Co5 2.052 . S
O11 C7 1.241 . S
O12 Co0 2.137 . S
O12 C3 1.247 . S
O13 Co0 2.244 . S
O13 C3 1.272 . S
O13 Co5 2.135 . S
Co14 O15 2.216 . S
Co14 O16 2.091 . S
Co14 O18 2.004 . S
Co14 O24 2.021 . S
Co14 O26 2.137 . S
Co14 O27 2.244 . S
O15 Co14 2.216 . S
O15 C22 1.247 . S
O16 Co14 2.091 . S
O16 C22 1.261 . S
C17 O26 1.247 . S
C17 O27 1.272 . S
O18 Co14 2.004 . S
O18 C23 1.259 . S
Co19 O20 2.061 . S
Co19 O25 2.052 . S
Co19 O27 2.135 . S
O20 Co19 2.061 . S
O20 C23 1.235 . S
C21 O24 1.238 . S
C21 O25 1.241 . S
C22 O15 1.247 . S
C22 O16 1.261 . S
C23 O18 1.259 . S
C23 O20 1.235 . S
O24 Co14 2.021 . S
O24 C21 1.238 . S
O25 Co19 2.052 . S
O25 C21 1.241 . S
O26 Co14 2.137 . S
O26 C17 1.247 . S
O27 Co14 2.244 . S
O27 C17 1.272 . S
O27 Co19 2.135 . S
Co28 O29 2.216 . S
Co28 O30 2.091 . S
Co28 O32 2.004 . S
Co28 O38 2.021 . S
Co28 O40 2.137 . S
Co28 O41 2.244 . S
O29 Co28 2.216 . S
O29 C36 1.247 . S
O30 Co28 2.091 . S
O30 C36 1.261 . S
C31 O40 1.247 . S
C31 O41 1.272 . S
O32 Co28 2.004 . S
O32 C37 1.259 . S
Co33 O34 2.061 . S
Co33 O39 2.052 . S
Co33 O41 2.135 . S
O34 Co33 2.061 . S
O34 C37 1.235 . S
C35 O38 1.238 . S
C35 O39 1.241 . S
C36 O29 1.247 . S
C36 O30 1.261 . S
C37 O32 1.259 . S
C37 O34 1.235 . S
O38 Co28 2.021 . S
O38 C35 1.238 . S
O39 Co33 2.052 . S
O39 C35 1.241 . S
O40 Co28 2.137 . S
O40 C31 1.247 . S
O41 Co28 2.244 . S
O41 C31 1.272 . S
O41 Co33 2.135 . S
Co42 O43 2.216 . S
Co42 O44 2.091 . S
Co42 O46 2.004 . S
Co42 O52 2.021 . S
Co42 O54 2.137 . S
Co42 O55 2.244 . S
O43 Co42 2.216 . S
O43 C50 1.247 . S
O44 Co42 2.091 . S
O44 C50 1.261 . S
C45 O54 1.247 . S
C45 O55 1.272 . S
O46 Co42 2.004 . S
O46 C51 1.259 . S
Co47 O48 2.061 . S
Co47 O53 2.052 . S
Co47 O55 2.135 . S
O48 Co47 2.061 . S
O48 C51 1.235 . S
C49 O52 1.238 . S
C49 O53 1.241 . S
C50 O43 1.247 . S
C50 O44 1.261 . S
C51 O46 1.259 . S
C51 O48 1.235 . S
O52 Co42 2.021 . S
O52 C49 1.238 . S
O53 Co47 2.052 . S
O53 C49 1.241 . S
O54 Co42 2.137 . S
O54 C45 1.247 . S
O55 Co42 2.244 . S
O55 C45 1.272 . S
O55 Co47 2.135 . S
Co56 O57 2.216 . S
Co56 O58 2.091 . S
Co56 O60 2.004 . S
Co56 O66 2.021 . S
Co56 O68 2.137 . S
Co56 O69 2.244 . S
O57 Co56 2.216 . S
O57 C64 1.247 . S
O58 Co56 2.091 . S
O58 C64 1.261 . S
C59 O68 1.247 . S
C59 O69 1.272 . S
O60 Co56 2.004 . S
O60 C65 1.259 . S
Co61 O62 2.061 . S
Co61 O67 2.052 . S
Co61 O69 2.135 . S
O62 Co61 2.061 . S
O62 C65 1.235 . S
C63 O66 1.238 . S
C63 O67 1.241 . S
C64 O57 1.247 . S
C64 O58 1.261 . S
C65 O60 1.259 . S
C65 O62 1.235 . S
O66 Co56 2.021 . S
O66 C63 1.238 . S
O67 Co61 2.052 . S
O67 C63 1.241 . S
O68 Co56 2.137 . S
O68 C59 1.247 . S
O69 Co56 2.244 . S
O69 C59 1.272 . S
O69 Co61 2.135 . S
Co70 O71 2.216 . S
Co70 O72 2.091 . S
Co70 O74 2.004 . S
Co70 O80 2.021 . S
Co70 O82 2.137 . S
Co70 O83 2.244 . S
O71 Co70 2.216 . S
O71 C78 1.247 . S
O72 Co70 2.091 . S
O72 C78 1.261 . S
C73 O82 1.247 . S
C73 O83 1.272 . S
O74 Co70 2.004 . S
O74 C79 1.259 . S
Co75 O76 2.061 . S
Co75 O81 2.052 . S
Co75 O83 2.135 . S
O76 Co75 2.061 . S
O76 C79 1.235 . S
C77 O80 1.238 . S
C77 O81 1.241 . S
C78 O71 1.247 . S
C78 O72 1.261 . S
C79 O74 1.259 . S
C79 O76 1.235 . S
O80 Co70 2.021 . S
O80 C77 1.238 . S
O81 Co75 2.052 . S
O81 C77 1.241 . S
O82 Co70 2.137 . S
O82 C73 1.247 . S
O83 Co70 2.244 . S
O83 C73 1.272 . S
O83 Co75 2.135 . S
Co84 O85 2.216 . S
Co84 O86 2.091 . S
Co84 O88 2.004 . S
Co84 O94 2.021 . S
Co84 O96 2.137 . S
Co84 O97 2.244 . S
O85 Co84 2.216 . S
O85 C92 1.247 . S
O86 Co84 2.091 . S
O86 C92 1.261 . S
C87 O96 1.247 . S
C87 O97 1.272 . S
O88 Co84 2.004 . S
O88 C93 1.259 . S
Co89 O90 2.061 . S
Co89 O95 2.052 . S
Co89 O97 2.135 . S
O90 Co89 2.061 . S
O90 C93 1.235 . S
C91 O94 1.238 . S
C91 O95 1.241 . S
C92 O85 1.247 . S
C92 O86 1.261 . S
C93 O88 1.259 . S
C93 O90 1.235 . S
O94 Co84 2.021 . S
O94 C91 1.238 . S
O95 Co89 2.052 . S
O95 C91 1.241 . S
O96 Co84 2.137 . S
O96 C87 1.247 . S
O97 Co84 2.244 . S
O97 C87 1.272 . S
O97 Co89 2.135 . S
Co98 O99 2.216 . S
Co98 O100 2.091 . S
Co98 O102 2.004 . S
Co98 O108 2.021 . S
Co98 O110 2.137 . S
Co98 O111 2.244 . S
O99 Co98 2.216 . S
O99 C106 1.247 . S
O100 Co98 2.091 . S
O100 C106 1.261 . S
C101 O110 1.247 . S
C101 O111 1.272 . S
O102 Co98 2.004 . S
O102 C107 1.259 . S
Co103 O104 2.061 . S
Co103 O109 2.052 . S
Co103 O111 2.135 . S
O104 Co103 2.061 . S
O104 C107 1.235 . S
C105 O108 1.238 . S
C105 O109 1.241 . S
C106 O99 1.247 . S
C106 O100 1.261 . S
C107 O102 1.259 . S
C107 O104 1.235 . S
O108 Co98 2.021 . S
O108 C105 1.238 . S
O109 Co103 2.052 . S
O109 C105 1.241 . S
O110 Co98 2.137 . S
O110 C101 1.247 . S
O111 Co98 2.244 . S
O111 C101 1.272 . S
O111 Co103 2.135 . S
Co112 O113 2.216 . S
Co112 O114 2.091 . S
Co112 O116 2.004 . S
Co112 O122 2.021 . S
Co112 O124 2.137 . S
Co112 O125 2.244 . S
O113 Co112 2.216 . S
O113 C120 1.247 . S
O114 Co112 2.091 . S
O114 C120 1.261 . S
C115 O124 1.247 . S
C115 O125 1.272 . S
O116 Co112 2.004 . S
O116 C121 1.259 . S
Co117 O118 2.061 . S
Co117 O123 2.052 . S
Co117 O125 2.135 . S
O118 Co117 2.061 . S
O118 C121 1.235 . S
C119 O122 1.238 . S
C119 O123 1.241 . S
C120 O113 1.247 . S
C120 O114 1.261 . S
C121 O116 1.259 . S
C121 O118 1.235 . S
O122 Co112 2.021 . S
O122 C119 1.238 . S
O123 Co117 2.052 . S
O123 C119 1.241 . S
O124 Co112 2.137 . S
O124 C115 1.247 . S
O125 Co112 2.244 . S
O125 C115 1.272 . S
O125 Co117 2.135 . S
Co126 O127 2.216 . S
Co126 O128 2.091 . S
Co126 O130 2.004 . S
Co126 O136 2.021 . S
Co126 O138 2.137 . S
Co126 O139 2.244 . S
O127 Co126 2.216 . S
O127 C134 1.247 . S
O128 Co126 2.091 . S
O128 C134 1.261 . S
C129 O138 1.247 . S
C129 O139 1.272 . S
O130 Co126 2.004 . S
O130 C135 1.259 . S
Co131 O132 2.061 . S
Co131 O137 2.052 . S
Co131 O139 2.135 . S
O132 Co131 2.061 . S
O132 C135 1.235 . S
C133 O136 1.238 . S
C133 O137 1.241 . S
C134 O127 1.247 . S
C134 O128 1.261 . S
C135 O130 1.259 . S
C135 O132 1.235 . S
O136 Co126 2.021 . S
O136 C133 1.238 . S
O137 Co131 2.052 . S
O137 C133 1.241 . S
O138 Co126 2.137 . S
O138 C129 1.247 . S
O139 Co126 2.244 . S
O139 C129 1.272 . S
O139 Co131 2.135 . S
Co140 O141 2.216 . S
Co140 O142 2.091 . S
Co140 O144 2.004 . S
Co140 O150 2.021 . S
Co140 O152 2.137 . S
Co140 O153 2.244 . S
O141 Co140 2.216 . S
O141 C148 1.247 . S
O142 Co140 2.091 . S
O142 C148 1.261 . S
C143 O152 1.247 . S
C143 O153 1.272 . S
O144 Co140 2.004 . S
O144 C149 1.259 . S
Co145 O146 2.061 . S
Co145 O151 2.052 . S
Co145 O153 2.135 . S
O146 Co145 2.061 . S
O146 C149 1.235 . S
C147 O150 1.238 . S
C147 O151 1.241 . S
C148 O141 1.247 . S
C148 O142 1.261 . S
C149 O144 1.259 . S
C149 O146 1.235 . S
O150 Co140 2.021 . S
O150 C147 1.238 . S
O151 Co145 2.052 . S
O151 C147 1.241 . S
O152 Co140 2.137 . S
O152 C143 1.247 . S
O153 Co140 2.244 . S
O153 C143 1.272 . S
O153 Co145 2.135 . S
Co154 O155 2.216 . S
Co154 O156 2.091 . S
Co154 O158 2.004 . S
Co154 O164 2.021 . S
Co154 O166 2.137 . S
Co154 O167 2.244 . S
O155 Co154 2.216 . S
O155 C162 1.247 . S
O156 Co154 2.091 . S
O156 C162 1.261 . S
C157 O166 1.247 . S
C157 O167 1.272 . S
O158 Co154 2.004 . S
O158 C163 1.259 . S
Co159 O160 2.061 . S
Co159 O165 2.052 . S
Co159 O167 2.135 . S
O160 Co159 2.061 . S
O160 C163 1.235 . S
C161 O164 1.238 . S
C161 O165 1.241 . S
C162 O155 1.247 . S
C162 O156 1.261 . S
C163 O158 1.259 . S
C163 O160 1.235 . S
O164 Co154 2.021 . S
O164 C161 1.238 . S
O165 Co159 2.052 . S
O165 C161 1.241 . S
O166 Co154 2.137 . S
O166 C157 1.247 . S
O167 Co154 2.244 . S
O167 C157 1.272 . S
O167 Co159 2.135 . S
H168 C186 0.951 . S
H169 C188 0.951 . S
H170 C190 0.950 . S
H171 C191 0.950 . S
H172 C193 0.950 . S
H173 C196 0.950 . S
H174 C197 0.950 . S
H175 C199 0.950 . S
H176 C200 0.950 . S
H177 C201 0.951 . S
H178 C203 0.951 . S
H179 C205 0.950 . S
H180 C206 0.950 . S
H181 C208 0.950 . S
H182 C211 0.950 . S
H183 C212 0.950 . S
H184 C214 0.950 . S
H185 C215 0.950 . S
C186 H168 0.951 . S
C186 C187 1.366 . S
C186 C188 1.388 . S
C187 C186 1.366 . S
C187 C191 1.385 . S
C188 H169 0.951 . S
C188 C186 1.388 . S
C188 C189 1.366 . S
C189 C188 1.366 . S
C189 C190 1.414 . S
C189 C192 1.499 . S
C190 H170 0.950 . S
C190 C189 1.414 . S
C190 C191 1.374 . S
C191 H171 0.950 . S
C191 C187 1.385 . S
C191 C190 1.374 . S
C192 C189 1.499 . S
C192 C193 1.373 . S
C192 C194 1.389 . S
C193 H172 0.950 . S
C193 C192 1.373 . S
C193 C209 1.377 . S
C194 C192 1.389 . S
C194 C195 1.524 . S
C194 C208 1.377 . S
C195 C194 1.524 . S
C195 C196 1.397 . S
C195 C200 1.363 . S
C196 H173 0.950 . S
C196 C195 1.397 . S
C196 C197 1.334 . S
C197 H174 0.950 . S
C197 C196 1.334 . S
C197 C198 1.287 . S
C198 C197 1.287 . S
C198 C199 1.524 . S
C198 H217 0.913 . S
C199 H175 0.950 . S
C199 C198 1.524 . S
C199 C200 1.415 . S
C200 H176 0.950 . S
C200 C195 1.363 . S
C200 C199 1.415 . S
C201 H177 0.951 . S
C201 C202 1.366 . S
C201 C203 1.388 . S
C202 C201 1.366 . S
C202 C206 1.385 . S
C203 H178 0.951 . S
C203 C201 1.388 . S
C203 C204 1.366 . S
C204 C203 1.366 . S
C204 C205 1.414 . S
C204 C207 1.499 . S
C205 H179 0.950 . S
C205 C204 1.414 . S
C205 C206 1.374 . S
C206 H180 0.950 . S
C206 C202 1.385 . S
C206 C205 1.374 . S
C207 C204 1.499 . S
C207 C208 1.373 . S
C207 C209 1.389 . S
C208 H181 0.950 . S
C208 C194 1.377 . S
C208 C207 1.373 . S
C209 C193 1.377 . S
C209 C207 1.389 . S
C209 C210 1.524 . S
C210 C209 1.524 . S
C210 C211 1.397 . S
C210 C215 1.363 . S
C211 H182 0.950 . S
C211 C210 1.397 . S
C211 C212 1.334 . S
C212 H183 0.950 . S
C212 C211 1.334 . S
C212 C213 1.287 . S
C213 C212 1.287 . S
C213 C214 1.524 . S
C213 H216 0.999 . S
C214 H184 0.950 . S
C214 C213 1.524 . S
C214 C215 1.415 . S
C215 H185 0.950 . S
C215 C210 1.363 . S
C215 C214 1.415 . S
H216 C213 0.999 . S
H217 C198 0.913 . S
H218 C236 0.951 . S
H219 C238 0.951 . S
H220 C240 0.950 . S
H221 C241 0.950 . S
H222 C243 0.950 . S
H223 C246 0.950 . S
H224 C247 0.950 . S
H225 C249 0.950 . S
H226 C250 0.950 . S
H227 C251 0.951 . S
H228 C253 0.951 . S
H229 C255 0.950 . S
H230 C256 0.950 . S
H231 C258 0.950 . S
H232 C261 0.950 . S
H233 C262 0.950 . S
H234 C264 0.950 . S
H235 C265 0.950 . S
C236 H218 0.951 . S
C236 C237 1.366 . S
C236 C238 1.388 . S
C237 C236 1.366 . S
C237 C241 1.385 . S
C238 H219 0.951 . S
C238 C236 1.388 . S
C238 C239 1.366 . S
C239 C238 1.366 . S
C239 C240 1.414 . S
C239 C242 1.499 . S
C240 H220 0.950 . S
C240 C239 1.414 . S
C240 C241 1.374 . S
C241 H221 0.950 . S
C241 C237 1.385 . S
C241 C240 1.374 . S
C242 C239 1.499 . S
C242 C243 1.373 . S
C242 C244 1.389 . S
C243 H222 0.950 . S
C243 C242 1.373 . S
C243 C259 1.377 . S
C244 C242 1.389 . S
C244 C245 1.524 . S
C244 C258 1.377 . S
C245 C244 1.524 . S
C245 C246 1.397 . S
C245 C250 1.363 . S
C246 H223 0.950 . S
C246 C245 1.397 . S
C246 C247 1.334 . S
C247 H224 0.950 . S
C247 C246 1.334 . S
C247 C248 1.287 . S
C248 C247 1.287 . S
C248 C249 1.524 . S
C248 H267 0.913 . S
C249 H225 0.950 . S
C249 C248 1.524 . S
C249 C250 1.415 . S
C250 H226 0.950 . S
C250 C245 1.363 . S
C250 C249 1.415 . S
C251 H227 0.951 . S
C251 C252 1.366 . S
C251 C253 1.388 . S
C252 C251 1.366 . S
C252 C256 1.385 . S
C253 H228 0.951 . S
C253 C251 1.388 . S
C253 C254 1.366 . S
C254 C253 1.366 . S
C254 C255 1.414 . S
C254 C257 1.499 . S
C255 H229 0.950 . S
C255 C254 1.414 . S
C255 C256 1.374 . S
C256 H230 0.950 . S
C256 C252 1.385 . S
C256 C255 1.374 . S
C257 C254 1.499 . S
C257 C258 1.373 . S
C257 C259 1.389 . S
C258 H231 0.950 . S
C258 C244 1.377 . S
C258 C257 1.373 . S
C259 C243 1.377 . S
C259 C257 1.389 . S
C259 C260 1.524 . S
C260 C259 1.524 . S
C260 C261 1.397 . S
C260 C265 1.363 . S
C261 H232 0.950 . S
C261 C260 1.397 . S
C261 C262 1.334 . S
C262 H233 0.950 . S
C262 C261 1.334 . S
C262 C263 1.287 . S
C263 C262 1.287 . S
C263 C264 1.524 . S
C263 H266 0.999 . S
C264 H234 0.950 . S
C264 C263 1.524 . S
C264 C265 1.415 . S
C265 H235 0.950 . S
C265 C260 1.363 . S
C265 C264 1.415 . S
H266 C263 0.999 . S
H267 C248 0.913 . S
H268 C286 0.951 . S
H269 C288 0.951 . S
H270 C290 0.950 . S
H271 C291 0.950 . S
H272 C293 0.950 . S
H273 C296 0.950 . S
H274 C297 0.950 . S
H275 C299 0.950 . S
H276 C300 0.950 . S
H277 C301 0.951 . S
H278 C303 0.951 . S
H279 C305 0.950 . S
H280 C306 0.950 . S
H281 C308 0.950 . S
H282 C311 0.950 . S
H283 C312 0.950 . S
H284 C314 0.950 . S
H285 C315 0.950 . S
C286 H268 0.951 . S
C286 C287 1.366 . S
C286 C288 1.388 . S
C287 C286 1.366 . S
C287 C291 1.385 . S
C288 H269 0.951 . S
C288 C286 1.388 . S
C288 C289 1.366 . S
C289 C288 1.366 . S
C289 C290 1.414 . S
C289 C292 1.499 . S
C290 H270 0.950 . S
C290 C289 1.414 . S
C290 C291 1.374 . S
C291 H271 0.950 . S
C291 C287 1.385 . S
C291 C290 1.374 . S
C292 C289 1.499 . S
C292 C293 1.373 . S
C292 C294 1.389 . S
C293 H272 0.950 . S
C293 C292 1.373 . S
C293 C309 1.377 . S
C294 C292 1.389 . S
C294 C295 1.524 . S
C294 C308 1.377 . S
C295 C294 1.524 . S
C295 C296 1.397 . S
C295 C300 1.363 . S
C296 H273 0.950 . S
C296 C295 1.397 . S
C296 C297 1.334 . S
C297 H274 0.950 . S
C297 C296 1.334 . S
C297 C298 1.287 . S
C298 C297 1.287 . S
C298 C299 1.524 . S
C298 H317 0.913 . S
C299 H275 0.950 . S
C299 C298 1.524 . S
C299 C300 1.415 . S
C300 H276 0.950 . S
C300 C295 1.363 . S
C300 C299 1.415 . S
C301 H277 0.951 . S
C301 C302 1.366 . S
C301 C303 1.388 . S
C302 C301 1.366 . S
C302 C306 1.385 . S
C303 H278 0.951 . S
C303 C301 1.388 . S
C303 C304 1.366 . S
C304 C303 1.366 . S
C304 C305 1.414 . S
C304 C307 1.499 . S
C305 H279 0.950 . S
C305 C304 1.414 . S
C305 C306 1.374 . S
C306 H280 0.950 . S
C306 C302 1.385 . S
C306 C305 1.374 . S
C307 C304 1.499 . S
C307 C308 1.373 . S
C307 C309 1.389 . S
C308 H281 0.950 . S
C308 C294 1.377 . S
C308 C307 1.373 . S
C309 C293 1.377 . S
C309 C307 1.389 . S
C309 C310 1.524 . S
C310 C309 1.524 . S
C310 C311 1.397 . S
C310 C315 1.363 . S
C311 H282 0.950 . S
C311 C310 1.397 . S
C311 C312 1.334 . S
C312 H283 0.950 . S
C312 C311 1.334 . S
C312 C313 1.287 . S
C313 C312 1.287 . S
C313 C314 1.524 . S
C313 H316 0.999 . S
C314 H284 0.950 . S
C314 C313 1.524 . S
C314 C315 1.415 . S
C315 H285 0.950 . S
C315 C310 1.363 . S
C315 C314 1.415 . S
H316 C313 0.999 . S
H317 C298 0.913 . S
H318 C336 0.951 . S
H319 C338 0.951 . S
H320 C340 0.950 . S
H321 C341 0.950 . S
H322 C343 0.950 . S
H323 C346 0.950 . S
H324 C347 0.950 . S
H325 C349 0.950 . S
H326 C350 0.950 . S
H327 C351 0.951 . S
H328 C353 0.951 . S
H329 C355 0.950 . S
H330 C356 0.950 . S
H331 C358 0.950 . S
H332 C361 0.950 . S
H333 C362 0.950 . S
H334 C364 0.950 1_455 S
H335 C365 0.950 . S
C336 H318 0.951 . S
C336 C337 1.366 . S
C336 C338 1.388 . S
C337 C336 1.366 . S
C337 C341 1.385 . S
C338 H319 0.951 . S
C338 C336 1.388 . S
C338 C339 1.366 . S
C339 C338 1.366 . S
C339 C340 1.414 . S
C339 C342 1.499 . S
C340 H320 0.950 . S
C340 C339 1.414 . S
C340 C341 1.374 . S
C341 H321 0.950 . S
C341 C337 1.385 . S
C341 C340 1.374 . S
C342 C339 1.499 . S
C342 C343 1.373 . S
C342 C344 1.389 . S
C343 H322 0.950 . S
C343 C342 1.373 . S
C343 C359 1.377 . S
C344 C342 1.389 . S
C344 C345 1.524 . S
C344 C358 1.377 . S
C345 C344 1.524 . S
C345 C346 1.397 . S
C345 C350 1.363 . S
C346 H323 0.950 . S
C346 C345 1.397 . S
C346 C347 1.334 . S
C347 H324 0.950 . S
C347 C346 1.334 . S
C347 C348 1.287 . S
C348 C347 1.287 . S
C348 C349 1.524 . S
C348 H367 0.913 . S
C349 H325 0.950 . S
C349 C348 1.524 . S
C349 C350 1.415 . S
C350 H326 0.950 . S
C350 C345 1.363 . S
C350 C349 1.415 . S
C351 H327 0.951 . S
C351 C352 1.366 . S
C351 C353 1.388 . S
C352 C351 1.366 . S
C352 C356 1.385 . S
C353 H328 0.951 . S
C353 C351 1.388 . S
C353 C354 1.366 . S
C354 C353 1.366 . S
C354 C355 1.414 . S
C354 C357 1.499 . S
C355 H329 0.950 . S
C355 C354 1.414 . S
C355 C356 1.374 . S
C356 H330 0.950 . S
C356 C352 1.385 . S
C356 C355 1.374 . S
C357 C354 1.499 . S
C357 C358 1.373 . S
C357 C359 1.389 . S
C358 H331 0.950 . S
C358 C344 1.377 . S
C358 C357 1.373 . S
C359 C343 1.377 . S
C359 C357 1.389 . S
C359 C360 1.524 . S
C360 C359 1.524 . S
C360 C361 1.397 . S
C360 C365 1.363 . S
C361 H332 0.950 . S
C361 C360 1.397 . S
C361 C362 1.334 . S
C362 H333 0.950 . S
C362 C361 1.334 . S
C362 C363 1.287 . S
C363 C362 1.287 . S
C363 C364 1.524 . S
C363 H366 0.999 1_655 S
C364 H334 0.950 1_655 S
C364 C363 1.524 . S
C364 C365 1.415 . S
C365 H335 0.950 . S
C365 C360 1.363 . S
C365 C364 1.415 . S
H366 C363 0.999 1_455 S
H367 C348 0.913 . S
H368 C386 0.951 . S
H369 C388 0.951 . S
H370 C390 0.950 . S
H371 C391 0.950 . S
H372 C393 0.950 . S
H373 C396 0.950 . S
H374 C397 0.950 . S
H375 C399 0.950 . S
H376 C400 0.950 . S
H377 C401 0.951 . S
H378 C403 0.951 . S
H379 C405 0.950 . S
H380 C406 0.950 . S
H381 C408 0.950 . S
H382 C411 0.950 . S
H383 C412 0.950 . S
H384 C414 0.950 . S
H385 C415 0.950 . S
C386 H368 0.951 . S
C386 C387 1.366 . S
C386 C388 1.388 . S
C387 C386 1.366 . S
C387 C391 1.385 . S
C388 H369 0.951 . S
C388 C386 1.388 . S
C388 C389 1.366 . S
C389 C388 1.366 . S
C389 C390 1.414 . S
C389 C392 1.499 . S
C390 H370 0.950 . S
C390 C389 1.414 . S
C390 C391 1.374 . S
C391 H371 0.950 . S
C391 C387 1.385 . S
C391 C390 1.374 . S
C392 C389 1.499 . S
C392 C393 1.373 . S
C392 C394 1.389 . S
C393 H372 0.950 . S
C393 C392 1.373 . S
C393 C409 1.377 . S
C394 C392 1.389 . S
C394 C395 1.524 . S
C394 C408 1.377 . S
C395 C394 1.524 . S
C395 C396 1.397 . S
C395 C400 1.363 . S
C396 H373 0.950 . S
C396 C395 1.397 . S
C396 C397 1.334 . S
C397 H374 0.950 . S
C397 C396 1.334 . S
C397 C398 1.287 . S
C398 C397 1.287 . S
C398 C399 1.524 . S
C398 H417 0.913 . S
C399 H375 0.950 . S
C399 C398 1.524 . S
C399 C400 1.415 . S
C400 H376 0.950 . S
C400 C395 1.363 . S
C400 C399 1.415 . S
C401 H377 0.951 . S
C401 C402 1.366 . S
C401 C403 1.388 . S
C402 C401 1.366 . S
C402 C406 1.385 . S
C403 H378 0.951 . S
C403 C401 1.388 . S
C403 C404 1.366 . S
C404 C403 1.366 . S
C404 C405 1.414 . S
C404 C407 1.499 . S
C405 H379 0.950 . S
C405 C404 1.414 . S
C405 C406 1.374 . S
C406 H380 0.950 . S
C406 C402 1.385 . S
C406 C405 1.374 . S
C407 C404 1.499 . S
C407 C408 1.373 . S
C407 C409 1.389 . S
C408 H381 0.950 . S
C408 C394 1.377 . S
C408 C407 1.373 . S
C409 C393 1.377 . S
C409 C407 1.389 . S
C409 C410 1.524 . S
C410 C409 1.524 . S
C410 C411 1.397 . S
C410 C415 1.363 . S
C411 H382 0.950 . S
C411 C410 1.397 . S
C411 C412 1.334 . S
C412 H383 0.950 . S
C412 C411 1.334 . S
C412 C413 1.287 . S
C413 C412 1.287 . S
C413 C414 1.524 . S
C413 H416 0.999 . S
C414 H384 0.950 . S
C414 C413 1.524 . S
C414 C415 1.415 . S
C415 H385 0.950 . S
C415 C410 1.363 . S
C415 C414 1.415 . S
H416 C413 0.999 . S
H417 C398 0.913 . S
H418 C436 0.951 . S
H419 C438 0.951 . S
H420 C440 0.950 . S
H421 C441 0.950 . S
H422 C443 0.950 . S
H423 C446 0.950 . S
H424 C447 0.950 . S
H425 C449 0.950 . S
H426 C450 0.950 . S
H427 C451 0.951 . S
H428 C453 0.951 . S
H429 C455 0.950 . S
H430 C456 0.950 . S
H431 C458 0.950 . S
H432 C461 0.950 . S
H433 C462 0.950 . S
H434 C464 0.950 . S
H435 C465 0.950 . S
C436 H418 0.951 . S
C436 C437 1.366 . S
C436 C438 1.388 . S
C437 C436 1.366 . S
C437 C441 1.385 . S
C438 H419 0.951 . S
C438 C436 1.388 . S
C438 C439 1.366 . S
C439 C438 1.366 . S
C439 C440 1.414 . S
C439 C442 1.499 . S
C440 H420 0.950 . S
C440 C439 1.414 . S
C440 C441 1.374 . S
C441 H421 0.950 . S
C441 C437 1.385 . S
C441 C440 1.374 . S
C442 C439 1.499 . S
C442 C443 1.373 . S
C442 C444 1.389 . S
C443 H422 0.950 . S
C443 C442 1.373 . S
C443 C459 1.377 . S
C444 C442 1.389 . S
C444 C445 1.524 . S
C444 C458 1.377 . S
C445 C444 1.524 . S
C445 C446 1.397 . S
C445 C450 1.363 . S
C446 H423 0.950 . S
C446 C445 1.397 . S
C446 C447 1.334 . S
C447 H424 0.950 . S
C447 C446 1.334 . S
C447 C448 1.287 . S
C448 C447 1.287 . S
C448 C449 1.524 . S
C448 H467 0.913 . S
C449 H425 0.950 . S
C449 C448 1.524 . S
C449 C450 1.415 . S
C450 H426 0.950 . S
C450 C445 1.363 . S
C450 C449 1.415 . S
C451 H427 0.951 . S
C451 C452 1.366 . S
C451 C453 1.388 . S
C452 C451 1.366 . S
C452 C456 1.385 . S
C453 H428 0.951 . S
C453 C451 1.388 . S
C453 C454 1.366 . S
C454 C453 1.366 . S
C454 C455 1.414 . S
C454 C457 1.499 . S
C455 H429 0.950 . S
C455 C454 1.414 . S
C455 C456 1.374 . S
C456 H430 0.950 . S
C456 C452 1.385 . S
C456 C455 1.374 . S
C457 C454 1.499 . S
C457 C458 1.373 . S
C457 C459 1.389 . S
C458 H431 0.950 . S
C458 C444 1.377 . S
C458 C457 1.373 . S
C459 C443 1.377 . S
C459 C457 1.389 . S
C459 C460 1.524 . S
C460 C459 1.524 . S
C460 C461 1.397 . S
C460 C465 1.363 . S
C461 H432 0.950 . S
C461 C460 1.397 . S
C461 C462 1.334 . S
C462 H433 0.950 . S
C462 C461 1.334 . S
C462 C463 1.287 . S
C463 C462 1.287 . S
C463 C464 1.524 . S
C463 H466 0.999 . S
C464 H434 0.950 . S
C464 C463 1.524 . S
C464 C465 1.415 . S
C465 H435 0.950 . S
C465 C460 1.363 . S
C465 C464 1.415 . S
H466 C463 0.999 . S
H467 C448 0.913 . S
H468 C486 0.951 . S
H469 C488 0.951 . S
H470 C490 0.950 . S
H471 C491 0.950 . S
H472 C493 0.950 . S
H473 C496 0.950 . S
H474 C497 0.950 . S
H475 C499 0.950 . S
H476 C500 0.950 . S
H477 C501 0.951 . S
H478 C503 0.951 . S
H479 C505 0.950 . S
H480 C506 0.950 . S
H481 C508 0.950 . S
H482 C511 0.950 . S
H483 C512 0.950 . S
H484 C514 0.950 . S
H485 C515 0.950 . S
C486 H468 0.951 . S
C486 C487 1.366 . S
C486 C488 1.388 . S
C487 C486 1.366 . S
C487 C491 1.385 . S
C488 H469 0.951 . S
C488 C486 1.388 . S
C488 C489 1.366 . S
C489 C488 1.366 . S
C489 C490 1.414 . S
C489 C492 1.499 . S
C490 H470 0.950 . S
C490 C489 1.414 . S
C490 C491 1.374 . S
C491 H471 0.950 . S
C491 C487 1.385 . S
C491 C490 1.374 . S
C492 C489 1.499 . S
C492 C493 1.373 . S
C492 C494 1.389 . S
C493 H472 0.950 . S
C493 C492 1.373 . S
C493 C509 1.377 . S
C494 C492 1.389 . S
C494 C495 1.524 . S
C494 C508 1.377 . S
C495 C494 1.524 . S
C495 C496 1.397 . S
C495 C500 1.363 . S
C496 H473 0.950 . S
C496 C495 1.397 . S
C496 C497 1.334 . S
C497 H474 0.950 . S
C497 C496 1.334 . S
C497 C498 1.287 . S
C498 C497 1.287 . S
C498 C499 1.524 . S
C498 H517 0.913 . S
C499 H475 0.950 . S
C499 C498 1.524 . S
C499 C500 1.415 . S
C500 H476 0.950 . S
C500 C495 1.363 . S
C500 C499 1.415 . S
C501 H477 0.951 . S
C501 C502 1.366 . S
C501 C503 1.388 . S
C502 C501 1.366 . S
C502 C506 1.385 . S
C503 H478 0.951 . S
C503 C501 1.388 . S
C503 C504 1.366 . S
C504 C503 1.366 . S
C504 C505 1.414 . S
C504 C507 1.499 . S
C505 H479 0.950 . S
C505 C504 1.414 . S
C505 C506 1.374 . S
C506 H480 0.950 . S
C506 C502 1.385 . S
C506 C505 1.374 . S
C507 C504 1.499 . S
C507 C508 1.373 . S
C507 C509 1.389 . S
C508 H481 0.950 . S
C508 C494 1.377 . S
C508 C507 1.373 . S
C509 C493 1.377 . S
C509 C507 1.389 . S
C509 C510 1.524 . S
C510 C509 1.524 . S
C510 C511 1.397 . S
C510 C515 1.363 . S
C511 H482 0.950 . S
C511 C510 1.397 . S
C511 C512 1.334 . S
C512 H483 0.950 . S
C512 C511 1.334 . S
C512 C513 1.287 . S
C513 C512 1.287 . S
C513 C514 1.524 . S
C513 H516 0.999 . S
C514 H484 0.950 . S
C514 C513 1.524 . S
C514 C515 1.415 . S
C515 H485 0.950 . S
C515 C510 1.363 . S
C515 C514 1.415 . S
H516 C513 0.999 . S
H517 C498 0.913 . S
H518 C536 0.951 . S
H519 C538 0.951 . S
H520 C540 0.950 . S
H521 C541 0.950 . S
H522 C543 0.950 . S
H523 C546 0.950 . S
H524 C547 0.950 . S
H525 C549 0.950 . S
H526 C550 0.950 . S
H527 C551 0.951 . S
H528 C553 0.951 . S
H529 C555 0.950 . S
H530 C556 0.950 . S
H531 C558 0.950 . S
H532 C561 0.950 . S
H533 C562 0.950 . S
H534 C564 0.950 . S
H535 C565 0.950 . S
C536 H518 0.951 . S
C536 C537 1.366 . S
C536 C538 1.388 . S
C537 C536 1.366 . S
C537 C541 1.385 . S
C538 H519 0.951 . S
C538 C536 1.388 . S
C538 C539 1.366 . S
C539 C538 1.366 . S
C539 C540 1.414 . S
C539 C542 1.499 . S
C540 H520 0.950 . S
C540 C539 1.414 . S
C540 C541 1.374 . S
C541 H521 0.950 . S
C541 C537 1.385 . S
C541 C540 1.374 . S
C542 C539 1.499 . S
C542 C543 1.373 . S
C542 C544 1.389 1_655 S
C543 H522 0.950 . S
C543 C542 1.373 . S
C543 C559 1.377 . S
C544 C542 1.389 1_455 S
C544 C545 1.524 . S
C544 C558 1.377 . S
C545 C544 1.524 . S
C545 C546 1.397 1_455 S
C545 C550 1.363 . S
C546 H523 0.950 . S
C546 C545 1.397 1_655 S
C546 C547 1.334 . S
C547 H524 0.950 . S
C547 C546 1.334 . S
C547 C548 1.287 1_655 S
C548 C547 1.287 1_455 S
C548 C549 1.524 . S
C548 H567 0.913 . S
C549 H525 0.950 . S
C549 C548 1.524 . S
C549 C550 1.415 . S
C550 H526 0.950 . S
C550 C545 1.363 . S
C550 C549 1.415 . S
C551 H527 0.951 . S
C551 C552 1.366 . S
C551 C553 1.388 . S
C552 C551 1.366 . S
C552 C556 1.385 . S
C553 H528 0.951 . S
C553 C551 1.388 . S
C553 C554 1.366 . S
C554 C553 1.366 . S
C554 C555 1.414 . S
C554 C557 1.499 . S
C555 H529 0.950 . S
C555 C554 1.414 . S
C555 C556 1.374 . S
C556 H530 0.950 . S
C556 C552 1.385 . S
C556 C555 1.374 . S
C557 C554 1.499 . S
C557 C558 1.373 . S
C557 C559 1.389 1_455 S
C558 H531 0.950 . S
C558 C544 1.377 . S
C558 C557 1.373 . S
C559 C543 1.377 . S
C559 C557 1.389 1_655 S
C559 C560 1.524 . S
C560 C559 1.524 . S
C560 C561 1.397 1_655 S
C560 C565 1.363 . S
C561 H532 0.950 . S
C561 C560 1.397 1_455 S
C561 C562 1.334 . S
C562 H533 0.950 . S
C562 C561 1.334 . S
C562 C563 1.287 1_455 S
C563 C562 1.287 1_655 S
C563 C564 1.524 . S
C563 H566 0.999 . S
C564 H534 0.950 . S
C564 C563 1.524 . S
C564 C565 1.415 . S
C565 H535 0.950 . S
C565 C560 1.363 . S
C565 C564 1.415 . S
H566 C563 0.999 . S
H567 C548 0.913 . S
H568 C586 0.951 . S
H569 C588 0.951 . S
H570 C590 0.950 . S
H571 C591 0.950 . S
H572 C593 0.950 . S
H573 C596 0.950 . S
H574 C597 0.950 . S
H575 C599 0.950 . S
H576 C600 0.950 . S
H577 C601 0.951 . S
H578 C603 0.951 . S
H579 C605 0.950 . S
H580 C606 0.950 . S
H581 C608 0.950 . S
H582 C611 0.950 . S
H583 C612 0.950 . S
H584 C614 0.950 . S
H585 C615 0.950 . S
C586 H568 0.951 . S
C586 C587 1.366 . S
C586 C588 1.388 . S
C587 C586 1.366 . S
C587 C591 1.385 . S
C588 H569 0.951 . S
C588 C586 1.388 . S
C588 C589 1.366 . S
C589 C588 1.366 . S
C589 C590 1.414 . S
C589 C592 1.499 . S
C590 H570 0.950 . S
C590 C589 1.414 . S
C590 C591 1.374 . S
C591 H571 0.950 . S
C591 C587 1.385 . S
C591 C590 1.374 . S
C592 C589 1.499 . S
C592 C593 1.373 . S
C592 C594 1.389 . S
C593 H572 0.950 . S
C593 C592 1.373 . S
C593 C609 1.377 1_545 S
C594 C592 1.389 . S
C594 C595 1.524 . S
C594 C608 1.377 1_545 S
C595 C594 1.524 . S
C595 C596 1.397 . S
C595 C600 1.363 . S
C596 H573 0.950 . S
C596 C595 1.397 . S
C596 C597 1.334 . S
C597 H574 0.950 . S
C597 C596 1.334 . S
C597 C598 1.287 . S
C598 C597 1.287 . S
C598 C599 1.524 . S
C598 H617 0.913 . S
C599 H575 0.950 . S
C599 C598 1.524 . S
C599 C600 1.415 . S
C600 H576 0.950 . S
C600 C595 1.363 . S
C600 C599 1.415 . S
C601 H577 0.951 . S
C601 C602 1.366 . S
C601 C603 1.388 . S
C602 C601 1.366 . S
C602 C606 1.385 . S
C603 H578 0.951 . S
C603 C601 1.388 . S
C603 C604 1.366 . S
C604 C603 1.366 . S
C604 C605 1.414 . S
C604 C607 1.499 . S
C605 H579 0.950 . S
C605 C604 1.414 . S
C605 C606 1.374 . S
C606 H580 0.950 . S
C606 C602 1.385 . S
C606 C605 1.374 . S
C607 C604 1.499 . S
C607 C608 1.373 . S
C607 C609 1.389 . S
C608 H581 0.950 . S
C608 C594 1.377 1_565 S
C608 C607 1.373 . S
C609 C593 1.377 1_565 S
C609 C607 1.389 . S
C609 C610 1.524 . S
C610 C609 1.524 . S
C610 C611 1.397 . S
C610 C615 1.363 . S
C611 H582 0.950 . S
C611 C610 1.397 . S
C611 C612 1.334 . S
C612 H583 0.950 . S
C612 C611 1.334 . S
C612 C613 1.287 . S
C613 C612 1.287 . S
C613 C614 1.524 . S
C613 H616 0.999 . S
C614 H584 0.950 . S
C614 C613 1.524 . S
C614 C615 1.415 . S
C615 H585 0.950 . S
C615 C610 1.363 . S
C615 C614 1.415 . S
H616 C613 0.999 . S
H617 C598 0.913 . S
H618 C636 0.951 . S
H619 C638 0.951 . S
H620 C640 0.950 . S
H621 C641 0.950 . S
H622 C643 0.950 . S
H623 C646 0.950 . S
H624 C647 0.950 . S
H625 C649 0.950 . S
H626 C650 0.950 . S
H627 C651 0.951 . S
H628 C653 0.951 . S
H629 C655 0.950 . S
H630 C656 0.950 . S
H631 C658 0.950 . S
H632 C661 0.950 . S
H633 C662 0.950 . S
H634 C664 0.950 . S
H635 C665 0.950 . S
C636 H618 0.951 . S
C636 C637 1.366 . S
C636 C638 1.388 . S
C637 C636 1.366 . S
C637 C641 1.385 . S
C638 H619 0.951 . S
C638 C636 1.388 . S
C638 C639 1.366 . S
C639 C638 1.366 . S
C639 C640 1.414 . S
C639 C642 1.499 . S
C640 H620 0.950 . S
C640 C639 1.414 . S
C640 C641 1.374 . S
C641 H621 0.950 . S
C641 C637 1.385 . S
C641 C640 1.374 . S
C642 C639 1.499 . S
C642 C643 1.373 . S
C642 C644 1.389 . S
C643 H622 0.950 . S
C643 C642 1.373 . S
C643 C659 1.377 . S
C644 C642 1.389 . S
C644 C645 1.524 . S
C644 C658 1.377 . S
C645 C644 1.524 . S
C645 C646 1.397 . S
C645 C650 1.363 . S
C646 H623 0.950 . S
C646 C645 1.397 . S
C646 C647 1.334 . S
C647 H624 0.950 . S
C647 C646 1.334 . S
C647 C648 1.287 . S
C648 C647 1.287 . S
C648 C649 1.524 . S
C648 H667 0.913 . S
C649 H625 0.950 . S
C649 C648 1.524 . S
C649 C650 1.415 . S
C650 H626 0.950 . S
C650 C645 1.363 . S
C650 C649 1.415 . S
C651 H627 0.951 . S
C651 C652 1.366 . S
C651 C653 1.388 . S
C652 C651 1.366 . S
C652 C656 1.385 . S
C653 H628 0.951 . S
C653 C651 1.388 . S
C653 C654 1.366 . S
C654 C653 1.366 . S
C654 C655 1.414 . S
C654 C657 1.499 . S
C655 H629 0.950 . S
C655 C654 1.414 . S
C655 C656 1.374 . S
C656 H630 0.950 . S
C656 C652 1.385 . S
C656 C655 1.374 . S
C657 C654 1.499 . S
C657 C658 1.373 . S
C657 C659 1.389 . S
C658 H631 0.950 . S
C658 C644 1.377 . S
C658 C657 1.373 . S
C659 C643 1.377 . S
C659 C657 1.389 . S
C659 C660 1.524 . S
C660 C659 1.524 . S
C660 C661 1.397 . S
C660 C665 1.363 . S
C661 H632 0.950 . S
C661 C660 1.397 . S
C661 C662 1.334 . S
C662 H633 0.950 . S
C662 C661 1.334 . S
C662 C663 1.287 . S
C663 C662 1.287 . S
C663 C664 1.524 . S
C663 H666 0.999 . S
C664 H634 0.950 . S
C664 C663 1.524 . S
C664 C665 1.415 . S
C665 H635 0.950 . S
C665 C660 1.363 . S
C665 C664 1.415 . S
H666 C663 0.999 . S
H667 C648 0.913 . S
H668 C686 0.951 . S
H669 C688 0.951 . S
H670 C690 0.950 . S
H671 C691 0.950 . S
H672 C693 0.950 . S
H673 C696 0.950 . S
H674 C697 0.950 . S
H675 C699 0.950 . S
H676 C700 0.950 . S
H677 C701 0.951 . S
H678 C703 0.951 . S
H679 C705 0.950 . S
H680 C706 0.950 . S
H681 C708 0.950 . S
H682 C711 0.950 . S
H683 C712 0.950 . S
H684 C714 0.950 . S
H685 C715 0.950 . S
C686 H668 0.951 . S
C686 C687 1.366 . S
C686 C688 1.388 . S
C687 C686 1.366 . S
C687 C691 1.385 . S
C688 H669 0.951 . S
C688 C686 1.388 . S
C688 C689 1.366 . S
C689 C688 1.366 . S
C689 C690 1.414 . S
C689 C692 1.499 . S
C690 H670 0.950 . S
C690 C689 1.414 . S
C690 C691 1.374 . S
C691 H671 0.950 . S
C691 C687 1.385 . S
C691 C690 1.374 . S
C692 C689 1.499 . S
C692 C693 1.373 . S
C692 C694 1.389 . S
C693 H672 0.950 . S
C693 C692 1.373 . S
C693 C709 1.377 1_655 S
C694 C692 1.389 . S
C694 C695 1.524 . S
C694 C708 1.377 1_655 S
C695 C694 1.524 . S
C695 C696 1.397 . S
C695 C700 1.363 . S
C696 H673 0.950 . S
C696 C695 1.397 . S
C696 C697 1.334 . S
C697 H674 0.950 . S
C697 C696 1.334 . S
C697 C698 1.287 . S
C698 C697 1.287 . S
C698 C699 1.524 . S
C698 H717 0.913 . S
C699 H675 0.950 . S
C699 C698 1.524 . S
C699 C700 1.415 . S
C700 H676 0.950 . S
C700 C695 1.363 . S
C700 C699 1.415 . S
C701 H677 0.951 . S
C701 C702 1.366 . S
C701 C703 1.388 . S
C702 C701 1.366 . S
C702 C706 1.385 . S
C703 H678 0.951 . S
C703 C701 1.388 . S
C703 C704 1.366 . S
C704 C703 1.366 . S
C704 C705 1.414 . S
C704 C707 1.499 . S
C705 H679 0.950 . S
C705 C704 1.414 . S
C705 C706 1.374 . S
C706 H680 0.950 . S
C706 C702 1.385 . S
C706 C705 1.374 . S
C707 C704 1.499 . S
C707 C708 1.373 . S
C707 C709 1.389 . S
C708 H681 0.950 . S
C708 C694 1.377 1_455 S
C708 C707 1.373 . S
C709 C693 1.377 1_455 S
C709 C707 1.389 . S
C709 C710 1.524 . S
C710 C709 1.524 . S
C710 C711 1.397 . S
C710 C715 1.363 . S
C711 H682 0.950 . S
C711 C710 1.397 . S
C711 C712 1.334 . S
C712 H683 0.950 . S
C712 C711 1.334 . S
C712 C713 1.287 . S
C713 C712 1.287 . S
C713 C714 1.524 . S
C713 H716 0.999 . S
C714 H684 0.950 . S
C714 C713 1.524 . S
C714 C715 1.415 . S
C715 H685 0.950 . S
C715 C710 1.363 . S
C715 C714 1.415 . S
H716 C713 0.999 . S
H717 C698 0.913 . S
H718 C736 0.951 . S
H719 C738 0.951 . S
H720 C740 0.950 . S
H721 C741 0.950 . S
H722 C743 0.950 . S
H723 C746 0.950 . S
H724 C747 0.950 . S
H725 C749 0.950 . S
H726 C750 0.950 . S
H727 C751 0.951 . S
H728 C753 0.951 . S
H729 C755 0.950 . S
H730 C756 0.950 . S
H731 C758 0.950 . S
H732 C761 0.950 . S
H733 C762 0.950 . S
H734 C764 0.950 . S
H735 C765 0.950 . S
C736 H718 0.951 . S
C736 C737 1.366 . S
C736 C738 1.388 . S
C737 C736 1.366 . S
C737 C741 1.385 . S
C738 H719 0.951 . S
C738 C736 1.388 . S
C738 C739 1.366 . S
C739 C738 1.366 . S
C739 C740 1.414 . S
C739 C742 1.499 . S
C740 H720 0.950 . S
C740 C739 1.414 . S
C740 C741 1.374 . S
C741 H721 0.950 . S
C741 C737 1.385 . S
C741 C740 1.374 . S
C742 C739 1.499 . S
C742 C743 1.373 1_565 S
C742 C744 1.389 1_554 S
C743 H722 0.950 . S
C743 C742 1.373 1_545 S
C743 C759 1.377 . S
C744 C742 1.389 1_556 S
C744 C745 1.524 . S
C744 C758 1.377 . S
C745 C744 1.524 . S
C745 C746 1.397 . S
C745 C750 1.363 . S
C746 H723 0.950 . S
C746 C745 1.397 . S
C746 C747 1.334 . S
C747 H724 0.950 . S
C747 C746 1.334 . S
C747 C748 1.287 . S
C748 C747 1.287 . S
C748 C749 1.524 . S
C748 H767 0.913 . S
C749 H725 0.950 . S
C749 C748 1.524 . S
C749 C750 1.415 . S
C750 H726 0.950 . S
C750 C745 1.363 . S
C750 C749 1.415 . S
C751 H727 0.951 . S
C751 C752 1.366 . S
C751 C753 1.388 . S
C752 C751 1.366 . S
C752 C756 1.385 . S
C753 H728 0.951 . S
C753 C751 1.388 . S
C753 C754 1.366 . S
C754 C753 1.366 . S
C754 C755 1.414 . S
C754 C757 1.499 . S
C755 H729 0.950 . S
C755 C754 1.414 . S
C755 C756 1.374 . S
C756 H730 0.950 . S
C756 C752 1.385 . S
C756 C755 1.374 . S
C757 C754 1.499 . S
C757 C758 1.373 1_545 S
C757 C759 1.389 1_556 S
C758 H731 0.950 . S
C758 C744 1.377 . S
C758 C757 1.373 1_565 S
C759 C743 1.377 . S
C759 C757 1.389 1_554 S
C759 C760 1.524 . S
C760 C759 1.524 . S
C760 C761 1.397 . S
C760 C765 1.363 . S
C761 H732 0.950 . S
C761 C760 1.397 . S
C761 C762 1.334 . S
C762 H733 0.950 . S
C762 C761 1.334 . S
C762 C763 1.287 . S
C763 C762 1.287 . S
C763 C764 1.524 . S
C763 H766 0.999 . S
C764 H734 0.950 . S
C764 C763 1.524 . S
C764 C765 1.415 . S
C765 H735 0.950 . S
C765 C760 1.363 . S
C765 C764 1.415 . S
H766 C763 0.999 . S
H767 C748 0.913 . S
H768 C786 0.951 . S
H769 C788 0.951 . S
H770 C790 0.950 . S
H771 C791 0.950 . S
H772 C793 0.950 . S
H773 C796 0.950 . S
H774 C797 0.950 . S
H775 C799 0.950 . S
H776 C800 0.950 . S
H777 C801 0.951 . S
H778 C803 0.951 . S
H779 C805 0.950 1_554 S
H780 C806 0.950 . S
H781 C808 0.950 . S
H782 C811 0.950 1_554 S
H783 C812 0.950 . S
H784 C814 0.950 . S
H785 C815 0.950 . S
C786 H768 0.951 . S
C786 C787 1.366 . S
C786 C788 1.388 . S
C787 C786 1.366 . S
C787 C791 1.385 . S
C788 H769 0.951 . S
C788 C786 1.388 . S
C788 C789 1.366 . S
C789 C788 1.366 . S
C789 C790 1.414 . S
C789 C792 1.499 . S
C790 H770 0.950 . S
C790 C789 1.414 . S
C790 C791 1.374 . S
C791 H771 0.950 . S
C791 C787 1.385 . S
C791 C790 1.374 . S
C792 C789 1.499 . S
C792 C793 1.373 . S
C792 C794 1.389 . S
C793 H772 0.950 . S
C793 C792 1.373 . S
C793 C809 1.377 . S
C794 C792 1.389 . S
C794 C795 1.524 . S
C794 C808 1.377 . S
C795 C794 1.524 . S
C795 C796 1.397 . S
C795 C800 1.363 . S
C796 H773 0.950 . S
C796 C795 1.397 . S
C796 C797 1.334 . S
C797 H774 0.950 . S
C797 C796 1.334 . S
C797 C798 1.287 . S
C798 C797 1.287 . S
C798 C799 1.524 . S
C798 H817 0.913 . S
C799 H775 0.950 . S
C799 C798 1.524 . S
C799 C800 1.415 . S
C800 H776 0.950 . S
C800 C795 1.363 . S
C800 C799 1.415 . S
C801 H777 0.951 . S
C801 C802 1.366 . S
C801 C803 1.388 . S
C802 C801 1.366 . S
C802 C806 1.385 . S
C803 H778 0.951 . S
C803 C801 1.388 . S
C803 C804 1.366 . S
C804 C803 1.366 . S
C804 C805 1.414 . S
C804 C807 1.499 1_556 S
C805 H779 0.950 1_556 S
C805 C804 1.414 . S
C805 C806 1.374 . S
C806 H780 0.950 . S
C806 C802 1.385 . S
C806 C805 1.374 . S
C807 C804 1.499 1_554 S
C807 C808 1.373 . S
C807 C809 1.389 . S
C808 H781 0.950 . S
C808 C794 1.377 . S
C808 C807 1.373 . S
C809 C793 1.377 . S
C809 C807 1.389 . S
C809 C810 1.524 1_554 S
C810 C809 1.524 1_556 S
C810 C811 1.397 . S
C810 C815 1.363 . S
C811 H782 0.950 1_556 S
C811 C810 1.397 . S
C811 C812 1.334 . S
C812 H783 0.950 . S
C812 C811 1.334 . S
C812 C813 1.287 . S
C813 C812 1.287 . S
C813 C814 1.524 . S
C813 H816 0.999 . S
C814 H784 0.950 . S
C814 C813 1.524 . S
C814 C815 1.415 . S
C815 H785 0.950 . S
C815 C810 1.363 . S
C815 C814 1.415 . S
H816 C813 0.999 . S
H817 C798 0.913 . S
H818 C836 0.951 . S
H819 C838 0.951 . S
H820 C840 0.950 . S
H821 C841 0.950 . S
H822 C843 0.950 . S
H823 C846 0.950 . S
H824 C847 0.950 . S
H825 C849 0.950 . S
H826 C850 0.950 . S
H827 C851 0.951 . S
H828 C853 0.951 1_655 S
H829 C855 0.950 . S
H830 C856 0.950 . S
H831 C858 0.950 . S
H832 C861 0.950 . S
H833 C862 0.950 . S
H834 C864 0.950 . S
H835 C865 0.950 . S
C836 H818 0.951 . S
C836 C837 1.366 . S
C836 C838 1.388 . S
C837 C836 1.366 . S
C837 C841 1.385 . S
C838 H819 0.951 . S
C838 C836 1.388 . S
C838 C839 1.366 . S
C839 C838 1.366 . S
C839 C840 1.414 . S
C839 C842 1.499 . S
C840 H820 0.950 . S
C840 C839 1.414 . S
C840 C841 1.374 . S
C841 H821 0.950 . S
C841 C837 1.385 . S
C841 C840 1.374 . S
C842 C839 1.499 . S
C842 C843 1.373 . S
C842 C844 1.389 . S
C843 H822 0.950 . S
C843 C842 1.373 . S
C843 C859 1.377 . S
C844 C842 1.389 . S
C844 C845 1.524 . S
C844 C858 1.377 . S
C845 C844 1.524 . S
C845 C846 1.397 . S
C845 C850 1.363 . S
C846 H823 0.950 . S
C846 C845 1.397 . S
C846 C847 1.334 . S
C847 H824 0.950 . S
C847 C846 1.334 . S
C847 C848 1.287 . S
C848 C847 1.287 . S
C848 C849 1.524 . S
C848 H867 0.913 . S
C849 H825 0.950 . S
C849 C848 1.524 . S
C849 C850 1.415 . S
C850 H826 0.950 . S
C850 C845 1.363 . S
C850 C849 1.415 . S
C851 H827 0.951 . S
C851 C852 1.366 . S
C851 C853 1.388 . S
C852 C851 1.366 . S
C852 C856 1.385 . S
C853 H828 0.951 1_455 S
C853 C851 1.388 . S
C853 C854 1.354 1_455 S
C854 C853 1.354 1_655 S
C854 C855 1.414 1_655 S
C854 C857 1.512 . S
C855 H829 0.950 . S
C855 C854 1.414 1_455 S
C855 C856 1.374 . S
C856 H830 0.950 . S
C856 C852 1.385 . S
C856 C855 1.374 . S
C857 C854 1.512 . S
C857 C858 1.373 . S
C857 C859 1.389 . S
C858 H831 0.950 . S
C858 C844 1.377 . S
C858 C857 1.373 . S
C859 C843 1.377 . S
C859 C857 1.389 . S
C859 C860 1.506 1_655 S
C860 C859 1.506 1_455 S
C860 C861 1.410 . S
C860 C865 1.368 1_455 S
C861 H832 0.950 . S
C861 C860 1.410 . S
C861 C862 1.334 . S
C862 H833 0.950 . S
C862 C861 1.334 . S
C862 C863 1.287 . S
C863 C862 1.287 . S
C863 C864 1.524 . S
C863 H866 0.999 . S
C864 H834 0.950 . S
C864 C863 1.524 . S
C864 C865 1.415 1_455 S
C865 H835 0.950 . S
C865 C860 1.368 1_655 S
C865 C864 1.415 1_655 S
H866 C863 0.999 . S
H867 C848 0.913 . S
H868 C886 0.951 . S
H869 C888 0.951 . S
H870 C890 0.950 . S
H871 C891 0.950 . S
H872 C893 0.950 . S
H873 C896 0.950 . S
H874 C897 0.950 . S
H875 C899 0.950 . S
H876 C900 0.950 . S
H877 C901 0.951 . S
H878 C903 0.951 . S
H879 C905 0.950 . S
H880 C906 0.950 . S
H881 C908 0.950 . S
H882 C911 0.950 . S
H883 C912 0.950 . S
H884 C914 0.950 . S
H885 C915 0.950 . S
C886 H868 0.951 . S
C886 C887 1.366 . S
C886 C888 1.388 1_545 S
C887 C886 1.366 . S
C887 C891 1.385 . S
C888 H869 0.951 . S
C888 C886 1.388 1_565 S
C888 C889 1.354 . S
C889 C888 1.354 . S
C889 C890 1.408 1_565 S
C889 C892 1.517 . S
C890 H870 0.950 . S
C890 C889 1.408 1_545 S
C890 C891 1.374 . S
C891 H871 0.950 . S
C891 C887 1.385 . S
C891 C890 1.374 . S
C892 C889 1.517 . S
C892 C893 1.373 . S
C892 C894 1.389 . S
C893 H872 0.950 . S
C893 C892 1.373 . S
C893 C909 1.377 . S
C894 C892 1.389 . S
C894 C895 1.524 . S
C894 C908 1.377 . S
C895 C894 1.524 . S
C895 C896 1.397 1_565 S
C895 C900 1.363 . S
C896 H873 0.950 . S
C896 C895 1.397 1_545 S
C896 C897 1.334 . S
C897 H874 0.950 . S
C897 C896 1.334 . S
C897 C898 1.287 . S
C898 C897 1.287 . S
C898 C899 1.524 1_545 S
C898 H917 0.913 . S
C899 H875 0.950 . S
C899 C898 1.524 1_565 S
C899 C900 1.415 . S
C900 H876 0.950 . S
C900 C895 1.363 . S
C900 C899 1.415 . S
C901 H877 0.951 . S
C901 C902 1.366 . S
C901 C903 1.388 . S
C902 C901 1.366 . S
C902 C906 1.385 . S
C903 H878 0.951 . S
C903 C901 1.388 . S
C903 C904 1.366 . S
C904 C903 1.366 . S
C904 C905 1.414 . S
C904 C907 1.499 . S
C905 H879 0.950 . S
C905 C904 1.414 . S
C905 C906 1.374 . S
C906 H880 0.950 . S
C906 C902 1.385 . S
C906 C905 1.374 . S
C907 C904 1.499 . S
C907 C908 1.373 . S
C907 C909 1.389 . S
C908 H881 0.950 . S
C908 C894 1.377 . S
C908 C907 1.373 . S
C909 C893 1.377 . S
C909 C907 1.389 . S
C909 C910 1.524 . S
C910 C909 1.524 . S
C910 C911 1.397 . S
C910 C915 1.363 . S
C911 H882 0.950 . S
C911 C910 1.397 . S
C911 C912 1.334 . S
C912 H883 0.950 . S
C912 C911 1.334 . S
C912 C913 1.287 . S
C913 C912 1.287 . S
C913 C914 1.524 . S
C913 H916 0.999 . S
C914 H884 0.950 . S
C914 C913 1.524 . S
C914 C915 1.415 . S
C915 H885 0.950 . S
C915 C910 1.363 . S
C915 C914 1.415 . S
H916 C913 0.999 . S
H917 C898 0.913 . S
H918 C936 0.951 . S
H919 C938 0.951 . S
H920 C940 0.950 . S
H921 C941 0.950 . S
H922 C943 0.950 . S
H923 C946 0.950 . S
H924 C947 0.950 . S
H925 C949 0.950 . S
H926 C950 0.950 . S
H927 C951 0.951 . S
H928 C953 0.951 . S
H929 C955 0.950 . S
H930 C956 0.950 . S
H931 C958 0.950 . S
H932 C961 0.950 . S
H933 C962 0.950 . S
H934 C964 0.950 . S
H935 C965 0.950 . S
C936 H918 0.951 . S
C936 C937 1.366 . S
C936 C938 1.388 . S
C937 C936 1.366 . S
C937 C941 1.385 . S
C938 H919 0.951 . S
C938 C936 1.388 . S
C938 C939 1.366 . S
C939 C938 1.366 . S
C939 C940 1.414 . S
C939 C942 1.499 . S
C940 H920 0.950 . S
C940 C939 1.414 . S
C940 C941 1.374 . S
C941 H921 0.950 . S
C941 C937 1.385 . S
C941 C940 1.374 . S
C942 C939 1.499 . S
C942 C943 1.373 . S
C942 C944 1.389 . S
C943 H922 0.950 . S
C943 C942 1.373 . S
C943 C959 1.377 . S
C944 C942 1.389 . S
C944 C945 1.524 . S
C944 C958 1.377 . S
C945 C944 1.524 . S
C945 C946 1.397 . S
C945 C950 1.363 . S
C946 H923 0.950 . S
C946 C945 1.397 . S
C946 C947 1.334 . S
C947 H924 0.950 . S
C947 C946 1.334 . S
C947 C948 1.287 . S
C948 C947 1.287 . S
C948 C949 1.524 . S
C948 H967 0.913 . S
C949 H925 0.950 . S
C949 C948 1.524 . S
C949 C950 1.415 . S
C950 H926 0.950 . S
C950 C945 1.363 . S
C950 C949 1.415 . S
C951 H927 0.951 . S
C951 C952 1.366 . S
C951 C953 1.388 . S
C952 C951 1.366 . S
C952 C956 1.385 . S
C953 H928 0.951 . S
C953 C951 1.388 . S
C953 C954 1.366 . S
C954 C953 1.366 . S
C954 C955 1.414 . S
C954 C957 1.499 . S
C955 H929 0.950 . S
C955 C954 1.414 . S
C955 C956 1.374 . S
C956 H930 0.950 . S
C956 C952 1.385 . S
C956 C955 1.374 . S
C957 C954 1.499 . S
C957 C958 1.373 . S
C957 C959 1.389 . S
C958 H931 0.950 . S
C958 C944 1.377 . S
C958 C957 1.373 . S
C959 C943 1.377 . S
C959 C957 1.389 . S
C959 C960 1.524 . S
C960 C959 1.524 . S
C960 C961 1.397 . S
C960 C965 1.363 . S
C961 H932 0.950 . S
C961 C960 1.397 . S
C961 C962 1.334 . S
C962 H933 0.950 . S
C962 C961 1.334 . S
C962 C963 1.287 . S
C963 C962 1.287 . S
C963 C964 1.524 . S
C963 H966 0.999 . S
C964 H934 0.950 . S
C964 C963 1.524 . S
C964 C965 1.415 . S
C965 H935 0.950 . S
C965 C960 1.363 . S
C965 C964 1.415 . S
H966 C963 0.999 . S
H967 C948 0.913 . S
H968 C986 0.951 . S
H969 C988 0.951 . S
H970 C990 0.950 . S
H971 C991 0.950 . S
H972 C993 0.950 . S
H973 C996 0.950 . S
H974 C997 0.950 . S
H975 C999 0.950 . S
H976 C1000 0.950 . S
H977 C1001 0.951 . S
H978 C1003 0.951 . S
H979 C1005 0.950 . S
H980 C1006 0.950 . S
H981 C1008 0.950 . S
H982 C1011 0.950 . S
H983 C1012 0.950 . S
H984 C1014 0.950 . S
H985 C1015 0.950 . S
C986 H968 0.951 . S
C986 C987 1.366 . S
C986 C988 1.388 . S
C987 C986 1.366 . S
C987 C991 1.385 . S
C988 H969 0.951 . S
C988 C986 1.388 . S
C988 C989 1.366 . S
C989 C988 1.366 . S
C989 C990 1.414 . S
C989 C992 1.499 . S
C990 H970 0.950 . S
C990 C989 1.414 . S
C990 C991 1.374 . S
C991 H971 0.950 . S
C991 C987 1.385 . S
C991 C990 1.374 . S
C992 C989 1.499 . S
C992 C993 1.373 . S
C992 C994 1.389 . S
C993 H972 0.950 . S
C993 C992 1.373 . S
C993 C1009 1.377 . S
C994 C992 1.389 . S
C994 C995 1.524 . S
C994 C1008 1.377 . S
C995 C994 1.524 . S
C995 C996 1.397 . S
C995 C1000 1.363 . S
C996 H973 0.950 . S
C996 C995 1.397 . S
C996 C997 1.334 . S
C997 H974 0.950 . S
C997 C996 1.334 . S
C997 C998 1.287 . S
C998 C997 1.287 . S
C998 C999 1.524 . S
C998 H1017 0.913 . S
C999 H975 0.950 . S
C999 C998 1.524 . S
C999 C1000 1.415 . S
C1000 H976 0.950 . S
C1000 C995 1.363 . S
C1000 C999 1.415 . S
C1001 H977 0.951 . S
C1001 C1002 1.366 . S
C1001 C1003 1.388 . S
C1002 C1001 1.366 . S
C1002 C1006 1.385 . S
C1003 H978 0.951 . S
C1003 C1001 1.388 . S
C1003 C1004 1.366 1_655 S
C1004 C1003 1.366 1_455 S
C1004 C1005 1.414 . S
C1004 C1007 1.499 . S
C1005 H979 0.950 . S
C1005 C1004 1.414 . S
C1005 C1006 1.374 1_455 S
C1006 H980 0.950 . S
C1006 C1002 1.385 . S
C1006 C1005 1.374 1_655 S
C1007 C1004 1.499 . S
C1007 C1008 1.373 . S
C1007 C1009 1.389 . S
C1008 H981 0.950 . S
C1008 C994 1.377 . S
C1008 C1007 1.373 . S
C1009 C993 1.377 . S
C1009 C1007 1.389 . S
C1009 C1010 1.524 1_455 S
C1010 C1009 1.524 1_655 S
C1010 C1011 1.397 . S
C1010 C1015 1.363 . S
C1011 H982 0.950 . S
C1011 C1010 1.397 . S
C1011 C1012 1.334 . S
C1012 H983 0.950 . S
C1012 C1011 1.334 . S
C1012 C1013 1.287 . S
C1013 C1012 1.287 . S
C1013 C1014 1.524 . S
C1013 H1016 0.999 . S
C1014 H984 0.950 . S
C1014 C1013 1.524 . S
C1014 C1015 1.415 . S
C1015 H985 0.950 . S
C1015 C1010 1.363 . S
C1015 C1014 1.415 . S
H1016 C1013 0.999 . S
H1017 C998 0.913 . S
H1018 C1036 0.951 . S
H1019 C1038 0.951 . S
H1020 C1040 0.950 . S
H1021 C1041 0.950 . S
H1022 C1043 0.950 . S
H1023 C1046 0.950 . S
H1024 C1047 0.950 . S
H1025 C1049 0.950 . S
H1026 C1050 0.950 . S
H1027 C1051 0.951 . S
H1028 C1053 0.951 . S
H1029 C1055 0.950 . S
H1030 C1056 0.950 . S
H1031 C1058 0.950 . S
H1032 C1061 0.950 . S
H1033 C1062 0.950 . S
H1034 C1064 0.950 . S
H1035 C1065 0.950 . S
C1036 H1018 0.951 . S
C1036 C1037 1.366 . S
C1036 C1038 1.388 . S
C1037 C1036 1.366 . S
C1037 C1041 1.385 . S
C1038 H1019 0.951 . S
C1038 C1036 1.388 . S
C1038 C1039 1.366 . S
C1039 C1038 1.366 . S
C1039 C1040 1.414 . S
C1039 C1042 1.499 . S
C1040 H1020 0.950 . S
C1040 C1039 1.414 . S
C1040 C1041 1.374 . S
C1041 H1021 0.950 . S
C1041 C1037 1.385 . S
C1041 C1040 1.374 . S
C1042 C1039 1.499 . S
C1042 C1043 1.373 . S
C1042 C1044 1.389 . S
C1043 H1022 0.950 . S
C1043 C1042 1.373 . S
C1043 C1059 1.377 . S
C1044 C1042 1.389 . S
C1044 C1045 1.524 . S
C1044 C1058 1.377 . S
C1045 C1044 1.524 . S
C1045 C1046 1.397 . S
C1045 C1050 1.363 . S
C1046 H1023 0.950 . S
C1046 C1045 1.397 . S
C1046 C1047 1.334 . S
C1047 H1024 0.950 . S
C1047 C1046 1.334 . S
C1047 C1048 1.287 . S
C1048 C1047 1.287 . S
C1048 C1049 1.524 . S
C1048 H1067 0.913 . S
C1049 H1025 0.950 . S
C1049 C1048 1.524 . S
C1049 C1050 1.415 . S
C1050 H1026 0.950 . S
C1050 C1045 1.363 . S
C1050 C1049 1.415 . S
C1051 H1027 0.951 . S
C1051 C1052 1.366 . S
C1051 C1053 1.388 1_565 S
C1052 C1051 1.366 . S
C1052 C1056 1.385 . S
C1053 H1028 0.951 . S
C1053 C1051 1.388 1_545 S
C1053 C1054 1.377 . S
C1054 C1053 1.377 . S
C1054 C1055 1.381 1_545 S
C1054 C1057 1.519 . S
C1055 H1029 0.950 . S
C1055 C1054 1.381 1_565 S
C1055 C1056 1.374 . S
C1056 H1030 0.950 . S
C1056 C1052 1.385 . S
C1056 C1055 1.374 . S
C1057 C1054 1.519 . S
C1057 C1058 1.373 . S
C1057 C1059 1.389 . S
C1058 H1031 0.950 . S
C1058 C1044 1.377 . S
C1058 C1057 1.373 . S
C1059 C1043 1.377 . S
C1059 C1057 1.389 . S
C1059 C1060 1.524 . S
C1060 C1059 1.524 . S
C1060 C1061 1.397 1_545 S
C1060 C1065 1.363 . S
C1061 H1032 0.950 . S
C1061 C1060 1.397 1_565 S
C1061 C1062 1.334 . S
C1062 H1033 0.950 . S
C1062 C1061 1.334 . S
C1062 C1063 1.287 . S
C1063 C1062 1.287 . S
C1063 C1064 1.524 1_565 S
C1063 H1066 0.999 . S
C1064 H1034 0.950 . S
C1064 C1063 1.524 1_545 S
C1064 C1065 1.415 . S
C1065 H1035 0.950 . S
C1065 C1060 1.363 . S
C1065 C1064 1.415 . S
H1066 C1063 0.999 . S
H1067 C1048 0.913 . S
H1068 C1086 0.951 . S
H1069 C1088 0.951 . S
H1070 C1090 0.950 . S
H1071 C1091 0.950 . S
H1072 C1093 0.950 . S
H1073 C1096 0.950 . S
H1074 C1097 0.950 . S
H1075 C1099 0.950 . S
H1076 C1100 0.950 . S
H1077 C1101 0.951 . S
H1078 C1103 0.951 . S
H1079 C1105 0.950 . S
H1080 C1106 0.950 . S
H1081 C1108 0.950 . S
H1082 C1111 0.950 . S
H1083 C1112 0.950 . S
H1084 C1114 0.950 . S
H1085 C1115 0.950 . S
C1086 H1068 0.951 . S
C1086 C1087 1.366 . S
C1086 C1088 1.388 . S
C1087 C1086 1.366 . S
C1087 C1091 1.385 . S
C1088 H1069 0.951 . S
C1088 C1086 1.388 . S
C1088 C1089 1.366 . S
C1089 C1088 1.366 . S
C1089 C1090 1.414 . S
C1089 C1092 1.499 . S
C1090 H1070 0.950 . S
C1090 C1089 1.414 . S
C1090 C1091 1.374 . S
C1091 H1071 0.950 . S
C1091 C1087 1.385 . S
C1091 C1090 1.374 . S
C1092 C1089 1.499 . S
C1092 C1093 1.373 . S
C1092 C1094 1.389 . S
C1093 H1072 0.950 . S
C1093 C1092 1.373 . S
C1093 C1109 1.377 . S
C1094 C1092 1.389 . S
C1094 C1095 1.524 . S
C1094 C1108 1.377 . S
C1095 C1094 1.524 . S
C1095 C1096 1.397 . S
C1095 C1100 1.363 . S
C1096 H1073 0.950 . S
C1096 C1095 1.397 . S
C1096 C1097 1.334 . S
C1097 H1074 0.950 . S
C1097 C1096 1.334 . S
C1097 C1098 1.287 . S
C1098 C1097 1.287 . S
C1098 C1099 1.524 . S
C1098 H1117 0.913 . S
C1099 H1075 0.950 . S
C1099 C1098 1.524 . S
C1099 C1100 1.415 . S
C1100 H1076 0.950 . S
C1100 C1095 1.363 . S
C1100 C1099 1.415 . S
C1101 H1077 0.951 . S
C1101 C1102 1.366 . S
C1101 C1103 1.388 . S
C1102 C1101 1.366 . S
C1102 C1106 1.385 . S
C1103 H1078 0.951 . S
C1103 C1101 1.388 . S
C1103 C1104 1.366 . S
C1104 C1103 1.366 . S
C1104 C1105 1.414 . S
C1104 C1107 1.499 . S
C1105 H1079 0.950 . S
C1105 C1104 1.414 . S
C1105 C1106 1.374 . S
C1106 H1080 0.950 . S
C1106 C1102 1.385 . S
C1106 C1105 1.374 . S
C1107 C1104 1.499 . S
C1107 C1108 1.373 . S
C1107 C1109 1.389 . S
C1108 H1081 0.950 . S
C1108 C1094 1.377 . S
C1108 C1107 1.373 . S
C1109 C1093 1.377 . S
C1109 C1107 1.389 . S
C1109 C1110 1.524 . S
C1110 C1109 1.524 . S
C1110 C1111 1.397 . S
C1110 C1115 1.363 . S
C1111 H1082 0.950 . S
C1111 C1110 1.397 . S
C1111 C1112 1.334 . S
C1112 H1083 0.950 . S
C1112 C1111 1.334 . S
C1112 C1113 1.287 . S
C1113 C1112 1.287 . S
C1113 C1114 1.524 . S
C1113 H1116 0.999 . S
C1114 H1084 0.950 . S
C1114 C1113 1.524 . S
C1114 C1115 1.415 . S
C1115 H1085 0.950 . S
C1115 C1110 1.363 . S
C1115 C1114 1.415 . S
H1116 C1113 0.999 . S
H1117 C1098 0.913 . S
H1118 C1136 0.951 . S
H1119 C1138 0.951 . S
H1120 C1140 0.950 . S
H1121 C1141 0.950 . S
H1122 C1143 0.950 . S
H1123 C1146 0.950 . S
H1124 C1147 0.950 . S
H1125 C1149 0.950 . S
H1126 C1150 0.949 . S
H1127 C1151 0.951 . S
H1128 C1153 0.951 . S
H1129 C1155 0.950 1_556 S
H1130 C1156 0.950 . S
H1131 C1158 0.950 . S
H1132 C1161 0.928 1_455 S
H1133 C1162 0.950 1_455 S
H1134 C1164 0.950 . S
H1135 C1165 0.950 . S
C1136 H1118 0.951 . S
C1136 C1137 1.366 . S
C1136 C1138 1.388 . S
C1137 C1136 1.366 . S
C1137 C1141 1.385 . S
C1138 H1119 0.951 . S
C1138 C1136 1.388 . S
C1138 C1139 1.366 . S
C1139 C1138 1.366 . S
C1139 C1140 1.414 . S
C1139 C1142 1.499 . S
C1140 H1120 0.950 . S
C1140 C1139 1.414 . S
C1140 C1141 1.374 . S
C1141 H1121 0.950 . S
C1141 C1137 1.385 . S
C1141 C1140 1.374 . S
C1142 C1139 1.499 . S
C1142 C1143 1.373 . S
C1142 C1144 1.389 . S
C1143 H1122 0.950 . S
C1143 C1142 1.373 . S
C1143 C1159 1.377 . S
C1144 C1142 1.389 . S
C1144 C1145 1.524 . S
C1144 C1158 1.377 . S
C1145 C1144 1.524 . S
C1145 C1146 1.397 . S
C1145 C1150 1.363 . S
C1146 H1123 0.950 . S
C1146 C1145 1.397 . S
C1146 C1147 1.334 . S
C1147 H1124 0.950 . S
C1147 C1146 1.334 . S
C1147 C1148 1.287 . S
C1148 C1147 1.287 . S
C1148 C1149 1.524 . S
C1148 H1167 0.913 . S
C1149 H1125 0.950 . S
C1149 C1148 1.524 . S
C1149 C1150 1.415 . S
C1150 H1126 0.949 . S
C1150 C1145 1.363 . S
C1150 C1149 1.415 . S
C1151 H1127 0.951 . S
C1151 C1152 1.366 . S
C1151 C1153 1.388 1_455 S
C1152 C1151 1.366 . S
C1152 C1156 1.385 . S
C1153 H1128 0.951 . S
C1153 C1151 1.388 1_655 S
C1153 C1154 1.366 . S
C1154 C1153 1.366 . S
C1154 C1155 1.414 1_655 S
C1154 C1157 1.499 1_554 S
C1155 H1129 0.950 1_554 S
C1155 C1154 1.414 1_455 S
C1155 C1156 1.374 . S
C1156 H1130 0.950 . S
C1156 C1152 1.385 . S
C1156 C1155 1.374 . S
C1157 C1154 1.499 1_556 S
C1157 C1158 1.373 . S
C1157 C1159 1.389 . S
C1158 H1131 0.950 . S
C1158 C1144 1.377 . S
C1158 C1157 1.373 . S
C1159 C1143 1.377 . S
C1159 C1157 1.389 . S
C1159 C1160 1.524 1_556 S
C1160 C1159 1.524 1_554 S
C1160 C1161 1.397 . S
C1160 C1165 1.363 . S
C1161 H1132 0.928 1_655 S
C1161 C1160 1.397 . S
C1161 C1162 1.334 . S
C1162 H1133 0.950 1_655 S
C1162 C1161 1.334 . S
C1162 C1163 1.287 . S
C1163 C1162 1.287 . S
C1163 C1164 1.524 . S
C1163 H1166 0.999 . S
C1164 H1134 0.950 . S
C1164 C1163 1.524 . S
C1164 C1165 1.415 . S
C1165 H1135 0.950 . S
C1165 C1160 1.363 . S
C1165 C1164 1.415 . S
H1166 C1163 0.999 . S
H1167 C1148 0.913 . S
H1168 C1186 0.951 . S
H1169 C1188 0.951 . S
H1170 C1190 0.950 . S
H1171 C1191 0.950 . S
H1172 C1193 0.950 . S
H1173 C1196 0.950 . S
H1174 C1197 0.950 . S
H1175 C1199 0.950 . S
H1176 C1200 0.950 . S
H1177 C1201 0.951 . S
H1178 C1203 0.951 . S
H1179 C1205 0.950 . S
H1180 C1206 0.950 . S
H1181 C1208 0.950 . S
H1182 C1211 0.950 . S
H1183 C1212 0.950 . S
H1184 C1214 0.950 . S
H1185 C1215 0.950 . S
C1186 H1168 0.951 . S
C1186 C1187 1.366 . S
C1186 C1188 1.388 . S
C1187 C1186 1.366 . S
C1187 C1191 1.385 . S
C1188 H1169 0.951 . S
C1188 C1186 1.388 . S
C1188 C1189 1.366 . S
C1189 C1188 1.366 . S
C1189 C1190 1.414 . S
C1189 C1192 1.499 . S
C1190 H1170 0.950 . S
C1190 C1189 1.414 . S
C1190 C1191 1.374 . S
C1191 H1171 0.950 . S
C1191 C1187 1.385 . S
C1191 C1190 1.374 . S
C1192 C1189 1.499 . S
C1192 C1193 1.373 . S
C1192 C1194 1.389 . S
C1193 H1172 0.950 . S
C1193 C1192 1.373 . S
C1193 C1209 1.377 . S
C1194 C1192 1.389 . S
C1194 C1195 1.524 . S
C1194 C1208 1.377 . S
C1195 C1194 1.524 . S
C1195 C1196 1.397 . S
C1195 C1200 1.363 . S
C1196 H1173 0.950 . S
C1196 C1195 1.397 . S
C1196 C1197 1.334 . S
C1197 H1174 0.950 . S
C1197 C1196 1.334 . S
C1197 C1198 1.287 . S
C1198 C1197 1.287 . S
C1198 C1199 1.524 . S
C1198 H1217 0.913 . S
C1199 H1175 0.950 . S
C1199 C1198 1.524 . S
C1199 C1200 1.415 . S
C1200 H1176 0.950 . S
C1200 C1195 1.363 . S
C1200 C1199 1.415 . S
C1201 H1177 0.951 . S
C1201 C1202 1.366 . S
C1201 C1203 1.388 . S
C1202 C1201 1.366 . S
C1202 C1206 1.385 . S
C1203 H1178 0.951 . S
C1203 C1201 1.388 . S
C1203 C1204 1.366 1_545 S
C1204 C1203 1.366 1_565 S
C1204 C1205 1.414 . S
C1204 C1207 1.499 . S
C1205 H1179 0.950 . S
C1205 C1204 1.414 . S
C1205 C1206 1.374 1_565 S
C1206 H1180 0.950 . S
C1206 C1202 1.385 . S
C1206 C1205 1.374 1_545 S
C1207 C1204 1.499 . S
C1207 C1208 1.373 . S
C1207 C1209 1.389 . S
C1208 H1181 0.950 . S
C1208 C1194 1.377 . S
C1208 C1207 1.373 . S
C1209 C1193 1.377 . S
C1209 C1207 1.389 . S
C1209 C1210 1.524 . S
C1210 C1209 1.524 . S
C1210 C1211 1.397 . S
C1210 C1215 1.363 . S
C1211 H1182 0.950 . S
C1211 C1210 1.397 . S
C1211 C1212 1.334 . S
C1212 H1183 0.950 . S
C1212 C1211 1.334 . S
C1212 C1213 1.287 . S
C1213 C1212 1.287 . S
C1213 C1214 1.524 . S
C1213 H1216 0.999 . S
C1214 H1184 0.950 . S
C1214 C1213 1.524 . S
C1214 C1215 1.415 . S
C1215 H1185 0.950 . S
C1215 C1210 1.363 . S
C1215 C1214 1.415 . S
H1216 C1213 0.999 . S
H1217 C1198 0.913 . S
H1218 C1236 0.951 . S
H1219 C1238 0.951 . S
H1220 C1240 0.950 . S
H1221 C1241 0.950 . S
H1222 C1243 0.950 . S
H1223 C1246 0.950 . S
H1224 C1247 0.950 . S
H1225 C1249 0.950 . S
H1226 C1250 0.950 . S
H1227 C1251 0.951 . S
H1228 C1253 0.951 . S
H1229 C1255 0.950 . S
H1230 C1256 0.950 . S
H1231 C1258 0.950 . S
H1232 C1261 0.950 . S
H1233 C1262 0.950 . S
H1234 C1264 0.950 . S
H1235 C1265 0.950 . S
C1236 H1218 0.951 . S
C1236 C1237 1.366 . S
C1236 C1238 1.388 . S
C1237 C1236 1.366 . S
C1237 C1241 1.385 . S
C1238 H1219 0.951 . S
C1238 C1236 1.388 . S
C1238 C1239 1.366 . S
C1239 C1238 1.366 . S
C1239 C1240 1.414 . S
C1239 C1242 1.499 . S
C1240 H1220 0.950 . S
C1240 C1239 1.414 . S
C1240 C1241 1.374 . S
C1241 H1221 0.950 . S
C1241 C1237 1.385 . S
C1241 C1240 1.374 . S
C1242 C1239 1.499 . S
C1242 C1243 1.373 . S
C1242 C1244 1.389 . S
C1243 H1222 0.950 . S
C1243 C1242 1.373 . S
C1243 C1259 1.377 . S
C1244 C1242 1.389 . S
C1244 C1245 1.524 . S
C1244 C1258 1.377 . S
C1245 C1244 1.524 . S
C1245 C1246 1.397 . S
C1245 C1250 1.363 . S
C1246 H1223 0.950 . S
C1246 C1245 1.397 . S
C1246 C1247 1.334 . S
C1247 H1224 0.950 . S
C1247 C1246 1.334 . S
C1247 C1248 1.287 . S
C1248 C1247 1.287 . S
C1248 C1249 1.524 . S
C1248 H1267 0.913 . S
C1249 H1225 0.950 . S
C1249 C1248 1.524 . S
C1249 C1250 1.415 . S
C1250 H1226 0.950 . S
C1250 C1245 1.363 . S
C1250 C1249 1.415 . S
C1251 H1227 0.951 . S
C1251 C1252 1.366 . S
C1251 C1253 1.388 . S
C1252 C1251 1.366 . S
C1252 C1256 1.385 . S
C1253 H1228 0.951 . S
C1253 C1251 1.388 . S
C1253 C1254 1.366 . S
C1254 C1253 1.366 . S
C1254 C1255 1.414 . S
C1254 C1257 1.499 . S
C1255 H1229 0.950 . S
C1255 C1254 1.414 . S
C1255 C1256 1.374 . S
C1256 H1230 0.950 . S
C1256 C1252 1.385 . S
C1256 C1255 1.374 . S
C1257 C1254 1.499 . S
C1257 C1258 1.373 . S
C1257 C1259 1.389 . S
C1258 H1231 0.950 . S
C1258 C1244 1.377 . S
C1258 C1257 1.373 . S
C1259 C1243 1.377 . S
C1259 C1257 1.389 . S
C1259 C1260 1.524 . S
C1260 C1259 1.524 . S
C1260 C1261 1.397 . S
C1260 C1265 1.363 . S
C1261 H1232 0.950 . S
C1261 C1260 1.397 . S
C1261 C1262 1.334 . S
C1262 H1233 0.950 . S
C1262 C1261 1.334 . S
C1262 C1263 1.287 . S
C1263 C1262 1.287 . S
C1263 C1264 1.524 . S
C1263 H1266 0.999 . S
C1264 H1234 0.950 . S
C1264 C1263 1.524 . S
C1264 C1265 1.415 . S
C1265 H1235 0.950 . S
C1265 C1260 1.363 . S
C1265 C1264 1.415 . S
H1266 C1263 0.999 . S
H1267 C1248 0.913 . S
H1268 C1286 0.951 . S
H1269 C1288 0.951 . S
H1270 C1290 0.950 . S
H1271 C1291 0.950 . S
H1272 C1293 0.950 . S
H1273 C1296 0.950 . S
H1274 C1297 0.950 . S
H1275 C1299 0.950 . S
H1276 C1300 0.950 . S
H1277 C1301 0.951 . S
H1278 C1303 0.951 1_455 S
H1279 C1305 0.950 . S
H1280 C1306 0.950 . S
H1281 C1308 0.950 . S
H1282 C1311 0.950 . S
H1283 C1312 0.950 . S
H1284 C1314 0.950 . S
H1285 C1315 0.950 . S
C1286 H1268 0.951 . S
C1286 C1287 1.366 . S
C1286 C1288 1.388 . S
C1287 C1286 1.366 . S
C1287 C1291 1.385 . S
C1288 H1269 0.951 . S
C1288 C1286 1.388 . S
C1288 C1289 1.366 . S
C1289 C1288 1.366 . S
C1289 C1290 1.414 . S
C1289 C1292 1.499 . S
C1290 H1270 0.950 . S
C1290 C1289 1.414 . S
C1290 C1291 1.374 . S
C1291 H1271 0.950 . S
C1291 C1287 1.385 . S
C1291 C1290 1.374 . S
C1292 C1289 1.499 . S
C1292 C1293 1.373 . S
C1292 C1294 1.389 . S
C1293 H1272 0.950 . S
C1293 C1292 1.373 . S
C1293 C1309 1.377 . S
C1294 C1292 1.389 . S
C1294 C1295 1.524 . S
C1294 C1308 1.377 . S
C1295 C1294 1.524 . S
C1295 C1296 1.397 . S
C1295 C1300 1.363 . S
C1296 H1273 0.950 . S
C1296 C1295 1.397 . S
C1296 C1297 1.334 . S
C1297 H1274 0.950 . S
C1297 C1296 1.334 . S
C1297 C1298 1.287 . S
C1298 C1297 1.287 . S
C1298 C1299 1.524 . S
C1298 H1317 0.913 . S
C1299 H1275 0.950 . S
C1299 C1298 1.524 . S
C1299 C1300 1.415 . S
C1300 H1276 0.950 . S
C1300 C1295 1.363 . S
C1300 C1299 1.415 . S
C1301 H1277 0.951 . S
C1301 C1302 1.366 . S
C1301 C1303 1.388 . S
C1302 C1301 1.366 . S
C1302 C1306 1.385 . S
C1303 H1278 0.951 1_655 S
C1303 C1301 1.388 . S
C1303 C1304 1.371 1_655 S
C1304 C1303 1.371 1_455 S
C1304 C1305 1.395 1_455 S
C1304 C1307 1.512 . S
C1305 H1279 0.950 . S
C1305 C1304 1.395 1_655 S
C1305 C1306 1.374 . S
C1306 H1280 0.950 . S
C1306 C1302 1.385 . S
C1306 C1305 1.374 . S
C1307 C1304 1.512 . S
C1307 C1308 1.373 . S
C1307 C1309 1.389 . S
C1308 H1281 0.950 . S
C1308 C1294 1.377 . S
C1308 C1307 1.373 . S
C1309 C1293 1.377 . S
C1309 C1307 1.389 . S
C1309 C1310 1.524 1_455 S
C1310 C1309 1.524 1_655 S
C1310 C1311 1.397 . S
C1310 C1315 1.363 1_655 S
C1311 H1282 0.950 . S
C1311 C1310 1.397 . S
C1311 C1312 1.334 . S
C1312 H1283 0.950 . S
C1312 C1311 1.334 . S
C1312 C1313 1.287 . S
C1313 C1312 1.287 . S
C1313 C1314 1.524 . S
C1313 H1316 0.999 . S
C1314 H1284 0.950 . S
C1314 C1313 1.524 . S
C1314 C1315 1.415 1_655 S
C1315 H1285 0.950 . S
C1315 C1310 1.363 1_455 S
C1315 C1314 1.415 1_455 S
H1316 C1313 0.999 . S
H1317 C1298 0.913 . S
H1318 C1336 0.951 . S
H1319 C1338 0.951 . S
H1320 C1340 0.950 . S
H1321 C1341 0.950 . S
H1322 C1343 0.950 . S
H1323 C1346 0.950 . S
H1324 C1347 0.950 . S
H1325 C1349 0.950 . S
H1326 C1350 0.950 . S
H1327 C1351 0.951 . S
H1328 C1353 0.951 . S
H1329 C1355 0.950 . S
H1330 C1356 0.950 . S
H1331 C1358 0.950 . S
H1332 C1361 0.950 . S
H1333 C1362 0.950 . S
H1334 C1364 0.950 . S
H1335 C1365 0.950 . S
C1336 H1318 0.951 . S
C1336 C1337 1.366 . S
C1336 C1338 1.388 . S
C1337 C1336 1.366 . S
C1337 C1341 1.385 . S
C1338 H1319 0.951 . S
C1338 C1336 1.388 . S
C1338 C1339 1.366 1_565 S
C1339 C1338 1.366 1_545 S
C1339 C1340 1.414 . S
C1339 C1342 1.499 . S
C1340 H1320 0.950 . S
C1340 C1339 1.414 . S
C1340 C1341 1.374 1_545 S
C1341 H1321 0.950 . S
C1341 C1337 1.385 . S
C1341 C1340 1.374 1_565 S
C1342 C1339 1.499 . S
C1342 C1343 1.373 . S
C1342 C1344 1.389 . S
C1343 H1322 0.950 . S
C1343 C1342 1.373 . S
C1343 C1359 1.377 . S
C1344 C1342 1.389 . S
C1344 C1345 1.524 1_545 S
C1344 C1358 1.377 . S
C1345 C1344 1.524 1_565 S
C1345 C1346 1.397 . S
C1345 C1350 1.363 . S
C1346 H1323 0.950 . S
C1346 C1345 1.397 . S
C1346 C1347 1.334 . S
C1347 H1324 0.950 . S
C1347 C1346 1.334 . S
C1347 C1348 1.287 . S
C1348 C1347 1.287 . S
C1348 C1349 1.524 . S
C1348 H1367 0.913 . S
C1349 H1325 0.950 . S
C1349 C1348 1.524 . S
C1349 C1350 1.415 . S
C1350 H1326 0.950 . S
C1350 C1345 1.363 . S
C1350 C1349 1.415 . S
C1351 H1327 0.951 . S
C1351 C1352 1.366 . S
C1351 C1353 1.388 . S
C1352 C1351 1.366 . S
C1352 C1356 1.385 . S
C1353 H1328 0.951 . S
C1353 C1351 1.388 . S
C1353 C1354 1.366 . S
C1354 C1353 1.366 . S
C1354 C1355 1.414 . S
C1354 C1357 1.499 . S
C1355 H1329 0.950 . S
C1355 C1354 1.414 . S
C1355 C1356 1.374 . S
C1356 H1330 0.950 . S
C1356 C1352 1.385 . S
C1356 C1355 1.374 . S
C1357 C1354 1.499 . S
C1357 C1358 1.373 . S
C1357 C1359 1.389 . S
C1358 H1331 0.950 . S
C1358 C1344 1.377 . S
C1358 C1357 1.373 . S
C1359 C1343 1.377 . S
C1359 C1357 1.389 . S
C1359 C1360 1.524 . S
C1360 C1359 1.524 . S
C1360 C1361 1.397 . S
C1360 C1365 1.363 . S
C1361 H1332 0.950 . S
C1361 C1360 1.397 . S
C1361 C1362 1.334 . S
C1362 H1333 0.950 . S
C1362 C1361 1.334 . S
C1362 C1363 1.287 . S
C1363 C1362 1.287 . S
C1363 C1364 1.524 . S
C1363 H1366 0.999 . S
C1364 H1334 0.950 . S
C1364 C1363 1.524 . S
C1364 C1365 1.415 . S
C1365 H1335 0.950 . S
C1365 C1360 1.363 . S
C1365 C1364 1.415 . S
H1366 C1363 0.999 . S
H1367 C1348 0.913 . S
C187 C120 1.233 . S
C202 C8 1.233 . S
C237 C22 1.233 . S
C252 C134 1.232 . S
C287 C36 1.232 . S
C302 C148 1.232 . S
C337 C50 1.233 . S
C352 C162 1.232 . S
C387 C92 1.232 . S
C402 C64 1.233 . S
C437 C78 1.232 . S
C452 C106 1.232 . S
C487 C135 0.804 . S
C502 C9 0.803 . S
C537 C23 0.804 . S
C552 C149 0.803 . S
C587 C163 0.803 . S
C602 C37 0.802 . S
C637 C51 0.803 . S
C652 C93 0.803 . S
C687 C107 0.802 . S
C702 C65 0.804 . S
C737 C121 0.802 . S
C752 C79 0.803 . S
C787 C3 1.381 . S
C802 C77 1.348 . S
C837 C17 1.381 . S
C852 C7 1.348 . S
C887 C21 1.348 . S
C902 C31 1.380 . S
C937 C45 1.380 . S
C952 C35 1.348 . S
C987 C59 1.380 . S
C1002 C49 1.347 . S
C1037 C73 1.381 . S
C1052 C63 1.348 . S
C1087 C87 1.381 . S
C1102 C105 1.348 . S
C1137 C101 1.381 . S
C1152 C119 1.348 . S
C1187 C115 1.380 . S
C1202 C133 1.347 . S
C1237 C129 1.381 . S
C1252 C147 1.348 . S
C1287 C143 1.381 . S
C1302 C161 1.348 . S
C1337 C91 1.348 . S
C1352 C157 1.381 . S
