# Generated by pormake.
# Topology ana, (4)-cn, num edge types: 1
# Building blocks:
#     Node 0, Type 0, BuildingBlock: QUQFOY_clean_sbu_1, # of connection points: 4
#     Node 1, Type 0, BuildingBlock: QUQFOY_clean_sbu_1, # of connection points: 4
#     Node 2, Type 0, BuildingBlock: QUQFOY_clean_sbu_1, # of connection points: 4
#     Node 3, Type 0, BuildingBlock: QUQFOY_clean_sbu_1, # of connection points: 4
#     Node 4, Type 0, BuildingBlock: QUQFOY_clean_sbu_1, # of connection points: 4
#     Node 5, Type 0, BuildingBlock: QUQFOY_clean_sbu_1, # of connection points: 4
#     Node 6, Type 0, BuildingBlock: QUQFOY_clean_sbu_1, # of connection points: 4
#     Node 7, Type 0, BuildingBlock: QUQFOY_clean_sbu_1, # of connection points: 4
#     Node 8, Type 0, BuildingBlock: QUQFOY_clean_sbu_1, # of connection points: 4
#     Node 9, Type 0, BuildingBlock: QUQFOY_clean_sbu_1, # of connection points: 4
#     Node 10, Type 0, BuildingBlock: QUQFOY_clean_sbu_1, # of connection points: 4
#     Node 11, Type 0, BuildingBlock: QUQFOY_clean_sbu_1, # of connection points: 4
#     Node 12, Type 0, BuildingBlock: QUQFOY_clean_sbu_1, # of connection points: 4
#     Node 13, Type 0, BuildingBlock: QUQFOY_clean_sbu_1, # of connection points: 4
#     Node 14, Type 0, BuildingBlock: QUQFOY_clean_sbu_1, # of connection points: 4
#     Node 15, Type 0, BuildingBlock: QUQFOY_clean_sbu_1, # of connection points: 4
#     Node 16, Type 0, BuildingBlock: QUQFOY_clean_sbu_1, # of connection points: 4
#     Node 17, Type 0, BuildingBlock: QUQFOY_clean_sbu_1, # of connection points: 4
#     Node 18, Type 0, BuildingBlock: QUQFOY_clean_sbu_1, # of connection points: 4
#     Node 19, Type 0, BuildingBlock: QUQFOY_clean_sbu_1, # of connection points: 4
#     Node 20, Type 0, BuildingBlock: QUQFOY_clean_sbu_1, # of connection points: 4
#     Node 21, Type 0, BuildingBlock: QUQFOY_clean_sbu_1, # of connection points: 4
#     Node 22, Type 0, BuildingBlock: QUQFOY_clean_sbu_1, # of connection points: 4
#     Node 23, Type 0, BuildingBlock: QUQFOY_clean_sbu_1, # of connection points: 4
#     Node 24, Type 0, BuildingBlock: QUQFOY_clean_sbu_1, # of connection points: 4
#     Node 25, Type 0, BuildingBlock: QUQFOY_clean_sbu_1, # of connection points: 4
#     Node 26, Type 0, BuildingBlock: QUQFOY_clean_sbu_1, # of connection points: 4
#     Node 27, Type 0, BuildingBlock: QUQFOY_clean_sbu_1, # of connection points: 4
#     Node 28, Type 0, BuildingBlock: QUQFOY_clean_sbu_1, # of connection points: 4
#     Node 29, Type 0, BuildingBlock: QUQFOY_clean_sbu_1, # of connection points: 4
#     Node 30, Type 0, BuildingBlock: QUQFOY_clean_sbu_1, # of connection points: 4
#     Node 31, Type 0, BuildingBlock: QUQFOY_clean_sbu_1, # of connection points: 4
#     Node 32, Type 0, BuildingBlock: QUQFOY_clean_sbu_1, # of connection points: 4
#     Node 33, Type 0, BuildingBlock: QUQFOY_clean_sbu_1, # of connection points: 4
#     Node 34, Type 0, BuildingBlock: QUQFOY_clean_sbu_1, # of connection points: 4
#     Node 35, Type 0, BuildingBlock: QUQFOY_clean_sbu_1, # of connection points: 4
#     Node 36, Type 0, BuildingBlock: QUQFOY_clean_sbu_1, # of connection points: 4
#     Node 37, Type 0, BuildingBlock: QUQFOY_clean_sbu_1, # of connection points: 4
#     Node 38, Type 0, BuildingBlock: QUQFOY_clean_sbu_1, # of connection points: 4
#     Node 39, Type 0, BuildingBlock: QUQFOY_clean_sbu_1, # of connection points: 4
#     Node 40, Type 0, BuildingBlock: QUQFOY_clean_sbu_1, # of connection points: 4
#     Node 41, Type 0, BuildingBlock: QUQFOY_clean_sbu_1, # of connection points: 4
#     Node 42, Type 0, BuildingBlock: QUQFOY_clean_sbu_1, # of connection points: 4
#     Node 43, Type 0, BuildingBlock: QUQFOY_clean_sbu_1, # of connection points: 4
#     Node 44, Type 0, BuildingBlock: QUQFOY_clean_sbu_1, # of connection points: 4
#     Node 45, Type 0, BuildingBlock: QUQFOY_clean_sbu_1, # of connection points: 4
#     Node 46, Type 0, BuildingBlock: QUQFOY_clean_sbu_1, # of connection points: 4
#     Node 47, Type 0, BuildingBlock: QUQFOY_clean_sbu_1, # of connection points: 4
#     Edge 48, Type (0, 0), BuildingBlock: ZUJKAS_clean_linker_0, # of connection points: 2
#     Edge 49, Type (0, 0), BuildingBlock: ZUJKAS_clean_linker_0, # of connection points: 2
#     Edge 50, Type (0, 0), BuildingBlock: ZUJKAS_clean_linker_0, # of connection points: 2
#     Edge 51, Type (0, 0), BuildingBlock: ZUJKAS_clean_linker_0, # of connection points: 2
#     Edge 52, Type (0, 0), BuildingBlock: ZUJKAS_clean_linker_0, # of connection points: 2
#     Edge 53, Type (0, 0), BuildingBlock: ZUJKAS_clean_linker_0, # of connection points: 2
#     Edge 54, Type (0, 0), BuildingBlock: ZUJKAS_clean_linker_0, # of connection points: 2
#     Edge 55, Type (0, 0), BuildingBlock: ZUJKAS_clean_linker_0, # of connection points: 2
#     Edge 56, Type (0, 0), BuildingBlock: ZUJKAS_clean_linker_0, # of connection points: 2
#     Edge 57, Type (0, 0), BuildingBlock: ZUJKAS_clean_linker_0, # of connection points: 2
#     Edge 58, Type (0, 0), BuildingBlock: ZUJKAS_clean_linker_0, # of connection points: 2
#     Edge 59, Type (0, 0), BuildingBlock: ZUJKAS_clean_linker_0, # of connection points: 2
#     Edge 60, Type (0, 0), BuildingBlock: ZUJKAS_clean_linker_0, # of connection points: 2
#     Edge 61, Type (0, 0), BuildingBlock: ZUJKAS_clean_linker_0, # of connection points: 2
#     Edge 62, Type (0, 0), BuildingBlock: ZUJKAS_clean_linker_0, # of connection points: 2
#     Edge 63, Type (0, 0), BuildingBlock: ZUJKAS_clean_linker_0, # of connection points: 2
#     Edge 64, Type (0, 0), BuildingBlock: ZUJKAS_clean_linker_0, # of connection points: 2
#     Edge 65, Type (0, 0), BuildingBlock: ZUJKAS_clean_linker_0, # of connection points: 2
#     Edge 66, Type (0, 0), BuildingBlock: ZUJKAS_clean_linker_0, # of connection points: 2
#     Edge 67, Type (0, 0), BuildingBlock: ZUJKAS_clean_linker_0, # of connection points: 2
#     Edge 68, Type (0, 0), BuildingBlock: ZUJKAS_clean_linker_0, # of connection points: 2
#     Edge 69, Type (0, 0), BuildingBlock: ZUJKAS_clean_linker_0, # of connection points: 2
#     Edge 70, Type (0, 0), BuildingBlock: ZUJKAS_clean_linker_0, # of connection points: 2
#     Edge 71, Type (0, 0), BuildingBlock: ZUJKAS_clean_linker_0, # of connection points: 2
#     Edge 72, Type (0, 0), BuildingBlock: ZUJKAS_clean_linker_0, # of connection points: 2
#     Edge 73, Type (0, 0), BuildingBlock: ZUJKAS_clean_linker_0, # of connection points: 2
#     Edge 74, Type (0, 0), BuildingBlock: ZUJKAS_clean_linker_0, # of connection points: 2
#     Edge 75, Type (0, 0), BuildingBlock: ZUJKAS_clean_linker_0, # of connection points: 2
#     Edge 76, Type (0, 0), BuildingBlock: ZUJKAS_clean_linker_0, # of connection points: 2
#     Edge 77, Type (0, 0), BuildingBlock: ZUJKAS_clean_linker_0, # of connection points: 2
#     Edge 78, Type (0, 0), BuildingBlock: ZUJKAS_clean_linker_0, # of connection points: 2
#     Edge 79, Type (0, 0), BuildingBlock: ZUJKAS_clean_linker_0, # of connection points: 2
#     Edge 80, Type (0, 0), BuildingBlock: ZUJKAS_clean_linker_0, # of connection points: 2
#     Edge 81, Type (0, 0), BuildingBlock: ZUJKAS_clean_linker_0, # of connection points: 2
#     Edge 82, Type (0, 0), BuildingBlock: ZUJKAS_clean_linker_0, # of connection points: 2
#     Edge 83, Type (0, 0), BuildingBlock: ZUJKAS_clean_linker_0, # of connection points: 2
#     Edge 84, Type (0, 0), BuildingBlock: ZUJKAS_clean_linker_0, # of connection points: 2
#     Edge 85, Type (0, 0), BuildingBlock: ZUJKAS_clean_linker_0, # of connection points: 2
#     Edge 86, Type (0, 0), BuildingBlock: ZUJKAS_clean_linker_0, # of connection points: 2
#     Edge 87, Type (0, 0), BuildingBlock: ZUJKAS_clean_linker_0, # of connection points: 2
#     Edge 88, Type (0, 0), BuildingBlock: ZUJKAS_clean_linker_0, # of connection points: 2
#     Edge 89, Type (0, 0), BuildingBlock: ZUJKAS_clean_linker_0, # of connection points: 2
#     Edge 90, Type (0, 0), BuildingBlock: ZUJKAS_clean_linker_0, # of connection points: 2
#     Edge 91, Type (0, 0), BuildingBlock: ZUJKAS_clean_linker_0, # of connection points: 2
#     Edge 92, Type (0, 0), BuildingBlock: ZUJKAS_clean_linker_0, # of connection points: 2
#     Edge 93, Type (0, 0), BuildingBlock: ZUJKAS_clean_linker_0, # of connection points: 2
#     Edge 94, Type (0, 0), BuildingBlock: ZUJKAS_clean_linker_0, # of connection points: 2
#     Edge 95, Type (0, 0), BuildingBlock: ZUJKAS_clean_linker_0, # of connection points: 2
#     Edge 96, Type (0, 0), BuildingBlock: ZUJKAS_clean_linker_0, # of connection points: 2
#     Edge 97, Type (0, 0), BuildingBlock: ZUJKAS_clean_linker_0, # of connection points: 2
#     Edge 98, Type (0, 0), BuildingBlock: ZUJKAS_clean_linker_0, # of connection points: 2
#     Edge 99, Type (0, 0), BuildingBlock: ZUJKAS_clean_linker_0, # of connection points: 2
#     Edge 100, Type (0, 0), BuildingBlock: ZUJKAS_clean_linker_0, # of connection points: 2
#     Edge 101, Type (0, 0), BuildingBlock: ZUJKAS_clean_linker_0, # of connection points: 2
#     Edge 102, Type (0, 0), BuildingBlock: ZUJKAS_clean_linker_0, # of connection points: 2
#     Edge 103, Type (0, 0), BuildingBlock: ZUJKAS_clean_linker_0, # of connection points: 2
#     Edge 104, Type (0, 0), BuildingBlock: ZUJKAS_clean_linker_0, # of connection points: 2
#     Edge 105, Type (0, 0), BuildingBlock: ZUJKAS_clean_linker_0, # of connection points: 2
#     Edge 106, Type (0, 0), BuildingBlock: ZUJKAS_clean_linker_0, # of connection points: 2
#     Edge 107, Type (0, 0), BuildingBlock: ZUJKAS_clean_linker_0, # of connection points: 2
#     Edge 108, Type (0, 0), BuildingBlock: ZUJKAS_clean_linker_0, # of connection points: 2
#     Edge 109, Type (0, 0), BuildingBlock: ZUJKAS_clean_linker_0, # of connection points: 2
#     Edge 110, Type (0, 0), BuildingBlock: ZUJKAS_clean_linker_0, # of connection points: 2
#     Edge 111, Type (0, 0), BuildingBlock: ZUJKAS_clean_linker_0, # of connection points: 2
#     Edge 112, Type (0, 0), BuildingBlock: ZUJKAS_clean_linker_0, # of connection points: 2
#     Edge 113, Type (0, 0), BuildingBlock: ZUJKAS_clean_linker_0, # of connection points: 2
#     Edge 114, Type (0, 0), BuildingBlock: ZUJKAS_clean_linker_0, # of connection points: 2
#     Edge 115, Type (0, 0), BuildingBlock: ZUJKAS_clean_linker_0, # of connection points: 2
#     Edge 116, Type (0, 0), BuildingBlock: ZUJKAS_clean_linker_0, # of connection points: 2
#     Edge 117, Type (0, 0), BuildingBlock: ZUJKAS_clean_linker_0, # of connection points: 2
#     Edge 118, Type (0, 0), BuildingBlock: ZUJKAS_clean_linker_0, # of connection points: 2
#     Edge 119, Type (0, 0), BuildingBlock: ZUJKAS_clean_linker_0, # of connection points: 2
#     Edge 120, Type (0, 0), BuildingBlock: ZUJKAS_clean_linker_0, # of connection points: 2
#     Edge 121, Type (0, 0), BuildingBlock: ZUJKAS_clean_linker_0, # of connection points: 2
#     Edge 122, Type (0, 0), BuildingBlock: ZUJKAS_clean_linker_0, # of connection points: 2
#     Edge 123, Type (0, 0), BuildingBlock: ZUJKAS_clean_linker_0, # of connection points: 2
#     Edge 124, Type (0, 0), BuildingBlock: ZUJKAS_clean_linker_0, # of connection points: 2
#     Edge 125, Type (0, 0), BuildingBlock: ZUJKAS_clean_linker_0, # of connection points: 2
#     Edge 126, Type (0, 0), BuildingBlock: ZUJKAS_clean_linker_0, # of connection points: 2
#     Edge 127, Type (0, 0), BuildingBlock: ZUJKAS_clean_linker_0, # of connection points: 2
#     Edge 128, Type (0, 0), BuildingBlock: ZUJKAS_clean_linker_0, # of connection points: 2
#     Edge 129, Type (0, 0), BuildingBlock: ZUJKAS_clean_linker_0, # of connection points: 2
#     Edge 130, Type (0, 0), BuildingBlock: ZUJKAS_clean_linker_0, # of connection points: 2
#     Edge 131, Type (0, 0), BuildingBlock: ZUJKAS_clean_linker_0, # of connection points: 2
#     Edge 132, Type (0, 0), BuildingBlock: ZUJKAS_clean_linker_0, # of connection points: 2
#     Edge 133, Type (0, 0), BuildingBlock: ZUJKAS_clean_linker_0, # of connection points: 2
#     Edge 134, Type (0, 0), BuildingBlock: ZUJKAS_clean_linker_0, # of connection points: 2
#     Edge 135, Type (0, 0), BuildingBlock: ZUJKAS_clean_linker_0, # of connection points: 2
#     Edge 136, Type (0, 0), BuildingBlock: ZUJKAS_clean_linker_0, # of connection points: 2
#     Edge 137, Type (0, 0), BuildingBlock: ZUJKAS_clean_linker_0, # of connection points: 2
#     Edge 138, Type (0, 0), BuildingBlock: ZUJKAS_clean_linker_0, # of connection points: 2
#     Edge 139, Type (0, 0), BuildingBlock: ZUJKAS_clean_linker_0, # of connection points: 2
#     Edge 140, Type (0, 0), BuildingBlock: ZUJKAS_clean_linker_0, # of connection points: 2
#     Edge 141, Type (0, 0), BuildingBlock: ZUJKAS_clean_linker_0, # of connection points: 2
#     Edge 142, Type (0, 0), BuildingBlock: ZUJKAS_clean_linker_0, # of connection points: 2
#     Edge 143, Type (0, 0), BuildingBlock: ZUJKAS_clean_linker_0, # of connection points: 2
# Relax obj value: 0.111
# Max RMSD: 0.188
# Mean RMSD: 0.143
data_MOF--net-ana--node1-QUQFOY_clean_sbu_1--edge1-ZUJKAS_clean_linker_0
_symmetry_space_group_name_H-M    P1
_symmetry_Int_Tables_number       1
_symmetry_cell_setting            triclinic
loop_
_symmetry_equiv_pos_as_xyz
'x, y, z'
_cell_length_a     85.842718
_cell_length_b     88.167721
_cell_length_c     86.653129
_cell_angle_alpha  91.089381
_cell_angle_beta   91.752803
_cell_angle_gamma 95.41823
loop_
_atom_site_label
_atom_site_type_symbol
_atom_site_fract_x
_atom_site_fract_y
_atom_site_fract_z
_atom_type_partial_charge
O0 O 0.1271 0.14574 0.42664 0.0
Cd1 Cd 0.12726 0.14989 0.40324 0.0
Cd2 Cd 0.12192 0.17791 0.41323 0.0
O3 O 0.12711 0.16959 0.43468 0.0
O4 O 0.13828 0.1332 0.39406 0.0
O5 O 0.14754 0.15748 0.39371 0.0
C6 C 0.14931 0.14337 0.39052 0.0
C7 C 0.13162 0.20242 0.40636 0.0
C8 C 0.12768 0.15558 0.4376 0.0
C9 C 0.09614 0.15975 0.3946 0.0
O10 O 0.1001 0.17108 0.40362 0.0
O11 O 0.10584 0.1501 0.39173 0.0
O12 O 0.12135 0.2002 0.41681 0.0
O13 O 0.13702 0.19062 0.40018 0.0
O14 O 0.0965 0.89837 0.66235 0.0
Cd15 Cd 0.08853 0.87818 0.67241 0.0
Cd16 Cd 0.09676 0.86711 0.64486 0.0
O17 O 0.10655 0.88899 0.64152 0.0
O18 O 0.08463 0.88465 0.69392 0.0
O19 O 0.10241 0.86903 0.68827 0.0
C20 C 0.09548 0.87653 0.69854 0.0
C21 C 0.1115 0.84641 0.64199 0.0
C22 C 0.10403 0.90034 0.65003 0.0
C23 C 0.06272 0.86347 0.65167 0.0
O24 O 0.07282 0.86296 0.6413 0.0
O25 O 0.06687 0.86809 0.66527 0.0
O26 O 0.10637 0.8534 0.6302 0.0
O27 O 0.10856 0.85147 0.6556 0.0
O28 O 0.39735 0.83172 0.90222 0.0
Cd29 Cd 0.37715 0.82601 0.91401 0.0
Cd30 Cd 0.37334 0.85563 0.90773 0.0
O31 O 0.39297 0.85479 0.89479 0.0
O32 O 0.37765 0.8037 0.91663 0.0
O33 O 0.35955 0.81344 0.90224 0.0
C34 C 0.36559 0.80156 0.90737 0.0
C35 C 0.34986 0.86313 0.89788 0.0
C36 C 0.40141 0.8437 0.89484 0.0
C37 C 0.3766 0.84805 0.94099 0.0
O38 O 0.3767 0.85858 0.93119 0.0
O39 O 0.37578 0.83417 0.9365 0.0
O40 O 0.3618 0.87291 0.90077 0.0
O41 O 0.35154 0.84886 0.89987 0.0
O42 O 0.42903 0.1329 0.1384 0.0
Cd43 Cd 0.40501 0.12981 0.14046 0.0
Cd44 Cd 0.41282 0.12145 0.16892 0.0
O45 O 0.43483 0.13046 0.16316 0.0
O46 O 0.39502 0.14259 0.12504 0.0
O47 O 0.39469 0.14687 0.15035 0.0
C48 C 0.39101 0.15076 0.1365 0.0
C49 C 0.40443 0.12517 0.19399 0.0
C50 C 0.43909 0.13341 0.14954 0.0
C51 C 0.39711 0.09736 0.14676 0.0
O52 O 0.40486 0.10046 0.15932 0.0
O53 O 0.39444 0.10792 0.13757 0.0
O54 O 0.41498 0.11618 0.19101 0.0
O55 O 0.39895 0.13269 0.18274 0.0
O56 O 0.11893 0.81866 0.10635 0.0
Cd57 Cd 0.12302 0.84206 0.10524 0.0
Cd58 Cd 0.13092 0.83576 0.07647 0.0
O59 O 0.12335 0.81365 0.08194 0.0
O60 O 0.11035 0.85104 0.12132 0.0
O61 O 0.10646 0.85414 0.09623 0.0
C62 C 0.10246 0.85666 0.11024 0.0
C63 C 0.12308 0.84602 0.05319 0.0
C64 C 0.11954 0.80911 0.09526 0.0
C65 C 0.15631 0.85044 0.09813 0.0
O66 O 0.15274 0.84426 0.08497 0.0
O67 O 0.14588 0.85138 0.10811 0.0
O68 O 0.13274 0.83569 0.05363 0.0
O69 O 0.11737 0.85023 0.06603 0.0
O70 O 0.38638 0.87346 0.32586 0.0
Cd71 Cd 0.38687 0.87647 0.34948 0.0
Cd72 Cd 0.41792 0.87085 0.347 0.0
O73 O 0.41194 0.87347 0.32398 0.0
O74 O 0.37019 0.8898 0.35441 0.0
O75 O 0.39555 0.89698 0.35782 0.0
C76 C 0.3812 0.9003 0.35829 0.0
C77 C 0.44426 0.87771 0.354 0.0
C78 C 0.39839 0.87348 0.31766 0.0
C79 C 0.39554 0.84863 0.36452 0.0
O80 O 0.40875 0.85194 0.35859 0.0
O81 O 0.38476 0.85746 0.36297 0.0
O82 O 0.43987 0.86579 0.34563 0.0
O83 O 0.43363 0.8862 0.35825 0.0
O84 O 0.34625 0.15308 0.58811 0.0
Cd85 Cd 0.3679 0.16164 0.58074 0.0
Cd86 Cd 0.37603 0.15377 0.6095 0.0
O87 O 0.35315 0.14501 0.611 0.0
O88 O 0.36298 0.16545 0.55869 0.0
O89 O 0.37925 0.14882 0.56603 0.0
C90 C 0.37198 0.15518 0.555 0.0
C91 C 0.39641 0.13841 0.61139 0.0
C92 C 0.3427 0.14655 0.60063 0.0
C93 C 0.38117 0.18672 0.60295 0.0
O94 O 0.38086 0.17685 0.61347 0.0
O95 O 0.37733 0.18276 0.58906 0.0
O96 O 0.3892 0.14232 0.62349 0.0
O97 O 0.3918 0.14301 0.59807 0.0
O98 O 0.10293 0.12089 0.81897 0.0
Cd99 Cd 0.10042 0.12286 0.84253 0.0
Cd100 Cd 0.07073 0.12741 0.83409 0.0
O101 O 0.07793 0.12128 0.81258 0.0
O102 O 0.11743 0.11218 0.85237 0.0
O103 O 0.09228 0.10415 0.85372 0.0
C104 C 0.10674 0.10212 0.85692 0.0
C105 C 0.04582 0.11814 0.84168 0.0
C106 C 0.0919 0.11991 0.80876 0.0
C107 C 0.09056 0.15349 0.85013 0.0
O108 O 0.07799 0.14898 0.8426 0.0
O109 O 0.1011 0.14448 0.85229 0.0
O110 O 0.04778 0.12799 0.83096 0.0
O111 O 0.05813 0.11307 0.84789 0.0
O112 O 0.15223 0.43821 0.13049 0.0
Cd113 Cd 0.15614 0.41543 0.12937 0.0
Cd114 Cd 0.18317 0.42669 0.11822 0.0
O115 O 0.17628 0.44741 0.12544 0.0
O116 O 0.14051 0.40433 0.14261 0.0
O117 O 0.16603 0.40652 0.14806 0.0
C118 C 0.15201 0.40157 0.15172 0.0
C119 C 0.20764 0.41879 0.12481 0.0
C120 C 0.1624 0.44953 0.1291 0.0
C121 C 0.16121 0.40798 0.09639 0.0
O122 O 0.17324 0.41753 0.09776 0.0
O123 O 0.15322 0.40444 0.10811 0.0
O124 O 0.2061 0.42927 0.11484 0.0
O125 O 0.19527 0.41325 0.13166 0.0
O126 O 0.6409 0.09535 0.84668 0.0
Cd127 Cd 0.65128 0.08769 0.86648 0.0
Cd128 Cd 0.64539 0.11606 0.87657 0.0
O129 O 0.63389 0.11724 0.85549 0.0
O130 O 0.65503 0.06652 0.86056 0.0
O131 O 0.63908 0.07179 0.87905 0.0
C132 C 0.6455 0.06176 0.87098 0.0
C133 C 0.63309 0.11946 0.89967 0.0
C134 C 0.63416 0.10742 0.84461 0.0
C135 C 0.67883 0.11004 0.8763 0.0
O136 O 0.66941 0.12022 0.87764 0.0
O137 O 0.67372 0.0964 0.87275 0.0
O138 O 0.6373 0.13086 0.89111 0.0
O139 O 0.63528 0.10593 0.8947 0.0
O140 O 0.8543 0.90853 0.3471 0.0
Cd141 Cd 0.84288 0.91658 0.36578 0.0
Cd142 Cd 0.84816 0.88719 0.37545 0.0
O143 O 0.85976 0.88592 0.35503 0.0
O144 O 0.84015 0.93778 0.35967 0.0
O145 O 0.85411 0.93252 0.38035 0.0
C146 C 0.84871 0.94258 0.37153 0.0
C147 C 0.85945 0.8806 0.3988 0.0
C148 C 0.86045 0.89614 0.34485 0.0
C149 C 0.8148 0.89481 0.3726 0.0
O150 O 0.82406 0.88459 0.37474 0.0
O151 O 0.82008 0.90829 0.36944 0.0
O152 O 0.85381 0.87035 0.3888 0.0
O153 O 0.8594 0.89476 0.39521 0.0
O154 O 0.81849 0.09771 0.11166 0.0
Cd155 Cd 0.84201 0.0951 0.11441 0.0
Cd156 Cd 0.831 0.06835 0.12585 0.0
O157 O 0.80941 0.07471 0.11861 0.0
O158 O 0.85261 0.11059 0.10094 0.0
O159 O 0.85336 0.08579 0.09714 0.0
C160 C 0.85715 0.09954 0.09278 0.0
C161 C 0.83848 0.04412 0.12017 0.0
C162 C 0.80702 0.08783 0.11373 0.0
C163 C 0.8492 0.09094 0.14774 0.0
O164 O 0.84078 0.07833 0.14607 0.0
O165 O 0.85191 0.09934 0.13619 0.0
O166 O 0.82808 0.0462 0.13023 0.0
O167 O 0.84425 0.05583 0.11278 0.0
O168 O 0.31469 0.59653 0.61601 0.0
Cd169 Cd 0.33755 0.59105 0.61811 0.0
Cd170 Cd 0.32382 0.56499 0.62791 0.0
O171 O 0.30354 0.5734 0.61982 0.0
O172 O 0.35049 0.60605 0.60583 0.0
O173 O 0.34665 0.58146 0.59959 0.0
C174 C 0.35277 0.59497 0.59651 0.0
C175 C 0.33038 0.54073 0.62108 0.0
C176 C 0.30243 0.58727 0.61652 0.0
C177 C 0.34312 0.58449 0.65127 0.0
O178 O 0.33268 0.57339 0.64909 0.0
O179 O 0.34789 0.59242 0.63996 0.0
O180 O 0.31924 0.54262 0.63037 0.0
O181 O 0.33745 0.5527 0.61509 0.0
O182 O 0.14179 0.59154 0.34804 0.0
Cd183 Cd 0.15253 0.58509 0.36827 0.0
Cd184 Cd 0.14622 0.61334 0.37676 0.0
O185 O 0.1335 0.61308 0.35627 0.0
O186 O 0.15652 0.56368 0.36366 0.0
O187 O 0.14053 0.56987 0.38176 0.0
C188 C 0.14703 0.55947 0.3743 0.0
C189 C 0.13522 0.61669 0.40056 0.0
C190 C 0.13422 0.60304 0.34567 0.0
C191 C 0.17976 0.60846 0.37564 0.0
O192 O 0.17007 0.61848 0.37598 0.0
O193 O 0.17493 0.59446 0.37392 0.0
O194 O 0.13827 0.62801 0.39155 0.0
O195 O 0.13784 0.60323 0.39569 0.0
O196 O 0.35685 0.40892 0.84664 0.0
Cd197 Cd 0.34493 0.41617 0.8653 0.0
Cd198 Cd 0.35097 0.38797 0.87487 0.0
O199 O 0.36362 0.38697 0.85509 0.0
O200 O 0.34173 0.43739 0.85968 0.0
O201 O 0.35556 0.43193 0.88039 0.0
C202 C 0.35008 0.44207 0.87172 0.0
C203 C 0.36192 0.38529 0.89937 0.0
C204 C 0.36385 0.39698 0.84472 0.0
C205 C 0.31738 0.39331 0.87094 0.0
O206 O 0.32701 0.38341 0.8731 0.0
O207 O 0.32229 0.40703 0.86833 0.0
O208 O 0.35854 0.37366 0.89019 0.0
O209 O 0.35976 0.39865 0.89428 0.0
O210 O 0.8701 0.8499 0.56683 0.0
Cd211 Cd 0.87059 0.84868 0.59057 0.0
Cd212 Cd 0.87914 0.81948 0.58379 0.0
O213 O 0.87828 0.82741 0.56148 0.0
O214 O 0.85865 0.86559 0.59773 0.0
O215 O 0.851 0.8413 0.60147 0.0
C216 C 0.84846 0.85547 0.60299 0.0
C217 C 0.87169 0.79369 0.58796 0.0
C218 C 0.87407 0.84013 0.5571 0.0
C219 C 0.90112 0.84097 0.60408 0.0
O220 O 0.89759 0.8278 0.59809 0.0
O221 O 0.89214 0.85148 0.60219 0.0
O222 O 0.88424 0.79813 0.58093 0.0
O223 O 0.86275 0.80393 0.59209 0.0
O224 O 0.89608 0.10141 0.34178 0.0
Cd225 Cd 0.90595 0.12042 0.33104 0.0
Cd226 Cd 0.89996 0.13322 0.35902 0.0
O227 O 0.89078 0.11147 0.36428 0.0
O228 O 0.90847 0.11225 0.30984 0.0
O229 O 0.89363 0.13078 0.31471 0.0
C230 C 0.89912 0.12173 0.30479 0.0
C231 C 0.8851 0.15385 0.36177 0.0
C232 C 0.89068 0.09995 0.35522 0.0
C233 C 0.93353 0.13496 0.35004 0.0
O234 O 0.924 0.13792 0.36038 0.0
O235 O 0.92858 0.12834 0.33745 0.0
O236 O 0.89132 0.14773 0.37357 0.0
O237 O 0.887 0.14795 0.34826 0.0
O238 O 0.60345 0.16466 0.10213 0.0
Cd239 Cd 0.62199 0.17225 0.08879 0.0
Cd240 Cd 0.62763 0.142 0.09338 0.0
O241 O 0.60827 0.14102 0.10689 0.0
O242 O 0.61739 0.19377 0.08647 0.0
O243 O 0.63894 0.18758 0.09826 0.0
C244 C 0.63022 0.19802 0.09405 0.0
C245 C 0.65182 0.13538 0.10229 0.0
C246 C 0.59984 0.152 0.10849 0.0
C247 C 0.62238 0.15117 0.06075 0.0
O248 O 0.6238 0.14026 0.0699 0.0
O249 O 0.62217 0.16473 0.06598 0.0
O250 O 0.64037 0.12514 0.09905 0.0
O251 O 0.64927 0.14955 0.10113 0.0
O252 O 0.57109 0.86488 0.85971 0.0
Cd253 Cd 0.59489 0.86959 0.85724 0.0
Cd254 Cd 0.58595 0.87719 0.82916 0.0
O255 O 0.56449 0.8668 0.8351 0.0
O256 O 0.6055 0.85731 0.87269 0.0
O257 O 0.60695 0.85378 0.84742 0.0
C258 C 0.61051 0.84975 0.86125 0.0
C259 C 0.59619 0.87168 0.80528 0.0
C260 C 0.56075 0.86365 0.84882 0.0
C261 C 0.60034 0.90234 0.85059 0.0
O262 O 0.59246 0.89881 0.83817 0.0
O263 O 0.60389 0.89201 0.85974 0.0
O264 O 0.58448 0.87973 0.8064 0.0
O265 O 0.60192 0.86636 0.81779 0.0
O266 O 0.87969 0.1801 0.89166 0.0
Cd267 Cd 0.87625 0.15682 0.89409 0.0
Cd268 Cd 0.87063 0.16441 0.9231 0.0
O269 O 0.87841 0.1861 0.91637 0.0
O270 O 0.88839 0.14704 0.87807 0.0
O271 O 0.89349 0.14573 0.9032 0.0
C272 C 0.89694 0.14239 0.88921 0.0
C273 C 0.87964 0.15486 0.94631 0.0
C274 C 0.88056 0.19007 0.90252 0.0
C275 C 0.8437 0.14913 0.9036 0.0
O276 O 0.84817 0.15616 0.91614 0.0
O277 O 0.85344 0.14723 0.89314 0.0
O278 O 0.87027 0.16545 0.94606 0.0
O279 O 0.88437 0.14998 0.93329 0.0
O280 O 0.5884 0.14604 0.64206 0.0
Cd281 Cd 0.57961 0.12818 0.65528 0.0
Cd282 Cd 0.61135 0.12311 0.65311 0.0
O283 O 0.61331 0.14235 0.63996 0.0
O284 O 0.55795 0.13401 0.6567 0.0
O285 O 0.56316 0.11242 0.64563 0.0
C286 C 0.55298 0.12163 0.64932 0.0
C287 C 0.61771 0.09961 0.64409 0.0
C288 C 0.60186 0.15006 0.637 0.0
C289 C 0.59952 0.12691 0.68483 0.0
O290 O 0.61142 0.12582 0.67667 0.0
O291 O 0.58605 0.12746 0.67847 0.0
O292 O 0.62844 0.11027 0.64828 0.0
O293 O 0.60325 0.10259 0.64439 0.0
O294 O 0.65102 0.84485 0.41524 0.0
Cd295 Cd 0.62968 0.83601 0.42304 0.0
Cd296 Cd 0.61946 0.84577 0.39591 0.0
O297 O 0.64219 0.85521 0.39417 0.0
O298 O 0.63403 0.83179 0.44512 0.0
O299 O 0.61841 0.84898 0.43758 0.0
C300 C 0.62516 0.84223 0.44867 0.0
C301 C 0.59889 0.86103 0.39474 0.0
C302 C 0.65349 0.85276 0.4033 0.0
C303 C 0.6154 0.81223 0.40014 0.0
O304 O 0.6147 0.82285 0.39049 0.0
O305 O 0.62021 0.81529 0.41397 0.0
O306 O 0.60613 0.85766 0.38249 0.0
O307 O 0.60349 0.85587 0.40781 0.0
O308 O 0.8966 0.8789 0.17925 0.0
Cd309 Cd 0.89873 0.87805 0.15566 0.0
Cd310 Cd 0.92892 0.87341 0.1629 0.0
O311 O 0.92155 0.87717 0.18505 0.0
O312 O 0.88214 0.88967 0.1464 0.0
O313 O 0.90749 0.89697 0.14525 0.0
C314 C 0.89316 0.89958 0.14219 0.0
C315 C 0.95418 0.88306 0.15665 0.0
C316 C 0.90771 0.87865 0.18926 0.0
C317 C 0.90879 0.84833 0.14526 0.0
O318 O 0.92184 0.85286 0.1519 0.0
O319 O 0.89761 0.85681 0.14506 0.0
O320 O 0.95175 0.87216 0.16621 0.0
O321 O 0.94215 0.88901 0.15093 0.0
O322 O 0.84771 0.56079 0.86848 0.0
Cd323 Cd 0.84435 0.58369 0.86961 0.0
Cd324 Cd 0.81721 0.57272 0.88087 0.0
O325 O 0.82358 0.55186 0.87345 0.0
O326 O 0.85975 0.5938 0.85545 0.0
O327 O 0.83412 0.59286 0.85125 0.0
C328 C 0.84808 0.59685 0.8467 0.0
C329 C 0.79259 0.58066 0.87493 0.0
C330 C 0.8374 0.54958 0.86975 0.0
C331 C 0.8398 0.59125 0.90256 0.0
O332 O 0.82767 0.58183 0.90116 0.0
O333 O 0.8478 0.59478 0.89083 0.0
O334 O 0.79441 0.57024 0.8849 0.0
O335 O 0.80476 0.58616 0.86775 0.0
O336 O 0.36122 0.90539 0.1543 0.0
Cd337 Cd 0.34898 0.91225 0.13517 0.0
Cd338 Cd 0.35358 0.88326 0.12578 0.0
O339 O 0.36551 0.88216 0.14663 0.0
O340 O 0.34535 0.93352 0.14084 0.0
O341 O 0.35966 0.92787 0.12115 0.0
C342 C 0.35371 0.93803 0.12944 0.0
C343 C 0.36508 0.88056 0.10217 0.0
C344 C 0.36695 0.89285 0.15678 0.0
C345 C 0.32052 0.8898 0.12771 0.0
O346 O 0.32961 0.87946 0.12556 0.0
O347 O 0.32608 0.90336 0.13107 0.0
O348 O 0.36118 0.86888 0.11048 0.0
O349 O 0.36309 0.89395 0.10771 0.0
O350 O 0.14288 0.09019 0.64833 0.0
Cd351 Cd 0.15219 0.08331 0.62787 0.0
Cd352 Cd 0.14548 0.11192 0.621 0.0
O353 O 0.13328 0.11134 0.64105 0.0
O354 O 0.15773 0.06261 0.63304 0.0
O355 O 0.1398 0.06654 0.61513 0.0
C356 C 0.1475 0.05711 0.62279 0.0
C357 C 0.1345 0.11491 0.59662 0.0
C358 C 0.13503 0.10139 0.65121 0.0
C359 C 0.1788 0.10688 0.62145 0.0
O360 O 0.16934 0.11701 0.62283 0.0
O361 O 0.17386 0.09285 0.62158 0.0
O362 O 0.13729 0.12634 0.60618 0.0
O363 O 0.13712 0.10152 0.60134 0.0
O364 O 0.18518 0.90631 0.88711 0.0
Cd365 Cd 0.16171 0.90969 0.8854 0.0
Cd366 Cd 0.17337 0.93589 0.87346 0.0
O367 O 0.19485 0.92922 0.88047 0.0
O368 O 0.15136 0.89397 0.8988 0.0
O369 O 0.15128 0.91869 0.90351 0.0
C370 C 0.14737 0.90485 0.90753 0.0
C371 C 0.16571 0.95991 0.87963 0.0
C372 C 0.1969 0.9159 0.88501 0.0
C373 C 0.1539 0.91394 0.85216 0.0
O374 O 0.16335 0.92593 0.85336 0.0
O375 O 0.15068 0.9061 0.86399 0.0
O376 O 0.17609 0.95812 0.86947 0.0
O377 O 0.16011 0.94802 0.88686 0.0
O378 O 0.6814 0.40711 0.38857 0.0
Cd379 Cd 0.65777 0.40936 0.38651 0.0
Cd380 Cd 0.66803 0.43595 0.37427 0.0
O381 O 0.69 0.42988 0.38062 0.0
O382 O 0.64816 0.39332 0.39997 0.0
O383 O 0.64639 0.41789 0.40424 0.0
C384 C 0.64329 0.40397 0.40842 0.0
C385 C 0.66025 0.45988 0.38066 0.0
C386 C 0.69269 0.41692 0.38574 0.0
C387 C 0.64945 0.41293 0.35326 0.0
O388 O 0.65763 0.42572 0.35443 0.0
O389 O 0.64737 0.4047 0.36503 0.0
O390 O 0.67038 0.45819 0.37023 0.0
O391 O 0.65488 0.44794 0.38795 0.0
O392 O 0.85916 0.40186 0.64924 0.0
Cd393 Cd 0.84731 0.40944 0.63026 0.0
Cd394 Cd 0.85295 0.38153 0.6195 0.0
O395 O 0.86538 0.37983 0.64003 0.0
O396 O 0.8445 0.43075 0.63653 0.0
O397 O 0.85816 0.42504 0.61641 0.0
C398 C 0.85287 0.43528 0.62514 0.0
C399 C 0.86437 0.38017 0.59568 0.0
C400 C 0.86585 0.38971 0.65094 0.0
C401 C 0.81946 0.38701 0.62182 0.0
O402 O 0.82896 0.37709 0.6194 0.0
O403 O 0.82454 0.4006 0.62565 0.0
O404 O 0.86083 0.36806 0.60349 0.0
O405 O 0.862 0.39322 0.60179 0.0
O406 O 0.65553 0.60076 0.09603 0.0
Cd407 Cd 0.66402 0.58944 0.11461 0.0
Cd408 Cd 0.63432 0.59244 0.12376 0.0
O409 O 0.6321 0.60483 0.10395 0.0
O410 O 0.68605 0.58821 0.10889 0.0
O411 O 0.67967 0.60073 0.12971 0.0
C412 C 0.69041 0.59647 0.12093 0.0
C413 C 0.63142 0.6028 0.14821 0.0
C414 C 0.64255 0.60636 0.09388 0.0
C415 C 0.64297 0.56072 0.11994 0.0
O416 O 0.63185 0.56897 0.12212 0.0
O417 O 0.65662 0.56681 0.11737 0.0
O418 O 0.61942 0.59856 0.13927 0.0
O419 O 0.64521 0.60172 0.14292 0.0
O420 O 0.62607 0.64824 0.92968 0.0
Cd421 Cd 0.626 0.65097 0.90607 0.0
Cd422 Cd 0.62128 0.67991 0.914 0.0
O423 O 0.6254 0.67249 0.93604 0.0
O424 O 0.63681 0.63386 0.89743 0.0
O425 O 0.64632 0.65804 0.89638 0.0
C426 C 0.64792 0.64382 0.89358 0.0
C427 C 0.63208 0.704 0.90699 0.0
C428 C 0.62626 0.65877 0.93994 0.0
C429 C 0.5954 0.66133 0.89584 0.0
O430 O 0.59973 0.67343 0.90361 0.0
O431 O 0.60455 0.65088 0.89456 0.0
O432 O 0.62114 0.7023 0.91683 0.0
O433 O 0.63741 0.69189 0.90142 0.0
O434 O 0.6053 0.39928 0.16225 0.0
Cd435 Cd 0.59547 0.3791 0.17083 0.0
Cd436 Cd 0.60321 0.36904 0.14236 0.0
O437 O 0.61325 0.391 0.13997 0.0
O438 O 0.59088 0.38582 0.19206 0.0
O439 O 0.60718 0.36849 0.18744 0.0
C440 C 0.60052 0.37671 0.1973 0.0
C441 C 0.618 0.34849 0.13967 0.0
C442 C 0.61213 0.4018 0.14964 0.0
C443 C 0.56921 0.36635 0.14893 0.0
O444 O 0.57927 0.36518 0.13861 0.0
O445 O 0.57352 0.37091 0.16252 0.0
O446 O 0.61372 0.35592 0.12783 0.0
O447 O 0.61407 0.35289 0.15321 0.0
O448 O 0.89548 0.33509 0.39569 0.0
Cd449 Cd 0.87561 0.32855 0.40763 0.0
Cd450 Cd 0.87022 0.35777 0.40083 0.0
O451 O 0.88908 0.35699 0.38677 0.0
O452 O 0.87737 0.30646 0.41065 0.0
O453 O 0.85855 0.31494 0.3962 0.0
C454 C 0.86529 0.30355 0.40153 0.0
C455 C 0.84631 0.36527 0.39208 0.0
C456 C 0.89843 0.34666 0.38736 0.0
C457 C 0.87476 0.35085 0.43418 0.0
O458 O 0.87464 0.36119 0.42418 0.0
O459 O 0.87396 0.33691 0.42994 0.0
O460 O 0.85839 0.37502 0.39433 0.0
O461 O 0.84805 0.35102 0.39406 0.0
O462 O 0.92661 0.63098 0.64167 0.0
Cd463 Cd 0.90269 0.62618 0.64277 0.0
Cd464 Cd 0.91014 0.61577 0.67073 0.0
O465 O 0.93233 0.62513 0.66569 0.0
O466 O 0.89286 0.63847 0.62682 0.0
O467 O 0.89043 0.64225 0.65197 0.0
C468 C 0.88744 0.64611 0.63796 0.0
C469 C 0.90042 0.61972 0.69526 0.0
C470 C 0.93663 0.63012 0.65266 0.0
C471 C 0.8957 0.59285 0.64693 0.0
O472 O 0.90238 0.59516 0.66016 0.0
O473 O 0.89377 0.60397 0.6382 0.0
O474 O 0.91131 0.61089 0.69303 0.0
O475 O 0.89526 0.62679 0.68351 0.0
O476 O 0.61765 0.31573 0.60601 0.0
Cd477 Cd 0.6218 0.33908 0.60473 0.0
Cd478 Cd 0.62773 0.33276 0.57539 0.0
O479 O 0.61955 0.31088 0.58112 0.0
O480 O 0.60949 0.34859 0.62081 0.0
O481 O 0.60517 0.35094 0.59567 0.0
C482 C 0.60141 0.35388 0.60966 0.0
C483 C 0.61892 0.34325 0.55258 0.0
C484 C 0.61689 0.30628 0.59468 0.0
C485 C 0.65459 0.3468 0.59578 0.0
O486 O 0.65017 0.34055 0.58284 0.0
O487 O 0.64479 0.34816 0.6063 0.0
O488 O 0.6282 0.33258 0.55241 0.0
O489 O 0.61424 0.34773 0.56577 0.0
O490 O 0.88807 0.37186 0.81835 0.0
Cd491 Cd 0.88749 0.37387 0.84197 0.0
Cd492 Cd 0.91908 0.36856 0.84038 0.0
O493 O 0.91341 0.36976 0.81707 0.0
O494 O 0.87037 0.3867 0.8468 0.0
O495 O 0.89551 0.39406 0.85156 0.0
C496 C 0.88107 0.39713 0.85164 0.0
C497 C 0.94542 0.37524 0.8475 0.0
C498 C 0.90013 0.37069 0.81044 0.0
C499 C 0.89624 0.3462 0.85736 0.0
O500 O 0.90987 0.35026 0.85274 0.0
O501 O 0.88498 0.35416 0.85444 0.0
O502 O 0.94089 0.36302 0.83965 0.0
O503 O 0.93498 0.38423 0.85101 0.0
O504 O 0.85024 0.65645 0.09071 0.0
Cd505 Cd 0.87041 0.66469 0.07997 0.0
Cd506 Cd 0.88322 0.65704 0.10686 0.0
O507 O 0.86108 0.64789 0.1118 0.0
O508 O 0.86347 0.66691 0.05808 0.0
O509 O 0.88027 0.65068 0.06528 0.0
C510 C 0.87217 0.65637 0.05439 0.0
C511 C 0.90415 0.6421 0.10777 0.0
C512 C 0.84897 0.64967 0.1035 0.0
C513 C 0.88638 0.69013 0.0997 0.0
O514 O 0.88791 0.68026 0.11 0.0
O515 O 0.88058 0.68612 0.08642 0.0
O516 O 0.89838 0.64719 0.12021 0.0
O517 O 0.89779 0.64533 0.09466 0.0
O518 O 0.6062 0.62367 0.31827 0.0
Cd519 Cd 0.60215 0.625 0.3416 0.0
Cd520 Cd 0.57315 0.62984 0.33139 0.0
O521 O 0.58155 0.62361 0.31035 0.0
O522 O 0.61841 0.61388 0.35214 0.0
O523 O 0.5931 0.60617 0.35206 0.0
C524 C 0.60733 0.60388 0.35598 0.0
C525 C 0.54759 0.62159 0.33797 0.0
C526 C 0.59584 0.62262 0.3074 0.0
C527 C 0.59228 0.65564 0.34866 0.0
O528 O 0.58033 0.65135 0.34011 0.0
O529 O 0.60243 0.64643 0.35171 0.0
O530 O 0.55044 0.63104 0.32703 0.0
O531 O 0.55934 0.61612 0.3448 0.0
O532 O 0.64986 0.93543 0.63496 0.0
Cd533 Cd 0.65257 0.91242 0.63371 0.0
Cd534 Cd 0.67994 0.92246 0.62223 0.0
O535 O 0.67392 0.94364 0.62901 0.0
O536 O 0.63692 0.90259 0.64774 0.0
O537 O 0.66249 0.90251 0.65176 0.0
C538 C 0.64845 0.8988 0.65626 0.0
C539 C 0.70417 0.9142 0.62907 0.0
C540 C 0.66034 0.94636 0.63309 0.0
C541 C 0.657 0.90419 0.60078 0.0
O542 O 0.6696 0.913 0.60204 0.0
O543 O 0.64871 0.90149 0.61249 0.0
O544 O 0.70288 0.92454 0.6189 0.0
O545 O 0.69167 0.9089 0.63585 0.0
O546 O 0.37565 0.35774 0.06974 0.0
Cd547 Cd 0.37573 0.35401 0.09318 0.0
Cd548 Cd 0.38171 0.32531 0.08353 0.0
O549 O 0.37727 0.33397 0.06201 0.0
O550 O 0.36417 0.37024 0.10251 0.0
O551 O 0.35566 0.34575 0.10266 0.0
C552 C 0.35348 0.35972 0.10606 0.0
C553 C 0.37417 0.29964 0.08821 0.0
C554 C 0.3759 0.34783 0.05891 0.0
C555 C 0.40666 0.34453 0.1029 0.0
O556 O 0.40267 0.33267 0.09463 0.0
O557 O 0.3972 0.35462 0.10467 0.0
O558 O 0.38528 0.30374 0.07909 0.0
O559 O 0.3666 0.31017 0.09418 0.0
O560 O 0.39767 0.60132 0.84391 0.0
Cd561 Cd 0.40583 0.62089 0.83294 0.0
Cd562 Cd 0.39895 0.63307 0.86095 0.0
O563 O 0.39023 0.61111 0.86578 0.0
O564 O 0.40916 0.61305 0.81175 0.0
O565 O 0.39192 0.62944 0.81665 0.0
C566 C 0.39841 0.6211 0.80675 0.0
C567 C 0.38363 0.65331 0.86395 0.0
C568 C 0.39155 0.59963 0.85701 0.0
C569 C 0.43257 0.63663 0.8522 0.0
O570 O 0.42291 0.63816 0.86281 0.0
O571 O 0.42788 0.63075 0.83918 0.0
O572 O 0.38982 0.64705 0.87568 0.0
O573 O 0.38583 0.64777 0.85035 0.0
O574 O 0.09847 0.6669 0.59857 0.0
Cd575 Cd 0.11898 0.6739 0.58789 0.0
Cd576 Cd 0.12479 0.64529 0.59453 0.0
O577 O 0.10522 0.64527 0.60782 0.0
O578 O 0.11798 0.69622 0.58589 0.0
O579 O 0.13574 0.68647 0.60073 0.0
C580 C 0.12961 0.69833 0.59568 0.0
C581 C 0.1489 0.63901 0.6041 0.0
C582 C 0.09549 0.65523 0.60675 0.0
C583 C 0.12149 0.65238 0.56114 0.0
O584 O 0.12146 0.64193 0.57103 0.0
O585 O 0.12176 0.66624 0.56554 0.0
O586 O 0.13736 0.62872 0.60147 0.0
O587 O 0.14645 0.6531 0.60209 0.0
O588 O 0.06662 0.36474 0.35319 0.0
Cd589 Cd 0.09075 0.3688 0.3533 0.0
Cd590 Cd 0.08446 0.37953 0.32518 0.0
O591 O 0.06186 0.37087 0.32907 0.0
O592 O 0.09875 0.35519 0.36912 0.0
O593 O 0.10347 0.35299 0.34425 0.0
C594 C 0.105 0.34806 0.35812 0.0
C595 C 0.09449 0.37653 0.30066 0.0
C596 C 0.057 0.36595 0.34192 0.0
C597 C 0.09864 0.40189 0.34991 0.0
O598 O 0.09223 0.39968 0.33656 0.0
O599 O 0.10033 0.39072 0.35866 0.0
O600 O 0.08416 0.38586 0.30331 0.0
O601 O 0.09893 0.36842 0.31195 0.0
O602 O 0.37973 0.68462 0.39715 0.0
Cd603 Cd 0.37673 0.66117 0.3966 0.0
Cd604 Cd 0.36764 0.66517 0.42585 0.0
O605 O 0.37337 0.68795 0.42136 0.0
O606 O 0.38992 0.65433 0.37987 0.0
O607 O 0.39404 0.64925 0.40451 0.0
C608 C 0.39819 0.64825 0.39034 0.0
C609 C 0.37367 0.65612 0.45029 0.0
C610 C 0.37774 0.69343 0.40856 0.0
C611 C 0.34384 0.65015 0.40238 0.0
O612 O 0.347 0.65495 0.41613 0.0
O613 O 0.35428 0.65126 0.39229 0.0
O614 O 0.36281 0.66504 0.4481 0.0
O615 O 0.38168 0.65268 0.43857 0.0
O616 O 0.0882 0.64966 0.1475 0.0
Cd617 Cd 0.08031 0.62923 0.1571 0.0
Cd618 Cd 0.11081 0.62477 0.15396 0.0
O619 O 0.11205 0.64469 0.14171 0.0
O620 O 0.05743 0.63074 0.15788 0.0
O621 O 0.06755 0.61358 0.14332 0.0
C622 C 0.05535 0.61964 0.14795 0.0
C623 C 0.11698 0.60166 0.1437 0.0
C624 C 0.10119 0.65355 0.14134 0.0
C625 C 0.09968 0.62548 0.18609 0.0
O626 O 0.11161 0.62624 0.17772 0.0
O627 O 0.08606 0.6255 0.17993 0.0
O628 O 0.1278 0.61224 0.14791 0.0
O629 O 0.10254 0.60458 0.14458 0.0
O630 O 0.15302 0.34321 0.91159 0.0
Cd631 Cd 0.13157 0.33531 0.9198 0.0
Cd632 Cd 0.12163 0.34441 0.89233 0.0
O633 O 0.14446 0.35347 0.89036 0.0
O634 O 0.13613 0.33195 0.94202 0.0
O635 O 0.12092 0.34925 0.93387 0.0
C636 C 0.12771 0.34287 0.9452 0.0
C637 C 0.10116 0.35972 0.89032 0.0
C638 C 0.15568 0.35083 0.8995 0.0
C639 C 0.11687 0.31105 0.89778 0.0
O640 O 0.11659 0.32136 0.88773 0.0
O641 O 0.12153 0.31447 0.91157 0.0
O642 O 0.1085 0.35587 0.87829 0.0
O643 O 0.10568 0.3551 0.90365 0.0
O644 O 0.39546 0.37707 0.67861 0.0
Cd645 Cd 0.39628 0.37568 0.65491 0.0
Cd646 Cd 0.42705 0.37105 0.66122 0.0
O647 O 0.4206 0.37551 0.6835 0.0
O648 O 0.37826 0.38615 0.64686 0.0
O649 O 0.40298 0.39475 0.64355 0.0
C650 C 0.38826 0.39652 0.64169 0.0
C651 C 0.45235 0.38001 0.65438 0.0
C652 C 0.40697 0.37711 0.68819 0.0
C653 C 0.40606 0.34567 0.64485 0.0
O654 O 0.41933 0.35028 0.651 0.0
O655 O 0.39495 0.35423 0.64473 0.0
O656 O 0.44984 0.36931 0.66414 0.0
O657 O 0.44039 0.38609 0.64868 0.0
O658 O 0.35108 0.06531 0.36723 0.0
Cd659 Cd 0.34796 0.08818 0.36843 0.0
Cd660 Cd 0.32017 0.07816 0.37924 0.0
O661 O 0.32689 0.05704 0.37281 0.0
O662 O 0.36357 0.09895 0.35493 0.0
O663 O 0.33797 0.0973 0.34997 0.0
C664 C 0.35199 0.10188 0.346 0.0
C665 C 0.2959 0.08593 0.37161 0.0
C666 C 0.34058 0.05436 0.36899 0.0
C667 C 0.34255 0.09647 0.40121 0.0
O668 O 0.32975 0.08801 0.39961 0.0
O669 O 0.35131 0.09883 0.38978 0.0
O670 O 0.29708 0.07567 0.38188 0.0
O671 O 0.30854 0.09141 0.36517 0.0
H672 H 0.1196 0.3302 0.33779 0.0
H673 H 0.13081 0.3062 0.34321 0.0
H674 H 0.11915 0.31051 0.39106 0.0
H675 H 0.10833 0.33453 0.38586 0.0
H676 H 0.14832 0.30048 0.38761 0.0
H677 H 0.10351 0.26677 0.34985 0.0
H678 H 0.11532 0.28168 0.34067 0.0
H679 H 0.10191 0.28643 0.35512 0.0
C680 C 0.11957 0.32609 0.34949 0.0
C681 C 0.11295 0.33421 0.36137 0.0
C682 C 0.1259 0.31234 0.35255 0.0
C683 C 0.12557 0.30643 0.36749 0.0
C684 C 0.1195 0.31482 0.37944 0.0
H685 H 0.12738 0.22918 0.421 0.0
H686 H 0.12995 0.25462 0.41026 0.0
C687 C 0.11327 0.32856 0.37642 0.0
C688 C 0.13079 0.29121 0.3708 0.0
H689 H 0.1207 0.25316 0.36438 0.0
C690 C 0.14244 0.29013 0.38236 0.0
C691 C 0.12315 0.27771 0.36391 0.0
C692 C 0.1102 0.2781 0.35178 0.0
C693 C 0.14618 0.27593 0.38768 0.0
C694 C 0.13797 0.26248 0.38135 0.0
C695 C 0.127 0.26351 0.36917 0.0
C696 C 0.13895 0.24746 0.38851 0.0
C697 C 0.15857 0.27543 0.40033 0.0
C698 C 0.14331 0.23497 0.37991 0.0
C699 C 0.14192 0.22034 0.38608 0.0
C700 C 0.13585 0.21799 0.40083 0.0
C701 C 0.1321 0.23063 0.40962 0.0
C702 C 0.13365 0.24521 0.40352 0.0
H703 H 0.16698 0.28582 0.40049 0.0
H704 H 0.15288 0.27486 0.41166 0.0
H705 H 0.16513 0.26525 0.39897 0.0
H706 H 0.14728 0.23646 0.36824 0.0
H707 H 0.14479 0.21081 0.37901 0.0
H708 H 0.03894 0.85764 0.67156 0.0
H709 H 0.01094 0.85299 0.66519 0.0
H710 H 0.02043 0.85689 0.61674 0.0
H711 H 0.04847 0.86101 0.62298 0.0
H712 H 0.99196 0.87117 0.6516 0.0
H713 H 0.99194 0.81822 0.61625 0.0
H714 H 0.00879 0.82592 0.62779 0.0
H715 H 0.00488 0.8334 0.60902 0.0
C716 C 0.03508 0.8573 0.65953 0.0
C717 C 0.04592 0.85959 0.64776 0.0
C718 C 0.01907 0.85469 0.65592 0.0
C719 C 0.01359 0.85439 0.64048 0.0
C720 C 0.0244 0.85667 0.62871 0.0
H721 H 0.91961 0.86796 0.60708 0.0
H722 H 0.94663 0.87164 0.61739 0.0
C723 C 0.04043 0.85908 0.6323 0.0
C724 C 0.99655 0.85232 0.63675 0.0
H725 H 0.96874 0.83111 0.61461 0.0
C726 C 0.98684 0.86232 0.64362 0.0
C727 C 0.98984 0.84064 0.62652 0.0
C728 C 0.99938 0.82884 0.6196 0.0
C729 C 0.97065 0.86114 0.6403 0.0
C730 C 0.96409 0.84993 0.62948 0.0
C731 C 0.97377 0.83979 0.62282 0.0
C732 C 0.94723 0.84836 0.62482 0.0
C733 C 0.96076 0.87174 0.64863 0.0
C734 C 0.93858 0.83408 0.62551 0.0
C735 C 0.92333 0.8319 0.61933 0.0
C736 C 0.91633 0.844 0.61248 0.0
C737 C 0.92468 0.85849 0.61245 0.0
C738 C 0.94009 0.86061 0.6184 0.0
H739 H 0.96647 0.87603 0.65976 0.0
H740 H 0.95921 0.88174 0.64135 0.0
H741 H 0.94902 0.86602 0.65099 0.0
H742 H 0.9438 0.82447 0.63043 0.0
H743 H 0.91713 0.82061 0.61957 0.0
H744 H 0.37104 0.77503 0.92104 0.0
H745 H 0.36592 0.74928 0.9101 0.0
H746 H 0.34282 0.76681 0.87029 0.0
H747 H 0.34783 0.79281 0.88127 0.0
H748 H 0.3361 0.73126 0.89721 0.0
H749 H 0.38267 0.7459 0.85497 0.0
H750 H 0.38134 0.75718 0.8724 0.0
H751 H 0.3671 0.75807 0.85697 0.0
C752 C 0.36459 0.77341 0.9101 0.0
C753 C 0.35994 0.78595 0.90195 0.0
C754 C 0.36163 0.75868 0.90389 0.0
C755 C 0.35413 0.75619 0.88935 0.0
C756 C 0.34868 0.76855 0.88152 0.0
H757 H 0.37062 0.67056 0.84177 0.0
H758 H 0.35915 0.69475 0.84571 0.0
C759 C 0.3515 0.78335 0.88783 0.0
C760 C 0.35359 0.74085 0.882 0.0
H761 H 0.37433 0.72012 0.85772 0.0
C762 C 0.34419 0.72881 0.88832 0.0
C763 C 0.36406 0.73774 0.87032 0.0
C764 C 0.37444 0.75033 0.86322 0.0
C765 C 0.34558 0.71362 0.88383 0.0
C766 C 0.35702 0.71041 0.8731 0.0
C767 C 0.36562 0.72255 0.866 0.0
C768 C 0.36177 0.69479 0.87063 0.0
C769 C 0.33506 0.70116 0.89093 0.0
C770 C 0.36697 0.68673 0.88331 0.0
C771 C 0.37345 0.67296 0.8811 0.0
C772 C 0.37509 0.667 0.86614 0.0
C773 C 0.36949 0.67484 0.85344 0.0
C774 C 0.36294 0.68865 0.85567 0.0
H775 H 0.32356 0.70521 0.89365 0.0
H776 H 0.33304 0.69095 0.88316 0.0
H777 H 0.34057 0.69779 0.90194 0.0
H778 H 0.36666 0.69141 0.89493 0.0
H779 H 0.3777 0.66727 0.89115 0.0
H780 H 0.45326 0.13232 0.12181 0.0
H781 H 0.48128 0.1355 0.11713 0.0
H782 H 0.49105 0.14522 0.16564 0.0
H783 H 0.46306 0.14147 0.1705 0.0
H784 H 0.50245 0.15889 0.12094 0.0
H785 H 0.51945 0.11247 0.15833 0.0
H786 H 0.4993 0.11507 0.15356 0.0
H787 H 0.50982 0.12657 0.16858 0.0
C788 C 0.46137 0.13517 0.13148 0.0
C789 C 0.45595 0.13653 0.14654 0.0
C790 C 0.47739 0.13695 0.1288 0.0
C791 C 0.48831 0.14026 0.14109 0.0
C792 C 0.4829 0.14219 0.15605 0.0
H793 H 0.58445 0.17386 0.1224 0.0
H794 H 0.55796 0.17108 0.13219 0.0
C795 C 0.46688 0.14018 0.15879 0.0
C796 C 0.5053 0.14192 0.13808 0.0
H797 H 0.54023 0.12855 0.14806 0.0
C798 C 0.5107 0.15224 0.12686 0.0
C799 C 0.51604 0.13307 0.14566 0.0
C800 C 0.51085 0.12106 0.15709 0.0
C801 C 0.52649 0.15394 0.12296 0.0
C802 C 0.53733 0.1455 0.13093 0.0
C803 C 0.53195 0.13516 0.14214 0.0
C804 C 0.55416 0.14682 0.12726 0.0
C805 C 0.53125 0.1644 0.10996 0.0
C806 C 0.56124 0.13393 0.12231 0.0
C807 C 0.57655 0.13543 0.11708 0.0
C808 C 0.58493 0.14988 0.11658 0.0
C809 C 0.57816 0.16262 0.12244 0.0
C810 C 0.56299 0.16106 0.12792 0.0
H811 H 0.52107 0.16645 0.10231 0.0
H812 H 0.53625 0.17558 0.11488 0.0
H813 H 0.54021 0.15962 0.10282 0.0
H814 H 0.55468 0.1228 0.12184 0.0
H815 H 0.58148 0.12542 0.11263 0.0
H816 H 0.08003 0.67457 0.138 0.0
H817 H 0.08418 0.69994 0.12736 0.0
H818 H 0.13181 0.69234 0.11758 0.0
H819 H 0.12785 0.66684 0.12846 0.0
H820 H 0.12932 0.71976 0.13274 0.0
H821 H 0.0875 0.71296 0.08266 0.0
H822 H 0.07864 0.70717 0.10036 0.0
H823 H 0.09402 0.69691 0.09286 0.0
C824 C 0.09137 0.67819 0.13348 0.0
C825 C 0.10361 0.66864 0.13409 0.0
C826 C 0.09368 0.69268 0.12728 0.0
C827 C 0.10821 0.69793 0.12144 0.0
C828 C 0.12046 0.68844 0.12192 0.0
H829 H 0.1225 0.78533 0.07505 0.0
H830 H 0.1205 0.75813 0.08066 0.0
C831 C 0.11816 0.67388 0.12813 0.0
C832 C 0.11079 0.7137 0.1158 0.0
H833 H 0.0959 0.73867 0.09095 0.0
C834 C 0.12216 0.72386 0.12348 0.0
C835 C 0.10157 0.71898 0.10357 0.0
C836 C 0.08986 0.7084 0.09427 0.0
C837 C 0.12408 0.73931 0.1197 0.0
C838 C 0.11417 0.74478 0.10814 0.0
C839 C 0.1033 0.7345 0.09999 0.0
C840 C 0.11475 0.76119 0.10458 0.0
C841 C 0.1367 0.74964 0.12815 0.0
C842 C 0.11172 0.77187 0.11605 0.0
C843 C 0.11285 0.78741 0.1129 0.0
C844 C 0.11692 0.79256 0.09817 0.0
C845 C 0.11937 0.78177 0.08653 0.0
C846 C 0.11827 0.76622 0.08971 0.0
H847 H 0.14598 0.74309 0.1332 0.0
H848 H 0.14219 0.75829 0.12035 0.0
H849 H 0.13144 0.75568 0.13775 0.0
H850 H 0.10861 0.76819 0.1275 0.0
H851 H 0.11078 0.79538 0.12211 0.0
H852 H 0.45902 0.90376 0.36804 0.0
H853 H 0.48696 0.90853 0.37564 0.0
H854 H 0.49455 0.86345 0.35908 0.0
H855 H 0.46715 0.85883 0.35114 0.0
H856 H 0.50535 0.89444 0.39575 0.0
H857 H 0.52814 0.88874 0.3375 0.0
H858 H 0.50777 0.8909 0.34063 0.0
H859 H 0.51497 0.87234 0.34123 0.0
C860 C 0.46673 0.89496 0.36593 0.0
C861 C 0.46093 0.881 0.3588 0.0
C862 C 0.48265 0.89769 0.37028 0.0
C863 C 0.49292 0.8865 0.36754 0.0
C864 C 0.48699 0.87246 0.36082 0.0
H865 H 0.57251 0.85721 0.41135 0.0
H866 H 0.54775 0.8678 0.40586 0.0
C867 C 0.47125 0.8698 0.35636 0.0
C868 C 0.50979 0.88893 0.37205 0.0
H869 H 0.54533 0.88196 0.35864 0.0
C870 C 0.5142 0.89208 0.3876 0.0
C871 C 0.52145 0.8864 0.36136 0.0
C872 C 0.51783 0.8846 0.34423 0.0
C873 C 0.52975 0.89142 0.39294 0.0
C874 C 0.541 0.88693 0.38256 0.0
C875 C 0.53678 0.88511 0.36678 0.0
C876 C 0.55665 0.8826 0.38775 0.0
C877 C 0.53383 0.89538 0.40968 0.0
C878 C 0.57001 0.88718 0.37938 0.0
C879 C 0.58399 0.88059 0.38209 0.0
C880 C 0.58502 0.86962 0.39351 0.0
C881 C 0.57205 0.86579 0.4026 0.0
C882 C 0.55791 0.872 0.39956 0.0
H883 H 0.52679 0.90446 0.41391 0.0
H884 H 0.53094 0.88519 0.41675 0.0
H885 H 0.54643 0.8993 0.41152 0.0
H886 H 0.56942 0.89532 0.37023 0.0
H887 H 0.59388 0.88377 0.37497 0.0
H888 H 0.39012 0.20959 0.58339 0.0
H889 H 0.39558 0.23675 0.58967 0.0
H890 H 0.38599 0.22797 0.63744 0.0
H891 H 0.38115 0.20073 0.63135 0.0
H892 H 0.37689 0.25617 0.60023 0.0
H893 H 0.42638 0.2542 0.64235 0.0
H894 H 0.41902 0.23792 0.63047 0.0
H895 H 0.40939 0.24243 0.64792 0.0
C896 C 0.38938 0.21343 0.59527 0.0
C897 C 0.38531 0.20301 0.6069 0.0
C898 C 0.39247 0.22896 0.59884 0.0
C899 C 0.39143 0.2344 0.61407 0.0
C900 C 0.38731 0.22401 0.62569 0.0
H901 H 0.37832 0.3279 0.6405 0.0
H902 H 0.37466 0.30107 0.63224 0.0
C903 C 0.38447 0.20844 0.62217 0.0
C904 C 0.39396 0.251 0.61762 0.0
H905 H 0.41431 0.2775 0.64155 0.0
C906 C 0.38517 0.26085 0.60918 0.0
C907 C 0.40492 0.25714 0.62914 0.0
C908 C 0.41558 0.24738 0.63787 0.0
C909 C 0.38687 0.27665 0.61209 0.0
C910 C 0.39726 0.2827 0.62414 0.0
C911 C 0.40621 0.27286 0.63242 0.0
C912 C 0.39922 0.29919 0.62833 0.0
C913 C 0.37772 0.28666 0.602 0.0
C914 C 0.41426 0.30701 0.62918 0.0
C915 C 0.4164 0.32221 0.63424 0.0
C916 C 0.40354 0.32996 0.6384 0.0
C917 C 0.38844 0.32227 0.63719 0.0
C918 C 0.38632 0.30695 0.63238 0.0
H919 H 0.37448 0.28109 0.59059 0.0
H920 H 0.36672 0.28881 0.6077 0.0
H921 H 0.38449 0.29779 0.60007 0.0
H922 H 0.42439 0.30128 0.62613 0.0
H923 H 0.42818 0.32786 0.63501 0.0
H924 H 0.01807 0.12283 0.82752 0.0
H925 H 0.99216 0.11989 0.83848 0.0
H926 H 0.01159 0.10126 0.87966 0.0
H927 H 0.03775 0.10419 0.86872 0.0
H928 H 0.97326 0.09379 0.85195 0.0
H929 H 0.99261 0.14149 0.89347 0.0
H930 H 0.00348 0.13782 0.87651 0.0
H931 H 0.00405 0.12542 0.89264 0.0
C932 C 0.01683 0.11786 0.8388 0.0
C933 C 0.02997 0.1139 0.84734 0.0
C934 C 0.002 0.11613 0.84502 0.0
C935 C 3e-05 0.11053 0.85992 0.0
C936 C 0.01294 0.10572 0.86817 0.0
H937 H 0.91682 0.13036 0.90999 0.0
H938 H 0.94107 0.11898 0.90453 0.0
C939 C 0.02784 0.10735 0.86189 0.0
C940 C 0.98472 0.11126 0.86715 0.0
H941 H 0.9659 0.13341 0.89179 0.0
C942 C 0.97164 0.10224 0.86088 0.0
C943 C 0.9827 0.12226 0.87883 0.0
C944 C 0.99639 0.13239 0.88577 0.0
C945 C 0.95646 0.10436 0.86555 0.0
C946 C 0.95434 0.11607 0.87648 0.0
C947 C 0.96753 0.12447 0.88339 0.0
C948 C 0.93867 0.12095 0.87973 0.0
C949 C 0.94285 0.09421 0.85853 0.0
C950 C 0.92922 0.12577 0.86761 0.0
C951 C 0.91536 0.1322 0.87068 0.0
C952 C 0.91077 0.13416 0.88596 0.0
C953 C 0.92004 0.12901 0.89808 0.0
C954 C 0.93389 0.12249 0.89499 0.0
H955 H 0.94646 0.08284 0.85526 0.0
H956 H 0.93304 0.09264 0.86659 0.0
H957 H 0.93856 0.09944 0.84785 0.0
H958 H 0.93286 0.12513 0.85578 0.0
H959 H 0.90854 0.13612 0.86108 0.0
H960 H 0.40488 0.1036 0.21568 0.0
H961 H 0.39449 0.104 0.24144 0.0
H962 H 0.38045 0.14913 0.23408 0.0
H963 H 0.39012 0.14836 0.2077 0.0
H964 H 0.40305 0.12091 0.26501 0.0
H965 H 0.34106 0.12952 0.25078 0.0
H966 H 0.35465 0.12538 0.23618 0.0
H967 H 0.35486 0.14438 0.24421 0.0
C968 C 0.39953 0.11361 0.2195 0.0
C969 C 0.39832 0.12596 0.2097 0.0
C970 C 0.39358 0.11383 0.23426 0.0
C971 C 0.3865 0.12652 0.23973 0.0
C972 C 0.38546 0.13903 0.23003 0.0
H973 H 0.37453 0.12456 0.33994 0.0
H974 H 0.38197 0.13402 0.31456 0.0
C975 C 0.39112 0.13865 0.21502 0.0
C976 C 0.3808 0.12651 0.25577 0.0
H977 H 0.34832 0.12877 0.27724 0.0
C978 C 0.39108 0.12267 0.26767 0.0
C979 C 0.36515 0.12873 0.25926 0.0
C980 C 0.35324 0.13209 0.24693 0.0
C981 C 0.38605 0.12025 0.28273 0.0
C982 C 0.37045 0.12265 0.28631 0.0
C983 C 0.3603 0.12707 0.27455 0.0
C984 C 0.36417 0.11934 0.30183 0.0
C985 C 0.39733 0.11425 0.29433 0.0
C986 C 0.35082 0.10898 0.30326 0.0
C987 C 0.34616 0.10408 0.31781 0.0
C988 C 0.35496 0.10922 0.33112 0.0
C989 C 0.36771 0.12027 0.32979 0.0
C990 C 0.37204 0.12556 0.31529 0.0
H991 H 0.40695 0.10896 0.28859 0.0
H992 H 0.40275 0.12382 0.30177 0.0
H993 H 0.39127 0.1056 0.30177 0.0
H994 H 0.34446 0.10409 0.29308 0.0
H995 H 0.33629 0.09553 0.31856 0.0
H996 H 0.12883 0.12658 0.44808 0.0
H997 H 0.12783 0.11819 0.4748 0.0
H998 H 0.12648 0.1647 0.4906 0.0
H999 H 0.12734 0.17322 0.46393 0.0
H1000 H 0.14847 0.1268 0.49993 0.0
H1001 H 0.08849 0.14212 0.51081 0.0
H1002 H 0.09596 0.14079 0.49162 0.0
H1003 H 0.10137 0.15743 0.50361 0.0
C1004 C 0.12835 0.13505 0.45722 0.0
C1005 C 0.12809 0.15058 0.45384 0.0
C1006 C 0.12775 0.13022 0.47249 0.0
C1007 C 0.12677 0.14079 0.48463 0.0
C1008 C 0.12688 0.15632 0.48135 0.0
H1009 H 0.12875 0.14177 0.58343 0.0
H1010 H 0.12553 0.14671 0.55595 0.0
C1011 C 0.1275 0.16118 0.4661 0.0
C1012 C 0.12598 0.13563 0.50079 0.0
H1013 H 0.10363 0.1355 0.53273 0.0
C1014 C 0.13861 0.12855 0.50708 0.0
C1015 C 0.11307 0.13792 0.51004 0.0
C1016 C 0.09887 0.14485 0.50366 0.0
C1017 C 0.13896 0.12419 0.52258 0.0
C1018 C 0.12616 0.12672 0.53191 0.0
C1019 C 0.11339 0.13355 0.52553 0.0
C1020 C 0.12631 0.12322 0.54858 0.0
C1021 C 0.15328 0.11748 0.52897 0.0
C1022 C 0.12721 0.10827 0.55358 0.0
C1023 C 0.12908 0.10539 0.56933 0.0
C1024 C 0.13 0.11742 0.58031 0.0
C1025 C 0.12816 0.13224 0.57528 0.0
C1026 C 0.12631 0.1351 0.55957 0.0
H1027 H 0.16338 0.11938 0.52129 0.0
H1028 H 0.15679 0.12246 0.54057 0.0
H1029 H 0.15059 0.10501 0.53016 0.0
H1030 H 0.1269 0.09889 0.54529 0.0
H1031 H 0.13038 0.09384 0.57282 0.0
H1032 H 0.16129 0.92569 0.8241 0.0
H1033 H 0.15034 0.91714 0.79876 0.0
H1034 H 0.1199 0.8824 0.82002 0.0
H1035 H 0.13107 0.89065 0.84549 0.0
H1036 H 0.13375 0.87155 0.79443 0.0
H1037 H 0.10773 0.92515 0.78118 0.0
H1038 H 0.12829 0.9282 0.78592 0.0
H1039 H 0.11494 0.92106 0.80028 0.0
C1040 C 0.15221 0.91628 0.82343 0.0
C1041 C 0.14697 0.90893 0.83684 0.0
C1042 C 0.14592 0.91144 0.80893 0.0
C1043 C 0.13411 0.89932 0.80754 0.0
C1044 C 0.12896 0.89183 0.82086 0.0
H1045 H 0.07828 0.88402 0.72282 0.0
H1046 H 0.08689 0.88733 0.74986 0.0
C1047 C 0.13533 0.8966 0.83539 0.0
C1048 C 0.12726 0.89443 0.79214 0.0
H1049 H 0.10932 0.90764 0.76014 0.0
C1050 C 0.12828 0.87938 0.78695 0.0
C1051 C 0.11991 0.9046 0.78252 0.0
C1052 C 0.11749 0.9206 0.78781 0.0
C1053 C 0.12251 0.87434 0.7722 0.0
C1054 C 0.11585 0.88474 0.7623 0.0
C1055 C 0.11454 0.89969 0.76767 0.0
C1056 C 0.11013 0.88056 0.74631 0.0
C1057 C 0.12341 0.8579 0.76748 0.0
C1058 C 0.12021 0.8753 0.73535 0.0
C1059 C 0.11521 0.87317 0.71986 0.0
C1060 C 0.10018 0.87659 0.71507 0.0
C1061 C 0.08997 0.88138 0.72615 0.0
C1062 C 0.09488 0.88328 0.74161 0.0
H1063 H 0.12418 0.85055 0.7777 0.0
H1064 H 0.11307 0.85347 0.76016 0.0
H1065 H 0.13408 0.85698 0.76075 0.0
H1066 H 0.13215 0.87346 0.73861 0.0
H1067 H 0.12335 0.86958 0.71153 0.0
H1068 H 0.37841 0.87649 0.95447 0.0
H1069 H 0.37958 0.88311 0.982 0.0
H1070 H 0.37766 0.83548 0.99293 0.0
H1071 H 0.37667 0.8287 0.96539 0.0
H1072 H 0.35728 0.87423 0.00346 0.0
H1073 H 0.41482 0.85439 0.01994 0.0
H1074 H 0.40887 0.85725 0.00012 0.0
H1075 H 0.40165 0.84029 0.00982 0.0
C1076 C 0.37834 0.8674 0.9627 0.0
C1077 C 0.37747 0.85205 0.9577 0.0
C1078 C 0.37902 0.87122 0.97844 0.0
C1079 C 0.37895 0.85981 0.98949 0.0
C1080 C 0.37808 0.84448 0.98458 0.0
H1081 H 0.36969 0.85383 0.08739 0.0
H1082 H 0.37456 0.84992 0.06006 0.0
C1083 C 0.37739 0.84063 0.96883 0.0
C1084 C 0.37892 0.86392 0.00614 0.0
H1085 H 0.39871 0.86082 0.04056 0.0
C1086 C 0.36641 0.87145 0.01156 0.0
C1087 C 0.39085 0.86024 0.01665 0.0
C1088 C 0.40489 0.85272 0.01136 0.0
C1089 C 0.36523 0.87498 0.02731 0.0
C1090 C 0.37706 0.87114 0.03786 0.0
C1091 C 0.3897 0.8638 0.03242 0.0
C1092 C 0.37597 0.87386 0.0547 0.0
C1093 C 0.35103 0.88228 0.03257 0.0
C1094 C 0.37572 0.88868 0.06085 0.0
C1095 C 0.37289 0.89097 0.07649 0.0
C1096 C 0.37035 0.87846 0.08624 0.0
C1097 C 0.37151 0.86371 0.08019 0.0
C1098 C 0.37432 0.86144 0.06457 0.0
H1099 H 0.34147 0.8814 0.02357 0.0
H1100 H 0.34647 0.87692 0.04323 0.0
H1101 H 0.35435 0.89455 0.03521 0.0
H1102 H 0.37728 0.89844 0.05345 0.0
H1103 H 0.37216 0.90248 0.08081 0.0
H1104 H 0.42137 0.88032 0.29706 0.0
H1105 H 0.41824 0.88327 0.26917 0.0
H1106 H 0.36863 0.8706 0.27181 0.0
H1107 H 0.37157 0.86813 0.29976 0.0
H1108 H 0.40777 0.86431 0.24565 0.0
H1109 H 0.36918 0.91094 0.25082 0.0
H1110 H 0.37961 0.90403 0.26722 0.0
H1111 H 0.36148 0.89399 0.26013 0.0
C1112 C 0.40979 0.87812 0.2917 0.0
C1113 C 0.39668 0.87417 0.30065 0.0
C1114 C 0.40804 0.8798 0.27576 0.0
C1115 C 0.39316 0.87748 0.26846 0.0
C1116 C 0.38016 0.87288 0.27727 0.0
H1117 H 0.37005 0.86575 0.1708 0.0
H1118 H 0.37832 0.86205 0.19759 0.0
C1119 C 0.38186 0.87139 0.29323 0.0
C1120 C 0.3912 0.88016 0.25171 0.0
H1121 H 0.37097 0.89997 0.22572 0.0
C1122 C 0.39981 0.87218 0.24126 0.0
C1123 C 0.38108 0.89068 0.24603 0.0
C1124 C 0.37245 0.90052 0.25664 0.0
C1125 C 0.39825 0.87417 0.22526 0.0
C1126 C 0.38748 0.88408 0.21956 0.0
C1127 C 0.37915 0.89228 0.23005 0.0
C1128 C 0.38433 0.88606 0.20281 0.0
C1129 C 0.40834 0.86581 0.21469 0.0
C1130 C 0.38487 0.90077 0.1968 0.0
C1131 C 0.37979 0.90293 0.18162 0.0
C1132 C 0.37424 0.8904 0.17208 0.0
C1133 C 0.37442 0.87562 0.17784 0.0
C1134 C 0.37924 0.87348 0.19314 0.0
H1135 H 0.41926 0.86304 0.22077 0.0
H1136 H 0.40181 0.85491 0.2107 0.0
H1137 H 0.41155 0.87261 0.20441 0.0
H1138 H 0.38876 0.91065 0.20403 0.0
H1139 H 0.37986 0.91445 0.17746 0.0
H1140 H 0.35621 0.16543 0.53023 0.0
H1141 H 0.35503 0.15544 0.50382 0.0
H1142 H 0.38873 0.12401 0.51606 0.0
H1143 H 0.38963 0.1337 0.54284 0.0
H1144 H 0.3763 0.15353 0.48176 0.0
H1145 H 0.35231 0.09562 0.49864 0.0
H1146 H 0.35411 0.11168 0.51198 0.0
H1147 H 0.37105 0.10216 0.50735 0.0
C1148 C 0.36348 0.15646 0.52734 0.0
C1149 C 0.37289 0.15023 0.53868 0.0
C1150 C 0.36281 0.15078 0.51219 0.0
C1151 C 0.37156 0.13879 0.50803 0.0
C1152 C 0.3816 0.13303 0.51912 0.0
H1153 H 0.37146 0.10993 0.41034 0.0
H1154 H 0.37994 0.11995 0.43604 0.0
C1155 C 0.38219 0.13865 0.53438 0.0
C1156 C 0.36948 0.13206 0.49221 0.0
H1157 H 0.35566 0.09962 0.47215 0.0
C1158 C 0.37191 0.14171 0.47963 0.0
C1159 C 0.36355 0.11668 0.4895 0.0
C1160 C 0.35996 0.10593 0.50255 0.0
C1161 C 0.36818 0.13653 0.46443 0.0
C1162 C 0.36227 0.12115 0.46172 0.0
C1163 C 0.36024 0.11139 0.47427 0.0
C1164 C 0.35728 0.11511 0.44609 0.0
C1165 C 0.36995 0.14775 0.45151 0.0
C1166 C 0.34182 0.10872 0.44328 0.0
C1167 C 0.337 0.10278 0.42867 0.0
C1168 C 0.34753 0.10318 0.41656 0.0
C1169 C 0.36301 0.10961 0.41938 0.0
C1170 C 0.36787 0.11541 0.43405 0.0
H1171 H 0.37071 0.15973 0.45591 0.0
H1172 H 0.38089 0.14617 0.44542 0.0
H1173 H 0.35998 0.14593 0.44301 0.0
H1174 H 0.33346 0.10835 0.45241 0.0
H1175 H 0.325 0.09789 0.42689 0.0
H1176 H 0.07145 0.11871 0.78382 0.0
H1177 H 0.07736 0.11563 0.7566 0.0
H1178 H 0.12597 0.11269 0.76911 0.0
H1179 H 0.12025 0.11599 0.79637 0.0
H1180 H 0.12143 0.13255 0.74508 0.0
H1181 H 0.08721 0.07648 0.73427 0.0
H1182 H 0.07628 0.09094 0.74236 0.0
H1183 H 0.09209 0.08409 0.75348 0.0
C1184 C 0.08339 0.11732 0.78081 0.0
C1185 C 0.09537 0.11754 0.7923 0.0
C1186 C 0.08672 0.11549 0.76524 0.0
C1187 C 0.10206 0.11374 0.76087 0.0
C1188 C 0.11405 0.11398 0.77227 0.0
H1189 H 0.13678 0.08215 0.67538 0.0
H1190 H 0.1279 0.08571 0.70156 0.0
C1191 C 0.11074 0.11583 0.78785 0.0
C1192 C 0.10571 0.11201 0.74438 0.0
H1193 H 0.09814 0.08881 0.71251 0.0
C1194 C 0.11633 0.12301 0.73793 0.0
C1195 C 0.09911 0.09948 0.73516 0.0
C1196 C 0.08814 0.08698 0.74166 0.0
C1197 C 0.12058 0.1218 0.72248 0.0
C1198 C 0.11381 0.10939 0.71319 0.0
C1199 C 0.10317 0.0984 0.71964 0.0
C1200 C 0.11837 0.1071 0.69704 0.0
C1201 C 0.13262 0.13358 0.71636 0.0
C1202 C 0.11565 0.11781 0.68573 0.0
C1203 C 0.12076 0.11585 0.67071 0.0
C1204 C 0.1286 0.10308 0.66675 0.0
C1205 C 0.13084 0.09215 0.67803 0.0
C1206 C 0.12576 0.09414 0.693 0.0
H1207 H 0.13916 0.14036 0.72582 0.0
H1208 H 0.14112 0.1281 0.70921 0.0
H1209 H 0.12664 0.14154 0.70897 0.0
H1210 H 0.1097 0.12775 0.68856 0.0
H1211 H 0.11877 0.12443 0.66229 0.0
H1212 H 0.12898 0.83622 0.02419 0.0
H1213 H 0.12651 0.84993 0.00016 0.0
H1214 H 0.10736 0.88649 0.02472 0.0
H1215 H 0.10966 0.87273 0.04898 0.0
H1216 H 0.09727 0.86472 0.98612 0.0
H1217 H 0.15049 0.90347 0.00304 0.0
H1218 H 0.14713 0.88484 0.01129 0.0
H1219 H 0.13516 0.89957 0.01659 0.0
C1220 C 0.12401 0.84707 0.02448 0.0
C1221 C 0.1196 0.85345 0.03849 0.0
C1222 C 0.12258 0.85486 0.01073 0.0
C1223 C 0.11684 0.86921 0.01074 0.0
C1224 C 0.11183 0.8754 0.02455 0.0
H1225 H 0.13889 0.92488 0.92976 0.0
H1226 H 0.12781 0.91856 0.95488 0.0
C1227 C 0.11312 0.86752 0.03835 0.0
C1228 C 0.11739 0.878 0.99639 0.0
H1229 H 0.14163 0.90351 0.97719 0.0
C1230 C 0.10675 0.87345 0.98421 0.0
C1231 C 0.12968 0.88947 0.99404 0.0
C1232 C 0.14134 0.89471 0.00687 0.0
C1233 C 0.10858 0.87954 0.96945 0.0
C1234 C 0.12166 0.89008 0.96676 0.0
C1235 C 0.13165 0.89538 0.97923 0.0
C1236 C 0.1264 0.89414 0.95092 0.0
C1237 C 0.0967 0.87431 0.95682 0.0
C1238 C 0.12926 0.88255 0.94035 0.0
C1239 C 0.13553 0.88611 0.92607 0.0
C1240 C 0.13928 0.90137 0.92207 0.0
C1241 C 0.13609 0.91302 0.93249 0.0
C1242 C 0.12976 0.90943 0.94683 0.0
H1243 H 0.08496 0.87141 0.96163 0.0
H1244 H 0.09576 0.88315 0.94797 0.0
H1245 H 0.10024 0.86385 0.95112 0.0
H1246 H 0.12724 0.87068 0.94338 0.0
H1247 H 0.13789 0.87684 0.91836 0.0
H1248 H 0.34675 0.38778 0.11611 0.0
H1249 H 0.32157 0.39526 0.12424 0.0
H1250 H 0.3016 0.3486 0.11941 0.0
H1251 H 0.32683 0.34099 0.11109 0.0
H1252 H 0.28486 0.36868 0.10341 0.0
H1253 H 0.29678 0.39005 0.16348 0.0
H1254 H 0.31085 0.3982 0.15035 0.0
H1255 H 0.30949 0.37805 0.15372 0.0
C1256 C 0.3371 0.37904 0.11704 0.0
C1257 C 0.33878 0.36379 0.11289 0.0
C1258 C 0.32272 0.38333 0.12182 0.0
C1259 C 0.30975 0.37247 0.12264 0.0
C1260 C 0.31151 0.35715 0.11898 0.0
H1261 H 0.21471 0.39552 0.14368 0.0
H1262 H 0.23926 0.38328 0.14494 0.0
C1263 C 0.32593 0.35282 0.11424 0.0
C1264 C 0.29406 0.37748 0.12555 0.0
H1265 H 0.27419 0.39875 0.15027 0.0
C1266 C 0.28244 0.37501 0.11379 0.0
C1267 C 0.29088 0.38569 0.13911 0.0
C1268 C 0.30261 0.38803 0.15245 0.0
C1269 C 0.26804 0.38119 0.11488 0.0
C1270 C 0.26523 0.39013 0.12802 0.0
C1271 C 0.27648 0.392 0.14015 0.0
C1272 C 0.25104 0.39839 0.12873 0.0
C1273 C 0.25605 0.37851 0.10178 0.0
C1274 C 0.24978 0.41114 0.11953 0.0
C1275 C 0.23588 0.41817 0.11882 0.0
C1276 C 0.22293 0.41254 0.12728 0.0
C1277 C 0.22446 0.40013 0.13702 0.0
C1278 C 0.23845 0.39312 0.13776 0.0
H1279 H 0.25874 0.3691 0.09387 0.0
H1280 H 0.24417 0.37577 0.1063 0.0
H1281 H 0.25586 0.38905 0.09501 0.0
H1282 H 0.25943 0.4154 0.11254 0.0
H1283 H 0.23514 0.42772 0.11123 0.0
H1284 H 0.70208 0.0911 0.87381 0.0
H1285 H 0.73015 0.09736 0.87846 0.0
H1286 H 0.72234 0.14386 0.88957 0.0
H1287 H 0.69417 0.13778 0.88477 0.0
H1288 H 0.747 0.14085 0.86927 0.0
H1289 H 0.7522 0.10525 0.92103 0.0
H1290 H 0.74307 0.09524 0.90438 0.0
H1291 H 0.73361 0.11026 0.91341 0.0
C1292 C 0.70629 0.10267 0.87727 0.0
C1293 C 0.69586 0.11393 0.87899 0.0
C1294 C 0.72234 0.10619 0.87999 0.0
C1295 C 0.72825 0.121 0.88459 0.0
C1296 C 0.71795 0.13234 0.88611 0.0
H1297 H 0.81988 0.15148 0.92344 0.0
H1298 H 0.79198 0.14438 0.91846 0.0
C1299 C 0.70187 0.12883 0.88337 0.0
C1300 C 0.74524 0.12469 0.8876 0.0
H1301 H 0.77594 0.11598 0.91066 0.0
C1302 C 0.75334 0.13545 0.87833 0.0
C1303 C 0.7534 0.11771 0.89953 0.0
C1304 C 0.74513 0.10657 0.91027 0.0
C1305 C 0.7695 0.13931 0.88057 0.0
C1306 C 0.77773 0.13202 0.89223 0.0
C1307 C 0.76959 0.1214 0.90161 0.0
C1308 C 0.79472 0.13572 0.89527 0.0
C1309 C 0.77755 0.15134 0.87064 0.0
C1310 C 0.80551 0.13288 0.88398 0.0
C1311 C 0.8215 0.13693 0.88678 0.0
C1312 C 0.82694 0.14384 0.90094 0.0
C1313 C 0.8161 0.14624 0.91238 0.0
C1314 C 0.80014 0.14219 0.90957 0.0
H1315 H 0.76905 0.15827 0.86479 0.0
H1316 H 0.78609 0.15908 0.87763 0.0
H1317 H 0.78404 0.14575 0.86159 0.0
H1318 H 0.80155 0.12761 0.87298 0.0
H1319 H 0.82954 0.13485 0.87775 0.0
H1320 H 0.13315 0.45828 0.13387 0.0
H1321 H 0.12526 0.48417 0.13499 0.0
H1322 H 0.1732 0.50229 0.12975 0.0
H1323 H 0.18119 0.47642 0.12829 0.0
H1324 H 0.13403 0.50791 0.15506 0.0
H1325 H 0.1507 0.52342 0.09564 0.0
H1326 H 0.14959 0.50406 0.1022 0.0
H1327 H 0.16644 0.51712 0.10721 0.0
C1328 C 0.14205 0.46775 0.13298 0.0
C1329 C 0.1578 0.46525 0.13088 0.0
C1330 C 0.1375 0.48255 0.13361 0.0
C1331 C 0.14858 0.49515 0.13212 0.0
C1332 C 0.16438 0.49273 0.13051 0.0
H1333 H 0.14615 0.59266 0.13938 0.0
H1334 H 0.15323 0.56665 0.13566 0.0
C1335 C 0.16894 0.47792 0.1298 0.0
C1336 C 0.14359 0.51081 0.13251 0.0
H1337 H 0.14347 0.54348 0.1119 0.0
C1338 C 0.136 0.51565 0.14559 0.0
C1339 C 0.14615 0.52088 0.12011 0.0
C1340 C 0.15353 0.51609 0.10543 0.0
C1341 C 0.13119 0.5304 0.14674 0.0
C1342 C 0.13388 0.5405 0.13441 0.0
C1343 C 0.14142 0.53567 0.12131 0.0
C1344 C 0.12936 0.55628 0.13518 0.0
C1345 C 0.12361 0.53521 0.16131 0.0
C1346 C 0.11355 0.55908 0.13563 0.0
C1347 C 0.10944 0.57395 0.13768 0.0
C1348 C 0.12109 0.58625 0.13935 0.0
C1349 C 0.13689 0.58344 0.13819 0.0
C1350 C 0.14097 0.56859 0.13607 0.0
H1351 H 0.12521 0.52722 0.17086 0.0
H1352 H 0.1285 0.54682 0.16516 0.0
H1353 H 0.11086 0.5355 0.15897 0.0
H1354 H 0.10442 0.54972 0.13473 0.0
H1355 H 0.09718 0.57573 0.1385 0.0
H1356 H 0.66348 0.86848 0.3779 0.0
H1357 H 0.69047 0.87701 0.37163 0.0
H1358 H 0.70706 0.85879 0.41426 0.0
H1359 H 0.68018 0.85033 0.42073 0.0
H1360 H 0.72071 0.88863 0.40766 0.0
H1361 H 0.7229 0.84768 0.3583 0.0
H1362 H 0.70692 0.85946 0.35766 0.0
H1363 H 0.70794 0.84564 0.37252 0.0
C1364 C 0.67286 0.86634 0.38598 0.0
C1365 C 0.66968 0.85863 0.39977 0.0
C1366 C 0.68826 0.87116 0.38233 0.0
C1367 C 0.70072 0.86832 0.39239 0.0
C1368 C 0.69758 0.86101 0.40633 0.0
H1369 H 0.79939 0.86725 0.37929 0.0
H1370 H 0.77144 0.86153 0.38348 0.0
C1371 C 0.68221 0.85617 0.40998 0.0
C1372 C 0.71709 0.87281 0.38838 0.0
H1373 H 0.74525 0.86505 0.36319 0.0
C1374 C 0.72608 0.88356 0.3979 0.0
C1375 C 0.72404 0.86599 0.37573 0.0
C1376 C 0.71504 0.85396 0.3655 0.0
C1377 C 0.74191 0.88767 0.39513 0.0
C1378 C 0.74883 0.88096 0.3824 0.0
C1379 C 0.73983 0.87024 0.37286 0.0
C1380 C 0.76558 0.88444 0.37922 0.0
C1381 C 0.75124 0.89883 0.40607 0.0
C1382 C 0.77144 0.89916 0.37516 0.0
C1383 C 0.78741 0.90249 0.37275 0.0
C1384 C 0.79777 0.89112 0.37433 0.0
C1385 C 0.79175 0.87628 0.37803 0.0
C1386 C 0.77579 0.87298 0.38041 0.0
H1387 H 0.7451 0.90046 0.417 0.0
H1388 H 0.7629 0.89493 0.40889 0.0
H1389 H 0.75311 0.91005 0.40048 0.0
H1390 H 0.76367 0.90809 0.37394 0.0
H1391 H 0.79163 0.914 0.36984 0.0
H1392 H 0.86431 0.90729 0.13302 0.0
H1393 H 0.85745 0.932 0.12425 0.0
H1394 H 0.90621 0.94922 0.12648 0.0
H1395 H 0.9132 0.92447 0.13543 0.0
H1396 H 0.8874 0.96705 0.14267 0.0
H1397 H 0.86188 0.95475 0.08382 0.0
H1398 H 0.85361 0.94186 0.09782 0.0
H1399 H 0.87403 0.94203 0.0936 0.0
C1400 C 0.87363 0.91623 0.13138 0.0
C1401 C 0.88931 0.91392 0.13498 0.0
C1402 C 0.86969 0.93033 0.12623 0.0
C1403 C 0.88133 0.9424 0.1245 0.0
C1404 C 0.89705 0.94001 0.12762 0.0
H1405 H 0.86159 0.03596 0.10127 0.0
H1406 H 0.87303 0.01144 0.10046 0.0
C1407 C 0.90103 0.92586 0.13272 0.0
C1408 C 0.87683 0.95788 0.1212 0.0
H1409 H 0.85491 0.97768 0.09648 0.0
C1410 C 0.88055 0.96945 0.13243 0.0
C1411 C 0.86794 0.96103 0.1078 0.0
C1412 C 0.86426 0.9493 0.095 0.0
C1413 C 0.87494 0.9838 0.13101 0.0
C1414 C 0.86531 0.98664 0.11807 0.0
C1415 C 0.8622 0.97538 0.10644 0.0
C1416 C 0.85752 0.00086 0.11717 0.0
C1417 C 0.8789 0.99573 0.14358 0.0
C1418 C 0.84482 0.00281 0.12654 0.0
C1419 C 0.83826 0.01669 0.127 0.0
C1420 C 0.84431 0.02894 0.11812 0.0
C1421 C 0.85667 0.02676 0.10825 0.0
C1422 C 0.86322 0.01278 0.10776 0.0
H1423 H 0.88863 0.99277 0.15137 0.0
H1424 H 0.88221 0.00701 0.13851 0.0
H1425 H 0.86844 0.99679 0.1506 0.0
H1426 H 0.84026 0.99368 0.13383 0.0
H1427 H 0.82873 0.01794 0.1347 0.0
H1428 H 0.17665 0.6572 0.6058 0.0
H1429 H 0.20307 0.64892 0.60834 0.0
H1430 H 0.18339 0.60252 0.6134 0.0
H1431 H 0.15703 0.61061 0.61068 0.0
H1432 H 0.21835 0.63293 0.63143 0.0
H1433 H 0.21137 0.59992 0.57607 0.0
H1434 H 0.19805 0.61357 0.58162 0.0
H1435 H 0.19641 0.59482 0.58958 0.0
C1436 C 0.17795 0.64527 0.60765 0.0
C1437 C 0.16475 0.63454 0.60788 0.0
C1438 C 0.19304 0.64056 0.60906 0.0
C1439 C 0.19517 0.62507 0.61069 0.0
C1440 C 0.18201 0.61448 0.61178 0.0
H1441 H 0.27375 0.5708 0.6171 0.0
H1442 H 0.24798 0.58048 0.6155 0.0
C1443 C 0.16695 0.61915 0.61032 0.0
C1444 C 0.21109 0.61987 0.6108 0.0
H1445 H 0.23411 0.59677 0.59153 0.0
C1446 C 0.22185 0.6251 0.62267 0.0
C1447 C 0.21562 0.60968 0.5993 0.0
C1448 C 0.20483 0.60426 0.58583 0.0
C1449 C 0.23691 0.62009 0.6236 0.0
C1450 C 0.24135 0.60977 0.6122 0.0
C1451 C 0.23064 0.60465 0.60026 0.0
C1452 C 0.257 0.60396 0.6126 0.0
C1453 C 0.24779 0.62556 0.63698 0.0
C1454 C 0.27058 0.61391 0.6111 0.0
C1455 C 0.28534 0.60844 0.61196 0.0
C1456 C 0.28678 0.59286 0.61431 0.0
C1457 C 0.27309 0.58286 0.61534 0.0
C1458 C 0.25835 0.58836 0.61444 0.0
H1459 H 0.24144 0.63058 0.6465 0.0
H1460 H 0.25405 0.61607 0.64159 0.0
H1461 H 0.25666 0.63446 0.63295 0.0
H1462 H 0.26977 0.62595 0.60935 0.0
H1463 H 0.29561 0.61645 0.61105 0.0
H1464 H 0.11905 0.41157 0.37396 0.0
H1465 H 0.1278 0.43799 0.38174 0.0
H1466 H 0.09769 0.45411 0.34608 0.0
H1467 H 0.0894 0.42796 0.33794 0.0
H1468 H 0.12613 0.46788 0.34504 0.0
H1469 H 0.10674 0.46976 0.4055 0.0
H1470 H 0.11928 0.45505 0.40162 0.0
H1471 H 0.10027 0.45429 0.39218 0.0
C1472 C 0.11425 0.42077 0.36786 0.0
C1473 C 0.10363 0.41768 0.35526 0.0
C1474 C 0.11915 0.43585 0.37241 0.0
C1475 C 0.11325 0.44804 0.36462 0.0
C1476 C 0.10241 0.4449 0.35227 0.0
H1477 H 0.11968 0.54514 0.38447 0.0
H1478 H 0.11214 0.51754 0.38398 0.0
C1479 C 0.09771 0.42993 0.3476 0.0
C1480 C 0.11908 0.4641 0.3684 0.0
H1481 H 0.12247 0.49152 0.39705 0.0
C1482 C 0.12531 0.47303 0.35643 0.0
C1483 C 0.11786 0.47085 0.38322 0.0
C1484 C 0.11054 0.46205 0.39634 0.0
C1485 C 0.1302 0.48851 0.35875 0.0
C1486 C 0.12944 0.49519 0.37366 0.0
C1487 C 0.12323 0.48631 0.3857 0.0
C1488 C 0.13469 0.51151 0.37665 0.0
C1489 C 0.13567 0.49766 0.34503 0.0
C1490 C 0.15004 0.51717 0.37344 0.0
C1491 C 0.15423 0.53283 0.3734 0.0
C1492 C 0.14327 0.5431 0.37702 0.0
C1493 C 0.12832 0.53743 0.38162 0.0
C1494 C 0.12402 0.5217 0.38134 0.0
H1495 H 0.13141 0.49198 0.33393 0.0
H1496 H 0.13161 0.50924 0.34544 0.0
H1497 H 0.14866 0.49883 0.3451 0.0
H1498 H 0.15857 0.50948 0.37021 0.0
H1499 H 0.16591 0.53692 0.37005 0.0
H1500 H 0.39095 0.57315 0.84019 0.0
H1501 H 0.38371 0.54733 0.84859 0.0
H1502 H 0.37372 0.56464 0.89375 0.0
H1503 H 0.38081 0.59075 0.88536 0.0
H1504 H 0.3976 0.53241 0.87321 0.0
H1505 H 0.33393 0.53656 0.88089 0.0
H1506 H 0.34584 0.55039 0.87019 0.0
H1507 H 0.34741 0.55053 0.89088 0.0
C1508 C 0.38714 0.57155 0.8519 0.0
C1509 C 0.38645 0.58405 0.8621 0.0
C1510 C 0.38304 0.55675 0.85669 0.0
C1511 C 0.37814 0.55408 0.87176 0.0
C1512 C 0.37731 0.56648 0.882 0.0
H1513 H 0.36849 0.45633 0.89528 0.0
H1514 H 0.37527 0.48388 0.89915 0.0
C1515 C 0.38139 0.58138 0.87719 0.0
C1516 C 0.37412 0.53819 0.87651 0.0
H1517 H 0.34312 0.51252 0.88392 0.0
C1518 C 0.38575 0.52805 0.87582 0.0
C1519 C 0.35864 0.53263 0.87988 0.0
C1520 C 0.34566 0.54301 0.88044 0.0
C1521 C 0.38216 0.51234 0.87757 0.0
C1522 C 0.36655 0.50669 0.88035 0.0
C1523 C 0.35508 0.51693 0.88187 0.0
C1524 C 0.36146 0.49016 0.87936 0.0
C1525 C 0.39487 0.50184 0.87539 0.0
C1526 C 0.35108 0.48465 0.8673 0.0
C1527 C 0.34715 0.46906 0.86513 0.0
C1528 C 0.35351 0.45859 0.87499 0.0
C1529 C 0.36349 0.46412 0.88743 0.0
C1530 C 0.36741 0.47983 0.88962 0.0
H1531 H 0.4057 0.50789 0.87091 0.0
H1532 H 0.39789 0.49689 0.88665 0.0
H1533 H 0.39077 0.49231 0.86726 0.0
H1534 H 0.34637 0.49243 0.85925 0.0
H1535 H 0.33936 0.46521 0.85548 0.0
H1536 H 0.88997 0.67326 0.65363 0.0
H1537 H 0.88033 0.69697 0.64503 0.0
H1538 H 0.85595 0.67283 0.60625 0.0
H1539 H 0.8667 0.64937 0.61423 0.0
H1540 H 0.87083 0.69528 0.59584 0.0
H1541 H 0.84231 0.71791 0.64607 0.0
H1542 H 0.86172 0.71429 0.65202 0.0
H1543 H 0.84781 0.69867 0.64546 0.0
C1544 C 0.88224 0.67299 0.64349 0.0
C1545 C 0.87908 0.65956 0.63456 0.0
C1546 C 0.87659 0.68654 0.63863 0.0
C1547 C 0.86715 0.68677 0.62507 0.0
C1548 C 0.8632 0.67304 0.61672 0.0
H1549 H 0.84464 0.77907 0.59906 0.0
H1550 H 0.84035 0.75229 0.60662 0.0
C1551 C 0.8693 0.65962 0.62129 0.0
C1552 C 0.86334 0.70153 0.61848 0.0
H1553 H 0.85366 0.73707 0.62837 0.0
C1554 C 0.86669 0.70424 0.60294 0.0
C1555 C 0.85758 0.71328 0.62744 0.0
C1556 C 0.85198 0.71078 0.6436 0.0
C1557 C 0.86547 0.71854 0.59647 0.0
C1558 C 0.86155 0.73075 0.60596 0.0
C1559 C 0.85707 0.72783 0.62116 0.0
C1560 C 0.86354 0.74677 0.60078 0.0
C1561 C 0.86865 0.72039 0.57953 0.0
C1562 C 0.878 0.75262 0.59516 0.0
C1563 C 0.88035 0.7677 0.59061 0.0
C1564 C 0.86844 0.77748 0.59194 0.0
C1565 C 0.85399 0.77176 0.59779 0.0
C1566 C 0.85155 0.7565 0.60215 0.0
H1567 H 0.86513 0.70962 0.57293 0.0
H1568 H 0.86232 0.72961 0.57445 0.0
H1569 H 0.8814 0.72315 0.57811 0.0
H1570 H 0.88764 0.74557 0.59454 0.0
H1571 H 0.89171 0.77178 0.58642 0.0
H1572 H 0.94836 0.1522 0.37374 0.0
H1573 H 0.97662 0.15707 0.379 0.0
H1574 H 0.98546 0.13074 0.33833 0.0
H1575 H 0.95729 0.1259 0.33284 0.0
H1576 H 0.00037 0.12347 0.37037 0.0
H1577 H 0.01021 0.18343 0.35114 0.0
H1578 H 0.99326 0.17825 0.36235 0.0
H1579 H 0.99438 0.17029 0.34328 0.0
C1580 C 0.9563 0.14755 0.36584 0.0
C1581 C 0.95057 0.13865 0.35288 0.0
C1582 C 0.97242 0.15037 0.36884 0.0
C1583 C 0.98302 0.1443 0.359 0.0
C1584 C 0.97739 0.13555 0.346 0.0
H1585 H 0.08402 0.13899 0.37233 0.0
H1586 H 0.05691 0.13511 0.36232 0.0
C1587 C 0.9613 0.13283 0.34289 0.0
C1588 C -2e-05 0.14649 0.36271 0.0
H1589 H 0.03152 0.17309 0.36362 0.0
C1590 C 0.00727 0.13426 0.36881 0.0
C1591 C 0.00878 0.1606 0.36068 0.0
C1592 C 0.00137 0.17394 0.35393 0.0
C1593 C 0.02316 0.13591 0.37343 0.0
C1594 C 0.03203 0.15008 0.37145 0.0
C1595 C 0.02473 0.16223 0.36507 0.0
C1596 C 0.04866 0.15281 0.37674 0.0
C1597 C 0.0301 0.12267 0.38094 0.0
C1598 C 0.05314 0.16442 0.38771 0.0
C1599 C 0.06862 0.16682 0.39326 0.0
C1600 C 0.07996 0.1576 0.388 0.0
C1601 C 0.07554 0.14618 0.37674 0.0
C1602 C 0.06003 0.14389 0.37107 0.0
H1603 H 0.0209 0.11417 0.38515 0.0
H1604 H 0.03694 0.11683 0.37236 0.0
H1605 H 0.03809 0.12661 0.39083 0.0
H1606 H 0.04457 0.17148 0.39221 0.0
H1607 H 0.0716 0.17573 0.40191 0.0
H1608 H 0.61133 0.22077 0.09086 0.0
H1609 H 0.61652 0.24728 0.09899 0.0
H1610 H 0.66297 0.23907 0.11508 0.0
H1611 H 0.65759 0.21202 0.10738 0.0
H1612 H 0.64962 0.25618 0.1356 0.0
H1613 H 0.64158 0.28101 0.07854 0.0
H1614 H 0.62468 0.26829 0.08229 0.0
H1615 H 0.64352 0.26097 0.08078 0.0
C1616 C 0.62275 0.22456 0.09596 0.0
C1617 C 0.63411 0.21429 0.09833 0.0
C1618 C 0.62574 0.2398 0.10053 0.0
C1619 C 0.64029 0.24531 0.10726 0.0
C1620 C 0.65172 0.23511 0.10974 0.0
H1621 H 0.63981 0.34366 0.1185 0.0
H1622 H 0.65044 0.31959 0.11224 0.0
C1623 C 0.64864 0.21969 0.10531 0.0
C1624 C 0.64295 0.26157 0.1123 0.0
H1625 H 0.63559 0.29688 0.10051 0.0
C1626 C 0.64691 0.26518 0.12787 0.0
C1627 C 0.63998 0.27343 0.10217 0.0
C1628 C 0.6374 0.27072 0.08499 0.0
C1629 C 0.64669 0.28011 0.1338 0.0
C1630 C 0.64176 0.29158 0.12403 0.0
C1631 C 0.63906 0.28815 0.10821 0.0
C1632 C 0.63803 0.30678 0.12994 0.0
C1633 C 0.65162 0.28332 0.15049 0.0
C1634 C 0.62795 0.30786 0.14234 0.0
C1635 C 0.62232 0.32176 0.14625 0.0
C1636 C 0.62619 0.33469 0.13747 0.0
C1637 C 0.63664 0.3338 0.12542 0.0
C1638 C 0.64268 0.32003 0.12183 0.0
H1639 H 0.66094 0.27607 0.15411 0.0
H1640 H 0.65603 0.29545 0.15259 0.0
H1641 H 0.64147 0.28045 0.15788 0.0
H1642 H 0.62368 0.29781 0.14847 0.0
H1643 H 0.6141 0.32213 0.15546 0.0
H1644 H 0.41728 0.82056 0.884 0.0
H1645 H 0.4435 0.82248 0.87353 0.0
H1646 H 0.4463 0.87146 0.87853 0.0
H1647 H 0.41975 0.86964 0.88828 0.0
H1648 H 0.45938 0.86369 0.85281 0.0
H1649 H 0.48203 0.83 0.90047 0.0
H1650 H 0.46652 0.81959 0.88928 0.0
H1651 H 0.46266 0.83627 0.90031 0.0
C1652 C 0.42344 0.83175 0.88272 0.0
C1653 C 0.41656 0.84495 0.88711 0.0
C1654 C 0.43847 0.83282 0.87685 0.0
C1655 C 0.44707 0.84708 0.8757 0.0
C1656 C 0.43994 0.86032 0.87943 0.0
H1657 H 0.54728 0.86501 0.87682 0.0
H1658 H 0.51956 0.86053 0.88234 0.0
C1659 C 0.42477 0.85927 0.885 0.0
C1660 C 0.46365 0.84825 0.87108 0.0
H1661 H 0.49944 0.8365 0.88049 0.0
C1662 C 0.46815 0.85775 0.85886 0.0
C1663 C 0.47514 0.84067 0.87914 0.0
C1664 C 0.4714 0.83119 0.89312 0.0
C1665 C 0.48383 0.86 0.85455 0.0
C1666 C 0.49523 0.85207 0.86232 0.0
C1667 C 0.49068 0.84245 0.87443 0.0
C1668 C 0.5121 0.85428 0.85878 0.0
C1669 C 0.48805 0.87131 0.84213 0.0
C1670 C 0.51723 0.85195 0.84375 0.0
C1671 C 0.53309 0.85477 0.84051 0.0
C1672 C 0.54415 0.85959 0.85232 0.0
C1673 C 0.53906 0.86127 0.86747 0.0
C1674 C 0.5232 0.85873 0.87064 0.0
H1675 H 0.47901 0.87943 0.84057 0.0
H1676 H 0.49947 0.87794 0.84488 0.0
H1677 H 0.48891 0.8651 0.83099 0.0
H1678 H 0.50897 0.84805 0.83451 0.0
H1679 H 0.53668 0.85322 0.82875 0.0
H1680 H 0.88702 0.21439 0.92262 0.0
H1681 H 0.88936 0.24147 0.91649 0.0
H1682 H 0.88118 0.22986 0.86815 0.0
H1683 H 0.87933 0.20283 0.8741 0.0
H1684 H 0.90437 0.25163 0.87205 0.0
H1685 H 0.85419 0.26696 0.90593 0.0
H1686 H 0.86873 0.25855 0.91739 0.0
H1687 H 0.85798 0.24746 0.90223 0.0
C1688 C 0.88578 0.21761 0.91068 0.0
C1689 C 0.88294 0.20645 0.89885 0.0
C1690 C 0.88697 0.2331 0.90721 0.0
C1691 C 0.88507 0.23771 0.8919 0.0
C1692 C 0.88257 0.22658 0.88006 0.0
H1693 H 0.86886 0.32766 0.85887 0.0
H1694 H 0.86585 0.30146 0.86817 0.0
C1695 C 0.88156 0.21111 0.88348 0.0
C1696 C 0.88605 0.2541 0.88808 0.0
H1697 H 0.87037 0.28756 0.89569 0.0
C1698 C 0.8969 0.25947 0.8772 0.0
C1699 C 0.87611 0.26427 0.8946 0.0
C1700 C 0.86348 0.25901 0.90556 0.0
C1701 C 0.89822 0.27472 0.87276 0.0
C1702 C 0.88877 0.28505 0.87978 0.0
C1703 C 0.87775 0.27967 0.89051 0.0
C1704 C 0.89007 0.30141 0.87588 0.0
C1705 C 0.90946 0.27951 0.8603 0.0
C1706 C 0.90449 0.31025 0.87776 0.0
C1707 C 0.90627 0.32508 0.87231 0.0
C1708 C 0.89358 0.33147 0.86517 0.0
C1709 C 0.87884 0.32302 0.86432 0.0
C1710 C 0.87712 0.30806 0.86959 0.0
H1711 H 0.91224 0.26961 0.8531 0.0
H1712 H 0.90462 0.28798 0.85262 0.0
H1713 H 0.92059 0.28478 0.86574 0.0
H1714 H 0.91451 0.30552 0.88302 0.0
H1715 H 0.91772 0.3314 0.87333 0.0
H1716 H 0.40203 0.11707 0.63265 0.0
H1717 H 0.42688 0.10635 0.63805 0.0
H1718 H 0.44743 0.13114 0.60006 0.0
H1719 H 0.42231 0.14097 0.59399 0.0
H1720 H 0.46013 0.10525 0.60298 0.0
H1721 H 0.45955 0.13328 0.66097 0.0
H1722 H 0.44394 0.11855 0.65742 0.0
H1723 H 0.44481 0.13562 0.64624 0.0
C1724 C 0.41178 0.11993 0.62527 0.0
C1725 C 0.41038 0.13 0.61305 0.0
C1726 C 0.426 0.1139 0.62842 0.0
C1727 C 0.4392 0.11838 0.61983 0.0
C1728 C 0.43746 0.12759 0.60694 0.0
H1729 H 0.53174 0.14234 0.64849 0.0
H1730 H 0.50414 0.13841 0.6412 0.0
C1731 C 0.42311 0.13324 0.60349 0.0
C1732 C 0.45511 0.11494 0.62507 0.0
H1733 H 0.48181 0.1214 0.65503 0.0
C1734 C 0.46486 0.10865 0.61441 0.0
C1735 C 0.4613 0.11946 0.63999 0.0
C1736 C 0.45193 0.12722 0.65177 0.0
C1737 C 0.4808 0.1075 0.61796 0.0
C1738 C 0.487 0.11234 0.63275 0.0
C1739 C 0.47701 0.11769 0.6437 0.0
C1740 C 0.50406 0.11419 0.63652 0.0
C1741 C 0.49103 0.102 0.60558 0.0
C1742 C 0.51335 0.10187 0.6362 0.0
C1743 C 0.52939 0.10417 0.64018 0.0
C1744 C 0.53622 0.11874 0.64482 0.0
C1745 C 0.52684 0.13094 0.64513 0.0
C1746 C 0.51101 0.12871 0.64095 0.0
H1747 H 0.48504 0.1014 0.59401 0.0
H1748 H 0.50205 0.10963 0.605 0.0
H1749 H 0.49417 0.09042 0.60838 0.0
H1750 H 0.50819 0.09051 0.63309 0.0
H1751 H 0.53636 0.09455 0.63989 0.0
H1752 H 0.61478 0.78701 0.41804 0.0
H1753 H 0.61036 0.76034 0.4096 0.0
H1754 H 0.60265 0.77412 0.36272 0.0
H1755 H 0.60721 0.80092 0.371 0.0
H1756 H 0.58424 0.7442 0.39416 0.0
H1757 H 0.63794 0.74546 0.35979 0.0
H1758 H 0.63471 0.76027 0.37368 0.0
H1759 H 0.62506 0.75971 0.35496 0.0
C1760 C 0.61208 0.78441 0.40593 0.0
C1761 C 0.61147 0.79612 0.39517 0.0
C1762 C 0.60954 0.76915 0.40114 0.0
C1763 C 0.60644 0.76528 0.38552 0.0
C1764 C 0.60532 0.7769 0.3748 0.0
H1765 H 0.57218 0.67765 0.34517 0.0
H1766 H 0.57566 0.70397 0.35476 0.0
C1767 C 0.60784 0.7922 0.37958 0.0
C1768 C 0.60456 0.74907 0.38048 0.0
H1769 H 0.62073 0.72279 0.3581 0.0
C1770 C 0.59221 0.7395 0.38628 0.0
C1771 C 0.61515 0.74294 0.37041 0.0
C1772 C 0.62906 0.75256 0.36443 0.0
C1773 C 0.58999 0.72398 0.38205 0.0
C1774 C 0.60029 0.71797 0.37162 0.0
C1775 C 0.6128 0.72747 0.36603 0.0
C1776 C 0.59812 0.70189 0.36613 0.0
C1777 C 0.57675 0.71412 0.38893 0.0
C1778 C 0.60975 0.69206 0.36911 0.0
C1779 C 0.60784 0.67697 0.36359 0.0
C1780 C 0.59431 0.6715 0.35487 0.0
C1781 C 0.58272 0.68144 0.35189 0.0
C1782 C 0.58464 0.69648 0.35743 0.0
H1783 H 0.57258 0.71941 0.39959 0.0
H1784 H 0.56677 0.71253 0.38043 0.0
H1785 H 0.5804 0.7027 0.39172 0.0
H1786 H 0.62029 0.69608 0.37573 0.0
H1787 H 0.61701 0.66963 0.36605 0.0
H1788 H 0.08366 0.8704 0.08969 0.0
H1789 H 0.05981 0.88246 0.09522 0.0
H1790 H 0.0663 0.87349 0.14364 0.0
H1791 H 0.09022 0.86182 0.1383 0.0
H1792 H 0.03402 0.86846 0.10672 0.0
H1793 H 0.05477 0.91648 0.14611 0.0
H1794 H 0.06797 0.90666 0.13452 0.0
H1795 H 0.06173 0.89915 0.15277 0.0
C1796 C 0.08015 0.87126 0.10155 0.0
C1797 C 0.08883 0.86514 0.11356 0.0
C1798 C 0.06653 0.87817 0.10469 0.0
C1799 C 0.0614 0.87914 0.11988 0.0
C1800 C 0.07025 0.87331 0.1319 0.0
H1801 H 0.98146 0.87687 0.17078 0.0
H1802 H 0.00758 0.87985 0.16028 0.0
C1803 C 0.08387 0.86648 0.12879 0.0
C1804 C 0.04595 0.88457 0.12309 0.0
H1805 H 0.02756 0.9063 0.14858 0.0
C1806 C 0.03261 0.87705 0.11557 0.0
C1807 C 0.04411 0.89582 0.1346 0.0
C1808 C 0.05795 0.90509 0.14233 0.0
C1809 C 0.0175 0.8796 0.12007 0.0
C1810 C 0.01571 0.89005 0.13232 0.0
C1811 C 0.02899 0.89827 0.13921 0.0
C1812 C 0.00039 0.89085 0.1395 0.0
C1813 C 0.00358 0.87034 0.11243 0.0
C1814 C 0.98781 0.89659 0.13153 0.0
C1815 C 0.97279 0.89496 0.13755 0.0
C1816 C 0.97021 0.88746 0.15156 0.0
C1817 C 0.98305 0.88259 0.15991 0.0
C1818 C 0.998 0.88433 0.15395 0.0
H1819 H 0.00711 0.86158 0.10418 0.0
H1820 H 0.9962 0.86455 0.12127 0.0
H1821 H 0.9963 0.87802 0.10601 0.0
H1822 H 0.98948 0.90176 0.12039 0.0
H1823 H 0.96311 0.89882 0.13087 0.0
H1824 H 0.67 0.89077 0.67794 0.0
H1825 H 0.66473 0.88016 0.70344 0.0
H1826 H 0.6151 0.87952 0.69365 0.0
H1827 H 0.62022 0.88976 0.66824 0.0
H1828 H 0.65005 0.89376 0.7262 0.0
H1829 H 0.61722 0.83818 0.71201 0.0
H1830 H 0.6286 0.84884 0.69795 0.0
H1831 H 0.60892 0.85308 0.70173 0.0
C1832 C 0.65797 0.88809 0.68114 0.0
C1833 C 0.64553 0.89111 0.67107 0.0
C1834 C 0.65498 0.88203 0.6957 0.0
C1835 C 0.63952 0.87878 0.70036 0.0
C1836 C 0.62712 0.88151 0.69017 0.0
H1837 H 0.58384 0.87737 0.77692 0.0
H1838 H 0.59647 0.87636 0.7521 0.0
C1839 C 0.63008 0.88752 0.67567 0.0
C1840 C 0.63614 0.87412 0.71637 0.0
H1841 H 0.6119 0.84966 0.73689 0.0
C1842 C 0.64206 0.88388 0.72861 0.0
C1843 C 0.62576 0.86118 0.71953 0.0
C1844 C 0.61991 0.84965 0.7071 0.0
C1845 C 0.63693 0.88169 0.7437 0.0
C1846 C 0.62567 0.86942 0.74659 0.0
C1847 C 0.62048 0.85912 0.73458 0.0
C1848 C 0.61774 0.86832 0.76148 0.0
C1849 C 0.64278 0.89306 0.75629 0.0
C1850 C 0.62544 0.86379 0.7749 0.0
C1851 C 0.6182 0.86427 0.78915 0.0
C1852 C 0.60324 0.86942 0.79014 0.0
C1853 C 0.5954 0.87343 0.77656 0.0
C1854 C 0.60257 0.87282 0.76236 0.0
H1855 H 0.65092 0.90245 0.75195 0.0
H1856 H 0.63274 0.89803 0.76159 0.0
H1857 H 0.64899 0.88718 0.76551 0.0
H1858 H 0.63716 0.86025 0.77438 0.0
H1859 H 0.62453 0.86112 0.79942 0.0
H1860 H 0.89504 0.83251 0.53599 0.0
H1861 H 0.89656 0.84038 0.50909 0.0
H1862 H 0.85454 0.86317 0.51394 0.0
H1863 H 0.85375 0.85631 0.54112 0.0
H1864 H 0.88016 0.83465 0.4851 0.0
H1865 H 0.88005 0.89648 0.49502 0.0
H1866 H 0.88192 0.88362 0.51074 0.0
H1867 H 0.86284 0.88703 0.50294 0.0
C1868 C 0.88619 0.83927 0.53128 0.0
C1869 C 0.87435 0.84393 0.54061 0.0
C1870 C 0.88707 0.84379 0.51592 0.0
C1871 C 0.87592 0.85277 0.50951 0.0
C1872 C 0.8637 0.85684 0.51872 0.0
H1873 H 0.84922 0.85513 0.41384 0.0
H1874 H 0.85528 0.84861 0.44034 0.0
C1875 C 0.86311 0.85275 0.5342 0.0
C1876 C 0.8767 0.85737 0.49307 0.0
H1877 H 0.87209 0.88715 0.46928 0.0
C1878 C 0.87865 0.84621 0.48169 0.0
C1879 C 0.87527 0.87254 0.48849 0.0
C1880 C 0.87511 0.8856 0.49999 0.0
C1881 C 0.87844 0.84959 0.46593 0.0
C1882 C 0.87531 0.86437 0.4613 0.0
C1883 C 0.87415 0.87572 0.4727 0.0
C1884 C 0.87229 0.86809 0.44484 0.0
C1885 C 0.88177 0.83727 0.4545 0.0
C1886 C 0.87929 0.88159 0.43856 0.0
C1887 C 0.87533 0.88566 0.42349 0.0
C1888 C 0.86455 0.87614 0.41435 0.0
C1889 C 0.8578 0.86254 0.42052 0.0
C1890 C 0.8614 0.85871 0.43567 0.0
H1891 H 0.88998 0.8296 0.45965 0.0
H1892 H 0.87071 0.83018 0.45135 0.0
H1893 H 0.88691 0.84209 0.44384 0.0
H1894 H 0.88765 0.8891 0.44539 0.0
H1895 H 0.88064 0.89624 0.41902 0.0
H1896 H 0.86379 0.1189 0.15657 0.0
H1897 H 0.87249 0.12764 0.18268 0.0
H1898 H 0.85719 0.08342 0.20016 0.0
H1899 H 0.84817 0.07468 0.17424 0.0
H1900 H 0.84729 0.10693 0.21748 0.0
H1901 H 0.91103 0.11683 0.20717 0.0
H1902 H 0.89863 0.12674 0.19458 0.0
H1903 H 0.89748 0.10629 0.19366 0.0
C1904 C 0.86239 0.11099 0.16596 0.0
C1905 C 0.85531 0.09607 0.16331 0.0
C1906 C 0.86742 0.116 0.18086 0.0
C1907 C 0.86562 0.10613 0.19332 0.0
C1908 C 0.85867 0.09122 0.19069 0.0
H1909 H 0.9084 0.10315 0.28216 0.0
H1910 H 0.90002 0.10174 0.25505 0.0
C1911 C 0.85356 0.08623 0.17585 0.0
C1912 C 0.87065 0.11127 0.20922 0.0
H1913 H 0.90283 0.1228 0.23209 0.0
C1914 C 0.85942 0.11052 0.22069 0.0
C1915 C 0.88649 0.11589 0.21332 0.0
C1916 C 0.89916 0.11639 0.20159 0.0
C1917 C 0.86364 0.1138 0.23625 0.0
C1918 C 0.8795 0.11828 0.24038 0.0
C1919 C 0.89067 0.11949 0.22884 0.0
C1920 C 0.88503 0.12007 0.25673 0.0
C1921 C 0.85123 0.11173 0.2482 0.0
C1922 C 0.87957 0.13103 0.26667 0.0
C1923 C 0.88427 0.13181 0.28231 0.0
C1924 C 0.89461 0.1217 0.28818 0.0
C1925 C 0.90039 0.11108 0.27805 0.0
C1926 C 0.89565 0.11028 0.26252 0.0
H1927 H 0.84029 0.10535 0.24344 0.0
H1928 H 0.85552 0.10554 0.25828 0.0
H1929 H 0.84832 0.12307 0.25234 0.0
H1930 H 0.87158 0.13888 0.26236 0.0
H1931 H 0.8797 0.14018 0.28981 0.0
H1932 H 0.62785 0.09874 0.92252 0.0
H1933 H 0.62243 0.10418 0.94953 0.0
H1934 H 0.62003 0.15157 0.9392 0.0
H1935 H 0.62565 0.14631 0.91229 0.0
H1936 H 0.64101 0.14703 0.96291 0.0
H1937 H 0.5838 0.11439 0.97259 0.0
H1938 H 0.59791 0.10333 0.96398 0.0
H1939 H 0.59064 0.11875 0.95352 0.0
C1940 C 0.62581 0.11025 0.92593 0.0
C1941 C 0.62727 0.12211 0.91529 0.0
C1942 C 0.62264 0.11333 0.94136 0.0
C1943 C 0.62072 0.12826 0.94634 0.0
C1944 C 0.62144 0.13997 0.93558 0.0
H1945 H 0.6187 0.17145 0.03764 0.0
H1946 H 0.61733 0.16621 0.00978 0.0
C1947 C 0.62465 0.13692 0.92019 0.0
C1948 C 0.61972 0.13201 0.963 0.0
H1949 H 0.59858 0.12395 0.99506 0.0
C1950 C 0.63164 0.14211 0.96991 0.0
C1951 C 0.60755 0.12548 0.9721 0.0
C1952 C 0.59416 0.11499 0.96517 0.0
C1953 C 0.63194 0.14562 0.98577 0.0
C1954 C 0.61983 0.13903 0.99491 0.0
C1955 C 0.60783 0.129 0.988 0.0
C1956 C 0.61973 0.1421 0.01175 0.0
C1957 C 0.64548 0.15596 0.99269 0.0
C1958 C 0.62109 0.13021 0.02206 0.0
C1959 C 0.62181 0.13313 0.03798 0.0
C1960 C 0.62113 0.14803 0.04388 0.0
C1961 C 0.61939 0.15987 0.0335 0.0
C1962 C 0.61864 0.15691 0.01757 0.0
H1963 H 0.65554 0.15715 0.98489 0.0
H1964 H 0.64163 0.16746 0.99479 0.0
H1965 H 0.64955 0.15161 0.00392 0.0
H1966 H 0.6219 0.11869 0.01778 0.0
H1967 H 0.62308 0.12373 0.04563 0.0
H1968 H 0.63344 0.08909 0.81882 0.0
H1969 H 0.62434 0.09466 0.79282 0.0
H1970 H 0.61012 0.13758 0.8092 0.0
H1971 H 0.61948 0.13223 0.83535 0.0
H1972 H 0.59521 0.10086 0.78087 0.0
H1973 H 0.64023 0.14994 0.77478 0.0
H1974 H 0.6411 0.13662 0.79027 0.0
H1975 H 0.62767 0.15104 0.7909 0.0
C1976 C 0.62831 0.0997 0.81697 0.0
C1977 C 0.62735 0.1103 0.82916 0.0
C1978 C 0.62308 0.10284 0.80208 0.0
C1979 C 0.61679 0.11662 0.79906 0.0
C1980 C 0.61522 0.12699 0.81127 0.0
H1981 H 0.57704 0.13045 0.70608 0.0
H1982 H 0.57989 0.12944 0.73422 0.0
C1983 C 0.6205 0.12388 0.82621 0.0
C1984 C 0.61249 0.1202 0.78295 0.0
H1985 H 0.62334 0.14345 0.75332 0.0
C1986 C 0.60122 0.11027 0.77486 0.0
C1987 C 0.62049 0.1324 0.77516 0.0
C1988 C 0.63314 0.14307 0.78314 0.0
C1989 C 0.59802 0.11195 0.75904 0.0
C1990 C 0.60614 0.12406 0.75122 0.0
C1991 C 0.61709 0.13424 0.75941 0.0
C1992 C 0.60442 0.1256 0.73429 0.0
C1993 C 0.58654 0.10034 0.7507 0.0
C1994 C 0.61739 0.12428 0.72506 0.0
C1995 C 0.61585 0.12498 0.70902 0.0
C1996 C 0.60129 0.12703 0.70188 0.0
C1997 C 0.58839 0.12874 0.71119 0.0
C1998 C 0.58997 0.1281 0.72727 0.0
H1999 H 0.58381 0.09005 0.75768 0.0
H2000 H 0.57545 0.10549 0.74825 0.0
H2001 H 0.5912 0.09677 0.73952 0.0
H2002 H 0.62866 0.12239 0.73027 0.0
H2003 H 0.62604 0.12365 0.70222 0.0
H2004 H 0.63126 0.82595 0.47411 0.0
H2005 H 0.63295 0.83497 0.50097 0.0
H2006 H 0.61888 0.87847 0.48688 0.0
H2007 H 0.6166 0.86928 0.46 0.0
H2008 H 0.65319 0.85721 0.51138 0.0
H2009 H 0.59376 0.87187 0.5249 0.0
H2010 H 0.59753 0.86056 0.50808 0.0
H2011 H 0.60094 0.88101 0.50786 0.0
C2012 C 0.62817 0.83732 0.47678 0.0
C2013 C 0.62385 0.84694 0.46498 0.0
C2014 C 0.62915 0.84246 0.49214 0.0
C2015 C 0.62596 0.85737 0.49599 0.0
C2016 C 0.62105 0.86681 0.48427 0.0
H2017 H 0.66949 0.91061 0.57277 0.0
H2018 H 0.66131 0.89899 0.54769 0.0
C2019 C 0.61983 0.86158 0.46889 0.0
C2020 C 0.62954 0.86348 0.5119 0.0
H2021 H 0.6147 0.8823 0.5421 0.0
C2022 C 0.6447 0.86255 0.51815 0.0
C2023 C 0.61844 0.87033 0.52079 0.0
C2024 C 0.60171 0.87087 0.51513 0.0
C2025 C 0.64918 0.86853 0.53288 0.0
C2026 C 0.63834 0.87608 0.54144 0.0
C2027 C 0.62305 0.87669 0.53541 0.0
C2028 C 0.64279 0.88354 0.5566 0.0
C2029 C 0.66545 0.86656 0.53916 0.0
C2030 C 0.63473 0.87908 0.56987 0.0
C2031 C 0.63927 0.88583 0.58424 0.0
C2032 C 0.65196 0.89716 0.58558 0.0
C2033 C 0.6598 0.90179 0.5722 0.0
C2034 C 0.65518 0.89512 0.55784 0.0
H2035 H 0.67041 0.8568 0.53342 0.0
H2036 H 0.67327 0.877 0.53697 0.0
H2037 H 0.66548 0.8647 0.5518 0.0
H2038 H 0.62509 0.87021 0.56913 0.0
H2039 H 0.63295 0.88205 0.59431 0.0
H2040 H 0.87357 0.8706 0.33487 0.0
H2041 H 0.88475 0.8662 0.30966 0.0
H2042 H 0.87509 0.91122 0.29594 0.0
H2043 H 0.86417 0.9158 0.32101 0.0
H2044 H 0.86966 0.86632 0.28119 0.0
H2045 H 0.92036 0.91006 0.28393 0.0
H2046 H 0.9099 0.90399 0.30085 0.0
H2047 H 0.90244 0.91789 0.28835 0.0
C2048 C 0.874 0.87962 0.32655 0.0
C2049 C 0.86799 0.89356 0.32999 0.0
C2050 C 0.88038 0.87709 0.31216 0.0
C2051 C 0.88098 0.88847 0.30102 0.0
C2052 C 0.8751 0.90241 0.30448 0.0
H2053 H 0.87987 0.88315 0.20237 0.0
H2054 H 0.87437 0.88437 0.22982 0.0
C2055 C 0.86874 0.90496 0.31881 0.0
C2056 C 0.88676 0.88557 0.2854 0.0
H2057 H 0.91182 0.90051 0.25858 0.0
C2058 C 0.87903 0.87366 0.27631 0.0
C2059 C 0.89913 0.895 0.27912 0.0
C2060 C 0.90855 0.90735 0.28863 0.0
C2061 C 0.88283 0.87139 0.26085 0.0
C2062 C 0.89447 0.88149 0.25427 0.0
C2063 C 0.90273 0.89293 0.26358 0.0
C2064 C 0.89789 0.88071 0.23762 0.0
C2065 C 0.87431 0.85824 0.25172 0.0
C2066 C 0.91307 0.87874 0.2329 0.0
C2067 C 0.91631 0.87819 0.21719 0.0
C2068 C 0.90442 0.87967 0.20592 0.0
C2069 C 0.88928 0.88186 0.21072 0.0
C2070 C 0.88607 0.88245 0.22642 0.0
H2071 H 0.86954 0.84911 0.25941 0.0
H2072 H 0.86432 0.86236 0.24511 0.0
H2073 H 0.88212 0.85327 0.24341 0.0
H2074 H 0.92238 0.8775 0.24137 0.0
H2075 H 0.9281 0.87651 0.2139 0.0
H2076 H 0.89284 0.12806 0.9506 0.0
H2077 H 0.89607 0.11495 0.9751 0.0
H2078 H 0.87888 0.15263 -0.00037 0.0
H2079 H 0.87553 0.16573 0.97535 0.0
H2080 H 0.90731 0.1382 0.01352 0.0
H2081 H 0.85437 0.09854 0.99793 0.0
H2082 H 0.86974 0.10156 0.9843 0.0
H2083 H 0.85792 0.11668 0.98872 0.0
C2084 C 0.89003 0.13366 0.96126 0.0
C2085 C 0.8838 0.14786 0.96106 0.0
C2086 C 0.89185 0.12615 0.9752 0.0
C2087 C 0.88761 0.13282 0.98909 0.0
C2088 C 0.88222 0.14733 0.989 0.0
H2089 H 0.86672 0.1273 0.08141 0.0
H2090 H 0.87766 0.13289 0.05639 0.0
C2091 C 0.88027 0.15476 0.97511 0.0
C2092 C 0.88736 0.12434 0.00365 0.0
H2093 H 0.86374 0.09892 0.02359 0.0
C2094 C 0.898 0.12937 0.01568 0.0
C2095 C 0.87531 0.11273 0.00633 0.0
C2096 C 0.8636 0.107 0.99371 0.0
C2097 C 0.89639 0.12363 0.0306 0.0
C2098 C 0.88352 0.11295 0.03361 0.0
C2099 C 0.87356 0.10715 0.0213 0.0
C2100 C 0.87885 0.10928 0.04957 0.0
C2101 C 0.90824 0.12938 0.04307 0.0
C2102 C 0.87565 0.09411 0.05407 0.0
C2103 C 0.86915 0.09084 0.06841 0.0
C2104 C 0.86563 0.10272 0.0784 0.0
C2105 C 0.86932 0.11788 0.07403 0.0
C2106 C 0.87576 0.12111 0.05975 0.0
H2107 H 0.91993 0.13229 0.03817 0.0
H2108 H 0.90455 0.13994 0.04845 0.0
H2109 H 0.90935 0.12084 0.0522 0.0
H2110 H 0.87779 0.0848 0.04632 0.0
H2111 H 0.86641 0.07905 0.07143 0.0
H2112 H 0.76547 0.57168 0.88913 0.0
H2113 H 0.74103 0.58375 0.88821 0.0
H2114 H 0.76034 0.61589 0.85537 0.0
H2115 H 0.78499 0.60385 0.85621 0.0
H2116 H 0.74056 0.61638 0.89601 0.0
H2117 H 0.71502 0.59957 0.83761 0.0
H2118 H 0.72898 0.58868 0.84741 0.0
H2119 H 0.73542 0.6066 0.8392 0.0
C2120 C 0.76449 0.58116 0.88151 0.0
C2121 C 0.77722 0.58684 0.87278 0.0
C2122 C 0.75051 0.58806 0.88102 0.0
C2123 C 0.74889 0.60067 0.8717 0.0
C2124 C 0.76133 0.60606 0.86252 0.0
H2125 H 0.67533 0.66129 0.88834 0.0
H2126 H 0.70031 0.65228 0.88104 0.0
C2127 C 0.7754 0.59918 0.86304 0.0
C2128 C 0.7346 0.60879 0.87265 0.0
H2129 H 0.70063 0.61501 0.85326 0.0
C2130 C 0.73188 0.61623 0.88663 0.0
C2131 C 0.72334 0.60847 0.86039 0.0
C2132 C 0.72568 0.60036 0.84529 0.0
C2133 C 0.71803 0.62313 0.8888 0.0
C2134 C 0.70665 0.62269 0.8766 0.0
C2135 C 0.70946 0.61544 0.86252 0.0
C2136 C 0.69125 0.62857 0.87885 0.0
C2137 C 0.71538 0.63032 0.90434 0.0
C2138 C 0.6778 0.6183 0.87947 0.0
C2139 C 0.66356 0.62338 0.88364 0.0
C2140 C 0.66248 0.63888 0.88719 0.0
C2141 C 0.67579 0.64928 0.88573 0.0
C2142 C 0.69007 0.64416 0.88161 0.0
H2143 H 0.72412 0.62743 0.91327 0.0
H2144 H 0.71629 0.64289 0.90332 0.0
H2145 H 0.70348 0.62657 0.9083 0.0
H2146 H 0.67847 0.60622 0.87736 0.0
H2147 H 0.65351 0.61508 0.88456 0.0
H2148 H 0.30438 0.86261 0.11877 0.0
H2149 H 0.27603 0.85714 0.115 0.0
H2150 H 0.26951 0.90316 0.12932 0.0
H2151 H 0.29779 0.90883 0.13292 0.0
H2152 H 0.25188 0.85927 0.136 0.0
H2153 H 0.24673 0.89832 0.08688 0.0
H2154 H 0.26529 0.8926 0.0938 0.0
H2155 H 0.25608 0.90702 0.10411 0.0
C2156 C 0.29693 0.87157 0.12114 0.0
C2157 C 0.30337 0.88619 0.12602 0.0
C2158 C 0.28074 0.86841 0.119 0.0
C2159 C 0.27074 0.87982 0.12166 0.0
C2160 C 0.27707 0.8943 0.12692 0.0
H2161 H 0.16873 0.86325 0.12544 0.0
H2162 H 0.19631 0.8712 0.13186 0.0
C2163 C 0.29324 0.89749 0.12902 0.0
C2164 C 0.25368 0.87657 0.11878 0.0
H2165 H 0.22314 0.88634 0.09613 0.0
C2166 C 0.24555 0.86519 0.12732 0.0
C2167 C 0.24556 0.88427 0.10735 0.0
C2168 C 0.25385 0.89615 0.0974 0.0
C2169 C 0.22946 0.86126 0.1247 0.0
C2170 C 0.22131 0.86907 0.11338 0.0
C2171 C 0.22943 0.88049 0.10489 0.0
C2172 C 0.20454 0.86492 0.10949 0.0
C2173 C 0.22141 0.84847 0.13371 0.0
C2174 C 0.20004 0.85921 0.09465 0.0
C2175 C 0.18434 0.85476 0.09091 0.0
C2176 C 0.17281 0.85599 0.10194 0.0
C2177 C 0.17732 0.86208 0.1167 0.0
C2178 C 0.19307 0.86655 0.12043 0.0
H2179 H 0.22993 0.84154 0.13951 0.0
H2180 H 0.21432 0.85333 0.14273 0.0
H2181 H 0.21341 0.84085 0.12604 0.0
H2182 H 0.20873 0.85794 0.08603 0.0
H2183 H 0.18128 0.85017 0.07942 0.0
H2184 H 0.86651 0.54056 0.86499 0.0
H2185 H 0.87395 0.5146 0.86269 0.0
H2186 H 0.82577 0.49689 0.86714 0.0
H2187 H 0.81821 0.52287 0.86981 0.0
H2188 H 0.84579 0.48226 0.88555 0.0
H2189 H 0.8675 0.48543 0.82599 0.0
H2190 H 0.87673 0.50014 0.83869 0.0
H2191 H 0.8561 0.49962 0.83409 0.0
C2192 C 0.85744 0.53117 0.86535 0.0
C2193 C 0.84174 0.53382 0.86753 0.0
C2194 C 0.86172 0.51632 0.86395 0.0
C2195 C 0.85038 0.50381 0.86448 0.0
C2196 C 0.8347 0.50639 0.86662 0.0
H2197 H 0.85181 0.40603 0.85551 0.0
H2198 H 0.84464 0.4319 0.85991 0.0
C2199 C 0.8304 0.52125 0.86811 0.0
C2200 C 0.85499 0.48803 0.86335 0.0
H2201 H 0.87325 0.46378 0.84033 0.0
C2202 C 0.85171 0.47818 0.87563 0.0
C2203 C 0.86274 0.48274 0.85039 0.0
C2204 C 0.86585 0.49248 0.83647 0.0
C2205 C 0.85619 0.46327 0.87541 0.0
C2206 C 0.86405 0.45807 0.86253 0.0
C2207 C 0.86733 0.46788 0.85025 0.0
C2208 C 0.86851 0.44229 0.86127 0.0
C2209 C 0.85269 0.45324 0.88903 0.0
C2210 C 0.88432 0.43956 0.86061 0.0
C2211 C 0.88848 0.42477 0.85814 0.0
C2212 C 0.87686 0.41248 0.85607 0.0
C2213 C 0.86104 0.41523 0.85708 0.0
C2214 C 0.85691 0.43 0.85966 0.0
H2215 H 0.84981 0.45994 0.89937 0.0
H2216 H 0.84249 0.44491 0.886 0.0
H2217 H 0.8628 0.44675 0.89199 0.0
H2218 H 0.89343 0.44894 0.86175 0.0
H2219 H 0.90076 0.42304 0.85734 0.0
H2220 H 0.20054 0.08932 0.61031 0.0
H2221 H 0.2285 0.09632 0.60784 0.0
H2222 H 0.22335 0.1411 0.62683 0.0
H2223 H 0.19515 0.13435 0.62876 0.0
H2224 H 0.24138 0.14302 0.60285 0.0
H2225 H 0.2618 0.09907 0.64124 0.0
H2226 H 0.24929 0.0907 0.6258 0.0
H2227 H 0.24158 0.10304 0.63989 0.0
C2228 C 0.20536 0.10065 0.61401 0.0
C2229 C 0.19568 0.11127 0.61982 0.0
C2230 C 0.22138 0.10459 0.61271 0.0
C2231 C 0.22809 0.11909 0.61754 0.0
C2232 C 0.21842 0.1298 0.62316 0.0
H2233 H 0.32909 0.14095 0.6283 0.0
H2234 H 0.30124 0.13474 0.63283 0.0
C2235 C 0.20233 0.12594 0.62424 0.0
C2236 C 0.24512 0.12323 0.61619 0.0
H2237 H 0.28098 0.11132 0.6249 0.0
C2238 C 0.25005 0.13617 0.6078 0.0
C2239 C 0.25643 0.11445 0.62289 0.0
C2240 C 0.25201 0.10115 0.6331 0.0
C2241 C 0.26597 0.14035 0.60557 0.0
C2242 C 0.27722 0.13101 0.61142 0.0
C2243 C 0.27232 0.11832 0.62019 0.0
C2244 C 0.29413 0.13424 0.60862 0.0
C2245 C 0.27053 0.15487 0.59717 0.0
C2246 C 0.29942 0.1356 0.59349 0.0
C2247 C 0.31526 0.13937 0.59089 0.0
C2248 C 0.32616 0.14147 0.60336 0.0
C2249 C 0.32096 0.1394 0.61847 0.0
C2250 C 0.30506 0.13587 0.62107 0.0
H2251 H 0.26138 0.16294 0.59795 0.0
H2252 H 0.28177 0.16065 0.60188 0.0
H2253 H 0.27188 0.15212 0.58476 0.0
H2254 H 0.29128 0.13387 0.58369 0.0
H2255 H 0.31897 0.14069 0.57912 0.0
H2256 H 0.1422 0.96728 0.89841 0.0
H2257 H 0.13021 0.9915 0.89944 0.0
H2258 H 0.16321 0.0105 0.86688 0.0
H2259 H 0.17529 0.98653 0.86579 0.0
H2260 H 0.14845 0.02625 0.90342 0.0
H2261 H 0.1138 0.00951 0.84938 0.0
H2262 H 0.12035 0.99564 0.8626 0.0
H2263 H 0.13403 0.00559 0.85024 0.0
C2264 C 0.14707 0.9767 0.89167 0.0
C2265 C 0.15964 0.97494 0.88194 0.0
C2266 C 0.14021 0.9905 0.89229 0.0
C2267 C 0.14582 0.00269 0.88318 0.0
C2268 C 0.15874 0.00118 0.87397 0.0
H2269 H 0.13599 0.09549 0.86604 0.0
H2270 H 0.14374 0.07125 0.87523 0.0
C2271 C 0.16561 0.98746 0.87337 0.0
C2272 C 0.13762 0.01666 0.88226 0.0
H2273 H 0.11422 0.03515 0.85793 0.0
C2274 C 0.14078 0.02818 0.89361 0.0
C2275 C 0.12752 0.01901 0.86953 0.0
C2276 C 0.12358 0.00679 0.85723 0.0
C2277 C 0.13457 0.04231 0.89219 0.0
C2278 C 0.12517 0.04496 0.87898 0.0
C2279 C 0.12144 0.03314 0.86803 0.0
C2280 C 0.12014 0.06022 0.87552 0.0
C2281 C 0.13829 0.05431 0.90473 0.0
C2282 C 0.10426 0.06212 0.8726 0.0
C2283 C 0.09977 0.076 0.86723 0.0
C2284 C 0.11112 0.08816 0.86454 0.0
C2285 C 0.12695 0.08637 0.86801 0.0
C2286 C 0.1314 0.07254 0.8734 0.0
H2287 H 0.14104 0.04911 0.91595 0.0
H2288 H 0.14872 0.06187 0.90156 0.0
H2289 H 0.12839 0.0614 0.90621 0.0
H2290 H 0.09539 0.05273 0.87405 0.0
H2291 H 0.08749 0.07699 0.86464 0.0
H2292 H 0.83963 0.39395 0.38466 0.0
H2293 H 0.81385 0.40345 0.38238 0.0
H2294 H 0.79194 0.3583 0.39014 0.0
H2295 H 0.81772 0.34862 0.39212 0.0
H2296 H 0.77664 0.37331 0.36731 0.0
H2297 H 0.78776 0.41027 0.41985 0.0
H2298 H 0.80191 0.41387 0.40521 0.0
H2299 H 0.80032 0.39583 0.41466 0.0
C2300 C 0.82933 0.38599 0.38571 0.0
C2301 C 0.83073 0.37055 0.3887 0.0
C2302 C 0.8146 0.39147 0.38452 0.0
C2303 C 0.801 0.38167 0.38649 0.0
C2304 C 0.80231 0.3661 0.38872 0.0
H2305 H 0.70222 0.38956 0.39442 0.0
H2306 H 0.72868 0.3816 0.39444 0.0
C2307 C 0.81705 0.36057 0.38981 0.0
C2308 C 0.78544 0.38768 0.3866 0.0
H2309 H 0.76409 0.41253 0.40565 0.0
C2310 C 0.77389 0.38187 0.37569 0.0
C2311 C 0.78188 0.39885 0.39759 0.0
C2312 C 0.79356 0.40499 0.41009 0.0
C2313 C 0.75889 0.38701 0.3754 0.0
C2314 C 0.75535 0.39812 0.3864 0.0
C2315 C 0.76692 0.40405 0.39721 0.0
C2316 C 0.73949 0.40332 0.38715 0.0
C2317 C 0.74697 0.38061 0.36325 0.0
C2318 C 0.73692 0.41835 0.38354 0.0
C2319 C 0.72176 0.42298 0.38352 0.0
C2320 C 0.70897 0.41267 0.38724 0.0
C2321 C 0.71175 0.39779 0.39143 0.0
C2322 C 0.72687 0.39318 0.39137 0.0
H2323 H 0.7525 0.3748 0.35364 0.0
H2324 H 0.73848 0.37215 0.36859 0.0
H2325 H 0.74035 0.38976 0.35843 0.0
H2326 H 0.74658 0.42637 0.38037 0.0
H2327 H 0.72004 0.43452 0.38027 0.0
H2328 H 0.84143 0.45864 0.64067 0.0
H2329 H 0.84857 0.4858 0.63821 0.0
H2330 H 0.87959 0.47672 0.60162 0.0
H2331 H 0.8726 0.44922 0.60416 0.0
H2332 H 0.89364 0.49606 0.62408 0.0
H2333 H 0.83694 0.51601 0.60619 0.0
H2334 H 0.8349 0.50424 0.62279 0.0
H2335 H 0.84065 0.49621 0.60479 0.0
C2336 C 0.84964 0.46236 0.63195 0.0
C2337 C 0.85647 0.45176 0.62262 0.0
C2338 C 0.85359 0.47794 0.63046 0.0
C2339 C 0.86437 0.4833 0.61953 0.0
C2340 C 0.8711 0.47279 0.61001 0.0
H2341 H 0.88331 0.58325 0.61843 0.0
H2342 H 0.87668 0.55694 0.60915 0.0
C2343 C 0.86711 0.45712 0.61148 0.0
C2344 C 0.86954 0.4998 0.61927 0.0
H2345 H 0.85535 0.53467 0.61978 0.0
C2346 C 0.88534 0.50452 0.6228 0.0
C2347 C 0.85877 0.51087 0.61733 0.0
C2348 C 0.84191 0.50657 0.61239 0.0
C2349 C 0.8904 0.51995 0.6256 0.0
C2350 C 0.87932 0.53085 0.62513 0.0
C2351 C 0.86378 0.52627 0.62043 0.0
C2352 C 0.88338 0.54679 0.63059 0.0
C2353 C 0.90752 0.52438 0.62937 0.0
C2354 C 0.88896 0.54979 0.64584 0.0
C2355 C 0.89274 0.56474 0.65118 0.0
C2356 C 0.89087 0.57705 0.64142 0.0
C2357 C 0.88491 0.57403 0.62625 0.0
C2358 C 0.88115 0.55902 0.6209 0.0
H2359 H 0.91497 0.51603 0.62432 0.0
H2360 H 0.91132 0.53587 0.62505 0.0
H2361 H 0.90952 0.52454 0.64209 0.0
H2362 H 0.89034 0.54053 0.65365 0.0
H2363 H 0.89719 0.56664 0.66296 0.0
H2364 H 0.61618 0.54368 0.12792 0.0
H2365 H 0.6126 0.51611 0.13144 0.0
H2366 H 0.65996 0.51227 0.11776 0.0
H2367 H 0.66376 0.53978 0.1144 0.0
H2368 H 0.61577 0.49159 0.11065 0.0
H2369 H 0.65828 0.4927 0.16045 0.0
H2370 H 0.65068 0.50971 0.15326 0.0
H2371 H 0.66588 0.5013 0.14326 0.0
C2372 C 0.62582 0.53697 0.12559 0.0
C2373 C 0.6403 0.54396 0.12102 0.0
C2374 C 0.62374 0.52123 0.12759 0.0
C2375 C 0.6361 0.51223 0.1251 0.0
C2376 C 0.65039 0.51908 0.12003 0.0
H2377 H 0.62488 0.4123 0.12273 0.0
H2378 H 0.63199 0.43888 0.11605 0.0
C2379 C 0.6525 0.5348 0.11806 0.0
C2380 C 0.63413 0.49573 0.12811 0.0
H2381 H 0.64723 0.46849 0.15138 0.0
C2382 C 0.62267 0.4865 0.1195 0.0
C2383 C 0.64309 0.48921 0.13978 0.0
C2384 C 0.65509 0.49873 0.14983 0.0
C2385 C 0.61986 0.47087 0.1223 0.0
C2386 C 0.62893 0.46433 0.13386 0.0
C2387 C 0.64044 0.47355 0.14241 0.0
C2388 C 0.62581 0.44818 0.13808 0.0
C2389 C 0.60688 0.4616 0.11323 0.0
C2390 C 0.62056 0.44463 0.15285 0.0
C2391 C 0.61659 0.42952 0.15673 0.0
C2392 C 0.61784 0.41763 0.14592 0.0
C2393 C 0.6237 0.42119 0.1313 0.0
C2394 C 0.62768 0.43636 0.12742 0.0
H2395 H 0.59899 0.46894 0.10708 0.0
H2396 H 0.61204 0.45437 0.1045 0.0
H2397 H 0.59978 0.45399 0.12094 0.0
H2398 H 0.61912 0.45361 0.16126 0.0
H2399 H 0.6122 0.42721 0.16812 0.0
H2400 H 0.6278 0.73112 0.92082 0.0
H2401 H 0.632 0.7564 0.90985 0.0
H2402 H 0.65173 0.73712 0.86962 0.0
H2403 H 0.6476 0.71161 0.8806 0.0
H2404 H 0.6602 0.77404 0.8968 0.0
H2405 H 0.6109 0.75697 0.85467 0.0
H2406 H 0.61385 0.74636 0.87196 0.0
H2407 H 0.62686 0.74516 0.85628 0.0
C2408 C 0.63331 0.73226 0.90977 0.0
C2409 C 0.63723 0.71937 0.90149 0.0
C2410 C 0.63575 0.74672 0.90355 0.0
C2411 C 0.64202 0.74857 0.88889 0.0
C2412 C 0.6468 0.73587 0.88094 0.0
H2413 H 0.62246 0.83111 0.83981 0.0
H2414 H 0.63422 0.80729 0.84456 0.0
C2415 C 0.64448 0.72134 0.88724 0.0
C2416 C 0.64188 0.76355 0.88152 0.0
H2417 H 0.61956 0.78286 0.8569 0.0
C2418 C 0.65156 0.77597 0.88783 0.0
C2419 C 0.63065 0.76598 0.86978 0.0
C2420 C 0.61988 0.75298 0.86274 0.0
C2421 C 0.64979 0.79091 0.8832 0.0
C2422 C 0.63773 0.79346 0.87231 0.0
C2423 C 0.62876 0.78091 0.86528 0.0
C2424 C 0.63287 0.80891 0.86943 0.0
C2425 C 0.66062 0.80381 0.89029 0.0
C2426 C 0.62832 0.81779 0.88182 0.0
C2427 C 0.62168 0.83139 0.87915 0.0
C2428 C 0.61923 0.8363 0.86401 0.0
C2429 C 0.6242 0.82764 0.85161 0.0
C2430 C 0.63093 0.81403 0.8543 0.0
H2431 H 0.67227 0.79996 0.89329 0.0
H2432 H 0.66223 0.81356 0.88238 0.0
H2433 H 0.65562 0.80779 0.90114 0.0
H2434 H 0.62924 0.81389 0.89355 0.0
H2435 H 0.61792 0.83774 0.88896 0.0
H2436 H 0.55515 0.35806 0.12077 0.0
H2437 H 0.52705 0.35443 0.11436 0.0
H2438 H 0.51693 0.36408 0.16178 0.0
H2439 H 0.54489 0.36753 0.16837 0.0
H2440 H 0.49859 0.33897 0.14901 0.0
H2441 H 0.49835 0.38912 0.11125 0.0
H2442 H 0.51211 0.37592 0.10601 0.0
H2443 H 0.51463 0.38616 0.12418 0.0
C2444 C 0.54695 0.35934 0.12985 0.0
C2445 C 0.55228 0.36318 0.14506 0.0
C2446 C 0.53091 0.35737 0.12614 0.0
C2447 C 0.51995 0.35927 0.13755 0.0
C2448 C 0.52522 0.36267 0.1528 0.0
H2449 H 0.4209 0.36957 0.11885 0.0
H2450 H 0.44808 0.37334 0.1288 0.0
C2451 C 0.54122 0.36464 0.15652 0.0
C2452 C 0.50297 0.3577 0.13365 0.0
H2453 H 0.4749 0.37247 0.11133 0.0
C2454 C 0.49338 0.34632 0.14083 0.0
C2455 C 0.49619 0.36751 0.1232 0.0
C2456 C 0.5058 0.38047 0.11581 0.0
C2457 C 0.47722 0.34421 0.13748 0.0
C2458 C 0.47056 0.35359 0.12651 0.0
C2459 C 0.48007 0.36524 0.11967 0.0
C2460 C 0.4539 0.35104 0.12142 0.0
C2461 C 0.46742 0.332 0.14576 0.0
C2462 C 0.44823 0.33728 0.11398 0.0
C2463 C 0.43279 0.33509 0.10832 0.0
C2464 C 0.42269 0.34667 0.10988 0.0
C2465 C 0.42835 0.36041 0.11751 0.0
C2466 C 0.44386 0.3626 0.12317 0.0
H2467 H 0.47324 0.32898 0.15676 0.0
H2468 H 0.45573 0.33569 0.14831 0.0
H2469 H 0.46567 0.32157 0.1383 0.0
H2470 H 0.45587 0.32834 0.11224 0.0
H2471 H 0.42887 0.32438 0.10248 0.0
H2472 H 0.87985 0.16859 0.38874 0.0
H2473 H 0.86901 0.19289 0.39212 0.0
H2474 H 0.86069 0.19508 0.3429 0.0
H2475 H 0.87195 0.17073 0.33936 0.0
H2476 H 0.87601 0.22079 0.35425 0.0
H2477 H 0.82573 0.20639 0.39101 0.0
H2478 H 0.84293 0.19926 0.39923 0.0
H2479 H 0.83516 0.19199 0.38068 0.0
C2480 C 0.87549 0.17407 0.37862 0.0
C2481 C 0.87681 0.16772 0.36376 0.0
C2482 C 0.86912 0.18793 0.3806 0.0
C2483 C 0.86372 0.1957 0.36781 0.0
C2484 C 0.86463 0.18921 0.35296 0.0
H2485 H 0.84743 0.2934 0.3759 0.0
H2486 H 0.84326 0.26704 0.36574 0.0
C2487 C 0.87106 0.1753 0.35095 0.0
C2488 C 0.85892 0.21134 0.36999 0.0
H2489 H 0.83794 0.23258 0.39366 0.0
C2490 C 0.86734 0.22335 0.36252 0.0
C2491 C 0.84754 0.21471 0.38072 0.0
C2492 C 0.83722 0.20236 0.38822 0.0
C2493 C 0.86562 0.23861 0.36643 0.0
C2494 C 0.85519 0.24192 0.37807 0.0
C2495 C 0.846 0.22998 0.3848 0.0
C2496 C 0.85547 0.25746 0.38489 0.0
C2497 C 0.87577 0.25111 0.35891 0.0
C2498 C 0.86328 0.26065 0.39918 0.0
C2499 C 0.86576 0.2756 0.40492 0.0
C2500 C 0.86035 0.28765 0.39653 0.0
C2501 C 0.85169 0.28434 0.38263 0.0
C2502 C 0.84935 0.26932 0.37679 0.0
H2503 H 0.88388 0.24657 0.35061 0.0
H2504 H 0.86824 0.25867 0.35263 0.0
H2505 H 0.88277 0.25817 0.36787 0.0
H2506 H 0.86809 0.25164 0.40558 0.0
H2507 H 0.8724 0.27777 0.4157 0.0
H2508 H 0.9614 0.62959 0.67336 0.0
H2509 H 0.9893 0.63423 0.6682 0.0
H2510 H 0.97795 0.6441 0.62086 0.0
H2511 H 0.95007 0.63943 0.62582 0.0
H2512 H 0.0001 0.62216 0.62497 0.0
H2513 H 0.01581 0.67514 0.66018 0.0
H2514 H 0.0054 0.65958 0.66981 0.0
H2515 H 0.99585 0.66875 0.65435 0.0
C2516 C 0.96482 0.63292 0.66188 0.0
C2517 C 0.95348 0.63412 0.64999 0.0
C2518 C 0.98077 0.63561 0.65899 0.0
C2519 C 0.98565 0.6396 0.64418 0.0
C2520 C 0.97439 0.64106 0.63237 0.0
H2521 H 0.07229 0.6744 0.60673 0.0
H2522 H 0.04636 0.66996 0.61744 0.0
C2523 C 0.95846 0.63841 0.63525 0.0
C2524 C 0.00248 0.6415 0.64069 0.0
H2525 H 0.0364 0.66438 0.64774 0.0
C2526 C 0.00808 0.63133 0.63 0.0
C2527 C 0.01278 0.65351 0.64725 0.0
C2528 C 0.00721 0.66497 0.65846 0.0
C2529 C 0.02369 0.63299 0.6255 0.0
C2530 C 0.03402 0.64502 0.63204 0.0
C2531 C 0.02847 0.65509 0.64288 0.0
C2532 C 0.05026 0.64803 0.62682 0.0
C2533 C 0.02886 0.62218 0.61338 0.0
C2534 C 0.0612 0.6373 0.62886 0.0
C2535 C 0.07607 0.63976 0.62268 0.0
C2536 C 0.08026 0.65303 0.61441 0.0
C2537 C 0.06945 0.66401 0.61294 0.0
C2538 C 0.05462 0.66153 0.6191 0.0
H2539 H 0.01875 0.61555 0.60731 0.0
H2540 H 0.03601 0.62848 0.60468 0.0
H2541 H 0.03618 0.614 0.61896 0.0
H2542 H 0.05813 0.62692 0.63501 0.0
H2543 H 0.08415 0.63114 0.62412 0.0
H2544 H 0.6114 0.28304 0.57319 0.0
H2545 H 0.60795 0.25566 0.57788 0.0
H2546 H 0.61302 0.26475 0.62695 0.0
H2547 H 0.61602 0.29207 0.62243 0.0
H2548 H 0.62795 0.23767 0.59142 0.0
H2549 H 0.57366 0.23605 0.62442 0.0
H2550 H 0.58085 0.25252 0.61378 0.0
H2551 H 0.58886 0.24932 0.63277 0.0
C2552 C 0.61158 0.27922 0.58499 0.0
C2553 C 0.61387 0.28975 0.59744 0.0
C2554 C 0.60967 0.26357 0.58764 0.0
C2555 C 0.61 0.25817 0.60277 0.0
C2556 C 0.61232 0.26866 0.6152 0.0
H2557 H 0.62868 0.16926 0.63509 0.0
H2558 H 0.63094 0.19503 0.62484 0.0
C2559 C 0.6141 0.28429 0.61258 0.0
C2560 C 0.60845 0.24157 0.60558 0.0
H2561 H 0.58796 0.21414 0.62599 0.0
C2562 C 0.6191 0.23247 0.59885 0.0
C2563 C 0.59677 0.23475 0.61508 0.0
C2564 C 0.58429 0.24364 0.62179 0.0
C2565 C 0.61866 0.2168 0.60171 0.0
C2566 C 0.6075 0.21017 0.61189 0.0
C2567 C 0.59661 0.21922 0.61829 0.0
C2568 C 0.60686 0.19394 0.6163 0.0
C2569 C 0.63003 0.20753 0.59368 0.0
C2570 C 0.59261 0.18474 0.61493 0.0
C2571 C 0.59123 0.17018 0.62107 0.0
C2572 C 0.60411 0.16446 0.62857 0.0
C2573 C 0.61861 0.17333 0.62923 0.0
C2574 C 0.61992 0.18804 0.6233 0.0
H2575 H 0.63403 0.21293 0.58283 0.0
H2576 H 0.6405 0.20681 0.60137 0.0
H2577 H 0.62473 0.19579 0.5909 0.0
H2578 H 0.58239 0.18902 0.60956 0.0
H2579 H 0.57992 0.16356 0.62032 0.0
H2580 H 0.07482 0.35651 0.90704 0.0
H2581 H 0.04966 0.36606 0.90046 0.0
H2582 H 0.07097 0.39189 0.86352 0.0
H2583 H 0.09588 0.38145 0.8694 0.0
H2584 H 0.03648 0.39171 0.8975 0.0
H2585 H 0.03951 0.36474 0.83928 0.0
H2586 H 0.05385 0.36244 0.85442 0.0
H2587 H 0.05478 0.37966 0.84349 0.0
C2588 C 0.07417 0.36442 0.89768 0.0
C2589 C 0.08714 0.36803 0.88852 0.0
C2590 C 0.0598 0.36991 0.89393 0.0
C2591 C 0.05828 0.37931 0.88116 0.0
C2592 C 0.0717 0.38419 0.87304 0.0
H2593 H 0.96142 0.40223 0.85809 0.0
H2594 H 0.9893 0.40639 0.86607 0.0
C2595 C 0.08594 0.37832 0.87647 0.0
C2596 C 0.04244 0.38254 0.87548 0.0
H2597 H 0.01685 0.37623 0.84459 0.0
C2598 C 0.03219 0.38845 0.88589 0.0
C2599 C 0.03683 0.37819 0.86032 0.0
C2600 C 0.04674 0.37078 0.84877 0.0
C2601 C 0.01633 0.38943 0.88182 0.0
C2602 C 0.01072 0.3848 0.86678 0.0
C2603 C 0.0212 0.37978 0.85612 0.0
C2604 C 0.99379 0.38285 0.86238 0.0
C2605 C 0.00556 0.39454 0.89391 0.0
C2606 C 0.98716 0.36836 0.85743 0.0
C2607 C 0.97151 0.36608 0.85258 0.0
C2608 C 0.96199 0.37818 0.85274 0.0
C2609 C 0.96849 0.3927 0.85791 0.0
C2610 C 0.98437 0.39505 0.86256 0.0
H2611 H 0.01112 0.39496 0.90568 0.0
H2612 H 0.0024 0.40614 0.89122 0.0
H2613 H 0.99458 0.38679 0.89396 0.0
H2614 H 0.99414 0.35875 0.85726 0.0
H2615 H 0.96684 0.35472 0.84882 0.0
H2616 H 0.88851 0.70378 0.12825 0.0
H2617 H 0.89252 0.731 0.13449 0.0
H2618 H 0.89783 0.74062 0.08618 0.0
H2619 H 0.89299 0.71339 0.0798 0.0
H2620 H 0.91555 0.75167 0.13154 0.0
H2621 H 0.86539 0.76829 0.09609 0.0
H2622 H 0.86847 0.74865 0.09937 0.0
H2623 H 0.8791 0.75916 0.08478 0.0
C2624 C 0.89057 0.71169 0.11896 0.0
C2625 C 0.8903 0.70647 0.10352 0.0
C2626 C 0.89284 0.72726 0.12254 0.0
C2627 C 0.8951 0.73792 0.11078 0.0
C2628 C 0.89556 0.73268 0.09541 0.0
H2629 H 0.93111 0.83178 0.13364 0.0
H2630 H 0.9279 0.80538 0.1241 0.0
C2631 C 0.89296 0.7171 0.09178 0.0
C2632 C 0.89708 0.75448 0.11475 0.0
H2633 H 0.8829 0.7885 0.10684 0.0
C2634 C 0.90836 0.75971 0.12616 0.0
C2635 C 0.88752 0.76495 0.10794 0.0
C2636 C 0.87433 0.75996 0.09649 0.0
C2637 C 0.91037 0.77507 0.13098 0.0
C2638 C 0.9013 0.78566 0.12369 0.0
C2639 C 0.88999 0.78043 0.11228 0.0
C2640 C 0.90303 0.80211 0.12808 0.0
C2641 C 0.92181 0.7796 0.14423 0.0
C2642 C 0.88995 0.80939 0.13255 0.0
C2643 C 0.89169 0.82465 0.13756 0.0
C2644 C 0.90657 0.8328 0.13838 0.0
C2645 C 0.91954 0.82568 0.13336 0.0
C2646 C 0.91774 0.81055 0.12803 0.0
H2647 H 0.92393 0.76971 0.1515 0.0
H2648 H 0.93321 0.78404 0.13956 0.0
H2649 H 0.91754 0.78859 0.1517 0.0
H2650 H 0.87846 0.80315 0.13257 0.0
H2651 H 0.88149 0.82986 0.14137 0.0
H2652 H 0.40944 0.64477 0.36157 0.0
H2653 H 0.43437 0.63568 0.35473 0.0
H2654 H 0.44442 0.62667 0.40253 0.0
H2655 H 0.41938 0.63584 0.40959 0.0
H2656 H 0.46456 0.65084 0.3718 0.0
H2657 H 0.45462 0.58749 0.37367 0.0
H2658 H 0.43881 0.59895 0.36897 0.0
H2659 H 0.44674 0.59914 0.38833 0.0
C2660 C 0.41681 0.64066 0.37064 0.0
C2661 C 0.41247 0.64113 0.38615 0.0
C2662 C 0.43103 0.63543 0.36669 0.0
C2663 C 0.44113 0.63045 0.37812 0.0
C2664 C 0.43665 0.63034 0.39355 0.0
H2665 H 0.53809 0.60967 0.36556 0.0
H2666 H 0.51197 0.60999 0.37632 0.0
C2667 C 0.42239 0.63562 0.39755 0.0
C2668 C 0.457 0.62703 0.37393 0.0
H2669 H 0.47921 0.59801 0.36531 0.0
C2670 C 0.46783 0.63931 0.37051 0.0
C2671 C 0.46119 0.61198 0.37241 0.0
C2672 C 0.4498 0.59854 0.37599 0.0
C2673 C 0.48267 0.63692 0.36521 0.0
C2674 C 0.48665 0.62185 0.36298 0.0
C2675 C 0.47605 0.60954 0.36694 0.0
C2676 C 0.50153 0.61893 0.35579 0.0
C2677 C 0.49393 0.65059 0.36188 0.0
C2678 C 0.50404 0.62319 0.3405 0.0
C2679 C 0.51887 0.6231 0.33438 0.0
C2680 C 0.53145 0.61861 0.34341 0.0
C2681 C 0.52862 0.61318 0.35833 0.0
C2682 C 0.51373 0.61337 0.3645 0.0
H2683 H 0.49071 0.66108 0.36781 0.0
H2684 H 0.50608 0.64865 0.36554 0.0
H2685 H 0.49371 0.65256 0.34926 0.0
H2686 H 0.49469 0.62732 0.33354 0.0
H2687 H 0.52062 0.6272 0.3228 0.0
H2688 H 0.82641 0.60119 0.82364 0.0
H2689 H 0.83166 0.60933 0.79723 0.0
H2690 H 0.88108 0.61579 0.80879 0.0
H2691 H 0.87598 0.60785 0.83512 0.0
H2692 H 0.86992 0.63885 0.7894 0.0
H2693 H 0.85178 0.57968 0.76778 0.0
H2694 H 0.83774 0.58896 0.77864 0.0
H2695 H 0.8555 0.58419 0.78804 0.0
C2696 C 0.83836 0.60459 0.82062 0.0
C2697 C 0.8508 0.6037 0.83143 0.0
C2698 C 0.84134 0.60919 0.80552 0.0
C2699 C 0.85678 0.61295 0.80102 0.0
C2700 C 0.86909 0.6129 0.81202 0.0
H2701 H 0.90892 0.60561 0.72143 0.0
H2702 H 0.89668 0.60581 0.74643 0.0
C2703 C 0.86614 0.6083 0.82707 0.0
C2704 C 0.86044 0.61569 0.78464 0.0
H2705 H 0.86241 0.59707 0.74994 0.0
C2706 C 0.86804 0.62983 0.78067 0.0
C2707 C 0.8581 0.60381 0.77335 0.0
C2708 C 0.85043 0.58825 0.77709 0.0
C2709 C 0.87378 0.63224 0.7658 0.0
C2710 C 0.87185 0.6202 0.75471 0.0
C2711 C 0.86377 0.60627 0.75851 0.0
C2712 C 0.87962 0.62117 0.7397 0.0
C2713 C 0.88256 0.64732 0.76222 0.0
C2714 C 0.87413 0.62989 0.72767 0.0
C2715 C 0.88111 0.6298 0.71324 0.0
C2716 C 0.89366 0.62096 0.7107 0.0
C2717 C 0.89928 0.61254 0.72295 0.0
C2718 C 0.8923 0.61261 0.73727 0.0
H2719 H 0.88398 0.65517 0.77246 0.0
H2720 H 0.89432 0.64548 0.75796 0.0
H2721 H 0.87615 0.65287 0.75291 0.0
H2722 H 0.86427 0.63649 0.72933 0.0
H2723 H 0.87649 0.63637 0.70403 0.0
H2724 H 0.66271 0.61164 0.07046 0.0
H2725 H 0.65784 0.62344 0.04587 0.0
H2726 H 0.61121 0.631 0.05936 0.0
H2727 H 0.61589 0.61889 0.08413 0.0
H2728 H 0.61176 0.61809 0.03033 0.0
H2729 H 0.65586 0.66796 0.03581 0.0
H2730 H 0.66434 0.65052 0.0396 0.0
H2731 H 0.64974 0.65674 0.05216 0.0
C2732 C 0.65144 0.61592 0.06833 0.0
C2733 C 0.63968 0.61432 0.07931 0.0
C2734 C 0.64873 0.62278 0.05427 0.0
C2735 C 0.63427 0.62836 0.0509 0.0
C2736 C 0.6225 0.62689 0.06182 0.0
H2737 H 0.62375 0.67779 0.96492 0.0
H2738 H 0.62402 0.67121 0.99221 0.0
C2739 C 0.6252 0.61998 0.07595 0.0
C2740 C 0.63129 0.63478 0.03552 0.0
H2741 H 0.64686 0.66046 0.0099 0.0
C2742 C 0.61927 0.62751 0.02593 0.0
C2743 C 0.64093 0.64722 0.02988 0.0
C2744 C 0.65333 0.65616 0.03997 0.0
C2745 C 0.61717 0.63185 0.01056 0.0
C2746 C 0.62759 0.64352 0.00457 0.0
C2747 C 0.63905 0.65133 0.01442 0.0
C2748 C 0.62716 0.64744 0.98802 0.0
C2749 C 0.60387 0.6238 0.00087 0.0
C2750 C 0.62912 0.63632 0.97662 0.0
C2751 C 0.62892 0.64001 0.96102 0.0
C2752 C 0.62695 0.65496 0.95651 0.0
C2753 C 0.62529 0.66616 0.96798 0.0
C2754 C 0.62541 0.66243 0.98359 0.0
H2755 H 0.59431 0.61894 0.00818 0.0
H2756 H 0.59896 0.63164 0.99254 0.0
H2757 H 0.60825 0.61426 0.99428 0.0
H2758 H 0.63093 0.62478 0.9798 0.0
H2759 H 0.63035 0.63114 0.9525 0.0
H2760 H 0.58839 0.39337 0.2199 0.0
H2761 H 0.59639 0.39546 0.24708 0.0
H2762 H 0.6289 0.36171 0.24015 0.0
H2763 H 0.6212 0.3598 0.21261 0.0
H2764 H 0.59615 0.37527 0.27055 0.0
H2765 H 0.65701 0.39802 0.2579 0.0
H2766 H 0.64155 0.39589 0.24323 0.0
H2767 H 0.65072 0.37952 0.24965 0.0
C2768 C 0.59718 0.38628 0.22412 0.0
C2769 C 0.60431 0.37654 0.21405 0.0
C2770 C 0.6017 0.38747 0.2397 0.0
C2771 C 0.61341 0.37893 0.24558 0.0
C2772 C 0.62005 0.36863 0.23576 0.0
H2773 H 0.63627 0.38424 0.34533 0.0
H2774 H 0.62746 0.37451 0.31961 0.0
C2775 C 0.61558 0.36748 0.22006 0.0
C2776 C 0.61902 0.38159 0.26183 0.0
H2777 H 0.65058 0.39636 0.28399 0.0
C2778 C 0.60809 0.37973 0.27354 0.0
C2779 C 0.63456 0.38761 0.26563 0.0
C2780 C 0.64664 0.39052 0.25347 0.0
C2781 C 0.61216 0.38413 0.2889 0.0
C2782 C 0.62767 0.39023 0.29267 0.0
C2783 C 0.63871 0.39166 0.28104 0.0
C2784 C 0.63254 0.39606 0.30839 0.0
C2785 C 0.59964 0.38286 0.30079 0.0
C2786 C 0.63851 0.41135 0.31059 0.0
C2787 C 0.64372 0.41691 0.32522 0.0
C2788 C 0.64302 0.40727 0.33797 0.0
C2789 C 0.63683 0.392 0.33578 0.0
C2790 C 0.63174 0.38642 0.32109 0.0
H2791 H 0.58769 0.38146 0.29535 0.0
H2792 H 0.60108 0.37276 0.30795 0.0
H2793 H 0.6006 0.39309 0.30856 0.0
H2794 H 0.63922 0.41898 0.30093 0.0
H2795 H 0.64841 0.42872 0.3265 0.0
H2796 H 0.87083 0.3544 0.58018 0.0
H2797 H 0.8761 0.35164 0.55283 0.0
H2798 H 0.87516 0.40008 0.54745 0.0
H2799 H 0.86966 0.40295 0.57488 0.0
H2800 H 0.85545 0.38282 0.52672 0.0
H2801 H 0.91444 0.36221 0.52724 0.0
H2802 H 0.90115 0.35145 0.53941 0.0
H2803 H 0.90678 0.37126 0.54389 0.0
C2804 C 0.87203 0.36453 0.57327 0.0
C2805 C 0.86978 0.3789 0.5797 0.0
C2806 C 0.87516 0.36294 0.55764 0.0
C2807 C 0.8762 0.37567 0.54814 0.0
C2808 C 0.87449 0.39012 0.55462 0.0
H2809 H 0.87692 0.3795 0.44728 0.0
H2810 H 0.87816 0.38646 0.47476 0.0
C2811 C 0.87138 0.39174 0.57029 0.0
C2812 C 0.87745 0.37361 0.53123 0.0
H2813 H 0.89912 0.35817 0.50364 0.0
C2814 C 0.86512 0.37765 0.52163 0.0
C2815 C 0.89003 0.36677 0.52466 0.0
C2816 C 0.90393 0.3628 0.53432 0.0
C2817 C 0.8647 0.3745 0.50568 0.0
C2818 C 0.8771 0.36735 0.49916 0.0
C2819 C 0.88962 0.36361 0.5087 0.0
C2820 C 0.877 0.36322 0.48252 0.0
C2821 C 0.85071 0.37832 0.49605 0.0
C2822 C 0.87633 0.34785 0.4778 0.0
C2823 C 0.87568 0.34382 0.4621 0.0
C2824 C 0.87576 0.3551 0.45083 0.0
C2825 C 0.87673 0.37051 0.45563 0.0
C2826 C 0.87739 0.37452 0.47133 0.0
H2827 H 0.84069 0.3806 0.50329 0.0
H2828 H 0.85398 0.38868 0.48937 0.0
H2829 H 0.84682 0.36889 0.48772 0.0
H2830 H 0.87607 0.33897 0.48627 0.0
H2831 H 0.87501 0.33186 0.45881 0.0
H2832 H 0.92285 0.36639 0.78964 0.0
H2833 H 0.92053 0.36717 0.76145 0.0
H2834 H 0.87215 0.37603 0.76445 0.0
H2835 H 0.87422 0.37499 0.79254 0.0
H2836 H 0.87689 0.3543 0.74202 0.0
H2837 H 0.91859 0.40611 0.73692 0.0
H2838 H 0.92613 0.39047 0.74676 0.0
H2839 H 0.91079 0.40008 0.75515 0.0
C2840 C 0.9117 0.36848 0.7843 0.0
C2841 C 0.89874 0.37072 0.79336 0.0
C2842 C 0.91043 0.36898 0.76819 0.0
C2843 C 0.89624 0.37187 0.76089 0.0
C2844 C 0.88322 0.37381 0.76987 0.0
H2845 H 0.86856 0.40845 0.67646 0.0
H2846 H 0.87815 0.40275 0.70223 0.0
C2847 C 0.88445 0.37324 0.78594 0.0
C2848 C 0.8948 0.37309 0.7439 0.0
H2849 H 0.90681 0.39535 0.71388 0.0
C2850 C 0.88353 0.36316 0.7358 0.0
C2851 C 0.90347 0.38473 0.73589 0.0
C2852 C 0.91535 0.39606 0.74409 0.0
C2853 C 0.88029 0.36487 0.72 0.0
C2854 C 0.88878 0.37666 0.71204 0.0
C2855 C 0.90043 0.38626 0.72002 0.0
C2856 C 0.88447 0.38033 0.69595 0.0
C2857 C 0.86723 0.35457 0.71217 0.0
C2858 C 0.88524 0.36975 0.68375 0.0
C2859 C 0.87965 0.37293 0.66893 0.0
C2860 C 0.8733 0.38679 0.6661 0.0
C2861 C 0.87327 0.39762 0.67823 0.0
C2862 C 0.87879 0.39441 0.69298 0.0
H2863 H 0.85994 0.34803 0.72061 0.0
H2864 H 0.85953 0.36127 0.70502 0.0
H2865 H 0.87232 0.3463 0.70444 0.0
H2866 H 0.88987 0.35892 0.68576 0.0
H2867 H 0.87995 0.3644 0.65982 0.0
H2868 H 0.86153 0.61545 0.90955 0.0
H2869 H 0.86903 0.62651 0.93513 0.0
H2870 H 0.83699 0.59282 0.95597 0.0
H2871 H 0.82908 0.58204 0.93049 0.0
H2872 H 0.83373 0.62033 0.96723 0.0
H2873 H 0.89683 0.61151 0.96869 0.0
H2874 H 0.89106 0.62212 0.95235 0.0
H2875 H 0.8832 0.6026 0.95421 0.0
C2876 C 0.85614 0.61036 0.91959 0.0
C2877 C 0.84469 0.59787 0.91798 0.0
C2878 C 0.86055 0.61661 0.93422 0.0
C2879 C 0.85379 0.61033 0.94751 0.0
C2880 C 0.84242 0.59783 0.9459 0.0
H2881 H 0.88232 0.62964 0.04378 0.0
H2882 H 0.87865 0.61864 0.01755 0.0
C2883 C 0.83789 0.59169 0.93131 0.0
C2884 C 0.85784 0.61722 0.96305 0.0
H2885 H 0.88824 0.6274 0.9887 0.0
C2886 C 0.84565 0.62181 0.97193 0.0
C2887 C 0.87337 0.61896 0.96928 0.0
C2888 C 0.88685 0.6134 0.96071 0.0
C2889 C 0.84854 0.62822 0.98679 0.0
C2890 C 0.86413 0.63057 0.99276 0.0
C2891 C 0.87633 0.62578 0.984 0.0
C2892 C 0.86786 0.63783 0.00817 0.0
C2893 C 0.83477 0.63211 0.99605 0.0
C2894 C 0.86356 0.65248 0.01143 0.0
C2895 C 0.86547 0.65869 0.02637 0.0
C2896 C 0.87199 0.65049 0.0383 0.0
C2897 C 0.87722 0.63621 0.03482 0.0
C2898 C 0.87513 0.62992 0.01986 0.0
H2899 H 0.82369 0.62565 0.99176 0.0
H2900 H 0.83659 0.62965 0.00846 0.0
H2901 H 0.83336 0.64443 0.995 0.0
H2902 H 0.85833 0.65897 0.00248 0.0
H2903 H 0.86152 0.66981 0.02864 0.0
H2904 H 0.62539 0.62124 0.29667 0.0
H2905 H 0.63312 0.61983 0.26978 0.0
H2906 H 0.58473 0.61865 0.25453 0.0
H2907 H 0.57688 0.62024 0.28132 0.0
H2908 H 0.6244 0.59755 0.2471 0.0
H2909 H 0.60582 0.6535 0.22981 0.0
H2910 H 0.60791 0.64826 0.24976 0.0
H2911 H 0.59064 0.64142 0.23848 0.0
C2912 C 0.61638 0.62067 0.28761 0.0
C2913 C 0.60051 0.62095 0.29117 0.0
C2914 C 0.62082 0.61989 0.27225 0.0
C2915 C 0.60953 0.61945 0.26016 0.0
C2916 C 0.59367 0.61936 0.26367 0.0
H2917 H 0.60396 0.60686 0.16205 0.0
H2918 H 0.60005 0.61202 0.18938 0.0
C2919 C 0.5892 0.62015 0.27901 0.0
C2920 C 0.61424 0.61871 0.24388 0.0
H2921 H 0.61188 0.63666 0.20942 0.0
C2922 C 0.62184 0.60618 0.23888 0.0
C2923 C 0.61092 0.63003 0.23322 0.0
C2924 C 0.60351 0.64414 0.23809 0.0
C2925 C 0.62563 0.60433 0.22336 0.0
C2926 C 0.62195 0.61545 0.21262 0.0
C2927 C 0.61467 0.62816 0.21769 0.0
C2928 C 0.62468 0.61359 0.19593 0.0
C2929 C 0.63299 0.59019 0.21845 0.0
C2930 C 0.63987 0.61321 0.19049 0.0
C2931 C 0.64217 0.61027 0.17483 0.0
C2932 C 0.62928 0.60769 0.16438 0.0
C2933 C 0.61413 0.60873 0.1698 0.0
C2934 C 0.61187 0.61169 0.18541 0.0
H2935 H 0.63216 0.58136 0.22744 0.0
H2936 H 0.6273 0.58523 0.20757 0.0
H2937 H 0.64556 0.59324 0.21629 0.0
H2938 H 0.64993 0.61492 0.19839 0.0
H2939 H 0.65398 0.6096 0.17101 0.0
H2940 H 0.60736 0.37096 0.54931 0.0
H2941 H 0.60415 0.38471 0.52521 0.0
H2942 H 0.61809 0.34627 0.49931 0.0
H2943 H 0.62147 0.33258 0.52321 0.0
H2944 H 0.63025 0.39079 0.50516 0.0
H2945 H 0.5794 0.35915 0.47446 0.0
H2946 H 0.58253 0.35864 0.49517 0.0
H2947 H 0.59298 0.34698 0.48263 0.0
C2948 C 0.6094 0.36533 0.53844 0.0
C2949 C 0.61473 0.35073 0.53813 0.0
C2950 C 0.60757 0.3732 0.52471 0.0
C2951 C 0.61071 0.36642 0.5105 0.0
C2952 C 0.61534 0.35159 0.51014 0.0
H2953 H 0.63681 0.37584 0.42027 0.0
H2954 H 0.62598 0.36948 0.44519 0.0
C2955 C 0.61737 0.34382 0.52382 0.0
C2956 C 0.61114 0.37529 0.49618 0.0
H2957 H 0.59803 0.37325 0.45859 0.0
C2958 C 0.62296 0.38729 0.49503 0.0
C2959 C 0.60158 0.37064 0.48307 0.0
C2960 C 0.5883 0.35823 0.48389 0.0
C2961 C 0.6264 0.39388 0.48076 0.0
C2962 C 0.61749 0.38853 0.4674 0.0
C2963 C 0.60489 0.37731 0.46882 0.0
C2964 C 0.62247 0.39271 0.45168 0.0
C2965 C 0.64032 0.40563 0.47994 0.0
C2966 C 0.62376 0.40788 0.44685 0.0
C2967 C 0.63015 0.41161 0.43256 0.0
C2968 C 0.63517 0.40018 0.42286 0.0
C2969 C 0.63314 0.38495 0.42747 0.0
C2970 C 0.62688 0.38127 0.44172 0.0
H2971 H 0.64753 0.40655 0.49085 0.0
H2972 H 0.64791 0.4028 0.47034 0.0
H2973 H 0.63616 0.41695 0.47772 0.0
H2974 H 0.62013 0.41686 0.45423 0.0
H2975 H 0.63145 0.42344 0.42927 0.0
H2976 H 0.70958 0.88751 0.64306 0.0
H2977 H 0.73432 0.87563 0.64435 0.0
H2978 H 0.7576 0.91467 0.62255 0.0
H2979 H 0.73301 0.92652 0.62108 0.0
H2980 H 0.75122 0.86974 0.61639 0.0
H2981 H 0.78759 0.90571 0.65952 0.0
H2982 H 0.76643 0.90452 0.65883 0.0
H2983 H 0.77745 0.91621 0.64545 0.0
C2984 C 0.72005 0.89369 0.63884 0.0
C2985 C 0.71935 0.90793 0.63193 0.0
C2986 C 0.73414 0.88688 0.63956 0.0
C2987 C 0.74779 0.89435 0.63368 0.0
C2988 C 0.74724 0.90883 0.62737 0.0
H2989 H 0.83889 0.88401 0.6046 0.0
H2990 H 0.81433 0.89161 0.61416 0.0
C2991 C 0.73316 0.91554 0.62647 0.0
C2992 C 0.76225 0.88652 0.63255 0.0
H2993 H 0.80125 0.89051 0.64229 0.0
C2994 C 0.76213 0.87404 0.62226 0.0
C2995 C 0.77641 0.89225 0.6402 0.0
C2996 C 0.77702 0.90534 0.65174 0.0
C2997 C 0.77603 0.86772 0.61865 0.0
C2998 C 0.79035 0.87383 0.62586 0.0
C2999 C 0.79029 0.88584 0.63675 0.0
C3000 C 0.80565 0.86901 0.62113 0.0
C3001 C 0.77536 0.85522 0.60642 0.0
C3002 C 0.80911 0.85379 0.62213 0.0
C3003 C 0.82315 0.84934 0.61647 0.0
C3004 C 0.83403 0.86009 0.60993 0.0
C3005 C 0.83076 0.87541 0.60952 0.0
C3006 C 0.81672 0.8798 0.61503 0.0
H3007 H 0.76407 0.85417 0.59967 0.0
H3008 H 0.78504 0.85732 0.59829 0.0
H3009 H 0.7766 0.84418 0.61202 0.0
H3010 H 0.8009 0.84532 0.62711 0.0
H3011 H 0.8254 0.83748 0.61708 0.0
H3012 H 0.19495 0.63685 0.37223 0.0
H3013 H 0.2232 0.64407 0.37407 0.0
H3014 H 0.23106 0.59775 0.38473 0.0
H3015 H 0.20298 0.59035 0.38235 0.0
H3016 H 0.24299 0.64358 0.39762 0.0
H3017 H 0.26199 0.60584 0.35163 0.0
H3018 H 0.2417 0.60888 0.35401 0.0
H3019 H 0.25078 0.59517 0.36556 0.0
C3020 C 0.20272 0.6282 0.37488 0.0
C3021 C 0.19676 0.61302 0.37706 0.0
C3022 C 0.21885 0.63233 0.37589 0.0
C3023 C 0.22928 0.62138 0.37918 0.0
C3024 C 0.2233 0.60629 0.38166 0.0
H3025 H 0.32106 0.63925 0.42153 0.0
H3026 H 0.29347 0.63215 0.41493 0.0
C3027 C 0.20722 0.6021 0.38044 0.0
C3028 C 0.24633 0.62587 0.3809 0.0
H3029 H 0.28203 0.61616 0.36997 0.0
C3030 C 0.25151 0.63769 0.39144 0.0
C3031 C 0.25747 0.61841 0.37261 0.0
C3032 C 0.25269 0.60649 0.3602 0.0
C3033 C 0.2675 0.64187 0.39434 0.0
C3034 C 0.27862 0.63365 0.3869 0.0
C3035 C 0.27348 0.62224 0.3759 0.0
C3036 C 0.29562 0.63663 0.39057 0.0
C3037 C 0.27227 0.65515 0.40528 0.0
C3038 C 0.30616 0.64059 0.37891 0.0
C3039 C 0.32205 0.64434 0.38261 0.0
C3040 C 0.32758 0.64427 0.39804 0.0
C3041 C 0.31711 0.63962 0.40957 0.0
C3042 C 0.30131 0.63568 0.40583 0.0
H3043 H 0.26296 0.66305 0.40594 0.0
H3044 H 0.27428 0.65082 0.41704 0.0
H3045 H 0.28322 0.66167 0.40169 0.0
H3046 H 0.30202 0.64123 0.36702 0.0
H3047 H 0.32986 0.64788 0.37349 0.0
H3048 H 0.64692 0.09075 0.63991 0.0
H3049 H 0.65422 0.06482 0.63651 0.0
H3050 H 0.60556 0.04743 0.63699 0.0
H3051 H 0.59812 0.0734 0.64004 0.0
H3052 H 0.64913 0.04207 0.65688 0.0
H3053 H 0.62049 0.02437 0.60033 0.0
H3054 H 0.62311 0.04401 0.60693 0.0
H3055 H 0.60729 0.03135 0.61385 0.0
C3056 C 0.63773 0.08144 0.63901 0.0
C3057 C 0.62193 0.08413 0.64022 0.0
C3058 C 0.64194 0.06662 0.63711 0.0
C3059 C 0.63044 0.05419 0.63636 0.0
C3060 C 0.61461 0.05686 0.6372 0.0
H3061 H 0.63174 0.95626 0.63862 0.0
H3062 H 0.62492 0.98255 0.6398 0.0
C3063 C 0.61038 0.07172 0.63901 0.0
C3064 C 0.63512 0.03842 0.63584 0.0
H3065 H 0.63007 0.0047 0.61544 0.0
C3066 C 0.64506 0.03394 0.64775 0.0
C3067 C 0.62977 0.02781 0.62394 0.0
C3068 C 0.6197 0.03215 0.61046 0.0
C3069 C 0.64957 0.01906 0.64823 0.0
C3070 C 0.64409 0.00844 0.63643 0.0
C3071 C 0.6342 0.0129 0.6245 0.0
C3072 C 0.64846 0.99261 0.63627 0.0
C3073 C 0.65989 0.0147 0.66151 0.0
C3074 C 0.66399 0.9896 0.63393 0.0
C3075 C 0.66794 0.97458 0.63322 0.0
C3076 C 0.65643 0.96231 0.63484 0.0
C3077 C 0.64092 0.96542 0.63739 0.0
C3078 C 0.63697 0.98043 0.63801 0.0
H3079 H 0.66046 0.02318 0.67121 0.0
H3080 H 0.6556 0.00335 0.66588 0.0
H3081 H 0.67195 0.014 0.65746 0.0
H3082 H 0.67298 0.99887 0.63239 0.0
H3083 H 0.67998 0.9726 0.63119 0.0
H3084 H 0.16613 0.36573 0.87377 0.0
H3085 H 0.19329 0.3737 0.86758 0.0
H3086 H 0.20918 0.35605 0.91076 0.0
H3087 H 0.18216 0.34815 0.91713 0.0
H3088 H 0.22291 0.38568 0.90398 0.0
H3089 H 0.22597 0.34422 0.85521 0.0
H3090 H 0.20999 0.35599 0.85414 0.0
H3091 H 0.21076 0.34234 0.86918 0.0
C3092 C 0.1754 0.36357 0.88197 0.0
C3093 C 0.17198 0.35623 0.89591 0.0
C3094 C 0.19089 0.36806 0.87837 0.0
C3095 C 0.20319 0.36525 0.88863 0.0
C3096 C 0.19982 0.35823 0.90267 0.0
H3097 H 0.30257 0.36536 0.87739 0.0
H3098 H 0.27457 0.35894 0.88094 0.0
C3099 C 0.18436 0.35372 0.90627 0.0
C3100 C 0.21964 0.36965 0.88485 0.0
H3101 H 0.24823 0.36173 0.86022 0.0
C3102 C 0.22845 0.38051 0.89439 0.0
C3103 C 0.22681 0.36272 0.87242 0.0
C3104 C 0.21798 0.35057 0.86219 0.0
C3105 C 0.24432 0.38464 0.89183 0.0
C3106 C 0.25145 0.37785 0.87929 0.0
C3107 C 0.24265 0.36697 0.86975 0.0
C3108 C 0.26818 0.38158 0.87621 0.0
C3109 C 0.25343 0.39596 0.90278 0.0
C3110 C 0.27374 0.39634 0.87204 0.0
C3111 C 0.2897 0.40007 0.87002 0.0
C3112 C 0.30038 0.38905 0.87208 0.0
C3113 C 0.29468 0.37412 0.87577 0.0
C3114 C 0.27869 0.37042 0.87779 0.0
H3115 H 0.24717 0.39755 0.91364 0.0
H3116 H 0.26514 0.39223 0.90572 0.0
H3117 H 0.25519 0.40716 0.89714 0.0
H3118 H 0.26573 0.40504 0.87053 0.0
H3119 H 0.29367 0.41164 0.86707 0.0
H3120 H 0.40614 0.42195 0.63229 0.0
H3121 H 0.39687 0.44632 0.62468 0.0
H3122 H 0.3491 0.42723 0.6286 0.0
H3123 H 0.35816 0.40292 0.63617 0.0
H3124 H 0.36858 0.45256 0.59923 0.0
H3125 H 0.36189 0.46571 0.6617 0.0
H3126 H 0.37587 0.45314 0.65509 0.0
H3127 H 0.3554 0.44678 0.65455 0.0
C3128 C 0.39366 0.42285 0.63124 0.0
C3129 C 0.38289 0.41053 0.63497 0.0
C3130 C 0.3884 0.43676 0.62686 0.0
C3131 C 0.37233 0.43851 0.62614 0.0
C3132 C 0.36156 0.42604 0.62909 0.0
H3133 H 0.31564 0.51346 0.62923 0.0
H3134 H 0.32587 0.48857 0.62837 0.0
C3135 C 0.36678 0.41217 0.63345 0.0
C3136 C 0.36673 0.45369 0.62391 0.0
H3137 H 0.35273 0.48289 0.64394 0.0
C3138 C 0.36519 0.45929 0.60896 0.0
C3139 C 0.36231 0.46233 0.63666 0.0
C3140 C 0.36398 0.45681 0.65296 0.0
C3141 C 0.35893 0.47326 0.6064 0.0
C3142 C 0.35435 0.48185 0.61918 0.0
C3143 C 0.35616 0.47627 0.63414 0.0
C3144 C 0.3474 0.49655 0.61752 0.0
C3145 C 0.35683 0.47848 0.59006 0.0
C3146 C 0.35596 0.50928 0.61138 0.0
C3147 C 0.35007 0.52357 0.61176 0.0
C3148 C 0.33562 0.52538 0.61847 0.0
C3149 C 0.32683 0.51248 0.62404 0.0
C3150 C 0.33267 0.49823 0.62356 0.0
H3151 H 0.35719 0.46897 0.58152 0.0
H3152 H 0.34554 0.48354 0.58845 0.0
H3153 H 0.36643 0.48734 0.58759 0.0
H3154 H 0.36748 0.50832 0.60692 0.0
H3155 H 0.35716 0.5333 0.60746 0.0
H3156 H 0.77942 0.06989 0.1169 0.0
H3157 H 0.75282 0.0777 0.1149 0.0
H3158 H 0.7714 0.12327 0.10405 0.0
H3159 H 0.79791 0.11555 0.10568 0.0
H3160 H 0.74035 0.09951 0.13237 0.0
H3161 H 0.73772 0.1145 0.07059 0.0
H3162 H 0.75274 0.1037 0.07864 0.0
H3163 H 0.7543 0.12412 0.08096 0.0
C3164 C 0.77784 0.08152 0.11387 0.0
C3165 C 0.79082 0.09207 0.1114 0.0
C3166 C 0.76263 0.08597 0.11278 0.0
C3167 C 0.76011 0.10101 0.10913 0.0
C3168 C 0.77302 0.11151 0.10653 0.0
H3169 H 0.67954 0.15353 0.10407 0.0
H3170 H 0.70594 0.1453 0.10699 0.0
C3171 C 0.78821 0.10708 0.10755 0.0
C3172 C 0.74406 0.10597 0.10882 0.0
H3173 H 0.71761 0.12277 0.0862 0.0
C3174 C 0.73532 0.10449 0.12224 0.0
C3175 C 0.73755 0.1125 0.0956 0.0
C3176 C 0.746 0.11367 0.08059 0.0
C3177 C 0.72036 0.10963 0.12289 0.0
C3178 C 0.71396 0.11632 0.10974 0.0
C3179 C 0.72265 0.11776 0.09631 0.0
C3180 C 0.69804 0.12147 0.10946 0.0
C3181 C 0.71159 0.10812 0.13769 0.0
C3182 C 0.6849 0.1108 0.11005 0.0
C3183 C 0.66984 0.11544 0.10834 0.0
C3184 C 0.66765 0.13085 0.10601 0.0
C3185 C 0.68083 0.14159 0.10593 0.0
C3186 C 0.69592 0.13692 0.10754 0.0
H3187 H 0.71941 0.10584 0.14767 0.0
H3188 H 0.70586 0.11862 0.14024 0.0
H3189 H 0.70231 0.09848 0.13642 0.0
H3190 H 0.68631 0.0988 0.11133 0.0
H3191 H 0.65993 0.10687 0.10842 0.0
H3192 H 0.61868 0.04686 0.88175 0.0
H3193 H 0.61154 0.01924 0.88118 0.0
H3194 H 0.65716 0.01201 0.86446 0.0
H3195 H 0.66404 0.03948 0.86437 0.0
H3196 H 0.63536 0.99777 0.84663 0.0
H3197 H 0.62196 0.98423 0.90724 0.0
H3198 H 0.61086 0.99887 0.89977 0.0
H3199 H 0.63184 0.00227 0.9019 0.0
C3200 C 0.62725 0.03932 0.87825 0.0
C3201 C 0.64186 0.04526 0.873 0.0
C3202 C 0.62321 0.02354 0.87801 0.0
C3203 C 0.63386 0.01352 0.87288 0.0
C3204 C 0.64874 0.0195 0.86842 0.0
H3205 H 0.62147 0.91412 0.87308 0.0
H3206 H 0.6297 0.94105 0.87887 0.0
C3207 C 0.65265 0.0352 0.86837 0.0
C3208 C 0.6291 0.99699 0.87053 0.0
H3209 H 0.6137 0.9649 0.88815 0.0
C3210 C 0.63074 0.99058 0.85577 0.0
C3211 C 0.62321 0.98756 0.88247 0.0
C3212 C 0.62201 0.99354 0.89877 0.0
C3213 C 0.62655 0.97508 0.85257 0.0
C3214 C 0.62 0.96579 0.86429 0.0
C3215 C 0.61856 0.9721 0.87913 0.0
C3216 C 0.61455 0.94953 0.86126 0.0
C3217 C 0.62947 0.9688 0.83669 0.0
C3218 C 0.60311 0.9454 0.84965 0.0
C3219 C 0.59857 0.93007 0.84617 0.0
C3220 C 0.60515 0.91855 0.85445 0.0
C3221 C 0.61624 0.92272 0.86644 0.0
C3222 C 0.62091 0.93809 0.8698 0.0
H3223 H 0.63869 0.97605 0.83083 0.0
H3224 H 0.63306 0.95704 0.83727 0.0
H3225 H 0.61855 0.96849 0.82946 0.0
H3226 H 0.59775 0.95404 0.84319 0.0
H3227 H 0.58982 0.92727 0.83703 0.0
H3228 H 0.88734 0.07364 0.33797 0.0
H3229 H 0.87996 0.04791 0.34655 0.0
H3230 H 0.87418 0.06519 0.3927 0.0
H3231 H 0.8815 0.09123 0.38416 0.0
H3232 H 0.89602 0.033 0.37059 0.0
H3233 H 0.83303 0.03726 0.38204 0.0
H3234 H 0.84406 0.05074 0.37017 0.0
H3235 H 0.84723 0.05147 0.39073 0.0
C3236 C 0.88439 0.07207 0.34993 0.0
C3237 C 0.88504 0.08453 0.36039 0.0
C3238 C 0.88021 0.05732 0.35482 0.0
C3239 C 0.87653 0.05467 0.37024 0.0
C3240 C 0.87686 0.06704 0.38071 0.0
H3241 H 0.86798 0.95706 0.39434 0.0
H3242 H 0.87488 0.98464 0.39779 0.0
C3243 C 0.88105 0.08189 0.37581 0.0
C3244 C 0.87278 0.03879 0.37513 0.0
H3245 H 0.84225 0.01311 0.38392 0.0
C3246 C 0.88435 0.02865 0.37379 0.0
C3247 C 0.85753 0.03323 0.37926 0.0
C3248 C 0.84466 0.04366 0.38059 0.0
C3249 C 0.88088 0.01294 0.37566 0.0
C3250 C 0.86546 0.00728 0.37919 0.0
C3251 C 0.85408 0.01752 0.38132 0.0
C3252 C 0.86039 0.99075 0.37843 0.0
C3253 C 0.89345 0.00244 0.37285 0.0
C3254 C 0.84965 0.98513 0.36671 0.0
C3255 C 0.84568 0.96951 0.36475 0.0
C3256 C 0.85235 0.95913 0.3745 0.0
C3257 C 0.86273 0.96478 0.38659 0.0
C3258 C 0.86671 0.9805 0.38855 0.0
H3259 H 0.90407 0.00849 0.36797 0.0
H3260 H 0.89693 0.99741 0.38393 0.0
H3261 H 0.889 0.99296 0.36479 0.0
H3262 H 0.84465 0.99284 0.35876 0.0
H3263 H 0.83758 0.96558 0.35538 0.0
H3264 H 0.39327 0.27731 0.08375 0.0
H3265 H 0.38997 0.25117 0.09222 0.0
H3266 H 0.34514 0.25881 0.11061 0.0
H3267 H 0.34881 0.28554 0.10275 0.0
H3268 H 0.36046 0.2434 0.13026 0.0
H3269 H 0.36475 0.21538 0.07359 0.0
H3270 H 0.38174 0.22855 0.07689 0.0
H3271 H 0.36261 0.23547 0.07547 0.0
C3272 C 0.38259 0.27343 0.08941 0.0
C3273 C 0.37121 0.28346 0.09243 0.0
C3274 C 0.38065 0.25839 0.09416 0.0
C3275 C 0.36709 0.25282 0.10166 0.0
C3276 C 0.35564 0.26279 0.10469 0.0
H3277 H 0.36877 0.15499 0.11442 0.0
H3278 H 0.35854 0.17899 0.10742 0.0
C3279 C 0.35771 0.27803 0.10017 0.0
C3280 C 0.36555 0.23682 0.10699 0.0
H3281 H 0.37278 0.20101 0.09571 0.0
C3282 C 0.36281 0.23404 0.12264 0.0
C3283 C 0.36809 0.22445 0.09703 0.0
C3284 C 0.36926 0.22612 0.07979 0.0
C3285 C 0.36366 0.21947 0.12876 0.0
C3286 C 0.36806 0.20752 0.11913 0.0
C3287 C 0.36972 0.21012 0.10328 0.0
C3288 C 0.372 0.19257 0.1252 0.0
C3289 C 0.35982 0.21716 0.14548 0.0
C3290 C 0.38261 0.19198 0.13783 0.0
C3291 C 0.38798 0.17814 0.14219 0.0
C3292 C 0.38334 0.16474 0.13361 0.0
C3293 C 0.37251 0.1652 0.12121 0.0
C3294 C 0.36672 0.17893 0.11718 0.0
H3295 H 0.35077 0.22462 0.14904 0.0
H3296 H 0.35551 0.20516 0.14768 0.0
H3297 H 0.37047 0.22037 0.15284 0.0
H3298 H 0.38739 0.2023 0.1439 0.0
H3299 H 0.39653 0.17809 0.15165 0.0
H3300 H 0.58089 0.63605 0.88058 0.0
H3301 H 0.55374 0.63229 0.87066 0.0
H3302 H 0.54642 0.67789 0.88573 0.0
H3303 H 0.57347 0.68184 0.89551 0.0
H3304 H 0.5273 0.63389 0.88828 0.0
H3305 H 0.52839 0.67582 0.84134 0.0
H3306 H 0.54599 0.66933 0.84985 0.0
H3307 H 0.53617 0.68373 0.85954 0.0
C3308 C 0.57357 0.64535 0.8816 0.0
C3309 C 0.57936 0.65925 0.88884 0.0
C3310 C 0.55806 0.64317 0.87594 0.0
C3311 C 0.54815 0.65488 0.87729 0.0
C3312 C 0.55397 0.66882 0.88429 0.0
H3313 H 0.44719 0.64763 0.87923 0.0
H3314 H 0.47537 0.65227 0.88478 0.0
C3315 C 0.56942 0.67101 0.88997 0.0
C3316 C 0.53143 0.65222 0.8724 0.0
H3317 H 0.50315 0.66584 0.84939 0.0
C3318 C 0.52203 0.64079 0.87969 0.0
C3319 C 0.52464 0.66116 0.8611 0.0
C3320 C 0.53434 0.6731 0.85238 0.0
C3321 C 0.50591 0.63832 0.87628 0.0
C3322 C 0.499 0.64769 0.86547 0.0
C3323 C 0.50847 0.65883 0.85784 0.0
C3324 C 0.48197 0.64592 0.86182 0.0
C3325 C 0.49641 0.62563 0.8842 0.0
C3326 C 0.4764 0.64137 0.84692 0.0
C3327 C 0.46032 0.63877 0.84367 0.0
C3328 C 0.44952 0.64075 0.85527 0.0
C3329 C 0.45517 0.6459 0.87005 0.0
C3330 C 0.47126 0.64848 0.87328 0.0
H3331 H 0.50394 0.61725 0.88918 0.0
H3332 H 0.49005 0.63054 0.89377 0.0
H3333 H 0.48763 0.61954 0.87604 0.0
H3334 H 0.4845 0.63943 0.8379 0.0
H3335 H 0.45638 0.63488 0.83215 0.0
H3336 H 0.14644 0.70662 0.62245 0.0
H3337 H 0.15083 0.73236 0.63417 0.0
H3338 H 0.12847 0.75065 0.59435 0.0
H3339 H 0.12393 0.72514 0.58268 0.0
H3340 H 0.15878 0.76822 0.6089 0.0
H3341 H 0.10969 0.75308 0.64823 0.0
H3342 H 0.12495 0.74053 0.6462 0.0
H3343 H 0.11141 0.74254 0.63038 0.0
C3344 C 0.14278 0.71619 0.61607 0.0
C3345 C 0.13473 0.71387 0.60171 0.0
C3346 C 0.14525 0.73084 0.62279 0.0
C3347 C 0.13988 0.74333 0.61514 0.0
C3348 C 0.13271 0.74114 0.60042 0.0
H3349 H 0.11857 0.83321 0.61476 0.0
H3350 H 0.12909 0.80884 0.61075 0.0
C3351 C 0.13009 0.72654 0.59379 0.0
C3352 C 0.14021 0.75849 0.62281 0.0
H3353 H 0.11847 0.7789 0.64641 0.0
C3354 C 0.15022 0.77056 0.61736 0.0
C3355 C 0.12912 0.76144 0.63393 0.0
C3356 C 0.11811 0.74879 0.64009 0.0
C3357 C 0.14889 0.78567 0.6222 0.0
C3358 C 0.1369 0.78877 0.63235 0.0
C3359 C 0.12761 0.77656 0.63858 0.0
C3360 C 0.13241 0.80444 0.63508 0.0
C3361 C 0.1601 0.79816 0.61609 0.0
C3362 C 0.13053 0.81009 0.65012 0.0
C3363 C 0.12426 0.82403 0.65246 0.0
C3364 C 0.11968 0.83251 0.63979 0.0
C3365 C 0.12203 0.82702 0.62478 0.0
C3366 C 0.12822 0.81312 0.62246 0.0
H3367 H 0.17164 0.79394 0.61386 0.0
H3368 H 0.15534 0.80204 0.60494 0.0
H3369 H 0.1619 0.80808 0.62426 0.0
H3370 H 0.13354 0.80352 0.66003 0.0
H3371 H 0.12258 0.82793 0.66417 0.0
H3372 H 0.03297 0.36798 0.32069 0.0
H3373 H 0.00484 0.36491 0.32523 0.0
H3374 H 0.01436 0.35347 0.37251 0.0
H3375 H 0.04245 0.35657 0.36819 0.0
H3376 H 0.98511 0.33944 0.33648 0.0
H3377 H 0.98793 0.3905 0.37527 0.0
H3378 H 0.0035 0.38683 0.36256 0.0
H3379 H 0.00158 0.37709 0.38054 0.0
C3380 C 0.02909 0.36469 0.33204 0.0
C3381 C 0.03998 0.36265 0.34412 0.0
C3382 C 0.01302 0.36295 0.33458 0.0
C3383 C 0.00759 0.35924 0.34926 0.0
C3384 C 0.01837 0.35662 0.36117 0.0
H3385 H 0.92002 0.32598 0.38491 0.0
H3386 H 0.94552 0.32949 0.3732 0.0
C3387 C 0.03442 0.35832 0.35865 0.0
C3388 C 0.99068 0.35842 0.35232 0.0
H3389 H 0.96432 0.37395 0.37507 0.0
C3390 C 0.9805 0.34706 0.34479 0.0
C3391 C 0.98468 0.36859 0.36294 0.0
C3392 C 0.99494 0.38154 0.3707 0.0
C3393 C 0.96455 0.34514 0.34818 0.0
C3394 C 0.95875 0.35473 0.3595 0.0
C3395 C 0.96881 0.36654 0.36647 0.0
C3396 C 0.94261 0.35214 0.36509 0.0
C3397 C 0.95407 0.33282 0.3397 0.0
C3398 C 0.93253 0.36378 0.36453 0.0
C3399 C 0.91792 0.36185 0.37133 0.0
C3400 C 0.91323 0.34831 0.37894 0.0
C3401 C 0.92324 0.33656 0.37915 0.0
C3402 C 0.93779 0.33848 0.37233 0.0
H3403 H 0.9589 0.32981 0.32841 0.0
H3404 H 0.95313 0.32241 0.34674 0.0
H3405 H 0.94211 0.33636 0.33767 0.0
H3406 H 0.9361 0.37445 0.35909 0.0
H3407 H 0.91051 0.37113 0.37097 0.0
H3408 H 0.36808 0.83599 0.37643 0.0
H3409 H 0.36336 0.81092 0.38811 0.0
H3410 H 0.4117 0.80318 0.38225 0.0
H3411 H 0.41659 0.82812 0.37086 0.0
H3412 H 0.3667 0.78356 0.37385 0.0
H3413 H 0.40512 0.7901 0.42638 0.0
H3414 H 0.39957 0.80621 0.41562 0.0
H3415 H 0.41544 0.79582 0.40944 0.0
C3416 C 0.37776 0.82904 0.37786 0.0
C3417 C 0.39271 0.83407 0.37269 0.0
C3418 C 0.37503 0.81473 0.38453 0.0
C3419 C 0.38724 0.80529 0.38627 0.0
C3420 C 0.4022 0.81041 0.38138 0.0
H3421 H 0.38747 0.7089 0.38303 0.0
H3422 H 0.38867 0.73629 0.37898 0.0
C3423 C 0.40494 0.82465 0.37473 0.0
C3424 C 0.38418 0.78954 0.39186 0.0
H3425 H 0.39796 0.7643 0.41711 0.0
C3426 C 0.37334 0.7794 0.38347 0.0
C3427 C 0.39269 0.78416 0.40454 0.0
C3428 C 0.40373 0.79469 0.41461 0.0
C3429 C 0.37143 0.76387 0.38689 0.0
C3430 C 0.3808 0.75829 0.39882 0.0
C3431 C 0.39098 0.76856 0.40779 0.0
C3432 C 0.38067 0.74178 0.40167 0.0
C3433 C 0.35951 0.75353 0.37755 0.0
C3434 C 0.37639 0.73585 0.41601 0.0
C3435 C 0.37581 0.72016 0.41843 0.0
C3436 C 0.37958 0.71015 0.40656 0.0
C3437 C 0.38437 0.71624 0.39239 0.0
C3438 C 0.38496 0.73189 0.39001 0.0
H3439 H 0.35028 0.76 0.37228 0.0
H3440 H 0.36544 0.74801 0.36805 0.0
H3441 H 0.35385 0.74446 0.38478 0.0
H3442 H 0.37318 0.74333 0.42522 0.0
H3443 H 0.37211 0.71586 0.42949 0.0
H3444 H 0.04696 0.60439 0.12057 0.0
H3445 H 0.02046 0.60031 0.10863 0.0
H3446 H 0.00164 0.62023 0.14902 0.0
H3447 H 0.02786 0.62443 0.16088 0.0
H3448 H 0.98375 0.59145 0.134 0.0
H3449 H 0.99867 0.6403 0.09538 0.0
H3450 H 0.01143 0.62526 0.09699 0.0
H3451 H 0.00994 0.63815 0.113 0.0
C3452 C 0.03711 0.60759 0.127 0.0
C3453 C 0.03946 0.61485 0.14159 0.0
C3454 C 0.02203 0.6053 0.12015 0.0
C3455 C 0.00918 0.61006 0.12794 0.0
C3456 C 0.01143 0.61646 0.14285 0.0
H3457 H 0.91943 0.63358 0.13369 0.0
H3458 H 0.94397 0.62194 0.13548 0.0
C3459 C 0.02643 0.61891 0.14958 0.0
C3460 C 0.99353 0.60991 0.12032 0.0
H3461 H 0.97211 0.63251 0.09827 0.0
C3462 C 0.9812 0.60015 0.12586 0.0
C3463 C 0.99028 0.62117 0.10961 0.0
C3464 C 0.00321 0.63189 0.10333 0.0
C3465 C 0.96557 0.60203 0.12172 0.0
C3466 C 0.96224 0.61426 0.11219 0.0
C3467 C 0.97465 0.62319 0.10565 0.0
C3468 C 0.94632 0.61945 0.11077 0.0
C3469 C 0.95278 0.59122 0.12805 0.0
C3470 C 0.9395 0.62218 0.09626 0.0
C3471 C 0.92546 0.62907 0.09519 0.0
C3472 C 0.9181 0.63345 0.10864 0.0
C3473 C 0.92475 0.63031 0.12311 0.0
C3474 C 0.93873 0.62348 0.12416 0.0
H3475 H 0.9568 0.57971 0.12956 0.0
H3476 H 0.94968 0.59547 0.13959 0.0
H3477 H 0.94211 0.5902 0.12039 0.0
H3478 H 0.94525 0.61933 0.08578 0.0
H3479 H 0.92064 0.63135 0.08387 0.0
H3480 H 0.11645 0.28629 0.91632 0.0
H3481 H 0.11156 0.25945 0.90863 0.0
H3482 H 0.10276 0.27211 0.86157 0.0
H3483 H 0.10783 0.29907 0.86909 0.0
H3484 H 0.08524 0.24312 0.89456 0.0
H3485 H 0.13727 0.243 0.85802 0.0
H3486 H 0.13464 0.25832 0.87153 0.0
H3487 H 0.1243 0.25715 0.85313 0.0
C3488 C 0.11341 0.28341 0.90433 0.0
C3489 C 0.11266 0.29485 0.89329 0.0
C3490 C 0.11061 0.26805 0.89997 0.0
C3491 C 0.10707 0.26381 0.8845 0.0
C3492 C 0.10579 0.27517 0.87352 0.0
H3493 H 0.07024 0.17544 0.84768 0.0
H3494 H 0.07432 0.20193 0.85669 0.0
C3495 C 0.10859 0.29056 0.87787 0.0
C3496 C 0.10488 0.24748 0.87988 0.0
H3497 H 0.11973 0.22052 0.85729 0.0
C3498 C 0.09278 0.23816 0.88643 0.0
C3499 C 0.11492 0.24101 0.86948 0.0
C3500 C 0.12861 0.25033 0.86272 0.0
C3501 C 0.09025 0.22256 0.88262 0.0
C3502 C 0.09996 0.21621 0.87182 0.0
C3503 C 0.11224 0.22547 0.86549 0.0
C3504 C 0.09742 0.20002 0.86672 0.0
C3505 C 0.07734 0.21298 0.89033 0.0
C3506 C 0.1092 0.19022 0.86912 0.0
C3507 C 0.10695 0.17504 0.8639 0.0
C3508 C 0.09291 0.16943 0.85609 0.0
C3509 C 0.08116 0.17933 0.85371 0.0
C3510 C 0.08343 0.19447 0.85893 0.0
H3511 H 0.07388 0.21851 0.90116 0.0
H3512 H 0.0669 0.21143 0.8824 0.0
H3513 H 0.08097 0.20155 0.89305 0.0
H3514 H 0.12012 0.19433 0.87504 0.0
H3515 H 0.11625 0.16774 0.86589 0.0
H3516 H 0.58271 0.36737 0.58887 0.0
H3517 H 0.55871 0.37929 0.59408 0.0
H3518 H 0.56495 0.37085 0.64265 0.0
H3519 H 0.58904 0.35932 0.63762 0.0
H3520 H 0.53301 0.36512 0.60541 0.0
H3521 H 0.55279 0.41365 0.64455 0.0
H3522 H 0.56624 0.40388 0.63324 0.0
H3523 H 0.55985 0.39646 0.65147 0.0
C3524 C 0.57912 0.36832 0.6007 0.0
C3525 C 0.58776 0.36238 0.61284 0.0
C3526 C 0.56542 0.37516 0.60365 0.0
C3527 C 0.56015 0.37622 0.61878 0.0
C3528 C 0.56899 0.3706 0.63094 0.0
H3529 H 0.47952 0.3738 0.66867 0.0
H3530 H 0.50572 0.3767 0.65837 0.0
C3531 C 0.58271 0.36386 0.62802 0.0
C3532 C 0.54458 0.38148 0.62177 0.0
H3533 H 0.52561 0.40327 0.64671 0.0
C3534 C 0.5314 0.37377 0.61414 0.0
C3535 C 0.54247 0.39281 0.63311 0.0
C3536 C 0.55613 0.40227 0.64092 0.0
C3537 C 0.51618 0.37623 0.61838 0.0
C3538 C 0.51413 0.38677 0.63047 0.0
C3539 C 0.52725 0.39516 0.63746 0.0
C3540 C 0.49869 0.3875 0.63742 0.0
C3541 C 0.50244 0.36679 0.61064 0.0
C3542 C 0.48615 0.39311 0.62925 0.0
C3543 C 0.47108 0.39152 0.63516 0.0
C3544 C 0.4684 0.38418 0.64924 0.0
C3545 C 0.48118 0.37939 0.65774 0.0
C3546 C 0.49618 0.38108 0.65191 0.0
H3547 H 0.50617 0.35803 0.60251 0.0
H3548 H 0.49501 0.36099 0.61944 0.0
H3549 H 0.49514 0.37434 0.60408 0.0
H3550 H 0.48792 0.39818 0.61808 0.0
H3551 H 0.46145 0.39532 0.62836 0.0
H3552 H 0.09394 0.39753 0.27829 0.0
H3553 H 0.105 0.39675 0.25283 0.0
H3554 H 0.12121 0.3529 0.26226 0.0
H3555 H 0.11065 0.35394 0.28829 0.0
H3556 H 0.14289 0.3702 0.2477 0.0
H3557 H 0.08658 0.37289 0.21617 0.0
H3558 H 0.08986 0.38873 0.22948 0.0
H3559 H 0.08768 0.36958 0.23663 0.0
C3560 C 0.09977 0.38766 0.27496 0.0
C3561 C 0.10125 0.3757 0.28522 0.0
C3562 C 0.10602 0.38719 0.26033 0.0
C3563 C 0.11351 0.37456 0.25541 0.0
C3564 C 0.1153 0.36269 0.26573 0.0
H3565 H 0.12983 0.37833 0.15676 0.0
H3566 H 0.12216 0.36782 0.18161 0.0
C3567 C 0.10926 0.36328 0.28057 0.0
C3568 C 0.11966 0.37414 0.23959 0.0
H3569 H 0.10968 0.38147 0.20231 0.0
C3570 C 0.13559 0.37238 0.2377 0.0
C3571 C 0.11008 0.37649 0.22644 0.0
C3572 C 0.09257 0.37684 0.22728 0.0
C3573 C 0.14237 0.37389 0.22316 0.0
C3574 C 0.13309 0.37785 0.21031 0.0
C3575 C 0.11697 0.37868 0.21211 0.0
C3576 C 0.13975 0.38205 0.19512 0.0
C3577 C 0.15936 0.37117 0.22183 0.0
C3578 C 0.15255 0.39318 0.19425 0.0
C3579 C 0.15727 0.3988 0.17996 0.0
C3580 C 0.14891 0.39379 0.16636 0.0
C3581 C 0.13643 0.38238 0.16713 0.0
C3582 C 0.13204 0.37641 0.18134 0.0
H3583 H 0.16272 0.3626 0.23024 0.0
H3584 H 0.16195 0.36716 0.21004 0.0
H3585 H 0.16677 0.38195 0.22458 0.0
H3586 H 0.1584 0.39815 0.20464 0.0
H3587 H 0.1668 0.40776 0.17966 0.0
H3588 H 0.36787 0.35868 0.91295 0.0
H3589 H 0.37235 0.35438 0.94041 0.0
H3590 H 0.3715 0.40242 0.95018 0.0
H3591 H 0.36681 0.40685 0.92266 0.0
H3592 H 0.39574 0.3666 0.96227 0.0
H3593 H 0.33639 0.38209 0.97645 0.0
H3594 H 0.3419 0.3784 0.9569 0.0
H3595 H 0.34844 0.39624 0.96644 0.0
C3596 C 0.36881 0.36839 0.92089 0.0
C3597 C 0.36682 0.3831 0.91564 0.0
C3598 C 0.37139 0.36589 0.93659 0.0
C3599 C 0.37197 0.37804 0.94733 0.0
C3600 C 0.37079 0.39286 0.94208 0.0
H3601 H 0.3737 0.37655 0.04805 0.0
H3602 H 0.37362 0.3845 0.02117 0.0
C3603 C 0.36822 0.39538 0.92635 0.0
C3604 C 0.37308 0.37495 0.96406 0.0
H3605 H 0.35247 0.37516 0.99714 0.0
C3606 C 0.38633 0.36853 0.96992 0.0
C3607 C 0.36075 0.37746 0.97398 0.0
C3608 C 0.34599 0.38381 0.96816 0.0
C3609 C 0.38757 0.36453 0.98549 0.0
C3610 C 0.3751 0.36676 0.99534 0.0
C3611 C 0.362 0.37345 0.98954 0.0
C3612 C 0.37523 0.36188 0.01161 0.0
C3613 C 0.40227 0.35807 0.99128 0.0
C3614 C 0.37585 0.34647 0.01513 0.0
C3615 C 0.37589 0.34187 0.03047 0.0
C3616 C 0.3752 0.35259 0.04261 0.0
C3617 C 0.37427 0.36799 0.03901 0.0
C3618 C 0.37425 0.37257 0.02365 0.0
H3619 H 0.41224 0.36104 0.98367 0.0
H3620 H 0.40562 0.36229 0.00319 0.0
H3621 H 0.40018 0.34546 0.99146 0.0
H3622 H 0.37624 0.33798 0.00598 0.0
H3623 H 0.37653 0.32992 0.03281 0.0
H3624 H 0.33179 0.57356 0.67843 0.0
H3625 H 0.34079 0.58142 0.70461 0.0
H3626 H 0.37722 0.61239 0.68629 0.0
H3627 H 0.368 0.60492 0.66001 0.0
H3628 H 0.36808 0.57913 0.71928 0.0
H3629 H 0.35776 0.64011 0.71615 0.0
H3630 H 0.35024 0.6262 0.70159 0.0
H3631 H 0.37029 0.63426 0.70142 0.0
C3632 C 0.34172 0.58206 0.67994 0.0
C3633 C 0.34913 0.58867 0.66712 0.0
C3634 C 0.34683 0.58656 0.69493 0.0
C3635 C 0.35947 0.59773 0.69742 0.0
C3636 C 0.36715 0.60408 0.68465 0.0
H3637 H 0.41398 0.60988 0.7829 0.0
H3638 H 0.40449 0.60522 0.75625 0.0
C3639 C 0.36196 0.59969 0.66964 0.0
C3640 C 0.3649 0.60228 0.7134 0.0
H3641 H 0.37254 0.6329 0.73815 0.0
C3642 C 0.36898 0.59088 0.72342 0.0
C3643 C 0.36582 0.61759 0.71887 0.0
C3644 C 0.36064 0.63022 0.709 0.0
C3645 C 0.37422 0.59437 0.73866 0.0
C3646 C 0.37587 0.60976 0.74391 0.0
C3647 C 0.37148 0.62114 0.73403 0.0
C3648 C 0.38219 0.61415 0.75963 0.0
C3649 C 0.3777 0.58147 0.74906 0.0
C3650 C 0.37316 0.62154 0.77016 0.0
C3651 C 0.37868 0.62447 0.78541 0.0
C3652 C 0.39328 0.61998 0.79031 0.0
C3653 C 0.40258 0.61328 0.77952 0.0
C3654 C 0.39715 0.61052 0.7643 0.0
H3655 H 0.37153 0.57044 0.74487 0.0
H3656 H 0.39045 0.58029 0.74924 0.0
H3657 H 0.37421 0.58368 0.76107 0.0
H3658 H 0.36163 0.62456 0.76673 0.0
H3659 H 0.37127 0.62967 0.79347 0.0
H3660 H 0.12216 0.6241 0.5477 0.0
H3661 H 0.12256 0.61764 0.52015 0.0
H3662 H 0.12048 0.66493 0.50923 0.0
H3663 H 0.1203 0.67156 0.53674 0.0
H3664 H 0.10101 0.62228 0.49596 0.0
H3665 H 0.15916 0.65346 0.48684 0.0
H3666 H 0.15207 0.64922 0.50582 0.0
H3667 H 0.14532 0.66489 0.49536 0.0
C3668 C 0.1218 0.63315 0.53945 0.0
C3669 C 0.12133 0.64838 0.54444 0.0
C3670 C 0.12199 0.62941 0.52371 0.0
C3671 C 0.12177 0.64083 0.51268 0.0
C3672 C 0.12095 0.65599 0.51758 0.0
H3673 H 0.12827 0.64354 0.41355 0.0
H3674 H 0.12325 0.64877 0.44062 0.0
C3675 C 0.1208 0.65974 0.53331 0.0
C3676 C 0.12258 0.63691 0.49605 0.0
H3677 H 0.14478 0.6437 0.46448 0.0
C3678 C 0.11059 0.62691 0.48906 0.0
C3679 C 0.13513 0.64293 0.48712 0.0
C3680 C 0.14874 0.65311 0.49416 0.0
C3681 C 0.11066 0.62303 0.47326 0.0
C3682 C 0.12315 0.62917 0.46433 0.0
C3683 C 0.13516 0.63909 0.47135 0.0
C3684 C 0.12418 0.62546 0.44767 0.0
C3685 C 0.09726 0.61265 0.46618 0.0
C3686 C 0.12611 0.61055 0.44262 0.0
C3687 C 0.12898 0.60751 0.42711 0.0
C3688 C 0.13007 0.61935 0.41644 0.0
C3689 C 0.12753 0.63416 0.42146 0.0
C3690 C 0.12467 0.63718 0.43693 0.0
H3691 H 0.0869 0.61188 0.4736 0.0
H3692 H 0.09374 0.61665 0.45463 0.0
H3693 H 0.10102 0.60102 0.4647 0.0
H3694 H 0.12604 0.60139 0.45078 0.0
H3695 H 0.13095 0.596 0.42362 0.0
H3696 H 0.07685 0.62463 0.20751 0.0
H3697 H 0.08001 0.62228 0.23548 0.0
H3698 H 0.12976 0.62099 0.23101 0.0
H3699 H 0.1268 0.62357 0.20308 0.0
H3700 H 0.09154 0.599 0.2516 0.0
H3701 H 0.1275 0.65349 0.26471 0.0
H3702 H 0.11698 0.64961 0.24648 0.0
H3703 H 0.1356 0.64228 0.25001 0.0
C3704 C 0.08849 0.62396 0.21248 0.0
C3705 C 0.10159 0.62435 0.20305 0.0
C3706 C 0.09026 0.62261 0.22846 0.0
C3707 C 0.10514 0.6217 0.23533 0.0
C3708 C 0.11822 0.62203 0.22597 0.0
H3709 H 0.13444 0.58431 0.32021 0.0
H3710 H 0.12516 0.58906 0.29405 0.0
C3711 C 0.11648 0.62341 0.20999 0.0
C3712 C 0.10695 0.61977 0.2522 0.0
H3713 H 0.12694 0.6348 0.28443 0.0
C3714 C 0.09914 0.60691 0.25883 0.0
C3715 C 0.11663 0.63025 0.26165 0.0
C3716 C 0.12453 0.64477 0.25539 0.0
C3717 C 0.10131 0.60389 0.27455 0.0
C3718 C 0.11177 0.61387 0.28378 0.0
C3719 C 0.11903 0.62708 0.2773 0.0
C3720 C 0.11606 0.61043 0.29994 0.0
C3721 C 0.09242 0.59002 0.2811 0.0
C3722 C 0.11416 0.62094 0.31194 0.0
C3723 C 0.11959 0.61832 0.32694 0.0
C3724 C 0.12712 0.60518 0.33017 0.0
C3725 C 0.12865 0.59452 0.31817 0.0
C3726 C 0.12325 0.59716 0.30319 0.0
H3727 H 0.08153 0.58651 0.27416 0.0
H3728 H 0.09985 0.58039 0.28087 0.0
H3729 H 0.08929 0.59214 0.29324 0.0
H3730 H 0.10872 0.6313 0.30963 0.0
H3731 H 0.11822 0.62677 0.33591 0.0
H3732 H 0.17259 0.41634 0.0684 0.0
H3733 H 0.16428 0.40555 0.04299 0.0
H3734 H 0.13081 0.37342 0.0641 0.0
H3735 H 0.13875 0.38442 0.08958 0.0
H3736 H 0.16601 0.37733 0.03208 0.0
H3737 H 0.10395 0.38998 0.03047 0.0
H3738 H 0.11809 0.39841 0.04474 0.0
H3739 H 0.10911 0.37934 0.047 0.0
C3740 C 0.16341 0.40702 0.06765 0.0
C3741 C 0.1563 0.40126 0.08102 0.0
C3742 C 0.15865 0.40089 0.05311 0.0
C3743 C 0.14674 0.38886 0.05162 0.0
C3744 C 0.13973 0.38296 0.06494 0.0
H3745 H 0.13549 0.32845 0.97141 0.0
H3746 H 0.13854 0.33932 0.99758 0.0
C3747 C 0.14438 0.38919 0.0795 0.0
C3748 C 0.1423 0.38201 0.03616 0.0
H3749 H 0.11148 0.37326 0.01064 0.0
C3750 C 0.1541 0.3765 0.02738 0.0
C3751 C 0.12678 0.38112 0.02996 0.0
C3752 C 0.11378 0.38766 0.03845 0.0
C3753 C 0.1508 0.36995 0.01264 0.0
C3754 C 0.13518 0.36847 0.00669 0.0
C3755 C 0.12339 0.37421 0.01534 0.0
C3756 C 0.13104 0.36121 0.99139 0.0
C3757 C 0.16417 0.36496 0.00347 0.0
C3758 C 0.12488 0.36961 0.97943 0.0
C3759 C 0.12288 0.36333 0.96446 0.0
C3760 C 0.12711 0.3486 0.96127 0.0
C3761 C 0.13233 0.33991 0.97348 0.0
C3762 C 0.13416 0.34612 0.98843 0.0
H3763 H 0.17563 0.37064 0.00777 0.0
H3764 H 0.16459 0.35248 0.00456 0.0
H3765 H 0.16262 0.36748 0.99104 0.0
H3766 H 0.12228 0.38124 0.98153 0.0
H3767 H 0.1188 0.37028 0.95528 0.0
H3768 H 0.36648 0.41625 0.8205 0.0
H3769 H 0.37679 0.4114 0.79519 0.0
H3770 H 0.38908 0.3675 0.80988 0.0
H3771 H 0.37849 0.37213 0.83532 0.0
H3772 H 0.40618 0.40491 0.78582 0.0
H3773 H 0.36057 0.35716 0.77153 0.0
H3774 H 0.35927 0.36995 0.78785 0.0
H3775 H 0.37222 0.35512 0.78882 0.0
C3776 C 0.37145 0.40558 0.81844 0.0
C3777 C 0.3715 0.3945 0.82991 0.0
C3778 C 0.37738 0.40285 0.80395 0.0
C3779 C 0.38347 0.38901 0.80059 0.0
C3780 C 0.38415 0.37815 0.81217 0.0
H3781 H 0.42817 0.37501 0.71217 0.0
H3782 H 0.42362 0.37712 0.73982 0.0
C3783 C 0.37818 0.38085 0.82672 0.0
C3784 C 0.38847 0.3859 0.78473 0.0
H3785 H 0.37877 0.36377 0.75248 0.0
C3786 C 0.40031 0.39583 0.77855 0.0
C3787 C 0.38063 0.37415 0.77526 0.0
C3788 C 0.36738 0.36353 0.7811 0.0
C3789 C 0.40432 0.39453 0.76303 0.0
C3790 C 0.39643 0.38283 0.75354 0.0
C3791 C 0.38483 0.37269 0.75982 0.0
C3792 C 0.39933 0.38144 0.73684 0.0
C3793 C 0.41649 0.40608 0.75676 0.0
C3794 C 0.38709 0.38286 0.72601 0.0
C3795 C 0.38959 0.38155 0.71022 0.0
C3796 C 0.40441 0.37876 0.70494 0.0
C3797 C 0.41665 0.37728 0.71583 0.0
C3798 C 0.4141 0.37854 0.73165 0.0
H3799 H 0.41885 0.41624 0.76455 0.0
H3800 H 0.42762 0.40078 0.75553 0.0
H3801 H 0.41275 0.40988 0.7452 0.0
H3802 H 0.37559 0.38508 0.72979 0.0
H3803 H 0.3799 0.38272 0.70217 0.0
H3804 H 0.35467 0.65695 0.47464 0.0
H3805 H 0.35759 0.64547 0.49968 0.0
H3806 H 0.40106 0.62904 0.4862 0.0
H3807 H 0.39788 0.64014 0.46059 0.0
H3808 H 0.38369 0.60751 0.50093 0.0
H3809 H 0.38546 0.66076 0.53535 0.0
H3810 H 0.36826 0.65902 0.52298 0.0
H3811 H 0.38736 0.66072 0.51468 0.0
C3812 C 0.36496 0.65103 0.47698 0.0
C3813 C 0.37614 0.6496 0.46567 0.0
C3814 C 0.36666 0.64454 0.49139 0.0
C3815 C 0.37976 0.63675 0.49501 0.0
C3816 C 0.39094 0.63516 0.48371 0.0
H3817 H 0.37813 0.61522 0.59261 0.0
H3818 H 0.38932 0.62342 0.56818 0.0
C3819 C 0.38914 0.64152 0.46913 0.0
C3820 C 0.3812 0.62988 0.51044 0.0
H3821 H 0.37601 0.63774 0.54845 0.0
C3822 C 0.38235 0.61414 0.5114 0.0
C3823 C 0.37998 0.63856 0.52417 0.0
C3824 C 0.38039 0.65572 0.52424 0.0
C3825 C 0.38113 0.60671 0.52559 0.0
C3826 C 0.37808 0.61517 0.53906 0.0
C3827 C 0.37807 0.63108 0.53819 0.0
C3828 C 0.37366 0.6079 0.5539 0.0
C3829 C 0.38307 0.5899 0.52589 0.0
C3830 C 0.36153 0.596 0.55417 0.0
C3831 C 0.35552 0.59094 0.5682 0.0
C3832 C 0.36114 0.59808 0.58215 0.0
C3833 C 0.3736 0.60957 0.58197 0.0
C3834 C 0.37996 0.61427 0.568 0.0
H3835 H 0.3915 0.58679 0.51716 0.0
H3836 H 0.38725 0.58639 0.53742 0.0
H3837 H 0.37166 0.58336 0.52289 0.0
H3838 H 0.35603 0.5912 0.54355 0.0
H3839 H 0.34575 0.58221 0.56805 0.0
H3840 H 0.15793 0.11458 0.38708 0.0
H3841 H 0.18306 0.10697 0.37908 0.0
H3842 H 0.19892 0.15389 0.37067 0.0
H3843 H 0.17386 0.1617 0.37925 0.0
H3844 H 0.19923 0.10922 0.35313 0.0
H3845 H 0.23252 0.14271 0.40046 0.0
H3846 H 0.21144 0.14006 0.39958 0.0
H3847 H 0.22172 0.15382 0.38757 0.0
C3848 C 0.1667 0.12331 0.38344 0.0
C3849 C 0.16395 0.13878 0.38398 0.0
C3850 C 0.18109 0.11892 0.37884 0.0
C3851 C 0.19303 0.12987 0.37457 0.0
C3852 C 0.19005 0.14527 0.37431 0.0
H3853 H 0.2905 0.11259 0.35756 0.0
H3854 H 0.26556 0.12403 0.35544 0.0
C3855 C 0.17568 0.14971 0.37911 0.0
C3856 C 0.20869 0.12503 0.37108 0.0
H3857 H 0.24696 0.12846 0.38385 0.0
C3858 C 0.20969 0.11354 0.35976 0.0
C3859 C 0.22237 0.13063 0.37976 0.0
C3860 C 0.22201 0.14238 0.39261 0.0
C3861 C 0.22384 0.10725 0.35719 0.0
C3862 C 0.23734 0.1126 0.36612 0.0
C3863 C 0.23656 0.12448 0.37697 0.0
C3864 C 0.252 0.10504 0.36555 0.0
C3865 C 0.22425 0.09471 0.34518 0.0
C3866 C 0.25256 0.09055 0.37181 0.0
C3867 C 0.26676 0.08408 0.37321 0.0
C3868 C 0.28066 0.09195 0.36826 0.0
C3869 C 0.27997 0.10621 0.36139 0.0
C3870 C 0.26576 0.11277 0.36019 0.0
H3871 H 0.21397 0.09418 0.33701 0.0
H3872 H 0.23512 0.09634 0.33854 0.0
H3873 H 0.22416 0.08361 0.35101 0.0
H3874 H 0.24209 0.08449 0.37618 0.0
H3875 H 0.2669 0.07308 0.37855 0.0
H3876 H 0.80421 0.35942 0.61276 0.0
H3877 H 0.77596 0.35311 0.60878 0.0
H3878 H 0.76788 0.39882 0.62277 0.0
H3879 H 0.79602 0.40532 0.62663 0.0
H3880 H 0.75162 0.35476 0.62991 0.0
H3881 H 0.74517 0.39284 0.58023 0.0
H3882 H 0.76395 0.38763 0.58715 0.0
H3883 H 0.7545 0.40204 0.59722 0.0
C3884 C 0.79643 0.36814 0.615 0.0
C3885 C 0.80238 0.38291 0.61991 0.0
C3886 C 0.78031 0.3645 0.61274 0.0
C3887 C 0.7699 0.37557 0.61526 0.0
C3888 C 0.77576 0.39021 0.62048 0.0
H3889 H 0.66863 0.35966 0.62237 0.0
H3890 H 0.69656 0.36698 0.62742 0.0
C3891 C 0.79185 0.39387 0.62274 0.0
C3892 C 0.7529 0.37182 0.61243 0.0
H3893 H 0.72178 0.38103 0.59025 0.0
C3894 C 0.74507 0.36048 0.62124 0.0
C3895 C 0.74447 0.37923 0.601 0.0
C3896 C 0.75244 0.39102 0.59074 0.0
C3897 C 0.72895 0.35642 0.61901 0.0
C3898 C 0.72046 0.36407 0.60782 0.0
C3899 C 0.72832 0.37532 0.59892 0.0
C3900 C 0.70351 0.36014 0.60472 0.0
C3901 C 0.7212 0.34377 0.62841 0.0
C3902 C 0.69817 0.35432 0.59015 0.0
C3903 C 0.68225 0.35022 0.58718 0.0
C3904 C 0.67135 0.35193 0.59874 0.0
C3905 C 0.67672 0.35812 0.61324 0.0
C3906 C 0.69267 0.36222 0.61619 0.0
H3907 H 0.72989 0.33678 0.63385 0.0
H3908 H 0.7146 0.34878 0.63774 0.0
H3909 H 0.71279 0.33617 0.62111 0.0
H3910 H 0.70637 0.35271 0.58113 0.0
H3911 H 0.67853 0.34554 0.57588 0.0
H3912 H 0.40143 0.92613 0.36196 0.0
H3913 H 0.39468 0.95239 0.36506 0.0
H3914 H 0.34573 0.93618 0.36567 0.0
H3915 H 0.35232 0.90995 0.36259 0.0
H3916 H 0.37421 0.96632 0.3434 0.0
H3917 H 0.35251 0.96648 0.40317 0.0
H3918 H 0.36492 0.95254 0.39625 0.0
H3919 H 0.34445 0.95085 0.39087 0.0
C3920 C 0.38925 0.92813 0.36303 0.0
C3921 C 0.37741 0.91596 0.36203 0.0
C3922 C 0.38542 0.94313 0.36475 0.0
C3923 C 0.36972 0.94619 0.3657 0.0
C3924 C 0.35792 0.93404 0.36517 0.0
H3925 H 0.321 0.02803 0.3706 0.0
H3926 H 0.32805 0.00179 0.36911 0.0
C3927 C 0.36173 0.91906 0.36336 0.0
C3928 C 0.36556 0.9621 0.36612 0.0
H3929 H 0.34832 0.98796 0.38807 0.0
C3930 C 0.36865 0.97111 0.3532 0.0
C3931 C 0.35815 0.96821 0.37885 0.0
C3932 C 0.35489 0.95909 0.39315 0.0
C3933 C 0.36429 0.98604 0.35255 0.0
C3934 C 0.35698 0.99223 0.36534 0.0
C3935 C 0.3539 0.98319 0.37827 0.0
C3936 C 0.35265 0.00813 0.36564 0.0
C3937 C 0.36717 0.99488 0.338 0.0
C3938 C 0.36414 0.02039 0.36422 0.0
C3939 C 0.36014 0.03538 0.36494 0.0
C3940 C 0.34458 0.03843 0.36731 0.0
C3941 C 0.33308 0.0261 0.36873 0.0
C3942 C 0.33709 0.0111 0.36792 0.0
H3943 H 0.36847 0.9872 0.3279 0.0
H3944 H 0.35749 0.00203 0.33537 0.0
H3945 H 0.37819 0.00249 0.33957 0.0
H3946 H 0.37627 0.01839 0.36281 0.0
H3947 H 0.36932 0.04458 0.36394 0.0
H3948 H 0.84124 0.63798 0.13167 0.0
H3949 H 0.81507 0.62943 0.14043 0.0
H3950 H 0.79513 0.64017 0.09613 0.0
H3951 H 0.82109 0.649 0.0874 0.0
H3952 H 0.77903 0.6507 0.12077 0.0
H3953 H 0.78931 0.5897 0.12729 0.0
H3954 H 0.80255 0.60335 0.13794 0.0
H3955 H 0.80254 0.60289 0.11721 0.0
C3956 C 0.83129 0.63847 0.12378 0.0
C3957 C 0.83327 0.64412 0.10881 0.0
C3958 C 0.81635 0.63354 0.12879 0.0
C3959 C 0.80319 0.63403 0.11887 0.0
C3960 C 0.80514 0.63971 0.10397 0.0
H3961 H 0.71479 0.58838 0.10443 0.0
H3962 H 0.74226 0.59774 0.10765 0.0
C3963 C 0.82001 0.64471 0.09899 0.0
C3964 C 0.78729 0.62861 0.12376 0.0
H3965 H 0.76398 0.59637 0.13172 0.0
C3966 C 0.77574 0.63887 0.12339 0.0
C3967 C 0.7831 0.61317 0.12718 0.0
C3968 C 0.79496 0.60157 0.12735 0.0
C3969 C 0.75994 0.63395 0.12551 0.0
C3970 C 0.75567 0.61839 0.12839 0.0
C3971 C 0.76734 0.60831 0.1296 0.0
C3972 C 0.7391 0.61195 0.12774 0.0
C3973 C 0.74787 0.64522 0.12366 0.0
C3974 C 0.72819 0.61661 0.13818 0.0
C3975 C 0.71231 0.61132 0.13629 0.0
C3976 C 0.7072 0.60126 0.12399 0.0
C3977 C 0.7183 0.5962 0.11398 0.0
C3978 C 0.73405 0.60149 0.11584 0.0
H3979 H 0.75291 0.65623 0.11905 0.0
H3980 H 0.73809 0.64049 0.11578 0.0
H3981 H 0.74295 0.64755 0.13506 0.0
H3982 H 0.73191 0.6245 0.14759 0.0
H3983 H 0.70404 0.61534 0.14424 0.0
H3984 H 0.58693 0.58031 0.36554 0.0
H3985 H 0.59351 0.55592 0.37584 0.0
H3986 H 0.64266 0.57095 0.37348 0.0
H3987 H 0.63622 0.59533 0.36363 0.0
H3988 H 0.6087 0.53548 0.36103 0.0
H3989 H 0.64219 0.55199 0.41508 0.0
H3990 H 0.63036 0.56488 0.40518 0.0
H3991 H 0.65 0.56274 0.39927 0.0
C3992 C 0.59913 0.57852 0.36753 0.0
C3993 C 0.61105 0.58977 0.36376 0.0
C3994 C 0.60287 0.56458 0.37341 0.0
C3995 C 0.61859 0.56166 0.37569 0.0
C3996 C 0.63046 0.57304 0.37227 0.0
H3997 H 0.67231 0.48732 0.37019 0.0
H3998 H 0.66085 0.51163 0.3717 0.0
C3999 C 0.62674 0.58697 0.36648 0.0
C4000 C 0.6227 0.54625 0.37997 0.0
H4001 H 0.64751 0.52788 0.40313 0.0
C4002 C 0.61688 0.53377 0.37048 0.0
C4003 C 0.63336 0.54396 0.39233 0.0
C4004 C 0.63919 0.5566 0.40363 0.0
C4005 C 0.62216 0.51932 0.37243 0.0
C4006 C 0.63355 0.51731 0.38412 0.0
C4007 C 0.63882 0.52953 0.39411 0.0
C4008 C 0.64117 0.50299 0.38499 0.0
C4009 C 0.61616 0.50641 0.3615 0.0
C4010 C 0.63402 0.4902 0.39228 0.0
C4011 C 0.64059 0.47625 0.39151 0.0
C4012 C 0.65432 0.47491 0.38331 0.0
C4013 C 0.6617 0.48795 0.37654 0.0
C4014 C 0.65521 0.50186 0.37741 0.0
H4015 H 0.60715 0.50977 0.3531 0.0
H4016 H 0.62604 0.50245 0.35502 0.0
H4017 H 0.61102 0.49664 0.36816 0.0
H4018 H 0.62314 0.4909 0.39815 0.0
H4019 H 0.6346 0.46641 0.39681 0.0
H4020 H 0.22488 0.93314 0.88158 0.0
H4021 H 0.25117 0.92445 0.88266 0.0
H4022 H 0.23154 0.87924 0.89351 0.0
H4023 H 0.20528 0.88774 0.89245 0.0
H4024 H 0.26677 0.90976 0.90787 0.0
H4025 H 0.25807 0.87329 0.85472 0.0
H4026 H 0.24559 0.88805 0.8592 0.0
H4027 H 0.24321 0.87014 0.86879 0.0
C4028 C 0.22615 0.92136 0.88428 0.0
C4029 C 0.21294 0.91112 0.88684 0.0
C4030 C 0.24118 0.91643 0.88487 0.0
C4031 C 0.24323 0.90115 0.88789 0.0
C4032 C 0.23015 0.89101 0.89088 0.0
H4033 H 0.32133 0.84631 0.89626 0.0
H4034 H 0.29558 0.85588 0.89307 0.0
C4035 C 0.21515 0.89593 0.89036 0.0
C4036 C 0.25905 0.89577 0.88798 0.0
H4037 H 0.28137 0.87133 0.86967 0.0
C4038 C 0.27003 0.90144 0.89947 0.0
C4039 C 0.26319 0.88488 0.87702 0.0
C4040 C 0.25197 0.87879 0.86414 0.0
C4041 C 0.28496 0.89621 0.90056 0.0
C4042 C 0.28913 0.88529 0.8896 0.0
C4043 C 0.27816 0.8797 0.87803 0.0
C4044 C 0.30472 0.87934 0.89016 0.0
C4045 C 0.29596 0.90208 0.91372 0.0
C4046 C 0.31839 0.88926 0.889 0.0
C4047 C 0.33309 0.88384 0.89087 0.0
C4048 C 0.33441 0.86836 0.89377 0.0
C4049 C 0.32071 0.85829 0.89406 0.0
C4050 C 0.30599 0.86375 0.89227 0.0
H4051 H 0.28962 0.90715 0.92323 0.0
H4052 H 0.30248 0.89283 0.91846 0.0
H4053 H 0.30458 0.91108 0.90944 0.0
H4054 H 0.31768 0.90126 0.88696 0.0
H4055 H 0.34342 0.89188 0.89044 0.0
H4056 H 0.33387 0.95947 0.13464 0.0
H4057 H 0.33932 0.98706 0.13322 0.0
H4058 H 0.38562 0.9813 0.11734 0.0
H4059 H 0.37983 0.95354 0.11798 0.0
H4060 H 0.35976 0.00273 0.15067 0.0
H4061 H 0.37464 0.01505 0.09025 0.0
H4062 H 0.36552 0.99678 0.09585 0.0
H4063 H 0.38637 0.00123 0.09836 0.0
C4064 C 0.34508 0.9641 0.13049 0.0
C4065 C 0.35647 0.95444 0.12647 0.0
C4066 C 0.34819 0.97986 0.12968 0.0
C4067 C 0.36286 0.98632 0.12511 0.0
C4068 C 0.37408 0.97663 0.12054 0.0
H4069 H 0.40609 0.07203 0.16067 0.0
H4070 H 0.39736 0.04549 0.1544 0.0
C4071 C 0.37082 0.96078 0.12101 0.0
C4072 C 0.3669 0.00302 0.12702 0.0
H4073 H 0.38264 0.03485 0.10916 0.0
C4074 C 0.36457 0.00974 0.14149 0.0
C4075 C 0.37305 0.01226 0.11505 0.0
C4076 C 0.37488 0.00598 0.09896 0.0
C4077 C 0.36849 0.02532 0.14444 0.0
C4078 C 0.37551 0.03438 0.13278 0.0
C4079 C 0.37745 0.02782 0.11815 0.0
C4080 C 0.38134 0.05055 0.13584 0.0
C4081 C 0.36497 0.0319 0.16002 0.0
C4082 C 0.37568 0.06221 0.12707 0.0
C4083 C 0.38083 0.07748 0.13051 0.0
C4084 C 0.39167 0.08129 0.1428 0.0
C4085 C 0.39753 0.06953 0.1513 0.0
C4086 C 0.39253 0.05433 0.14775 0.0
H4087 H 0.35531 0.02489 0.16553 0.0
H4088 H 0.37552 0.03205 0.16777 0.0
H4089 H 0.36168 0.04373 0.15909 0.0
H4090 H 0.36711 0.05951 0.11776 0.0
H4091 H 0.37617 0.08629 0.12369 0.0
H4092 H 0.12344 0.9091 0.62655 0.0
H4093 H 0.13229 0.93516 0.61927 0.0
H4094 H 0.10521 0.9529 0.65541 0.0
H4095 H 0.09666 0.92705 0.663 0.0
H4096 H 0.11584 0.95876 0.60948 0.0
H4097 H 0.14823 0.97461 0.66454 0.0
H4098 H 0.14135 0.95516 0.65939 0.0
H4099 H 0.12823 0.96774 0.66745 0.0
C4100 C 0.11944 0.91856 0.633 0.0
C4101 C 0.10948 0.916 0.64547 0.0
C4102 C 0.12447 0.93343 0.62879 0.0
C4103 C 0.11962 0.94595 0.63697 0.0
C4104 C 0.10941 0.94341 0.64918 0.0
H4105 H 0.12007 0.04079 0.61329 0.0
H4106 H 0.11398 0.01312 0.61459 0.0
C4107 C 0.10449 0.9286 0.65347 0.0
C4108 C 0.12516 0.96172 0.63283 0.0
H4109 H 0.14286 0.99507 0.64819 0.0
C4110 C 0.12191 0.96669 0.61787 0.0
C4111 C 0.13329 0.97196 0.6437 0.0
C4112 C 0.13813 0.96706 0.65961 0.0
C4113 C 0.12614 0.9818 0.61365 0.0
C4114 C 0.1335 0.99225 0.62482 0.0
C4115 C 0.13711 0.98712 0.63963 0.0
C4116 C 0.13751 0.00862 0.62167 0.0
C4117 C 0.12282 0.98636 0.59727 0.0
C4118 C 0.15272 0.01531 0.62515 0.0
C4119 C 0.15609 0.03107 0.62478 0.0
C4120 C 0.14435 0.04047 0.62072 0.0
C4121 C 0.12935 0.03376 0.61632 0.0
C4122 C 0.12589 0.01795 0.61698 0.0
H4123 H 0.12198 0.97635 0.5892 0.0
H4124 H 0.11143 0.99134 0.59666 0.0
H4125 H 0.13203 0.99497 0.59333 0.0
H4126 H 0.16188 0.00837 0.62877 0.0
H4127 H 0.16779 0.03595 0.62814 0.0
loop_
_geom_bond_atom_site_label_1
_geom_bond_atom_site_label_2
_geom_bond_distance
_geom_bond_site_symmetry_2
_ccdc_geom_bond_type
O0 Cd1 2.223 . S
O0 C8 1.315 . S
Cd1 O0 2.223 . S
Cd1 O4 2.297 . S
Cd1 O5 2.439 . S
Cd1 O11 2.240 . S
Cd2 O3 2.240 . S
Cd2 O10 2.223 . S
Cd2 O12 2.297 . S
Cd2 O13 2.439 . S
O3 Cd2 2.240 . S
O3 C8 1.279 . S
O4 Cd1 2.297 . S
O4 C6 1.247 . S
O5 Cd1 2.439 . S
O5 C6 1.208 . S
C6 O4 1.247 . S
C6 O5 1.208 . S
C7 O12 1.247 . S
C7 O13 1.208 . S
C8 O0 1.315 . S
C8 O3 1.279 . S
C9 O10 1.315 . S
C9 O11 1.279 . S
O10 Cd2 2.223 . S
O10 C9 1.315 . S
O11 Cd1 2.240 . S
O11 C9 1.279 . S
O12 Cd2 2.297 . S
O12 C7 1.247 . S
O13 Cd2 2.439 . S
O13 C7 1.208 . S
O14 Cd15 2.223 . S
O14 C22 1.315 . S
Cd15 O14 2.223 . S
Cd15 O18 2.297 . S
Cd15 O19 2.439 . S
Cd15 O25 2.240 . S
Cd16 O17 2.240 . S
Cd16 O24 2.223 . S
Cd16 O26 2.297 . S
Cd16 O27 2.439 . S
O17 Cd16 2.240 . S
O17 C22 1.279 . S
O18 Cd15 2.297 . S
O18 C20 1.247 . S
O19 Cd15 2.439 . S
O19 C20 1.208 . S
C20 O18 1.247 . S
C20 O19 1.208 . S
C21 O26 1.247 . S
C21 O27 1.208 . S
C22 O14 1.315 . S
C22 O17 1.279 . S
C23 O24 1.315 . S
C23 O25 1.279 . S
O24 Cd16 2.223 . S
O24 C23 1.315 . S
O25 Cd15 2.240 . S
O25 C23 1.279 . S
O26 Cd16 2.297 . S
O26 C21 1.247 . S
O27 Cd16 2.439 . S
O27 C21 1.208 . S
O28 Cd29 2.223 . S
O28 C36 1.315 . S
Cd29 O28 2.223 . S
Cd29 O32 2.297 . S
Cd29 O33 2.439 . S
Cd29 O39 2.240 . S
Cd30 O31 2.240 . S
Cd30 O38 2.223 . S
Cd30 O40 2.297 . S
Cd30 O41 2.439 . S
O31 Cd30 2.240 . S
O31 C36 1.279 . S
O32 Cd29 2.297 . S
O32 C34 1.247 . S
O33 Cd29 2.439 . S
O33 C34 1.208 . S
C34 O32 1.247 . S
C34 O33 1.208 . S
C35 O40 1.247 . S
C35 O41 1.208 . S
C36 O28 1.315 . S
C36 O31 1.279 . S
C37 O38 1.315 . S
C37 O39 1.279 . S
O38 Cd30 2.223 . S
O38 C37 1.315 . S
O39 Cd29 2.240 . S
O39 C37 1.279 . S
O40 Cd30 2.297 . S
O40 C35 1.247 . S
O41 Cd30 2.439 . S
O41 C35 1.208 . S
O42 Cd43 2.223 . S
O42 C50 1.315 . S
Cd43 O42 2.223 . S
Cd43 O46 2.297 . S
Cd43 O47 2.439 . S
Cd43 O53 2.240 . S
Cd44 O45 2.240 . S
Cd44 O52 2.223 . S
Cd44 O54 2.297 . S
Cd44 O55 2.439 . S
O45 Cd44 2.240 . S
O45 C50 1.279 . S
O46 Cd43 2.297 . S
O46 C48 1.247 . S
O47 Cd43 2.439 . S
O47 C48 1.208 . S
C48 O46 1.247 . S
C48 O47 1.208 . S
C49 O54 1.247 . S
C49 O55 1.208 . S
C50 O42 1.315 . S
C50 O45 1.279 . S
C51 O52 1.315 . S
C51 O53 1.279 . S
O52 Cd44 2.223 . S
O52 C51 1.315 . S
O53 Cd43 2.240 . S
O53 C51 1.279 . S
O54 Cd44 2.297 . S
O54 C49 1.247 . S
O55 Cd44 2.439 . S
O55 C49 1.208 . S
O56 Cd57 2.223 . S
O56 C64 1.315 . S
Cd57 O56 2.223 . S
Cd57 O60 2.297 . S
Cd57 O61 2.439 . S
Cd57 O67 2.240 . S
Cd58 O59 2.240 . S
Cd58 O66 2.223 . S
Cd58 O68 2.297 . S
Cd58 O69 2.439 . S
O59 Cd58 2.240 . S
O59 C64 1.279 . S
O60 Cd57 2.297 . S
O60 C62 1.247 . S
O61 Cd57 2.439 . S
O61 C62 1.208 . S
C62 O60 1.247 . S
C62 O61 1.208 . S
C63 O68 1.247 . S
C63 O69 1.208 . S
C64 O56 1.315 . S
C64 O59 1.279 . S
C65 O66 1.315 . S
C65 O67 1.279 . S
O66 Cd58 2.223 . S
O66 C65 1.315 . S
O67 Cd57 2.240 . S
O67 C65 1.279 . S
O68 Cd58 2.297 . S
O68 C63 1.247 . S
O69 Cd58 2.439 . S
O69 C63 1.208 . S
O70 Cd71 2.223 . S
O70 C78 1.315 . S
Cd71 O70 2.223 . S
Cd71 O74 2.297 . S
Cd71 O75 2.439 . S
Cd71 O81 2.240 . S
Cd72 O73 2.240 . S
Cd72 O80 2.223 . S
Cd72 O82 2.297 . S
Cd72 O83 2.439 . S
O73 Cd72 2.240 . S
O73 C78 1.279 . S
O74 Cd71 2.297 . S
O74 C76 1.247 . S
O75 Cd71 2.439 . S
O75 C76 1.208 . S
C76 O74 1.247 . S
C76 O75 1.208 . S
C77 O82 1.247 . S
C77 O83 1.208 . S
C78 O70 1.315 . S
C78 O73 1.279 . S
C79 O80 1.315 . S
C79 O81 1.279 . S
O80 Cd72 2.223 . S
O80 C79 1.315 . S
O81 Cd71 2.240 . S
O81 C79 1.279 . S
O82 Cd72 2.297 . S
O82 C77 1.247 . S
O83 Cd72 2.439 . S
O83 C77 1.208 . S
O84 Cd85 2.223 . S
O84 C92 1.315 . S
Cd85 O84 2.223 . S
Cd85 O88 2.297 . S
Cd85 O89 2.439 . S
Cd85 O95 2.240 . S
Cd86 O87 2.240 . S
Cd86 O94 2.223 . S
Cd86 O96 2.297 . S
Cd86 O97 2.439 . S
O87 Cd86 2.240 . S
O87 C92 1.279 . S
O88 Cd85 2.297 . S
O88 C90 1.247 . S
O89 Cd85 2.439 . S
O89 C90 1.208 . S
C90 O88 1.247 . S
C90 O89 1.208 . S
C91 O96 1.247 . S
C91 O97 1.208 . S
C92 O84 1.315 . S
C92 O87 1.279 . S
C93 O94 1.315 . S
C93 O95 1.279 . S
O94 Cd86 2.223 . S
O94 C93 1.315 . S
O95 Cd85 2.240 . S
O95 C93 1.279 . S
O96 Cd86 2.297 . S
O96 C91 1.247 . S
O97 Cd86 2.439 . S
O97 C91 1.208 . S
O98 Cd99 2.223 . S
O98 C106 1.315 . S
Cd99 O98 2.223 . S
Cd99 O102 2.297 . S
Cd99 O103 2.439 . S
Cd99 O109 2.240 . S
Cd100 O101 2.240 . S
Cd100 O108 2.223 . S
Cd100 O110 2.297 . S
Cd100 O111 2.439 . S
O101 Cd100 2.240 . S
O101 C106 1.279 . S
O102 Cd99 2.297 . S
O102 C104 1.247 . S
O103 Cd99 2.439 . S
O103 C104 1.208 . S
C104 O102 1.247 . S
C104 O103 1.208 . S
C105 O110 1.247 . S
C105 O111 1.208 . S
C106 O98 1.315 . S
C106 O101 1.279 . S
C107 O108 1.315 . S
C107 O109 1.279 . S
O108 Cd100 2.223 . S
O108 C107 1.315 . S
O109 Cd99 2.240 . S
O109 C107 1.279 . S
O110 Cd100 2.297 . S
O110 C105 1.247 . S
O111 Cd100 2.439 . S
O111 C105 1.208 . S
O112 Cd113 2.223 . S
O112 C120 1.315 . S
Cd113 O112 2.223 . S
Cd113 O116 2.297 . S
Cd113 O117 2.439 . S
Cd113 O123 2.240 . S
Cd114 O115 2.240 . S
Cd114 O122 2.223 . S
Cd114 O124 2.297 . S
Cd114 O125 2.439 . S
O115 Cd114 2.240 . S
O115 C120 1.279 . S
O116 Cd113 2.297 . S
O116 C118 1.247 . S
O117 Cd113 2.439 . S
O117 C118 1.208 . S
C118 O116 1.247 . S
C118 O117 1.208 . S
C119 O124 1.247 . S
C119 O125 1.208 . S
C120 O112 1.315 . S
C120 O115 1.279 . S
C121 O122 1.315 . S
C121 O123 1.279 . S
O122 Cd114 2.223 . S
O122 C121 1.315 . S
O123 Cd113 2.240 . S
O123 C121 1.279 . S
O124 Cd114 2.297 . S
O124 C119 1.247 . S
O125 Cd114 2.439 . S
O125 C119 1.208 . S
O126 Cd127 2.223 . S
O126 C134 1.315 . S
Cd127 O126 2.223 . S
Cd127 O130 2.297 . S
Cd127 O131 2.439 . S
Cd127 O137 2.240 . S
Cd128 O129 2.240 . S
Cd128 O136 2.223 . S
Cd128 O138 2.297 . S
Cd128 O139 2.439 . S
O129 Cd128 2.240 . S
O129 C134 1.279 . S
O130 Cd127 2.297 . S
O130 C132 1.247 . S
O131 Cd127 2.439 . S
O131 C132 1.208 . S
C132 O130 1.247 . S
C132 O131 1.208 . S
C133 O138 1.247 . S
C133 O139 1.208 . S
C134 O126 1.315 . S
C134 O129 1.279 . S
C135 O136 1.315 . S
C135 O137 1.279 . S
O136 Cd128 2.223 . S
O136 C135 1.315 . S
O137 Cd127 2.240 . S
O137 C135 1.279 . S
O138 Cd128 2.297 . S
O138 C133 1.247 . S
O139 Cd128 2.439 . S
O139 C133 1.208 . S
O140 Cd141 2.223 . S
O140 C148 1.315 . S
Cd141 O140 2.223 . S
Cd141 O144 2.297 . S
Cd141 O145 2.439 . S
Cd141 O151 2.240 . S
Cd142 O143 2.240 . S
Cd142 O150 2.223 . S
Cd142 O152 2.297 . S
Cd142 O153 2.439 . S
O143 Cd142 2.240 . S
O143 C148 1.279 . S
O144 Cd141 2.297 . S
O144 C146 1.247 . S
O145 Cd141 2.439 . S
O145 C146 1.208 . S
C146 O144 1.247 . S
C146 O145 1.208 . S
C147 O152 1.247 . S
C147 O153 1.208 . S
C148 O140 1.315 . S
C148 O143 1.279 . S
C149 O150 1.315 . S
C149 O151 1.279 . S
O150 Cd142 2.223 . S
O150 C149 1.315 . S
O151 Cd141 2.240 . S
O151 C149 1.279 . S
O152 Cd142 2.297 . S
O152 C147 1.247 . S
O153 Cd142 2.439 . S
O153 C147 1.208 . S
O154 Cd155 2.223 . S
O154 C162 1.315 . S
Cd155 O154 2.223 . S
Cd155 O158 2.297 . S
Cd155 O159 2.439 . S
Cd155 O165 2.240 . S
Cd156 O157 2.240 . S
Cd156 O164 2.223 . S
Cd156 O166 2.297 . S
Cd156 O167 2.439 . S
O157 Cd156 2.240 . S
O157 C162 1.279 . S
O158 Cd155 2.297 . S
O158 C160 1.247 . S
O159 Cd155 2.439 . S
O159 C160 1.208 . S
C160 O158 1.247 . S
C160 O159 1.208 . S
C161 O166 1.247 . S
C161 O167 1.208 . S
C162 O154 1.315 . S
C162 O157 1.279 . S
C163 O164 1.315 . S
C163 O165 1.279 . S
O164 Cd156 2.223 . S
O164 C163 1.315 . S
O165 Cd155 2.240 . S
O165 C163 1.279 . S
O166 Cd156 2.297 . S
O166 C161 1.247 . S
O167 Cd156 2.439 . S
O167 C161 1.208 . S
O168 Cd169 2.223 . S
O168 C176 1.315 . S
Cd169 O168 2.223 . S
Cd169 O172 2.297 . S
Cd169 O173 2.439 . S
Cd169 O179 2.240 . S
Cd170 O171 2.240 . S
Cd170 O178 2.223 . S
Cd170 O180 2.297 . S
Cd170 O181 2.439 . S
O171 Cd170 2.240 . S
O171 C176 1.279 . S
O172 Cd169 2.297 . S
O172 C174 1.247 . S
O173 Cd169 2.439 . S
O173 C174 1.208 . S
C174 O172 1.247 . S
C174 O173 1.208 . S
C175 O180 1.247 . S
C175 O181 1.208 . S
C176 O168 1.315 . S
C176 O171 1.279 . S
C177 O178 1.315 . S
C177 O179 1.279 . S
O178 Cd170 2.223 . S
O178 C177 1.315 . S
O179 Cd169 2.240 . S
O179 C177 1.279 . S
O180 Cd170 2.297 . S
O180 C175 1.247 . S
O181 Cd170 2.439 . S
O181 C175 1.208 . S
O182 Cd183 2.223 . S
O182 C190 1.315 . S
Cd183 O182 2.223 . S
Cd183 O186 2.297 . S
Cd183 O187 2.439 . S
Cd183 O193 2.240 . S
Cd184 O185 2.240 . S
Cd184 O192 2.223 . S
Cd184 O194 2.297 . S
Cd184 O195 2.439 . S
O185 Cd184 2.240 . S
O185 C190 1.279 . S
O186 Cd183 2.297 . S
O186 C188 1.247 . S
O187 Cd183 2.439 . S
O187 C188 1.208 . S
C188 O186 1.247 . S
C188 O187 1.208 . S
C189 O194 1.247 . S
C189 O195 1.208 . S
C190 O182 1.315 . S
C190 O185 1.279 . S
C191 O192 1.315 . S
C191 O193 1.279 . S
O192 Cd184 2.223 . S
O192 C191 1.315 . S
O193 Cd183 2.240 . S
O193 C191 1.279 . S
O194 Cd184 2.297 . S
O194 C189 1.247 . S
O195 Cd184 2.439 . S
O195 C189 1.208 . S
O196 Cd197 2.223 . S
O196 C204 1.315 . S
Cd197 O196 2.223 . S
Cd197 O200 2.297 . S
Cd197 O201 2.439 . S
Cd197 O207 2.240 . S
Cd198 O199 2.240 . S
Cd198 O206 2.223 . S
Cd198 O208 2.297 . S
Cd198 O209 2.439 . S
O199 Cd198 2.240 . S
O199 C204 1.279 . S
O200 Cd197 2.297 . S
O200 C202 1.247 . S
O201 Cd197 2.439 . S
O201 C202 1.208 . S
C202 O200 1.247 . S
C202 O201 1.208 . S
C203 O208 1.247 . S
C203 O209 1.208 . S
C204 O196 1.315 . S
C204 O199 1.279 . S
C205 O206 1.315 . S
C205 O207 1.279 . S
O206 Cd198 2.223 . S
O206 C205 1.315 . S
O207 Cd197 2.240 . S
O207 C205 1.279 . S
O208 Cd198 2.297 . S
O208 C203 1.247 . S
O209 Cd198 2.439 . S
O209 C203 1.208 . S
O210 Cd211 2.223 . S
O210 C218 1.315 . S
Cd211 O210 2.223 . S
Cd211 O214 2.297 . S
Cd211 O215 2.439 . S
Cd211 O221 2.240 . S
Cd212 O213 2.240 . S
Cd212 O220 2.223 . S
Cd212 O222 2.297 . S
Cd212 O223 2.439 . S
O213 Cd212 2.240 . S
O213 C218 1.279 . S
O214 Cd211 2.297 . S
O214 C216 1.247 . S
O215 Cd211 2.439 . S
O215 C216 1.208 . S
C216 O214 1.247 . S
C216 O215 1.208 . S
C217 O222 1.247 . S
C217 O223 1.208 . S
C218 O210 1.315 . S
C218 O213 1.279 . S
C219 O220 1.315 . S
C219 O221 1.279 . S
O220 Cd212 2.223 . S
O220 C219 1.315 . S
O221 Cd211 2.240 . S
O221 C219 1.279 . S
O222 Cd212 2.297 . S
O222 C217 1.247 . S
O223 Cd212 2.439 . S
O223 C217 1.208 . S
O224 Cd225 2.223 . S
O224 C232 1.315 . S
Cd225 O224 2.223 . S
Cd225 O228 2.297 . S
Cd225 O229 2.439 . S
Cd225 O235 2.240 . S
Cd226 O227 2.240 . S
Cd226 O234 2.223 . S
Cd226 O236 2.297 . S
Cd226 O237 2.439 . S
O227 Cd226 2.240 . S
O227 C232 1.279 . S
O228 Cd225 2.297 . S
O228 C230 1.247 . S
O229 Cd225 2.439 . S
O229 C230 1.208 . S
C230 O228 1.247 . S
C230 O229 1.208 . S
C231 O236 1.247 . S
C231 O237 1.208 . S
C232 O224 1.315 . S
C232 O227 1.279 . S
C233 O234 1.315 . S
C233 O235 1.279 . S
O234 Cd226 2.223 . S
O234 C233 1.315 . S
O235 Cd225 2.240 . S
O235 C233 1.279 . S
O236 Cd226 2.297 . S
O236 C231 1.247 . S
O237 Cd226 2.439 . S
O237 C231 1.208 . S
O238 Cd239 2.223 . S
O238 C246 1.315 . S
Cd239 O238 2.223 . S
Cd239 O242 2.297 . S
Cd239 O243 2.439 . S
Cd239 O249 2.240 . S
Cd240 O241 2.240 . S
Cd240 O248 2.223 . S
Cd240 O250 2.297 . S
Cd240 O251 2.439 . S
O241 Cd240 2.240 . S
O241 C246 1.279 . S
O242 Cd239 2.297 . S
O242 C244 1.247 . S
O243 Cd239 2.439 . S
O243 C244 1.208 . S
C244 O242 1.247 . S
C244 O243 1.208 . S
C245 O250 1.247 . S
C245 O251 1.208 . S
C246 O238 1.315 . S
C246 O241 1.279 . S
C247 O248 1.315 . S
C247 O249 1.279 . S
O248 Cd240 2.223 . S
O248 C247 1.315 . S
O249 Cd239 2.240 . S
O249 C247 1.279 . S
O250 Cd240 2.297 . S
O250 C245 1.247 . S
O251 Cd240 2.439 . S
O251 C245 1.208 . S
O252 Cd253 2.223 . S
O252 C260 1.315 . S
Cd253 O252 2.223 . S
Cd253 O256 2.297 . S
Cd253 O257 2.439 . S
Cd253 O263 2.240 . S
Cd254 O255 2.240 . S
Cd254 O262 2.223 . S
Cd254 O264 2.297 . S
Cd254 O265 2.439 . S
O255 Cd254 2.240 . S
O255 C260 1.279 . S
O256 Cd253 2.297 . S
O256 C258 1.247 . S
O257 Cd253 2.439 . S
O257 C258 1.208 . S
C258 O256 1.247 . S
C258 O257 1.208 . S
C259 O264 1.247 . S
C259 O265 1.208 . S
C260 O252 1.315 . S
C260 O255 1.279 . S
C261 O262 1.315 . S
C261 O263 1.279 . S
O262 Cd254 2.223 . S
O262 C261 1.315 . S
O263 Cd253 2.240 . S
O263 C261 1.279 . S
O264 Cd254 2.297 . S
O264 C259 1.247 . S
O265 Cd254 2.439 . S
O265 C259 1.208 . S
O266 Cd267 2.223 . S
O266 C274 1.315 . S
Cd267 O266 2.223 . S
Cd267 O270 2.297 . S
Cd267 O271 2.439 . S
Cd267 O277 2.240 . S
Cd268 O269 2.240 . S
Cd268 O276 2.223 . S
Cd268 O278 2.297 . S
Cd268 O279 2.439 . S
O269 Cd268 2.240 . S
O269 C274 1.279 . S
O270 Cd267 2.297 . S
O270 C272 1.247 . S
O271 Cd267 2.439 . S
O271 C272 1.208 . S
C272 O270 1.247 . S
C272 O271 1.208 . S
C273 O278 1.247 . S
C273 O279 1.208 . S
C274 O266 1.315 . S
C274 O269 1.279 . S
C275 O276 1.315 . S
C275 O277 1.279 . S
O276 Cd268 2.223 . S
O276 C275 1.315 . S
O277 Cd267 2.240 . S
O277 C275 1.279 . S
O278 Cd268 2.297 . S
O278 C273 1.247 . S
O279 Cd268 2.439 . S
O279 C273 1.208 . S
O280 Cd281 2.223 . S
O280 C288 1.315 . S
Cd281 O280 2.223 . S
Cd281 O284 2.297 . S
Cd281 O285 2.439 . S
Cd281 O291 2.240 . S
Cd282 O283 2.240 . S
Cd282 O290 2.223 . S
Cd282 O292 2.297 . S
Cd282 O293 2.439 . S
O283 Cd282 2.240 . S
O283 C288 1.279 . S
O284 Cd281 2.297 . S
O284 C286 1.247 . S
O285 Cd281 2.439 . S
O285 C286 1.208 . S
C286 O284 1.247 . S
C286 O285 1.208 . S
C287 O292 1.247 . S
C287 O293 1.208 . S
C288 O280 1.315 . S
C288 O283 1.279 . S
C289 O290 1.315 . S
C289 O291 1.279 . S
O290 Cd282 2.223 . S
O290 C289 1.315 . S
O291 Cd281 2.240 . S
O291 C289 1.279 . S
O292 Cd282 2.297 . S
O292 C287 1.247 . S
O293 Cd282 2.439 . S
O293 C287 1.208 . S
O294 Cd295 2.223 . S
O294 C302 1.315 . S
Cd295 O294 2.223 . S
Cd295 O298 2.297 . S
Cd295 O299 2.439 . S
Cd295 O305 2.240 . S
Cd296 O297 2.240 . S
Cd296 O304 2.223 . S
Cd296 O306 2.297 . S
Cd296 O307 2.439 . S
O297 Cd296 2.240 . S
O297 C302 1.279 . S
O298 Cd295 2.297 . S
O298 C300 1.247 . S
O299 Cd295 2.439 . S
O299 C300 1.208 . S
C300 O298 1.247 . S
C300 O299 1.208 . S
C301 O306 1.247 . S
C301 O307 1.208 . S
C302 O294 1.315 . S
C302 O297 1.279 . S
C303 O304 1.315 . S
C303 O305 1.279 . S
O304 Cd296 2.223 . S
O304 C303 1.315 . S
O305 Cd295 2.240 . S
O305 C303 1.279 . S
O306 Cd296 2.297 . S
O306 C301 1.247 . S
O307 Cd296 2.439 . S
O307 C301 1.208 . S
O308 Cd309 2.223 . S
O308 C316 1.315 . S
Cd309 O308 2.223 . S
Cd309 O312 2.297 . S
Cd309 O313 2.439 . S
Cd309 O319 2.240 . S
Cd310 O311 2.240 . S
Cd310 O318 2.223 . S
Cd310 O320 2.297 . S
Cd310 O321 2.439 . S
O311 Cd310 2.240 . S
O311 C316 1.279 . S
O312 Cd309 2.297 . S
O312 C314 1.247 . S
O313 Cd309 2.439 . S
O313 C314 1.208 . S
C314 O312 1.247 . S
C314 O313 1.208 . S
C315 O320 1.247 . S
C315 O321 1.208 . S
C316 O308 1.315 . S
C316 O311 1.279 . S
C317 O318 1.315 . S
C317 O319 1.279 . S
O318 Cd310 2.223 . S
O318 C317 1.315 . S
O319 Cd309 2.240 . S
O319 C317 1.279 . S
O320 Cd310 2.297 . S
O320 C315 1.247 . S
O321 Cd310 2.439 . S
O321 C315 1.208 . S
O322 Cd323 2.223 . S
O322 C330 1.315 . S
Cd323 O322 2.223 . S
Cd323 O326 2.297 . S
Cd323 O327 2.439 . S
Cd323 O333 2.240 . S
Cd324 O325 2.240 . S
Cd324 O332 2.223 . S
Cd324 O334 2.297 . S
Cd324 O335 2.439 . S
O325 Cd324 2.240 . S
O325 C330 1.279 . S
O326 Cd323 2.297 . S
O326 C328 1.247 . S
O327 Cd323 2.439 . S
O327 C328 1.208 . S
C328 O326 1.247 . S
C328 O327 1.208 . S
C329 O334 1.247 . S
C329 O335 1.208 . S
C330 O322 1.315 . S
C330 O325 1.279 . S
C331 O332 1.315 . S
C331 O333 1.279 . S
O332 Cd324 2.223 . S
O332 C331 1.315 . S
O333 Cd323 2.240 . S
O333 C331 1.279 . S
O334 Cd324 2.297 . S
O334 C329 1.247 . S
O335 Cd324 2.439 . S
O335 C329 1.208 . S
O336 Cd337 2.223 . S
O336 C344 1.315 . S
Cd337 O336 2.223 . S
Cd337 O340 2.297 . S
Cd337 O341 2.439 . S
Cd337 O347 2.240 . S
Cd338 O339 2.240 . S
Cd338 O346 2.223 . S
Cd338 O348 2.297 . S
Cd338 O349 2.439 . S
O339 Cd338 2.240 . S
O339 C344 1.279 . S
O340 Cd337 2.297 . S
O340 C342 1.247 . S
O341 Cd337 2.439 . S
O341 C342 1.208 . S
C342 O340 1.247 . S
C342 O341 1.208 . S
C343 O348 1.247 . S
C343 O349 1.208 . S
C344 O336 1.315 . S
C344 O339 1.279 . S
C345 O346 1.315 . S
C345 O347 1.279 . S
O346 Cd338 2.223 . S
O346 C345 1.315 . S
O347 Cd337 2.240 . S
O347 C345 1.279 . S
O348 Cd338 2.297 . S
O348 C343 1.247 . S
O349 Cd338 2.439 . S
O349 C343 1.208 . S
O350 Cd351 2.223 . S
O350 C358 1.315 . S
Cd351 O350 2.223 . S
Cd351 O354 2.297 . S
Cd351 O355 2.439 . S
Cd351 O361 2.240 . S
Cd352 O353 2.240 . S
Cd352 O360 2.223 . S
Cd352 O362 2.297 . S
Cd352 O363 2.439 . S
O353 Cd352 2.240 . S
O353 C358 1.279 . S
O354 Cd351 2.297 . S
O354 C356 1.247 . S
O355 Cd351 2.439 . S
O355 C356 1.208 . S
C356 O354 1.247 . S
C356 O355 1.208 . S
C357 O362 1.247 . S
C357 O363 1.208 . S
C358 O350 1.315 . S
C358 O353 1.279 . S
C359 O360 1.315 . S
C359 O361 1.279 . S
O360 Cd352 2.223 . S
O360 C359 1.315 . S
O361 Cd351 2.240 . S
O361 C359 1.279 . S
O362 Cd352 2.297 . S
O362 C357 1.247 . S
O363 Cd352 2.439 . S
O363 C357 1.208 . S
O364 Cd365 2.223 . S
O364 C372 1.315 . S
Cd365 O364 2.223 . S
Cd365 O368 2.297 . S
Cd365 O369 2.439 . S
Cd365 O375 2.240 . S
Cd366 O367 2.240 . S
Cd366 O374 2.223 . S
Cd366 O376 2.297 . S
Cd366 O377 2.439 . S
O367 Cd366 2.240 . S
O367 C372 1.279 . S
O368 Cd365 2.297 . S
O368 C370 1.247 . S
O369 Cd365 2.439 . S
O369 C370 1.208 . S
C370 O368 1.247 . S
C370 O369 1.208 . S
C371 O376 1.247 . S
C371 O377 1.208 . S
C372 O364 1.315 . S
C372 O367 1.279 . S
C373 O374 1.315 . S
C373 O375 1.279 . S
O374 Cd366 2.223 . S
O374 C373 1.315 . S
O375 Cd365 2.240 . S
O375 C373 1.279 . S
O376 Cd366 2.297 . S
O376 C371 1.247 . S
O377 Cd366 2.439 . S
O377 C371 1.208 . S
O378 Cd379 2.223 . S
O378 C386 1.315 . S
Cd379 O378 2.223 . S
Cd379 O382 2.297 . S
Cd379 O383 2.439 . S
Cd379 O389 2.240 . S
Cd380 O381 2.240 . S
Cd380 O388 2.223 . S
Cd380 O390 2.297 . S
Cd380 O391 2.439 . S
O381 Cd380 2.240 . S
O381 C386 1.279 . S
O382 Cd379 2.297 . S
O382 C384 1.247 . S
O383 Cd379 2.439 . S
O383 C384 1.208 . S
C384 O382 1.247 . S
C384 O383 1.208 . S
C385 O390 1.247 . S
C385 O391 1.208 . S
C386 O378 1.315 . S
C386 O381 1.279 . S
C387 O388 1.315 . S
C387 O389 1.279 . S
O388 Cd380 2.223 . S
O388 C387 1.315 . S
O389 Cd379 2.240 . S
O389 C387 1.279 . S
O390 Cd380 2.297 . S
O390 C385 1.247 . S
O391 Cd380 2.439 . S
O391 C385 1.208 . S
O392 Cd393 2.223 . S
O392 C400 1.315 . S
Cd393 O392 2.223 . S
Cd393 O396 2.297 . S
Cd393 O397 2.439 . S
Cd393 O403 2.240 . S
Cd394 O395 2.240 . S
Cd394 O402 2.223 . S
Cd394 O404 2.297 . S
Cd394 O405 2.439 . S
O395 Cd394 2.240 . S
O395 C400 1.279 . S
O396 Cd393 2.297 . S
O396 C398 1.247 . S
O397 Cd393 2.439 . S
O397 C398 1.208 . S
C398 O396 1.247 . S
C398 O397 1.208 . S
C399 O404 1.247 . S
C399 O405 1.208 . S
C400 O392 1.315 . S
C400 O395 1.279 . S
C401 O402 1.315 . S
C401 O403 1.279 . S
O402 Cd394 2.223 . S
O402 C401 1.315 . S
O403 Cd393 2.240 . S
O403 C401 1.279 . S
O404 Cd394 2.297 . S
O404 C399 1.247 . S
O405 Cd394 2.439 . S
O405 C399 1.208 . S
O406 Cd407 2.223 . S
O406 C414 1.315 . S
Cd407 O406 2.223 . S
Cd407 O410 2.297 . S
Cd407 O411 2.439 . S
Cd407 O417 2.240 . S
Cd408 O409 2.240 . S
Cd408 O416 2.223 . S
Cd408 O418 2.297 . S
Cd408 O419 2.439 . S
O409 Cd408 2.240 . S
O409 C414 1.279 . S
O410 Cd407 2.297 . S
O410 C412 1.247 . S
O411 Cd407 2.439 . S
O411 C412 1.208 . S
C412 O410 1.247 . S
C412 O411 1.208 . S
C413 O418 1.247 . S
C413 O419 1.208 . S
C414 O406 1.315 . S
C414 O409 1.279 . S
C415 O416 1.315 . S
C415 O417 1.279 . S
O416 Cd408 2.223 . S
O416 C415 1.315 . S
O417 Cd407 2.240 . S
O417 C415 1.279 . S
O418 Cd408 2.297 . S
O418 C413 1.247 . S
O419 Cd408 2.439 . S
O419 C413 1.208 . S
O420 Cd421 2.223 . S
O420 C428 1.315 . S
Cd421 O420 2.223 . S
Cd421 O424 2.297 . S
Cd421 O425 2.439 . S
Cd421 O431 2.240 . S
Cd422 O423 2.240 . S
Cd422 O430 2.223 . S
Cd422 O432 2.297 . S
Cd422 O433 2.439 . S
O423 Cd422 2.240 . S
O423 C428 1.279 . S
O424 Cd421 2.297 . S
O424 C426 1.247 . S
O425 Cd421 2.439 . S
O425 C426 1.208 . S
C426 O424 1.247 . S
C426 O425 1.208 . S
C427 O432 1.247 . S
C427 O433 1.208 . S
C428 O420 1.315 . S
C428 O423 1.279 . S
C429 O430 1.315 . S
C429 O431 1.279 . S
O430 Cd422 2.223 . S
O430 C429 1.315 . S
O431 Cd421 2.240 . S
O431 C429 1.279 . S
O432 Cd422 2.297 . S
O432 C427 1.247 . S
O433 Cd422 2.439 . S
O433 C427 1.208 . S
O434 Cd435 2.223 . S
O434 C442 1.315 . S
Cd435 O434 2.223 . S
Cd435 O438 2.297 . S
Cd435 O439 2.439 . S
Cd435 O445 2.240 . S
Cd436 O437 2.240 . S
Cd436 O444 2.223 . S
Cd436 O446 2.297 . S
Cd436 O447 2.439 . S
O437 Cd436 2.240 . S
O437 C442 1.279 . S
O438 Cd435 2.297 . S
O438 C440 1.247 . S
O439 Cd435 2.439 . S
O439 C440 1.208 . S
C440 O438 1.247 . S
C440 O439 1.208 . S
C441 O446 1.247 . S
C441 O447 1.208 . S
C442 O434 1.315 . S
C442 O437 1.279 . S
C443 O444 1.315 . S
C443 O445 1.279 . S
O444 Cd436 2.223 . S
O444 C443 1.315 . S
O445 Cd435 2.240 . S
O445 C443 1.279 . S
O446 Cd436 2.297 . S
O446 C441 1.247 . S
O447 Cd436 2.439 . S
O447 C441 1.208 . S
O448 Cd449 2.223 . S
O448 C456 1.315 . S
Cd449 O448 2.223 . S
Cd449 O452 2.297 . S
Cd449 O453 2.439 . S
Cd449 O459 2.240 . S
Cd450 O451 2.240 . S
Cd450 O458 2.223 . S
Cd450 O460 2.297 . S
Cd450 O461 2.439 . S
O451 Cd450 2.240 . S
O451 C456 1.279 . S
O452 Cd449 2.297 . S
O452 C454 1.247 . S
O453 Cd449 2.439 . S
O453 C454 1.208 . S
C454 O452 1.247 . S
C454 O453 1.208 . S
C455 O460 1.247 . S
C455 O461 1.208 . S
C456 O448 1.315 . S
C456 O451 1.279 . S
C457 O458 1.315 . S
C457 O459 1.279 . S
O458 Cd450 2.223 . S
O458 C457 1.315 . S
O459 Cd449 2.240 . S
O459 C457 1.279 . S
O460 Cd450 2.297 . S
O460 C455 1.247 . S
O461 Cd450 2.439 . S
O461 C455 1.208 . S
O462 Cd463 2.223 . S
O462 C470 1.315 . S
Cd463 O462 2.223 . S
Cd463 O466 2.297 . S
Cd463 O467 2.439 . S
Cd463 O473 2.240 . S
Cd464 O465 2.240 . S
Cd464 O472 2.223 . S
Cd464 O474 2.297 . S
Cd464 O475 2.439 . S
O465 Cd464 2.240 . S
O465 C470 1.279 . S
O466 Cd463 2.297 . S
O466 C468 1.247 . S
O467 Cd463 2.439 . S
O467 C468 1.208 . S
C468 O466 1.247 . S
C468 O467 1.208 . S
C469 O474 1.247 . S
C469 O475 1.208 . S
C470 O462 1.315 . S
C470 O465 1.279 . S
C471 O472 1.315 . S
C471 O473 1.279 . S
O472 Cd464 2.223 . S
O472 C471 1.315 . S
O473 Cd463 2.240 . S
O473 C471 1.279 . S
O474 Cd464 2.297 . S
O474 C469 1.247 . S
O475 Cd464 2.439 . S
O475 C469 1.208 . S
O476 Cd477 2.223 . S
O476 C484 1.315 . S
Cd477 O476 2.223 . S
Cd477 O480 2.297 . S
Cd477 O481 2.439 . S
Cd477 O487 2.240 . S
Cd478 O479 2.240 . S
Cd478 O486 2.223 . S
Cd478 O488 2.297 . S
Cd478 O489 2.439 . S
O479 Cd478 2.240 . S
O479 C484 1.279 . S
O480 Cd477 2.297 . S
O480 C482 1.247 . S
O481 Cd477 2.439 . S
O481 C482 1.208 . S
C482 O480 1.247 . S
C482 O481 1.208 . S
C483 O488 1.247 . S
C483 O489 1.208 . S
C484 O476 1.315 . S
C484 O479 1.279 . S
C485 O486 1.315 . S
C485 O487 1.279 . S
O486 Cd478 2.223 . S
O486 C485 1.315 . S
O487 Cd477 2.240 . S
O487 C485 1.279 . S
O488 Cd478 2.297 . S
O488 C483 1.247 . S
O489 Cd478 2.439 . S
O489 C483 1.208 . S
O490 Cd491 2.223 . S
O490 C498 1.315 . S
Cd491 O490 2.223 . S
Cd491 O494 2.297 . S
Cd491 O495 2.439 . S
Cd491 O501 2.240 . S
Cd492 O493 2.240 . S
Cd492 O500 2.223 . S
Cd492 O502 2.297 . S
Cd492 O503 2.439 . S
O493 Cd492 2.240 . S
O493 C498 1.279 . S
O494 Cd491 2.297 . S
O494 C496 1.247 . S
O495 Cd491 2.439 . S
O495 C496 1.208 . S
C496 O494 1.247 . S
C496 O495 1.208 . S
C497 O502 1.247 . S
C497 O503 1.208 . S
C498 O490 1.315 . S
C498 O493 1.279 . S
C499 O500 1.315 . S
C499 O501 1.279 . S
O500 Cd492 2.223 . S
O500 C499 1.315 . S
O501 Cd491 2.240 . S
O501 C499 1.279 . S
O502 Cd492 2.297 . S
O502 C497 1.247 . S
O503 Cd492 2.439 . S
O503 C497 1.208 . S
O504 Cd505 2.223 . S
O504 C512 1.315 . S
Cd505 O504 2.223 . S
Cd505 O508 2.297 . S
Cd505 O509 2.439 . S
Cd505 O515 2.240 . S
Cd506 O507 2.240 . S
Cd506 O514 2.223 . S
Cd506 O516 2.297 . S
Cd506 O517 2.439 . S
O507 Cd506 2.240 . S
O507 C512 1.279 . S
O508 Cd505 2.297 . S
O508 C510 1.247 . S
O509 Cd505 2.439 . S
O509 C510 1.208 . S
C510 O508 1.247 . S
C510 O509 1.208 . S
C511 O516 1.247 . S
C511 O517 1.208 . S
C512 O504 1.315 . S
C512 O507 1.279 . S
C513 O514 1.315 . S
C513 O515 1.279 . S
O514 Cd506 2.223 . S
O514 C513 1.315 . S
O515 Cd505 2.240 . S
O515 C513 1.279 . S
O516 Cd506 2.297 . S
O516 C511 1.247 . S
O517 Cd506 2.439 . S
O517 C511 1.208 . S
O518 Cd519 2.223 . S
O518 C526 1.315 . S
Cd519 O518 2.223 . S
Cd519 O522 2.297 . S
Cd519 O523 2.439 . S
Cd519 O529 2.240 . S
Cd520 O521 2.240 . S
Cd520 O528 2.223 . S
Cd520 O530 2.297 . S
Cd520 O531 2.439 . S
O521 Cd520 2.240 . S
O521 C526 1.279 . S
O522 Cd519 2.297 . S
O522 C524 1.247 . S
O523 Cd519 2.439 . S
O523 C524 1.208 . S
C524 O522 1.247 . S
C524 O523 1.208 . S
C525 O530 1.247 . S
C525 O531 1.208 . S
C526 O518 1.315 . S
C526 O521 1.279 . S
C527 O528 1.315 . S
C527 O529 1.279 . S
O528 Cd520 2.223 . S
O528 C527 1.315 . S
O529 Cd519 2.240 . S
O529 C527 1.279 . S
O530 Cd520 2.297 . S
O530 C525 1.247 . S
O531 Cd520 2.439 . S
O531 C525 1.208 . S
O532 Cd533 2.223 . S
O532 C540 1.315 . S
Cd533 O532 2.223 . S
Cd533 O536 2.297 . S
Cd533 O537 2.439 . S
Cd533 O543 2.240 . S
Cd534 O535 2.240 . S
Cd534 O542 2.223 . S
Cd534 O544 2.297 . S
Cd534 O545 2.439 . S
O535 Cd534 2.240 . S
O535 C540 1.279 . S
O536 Cd533 2.297 . S
O536 C538 1.247 . S
O537 Cd533 2.439 . S
O537 C538 1.208 . S
C538 O536 1.247 . S
C538 O537 1.208 . S
C539 O544 1.247 . S
C539 O545 1.208 . S
C540 O532 1.315 . S
C540 O535 1.279 . S
C541 O542 1.315 . S
C541 O543 1.279 . S
O542 Cd534 2.223 . S
O542 C541 1.315 . S
O543 Cd533 2.240 . S
O543 C541 1.279 . S
O544 Cd534 2.297 . S
O544 C539 1.247 . S
O545 Cd534 2.439 . S
O545 C539 1.208 . S
O546 Cd547 2.223 . S
O546 C554 1.315 . S
Cd547 O546 2.223 . S
Cd547 O550 2.297 . S
Cd547 O551 2.439 . S
Cd547 O557 2.240 . S
Cd548 O549 2.240 . S
Cd548 O556 2.223 . S
Cd548 O558 2.297 . S
Cd548 O559 2.439 . S
O549 Cd548 2.240 . S
O549 C554 1.279 . S
O550 Cd547 2.297 . S
O550 C552 1.247 . S
O551 Cd547 2.439 . S
O551 C552 1.208 . S
C552 O550 1.247 . S
C552 O551 1.208 . S
C553 O558 1.247 . S
C553 O559 1.208 . S
C554 O546 1.315 . S
C554 O549 1.279 . S
C555 O556 1.315 . S
C555 O557 1.279 . S
O556 Cd548 2.223 . S
O556 C555 1.315 . S
O557 Cd547 2.240 . S
O557 C555 1.279 . S
O558 Cd548 2.297 . S
O558 C553 1.247 . S
O559 Cd548 2.439 . S
O559 C553 1.208 . S
O560 Cd561 2.223 . S
O560 C568 1.315 . S
Cd561 O560 2.223 . S
Cd561 O564 2.297 . S
Cd561 O565 2.439 . S
Cd561 O571 2.240 . S
Cd562 O563 2.240 . S
Cd562 O570 2.223 . S
Cd562 O572 2.297 . S
Cd562 O573 2.439 . S
O563 Cd562 2.240 . S
O563 C568 1.279 . S
O564 Cd561 2.297 . S
O564 C566 1.247 . S
O565 Cd561 2.439 . S
O565 C566 1.208 . S
C566 O564 1.247 . S
C566 O565 1.208 . S
C567 O572 1.247 . S
C567 O573 1.208 . S
C568 O560 1.315 . S
C568 O563 1.279 . S
C569 O570 1.315 . S
C569 O571 1.279 . S
O570 Cd562 2.223 . S
O570 C569 1.315 . S
O571 Cd561 2.240 . S
O571 C569 1.279 . S
O572 Cd562 2.297 . S
O572 C567 1.247 . S
O573 Cd562 2.439 . S
O573 C567 1.208 . S
O574 Cd575 2.223 . S
O574 C582 1.315 . S
Cd575 O574 2.223 . S
Cd575 O578 2.297 . S
Cd575 O579 2.439 . S
Cd575 O585 2.240 . S
Cd576 O577 2.240 . S
Cd576 O584 2.223 . S
Cd576 O586 2.297 . S
Cd576 O587 2.439 . S
O577 Cd576 2.240 . S
O577 C582 1.279 . S
O578 Cd575 2.297 . S
O578 C580 1.247 . S
O579 Cd575 2.439 . S
O579 C580 1.208 . S
C580 O578 1.247 . S
C580 O579 1.208 . S
C581 O586 1.247 . S
C581 O587 1.208 . S
C582 O574 1.315 . S
C582 O577 1.279 . S
C583 O584 1.315 . S
C583 O585 1.279 . S
O584 Cd576 2.223 . S
O584 C583 1.315 . S
O585 Cd575 2.240 . S
O585 C583 1.279 . S
O586 Cd576 2.297 . S
O586 C581 1.247 . S
O587 Cd576 2.439 . S
O587 C581 1.208 . S
O588 Cd589 2.223 . S
O588 C596 1.315 . S
Cd589 O588 2.223 . S
Cd589 O592 2.297 . S
Cd589 O593 2.439 . S
Cd589 O599 2.240 . S
Cd590 O591 2.240 . S
Cd590 O598 2.223 . S
Cd590 O600 2.297 . S
Cd590 O601 2.439 . S
O591 Cd590 2.240 . S
O591 C596 1.279 . S
O592 Cd589 2.297 . S
O592 C594 1.247 . S
O593 Cd589 2.439 . S
O593 C594 1.208 . S
C594 O592 1.247 . S
C594 O593 1.208 . S
C595 O600 1.247 . S
C595 O601 1.208 . S
C596 O588 1.315 . S
C596 O591 1.279 . S
C597 O598 1.315 . S
C597 O599 1.279 . S
O598 Cd590 2.223 . S
O598 C597 1.315 . S
O599 Cd589 2.240 . S
O599 C597 1.279 . S
O600 Cd590 2.297 . S
O600 C595 1.247 . S
O601 Cd590 2.439 . S
O601 C595 1.208 . S
O602 Cd603 2.223 . S
O602 C610 1.315 . S
Cd603 O602 2.223 . S
Cd603 O606 2.297 . S
Cd603 O607 2.439 . S
Cd603 O613 2.240 . S
Cd604 O605 2.240 . S
Cd604 O612 2.223 . S
Cd604 O614 2.297 . S
Cd604 O615 2.439 . S
O605 Cd604 2.240 . S
O605 C610 1.279 . S
O606 Cd603 2.297 . S
O606 C608 1.247 . S
O607 Cd603 2.439 . S
O607 C608 1.208 . S
C608 O606 1.247 . S
C608 O607 1.208 . S
C609 O614 1.247 . S
C609 O615 1.208 . S
C610 O602 1.315 . S
C610 O605 1.279 . S
C611 O612 1.315 . S
C611 O613 1.279 . S
O612 Cd604 2.223 . S
O612 C611 1.315 . S
O613 Cd603 2.240 . S
O613 C611 1.279 . S
O614 Cd604 2.297 . S
O614 C609 1.247 . S
O615 Cd604 2.439 . S
O615 C609 1.208 . S
O616 Cd617 2.223 . S
O616 C624 1.315 . S
Cd617 O616 2.223 . S
Cd617 O620 2.297 . S
Cd617 O621 2.439 . S
Cd617 O627 2.240 . S
Cd618 O619 2.240 . S
Cd618 O626 2.223 . S
Cd618 O628 2.297 . S
Cd618 O629 2.439 . S
O619 Cd618 2.240 . S
O619 C624 1.279 . S
O620 Cd617 2.297 . S
O620 C622 1.247 . S
O621 Cd617 2.439 . S
O621 C622 1.208 . S
C622 O620 1.247 . S
C622 O621 1.208 . S
C623 O628 1.247 . S
C623 O629 1.208 . S
C624 O616 1.315 . S
C624 O619 1.279 . S
C625 O626 1.315 . S
C625 O627 1.279 . S
O626 Cd618 2.223 . S
O626 C625 1.315 . S
O627 Cd617 2.240 . S
O627 C625 1.279 . S
O628 Cd618 2.297 . S
O628 C623 1.247 . S
O629 Cd618 2.439 . S
O629 C623 1.208 . S
O630 Cd631 2.223 . S
O630 C638 1.315 . S
Cd631 O630 2.223 . S
Cd631 O634 2.297 . S
Cd631 O635 2.439 . S
Cd631 O641 2.240 . S
Cd632 O633 2.240 . S
Cd632 O640 2.223 . S
Cd632 O642 2.297 . S
Cd632 O643 2.439 . S
O633 Cd632 2.240 . S
O633 C638 1.279 . S
O634 Cd631 2.297 . S
O634 C636 1.247 . S
O635 Cd631 2.439 . S
O635 C636 1.208 . S
C636 O634 1.247 . S
C636 O635 1.208 . S
C637 O642 1.247 . S
C637 O643 1.208 . S
C638 O630 1.315 . S
C638 O633 1.279 . S
C639 O640 1.315 . S
C639 O641 1.279 . S
O640 Cd632 2.223 . S
O640 C639 1.315 . S
O641 Cd631 2.240 . S
O641 C639 1.279 . S
O642 Cd632 2.297 . S
O642 C637 1.247 . S
O643 Cd632 2.439 . S
O643 C637 1.208 . S
O644 Cd645 2.223 . S
O644 C652 1.315 . S
Cd645 O644 2.223 . S
Cd645 O648 2.297 . S
Cd645 O649 2.439 . S
Cd645 O655 2.240 . S
Cd646 O647 2.240 . S
Cd646 O654 2.223 . S
Cd646 O656 2.297 . S
Cd646 O657 2.439 . S
O647 Cd646 2.240 . S
O647 C652 1.279 . S
O648 Cd645 2.297 . S
O648 C650 1.247 . S
O649 Cd645 2.439 . S
O649 C650 1.208 . S
C650 O648 1.247 . S
C650 O649 1.208 . S
C651 O656 1.247 . S
C651 O657 1.208 . S
C652 O644 1.315 . S
C652 O647 1.279 . S
C653 O654 1.315 . S
C653 O655 1.279 . S
O654 Cd646 2.223 . S
O654 C653 1.315 . S
O655 Cd645 2.240 . S
O655 C653 1.279 . S
O656 Cd646 2.297 . S
O656 C651 1.247 . S
O657 Cd646 2.439 . S
O657 C651 1.208 . S
O658 Cd659 2.223 . S
O658 C666 1.315 . S
Cd659 O658 2.223 . S
Cd659 O662 2.297 . S
Cd659 O663 2.439 . S
Cd659 O669 2.240 . S
Cd660 O661 2.240 . S
Cd660 O668 2.223 . S
Cd660 O670 2.297 . S
Cd660 O671 2.439 . S
O661 Cd660 2.240 . S
O661 C666 1.279 . S
O662 Cd659 2.297 . S
O662 C664 1.247 . S
O663 Cd659 2.439 . S
O663 C664 1.208 . S
C664 O662 1.247 . S
C664 O663 1.208 . S
C665 O670 1.247 . S
C665 O671 1.208 . S
C666 O658 1.315 . S
C666 O661 1.279 . S
C667 O668 1.315 . S
C667 O669 1.279 . S
O668 Cd660 2.223 . S
O668 C667 1.315 . S
O669 Cd659 2.240 . S
O669 C667 1.279 . S
O670 Cd660 2.297 . S
O670 C665 1.247 . S
O671 Cd660 2.439 . S
O671 C665 1.208 . S
H672 C680 0.929 . S
H673 C682 0.930 . S
H674 C684 0.930 . S
H675 C687 0.929 . S
H676 C690 0.930 . S
H677 C692 0.960 . S
H678 C692 0.960 . S
H679 C692 0.960 . S
C680 H672 0.929 . S
C680 C681 1.377 . S
C680 C682 1.384 . S
C681 C680 1.377 . S
C681 C687 1.390 . S
C682 H673 0.930 . S
C682 C680 1.384 . S
C682 C683 1.372 . S
C683 C682 1.372 . S
C683 C684 1.400 . S
C683 C688 1.490 . S
C684 H674 0.930 . S
C684 C683 1.400 . S
C684 C687 1.386 . S
H685 C701 0.930 . S
H686 C702 0.931 . S
C687 H675 0.929 . S
C687 C681 1.390 . S
C687 C684 1.386 . S
C688 C683 1.490 . S
C688 C690 1.395 . S
C688 C691 1.403 . S
H689 C695 0.930 . S
C690 H676 0.930 . S
C690 C688 1.395 . S
C690 C693 1.403 . S
C691 C688 1.403 . S
C691 C692 1.524 . S
C691 C695 1.400 . S
C692 H677 0.960 . S
C692 H678 0.960 . S
C692 H679 0.960 . S
C692 C691 1.524 . S
C693 C690 1.403 . S
C693 C694 1.392 . S
C693 C697 1.495 . S
C694 C693 1.392 . S
C694 C695 1.385 . S
C694 C696 1.478 . S
C695 H689 0.930 . S
C695 C691 1.400 . S
C695 C694 1.385 . S
C696 C694 1.478 . S
C696 C698 1.381 . S
C696 C702 1.383 . S
C697 C693 1.495 . S
C697 H703 0.959 . S
C697 H704 0.961 . S
C697 H705 0.960 . S
C698 C696 1.381 . S
C698 C699 1.394 . S
C698 H706 0.930 . S
C699 C698 1.394 . S
C699 C700 1.383 . S
C699 H707 0.929 . S
C700 C699 1.383 . S
C700 C701 1.377 . S
C701 H685 0.930 . S
C701 C700 1.377 . S
C701 C702 1.379 . S
C702 H686 0.931 . S
C702 C696 1.383 . S
C702 C701 1.379 . S
H703 C697 0.959 . S
H704 C697 0.961 . S
H705 C697 0.960 . S
H706 C698 0.930 . S
H707 C699 0.929 . S
H708 C716 0.929 . S
H709 C718 0.930 . S
H710 C720 0.930 . S
H711 C723 0.929 . S
H712 C726 0.948 . S
H713 C728 0.960 . S
H714 C728 0.960 . S
H715 C728 0.960 . S
C716 H708 0.929 . S
C716 C717 1.377 . S
C716 C718 1.384 . S
C717 C716 1.377 . S
C717 C723 1.390 . S
C718 H709 0.930 . S
C718 C716 1.384 . S
C718 C719 1.372 . S
C719 C718 1.372 . S
C719 C720 1.400 . S
C719 C724 1.490 . S
C720 H710 0.930 . S
C720 C719 1.400 . S
C720 C723 1.386 . S
H721 C737 0.930 . S
H722 C738 0.931 . S
C723 H711 0.929 . S
C723 C717 1.390 . S
C723 C720 1.386 . S
C724 C719 1.490 . S
C724 C726 1.446 . S
C724 C727 1.403 . S
H725 C731 0.930 . S
C726 H712 0.948 . S
C726 C724 1.446 . S
C726 C729 1.337 1_455 S
C727 C724 1.403 . S
C727 C728 1.524 . S
C727 C731 1.400 1_455 S
C728 H713 0.960 . S
C728 H714 0.960 . S
C728 H715 0.960 . S
C728 C727 1.524 . S
C729 C726 1.337 1_655 S
C729 C730 1.392 . S
C729 C733 1.495 . S
C730 C729 1.392 . S
C730 C731 1.385 . S
C730 C732 1.478 . S
C731 H725 0.930 . S
C731 C727 1.400 1_655 S
C731 C730 1.385 . S
C732 C730 1.478 . S
C732 C734 1.381 . S
C732 C738 1.383 . S
C733 C729 1.495 . S
C733 H739 0.959 . S
C733 H740 0.961 . S
C733 H741 0.960 . S
C734 C732 1.381 . S
C734 C735 1.394 . S
C734 H742 0.930 . S
C735 C734 1.394 . S
C735 C736 1.383 . S
C735 H743 0.929 . S
C736 C735 1.383 . S
C736 C737 1.377 . S
C737 H721 0.930 . S
C737 C736 1.377 . S
C737 C738 1.379 . S
C738 H722 0.931 . S
C738 C732 1.383 . S
C738 C737 1.379 . S
H739 C733 0.959 . S
H740 C733 0.961 . S
H741 C733 0.960 . S
H742 C734 0.930 . S
H743 C735 0.929 . S
H744 C752 0.929 . S
H745 C754 0.930 . S
H746 C756 0.930 . S
H747 C759 0.929 . S
H748 C762 0.930 . S
H749 C764 0.960 . S
H750 C764 0.960 . S
H751 C764 0.960 . S
C752 H744 0.929 . S
C752 C753 1.377 . S
C752 C754 1.384 . S
C753 C752 1.377 . S
C753 C759 1.390 . S
C754 H745 0.930 . S
C754 C752 1.384 . S
C754 C755 1.372 . S
C755 C754 1.372 . S
C755 C756 1.400 . S
C755 C760 1.490 . S
C756 H746 0.930 . S
C756 C755 1.400 . S
C756 C759 1.386 . S
H757 C773 0.930 . S
H758 C774 0.931 . S
C759 H747 0.929 . S
C759 C753 1.390 . S
C759 C756 1.386 . S
C760 C755 1.490 . S
C760 C762 1.395 . S
C760 C763 1.403 . S
H761 C767 0.930 . S
C762 H748 0.930 . S
C762 C760 1.395 . S
C762 C765 1.403 . S
C763 C760 1.403 . S
C763 C764 1.524 . S
C763 C767 1.400 . S
C764 H749 0.960 . S
C764 H750 0.960 . S
C764 H751 0.960 . S
C764 C763 1.524 . S
C765 C762 1.403 . S
C765 C766 1.392 . S
C765 C769 1.495 . S
C766 C765 1.392 . S
C766 C767 1.385 . S
C766 C768 1.478 . S
C767 H761 0.930 . S
C767 C763 1.400 . S
C767 C766 1.385 . S
C768 C766 1.478 . S
C768 C770 1.381 . S
C768 C774 1.383 . S
C769 C765 1.495 . S
C769 H775 0.959 . S
C769 H776 0.961 . S
C769 H777 0.960 . S
C770 C768 1.381 . S
C770 C771 1.394 . S
C770 H778 0.930 . S
C771 C770 1.394 . S
C771 C772 1.383 . S
C771 H779 0.929 . S
C772 C771 1.383 . S
C772 C773 1.377 . S
C773 H757 0.930 . S
C773 C772 1.377 . S
C773 C774 1.379 . S
C774 H758 0.931 . S
C774 C768 1.383 . S
C774 C773 1.379 . S
H775 C769 0.959 . S
H776 C769 0.961 . S
H777 C769 0.960 . S
H778 C770 0.930 . S
H779 C771 0.929 . S
H780 C788 0.929 . S
H781 C790 0.930 . S
H782 C792 0.930 . S
H783 C795 0.929 . S
H784 C798 0.930 . S
H785 C800 0.960 . S
H786 C800 0.960 . S
H787 C800 0.960 . S
C788 H780 0.929 . S
C788 C789 1.377 . S
C788 C790 1.384 . S
C789 C788 1.377 . S
C789 C795 1.390 . S
C790 H781 0.930 . S
C790 C788 1.384 . S
C790 C791 1.372 . S
C791 C790 1.372 . S
C791 C792 1.400 . S
C791 C796 1.490 . S
C792 H782 0.930 . S
C792 C791 1.400 . S
C792 C795 1.386 . S
H793 C809 0.930 . S
H794 C810 0.931 . S
C795 H783 0.929 . S
C795 C789 1.390 . S
C795 C792 1.386 . S
C796 C791 1.490 . S
C796 C798 1.395 . S
C796 C799 1.403 . S
H797 C803 0.930 . S
C798 H784 0.930 . S
C798 C796 1.395 . S
C798 C801 1.403 . S
C799 C796 1.403 . S
C799 C800 1.524 . S
C799 C803 1.400 . S
C800 H785 0.960 . S
C800 H786 0.960 . S
C800 H787 0.960 . S
C800 C799 1.524 . S
C801 C798 1.403 . S
C801 C802 1.392 . S
C801 C805 1.495 . S
C802 C801 1.392 . S
C802 C803 1.385 . S
C802 C804 1.478 . S
C803 H797 0.930 . S
C803 C799 1.400 . S
C803 C802 1.385 . S
C804 C802 1.478 . S
C804 C806 1.381 . S
C804 C810 1.383 . S
C805 C801 1.495 . S
C805 H811 0.959 . S
C805 H812 0.961 . S
C805 H813 0.960 . S
C806 C804 1.381 . S
C806 C807 1.394 . S
C806 H814 0.930 . S
C807 C806 1.394 . S
C807 C808 1.383 . S
C807 H815 0.929 . S
C808 C807 1.383 . S
C808 C809 1.377 . S
C809 H793 0.930 . S
C809 C808 1.377 . S
C809 C810 1.379 . S
C810 H794 0.931 . S
C810 C804 1.383 . S
C810 C809 1.379 . S
H811 C805 0.959 . S
H812 C805 0.961 . S
H813 C805 0.960 . S
H814 C806 0.930 . S
H815 C807 0.929 . S
H816 C824 0.929 . S
H817 C826 0.930 . S
H818 C828 0.930 . S
H819 C831 0.929 . S
H820 C834 0.930 . S
H821 C836 0.960 . S
H822 C836 0.960 . S
H823 C836 0.960 . S
C824 H816 0.929 . S
C824 C825 1.377 . S
C824 C826 1.384 . S
C825 C824 1.377 . S
C825 C831 1.390 . S
C826 H817 0.930 . S
C826 C824 1.384 . S
C826 C827 1.372 . S
C827 C826 1.372 . S
C827 C828 1.400 . S
C827 C832 1.490 . S
C828 H818 0.930 . S
C828 C827 1.400 . S
C828 C831 1.386 . S
H829 C845 0.930 . S
H830 C846 0.931 . S
C831 H819 0.929 . S
C831 C825 1.390 . S
C831 C828 1.386 . S
C832 C827 1.490 . S
C832 C834 1.395 . S
C832 C835 1.403 . S
H833 C839 0.930 . S
C834 H820 0.930 . S
C834 C832 1.395 . S
C834 C837 1.403 . S
C835 C832 1.403 . S
C835 C836 1.524 . S
C835 C839 1.400 . S
C836 H821 0.960 . S
C836 H822 0.960 . S
C836 H823 0.960 . S
C836 C835 1.524 . S
C837 C834 1.403 . S
C837 C838 1.392 . S
C837 C841 1.495 . S
C838 C837 1.392 . S
C838 C839 1.385 . S
C838 C840 1.478 . S
C839 H833 0.930 . S
C839 C835 1.400 . S
C839 C838 1.385 . S
C840 C838 1.478 . S
C840 C842 1.381 . S
C840 C846 1.383 . S
C841 C837 1.495 . S
C841 H847 0.959 . S
C841 H848 0.961 . S
C841 H849 0.960 . S
C842 C840 1.381 . S
C842 C843 1.394 . S
C842 H850 0.930 . S
C843 C842 1.394 . S
C843 C844 1.383 . S
C843 H851 0.929 . S
C844 C843 1.383 . S
C844 C845 1.377 . S
C845 H829 0.930 . S
C845 C844 1.377 . S
C845 C846 1.379 . S
C846 H830 0.931 . S
C846 C840 1.383 . S
C846 C845 1.379 . S
H847 C841 0.959 . S
H848 C841 0.961 . S
H849 C841 0.960 . S
H850 C842 0.930 . S
H851 C843 0.929 . S
H852 C860 0.929 . S
H853 C862 0.930 . S
H854 C864 0.930 . S
H855 C867 0.929 . S
H856 C870 0.930 . S
H857 C872 0.960 . S
H858 C872 0.960 . S
H859 C872 0.960 . S
C860 H852 0.929 . S
C860 C861 1.377 . S
C860 C862 1.384 . S
C861 C860 1.377 . S
C861 C867 1.390 . S
C862 H853 0.930 . S
C862 C860 1.384 . S
C862 C863 1.372 . S
C863 C862 1.372 . S
C863 C864 1.400 . S
C863 C868 1.490 . S
C864 H854 0.930 . S
C864 C863 1.400 . S
C864 C867 1.386 . S
H865 C881 0.930 . S
H866 C882 0.931 . S
C867 H855 0.929 . S
C867 C861 1.390 . S
C867 C864 1.386 . S
C868 C863 1.490 . S
C868 C870 1.395 . S
C868 C871 1.403 . S
H869 C875 0.930 . S
C870 H856 0.930 . S
C870 C868 1.395 . S
C870 C873 1.403 . S
C871 C868 1.403 . S
C871 C872 1.524 . S
C871 C875 1.400 . S
C872 H857 0.960 . S
C872 H858 0.960 . S
C872 H859 0.960 . S
C872 C871 1.524 . S
C873 C870 1.403 . S
C873 C874 1.392 . S
C873 C877 1.495 . S
C874 C873 1.392 . S
C874 C875 1.385 . S
C874 C876 1.478 . S
C875 H869 0.930 . S
C875 C871 1.400 . S
C875 C874 1.385 . S
C876 C874 1.478 . S
C876 C878 1.381 . S
C876 C882 1.383 . S
C877 C873 1.495 . S
C877 H883 0.959 . S
C877 H884 0.961 . S
C877 H885 0.960 . S
C878 C876 1.381 . S
C878 C879 1.394 . S
C878 H886 0.930 . S
C879 C878 1.394 . S
C879 C880 1.383 . S
C879 H887 0.929 . S
C880 C879 1.383 . S
C880 C881 1.377 . S
C881 H865 0.930 . S
C881 C880 1.377 . S
C881 C882 1.379 . S
C882 H866 0.931 . S
C882 C876 1.383 . S
C882 C881 1.379 . S
H883 C877 0.959 . S
H884 C877 0.961 . S
H885 C877 0.960 . S
H886 C878 0.930 . S
H887 C879 0.929 . S
H888 C896 0.929 . S
H889 C898 0.930 . S
H890 C900 0.930 . S
H891 C903 0.929 . S
H892 C906 0.930 . S
H893 C908 0.960 . S
H894 C908 0.960 . S
H895 C908 0.960 . S
C896 H888 0.929 . S
C896 C897 1.377 . S
C896 C898 1.384 . S
C897 C896 1.377 . S
C897 C903 1.390 . S
C898 H889 0.930 . S
C898 C896 1.384 . S
C898 C899 1.372 . S
C899 C898 1.372 . S
C899 C900 1.400 . S
C899 C904 1.490 . S
C900 H890 0.930 . S
C900 C899 1.400 . S
C900 C903 1.386 . S
H901 C917 0.930 . S
H902 C918 0.931 . S
C903 H891 0.929 . S
C903 C897 1.390 . S
C903 C900 1.386 . S
C904 C899 1.490 . S
C904 C906 1.395 . S
C904 C907 1.403 . S
H905 C911 0.930 . S
C906 H892 0.930 . S
C906 C904 1.395 . S
C906 C909 1.403 . S
C907 C904 1.403 . S
C907 C908 1.524 . S
C907 C911 1.400 . S
C908 H893 0.960 . S
C908 H894 0.960 . S
C908 H895 0.960 . S
C908 C907 1.524 . S
C909 C906 1.403 . S
C909 C910 1.392 . S
C909 C913 1.495 . S
C910 C909 1.392 . S
C910 C911 1.385 . S
C910 C912 1.478 . S
C911 H905 0.930 . S
C911 C907 1.400 . S
C911 C910 1.385 . S
C912 C910 1.478 . S
C912 C914 1.381 . S
C912 C918 1.383 . S
C913 C909 1.495 . S
C913 H919 0.959 . S
C913 H920 0.961 . S
C913 H921 0.960 . S
C914 C912 1.381 . S
C914 C915 1.394 . S
C914 H922 0.930 . S
C915 C914 1.394 . S
C915 C916 1.383 . S
C915 H923 0.929 . S
C916 C915 1.383 . S
C916 C917 1.377 . S
C917 H901 0.930 . S
C917 C916 1.377 . S
C917 C918 1.379 . S
C918 H902 0.931 . S
C918 C912 1.383 . S
C918 C917 1.379 . S
H919 C913 0.959 . S
H920 C913 0.961 . S
H921 C913 0.960 . S
H922 C914 0.930 . S
H923 C915 0.929 . S
H924 C932 0.929 . S
H925 C934 0.930 . S
H926 C936 0.930 . S
H927 C939 0.929 . S
H928 C942 0.930 . S
H929 C944 0.960 1_655 S
H930 C944 0.960 . S
H931 C944 0.960 . S
C932 H924 0.929 . S
C932 C933 1.377 . S
C932 C934 1.384 . S
C933 C932 1.377 . S
C933 C939 1.390 . S
C934 H925 0.930 . S
C934 C932 1.384 . S
C934 C935 1.372 . S
C935 C934 1.372 . S
C935 C936 1.400 . S
C935 C940 1.490 1_455 S
C936 H926 0.930 . S
C936 C935 1.400 . S
C936 C939 1.386 . S
H937 C953 0.930 . S
H938 C954 0.931 . S
C939 H927 0.929 . S
C939 C933 1.390 . S
C939 C936 1.386 . S
C940 C935 1.490 1_655 S
C940 C942 1.395 . S
C940 C943 1.403 . S
H941 C947 0.930 . S
C942 H928 0.930 . S
C942 C940 1.395 . S
C942 C945 1.403 . S
C943 C940 1.403 . S
C943 C944 1.524 1_655 S
C943 C947 1.400 . S
C944 H929 0.960 1_455 S
C944 H930 0.960 . S
C944 H931 0.960 . S
C944 C943 1.524 1_455 S
C945 C942 1.403 . S
C945 C946 1.392 . S
C945 C949 1.495 . S
C946 C945 1.392 . S
C946 C947 1.385 . S
C946 C948 1.478 . S
C947 H941 0.930 . S
C947 C943 1.400 . S
C947 C946 1.385 . S
C948 C946 1.478 . S
C948 C950 1.381 . S
C948 C954 1.383 . S
C949 C945 1.495 . S
C949 H955 0.959 . S
C949 H956 0.961 . S
C949 H957 0.960 . S
C950 C948 1.381 . S
C950 C951 1.394 . S
C950 H958 0.930 . S
C951 C950 1.394 . S
C951 C952 1.383 . S
C951 H959 0.929 . S
C952 C951 1.383 . S
C952 C953 1.377 . S
C953 H937 0.930 . S
C953 C952 1.377 . S
C953 C954 1.379 . S
C954 H938 0.931 . S
C954 C948 1.383 . S
C954 C953 1.379 . S
H955 C949 0.959 . S
H956 C949 0.961 . S
H957 C949 0.960 . S
H958 C950 0.930 . S
H959 C951 0.929 . S
H960 C968 0.929 . S
H961 C970 0.930 . S
H962 C972 0.930 . S
H963 C975 0.929 . S
H964 C978 0.930 . S
H965 C980 0.960 . S
H966 C980 0.960 . S
H967 C980 0.960 . S
C968 H960 0.929 . S
C968 C969 1.377 . S
C968 C970 1.384 . S
C969 C968 1.377 . S
C969 C975 1.390 . S
C970 H961 0.930 . S
C970 C968 1.384 . S
C970 C971 1.372 . S
C971 C970 1.372 . S
C971 C972 1.400 . S
C971 C976 1.490 . S
C972 H962 0.930 . S
C972 C971 1.400 . S
C972 C975 1.386 . S
H973 C989 0.930 . S
H974 C990 0.931 . S
C975 H963 0.929 . S
C975 C969 1.390 . S
C975 C972 1.386 . S
C976 C971 1.490 . S
C976 C978 1.395 . S
C976 C979 1.403 . S
H977 C983 0.930 . S
C978 H964 0.930 . S
C978 C976 1.395 . S
C978 C981 1.403 . S
C979 C976 1.403 . S
C979 C980 1.524 . S
C979 C983 1.400 . S
C980 H965 0.960 . S
C980 H966 0.960 . S
C980 H967 0.960 . S
C980 C979 1.524 . S
C981 C978 1.403 . S
C981 C982 1.392 . S
C981 C985 1.495 . S
C982 C981 1.392 . S
C982 C983 1.385 . S
C982 C984 1.478 . S
C983 H977 0.930 . S
C983 C979 1.400 . S
C983 C982 1.385 . S
C984 C982 1.478 . S
C984 C986 1.381 . S
C984 C990 1.383 . S
C985 C981 1.495 . S
C985 H991 0.959 . S
C985 H992 0.961 . S
C985 H993 0.960 . S
C986 C984 1.381 . S
C986 C987 1.394 . S
C986 H994 0.930 . S
C987 C986 1.394 . S
C987 C988 1.383 . S
C987 H995 0.929 . S
C988 C987 1.383 . S
C988 C989 1.377 . S
C989 H973 0.930 . S
C989 C988 1.377 . S
C989 C990 1.379 . S
C990 H974 0.931 . S
C990 C984 1.383 . S
C990 C989 1.379 . S
H991 C985 0.959 . S
H992 C985 0.961 . S
H993 C985 0.960 . S
H994 C986 0.930 . S
H995 C987 0.929 . S
H996 C1004 0.929 . S
H997 C1006 0.930 . S
H998 C1008 0.930 . S
H999 C1011 0.929 . S
H1000 C1014 0.930 . S
H1001 C1016 0.960 . S
H1002 C1016 0.960 . S
H1003 C1016 0.960 . S
C1004 H996 0.929 . S
C1004 C1005 1.377 . S
C1004 C1006 1.384 . S
C1005 C1004 1.377 . S
C1005 C1011 1.390 . S
C1006 H997 0.930 . S
C1006 C1004 1.384 . S
C1006 C1007 1.372 . S
C1007 C1006 1.372 . S
C1007 C1008 1.400 . S
C1007 C1012 1.490 . S
C1008 H998 0.930 . S
C1008 C1007 1.400 . S
C1008 C1011 1.386 . S
H1009 C1025 0.930 . S
H1010 C1026 0.931 . S
C1011 H999 0.929 . S
C1011 C1005 1.390 . S
C1011 C1008 1.386 . S
C1012 C1007 1.490 . S
C1012 C1014 1.395 . S
C1012 C1015 1.403 . S
H1013 C1019 0.930 . S
C1014 H1000 0.930 . S
C1014 C1012 1.395 . S
C1014 C1017 1.403 . S
C1015 C1012 1.403 . S
C1015 C1016 1.524 . S
C1015 C1019 1.400 . S
C1016 H1001 0.960 . S
C1016 H1002 0.960 . S
C1016 H1003 0.960 . S
C1016 C1015 1.524 . S
C1017 C1014 1.403 . S
C1017 C1018 1.392 . S
C1017 C1021 1.495 . S
C1018 C1017 1.392 . S
C1018 C1019 1.385 . S
C1018 C1020 1.478 . S
C1019 H1013 0.930 . S
C1019 C1015 1.400 . S
C1019 C1018 1.385 . S
C1020 C1018 1.478 . S
C1020 C1022 1.381 . S
C1020 C1026 1.383 . S
C1021 C1017 1.495 . S
C1021 H1027 0.959 . S
C1021 H1028 0.961 . S
C1021 H1029 0.960 . S
C1022 C1020 1.381 . S
C1022 C1023 1.394 . S
C1022 H1030 0.930 . S
C1023 C1022 1.394 . S
C1023 C1024 1.383 . S
C1023 H1031 0.929 . S
C1024 C1023 1.383 . S
C1024 C1025 1.377 . S
C1025 H1009 0.930 . S
C1025 C1024 1.377 . S
C1025 C1026 1.379 . S
C1026 H1010 0.931 . S
C1026 C1020 1.383 . S
C1026 C1025 1.379 . S
H1027 C1021 0.959 . S
H1028 C1021 0.961 . S
H1029 C1021 0.960 . S
H1030 C1022 0.930 . S
H1031 C1023 0.929 . S
H1032 C1040 0.929 . S
H1033 C1042 0.930 . S
H1034 C1044 0.930 . S
H1035 C1047 0.929 . S
H1036 C1050 0.930 . S
H1037 C1052 0.960 . S
H1038 C1052 0.960 . S
H1039 C1052 0.960 . S
C1040 H1032 0.929 . S
C1040 C1041 1.377 . S
C1040 C1042 1.384 . S
C1041 C1040 1.377 . S
C1041 C1047 1.390 . S
C1042 H1033 0.930 . S
C1042 C1040 1.384 . S
C1042 C1043 1.372 . S
C1043 C1042 1.372 . S
C1043 C1044 1.400 . S
C1043 C1048 1.490 . S
C1044 H1034 0.930 . S
C1044 C1043 1.400 . S
C1044 C1047 1.386 . S
H1045 C1061 0.930 . S
H1046 C1062 0.931 . S
C1047 H1035 0.929 . S
C1047 C1041 1.390 . S
C1047 C1044 1.386 . S
C1048 C1043 1.490 . S
C1048 C1050 1.395 . S
C1048 C1051 1.403 . S
H1049 C1055 0.930 . S
C1050 H1036 0.930 . S
C1050 C1048 1.395 . S
C1050 C1053 1.403 . S
C1051 C1048 1.403 . S
C1051 C1052 1.524 . S
C1051 C1055 1.400 . S
C1052 H1037 0.960 . S
C1052 H1038 0.960 . S
C1052 H1039 0.960 . S
C1052 C1051 1.524 . S
C1053 C1050 1.403 . S
C1053 C1054 1.392 . S
C1053 C1057 1.495 . S
C1054 C1053 1.392 . S
C1054 C1055 1.385 . S
C1054 C1056 1.478 . S
C1055 H1049 0.930 . S
C1055 C1051 1.400 . S
C1055 C1054 1.385 . S
C1056 C1054 1.478 . S
C1056 C1058 1.381 . S
C1056 C1062 1.383 . S
C1057 C1053 1.495 . S
C1057 H1063 0.959 . S
C1057 H1064 0.961 . S
C1057 H1065 0.960 . S
C1058 C1056 1.381 . S
C1058 C1059 1.394 . S
C1058 H1066 0.930 . S
C1059 C1058 1.394 . S
C1059 C1060 1.383 . S
C1059 H1067 0.929 . S
C1060 C1059 1.383 . S
C1060 C1061 1.377 . S
C1061 H1045 0.930 . S
C1061 C1060 1.377 . S
C1061 C1062 1.379 . S
C1062 H1046 0.931 . S
C1062 C1056 1.383 . S
C1062 C1061 1.379 . S
H1063 C1057 0.959 . S
H1064 C1057 0.961 . S
H1065 C1057 0.960 . S
H1066 C1058 0.930 . S
H1067 C1059 0.929 . S
H1068 C1076 0.929 . S
H1069 C1078 0.930 . S
H1070 C1080 0.930 . S
H1071 C1083 0.929 . S
H1072 C1086 0.930 . S
H1073 C1088 0.960 1_554 S
H1074 C1088 0.960 . S
H1075 C1088 0.960 . S
C1076 H1068 0.929 . S
C1076 C1077 1.377 . S
C1076 C1078 1.384 . S
C1077 C1076 1.377 . S
C1077 C1083 1.390 . S
C1078 H1069 0.930 . S
C1078 C1076 1.384 . S
C1078 C1079 1.372 . S
C1079 C1078 1.372 . S
C1079 C1080 1.400 . S
C1079 C1084 1.490 . S
C1080 H1070 0.930 . S
C1080 C1079 1.400 . S
C1080 C1083 1.386 . S
H1081 C1097 0.930 . S
H1082 C1098 0.931 . S
C1083 H1071 0.929 . S
C1083 C1077 1.390 . S
C1083 C1080 1.386 . S
C1084 C1079 1.490 . S
C1084 C1086 1.395 . S
C1084 C1087 1.366 1_556 S
H1085 C1091 0.930 . S
C1086 H1072 0.930 . S
C1086 C1084 1.395 . S
C1086 C1089 1.403 1_556 S
C1087 C1084 1.366 1_554 S
C1087 C1088 1.503 1_554 S
C1087 C1091 1.462 . S
C1088 H1073 0.960 1_556 S
C1088 H1074 0.960 . S
C1088 H1075 0.960 . S
C1088 C1087 1.503 1_556 S
C1089 C1086 1.403 1_554 S
C1089 C1090 1.392 . S
C1089 C1093 1.495 . S
C1090 C1089 1.392 . S
C1090 C1091 1.385 . S
C1090 C1092 1.478 . S
C1091 H1085 0.930 . S
C1091 C1087 1.462 . S
C1091 C1090 1.385 . S
C1092 C1090 1.478 . S
C1092 C1094 1.381 . S
C1092 C1098 1.383 . S
C1093 C1089 1.495 . S
C1093 H1099 0.959 . S
C1093 H1100 0.961 . S
C1093 H1101 0.960 . S
C1094 C1092 1.381 . S
C1094 C1095 1.394 . S
C1094 H1102 0.930 . S
C1095 C1094 1.394 . S
C1095 C1096 1.383 . S
C1095 H1103 0.929 . S
C1096 C1095 1.383 . S
C1096 C1097 1.377 . S
C1097 H1081 0.930 . S
C1097 C1096 1.377 . S
C1097 C1098 1.379 . S
C1098 H1082 0.931 . S
C1098 C1092 1.383 . S
C1098 C1097 1.379 . S
H1099 C1093 0.959 . S
H1100 C1093 0.961 . S
H1101 C1093 0.960 . S
H1102 C1094 0.930 . S
H1103 C1095 0.929 . S
H1104 C1112 0.929 . S
H1105 C1114 0.930 . S
H1106 C1116 0.930 . S
H1107 C1119 0.929 . S
H1108 C1122 0.930 . S
H1109 C1124 0.960 . S
H1110 C1124 0.960 . S
H1111 C1124 0.960 . S
C1112 H1104 0.929 . S
C1112 C1113 1.377 . S
C1112 C1114 1.384 . S
C1113 C1112 1.377 . S
C1113 C1119 1.390 . S
C1114 H1105 0.930 . S
C1114 C1112 1.384 . S
C1114 C1115 1.372 . S
C1115 C1114 1.372 . S
C1115 C1116 1.400 . S
C1115 C1120 1.490 . S
C1116 H1106 0.930 . S
C1116 C1115 1.400 . S
C1116 C1119 1.386 . S
H1117 C1133 0.930 . S
H1118 C1134 0.931 . S
C1119 H1107 0.929 . S
C1119 C1113 1.390 . S
C1119 C1116 1.386 . S
C1120 C1115 1.490 . S
C1120 C1122 1.395 . S
C1120 C1123 1.403 . S
H1121 C1127 0.930 . S
C1122 H1108 0.930 . S
C1122 C1120 1.395 . S
C1122 C1125 1.403 . S
C1123 C1120 1.403 . S
C1123 C1124 1.524 . S
C1123 C1127 1.400 . S
C1124 H1109 0.960 . S
C1124 H1110 0.960 . S
C1124 H1111 0.960 . S
C1124 C1123 1.524 . S
C1125 C1122 1.403 . S
C1125 C1126 1.392 . S
C1125 C1129 1.495 . S
C1126 C1125 1.392 . S
C1126 C1127 1.385 . S
C1126 C1128 1.478 . S
C1127 H1121 0.930 . S
C1127 C1123 1.400 . S
C1127 C1126 1.385 . S
C1128 C1126 1.478 . S
C1128 C1130 1.381 . S
C1128 C1134 1.383 . S
C1129 C1125 1.495 . S
C1129 H1135 0.959 . S
C1129 H1136 0.961 . S
C1129 H1137 0.960 . S
C1130 C1128 1.381 . S
C1130 C1131 1.394 . S
C1130 H1138 0.930 . S
C1131 C1130 1.394 . S
C1131 C1132 1.383 . S
C1131 H1139 0.929 . S
C1132 C1131 1.383 . S
C1132 C1133 1.377 . S
C1133 H1117 0.930 . S
C1133 C1132 1.377 . S
C1133 C1134 1.379 . S
C1134 H1118 0.931 . S
C1134 C1128 1.383 . S
C1134 C1133 1.379 . S
H1135 C1129 0.959 . S
H1136 C1129 0.961 . S
H1137 C1129 0.960 . S
H1138 C1130 0.930 . S
H1139 C1131 0.929 . S
H1140 C1148 0.929 . S
H1141 C1150 0.930 . S
H1142 C1152 0.930 . S
H1143 C1155 0.929 . S
H1144 C1158 0.930 . S
H1145 C1160 0.960 . S
H1146 C1160 0.960 . S
H1147 C1160 0.960 . S
C1148 H1140 0.929 . S
C1148 C1149 1.377 . S
C1148 C1150 1.384 . S
C1149 C1148 1.377 . S
C1149 C1155 1.390 . S
C1150 H1141 0.930 . S
C1150 C1148 1.384 . S
C1150 C1151 1.372 . S
C1151 C1150 1.372 . S
C1151 C1152 1.400 . S
C1151 C1156 1.490 . S
C1152 H1142 0.930 . S
C1152 C1151 1.400 . S
C1152 C1155 1.386 . S
H1153 C1169 0.930 . S
H1154 C1170 0.931 . S
C1155 H1143 0.929 . S
C1155 C1149 1.390 . S
C1155 C1152 1.386 . S
C1156 C1151 1.490 . S
C1156 C1158 1.395 . S
C1156 C1159 1.403 . S
H1157 C1163 0.930 . S
C1158 H1144 0.930 . S
C1158 C1156 1.395 . S
C1158 C1161 1.403 . S
C1159 C1156 1.403 . S
C1159 C1160 1.524 . S
C1159 C1163 1.400 . S
C1160 H1145 0.960 . S
C1160 H1146 0.960 . S
C1160 H1147 0.960 . S
C1160 C1159 1.524 . S
C1161 C1158 1.403 . S
C1161 C1162 1.392 . S
C1161 C1165 1.495 . S
C1162 C1161 1.392 . S
C1162 C1163 1.385 . S
C1162 C1164 1.478 . S
C1163 H1157 0.930 . S
C1163 C1159 1.400 . S
C1163 C1162 1.385 . S
C1164 C1162 1.478 . S
C1164 C1166 1.381 . S
C1164 C1170 1.383 . S
C1165 C1161 1.495 . S
C1165 H1171 0.959 . S
C1165 H1172 0.961 . S
C1165 H1173 0.960 . S
C1166 C1164 1.381 . S
C1166 C1167 1.394 . S
C1166 H1174 0.930 . S
C1167 C1166 1.394 . S
C1167 C1168 1.383 . S
C1167 H1175 0.929 . S
C1168 C1167 1.383 . S
C1168 C1169 1.377 . S
C1169 H1153 0.930 . S
C1169 C1168 1.377 . S
C1169 C1170 1.379 . S
C1170 H1154 0.931 . S
C1170 C1164 1.383 . S
C1170 C1169 1.379 . S
H1171 C1165 0.959 . S
H1172 C1165 0.961 . S
H1173 C1165 0.960 . S
H1174 C1166 0.930 . S
H1175 C1167 0.929 . S
H1176 C1184 0.929 . S
H1177 C1186 0.930 . S
H1178 C1188 0.930 . S
H1179 C1191 0.929 . S
H1180 C1194 0.930 . S
H1181 C1196 0.960 . S
H1182 C1196 0.960 . S
H1183 C1196 0.960 . S
C1184 H1176 0.929 . S
C1184 C1185 1.377 . S
C1184 C1186 1.384 . S
C1185 C1184 1.377 . S
C1185 C1191 1.390 . S
C1186 H1177 0.930 . S
C1186 C1184 1.384 . S
C1186 C1187 1.372 . S
C1187 C1186 1.372 . S
C1187 C1188 1.400 . S
C1187 C1192 1.490 . S
C1188 H1178 0.930 . S
C1188 C1187 1.400 . S
C1188 C1191 1.386 . S
H1189 C1205 0.930 . S
H1190 C1206 0.931 . S
C1191 H1179 0.929 . S
C1191 C1185 1.390 . S
C1191 C1188 1.386 . S
C1192 C1187 1.490 . S
C1192 C1194 1.395 . S
C1192 C1195 1.403 . S
H1193 C1199 0.930 . S
C1194 H1180 0.930 . S
C1194 C1192 1.395 . S
C1194 C1197 1.403 . S
C1195 C1192 1.403 . S
C1195 C1196 1.524 . S
C1195 C1199 1.400 . S
C1196 H1181 0.960 . S
C1196 H1182 0.960 . S
C1196 H1183 0.960 . S
C1196 C1195 1.524 . S
C1197 C1194 1.403 . S
C1197 C1198 1.392 . S
C1197 C1201 1.495 . S
C1198 C1197 1.392 . S
C1198 C1199 1.385 . S
C1198 C1200 1.478 . S
C1199 H1193 0.930 . S
C1199 C1195 1.400 . S
C1199 C1198 1.385 . S
C1200 C1198 1.478 . S
C1200 C1202 1.381 . S
C1200 C1206 1.383 . S
C1201 C1197 1.495 . S
C1201 H1207 0.959 . S
C1201 H1208 0.961 . S
C1201 H1209 0.960 . S
C1202 C1200 1.381 . S
C1202 C1203 1.394 . S
C1202 H1210 0.930 . S
C1203 C1202 1.394 . S
C1203 C1204 1.383 . S
C1203 H1211 0.929 . S
C1204 C1203 1.383 . S
C1204 C1205 1.377 . S
C1205 H1189 0.930 . S
C1205 C1204 1.377 . S
C1205 C1206 1.379 . S
C1206 H1190 0.931 . S
C1206 C1200 1.383 . S
C1206 C1205 1.379 . S
H1207 C1201 0.959 . S
H1208 C1201 0.961 . S
H1209 C1201 0.960 . S
H1210 C1202 0.930 . S
H1211 C1203 0.929 . S
H1212 C1220 0.929 . S
H1213 C1222 0.930 . S
H1214 C1224 0.930 . S
H1215 C1227 0.929 . S
H1216 C1230 0.930 . S
H1217 C1232 0.960 . S
H1218 C1232 0.960 . S
H1219 C1232 0.960 . S
C1220 H1212 0.929 . S
C1220 C1221 1.377 . S
C1220 C1222 1.384 . S
C1221 C1220 1.377 . S
C1221 C1227 1.390 . S
C1222 H1213 0.930 . S
C1222 C1220 1.384 . S
C1222 C1223 1.372 . S
C1223 C1222 1.372 . S
C1223 C1224 1.400 . S
C1223 C1228 1.490 . S
C1224 H1214 0.930 . S
C1224 C1223 1.400 . S
C1224 C1227 1.386 . S
H1225 C1241 0.930 . S
H1226 C1242 0.931 . S
C1227 H1215 0.929 . S
C1227 C1221 1.390 . S
C1227 C1224 1.386 . S
C1228 C1223 1.490 . S
C1228 C1230 1.395 . S
C1228 C1231 1.403 . S
H1229 C1235 0.930 . S
C1230 H1216 0.930 . S
C1230 C1228 1.395 . S
C1230 C1233 1.403 1_554 S
C1231 C1228 1.403 . S
C1231 C1232 1.524 . S
C1231 C1235 1.400 1_554 S
C1232 H1217 0.960 . S
C1232 H1218 0.960 . S
C1232 H1219 0.960 . S
C1232 C1231 1.524 . S
C1233 C1230 1.403 1_556 S
C1233 C1234 1.392 . S
C1233 C1237 1.495 . S
C1234 C1233 1.392 . S
C1234 C1235 1.385 . S
C1234 C1236 1.478 . S
C1235 H1229 0.930 . S
C1235 C1231 1.400 1_556 S
C1235 C1234 1.385 . S
C1236 C1234 1.478 . S
C1236 C1238 1.381 . S
C1236 C1242 1.383 . S
C1237 C1233 1.495 . S
C1237 H1243 0.959 . S
C1237 H1244 0.961 . S
C1237 H1245 0.960 . S
C1238 C1236 1.381 . S
C1238 C1239 1.394 . S
C1238 H1246 0.930 . S
C1239 C1238 1.394 . S
C1239 C1240 1.383 . S
C1239 H1247 0.929 . S
C1240 C1239 1.383 . S
C1240 C1241 1.377 . S
C1241 H1225 0.930 . S
C1241 C1240 1.377 . S
C1241 C1242 1.379 . S
C1242 H1226 0.931 . S
C1242 C1236 1.383 . S
C1242 C1241 1.379 . S
H1243 C1237 0.959 . S
H1244 C1237 0.961 . S
H1245 C1237 0.960 . S
H1246 C1238 0.930 . S
H1247 C1239 0.929 . S
H1248 C1256 0.929 . S
H1249 C1258 0.930 . S
H1250 C1260 0.930 . S
H1251 C1263 0.929 . S
H1252 C1266 0.930 . S
H1253 C1268 0.960 . S
H1254 C1268 0.960 . S
H1255 C1268 0.960 . S
C1256 H1248 0.929 . S
C1256 C1257 1.377 . S
C1256 C1258 1.384 . S
C1257 C1256 1.377 . S
C1257 C1263 1.390 . S
C1258 H1249 0.930 . S
C1258 C1256 1.384 . S
C1258 C1259 1.372 . S
C1259 C1258 1.372 . S
C1259 C1260 1.400 . S
C1259 C1264 1.490 . S
C1260 H1250 0.930 . S
C1260 C1259 1.400 . S
C1260 C1263 1.386 . S
H1261 C1277 0.930 . S
H1262 C1278 0.931 . S
C1263 H1251 0.929 . S
C1263 C1257 1.390 . S
C1263 C1260 1.386 . S
C1264 C1259 1.490 . S
C1264 C1266 1.395 . S
C1264 C1267 1.403 . S
H1265 C1271 0.930 . S
C1266 H1252 0.930 . S
C1266 C1264 1.395 . S
C1266 C1269 1.403 . S
C1267 C1264 1.403 . S
C1267 C1268 1.524 . S
C1267 C1271 1.400 . S
C1268 H1253 0.960 . S
C1268 H1254 0.960 . S
C1268 H1255 0.960 . S
C1268 C1267 1.524 . S
C1269 C1266 1.403 . S
C1269 C1270 1.392 . S
C1269 C1273 1.495 . S
C1270 C1269 1.392 . S
C1270 C1271 1.385 . S
C1270 C1272 1.478 . S
C1271 H1265 0.930 . S
C1271 C1267 1.400 . S
C1271 C1270 1.385 . S
C1272 C1270 1.478 . S
C1272 C1274 1.381 . S
C1272 C1278 1.383 . S
C1273 C1269 1.495 . S
C1273 H1279 0.959 . S
C1273 H1280 0.961 . S
C1273 H1281 0.960 . S
C1274 C1272 1.381 . S
C1274 C1275 1.394 . S
C1274 H1282 0.930 . S
C1275 C1274 1.394 . S
C1275 C1276 1.383 . S
C1275 H1283 0.929 . S
C1276 C1275 1.383 . S
C1276 C1277 1.377 . S
C1277 H1261 0.930 . S
C1277 C1276 1.377 . S
C1277 C1278 1.379 . S
C1278 H1262 0.931 . S
C1278 C1272 1.383 . S
C1278 C1277 1.379 . S
H1279 C1273 0.959 . S
H1280 C1273 0.961 . S
H1281 C1273 0.960 . S
H1282 C1274 0.930 . S
H1283 C1275 0.929 . S
H1284 C1292 0.929 . S
H1285 C1294 0.930 . S
H1286 C1296 0.930 . S
H1287 C1299 0.929 . S
H1288 C1302 0.930 . S
H1289 C1304 0.960 . S
H1290 C1304 0.960 . S
H1291 C1304 0.960 . S
C1292 H1284 0.929 . S
C1292 C1293 1.377 . S
C1292 C1294 1.384 . S
C1293 C1292 1.377 . S
C1293 C1299 1.390 . S
C1294 H1285 0.930 . S
C1294 C1292 1.384 . S
C1294 C1295 1.372 . S
C1295 C1294 1.372 . S
C1295 C1296 1.400 . S
C1295 C1300 1.490 . S
C1296 H1286 0.930 . S
C1296 C1295 1.400 . S
C1296 C1299 1.386 . S
H1297 C1313 0.930 . S
H1298 C1314 0.931 . S
C1299 H1287 0.929 . S
C1299 C1293 1.390 . S
C1299 C1296 1.386 . S
C1300 C1295 1.490 . S
C1300 C1302 1.395 . S
C1300 C1303 1.403 . S
H1301 C1307 0.930 . S
C1302 H1288 0.930 . S
C1302 C1300 1.395 . S
C1302 C1305 1.403 . S
C1303 C1300 1.403 . S
C1303 C1304 1.524 . S
C1303 C1307 1.400 . S
C1304 H1289 0.960 . S
C1304 H1290 0.960 . S
C1304 H1291 0.960 . S
C1304 C1303 1.524 . S
C1305 C1302 1.403 . S
C1305 C1306 1.392 . S
C1305 C1309 1.495 . S
C1306 C1305 1.392 . S
C1306 C1307 1.385 . S
C1306 C1308 1.478 . S
C1307 H1301 0.930 . S
C1307 C1303 1.400 . S
C1307 C1306 1.385 . S
C1308 C1306 1.478 . S
C1308 C1310 1.381 . S
C1308 C1314 1.383 . S
C1309 C1305 1.495 . S
C1309 H1315 0.959 . S
C1309 H1316 0.961 . S
C1309 H1317 0.960 . S
C1310 C1308 1.381 . S
C1310 C1311 1.394 . S
C1310 H1318 0.930 . S
C1311 C1310 1.394 . S
C1311 C1312 1.383 . S
C1311 H1319 0.929 . S
C1312 C1311 1.383 . S
C1312 C1313 1.377 . S
C1313 H1297 0.930 . S
C1313 C1312 1.377 . S
C1313 C1314 1.379 . S
C1314 H1298 0.931 . S
C1314 C1308 1.383 . S
C1314 C1313 1.379 . S
H1315 C1309 0.959 . S
H1316 C1309 0.961 . S
H1317 C1309 0.960 . S
H1318 C1310 0.930 . S
H1319 C1311 0.929 . S
H1320 C1328 0.929 . S
H1321 C1330 0.930 . S
H1322 C1332 0.930 . S
H1323 C1335 0.929 . S
H1324 C1338 0.930 . S
H1325 C1340 0.960 . S
H1326 C1340 0.960 . S
H1327 C1340 0.960 . S
C1328 H1320 0.929 . S
C1328 C1329 1.377 . S
C1328 C1330 1.384 . S
C1329 C1328 1.377 . S
C1329 C1335 1.390 . S
C1330 H1321 0.930 . S
C1330 C1328 1.384 . S
C1330 C1331 1.372 . S
C1331 C1330 1.372 . S
C1331 C1332 1.400 . S
C1331 C1336 1.490 . S
C1332 H1322 0.930 . S
C1332 C1331 1.400 . S
C1332 C1335 1.386 . S
H1333 C1349 0.930 . S
H1334 C1350 0.931 . S
C1335 H1323 0.929 . S
C1335 C1329 1.390 . S
C1335 C1332 1.386 . S
C1336 C1331 1.490 . S
C1336 C1338 1.395 . S
C1336 C1339 1.403 . S
H1337 C1343 0.930 . S
C1338 H1324 0.930 . S
C1338 C1336 1.395 . S
C1338 C1341 1.403 . S
C1339 C1336 1.403 . S
C1339 C1340 1.524 . S
C1339 C1343 1.400 . S
C1340 H1325 0.960 . S
C1340 H1326 0.960 . S
C1340 H1327 0.960 . S
C1340 C1339 1.524 . S
C1341 C1338 1.403 . S
C1341 C1342 1.392 . S
C1341 C1345 1.495 . S
C1342 C1341 1.392 . S
C1342 C1343 1.385 . S
C1342 C1344 1.478 . S
C1343 H1337 0.930 . S
C1343 C1339 1.400 . S
C1343 C1342 1.385 . S
C1344 C1342 1.478 . S
C1344 C1346 1.381 . S
C1344 C1350 1.383 . S
C1345 C1341 1.495 . S
C1345 H1351 0.959 . S
C1345 H1352 0.961 . S
C1345 H1353 0.960 . S
C1346 C1344 1.381 . S
C1346 C1347 1.394 . S
C1346 H1354 0.930 . S
C1347 C1346 1.394 . S
C1347 C1348 1.383 . S
C1347 H1355 0.929 . S
C1348 C1347 1.383 . S
C1348 C1349 1.377 . S
C1349 H1333 0.930 . S
C1349 C1348 1.377 . S
C1349 C1350 1.379 . S
C1350 H1334 0.931 . S
C1350 C1344 1.383 . S
C1350 C1349 1.379 . S
H1351 C1345 0.959 . S
H1352 C1345 0.961 . S
H1353 C1345 0.960 . S
H1354 C1346 0.930 . S
H1355 C1347 0.929 . S
H1356 C1364 0.929 . S
H1357 C1366 0.930 . S
H1358 C1368 0.930 . S
H1359 C1371 0.929 . S
H1360 C1374 0.930 . S
H1361 C1376 0.960 . S
H1362 C1376 0.960 . S
H1363 C1376 0.960 . S
C1364 H1356 0.929 . S
C1364 C1365 1.377 . S
C1364 C1366 1.384 . S
C1365 C1364 1.377 . S
C1365 C1371 1.390 . S
C1366 H1357 0.930 . S
C1366 C1364 1.384 . S
C1366 C1367 1.372 . S
C1367 C1366 1.372 . S
C1367 C1368 1.400 . S
C1367 C1372 1.490 . S
C1368 H1358 0.930 . S
C1368 C1367 1.400 . S
C1368 C1371 1.386 . S
H1369 C1385 0.930 . S
H1370 C1386 0.931 . S
C1371 H1359 0.929 . S
C1371 C1365 1.390 . S
C1371 C1368 1.386 . S
C1372 C1367 1.490 . S
C1372 C1374 1.395 . S
C1372 C1375 1.403 . S
H1373 C1379 0.930 . S
C1374 H1360 0.930 . S
C1374 C1372 1.395 . S
C1374 C1377 1.403 . S
C1375 C1372 1.403 . S
C1375 C1376 1.524 . S
C1375 C1379 1.400 . S
C1376 H1361 0.960 . S
C1376 H1362 0.960 . S
C1376 H1363 0.960 . S
C1376 C1375 1.524 . S
C1377 C1374 1.403 . S
C1377 C1378 1.392 . S
C1377 C1381 1.495 . S
C1378 C1377 1.392 . S
C1378 C1379 1.385 . S
C1378 C1380 1.478 . S
C1379 H1373 0.930 . S
C1379 C1375 1.400 . S
C1379 C1378 1.385 . S
C1380 C1378 1.478 . S
C1380 C1382 1.381 . S
C1380 C1386 1.383 . S
C1381 C1377 1.495 . S
C1381 H1387 0.959 . S
C1381 H1388 0.961 . S
C1381 H1389 0.960 . S
C1382 C1380 1.381 . S
C1382 C1383 1.394 . S
C1382 H1390 0.930 . S
C1383 C1382 1.394 . S
C1383 C1384 1.383 . S
C1383 H1391 0.929 . S
C1384 C1383 1.383 . S
C1384 C1385 1.377 . S
C1385 H1369 0.930 . S
C1385 C1384 1.377 . S
C1385 C1386 1.379 . S
C1386 H1370 0.931 . S
C1386 C1380 1.383 . S
C1386 C1385 1.379 . S
H1387 C1381 0.959 . S
H1388 C1381 0.961 . S
H1389 C1381 0.960 . S
H1390 C1382 0.930 . S
H1391 C1383 0.929 . S
H1392 C1400 0.929 . S
H1393 C1402 0.930 . S
H1394 C1404 0.930 . S
H1395 C1407 0.929 . S
H1396 C1410 0.930 . S
H1397 C1412 0.960 . S
H1398 C1412 0.960 . S
H1399 C1412 0.960 . S
C1400 H1392 0.929 . S
C1400 C1401 1.377 . S
C1400 C1402 1.384 . S
C1401 C1400 1.377 . S
C1401 C1407 1.390 . S
C1402 H1393 0.930 . S
C1402 C1400 1.384 . S
C1402 C1403 1.372 . S
C1403 C1402 1.372 . S
C1403 C1404 1.400 . S
C1403 C1408 1.490 . S
C1404 H1394 0.930 . S
C1404 C1403 1.400 . S
C1404 C1407 1.386 . S
H1405 C1421 0.930 . S
H1406 C1422 0.931 . S
C1407 H1395 0.929 . S
C1407 C1401 1.390 . S
C1407 C1404 1.386 . S
C1408 C1403 1.490 . S
C1408 C1410 1.395 . S
C1408 C1411 1.403 . S
H1409 C1415 0.930 . S
C1410 H1396 0.930 . S
C1410 C1408 1.395 . S
C1410 C1413 1.403 . S
C1411 C1408 1.403 . S
C1411 C1412 1.524 . S
C1411 C1415 1.400 . S
C1412 H1397 0.960 . S
C1412 H1398 0.960 . S
C1412 H1399 0.960 . S
C1412 C1411 1.524 . S
C1413 C1410 1.403 . S
C1413 C1414 1.392 . S
C1413 C1417 1.495 . S
C1414 C1413 1.392 . S
C1414 C1415 1.385 . S
C1414 C1416 1.478 . S
C1415 H1409 0.930 . S
C1415 C1411 1.400 . S
C1415 C1414 1.385 . S
C1416 C1414 1.478 . S
C1416 C1418 1.381 . S
C1416 C1422 1.383 1_565 S
C1417 C1413 1.495 . S
C1417 H1423 0.959 . S
C1417 H1424 0.961 . S
C1417 H1425 0.960 . S
C1418 C1416 1.381 . S
C1418 C1419 1.394 1_565 S
C1418 H1426 0.930 . S
C1419 C1418 1.394 1_545 S
C1419 C1420 1.383 . S
C1419 H1427 0.929 . S
C1420 C1419 1.383 . S
C1420 C1421 1.377 . S
C1421 H1405 0.930 . S
C1421 C1420 1.377 . S
C1421 C1422 1.379 . S
C1422 H1406 0.931 . S
C1422 C1416 1.383 1_545 S
C1422 C1421 1.379 . S
H1423 C1417 0.959 . S
H1424 C1417 0.961 . S
H1425 C1417 0.960 . S
H1426 C1418 0.930 . S
H1427 C1419 0.929 . S
H1428 C1436 0.929 . S
H1429 C1438 0.930 . S
H1430 C1440 0.930 . S
H1431 C1443 0.929 . S
H1432 C1446 0.930 . S
H1433 C1448 0.960 . S
H1434 C1448 0.960 . S
H1435 C1448 0.960 . S
C1436 H1428 0.929 . S
C1436 C1437 1.377 . S
C1436 C1438 1.384 . S
C1437 C1436 1.377 . S
C1437 C1443 1.390 . S
C1438 H1429 0.930 . S
C1438 C1436 1.384 . S
C1438 C1439 1.372 . S
C1439 C1438 1.372 . S
C1439 C1440 1.400 . S
C1439 C1444 1.490 . S
C1440 H1430 0.930 . S
C1440 C1439 1.400 . S
C1440 C1443 1.386 . S
H1441 C1457 0.930 . S
H1442 C1458 0.931 . S
C1443 H1431 0.929 . S
C1443 C1437 1.390 . S
C1443 C1440 1.386 . S
C1444 C1439 1.490 . S
C1444 C1446 1.395 . S
C1444 C1447 1.403 . S
H1445 C1451 0.930 . S
C1446 H1432 0.930 . S
C1446 C1444 1.395 . S
C1446 C1449 1.403 . S
C1447 C1444 1.403 . S
C1447 C1448 1.524 . S
C1447 C1451 1.400 . S
C1448 H1433 0.960 . S
C1448 H1434 0.960 . S
C1448 H1435 0.960 . S
C1448 C1447 1.524 . S
C1449 C1446 1.403 . S
C1449 C1450 1.392 . S
C1449 C1453 1.495 . S
C1450 C1449 1.392 . S
C1450 C1451 1.385 . S
C1450 C1452 1.478 . S
C1451 H1445 0.930 . S
C1451 C1447 1.400 . S
C1451 C1450 1.385 . S
C1452 C1450 1.478 . S
C1452 C1454 1.381 . S
C1452 C1458 1.383 . S
C1453 C1449 1.495 . S
C1453 H1459 0.959 . S
C1453 H1460 0.961 . S
C1453 H1461 0.960 . S
C1454 C1452 1.381 . S
C1454 C1455 1.394 . S
C1454 H1462 0.930 . S
C1455 C1454 1.394 . S
C1455 C1456 1.383 . S
C1455 H1463 0.929 . S
C1456 C1455 1.383 . S
C1456 C1457 1.377 . S
C1457 H1441 0.930 . S
C1457 C1456 1.377 . S
C1457 C1458 1.379 . S
C1458 H1442 0.931 . S
C1458 C1452 1.383 . S
C1458 C1457 1.379 . S
H1459 C1453 0.959 . S
H1460 C1453 0.961 . S
H1461 C1453 0.960 . S
H1462 C1454 0.930 . S
H1463 C1455 0.929 . S
H1464 C1472 0.929 . S
H1465 C1474 0.930 . S
H1466 C1476 0.930 . S
H1467 C1479 0.929 . S
H1468 C1482 0.930 . S
H1469 C1484 0.960 . S
H1470 C1484 0.960 . S
H1471 C1484 0.960 . S
C1472 H1464 0.929 . S
C1472 C1473 1.377 . S
C1472 C1474 1.384 . S
C1473 C1472 1.377 . S
C1473 C1479 1.390 . S
C1474 H1465 0.930 . S
C1474 C1472 1.384 . S
C1474 C1475 1.372 . S
C1475 C1474 1.372 . S
C1475 C1476 1.400 . S
C1475 C1480 1.490 . S
C1476 H1466 0.930 . S
C1476 C1475 1.400 . S
C1476 C1479 1.386 . S
H1477 C1493 0.930 . S
H1478 C1494 0.931 . S
C1479 H1467 0.929 . S
C1479 C1473 1.390 . S
C1479 C1476 1.386 . S
C1480 C1475 1.490 . S
C1480 C1482 1.395 . S
C1480 C1483 1.403 . S
H1481 C1487 0.930 . S
C1482 H1468 0.930 . S
C1482 C1480 1.395 . S
C1482 C1485 1.403 . S
C1483 C1480 1.403 . S
C1483 C1484 1.524 . S
C1483 C1487 1.400 . S
C1484 H1469 0.960 . S
C1484 H1470 0.960 . S
C1484 H1471 0.960 . S
C1484 C1483 1.524 . S
C1485 C1482 1.403 . S
C1485 C1486 1.392 . S
C1485 C1489 1.495 . S
C1486 C1485 1.392 . S
C1486 C1487 1.385 . S
C1486 C1488 1.478 . S
C1487 H1481 0.930 . S
C1487 C1483 1.400 . S
C1487 C1486 1.385 . S
C1488 C1486 1.478 . S
C1488 C1490 1.381 . S
C1488 C1494 1.383 . S
C1489 C1485 1.495 . S
C1489 H1495 0.959 . S
C1489 H1496 0.961 . S
C1489 H1497 0.960 . S
C1490 C1488 1.381 . S
C1490 C1491 1.394 . S
C1490 H1498 0.930 . S
C1491 C1490 1.394 . S
C1491 C1492 1.383 . S
C1491 H1499 0.929 . S
C1492 C1491 1.383 . S
C1492 C1493 1.377 . S
C1493 H1477 0.930 . S
C1493 C1492 1.377 . S
C1493 C1494 1.379 . S
C1494 H1478 0.931 . S
C1494 C1488 1.383 . S
C1494 C1493 1.379 . S
H1495 C1489 0.959 . S
H1496 C1489 0.961 . S
H1497 C1489 0.960 . S
H1498 C1490 0.930 . S
H1499 C1491 0.929 . S
H1500 C1508 0.929 . S
H1501 C1510 0.930 . S
H1502 C1512 0.930 . S
H1503 C1515 0.929 . S
H1504 C1518 0.930 . S
H1505 C1520 0.960 . S
H1506 C1520 0.960 . S
H1507 C1520 0.960 . S
C1508 H1500 0.929 . S
C1508 C1509 1.377 . S
C1508 C1510 1.384 . S
C1509 C1508 1.377 . S
C1509 C1515 1.390 . S
C1510 H1501 0.930 . S
C1510 C1508 1.384 . S
C1510 C1511 1.372 . S
C1511 C1510 1.372 . S
C1511 C1512 1.400 . S
C1511 C1516 1.490 . S
C1512 H1502 0.930 . S
C1512 C1511 1.400 . S
C1512 C1515 1.386 . S
H1513 C1529 0.930 . S
H1514 C1530 0.931 . S
C1515 H1503 0.929 . S
C1515 C1509 1.390 . S
C1515 C1512 1.386 . S
C1516 C1511 1.490 . S
C1516 C1518 1.395 . S
C1516 C1519 1.403 . S
H1517 C1523 0.930 . S
C1518 H1504 0.930 . S
C1518 C1516 1.395 . S
C1518 C1521 1.403 . S
C1519 C1516 1.403 . S
C1519 C1520 1.524 . S
C1519 C1523 1.400 . S
C1520 H1505 0.960 . S
C1520 H1506 0.960 . S
C1520 H1507 0.960 . S
C1520 C1519 1.524 . S
C1521 C1518 1.403 . S
C1521 C1522 1.392 . S
C1521 C1525 1.495 . S
C1522 C1521 1.392 . S
C1522 C1523 1.385 . S
C1522 C1524 1.478 . S
C1523 H1517 0.930 . S
C1523 C1519 1.400 . S
C1523 C1522 1.385 . S
C1524 C1522 1.478 . S
C1524 C1526 1.381 . S
C1524 C1530 1.383 . S
C1525 C1521 1.495 . S
C1525 H1531 0.959 . S
C1525 H1532 0.961 . S
C1525 H1533 0.960 . S
C1526 C1524 1.381 . S
C1526 C1527 1.394 . S
C1526 H1534 0.930 . S
C1527 C1526 1.394 . S
C1527 C1528 1.383 . S
C1527 H1535 0.929 . S
C1528 C1527 1.383 . S
C1528 C1529 1.377 . S
C1529 H1513 0.930 . S
C1529 C1528 1.377 . S
C1529 C1530 1.379 . S
C1530 H1514 0.931 . S
C1530 C1524 1.383 . S
C1530 C1529 1.379 . S
H1531 C1525 0.959 . S
H1532 C1525 0.961 . S
H1533 C1525 0.960 . S
H1534 C1526 0.930 . S
H1535 C1527 0.929 . S
H1536 C1544 0.929 . S
H1537 C1546 0.930 . S
H1538 C1548 0.930 . S
H1539 C1551 0.929 . S
H1540 C1554 0.930 . S
H1541 C1556 0.960 . S
H1542 C1556 0.960 . S
H1543 C1556 0.960 . S
C1544 H1536 0.929 . S
C1544 C1545 1.377 . S
C1544 C1546 1.384 . S
C1545 C1544 1.377 . S
C1545 C1551 1.390 . S
C1546 H1537 0.930 . S
C1546 C1544 1.384 . S
C1546 C1547 1.372 . S
C1547 C1546 1.372 . S
C1547 C1548 1.400 . S
C1547 C1552 1.490 . S
C1548 H1538 0.930 . S
C1548 C1547 1.400 . S
C1548 C1551 1.386 . S
H1549 C1565 0.930 . S
H1550 C1566 0.931 . S
C1551 H1539 0.929 . S
C1551 C1545 1.390 . S
C1551 C1548 1.386 . S
C1552 C1547 1.490 . S
C1552 C1554 1.395 . S
C1552 C1555 1.403 . S
H1553 C1559 0.930 . S
C1554 H1540 0.930 . S
C1554 C1552 1.395 . S
C1554 C1557 1.403 . S
C1555 C1552 1.403 . S
C1555 C1556 1.524 . S
C1555 C1559 1.400 . S
C1556 H1541 0.960 . S
C1556 H1542 0.960 . S
C1556 H1543 0.960 . S
C1556 C1555 1.524 . S
C1557 C1554 1.403 . S
C1557 C1558 1.392 . S
C1557 C1561 1.495 . S
C1558 C1557 1.392 . S
C1558 C1559 1.385 . S
C1558 C1560 1.478 . S
C1559 H1553 0.930 . S
C1559 C1555 1.400 . S
C1559 C1558 1.385 . S
C1560 C1558 1.478 . S
C1560 C1562 1.381 . S
C1560 C1566 1.383 . S
C1561 C1557 1.495 . S
C1561 H1567 0.959 . S
C1561 H1568 0.961 . S
C1561 H1569 0.960 . S
C1562 C1560 1.381 . S
C1562 C1563 1.394 . S
C1562 H1570 0.930 . S
C1563 C1562 1.394 . S
C1563 C1564 1.383 . S
C1563 H1571 0.929 . S
C1564 C1563 1.383 . S
C1564 C1565 1.377 . S
C1565 H1549 0.930 . S
C1565 C1564 1.377 . S
C1565 C1566 1.379 . S
C1566 H1550 0.931 . S
C1566 C1560 1.383 . S
C1566 C1565 1.379 . S
H1567 C1561 0.959 . S
H1568 C1561 0.961 . S
H1569 C1561 0.960 . S
H1570 C1562 0.930 . S
H1571 C1563 0.929 . S
H1572 C1580 0.929 . S
H1573 C1582 0.930 . S
H1574 C1584 0.930 . S
H1575 C1587 0.929 . S
H1576 C1590 0.930 . S
H1577 C1592 0.960 . S
H1578 C1592 0.960 . S
H1579 C1592 0.960 . S
C1580 H1572 0.929 . S
C1580 C1581 1.377 . S
C1580 C1582 1.384 . S
C1581 C1580 1.377 . S
C1581 C1587 1.390 . S
C1582 H1573 0.930 . S
C1582 C1580 1.384 . S
C1582 C1583 1.372 . S
C1583 C1582 1.372 . S
C1583 C1584 1.400 . S
C1583 C1588 1.490 . S
C1584 H1574 0.930 . S
C1584 C1583 1.400 . S
C1584 C1587 1.386 . S
H1585 C1601 0.930 . S
H1586 C1602 0.931 . S
C1587 H1575 0.929 . S
C1587 C1581 1.390 . S
C1587 C1584 1.386 . S
C1588 C1583 1.490 . S
C1588 C1590 1.395 . S
C1588 C1591 1.403 . S
H1589 C1595 0.930 . S
C1590 H1576 0.930 . S
C1590 C1588 1.395 . S
C1590 C1593 1.403 1_655 S
C1591 C1588 1.403 . S
C1591 C1592 1.524 . S
C1591 C1595 1.400 1_655 S
C1592 H1577 0.960 . S
C1592 H1578 0.960 . S
C1592 H1579 0.960 . S
C1592 C1591 1.524 . S
C1593 C1590 1.403 1_455 S
C1593 C1594 1.392 . S
C1593 C1597 1.495 . S
C1594 C1593 1.392 . S
C1594 C1595 1.385 . S
C1594 C1596 1.478 . S
C1595 H1589 0.930 . S
C1595 C1591 1.400 1_455 S
C1595 C1594 1.385 . S
C1596 C1594 1.478 . S
C1596 C1598 1.381 . S
C1596 C1602 1.383 . S
C1597 C1593 1.495 . S
C1597 H1603 0.959 . S
C1597 H1604 0.961 . S
C1597 H1605 0.960 . S
C1598 C1596 1.381 . S
C1598 C1599 1.394 . S
C1598 H1606 0.930 . S
C1599 C1598 1.394 . S
C1599 C1600 1.383 . S
C1599 H1607 0.929 . S
C1600 C1599 1.383 . S
C1600 C1601 1.377 . S
C1601 H1585 0.930 . S
C1601 C1600 1.377 . S
C1601 C1602 1.379 . S
C1602 H1586 0.931 . S
C1602 C1596 1.383 . S
C1602 C1601 1.379 . S
H1603 C1597 0.959 . S
H1604 C1597 0.961 . S
H1605 C1597 0.960 . S
H1606 C1598 0.930 . S
H1607 C1599 0.929 . S
H1608 C1616 0.929 . S
H1609 C1618 0.930 . S
H1610 C1620 0.930 . S
H1611 C1623 0.929 . S
H1612 C1626 0.930 . S
H1613 C1628 0.960 . S
H1614 C1628 0.960 . S
H1615 C1628 0.960 . S
C1616 H1608 0.929 . S
C1616 C1617 1.377 . S
C1616 C1618 1.384 . S
C1617 C1616 1.377 . S
C1617 C1623 1.390 . S
C1618 H1609 0.930 . S
C1618 C1616 1.384 . S
C1618 C1619 1.372 . S
C1619 C1618 1.372 . S
C1619 C1620 1.400 . S
C1619 C1624 1.490 . S
C1620 H1610 0.930 . S
C1620 C1619 1.400 . S
C1620 C1623 1.386 . S
H1621 C1637 0.930 . S
H1622 C1638 0.931 . S
C1623 H1611 0.929 . S
C1623 C1617 1.390 . S
C1623 C1620 1.386 . S
C1624 C1619 1.490 . S
C1624 C1626 1.395 . S
C1624 C1627 1.403 . S
H1625 C1631 0.930 . S
C1626 H1612 0.930 . S
C1626 C1624 1.395 . S
C1626 C1629 1.403 . S
C1627 C1624 1.403 . S
C1627 C1628 1.524 . S
C1627 C1631 1.400 . S
C1628 H1613 0.960 . S
C1628 H1614 0.960 . S
C1628 H1615 0.960 . S
C1628 C1627 1.524 . S
C1629 C1626 1.403 . S
C1629 C1630 1.392 . S
C1629 C1633 1.495 . S
C1630 C1629 1.392 . S
C1630 C1631 1.385 . S
C1630 C1632 1.478 . S
C1631 H1625 0.930 . S
C1631 C1627 1.400 . S
C1631 C1630 1.385 . S
C1632 C1630 1.478 . S
C1632 C1634 1.381 . S
C1632 C1638 1.383 . S
C1633 C1629 1.495 . S
C1633 H1639 0.959 . S
C1633 H1640 0.961 . S
C1633 H1641 0.960 . S
C1634 C1632 1.381 . S
C1634 C1635 1.394 . S
C1634 H1642 0.930 . S
C1635 C1634 1.394 . S
C1635 C1636 1.383 . S
C1635 H1643 0.929 . S
C1636 C1635 1.383 . S
C1636 C1637 1.377 . S
C1637 H1621 0.930 . S
C1637 C1636 1.377 . S
C1637 C1638 1.379 . S
C1638 H1622 0.931 . S
C1638 C1632 1.383 . S
C1638 C1637 1.379 . S
H1639 C1633 0.959 . S
H1640 C1633 0.961 . S
H1641 C1633 0.960 . S
H1642 C1634 0.930 . S
H1643 C1635 0.929 . S
H1644 C1652 0.929 . S
H1645 C1654 0.930 . S
H1646 C1656 0.930 . S
H1647 C1659 0.929 . S
H1648 C1662 0.930 . S
H1649 C1664 0.960 . S
H1650 C1664 0.960 . S
H1651 C1664 0.960 . S
C1652 H1644 0.929 . S
C1652 C1653 1.377 . S
C1652 C1654 1.384 . S
C1653 C1652 1.377 . S
C1653 C1659 1.390 . S
C1654 H1645 0.930 . S
C1654 C1652 1.384 . S
C1654 C1655 1.372 . S
C1655 C1654 1.372 . S
C1655 C1656 1.400 . S
C1655 C1660 1.490 . S
C1656 H1646 0.930 . S
C1656 C1655 1.400 . S
C1656 C1659 1.386 . S
H1657 C1673 0.930 . S
H1658 C1674 0.931 . S
C1659 H1647 0.929 . S
C1659 C1653 1.390 . S
C1659 C1656 1.386 . S
C1660 C1655 1.490 . S
C1660 C1662 1.395 . S
C1660 C1663 1.403 . S
H1661 C1667 0.930 . S
C1662 H1648 0.930 . S
C1662 C1660 1.395 . S
C1662 C1665 1.403 . S
C1663 C1660 1.403 . S
C1663 C1664 1.524 . S
C1663 C1667 1.400 . S
C1664 H1649 0.960 . S
C1664 H1650 0.960 . S
C1664 H1651 0.960 . S
C1664 C1663 1.524 . S
C1665 C1662 1.403 . S
C1665 C1666 1.392 . S
C1665 C1669 1.495 . S
C1666 C1665 1.392 . S
C1666 C1667 1.385 . S
C1666 C1668 1.478 . S
C1667 H1661 0.930 . S
C1667 C1663 1.400 . S
C1667 C1666 1.385 . S
C1668 C1666 1.478 . S
C1668 C1670 1.381 . S
C1668 C1674 1.383 . S
C1669 C1665 1.495 . S
C1669 H1675 0.959 . S
C1669 H1676 0.961 . S
C1669 H1677 0.960 . S
C1670 C1668 1.381 . S
C1670 C1671 1.394 . S
C1670 H1678 0.930 . S
C1671 C1670 1.394 . S
C1671 C1672 1.383 . S
C1671 H1679 0.929 . S
C1672 C1671 1.383 . S
C1672 C1673 1.377 . S
C1673 H1657 0.930 . S
C1673 C1672 1.377 . S
C1673 C1674 1.379 . S
C1674 H1658 0.931 . S
C1674 C1668 1.383 . S
C1674 C1673 1.379 . S
H1675 C1669 0.959 . S
H1676 C1669 0.961 . S
H1677 C1669 0.960 . S
H1678 C1670 0.930 . S
H1679 C1671 0.929 . S
H1680 C1688 0.929 . S
H1681 C1690 0.930 . S
H1682 C1692 0.930 . S
H1683 C1695 0.929 . S
H1684 C1698 0.930 . S
H1685 C1700 0.960 . S
H1686 C1700 0.960 . S
H1687 C1700 0.960 . S
C1688 H1680 0.929 . S
C1688 C1689 1.377 . S
C1688 C1690 1.384 . S
C1689 C1688 1.377 . S
C1689 C1695 1.390 . S
C1690 H1681 0.930 . S
C1690 C1688 1.384 . S
C1690 C1691 1.372 . S
C1691 C1690 1.372 . S
C1691 C1692 1.400 . S
C1691 C1696 1.490 . S
C1692 H1682 0.930 . S
C1692 C1691 1.400 . S
C1692 C1695 1.386 . S
H1693 C1709 0.930 . S
H1694 C1710 0.931 . S
C1695 H1683 0.929 . S
C1695 C1689 1.390 . S
C1695 C1692 1.386 . S
C1696 C1691 1.490 . S
C1696 C1698 1.395 . S
C1696 C1699 1.403 . S
H1697 C1703 0.930 . S
C1698 H1684 0.930 . S
C1698 C1696 1.395 . S
C1698 C1701 1.403 . S
C1699 C1696 1.403 . S
C1699 C1700 1.524 . S
C1699 C1703 1.400 . S
C1700 H1685 0.960 . S
C1700 H1686 0.960 . S
C1700 H1687 0.960 . S
C1700 C1699 1.524 . S
C1701 C1698 1.403 . S
C1701 C1702 1.392 . S
C1701 C1705 1.495 . S
C1702 C1701 1.392 . S
C1702 C1703 1.385 . S
C1702 C1704 1.478 . S
C1703 H1697 0.930 . S
C1703 C1699 1.400 . S
C1703 C1702 1.385 . S
C1704 C1702 1.478 . S
C1704 C1706 1.381 . S
C1704 C1710 1.383 . S
C1705 C1701 1.495 . S
C1705 H1711 0.959 . S
C1705 H1712 0.961 . S
C1705 H1713 0.960 . S
C1706 C1704 1.381 . S
C1706 C1707 1.394 . S
C1706 H1714 0.930 . S
C1707 C1706 1.394 . S
C1707 C1708 1.383 . S
C1707 H1715 0.929 . S
C1708 C1707 1.383 . S
C1708 C1709 1.377 . S
C1709 H1693 0.930 . S
C1709 C1708 1.377 . S
C1709 C1710 1.379 . S
C1710 H1694 0.931 . S
C1710 C1704 1.383 . S
C1710 C1709 1.379 . S
H1711 C1705 0.959 . S
H1712 C1705 0.961 . S
H1713 C1705 0.960 . S
H1714 C1706 0.930 . S
H1715 C1707 0.929 . S
H1716 C1724 0.929 . S
H1717 C1726 0.930 . S
H1718 C1728 0.930 . S
H1719 C1731 0.929 . S
H1720 C1734 0.930 . S
H1721 C1736 0.960 . S
H1722 C1736 0.960 . S
H1723 C1736 0.960 . S
C1724 H1716 0.929 . S
C1724 C1725 1.377 . S
C1724 C1726 1.384 . S
C1725 C1724 1.377 . S
C1725 C1731 1.390 . S
C1726 H1717 0.930 . S
C1726 C1724 1.384 . S
C1726 C1727 1.372 . S
C1727 C1726 1.372 . S
C1727 C1728 1.400 . S
C1727 C1732 1.490 . S
C1728 H1718 0.930 . S
C1728 C1727 1.400 . S
C1728 C1731 1.386 . S
H1729 C1745 0.930 . S
H1730 C1746 0.931 . S
C1731 H1719 0.929 . S
C1731 C1725 1.390 . S
C1731 C1728 1.386 . S
C1732 C1727 1.490 . S
C1732 C1734 1.395 . S
C1732 C1735 1.403 . S
H1733 C1739 0.930 . S
C1734 H1720 0.930 . S
C1734 C1732 1.395 . S
C1734 C1737 1.403 . S
C1735 C1732 1.403 . S
C1735 C1736 1.524 . S
C1735 C1739 1.400 . S
C1736 H1721 0.960 . S
C1736 H1722 0.960 . S
C1736 H1723 0.960 . S
C1736 C1735 1.524 . S
C1737 C1734 1.403 . S
C1737 C1738 1.392 . S
C1737 C1741 1.495 . S
C1738 C1737 1.392 . S
C1738 C1739 1.385 . S
C1738 C1740 1.478 . S
C1739 H1733 0.930 . S
C1739 C1735 1.400 . S
C1739 C1738 1.385 . S
C1740 C1738 1.478 . S
C1740 C1742 1.381 . S
C1740 C1746 1.383 . S
C1741 C1737 1.495 . S
C1741 H1747 0.959 . S
C1741 H1748 0.961 . S
C1741 H1749 0.960 . S
C1742 C1740 1.381 . S
C1742 C1743 1.394 . S
C1742 H1750 0.930 . S
C1743 C1742 1.394 . S
C1743 C1744 1.383 . S
C1743 H1751 0.929 . S
C1744 C1743 1.383 . S
C1744 C1745 1.377 . S
C1745 H1729 0.930 . S
C1745 C1744 1.377 . S
C1745 C1746 1.379 . S
C1746 H1730 0.931 . S
C1746 C1740 1.383 . S
C1746 C1745 1.379 . S
H1747 C1741 0.959 . S
H1748 C1741 0.961 . S
H1749 C1741 0.960 . S
H1750 C1742 0.930 . S
H1751 C1743 0.929 . S
H1752 C1760 0.929 . S
H1753 C1762 0.930 . S
H1754 C1764 0.930 . S
H1755 C1767 0.929 . S
H1756 C1770 0.930 . S
H1757 C1772 0.960 . S
H1758 C1772 0.960 . S
H1759 C1772 0.960 . S
C1760 H1752 0.929 . S
C1760 C1761 1.377 . S
C1760 C1762 1.384 . S
C1761 C1760 1.377 . S
C1761 C1767 1.390 . S
C1762 H1753 0.930 . S
C1762 C1760 1.384 . S
C1762 C1763 1.372 . S
C1763 C1762 1.372 . S
C1763 C1764 1.400 . S
C1763 C1768 1.490 . S
C1764 H1754 0.930 . S
C1764 C1763 1.400 . S
C1764 C1767 1.386 . S
H1765 C1781 0.930 . S
H1766 C1782 0.931 . S
C1767 H1755 0.929 . S
C1767 C1761 1.390 . S
C1767 C1764 1.386 . S
C1768 C1763 1.490 . S
C1768 C1770 1.395 . S
C1768 C1771 1.403 . S
H1769 C1775 0.930 . S
C1770 H1756 0.930 . S
C1770 C1768 1.395 . S
C1770 C1773 1.403 . S
C1771 C1768 1.403 . S
C1771 C1772 1.524 . S
C1771 C1775 1.400 . S
C1772 H1757 0.960 . S
C1772 H1758 0.960 . S
C1772 H1759 0.960 . S
C1772 C1771 1.524 . S
C1773 C1770 1.403 . S
C1773 C1774 1.392 . S
C1773 C1777 1.495 . S
C1774 C1773 1.392 . S
C1774 C1775 1.385 . S
C1774 C1776 1.478 . S
C1775 H1769 0.930 . S
C1775 C1771 1.400 . S
C1775 C1774 1.385 . S
C1776 C1774 1.478 . S
C1776 C1778 1.381 . S
C1776 C1782 1.383 . S
C1777 C1773 1.495 . S
C1777 H1783 0.959 . S
C1777 H1784 0.961 . S
C1777 H1785 0.960 . S
C1778 C1776 1.381 . S
C1778 C1779 1.394 . S
C1778 H1786 0.930 . S
C1779 C1778 1.394 . S
C1779 C1780 1.383 . S
C1779 H1787 0.929 . S
C1780 C1779 1.383 . S
C1780 C1781 1.377 . S
C1781 H1765 0.930 . S
C1781 C1780 1.377 . S
C1781 C1782 1.379 . S
C1782 H1766 0.931 . S
C1782 C1776 1.383 . S
C1782 C1781 1.379 . S
H1783 C1777 0.959 . S
H1784 C1777 0.961 . S
H1785 C1777 0.960 . S
H1786 C1778 0.930 . S
H1787 C1779 0.929 . S
H1788 C1796 0.929 . S
H1789 C1798 0.930 . S
H1790 C1800 0.930 . S
H1791 C1803 0.929 . S
H1792 C1806 0.930 . S
H1793 C1808 0.960 . S
H1794 C1808 0.960 . S
H1795 C1808 0.960 . S
C1796 H1788 0.929 . S
C1796 C1797 1.377 . S
C1796 C1798 1.384 . S
C1797 C1796 1.377 . S
C1797 C1803 1.390 . S
C1798 H1789 0.930 . S
C1798 C1796 1.384 . S
C1798 C1799 1.372 . S
C1799 C1798 1.372 . S
C1799 C1800 1.400 . S
C1799 C1804 1.490 . S
C1800 H1790 0.930 . S
C1800 C1799 1.400 . S
C1800 C1803 1.386 . S
H1801 C1817 0.930 . S
H1802 C1818 0.931 . S
C1803 H1791 0.929 . S
C1803 C1797 1.390 . S
C1803 C1800 1.386 . S
C1804 C1799 1.490 . S
C1804 C1806 1.395 . S
C1804 C1807 1.403 . S
H1805 C1811 0.930 . S
C1806 H1792 0.930 . S
C1806 C1804 1.395 . S
C1806 C1809 1.403 . S
C1807 C1804 1.403 . S
C1807 C1808 1.524 . S
C1807 C1811 1.400 . S
C1808 H1793 0.960 . S
C1808 H1794 0.960 . S
C1808 H1795 0.960 . S
C1808 C1807 1.524 . S
C1809 C1806 1.403 . S
C1809 C1810 1.392 . S
C1809 C1813 1.495 . S
C1810 C1809 1.392 . S
C1810 C1811 1.385 . S
C1810 C1812 1.478 1_455 S
C1811 H1805 0.930 . S
C1811 C1807 1.400 . S
C1811 C1810 1.385 . S
C1812 C1810 1.478 1_655 S
C1812 C1814 1.381 . S
C1812 C1818 1.383 . S
C1813 C1809 1.495 . S
C1813 H1819 0.959 . S
C1813 H1820 0.961 1_455 S
C1813 H1821 0.983 . S
C1814 C1812 1.381 . S
C1814 C1815 1.394 . S
C1814 H1822 0.930 . S
C1815 C1814 1.394 . S
C1815 C1816 1.383 . S
C1815 H1823 0.929 . S
C1816 C1815 1.383 . S
C1816 C1817 1.377 . S
C1817 H1801 0.930 . S
C1817 C1816 1.377 . S
C1817 C1818 1.379 . S
C1818 H1802 0.931 . S
C1818 C1812 1.383 . S
C1818 C1817 1.379 . S
H1819 C1813 0.959 . S
H1820 C1813 0.961 1_655 S
H1821 C1813 0.983 . S
H1822 C1814 0.930 . S
H1823 C1815 0.929 . S
H1824 C1832 0.929 . S
H1825 C1834 0.930 . S
H1826 C1836 0.930 . S
H1827 C1839 0.929 . S
H1828 C1842 0.930 . S
H1829 C1844 0.960 . S
H1830 C1844 0.960 . S
H1831 C1844 0.960 . S
C1832 H1824 0.929 . S
C1832 C1833 1.377 . S
C1832 C1834 1.384 . S
C1833 C1832 1.377 . S
C1833 C1839 1.390 . S
C1834 H1825 0.930 . S
C1834 C1832 1.384 . S
C1834 C1835 1.372 . S
C1835 C1834 1.372 . S
C1835 C1836 1.400 . S
C1835 C1840 1.490 . S
C1836 H1826 0.930 . S
C1836 C1835 1.400 . S
C1836 C1839 1.386 . S
H1837 C1853 0.930 . S
H1838 C1854 0.931 . S
C1839 H1827 0.929 . S
C1839 C1833 1.390 . S
C1839 C1836 1.386 . S
C1840 C1835 1.490 . S
C1840 C1842 1.395 . S
C1840 C1843 1.403 . S
H1841 C1847 0.930 . S
C1842 H1828 0.930 . S
C1842 C1840 1.395 . S
C1842 C1845 1.403 . S
C1843 C1840 1.403 . S
C1843 C1844 1.524 . S
C1843 C1847 1.400 . S
C1844 H1829 0.960 . S
C1844 H1830 0.960 . S
C1844 H1831 0.960 . S
C1844 C1843 1.524 . S
C1845 C1842 1.403 . S
C1845 C1846 1.392 . S
C1845 C1849 1.495 . S
C1846 C1845 1.392 . S
C1846 C1847 1.385 . S
C1846 C1848 1.478 . S
C1847 H1841 0.930 . S
C1847 C1843 1.400 . S
C1847 C1846 1.385 . S
C1848 C1846 1.478 . S
C1848 C1850 1.381 . S
C1848 C1854 1.383 . S
C1849 C1845 1.495 . S
C1849 H1855 0.959 . S
C1849 H1856 0.961 . S
C1849 H1857 0.960 . S
C1850 C1848 1.381 . S
C1850 C1851 1.394 . S
C1850 H1858 0.930 . S
C1851 C1850 1.394 . S
C1851 C1852 1.383 . S
C1851 H1859 0.929 . S
C1852 C1851 1.383 . S
C1852 C1853 1.377 . S
C1853 H1837 0.930 . S
C1853 C1852 1.377 . S
C1853 C1854 1.379 . S
C1854 H1838 0.931 . S
C1854 C1848 1.383 . S
C1854 C1853 1.379 . S
H1855 C1849 0.959 . S
H1856 C1849 0.961 . S
H1857 C1849 0.960 . S
H1858 C1850 0.930 . S
H1859 C1851 0.929 . S
H1860 C1868 0.929 . S
H1861 C1870 0.930 . S
H1862 C1872 0.930 . S
H1863 C1875 0.929 . S
H1864 C1878 0.930 . S
H1865 C1880 0.960 . S
H1866 C1880 0.960 . S
H1867 C1880 0.960 . S
C1868 H1860 0.929 . S
C1868 C1869 1.377 . S
C1868 C1870 1.384 . S
C1869 C1868 1.377 . S
C1869 C1875 1.390 . S
C1870 H1861 0.930 . S
C1870 C1868 1.384 . S
C1870 C1871 1.372 . S
C1871 C1870 1.372 . S
C1871 C1872 1.400 . S
C1871 C1876 1.490 . S
C1872 H1862 0.930 . S
C1872 C1871 1.400 . S
C1872 C1875 1.386 . S
H1873 C1889 0.930 . S
H1874 C1890 0.931 . S
C1875 H1863 0.929 . S
C1875 C1869 1.390 . S
C1875 C1872 1.386 . S
C1876 C1871 1.490 . S
C1876 C1878 1.395 . S
C1876 C1879 1.403 . S
H1877 C1883 0.930 . S
C1878 H1864 0.930 . S
C1878 C1876 1.395 . S
C1878 C1881 1.403 . S
C1879 C1876 1.403 . S
C1879 C1880 1.524 . S
C1879 C1883 1.400 . S
C1880 H1865 0.960 . S
C1880 H1866 0.960 . S
C1880 H1867 0.960 . S
C1880 C1879 1.524 . S
C1881 C1878 1.403 . S
C1881 C1882 1.392 . S
C1881 C1885 1.495 . S
C1882 C1881 1.392 . S
C1882 C1883 1.385 . S
C1882 C1884 1.478 . S
C1883 H1877 0.930 . S
C1883 C1879 1.400 . S
C1883 C1882 1.385 . S
C1884 C1882 1.478 . S
C1884 C1886 1.381 . S
C1884 C1890 1.383 . S
C1885 C1881 1.495 . S
C1885 H1891 0.959 . S
C1885 H1892 0.961 . S
C1885 H1893 0.960 . S
C1886 C1884 1.381 . S
C1886 C1887 1.394 . S
C1886 H1894 0.930 . S
C1887 C1886 1.394 . S
C1887 C1888 1.383 . S
C1887 H1895 0.929 . S
C1888 C1887 1.383 . S
C1888 C1889 1.377 . S
C1889 H1873 0.930 . S
C1889 C1888 1.377 . S
C1889 C1890 1.379 . S
C1890 H1874 0.931 . S
C1890 C1884 1.383 . S
C1890 C1889 1.379 . S
H1891 C1885 0.959 . S
H1892 C1885 0.961 . S
H1893 C1885 0.960 . S
H1894 C1886 0.930 . S
H1895 C1887 0.929 . S
H1896 C1904 0.929 . S
H1897 C1906 0.930 . S
H1898 C1908 0.930 . S
H1899 C1911 0.929 . S
H1900 C1914 0.930 . S
H1901 C1916 0.960 . S
H1902 C1916 0.960 . S
H1903 C1916 0.960 . S
C1904 H1896 0.929 . S
C1904 C1905 1.377 . S
C1904 C1906 1.384 . S
C1905 C1904 1.377 . S
C1905 C1911 1.390 . S
C1906 H1897 0.930 . S
C1906 C1904 1.384 . S
C1906 C1907 1.372 . S
C1907 C1906 1.372 . S
C1907 C1908 1.400 . S
C1907 C1912 1.490 . S
C1908 H1898 0.930 . S
C1908 C1907 1.400 . S
C1908 C1911 1.386 . S
H1909 C1925 0.930 . S
H1910 C1926 0.931 . S
C1911 H1899 0.929 . S
C1911 C1905 1.390 . S
C1911 C1908 1.386 . S
C1912 C1907 1.490 . S
C1912 C1914 1.395 . S
C1912 C1915 1.403 . S
H1913 C1919 0.930 . S
C1914 H1900 0.930 . S
C1914 C1912 1.395 . S
C1914 C1917 1.403 . S
C1915 C1912 1.403 . S
C1915 C1916 1.524 . S
C1915 C1919 1.400 . S
C1916 H1901 0.960 . S
C1916 H1902 0.960 . S
C1916 H1903 0.960 . S
C1916 C1915 1.524 . S
C1917 C1914 1.403 . S
C1917 C1918 1.392 . S
C1917 C1921 1.495 . S
C1918 C1917 1.392 . S
C1918 C1919 1.385 . S
C1918 C1920 1.478 . S
C1919 H1913 0.930 . S
C1919 C1915 1.400 . S
C1919 C1918 1.385 . S
C1920 C1918 1.478 . S
C1920 C1922 1.381 . S
C1920 C1926 1.383 . S
C1921 C1917 1.495 . S
C1921 H1927 0.959 . S
C1921 H1928 0.961 . S
C1921 H1929 0.960 . S
C1922 C1920 1.381 . S
C1922 C1923 1.394 . S
C1922 H1930 0.930 . S
C1923 C1922 1.394 . S
C1923 C1924 1.383 . S
C1923 H1931 0.929 . S
C1924 C1923 1.383 . S
C1924 C1925 1.377 . S
C1925 H1909 0.930 . S
C1925 C1924 1.377 . S
C1925 C1926 1.379 . S
C1926 H1910 0.931 . S
C1926 C1920 1.383 . S
C1926 C1925 1.379 . S
H1927 C1921 0.959 . S
H1928 C1921 0.961 . S
H1929 C1921 0.960 . S
H1930 C1922 0.930 . S
H1931 C1923 0.929 . S
H1932 C1940 0.929 . S
H1933 C1942 0.930 . S
H1934 C1944 0.930 . S
H1935 C1947 0.929 . S
H1936 C1950 0.930 . S
H1937 C1952 0.960 . S
H1938 C1952 0.960 . S
H1939 C1952 0.960 . S
C1940 H1932 0.929 . S
C1940 C1941 1.377 . S
C1940 C1942 1.384 . S
C1941 C1940 1.377 . S
C1941 C1947 1.390 . S
C1942 H1933 0.930 . S
C1942 C1940 1.384 . S
C1942 C1943 1.372 . S
C1943 C1942 1.372 . S
C1943 C1944 1.400 . S
C1943 C1948 1.490 . S
C1944 H1934 0.930 . S
C1944 C1943 1.400 . S
C1944 C1947 1.386 . S
H1945 C1961 0.930 . S
H1946 C1962 0.931 . S
C1947 H1935 0.929 . S
C1947 C1941 1.390 . S
C1947 C1944 1.386 . S
C1948 C1943 1.490 . S
C1948 C1950 1.395 . S
C1948 C1951 1.403 . S
H1949 C1955 0.930 . S
C1950 H1936 0.930 . S
C1950 C1948 1.395 . S
C1950 C1953 1.403 1_556 S
C1951 C1948 1.403 . S
C1951 C1952 1.524 . S
C1951 C1955 1.400 1_556 S
C1952 H1937 0.960 . S
C1952 H1938 0.960 . S
C1952 H1939 0.960 . S
C1952 C1951 1.524 . S
C1953 C1950 1.403 1_554 S
C1953 C1954 1.392 . S
C1953 C1957 1.495 . S
C1954 C1953 1.392 . S
C1954 C1955 1.385 . S
C1954 C1956 1.478 . S
C1955 H1949 0.930 . S
C1955 C1951 1.400 1_554 S
C1955 C1954 1.385 . S
C1956 C1954 1.478 . S
C1956 C1958 1.381 . S
C1956 C1962 1.383 . S
C1957 C1953 1.495 . S
C1957 H1963 0.963 . S
C1957 H1964 0.961 . S
C1957 H1965 0.960 . S
C1958 C1956 1.381 . S
C1958 C1959 1.394 . S
C1958 H1966 0.930 . S
C1959 C1958 1.394 . S
C1959 C1960 1.383 . S
C1959 H1967 0.929 . S
C1960 C1959 1.383 . S
C1960 C1961 1.377 . S
C1961 H1945 0.930 . S
C1961 C1960 1.377 . S
C1961 C1962 1.379 . S
C1962 H1946 0.931 . S
C1962 C1956 1.383 . S
C1962 C1961 1.379 . S
H1963 C1957 0.963 . S
H1964 C1957 0.961 . S
H1965 C1957 0.960 . S
H1966 C1958 0.930 . S
H1967 C1959 0.929 . S
H1968 C1976 0.929 . S
H1969 C1978 0.930 . S
H1970 C1980 0.930 . S
H1971 C1983 0.929 . S
H1972 C1986 0.930 . S
H1973 C1988 0.960 . S
H1974 C1988 0.960 . S
H1975 C1988 0.960 . S
C1976 H1968 0.929 . S
C1976 C1977 1.377 . S
C1976 C1978 1.384 . S
C1977 C1976 1.377 . S
C1977 C1983 1.390 . S
C1978 H1969 0.930 . S
C1978 C1976 1.384 . S
C1978 C1979 1.372 . S
C1979 C1978 1.372 . S
C1979 C1980 1.400 . S
C1979 C1984 1.490 . S
C1980 H1970 0.930 . S
C1980 C1979 1.400 . S
C1980 C1983 1.386 . S
H1981 C1997 0.930 . S
H1982 C1998 0.931 . S
C1983 H1971 0.929 . S
C1983 C1977 1.390 . S
C1983 C1980 1.386 . S
C1984 C1979 1.490 . S
C1984 C1986 1.395 . S
C1984 C1987 1.403 . S
H1985 C1991 0.930 . S
C1986 H1972 0.930 . S
C1986 C1984 1.395 . S
C1986 C1989 1.403 . S
C1987 C1984 1.403 . S
C1987 C1988 1.524 . S
C1987 C1991 1.400 . S
C1988 H1973 0.960 . S
C1988 H1974 0.960 . S
C1988 H1975 0.960 . S
C1988 C1987 1.524 . S
C1989 C1986 1.403 . S
C1989 C1990 1.392 . S
C1989 C1993 1.495 . S
C1990 C1989 1.392 . S
C1990 C1991 1.385 . S
C1990 C1992 1.478 . S
C1991 H1985 0.930 . S
C1991 C1987 1.400 . S
C1991 C1990 1.385 . S
C1992 C1990 1.478 . S
C1992 C1994 1.381 . S
C1992 C1998 1.383 . S
C1993 C1989 1.495 . S
C1993 H1999 0.959 . S
C1993 H2000 0.961 . S
C1993 H2001 0.960 . S
C1994 C1992 1.381 . S
C1994 C1995 1.394 . S
C1994 H2002 0.930 . S
C1995 C1994 1.394 . S
C1995 C1996 1.383 . S
C1995 H2003 0.929 . S
C1996 C1995 1.383 . S
C1996 C1997 1.377 . S
C1997 H1981 0.930 . S
C1997 C1996 1.377 . S
C1997 C1998 1.379 . S
C1998 H1982 0.931 . S
C1998 C1992 1.383 . S
C1998 C1997 1.379 . S
H1999 C1993 0.959 . S
H2000 C1993 0.961 . S
H2001 C1993 0.960 . S
H2002 C1994 0.930 . S
H2003 C1995 0.929 . S
H2004 C2012 0.929 . S
H2005 C2014 0.930 . S
H2006 C2016 0.930 . S
H2007 C2019 0.929 . S
H2008 C2022 0.930 . S
H2009 C2024 0.960 . S
H2010 C2024 0.960 . S
H2011 C2024 0.960 . S
C2012 H2004 0.929 . S
C2012 C2013 1.377 . S
C2012 C2014 1.384 . S
C2013 C2012 1.377 . S
C2013 C2019 1.390 . S
C2014 H2005 0.930 . S
C2014 C2012 1.384 . S
C2014 C2015 1.372 . S
C2015 C2014 1.372 . S
C2015 C2016 1.400 . S
C2015 C2020 1.490 . S
C2016 H2006 0.930 . S
C2016 C2015 1.400 . S
C2016 C2019 1.386 . S
H2017 C2033 0.930 . S
H2018 C2034 0.931 . S
C2019 H2007 0.929 . S
C2019 C2013 1.390 . S
C2019 C2016 1.386 . S
C2020 C2015 1.490 . S
C2020 C2022 1.395 . S
C2020 C2023 1.403 . S
H2021 C2027 0.930 . S
C2022 H2008 0.930 . S
C2022 C2020 1.395 . S
C2022 C2025 1.403 . S
C2023 C2020 1.403 . S
C2023 C2024 1.524 . S
C2023 C2027 1.400 . S
C2024 H2009 0.960 . S
C2024 H2010 0.960 . S
C2024 H2011 0.960 . S
C2024 C2023 1.524 . S
C2025 C2022 1.403 . S
C2025 C2026 1.392 . S
C2025 C2029 1.495 . S
C2026 C2025 1.392 . S
C2026 C2027 1.385 . S
C2026 C2028 1.478 . S
C2027 H2021 0.930 . S
C2027 C2023 1.400 . S
C2027 C2026 1.385 . S
C2028 C2026 1.478 . S
C2028 C2030 1.381 . S
C2028 C2034 1.383 . S
C2029 C2025 1.495 . S
C2029 H2035 0.959 . S
C2029 H2036 0.961 . S
C2029 H2037 0.960 . S
C2030 C2028 1.381 . S
C2030 C2031 1.394 . S
C2030 H2038 0.930 . S
C2031 C2030 1.394 . S
C2031 C2032 1.383 . S
C2031 H2039 0.929 . S
C2032 C2031 1.383 . S
C2032 C2033 1.377 . S
C2033 H2017 0.930 . S
C2033 C2032 1.377 . S
C2033 C2034 1.379 . S
C2034 H2018 0.931 . S
C2034 C2028 1.383 . S
C2034 C2033 1.379 . S
H2035 C2029 0.959 . S
H2036 C2029 0.961 . S
H2037 C2029 0.960 . S
H2038 C2030 0.930 . S
H2039 C2031 0.929 . S
H2040 C2048 0.929 . S
H2041 C2050 0.930 . S
H2042 C2052 0.930 . S
H2043 C2055 0.929 . S
H2044 C2058 0.930 . S
H2045 C2060 0.960 . S
H2046 C2060 0.960 . S
H2047 C2060 0.960 . S
C2048 H2040 0.929 . S
C2048 C2049 1.377 . S
C2048 C2050 1.384 . S
C2049 C2048 1.377 . S
C2049 C2055 1.390 . S
C2050 H2041 0.930 . S
C2050 C2048 1.384 . S
C2050 C2051 1.372 . S
C2051 C2050 1.372 . S
C2051 C2052 1.400 . S
C2051 C2056 1.490 . S
C2052 H2042 0.930 . S
C2052 C2051 1.400 . S
C2052 C2055 1.386 . S
H2053 C2069 0.930 . S
H2054 C2070 0.931 . S
C2055 H2043 0.929 . S
C2055 C2049 1.390 . S
C2055 C2052 1.386 . S
C2056 C2051 1.490 . S
C2056 C2058 1.395 . S
C2056 C2059 1.403 . S
H2057 C2063 0.930 . S
C2058 H2044 0.930 . S
C2058 C2056 1.395 . S
C2058 C2061 1.403 . S
C2059 C2056 1.403 . S
C2059 C2060 1.524 . S
C2059 C2063 1.400 . S
C2060 H2045 0.960 . S
C2060 H2046 0.960 . S
C2060 H2047 0.960 . S
C2060 C2059 1.524 . S
C2061 C2058 1.403 . S
C2061 C2062 1.392 . S
C2061 C2065 1.495 . S
C2062 C2061 1.392 . S
C2062 C2063 1.385 . S
C2062 C2064 1.478 . S
C2063 H2057 0.930 . S
C2063 C2059 1.400 . S
C2063 C2062 1.385 . S
C2064 C2062 1.478 . S
C2064 C2066 1.381 . S
C2064 C2070 1.383 . S
C2065 C2061 1.495 . S
C2065 H2071 0.959 . S
C2065 H2072 0.961 . S
C2065 H2073 0.960 . S
C2066 C2064 1.381 . S
C2066 C2067 1.394 . S
C2066 H2074 0.930 . S
C2067 C2066 1.394 . S
C2067 C2068 1.383 . S
C2067 H2075 0.929 . S
C2068 C2067 1.383 . S
C2068 C2069 1.377 . S
C2069 H2053 0.930 . S
C2069 C2068 1.377 . S
C2069 C2070 1.379 . S
C2070 H2054 0.931 . S
C2070 C2064 1.383 . S
C2070 C2069 1.379 . S
H2071 C2065 0.959 . S
H2072 C2065 0.961 . S
H2073 C2065 0.960 . S
H2074 C2066 0.930 . S
H2075 C2067 0.929 . S
H2076 C2084 0.929 . S
H2077 C2086 0.930 . S
H2078 C2088 0.930 . S
H2079 C2091 0.929 . S
H2080 C2094 0.930 . S
H2081 C2096 0.960 . S
H2082 C2096 0.960 . S
H2083 C2096 0.960 . S
C2084 H2076 0.929 . S
C2084 C2085 1.377 . S
C2084 C2086 1.384 . S
C2085 C2084 1.377 . S
C2085 C2091 1.390 . S
C2086 H2077 0.930 . S
C2086 C2084 1.384 . S
C2086 C2087 1.372 . S
C2087 C2086 1.372 . S
C2087 C2088 1.400 . S
C2087 C2092 1.490 . S
C2088 H2078 0.930 . S
C2088 C2087 1.400 . S
C2088 C2091 1.386 . S
H2089 C2105 0.930 . S
H2090 C2106 0.931 . S
C2091 H2079 0.929 . S
C2091 C2085 1.390 . S
C2091 C2088 1.386 . S
C2092 C2087 1.490 . S
C2092 C2094 1.395 . S
C2092 C2095 1.403 . S
H2093 C2099 0.930 . S
C2094 H2080 0.930 . S
C2094 C2092 1.395 . S
C2094 C2097 1.403 1_556 S
C2095 C2092 1.403 . S
C2095 C2096 1.524 . S
C2095 C2099 1.400 1_556 S
C2096 H2081 0.960 . S
C2096 H2082 0.960 . S
C2096 H2083 0.960 . S
C2096 C2095 1.524 . S
C2097 C2094 1.403 1_554 S
C2097 C2098 1.392 . S
C2097 C2101 1.495 . S
C2098 C2097 1.392 . S
C2098 C2099 1.385 . S
C2098 C2100 1.478 . S
C2099 H2093 0.930 . S
C2099 C2095 1.400 1_554 S
C2099 C2098 1.385 . S
C2100 C2098 1.478 . S
C2100 C2102 1.381 . S
C2100 C2106 1.383 . S
C2101 C2097 1.495 . S
C2101 H2107 0.959 . S
C2101 H2108 0.961 . S
C2101 H2109 0.960 . S
C2102 C2100 1.381 . S
C2102 C2103 1.394 . S
C2102 H2110 0.930 . S
C2103 C2102 1.394 . S
C2103 C2104 1.383 . S
C2103 H2111 0.929 . S
C2104 C2103 1.383 . S
C2104 C2105 1.377 . S
C2105 H2089 0.930 . S
C2105 C2104 1.377 . S
C2105 C2106 1.379 . S
C2106 H2090 0.931 . S
C2106 C2100 1.383 . S
C2106 C2105 1.379 . S
H2107 C2101 0.959 . S
H2108 C2101 0.961 . S
H2109 C2101 0.960 . S
H2110 C2102 0.930 . S
H2111 C2103 0.929 . S
H2112 C2120 0.929 . S
H2113 C2122 0.930 . S
H2114 C2124 0.930 . S
H2115 C2127 0.929 . S
H2116 C2130 0.930 . S
H2117 C2132 0.960 . S
H2118 C2132 0.960 . S
H2119 C2132 0.960 . S
C2120 H2112 0.929 . S
C2120 C2121 1.377 . S
C2120 C2122 1.384 . S
C2121 C2120 1.377 . S
C2121 C2127 1.390 . S
C2122 H2113 0.930 . S
C2122 C2120 1.384 . S
C2122 C2123 1.372 . S
C2123 C2122 1.372 . S
C2123 C2124 1.400 . S
C2123 C2128 1.490 . S
C2124 H2114 0.930 . S
C2124 C2123 1.400 . S
C2124 C2127 1.386 . S
H2125 C2141 0.930 . S
H2126 C2142 0.931 . S
C2127 H2115 0.929 . S
C2127 C2121 1.390 . S
C2127 C2124 1.386 . S
C2128 C2123 1.490 . S
C2128 C2130 1.395 . S
C2128 C2131 1.403 . S
H2129 C2135 0.930 . S
C2130 H2116 0.930 . S
C2130 C2128 1.395 . S
C2130 C2133 1.403 . S
C2131 C2128 1.403 . S
C2131 C2132 1.524 . S
C2131 C2135 1.400 . S
C2132 H2117 0.960 . S
C2132 H2118 0.960 . S
C2132 H2119 0.960 . S
C2132 C2131 1.524 . S
C2133 C2130 1.403 . S
C2133 C2134 1.392 . S
C2133 C2137 1.495 . S
C2134 C2133 1.392 . S
C2134 C2135 1.385 . S
C2134 C2136 1.478 . S
C2135 H2129 0.930 . S
C2135 C2131 1.400 . S
C2135 C2134 1.385 . S
C2136 C2134 1.478 . S
C2136 C2138 1.381 . S
C2136 C2142 1.383 . S
C2137 C2133 1.495 . S
C2137 H2143 0.959 . S
C2137 H2144 0.961 . S
C2137 H2145 0.960 . S
C2138 C2136 1.381 . S
C2138 C2139 1.394 . S
C2138 H2146 0.930 . S
C2139 C2138 1.394 . S
C2139 C2140 1.383 . S
C2139 H2147 0.929 . S
C2140 C2139 1.383 . S
C2140 C2141 1.377 . S
C2141 H2125 0.930 . S
C2141 C2140 1.377 . S
C2141 C2142 1.379 . S
C2142 H2126 0.931 . S
C2142 C2136 1.383 . S
C2142 C2141 1.379 . S
H2143 C2137 0.959 . S
H2144 C2137 0.961 . S
H2145 C2137 0.960 . S
H2146 C2138 0.930 . S
H2147 C2139 0.929 . S
H2148 C2156 0.929 . S
H2149 C2158 0.930 . S
H2150 C2160 0.930 . S
H2151 C2163 0.929 . S
H2152 C2166 0.930 . S
H2153 C2168 0.960 . S
H2154 C2168 0.960 . S
H2155 C2168 0.960 . S
C2156 H2148 0.929 . S
C2156 C2157 1.377 . S
C2156 C2158 1.384 . S
C2157 C2156 1.377 . S
C2157 C2163 1.390 . S
C2158 H2149 0.930 . S
C2158 C2156 1.384 . S
C2158 C2159 1.372 . S
C2159 C2158 1.372 . S
C2159 C2160 1.400 . S
C2159 C2164 1.490 . S
C2160 H2150 0.930 . S
C2160 C2159 1.400 . S
C2160 C2163 1.386 . S
H2161 C2177 0.930 . S
H2162 C2178 0.931 . S
C2163 H2151 0.929 . S
C2163 C2157 1.390 . S
C2163 C2160 1.386 . S
C2164 C2159 1.490 . S
C2164 C2166 1.395 . S
C2164 C2167 1.403 . S
H2165 C2171 0.930 . S
C2166 H2152 0.930 . S
C2166 C2164 1.395 . S
C2166 C2169 1.403 . S
C2167 C2164 1.403 . S
C2167 C2168 1.524 . S
C2167 C2171 1.400 . S
C2168 H2153 0.960 . S
C2168 H2154 0.960 . S
C2168 H2155 0.960 . S
C2168 C2167 1.524 . S
C2169 C2166 1.403 . S
C2169 C2170 1.392 . S
C2169 C2173 1.495 . S
C2170 C2169 1.392 . S
C2170 C2171 1.385 . S
C2170 C2172 1.478 . S
C2171 H2165 0.930 . S
C2171 C2167 1.400 . S
C2171 C2170 1.385 . S
C2172 C2170 1.478 . S
C2172 C2174 1.381 . S
C2172 C2178 1.383 . S
C2173 C2169 1.495 . S
C2173 H2179 0.959 . S
C2173 H2180 0.961 . S
C2173 H2181 0.960 . S
C2174 C2172 1.381 . S
C2174 C2175 1.394 . S
C2174 H2182 0.930 . S
C2175 C2174 1.394 . S
C2175 C2176 1.383 . S
C2175 H2183 0.929 . S
C2176 C2175 1.383 . S
C2176 C2177 1.377 . S
C2177 H2161 0.930 . S
C2177 C2176 1.377 . S
C2177 C2178 1.379 . S
C2178 H2162 0.931 . S
C2178 C2172 1.383 . S
C2178 C2177 1.379 . S
H2179 C2173 0.959 . S
H2180 C2173 0.961 . S
H2181 C2173 0.960 . S
H2182 C2174 0.930 . S
H2183 C2175 0.929 . S
H2184 C2192 0.929 . S
H2185 C2194 0.930 . S
H2186 C2196 0.930 . S
H2187 C2199 0.929 . S
H2188 C2202 0.930 . S
H2189 C2204 0.960 . S
H2190 C2204 0.960 . S
H2191 C2204 0.960 . S
C2192 H2184 0.929 . S
C2192 C2193 1.377 . S
C2192 C2194 1.384 . S
C2193 C2192 1.377 . S
C2193 C2199 1.390 . S
C2194 H2185 0.930 . S
C2194 C2192 1.384 . S
C2194 C2195 1.372 . S
C2195 C2194 1.372 . S
C2195 C2196 1.400 . S
C2195 C2200 1.490 . S
C2196 H2186 0.930 . S
C2196 C2195 1.400 . S
C2196 C2199 1.386 . S
H2197 C2213 0.930 . S
H2198 C2214 0.931 . S
C2199 H2187 0.929 . S
C2199 C2193 1.390 . S
C2199 C2196 1.386 . S
C2200 C2195 1.490 . S
C2200 C2202 1.395 . S
C2200 C2203 1.403 . S
H2201 C2207 0.930 . S
C2202 H2188 0.930 . S
C2202 C2200 1.395 . S
C2202 C2205 1.403 . S
C2203 C2200 1.403 . S
C2203 C2204 1.524 . S
C2203 C2207 1.400 . S
C2204 H2189 0.960 . S
C2204 H2190 0.960 . S
C2204 H2191 0.960 . S
C2204 C2203 1.524 . S
C2205 C2202 1.403 . S
C2205 C2206 1.392 . S
C2205 C2209 1.495 . S
C2206 C2205 1.392 . S
C2206 C2207 1.385 . S
C2206 C2208 1.478 . S
C2207 H2201 0.930 . S
C2207 C2203 1.400 . S
C2207 C2206 1.385 . S
C2208 C2206 1.478 . S
C2208 C2210 1.381 . S
C2208 C2214 1.383 . S
C2209 C2205 1.495 . S
C2209 H2215 0.959 . S
C2209 H2216 0.961 . S
C2209 H2217 0.960 . S
C2210 C2208 1.381 . S
C2210 C2211 1.394 . S
C2210 H2218 0.930 . S
C2211 C2210 1.394 . S
C2211 C2212 1.383 . S
C2211 H2219 0.929 . S
C2212 C2211 1.383 . S
C2212 C2213 1.377 . S
C2213 H2197 0.930 . S
C2213 C2212 1.377 . S
C2213 C2214 1.379 . S
C2214 H2198 0.931 . S
C2214 C2208 1.383 . S
C2214 C2213 1.379 . S
H2215 C2209 0.959 . S
H2216 C2209 0.961 . S
H2217 C2209 0.960 . S
H2218 C2210 0.930 . S
H2219 C2211 0.929 . S
H2220 C2228 0.929 . S
H2221 C2230 0.930 . S
H2222 C2232 0.930 . S
H2223 C2235 0.929 . S
H2224 C2238 0.930 . S
H2225 C2240 0.960 . S
H2226 C2240 0.960 . S
H2227 C2240 0.960 . S
C2228 H2220 0.929 . S
C2228 C2229 1.377 . S
C2228 C2230 1.384 . S
C2229 C2228 1.377 . S
C2229 C2235 1.390 . S
C2230 H2221 0.930 . S
C2230 C2228 1.384 . S
C2230 C2231 1.372 . S
C2231 C2230 1.372 . S
C2231 C2232 1.400 . S
C2231 C2236 1.490 . S
C2232 H2222 0.930 . S
C2232 C2231 1.400 . S
C2232 C2235 1.386 . S
H2233 C2249 0.930 . S
H2234 C2250 0.931 . S
C2235 H2223 0.929 . S
C2235 C2229 1.390 . S
C2235 C2232 1.386 . S
C2236 C2231 1.490 . S
C2236 C2238 1.395 . S
C2236 C2239 1.403 . S
H2237 C2243 0.930 . S
C2238 H2224 0.930 . S
C2238 C2236 1.395 . S
C2238 C2241 1.403 . S
C2239 C2236 1.403 . S
C2239 C2240 1.524 . S
C2239 C2243 1.400 . S
C2240 H2225 0.960 . S
C2240 H2226 0.960 . S
C2240 H2227 0.960 . S
C2240 C2239 1.524 . S
C2241 C2238 1.403 . S
C2241 C2242 1.392 . S
C2241 C2245 1.495 . S
C2242 C2241 1.392 . S
C2242 C2243 1.385 . S
C2242 C2244 1.478 . S
C2243 H2237 0.930 . S
C2243 C2239 1.400 . S
C2243 C2242 1.385 . S
C2244 C2242 1.478 . S
C2244 C2246 1.381 . S
C2244 C2250 1.383 . S
C2245 C2241 1.495 . S
C2245 H2251 0.959 . S
C2245 H2252 0.961 . S
C2245 H2253 0.960 . S
C2246 C2244 1.381 . S
C2246 C2247 1.394 . S
C2246 H2254 0.930 . S
C2247 C2246 1.394 . S
C2247 C2248 1.383 . S
C2247 H2255 0.929 . S
C2248 C2247 1.383 . S
C2248 C2249 1.377 . S
C2249 H2233 0.930 . S
C2249 C2248 1.377 . S
C2249 C2250 1.379 . S
C2250 H2234 0.931 . S
C2250 C2244 1.383 . S
C2250 C2249 1.379 . S
H2251 C2245 0.959 . S
H2252 C2245 0.961 . S
H2253 C2245 0.960 . S
H2254 C2246 0.930 . S
H2255 C2247 0.929 . S
H2256 C2264 0.929 . S
H2257 C2266 0.930 . S
H2258 C2268 0.930 . S
H2259 C2271 0.929 . S
H2260 C2274 0.930 . S
H2261 C2276 0.960 . S
H2262 C2276 0.960 . S
H2263 C2276 0.960 . S
C2264 H2256 0.929 . S
C2264 C2265 1.377 . S
C2264 C2266 1.384 . S
C2265 C2264 1.377 . S
C2265 C2271 1.390 . S
C2266 H2257 0.930 . S
C2266 C2264 1.384 . S
C2266 C2267 1.372 1_565 S
C2267 C2266 1.372 1_545 S
C2267 C2268 1.400 . S
C2267 C2272 1.490 . S
C2268 H2258 0.930 . S
C2268 C2267 1.400 . S
C2268 C2271 1.386 1_545 S
H2269 C2285 0.930 . S
H2270 C2286 0.931 . S
C2271 H2259 0.929 . S
C2271 C2265 1.390 . S
C2271 C2268 1.386 1_565 S
C2272 C2267 1.490 . S
C2272 C2274 1.395 . S
C2272 C2275 1.403 . S
H2273 C2279 0.930 . S
C2274 H2260 0.930 . S
C2274 C2272 1.395 . S
C2274 C2277 1.403 . S
C2275 C2272 1.403 . S
C2275 C2276 1.524 . S
C2275 C2279 1.400 . S
C2276 H2261 0.960 . S
C2276 H2262 0.960 . S
C2276 H2263 0.960 . S
C2276 C2275 1.524 . S
C2277 C2274 1.403 . S
C2277 C2278 1.392 . S
C2277 C2281 1.495 . S
C2278 C2277 1.392 . S
C2278 C2279 1.385 . S
C2278 C2280 1.478 . S
C2279 H2273 0.930 . S
C2279 C2275 1.400 . S
C2279 C2278 1.385 . S
C2280 C2278 1.478 . S
C2280 C2282 1.381 . S
C2280 C2286 1.383 . S
C2281 C2277 1.495 . S
C2281 H2287 0.959 . S
C2281 H2288 0.961 . S
C2281 H2289 0.960 . S
C2282 C2280 1.381 . S
C2282 C2283 1.394 . S
C2282 H2290 0.930 . S
C2283 C2282 1.394 . S
C2283 C2284 1.383 . S
C2283 H2291 0.929 . S
C2284 C2283 1.383 . S
C2284 C2285 1.377 . S
C2285 H2269 0.930 . S
C2285 C2284 1.377 . S
C2285 C2286 1.379 . S
C2286 H2270 0.931 . S
C2286 C2280 1.383 . S
C2286 C2285 1.379 . S
H2287 C2281 0.959 . S
H2288 C2281 0.961 . S
H2289 C2281 0.960 . S
H2290 C2282 0.930 . S
H2291 C2283 0.929 . S
H2292 C2300 0.929 . S
H2293 C2302 0.930 . S
H2294 C2304 0.930 . S
H2295 C2307 0.929 . S
H2296 C2310 0.930 . S
H2297 C2312 0.960 . S
H2298 C2312 0.960 . S
H2299 C2312 0.960 . S
C2300 H2292 0.929 . S
C2300 C2301 1.377 . S
C2300 C2302 1.384 . S
C2301 C2300 1.377 . S
C2301 C2307 1.390 . S
C2302 H2293 0.930 . S
C2302 C2300 1.384 . S
C2302 C2303 1.372 . S
C2303 C2302 1.372 . S
C2303 C2304 1.400 . S
C2303 C2308 1.490 . S
C2304 H2294 0.930 . S
C2304 C2303 1.400 . S
C2304 C2307 1.386 . S
H2305 C2321 0.930 . S
H2306 C2322 0.931 . S
C2307 H2295 0.929 . S
C2307 C2301 1.390 . S
C2307 C2304 1.386 . S
C2308 C2303 1.490 . S
C2308 C2310 1.395 . S
C2308 C2311 1.403 . S
H2309 C2315 0.930 . S
C2310 H2296 0.930 . S
C2310 C2308 1.395 . S
C2310 C2313 1.403 . S
C2311 C2308 1.403 . S
C2311 C2312 1.524 . S
C2311 C2315 1.400 . S
C2312 H2297 0.960 . S
C2312 H2298 0.960 . S
C2312 H2299 0.960 . S
C2312 C2311 1.524 . S
C2313 C2310 1.403 . S
C2313 C2314 1.392 . S
C2313 C2317 1.495 . S
C2314 C2313 1.392 . S
C2314 C2315 1.385 . S
C2314 C2316 1.478 . S
C2315 H2309 0.930 . S
C2315 C2311 1.400 . S
C2315 C2314 1.385 . S
C2316 C2314 1.478 . S
C2316 C2318 1.381 . S
C2316 C2322 1.383 . S
C2317 C2313 1.495 . S
C2317 H2323 0.959 . S
C2317 H2324 0.961 . S
C2317 H2325 0.960 . S
C2318 C2316 1.381 . S
C2318 C2319 1.394 . S
C2318 H2326 0.930 . S
C2319 C2318 1.394 . S
C2319 C2320 1.383 . S
C2319 H2327 0.929 . S
C2320 C2319 1.383 . S
C2320 C2321 1.377 . S
C2321 H2305 0.930 . S
C2321 C2320 1.377 . S
C2321 C2322 1.379 . S
C2322 H2306 0.931 . S
C2322 C2316 1.383 . S
C2322 C2321 1.379 . S
H2323 C2317 0.959 . S
H2324 C2317 0.961 . S
H2325 C2317 0.960 . S
H2326 C2318 0.930 . S
H2327 C2319 0.929 . S
H2328 C2336 0.929 . S
H2329 C2338 0.930 . S
H2330 C2340 0.930 . S
H2331 C2343 0.929 . S
H2332 C2346 0.930 . S
H2333 C2348 0.960 . S
H2334 C2348 0.960 . S
H2335 C2348 0.960 . S
C2336 H2328 0.929 . S
C2336 C2337 1.377 . S
C2336 C2338 1.384 . S
C2337 C2336 1.377 . S
C2337 C2343 1.390 . S
C2338 H2329 0.930 . S
C2338 C2336 1.384 . S
C2338 C2339 1.372 . S
C2339 C2338 1.372 . S
C2339 C2340 1.400 . S
C2339 C2344 1.490 . S
C2340 H2330 0.930 . S
C2340 C2339 1.400 . S
C2340 C2343 1.386 . S
H2341 C2357 0.930 . S
H2342 C2358 0.931 . S
C2343 H2331 0.929 . S
C2343 C2337 1.390 . S
C2343 C2340 1.386 . S
C2344 C2339 1.490 . S
C2344 C2346 1.395 . S
C2344 C2347 1.403 . S
H2345 C2351 0.930 . S
C2346 H2332 0.930 . S
C2346 C2344 1.395 . S
C2346 C2349 1.403 . S
C2347 C2344 1.403 . S
C2347 C2348 1.524 . S
C2347 C2351 1.400 . S
C2348 H2333 0.960 . S
C2348 H2334 0.960 . S
C2348 H2335 0.960 . S
C2348 C2347 1.524 . S
C2349 C2346 1.403 . S
C2349 C2350 1.392 . S
C2349 C2353 1.495 . S
C2350 C2349 1.392 . S
C2350 C2351 1.385 . S
C2350 C2352 1.478 . S
C2351 H2345 0.930 . S
C2351 C2347 1.400 . S
C2351 C2350 1.385 . S
C2352 C2350 1.478 . S
C2352 C2354 1.381 . S
C2352 C2358 1.383 . S
C2353 C2349 1.495 . S
C2353 H2359 0.959 . S
C2353 H2360 0.961 . S
C2353 H2361 0.960 . S
C2354 C2352 1.381 . S
C2354 C2355 1.394 . S
C2354 H2362 0.930 . S
C2355 C2354 1.394 . S
C2355 C2356 1.383 . S
C2355 H2363 0.929 . S
C2356 C2355 1.383 . S
C2356 C2357 1.377 . S
C2357 H2341 0.930 . S
C2357 C2356 1.377 . S
C2357 C2358 1.379 . S
C2358 H2342 0.931 . S
C2358 C2352 1.383 . S
C2358 C2357 1.379 . S
H2359 C2353 0.959 . S
H2360 C2353 0.961 . S
H2361 C2353 0.960 . S
H2362 C2354 0.930 . S
H2363 C2355 0.929 . S
H2364 C2372 0.929 . S
H2365 C2374 0.930 . S
H2366 C2376 0.930 . S
H2367 C2379 0.929 . S
H2368 C2382 0.930 . S
H2369 C2384 0.960 . S
H2370 C2384 0.960 . S
H2371 C2384 0.960 . S
C2372 H2364 0.929 . S
C2372 C2373 1.377 . S
C2372 C2374 1.384 . S
C2373 C2372 1.377 . S
C2373 C2379 1.390 . S
C2374 H2365 0.930 . S
C2374 C2372 1.384 . S
C2374 C2375 1.372 . S
C2375 C2374 1.372 . S
C2375 C2376 1.400 . S
C2375 C2380 1.490 . S
C2376 H2366 0.930 . S
C2376 C2375 1.400 . S
C2376 C2379 1.386 . S
H2377 C2393 0.930 . S
H2378 C2394 0.931 . S
C2379 H2367 0.929 . S
C2379 C2373 1.390 . S
C2379 C2376 1.386 . S
C2380 C2375 1.490 . S
C2380 C2382 1.395 . S
C2380 C2383 1.403 . S
H2381 C2387 0.930 . S
C2382 H2368 0.930 . S
C2382 C2380 1.395 . S
C2382 C2385 1.403 . S
C2383 C2380 1.403 . S
C2383 C2384 1.524 . S
C2383 C2387 1.400 . S
C2384 H2369 0.960 . S
C2384 H2370 0.960 . S
C2384 H2371 0.960 . S
C2384 C2383 1.524 . S
C2385 C2382 1.403 . S
C2385 C2386 1.392 . S
C2385 C2389 1.495 . S
C2386 C2385 1.392 . S
C2386 C2387 1.385 . S
C2386 C2388 1.478 . S
C2387 H2381 0.930 . S
C2387 C2383 1.400 . S
C2387 C2386 1.385 . S
C2388 C2386 1.478 . S
C2388 C2390 1.381 . S
C2388 C2394 1.383 . S
C2389 C2385 1.495 . S
C2389 H2395 0.959 . S
C2389 H2396 0.961 . S
C2389 H2397 0.960 . S
C2390 C2388 1.381 . S
C2390 C2391 1.394 . S
C2390 H2398 0.930 . S
C2391 C2390 1.394 . S
C2391 C2392 1.383 . S
C2391 H2399 0.929 . S
C2392 C2391 1.383 . S
C2392 C2393 1.377 . S
C2393 H2377 0.930 . S
C2393 C2392 1.377 . S
C2393 C2394 1.379 . S
C2394 H2378 0.931 . S
C2394 C2388 1.383 . S
C2394 C2393 1.379 . S
H2395 C2389 0.959 . S
H2396 C2389 0.961 . S
H2397 C2389 0.960 . S
H2398 C2390 0.930 . S
H2399 C2391 0.929 . S
H2400 C2408 0.929 . S
H2401 C2410 0.930 . S
H2402 C2412 0.930 . S
H2403 C2415 0.929 . S
H2404 C2418 0.930 . S
H2405 C2420 0.960 . S
H2406 C2420 0.960 . S
H2407 C2420 0.960 . S
C2408 H2400 0.929 . S
C2408 C2409 1.377 . S
C2408 C2410 1.384 . S
C2409 C2408 1.377 . S
C2409 C2415 1.390 . S
C2410 H2401 0.930 . S
C2410 C2408 1.384 . S
C2410 C2411 1.372 . S
C2411 C2410 1.372 . S
C2411 C2412 1.400 . S
C2411 C2416 1.490 . S
C2412 H2402 0.930 . S
C2412 C2411 1.400 . S
C2412 C2415 1.386 . S
H2413 C2429 0.930 . S
H2414 C2430 0.931 . S
C2415 H2403 0.929 . S
C2415 C2409 1.390 . S
C2415 C2412 1.386 . S
C2416 C2411 1.490 . S
C2416 C2418 1.395 . S
C2416 C2419 1.403 . S
H2417 C2423 0.930 . S
C2418 H2404 0.930 . S
C2418 C2416 1.395 . S
C2418 C2421 1.403 . S
C2419 C2416 1.403 . S
C2419 C2420 1.524 . S
C2419 C2423 1.400 . S
C2420 H2405 0.960 . S
C2420 H2406 0.960 . S
C2420 H2407 0.960 . S
C2420 C2419 1.524 . S
C2421 C2418 1.403 . S
C2421 C2422 1.392 . S
C2421 C2425 1.495 . S
C2422 C2421 1.392 . S
C2422 C2423 1.385 . S
C2422 C2424 1.478 . S
C2423 H2417 0.930 . S
C2423 C2419 1.400 . S
C2423 C2422 1.385 . S
C2424 C2422 1.478 . S
C2424 C2426 1.381 . S
C2424 C2430 1.383 . S
C2425 C2421 1.495 . S
C2425 H2431 0.959 . S
C2425 H2432 0.961 . S
C2425 H2433 0.960 . S
C2426 C2424 1.381 . S
C2426 C2427 1.394 . S
C2426 H2434 0.930 . S
C2427 C2426 1.394 . S
C2427 C2428 1.383 . S
C2427 H2435 0.929 . S
C2428 C2427 1.383 . S
C2428 C2429 1.377 . S
C2429 H2413 0.930 . S
C2429 C2428 1.377 . S
C2429 C2430 1.379 . S
C2430 H2414 0.931 . S
C2430 C2424 1.383 . S
C2430 C2429 1.379 . S
H2431 C2425 0.959 . S
H2432 C2425 0.961 . S
H2433 C2425 0.960 . S
H2434 C2426 0.930 . S
H2435 C2427 0.929 . S
H2436 C2444 0.929 . S
H2437 C2446 0.930 . S
H2438 C2448 0.930 . S
H2439 C2451 0.929 . S
H2440 C2454 0.930 . S
H2441 C2456 0.960 . S
H2442 C2456 0.960 . S
H2443 C2456 0.960 . S
C2444 H2436 0.929 . S
C2444 C2445 1.377 . S
C2444 C2446 1.384 . S
C2445 C2444 1.377 . S
C2445 C2451 1.390 . S
C2446 H2437 0.930 . S
C2446 C2444 1.384 . S
C2446 C2447 1.372 . S
C2447 C2446 1.372 . S
C2447 C2448 1.400 . S
C2447 C2452 1.490 . S
C2448 H2438 0.930 . S
C2448 C2447 1.400 . S
C2448 C2451 1.386 . S
H2449 C2465 0.930 . S
H2450 C2466 0.931 . S
C2451 H2439 0.929 . S
C2451 C2445 1.390 . S
C2451 C2448 1.386 . S
C2452 C2447 1.490 . S
C2452 C2454 1.395 . S
C2452 C2455 1.403 . S
H2453 C2459 0.930 . S
C2454 H2440 0.930 . S
C2454 C2452 1.395 . S
C2454 C2457 1.403 . S
C2455 C2452 1.403 . S
C2455 C2456 1.524 . S
C2455 C2459 1.400 . S
C2456 H2441 0.960 . S
C2456 H2442 0.960 . S
C2456 H2443 0.960 . S
C2456 C2455 1.524 . S
C2457 C2454 1.403 . S
C2457 C2458 1.392 . S
C2457 C2461 1.495 . S
C2458 C2457 1.392 . S
C2458 C2459 1.385 . S
C2458 C2460 1.478 . S
C2459 H2453 0.930 . S
C2459 C2455 1.400 . S
C2459 C2458 1.385 . S
C2460 C2458 1.478 . S
C2460 C2462 1.381 . S
C2460 C2466 1.383 . S
C2461 C2457 1.495 . S
C2461 H2467 0.959 . S
C2461 H2468 0.961 . S
C2461 H2469 0.960 . S
C2462 C2460 1.381 . S
C2462 C2463 1.394 . S
C2462 H2470 0.930 . S
C2463 C2462 1.394 . S
C2463 C2464 1.383 . S
C2463 H2471 0.929 . S
C2464 C2463 1.383 . S
C2464 C2465 1.377 . S
C2465 H2449 0.930 . S
C2465 C2464 1.377 . S
C2465 C2466 1.379 . S
C2466 H2450 0.931 . S
C2466 C2460 1.383 . S
C2466 C2465 1.379 . S
H2467 C2461 0.959 . S
H2468 C2461 0.961 . S
H2469 C2461 0.960 . S
H2470 C2462 0.930 . S
H2471 C2463 0.929 . S
H2472 C2480 0.929 . S
H2473 C2482 0.930 . S
H2474 C2484 0.930 . S
H2475 C2487 0.929 . S
H2476 C2490 0.930 . S
H2477 C2492 0.960 . S
H2478 C2492 0.960 . S
H2479 C2492 0.960 . S
C2480 H2472 0.929 . S
C2480 C2481 1.377 . S
C2480 C2482 1.384 . S
C2481 C2480 1.377 . S
C2481 C2487 1.390 . S
C2482 H2473 0.930 . S
C2482 C2480 1.384 . S
C2482 C2483 1.372 . S
C2483 C2482 1.372 . S
C2483 C2484 1.400 . S
C2483 C2488 1.490 . S
C2484 H2474 0.930 . S
C2484 C2483 1.400 . S
C2484 C2487 1.386 . S
H2485 C2501 0.930 . S
H2486 C2502 0.931 . S
C2487 H2475 0.929 . S
C2487 C2481 1.390 . S
C2487 C2484 1.386 . S
C2488 C2483 1.490 . S
C2488 C2490 1.395 . S
C2488 C2491 1.403 . S
H2489 C2495 0.930 . S
C2490 H2476 0.930 . S
C2490 C2488 1.395 . S
C2490 C2493 1.403 . S
C2491 C2488 1.403 . S
C2491 C2492 1.524 . S
C2491 C2495 1.400 . S
C2492 H2477 0.960 . S
C2492 H2478 0.960 . S
C2492 H2479 0.960 . S
C2492 C2491 1.524 . S
C2493 C2490 1.403 . S
C2493 C2494 1.392 . S
C2493 C2497 1.495 . S
C2494 C2493 1.392 . S
C2494 C2495 1.385 . S
C2494 C2496 1.478 . S
C2495 H2489 0.930 . S
C2495 C2491 1.400 . S
C2495 C2494 1.385 . S
C2496 C2494 1.478 . S
C2496 C2498 1.381 . S
C2496 C2502 1.383 . S
C2497 C2493 1.495 . S
C2497 H2503 0.959 . S
C2497 H2504 0.961 . S
C2497 H2505 0.960 . S
C2498 C2496 1.381 . S
C2498 C2499 1.394 . S
C2498 H2506 0.930 . S
C2499 C2498 1.394 . S
C2499 C2500 1.383 . S
C2499 H2507 0.929 . S
C2500 C2499 1.383 . S
C2500 C2501 1.377 . S
C2501 H2485 0.930 . S
C2501 C2500 1.377 . S
C2501 C2502 1.379 . S
C2502 H2486 0.931 . S
C2502 C2496 1.383 . S
C2502 C2501 1.379 . S
H2503 C2497 0.959 . S
H2504 C2497 0.961 . S
H2505 C2497 0.960 . S
H2506 C2498 0.930 . S
H2507 C2499 0.929 . S
H2508 C2516 0.929 . S
H2509 C2518 0.930 . S
H2510 C2520 0.930 . S
H2511 C2523 0.929 . S
H2512 C2526 0.930 . S
H2513 C2528 0.960 . S
H2514 C2528 0.960 1_655 S
H2515 C2528 0.960 1_655 S
C2516 H2508 0.929 . S
C2516 C2517 1.377 . S
C2516 C2518 1.384 . S
C2517 C2516 1.377 . S
C2517 C2523 1.390 . S
C2518 H2509 0.930 . S
C2518 C2516 1.384 . S
C2518 C2519 1.372 . S
C2519 C2518 1.372 . S
C2519 C2520 1.400 . S
C2519 C2524 1.490 1_655 S
C2520 H2510 0.930 . S
C2520 C2519 1.400 . S
C2520 C2523 1.386 . S
H2521 C2537 0.930 . S
H2522 C2538 0.931 . S
C2523 H2511 0.929 . S
C2523 C2517 1.390 . S
C2523 C2520 1.386 . S
C2524 C2519 1.490 1_455 S
C2524 C2526 1.395 . S
C2524 C2527 1.403 . S
H2525 C2531 0.930 . S
C2526 H2512 0.930 . S
C2526 C2524 1.395 . S
C2526 C2529 1.403 . S
C2527 C2524 1.403 . S
C2527 C2528 1.524 . S
C2527 C2531 1.400 . S
C2528 H2513 0.960 . S
C2528 H2514 0.960 1_455 S
C2528 H2515 0.960 1_455 S
C2528 C2527 1.524 . S
C2529 C2526 1.403 . S
C2529 C2530 1.392 . S
C2529 C2533 1.495 . S
C2530 C2529 1.392 . S
C2530 C2531 1.385 . S
C2530 C2532 1.478 . S
C2531 H2525 0.930 . S
C2531 C2527 1.400 . S
C2531 C2530 1.385 . S
C2532 C2530 1.478 . S
C2532 C2534 1.381 . S
C2532 C2538 1.383 . S
C2533 C2529 1.495 . S
C2533 H2539 0.959 . S
C2533 H2540 0.961 . S
C2533 H2541 0.960 . S
C2534 C2532 1.381 . S
C2534 C2535 1.394 . S
C2534 H2542 0.930 . S
C2535 C2534 1.394 . S
C2535 C2536 1.383 . S
C2535 H2543 0.929 . S
C2536 C2535 1.383 . S
C2536 C2537 1.377 . S
C2537 H2521 0.930 . S
C2537 C2536 1.377 . S
C2537 C2538 1.379 . S
C2538 H2522 0.931 . S
C2538 C2532 1.383 . S
C2538 C2537 1.379 . S
H2539 C2533 0.959 . S
H2540 C2533 0.961 . S
H2541 C2533 0.960 . S
H2542 C2534 0.930 . S
H2543 C2535 0.929 . S
H2544 C2552 0.929 . S
H2545 C2554 0.930 . S
H2546 C2556 0.930 . S
H2547 C2559 0.929 . S
H2548 C2562 0.930 . S
H2549 C2564 0.960 . S
H2550 C2564 0.960 . S
H2551 C2564 0.960 . S
C2552 H2544 0.929 . S
C2552 C2553 1.377 . S
C2552 C2554 1.384 . S
C2553 C2552 1.377 . S
C2553 C2559 1.390 . S
C2554 H2545 0.930 . S
C2554 C2552 1.384 . S
C2554 C2555 1.372 . S
C2555 C2554 1.372 . S
C2555 C2556 1.400 . S
C2555 C2560 1.490 . S
C2556 H2546 0.930 . S
C2556 C2555 1.400 . S
C2556 C2559 1.386 . S
H2557 C2573 0.930 . S
H2558 C2574 0.931 . S
C2559 H2547 0.929 . S
C2559 C2553 1.390 . S
C2559 C2556 1.386 . S
C2560 C2555 1.490 . S
C2560 C2562 1.395 . S
C2560 C2563 1.403 . S
H2561 C2567 0.930 . S
C2562 H2548 0.930 . S
C2562 C2560 1.395 . S
C2562 C2565 1.403 . S
C2563 C2560 1.403 . S
C2563 C2564 1.524 . S
C2563 C2567 1.400 . S
C2564 H2549 0.960 . S
C2564 H2550 0.960 . S
C2564 H2551 0.960 . S
C2564 C2563 1.524 . S
C2565 C2562 1.403 . S
C2565 C2566 1.392 . S
C2565 C2569 1.495 . S
C2566 C2565 1.392 . S
C2566 C2567 1.385 . S
C2566 C2568 1.478 . S
C2567 H2561 0.930 . S
C2567 C2563 1.400 . S
C2567 C2566 1.385 . S
C2568 C2566 1.478 . S
C2568 C2570 1.381 . S
C2568 C2574 1.383 . S
C2569 C2565 1.495 . S
C2569 H2575 0.959 . S
C2569 H2576 0.961 . S
C2569 H2577 0.960 . S
C2570 C2568 1.381 . S
C2570 C2571 1.394 . S
C2570 H2578 0.930 . S
C2571 C2570 1.394 . S
C2571 C2572 1.383 . S
C2571 H2579 0.929 . S
C2572 C2571 1.383 . S
C2572 C2573 1.377 . S
C2573 H2557 0.930 . S
C2573 C2572 1.377 . S
C2573 C2574 1.379 . S
C2574 H2558 0.931 . S
C2574 C2568 1.383 . S
C2574 C2573 1.379 . S
H2575 C2569 0.959 . S
H2576 C2569 0.961 . S
H2577 C2569 0.960 . S
H2578 C2570 0.930 . S
H2579 C2571 0.929 . S
H2580 C2588 0.929 . S
H2581 C2590 0.930 . S
H2582 C2592 0.930 . S
H2583 C2595 0.929 . S
H2584 C2598 0.930 . S
H2585 C2600 0.960 . S
H2586 C2600 0.960 . S
H2587 C2600 0.960 . S
C2588 H2580 0.929 . S
C2588 C2589 1.377 . S
C2588 C2590 1.384 . S
C2589 C2588 1.377 . S
C2589 C2595 1.390 . S
C2590 H2581 0.930 . S
C2590 C2588 1.384 . S
C2590 C2591 1.372 . S
C2591 C2590 1.372 . S
C2591 C2592 1.400 . S
C2591 C2596 1.490 . S
C2592 H2582 0.930 . S
C2592 C2591 1.400 . S
C2592 C2595 1.386 . S
H2593 C2609 0.930 . S
H2594 C2610 0.931 . S
C2595 H2583 0.929 . S
C2595 C2589 1.390 . S
C2595 C2592 1.386 . S
C2596 C2591 1.490 . S
C2596 C2598 1.395 . S
C2596 C2599 1.403 . S
H2597 C2603 0.930 . S
C2598 H2584 0.930 . S
C2598 C2596 1.395 . S
C2598 C2601 1.403 . S
C2599 C2596 1.403 . S
C2599 C2600 1.524 . S
C2599 C2603 1.400 . S
C2600 H2585 0.960 . S
C2600 H2586 0.960 . S
C2600 H2587 0.960 . S
C2600 C2599 1.524 . S
C2601 C2598 1.403 . S
C2601 C2602 1.392 1_455 S
C2601 C2605 1.495 1_455 S
C2602 C2601 1.392 1_655 S
C2602 C2603 1.385 1_655 S
C2602 C2604 1.478 . S
C2603 H2597 0.930 . S
C2603 C2599 1.400 . S
C2603 C2602 1.385 1_455 S
C2604 C2602 1.478 . S
C2604 C2606 1.381 . S
C2604 C2610 1.383 . S
C2605 C2601 1.495 1_655 S
C2605 H2611 0.959 1_655 S
C2605 H2612 0.961 . S
C2605 H2613 0.960 . S
C2606 C2604 1.381 . S
C2606 C2607 1.394 . S
C2606 H2614 0.930 . S
C2607 C2606 1.394 . S
C2607 C2608 1.383 . S
C2607 H2615 0.929 . S
C2608 C2607 1.383 . S
C2608 C2609 1.377 . S
C2609 H2593 0.930 . S
C2609 C2608 1.377 . S
C2609 C2610 1.379 . S
C2610 H2594 0.931 . S
C2610 C2604 1.383 . S
C2610 C2609 1.379 . S
H2611 C2605 0.959 1_455 S
H2612 C2605 0.961 . S
H2613 C2605 0.960 . S
H2614 C2606 0.930 . S
H2615 C2607 0.929 . S
H2616 C2624 0.929 . S
H2617 C2626 0.930 . S
H2618 C2628 0.930 . S
H2619 C2631 0.929 . S
H2620 C2634 0.930 . S
H2621 C2636 0.960 . S
H2622 C2636 0.960 . S
H2623 C2636 0.960 . S
C2624 H2616 0.929 . S
C2624 C2625 1.377 . S
C2624 C2626 1.384 . S
C2625 C2624 1.377 . S
C2625 C2631 1.390 . S
C2626 H2617 0.930 . S
C2626 C2624 1.384 . S
C2626 C2627 1.372 . S
C2627 C2626 1.372 . S
C2627 C2628 1.400 . S
C2627 C2632 1.490 . S
C2628 H2618 0.930 . S
C2628 C2627 1.400 . S
C2628 C2631 1.386 . S
H2629 C2645 0.930 . S
H2630 C2646 0.931 . S
C2631 H2619 0.929 . S
C2631 C2625 1.390 . S
C2631 C2628 1.386 . S
C2632 C2627 1.490 . S
C2632 C2634 1.395 . S
C2632 C2635 1.403 . S
H2633 C2639 0.930 . S
C2634 H2620 0.930 . S
C2634 C2632 1.395 . S
C2634 C2637 1.403 . S
C2635 C2632 1.403 . S
C2635 C2636 1.524 . S
C2635 C2639 1.400 . S
C2636 H2621 0.960 . S
C2636 H2622 0.960 . S
C2636 H2623 0.960 . S
C2636 C2635 1.524 . S
C2637 C2634 1.403 . S
C2637 C2638 1.392 . S
C2637 C2641 1.495 . S
C2638 C2637 1.392 . S
C2638 C2639 1.385 . S
C2638 C2640 1.478 . S
C2639 H2633 0.930 . S
C2639 C2635 1.400 . S
C2639 C2638 1.385 . S
C2640 C2638 1.478 . S
C2640 C2642 1.381 . S
C2640 C2646 1.383 . S
C2641 C2637 1.495 . S
C2641 H2647 0.959 . S
C2641 H2648 0.961 . S
C2641 H2649 0.960 . S
C2642 C2640 1.381 . S
C2642 C2643 1.394 . S
C2642 H2650 0.930 . S
C2643 C2642 1.394 . S
C2643 C2644 1.383 . S
C2643 H2651 0.929 . S
C2644 C2643 1.383 . S
C2644 C2645 1.377 . S
C2645 H2629 0.930 . S
C2645 C2644 1.377 . S
C2645 C2646 1.379 . S
C2646 H2630 0.931 . S
C2646 C2640 1.383 . S
C2646 C2645 1.379 . S
H2647 C2641 0.959 . S
H2648 C2641 0.961 . S
H2649 C2641 0.960 . S
H2650 C2642 0.930 . S
H2651 C2643 0.929 . S
H2652 C2660 0.929 . S
H2653 C2662 0.930 . S
H2654 C2664 0.930 . S
H2655 C2667 0.929 . S
H2656 C2670 0.930 . S
H2657 C2672 0.960 . S
H2658 C2672 0.960 . S
H2659 C2672 0.960 . S
C2660 H2652 0.929 . S
C2660 C2661 1.377 . S
C2660 C2662 1.384 . S
C2661 C2660 1.377 . S
C2661 C2667 1.390 . S
C2662 H2653 0.930 . S
C2662 C2660 1.384 . S
C2662 C2663 1.372 . S
C2663 C2662 1.372 . S
C2663 C2664 1.400 . S
C2663 C2668 1.490 . S
C2664 H2654 0.930 . S
C2664 C2663 1.400 . S
C2664 C2667 1.386 . S
H2665 C2681 0.930 . S
H2666 C2682 0.931 . S
C2667 H2655 0.929 . S
C2667 C2661 1.390 . S
C2667 C2664 1.386 . S
C2668 C2663 1.490 . S
C2668 C2670 1.395 . S
C2668 C2671 1.403 . S
H2669 C2675 0.930 . S
C2670 H2656 0.930 . S
C2670 C2668 1.395 . S
C2670 C2673 1.403 . S
C2671 C2668 1.403 . S
C2671 C2672 1.524 . S
C2671 C2675 1.400 . S
C2672 H2657 0.960 . S
C2672 H2658 0.960 . S
C2672 H2659 0.960 . S
C2672 C2671 1.524 . S
C2673 C2670 1.403 . S
C2673 C2674 1.392 . S
C2673 C2677 1.495 . S
C2674 C2673 1.392 . S
C2674 C2675 1.385 . S
C2674 C2676 1.478 . S
C2675 H2669 0.930 . S
C2675 C2671 1.400 . S
C2675 C2674 1.385 . S
C2676 C2674 1.478 . S
C2676 C2678 1.381 . S
C2676 C2682 1.383 . S
C2677 C2673 1.495 . S
C2677 H2683 0.959 . S
C2677 H2684 0.961 . S
C2677 H2685 0.960 . S
C2678 C2676 1.381 . S
C2678 C2679 1.394 . S
C2678 H2686 0.930 . S
C2679 C2678 1.394 . S
C2679 C2680 1.383 . S
C2679 H2687 0.929 . S
C2680 C2679 1.383 . S
C2680 C2681 1.377 . S
C2681 H2665 0.930 . S
C2681 C2680 1.377 . S
C2681 C2682 1.379 . S
C2682 H2666 0.931 . S
C2682 C2676 1.383 . S
C2682 C2681 1.379 . S
H2683 C2677 0.959 . S
H2684 C2677 0.961 . S
H2685 C2677 0.960 . S
H2686 C2678 0.930 . S
H2687 C2679 0.929 . S
H2688 C2696 0.929 . S
H2689 C2698 0.930 . S
H2690 C2700 0.930 . S
H2691 C2703 0.929 . S
H2692 C2706 0.930 . S
H2693 C2708 0.960 . S
H2694 C2708 0.960 . S
H2695 C2708 0.960 . S
C2696 H2688 0.929 . S
C2696 C2697 1.377 . S
C2696 C2698 1.384 . S
C2697 C2696 1.377 . S
C2697 C2703 1.390 . S
C2698 H2689 0.930 . S
C2698 C2696 1.384 . S
C2698 C2699 1.372 . S
C2699 C2698 1.372 . S
C2699 C2700 1.400 . S
C2699 C2704 1.490 . S
C2700 H2690 0.930 . S
C2700 C2699 1.400 . S
C2700 C2703 1.386 . S
H2701 C2717 0.930 . S
H2702 C2718 0.931 . S
C2703 H2691 0.929 . S
C2703 C2697 1.390 . S
C2703 C2700 1.386 . S
C2704 C2699 1.490 . S
C2704 C2706 1.395 . S
C2704 C2707 1.403 . S
H2705 C2711 0.930 . S
C2706 H2692 0.930 . S
C2706 C2704 1.395 . S
C2706 C2709 1.403 . S
C2707 C2704 1.403 . S
C2707 C2708 1.524 . S
C2707 C2711 1.400 . S
C2708 H2693 0.960 . S
C2708 H2694 0.960 . S
C2708 H2695 0.960 . S
C2708 C2707 1.524 . S
C2709 C2706 1.403 . S
C2709 C2710 1.392 . S
C2709 C2713 1.495 . S
C2710 C2709 1.392 . S
C2710 C2711 1.385 . S
C2710 C2712 1.478 . S
C2711 H2705 0.930 . S
C2711 C2707 1.400 . S
C2711 C2710 1.385 . S
C2712 C2710 1.478 . S
C2712 C2714 1.381 . S
C2712 C2718 1.383 . S
C2713 C2709 1.495 . S
C2713 H2719 0.959 . S
C2713 H2720 0.961 . S
C2713 H2721 0.960 . S
C2714 C2712 1.381 . S
C2714 C2715 1.394 . S
C2714 H2722 0.930 . S
C2715 C2714 1.394 . S
C2715 C2716 1.383 . S
C2715 H2723 0.929 . S
C2716 C2715 1.383 . S
C2716 C2717 1.377 . S
C2717 H2701 0.930 . S
C2717 C2716 1.377 . S
C2717 C2718 1.379 . S
C2718 H2702 0.931 . S
C2718 C2712 1.383 . S
C2718 C2717 1.379 . S
H2719 C2713 0.959 . S
H2720 C2713 0.961 . S
H2721 C2713 0.960 . S
H2722 C2714 0.930 . S
H2723 C2715 0.929 . S
H2724 C2732 0.929 . S
H2725 C2734 0.930 . S
H2726 C2736 0.930 . S
H2727 C2739 0.929 . S
H2728 C2742 0.930 . S
H2729 C2744 0.960 . S
H2730 C2744 0.960 . S
H2731 C2744 0.960 . S
C2732 H2724 0.929 . S
C2732 C2733 1.377 . S
C2732 C2734 1.384 . S
C2733 C2732 1.377 . S
C2733 C2739 1.390 . S
C2734 H2725 0.930 . S
C2734 C2732 1.384 . S
C2734 C2735 1.372 . S
C2735 C2734 1.372 . S
C2735 C2736 1.400 . S
C2735 C2740 1.490 . S
C2736 H2726 0.930 . S
C2736 C2735 1.400 . S
C2736 C2739 1.386 . S
H2737 C2753 0.930 . S
H2738 C2754 0.931 . S
C2739 H2727 0.929 . S
C2739 C2733 1.390 . S
C2739 C2736 1.386 . S
C2740 C2735 1.490 . S
C2740 C2742 1.395 . S
C2740 C2743 1.403 . S
H2741 C2747 0.930 . S
C2742 H2728 0.930 . S
C2742 C2740 1.395 . S
C2742 C2745 1.403 . S
C2743 C2740 1.403 . S
C2743 C2744 1.524 . S
C2743 C2747 1.400 . S
C2744 H2729 0.960 . S
C2744 H2730 0.960 . S
C2744 H2731 0.960 . S
C2744 C2743 1.524 . S
C2745 C2742 1.403 . S
C2745 C2746 1.392 . S
C2745 C2749 1.495 1_554 S
C2746 C2745 1.392 . S
C2746 C2747 1.385 . S
C2746 C2748 1.478 1_554 S
C2747 H2741 0.930 . S
C2747 C2743 1.400 . S
C2747 C2746 1.385 . S
C2748 C2746 1.478 1_556 S
C2748 C2750 1.381 . S
C2748 C2754 1.383 . S
C2749 C2745 1.495 1_556 S
C2749 H2755 0.959 1_556 S
C2749 H2756 0.961 . S
C2749 H2757 0.960 . S
C2750 C2748 1.381 . S
C2750 C2751 1.394 . S
C2750 H2758 0.930 . S
C2751 C2750 1.394 . S
C2751 C2752 1.383 . S
C2751 H2759 0.929 . S
C2752 C2751 1.383 . S
C2752 C2753 1.377 . S
C2753 H2737 0.930 . S
C2753 C2752 1.377 . S
C2753 C2754 1.379 . S
C2754 H2738 0.931 . S
C2754 C2748 1.383 . S
C2754 C2753 1.379 . S
H2755 C2749 0.959 1_554 S
H2756 C2749 0.961 . S
H2757 C2749 0.960 . S
H2758 C2750 0.930 . S
H2759 C2751 0.929 . S
H2760 C2768 0.929 . S
H2761 C2770 0.930 . S
H2762 C2772 0.930 . S
H2763 C2775 0.929 . S
H2764 C2778 0.930 . S
H2765 C2780 0.960 . S
H2766 C2780 0.960 . S
H2767 C2780 0.960 . S
C2768 H2760 0.929 . S
C2768 C2769 1.377 . S
C2768 C2770 1.384 . S
C2769 C2768 1.377 . S
C2769 C2775 1.390 . S
C2770 H2761 0.930 . S
C2770 C2768 1.384 . S
C2770 C2771 1.372 . S
C2771 C2770 1.372 . S
C2771 C2772 1.400 . S
C2771 C2776 1.490 . S
C2772 H2762 0.930 . S
C2772 C2771 1.400 . S
C2772 C2775 1.386 . S
H2773 C2789 0.930 . S
H2774 C2790 0.931 . S
C2775 H2763 0.929 . S
C2775 C2769 1.390 . S
C2775 C2772 1.386 . S
C2776 C2771 1.490 . S
C2776 C2778 1.395 . S
C2776 C2779 1.403 . S
H2777 C2783 0.930 . S
C2778 H2764 0.930 . S
C2778 C2776 1.395 . S
C2778 C2781 1.403 . S
C2779 C2776 1.403 . S
C2779 C2780 1.524 . S
C2779 C2783 1.400 . S
C2780 H2765 0.960 . S
C2780 H2766 0.960 . S
C2780 H2767 0.960 . S
C2780 C2779 1.524 . S
C2781 C2778 1.403 . S
C2781 C2782 1.392 . S
C2781 C2785 1.495 . S
C2782 C2781 1.392 . S
C2782 C2783 1.385 . S
C2782 C2784 1.478 . S
C2783 H2777 0.930 . S
C2783 C2779 1.400 . S
C2783 C2782 1.385 . S
C2784 C2782 1.478 . S
C2784 C2786 1.381 . S
C2784 C2790 1.383 . S
C2785 C2781 1.495 . S
C2785 H2791 0.959 . S
C2785 H2792 0.961 . S
C2785 H2793 0.960 . S
C2786 C2784 1.381 . S
C2786 C2787 1.394 . S
C2786 H2794 0.930 . S
C2787 C2786 1.394 . S
C2787 C2788 1.383 . S
C2787 H2795 0.929 . S
C2788 C2787 1.383 . S
C2788 C2789 1.377 . S
C2789 H2773 0.930 . S
C2789 C2788 1.377 . S
C2789 C2790 1.379 . S
C2790 H2774 0.931 . S
C2790 C2784 1.383 . S
C2790 C2789 1.379 . S
H2791 C2785 0.959 . S
H2792 C2785 0.961 . S
H2793 C2785 0.960 . S
H2794 C2786 0.930 . S
H2795 C2787 0.929 . S
H2796 C2804 0.929 . S
H2797 C2806 0.930 . S
H2798 C2808 0.930 . S
H2799 C2811 0.929 . S
H2800 C2814 0.930 . S
H2801 C2816 0.960 . S
H2802 C2816 0.960 . S
H2803 C2816 0.960 . S
C2804 H2796 0.929 . S
C2804 C2805 1.377 . S
C2804 C2806 1.384 . S
C2805 C2804 1.377 . S
C2805 C2811 1.390 . S
C2806 H2797 0.930 . S
C2806 C2804 1.384 . S
C2806 C2807 1.372 . S
C2807 C2806 1.372 . S
C2807 C2808 1.400 . S
C2807 C2812 1.490 . S
C2808 H2798 0.930 . S
C2808 C2807 1.400 . S
C2808 C2811 1.386 . S
H2809 C2825 0.930 . S
H2810 C2826 0.931 . S
C2811 H2799 0.929 . S
C2811 C2805 1.390 . S
C2811 C2808 1.386 . S
C2812 C2807 1.490 . S
C2812 C2814 1.395 . S
C2812 C2815 1.403 . S
H2813 C2819 0.930 . S
C2814 H2800 0.930 . S
C2814 C2812 1.395 . S
C2814 C2817 1.403 . S
C2815 C2812 1.403 . S
C2815 C2816 1.524 . S
C2815 C2819 1.400 . S
C2816 H2801 0.960 . S
C2816 H2802 0.960 . S
C2816 H2803 0.960 . S
C2816 C2815 1.524 . S
C2817 C2814 1.403 . S
C2817 C2818 1.392 . S
C2817 C2821 1.495 . S
C2818 C2817 1.392 . S
C2818 C2819 1.385 . S
C2818 C2820 1.478 . S
C2819 H2813 0.930 . S
C2819 C2815 1.400 . S
C2819 C2818 1.385 . S
C2820 C2818 1.478 . S
C2820 C2822 1.381 . S
C2820 C2826 1.383 . S
C2821 C2817 1.495 . S
C2821 H2827 0.959 . S
C2821 H2828 0.961 . S
C2821 H2829 0.960 . S
C2822 C2820 1.381 . S
C2822 C2823 1.394 . S
C2822 H2830 0.930 . S
C2823 C2822 1.394 . S
C2823 C2824 1.383 . S
C2823 H2831 0.929 . S
C2824 C2823 1.383 . S
C2824 C2825 1.377 . S
C2825 H2809 0.930 . S
C2825 C2824 1.377 . S
C2825 C2826 1.379 . S
C2826 H2810 0.931 . S
C2826 C2820 1.383 . S
C2826 C2825 1.379 . S
H2827 C2821 0.959 . S
H2828 C2821 0.961 . S
H2829 C2821 0.960 . S
H2830 C2822 0.930 . S
H2831 C2823 0.929 . S
H2832 C2840 0.929 . S
H2833 C2842 0.930 . S
H2834 C2844 0.930 . S
H2835 C2847 0.929 . S
H2836 C2850 0.930 . S
H2837 C2852 0.960 . S
H2838 C2852 0.960 . S
H2839 C2852 0.960 . S
C2840 H2832 0.929 . S
C2840 C2841 1.377 . S
C2840 C2842 1.384 . S
C2841 C2840 1.377 . S
C2841 C2847 1.390 . S
C2842 H2833 0.930 . S
C2842 C2840 1.384 . S
C2842 C2843 1.372 . S
C2843 C2842 1.372 . S
C2843 C2844 1.400 . S
C2843 C2848 1.490 . S
C2844 H2834 0.930 . S
C2844 C2843 1.400 . S
C2844 C2847 1.386 . S
H2845 C2861 0.930 . S
H2846 C2862 0.931 . S
C2847 H2835 0.929 . S
C2847 C2841 1.390 . S
C2847 C2844 1.386 . S
C2848 C2843 1.490 . S
C2848 C2850 1.395 . S
C2848 C2851 1.403 . S
H2849 C2855 0.930 . S
C2850 H2836 0.930 . S
C2850 C2848 1.395 . S
C2850 C2853 1.403 . S
C2851 C2848 1.403 . S
C2851 C2852 1.524 . S
C2851 C2855 1.400 . S
C2852 H2837 0.960 . S
C2852 H2838 0.960 . S
C2852 H2839 0.960 . S
C2852 C2851 1.524 . S
C2853 C2850 1.403 . S
C2853 C2854 1.392 . S
C2853 C2857 1.495 . S
C2854 C2853 1.392 . S
C2854 C2855 1.385 . S
C2854 C2856 1.478 . S
C2855 H2849 0.930 . S
C2855 C2851 1.400 . S
C2855 C2854 1.385 . S
C2856 C2854 1.478 . S
C2856 C2858 1.381 . S
C2856 C2862 1.383 . S
C2857 C2853 1.495 . S
C2857 H2863 0.959 . S
C2857 H2864 0.961 . S
C2857 H2865 0.960 . S
C2858 C2856 1.381 . S
C2858 C2859 1.394 . S
C2858 H2866 0.930 . S
C2859 C2858 1.394 . S
C2859 C2860 1.383 . S
C2859 H2867 0.929 . S
C2860 C2859 1.383 . S
C2860 C2861 1.377 . S
C2861 H2845 0.930 . S
C2861 C2860 1.377 . S
C2861 C2862 1.379 . S
C2862 H2846 0.931 . S
C2862 C2856 1.383 . S
C2862 C2861 1.379 . S
H2863 C2857 0.959 . S
H2864 C2857 0.961 . S
H2865 C2857 0.960 . S
H2866 C2858 0.930 . S
H2867 C2859 0.929 . S
H2868 C2876 0.929 . S
H2869 C2878 0.930 . S
H2870 C2880 0.930 . S
H2871 C2883 0.929 . S
H2872 C2886 0.930 . S
H2873 C2888 0.960 . S
H2874 C2888 0.960 . S
H2875 C2888 0.960 . S
C2876 H2868 0.929 . S
C2876 C2877 1.377 . S
C2876 C2878 1.384 . S
C2877 C2876 1.377 . S
C2877 C2883 1.390 . S
C2878 H2869 0.930 . S
C2878 C2876 1.384 . S
C2878 C2879 1.372 . S
C2879 C2878 1.372 . S
C2879 C2880 1.400 . S
C2879 C2884 1.490 . S
C2880 H2870 0.930 . S
C2880 C2879 1.400 . S
C2880 C2883 1.386 . S
H2881 C2897 0.930 . S
H2882 C2898 0.931 . S
C2883 H2871 0.929 . S
C2883 C2877 1.390 . S
C2883 C2880 1.386 . S
C2884 C2879 1.490 . S
C2884 C2886 1.395 . S
C2884 C2887 1.403 . S
H2885 C2891 0.930 . S
C2886 H2872 0.930 . S
C2886 C2884 1.395 . S
C2886 C2889 1.403 . S
C2887 C2884 1.403 . S
C2887 C2888 1.524 . S
C2887 C2891 1.400 . S
C2888 H2873 0.960 . S
C2888 H2874 0.960 . S
C2888 H2875 0.960 . S
C2888 C2887 1.524 . S
C2889 C2886 1.403 . S
C2889 C2890 1.392 . S
C2889 C2893 1.495 . S
C2890 C2889 1.392 . S
C2890 C2891 1.385 . S
C2890 C2892 1.478 1_556 S
C2891 H2885 0.930 . S
C2891 C2887 1.400 . S
C2891 C2890 1.385 . S
C2892 C2890 1.478 1_554 S
C2892 C2894 1.381 . S
C2892 C2898 1.383 . S
C2893 C2889 1.495 . S
C2893 H2899 0.959 . S
C2893 H2900 0.961 1_556 S
C2893 H2901 0.960 . S
C2894 C2892 1.381 . S
C2894 C2895 1.394 . S
C2894 H2902 0.930 . S
C2895 C2894 1.394 . S
C2895 C2896 1.383 . S
C2895 H2903 0.929 . S
C2896 C2895 1.383 . S
C2896 C2897 1.377 . S
C2897 H2881 0.930 . S
C2897 C2896 1.377 . S
C2897 C2898 1.379 . S
C2898 H2882 0.931 . S
C2898 C2892 1.383 . S
C2898 C2897 1.379 . S
H2899 C2893 0.959 . S
H2900 C2893 0.961 1_554 S
H2901 C2893 0.960 . S
H2902 C2894 0.930 . S
H2903 C2895 0.929 . S
H2904 C2912 0.929 . S
H2905 C2914 0.930 . S
H2906 C2916 0.930 . S
H2907 C2919 0.929 . S
H2908 C2922 0.930 . S
H2909 C2924 0.960 . S
H2910 C2924 0.960 . S
H2911 C2924 0.960 . S
C2912 H2904 0.929 . S
C2912 C2913 1.377 . S
C2912 C2914 1.384 . S
C2913 C2912 1.377 . S
C2913 C2919 1.390 . S
C2914 H2905 0.930 . S
C2914 C2912 1.384 . S
C2914 C2915 1.372 . S
C2915 C2914 1.372 . S
C2915 C2916 1.400 . S
C2915 C2920 1.490 . S
C2916 H2906 0.930 . S
C2916 C2915 1.400 . S
C2916 C2919 1.386 . S
H2917 C2933 0.930 . S
H2918 C2934 0.931 . S
C2919 H2907 0.929 . S
C2919 C2913 1.390 . S
C2919 C2916 1.386 . S
C2920 C2915 1.490 . S
C2920 C2922 1.395 . S
C2920 C2923 1.403 . S
H2921 C2927 0.930 . S
C2922 H2908 0.930 . S
C2922 C2920 1.395 . S
C2922 C2925 1.403 . S
C2923 C2920 1.403 . S
C2923 C2924 1.524 . S
C2923 C2927 1.400 . S
C2924 H2909 0.960 . S
C2924 H2910 0.960 . S
C2924 H2911 0.960 . S
C2924 C2923 1.524 . S
C2925 C2922 1.403 . S
C2925 C2926 1.392 . S
C2925 C2929 1.495 . S
C2926 C2925 1.392 . S
C2926 C2927 1.385 . S
C2926 C2928 1.478 . S
C2927 H2921 0.930 . S
C2927 C2923 1.400 . S
C2927 C2926 1.385 . S
C2928 C2926 1.478 . S
C2928 C2930 1.381 . S
C2928 C2934 1.383 . S
C2929 C2925 1.495 . S
C2929 H2935 0.959 . S
C2929 H2936 0.961 . S
C2929 H2937 0.960 . S
C2930 C2928 1.381 . S
C2930 C2931 1.394 . S
C2930 H2938 0.930 . S
C2931 C2930 1.394 . S
C2931 C2932 1.383 . S
C2931 H2939 0.929 . S
C2932 C2931 1.383 . S
C2932 C2933 1.377 . S
C2933 H2917 0.930 . S
C2933 C2932 1.377 . S
C2933 C2934 1.379 . S
C2934 H2918 0.931 . S
C2934 C2928 1.383 . S
C2934 C2933 1.379 . S
H2935 C2929 0.959 . S
H2936 C2929 0.961 . S
H2937 C2929 0.960 . S
H2938 C2930 0.930 . S
H2939 C2931 0.929 . S
H2940 C2948 0.929 . S
H2941 C2950 0.930 . S
H2942 C2952 0.930 . S
H2943 C2955 0.929 . S
H2944 C2958 0.930 . S
H2945 C2960 0.960 . S
H2946 C2960 0.960 . S
H2947 C2960 0.960 . S
C2948 H2940 0.929 . S
C2948 C2949 1.377 . S
C2948 C2950 1.384 . S
C2949 C2948 1.377 . S
C2949 C2955 1.390 . S
C2950 H2941 0.930 . S
C2950 C2948 1.384 . S
C2950 C2951 1.372 . S
C2951 C2950 1.372 . S
C2951 C2952 1.400 . S
C2951 C2956 1.490 . S
C2952 H2942 0.930 . S
C2952 C2951 1.400 . S
C2952 C2955 1.386 . S
H2953 C2969 0.930 . S
H2954 C2970 0.931 . S
C2955 H2943 0.929 . S
C2955 C2949 1.390 . S
C2955 C2952 1.386 . S
C2956 C2951 1.490 . S
C2956 C2958 1.395 . S
C2956 C2959 1.403 . S
H2957 C2963 0.930 . S
C2958 H2944 0.930 . S
C2958 C2956 1.395 . S
C2958 C2961 1.403 . S
C2959 C2956 1.403 . S
C2959 C2960 1.524 . S
C2959 C2963 1.400 . S
C2960 H2945 0.960 . S
C2960 H2946 0.960 . S
C2960 H2947 0.960 . S
C2960 C2959 1.524 . S
C2961 C2958 1.403 . S
C2961 C2962 1.392 . S
C2961 C2965 1.495 . S
C2962 C2961 1.392 . S
C2962 C2963 1.385 . S
C2962 C2964 1.478 . S
C2963 H2957 0.930 . S
C2963 C2959 1.400 . S
C2963 C2962 1.385 . S
C2964 C2962 1.478 . S
C2964 C2966 1.381 . S
C2964 C2970 1.383 . S
C2965 C2961 1.495 . S
C2965 H2971 0.959 . S
C2965 H2972 0.961 . S
C2965 H2973 0.960 . S
C2966 C2964 1.381 . S
C2966 C2967 1.394 . S
C2966 H2974 0.930 . S
C2967 C2966 1.394 . S
C2967 C2968 1.383 . S
C2967 H2975 0.929 . S
C2968 C2967 1.383 . S
C2968 C2969 1.377 . S
C2969 H2953 0.930 . S
C2969 C2968 1.377 . S
C2969 C2970 1.379 . S
C2970 H2954 0.931 . S
C2970 C2964 1.383 . S
C2970 C2969 1.379 . S
H2971 C2965 0.959 . S
H2972 C2965 0.961 . S
H2973 C2965 0.960 . S
H2974 C2966 0.930 . S
H2975 C2967 0.929 . S
H2976 C2984 0.929 . S
H2977 C2986 0.930 . S
H2978 C2988 0.930 . S
H2979 C2991 0.929 . S
H2980 C2994 0.930 . S
H2981 C2996 0.960 . S
H2982 C2996 0.960 . S
H2983 C2996 0.960 . S
C2984 H2976 0.929 . S
C2984 C2985 1.377 . S
C2984 C2986 1.384 . S
C2985 C2984 1.377 . S
C2985 C2991 1.390 . S
C2986 H2977 0.930 . S
C2986 C2984 1.384 . S
C2986 C2987 1.372 . S
C2987 C2986 1.372 . S
C2987 C2988 1.400 . S
C2987 C2992 1.490 . S
C2988 H2978 0.930 . S
C2988 C2987 1.400 . S
C2988 C2991 1.386 . S
H2989 C3005 0.930 . S
H2990 C3006 0.931 . S
C2991 H2979 0.929 . S
C2991 C2985 1.390 . S
C2991 C2988 1.386 . S
C2992 C2987 1.490 . S
C2992 C2994 1.395 . S
C2992 C2995 1.403 . S
H2993 C2999 0.930 . S
C2994 H2980 0.930 . S
C2994 C2992 1.395 . S
C2994 C2997 1.403 . S
C2995 C2992 1.403 . S
C2995 C2996 1.524 . S
C2995 C2999 1.400 . S
C2996 H2981 0.960 . S
C2996 H2982 0.960 . S
C2996 H2983 0.960 . S
C2996 C2995 1.524 . S
C2997 C2994 1.403 . S
C2997 C2998 1.392 . S
C2997 C3001 1.495 . S
C2998 C2997 1.392 . S
C2998 C2999 1.385 . S
C2998 C3000 1.478 . S
C2999 H2993 0.930 . S
C2999 C2995 1.400 . S
C2999 C2998 1.385 . S
C3000 C2998 1.478 . S
C3000 C3002 1.381 . S
C3000 C3006 1.383 . S
C3001 C2997 1.495 . S
C3001 H3007 0.959 . S
C3001 H3008 0.961 . S
C3001 H3009 0.960 . S
C3002 C3000 1.381 . S
C3002 C3003 1.394 . S
C3002 H3010 0.930 . S
C3003 C3002 1.394 . S
C3003 C3004 1.383 . S
C3003 H3011 0.929 . S
C3004 C3003 1.383 . S
C3004 C3005 1.377 . S
C3005 H2989 0.930 . S
C3005 C3004 1.377 . S
C3005 C3006 1.379 . S
C3006 H2990 0.931 . S
C3006 C3000 1.383 . S
C3006 C3005 1.379 . S
H3007 C3001 0.959 . S
H3008 C3001 0.961 . S
H3009 C3001 0.960 . S
H3010 C3002 0.930 . S
H3011 C3003 0.929 . S
H3012 C3020 0.929 . S
H3013 C3022 0.930 . S
H3014 C3024 0.930 . S
H3015 C3027 0.929 . S
H3016 C3030 0.930 . S
H3017 C3032 0.960 . S
H3018 C3032 0.960 . S
H3019 C3032 0.960 . S
C3020 H3012 0.929 . S
C3020 C3021 1.377 . S
C3020 C3022 1.384 . S
C3021 C3020 1.377 . S
C3021 C3027 1.390 . S
C3022 H3013 0.930 . S
C3022 C3020 1.384 . S
C3022 C3023 1.372 . S
C3023 C3022 1.372 . S
C3023 C3024 1.400 . S
C3023 C3028 1.490 . S
C3024 H3014 0.930 . S
C3024 C3023 1.400 . S
C3024 C3027 1.386 . S
H3025 C3041 0.930 . S
H3026 C3042 0.931 . S
C3027 H3015 0.929 . S
C3027 C3021 1.390 . S
C3027 C3024 1.386 . S
C3028 C3023 1.490 . S
C3028 C3030 1.395 . S
C3028 C3031 1.403 . S
H3029 C3035 0.930 . S
C3030 H3016 0.930 . S
C3030 C3028 1.395 . S
C3030 C3033 1.403 . S
C3031 C3028 1.403 . S
C3031 C3032 1.524 . S
C3031 C3035 1.400 . S
C3032 H3017 0.960 . S
C3032 H3018 0.960 . S
C3032 H3019 0.960 . S
C3032 C3031 1.524 . S
C3033 C3030 1.403 . S
C3033 C3034 1.392 . S
C3033 C3037 1.495 . S
C3034 C3033 1.392 . S
C3034 C3035 1.385 . S
C3034 C3036 1.478 . S
C3035 H3029 0.930 . S
C3035 C3031 1.400 . S
C3035 C3034 1.385 . S
C3036 C3034 1.478 . S
C3036 C3038 1.381 . S
C3036 C3042 1.383 . S
C3037 C3033 1.495 . S
C3037 H3043 0.959 . S
C3037 H3044 0.961 . S
C3037 H3045 0.960 . S
C3038 C3036 1.381 . S
C3038 C3039 1.394 . S
C3038 H3046 0.930 . S
C3039 C3038 1.394 . S
C3039 C3040 1.383 . S
C3039 H3047 0.929 . S
C3040 C3039 1.383 . S
C3040 C3041 1.377 . S
C3041 H3025 0.930 . S
C3041 C3040 1.377 . S
C3041 C3042 1.379 . S
C3042 H3026 0.931 . S
C3042 C3036 1.383 . S
C3042 C3041 1.379 . S
H3043 C3037 0.959 . S
H3044 C3037 0.961 . S
H3045 C3037 0.960 . S
H3046 C3038 0.930 . S
H3047 C3039 0.929 . S
H3048 C3056 0.929 . S
H3049 C3058 0.930 . S
H3050 C3060 0.930 . S
H3051 C3063 0.929 . S
H3052 C3066 0.930 . S
H3053 C3068 0.960 . S
H3054 C3068 0.960 . S
H3055 C3068 0.960 . S
C3056 H3048 0.929 . S
C3056 C3057 1.377 . S
C3056 C3058 1.384 . S
C3057 C3056 1.377 . S
C3057 C3063 1.390 . S
C3058 H3049 0.930 . S
C3058 C3056 1.384 . S
C3058 C3059 1.372 . S
C3059 C3058 1.372 . S
C3059 C3060 1.400 . S
C3059 C3064 1.490 . S
C3060 H3050 0.930 . S
C3060 C3059 1.400 . S
C3060 C3063 1.386 . S
H3061 C3077 0.930 . S
H3062 C3078 0.931 . S
C3063 H3051 0.929 . S
C3063 C3057 1.390 . S
C3063 C3060 1.386 . S
C3064 C3059 1.490 . S
C3064 C3066 1.395 . S
C3064 C3067 1.403 . S
H3065 C3071 0.913 1_565 S
C3066 H3052 0.930 . S
C3066 C3064 1.395 . S
C3066 C3069 1.403 . S
C3067 C3064 1.403 . S
C3067 C3068 1.524 . S
C3067 C3071 1.420 . S
C3068 H3053 0.960 . S
C3068 H3054 0.960 . S
C3068 H3055 0.960 . S
C3068 C3067 1.524 . S
C3069 C3066 1.403 . S
C3069 C3070 1.392 1_545 S
C3069 C3073 1.495 . S
C3070 C3069 1.392 1_565 S
C3070 C3071 1.381 1_565 S
C3070 C3072 1.478 . S
C3071 H3065 0.913 1_545 S
C3071 C3067 1.420 . S
C3071 C3070 1.381 1_545 S
C3072 C3070 1.478 . S
C3072 C3074 1.381 . S
C3072 C3078 1.383 . S
C3073 C3069 1.495 . S
C3073 H3079 0.959 . S
C3073 H3080 0.961 . S
C3073 H3081 0.960 . S
C3074 C3072 1.381 . S
C3074 C3075 1.394 . S
C3074 H3082 0.930 . S
C3075 C3074 1.394 . S
C3075 C3076 1.383 . S
C3075 H3083 0.929 . S
C3076 C3075 1.383 . S
C3076 C3077 1.377 . S
C3077 H3061 0.930 . S
C3077 C3076 1.377 . S
C3077 C3078 1.379 . S
C3078 H3062 0.931 . S
C3078 C3072 1.383 . S
C3078 C3077 1.379 . S
H3079 C3073 0.959 . S
H3080 C3073 0.961 . S
H3081 C3073 0.960 . S
H3082 C3074 0.930 . S
H3083 C3075 0.929 . S
H3084 C3092 0.929 . S
H3085 C3094 0.930 . S
H3086 C3096 0.930 . S
H3087 C3099 0.929 . S
H3088 C3102 0.930 . S
H3089 C3104 0.960 . S
H3090 C3104 0.960 . S
H3091 C3104 0.960 . S
C3092 H3084 0.929 . S
C3092 C3093 1.377 . S
C3092 C3094 1.384 . S
C3093 C3092 1.377 . S
C3093 C3099 1.390 . S
C3094 H3085 0.930 . S
C3094 C3092 1.384 . S
C3094 C3095 1.372 . S
C3095 C3094 1.372 . S
C3095 C3096 1.400 . S
C3095 C3100 1.490 . S
C3096 H3086 0.930 . S
C3096 C3095 1.400 . S
C3096 C3099 1.386 . S
H3097 C3113 0.930 . S
H3098 C3114 0.931 . S
C3099 H3087 0.929 . S
C3099 C3093 1.390 . S
C3099 C3096 1.386 . S
C3100 C3095 1.490 . S
C3100 C3102 1.395 . S
C3100 C3103 1.403 . S
H3101 C3107 0.930 . S
C3102 H3088 0.930 . S
C3102 C3100 1.395 . S
C3102 C3105 1.403 . S
C3103 C3100 1.403 . S
C3103 C3104 1.524 . S
C3103 C3107 1.400 . S
C3104 H3089 0.960 . S
C3104 H3090 0.960 . S
C3104 H3091 0.960 . S
C3104 C3103 1.524 . S
C3105 C3102 1.403 . S
C3105 C3106 1.392 . S
C3105 C3109 1.495 . S
C3106 C3105 1.392 . S
C3106 C3107 1.385 . S
C3106 C3108 1.478 . S
C3107 H3101 0.930 . S
C3107 C3103 1.400 . S
C3107 C3106 1.385 . S
C3108 C3106 1.478 . S
C3108 C3110 1.381 . S
C3108 C3114 1.383 . S
C3109 C3105 1.495 . S
C3109 H3115 0.959 . S
C3109 H3116 0.961 . S
C3109 H3117 0.960 . S
C3110 C3108 1.381 . S
C3110 C3111 1.394 . S
C3110 H3118 0.930 . S
C3111 C3110 1.394 . S
C3111 C3112 1.383 . S
C3111 H3119 0.929 . S
C3112 C3111 1.383 . S
C3112 C3113 1.377 . S
C3113 H3097 0.930 . S
C3113 C3112 1.377 . S
C3113 C3114 1.379 . S
C3114 H3098 0.931 . S
C3114 C3108 1.383 . S
C3114 C3113 1.379 . S
H3115 C3109 0.959 . S
H3116 C3109 0.961 . S
H3117 C3109 0.960 . S
H3118 C3110 0.930 . S
H3119 C3111 0.929 . S
H3120 C3128 0.929 . S
H3121 C3130 0.930 . S
H3122 C3132 0.930 . S
H3123 C3135 0.929 . S
H3124 C3138 0.930 . S
H3125 C3140 0.960 . S
H3126 C3140 0.960 . S
H3127 C3140 0.960 . S
C3128 H3120 0.929 . S
C3128 C3129 1.377 . S
C3128 C3130 1.384 . S
C3129 C3128 1.377 . S
C3129 C3135 1.390 . S
C3130 H3121 0.930 . S
C3130 C3128 1.384 . S
C3130 C3131 1.372 . S
C3131 C3130 1.372 . S
C3131 C3132 1.400 . S
C3131 C3136 1.490 . S
C3132 H3122 0.930 . S
C3132 C3131 1.400 . S
C3132 C3135 1.386 . S
H3133 C3149 0.930 . S
H3134 C3150 0.931 . S
C3135 H3123 0.929 . S
C3135 C3129 1.390 . S
C3135 C3132 1.386 . S
C3136 C3131 1.490 . S
C3136 C3138 1.395 . S
C3136 C3139 1.403 . S
H3137 C3143 0.930 . S
C3138 H3124 0.930 . S
C3138 C3136 1.395 . S
C3138 C3141 1.403 . S
C3139 C3136 1.403 . S
C3139 C3140 1.524 . S
C3139 C3143 1.400 . S
C3140 H3125 0.960 . S
C3140 H3126 0.960 . S
C3140 H3127 0.960 . S
C3140 C3139 1.524 . S
C3141 C3138 1.403 . S
C3141 C3142 1.392 . S
C3141 C3145 1.495 . S
C3142 C3141 1.392 . S
C3142 C3143 1.385 . S
C3142 C3144 1.478 . S
C3143 H3137 0.930 . S
C3143 C3139 1.400 . S
C3143 C3142 1.385 . S
C3144 C3142 1.478 . S
C3144 C3146 1.381 . S
C3144 C3150 1.383 . S
C3145 C3141 1.495 . S
C3145 H3151 0.959 . S
C3145 H3152 0.961 . S
C3145 H3153 0.960 . S
C3146 C3144 1.381 . S
C3146 C3147 1.394 . S
C3146 H3154 0.930 . S
C3147 C3146 1.394 . S
C3147 C3148 1.383 . S
C3147 H3155 0.929 . S
C3148 C3147 1.383 . S
C3148 C3149 1.377 . S
C3149 H3133 0.930 . S
C3149 C3148 1.377 . S
C3149 C3150 1.379 . S
C3150 H3134 0.931 . S
C3150 C3144 1.383 . S
C3150 C3149 1.379 . S
H3151 C3145 0.959 . S
H3152 C3145 0.961 . S
H3153 C3145 0.960 . S
H3154 C3146 0.930 . S
H3155 C3147 0.929 . S
H3156 C3164 0.929 . S
H3157 C3166 0.930 . S
H3158 C3168 0.930 . S
H3159 C3171 0.929 . S
H3160 C3174 0.930 . S
H3161 C3176 0.960 . S
H3162 C3176 0.960 . S
H3163 C3176 0.960 . S
C3164 H3156 0.929 . S
C3164 C3165 1.377 . S
C3164 C3166 1.384 . S
C3165 C3164 1.377 . S
C3165 C3171 1.390 . S
C3166 H3157 0.930 . S
C3166 C3164 1.384 . S
C3166 C3167 1.372 . S
C3167 C3166 1.372 . S
C3167 C3168 1.400 . S
C3167 C3172 1.490 . S
C3168 H3158 0.930 . S
C3168 C3167 1.400 . S
C3168 C3171 1.386 . S
H3169 C3185 0.930 . S
H3170 C3186 0.931 . S
C3171 H3159 0.929 . S
C3171 C3165 1.390 . S
C3171 C3168 1.386 . S
C3172 C3167 1.490 . S
C3172 C3174 1.395 . S
C3172 C3175 1.403 . S
H3173 C3179 0.930 . S
C3174 H3160 0.930 . S
C3174 C3172 1.395 . S
C3174 C3177 1.403 . S
C3175 C3172 1.403 . S
C3175 C3176 1.524 . S
C3175 C3179 1.400 . S
C3176 H3161 0.960 . S
C3176 H3162 0.960 . S
C3176 H3163 0.960 . S
C3176 C3175 1.524 . S
C3177 C3174 1.403 . S
C3177 C3178 1.392 . S
C3177 C3181 1.495 . S
C3178 C3177 1.392 . S
C3178 C3179 1.385 . S
C3178 C3180 1.478 . S
C3179 H3173 0.930 . S
C3179 C3175 1.400 . S
C3179 C3178 1.385 . S
C3180 C3178 1.478 . S
C3180 C3182 1.381 . S
C3180 C3186 1.383 . S
C3181 C3177 1.495 . S
C3181 H3187 0.959 . S
C3181 H3188 0.961 . S
C3181 H3189 0.960 . S
C3182 C3180 1.381 . S
C3182 C3183 1.394 . S
C3182 H3190 0.930 . S
C3183 C3182 1.394 . S
C3183 C3184 1.383 . S
C3183 H3191 0.929 . S
C3184 C3183 1.383 . S
C3184 C3185 1.377 . S
C3185 H3169 0.930 . S
C3185 C3184 1.377 . S
C3185 C3186 1.379 . S
C3186 H3170 0.931 . S
C3186 C3180 1.383 . S
C3186 C3185 1.379 . S
H3187 C3181 0.959 . S
H3188 C3181 0.961 . S
H3189 C3181 0.960 . S
H3190 C3182 0.930 . S
H3191 C3183 0.929 . S
H3192 C3200 0.929 . S
H3193 C3202 0.930 . S
H3194 C3204 0.930 . S
H3195 C3207 0.929 . S
H3196 C3210 0.930 . S
H3197 C3212 0.960 . S
H3198 C3212 0.960 . S
H3199 C3212 0.960 . S
C3200 H3192 0.929 . S
C3200 C3201 1.377 . S
C3200 C3202 1.384 . S
C3201 C3200 1.377 . S
C3201 C3207 1.390 . S
C3202 H3193 0.930 . S
C3202 C3200 1.384 . S
C3202 C3203 1.372 . S
C3203 C3202 1.372 . S
C3203 C3204 1.400 . S
C3203 C3208 1.490 1_545 S
C3204 H3194 0.930 . S
C3204 C3203 1.400 . S
C3204 C3207 1.386 . S
H3205 C3221 0.930 . S
H3206 C3222 0.931 . S
C3207 H3195 0.929 . S
C3207 C3201 1.390 . S
C3207 C3204 1.386 . S
C3208 C3203 1.490 1_565 S
C3208 C3210 1.395 . S
C3208 C3211 1.403 . S
H3209 C3215 0.930 . S
C3210 H3196 0.930 . S
C3210 C3208 1.395 . S
C3210 C3213 1.403 . S
C3211 C3208 1.403 . S
C3211 C3212 1.524 . S
C3211 C3215 1.400 . S
C3212 H3197 0.960 . S
C3212 H3198 0.960 . S
C3212 H3199 0.960 . S
C3212 C3211 1.524 . S
C3213 C3210 1.403 . S
C3213 C3214 1.392 . S
C3213 C3217 1.495 . S
C3214 C3213 1.392 . S
C3214 C3215 1.385 . S
C3214 C3216 1.478 . S
C3215 H3209 0.930 . S
C3215 C3211 1.400 . S
C3215 C3214 1.385 . S
C3216 C3214 1.478 . S
C3216 C3218 1.381 . S
C3216 C3222 1.383 . S
C3217 C3213 1.495 . S
C3217 H3223 0.959 . S
C3217 H3224 0.961 . S
C3217 H3225 0.960 . S
C3218 C3216 1.381 . S
C3218 C3219 1.394 . S
C3218 H3226 0.930 . S
C3219 C3218 1.394 . S
C3219 C3220 1.383 . S
C3219 H3227 0.929 . S
C3220 C3219 1.383 . S
C3220 C3221 1.377 . S
C3221 H3205 0.930 . S
C3221 C3220 1.377 . S
C3221 C3222 1.379 . S
C3222 H3206 0.931 . S
C3222 C3216 1.383 . S
C3222 C3221 1.379 . S
H3223 C3217 0.959 . S
H3224 C3217 0.961 . S
H3225 C3217 0.960 . S
H3226 C3218 0.930 . S
H3227 C3219 0.929 . S
H3228 C3236 0.929 . S
H3229 C3238 0.930 . S
H3230 C3240 0.930 . S
H3231 C3243 0.929 . S
H3232 C3246 0.930 . S
H3233 C3248 0.960 . S
H3234 C3248 0.960 . S
H3235 C3248 0.960 . S
C3236 H3228 0.929 . S
C3236 C3237 1.377 . S
C3236 C3238 1.384 . S
C3237 C3236 1.377 . S
C3237 C3243 1.390 . S
C3238 H3229 0.930 . S
C3238 C3236 1.384 . S
C3238 C3239 1.372 . S
C3239 C3238 1.372 . S
C3239 C3240 1.400 . S
C3239 C3244 1.490 . S
C3240 H3230 0.930 . S
C3240 C3239 1.400 . S
C3240 C3243 1.386 . S
H3241 C3257 0.930 . S
H3242 C3258 0.931 . S
C3243 H3231 0.929 . S
C3243 C3237 1.390 . S
C3243 C3240 1.386 . S
C3244 C3239 1.490 . S
C3244 C3246 1.395 . S
C3244 C3247 1.403 . S
H3245 C3251 0.930 . S
C3246 H3232 0.930 . S
C3246 C3244 1.395 . S
C3246 C3249 1.403 . S
C3247 C3244 1.403 . S
C3247 C3248 1.524 . S
C3247 C3251 1.400 . S
C3248 H3233 0.960 . S
C3248 H3234 0.960 . S
C3248 H3235 0.960 . S
C3248 C3247 1.524 . S
C3249 C3246 1.403 . S
C3249 C3250 1.394 . S
C3249 C3253 1.495 1_545 S
C3250 C3249 1.394 . S
C3250 C3251 1.388 . S
C3250 C3252 1.473 1_545 S
C3251 H3245 0.930 . S
C3251 C3247 1.400 . S
C3251 C3250 1.388 . S
C3252 C3250 1.473 1_565 S
C3252 C3254 1.381 . S
C3252 C3258 1.383 . S
C3253 C3249 1.495 1_565 S
C3253 H3259 0.959 1_565 S
C3253 H3260 0.961 . S
C3253 H3261 0.960 . S
C3254 C3252 1.381 . S
C3254 C3255 1.394 . S
C3254 H3262 0.930 . S
C3255 C3254 1.394 . S
C3255 C3256 1.383 . S
C3255 H3263 0.929 . S
C3256 C3255 1.383 . S
C3256 C3257 1.377 . S
C3257 H3241 0.930 . S
C3257 C3256 1.377 . S
C3257 C3258 1.379 . S
C3258 H3242 0.931 . S
C3258 C3252 1.383 . S
C3258 C3257 1.379 . S
H3259 C3253 0.959 1_545 S
H3260 C3253 0.961 . S
H3261 C3253 0.960 . S
H3262 C3254 0.930 . S
H3263 C3255 0.929 . S
H3264 C3272 0.929 . S
H3265 C3274 0.930 . S
H3266 C3276 0.930 . S
H3267 C3279 0.929 . S
H3268 C3282 0.930 . S
H3269 C3284 0.960 . S
H3270 C3284 0.960 . S
H3271 C3284 0.960 . S
C3272 H3264 0.929 . S
C3272 C3273 1.377 . S
C3272 C3274 1.384 . S
C3273 C3272 1.377 . S
C3273 C3279 1.390 . S
C3274 H3265 0.930 . S
C3274 C3272 1.384 . S
C3274 C3275 1.372 . S
C3275 C3274 1.372 . S
C3275 C3276 1.400 . S
C3275 C3280 1.490 . S
C3276 H3266 0.930 . S
C3276 C3275 1.400 . S
C3276 C3279 1.386 . S
H3277 C3293 0.930 . S
H3278 C3294 0.931 . S
C3279 H3267 0.929 . S
C3279 C3273 1.390 . S
C3279 C3276 1.386 . S
C3280 C3275 1.490 . S
C3280 C3282 1.395 . S
C3280 C3283 1.403 . S
H3281 C3287 0.930 . S
C3282 H3268 0.930 . S
C3282 C3280 1.395 . S
C3282 C3285 1.403 . S
C3283 C3280 1.403 . S
C3283 C3284 1.524 . S
C3283 C3287 1.400 . S
C3284 H3269 0.960 . S
C3284 H3270 0.960 . S
C3284 H3271 0.960 . S
C3284 C3283 1.524 . S
C3285 C3282 1.403 . S
C3285 C3286 1.392 . S
C3285 C3289 1.495 . S
C3286 C3285 1.392 . S
C3286 C3287 1.385 . S
C3286 C3288 1.478 . S
C3287 H3281 0.930 . S
C3287 C3283 1.400 . S
C3287 C3286 1.385 . S
C3288 C3286 1.478 . S
C3288 C3290 1.381 . S
C3288 C3294 1.383 . S
C3289 C3285 1.495 . S
C3289 H3295 0.959 . S
C3289 H3296 0.961 . S
C3289 H3297 0.960 . S
C3290 C3288 1.381 . S
C3290 C3291 1.394 . S
C3290 H3298 0.930 . S
C3291 C3290 1.394 . S
C3291 C3292 1.383 . S
C3291 H3299 0.929 . S
C3292 C3291 1.383 . S
C3292 C3293 1.377 . S
C3293 H3277 0.930 . S
C3293 C3292 1.377 . S
C3293 C3294 1.379 . S
C3294 H3278 0.931 . S
C3294 C3288 1.383 . S
C3294 C3293 1.379 . S
H3295 C3289 0.959 . S
H3296 C3289 0.961 . S
H3297 C3289 0.960 . S
H3298 C3290 0.930 . S
H3299 C3291 0.929 . S
H3300 C3308 0.929 . S
H3301 C3310 0.930 . S
H3302 C3312 0.930 . S
H3303 C3315 0.929 . S
H3304 C3318 0.930 . S
H3305 C3320 0.960 . S
H3306 C3320 0.960 . S
H3307 C3320 0.960 . S
C3308 H3300 0.929 . S
C3308 C3309 1.377 . S
C3308 C3310 1.384 . S
C3309 C3308 1.377 . S
C3309 C3315 1.390 . S
C3310 H3301 0.930 . S
C3310 C3308 1.384 . S
C3310 C3311 1.372 . S
C3311 C3310 1.372 . S
C3311 C3312 1.400 . S
C3311 C3316 1.490 . S
C3312 H3302 0.930 . S
C3312 C3311 1.400 . S
C3312 C3315 1.386 . S
H3313 C3329 0.930 . S
H3314 C3330 0.931 . S
C3315 H3303 0.929 . S
C3315 C3309 1.390 . S
C3315 C3312 1.386 . S
C3316 C3311 1.490 . S
C3316 C3318 1.395 . S
C3316 C3319 1.403 . S
H3317 C3323 0.930 . S
C3318 H3304 0.930 . S
C3318 C3316 1.395 . S
C3318 C3321 1.403 . S
C3319 C3316 1.403 . S
C3319 C3320 1.524 . S
C3319 C3323 1.400 . S
C3320 H3305 0.960 . S
C3320 H3306 0.960 . S
C3320 H3307 0.960 . S
C3320 C3319 1.524 . S
C3321 C3318 1.403 . S
C3321 C3322 1.392 . S
C3321 C3325 1.495 . S
C3322 C3321 1.392 . S
C3322 C3323 1.385 . S
C3322 C3324 1.478 . S
C3323 H3317 0.930 . S
C3323 C3319 1.400 . S
C3323 C3322 1.385 . S
C3324 C3322 1.478 . S
C3324 C3326 1.381 . S
C3324 C3330 1.383 . S
C3325 C3321 1.495 . S
C3325 H3331 0.959 . S
C3325 H3332 0.961 . S
C3325 H3333 0.960 . S
C3326 C3324 1.381 . S
C3326 C3327 1.394 . S
C3326 H3334 0.930 . S
C3327 C3326 1.394 . S
C3327 C3328 1.383 . S
C3327 H3335 0.929 . S
C3328 C3327 1.383 . S
C3328 C3329 1.377 . S
C3329 H3313 0.930 . S
C3329 C3328 1.377 . S
C3329 C3330 1.379 . S
C3330 H3314 0.931 . S
C3330 C3324 1.383 . S
C3330 C3329 1.379 . S
H3331 C3325 0.959 . S
H3332 C3325 0.961 . S
H3333 C3325 0.960 . S
H3334 C3326 0.930 . S
H3335 C3327 0.929 . S
H3336 C3344 0.929 . S
H3337 C3346 0.930 . S
H3338 C3348 0.930 . S
H3339 C3351 0.929 . S
H3340 C3354 0.930 . S
H3341 C3356 0.960 . S
H3342 C3356 0.960 . S
H3343 C3356 0.960 . S
C3344 H3336 0.929 . S
C3344 C3345 1.377 . S
C3344 C3346 1.384 . S
C3345 C3344 1.377 . S
C3345 C3351 1.390 . S
C3346 H3337 0.930 . S
C3346 C3344 1.384 . S
C3346 C3347 1.372 . S
C3347 C3346 1.372 . S
C3347 C3348 1.400 . S
C3347 C3352 1.490 . S
C3348 H3338 0.930 . S
C3348 C3347 1.400 . S
C3348 C3351 1.386 . S
H3349 C3365 0.930 . S
H3350 C3366 0.931 . S
C3351 H3339 0.929 . S
C3351 C3345 1.390 . S
C3351 C3348 1.386 . S
C3352 C3347 1.490 . S
C3352 C3354 1.395 . S
C3352 C3355 1.403 . S
H3353 C3359 0.930 . S
C3354 H3340 0.930 . S
C3354 C3352 1.395 . S
C3354 C3357 1.403 . S
C3355 C3352 1.403 . S
C3355 C3356 1.524 . S
C3355 C3359 1.400 . S
C3356 H3341 0.960 . S
C3356 H3342 0.960 . S
C3356 H3343 0.960 . S
C3356 C3355 1.524 . S
C3357 C3354 1.403 . S
C3357 C3358 1.392 . S
C3357 C3361 1.495 . S
C3358 C3357 1.392 . S
C3358 C3359 1.385 . S
C3358 C3360 1.478 . S
C3359 H3353 0.930 . S
C3359 C3355 1.400 . S
C3359 C3358 1.385 . S
C3360 C3358 1.478 . S
C3360 C3362 1.381 . S
C3360 C3366 1.383 . S
C3361 C3357 1.495 . S
C3361 H3367 0.959 . S
C3361 H3368 0.961 . S
C3361 H3369 0.960 . S
C3362 C3360 1.381 . S
C3362 C3363 1.394 . S
C3362 H3370 0.930 . S
C3363 C3362 1.394 . S
C3363 C3364 1.383 . S
C3363 H3371 0.929 . S
C3364 C3363 1.383 . S
C3364 C3365 1.377 . S
C3365 H3349 0.930 . S
C3365 C3364 1.377 . S
C3365 C3366 1.379 . S
C3366 H3350 0.931 . S
C3366 C3360 1.383 . S
C3366 C3365 1.379 . S
H3367 C3361 0.959 . S
H3368 C3361 0.961 . S
H3369 C3361 0.960 . S
H3370 C3362 0.930 . S
H3371 C3363 0.929 . S
H3372 C3380 0.929 . S
H3373 C3382 0.930 . S
H3374 C3384 0.930 . S
H3375 C3387 0.929 . S
H3376 C3390 0.930 . S
H3377 C3392 0.960 . S
H3378 C3392 0.935 1_455 S
H3379 C3392 0.960 1_455 S
C3380 H3372 0.929 . S
C3380 C3381 1.377 . S
C3380 C3382 1.384 . S
C3381 C3380 1.377 . S
C3381 C3387 1.390 . S
C3382 H3373 0.930 . S
C3382 C3380 1.384 . S
C3382 C3383 1.372 . S
C3383 C3382 1.372 . S
C3383 C3384 1.400 . S
C3383 C3388 1.490 1_455 S
C3384 H3374 0.930 . S
C3384 C3383 1.400 . S
C3384 C3387 1.386 . S
H3385 C3401 0.930 . S
H3386 C3402 0.931 . S
C3387 H3375 0.929 . S
C3387 C3381 1.390 . S
C3387 C3384 1.386 . S
C3388 C3383 1.490 1_655 S
C3388 C3390 1.395 . S
C3388 C3391 1.403 . S
H3389 C3395 0.930 . S
C3390 H3376 0.930 . S
C3390 C3388 1.395 . S
C3390 C3393 1.403 . S
C3391 C3388 1.403 . S
C3391 C3392 1.524 . S
C3391 C3395 1.400 . S
C3392 H3377 0.960 . S
C3392 H3378 0.935 1_655 S
C3392 H3379 0.960 1_655 S
C3392 C3391 1.524 . S
C3393 C3390 1.403 . S
C3393 C3394 1.392 . S
C3393 C3397 1.495 . S
C3394 C3393 1.392 . S
C3394 C3395 1.385 . S
C3394 C3396 1.478 . S
C3395 H3389 0.930 . S
C3395 C3391 1.400 . S
C3395 C3394 1.385 . S
C3396 C3394 1.478 . S
C3396 C3398 1.381 . S
C3396 C3402 1.383 . S
C3397 C3393 1.495 . S
C3397 H3403 0.959 . S
C3397 H3404 0.961 . S
C3397 H3405 0.960 . S
C3398 C3396 1.381 . S
C3398 C3399 1.394 . S
C3398 H3406 0.930 . S
C3399 C3398 1.394 . S
C3399 C3400 1.383 . S
C3399 H3407 0.929 . S
C3400 C3399 1.383 . S
C3400 C3401 1.377 . S
C3401 H3385 0.930 . S
C3401 C3400 1.377 . S
C3401 C3402 1.379 . S
C3402 H3386 0.931 . S
C3402 C3396 1.383 . S
C3402 C3401 1.379 . S
H3403 C3397 0.959 . S
H3404 C3397 0.961 . S
H3405 C3397 0.960 . S
H3406 C3398 0.930 . S
H3407 C3399 0.929 . S
H3408 C3416 0.929 . S
H3409 C3418 0.930 . S
H3410 C3420 0.930 . S
H3411 C3423 0.929 . S
H3412 C3426 0.930 . S
H3413 C3428 0.960 . S
H3414 C3428 0.960 . S
H3415 C3428 0.960 . S
C3416 H3408 0.929 . S
C3416 C3417 1.377 . S
C3416 C3418 1.384 . S
C3417 C3416 1.377 . S
C3417 C3423 1.390 . S
C3418 H3409 0.930 . S
C3418 C3416 1.384 . S
C3418 C3419 1.372 . S
C3419 C3418 1.372 . S
C3419 C3420 1.400 . S
C3419 C3424 1.490 . S
C3420 H3410 0.930 . S
C3420 C3419 1.400 . S
C3420 C3423 1.386 . S
H3421 C3437 0.930 . S
H3422 C3438 0.931 . S
C3423 H3411 0.929 . S
C3423 C3417 1.390 . S
C3423 C3420 1.386 . S
C3424 C3419 1.490 . S
C3424 C3426 1.395 . S
C3424 C3427 1.403 . S
H3425 C3431 0.930 . S
C3426 H3412 0.930 . S
C3426 C3424 1.395 . S
C3426 C3429 1.403 . S
C3427 C3424 1.403 . S
C3427 C3428 1.524 . S
C3427 C3431 1.400 . S
C3428 H3413 0.960 . S
C3428 H3414 0.960 . S
C3428 H3415 0.960 . S
C3428 C3427 1.524 . S
C3429 C3426 1.403 . S
C3429 C3430 1.392 . S
C3429 C3433 1.495 . S
C3430 C3429 1.392 . S
C3430 C3431 1.385 . S
C3430 C3432 1.478 . S
C3431 H3425 0.930 . S
C3431 C3427 1.400 . S
C3431 C3430 1.385 . S
C3432 C3430 1.478 . S
C3432 C3434 1.381 . S
C3432 C3438 1.383 . S
C3433 C3429 1.495 . S
C3433 H3439 0.959 . S
C3433 H3440 0.961 . S
C3433 H3441 0.960 . S
C3434 C3432 1.381 . S
C3434 C3435 1.394 . S
C3434 H3442 0.930 . S
C3435 C3434 1.394 . S
C3435 C3436 1.383 . S
C3435 H3443 0.929 . S
C3436 C3435 1.383 . S
C3436 C3437 1.377 . S
C3437 H3421 0.930 . S
C3437 C3436 1.377 . S
C3437 C3438 1.379 . S
C3438 H3422 0.931 . S
C3438 C3432 1.383 . S
C3438 C3437 1.379 . S
H3439 C3433 0.959 . S
H3440 C3433 0.961 . S
H3441 C3433 0.960 . S
H3442 C3434 0.930 . S
H3443 C3435 0.929 . S
H3444 C3452 0.929 . S
H3445 C3454 0.930 . S
H3446 C3456 0.930 . S
H3447 C3459 0.929 . S
H3448 C3462 0.909 1_455 S
H3449 C3464 0.960 . S
H3450 C3464 0.960 . S
H3451 C3464 0.960 . S
C3452 H3444 0.929 . S
C3452 C3453 1.377 . S
C3452 C3454 1.384 . S
C3453 C3452 1.377 . S
C3453 C3459 1.390 . S
C3454 H3445 0.930 . S
C3454 C3452 1.384 . S
C3454 C3455 1.372 . S
C3455 C3454 1.372 . S
C3455 C3456 1.400 . S
C3455 C3460 1.490 . S
C3456 H3446 0.930 . S
C3456 C3455 1.400 . S
C3456 C3459 1.386 . S
H3457 C3473 0.930 . S
H3458 C3474 0.931 . S
C3459 H3447 0.929 . S
C3459 C3453 1.390 . S
C3459 C3456 1.386 . S
C3460 C3455 1.490 . S
C3460 C3462 1.357 1_455 S
C3460 C3463 1.403 . S
H3461 C3467 0.930 . S
C3462 H3448 0.909 1_655 S
C3462 C3460 1.357 1_655 S
C3462 C3465 1.463 . S
C3463 C3460 1.403 . S
C3463 C3464 1.524 . S
C3463 C3467 1.400 1_455 S
C3464 H3449 0.960 . S
C3464 H3450 0.960 . S
C3464 H3451 0.960 . S
C3464 C3463 1.524 . S
C3465 C3462 1.463 . S
C3465 C3466 1.392 . S
C3465 C3469 1.495 . S
C3466 C3465 1.392 . S
C3466 C3467 1.385 . S
C3466 C3468 1.478 . S
C3467 H3461 0.930 . S
C3467 C3463 1.400 1_655 S
C3467 C3466 1.385 . S
C3468 C3466 1.478 . S
C3468 C3470 1.381 . S
C3468 C3474 1.383 . S
C3469 C3465 1.495 . S
C3469 H3475 0.959 . S
C3469 H3476 0.961 . S
C3469 H3477 0.960 . S
C3470 C3468 1.381 . S
C3470 C3471 1.394 . S
C3470 H3478 0.930 . S
C3471 C3470 1.394 . S
C3471 C3472 1.383 . S
C3471 H3479 0.929 . S
C3472 C3471 1.383 . S
C3472 C3473 1.377 . S
C3473 H3457 0.930 . S
C3473 C3472 1.377 . S
C3473 C3474 1.379 . S
C3474 H3458 0.931 . S
C3474 C3468 1.383 . S
C3474 C3473 1.379 . S
H3475 C3469 0.959 . S
H3476 C3469 0.961 . S
H3477 C3469 0.960 . S
H3478 C3470 0.930 . S
H3479 C3471 0.929 . S
H3480 C3488 0.929 . S
H3481 C3490 0.930 . S
H3482 C3492 0.930 . S
H3483 C3495 0.929 . S
H3484 C3498 0.930 . S
H3485 C3500 0.960 . S
H3486 C3500 0.960 . S
H3487 C3500 0.960 . S
C3488 H3480 0.929 . S
C3488 C3489 1.377 . S
C3488 C3490 1.384 . S
C3489 C3488 1.377 . S
C3489 C3495 1.390 . S
C3490 H3481 0.930 . S
C3490 C3488 1.384 . S
C3490 C3491 1.372 . S
C3491 C3490 1.372 . S
C3491 C3492 1.400 . S
C3491 C3496 1.490 . S
C3492 H3482 0.930 . S
C3492 C3491 1.400 . S
C3492 C3495 1.386 . S
H3493 C3509 0.930 . S
H3494 C3510 0.931 . S
C3495 H3483 0.929 . S
C3495 C3489 1.390 . S
C3495 C3492 1.386 . S
C3496 C3491 1.490 . S
C3496 C3498 1.395 . S
C3496 C3499 1.403 . S
H3497 C3503 0.930 . S
C3498 H3484 0.930 . S
C3498 C3496 1.395 . S
C3498 C3501 1.403 . S
C3499 C3496 1.403 . S
C3499 C3500 1.524 . S
C3499 C3503 1.400 . S
C3500 H3485 0.960 . S
C3500 H3486 0.960 . S
C3500 H3487 0.960 . S
C3500 C3499 1.524 . S
C3501 C3498 1.403 . S
C3501 C3502 1.392 . S
C3501 C3505 1.495 . S
C3502 C3501 1.392 . S
C3502 C3503 1.385 . S
C3502 C3504 1.478 . S
C3503 H3497 0.930 . S
C3503 C3499 1.400 . S
C3503 C3502 1.385 . S
C3504 C3502 1.478 . S
C3504 C3506 1.381 . S
C3504 C3510 1.383 . S
C3505 C3501 1.495 . S
C3505 H3511 0.959 . S
C3505 H3512 0.961 . S
C3505 H3513 0.960 . S
C3506 C3504 1.381 . S
C3506 C3507 1.394 . S
C3506 H3514 0.930 . S
C3507 C3506 1.394 . S
C3507 C3508 1.383 . S
C3507 H3515 0.929 . S
C3508 C3507 1.383 . S
C3508 C3509 1.377 . S
C3509 H3493 0.930 . S
C3509 C3508 1.377 . S
C3509 C3510 1.379 . S
C3510 H3494 0.931 . S
C3510 C3504 1.383 . S
C3510 C3509 1.379 . S
H3511 C3505 0.959 . S
H3512 C3505 0.961 . S
H3513 C3505 0.960 . S
H3514 C3506 0.930 . S
H3515 C3507 0.929 . S
H3516 C3524 0.929 . S
H3517 C3526 0.930 . S
H3518 C3528 0.930 . S
H3519 C3531 0.929 . S
H3520 C3534 0.930 . S
H3521 C3536 0.960 . S
H3522 C3536 0.960 . S
H3523 C3536 0.960 . S
C3524 H3516 0.929 . S
C3524 C3525 1.377 . S
C3524 C3526 1.384 . S
C3525 C3524 1.377 . S
C3525 C3531 1.390 . S
C3526 H3517 0.930 . S
C3526 C3524 1.384 . S
C3526 C3527 1.372 . S
C3527 C3526 1.372 . S
C3527 C3528 1.400 . S
C3527 C3532 1.490 . S
C3528 H3518 0.930 . S
C3528 C3527 1.400 . S
C3528 C3531 1.386 . S
H3529 C3545 0.930 . S
H3530 C3546 0.931 . S
C3531 H3519 0.929 . S
C3531 C3525 1.390 . S
C3531 C3528 1.386 . S
C3532 C3527 1.490 . S
C3532 C3534 1.395 . S
C3532 C3535 1.403 . S
H3533 C3539 0.930 . S
C3534 H3520 0.930 . S
C3534 C3532 1.395 . S
C3534 C3537 1.403 . S
C3535 C3532 1.403 . S
C3535 C3536 1.524 . S
C3535 C3539 1.400 . S
C3536 H3521 0.960 . S
C3536 H3522 0.960 . S
C3536 H3523 0.960 . S
C3536 C3535 1.524 . S
C3537 C3534 1.403 . S
C3537 C3538 1.392 . S
C3537 C3541 1.495 . S
C3538 C3537 1.392 . S
C3538 C3539 1.385 . S
C3538 C3540 1.478 . S
C3539 H3533 0.930 . S
C3539 C3535 1.400 . S
C3539 C3538 1.385 . S
C3540 C3538 1.478 . S
C3540 C3542 1.381 . S
C3540 C3546 1.383 . S
C3541 C3537 1.495 . S
C3541 H3547 0.959 . S
C3541 H3548 0.961 . S
C3541 H3549 0.960 . S
C3542 C3540 1.381 . S
C3542 C3543 1.394 . S
C3542 H3550 0.930 . S
C3543 C3542 1.394 . S
C3543 C3544 1.383 . S
C3543 H3551 0.929 . S
C3544 C3543 1.383 . S
C3544 C3545 1.377 . S
C3545 H3529 0.930 . S
C3545 C3544 1.377 . S
C3545 C3546 1.379 . S
C3546 H3530 0.931 . S
C3546 C3540 1.383 . S
C3546 C3545 1.379 . S
H3547 C3541 0.959 . S
H3548 C3541 0.961 . S
H3549 C3541 0.960 . S
H3550 C3542 0.930 . S
H3551 C3543 0.929 . S
H3552 C3560 0.929 . S
H3553 C3562 0.930 . S
H3554 C3564 0.930 . S
H3555 C3567 0.929 . S
H3556 C3570 0.930 . S
H3557 C3572 0.960 . S
H3558 C3572 0.960 . S
H3559 C3572 0.960 . S
C3560 H3552 0.929 . S
C3560 C3561 1.377 . S
C3560 C3562 1.384 . S
C3561 C3560 1.377 . S
C3561 C3567 1.390 . S
C3562 H3553 0.930 . S
C3562 C3560 1.384 . S
C3562 C3563 1.372 . S
C3563 C3562 1.372 . S
C3563 C3564 1.400 . S
C3563 C3568 1.490 . S
C3564 H3554 0.930 . S
C3564 C3563 1.400 . S
C3564 C3567 1.386 . S
H3565 C3581 0.930 . S
H3566 C3582 0.931 . S
C3567 H3555 0.929 . S
C3567 C3561 1.390 . S
C3567 C3564 1.386 . S
C3568 C3563 1.490 . S
C3568 C3570 1.395 . S
C3568 C3571 1.403 . S
H3569 C3575 0.930 . S
C3570 H3556 0.930 . S
C3570 C3568 1.395 . S
C3570 C3573 1.403 . S
C3571 C3568 1.403 . S
C3571 C3572 1.524 . S
C3571 C3575 1.400 . S
C3572 H3557 0.960 . S
C3572 H3558 0.960 . S
C3572 H3559 0.960 . S
C3572 C3571 1.524 . S
C3573 C3570 1.403 . S
C3573 C3574 1.392 . S
C3573 C3577 1.495 . S
C3574 C3573 1.392 . S
C3574 C3575 1.385 . S
C3574 C3576 1.478 . S
C3575 H3569 0.930 . S
C3575 C3571 1.400 . S
C3575 C3574 1.385 . S
C3576 C3574 1.478 . S
C3576 C3578 1.381 . S
C3576 C3582 1.383 . S
C3577 C3573 1.495 . S
C3577 H3583 0.959 . S
C3577 H3584 0.961 . S
C3577 H3585 0.960 . S
C3578 C3576 1.381 . S
C3578 C3579 1.394 . S
C3578 H3586 0.930 . S
C3579 C3578 1.394 . S
C3579 C3580 1.383 . S
C3579 H3587 0.929 . S
C3580 C3579 1.383 . S
C3580 C3581 1.377 . S
C3581 H3565 0.930 . S
C3581 C3580 1.377 . S
C3581 C3582 1.379 . S
C3582 H3566 0.931 . S
C3582 C3576 1.383 . S
C3582 C3581 1.379 . S
H3583 C3577 0.959 . S
H3584 C3577 0.961 . S
H3585 C3577 0.960 . S
H3586 C3578 0.930 . S
H3587 C3579 0.929 . S
H3588 C3596 0.929 . S
H3589 C3598 0.930 . S
H3590 C3600 0.930 . S
H3591 C3603 0.929 . S
H3592 C3606 0.930 . S
H3593 C3608 0.960 . S
H3594 C3608 0.960 . S
H3595 C3608 0.960 . S
C3596 H3588 0.929 . S
C3596 C3597 1.377 . S
C3596 C3598 1.384 . S
C3597 C3596 1.377 . S
C3597 C3603 1.390 . S
C3598 H3589 0.930 . S
C3598 C3596 1.384 . S
C3598 C3599 1.372 . S
C3599 C3598 1.372 . S
C3599 C3600 1.400 . S
C3599 C3604 1.490 . S
C3600 H3590 0.930 . S
C3600 C3599 1.400 . S
C3600 C3603 1.386 . S
H3601 C3617 0.930 . S
H3602 C3618 0.931 . S
C3603 H3591 0.929 . S
C3603 C3597 1.390 . S
C3603 C3600 1.386 . S
C3604 C3599 1.490 . S
C3604 C3606 1.395 . S
C3604 C3607 1.403 . S
H3605 C3611 0.888 1_554 S
C3606 H3592 0.930 . S
C3606 C3604 1.395 . S
C3606 C3609 1.403 . S
C3607 C3604 1.403 . S
C3607 C3608 1.524 . S
C3607 C3611 1.468 . S
C3608 H3593 0.960 . S
C3608 H3594 0.960 . S
C3608 H3595 0.960 . S
C3608 C3607 1.524 . S
C3609 C3606 1.403 . S
C3609 C3610 1.392 1_556 S
C3609 C3613 1.495 1_556 S
C3610 C3609 1.392 1_554 S
C3610 C3611 1.361 1_554 S
C3610 C3612 1.478 . S
C3611 H3605 0.888 1_556 S
C3611 C3607 1.468 . S
C3611 C3610 1.361 1_556 S
C3612 C3610 1.478 . S
C3612 C3614 1.381 . S
C3612 C3618 1.383 . S
C3613 C3609 1.495 1_554 S
C3613 H3619 0.959 1_554 S
C3613 H3620 0.961 . S
C3613 H3621 0.960 . S
C3614 C3612 1.381 . S
C3614 C3615 1.394 . S
C3614 H3622 0.930 . S
C3615 C3614 1.394 . S
C3615 C3616 1.383 . S
C3615 H3623 0.929 . S
C3616 C3615 1.383 . S
C3616 C3617 1.377 . S
C3617 H3601 0.930 . S
C3617 C3616 1.377 . S
C3617 C3618 1.379 . S
C3618 H3602 0.931 . S
C3618 C3612 1.383 . S
C3618 C3617 1.379 . S
H3619 C3613 0.959 1_556 S
H3620 C3613 0.961 . S
H3621 C3613 0.960 . S
H3622 C3614 0.930 . S
H3623 C3615 0.929 . S
H3624 C3632 0.929 . S
H3625 C3634 0.930 . S
H3626 C3636 0.930 . S
H3627 C3639 0.929 . S
H3628 C3642 0.930 . S
H3629 C3644 0.960 . S
H3630 C3644 0.960 . S
H3631 C3644 0.960 . S
C3632 H3624 0.929 . S
C3632 C3633 1.377 . S
C3632 C3634 1.384 . S
C3633 C3632 1.377 . S
C3633 C3639 1.390 . S
C3634 H3625 0.930 . S
C3634 C3632 1.384 . S
C3634 C3635 1.372 . S
C3635 C3634 1.372 . S
C3635 C3636 1.400 . S
C3635 C3640 1.490 . S
C3636 H3626 0.930 . S
C3636 C3635 1.400 . S
C3636 C3639 1.386 . S
H3637 C3653 0.930 . S
H3638 C3654 0.931 . S
C3639 H3627 0.929 . S
C3639 C3633 1.390 . S
C3639 C3636 1.386 . S
C3640 C3635 1.490 . S
C3640 C3642 1.395 . S
C3640 C3643 1.403 . S
H3641 C3647 0.930 . S
C3642 H3628 0.930 . S
C3642 C3640 1.395 . S
C3642 C3645 1.403 . S
C3643 C3640 1.403 . S
C3643 C3644 1.524 . S
C3643 C3647 1.400 . S
C3644 H3629 0.960 . S
C3644 H3630 0.960 . S
C3644 H3631 0.960 . S
C3644 C3643 1.524 . S
C3645 C3642 1.403 . S
C3645 C3646 1.392 . S
C3645 C3649 1.495 . S
C3646 C3645 1.392 . S
C3646 C3647 1.385 . S
C3646 C3648 1.478 . S
C3647 H3641 0.930 . S
C3647 C3643 1.400 . S
C3647 C3646 1.385 . S
C3648 C3646 1.478 . S
C3648 C3650 1.381 . S
C3648 C3654 1.383 . S
C3649 C3645 1.495 . S
C3649 H3655 0.959 . S
C3649 H3656 0.961 . S
C3649 H3657 0.960 . S
C3650 C3648 1.381 . S
C3650 C3651 1.394 . S
C3650 H3658 0.930 . S
C3651 C3650 1.394 . S
C3651 C3652 1.383 . S
C3651 H3659 0.929 . S
C3652 C3651 1.383 . S
C3652 C3653 1.377 . S
C3653 H3637 0.930 . S
C3653 C3652 1.377 . S
C3653 C3654 1.379 . S
C3654 H3638 0.931 . S
C3654 C3648 1.383 . S
C3654 C3653 1.379 . S
H3655 C3649 0.959 . S
H3656 C3649 0.961 . S
H3657 C3649 0.960 . S
H3658 C3650 0.930 . S
H3659 C3651 0.929 . S
H3660 C3668 0.929 . S
H3661 C3670 0.930 . S
H3662 C3672 0.930 . S
H3663 C3675 0.929 . S
H3664 C3678 0.930 . S
H3665 C3680 0.960 . S
H3666 C3680 0.960 . S
H3667 C3680 0.960 . S
C3668 H3660 0.929 . S
C3668 C3669 1.377 . S
C3668 C3670 1.384 . S
C3669 C3668 1.377 . S
C3669 C3675 1.390 . S
C3670 H3661 0.930 . S
C3670 C3668 1.384 . S
C3670 C3671 1.372 . S
C3671 C3670 1.372 . S
C3671 C3672 1.400 . S
C3671 C3676 1.490 . S
C3672 H3662 0.930 . S
C3672 C3671 1.400 . S
C3672 C3675 1.386 . S
H3673 C3689 0.930 . S
H3674 C3690 0.931 . S
C3675 H3663 0.929 . S
C3675 C3669 1.390 . S
C3675 C3672 1.386 . S
C3676 C3671 1.490 . S
C3676 C3678 1.395 . S
C3676 C3679 1.403 . S
H3677 C3683 0.930 . S
C3678 H3664 0.930 . S
C3678 C3676 1.395 . S
C3678 C3681 1.403 . S
C3679 C3676 1.403 . S
C3679 C3680 1.524 . S
C3679 C3683 1.400 . S
C3680 H3665 0.960 . S
C3680 H3666 0.960 . S
C3680 H3667 0.960 . S
C3680 C3679 1.524 . S
C3681 C3678 1.403 . S
C3681 C3682 1.392 . S
C3681 C3685 1.495 . S
C3682 C3681 1.392 . S
C3682 C3683 1.385 . S
C3682 C3684 1.478 . S
C3683 H3677 0.930 . S
C3683 C3679 1.400 . S
C3683 C3682 1.385 . S
C3684 C3682 1.478 . S
C3684 C3686 1.381 . S
C3684 C3690 1.383 . S
C3685 C3681 1.495 . S
C3685 H3691 0.959 . S
C3685 H3692 0.961 . S
C3685 H3693 0.960 . S
C3686 C3684 1.381 . S
C3686 C3687 1.394 . S
C3686 H3694 0.930 . S
C3687 C3686 1.394 . S
C3687 C3688 1.383 . S
C3687 H3695 0.929 . S
C3688 C3687 1.383 . S
C3688 C3689 1.377 . S
C3689 H3673 0.930 . S
C3689 C3688 1.377 . S
C3689 C3690 1.379 . S
C3690 H3674 0.931 . S
C3690 C3684 1.383 . S
C3690 C3689 1.379 . S
H3691 C3685 0.959 . S
H3692 C3685 0.961 . S
H3693 C3685 0.960 . S
H3694 C3686 0.930 . S
H3695 C3687 0.929 . S
H3696 C3704 0.929 . S
H3697 C3706 0.930 . S
H3698 C3708 0.930 . S
H3699 C3711 0.929 . S
H3700 C3714 0.930 . S
H3701 C3716 0.960 . S
H3702 C3716 0.960 . S
H3703 C3716 0.960 . S
C3704 H3696 0.929 . S
C3704 C3705 1.377 . S
C3704 C3706 1.384 . S
C3705 C3704 1.377 . S
C3705 C3711 1.390 . S
C3706 H3697 0.930 . S
C3706 C3704 1.384 . S
C3706 C3707 1.372 . S
C3707 C3706 1.372 . S
C3707 C3708 1.400 . S
C3707 C3712 1.490 . S
C3708 H3698 0.930 . S
C3708 C3707 1.400 . S
C3708 C3711 1.386 . S
H3709 C3725 0.930 . S
H3710 C3726 0.931 . S
C3711 H3699 0.929 . S
C3711 C3705 1.390 . S
C3711 C3708 1.386 . S
C3712 C3707 1.490 . S
C3712 C3714 1.395 . S
C3712 C3715 1.403 . S
H3713 C3719 0.930 . S
C3714 H3700 0.930 . S
C3714 C3712 1.395 . S
C3714 C3717 1.403 . S
C3715 C3712 1.403 . S
C3715 C3716 1.524 . S
C3715 C3719 1.400 . S
C3716 H3701 0.960 . S
C3716 H3702 0.960 . S
C3716 H3703 0.960 . S
C3716 C3715 1.524 . S
C3717 C3714 1.403 . S
C3717 C3718 1.392 . S
C3717 C3721 1.495 . S
C3718 C3717 1.392 . S
C3718 C3719 1.385 . S
C3718 C3720 1.478 . S
C3719 H3713 0.930 . S
C3719 C3715 1.400 . S
C3719 C3718 1.385 . S
C3720 C3718 1.478 . S
C3720 C3722 1.381 . S
C3720 C3726 1.383 . S
C3721 C3717 1.495 . S
C3721 H3727 0.959 . S
C3721 H3728 0.961 . S
C3721 H3729 0.960 . S
C3722 C3720 1.381 . S
C3722 C3723 1.394 . S
C3722 H3730 0.930 . S
C3723 C3722 1.394 . S
C3723 C3724 1.383 . S
C3723 H3731 0.929 . S
C3724 C3723 1.383 . S
C3724 C3725 1.377 . S
C3725 H3709 0.930 . S
C3725 C3724 1.377 . S
C3725 C3726 1.379 . S
C3726 H3710 0.931 . S
C3726 C3720 1.383 . S
C3726 C3725 1.379 . S
H3727 C3721 0.959 . S
H3728 C3721 0.961 . S
H3729 C3721 0.960 . S
H3730 C3722 0.930 . S
H3731 C3723 0.929 . S
H3732 C3740 0.929 . S
H3733 C3742 0.930 . S
H3734 C3744 0.930 . S
H3735 C3747 0.929 . S
H3736 C3750 0.930 . S
H3737 C3752 0.960 . S
H3738 C3752 0.960 . S
H3739 C3752 0.960 . S
C3740 H3732 0.929 . S
C3740 C3741 1.377 . S
C3740 C3742 1.384 . S
C3741 C3740 1.377 . S
C3741 C3747 1.390 . S
C3742 H3733 0.930 . S
C3742 C3740 1.384 . S
C3742 C3743 1.372 . S
C3743 C3742 1.372 . S
C3743 C3744 1.400 . S
C3743 C3748 1.490 . S
C3744 H3734 0.930 . S
C3744 C3743 1.400 . S
C3744 C3747 1.386 . S
H3745 C3761 0.930 . S
H3746 C3762 0.931 . S
C3747 H3735 0.929 . S
C3747 C3741 1.390 . S
C3747 C3744 1.386 . S
C3748 C3743 1.490 . S
C3748 C3750 1.395 . S
C3748 C3751 1.403 . S
H3749 C3755 0.930 . S
C3750 H3736 0.930 . S
C3750 C3748 1.395 . S
C3750 C3753 1.403 . S
C3751 C3748 1.403 . S
C3751 C3752 1.524 . S
C3751 C3755 1.400 . S
C3752 H3737 0.960 . S
C3752 H3738 0.960 . S
C3752 H3739 0.960 . S
C3752 C3751 1.524 . S
C3753 C3750 1.403 . S
C3753 C3754 1.392 . S
C3753 C3757 1.495 1_554 S
C3754 C3753 1.392 . S
C3754 C3755 1.385 . S
C3754 C3756 1.478 1_554 S
C3755 H3749 0.930 . S
C3755 C3751 1.400 . S
C3755 C3754 1.385 . S
C3756 C3754 1.478 1_556 S
C3756 C3758 1.381 . S
C3756 C3762 1.383 . S
C3757 C3753 1.495 1_556 S
C3757 H3763 0.959 1_556 S
C3757 H3764 0.961 . S
C3757 H3765 0.960 . S
C3758 C3756 1.381 . S
C3758 C3759 1.394 . S
C3758 H3766 0.930 . S
C3759 C3758 1.394 . S
C3759 C3760 1.383 . S
C3759 H3767 0.929 . S
C3760 C3759 1.383 . S
C3760 C3761 1.377 . S
C3761 H3745 0.930 . S
C3761 C3760 1.377 . S
C3761 C3762 1.379 . S
C3762 H3746 0.931 . S
C3762 C3756 1.383 . S
C3762 C3761 1.379 . S
H3763 C3757 0.959 1_554 S
H3764 C3757 0.961 . S
H3765 C3757 0.960 . S
H3766 C3758 0.930 . S
H3767 C3759 0.929 . S
H3768 C3776 0.929 . S
H3769 C3778 0.930 . S
H3770 C3780 0.930 . S
H3771 C3783 0.929 . S
H3772 C3786 0.930 . S
H3773 C3788 0.960 . S
H3774 C3788 0.960 . S
H3775 C3788 0.960 . S
C3776 H3768 0.929 . S
C3776 C3777 1.377 . S
C3776 C3778 1.384 . S
C3777 C3776 1.377 . S
C3777 C3783 1.390 . S
C3778 H3769 0.930 . S
C3778 C3776 1.384 . S
C3778 C3779 1.372 . S
C3779 C3778 1.372 . S
C3779 C3780 1.400 . S
C3779 C3784 1.490 . S
C3780 H3770 0.930 . S
C3780 C3779 1.400 . S
C3780 C3783 1.386 . S
H3781 C3797 0.930 . S
H3782 C3798 0.931 . S
C3783 H3771 0.929 . S
C3783 C3777 1.390 . S
C3783 C3780 1.386 . S
C3784 C3779 1.490 . S
C3784 C3786 1.395 . S
C3784 C3787 1.403 . S
H3785 C3791 0.930 . S
C3786 H3772 0.930 . S
C3786 C3784 1.395 . S
C3786 C3789 1.403 . S
C3787 C3784 1.403 . S
C3787 C3788 1.524 . S
C3787 C3791 1.400 . S
C3788 H3773 0.960 . S
C3788 H3774 0.960 . S
C3788 H3775 0.960 . S
C3788 C3787 1.524 . S
C3789 C3786 1.403 . S
C3789 C3790 1.392 . S
C3789 C3793 1.495 . S
C3790 C3789 1.392 . S
C3790 C3791 1.385 . S
C3790 C3792 1.478 . S
C3791 H3785 0.930 . S
C3791 C3787 1.400 . S
C3791 C3790 1.385 . S
C3792 C3790 1.478 . S
C3792 C3794 1.381 . S
C3792 C3798 1.383 . S
C3793 C3789 1.495 . S
C3793 H3799 0.959 . S
C3793 H3800 0.961 . S
C3793 H3801 0.960 . S
C3794 C3792 1.381 . S
C3794 C3795 1.394 . S
C3794 H3802 0.930 . S
C3795 C3794 1.394 . S
C3795 C3796 1.383 . S
C3795 H3803 0.929 . S
C3796 C3795 1.383 . S
C3796 C3797 1.377 . S
C3797 H3781 0.930 . S
C3797 C3796 1.377 . S
C3797 C3798 1.379 . S
C3798 H3782 0.931 . S
C3798 C3792 1.383 . S
C3798 C3797 1.379 . S
H3799 C3793 0.959 . S
H3800 C3793 0.961 . S
H3801 C3793 0.960 . S
H3802 C3794 0.930 . S
H3803 C3795 0.929 . S
H3804 C3812 0.929 . S
H3805 C3814 0.930 . S
H3806 C3816 0.930 . S
H3807 C3819 0.929 . S
H3808 C3822 0.930 . S
H3809 C3824 0.960 . S
H3810 C3824 0.960 . S
H3811 C3824 0.960 . S
C3812 H3804 0.929 . S
C3812 C3813 1.377 . S
C3812 C3814 1.384 . S
C3813 C3812 1.377 . S
C3813 C3819 1.390 . S
C3814 H3805 0.930 . S
C3814 C3812 1.384 . S
C3814 C3815 1.372 . S
C3815 C3814 1.372 . S
C3815 C3816 1.400 . S
C3815 C3820 1.490 . S
C3816 H3806 0.930 . S
C3816 C3815 1.400 . S
C3816 C3819 1.386 . S
H3817 C3833 0.930 . S
H3818 C3834 0.931 . S
C3819 H3807 0.929 . S
C3819 C3813 1.390 . S
C3819 C3816 1.386 . S
C3820 C3815 1.490 . S
C3820 C3822 1.395 . S
C3820 C3823 1.403 . S
H3821 C3827 0.930 . S
C3822 H3808 0.930 . S
C3822 C3820 1.395 . S
C3822 C3825 1.403 . S
C3823 C3820 1.403 . S
C3823 C3824 1.524 . S
C3823 C3827 1.400 . S
C3824 H3809 0.960 . S
C3824 H3810 0.960 . S
C3824 H3811 0.960 . S
C3824 C3823 1.524 . S
C3825 C3822 1.403 . S
C3825 C3826 1.392 . S
C3825 C3829 1.495 . S
C3826 C3825 1.392 . S
C3826 C3827 1.385 . S
C3826 C3828 1.478 . S
C3827 H3821 0.930 . S
C3827 C3823 1.400 . S
C3827 C3826 1.385 . S
C3828 C3826 1.478 . S
C3828 C3830 1.381 . S
C3828 C3834 1.383 . S
C3829 C3825 1.495 . S
C3829 H3835 0.959 . S
C3829 H3836 0.961 . S
C3829 H3837 0.960 . S
C3830 C3828 1.381 . S
C3830 C3831 1.394 . S
C3830 H3838 0.930 . S
C3831 C3830 1.394 . S
C3831 C3832 1.383 . S
C3831 H3839 0.929 . S
C3832 C3831 1.383 . S
C3832 C3833 1.377 . S
C3833 H3817 0.930 . S
C3833 C3832 1.377 . S
C3833 C3834 1.379 . S
C3834 H3818 0.931 . S
C3834 C3828 1.383 . S
C3834 C3833 1.379 . S
H3835 C3829 0.959 . S
H3836 C3829 0.961 . S
H3837 C3829 0.960 . S
H3838 C3830 0.930 . S
H3839 C3831 0.929 . S
H3840 C3848 0.929 . S
H3841 C3850 0.930 . S
H3842 C3852 0.930 . S
H3843 C3855 0.929 . S
H3844 C3858 0.930 . S
H3845 C3860 0.960 . S
H3846 C3860 0.960 . S
H3847 C3860 0.960 . S
C3848 H3840 0.929 . S
C3848 C3849 1.377 . S
C3848 C3850 1.384 . S
C3849 C3848 1.377 . S
C3849 C3855 1.390 . S
C3850 H3841 0.930 . S
C3850 C3848 1.384 . S
C3850 C3851 1.372 . S
C3851 C3850 1.372 . S
C3851 C3852 1.400 . S
C3851 C3856 1.490 . S
C3852 H3842 0.930 . S
C3852 C3851 1.400 . S
C3852 C3855 1.386 . S
H3853 C3869 0.930 . S
H3854 C3870 0.931 . S
C3855 H3843 0.929 . S
C3855 C3849 1.390 . S
C3855 C3852 1.386 . S
C3856 C3851 1.490 . S
C3856 C3858 1.395 . S
C3856 C3859 1.403 . S
H3857 C3863 0.930 . S
C3858 H3844 0.930 . S
C3858 C3856 1.395 . S
C3858 C3861 1.403 . S
C3859 C3856 1.403 . S
C3859 C3860 1.524 . S
C3859 C3863 1.400 . S
C3860 H3845 0.960 . S
C3860 H3846 0.960 . S
C3860 H3847 0.960 . S
C3860 C3859 1.524 . S
C3861 C3858 1.403 . S
C3861 C3862 1.392 . S
C3861 C3865 1.495 . S
C3862 C3861 1.392 . S
C3862 C3863 1.385 . S
C3862 C3864 1.478 . S
C3863 H3857 0.930 . S
C3863 C3859 1.400 . S
C3863 C3862 1.385 . S
C3864 C3862 1.478 . S
C3864 C3866 1.381 . S
C3864 C3870 1.383 . S
C3865 C3861 1.495 . S
C3865 H3871 0.959 . S
C3865 H3872 0.961 . S
C3865 H3873 0.960 . S
C3866 C3864 1.381 . S
C3866 C3867 1.394 . S
C3866 H3874 0.930 . S
C3867 C3866 1.394 . S
C3867 C3868 1.383 . S
C3867 H3875 0.929 . S
C3868 C3867 1.383 . S
C3868 C3869 1.377 . S
C3869 H3853 0.930 . S
C3869 C3868 1.377 . S
C3869 C3870 1.379 . S
C3870 H3854 0.931 . S
C3870 C3864 1.383 . S
C3870 C3869 1.379 . S
H3871 C3865 0.959 . S
H3872 C3865 0.961 . S
H3873 C3865 0.960 . S
H3874 C3866 0.930 . S
H3875 C3867 0.929 . S
H3876 C3884 0.929 . S
H3877 C3886 0.930 . S
H3878 C3888 0.930 . S
H3879 C3891 0.929 . S
H3880 C3894 0.930 . S
H3881 C3896 0.960 . S
H3882 C3896 0.960 . S
H3883 C3896 0.960 . S
C3884 H3876 0.929 . S
C3884 C3885 1.377 . S
C3884 C3886 1.384 . S
C3885 C3884 1.377 . S
C3885 C3891 1.390 . S
C3886 H3877 0.930 . S
C3886 C3884 1.384 . S
C3886 C3887 1.372 . S
C3887 C3886 1.372 . S
C3887 C3888 1.400 . S
C3887 C3892 1.490 . S
C3888 H3878 0.930 . S
C3888 C3887 1.400 . S
C3888 C3891 1.386 . S
H3889 C3905 0.930 . S
H3890 C3906 0.931 . S
C3891 H3879 0.929 . S
C3891 C3885 1.390 . S
C3891 C3888 1.386 . S
C3892 C3887 1.490 . S
C3892 C3894 1.395 . S
C3892 C3895 1.403 . S
H3893 C3899 0.930 . S
C3894 H3880 0.930 . S
C3894 C3892 1.395 . S
C3894 C3897 1.403 . S
C3895 C3892 1.403 . S
C3895 C3896 1.524 . S
C3895 C3899 1.400 . S
C3896 H3881 0.960 . S
C3896 H3882 0.960 . S
C3896 H3883 0.960 . S
C3896 C3895 1.524 . S
C3897 C3894 1.403 . S
C3897 C3898 1.392 . S
C3897 C3901 1.495 . S
C3898 C3897 1.392 . S
C3898 C3899 1.385 . S
C3898 C3900 1.478 . S
C3899 H3893 0.930 . S
C3899 C3895 1.400 . S
C3899 C3898 1.385 . S
C3900 C3898 1.478 . S
C3900 C3902 1.381 . S
C3900 C3906 1.383 . S
C3901 C3897 1.495 . S
C3901 H3907 0.959 . S
C3901 H3908 0.961 . S
C3901 H3909 0.960 . S
C3902 C3900 1.381 . S
C3902 C3903 1.394 . S
C3902 H3910 0.930 . S
C3903 C3902 1.394 . S
C3903 C3904 1.383 . S
C3903 H3911 0.929 . S
C3904 C3903 1.383 . S
C3904 C3905 1.377 . S
C3905 H3889 0.930 . S
C3905 C3904 1.377 . S
C3905 C3906 1.379 . S
C3906 H3890 0.931 . S
C3906 C3900 1.383 . S
C3906 C3905 1.379 . S
H3907 C3901 0.959 . S
H3908 C3901 0.961 . S
H3909 C3901 0.960 . S
H3910 C3902 0.930 . S
H3911 C3903 0.929 . S
H3912 C3920 0.929 . S
H3913 C3922 0.930 . S
H3914 C3924 0.930 . S
H3915 C3927 0.929 . S
H3916 C3930 0.930 . S
H3917 C3932 0.960 . S
H3918 C3932 0.960 . S
H3919 C3932 0.960 . S
C3920 H3912 0.929 . S
C3920 C3921 1.377 . S
C3920 C3922 1.384 . S
C3921 C3920 1.377 . S
C3921 C3927 1.390 . S
C3922 H3913 0.930 . S
C3922 C3920 1.384 . S
C3922 C3923 1.372 . S
C3923 C3922 1.372 . S
C3923 C3924 1.400 . S
C3923 C3928 1.490 . S
C3924 H3914 0.930 . S
C3924 C3923 1.400 . S
C3924 C3927 1.386 . S
H3925 C3941 0.930 . S
H3926 C3942 0.931 . S
C3927 H3915 0.929 . S
C3927 C3921 1.390 . S
C3927 C3924 1.386 . S
C3928 C3923 1.490 . S
C3928 C3930 1.395 . S
C3928 C3931 1.403 . S
H3929 C3935 0.930 . S
C3930 H3916 0.930 . S
C3930 C3928 1.395 . S
C3930 C3933 1.442 . S
C3931 C3928 1.403 . S
C3931 C3932 1.524 . S
C3931 C3935 1.400 . S
C3932 H3917 0.960 . S
C3932 H3918 0.960 . S
C3932 H3919 0.960 . S
C3932 C3931 1.524 . S
C3933 C3930 1.442 . S
C3933 C3934 1.382 1_565 S
C3933 C3937 1.469 1_565 S
C3934 C3933 1.382 1_545 S
C3934 C3935 1.385 1_545 S
C3934 C3936 1.478 . S
C3935 H3929 0.930 . S
C3935 C3931 1.400 . S
C3935 C3934 1.385 1_565 S
C3936 C3934 1.478 . S
C3936 C3938 1.381 . S
C3936 C3942 1.383 . S
C3937 C3933 1.469 1_545 S
C3937 H3943 0.959 . S
C3937 H3944 0.961 . S
C3937 H3945 0.960 . S
C3938 C3936 1.381 . S
C3938 C3939 1.394 . S
C3938 H3946 0.930 . S
C3939 C3938 1.394 . S
C3939 C3940 1.383 . S
C3939 H3947 0.929 . S
C3940 C3939 1.383 . S
C3940 C3941 1.377 . S
C3941 H3925 0.930 . S
C3941 C3940 1.377 . S
C3941 C3942 1.379 . S
C3942 H3926 0.931 . S
C3942 C3936 1.383 . S
C3942 C3941 1.379 . S
H3943 C3937 0.959 . S
H3944 C3937 0.961 . S
H3945 C3937 0.960 . S
H3946 C3938 0.930 . S
H3947 C3939 0.929 . S
H3948 C3956 0.929 . S
H3949 C3958 0.930 . S
H3950 C3960 0.930 . S
H3951 C3963 0.929 . S
H3952 C3966 0.930 . S
H3953 C3968 0.960 . S
H3954 C3968 0.960 . S
H3955 C3968 0.960 . S
C3956 H3948 0.929 . S
C3956 C3957 1.377 . S
C3956 C3958 1.384 . S
C3957 C3956 1.377 . S
C3957 C3963 1.390 . S
C3958 H3949 0.930 . S
C3958 C3956 1.384 . S
C3958 C3959 1.372 . S
C3959 C3958 1.372 . S
C3959 C3960 1.400 . S
C3959 C3964 1.490 . S
C3960 H3950 0.930 . S
C3960 C3959 1.400 . S
C3960 C3963 1.386 . S
H3961 C3977 0.930 . S
H3962 C3978 0.931 . S
C3963 H3951 0.929 . S
C3963 C3957 1.390 . S
C3963 C3960 1.386 . S
C3964 C3959 1.490 . S
C3964 C3966 1.395 . S
C3964 C3967 1.403 . S
H3965 C3971 0.930 . S
C3966 H3952 0.930 . S
C3966 C3964 1.395 . S
C3966 C3969 1.403 . S
C3967 C3964 1.403 . S
C3967 C3968 1.524 . S
C3967 C3971 1.400 . S
C3968 H3953 0.960 . S
C3968 H3954 0.960 . S
C3968 H3955 0.960 . S
C3968 C3967 1.524 . S
C3969 C3966 1.403 . S
C3969 C3970 1.392 . S
C3969 C3973 1.495 . S
C3970 C3969 1.392 . S
C3970 C3971 1.385 . S
C3970 C3972 1.478 . S
C3971 H3965 0.930 . S
C3971 C3967 1.400 . S
C3971 C3970 1.385 . S
C3972 C3970 1.478 . S
C3972 C3974 1.381 . S
C3972 C3978 1.383 . S
C3973 C3969 1.495 . S
C3973 H3979 0.959 . S
C3973 H3980 0.961 . S
C3973 H3981 0.960 . S
C3974 C3972 1.381 . S
C3974 C3975 1.394 . S
C3974 H3982 0.930 . S
C3975 C3974 1.394 . S
C3975 C3976 1.383 . S
C3975 H3983 0.929 . S
C3976 C3975 1.383 . S
C3976 C3977 1.377 . S
C3977 H3961 0.930 . S
C3977 C3976 1.377 . S
C3977 C3978 1.379 . S
C3978 H3962 0.931 . S
C3978 C3972 1.383 . S
C3978 C3977 1.379 . S
H3979 C3973 0.959 . S
H3980 C3973 0.961 . S
H3981 C3973 0.960 . S
H3982 C3974 0.930 . S
H3983 C3975 0.929 . S
H3984 C3992 0.929 . S
H3985 C3994 0.930 . S
H3986 C3996 0.930 . S
H3987 C3999 0.929 . S
H3988 C4002 0.930 . S
H3989 C4004 0.960 . S
H3990 C4004 0.960 . S
H3991 C4004 0.960 . S
C3992 H3984 0.929 . S
C3992 C3993 1.377 . S
C3992 C3994 1.384 . S
C3993 C3992 1.377 . S
C3993 C3999 1.390 . S
C3994 H3985 0.930 . S
C3994 C3992 1.384 . S
C3994 C3995 1.372 . S
C3995 C3994 1.372 . S
C3995 C3996 1.400 . S
C3995 C4000 1.490 . S
C3996 H3986 0.930 . S
C3996 C3995 1.400 . S
C3996 C3999 1.386 . S
H3997 C4013 0.930 . S
H3998 C4014 0.931 . S
C3999 H3987 0.929 . S
C3999 C3993 1.390 . S
C3999 C3996 1.386 . S
C4000 C3995 1.490 . S
C4000 C4002 1.395 . S
C4000 C4003 1.403 . S
H4001 C4007 0.930 . S
C4002 H3988 0.930 . S
C4002 C4000 1.395 . S
C4002 C4005 1.403 . S
C4003 C4000 1.403 . S
C4003 C4004 1.524 . S
C4003 C4007 1.400 . S
C4004 H3989 0.960 . S
C4004 H3990 0.960 . S
C4004 H3991 0.960 . S
C4004 C4003 1.524 . S
C4005 C4002 1.403 . S
C4005 C4006 1.392 . S
C4005 C4009 1.495 . S
C4006 C4005 1.392 . S
C4006 C4007 1.385 . S
C4006 C4008 1.478 . S
C4007 H4001 0.930 . S
C4007 C4003 1.400 . S
C4007 C4006 1.385 . S
C4008 C4006 1.478 . S
C4008 C4010 1.381 . S
C4008 C4014 1.383 . S
C4009 C4005 1.495 . S
C4009 H4015 0.959 . S
C4009 H4016 0.961 . S
C4009 H4017 0.960 . S
C4010 C4008 1.381 . S
C4010 C4011 1.394 . S
C4010 H4018 0.930 . S
C4011 C4010 1.394 . S
C4011 C4012 1.383 . S
C4011 H4019 0.929 . S
C4012 C4011 1.383 . S
C4012 C4013 1.377 . S
C4013 H3997 0.930 . S
C4013 C4012 1.377 . S
C4013 C4014 1.379 . S
C4014 H3998 0.931 . S
C4014 C4008 1.383 . S
C4014 C4013 1.379 . S
H4015 C4009 0.959 . S
H4016 C4009 0.961 . S
H4017 C4009 0.960 . S
H4018 C4010 0.930 . S
H4019 C4011 0.929 . S
H4020 C4028 0.929 . S
H4021 C4030 0.930 . S
H4022 C4032 0.930 . S
H4023 C4035 0.929 . S
H4024 C4038 0.930 . S
H4025 C4040 0.960 . S
H4026 C4040 0.960 . S
H4027 C4040 0.960 . S
C4028 H4020 0.929 . S
C4028 C4029 1.377 . S
C4028 C4030 1.384 . S
C4029 C4028 1.377 . S
C4029 C4035 1.390 . S
C4030 H4021 0.930 . S
C4030 C4028 1.384 . S
C4030 C4031 1.372 . S
C4031 C4030 1.372 . S
C4031 C4032 1.400 . S
C4031 C4036 1.490 . S
C4032 H4022 0.930 . S
C4032 C4031 1.400 . S
C4032 C4035 1.386 . S
H4033 C4049 0.930 . S
H4034 C4050 0.931 . S
C4035 H4023 0.929 . S
C4035 C4029 1.390 . S
C4035 C4032 1.386 . S
C4036 C4031 1.490 . S
C4036 C4038 1.395 . S
C4036 C4039 1.403 . S
H4037 C4043 0.930 . S
C4038 H4024 0.930 . S
C4038 C4036 1.395 . S
C4038 C4041 1.403 . S
C4039 C4036 1.403 . S
C4039 C4040 1.524 . S
C4039 C4043 1.400 . S
C4040 H4025 0.960 . S
C4040 H4026 0.960 . S
C4040 H4027 0.960 . S
C4040 C4039 1.524 . S
C4041 C4038 1.403 . S
C4041 C4042 1.392 . S
C4041 C4045 1.495 . S
C4042 C4041 1.392 . S
C4042 C4043 1.385 . S
C4042 C4044 1.478 . S
C4043 H4037 0.930 . S
C4043 C4039 1.400 . S
C4043 C4042 1.385 . S
C4044 C4042 1.478 . S
C4044 C4046 1.381 . S
C4044 C4050 1.383 . S
C4045 C4041 1.495 . S
C4045 H4051 0.959 . S
C4045 H4052 0.961 . S
C4045 H4053 0.960 . S
C4046 C4044 1.381 . S
C4046 C4047 1.394 . S
C4046 H4054 0.930 . S
C4047 C4046 1.394 . S
C4047 C4048 1.383 . S
C4047 H4055 0.929 . S
C4048 C4047 1.383 . S
C4048 C4049 1.377 . S
C4049 H4033 0.930 . S
C4049 C4048 1.377 . S
C4049 C4050 1.379 . S
C4050 H4034 0.931 . S
C4050 C4044 1.383 . S
C4050 C4049 1.379 . S
H4051 C4045 0.959 . S
H4052 C4045 0.961 . S
H4053 C4045 0.960 . S
H4054 C4046 0.930 . S
H4055 C4047 0.929 . S
H4056 C4064 0.929 . S
H4057 C4066 0.930 . S
H4058 C4068 0.930 . S
H4059 C4071 0.929 . S
H4060 C4074 0.930 . S
H4061 C4076 0.960 . S
H4062 C4076 0.960 1_565 S
H4063 C4076 0.960 1_565 S
C4064 H4056 0.929 . S
C4064 C4065 1.377 . S
C4064 C4066 1.384 . S
C4065 C4064 1.377 . S
C4065 C4071 1.390 . S
C4066 H4057 0.930 . S
C4066 C4064 1.384 . S
C4066 C4067 1.372 . S
C4067 C4066 1.372 . S
C4067 C4068 1.400 . S
C4067 C4072 1.490 1_565 S
C4068 H4058 0.930 . S
C4068 C4067 1.400 . S
C4068 C4071 1.386 . S
H4069 C4085 0.930 . S
H4070 C4086 0.931 . S
C4071 H4059 0.929 . S
C4071 C4065 1.390 . S
C4071 C4068 1.386 . S
C4072 C4067 1.490 1_545 S
C4072 C4074 1.395 . S
C4072 C4075 1.403 . S
H4073 C4079 0.930 . S
C4074 H4060 0.930 . S
C4074 C4072 1.395 . S
C4074 C4077 1.403 . S
C4075 C4072 1.403 . S
C4075 C4076 1.524 . S
C4075 C4079 1.400 . S
C4076 H4061 0.960 . S
C4076 H4062 0.960 1_545 S
C4076 H4063 0.960 1_545 S
C4076 C4075 1.524 . S
C4077 C4074 1.403 . S
C4077 C4078 1.392 . S
C4077 C4081 1.495 . S
C4078 C4077 1.392 . S
C4078 C4079 1.385 . S
C4078 C4080 1.478 . S
C4079 H4073 0.930 . S
C4079 C4075 1.400 . S
C4079 C4078 1.385 . S
C4080 C4078 1.478 . S
C4080 C4082 1.381 . S
C4080 C4086 1.383 . S
C4081 C4077 1.495 . S
C4081 H4087 0.959 . S
C4081 H4088 0.961 . S
C4081 H4089 0.960 . S
C4082 C4080 1.381 . S
C4082 C4083 1.394 . S
C4082 H4090 0.930 . S
C4083 C4082 1.394 . S
C4083 C4084 1.383 . S
C4083 H4091 0.929 . S
C4084 C4083 1.383 . S
C4084 C4085 1.377 . S
C4085 H4069 0.930 . S
C4085 C4084 1.377 . S
C4085 C4086 1.379 . S
C4086 H4070 0.931 . S
C4086 C4080 1.383 . S
C4086 C4085 1.379 . S
H4087 C4081 0.959 . S
H4088 C4081 0.961 . S
H4089 C4081 0.960 . S
H4090 C4082 0.930 . S
H4091 C4083 0.929 . S
H4092 C4100 0.929 . S
H4093 C4102 0.930 . S
H4094 C4104 0.930 . S
H4095 C4107 0.929 . S
H4096 C4110 0.930 . S
H4097 C4112 0.960 . S
H4098 C4112 0.960 . S
H4099 C4112 0.960 . S
C4100 H4092 0.929 . S
C4100 C4101 1.377 . S
C4100 C4102 1.384 . S
C4101 C4100 1.377 . S
C4101 C4107 1.390 . S
C4102 H4093 0.930 . S
C4102 C4100 1.384 . S
C4102 C4103 1.372 . S
C4103 C4102 1.372 . S
C4103 C4104 1.400 . S
C4103 C4108 1.490 . S
C4104 H4094 0.930 . S
C4104 C4103 1.400 . S
C4104 C4107 1.386 . S
H4105 C4121 0.930 . S
H4106 C4122 0.931 . S
C4107 H4095 0.929 . S
C4107 C4101 1.390 . S
C4107 C4104 1.386 . S
C4108 C4103 1.490 . S
C4108 C4110 1.395 . S
C4108 C4111 1.403 . S
H4109 C4115 0.914 1_545 S
C4110 H4096 0.930 . S
C4110 C4108 1.395 . S
C4110 C4113 1.403 . S
C4111 C4108 1.403 . S
C4111 C4112 1.524 . S
C4111 C4115 1.400 . S
C4112 H4097 0.960 . S
C4112 H4098 0.960 . S
C4112 H4099 0.960 . S
C4112 C4111 1.524 . S
C4113 C4110 1.403 . S
C4113 C4114 1.392 . S
C4113 C4117 1.495 . S
C4114 C4113 1.392 . S
C4114 C4115 1.385 . S
C4114 C4116 1.478 1_565 S
C4115 H4109 0.914 1_565 S
C4115 C4111 1.400 . S
C4115 C4114 1.385 . S
C4116 C4114 1.478 1_545 S
C4116 C4118 1.381 . S
C4116 C4122 1.383 . S
C4117 C4113 1.495 . S
C4117 H4123 0.959 . S
C4117 H4124 0.961 . S
C4117 H4125 0.960 . S
C4118 C4116 1.381 . S
C4118 C4119 1.394 . S
C4118 H4126 0.930 . S
C4119 C4118 1.394 . S
C4119 C4120 1.383 . S
C4119 H4127 0.929 . S
C4120 C4119 1.383 . S
C4120 C4121 1.377 . S
C4121 H4105 0.930 . S
C4121 C4120 1.377 . S
C4121 C4122 1.379 . S
C4122 H4106 0.931 . S
C4122 C4116 1.383 . S
C4122 C4121 1.379 . S
H4123 C4117 0.959 . S
H4124 C4117 0.961 . S
H4125 C4117 0.960 . S
H4126 C4118 0.930 . S
H4127 C4119 0.929 . S
C681 C594 1.190 . S
C700 C7 1.146 . S
C717 C23 1.504 . S
C736 C219 1.481 . S
C753 C34 1.175 . S
C772 C567 1.232 . S
C789 C50 1.483 . S
C808 C246 1.453 . S
C825 C624 1.552 . S
C844 C64 1.589 . S
C861 C77 1.392 . S
C880 C301 1.475 . S
C897 C93 1.647 . S
C916 C653 1.607 . S
C933 C105 1.408 . S
C952 C272 1.463 . S
C969 C49 1.168 . S
C988 C664 1.143 . S
C1005 C8 1.352 . S
C1024 C357 1.371 . S
C1041 C373 1.340 . S
C1060 C20 1.364 . S
C1077 C37 1.472 . S
C1096 C343 1.474 . S
C1113 C78 1.686 . S
C1132 C344 1.649 . S
C1149 C90 1.547 . S
C1168 C667 1.544 . S
C1185 C106 1.581 . S
C1204 C358 1.584 . S
C1221 C63 1.368 . S
C1240 C370 1.352 . S
C1257 C552 1.085 . S
C1276 C119 1.076 . S
C1293 C135 1.691 . S
C1312 C275 1.636 . S
C1329 C120 1.395 . S
C1348 C623 1.402 . S
C1365 C302 1.740 . S
C1384 C149 1.759 . S
C1401 C314 1.322 . S
C1420 C161 1.270 . S
C1437 C581 1.159 . S
C1456 C176 1.143 . S
C1473 C597 1.426 . S
C1492 C188 1.385 . S
C1509 C568 1.371 . S
C1528 C202 1.384 . S
C1545 C468 1.163 . S
C1564 C217 1.092 . S
C1581 C233 1.511 . S
C1600 C9 1.505 . S
C1617 C244 1.274 . S
C1636 C441 1.347 . S
C1653 C36 1.404 . S
C1672 C260 1.444 . S
C1689 C274 1.593 . S
C1708 C499 1.550 . S
C1725 C91 1.485 . S
C1744 C286 1.443 . S
C1761 C303 1.641 . S
C1780 C527 1.590 . S
C1797 C62 1.451 . S
C1816 C315 1.425 . S
C1833 C538 1.220 . S
C1852 C259 1.194 . S
C1869 C218 1.369 . S
C1888 C147 1.360 . S
C1905 C163 1.303 . S
C1924 C230 1.314 . S
C1941 C133 1.457 . S
C1960 C247 1.433 . S
C1977 C134 1.646 . S
C1996 C289 1.677 . S
C2013 C300 1.535 . S
C2032 C541 1.511 . S
C2049 C148 1.632 . S
C2068 C316 1.653 . S
C2085 C273 1.349 . S
C2104 C160 1.329 . S
C2121 C329 1.145 . S
C2140 C426 1.168 . S
C2157 C345 1.655 . S
C2176 C65 1.576 . S
C2193 C330 1.362 . S
C2212 C496 1.356 . S
C2229 C359 1.699 . S
C2248 C92 1.624 . S
C2265 C371 1.259 . S
C2284 C104 1.277 . S
C2301 C455 1.222 . S
C2320 C386 1.211 . S
C2337 C398 1.396 . S
C2356 C471 1.398 . S
C2373 C415 1.742 . S
C2392 C442 1.706 . S
C2409 C427 1.332 . S
C2428 C258 1.381 . S
C2445 C443 1.526 . S
C2464 C555 1.483 . S
C2481 C231 1.236 . S
C2500 C454 1.149 . S
C2517 C470 1.453 . S
C2536 C582 1.455 . S
C2553 C484 1.611 . S
C2572 C288 1.593 . S
C2589 C637 1.463 . S
C2608 C497 1.423 . S
C2625 C513 1.644 . S
C2644 C317 1.584 . S
C2661 C608 1.275 . S
C2680 C525 1.209 . S
C2697 C328 1.146 . S
C2716 C469 1.169 . S
C2733 C414 1.590 . S
C2752 C428 1.591 . S
C2769 C440 1.483 . S
C2788 C387 1.477 . S
C2805 C399 1.485 . S
C2824 C457 1.461 . S
C2841 C498 1.684 . S
C2860 C400 1.656 . S
C2877 C331 1.417 . S
C2896 C510 1.408 . S
C2913 C526 1.321 . S
C2932 C413 1.328 . S
C2949 C483 1.393 . S
C2968 C384 1.417 . S
C2985 C539 1.094 . S
C3004 C216 1.124 . S
C3021 C191 1.623 . S
C3040 C611 1.560 . S
C3057 C287 1.437 . S
C3076 C540 1.435 . S
C3093 C638 1.621 . S
C3112 C205 1.654 . S
C3129 C650 1.300 . S
C3148 C175 1.300 . S
C3165 C162 1.215 . S
C3184 C245 1.220 . S
C3201 C132 1.483 . S
C3220 C261 1.449 . S
C3237 C232 1.485 . S
C3256 C146 1.466 . S
C3273 C553 1.162 . S
C3292 C48 1.212 . S
C3309 C429 1.484 . S
C3328 C569 1.535 . S
C3345 C580 1.168 . S
C3364 C21 1.228 . S
C3381 C596 1.472 . S
C3400 C456 1.444 . S
C3417 C79 1.606 . S
C3436 C610 1.643 . S
C3453 C622 1.311 . S
C3472 C511 1.351 . S
C3489 C639 1.651 . S
C3508 C107 1.587 . S
C3525 C482 1.486 . S
C3544 C651 1.450 . S
C3561 C595 1.181 . S
C3580 C118 1.210 . S
C3597 C203 1.291 . S
C3616 C554 1.295 . S
C3633 C177 1.355 . S
C3652 C566 1.328 . S
C3669 C583 1.481 . S
C3688 C189 1.498 . S
C3705 C625 1.722 . S
C3724 C190 1.644 . S
C3741 C121 1.595 . S
C3760 C636 1.602 . S
C3777 C204 1.544 . S
C3796 C652 1.558 . S
C3813 C609 1.335 . S
C3832 C174 1.354 . S
C3849 C6 1.128 . S
C3868 C665 1.086 . S
C3885 C401 1.698 . S
C3904 C485 1.641 . S
C3921 C76 1.419 . S
C3940 C666 1.385 . S
C3957 C512 1.415 . S
C3976 C412 1.410 . S
C3993 C524 1.234 . S
C4012 C385 1.244 . S
C4029 C372 1.186 . S
C4048 C35 1.156 . S
C4065 C342 1.452 . S
C4084 C51 1.433 . S
C4101 C22 1.456 . S
C4120 C356 1.435 . S
