# Generated by pormake.
# Topology kag, (6)-cn, num edge types: 1
# Building blocks:
#     Node 0, Type 0, BuildingBlock: BETFAJ_clean_sbu_0, # of connection points: 6
#     Node 1, Type 0, BuildingBlock: BETFAJ_clean_sbu_0, # of connection points: 6
#     Node 2, Type 0, BuildingBlock: BETFAJ_clean_sbu_0, # of connection points: 6
#     Edge 3, Type (0, 0), BuildingBlock: ZUJKAS_clean_linker_0, # of connection points: 2
#     Edge 4, Type (0, 0), BuildingBlock: ZUJKAS_clean_linker_0, # of connection points: 2
#     Edge 5, Type (0, 0), BuildingBlock: ZUJKAS_clean_linker_0, # of connection points: 2
#     Edge 6, Type (0, 0), BuildingBlock: ZUJKAS_clean_linker_0, # of connection points: 2
#     Edge 7, Type (0, 0), BuildingBlock: ZUJKAS_clean_linker_0, # of connection points: 2
#     Edge 8, Type (0, 0), BuildingBlock: ZUJKAS_clean_linker_0, # of connection points: 2
#     Edge 9, Type (0, 0), BuildingBlock: ZUJKAS_clean_linker_0, # of connection points: 2
#     Edge 10, Type (0, 0), BuildingBlock: ZUJKAS_clean_linker_0, # of connection points: 2
#     Edge 11, Type (0, 0), BuildingBlock: ZUJKAS_clean_linker_0, # of connection points: 2
# Relax obj value: 0.053
# Max RMSD: 0.169
# Mean RMSD: 0.089
data_MOF--net-kag--node1-BETFAJ_clean_sbu_0--edge1-ZUJKAS_clean_linker_0
_symmetry_space_group_name_H-M    P1
_symmetry_Int_Tables_number       1
_symmetry_cell_setting            triclinic
loop_
_symmetry_equiv_pos_as_xyz
'x, y, z'
_cell_length_a     40.317746
_cell_length_b     50.965545
_cell_length_c     18.952687
_cell_angle_alpha  95.374221
_cell_angle_beta   90.530797
_cell_angle_gamma 100.35136
loop_
_atom_site_label
_atom_site_type_symbol
_atom_site_fract_x
_atom_site_fract_y
_atom_site_fract_z
_atom_type_partial_charge
Sm0 Sm 1.04136 0.47791 0.02449 0.0
Sm1 Sm 0.0557 0.54337 0.99756 0.0
C2 C 1.02581 0.43235 0.08298 0.0
C3 C 1.00165 0.40697 0.07002 0.0
C4 C 0.99398 0.3907 0.12539 0.0
C5 C 0.97068 0.36671 0.11445 0.0
C6 C 0.95459 0.35849 0.04771 0.0
C7 C 0.96236 0.375 0.99233 0.0
C8 C 0.98561 0.39905 1.00345 0.0
C9 C 1.03991 0.48673 0.88146 0.0
C10 C 0.9776 0.50992 1.0025 0.0
C11 C 0.07165 0.58922 0.94082 0.0
C12 C 0.09707 0.61406 0.95294 0.0
C13 C 0.13097 0.61332 0.96907 0.0
C14 C 0.15478 0.63706 0.97918 0.0
C15 C 0.14514 0.66203 0.974 0.0
C16 C 0.1111 0.66267 0.95862 0.0
C17 C 0.08734 0.63891 0.94802 0.0
C18 C 0.05735 0.5344 0.14059 0.0
C19 C 0.11945 0.51151 0.0195 0.0
O20 O 1.01281 0.4536 0.10276 0.0
O21 O 0.04986 0.4368 0.03699 0.0
O22 O 1.04344 0.50339 0.93533 0.0
O23 O 1.03633 0.46291 0.90319 0.0
O24 O 0.98855 0.48931 0.02683 0.0
O25 O 0.99798 0.531 0.98087 0.0
O26 O 0.08273 0.56739 0.91742 0.0
O27 O 0.04846 0.58521 0.98877 0.0
O28 O 0.0535 0.51781 0.08663 0.0
O29 O 0.0611 0.55824 0.11901 0.0
O30 O 0.10847 0.53203 0.99479 0.0
O31 O 0.09908 0.49051 0.04156 0.0
H32 H 1.0059 0.39663 0.17733 0.0
H33 H 0.96493 0.3548 0.15866 0.0
H34 H 0.95078 0.36921 0.94009 0.0
H35 H 0.99109 0.41146 0.9601 0.0
H36 H 0.1391 0.59442 0.97383 0.0
H37 H 0.1807 0.63589 0.99186 0.0
H38 H 0.10291 0.68154 0.95359 0.0
H39 H 0.06134 0.63993 0.93564 0.0
Sm40 Sm 0.5853 0.01633 0.99409 0.0
Sm41 Sm 0.5115 1.00584 0.02847 0.0
C42 C 0.6449 0.03519 0.94315 0.0
C43 C 0.66908 0.06085 0.95129 0.0
C44 C 0.68171 0.07269 0.89077 0.0
C45 C 0.70416 0.09721 0.89726 0.0
C46 C 0.71464 0.11029 0.96454 0.0
C47 C 0.70195 0.09839 0.02513 0.0
C48 C 0.67927 0.074 0.01862 0.0
C49 C 0.57322 0.01262 0.13572 0.0
C50 C 0.54523 0.06758 0.02821 0.0
C51 C 0.45168 0.98689 0.07845 0.0
C52 C 0.42839 0.9609 0.0705 0.0
C53 C 0.40741 0.95309 0.12619 0.0
C54 C 0.3854 0.92835 0.11955 0.0
C55 C 0.38387 0.91094 0.05684 0.0
C56 C 0.40524 0.91885 1.00131 0.0
C57 C 0.42738 0.94351 1.00821 0.0
C58 C 0.52388 1.00958 0.88682 0.0
C59 C 0.55149 0.95467 0.99509 0.0
O60 O 0.61639 0.03535 0.90981 0.0
O61 O 0.64111 0.02123 0.99802 0.0
O62 O 0.55753 0.02468 0.09508 0.0
O63 O 0.59741 1.00329 0.10306 0.0
O64 O 0.57049 0.05831 0.99673 0.0
O65 O 0.52039 0.05136 0.0553 0.0
O66 O 0.48003 0.98746 0.11314 0.0
O67 O 0.45566 1.00005 0.02219 0.0
O68 O 0.53928 0.99739 0.92761 0.0
O69 O 0.49978 0.01906 0.91937 0.0
O70 O 0.52674 0.9641 0.02812 0.0
O71 O 0.5758 0.97079 0.96613 0.0
H72 H 0.67413 0.06296 0.83834 0.0
H73 H 0.7137 0.10575 0.8496 0.0
H74 H 0.70921 0.10814 0.07766 0.0
H75 H 0.66964 0.06552 0.06629 0.0
H76 H 0.40813 0.9661 0.175 0.0
H77 H 0.36985 0.92277 0.16394 0.0
H78 H 0.40455 0.90618 0.95195 0.0
H79 H 0.44362 0.94903 0.96474 0.0
Sm80 Sm 0.55783 0.54107 0.9959 0.0
Sm81 Sm 0.53941 0.48199 0.01992 0.0
C82 C 0.56698 0.58909 0.94805 0.0
C83 C 0.55803 0.61602 0.95285 0.0
C84 C 0.55759 0.62892 0.89079 0.0
C85 C 0.55394 0.65576 0.89406 0.0
C86 C 0.55067 0.67033 0.95964 0.0
C87 C 0.54964 0.657 0.02163 0.0
C88 C 0.55338 0.63009 0.01831 0.0
C89 C 0.55909 0.53116 0.13663 0.0
C90 C 0.47833 0.51497 0.01834 0.0
C91 C 0.53025 0.43322 0.06368 0.0
C92 C 0.53643 0.40538 0.04941 0.0
C93 C 0.56256 0.3968 0.08554 0.0
C94 C 0.56542 0.36967 0.07958 0.0
C95 C 0.54197 0.3505 0.03801 0.0
C96 C 0.5165 0.35923 1.00024 0.0
C97 C 0.51372 0.38629 1.00593 0.0
C98 C 0.53887 0.49209 0.87911 0.0
C99 C 0.61912 0.50855 1.00191 0.0
O100 O 0.54504 0.56872 0.91919 0.0
O101 O 0.58436 0.58317 1.00101 0.0
O102 O 0.53734 0.5196 0.09057 0.0
O103 O 0.57961 0.55024 0.11069 0.0
O104 O 0.49925 0.53332 0.98769 0.0
O105 O 0.48956 0.49566 0.04773 0.0
O106 O 0.55536 0.4523 0.0865 0.0
O107 O 0.50931 0.44122 0.02092 0.0
O108 O 0.56037 0.50342 0.92578 0.0
O109 O 0.51815 0.47303 0.9045 0.0
O110 O 0.59787 0.4902 0.03183 0.0
O111 O 0.60826 0.52785 0.97175 0.0
H112 H 0.56119 0.61845 0.83976 0.0
H113 H 0.55424 0.66525 0.84521 0.0
H114 H 0.54733 0.66766 0.07302 0.0
H115 H 0.55373 0.62057 0.067 0.0
H116 H 0.58015 0.4109 0.12032 0.0
H117 H 0.58516 0.36358 0.10986 0.0
H118 H 0.49831 0.34504 0.96698 0.0
H119 H 0.49307 0.39207 0.97783 0.0
H120 H 1.04164 0.4511 0.76641 0.0
H121 H 1.04498 0.45955 0.64153 0.0
H122 H 1.0448 0.54334 0.70009 0.0
H123 H 1.0415 0.53489 0.82565 0.0
H124 H 1.00115 0.4795 0.55765 0.0
H125 H 0.12659 0.54611 0.57378 0.0
H126 H 0.11111 0.52597 0.64404 0.0
H127 H 0.09651 0.55678 0.63423 0.0
C128 C 1.04247 0.47138 0.75278 0.0
C129 C 1.04184 0.49243 0.80603 0.0
C130 C 1.04434 0.47617 0.68126 0.0
C131 C 1.04573 0.50215 0.66112 0.0
C132 C 1.0446 0.52322 0.71421 0.0
H133 H 0.0566 0.57001 0.25609 0.0
H134 H 0.05326 0.56139 0.38082 0.0
C135 C 1.04271 0.5184 0.78601 0.0
C136 C 0.04769 0.50687 0.58449 0.0
H137 H 0.09631 0.54125 0.46422 0.0
C138 C 1.02202 0.49294 0.5372 0.0
C139 C 0.07493 0.52437 0.55755 0.0
C140 C 0.10404 0.53901 0.60478 0.0
C141 C 1.0225 0.4964 0.4643 0.0
C142 C 0.04975 0.51389 0.43735 0.0
C143 C 0.07543 0.5278 0.48465 0.0
C144 C 0.05168 0.51869 0.36074 0.0
C145 C 0.99333 0.48181 0.41716 0.0
C146 C 0.05234 0.49763 0.30737 0.0
C147 C 0.05417 0.50253 0.23563 0.0
C148 C 0.05554 0.52861 0.21596 0.0
C149 C 0.05541 0.54966 0.26946 0.0
C150 C 0.05354 0.54477 0.34091 0.0
H151 H 0.97074 0.47487 0.44824 0.0
H152 H 0.98637 0.4948 0.37768 0.0
H153 H 1.00071 0.46392 0.38802 0.0
H154 H 0.05179 0.47742 0.32121 0.0
H155 H 0.05491 0.48602 0.19574 0.0
H156 H 0.526 0.03364 0.21443 0.0
H157 H 0.51808 0.03337 0.34266 0.0
H158 H 0.59978 0.98981 0.35819 0.0
H159 H 0.60801 0.99025 0.23051 0.0
H160 H 0.50347 0.98948 0.42397 0.0
H161 H 0.62628 0.05352 0.50871 0.0
H162 H 0.60929 0.05099 0.41936 0.0
H163 H 0.62962 0.025 0.44774 0.0
C164 C 0.54231 0.02409 0.24533 0.0
C165 C 0.5678 0.01216 0.21267 0.0
C166 C 0.53776 0.02393 0.31847 0.0
C167 C 0.55874 0.01199 0.36019 0.0
C168 C 0.5838 0.99966 0.32735 0.0
H169 H 0.57107 0.98836 0.80848 0.0
H170 H 0.57914 0.98854 0.68026 0.0
C171 C 0.58835 0.9998 0.25432 0.0
C172 C 0.55404 0.01195 0.43784 0.0
H173 H 0.59398 0.03248 0.59867 0.0
C174 C 0.52317 0.999 0.46221 0.0
C175 C 0.57984 0.0243 0.48764 0.0
C176 C 0.61303 0.03946 0.46477 0.0
C177 C 0.51761 0.99766 0.53498 0.0
C178 C 0.5434 1.01002 0.58478 0.0
C179 C 0.57428 0.02295 0.56042 0.0
C180 C 0.53866 1.01005 0.66242 0.0
C181 C 0.48441 0.98252 0.55787 0.0
C182 C 0.51364 0.02249 0.69507 0.0
C183 C 0.50901 0.02242 0.76808 0.0
C184 C 0.52942 1.01 0.8099 0.0
C185 C 0.55486 0.99795 0.77744 0.0
C186 C 0.55951 0.99806 0.70431 0.0
H187 H 0.47116 0.96845 0.51394 0.0
H188 H 0.48815 0.97099 0.6033 0.0
H189 H 0.46783 0.99699 0.57489 0.0
H190 H 0.49775 0.03238 0.66409 0.0
H191 H 0.48938 0.03205 0.79175 0.0
H192 H 0.58398 0.5289 0.81657 0.0
H193 H 0.58708 0.53601 0.69037 0.0
H194 H 0.50095 0.47276 0.64452 0.0
H195 H 0.49751 0.46579 0.77054 0.0
H196 H 0.59606 0.49925 0.57576 0.0
H197 H 0.47469 0.53459 0.54685 0.0
H198 H 0.49416 0.53307 0.63218 0.0
H199 H 0.47098 0.50316 0.5844 0.0
C200 C 0.56562 0.51662 0.77956 0.0
C201 C 0.54047 0.49681 0.8033 0.0
C202 C 0.56743 0.52068 0.70753 0.0
C203 C 0.54399 0.50516 0.6581 0.0
C204 C 0.5189 0.48533 0.68182 0.0
H205 H 0.51438 0.49448 0.20041 0.0
H206 H 0.51168 0.48778 0.32684 0.0
C207 C 0.51708 0.48126 0.75378 0.0
C208 C 0.54638 0.50912 0.58149 0.0
H209 H 0.50286 0.52494 0.44064 0.0
C210 C 0.57578 0.50502 0.54627 0.0
C211 C 0.51984 0.51657 0.54304 0.0
C212 C 0.48824 0.52236 0.57855 0.0
C213 C 0.5791 0.50765 0.47337 0.0
C214 C 0.55253 0.51504 0.4349 0.0
C215 C 0.52316 0.51919 0.47015 0.0
C216 C 0.55477 0.51877 0.35812 0.0
C217 C 0.6107 0.50187 0.43784 0.0
C218 C 0.57974 0.53853 0.33375 0.0
C219 C 0.58133 0.54237 0.26163 0.0
C220 C 0.55782 0.52666 0.2126 0.0
C221 C 0.53283 0.50689 0.23701 0.0
C222 C 0.53124 0.50306 0.30918 0.0
H223 H 0.62439 0.4898 0.46975 0.0
H224 H 0.60474 0.49099 0.38441 0.0
H225 H 0.62785 0.52108 0.4315 0.0
H226 H 0.59776 0.55122 0.37067 0.0
H227 H 0.60079 0.55782 0.24435 0.0
H228 H 0.1693 0.54984 0.97452 0.0
H229 H 0.22998 0.55059 0.97556 0.0
H230 H 0.21487 0.4762 0.07211 0.0
H231 H 0.15392 0.47496 0.0703 0.0
H232 H 0.27474 0.55163 0.08663 0.0
H233 H 0.27155 0.4598 0.90277 0.0
H234 H 0.23561 0.47623 0.91436 0.0
H235 H 0.24556 0.45473 0.97844 0.0
C236 C 0.17873 0.53354 0.99593 0.0
C237 C 0.15651 0.51221 0.02191 0.0
C238 C 0.21354 0.53406 0.99651 0.0
C239 C 0.227 0.51325 0.0228 0.0
C240 C 0.20503 0.49218 0.05005 0.0
H241 H 0.42857 0.47993 0.07487 0.0
H242 H 0.36824 0.48073 0.07698 0.0
C243 C 0.17015 0.49159 0.04935 0.0
C244 C 0.26403 0.51383 0.02226 0.0
H245 H 0.32419 0.47884 0.95968 0.0
C246 C 0.28557 0.53577 0.05862 0.0
C247 C 0.27818 0.49318 0.9855 0.0
C248 C 0.2566 0.46977 0.94247 0.0
C249 C 0.32076 0.53734 0.06044 0.0
C250 C 0.33485 0.5166 0.02412 0.0
C251 C 0.31334 0.49471 0.9876 0.0
C252 C 0.3718 0.51691 0.02421 0.0
C253 C 0.34253 0.56088 0.10257 0.0
C254 C 0.39395 0.53697 0.99351 0.0
C255 C 0.42863 0.5366 0.99212 0.0
C256 C 0.44178 0.5161 0.02128 0.0
C257 C 0.41944 0.49609 0.05209 0.0
C258 C 0.38486 0.49646 0.05327 0.0
H259 H 0.32758 0.57169 0.1404 0.0
H260 H 0.36282 0.55427 0.13262 0.0
H261 H 0.35462 0.57518 0.0657 0.0
H262 H 0.38435 0.5527 0.96964 0.0
H263 H 0.44503 0.55223 0.96765 0.0
H264 H 0.76977 0.12515 0.05415 0.0
H265 H 0.8097 0.16778 0.06549 0.0
H266 H 0.75453 0.19642 0.90186 0.0
H267 H 0.71431 0.1539 0.89051 0.0
H268 H 0.84941 0.19203 0.9489 0.0
H269 H 0.76355 0.25558 0.07569 0.0
H270 H 0.75605 0.21959 0.07687 0.0
H271 H 0.74756 0.23408 0.99744 0.0
C272 C 0.76597 0.14061 0.02101 0.0
C273 C 0.73883 0.13619 0.97156 0.0
C274 C 0.78888 0.16488 0.02731 0.0
C275 C 0.78487 0.18529 0.98495 0.0
C276 C 0.75786 0.18099 0.9355 0.0
H277 H 0.89504 0.34827 0.96994 0.0
H278 H 0.85469 0.30608 0.95108 0.0
C279 C 0.73508 0.15663 0.92873 0.0
C280 C 0.80936 0.2109 0.99169 0.0
H281 H 0.8177 0.27752 0.0472 0.0
C282 C 0.84256 0.21074 0.97044 0.0
C283 C 0.80019 0.23526 0.01931 0.0
C284 C 0.76498 0.23632 0.04418 0.0
C285 C 0.86687 0.23439 0.97555 0.0
C286 C 0.85792 0.25873 1.0045 0.0
C287 C 0.82457 0.25888 0.02515 0.0
C288 C 0.88288 0.28416 0.01479 0.0
C289 C 0.90169 0.23314 0.94852 0.0
C290 C 0.91202 0.28599 0.05741 0.0
C291 C 0.93534 0.30998 0.06762 0.0
C292 C 0.92986 0.33283 0.03612 0.0
C293 C 0.90041 0.331 0.99404 0.0
C294 C 0.87716 0.30694 0.98364 0.0
H295 H 0.90151 0.21545 0.90939 0.0
H296 H 0.91234 0.25151 0.92328 0.0
H297 H 0.91863 0.23137 0.99361 0.0
H298 H 0.91666 0.26888 0.08328 0.0
H299 H 0.95782 0.31053 0.09984 0.0
H300 H 0.59477 0.92634 0.92339 0.0
H301 H 0.59358 0.87791 0.91575 0.0
H302 H 0.50715 0.86846 0.04957 0.0
H303 H 0.50762 0.91652 0.05615 0.0
H304 H 0.6002 0.84575 0.02014 0.0
H305 H 0.47476 0.81278 0.88659 0.0
H306 H 0.49634 0.84719 0.89345 0.0
H307 H 0.47347 0.83395 0.96726 0.0
C308 C 0.57539 0.91394 0.95085 0.0
C309 C 0.55119 0.92536 0.99003 0.0
C310 C 0.57475 0.88625 0.94647 0.0
C311 C 0.54989 0.86943 0.98099 0.0
C312 C 0.52603 0.88086 0.0209 0.0
H313 H 0.51068 0.69902 0.04058 0.0
H314 H 0.51094 0.74739 0.04724 0.0
C315 C 0.52652 0.90845 0.025 0.0
C316 C 0.54951 0.84007 0.97718 0.0
H317 H 0.49985 0.77882 0.93254 0.0
C318 C 0.57834 0.83114 1.00053 0.0
C319 C 0.52091 0.82095 0.95183 0.0
C320 C 0.48974 0.82916 0.92272 0.0
C321 C 0.57917 0.80367 1.00029 0.0
C322 C 0.55054 0.78461 0.97528 0.0
C323 C 0.5217 0.79349 0.95202 0.0
C324 C 0.55037 0.75534 0.97136 0.0
C325 C 0.61047 0.79526 0.028 0.0
C326 C 0.57214 0.74375 0.92591 0.0
C327 C 0.57205 0.7162 0.92199 0.0
C328 C 0.55009 0.69959 0.96334 0.0
C329 C 0.52811 0.71126 1.00855 0.0
C330 C 0.52811 0.73886 0.01216 0.0
H331 H 0.62682 0.81194 0.06074 0.0
H332 H 0.60379 0.77808 0.06032 0.0
H333 H 0.62528 0.78885 0.98258 0.0
H334 H 0.58921 0.75602 0.89326 0.0
H335 H 0.58958 0.70798 0.88723 0.0
H336 H 0.92757 0.471 0.04434 0.0
H337 H 0.86681 0.46996 0.04153 0.0
H338 H 0.88238 0.54604 0.95336 0.0
H339 H 0.94333 0.54724 0.95526 0.0
H340 H 0.83101 0.50704 0.10964 0.0
H341 H 0.8111 0.49893 0.81759 0.0
H342 H 0.8491 0.49259 0.85866 0.0
H343 H 0.84312 0.52641 0.8525 0.0
C344 C 0.91821 0.48751 0.02393 0.0
C345 C 0.94053 0.50919 0.99977 0.0
C346 C 0.88338 0.48687 0.02249 0.0
C347 C 0.86998 0.50774 0.99642 0.0
C348 C 0.89209 0.52946 0.97248 0.0
H349 H 0.66985 0.54428 0.95063 0.0
H350 H 0.73013 0.54328 0.95094 0.0
C351 C 0.927 0.53017 0.97397 0.0
C352 C 0.83295 0.50705 0.9962 0.0
H353 H 0.76456 0.5062 0.88762 0.0
C354 C 0.81642 0.50672 0.0611 0.0
C355 C 0.81397 0.50665 0.93282 0.0
C356 C 0.83009 0.50592 0.8613 0.0
C357 C 0.78157 0.50662 0.06454 0.0
C358 C 0.76257 0.50626 1.00113 0.0
C359 C 0.7791 0.50645 0.93619 0.0
C360 C 0.72568 0.50642 1.00105 0.0
C361 C 0.76565 0.50771 0.13625 0.0
C362 C 0.70291 0.48582 0.02832 0.0
C363 C 0.66828 0.48638 0.02855 0.0
C364 C 0.65569 0.50743 1.00083 0.0
C365 C 0.67856 0.52776 0.97249 0.0
C366 C 0.71311 0.52723 0.97254 0.0
H367 H 0.78475 0.51495 0.17962 0.0
H368 H 0.74661 0.52101 0.13868 0.0
H369 H 0.75276 0.48728 0.14595 0.0
H370 H 0.7119 0.46923 0.04916 0.0
H371 H 0.6514 0.4703 0.05035 0.0
H372 H 0.20892 0.67179 0.92216 0.0
H373 H 0.25049 0.71346 0.93863 0.0
H374 H 0.1801 0.7512 0.0635 0.0
H375 H 0.13865 0.70949 0.04846 0.0
H376 H 0.2436 0.76458 0.89965 0.0
H377 H 0.26658 0.76654 0.18953 0.0
H378 H 0.24642 0.73673 0.13568 0.0
H379 H 0.22292 0.76256 0.16307 0.0
C380 C 0.20244 0.68886 0.95386 0.0
C381 C 0.17051 0.68728 0.98425 0.0
C382 C 0.22614 0.71269 0.96287 0.0
C383 C 0.21855 0.73531 1.00303 0.0
C384 C 0.18669 0.73386 0.03323 0.0
H385 H 0.31923 0.89975 0.10467 0.0
H386 H 0.28002 0.85693 0.09139 0.0
C387 C 0.16291 0.71009 0.02398 0.0
C388 C 0.2436 0.76066 0.01175 0.0
H389 H 0.28998 0.80578 0.13587 0.0
C390 C 0.25393 0.77351 0.95121 0.0
C391 C 0.25699 0.77227 0.07911 0.0
C392 C 0.24795 0.75874 0.14559 0.0
C393 C 0.27676 0.79798 0.95639 0.0
C394 C 0.28994 0.80968 0.02379 0.0
C395 C 0.27975 0.79677 0.08429 0.0
C396 C 0.31414 0.83546 0.03259 0.0
C397 C 0.28599 0.81149 0.88997 0.0
C398 C 0.34654 0.83747 1.00485 0.0
C399 C 0.36923 0.86185 0.01305 0.0
C400 C 0.35995 0.88477 0.04915 0.0
C401 C 0.32748 0.88252 0.07741 0.0
C402 C 0.30491 0.85809 0.06951 0.0
H403 H 0.26838 0.80291 0.84483 0.0
H404 H 0.286 0.83334 0.89917 0.0
H405 H 0.31177 0.80881 0.87478 0.0
H406 H 0.35437 0.8201 0.97724 0.0
H407 H 0.39418 0.86263 0.99178 0.0
H408 H 0.59713 0.3257 0.02715 0.0
H409 H 0.59802 0.27764 0.02533 0.0
H410 H 0.49004 0.26162 0.04642 0.0
H411 H 0.48892 0.30939 0.04748 0.0
H412 H 0.57886 0.24278 0.12364 0.0
H413 H 0.50107 0.20973 0.87812 0.0
H414 H 0.51836 0.2445 0.90404 0.0
H415 H 0.48038 0.22854 0.94308 0.0
C416 C 0.57359 0.31191 0.0313 0.0
C417 C 0.54291 0.32136 0.03659 0.0
C418 C 0.57412 0.28445 0.0301 0.0
C419 C 0.54401 0.26591 0.03423 0.0
C420 C 0.51347 0.27538 0.04096 0.0
H421 H 0.49367 0.09409 0.06698 0.0
H422 H 0.49385 0.14237 0.07075 0.0
C423 C 0.51289 0.30275 0.04166 0.0
C424 C 0.54454 0.23675 0.0334 0.0
H425 H 0.51106 0.17538 0.94844 0.0
C426 C 0.56422 0.22808 0.08502 0.0
C427 C 0.52546 0.21751 0.98292 0.0
C428 C 0.5054 0.22553 0.92348 0.0
C429 C 0.56479 0.20072 0.08834 0.0
C430 C 0.5453 0.18155 0.03863 0.0
C431 C 0.52574 0.19015 0.98688 0.0
C432 C 0.54551 0.15247 0.03838 0.0
C433 C 0.58581 0.19239 0.14563 0.0
C434 C 0.57444 0.1422 0.01858 0.0
C435 C 0.57436 0.11467 0.01587 0.0
C436 C 0.54535 0.09684 0.03321 0.0
C437 C 0.51646 0.10725 0.05363 0.0
C438 C 0.51649 0.13481 0.05567 0.0
H439 H 0.59431 0.20902 0.18766 0.0
H440 H 0.57133 0.17511 0.17035 0.0
H441 H 0.60847 0.186 0.12183 0.0
H442 H 0.59697 0.15546 1.00429 0.0
H443 H 0.59708 0.1074 0.99997 0.0
loop_
_geom_bond_atom_site_label_1
_geom_bond_atom_site_label_2
_geom_bond_distance
_geom_bond_site_symmetry_2
_ccdc_geom_bond_type
Sm0 C2 2.846 . S
Sm0 O20 2.543 1_556 S
Sm0 O21 2.450 . S
Sm0 O22 2.681 1_655 S
Sm0 O23 2.464 . S
Sm0 O24 2.396 . S
Sm0 O28 2.386 1_556 S
Sm0 O31 2.408 1_655 S
Sm1 C11 2.846 . S
Sm1 O22 2.386 1_554 S
Sm1 O25 2.408 1_455 S
Sm1 O26 2.543 1_554 S
Sm1 O27 2.450 . S
Sm1 O28 2.681 1_455 S
Sm1 O29 2.464 . S
Sm1 O30 2.396 . S
C2 Sm0 2.846 . S
C2 C3 1.506 . S
C2 O20 1.261 1_556 S
C2 O21 1.242 . S
C3 C2 1.506 . S
C3 C4 1.358 1_556 S
C3 C8 1.382 . S
C4 C3 1.358 1_554 S
C4 C5 1.385 . S
C4 H32 0.930 . S
C5 C4 1.385 . S
C5 C6 1.395 1_554 S
C5 H33 0.929 . S
C6 C5 1.395 1_556 S
C6 C7 1.335 . S
C7 C6 1.335 . S
C7 C8 1.398 . S
C7 H34 0.930 . S
C8 C3 1.382 . S
C8 C7 1.398 . S
C8 H35 0.929 . S
C9 O22 1.274 . S
C9 O23 1.248 1_455 S
C10 O24 1.252 . S
C10 O25 1.272 1_556 S
C11 Sm1 2.846 . S
C11 C12 1.506 . S
C11 O26 1.261 1_554 S
C11 O27 1.242 . S
C12 C11 1.506 . S
C12 C13 1.358 1_554 S
C12 C17 1.382 . S
C13 C12 1.358 1_556 S
C13 C14 1.385 . S
C13 H36 0.930 . S
C14 C13 1.385 . S
C14 C15 1.395 1_556 S
C14 H37 0.929 . S
C15 C14 1.395 1_554 S
C15 C16 1.335 . S
C16 C15 1.335 . S
C16 C17 1.398 . S
C16 H38 0.930 . S
C17 C12 1.382 . S
C17 C16 1.398 . S
C17 H39 0.929 . S
C18 O28 1.271 1_455 S
C18 O29 1.251 . S
C19 O30 1.252 . S
C19 O31 1.272 1_554 S
O20 Sm0 2.543 1_554 S
O20 C2 1.261 1_554 S
O21 Sm0 2.450 . S
O21 C2 1.242 . S
O22 Sm0 2.681 1_455 S
O22 Sm1 2.386 1_556 S
O22 C9 1.274 . S
O23 Sm0 2.464 . S
O23 C9 1.248 1_655 S
O24 Sm0 2.396 . S
O24 C10 1.252 . S
O25 Sm1 2.408 1_655 S
O25 C10 1.272 1_554 S
O26 Sm1 2.543 1_556 S
O26 C11 1.261 1_556 S
O27 Sm1 2.450 . S
O27 C11 1.242 . S
O28 Sm0 2.386 1_554 S
O28 Sm1 2.681 1_655 S
O28 C18 1.271 1_655 S
O29 Sm1 2.464 . S
O29 C18 1.251 . S
O30 Sm1 2.396 . S
O30 C19 1.252 . S
O31 Sm0 2.408 1_455 S
O31 C19 1.272 1_556 S
H32 C4 0.930 . S
H33 C5 0.929 . S
H34 C7 0.930 . S
H35 C8 0.929 . S
H36 C13 0.930 . S
H37 C14 0.929 . S
H38 C16 0.930 . S
H39 C17 0.929 . S
Sm40 C42 2.846 . S
Sm40 O60 2.543 1_554 S
Sm40 O61 2.450 . S
Sm40 O62 2.681 1_545 S
Sm40 O63 2.464 . S
Sm40 O64 2.396 . S
Sm40 O68 2.386 1_554 S
Sm40 O71 2.408 1_545 S
Sm41 C51 2.846 . S
Sm41 O62 2.386 1_556 S
Sm41 O65 2.408 1_565 S
Sm41 O66 2.543 1_556 S
Sm41 O67 2.450 . S
Sm41 O68 2.681 1_565 S
Sm41 O69 2.464 . S
Sm41 O70 2.396 . S
C42 Sm40 2.846 . S
C42 C43 1.505 1_554 S
C42 O60 1.261 1_554 S
C42 O61 1.242 . S
C43 C42 1.505 1_556 S
C43 C44 1.366 . S
C43 C48 1.375 1_556 S
C44 C43 1.366 . S
C44 C45 1.385 . S
C44 H72 0.930 . S
C45 C44 1.385 . S
C45 C46 1.395 . S
C45 H73 0.929 . S
C46 C45 1.395 . S
C46 C47 1.335 1_556 S
C47 C46 1.335 1_554 S
C47 C48 1.398 . S
C47 H74 0.930 . S
C48 C43 1.375 1_554 S
C48 C47 1.398 . S
C48 H75 0.929 . S
C49 O62 1.271 1_545 S
C49 O63 1.251 . S
C50 O64 1.252 . S
C50 O65 1.272 1_554 S
C51 Sm41 2.846 . S
C51 C52 1.504 1_556 S
C51 O66 1.261 1_556 S
C51 O67 1.242 . S
C52 C51 1.504 1_554 S
C52 C53 1.370 . S
C52 C57 1.372 1_554 S
C53 C52 1.370 . S
C53 C54 1.385 . S
C53 H76 0.930 . S
C54 C53 1.385 . S
C54 C55 1.395 . S
C54 H77 0.929 . S
C55 C54 1.395 . S
C55 C56 1.335 1_554 S
C56 C55 1.335 1_556 S
C56 C57 1.398 . S
C56 H78 0.930 . S
C57 C52 1.372 1_556 S
C57 C56 1.398 . S
C57 H79 0.929 . S
C58 O68 1.271 1_565 S
C58 O69 1.251 . S
C59 O70 1.252 . S
C59 O71 1.272 1_556 S
O60 Sm40 2.543 1_556 S
O60 C42 1.261 1_556 S
O61 Sm40 2.450 . S
O61 C42 1.242 . S
O62 Sm40 2.681 1_565 S
O62 Sm41 2.386 1_554 S
O62 C49 1.271 1_565 S
O63 Sm40 2.464 . S
O63 C49 1.251 . S
O64 Sm40 2.396 . S
O64 C50 1.252 . S
O65 Sm41 2.408 1_545 S
O65 C50 1.272 1_556 S
O66 Sm41 2.543 1_554 S
O66 C51 1.261 1_554 S
O67 Sm41 2.450 . S
O67 C51 1.242 . S
O68 Sm40 2.386 1_556 S
O68 Sm41 2.681 1_545 S
O68 C58 1.271 1_545 S
O69 Sm41 2.464 . S
O69 C58 1.251 . S
O70 Sm41 2.396 . S
O70 C59 1.252 . S
O71 Sm40 2.408 1_565 S
O71 C59 1.272 1_554 S
H72 C44 0.930 . S
H73 C45 0.929 . S
H74 C47 0.930 . S
H75 C48 0.929 . S
H76 C53 0.930 . S
H77 C54 0.929 . S
H78 C56 0.930 . S
H79 C57 0.929 . S
Sm80 C82 2.846 . S
Sm80 O100 2.543 1_554 S
Sm80 O101 2.450 . S
Sm80 O102 2.681 . S
Sm80 O103 2.464 . S
Sm80 O104 2.396 . S
Sm80 O108 2.386 1_554 S
Sm80 O111 2.408 . S
Sm81 C91 2.846 . S
Sm81 O102 2.386 1_556 S
Sm81 O105 2.408 . S
Sm81 O106 2.543 1_556 S
Sm81 O107 2.450 . S
Sm81 O108 2.681 . S
Sm81 O109 2.464 . S
Sm81 O110 2.396 . S
C82 Sm80 2.846 . S
C82 C83 1.506 . S
C82 O100 1.261 1_554 S
C82 O101 1.242 . S
C83 C82 1.506 . S
C83 C84 1.358 1_554 S
C83 C88 1.382 . S
C84 C83 1.358 1_556 S
C84 C85 1.385 . S
C84 H112 0.930 . S
C85 C84 1.385 . S
C85 C86 1.395 1_556 S
C85 H113 0.929 . S
C86 C85 1.395 1_554 S
C86 C87 1.335 . S
C87 C86 1.335 . S
C87 C88 1.398 . S
C87 H114 0.930 . S
C88 C83 1.382 . S
C88 C87 1.398 . S
C88 H115 0.929 . S
C89 O102 1.271 . S
C89 O103 1.251 . S
C90 O104 1.252 . S
C90 O105 1.272 1_554 S
C91 Sm81 2.846 . S
C91 C92 1.506 . S
C91 O106 1.261 1_556 S
C91 O107 1.242 . S
C92 C91 1.506 . S
C92 C93 1.358 1_556 S
C92 C97 1.382 . S
C93 C92 1.358 1_554 S
C93 C94 1.385 . S
C93 H116 0.930 . S
C94 C93 1.385 . S
C94 C95 1.383 1_554 S
C94 H117 0.929 . S
C95 C94 1.383 1_556 S
C95 C96 1.348 . S
C96 C95 1.348 . S
C96 C97 1.398 . S
C96 H118 0.930 . S
C97 C92 1.382 . S
C97 C96 1.398 . S
C97 H119 0.929 . S
C98 O108 1.271 . S
C98 O109 1.251 . S
C99 O110 1.252 . S
C99 O111 1.272 1_556 S
O100 Sm80 2.543 1_556 S
O100 C82 1.261 1_556 S
O101 Sm80 2.450 . S
O101 C82 1.242 . S
O102 Sm80 2.681 . S
O102 Sm81 2.386 1_554 S
O102 C89 1.271 . S
O103 Sm80 2.464 . S
O103 C89 1.251 . S
O104 Sm80 2.396 . S
O104 C90 1.252 . S
O105 Sm81 2.408 . S
O105 C90 1.272 1_556 S
O106 Sm81 2.543 1_554 S
O106 C91 1.261 1_554 S
O107 Sm81 2.450 . S
O107 C91 1.242 . S
O108 Sm80 2.386 1_556 S
O108 Sm81 2.681 . S
O108 C98 1.271 . S
O109 Sm81 2.464 . S
O109 C98 1.251 . S
O110 Sm81 2.396 . S
O110 C99 1.252 . S
O111 Sm80 2.408 . S
O111 C99 1.272 1_554 S
H112 C84 0.930 . S
H113 C85 0.929 . S
H114 C87 0.930 . S
H115 C88 0.929 . S
H116 C93 0.930 . S
H117 C94 0.929 . S
H118 C96 0.930 . S
H119 C97 0.929 . S
H120 C128 0.929 . S
H121 C130 0.930 . S
H122 C132 0.930 . S
H123 C135 0.929 . S
H124 C138 0.930 . S
H125 C140 0.960 . S
H126 C140 0.960 . S
H127 C140 0.960 . S
C128 H120 0.929 . S
C128 C129 1.377 1_655 S
C128 C130 1.384 . S
C129 C128 1.377 1_455 S
C129 C135 1.390 . S
C130 H121 0.930 . S
C130 C128 1.384 . S
C130 C131 1.358 1_655 S
C131 C130 1.358 1_455 S
C131 C132 1.415 . S
C131 C136 1.489 1_455 S
C132 H122 0.930 . S
C132 C131 1.415 . S
C132 C135 1.386 . S
H133 C149 0.930 . S
H134 C150 0.931 . S
C135 H123 0.929 . S
C135 C129 1.390 . S
C135 C132 1.386 . S
C136 C131 1.489 1_655 S
C136 C138 1.415 . S
C136 C139 1.384 1_655 S
H137 C143 0.930 . S
C138 H124 0.930 . S
C138 C136 1.415 . S
C138 C141 1.403 . S
C139 C136 1.384 1_455 S
C139 C140 1.524 . S
C139 C143 1.400 . S
C140 H125 0.960 . S
C140 H126 0.960 . S
C140 H127 0.960 . S
C140 C139 1.524 . S
C141 C138 1.403 . S
C141 C142 1.392 . S
C141 C145 1.495 . S
C142 C141 1.392 . S
C142 C143 1.385 1_655 S
C142 C144 1.478 . S
C143 H137 0.930 . S
C143 C139 1.400 . S
C143 C142 1.385 1_455 S
C144 C142 1.478 . S
C144 C146 1.381 . S
C144 C150 1.383 1_655 S
C145 C141 1.495 . S
C145 H151 0.959 . S
C145 H152 0.961 . S
C145 H153 0.960 . S
C146 C144 1.381 . S
C146 C147 1.394 . S
C146 H154 0.930 . S
C147 C146 1.394 . S
C147 C148 1.383 . S
C147 H155 0.929 . S
C148 C147 1.383 . S
C148 C149 1.377 1_655 S
C149 H133 0.930 . S
C149 C148 1.377 1_455 S
C149 C150 1.379 . S
C150 H134 0.931 . S
C150 C144 1.383 1_455 S
C150 C149 1.379 . S
H151 C145 0.959 . S
H152 C145 0.961 . S
H153 C145 0.960 . S
H154 C146 0.930 . S
H155 C147 0.929 . S
H156 C164 0.929 . S
H157 C166 0.930 . S
H158 C168 0.930 . S
H159 C171 0.929 . S
H160 C174 0.930 . S
H161 C176 0.960 . S
H162 C176 0.960 . S
H163 C176 0.960 . S
C164 H156 0.929 . S
C164 C165 1.368 1_565 S
C164 C166 1.384 . S
C165 C164 1.368 1_545 S
C165 C171 1.398 . S
C166 H157 0.930 . S
C166 C164 1.384 . S
C166 C167 1.377 . S
C167 C166 1.377 . S
C167 C168 1.393 1_565 S
C167 C172 1.492 . S
C168 H158 0.930 . S
C168 C167 1.393 1_545 S
C168 C171 1.386 . S
H169 C185 0.930 . S
H170 C186 0.931 . S
C171 H159 0.929 . S
C171 C165 1.398 . S
C171 C168 1.386 . S
C172 C167 1.492 . S
C172 C174 1.395 . S
C172 C175 1.403 1_565 S
H173 C179 0.930 . S
C174 H160 0.930 . S
C174 C172 1.395 . S
C174 C177 1.403 . S
C175 C172 1.403 1_545 S
C175 C176 1.524 . S
C175 C179 1.400 . S
C176 H161 0.960 . S
C176 H162 0.960 . S
C176 H163 0.960 . S
C176 C175 1.524 . S
C177 C174 1.403 . S
C177 C178 1.392 . S
C177 C181 1.495 . S
C178 C177 1.392 . S
C178 C179 1.385 1_565 S
C178 C180 1.478 . S
C179 H173 0.930 . S
C179 C175 1.400 . S
C179 C178 1.385 1_545 S
C180 C178 1.478 . S
C180 C182 1.381 . S
C180 C186 1.383 1_565 S
C181 C177 1.495 . S
C181 H187 0.959 . S
C181 H188 0.961 . S
C181 H189 0.960 . S
C182 C180 1.381 . S
C182 C183 1.394 . S
C182 H190 0.930 . S
C183 C182 1.394 . S
C183 C184 1.383 . S
C183 H191 0.929 . S
C184 C183 1.383 . S
C184 C185 1.377 1_565 S
C185 H169 0.930 . S
C185 C184 1.377 1_545 S
C185 C186 1.379 . S
C186 H170 0.931 . S
C186 C180 1.383 1_545 S
C186 C185 1.379 . S
H187 C181 0.959 . S
H188 C181 0.961 . S
H189 C181 0.960 . S
H190 C182 0.930 . S
H191 C183 0.929 . S
H192 C200 0.929 . S
H193 C202 0.930 . S
H194 C204 0.930 . S
H195 C207 0.929 . S
H196 C210 0.930 . S
H197 C212 0.960 . S
H198 C212 0.960 . S
H199 C212 0.960 . S
C200 H192 0.929 . S
C200 C201 1.377 . S
C200 C202 1.384 . S
C201 C200 1.377 . S
C201 C207 1.390 . S
C202 H193 0.930 . S
C202 C200 1.384 . S
C202 C203 1.372 . S
C203 C202 1.372 . S
C203 C204 1.400 . S
C203 C208 1.490 . S
C204 H194 0.930 . S
C204 C203 1.400 . S
C204 C207 1.386 . S
H205 C221 0.930 . S
H206 C222 0.931 . S
C207 H195 0.929 . S
C207 C201 1.390 . S
C207 C204 1.386 . S
C208 C203 1.490 . S
C208 C210 1.395 . S
C208 C211 1.403 . S
H209 C215 0.930 . S
C210 H196 0.930 . S
C210 C208 1.395 . S
C210 C213 1.403 . S
C211 C208 1.403 . S
C211 C212 1.524 . S
C211 C215 1.400 . S
C212 H197 0.960 . S
C212 H198 0.960 . S
C212 H199 0.960 . S
C212 C211 1.524 . S
C213 C210 1.403 . S
C213 C214 1.392 . S
C213 C217 1.495 . S
C214 C213 1.392 . S
C214 C215 1.385 . S
C214 C216 1.478 . S
C215 H209 0.930 . S
C215 C211 1.400 . S
C215 C214 1.385 . S
C216 C214 1.478 . S
C216 C218 1.381 . S
C216 C222 1.383 . S
C217 C213 1.495 . S
C217 H223 0.959 . S
C217 H224 0.961 . S
C217 H225 0.960 . S
C218 C216 1.381 . S
C218 C219 1.394 . S
C218 H226 0.930 . S
C219 C218 1.394 . S
C219 C220 1.383 . S
C219 H227 0.929 . S
C220 C219 1.383 . S
C220 C221 1.377 . S
C221 H205 0.930 . S
C221 C220 1.377 . S
C221 C222 1.379 . S
C222 H206 0.931 . S
C222 C216 1.383 . S
C222 C221 1.379 . S
H223 C217 0.959 . S
H224 C217 0.961 . S
H225 C217 0.960 . S
H226 C218 0.930 . S
H227 C219 0.929 . S
H228 C236 0.929 . S
H229 C238 0.930 . S
H230 C240 0.930 . S
H231 C243 0.929 . S
H232 C246 0.930 . S
H233 C248 0.960 . S
H234 C248 0.960 . S
H235 C248 0.960 . S
C236 H228 0.929 . S
C236 C237 1.377 . S
C236 C238 1.384 . S
C237 C236 1.377 . S
C237 C243 1.390 1_556 S
C238 H229 0.930 . S
C238 C236 1.384 . S
C238 C239 1.372 . S
C239 C238 1.372 . S
C239 C240 1.400 1_556 S
C239 C244 1.490 . S
C240 H230 0.930 . S
C240 C239 1.400 1_554 S
C240 C243 1.386 . S
H241 C257 0.930 . S
H242 C258 0.931 . S
C243 H231 0.929 . S
C243 C237 1.390 1_554 S
C243 C240 1.386 . S
C244 C239 1.490 . S
C244 C246 1.395 . S
C244 C247 1.403 1_556 S
H245 C251 0.930 . S
C246 H232 0.930 . S
C246 C244 1.395 . S
C246 C249 1.403 . S
C247 C244 1.403 1_554 S
C247 C248 1.524 . S
C247 C251 1.400 . S
C248 H233 0.960 . S
C248 H234 0.960 . S
C248 H235 0.960 . S
C248 C247 1.524 . S
C249 C246 1.403 . S
C249 C250 1.392 . S
C249 C253 1.495 . S
C250 C249 1.392 . S
C250 C251 1.385 1_556 S
C250 C252 1.478 . S
C251 H245 0.930 . S
C251 C247 1.400 . S
C251 C250 1.385 1_554 S
C252 C250 1.478 . S
C252 C254 1.381 . S
C252 C258 1.383 1_556 S
C253 C249 1.495 . S
C253 H259 0.959 . S
C253 H260 0.961 . S
C253 H261 0.960 . S
C254 C252 1.381 . S
C254 C255 1.394 . S
C254 H262 0.930 . S
C255 C254 1.394 . S
C255 C256 1.383 . S
C255 H263 0.929 . S
C256 C255 1.383 . S
C256 C257 1.377 1_556 S
C257 H241 0.930 . S
C257 C256 1.377 1_554 S
C257 C258 1.379 . S
C258 H242 0.931 . S
C258 C252 1.383 1_554 S
C258 C257 1.379 . S
H259 C253 0.959 . S
H260 C253 0.961 . S
H261 C253 0.960 . S
H262 C254 0.930 . S
H263 C255 0.929 . S
H264 C272 0.929 . S
H265 C274 0.930 . S
H266 C276 0.930 . S
H267 C279 0.929 . S
H268 C282 0.930 . S
H269 C284 0.960 . S
H270 C284 0.960 . S
H271 C284 0.960 . S
C272 H264 0.929 . S
C272 C273 1.377 1_554 S
C272 C274 1.384 . S
C273 C272 1.377 1_556 S
C273 C279 1.390 . S
C274 H265 0.930 . S
C274 C272 1.384 . S
C274 C275 1.372 1_554 S
C275 C274 1.372 1_556 S
C275 C276 1.400 . S
C275 C280 1.490 . S
C276 H266 0.930 . S
C276 C275 1.400 . S
C276 C279 1.386 . S
H277 C293 0.930 . S
H278 C294 0.931 . S
C279 H267 0.929 . S
C279 C273 1.390 . S
C279 C276 1.386 . S
C280 C275 1.490 . S
C280 C282 1.395 . S
C280 C283 1.403 1_556 S
H281 C287 0.930 . S
C282 H268 0.930 . S
C282 C280 1.395 . S
C282 C285 1.403 . S
C283 C280 1.403 1_554 S
C283 C284 1.524 . S
C283 C287 1.400 . S
C284 H269 0.960 . S
C284 H270 0.960 . S
C284 H271 0.960 . S
C284 C283 1.524 . S
C285 C282 1.403 . S
C285 C286 1.392 . S
C285 C289 1.495 . S
C286 C285 1.392 . S
C286 C287 1.385 1_556 S
C286 C288 1.478 . S
C287 H281 0.930 . S
C287 C283 1.400 . S
C287 C286 1.385 1_554 S
C288 C286 1.478 . S
C288 C290 1.381 1_556 S
C288 C294 1.383 . S
C289 C285 1.495 . S
C289 H295 0.959 . S
C289 H296 0.961 . S
C289 H297 0.960 . S
C290 C288 1.381 1_554 S
C290 C291 1.394 . S
C290 H298 0.930 . S
C291 C290 1.394 . S
C291 C292 1.383 1_554 S
C291 H299 0.929 . S
C292 C291 1.383 1_556 S
C292 C293 1.377 . S
C293 H277 0.930 . S
C293 C292 1.377 . S
C293 C294 1.379 . S
C294 H278 0.931 . S
C294 C288 1.383 . S
C294 C293 1.379 . S
H295 C289 0.959 . S
H296 C289 0.961 . S
H297 C289 0.960 . S
H298 C290 0.930 . S
H299 C291 0.929 . S
H300 C308 0.929 . S
H301 C310 0.930 . S
H302 C312 0.930 . S
H303 C315 0.929 . S
H304 C318 0.930 . S
H305 C320 0.960 . S
H306 C320 0.960 . S
H307 C320 0.960 . S
C308 H300 0.929 . S
C308 C309 1.377 . S
C308 C310 1.384 . S
C309 C308 1.377 . S
C309 C315 1.390 1_556 S
C310 H301 0.930 . S
C310 C308 1.384 . S
C310 C311 1.372 . S
C311 C310 1.372 . S
C311 C312 1.400 1_556 S
C311 C316 1.490 . S
C312 H302 0.930 . S
C312 C311 1.400 1_554 S
C312 C315 1.386 . S
H313 C329 0.930 . S
H314 C330 0.931 . S
C315 H303 0.929 . S
C315 C309 1.390 1_554 S
C315 C312 1.386 . S
C316 C311 1.490 . S
C316 C318 1.395 . S
C316 C319 1.403 1_556 S
H317 C323 0.930 . S
C318 H304 0.930 . S
C318 C316 1.395 . S
C318 C321 1.403 . S
C319 C316 1.403 1_554 S
C319 C320 1.524 . S
C319 C323 1.400 . S
C320 H305 0.960 . S
C320 H306 0.960 . S
C320 H307 0.960 . S
C320 C319 1.524 . S
C321 C318 1.403 . S
C321 C322 1.392 . S
C321 C325 1.495 . S
C322 C321 1.392 . S
C322 C323 1.385 1_556 S
C322 C324 1.478 . S
C323 H317 0.930 . S
C323 C319 1.400 . S
C323 C322 1.385 1_554 S
C324 C322 1.478 . S
C324 C326 1.381 . S
C324 C330 1.383 1_556 S
C325 C321 1.495 . S
C325 H331 0.959 . S
C325 H332 0.961 . S
C325 H333 0.960 . S
C326 C324 1.381 . S
C326 C327 1.394 . S
C326 H334 0.930 . S
C327 C326 1.394 . S
C327 C328 1.383 . S
C327 H335 0.929 . S
C328 C327 1.383 . S
C328 C329 1.377 1_556 S
C329 H313 0.930 . S
C329 C328 1.377 1_554 S
C329 C330 1.379 . S
C330 H314 0.931 . S
C330 C324 1.383 1_554 S
C330 C329 1.379 . S
H331 C325 0.959 . S
H332 C325 0.961 . S
H333 C325 0.960 . S
H334 C326 0.930 . S
H335 C327 0.929 . S
H336 C344 0.929 . S
H337 C346 0.930 . S
H338 C348 0.930 . S
H339 C351 0.929 . S
H340 C354 0.930 . S
H341 C356 0.960 . S
H342 C356 0.960 . S
H343 C356 0.960 1_554 S
C344 H336 0.929 . S
C344 C345 1.377 1_556 S
C344 C346 1.384 . S
C345 C344 1.377 1_554 S
C345 C351 1.390 . S
C346 H337 0.930 . S
C346 C344 1.384 . S
C346 C347 1.372 1_556 S
C347 C346 1.372 1_554 S
C347 C348 1.400 . S
C347 C352 1.490 . S
C348 H338 0.930 . S
C348 C347 1.400 . S
C348 C351 1.386 . S
H349 C365 0.930 . S
H350 C366 0.931 . S
C351 H339 0.929 . S
C351 C345 1.390 . S
C351 C348 1.386 . S
C352 C347 1.490 . S
C352 C354 1.395 . S
C352 C355 1.403 1_554 S
H353 C359 0.930 . S
C354 H340 0.930 . S
C354 C352 1.395 . S
C354 C357 1.403 . S
C355 C352 1.403 1_556 S
C355 C356 1.524 . S
C355 C359 1.400 . S
C356 H341 0.960 . S
C356 H342 0.960 . S
C356 H343 0.960 1_556 S
C356 C355 1.524 . S
C357 C354 1.403 . S
C357 C358 1.392 . S
C357 C361 1.495 . S
C358 C357 1.392 . S
C358 C359 1.385 1_554 S
C358 C360 1.478 . S
C359 H353 0.930 . S
C359 C355 1.400 . S
C359 C358 1.385 1_556 S
C360 C358 1.478 . S
C360 C362 1.381 1_554 S
C360 C366 1.383 . S
C361 C357 1.495 . S
C361 H367 0.959 . S
C361 H368 0.961 . S
C361 H369 0.960 1_554 S
C362 C360 1.381 1_556 S
C362 C363 1.394 . S
C362 H370 0.930 . S
C363 C362 1.394 . S
C363 C364 1.383 1_556 S
C363 H371 0.929 . S
C364 C363 1.383 1_554 S
C364 C365 1.377 . S
C365 H349 0.930 . S
C365 C364 1.377 . S
C365 C366 1.379 . S
C366 H350 0.931 . S
C366 C360 1.383 . S
C366 C365 1.379 . S
H367 C361 0.959 . S
H368 C361 0.961 . S
H369 C361 0.960 1_556 S
H370 C362 0.930 . S
H371 C363 0.929 . S
H372 C380 0.929 . S
H373 C382 0.930 . S
H374 C384 0.930 . S
H375 C387 0.929 . S
H376 C390 0.930 . S
H377 C392 0.960 . S
H378 C392 0.960 . S
H379 C392 0.960 . S
C380 H372 0.929 . S
C380 C381 1.377 1_556 S
C380 C382 1.384 . S
C381 C380 1.377 1_554 S
C381 C387 1.390 . S
C382 H373 0.930 . S
C382 C380 1.384 . S
C382 C383 1.372 . S
C383 C382 1.372 . S
C383 C384 1.400 1_556 S
C383 C388 1.490 . S
C384 H374 0.930 . S
C384 C383 1.400 1_554 S
C384 C387 1.386 . S
H385 C401 0.930 . S
H386 C402 0.931 . S
C387 H375 0.929 . S
C387 C381 1.390 . S
C387 C384 1.386 . S
C388 C383 1.490 . S
C388 C390 1.395 . S
C388 C391 1.403 1_556 S
H389 C395 0.930 . S
C390 H376 0.930 . S
C390 C388 1.395 . S
C390 C393 1.403 . S
C391 C388 1.403 1_554 S
C391 C392 1.524 . S
C391 C395 1.400 . S
C392 H377 0.960 . S
C392 H378 0.960 . S
C392 H379 0.960 . S
C392 C391 1.524 . S
C393 C390 1.403 . S
C393 C394 1.392 . S
C393 C397 1.495 . S
C394 C393 1.392 . S
C394 C395 1.385 1_556 S
C394 C396 1.478 . S
C395 H389 0.930 . S
C395 C391 1.400 . S
C395 C394 1.385 1_554 S
C396 C394 1.478 . S
C396 C398 1.381 . S
C396 C402 1.383 1_556 S
C397 C393 1.495 . S
C397 H403 0.959 . S
C397 H404 0.961 . S
C397 H405 0.960 . S
C398 C396 1.381 . S
C398 C399 1.394 . S
C398 H406 0.930 . S
C399 C398 1.394 . S
C399 C400 1.383 1_556 S
C399 H407 0.929 . S
C400 C399 1.383 1_554 S
C400 C401 1.377 . S
C401 H385 0.930 . S
C401 C400 1.377 . S
C401 C402 1.379 . S
C402 H386 0.931 . S
C402 C396 1.383 1_554 S
C402 C401 1.379 . S
H403 C397 0.959 . S
H404 C397 0.961 . S
H405 C397 0.960 . S
H406 C398 0.930 . S
H407 C399 0.929 . S
H408 C416 0.929 . S
H409 C418 0.930 . S
H410 C420 0.930 . S
H411 C423 0.929 . S
H412 C426 0.930 . S
H413 C428 0.960 . S
H414 C428 0.960 . S
H415 C428 0.960 . S
C416 H408 0.929 . S
C416 C417 1.378 1_554 S
C416 C418 1.384 . S
C417 C416 1.378 1_556 S
C417 C423 1.390 . S
C418 H409 0.930 . S
C418 C416 1.384 . S
C418 C419 1.372 . S
C419 C418 1.372 . S
C419 C420 1.400 1_554 S
C419 C424 1.490 . S
C420 H410 0.930 . S
C420 C419 1.400 1_556 S
C420 C423 1.386 . S
H421 C437 0.930 . S
H422 C438 0.931 . S
C423 H411 0.929 . S
C423 C417 1.390 . S
C423 C420 1.386 . S
C424 C419 1.490 . S
C424 C426 1.395 . S
C424 C427 1.403 1_554 S
H425 C431 0.930 . S
C426 H412 0.930 . S
C426 C424 1.395 . S
C426 C429 1.403 . S
C427 C424 1.403 1_556 S
C427 C428 1.524 . S
C427 C431 1.400 . S
C428 H413 0.960 . S
C428 H414 0.960 . S
C428 H415 0.960 . S
C428 C427 1.524 . S
C429 C426 1.403 . S
C429 C430 1.392 . S
C429 C433 1.495 . S
C430 C429 1.392 . S
C430 C431 1.385 1_554 S
C430 C432 1.478 . S
C431 H425 0.930 . S
C431 C427 1.400 . S
C431 C430 1.385 1_556 S
C432 C430 1.478 . S
C432 C434 1.381 . S
C432 C438 1.383 . S
C433 C429 1.495 . S
C433 H439 0.959 . S
C433 H440 0.961 . S
C433 H441 0.960 . S
C434 C432 1.381 . S
C434 C435 1.394 . S
C434 H442 0.930 . S
C435 C434 1.394 . S
C435 C436 1.383 . S
C435 H443 0.929 . S
C436 C435 1.383 . S
C436 C437 1.377 . S
C437 H421 0.930 . S
C437 C436 1.377 . S
C437 C438 1.379 . S
C438 H422 0.931 . S
C438 C432 1.383 . S
C438 C437 1.379 . S
H439 C433 0.959 . S
H440 C433 0.961 . S
H441 C433 0.960 . S
H442 C434 0.930 . S
H443 C435 0.929 . S
C129 C9 1.451 . S
C148 C18 1.450 1_655 S
C165 C49 1.459 . S
C184 C58 1.448 . S
C201 C98 1.461 . S
C220 C89 1.475 . S
C237 C19 2.608 1_556 S
C256 C90 2.585 1_556 S
C273 C46 0.878 . S
C292 C6 0.863 . S
C309 C59 1.930 . S
C328 C86 1.885 1_556 S
C345 C10 2.606 1_554 S
C364 C99 2.584 1_554 S
C381 C15 0.880 . S
C400 C55 0.882 . S
C417 C95 1.904 . S
C436 C50 1.918 . S
