# Generated by pormake.
# Topology uoy, (4)-cn, num edge types: 1
# Building blocks:
#     Node 0, Type 0, BuildingBlock: QUQFOY_clean_sbu_3, # of connection points: 4
#     Node 1, Type 0, BuildingBlock: QUQFOY_clean_sbu_3, # of connection points: 4
#     Node 2, Type 0, BuildingBlock: QUQFOY_clean_sbu_3, # of connection points: 4
#     Node 3, Type 0, BuildingBlock: QUQFOY_clean_sbu_3, # of connection points: 4
#     Node 4, Type 0, BuildingBlock: QUQFOY_clean_sbu_3, # of connection points: 4
#     Node 5, Type 0, BuildingBlock: QUQFOY_clean_sbu_3, # of connection points: 4
#     Node 6, Type 0, BuildingBlock: QUQFOY_clean_sbu_3, # of connection points: 4
#     Node 7, Type 0, BuildingBlock: QUQFOY_clean_sbu_3, # of connection points: 4
#     Node 8, Type 0, BuildingBlock: QUQFOY_clean_sbu_3, # of connection points: 4
#     Node 9, Type 0, BuildingBlock: QUQFOY_clean_sbu_3, # of connection points: 4
#     Node 10, Type 0, BuildingBlock: QUQFOY_clean_sbu_3, # of connection points: 4
#     Node 11, Type 0, BuildingBlock: QUQFOY_clean_sbu_3, # of connection points: 4
#     Node 12, Type 0, BuildingBlock: QUQFOY_clean_sbu_3, # of connection points: 4
#     Node 13, Type 0, BuildingBlock: QUQFOY_clean_sbu_3, # of connection points: 4
#     Node 14, Type 0, BuildingBlock: QUQFOY_clean_sbu_3, # of connection points: 4
#     Node 15, Type 0, BuildingBlock: QUQFOY_clean_sbu_3, # of connection points: 4
#     Edge 16, Type (0, 0), BuildingBlock: XUDNAN_clean_linker_2, # of connection points: 2
#     Edge 17, Type (0, 0), BuildingBlock: XUDNAN_clean_linker_2, # of connection points: 2
#     Edge 18, Type (0, 0), BuildingBlock: XUDNAN_clean_linker_2, # of connection points: 2
#     Edge 19, Type (0, 0), BuildingBlock: XUDNAN_clean_linker_2, # of connection points: 2
#     Edge 20, Type (0, 0), BuildingBlock: XUDNAN_clean_linker_2, # of connection points: 2
#     Edge 21, Type (0, 0), BuildingBlock: XUDNAN_clean_linker_2, # of connection points: 2
#     Edge 22, Type (0, 0), BuildingBlock: XUDNAN_clean_linker_2, # of connection points: 2
#     Edge 23, Type (0, 0), BuildingBlock: XUDNAN_clean_linker_2, # of connection points: 2
#     Edge 24, Type (0, 0), BuildingBlock: XUDNAN_clean_linker_2, # of connection points: 2
#     Edge 25, Type (0, 0), BuildingBlock: XUDNAN_clean_linker_2, # of connection points: 2
#     Edge 26, Type (0, 0), BuildingBlock: XUDNAN_clean_linker_2, # of connection points: 2
#     Edge 27, Type (0, 0), BuildingBlock: XUDNAN_clean_linker_2, # of connection points: 2
#     Edge 28, Type (0, 0), BuildingBlock: XUDNAN_clean_linker_2, # of connection points: 2
#     Edge 29, Type (0, 0), BuildingBlock: XUDNAN_clean_linker_2, # of connection points: 2
#     Edge 30, Type (0, 0), BuildingBlock: XUDNAN_clean_linker_2, # of connection points: 2
#     Edge 31, Type (0, 0), BuildingBlock: XUDNAN_clean_linker_2, # of connection points: 2
#     Edge 32, Type (0, 0), BuildingBlock: XUDNAN_clean_linker_2, # of connection points: 2
#     Edge 33, Type (0, 0), BuildingBlock: XUDNAN_clean_linker_2, # of connection points: 2
#     Edge 34, Type (0, 0), BuildingBlock: XUDNAN_clean_linker_2, # of connection points: 2
#     Edge 35, Type (0, 0), BuildingBlock: XUDNAN_clean_linker_2, # of connection points: 2
#     Edge 36, Type (0, 0), BuildingBlock: XUDNAN_clean_linker_2, # of connection points: 2
#     Edge 37, Type (0, 0), BuildingBlock: XUDNAN_clean_linker_2, # of connection points: 2
#     Edge 38, Type (0, 0), BuildingBlock: XUDNAN_clean_linker_2, # of connection points: 2
#     Edge 39, Type (0, 0), BuildingBlock: XUDNAN_clean_linker_2, # of connection points: 2
#     Edge 40, Type (0, 0), BuildingBlock: XUDNAN_clean_linker_2, # of connection points: 2
#     Edge 41, Type (0, 0), BuildingBlock: XUDNAN_clean_linker_2, # of connection points: 2
#     Edge 42, Type (0, 0), BuildingBlock: XUDNAN_clean_linker_2, # of connection points: 2
#     Edge 43, Type (0, 0), BuildingBlock: XUDNAN_clean_linker_2, # of connection points: 2
#     Edge 44, Type (0, 0), BuildingBlock: XUDNAN_clean_linker_2, # of connection points: 2
#     Edge 45, Type (0, 0), BuildingBlock: XUDNAN_clean_linker_2, # of connection points: 2
#     Edge 46, Type (0, 0), BuildingBlock: XUDNAN_clean_linker_2, # of connection points: 2
#     Edge 47, Type (0, 0), BuildingBlock: XUDNAN_clean_linker_2, # of connection points: 2
# Relax obj value: 0.036
# Max RMSD: 0.062
# Mean RMSD: 0.062
data_MOF--net-uoy--node1-QUQFOY_clean_sbu_3--edge1-XUDNAN_clean_linker_2
_symmetry_space_group_name_H-M    P1
_symmetry_Int_Tables_number       1
_symmetry_cell_setting            triclinic
loop_
_symmetry_equiv_pos_as_xyz
'x, y, z'
_cell_length_a     28.451578
_cell_length_b     28.323166
_cell_length_c     111.65168
_cell_angle_alpha  89.942098
_cell_angle_beta   89.955057
_cell_angle_gamma 89.958163
loop_
_atom_site_label
_atom_site_type_symbol
_atom_site_fract_x
_atom_site_fract_y
_atom_site_fract_z
_atom_type_partial_charge
C0 C 0.27403 0.20047 0.18561 0.0
O1 O 0.29135 0.22548 0.17726 0.0
Cd2 Cd 0.305 0.19472 0.1577 0.0
O3 O 0.26075 0.15818 0.18365 0.0
Cd4 Cd 0.25176 0.09865 0.16765 0.0
C5 C 0.37128 0.09607 0.16559 0.0
O6 O 0.23297 0.15668 0.1529 0.0
O7 O 0.24321 0.08659 0.14587 0.0
O8 O 0.1727 0.08673 0.17517 0.0
C9 C 0.23241 0.12941 0.14395 0.0
O10 O 0.36786 0.13767 0.16131 0.0
C11 C 0.17536 0.04221 0.17617 0.0
O12 O 0.33479 0.07309 0.16881 0.0
O13 O 0.2146 0.02327 0.17353 0.0
C14 C 0.79253 0.74872 0.44651 0.0
O15 O 0.76069 0.77249 0.44127 0.0
Cd16 Cd 0.76883 0.79566 0.4208 0.0
O17 O 0.82835 0.73389 0.44078 0.0
Cd18 Cd 0.86663 0.7274 0.42103 0.0
C19 C 0.88136 0.84573 0.42341 0.0
O20 O 0.79288 0.72532 0.41121 0.0
O21 O 0.85186 0.72836 0.39913 0.0
O22 O 0.86797 0.64802 0.42816 0.0
C23 C 0.8076 0.72683 0.40053 0.0
O24 O 0.83677 0.84763 0.42235 0.0
C25 C 0.90957 0.63786 0.42503 0.0
O26 O 0.9031 0.80623 0.42335 0.0
O27 O 0.93322 0.67039 0.41993 0.0
C28 C 0.22661 0.29335 0.69369 0.0
O29 O 0.20298 0.26167 0.68837 0.0
Cd30 Cd 0.18495 0.26632 0.66748 0.0
O31 O 0.24298 0.32864 0.68798 0.0
Cd32 Cd 0.25057 0.36346 0.66783 0.0
C33 C 0.13228 0.3781 0.66713 0.0
O34 O 0.25629 0.28817 0.65813 0.0
O35 O 0.25042 0.34767 0.64616 0.0
O36 O 0.3309 0.36373 0.67384 0.0
C37 C 0.25513 0.30341 0.64749 0.0
O38 O 0.132 0.33322 0.66636 0.0
C39 C 0.34095 0.40564 0.67083 0.0
O40 O 0.17095 0.40063 0.66835 0.0
O41 O 0.30754 0.43071 0.66663 0.0
C42 C 0.66987 0.70809 0.94487 0.0
O43 O 0.70462 0.68865 0.9397 0.0
Cd44 Cd 0.70772 0.68374 0.91825 0.0
O45 O 0.63629 0.72549 0.93877 0.0
Cd46 Cd 0.60789 0.73936 0.9183 0.0
C47 C 0.60447 0.62175 0.91309 0.0
O48 O 0.68612 0.76042 0.91107 0.0
O49 O 0.63123 0.75437 0.89782 0.0
O50 O 0.57941 0.80736 0.92935 0.0
C51 C 0.67357 0.76437 0.90022 0.0
O52 O 0.64918 0.62429 0.91315 0.0
C53 C 0.5454 0.81671 0.92243 0.0
O54 O 0.57935 0.65805 0.91533 0.0
O55 O 0.53885 0.78911 0.91363 0.0
C56 C 0.2929 0.30482 0.02859 0.0
O57 O 0.31437 0.28083 0.0365 0.0
Cd58 Cd 0.31013 0.2902 0.05744 0.0
O59 O 0.26468 0.33799 0.03153 0.0
Cd60 Cd 0.23453 0.37432 0.05051 0.0
C61 C 0.34708 0.40572 0.05876 0.0
O62 O 0.22771 0.29944 0.05989 0.0
O63 O 0.2167 0.3574 0.07198 0.0
O64 O 0.15228 0.37995 0.04403 0.0
C65 C 0.21614 0.31312 0.07022 0.0
O66 O 0.3557 0.36214 0.06047 0.0
C67 C 0.15016 0.42465 0.04429 0.0
O68 O 0.30672 0.41943 0.05516 0.0
O69 O 0.18756 0.4464 0.04713 0.0
C70 C 0.68501 0.75856 0.2785 0.0
O71 O 0.71472 0.78192 0.28455 0.0
Cd72 Cd 0.6968 0.80887 0.3045 0.0
O73 O 0.64518 0.7481 0.28293 0.0
Cd74 Cd 0.59872 0.75599 0.3013 0.0
C75 C 0.59803 0.87572 0.29896 0.0
O76 O 0.66201 0.74561 0.3158 0.0
O77 O 0.59432 0.76813 0.32263 0.0
O78 O 0.58037 0.67297 0.29925 0.0
C79 C 0.63617 0.75523 0.32476 0.0
O80 O 0.64129 0.87341 0.30183 0.0
C81 C 0.53612 0.67781 0.29878 0.0
O82 O 0.57379 0.83822 0.29755 0.0
O83 O 0.52022 0.71976 0.29936 0.0
C84 C 0.24079 0.21078 0.52628 0.0
O85 O 0.222 0.23784 0.53397 0.0
Cd86 Cd 0.19831 0.20954 0.55327 0.0
O87 O 0.25076 0.1682 0.52893 0.0
Cd88 Cd 0.2507 0.11248 0.5459 0.0
C89 C 0.13159 0.11224 0.54526 0.0
O90 O 0.2641 0.16921 0.56172 0.0
O91 O 0.24497 0.09882 0.56739 0.0
O92 O 0.33245 0.09767 0.54142 0.0
C93 C 0.25686 0.14046 0.57024 0.0
O94 O 0.13445 0.15443 0.54914 0.0
C95 C 0.32889 0.05327 0.54031 0.0
O96 O 0.16846 0.08822 0.54295 0.0
O97 O 0.28801 0.03569 0.54151 0.0
C98 C 0.78564 0.71969 0.78336 0.0
O99 O 0.76698 0.69749 0.79202 0.0
Cd100 Cd 0.80301 0.69835 0.81136 0.0
O101 O 0.82152 0.74572 0.78506 0.0
Cd102 Cd 0.87418 0.77633 0.80073 0.0
C103 C 0.91572 0.66503 0.80313 0.0
O104 O 0.81647 0.77932 0.81644 0.0
O105 O 0.88838 0.78711 0.82224 0.0
O106 O 0.85982 0.85351 0.79208 0.0
C107 C 0.84505 0.78719 0.8249 0.0
O108 O 0.87625 0.65523 0.80792 0.0
C109 C 0.90263 0.86569 0.79141 0.0
O110 O 0.92464 0.70659 0.79937 0.0
O111 O 0.93298 0.83547 0.79479 0.0
C112 C 0.76209 0.67412 0.69716 0.0
O113 O 0.79331 0.6995 0.69218 0.0
Cd114 Cd 0.81327 0.69627 0.67136 0.0
O115 O 0.73906 0.64379 0.69115 0.0
Cd116 Cd 0.73481 0.61499 0.67035 0.0
C117 C 0.85165 0.58279 0.66914 0.0
O118 O 0.73797 0.6931 0.66163 0.0
O119 O 0.73778 0.63521 0.64906 0.0
O120 O 0.6496 0.60263 0.6723 0.0
C121 C 0.73655 0.67941 0.65085 0.0
O122 O 0.86296 0.62624 0.6688 0.0
C123 C 0.65154 0.55843 0.6705 0.0
O124 O 0.80873 0.57057 0.67013 0.0
O125 O 0.69192 0.54088 0.66857 0.0
C126 C 0.31914 0.276 0.94127 0.0
O127 O 0.29051 0.3034 0.93598 0.0
Cd128 Cd 0.29138 0.30842 0.91455 0.0
O129 O 0.34684 0.24979 0.93527 0.0
Cd130 Cd 0.37042 0.225 0.91512 0.0
C131 C 0.4089 0.33679 0.91042 0.0
O132 O 0.29024 0.22796 0.90779 0.0
O133 O 0.3444 0.21557 0.89459 0.0
O134 O 0.37548 0.15123 0.9261 0.0
C135 C 0.30102 0.21923 0.897 0.0
O136 O 0.3657 0.3487 0.91043 0.0
C137 C 0.40936 0.13406 0.92015 0.0
O138 O 0.42111 0.29402 0.91222 0.0
O139 O 0.42628 0.15951 0.91181 0.0
C140 C 0.72309 0.78065 0.19257 0.0
O141 O 0.69909 0.76127 0.18435 0.0
Cd142 Cd 0.69518 0.79253 0.16447 0.0
O143 O 0.74839 0.81669 0.19032 0.0
Cd144 Cd 0.77304 0.86696 0.17333 0.0
C145 C 0.66077 0.9071 0.17059 0.0
O146 O 0.7748 0.80479 0.15834 0.0
O147 O 0.78192 0.8762 0.15177 0.0
O148 O 0.85205 0.85658 0.18106 0.0
C149 C 0.78233 0.8323 0.14959 0.0
O150 O 0.6512 0.86621 0.16653 0.0
C151 C 0.86364 0.89979 0.18072 0.0
O152 O 0.70221 0.91714 0.17414 0.0
O153 O 0.83214 0.92884 0.17738 0.0
C154 C 0.20597 0.22448 0.4413 0.0
O155 O 0.22405 0.19072 0.43541 0.0
Cd156 Cd 0.19336 0.16626 0.41623 0.0
O157 O 0.16935 0.2454 0.4375 0.0
Cd158 Cd 0.11412 0.24185 0.42076 0.0
C159 C 0.0856 0.12518 0.42409 0.0
O160 O 0.17278 0.23624 0.40501 0.0
O161 O 0.10008 0.22889 0.39962 0.0
O162 O 0.10361 0.32765 0.42136 0.0
C163 C 0.14292 0.23236 0.39663 0.0
O164 O 0.12593 0.11476 0.41991 0.0
C165 C 0.06032 0.32598 0.42408 0.0
O166 O 0.07429 0.16808 0.42596 0.0
O167 O 0.04215 0.28526 0.42518 0.0
C168 C 0.78063 0.78837 0.53256 0.0
O169 O 0.80696 0.77157 0.54069 0.0
Cd170 Cd 0.81449 0.80994 0.55961 0.0
O171 O 0.7554 0.82471 0.53455 0.0
Cd172 Cd 0.73286 0.88064 0.55047 0.0
C173 C 0.84449 0.92217 0.5499 0.0
O174 O 0.73583 0.82327 0.56634 0.0
O175 O 0.72939 0.89556 0.57216 0.0
O176 O 0.65323 0.86661 0.54358 0.0
C177 C 0.73065 0.8521 0.57489 0.0
O178 O 0.85592 0.8831 0.55476 0.0
C179 C 0.64103 0.90965 0.54312 0.0
O180 O 0.80194 0.93065 0.54702 0.0
O181 O 0.67216 0.94002 0.54583 0.0
C182 C 0.2008 0.27453 0.7803 0.0
O183 O 0.2264 0.28975 0.78877 0.0
Cd184 Cd 0.19548 0.30193 0.80843 0.0
O185 O 0.15834 0.26243 0.78223 0.0
Cd186 Cd 0.09943 0.25341 0.79827 0.0
C187 C 0.10005 0.37243 0.80095 0.0
O188 O 0.15381 0.23184 0.8137 0.0
O189 O 0.08379 0.24846 0.81984 0.0
O190 O 0.08685 0.1746 0.79082 0.0
C191 C 0.12503 0.23456 0.82234 0.0
O192 O 0.14112 0.3674 0.80531 0.0
C193 C 0.04261 0.17782 0.78974 0.0
O194 O 0.07637 0.33693 0.79735 0.0
O195 O 0.02409 0.21752 0.79225 0.0
C196 C 0.69986 0.68839 0.03225 0.0
O197 O 0.68662 0.7178 0.04014 0.0
Cd198 Cd 0.69363 0.70494 0.06103 0.0
O199 O 0.72084 0.65025 0.0352 0.0
Cd200 Cd 0.75127 0.60825 0.05328 0.0
C201 C 0.6367 0.59543 0.06123 0.0
O202 O 0.77199 0.67956 0.0634 0.0
O203 O 0.77114 0.6184 0.07481 0.0
O204 O 0.82205 0.60409 0.04145 0.0
C205 C 0.77987 0.66208 0.07361 0.0
O206 O 0.63952 0.63939 0.06354 0.0
C207 C 0.83431 0.56259 0.04434 0.0
O208 O 0.67193 0.57312 0.05689 0.0
O209 O 0.80593 0.53969 0.051 0.0
C210 C 0.29046 0.23543 0.27188 0.0
O211 O 0.26741 0.20302 0.27711 0.0
Cd212 Cd 0.27872 0.18331 0.29771 0.0
O213 O 0.32053 0.25994 0.27758 0.0
Cd214 Cd 0.35345 0.27032 0.29777 0.0
C215 C 0.3976 0.15848 0.29704 0.0
O216 O 0.27991 0.25725 0.30788 0.0
O217 O 0.3405 0.26168 0.31942 0.0
O218 O 0.3438 0.3538 0.29388 0.0
C219 C 0.29628 0.25764 0.31841 0.0
O220 O 0.35522 0.14466 0.29814 0.0
C221 C 0.3855 0.36586 0.29644 0.0
O222 O 0.40732 0.20235 0.29618 0.0
O223 O 0.4135 0.33302 0.29956 0.0
H224 H 0.21145 0.32991 0.09444 0.0
H225 H 0.20833 0.21796 0.06791 0.0
H226 H 0.20602 0.15851 0.084 0.0
H227 H 0.28774 0.27366 0.11423 0.0
H228 H 0.25958 0.2942 0.12772 0.0
H229 H 0.25544 0.32845 0.11419 0.0
H230 H 0.16449 0.32657 0.11555 0.0
H231 H 0.16836 0.29251 0.12915 0.0
H232 H 0.13467 0.2706 0.11668 0.0
H233 H 0.21204 0.1111 0.10274 0.0
H234 H 0.22364 0.07906 0.12314 0.0
H235 H 0.22216 0.2216 0.13742 0.0
C236 C 0.2093 0.29294 0.09203 0.0
C237 C 0.21006 0.27852 0.07995 0.0
C238 C 0.20785 0.22978 0.07713 0.0
C239 C 0.20638 0.19571 0.08619 0.0
C240 C 0.20684 0.21097 0.09802 0.0
C241 C 0.20788 0.25839 0.10098 0.0
C242 C 0.21107 0.26515 0.11439 0.0
C243 C 0.25614 0.29193 0.11783 0.0
C244 C 0.16701 0.29018 0.11922 0.0
C245 C 0.21296 0.21419 0.11844 0.0
C246 C 0.2101 0.18347 0.10888 0.0
C247 C 0.21366 0.13472 0.11034 0.0
C248 C 0.22043 0.11687 0.12192 0.0
C249 C 0.22361 0.14783 0.13182 0.0
C250 C 0.21939 0.19702 0.13003 0.0
H251 H 0.82763 0.72505 0.37645 0.0
H252 H 0.71277 0.73818 0.40189 0.0
H253 H 0.65676 0.74657 0.38522 0.0
H254 H 0.7843 0.80921 0.3551 0.0
H255 H 0.80312 0.77592 0.3422 0.0
H256 H 0.83458 0.77064 0.35613 0.0
H257 H 0.82223 0.67999 0.35584 0.0
H258 H 0.79078 0.68498 0.3419 0.0
H259 H 0.76353 0.65659 0.35458 0.0
H260 H 0.61352 0.75537 0.36607 0.0
H261 H 0.58482 0.76153 0.3453 0.0
H262 H 0.72707 0.74094 0.33214 0.0
C263 C 0.7907 0.72965 0.3785 0.0
C264 C 0.77452 0.73104 0.39045 0.0
C265 C 0.72592 0.73694 0.39279 0.0
C266 C 0.69382 0.7418 0.38339 0.0
C267 C 0.71086 0.74042 0.37172 0.0
C268 C 0.75804 0.73427 0.36921 0.0
C269 C 0.76687 0.73382 0.35583 0.0
C270 C 0.79912 0.77485 0.3521 0.0
C271 C 0.78704 0.68599 0.35181 0.0
C272 C 0.71729 0.74091 0.35126 0.0
C273 C 0.68562 0.74476 0.36059 0.0
C274 C 0.63787 0.75222 0.35866 0.0
C275 C 0.62197 0.75576 0.34685 0.0
C276 C 0.65372 0.7516 0.33713 0.0
C277 C 0.70197 0.74401 0.33939 0.0
H278 H 0.26333 0.23074 0.57866 0.0
H279 H 0.25338 0.08462 0.59018 0.0
H280 H 0.25373 0.1105 0.6113 0.0
H281 H 0.33967 0.27124 0.60243 0.0
H282 H 0.31068 0.32761 0.60374 0.0
H283 H 0.31162 0.29736 0.58955 0.0
H284 H 0.22066 0.30127 0.58862 0.0
H285 H 0.21942 0.33141 0.60281 0.0
H286 H 0.18653 0.27761 0.60084 0.0
H287 H 0.25405 0.15222 0.63104 0.0
H288 H 0.25269 0.20714 0.64818 0.0
H289 H 0.26049 0.32607 0.62368 0.0
C290 C 0.26165 0.20415 0.58563 0.0
C291 C 0.25853 0.15569 0.58283 0.0
C292 C 0.25582 0.12196 0.59217 0.0
C293 C 0.25607 0.13629 0.60417 0.0
C294 C 0.25884 0.1844 0.60663 0.0
C295 C 0.26149 0.21783 0.59763 0.0
C296 C 0.26265 0.26738 0.60267 0.0
C297 C 0.30892 0.29235 0.5994 0.0
C298 C 0.21976 0.29609 0.59849 0.0
C299 C 0.26009 0.25658 0.61591 0.0
C300 C 0.25819 0.20852 0.618 0.0
C301 C 0.25557 0.18994 0.62953 0.0
C302 C 0.25483 0.2214 0.63919 0.0
C303 C 0.25642 0.27081 0.63723 0.0
C304 C 0.25912 0.28848 0.62544 0.0
H305 H 0.75445 0.78619 0.83268 0.0
H306 H 0.89841 0.79658 0.84524 0.0
H307 H 0.86985 0.79811 0.86618 0.0
H308 H 0.70142 0.86176 0.85562 0.0
H309 H 0.64936 0.8257 0.85657 0.0
H310 H 0.68123 0.82981 0.84265 0.0
H311 H 0.68918 0.7386 0.84209 0.0
H312 H 0.6575 0.73421 0.85599 0.0
H313 H 0.71514 0.70828 0.85466 0.0
H314 H 0.82527 0.79226 0.88577 0.0
H315 H 0.76856 0.77943 0.90228 0.0
H316 H 0.65481 0.77324 0.87644 0.0
C317 C 0.78002 0.78945 0.83981 0.0
C318 C 0.8286 0.7913 0.83736 0.0
C319 C 0.86095 0.79523 0.84694 0.0
C320 C 0.84508 0.79621 0.85885 0.0
C321 C 0.79685 0.79358 0.86094 0.0
C322 C 0.76485 0.79052 0.85167 0.0
C323 C 0.71515 0.78554 0.85624 0.0
C324 C 0.68503 0.82826 0.85255 0.0
C325 C 0.69297 0.73889 0.852 0.0
C326 C 0.72417 0.78512 0.86955 0.0
C327 C 0.77139 0.79023 0.87213 0.0
C328 C 0.78816 0.78875 0.88386 0.0
C329 C 0.75575 0.78141 0.89316 0.0
C330 C 0.70736 0.7754 0.89062 0.0
C331 C 0.69155 0.77793 0.87867 0.0
H332 H 0.73341 0.76105 0.58274 0.0
H333 H 0.72591 0.90594 0.59527 0.0
H334 H 0.72603 0.87744 0.61622 0.0
H335 H 0.65779 0.71095 0.60524 0.0
H336 H 0.69145 0.65721 0.60644 0.0
H337 H 0.69019 0.68925 0.5925 0.0
H338 H 0.78123 0.69362 0.59257 0.0
H339 H 0.78277 0.66168 0.60651 0.0
H340 H 0.811 0.71845 0.60534 0.0
H341 H 0.72848 0.83286 0.63573 0.0
H342 H 0.73179 0.77561 0.65241 0.0
H343 H 0.73718 0.66029 0.62685 0.0
C344 C 0.73166 0.78686 0.58987 0.0
C345 C 0.72969 0.83569 0.58741 0.0
C346 C 0.72743 0.86833 0.59699 0.0
C347 C 0.7275 0.8525 0.60889 0.0
C348 C 0.72971 0.80403 0.611 0.0
C349 C 0.73162 0.77173 0.60175 0.0
C350 C 0.73404 0.72161 0.60638 0.0
C351 C 0.69078 0.69309 0.6024 0.0
C352 C 0.78 0.69744 0.60247 0.0
C353 C 0.7334 0.7307 0.6197 0.0
C354 C 0.7309 0.77843 0.6222 0.0
C355 C 0.73031 0.7954 0.63389 0.0
C356 C 0.73225 0.76262 0.64329 0.0
C357 C 0.7347 0.71355 0.6409 0.0
C358 C 0.73525 0.69756 0.62895 0.0
H359 H 0.31546 0.2024 0.87327 0.0
H360 H 0.20592 0.23189 0.89931 0.0
H361 H 0.14691 0.2328 0.88306 0.0
H362 H 0.27402 0.27795 0.85097 0.0
H363 H 0.28978 0.2399 0.83868 0.0
H364 H 0.32226 0.23705 0.85247 0.0
H365 H 0.30491 0.14737 0.85406 0.0
H366 H 0.27239 0.14993 0.84024 0.0
H367 H 0.24494 0.12698 0.85358 0.0
H368 H 0.10121 0.23656 0.86373 0.0
H369 H 0.07266 0.24307 0.84286 0.0
H370 H 0.21287 0.21082 0.82985 0.0
C371 C 0.27898 0.20843 0.8756 0.0
C372 C 0.26517 0.21703 0.88752 0.0
C373 C 0.21716 0.2251 0.8902 0.0
C374 C 0.18342 0.22558 0.88105 0.0
C375 C 0.19838 0.2176 0.86934 0.0
C376 C 0.24501 0.20898 0.86662 0.0
C377 C 0.25258 0.20406 0.85329 0.0
C378 C 0.28665 0.24201 0.84858 0.0
C379 C 0.26971 0.15411 0.85011 0.0
C380 C 0.20311 0.21243 0.8489 0.0
C381 C 0.17219 0.21974 0.85826 0.0
C382 C 0.12498 0.23038 0.85632 0.0
C383 C 0.10912 0.23408 0.84446 0.0
C384 C 0.14058 0.22739 0.83477 0.0
C385 C 0.18792 0.21583 0.83707 0.0
H386 H 0.77446 0.64041 0.09756 0.0
H387 H 0.80682 0.75408 0.07278 0.0
H388 H 0.81623 0.8089 0.08973 0.0
H389 H 0.70518 0.70768 0.11696 0.0
H390 H 0.72476 0.67935 0.13054 0.0
H391 H 0.7257 0.64745 0.11661 0.0
H392 H 0.81453 0.63023 0.11936 0.0
H393 H 0.8138 0.66182 0.13336 0.0
H394 H 0.85463 0.67856 0.12176 0.0
H395 H 0.81519 0.85284 0.109 0.0
H396 H 0.80575 0.88282 0.12961 0.0
H397 H 0.774 0.7409 0.14193 0.0
C398 C 0.78449 0.67659 0.09573 0.0
C399 C 0.79003 0.69303 0.08388 0.0
C400 C 0.80241 0.74078 0.08181 0.0
C401 C 0.80795 0.77217 0.09137 0.0
C402 C 0.80113 0.75519 0.10293 0.0
C403 C 0.78997 0.7085 0.10518 0.0
C404 C 0.78174 0.70011 0.11841 0.0
C405 C 0.73135 0.68263 0.12076 0.0
C406 C 0.81837 0.66564 0.12352 0.0
C407 C 0.789 0.74957 0.12318 0.0
C408 C 0.80048 0.78071 0.11411 0.0
C409 C 0.80677 0.82875 0.11621 0.0
C410 C 0.80116 0.84545 0.12793 0.0
C411 C 0.78929 0.81416 0.13735 0.0
C412 C 0.78347 0.76559 0.13492 0.0
H413 H 0.23192 0.24183 0.38768 0.0
H414 H 0.08635 0.22345 0.37699 0.0
H415 H 0.11023 0.22606 0.35574 0.0
H416 H 0.26271 0.32367 0.36485 0.0
H417 H 0.32108 0.30038 0.36271 0.0
H418 H 0.29284 0.29514 0.37708 0.0
H419 H 0.30499 0.20444 0.37661 0.0
H420 H 0.3334 0.20939 0.36224 0.0
H421 H 0.28338 0.17101 0.36403 0.0
H422 H 0.14936 0.23304 0.3358 0.0
H423 H 0.20145 0.24337 0.31832 0.0
H424 H 0.32145 0.25728 0.34208 0.0
C425 C 0.20509 0.23804 0.38088 0.0
C426 C 0.15731 0.2324 0.38396 0.0
C427 C 0.12319 0.22777 0.37481 0.0
C428 C 0.13638 0.22918 0.36273 0.0
C429 C 0.18376 0.23514 0.36 0.0
C430 C 0.21761 0.23939 0.3688 0.0
C431 C 0.26598 0.24646 0.36346 0.0
C432 C 0.28686 0.29426 0.36725 0.0
C433 C 0.29887 0.20537 0.36678 0.0
C434 C 0.25395 0.24592 0.35027 0.0
C435 C 0.20637 0.23921 0.34848 0.0
C436 C 0.18672 0.23814 0.33707 0.0
C437 C 0.21657 0.2441 0.32722 0.0
C438 C 0.26544 0.25109 0.32887 0.0
C439 C 0.28425 0.25188 0.34055 0.0
H440 H 0.23685 0.15748 0.20537 0.0
H441 H 0.30654 0.2859 0.19366 0.0
H442 H 0.31004 0.31329 0.21461 0.0
H443 H 0.16897 0.21146 0.23039 0.0
H444 H 0.17683 0.16001 0.2397 0.0
H445 H 0.17368 0.15383 0.22365 0.0
H446 H 0.25391 0.11038 0.22373 0.0
H447 H 0.25747 0.11665 0.23972 0.0
H448 H 0.30427 0.1387 0.23037 0.0
H449 H 0.31566 0.32152 0.23683 0.0
H450 H 0.32082 0.31111 0.25874 0.0
H451 H 0.24637 0.17785 0.25581 0.0
C452 C 0.25194 0.19185 0.20716 0.0
C453 C 0.27144 0.21954 0.19788 0.0
C454 C 0.29124 0.26412 0.20062 0.0
C455 C 0.29328 0.28005 0.21248 0.0
C456 C 0.27488 0.25123 0.22145 0.0
C457 C 0.25414 0.20829 0.21891 0.0
C458 C 0.24042 0.18227 0.23021 0.0
C459 C 0.18678 0.17658 0.23104 0.0
C460 C 0.26554 0.13419 0.23105 0.0
C461 C 0.2584 0.21643 0.23952 0.0
C462 C 0.27767 0.25624 0.2343 0.0
C463 C 0.29988 0.29097 0.24105 0.0
C464 C 0.30285 0.28461 0.25347 0.0
C465 C 0.28378 0.24377 0.25896 0.0
C466 C 0.26061 0.20977 0.25189 0.0
H467 H 0.73585 0.79313 0.46276 0.0
H468 H 0.84325 0.6849 0.45958 0.0
H469 H 0.8441 0.67575 0.48155 0.0
H470 H 0.7845 0.84922 0.48694 0.0
H471 H 0.72984 0.86392 0.49421 0.0
H472 H 0.73158 0.85627 0.47824 0.0
H473 H 0.66629 0.79267 0.47966 0.0
H474 H 0.66421 0.8003 0.49568 0.0
H475 H 0.67427 0.74254 0.48941 0.0
H476 H 0.84047 0.68522 0.50374 0.0
H477 H 0.8337 0.71384 0.52454 0.0
H478 H 0.72936 0.81647 0.51314 0.0
C479 C 0.75859 0.76657 0.46666 0.0
C480 C 0.78929 0.73958 0.45948 0.0
C481 C 0.81937 0.70595 0.46493 0.0
C482 C 0.81992 0.70028 0.47739 0.0
C483 C 0.79007 0.72837 0.48424 0.0
C484 C 0.75982 0.76073 0.47907 0.0
C485 C 0.73501 0.79007 0.48845 0.0
C486 C 0.74592 0.84297 0.48686 0.0
C487 C 0.68178 0.78082 0.48829 0.0
C488 C 0.7574 0.7704 0.49967 0.0
C489 C 0.78841 0.73427 0.49708 0.0
C490 C 0.81571 0.71294 0.50592 0.0
C491 C 0.81171 0.72953 0.5177 0.0
C492 C 0.78099 0.76738 0.52047 0.0
C493 C 0.75289 0.78725 0.51134 0.0
H494 H 0.17588 0.24329 0.71016 0.0
H495 H 0.29661 0.33576 0.70647 0.0
H496 H 0.3091 0.33267 0.72834 0.0
H497 H 0.13143 0.29684 0.73575 0.0
H498 H 0.11045 0.24319 0.74261 0.0
H499 H 0.11513 0.24711 0.72658 0.0
H500 H 0.1683 0.17271 0.72638 0.0
H501 H 0.16382 0.16864 0.74245 0.0
H502 H 0.22078 0.17151 0.73541 0.0
H503 H 0.30491 0.32449 0.75061 0.0
H504 H 0.28072 0.31681 0.77176 0.0
H505 H 0.16115 0.23197 0.76084 0.0
C506 C 0.20553 0.26205 0.71393 0.0
C507 C 0.23548 0.28947 0.70665 0.0
C508 C 0.27325 0.31451 0.71192 0.0
C509 C 0.28084 0.31269 0.7243 0.0
C510 C 0.25027 0.28581 0.73126 0.0
C511 C 0.21323 0.26112 0.72628 0.0
C512 C 0.18269 0.23887 0.73582 0.0
C513 C 0.13195 0.25765 0.73515 0.0
C514 C 0.184 0.18471 0.73496 0.0
C515 C 0.20755 0.25607 0.74695 0.0
C516 C 0.24701 0.28225 0.74414 0.0
C517 C 0.27436 0.30366 0.75294 0.0
C518 C 0.26037 0.29907 0.76492 0.0
C519 C 0.21902 0.27388 0.76793 0.0
C520 C 0.19298 0.25136 0.75882 0.0
H521 H 0.73838 0.64582 0.01242 0.0
H522 H 0.63859 0.75371 0.02336 0.0
H523 H 0.62043 0.77012 0.00219 0.0
H524 H 0.78281 0.70882 -0.01333 0.0
H525 H 0.78924 0.65647 0.97764 0.0
H526 H 0.79428 0.65266 -0.0063 0.0
H527 H 0.72888 0.58903 -0.00587 0.0
H528 H 0.72359 0.59267 0.97809 0.0
H529 H 0.67266 0.60174 -0.01258 0.0
H530 H 0.61114 0.77342 0.98011 0.0
H531 H 0.6141 0.76626 0.95814 0.0
H532 H 0.722 0.65836 0.96134 0.0
C533 C 0.71268 0.67285 0.01036 0.0
C534 C 0.68982 0.69841 0.01954 0.0
C535 C 0.65667 0.73377 0.01648 0.0
C536 C 0.646 0.7433 0.00449 0.0
C537 C 0.66907 0.71745 -0.00432 0.0
C538 C 0.70195 0.68321 -0.00157 0.0
C539 C 0.72212 0.66112 -0.01281 0.0
C540 C 0.77527 0.67034 -0.01375 0.0
C541 C 0.71114 0.60799 -0.01332 0.0
C542 C 0.69516 0.68815 0.97772 0.0
C543 C 0.66458 0.72025 0.98283 0.0
C544 C 0.63509 0.74861 0.97597 0.0
C545 C 0.63697 0.74415 0.96351 0.0
C546 C 0.66839 0.71185 0.95804 0.0
C547 C 0.69791 0.68361 0.96527 0.0
H548 H 0.25451 0.34735 0.0086 0.0
H549 H 0.3514 0.237 0.01978 0.0
H550 H 0.36762 0.21809 -0.00126 0.0
H551 H 0.20696 0.28467 0.98315 0.0
H552 H 0.20276 0.33656 0.97386 0.0
H553 H 0.19808 0.34181 -0.01011 0.0
H554 H 0.26625 0.40244 -0.01008 0.0
H555 H 0.27118 0.39735 0.97389 0.0
H556 H 0.32177 0.38671 0.98322 0.0
H557 H 0.37464 0.21114 0.97687 0.0
H558 H 0.3715 0.21599 0.95492 0.0
H559 H 0.26993 0.33035 0.95747 0.0
C560 C 0.27904 0.31917 0.00662 0.0
C561 C 0.30164 0.29371 0.01587 0.0
C562 C 0.33358 0.25708 0.01289 0.0
C563 C 0.3431 0.24598 0.00095 0.0
C564 C 0.3204 0.27174 -0.00792 0.0
C565 C 0.28901 0.3075 -0.00529 0.0
C566 C 0.26971 0.32962 0.98336 0.0
C567 C 0.2162 0.32273 0.98252 0.0
C568 C 0.28304 0.38214 0.98256 0.0
C569 C 0.29535 0.30066 0.97401 0.0
C570 C 0.32438 0.26755 0.97928 0.0
C571 C 0.35201 0.23684 0.9726 0.0
C572 C 0.34998 0.23996 0.96012 0.0
C573 C 0.32045 0.27356 0.95446 0.0
C574 C 0.29275 0.30424 0.96153 0.0
H575 H 0.74572 0.80213 0.26304 0.0
H576 H 0.64438 0.68814 0.26551 0.0
H577 H 0.65176 0.67426 0.24379 0.0
H578 H 0.70168 0.85001 0.23732 0.0
H579 H 0.75718 0.86701 0.23083 0.0
H580 H 0.75148 0.86212 0.24681 0.0
H581 H 0.82084 0.80278 0.24741 0.0
H582 H 0.82704 0.80779 0.23139 0.0
H583 H 0.81893 0.75062 0.23818 0.0
H584 H 0.66142 0.67983 0.2217 0.0
H585 H 0.67231 0.70489 0.20073 0.0
H586 H 0.76615 0.81642 0.21253 0.0
C587 C 0.72637 0.77321 0.25907 0.0
C588 C 0.69482 0.74593 0.26594 0.0
C589 C 0.6689 0.70933 0.26039 0.0
C590 C 0.67301 0.70102 0.24808 0.0
C591 C 0.70322 0.7296 0.24146 0.0
C592 C 0.72967 0.76481 0.24675 0.0
C593 C 0.75516 0.7941 0.23745 0.0
C594 C 0.74046 0.84638 0.23815 0.0
C595 C 0.80867 0.78846 0.23868 0.0
C596 C 0.73738 0.77106 0.2261 0.0
C597 C 0.70818 0.73338 0.22861 0.0
C598 C 0.68487 0.70875 0.21961 0.0
C599 C 0.69114 0.72338 0.20772 0.0
C600 C 0.72013 0.76258 0.20498 0.0
C601 C 0.74411 0.78605 0.21431 0.0
H602 H 0.25404 0.16799 0.45687 0.0
H603 H 0.19675 0.30895 0.45272 0.0
H604 H 0.21434 0.32592 0.47389 0.0
H605 H 0.20212 0.14527 0.48315 0.0
H606 H 0.24913 0.11178 0.48987 0.0
H607 H 0.24398 0.11448 0.47387 0.0
H608 H 0.32914 0.14626 0.47223 0.0
H609 H 0.33476 0.14327 0.4883 0.0
H610 H 0.34589 0.19804 0.48057 0.0
H611 H 0.22355 0.32263 0.49592 0.0
H612 H 0.22292 0.299 0.51718 0.0
H613 H 0.27298 0.15959 0.50722 0.0
C614 C 0.24712 0.20306 0.46031 0.0
C615 C 0.2245 0.23732 0.45317 0.0
C616 C 0.21433 0.2823 0.45805 0.0
C617 C 0.22445 0.29236 0.47005 0.0
C618 C 0.24485 0.25709 0.47702 0.0
C619 C 0.25645 0.21341 0.47232 0.0
C620 C 0.2713 0.17937 0.48206 0.0
C621 C 0.23973 0.13516 0.48225 0.0
C622 C 0.32338 0.16596 0.48071 0.0
C623 C 0.26352 0.20983 0.49301 0.0
C624 C 0.24945 0.2549 0.4899 0.0
C625 C 0.2356 0.28782 0.49848 0.0
C626 C 0.23514 0.27399 0.51054 0.0
C627 C 0.24794 0.22747 0.51387 0.0
C628 C 0.26355 0.19559 0.50499 0.0
H629 H 0.80686 0.73292 0.71284 0.0
H630 H 0.69737 0.62644 0.71083 0.0
H631 H 0.6856 0.63236 0.73269 0.0
H632 H 0.858 0.69224 0.73918 0.0
H633 H 0.87168 0.74998 0.74499 0.0
H634 H 0.86774 0.74098 0.72908 0.0
H635 H 0.80528 0.80748 0.7276 0.0
H636 H 0.80901 0.81665 0.74355 0.0
H637 H 0.753 0.80427 0.7367 0.0
H638 H 0.69065 0.64512 0.75498 0.0
H639 H 0.71337 0.66251 0.77587 0.0
H640 H 0.81909 0.76073 0.76295 0.0
C641 C 0.77989 0.7113 0.71694 0.0
C642 C 0.75301 0.67927 0.71012 0.0
C643 C 0.71838 0.65131 0.71588 0.0
C644 C 0.71128 0.65455 0.72828 0.0
C645 C 0.73886 0.68611 0.73475 0.0
C646 C 0.77236 0.71408 0.72926 0.0
C647 C 0.79959 0.74282 0.73829 0.0
C648 C 0.85236 0.73075 0.73786 0.0
C649 C 0.79119 0.79596 0.73642 0.0
C650 C 0.77711 0.72567 0.74975 0.0
C651 C 0.74177 0.69341 0.74755 0.0
C652 C 0.71785 0.67079 0.75681 0.0
C653 C 0.73102 0.68088 0.76865 0.0
C654 C 0.76795 0.71303 0.77105 0.0
C655 C 0.79049 0.73625 0.76144 0.0
H656 H 0.08397 0.07149 0.17658 0.0
H657 H 0.17223 0.94895 0.18284 0.0
H658 H 0.10129 0.90099 0.18693 0.0
H659 H 0.99177 0.04383 0.19878 0.0
H660 H 0.94546 0.06483 0.18913 0.0
H661 H 0.00323 0.09067 0.18823 0.0
H662 H 0.00637 0.07185 0.16553 0.0
H663 H 0.94875 0.04599 0.16636 0.0
H664 H -0.00273 0.012 0.16057 0.0
H665 H 0.02075 0.8654 0.18884 0.0
H666 H 0.93713 0.84345 0.18734 0.0
H667 H 0.9014 0.98896 0.17914 0.0
C668 C 0.08849 0.0348 0.17907 0.0
C669 C 0.13364 0.01399 0.17952 0.0
C670 C 0.13799 0.96562 0.18252 0.0
C671 C 0.09792 0.93821 0.1849 0.0
C672 C 0.05386 0.95971 0.1842 0.0
C673 C 0.04894 0.0069 0.18132 0.0
C674 C -0.00235 0.02056 0.1801 0.0
C675 C 0.98372 0.05714 0.18963 0.0
C676 C 0.9869 0.03865 0.16739 0.0
C677 C 0.97441 0.97341 0.18246 0.0
C678 C 0.00742 0.93896 0.185 0.0
C679 C -0.00541 0.89216 0.18697 0.0
C680 C 0.94695 0.88006 0.1861 0.0
C681 C 0.91265 0.91451 0.18315 0.0
C682 C 0.92666 0.96193 0.18153 0.0
H683 H 0.08289 0.41675 0.41752 0.0
H684 H 0.97444 0.33284 0.43473 0.0
H685 H 0.92691 0.40466 0.43779 0.0
H686 H 0.07039 0.52177 0.43611 0.0
H687 H 0.07932 0.56214 0.42383 0.0
H688 H 0.10646 0.50464 0.42356 0.0
H689 H 0.06728 0.48725 0.4031 0.0
H690 H 0.04013 0.54469 0.40329 0.0
H691 H 0.00439 0.49257 0.40165 0.0
H692 H 0.89063 0.48386 0.43867 0.0
H693 H 0.86471 0.56605 0.43639 0.0
H694 H -0.00491 0.60001 0.41801 0.0
C695 C 0.04931 0.41363 0.42202 0.0
C696 C 0.03238 0.36928 0.42595 0.0
C697 C 0.98804 0.36644 0.43166 0.0
C698 C 0.96089 0.40704 0.43348 0.0
C699 C 0.97848 0.45014 0.42948 0.0
C700 C 0.02146 0.45381 0.4238 0.0
C701 C 0.03087 0.50424 0.41986 0.0
C702 C 0.07434 0.52438 0.42622 0.0
C703 C 0.03595 0.50735 0.40616 0.0
C704 C 0.9862 0.52817 0.42412 0.0
C705 C 0.95684 0.49622 0.42975 0.0
C706 C 0.91328 0.50927 0.4343 0.0
C707 C 0.89892 0.55615 0.43294 0.0
C708 C 0.92783 0.58955 0.42699 0.0
C709 C 0.97232 0.57538 0.42263 0.0
H710 H 0.37619 0.4967 0.66839 0.0
H711 H 0.41752 0.35122 0.67495 0.0
H712 H 0.50034 0.37496 0.67551 0.0
H713 H 0.47376 0.52764 0.64951 0.0
H714 H 0.4808 0.58621 0.65554 0.0
H715 H 0.42384 0.55848 0.65567 0.0
H716 H 0.41816 0.57079 0.67861 0.0
H717 H 0.47504 0.59872 0.67855 0.0
H718 H 0.46433 0.54862 0.68813 0.0
H719 H 0.57844 0.41221 0.67443 0.0
H720 H 0.64851 0.46314 0.67333 0.0
H721 H 0.55889 0.58589 0.66856 0.0
C722 C 0.40272 0.47 0.66999 0.0
C723 C 0.39024 0.42208 0.67161 0.0
C724 C 0.42601 0.38818 0.67372 0.0
C725 C 0.47331 0.40122 0.67402 0.0
C726 C 0.48453 0.44847 0.67233 0.0
C727 C 0.45048 0.48256 0.67049 0.0
C728 C 0.47274 0.53099 0.66913 0.0
C729 C 0.46215 0.55206 0.65672 0.0
C730 C 0.45661 0.56424 0.67921 0.0
C731 C 0.52442 0.51843 0.67039 0.0
C732 C 0.53023 0.47052 0.67213 0.0
C733 C 0.57447 0.44989 0.67317 0.0
C734 C 0.61404 0.47907 0.67249 0.0
C735 C 0.60913 0.52841 0.67093 0.0
C736 C 0.56365 0.5483 0.66988 0.0
H737 H 0.44834 0.07075 0.90445 0.0
H738 H 0.40932 0.08941 0.94171 0.0
H739 H 0.43674 0.0085 0.94621 0.0
H740 H 0.40992 0.949 0.90258 0.0
H741 H 0.4569 0.93141 0.8927 0.0
H742 H 0.43552 0.99129 0.89241 0.0
H743 H 0.51972 0.0224 0.89637 0.0
H744 H 0.5414 0.96267 0.89656 0.0
H745 H 0.55191 0.0009 0.90917 0.0
H746 H 0.473 0.92795 0.9469 0.0
H747 H 0.51174 0.85084 0.94347 0.0
H748 H 0.5196 0.88097 0.90546 0.0
C749 C 0.44594 0.0578 0.91356 0.0
C750 C 0.42725 0.0863 0.92277 0.0
C751 C 0.42372 0.06804 0.93454 0.0
C752 C 0.43914 0.02219 0.93718 0.0
C753 C 0.45703 -0.00523 0.92789 0.0
C754 C 0.46008 0.01164 0.91629 0.0
C755 C 0.47964 0.9744 0.90791 0.0
C756 C 0.44332 0.96072 0.89833 0.0
C757 C 0.52592 0.99109 0.90217 0.0
C758 C 0.48788 0.93429 0.91665 0.0
C759 C 0.47493 0.94696 0.92815 0.0
C760 C 0.48245 0.91723 0.93792 0.0
C761 C 0.50434 0.8736 0.9359 0.0
C762 C 0.51743 0.85982 0.92419 0.0
C763 C 0.50847 0.89023 0.91444 0.0
H764 H 0.06058 0.39558 0.04933 0.0
H765 H 0.14004 0.51145 0.03401 0.0
H766 H 0.06605 0.55515 0.03039 0.0
H767 H 0.95539 0.4051 0.03036 0.0
H768 H 0.91561 0.39287 0.04254 0.0
H769 H 0.97401 0.36815 0.04263 0.0
H770 H 0.98954 0.40568 0.0634 0.0
H771 H 0.93121 0.43031 0.0634 0.0
H772 H 0.98139 0.46835 0.06534 0.0
H773 H 0.98447 0.58696 0.02897 0.0
H774 H 0.90196 0.60984 0.03196 0.0
H775 H 0.87483 0.47605 0.0497 0.0
C776 C 0.06219 0.4298 0.04501 0.0
C777 C 0.10584 0.44999 0.04176 0.0
C778 C 0.10688 0.49536 0.03648 0.0
C779 C 0.06506 0.52026 0.03434 0.0
C780 C 0.02258 0.49954 0.03771 0.0
C781 C 0.02081 0.45563 0.04308 0.0
C782 C 0.97103 0.44352 0.04693 0.0
C783 C 0.95295 0.39981 0.04021 0.0
C784 C 0.96814 0.43657 0.06058 0.0
C785 C 0.94516 0.48776 0.043 0.0
C786 C 0.97552 0.51908 0.03748 0.0
C787 C 0.96036 0.56272 0.03326 0.0
C788 C 0.91326 0.57533 0.035 0.0
C789 C 0.88174 0.54479 0.04109 0.0
C790 C 0.89788 0.50003 0.04495 0.0
H791 H 0.56119 0.58492 0.30061 0.0
H792 H 0.44097 0.67653 0.29475 0.0
H793 H 0.38961 0.60634 0.29315 0.0
H794 H 0.52678 0.49218 0.28041 0.0
H795 H 0.54813 0.44556 0.28997 0.0
H796 H 0.5754 0.5029 0.29039 0.0
H797 H 0.56038 0.50767 0.31325 0.0
H798 H 0.53309 0.45034 0.31291 0.0
H799 H 0.50149 0.50019 0.31891 0.0
H800 H 0.35175 0.52624 0.29212 0.0
H801 H 0.32915 0.44224 0.29244 0.0
H802 H 0.47408 0.40303 0.2995 0.0
C803 C 0.52409 0.5903 0.29894 0.0
C804 C 0.50504 0.6362 0.29775 0.0
C805 C 0.45627 0.64169 0.29568 0.0
C806 C 0.42689 0.60206 0.29473 0.0
C807 C 0.44686 0.55733 0.29596 0.0
C808 C 0.4943 0.55126 0.29806 0.0
C809 C 0.50684 0.49948 0.2993 0.0
C810 C 0.54132 0.48414 0.28943 0.0
C811 C 0.52661 0.48881 0.31184 0.0
C812 C 0.45898 0.47725 0.29757 0.0
C813 C 0.42493 0.51124 0.29559 0.0
C814 C 0.37809 0.49935 0.29369 0.0
C815 C 0.36564 0.45149 0.29387 0.0
C816 C 0.39985 0.41604 0.29601 0.0
C817 C 0.44714 0.42927 0.29786 0.0
H818 H 0.60268 -0.00137 0.54273 0.0
H819 H 0.56841 0.85088 0.5373 0.0
H820 H 0.4851 0.87211 0.53437 0.0
H821 H 0.50344 0.02715 0.55961 0.0
H822 H 0.49562 0.08527 0.55332 0.0
H823 H 0.55322 0.05911 0.55376 0.0
H824 H 0.56146 0.07047 0.53081 0.0
H825 H 0.50384 0.09688 0.53031 0.0
H826 H 0.51715 0.0467 0.52099 0.0
H827 H 0.40433 0.90853 0.53402 0.0
H828 H 0.33289 0.95804 0.53572 0.0
H829 H 0.42044 0.08174 0.54095 0.0
C830 C 0.57782 0.97084 0.5407 0.0
C831 C 0.59209 0.92313 0.54022 0.0
C832 C 0.55834 0.88773 0.53768 0.0
C833 C 0.51091 0.89942 0.53599 0.0
C834 C 0.49782 0.94669 0.53676 0.0
C835 C 0.53036 0.9819 0.53895 0.0
C836 C 0.50683 0.02966 0.53998 0.0
C837 C 0.51528 0.05155 0.5524 0.0
C838 C 0.5233 0.06288 0.52992 0.0
C839 C 0.45593 0.01563 0.53833 0.0
C840 C 0.45139 0.96769 0.53641 0.0
C841 C 0.40746 0.94625 0.53534 0.0
C842 C 0.3671 0.97457 0.53634 0.0
C843 C 0.37109 0.02373 0.53838 0.0
C844 C 0.41618 0.04436 0.53923 0.0
H845 H 0.07247 0.08657 0.7888 0.0
H846 H 0.94844 0.17406 0.78436 0.0
H847 H 0.90021 0.10221 0.78157 0.0
H848 H 0.03829 0.99032 0.76789 0.0
H849 H 0.0627 0.94563 0.77757 0.0
H850 H 0.08832 0.00381 0.77717 0.0
H851 H 0.07757 0.01087 0.80016 0.0
H852 H 0.05182 0.95298 0.80062 0.0
H853 H 0.01996 0.00274 0.80657 0.0
H854 H 0.86465 0.02104 0.78148 0.0
H855 H 0.84379 0.93762 0.78493 0.0
H856 H 0.99116 0.90361 0.79011 0.0
C857 C 0.03537 0.09077 0.78691 0.0
C858 C 0.01421 0.1359 0.78667 0.0
C859 C 0.96538 0.13981 0.78448 0.0
C860 C 0.93779 0.09922 0.78285 0.0
C861 C 0.95966 0.05516 0.78343 0.0
C862 C 0.0074 0.05075 0.7854 0.0
C863 C 0.02166 -0.00041 0.78693 0.0
C864 C 0.05469 0.98392 0.77678 0.0
C865 C 0.04404 0.99108 0.7993 0.0
C866 C 0.97424 0.97587 0.78593 0.0
C867 C 0.93905 0.00841 0.78368 0.0
C868 C 0.89198 -0.0048 0.78309 0.0
C869 C 0.88049 0.94771 0.78508 0.0
C870 C 0.91589 0.91409 0.78777 0.0
C871 C 0.96339 0.92836 0.78795 0.0
H872 H 0.56566 0.89258 0.16922 0.0
H873 H 0.67037 0.00312 0.17276 0.0
H874 H 0.6073 0.06321 0.17234 0.0
H875 H 0.48975 0.95262 0.14914 0.0
H876 H 0.4363 0.93074 0.1558 0.0
H877 H 0.48945 0.89639 0.15672 0.0
H878 H 0.48215 0.89396 0.17985 0.0
H879 H 0.42886 0.9282 0.179 0.0
H880 H 0.47717 0.94848 0.18807 0.0
H881 H 0.53353 0.11114 0.17018 0.0
H882 H 0.45378 0.14392 0.16784 0.0
H883 H 0.39633 0.00205 0.16672 0.0
C884 C 0.57539 0.92942 0.16996 0.0
C885 C 0.62305 0.94319 0.17097 0.0
C886 C 0.63417 0.99173 0.17201 0.0
C887 C 0.59859 0.0261 0.17175 0.0
C888 C 0.55206 0.01128 0.17062 0.0
C889 C 0.54033 0.96408 0.16988 0.0
C890 C 0.48761 0.95753 0.16874 0.0
C891 C 0.47506 0.93287 0.15689 0.0
C892 C 0.46779 0.93044 0.17956 0.0
C893 C 0.47151 0.00851 0.16875 0.0
C894 C 0.50932 0.03891 0.16979 0.0
C895 C 0.50364 0.08769 0.16949 0.0
C896 C 0.45818 0.10594 0.1681 0.0
C897 C 0.41878 0.07554 0.16715 0.0
C898 C 0.42566 0.02615 0.16757 0.0
H899 H 0.9754 0.86552 0.41932 0.0
H900 H 0.84463 0.9278 0.43176 0.0
H901 H 0.88432 0.00399 0.43452 0.0
H902 H 0.05391 0.93259 0.43914 0.0
H903 H 0.09865 0.9398 0.42784 0.0
H904 H 0.06115 0.88854 0.42764 0.0
H905 H 0.03658 0.90795 0.40584 0.0
H906 H 0.07399 0.95917 0.40598 0.0
H907 H 0.01248 0.96531 0.40244 0.0
H908 H 0.93596 0.07401 0.43521 0.0
H909 H -0.00333 0.13527 0.43302 0.0
H910 H 0.09461 0.02969 0.41975 0.0
C911 C 0.95538 0.89508 0.42276 0.0
C912 C 0.90691 0.89061 0.42533 0.0
C913 C 0.88172 0.93032 0.42966 0.0
C914 C 0.90398 0.97378 0.43133 0.0
C915 C 0.95152 0.97724 0.4286 0.0
C916 C 0.97704 0.93917 0.42437 0.0
C917 C 0.02716 0.9536 0.4215 0.0
C918 C 0.06229 0.92705 0.42951 0.0
C919 C 0.03818 0.94607 0.40815 0.0
C920 C 0.02537 0.00572 0.42463 0.0
C921 C 0.98149 0.01834 0.42883 0.0
C922 C 0.97061 0.06461 0.43199 0.0
C923 C 0.00539 0.09918 0.43071 0.0
C924 C 0.0505 0.08743 0.42622 0.0
C925 C 0.06061 0.03986 0.42327 0.0
H926 H 0.11315 0.47448 0.66882 0.0
H927 H 0.04626 0.33737 0.66479 0.0
H928 H 0.96896 0.3752 0.66467 0.0
H929 H 0.02561 0.52414 0.68845 0.0
H930 H 0.02756 0.58229 0.6819 0.0
H931 H 0.07888 0.54505 0.68149 0.0
H932 H 0.08244 0.5535 0.65841 0.0
H933 H 0.03114 0.59082 0.65875 0.0
H934 H 0.03158 0.53847 0.64958 0.0
H935 H 0.89875 0.42573 0.66544 0.0
H936 H 0.83855 0.48789 0.66664 0.0
H937 H 0.94824 0.59384 0.66988 0.0
C938 C 0.08225 0.45251 0.66787 0.0
C939 C 0.08617 0.40282 0.66683 0.0
C940 C 0.04465 0.37543 0.66561 0.0
C941 C 0.0003 0.39656 0.66553 0.0
C942 C -0.00239 0.44529 0.66663 0.0
C943 C 0.03724 0.47314 0.66773 0.0
C944 C 0.0237 0.52487 0.66882 0.0
C945 C 0.0399 0.54528 0.68088 0.0
C946 C 0.04339 0.5536 0.65826 0.0
C947 C 0.97044 0.52134 0.66821 0.0
C948 C 0.95638 0.47499 0.66695 0.0
C949 C 0.9092 0.46226 0.66637 0.0
C950 C 0.87524 0.4979 0.66709 0.0
C951 C 0.8885 0.54584 0.66833 0.0
C952 C 0.93689 0.55759 0.66887 0.0
H953 H 0.39667 0.43264 0.91166 0.0
H954 H 0.50323 0.32491 0.90619 0.0
H955 H 0.56402 0.387 0.90494 0.0
H956 H 0.44798 0.52276 0.8921 0.0
H957 H 0.43205 0.57043 0.90199 0.0
H958 H 0.39645 0.51788 0.90143 0.0
H959 H 0.40615 0.50721 0.92435 0.0
H960 H 0.44181 0.55959 0.92498 0.0
H961 H 0.46436 0.5045 0.93068 0.0
H962 H 0.61339 0.46007 0.9053 0.0
H963 H 0.64877 0.53866 0.90779 0.0
H964 H 0.5101 0.59903 0.91349 0.0
C965 C 0.43267 0.42204 0.91 0.0
C966 C 0.44515 0.37385 0.90894 0.0
C967 C 0.49281 0.36156 0.907 0.0
C968 C 0.52754 0.39658 0.90625 0.0
C969 C 0.51404 0.44366 0.90748 0.0
C970 C 0.46777 0.45645 0.90933 0.0
C971 C 0.46294 0.50931 0.91107 0.0
C972 C 0.43309 0.53139 0.90104 0.0
C973 C 0.44263 0.5208 0.92351 0.0
C974 C 0.51388 0.52423 0.91008 0.0
C975 C 0.54266 0.48584 0.90789 0.0
C976 C 0.59119 0.49042 0.90695 0.0
C977 C 0.61093 0.53533 0.9084 0.0
C978 C 0.58227 0.57522 0.91084 0.0
C979 C 0.533 0.56943 0.91157 0.0
H980 H 0.61211 0.50126 0.05778 0.0
H981 H 0.55492 0.63777 0.06802 0.0
H982 H 0.47596 0.60357 0.06906 0.0
H983 H 0.51713 0.4659 0.03929 0.0
H984 H 0.51776 0.40484 0.04386 0.0
H985 H 0.57101 0.43907 0.04439 0.0
H986 H 0.5808 0.41884 0.06689 0.0
H987 H 0.52765 0.38432 0.06641 0.0
H988 H 0.53347 0.43141 0.07715 0.0
H989 H 0.402 0.55739 0.06731 0.0
H990 H 0.33827 0.49907 0.06459 0.0
H991 H 0.44203 0.39106 0.05671 0.0
C992 C 0.58308 0.52378 0.06038 0.0
C993 C 0.59011 0.57234 0.06278 0.0
C994 C 0.55091 0.6005 0.06613 0.0
C995 C 0.50564 0.58146 0.06674 0.0
C996 C 0.49979 0.53389 0.06413 0.0
C997 C 0.53736 0.50514 0.06119 0.0
C998 C 0.52082 0.45515 0.05873 0.0
C999 C 0.53237 0.44039 0.0458 0.0
C1000 C 0.54194 0.42038 0.06784 0.0
C1001 C 0.4682 0.46076 0.06056 0.0
C1002 C 0.45687 0.50658 0.06361 0.0
C1003 C 0.4104 0.52116 0.0651 0.0
C1004 C 0.37444 0.4879 0.0635 0.0
C1005 C 0.3852 0.44052 0.06058 0.0
C1006 C 0.43278 0.42687 0.05916 0.0
H1007 H 0.3879 0.0622 0.29699 0.0
H1008 H 0.49313 0.1732 0.29622 0.0
H1009 H 0.55578 0.11268 0.29584 0.0
H1010 H 0.44978 0.98383 0.31623 0.0
H1011 H 0.43068 0.93119 0.3086 0.0
H1012 H 0.39432 0.98322 0.30843 0.0
H1013 H 0.39357 0.9818 0.28522 0.0
H1014 H 0.43003 0.92977 0.28531 0.0
H1015 H 0.44848 0.98149 0.27716 0.0
H1016 H 0.60676 0.04006 0.29628 0.0
H1017 H 0.64263 0.96098 0.29744 0.0
H1018 H 0.50376 0.89742 0.2976 0.0
C1019 C 0.42408 0.07397 0.2967 0.0
C1020 C 0.43555 0.12259 0.29665 0.0
C1021 C 0.48342 0.13624 0.29626 0.0
C1022 C 0.51925 0.10211 0.29603 0.0
C1023 C 0.50659 0.05455 0.29612 0.0
C1024 C 0.46016 0.04048 0.29642 0.0
C1025 C 0.45589 0.98716 0.29666 0.0
C1026 C 0.43122 0.97038 0.30816 0.0
C1027 C 0.43049 0.969 0.28542 0.0
C1028 C 0.50727 0.97332 0.29658 0.0
C1029 C 0.53591 0.01272 0.29625 0.0
C1030 C 0.58467 0.00898 0.29647 0.0
C1031 C 0.60469 0.96383 0.29715 0.0
C1032 C 0.57604 0.92287 0.29758 0.0
C1033 C 0.52665 0.9279 0.29717 0.0
H1034 H 0.93979 0.90876 0.55025 0.0
H1035 H 0.8331 0.01595 0.54432 0.0
H1036 H 0.89545 0.07551 0.54123 0.0
H1037 H 0.01903 0.97958 0.56651 0.0
H1038 H 0.07113 0.954 0.56 0.0
H1039 H 0.01818 0.91958 0.56114 0.0
H1040 H 0.02065 0.90383 0.53829 0.0
H1041 H 0.07365 0.9383 0.53707 0.0
H1042 H 0.02322 0.953 0.52804 0.0
H1043 H 0.96922 0.12426 0.5404 0.0
H1044 H 0.04902 0.15833 0.54112 0.0
H1045 H 0.10762 0.01853 0.54665 0.0
C1046 C 0.92943 0.9447 0.54823 0.0
C1047 C 0.88151 0.95775 0.54757 0.0
C1048 C 0.86955 0.00512 0.54485 0.0
C1049 C 0.90472 0.03917 0.54308 0.0
C1050 C 0.95159 0.02511 0.5439 0.0
C1051 C 0.96399 0.97893 0.54631 0.0
C1052 C 0.01687 0.97311 0.54694 0.0
C1053 C 0.03218 0.95555 0.55939 0.0
C1054 C 0.03463 0.9401 0.53699 0.0
C1055 C 0.03236 0.02351 0.54477 0.0
C1056 C -0.00585 0.05294 0.54303 0.0
C1057 C -0.00059 0.10148 0.54158 0.0
C1058 C 0.04485 0.12049 0.54204 0.0
C1059 C 0.08449 0.09099 0.54384 0.0
C1060 C 0.07807 0.0418 0.54504 0.0
H1061 H 0.90048 0.56973 0.80352 0.0
H1062 H 0.01067 0.67463 0.79968 0.0
H1063 H 0.06967 0.61077 0.79802 0.0
H1064 H 0.96447 0.48769 0.82118 0.0
H1065 H 0.94002 0.43625 0.81403 0.0
H1066 H 0.90655 0.49015 0.81467 0.0
H1067 H 0.89765 0.48912 0.79157 0.0
H1068 H 0.93113 0.43518 0.79085 0.0
H1069 H 0.94944 0.48592 0.78229 0.0
H1070 H 0.11681 0.53578 0.79812 0.0
H1071 H 0.1487 0.45475 0.79877 0.0
H1072 H 0.00715 0.39869 0.80139 0.0
C1073 C 0.93703 0.57933 0.80232 0.0
C1074 C 0.9511 0.62715 0.80181 0.0
C1075 C -0.00084 0.63822 0.80009 0.0
C1076 C 0.03287 0.60223 0.79915 0.0
C1077 C 0.01778 0.55546 0.79976 0.0
C1078 C 0.97095 0.54393 0.80119 0.0
C1079 C 0.9639 0.49094 0.80154 0.0
C1080 C 0.94248 0.47536 0.81357 0.0
C1081 C 0.93375 0.47433 0.79093 0.0
C1082 C 0.01424 0.47438 0.80031 0.0
C1083 C 0.04477 0.51218 0.79934 0.0
C1084 C 0.09323 0.5059 0.79872 0.0
C1085 C 0.11098 0.45978 0.79915 0.0
C1086 C 0.08033 0.42052 0.80004 0.0
C1087 C 0.03132 0.42802 0.80051 0.0
loop_
_geom_bond_atom_site_label_1
_geom_bond_atom_site_label_2
_geom_bond_distance
_geom_bond_site_symmetry_2
_ccdc_geom_bond_type
C0 O1 1.306 . S
C0 O3 1.160 . S
O1 C0 1.306 . S
O1 Cd2 2.228 . S
Cd2 O1 2.228 . S
Cd2 O6 2.273 . S
Cd2 O10 2.277 . S
O3 C0 1.160 . S
O3 Cd4 2.203 . S
Cd4 O3 2.203 . S
Cd4 O6 2.411 . S
Cd4 O7 2.333 . S
Cd4 O8 2.352 . S
Cd4 O12 2.277 . S
Cd4 O13 2.356 . S
C5 O10 1.209 . S
C5 O12 1.226 . S
O6 Cd2 2.273 . S
O6 Cd4 2.411 . S
O6 C9 1.320 . S
O7 Cd4 2.333 . S
O7 C9 1.214 . S
O8 Cd4 2.352 . S
O8 C11 1.258 . S
C9 O6 1.320 . S
C9 O7 1.214 . S
O10 Cd2 2.277 . S
O10 C5 1.209 . S
C11 O8 1.258 . S
C11 O13 1.282 . S
O12 Cd4 2.277 . S
O12 C5 1.226 . S
O13 Cd4 2.356 . S
O13 C11 1.282 . S
C14 O15 1.306 . S
C14 O17 1.160 . S
O15 C14 1.306 . S
O15 Cd16 2.228 . S
Cd16 O15 2.228 . S
Cd16 O20 2.273 . S
Cd16 O24 2.277 . S
O17 C14 1.160 . S
O17 Cd18 2.203 . S
Cd18 O17 2.203 . S
Cd18 O20 2.411 . S
Cd18 O21 2.333 . S
Cd18 O22 2.352 . S
Cd18 O26 2.277 . S
Cd18 O27 2.356 . S
C19 O24 1.209 . S
C19 O26 1.226 . S
O20 Cd16 2.273 . S
O20 Cd18 2.411 . S
O20 C23 1.320 . S
O21 Cd18 2.333 . S
O21 C23 1.214 . S
O22 Cd18 2.352 . S
O22 C25 1.258 . S
C23 O20 1.320 . S
C23 O21 1.214 . S
O24 Cd16 2.277 . S
O24 C19 1.209 . S
C25 O22 1.258 . S
C25 O27 1.282 . S
O26 Cd18 2.277 . S
O26 C19 1.226 . S
O27 Cd18 2.356 . S
O27 C25 1.282 . S
C28 O29 1.306 . S
C28 O31 1.160 . S
O29 C28 1.306 . S
O29 Cd30 2.228 . S
Cd30 O29 2.228 . S
Cd30 O34 2.273 . S
Cd30 O38 2.277 . S
O31 C28 1.160 . S
O31 Cd32 2.203 . S
Cd32 O31 2.203 . S
Cd32 O34 2.411 . S
Cd32 O35 2.333 . S
Cd32 O36 2.352 . S
Cd32 O40 2.277 . S
Cd32 O41 2.356 . S
C33 O38 1.209 . S
C33 O40 1.226 . S
O34 Cd30 2.273 . S
O34 Cd32 2.411 . S
O34 C37 1.320 . S
O35 Cd32 2.333 . S
O35 C37 1.214 . S
O36 Cd32 2.352 . S
O36 C39 1.258 . S
C37 O34 1.320 . S
C37 O35 1.214 . S
O38 Cd30 2.277 . S
O38 C33 1.209 . S
C39 O36 1.258 . S
C39 O41 1.282 . S
O40 Cd32 2.277 . S
O40 C33 1.226 . S
O41 Cd32 2.356 . S
O41 C39 1.282 . S
C42 O43 1.306 . S
C42 O45 1.160 . S
O43 C42 1.306 . S
O43 Cd44 2.228 . S
Cd44 O43 2.228 . S
Cd44 O48 2.273 . S
Cd44 O52 2.277 . S
O45 C42 1.160 . S
O45 Cd46 2.203 . S
Cd46 O45 2.203 . S
Cd46 O48 2.411 . S
Cd46 O49 2.333 . S
Cd46 O50 2.352 . S
Cd46 O54 2.277 . S
Cd46 O55 2.356 . S
C47 O52 1.209 . S
C47 O54 1.226 . S
O48 Cd44 2.273 . S
O48 Cd46 2.411 . S
O48 C51 1.320 . S
O49 Cd46 2.333 . S
O49 C51 1.214 . S
O50 Cd46 2.352 . S
O50 C53 1.258 . S
C51 O48 1.320 . S
C51 O49 1.214 . S
O52 Cd44 2.277 . S
O52 C47 1.209 . S
C53 O50 1.258 . S
C53 O55 1.282 . S
O54 Cd46 2.277 . S
O54 C47 1.226 . S
O55 Cd46 2.356 . S
O55 C53 1.282 . S
C56 O57 1.306 . S
C56 O59 1.160 . S
O57 C56 1.306 . S
O57 Cd58 2.228 . S
Cd58 O57 2.228 . S
Cd58 O62 2.273 . S
Cd58 O66 2.277 . S
O59 C56 1.160 . S
O59 Cd60 2.203 . S
Cd60 O59 2.203 . S
Cd60 O62 2.411 . S
Cd60 O63 2.333 . S
Cd60 O64 2.352 . S
Cd60 O68 2.277 . S
Cd60 O69 2.356 . S
C61 O66 1.209 . S
C61 O68 1.226 . S
O62 Cd58 2.273 . S
O62 Cd60 2.411 . S
O62 C65 1.320 . S
O63 Cd60 2.333 . S
O63 C65 1.214 . S
O64 Cd60 2.352 . S
O64 C67 1.258 . S
C65 O62 1.320 . S
C65 O63 1.214 . S
O66 Cd58 2.277 . S
O66 C61 1.209 . S
C67 O64 1.258 . S
C67 O69 1.282 . S
O68 Cd60 2.277 . S
O68 C61 1.226 . S
O69 Cd60 2.356 . S
O69 C67 1.282 . S
C70 O71 1.306 . S
C70 O73 1.160 . S
O71 C70 1.306 . S
O71 Cd72 2.228 . S
Cd72 O71 2.228 . S
Cd72 O76 2.273 . S
Cd72 O80 2.277 . S
O73 C70 1.160 . S
O73 Cd74 2.203 . S
Cd74 O73 2.203 . S
Cd74 O76 2.411 . S
Cd74 O77 2.333 . S
Cd74 O78 2.352 . S
Cd74 O82 2.277 . S
Cd74 O83 2.356 . S
C75 O80 1.209 . S
C75 O82 1.226 . S
O76 Cd72 2.273 . S
O76 Cd74 2.411 . S
O76 C79 1.320 . S
O77 Cd74 2.333 . S
O77 C79 1.214 . S
O78 Cd74 2.352 . S
O78 C81 1.258 . S
C79 O76 1.320 . S
C79 O77 1.214 . S
O80 Cd72 2.277 . S
O80 C75 1.209 . S
C81 O78 1.258 . S
C81 O83 1.282 . S
O82 Cd74 2.277 . S
O82 C75 1.226 . S
O83 Cd74 2.356 . S
O83 C81 1.282 . S
C84 O85 1.306 . S
C84 O87 1.160 . S
O85 C84 1.306 . S
O85 Cd86 2.228 . S
Cd86 O85 2.228 . S
Cd86 O90 2.273 . S
Cd86 O94 2.277 . S
O87 C84 1.160 . S
O87 Cd88 2.203 . S
Cd88 O87 2.203 . S
Cd88 O90 2.411 . S
Cd88 O91 2.333 . S
Cd88 O92 2.352 . S
Cd88 O96 2.277 . S
Cd88 O97 2.356 . S
C89 O94 1.209 . S
C89 O96 1.226 . S
O90 Cd86 2.273 . S
O90 Cd88 2.411 . S
O90 C93 1.320 . S
O91 Cd88 2.333 . S
O91 C93 1.214 . S
O92 Cd88 2.352 . S
O92 C95 1.258 . S
C93 O90 1.320 . S
C93 O91 1.214 . S
O94 Cd86 2.277 . S
O94 C89 1.209 . S
C95 O92 1.258 . S
C95 O97 1.282 . S
O96 Cd88 2.277 . S
O96 C89 1.226 . S
O97 Cd88 2.356 . S
O97 C95 1.282 . S
C98 O99 1.306 . S
C98 O101 1.160 . S
O99 C98 1.306 . S
O99 Cd100 2.228 . S
Cd100 O99 2.228 . S
Cd100 O104 2.273 . S
Cd100 O108 2.277 . S
O101 C98 1.160 . S
O101 Cd102 2.203 . S
Cd102 O101 2.203 . S
Cd102 O104 2.411 . S
Cd102 O105 2.333 . S
Cd102 O106 2.352 . S
Cd102 O110 2.277 . S
Cd102 O111 2.356 . S
C103 O108 1.209 . S
C103 O110 1.226 . S
O104 Cd100 2.273 . S
O104 Cd102 2.411 . S
O104 C107 1.320 . S
O105 Cd102 2.333 . S
O105 C107 1.214 . S
O106 Cd102 2.352 . S
O106 C109 1.258 . S
C107 O104 1.320 . S
C107 O105 1.214 . S
O108 Cd100 2.277 . S
O108 C103 1.209 . S
C109 O106 1.258 . S
C109 O111 1.282 . S
O110 Cd102 2.277 . S
O110 C103 1.226 . S
O111 Cd102 2.356 . S
O111 C109 1.282 . S
C112 O113 1.306 . S
C112 O115 1.160 . S
O113 C112 1.306 . S
O113 Cd114 2.228 . S
Cd114 O113 2.228 . S
Cd114 O118 2.273 . S
Cd114 O122 2.277 . S
O115 C112 1.160 . S
O115 Cd116 2.203 . S
Cd116 O115 2.203 . S
Cd116 O118 2.411 . S
Cd116 O119 2.333 . S
Cd116 O120 2.352 . S
Cd116 O124 2.277 . S
Cd116 O125 2.356 . S
C117 O122 1.209 . S
C117 O124 1.226 . S
O118 Cd114 2.273 . S
O118 Cd116 2.411 . S
O118 C121 1.320 . S
O119 Cd116 2.333 . S
O119 C121 1.214 . S
O120 Cd116 2.352 . S
O120 C123 1.258 . S
C121 O118 1.320 . S
C121 O119 1.214 . S
O122 Cd114 2.277 . S
O122 C117 1.209 . S
C123 O120 1.258 . S
C123 O125 1.282 . S
O124 Cd116 2.277 . S
O124 C117 1.226 . S
O125 Cd116 2.356 . S
O125 C123 1.282 . S
C126 O127 1.306 . S
C126 O129 1.160 . S
O127 C126 1.306 . S
O127 Cd128 2.228 . S
Cd128 O127 2.228 . S
Cd128 O132 2.273 . S
Cd128 O136 2.277 . S
O129 C126 1.160 . S
O129 Cd130 2.203 . S
Cd130 O129 2.203 . S
Cd130 O132 2.411 . S
Cd130 O133 2.333 . S
Cd130 O134 2.352 . S
Cd130 O138 2.277 . S
Cd130 O139 2.356 . S
C131 O136 1.209 . S
C131 O138 1.226 . S
O132 Cd128 2.273 . S
O132 Cd130 2.411 . S
O132 C135 1.320 . S
O133 Cd130 2.333 . S
O133 C135 1.214 . S
O134 Cd130 2.352 . S
O134 C137 1.258 . S
C135 O132 1.320 . S
C135 O133 1.214 . S
O136 Cd128 2.277 . S
O136 C131 1.209 . S
C137 O134 1.258 . S
C137 O139 1.282 . S
O138 Cd130 2.277 . S
O138 C131 1.226 . S
O139 Cd130 2.356 . S
O139 C137 1.282 . S
C140 O141 1.306 . S
C140 O143 1.160 . S
O141 C140 1.306 . S
O141 Cd142 2.228 . S
Cd142 O141 2.228 . S
Cd142 O146 2.273 . S
Cd142 O150 2.277 . S
O143 C140 1.160 . S
O143 Cd144 2.203 . S
Cd144 O143 2.203 . S
Cd144 O146 2.411 . S
Cd144 O147 2.333 . S
Cd144 O148 2.352 . S
Cd144 O152 2.277 . S
Cd144 O153 2.356 . S
C145 O150 1.209 . S
C145 O152 1.226 . S
O146 Cd142 2.273 . S
O146 Cd144 2.411 . S
O146 C149 1.320 . S
O147 Cd144 2.333 . S
O147 C149 1.214 . S
O148 Cd144 2.352 . S
O148 C151 1.258 . S
C149 O146 1.320 . S
C149 O147 1.214 . S
O150 Cd142 2.277 . S
O150 C145 1.209 . S
C151 O148 1.258 . S
C151 O153 1.282 . S
O152 Cd144 2.277 . S
O152 C145 1.226 . S
O153 Cd144 2.356 . S
O153 C151 1.282 . S
C154 O155 1.306 . S
C154 O157 1.160 . S
O155 C154 1.306 . S
O155 Cd156 2.228 . S
Cd156 O155 2.228 . S
Cd156 O160 2.273 . S
Cd156 O164 2.277 . S
O157 C154 1.160 . S
O157 Cd158 2.203 . S
Cd158 O157 2.203 . S
Cd158 O160 2.411 . S
Cd158 O161 2.333 . S
Cd158 O162 2.352 . S
Cd158 O166 2.277 . S
Cd158 O167 2.356 . S
C159 O164 1.209 . S
C159 O166 1.226 . S
O160 Cd156 2.273 . S
O160 Cd158 2.411 . S
O160 C163 1.320 . S
O161 Cd158 2.333 . S
O161 C163 1.214 . S
O162 Cd158 2.352 . S
O162 C165 1.258 . S
C163 O160 1.320 . S
C163 O161 1.214 . S
O164 Cd156 2.277 . S
O164 C159 1.209 . S
C165 O162 1.258 . S
C165 O167 1.282 . S
O166 Cd158 2.277 . S
O166 C159 1.226 . S
O167 Cd158 2.356 . S
O167 C165 1.282 . S
C168 O169 1.306 . S
C168 O171 1.160 . S
O169 C168 1.306 . S
O169 Cd170 2.228 . S
Cd170 O169 2.228 . S
Cd170 O174 2.273 . S
Cd170 O178 2.277 . S
O171 C168 1.160 . S
O171 Cd172 2.203 . S
Cd172 O171 2.203 . S
Cd172 O174 2.411 . S
Cd172 O175 2.333 . S
Cd172 O176 2.352 . S
Cd172 O180 2.277 . S
Cd172 O181 2.356 . S
C173 O178 1.209 . S
C173 O180 1.226 . S
O174 Cd170 2.273 . S
O174 Cd172 2.411 . S
O174 C177 1.320 . S
O175 Cd172 2.333 . S
O175 C177 1.214 . S
O176 Cd172 2.352 . S
O176 C179 1.258 . S
C177 O174 1.320 . S
C177 O175 1.214 . S
O178 Cd170 2.277 . S
O178 C173 1.209 . S
C179 O176 1.258 . S
C179 O181 1.282 . S
O180 Cd172 2.277 . S
O180 C173 1.226 . S
O181 Cd172 2.356 . S
O181 C179 1.282 . S
C182 O183 1.306 . S
C182 O185 1.160 . S
O183 C182 1.306 . S
O183 Cd184 2.228 . S
Cd184 O183 2.228 . S
Cd184 O188 2.273 . S
Cd184 O192 2.277 . S
O185 C182 1.160 . S
O185 Cd186 2.203 . S
Cd186 O185 2.203 . S
Cd186 O188 2.411 . S
Cd186 O189 2.333 . S
Cd186 O190 2.352 . S
Cd186 O194 2.277 . S
Cd186 O195 2.356 . S
C187 O192 1.209 . S
C187 O194 1.226 . S
O188 Cd184 2.273 . S
O188 Cd186 2.411 . S
O188 C191 1.320 . S
O189 Cd186 2.333 . S
O189 C191 1.214 . S
O190 Cd186 2.352 . S
O190 C193 1.258 . S
C191 O188 1.320 . S
C191 O189 1.214 . S
O192 Cd184 2.277 . S
O192 C187 1.209 . S
C193 O190 1.258 . S
C193 O195 1.282 . S
O194 Cd186 2.277 . S
O194 C187 1.226 . S
O195 Cd186 2.356 . S
O195 C193 1.282 . S
C196 O197 1.306 . S
C196 O199 1.160 . S
O197 C196 1.306 . S
O197 Cd198 2.228 . S
Cd198 O197 2.228 . S
Cd198 O202 2.273 . S
Cd198 O206 2.277 . S
O199 C196 1.160 . S
O199 Cd200 2.203 . S
Cd200 O199 2.203 . S
Cd200 O202 2.411 . S
Cd200 O203 2.333 . S
Cd200 O204 2.352 . S
Cd200 O208 2.277 . S
Cd200 O209 2.356 . S
C201 O206 1.209 . S
C201 O208 1.226 . S
O202 Cd198 2.273 . S
O202 Cd200 2.411 . S
O202 C205 1.320 . S
O203 Cd200 2.333 . S
O203 C205 1.214 . S
O204 Cd200 2.352 . S
O204 C207 1.258 . S
C205 O202 1.320 . S
C205 O203 1.214 . S
O206 Cd198 2.277 . S
O206 C201 1.209 . S
C207 O204 1.258 . S
C207 O209 1.282 . S
O208 Cd200 2.277 . S
O208 C201 1.226 . S
O209 Cd200 2.356 . S
O209 C207 1.282 . S
C210 O211 1.306 . S
C210 O213 1.160 . S
O211 C210 1.306 . S
O211 Cd212 2.228 . S
Cd212 O211 2.228 . S
Cd212 O216 2.273 . S
Cd212 O220 2.277 . S
O213 C210 1.160 . S
O213 Cd214 2.203 . S
Cd214 O213 2.203 . S
Cd214 O216 2.411 . S
Cd214 O217 2.333 . S
Cd214 O218 2.352 . S
Cd214 O222 2.277 . S
Cd214 O223 2.356 . S
C215 O220 1.209 . S
C215 O222 1.226 . S
O216 Cd212 2.273 . S
O216 Cd214 2.411 . S
O216 C219 1.320 . S
O217 Cd214 2.333 . S
O217 C219 1.214 . S
O218 Cd214 2.352 . S
O218 C221 1.258 . S
C219 O216 1.320 . S
C219 O217 1.214 . S
O220 Cd212 2.277 . S
O220 C215 1.209 . S
C221 O218 1.258 . S
C221 O223 1.282 . S
O222 Cd214 2.277 . S
O222 C215 1.226 . S
O223 Cd214 2.356 . S
O223 C221 1.282 . S
H224 C236 0.930 . S
H225 C238 0.930 . S
H226 C239 0.930 . S
H227 C243 0.959 . S
H228 C243 0.959 . S
H229 C243 0.961 . S
H230 C244 0.960 . S
H231 C244 0.961 . S
H232 C244 0.959 . S
H233 C247 0.929 . S
H234 C248 0.931 . S
H235 C250 0.930 . S
C236 H224 0.930 . S
C236 C237 1.399 . S
C236 C241 1.399 . S
C237 C236 1.399 . S
C237 C238 1.376 . S
C238 H225 0.930 . S
C238 C237 1.376 . S
C238 C239 1.388 . S
C239 H226 0.930 . S
C239 C238 1.388 . S
C239 C240 1.390 . S
C240 C239 1.390 . S
C240 C241 1.394 . S
C240 C246 1.465 . S
C241 C236 1.399 . S
C241 C240 1.394 . S
C241 C242 1.516 . S
C242 C241 1.516 . S
C242 C243 1.502 . S
C242 C244 1.561 . S
C242 C245 1.526 . S
C243 H227 0.959 . S
C243 H228 0.959 . S
C243 H229 0.961 . S
C243 C242 1.502 . S
C244 H230 0.960 . S
C244 H231 0.961 . S
C244 H232 0.959 . S
C244 C242 1.561 . S
C245 C242 1.526 . S
C245 C246 1.396 . S
C245 C250 1.390 . S
C246 C240 1.465 . S
C246 C245 1.396 . S
C246 C247 1.399 . S
C247 H233 0.929 . S
C247 C246 1.399 . S
C247 C248 1.385 . S
C248 H234 0.931 . S
C248 C247 1.385 . S
C248 C249 1.389 . S
C249 C248 1.389 . S
C249 C250 1.387 . S
C250 H235 0.930 . S
C250 C245 1.390 . S
C250 C249 1.387 . S
H251 C263 0.930 . S
H252 C265 0.930 . S
H253 C266 0.930 . S
H254 C270 0.959 . S
H255 C270 0.959 . S
H256 C270 0.961 . S
H257 C271 0.960 . S
H258 C271 0.961 . S
H259 C271 0.959 . S
H260 C274 0.929 . S
H261 C275 0.931 . S
H262 C277 0.930 . S
C263 H251 0.930 . S
C263 C264 1.399 . S
C263 C268 1.399 . S
C264 C263 1.399 . S
C264 C265 1.376 . S
C265 H252 0.930 . S
C265 C264 1.376 . S
C265 C266 1.388 . S
C266 H253 0.930 . S
C266 C265 1.388 . S
C266 C267 1.390 . S
C267 C266 1.390 . S
C267 C268 1.394 . S
C267 C273 1.465 . S
C268 C263 1.399 . S
C268 C267 1.394 . S
C268 C269 1.516 . S
C269 C268 1.516 . S
C269 C270 1.502 . S
C269 C271 1.561 . S
C269 C272 1.526 . S
C270 H254 0.959 . S
C270 H255 0.959 . S
C270 H256 0.961 . S
C270 C269 1.502 . S
C271 H257 0.960 . S
C271 H258 0.961 . S
C271 H259 0.959 . S
C271 C269 1.561 . S
C272 C269 1.526 . S
C272 C273 1.396 . S
C272 C277 1.390 . S
C273 C267 1.465 . S
C273 C272 1.396 . S
C273 C274 1.399 . S
C274 H260 0.929 . S
C274 C273 1.399 . S
C274 C275 1.385 . S
C275 H261 0.931 . S
C275 C274 1.385 . S
C275 C276 1.389 . S
C276 C275 1.389 . S
C276 C277 1.387 . S
C277 H262 0.930 . S
C277 C272 1.390 . S
C277 C276 1.387 . S
H278 C290 0.930 . S
H279 C292 0.930 . S
H280 C293 0.930 . S
H281 C297 0.959 . S
H282 C297 0.959 . S
H283 C297 0.961 . S
H284 C298 0.960 . S
H285 C298 0.961 . S
H286 C298 0.959 . S
H287 C301 0.929 . S
H288 C302 0.931 . S
H289 C304 0.930 . S
C290 H278 0.930 . S
C290 C291 1.399 . S
C290 C295 1.399 . S
C291 C290 1.399 . S
C291 C292 1.376 . S
C292 H279 0.930 . S
C292 C291 1.376 . S
C292 C293 1.388 . S
C293 H280 0.930 . S
C293 C292 1.388 . S
C293 C294 1.390 . S
C294 C293 1.390 . S
C294 C295 1.394 . S
C294 C300 1.465 . S
C295 C290 1.399 . S
C295 C294 1.394 . S
C295 C296 1.516 . S
C296 C295 1.516 . S
C296 C297 1.502 . S
C296 C298 1.561 . S
C296 C299 1.526 . S
C297 H281 0.959 . S
C297 H282 0.959 . S
C297 H283 0.961 . S
C297 C296 1.502 . S
C298 H284 0.960 . S
C298 H285 0.961 . S
C298 H286 0.959 . S
C298 C296 1.561 . S
C299 C296 1.526 . S
C299 C300 1.396 . S
C299 C304 1.390 . S
C300 C294 1.465 . S
C300 C299 1.396 . S
C300 C301 1.399 . S
C301 H287 0.929 . S
C301 C300 1.399 . S
C301 C302 1.385 . S
C302 H288 0.931 . S
C302 C301 1.385 . S
C302 C303 1.389 . S
C303 C302 1.389 . S
C303 C304 1.387 . S
C304 H289 0.930 . S
C304 C299 1.390 . S
C304 C303 1.387 . S
H305 C317 0.930 . S
H306 C319 0.930 . S
H307 C320 0.930 . S
H308 C324 0.959 . S
H309 C324 0.959 . S
H310 C324 0.961 . S
H311 C325 0.960 . S
H312 C325 0.961 . S
H313 C325 0.959 . S
H314 C328 0.929 . S
H315 C329 0.931 . S
H316 C331 0.930 . S
C317 H305 0.930 . S
C317 C318 1.399 . S
C317 C322 1.399 . S
C318 C317 1.399 . S
C318 C319 1.376 . S
C319 H306 0.930 . S
C319 C318 1.376 . S
C319 C320 1.388 . S
C320 H307 0.930 . S
C320 C319 1.388 . S
C320 C321 1.390 . S
C321 C320 1.390 . S
C321 C322 1.394 . S
C321 C327 1.465 . S
C322 C317 1.399 . S
C322 C321 1.394 . S
C322 C323 1.516 . S
C323 C322 1.516 . S
C323 C324 1.502 . S
C323 C325 1.561 . S
C323 C326 1.526 . S
C324 H308 0.959 . S
C324 H309 0.959 . S
C324 H310 0.961 . S
C324 C323 1.502 . S
C325 H311 0.960 . S
C325 H312 0.961 . S
C325 H313 0.959 . S
C325 C323 1.561 . S
C326 C323 1.526 . S
C326 C327 1.396 . S
C326 C331 1.390 . S
C327 C321 1.465 . S
C327 C326 1.396 . S
C327 C328 1.399 . S
C328 H314 0.929 . S
C328 C327 1.399 . S
C328 C329 1.385 . S
C329 H315 0.931 . S
C329 C328 1.385 . S
C329 C330 1.389 . S
C330 C329 1.389 . S
C330 C331 1.387 . S
C331 H316 0.930 . S
C331 C326 1.390 . S
C331 C330 1.387 . S
H332 C344 0.930 . S
H333 C346 0.930 . S
H334 C347 0.930 . S
H335 C351 0.959 . S
H336 C351 0.959 . S
H337 C351 0.961 . S
H338 C352 0.960 . S
H339 C352 0.961 . S
H340 C352 0.959 . S
H341 C355 0.929 . S
H342 C356 0.931 . S
H343 C358 0.930 . S
C344 H332 0.930 . S
C344 C345 1.399 . S
C344 C349 1.399 . S
C345 C344 1.399 . S
C345 C346 1.376 . S
C346 H333 0.930 . S
C346 C345 1.376 . S
C346 C347 1.388 . S
C347 H334 0.930 . S
C347 C346 1.388 . S
C347 C348 1.390 . S
C348 C347 1.390 . S
C348 C349 1.394 . S
C348 C354 1.465 . S
C349 C344 1.399 . S
C349 C348 1.394 . S
C349 C350 1.516 . S
C350 C349 1.516 . S
C350 C351 1.502 . S
C350 C352 1.561 . S
C350 C353 1.526 . S
C351 H335 0.959 . S
C351 H336 0.959 . S
C351 H337 0.961 . S
C351 C350 1.502 . S
C352 H338 0.960 . S
C352 H339 0.961 . S
C352 H340 0.959 . S
C352 C350 1.561 . S
C353 C350 1.526 . S
C353 C354 1.396 . S
C353 C358 1.390 . S
C354 C348 1.465 . S
C354 C353 1.396 . S
C354 C355 1.399 . S
C355 H341 0.929 . S
C355 C354 1.399 . S
C355 C356 1.385 . S
C356 H342 0.931 . S
C356 C355 1.385 . S
C356 C357 1.389 . S
C357 C356 1.389 . S
C357 C358 1.387 . S
C358 H343 0.930 . S
C358 C353 1.390 . S
C358 C357 1.387 . S
H359 C371 0.930 . S
H360 C373 0.930 . S
H361 C374 0.930 . S
H362 C378 0.959 . S
H363 C378 0.959 . S
H364 C378 0.961 . S
H365 C379 0.960 . S
H366 C379 0.961 . S
H367 C379 0.959 . S
H368 C382 0.929 . S
H369 C383 0.931 . S
H370 C385 0.930 . S
C371 H359 0.930 . S
C371 C372 1.399 . S
C371 C376 1.399 . S
C372 C371 1.399 . S
C372 C373 1.376 . S
C373 H360 0.930 . S
C373 C372 1.376 . S
C373 C374 1.388 . S
C374 H361 0.930 . S
C374 C373 1.388 . S
C374 C375 1.390 . S
C375 C374 1.390 . S
C375 C376 1.394 . S
C375 C381 1.465 . S
C376 C371 1.399 . S
C376 C375 1.394 . S
C376 C377 1.516 . S
C377 C376 1.516 . S
C377 C378 1.502 . S
C377 C379 1.561 . S
C377 C380 1.526 . S
C378 H362 0.959 . S
C378 H363 0.959 . S
C378 H364 0.961 . S
C378 C377 1.502 . S
C379 H365 0.960 . S
C379 H366 0.961 . S
C379 H367 0.959 . S
C379 C377 1.561 . S
C380 C377 1.526 . S
C380 C381 1.396 . S
C380 C385 1.390 . S
C381 C375 1.465 . S
C381 C380 1.396 . S
C381 C382 1.399 . S
C382 H368 0.929 . S
C382 C381 1.399 . S
C382 C383 1.385 . S
C383 H369 0.931 . S
C383 C382 1.385 . S
C383 C384 1.389 . S
C384 C383 1.389 . S
C384 C385 1.387 . S
C385 H370 0.930 . S
C385 C380 1.390 . S
C385 C384 1.387 . S
H386 C398 0.930 . S
H387 C400 0.930 . S
H388 C401 0.930 . S
H389 C405 0.959 . S
H390 C405 0.959 . S
H391 C405 0.961 . S
H392 C406 0.960 . S
H393 C406 0.961 . S
H394 C406 0.959 . S
H395 C409 0.929 . S
H396 C410 0.931 . S
H397 C412 0.930 . S
C398 H386 0.930 . S
C398 C399 1.399 . S
C398 C403 1.399 . S
C399 C398 1.399 . S
C399 C400 1.376 . S
C400 H387 0.930 . S
C400 C399 1.376 . S
C400 C401 1.388 . S
C401 H388 0.930 . S
C401 C400 1.388 . S
C401 C402 1.390 . S
C402 C401 1.390 . S
C402 C403 1.394 . S
C402 C408 1.465 . S
C403 C398 1.399 . S
C403 C402 1.394 . S
C403 C404 1.516 . S
C404 C403 1.516 . S
C404 C405 1.502 . S
C404 C406 1.561 . S
C404 C407 1.526 . S
C405 H389 0.959 . S
C405 H390 0.959 . S
C405 H391 0.961 . S
C405 C404 1.502 . S
C406 H392 0.960 . S
C406 H393 0.961 . S
C406 H394 0.959 . S
C406 C404 1.561 . S
C407 C404 1.526 . S
C407 C408 1.396 . S
C407 C412 1.390 . S
C408 C402 1.465 . S
C408 C407 1.396 . S
C408 C409 1.399 . S
C409 H395 0.929 . S
C409 C408 1.399 . S
C409 C410 1.385 . S
C410 H396 0.931 . S
C410 C409 1.385 . S
C410 C411 1.389 . S
C411 C410 1.389 . S
C411 C412 1.387 . S
C412 H397 0.930 . S
C412 C407 1.390 . S
C412 C411 1.387 . S
H413 C425 0.930 . S
H414 C427 0.930 . S
H415 C428 0.930 . S
H416 C432 0.959 . S
H417 C432 0.959 . S
H418 C432 0.961 . S
H419 C433 0.960 . S
H420 C433 0.961 . S
H421 C433 0.959 . S
H422 C436 0.929 . S
H423 C437 0.931 . S
H424 C439 0.930 . S
C425 H413 0.930 . S
C425 C426 1.399 . S
C425 C430 1.399 . S
C426 C425 1.399 . S
C426 C427 1.376 . S
C427 H414 0.930 . S
C427 C426 1.376 . S
C427 C428 1.388 . S
C428 H415 0.930 . S
C428 C427 1.388 . S
C428 C429 1.390 . S
C429 C428 1.390 . S
C429 C430 1.394 . S
C429 C435 1.465 . S
C430 C425 1.399 . S
C430 C429 1.394 . S
C430 C431 1.516 . S
C431 C430 1.516 . S
C431 C432 1.502 . S
C431 C433 1.561 . S
C431 C434 1.526 . S
C432 H416 0.959 . S
C432 H417 0.959 . S
C432 H418 0.961 . S
C432 C431 1.502 . S
C433 H419 0.960 . S
C433 H420 0.961 . S
C433 H421 0.959 . S
C433 C431 1.561 . S
C434 C431 1.526 . S
C434 C435 1.396 . S
C434 C439 1.390 . S
C435 C429 1.465 . S
C435 C434 1.396 . S
C435 C436 1.399 . S
C436 H422 0.929 . S
C436 C435 1.399 . S
C436 C437 1.385 . S
C437 H423 0.931 . S
C437 C436 1.385 . S
C437 C438 1.389 . S
C438 C437 1.389 . S
C438 C439 1.387 . S
C439 H424 0.930 . S
C439 C434 1.390 . S
C439 C438 1.387 . S
H440 C452 0.930 . S
H441 C454 0.930 . S
H442 C455 0.930 . S
H443 C459 0.959 . S
H444 C459 0.959 . S
H445 C459 0.961 . S
H446 C460 0.960 . S
H447 C460 0.961 . S
H448 C460 0.959 . S
H449 C463 0.929 . S
H450 C464 0.931 . S
H451 C466 0.930 . S
C452 H440 0.930 . S
C452 C453 1.399 . S
C452 C457 1.399 . S
C453 C452 1.399 . S
C453 C454 1.376 . S
C454 H441 0.930 . S
C454 C453 1.376 . S
C454 C455 1.388 . S
C455 H442 0.930 . S
C455 C454 1.388 . S
C455 C456 1.390 . S
C456 C455 1.390 . S
C456 C457 1.394 . S
C456 C462 1.465 . S
C457 C452 1.399 . S
C457 C456 1.394 . S
C457 C458 1.516 . S
C458 C457 1.516 . S
C458 C459 1.502 . S
C458 C460 1.561 . S
C458 C461 1.526 . S
C459 H443 0.959 . S
C459 H444 0.959 . S
C459 H445 0.961 . S
C459 C458 1.502 . S
C460 H446 0.960 . S
C460 H447 0.961 . S
C460 H448 0.959 . S
C460 C458 1.561 . S
C461 C458 1.526 . S
C461 C462 1.396 . S
C461 C466 1.390 . S
C462 C456 1.465 . S
C462 C461 1.396 . S
C462 C463 1.399 . S
C463 H449 0.929 . S
C463 C462 1.399 . S
C463 C464 1.385 . S
C464 H450 0.931 . S
C464 C463 1.385 . S
C464 C465 1.389 . S
C465 C464 1.389 . S
C465 C466 1.387 . S
C466 H451 0.930 . S
C466 C461 1.390 . S
C466 C465 1.387 . S
H467 C479 0.930 . S
H468 C481 0.930 . S
H469 C482 0.930 . S
H470 C486 0.959 . S
H471 C486 0.959 . S
H472 C486 0.961 . S
H473 C487 0.960 . S
H474 C487 0.961 . S
H475 C487 0.959 . S
H476 C490 0.929 . S
H477 C491 0.931 . S
H478 C493 0.930 . S
C479 H467 0.930 . S
C479 C480 1.399 . S
C479 C484 1.399 . S
C480 C479 1.399 . S
C480 C481 1.376 . S
C481 H468 0.930 . S
C481 C480 1.376 . S
C481 C482 1.388 . S
C482 H469 0.930 . S
C482 C481 1.388 . S
C482 C483 1.390 . S
C483 C482 1.390 . S
C483 C484 1.394 . S
C483 C489 1.465 . S
C484 C479 1.399 . S
C484 C483 1.394 . S
C484 C485 1.516 . S
C485 C484 1.516 . S
C485 C486 1.502 . S
C485 C487 1.561 . S
C485 C488 1.526 . S
C486 H470 0.959 . S
C486 H471 0.959 . S
C486 H472 0.961 . S
C486 C485 1.502 . S
C487 H473 0.960 . S
C487 H474 0.961 . S
C487 H475 0.959 . S
C487 C485 1.561 . S
C488 C485 1.526 . S
C488 C489 1.396 . S
C488 C493 1.390 . S
C489 C483 1.465 . S
C489 C488 1.396 . S
C489 C490 1.399 . S
C490 H476 0.929 . S
C490 C489 1.399 . S
C490 C491 1.385 . S
C491 H477 0.931 . S
C491 C490 1.385 . S
C491 C492 1.389 . S
C492 C491 1.389 . S
C492 C493 1.387 . S
C493 H478 0.930 . S
C493 C488 1.390 . S
C493 C492 1.387 . S
H494 C506 0.930 . S
H495 C508 0.930 . S
H496 C509 0.930 . S
H497 C513 0.959 . S
H498 C513 0.959 . S
H499 C513 0.961 . S
H500 C514 0.960 . S
H501 C514 0.961 . S
H502 C514 0.959 . S
H503 C517 0.929 . S
H504 C518 0.931 . S
H505 C520 0.930 . S
C506 H494 0.930 . S
C506 C507 1.399 . S
C506 C511 1.399 . S
C507 C506 1.399 . S
C507 C508 1.376 . S
C508 H495 0.930 . S
C508 C507 1.376 . S
C508 C509 1.388 . S
C509 H496 0.930 . S
C509 C508 1.388 . S
C509 C510 1.390 . S
C510 C509 1.390 . S
C510 C511 1.394 . S
C510 C516 1.465 . S
C511 C506 1.399 . S
C511 C510 1.394 . S
C511 C512 1.516 . S
C512 C511 1.516 . S
C512 C513 1.502 . S
C512 C514 1.561 . S
C512 C515 1.526 . S
C513 H497 0.959 . S
C513 H498 0.959 . S
C513 H499 0.961 . S
C513 C512 1.502 . S
C514 H500 0.960 . S
C514 H501 0.961 . S
C514 H502 0.959 . S
C514 C512 1.561 . S
C515 C512 1.526 . S
C515 C516 1.396 . S
C515 C520 1.390 . S
C516 C510 1.465 . S
C516 C515 1.396 . S
C516 C517 1.399 . S
C517 H503 0.929 . S
C517 C516 1.399 . S
C517 C518 1.385 . S
C518 H504 0.931 . S
C518 C517 1.385 . S
C518 C519 1.389 . S
C519 C518 1.389 . S
C519 C520 1.387 . S
C520 H505 0.930 . S
C520 C515 1.390 . S
C520 C519 1.387 . S
H521 C533 0.930 . S
H522 C535 0.930 . S
H523 C536 0.930 . S
H524 C540 0.959 . S
H525 C540 0.959 . S
H526 C540 0.961 . S
H527 C541 0.979 . S
H528 C541 0.961 . S
H529 C541 0.959 . S
H530 C544 0.929 . S
H531 C545 0.931 . S
H532 C547 0.930 . S
C533 H521 0.930 . S
C533 C534 1.399 . S
C533 C538 1.399 . S
C534 C533 1.399 . S
C534 C535 1.376 . S
C535 H522 0.930 . S
C535 C534 1.376 . S
C535 C536 1.388 . S
C536 H523 0.930 . S
C536 C535 1.388 . S
C536 C537 1.390 . S
C537 C536 1.390 . S
C537 C538 1.394 . S
C537 C543 1.465 1_554 S
C538 C533 1.399 . S
C538 C537 1.394 . S
C538 C539 1.516 1_554 S
C539 C538 1.516 1_556 S
C539 C540 1.502 . S
C539 C541 1.561 . S
C539 C542 1.526 . S
C540 H524 0.959 . S
C540 H525 0.959 . S
C540 H526 0.961 . S
C540 C539 1.502 . S
C541 H527 0.979 . S
C541 H528 0.961 . S
C541 H529 0.959 . S
C541 C539 1.561 . S
C542 C539 1.526 . S
C542 C543 1.396 . S
C542 C547 1.390 . S
C543 C537 1.465 1_556 S
C543 C542 1.396 . S
C543 C544 1.399 . S
C544 H530 0.929 . S
C544 C543 1.399 . S
C544 C545 1.385 . S
C545 H531 0.931 . S
C545 C544 1.385 . S
C545 C546 1.389 . S
C546 C545 1.389 . S
C546 C547 1.387 . S
C547 H532 0.930 . S
C547 C542 1.390 . S
C547 C546 1.387 . S
H548 C560 0.930 . S
H549 C562 0.930 . S
H550 C563 0.930 . S
H551 C567 0.959 . S
H552 C567 0.959 . S
H553 C567 0.961 . S
H554 C568 0.960 1_554 S
H555 C568 0.961 . S
H556 C568 0.959 . S
H557 C571 0.929 . S
H558 C572 0.931 . S
H559 C574 0.930 . S
C560 H548 0.930 . S
C560 C561 1.399 . S
C560 C565 1.399 . S
C561 C560 1.399 . S
C561 C562 1.376 . S
C562 H549 0.930 . S
C562 C561 1.376 . S
C562 C563 1.388 . S
C563 H550 0.930 . S
C563 C562 1.388 . S
C563 C564 1.390 . S
C564 C563 1.390 . S
C564 C565 1.394 . S
C564 C570 1.465 1_554 S
C565 C560 1.399 . S
C565 C564 1.394 . S
C565 C566 1.516 1_554 S
C566 C565 1.516 1_556 S
C566 C567 1.502 . S
C566 C568 1.561 . S
C566 C569 1.526 . S
C567 H551 0.959 . S
C567 H552 0.959 . S
C567 H553 0.961 . S
C567 C566 1.502 . S
C568 H554 0.960 1_556 S
C568 H555 0.961 . S
C568 H556 0.959 . S
C568 C566 1.561 . S
C569 C566 1.526 . S
C569 C570 1.396 . S
C569 C574 1.390 . S
C570 C564 1.465 1_556 S
C570 C569 1.396 . S
C570 C571 1.399 . S
C571 H557 0.929 . S
C571 C570 1.399 . S
C571 C572 1.385 . S
C572 H558 0.931 . S
C572 C571 1.385 . S
C572 C573 1.389 . S
C573 C572 1.389 . S
C573 C574 1.387 . S
C574 H559 0.930 . S
C574 C569 1.390 . S
C574 C573 1.387 . S
H575 C587 0.930 . S
H576 C589 0.930 . S
H577 C590 0.930 . S
H578 C594 0.959 . S
H579 C594 0.959 . S
H580 C594 0.961 . S
H581 C595 0.960 . S
H582 C595 0.961 . S
H583 C595 0.959 . S
H584 C598 0.929 . S
H585 C599 0.931 . S
H586 C601 0.930 . S
C587 H575 0.930 . S
C587 C588 1.399 . S
C587 C592 1.399 . S
C588 C587 1.399 . S
C588 C589 1.376 . S
C589 H576 0.930 . S
C589 C588 1.376 . S
C589 C590 1.388 . S
C590 H577 0.930 . S
C590 C589 1.388 . S
C590 C591 1.390 . S
C591 C590 1.390 . S
C591 C592 1.394 . S
C591 C597 1.465 . S
C592 C587 1.399 . S
C592 C591 1.394 . S
C592 C593 1.516 . S
C593 C592 1.516 . S
C593 C594 1.502 . S
C593 C595 1.561 . S
C593 C596 1.526 . S
C594 H578 0.959 . S
C594 H579 0.959 . S
C594 H580 0.961 . S
C594 C593 1.502 . S
C595 H581 0.960 . S
C595 H582 0.961 . S
C595 H583 0.959 . S
C595 C593 1.561 . S
C596 C593 1.526 . S
C596 C597 1.396 . S
C596 C601 1.390 . S
C597 C591 1.465 . S
C597 C596 1.396 . S
C597 C598 1.399 . S
C598 H584 0.929 . S
C598 C597 1.399 . S
C598 C599 1.385 . S
C599 H585 0.931 . S
C599 C598 1.385 . S
C599 C600 1.389 . S
C600 C599 1.389 . S
C600 C601 1.387 . S
C601 H586 0.930 . S
C601 C596 1.390 . S
C601 C600 1.387 . S
H602 C614 0.930 . S
H603 C616 0.930 . S
H604 C617 0.930 . S
H605 C621 0.959 . S
H606 C621 0.959 . S
H607 C621 0.961 . S
H608 C622 0.960 . S
H609 C622 0.961 . S
H610 C622 0.959 . S
H611 C625 0.929 . S
H612 C626 0.931 . S
H613 C628 0.930 . S
C614 H602 0.930 . S
C614 C615 1.399 . S
C614 C619 1.399 . S
C615 C614 1.399 . S
C615 C616 1.376 . S
C616 H603 0.930 . S
C616 C615 1.376 . S
C616 C617 1.388 . S
C617 H604 0.930 . S
C617 C616 1.388 . S
C617 C618 1.390 . S
C618 C617 1.390 . S
C618 C619 1.394 . S
C618 C624 1.465 . S
C619 C614 1.399 . S
C619 C618 1.394 . S
C619 C620 1.516 . S
C620 C619 1.516 . S
C620 C621 1.502 . S
C620 C622 1.561 . S
C620 C623 1.526 . S
C621 H605 0.959 . S
C621 H606 0.959 . S
C621 H607 0.961 . S
C621 C620 1.502 . S
C622 H608 0.960 . S
C622 H609 0.961 . S
C622 H610 0.959 . S
C622 C620 1.561 . S
C623 C620 1.526 . S
C623 C624 1.396 . S
C623 C628 1.390 . S
C624 C618 1.465 . S
C624 C623 1.396 . S
C624 C625 1.399 . S
C625 H611 0.929 . S
C625 C624 1.399 . S
C625 C626 1.385 . S
C626 H612 0.931 . S
C626 C625 1.385 . S
C626 C627 1.389 . S
C627 C626 1.389 . S
C627 C628 1.387 . S
C628 H613 0.930 . S
C628 C623 1.390 . S
C628 C627 1.387 . S
H629 C641 0.930 . S
H630 C643 0.930 . S
H631 C644 0.930 . S
H632 C648 0.959 . S
H633 C648 0.959 . S
H634 C648 0.961 . S
H635 C649 0.960 . S
H636 C649 0.961 . S
H637 C649 0.959 . S
H638 C652 0.929 . S
H639 C653 0.931 . S
H640 C655 0.930 . S
C641 H629 0.930 . S
C641 C642 1.399 . S
C641 C646 1.399 . S
C642 C641 1.399 . S
C642 C643 1.376 . S
C643 H630 0.930 . S
C643 C642 1.376 . S
C643 C644 1.388 . S
C644 H631 0.930 . S
C644 C643 1.388 . S
C644 C645 1.390 . S
C645 C644 1.390 . S
C645 C646 1.394 . S
C645 C651 1.465 . S
C646 C641 1.399 . S
C646 C645 1.394 . S
C646 C647 1.516 . S
C647 C646 1.516 . S
C647 C648 1.502 . S
C647 C649 1.561 . S
C647 C650 1.526 . S
C648 H632 0.959 . S
C648 H633 0.959 . S
C648 H634 0.961 . S
C648 C647 1.502 . S
C649 H635 0.960 . S
C649 H636 0.961 . S
C649 H637 0.959 . S
C649 C647 1.561 . S
C650 C647 1.526 . S
C650 C651 1.396 . S
C650 C655 1.390 . S
C651 C645 1.465 . S
C651 C650 1.396 . S
C651 C652 1.399 . S
C652 H638 0.929 . S
C652 C651 1.399 . S
C652 C653 1.385 . S
C653 H639 0.931 . S
C653 C652 1.385 . S
C653 C654 1.389 . S
C654 C653 1.389 . S
C654 C655 1.387 . S
C655 H640 0.930 . S
C655 C650 1.390 . S
C655 C654 1.387 . S
H656 C668 0.930 . S
H657 C670 0.930 . S
H658 C671 0.930 . S
H659 C675 0.959 . S
H660 C675 0.959 . S
H661 C675 0.961 . S
H662 C676 0.960 1_455 S
H663 C676 0.961 . S
H664 C676 0.959 1_465 S
H665 C679 0.929 . S
H666 C680 0.931 . S
H667 C682 0.930 . S
C668 H656 0.930 . S
C668 C669 1.399 . S
C668 C673 1.399 . S
C669 C668 1.399 . S
C669 C670 1.376 . S
C670 H657 0.930 . S
C670 C669 1.376 . S
C670 C671 1.388 1_545 S
C671 H658 0.930 . S
C671 C670 1.388 1_565 S
C671 C672 1.390 . S
C672 C671 1.390 . S
C672 C673 1.394 1_565 S
C672 C678 1.465 1_455 S
C673 C668 1.399 . S
C673 C672 1.394 1_545 S
C673 C674 1.516 1_455 S
C674 C673 1.516 1_655 S
C674 C675 1.502 . S
C674 C676 1.561 . S
C674 C677 1.526 1_545 S
C675 H659 0.959 . S
C675 H660 0.959 . S
C675 H661 0.961 . S
C675 C674 1.502 . S
C676 H662 0.960 1_655 S
C676 H663 0.961 . S
C676 H664 0.959 1_645 S
C676 C674 1.561 . S
C677 C674 1.526 1_565 S
C677 C678 1.396 . S
C677 C682 1.390 . S
C678 C672 1.465 1_655 S
C678 C677 1.396 . S
C678 C679 1.399 . S
C679 H665 0.929 . S
C679 C678 1.399 . S
C679 C680 1.385 . S
C680 H666 0.931 . S
C680 C679 1.385 . S
C680 C681 1.389 . S
C681 C680 1.389 . S
C681 C682 1.387 . S
C682 H667 0.930 . S
C682 C677 1.390 . S
C682 C681 1.387 . S
H683 C695 0.930 . S
H684 C697 0.930 1_655 S
H685 C698 0.930 . S
H686 C702 0.959 . S
H687 C702 0.959 . S
H688 C702 0.961 . S
H689 C703 0.960 . S
H690 C703 0.961 . S
H691 C703 0.959 . S
H692 C706 0.929 . S
H693 C707 0.931 . S
H694 C709 0.930 1_455 S
C695 H683 0.930 . S
C695 C696 1.399 . S
C695 C700 1.399 . S
C696 C695 1.399 . S
C696 C697 1.376 . S
C697 H684 0.930 1_455 S
C697 C696 1.376 . S
C697 C698 1.388 1_455 S
C698 H685 0.930 . S
C698 C697 1.388 1_655 S
C698 C699 1.390 . S
C699 C698 1.390 . S
C699 C700 1.394 1_655 S
C699 C705 1.465 . S
C700 C695 1.399 . S
C700 C699 1.394 1_455 S
C700 C701 1.516 . S
C701 C700 1.516 . S
C701 C702 1.502 . S
C701 C703 1.561 . S
C701 C704 1.526 1_455 S
C702 H686 0.959 . S
C702 H687 0.959 . S
C702 H688 0.961 . S
C702 C701 1.502 . S
C703 H689 0.960 . S
C703 H690 0.961 . S
C703 H691 0.959 . S
C703 C701 1.561 . S
C704 C701 1.526 1_655 S
C704 C705 1.396 . S
C704 C709 1.390 . S
C705 C699 1.465 . S
C705 C704 1.396 . S
C705 C706 1.399 . S
C706 H692 0.929 . S
C706 C705 1.399 . S
C706 C707 1.385 . S
C707 H693 0.931 . S
C707 C706 1.385 . S
C707 C708 1.389 . S
C708 C707 1.389 . S
C708 C709 1.387 . S
C709 H694 0.930 1_655 S
C709 C704 1.390 . S
C709 C708 1.387 . S
H710 C722 0.930 . S
H711 C724 0.930 . S
H712 C725 0.930 . S
H713 C729 0.959 . S
H714 C729 0.959 . S
H715 C729 0.961 . S
H716 C730 0.960 . S
H717 C730 0.961 . S
H718 C730 0.959 . S
H719 C733 0.929 . S
H720 C734 0.931 . S
H721 C736 0.930 . S
C722 H710 0.930 . S
C722 C723 1.399 . S
C722 C727 1.399 . S
C723 C722 1.399 . S
C723 C724 1.376 . S
C724 H711 0.930 . S
C724 C723 1.376 . S
C724 C725 1.388 . S
C725 H712 0.930 . S
C725 C724 1.388 . S
C725 C726 1.390 . S
C726 C725 1.390 . S
C726 C727 1.394 . S
C726 C732 1.465 . S
C727 C722 1.399 . S
C727 C726 1.394 . S
C727 C728 1.516 . S
C728 C727 1.516 . S
C728 C729 1.502 . S
C728 C730 1.561 . S
C728 C731 1.526 . S
C729 H713 0.959 . S
C729 H714 0.959 . S
C729 H715 0.961 . S
C729 C728 1.502 . S
C730 H716 0.960 . S
C730 H717 0.961 . S
C730 H718 0.959 . S
C730 C728 1.561 . S
C731 C728 1.526 . S
C731 C732 1.396 . S
C731 C736 1.390 . S
C732 C726 1.465 . S
C732 C731 1.396 . S
C732 C733 1.399 . S
C733 H719 0.929 . S
C733 C732 1.399 . S
C733 C734 1.385 . S
C734 H720 0.931 . S
C734 C733 1.385 . S
C734 C735 1.389 . S
C735 C734 1.389 . S
C735 C736 1.387 . S
C736 H721 0.930 . S
C736 C731 1.390 . S
C736 C735 1.387 . S
H737 C749 0.930 . S
H738 C751 0.930 . S
H739 C752 0.930 . S
H740 C756 0.959 . S
H741 C756 0.959 . S
H742 C756 0.961 1_545 S
H743 C757 0.960 . S
H744 C757 0.961 . S
H745 C757 0.959 . S
H746 C760 0.929 . S
H747 C761 0.931 . S
H748 C763 0.930 . S
C749 H737 0.930 . S
C749 C750 1.399 . S
C749 C754 1.399 . S
C750 C749 1.399 . S
C750 C751 1.376 . S
C751 H738 0.930 . S
C751 C750 1.376 . S
C751 C752 1.388 . S
C752 H739 0.930 . S
C752 C751 1.388 . S
C752 C753 1.390 . S
C753 C752 1.390 . S
C753 C754 1.394 . S
C753 C759 1.465 1_545 S
C754 C749 1.399 . S
C754 C753 1.394 . S
C754 C755 1.516 . S
C755 C754 1.516 . S
C755 C756 1.502 1_545 S
C755 C757 1.561 . S
C755 C758 1.526 1_545 S
C756 H740 0.959 . S
C756 H741 0.959 . S
C756 H742 0.961 1_565 S
C756 C755 1.502 1_565 S
C757 H743 0.960 . S
C757 H744 0.961 . S
C757 H745 0.959 . S
C757 C755 1.561 . S
C758 C755 1.526 1_565 S
C758 C759 1.396 . S
C758 C763 1.390 . S
C759 C753 1.465 1_565 S
C759 C758 1.396 . S
C759 C760 1.399 . S
C760 H746 0.929 . S
C760 C759 1.399 . S
C760 C761 1.385 . S
C761 H747 0.931 . S
C761 C760 1.385 . S
C761 C762 1.389 . S
C762 C761 1.389 . S
C762 C763 1.387 . S
C763 H748 0.930 . S
C763 C758 1.390 . S
C763 C762 1.387 . S
H764 C776 0.930 . S
H765 C778 0.930 . S
H766 C779 0.930 . S
H767 C783 0.959 . S
H768 C783 0.959 . S
H769 C783 0.961 . S
H770 C784 0.960 1_455 S
H771 C784 0.961 . S
H772 C784 0.959 1_455 S
H773 C787 0.929 . S
H774 C788 0.931 . S
H775 C790 0.930 . S
C776 H764 0.930 . S
C776 C777 1.399 . S
C776 C781 1.399 . S
C777 C776 1.399 . S
C777 C778 1.376 . S
C778 H765 0.930 . S
C778 C777 1.376 . S
C778 C779 1.388 . S
C779 H766 0.930 . S
C779 C778 1.388 . S
C779 C780 1.390 . S
C780 C779 1.390 . S
C780 C781 1.394 . S
C780 C786 1.465 1_455 S
C781 C776 1.399 . S
C781 C780 1.394 . S
C781 C782 1.516 1_455 S
C782 C781 1.516 1_655 S
C782 C783 1.502 . S
C782 C784 1.561 . S
C782 C785 1.526 . S
C783 H767 0.959 . S
C783 H768 0.959 . S
C783 H769 0.961 . S
C783 C782 1.502 . S
C784 H770 0.960 1_655 S
C784 H771 0.961 . S
C784 H772 0.959 1_655 S
C784 C782 1.561 . S
C785 C782 1.526 . S
C785 C786 1.396 . S
C785 C790 1.390 . S
C786 C780 1.465 1_655 S
C786 C785 1.396 . S
C786 C787 1.399 . S
C787 H773 0.929 . S
C787 C786 1.399 . S
C787 C788 1.385 . S
C788 H774 0.931 . S
C788 C787 1.385 . S
C788 C789 1.389 . S
C789 C788 1.389 . S
C789 C790 1.387 . S
C790 H775 0.930 . S
C790 C785 1.390 . S
C790 C789 1.387 . S
H791 C803 0.930 . S
H792 C805 0.930 . S
H793 C806 0.930 . S
H794 C810 0.959 . S
H795 C810 0.959 . S
H796 C810 0.961 . S
H797 C811 0.960 . S
H798 C811 0.961 . S
H799 C811 0.959 . S
H800 C814 0.929 . S
H801 C815 0.931 . S
H802 C817 0.930 . S
C803 H791 0.930 . S
C803 C804 1.399 . S
C803 C808 1.399 . S
C804 C803 1.399 . S
C804 C805 1.376 . S
C805 H792 0.930 . S
C805 C804 1.376 . S
C805 C806 1.388 . S
C806 H793 0.930 . S
C806 C805 1.388 . S
C806 C807 1.390 . S
C807 C806 1.390 . S
C807 C808 1.394 . S
C807 C813 1.465 . S
C808 C803 1.399 . S
C808 C807 1.394 . S
C808 C809 1.516 . S
C809 C808 1.516 . S
C809 C810 1.502 . S
C809 C811 1.561 . S
C809 C812 1.526 . S
C810 H794 0.959 . S
C810 H795 0.959 . S
C810 H796 0.961 . S
C810 C809 1.502 . S
C811 H797 0.960 . S
C811 H798 0.961 . S
C811 H799 0.959 . S
C811 C809 1.561 . S
C812 C809 1.526 . S
C812 C813 1.396 . S
C812 C817 1.390 . S
C813 C807 1.465 . S
C813 C812 1.396 . S
C813 C814 1.399 . S
C814 H800 0.929 . S
C814 C813 1.399 . S
C814 C815 1.385 . S
C815 H801 0.931 . S
C815 C814 1.385 . S
C815 C816 1.389 . S
C816 C815 1.389 . S
C816 C817 1.387 . S
C817 H802 0.930 . S
C817 C812 1.390 . S
C817 C816 1.387 . S
H818 C830 0.930 . S
H819 C832 0.930 . S
H820 C833 0.930 . S
H821 C837 0.959 . S
H822 C837 0.959 . S
H823 C837 0.961 . S
H824 C838 0.961 . S
H825 C838 0.958 1_545 S
H826 C838 0.963 . S
H827 C841 0.929 . S
H828 C842 0.931 . S
H829 C844 0.930 . S
C830 H818 0.930 . S
C830 C831 1.399 . S
C830 C835 1.399 . S
C831 C830 1.399 . S
C831 C832 1.376 . S
C832 H819 0.930 . S
C832 C831 1.376 . S
C832 C833 1.388 . S
C833 H820 0.930 . S
C833 C832 1.388 . S
C833 C834 1.390 . S
C834 C833 1.390 . S
C834 C835 1.394 . S
C834 C840 1.465 . S
C835 C830 1.399 . S
C835 C834 1.394 . S
C835 C836 1.516 1_565 S
C836 C835 1.516 1_545 S
C836 C837 1.502 . S
C836 C838 1.559 1_545 S
C836 C839 1.526 . S
C837 H821 0.959 . S
C837 H822 0.959 . S
C837 H823 0.961 . S
C837 C836 1.502 . S
C838 H824 0.961 . S
C838 H825 0.958 1_565 S
C838 H826 0.963 . S
C838 C836 1.559 1_565 S
C839 C836 1.526 . S
C839 C840 1.396 1_545 S
C839 C844 1.390 . S
C840 C834 1.465 . S
C840 C839 1.396 1_565 S
C840 C841 1.399 . S
C841 H827 0.929 . S
C841 C840 1.399 . S
C841 C842 1.385 1_565 S
C842 H828 0.931 . S
C842 C841 1.385 1_545 S
C842 C843 1.389 . S
C843 C842 1.389 . S
C843 C844 1.387 . S
C844 H829 0.930 . S
C844 C839 1.390 . S
C844 C843 1.387 . S
H845 C857 0.930 . S
H846 C859 0.930 . S
H847 C860 0.930 1_655 S
H848 C864 0.959 . S
H849 C864 0.959 . S
H850 C864 0.961 . S
H851 C865 0.954 1_455 S
H852 C865 0.961 1_565 S
H853 C865 0.959 . S
H854 C868 0.929 . S
H855 C869 0.931 . S
H856 C871 0.930 . S
C857 H845 0.930 . S
C857 C858 1.399 . S
C857 C862 1.399 . S
C858 C857 1.399 . S
C858 C859 1.376 . S
C859 H846 0.930 . S
C859 C858 1.376 . S
C859 C860 1.388 . S
C860 H847 0.930 1_455 S
C860 C859 1.388 . S
C860 C861 1.389 1_455 S
C861 C860 1.389 1_655 S
C861 C862 1.388 1_655 S
C861 C867 1.471 1_545 S
C862 C857 1.399 . S
C862 C861 1.388 1_455 S
C862 C863 1.516 1_545 S
C863 C862 1.516 1_565 S
C863 C864 1.502 . S
C863 C865 1.561 1_465 S
C863 C866 1.526 1_455 S
C864 H848 0.959 . S
C864 H849 0.959 . S
C864 H850 0.961 . S
C864 C863 1.502 . S
C865 H851 0.954 1_655 S
C865 H852 0.961 1_545 S
C865 H853 0.959 . S
C865 C863 1.561 1_645 S
C866 C863 1.526 1_655 S
C866 C867 1.396 . S
C866 C871 1.390 . S
C867 C861 1.471 1_565 S
C867 C866 1.396 . S
C867 C868 1.399 . S
C868 H854 0.929 . S
C868 C867 1.399 . S
C868 C869 1.385 . S
C869 H855 0.931 . S
C869 C868 1.385 . S
C869 C870 1.389 . S
C870 C869 1.389 . S
C870 C871 1.387 . S
C871 H856 0.930 . S
C871 C866 1.390 . S
C871 C870 1.387 . S
H872 C884 0.930 . S
H873 C886 0.930 . S
H874 C887 0.930 1_545 S
H875 C891 0.959 . S
H876 C891 0.959 . S
H877 C891 0.961 . S
H878 C892 0.960 . S
H879 C892 0.961 . S
H880 C892 0.959 . S
H881 C895 0.929 . S
H882 C896 0.931 . S
H883 C898 0.930 . S
C884 H872 0.930 . S
C884 C885 1.399 . S
C884 C889 1.399 . S
C885 C884 1.399 . S
C885 C886 1.376 . S
C886 H873 0.930 . S
C886 C885 1.376 . S
C886 C887 1.388 . S
C887 H874 0.930 1_565 S
C887 C886 1.388 . S
C887 C888 1.390 . S
C888 C887 1.390 . S
C888 C889 1.394 . S
C888 C894 1.465 1_565 S
C889 C884 1.399 . S
C889 C888 1.394 . S
C889 C890 1.516 . S
C890 C889 1.516 . S
C890 C891 1.502 . S
C890 C892 1.561 1_565 S
C890 C893 1.526 1_565 S
C891 H875 0.959 . S
C891 H876 0.959 . S
C891 H877 0.961 . S
C891 C890 1.502 . S
C892 H878 0.960 . S
C892 H879 0.961 . S
C892 H880 0.959 . S
C892 C890 1.561 1_545 S
C893 C890 1.526 1_545 S
C893 C894 1.396 . S
C893 C898 1.390 . S
C894 C888 1.465 1_545 S
C894 C893 1.396 . S
C894 C895 1.399 . S
C895 H881 0.929 . S
C895 C894 1.399 . S
C895 C896 1.385 . S
C896 H882 0.931 . S
C896 C895 1.385 . S
C896 C897 1.389 . S
C897 C896 1.389 . S
C897 C898 1.387 . S
C898 H883 0.930 . S
C898 C893 1.390 . S
C898 C897 1.387 . S
H899 C911 0.930 1_455 S
H900 C913 0.930 . S
H901 C914 0.929 1_545 S
H902 C918 0.959 . S
H903 C918 0.959 . S
H904 C918 0.961 . S
H905 C919 0.960 . S
H906 C919 0.961 . S
H907 C919 0.959 . S
H908 C922 0.929 . S
H909 C923 0.931 1_655 S
H910 C925 0.930 . S
C911 H899 0.930 1_655 S
C911 C912 1.399 . S
C911 C916 1.399 1_655 S
C912 C911 1.399 . S
C912 C913 1.376 . S
C913 H900 0.930 . S
C913 C912 1.376 . S
C913 C914 1.388 . S
C914 H901 0.929 1_565 S
C914 C913 1.388 . S
C914 C915 1.390 . S
C915 C914 1.390 . S
C915 C916 1.394 1_655 S
C915 C921 1.465 1_565 S
C916 C911 1.399 1_455 S
C916 C915 1.394 1_455 S
C916 C917 1.516 . S
C917 C916 1.516 . S
C917 C918 1.502 . S
C917 C919 1.561 . S
C917 C920 1.526 1_565 S
C918 H902 0.959 . S
C918 H903 0.959 . S
C918 H904 0.961 . S
C918 C917 1.502 . S
C919 H905 0.960 . S
C919 H906 0.961 . S
C919 H907 0.959 . S
C919 C917 1.561 . S
C920 C917 1.526 1_545 S
C920 C921 1.396 1_455 S
C920 C925 1.390 . S
C921 C915 1.465 1_545 S
C921 C920 1.396 1_655 S
C921 C922 1.399 . S
C922 H908 0.929 . S
C922 C921 1.399 . S
C922 C923 1.385 1_655 S
C923 H909 0.931 1_455 S
C923 C922 1.385 1_455 S
C923 C924 1.389 . S
C924 C923 1.389 . S
C924 C925 1.387 . S
C925 H910 0.930 . S
C925 C920 1.390 . S
C925 C924 1.387 . S
H926 C938 0.930 . S
H927 C940 0.930 . S
H928 C941 0.930 . S
H929 C945 0.959 . S
H930 C945 0.959 . S
H931 C945 0.961 . S
H932 C946 0.960 . S
H933 C946 0.961 1_655 S
H934 C946 0.959 1_655 S
H935 C949 0.929 . S
H936 C950 0.931 . S
H937 C952 0.930 . S
C938 H926 0.930 . S
C938 C939 1.399 . S
C938 C943 1.399 . S
C939 C938 1.399 . S
C939 C940 1.376 . S
C940 H927 0.930 . S
C940 C939 1.376 . S
C940 C941 1.388 . S
C941 H928 0.930 . S
C941 C940 1.388 . S
C941 C942 1.390 . S
C942 C941 1.390 . S
C942 C943 1.394 . S
C942 C948 1.465 1_455 S
C943 C938 1.399 . S
C943 C942 1.394 . S
C943 C944 1.516 . S
C944 C943 1.516 . S
C944 C945 1.502 . S
C944 C946 1.561 . S
C944 C947 1.526 1_455 S
C945 H929 0.959 . S
C945 H930 0.959 . S
C945 H931 0.961 . S
C945 C944 1.502 . S
C946 H932 0.960 . S
C946 H933 0.961 1_455 S
C946 H934 0.959 1_455 S
C946 C944 1.561 . S
C947 C944 1.526 1_655 S
C947 C948 1.396 . S
C947 C952 1.390 . S
C948 C942 1.465 1_655 S
C948 C947 1.396 . S
C948 C949 1.399 . S
C949 H935 0.929 . S
C949 C948 1.399 . S
C949 C950 1.385 . S
C950 H936 0.931 . S
C950 C949 1.385 . S
C950 C951 1.389 . S
C951 C950 1.389 . S
C951 C952 1.387 . S
C952 H937 0.930 . S
C952 C947 1.390 . S
C952 C951 1.387 . S
H953 C965 0.930 . S
H954 C967 0.930 . S
H955 C968 0.930 . S
H956 C972 0.959 . S
H957 C972 0.959 . S
H958 C972 0.961 . S
H959 C973 0.960 . S
H960 C973 0.961 . S
H961 C973 0.959 . S
H962 C976 0.929 . S
H963 C977 0.931 . S
H964 C979 0.930 . S
C965 H953 0.930 . S
C965 C966 1.399 . S
C965 C970 1.399 . S
C966 C965 1.399 . S
C966 C967 1.376 . S
C967 H954 0.930 . S
C967 C966 1.376 . S
C967 C968 1.388 . S
C968 H955 0.930 . S
C968 C967 1.388 . S
C968 C969 1.390 . S
C969 C968 1.390 . S
C969 C970 1.394 . S
C969 C975 1.465 . S
C970 C965 1.399 . S
C970 C969 1.394 . S
C970 C971 1.516 . S
C971 C970 1.516 . S
C971 C972 1.502 . S
C971 C973 1.561 . S
C971 C974 1.526 . S
C972 H956 0.959 . S
C972 H957 0.959 . S
C972 H958 0.961 . S
C972 C971 1.502 . S
C973 H959 0.960 . S
C973 H960 0.961 . S
C973 H961 0.959 . S
C973 C971 1.561 . S
C974 C971 1.526 . S
C974 C975 1.396 . S
C974 C979 1.390 . S
C975 C969 1.465 . S
C975 C974 1.396 . S
C975 C976 1.399 . S
C976 H962 0.929 . S
C976 C975 1.399 . S
C976 C977 1.385 . S
C977 H963 0.931 . S
C977 C976 1.385 . S
C977 C978 1.389 . S
C978 C977 1.389 . S
C978 C979 1.387 . S
C979 H964 0.930 . S
C979 C974 1.390 . S
C979 C978 1.387 . S
H980 C992 0.930 . S
H981 C994 0.930 . S
H982 C995 0.930 . S
H983 C999 0.959 . S
H984 C999 0.959 . S
H985 C999 0.961 . S
H986 C1000 0.960 . S
H987 C1000 0.961 . S
H988 C1000 0.959 . S
H989 C1003 0.929 . S
H990 C1004 0.931 . S
H991 C1006 0.930 . S
C992 H980 0.930 . S
C992 C993 1.399 . S
C992 C997 1.399 . S
C993 C992 1.399 . S
C993 C994 1.376 . S
C994 H981 0.930 . S
C994 C993 1.376 . S
C994 C995 1.388 . S
C995 H982 0.930 . S
C995 C994 1.388 . S
C995 C996 1.390 . S
C996 C995 1.390 . S
C996 C997 1.394 . S
C996 C1002 1.465 . S
C997 C992 1.399 . S
C997 C996 1.394 . S
C997 C998 1.516 . S
C998 C997 1.516 . S
C998 C999 1.502 . S
C998 C1000 1.561 . S
C998 C1001 1.526 . S
C999 H983 0.959 . S
C999 H984 0.959 . S
C999 H985 0.961 . S
C999 C998 1.502 . S
C1000 H986 0.960 . S
C1000 H987 0.961 . S
C1000 H988 0.959 . S
C1000 C998 1.561 . S
C1001 C998 1.526 . S
C1001 C1002 1.396 . S
C1001 C1006 1.390 . S
C1002 C996 1.465 . S
C1002 C1001 1.396 . S
C1002 C1003 1.399 . S
C1003 H989 0.929 . S
C1003 C1002 1.399 . S
C1003 C1004 1.385 . S
C1004 H990 0.931 . S
C1004 C1003 1.385 . S
C1004 C1005 1.389 . S
C1005 C1004 1.389 . S
C1005 C1006 1.387 . S
C1006 H991 0.930 . S
C1006 C1001 1.390 . S
C1006 C1005 1.387 . S
H1007 C1019 0.930 . S
H1008 C1021 0.930 . S
H1009 C1022 0.930 . S
H1010 C1026 0.959 . S
H1011 C1026 0.959 . S
H1012 C1026 0.961 . S
H1013 C1027 0.960 . S
H1014 C1027 0.961 1_565 S
H1015 C1027 0.959 . S
H1016 C1030 0.929 . S
H1017 C1031 0.931 . S
H1018 C1033 0.930 . S
C1019 H1007 0.930 . S
C1019 C1020 1.399 . S
C1019 C1024 1.399 . S
C1020 C1019 1.399 . S
C1020 C1021 1.376 . S
C1021 H1008 0.930 . S
C1021 C1020 1.376 . S
C1021 C1022 1.388 . S
C1022 H1009 0.930 . S
C1022 C1021 1.388 . S
C1022 C1023 1.390 . S
C1023 C1022 1.390 . S
C1023 C1024 1.394 . S
C1023 C1029 1.465 1_545 S
C1024 C1019 1.399 . S
C1024 C1023 1.394 . S
C1024 C1025 1.516 1_545 S
C1025 C1024 1.516 1_565 S
C1025 C1026 1.502 . S
C1025 C1027 1.561 1_565 S
C1025 C1028 1.526 . S
C1026 H1010 0.959 . S
C1026 H1011 0.959 . S
C1026 H1012 0.961 . S
C1026 C1025 1.502 . S
C1027 H1013 0.960 . S
C1027 H1014 0.961 1_545 S
C1027 H1015 0.959 . S
C1027 C1025 1.561 1_545 S
C1028 C1025 1.526 . S
C1028 C1029 1.396 . S
C1028 C1033 1.390 . S
C1029 C1023 1.465 1_565 S
C1029 C1028 1.396 . S
C1029 C1030 1.399 . S
C1030 H1016 0.929 . S
C1030 C1029 1.399 . S
C1030 C1031 1.385 . S
C1031 H1017 0.931 . S
C1031 C1030 1.385 . S
C1031 C1032 1.389 . S
C1032 C1031 1.389 . S
C1032 C1033 1.387 . S
C1033 H1018 0.930 . S
C1033 C1028 1.390 . S
C1033 C1032 1.387 . S
H1034 C1046 0.930 . S
H1035 C1048 0.930 . S
H1036 C1049 0.930 . S
H1037 C1053 0.959 . S
H1038 C1053 0.959 1_455 S
H1039 C1053 0.961 . S
H1040 C1054 0.960 . S
H1041 C1054 0.961 . S
H1042 C1054 0.959 . S
H1043 C1057 0.929 . S
H1044 C1058 0.931 . S
H1045 C1060 0.930 . S
C1046 H1034 0.930 . S
C1046 C1047 1.399 . S
C1046 C1051 1.399 . S
C1047 C1046 1.399 . S
C1047 C1048 1.376 . S
C1048 H1035 0.930 . S
C1048 C1047 1.376 . S
C1048 C1049 1.388 . S
C1049 H1036 0.930 . S
C1049 C1048 1.388 . S
C1049 C1050 1.390 . S
C1050 C1049 1.390 . S
C1050 C1051 1.394 . S
C1050 C1056 1.465 1_665 S
C1051 C1046 1.399 . S
C1051 C1050 1.394 . S
C1051 C1052 1.516 1_655 S
C1052 C1051 1.516 1_455 S
C1052 C1053 1.502 1_465 S
C1052 C1054 1.561 . S
C1052 C1055 1.526 1_565 S
C1053 H1037 0.959 . S
C1053 H1038 0.959 1_655 S
C1053 H1039 0.961 . S
C1053 C1052 1.502 1_645 S
C1054 H1040 0.960 . S
C1054 H1041 0.961 . S
C1054 H1042 0.959 . S
C1054 C1052 1.561 . S
C1055 C1052 1.526 1_545 S
C1055 C1056 1.396 . S
C1055 C1060 1.390 . S
C1056 C1050 1.465 1_445 S
C1056 C1055 1.396 . S
C1056 C1057 1.399 . S
C1057 H1043 0.929 . S
C1057 C1056 1.399 . S
C1057 C1058 1.385 . S
C1058 H1044 0.931 . S
C1058 C1057 1.385 . S
C1058 C1059 1.389 . S
C1059 C1058 1.389 . S
C1059 C1060 1.387 . S
C1060 H1045 0.930 . S
C1060 C1055 1.390 . S
C1060 C1059 1.387 . S
H1061 C1073 0.930 . S
H1062 C1075 0.930 . S
H1063 C1076 0.930 . S
H1064 C1080 0.959 . S
H1065 C1080 0.959 . S
H1066 C1080 0.961 . S
H1067 C1081 0.960 1_655 S
H1068 C1081 0.961 . S
H1069 C1081 0.959 . S
H1070 C1084 0.929 . S
H1071 C1085 0.931 . S
H1072 C1087 0.930 . S
C1073 H1061 0.930 . S
C1073 C1074 1.399 . S
C1073 C1078 1.399 . S
C1074 C1073 1.399 . S
C1074 C1075 1.376 . S
C1075 H1062 0.930 . S
C1075 C1074 1.376 . S
C1075 C1076 1.388 1_655 S
C1076 H1063 0.930 . S
C1076 C1075 1.388 1_455 S
C1076 C1077 1.390 . S
C1077 C1076 1.390 . S
C1077 C1078 1.394 1_455 S
C1077 C1083 1.465 . S
C1078 C1073 1.399 . S
C1078 C1077 1.394 1_655 S
C1078 C1079 1.516 . S
C1079 C1078 1.516 . S
C1079 C1080 1.502 . S
C1079 C1081 1.561 1_655 S
C1079 C1082 1.526 1_655 S
C1080 H1064 0.959 . S
C1080 H1065 0.959 . S
C1080 H1066 0.961 . S
C1080 C1079 1.502 . S
C1081 H1067 0.960 1_455 S
C1081 H1068 0.961 . S
C1081 H1069 0.959 . S
C1081 C1079 1.561 1_455 S
C1082 C1079 1.526 1_455 S
C1082 C1083 1.396 . S
C1082 C1087 1.390 . S
C1083 C1077 1.465 . S
C1083 C1082 1.396 . S
C1083 C1084 1.399 . S
C1084 H1070 0.929 . S
C1084 C1083 1.399 . S
C1084 C1085 1.385 . S
C1085 H1071 0.931 . S
C1085 C1084 1.385 . S
C1085 C1086 1.389 . S
C1086 C1085 1.389 . S
C1086 C1087 1.387 . S
C1087 H1072 0.930 . S
C1087 C1082 1.390 . S
C1087 C1086 1.387 . S
C237 C65 1.346 . S
C249 C9 1.321 . S
C264 C23 1.355 . S
C276 C79 1.341 . S
C291 C93 1.351 . S
C303 C37 1.346 . S
C318 C107 1.321 . S
C330 C51 1.342 . S
C345 C177 1.327 . S
C357 C121 1.357 . S
C372 C135 1.357 . S
C384 C191 1.335 . S
C399 C205 1.348 . S
C411 C149 1.321 . S
C426 C163 1.324 . S
C438 C219 1.336 . S
C453 C0 1.374 . S
C465 C210 1.404 . S
C480 C14 1.409 . S
C492 C168 1.407 . S
C507 C28 1.401 . S
C519 C182 1.374 . S
C534 C196 1.376 . S
C546 C42 1.408 . S
C561 C56 1.382 . S
C573 C126 1.412 . S
C588 C70 1.413 . S
C600 C140 1.401 . S
C615 C154 1.410 . S
C627 C84 1.406 . S
C642 C112 1.409 . S
C654 C98 1.378 . S
C669 C11 1.575 . S
C681 C151 1.597 . S
C696 C165 1.570 . S
C708 C25 1.598 . S
C723 C39 1.598 . S
C735 C123 1.571 . S
C750 C137 1.587 . S
C762 C53 1.587 . S
C777 C67 1.573 . S
C789 C207 1.597 . S
C804 C81 1.577 . S
C816 C221 1.595 . S
C831 C179 1.593 . S
C843 C95 1.572 . S
C858 C193 1.577 . S
C870 C109 1.595 . S
C885 C145 1.405 . S
C897 C5 1.405 . S
C912 C19 1.400 . S
C924 C159 1.401 . S
C939 C33 1.394 . S
C951 C117 1.394 . S
C966 C131 1.400 . S
C978 C47 1.400 . S
C993 C201 1.406 . S
C1005 C61 1.406 . S
C1020 C215 1.404 . S
C1032 C75 1.404 . S
C1047 C173 1.390 . S
C1059 C89 1.391 . S
C1074 C103 1.404 . S
C1086 C187 1.404 . S
