# Generated by pormake.
# Topology wkp, (6)-cn, num edge types: 1
# Building blocks:
#     Node 0, Type 0, BuildingBlock: OJICUG_clean_sbu_0, # of connection points: 6
#     Node 1, Type 0, BuildingBlock: OJICUG_clean_sbu_0, # of connection points: 6
#     Node 2, Type 0, BuildingBlock: OJICUG_clean_sbu_0, # of connection points: 6
#     Node 3, Type 0, BuildingBlock: OJICUG_clean_sbu_0, # of connection points: 6
#     Node 4, Type 0, BuildingBlock: OJICUG_clean_sbu_0, # of connection points: 6
#     Node 5, Type 0, BuildingBlock: OJICUG_clean_sbu_0, # of connection points: 6
#     Node 6, Type 0, BuildingBlock: OJICUG_clean_sbu_0, # of connection points: 6
#     Node 7, Type 0, BuildingBlock: OJICUG_clean_sbu_0, # of connection points: 6
#     Node 8, Type 0, BuildingBlock: OJICUG_clean_sbu_0, # of connection points: 6
#     Node 9, Type 0, BuildingBlock: OJICUG_clean_sbu_0, # of connection points: 6
#     Node 10, Type 0, BuildingBlock: OJICUG_clean_sbu_0, # of connection points: 6
#     Node 11, Type 0, BuildingBlock: OJICUG_clean_sbu_0, # of connection points: 6
#     Edge 12, Type (0, 0), BuildingBlock: UVAHIK_clean_linker_0, # of connection points: 2
#     Edge 13, Type (0, 0), BuildingBlock: UVAHIK_clean_linker_0, # of connection points: 2
#     Edge 14, Type (0, 0), BuildingBlock: UVAHIK_clean_linker_0, # of connection points: 2
#     Edge 15, Type (0, 0), BuildingBlock: UVAHIK_clean_linker_0, # of connection points: 2
#     Edge 16, Type (0, 0), BuildingBlock: UVAHIK_clean_linker_0, # of connection points: 2
#     Edge 17, Type (0, 0), BuildingBlock: UVAHIK_clean_linker_0, # of connection points: 2
#     Edge 18, Type (0, 0), BuildingBlock: UVAHIK_clean_linker_0, # of connection points: 2
#     Edge 19, Type (0, 0), BuildingBlock: UVAHIK_clean_linker_0, # of connection points: 2
#     Edge 20, Type (0, 0), BuildingBlock: UVAHIK_clean_linker_0, # of connection points: 2
#     Edge 21, Type (0, 0), BuildingBlock: UVAHIK_clean_linker_0, # of connection points: 2
#     Edge 22, Type (0, 0), BuildingBlock: UVAHIK_clean_linker_0, # of connection points: 2
#     Edge 23, Type (0, 0), BuildingBlock: UVAHIK_clean_linker_0, # of connection points: 2
#     Edge 24, Type (0, 0), BuildingBlock: UVAHIK_clean_linker_0, # of connection points: 2
#     Edge 25, Type (0, 0), BuildingBlock: UVAHIK_clean_linker_0, # of connection points: 2
#     Edge 26, Type (0, 0), BuildingBlock: UVAHIK_clean_linker_0, # of connection points: 2
#     Edge 27, Type (0, 0), BuildingBlock: UVAHIK_clean_linker_0, # of connection points: 2
#     Edge 28, Type (0, 0), BuildingBlock: UVAHIK_clean_linker_0, # of connection points: 2
#     Edge 29, Type (0, 0), BuildingBlock: UVAHIK_clean_linker_0, # of connection points: 2
#     Edge 30, Type (0, 0), BuildingBlock: UVAHIK_clean_linker_0, # of connection points: 2
#     Edge 31, Type (0, 0), BuildingBlock: UVAHIK_clean_linker_0, # of connection points: 2
#     Edge 32, Type (0, 0), BuildingBlock: UVAHIK_clean_linker_0, # of connection points: 2
#     Edge 33, Type (0, 0), BuildingBlock: UVAHIK_clean_linker_0, # of connection points: 2
#     Edge 34, Type (0, 0), BuildingBlock: UVAHIK_clean_linker_0, # of connection points: 2
#     Edge 35, Type (0, 0), BuildingBlock: UVAHIK_clean_linker_0, # of connection points: 2
#     Edge 36, Type (0, 0), BuildingBlock: UVAHIK_clean_linker_0, # of connection points: 2
#     Edge 37, Type (0, 0), BuildingBlock: UVAHIK_clean_linker_0, # of connection points: 2
#     Edge 38, Type (0, 0), BuildingBlock: UVAHIK_clean_linker_0, # of connection points: 2
#     Edge 39, Type (0, 0), BuildingBlock: UVAHIK_clean_linker_0, # of connection points: 2
#     Edge 40, Type (0, 0), BuildingBlock: UVAHIK_clean_linker_0, # of connection points: 2
#     Edge 41, Type (0, 0), BuildingBlock: UVAHIK_clean_linker_0, # of connection points: 2
#     Edge 42, Type (0, 0), BuildingBlock: UVAHIK_clean_linker_0, # of connection points: 2
#     Edge 43, Type (0, 0), BuildingBlock: UVAHIK_clean_linker_0, # of connection points: 2
#     Edge 44, Type (0, 0), BuildingBlock: UVAHIK_clean_linker_0, # of connection points: 2
#     Edge 45, Type (0, 0), BuildingBlock: UVAHIK_clean_linker_0, # of connection points: 2
#     Edge 46, Type (0, 0), BuildingBlock: UVAHIK_clean_linker_0, # of connection points: 2
#     Edge 47, Type (0, 0), BuildingBlock: UVAHIK_clean_linker_0, # of connection points: 2
# Relax obj value: 0.288
# Max RMSD: 0.309
# Mean RMSD: 0.309
data_MOF--net-wkp--node1-OJICUG_clean_sbu_0--edge1-UVAHIK_clean_linker_0
_symmetry_space_group_name_H-M    P1
_symmetry_Int_Tables_number       1
_symmetry_cell_setting            triclinic
loop_
_symmetry_equiv_pos_as_xyz
'x, y, z'
_cell_length_a     54.9215
_cell_length_b     54.922368
_cell_length_c     38.872833
_cell_angle_alpha  89.95375
_cell_angle_beta   89.970103
_cell_angle_gamma 119.94623
loop_
_atom_site_label
_atom_site_type_symbol
_atom_site_fract_x
_atom_site_fract_y
_atom_site_fract_z
_atom_type_partial_charge
Sc0 Sc 0.19782 0.40835 0.00564 0.0
Sc1 Sc 0.19773 0.34503 -0.00241 0.0
Sc2 Sc 0.24506 0.39665 0.05296 0.0
O3 O 0.21343 0.38335 0.01899 0.0
C4 C 0.26341 0.45229 0.01191 0.0
C5 C 0.19747 0.38214 0.93432 0.0
C6 C 0.26203 0.3667 0.99487 0.0
C7 C 0.1431 0.34701 0.01036 0.0
C8 C 0.20641 0.41956 0.08497 0.0
C9 C 0.21247 0.33373 0.07395 0.0
O10 O 0.2383 0.44638 0.00582 0.0
O11 O 0.19054 0.3585 0.94804 0.0
O12 O 0.26636 0.37926 0.02368 0.0
O13 O 0.15541 0.3732 0.00354 0.0
O14 O 0.22742 0.4157 0.08544 0.0
O15 O 0.20409 0.32587 0.04328 0.0
O16 O 0.19102 0.4149 0.05855 0.0
O17 O 0.15613 0.33349 0.0144 0.0
O18 O 0.22341 0.3592 0.08324 0.0
O19 O 0.20414 0.40401 0.95202 0.0
O20 O 0.26946 0.4351 0.02585 0.0
O21 O 0.23847 0.35541 0.97955 0.0
Sc22 Sc 0.84181 0.26008 0.20733 0.0
Sc23 Sc 0.81693 0.19144 0.17688 0.0
Sc24 Sc 0.77088 0.21854 0.18457 0.0
O25 O 0.80984 0.22327 0.18969 0.0
C26 C 0.79049 0.25107 0.25517 0.0
C27 C 0.8538 0.21581 0.24513 0.0
C28 C 0.75655 0.15754 0.21047 0.0
C29 C 0.87224 0.24409 0.14877 0.0
C30 C 0.81019 0.28225 0.16053 0.0
C31 C 0.77675 0.19036 0.11627 0.0
O32 O 0.81632 0.26357 0.24682 0.0
O33 O 0.84243 0.19691 0.22212 0.0
O34 O 0.74988 0.17606 0.20355 0.0
O35 O 0.87127 0.26119 0.16994 0.0
O36 O 0.78639 0.26032 0.16471 0.0
O37 O 0.79312 0.18293 0.12988 0.0
O38 O 0.83277 0.28469 0.17252 0.0
O39 O 0.85354 0.21834 0.14736 0.0
O40 O 0.76768 0.20442 0.13231 0.0
O41 O 0.85396 0.239 0.24398 0.0
O42 O 0.77122 0.23251 0.23636 0.0
O43 O 0.78072 0.16081 0.20435 0.0
Sc44 Sc 0.53782 0.77572 0.34834 0.0
Sc45 Sc 0.60682 0.83312 0.3437 0.0
Sc46 Sc 0.5552 0.83895 0.39063 0.0
O47 O 0.56666 0.81592 0.36106 0.0
C48 C 0.5014 0.80587 0.34343 0.0
C49 C 0.57124 0.79782 0.27817 0.0
C50 C 0.59427 0.88318 0.33369 0.0
C51 C 0.59287 0.77155 0.36276 0.0
C52 C 0.5231 0.77855 0.42678 0.0
C53 C 0.61691 0.86044 0.41888 0.0
O54 O 0.50532 0.78535 0.33788 0.0
O55 O 0.59398 0.81525 0.293 0.0
O56 O 0.57623 0.87518 0.35779 0.0
O57 O 0.56678 0.76103 0.35701 0.0
O58 O 0.53277 0.80497 0.42635 0.0
O59 O 0.62547 0.85445 0.39149 0.0
O60 O 0.52421 0.76496 0.40091 0.0
O61 O 0.61028 0.79778 0.36109 0.0
O62 O 0.59154 0.85435 0.42315 0.0
O63 O 0.54849 0.78279 0.29453 0.0
O64 O 0.51803 0.8271 0.36115 0.0
O65 O 0.60652 0.86969 0.32483 0.0
Sc66 Sc 0.73111 0.58848 0.55037 0.0
Sc67 Sc 0.78145 0.63966 0.49715 0.0
Sc68 Sc 0.77784 0.5748 0.50525 0.0
O69 O 0.76359 0.60098 0.51792 0.0
C70 C 0.76666 0.56253 0.58387 0.0
C71 C 0.76545 0.65073 0.57291 0.0
C72 C 0.83411 0.63487 0.51121 0.0
C73 C 0.71795 0.62058 0.49134 0.0
C74 C 0.71167 0.53302 0.5092 0.0
C75 C 0.78144 0.60234 0.43411 0.0
O76 O 0.74613 0.56718 0.58329 0.0
O77 O 0.77457 0.6589 0.54249 0.0
O78 O 0.82088 0.60878 0.50385 0.0
O79 O 0.71228 0.60815 0.5204 0.0
O80 O 0.73662 0.53782 0.50477 0.0
O81 O 0.78942 0.6261 0.44813 0.0
O82 O 0.70612 0.55096 0.52193 0.0
O83 O 0.74188 0.63094 0.47706 0.0
O84 O 0.77291 0.57995 0.45151 0.0
O85 O 0.75352 0.62507 0.58168 0.0
O86 O 0.78302 0.56748 0.55836 0.0
O87 O 0.82202 0.64924 0.51577 0.0
Sc88 Sc 0.20484 0.76493 0.68238 0.0
Sc89 Sc 0.15651 0.78872 0.6728 0.0
Sc90 Sc 0.13352 0.72012 0.70155 0.0
O91 O 0.16494 0.75793 0.6857 0.0
C92 C 0.16932 0.70128 0.65723 0.0
C93 C 0.20026 0.79386 0.61451 0.0
C94 C 0.10484 0.73544 0.64003 0.0
C95 C 0.21443 0.82383 0.71035 0.0
C96 C 0.18395 0.73154 0.75249 0.0
C97 C 0.11559 0.7606 0.73738 0.0
O98 O 0.19234 0.72375 0.66276 0.0
O99 O 0.18375 0.801 0.62835 0.0
O100 O 0.10528 0.71847 0.66198 0.0
O101 O 0.22324 0.80736 0.70125 0.0
O102 O 0.15847 0.71781 0.74271 0.0
O103 O 0.12738 0.7799 0.71491 0.0
O104 O 0.20336 0.75091 0.73451 0.0
O105 O 0.18953 0.8187 0.70481 0.0
O106 O 0.11758 0.73854 0.73729 0.0
O107 O 0.20864 0.77894 0.62993 0.0
O108 O 0.14581 0.69757 0.66759 0.0
O109 O 0.12287 0.76147 0.63952 0.0
Sc110 Sc 0.4177 0.14629 0.88871 0.0
Sc111 Sc 0.36866 0.15492 0.8403 0.0
Sc112 Sc 0.4382 0.21029 0.84649 0.0
O113 O 0.40818 0.17052 0.8587 0.0
C114 C 0.4517 0.20657 0.92491 0.0
C115 C 0.35622 0.12593 0.91505 0.0
C116 C 0.38418 0.21634 0.86091 0.0
C117 C 0.37867 0.10367 0.83035 0.0
C118 C 0.4723 0.17762 0.84257 0.0
C119 C 0.40589 0.1905 0.77589 0.0
O120 O 0.44171 0.18009 0.92412 0.0
O121 O 0.34863 0.1316 0.88665 0.0
O122 O 0.41001 0.22626 0.85371 0.0
O123 O 0.39476 0.11001 0.85637 0.0
O124 O 0.46992 0.19918 0.83781 0.0
O125 O 0.38247 0.17463 0.79051 0.0
O126 O 0.45437 0.15615 0.85905 0.0
O127 O 0.36885 0.11888 0.81945 0.0
O128 O 0.42879 0.20354 0.79248 0.0
O129 O 0.3816 0.13297 0.92133 0.0
O130 O 0.45069 0.22051 0.89935 0.0
O131 O 0.36627 0.1902 0.86016 0.0
Sc132 Sc 0.55211 0.69835 0.82131 0.0
Sc133 Sc 0.60475 0.76527 0.8491 0.0
Sc134 Sc 0.53455 0.75015 0.84119 0.0
O135 O 0.56386 0.73796 0.83707 0.0
C136 C 0.51719 0.7157 0.77108 0.0
C137 C 0.61162 0.73442 0.7834 0.0
C138 C 0.58711 0.80598 0.81278 0.0
C139 C 0.59637 0.70757 0.87964 0.0
C140 C 0.49991 0.68717 0.86783 0.0
C141 C 0.57102 0.77545 0.90932 0.0
O142 O 0.52795 0.70066 0.77918 0.0
O143 O 0.62071 0.75559 0.8033 0.0
O144 O 0.56108 0.79018 0.81831 0.0
O145 O 0.57507 0.6918 0.8614 0.0
O146 O 0.50381 0.71179 0.8644 0.0
O147 O 0.59314 0.77705 0.89661 0.0
O148 O 0.5159 0.67927 0.85442 0.0
O149 O 0.60913 0.73421 0.87765 0.0
O150 O 0.5482 0.76616 0.89251 0.0
O151 O 0.58743 0.71274 0.78687 0.0
O152 O 0.51829 0.73485 0.79052 0.0
O153 O 0.60557 0.79988 0.82212 0.0
Sc154 Sc 0.79175 0.56139 -0.00282 0.0
Sc155 Sc 0.84046 0.63297 0.0094 0.0
Sc156 Sc 0.86316 0.58719 0.97974 0.0
O157 O 0.83181 0.5939 0.99522 0.0
C158 C 0.82582 0.53123 0.02097 0.0
C159 C 0.7958 0.59328 0.0662 0.0
C160 C 0.89075 0.62899 0.04315 0.0
C161 C 0.78284 0.61205 0.97209 0.0
C162 C 0.81348 0.55036 0.92686 0.0
C163 C 0.88246 0.64673 0.94584 0.0
O164 O 0.80323 0.53155 0.01539 0.0
O165 O 0.81266 0.61717 0.05318 0.0
O166 O 0.89054 0.61193 0.02089 0.0
O167 O 0.77415 0.58648 0.9796 0.0
O168 O 0.83878 0.56156 0.93726 0.0
O169 O 0.87019 0.65396 0.96798 0.0
O170 O 0.79388 0.5502 0.94459 0.0
O171 O 0.80782 0.63153 0.97785 0.0
O172 O 0.88043 0.62267 0.94568 0.0
O173 O 0.78746 0.57031 0.05007 0.0
O174 O 0.84972 0.55107 0.01189 0.0
O175 O 0.87338 0.63784 0.04299 0.0
Sc176 Sc 0.26051 0.85698 0.12945 0.0
Sc177 Sc 0.20924 0.85599 0.18384 0.0
Sc178 Sc 0.2146 0.7955 0.1743 0.0
O179 O 0.22798 0.83611 0.1622 0.0
C180 C 0.2254 0.79591 0.09485 0.0
C181 C 0.22332 0.88331 0.10811 0.0
C182 C 0.15709 0.79706 0.17148 0.0
C183 C 0.27313 0.90241 0.18803 0.0
C184 C 0.28076 0.82076 0.16986 0.0
C185 C 0.21185 0.81936 0.24654 0.0
O186 O 0.24497 0.82151 0.09524 0.0
O187 O 0.21226 0.87966 0.13783 0.0
O188 O 0.17126 0.78478 0.17601 0.0
O189 O 0.27972 0.89439 0.16064 0.0
O190 O 0.256 0.80069 0.17513 0.0
O191 O 0.20489 0.83623 0.23336 0.0
O192 O 0.28597 0.84383 0.15617 0.0
O193 O 0.2487 0.88945 0.20118 0.0
O194 O 0.21884 0.80456 0.22844 0.0
O195 O 0.23876 0.87313 0.09959 0.0
O196 O 0.21002 0.78362 0.12089 0.0
O197 O 0.1682 0.82354 0.16851 0.0
Sc198 Sc 0.44414 0.23377 0.33878 0.0
Sc199 Sc 0.37319 0.21631 0.34544 0.0
Sc200 Sc 0.42461 0.28398 0.318 0.0
O201 O 0.41391 0.24464 0.33392 0.0
C202 C 0.47643 0.29667 0.36589 0.0
C203 C 0.40724 0.20765 0.40655 0.0
C204 C 0.37883 0.27307 0.37506 0.0
C205 C 0.39314 0.17708 0.31008 0.0
C206 C 0.46164 0.2685 0.26888 0.0
C207 C 0.36598 0.24644 0.27909 0.0
O208 O 0.47354 0.27245 0.36234 0.0
O209 O 0.38491 0.20531 0.3935 0.0
O210 O 0.40013 0.28944 0.3571 0.0
O211 O 0.41899 0.19358 0.31579 0.0
O212 O 0.45014 0.28292 0.27667 0.0
O213 O 0.35714 0.22531 0.29913 0.0
O214 O 0.46078 0.24946 0.28836 0.0
O215 O 0.37402 0.18235 0.31902 0.0
O216 O 0.38982 0.26852 0.28273 0.0
O217 O 0.43021 0.21743 0.38991 0.0
O218 O 0.46007 0.30389 0.35205 0.0
O219 O 0.36714 0.24649 0.37334 0.0
Sc220 Sc 0.11225 0.39455 0.48915 0.0
Sc221 Sc 0.13432 0.34719 0.51457 0.0
Sc222 Sc 0.18419 0.41813 0.49824 0.0
O223 O 0.14358 0.38657 0.50046 0.0
C224 C 0.15799 0.42778 0.43043 0.0
C225 C 0.08888 0.33383 0.45575 0.0
C226 C 0.18925 0.36569 0.47134 0.0
C227 C 0.08803 0.3546 0.55467 0.0
C228 C 0.15441 0.45143 0.52603 0.0
C229 C 0.18284 0.38714 0.5675 0.0
O230 O 0.13345 0.41726 0.44328 0.0
O231 O 0.1028 0.32632 0.47483 0.0
O232 O 0.19905 0.39164 0.47745 0.0
O233 O 0.08832 0.37277 0.53413 0.0
O234 O 0.17597 0.44962 0.51884 0.0
O235 O 0.164 0.36321 0.55654 0.0
O236 O 0.12973 0.4323 0.51865 0.0
O237 O 0.10332 0.34354 0.55057 0.0
O238 O 0.19173 0.40965 0.55007 0.0
O239 O 0.09079 0.35776 0.45797 0.0
O240 O 0.17864 0.42863 0.44648 0.0
O241 O 0.16487 0.34692 0.4807 0.0
Sc242 Sc 0.76318 0.19099 0.67597 0.0
Sc243 Sc 0.76972 0.13085 0.68614 0.0
Sc244 Sc 0.7171 0.12868 0.63287 0.0
O245 O 0.75018 0.15024 0.66474 0.0
C246 C 0.69663 0.16408 0.67488 0.0
C247 C 0.76721 0.16751 0.74873 0.0
C248 C 0.70618 0.08298 0.69059 0.0
C249 C 0.8213 0.19076 0.67158 0.0
C250 C 0.74988 0.18941 0.597 0.0
C251 C 0.75614 0.10455 0.61004 0.0
O252 O 0.72132 0.18437 0.67993 0.0
O253 O 0.77268 0.14945 0.73597 0.0
O254 O 0.69873 0.09124 0.66416 0.0
O255 O 0.80675 0.20282 0.67395 0.0
O256 O 0.73112 0.16356 0.59791 0.0
O257 O 0.76794 0.10847 0.63932 0.0
O258 O 0.76537 0.20227 0.62263 0.0
O259 O 0.81071 0.16425 0.67236 0.0
O260 O 0.73928 0.11332 0.60271 0.0
O261 O 0.76158 0.1832 0.73033 0.0
O262 O 0.69158 0.1414 0.66029 0.0
O263 O 0.73086 0.09614 0.70284 0.0
C264 C 0.18489 0.36441 0.62248 0.0
C265 C 0.19255 0.38901 0.60348 0.0
C266 C 0.19022 0.36578 0.65774 0.0
C267 C 0.19803 0.40975 0.73199 0.0
H268 H 0.21905 0.36083 0.77936 0.0
C269 C 0.20913 0.41059 0.87997 0.0
C270 C 0.19855 0.38434 0.89626 0.0
C271 C 0.2112 0.41275 0.84414 0.0
C272 C 0.21293 0.37446 0.76652 0.0
H273 H 0.21324 0.43451 0.60645 0.0
H274 H 0.22262 0.43682 0.66807 0.0
H275 H 0.21947 0.36223 0.7166 0.0
H276 H 0.18151 0.3397 0.88741 0.0
H277 H 0.1846 0.34344 0.82504 0.0
H278 H 0.19076 0.42147 0.78176 0.0
C279 C 0.21219 0.41647 0.65562 0.0
C280 C 0.21328 0.37533 0.73059 0.0
C281 C 0.207 0.41513 0.62027 0.0
C282 C 0.18985 0.36029 0.87581 0.0
C283 C 0.19185 0.36245 0.84 0.0
C284 C 0.19757 0.40881 0.76791 0.0
C285 C 0.20325 0.39175 0.67486 0.0
C286 C 0.20551 0.39273 0.71293 0.0
C287 C 0.20267 0.38871 0.82373 0.0
C288 C 0.20466 0.39088 0.7856 0.0
H289 H 0.17382 0.34393 0.6104 0.0
H290 H 0.1829 0.34634 0.67186 0.0
H291 H 0.19149 0.42304 0.71913 0.0
H292 H 0.2162 0.4296 0.89489 0.0
H293 H 0.21989 0.43334 0.83245 0.0
C294 C 0.75668 0.19665 0.06121 0.0
C295 C 0.76964 0.18402 0.07939 0.0
C296 C 0.75282 0.19312 0.02566 0.0
C297 C 0.75134 0.14933 0.95274 0.0
H298 H 0.77647 0.2175 0.89941 0.0
C299 C 0.77446 0.15405 0.80787 0.0
C300 C 0.76641 0.16958 0.78666 0.0
C301 C 0.77272 0.15512 0.8436 0.0
C302 C 0.76896 0.1982 0.91388 0.0
H303 H 0.78751 0.15671 0.07456 0.0
H304 H 0.78074 0.15061 0.01267 0.0
H305 H 0.7756 0.2195 0.96199 0.0
H306 H 0.75022 0.19846 0.78658 0.0
H307 H 0.74694 0.20007 0.84894 0.0
H308 H 0.7449 0.12804 0.90467 0.0
C309 C 0.77352 0.16318 0.02593 0.0
C310 C 0.76844 0.19934 0.94974 0.0
C311 C 0.77754 0.16683 0.06141 0.0
C312 C 0.75676 0.18636 0.8021 0.0
C313 C 0.75494 0.18735 0.83788 0.0
C314 C 0.75175 0.14816 0.91687 0.0
C315 C 0.76163 0.17673 0.00759 0.0
C316 C 0.75996 0.17499 0.96954 0.0
C317 C 0.76279 0.17165 0.85902 0.0
C318 C 0.76093 0.17264 0.89705 0.0
H319 H 0.75029 0.21 0.07421 0.0
H320 H 0.74328 0.20353 0.01222 0.0
H321 H 0.74435 0.13016 0.96734 0.0
H322 H 0.7821 0.14099 0.79691 0.0
H323 H 0.77943 0.14318 0.85916 0.0
C324 C 0.54605 0.77354 0.96426 0.0
C325 C 0.57133 0.78255 0.94619 0.0
C326 C 0.54621 0.77712 -0.00011 0.0
C327 C 0.59075 0.787 0.07584 0.0
H328 H 0.53738 0.80209 0.1228 0.0
C329 C 0.59658 0.80918 0.22157 0.0
C330 C 0.57118 0.79577 0.24011 0.0
C331 C 0.59657 0.80816 0.18567 0.0
C332 C 0.55225 0.79763 0.11002 0.0
H333 H 0.61672 0.80388 0.95124 0.0
H334 H 0.61702 0.81079 0.01308 0.0
H335 H 0.53787 0.80099 0.06001 0.0
H336 H 0.52582 0.77074 0.23522 0.0
H337 H 0.5259 0.769 0.17247 0.0
H338 H 0.60524 0.78383 0.12585 0.0
C339 C 0.59699 0.80019 -0.0001 0.0
C340 C 0.55254 0.79699 0.07405 0.0
C341 C 0.59683 0.79641 0.96436 0.0
C342 C 0.54578 0.78123 0.22181 0.0
C343 C 0.54578 0.78041 0.18585 0.0
C344 C 0.59058 0.78782 0.11174 0.0
C345 C 0.57166 0.79 0.01826 0.0
C346 C 0.57177 0.79161 0.0565 0.0
C347 C 0.57118 0.79389 0.16741 0.0
C348 C 0.57129 0.79307 0.12923 0.0
H349 H 0.52601 0.76266 0.95114 0.0
H350 H 0.52628 0.76879 0.01317 0.0
H351 H 0.60545 0.78217 0.06329 0.0
H352 H 0.61654 0.8206 0.23476 0.0
H353 H 0.61647 0.81896 0.17216 0.0
C354 C 0.77268 0.57491 0.37938 0.0
C355 C 0.78163 0.60074 0.39606 0.0
C356 C 0.77215 0.57337 0.34348 0.0
C357 C 0.80274 0.61715 0.26626 0.0
H358 H 0.74008 0.55567 0.21888 0.0
C359 C 0.79394 0.61745 0.11978 0.0
C360 C 0.7878 0.59245 0.10275 0.0
C361 C 0.79032 0.61765 0.15526 0.0
C362 C 0.7578 0.57284 0.23178 0.0
H363 H 0.79693 0.64519 0.38787 0.0
H364 H 0.79584 0.64241 0.32543 0.0
H365 H 0.74021 0.55761 0.28173 0.0
H366 H 0.77157 0.54772 0.10949 0.0
H367 H 0.76549 0.54817 0.17164 0.0
H368 H 0.82048 0.63233 0.21657 0.0
C369 C 0.78956 0.62341 0.34012 0.0
C370 C 0.75791 0.57394 0.26774 0.0
C371 C 0.79008 0.62497 0.37597 0.0
C372 C 0.77648 0.56734 0.12179 0.0
C373 C 0.77295 0.56758 0.15741 0.0
C374 C 0.80263 0.61606 0.23042 0.0
C375 C 0.78059 0.59761 0.32347 0.0
C376 C 0.78037 0.59616 0.28534 0.0
C377 C 0.78058 0.5929 0.17462 0.0
C378 C 0.78014 0.59397 0.21275 0.0
H379 H 0.766 0.55581 0.39401 0.0
H380 H 0.76546 0.55324 0.33139 0.0
H381 H 0.82061 0.63425 0.27905 0.0
H382 H 0.80235 0.63713 0.10588 0.0
H383 H 0.79577 0.63738 0.16767 0.0
C384 C 0.20107 0.81974 0.56111 0.0
C385 C 0.2078 0.80117 0.57785 0.0
C386 C 0.2044 0.82368 0.5256 0.0
C387 C 0.23699 0.81213 0.44845 0.0
H388 H 0.17382 0.81071 0.40194 0.0
C389 C 0.22123 0.80027 0.30066 0.0
C390 C 0.21226 0.8174 0.28456 0.0
C391 C 0.22204 0.79897 0.33655 0.0
C392 C 0.19178 0.81146 0.41453 0.0
H393 H 0.22471 0.77326 0.57049 0.0
H394 H 0.23023 0.77997 0.50837 0.0
H395 H 0.17419 0.80855 0.46439 0.0
H396 H 0.19728 0.84671 0.2938 0.0
H397 H 0.19882 0.84446 0.35611 0.0
H398 H 0.25439 0.81478 0.39829 0.0
C399 C 0.22256 0.79163 0.52282 0.0
C400 C 0.19203 0.8103 0.45035 0.0
C401 C 0.21933 0.78775 0.55845 0.0
C402 C 0.20416 0.83317 0.30522 0.0
C403 C 0.20492 0.83181 0.341 0.0
C404 C 0.23672 0.81327 0.4125 0.0
C405 C 0.21442 0.80907 0.50591 0.0
C406 C 0.21468 0.81075 0.46777 0.0
C407 C 0.21382 0.81467 0.35709 0.0
C408 C 0.21414 0.81305 0.39518 0.0
H409 H 0.19244 0.83069 0.57527 0.0
H410 H 0.19855 0.83778 0.51344 0.0
H411 H 0.25483 0.81271 0.46113 0.0
H412 H 0.22767 0.78788 0.28558 0.0
H413 H 0.22873 0.78536 0.34821 0.0
C414 C 0.43243 0.20893 0.46098 0.0
C415 C 0.40709 0.20105 0.44361 0.0
C416 C 0.43273 0.20598 0.49667 0.0
C417 C 0.38802 0.17052 0.57214 0.0
H418 H 0.44401 0.23575 0.62186 0.0
C419 C 0.38141 0.18103 0.71887 0.0
C420 C 0.40655 0.19271 0.73781 0.0
C421 C 0.38193 0.18162 0.68294 0.0
C422 C 0.42848 0.21719 0.60842 0.0
H423 H 0.36202 0.18265 0.45015 0.0
H424 H 0.36262 0.17743 0.51233 0.0
H425 H 0.44426 0.23596 0.55918 0.0
H426 H 0.45203 0.21436 0.73362 0.0
H427 H 0.4529 0.21502 0.671 0.0
H428 H 0.37225 0.15168 0.62132 0.0
C429 C 0.38224 0.18589 0.4983 0.0
C430 C 0.42863 0.21732 0.57248 0.0
C431 C 0.38193 0.18899 0.46263 0.0
C432 C 0.43225 0.20534 0.71991 0.0
C433 C 0.43276 0.20578 0.68394 0.0
C434 C 0.38795 0.17031 0.6081 0.0
C435 C 0.40771 0.19491 0.51578 0.0
C436 C 0.4083 0.19407 0.55394 0.0
C437 C 0.40759 0.19376 0.665 0.0
C438 C 0.40806 0.19374 0.62671 0.0
H439 H 0.45222 0.21826 0.44722 0.0
H440 H 0.45264 0.21275 0.5094 0.0
H441 H 0.37228 0.15217 0.55856 0.0
H442 H 0.36123 0.17126 0.73177 0.0
H443 H 0.36216 0.17265 0.66922 0.0
C444 C 0.30575 0.36367 0.00048 0.0
C445 C 0.28442 0.36283 0.97972 0.0
C446 C 0.32383 0.35501 0.98728 0.0
C447 C 0.33465 0.30925 0.96136 0.0
H448 H 0.36372 0.32091 0.86818 0.0
C449 C 0.34968 0.22677 0.88969 0.0
C450 C 0.3753 0.2363 0.87235 0.0
C451 C 0.34261 0.24597 0.90307 0.0
C452 C 0.35598 0.31769 0.89438 0.0
H453 H 0.267 0.35508 0.92815 0.0
H454 H 0.29845 0.33993 0.90525 0.0
H455 H 0.34771 0.35185 0.89163 0.0
H456 H 0.41313 0.27339 0.85434 0.0
H457 H 0.40053 0.30679 0.87753 0.0
H458 H 0.3421 0.27462 0.96381 0.0
C459 C 0.30121 0.34714 0.93164 0.0
C460 C 0.34681 0.33531 0.90772 0.0
C461 C 0.28301 0.35553 0.94487 0.0
C462 C 0.39327 0.26536 0.86773 0.0
C463 C 0.38608 0.28452 0.88087 0.0
C464 C 0.34362 0.29156 0.94795 0.0
C465 C 0.32101 0.34574 0.95309 0.0
C466 C 0.33548 0.33082 0.94105 0.0
C467 C 0.3609 0.27499 0.89908 0.0
C468 C 0.35371 0.29522 0.91409 0.0
H469 H 0.3074 0.36936 0.0274 0.0
H470 H 0.33915 0.35433 0.0042 0.0
H471 H 0.32568 0.3051 0.98698 0.0
H472 H 0.33541 0.20454 0.89369 0.0
H473 H 0.32283 0.23815 0.91659 0.0
C474 C 0.9206 0.28072 0.131 0.0
C475 C 0.89675 0.25425 0.12566 0.0
C476 C 0.94456 0.28942 0.11092 0.0
C477 C -0.01084 0.30851 0.05634 0.0
H478 H 0.01302 0.25377 0.04111 0.0
C479 C 0.0966 0.34236 -0.00247 0.0
C480 C 0.11237 0.33216 0.01428 0.0
C481 C 0.06787 0.33013 0.00356 0.0
C482 C 0.00665 0.26929 0.04519 0.0
H483 H 0.87884 0.21672 0.09393 0.0
H484 H 0.92063 0.23221 0.0585 0.0
H485 H 0.96714 0.23883 0.0665 0.0
H486 H 0.1104 0.30048 0.04924 0.0
H487 H 0.06032 0.27975 0.06098 0.0
H488 H 0.02927 0.33931 0.03731 0.0
C489 C 0.92095 0.24592 0.07872 0.0
C490 C 0.9802 0.26068 0.0593 0.0
C491 C 0.897 0.23712 0.09896 0.0
C492 C 0.09869 0.30872 0.036 0.0
C493 C 0.06996 0.29675 0.04251 0.0
C494 C 0.01565 0.31716 0.04256 0.0
C495 C 0.94513 0.27197 0.08487 0.0
C496 C 0.97148 0.28034 0.06579 0.0
C497 C 0.05438 0.30777 0.02696 0.0
C498 C 0.02495 0.29776 0.03751 0.0
H499 H 0.92113 0.2944 0.15139 0.0
H500 H 0.963 0.30943 0.1167 0.0
H501 H 0.98284 0.32407 0.0605 0.0
H502 H 0.10658 0.36011 0.98012 0.0
H503 H 0.05635 0.33867 0.99052 0.0
C504 C 0.73761 0.10632 0.21924 0.0
C505 C 0.73457 0.13005 0.2235 0.0
C506 C 0.71595 0.07981 0.22847 0.0
C507 C 0.65835 0.0424 0.28596 0.0
H508 H 0.63615 0.98183 0.22016 0.0
C509 C 0.5907 0.92666 0.32635 0.0
C510 C 0.6022 0.90995 0.31603 0.0
C511 C 0.60007 0.95305 0.31154 0.0
C512 C 0.64203 -0.00148 0.23877 0.0
H513 H 0.70681 0.14478 0.24179 0.0
H514 H 0.66903 0.09805 0.25903 0.0
H515 H 0.66662 0.03037 0.20186 0.0
H516 H 0.63155 0.90732 0.28089 0.0
H517 H 0.64816 0.95329 0.25568 0.0
H518 H 0.63541 0.01055 0.32349 0.0
C519 C 0.68811 0.10022 0.24794 0.0
C520 C 0.65934 0.02621 0.22827 0.0
C521 C 0.70968 0.12682 0.23814 0.0
C522 C 0.62233 0.91965 0.28959 0.0
C523 C 0.63166 0.94595 0.27485 0.0
C524 C 0.64123 0.01462 0.2966 0.0
C525 C 0.69097 0.07652 0.24256 0.0
C526 C 0.66844 0.04821 0.25209 0.0
C527 C 0.62102 0.96314 0.28609 0.0
C528 C 0.63385 -0.00762 0.27338 0.0
H529 H 0.75644 0.10806 0.2079 0.0
H530 H 0.71873 0.06181 0.22466 0.0
H531 H 0.66523 0.05913 0.30472 0.0
H532 H 0.57497 0.91972 0.34646 0.0
H533 H 0.59133 0.96576 0.32045 0.0
C534 C 0.67766 0.62942 0.49363 0.0
C535 C 0.69681 0.62524 0.47426 0.0
C536 C 0.66143 0.63919 0.47764 0.0
C537 C 0.62473 0.65518 0.43597 0.0
H538 H 0.67074 0.71686 0.37419 0.0
C539 C 0.58449 0.72293 0.37165 0.0
C540 C 0.60305 0.75214 0.37209 0.0
C541 C 0.59372 0.70443 0.38109 0.0
C542 C 0.65767 0.69974 0.39143 0.0
H543 H 0.71192 0.62482 0.42283 0.0
H544 H 0.683 0.64108 0.3948 0.0
H545 H 0.68866 0.68741 0.396 0.0
H546 H 0.6459 0.7848 0.38266 0.0
H547 H 0.66191 0.75241 0.39958 0.0
H548 H 0.59431 0.66857 0.43261 0.0
C549 C 0.68121 0.63783 0.42238 0.0
C550 C 0.66772 0.68256 0.40352 0.0
C551 C 0.69768 0.62847 0.43839 0.0
C552 C 0.63111 0.76243 0.38192 0.0
C553 C 0.64031 0.74389 0.39143 0.0
C554 C 0.61468 0.67245 0.42391 0.0
C555 C 0.66393 0.64455 0.44205 0.0
C556 C 0.65154 0.66037 0.42631 0.0
C557 C 0.62167 0.71473 0.39118 0.0
C558 C 0.63131 0.69518 0.40201 0.0
H559 H 0.67664 0.62703 0.52135 0.0
H560 H 0.64839 0.64431 0.4935 0.0
H561 H 0.61176 0.63812 0.45334 0.0
H562 H 0.56274 0.71424 0.36404 0.0
H563 H 0.57901 0.68204 0.38028 0.0
C564 C 0.08155 0.7421 0.58844 0.0
C565 C 0.0814 0.72484 0.61529 0.0
C566 C 0.05802 0.73323 0.56746 0.0
C567 C -0.0012 0.71897 0.54932 0.0
H568 H 0.94845 0.6405 0.52803 0.0
C569 C 0.87982 0.67214 0.53527 0.0
C570 C 0.86487 0.64879 0.51381 0.0
C571 C 0.90875 0.6837 0.53953 0.0
C572 C 0.96242 0.66262 0.53304 0.0
H573 H 0.05702 0.68418 0.64001 0.0
H574 H 0.0159 0.66905 0.6041 0.0
H575 H -0.00437 0.65532 0.5481 0.0
H576 H 0.86848 0.62049 0.47796 0.0
H577 H 0.919 0.6412 0.48451 0.0
H578 H 0.96556 0.72625 0.53418 0.0
C579 C 0.03428 0.68924 0.59879 0.0
C580 C -0.01064 0.67103 0.54499 0.0
C581 C 0.05783 0.69801 0.6196 0.0
C582 C 0.87946 0.63815 0.49526 0.0
C583 C 0.90839 0.64999 0.49904 0.0
C584 C 0.97191 0.7106 0.537 0.0
C585 C 0.03389 0.707 0.57301 0.0
C586 C 0.00747 0.69909 0.55443 0.0
C587 C 0.92324 0.67237 0.52194 0.0
C588 C 0.95311 0.68217 0.52983 0.0
H589 H 0.09956 0.76277 0.58414 0.0
H590 H 0.05848 0.74717 0.54743 0.0
H591 H 0.0122 0.74074 0.55654 0.0
H592 H 0.869 0.68072 0.54981 0.0
H593 H 0.91946 0.7007 0.55775 0.0
C594 C 0.37017 0.05462 0.8314 0.0
C595 C 0.36937 0.07643 0.81348 0.0
C596 C 0.35781 0.0277 0.81741 0.0
C597 C 0.33612 0.97297 0.77861 0.0
H598 H 0.26378 0.95022 0.73686 0.0
C599 C 0.26359 0.86232 0.72138 0.0
C600 C 0.23451 0.85112 0.72567 0.0
C601 C 0.28241 0.88968 0.732 0.0
C602 C 0.28382 0.95617 0.74874 0.0
H603 H 0.35731 0.08788 0.76567 0.0
H604 H 0.33644 0.04104 0.74078 0.0
H605 H 0.29393 -0.00115 0.75312 0.0
H606 H 0.20244 0.85897 0.74663 0.0
H607 H 0.23528 0.90634 0.76599 0.0
H608 H 0.32517 0.92975 0.77559 0.0
C609 C 0.34574 0.04449 0.76614 0.0
C610 C 0.30138 0.98419 0.75747 0.0
C611 C 0.35776 0.07132 0.78032 0.0
C612 C 0.2247 0.86718 0.74249 0.0
C613 C 0.2435 0.89437 0.75338 0.0
C614 C 0.3184 0.94478 0.77006 0.0
C615 C 0.34473 0.02218 0.78506 0.0
C616 C 0.3276 -0.00712 0.77283 0.0
C617 C 0.27246 0.90619 0.74733 0.0
C618 C 0.29189 0.93607 0.75552 0.0
H619 H 0.37901 0.05794 0.85703 0.0
H620 H 0.35718 0.01095 0.83281 0.0
H621 H 0.35633 0.97909 0.79012 0.0
H622 H 0.27178 0.85044 0.70845 0.0
H623 H 0.3046 0.89826 0.72688 0.0
C624 C 0.59704 0.66502 0.90148 0.0
C625 C 0.60899 0.6944 0.90084 0.0
C626 C 0.61197 0.65291 0.91528 0.0
C627 C 0.67625 0.6683 0.96425 0.0
H628 H 0.67882 0.61549 0.90013 0.0
C629 C 0.76875 0.64803 0.96023 0.0
C630 C 0.76206 0.61976 0.96017 0.0
C631 C 0.74791 0.655 0.95465 0.0
C632 C 0.67807 0.62995 0.91847 0.0
H633 H 0.64473 0.73388 0.91732 0.0
H634 H 0.67081 0.71285 0.9407 0.0
H635 H 0.6442 0.63038 0.89211 0.0
H636 H 0.72856 0.57679 0.95205 0.0
H637 H 0.69226 0.58915 0.94191 0.0
H638 H 0.71089 0.66858 0.9898 0.0
C639 C 0.64993 0.6991 0.9307 0.0
C640 C 0.65813 0.63833 0.91408 0.0
C641 C 0.635 0.7112 0.91704 0.0
C642 C 0.7344 0.59877 0.95243 0.0
C643 C 0.7136 0.6058 0.94661 0.0
C644 C 0.6963 0.66004 0.9685 0.0
C645 C 0.63907 0.66994 0.92866 0.0
C646 C 0.65737 0.65801 0.93654 0.0
C647 C 0.72005 0.6339 0.94861 0.0
C648 C 0.69772 0.64123 0.94524 0.0
H649 H 0.57684 0.65141 0.88969 0.0
H650 H 0.60282 0.6303 0.91409 0.0
H651 H 0.67591 0.68317 0.98224 0.0
H652 H 0.78983 0.66475 0.96601 0.0
H653 H 0.75349 0.6769 0.95561 0.0
C654 C 0.91116 0.65499 0.09795 0.0
C655 C 0.91295 0.64015 0.06951 0.0
C656 C 0.93357 0.66823 0.12083 0.0
C657 C -0.00845 0.71304 0.14273 0.0
H658 H 0.04413 0.68676 0.15945 0.0
C659 C 0.1099 0.78753 0.15171 0.0
C660 C 0.12636 0.7795 0.17083 0.0
C661 C 0.08091 0.7696 0.14943 0.0
C662 C 0.02952 0.69436 0.15585 0.0
H663 H 0.93888 0.62612 0.0439 0.0
H664 H 0.9782 0.64984 0.08303 0.0
H665 H -0.00284 0.65396 0.13931 0.0
H666 H 0.12552 0.74773 0.20483 0.0
H667 H 0.0749 0.7169 0.20178 0.0
H668 H 0.02396 0.75349 0.15917 0.0
C669 C 0.95936 0.65088 0.08817 0.0
C670 C 0.00268 0.67558 0.14386 0.0
C671 C 0.93689 0.63746 0.06549 0.0
C672 C 0.1133 0.75409 0.18923 0.0
C673 C 0.08433 0.73645 0.18749 0.0
C674 C 0.01829 0.73178 0.15516 0.0
C675 C 0.95823 0.66702 0.11555 0.0
C676 C 0.98389 0.68502 0.13566 0.0
C677 C 0.0679 0.7436 0.16678 0.0
C678 C 0.03797 0.7229 0.16038 0.0
H679 H 0.89274 0.65701 0.10207 0.0
H680 H 0.93193 0.68012 0.14202 0.0
H681 H 0.9776 0.72104 0.1366 0.0
H682 H 0.11953 0.80708 0.13739 0.0
H683 H 0.06897 0.7756 0.13281 0.0
C684 C 0.28742 0.93784 0.23486 0.0
C685 C 0.29413 0.92889 0.20429 0.0
C686 C 0.30544 0.96441 0.248 0.0
C687 C 0.35665 0.03383 0.21693 0.0
H688 H 0.3592 0.05189 0.31379 0.0
C689 C 0.40452 0.14654 0.27413 0.0
C690 C 0.38517 0.14972 0.29461 0.0
C691 C 0.39826 0.12001 0.26264 0.0
C692 C 0.35879 0.04706 0.2867 0.0
H693 H 0.32612 0.93995 0.165 0.0
H694 H 0.35786 0.9865 0.18833 0.0
H695 H 0.34248 0.00336 0.29652 0.0
H696 H 0.34397 0.12799 0.31846 0.0
H697 H 0.33322 0.08145 0.29867 0.0
H698 H 0.37264 0.07766 0.20734 0.0
C699 C 0.33833 0.97304 0.20166 0.0
C700 C 0.34926 0.0194 0.2768 0.0
C701 C 0.32019 0.94637 0.1884 0.0
C702 C 0.35917 0.12611 0.3026 0.0
C703 C 0.35316 0.09955 0.29163 0.0
C704 C 0.3666 0.06159 0.22691 0.0
C705 C 0.3307 0.9826 0.23102 0.0
C706 C 0.34693 0.01233 0.24176 0.0
C707 C 0.37283 0.09633 0.27203 0.0
C708 C 0.36664 0.06811 0.26175 0.0
H709 H 0.26766 0.92482 0.24798 0.0
H710 H 0.29872 0.97123 0.2704 0.0
H711 H 0.35486 0.02904 0.18972 0.0
H712 H 0.42467 0.1645 0.26749 0.0
H713 H 0.41358 0.11786 0.24734 0.0
C714 C 0.2352 0.37677 0.44492 0.0
C715 C 0.20821 0.35672 0.45636 0.0
C716 C 0.25472 0.36864 0.43604 0.0
C717 C 0.26183 0.30668 0.41577 0.0
H718 H 0.33744 0.35306 0.45111 0.0
C719 C 0.33964 0.26734 0.41298 0.0
C720 C 0.36455 0.28516 0.39503 0.0
C721 C 0.32237 0.27741 0.42471 0.0
C722 C 0.31641 0.34 0.44111 0.0
H723 H 0.18006 0.31222 0.46564 0.0
H724 H 0.21414 0.29819 0.45068 0.0
H725 H 0.30265 0.36797 0.45896 0.0
H726 H 0.3924 0.32827 0.37883 0.0
H727 H 0.36211 0.34578 0.39951 0.0
H728 H 0.27547 0.27858 0.39832 0.0
C729 C 0.2202 0.32014 0.44824 0.0
C730 C 0.29658 0.34859 0.44529 0.0
C731 C 0.20065 0.32822 0.45691 0.0
C732 C 0.37321 0.3139 0.39223 0.0
C733 C 0.35592 0.32399 0.40412 0.0
C734 C 0.28154 0.29801 0.41189 0.0
C735 C 0.24764 0.34034 0.43853 0.0
C736 C 0.26906 0.33197 0.4327 0.0
C737 C 0.32978 0.30549 0.41895 0.0
C738 C 0.30894 0.31452 0.42464 0.0
H739 H 0.2416 0.39888 0.44389 0.0
H740 H 0.27552 0.38459 0.42789 0.0
H741 H 0.24097 0.29366 0.40528 0.0
H742 H 0.33255 0.24519 0.41614 0.0
H743 H 0.30253 0.26291 0.43678 0.0
C744 C 0.86409 0.23707 0.66075 0.0
C745 C 0.85206 0.20867 0.67007 0.0
C746 C 0.89313 0.25453 0.66102 0.0
C747 C 0.95775 0.25149 0.65381 0.0
H748 H -0.00851 0.33148 0.67102 0.0
C749 C 0.06804 0.32521 0.60739 0.0
C750 C 0.06791 0.34444 0.58356 0.0
C751 C 0.04635 0.31195 0.63121 0.0
C752 C 0.98241 0.30913 0.66663 0.0
H753 H 0.86088 0.17638 0.6878 0.0
H754 H 0.91175 0.20706 0.68858 0.0
H755 H 0.94278 0.29974 0.68799 0.0
H756 H 0.0466 0.36709 0.56849 0.0
H757 H 0.00848 0.34355 0.60971 0.0
H758 H -0.00314 0.2609 0.6312 0.0
C759 C 0.8987 0.21568 0.68058 0.0
C760 C 0.95456 0.29101 0.67609 0.0
C761 C 0.86961 0.1981 0.67996 0.0
C762 C 0.0471 0.35209 0.58616 0.0
C763 C 0.02541 0.33882 0.61005 0.0
C764 C 0.98562 0.26954 0.64468 0.0
C765 C 0.91076 0.24405 0.67096 0.0
C766 C 0.94159 0.26221 0.66823 0.0
C767 C 0.02423 0.31775 0.63168 0.0
C768 C -0.00223 0.29864 0.64959 0.0
H769 H 0.85109 0.2458 0.65294 0.0
H770 H 0.90174 0.27608 0.65257 0.0
H771 H 0.94839 0.22948 0.64714 0.0
H772 H 0.08413 0.3193 0.6066 0.0
H773 H 0.04604 0.29602 0.64795 0.0
C774 C 0.62242 0.8566 0.80485 0.0
C775 C 0.5961 0.83346 0.79687 0.0
C776 C 0.62937 0.88336 0.79344 0.0
C777 C 0.61711 0.92235 0.72831 0.0
H778 H 0.64119 0.98031 0.7981 0.0
C779 C 0.66022 0.03771 0.69082 0.0
C780 C 0.68607 0.05593 0.70661 0.0
C781 C 0.64316 0.01061 0.70374 0.0
C782 C 0.63452 0.96437 0.77832 0.0
H783 H 0.55704 0.8197 0.76921 0.0
H784 H 0.56973 0.86663 0.74839 0.0
H785 H 0.62493 0.93181 0.81516 0.0
H786 H 0.71327 0.06075 0.74974 0.0
H787 H 0.68409 0.01369 0.77155 0.0
H788 H 0.62828 0.95499 0.69125 0.0
C789 C 0.5846 0.86399 0.76396 0.0
C790 C 0.62525 0.93672 0.7881 0.0
C791 C 0.57742 0.83728 0.77589 0.0
C792 C 0.69364 0.04718 0.73671 0.0
C793 C 0.67669 0.0202 0.7495 0.0
C794 C 0.62681 0.95013 0.71844 0.0
C795 C 0.61033 0.88724 0.77339 0.0
C796 C 0.61722 0.91571 0.7631 0.0
C797 C 0.65165 0.00137 0.73265 0.0
C798 C 0.6364 0.97153 0.74332 0.0
H799 H 0.63713 0.85423 0.82108 0.0
H800 H 0.6495 0.90111 0.80058 0.0
H801 H 0.61092 0.90633 0.70869 0.0
H802 H 0.65368 0.04392 0.66774 0.0
H803 H 0.62376 -0.00335 0.69052 0.0
C804 C 0.31456 0.48574 0.00424 0.0
C805 C 0.28674 0.48032 0.00256 0.0
C806 C 0.33678 0.51194 0.99511 0.0
C807 C 0.35304 0.57318 0.94222 0.0
H808 H 0.42536 0.60319 0.98749 0.0
C809 C 0.45309 0.67186 0.89438 0.0
C810 C 0.4755 0.66694 0.88816 0.0
C811 C 0.42963 0.65248 0.91292 0.0
C812 C 0.40522 0.59508 0.97479 0.0
H813 H 0.26045 0.49839 0.9907 0.0
H814 H 0.29954 0.54451 0.97502 0.0
H815 H 0.38401 0.56332 0.01292 0.0
H816 H 0.49133 0.63836 0.89725 0.0
H817 H 0.4503 0.60454 0.92997 0.0
H818 H 0.37449 0.6048 0.90386 0.0
C819 C 0.304 0.52824 0.98303 0.0
C820 C 0.38162 0.57228 0.9892 0.0
C821 C 0.28165 0.50186 0.99201 0.0
C822 C 0.4743 0.6426 0.90146 0.0
C823 C 0.451 0.62342 0.92041 0.0
C824 C 0.37661 0.5962 0.92803 0.0
C825 C 0.33177 0.53345 0.98432 0.0
C826 C 0.35551 0.56048 0.9724 0.0
C827 C 0.42841 0.62811 0.92597 0.0
C828 C 0.40299 0.6067 0.94365 0.0
H829 H 0.31926 0.4696 0.01207 0.0
H830 H 0.35786 0.51505 0.99561 0.0
H831 H 0.33328 0.56442 0.92851 0.0
H832 H 0.45341 0.69044 0.88441 0.0
H833 H 0.41241 0.65647 0.91698 0.0
C834 C 0.79775 0.48225 0.0438 0.0
C835 C 0.82405 0.50607 0.03717 0.0
C836 C 0.79604 0.45779 0.05683 0.0
C837 C 0.83665 0.42135 0.06253 0.0
H838 H 0.782 0.37713 0.13266 0.0
C839 C 0.83756 0.33075 0.13608 0.0
C840 C 0.81151 0.30652 0.1424 0.0
C841 C 0.83875 0.35446 0.12134 0.0
C842 C 0.79711 0.3891 0.11275 0.0
H843 H 0.8692 0.52316 0.04014 0.0
H844 H 0.86613 0.48056 0.06339 0.0
H845 H 0.78507 0.42059 0.11234 0.0
H846 H 0.76629 0.28787 0.13704 0.0
H847 H 0.76848 0.32934 0.11119 0.0
H848 H 0.84887 0.38996 0.06325 0.0
C849 C 0.84687 0.48068 0.05782 0.0
C850 C 0.7989 0.41397 0.10118 0.0
C851 C 0.8486 0.50513 0.04472 0.0
C852 C 0.78671 0.30622 0.13269 0.0
C853 C 0.78792 0.32999 0.11807 0.0
C854 C 0.83492 0.39652 0.07419 0.0
C855 C 0.82058 0.45668 0.0636 0.0
C856 C 0.81873 0.43037 0.07602 0.0
C857 C 0.81392 0.35443 0.11272 0.0
C858 C 0.81517 0.38022 0.09944 0.0
H859 H 0.77842 0.48222 0.03823 0.0
H860 H 0.77548 0.43952 0.06073 0.0
H861 H 0.8518 0.43332 0.04267 0.0
H862 H 0.85708 0.33167 0.14312 0.0
H863 H 0.85907 0.37311 0.11771 0.0
C864 C 0.45496 0.78057 0.31389 0.0
C865 C 0.47735 0.80574 0.32668 0.0
C866 C 0.4333 0.78081 0.29556 0.0
C867 C 0.4193 0.82576 0.24102 0.0
H868 H 0.34097 0.77636 0.26439 0.0
C869 C 0.33071 0.84141 0.18797 0.0
C870 C 0.30438 0.81759 0.18196 0.0
C871 C 0.35228 0.8386 0.20271 0.0
C872 C 0.36271 0.78989 0.25708 0.0
H873 H 0.49441 0.85081 0.3309 0.0
H874 H 0.45655 0.85115 0.29853 0.0
H875 H 0.37743 0.77393 0.29739 0.0
H876 H 0.28038 0.77205 0.1847 0.0
H877 H 0.31836 0.76711 0.20956 0.0
H878 H 0.40478 0.84159 0.20052 0.0
C879 C 0.45591 0.83134 0.30274 0.0
C880 C 0.38351 0.78859 0.27611 0.0
C881 C 0.47738 0.83107 0.32145 0.0
C882 C 0.30038 0.79082 0.18948 0.0
C883 C 0.32206 0.78799 0.20385 0.0
C884 C 0.39852 0.82684 0.22171 0.0
C885 C 0.43391 0.80626 0.28939 0.0
C886 C 0.41192 0.80679 0.2685 0.0
C887 C 0.34802 0.8119 0.21132 0.0
C888 C 0.37002 0.8092 0.22986 0.0
H889 H 0.45436 0.76072 0.31766 0.0
H890 H 0.41648 0.76125 0.2854 0.0
H891 H 0.44116 0.83968 0.23445 0.0
H892 H 0.33435 0.86233 0.18258 0.0
H893 H 0.37191 0.85746 0.20858 0.0
C894 C 0.66058 0.50111 0.49889 0.0
C895 C 0.68798 0.50531 0.49979 0.0
C896 C 0.63802 0.47502 0.49018 0.0
C897 C 0.62129 0.41127 0.44273 0.0
H898 H 0.54795 0.38473 0.48411 0.0
C899 C 0.5221 0.31226 0.39561 0.0
C900 C 0.50008 0.31721 0.38689 0.0
C901 C 0.54495 0.33197 0.4146 0.0
C902 C 0.56836 0.39188 0.47251 0.0
H903 H 0.71318 0.4853 0.4929 0.0
H904 H 0.67351 0.43944 0.47794 0.0
H905 H 0.58911 0.42516 0.50887 0.0
H906 H 0.48428 0.3462 0.39216 0.0
H907 H 0.52435 0.38069 0.42548 0.0
H908 H 0.60037 0.37821 0.40605 0.0
C909 C 0.66965 0.45653 0.4836 0.0
C910 C 0.59184 0.41499 0.48653 0.0
C911 C 0.69233 0.48276 0.49213 0.0
C912 C 0.50102 0.34191 0.39828 0.0
C913 C 0.52376 0.36149 0.4176 0.0
C914 C 0.59783 0.38799 0.42892 0.0
C915 C 0.64231 0.45248 0.48241 0.0
C916 C 0.61837 0.42545 0.47108 0.0
C917 C 0.54602 0.35679 0.42552 0.0
C918 C 0.57111 0.37869 0.44311 0.0
H919 H 0.65652 0.51808 0.50447 0.0
H920 H 0.61729 0.47274 0.48871 0.0
H921 H 0.64139 0.419 0.43006 0.0
H922 H 0.52198 0.29339 0.38725 0.0
H923 H 0.56189 0.32794 0.42054 0.0
C924 C 0.1852 0.50096 0.54605 0.0
C925 C 0.15818 0.47763 0.54144 0.0
C926 C 0.18849 0.52656 0.55734 0.0
C927 C 0.15061 0.56566 0.55901 0.0
H928 H 0.20404 0.6106 0.62968 0.0
C929 C 0.14478 0.65331 0.63128 0.0
C930 C 0.16997 0.67799 0.63918 0.0
C931 C 0.1453 0.63056 0.61632 0.0
C932 C 0.18937 0.59849 0.6095 0.0
H933 H 0.11347 0.46253 0.54672 0.0
H934 H 0.11932 0.50702 0.56669 0.0
H935 H 0.20128 0.56685 0.61093 0.0
H936 H 0.21551 0.69842 0.63655 0.0
H937 H 0.2163 0.65852 0.61024 0.0
H938 H 0.1384 0.597 0.55786 0.0
C939 C 0.1379 0.50566 0.56086 0.0
C940 C 0.18775 0.57346 0.59887 0.0
C941 C 0.13459 0.48013 0.54964 0.0
C942 C 0.19571 0.67967 0.63092 0.0
C943 C 0.19621 0.65682 0.61602 0.0
C944 C 0.15224 0.59064 0.56959 0.0
C945 C 0.16483 0.52923 0.56416 0.0
C946 C 0.16798 0.5566 0.574 0.0
C947 C 0.171 0.63197 0.60895 0.0
C948 C 0.17128 0.60702 0.59536 0.0
H949 H 0.20381 0.49974 0.54001 0.0
H950 H 0.20949 0.54446 0.55967 0.0
H951 H 0.13561 0.55333 0.53923 0.0
H952 H 0.12458 0.65131 0.6372 0.0
H953 H 0.12554 0.61152 0.61151 0.0
C954 C 0.49549 0.1514 0.82119 0.0
C955 C 0.49636 0.17709 0.82676 0.0
C956 C 0.51734 0.15075 0.80381 0.0
C957 C 0.59122 0.19263 0.78199 0.0
H958 H 0.57222 0.14153 0.70483 0.0
C959 C 0.67657 0.19302 0.69684 0.0
C960 C 0.67286 0.1666 0.68799 0.0
C961 C 0.65459 0.19519 0.71152 0.0
C962 C 0.57783 0.1557 0.72651 0.0
H963 H 0.52111 0.22229 0.81961 0.0
H964 H 0.55951 0.22106 0.78962 0.0
H965 H 0.53488 0.14311 0.737 0.0
H966 H 0.64316 0.12178 0.68686 0.0
H967 H 0.60507 0.1255 0.71334 0.0
H968 H 0.63406 0.20473 0.77231 0.0
C969 C 0.54182 0.20152 0.79854 0.0
C970 C 0.5565 0.1566 0.74483 0.0
C971 C 0.51983 0.20217 0.81555 0.0
C972 C 0.64659 0.14246 0.69326 0.0
C973 C 0.62472 0.1446 0.70828 0.0
C974 C 0.61255 0.19153 0.76393 0.0
C975 C 0.54051 0.17578 0.79215 0.0
C976 C 0.56307 0.17499 0.77275 0.0
C977 C 0.62862 0.17096 0.71796 0.0
C978 C 0.60605 0.17297 0.73608 0.0
H979 H 0.47762 0.13173 0.82945 0.0
H980 H 0.51611 0.13069 0.79939 0.0
H981 H 0.59668 0.20682 0.80364 0.0
H982 H 0.69651 0.21203 0.6927 0.0
H983 H 0.65803 0.21583 0.71809 0.0
C984 C 0.21759 0.29155 0.08527 0.0
C985 C 0.21497 0.31411 0.098 0.0
C986 C 0.22814 0.27819 0.10626 0.0
C987 C 0.24752 0.24989 0.15976 0.0
H988 H 0.3131 0.30665 0.20818 0.0
C989 C 0.31753 0.22794 0.2542 0.0
C990 C 0.34663 0.24707 0.25286 0.0
C991 C 0.29886 0.23205 0.23373 0.0
C992 C 0.29495 0.29053 0.19467 0.0
H993 H 0.21814 0.33804 0.1438 0.0
H994 H 0.23585 0.31437 0.18048 0.0
H995 H 0.28268 0.31993 0.17838 0.0
H996 H 0.37898 0.2841 0.22668 0.0
H997 H 0.34657 0.29103 0.19108 0.0
H998 H 0.26045 0.2206 0.17588 0.0
C999 C 0.23062 0.30757 0.15402 0.0
C1000 C 0.27721 0.29806 0.17801 0.0
C1001 C 0.22027 0.321 0.13306 0.0
C1002 C 0.35671 0.26916 0.22882 0.0
C1003 C 0.33812 0.27324 0.20849 0.0
C1004 C 0.26526 0.24227 0.17678 0.0
C1005 C 0.2361 0.28707 0.14039 0.0
C1006 C 0.25336 0.27793 0.16016 0.0
C1007 C 0.30895 0.25536 0.21161 0.0
C1008 C 0.28939 0.26264 0.19401 0.0
H1009 H 0.21377 0.28574 0.05837 0.0
H1010 H 0.23208 0.26247 0.09496 0.0
H1011 H 0.22929 0.2339 0.14625 0.0
H1012 H 0.30901 0.21068 0.27239 0.0
H1013 H 0.27649 0.2179 0.23666 0.0
C1014 C 0.05128 0.28507 0.43932 0.0
C1015 C 0.06792 0.31377 0.43125 0.0
C1016 C 0.02727 0.26779 0.41973 0.0
C1017 C 0.97585 0.27652 0.37084 0.0
H1018 H 0.94729 0.20074 0.33672 0.0
C1019 C 0.89037 0.20465 0.26506 0.0
C1020 C 0.87041 0.21272 0.27278 0.0
C1021 C 0.91176 0.20987 0.28861 0.0
C1022 C 0.955 0.22185 0.34627 0.0
H1023 H 0.07436 0.34616 0.3945 0.0
H1024 H 0.03307 0.3161 0.36023 0.0
H1025 H -0.0072 0.22477 0.36675 0.0
H1026 H 0.85491 0.22927 0.31229 0.0
H1027 H 0.89128 0.23716 0.35391 0.0
H1028 H 0.93907 0.27445 0.34998 0.0
C1029 C 0.03797 0.30704 0.38209 0.0
C1030 C 0.98093 0.23551 0.3635 0.0
C1031 C 0.06166 0.32423 0.40163 0.0
C1032 C 0.87026 0.22313 0.30566 0.0
C1033 C 0.89122 0.22783 0.32934 0.0
C1034 C 0.95012 0.26296 0.35397 0.0
C1035 C 0.01979 0.27904 0.39185 0.0
C1036 C -0.0082 0.26322 0.3753 0.0
C1037 C 0.91321 0.22292 0.32029 0.0
C1038 C 0.93941 0.23557 0.34115 0.0
H1039 H 0.05563 0.27651 0.46209 0.0
H1040 H 0.01362 0.24624 0.42774 0.0
H1041 H 0.98345 0.29769 0.38015 0.0
H1042 H 0.89099 0.19675 0.23973 0.0
H1043 H 0.92835 0.20584 0.28081 0.0
C1044 C 0.74801 0.08296 0.55168 0.0
C1045 C 0.75737 0.08445 0.58566 0.0
C1046 C 0.7402 0.05902 0.53185 0.0
C1047 C 0.69799 -0.00154 0.51826 0.0
H1048 H 0.73034 0.95023 0.50758 0.0
C1049 C 0.6289 0.886 0.47509 0.0
C1050 C 0.63793 0.87935 0.44446 0.0
C1051 C 0.64754 0.90905 0.49481 0.0
C1052 C 0.72113 0.96355 0.5105 0.0
H1053 H 0.76915 0.06341 0.62392 0.0
H1054 H 0.75538 0.02149 0.58914 0.0
H1055 H 0.75856 -0.00272 0.53314 0.0
H1056 H 0.67447 0.88993 0.41274 0.0
H1057 H 0.70701 0.93025 0.44741 0.0
H1058 H 0.66062 0.96508 0.49625 0.0
C1059 C 0.75403 0.03885 0.57796 0.0
C1060 C 0.73722 0.99037 0.52504 0.0
C1061 C 0.76196 0.06292 0.59786 0.0
C1062 C 0.66672 0.89452 0.43605 0.0
C1063 C 0.68543 0.91764 0.45591 0.0
C1064 C 0.68192 0.97173 0.50432 0.0
C1065 C 0.74155 0.03605 0.54558 0.0
C1066 C 0.72578 0.00813 0.52883 0.0
C1067 C 0.67564 0.92591 0.48446 0.0
C1068 C 0.6932 0.95392 0.50038 0.0
H1069 H 0.74463 0.09936 0.54131 0.0
H1070 H 0.73121 0.05765 0.50663 0.0
H1071 H 0.68839 0.01142 0.5214 0.0
H1072 H 0.607 0.87455 0.48271 0.0
H1073 H 0.63958 0.91467 0.51713 0.0
C1074 C 0.75963 0.69236 0.58483 0.0
C1075 C 0.76327 0.67031 0.59723 0.0
C1076 C 0.74905 0.70533 0.60644 0.0
C1077 C 0.70179 0.68469 0.68038 0.0
H1078 H 0.71568 0.76118 0.67761 0.0
C1079 C 0.65984 0.75321 0.75754 0.0
C1080 C 0.63089 0.73341 0.75731 0.0
C1081 C 0.67853 0.74937 0.73674 0.0
C1082 C 0.71169 0.73979 0.67873 0.0
H1083 H 0.76194 0.64696 0.64284 0.0
H1084 H 0.74433 0.67007 0.68063 0.0
H1085 H 0.74714 0.74904 0.64658 0.0
H1086 H 0.59877 0.69524 0.73293 0.0
H1087 H 0.63121 0.68879 0.69677 0.0
H1088 H 0.66643 0.67523 0.71219 0.0
C1089 C 0.74871 0.67673 0.65401 0.0
C1090 C 0.7296 0.73282 0.66089 0.0
C1091 C 0.75903 0.66363 0.63242 0.0
C1092 C 0.62093 0.71074 0.73421 0.0
C1093 C 0.63955 0.70693 0.71355 0.0
C1094 C 0.6839 0.69158 0.69789 0.0
C1095 C 0.74214 0.6966 0.64084 0.0
C1096 C 0.72477 0.70513 0.66147 0.0
C1097 C 0.66863 0.72567 0.71538 0.0
C1098 C 0.68841 0.71909 0.69702 0.0
H1099 H 0.76256 0.69791 0.5578 0.0
H1100 H 0.74425 0.72058 0.59547 0.0
H1101 H 0.69709 0.66306 0.68094 0.0
H1102 H 0.66828 0.77094 0.77495 0.0
H1103 H 0.70083 0.76418 0.73869 0.0
C1104 C 0.09016 0.74689 0.79361 0.0
C1105 C 0.09626 0.7621 0.76268 0.0
C1106 C 0.06835 0.74403 0.81481 0.0
C1107 C 0.02551 0.74829 0.86065 0.0
H1108 H 0.95511 0.71547 0.81052 0.0
C1109 C 0.91878 0.69614 0.93087 0.0
C1110 C 0.90234 0.6678 0.92121 0.0
C1111 C 0.94154 0.71482 0.91046 0.0
C1112 C 0.97463 0.725 0.82482 0.0
H1113 H 0.08525 0.78748 0.7306 0.0
H1114 H 0.04663 0.78195 0.76748 0.0
H1115 H -0.00045 0.73693 0.77893 0.0
H1116 H 0.89538 0.63732 0.88151 0.0
H1117 H 0.93455 0.67001 0.84557 0.0
H1118 H 0.00052 0.73514 0.9065 0.0
C1119 C 0.05893 0.77244 0.77531 0.0
C1120 C 6e-05 0.73744 0.80679 0.0
C1121 C 0.08111 0.77573 0.75435 0.0
C1122 C 0.90775 0.65903 0.88961 0.0
C1123 C 0.93009 0.67779 0.86896 0.0
C1124 C 9e-05 0.73619 0.87869 0.0
C1125 C 0.0519 0.75597 0.80529 0.0
C1126 C 0.0257 0.74828 0.8245 0.0
C1127 C 0.9478 0.7056 0.87974 0.0
C1128 C 0.97438 0.72352 0.86091 0.0
H1129 H 0.10153 0.73625 0.80076 0.0
H1130 H 0.06329 0.73101 0.8376 0.0
H1131 H 0.04498 0.75661 0.87491 0.0
H1132 H 0.9152 0.70342 0.95522 0.0
H1133 H 0.95484 0.73619 0.91928 0.0
C1134 C 0.3059 0.09122 0.92911 0.0
C1135 C 0.33422 0.10651 0.93946 0.0
C1136 C 0.28623 0.06839 0.94859 0.0
C1137 C 0.27428 0.03145 0.03253 0.0
H1138 H 0.23397 0.96395 0.97747 0.0
C1139 C 0.21435 0.92319 0.09708 0.0
C1140 C 0.22241 0.90419 0.08461 0.0
C1141 C 0.22021 0.9472 0.07814 0.0
C1142 C 0.24489 0.98262 0.9932 0.0
H1143 H 0.36336 0.11123 0.98007 0.0
H1144 H 0.32912 0.07161 0.01393 0.0
H1145 H 0.25988 0.00958 0.94917 0.0
H1146 H 0.2404 0.89418 0.04088 0.0
H1147 H 0.25046 0.93584 0.00798 0.0
H1148 H 0.26057 0.00436 0.07647 0.0
C1149 C 0.3221 0.07717 0.99072 0.0
C1150 C 0.25953 0.00883 0.97702 0.0
C1151 C 0.34181 0.09987 0.97118 0.0
C1152 C 0.23406 0.90843 0.05141 0.0
C1153 C 0.23975 0.93233 0.03243 0.0
C1154 C 0.25954 0.00526 0.04871 0.0
C1155 C 0.29434 0.0605 0.97899 0.0
C1156 C 0.27508 0.03347 0.99646 0.0
C1157 C 0.23398 0.95259 0.04621 0.0
C1158 C 0.24535 0.98046 0.0292 0.0
H1159 H 0.29922 0.09575 0.90491 0.0
H1160 H 0.26489 0.05623 0.93915 0.0
H1161 H 0.28583 0.05005 0.04823 0.0
H1162 H 0.20523 0.9206 0.12247 0.0
H1163 H 0.21507 0.96219 0.08919 0.0
C1164 C 0.13925 0.43539 0.37516 0.0
C1165 C 0.16209 0.4379 0.39443 0.0
C1166 C 0.14224 0.4418 0.34012 0.0
C1167 C 0.1945 0.47479 0.26986 0.0
H1168 H 0.13883 0.41281 0.2154 0.0
C1169 C 0.21999 0.44116 0.1432 0.0
C1170 C 0.19987 0.42982 0.11683 0.0
C1171 C 0.21365 0.44928 0.17428 0.0
C1172 C 0.15419 0.4307 0.23002 0.0
H1173 H 0.20642 0.45081 0.39233 0.0
H1174 H 0.21149 0.46164 0.33121 0.0
H1175 H 0.13093 0.41472 0.27663 0.0
H1176 H 0.15765 0.41925 0.10189 0.0
H1177 H 0.14642 0.43325 0.15676 0.0
H1178 H 0.21841 0.48994 0.22342 0.0
C1179 C 0.19133 0.45494 0.34326 0.0
C1180 C 0.14968 0.43179 0.26516 0.0
C1181 C 0.18836 0.44848 0.37828 0.0
C1182 C 0.17355 0.42778 0.12179 0.0
C1183 C 0.16711 0.43575 0.15315 0.0
C1184 C 0.19899 0.47372 0.2347 0.0
C1185 C 0.16812 0.45095 0.32364 0.0
C1186 C 0.17032 0.45322 0.28567 0.0
C1187 C 0.187 0.44619 0.17987 0.0
C1188 C 0.17942 0.45101 0.21475 0.0
H1189 H 0.11875 0.42755 0.3868 0.0
H1190 H 0.12408 0.43882 0.3257 0.0
H1191 H 0.21051 0.49184 0.28496 0.0
H1192 H 0.24058 0.4433 0.14014 0.0
H1193 H 0.22928 0.45681 0.19451 0.0
C1194 C 0.73338 0.19269 0.53827 0.0
C1195 C 0.75322 0.20513 0.5648 0.0
C1196 C 0.73652 0.20698 0.50753 0.0
C1197 C 0.791 0.25849 0.45259 0.0
H1198 H 0.72726 0.24924 0.39921 0.0
C1199 C 0.80315 0.27984 0.30886 0.0
C1200 C 0.78318 0.2568 0.28964 0.0
C1201 C 0.79837 0.28258 0.3435 0.0
C1202 C 0.74529 0.25218 0.41387 0.0
H1203 H 0.7915 0.24276 0.58016 0.0
H1204 H 0.79713 0.26765 0.52593 0.0
H1205 H 0.7213 0.23707 0.46029 0.0
H1206 H 0.74154 0.21996 0.29088 0.0
H1207 H 0.73348 0.22436 0.35145 0.0
H1208 H 0.81464 0.27194 0.40603 0.0
C1209 C 0.77916 0.24679 0.52917 0.0
C1210 C 0.7419 0.24525 0.44878 0.0
C1211 C 0.77594 0.23252 0.56015 0.0
C1212 C 0.7574 0.23786 0.30501 0.0
C1213 C 0.7527 0.24052 0.33974 0.0
C1214 C 0.79439 0.26537 0.41773 0.0
C1215 C 0.7596 0.23401 0.50246 0.0
C1216 C 0.76446 0.24722 0.46808 0.0
C1217 C 0.77362 0.26227 0.35967 0.0
C1218 C 0.7713 0.26118 0.39769 0.0
H1219 H 0.7155 0.17172 0.54102 0.0
H1220 H 0.72137 0.19635 0.4872 0.0
H1221 H 0.80871 0.26002 0.46671 0.0
H1222 H 0.82304 0.29512 0.29758 0.0
H1223 H 0.81463 0.29988 0.35804 0.0
C1224 C 0.50113 0.68974 0.71522 0.0
C1225 C 0.50475 0.71207 0.7364 0.0
C1226 C 0.49313 0.68848 0.6809 0.0
C1227 C 0.46793 0.72091 0.61608 0.0
H1228 H 0.51815 0.7108 0.55521 0.0
C1229 C 0.50571 0.77676 0.4867 0.0
C1230 C 0.51095 0.76328 0.45934 0.0
C1231 C 0.49664 0.76347 0.51848 0.0
C1232 C 0.50345 0.71303 0.57165 0.0
H1233 H 0.501 0.74955 0.73866 0.0
H1234 H 0.48769 0.74768 0.67875 0.0
H1235 H 0.51663 0.69962 0.61585 0.0
H1236 H 0.50939 0.72463 0.44347 0.0
H1237 H 0.49368 0.70148 0.49927 0.0
H1238 H 0.45596 0.73582 0.5719 0.0
C1239 C 0.49064 0.73092 0.68871 0.0
C1240 C 0.50255 0.70659 0.6065 0.0
C1241 C 0.49849 0.73211 0.72308 0.0
C1242 C 0.5057 0.73567 0.46406 0.0
C1243 C 0.49676 0.72242 0.496 0.0
C1244 C 0.4689 0.72744 0.58119 0.0
C1245 C 0.48871 0.70957 0.66697 0.0
C1246 C 0.48549 0.71136 0.62931 0.0
C1247 C 0.49268 0.73643 0.52371 0.0
C1248 C 0.48739 0.72446 0.55888 0.0
H1249 H 0.50538 0.67371 0.72478 0.0
H1250 H 0.49134 0.6715 0.66495 0.0
H1251 H 0.45419 0.72432 0.63292 0.0
H1252 H 0.50931 0.79794 0.4839 0.0
H1253 H 0.49404 0.77497 0.53943 0.0
C1254 C 0.8281 0.53699 0.87238 0.0
C1255 C 0.80725 0.53857 0.89169 0.0
C1256 C 0.82371 0.52943 0.83775 0.0
C1257 C 0.77012 0.50158 0.76842 0.0
H1258 H 0.83027 0.55894 0.71314 0.0
C1259 C 0.75123 0.54149 0.64225 0.0
C1260 C 0.77134 0.5508 0.61578 0.0
C1261 C 0.7559 0.53168 0.67314 0.0
C1262 C 0.81355 0.54225 0.72795 0.0
H1263 H 0.76466 0.53143 0.89037 0.0
H1264 H 0.75721 0.51871 0.82981 0.0
H1265 H 0.83766 0.55577 0.77414 0.0
H1266 H 0.81165 0.55592 0.60045 0.0
H1267 H 0.81992 0.53888 0.65488 0.0
H1268 H 0.74555 0.48909 0.72234 0.0
C1269 C 0.77686 0.52306 0.84153 0.0
C1270 C 0.81777 0.54043 0.76299 0.0
C1271 C 0.78122 0.53059 0.87621 0.0
C1272 C 0.79583 0.54909 0.62045 0.0
C1273 C 0.80057 0.53934 0.65155 0.0
C1274 C 0.76592 0.50337 0.73331 0.0
C1275 C 0.7984 0.52329 0.82171 0.0
C1276 C 0.79572 0.52085 0.78382 0.0
C1277 C 0.78082 0.53095 0.67838 0.0
C1278 C 0.7872 0.52454 0.71309 0.0
H1279 H 0.84826 0.54256 0.88362 0.0
H1280 H 0.84052 0.52939 0.8232 0.0
H1281 H 0.75294 0.48597 0.78379 0.0
H1282 H 0.73199 0.54225 0.63947 0.0
H1283 H 0.74048 0.52584 0.69348 0.0
C1284 C 0.21623 0.74493 0.8032 0.0
C1285 C 0.19051 0.72617 0.78761 0.0
C1286 C 0.22042 0.74254 0.83816 0.0
C1287 C 0.22682 0.7306 0.9126 0.0
H1288 H 0.1643 0.7258 0.96469 0.0
C1289 C 0.19753 0.75296 0.05832 0.0
C1290 C 0.22111 0.77984 0.06275 0.0
C1291 C 0.1936 0.73837 0.02745 0.0
C1292 C 0.18172 0.72647 0.95078 0.0
H1293 H 0.15008 0.6885 0.79575 0.0
H1294 H 0.15755 0.68432 0.85666 0.0
H1295 H 0.15827 0.71357 0.90407 0.0
H1296 H 0.25956 0.81197 0.03867 0.0
H1297 H 0.2525 0.78682 0.98513 0.0
H1298 H 0.25068 0.74506 0.95911 0.0
C1299 C 0.17421 0.7012 0.842 0.0
C1300 C 0.17828 0.71943 0.91597 0.0
C1301 C 0.16997 0.70363 0.80708 0.0
C1302 C 0.24102 0.79142 0.03611 0.0
C1303 C 0.23719 0.77682 0.00551 0.0
C1304 C 0.23026 0.73765 0.94744 0.0
C1305 C 0.19902 0.72127 0.85818 0.0
C1306 C 0.20112 0.72255 0.8962 0.0
C1307 C 0.21333 0.7503 0.00067 0.0
C1308 C 0.20807 0.7368 0.96646 0.0
H1309 H 0.23254 0.76244 0.78893 0.0
H1310 H 0.2397 0.7585 0.84991 0.0
H1311 H 0.24464 0.7327 0.89813 0.0
H1312 H 0.18188 0.74338 0.07842 0.0
H1313 H 0.17502 0.71792 0.02437 0.0
C1314 C 0.46922 0.20762 0.98458 0.0
C1315 C 0.46429 0.22154 0.95745 0.0
C1316 C 0.47898 0.22082 0.01624 0.0
C1317 C 0.47477 0.27238 0.06997 0.0
H1318 H 0.52379 0.25955 0.12975 0.0
C1319 C 0.47851 0.29518 0.21353 0.0
C1320 C 0.4745 0.27254 0.23439 0.0
C1321 C 0.48654 0.29665 0.17918 0.0
C1322 C 0.51013 0.2634 0.11334 0.0
H1323 H 0.46706 0.26083 0.94188 0.0
H1324 H 0.48394 0.28381 -0.00253 0.0
H1325 H 0.52079 0.24778 0.06872 0.0
H1326 H 0.47774 0.23475 0.23616 0.0
H1327 H 0.49101 0.23691 0.17619 0.0
H1328 H 0.46278 0.28643 0.1146 0.0
C1329 C 0.4801 0.2626 0.99411 0.0
C1330 C 0.50846 0.25671 0.07843 0.0
C1331 C 0.47048 0.24944 0.96229 0.0
C1332 C 0.48055 0.25244 0.2208 0.0
C1333 C 0.48838 0.2538 0.18639 0.0
C1334 C 0.47634 0.27895 0.10482 0.0
C1335 C 0.48394 0.24822 0.02158 0.0
C1336 C 0.49003 0.26025 0.05668 0.0
C1337 C 0.49053 0.2754 0.1649 0.0
C1338 C 0.4933 0.27363 0.12714 0.0
H1339 H 0.4649 0.18621 0.98168 0.0
H1340 H 0.48137 0.20905 0.03704 0.0
H1341 H 0.46013 0.27506 0.05395 0.0
H1342 H 0.47446 0.31128 0.22335 0.0
H1343 H 0.48856 0.31385 0.16345 0.0
loop_
_geom_bond_atom_site_label_1
_geom_bond_atom_site_label_2
_geom_bond_distance
_geom_bond_site_symmetry_2
_ccdc_geom_bond_type
Sc0 O3 2.025 . S
Sc0 O10 2.105 1_554 S
Sc0 O13 2.105 . S
Sc0 O16 2.105 . S
Sc0 O19 2.105 1_554 S
Sc1 O3 2.025 1_556 S
Sc1 O11 2.105 . S
Sc1 O15 2.105 1_556 S
Sc1 O17 2.105 1_556 S
Sc1 O21 2.105 . S
Sc2 O3 2.025 . S
Sc2 O12 2.105 1_554 S
Sc2 O14 2.105 . S
Sc2 O18 2.105 . S
Sc2 O20 2.105 . S
O3 Sc0 2.025 . S
O3 Sc1 2.025 1_554 S
O3 Sc2 2.025 . S
C4 O10 1.268 . S
C4 O20 1.268 1_556 S
C5 O11 1.268 . S
C5 O19 1.268 . S
C6 O12 1.268 . S
C6 O21 1.268 . S
C7 O13 1.268 . S
C7 O17 1.268 . S
C8 O14 1.268 . S
C8 O16 1.268 . S
C9 O15 1.268 . S
C9 O18 1.268 . S
O10 Sc0 2.105 1_556 S
O10 C4 1.268 . S
O11 Sc1 2.105 . S
O11 C5 1.268 . S
O12 Sc2 2.105 1_556 S
O12 C6 1.268 . S
O13 Sc0 2.105 . S
O13 C7 1.268 . S
O14 Sc2 2.105 . S
O14 C8 1.268 . S
O15 Sc1 2.105 1_554 S
O15 C9 1.268 . S
O16 Sc0 2.105 . S
O16 C8 1.268 . S
O17 Sc1 2.105 1_554 S
O17 C7 1.268 . S
O18 Sc2 2.105 . S
O18 C9 1.268 . S
O19 Sc0 2.105 1_556 S
O19 C5 1.268 . S
O20 Sc2 2.105 . S
O20 C4 1.268 1_554 S
O21 Sc1 2.105 . S
O21 C6 1.268 . S
Sc22 O25 2.025 . S
Sc22 O32 2.105 . S
Sc22 O35 2.105 . S
Sc22 O38 2.105 . S
Sc22 O41 2.105 . S
Sc23 O25 2.025 . S
Sc23 O33 2.105 . S
Sc23 O37 2.105 . S
Sc23 O39 2.105 . S
Sc23 O43 2.105 . S
Sc24 O25 2.025 . S
Sc24 O34 2.105 . S
Sc24 O36 2.105 . S
Sc24 O40 2.105 . S
Sc24 O42 2.105 . S
O25 Sc22 2.025 . S
O25 Sc23 2.025 . S
O25 Sc24 2.025 . S
C26 O32 1.268 . S
C26 O42 1.268 . S
C27 O33 1.268 . S
C27 O41 1.268 . S
C28 O34 1.268 . S
C28 O43 1.268 . S
C29 O35 1.268 . S
C29 O39 1.268 . S
C30 O36 1.268 . S
C30 O38 1.268 . S
C31 O37 1.268 . S
C31 O40 1.268 . S
O32 Sc22 2.105 . S
O32 C26 1.268 . S
O33 Sc23 2.105 . S
O33 C27 1.268 . S
O34 Sc24 2.105 . S
O34 C28 1.268 . S
O35 Sc22 2.105 . S
O35 C29 1.268 . S
O36 Sc24 2.105 . S
O36 C30 1.268 . S
O37 Sc23 2.105 . S
O37 C31 1.268 . S
O38 Sc22 2.105 . S
O38 C30 1.268 . S
O39 Sc23 2.105 . S
O39 C29 1.268 . S
O40 Sc24 2.105 . S
O40 C31 1.268 . S
O41 Sc22 2.105 . S
O41 C27 1.268 . S
O42 Sc24 2.105 . S
O42 C26 1.268 . S
O43 Sc23 2.105 . S
O43 C28 1.268 . S
Sc44 O47 2.025 . S
Sc44 O54 2.105 . S
Sc44 O57 2.105 . S
Sc44 O60 2.105 . S
Sc44 O63 2.105 . S
Sc45 O47 2.025 . S
Sc45 O55 2.105 . S
Sc45 O59 2.105 . S
Sc45 O61 2.105 . S
Sc45 O65 2.105 . S
Sc46 O47 2.025 . S
Sc46 O56 2.105 . S
Sc46 O58 2.105 . S
Sc46 O62 2.105 . S
Sc46 O64 2.105 . S
O47 Sc44 2.025 . S
O47 Sc45 2.025 . S
O47 Sc46 2.025 . S
C48 O54 1.268 . S
C48 O64 1.268 . S
C49 O55 1.268 . S
C49 O63 1.268 . S
C50 O56 1.268 . S
C50 O65 1.268 . S
C51 O57 1.268 . S
C51 O61 1.268 . S
C52 O58 1.268 . S
C52 O60 1.268 . S
C53 O59 1.268 . S
C53 O62 1.268 . S
O54 Sc44 2.105 . S
O54 C48 1.268 . S
O55 Sc45 2.105 . S
O55 C49 1.268 . S
O56 Sc46 2.105 . S
O56 C50 1.268 . S
O57 Sc44 2.105 . S
O57 C51 1.268 . S
O58 Sc46 2.105 . S
O58 C52 1.268 . S
O59 Sc45 2.105 . S
O59 C53 1.268 . S
O60 Sc44 2.105 . S
O60 C52 1.268 . S
O61 Sc45 2.105 . S
O61 C51 1.268 . S
O62 Sc46 2.105 . S
O62 C53 1.268 . S
O63 Sc44 2.105 . S
O63 C49 1.268 . S
O64 Sc46 2.105 . S
O64 C48 1.268 . S
O65 Sc45 2.105 . S
O65 C50 1.268 . S
Sc66 O69 2.025 . S
Sc66 O76 2.105 . S
Sc66 O79 2.105 . S
Sc66 O82 2.105 . S
Sc66 O85 2.105 . S
Sc67 O69 2.025 . S
Sc67 O77 2.105 . S
Sc67 O81 2.105 . S
Sc67 O83 2.105 . S
Sc67 O87 2.105 . S
Sc68 O69 2.025 . S
Sc68 O78 2.105 . S
Sc68 O80 2.105 . S
Sc68 O84 2.105 . S
Sc68 O86 2.105 . S
O69 Sc66 2.025 . S
O69 Sc67 2.025 . S
O69 Sc68 2.025 . S
C70 O76 1.268 . S
C70 O86 1.268 . S
C71 O77 1.268 . S
C71 O85 1.268 . S
C72 O78 1.268 . S
C72 O87 1.268 . S
C73 O79 1.268 . S
C73 O83 1.268 . S
C74 O80 1.268 . S
C74 O82 1.268 . S
C75 O81 1.268 . S
C75 O84 1.268 . S
O76 Sc66 2.105 . S
O76 C70 1.268 . S
O77 Sc67 2.105 . S
O77 C71 1.268 . S
O78 Sc68 2.105 . S
O78 C72 1.268 . S
O79 Sc66 2.105 . S
O79 C73 1.268 . S
O80 Sc68 2.105 . S
O80 C74 1.268 . S
O81 Sc67 2.105 . S
O81 C75 1.268 . S
O82 Sc66 2.105 . S
O82 C74 1.268 . S
O83 Sc67 2.105 . S
O83 C73 1.268 . S
O84 Sc68 2.105 . S
O84 C75 1.268 . S
O85 Sc66 2.105 . S
O85 C71 1.268 . S
O86 Sc68 2.105 . S
O86 C70 1.268 . S
O87 Sc67 2.105 . S
O87 C72 1.268 . S
Sc88 O91 2.025 . S
Sc88 O98 2.105 . S
Sc88 O101 2.105 . S
Sc88 O104 2.105 . S
Sc88 O107 2.105 . S
Sc89 O91 2.025 . S
Sc89 O99 2.105 . S
Sc89 O103 2.105 . S
Sc89 O105 2.105 . S
Sc89 O109 2.105 . S
Sc90 O91 2.025 . S
Sc90 O100 2.105 . S
Sc90 O102 2.105 . S
Sc90 O106 2.105 . S
Sc90 O108 2.105 . S
O91 Sc88 2.025 . S
O91 Sc89 2.025 . S
O91 Sc90 2.025 . S
C92 O98 1.268 . S
C92 O108 1.268 . S
C93 O99 1.268 . S
C93 O107 1.268 . S
C94 O100 1.268 . S
C94 O109 1.268 . S
C95 O101 1.268 . S
C95 O105 1.268 . S
C96 O102 1.268 . S
C96 O104 1.268 . S
C97 O103 1.268 . S
C97 O106 1.268 . S
O98 Sc88 2.105 . S
O98 C92 1.268 . S
O99 Sc89 2.105 . S
O99 C93 1.268 . S
O100 Sc90 2.105 . S
O100 C94 1.268 . S
O101 Sc88 2.105 . S
O101 C95 1.268 . S
O102 Sc90 2.105 . S
O102 C96 1.268 . S
O103 Sc89 2.105 . S
O103 C97 1.268 . S
O104 Sc88 2.105 . S
O104 C96 1.268 . S
O105 Sc89 2.105 . S
O105 C95 1.268 . S
O106 Sc90 2.105 . S
O106 C97 1.268 . S
O107 Sc88 2.105 . S
O107 C93 1.268 . S
O108 Sc90 2.105 . S
O108 C92 1.268 . S
O109 Sc89 2.105 . S
O109 C94 1.268 . S
Sc110 O113 2.025 . S
Sc110 O120 2.105 . S
Sc110 O123 2.105 . S
Sc110 O126 2.105 . S
Sc110 O129 2.105 . S
Sc111 O113 2.025 . S
Sc111 O121 2.105 . S
Sc111 O125 2.105 . S
Sc111 O127 2.105 . S
Sc111 O131 2.105 . S
Sc112 O113 2.025 . S
Sc112 O122 2.105 . S
Sc112 O124 2.105 . S
Sc112 O128 2.105 . S
Sc112 O130 2.105 . S
O113 Sc110 2.025 . S
O113 Sc111 2.025 . S
O113 Sc112 2.025 . S
C114 O120 1.268 . S
C114 O130 1.268 . S
C115 O121 1.268 . S
C115 O129 1.268 . S
C116 O122 1.268 . S
C116 O131 1.268 . S
C117 O123 1.268 . S
C117 O127 1.268 . S
C118 O124 1.268 . S
C118 O126 1.268 . S
C119 O125 1.268 . S
C119 O128 1.268 . S
O120 Sc110 2.105 . S
O120 C114 1.268 . S
O121 Sc111 2.105 . S
O121 C115 1.268 . S
O122 Sc112 2.105 . S
O122 C116 1.268 . S
O123 Sc110 2.105 . S
O123 C117 1.268 . S
O124 Sc112 2.105 . S
O124 C118 1.268 . S
O125 Sc111 2.105 . S
O125 C119 1.268 . S
O126 Sc110 2.105 . S
O126 C118 1.268 . S
O127 Sc111 2.105 . S
O127 C117 1.268 . S
O128 Sc112 2.105 . S
O128 C119 1.268 . S
O129 Sc110 2.105 . S
O129 C115 1.268 . S
O130 Sc112 2.105 . S
O130 C114 1.268 . S
O131 Sc111 2.105 . S
O131 C116 1.268 . S
Sc132 O135 2.025 . S
Sc132 O142 2.105 . S
Sc132 O145 2.105 . S
Sc132 O148 2.105 . S
Sc132 O151 2.105 . S
Sc133 O135 2.025 . S
Sc133 O143 2.105 . S
Sc133 O147 2.105 . S
Sc133 O149 2.105 . S
Sc133 O153 2.105 . S
Sc134 O135 2.025 . S
Sc134 O144 2.105 . S
Sc134 O146 2.105 . S
Sc134 O150 2.105 . S
Sc134 O152 2.105 . S
O135 Sc132 2.025 . S
O135 Sc133 2.025 . S
O135 Sc134 2.025 . S
C136 O142 1.268 . S
C136 O152 1.268 . S
C137 O143 1.268 . S
C137 O151 1.268 . S
C138 O144 1.268 . S
C138 O153 1.268 . S
C139 O145 1.268 . S
C139 O149 1.268 . S
C140 O146 1.268 . S
C140 O148 1.268 . S
C141 O147 1.268 . S
C141 O150 1.268 . S
O142 Sc132 2.105 . S
O142 C136 1.268 . S
O143 Sc133 2.105 . S
O143 C137 1.268 . S
O144 Sc134 2.105 . S
O144 C138 1.268 . S
O145 Sc132 2.105 . S
O145 C139 1.268 . S
O146 Sc134 2.105 . S
O146 C140 1.268 . S
O147 Sc133 2.105 . S
O147 C141 1.268 . S
O148 Sc132 2.105 . S
O148 C140 1.268 . S
O149 Sc133 2.105 . S
O149 C139 1.268 . S
O150 Sc134 2.105 . S
O150 C141 1.268 . S
O151 Sc132 2.105 . S
O151 C137 1.268 . S
O152 Sc134 2.105 . S
O152 C136 1.268 . S
O153 Sc133 2.105 . S
O153 C138 1.268 . S
Sc154 O157 2.025 . S
Sc154 O164 2.105 . S
Sc154 O167 2.105 . S
Sc154 O170 2.105 1_554 S
Sc154 O173 2.105 . S
Sc155 O157 2.025 . S
Sc155 O165 2.105 . S
Sc155 O169 2.105 1_554 S
Sc155 O171 2.105 . S
Sc155 O175 2.105 . S
Sc156 O157 2.025 1_556 S
Sc156 O166 2.105 1_556 S
Sc156 O168 2.105 . S
Sc156 O172 2.105 . S
Sc156 O174 2.105 1_556 S
O157 Sc154 2.025 . S
O157 Sc155 2.025 . S
O157 Sc156 2.025 1_554 S
C158 O164 1.268 . S
C158 O174 1.268 . S
C159 O165 1.268 . S
C159 O173 1.268 . S
C160 O166 1.268 . S
C160 O175 1.268 . S
C161 O167 1.268 . S
C161 O171 1.268 . S
C162 O168 1.268 . S
C162 O170 1.268 . S
C163 O169 1.268 . S
C163 O172 1.268 . S
O164 Sc154 2.105 . S
O164 C158 1.268 . S
O165 Sc155 2.105 . S
O165 C159 1.268 . S
O166 Sc156 2.105 1_554 S
O166 C160 1.268 . S
O167 Sc154 2.105 . S
O167 C161 1.268 . S
O168 Sc156 2.105 . S
O168 C162 1.268 . S
O169 Sc155 2.105 1_556 S
O169 C163 1.268 . S
O170 Sc154 2.105 1_556 S
O170 C162 1.268 . S
O171 Sc155 2.105 . S
O171 C161 1.268 . S
O172 Sc156 2.105 . S
O172 C163 1.268 . S
O173 Sc154 2.105 . S
O173 C159 1.268 . S
O174 Sc156 2.105 1_554 S
O174 C158 1.268 . S
O175 Sc155 2.105 . S
O175 C160 1.268 . S
Sc176 O179 2.025 . S
Sc176 O186 2.105 . S
Sc176 O189 2.105 . S
Sc176 O192 2.105 . S
Sc176 O195 2.105 . S
Sc177 O179 2.025 . S
Sc177 O187 2.105 . S
Sc177 O191 2.105 . S
Sc177 O193 2.105 . S
Sc177 O197 2.105 . S
Sc178 O179 2.025 . S
Sc178 O188 2.105 . S
Sc178 O190 2.105 . S
Sc178 O194 2.105 . S
Sc178 O196 2.105 . S
O179 Sc176 2.025 . S
O179 Sc177 2.025 . S
O179 Sc178 2.025 . S
C180 O186 1.268 . S
C180 O196 1.268 . S
C181 O187 1.268 . S
C181 O195 1.268 . S
C182 O188 1.268 . S
C182 O197 1.268 . S
C183 O189 1.268 . S
C183 O193 1.268 . S
C184 O190 1.268 . S
C184 O192 1.268 . S
C185 O191 1.268 . S
C185 O194 1.268 . S
O186 Sc176 2.105 . S
O186 C180 1.268 . S
O187 Sc177 2.105 . S
O187 C181 1.268 . S
O188 Sc178 2.105 . S
O188 C182 1.268 . S
O189 Sc176 2.105 . S
O189 C183 1.268 . S
O190 Sc178 2.105 . S
O190 C184 1.268 . S
O191 Sc177 2.105 . S
O191 C185 1.268 . S
O192 Sc176 2.105 . S
O192 C184 1.268 . S
O193 Sc177 2.105 . S
O193 C183 1.268 . S
O194 Sc178 2.105 . S
O194 C185 1.268 . S
O195 Sc176 2.105 . S
O195 C181 1.268 . S
O196 Sc178 2.105 . S
O196 C180 1.268 . S
O197 Sc177 2.105 . S
O197 C182 1.268 . S
Sc198 O201 2.025 . S
Sc198 O208 2.105 . S
Sc198 O211 2.105 . S
Sc198 O214 2.105 . S
Sc198 O217 2.105 . S
Sc199 O201 2.025 . S
Sc199 O209 2.105 . S
Sc199 O213 2.105 . S
Sc199 O215 2.105 . S
Sc199 O219 2.105 . S
Sc200 O201 2.025 . S
Sc200 O210 2.105 . S
Sc200 O212 2.105 . S
Sc200 O216 2.105 . S
Sc200 O218 2.105 . S
O201 Sc198 2.025 . S
O201 Sc199 2.025 . S
O201 Sc200 2.025 . S
C202 O208 1.268 . S
C202 O218 1.268 . S
C203 O209 1.268 . S
C203 O217 1.268 . S
C204 O210 1.268 . S
C204 O219 1.268 . S
C205 O211 1.268 . S
C205 O215 1.268 . S
C206 O212 1.268 . S
C206 O214 1.268 . S
C207 O213 1.268 . S
C207 O216 1.268 . S
O208 Sc198 2.105 . S
O208 C202 1.268 . S
O209 Sc199 2.105 . S
O209 C203 1.268 . S
O210 Sc200 2.105 . S
O210 C204 1.268 . S
O211 Sc198 2.105 . S
O211 C205 1.268 . S
O212 Sc200 2.105 . S
O212 C206 1.268 . S
O213 Sc199 2.105 . S
O213 C207 1.268 . S
O214 Sc198 2.105 . S
O214 C206 1.268 . S
O215 Sc199 2.105 . S
O215 C205 1.268 . S
O216 Sc200 2.105 . S
O216 C207 1.268 . S
O217 Sc198 2.105 . S
O217 C203 1.268 . S
O218 Sc200 2.105 . S
O218 C202 1.268 . S
O219 Sc199 2.105 . S
O219 C204 1.268 . S
Sc220 O223 2.025 . S
Sc220 O230 2.105 . S
Sc220 O233 2.105 . S
Sc220 O236 2.105 . S
Sc220 O239 2.105 . S
Sc221 O223 2.025 . S
Sc221 O231 2.105 . S
Sc221 O235 2.105 . S
Sc221 O237 2.105 . S
Sc221 O241 2.105 . S
Sc222 O223 2.025 . S
Sc222 O232 2.105 . S
Sc222 O234 2.105 . S
Sc222 O238 2.105 . S
Sc222 O240 2.105 . S
O223 Sc220 2.025 . S
O223 Sc221 2.025 . S
O223 Sc222 2.025 . S
C224 O230 1.268 . S
C224 O240 1.268 . S
C225 O231 1.268 . S
C225 O239 1.268 . S
C226 O232 1.268 . S
C226 O241 1.268 . S
C227 O233 1.268 . S
C227 O237 1.268 . S
C228 O234 1.268 . S
C228 O236 1.268 . S
C229 O235 1.268 . S
C229 O238 1.268 . S
O230 Sc220 2.105 . S
O230 C224 1.268 . S
O231 Sc221 2.105 . S
O231 C225 1.268 . S
O232 Sc222 2.105 . S
O232 C226 1.268 . S
O233 Sc220 2.105 . S
O233 C227 1.268 . S
O234 Sc222 2.105 . S
O234 C228 1.268 . S
O235 Sc221 2.105 . S
O235 C229 1.268 . S
O236 Sc220 2.105 . S
O236 C228 1.268 . S
O237 Sc221 2.105 . S
O237 C227 1.268 . S
O238 Sc222 2.105 . S
O238 C229 1.268 . S
O239 Sc220 2.105 . S
O239 C225 1.268 . S
O240 Sc222 2.105 . S
O240 C224 1.268 . S
O241 Sc221 2.105 . S
O241 C226 1.268 . S
Sc242 O245 2.025 . S
Sc242 O252 2.105 . S
Sc242 O255 2.105 . S
Sc242 O258 2.105 . S
Sc242 O261 2.105 . S
Sc243 O245 2.025 . S
Sc243 O253 2.105 . S
Sc243 O257 2.105 . S
Sc243 O259 2.105 . S
Sc243 O263 2.105 . S
Sc244 O245 2.025 . S
Sc244 O254 2.105 . S
Sc244 O256 2.105 . S
Sc244 O260 2.105 . S
Sc244 O262 2.105 . S
O245 Sc242 2.025 . S
O245 Sc243 2.025 . S
O245 Sc244 2.025 . S
C246 O252 1.268 . S
C246 O262 1.268 . S
C247 O253 1.268 . S
C247 O261 1.268 . S
C248 O254 1.268 . S
C248 O263 1.268 . S
C249 O255 1.268 . S
C249 O259 1.268 . S
C250 O256 1.268 . S
C250 O258 1.268 . S
C251 O257 1.268 . S
C251 O260 1.268 . S
O252 Sc242 2.105 . S
O252 C246 1.268 . S
O253 Sc243 2.105 . S
O253 C247 1.268 . S
O254 Sc244 2.105 . S
O254 C248 1.268 . S
O255 Sc242 2.105 . S
O255 C249 1.268 . S
O256 Sc244 2.105 . S
O256 C250 1.268 . S
O257 Sc243 2.105 . S
O257 C251 1.268 . S
O258 Sc242 2.105 . S
O258 C250 1.268 . S
O259 Sc243 2.105 . S
O259 C249 1.268 . S
O260 Sc244 2.105 . S
O260 C251 1.268 . S
O261 Sc242 2.105 . S
O261 C247 1.268 . S
O262 Sc244 2.105 . S
O262 C246 1.268 . S
O263 Sc243 2.105 . S
O263 C248 1.268 . S
C264 C265 1.349 . S
C264 C266 1.327 . S
C264 H289 0.950 . S
C265 C264 1.349 . S
C265 C281 1.349 . S
C266 C264 1.327 . S
C266 C285 1.429 . S
C266 H290 0.950 . S
C267 C284 1.574 . S
C267 C286 1.368 . S
C267 H291 0.949 . S
H268 C272 0.949 . S
C269 C270 1.349 . S
C269 C271 1.327 . S
C269 H292 0.950 . S
C270 C269 1.349 . S
C270 C282 1.349 . S
C271 C269 1.327 . S
C271 C287 1.429 . S
C271 H293 0.950 . S
C272 H268 0.949 . S
C272 C280 1.574 . S
C272 C288 1.368 . S
H273 C281 0.950 . S
H274 C279 0.950 . S
H275 C280 0.949 . S
H276 C282 0.950 . S
H277 C283 0.950 . S
H278 C284 0.949 . S
C279 H274 0.950 . S
C279 C281 1.327 . S
C279 C285 1.429 . S
C280 C272 1.574 . S
C280 H275 0.949 . S
C280 C286 1.368 . S
C281 C265 1.349 . S
C281 H273 0.950 . S
C281 C279 1.327 . S
C282 C270 1.349 . S
C282 H276 0.950 . S
C282 C283 1.327 . S
C283 H277 0.950 . S
C283 C282 1.327 . S
C283 C287 1.429 . S
C284 C267 1.574 . S
C284 H278 0.949 . S
C284 C288 1.368 . S
C285 C266 1.429 . S
C285 C279 1.429 . S
C285 C286 1.523 . S
C286 C267 1.368 . S
C286 C280 1.368 . S
C286 C285 1.523 . S
C287 C271 1.429 . S
C287 C283 1.429 . S
C287 C288 1.523 . S
C288 C272 1.368 . S
C288 C284 1.368 . S
C288 C287 1.523 . S
H289 C264 0.950 . S
H290 C266 0.950 . S
H291 C267 0.949 . S
H292 C269 0.950 . S
H293 C271 0.950 . S
C294 C295 1.349 . S
C294 C296 1.327 . S
C294 H319 0.950 . S
C295 C294 1.349 . S
C295 C311 1.349 . S
C296 C294 1.327 . S
C296 C315 1.429 . S
C296 H320 0.972 . S
C297 C314 1.574 . S
C297 C316 1.368 . S
C297 H321 0.949 . S
H298 C302 0.949 . S
C299 C300 1.349 . S
C299 C301 1.327 . S
C299 H322 0.950 . S
C300 C299 1.349 . S
C300 C312 1.349 . S
C301 C299 1.327 . S
C301 C317 1.429 . S
C301 H323 0.950 . S
C302 H298 0.949 . S
C302 C310 1.574 . S
C302 C318 1.368 . S
H303 C311 0.950 . S
H304 C309 0.950 . S
H305 C310 0.949 . S
H306 C312 0.950 . S
H307 C313 0.950 . S
H308 C314 0.949 . S
C309 H304 0.950 . S
C309 C311 1.327 . S
C309 C315 1.429 . S
C310 C302 1.574 . S
C310 H305 0.949 . S
C310 C316 1.368 . S
C311 C295 1.349 . S
C311 H303 0.950 . S
C311 C309 1.327 . S
C312 C300 1.349 . S
C312 H306 0.950 . S
C312 C313 1.327 . S
C313 H307 0.950 . S
C313 C312 1.327 . S
C313 C317 1.429 . S
C314 C297 1.574 . S
C314 H308 0.949 . S
C314 C318 1.368 . S
C315 C296 1.429 . S
C315 C309 1.429 . S
C315 C316 1.523 1_554 S
C316 C297 1.368 . S
C316 C310 1.368 . S
C316 C315 1.523 1_556 S
C317 C301 1.429 . S
C317 C313 1.429 . S
C317 C318 1.523 . S
C318 C302 1.368 . S
C318 C314 1.368 . S
C318 C317 1.523 . S
H319 C294 0.950 . S
H320 C296 0.972 . S
H321 C297 0.949 . S
H322 C299 0.950 . S
H323 C301 0.950 . S
C324 C325 1.349 . S
C324 C326 1.332 . S
C324 H349 0.950 . S
C325 C324 1.349 . S
C325 C341 1.349 . S
C326 C324 1.332 . S
C326 C345 1.425 1_556 S
C326 H350 0.948 1_556 S
C327 C344 1.574 . S
C327 C346 1.368 . S
C327 H351 0.949 . S
H328 C332 0.949 . S
C329 C330 1.349 . S
C329 C331 1.327 . S
C329 H352 0.950 . S
C330 C329 1.349 . S
C330 C342 1.349 . S
C331 C329 1.327 . S
C331 C347 1.429 . S
C331 H353 0.950 . S
C332 H328 0.949 . S
C332 C340 1.574 . S
C332 C348 1.368 . S
H333 C341 0.950 . S
H334 C339 0.950 . S
H335 C340 0.949 . S
H336 C342 0.950 . S
H337 C343 0.950 . S
H338 C344 0.949 . S
C339 H334 0.950 . S
C339 C341 1.327 1_554 S
C339 C345 1.429 . S
C340 C332 1.574 . S
C340 H335 0.949 . S
C340 C346 1.368 . S
C341 C325 1.349 . S
C341 H333 0.950 . S
C341 C339 1.327 1_556 S
C342 C330 1.349 . S
C342 H336 0.950 . S
C342 C343 1.327 . S
C343 H337 0.950 . S
C343 C342 1.327 . S
C343 C347 1.429 . S
C344 C327 1.574 . S
C344 H338 0.949 . S
C344 C348 1.368 . S
C345 C326 1.425 1_554 S
C345 C339 1.429 . S
C345 C346 1.523 . S
C346 C327 1.368 . S
C346 C340 1.368 . S
C346 C345 1.523 . S
C347 C331 1.429 . S
C347 C343 1.429 . S
C347 C348 1.523 . S
C348 C332 1.368 . S
C348 C344 1.368 . S
C348 C347 1.523 . S
H349 C324 0.950 . S
H350 C326 0.948 1_554 S
H351 C327 0.949 . S
H352 C329 0.950 . S
H353 C331 0.950 . S
C354 C355 1.349 . S
C354 C356 1.327 . S
C354 H379 0.950 . S
C355 C354 1.349 . S
C355 C371 1.349 . S
C356 C354 1.327 . S
C356 C375 1.429 . S
C356 H380 0.950 . S
C357 C374 1.574 . S
C357 C376 1.368 . S
C357 H381 0.949 . S
H358 C362 0.949 . S
C359 C360 1.349 . S
C359 C361 1.327 . S
C359 H382 0.950 . S
C360 C359 1.349 . S
C360 C372 1.349 . S
C361 C359 1.327 . S
C361 C377 1.429 . S
C361 H383 0.950 . S
C362 H358 0.949 . S
C362 C370 1.574 . S
C362 C378 1.368 . S
H363 C371 0.950 . S
H364 C369 0.950 . S
H365 C370 0.949 . S
H366 C372 0.950 . S
H367 C373 0.950 . S
H368 C374 0.949 . S
C369 H364 0.950 . S
C369 C371 1.327 . S
C369 C375 1.429 . S
C370 C362 1.574 . S
C370 H365 0.949 . S
C370 C376 1.368 . S
C371 C355 1.349 . S
C371 H363 0.950 . S
C371 C369 1.327 . S
C372 C360 1.349 . S
C372 H366 0.950 . S
C372 C373 1.327 . S
C373 H367 0.950 . S
C373 C372 1.327 . S
C373 C377 1.429 . S
C374 C357 1.574 . S
C374 H368 0.949 . S
C374 C378 1.368 . S
C375 C356 1.429 . S
C375 C369 1.429 . S
C375 C376 1.523 . S
C376 C357 1.368 . S
C376 C370 1.368 . S
C376 C375 1.523 . S
C377 C361 1.429 . S
C377 C373 1.429 . S
C377 C378 1.523 . S
C378 C362 1.368 . S
C378 C374 1.368 . S
C378 C377 1.523 . S
H379 C354 0.950 . S
H380 C356 0.950 . S
H381 C357 0.949 . S
H382 C359 0.950 . S
H383 C361 0.950 . S
C384 C385 1.349 . S
C384 C386 1.327 . S
C384 H409 0.950 . S
C385 C384 1.349 . S
C385 C401 1.349 . S
C386 C384 1.327 . S
C386 C405 1.429 . S
C386 H410 0.950 . S
C387 C404 1.574 . S
C387 C406 1.368 . S
C387 H411 0.949 . S
H388 C392 0.949 . S
C389 C390 1.349 . S
C389 C391 1.327 . S
C389 H412 0.950 . S
C390 C389 1.349 . S
C390 C402 1.349 . S
C391 C389 1.327 . S
C391 C407 1.429 . S
C391 H413 0.950 . S
C392 H388 0.949 . S
C392 C400 1.574 . S
C392 C408 1.368 . S
H393 C401 0.950 . S
H394 C399 0.950 . S
H395 C400 0.949 . S
H396 C402 0.950 . S
H397 C403 0.950 . S
H398 C404 0.949 . S
C399 H394 0.950 . S
C399 C401 1.327 . S
C399 C405 1.429 . S
C400 C392 1.574 . S
C400 H395 0.949 . S
C400 C406 1.368 . S
C401 C385 1.349 . S
C401 H393 0.950 . S
C401 C399 1.327 . S
C402 C390 1.349 . S
C402 H396 0.950 . S
C402 C403 1.327 . S
C403 H397 0.950 . S
C403 C402 1.327 . S
C403 C407 1.429 . S
C404 C387 1.574 . S
C404 H398 0.949 . S
C404 C408 1.368 . S
C405 C386 1.429 . S
C405 C399 1.429 . S
C405 C406 1.523 . S
C406 C387 1.368 . S
C406 C400 1.368 . S
C406 C405 1.523 . S
C407 C391 1.429 . S
C407 C403 1.429 . S
C407 C408 1.523 . S
C408 C392 1.368 . S
C408 C404 1.368 . S
C408 C407 1.523 . S
H409 C384 0.950 . S
H410 C386 0.950 . S
H411 C387 0.949 . S
H412 C389 0.950 . S
H413 C391 0.950 . S
C414 C415 1.349 . S
C414 C416 1.327 . S
C414 H439 0.950 . S
C415 C414 1.349 . S
C415 C431 1.349 . S
C416 C414 1.327 . S
C416 C435 1.429 . S
C416 H440 0.950 . S
C417 C434 1.574 . S
C417 C436 1.368 . S
C417 H441 0.949 . S
H418 C422 0.949 . S
C419 C420 1.349 . S
C419 C421 1.327 . S
C419 H442 0.950 . S
C420 C419 1.349 . S
C420 C432 1.349 . S
C421 C419 1.327 . S
C421 C437 1.429 . S
C421 H443 0.950 . S
C422 H418 0.949 . S
C422 C430 1.574 . S
C422 C438 1.368 . S
H423 C431 0.950 . S
H424 C429 0.950 . S
H425 C430 0.949 . S
H426 C432 0.950 . S
H427 C433 0.950 . S
H428 C434 0.949 . S
C429 H424 0.950 . S
C429 C431 1.327 . S
C429 C435 1.429 . S
C430 C422 1.574 . S
C430 H425 0.949 . S
C430 C436 1.368 . S
C431 C415 1.349 . S
C431 H423 0.950 . S
C431 C429 1.327 . S
C432 C420 1.349 . S
C432 H426 0.950 . S
C432 C433 1.327 . S
C433 H427 0.950 . S
C433 C432 1.327 . S
C433 C437 1.429 . S
C434 C417 1.574 . S
C434 H428 0.949 . S
C434 C438 1.368 . S
C435 C416 1.429 . S
C435 C429 1.429 . S
C435 C436 1.523 . S
C436 C417 1.368 . S
C436 C430 1.368 . S
C436 C435 1.523 . S
C437 C421 1.429 . S
C437 C433 1.429 . S
C437 C438 1.523 . S
C438 C422 1.368 . S
C438 C434 1.368 . S
C438 C437 1.523 . S
H439 C414 0.950 . S
H440 C416 0.950 . S
H441 C417 0.949 . S
H442 C419 0.950 . S
H443 C421 0.950 . S
C444 C445 1.349 . S
C444 C446 1.327 . S
C444 H469 0.950 . S
C445 C444 1.349 . S
C445 C461 1.349 . S
C446 C444 1.327 . S
C446 C465 1.429 . S
C446 H470 0.950 . S
C447 C464 1.574 . S
C447 C466 1.368 . S
C447 H471 0.949 . S
H448 C452 0.949 . S
C449 C450 1.349 . S
C449 C451 1.327 . S
C449 H472 0.950 . S
C450 C449 1.349 . S
C450 C462 1.349 . S
C451 C449 1.327 . S
C451 C467 1.429 . S
C451 H473 0.950 . S
C452 H448 0.949 . S
C452 C460 1.574 . S
C452 C468 1.368 . S
H453 C461 0.950 . S
H454 C459 0.950 . S
H455 C460 0.949 . S
H456 C462 0.950 . S
H457 C463 0.950 . S
H458 C464 0.949 . S
C459 H454 0.950 . S
C459 C461 1.327 . S
C459 C465 1.429 . S
C460 C452 1.574 . S
C460 H455 0.949 . S
C460 C466 1.368 . S
C461 C445 1.349 . S
C461 H453 0.950 . S
C461 C459 1.327 . S
C462 C450 1.349 . S
C462 H456 0.950 . S
C462 C463 1.327 . S
C463 H457 0.950 . S
C463 C462 1.327 . S
C463 C467 1.429 . S
C464 C447 1.574 . S
C464 H458 0.949 . S
C464 C468 1.368 . S
C465 C446 1.429 . S
C465 C459 1.429 . S
C465 C466 1.523 . S
C466 C447 1.368 . S
C466 C460 1.368 . S
C466 C465 1.523 . S
C467 C451 1.429 . S
C467 C463 1.429 . S
C467 C468 1.523 . S
C468 C452 1.368 . S
C468 C464 1.368 . S
C468 C467 1.523 . S
H469 C444 0.950 . S
H470 C446 0.950 . S
H471 C447 0.949 . S
H472 C449 0.950 . S
H473 C451 0.950 . S
C474 C475 1.349 . S
C474 C476 1.327 . S
C474 H499 0.950 . S
C475 C474 1.349 . S
C475 C491 1.349 . S
C476 C474 1.327 . S
C476 C495 1.429 . S
C476 H500 0.950 . S
C477 C494 1.574 . S
C477 C496 1.368 . S
C477 H501 0.949 . S
H478 C482 0.949 . S
C479 C480 1.349 . S
C479 C481 1.327 . S
C479 H502 0.950 1_554 S
C480 C479 1.349 . S
C480 C492 1.349 . S
C481 C479 1.327 . S
C481 C497 1.429 . S
C481 H503 0.950 . S
C482 H478 0.949 . S
C482 C490 1.574 . S
C482 C498 1.368 . S
H483 C491 0.950 . S
H484 C489 0.950 . S
H485 C490 0.949 . S
H486 C492 0.950 . S
H487 C493 0.950 . S
H488 C494 0.949 . S
C489 H484 0.950 . S
C489 C491 1.327 . S
C489 C495 1.429 . S
C490 C482 1.574 . S
C490 H485 0.949 . S
C490 C496 1.368 . S
C491 C475 1.349 . S
C491 H483 0.950 . S
C491 C489 1.327 . S
C492 C480 1.349 . S
C492 H486 0.950 . S
C492 C493 1.327 . S
C493 H487 0.950 . S
C493 C492 1.327 . S
C493 C497 1.429 . S
C494 C477 1.574 . S
C494 H488 0.949 . S
C494 C498 1.368 . S
C495 C476 1.429 . S
C495 C489 1.429 . S
C495 C496 1.523 1_655 S
C496 C477 1.368 . S
C496 C490 1.368 . S
C496 C495 1.523 1_455 S
C497 C481 1.429 . S
C497 C493 1.429 . S
C497 C498 1.523 . S
C498 C482 1.368 . S
C498 C494 1.368 . S
C498 C497 1.523 . S
H499 C474 0.950 . S
H500 C476 0.950 . S
H501 C477 0.949 . S
H502 C479 0.950 1_556 S
H503 C481 0.950 . S
C504 C505 1.349 . S
C504 C506 1.327 . S
C504 H529 0.950 . S
C505 C504 1.349 . S
C505 C521 1.349 . S
C506 C504 1.327 . S
C506 C525 1.429 . S
C506 H530 0.950 . S
C507 C524 1.574 . S
C507 C526 1.368 . S
C507 H531 0.949 . S
H508 C512 0.949 . S
C509 C510 1.349 . S
C509 C511 1.327 . S
C509 H532 0.950 . S
C510 C509 1.349 . S
C510 C522 1.349 . S
C511 C509 1.327 . S
C511 C527 1.429 . S
C511 H533 0.985 . S
C512 H508 0.949 . S
C512 C520 1.574 . S
C512 C528 1.368 . S
H513 C521 0.950 . S
H514 C519 0.950 . S
H515 C520 0.949 . S
H516 C522 0.950 . S
H517 C523 0.950 . S
H518 C524 0.949 . S
C519 H514 0.950 . S
C519 C521 1.327 . S
C519 C525 1.429 . S
C520 C512 1.574 . S
C520 H515 0.949 . S
C520 C526 1.368 . S
C521 C505 1.349 . S
C521 H513 0.950 . S
C521 C519 1.327 . S
C522 C510 1.349 . S
C522 H516 0.950 . S
C522 C523 1.327 . S
C523 H517 0.950 . S
C523 C522 1.327 . S
C523 C527 1.429 . S
C524 C507 1.574 . S
C524 H518 0.949 . S
C524 C528 1.368 . S
C525 C506 1.429 . S
C525 C519 1.429 . S
C525 C526 1.523 . S
C526 C507 1.368 . S
C526 C520 1.368 . S
C526 C525 1.523 . S
C527 C511 1.429 . S
C527 C523 1.429 . S
C527 C528 1.523 1_565 S
C528 C512 1.368 . S
C528 C524 1.368 . S
C528 C527 1.523 1_545 S
H529 C504 0.950 . S
H530 C506 0.950 . S
H531 C507 0.949 . S
H532 C509 0.950 . S
H533 C511 0.985 . S
C534 C535 1.349 . S
C534 C536 1.327 . S
C534 H559 0.950 . S
C535 C534 1.349 . S
C535 C551 1.349 . S
C536 C534 1.327 . S
C536 C555 1.429 . S
C536 H560 0.950 . S
C537 C554 1.574 . S
C537 C556 1.368 . S
C537 H561 0.949 . S
H538 C542 0.949 . S
C539 C540 1.349 . S
C539 C541 1.327 . S
C539 H562 0.950 . S
C540 C539 1.349 . S
C540 C552 1.349 . S
C541 C539 1.327 . S
C541 C557 1.429 . S
C541 H563 0.950 . S
C542 H538 0.949 . S
C542 C550 1.574 . S
C542 C558 1.368 . S
H543 C551 0.950 . S
H544 C549 0.950 . S
H545 C550 0.949 . S
H546 C552 0.950 . S
H547 C553 0.950 . S
H548 C554 0.949 . S
C549 H544 0.950 . S
C549 C551 1.327 . S
C549 C555 1.429 . S
C550 C542 1.574 . S
C550 H545 0.949 . S
C550 C556 1.368 . S
C551 C535 1.349 . S
C551 H543 0.950 . S
C551 C549 1.327 . S
C552 C540 1.349 . S
C552 H546 0.950 . S
C552 C553 1.327 . S
C553 H547 0.950 . S
C553 C552 1.327 . S
C553 C557 1.429 . S
C554 C537 1.574 . S
C554 H548 0.949 . S
C554 C558 1.368 . S
C555 C536 1.429 . S
C555 C549 1.429 . S
C555 C556 1.523 . S
C556 C537 1.368 . S
C556 C550 1.368 . S
C556 C555 1.523 . S
C557 C541 1.429 . S
C557 C553 1.429 . S
C557 C558 1.523 . S
C558 C542 1.368 . S
C558 C554 1.368 . S
C558 C557 1.523 . S
H559 C534 0.950 . S
H560 C536 0.950 . S
H561 C537 0.949 . S
H562 C539 0.950 . S
H563 C541 0.950 . S
C564 C565 1.349 . S
C564 C566 1.327 . S
C564 H589 0.950 . S
C565 C564 1.349 . S
C565 C581 1.349 . S
C566 C564 1.327 . S
C566 C585 1.429 . S
C566 H590 0.950 . S
C567 C584 1.574 . S
C567 C586 1.368 . S
C567 H591 0.949 . S
H568 C572 0.949 . S
C569 C570 1.349 . S
C569 C571 1.327 . S
C569 H592 0.950 . S
C570 C569 1.349 . S
C570 C582 1.349 . S
C571 C569 1.327 . S
C571 C587 1.429 . S
C571 H593 0.950 . S
C572 H568 0.949 . S
C572 C580 1.574 . S
C572 C588 1.368 . S
H573 C581 0.950 . S
H574 C579 0.950 . S
H575 C580 0.949 . S
H576 C582 0.950 . S
H577 C583 0.950 . S
H578 C584 0.949 . S
C579 H574 0.950 . S
C579 C581 1.327 . S
C579 C585 1.429 . S
C580 C572 1.574 . S
C580 H575 0.949 . S
C580 C586 1.368 . S
C581 C565 1.349 . S
C581 H573 0.950 . S
C581 C579 1.327 . S
C582 C570 1.349 . S
C582 H576 0.950 . S
C582 C583 1.327 . S
C583 H577 0.950 . S
C583 C582 1.327 . S
C583 C587 1.429 . S
C584 C567 1.574 . S
C584 H578 0.949 . S
C584 C588 1.368 . S
C585 C566 1.429 . S
C585 C579 1.429 . S
C585 C586 1.523 1_455 S
C586 C567 1.368 . S
C586 C580 1.368 . S
C586 C585 1.523 1_655 S
C587 C571 1.429 . S
C587 C583 1.429 . S
C587 C588 1.523 . S
C588 C572 1.368 . S
C588 C584 1.368 . S
C588 C587 1.523 . S
H589 C564 0.950 . S
H590 C566 0.950 . S
H591 C567 0.949 . S
H592 C569 0.950 . S
H593 C571 0.950 . S
C594 C595 1.349 . S
C594 C596 1.327 . S
C594 H619 0.950 . S
C595 C594 1.349 . S
C595 C611 1.349 . S
C596 C594 1.327 . S
C596 C615 1.429 . S
C596 H620 0.950 . S
C597 C614 1.574 . S
C597 C616 1.368 . S
C597 H621 0.949 . S
H598 C602 0.949 . S
C599 C600 1.349 . S
C599 C601 1.327 . S
C599 H622 0.950 . S
C600 C599 1.349 . S
C600 C612 1.349 . S
C601 C599 1.327 . S
C601 C617 1.429 . S
C601 H623 0.950 . S
C602 H598 0.949 . S
C602 C610 1.574 . S
C602 C618 1.368 . S
H603 C611 0.950 . S
H604 C609 0.950 . S
H605 C610 0.949 . S
H606 C612 0.950 . S
H607 C613 0.950 . S
H608 C614 0.949 . S
C609 H604 0.950 . S
C609 C611 1.327 . S
C609 C615 1.429 . S
C610 C602 1.574 . S
C610 H605 0.949 . S
C610 C616 1.368 . S
C611 C595 1.349 . S
C611 H603 0.950 . S
C611 C609 1.327 . S
C612 C600 1.349 . S
C612 H606 0.950 . S
C612 C613 1.327 . S
C613 H607 0.950 . S
C613 C612 1.327 . S
C613 C617 1.429 . S
C614 C597 1.574 . S
C614 H608 0.949 . S
C614 C618 1.368 . S
C615 C596 1.429 . S
C615 C609 1.429 . S
C615 C616 1.523 1_545 S
C616 C597 1.368 . S
C616 C610 1.368 . S
C616 C615 1.523 1_565 S
C617 C601 1.429 . S
C617 C613 1.429 . S
C617 C618 1.523 . S
C618 C602 1.368 . S
C618 C614 1.368 . S
C618 C617 1.523 . S
H619 C594 0.950 . S
H620 C596 0.950 . S
H621 C597 0.949 . S
H622 C599 0.950 . S
H623 C601 0.950 . S
C624 C625 1.349 . S
C624 C626 1.327 . S
C624 H649 0.950 . S
C625 C624 1.349 . S
C625 C641 1.349 . S
C626 C624 1.327 . S
C626 C645 1.429 . S
C626 H650 0.950 . S
C627 C644 1.574 . S
C627 C646 1.368 . S
C627 H651 0.949 . S
H628 C632 0.949 . S
C629 C630 1.349 1_554 S
C629 C631 1.327 . S
C629 H652 0.950 . S
C630 C629 1.349 1_556 S
C630 C642 1.349 . S
C631 C629 1.327 . S
C631 C647 1.429 1_554 S
C631 H653 0.950 . S
C632 H628 0.949 . S
C632 C640 1.574 . S
C632 C648 1.368 . S
H633 C641 0.950 . S
H634 C639 0.950 . S
H635 C640 0.949 . S
H636 C642 0.950 . S
H637 C643 0.950 . S
H638 C644 0.949 1_554 S
C639 H634 0.950 . S
C639 C641 1.327 . S
C639 C645 1.429 . S
C640 C632 1.574 . S
C640 H635 0.949 . S
C640 C646 1.368 . S
C641 C625 1.349 . S
C641 H633 0.950 . S
C641 C639 1.327 . S
C642 C630 1.349 . S
C642 H636 0.950 . S
C642 C643 1.327 . S
C643 H637 0.950 . S
C643 C642 1.327 . S
C643 C647 1.429 . S
C644 C627 1.574 . S
C644 H638 0.949 1_556 S
C644 C648 1.368 . S
C645 C626 1.429 . S
C645 C639 1.429 . S
C645 C646 1.523 . S
C646 C627 1.368 . S
C646 C640 1.368 . S
C646 C645 1.523 . S
C647 C631 1.429 1_556 S
C647 C643 1.429 . S
C647 C648 1.523 . S
C648 C632 1.368 . S
C648 C644 1.368 . S
C648 C647 1.523 . S
H649 C624 0.950 . S
H650 C626 0.950 . S
H651 C627 0.949 . S
H652 C629 0.950 . S
H653 C631 0.950 . S
C654 C655 1.349 . S
C654 C656 1.327 . S
C654 H679 0.950 . S
C655 C654 1.349 . S
C655 C671 1.349 . S
C656 C654 1.327 . S
C656 C675 1.429 . S
C656 H680 0.950 . S
C657 C674 1.574 . S
C657 C676 1.368 . S
C657 H681 0.949 . S
H658 C662 0.949 . S
C659 C660 1.349 . S
C659 C661 1.327 . S
C659 H682 0.950 . S
C660 C659 1.349 . S
C660 C672 1.349 . S
C661 C659 1.327 . S
C661 C677 1.429 . S
C661 H683 0.950 . S
C662 H658 0.949 . S
C662 C670 1.574 . S
C662 C678 1.368 . S
H663 C671 0.950 . S
H664 C669 0.950 . S
H665 C670 0.949 . S
H666 C672 0.950 . S
H667 C673 0.950 . S
H668 C674 0.949 . S
C669 H664 0.950 . S
C669 C671 1.327 . S
C669 C675 1.429 . S
C670 C662 1.574 . S
C670 H665 0.949 . S
C670 C676 1.368 . S
C671 C655 1.349 . S
C671 H663 0.950 . S
C671 C669 1.327 . S
C672 C660 1.349 . S
C672 H666 0.950 . S
C672 C673 1.327 . S
C673 H667 0.950 . S
C673 C672 1.327 . S
C673 C677 1.429 . S
C674 C657 1.574 . S
C674 H668 0.949 . S
C674 C678 1.368 . S
C675 C656 1.429 . S
C675 C669 1.429 . S
C675 C676 1.523 1_655 S
C676 C657 1.368 . S
C676 C670 1.368 . S
C676 C675 1.523 1_455 S
C677 C661 1.429 . S
C677 C673 1.429 . S
C677 C678 1.523 . S
C678 C662 1.368 . S
C678 C674 1.368 . S
C678 C677 1.523 . S
H679 C654 0.950 . S
H680 C656 0.950 . S
H681 C657 0.949 . S
H682 C659 0.950 . S
H683 C661 0.950 . S
C684 C685 1.349 . S
C684 C686 1.327 . S
C684 H709 0.950 . S
C685 C684 1.349 . S
C685 C701 1.349 . S
C686 C684 1.327 . S
C686 C705 1.429 . S
C686 H710 0.950 . S
C687 C704 1.574 . S
C687 C706 1.368 . S
C687 H711 0.949 . S
H688 C692 0.949 . S
C689 C690 1.349 . S
C689 C691 1.327 . S
C689 H712 0.950 . S
C690 C689 1.349 . S
C690 C702 1.349 . S
C691 C689 1.327 . S
C691 C707 1.429 . S
C691 H713 0.950 . S
C692 H688 0.949 . S
C692 C700 1.574 . S
C692 C708 1.368 . S
H693 C701 0.950 . S
H694 C699 0.950 . S
H695 C700 0.949 . S
H696 C702 0.950 . S
H697 C703 0.950 . S
H698 C704 0.949 . S
C699 H694 0.950 . S
C699 C701 1.327 . S
C699 C705 1.429 . S
C700 C692 1.574 . S
C700 H695 0.949 . S
C700 C706 1.368 . S
C701 C685 1.349 . S
C701 H693 0.950 . S
C701 C699 1.327 . S
C702 C690 1.349 . S
C702 H696 0.950 . S
C702 C703 1.327 . S
C703 H697 0.950 . S
C703 C702 1.327 . S
C703 C707 1.429 . S
C704 C687 1.574 . S
C704 H698 0.949 . S
C704 C708 1.368 . S
C705 C686 1.429 . S
C705 C699 1.429 . S
C705 C706 1.523 1_565 S
C706 C687 1.368 . S
C706 C700 1.368 . S
C706 C705 1.523 1_545 S
C707 C691 1.429 . S
C707 C703 1.429 . S
C707 C708 1.523 . S
C708 C692 1.368 . S
C708 C704 1.368 . S
C708 C707 1.523 . S
H709 C684 0.950 . S
H710 C686 0.950 . S
H711 C687 0.949 . S
H712 C689 0.950 . S
H713 C691 0.950 . S
C714 C715 1.349 . S
C714 C716 1.327 . S
C714 H739 0.950 . S
C715 C714 1.349 . S
C715 C731 1.349 . S
C716 C714 1.327 . S
C716 C735 1.429 . S
C716 H740 0.950 . S
C717 C734 1.574 . S
C717 C736 1.368 . S
C717 H741 0.949 . S
H718 C722 0.949 . S
C719 C720 1.349 . S
C719 C721 1.327 . S
C719 H742 0.950 . S
C720 C719 1.349 . S
C720 C732 1.349 . S
C721 C719 1.327 . S
C721 C737 1.429 . S
C721 H743 0.950 . S
C722 H718 0.949 . S
C722 C730 1.574 . S
C722 C738 1.368 . S
H723 C731 0.950 . S
H724 C729 0.950 . S
H725 C730 0.949 . S
H726 C732 0.950 . S
H727 C733 0.950 . S
H728 C734 0.949 . S
C729 H724 0.950 . S
C729 C731 1.327 . S
C729 C735 1.429 . S
C730 C722 1.574 . S
C730 H725 0.949 . S
C730 C736 1.368 . S
C731 C715 1.349 . S
C731 H723 0.950 . S
C731 C729 1.327 . S
C732 C720 1.349 . S
C732 H726 0.950 . S
C732 C733 1.327 . S
C733 H727 0.950 . S
C733 C732 1.327 . S
C733 C737 1.429 . S
C734 C717 1.574 . S
C734 H728 0.949 . S
C734 C738 1.368 . S
C735 C716 1.429 . S
C735 C729 1.429 . S
C735 C736 1.523 . S
C736 C717 1.368 . S
C736 C730 1.368 . S
C736 C735 1.523 . S
C737 C721 1.429 . S
C737 C733 1.429 . S
C737 C738 1.523 . S
C738 C722 1.368 . S
C738 C734 1.368 . S
C738 C737 1.523 . S
H739 C714 0.950 . S
H740 C716 0.950 . S
H741 C717 0.949 . S
H742 C719 0.950 . S
H743 C721 0.950 . S
C744 C745 1.349 . S
C744 C746 1.327 . S
C744 H769 0.950 . S
C745 C744 1.349 . S
C745 C761 1.349 . S
C746 C744 1.327 . S
C746 C765 1.429 . S
C746 H770 0.950 . S
C747 C764 1.574 . S
C747 C766 1.368 . S
C747 H771 0.949 . S
H748 C752 0.949 . S
C749 C750 1.349 . S
C749 C751 1.327 . S
C749 H772 0.950 . S
C750 C749 1.349 . S
C750 C762 1.349 . S
C751 C749 1.327 . S
C751 C767 1.429 . S
C751 H773 0.950 . S
C752 H748 0.949 . S
C752 C760 1.574 . S
C752 C768 1.368 . S
H753 C761 0.950 . S
H754 C759 0.950 . S
H755 C760 0.949 . S
H756 C762 0.950 . S
H757 C763 0.984 . S
H758 C764 0.949 . S
C759 H754 0.950 . S
C759 C761 1.327 . S
C759 C765 1.429 . S
C760 C752 1.574 . S
C760 H755 0.949 . S
C760 C766 1.368 . S
C761 C745 1.349 . S
C761 H753 0.950 . S
C761 C759 1.327 . S
C762 C750 1.349 . S
C762 H756 0.950 . S
C762 C763 1.327 . S
C763 H757 0.984 . S
C763 C762 1.327 . S
C763 C767 1.429 . S
C764 C747 1.574 . S
C764 H758 0.949 . S
C764 C768 1.368 . S
C765 C746 1.429 . S
C765 C759 1.429 . S
C765 C766 1.523 . S
C766 C747 1.368 . S
C766 C760 1.368 . S
C766 C765 1.523 . S
C767 C751 1.429 . S
C767 C763 1.429 . S
C767 C768 1.523 1_455 S
C768 C752 1.368 . S
C768 C764 1.368 . S
C768 C767 1.523 1_655 S
H769 C744 0.950 . S
H770 C746 0.950 . S
H771 C747 0.949 . S
H772 C749 0.950 . S
H773 C751 0.950 . S
C774 C775 1.349 . S
C774 C776 1.327 . S
C774 H799 0.950 . S
C775 C774 1.349 . S
C775 C791 1.349 . S
C776 C774 1.327 . S
C776 C795 1.429 . S
C776 H800 0.950 . S
C777 C794 1.574 . S
C777 C796 1.368 . S
C777 H801 0.949 . S
H778 C782 0.949 . S
C779 C780 1.349 . S
C779 C781 1.327 . S
C779 H802 0.950 . S
C780 C779 1.349 . S
C780 C792 1.349 . S
C781 C779 1.327 . S
C781 C797 1.429 . S
C781 H803 0.950 . S
C782 H778 0.949 . S
C782 C790 1.574 . S
C782 C798 1.368 . S
H783 C791 0.950 . S
H784 C789 0.950 . S
H785 C790 0.949 . S
H786 C792 0.950 . S
H787 C793 0.950 . S
H788 C794 0.949 . S
C789 H784 0.950 . S
C789 C791 1.327 . S
C789 C795 1.429 . S
C790 C782 1.574 . S
C790 H785 0.949 . S
C790 C796 1.368 . S
C791 C775 1.349 . S
C791 H783 0.950 . S
C791 C789 1.327 . S
C792 C780 1.349 . S
C792 H786 0.950 . S
C792 C793 1.327 . S
C793 H787 0.950 . S
C793 C792 1.327 . S
C793 C797 1.429 . S
C794 C777 1.574 . S
C794 H788 0.949 . S
C794 C798 1.368 . S
C795 C776 1.429 . S
C795 C789 1.429 . S
C795 C796 1.523 . S
C796 C777 1.368 . S
C796 C790 1.368 . S
C796 C795 1.523 . S
C797 C781 1.429 . S
C797 C793 1.429 . S
C797 C798 1.523 1_545 S
C798 C782 1.368 . S
C798 C794 1.368 . S
C798 C797 1.523 1_565 S
H799 C774 0.950 . S
H800 C776 0.950 . S
H801 C777 0.949 . S
H802 C779 0.950 . S
H803 C781 0.950 . S
C804 C805 1.349 . S
C804 C806 1.327 . S
C804 H829 0.950 1_556 S
C805 C804 1.349 . S
C805 C821 1.349 . S
C806 C804 1.327 . S
C806 C825 1.429 . S
C806 H830 0.950 . S
C807 C824 1.574 . S
C807 C826 1.368 . S
C807 H831 0.949 . S
H808 C812 0.949 . S
C809 C810 1.349 . S
C809 C811 1.327 . S
C809 H832 0.950 . S
C810 C809 1.349 . S
C810 C822 1.349 . S
C811 C809 1.327 . S
C811 C827 1.429 . S
C811 H833 0.950 . S
C812 H808 0.949 . S
C812 C820 1.574 . S
C812 C828 1.368 . S
H813 C821 0.950 . S
H814 C819 0.950 . S
H815 C820 0.949 . S
H816 C822 0.950 . S
H817 C823 0.950 . S
H818 C824 0.949 . S
C819 H814 0.950 . S
C819 C821 1.327 . S
C819 C825 1.429 . S
C820 C812 1.574 . S
C820 H815 0.949 . S
C820 C826 1.368 . S
C821 C805 1.349 . S
C821 H813 0.950 . S
C821 C819 1.327 . S
C822 C810 1.349 . S
C822 H816 0.950 . S
C822 C823 1.327 . S
C823 H817 0.950 . S
C823 C822 1.327 . S
C823 C827 1.429 . S
C824 C807 1.574 . S
C824 H818 0.949 . S
C824 C828 1.368 . S
C825 C806 1.429 . S
C825 C819 1.429 . S
C825 C826 1.523 . S
C826 C807 1.368 . S
C826 C820 1.368 . S
C826 C825 1.523 . S
C827 C811 1.429 . S
C827 C823 1.429 . S
C827 C828 1.523 . S
C828 C812 1.368 . S
C828 C824 1.368 . S
C828 C827 1.523 . S
H829 C804 0.950 1_554 S
H830 C806 0.950 . S
H831 C807 0.949 . S
H832 C809 0.950 . S
H833 C811 0.950 . S
C834 C835 1.349 . S
C834 C836 1.327 . S
C834 H859 0.950 . S
C835 C834 1.349 . S
C835 C851 1.349 . S
C836 C834 1.327 . S
C836 C855 1.429 . S
C836 H860 0.950 . S
C837 C854 1.574 . S
C837 C856 1.368 . S
C837 H861 0.949 . S
H838 C842 0.949 . S
C839 C840 1.349 . S
C839 C841 1.327 . S
C839 H862 0.950 . S
C840 C839 1.349 . S
C840 C852 1.349 . S
C841 C839 1.327 . S
C841 C857 1.429 . S
C841 H863 0.950 . S
C842 H838 0.949 . S
C842 C850 1.574 . S
C842 C858 1.368 . S
H843 C851 0.950 . S
H844 C849 0.950 . S
H845 C850 0.949 . S
H846 C852 0.950 . S
H847 C853 0.950 . S
H848 C854 0.949 . S
C849 H844 0.950 . S
C849 C851 1.327 . S
C849 C855 1.429 . S
C850 C842 1.574 . S
C850 H845 0.949 . S
C850 C856 1.368 . S
C851 C835 1.349 . S
C851 H843 0.950 . S
C851 C849 1.327 . S
C852 C840 1.349 . S
C852 H846 0.950 . S
C852 C853 1.327 . S
C853 H847 0.950 . S
C853 C852 1.327 . S
C853 C857 1.429 . S
C854 C837 1.574 . S
C854 H848 0.949 . S
C854 C858 1.368 . S
C855 C836 1.429 . S
C855 C849 1.429 . S
C855 C856 1.523 . S
C856 C837 1.368 . S
C856 C850 1.368 . S
C856 C855 1.523 . S
C857 C841 1.429 . S
C857 C853 1.429 . S
C857 C858 1.523 . S
C858 C842 1.368 . S
C858 C854 1.368 . S
C858 C857 1.523 . S
H859 C834 0.950 . S
H860 C836 0.950 . S
H861 C837 0.949 . S
H862 C839 0.950 . S
H863 C841 0.950 . S
C864 C865 1.349 . S
C864 C866 1.327 . S
C864 H889 0.950 . S
C865 C864 1.349 . S
C865 C881 1.349 . S
C866 C864 1.327 . S
C866 C885 1.429 . S
C866 H890 0.950 . S
C867 C884 1.574 . S
C867 C886 1.368 . S
C867 H891 0.949 . S
H868 C872 0.949 . S
C869 C870 1.349 . S
C869 C871 1.327 . S
C869 H892 0.950 . S
C870 C869 1.349 . S
C870 C882 1.349 . S
C871 C869 1.327 . S
C871 C887 1.429 . S
C871 H893 0.950 . S
C872 H868 0.949 . S
C872 C880 1.574 . S
C872 C888 1.368 . S
H873 C881 0.950 . S
H874 C879 0.950 . S
H875 C880 0.949 . S
H876 C882 0.950 . S
H877 C883 0.950 . S
H878 C884 0.949 . S
C879 H874 0.950 . S
C879 C881 1.327 . S
C879 C885 1.429 . S
C880 C872 1.574 . S
C880 H875 0.949 . S
C880 C886 1.368 . S
C881 C865 1.349 . S
C881 H873 0.950 . S
C881 C879 1.327 . S
C882 C870 1.349 . S
C882 H876 0.950 . S
C882 C883 1.327 . S
C883 H877 0.950 . S
C883 C882 1.327 . S
C883 C887 1.429 . S
C884 C867 1.574 . S
C884 H878 0.949 . S
C884 C888 1.368 . S
C885 C866 1.429 . S
C885 C879 1.429 . S
C885 C886 1.523 . S
C886 C867 1.368 . S
C886 C880 1.368 . S
C886 C885 1.523 . S
C887 C871 1.429 . S
C887 C883 1.429 . S
C887 C888 1.523 . S
C888 C872 1.368 . S
C888 C884 1.368 . S
C888 C887 1.523 . S
H889 C864 0.950 . S
H890 C866 0.950 . S
H891 C867 0.949 . S
H892 C869 0.950 . S
H893 C871 0.950 . S
C894 C895 1.349 . S
C894 C896 1.327 . S
C894 H919 0.950 . S
C895 C894 1.349 . S
C895 C911 1.349 . S
C896 C894 1.327 . S
C896 C915 1.429 . S
C896 H920 0.950 . S
C897 C914 1.574 . S
C897 C916 1.368 . S
C897 H921 0.949 . S
H898 C902 0.949 . S
C899 C900 1.349 . S
C899 C901 1.327 . S
C899 H922 0.950 . S
C900 C899 1.349 . S
C900 C912 1.349 . S
C901 C899 1.327 . S
C901 C917 1.429 . S
C901 H923 0.950 . S
C902 H898 0.949 . S
C902 C910 1.574 . S
C902 C918 1.368 . S
H903 C911 0.950 . S
H904 C909 0.950 . S
H905 C910 0.949 . S
H906 C912 0.950 . S
H907 C913 0.950 . S
H908 C914 0.949 . S
C909 H904 0.950 . S
C909 C911 1.327 . S
C909 C915 1.429 . S
C910 C902 1.574 . S
C910 H905 0.949 . S
C910 C916 1.368 . S
C911 C895 1.349 . S
C911 H903 0.950 . S
C911 C909 1.327 . S
C912 C900 1.349 . S
C912 H906 0.950 . S
C912 C913 1.327 . S
C913 H907 0.950 . S
C913 C912 1.327 . S
C913 C917 1.429 . S
C914 C897 1.574 . S
C914 H908 0.949 . S
C914 C918 1.368 . S
C915 C896 1.429 . S
C915 C909 1.429 . S
C915 C916 1.523 . S
C916 C897 1.368 . S
C916 C910 1.368 . S
C916 C915 1.523 . S
C917 C901 1.429 . S
C917 C913 1.429 . S
C917 C918 1.523 . S
C918 C902 1.368 . S
C918 C914 1.368 . S
C918 C917 1.523 . S
H919 C894 0.950 . S
H920 C896 0.950 . S
H921 C897 0.949 . S
H922 C899 0.950 . S
H923 C901 0.950 . S
C924 C925 1.349 . S
C924 C926 1.327 . S
C924 H949 0.950 . S
C925 C924 1.349 . S
C925 C941 1.349 . S
C926 C924 1.327 . S
C926 C945 1.429 . S
C926 H950 0.950 . S
C927 C944 1.574 . S
C927 C946 1.368 . S
C927 H951 0.949 . S
H928 C932 0.949 . S
C929 C930 1.349 . S
C929 C931 1.327 . S
C929 H952 0.950 . S
C930 C929 1.349 . S
C930 C942 1.349 . S
C931 C929 1.327 . S
C931 C947 1.429 . S
C931 H953 0.950 . S
C932 H928 0.949 . S
C932 C940 1.574 . S
C932 C948 1.368 . S
H933 C941 0.950 . S
H934 C939 0.950 . S
H935 C940 0.949 . S
H936 C942 0.950 . S
H937 C943 0.950 . S
H938 C944 0.949 . S
C939 H934 0.950 . S
C939 C941 1.327 . S
C939 C945 1.429 . S
C940 C932 1.574 . S
C940 H935 0.949 . S
C940 C946 1.368 . S
C941 C925 1.349 . S
C941 H933 0.950 . S
C941 C939 1.327 . S
C942 C930 1.349 . S
C942 H936 0.950 . S
C942 C943 1.327 . S
C943 H937 0.950 . S
C943 C942 1.327 . S
C943 C947 1.429 . S
C944 C927 1.574 . S
C944 H938 0.949 . S
C944 C948 1.368 . S
C945 C926 1.429 . S
C945 C939 1.429 . S
C945 C946 1.523 . S
C946 C927 1.368 . S
C946 C940 1.368 . S
C946 C945 1.523 . S
C947 C931 1.429 . S
C947 C943 1.429 . S
C947 C948 1.523 . S
C948 C932 1.368 . S
C948 C944 1.368 . S
C948 C947 1.523 . S
H949 C924 0.950 . S
H950 C926 0.950 . S
H951 C927 0.949 . S
H952 C929 0.950 . S
H953 C931 0.950 . S
C954 C955 1.349 . S
C954 C956 1.327 . S
C954 H979 0.950 . S
C955 C954 1.349 . S
C955 C971 1.349 . S
C956 C954 1.327 . S
C956 C975 1.429 . S
C956 H980 0.950 . S
C957 C974 1.574 . S
C957 C976 1.368 . S
C957 H981 0.949 . S
H958 C962 0.949 . S
C959 C960 1.349 . S
C959 C961 1.327 . S
C959 H982 0.950 . S
C960 C959 1.349 . S
C960 C972 1.349 . S
C961 C959 1.327 . S
C961 C977 1.429 . S
C961 H983 0.950 . S
C962 H958 0.949 . S
C962 C970 1.574 . S
C962 C978 1.368 . S
H963 C971 0.950 . S
H964 C969 0.950 . S
H965 C970 0.949 . S
H966 C972 0.950 . S
H967 C973 0.950 . S
H968 C974 0.949 . S
C969 H964 0.950 . S
C969 C971 1.327 . S
C969 C975 1.429 . S
C970 C962 1.574 . S
C970 H965 0.949 . S
C970 C976 1.368 . S
C971 C955 1.349 . S
C971 H963 0.950 . S
C971 C969 1.327 . S
C972 C960 1.349 . S
C972 H966 0.950 . S
C972 C973 1.327 . S
C973 H967 0.950 . S
C973 C972 1.327 . S
C973 C977 1.429 . S
C974 C957 1.574 . S
C974 H968 0.949 . S
C974 C978 1.368 . S
C975 C956 1.429 . S
C975 C969 1.429 . S
C975 C976 1.523 . S
C976 C957 1.368 . S
C976 C970 1.368 . S
C976 C975 1.523 . S
C977 C961 1.429 . S
C977 C973 1.429 . S
C977 C978 1.523 . S
C978 C962 1.368 . S
C978 C974 1.368 . S
C978 C977 1.523 . S
H979 C954 0.950 . S
H980 C956 0.950 . S
H981 C957 0.949 . S
H982 C959 0.950 . S
H983 C961 0.950 . S
C984 C985 1.349 . S
C984 C986 1.327 . S
C984 H1009 0.950 . S
C985 C984 1.349 . S
C985 C1001 1.349 . S
C986 C984 1.327 . S
C986 C1005 1.429 . S
C986 H1010 0.950 . S
C987 C1004 1.574 . S
C987 C1006 1.368 . S
C987 H1011 0.949 . S
H988 C992 0.949 . S
C989 C990 1.349 . S
C989 C991 1.327 . S
C989 H1012 0.950 . S
C990 C989 1.349 . S
C990 C1002 1.349 . S
C991 C989 1.327 . S
C991 C1007 1.429 . S
C991 H1013 0.950 . S
C992 H988 0.949 . S
C992 C1000 1.574 . S
C992 C1008 1.368 . S
H993 C1001 0.950 . S
H994 C999 0.950 . S
H995 C1000 0.949 . S
H996 C1002 0.950 . S
H997 C1003 0.950 . S
H998 C1004 0.949 . S
C999 H994 0.950 . S
C999 C1001 1.327 . S
C999 C1005 1.429 . S
C1000 C992 1.574 . S
C1000 H995 0.949 . S
C1000 C1006 1.368 . S
C1001 C985 1.349 . S
C1001 H993 0.950 . S
C1001 C999 1.327 . S
C1002 C990 1.349 . S
C1002 H996 0.950 . S
C1002 C1003 1.327 . S
C1003 H997 0.950 . S
C1003 C1002 1.327 . S
C1003 C1007 1.429 . S
C1004 C987 1.574 . S
C1004 H998 0.949 . S
C1004 C1008 1.368 . S
C1005 C986 1.429 . S
C1005 C999 1.429 . S
C1005 C1006 1.523 . S
C1006 C987 1.368 . S
C1006 C1000 1.368 . S
C1006 C1005 1.523 . S
C1007 C991 1.429 . S
C1007 C1003 1.429 . S
C1007 C1008 1.523 . S
C1008 C992 1.368 . S
C1008 C1004 1.368 . S
C1008 C1007 1.523 . S
H1009 C984 0.950 . S
H1010 C986 0.950 . S
H1011 C987 0.949 . S
H1012 C989 0.950 . S
H1013 C991 0.950 . S
C1014 C1015 1.349 . S
C1014 C1016 1.327 . S
C1014 H1039 0.950 . S
C1015 C1014 1.349 . S
C1015 C1031 1.349 . S
C1016 C1014 1.327 . S
C1016 C1035 1.429 . S
C1016 H1040 0.950 . S
C1017 C1034 1.574 1_455 S
C1017 C1036 1.368 . S
C1017 H1041 0.949 . S
H1018 C1022 0.949 . S
C1019 C1020 1.349 . S
C1019 C1021 1.327 . S
C1019 H1042 0.950 . S
C1020 C1019 1.349 . S
C1020 C1032 1.349 . S
C1021 C1019 1.327 . S
C1021 C1037 1.429 . S
C1021 H1043 0.950 . S
C1022 H1018 0.949 . S
C1022 C1030 1.574 1_655 S
C1022 C1038 1.368 . S
H1023 C1031 0.950 . S
H1024 C1029 0.950 . S
H1025 C1030 0.949 . S
H1026 C1032 0.950 . S
H1027 C1033 0.950 . S
H1028 C1034 0.949 . S
C1029 H1024 0.950 . S
C1029 C1031 1.327 . S
C1029 C1035 1.429 . S
C1030 C1022 1.574 1_455 S
C1030 H1025 0.949 . S
C1030 C1036 1.368 . S
C1031 C1015 1.349 . S
C1031 H1023 0.950 . S
C1031 C1029 1.327 . S
C1032 C1020 1.349 . S
C1032 H1026 0.950 . S
C1032 C1033 1.327 . S
C1033 H1027 0.950 . S
C1033 C1032 1.327 . S
C1033 C1037 1.429 . S
C1034 C1017 1.574 1_655 S
C1034 H1028 0.949 . S
C1034 C1038 1.368 . S
C1035 C1016 1.429 . S
C1035 C1029 1.429 . S
C1035 C1036 1.523 . S
C1036 C1017 1.368 . S
C1036 C1030 1.368 . S
C1036 C1035 1.523 . S
C1037 C1021 1.429 . S
C1037 C1033 1.429 . S
C1037 C1038 1.523 . S
C1038 C1022 1.368 . S
C1038 C1034 1.368 . S
C1038 C1037 1.523 . S
H1039 C1014 0.950 . S
H1040 C1016 0.950 . S
H1041 C1017 0.949 . S
H1042 C1019 0.950 . S
H1043 C1021 0.950 . S
C1044 C1045 1.349 . S
C1044 C1046 1.327 . S
C1044 H1069 0.950 . S
C1045 C1044 1.349 . S
C1045 C1061 1.349 . S
C1046 C1044 1.327 . S
C1046 C1065 1.429 . S
C1046 H1070 0.950 . S
C1047 C1064 1.603 . S
C1047 C1066 1.353 1_565 S
C1047 H1071 0.950 . S
H1048 C1052 0.950 . S
C1049 C1050 1.349 . S
C1049 C1051 1.327 . S
C1049 H1072 0.950 . S
C1050 C1049 1.349 . S
C1050 C1062 1.349 . S
C1051 C1049 1.327 . S
C1051 C1067 1.429 . S
C1051 H1073 0.950 . S
C1052 H1048 0.950 . S
C1052 C1060 1.603 . S
C1052 C1068 1.353 1_545 S
H1053 C1061 0.950 . S
H1054 C1059 0.950 . S
H1055 C1060 0.949 . S
H1056 C1062 0.950 . S
H1057 C1063 0.950 . S
H1058 C1064 0.949 . S
C1059 H1054 0.950 . S
C1059 C1061 1.327 . S
C1059 C1065 1.429 . S
C1060 C1052 1.603 . S
C1060 H1055 0.949 . S
C1060 C1066 1.368 . S
C1061 C1045 1.349 . S
C1061 H1053 0.950 . S
C1061 C1059 1.327 . S
C1062 C1050 1.349 . S
C1062 H1056 0.950 . S
C1062 C1063 1.327 . S
C1063 H1057 0.950 . S
C1063 C1062 1.327 . S
C1063 C1067 1.429 . S
C1064 C1047 1.603 . S
C1064 H1058 0.949 . S
C1064 C1068 1.368 . S
C1065 C1046 1.429 . S
C1065 C1059 1.429 . S
C1065 C1066 1.523 . S
C1066 C1047 1.353 1_545 S
C1066 C1060 1.368 . S
C1066 C1065 1.523 . S
C1067 C1051 1.429 . S
C1067 C1063 1.429 . S
C1067 C1068 1.523 . S
C1068 C1052 1.353 1_565 S
C1068 C1064 1.368 . S
C1068 C1067 1.523 . S
H1069 C1044 0.950 . S
H1070 C1046 0.950 . S
H1071 C1047 0.950 . S
H1072 C1049 0.950 . S
H1073 C1051 0.950 . S
C1074 C1075 1.349 . S
C1074 C1076 1.327 . S
C1074 H1099 0.950 . S
C1075 C1074 1.349 . S
C1075 C1091 1.349 . S
C1076 C1074 1.327 . S
C1076 C1095 1.429 . S
C1076 H1100 0.950 . S
C1077 C1094 1.574 . S
C1077 C1096 1.368 . S
C1077 H1101 0.949 . S
H1078 C1082 0.949 . S
C1079 C1080 1.349 . S
C1079 C1081 1.327 . S
C1079 H1102 0.950 . S
C1080 C1079 1.349 . S
C1080 C1092 1.349 . S
C1081 C1079 1.327 . S
C1081 C1097 1.429 . S
C1081 H1103 0.950 . S
C1082 H1078 0.949 . S
C1082 C1090 1.574 . S
C1082 C1098 1.368 . S
H1083 C1091 0.950 . S
H1084 C1089 0.950 . S
H1085 C1090 0.949 . S
H1086 C1092 0.950 . S
H1087 C1093 0.950 . S
H1088 C1094 0.949 . S
C1089 H1084 0.950 . S
C1089 C1091 1.327 . S
C1089 C1095 1.429 . S
C1090 C1082 1.574 . S
C1090 H1085 0.949 . S
C1090 C1096 1.368 . S
C1091 C1075 1.349 . S
C1091 H1083 0.950 . S
C1091 C1089 1.327 . S
C1092 C1080 1.349 . S
C1092 H1086 0.950 . S
C1092 C1093 1.327 . S
C1093 H1087 0.950 . S
C1093 C1092 1.327 . S
C1093 C1097 1.429 . S
C1094 C1077 1.574 . S
C1094 H1088 0.949 . S
C1094 C1098 1.368 . S
C1095 C1076 1.429 . S
C1095 C1089 1.429 . S
C1095 C1096 1.523 . S
C1096 C1077 1.368 . S
C1096 C1090 1.368 . S
C1096 C1095 1.523 . S
C1097 C1081 1.429 . S
C1097 C1093 1.429 . S
C1097 C1098 1.523 . S
C1098 C1082 1.368 . S
C1098 C1094 1.368 . S
C1098 C1097 1.523 . S
H1099 C1074 0.950 . S
H1100 C1076 0.950 . S
H1101 C1077 0.949 . S
H1102 C1079 0.950 . S
H1103 C1081 0.950 . S
C1104 C1105 1.349 . S
C1104 C1106 1.327 . S
C1104 H1129 0.950 . S
C1105 C1104 1.349 . S
C1105 C1121 1.349 . S
C1106 C1104 1.327 . S
C1106 C1125 1.429 . S
C1106 H1130 0.950 . S
C1107 C1124 1.574 1_455 S
C1107 C1126 1.368 . S
C1107 H1131 0.949 . S
H1108 C1112 0.949 . S
C1109 C1110 1.349 . S
C1109 C1111 1.327 . S
C1109 H1132 0.950 . S
C1110 C1109 1.349 . S
C1110 C1122 1.349 . S
C1111 C1109 1.327 . S
C1111 C1127 1.429 . S
C1111 H1133 0.950 . S
C1112 H1108 0.949 . S
C1112 C1120 1.574 1_655 S
C1112 C1128 1.368 . S
H1113 C1121 0.950 . S
H1114 C1119 0.950 . S
H1115 C1120 0.949 . S
H1116 C1122 0.950 . S
H1117 C1123 0.950 . S
H1118 C1124 0.949 . S
C1119 H1114 0.950 . S
C1119 C1121 1.327 . S
C1119 C1125 1.429 . S
C1120 C1112 1.574 1_455 S
C1120 H1115 0.949 . S
C1120 C1126 1.368 . S
C1121 C1105 1.349 . S
C1121 H1113 0.950 . S
C1121 C1119 1.327 . S
C1122 C1110 1.349 . S
C1122 H1116 0.950 . S
C1122 C1123 1.327 . S
C1123 H1117 0.950 . S
C1123 C1122 1.327 . S
C1123 C1127 1.429 . S
C1124 C1107 1.574 1_655 S
C1124 H1118 0.949 . S
C1124 C1128 1.368 . S
C1125 C1106 1.429 . S
C1125 C1119 1.429 . S
C1125 C1126 1.523 . S
C1126 C1107 1.368 . S
C1126 C1120 1.368 . S
C1126 C1125 1.523 . S
C1127 C1111 1.429 . S
C1127 C1123 1.429 . S
C1127 C1128 1.523 . S
C1128 C1112 1.368 . S
C1128 C1124 1.368 . S
C1128 C1127 1.523 . S
H1129 C1104 0.950 . S
H1130 C1106 0.950 . S
H1131 C1107 0.949 . S
H1132 C1109 0.950 . S
H1133 C1111 0.950 . S
C1134 C1135 1.349 . S
C1134 C1136 1.327 . S
C1134 H1159 0.950 . S
C1135 C1134 1.349 . S
C1135 C1151 1.349 . S
C1136 C1134 1.327 . S
C1136 C1155 1.429 . S
C1136 H1160 0.950 . S
C1137 C1154 1.574 . S
C1137 C1156 1.368 1_554 S
C1137 H1161 0.949 . S
H1138 C1142 0.949 1_556 S
C1139 C1140 1.349 . S
C1139 C1141 1.327 . S
C1139 H1162 0.950 . S
C1140 C1139 1.349 . S
C1140 C1152 1.349 . S
C1141 C1139 1.327 . S
C1141 C1157 1.429 . S
C1141 H1163 0.950 . S
C1142 H1138 0.949 1_554 S
C1142 C1150 1.574 1_554 S
C1142 C1158 1.368 . S
H1143 C1151 0.950 . S
H1144 C1149 0.950 1_554 S
H1145 C1150 0.949 . S
H1146 C1152 0.950 . S
H1147 C1153 0.950 . S
H1148 C1154 0.949 . S
C1149 H1144 0.950 1_556 S
C1149 C1151 1.327 . S
C1149 C1155 1.429 . S
C1150 C1142 1.574 1_556 S
C1150 H1145 0.949 . S
C1150 C1156 1.368 1_565 S
C1151 C1135 1.349 . S
C1151 H1143 0.950 . S
C1151 C1149 1.327 . S
C1152 C1140 1.349 . S
C1152 H1146 0.950 . S
C1152 C1153 1.327 . S
C1153 H1147 0.950 . S
C1153 C1152 1.327 . S
C1153 C1157 1.429 . S
C1154 C1137 1.574 . S
C1154 H1148 0.949 . S
C1154 C1158 1.368 1_545 S
C1155 C1136 1.429 . S
C1155 C1149 1.429 . S
C1155 C1156 1.523 . S
C1156 C1137 1.368 1_556 S
C1156 C1150 1.368 1_545 S
C1156 C1155 1.523 . S
C1157 C1141 1.429 . S
C1157 C1153 1.429 . S
C1157 C1158 1.523 . S
C1158 C1142 1.368 . S
C1158 C1154 1.368 1_565 S
C1158 C1157 1.523 . S
H1159 C1134 0.950 . S
H1160 C1136 0.950 . S
H1161 C1137 0.949 . S
H1162 C1139 0.950 . S
H1163 C1141 0.950 . S
C1164 C1165 1.349 . S
C1164 C1166 1.327 . S
C1164 H1189 0.950 . S
C1165 C1164 1.349 . S
C1165 C1181 1.349 . S
C1166 C1164 1.327 . S
C1166 C1185 1.429 . S
C1166 H1190 0.950 . S
C1167 C1184 1.574 . S
C1167 C1186 1.368 . S
C1167 H1191 0.949 . S
H1168 C1172 0.949 . S
C1169 C1170 1.349 . S
C1169 C1171 1.327 . S
C1169 H1192 0.950 . S
C1170 C1169 1.349 . S
C1170 C1182 1.349 . S
C1171 C1169 1.327 . S
C1171 C1187 1.429 . S
C1171 H1193 0.950 . S
C1172 H1168 0.949 . S
C1172 C1180 1.574 . S
C1172 C1188 1.368 . S
H1173 C1181 0.950 . S
H1174 C1179 0.950 . S
H1175 C1180 0.949 . S
H1176 C1182 0.950 . S
H1177 C1183 0.950 . S
H1178 C1184 0.949 . S
C1179 H1174 0.950 . S
C1179 C1181 1.327 . S
C1179 C1185 1.429 . S
C1180 C1172 1.574 . S
C1180 H1175 0.949 . S
C1180 C1186 1.368 . S
C1181 C1165 1.349 . S
C1181 H1173 0.950 . S
C1181 C1179 1.327 . S
C1182 C1170 1.349 . S
C1182 H1176 0.950 . S
C1182 C1183 1.327 . S
C1183 H1177 0.950 . S
C1183 C1182 1.327 . S
C1183 C1187 1.429 . S
C1184 C1167 1.574 . S
C1184 H1178 0.949 . S
C1184 C1188 1.368 . S
C1185 C1166 1.429 . S
C1185 C1179 1.429 . S
C1185 C1186 1.523 . S
C1186 C1167 1.368 . S
C1186 C1180 1.368 . S
C1186 C1185 1.523 . S
C1187 C1171 1.429 . S
C1187 C1183 1.429 . S
C1187 C1188 1.523 . S
C1188 C1172 1.368 . S
C1188 C1184 1.368 . S
C1188 C1187 1.523 . S
H1189 C1164 0.950 . S
H1190 C1166 0.950 . S
H1191 C1167 0.949 . S
H1192 C1169 0.950 . S
H1193 C1171 0.950 . S
C1194 C1195 1.349 . S
C1194 C1196 1.327 . S
C1194 H1219 0.950 . S
C1195 C1194 1.349 . S
C1195 C1211 1.349 . S
C1196 C1194 1.327 . S
C1196 C1215 1.429 . S
C1196 H1220 0.950 . S
C1197 C1214 1.574 . S
C1197 C1216 1.368 . S
C1197 H1221 0.949 . S
H1198 C1202 0.949 . S
C1199 C1200 1.349 . S
C1199 C1201 1.327 . S
C1199 H1222 0.950 . S
C1200 C1199 1.349 . S
C1200 C1212 1.349 . S
C1201 C1199 1.327 . S
C1201 C1217 1.429 . S
C1201 H1223 0.950 . S
C1202 H1198 0.949 . S
C1202 C1210 1.574 . S
C1202 C1218 1.368 . S
H1203 C1211 0.950 . S
H1204 C1209 0.950 . S
H1205 C1210 0.949 . S
H1206 C1212 0.950 . S
H1207 C1213 0.950 . S
H1208 C1214 0.949 . S
C1209 H1204 0.950 . S
C1209 C1211 1.327 . S
C1209 C1215 1.429 . S
C1210 C1202 1.574 . S
C1210 H1205 0.949 . S
C1210 C1216 1.368 . S
C1211 C1195 1.349 . S
C1211 H1203 0.950 . S
C1211 C1209 1.327 . S
C1212 C1200 1.349 . S
C1212 H1206 0.950 . S
C1212 C1213 1.327 . S
C1213 H1207 0.950 . S
C1213 C1212 1.327 . S
C1213 C1217 1.429 . S
C1214 C1197 1.574 . S
C1214 H1208 0.949 . S
C1214 C1218 1.368 . S
C1215 C1196 1.429 . S
C1215 C1209 1.429 . S
C1215 C1216 1.523 . S
C1216 C1197 1.368 . S
C1216 C1210 1.368 . S
C1216 C1215 1.523 . S
C1217 C1201 1.429 . S
C1217 C1213 1.429 . S
C1217 C1218 1.523 . S
C1218 C1202 1.368 . S
C1218 C1214 1.368 . S
C1218 C1217 1.523 . S
H1219 C1194 0.950 . S
H1220 C1196 0.950 . S
H1221 C1197 0.949 . S
H1222 C1199 0.950 . S
H1223 C1201 0.950 . S
C1224 C1225 1.349 . S
C1224 C1226 1.327 . S
C1224 H1249 0.950 . S
C1225 C1224 1.349 . S
C1225 C1241 1.349 . S
C1226 C1224 1.327 . S
C1226 C1245 1.429 . S
C1226 H1250 0.950 . S
C1227 C1244 1.574 . S
C1227 C1246 1.368 . S
C1227 H1251 0.949 . S
H1228 C1232 0.949 . S
C1229 C1230 1.349 . S
C1229 C1231 1.327 . S
C1229 H1252 0.950 . S
C1230 C1229 1.349 . S
C1230 C1242 1.349 . S
C1231 C1229 1.327 . S
C1231 C1247 1.429 . S
C1231 H1253 0.950 . S
C1232 H1228 0.949 . S
C1232 C1240 1.574 . S
C1232 C1248 1.368 . S
H1233 C1241 0.950 . S
H1234 C1239 0.950 . S
H1235 C1240 0.949 . S
H1236 C1242 0.950 . S
H1237 C1243 0.950 . S
H1238 C1244 0.949 . S
C1239 H1234 0.950 . S
C1239 C1241 1.327 . S
C1239 C1245 1.429 . S
C1240 C1232 1.574 . S
C1240 H1235 0.949 . S
C1240 C1246 1.368 . S
C1241 C1225 1.349 . S
C1241 H1233 0.950 . S
C1241 C1239 1.327 . S
C1242 C1230 1.349 . S
C1242 H1236 0.950 . S
C1242 C1243 1.327 . S
C1243 H1237 0.950 . S
C1243 C1242 1.327 . S
C1243 C1247 1.429 . S
C1244 C1227 1.574 . S
C1244 H1238 0.949 . S
C1244 C1248 1.368 . S
C1245 C1226 1.429 . S
C1245 C1239 1.429 . S
C1245 C1246 1.523 . S
C1246 C1227 1.368 . S
C1246 C1240 1.368 . S
C1246 C1245 1.523 . S
C1247 C1231 1.429 . S
C1247 C1243 1.429 . S
C1247 C1248 1.523 . S
C1248 C1232 1.368 . S
C1248 C1244 1.368 . S
C1248 C1247 1.523 . S
H1249 C1224 0.950 . S
H1250 C1226 0.950 . S
H1251 C1227 0.949 . S
H1252 C1229 0.950 . S
H1253 C1231 0.950 . S
C1254 C1255 1.349 . S
C1254 C1256 1.327 . S
C1254 H1279 0.950 . S
C1255 C1254 1.349 . S
C1255 C1271 1.349 . S
C1256 C1254 1.327 . S
C1256 C1275 1.429 . S
C1256 H1280 0.950 . S
C1257 C1274 1.574 . S
C1257 C1276 1.368 . S
C1257 H1281 0.949 . S
H1258 C1262 0.949 . S
C1259 C1260 1.349 . S
C1259 C1261 1.327 . S
C1259 H1282 0.950 . S
C1260 C1259 1.349 . S
C1260 C1272 1.349 . S
C1261 C1259 1.327 . S
C1261 C1277 1.429 . S
C1261 H1283 0.950 . S
C1262 H1258 0.949 . S
C1262 C1270 1.574 . S
C1262 C1278 1.368 . S
H1263 C1271 0.950 . S
H1264 C1269 0.950 . S
H1265 C1270 0.949 . S
H1266 C1272 0.950 . S
H1267 C1273 0.950 . S
H1268 C1274 0.949 . S
C1269 H1264 0.950 . S
C1269 C1271 1.327 . S
C1269 C1275 1.429 . S
C1270 C1262 1.574 . S
C1270 H1265 0.949 . S
C1270 C1276 1.368 . S
C1271 C1255 1.349 . S
C1271 H1263 0.950 . S
C1271 C1269 1.327 . S
C1272 C1260 1.349 . S
C1272 H1266 0.950 . S
C1272 C1273 1.327 . S
C1273 H1267 0.950 . S
C1273 C1272 1.327 . S
C1273 C1277 1.429 . S
C1274 C1257 1.574 . S
C1274 H1268 0.949 . S
C1274 C1278 1.368 . S
C1275 C1256 1.429 . S
C1275 C1269 1.429 . S
C1275 C1276 1.523 . S
C1276 C1257 1.368 . S
C1276 C1270 1.368 . S
C1276 C1275 1.523 . S
C1277 C1261 1.429 . S
C1277 C1273 1.429 . S
C1277 C1278 1.523 . S
C1278 C1262 1.368 . S
C1278 C1274 1.368 . S
C1278 C1277 1.523 . S
H1279 C1254 0.950 . S
H1280 C1256 0.950 . S
H1281 C1257 0.949 . S
H1282 C1259 0.950 . S
H1283 C1261 0.950 . S
C1284 C1285 1.349 . S
C1284 C1286 1.327 . S
C1284 H1309 0.950 . S
C1285 C1284 1.349 . S
C1285 C1301 1.349 . S
C1286 C1284 1.327 . S
C1286 C1305 1.429 . S
C1286 H1310 0.950 . S
C1287 C1304 1.574 . S
C1287 C1306 1.368 . S
C1287 H1311 0.949 . S
H1288 C1292 0.949 . S
C1289 C1290 1.349 . S
C1289 C1291 1.327 . S
C1289 H1312 0.950 . S
C1290 C1289 1.349 . S
C1290 C1302 1.349 . S
C1291 C1289 1.327 . S
C1291 C1307 1.429 . S
C1291 H1313 0.950 . S
C1292 H1288 0.949 . S
C1292 C1300 1.574 . S
C1292 C1308 1.368 . S
H1293 C1301 0.950 . S
H1294 C1299 0.950 . S
H1295 C1300 0.949 . S
H1296 C1302 0.950 . S
H1297 C1303 0.950 . S
H1298 C1304 0.949 . S
C1299 H1294 0.950 . S
C1299 C1301 1.327 . S
C1299 C1305 1.429 . S
C1300 C1292 1.574 . S
C1300 H1295 0.949 . S
C1300 C1306 1.368 . S
C1301 C1285 1.349 . S
C1301 H1293 0.950 . S
C1301 C1299 1.327 . S
C1302 C1290 1.349 . S
C1302 H1296 0.950 . S
C1302 C1303 1.327 . S
C1303 H1297 0.950 . S
C1303 C1302 1.327 . S
C1303 C1307 1.429 . S
C1304 C1287 1.574 . S
C1304 H1298 0.949 . S
C1304 C1308 1.368 . S
C1305 C1286 1.429 . S
C1305 C1299 1.429 . S
C1305 C1306 1.523 . S
C1306 C1287 1.368 . S
C1306 C1300 1.368 . S
C1306 C1305 1.523 . S
C1307 C1291 1.429 . S
C1307 C1303 1.429 . S
C1307 C1308 1.523 1_554 S
C1308 C1292 1.368 . S
C1308 C1304 1.368 . S
C1308 C1307 1.523 1_556 S
H1309 C1284 0.950 . S
H1310 C1286 0.950 . S
H1311 C1287 0.949 . S
H1312 C1289 0.950 . S
H1313 C1291 0.950 . S
C1314 C1315 1.349 . S
C1314 C1316 1.327 1_556 S
C1314 H1339 0.950 . S
C1315 C1314 1.349 . S
C1315 C1331 1.349 . S
C1316 C1314 1.327 1_554 S
C1316 C1335 1.429 . S
C1316 H1340 0.950 . S
C1317 C1334 1.574 . S
C1317 C1336 1.368 . S
C1317 H1341 0.949 . S
H1318 C1322 0.949 . S
C1319 C1320 1.349 . S
C1319 C1321 1.327 . S
C1319 H1342 0.950 . S
C1320 C1319 1.349 . S
C1320 C1332 1.349 . S
C1321 C1319 1.327 . S
C1321 C1337 1.429 . S
C1321 H1343 0.950 . S
C1322 H1318 0.949 . S
C1322 C1330 1.574 . S
C1322 C1338 1.368 . S
H1323 C1331 0.950 . S
H1324 C1329 0.950 . S
H1325 C1330 0.949 . S
H1326 C1332 0.950 . S
H1327 C1333 0.950 . S
H1328 C1334 0.949 . S
C1329 H1324 0.950 . S
C1329 C1331 1.327 1_554 S
C1329 C1335 1.429 . S
C1330 C1322 1.574 . S
C1330 H1325 0.949 . S
C1330 C1336 1.368 . S
C1331 C1315 1.349 . S
C1331 H1323 0.950 . S
C1331 C1329 1.327 1_556 S
C1332 C1320 1.349 . S
C1332 H1326 0.950 . S
C1332 C1333 1.327 . S
C1333 H1327 0.950 . S
C1333 C1332 1.327 . S
C1333 C1337 1.429 . S
C1334 C1317 1.574 . S
C1334 H1328 0.949 . S
C1334 C1338 1.368 . S
C1335 C1316 1.429 . S
C1335 C1329 1.429 . S
C1335 C1336 1.523 . S
C1336 C1317 1.368 . S
C1336 C1330 1.368 . S
C1336 C1335 1.523 . S
C1337 C1321 1.429 . S
C1337 C1333 1.429 . S
C1337 C1338 1.523 . S
C1338 C1322 1.368 . S
C1338 C1334 1.368 . S
C1338 C1337 1.523 . S
H1339 C1314 0.950 . S
H1340 C1316 0.950 . S
H1341 C1317 0.949 . S
H1342 C1319 0.950 . S
H1343 C1321 0.950 . S
C265 C229 1.122 . S
C270 C5 1.122 . S
C295 C31 1.122 . S
C300 C247 1.122 . S
C325 C141 1.122 . S
C330 C49 1.122 . S
C355 C75 1.122 . S
C360 C159 1.122 . S
C385 C93 1.122 . S
C390 C185 1.122 . S
C415 C203 1.122 . S
C420 C119 1.122 . S
C445 C6 1.148 . S
C450 C116 1.214 . S
C475 C29 1.148 . S
C480 C7 1.214 . S
C505 C28 1.214 . S
C510 C50 1.148 . S
C535 C73 1.148 . S
C540 C51 1.214 . S
C565 C94 1.148 . S
C570 C72 1.214 . S
C595 C117 1.148 . S
C600 C95 1.214 . S
C625 C139 1.148 . S
C630 C161 1.214 1_556 S
C655 C160 1.148 . S
C660 C182 1.214 . S
C685 C183 1.148 . S
C690 C205 1.214 . S
C715 C226 1.214 . S
C720 C204 1.148 . S
C745 C249 1.214 . S
C750 C227 1.148 . S
C775 C138 1.214 . S
C780 C248 1.148 . S
C805 C4 1.221 . S
C810 C140 1.221 . S
C835 C158 1.221 . S
C840 C30 1.221 . S
C865 C48 1.221 . S
C870 C184 1.221 . S
C895 C74 1.221 . S
C900 C202 1.221 . S
C925 C228 1.221 . S
C930 C92 1.221 . S
C955 C118 1.221 . S
C960 C246 1.221 . S
C985 C9 0.997 . S
C990 C207 0.997 . S
C1015 C225 0.997 . S
C1020 C27 0.997 . S
C1045 C251 0.997 . S
C1050 C53 0.997 . S
C1075 C71 0.997 . S
C1080 C137 0.997 . S
C1105 C97 0.997 . S
C1110 C163 0.997 . S
C1135 C115 0.997 . S
C1140 C181 0.997 . S
C1165 C224 1.767 . S
C1170 C8 1.767 . S
C1195 C250 1.767 . S
C1200 C26 1.767 . S
C1225 C136 1.767 . S
C1230 C52 1.767 . S
C1255 C162 1.767 . S
C1260 C70 1.767 . S
C1285 C96 1.767 . S
C1290 C180 1.767 . S
C1315 C114 1.767 . S
C1320 C206 1.767 . S
