# Generated by pormake.
# Topology smk, (6)-cn, num edge types: 1
# Building blocks:
#     Node 0, Type 0, BuildingBlock: OJICUG_clean_sbu_0, # of connection points: 6
#     Node 1, Type 0, BuildingBlock: OJICUG_clean_sbu_0, # of connection points: 6
#     Node 2, Type 0, BuildingBlock: OJICUG_clean_sbu_0, # of connection points: 6
#     Node 3, Type 0, BuildingBlock: OJICUG_clean_sbu_0, # of connection points: 6
#     Node 4, Type 0, BuildingBlock: OJICUG_clean_sbu_0, # of connection points: 6
#     Node 5, Type 0, BuildingBlock: OJICUG_clean_sbu_0, # of connection points: 6
#     Edge 6, Type (0, 0), BuildingBlock: FUNLAD_clean_linker_0, # of connection points: 2
#     Edge 7, Type (0, 0), BuildingBlock: FUNLAD_clean_linker_0, # of connection points: 2
#     Edge 8, Type (0, 0), BuildingBlock: FUNLAD_clean_linker_0, # of connection points: 2
#     Edge 9, Type (0, 0), BuildingBlock: FUNLAD_clean_linker_0, # of connection points: 2
#     Edge 10, Type (0, 0), BuildingBlock: FUNLAD_clean_linker_0, # of connection points: 2
#     Edge 11, Type (0, 0), BuildingBlock: FUNLAD_clean_linker_0, # of connection points: 2
#     Edge 12, Type (0, 0), BuildingBlock: FUNLAD_clean_linker_0, # of connection points: 2
#     Edge 13, Type (0, 0), BuildingBlock: FUNLAD_clean_linker_0, # of connection points: 2
#     Edge 14, Type (0, 0), BuildingBlock: FUNLAD_clean_linker_0, # of connection points: 2
#     Edge 15, Type (0, 0), BuildingBlock: FUNLAD_clean_linker_0, # of connection points: 2
#     Edge 16, Type (0, 0), BuildingBlock: FUNLAD_clean_linker_0, # of connection points: 2
#     Edge 17, Type (0, 0), BuildingBlock: FUNLAD_clean_linker_0, # of connection points: 2
#     Edge 18, Type (0, 0), BuildingBlock: FUNLAD_clean_linker_0, # of connection points: 2
#     Edge 19, Type (0, 0), BuildingBlock: FUNLAD_clean_linker_0, # of connection points: 2
#     Edge 20, Type (0, 0), BuildingBlock: FUNLAD_clean_linker_0, # of connection points: 2
#     Edge 21, Type (0, 0), BuildingBlock: FUNLAD_clean_linker_0, # of connection points: 2
#     Edge 22, Type (0, 0), BuildingBlock: FUNLAD_clean_linker_0, # of connection points: 2
#     Edge 23, Type (0, 0), BuildingBlock: FUNLAD_clean_linker_0, # of connection points: 2
# Relax obj value: 0.194
# Max RMSD: 0.221
# Mean RMSD: 0.221
data_MOF--net-smk--node1-OJICUG_clean_sbu_0--edge1-FUNLAD_clean_linker_0
_symmetry_space_group_name_H-M    P1
_symmetry_Int_Tables_number       1
_symmetry_cell_setting            triclinic
loop_
_symmetry_equiv_pos_as_xyz
'x, y, z'
_cell_length_a     50.612565
_cell_length_b     50.509166
_cell_length_c     18.179865
_cell_angle_alpha  90.064691
_cell_angle_beta   89.906648
_cell_angle_gamma 119.96655
loop_
_atom_site_label
_atom_site_type_symbol
_atom_site_fract_x
_atom_site_fract_y
_atom_site_fract_z
_atom_type_partial_charge
Sc0 Sc 0.44265 0.2009 0.522 0.0
Sc1 Sc 0.37051 0.18586 0.58459 0.0
Sc2 Sc 0.43778 0.24449 0.66634 0.0
O3 O 0.41693 0.21036 0.59125 0.0
C4 C 0.47855 0.21223 0.67217 0.0
C5 C 0.38751 0.13398 0.56018 0.0
C6 C 0.38079 0.19525 0.75819 0.0
C7 C 0.39073 0.19522 0.41506 0.0
C8 C 0.48234 0.27375 0.53034 0.0
C9 C 0.38316 0.25378 0.6095 0.0
O10 O 0.46971 0.19929 0.60999 0.0
O11 O 0.36961 0.14286 0.58411 0.0
O12 O 0.40773 0.21771 0.75319 0.0
O13 O 0.41806 0.20212 0.428 0.0
O14 O 0.46977 0.27592 0.58859 0.0
O15 O 0.36691 0.22664 0.58535 0.0
O16 O 0.47555 0.24827 0.50113 0.0
O17 O 0.37051 0.18729 0.46505 0.0
O18 O 0.40881 0.26312 0.64065 0.0
O19 O 0.41364 0.15219 0.53344 0.0
O20 O 0.46963 0.22973 0.69937 0.0
O21 O 0.36436 0.18129 0.70284 0.0
Sc22 Sc 0.22927 0.44429 0.67411 0.0
Sc23 Sc 0.17422 0.37561 0.75532 0.0
Sc24 Sc 0.19368 0.44575 0.83825 0.0
O25 O 0.19911 0.42194 0.75588 0.0
C26 C 0.26609 0.48386 0.81134 0.0
C27 C 0.23838 0.38655 0.70645 0.0
C28 C 0.18807 0.38996 0.92732 0.0
C29 C 0.17699 0.39119 0.58291 0.0
C30 C 0.20046 0.48757 0.70245 0.0
C31 C 0.12504 0.39294 0.80272 0.0
O32 O 0.26503 0.47187 0.74922 0.0
O33 O 0.21432 0.37204 0.74495 0.0
O34 O 0.1985 0.41844 0.92052 0.0
O35 O 0.19661 0.41924 0.59068 0.0
O36 O 0.1889 0.47574 0.76417 0.0
O37 O 0.13282 0.37668 0.76519 0.0
O38 O 0.21656 0.4795 0.66484 0.0
O39 O 0.16835 0.37227 0.63613 0.0
O40 O 0.14421 0.41703 0.83689 0.0
O41 O 0.24552 0.41163 0.6738 0.0
O42 O 0.24226 0.47755 0.84841 0.0
O43 O 0.17599 0.37117 0.87439 0.0
Sc44 Sc 0.77961 0.23635 0.82493 0.0
Sc45 Sc 0.79844 0.18221 0.88939 0.0
Sc46 Sc 0.74237 0.19215 0.97861 0.0
O47 O 0.77355 0.20355 0.89759 0.0
C48 C 0.77153 0.265 0.96972 0.0
C49 C 0.84795 0.24951 0.84837 0.0
C50 C 0.79622 0.19159 0.06366 0.0
C51 C 0.78325 0.18831 0.72085 0.0
C52 C 0.70692 0.2007 0.8489 0.0
C53 C 0.73443 0.12707 0.93419 0.0
O54 O 0.78578 0.26809 0.90998 0.0
O55 O 0.84048 0.22441 0.88044 0.0
O56 O 0.77528 0.1984 0.05986 0.0
O57 O 0.77401 0.20705 0.73408 0.0
O58 O 0.70706 0.18512 0.90342 0.0
O59 O 0.75872 0.13791 0.89631 0.0
O60 O 0.73128 0.2214 0.81878 0.0
O61 O 0.79472 0.17902 0.76991 0.0
O62 O 0.7269 0.14382 0.97059 0.0
O63 O 0.82867 0.2561 0.8221 0.0
O64 O 0.75335 0.23899 0.99759 0.0
O65 O 0.80538 0.18284 0.00819 0.0
Sc66 Sc 0.53822 0.78203 0.02074 0.0
Sc67 Sc 0.61017 0.80062 0.08952 0.0
Sc68 Sc 0.54339 0.74484 0.17723 0.0
O69 O 0.56395 0.77576 0.09581 0.0
C70 C 0.5022 0.77651 0.16634 0.0
C71 C 0.59296 0.85045 0.04851 0.0
C72 C 0.59859 0.79779 0.26352 0.0
C73 C 0.59032 0.78567 0.91995 0.0
C74 C 0.49908 0.7094 0.04665 0.0
C75 C 0.59955 0.73547 0.13146 0.0
O76 O 0.51257 0.78892 0.10433 0.0
O77 O 0.60984 0.84273 0.08313 0.0
O78 O 0.57083 0.77706 0.25912 0.0
O79 O 0.56218 0.77573 0.93191 0.0
O80 O 0.51346 0.70951 0.1038 0.0
O81 O 0.61385 0.76033 0.09568 0.0
O82 O 0.50454 0.73381 0.01343 0.0
O83 O 0.61063 0.79779 0.96978 0.0
O84 O 0.57504 0.72788 0.16698 0.0
O85 O 0.56801 0.83112 0.01822 0.0
O86 O 0.50942 0.75829 0.19675 0.0
O87 O 0.61644 0.80712 0.20821 0.0
Sc88 Sc 0.74817 0.53912 0.1782 0.0
Sc89 Sc 0.80175 0.60996 0.25487 0.0
Sc90 Sc 0.79298 0.54123 0.32675 0.0
O91 O 0.78097 0.5635 0.25341 0.0
C92 C 0.72024 0.4979 0.31856 0.0
C93 C 0.73367 0.5922 0.22052 0.0
C94 C 0.79416 0.59331 0.42681 0.0
C95 C 0.79641 0.59457 0.0826 0.0
C96 C 0.78384 0.50163 0.18527 0.0
C97 C 0.85745 0.59954 0.28616 0.0
O98 O 0.71703 0.50967 0.25999 0.0
O99 O 0.75916 0.60935 0.25131 0.0
O100 O 0.78923 0.56632 0.41678 0.0
O101 O 0.77693 0.56644 0.09047 0.0
O102 O 0.79825 0.51415 0.24388 0.0
O103 O 0.84639 0.61502 0.25863 0.0
O104 O 0.76397 0.50713 0.15784 0.0
O105 O 0.80597 0.61366 0.13555 0.0
O106 O 0.84104 0.57342 0.31533 0.0
O107 O 0.72742 0.56734 0.18858 0.0
O108 O 0.7462 0.50588 0.34668 0.0
O109 O 0.80033 0.61224 0.37432 0.0
Sc110 Sc 0.20012 0.75489 0.33416 0.0
Sc111 Sc 0.19251 0.81464 0.40822 0.0
Sc112 Sc 0.23966 0.79166 0.49303 0.0
O113 O 0.21067 0.78696 0.41189 0.0
C114 C 0.20178 0.71863 0.47099 0.0
C115 C 0.13615 0.75203 0.36485 0.0
C116 C 0.19265 0.80175 0.58136 0.0
C117 C 0.20487 0.8084 0.23801 0.0
C118 C 0.2715 0.77984 0.36015 0.0
C119 C 0.25923 0.86107 0.45464 0.0
O120 O 0.18812 0.71935 0.4132 0.0
O121 O 0.14725 0.77633 0.40313 0.0
O122 O 0.20759 0.78784 0.57447 0.0
O123 O 0.21187 0.78785 0.24875 0.0
O124 O 0.27364 0.79554 0.4168 0.0
O125 O 0.23686 0.85442 0.41214 0.0
O126 O 0.24618 0.76244 0.32838 0.0
O127 O 0.19421 0.81797 0.28843 0.0
O128 O 0.2613 0.84122 0.49363 0.0
O129 O 0.15266 0.74325 0.33167 0.0
O130 O 0.22218 0.74279 0.50254 0.0
O131 O 0.1882 0.81538 0.52784 0.0
C132 C 0.35419 0.17621 0.30852 0.0
C133 C 0.38282 0.19715 0.338 0.0
C134 C 0.34839 0.17697 0.23333 0.0
C135 C 0.37102 0.1991 0.18729 0.0
C136 C 0.39903 0.2207 0.21783 0.0
C137 C 0.40502 0.21953 0.29204 0.0
C138 C 0.36678 0.20079 0.10724 0.0
C139 C 0.35025 0.17625 0.06404 0.0
C140 C 0.35232 0.17894 0.98251 0.0
C141 C 0.35123 0.1551 0.94007 0.0
C142 C 0.3587 0.15945 0.86504 0.0
C143 C 0.36737 0.18772 0.83208 0.0
H144 H 0.35791 0.22448 0.97718 0.0
C145 C 0.36615 0.21061 0.87297 0.0
C146 C 0.35823 0.20613 0.94713 0.0
H147 H 0.37228 0.23242 0.84794 0.0
H148 H 0.33672 0.15875 0.34301 0.0
H149 H 0.32633 0.16039 0.21151 0.0
H150 H 0.41674 0.23813 0.18368 0.0
H151 H 0.42718 0.23615 0.31347 0.0
H152 H 0.38111 0.22293 0.08184 0.0
H153 H 0.33838 0.15355 0.08819 0.0
H154 H 0.34637 0.1338 0.96582 0.0
H155 H 0.35943 0.1415 0.83404 0.0
C156 C 0.17383 0.40167 0.45018 0.0
C157 C 0.16683 0.3802 0.50677 0.0
C158 C 0.1701 0.39271 0.37676 0.0
C159 C 0.15916 0.36202 0.35777 0.0
C160 C 0.14966 0.34003 0.41382 0.0
C161 C 0.15365 0.34906 0.48799 0.0
C162 C 0.15907 0.35362 0.27946 0.0
C163 C 0.18377 0.3707 0.23719 0.0
C164 C 0.18531 0.3695 0.15555 0.0
C165 C 0.21277 0.39082 0.12171 0.0
C166 C 0.21422 0.39568 0.04606 0.0
C167 C 0.18838 0.37889 0.00207 0.0
H168 H 0.13838 0.33418 0.13424 0.0
C169 C 0.16159 0.35555 0.03429 0.0
C170 C 0.15995 0.35097 0.11072 0.0
H171 H 0.14128 0.34252 0.00136 0.0
H172 H 0.18347 0.42575 0.46237 0.0
H173 H 0.17664 0.41002 0.33454 0.0
H174 H 0.14071 0.31616 0.40031 0.0
H175 H 0.14787 0.33192 0.53023 0.0
H176 H 0.13883 0.33404 0.25748 0.0
H177 H 0.20401 0.38863 0.26426 0.0
H178 H 0.23278 0.40528 0.15443 0.0
H179 H 0.23514 0.4138 0.02241 0.0
C180 C 0.80847 0.21239 0.19028 0.0
C181 C 0.80804 0.19173 0.13793 0.0
C182 C 0.81192 0.20841 0.26464 0.0
C183 C 0.81473 0.1835 0.2885 0.0
C184 C 0.8174 0.16457 0.23591 0.0
C185 C 0.81399 0.16861 0.16077 0.0
C186 C 0.81222 0.17607 0.36808 0.0
C187 C 0.79017 0.17673 0.40842 0.0
C188 C 0.78676 0.17391 0.48974 0.0
C189 C 0.76196 0.17512 0.5208 0.0
C190 C 0.75994 0.17788 0.59651 0.0
C191 C 0.78251 0.17913 0.64339 0.0
H192 H 0.82794 0.17233 0.51552 0.0
C193 C 0.8062 0.17561 0.61339 0.0
C194 C 0.80847 0.17322 0.53698 0.0
H195 H 0.824 0.17668 0.64843 0.0
H196 H 0.80445 0.23072 0.17409 0.0
H197 H 0.81084 0.224 0.30394 0.0
H198 H 0.82001 0.14548 0.25315 0.0
H199 H 0.81375 0.15237 0.12143 0.0
H200 H 0.82781 0.16964 0.392 0.0
H201 H 0.77382 0.181 0.3796 0.0
H202 H 0.74475 0.17546 0.48609 0.0
H203 H 0.74128 0.18028 0.61815 0.0
C204 C 0.58995 0.80877 0.39143 0.0
C205 C 0.61027 0.80924 0.33811 0.0
C206 C 0.59773 0.81233 0.46555 0.0
C207 C 0.62595 0.81619 0.48825 0.0
C208 C 0.64752 0.81965 0.43481 0.0
C209 C 0.63969 0.8161 0.35989 0.0
C210 C 0.6315 0.81409 0.56759 0.0
C211 C 0.60957 0.79143 0.60824 0.0
C212 C 0.60917 0.78849 0.68966 0.0
C213 C 0.58389 0.76305 0.72109 0.0
C214 C 0.57891 0.76133 0.79669 0.0
C215 C 0.59933 0.78485 0.84309 0.0
H216 H 0.65059 0.83118 0.71478 0.0
C217 C 0.62597 0.80924 0.81289 0.0
C218 C 0.6308 0.8112 0.73655 0.0
H219 H 0.642 0.82776 0.8476 0.0
H220 H 0.56732 0.80409 0.37615 0.0
H221 H 0.58105 0.8106 0.50557 0.0
H222 H 0.66958 0.82306 0.45117 0.0
H223 H 0.65579 0.8166 0.31981 0.0
H224 H 0.65322 0.83066 0.59121 0.0
H225 H 0.58933 0.77424 0.57964 0.0
H226 H 0.56694 0.74506 0.68667 0.0
H227 H 0.55832 0.74213 0.81856 0.0
C228 C 0.78538 0.58126 0.56052 0.0
C229 C 0.79469 0.60311 0.50401 0.0
C230 C 0.78936 0.59014 0.6339 0.0
C231 C 0.8027 0.62111 0.65309 0.0
C232 C 0.81018 0.64294 0.59737 0.0
C233 C 0.80642 0.63404 0.52311 0.0
C234 C 0.80877 0.63002 0.73162 0.0
C235 C 0.8213 0.6175 0.7746 0.0
C236 C 0.81978 0.6162 0.85615 0.0
C237 C 0.82204 0.5925 0.89025 0.0
C238 C 0.81589 0.58659 0.96491 0.0
C239 C 0.80811 0.60476 0.00774 0.0
H240 H 0.81239 0.65451 0.87579 0.0
C241 C 0.80813 0.63003 0.97551 0.0
C242 C 0.81369 0.63562 0.89985 0.0
H243 H 0.80213 0.6443 0.00778 0.0
H244 H 0.77569 0.55718 0.54829 0.0
H245 H 0.78237 0.57268 0.67591 0.0
H246 H 0.82002 0.6669 0.61115 0.0
H247 H 0.81363 0.65143 0.48094 0.0
H248 H 0.80071 0.6446 0.75417 0.0
H249 H 0.82966 0.60377 0.74801 0.0
H250 H 0.82689 0.5773 0.85825 0.0
H251 H 0.81618 0.56708 0.98877 0.0
C252 C 0.18412 0.82342 0.13063 0.0
C253 C 0.20723 0.81934 0.16179 0.0
C254 C 0.18302 0.82673 0.05423 0.0
C255 C 0.20534 0.82641 0.00832 0.0
C256 C 0.22971 0.82493 0.04084 0.0
C257 C 0.23056 0.82123 0.11649 0.0
C258 C 0.20269 0.82369 0.92689 0.0
C259 C 0.18119 0.82474 0.88539 0.0
C260 C 0.17855 0.81629 0.80649 0.0
C261 C 0.17693 0.83507 0.75193 0.0
C262 C 0.1794 0.82932 0.67735 0.0
C263 C 0.18325 0.80456 0.65682 0.0
H264 H 0.17995 0.7747 0.82637 0.0
C265 C 0.18202 0.78435 0.71152 0.0
C266 C 0.17967 0.79012 0.78538 0.0
H267 H 0.1843 0.76471 0.69758 0.0
H268 H 0.16577 0.82185 0.16452 0.0
H269 H 0.16384 0.82779 0.03159 0.0
H270 H 0.24737 0.82486 0.00718 0.0
H271 H 0.24876 0.81837 0.13923 0.0
H272 H 0.21883 0.81875 0.89916 0.0
H273 H 0.16586 0.8318 0.90811 0.0
H274 H 0.17563 0.85513 0.76708 0.0
H275 H 0.18016 0.84525 0.63641 0.0
C276 C 0.39237 0.08915 0.51984 0.0
C277 C 0.37722 0.10094 0.56184 0.0
C278 C 0.38157 0.05775 0.51782 0.0
C279 C 0.35548 0.03752 0.55814 0.0
C280 C 0.34121 0.04937 0.60276 0.0
C281 C 0.35177 0.08074 0.60412 0.0
C282 C 0.34194 0.00395 0.55273 0.0
C283 C 0.34183 0.9901 0.48936 0.0
C284 C 0.3232 0.95661 0.47966 0.0
C285 C 0.3082 0.94516 0.41249 0.0
C286 C 0.28793 0.91396 0.40382 0.0
C287 C 0.28287 0.89353 0.46166 0.0
H288 H 0.33098 0.94429 0.58853 0.0
C289 C 0.29926 0.90477 0.5275 0.0
C290 C 0.31913 0.93611 0.53667 0.0
H291 H 0.29587 0.88951 0.57291 0.0
H292 H 0.41221 0.1041 0.48712 0.0
H293 H 0.39356 0.04936 0.48439 0.0
H294 H 0.32121 0.03422 0.6348 0.0
H295 H 0.33981 0.0891 0.63781 0.0
H296 H 0.32858 0.99022 0.59916 0.0
H297 H 0.35236 0.0038 0.44055 0.0
H298 H 0.31121 0.96053 0.3676 0.0
H299 H 0.27585 0.90588 0.35216 0.0
C300 C 0.34064 0.26429 0.58361 0.0
C301 C 0.37102 0.27502 0.60482 0.0
C302 C 0.32825 0.28352 0.58652 0.0
C303 C 0.34598 0.31391 0.61071 0.0
C304 C 0.3768 0.3252 0.62748 0.0
C305 C 0.38918 0.30591 0.62512 0.0
C306 C 0.33244 0.33374 0.62183 0.0
C307 C 0.3039 0.32231 0.64789 0.0
C308 C 0.28953 0.34092 0.6655 0.0
C309 C 0.26514 0.32889 0.71536 0.0
C310 C 0.24943 0.34435 0.73058 0.0
C311 C 0.25748 0.3722 0.69556 0.0
H312 H 0.31665 0.37893 0.59193 0.0
C313 C 0.28241 0.38471 0.64674 0.0
C314 C 0.2983 0.36921 0.63174 0.0
H315 H 0.28912 0.40603 0.61851 0.0
H316 H 0.32609 0.24077 0.56678 0.0
H317 H 0.30464 0.27441 0.5708 0.0
H318 H 0.391 0.34865 0.64535 0.0
H319 H 0.4128 0.31508 0.64084 0.0
H320 H 0.34707 0.35824 0.61509 0.0
H321 H 0.2908 0.29811 0.66124 0.0
H322 H 0.25791 0.30716 0.74217 0.0
H323 H 0.23044 0.33396 0.76866 0.0
C324 C 0.89376 0.30207 0.83978 0.0
C325 C 0.88051 0.27019 0.83373 0.0
C326 C 0.92479 0.32115 0.82393 0.0
C327 C 0.94241 0.30843 0.79956 0.0
C328 C 0.92891 0.27669 0.79232 0.0
C329 C 0.89839 0.25771 0.8104 0.0
C330 C 0.97489 0.32723 0.78023 0.0
C331 C -0.00456 0.34879 0.82531 0.0
C332 C 0.02875 0.36093 0.81634 0.0
C333 C 0.04976 0.38928 0.84714 0.0
C334 C 0.08119 0.40009 0.84256 0.0
C335 C 0.09207 0.38255 0.80745 0.0
H336 H 0.02461 0.32071 0.761 0.0
C337 C 0.07092 0.35413 0.77726 0.0
C338 C 0.0398 0.34336 0.78218 0.0
H339 H 0.0783 0.33969 0.75079 0.0
H340 H 0.88023 0.31211 0.85735 0.0
H341 H 0.93482 0.34567 0.82918 0.0
H342 H 0.94216 0.26651 0.77346 0.0
H343 H 0.88856 0.23322 0.80436 0.0
H344 H 0.98238 0.32004 0.73207 0.0
H345 H 0.98768 0.35611 0.87287 0.0
H346 H 0.04185 0.40302 0.87497 0.0
H347 H 0.09687 0.42204 0.86672 0.0
C348 C 0.63306 0.90524 0.06366 0.0
C349 C 0.6036 0.88342 0.04037 0.0
C350 C 0.64418 0.93625 0.05135 0.0
C351 C 0.62613 0.94618 0.01542 0.0
C352 C 0.59619 0.92466 0.99539 0.0
C353 C 0.58507 0.89349 0.00718 0.0
C354 C 0.63849 0.97888 0.99778 0.0
C355 C 0.66765 -0.00351 0.97631 0.0
C356 C 0.6821 0.02956 0.96031 0.0
C357 C 0.7084 0.04299 0.91642 0.0
C358 C 0.72468 0.0745 0.90572 0.0
C359 C 0.71521 0.09343 0.93954 0.0
H360 H 0.65209 0.03878 0.02772 0.0
C361 C 0.68834 0.07992 0.9819 0.0
C362 C 0.67192 0.04826 0.99227 0.0
H363 H 0.68042 0.09382 0.0088 0.0
H364 H 0.64787 0.89841 0.09018 0.0
H365 H 0.66703 0.95242 0.0697 0.0
H366 H 0.58175 0.93189 0.96852 0.0
H367 H 0.56214 0.8773 0.98932 0.0
H368 H 0.62306 0.98796 0.99875 0.0
H369 H 0.68171 0.986 0.96851 0.0
H370 H 0.71676 0.02909 0.89137 0.0
H371 H 0.74521 0.08403 0.8726 0.0
C372 C 0.71876 0.63166 0.24532 0.0
C373 C 0.71097 0.60251 0.21871 0.0
C374 C 0.69861 0.64271 0.23785 0.0
C375 C 0.67021 0.62489 0.20356 0.0
C376 C 0.66158 0.59513 0.1808 0.0
C377 C 0.68189 0.58408 0.18776 0.0
C378 C 0.64993 0.63757 0.18924 0.0
C379 C 0.66155 0.66676 0.16767 0.0
C380 C 0.64319 0.68158 0.15328 0.0
C381 C 0.65593 0.70772 0.10882 0.0
C382 C 0.64112 0.72445 0.09951 0.0
C383 C 0.61328 0.71561 0.13528 0.0
H384 H 0.60456 0.6522 0.22291 0.0
C385 C 0.59996 0.68882 0.17807 0.0
C386 C 0.61479 0.67194 0.18709 0.0
H387 H 0.57856 0.68138 0.20647 0.0
H388 H 0.74075 0.64635 0.27037 0.0
H389 H 0.70547 0.66541 0.25814 0.0
H390 H 0.63962 0.58088 0.15509 0.0
H391 H 0.67501 0.56137 0.1675 0.0
H392 H 0.62543 0.62233 0.19197 0.0
H393 H 0.68598 0.68054 0.15809 0.0
H394 H 0.6778 0.71564 0.08226 0.0
H395 H 0.65206 0.74485 0.06585 0.0
C396 C 0.90994 0.64288 0.2601 0.0
C397 C 0.89099 0.61307 0.28664 0.0
C398 C 0.94156 0.65652 0.26499 0.0
C399 C 0.95496 0.6407 0.29683 0.0
C400 C 0.93619 0.61047 0.32016 0.0
C401 C 0.90448 0.59681 0.31558 0.0
C402 C 0.98837 0.6554 0.30699 0.0
C403 C 0.00562 0.68543 0.3216 0.0
C404 C 0.03893 0.70102 0.33456 0.0
C405 C 0.05253 0.72836 0.37476 0.0
C406 C 0.08397 0.74454 0.38591 0.0
C407 C 0.10263 0.73388 0.35627 0.0
H408 H 0.0479 0.66953 0.27241 0.0
C409 C 0.08899 0.70638 0.31621 0.0
C410 C 0.05746 0.69011 0.30533 0.0
H411 H 0.10269 0.69759 0.29227 0.0
H412 H 0.9004 0.65595 0.23651 0.0
H413 H 0.95543 0.67949 0.24393 0.0
H414 H 0.94604 0.5977 0.34396 0.0
H415 H 0.89059 0.57369 0.33581 0.0
H416 H -0.00157 0.6408 0.30777 0.0
H417 H -0.00533 0.69911 0.32814 0.0
H418 H 0.03879 0.73735 0.39749 0.0
H419 H 0.09365 0.76568 0.41685 0.0
C420 C 0.52998 0.30167 0.45532 0.0
C421 C 0.50711 0.30218 0.49812 0.0
C422 C 0.55507 0.32895 0.43146 0.0
C423 C 0.55753 0.35719 0.44941 0.0
C424 C 0.53396 0.35762 0.48897 0.0
C425 C 0.50915 0.33041 0.51388 0.0
C426 C 0.58427 0.38649 0.42702 0.0
C427 C 0.61264 0.39056 0.42505 0.0
C428 C 0.63971 0.41965 0.40225 0.0
C429 C 0.66864 0.42649 0.42744 0.0
C430 C 0.69483 0.45268 0.40293 0.0
C431 C 0.69257 0.47229 0.35176 0.0
H432 H 0.61558 0.43485 0.33046 0.0
C433 C 0.66352 0.46574 0.32779 0.0
C434 C 0.63738 0.43971 0.3526 0.0
H435 H 0.66093 0.48032 0.28825 0.0
H436 H 0.52899 0.28026 0.44217 0.0
H437 H 0.57249 0.32789 0.39906 0.0
H438 H 0.53519 0.37911 0.5025 0.0
H439 H 0.4917 0.3315 0.54616 0.0
H440 H 0.58066 0.40562 0.41657 0.0
H441 H 0.6164 0.37219 0.44312 0.0
H442 H 0.67103 0.4113 0.46543 0.0
H443 H 0.71686 0.45694 0.42215 0.0
C444 C 0.20737 0.52709 0.60805 0.0
C445 C 0.19654 0.5133 0.67704 0.0
C446 C 0.20555 0.5529 0.58783 0.0
C447 C 0.193 0.56543 0.63649 0.0
C448 C 0.18188 0.55141 0.70473 0.0
C449 C 0.18335 0.52555 0.72455 0.0
C450 C 0.19289 0.59413 0.62029 0.0
C451 C 0.19096 0.60304 0.55187 0.0
C452 C 0.19164 0.63223 0.53646 0.0
C453 C 0.1769 0.6344 0.47353 0.0
C454 C 0.17885 0.6621 0.4545 0.0
C455 C 0.19611 0.68847 0.4974 0.0
H456 H 0.22039 0.65767 0.62889 0.0
C457 C 0.21032 0.68611 0.56147 0.0
C458 C 0.20812 0.6583 0.58083 0.0
H459 H 0.22394 0.70596 0.59552 0.0
H460 H 0.21777 0.51836 0.57031 0.0
H461 H 0.21496 0.56358 0.53533 0.0
H462 H 0.17224 0.56068 0.74329 0.0
H463 H 0.17483 0.5157 0.77828 0.0
H464 H 0.19312 0.60771 0.66695 0.0
H465 H 0.18764 0.58803 0.50567 0.0
H466 H 0.16415 0.6147 0.43833 0.0
H467 H 0.16771 0.66302 0.40453 0.0
C468 C 0.6753 0.21978 0.78798 0.0
C469 C 0.67715 0.19621 0.82426 0.0
C470 C 0.64693 0.21694 0.77292 0.0
C471 C 0.61988 0.19034 0.79336 0.0
C472 C 0.62171 0.16623 0.82628 0.0
C473 C 0.65005 0.16924 0.84236 0.0
C474 C 0.58948 0.18679 0.77898 0.0
C475 C 0.58432 0.21048 0.78132 0.0
C476 C 0.55467 0.2079 0.76151 0.0
C477 C 0.54821 0.23051 0.7857 0.0
C478 C 0.52228 0.23088 0.76064 0.0
C479 C 0.50255 0.20886 0.70999 0.0
H480 H 0.53839 0.16753 0.69236 0.0
C481 C 0.50829 0.18544 0.68852 0.0
C482 C 0.53405 0.18498 0.71373 0.0
H483 H 0.49351 0.16807 0.64962 0.0
H484 H 0.69576 0.24083 0.7733 0.0
H485 H 0.64625 0.23554 0.74518 0.0
H486 H 0.60117 0.14532 0.84138 0.0
H487 H 0.65072 0.15057 0.86989 0.0
H488 H 0.57074 0.16381 0.76925 0.0
H489 H 0.60257 0.2328 0.79855 0.0
H490 H 0.56378 0.24848 0.82232 0.0
H491 H 0.51861 0.24933 0.7779 0.0
C492 C 0.4579 0.67758 0.95579 0.0
C493 C 0.47333 0.67976 0.02172 0.0
C494 C 0.43193 0.65016 0.93612 0.0
C495 C 0.42083 0.62437 0.98217 0.0
C496 C 0.43644 0.62645 0.04742 0.0
C497 C 0.46253 0.65371 0.06672 0.0
C498 C 0.3921 0.59565 0.96598 0.0
C499 C 0.38225 0.58624 0.89711 0.0
C500 C 0.35294 0.55823 0.8803 0.0
C501 C 0.34999 0.54345 0.81305 0.0
C502 C 0.32213 0.51849 0.79236 0.0
C503 C 0.29631 0.50799 0.83802 0.0
H504 H 0.32871 0.55854 0.97885 0.0
C505 C 0.29941 0.52239 0.90626 0.0
C506 C 0.32745 0.54727 0.92726 0.0
H507 H 0.28 0.51501 0.94261 0.0
H508 H 0.46547 0.69722 0.92007 0.0
H509 H 0.42003 0.64961 0.88623 0.0
H510 H 0.42825 0.60698 0.084 0.0
H511 H 0.47369 0.65454 0.11817 0.0
H512 H 0.37931 0.58139 0.01228 0.0
H513 H 0.39661 0.59897 0.85087 0.0
H514 H 0.36922 0.55151 0.77581 0.0
H515 H 0.32069 0.50807 0.73931 0.0
C516 C 0.76595 0.45488 0.10767 0.0
C517 C 0.78876 0.47787 0.15133 0.0
C518 C 0.76893 0.43028 0.08334 0.0
C519 C 0.79492 0.4284 0.10168 0.0
C520 C 0.81847 0.45221 0.14162 0.0
C521 C 0.81529 0.47658 0.16701 0.0
C522 C 0.79788 0.40179 0.07982 0.0
C523 C 0.77382 0.37322 0.07975 0.0
C524 C 0.77574 0.34606 0.05684 0.0
C525 C 0.75365 0.31714 0.08249 0.0
C526 C 0.75313 0.29077 0.05703 0.0
C527 C 0.77445 0.29284 0.00442 0.0
H528 H 0.81469 0.37001 0.98374 0.0
C529 C 0.79709 0.32189 0.98033 0.0
C530 C 0.79773 0.34822 0.00613 0.0
H531 H 0.81387 0.32431 0.93978 0.0
H532 H 0.74529 0.45528 0.0945 0.0
H533 H 0.7508 0.41266 0.05061 0.0
H534 H 0.83889 0.45143 0.15541 0.0
H535 H 0.8334 0.49413 0.19998 0.0
H536 H 0.82061 0.4057 0.06815 0.0
H537 H 0.75183 0.36937 0.09906 0.0
H538 H 0.73639 0.31488 0.12135 0.0
H539 H 0.73529 0.26876 0.07646 0.0
C540 C 0.45701 0.76058 0.24834 0.0
C541 C 0.47959 0.78253 0.20221 0.0
C542 C 0.43351 0.76488 0.2749 0.0
C543 C 0.43249 0.7914 0.25646 0.0
C544 C 0.45604 0.8141 0.21413 0.0
C545 C 0.47919 0.80957 0.18645 0.0
C546 C 0.40677 0.79561 0.27908 0.0
C547 C 0.37784 0.77229 0.27908 0.0
C548 C 0.35135 0.7761 0.29673 0.0
C549 C 0.32279 0.75542 0.26692 0.0
C550 C 0.29702 0.75741 0.28496 0.0
C551 C 0.29925 0.77991 0.33424 0.0
H552 H 0.37526 0.81494 0.37021 0.0
C553 C 0.32797 0.80091 0.36325 0.0
C554 C 0.35376 0.79903 0.34478 0.0
H555 H 0.33049 0.81844 0.40165 0.0
H556 H 0.45684 0.73958 0.26155 0.0
H557 H 0.416 0.74735 0.30917 0.0
H558 H 0.45587 0.83486 0.20004 0.0
H559 H 0.49654 0.82704 0.1517 0.0
H560 H 0.4115 0.81878 0.28907 0.0
H561 H 0.37316 0.74979 0.26131 0.0
H562 H 0.32035 0.73748 0.22997 0.0
H563 H 0.27523 0.74072 0.26202 0.0
loop_
_geom_bond_atom_site_label_1
_geom_bond_atom_site_label_2
_geom_bond_distance
_geom_bond_site_symmetry_2
_ccdc_geom_bond_type
Sc0 O3 2.025 . S
Sc0 O10 2.105 . S
Sc0 O13 2.105 . S
Sc0 O16 2.105 . S
Sc0 O19 2.105 . S
Sc1 O3 2.025 . S
Sc1 O11 2.105 . S
Sc1 O15 2.105 . S
Sc1 O17 2.105 . S
Sc1 O21 2.105 . S
Sc2 O3 2.025 . S
Sc2 O12 2.105 . S
Sc2 O14 2.105 . S
Sc2 O18 2.105 . S
Sc2 O20 2.105 . S
O3 Sc0 2.025 . S
O3 Sc1 2.025 . S
O3 Sc2 2.025 . S
C4 O10 1.268 . S
C4 O20 1.268 . S
C5 O11 1.268 . S
C5 O19 1.268 . S
C6 O12 1.268 . S
C6 O21 1.268 . S
C7 O13 1.268 . S
C7 O17 1.268 . S
C8 O14 1.268 . S
C8 O16 1.268 . S
C9 O15 1.268 . S
C9 O18 1.268 . S
O10 Sc0 2.105 . S
O10 C4 1.268 . S
O11 Sc1 2.105 . S
O11 C5 1.268 . S
O12 Sc2 2.105 . S
O12 C6 1.268 . S
O13 Sc0 2.105 . S
O13 C7 1.268 . S
O14 Sc2 2.105 . S
O14 C8 1.268 . S
O15 Sc1 2.105 . S
O15 C9 1.268 . S
O16 Sc0 2.105 . S
O16 C8 1.268 . S
O17 Sc1 2.105 . S
O17 C7 1.268 . S
O18 Sc2 2.105 . S
O18 C9 1.268 . S
O19 Sc0 2.105 . S
O19 C5 1.268 . S
O20 Sc2 2.105 . S
O20 C4 1.268 . S
O21 Sc1 2.105 . S
O21 C6 1.268 . S
Sc22 O25 2.025 . S
Sc22 O32 2.105 . S
Sc22 O35 2.105 . S
Sc22 O38 2.105 . S
Sc22 O41 2.105 . S
Sc23 O25 2.025 . S
Sc23 O33 2.105 . S
Sc23 O37 2.105 . S
Sc23 O39 2.105 . S
Sc23 O43 2.105 . S
Sc24 O25 2.025 . S
Sc24 O34 2.105 . S
Sc24 O36 2.105 . S
Sc24 O40 2.105 . S
Sc24 O42 2.105 . S
O25 Sc22 2.025 . S
O25 Sc23 2.025 . S
O25 Sc24 2.025 . S
C26 O32 1.268 . S
C26 O42 1.268 . S
C27 O33 1.268 . S
C27 O41 1.268 . S
C28 O34 1.268 . S
C28 O43 1.268 . S
C29 O35 1.268 . S
C29 O39 1.268 . S
C30 O36 1.268 . S
C30 O38 1.268 . S
C31 O37 1.268 . S
C31 O40 1.268 . S
O32 Sc22 2.105 . S
O32 C26 1.268 . S
O33 Sc23 2.105 . S
O33 C27 1.268 . S
O34 Sc24 2.105 . S
O34 C28 1.268 . S
O35 Sc22 2.105 . S
O35 C29 1.268 . S
O36 Sc24 2.105 . S
O36 C30 1.268 . S
O37 Sc23 2.105 . S
O37 C31 1.268 . S
O38 Sc22 2.105 . S
O38 C30 1.268 . S
O39 Sc23 2.105 . S
O39 C29 1.268 . S
O40 Sc24 2.105 . S
O40 C31 1.268 . S
O41 Sc22 2.105 . S
O41 C27 1.268 . S
O42 Sc24 2.105 . S
O42 C26 1.268 . S
O43 Sc23 2.105 . S
O43 C28 1.268 . S
Sc44 O47 2.025 . S
Sc44 O54 2.105 . S
Sc44 O57 2.105 . S
Sc44 O60 2.105 . S
Sc44 O63 2.105 . S
Sc45 O47 2.025 . S
Sc45 O55 2.105 . S
Sc45 O59 2.105 . S
Sc45 O61 2.105 . S
Sc45 O65 2.105 1_556 S
Sc46 O47 2.025 . S
Sc46 O56 2.105 1_556 S
Sc46 O58 2.105 . S
Sc46 O62 2.105 . S
Sc46 O64 2.105 1_556 S
O47 Sc44 2.025 . S
O47 Sc45 2.025 . S
O47 Sc46 2.025 . S
C48 O54 1.268 . S
C48 O64 1.268 1_556 S
C49 O55 1.268 . S
C49 O63 1.268 . S
C50 O56 1.268 . S
C50 O65 1.268 . S
C51 O57 1.268 . S
C51 O61 1.268 . S
C52 O58 1.268 . S
C52 O60 1.268 . S
C53 O59 1.268 . S
C53 O62 1.268 . S
O54 Sc44 2.105 . S
O54 C48 1.268 . S
O55 Sc45 2.105 . S
O55 C49 1.268 . S
O56 Sc46 2.105 1_554 S
O56 C50 1.268 . S
O57 Sc44 2.105 . S
O57 C51 1.268 . S
O58 Sc46 2.105 . S
O58 C52 1.268 . S
O59 Sc45 2.105 . S
O59 C53 1.268 . S
O60 Sc44 2.105 . S
O60 C52 1.268 . S
O61 Sc45 2.105 . S
O61 C51 1.268 . S
O62 Sc46 2.105 . S
O62 C53 1.268 . S
O63 Sc44 2.105 . S
O63 C49 1.268 . S
O64 Sc46 2.105 1_554 S
O64 C48 1.268 1_554 S
O65 Sc45 2.105 1_554 S
O65 C50 1.268 . S
Sc66 O69 2.025 . S
Sc66 O76 2.105 . S
Sc66 O79 2.105 1_554 S
Sc66 O82 2.105 1_554 S
Sc66 O85 2.105 . S
Sc67 O69 2.025 . S
Sc67 O77 2.105 . S
Sc67 O81 2.105 . S
Sc67 O83 2.105 1_554 S
Sc67 O87 2.105 . S
Sc68 O69 2.025 . S
Sc68 O78 2.105 . S
Sc68 O80 2.105 . S
Sc68 O84 2.105 . S
Sc68 O86 2.105 . S
O69 Sc66 2.025 . S
O69 Sc67 2.025 . S
O69 Sc68 2.025 . S
C70 O76 1.268 . S
C70 O86 1.268 . S
C71 O77 1.268 . S
C71 O85 1.268 . S
C72 O78 1.268 . S
C72 O87 1.268 . S
C73 O79 1.268 . S
C73 O83 1.268 . S
C74 O80 1.268 . S
C74 O82 1.268 1_554 S
C75 O81 1.268 . S
C75 O84 1.268 . S
O76 Sc66 2.105 . S
O76 C70 1.268 . S
O77 Sc67 2.105 . S
O77 C71 1.268 . S
O78 Sc68 2.105 . S
O78 C72 1.268 . S
O79 Sc66 2.105 1_556 S
O79 C73 1.268 . S
O80 Sc68 2.105 . S
O80 C74 1.268 . S
O81 Sc67 2.105 . S
O81 C75 1.268 . S
O82 Sc66 2.105 1_556 S
O82 C74 1.268 1_556 S
O83 Sc67 2.105 1_556 S
O83 C73 1.268 . S
O84 Sc68 2.105 . S
O84 C75 1.268 . S
O85 Sc66 2.105 . S
O85 C71 1.268 . S
O86 Sc68 2.105 . S
O86 C70 1.268 . S
O87 Sc67 2.105 . S
O87 C72 1.268 . S
Sc88 O91 2.025 . S
Sc88 O98 2.105 . S
Sc88 O101 2.105 . S
Sc88 O104 2.105 . S
Sc88 O107 2.105 . S
Sc89 O91 2.025 . S
Sc89 O99 2.105 . S
Sc89 O103 2.105 . S
Sc89 O105 2.105 . S
Sc89 O109 2.105 . S
Sc90 O91 2.025 . S
Sc90 O100 2.105 . S
Sc90 O102 2.105 . S
Sc90 O106 2.105 . S
Sc90 O108 2.105 . S
O91 Sc88 2.025 . S
O91 Sc89 2.025 . S
O91 Sc90 2.025 . S
C92 O98 1.268 . S
C92 O108 1.268 . S
C93 O99 1.268 . S
C93 O107 1.268 . S
C94 O100 1.268 . S
C94 O109 1.268 . S
C95 O101 1.268 . S
C95 O105 1.268 . S
C96 O102 1.268 . S
C96 O104 1.268 . S
C97 O103 1.268 . S
C97 O106 1.268 . S
O98 Sc88 2.105 . S
O98 C92 1.268 . S
O99 Sc89 2.105 . S
O99 C93 1.268 . S
O100 Sc90 2.105 . S
O100 C94 1.268 . S
O101 Sc88 2.105 . S
O101 C95 1.268 . S
O102 Sc90 2.105 . S
O102 C96 1.268 . S
O103 Sc89 2.105 . S
O103 C97 1.268 . S
O104 Sc88 2.105 . S
O104 C96 1.268 . S
O105 Sc89 2.105 . S
O105 C95 1.268 . S
O106 Sc90 2.105 . S
O106 C97 1.268 . S
O107 Sc88 2.105 . S
O107 C93 1.268 . S
O108 Sc90 2.105 . S
O108 C92 1.268 . S
O109 Sc89 2.105 . S
O109 C94 1.268 . S
Sc110 O113 2.025 . S
Sc110 O120 2.105 . S
Sc110 O123 2.105 . S
Sc110 O126 2.105 . S
Sc110 O129 2.105 . S
Sc111 O113 2.025 . S
Sc111 O121 2.105 . S
Sc111 O125 2.105 . S
Sc111 O127 2.105 . S
Sc111 O131 2.105 . S
Sc112 O113 2.025 . S
Sc112 O122 2.105 . S
Sc112 O124 2.105 . S
Sc112 O128 2.105 . S
Sc112 O130 2.105 . S
O113 Sc110 2.025 . S
O113 Sc111 2.025 . S
O113 Sc112 2.025 . S
C114 O120 1.268 . S
C114 O130 1.268 . S
C115 O121 1.268 . S
C115 O129 1.268 . S
C116 O122 1.268 . S
C116 O131 1.268 . S
C117 O123 1.268 . S
C117 O127 1.268 . S
C118 O124 1.268 . S
C118 O126 1.268 . S
C119 O125 1.268 . S
C119 O128 1.268 . S
O120 Sc110 2.105 . S
O120 C114 1.268 . S
O121 Sc111 2.105 . S
O121 C115 1.268 . S
O122 Sc112 2.105 . S
O122 C116 1.268 . S
O123 Sc110 2.105 . S
O123 C117 1.268 . S
O124 Sc112 2.105 . S
O124 C118 1.268 . S
O125 Sc111 2.105 . S
O125 C119 1.268 . S
O126 Sc110 2.105 . S
O126 C118 1.268 . S
O127 Sc111 2.105 . S
O127 C117 1.268 . S
O128 Sc112 2.105 . S
O128 C119 1.268 . S
O129 Sc110 2.105 . S
O129 C115 1.268 . S
O130 Sc112 2.105 . S
O130 C114 1.268 . S
O131 Sc111 2.105 . S
O131 C116 1.268 . S
C132 C133 1.386 . S
C132 C134 1.383 . S
C132 H148 0.951 . S
C133 C132 1.386 . S
C133 C137 1.383 . S
C134 C132 1.383 . S
C134 C135 1.402 . S
C134 H149 0.951 . S
C135 C134 1.402 . S
C135 C136 1.375 . S
C135 C138 1.481 . S
C136 C135 1.375 . S
C136 C137 1.367 . S
C136 H150 0.951 . S
C137 C133 1.383 . S
C137 C136 1.367 . S
C137 H151 0.950 . S
C138 C135 1.481 . S
C138 C139 1.297 . S
C138 H152 0.950 . S
C139 C138 1.297 . S
C139 C140 1.479 1_554 S
C139 H153 0.950 . S
C140 C139 1.479 1_556 S
C140 C141 1.375 . S
C140 C146 1.404 . S
C141 C140 1.375 . S
C141 C142 1.369 . S
C141 H154 0.950 . S
C142 C141 1.369 . S
C142 C143 1.392 . S
C142 H155 0.951 . S
C143 C142 1.392 . S
C143 C145 1.384 . S
H144 C146 0.949 . S
C145 C143 1.384 . S
C145 C146 1.385 . S
C145 H147 0.950 . S
C146 C140 1.404 . S
C146 H144 0.949 . S
C146 C145 1.385 . S
H147 C145 0.950 . S
H148 C132 0.951 . S
H149 C134 0.951 . S
H150 C136 0.951 . S
H151 C137 0.950 . S
H152 C138 0.950 . S
H153 C139 0.950 . S
H154 C141 0.950 . S
H155 C142 0.951 . S
C156 C157 1.386 . S
C156 C158 1.383 . S
C156 H172 0.951 . S
C157 C156 1.386 . S
C157 C161 1.383 . S
C158 C156 1.383 . S
C158 C159 1.402 . S
C158 H173 0.951 . S
C159 C158 1.402 . S
C159 C160 1.375 . S
C159 C162 1.481 . S
C160 C159 1.375 . S
C160 C161 1.367 . S
C160 H174 0.951 . S
C161 C157 1.383 . S
C161 C160 1.367 . S
C161 H175 0.950 . S
C162 C159 1.481 . S
C162 C163 1.297 . S
C162 H176 0.950 . S
C163 C162 1.297 . S
C163 C164 1.479 . S
C163 H177 0.950 . S
C164 C163 1.479 . S
C164 C165 1.375 . S
C164 C170 1.404 . S
C165 C164 1.375 . S
C165 C166 1.369 . S
C165 H178 0.950 . S
C166 C165 1.369 . S
C166 C167 1.392 1_554 S
C166 H179 0.951 . S
C167 C166 1.392 1_556 S
C167 C169 1.384 1_556 S
H168 C170 0.949 . S
C169 C167 1.384 1_554 S
C169 C170 1.385 . S
C169 H171 0.950 . S
C170 C164 1.404 . S
C170 H168 0.949 . S
C170 C169 1.385 . S
H171 C169 0.950 . S
H172 C156 0.951 . S
H173 C158 0.951 . S
H174 C160 0.951 . S
H175 C161 0.950 . S
H176 C162 0.950 . S
H177 C163 0.950 . S
H178 C165 0.950 . S
H179 C166 0.951 . S
C180 C181 1.386 . S
C180 C182 1.383 . S
C180 H196 0.951 . S
C181 C180 1.386 . S
C181 C185 1.383 . S
C182 C180 1.383 . S
C182 C183 1.402 . S
C182 H197 0.951 . S
C183 C182 1.402 . S
C183 C184 1.375 . S
C183 C186 1.481 . S
C184 C183 1.375 . S
C184 C185 1.367 . S
C184 H198 0.951 . S
C185 C181 1.383 . S
C185 C184 1.367 . S
C185 H199 0.950 . S
C186 C183 1.481 . S
C186 C187 1.297 . S
C186 H200 0.950 . S
C187 C186 1.297 . S
C187 C188 1.479 . S
C187 H201 0.950 . S
C188 C187 1.479 . S
C188 C189 1.375 . S
C188 C194 1.404 . S
C189 C188 1.375 . S
C189 C190 1.369 . S
C189 H202 0.950 . S
C190 C189 1.369 . S
C190 C191 1.392 . S
C190 H203 0.951 . S
C191 C190 1.392 . S
C191 C193 1.384 . S
H192 C194 0.949 . S
C193 C191 1.384 . S
C193 C194 1.385 . S
C193 H195 0.950 . S
C194 C188 1.404 . S
C194 H192 0.949 . S
C194 C193 1.385 . S
H195 C193 0.950 . S
H196 C180 0.951 . S
H197 C182 0.951 . S
H198 C184 0.951 . S
H199 C185 0.950 . S
H200 C186 0.950 . S
H201 C187 0.950 . S
H202 C189 0.950 . S
H203 C190 0.951 . S
C204 C205 1.386 . S
C204 C206 1.383 . S
C204 H220 0.951 . S
C205 C204 1.386 . S
C205 C209 1.383 . S
C206 C204 1.383 . S
C206 C207 1.402 . S
C206 H221 0.951 . S
C207 C206 1.402 . S
C207 C208 1.375 . S
C207 C210 1.481 . S
C208 C207 1.375 . S
C208 C209 1.367 . S
C208 H222 0.951 . S
C209 C205 1.383 . S
C209 C208 1.367 . S
C209 H223 0.950 . S
C210 C207 1.481 . S
C210 C211 1.297 . S
C210 H224 0.950 . S
C211 C210 1.297 . S
C211 C212 1.479 . S
C211 H225 0.950 . S
C212 C211 1.479 . S
C212 C213 1.375 . S
C212 C218 1.404 . S
C213 C212 1.375 . S
C213 C214 1.369 . S
C213 H226 0.950 . S
C214 C213 1.369 . S
C214 C215 1.392 . S
C214 H227 0.951 . S
C215 C214 1.392 . S
C215 C217 1.384 . S
H216 C218 0.949 . S
C217 C215 1.384 . S
C217 C218 1.385 . S
C217 H219 0.950 . S
C218 C212 1.404 . S
C218 H216 0.949 . S
C218 C217 1.385 . S
H219 C217 0.950 . S
H220 C204 0.951 . S
H221 C206 0.951 . S
H222 C208 0.951 . S
H223 C209 0.950 . S
H224 C210 0.950 . S
H225 C211 0.950 . S
H226 C213 0.950 . S
H227 C214 0.951 . S
C228 C229 1.386 . S
C228 C230 1.383 . S
C228 H244 0.951 . S
C229 C228 1.386 . S
C229 C233 1.383 . S
C230 C228 1.383 . S
C230 C231 1.402 . S
C230 H245 0.951 . S
C231 C230 1.402 . S
C231 C232 1.375 . S
C231 C234 1.481 . S
C232 C231 1.375 . S
C232 C233 1.367 . S
C232 H246 0.951 . S
C233 C229 1.383 . S
C233 C232 1.367 . S
C233 H247 0.950 . S
C234 C231 1.481 . S
C234 C235 1.297 . S
C234 H248 0.950 . S
C235 C234 1.297 . S
C235 C236 1.479 . S
C235 H249 0.950 . S
C236 C235 1.479 . S
C236 C237 1.375 . S
C236 C242 1.404 . S
C237 C236 1.375 . S
C237 C238 1.369 . S
C237 H250 0.950 . S
C238 C237 1.369 . S
C238 C239 1.392 1_556 S
C238 H251 0.951 1_556 S
C239 C238 1.392 1_554 S
C239 C241 1.384 1_554 S
H240 C242 0.949 . S
C241 C239 1.384 1_556 S
C241 C242 1.385 . S
C241 H243 0.950 . S
C242 C236 1.404 . S
C242 H240 0.949 . S
C242 C241 1.385 . S
H243 C241 0.950 . S
H244 C228 0.951 . S
H245 C230 0.951 . S
H246 C232 0.951 . S
H247 C233 0.950 . S
H248 C234 0.950 . S
H249 C235 0.950 . S
H250 C237 0.950 . S
H251 C238 0.951 1_554 S
C252 C253 1.386 . S
C252 C254 1.383 . S
C252 H268 0.951 . S
C253 C252 1.386 . S
C253 C257 1.383 . S
C254 C252 1.383 . S
C254 C255 1.402 . S
C254 H269 0.951 . S
C255 C254 1.402 . S
C255 C256 1.375 . S
C255 C258 1.481 1_554 S
C256 C255 1.375 . S
C256 C257 1.367 . S
C256 H270 0.951 . S
C257 C253 1.383 . S
C257 C256 1.367 . S
C257 H271 0.950 . S
C258 C255 1.481 1_556 S
C258 C259 1.297 . S
C258 H272 0.950 . S
C259 C258 1.297 . S
C259 C260 1.479 . S
C259 H273 0.950 . S
C260 C259 1.479 . S
C260 C261 1.375 . S
C260 C266 1.404 . S
C261 C260 1.375 . S
C261 C262 1.369 . S
C261 H274 0.950 . S
C262 C261 1.369 . S
C262 C263 1.392 . S
C262 H275 0.951 . S
C263 C262 1.392 . S
C263 C265 1.384 . S
H264 C266 0.949 . S
C265 C263 1.384 . S
C265 C266 1.385 . S
C265 H267 0.950 . S
C266 C260 1.404 . S
C266 H264 0.949 . S
C266 C265 1.385 . S
H267 C265 0.950 . S
H268 C252 0.951 . S
H269 C254 0.951 . S
H270 C256 0.951 . S
H271 C257 0.950 . S
H272 C258 0.950 . S
H273 C259 0.950 . S
H274 C261 0.950 . S
H275 C262 0.951 . S
C276 C277 1.386 . S
C276 C278 1.383 . S
C276 H292 0.951 . S
C277 C276 1.386 . S
C277 C281 1.383 . S
C278 C276 1.383 . S
C278 C279 1.402 . S
C278 H293 0.951 . S
C279 C278 1.402 . S
C279 C280 1.375 . S
C279 C282 1.481 . S
C280 C279 1.375 . S
C280 C281 1.367 . S
C280 H294 0.951 . S
C281 C277 1.383 . S
C281 C280 1.367 . S
C281 H295 0.950 . S
C282 C279 1.481 . S
C282 C283 1.297 1_545 S
C282 H296 0.950 1_545 S
C283 C282 1.297 1_565 S
C283 C284 1.479 . S
C283 H297 0.950 1_565 S
C284 C283 1.479 . S
C284 C285 1.375 . S
C284 C290 1.404 . S
C285 C284 1.375 . S
C285 C286 1.369 . S
C285 H298 0.950 . S
C286 C285 1.369 . S
C286 C287 1.392 . S
C286 H299 0.951 . S
C287 C286 1.392 . S
C287 C289 1.384 . S
H288 C290 0.949 . S
C289 C287 1.384 . S
C289 C290 1.385 . S
C289 H291 0.950 . S
C290 C284 1.404 . S
C290 H288 0.949 . S
C290 C289 1.385 . S
H291 C289 0.950 . S
H292 C276 0.951 . S
H293 C278 0.951 . S
H294 C280 0.951 . S
H295 C281 0.950 . S
H296 C282 0.950 1_565 S
H297 C283 0.950 1_545 S
H298 C285 0.950 . S
H299 C286 0.951 . S
C300 C301 1.386 . S
C300 C302 1.383 . S
C300 H316 0.951 . S
C301 C300 1.386 . S
C301 C305 1.383 . S
C302 C300 1.383 . S
C302 C303 1.402 . S
C302 H317 0.951 . S
C303 C302 1.402 . S
C303 C304 1.375 . S
C303 C306 1.481 . S
C304 C303 1.375 . S
C304 C305 1.367 . S
C304 H318 0.951 . S
C305 C301 1.383 . S
C305 C304 1.367 . S
C305 H319 0.950 . S
C306 C303 1.481 . S
C306 C307 1.297 . S
C306 H320 0.950 . S
C307 C306 1.297 . S
C307 C308 1.479 . S
C307 H321 0.950 . S
C308 C307 1.479 . S
C308 C309 1.375 . S
C308 C314 1.404 . S
C309 C308 1.375 . S
C309 C310 1.369 . S
C309 H322 0.950 . S
C310 C309 1.369 . S
C310 C311 1.392 . S
C310 H323 0.951 . S
C311 C310 1.392 . S
C311 C313 1.384 . S
H312 C314 0.949 . S
C313 C311 1.384 . S
C313 C314 1.385 . S
C313 H315 0.950 . S
C314 C308 1.404 . S
C314 H312 0.949 . S
C314 C313 1.385 . S
H315 C313 0.950 . S
H316 C300 0.951 . S
H317 C302 0.951 . S
H318 C304 0.951 . S
H319 C305 0.950 . S
H320 C306 0.950 . S
H321 C307 0.950 . S
H322 C309 0.950 . S
H323 C310 0.951 . S
C324 C325 1.386 . S
C324 C326 1.383 . S
C324 H340 0.951 . S
C325 C324 1.386 . S
C325 C329 1.383 . S
C326 C324 1.383 . S
C326 C327 1.402 . S
C326 H341 0.951 . S
C327 C326 1.402 . S
C327 C328 1.375 . S
C327 C330 1.481 . S
C328 C327 1.375 . S
C328 C329 1.367 . S
C328 H342 0.951 . S
C329 C325 1.383 . S
C329 C328 1.367 . S
C329 H343 0.950 . S
C330 C327 1.481 . S
C330 C331 1.297 1_655 S
C330 H344 0.950 . S
C331 C330 1.297 1_455 S
C331 C332 1.479 . S
C331 H345 0.950 . S
C332 C331 1.479 . S
C332 C333 1.375 . S
C332 C338 1.404 . S
C333 C332 1.375 . S
C333 C334 1.369 . S
C333 H346 0.950 . S
C334 C333 1.369 . S
C334 C335 1.392 . S
C334 H347 0.951 . S
C335 C334 1.392 . S
C335 C337 1.384 . S
H336 C338 0.949 . S
C337 C335 1.384 . S
C337 C338 1.385 . S
C337 H339 0.950 . S
C338 C332 1.404 . S
C338 H336 0.949 . S
C338 C337 1.385 . S
H339 C337 0.950 . S
H340 C324 0.951 . S
H341 C326 0.951 . S
H342 C328 0.951 . S
H343 C329 0.950 . S
H344 C330 0.950 . S
H345 C331 0.950 . S
H346 C333 0.950 . S
H347 C334 0.951 . S
C348 C349 1.386 . S
C348 C350 1.383 . S
C348 H364 0.951 . S
C349 C348 1.386 . S
C349 C353 1.383 . S
C350 C348 1.383 . S
C350 C351 1.402 . S
C350 H365 0.951 . S
C351 C350 1.402 . S
C351 C352 1.375 . S
C351 C354 1.481 1_554 S
C352 C351 1.375 . S
C352 C353 1.367 . S
C352 H366 0.951 . S
C353 C349 1.383 . S
C353 C352 1.367 . S
C353 H367 0.950 . S
C354 C351 1.481 1_556 S
C354 C355 1.297 1_565 S
C354 H368 0.950 . S
C355 C354 1.297 1_545 S
C355 C356 1.479 . S
C355 H369 0.950 1_545 S
C356 C355 1.479 . S
C356 C357 1.375 . S
C356 C362 1.404 . S
C357 C356 1.375 . S
C357 C358 1.369 . S
C357 H370 0.950 . S
C358 C357 1.369 . S
C358 C359 1.392 . S
C358 H371 0.951 . S
C359 C358 1.392 . S
C359 C361 1.384 . S
H360 C362 0.949 . S
C361 C359 1.384 . S
C361 C362 1.385 . S
C361 H363 0.950 . S
C362 C356 1.404 . S
C362 H360 0.949 . S
C362 C361 1.385 . S
H363 C361 0.950 . S
H364 C348 0.951 . S
H365 C350 0.951 . S
H366 C352 0.951 . S
H367 C353 0.950 . S
H368 C354 0.950 . S
H369 C355 0.950 1_565 S
H370 C357 0.950 . S
H371 C358 0.951 . S
C372 C373 1.386 . S
C372 C374 1.383 . S
C372 H388 0.951 . S
C373 C372 1.386 . S
C373 C377 1.383 . S
C374 C372 1.383 . S
C374 C375 1.402 . S
C374 H389 0.951 . S
C375 C374 1.402 . S
C375 C376 1.375 . S
C375 C378 1.481 . S
C376 C375 1.375 . S
C376 C377 1.367 . S
C376 H390 0.951 . S
C377 C373 1.383 . S
C377 C376 1.367 . S
C377 H391 0.950 . S
C378 C375 1.481 . S
C378 C379 1.297 . S
C378 H392 0.950 . S
C379 C378 1.297 . S
C379 C380 1.479 . S
C379 H393 0.950 . S
C380 C379 1.479 . S
C380 C381 1.375 . S
C380 C386 1.404 . S
C381 C380 1.375 . S
C381 C382 1.369 . S
C381 H394 0.950 . S
C382 C381 1.369 . S
C382 C383 1.392 . S
C382 H395 0.951 . S
C383 C382 1.392 . S
C383 C385 1.384 . S
H384 C386 0.949 . S
C385 C383 1.384 . S
C385 C386 1.385 . S
C385 H387 0.950 . S
C386 C380 1.404 . S
C386 H384 0.949 . S
C386 C385 1.385 . S
H387 C385 0.950 . S
H388 C372 0.951 . S
H389 C374 0.951 . S
H390 C376 0.951 . S
H391 C377 0.950 . S
H392 C378 0.950 . S
H393 C379 0.950 . S
H394 C381 0.950 . S
H395 C382 0.951 . S
C396 C397 1.386 . S
C396 C398 1.383 . S
C396 H412 0.951 . S
C397 C396 1.386 . S
C397 C401 1.383 . S
C398 C396 1.383 . S
C398 C399 1.402 . S
C398 H413 0.951 . S
C399 C398 1.402 . S
C399 C400 1.375 . S
C399 C402 1.481 . S
C400 C399 1.375 . S
C400 C401 1.367 . S
C400 H414 0.951 . S
C401 C397 1.383 . S
C401 C400 1.367 . S
C401 H415 0.950 . S
C402 C399 1.481 . S
C402 C403 1.297 1_655 S
C402 H416 0.950 . S
C403 C402 1.297 1_455 S
C403 C404 1.479 . S
C403 H417 0.950 . S
C404 C403 1.479 . S
C404 C405 1.375 . S
C404 C410 1.404 . S
C405 C404 1.375 . S
C405 C406 1.369 . S
C405 H418 0.950 . S
C406 C405 1.369 . S
C406 C407 1.392 . S
C406 H419 0.951 . S
C407 C406 1.392 . S
C407 C409 1.384 . S
H408 C410 0.949 . S
C409 C407 1.384 . S
C409 C410 1.385 . S
C409 H411 0.950 . S
C410 C404 1.404 . S
C410 H408 0.949 . S
C410 C409 1.385 . S
H411 C409 0.950 . S
H412 C396 0.951 . S
H413 C398 0.951 . S
H414 C400 0.951 . S
H415 C401 0.950 . S
H416 C402 0.950 . S
H417 C403 0.950 . S
H418 C405 0.950 . S
H419 C406 0.951 . S
C420 C421 1.386 . S
C420 C422 1.383 . S
C420 H436 0.951 . S
C421 C420 1.386 . S
C421 C425 1.383 . S
C422 C420 1.383 . S
C422 C423 1.402 . S
C422 H437 0.951 . S
C423 C422 1.402 . S
C423 C424 1.375 . S
C423 C426 1.481 . S
C424 C423 1.375 . S
C424 C425 1.367 . S
C424 H438 0.951 . S
C425 C421 1.383 . S
C425 C424 1.367 . S
C425 H439 0.950 . S
C426 C423 1.481 . S
C426 C427 1.297 . S
C426 H440 0.950 . S
C427 C426 1.297 . S
C427 C428 1.479 . S
C427 H441 0.950 . S
C428 C427 1.479 . S
C428 C429 1.375 . S
C428 C434 1.404 . S
C429 C428 1.375 . S
C429 C430 1.369 . S
C429 H442 0.950 . S
C430 C429 1.369 . S
C430 C431 1.392 . S
C430 H443 0.951 . S
C431 C430 1.392 . S
C431 C433 1.384 . S
H432 C434 0.949 . S
C433 C431 1.384 . S
C433 C434 1.385 . S
C433 H435 0.950 . S
C434 C428 1.404 . S
C434 H432 0.949 . S
C434 C433 1.385 . S
H435 C433 0.950 . S
H436 C420 0.951 . S
H437 C422 0.951 . S
H438 C424 0.951 . S
H439 C425 0.950 . S
H440 C426 0.950 . S
H441 C427 0.950 . S
H442 C429 0.950 . S
H443 C430 0.951 . S
C444 C445 1.386 . S
C444 C446 1.383 . S
C444 H460 0.951 . S
C445 C444 1.386 . S
C445 C449 1.383 . S
C446 C444 1.383 . S
C446 C447 1.402 . S
C446 H461 0.951 . S
C447 C446 1.402 . S
C447 C448 1.375 . S
C447 C450 1.481 . S
C448 C447 1.375 . S
C448 C449 1.367 . S
C448 H462 0.951 . S
C449 C445 1.383 . S
C449 C448 1.367 . S
C449 H463 0.950 . S
C450 C447 1.481 . S
C450 C451 1.297 . S
C450 H464 0.950 . S
C451 C450 1.297 . S
C451 C452 1.479 . S
C451 H465 0.950 . S
C452 C451 1.479 . S
C452 C453 1.375 . S
C452 C458 1.404 . S
C453 C452 1.375 . S
C453 C454 1.369 . S
C453 H466 0.950 . S
C454 C453 1.369 . S
C454 C455 1.392 . S
C454 H467 0.951 . S
C455 C454 1.392 . S
C455 C457 1.384 . S
H456 C458 0.949 . S
C457 C455 1.384 . S
C457 C458 1.385 . S
C457 H459 0.950 . S
C458 C452 1.404 . S
C458 H456 0.949 . S
C458 C457 1.385 . S
H459 C457 0.950 . S
H460 C444 0.951 . S
H461 C446 0.951 . S
H462 C448 0.951 . S
H463 C449 0.950 . S
H464 C450 0.950 . S
H465 C451 0.950 . S
H466 C453 0.950 . S
H467 C454 0.951 . S
C468 C469 1.386 . S
C468 C470 1.383 . S
C468 H484 0.951 . S
C469 C468 1.386 . S
C469 C473 1.383 . S
C470 C468 1.383 . S
C470 C471 1.402 . S
C470 H485 0.951 . S
C471 C470 1.402 . S
C471 C472 1.375 . S
C471 C474 1.481 . S
C472 C471 1.375 . S
C472 C473 1.367 . S
C472 H486 0.951 . S
C473 C469 1.383 . S
C473 C472 1.367 . S
C473 H487 0.950 . S
C474 C471 1.481 . S
C474 C475 1.297 . S
C474 H488 0.950 . S
C475 C474 1.297 . S
C475 C476 1.479 . S
C475 H489 0.950 . S
C476 C475 1.479 . S
C476 C477 1.375 . S
C476 C482 1.404 . S
C477 C476 1.375 . S
C477 C478 1.369 . S
C477 H490 0.950 . S
C478 C477 1.369 . S
C478 C479 1.392 . S
C478 H491 0.951 . S
C479 C478 1.392 . S
C479 C481 1.384 . S
H480 C482 0.949 . S
C481 C479 1.384 . S
C481 C482 1.385 . S
C481 H483 0.950 . S
C482 C476 1.404 . S
C482 H480 0.949 . S
C482 C481 1.385 . S
H483 C481 0.950 . S
H484 C468 0.951 . S
H485 C470 0.951 . S
H486 C472 0.951 . S
H487 C473 0.950 . S
H488 C474 0.950 . S
H489 C475 0.950 . S
H490 C477 0.950 . S
H491 C478 0.951 . S
C492 C493 1.386 . S
C492 C494 1.383 . S
C492 H508 0.951 . S
C493 C492 1.386 . S
C493 C497 1.383 1_556 S
C494 C492 1.383 . S
C494 C495 1.402 . S
C494 H509 0.951 . S
C495 C494 1.402 . S
C495 C496 1.375 1_556 S
C495 C498 1.481 . S
C496 C495 1.375 1_554 S
C496 C497 1.367 . S
C496 H510 0.951 . S
C497 C493 1.383 1_554 S
C497 C496 1.367 . S
C497 H511 0.950 . S
C498 C495 1.481 . S
C498 C499 1.297 . S
C498 H512 0.950 1_556 S
C499 C498 1.297 . S
C499 C500 1.479 . S
C499 H513 0.950 . S
C500 C499 1.479 . S
C500 C501 1.375 . S
C500 C506 1.404 . S
C501 C500 1.375 . S
C501 C502 1.369 . S
C501 H514 0.950 . S
C502 C501 1.369 . S
C502 C503 1.392 . S
C502 H515 0.951 . S
C503 C502 1.392 . S
C503 C505 1.384 . S
H504 C506 0.949 . S
C505 C503 1.384 . S
C505 C506 1.385 . S
C505 H507 0.950 . S
C506 C500 1.404 . S
C506 H504 0.949 . S
C506 C505 1.385 . S
H507 C505 0.950 . S
H508 C492 0.951 . S
H509 C494 0.951 . S
H510 C496 0.951 . S
H511 C497 0.950 . S
H512 C498 0.950 1_554 S
H513 C499 0.950 . S
H514 C501 0.950 . S
H515 C502 0.951 . S
C516 C517 1.386 . S
C516 C518 1.383 . S
C516 H532 0.951 . S
C517 C516 1.386 . S
C517 C521 1.383 . S
C518 C516 1.383 . S
C518 C519 1.402 . S
C518 H533 0.951 . S
C519 C518 1.402 . S
C519 C520 1.375 . S
C519 C522 1.481 . S
C520 C519 1.375 . S
C520 C521 1.367 . S
C520 H534 0.951 . S
C521 C517 1.383 . S
C521 C520 1.367 . S
C521 H535 0.950 . S
C522 C519 1.481 . S
C522 C523 1.297 . S
C522 H536 0.950 . S
C523 C522 1.297 . S
C523 C524 1.479 . S
C523 H537 0.950 . S
C524 C523 1.479 . S
C524 C525 1.375 . S
C524 C530 1.404 1_554 S
C525 C524 1.375 . S
C525 C526 1.369 . S
C525 H538 0.950 . S
C526 C525 1.369 . S
C526 C527 1.392 . S
C526 H539 0.951 . S
C527 C526 1.392 . S
C527 C529 1.384 1_554 S
H528 C530 0.949 . S
C529 C527 1.384 1_556 S
C529 C530 1.385 . S
C529 H531 0.950 . S
C530 C524 1.404 1_556 S
C530 H528 0.949 . S
C530 C529 1.385 . S
H531 C529 0.950 . S
H532 C516 0.951 . S
H533 C518 0.951 . S
H534 C520 0.951 . S
H535 C521 0.950 . S
H536 C522 0.950 . S
H537 C523 0.950 . S
H538 C525 0.950 . S
H539 C526 0.951 . S
C540 C541 1.386 . S
C540 C542 1.383 . S
C540 H556 0.951 . S
C541 C540 1.386 . S
C541 C545 1.383 . S
C542 C540 1.383 . S
C542 C543 1.402 . S
C542 H557 0.951 . S
C543 C542 1.402 . S
C543 C544 1.375 . S
C543 C546 1.481 . S
C544 C543 1.375 . S
C544 C545 1.367 . S
C544 H558 0.951 . S
C545 C541 1.383 . S
C545 C544 1.367 . S
C545 H559 0.950 . S
C546 C543 1.481 . S
C546 C547 1.297 . S
C546 H560 0.950 . S
C547 C546 1.297 . S
C547 C548 1.479 . S
C547 H561 0.950 . S
C548 C547 1.479 . S
C548 C549 1.375 . S
C548 C554 1.404 . S
C549 C548 1.375 . S
C549 C550 1.369 . S
C549 H562 0.950 . S
C550 C549 1.369 . S
C550 C551 1.392 . S
C550 H563 0.951 . S
C551 C550 1.392 . S
C551 C553 1.384 . S
H552 C554 0.949 . S
C553 C551 1.384 . S
C553 C554 1.385 . S
C553 H555 0.950 . S
C554 C548 1.404 . S
C554 H552 0.949 . S
C554 C553 1.385 . S
H555 C553 0.950 . S
H556 C540 0.951 . S
H557 C542 0.951 . S
H558 C544 0.951 . S
H559 C545 0.950 . S
H560 C546 0.950 . S
H561 C547 0.950 . S
H562 C549 0.950 . S
H563 C550 0.951 . S
C133 C7 1.462 . S
C143 C6 1.417 . S
C157 C29 1.463 . S
C167 C28 1.475 . S
C181 C50 1.421 . S
C191 C51 1.458 . S
C205 C72 1.409 . S
C215 C73 1.423 . S
C229 C94 1.414 . S
C239 C95 1.445 . S
C253 C117 1.451 . S
C263 C116 1.396 . S
C277 C5 1.695 . S
C287 C119 1.677 . S
C301 C9 1.683 . S
C311 C27 1.703 . S
C325 C49 1.663 . S
C335 C31 1.623 . S
C349 C71 1.670 . S
C359 C53 1.696 . S
C373 C93 1.686 . S
C383 C75 1.703 . S
C397 C97 1.650 . S
C407 C115 1.660 . S
C421 C8 1.229 . S
C431 C92 1.219 . S
C445 C30 1.205 . S
C455 C114 1.254 . S
C469 C52 1.244 . S
C479 C4 1.184 . S
C493 C74 1.206 1_556 S
C503 C26 1.253 . S
C517 C96 1.245 . S
C527 C48 1.157 1_554 S
C541 C70 1.242 . S
C551 C118 1.155 . S
