# Generated by pormake.
# Topology smu, (6)-cn, num edge types: 1
# Building blocks:
#     Node 0, Type 0, BuildingBlock: HISSIN_clean_sbu_0, # of connection points: 6
#     Node 1, Type 0, BuildingBlock: HISSIN_clean_sbu_0, # of connection points: 6
#     Node 2, Type 0, BuildingBlock: HISSIN_clean_sbu_0, # of connection points: 6
#     Node 3, Type 0, BuildingBlock: HISSIN_clean_sbu_0, # of connection points: 6
#     Node 4, Type 0, BuildingBlock: HISSIN_clean_sbu_0, # of connection points: 6
#     Node 5, Type 0, BuildingBlock: HISSIN_clean_sbu_0, # of connection points: 6
#     Edge 6, Type (0, 0), BuildingBlock: EZIPEK_clean_linker_0, # of connection points: 2
#     Edge 7, Type (0, 0), BuildingBlock: EZIPEK_clean_linker_0, # of connection points: 2
#     Edge 8, Type (0, 0), BuildingBlock: EZIPEK_clean_linker_0, # of connection points: 2
#     Edge 9, Type (0, 0), BuildingBlock: EZIPEK_clean_linker_0, # of connection points: 2
#     Edge 10, Type (0, 0), BuildingBlock: EZIPEK_clean_linker_0, # of connection points: 2
#     Edge 11, Type (0, 0), BuildingBlock: EZIPEK_clean_linker_0, # of connection points: 2
#     Edge 12, Type (0, 0), BuildingBlock: EZIPEK_clean_linker_0, # of connection points: 2
#     Edge 13, Type (0, 0), BuildingBlock: EZIPEK_clean_linker_0, # of connection points: 2
#     Edge 14, Type (0, 0), BuildingBlock: EZIPEK_clean_linker_0, # of connection points: 2
#     Edge 15, Type (0, 0), BuildingBlock: EZIPEK_clean_linker_0, # of connection points: 2
#     Edge 16, Type (0, 0), BuildingBlock: EZIPEK_clean_linker_0, # of connection points: 2
#     Edge 17, Type (0, 0), BuildingBlock: EZIPEK_clean_linker_0, # of connection points: 2
#     Edge 18, Type (0, 0), BuildingBlock: EZIPEK_clean_linker_0, # of connection points: 2
#     Edge 19, Type (0, 0), BuildingBlock: EZIPEK_clean_linker_0, # of connection points: 2
#     Edge 20, Type (0, 0), BuildingBlock: EZIPEK_clean_linker_0, # of connection points: 2
#     Edge 21, Type (0, 0), BuildingBlock: EZIPEK_clean_linker_0, # of connection points: 2
#     Edge 22, Type (0, 0), BuildingBlock: EZIPEK_clean_linker_0, # of connection points: 2
#     Edge 23, Type (0, 0), BuildingBlock: EZIPEK_clean_linker_0, # of connection points: 2
# Relax obj value: 0.232
# Max RMSD: 0.335
# Mean RMSD: 0.335
data_MOF--net-smu--node1-HISSIN_clean_sbu_0--edge1-EZIPEK_clean_linker_0
_symmetry_space_group_name_H-M    P1
_symmetry_Int_Tables_number       1
_symmetry_cell_setting            triclinic
loop_
_symmetry_equiv_pos_as_xyz
'x, y, z'
_cell_length_a     31.380414
_cell_length_b     31.593004
_cell_length_c     20.426747
_cell_angle_alpha  90.116177
_cell_angle_beta   90.080686
_cell_angle_gamma 119.7492
loop_
_atom_site_label
_atom_site_type_symbol
_atom_site_fract_x
_atom_site_fract_y
_atom_site_fract_z
_atom_type_partial_charge
Eu0 Eu 0.33341 0.13053 0.25241 0.0
Eu1 Eu 0.40546 0.08819 0.25665 0.0
C2 C 0.35513 0.08344 0.12381 0.0
C3 C 0.26114 0.20705 0.24439 0.0
C4 C 0.22462 0.19429 0.1963 0.0
C5 C 0.24287 0.26811 0.28652 0.0
C6 C 0.19644 0.21717 0.19467 0.0
C7 C 0.27088 0.24494 0.28849 0.0
C8 C 0.20466 0.25329 0.24078 0.0
C9 C 0.28806 0.18008 0.24875 0.0
O10 O 0.44502 0.16856 0.28538 0.0
O11 O 0.40508 0.1846 0.20953 0.0
C12 C 0.44415 0.20022 0.2453 0.0
O13 O 0.33256 0.10323 0.3597 0.0
O14 O 0.45191 0.06387 0.20822 0.0
O15 O 0.45989 0.07938 0.31216 0.0
O16 O 0.36688 0.05417 0.34731 0.0
C17 C 0.34159 0.06848 0.38156 0.0
O18 O 0.27445 0.05638 0.25845 0.0
O19 O 0.32416 0.02151 0.24982 0.0
O20 O 0.3979 0.09682 0.14981 0.0
O21 O 0.32111 0.18806 0.29361 0.0
O22 O 0.27922 0.14488 0.20793 0.0
O23 O 0.32229 0.08996 0.15547 0.0
C24 C 0.53289 0.09962 0.25464 0.0
C25 C 0.56222 0.10467 0.3095 0.0
C26 C 0.60748 0.14882 0.19163 0.0
C27 C 0.61346 0.13116 0.30547 0.0
C28 C 0.5561 0.12235 0.19565 0.0
C29 C 0.63647 0.1531 0.24642 0.0
C30 C 0.47857 0.07053 0.26052 0.0
C31 C 0.27984 1.01834 0.25554 0.0
H32 H 0.21665 0.1655 0.16125 0.0
H33 H 0.24908 0.29561 0.32288 0.0
H34 H 0.16672 0.20511 0.15953 0.0
H35 H 0.29908 0.25566 0.32564 0.0
H36 H 0.54542 0.0877 0.35558 0.0
H37 H 0.62468 0.16547 0.14561 0.0
H38 H 0.63521 0.13399 0.34822 0.0
H39 H 0.53469 0.11945 0.15254 0.0
Eu40 Eu 0.84052 0.71436 0.26658 0.0
Eu41 Eu 0.72597 0.64375 0.25258 0.0
C42 C 0.78916 0.7074 0.12527 0.0
C43 C 0.98464 0.78709 0.27442 0.0
C44 C 1.00028 0.82597 0.2302 0.0
C45 C 0.06935 0.81016 0.29662 0.0
C46 C 0.05038 0.85769 0.22096 0.0
C47 C 1.01938 0.77845 0.30574 0.0
C48 C 0.08494 0.85067 0.25582 0.0
C49 C 0.93367 0.75972 0.29678 0.0
O50 O 0.76423 0.60313 0.28849 0.0
O51 O 0.82873 0.6446 0.22336 0.0
C52 C 0.80086 0.60526 0.2557 0.0
O53 O 0.80468 0.70774 0.36828 0.0
O54 O 0.66938 0.59044 0.18762 0.0
O55 O 0.65176 0.59614 0.28871 0.0
O56 O 0.72323 0.67829 0.34522 0.0
C57 C 0.76069 0.70102 0.3843 0.0
O58 O 0.82039 0.76856 0.23781 0.0
O59 O 0.73582 0.72109 0.24643 0.0
O60 O 0.74806 0.67361 0.15151 0.0
O61 O 0.90716 0.78087 0.293 0.0
O62 O 0.90872 0.71308 0.28476 0.0
O63 O 0.831 0.7271 0.1584 0.0
C64 C 0.61204 0.517 0.23954 0.0
C65 C 0.61267 0.49313 0.29709 0.0
C66 C 0.56185 0.43792 0.18853 0.0
C67 C 0.58599 0.44206 0.30095 0.0
C68 C 0.58801 0.48874 0.18464 0.0
C69 C 0.5553 0.41319 0.24883 0.0
C70 C 0.63725 0.57087 0.23451 0.0
C71 C 0.77675 0.76389 0.23962 0.0
H72 H 0.97403 0.83342 0.20583 0.0
H73 H 0.09576 0.80496 0.32457 0.0
H74 H 0.06217 0.88943 0.1901 0.0
H75 H 1.00787 0.7489 0.34047 0.0
H76 H 0.634 0.5138 0.3391 0.0
H77 H 0.54746 0.41873 0.14296 0.0
H78 H 0.59108 0.42621 0.34481 0.0
H79 H 0.58965 0.50601 0.13819 0.0
Eu80 Eu 0.92577 0.21014 0.24731 0.0
Eu81 Eu 0.96098 0.32465 0.24299 0.0
C82 C 0.98299 0.27699 0.11969 0.0
C83 C 0.85966 0.06291 0.23688 0.0
C84 C 0.86167 0.04002 0.17893 0.0
C85 C 0.81104 0.984 0.28767 0.0
C86 C 0.83993 0.98933 0.17618 0.0
C87 C 0.83372 0.03464 0.2909 0.0
C88 C 0.81522 0.96118 0.23094 0.0
C89 C 0.88352 0.11608 0.2407 0.0
O90 O 0.88069 0.28132 0.21255 0.0
O91 O 0.86255 0.21848 0.27987 0.0
C92 C 0.84832 0.24381 0.24584 0.0
O93 O 0.96184 0.24008 0.34691 0.0
O94 O 0.96517 0.38509 0.18651 0.0
O95 O 0.98517 0.39538 0.28929 0.0
O96 O 0.95239 0.30738 0.35049 0.0
C97 C 0.96617 0.27873 0.37812 0.0
O98 O 1.0057 0.2381 0.24645 0.0
O99 O 1.03277 0.32117 0.25062 0.0
O100 O 0.99795 0.31604 0.15577 0.0
O101 O 0.90484 0.14029 0.29397 0.0
O102 O 0.8865 0.14274 0.19045 0.0
O103 O 0.947 0.23452 0.14008 0.0
C104 C 0.9475 0.43849 0.24567 0.0
C105 C 0.90652 0.41966 0.28734 0.0
C106 C 0.93214 0.50395 0.21484 0.0
C107 C 0.87843 0.44282 0.2925 0.0
C108 C 0.95995 0.48065 0.20942 0.0
C109 C 0.89123 0.48524 0.25637 0.0
C110 C 0.97665 0.41392 0.23716 0.0
C111 C 0.04089 0.28361 0.25022 0.0
H112 H 0.88125 0.06139 0.13657 0.0
H113 H 0.79256 0.96268 0.33058 0.0
H114 H 0.84402 0.97222 0.13245 0.0
H115 H 0.83125 0.05172 0.33569 0.0
H116 H 0.89632 0.38716 0.31574 0.0
H117 H 0.94239 0.53651 0.1864 0.0
H118 H 0.84685 0.42782 0.3246 0.0
H119 H 0.99114 0.49547 0.17664 0.0
Eu120 Eu 0.10416 0.39473 0.75847 0.0
Eu121 Eu 0.13967 0.31572 0.73959 0.0
C122 C 0.10344 0.32958 0.88464 0.0
C123 C 0.12318 0.52479 0.77337 0.0
C124 C 0.16352 0.55174 0.81536 0.0
C125 C 0.13656 0.60115 0.72564 0.0
C126 C 0.18977 0.60282 0.81273 0.0
C127 C 0.11025 0.55013 0.7283 0.0
C128 C 0.17626 0.62789 0.76814 0.0
C129 C 0.09303 0.47076 0.7775 0.0
O130 O 0.06411 0.26606 0.76849 0.0
O131 O 1.03353 0.31964 0.76782 0.0
C132 C 1.02793 0.27504 0.77196 0.0
O133 O 0.06571 0.36292 0.66511 0.0
O134 O 0.2036 0.30997 0.71006 0.0
O135 O 0.13231 0.2446 0.71885 0.0
O136 O 0.11031 0.32552 0.63981 0.0
C137 C 0.07631 0.33738 0.62511 0.0
O138 O 0.18373 0.43143 0.72512 0.0
O139 O 0.20183 0.38237 0.78358 0.0
O140 O 0.12068 0.30617 0.8492 0.0
O141 O 0.08228 0.44644 0.72256 0.0
O142 O 0.10339 0.44902 0.824 0.0
O143 O 0.09832 0.36504 0.85927 0.0
C144 C 0.20183 0.23343 0.71926 0.0
C145 C 0.18266 0.18759 0.68917 0.0
C146 C 0.2662 0.22234 0.76837 0.0
C147 C 0.20486 0.15931 0.69849 0.0
C148 C 0.24397 0.2509 0.7588 0.0
C149 C 0.24666 0.17647 0.73811 0.0
C150 C 0.17843 0.26263 0.70406 0.0
C151 C 0.21602 0.42419 0.75603 0.0
H152 H 0.17455 0.53351 0.85073 0.0
H153 H 0.12557 0.61985 0.69094 0.0
H154 H 0.22031 0.62286 0.84594 0.0
H155 H 0.07932 0.53043 0.69556 0.0
H156 H 0.15045 0.17371 0.65806 0.0
H157 H 0.29806 0.23556 0.79996 0.0
H158 H 0.18899 0.12366 0.67569 0.0
H159 H 0.25955 0.28631 0.78218 0.0
Eu160 Eu 0.34211 0.94997 0.75035 0.0
Eu161 Eu 0.22735 0.90836 0.75853 0.0
C162 C 0.30498 0.97189 0.88108 0.0
C163 C 0.45749 0.93897 0.73928 0.0
C164 C 0.43514 0.89235 0.76783 0.0
C165 C 0.52943 0.93177 0.71498 0.0
C166 C 0.46009 0.8659 0.77052 0.0
C167 C 0.50456 0.95821 0.71241 0.0
C168 C 0.50756 0.88566 0.74452 0.0
C169 C 0.43288 0.96845 0.73875 0.0
O170 O 0.24612 0.98454 0.76243 0.0
O171 O 0.33005 1.01749 0.75053 0.0
C172 C 0.29021 0.02221 0.75877 0.0
O173 O 0.3191 0.94677 0.64572 0.0
O174 O 0.1624 0.85645 0.8146 0.0
O175 O 0.15456 0.88497 0.72043 0.0
O176 O 0.24844 0.94935 0.66163 0.0
C177 C 0.28725 0.9593 0.62608 0.0
O178 O 0.30412 0.87161 0.7859 0.0
O179 O 0.24272 0.85199 0.7161 0.0
O180 O 0.25964 0.93877 0.86232 0.0
O181 O 0.40446 0.9625 0.68888 0.0
O182 O 0.4133 0.97081 0.7938 0.0
O183 O 0.34298 0.98356 0.84448 0.0
C184 C 0.08153 0.84138 0.78378 0.0
C185 C 0.06194 0.87135 0.76702 0.0
C186 C 0.99962 0.77531 0.80791 0.0
C187 C 1.01127 0.85303 0.76984 0.0
C188 C 0.05021 0.79376 0.80578 0.0
C189 C 0.97982 0.80452 0.78876 0.0
C190 C 0.13259 0.85544 0.7691 0.0
C191 C 0.2679 0.83833 0.75161 0.0
H192 H 0.39872 0.87669 0.78867 0.0
H193 H 0.56599 0.94746 0.69456 0.0
H194 H 0.44268 0.8303 0.79335 0.0
H195 H 0.52231 0.99399 0.6901 0.0
H196 H 0.08543 0.90803 0.74918 0.0
H197 H 0.97577 0.73771 0.82201 0.0
H198 H 0.99636 0.87587 0.75442 0.0
H199 H 0.06468 0.76994 0.81798 0.0
Eu200 Eu 0.66116 0.71666 0.76559 0.0
Eu201 Eu 0.73953 0.83162 0.76136 0.0
C202 C 0.72605 0.76666 0.89228 0.0
C203 C 0.53292 0.60309 0.76382 0.0
C204 C 0.50391 0.61133 0.80861 0.0
C205 C 0.45809 0.5427 0.70987 0.0
C206 C 0.45265 0.58348 0.80594 0.0
C207 C 0.50938 0.57024 0.71246 0.0
C208 C 0.42856 0.54399 0.76153 0.0
C209 C 0.58714 0.62769 0.77062 0.0
O210 O 0.79169 0.80441 0.77464 0.0
O211 O 0.73708 0.72146 0.76077 0.0
C212 C 0.78223 0.7593 0.76766 0.0
O213 O 0.67174 0.73382 0.65825 0.0
O214 O 0.74397 0.89988 0.79139 0.0
O215 O 0.80187 0.90105 0.7307 0.0
O216 O 0.74782 0.80196 0.66302 0.0
C217 C 0.71447 0.76278 0.63179 0.0
O218 O 0.62393 0.75992 0.79194 0.0
O219 O 0.66798 0.81668 0.71771 0.0
O220 O 0.73327 0.80912 0.87011 0.0
O221 O 0.61341 0.64635 0.718 0.0
O222 O 0.60641 0.65551 0.82187 0.0
O223 O 0.70424 0.72748 0.8559 0.0
C224 C 0.81845 0.97647 0.78298 0.0
C225 C 0.86952 0.99781 0.77627 0.0
C226 C 0.82831 0.05608 0.80894 0.0
C227 C 0.89957 0.04812 0.78436 0.0
C228 C 0.79834 1.0058 0.80147 0.0
C229 C 0.87889 0.07769 0.79851 0.0
C230 C 0.78487 0.92652 0.7598 0.0
C231 C 0.62891 0.79507 0.75372 0.0
H232 H 0.52066 0.63902 0.84627 0.0
H233 H 0.44251 0.52068 0.66664 0.0
H234 H 0.43265 0.59368 0.83928 0.0
H235 H 0.53066 0.56547 0.67439 0.0
H236 H 0.88595 0.97623 0.76126 0.0
H237 H 0.81174 0.07842 0.81883 0.0
H238 H 0.9386 0.06444 0.77529 0.0
H239 H 0.75898 0.99029 0.80589 0.0
C240 C 0.31572 0.9773 1.00362 0.0
C241 C 0.31532 0.99961 0.94399 0.0
C242 C 0.33611 0.07507 1.00371 0.0
C243 C 0.3418 0.05471 0.06197 0.0
N244 N 0.35141 0.99011 0.11163 0.0
N245 N 0.35176 0.0783 0.88917 0.0
C246 C 0.33667 1.00715 0.06004 0.0
C247 C 0.33281 0.05094 0.94403 0.0
N248 N 0.29714 0.92806 0.00653 0.0
N249 N 0.33699 0.11871 1.00415 0.0
H250 H 0.36029 0.06512 0.84785 0.0
H251 H 0.36705 0.11609 0.88872 0.0
H252 H 0.34219 0.13904 0.0467 0.0
H253 H 0.32875 0.13244 0.96254 0.0
H254 H 0.29239 0.90953 0.05049 0.0
H255 H 0.28281 0.90536 0.9657 0.0
H256 H 0.35251 0.9577 0.10972 0.0
H257 H 0.36589 1.00982 0.15451 0.0
C258 C 0.73374 0.7749 0.51098 0.0
C259 C 0.72698 0.74754 0.56843 0.0
C260 C 0.75074 0.69479 0.50731 0.0
C261 C 0.75176 0.71868 0.44834 0.0
N262 N 0.7272 0.7714 0.3938 0.0
N263 N 0.71812 0.67355 0.6168 0.0
C264 C 0.7386 0.756 0.44998 0.0
C265 C 0.73212 0.70505 0.56528 0.0
N266 N 0.73418 0.81831 0.51384 0.0
N267 N 0.76655 0.66154 0.50807 0.0
H268 H 0.70336 0.67851 0.65955 0.0
H269 H 0.71636 0.63978 0.61455 0.0
H270 H 0.77802 0.65118 0.46614 0.0
H271 H 0.77192 0.64717 0.55114 0.0
H272 H 0.74456 0.84218 0.47426 0.0
H273 H 0.72786 0.83212 0.55688 0.0
H274 H 0.71312 0.79513 0.39306 0.0
H275 H 0.7263 0.7563 0.34856 0.0
C276 C 1.02985 0.33012 0.02617 0.0
C277 C 1.01027 0.28388 0.05623 0.0
C278 C 0.05802 0.2647 0.97656 0.0
C279 C 0.08136 0.31376 0.9526 0.0
N280 N 0.10432 0.3963 0.98339 0.0
N281 N 1.01714 0.21124 0.0687 0.0
C282 C 0.07221 0.34744 0.98713 0.0
C283 C 1.02733 0.252 0.03388 0.0
N284 N 1.00773 0.35767 0.0338 0.0
N285 N 0.0643 0.22988 0.94576 0.0
H286 H 0.99627 0.20091 0.11124 0.0
H287 H 1.03333 0.19006 0.0585 0.0
H288 H 0.09054 0.23734 0.91002 0.0
H289 H 0.04228 0.19282 0.95558 0.0
H290 H 1.01994 0.39068 0.00937 0.0
H291 H 0.97413 0.34458 0.05768 0.0
H292 H 0.09983 0.42172 0.01081 0.0
H293 H 0.13798 0.41015 0.9594 0.0
C294 C 0.28986 0.99063 0.44732 0.0
C295 C 0.32269 0.04233 0.44553 0.0
C296 C 0.33894 0.03696 0.56141 0.0
C297 C 0.29799 0.98869 0.56505 0.0
N298 N 0.22824 0.92346 0.50998 0.0
N299 N 0.3749 0.11529 0.50709 0.0
C300 C 0.27055 0.96739 0.5079 0.0
C301 C 0.34522 0.06591 0.50493 0.0
N302 N 0.28087 0.9621 0.39326 0.0
N303 N 0.37445 0.05405 0.60845 0.0
H304 H 0.38181 0.13743 0.46615 0.0
H305 H 0.38913 0.13419 0.55088 0.0
H306 H 0.37397 0.03328 0.64805 0.0
H307 H 0.40734 0.08683 0.60372 0.0
H308 H 0.25986 0.92416 0.39463 0.0
H309 H 0.2995 0.97492 0.34974 0.0
H310 H 0.20549 0.90883 0.4691 0.0
H311 H 0.21413 0.90397 0.55321 0.0
C312 C 0.7163 0.7124 0.98539 0.0
C313 C 0.74363 0.7595 0.95783 0.0
C314 C 0.80758 0.77661 0.0412 0.0
C315 C 0.78284 0.72624 0.05994 0.0
N316 N 0.72363 0.64475 0.02478 0.0
N317 N 0.82253 0.83373 0.9531 0.0
C318 C 0.74059 0.69373 0.02357 0.0
C319 C 0.79137 0.79116 0.98392 0.0
N320 N 0.6669 0.68511 0.97515 0.0
N321 N 0.84529 0.81115 0.07769 0.0
H322 H 0.8131 0.84603 0.91136 0.0
H323 H 0.85938 0.85482 0.96625 0.0
H324 H 0.86096 0.80352 0.11738 0.0
H325 H 0.85936 0.84837 0.07007 0.0
H326 H 0.64549 0.65134 0.99749 0.0
H327 H 0.64716 0.69901 0.95095 0.0
H328 H 0.69422 0.62024 0.99578 0.0
H329 H 0.74275 0.62997 0.0485 0.0
C330 C 0.04318 0.33332 0.44392 0.0
C331 C 0.99351 0.29447 0.44205 0.0
C332 C 0.99613 0.28987 0.56145 0.0
C333 C 0.0482 0.32158 0.56172 0.0
N334 N 0.12198 0.36943 0.49921 0.0
N335 N 0.92502 0.23097 0.50012 0.0
C336 C 0.07203 0.34152 0.50154 0.0
C337 C 0.97088 0.27097 0.50109 0.0
N338 N 0.06251 0.36388 0.39178 0.0
N339 N 0.96984 0.27943 0.61804 0.0
H340 H 0.90465 0.2173 0.45715 0.0
H341 H 0.90911 0.20941 0.54133 0.0
H342 H 0.98568 0.293 0.66336 0.0
H343 H 0.9316 0.26063 0.61909 0.0
H344 H 0.09723 0.3948 0.39231 0.0
H345 H 0.0415 0.36225 0.3516 0.0
H346 H 0.14138 0.38016 0.45534 0.0
H347 H 0.14425 0.37874 0.54071 0.0
C348 C 0.71968 0.22564 0.27042 0.0
C349 C 0.69106 0.17883 0.24154 0.0
C350 C 0.76621 0.18081 0.20363 0.0
C351 C 0.79477 0.22488 0.23876 0.0
N352 N 0.79941 0.28695 0.31168 0.0
N353 N 0.68675 0.10853 0.18839 0.0
C354 C 0.77172 0.24693 0.27347 0.0
C355 C 0.71424 0.15558 0.2099 0.0
N356 N 0.69708 0.25 0.294 0.0
N357 N 0.78888 0.16358 0.16317 0.0
H358 H 0.64858 0.08878 0.19178 0.0
H359 H 0.70192 0.08765 0.17209 0.0
H360 H 0.82686 0.18154 0.15685 0.0
H361 H 0.77003 0.13433 0.13121 0.0
H362 H 0.716 0.28616 0.30959 0.0
H363 H 0.65907 0.2353 0.293 0.0
H364 H 0.7846 0.30171 0.34399 0.0
H365 H 0.83753 0.30347 0.31446 0.0
C366 C 0.49164 0.33079 0.19991 0.0
C367 C 0.52098 0.35782 0.25394 0.0
C368 C 0.50269 0.27986 0.30537 0.0
C369 C 0.47954 0.25431 0.24662 0.0
N370 N 0.46756 0.26102 0.13084 0.0
N371 N 0.51818 0.34928 0.37139 0.0
C372 C 0.47922 0.28164 0.19171 0.0
C373 C 0.51741 0.33037 0.31105 0.0
N374 N 0.46807 0.34882 0.16295 0.0
N375 N 0.51198 0.25712 0.35554 0.0
H376 H 0.51601 0.38101 0.37684 0.0
H377 H 0.51175 0.32955 0.41461 0.0
H378 H 0.50619 0.22183 0.35245 0.0
H379 H 0.53226 0.27592 0.39674 0.0
H380 H 0.44301 0.32849 0.12622 0.0
H381 H 0.46815 0.38085 0.17591 0.0
H382 H 0.46959 0.28104 0.0892 0.0
H383 H 0.4621 0.22619 0.12132 0.0
C384 C 0.83138 0.50714 0.20742 0.0
C385 C 0.86175 0.51025 0.26088 0.0
C386 C 0.84033 0.56553 0.31822 0.0
C387 C 0.81551 0.56747 0.26112 0.0
N388 N 0.78823 0.54206 0.15037 0.0
N389 N 0.89849 0.54463 0.36548 0.0
C390 C 0.81101 0.53854 0.20554 0.0
C391 C 0.86661 0.53953 0.31632 0.0
N392 N 0.8213 0.47337 0.15914 0.0
N393 N 0.83921 0.58898 0.37397 0.0
H394 H 0.91815 0.52601 0.36612 0.0
H395 H 0.90824 0.5698 0.40346 0.0
H396 H 0.82198 0.6099 0.3765 0.0
H397 H 0.85196 0.58473 0.41917 0.0
H398 H 0.7957 0.46581 0.12207 0.0
H399 H 0.83551 0.4497 0.15923 0.0
H400 H 0.78904 0.52687 0.10545 0.0
H401 H 0.77025 0.56235 0.14862 0.0
C402 C 0.19349 0.70864 0.81555 0.0
C403 C 0.20297 0.68232 0.7667 0.0
C404 C 0.25749 0.75894 0.70967 0.0
C405 C 0.24978 0.78537 0.76007 0.0
N406 N 0.21653 0.78685 0.86585 0.0
N407 N 0.24967 0.68212 0.67333 0.0
C408 C 0.21983 0.76062 0.81472 0.0
C409 C 0.23668 0.70745 0.71547 0.0
N410 N 0.15758 0.68388 0.86091 0.0
N411 N 0.28391 0.78305 0.65553 0.0
H412 H 0.23494 0.64443 0.67591 0.0
H413 H 0.27776 0.69861 0.63915 0.0
H414 H 0.30183 0.82093 0.65123 0.0
H415 H 0.28599 0.76557 0.6134 0.0
H416 H 0.14469 0.70059 0.89301 0.0
H417 H 0.13772 0.64592 0.86341 0.0
H418 H 0.19977 0.77141 0.91019 0.0
H419 H 0.23389 0.82482 0.86608 0.0
C420 C 0.53772 0.83307 0.69325 0.0
C421 C 0.53502 0.85855 0.74889 0.0
C422 C 0.58696 0.83492 0.81132 0.0
C423 C 0.59334 0.81322 0.75378 0.0
N424 N 0.57721 0.79325 0.63903 0.0
N425 N 0.55959 0.88781 0.85916 0.0
C426 C 0.56933 0.81275 0.69447 0.0
C427 C 0.55989 0.86012 0.80774 0.0
N428 N 0.50888 0.8272 0.63987 0.0
N429 N 0.60732 0.83209 0.86925 0.0
H430 H 0.53957 0.90609 0.85883 0.0
H431 H 0.58155 0.89556 0.90062 0.0
H432 H 0.63088 0.81788 0.87338 0.0
H433 H 0.59888 0.84138 0.91437 0.0
H434 H 0.50493 0.80479 0.60024 0.0
H435 H 0.48563 0.84192 0.63718 0.0
H436 H 0.56643 0.79748 0.59243 0.0
H437 H 0.59656 0.7743 0.63895 0.0
C438 C 0.29238 0.49011 0.80708 0.0
C439 C 0.26938 0.45897 0.75304 0.0
C440 C 0.34878 0.46961 0.71895 0.0
C441 C 0.37325 0.50776 0.7657 0.0
N442 N 0.36175 0.52026 0.87954 0.0
N443 N 0.27623 0.42246 0.65291 0.0
C444 C 0.34358 0.50959 0.81729 0.0
C445 C 0.29788 0.45027 0.70716 0.0
N446 N 0.26519 0.50042 0.84956 0.0
N447 N 0.37099 0.4447 0.69643 0.0
H448 H 0.23879 0.40721 0.6431 0.0
H449 H 0.29645 0.4186 0.61522 0.0
H450 H 0.40361 0.44964 0.71706 0.0
H451 H 0.3534 0.41403 0.66636 0.0
H452 H 0.28106 0.52656 0.88649 0.0
H453 H 0.22743 0.48616 0.84377 0.0
H454 H 0.34062 0.51824 0.91999 0.0
H455 H 0.39529 0.52291 0.89183 0.0
C456 C 0.16523 0.30119 0.20165 0.0
C457 C 0.168 0.26927 0.24803 0.0
C458 C 0.09896 0.26499 0.30758 0.0
C459 C 0.09093 0.29037 0.25619 0.0
N460 N 0.11587 0.33251 0.15302 0.0
N461 N 0.13275 0.21433 0.33959 0.0
C462 C 0.12437 0.30917 0.20319 0.0
C463 C 0.13393 0.2498 0.29993 0.0
N464 N 0.20179 0.32394 0.15662 0.0
N465 N 0.07276 0.25519 0.36404 0.0
H466 H 0.15719 0.20113 0.33554 0.0
H467 H 0.1046 0.19457 0.37276 0.0
H468 H 0.04712 0.26623 0.37078 0.0
H469 H 0.08038 0.24151 0.4061 0.0
H470 H 0.20438 0.35098 0.12515 0.0
H471 H 0.23187 0.31836 0.15421 0.0
H472 H 0.13457 0.34082 0.10866 0.0
H473 H 0.08887 0.34241 0.15522 0.0
C474 C 0.14972 0.92645 0.30823 0.0
C475 C 0.13632 0.89037 0.25917 0.0
C476 C 0.21589 0.93806 0.20666 0.0
C477 C 0.23229 0.97156 0.25963 0.0
N478 N 0.21295 0.99752 0.36236 0.0
N479 N 0.15768 0.85758 0.16653 0.0
C480 C 0.19864 0.96557 0.31095 0.0
C481 C 0.17003 0.89453 0.21046 0.0
N482 N 0.11489 0.92471 0.35031 0.0
N483 N 0.24073 0.95093 0.14911 0.0
H484 H 0.12357 0.82573 0.16673 0.0
H485 H 0.18276 0.85698 0.13366 0.0
H486 H 0.26934 0.98608 0.14227 0.0
H487 H 0.22823 0.93029 0.10634 0.0
H488 H 0.12017 0.9535 0.38052 0.0
H489 H 0.07896 0.89572 0.35199 0.0
H490 H 0.1932 0.99066 0.40569 0.0
H491 H 0.24634 0.02946 0.3648 0.0
C492 C 0.82863 0.89607 0.27626 0.0
C493 C 0.8017 0.90928 0.23366 0.0
C494 C 0.75403 0.82467 0.19502 0.0
C495 C 0.77766 0.811 0.24281 0.0
N496 N 0.82945 0.83267 0.33958 0.0
N497 N 0.73423 0.88602 0.15864 0.0
C498 C 0.81208 0.84641 0.28708 0.0
C499 C 0.76287 0.87349 0.19485 0.0
N500 N 0.8718 0.93091 0.30362 0.0
N501 N 0.72558 0.79216 0.14783 0.0
H502 H 0.74003 0.92151 0.1573 0.0
H503 H 0.70259 0.8606 0.13425 0.0
H504 H 0.71813 0.75612 0.1469 0.0
H505 H 0.7123 0.80186 0.10716 0.0
H506 H 0.89557 0.92263 0.32899 0.0
H507 H 0.88683 0.96813 0.29498 0.0
H508 H 0.85009 0.8566 0.37703 0.0
H509 H 0.8191 0.79659 0.34955 0.0
C510 C 0.24282 0.10773 0.80194 0.0
C511 C 0.26631 0.14361 0.75313 0.0
C512 C 0.32067 0.11079 0.72728 0.0
C513 C 0.29171 0.0701 0.76757 0.0
N514 N 0.2382 0.03991 0.86188 0.0
N515 N 0.32558 0.17884 0.66636 0.0
C516 C 0.25665 0.07171 0.81063 0.0
C517 C 0.30508 0.14539 0.71542 0.0
N518 N 0.2052 0.1065 0.83739 0.0
N519 N 0.36475 0.11858 0.70456 0.0
H520 H 0.31612 0.20567 0.6576 0.0
H521 H 0.34941 0.17785 0.63172 0.0
H522 H 0.38044 0.09821 0.72072 0.0
H523 H 0.38905 0.14951 0.67849 0.0
H524 H 0.1812 0.07722 0.86625 0.0
H525 H 0.19599 0.13398 0.83545 0.0
H526 H 0.21743 0.04258 0.89963 0.0
H527 H 0.24778 1.01344 0.87093 0.0
C528 C 0.90562 0.7776 0.71842 0.0
C529 C 0.92603 0.78295 0.78188 0.0
C530 C 0.84396 0.74817 0.82912 0.0
C531 C 0.82579 0.75301 0.76798 0.0
N532 N 0.83972 0.77428 0.65385 0.0
N533 N 0.91524 0.77657 0.89923 0.0
C534 C 0.8566 0.7676 0.71218 0.0
C535 C 0.89531 0.76852 0.83785 0.0
N536 N 0.93291 0.78161 0.66424 0.0
N537 N 0.81197 0.72395 0.87853 0.0
H538 H 0.95284 0.79197 0.90764 0.0
H539 H 0.89489 0.77167 0.94163 0.0
H540 H 0.77412 0.70667 0.87129 0.0
H541 H 0.82263 0.71602 0.92305 0.0
H542 H 0.91831 0.77355 0.61706 0.0
H543 H 0.9689 0.78823 0.66704 0.0
H544 H 0.862 0.79085 0.61341 0.0
H545 H 0.80344 0.76532 0.6476 0.0
C546 C 0.95483 0.21441 0.83462 0.0
C547 C 0.97958 0.23031 0.77395 0.0
C548 C 0.92667 0.14937 0.72726 0.0
C549 C 0.90896 0.13123 0.79046 0.0
N550 N 0.90747 0.14536 0.90623 0.0
N551 N 0.99574 0.2083 0.66639 0.0
C552 C 0.92275 0.16353 0.8448 0.0
C553 C 0.96694 0.19673 0.72096 0.0
N554 N 0.96334 0.24767 0.88285 0.0
N555 N 0.90542 0.12118 0.67305 0.0
H556 H 1.02639 0.24229 0.65884 0.0
H557 H 0.99127 0.18276 0.63069 0.0
H558 H 0.87523 0.08606 0.67561 0.0
H559 H 0.91446 0.13476 0.62553 0.0
H560 H 0.9439 0.23897 0.92664 0.0
H561 H 0.98706 0.28492 0.87635 0.0
H562 H 0.92064 0.1663 0.94865 0.0
H563 H 0.88398 0.10837 0.9151 0.0
loop_
_geom_bond_atom_site_label_1
_geom_bond_atom_site_label_2
_geom_bond_distance
_geom_bond_site_symmetry_2
_ccdc_geom_bond_type
Eu0 C9 2.828 . S
Eu0 O11 2.392 . S
Eu0 O13 2.418 . S
Eu0 O18 2.373 . S
Eu0 O21 2.488 . S
Eu0 O22 2.471 . S
Eu0 O23 2.349 . S
Eu1 O10 2.373 . S
Eu1 O14 2.488 . S
Eu1 O15 2.471 . S
Eu1 O16 2.349 . S
Eu1 O19 2.392 . S
Eu1 O20 2.418 . S
Eu1 C30 2.828 . S
C2 O20 1.244 . S
C2 O23 1.265 . S
C3 C4 1.379 . S
C3 C7 1.373 . S
C3 C9 1.505 . S
C4 C3 1.379 . S
C4 C6 1.369 . S
C4 H32 0.930 . S
C5 C7 1.383 . S
C5 C8 1.382 . S
C5 H33 0.930 . S
C6 C4 1.369 . S
C6 C8 1.392 . S
C6 H34 0.930 . S
C7 C3 1.373 . S
C7 C5 1.383 . S
C7 H35 0.931 . S
C8 C5 1.382 . S
C8 C6 1.392 . S
C9 Eu0 2.828 . S
C9 C3 1.505 . S
C9 O21 1.249 . S
C9 O22 1.244 . S
O10 Eu1 2.373 . S
O10 C12 1.258 . S
O11 Eu0 2.392 . S
O11 C12 1.242 . S
C12 O10 1.258 . S
C12 O11 1.242 . S
O13 Eu0 2.418 . S
O13 C17 1.244 . S
O14 Eu1 2.488 . S
O14 C30 1.249 . S
O15 Eu1 2.471 . S
O15 C30 1.244 . S
O16 Eu1 2.349 . S
O16 C17 1.265 . S
C17 O13 1.244 . S
C17 O16 1.265 . S
O18 Eu0 2.373 . S
O18 C31 1.258 . S
O19 Eu1 2.392 . S
O19 C31 1.242 . S
O20 Eu1 2.418 . S
O20 C2 1.244 . S
O21 Eu0 2.488 . S
O21 C9 1.249 . S
O22 Eu0 2.471 . S
O22 C9 1.244 . S
O23 Eu0 2.349 . S
O23 C2 1.265 . S
C24 C25 1.379 . S
C24 C28 1.373 . S
C24 C30 1.505 . S
C25 C24 1.379 . S
C25 C27 1.369 . S
C25 H36 0.930 . S
C26 C28 1.383 . S
C26 C29 1.382 . S
C26 H37 0.930 . S
C27 C25 1.369 . S
C27 C29 1.392 . S
C27 H38 0.930 . S
C28 C24 1.373 . S
C28 C26 1.383 . S
C28 H39 0.931 . S
C29 C26 1.382 . S
C29 C27 1.392 . S
C30 Eu1 2.828 . S
C30 O14 1.249 . S
C30 O15 1.244 . S
C30 C24 1.505 . S
C31 O18 1.258 . S
C31 O19 1.242 . S
H32 C4 0.930 . S
H33 C5 0.930 . S
H34 C6 0.930 . S
H35 C7 0.931 . S
H36 C25 0.930 . S
H37 C26 0.930 . S
H38 C27 0.930 . S
H39 C28 0.931 . S
Eu40 C49 2.828 . S
Eu40 O51 2.392 . S
Eu40 O53 2.418 . S
Eu40 O58 2.373 . S
Eu40 O61 2.488 . S
Eu40 O62 2.471 . S
Eu40 O63 2.349 . S
Eu41 O50 2.373 . S
Eu41 O54 2.488 . S
Eu41 O55 2.471 . S
Eu41 O56 2.349 . S
Eu41 O59 2.392 . S
Eu41 O60 2.418 . S
Eu41 C70 2.828 . S
C42 O60 1.244 . S
C42 O63 1.265 . S
C43 C44 1.379 . S
C43 C47 1.373 1_655 S
C43 C49 1.505 . S
C44 C43 1.379 . S
C44 C46 1.369 1_655 S
C44 H72 0.930 . S
C45 C47 1.383 . S
C45 C48 1.382 . S
C45 H73 0.930 . S
C46 C44 1.369 1_455 S
C46 C48 1.392 . S
C46 H74 0.930 . S
C47 C43 1.373 1_455 S
C47 C45 1.383 . S
C47 H75 0.932 1_455 S
C48 C45 1.382 . S
C48 C46 1.392 . S
C49 Eu40 2.828 . S
C49 C43 1.505 . S
C49 O61 1.249 . S
C49 O62 1.244 . S
O50 Eu41 2.373 . S
O50 C52 1.258 . S
O51 Eu40 2.392 . S
O51 C52 1.242 . S
C52 O50 1.258 . S
C52 O51 1.242 . S
O53 Eu40 2.418 . S
O53 C57 1.244 . S
O54 Eu41 2.488 . S
O54 C70 1.249 . S
O55 Eu41 2.471 . S
O55 C70 1.244 . S
O56 Eu41 2.349 . S
O56 C57 1.265 . S
C57 O53 1.244 . S
C57 O56 1.265 . S
O58 Eu40 2.373 . S
O58 C71 1.258 . S
O59 Eu41 2.392 . S
O59 C71 1.242 . S
O60 Eu41 2.418 . S
O60 C42 1.244 . S
O61 Eu40 2.488 . S
O61 C49 1.249 . S
O62 Eu40 2.471 . S
O62 C49 1.244 . S
O63 Eu40 2.349 . S
O63 C42 1.265 . S
C64 C65 1.379 . S
C64 C68 1.373 . S
C64 C70 1.505 . S
C65 C64 1.379 . S
C65 C67 1.369 . S
C65 H76 0.930 . S
C66 C68 1.383 . S
C66 C69 1.382 . S
C66 H77 0.930 . S
C67 C65 1.369 . S
C67 C69 1.392 . S
C67 H78 0.930 . S
C68 C64 1.373 . S
C68 C66 1.383 . S
C68 H79 0.931 . S
C69 C66 1.382 . S
C69 C67 1.392 . S
C70 Eu41 2.828 . S
C70 O54 1.249 . S
C70 O55 1.244 . S
C70 C64 1.505 . S
C71 O58 1.258 . S
C71 O59 1.242 . S
H72 C44 0.930 . S
H73 C45 0.930 . S
H74 C46 0.930 . S
H75 C47 0.932 1_655 S
H76 C65 0.930 . S
H77 C66 0.930 . S
H78 C67 0.930 . S
H79 C68 0.931 . S
Eu80 C89 2.828 . S
Eu80 O91 2.392 . S
Eu80 O93 2.418 . S
Eu80 O98 2.373 . S
Eu80 O101 2.488 . S
Eu80 O102 2.471 . S
Eu80 O103 2.349 . S
Eu81 O90 2.373 . S
Eu81 O94 2.488 . S
Eu81 O95 2.471 . S
Eu81 O96 2.349 . S
Eu81 O99 2.392 . S
Eu81 O100 2.418 . S
Eu81 C110 2.828 . S
C82 O100 1.244 . S
C82 O103 1.265 . S
C83 C84 1.379 . S
C83 C87 1.373 1_545 S
C83 C89 1.505 . S
C84 C83 1.379 . S
C84 C86 1.369 1_545 S
C84 H112 0.930 . S
C85 C87 1.383 . S
C85 C88 1.382 . S
C85 H113 0.930 . S
C86 C84 1.369 1_565 S
C86 C88 1.392 . S
C86 H114 0.930 . S
C87 C83 1.373 1_565 S
C87 C85 1.383 . S
C87 H115 0.928 1_565 S
C88 C85 1.382 . S
C88 C86 1.392 . S
C89 Eu80 2.828 . S
C89 C83 1.505 . S
C89 O101 1.249 . S
C89 O102 1.244 . S
O90 Eu81 2.373 . S
O90 C92 1.258 . S
O91 Eu80 2.392 . S
O91 C92 1.242 . S
C92 O90 1.258 . S
C92 O91 1.242 . S
O93 Eu80 2.418 . S
O93 C97 1.244 . S
O94 Eu81 2.488 . S
O94 C110 1.249 . S
O95 Eu81 2.471 . S
O95 C110 1.244 . S
O96 Eu81 2.349 . S
O96 C97 1.265 . S
C97 O93 1.244 . S
C97 O96 1.265 . S
O98 Eu80 2.373 . S
O98 C111 1.258 . S
O99 Eu81 2.392 . S
O99 C111 1.242 . S
O100 Eu81 2.418 . S
O100 C82 1.244 . S
O101 Eu80 2.488 . S
O101 C89 1.249 . S
O102 Eu80 2.471 . S
O102 C89 1.244 . S
O103 Eu80 2.349 . S
O103 C82 1.265 . S
C104 C105 1.379 . S
C104 C108 1.373 . S
C104 C110 1.505 . S
C105 C104 1.379 . S
C105 C107 1.369 . S
C105 H116 0.930 . S
C106 C108 1.383 . S
C106 C109 1.382 . S
C106 H117 0.930 . S
C107 C105 1.369 . S
C107 C109 1.392 . S
C107 H118 0.930 . S
C108 C104 1.373 . S
C108 C106 1.383 . S
C108 H119 0.931 . S
C109 C106 1.382 . S
C109 C107 1.392 . S
C110 Eu81 2.828 . S
C110 O94 1.249 . S
C110 O95 1.244 . S
C110 C104 1.505 . S
C111 O98 1.258 . S
C111 O99 1.242 . S
H112 C84 0.930 . S
H113 C85 0.930 . S
H114 C86 0.930 . S
H115 C87 0.928 1_545 S
H116 C105 0.930 . S
H117 C106 0.930 . S
H118 C107 0.930 . S
H119 C108 0.931 . S
Eu120 C129 2.828 . S
Eu120 O131 2.392 . S
Eu120 O133 2.418 . S
Eu120 O138 2.373 . S
Eu120 O141 2.488 . S
Eu120 O142 2.471 . S
Eu120 O143 2.349 . S
Eu121 O130 2.373 . S
Eu121 O134 2.488 . S
Eu121 O135 2.471 . S
Eu121 O136 2.349 . S
Eu121 O139 2.392 . S
Eu121 O140 2.418 . S
Eu121 C150 2.828 . S
C122 O140 1.244 . S
C122 O143 1.265 . S
C123 C124 1.379 . S
C123 C127 1.373 . S
C123 C129 1.505 . S
C124 C123 1.379 . S
C124 C126 1.369 . S
C124 H152 0.930 . S
C125 C127 1.383 . S
C125 C128 1.382 . S
C125 H153 0.930 . S
C126 C124 1.369 . S
C126 C128 1.392 . S
C126 H154 0.930 . S
C127 C123 1.373 . S
C127 C125 1.383 . S
C127 H155 0.931 . S
C128 C125 1.382 . S
C128 C126 1.392 . S
C129 Eu120 2.828 . S
C129 C123 1.505 . S
C129 O141 1.249 . S
C129 O142 1.244 . S
O130 Eu121 2.373 . S
O130 C132 1.258 . S
O131 Eu120 2.392 . S
O131 C132 1.242 . S
C132 O130 1.258 . S
C132 O131 1.242 . S
O133 Eu120 2.418 . S
O133 C137 1.244 . S
O134 Eu121 2.488 . S
O134 C150 1.249 . S
O135 Eu121 2.471 . S
O135 C150 1.244 . S
O136 Eu121 2.349 . S
O136 C137 1.265 . S
C137 O133 1.244 . S
C137 O136 1.265 . S
O138 Eu120 2.373 . S
O138 C151 1.258 . S
O139 Eu121 2.392 . S
O139 C151 1.242 . S
O140 Eu121 2.418 . S
O140 C122 1.244 . S
O141 Eu120 2.488 . S
O141 C129 1.249 . S
O142 Eu120 2.471 . S
O142 C129 1.244 . S
O143 Eu120 2.349 . S
O143 C122 1.265 . S
C144 C145 1.379 . S
C144 C148 1.373 . S
C144 C150 1.505 . S
C145 C144 1.379 . S
C145 C147 1.369 . S
C145 H156 0.930 . S
C146 C148 1.383 . S
C146 C149 1.382 . S
C146 H157 0.930 . S
C147 C145 1.369 . S
C147 C149 1.392 . S
C147 H158 0.930 . S
C148 C144 1.373 . S
C148 C146 1.383 . S
C148 H159 0.931 . S
C149 C146 1.382 . S
C149 C147 1.392 . S
C150 Eu121 2.828 . S
C150 O134 1.249 . S
C150 O135 1.244 . S
C150 C144 1.505 . S
C151 O138 1.258 . S
C151 O139 1.242 . S
H152 C124 0.930 . S
H153 C125 0.930 . S
H154 C126 0.930 . S
H155 C127 0.931 . S
H156 C145 0.930 . S
H157 C146 0.930 . S
H158 C147 0.930 . S
H159 C148 0.931 . S
Eu160 C169 2.828 . S
Eu160 O171 2.392 . S
Eu160 O173 2.418 . S
Eu160 O178 2.373 . S
Eu160 O181 2.488 . S
Eu160 O182 2.471 . S
Eu160 O183 2.349 . S
Eu161 O170 2.373 . S
Eu161 O174 2.488 . S
Eu161 O175 2.471 . S
Eu161 O176 2.349 . S
Eu161 O179 2.392 . S
Eu161 O180 2.418 . S
Eu161 C190 2.828 . S
C162 O180 1.244 . S
C162 O183 1.265 . S
C163 C164 1.379 . S
C163 C167 1.373 . S
C163 C169 1.505 . S
C164 C163 1.379 . S
C164 C166 1.369 . S
C164 H192 0.930 . S
C165 C167 1.383 . S
C165 C168 1.382 . S
C165 H193 0.930 . S
C166 C164 1.369 . S
C166 C168 1.392 . S
C166 H194 0.930 . S
C167 C163 1.373 . S
C167 C165 1.383 . S
C167 H195 0.931 . S
C168 C165 1.382 . S
C168 C166 1.392 . S
C169 Eu160 2.828 . S
C169 C163 1.505 . S
C169 O181 1.249 . S
C169 O182 1.244 . S
O170 Eu161 2.373 . S
O170 C172 1.258 . S
O171 Eu160 2.392 . S
O171 C172 1.242 . S
C172 O170 1.258 . S
C172 O171 1.242 . S
O173 Eu160 2.418 . S
O173 C177 1.244 . S
O174 Eu161 2.488 . S
O174 C190 1.249 . S
O175 Eu161 2.471 . S
O175 C190 1.244 . S
O176 Eu161 2.349 . S
O176 C177 1.265 . S
C177 O173 1.244 . S
C177 O176 1.265 . S
O178 Eu160 2.373 . S
O178 C191 1.258 . S
O179 Eu161 2.392 . S
O179 C191 1.242 . S
O180 Eu161 2.418 . S
O180 C162 1.244 . S
O181 Eu160 2.488 . S
O181 C169 1.249 . S
O182 Eu160 2.471 . S
O182 C169 1.244 . S
O183 Eu160 2.349 . S
O183 C162 1.265 . S
C184 C185 1.379 . S
C184 C188 1.373 1_455 S
C184 C190 1.505 . S
C185 C184 1.379 . S
C185 C187 1.369 1_455 S
C185 H196 0.930 . S
C186 C188 1.383 . S
C186 C189 1.382 . S
C186 H197 0.930 . S
C187 C185 1.369 1_655 S
C187 C189 1.392 . S
C187 H198 0.930 . S
C188 C184 1.373 1_655 S
C188 C186 1.383 . S
C188 H199 0.928 1_655 S
C189 C186 1.382 . S
C189 C187 1.392 . S
C190 Eu161 2.828 . S
C190 O174 1.249 . S
C190 O175 1.244 . S
C190 C184 1.505 . S
C191 O178 1.258 . S
C191 O179 1.242 . S
H192 C164 0.930 . S
H193 C165 0.930 . S
H194 C166 0.930 . S
H195 C167 0.931 . S
H196 C185 0.930 . S
H197 C186 0.930 . S
H198 C187 0.930 . S
H199 C188 0.928 1_455 S
Eu200 C209 2.828 . S
Eu200 O211 2.392 . S
Eu200 O213 2.418 . S
Eu200 O218 2.373 . S
Eu200 O221 2.488 . S
Eu200 O222 2.471 . S
Eu200 O223 2.349 . S
Eu201 O210 2.373 . S
Eu201 O214 2.488 . S
Eu201 O215 2.471 . S
Eu201 O216 2.349 . S
Eu201 O219 2.392 . S
Eu201 O220 2.418 . S
Eu201 C230 2.828 . S
C202 O220 1.244 . S
C202 O223 1.265 . S
C203 C204 1.379 . S
C203 C207 1.373 . S
C203 C209 1.505 . S
C204 C203 1.379 . S
C204 C206 1.369 . S
C204 H232 0.930 . S
C205 C207 1.383 . S
C205 C208 1.382 . S
C205 H233 0.930 . S
C206 C204 1.369 . S
C206 C208 1.392 . S
C206 H234 0.930 . S
C207 C203 1.373 . S
C207 C205 1.383 . S
C207 H235 0.931 . S
C208 C205 1.382 . S
C208 C206 1.392 . S
C209 Eu200 2.828 . S
C209 C203 1.505 . S
C209 O221 1.249 . S
C209 O222 1.244 . S
O210 Eu201 2.373 . S
O210 C212 1.258 . S
O211 Eu200 2.392 . S
O211 C212 1.242 . S
C212 O210 1.258 . S
C212 O211 1.242 . S
O213 Eu200 2.418 . S
O213 C217 1.244 . S
O214 Eu201 2.488 . S
O214 C230 1.249 . S
O215 Eu201 2.471 . S
O215 C230 1.244 . S
O216 Eu201 2.349 . S
O216 C217 1.265 . S
C217 O213 1.244 . S
C217 O216 1.265 . S
O218 Eu200 2.373 . S
O218 C231 1.258 . S
O219 Eu201 2.392 . S
O219 C231 1.242 . S
O220 Eu201 2.418 . S
O220 C202 1.244 . S
O221 Eu200 2.488 . S
O221 C209 1.249 . S
O222 Eu200 2.471 . S
O222 C209 1.244 . S
O223 Eu200 2.349 . S
O223 C202 1.265 . S
C224 C225 1.379 . S
C224 C228 1.373 1_565 S
C224 C230 1.505 . S
C225 C224 1.379 . S
C225 C227 1.369 1_565 S
C225 H236 0.930 . S
C226 C228 1.383 . S
C226 C229 1.382 . S
C226 H237 0.930 . S
C227 C225 1.369 1_545 S
C227 C229 1.392 . S
C227 H238 0.930 . S
C228 C224 1.373 1_545 S
C228 C226 1.383 . S
C228 H239 0.932 1_545 S
C229 C226 1.382 . S
C229 C227 1.392 . S
C230 Eu201 2.828 . S
C230 O214 1.249 . S
C230 O215 1.244 . S
C230 C224 1.505 . S
C231 O218 1.258 . S
C231 O219 1.242 . S
H232 C204 0.930 . S
H233 C205 0.930 . S
H234 C206 0.930 . S
H235 C207 0.931 . S
H236 C225 0.930 . S
H237 C226 0.930 . S
H238 C227 0.930 . S
H239 C228 0.932 1_565 S
C240 C241 1.363 1_554 S
C240 C246 1.379 1_565 S
C240 N248 1.356 . S
C241 C240 1.363 1_556 S
C241 C247 1.363 1_565 S
C242 C243 1.363 1_556 S
C242 C247 1.379 . S
C242 N249 1.356 . S
C243 C242 1.363 1_554 S
C243 C246 1.363 . S
N244 C246 1.356 . S
N244 H256 0.984 1_545 S
N244 H257 0.985 . S
N245 C247 1.356 1_565 S
N245 H250 0.984 . S
N245 H251 0.985 1_565 S
C246 C240 1.379 1_545 S
C246 C243 1.363 . S
C246 N244 1.356 . S
C247 C241 1.363 1_545 S
C247 C242 1.379 . S
C247 N245 1.356 1_545 S
N248 C240 1.356 . S
N248 H254 0.984 . S
N248 H255 0.984 1_554 S
N249 C242 1.356 . S
N249 H252 0.984 1_556 S
N249 H253 0.985 . S
H250 N245 0.984 . S
H251 N245 0.985 1_545 S
H252 N249 0.984 1_554 S
H253 N249 0.985 . S
H254 N248 0.984 . S
H255 N248 0.984 1_556 S
H256 N244 0.984 1_565 S
H257 N244 0.985 . S
C258 C259 1.363 . S
C258 C264 1.379 . S
C258 N266 1.356 . S
C259 C258 1.363 . S
C259 C265 1.363 . S
C260 C261 1.363 . S
C260 C265 1.379 . S
C260 N267 1.356 . S
C261 C260 1.363 . S
C261 C264 1.363 . S
N262 C264 1.356 . S
N262 H274 0.984 . S
N262 H275 0.985 . S
N263 C265 1.356 . S
N263 H268 0.984 . S
N263 H269 0.985 . S
C264 C258 1.379 . S
C264 C261 1.363 . S
C264 N262 1.356 . S
C265 C259 1.363 . S
C265 C260 1.379 . S
C265 N263 1.356 . S
N266 C258 1.356 . S
N266 H272 0.984 . S
N266 H273 0.984 . S
N267 C260 1.356 . S
N267 H270 0.984 . S
N267 H271 0.985 . S
H268 N263 0.984 . S
H269 N263 0.985 . S
H270 N267 0.984 . S
H271 N267 0.985 . S
H272 N266 0.984 . S
H273 N266 0.984 . S
H274 N262 0.984 . S
H275 N262 0.985 . S
C276 C277 1.363 . S
C276 C282 1.379 1_654 S
C276 N284 1.356 . S
C277 C276 1.363 . S
C277 C283 1.363 . S
C278 C279 1.363 . S
C278 C283 1.379 1_456 S
C278 N285 1.356 . S
C279 C278 1.363 . S
C279 C282 1.363 . S
N280 C282 1.356 . S
N280 H292 0.984 . S
N280 H293 0.985 . S
N281 C283 1.356 . S
N281 H286 0.984 . S
N281 H287 0.985 . S
C282 C276 1.379 1_456 S
C282 C279 1.363 . S
C282 N280 1.356 . S
C283 C277 1.363 . S
C283 C278 1.379 1_654 S
C283 N281 1.356 . S
N284 C276 1.356 . S
N284 H290 0.984 . S
N284 H291 0.984 . S
N285 C278 1.356 . S
N285 H288 0.984 . S
N285 H289 0.985 . S
H286 N281 0.984 . S
H287 N281 0.985 . S
H288 N285 0.984 . S
H289 N285 0.985 . S
H290 N284 0.984 . S
H291 N284 0.984 . S
H292 N280 0.984 . S
H293 N280 0.985 . S
C294 C295 1.363 1_565 S
C294 C300 1.379 . S
C294 N302 1.356 1_565 S
C295 C294 1.363 1_545 S
C295 C301 1.363 . S
C296 C297 1.363 . S
C296 C301 1.379 1_565 S
C296 N303 1.356 . S
C297 C296 1.363 . S
C297 C300 1.363 . S
N298 C300 1.356 . S
N298 H310 0.984 . S
N298 H311 0.985 . S
N299 C301 1.356 . S
N299 H304 0.984 . S
N299 H305 0.985 . S
C300 C294 1.379 . S
C300 C297 1.363 . S
C300 N298 1.356 . S
C301 C295 1.363 . S
C301 C296 1.379 1_545 S
C301 N299 1.356 . S
N302 C294 1.356 1_545 S
N302 H308 0.984 1_545 S
N302 H309 0.984 . S
N303 C296 1.356 . S
N303 H306 0.984 . S
N303 H307 0.985 1_565 S
H304 N299 0.984 . S
H305 N299 0.985 . S
H306 N303 0.984 . S
H307 N303 0.985 1_545 S
H308 N302 0.984 1_565 S
H309 N302 0.984 . S
H310 N298 0.984 . S
H311 N298 0.985 . S
C312 C313 1.363 . S
C312 C318 1.379 1_556 S
C312 N320 1.356 . S
C313 C312 1.363 . S
C313 C319 1.363 . S
C314 C315 1.363 . S
C314 C319 1.379 1_554 S
C314 N321 1.356 . S
C315 C314 1.363 . S
C315 C318 1.363 . S
N316 C318 1.356 . S
N316 H328 0.984 . S
N316 H329 0.985 . S
N317 C319 1.356 . S
N317 H322 0.984 . S
N317 H323 0.985 . S
C318 C312 1.379 1_554 S
C318 C315 1.363 . S
C318 N316 1.356 . S
C319 C313 1.363 . S
C319 C314 1.379 1_556 S
C319 N317 1.356 . S
N320 C312 1.356 . S
N320 H326 0.984 . S
N320 H327 0.984 . S
N321 C314 1.356 . S
N321 H324 0.984 . S
N321 H325 0.985 . S
H322 N317 0.984 . S
H323 N317 0.985 . S
H324 N321 0.984 . S
H325 N321 0.985 . S
H326 N320 0.984 . S
H327 N320 0.984 . S
H328 N316 0.984 . S
H329 N316 0.985 . S
C330 C331 1.363 1_455 S
C330 C336 1.379 . S
C330 N338 1.356 1_455 S
C331 C330 1.363 1_655 S
C331 C337 1.363 . S
C332 C333 1.363 . S
C332 C337 1.379 1_455 S
C332 N339 1.356 . S
C333 C332 1.363 . S
C333 C336 1.363 . S
N334 C336 1.356 . S
N334 H346 0.984 . S
N334 H347 0.985 . S
N335 C337 1.356 . S
N335 H340 0.984 . S
N335 H341 0.985 . S
C336 C330 1.379 . S
C336 C333 1.363 . S
C336 N334 1.356 . S
C337 C331 1.363 . S
C337 C332 1.379 1_655 S
C337 N335 1.356 . S
N338 C330 1.356 1_655 S
N338 H344 0.984 1_655 S
N338 H345 0.984 . S
N339 C332 1.356 . S
N339 H342 0.984 . S
N339 H343 0.985 1_455 S
H340 N335 0.984 . S
H341 N335 0.985 . S
H342 N339 0.984 . S
H343 N339 0.985 1_655 S
H344 N338 0.984 1_455 S
H345 N338 0.984 . S
H346 N334 0.984 . S
H347 N334 0.985 . S
C348 C349 1.363 . S
C348 C354 1.379 . S
C348 N356 1.356 . S
C349 C348 1.363 . S
C349 C355 1.363 . S
C350 C351 1.363 . S
C350 C355 1.379 . S
C350 N357 1.356 . S
C351 C350 1.363 . S
C351 C354 1.363 . S
N352 C354 1.356 . S
N352 H364 0.984 . S
N352 H365 0.985 . S
N353 C355 1.356 . S
N353 H358 0.984 . S
N353 H359 0.985 . S
C354 C348 1.379 . S
C354 C351 1.363 . S
C354 N352 1.356 . S
C355 C349 1.363 . S
C355 C350 1.379 . S
C355 N353 1.356 . S
N356 C348 1.356 . S
N356 H362 0.984 . S
N356 H363 0.984 . S
N357 C350 1.356 . S
N357 H360 0.984 . S
N357 H361 0.985 . S
H358 N353 0.984 . S
H359 N353 0.985 . S
H360 N357 0.984 . S
H361 N357 0.985 . S
H362 N356 0.984 . S
H363 N356 0.984 . S
H364 N352 0.984 . S
H365 N352 0.985 . S
C366 C367 1.363 . S
C366 C372 1.379 . S
C366 N374 1.356 . S
C367 C366 1.363 . S
C367 C373 1.363 . S
C368 C369 1.363 . S
C368 C373 1.379 . S
C368 N375 1.356 . S
C369 C368 1.363 . S
C369 C372 1.363 . S
N370 C372 1.356 . S
N370 H382 0.984 . S
N370 H383 0.985 . S
N371 C373 1.356 . S
N371 H376 0.984 . S
N371 H377 0.985 . S
C372 C366 1.379 . S
C372 C369 1.363 . S
C372 N370 1.356 . S
C373 C367 1.363 . S
C373 C368 1.379 . S
C373 N371 1.356 . S
N374 C366 1.356 . S
N374 H380 0.984 . S
N374 H381 0.984 . S
N375 C368 1.356 . S
N375 H378 0.984 . S
N375 H379 0.985 . S
H376 N371 0.984 . S
H377 N371 0.985 . S
H378 N375 0.984 . S
H379 N375 0.985 . S
H380 N374 0.984 . S
H381 N374 0.984 . S
H382 N370 0.984 . S
H383 N370 0.985 . S
C384 C385 1.363 . S
C384 C390 1.379 . S
C384 N392 1.356 . S
C385 C384 1.363 . S
C385 C391 1.363 . S
C386 C387 1.363 . S
C386 C391 1.379 . S
C386 N393 1.356 . S
C387 C386 1.363 . S
C387 C390 1.363 . S
N388 C390 1.356 . S
N388 H400 0.984 . S
N388 H401 0.985 . S
N389 C391 1.356 . S
N389 H394 0.984 . S
N389 H395 0.985 . S
C390 C384 1.379 . S
C390 C387 1.363 . S
C390 N388 1.356 . S
C391 C385 1.363 . S
C391 C386 1.379 . S
C391 N389 1.356 . S
N392 C384 1.356 . S
N392 H398 0.984 . S
N392 H399 0.984 . S
N393 C386 1.356 . S
N393 H396 0.984 . S
N393 H397 0.985 . S
H394 N389 0.984 . S
H395 N389 0.985 . S
H396 N393 0.984 . S
H397 N393 0.985 . S
H398 N392 0.984 . S
H399 N392 0.984 . S
H400 N388 0.984 . S
H401 N388 0.985 . S
C402 C403 1.363 . S
C402 C408 1.379 . S
C402 N410 1.356 . S
C403 C402 1.363 . S
C403 C409 1.363 . S
C404 C405 1.363 . S
C404 C409 1.379 . S
C404 N411 1.356 . S
C405 C404 1.363 . S
C405 C408 1.363 . S
N406 C408 1.356 . S
N406 H418 0.984 . S
N406 H419 0.985 . S
N407 C409 1.356 . S
N407 H412 0.984 . S
N407 H413 0.985 . S
C408 C402 1.379 . S
C408 C405 1.363 . S
C408 N406 1.356 . S
C409 C403 1.363 . S
C409 C404 1.379 . S
C409 N407 1.356 . S
N410 C402 1.356 . S
N410 H416 0.984 . S
N410 H417 0.984 . S
N411 C404 1.356 . S
N411 H414 0.984 . S
N411 H415 0.985 . S
H412 N407 0.984 . S
H413 N407 0.985 . S
H414 N411 0.984 . S
H415 N411 0.985 . S
H416 N410 0.984 . S
H417 N410 0.984 . S
H418 N406 0.984 . S
H419 N406 0.985 . S
C420 C421 1.363 . S
C420 C426 1.379 . S
C420 N428 1.356 . S
C421 C420 1.363 . S
C421 C427 1.363 . S
C422 C423 1.363 . S
C422 C427 1.379 . S
C422 N429 1.356 . S
C423 C422 1.363 . S
C423 C426 1.363 . S
N424 C426 1.356 . S
N424 H436 0.984 . S
N424 H437 0.985 . S
N425 C427 1.356 . S
N425 H430 0.984 . S
N425 H431 0.985 . S
C426 C420 1.379 . S
C426 C423 1.363 . S
C426 N424 1.356 . S
C427 C421 1.363 . S
C427 C422 1.379 . S
C427 N425 1.356 . S
N428 C420 1.356 . S
N428 H434 0.984 . S
N428 H435 0.984 . S
N429 C422 1.356 . S
N429 H432 0.984 . S
N429 H433 0.985 . S
H430 N425 0.984 . S
H431 N425 0.985 . S
H432 N429 0.984 . S
H433 N429 0.985 . S
H434 N428 0.984 . S
H435 N428 0.984 . S
H436 N424 0.984 . S
H437 N424 0.985 . S
C438 C439 1.363 . S
C438 C444 1.379 . S
C438 N446 1.356 . S
C439 C438 1.363 . S
C439 C445 1.363 . S
C440 C441 1.363 . S
C440 C445 1.379 . S
C440 N447 1.356 . S
C441 C440 1.363 . S
C441 C444 1.363 . S
N442 C444 1.356 . S
N442 H454 0.984 . S
N442 H455 0.985 . S
N443 C445 1.356 . S
N443 H448 0.984 . S
N443 H449 0.985 . S
C444 C438 1.379 . S
C444 C441 1.363 . S
C444 N442 1.356 . S
C445 C439 1.363 . S
C445 C440 1.379 . S
C445 N443 1.356 . S
N446 C438 1.356 . S
N446 H452 0.984 . S
N446 H453 0.984 . S
N447 C440 1.356 . S
N447 H450 0.984 . S
N447 H451 0.985 . S
H448 N443 0.984 . S
H449 N443 0.985 . S
H450 N447 0.984 . S
H451 N447 0.985 . S
H452 N446 0.984 . S
H453 N446 0.984 . S
H454 N442 0.984 . S
H455 N442 0.985 . S
C456 C457 1.363 . S
C456 C462 1.379 . S
C456 N464 1.356 . S
C457 C456 1.363 . S
C457 C463 1.363 1_455 S
C458 C459 1.363 1_655 S
C458 C463 1.379 . S
C458 N465 1.356 . S
C459 C458 1.363 1_455 S
C459 C462 1.363 . S
N460 C462 1.356 . S
N460 H472 0.984 . S
N460 H473 0.985 . S
N461 C463 1.356 . S
N461 H466 0.984 . S
N461 H467 0.985 . S
C462 C456 1.379 . S
C462 C459 1.363 . S
C462 N460 1.356 . S
C463 C457 1.363 1_655 S
C463 C458 1.379 . S
C463 N461 1.356 . S
N464 C456 1.356 . S
N464 H470 0.984 . S
N464 H471 0.984 . S
N465 C458 1.356 . S
N465 H468 0.984 . S
N465 H469 0.985 . S
H466 N461 0.984 . S
H467 N461 0.985 . S
H468 N465 0.984 . S
H469 N465 0.985 . S
H470 N464 0.984 . S
H471 N464 0.984 . S
H472 N460 0.984 . S
H473 N460 0.985 . S
C474 C475 1.363 . S
C474 C480 1.379 . S
C474 N482 1.356 . S
C475 C474 1.363 . S
C475 C481 1.363 . S
C476 C477 1.363 . S
C476 C481 1.379 . S
C476 N483 1.356 . S
C477 C476 1.363 . S
C477 C480 1.363 . S
N478 C480 1.356 . S
N478 H490 0.984 . S
N478 H491 0.985 1_565 S
N479 C481 1.356 . S
N479 H484 0.984 . S
N479 H485 0.985 . S
C480 C474 1.379 . S
C480 C477 1.363 . S
C480 N478 1.356 . S
C481 C475 1.363 . S
C481 C476 1.379 . S
C481 N479 1.356 . S
N482 C474 1.356 . S
N482 H488 0.984 . S
N482 H489 0.984 . S
N483 C476 1.356 . S
N483 H486 0.993 1_565 S
N483 H487 0.985 . S
H484 N479 0.984 . S
H485 N479 0.985 . S
H486 N483 0.993 1_545 S
H487 N483 0.985 . S
H488 N482 0.984 . S
H489 N482 0.984 . S
H490 N478 0.984 . S
H491 N478 0.985 1_545 S
C492 C493 1.363 . S
C492 C498 1.379 . S
C492 N500 1.356 . S
C493 C492 1.363 . S
C493 C499 1.363 . S
C494 C495 1.363 . S
C494 C499 1.379 . S
C494 N501 1.356 . S
C495 C494 1.363 . S
C495 C498 1.363 . S
N496 C498 1.356 . S
N496 H508 0.984 . S
N496 H509 0.985 . S
N497 C499 1.356 . S
N497 H502 0.984 . S
N497 H503 0.985 . S
C498 C492 1.379 . S
C498 C495 1.363 . S
C498 N496 1.356 . S
C499 C493 1.363 . S
C499 C494 1.379 . S
C499 N497 1.356 . S
N500 C492 1.356 . S
N500 H506 0.984 . S
N500 H507 0.984 . S
N501 C494 1.356 . S
N501 H504 0.984 . S
N501 H505 0.985 . S
H502 N497 0.984 . S
H503 N497 0.985 . S
H504 N501 0.984 . S
H505 N501 0.985 . S
H506 N500 0.984 . S
H507 N500 0.984 . S
H508 N496 0.984 . S
H509 N496 0.985 . S
C510 C511 1.363 . S
C510 C516 1.379 . S
C510 N518 1.356 . S
C511 C510 1.363 . S
C511 C517 1.363 . S
C512 C513 1.363 . S
C512 C517 1.379 . S
C512 N519 1.356 . S
C513 C512 1.363 . S
C513 C516 1.363 . S
N514 C516 1.347 1_565 S
N514 H526 0.981 . S
N514 H527 0.998 . S
N515 C517 1.356 . S
N515 H520 0.984 . S
N515 H521 0.985 . S
C516 C510 1.379 . S
C516 C513 1.363 . S
C516 N514 1.347 1_545 S
C517 C511 1.363 . S
C517 C512 1.379 . S
C517 N515 1.356 . S
N518 C510 1.356 . S
N518 H524 0.984 . S
N518 H525 0.984 . S
N519 C512 1.356 . S
N519 H522 0.984 . S
N519 H523 0.985 . S
H520 N515 0.984 . S
H521 N515 0.985 . S
H522 N519 0.984 . S
H523 N519 0.985 . S
H524 N518 0.984 . S
H525 N518 0.984 . S
H526 N514 0.981 . S
H527 N514 0.998 . S
C528 C529 1.363 . S
C528 C534 1.379 . S
C528 N536 1.356 . S
C529 C528 1.363 . S
C529 C535 1.363 . S
C530 C531 1.363 . S
C530 C535 1.379 . S
C530 N537 1.356 . S
C531 C530 1.363 . S
C531 C534 1.363 . S
N532 C534 1.356 . S
N532 H544 0.984 . S
N532 H545 0.985 . S
N533 C535 1.356 . S
N533 H538 0.984 . S
N533 H539 0.985 . S
C534 C528 1.379 . S
C534 C531 1.363 . S
C534 N532 1.356 . S
C535 C529 1.363 . S
C535 C530 1.379 . S
C535 N533 1.356 . S
N536 C528 1.356 . S
N536 H542 0.984 . S
N536 H543 0.984 . S
N537 C530 1.356 . S
N537 H540 0.984 . S
N537 H541 0.985 . S
H538 N533 0.984 . S
H539 N533 0.985 . S
H540 N537 0.984 . S
H541 N537 0.985 . S
H542 N536 0.984 . S
H543 N536 0.984 . S
H544 N532 0.984 . S
H545 N532 0.985 . S
C546 C547 1.363 . S
C546 C552 1.379 . S
C546 N554 1.356 . S
C547 C546 1.363 . S
C547 C553 1.357 1_655 S
C548 C549 1.363 . S
C548 C553 1.385 1_655 S
C548 N555 1.356 . S
C549 C548 1.363 . S
C549 C552 1.363 . S
N550 C552 1.356 . S
N550 H562 0.984 . S
N550 H563 0.985 . S
N551 C553 1.354 . S
N551 H556 0.984 . S
N551 H557 0.985 . S
C552 C546 1.379 . S
C552 C549 1.363 . S
C552 N550 1.356 . S
C553 C547 1.357 1_455 S
C553 C548 1.385 1_455 S
C553 N551 1.354 . S
N554 C546 1.356 . S
N554 H560 0.984 . S
N554 H561 0.984 . S
N555 C548 1.356 . S
N555 H558 0.984 . S
N555 H559 0.985 1_655 S
H556 N551 0.984 . S
H557 N551 0.985 . S
H558 N555 0.984 . S
H559 N555 0.985 1_455 S
H560 N554 0.984 . S
H561 N554 0.984 . S
H562 N550 0.984 . S
H563 N550 0.985 . S
C241 C162 2.620 . S
C243 C2 2.383 . S
C259 C217 2.383 . S
C261 C57 2.620 . S
C277 C82 2.383 . S
C279 C122 2.620 . S
C295 C17 2.620 . S
C297 C177 2.383 . S
C313 C202 2.620 . S
C315 C42 2.383 . S
C331 C97 2.620 . S
C333 C137 2.383 . S
C349 C29 1.981 . S
C351 C92 1.908 . S
C367 C69 1.981 . S
C369 C12 1.908 . S
C385 C109 1.981 . S
C387 C52 1.908 . S
C403 C128 1.981 . S
C405 C191 1.908 . S
C421 C168 1.981 . S
C423 C231 1.908 . S
C439 C151 1.908 . S
C441 C208 1.981 . S
C457 C8 1.381 . S
C459 C111 1.503 1_455 S
C475 C48 1.381 . S
C477 C31 1.503 1_565 S
C493 C88 1.381 . S
C495 C71 1.503 . S
C511 C149 1.381 . S
C513 C172 1.503 1_545 S
C529 C189 1.381 . S
C531 C212 1.503 . S
C547 C132 1.503 1_655 S
C549 C229 1.381 . S
