# Generated by pormake.
# Topology kag, (6)-cn, num edge types: 1
# Building blocks:
#     Node 0, Type 0, BuildingBlock: BETFEN_clean_sbu_0, # of connection points: 6
#     Node 1, Type 0, BuildingBlock: BETFEN_clean_sbu_0, # of connection points: 6
#     Node 2, Type 0, BuildingBlock: BETFEN_clean_sbu_0, # of connection points: 6
#     Edge 3, Type (0, 0), BuildingBlock: KIFKEQ_clean_linker_1, # of connection points: 2
#     Edge 4, Type (0, 0), BuildingBlock: KIFKEQ_clean_linker_1, # of connection points: 2
#     Edge 5, Type (0, 0), BuildingBlock: KIFKEQ_clean_linker_1, # of connection points: 2
#     Edge 6, Type (0, 0), BuildingBlock: KIFKEQ_clean_linker_1, # of connection points: 2
#     Edge 7, Type (0, 0), BuildingBlock: KIFKEQ_clean_linker_1, # of connection points: 2
#     Edge 8, Type (0, 0), BuildingBlock: KIFKEQ_clean_linker_1, # of connection points: 2
#     Edge 9, Type (0, 0), BuildingBlock: KIFKEQ_clean_linker_1, # of connection points: 2
#     Edge 10, Type (0, 0), BuildingBlock: KIFKEQ_clean_linker_1, # of connection points: 2
#     Edge 11, Type (0, 0), BuildingBlock: KIFKEQ_clean_linker_1, # of connection points: 2
# Relax obj value: 0.075
# Max RMSD: 0.194
# Mean RMSD: 0.101
data_MOF--net-kag--node1-BETFEN_clean_sbu_0--edge1-KIFKEQ_clean_linker_1
_symmetry_space_group_name_H-M    P1
_symmetry_Int_Tables_number       1
_symmetry_cell_setting            triclinic
loop_
_symmetry_equiv_pos_as_xyz
'x, y, z'
_cell_length_a     32.404111
_cell_length_b     43.038002
_cell_length_c     15.074864
_cell_angle_alpha  95.074049
_cell_angle_beta   91.170734
_cell_angle_gamma 97.78697
loop_
_atom_site_label
_atom_site_type_symbol
_atom_site_fract_x
_atom_site_fract_y
_atom_site_fract_z
_atom_type_partial_charge
Pr0 Pr 1.04978 0.47831 0.00967 0.0
Pr1 Pr 0.05777 0.54659 1.0 0.0
C2 C 1.03094 0.41848 0.05161 0.0
C3 C 0.99798 0.39122 0.03806 0.0
C4 C 0.97633 0.38318 0.9558 0.0
C5 C 0.94669 0.35618 0.94353 0.0
C6 C 0.938 0.33693 0.01347 0.0
C7 C 0.95912 0.34556 0.09626 0.0
C8 C 0.98887 0.37241 0.10829 0.0
C9 C 0.05588 0.49439 0.83373 0.0
C10 C 0.9617 0.51126 0.99315 0.0
C11 C 0.07551 0.60716 0.96371 0.0
C12 C 0.1079 0.63478 0.97795 0.0
C13 C 0.09566 0.66459 0.99677 0.0
C14 C 0.12539 0.69141 0.00887 0.0
C15 C 0.16809 0.68898 1.00226 0.0
C16 C 0.18035 0.65897 0.98379 0.0
C17 C 0.15049 0.63206 0.97201 0.0
C18 C 1.05121 0.52952 0.17493 0.0
C19 C 0.14592 0.51363 0.01396 0.0
O20 O 1.02257 0.44281 0.10286 0.0
O21 O 0.05241 0.42618 0.98245 0.0
O22 O 1.03398 0.50677 0.89191 0.0
O23 O 0.07397 0.47234 0.86482 0.0
O24 O 0.98554 0.53644 0.97027 0.0
O25 O 0.97883 0.48704 0.01802 0.0
O26 O 0.08355 0.58334 0.90986 0.0
O27 O 0.05513 0.59866 0.03341 0.0
O28 O 0.07413 0.51822 0.11702 0.0
O29 O 1.03115 0.55044 0.14344 0.0
O30 O 0.12219 0.48838 0.03676 0.0
O31 O 0.12871 0.53795 0.99005 0.0
H32 H 0.98261 0.39753 0.90082 0.0
H33 H 0.93057 0.35036 0.87933 0.0
H34 H 0.95351 0.33106 0.15114 0.0
H35 H 1.00528 0.37824 0.17222 0.0
H36 H 0.06294 0.66716 1.00139 0.0
H37 H 0.11483 0.71416 0.02169 0.0
H38 H 0.213 0.65629 0.97913 0.0
H39 H 0.16067 0.60922 0.95801 0.0
Pr40 Pr 0.60043 0.01663 0.99429 0.0
Pr41 Pr 0.50971 1.00812 0.01436 0.0
C42 C 0.67977 0.03592 0.9525 0.0
C43 C 0.70563 0.06667 0.94887 0.0
C44 C 0.7474 0.07081 0.97887 0.0
C45 C 0.77166 0.10034 0.98053 0.0
C46 C 0.75446 0.12632 0.95255 0.0
C47 C 0.71264 0.12197 0.92169 0.0
C48 C 0.6885 0.09242 0.9197 0.0
C49 C 0.57736 1.01057 0.1706 0.0
C50 C 0.55131 0.08075 0.01937 0.0
C51 C 0.43126 0.98782 0.05951 0.0
C52 C 0.40548 0.9568 0.0522 0.0
C53 C 0.41505 0.93244 0.99115 0.0
C54 C 0.39153 0.90259 0.98683 0.0
C55 C 0.35819 0.89651 0.04393 0.0
C56 C 0.34882 0.92101 0.10516 0.0
C57 C 0.37229 0.95091 0.10918 0.0
C58 C 0.53185 0.01375 0.83744 0.0
C59 C 0.55868 0.94386 0.98792 0.0
O60 O 0.64925 0.02859 0.89304 0.0
O61 O 0.66927 0.02844 0.03184 0.0
O62 O 0.56173 0.02764 0.11835 0.0
O63 O 0.60546 0.99579 0.13197 0.0
O64 O 0.51898 0.06268 0.04746 0.0
O65 O 0.58356 0.06823 0.98704 0.0
O66 O 0.46316 0.99115 0.11558 0.0
O67 O 0.44017 0.99998 0.98462 0.0
O68 O 0.5485 0.99729 0.89002 0.0
O69 O 0.50239 0.02719 0.8753 0.0
O70 O 0.59159 0.96199 0.96253 0.0
O71 O 0.526 0.95629 0.01804 0.0
H72 H 0.7611 0.05128 1.00222 0.0
H73 H 0.8036 0.10298 0.0057 0.0
H74 H 0.6986 0.14139 0.8987 0.0
H75 H 0.65633 0.08977 0.89601 0.0
H76 H 0.44096 0.93644 0.94736 0.0
H77 H 0.39989 0.88413 0.93982 0.0
H78 H 0.32308 0.91714 0.14941 0.0
H79 H 0.36467 0.96938 0.1571 0.0
Pr80 Pr 0.56256 0.54712 0.99678 0.0
Pr81 Pr 0.54499 0.47723 0.00811 0.0
C82 C 0.5712 0.60782 0.95688 0.0
C83 C 0.56133 0.64069 0.96498 0.0
C84 C 0.56585 0.65958 0.04663 0.0
C85 C 0.56259 0.69188 0.04994 0.0
C86 C 0.55502 0.70616 0.97165 0.0
C87 C 0.54909 0.6869 0.89063 0.0
C88 C 0.55225 0.65465 0.88742 0.0
C89 C 0.56374 0.52986 0.17293 0.0
C90 C 0.46326 0.51486 0.01211 0.0
C91 C 0.53701 0.41662 0.04916 0.0
C92 C 0.54618 0.38355 0.03566 0.0
C93 C 0.52996 0.36335 0.96087 0.0
C94 C 0.53307 0.33103 0.95591 0.0
C95 C 0.5524 0.31797 0.0256 0.0
C96 C 0.56988 0.33843 0.09891 0.0
C97 C 0.56666 0.37073 0.10395 0.0
C98 C 0.54403 0.49395 0.83157 0.0
C99 C 0.6443 0.50974 0.99335 0.0
O100 O 0.54607 0.58536 0.91143 0.0
O101 O 0.59144 0.59804 0.02252 0.0
O102 O 0.53706 0.5182 0.11264 0.0
O103 O 0.59013 0.55174 0.14385 0.0
O104 O 0.47875 0.4908 0.0423 0.0
O105 O 0.48844 0.53793 0.98064 0.0
O106 O 0.56484 0.43875 0.08832 0.0
O107 O 0.51335 0.42685 0.99006 0.0
O108 O 0.57031 0.50623 0.89208 0.0
O109 O 0.51895 0.47118 0.86013 0.0
O110 O 0.62882 0.53371 0.96269 0.0
O111 O 0.61912 0.48675 0.02518 0.0
H112 H 0.57323 0.64964 0.10759 0.0
H113 H 0.56765 0.70589 0.11347 0.0
H114 H 0.54251 0.69682 0.82918 0.0
H115 H 0.54895 0.64078 0.82346 0.0
H116 H 0.51372 0.37229 0.90717 0.0
H117 H 0.51982 0.31619 0.89774 0.0
H118 H 0.5846 0.32932 0.15436 0.0
H119 H 0.57887 0.38551 0.16311 0.0
H120 H 1.0279 0.54307 0.75495 0.0
H121 H 0.08195 0.45773 0.69511 0.0
H122 H 1.02783 0.55189 0.59707 0.0
H123 H 0.07987 0.46531 0.5373 0.0
H124 H 0.10686 0.50032 0.26592 0.0
H125 H 0.10891 0.49295 0.42453 0.0
H126 H 0.99693 0.53666 0.45757 0.0
H127 H 0.99658 0.54545 0.30025 0.0
C128 C 1.03938 0.52604 0.70782 0.0
C129 C 0.05494 0.49974 0.73762 0.0
C130 C 1.03911 0.5309 0.61687 0.0
C131 C 0.0538 0.50933 0.553 0.0
C132 C 0.06907 0.4829 0.58358 0.0
C133 C 0.06995 0.47835 0.67446 0.0
C134 C 0.08275 0.50833 0.30732 0.0
C135 C 0.05167 0.52357 0.27058 0.0
C136 C 0.08367 0.50394 0.39853 0.0
C137 C 0.05308 0.51419 0.4553 0.0
C138 C 1.02164 0.52901 0.41746 0.0
C139 C 1.02116 0.53383 0.32669 0.0
H140 H 0.53829 0.05221 0.27581 0.0
H141 H 0.59905 0.96934 0.28451 0.0
H142 H 0.52889 0.05371 0.43619 0.0
H143 H 0.58773 0.96952 0.44373 0.0
H144 H 0.59631 0.99274 0.74455 0.0
H145 H 0.60774 0.99275 0.58485 0.0
H146 H 0.49293 0.03185 0.5505 0.0
H147 H 0.48321 0.03345 0.71011 0.0
C148 C 0.54917 0.03406 0.31198 0.0
C149 C 0.56953 1.01074 0.26749 0.0
C150 C 0.54357 0.03473 0.40423 0.0
C151 C 0.55751 1.01173 0.45442 0.0
C152 C 0.5773 0.98811 0.40885 0.0
C153 C 0.58349 0.98779 0.31699 0.0
C154 C 0.5737 1.00144 0.70263 0.0
C155 C 0.53894 0.01315 0.74012 0.0
C156 C 0.57999 1.00123 0.61061 0.0
C157 C 0.55128 0.01227 0.55328 0.0
C158 C 0.51635 0.02375 0.59155 0.0
C159 C 0.5105 0.02443 0.68351 0.0
H160 H 0.50606 0.45702 0.68863 0.0
H161 H 0.58869 0.54347 0.75712 0.0
H162 H 0.51158 0.46482 0.53136 0.0
H163 H 0.5926 0.55251 0.59958 0.0
H164 H 0.62296 0.54756 0.30567 0.0
H165 H 0.61887 0.53869 0.46284 0.0
H166 H 0.49278 0.49149 0.41505 0.0
H167 H 0.49817 0.49895 0.257 0.0
C168 C 0.52514 0.47795 0.66999 0.0
C169 C 0.54705 0.49956 0.73558 0.0
C170 C 0.52807 0.48263 0.57929 0.0
C171 C 0.55247 0.50943 0.55107 0.0
C172 C 0.57409 0.53124 0.61738 0.0
C173 C 0.57166 0.52624 0.70821 0.0
C174 C 0.59445 0.53514 0.32887 0.0
C175 C 0.56093 0.52392 0.26869 0.0
C176 C 0.59187 0.53027 0.41958 0.0
C177 C 0.55538 0.51442 0.45339 0.0
C178 C 0.52179 0.50327 0.3925 0.0
C179 C 0.52468 0.50771 0.30146 0.0
H180 H 0.19144 0.46479 0.02852 0.0
H181 H 0.20666 0.56455 1.00112 0.0
H182 H 0.26657 0.46558 0.02689 0.0
H183 H 0.28221 0.56582 0.00356 0.0
H184 H 0.41669 0.5542 0.93065 0.0
H185 H 0.34133 0.55417 0.93031 0.0
H186 H 0.32964 0.47857 0.10259 0.0
H187 H 0.40446 0.47781 0.09929 0.0
C188 C 0.21083 0.48706 0.02314 0.0
C189 C 0.19254 0.5146 0.01507 0.0
C190 C 0.25435 0.48761 0.02284 0.0
C191 C 0.28146 0.51582 0.01561 0.0
C192 C 0.263 0.54343 0.00785 0.0
C193 C 0.21935 0.54279 0.00711 0.0
C194 C 0.39802 0.53757 0.96851 0.0
C195 C 0.41705 0.51592 0.01464 0.0
C196 C 0.3545 0.53765 0.96886 0.0
C197 C 0.32842 0.51626 0.01612 0.0
C198 C 0.34783 0.495 0.06344 0.0
C199 C 0.39119 0.49471 0.06223 0.0
H200 H 0.73089 0.18336 0.00891 0.0
H201 H 0.83556 0.14073 0.90625 0.0
H202 H 0.77303 0.23513 0.0183 0.0
H203 H 0.87801 0.19234 0.91813 0.0
H204 H 0.93068 0.29268 0.87021 0.0
H205 H 0.88447 0.24267 0.85105 0.0
H206 H 0.83283 0.26376 0.1078 0.0
H207 H 0.87825 0.31415 0.12585 0.0
C208 C 0.76282 0.18506 0.98787 0.0
C209 C 0.77989 0.15791 0.95685 0.0
C210 C 0.78707 0.21468 0.99409 0.0
C211 C 0.82888 0.21785 0.96903 0.0
C212 C 0.84578 0.19075 0.93708 0.0
C213 C 0.8216 0.16113 0.93122 0.0
C214 C 0.90901 0.28685 0.92193 0.0
C215 C 0.90819 0.30735 0.99965 0.0
C216 C 0.88287 0.25805 0.91139 0.0
C217 C 0.85515 0.24915 0.97812 0.0
C218 C 0.85361 0.27 0.05487 0.0
C219 C 0.87991 0.29873 0.0656 0.0
H220 H 0.49548 0.89952 0.03293 0.0
H221 H 0.62043 0.90894 0.93466 0.0
H222 H 0.49428 0.8427 0.0283 0.0
H223 H 0.6195 0.85203 0.93163 0.0
H224 H 0.58815 0.74614 0.8511 0.0
H225 H 0.58837 0.80283 0.85368 0.0
H226 H 0.52371 0.80265 0.10132 0.0
H227 H 0.5222 0.74566 0.09709 0.0
C228 C 0.52282 0.88954 0.01051 0.0
C229 C 0.55808 0.90901 0.98412 0.0
C230 C 0.52221 0.85684 0.00844 0.0
C231 C 0.55682 0.84255 0.97982 0.0
C232 C 0.59203 0.86203 0.95304 0.0
C233 C 0.59267 0.89478 0.9552 0.0
C234 C 0.57348 0.75805 0.90565 0.0
C235 C 0.55494 0.74107 0.97365 0.0
C236 C 0.57411 0.79076 0.90772 0.0
C237 C 0.55614 0.80756 0.97777 0.0
C238 C 0.5375 0.79058 0.04574 0.0
C239 C 0.53701 0.75785 0.04383 0.0
H240 H 0.91616 0.56004 0.9774 0.0
H241 H 0.901 0.46036 0.00594 0.0
H242 H 0.84101 0.55922 0.97872 0.0
H243 H 0.82544 0.45904 0.00315 0.0
H244 H 0.69093 0.47059 0.07554 0.0
H245 H 0.76631 0.47073 0.07617 0.0
H246 H 0.77793 0.5461 0.90312 0.0
H247 H 0.70309 0.54677 0.90614 0.0
C248 C 0.89678 0.53778 0.98292 0.0
C249 C 0.91508 0.51028 0.99144 0.0
C250 C 0.85324 0.53721 0.98306 0.0
C251 C 0.82615 0.50901 0.99056 0.0
C252 C 0.84463 0.48143 0.99867 0.0
C253 C 0.88828 0.4821 0.99959 0.0
C254 C 0.70959 0.48719 0.03757 0.0
C255 C 0.69053 0.50875 0.99112 0.0
C256 C 0.75312 0.48718 0.03739 0.0
C257 C 0.77919 0.50853 0.98998 0.0
C258 C 0.75976 0.5297 0.94238 0.0
C259 C 0.71639 0.52994 0.94343 0.0
H260 H 0.17002 0.73969 0.12576 0.0
H261 H 0.23675 0.70361 0.90291 0.0
H262 H 0.21782 0.78874 0.13646 0.0
H263 H 0.28571 0.75232 0.91578 0.0
H264 H 0.32873 0.85822 0.89524 0.0
H265 H 0.28572 0.80692 0.88799 0.0
H266 H 0.2886 0.81155 0.17561 0.0
H267 H 0.33126 0.86301 0.18268 0.0
C268 C 0.19507 0.74218 0.07932 0.0
C269 C 0.19937 0.71783 0.01305 0.0
C270 C 0.2228 0.77018 0.08611 0.0
C271 C 0.25559 0.77455 0.02684 0.0
C272 C 0.26049 0.74989 0.96182 0.0
C273 C 0.23273 0.72183 0.95509 0.0
C274 C 0.32053 0.84812 0.95688 0.0
C275 C 0.33319 0.86476 0.03954 0.0
C276 C 0.29596 0.81867 0.95276 0.0
C277 C 0.28358 0.80511 0.03123 0.0
C278 C 0.29694 0.82153 0.11389 0.0
C279 C 0.32138 0.85103 0.11799 0.0
H280 H 0.61552 0.28634 0.08006 0.0
H281 H 0.48998 0.27024 0.96768 0.0
H282 H 0.61502 0.22963 0.0816 0.0
H283 H 0.49 0.21356 0.96645 0.0
H284 H 0.48772 0.11512 0.06289 0.0
H285 H 0.48831 0.17201 0.06522 0.0
H286 H 0.61607 0.18221 0.98375 0.0
H287 H 0.6157 0.12561 0.98315 0.0
C288 C 0.58779 0.27076 0.05556 0.0
C289 C 0.55282 0.28309 0.02364 0.0
C290 C 0.58764 0.23812 0.05563 0.0
C291 C 0.55244 0.2168 0.02419 0.0
C292 C 0.51751 0.22914 0.99215 0.0
C293 C 0.51772 0.26175 0.99174 0.0
C294 C 0.516 0.12949 0.04575 0.0
C295 C 0.55162 0.11557 0.02253 0.0
C296 C 0.51626 0.16218 0.04646 0.0
C297 C 0.55221 0.18192 0.0244 0.0
C298 C 0.58792 0.16797 1.00204 0.0
C299 C 0.5876 0.13532 1.00102 0.0
loop_
_geom_bond_atom_site_label_1
_geom_bond_atom_site_label_2
_geom_bond_distance
_geom_bond_site_symmetry_2
_ccdc_geom_bond_type
Pr0 C2 2.880 . S
Pr0 O20 2.562 1_556 S
Pr0 O21 2.490 . S
Pr0 O22 2.695 1_655 S
Pr0 O23 2.512 . S
Pr0 O25 2.437 . S
Pr0 O28 2.436 1_556 S
Pr0 O30 2.438 1_655 S
Pr1 C11 2.880 . S
Pr1 O22 2.436 1_554 S
Pr1 O24 2.438 1_455 S
Pr1 O26 2.562 1_554 S
Pr1 O27 2.490 . S
Pr1 O28 2.695 1_455 S
Pr1 O29 2.512 . S
Pr1 O31 2.437 . S
C2 Pr0 2.880 . S
C2 C3 1.491 . S
C2 O20 1.254 1_556 S
C2 O21 1.225 . S
C3 C2 1.491 . S
C3 C4 1.392 . S
C3 C8 1.356 1_556 S
C4 C3 1.392 . S
C4 C5 1.368 . S
C4 H32 0.929 . S
C5 C4 1.368 . S
C5 C6 1.386 . S
C5 H33 0.929 . S
C6 C5 1.386 . S
C6 C7 1.373 1_556 S
C7 C6 1.373 1_554 S
C7 C8 1.409 . S
C7 H34 0.931 . S
C8 C3 1.356 1_554 S
C8 C7 1.409 . S
C8 H35 0.930 . S
C9 O22 1.270 . S
C9 O23 1.248 1_455 S
C10 O24 1.267 1_556 S
C10 O25 1.278 . S
C11 Pr1 2.880 . S
C11 C12 1.491 . S
C11 O26 1.254 1_554 S
C11 O27 1.225 . S
C12 C11 1.491 . S
C12 C13 1.392 . S
C12 C17 1.356 1_554 S
C13 C12 1.392 . S
C13 C14 1.368 . S
C13 H36 0.929 . S
C14 C13 1.368 . S
C14 C15 1.386 . S
C14 H37 0.929 . S
C15 C14 1.386 . S
C15 C16 1.373 1_554 S
C16 C15 1.373 1_556 S
C16 C17 1.409 . S
C16 H38 0.931 . S
C17 C12 1.356 1_556 S
C17 C16 1.409 . S
C17 H39 0.930 . S
C18 O28 1.270 1_455 S
C18 O29 1.248 . S
C19 O30 1.267 1_554 S
C19 O31 1.278 . S
O20 Pr0 2.562 1_554 S
O20 C2 1.254 1_554 S
O21 Pr0 2.490 . S
O21 C2 1.225 . S
O22 Pr0 2.695 1_455 S
O22 Pr1 2.436 1_556 S
O22 C9 1.270 . S
O23 Pr0 2.512 . S
O23 C9 1.248 1_655 S
O24 Pr1 2.438 1_655 S
O24 C10 1.267 1_554 S
O25 Pr0 2.437 . S
O25 C10 1.278 . S
O26 Pr1 2.562 1_556 S
O26 C11 1.254 1_556 S
O27 Pr1 2.490 . S
O27 C11 1.225 . S
O28 Pr0 2.436 1_554 S
O28 Pr1 2.695 1_655 S
O28 C18 1.270 1_655 S
O29 Pr1 2.512 . S
O29 C18 1.248 . S
O30 Pr0 2.438 1_455 S
O30 C19 1.267 1_556 S
O31 Pr1 2.437 . S
O31 C19 1.278 . S
H32 C4 0.929 . S
H33 C5 0.929 . S
H34 C7 0.931 . S
H35 C8 0.930 . S
H36 C13 0.929 . S
H37 C14 0.929 . S
H38 C16 0.931 . S
H39 C17 0.930 . S
Pr40 C42 2.880 . S
Pr40 O60 2.562 1_554 S
Pr40 O61 2.490 . S
Pr40 O62 2.695 1_545 S
Pr40 O63 2.512 . S
Pr40 O65 2.437 . S
Pr40 O68 2.436 1_554 S
Pr40 O70 2.438 1_545 S
Pr41 C51 2.880 . S
Pr41 O62 2.436 1_556 S
Pr41 O64 2.438 1_565 S
Pr41 O66 2.562 1_556 S
Pr41 O67 2.490 . S
Pr41 O68 2.695 1_565 S
Pr41 O69 2.512 . S
Pr41 O71 2.437 . S
C42 Pr40 2.880 . S
C42 C43 1.491 1_554 S
C42 O60 1.254 1_554 S
C42 O61 1.225 . S
C43 C42 1.491 1_556 S
C43 C44 1.390 1_556 S
C43 C48 1.358 . S
C44 C43 1.390 1_554 S
C44 C45 1.368 . S
C44 H72 0.929 . S
C45 C44 1.368 . S
C45 C46 1.386 1_554 S
C45 H73 0.929 . S
C46 C45 1.386 1_556 S
C46 C47 1.373 . S
C47 C46 1.373 . S
C47 C48 1.409 . S
C47 H74 0.931 . S
C48 C43 1.358 . S
C48 C47 1.409 . S
C48 H75 0.930 . S
C49 O62 1.270 1_545 S
C49 O63 1.248 . S
C50 O64 1.266 1_554 S
C50 O65 1.278 . S
C51 Pr41 2.880 . S
C51 C52 1.490 1_556 S
C51 O66 1.254 1_556 S
C51 O67 1.225 . S
C52 C51 1.490 1_554 S
C52 C53 1.386 1_554 S
C52 C57 1.362 . S
C53 C52 1.386 1_556 S
C53 C54 1.368 . S
C53 H76 0.929 . S
C54 C53 1.368 . S
C54 C55 1.386 1_556 S
C54 H77 0.929 . S
C55 C54 1.386 1_554 S
C55 C56 1.373 . S
C56 C55 1.373 . S
C56 C57 1.409 . S
C56 H78 0.931 . S
C57 C52 1.362 . S
C57 C56 1.409 . S
C57 H79 0.930 . S
C58 O68 1.270 1_565 S
C58 O69 1.248 . S
C59 O70 1.267 1_556 S
C59 O71 1.278 . S
O60 Pr40 2.562 1_556 S
O60 C42 1.254 1_556 S
O61 Pr40 2.490 . S
O61 C42 1.225 . S
O62 Pr40 2.695 1_565 S
O62 Pr41 2.436 1_554 S
O62 C49 1.270 1_565 S
O63 Pr40 2.512 . S
O63 C49 1.248 . S
O64 Pr41 2.438 1_545 S
O64 C50 1.266 1_556 S
O65 Pr40 2.437 . S
O65 C50 1.278 . S
O66 Pr41 2.562 1_554 S
O66 C51 1.254 1_554 S
O67 Pr41 2.490 . S
O67 C51 1.225 . S
O68 Pr40 2.436 1_556 S
O68 Pr41 2.695 1_545 S
O68 C58 1.270 1_545 S
O69 Pr41 2.512 . S
O69 C58 1.248 . S
O70 Pr40 2.438 1_565 S
O70 C59 1.267 1_554 S
O71 Pr41 2.437 . S
O71 C59 1.278 . S
H72 C44 0.929 . S
H73 C45 0.929 . S
H74 C47 0.931 . S
H75 C48 0.930 . S
H76 C53 0.929 . S
H77 C54 0.929 . S
H78 C56 0.931 . S
H79 C57 0.930 . S
Pr80 C82 2.880 . S
Pr80 O100 2.562 1_554 S
Pr80 O101 2.490 . S
Pr80 O102 2.695 . S
Pr80 O103 2.512 . S
Pr80 O105 2.437 . S
Pr80 O108 2.436 1_554 S
Pr80 O110 2.438 . S
Pr81 C91 2.880 . S
Pr81 O102 2.436 1_556 S
Pr81 O104 2.438 . S
Pr81 O106 2.562 1_556 S
Pr81 O107 2.490 . S
Pr81 O108 2.695 . S
Pr81 O109 2.512 . S
Pr81 O111 2.437 . S
C82 Pr80 2.880 . S
C82 C83 1.491 . S
C82 O100 1.254 1_554 S
C82 O101 1.225 . S
C83 C82 1.491 . S
C83 C84 1.392 . S
C83 C88 1.356 1_554 S
C84 C83 1.392 . S
C84 C85 1.368 . S
C84 H112 0.929 . S
C85 C84 1.368 . S
C85 C86 1.392 . S
C85 H113 0.929 . S
C86 C85 1.392 . S
C86 C87 1.368 1_554 S
C87 C86 1.368 1_556 S
C87 C88 1.409 . S
C87 H114 0.931 . S
C88 C83 1.356 1_556 S
C88 C87 1.409 . S
C88 H115 0.930 . S
C89 O102 1.270 . S
C89 O103 1.248 . S
C90 O104 1.267 1_554 S
C90 O105 1.278 . S
C91 Pr81 2.880 . S
C91 C92 1.491 . S
C91 O106 1.254 1_556 S
C91 O107 1.225 . S
C92 C91 1.491 . S
C92 C93 1.392 . S
C92 C97 1.356 1_556 S
C93 C92 1.392 . S
C93 C94 1.368 . S
C93 H116 0.929 . S
C94 C93 1.368 . S
C94 C95 1.387 . S
C94 H117 0.929 . S
C95 C94 1.387 . S
C95 C96 1.372 1_556 S
C96 C95 1.372 1_554 S
C96 C97 1.409 . S
C96 H118 0.931 . S
C97 C92 1.356 1_554 S
C97 C96 1.409 . S
C97 H119 0.930 . S
C98 O108 1.270 . S
C98 O109 1.248 . S
C99 O110 1.267 1_556 S
C99 O111 1.278 . S
O100 Pr80 2.562 1_556 S
O100 C82 1.254 1_556 S
O101 Pr80 2.490 . S
O101 C82 1.225 . S
O102 Pr80 2.695 . S
O102 Pr81 2.436 1_554 S
O102 C89 1.270 . S
O103 Pr80 2.512 . S
O103 C89 1.248 . S
O104 Pr81 2.438 . S
O104 C90 1.267 1_556 S
O105 Pr80 2.437 . S
O105 C90 1.278 . S
O106 Pr81 2.562 1_554 S
O106 C91 1.254 1_554 S
O107 Pr81 2.490 . S
O107 C91 1.225 . S
O108 Pr80 2.436 1_556 S
O108 Pr81 2.695 . S
O108 C98 1.270 . S
O109 Pr81 2.512 . S
O109 C98 1.248 . S
O110 Pr80 2.438 . S
O110 C99 1.267 1_554 S
O111 Pr81 2.437 . S
O111 C99 1.278 . S
H112 C84 0.929 . S
H113 C85 0.929 . S
H114 C87 0.931 . S
H115 C88 0.930 . S
H116 C93 0.929 . S
H117 C94 0.929 . S
H118 C96 0.931 . S
H119 C97 0.930 . S
H120 C128 0.950 . S
H121 C133 0.950 . S
H122 C130 0.950 . S
H123 C132 0.950 . S
H124 C134 0.950 . S
H125 C136 0.950 . S
H126 C138 0.950 . S
H127 C139 0.950 . S
C128 H120 0.950 . S
C128 C129 1.386 1_655 S
C128 C130 1.391 . S
C129 C128 1.386 1_455 S
C129 C133 1.393 . S
C130 H122 0.950 . S
C130 C128 1.391 . S
C130 C131 1.400 1_655 S
C131 C130 1.400 1_455 S
C131 C132 1.398 . S
C131 C137 1.491 . S
C132 H123 0.950 . S
C132 C131 1.398 . S
C132 C133 1.391 . S
C133 H121 0.950 . S
C133 C129 1.393 . S
C133 C132 1.391 . S
C134 H124 0.950 . S
C134 C135 1.387 . S
C134 C136 1.391 . S
C135 C134 1.387 . S
C135 C139 1.392 1_455 S
C136 H125 0.950 . S
C136 C134 1.391 . S
C136 C137 1.400 . S
C137 C131 1.491 . S
C137 C136 1.400 . S
C137 C138 1.398 1_455 S
C138 H126 0.950 . S
C138 C137 1.398 1_655 S
C138 C139 1.391 . S
C139 H127 0.950 . S
C139 C135 1.392 1_655 S
C139 C138 1.391 . S
H140 C148 0.950 . S
H141 C153 0.950 . S
H142 C150 0.950 . S
H143 C152 0.950 . S
H144 C154 0.950 . S
H145 C156 0.950 . S
H146 C158 0.950 . S
H147 C159 0.950 . S
C148 H140 0.950 . S
C148 C149 1.392 . S
C148 C150 1.391 . S
C149 C148 1.392 . S
C149 C153 1.386 1_545 S
C150 H142 0.950 . S
C150 C148 1.391 . S
C150 C151 1.399 . S
C151 C150 1.399 . S
C151 C152 1.399 1_545 S
C151 C157 1.491 . S
C152 H143 0.950 . S
C152 C151 1.399 1_565 S
C152 C153 1.391 . S
C153 H141 0.950 . S
C153 C149 1.386 1_565 S
C153 C152 1.391 . S
C154 H144 0.950 . S
C154 C155 1.385 . S
C154 C156 1.391 . S
C155 C154 1.385 . S
C155 C159 1.394 1_565 S
C156 H145 0.950 . S
C156 C154 1.391 . S
C156 C157 1.399 1_565 S
C157 C151 1.491 . S
C157 C156 1.399 1_545 S
C157 C158 1.399 . S
C158 H146 0.950 . S
C158 C157 1.399 . S
C158 C159 1.391 . S
C159 H147 0.950 . S
C159 C155 1.394 1_545 S
C159 C158 1.391 . S
H160 C168 0.950 . S
H161 C173 0.950 . S
H162 C170 0.950 . S
H163 C172 0.950 . S
H164 C174 0.950 . S
H165 C176 0.950 . S
H166 C178 0.950 . S
H167 C179 0.950 . S
C168 H160 0.950 . S
C168 C169 1.386 . S
C168 C170 1.391 . S
C169 C168 1.386 . S
C169 C173 1.393 . S
C170 H162 0.950 . S
C170 C168 1.391 . S
C170 C171 1.400 . S
C171 C170 1.400 . S
C171 C172 1.398 . S
C171 C177 1.491 . S
C172 H163 0.950 . S
C172 C171 1.398 . S
C172 C173 1.391 . S
C173 H161 0.950 . S
C173 C169 1.393 . S
C173 C172 1.391 . S
C174 H164 0.950 . S
C174 C175 1.386 . S
C174 C176 1.391 . S
C175 C174 1.386 . S
C175 C179 1.393 . S
C176 H165 0.950 . S
C176 C174 1.391 . S
C176 C177 1.400 . S
C177 C171 1.491 . S
C177 C176 1.400 . S
C177 C178 1.398 . S
C178 H166 0.950 . S
C178 C177 1.398 . S
C178 C179 1.391 . S
C179 H167 0.950 . S
C179 C175 1.393 . S
C179 C178 1.391 . S
H180 C188 0.950 . S
H181 C193 0.950 . S
H182 C190 0.950 . S
H183 C192 0.950 . S
H184 C194 0.950 . S
H185 C196 0.950 . S
H186 C198 0.950 . S
H187 C199 0.950 . S
C188 H180 0.950 . S
C188 C189 1.386 . S
C188 C190 1.391 . S
C189 C188 1.386 . S
C189 C193 1.393 1_556 S
C190 H182 0.950 . S
C190 C188 1.391 . S
C190 C191 1.400 . S
C191 C190 1.400 . S
C191 C192 1.398 1_556 S
C191 C197 1.491 . S
C192 H183 0.950 . S
C192 C191 1.398 1_554 S
C192 C193 1.391 . S
C193 H181 0.950 . S
C193 C189 1.393 1_554 S
C193 C192 1.391 . S
C194 H184 0.950 . S
C194 C195 1.386 1_554 S
C194 C196 1.391 . S
C195 C194 1.386 1_556 S
C195 C199 1.393 . S
C196 H185 0.950 . S
C196 C194 1.391 . S
C196 C197 1.400 1_554 S
C197 C191 1.491 . S
C197 C196 1.400 1_556 S
C197 C198 1.398 . S
C198 H186 0.950 . S
C198 C197 1.398 . S
C198 C199 1.391 . S
C199 H187 0.950 . S
C199 C195 1.393 . S
C199 C198 1.391 . S
H200 C208 0.949 1_554 S
H201 C213 0.950 . S
H202 C210 0.951 1_554 S
H203 C212 0.950 1_554 S
H204 C214 0.950 . S
H205 C216 0.950 . S
H206 C218 0.950 . S
H207 C219 0.950 . S
C208 H200 0.949 1_556 S
C208 C209 1.385 . S
C208 C210 1.391 . S
C209 C208 1.385 . S
C209 C213 1.393 . S
C210 H202 0.951 1_556 S
C210 C208 1.391 . S
C210 C211 1.401 . S
C211 C210 1.401 . S
C211 C212 1.398 . S
C211 C217 1.491 . S
C212 H203 0.950 1_556 S
C212 C211 1.398 . S
C212 C213 1.391 . S
C213 H201 0.950 . S
C213 C209 1.393 . S
C213 C212 1.391 . S
C214 H204 0.950 . S
C214 C215 1.386 . S
C214 C216 1.391 . S
C215 C214 1.386 . S
C215 C219 1.393 . S
C216 H205 0.950 . S
C216 C214 1.391 . S
C216 C217 1.400 . S
C217 C211 1.491 . S
C217 C216 1.400 . S
C217 C218 1.398 . S
C218 H206 0.950 . S
C218 C217 1.398 . S
C218 C219 1.391 . S
C219 H207 0.950 . S
C219 C215 1.393 . S
C219 C218 1.391 . S
H220 C228 0.950 . S
H221 C233 0.950 . S
H222 C230 0.950 . S
H223 C232 0.950 . S
H224 C234 0.950 . S
H225 C236 0.950 . S
H226 C238 0.950 . S
H227 C239 0.950 . S
C228 H220 0.950 . S
C228 C229 1.386 1_554 S
C228 C230 1.391 . S
C229 C228 1.386 1_556 S
C229 C233 1.393 . S
C230 H222 0.950 . S
C230 C228 1.391 . S
C230 C231 1.400 1_554 S
C231 C230 1.400 1_556 S
C231 C232 1.398 . S
C231 C237 1.491 . S
C232 H223 0.950 . S
C232 C231 1.398 . S
C232 C233 1.391 . S
C233 H221 0.950 . S
C233 C229 1.393 . S
C233 C232 1.391 . S
C234 H224 0.950 . S
C234 C235 1.385 . S
C234 C236 1.391 . S
C235 C234 1.385 . S
C235 C239 1.393 1_556 S
C236 H225 0.950 . S
C236 C234 1.391 . S
C236 C237 1.400 . S
C237 C231 1.491 . S
C237 C236 1.400 . S
C237 C238 1.398 1_556 S
C238 H226 0.950 . S
C238 C237 1.398 1_554 S
C238 C239 1.391 . S
C239 H227 0.950 . S
C239 C235 1.393 1_554 S
C239 C238 1.391 . S
H240 C248 0.950 . S
H241 C253 0.950 . S
H242 C250 0.950 . S
H243 C252 0.950 . S
H244 C254 0.950 . S
H245 C256 0.950 . S
H246 C258 0.950 . S
H247 C259 0.950 . S
C248 H240 0.950 . S
C248 C249 1.386 1_556 S
C248 C250 1.391 . S
C249 C248 1.386 1_554 S
C249 C253 1.393 . S
C250 H242 0.950 . S
C250 C248 1.391 . S
C250 C251 1.400 1_556 S
C251 C250 1.400 1_554 S
C251 C252 1.398 . S
C251 C257 1.491 . S
C252 H243 0.950 . S
C252 C251 1.398 . S
C252 C253 1.391 . S
C253 H241 0.950 . S
C253 C249 1.393 . S
C253 C252 1.391 . S
C254 H244 0.950 . S
C254 C255 1.386 . S
C254 C256 1.391 . S
C255 C254 1.386 . S
C255 C259 1.393 1_554 S
C256 H245 0.950 . S
C256 C254 1.391 . S
C256 C257 1.400 . S
C257 C251 1.491 . S
C257 C256 1.400 . S
C257 C258 1.398 1_554 S
C258 H246 0.950 . S
C258 C257 1.398 1_556 S
C258 C259 1.391 . S
C259 H247 0.950 . S
C259 C255 1.393 1_556 S
C259 C258 1.391 . S
H260 C268 0.950 . S
H261 C273 0.950 . S
H262 C270 0.950 . S
H263 C272 0.950 . S
H264 C274 0.950 . S
H265 C276 0.950 . S
H266 C278 0.950 . S
H267 C279 0.950 . S
C268 H260 0.950 . S
C268 C269 1.387 1_554 S
C268 C270 1.391 . S
C269 C268 1.387 1_556 S
C269 C273 1.392 . S
C270 H262 0.950 . S
C270 C268 1.391 . S
C270 C271 1.400 . S
C271 C270 1.400 . S
C271 C272 1.398 1_554 S
C271 C277 1.491 . S
C272 H263 0.950 . S
C272 C271 1.398 1_556 S
C272 C273 1.391 . S
C273 H261 0.950 . S
C273 C269 1.392 . S
C273 C272 1.391 . S
C274 H264 0.950 . S
C274 C275 1.386 1_556 S
C274 C276 1.391 . S
C275 C274 1.386 1_554 S
C275 C279 1.393 . S
C276 H265 0.950 . S
C276 C274 1.391 . S
C276 C277 1.400 1_556 S
C277 C271 1.491 . S
C277 C276 1.400 1_554 S
C277 C278 1.398 . S
C278 H266 0.950 . S
C278 C277 1.398 . S
C278 C279 1.391 . S
C279 H267 0.950 . S
C279 C275 1.393 . S
C279 C278 1.391 . S
H280 C288 0.950 . S
H281 C293 0.950 . S
H282 C290 0.950 . S
H283 C292 0.950 . S
H284 C294 0.950 . S
H285 C296 0.950 . S
H286 C298 0.950 . S
H287 C299 0.950 . S
C288 H280 0.950 . S
C288 C289 1.386 . S
C288 C290 1.391 . S
C289 C288 1.386 . S
C289 C293 1.393 1_554 S
C290 H282 0.950 . S
C290 C288 1.391 . S
C290 C291 1.400 . S
C291 C290 1.400 . S
C291 C292 1.398 1_554 S
C291 C297 1.491 . S
C292 H283 0.950 . S
C292 C291 1.398 1_556 S
C292 C293 1.391 . S
C293 H281 0.950 . S
C293 C289 1.393 1_556 S
C293 C292 1.391 . S
C294 H284 0.950 . S
C294 C295 1.382 1_556 S
C294 C296 1.391 . S
C295 C294 1.382 1_554 S
C295 C299 1.396 . S
C296 H285 0.950 . S
C296 C294 1.391 . S
C296 C297 1.400 1_556 S
C297 C291 1.491 . S
C297 C296 1.400 1_554 S
C297 C298 1.398 . S
C298 H286 0.950 . S
C298 C297 1.398 . S
C298 C299 1.391 . S
C299 H287 0.950 . S
C299 C295 1.396 . S
C299 C298 1.391 . S
C129 C9 1.463 . S
C135 C18 1.463 . S
C149 C49 1.462 . S
C155 C58 1.461 . S
C169 C98 1.465 . S
C175 C89 1.465 . S
C189 C19 2.614 1_556 S
C195 C90 2.559 1_556 S
C209 C46 0.881 . S
C215 C6 0.878 . S
C229 C59 2.021 . S
C235 C86 1.971 1_556 S
C249 C10 2.611 1_554 S
C255 C99 2.565 1_554 S
C269 C15 0.890 1_556 S
C275 C55 0.892 . S
C289 C95 1.972 1_554 S
C295 C50 2.026 . S
