# Generated by pormake.
# Topology umm, (4)-cn, num edge types: 1
# Building blocks:
#     Node 0, Type 0, BuildingBlock: QUQFOY_clean_sbu_1, # of connection points: 4
#     Node 1, Type 0, BuildingBlock: QUQFOY_clean_sbu_1, # of connection points: 4
#     Node 2, Type 0, BuildingBlock: QUQFOY_clean_sbu_1, # of connection points: 4
#     Node 3, Type 0, BuildingBlock: QUQFOY_clean_sbu_1, # of connection points: 4
#     Node 4, Type 0, BuildingBlock: QUQFOY_clean_sbu_1, # of connection points: 4
#     Node 5, Type 0, BuildingBlock: QUQFOY_clean_sbu_1, # of connection points: 4
#     Node 6, Type 0, BuildingBlock: QUQFOY_clean_sbu_1, # of connection points: 4
#     Node 7, Type 0, BuildingBlock: QUQFOY_clean_sbu_1, # of connection points: 4
#     Node 8, Type 0, BuildingBlock: QUQFOY_clean_sbu_1, # of connection points: 4
#     Node 9, Type 0, BuildingBlock: QUQFOY_clean_sbu_1, # of connection points: 4
#     Node 10, Type 0, BuildingBlock: QUQFOY_clean_sbu_1, # of connection points: 4
#     Node 11, Type 0, BuildingBlock: QUQFOY_clean_sbu_1, # of connection points: 4
#     Edge 12, Type (0, 0), BuildingBlock: ZUJKAS_clean_linker_0, # of connection points: 2
#     Edge 13, Type (0, 0), BuildingBlock: ZUJKAS_clean_linker_0, # of connection points: 2
#     Edge 14, Type (0, 0), BuildingBlock: ZUJKAS_clean_linker_0, # of connection points: 2
#     Edge 15, Type (0, 0), BuildingBlock: ZUJKAS_clean_linker_0, # of connection points: 2
#     Edge 16, Type (0, 0), BuildingBlock: ZUJKAS_clean_linker_0, # of connection points: 2
#     Edge 17, Type (0, 0), BuildingBlock: ZUJKAS_clean_linker_0, # of connection points: 2
#     Edge 18, Type (0, 0), BuildingBlock: ZUJKAS_clean_linker_0, # of connection points: 2
#     Edge 19, Type (0, 0), BuildingBlock: ZUJKAS_clean_linker_0, # of connection points: 2
#     Edge 20, Type (0, 0), BuildingBlock: ZUJKAS_clean_linker_0, # of connection points: 2
#     Edge 21, Type (0, 0), BuildingBlock: ZUJKAS_clean_linker_0, # of connection points: 2
#     Edge 22, Type (0, 0), BuildingBlock: ZUJKAS_clean_linker_0, # of connection points: 2
#     Edge 23, Type (0, 0), BuildingBlock: ZUJKAS_clean_linker_0, # of connection points: 2
#     Edge 24, Type (0, 0), BuildingBlock: ZUJKAS_clean_linker_0, # of connection points: 2
#     Edge 25, Type (0, 0), BuildingBlock: ZUJKAS_clean_linker_0, # of connection points: 2
#     Edge 26, Type (0, 0), BuildingBlock: ZUJKAS_clean_linker_0, # of connection points: 2
#     Edge 27, Type (0, 0), BuildingBlock: ZUJKAS_clean_linker_0, # of connection points: 2
#     Edge 28, Type (0, 0), BuildingBlock: ZUJKAS_clean_linker_0, # of connection points: 2
#     Edge 29, Type (0, 0), BuildingBlock: ZUJKAS_clean_linker_0, # of connection points: 2
#     Edge 30, Type (0, 0), BuildingBlock: ZUJKAS_clean_linker_0, # of connection points: 2
#     Edge 31, Type (0, 0), BuildingBlock: ZUJKAS_clean_linker_0, # of connection points: 2
#     Edge 32, Type (0, 0), BuildingBlock: ZUJKAS_clean_linker_0, # of connection points: 2
#     Edge 33, Type (0, 0), BuildingBlock: ZUJKAS_clean_linker_0, # of connection points: 2
#     Edge 34, Type (0, 0), BuildingBlock: ZUJKAS_clean_linker_0, # of connection points: 2
#     Edge 35, Type (0, 0), BuildingBlock: ZUJKAS_clean_linker_0, # of connection points: 2
# Relax obj value: 0.043
# Max RMSD: 0.170
# Mean RMSD: 0.170
data_MOF--net-umm--node1-QUQFOY_clean_sbu_1--edge1-ZUJKAS_clean_linker_0
_symmetry_space_group_name_H-M    P1
_symmetry_Int_Tables_number       1
_symmetry_cell_setting            triclinic
loop_
_symmetry_equiv_pos_as_xyz
'x, y, z'
_cell_length_a     74.336315
_cell_length_b     74.528047
_cell_length_c     37.314931
_cell_angle_alpha  90.046703
_cell_angle_beta   89.974357
_cell_angle_gamma 120.02429
loop_
_atom_site_label
_atom_site_type_symbol
_atom_site_fract_x
_atom_site_fract_y
_atom_site_fract_z
_atom_type_partial_charge
O0 O 0.43999 0.55193 0.09746 0.0
Cd1 Cd 0.423 0.56691 0.09555 0.0
Cd2 Cd 0.39528 0.53041 0.0652 0.0
O3 O 0.41561 0.52042 0.08171 0.0
O4 O 0.43622 0.58956 0.13183 0.0
O5 O 0.40443 0.56279 0.13767 0.0
C6 C 0.41968 0.5795 0.15104 0.0
C7 C 0.35933 0.51459 0.07062 0.0
C8 C 0.43406 0.5329 0.09226 0.0
C9 C 0.41327 0.56839 0.01891 0.0
O10 O 0.40397 0.54877 0.02075 0.0
O11 O 0.42134 0.57944 0.04671 0.0
O12 O 0.36776 0.50668 0.0506 0.0
O13 O 0.37139 0.52995 0.09116 0.0
O14 O 0.90107 0.43163 0.43647 0.0
Cd15 Cd 0.86905 0.41526 0.4328 0.0
Cd16 Cd 0.87814 0.38882 0.39846 0.0
O17 O 0.90814 0.40773 0.41756 0.0
O18 O 0.85982 0.42853 0.46936 0.0
O19 O 0.85356 0.39633 0.47404 0.0
C20 C 0.85259 0.41173 0.4879 0.0
C21 C 0.85721 0.3529 0.4009 0.0
C22 C 0.91411 0.42568 0.43045 0.0
C23 C 0.85957 0.40914 0.35477 0.0
O24 O 0.86996 0.39986 0.35511 0.0
O25 O 0.85575 0.41553 0.38387 0.0
O26 O 0.87382 0.36151 0.3815 0.0
O27 O 0.85386 0.36465 0.42215 0.0
O28 O 0.48205 0.89379 0.76449 0.0
Cd29 Cd 0.46809 0.86187 0.7617 0.0
Cd30 Cd 0.50437 0.87264 0.72952 0.0
O31 O 0.51395 0.90233 0.74833 0.0
O32 O 0.44516 0.85164 0.79769 0.0
O33 O 0.47253 0.84763 0.80375 0.0
C34 C 0.45552 0.84558 0.81696 0.0
C35 C 0.52016 0.8525 0.73368 0.0
C36 C 0.50097 0.90748 0.75959 0.0
C37 C 0.46633 0.85233 0.684 0.0
O38 O 0.48591 0.864 0.68515 0.0
O39 O 0.45564 0.84769 0.71269 0.0
O40 O 0.52818 0.86911 0.71438 0.0
O41 O 0.50457 0.84879 0.75405 0.0
O42 O 0.59633 0.47003 0.101 0.0
Cd43 Cd 0.61306 0.45476 0.10031 0.0
Cd44 Cd 0.64076 0.49079 0.06653 0.0
O45 O 0.62034 0.50092 0.08177 0.0
O46 O 0.59962 0.43276 0.13759 0.0
O47 O 0.63165 0.4592 0.14264 0.0
C48 C 0.61624 0.44284 0.15658 0.0
C49 C 0.67695 0.50818 0.06901 0.0
C50 C 0.60211 0.48882 0.09375 0.0
C51 C 0.62211 0.45113 0.02398 0.0
O52 O 0.63171 0.47078 0.02423 0.0
O53 O 0.61401 0.44088 0.0525 0.0
O54 O 0.66732 0.51452 0.0484 0.0
O55 O 0.66598 0.49356 0.0916 0.0
O56 O 0.13871 0.58902 0.43597 0.0
Cd57 Cd 0.17077 0.60726 0.43297 0.0
Cd58 Cd 0.1594 0.63168 0.40069 0.0
O59 O 0.13022 0.61266 0.42229 0.0
O60 O 0.18134 0.59507 0.46928 0.0
O61 O 0.18483 0.6262 0.47491 0.0
C62 C 0.18713 0.6115 0.4884 0.0
C63 C 0.18062 0.66756 0.4023 0.0
C64 C 0.12503 0.59442 0.43268 0.0
C65 C 0.17864 0.6133 0.35498 0.0
O66 O 0.16596 0.61999 0.35638 0.0
O67 O 0.18509 0.60927 0.3838 0.0
O68 O 0.16344 0.65899 0.38438 0.0
O69 O 0.18447 0.65582 0.42264 0.0
O70 O 0.55524 0.12969 0.76522 0.0
Cd71 Cd 0.56912 0.16159 0.76253 0.0
Cd72 Cd 0.53257 0.1508 0.73132 0.0
O73 O 0.52321 0.1211 0.74984 0.0
O74 O 0.59267 0.17189 0.79721 0.0
O75 O 0.56539 0.17583 0.80546 0.0
C76 C 0.58267 0.17796 0.81744 0.0
C77 C 0.5171 0.17114 0.7367 0.0
C78 C 0.53629 0.11598 0.76063 0.0
C79 C 0.57017 0.1712 0.68493 0.0
O80 O 0.5506 0.15953 0.6864 0.0
O81 O 0.58106 0.17574 0.71334 0.0
O82 O 0.5087 0.15449 0.71744 0.0
O83 O 0.53285 0.17471 0.75649 0.0
O84 O 0.48134 0.59316 0.57719 0.0
Cd85 Cd 0.46725 0.61101 0.58022 0.0
Cd86 Cd 0.50382 0.63686 0.61173 0.0
O87 O 0.51326 0.61657 0.5931 0.0
O88 O 0.44369 0.59767 0.54558 0.0
O89 O 0.47079 0.62897 0.53744 0.0
C90 C 0.45357 0.61377 0.52542 0.0
C91 C 0.51965 0.67272 0.60672 0.0
C92 C 0.50029 0.59844 0.58194 0.0
C93 C 0.46605 0.61946 0.65791 0.0
O94 O 0.48565 0.62755 0.65649 0.0
O95 O 0.45519 0.61299 0.62947 0.0
O96 O 0.52778 0.66424 0.62607 0.0
O97 O 0.50392 0.66075 0.58674 0.0
O98 O 0.89952 0.47226 0.91491 0.0
Cd99 Cd 0.86766 0.4591 0.91683 0.0
Cd100 Cd 0.87881 0.49662 0.94093 0.0
O101 O 0.9079 0.50504 0.91938 0.0
O102 O 0.85648 0.435 0.88321 0.0
O103 O 0.85413 0.46301 0.87319 0.0
C104 C 0.85122 0.44531 0.8621 0.0
C105 C 0.85747 0.51092 0.93428 0.0
C106 C 0.91318 0.4914 0.91394 0.0
C107 C 0.85945 0.46191 0.99331 0.0
O108 O 0.87173 0.48116 0.98874 0.0
O109 O 0.85366 0.44955 0.96672 0.0
O110 O 0.8749 0.52076 0.95132 0.0
O111 O 0.85363 0.49432 0.91697 0.0
O112 O 0.44007 0.89158 0.2452 0.0
Cd113 Cd 0.42294 0.85962 0.24695 0.0
Cd114 Cd 0.39527 0.86864 0.27684 0.0
O115 O 0.41564 0.89884 0.26021 0.0
O116 O 0.4368 0.85021 0.21192 0.0
O117 O 0.4052 0.84538 0.2038 0.0
C118 C 0.42068 0.84386 0.19165 0.0
C119 C 0.3594 0.84841 0.27083 0.0
C120 C 0.43415 0.90472 0.25003 0.0
C121 C 0.41271 0.84843 0.32363 0.0
O122 O 0.40374 0.85907 0.32168 0.0
O123 O 0.42067 0.84524 0.29588 0.0
O124 O 0.36762 0.86481 0.29067 0.0
O125 O 0.37164 0.84511 0.25071 0.0
O126 O 0.55385 0.43026 0.58188 0.0
Cd127 Cd 0.56754 0.41205 0.58558 0.0
Cd128 Cd 0.5308 0.38685 0.61582 0.0
O129 O 0.52151 0.40682 0.59529 0.0
O130 O 0.59151 0.42523 0.55165 0.0
O131 O 0.56415 0.39421 0.54264 0.0
C132 C 0.5816 0.40929 0.53113 0.0
C133 C 0.51626 0.35116 0.61067 0.0
C134 C 0.53481 0.42503 0.58502 0.0
C135 C 0.56758 0.40387 0.66362 0.0
O136 O 0.54813 0.39671 0.66146 0.0
O137 O 0.5787 0.4094 0.63538 0.0
O138 O 0.50712 0.35904 0.62895 0.0
O139 O 0.53229 0.3636 0.59168 0.0
O140 O 0.14021 0.55666 0.91941 0.0
Cd141 Cd 0.17199 0.56809 0.9199 0.0
Cd142 Cd 0.1587 0.53128 0.9455 0.0
O143 O 0.13063 0.52353 0.92099 0.0
O144 O 0.18397 0.59196 0.88573 0.0
O145 O 0.18384 0.56265 0.87548 0.0
C146 C 0.1878 0.58067 0.86428 0.0
C147 C 0.18021 0.51703 0.94139 0.0
C148 C 0.12604 0.53774 0.91686 0.0
C149 C 0.17893 0.56578 0.99658 0.0
O150 O 0.16432 0.54722 0.99265 0.0
O151 O 0.18717 0.57712 0.96914 0.0
O152 O 0.16244 0.5072 0.95745 0.0
O153 O 0.18448 0.53369 0.92392 0.0
O154 O 0.59615 0.12956 0.24506 0.0
Cd155 Cd 0.61301 0.1615 0.24718 0.0
Cd156 Cd 0.64084 0.15281 0.27772 0.0
O157 O 0.62055 0.12251 0.26132 0.0
O158 O 0.59975 0.1709 0.21094 0.0
O159 O 0.63162 0.17606 0.20516 0.0
C160 C 0.61633 0.17746 0.19178 0.0
C161 C 0.67679 0.17274 0.27224 0.0
C162 C 0.60213 0.11651 0.25048 0.0
C163 C 0.62272 0.17283 0.32386 0.0
O164 O 0.63217 0.16264 0.32207 0.0
O165 O 0.61454 0.17564 0.29605 0.0
O166 O 0.66831 0.15647 0.29236 0.0
O167 O 0.66476 0.1761 0.25169 0.0
H168 H 0.44959 0.61359 0.18626 0.0
H169 H 0.45124 0.62121 0.25028 0.0
H170 H 0.39055 0.5676 0.26506 0.0
H171 H 0.38884 0.55968 0.20099 0.0
H172 H 0.42523 0.62767 0.29887 0.0
H173 H 0.42879 0.55657 0.33024 0.0
H174 H 0.43235 0.56692 0.28546 0.0
H175 H 0.40672 0.55249 0.30423 0.0
C176 C 0.43644 0.60356 0.20297 0.0
C177 C 0.41916 0.58589 0.18853 0.0
C178 C 0.43741 0.60798 0.23959 0.0
C179 C 0.42119 0.59478 0.26253 0.0
C180 C 0.4034 0.5778 0.24791 0.0
H181 H 0.41683 0.5853 0.49498 0.0
H182 H 0.40714 0.58209 0.43178 0.0
C183 C 0.4024 0.57336 0.21124 0.0
C184 C 0.42361 0.59805 0.3019 0.0
H185 H 0.42894 0.57658 0.37909 0.0
C186 C 0.42595 0.61648 0.31649 0.0
C187 C 0.42465 0.58347 0.3248 0.0
C188 C 0.42318 0.56382 0.3105 0.0
C189 C 0.42915 0.62064 0.35346 0.0
C190 C 0.43041 0.60614 0.37628 0.0
C191 C 0.42785 0.58764 0.36165 0.0
C192 C 0.43503 0.60993 0.41523 0.0
C193 C 0.43091 0.64038 0.36778 0.0
C194 C 0.45377 0.62689 0.42718 0.0
C195 C 0.45932 0.62885 0.46346 0.0
C196 C 0.44633 0.61373 0.48837 0.0
C197 C 0.42721 0.59722 0.47653 0.0
C198 C 0.42165 0.59534 0.44036 0.0
H199 H 0.42353 0.64657 0.34944 0.0
H200 H 0.42359 0.63793 0.39462 0.0
H201 H 0.44758 0.65229 0.37033 0.0
H202 H 0.46458 0.63812 0.40825 0.0
H203 H 0.47422 0.64166 0.47163 0.0
H204 H 0.84887 0.44173 0.52361 0.0
H205 H 0.84258 0.44307 0.58757 0.0
H206 H 0.83403 0.38184 0.60116 0.0
H207 H 0.84055 0.38044 0.53712 0.0
H208 H 0.80958 0.41738 0.63526 0.0
H209 H 0.8832 0.41859 0.6677 0.0
H210 H 0.8769 0.4227 0.62288 0.0
H211 H 0.86498 0.39697 0.64115 0.0
C212 C 0.84535 0.42839 0.54004 0.0
C213 C 0.84543 0.41105 0.52527 0.0
C214 C 0.84173 0.42919 0.57663 0.0
C215 C 0.83821 0.41272 0.59924 0.0
C216 C 0.83708 0.39488 0.58428 0.0
H217 H 0.84237 0.40827 0.83225 0.0
H218 H 0.83593 0.39839 0.76908 0.0
C219 C 0.84069 0.39405 0.54762 0.0
C220 C 0.83717 0.41491 0.63865 0.0
H221 H 0.86343 0.41932 0.71623 0.0
C222 C 0.82127 0.41769 0.65304 0.0
C223 C 0.8525 0.41542 0.66177 0.0
C224 C 0.87048 0.41344 0.64771 0.0
C225 C 0.82024 0.42087 0.69 0.0
C226 C 0.83576 0.42167 0.71303 0.0
C227 C 0.85147 0.4186 0.69863 0.0
C228 C 0.83665 0.42647 0.75193 0.0
C229 C 0.80247 0.42316 0.70404 0.0
C230 C 0.83883 0.4454 0.76353 0.0
C231 C 0.8424 0.45106 0.79975 0.0
C232 C 0.84411 0.43799 0.82502 0.0
C233 C 0.84114 0.41871 0.81353 0.0
C234 C 0.83749 0.41304 0.77738 0.0
H235 H 0.7889 0.41596 0.68566 0.0
H236 H 0.79746 0.41602 0.73097 0.0
H237 H 0.80755 0.43988 0.70631 0.0
H238 H 0.83872 0.45625 0.74437 0.0
H239 H 0.84478 0.46608 0.80762 0.0
H240 H 0.42087 0.8403 0.85186 0.0
H241 H 0.4132 0.83427 0.91586 0.0
H242 H 0.4679 0.82909 0.93111 0.0
H243 H 0.47588 0.83537 0.86708 0.0
H244 H 0.40753 0.8023 0.9647 0.0
H245 H 0.47763 0.878 0.99594 0.0
H246 H 0.46733 0.87089 0.95115 0.0
H247 H 0.48236 0.86043 0.9701 0.0
C248 C 0.43113 0.83757 0.86868 0.0
C249 C 0.44913 0.83855 0.85438 0.0
C250 C 0.42669 0.8341 0.90528 0.0
C251 C 0.44017 0.8316 0.92834 0.0
C252 C 0.45748 0.83133 0.91386 0.0
H253 H 0.44985 0.83679 0.16069 0.0
H254 H 0.45321 0.83072 0.09735 0.0
C255 C 0.46195 0.83481 0.87721 0.0
C256 C 0.43685 0.83075 0.9677 0.0
H257 H 0.45795 0.85787 0.04486 0.0
C258 C 0.41857 0.81438 0.98231 0.0
C259 C 0.45122 0.84661 0.99057 0.0
C260 C 0.47066 0.86509 0.97625 0.0
C261 C 0.41439 0.81335 0.01928 0.0
C262 C 0.42871 0.82931 0.04209 0.0
C263 C 0.44704 0.84557 0.02743 0.0
C264 C 0.42492 0.82999 0.08108 0.0
C265 C 0.39484 0.79507 0.03362 0.0
C266 C 0.40766 0.83121 0.09324 0.0
C267 C 0.40562 0.83456 0.1296 0.0
C268 C 0.42094 0.83701 0.1544 0.0
C269 C 0.43777 0.835 0.14234 0.0
C270 C 0.43974 0.83155 0.10608 0.0
H271 H 0.38885 0.78155 0.01522 0.0
H272 H 0.39752 0.79034 0.06039 0.0
H273 H 0.38264 0.79942 0.03636 0.0
H274 H 0.39625 0.8305 0.07442 0.0
H275 H 0.39256 0.8362 0.13794 0.0
H276 H 0.58624 0.40915 0.19241 0.0
H277 H 0.58465 0.40193 0.25655 0.0
H278 H 0.64544 0.4555 0.27067 0.0
H279 H 0.6471 0.46303 0.20643 0.0
H280 H 0.6106 0.39549 0.30491 0.0
H281 H 0.60765 0.46695 0.33622 0.0
H282 H 0.60394 0.4565 0.29146 0.0
H283 H 0.62961 0.4708 0.31012 0.0
C284 C 0.59943 0.41927 0.20901 0.0
C285 C 0.61673 0.4368 0.19431 0.0
C286 C 0.59848 0.41508 0.2457 0.0
C287 C 0.61476 0.42836 0.26848 0.0
C288 C 0.63255 0.44524 0.25364 0.0
H289 H 0.61855 0.43776 0.50125 0.0
H290 H 0.62854 0.44109 0.43817 0.0
C291 C 0.63352 0.44945 0.21688 0.0
C292 C 0.61242 0.42521 0.3079 0.0
H293 H 0.60721 0.44685 0.38506 0.0
C294 C 0.60996 0.40675 0.32252 0.0
C295 C 0.6115 0.43988 0.33078 0.0
C296 C 0.61313 0.45958 0.31646 0.0
C297 C 0.60671 0.40262 0.35948 0.0
C298 C 0.6055 0.41718 0.38227 0.0
C299 C 0.60824 0.43574 0.36764 0.0
C300 C 0.60068 0.41335 0.42117 0.0
C301 C 0.6048 0.38282 0.37379 0.0
C302 C 0.58185 0.3964 0.43284 0.0
C303 C 0.57614 0.39438 0.46903 0.0
C304 C 0.58904 0.40941 0.49418 0.0
C305 C 0.60824 0.42591 0.48263 0.0
C306 C 0.61397 0.42786 0.44653 0.0
H307 H 0.61224 0.37663 0.35558 0.0
H308 H 0.61197 0.38521 0.40076 0.0
H309 H 0.58811 0.37095 0.37607 0.0
H310 H 0.57111 0.38524 0.41374 0.0
H311 H 0.56117 0.38158 0.47696 0.0
H312 H 0.19647 0.64194 0.53833 0.0
H313 H 0.20291 0.64073 0.60241 0.0
H314 H 0.19911 0.58153 0.58783 0.0
H315 H 0.19296 0.58273 0.52386 0.0
H316 H 0.1749 0.61065 0.64773 0.0
H317 H 0.24968 0.61126 0.65252 0.0
H318 H 0.24108 0.61897 0.61319 0.0
H319 H 0.23106 0.59195 0.62281 0.0
C320 C 0.1975 0.6289 0.5486 0.0
C321 C 0.19419 0.61243 0.52592 0.0
C322 C 0.20113 0.6282 0.58527 0.0
C323 C 0.20171 0.61114 0.59993 0.0
C324 C 0.19918 0.59507 0.5771 0.0
H325 H 0.19193 0.55836 0.80969 0.0
H326 H 0.19736 0.56748 0.74601 0.0
C327 C 0.19554 0.59573 0.54048 0.0
C328 C 0.20273 0.60907 0.63942 0.0
H329 H 0.22911 0.60048 0.70602 0.0
C330 C 0.18692 0.60872 0.66053 0.0
C331 C 0.2183 0.60634 0.65608 0.0
C332 C 0.23611 0.60733 0.63504 0.0
C333 C 0.18588 0.6051 0.6976 0.0
C334 C 0.20134 0.60217 0.71425 0.0
C335 C 0.21731 0.60277 0.69325 0.0
C336 C 0.20064 0.59779 0.75324 0.0
C337 C 0.16777 0.60366 0.71837 0.0
C338 C 0.20149 0.6121 0.77862 0.0
C339 C 0.19833 0.60692 0.81501 0.0
C340 C 0.19443 0.58736 0.82679 0.0
C341 C 0.19485 0.57354 0.80155 0.0
C342 C 0.19795 0.57872 0.76511 0.0
H343 H 0.15481 0.60126 0.70047 0.0
H344 H 0.16178 0.59076 0.73803 0.0
H345 H 0.17296 0.61831 0.73334 0.0
H346 H 0.20399 0.62708 0.77016 0.0
H347 H 0.19825 0.61799 0.83372 0.0
H348 H 0.5863 0.18146 0.15654 0.0
H349 H 0.5847 0.18748 0.09255 0.0
H350 H 0.64563 0.19502 0.07794 0.0
H351 H 0.6473 0.18874 0.14197 0.0
H352 H 0.61054 0.22002 0.0442 0.0
H353 H 0.60784 0.1458 0.01241 0.0
H354 H 0.60414 0.15246 0.05723 0.0
H355 H 0.62981 0.16385 0.03853 0.0
C356 C 0.59952 0.18469 0.13987 0.0
C357 C 0.61685 0.18439 0.15434 0.0
C358 C 0.59857 0.18816 0.10327 0.0
C359 C 0.61487 0.19133 0.08039 0.0
C360 C 0.63272 0.19225 0.09505 0.0
H361 H 0.61951 0.18648 0.84788 0.0
H362 H 0.62915 0.19297 0.91111 0.0
C363 C 0.63369 0.18877 0.13169 0.0
C364 C 0.6125 0.19221 0.04101 0.0
H365 H 0.60753 0.1656 0.96368 0.0
C366 C 0.60998 0.2082 0.02651 0.0
C367 C 0.61165 0.17669 0.01803 0.0
C368 C 0.61332 0.15861 0.03223 0.0
C369 C 0.60679 0.20917 0.98954 0.0
C370 C 0.60572 0.19351 0.96664 0.0
C371 C 0.60846 0.17766 0.98118 0.0
C372 C 0.6011 0.19267 0.92769 0.0
C373 C 0.60482 0.22704 0.97533 0.0
C374 C 0.58229 0.19074 0.91575 0.0
C375 C 0.57677 0.18715 0.87947 0.0
C376 C 0.58986 0.18515 0.85453 0.0
C377 C 0.60905 0.18791 0.86636 0.0
C378 C 0.61458 0.1916 0.90254 0.0
H379 H 0.61209 0.24058 0.99372 0.0
H380 H 0.61213 0.23196 0.94849 0.0
H381 H 0.58812 0.22216 0.97279 0.0
H382 H 0.57141 0.19105 0.9347 0.0
H383 H 0.56181 0.18494 0.87131 0.0
H384 H 0.32936 0.48138 0.0333 0.0
H385 H 0.29606 0.47658 0.01228 0.0
H386 H 0.30667 0.53072 0.07153 0.0
H387 H 0.33964 0.53523 0.09355 0.0
H388 H 0.26622 0.5015 0.07279 0.0
H389 H 0.29512 0.51273 0.93286 0.0
H390 H 0.29452 0.49104 0.95488 0.0
H391 H 0.31169 0.5169 0.97093 0.0
C392 C 0.32438 0.49198 0.04257 0.0
C393 C 0.33729 0.5088 0.0649 0.0
C394 C 0.30543 0.48936 0.03016 0.0
C395 C 0.29914 0.50369 0.03931 0.0
C396 C 0.31125 0.51958 0.06373 0.0
H397 H 0.22148 0.53932 0.92421 0.0
H398 H 0.24929 0.53401 0.94686 0.0
C399 C 0.3301 0.52208 0.07648 0.0
C400 C 0.28065 0.50291 0.02208 0.0
H401 H 0.26053 0.5052 0.94087 0.0
C402 C 0.26492 0.5022 0.04394 0.0
C403 C 0.27911 0.50423 0.98439 0.0
C404 C 0.29608 0.50648 0.95937 0.0
C405 C 0.24782 0.50285 0.02929 0.0
C406 C 0.24603 0.50366 0.99156 0.0
C407 C 0.26171 0.50428 0.9697 0.0
C408 C 0.2288 0.50536 0.97443 0.0
C409 C 0.2323 0.50354 0.05454 0.0
C410 C 0.20789 0.49053 0.98085 0.0
C411 C 0.1919 0.49359 0.96805 0.0
C412 C 0.19648 0.5114 0.94808 0.0
C413 C 0.21735 0.52541 0.93942 0.0
C414 C 0.23332 0.52243 0.95252 0.0
H415 H 0.23872 0.50826 0.08201 0.0
H416 H 0.22736 0.51449 0.04482 0.0
H417 H 0.21835 0.48788 0.0563 0.0
H418 H 0.20394 0.47689 0.99671 0.0
H419 H 0.17601 0.48242 0.97506 0.0
H420 H 0.861 0.32314 0.3641 0.0
H421 H 0.83283 0.28982 0.34263 0.0
H422 H 0.78828 0.30048 0.39871 0.0
H423 H 0.81642 0.33341 0.42132 0.0
H424 H 0.77712 0.26065 0.40169 0.0
H425 H 0.79655 0.2872 0.2609 0.0
H426 H 0.81741 0.28682 0.28437 0.0
H427 H 0.80865 0.30429 0.29848 0.0
C428 C 0.84525 0.31818 0.3725 0.0
C429 C 0.84097 0.33104 0.39424 0.0
C430 C 0.82911 0.29922 0.35982 0.0
C431 C 0.80832 0.29291 0.36799 0.0
C432 C 0.80415 0.30507 0.39166 0.0
H433 H 0.69635 0.2132 0.2505 0.0
H434 H 0.72947 0.24139 0.27247 0.0
C435 C 0.8203 0.3239 0.40474 0.0
C436 C 0.79084 0.2742 0.35086 0.0
H437 H 0.76955 0.2527 0.26965 0.0
C438 C 0.77552 0.25887 0.37282 0.0
C439 C 0.78849 0.27202 0.31311 0.0
C440 C 0.80351 0.28854 0.28781 0.0
C441 C 0.75794 0.24158 0.35823 0.0
C442 C 0.75587 0.23911 0.32049 0.0
C443 C 0.77125 0.25438 0.29852 0.0
C444 C 0.73719 0.22158 0.30337 0.0
C445 C 0.74134 0.22661 0.38351 0.0
C446 C 0.73094 0.20089 0.31176 0.0
C447 C 0.71188 0.18472 0.29942 0.0
C448 C 0.69886 0.18887 0.27784 0.0
C449 C 0.70599 0.20941 0.26697 0.0
C450 C 0.72492 0.2256 0.2797 0.0
H451 H 0.74259 0.2336 0.41036 0.0
H452 H 0.72557 0.22143 0.37272 0.0
H453 H 0.74309 0.21279 0.3871 0.0
H454 H 0.74043 0.19729 0.32896 0.0
H455 H 0.70693 0.16906 0.30812 0.0
H456 H 0.49987 0.8121 0.75581 0.0
H457 H 0.50544 0.78429 0.7345 0.0
H458 H 0.55954 0.8287 0.67583 0.0
H459 H 0.55366 0.85655 0.69619 0.0
H460 H 0.53467 0.79784 0.63352 0.0
H461 H 0.54455 0.76404 0.75849 0.0
H462 H 0.521 0.76511 0.7593 0.0
H463 H 0.5457 0.7888 0.75767 0.0
C464 C 0.51332 0.81607 0.73922 0.0
C465 C 0.52634 0.8366 0.72778 0.0
C466 C 0.51652 0.80009 0.72706 0.0
C467 C 0.53303 0.80432 0.70372 0.0
C468 C 0.54669 0.82498 0.69379 0.0
H469 H 0.55354 0.70237 0.64306 0.0
H470 H 0.55958 0.7362 0.6631 0.0
C471 C 0.54338 0.84094 0.70567 0.0
C472 C 0.53485 0.78708 0.68706 0.0
H473 H 0.53508 0.74237 0.70608 0.0
C474 C 0.53505 0.78587 0.64945 0.0
C475 C 0.53563 0.77153 0.70763 0.0
C476 C 0.53694 0.77254 0.74799 0.0
C477 C 0.53527 0.76925 0.63196 0.0
C478 C 0.53472 0.75304 0.65255 0.0
C479 C 0.53528 0.75463 0.69014 0.0
C480 C 0.53279 0.73392 0.63596 0.0
C481 C 0.53619 0.76935 0.59156 0.0
C482 C 0.51606 0.72152 0.6131 0.0
C483 C 0.51276 0.70229 0.6011 0.0
C484 C 0.5259 0.69483 0.61224 0.0
C485 C 0.54316 0.70765 0.63383 0.0
C486 C 0.54656 0.72697 0.64552 0.0
H487 H 0.54367 0.7854 0.58084 0.0
H488 H 0.54488 0.76181 0.58163 0.0
H489 H 0.52015 0.7608 0.58072 0.0
H490 H 0.5049 0.7262 0.60595 0.0
H491 H 0.49916 0.69273 0.58494 0.0
H492 H 0.70508 0.54107 0.02886 0.0
H493 H 0.73848 0.54694 0.00617 0.0
H494 H 0.73166 0.49506 0.06809 0.0
H495 H 0.69862 0.48956 0.09183 0.0
H496 H 0.7714 0.52517 0.06648 0.0
H497 H 0.73998 0.51053 0.92809 0.0
H498 H 0.74004 0.53217 0.94927 0.0
H499 H 0.72393 0.50647 0.96687 0.0
C500 C 0.71092 0.53122 0.03833 0.0
C501 C 0.69907 0.51474 0.06198 0.0
C502 C 0.72993 0.53443 0.02496 0.0
C503 C 0.73729 0.521 0.03441 0.0
C504 C 0.72623 0.5055 0.06004 0.0
H505 H 0.81623 0.48773 0.91742 0.0
H506 H 0.78802 0.49234 0.94029 0.0
C507 C 0.70735 0.50244 0.07377 0.0
C508 C 0.75586 0.52233 0.0164 0.0
H509 H 0.77518 0.51975 0.93449 0.0
C510 C 0.77227 0.52409 0.03761 0.0
C511 C 0.75686 0.52051 0.9787 0.0
C512 C 0.73919 0.5171 0.95439 0.0
C513 C 0.78952 0.52397 0.02233 0.0
C514 C 0.79077 0.52269 0.98455 0.0
C515 C 0.77442 0.52105 0.96334 0.0
C516 C 0.80816 0.5215 0.96683 0.0
C517 C 0.80578 0.52432 0.04701 0.0
C518 C 0.82897 0.53687 0.97242 0.0
C519 C 0.84519 0.53419 0.95953 0.0
C520 C 0.84093 0.51626 0.94022 0.0
C521 C 0.82012 0.50175 0.93211 0.0
C522 C 0.80392 0.50433 0.94535 0.0
H523 H 0.79983 0.51977 0.07479 0.0
H524 H 0.81117 0.51372 0.03732 0.0
H525 H 0.81934 0.54026 0.04802 0.0
H526 H 0.83269 0.5506 0.98787 0.0
H527 H 0.86103 0.54574 0.96611 0.0
H528 H 0.17637 0.69711 0.36571 0.0
H529 H 0.20425 0.73038 0.3435 0.0
H530 H 0.2495 0.7201 0.39779 0.0
H531 H 0.22169 0.68719 0.42107 0.0
H532 H 0.26031 0.75996 0.40117 0.0
H533 H 0.24007 0.73308 0.26061 0.0
H534 H 0.21928 0.73324 0.28475 0.0
H535 H 0.22841 0.71602 0.29834 0.0
C536 C 0.19223 0.70212 0.37354 0.0
C537 C 0.19679 0.68938 0.39499 0.0
C538 C 0.20819 0.72106 0.36044 0.0
C539 C 0.22908 0.72748 0.36795 0.0
C540 C 0.23355 0.71542 0.39127 0.0
H541 H 0.34026 0.80791 0.24918 0.0
H542 H 0.30737 0.77948 0.2714 0.0
C543 C 0.21759 0.69661 0.40472 0.0
C544 C 0.24633 0.74624 0.35055 0.0
H545 H 0.26698 0.76768 0.26902 0.0
C546 C 0.26171 0.76169 0.37227 0.0
C547 C 0.24842 0.74835 0.31277 0.0
C548 C 0.2333 0.73171 0.28771 0.0
C549 C 0.27908 0.77907 0.35741 0.0
C550 C 0.28088 0.78146 0.31964 0.0
C551 C 0.26547 0.76605 0.29791 0.0
C552 C 0.29935 0.79909 0.30226 0.0
C553 C 0.29575 0.79422 0.38241 0.0
C554 C 0.30533 0.81973 0.31053 0.0
C555 C 0.32424 0.83605 0.29802 0.0
C556 C 0.3374 0.83209 0.27643 0.0
C557 C 0.33052 0.81156 0.26566 0.0
C558 C 0.31172 0.79524 0.27853 0.0
H559 H 0.29473 0.78735 0.40927 0.0
H560 H 0.31149 0.79951 0.37133 0.0
H561 H 0.29386 0.80797 0.38602 0.0
H562 H 0.29575 0.82319 0.32781 0.0
H563 H 0.32899 0.85168 0.30666 0.0
H564 H 0.48328 0.16749 0.7008 0.0
H565 H 0.47808 0.1957 0.68007 0.0
H566 H 0.53328 0.23982 0.7366 0.0
H567 H 0.53821 0.21165 0.75834 0.0
H568 H 0.50396 0.25073 0.73981 0.0
H569 H 0.5127 0.23245 0.59897 0.0
H570 H 0.49142 0.21142 0.62202 0.0
H571 H 0.51764 0.22035 0.63656 0.0
C572 C 0.49405 0.18314 0.70952 0.0
C573 C 0.51126 0.1873 0.73103 0.0
C574 C 0.49119 0.19931 0.69726 0.0
C575 C 0.50566 0.21999 0.70575 0.0
C576 C 0.52201 0.22403 0.72933 0.0
H577 H 0.53841 0.33251 0.59066 0.0
H578 H 0.53377 0.29956 0.61251 0.0
C579 C 0.52476 0.20786 0.74191 0.0
C580 C 0.50448 0.2375 0.68883 0.0
H581 H 0.50507 0.25932 0.60787 0.0
C582 C 0.5041 0.25255 0.71096 0.0
C583 C 0.50507 0.24013 0.65113 0.0
C584 C 0.50694 0.22536 0.62575 0.0
C585 C 0.50436 0.27013 0.69656 0.0
C586 C 0.5044 0.27248 0.65884 0.0
C587 C 0.50472 0.25739 0.63671 0.0
C588 C 0.50554 0.29116 0.64196 0.0
C589 C 0.50546 0.2864 0.72202 0.0
C590 C 0.49067 0.297 0.64963 0.0
C591 C 0.49336 0.31594 0.63731 0.0
C592 C 0.5108 0.32929 0.61654 0.0
C593 C 0.52477 0.32263 0.60651 0.0
C594 C 0.52218 0.30379 0.61915 0.0
H595 H 0.51082 0.28495 0.74909 0.0
H596 H 0.51613 0.30224 0.71177 0.0
H597 H 0.48975 0.28452 0.72492 0.0
H598 H 0.47734 0.28724 0.66619 0.0
H599 H 0.48223 0.32052 0.64536 0.0
H600 H 0.46619 0.54732 0.13946 0.0
H601 H 0.49438 0.53945 0.14123 0.0
H602 H 0.46613 0.49644 0.05362 0.0
H603 H 0.43719 0.50342 0.05329 0.0
H604 H 0.48188 0.48146 0.09717 0.0
H605 H 0.54214 0.56306 0.07494 0.0
H606 H 0.52798 0.56053 0.11524 0.0
H607 H 0.51481 0.55452 0.07258 0.0
C608 C 0.46587 0.53598 0.12089 0.0
C609 C 0.44955 0.52604 0.09612 0.0
C610 C 0.48216 0.53169 0.12158 0.0
C611 C 0.48291 0.51793 0.09666 0.0
C612 C 0.46611 0.50731 0.0729 0.0
H613 H 0.59806 0.51668 0.05167 0.0
H614 H 0.5691 0.52363 0.05157 0.0
C615 C 0.44951 0.51122 0.07279 0.0
C616 C 0.50117 0.51468 0.09541 0.0
H617 H 0.5543 0.54028 0.09352 0.0
C618 C 0.4977 0.49435 0.09611 0.0
C619 C 0.5219 0.53141 0.09307 0.0
C620 C 0.52692 0.55356 0.08849 0.0
C621 C 0.51425 0.49029 0.09539 0.0
C622 C 0.53501 0.50707 0.09564 0.0
C623 C 0.53847 0.52738 0.09406 0.0
C624 C 0.55331 0.50387 0.09703 0.0
C625 C 0.50916 0.468 0.09331 0.0
C626 C 0.55463 0.49111 0.12338 0.0
C627 C 0.57091 0.48682 0.12297 0.0
C628 C 0.58668 0.49577 0.097 0.0
C629 C 0.58618 0.50965 0.07212 0.0
C630 C 0.56957 0.51355 0.07198 0.0
H631 H 0.49365 0.458 0.08101 0.0
H632 H 0.52091 0.46641 0.07741 0.0
H633 H 0.5087 0.46211 0.12079 0.0
H634 H 0.54285 0.48414 0.14397 0.0
H635 H 0.57102 0.47623 0.14274 0.0
H636 H 0.94711 0.43077 0.39029 0.0
H637 H 0.98308 0.45922 0.39421 0.0
H638 H 0.96744 0.48264 0.48791 0.0
H639 H 0.93126 0.45501 0.48253 0.0
H640 H 0.98853 0.51289 0.44679 0.0
H641 H 0.0308 0.46962 0.45405 0.0
H642 H 1.01523 0.46289 0.41434 0.0
H643 H 1.00292 0.45689 0.45777 0.0
C644 C 0.95149 0.44177 0.41212 0.0
C645 C 0.93644 0.44062 0.43622 0.0
C646 C 0.97211 0.45802 0.41448 0.0
C647 C 0.97823 0.47304 0.44173 0.0
C648 C 0.96324 0.47136 0.46659 0.0
H649 H 0.10924 0.562 0.47931 0.0
H650 H 0.0733 0.53372 0.48407 0.0
C651 C 0.94257 0.45548 0.46365 0.0
C652 C 0.99975 0.4913 0.44302 0.0
H653 H 0.05115 0.50566 0.43955 0.0
C654 C 1.00221 0.51124 0.44563 0.0
C655 C 1.01774 0.48933 0.44199 0.0
C656 C 1.01655 0.46851 0.44229 0.0
C657 C 0.02196 0.52914 0.44691 0.0
C658 C 0.03992 0.52723 0.4438 0.0
C659 C 0.03748 0.50728 0.44157 0.0
C660 C 0.0614 0.54557 0.44301 0.0
C661 C 0.02321 0.54979 0.45258 0.0
C662 C 0.06683 0.56198 0.41882 0.0
C663 C 0.0873 0.57854 0.41692 0.0
C664 C 0.10292 0.57867 0.43829 0.0
C665 C 0.0975 0.56235 0.46258 0.0
C666 C 0.07696 0.5461 0.46515 0.0
H667 H 1.00925 0.54794 0.46682 0.0
H668 H 0.03719 0.56055 0.46828 0.0
H669 H 0.02388 0.55691 0.42616 0.0
H670 H 0.05541 0.56173 0.40054 0.0
H671 H 0.09111 0.5907 0.39744 0.0
H672 H 0.55148 0.09972 0.80917 0.0
H673 H 0.54504 0.06422 0.81194 0.0
H674 H 0.50245 0.04735 0.72304 0.0
H675 H 0.50789 0.08261 0.7218 0.0
H676 H 0.48818 0.01684 0.76639 0.0
H677 H 0.57117 0.04187 0.74775 0.0
H678 H 0.56739 0.0529 0.78771 0.0
H679 H 0.56155 0.0597 0.74461 0.0
C680 C 0.54051 0.08833 0.79056 0.0
C681 C 0.53024 0.09393 0.76518 0.0
C682 C 0.53706 0.06809 0.79182 0.0
C683 C 0.52386 0.05318 0.76682 0.0
C684 C 0.51289 0.05855 0.74242 0.0
H685 H 0.52903 0.94078 0.72032 0.0
H686 H 0.53451 0.97606 0.72194 0.0
C687 C 0.51592 0.07869 0.74179 0.0
C688 C 0.5216 0.0321 0.76597 0.0
H689 H 0.54918 1.00664 0.76521 0.0
C690 C 0.50155 0.01465 0.7659 0.0
C691 C 0.53898 0.02907 0.76442 0.0
C692 C 0.56094 0.04689 0.7607 0.0
C693 C 0.49838 0.9944 0.76491 0.0
C694 C 0.51577 0.99138 0.76579 0.0
C695 C 0.53582 1.00882 0.76524 0.0
C696 C 0.51351 0.9703 0.76639 0.0
C697 C 0.47638 0.97658 0.76172 0.0
C698 C 0.50055 0.95543 0.79163 0.0
C699 C 0.49706 0.93518 0.79015 0.0
C700 C 0.50709 0.92954 0.76431 0.0
C701 C 0.52119 0.94473 0.74067 0.0
C702 C 0.52425 0.96488 0.74152 0.0
H703 H 0.46603 0.98158 0.74923 0.0
H704 H 0.47562 0.96374 0.74546 0.0
H705 H 0.47019 0.97062 0.78887 0.0
H706 H 0.49276 0.95933 0.81209 0.0
H707 H 0.48627 0.92382 0.80896 0.0
H708 H 0.52828 0.59296 0.62098 0.0
H709 H 0.53417 0.56347 0.61822 0.0
H710 H 0.49242 0.53887 0.52797 0.0
H711 H 0.48551 0.5676 0.53232 0.0
H712 H 0.48331 0.5094 0.57081 0.0
H713 H 0.56869 0.54998 0.55695 0.0
H714 H 0.56135 0.55811 0.5968 0.0
H715 H 0.55429 0.56344 0.5535 0.0
C716 C 0.52071 0.58145 0.60014 0.0
C717 C 0.50654 0.58262 0.57673 0.0
C718 C 0.52414 0.5646 0.59844 0.0
C719 C 0.51403 0.54896 0.57248 0.0
C720 C 0.50043 0.55062 0.5483 0.0
H721 H 0.55104 0.45634 0.53633 0.0
H722 H 0.54432 0.48514 0.53087 0.0
C723 C 0.49657 0.56712 0.55064 0.0
C724 C 0.51644 0.53022 0.57185 0.0
H725 H 0.55224 0.51426 0.5739 0.0
C726 C 0.49843 0.51053 0.57106 0.0
C727 C 0.5361 0.53147 0.5717 0.0
C728 C 0.55617 0.5519 0.56938 0.0
C729 C 0.49948 0.49221 0.57041 0.0
C730 C 0.51911 0.49345 0.57233 0.0
C731 C 0.53713 0.51314 0.5728 0.0
C732 C 0.5215 0.4747 0.57353 0.0
C733 C 0.47949 0.47181 0.56664 0.0
C734 C 0.51067 0.45885 0.59882 0.0
C735 C 0.51401 0.44196 0.60112 0.0
C736 C 0.52879 0.44096 0.57903 0.0
C737 C 0.5395 0.45668 0.55362 0.0
C738 C 0.53575 0.47323 0.55065 0.0
H739 H 0.46733 0.47384 0.55305 0.0
H740 H 0.48181 0.46039 0.55118 0.0
H741 H 0.47356 0.46537 0.59368 0.0
H742 H 0.50011 0.45983 0.61765 0.0
H743 H 0.50585 0.43028 0.62144 0.0
H744 H 0.11139 0.56473 0.91191 0.0
H745 H 0.07541 0.55676 0.90805 0.0
H746 H 0.05487 0.49145 0.90496 0.0
H747 H 0.09098 0.49929 0.90979 0.0
H748 H 0.04518 0.53699 0.85857 0.0
H749 H 0.0211 0.49427 0.98746 0.0
H750 H 0.04796 0.50934 0.97411 0.0
H751 H 0.03171 0.48377 0.95611 0.0
C752 C 0.09928 0.54863 0.91032 0.0
C753 C 0.10414 0.53263 0.9115 0.0
C754 C 0.07866 0.54411 0.90806 0.0
C755 C 0.06235 0.5235 0.90691 0.0
C756 C 0.06714 0.50748 0.90673 0.0
H757 H 0.92854 0.46565 0.90022 0.0
H758 H 0.96473 0.47434 0.89656 0.0
C759 C 0.08782 0.51198 0.90922 0.0
C760 C 0.04042 0.51897 0.9064 0.0
H761 H 0.99447 0.49395 0.95213 0.0
C762 C 0.03411 0.52761 0.87908 0.0
C763 C 0.02599 0.5069 0.93334 0.0
C764 C 0.03204 0.49819 0.96462 0.0
C765 C 1.0137 0.52417 0.8776 0.0
C766 C 0.99926 0.5119 0.9043 0.0
C767 C 1.00556 0.50331 0.93163 0.0
C768 C 0.97733 0.50725 0.90404 0.0
C769 C 1.00759 0.5333 0.84712 0.0
C770 C 0.97232 0.52293 0.9092 0.0
C771 C 0.95148 0.51802 0.9114 0.0
C772 C 0.93531 0.4973 0.90858 0.0
C773 C 0.9405 0.48177 0.9026 0.0
C774 C 0.96123 0.48669 0.90051 0.0
H775 H 0.01914 0.53876 0.825 0.0
H776 H 0.99215 0.52176 0.83627 0.0
H777 H 1.00648 0.54674 0.85714 0.0
H778 H 0.98452 0.5389 0.9125 0.0
H779 H 0.94807 0.53034 0.91619 0.0
H780 H 0.46607 0.92237 0.20244 0.0
H781 H 0.49427 0.95837 0.20052 0.0
H782 H 0.46651 0.9731 0.28904 0.0
H783 H 0.43753 0.93727 0.28943 0.0
H784 H 0.482 1.00383 0.24609 0.0
H785 H 0.54245 0.98237 0.26557 0.0
H786 H 0.52807 0.97095 0.22538 0.0
H787 H 0.51515 0.96359 0.26825 0.0
C788 C 0.46587 0.93338 0.22117 0.0
C789 C 0.44966 0.92701 0.24618 0.0
C790 C 0.48216 0.95392 0.2204 0.0
C791 C 0.48305 0.9684 0.24553 0.0
C792 C 0.46637 0.96224 0.26958 0.0
H793 H 0.59841 0.08416 0.29081 0.0
H794 H 0.56948 0.04831 0.29023 0.0
C795 C 0.44975 0.94177 0.26973 0.0
C796 C 0.50132 0.98988 0.24671 0.0
H797 H 0.55445 0.01735 0.24766 0.0
C798 C 0.49783 1.00674 0.24669 0.0
C799 C 0.52207 0.99386 0.24845 0.0
C800 C 0.52715 0.97672 0.25235 0.0
C801 C 0.51437 0.02732 0.24761 0.0
C802 C 0.53514 0.0313 0.24677 0.0
C803 C 0.53862 0.01444 0.24757 0.0
C804 C 0.55342 0.05277 0.24569 0.0
C805 C 0.50926 0.04449 0.25059 0.0
C806 C 0.55458 0.06713 0.22007 0.0
C807 C 0.57083 0.08769 0.22093 0.0
C808 C 0.58674 0.09419 0.24655 0.0
C809 C 0.58641 0.07955 0.27063 0.0
C810 C 0.56982 0.05907 0.27037 0.0
H811 H 0.49382 0.0389 0.26325 0.0
H812 H 0.52108 0.05769 0.26661 0.0
H813 H 0.50863 0.05013 0.22337 0.0
H814 H 0.54269 0.06256 0.19973 0.0
H815 H 0.57081 0.0986 0.20179 0.0
H816 H 0.42542 0.59346 0.6775 0.0
H817 H 0.41095 0.58788 0.73837 0.0
H818 H 0.4703 0.63529 0.77858 0.0
H819 H 0.48478 0.64094 0.7184 0.0
H820 H 0.42829 0.57552 0.79432 0.0
H821 H 0.42892 0.64801 0.8302 0.0
H822 H 0.42947 0.64046 0.78433 0.0
H823 H 0.45281 0.65215 0.81078 0.0
C824 C 0.43522 0.60296 0.69923 0.0
C825 C 0.45626 0.61749 0.69326 0.0
C826 C 0.42694 0.59979 0.7339 0.0
C827 C 0.4395 0.61139 0.76282 0.0
C828 C 0.46023 0.62649 0.75655 0.0
H829 H 0.44513 0.60464 0.99184 0.0
H830 H 0.44939 0.61614 0.92906 0.0
C831 C 0.46853 0.62951 0.72215 0.0
C832 C 0.43207 0.60593 0.80015 0.0
H833 H 0.4271 0.62625 0.87914 0.0
C834 C 0.42762 0.58644 0.81276 0.0
C835 C 0.43161 0.62039 0.82414 0.0
C836 C 0.43578 0.64137 0.81166 0.0
C837 C 0.42353 0.58126 0.84907 0.0
C838 C 0.42329 0.59579 0.87327 0.0
C839 C 0.42728 0.61516 0.86053 0.0
C840 C 0.41942 0.59111 0.91198 0.0
C841 C 0.42048 0.56061 0.86142 0.0
C842 C 0.40083 0.57388 0.92332 0.0
C843 C 0.39855 0.56716 0.9587 0.0
C844 C 0.41464 0.57784 0.98361 0.0
C845 C 0.43255 0.59615 0.97308 0.0
C846 C 0.43497 0.60269 0.93732 0.0
H847 H 0.42648 0.55378 0.84154 0.0
H848 H 0.4284 0.56215 0.88741 0.0
H849 H 0.40364 0.54959 0.86504 0.0
H850 H 0.38844 0.56506 0.90438 0.0
H851 H 0.38443 0.55318 0.96634 0.0
H852 H 0.85599 0.38889 0.29235 0.0
H853 H 0.84844 0.397 0.23296 0.0
H854 H 0.83962 0.44535 0.27798 0.0
H855 H 0.84721 0.4373 0.33807 0.0
H856 H 0.813 0.40074 0.20401 0.0
H857 H 0.88985 0.47365 0.20516 0.0
H858 H 0.88365 0.45279 0.2362 0.0
H859 H 0.87249 0.46908 0.2421 0.0
C860 C 0.85223 0.40112 0.2898 0.0
C861 C 0.8525 0.41268 0.31984 0.0
C862 C 0.84778 0.40562 0.25585 0.0
C863 C 0.84365 0.42184 0.25115 0.0
C864 C 0.84288 0.43281 0.28119 0.0
H865 H 0.8554 0.48342 0.0482 0.0
H866 H 0.84737 0.47284 0.11067 0.0
C867 C 0.84719 0.4282 0.31542 0.0
C868 C 0.84226 0.42835 0.21436 0.0
H869 H 0.87097 0.46482 0.15173 0.0
C870 C 0.82549 0.41489 0.19257 0.0
C871 C 0.85866 0.44674 0.19965 0.0
C872 C 0.87729 0.46142 0.22176 0.0
C873 C 0.82479 0.41929 0.15614 0.0
C874 C 0.8416 0.43732 0.14109 0.0
C875 C 0.85807 0.451 0.16326 0.0
C876 C 0.84306 0.44219 0.10228 0.0
C877 C 0.80608 0.40461 0.13426 0.0
C878 C 0.84284 0.4283 0.0765 0.0
C879 C 0.84716 0.43424 0.04049 0.0
C880 C 0.85224 0.45432 0.02999 0.0
C881 C 0.85176 0.4679 0.05562 0.0
C882 C 0.84712 0.46187 0.09132 0.0
H883 H 0.79214 0.39589 0.15146 0.0
H884 H 0.80255 0.41298 0.11334 0.0
H885 H 0.80924 0.39316 0.12089 0.0
H886 H 0.84027 0.41322 0.08441 0.0
H887 H 0.84754 0.42352 0.0213 0.0
H888 H 0.48541 0.85296 0.62156 0.0
H889 H 0.47023 0.84375 0.56194 0.0
H890 H 0.4097 0.82483 0.60606 0.0
H891 H 0.42488 0.83421 0.66642 0.0
H892 H 0.43635 0.80596 0.53146 0.0
H893 H 0.42225 0.87272 0.53447 0.0
H894 H 0.439 0.8701 0.56643 0.0
H895 H 0.41131 0.85418 0.57028 0.0
C896 C 0.46882 0.8467 0.61879 0.0
C897 C 0.45638 0.84463 0.64869 0.0
C898 C 0.46017 0.84129 0.58466 0.0
C899 C 0.43893 0.83381 0.57962 0.0
C900 C 0.4262 0.83076 0.60949 0.0
H901 H 0.38388 0.83566 0.37613 0.0
H902 H 0.38725 0.82708 0.43788 0.0
C903 C 0.43486 0.83609 0.64389 0.0
C904 C 0.43083 0.83115 0.54267 0.0
H905 H 0.41581 0.85455 0.48062 0.0
C906 C 0.43153 0.81634 0.52034 0.0
C907 C 0.42474 0.84484 0.52834 0.0
C908 C 0.42436 0.86148 0.55091 0.0
C909 C 0.42653 0.81504 0.48376 0.0
C910 C 0.42116 0.82924 0.46916 0.0
C911 C 0.41989 0.84363 0.49183 0.0
C912 C 0.41761 0.83033 0.43031 0.0
C913 C 0.42708 0.79853 0.46119 0.0
C914 C 0.43328 0.83435 0.40511 0.0
C915 C 0.43122 0.83896 0.36947 0.0
C916 C 0.4137 0.84009 0.3589 0.0
C917 C 0.39766 0.8351 0.38372 0.0
C918 C 0.39954 0.83015 0.41898 0.0
H919 H 0.42464 0.78512 0.47779 0.0
H920 H 0.41507 0.79289 0.43983 0.0
H921 H 0.44256 0.80508 0.44831 0.0
H922 H 0.44758 0.83505 0.41338 0.0
H923 H 0.44385 0.8429 0.35087 0.0
H924 H 0.54707 0.38769 0.72617 0.0
H925 H 0.5616 0.39233 0.78613 0.0
H926 H 0.62346 0.42822 0.74294 0.0
H927 H 0.60898 0.42377 0.68225 0.0
H928 H 0.59209 0.38337 0.81698 0.0
H929 H 0.61666 0.46734 0.81461 0.0
H930 H 0.59866 0.44924 0.78232 0.0
H931 H 0.62586 0.45783 0.77885 0.0
C932 C 0.5638 0.39651 0.72922 0.0
C933 C 0.57687 0.40564 0.69943 0.0
C934 C 0.57206 0.39899 0.76355 0.0
C935 C 0.59354 0.41073 0.76893 0.0
C936 C 0.60679 0.41924 0.73925 0.0
H937 H 0.65156 0.46345 0.97277 0.0
H938 H 0.64723 0.45083 0.91126 0.0
C939 C 0.59851 0.41668 0.70467 0.0
C940 C 0.60162 0.41527 0.806 0.0
H941 H 0.62093 0.45386 0.86833 0.0
C942 C 0.5987 0.39882 0.82822 0.0
C943 C 0.61007 0.43541 0.82048 0.0
C944 C 0.61293 0.45351 0.79805 0.0
C945 C 0.6038 0.40197 0.86483 0.0
C946 C 0.61157 0.422 0.87957 0.0
C947 C 0.61502 0.43851 0.85701 0.0
C948 C 0.61538 0.42635 0.91847 0.0
C949 C 0.60077 0.38385 0.88727 0.0
C950 C 0.59917 0.41624 0.94346 0.0
C951 C 0.60176 0.42324 0.97898 0.0
C952 C 0.62042 0.44071 0.98958 0.0
C953 C 0.63696 0.45002 0.96511 0.0
C954 C 0.63451 0.44282 0.92999 0.0
H955 H 0.6015 0.37187 0.87059 0.0
H956 H 0.61266 0.38884 0.90874 0.0
H957 H 0.5852 0.37656 0.89999 0.0
H958 H 0.58411 0.4038 0.93505 0.0
H959 H 0.58875 0.41596 0.99732 0.0
H960 H 0.21467 0.60117 0.01728 0.0
H961 H 0.22639 0.61291 0.07889 0.0
H962 H 0.17082 0.56005 0.11965 0.0
H963 H 0.15944 0.54804 0.059 0.0
H964 H 0.20983 0.62451 0.12937 0.0
H965 H 0.21286 0.5573 0.18185 0.0
H966 H 0.21123 0.56103 0.1344 0.0
H967 H 0.188 0.54819 0.16142 0.0
C968 C 0.20507 0.59202 0.03947 0.0
C969 C 0.1862 0.57361 0.03326 0.0
C970 C 0.21183 0.59868 0.07461 0.0
C971 C 0.19981 0.58701 0.10397 0.0
C972 C 0.18081 0.56888 0.0976 0.0
H973 H 0.16257 0.61451 0.29046 0.0
H974 H 0.17415 0.61129 0.23139 0.0
C975 C 0.17419 0.56216 0.06276 0.0
C976 C 0.20576 0.5944 0.14137 0.0
H977 H 0.20305 0.57573 0.22586 0.0
C978 C 0.20896 0.61407 0.1504 0.0
C979 C 0.2054 0.58117 0.16895 0.0
C980 C 0.20444 0.56086 0.161 0.0
C981 C 0.20941 0.61984 0.18631 0.0
C982 C 0.20591 0.60532 0.21372 0.0
C983 C 0.20515 0.58666 0.20485 0.0
C984 C 0.19975 0.6078 0.25038 0.0
C985 C 0.21268 0.6411 0.1944 0.0
C986 C 0.20966 0.6059 0.28104 0.0
C987 C 0.20277 0.60741 0.31536 0.0
C988 C 0.18585 0.61074 0.31935 0.0
C989 C 0.17582 0.61222 0.28849 0.0
C990 C 0.18258 0.61061 0.25453 0.0
H991 H 0.22318 0.65256 0.17428 0.0
H992 H 0.19756 0.64066 0.19289 0.0
H993 H 0.21939 0.6465 0.22151 0.0
H994 H 0.22272 0.60336 0.27841 0.0
H995 H 0.21079 0.60617 0.33863 0.0
H996 H 0.61088 0.18633 0.66526 0.0
H997 H 0.62529 0.1953 0.60435 0.0
H998 H 0.56559 0.18243 0.56425 0.0
H999 H 0.55118 0.17353 0.62445 0.0
H1000 H 0.60839 0.16556 0.54852 0.0
H1001 H 0.60622 0.23656 0.51242 0.0
H1002 H 0.60581 0.22861 0.55831 0.0
H1003 H 0.58248 0.21661 0.53183 0.0
C1004 C 0.60099 0.18584 0.64353 0.0
C1005 C 0.57988 0.17904 0.64955 0.0
C1006 C 0.60922 0.19099 0.60885 0.0
C1007 C 0.59655 0.18979 0.57995 0.0
C1008 C 0.57574 0.18388 0.58625 0.0
H1009 H 0.5906 0.1768 0.3511 0.0
H1010 H 0.58637 0.18414 0.41386 0.0
C1011 C 0.56748 0.17857 0.62067 0.0
C1012 C 0.60398 0.19181 0.54261 0.0
H1013 H 0.60833 0.21671 0.4635 0.0
C1014 C 0.60878 0.17698 0.53004 0.0
C1015 C 0.6041 0.20653 0.51856 0.0
C1016 C 0.59955 0.22311 0.53098 0.0
C1017 C 0.61287 0.17588 0.49371 0.0
C1018 C 0.61276 0.19044 0.46946 0.0
C1019 C 0.60843 0.20561 0.48216 0.0
C1020 C 0.61657 0.18958 0.43073 0.0
C1021 C 0.6163 0.1585 0.48143 0.0
C1022 C 0.63527 0.1912 0.41925 0.0
C1023 C 0.63753 0.18668 0.38387 0.0
C1024 C 0.62132 0.18097 0.3591 0.0
C1025 C 0.60329 0.18113 0.36975 0.0
C1026 C 0.60088 0.18531 0.40551 0.0
H1027 H 0.61055 0.14575 0.50139 0.0
H1028 H 0.60838 0.15196 0.4555 0.0
H1029 H 0.63318 0.16457 0.47771 0.0
H1030 H 0.64777 0.19501 0.43808 0.0
H1031 H 0.65175 0.18701 0.37614 0.0
loop_
_geom_bond_atom_site_label_1
_geom_bond_atom_site_label_2
_geom_bond_distance
_geom_bond_site_symmetry_2
_ccdc_geom_bond_type
O0 Cd1 2.223 . S
O0 C8 1.315 . S
Cd1 O0 2.223 . S
Cd1 O4 2.297 . S
Cd1 O5 2.439 . S
Cd1 O11 2.240 . S
Cd2 O3 2.240 . S
Cd2 O10 2.223 1_554 S
Cd2 O12 2.297 . S
Cd2 O13 2.439 . S
O3 Cd2 2.240 . S
O3 C8 1.279 . S
O4 Cd1 2.297 . S
O4 C6 1.247 . S
O5 Cd1 2.439 . S
O5 C6 1.208 . S
C6 O4 1.247 . S
C6 O5 1.208 . S
C7 O12 1.247 . S
C7 O13 1.208 . S
C8 O0 1.315 . S
C8 O3 1.279 . S
C9 O10 1.315 1_554 S
C9 O11 1.279 . S
O10 Cd2 2.223 1_556 S
O10 C9 1.315 1_556 S
O11 Cd1 2.240 . S
O11 C9 1.279 . S
O12 Cd2 2.297 . S
O12 C7 1.247 . S
O13 Cd2 2.439 . S
O13 C7 1.208 . S
O14 Cd15 2.223 . S
O14 C22 1.315 . S
Cd15 O14 2.223 . S
Cd15 O18 2.297 . S
Cd15 O19 2.439 . S
Cd15 O25 2.240 . S
Cd16 O17 2.240 . S
Cd16 O24 2.223 . S
Cd16 O26 2.297 . S
Cd16 O27 2.439 . S
O17 Cd16 2.240 . S
O17 C22 1.279 . S
O18 Cd15 2.297 . S
O18 C20 1.247 . S
O19 Cd15 2.439 . S
O19 C20 1.208 . S
C20 O18 1.247 . S
C20 O19 1.208 . S
C21 O26 1.247 . S
C21 O27 1.208 . S
C22 O14 1.315 . S
C22 O17 1.279 . S
C23 O24 1.315 . S
C23 O25 1.279 . S
O24 Cd16 2.223 . S
O24 C23 1.315 . S
O25 Cd15 2.240 . S
O25 C23 1.279 . S
O26 Cd16 2.297 . S
O26 C21 1.247 . S
O27 Cd16 2.439 . S
O27 C21 1.208 . S
O28 Cd29 2.223 . S
O28 C36 1.315 . S
Cd29 O28 2.223 . S
Cd29 O32 2.297 . S
Cd29 O33 2.439 . S
Cd29 O39 2.240 . S
Cd30 O31 2.240 . S
Cd30 O38 2.223 . S
Cd30 O40 2.297 . S
Cd30 O41 2.439 . S
O31 Cd30 2.240 . S
O31 C36 1.279 . S
O32 Cd29 2.297 . S
O32 C34 1.247 . S
O33 Cd29 2.439 . S
O33 C34 1.208 . S
C34 O32 1.247 . S
C34 O33 1.208 . S
C35 O40 1.247 . S
C35 O41 1.208 . S
C36 O28 1.315 . S
C36 O31 1.279 . S
C37 O38 1.315 . S
C37 O39 1.279 . S
O38 Cd30 2.223 . S
O38 C37 1.315 . S
O39 Cd29 2.240 . S
O39 C37 1.279 . S
O40 Cd30 2.297 . S
O40 C35 1.247 . S
O41 Cd30 2.439 . S
O41 C35 1.208 . S
O42 Cd43 2.223 . S
O42 C50 1.315 . S
Cd43 O42 2.223 . S
Cd43 O46 2.297 . S
Cd43 O47 2.439 . S
Cd43 O53 2.240 . S
Cd44 O45 2.240 . S
Cd44 O52 2.223 1_554 S
Cd44 O54 2.297 . S
Cd44 O55 2.439 . S
O45 Cd44 2.240 . S
O45 C50 1.279 . S
O46 Cd43 2.297 . S
O46 C48 1.247 . S
O47 Cd43 2.439 . S
O47 C48 1.208 . S
C48 O46 1.247 . S
C48 O47 1.208 . S
C49 O54 1.247 . S
C49 O55 1.208 . S
C50 O42 1.315 . S
C50 O45 1.279 . S
C51 O52 1.315 1_554 S
C51 O53 1.279 . S
O52 Cd44 2.223 1_556 S
O52 C51 1.315 1_556 S
O53 Cd43 2.240 . S
O53 C51 1.279 . S
O54 Cd44 2.297 . S
O54 C49 1.247 . S
O55 Cd44 2.439 . S
O55 C49 1.208 . S
O56 Cd57 2.223 . S
O56 C64 1.315 . S
Cd57 O56 2.223 . S
Cd57 O60 2.297 . S
Cd57 O61 2.439 . S
Cd57 O67 2.240 . S
Cd58 O59 2.240 . S
Cd58 O66 2.223 . S
Cd58 O68 2.297 . S
Cd58 O69 2.439 . S
O59 Cd58 2.240 . S
O59 C64 1.279 . S
O60 Cd57 2.297 . S
O60 C62 1.247 . S
O61 Cd57 2.439 . S
O61 C62 1.208 . S
C62 O60 1.247 . S
C62 O61 1.208 . S
C63 O68 1.247 . S
C63 O69 1.208 . S
C64 O56 1.315 . S
C64 O59 1.279 . S
C65 O66 1.315 . S
C65 O67 1.279 . S
O66 Cd58 2.223 . S
O66 C65 1.315 . S
O67 Cd57 2.240 . S
O67 C65 1.279 . S
O68 Cd58 2.297 . S
O68 C63 1.247 . S
O69 Cd58 2.439 . S
O69 C63 1.208 . S
O70 Cd71 2.223 . S
O70 C78 1.315 . S
Cd71 O70 2.223 . S
Cd71 O74 2.297 . S
Cd71 O75 2.439 . S
Cd71 O81 2.240 . S
Cd72 O73 2.240 . S
Cd72 O80 2.223 . S
Cd72 O82 2.297 . S
Cd72 O83 2.439 . S
O73 Cd72 2.240 . S
O73 C78 1.279 . S
O74 Cd71 2.297 . S
O74 C76 1.247 . S
O75 Cd71 2.439 . S
O75 C76 1.208 . S
C76 O74 1.247 . S
C76 O75 1.208 . S
C77 O82 1.247 . S
C77 O83 1.208 . S
C78 O70 1.315 . S
C78 O73 1.279 . S
C79 O80 1.315 . S
C79 O81 1.279 . S
O80 Cd72 2.223 . S
O80 C79 1.315 . S
O81 Cd71 2.240 . S
O81 C79 1.279 . S
O82 Cd72 2.297 . S
O82 C77 1.247 . S
O83 Cd72 2.439 . S
O83 C77 1.208 . S
O84 Cd85 2.223 . S
O84 C92 1.315 . S
Cd85 O84 2.223 . S
Cd85 O88 2.297 . S
Cd85 O89 2.439 . S
Cd85 O95 2.240 . S
Cd86 O87 2.240 . S
Cd86 O94 2.223 . S
Cd86 O96 2.297 . S
Cd86 O97 2.439 . S
O87 Cd86 2.240 . S
O87 C92 1.279 . S
O88 Cd85 2.297 . S
O88 C90 1.247 . S
O89 Cd85 2.439 . S
O89 C90 1.208 . S
C90 O88 1.247 . S
C90 O89 1.208 . S
C91 O96 1.247 . S
C91 O97 1.208 . S
C92 O84 1.315 . S
C92 O87 1.279 . S
C93 O94 1.315 . S
C93 O95 1.279 . S
O94 Cd86 2.223 . S
O94 C93 1.315 . S
O95 Cd85 2.240 . S
O95 C93 1.279 . S
O96 Cd86 2.297 . S
O96 C91 1.247 . S
O97 Cd86 2.439 . S
O97 C91 1.208 . S
O98 Cd99 2.223 . S
O98 C106 1.315 . S
Cd99 O98 2.223 . S
Cd99 O102 2.297 . S
Cd99 O103 2.439 . S
Cd99 O109 2.240 . S
Cd100 O101 2.240 . S
Cd100 O108 2.223 1_556 S
Cd100 O110 2.297 . S
Cd100 O111 2.439 . S
O101 Cd100 2.240 . S
O101 C106 1.279 . S
O102 Cd99 2.297 . S
O102 C104 1.247 . S
O103 Cd99 2.439 . S
O103 C104 1.208 . S
C104 O102 1.247 . S
C104 O103 1.208 . S
C105 O110 1.247 . S
C105 O111 1.208 . S
C106 O98 1.315 . S
C106 O101 1.279 . S
C107 O108 1.315 1_556 S
C107 O109 1.279 . S
O108 Cd100 2.223 1_554 S
O108 C107 1.315 1_554 S
O109 Cd99 2.240 . S
O109 C107 1.279 . S
O110 Cd100 2.297 . S
O110 C105 1.247 . S
O111 Cd100 2.439 . S
O111 C105 1.208 . S
O112 Cd113 2.223 . S
O112 C120 1.315 . S
Cd113 O112 2.223 . S
Cd113 O116 2.297 . S
Cd113 O117 2.439 . S
Cd113 O123 2.240 . S
Cd114 O115 2.240 . S
Cd114 O122 2.223 . S
Cd114 O124 2.297 . S
Cd114 O125 2.439 . S
O115 Cd114 2.240 . S
O115 C120 1.279 . S
O116 Cd113 2.297 . S
O116 C118 1.247 . S
O117 Cd113 2.439 . S
O117 C118 1.208 . S
C118 O116 1.247 . S
C118 O117 1.208 . S
C119 O124 1.247 . S
C119 O125 1.208 . S
C120 O112 1.315 . S
C120 O115 1.279 . S
C121 O122 1.315 . S
C121 O123 1.279 . S
O122 Cd114 2.223 . S
O122 C121 1.315 . S
O123 Cd113 2.240 . S
O123 C121 1.279 . S
O124 Cd114 2.297 . S
O124 C119 1.247 . S
O125 Cd114 2.439 . S
O125 C119 1.208 . S
O126 Cd127 2.223 . S
O126 C134 1.315 . S
Cd127 O126 2.223 . S
Cd127 O130 2.297 . S
Cd127 O131 2.439 . S
Cd127 O137 2.240 . S
Cd128 O129 2.240 . S
Cd128 O136 2.223 . S
Cd128 O138 2.297 . S
Cd128 O139 2.439 . S
O129 Cd128 2.240 . S
O129 C134 1.279 . S
O130 Cd127 2.297 . S
O130 C132 1.247 . S
O131 Cd127 2.439 . S
O131 C132 1.208 . S
C132 O130 1.247 . S
C132 O131 1.208 . S
C133 O138 1.247 . S
C133 O139 1.208 . S
C134 O126 1.315 . S
C134 O129 1.279 . S
C135 O136 1.315 . S
C135 O137 1.279 . S
O136 Cd128 2.223 . S
O136 C135 1.315 . S
O137 Cd127 2.240 . S
O137 C135 1.279 . S
O138 Cd128 2.297 . S
O138 C133 1.247 . S
O139 Cd128 2.439 . S
O139 C133 1.208 . S
O140 Cd141 2.223 . S
O140 C148 1.315 . S
Cd141 O140 2.223 . S
Cd141 O144 2.297 . S
Cd141 O145 2.439 . S
Cd141 O151 2.240 . S
Cd142 O143 2.240 . S
Cd142 O150 2.223 1_556 S
Cd142 O152 2.297 . S
Cd142 O153 2.439 . S
O143 Cd142 2.240 . S
O143 C148 1.279 . S
O144 Cd141 2.297 . S
O144 C146 1.247 . S
O145 Cd141 2.439 . S
O145 C146 1.208 . S
C146 O144 1.247 . S
C146 O145 1.208 . S
C147 O152 1.247 . S
C147 O153 1.208 . S
C148 O140 1.315 . S
C148 O143 1.279 . S
C149 O150 1.315 1_556 S
C149 O151 1.279 . S
O150 Cd142 2.223 1_554 S
O150 C149 1.315 1_554 S
O151 Cd141 2.240 . S
O151 C149 1.279 . S
O152 Cd142 2.297 . S
O152 C147 1.247 . S
O153 Cd142 2.439 . S
O153 C147 1.208 . S
O154 Cd155 2.223 . S
O154 C162 1.315 . S
Cd155 O154 2.223 . S
Cd155 O158 2.297 . S
Cd155 O159 2.439 . S
Cd155 O165 2.240 . S
Cd156 O157 2.240 . S
Cd156 O164 2.223 . S
Cd156 O166 2.297 . S
Cd156 O167 2.439 . S
O157 Cd156 2.240 . S
O157 C162 1.279 . S
O158 Cd155 2.297 . S
O158 C160 1.247 . S
O159 Cd155 2.439 . S
O159 C160 1.208 . S
C160 O158 1.247 . S
C160 O159 1.208 . S
C161 O166 1.247 . S
C161 O167 1.208 . S
C162 O154 1.315 . S
C162 O157 1.279 . S
C163 O164 1.315 . S
C163 O165 1.279 . S
O164 Cd156 2.223 . S
O164 C163 1.315 . S
O165 Cd155 2.240 . S
O165 C163 1.279 . S
O166 Cd156 2.297 . S
O166 C161 1.247 . S
O167 Cd156 2.439 . S
O167 C161 1.208 . S
H168 C176 0.929 . S
H169 C178 0.930 . S
H170 C180 0.930 . S
H171 C183 0.929 . S
H172 C186 0.930 . S
H173 C188 0.960 . S
H174 C188 0.960 . S
H175 C188 0.960 . S
C176 H168 0.929 . S
C176 C177 1.377 . S
C176 C178 1.384 . S
C177 C176 1.377 . S
C177 C183 1.390 . S
C178 H169 0.930 . S
C178 C176 1.384 . S
C178 C179 1.372 . S
C179 C178 1.372 . S
C179 C180 1.400 . S
C179 C184 1.490 . S
C180 H170 0.930 . S
C180 C179 1.400 . S
C180 C183 1.386 . S
H181 C197 0.930 . S
H182 C198 0.931 . S
C183 H171 0.929 . S
C183 C177 1.390 . S
C183 C180 1.386 . S
C184 C179 1.490 . S
C184 C186 1.395 . S
C184 C187 1.403 . S
H185 C191 0.930 . S
C186 H172 0.930 . S
C186 C184 1.395 . S
C186 C189 1.403 . S
C187 C184 1.403 . S
C187 C188 1.524 . S
C187 C191 1.400 . S
C188 H173 0.960 . S
C188 H174 0.960 . S
C188 H175 0.960 . S
C188 C187 1.524 . S
C189 C186 1.403 . S
C189 C190 1.392 . S
C189 C193 1.495 . S
C190 C189 1.392 . S
C190 C191 1.385 . S
C190 C192 1.478 . S
C191 H185 0.930 . S
C191 C187 1.400 . S
C191 C190 1.385 . S
C192 C190 1.478 . S
C192 C194 1.381 . S
C192 C198 1.383 . S
C193 C189 1.495 . S
C193 H199 0.959 . S
C193 H200 0.961 . S
C193 H201 0.960 . S
C194 C192 1.381 . S
C194 C195 1.394 . S
C194 H202 0.930 . S
C195 C194 1.394 . S
C195 C196 1.383 . S
C195 H203 0.929 . S
C196 C195 1.383 . S
C196 C197 1.377 . S
C197 H181 0.930 . S
C197 C196 1.377 . S
C197 C198 1.379 . S
C198 H182 0.931 . S
C198 C192 1.383 . S
C198 C197 1.379 . S
H199 C193 0.959 . S
H200 C193 0.961 . S
H201 C193 0.960 . S
H202 C194 0.930 . S
H203 C195 0.929 . S
H204 C212 0.929 . S
H205 C214 0.930 . S
H206 C216 0.930 . S
H207 C219 0.929 . S
H208 C222 0.930 . S
H209 C224 0.960 . S
H210 C224 0.960 . S
H211 C224 0.960 . S
C212 H204 0.929 . S
C212 C213 1.377 . S
C212 C214 1.384 . S
C213 C212 1.377 . S
C213 C219 1.390 . S
C214 H205 0.930 . S
C214 C212 1.384 . S
C214 C215 1.372 . S
C215 C214 1.372 . S
C215 C216 1.400 . S
C215 C220 1.490 . S
C216 H206 0.930 . S
C216 C215 1.400 . S
C216 C219 1.386 . S
H217 C233 0.930 . S
H218 C234 0.931 . S
C219 H207 0.929 . S
C219 C213 1.390 . S
C219 C216 1.386 . S
C220 C215 1.490 . S
C220 C222 1.395 . S
C220 C223 1.403 . S
H221 C227 0.930 . S
C222 H208 0.930 . S
C222 C220 1.395 . S
C222 C225 1.403 . S
C223 C220 1.403 . S
C223 C224 1.524 . S
C223 C227 1.400 . S
C224 H209 0.960 . S
C224 H210 0.960 . S
C224 H211 0.960 . S
C224 C223 1.524 . S
C225 C222 1.403 . S
C225 C226 1.392 . S
C225 C229 1.495 . S
C226 C225 1.392 . S
C226 C227 1.385 . S
C226 C228 1.478 . S
C227 H221 0.930 . S
C227 C223 1.400 . S
C227 C226 1.385 . S
C228 C226 1.478 . S
C228 C230 1.381 . S
C228 C234 1.383 . S
C229 C225 1.495 . S
C229 H235 0.959 . S
C229 H236 0.961 . S
C229 H237 0.960 . S
C230 C228 1.381 . S
C230 C231 1.394 . S
C230 H238 0.930 . S
C231 C230 1.394 . S
C231 C232 1.383 . S
C231 H239 0.929 . S
C232 C231 1.383 . S
C232 C233 1.377 . S
C233 H217 0.930 . S
C233 C232 1.377 . S
C233 C234 1.379 . S
C234 H218 0.931 . S
C234 C228 1.383 . S
C234 C233 1.379 . S
H235 C229 0.959 . S
H236 C229 0.961 . S
H237 C229 0.960 . S
H238 C230 0.930 . S
H239 C231 0.929 . S
H240 C248 0.929 . S
H241 C250 0.930 . S
H242 C252 0.930 . S
H243 C255 0.929 . S
H244 C258 0.930 . S
H245 C260 0.960 . S
H246 C260 0.960 . S
H247 C260 0.960 . S
C248 H240 0.929 . S
C248 C249 1.377 . S
C248 C250 1.384 . S
C249 C248 1.377 . S
C249 C255 1.390 . S
C250 H241 0.930 . S
C250 C248 1.384 . S
C250 C251 1.372 . S
C251 C250 1.372 . S
C251 C252 1.400 . S
C251 C256 1.490 . S
C252 H242 0.930 . S
C252 C251 1.400 . S
C252 C255 1.386 . S
H253 C269 0.930 . S
H254 C270 0.931 . S
C255 H243 0.929 . S
C255 C249 1.390 . S
C255 C252 1.386 . S
C256 C251 1.490 . S
C256 C258 1.395 . S
C256 C259 1.403 . S
H257 C263 0.930 . S
C258 H244 0.930 . S
C258 C256 1.395 . S
C258 C261 1.403 1_556 S
C259 C256 1.403 . S
C259 C260 1.524 . S
C259 C263 1.400 1_556 S
C260 H245 0.960 . S
C260 H246 0.960 . S
C260 H247 0.960 . S
C260 C259 1.524 . S
C261 C258 1.403 1_554 S
C261 C262 1.392 . S
C261 C265 1.495 . S
C262 C261 1.392 . S
C262 C263 1.385 . S
C262 C264 1.478 . S
C263 H257 0.930 . S
C263 C259 1.400 1_554 S
C263 C262 1.385 . S
C264 C262 1.478 . S
C264 C266 1.381 . S
C264 C270 1.383 . S
C265 C261 1.495 . S
C265 H271 0.959 . S
C265 H272 0.961 . S
C265 H273 0.960 . S
C266 C264 1.381 . S
C266 C267 1.394 . S
C266 H274 0.930 . S
C267 C266 1.394 . S
C267 C268 1.383 . S
C267 H275 0.929 . S
C268 C267 1.383 . S
C268 C269 1.377 . S
C269 H253 0.930 . S
C269 C268 1.377 . S
C269 C270 1.379 . S
C270 H254 0.931 . S
C270 C264 1.383 . S
C270 C269 1.379 . S
H271 C265 0.959 . S
H272 C265 0.961 . S
H273 C265 0.960 . S
H274 C266 0.930 . S
H275 C267 0.929 . S
H276 C284 0.929 . S
H277 C286 0.930 . S
H278 C288 0.930 . S
H279 C291 0.929 . S
H280 C294 0.930 . S
H281 C296 0.960 . S
H282 C296 0.960 . S
H283 C296 0.960 . S
C284 H276 0.929 . S
C284 C285 1.377 . S
C284 C286 1.384 . S
C285 C284 1.377 . S
C285 C291 1.390 . S
C286 H277 0.930 . S
C286 C284 1.384 . S
C286 C287 1.372 . S
C287 C286 1.372 . S
C287 C288 1.400 . S
C287 C292 1.490 . S
C288 H278 0.930 . S
C288 C287 1.400 . S
C288 C291 1.386 . S
H289 C305 0.930 . S
H290 C306 0.931 . S
C291 H279 0.929 . S
C291 C285 1.390 . S
C291 C288 1.386 . S
C292 C287 1.490 . S
C292 C294 1.395 . S
C292 C295 1.403 . S
H293 C299 0.930 . S
C294 H280 0.930 . S
C294 C292 1.395 . S
C294 C297 1.403 . S
C295 C292 1.403 . S
C295 C296 1.524 . S
C295 C299 1.400 . S
C296 H281 0.960 . S
C296 H282 0.960 . S
C296 H283 0.960 . S
C296 C295 1.524 . S
C297 C294 1.403 . S
C297 C298 1.392 . S
C297 C301 1.495 . S
C298 C297 1.392 . S
C298 C299 1.385 . S
C298 C300 1.478 . S
C299 H293 0.930 . S
C299 C295 1.400 . S
C299 C298 1.385 . S
C300 C298 1.478 . S
C300 C302 1.381 . S
C300 C306 1.383 . S
C301 C297 1.495 . S
C301 H307 0.959 . S
C301 H308 0.961 . S
C301 H309 0.960 . S
C302 C300 1.381 . S
C302 C303 1.394 . S
C302 H310 0.930 . S
C303 C302 1.394 . S
C303 C304 1.383 . S
C303 H311 0.929 . S
C304 C303 1.383 . S
C304 C305 1.377 . S
C305 H289 0.930 . S
C305 C304 1.377 . S
C305 C306 1.379 . S
C306 H290 0.931 . S
C306 C300 1.383 . S
C306 C305 1.379 . S
H307 C301 0.959 . S
H308 C301 0.961 . S
H309 C301 0.960 . S
H310 C302 0.930 . S
H311 C303 0.929 . S
H312 C320 0.929 . S
H313 C322 0.930 . S
H314 C324 0.930 . S
H315 C327 0.929 . S
H316 C330 0.930 . S
H317 C332 0.960 . S
H318 C332 0.960 . S
H319 C332 0.960 . S
C320 H312 0.929 . S
C320 C321 1.377 . S
C320 C322 1.384 . S
C321 C320 1.377 . S
C321 C327 1.390 . S
C322 H313 0.930 . S
C322 C320 1.384 . S
C322 C323 1.372 . S
C323 C322 1.372 . S
C323 C324 1.400 . S
C323 C328 1.490 . S
C324 H314 0.930 . S
C324 C323 1.400 . S
C324 C327 1.386 . S
H325 C341 0.930 . S
H326 C342 0.931 . S
C327 H315 0.929 . S
C327 C321 1.390 . S
C327 C324 1.386 . S
C328 C323 1.490 . S
C328 C330 1.395 . S
C328 C331 1.403 . S
H329 C335 0.930 . S
C330 H316 0.930 . S
C330 C328 1.395 . S
C330 C333 1.403 . S
C331 C328 1.403 . S
C331 C332 1.524 . S
C331 C335 1.400 . S
C332 H317 0.960 . S
C332 H318 0.960 . S
C332 H319 0.960 . S
C332 C331 1.524 . S
C333 C330 1.403 . S
C333 C334 1.392 . S
C333 C337 1.495 . S
C334 C333 1.392 . S
C334 C335 1.385 . S
C334 C336 1.478 . S
C335 H329 0.930 . S
C335 C331 1.400 . S
C335 C334 1.385 . S
C336 C334 1.478 . S
C336 C338 1.381 . S
C336 C342 1.383 . S
C337 C333 1.495 . S
C337 H343 0.959 . S
C337 H344 0.961 . S
C337 H345 0.960 . S
C338 C336 1.381 . S
C338 C339 1.394 . S
C338 H346 0.930 . S
C339 C338 1.394 . S
C339 C340 1.383 . S
C339 H347 0.929 . S
C340 C339 1.383 . S
C340 C341 1.377 . S
C341 H325 0.930 . S
C341 C340 1.377 . S
C341 C342 1.379 . S
C342 H326 0.931 . S
C342 C336 1.383 . S
C342 C341 1.379 . S
H343 C337 0.959 . S
H344 C337 0.961 . S
H345 C337 0.960 . S
H346 C338 0.930 . S
H347 C339 0.929 . S
H348 C356 0.929 . S
H349 C358 0.930 . S
H350 C360 0.930 . S
H351 C363 0.929 . S
H352 C366 0.930 . S
H353 C368 0.960 1_556 S
H354 C368 0.960 . S
H355 C368 0.960 . S
C356 H348 0.929 . S
C356 C357 1.377 . S
C356 C358 1.384 . S
C357 C356 1.377 . S
C357 C363 1.390 . S
C358 H349 0.930 . S
C358 C356 1.384 . S
C358 C359 1.372 . S
C359 C358 1.372 . S
C359 C360 1.400 . S
C359 C364 1.490 . S
C360 H350 0.930 . S
C360 C359 1.400 . S
C360 C363 1.386 . S
H361 C377 0.930 . S
H362 C378 0.931 . S
C363 H351 0.929 . S
C363 C357 1.390 . S
C363 C360 1.386 . S
C364 C359 1.490 . S
C364 C366 1.395 . S
C364 C367 1.403 . S
H365 C371 0.930 . S
C366 H352 0.930 . S
C366 C364 1.395 . S
C366 C369 1.403 1_554 S
C367 C364 1.403 . S
C367 C368 1.524 . S
C367 C371 1.400 1_554 S
C368 H353 0.960 1_554 S
C368 H354 0.960 . S
C368 H355 0.960 . S
C368 C367 1.524 . S
C369 C366 1.403 1_556 S
C369 C370 1.392 . S
C369 C373 1.495 . S
C370 C369 1.392 . S
C370 C371 1.385 . S
C370 C372 1.478 . S
C371 H365 0.930 . S
C371 C367 1.400 1_556 S
C371 C370 1.385 . S
C372 C370 1.478 . S
C372 C374 1.381 . S
C372 C378 1.383 . S
C373 C369 1.495 . S
C373 H379 0.959 1_556 S
C373 H380 0.961 . S
C373 H381 0.960 . S
C374 C372 1.381 . S
C374 C375 1.394 . S
C374 H382 0.930 . S
C375 C374 1.394 . S
C375 C376 1.383 . S
C375 H383 0.929 . S
C376 C375 1.383 . S
C376 C377 1.377 . S
C377 H361 0.930 . S
C377 C376 1.377 . S
C377 C378 1.379 . S
C378 H362 0.931 . S
C378 C372 1.383 . S
C378 C377 1.379 . S
H379 C373 0.959 1_554 S
H380 C373 0.961 . S
H381 C373 0.960 . S
H382 C374 0.930 . S
H383 C375 0.929 . S
H384 C392 0.929 . S
H385 C394 0.930 . S
H386 C396 0.930 . S
H387 C399 0.929 . S
H388 C402 0.930 . S
H389 C404 0.960 . S
H390 C404 0.960 . S
H391 C404 0.960 . S
C392 H384 0.929 . S
C392 C393 1.377 . S
C392 C394 1.384 . S
C393 C392 1.377 . S
C393 C399 1.390 . S
C394 H385 0.930 . S
C394 C392 1.384 . S
C394 C395 1.372 . S
C395 C394 1.372 . S
C395 C396 1.400 . S
C395 C400 1.490 . S
C396 H386 0.930 . S
C396 C395 1.400 . S
C396 C399 1.386 . S
H397 C413 0.930 . S
H398 C414 0.931 1_554 S
C399 H387 0.929 . S
C399 C393 1.390 . S
C399 C396 1.386 . S
C400 C395 1.490 . S
C400 C402 1.395 . S
C400 C403 1.403 1_554 S
H401 C407 0.930 . S
C402 H388 0.930 . S
C402 C400 1.395 . S
C402 C405 1.403 . S
C403 C400 1.403 1_556 S
C403 C404 1.524 . S
C403 C407 1.400 . S
C404 H389 0.960 . S
C404 H390 0.960 . S
C404 H391 0.960 . S
C404 C403 1.524 . S
C405 C402 1.403 . S
C405 C406 1.392 1_554 S
C405 C409 1.495 . S
C406 C405 1.392 1_556 S
C406 C407 1.385 . S
C406 C408 1.478 . S
C407 H401 0.930 . S
C407 C403 1.400 . S
C407 C406 1.385 . S
C408 C406 1.478 . S
C408 C410 1.381 . S
C408 C414 1.383 . S
C409 C405 1.495 . S
C409 H415 0.959 . S
C409 H416 0.961 . S
C409 H417 0.960 . S
C410 C408 1.381 . S
C410 C411 1.394 . S
C410 H418 0.930 . S
C411 C410 1.394 . S
C411 C412 1.383 . S
C411 H419 0.929 . S
C412 C411 1.383 . S
C412 C413 1.377 . S
C413 H397 0.930 . S
C413 C412 1.377 . S
C413 C414 1.379 . S
C414 H398 0.931 1_556 S
C414 C408 1.383 . S
C414 C413 1.379 . S
H415 C409 0.959 . S
H416 C409 0.961 . S
H417 C409 0.960 . S
H418 C410 0.930 . S
H419 C411 0.929 . S
H420 C428 0.929 . S
H421 C430 0.930 . S
H422 C432 0.930 . S
H423 C435 0.929 . S
H424 C438 0.930 . S
H425 C440 0.960 . S
H426 C440 0.960 . S
H427 C440 0.960 . S
C428 H420 0.929 . S
C428 C429 1.377 . S
C428 C430 1.384 . S
C429 C428 1.377 . S
C429 C435 1.390 . S
C430 H421 0.930 . S
C430 C428 1.384 . S
C430 C431 1.372 . S
C431 C430 1.372 . S
C431 C432 1.400 . S
C431 C436 1.490 . S
C432 H422 0.930 . S
C432 C431 1.400 . S
C432 C435 1.386 . S
H433 C449 0.930 . S
H434 C450 0.931 . S
C435 H423 0.929 . S
C435 C429 1.390 . S
C435 C432 1.386 . S
C436 C431 1.490 . S
C436 C438 1.395 . S
C436 C439 1.403 . S
H437 C443 0.930 . S
C438 H424 0.930 . S
C438 C436 1.395 . S
C438 C441 1.403 . S
C439 C436 1.403 . S
C439 C440 1.524 . S
C439 C443 1.400 . S
C440 H425 0.960 . S
C440 H426 0.960 . S
C440 H427 0.960 . S
C440 C439 1.524 . S
C441 C438 1.403 . S
C441 C442 1.392 . S
C441 C445 1.495 . S
C442 C441 1.392 . S
C442 C443 1.385 . S
C442 C444 1.478 . S
C443 H437 0.930 . S
C443 C439 1.400 . S
C443 C442 1.385 . S
C444 C442 1.478 . S
C444 C446 1.381 . S
C444 C450 1.383 . S
C445 C441 1.495 . S
C445 H451 0.959 . S
C445 H452 0.961 . S
C445 H453 0.960 . S
C446 C444 1.381 . S
C446 C447 1.394 . S
C446 H454 0.930 . S
C447 C446 1.394 . S
C447 C448 1.383 . S
C447 H455 0.929 . S
C448 C447 1.383 . S
C448 C449 1.377 . S
C449 H433 0.930 . S
C449 C448 1.377 . S
C449 C450 1.379 . S
C450 H434 0.931 . S
C450 C444 1.383 . S
C450 C449 1.379 . S
H451 C445 0.959 . S
H452 C445 0.961 . S
H453 C445 0.960 . S
H454 C446 0.930 . S
H455 C447 0.929 . S
H456 C464 0.929 . S
H457 C466 0.930 . S
H458 C468 0.930 . S
H459 C471 0.929 . S
H460 C474 0.930 . S
H461 C476 0.960 . S
H462 C476 0.960 . S
H463 C476 0.960 . S
C464 H456 0.929 . S
C464 C465 1.377 . S
C464 C466 1.384 . S
C465 C464 1.377 . S
C465 C471 1.390 . S
C466 H457 0.930 . S
C466 C464 1.384 . S
C466 C467 1.372 . S
C467 C466 1.372 . S
C467 C468 1.400 . S
C467 C472 1.490 . S
C468 H458 0.930 . S
C468 C467 1.400 . S
C468 C471 1.386 . S
H469 C485 0.930 . S
H470 C486 0.931 . S
C471 H459 0.929 . S
C471 C465 1.390 . S
C471 C468 1.386 . S
C472 C467 1.490 . S
C472 C474 1.395 . S
C472 C475 1.403 . S
H473 C479 0.930 . S
C474 H460 0.930 . S
C474 C472 1.395 . S
C474 C477 1.403 . S
C475 C472 1.403 . S
C475 C476 1.524 . S
C475 C479 1.400 . S
C476 H461 0.960 . S
C476 H462 0.960 . S
C476 H463 0.960 . S
C476 C475 1.524 . S
C477 C474 1.403 . S
C477 C478 1.392 . S
C477 C481 1.495 . S
C478 C477 1.392 . S
C478 C479 1.385 . S
C478 C480 1.478 . S
C479 H473 0.930 . S
C479 C475 1.400 . S
C479 C478 1.385 . S
C480 C478 1.478 . S
C480 C482 1.381 . S
C480 C486 1.383 . S
C481 C477 1.495 . S
C481 H487 0.959 . S
C481 H488 0.961 . S
C481 H489 0.960 . S
C482 C480 1.381 . S
C482 C483 1.394 . S
C482 H490 0.930 . S
C483 C482 1.394 . S
C483 C484 1.383 . S
C483 H491 0.929 . S
C484 C483 1.383 . S
C484 C485 1.377 . S
C485 H469 0.930 . S
C485 C484 1.377 . S
C485 C486 1.379 . S
C486 H470 0.931 . S
C486 C480 1.383 . S
C486 C485 1.379 . S
H487 C481 0.959 . S
H488 C481 0.961 . S
H489 C481 0.960 . S
H490 C482 0.930 . S
H491 C483 0.929 . S
H492 C500 0.929 . S
H493 C502 0.930 1_556 S
H494 C504 0.930 . S
H495 C507 0.929 . S
H496 C510 0.930 . S
H497 C512 0.960 . S
H498 C512 0.960 . S
H499 C512 0.960 . S
C500 H492 0.929 . S
C500 C501 1.377 . S
C500 C502 1.384 . S
C501 C500 1.377 . S
C501 C507 1.390 . S
C502 H493 0.930 1_554 S
C502 C500 1.384 . S
C502 C503 1.372 . S
C503 C502 1.372 . S
C503 C504 1.400 . S
C503 C508 1.490 . S
C504 H494 0.930 . S
C504 C503 1.400 . S
C504 C507 1.386 . S
H505 C521 0.930 . S
H506 C522 0.931 1_554 S
C507 H495 0.929 . S
C507 C501 1.390 . S
C507 C504 1.386 . S
C508 C503 1.490 . S
C508 C510 1.395 . S
C508 C511 1.403 1_554 S
H509 C515 0.930 . S
C510 H496 0.930 . S
C510 C508 1.395 . S
C510 C513 1.403 . S
C511 C508 1.403 1_556 S
C511 C512 1.524 . S
C511 C515 1.400 . S
C512 H497 0.960 . S
C512 H498 0.960 . S
C512 H499 0.960 . S
C512 C511 1.524 . S
C513 C510 1.403 . S
C513 C514 1.392 1_554 S
C513 C517 1.495 . S
C514 C513 1.392 1_556 S
C514 C515 1.385 . S
C514 C516 1.478 . S
C515 H509 0.930 . S
C515 C511 1.400 . S
C515 C514 1.385 . S
C516 C514 1.478 . S
C516 C518 1.381 . S
C516 C522 1.383 . S
C517 C513 1.495 . S
C517 H523 0.959 . S
C517 H524 0.961 . S
C517 H525 0.960 . S
C518 C516 1.381 . S
C518 C519 1.394 . S
C518 H526 0.930 . S
C519 C518 1.394 . S
C519 C520 1.383 . S
C519 H527 0.929 . S
C520 C519 1.383 . S
C520 C521 1.377 . S
C521 H505 0.930 . S
C521 C520 1.377 . S
C521 C522 1.379 . S
C522 H506 0.931 1_556 S
C522 C516 1.383 . S
C522 C521 1.379 . S
H523 C517 0.959 . S
H524 C517 0.961 . S
H525 C517 0.960 . S
H526 C518 0.930 . S
H527 C519 0.929 . S
H528 C536 0.929 . S
H529 C538 0.930 . S
H530 C540 0.930 . S
H531 C543 0.929 . S
H532 C546 0.930 . S
H533 C548 0.960 . S
H534 C548 0.960 . S
H535 C548 0.960 . S
C536 H528 0.929 . S
C536 C537 1.377 . S
C536 C538 1.384 . S
C537 C536 1.377 . S
C537 C543 1.390 . S
C538 H529 0.930 . S
C538 C536 1.384 . S
C538 C539 1.372 . S
C539 C538 1.372 . S
C539 C540 1.400 . S
C539 C544 1.490 . S
C540 H530 0.930 . S
C540 C539 1.400 . S
C540 C543 1.386 . S
H541 C557 0.930 . S
H542 C558 0.931 . S
C543 H531 0.929 . S
C543 C537 1.390 . S
C543 C540 1.386 . S
C544 C539 1.490 . S
C544 C546 1.395 . S
C544 C547 1.403 . S
H545 C551 0.930 . S
C546 H532 0.930 . S
C546 C544 1.395 . S
C546 C549 1.403 . S
C547 C544 1.403 . S
C547 C548 1.524 . S
C547 C551 1.400 . S
C548 H533 0.960 . S
C548 H534 0.960 . S
C548 H535 0.960 . S
C548 C547 1.524 . S
C549 C546 1.403 . S
C549 C550 1.392 . S
C549 C553 1.495 . S
C550 C549 1.392 . S
C550 C551 1.385 . S
C550 C552 1.478 . S
C551 H545 0.930 . S
C551 C547 1.400 . S
C551 C550 1.385 . S
C552 C550 1.478 . S
C552 C554 1.381 . S
C552 C558 1.383 . S
C553 C549 1.495 . S
C553 H559 0.959 . S
C553 H560 0.961 . S
C553 H561 0.960 . S
C554 C552 1.381 . S
C554 C555 1.394 . S
C554 H562 0.930 . S
C555 C554 1.394 . S
C555 C556 1.383 . S
C555 H563 0.929 . S
C556 C555 1.383 . S
C556 C557 1.377 . S
C557 H541 0.930 . S
C557 C556 1.377 . S
C557 C558 1.379 . S
C558 H542 0.931 . S
C558 C552 1.383 . S
C558 C557 1.379 . S
H559 C553 0.959 . S
H560 C553 0.961 . S
H561 C553 0.960 . S
H562 C554 0.930 . S
H563 C555 0.929 . S
H564 C572 0.929 . S
H565 C574 0.930 . S
H566 C576 0.930 . S
H567 C579 0.929 . S
H568 C582 0.930 . S
H569 C584 0.960 . S
H570 C584 0.960 . S
H571 C584 0.960 . S
C572 H564 0.929 . S
C572 C573 1.377 . S
C572 C574 1.384 . S
C573 C572 1.377 . S
C573 C579 1.390 . S
C574 H565 0.930 . S
C574 C572 1.384 . S
C574 C575 1.372 . S
C575 C574 1.372 . S
C575 C576 1.400 . S
C575 C580 1.490 . S
C576 H566 0.930 . S
C576 C575 1.400 . S
C576 C579 1.386 . S
H577 C593 0.930 . S
H578 C594 0.931 . S
C579 H567 0.929 . S
C579 C573 1.390 . S
C579 C576 1.386 . S
C580 C575 1.490 . S
C580 C582 1.395 . S
C580 C583 1.403 . S
H581 C587 0.930 . S
C582 H568 0.930 . S
C582 C580 1.395 . S
C582 C585 1.403 . S
C583 C580 1.403 . S
C583 C584 1.524 . S
C583 C587 1.400 . S
C584 H569 0.960 . S
C584 H570 0.960 . S
C584 H571 0.960 . S
C584 C583 1.524 . S
C585 C582 1.403 . S
C585 C586 1.392 . S
C585 C589 1.495 . S
C586 C585 1.392 . S
C586 C587 1.385 . S
C586 C588 1.478 . S
C587 H581 0.930 . S
C587 C583 1.400 . S
C587 C586 1.385 . S
C588 C586 1.478 . S
C588 C590 1.381 . S
C588 C594 1.383 . S
C589 C585 1.495 . S
C589 H595 0.959 . S
C589 H596 0.961 . S
C589 H597 0.960 . S
C590 C588 1.381 . S
C590 C591 1.394 . S
C590 H598 0.930 . S
C591 C590 1.394 . S
C591 C592 1.383 . S
C591 H599 0.929 . S
C592 C591 1.383 . S
C592 C593 1.377 . S
C593 H577 0.930 . S
C593 C592 1.377 . S
C593 C594 1.379 . S
C594 H578 0.931 . S
C594 C588 1.383 . S
C594 C593 1.379 . S
H595 C589 0.959 . S
H596 C589 0.961 . S
H597 C589 0.960 . S
H598 C590 0.930 . S
H599 C591 0.929 . S
H600 C608 0.929 . S
H601 C610 0.930 . S
H602 C612 0.930 . S
H603 C615 0.929 . S
H604 C618 0.930 . S
H605 C620 0.960 . S
H606 C620 0.960 . S
H607 C620 0.960 . S
C608 H600 0.929 . S
C608 C609 1.377 . S
C608 C610 1.384 . S
C609 C608 1.377 . S
C609 C615 1.390 . S
C610 H601 0.930 . S
C610 C608 1.384 . S
C610 C611 1.372 . S
C611 C610 1.372 . S
C611 C612 1.400 . S
C611 C616 1.490 . S
C612 H602 0.930 . S
C612 C611 1.400 . S
C612 C615 1.386 . S
H613 C629 0.930 . S
H614 C630 0.931 . S
C615 H603 0.929 . S
C615 C609 1.390 . S
C615 C612 1.386 . S
C616 C611 1.490 . S
C616 C618 1.395 . S
C616 C619 1.403 . S
H617 C623 0.930 . S
C618 H604 0.930 . S
C618 C616 1.395 . S
C618 C621 1.403 . S
C619 C616 1.403 . S
C619 C620 1.524 . S
C619 C623 1.400 . S
C620 H605 0.960 . S
C620 H606 0.960 . S
C620 H607 0.960 . S
C620 C619 1.524 . S
C621 C618 1.403 . S
C621 C622 1.392 . S
C621 C625 1.495 . S
C622 C621 1.392 . S
C622 C623 1.385 . S
C622 C624 1.478 . S
C623 H617 0.930 . S
C623 C619 1.400 . S
C623 C622 1.385 . S
C624 C622 1.478 . S
C624 C626 1.381 . S
C624 C630 1.383 . S
C625 C621 1.495 . S
C625 H631 0.959 . S
C625 H632 0.961 . S
C625 H633 0.960 . S
C626 C624 1.381 . S
C626 C627 1.394 . S
C626 H634 0.930 . S
C627 C626 1.394 . S
C627 C628 1.383 . S
C627 H635 0.929 . S
C628 C627 1.383 . S
C628 C629 1.377 . S
C629 H613 0.930 . S
C629 C628 1.377 . S
C629 C630 1.379 . S
C630 H614 0.931 . S
C630 C624 1.383 . S
C630 C629 1.379 . S
H631 C625 0.959 . S
H632 C625 0.961 . S
H633 C625 0.960 . S
H634 C626 0.930 . S
H635 C627 0.929 . S
H636 C644 0.929 . S
H637 C646 0.930 . S
H638 C648 0.930 . S
H639 C651 0.929 . S
H640 C654 0.930 . S
H641 C656 0.960 . S
H642 C656 0.960 1_655 S
H643 C656 0.960 1_655 S
C644 H636 0.929 . S
C644 C645 1.377 . S
C644 C646 1.384 . S
C645 C644 1.377 . S
C645 C651 1.390 . S
C646 H637 0.930 . S
C646 C644 1.384 . S
C646 C647 1.372 . S
C647 C646 1.372 . S
C647 C648 1.400 . S
C647 C652 1.490 . S
C648 H638 0.930 . S
C648 C647 1.400 . S
C648 C651 1.386 . S
H649 C665 0.930 . S
H650 C666 0.931 . S
C651 H639 0.929 . S
C651 C645 1.390 . S
C651 C648 1.386 . S
C652 C647 1.490 . S
C652 C654 1.395 . S
C652 C655 1.436 . S
H653 C659 0.930 . S
C654 H640 0.930 . S
C654 C652 1.395 . S
C654 C657 1.403 . S
C655 C652 1.436 . S
C655 C656 1.505 1_655 S
C655 C659 1.385 1_655 S
C656 H641 0.960 . S
C656 H642 0.960 1_455 S
C656 H643 0.960 1_455 S
C656 C655 1.505 1_455 S
C657 C654 1.403 . S
C657 C658 1.392 1_655 S
C657 C661 1.495 . S
C658 C657 1.392 1_455 S
C658 C659 1.385 . S
C658 C660 1.478 . S
C659 H653 0.930 . S
C659 C655 1.385 1_455 S
C659 C658 1.385 . S
C660 C658 1.478 . S
C660 C662 1.381 . S
C660 C666 1.383 . S
C661 C657 1.495 . S
C661 H667 0.959 . S
C661 H668 0.961 1_655 S
C661 H669 0.960 1_655 S
C662 C660 1.381 . S
C662 C663 1.394 . S
C662 H670 0.930 . S
C663 C662 1.394 . S
C663 C664 1.383 . S
C663 H671 0.929 . S
C664 C663 1.383 . S
C664 C665 1.377 . S
C665 H649 0.930 . S
C665 C664 1.377 . S
C665 C666 1.379 . S
C666 H650 0.931 . S
C666 C660 1.383 . S
C666 C665 1.379 . S
H667 C661 0.959 . S
H668 C661 0.961 1_455 S
H669 C661 0.960 1_455 S
H670 C662 0.930 . S
H671 C663 0.929 . S
H672 C680 0.929 . S
H673 C682 0.930 . S
H674 C684 0.930 . S
H675 C687 0.929 . S
H676 C690 0.930 . S
H677 C692 0.960 . S
H678 C692 0.960 . S
H679 C692 0.960 . S
C680 H672 0.929 . S
C680 C681 1.377 . S
C680 C682 1.384 . S
C681 C680 1.377 . S
C681 C687 1.390 . S
C682 H673 0.930 . S
C682 C680 1.384 . S
C682 C683 1.372 . S
C683 C682 1.372 . S
C683 C684 1.400 . S
C683 C688 1.490 . S
C684 H674 0.930 . S
C684 C683 1.400 . S
C684 C687 1.386 . S
H685 C701 0.930 . S
H686 C702 0.931 . S
C687 H675 0.929 . S
C687 C681 1.390 . S
C687 C684 1.386 . S
C688 C683 1.490 . S
C688 C690 1.395 . S
C688 C691 1.403 . S
H689 C695 0.930 . S
C690 H676 0.930 . S
C690 C688 1.395 . S
C690 C693 1.403 1_545 S
C691 C688 1.403 . S
C691 C692 1.524 . S
C691 C695 1.400 1_545 S
C692 H677 0.960 . S
C692 H678 0.960 . S
C692 H679 0.960 . S
C692 C691 1.524 . S
C693 C690 1.403 1_565 S
C693 C694 1.392 . S
C693 C697 1.495 . S
C694 C693 1.392 . S
C694 C695 1.385 . S
C694 C696 1.478 . S
C695 H689 0.930 . S
C695 C691 1.400 1_565 S
C695 C694 1.385 . S
C696 C694 1.478 . S
C696 C698 1.381 . S
C696 C702 1.383 . S
C697 C693 1.495 . S
C697 H703 0.959 . S
C697 H704 0.961 . S
C697 H705 0.960 . S
C698 C696 1.381 . S
C698 C699 1.394 . S
C698 H706 0.930 . S
C699 C698 1.394 . S
C699 C700 1.383 . S
C699 H707 0.929 . S
C700 C699 1.383 . S
C700 C701 1.377 . S
C701 H685 0.930 . S
C701 C700 1.377 . S
C701 C702 1.379 . S
C702 H686 0.931 . S
C702 C696 1.383 . S
C702 C701 1.379 . S
H703 C697 0.959 . S
H704 C697 0.961 . S
H705 C697 0.960 . S
H706 C698 0.930 . S
H707 C699 0.929 . S
H708 C716 0.929 . S
H709 C718 0.930 . S
H710 C720 0.930 . S
H711 C723 0.929 . S
H712 C726 0.930 . S
H713 C728 0.960 . S
H714 C728 0.960 . S
H715 C728 0.960 . S
C716 H708 0.929 . S
C716 C717 1.377 . S
C716 C718 1.384 . S
C717 C716 1.377 . S
C717 C723 1.390 . S
C718 H709 0.930 . S
C718 C716 1.384 . S
C718 C719 1.372 . S
C719 C718 1.372 . S
C719 C720 1.400 . S
C719 C724 1.490 . S
C720 H710 0.930 . S
C720 C719 1.400 . S
C720 C723 1.386 . S
H721 C737 0.930 . S
H722 C738 0.931 . S
C723 H711 0.929 . S
C723 C717 1.390 . S
C723 C720 1.386 . S
C724 C719 1.490 . S
C724 C726 1.395 . S
C724 C727 1.403 . S
H725 C731 0.930 . S
C726 H712 0.930 . S
C726 C724 1.395 . S
C726 C729 1.403 . S
C727 C724 1.403 . S
C727 C728 1.524 . S
C727 C731 1.400 . S
C728 H713 0.960 . S
C728 H714 0.960 . S
C728 H715 0.960 . S
C728 C727 1.524 . S
C729 C726 1.403 . S
C729 C730 1.392 . S
C729 C733 1.495 . S
C730 C729 1.392 . S
C730 C731 1.385 . S
C730 C732 1.478 . S
C731 H725 0.930 . S
C731 C727 1.400 . S
C731 C730 1.385 . S
C732 C730 1.478 . S
C732 C734 1.381 . S
C732 C738 1.383 . S
C733 C729 1.495 . S
C733 H739 0.959 . S
C733 H740 0.961 . S
C733 H741 0.960 . S
C734 C732 1.381 . S
C734 C735 1.394 . S
C734 H742 0.930 . S
C735 C734 1.394 . S
C735 C736 1.383 . S
C735 H743 0.929 . S
C736 C735 1.383 . S
C736 C737 1.377 . S
C737 H721 0.930 . S
C737 C736 1.377 . S
C737 C738 1.379 . S
C738 H722 0.931 . S
C738 C732 1.383 . S
C738 C737 1.379 . S
H739 C733 0.959 . S
H740 C733 0.961 . S
H741 C733 0.960 . S
H742 C734 0.930 . S
H743 C735 0.929 . S
H744 C752 0.929 . S
H745 C754 0.930 . S
H746 C756 0.930 . S
H747 C759 0.929 . S
H748 C762 0.930 . S
H749 C764 0.940 1_655 S
H750 C764 0.975 . S
H751 C764 0.978 . S
C752 H744 0.929 . S
C752 C753 1.377 . S
C752 C754 1.384 . S
C753 C752 1.377 . S
C753 C759 1.390 . S
C754 H745 0.930 . S
C754 C752 1.384 . S
C754 C755 1.372 . S
C755 C754 1.372 . S
C755 C756 1.400 . S
C755 C760 1.490 . S
C756 H746 0.930 . S
C756 C755 1.400 . S
C756 C759 1.386 . S
H757 C773 0.930 . S
H758 C774 0.931 . S
C759 H747 0.929 . S
C759 C753 1.390 . S
C759 C756 1.386 . S
C760 C755 1.490 . S
C760 C762 1.395 . S
C760 C763 1.403 . S
H761 C767 0.930 . S
C762 H748 0.930 . S
C762 C760 1.395 . S
C762 C765 1.455 . S
C763 C760 1.403 . S
C763 C764 1.512 . S
C763 C767 1.400 1_455 S
C764 H749 0.940 1_455 S
C764 H750 0.975 . S
C764 H751 0.978 . S
C764 C763 1.512 . S
C765 C762 1.455 . S
C765 C766 1.367 1_455 S
C765 C769 1.473 . S
C766 C765 1.367 1_655 S
C766 C767 1.385 . S
C766 C768 1.478 . S
C767 H761 0.930 . S
C767 C763 1.400 1_655 S
C767 C766 1.385 . S
C768 C766 1.478 . S
C768 C770 1.381 . S
C768 C774 1.383 . S
C769 C765 1.473 . S
C769 H775 0.959 . S
C769 H776 0.961 1_455 S
C769 H777 0.960 1_455 S
C770 C768 1.381 . S
C770 C771 1.394 . S
C770 H778 0.930 . S
C771 C770 1.394 . S
C771 C772 1.383 . S
C771 H779 0.929 . S
C772 C771 1.383 . S
C772 C773 1.377 . S
C773 H757 0.930 . S
C773 C772 1.377 . S
C773 C774 1.379 . S
C774 H758 0.931 . S
C774 C768 1.383 . S
C774 C773 1.379 . S
H775 C769 0.959 . S
H776 C769 0.961 1_655 S
H777 C769 0.960 1_655 S
H778 C770 0.930 . S
H779 C771 0.929 . S
H780 C788 0.929 . S
H781 C790 0.930 . S
H782 C792 0.930 . S
H783 C795 0.929 . S
H784 C798 0.930 . S
H785 C800 0.960 . S
H786 C800 0.960 . S
H787 C800 0.960 . S
C788 H780 0.929 . S
C788 C789 1.377 . S
C788 C790 1.384 . S
C789 C788 1.377 . S
C789 C795 1.390 . S
C790 H781 0.930 . S
C790 C788 1.384 . S
C790 C791 1.372 . S
C791 C790 1.372 . S
C791 C792 1.400 . S
C791 C796 1.490 . S
C792 H782 0.930 . S
C792 C791 1.400 . S
C792 C795 1.386 . S
H793 C809 0.930 . S
H794 C810 0.931 . S
C795 H783 0.929 . S
C795 C789 1.390 . S
C795 C792 1.386 . S
C796 C791 1.490 . S
C796 C798 1.395 . S
C796 C799 1.403 . S
H797 C803 0.930 . S
C798 H784 0.930 . S
C798 C796 1.395 . S
C798 C801 1.403 1_565 S
C799 C796 1.403 . S
C799 C800 1.524 . S
C799 C803 1.400 1_565 S
C800 H785 0.960 . S
C800 H786 0.960 . S
C800 H787 0.960 . S
C800 C799 1.524 . S
C801 C798 1.403 1_545 S
C801 C802 1.392 . S
C801 C805 1.495 . S
C802 C801 1.392 . S
C802 C803 1.385 . S
C802 C804 1.478 . S
C803 H797 0.930 . S
C803 C799 1.400 1_545 S
C803 C802 1.385 . S
C804 C802 1.478 . S
C804 C806 1.381 . S
C804 C810 1.383 . S
C805 C801 1.495 . S
C805 H811 0.959 . S
C805 H812 0.961 . S
C805 H813 0.960 . S
C806 C804 1.381 . S
C806 C807 1.394 . S
C806 H814 0.930 . S
C807 C806 1.394 . S
C807 C808 1.383 . S
C807 H815 0.929 . S
C808 C807 1.383 . S
C808 C809 1.377 . S
C809 H793 0.930 . S
C809 C808 1.377 . S
C809 C810 1.379 . S
C810 H794 0.931 . S
C810 C804 1.383 . S
C810 C809 1.379 . S
H811 C805 0.959 . S
H812 C805 0.961 . S
H813 C805 0.960 . S
H814 C806 0.930 . S
H815 C807 0.929 . S
H816 C824 0.929 . S
H817 C826 0.930 . S
H818 C828 0.930 . S
H819 C831 0.929 . S
H820 C834 0.930 . S
H821 C836 0.960 . S
H822 C836 0.960 . S
H823 C836 0.960 . S
C824 H816 0.929 . S
C824 C825 1.377 . S
C824 C826 1.384 . S
C825 C824 1.377 . S
C825 C831 1.390 . S
C826 H817 0.930 . S
C826 C824 1.384 . S
C826 C827 1.372 . S
C827 C826 1.372 . S
C827 C828 1.400 . S
C827 C832 1.490 . S
C828 H818 0.930 . S
C828 C827 1.400 . S
C828 C831 1.386 . S
H829 C845 0.930 . S
H830 C846 0.931 . S
C831 H819 0.929 . S
C831 C825 1.390 . S
C831 C828 1.386 . S
C832 C827 1.490 . S
C832 C834 1.395 . S
C832 C835 1.403 . S
H833 C839 0.930 . S
C834 H820 0.930 . S
C834 C832 1.395 . S
C834 C837 1.403 . S
C835 C832 1.403 . S
C835 C836 1.524 . S
C835 C839 1.400 . S
C836 H821 0.960 . S
C836 H822 0.960 . S
C836 H823 0.960 . S
C836 C835 1.524 . S
C837 C834 1.403 . S
C837 C838 1.392 . S
C837 C841 1.495 . S
C838 C837 1.392 . S
C838 C839 1.385 . S
C838 C840 1.478 . S
C839 H833 0.930 . S
C839 C835 1.400 . S
C839 C838 1.385 . S
C840 C838 1.478 . S
C840 C842 1.381 . S
C840 C846 1.383 . S
C841 C837 1.495 . S
C841 H847 0.959 . S
C841 H848 0.961 . S
C841 H849 0.960 . S
C842 C840 1.381 . S
C842 C843 1.394 . S
C842 H850 0.930 . S
C843 C842 1.394 . S
C843 C844 1.383 . S
C843 H851 0.929 . S
C844 C843 1.383 . S
C844 C845 1.377 . S
C845 H829 0.930 . S
C845 C844 1.377 . S
C845 C846 1.379 . S
C846 H830 0.931 . S
C846 C840 1.383 . S
C846 C845 1.379 . S
H847 C841 0.959 . S
H848 C841 0.961 . S
H849 C841 0.960 . S
H850 C842 0.930 . S
H851 C843 0.929 . S
H852 C860 0.929 . S
H853 C862 0.930 . S
H854 C864 0.930 . S
H855 C867 0.929 . S
H856 C870 0.930 . S
H857 C872 0.960 . S
H858 C872 0.960 . S
H859 C872 0.960 . S
C860 H852 0.929 . S
C860 C861 1.377 . S
C860 C862 1.384 . S
C861 C860 1.377 . S
C861 C867 1.390 . S
C862 H853 0.930 . S
C862 C860 1.384 . S
C862 C863 1.372 . S
C863 C862 1.372 . S
C863 C864 1.400 . S
C863 C868 1.490 . S
C864 H854 0.930 . S
C864 C863 1.400 . S
C864 C867 1.386 . S
H865 C881 0.930 . S
H866 C882 0.931 . S
C867 H855 0.929 . S
C867 C861 1.390 . S
C867 C864 1.386 . S
C868 C863 1.490 . S
C868 C870 1.395 . S
C868 C871 1.403 . S
H869 C875 0.930 . S
C870 H856 0.930 . S
C870 C868 1.395 . S
C870 C873 1.403 . S
C871 C868 1.403 . S
C871 C872 1.524 . S
C871 C875 1.400 . S
C872 H857 0.960 . S
C872 H858 0.960 . S
C872 H859 0.960 . S
C872 C871 1.524 . S
C873 C870 1.403 . S
C873 C874 1.392 . S
C873 C877 1.495 . S
C874 C873 1.392 . S
C874 C875 1.385 . S
C874 C876 1.478 . S
C875 H869 0.930 . S
C875 C871 1.400 . S
C875 C874 1.385 . S
C876 C874 1.478 . S
C876 C878 1.381 . S
C876 C882 1.383 . S
C877 C873 1.495 . S
C877 H883 0.959 . S
C877 H884 0.961 . S
C877 H885 0.960 . S
C878 C876 1.381 . S
C878 C879 1.394 . S
C878 H886 0.930 . S
C879 C878 1.394 . S
C879 C880 1.383 . S
C879 H887 0.929 . S
C880 C879 1.383 . S
C880 C881 1.377 . S
C881 H865 0.930 . S
C881 C880 1.377 . S
C881 C882 1.379 . S
C882 H866 0.931 . S
C882 C876 1.383 . S
C882 C881 1.379 . S
H883 C877 0.959 . S
H884 C877 0.961 . S
H885 C877 0.960 . S
H886 C878 0.930 . S
H887 C879 0.929 . S
H888 C896 0.929 . S
H889 C898 0.930 . S
H890 C900 0.930 . S
H891 C903 0.929 . S
H892 C906 0.930 . S
H893 C908 0.960 . S
H894 C908 0.960 . S
H895 C908 0.960 . S
C896 H888 0.929 . S
C896 C897 1.377 . S
C896 C898 1.384 . S
C897 C896 1.377 . S
C897 C903 1.390 . S
C898 H889 0.930 . S
C898 C896 1.384 . S
C898 C899 1.372 . S
C899 C898 1.372 . S
C899 C900 1.400 . S
C899 C904 1.490 . S
C900 H890 0.930 . S
C900 C899 1.400 . S
C900 C903 1.386 . S
H901 C917 0.930 . S
H902 C918 0.931 . S
C903 H891 0.929 . S
C903 C897 1.390 . S
C903 C900 1.386 . S
C904 C899 1.490 . S
C904 C906 1.395 . S
C904 C907 1.403 . S
H905 C911 0.930 . S
C906 H892 0.930 . S
C906 C904 1.395 . S
C906 C909 1.403 . S
C907 C904 1.403 . S
C907 C908 1.524 . S
C907 C911 1.400 . S
C908 H893 0.960 . S
C908 H894 0.960 . S
C908 H895 0.960 . S
C908 C907 1.524 . S
C909 C906 1.403 . S
C909 C910 1.392 . S
C909 C913 1.495 . S
C910 C909 1.392 . S
C910 C911 1.385 . S
C910 C912 1.478 . S
C911 H905 0.930 . S
C911 C907 1.400 . S
C911 C910 1.385 . S
C912 C910 1.478 . S
C912 C914 1.381 . S
C912 C918 1.383 . S
C913 C909 1.495 . S
C913 H919 0.959 . S
C913 H920 0.961 . S
C913 H921 0.960 . S
C914 C912 1.381 . S
C914 C915 1.394 . S
C914 H922 0.930 . S
C915 C914 1.394 . S
C915 C916 1.383 . S
C915 H923 0.929 . S
C916 C915 1.383 . S
C916 C917 1.377 . S
C917 H901 0.930 . S
C917 C916 1.377 . S
C917 C918 1.379 . S
C918 H902 0.931 . S
C918 C912 1.383 . S
C918 C917 1.379 . S
H919 C913 0.959 . S
H920 C913 0.961 . S
H921 C913 0.960 . S
H922 C914 0.930 . S
H923 C915 0.929 . S
H924 C932 0.929 . S
H925 C934 0.930 . S
H926 C936 0.930 . S
H927 C939 0.929 . S
H928 C942 0.930 . S
H929 C944 0.960 . S
H930 C944 0.960 . S
H931 C944 0.960 . S
C932 H924 0.929 . S
C932 C933 1.377 . S
C932 C934 1.384 . S
C933 C932 1.377 . S
C933 C939 1.390 . S
C934 H925 0.930 . S
C934 C932 1.384 . S
C934 C935 1.372 . S
C935 C934 1.372 . S
C935 C936 1.400 . S
C935 C940 1.490 . S
C936 H926 0.930 . S
C936 C935 1.400 . S
C936 C939 1.386 . S
H937 C953 0.930 . S
H938 C954 0.931 . S
C939 H927 0.929 . S
C939 C933 1.390 . S
C939 C936 1.386 . S
C940 C935 1.490 . S
C940 C942 1.395 . S
C940 C943 1.403 . S
H941 C947 0.930 . S
C942 H928 0.930 . S
C942 C940 1.395 . S
C942 C945 1.403 . S
C943 C940 1.403 . S
C943 C944 1.524 . S
C943 C947 1.400 . S
C944 H929 0.960 . S
C944 H930 0.960 . S
C944 H931 0.960 . S
C944 C943 1.524 . S
C945 C942 1.403 . S
C945 C946 1.392 . S
C945 C949 1.495 . S
C946 C945 1.392 . S
C946 C947 1.385 . S
C946 C948 1.478 . S
C947 H941 0.930 . S
C947 C943 1.400 . S
C947 C946 1.385 . S
C948 C946 1.478 . S
C948 C950 1.381 . S
C948 C954 1.383 . S
C949 C945 1.495 . S
C949 H955 0.959 . S
C949 H956 0.961 . S
C949 H957 0.960 . S
C950 C948 1.381 . S
C950 C951 1.394 . S
C950 H958 0.930 . S
C951 C950 1.394 . S
C951 C952 1.383 . S
C951 H959 0.929 . S
C952 C951 1.383 . S
C952 C953 1.377 . S
C953 H937 0.930 . S
C953 C952 1.377 . S
C953 C954 1.379 . S
C954 H938 0.931 . S
C954 C948 1.383 . S
C954 C953 1.379 . S
H955 C949 0.959 . S
H956 C949 0.961 . S
H957 C949 0.960 . S
H958 C950 0.930 . S
H959 C951 0.929 . S
H960 C968 0.929 . S
H961 C970 0.930 . S
H962 C972 0.930 . S
H963 C975 0.929 . S
H964 C978 0.930 . S
H965 C980 0.960 . S
H966 C980 0.960 . S
H967 C980 0.960 . S
C968 H960 0.929 . S
C968 C969 1.377 . S
C968 C970 1.384 . S
C969 C968 1.377 . S
C969 C975 1.390 . S
C970 H961 0.930 . S
C970 C968 1.384 . S
C970 C971 1.372 . S
C971 C970 1.372 . S
C971 C972 1.400 . S
C971 C976 1.490 . S
C972 H962 0.930 . S
C972 C971 1.400 . S
C972 C975 1.386 . S
H973 C989 0.930 . S
H974 C990 0.931 . S
C975 H963 0.929 . S
C975 C969 1.390 . S
C975 C972 1.386 . S
C976 C971 1.490 . S
C976 C978 1.395 . S
C976 C979 1.403 . S
H977 C983 0.930 . S
C978 H964 0.930 . S
C978 C976 1.395 . S
C978 C981 1.403 . S
C979 C976 1.403 . S
C979 C980 1.524 . S
C979 C983 1.400 . S
C980 H965 0.960 . S
C980 H966 0.960 . S
C980 H967 0.960 . S
C980 C979 1.524 . S
C981 C978 1.403 . S
C981 C982 1.392 . S
C981 C985 1.495 . S
C982 C981 1.392 . S
C982 C983 1.385 . S
C982 C984 1.478 . S
C983 H977 0.930 . S
C983 C979 1.400 . S
C983 C982 1.385 . S
C984 C982 1.478 . S
C984 C986 1.381 . S
C984 C990 1.383 . S
C985 C981 1.495 . S
C985 H991 0.959 . S
C985 H992 0.961 . S
C985 H993 0.960 . S
C986 C984 1.381 . S
C986 C987 1.394 . S
C986 H994 0.930 . S
C987 C986 1.394 . S
C987 C988 1.383 . S
C987 H995 0.929 . S
C988 C987 1.383 . S
C988 C989 1.377 . S
C989 H973 0.930 . S
C989 C988 1.377 . S
C989 C990 1.379 . S
C990 H974 0.931 . S
C990 C984 1.383 . S
C990 C989 1.379 . S
H991 C985 0.959 . S
H992 C985 0.961 . S
H993 C985 0.960 . S
H994 C986 0.930 . S
H995 C987 0.929 . S
H996 C1004 0.929 . S
H997 C1006 0.930 . S
H998 C1008 0.930 . S
H999 C1011 0.929 . S
H1000 C1014 0.930 . S
H1001 C1016 0.960 . S
H1002 C1016 0.960 . S
H1003 C1016 0.960 . S
C1004 H996 0.929 . S
C1004 C1005 1.377 . S
C1004 C1006 1.384 . S
C1005 C1004 1.377 . S
C1005 C1011 1.390 . S
C1006 H997 0.930 . S
C1006 C1004 1.384 . S
C1006 C1007 1.372 . S
C1007 C1006 1.372 . S
C1007 C1008 1.400 . S
C1007 C1012 1.490 . S
C1008 H998 0.930 . S
C1008 C1007 1.400 . S
C1008 C1011 1.386 . S
H1009 C1025 0.930 . S
H1010 C1026 0.931 . S
C1011 H999 0.929 . S
C1011 C1005 1.390 . S
C1011 C1008 1.386 . S
C1012 C1007 1.490 . S
C1012 C1014 1.395 . S
C1012 C1015 1.403 . S
H1013 C1019 0.930 . S
C1014 H1000 0.930 . S
C1014 C1012 1.395 . S
C1014 C1017 1.403 . S
C1015 C1012 1.403 . S
C1015 C1016 1.524 . S
C1015 C1019 1.400 . S
C1016 H1001 0.960 . S
C1016 H1002 0.960 . S
C1016 H1003 0.960 . S
C1016 C1015 1.524 . S
C1017 C1014 1.403 . S
C1017 C1018 1.392 . S
C1017 C1021 1.495 . S
C1018 C1017 1.392 . S
C1018 C1019 1.385 . S
C1018 C1020 1.478 . S
C1019 H1013 0.930 . S
C1019 C1015 1.400 . S
C1019 C1018 1.385 . S
C1020 C1018 1.478 . S
C1020 C1022 1.381 . S
C1020 C1026 1.383 . S
C1021 C1017 1.495 . S
C1021 H1027 0.959 . S
C1021 H1028 0.961 . S
C1021 H1029 0.960 . S
C1022 C1020 1.381 . S
C1022 C1023 1.394 . S
C1022 H1030 0.930 . S
C1023 C1022 1.394 . S
C1023 C1024 1.383 . S
C1023 H1031 0.929 . S
C1024 C1023 1.383 . S
C1024 C1025 1.377 . S
C1025 H1009 0.930 . S
C1025 C1024 1.377 . S
C1025 C1026 1.379 . S
C1026 H1010 0.931 . S
C1026 C1020 1.383 . S
C1026 C1025 1.379 . S
H1027 C1021 0.959 . S
H1028 C1021 0.961 . S
H1029 C1021 0.960 . S
H1030 C1022 0.930 . S
H1031 C1023 0.929 . S
C177 C6 1.463 . S
C196 C90 1.474 . S
C213 C20 1.466 . S
C232 C104 1.478 . S
C249 C34 1.463 . S
C268 C118 1.472 . S
C285 C48 1.463 . S
C304 C132 1.476 . S
C321 C62 1.466 . S
C340 C146 1.447 . S
C357 C160 1.467 . S
C376 C76 1.478 . S
C393 C7 1.324 . S
C412 C147 1.311 . S
C429 C21 1.324 . S
C448 C161 1.312 . S
C465 C35 1.330 . S
C484 C91 1.337 . S
C501 C49 1.324 . S
C520 C105 1.312 . S
C537 C63 1.325 . S
C556 C119 1.309 . S
C573 C77 1.324 . S
C592 C133 1.311 . S
C609 C8 1.165 . S
C628 C50 1.125 . S
C645 C22 1.177 . S
C664 C64 1.211 . S
C681 C78 1.160 . S
C700 C36 1.123 . S
C717 C92 1.179 . S
C736 C134 1.211 . S
C753 C148 1.174 . S
C772 C106 1.202 . S
C789 C120 1.163 . S
C808 C162 1.123 . S
C825 C93 1.113 . S
C844 C9 1.090 1_556 S
C861 C23 1.107 . S
C880 C107 1.125 1_554 S
C897 C37 1.109 . S
C916 C121 1.134 . S
C933 C135 1.111 . S
C952 C51 1.138 1_556 S
C969 C149 1.105 1_554 S
C988 C65 1.078 . S
C1005 C79 1.109 . S
C1024 C163 1.078 . S
