# Generated by pormake.
# Topology acs-a, (4)-cn, num edge types: 1
# Building blocks:
#     Node 0, Type 0, BuildingBlock: TATPOV_clean_sbu_0, # of connection points: 4
#     Node 1, Type 0, BuildingBlock: TATPOV_clean_sbu_0, # of connection points: 4
#     Node 2, Type 0, BuildingBlock: TATPOV_clean_sbu_0, # of connection points: 4
#     Node 3, Type 0, BuildingBlock: TATPOV_clean_sbu_0, # of connection points: 4
#     Node 4, Type 0, BuildingBlock: TATPOV_clean_sbu_0, # of connection points: 4
#     Node 5, Type 0, BuildingBlock: TATPOV_clean_sbu_0, # of connection points: 4
#     Node 6, Type 0, BuildingBlock: TATPOV_clean_sbu_0, # of connection points: 4
#     Node 7, Type 0, BuildingBlock: TATPOV_clean_sbu_0, # of connection points: 4
#     Node 8, Type 0, BuildingBlock: TATPOV_clean_sbu_0, # of connection points: 4
#     Node 9, Type 0, BuildingBlock: TATPOV_clean_sbu_0, # of connection points: 4
#     Node 10, Type 0, BuildingBlock: TATPOV_clean_sbu_0, # of connection points: 4
#     Node 11, Type 0, BuildingBlock: TATPOV_clean_sbu_0, # of connection points: 4
#     Edge 12, Type (0, 0), BuildingBlock: ZUJKAS_clean_linker_0, # of connection points: 2
#     Edge 13, Type (0, 0), BuildingBlock: ZUJKAS_clean_linker_0, # of connection points: 2
#     Edge 14, Type (0, 0), BuildingBlock: ZUJKAS_clean_linker_0, # of connection points: 2
#     Edge 15, Type (0, 0), BuildingBlock: ZUJKAS_clean_linker_0, # of connection points: 2
#     Edge 16, Type (0, 0), BuildingBlock: ZUJKAS_clean_linker_0, # of connection points: 2
#     Edge 17, Type (0, 0), BuildingBlock: ZUJKAS_clean_linker_0, # of connection points: 2
#     Edge 18, Type (0, 0), BuildingBlock: ZUJKAS_clean_linker_0, # of connection points: 2
#     Edge 19, Type (0, 0), BuildingBlock: ZUJKAS_clean_linker_0, # of connection points: 2
#     Edge 20, Type (0, 0), BuildingBlock: ZUJKAS_clean_linker_0, # of connection points: 2
#     Edge 21, Type (0, 0), BuildingBlock: ZUJKAS_clean_linker_0, # of connection points: 2
#     Edge 22, Type (0, 0), BuildingBlock: ZUJKAS_clean_linker_0, # of connection points: 2
#     Edge 23, Type (0, 0), BuildingBlock: ZUJKAS_clean_linker_0, # of connection points: 2
#     Edge 24, Type (0, 0), BuildingBlock: ZUJKAS_clean_linker_0, # of connection points: 2
#     Edge 25, Type (0, 0), BuildingBlock: ZUJKAS_clean_linker_0, # of connection points: 2
#     Edge 26, Type (0, 0), BuildingBlock: ZUJKAS_clean_linker_0, # of connection points: 2
#     Edge 27, Type (0, 0), BuildingBlock: ZUJKAS_clean_linker_0, # of connection points: 2
#     Edge 28, Type (0, 0), BuildingBlock: ZUJKAS_clean_linker_0, # of connection points: 2
#     Edge 29, Type (0, 0), BuildingBlock: ZUJKAS_clean_linker_0, # of connection points: 2
#     Edge 30, Type (0, 0), BuildingBlock: ZUJKAS_clean_linker_0, # of connection points: 2
#     Edge 31, Type (0, 0), BuildingBlock: ZUJKAS_clean_linker_0, # of connection points: 2
#     Edge 32, Type (0, 0), BuildingBlock: ZUJKAS_clean_linker_0, # of connection points: 2
#     Edge 33, Type (0, 0), BuildingBlock: ZUJKAS_clean_linker_0, # of connection points: 2
#     Edge 34, Type (0, 0), BuildingBlock: ZUJKAS_clean_linker_0, # of connection points: 2
#     Edge 35, Type (0, 0), BuildingBlock: ZUJKAS_clean_linker_0, # of connection points: 2
# Relax obj value: 0.372
# Max RMSD: 0.174
# Mean RMSD: 0.170
data_MOF--net-acs-a--node1-TATPOV_clean_sbu_0--edge1-ZUJKAS_clean_linker_0
_symmetry_space_group_name_H-M    P1
_symmetry_Int_Tables_number       1
_symmetry_cell_setting            triclinic
loop_
_symmetry_equiv_pos_as_xyz
'x, y, z'
_cell_length_a     60.022627
_cell_length_b     60.029114
_cell_length_c     59.181366
_cell_angle_alpha  90.01147
_cell_angle_beta   90.056212
_cell_angle_gamma 115.49152
loop_
_atom_site_label
_atom_site_type_symbol
_atom_site_fract_x
_atom_site_fract_y
_atom_site_fract_z
_atom_type_partial_charge
Zn0 Zn 0.64227 0.15295 0.12456 0.0
Zn1 Zn 0.61105 0.11889 0.09726 0.0
O2 O 0.64476 0.12921 0.08136 0.0
O3 O 0.67084 0.15543 0.10549 0.0
O4 O 0.58804 0.09209 0.07719 0.0
O5 O 0.63165 0.12939 0.15066 0.0
O6 O 0.60551 0.10109 0.12808 0.0
C7 C 0.66679 0.14355 0.0871 0.0
C8 C 0.60562 0.16654 0.10483 0.0
O9 O 0.59787 0.14525 0.0958 0.0
O10 O 0.62443 0.17425 0.11759 0.0
C11 C 0.58699 0.09562 0.05614 0.0
O12 O 0.60102 0.11737 0.04758 0.0
C13 C 0.61508 0.10771 0.1476 0.0
Zn14 Zn 0.42759 0.60491 0.65151 0.0
Zn15 Zn 0.44089 0.59376 0.61208 0.0
O16 O 0.45329 0.63144 0.60949 0.0
O17 O 0.4421 0.64071 0.64225 0.0
O18 O 0.45368 0.58401 0.58433 0.0
O19 O 0.44732 0.59139 0.66927 0.0
O20 O 0.45567 0.57929 0.63655 0.0
C21 C 0.45181 0.64734 0.62294 0.0
C22 C 0.38636 0.57372 0.62345 0.0
O23 O 0.40316 0.57687 0.60899 0.0
O24 O 0.39205 0.58267 0.64316 0.0
C25 C 0.44617 0.56106 0.58063 0.0
O26 O 0.429 0.54525 0.59378 0.0
C27 C 0.45736 0.58033 0.658 0.0
Zn28 Zn 0.81383 0.36093 0.10621 0.0
Zn29 Zn 0.84825 0.38941 0.07832 0.0
O30 O 0.82124 0.40178 0.07433 0.0
O31 O 0.79103 0.3751 0.09488 0.0
O32 O 0.87634 0.41225 0.05926 0.0
O33 O 0.83514 0.37579 0.1333 0.0
O34 O 0.86526 0.39612 0.10962 0.0
C35 C 0.79914 0.3934 0.08159 0.0
C36 C 0.82627 0.33357 0.07268 0.0
O37 O 0.83938 0.35493 0.06462 0.0
O38 O 0.8146 0.33133 0.09099 0.0
C39 C 0.87501 0.42609 0.0436 0.0
O40 O 0.85346 0.4252 0.03801 0.0
C41 C 0.85755 0.39021 0.12977 0.0
Zn42 Zn 0.32692 0.83542 0.61074 0.0
Zn43 Zn 0.35586 0.86675 0.57973 0.0
O44 O 0.32152 0.85387 0.56478 0.0
O45 O 0.29742 0.8299 0.59132 0.0
O46 O 0.37805 0.89117 0.55742 0.0
O47 O 0.33869 0.86253 0.63405 0.0
O48 O 0.3624 0.88819 0.60834 0.0
C49 C 0.30006 0.83956 0.57189 0.0
C50 C 0.36385 0.82139 0.5929 0.0
O51 O 0.36999 0.84125 0.5817 0.0
O52 O 0.34567 0.81439 0.60634 0.0
C53 C 0.38749 0.88513 0.54067 0.0
O54 O 0.38196 0.86174 0.53707 0.0
C55 C 0.35444 0.88392 0.62857 0.0
Zn56 Zn 0.57285 0.3973 0.15668 0.0
Zn57 Zn 0.55103 0.40918 0.12347 0.0
O58 O 0.53854 0.37139 0.11916 0.0
O59 O 0.55612 0.36168 0.14777 0.0
O60 O 0.53226 0.41882 0.10048 0.0
O61 O 0.5578 0.41002 0.18037 0.0
O62 O 0.54151 0.42238 0.15259 0.0
C63 C 0.54243 0.35529 0.13044 0.0
C64 C 0.607 0.43003 0.12382 0.0
O65 O 0.58731 0.42782 0.11389 0.0
O66 O 0.60573 0.41943 0.14261 0.0
C67 C 0.53685 0.42134 0.07946 0.0
O68 O 0.5548 0.41675 0.0713 0.0
C69 C 0.54506 0.42089 0.17366 0.0
Zn70 Zn 0.15923 0.64632 0.61515 0.0
Zn71 Zn 0.12496 0.60827 0.59482 0.0
O72 O 0.15464 0.59954 0.59437 0.0
O73 O 0.18433 0.63322 0.60829 0.0
O74 O 0.09845 0.57922 0.57956 0.0
O75 O 0.14027 0.63774 0.64409 0.0
O76 O 0.11014 0.60728 0.6266 0.0
C77 C 0.17722 0.61189 0.59978 0.0
C78 C 0.13998 0.66069 0.57681 0.0
O79 O 0.12837 0.63743 0.574 0.0
O80 O 0.1538 0.66928 0.59383 0.0
C81 C 0.10186 0.57296 0.55984 0.0
O82 O 0.123 0.58578 0.54964 0.0
C83 C 0.11887 0.62011 0.64438 0.0
Zn84 Zn 0.84135 0.35823 0.3609 0.0
Zn85 Zn 0.87871 0.37888 0.38908 0.0
O86 O 0.8611 0.34324 0.40155 0.0
O87 O 0.83019 0.32634 0.37766 0.0
O88 O 0.90738 0.39499 0.41001 0.0
O89 O 0.86428 0.36422 0.33485 0.0
O90 O 0.89565 0.38374 0.35773 0.0
C91 C 0.84195 0.3246 0.39481 0.0
C92 C 0.84007 0.39929 0.38489 0.0
O93 O 0.85935 0.3996 0.39419 0.0
O94 O 0.829 0.38352 0.36968 0.0
C95 C 0.90371 0.39551 0.43109 0.0
O96 O 0.88103 0.38479 0.43886 0.0
C97 C 0.88724 0.37627 0.33798 0.0
Zn98 Zn 0.40004 0.83298 0.83988 0.0
Zn99 Zn 0.42516 0.86747 0.86953 0.0
O100 O 0.43927 0.84174 0.87408 0.0
O101 O 0.41874 0.81354 0.84865 0.0
O102 O 0.4451 0.8946 0.89084 0.0
O103 O 0.41239 0.85676 0.81427 0.0
O104 O 0.43189 0.88616 0.83897 0.0
C105 C 0.43473 0.82134 0.86422 0.0
C106 C 0.36927 0.83988 0.87405 0.0
O107 O 0.38984 0.85579 0.88162 0.0
O108 O 0.36866 0.82793 0.85623 0.0
C109 C 0.44402 0.89146 0.9121 0.0
O110 O 0.42962 0.86969 0.92042 0.0
C111 C 0.42585 0.87923 0.81862 0.0
Zn112 Zn 0.61655 0.43606 0.37351 0.0
Zn113 Zn 0.60469 0.45631 0.40705 0.0
O114 O 0.64128 0.46535 0.41495 0.0
O115 O 0.64873 0.44336 0.38873 0.0
O116 O 0.59312 0.47286 0.43066 0.0
O117 O 0.61349 0.45907 0.35062 0.0
O118 O 0.59775 0.47204 0.37829 0.0
C119 C 0.6555 0.45701 0.40605 0.0
C120 C 0.57701 0.4006 0.39863 0.0
O121 O 0.58215 0.41911 0.41163 0.0
O122 O 0.58798 0.40342 0.37985 0.0
C123 C 0.58493 0.46404 0.45003 0.0
O124 O 0.58514 0.44314 0.45629 0.0
C125 C 0.60309 0.4722 0.35744 0.0
Zn126 Zn 0.17327 0.6194 0.88236 0.0
Zn127 Zn 0.13762 0.60768 0.91123 0.0
O128 O 0.16065 0.6429 0.92199 0.0
O129 O 0.19315 0.6494 0.90104 0.0
O130 O 0.10832 0.59718 0.93158 0.0
O131 O 0.15227 0.62168 0.85691 0.0
O132 O 0.12086 0.60522 0.8802 0.0
C133 C 0.18305 0.65625 0.91663 0.0
C134 C 0.16532 0.57545 0.90577 0.0
O135 O 0.15108 0.58176 0.91736 0.0
O136 O 0.17586 0.58762 0.88835 0.0
C137 C 0.10752 0.5884 0.95123 0.0
O138 O 0.12722 0.58701 0.95946 0.0
C139 C 0.12929 0.6127 0.86051 0.0
Zn140 Zn 0.60639 0.17437 0.37325 0.0
Zn141 Zn 0.58197 0.13897 0.40276 0.0
O142 O 0.56752 0.16396 0.40908 0.0
O143 O 0.58777 0.19321 0.38443 0.0
O144 O 0.56289 0.11077 0.42328 0.0
O145 O 0.59254 0.15149 0.34709 0.0
O146 O 0.57374 0.12164 0.37151 0.0
C147 C 0.57185 0.18466 0.39998 0.0
C148 C 0.63803 0.16553 0.40534 0.0
O149 O 0.61767 0.15021 0.41373 0.0
O150 O 0.6382 0.17774 0.38783 0.0
C151 C 0.56558 0.09102 0.42103 0.0
O152 O 0.58129 0.0902 0.40598 0.0
C153 C 0.57887 0.12902 0.35117 0.0
Zn154 Zn 0.38043 0.54822 0.85698 0.0
Zn155 Zn 0.40142 0.53906 0.89247 0.0
O156 O 0.3642 0.52241 0.90089 0.0
O157 O 0.34706 0.53008 0.87083 0.0
O158 O 0.41807 0.52909 0.91719 0.0
O159 O 0.39325 0.53066 0.8357 0.0
O160 O 0.4137 0.52626 0.86484 0.0
C161 C 0.345 0.52067 0.89029 0.0
C162 C 0.41421 0.5923 0.88077 0.0
O163 O 0.41631 0.57689 0.8944 0.0
O164 O 0.40055 0.58467 0.86344 0.0
C165 C 0.41218 0.52615 0.93795 0.0
O166 O 0.39372 0.53049 0.94512 0.0
C167 C 0.4086 0.52356 0.84383 0.0
H168 H 0.57446 0.14024 0.30765 0.0
H169 H 0.56527 0.11345 0.27496 0.0
H170 H 0.55373 0.05145 0.31805 0.0
H171 H 0.56322 0.07863 0.35134 0.0
H172 H 0.58623 0.05649 0.28475 0.0
H173 H 0.50582 0.06087 0.24514 0.0
H174 H 0.5263 0.09159 0.25348 0.0
H175 H 0.51296 0.06794 0.27473 0.0
C176 C 0.5695 0.12082 0.31031 0.0
C177 C 0.56974 0.11158 0.33204 0.0
C178 C 0.56388 0.10538 0.29157 0.0
C179 C 0.55827 0.08028 0.29403 0.0
C180 C 0.55763 0.07068 0.31581 0.0
H181 H 0.57152 0.06571 0.15144 0.0
H182 H 0.55266 0.04425 0.18661 0.0
C183 C 0.56307 0.08621 0.33476 0.0
C184 C 0.55714 0.06583 0.2734 0.0
H185 H 0.54026 0.06571 0.21853 0.0
C186 C 0.57547 0.05747 0.27037 0.0
C187 C 0.54247 0.0659 0.25473 0.0
C188 C 0.52059 0.07179 0.25733 0.0
C189 C 0.58224 0.0534 0.24861 0.0
C190 C 0.57086 0.05857 0.22965 0.0
C191 C 0.5497 0.06257 0.23296 0.0
C192 C 0.58394 0.06629 0.2077 0.0
C193 C 0.60288 0.04563 0.24616 0.0
C194 C 0.60801 0.08533 0.20769 0.0
C195 C 0.61872 0.09754 0.18778 0.0
C196 C 0.60553 0.09123 0.16735 0.0
C197 C 0.58213 0.071 0.16695 0.0
C198 C 0.57134 0.05871 0.18703 0.0
H199 H 0.60108 0.03155 0.2591 0.0
H200 H 0.60305 0.03794 0.22912 0.0
H201 H 0.62083 0.06178 0.24913 0.0
H202 H 0.61794 0.09216 0.22337 0.0
H203 H 0.63684 0.11292 0.18867 0.0
H204 H 0.50431 0.59488 0.6736 0.0
H205 H 0.51657 0.57446 0.70386 0.0
H206 H 0.44366 0.51392 0.70227 0.0
H207 H 0.43226 0.5336 0.67148 0.0
H208 H 0.49804 0.5722 0.74125 0.0
H209 H 0.47776 0.47621 0.72533 0.0
H210 H 0.48196 0.49727 0.70218 0.0
H211 H 0.45169 0.47956 0.71421 0.0
C212 C 0.49153 0.57655 0.67898 0.0
C213 C 0.46746 0.5656 0.67032 0.0
C214 C 0.49847 0.56489 0.69628 0.0
C215 C 0.48116 0.54247 0.70548 0.0
C216 C 0.45778 0.53069 0.69524 0.0
H217 H 0.39448 0.50337 0.80225 0.0
H218 H 0.42158 0.502 0.77231 0.0
C219 C 0.45107 0.5421 0.67773 0.0
C220 C 0.48443 0.53489 0.72875 0.0
H221 H 0.45877 0.48364 0.76195 0.0
C222 C 0.49063 0.55286 0.74581 0.0
C223 C 0.47544 0.50977 0.73507 0.0
C224 C 0.47166 0.48975 0.71808 0.0
C225 C 0.48398 0.54622 0.76835 0.0
C226 C 0.47087 0.52095 0.7739 0.0
C227 C 0.4683 0.50303 0.75758 0.0
C228 C 0.45402 0.51367 0.79357 0.0
C229 C 0.48806 0.56638 0.78537 0.0
C230 C 0.46289 0.51906 0.81582 0.0
C231 C 0.4473 0.51992 0.83308 0.0
C232 C 0.42281 0.5155 0.82814 0.0
C233 C 0.41337 0.50726 0.80645 0.0
C234 C 0.42883 0.50627 0.78935 0.0
H235 H 0.49832 0.58513 0.77811 0.0
H236 H 0.47004 0.56477 0.79178 0.0
H237 H 0.49875 0.56449 0.79995 0.0
H238 H 0.48224 0.52459 0.81944 0.0
H239 H 0.45502 0.52618 0.84971 0.0
H240 H 0.84504 0.39189 0.1735 0.0
H241 H 0.87194 0.40374 0.20634 0.0
H242 H 0.93541 0.42142 0.1635 0.0
H243 H 0.90827 0.40953 0.13009 0.0
H244 H 0.93219 0.3894 0.19924 0.0
H245 H 0.92124 0.46967 0.23229 0.0
H246 H 0.89166 0.44625 0.22411 0.0
H247 H 0.91531 0.46019 0.20302 0.0
C248 C 0.86474 0.39863 0.17093 0.0
C249 C 0.87452 0.39968 0.14922 0.0
C250 C 0.88016 0.40568 0.18974 0.0
C251 C 0.90574 0.41394 0.18734 0.0
C252 C 0.91575 0.41545 0.16565 0.0
H253 H 0.92923 0.4188 0.3305 0.0
H254 H 0.94872 0.43358 0.29356 0.0
C255 C 0.90025 0.40864 0.14665 0.0
C256 C 0.92085 0.41785 0.20801 0.0
H257 H 0.92228 0.44012 0.26109 0.0
C258 C 0.93101 0.4012 0.21261 0.0
C259 C 0.92026 0.43383 0.22529 0.0
C260 C 0.91178 0.45369 0.2208 0.0
C261 C 0.93682 0.39745 0.23484 0.0
C262 C 0.93179 0.41027 0.25271 0.0
C263 C 0.92558 0.42974 0.24754 0.0
C264 C 0.92611 0.39976 0.27583 0.0
C265 C 0.94627 0.37829 0.23916 0.0
C266 C 0.90758 0.37561 0.2783 0.0
C267 C 0.89642 0.36733 0.29915 0.0
C268 C 0.9035 0.38298 0.31803 0.0
C269 C 0.92354 0.40635 0.31618 0.0
C270 C 0.93465 0.41479 0.29511 0.0
H271 H 0.95952 0.37902 0.22576 0.0
H272 H 0.95548 0.38089 0.25587 0.0
H273 H 0.93062 0.35963 0.23852 0.0
H274 H 0.9001 0.36382 0.26372 0.0
H275 H 0.88106 0.3492 0.30015 0.0
H276 H 0.42988 0.8698 0.77459 0.0
H277 H 0.43278 0.89592 0.74257 0.0
H278 H 0.44045 0.95545 0.78754 0.0
H279 H 0.43708 0.92875 0.82014 0.0
H280 H 0.40417 0.94693 0.7593 0.0
H281 H 0.48074 0.95179 0.70693 0.0
H282 H 0.46516 0.92031 0.71572 0.0
H283 H 0.47919 0.9443 0.73665 0.0
C284 C 0.43285 0.88866 0.77774 0.0
C285 C 0.43298 0.89715 0.79985 0.0
C286 C 0.4349 0.9038 0.75935 0.0
C287 C 0.43729 0.92791 0.76252 0.0
C288 C 0.43893 0.93703 0.78466 0.0
H289 H 0.39504 0.92876 0.62551 0.0
H290 H 0.41854 0.95455 0.65713 0.0
C291 C 0.43701 0.92179 0.80324 0.0
C292 C 0.43319 0.94094 0.74278 0.0
H293 H 0.44019 0.93976 0.68588 0.0
C294 C 0.4127 0.94644 0.74328 0.0
C295 C 0.44489 0.94174 0.72187 0.0
C296 C 0.46892 0.9395 0.72041 0.0
C297 C 0.40107 0.94808 0.72318 0.0
C298 C 0.40969 0.9432 0.70236 0.0
C299 C 0.43277 0.94244 0.70181 0.0
C300 C 0.39281 0.93258 0.68283 0.0
C301 C 0.3785 0.95297 0.72464 0.0
C302 C 0.37005 0.91218 0.68655 0.0
C303 C 0.35659 0.89758 0.6686 0.0
C304 C 0.36573 0.90273 0.64645 0.0
C305 C 0.38753 0.92423 0.64241 0.0
C306 C 0.401 0.93901 0.66048 0.0
H307 H 0.38151 0.96773 0.73723 0.0
H308 H 0.37383 0.9586 0.70809 0.0
H309 H 0.36258 0.93609 0.73061 0.0
H310 H 0.36353 0.90618 0.70353 0.0
H311 H 0.33982 0.88125 0.67234 0.0
H312 H 0.61917 0.48352 0.31434 0.0
H313 H 0.59903 0.49472 0.28404 0.0
H314 H 0.54783 0.50175 0.33153 0.0
H315 H 0.56781 0.48963 0.36224 0.0
H316 H 0.52294 0.47161 0.3012 0.0
H317 H 0.58979 0.54773 0.25284 0.0
H318 H 0.60555 0.5291 0.25907 0.0
H319 H 0.59587 0.54295 0.28194 0.0
C320 C 0.60411 0.48817 0.31853 0.0
C321 C 0.59481 0.48524 0.34061 0.0
C322 C 0.59276 0.49504 0.30113 0.0
C323 C 0.57197 0.49946 0.30537 0.0
C324 C 0.56393 0.49863 0.3278 0.0
H325 H 0.53681 0.46222 0.16835 0.0
H326 H 0.53146 0.48724 0.19894 0.0
C327 C 0.57536 0.49168 0.34534 0.0
C328 C 0.5561 0.49906 0.28592 0.0
H329 H 0.56504 0.50827 0.22935 0.0
C330 C 0.53175 0.4805 0.28559 0.0
C331 C 0.56653 0.51142 0.26552 0.0
C332 C 0.59079 0.53413 0.26505 0.0
C333 C 0.52001 0.47059 0.26505 0.0
C334 C 0.53333 0.47892 0.24469 0.0
C335 C 0.55519 0.50091 0.24498 0.0
C336 C 0.52955 0.46169 0.22552 0.0
C337 C 0.49459 0.44946 0.26549 0.0
C338 C 0.52959 0.43875 0.23015 0.0
C339 C 0.53279 0.42469 0.2129 0.0
C340 C 0.53614 0.43322 0.19055 0.0
C341 C 0.53418 0.4552 0.18548 0.0
C342 C 0.53113 0.46949 0.20292 0.0
H343 H 0.48278 0.45332 0.27786 0.0
H344 H 0.4856 0.44613 0.24862 0.0
H345 H 0.49589 0.43244 0.27119 0.0
H346 H 0.52922 0.43252 0.24738 0.0
H347 H 0.53411 0.40777 0.21728 0.0
H348 H 0.1307 0.64747 0.68275 0.0
H349 H 0.11057 0.63691 0.71922 0.0
H350 H 0.0545 0.56963 0.69151 0.0
H351 H 0.07507 0.57996 0.65448 0.0
H352 H 0.06245 0.62628 0.73458 0.0
H353 H 0.08491 0.5455 0.74281 0.0
H354 H 0.09864 0.5679 0.72067 0.0
H355 H 0.06645 0.54708 0.71943 0.0
C356 C 0.11399 0.63048 0.68421 0.0
C357 C 0.10471 0.61437 0.66575 0.0
C358 C 0.10236 0.62456 0.7051 0.0
C359 C 0.08115 0.60241 0.70814 0.0
C360 C 0.07102 0.5867 0.68956 0.0
H361 H 0.08283 0.57616 0.85312 0.0
H362 H 0.05863 0.56888 0.81799 0.0
C363 C 0.08275 0.59265 0.66845 0.0
C364 C 0.0718 0.59555 0.73146 0.0
H365 H 0.08108 0.56453 0.77601 0.0
C366 C 0.06552 0.61213 0.74362 0.0
C367 C 0.07541 0.57683 0.74322 0.0
C368 C 0.08175 0.55825 0.73101 0.0
C369 C 0.06617 0.61263 0.76729 0.0
C370 C 0.07327 0.59618 0.77893 0.0
C371 C 0.07589 0.57729 0.76694 0.0
C372 C 0.08449 0.60223 0.80167 0.0
C373 C 0.06161 0.63226 0.77959 0.0
C374 C 0.10685 0.62341 0.80406 0.0
C375 C 0.12082 0.62727 0.82369 0.0
C376 C 0.11257 0.61017 0.84144 0.0
C377 C 0.08947 0.58968 0.83967 0.0
C378 C 0.07566 0.58552 0.8197 0.0
H379 H 0.0483 0.63714 0.77018 0.0
H380 H 0.05443 0.62615 0.79689 0.0
H381 H 0.07924 0.64917 0.78098 0.0
H382 H 0.11427 0.63626 0.79017 0.0
H383 H 0.13852 0.64324 0.82467 0.0
H384 H 0.58225 0.09584 0.01017 0.0
H385 H 0.55663 0.06122 0.98589 0.0
H386 H 0.5301 0.01444 0.04445 0.0
H387 H 0.5554 0.04889 0.06887 0.0
H388 H 0.55948 0.01533 0.98281 0.0
H389 H 0.46649 0.00351 0.01007 0.0
H390 H 0.49416 0.03127 0.01568 0.0
H391 H 0.48677 0.00422 0.03269 0.0
C392 C 0.5708 0.07825 0.01791 0.0
C393 C 0.57083 0.07511 0.04144 0.0
C394 C 0.55621 0.05852 0.00401 0.0
C395 C 0.54129 0.03542 0.01344 0.0
C396 C 0.54115 0.03226 0.03691 0.0
H397 H 0.4463 0.89148 0.95832 0.0
H398 H 0.47045 0.92633 0.98303 0.0
C399 C 0.55574 0.05194 0.05081 0.0
C400 C 0.52677 0.01428 -0.00134 0.0
H401 H 0.46808 0.97223 0.98647 0.0
C402 C 0.53949 0.00597 0.98349 0.0
C403 C 0.50073 0.00208 -0.00023 0.0
C404 C 0.48616 0.0108 0.01528 0.0
C405 C 0.52684 0.98547 0.96956 0.0
C406 C 0.50079 0.97332 0.97059 0.0
C407 C 0.48807 0.9816 0.9858 0.0
C408 C 0.48637 0.95226 0.95567 0.0
C409 C 0.54149 0.97671 0.95418 0.0
C410 C 0.48717 0.95546 0.93218 0.0
C411 C 0.47349 0.93565 0.91805 0.0
C412 C 0.4586 0.9123 0.92718 0.0
C413 C 0.45765 0.90921 0.95076 0.0
C414 C 0.47139 0.92907 0.9649 0.0
H415 H 0.56105 0.98371 0.95969 0.0
H416 H 0.53331 0.95623 0.95355 0.0
H417 H 0.54132 0.98359 0.93681 0.0
H418 H 0.49824 0.97335 0.92478 0.0
H419 H 0.47451 0.93872 0.89997 0.0
H420 H 0.48819 0.58847 0.55685 0.0
H421 H 0.51194 0.57311 0.53311 0.0
H422 H 0.45733 0.49843 0.54364 0.0
H423 H 0.43344 0.51354 0.56742 0.0
H424 H 0.53002 0.53775 0.5495 0.0
H425 H 0.46967 0.50518 0.47368 0.0
H426 H 0.46791 0.52753 0.4932 0.0
H427 H 0.45462 0.4954 0.50055 0.0
C428 C 0.48101 0.56881 0.55383 0.0
C429 C 0.45895 0.5522 0.56406 0.0
C430 C 0.49465 0.56009 0.54034 0.0
C431 C 0.4863 0.53469 0.53661 0.0
C432 C 0.46391 0.51813 0.54616 0.0
H433 H 0.56464 0.4503 0.49215 0.0
H434 H 0.54174 0.46839 0.51387 0.0
C435 C 0.45034 0.5268 0.55978 0.0
C436 C 0.50172 0.52538 0.52391 0.0
H437 H 0.50345 0.4947 0.47592 0.0
C438 C 0.5243 0.52841 0.53337 0.0
C439 C 0.49415 0.51332 0.50289 0.0
C440 C 0.47036 0.51026 0.49181 0.0
C441 C 0.53943 0.51932 0.52242 0.0
C442 C 0.53163 0.50685 0.5016 0.0
C443 C 0.50923 0.50415 0.49199 0.0
C444 C 0.54666 0.49679 0.48928 0.0
C445 C 0.56371 0.52329 0.53303 0.0
C446 C 0.55699 0.50686 0.46836 0.0
C447 C 0.57011 0.49667 0.45598 0.0
C448 C 0.57291 0.47603 0.4642 0.0
C449 C 0.56287 0.46622 0.48538 0.0
C450 C 0.54983 0.47654 0.49783 0.0
H451 H 0.56912 0.53716 0.54685 0.0
H452 H 0.56214 0.50559 0.5402 0.0
H453 H 0.57859 0.52944 0.52015 0.0
H454 H 0.55468 0.52247 0.46151 0.0
H455 H 0.57756 0.50468 0.43972 0.0
H456 H 0.06432 0.59021 0.93962 0.0
H457 H 0.02374 0.56714 0.95658 0.0
H458 H 0.05588 0.53719 0.00634 0.0
H459 H 0.09666 0.5605 0.98972 0.0
H460 H 0.00095 0.51666 0.9586 0.0
H461 H 0.01051 0.55637 0.04456 0.0
H462 H 0.03194 0.57178 0.02206 0.0
H463 H 0.03453 0.54728 0.03768 0.0
C464 C 0.06286 0.57907 0.95444 0.0
C465 C 0.08369 0.57707 0.96328 0.0
C466 C 0.03965 0.56591 0.96409 0.0
C467 C 0.03686 0.55063 0.9828 0.0
C468 C 0.05773 0.54928 0.99218 0.0
H469 H 0.92213 0.43313 0.05256 0.0
H470 H 0.96025 0.46447 0.03679 0.0
C471 C 0.081 0.56251 0.98258 0.0
C472 C 0.01189 0.53427 0.99108 0.0
H473 H 0.9762 0.51711 0.03847 0.0
C474 C 0.99537 0.51697 0.97598 0.0
C475 C 0.00474 0.53476 0.01375 0.0
C476 C 0.02127 0.55371 0.0304 0.0
C477 C 0.9722 0.49944 0.98319 0.0
C478 C 0.96537 0.49947 0.00601 0.0
C479 C 0.98161 0.51716 0.02098 0.0
C480 C 0.94202 0.48042 0.015 0.0
C481 C 0.95562 0.48041 0.9666 0.0
C482 C 0.91917 0.47904 0.00786 0.0
C483 C 0.89725 0.46106 0.01681 0.0
C484 C 0.89793 0.4443 0.03309 0.0
C485 C 0.92092 0.44571 0.04003 0.0
C486 C 0.94275 0.46365 0.03111 0.0
H487 H 0.96547 0.48017 0.95078 0.0
H488 H 0.94798 0.4617 0.97424 0.0
H489 H 0.9399 0.48464 0.96213 0.0
H490 H 0.91832 0.49204 0.9956 0.0
H491 H 0.87985 0.46053 0.01121 0.0
H492 H 0.53366 0.08739 0.45516 0.0
H493 H 0.50604 0.05009 0.47512 0.0
H494 H 0.53433 0.00708 0.43633 0.0
H495 H 0.56206 0.04433 0.41616 0.0
H496 H 0.48134 0.9884 0.43754 0.0
H497 H 0.52355 0.00963 0.52296 0.0
H498 H 0.51815 0.03417 0.51052 0.0
H499 H 0.54 0.0249 0.49775 0.0
C500 C 0.5342 0.07006 0.451 0.0
C501 C 0.55005 0.0688 0.43409 0.0
C502 C 0.5185 0.04881 0.4625 0.0
C503 C 0.51841 0.02598 0.45732 0.0
C504 C 0.53431 0.02462 0.44061 0.0
H505 H 0.41634 0.87972 0.50726 0.0
H506 H 0.44887 0.91257 0.48582 0.0
C507 C 0.55014 0.04591 0.42916 0.0
C508 C 0.50069 0.0034 0.4686 0.0
H509 H 0.48285 0.97716 0.52048 0.0
C510 C 0.48178 0.98568 0.45563 0.0
C511 C 0.50148 6e-05 0.49215 0.0
C512 C 0.52201 0.01807 0.50667 0.0
C513 C 0.46284 0.96518 0.46582 0.0
C514 C 0.46321 0.96226 0.48949 0.0
C515 C 0.48261 0.97957 0.50233 0.0
C516 C 0.443 0.94216 0.50154 0.0
C517 C 0.44206 0.94743 0.45135 0.0
C518 C 0.42913 0.948 0.51753 0.0
C519 C 0.41072 0.92939 0.52986 0.0
C520 C 0.40588 0.90454 0.52645 0.0
C521 C 0.41955 0.89867 0.51016 0.0
C522 C 0.43807 0.91738 0.49786 0.0
H523 H 0.4419 0.95508 0.43429 0.0
H524 H 0.44427 0.93013 0.44924 0.0
H525 H 0.42394 0.9427 0.45953 0.0
H526 H 0.4327 0.96705 0.52059 0.0
H527 H 0.40051 0.93454 0.54225 0.0
H528 H 0.40482 0.51698 0.98343 0.0
H529 H 0.42622 0.49988 0.00837 0.0
H530 H 0.47025 0.49613 0.95224 0.0
H531 H 0.44941 0.51346 0.92738 0.0
H532 H 0.42828 0.45434 0.00413 0.0
H533 H 0.52212 0.53144 0.0004 0.0
H534 H 0.49495 0.5347 0.99132 0.0
H535 H 0.50896 0.52037 0.9731 0.0
C536 C 0.41922 0.51273 0.97646 0.0
C537 C 0.42547 0.51669 0.95345 0.0
C538 C 0.43139 0.50294 0.99071 0.0
C539 C 0.45006 0.49711 0.98219 0.0
C540 C 0.45629 0.50102 0.95926 0.0
H541 H 0.54233 0.43042 0.03392 0.0
H542 H 0.52017 0.44772 0.0102 0.0
C543 C 0.44422 0.51082 0.94505 0.0
C544 C 0.46242 0.48596 -0.00304 0.0
H545 H 0.51893 0.49367 0.01614 0.0
C546 C 0.44806 0.463 0.00693 0.0
C547 C 0.48825 0.49729 0.00045 0.0
C548 C 0.50446 0.52242 0.99093 0.0
C549 C 0.45895 0.45077 0.01991 0.0
C550 C 0.4848 0.46201 0.02324 0.0
C551 C 0.49913 0.48504 0.0134 0.0
C552 C 0.49735 0.45049 0.03734 0.0
C553 C 0.44277 0.42567 0.0295 0.0
C554 C 0.49188 0.44643 0.06041 0.0
C555 C 0.50442 0.43653 0.07395 0.0
C556 C 0.52284 0.43068 0.06471 0.0
C557 C 0.52822 0.43467 0.04154 0.0
C558 C 0.51561 0.44458 0.02798 0.0
H559 H 0.42477 0.4169 0.02054 0.0
H560 H 0.45203 0.41318 0.02847 0.0
H561 H 0.43899 0.42767 0.04755 0.0
H562 H 0.47821 0.45135 0.06805 0.0
H563 H 0.4999 0.43383 0.09176 0.0
H564 H 0.9525 0.42015 0.42014 0.0
H565 H 0.98632 0.44651 0.44464 0.0
H566 H 0.93612 0.4294 0.50094 0.0
H567 H 0.902 0.40315 0.47649 0.0
H568 H 0.96413 0.47977 0.49381 0.0
H569 H 0.0238 0.43036 0.49506 0.0
H570 H 0.01521 0.43555 0.46717 0.0
H571 H 0.99185 0.41576 0.48633 0.0
C572 C 0.94867 0.42171 0.4378 0.0
C573 C 0.92454 0.40962 0.44636 0.0
C574 C 0.96808 0.43664 0.45181 0.0
C575 C 0.96375 0.43962 0.47464 0.0
C576 C 0.93981 0.42717 0.48338 0.0
H577 H 0.05679 0.54201 0.57683 0.0
H578 H 0.0232 0.50845 0.55721 0.0
C579 C 0.92036 0.4122 0.46938 0.0
C580 C 0.98378 0.45743 0.48882 0.0
H581 H 0.04191 0.47199 0.50841 0.0
C582 C 0.98103 0.47794 0.49726 0.0
C583 C 0.00581 0.45502 0.49309 0.0
C584 C 0.00933 0.43287 0.48512 0.0
C585 C 6e-05 0.49655 0.50933 0.0
C586 C 0.02222 0.49429 0.51339 0.0
C587 C 0.02487 0.47362 0.50521 0.0
C588 C 0.04304 0.51354 0.5257 0.0
C589 C 0.99661 0.51885 0.51699 0.0
C590 C 0.06555 0.52695 0.51465 0.0
C591 C 0.08485 0.54607 0.52584 0.0
C592 C 0.08193 0.55202 0.54828 0.0
C593 C 0.05955 0.53805 0.55948 0.0
C594 C 0.04031 0.51892 0.54829 0.0
H595 H 0.9811 0.52045 0.508 0.0
H596 H 0.99244 0.51726 0.53534 0.0
H597 H 0.01368 0.53606 0.5142 0.0
H598 H 0.06799 0.52296 0.49722 0.0
H599 H 0.10189 0.5564 0.51678 0.0
H600 H 0.56192 0.15489 0.08222 0.0
H601 H 0.54066 0.18146 0.07647 0.0
H602 H 0.59889 0.2403 0.11249 0.0
H603 H 0.62017 0.2142 0.11821 0.0
H604 H 0.52377 0.20408 0.11006 0.0
H605 H 0.59187 0.27406 0.0544 0.0
H606 H 0.59108 0.24392 0.05865 0.0
H607 H 0.60648 0.26833 0.07872 0.0
C608 C 0.57027 0.17356 0.08874 0.0
C609 C 0.59278 0.18243 0.10064 0.0
C610 C 0.5581 0.18868 0.08544 0.0
C611 C 0.56844 0.21297 0.09369 0.0
C612 C 0.59087 0.2218 0.10552 0.0
H613 H 0.53572 0.31484 0.1551 0.0
H614 H 0.53345 0.27599 0.14085 0.0
C615 C 0.60293 0.20675 0.10893 0.0
C616 C 0.5555 0.22902 0.09137 0.0
H617 H 0.56705 0.2881 0.07767 0.0
C618 C 0.53285 0.22223 0.10245 0.0
C619 C 0.56696 0.25241 0.0809 0.0
C620 C 0.59031 0.26 0.06728 0.0
C621 C 0.52271 0.23922 0.10535 0.0
C622 C 0.53583 0.26364 0.0973 0.0
C623 C 0.55708 0.26951 0.08414 0.0
C624 C 0.53075 0.28433 0.10563 0.0
C625 C 0.49865 0.23116 0.1179 0.0
C626 C 0.52945 0.30193 0.09066 0.0
C627 C 0.53088 0.32442 0.09885 0.0
C628 C 0.53404 0.32973 0.1221 0.0
C629 C 0.53337 0.31131 0.13709 0.0
C630 C 0.53182 0.28891 0.12895 0.0
H631 H 0.48644 0.21142 0.11446 0.0
H632 H 0.50238 0.23306 0.13634 0.0
H633 H 0.48877 0.24243 0.11317 0.0
H634 H 0.52882 0.29887 0.07258 0.0
H635 H 0.53149 0.33833 0.08689 0.0
H636 H 0.34622 0.54631 0.64902 0.0
H637 H 0.30354 0.53873 0.64125 0.0
H638 H 0.3255 0.57268 0.5757 0.0
H639 H 0.36774 0.57877 0.58291 0.0
H640 H 0.29317 0.57502 0.6389 0.0
H641 H 0.25842 0.52361 0.55967 0.0
H642 H 0.28526 0.52416 0.57395 0.0
H643 H 0.28808 0.54856 0.55472 0.0
C644 C 0.34164 0.55114 0.63258 0.0
C645 C 0.36021 0.56321 0.6166 0.0
C646 C 0.31727 0.54686 0.62815 0.0
C647 C 0.31115 0.55515 0.60788 0.0
C648 C 0.32943 0.56552 0.59122 0.0
H649 H 0.22725 0.63653 0.59949 0.0
H650 H 0.25715 0.61907 0.60005 0.0
C651 C 0.3537 0.56917 0.59542 0.0
C652 C 0.28757 0.55758 0.60614 0.0
H653 H 0.24174 0.55322 0.56953 0.0
C654 C 0.28166 0.56962 0.62391 0.0
C655 C 0.27224 0.55049 0.58672 0.0
C656 C 0.27622 0.53574 0.56784 0.0
C657 C 0.26188 0.57599 0.6223 0.0
C658 C 0.24802 0.57096 0.60208 0.0
C659 C 0.25278 0.55755 0.58483 0.0
C660 C 0.22979 0.5811 0.59834 0.0
C661 C 0.2564 0.58865 0.64214 0.0
C662 C 0.20454 0.56554 0.59598 0.0
C663 C 0.1873 0.57553 0.59541 0.0
C664 C 0.19516 0.60119 0.59732 0.0
C665 C 0.22057 0.61668 0.59837 0.0
C666 C 0.23769 0.60674 0.5987 0.0
H667 H 0.26324 0.58431 0.65823 0.0
H668 H 0.26587 0.60894 0.63966 0.0
H669 H 0.23628 0.58316 0.64376 0.0
H670 H 0.19813 0.54569 0.59554 0.0
H671 H 0.16783 0.56314 0.59448 0.0
H672 H 0.82769 0.32702 0.02676 0.0
H673 H 0.8112 0.2871 0.00691 0.0
H674 H 0.79954 0.24953 0.07102 0.0
H675 H 0.81607 0.28888 0.09064 0.0
H676 H 0.81124 0.22429 0.03507 0.0
H677 H 0.7359 0.25111 0.01184 0.0
H678 H 0.76695 0.26904 0.00215 0.0
H679 H 0.75948 0.26999 0.03142 0.0
C680 C 0.82238 0.31022 0.03648 0.0
C681 C 0.82262 0.31093 0.06024 0.0
C682 C 0.81288 0.28745 0.02514 0.0
C683 C 0.8037 0.26532 0.03751 0.0
C684 C 0.80648 0.26633 0.06109 0.0
H685 H 0.71483 0.15875 0.09828 0.0
H686 H 0.74998 0.18002 0.07389 0.0
C687 C 0.81575 0.28886 0.07233 0.0
C688 C 0.78696 0.24128 0.02745 0.0
H689 H 0.72478 0.21004 0.02085 0.0
C690 C 0.79247 0.22105 0.03094 0.0
C691 C 0.76262 0.23691 0.02131 0.0
C692 C 0.7557 0.25781 0.01639 0.0
C693 C 0.77358 0.19697 0.03225 0.0
C694 C 0.74874 0.19331 0.03051 0.0
C695 C 0.74378 0.21285 0.02281 0.0
C696 C 0.72864 0.17311 0.04294 0.0
C697 C 0.78025 0.17607 0.03767 0.0
C698 C 0.70473 0.16119 0.03377 0.0
C699 C 0.68434 0.14907 0.04796 0.0
C700 C 0.68767 0.14906 0.07147 0.0
C701 C 0.71172 0.15867 0.08023 0.0
C702 C 0.73197 0.17057 0.06614 0.0
H703 H 0.79671 0.178 0.02779 0.0
H704 H 0.78522 0.17688 0.05583 0.0
H705 H 0.76481 0.15781 0.03398 0.0
H706 H 0.70164 0.16302 0.01597 0.0
H707 H 0.66596 0.1418 0.04076 0.0
H708 H 0.40666 0.83299 0.56909 0.0
H709 H 0.43056 0.80869 0.56619 0.0
H710 H 0.37754 0.75251 0.60861 0.0
H711 H 0.35358 0.77646 0.61161 0.0
H712 H 0.45156 0.79218 0.60245 0.0
H713 H 0.38399 0.71426 0.55279 0.0
H714 H 0.38297 0.74386 0.55454 0.0
H715 H 0.37027 0.72162 0.57688 0.0
C716 C 0.4 0.81538 0.57769 0.0
C717 C 0.37814 0.80663 0.59054 0.0
C718 C 0.41371 0.80157 0.57602 0.0
C719 C 0.40561 0.77868 0.58692 0.0
C720 C 0.38386 0.76994 0.59973 0.0
H721 H 0.45613 0.68683 0.64837 0.0
H722 H 0.45238 0.72334 0.635 0.0
C723 C 0.37025 0.78373 0.60152 0.0
C724 C 0.42009 0.76404 0.58579 0.0
H725 H 0.41347 0.70586 0.57452 0.0
C726 C 0.44353 0.77347 0.59591 0.0
C727 C 0.40987 0.73989 0.57677 0.0
C728 C 0.38549 0.72938 0.56441 0.0
C729 C 0.45607 0.7586 0.59893 0.0
C730 C 0.44467 0.73363 0.59191 0.0
C731 C 0.4222 0.72493 0.58009 0.0
C732 C 0.45347 0.71523 0.59947 0.0
C733 C 0.48102 0.76954 0.61023 0.0
C734 C 0.45606 0.69875 0.58399 0.0
C735 C 0.45804 0.6776 0.59165 0.0
C736 C 0.45713 0.67249 0.61492 0.0
C737 C 0.45676 0.69015 0.63034 0.0
C738 C 0.45483 0.71123 0.62269 0.0
H739 H 0.49108 0.78955 0.60642 0.0
H740 H 0.4785 0.7676 0.62882 0.0
H741 H 0.4925 0.76012 0.60482 0.0
H742 H 0.45495 0.70142 0.56599 0.0
H743 H 0.45827 0.66437 0.57932 0.0
H744 H 0.6522 0.4417 0.14215 0.0
H745 H 0.69046 0.4519 0.12209 0.0
H746 H 0.65566 0.45638 0.05949 0.0
H747 H 0.61664 0.44525 0.0796 0.0
H748 H 0.67436 0.42557 0.05475 0.0
H749 H 0.74746 0.50637 0.094 0.0
H750 H 0.73052 0.48673 0.11668 0.0
H751 H 0.71529 0.49951 0.09785 0.0
C752 C 0.65276 0.44552 0.12422 0.0
C753 C 0.63124 0.44225 0.11243 0.0
C754 C 0.67489 0.45176 0.11274 0.0
C755 C 0.67619 0.45525 0.08923 0.0
C756 C 0.65519 0.45394 0.07764 0.0
H757 H 0.81159 0.43842 0.06108 0.0
H758 H 0.78419 0.45856 0.05389 0.0
C759 C 0.63289 0.44758 0.08917 0.0
C760 C 0.69764 0.45506 0.07687 0.0
H761 H 0.7588 0.47123 0.08573 0.0
C762 C 0.69301 0.43627 0.06088 0.0
C763 C 0.72223 0.46942 0.08403 0.0
C764 C 0.72909 0.49181 0.09889 0.0
C765 C 0.71151 0.42914 0.05461 0.0
C766 C 0.73494 0.44067 0.06504 0.0
C767 C 0.74058 0.46181 0.07828 0.0
C768 C 0.75139 0.42807 0.06647 0.0
C769 C 0.70521 0.40805 0.03822 0.0
C770 C 0.74206 0.40439 0.076 0.0
C771 C 0.75753 0.39303 0.08023 0.0
C772 C 0.78281 0.4051 0.07518 0.0
C773 C 0.79216 0.42862 0.0651 0.0
C774 C 0.77657 0.44013 0.06096 0.0
H775 H 0.69196 0.40837 0.02524 0.0
H776 H 0.72193 0.40872 0.02962 0.0
H777 H 0.69618 0.39031 0.04747 0.0
H778 H 0.72288 0.39499 0.08102 0.0
H779 H 0.74967 0.37492 0.08798 0.0
H780 H 0.14001 0.70485 0.58457 0.0
H781 H 0.15434 0.73939 0.55881 0.0
H782 H 0.15459 0.69163 0.5043 0.0
H783 H 0.14043 0.65667 0.53067 0.0
H784 H 0.19831 0.72393 0.51102 0.0
H785 H 0.14564 0.77817 0.50898 0.0
H786 H 0.14429 0.76881 0.5378 0.0
H787 H 0.13102 0.74568 0.51597 0.0
C788 C 0.14202 0.70147 0.56687 0.0
C789 C 0.13959 0.67829 0.55966 0.0
C790 C 0.14992 0.72126 0.55193 0.0
C791 C 0.15562 0.71832 0.52941 0.0
C792 C 0.15024 0.6944 0.52153 0.0
H793 H 0.29865 0.84062 0.52544 0.0
H794 H 0.26229 0.81786 0.50164 0.0
C795 C 0.14216 0.67442 0.53659 0.0
C796 C 0.17346 0.74057 0.51731 0.0
H797 H 0.19118 0.80245 0.52156 0.0
C798 C 0.19651 0.74111 0.5121 0.0
C799 C 0.17121 0.76307 0.51777 0.0
C800 C 0.14652 0.76373 0.52019 0.0
C801 C 0.21801 0.76337 0.51233 0.0
C802 C 0.21615 0.78552 0.51761 0.0
C803 C 0.1927 0.78539 0.51822 0.0
C804 C 0.23668 0.8056 0.52965 0.0
C805 C 0.24267 0.76242 0.51033 0.0
C806 C 0.23402 0.80774 0.553 0.0
C807 C 0.25457 0.82063 0.56651 0.0
C808 C 0.27825 0.83177 0.55695 0.0
C809 C 0.28063 0.83201 0.53328 0.0
C810 C 0.2599 0.81895 0.51968 0.0
H811 H 0.24074 0.74363 0.50613 0.0
H812 H 0.25379 0.77523 0.49688 0.0
H813 H 0.25299 0.76829 0.52649 0.0
H814 H 0.21631 0.79764 0.56112 0.0
H815 H 0.25208 0.82047 0.58465 0.0
H816 H 0.80395 0.40783 0.36433 0.0
H817 H 0.78433 0.43329 0.37771 0.0
H818 H 0.83302 0.45561 0.4354 0.0
H819 H 0.85286 0.42975 0.42211 0.0
H820 H 0.78467 0.43886 0.44739 0.0
H821 H 0.80369 0.50665 0.37914 0.0
H822 H 0.79332 0.47646 0.36706 0.0
H823 H 0.82174 0.48936 0.38298 0.0
C824 C 0.81081 0.4184 0.3797 0.0
C825 C 0.82993 0.41668 0.39218 0.0
C826 C 0.79974 0.43322 0.3872 0.0
C827 C 0.80754 0.4468 0.40731 0.0
C828 C 0.82695 0.44556 0.41967 0.0
H829 H 0.69443 0.50099 0.41733 0.0
H830 H 0.73672 0.50668 0.42636 0.0
C831 C 0.83822 0.43076 0.41207 0.0
C832 C 0.7931 0.4596 0.41631 0.0
H833 H 0.76248 0.49216 0.39692 0.0
C834 C 0.78044 0.45126 0.43677 0.0
C835 C 0.78807 0.47643 0.40294 0.0
C836 C 0.8027 0.48794 0.38194 0.0
C837 C 0.76056 0.45658 0.44254 0.0
C838 C 0.75299 0.47009 0.42723 0.0
C839 C 0.76789 0.48133 0.40847 0.0
C840 C 0.72731 0.46757 0.42713 0.0
C841 C 0.74669 0.44608 0.46412 0.0
C842 C 0.70804 0.44381 0.42494 0.0
C843 C 0.68431 0.44064 0.41956 0.0
C844 C 0.67922 0.46113 0.4164 0.0
C845 C 0.69797 0.48495 0.41999 0.0
C846 C 0.72204 0.48818 0.42509 0.0
H847 H 0.75955 0.44612 0.47765 0.0
H848 H 0.73649 0.45664 0.47001 0.0
H849 H 0.7333 0.42661 0.46124 0.0
H850 H 0.71166 0.42764 0.42574 0.0
H851 H 0.67012 0.42211 0.41674 0.0
H852 H 0.32258 0.81093 0.85999 0.0
H853 H 0.28545 0.79426 0.88254 0.0
H854 H 0.32563 0.83791 0.93964 0.0
H855 H 0.36356 0.85431 0.917 0.0
H856 H 0.30313 0.79295 0.95213 0.0
H857 H 0.23295 0.81001 0.90703 0.0
H858 H 0.24791 0.80017 0.88578 0.0
H859 H 0.26541 0.82823 0.90144 0.0
C860 C 0.32353 0.81751 0.87717 0.0
C861 C 0.34612 0.83371 0.88676 0.0
C862 C 0.30205 0.80823 0.89004 0.0
C863 C 0.30246 0.81513 0.91277 0.0
C864 C 0.32475 0.8325 0.92208 0.0
H865 H 0.16634 0.68784 0.93625 0.0
H866 H 0.19182 0.7309 0.94759 0.0
C867 C 0.34641 0.84181 0.90913 0.0
C868 C 0.28088 0.8004 0.92722 0.0
H869 H 0.21946 0.76515 0.91923 0.0
C870 C 0.28465 0.78758 0.94558 0.0
C871 C 0.25645 0.79395 0.9198 0.0
C872 C 0.25055 0.80915 0.9026 0.0
C873 C 0.26543 0.76582 0.95358 0.0
C874 C 0.24235 0.7564 0.9424 0.0
C875 C 0.23744 0.77171 0.92721 0.0
C876 C 0.22665 0.72943 0.94105 0.0
C877 C 0.27073 0.75187 0.9724 0.0
C878 C 0.2377 0.71421 0.93397 0.0
C879 C 0.22334 0.68998 0.92739 0.0
C880 C 0.1975 0.6803 0.92759 0.0
C881 C 0.18625 0.69487 0.93602 0.0
C882 C 0.20077 0.71942 0.9425 0.0
H883 H 0.28231 0.7649 0.98558 0.0
H884 H 0.25351 0.73818 0.98031 0.0
H885 H 0.28138 0.74214 0.96564 0.0
H886 H 0.25752 0.72154 0.93194 0.0
H887 H 0.23254 0.67917 0.92109 0.0
H888 H 0.55517 0.18814 0.44246 0.0
H889 H 0.53897 0.21755 0.4548 0.0
H890 H 0.54283 0.24307 0.38615 0.0
H891 H 0.55928 0.2144 0.37395 0.0
H892 H 0.56802 0.2693 0.44759 0.0
H893 H 0.47611 0.23926 0.40878 0.0
H894 H 0.48961 0.21815 0.41488 0.0
H895 H 0.49769 0.23634 0.38941 0.0
C896 C 0.55195 0.19965 0.43 0.0
C897 C 0.55863 0.1992 0.4073 0.0
C898 C 0.54267 0.21635 0.43705 0.0
C899 C 0.53931 0.23217 0.42132 0.0
C900 C 0.54474 0.23066 0.39849 0.0
H901 H 0.55764 0.35914 0.37289 0.0
H902 H 0.54045 0.31676 0.38606 0.0
C903 C 0.5544 0.21445 0.39157 0.0
C904 C 0.53426 0.25315 0.42856 0.0
H905 H 0.50129 0.28405 0.41088 0.0
C906 C 0.55293 0.27236 0.44042 0.0
C907 C 0.51444 0.25692 0.41934 0.0
C908 C 0.49319 0.23643 0.40759 0.0
C909 C 0.55416 0.29625 0.44054 0.0
C910 C 0.53582 0.30073 0.4289 0.0
C911 C 0.51545 0.28071 0.41962 0.0
C912 C 0.5406 0.32599 0.42146 0.0
C913 C 0.57654 0.31692 0.45086 0.0
C914 C 0.54517 0.34531 0.43685 0.0
C915 C 0.55535 0.36984 0.4293 0.0
C916 C 0.56092 0.37524 0.40628 0.0
C917 C 0.55395 0.35566 0.39078 0.0
C918 C 0.54395 0.33133 0.3983 0.0
H919 H 0.59015 0.3105 0.45735 0.0
H920 H 0.58589 0.33165 0.43818 0.0
H921 H 0.57073 0.32513 0.46517 0.0
H922 H 0.54218 0.34155 0.45475 0.0
H923 H 0.5603 0.38454 0.44164 0.0
H924 H 0.1777 0.54562 0.87949 0.0
H925 H 0.19739 0.51967 0.89156 0.0
H926 H 0.18849 0.53511 0.96131 0.0
H927 H 0.16832 0.56112 0.94918 0.0
H928 H 0.23695 0.54969 0.94831 0.0
H929 H 0.18265 0.45357 0.92142 0.0
H930 H 0.18315 0.47437 0.89949 0.0
H931 H 0.16886 0.47468 0.9262 0.0
C932 C 0.17916 0.54282 0.89742 0.0
C933 C 0.17169 0.5555 0.9134 0.0
C934 C 0.19019 0.52775 0.90433 0.0
C935 C 0.19417 0.52518 0.92737 0.0
C936 C 0.18529 0.53656 0.94347 0.0
H937 H 0.33377 0.51216 0.93556 0.0
H938 H 0.29414 0.50469 0.95324 0.0
C939 C 0.1738 0.55141 0.93653 0.0
C940 C 0.21196 0.51513 0.93365 0.0
H941 H 0.22789 0.46941 0.91755 0.0
C942 C 0.2348 0.53174 0.94247 0.0
C943 C 0.209 0.49165 0.92626 0.0
C944 C 0.18445 0.47247 0.91804 0.0
C945 C 0.25566 0.52693 0.94104 0.0
C946 C 0.25333 0.50458 0.93102 0.0
C947 C 0.22975 0.48664 0.92501 0.0
C948 C 0.27519 0.50237 0.92155 0.0
C949 C 0.28041 0.54704 0.94784 0.0
C950 C 0.27712 0.5016 0.89797 0.0
C951 C 0.29945 0.50552 0.88792 0.0
C952 C 0.32045 0.51039 0.90122 0.0
C953 C 0.31795 0.5087 0.92488 0.0
C954 C 0.29538 0.50463 0.93499 0.0
H955 H 0.27914 0.56415 0.95335 0.0
H956 H 0.2881 0.54051 0.96206 0.0
H957 H 0.29357 0.55174 0.9335 0.0
H958 H 0.2618 0.49976 0.8872 0.0
H959 H 0.30061 0.50628 0.86965 0.0
H960 H 0.68146 0.17693 0.38427 0.0
H961 H 0.72206 0.19094 0.40147 0.0
H962 H 0.68926 0.1791 0.46783 0.0
H963 H 0.64807 0.16444 0.45045 0.0
H964 H 0.7234 0.22737 0.45942 0.0
H965 H 0.76512 0.16524 0.43629 0.0
H966 H 0.74812 0.16864 0.41267 0.0
H967 H 0.73206 0.15484 0.43843 0.0
C968 C 0.6828 0.17664 0.40252 0.0
C969 C 0.66172 0.16984 0.41605 0.0
C970 C 0.706 0.18433 0.41237 0.0
C971 C 0.70869 0.18568 0.43596 0.0
C972 C 0.68753 0.17777 0.4496 0.0
H973 H 0.84624 0.31721 0.44024 0.0
H974 H 0.82068 0.27968 0.46164 0.0
C975 C 0.66409 0.16952 0.43968 0.0
C976 C 0.73371 0.20013 0.44534 0.0
H977 H 0.79235 0.21028 0.43162 0.0
C978 C 0.73869 0.22337 0.45443 0.0
C979 C 0.75359 0.19465 0.4394 0.0
C980 C 0.74939 0.16932 0.43139 0.0
C981 C 0.76258 0.24265 0.45364 0.0
C982 C 0.78182 0.23821 0.44382 0.0
C983 C 0.77753 0.21383 0.43871 0.0
C984 C 0.80243 0.25842 0.43204 0.0
C985 C 0.76618 0.26826 0.4603 0.0
C986 C 0.80191 0.2583 0.40833 0.0
C987 C 0.81639 0.27944 0.39623 0.0
C988 C 0.83181 0.30119 0.40753 0.0
C989 C 0.83434 0.30068 0.43114 0.0
C990 C 0.81966 0.27934 0.44337 0.0
H991 H 0.74915 0.26843 0.46746 0.0
H992 H 0.78102 0.2759 0.47317 0.0
H993 H 0.77181 0.28063 0.44535 0.0
H994 H 0.78882 0.24242 0.39916 0.0
H995 H 0.81434 0.27917 0.37802 0.0
H996 H 0.43645 0.61617 0.92007 0.0
H997 H 0.45424 0.66084 0.92746 0.0
H998 H 0.43841 0.67343 0.85882 0.0
H999 H 0.4208 0.62931 0.8513 0.0
H1000 H 0.48759 0.70757 0.87692 0.0
H1001 H 0.40772 0.69707 0.93129 0.0
H1002 H 0.42454 0.67905 0.93708 0.0
H1003 H 0.40565 0.67275 0.91227 0.0
C1004 C 0.43706 0.62853 0.90651 0.0
C1005 C 0.42698 0.61918 0.88516 0.0
C1006 C 0.44717 0.65398 0.91078 0.0
C1007 C 0.44749 0.67034 0.8937 0.0
C1008 C 0.43838 0.6611 0.8722 0.0
H1009 H 0.44362 0.7888 0.83853 0.0
H1010 H 0.45554 0.757 0.85134 0.0
C1011 C 0.42817 0.63582 0.86798 0.0
C1012 C 0.45544 0.69696 0.89804 0.0
H1013 H 0.43141 0.73606 0.91588 0.0
C1014 C 0.4758 0.71399 0.88605 0.0
C1015 C 0.44023 0.70532 0.91019 0.0
C1016 C 0.41825 0.68772 0.92347 0.0
C1017 C 0.47995 0.73877 0.88415 0.0
C1018 C 0.46302 0.74647 0.8941 0.0
C1019 C 0.4443 0.73009 0.90814 0.0
C1020 C 0.46092 0.76895 0.88627 0.0
C1021 C 0.50153 0.7561 0.87032 0.0
C1022 C 0.46015 0.78649 0.90161 0.0
C1023 C 0.45334 0.80491 0.89422 0.0
C1024 C 0.44666 0.80556 0.87153 0.0
C1025 C 0.44862 0.78871 0.85612 0.0
C1026 C 0.45569 0.77065 0.8634 0.0
H1027 H 0.51732 0.75115 0.87167 0.0
H1028 H 0.49604 0.75453 0.85227 0.0
H1029 H 0.50769 0.77557 0.87575 0.0
H1030 H 0.4638 0.7853 0.91938 0.0
H1031 H 0.4518 0.81758 0.90647 0.0
loop_
_geom_bond_atom_site_label_1
_geom_bond_atom_site_label_2
_geom_bond_distance
_geom_bond_site_symmetry_2
_ccdc_geom_bond_type
Zn0 O3 2.031 . S
Zn0 O5 2.049 . S
Zn0 O10 2.067 . S
Zn1 O2 1.962 . S
Zn1 O4 1.986 . S
Zn1 O6 1.996 . S
Zn1 O9 1.943 . S
O2 Zn1 1.962 . S
O2 C7 1.254 . S
O3 Zn0 2.031 . S
O3 C7 1.269 . S
O4 Zn1 1.986 . S
O4 C11 1.262 . S
O5 Zn0 2.049 . S
O5 C13 1.260 . S
O6 Zn1 1.996 . S
O6 C13 1.257 . S
C7 O2 1.254 . S
C7 O3 1.269 . S
C8 O9 1.249 . S
C8 O10 1.270 . S
O9 Zn1 1.943 . S
O9 C8 1.249 . S
O10 Zn0 2.067 . S
O10 C8 1.270 . S
C11 O4 1.262 . S
C11 O12 1.232 . S
O12 C11 1.232 . S
C13 O5 1.260 . S
C13 O6 1.257 . S
Zn14 O17 2.031 . S
Zn14 O19 2.049 . S
Zn14 O24 2.067 . S
Zn15 O16 1.962 . S
Zn15 O18 1.986 . S
Zn15 O20 1.996 . S
Zn15 O23 1.943 . S
O16 Zn15 1.962 . S
O16 C21 1.254 . S
O17 Zn14 2.031 . S
O17 C21 1.269 . S
O18 Zn15 1.986 . S
O18 C25 1.262 . S
O19 Zn14 2.049 . S
O19 C27 1.260 . S
O20 Zn15 1.996 . S
O20 C27 1.257 . S
C21 O16 1.254 . S
C21 O17 1.269 . S
C22 O23 1.249 . S
C22 O24 1.270 . S
O23 Zn15 1.943 . S
O23 C22 1.249 . S
O24 Zn14 2.067 . S
O24 C22 1.270 . S
C25 O18 1.262 . S
C25 O26 1.232 . S
O26 C25 1.232 . S
C27 O19 1.260 . S
C27 O20 1.257 . S
Zn28 O31 2.031 . S
Zn28 O33 2.049 . S
Zn28 O38 2.067 . S
Zn29 O30 1.962 . S
Zn29 O32 1.986 . S
Zn29 O34 1.996 . S
Zn29 O37 1.943 . S
O30 Zn29 1.962 . S
O30 C35 1.254 . S
O31 Zn28 2.031 . S
O31 C35 1.269 . S
O32 Zn29 1.986 . S
O32 C39 1.262 . S
O33 Zn28 2.049 . S
O33 C41 1.260 . S
O34 Zn29 1.996 . S
O34 C41 1.257 . S
C35 O30 1.254 . S
C35 O31 1.269 . S
C36 O37 1.249 . S
C36 O38 1.270 . S
O37 Zn29 1.943 . S
O37 C36 1.249 . S
O38 Zn28 2.067 . S
O38 C36 1.270 . S
C39 O32 1.262 . S
C39 O40 1.232 . S
O40 C39 1.232 . S
C41 O33 1.260 . S
C41 O34 1.257 . S
Zn42 O45 2.031 . S
Zn42 O47 2.049 . S
Zn42 O52 2.067 . S
Zn43 O44 1.962 . S
Zn43 O46 1.986 . S
Zn43 O48 1.996 . S
Zn43 O51 1.943 . S
O44 Zn43 1.962 . S
O44 C49 1.254 . S
O45 Zn42 2.031 . S
O45 C49 1.269 . S
O46 Zn43 1.986 . S
O46 C53 1.262 . S
O47 Zn42 2.049 . S
O47 C55 1.260 . S
O48 Zn43 1.996 . S
O48 C55 1.257 . S
C49 O44 1.254 . S
C49 O45 1.269 . S
C50 O51 1.249 . S
C50 O52 1.270 . S
O51 Zn43 1.943 . S
O51 C50 1.249 . S
O52 Zn42 2.067 . S
O52 C50 1.270 . S
C53 O46 1.262 . S
C53 O54 1.232 . S
O54 C53 1.232 . S
C55 O47 1.260 . S
C55 O48 1.257 . S
Zn56 O59 2.031 . S
Zn56 O61 2.049 . S
Zn56 O66 2.067 . S
Zn57 O58 1.962 . S
Zn57 O60 1.986 . S
Zn57 O62 1.996 . S
Zn57 O65 1.943 . S
O58 Zn57 1.962 . S
O58 C63 1.254 . S
O59 Zn56 2.031 . S
O59 C63 1.269 . S
O60 Zn57 1.986 . S
O60 C67 1.262 . S
O61 Zn56 2.049 . S
O61 C69 1.260 . S
O62 Zn57 1.996 . S
O62 C69 1.257 . S
C63 O58 1.254 . S
C63 O59 1.269 . S
C64 O65 1.249 . S
C64 O66 1.270 . S
O65 Zn57 1.943 . S
O65 C64 1.249 . S
O66 Zn56 2.067 . S
O66 C64 1.270 . S
C67 O60 1.262 . S
C67 O68 1.232 . S
O68 C67 1.232 . S
C69 O61 1.260 . S
C69 O62 1.257 . S
Zn70 O73 2.031 . S
Zn70 O75 2.049 . S
Zn70 O80 2.067 . S
Zn71 O72 1.962 . S
Zn71 O74 1.986 . S
Zn71 O76 1.996 . S
Zn71 O79 1.943 . S
O72 Zn71 1.962 . S
O72 C77 1.254 . S
O73 Zn70 2.031 . S
O73 C77 1.269 . S
O74 Zn71 1.986 . S
O74 C81 1.262 . S
O75 Zn70 2.049 . S
O75 C83 1.260 . S
O76 Zn71 1.996 . S
O76 C83 1.257 . S
C77 O72 1.254 . S
C77 O73 1.269 . S
C78 O79 1.249 . S
C78 O80 1.270 . S
O79 Zn71 1.943 . S
O79 C78 1.249 . S
O80 Zn70 2.067 . S
O80 C78 1.270 . S
C81 O74 1.262 . S
C81 O82 1.232 . S
O82 C81 1.232 . S
C83 O75 1.260 . S
C83 O76 1.257 . S
Zn84 O87 2.031 . S
Zn84 O89 2.049 . S
Zn84 O94 2.067 . S
Zn85 O86 1.962 . S
Zn85 O88 1.986 . S
Zn85 O90 1.996 . S
Zn85 O93 1.943 . S
O86 Zn85 1.962 . S
O86 C91 1.254 . S
O87 Zn84 2.031 . S
O87 C91 1.269 . S
O88 Zn85 1.986 . S
O88 C95 1.262 . S
O89 Zn84 2.049 . S
O89 C97 1.260 . S
O90 Zn85 1.996 . S
O90 C97 1.257 . S
C91 O86 1.254 . S
C91 O87 1.269 . S
C92 O93 1.249 . S
C92 O94 1.270 . S
O93 Zn85 1.943 . S
O93 C92 1.249 . S
O94 Zn84 2.067 . S
O94 C92 1.270 . S
C95 O88 1.262 . S
C95 O96 1.232 . S
O96 C95 1.232 . S
C97 O89 1.260 . S
C97 O90 1.257 . S
Zn98 O101 2.031 . S
Zn98 O103 2.049 . S
Zn98 O108 2.067 . S
Zn99 O100 1.962 . S
Zn99 O102 1.986 . S
Zn99 O104 1.996 . S
Zn99 O107 1.943 . S
O100 Zn99 1.962 . S
O100 C105 1.254 . S
O101 Zn98 2.031 . S
O101 C105 1.269 . S
O102 Zn99 1.986 . S
O102 C109 1.262 . S
O103 Zn98 2.049 . S
O103 C111 1.260 . S
O104 Zn99 1.996 . S
O104 C111 1.257 . S
C105 O100 1.254 . S
C105 O101 1.269 . S
C106 O107 1.249 . S
C106 O108 1.270 . S
O107 Zn99 1.943 . S
O107 C106 1.249 . S
O108 Zn98 2.067 . S
O108 C106 1.270 . S
C109 O102 1.262 . S
C109 O110 1.232 . S
O110 C109 1.232 . S
C111 O103 1.260 . S
C111 O104 1.257 . S
Zn112 O115 2.031 . S
Zn112 O117 2.049 . S
Zn112 O122 2.067 . S
Zn113 O114 1.962 . S
Zn113 O116 1.986 . S
Zn113 O118 1.996 . S
Zn113 O121 1.943 . S
O114 Zn113 1.962 . S
O114 C119 1.254 . S
O115 Zn112 2.031 . S
O115 C119 1.269 . S
O116 Zn113 1.986 . S
O116 C123 1.262 . S
O117 Zn112 2.049 . S
O117 C125 1.260 . S
O118 Zn113 1.996 . S
O118 C125 1.257 . S
C119 O114 1.254 . S
C119 O115 1.269 . S
C120 O121 1.249 . S
C120 O122 1.270 . S
O121 Zn113 1.943 . S
O121 C120 1.249 . S
O122 Zn112 2.067 . S
O122 C120 1.270 . S
C123 O116 1.262 . S
C123 O124 1.232 . S
O124 C123 1.232 . S
C125 O117 1.260 . S
C125 O118 1.257 . S
Zn126 O129 2.031 . S
Zn126 O131 2.049 . S
Zn126 O136 2.067 . S
Zn127 O128 1.962 . S
Zn127 O130 1.986 . S
Zn127 O132 1.996 . S
Zn127 O135 1.943 . S
O128 Zn127 1.962 . S
O128 C133 1.254 . S
O129 Zn126 2.031 . S
O129 C133 1.269 . S
O130 Zn127 1.986 . S
O130 C137 1.262 . S
O131 Zn126 2.049 . S
O131 C139 1.260 . S
O132 Zn127 1.996 . S
O132 C139 1.257 . S
C133 O128 1.254 . S
C133 O129 1.269 . S
C134 O135 1.249 . S
C134 O136 1.270 . S
O135 Zn127 1.943 . S
O135 C134 1.249 . S
O136 Zn126 2.067 . S
O136 C134 1.270 . S
C137 O130 1.262 . S
C137 O138 1.232 . S
O138 C137 1.232 . S
C139 O131 1.260 . S
C139 O132 1.257 . S
Zn140 O143 2.031 . S
Zn140 O145 2.049 . S
Zn140 O150 2.067 . S
Zn141 O142 1.962 . S
Zn141 O144 1.986 . S
Zn141 O146 1.996 . S
Zn141 O149 1.943 . S
O142 Zn141 1.962 . S
O142 C147 1.254 . S
O143 Zn140 2.031 . S
O143 C147 1.269 . S
O144 Zn141 1.986 . S
O144 C151 1.262 . S
O145 Zn140 2.049 . S
O145 C153 1.260 . S
O146 Zn141 1.996 . S
O146 C153 1.257 . S
C147 O142 1.254 . S
C147 O143 1.269 . S
C148 O149 1.249 . S
C148 O150 1.270 . S
O149 Zn141 1.943 . S
O149 C148 1.249 . S
O150 Zn140 2.067 . S
O150 C148 1.270 . S
C151 O144 1.262 . S
C151 O152 1.232 . S
O152 C151 1.232 . S
C153 O145 1.260 . S
C153 O146 1.257 . S
Zn154 O157 2.031 . S
Zn154 O159 2.049 . S
Zn154 O164 2.067 . S
Zn155 O156 1.962 . S
Zn155 O158 1.986 . S
Zn155 O160 1.996 . S
Zn155 O163 1.943 . S
O156 Zn155 1.962 . S
O156 C161 1.254 . S
O157 Zn154 2.031 . S
O157 C161 1.269 . S
O158 Zn155 1.986 . S
O158 C165 1.262 . S
O159 Zn154 2.049 . S
O159 C167 1.260 . S
O160 Zn155 1.996 . S
O160 C167 1.257 . S
C161 O156 1.254 . S
C161 O157 1.269 . S
C162 O163 1.249 . S
C162 O164 1.270 . S
O163 Zn155 1.943 . S
O163 C162 1.249 . S
O164 Zn154 2.067 . S
O164 C162 1.270 . S
C165 O158 1.262 . S
C165 O166 1.232 . S
O166 C165 1.232 . S
C167 O159 1.260 . S
C167 O160 1.257 . S
H168 C176 0.929 . S
H169 C178 0.930 . S
H170 C180 0.930 . S
H171 C183 0.929 . S
H172 C186 0.930 . S
H173 C188 0.960 . S
H174 C188 0.960 . S
H175 C188 0.960 . S
C176 H168 0.929 . S
C176 C177 1.377 . S
C176 C178 1.384 . S
C177 C176 1.377 . S
C177 C183 1.390 . S
C178 H169 0.930 . S
C178 C176 1.384 . S
C178 C179 1.372 . S
C179 C178 1.372 . S
C179 C180 1.400 . S
C179 C184 1.490 . S
C180 H170 0.930 . S
C180 C179 1.400 . S
C180 C183 1.386 . S
H181 C197 0.930 . S
H182 C198 0.931 . S
C183 H171 0.929 . S
C183 C177 1.390 . S
C183 C180 1.386 . S
C184 C179 1.490 . S
C184 C186 1.395 . S
C184 C187 1.403 . S
H185 C191 0.930 . S
C186 H172 0.930 . S
C186 C184 1.395 . S
C186 C189 1.403 . S
C187 C184 1.403 . S
C187 C188 1.524 . S
C187 C191 1.400 . S
C188 H173 0.960 . S
C188 H174 0.960 . S
C188 H175 0.960 . S
C188 C187 1.524 . S
C189 C186 1.403 . S
C189 C190 1.392 . S
C189 C193 1.495 . S
C190 C189 1.392 . S
C190 C191 1.385 . S
C190 C192 1.478 . S
C191 H185 0.930 . S
C191 C187 1.400 . S
C191 C190 1.385 . S
C192 C190 1.478 . S
C192 C194 1.381 . S
C192 C198 1.383 . S
C193 C189 1.495 . S
C193 H199 0.959 . S
C193 H200 0.961 . S
C193 H201 0.960 . S
C194 C192 1.381 . S
C194 C195 1.394 . S
C194 H202 0.930 . S
C195 C194 1.394 . S
C195 C196 1.383 . S
C195 H203 0.929 . S
C196 C195 1.383 . S
C196 C197 1.377 . S
C197 H181 0.930 . S
C197 C196 1.377 . S
C197 C198 1.379 . S
C198 H182 0.931 . S
C198 C192 1.383 . S
C198 C197 1.379 . S
H199 C193 0.959 . S
H200 C193 0.961 . S
H201 C193 0.960 . S
H202 C194 0.930 . S
H203 C195 0.929 . S
H204 C212 0.929 . S
H205 C214 0.930 . S
H206 C216 0.930 . S
H207 C219 0.929 . S
H208 C222 0.930 . S
H209 C224 0.960 . S
H210 C224 0.960 . S
H211 C224 0.960 . S
C212 H204 0.929 . S
C212 C213 1.377 . S
C212 C214 1.384 . S
C213 C212 1.377 . S
C213 C219 1.390 . S
C214 H205 0.930 . S
C214 C212 1.384 . S
C214 C215 1.372 . S
C215 C214 1.372 . S
C215 C216 1.400 . S
C215 C220 1.490 . S
C216 H206 0.930 . S
C216 C215 1.400 . S
C216 C219 1.386 . S
H217 C233 0.930 . S
H218 C234 0.931 . S
C219 H207 0.929 . S
C219 C213 1.390 . S
C219 C216 1.386 . S
C220 C215 1.490 . S
C220 C222 1.395 . S
C220 C223 1.403 . S
H221 C227 0.930 . S
C222 H208 0.930 . S
C222 C220 1.395 . S
C222 C225 1.403 . S
C223 C220 1.403 . S
C223 C224 1.524 . S
C223 C227 1.400 . S
C224 H209 0.960 . S
C224 H210 0.960 . S
C224 H211 0.960 . S
C224 C223 1.524 . S
C225 C222 1.403 . S
C225 C226 1.392 . S
C225 C229 1.495 . S
C226 C225 1.392 . S
C226 C227 1.385 . S
C226 C228 1.478 . S
C227 H221 0.930 . S
C227 C223 1.400 . S
C227 C226 1.385 . S
C228 C226 1.478 . S
C228 C230 1.381 . S
C228 C234 1.383 . S
C229 C225 1.495 . S
C229 H235 0.959 . S
C229 H236 0.961 . S
C229 H237 0.960 . S
C230 C228 1.381 . S
C230 C231 1.394 . S
C230 H238 0.930 . S
C231 C230 1.394 . S
C231 C232 1.383 . S
C231 H239 0.929 . S
C232 C231 1.383 . S
C232 C233 1.377 . S
C233 H217 0.930 . S
C233 C232 1.377 . S
C233 C234 1.379 . S
C234 H218 0.931 . S
C234 C228 1.383 . S
C234 C233 1.379 . S
H235 C229 0.959 . S
H236 C229 0.961 . S
H237 C229 0.960 . S
H238 C230 0.930 . S
H239 C231 0.929 . S
H240 C248 0.929 . S
H241 C250 0.930 . S
H242 C252 0.930 . S
H243 C255 0.929 . S
H244 C258 0.930 . S
H245 C260 0.960 . S
H246 C260 0.960 . S
H247 C260 0.960 . S
C248 H240 0.929 . S
C248 C249 1.377 . S
C248 C250 1.384 . S
C249 C248 1.377 . S
C249 C255 1.390 . S
C250 H241 0.930 . S
C250 C248 1.384 . S
C250 C251 1.372 . S
C251 C250 1.372 . S
C251 C252 1.400 . S
C251 C256 1.490 . S
C252 H242 0.930 . S
C252 C251 1.400 . S
C252 C255 1.386 . S
H253 C269 0.930 . S
H254 C270 0.931 . S
C255 H243 0.929 . S
C255 C249 1.390 . S
C255 C252 1.386 . S
C256 C251 1.490 . S
C256 C258 1.395 . S
C256 C259 1.403 . S
H257 C263 0.930 . S
C258 H244 0.930 . S
C258 C256 1.395 . S
C258 C261 1.403 . S
C259 C256 1.403 . S
C259 C260 1.524 . S
C259 C263 1.400 . S
C260 H245 0.960 . S
C260 H246 0.960 . S
C260 H247 0.960 . S
C260 C259 1.524 . S
C261 C258 1.403 . S
C261 C262 1.392 . S
C261 C265 1.495 . S
C262 C261 1.392 . S
C262 C263 1.385 . S
C262 C264 1.478 . S
C263 H257 0.930 . S
C263 C259 1.400 . S
C263 C262 1.385 . S
C264 C262 1.478 . S
C264 C266 1.381 . S
C264 C270 1.383 . S
C265 C261 1.495 . S
C265 H271 0.959 . S
C265 H272 0.961 . S
C265 H273 0.960 . S
C266 C264 1.381 . S
C266 C267 1.394 . S
C266 H274 0.930 . S
C267 C266 1.394 . S
C267 C268 1.383 . S
C267 H275 0.929 . S
C268 C267 1.383 . S
C268 C269 1.377 . S
C269 H253 0.930 . S
C269 C268 1.377 . S
C269 C270 1.379 . S
C270 H254 0.931 . S
C270 C264 1.383 . S
C270 C269 1.379 . S
H271 C265 0.959 . S
H272 C265 0.961 . S
H273 C265 0.960 . S
H274 C266 0.930 . S
H275 C267 0.929 . S
H276 C284 0.929 . S
H277 C286 0.930 . S
H278 C288 0.930 . S
H279 C291 0.929 . S
H280 C294 0.930 . S
H281 C296 0.960 . S
H282 C296 0.960 . S
H283 C296 0.960 . S
C284 H276 0.929 . S
C284 C285 1.377 . S
C284 C286 1.384 . S
C285 C284 1.377 . S
C285 C291 1.390 . S
C286 H277 0.930 . S
C286 C284 1.384 . S
C286 C287 1.372 . S
C287 C286 1.372 . S
C287 C288 1.400 . S
C287 C292 1.490 . S
C288 H278 0.930 . S
C288 C287 1.400 . S
C288 C291 1.386 . S
H289 C305 0.930 . S
H290 C306 0.931 . S
C291 H279 0.929 . S
C291 C285 1.390 . S
C291 C288 1.386 . S
C292 C287 1.490 . S
C292 C294 1.395 . S
C292 C295 1.403 . S
H293 C299 0.930 . S
C294 H280 0.930 . S
C294 C292 1.395 . S
C294 C297 1.403 . S
C295 C292 1.403 . S
C295 C296 1.524 . S
C295 C299 1.400 . S
C296 H281 0.960 . S
C296 H282 0.960 . S
C296 H283 0.960 . S
C296 C295 1.524 . S
C297 C294 1.403 . S
C297 C298 1.392 . S
C297 C301 1.495 . S
C298 C297 1.392 . S
C298 C299 1.385 . S
C298 C300 1.478 . S
C299 H293 0.930 . S
C299 C295 1.400 . S
C299 C298 1.385 . S
C300 C298 1.478 . S
C300 C302 1.381 . S
C300 C306 1.383 . S
C301 C297 1.495 . S
C301 H307 0.959 . S
C301 H308 0.961 . S
C301 H309 0.960 . S
C302 C300 1.381 . S
C302 C303 1.394 . S
C302 H310 0.930 . S
C303 C302 1.394 . S
C303 C304 1.383 . S
C303 H311 0.929 . S
C304 C303 1.383 . S
C304 C305 1.377 . S
C305 H289 0.930 . S
C305 C304 1.377 . S
C305 C306 1.379 . S
C306 H290 0.931 . S
C306 C300 1.383 . S
C306 C305 1.379 . S
H307 C301 0.959 . S
H308 C301 0.961 . S
H309 C301 0.960 . S
H310 C302 0.930 . S
H311 C303 0.929 . S
H312 C320 0.929 . S
H313 C322 0.930 . S
H314 C324 0.930 . S
H315 C327 0.929 . S
H316 C330 0.930 . S
H317 C332 0.960 . S
H318 C332 0.960 . S
H319 C332 0.960 . S
C320 H312 0.929 . S
C320 C321 1.377 . S
C320 C322 1.384 . S
C321 C320 1.377 . S
C321 C327 1.390 . S
C322 H313 0.930 . S
C322 C320 1.384 . S
C322 C323 1.372 . S
C323 C322 1.372 . S
C323 C324 1.400 . S
C323 C328 1.490 . S
C324 H314 0.930 . S
C324 C323 1.400 . S
C324 C327 1.386 . S
H325 C341 0.930 . S
H326 C342 0.931 . S
C327 H315 0.929 . S
C327 C321 1.390 . S
C327 C324 1.386 . S
C328 C323 1.490 . S
C328 C330 1.395 . S
C328 C331 1.403 . S
H329 C335 0.930 . S
C330 H316 0.930 . S
C330 C328 1.395 . S
C330 C333 1.403 . S
C331 C328 1.403 . S
C331 C332 1.524 . S
C331 C335 1.400 . S
C332 H317 0.960 . S
C332 H318 0.960 . S
C332 H319 0.960 . S
C332 C331 1.524 . S
C333 C330 1.403 . S
C333 C334 1.392 . S
C333 C337 1.495 . S
C334 C333 1.392 . S
C334 C335 1.385 . S
C334 C336 1.478 . S
C335 H329 0.930 . S
C335 C331 1.400 . S
C335 C334 1.385 . S
C336 C334 1.478 . S
C336 C338 1.381 . S
C336 C342 1.383 . S
C337 C333 1.495 . S
C337 H343 0.959 . S
C337 H344 0.961 . S
C337 H345 0.960 . S
C338 C336 1.381 . S
C338 C339 1.394 . S
C338 H346 0.930 . S
C339 C338 1.394 . S
C339 C340 1.383 . S
C339 H347 0.929 . S
C340 C339 1.383 . S
C340 C341 1.377 . S
C341 H325 0.930 . S
C341 C340 1.377 . S
C341 C342 1.379 . S
C342 H326 0.931 . S
C342 C336 1.383 . S
C342 C341 1.379 . S
H343 C337 0.959 . S
H344 C337 0.961 . S
H345 C337 0.960 . S
H346 C338 0.930 . S
H347 C339 0.929 . S
H348 C356 0.929 . S
H349 C358 0.930 . S
H350 C360 0.930 . S
H351 C363 0.929 . S
H352 C366 0.930 . S
H353 C368 0.960 . S
H354 C368 0.960 . S
H355 C368 0.960 . S
C356 H348 0.929 . S
C356 C357 1.377 . S
C356 C358 1.384 . S
C357 C356 1.377 . S
C357 C363 1.390 . S
C358 H349 0.930 . S
C358 C356 1.384 . S
C358 C359 1.372 . S
C359 C358 1.372 . S
C359 C360 1.400 . S
C359 C364 1.490 . S
C360 H350 0.930 . S
C360 C359 1.400 . S
C360 C363 1.386 . S
H361 C377 0.930 . S
H362 C378 0.931 . S
C363 H351 0.929 . S
C363 C357 1.390 . S
C363 C360 1.386 . S
C364 C359 1.490 . S
C364 C366 1.395 . S
C364 C367 1.403 . S
H365 C371 0.930 . S
C366 H352 0.930 . S
C366 C364 1.395 . S
C366 C369 1.403 . S
C367 C364 1.403 . S
C367 C368 1.524 . S
C367 C371 1.400 . S
C368 H353 0.960 . S
C368 H354 0.960 . S
C368 H355 0.960 . S
C368 C367 1.524 . S
C369 C366 1.403 . S
C369 C370 1.392 . S
C369 C373 1.495 . S
C370 C369 1.392 . S
C370 C371 1.385 . S
C370 C372 1.478 . S
C371 H365 0.930 . S
C371 C367 1.400 . S
C371 C370 1.385 . S
C372 C370 1.478 . S
C372 C374 1.381 . S
C372 C378 1.383 . S
C373 C369 1.495 . S
C373 H379 0.959 . S
C373 H380 0.961 . S
C373 H381 0.960 . S
C374 C372 1.381 . S
C374 C375 1.394 . S
C374 H382 0.930 . S
C375 C374 1.394 . S
C375 C376 1.383 . S
C375 H383 0.929 . S
C376 C375 1.383 . S
C376 C377 1.377 . S
C377 H361 0.930 . S
C377 C376 1.377 . S
C377 C378 1.379 . S
C378 H362 0.931 . S
C378 C372 1.383 . S
C378 C377 1.379 . S
H379 C373 0.959 . S
H380 C373 0.961 . S
H381 C373 0.960 . S
H382 C374 0.930 . S
H383 C375 0.929 . S
H384 C392 0.929 . S
H385 C394 0.930 . S
H386 C396 0.930 . S
H387 C399 0.929 . S
H388 C402 0.930 . S
H389 C404 0.960 . S
H390 C404 0.960 1_545 S
H391 C404 0.960 1_545 S
C392 H384 0.929 . S
C392 C393 1.377 . S
C392 C394 1.384 . S
C393 C392 1.377 . S
C393 C399 1.390 . S
C394 H385 0.930 . S
C394 C392 1.384 . S
C394 C395 1.372 . S
C395 C394 1.372 . S
C395 C396 1.400 . S
C395 C400 1.490 . S
C396 H386 0.930 . S
C396 C395 1.400 . S
C396 C399 1.386 . S
H397 C413 0.930 . S
H398 C414 0.931 . S
C399 H387 0.929 . S
C399 C393 1.390 . S
C399 C396 1.386 . S
C400 C395 1.490 . S
C400 C402 1.395 1_554 S
C400 C403 1.400 1_545 S
H401 C407 0.930 . S
C402 H388 0.930 . S
C402 C400 1.395 1_556 S
C402 C405 1.413 . S
C403 C400 1.400 1_565 S
C403 C404 1.523 . S
C403 C407 1.403 . S
C404 H389 0.960 . S
C404 H390 0.960 1_565 S
C404 H391 0.960 1_565 S
C404 C403 1.523 . S
C405 C402 1.413 . S
C405 C406 1.384 1_545 S
C405 C409 1.494 . S
C406 C405 1.384 1_565 S
C406 C407 1.385 1_556 S
C406 C408 1.478 . S
C407 H401 0.930 . S
C407 C403 1.403 . S
C407 C406 1.385 1_554 S
C408 C406 1.478 . S
C408 C410 1.381 . S
C408 C414 1.383 . S
C409 C405 1.494 . S
C409 H415 0.959 . S
C409 H416 0.961 1_545 S
C409 H417 0.972 1_545 S
C410 C408 1.381 . S
C410 C411 1.394 . S
C410 H418 0.930 . S
C411 C410 1.394 . S
C411 C412 1.383 . S
C411 H419 0.929 . S
C412 C411 1.383 . S
C412 C413 1.377 . S
C413 H397 0.930 . S
C413 C412 1.377 . S
C413 C414 1.379 . S
C414 H398 0.931 . S
C414 C408 1.383 . S
C414 C413 1.379 . S
H415 C409 0.959 . S
H416 C409 0.961 1_565 S
H417 C409 0.972 1_565 S
H418 C410 0.930 . S
H419 C411 0.929 . S
H420 C428 0.929 . S
H421 C430 0.930 . S
H422 C432 0.930 . S
H423 C435 0.929 . S
H424 C438 0.930 . S
H425 C440 0.960 . S
H426 C440 0.960 . S
H427 C440 0.960 . S
C428 H420 0.929 . S
C428 C429 1.377 . S
C428 C430 1.384 . S
C429 C428 1.377 . S
C429 C435 1.390 . S
C430 H421 0.930 . S
C430 C428 1.384 . S
C430 C431 1.372 . S
C431 C430 1.372 . S
C431 C432 1.400 . S
C431 C436 1.490 . S
C432 H422 0.930 . S
C432 C431 1.400 . S
C432 C435 1.386 . S
H433 C449 0.930 . S
H434 C450 0.931 . S
C435 H423 0.929 . S
C435 C429 1.390 . S
C435 C432 1.386 . S
C436 C431 1.490 . S
C436 C438 1.395 . S
C436 C439 1.403 . S
H437 C443 0.930 . S
C438 H424 0.930 . S
C438 C436 1.395 . S
C438 C441 1.403 . S
C439 C436 1.403 . S
C439 C440 1.524 . S
C439 C443 1.400 . S
C440 H425 0.960 . S
C440 H426 0.960 . S
C440 H427 0.960 . S
C440 C439 1.524 . S
C441 C438 1.403 . S
C441 C442 1.392 . S
C441 C445 1.495 . S
C442 C441 1.392 . S
C442 C443 1.385 . S
C442 C444 1.478 . S
C443 H437 0.930 . S
C443 C439 1.400 . S
C443 C442 1.385 . S
C444 C442 1.478 . S
C444 C446 1.381 . S
C444 C450 1.383 . S
C445 C441 1.495 . S
C445 H451 0.959 . S
C445 H452 0.961 . S
C445 H453 0.960 . S
C446 C444 1.381 . S
C446 C447 1.394 . S
C446 H454 0.930 . S
C447 C446 1.394 . S
C447 C448 1.383 . S
C447 H455 0.929 . S
C448 C447 1.383 . S
C448 C449 1.377 . S
C449 H433 0.930 . S
C449 C448 1.377 . S
C449 C450 1.379 . S
C450 H434 0.931 . S
C450 C444 1.383 . S
C450 C449 1.379 . S
H451 C445 0.959 . S
H452 C445 0.961 . S
H453 C445 0.960 . S
H454 C446 0.930 . S
H455 C447 0.929 . S
H456 C464 0.929 . S
H457 C466 0.930 . S
H458 C468 0.930 . S
H459 C471 0.929 . S
H460 C474 0.930 . S
H461 C476 0.960 . S
H462 C476 0.960 . S
H463 C476 0.960 . S
C464 H456 0.929 . S
C464 C465 1.377 . S
C464 C466 1.384 . S
C465 C464 1.377 . S
C465 C471 1.390 . S
C466 H457 0.930 . S
C466 C464 1.384 . S
C466 C467 1.372 . S
C467 C466 1.372 . S
C467 C468 1.400 . S
C467 C472 1.490 . S
C468 H458 0.930 . S
C468 C467 1.400 . S
C468 C471 1.386 . S
H469 C485 0.930 . S
H470 C486 0.931 . S
C471 H459 0.929 . S
C471 C465 1.390 . S
C471 C468 1.386 . S
C472 C467 1.490 . S
C472 C474 1.395 1_455 S
C472 C475 1.403 1_556 S
H473 C479 0.930 . S
C474 H460 0.930 . S
C474 C472 1.395 1_655 S
C474 C477 1.403 . S
C475 C472 1.403 1_554 S
C475 C476 1.524 . S
C475 C479 1.400 1_455 S
C476 H461 0.960 . S
C476 H462 0.960 . S
C476 H463 0.960 . S
C476 C475 1.524 . S
C477 C474 1.403 . S
C477 C478 1.392 1_556 S
C477 C481 1.495 . S
C478 C477 1.392 1_554 S
C478 C479 1.385 . S
C478 C480 1.478 . S
C479 H473 0.930 . S
C479 C475 1.400 1_655 S
C479 C478 1.385 . S
C480 C478 1.478 . S
C480 C482 1.381 . S
C480 C486 1.383 . S
C481 C477 1.495 . S
C481 H487 0.959 . S
C481 H488 0.961 . S
C481 H489 0.960 . S
C482 C480 1.381 . S
C482 C483 1.394 . S
C482 H490 0.930 . S
C483 C482 1.394 . S
C483 C484 1.383 . S
C483 H491 0.929 . S
C484 C483 1.383 . S
C484 C485 1.377 . S
C485 H469 0.930 . S
C485 C484 1.377 . S
C485 C486 1.379 . S
C486 H470 0.931 . S
C486 C480 1.383 . S
C486 C485 1.379 . S
H487 C481 0.959 . S
H488 C481 0.961 . S
H489 C481 0.960 . S
H490 C482 0.930 . S
H491 C483 0.929 . S
H492 C500 0.929 . S
H493 C502 0.930 . S
H494 C504 0.930 . S
H495 C507 0.929 . S
H496 C510 0.930 . S
H497 C512 0.960 . S
H498 C512 0.960 . S
H499 C512 0.960 . S
C500 H492 0.929 . S
C500 C501 1.377 . S
C500 C502 1.384 . S
C501 C500 1.377 . S
C501 C507 1.390 . S
C502 H493 0.930 . S
C502 C500 1.384 . S
C502 C503 1.372 . S
C503 C502 1.372 . S
C503 C504 1.400 . S
C503 C508 1.490 . S
C504 H494 0.930 . S
C504 C503 1.400 . S
C504 C507 1.386 . S
H505 C521 0.930 . S
H506 C522 0.931 . S
C507 H495 0.929 . S
C507 C501 1.390 . S
C507 C504 1.386 . S
C508 C503 1.490 . S
C508 C510 1.395 . S
C508 C511 1.403 . S
H509 C515 0.930 . S
C510 H496 0.930 . S
C510 C508 1.395 . S
C510 C513 1.403 1_545 S
C511 C508 1.403 . S
C511 C512 1.524 . S
C511 C515 1.400 1_545 S
C512 H497 0.960 . S
C512 H498 0.960 . S
C512 H499 0.960 . S
C512 C511 1.524 . S
C513 C510 1.403 1_565 S
C513 C514 1.392 . S
C513 C517 1.495 . S
C514 C513 1.392 . S
C514 C515 1.385 . S
C514 C516 1.478 . S
C515 H509 0.930 . S
C515 C511 1.400 1_565 S
C515 C514 1.385 . S
C516 C514 1.478 . S
C516 C518 1.381 . S
C516 C522 1.383 . S
C517 C513 1.495 . S
C517 H523 0.959 . S
C517 H524 0.961 . S
C517 H525 0.960 . S
C518 C516 1.381 . S
C518 C519 1.394 . S
C518 H526 0.930 . S
C519 C518 1.394 . S
C519 C520 1.383 . S
C519 H527 0.929 . S
C520 C519 1.383 . S
C520 C521 1.377 . S
C521 H505 0.930 . S
C521 C520 1.377 . S
C521 C522 1.379 . S
C522 H506 0.931 . S
C522 C516 1.383 . S
C522 C521 1.379 . S
H523 C517 0.959 . S
H524 C517 0.961 . S
H525 C517 0.960 . S
H526 C518 0.930 . S
H527 C519 0.929 . S
H528 C536 0.929 . S
H529 C538 0.930 . S
H530 C540 0.930 . S
H531 C543 0.929 . S
H532 C546 0.930 . S
H533 C548 0.960 . S
H534 C548 0.960 . S
H535 C548 0.960 . S
C536 H528 0.929 . S
C536 C537 1.377 . S
C536 C538 1.384 . S
C537 C536 1.377 . S
C537 C543 1.390 . S
C538 H529 0.930 . S
C538 C536 1.384 . S
C538 C539 1.372 . S
C539 C538 1.372 . S
C539 C540 1.400 . S
C539 C544 1.490 . S
C540 H530 0.930 . S
C540 C539 1.400 . S
C540 C543 1.386 . S
H541 C557 0.930 . S
H542 C558 0.931 . S
C543 H531 0.929 . S
C543 C537 1.390 . S
C543 C540 1.386 . S
C544 C539 1.490 . S
C544 C546 1.395 1_556 S
C544 C547 1.403 . S
H545 C551 0.930 . S
C546 H532 0.930 . S
C546 C544 1.395 1_554 S
C546 C549 1.403 . S
C547 C544 1.403 . S
C547 C548 1.524 . S
C547 C551 1.400 . S
C548 H533 0.960 . S
C548 H534 0.960 . S
C548 H535 0.960 . S
C548 C547 1.524 . S
C549 C546 1.403 . S
C549 C550 1.392 . S
C549 C553 1.495 . S
C550 C549 1.392 . S
C550 C551 1.385 1_554 S
C550 C552 1.478 . S
C551 H545 0.930 . S
C551 C547 1.400 . S
C551 C550 1.385 1_556 S
C552 C550 1.478 . S
C552 C554 1.381 . S
C552 C558 1.383 . S
C553 C549 1.495 . S
C553 H559 0.959 . S
C553 H560 0.961 . S
C553 H561 0.960 . S
C554 C552 1.381 . S
C554 C555 1.394 . S
C554 H562 0.930 . S
C555 C554 1.394 . S
C555 C556 1.383 . S
C555 H563 0.929 . S
C556 C555 1.383 . S
C556 C557 1.377 . S
C557 H541 0.930 . S
C557 C556 1.377 . S
C557 C558 1.379 . S
C558 H542 0.931 . S
C558 C552 1.383 . S
C558 C557 1.379 . S
H559 C553 0.959 . S
H560 C553 0.961 . S
H561 C553 0.960 . S
H562 C554 0.930 . S
H563 C555 0.929 . S
H564 C572 0.929 . S
H565 C574 0.930 . S
H566 C576 0.930 . S
H567 C579 0.929 . S
H568 C582 0.930 . S
H569 C584 0.960 1_455 S
H570 C584 0.960 . S
H571 C584 0.960 . S
C572 H564 0.929 . S
C572 C573 1.377 . S
C572 C574 1.384 . S
C573 C572 1.377 . S
C573 C579 1.390 . S
C574 H565 0.930 . S
C574 C572 1.384 . S
C574 C575 1.372 . S
C575 C574 1.372 . S
C575 C576 1.400 . S
C575 C580 1.490 . S
C576 H566 0.930 . S
C576 C575 1.400 . S
C576 C579 1.386 . S
H577 C593 0.930 . S
H578 C594 0.931 . S
C579 H567 0.929 . S
C579 C573 1.390 . S
C579 C576 1.386 . S
C580 C575 1.490 . S
C580 C582 1.395 . S
C580 C583 1.403 . S
H581 C587 0.930 . S
C582 H568 0.930 . S
C582 C580 1.395 . S
C582 C585 1.403 1_655 S
C583 C580 1.403 . S
C583 C584 1.524 . S
C583 C587 1.400 1_655 S
C584 H569 0.960 1_655 S
C584 H570 0.960 . S
C584 H571 0.960 . S
C584 C583 1.524 . S
C585 C582 1.403 1_455 S
C585 C586 1.392 . S
C585 C589 1.495 . S
C586 C585 1.392 . S
C586 C587 1.385 . S
C586 C588 1.478 . S
C587 H581 0.930 . S
C587 C583 1.400 1_455 S
C587 C586 1.385 . S
C588 C586 1.478 . S
C588 C590 1.381 . S
C588 C594 1.383 . S
C589 C585 1.495 . S
C589 H595 0.959 1_455 S
C589 H596 0.961 . S
C589 H597 0.960 . S
C590 C588 1.381 . S
C590 C591 1.394 . S
C590 H598 0.930 . S
C591 C590 1.394 . S
C591 C592 1.383 . S
C591 H599 0.929 . S
C592 C591 1.383 . S
C592 C593 1.377 . S
C593 H577 0.930 . S
C593 C592 1.377 . S
C593 C594 1.379 . S
C594 H578 0.931 . S
C594 C588 1.383 . S
C594 C593 1.379 . S
H595 C589 0.959 1_655 S
H596 C589 0.961 . S
H597 C589 0.960 . S
H598 C590 0.930 . S
H599 C591 0.929 . S
H600 C608 0.929 . S
H601 C610 0.930 . S
H602 C612 0.930 . S
H603 C615 0.929 . S
H604 C618 0.930 . S
H605 C620 0.960 . S
H606 C620 0.960 . S
H607 C620 0.960 . S
C608 H600 0.929 . S
C608 C609 1.377 . S
C608 C610 1.384 . S
C609 C608 1.377 . S
C609 C615 1.390 . S
C610 H601 0.930 . S
C610 C608 1.384 . S
C610 C611 1.372 . S
C611 C610 1.372 . S
C611 C612 1.400 . S
C611 C616 1.490 . S
C612 H602 0.930 . S
C612 C611 1.400 . S
C612 C615 1.386 . S
H613 C629 0.930 . S
H614 C630 0.931 . S
C615 H603 0.929 . S
C615 C609 1.390 . S
C615 C612 1.386 . S
C616 C611 1.490 . S
C616 C618 1.395 . S
C616 C619 1.403 . S
H617 C623 0.930 . S
C618 H604 0.930 . S
C618 C616 1.395 . S
C618 C621 1.403 . S
C619 C616 1.403 . S
C619 C620 1.524 . S
C619 C623 1.400 . S
C620 H605 0.960 . S
C620 H606 0.960 . S
C620 H607 0.960 . S
C620 C619 1.524 . S
C621 C618 1.403 . S
C621 C622 1.392 . S
C621 C625 1.495 . S
C622 C621 1.392 . S
C622 C623 1.385 . S
C622 C624 1.478 . S
C623 H617 0.930 . S
C623 C619 1.400 . S
C623 C622 1.385 . S
C624 C622 1.478 . S
C624 C626 1.381 . S
C624 C630 1.383 . S
C625 C621 1.495 . S
C625 H631 0.959 . S
C625 H632 0.961 . S
C625 H633 0.960 . S
C626 C624 1.381 . S
C626 C627 1.394 . S
C626 H634 0.930 . S
C627 C626 1.394 . S
C627 C628 1.383 . S
C627 H635 0.929 . S
C628 C627 1.383 . S
C628 C629 1.377 . S
C629 H613 0.930 . S
C629 C628 1.377 . S
C629 C630 1.379 . S
C630 H614 0.931 . S
C630 C624 1.383 . S
C630 C629 1.379 . S
H631 C625 0.959 . S
H632 C625 0.961 . S
H633 C625 0.960 . S
H634 C626 0.930 . S
H635 C627 0.929 . S
H636 C644 0.929 . S
H637 C646 0.930 . S
H638 C648 0.930 . S
H639 C651 0.929 . S
H640 C654 0.930 . S
H641 C656 0.960 . S
H642 C656 0.960 . S
H643 C656 0.960 . S
C644 H636 0.929 . S
C644 C645 1.377 . S
C644 C646 1.384 . S
C645 C644 1.377 . S
C645 C651 1.390 . S
C646 H637 0.930 . S
C646 C644 1.384 . S
C646 C647 1.372 . S
C647 C646 1.372 . S
C647 C648 1.400 . S
C647 C652 1.490 . S
C648 H638 0.930 . S
C648 C647 1.400 . S
C648 C651 1.386 . S
H649 C665 0.930 . S
H650 C666 0.931 . S
C651 H639 0.929 . S
C651 C645 1.390 . S
C651 C648 1.386 . S
C652 C647 1.490 . S
C652 C654 1.395 . S
C652 C655 1.403 . S
H653 C659 0.930 . S
C654 H640 0.930 . S
C654 C652 1.395 . S
C654 C657 1.403 . S
C655 C652 1.403 . S
C655 C656 1.524 . S
C655 C659 1.400 . S
C656 H641 0.960 . S
C656 H642 0.960 . S
C656 H643 0.960 . S
C656 C655 1.524 . S
C657 C654 1.403 . S
C657 C658 1.392 . S
C657 C661 1.495 . S
C658 C657 1.392 . S
C658 C659 1.385 . S
C658 C660 1.478 . S
C659 H653 0.930 . S
C659 C655 1.400 . S
C659 C658 1.385 . S
C660 C658 1.478 . S
C660 C662 1.381 . S
C660 C666 1.383 . S
C661 C657 1.495 . S
C661 H667 0.959 . S
C661 H668 0.961 . S
C661 H669 0.960 . S
C662 C660 1.381 . S
C662 C663 1.394 . S
C662 H670 0.930 . S
C663 C662 1.394 . S
C663 C664 1.383 . S
C663 H671 0.929 . S
C664 C663 1.383 . S
C664 C665 1.377 . S
C665 H649 0.930 . S
C665 C664 1.377 . S
C665 C666 1.379 . S
C666 H650 0.931 . S
C666 C660 1.383 . S
C666 C665 1.379 . S
H667 C661 0.959 . S
H668 C661 0.961 . S
H669 C661 0.960 . S
H670 C662 0.930 . S
H671 C663 0.929 . S
H672 C680 0.929 . S
H673 C682 0.930 . S
H674 C684 0.930 . S
H675 C687 0.929 . S
H676 C690 0.930 . S
H677 C692 0.960 . S
H678 C692 0.960 . S
H679 C692 0.960 . S
C680 H672 0.929 . S
C680 C681 1.377 . S
C680 C682 1.384 . S
C681 C680 1.377 . S
C681 C687 1.390 . S
C682 H673 0.930 . S
C682 C680 1.384 . S
C682 C683 1.372 . S
C683 C682 1.372 . S
C683 C684 1.400 . S
C683 C688 1.490 . S
C684 H674 0.930 . S
C684 C683 1.400 . S
C684 C687 1.386 . S
H685 C701 0.930 . S
H686 C702 0.931 . S
C687 H675 0.929 . S
C687 C681 1.390 . S
C687 C684 1.386 . S
C688 C683 1.490 . S
C688 C690 1.395 . S
C688 C691 1.403 . S
H689 C695 0.930 . S
C690 H676 0.930 . S
C690 C688 1.395 . S
C690 C693 1.403 . S
C691 C688 1.403 . S
C691 C692 1.524 . S
C691 C695 1.400 . S
C692 H677 0.960 . S
C692 H678 0.960 . S
C692 H679 0.960 . S
C692 C691 1.524 . S
C693 C690 1.403 . S
C693 C694 1.392 . S
C693 C697 1.495 . S
C694 C693 1.392 . S
C694 C695 1.385 . S
C694 C696 1.478 . S
C695 H689 0.930 . S
C695 C691 1.400 . S
C695 C694 1.385 . S
C696 C694 1.478 . S
C696 C698 1.381 . S
C696 C702 1.383 . S
C697 C693 1.495 . S
C697 H703 0.959 . S
C697 H704 0.961 . S
C697 H705 0.960 . S
C698 C696 1.381 . S
C698 C699 1.394 . S
C698 H706 0.930 . S
C699 C698 1.394 . S
C699 C700 1.383 . S
C699 H707 0.929 . S
C700 C699 1.383 . S
C700 C701 1.377 . S
C701 H685 0.930 . S
C701 C700 1.377 . S
C701 C702 1.379 . S
C702 H686 0.931 . S
C702 C696 1.383 . S
C702 C701 1.379 . S
H703 C697 0.959 . S
H704 C697 0.961 . S
H705 C697 0.960 . S
H706 C698 0.930 . S
H707 C699 0.929 . S
H708 C716 0.929 . S
H709 C718 0.930 . S
H710 C720 0.930 . S
H711 C723 0.929 . S
H712 C726 0.930 . S
H713 C728 0.960 . S
H714 C728 0.960 . S
H715 C728 0.960 . S
C716 H708 0.929 . S
C716 C717 1.377 . S
C716 C718 1.384 . S
C717 C716 1.377 . S
C717 C723 1.390 . S
C718 H709 0.930 . S
C718 C716 1.384 . S
C718 C719 1.372 . S
C719 C718 1.372 . S
C719 C720 1.400 . S
C719 C724 1.490 . S
C720 H710 0.930 . S
C720 C719 1.400 . S
C720 C723 1.386 . S
H721 C737 0.930 . S
H722 C738 0.931 . S
C723 H711 0.929 . S
C723 C717 1.390 . S
C723 C720 1.386 . S
C724 C719 1.490 . S
C724 C726 1.395 . S
C724 C727 1.403 . S
H725 C731 0.930 . S
C726 H712 0.930 . S
C726 C724 1.395 . S
C726 C729 1.403 . S
C727 C724 1.403 . S
C727 C728 1.524 . S
C727 C731 1.400 . S
C728 H713 0.960 . S
C728 H714 0.960 . S
C728 H715 0.960 . S
C728 C727 1.524 . S
C729 C726 1.403 . S
C729 C730 1.392 . S
C729 C733 1.495 . S
C730 C729 1.392 . S
C730 C731 1.385 . S
C730 C732 1.478 . S
C731 H725 0.930 . S
C731 C727 1.400 . S
C731 C730 1.385 . S
C732 C730 1.478 . S
C732 C734 1.381 . S
C732 C738 1.383 . S
C733 C729 1.495 . S
C733 H739 0.959 . S
C733 H740 0.961 . S
C733 H741 0.960 . S
C734 C732 1.381 . S
C734 C735 1.394 . S
C734 H742 0.930 . S
C735 C734 1.394 . S
C735 C736 1.383 . S
C735 H743 0.929 . S
C736 C735 1.383 . S
C736 C737 1.377 . S
C737 H721 0.930 . S
C737 C736 1.377 . S
C737 C738 1.379 . S
C738 H722 0.931 . S
C738 C732 1.383 . S
C738 C737 1.379 . S
H739 C733 0.959 . S
H740 C733 0.961 . S
H741 C733 0.960 . S
H742 C734 0.930 . S
H743 C735 0.929 . S
H744 C752 0.929 . S
H745 C754 0.930 . S
H746 C756 0.930 . S
H747 C759 0.929 . S
H748 C762 0.930 . S
H749 C764 0.960 . S
H750 C764 0.960 . S
H751 C764 0.960 . S
C752 H744 0.929 . S
C752 C753 1.377 . S
C752 C754 1.384 . S
C753 C752 1.377 . S
C753 C759 1.390 . S
C754 H745 0.930 . S
C754 C752 1.384 . S
C754 C755 1.372 . S
C755 C754 1.372 . S
C755 C756 1.400 . S
C755 C760 1.490 . S
C756 H746 0.930 . S
C756 C755 1.400 . S
C756 C759 1.386 . S
H757 C773 0.930 . S
H758 C774 0.931 . S
C759 H747 0.929 . S
C759 C753 1.390 . S
C759 C756 1.386 . S
C760 C755 1.490 . S
C760 C762 1.395 . S
C760 C763 1.403 . S
H761 C767 0.930 . S
C762 H748 0.930 . S
C762 C760 1.395 . S
C762 C765 1.403 . S
C763 C760 1.403 . S
C763 C764 1.524 . S
C763 C767 1.400 . S
C764 H749 0.960 . S
C764 H750 0.960 . S
C764 H751 0.960 . S
C764 C763 1.524 . S
C765 C762 1.403 . S
C765 C766 1.392 . S
C765 C769 1.495 . S
C766 C765 1.392 . S
C766 C767 1.385 . S
C766 C768 1.478 . S
C767 H761 0.930 . S
C767 C763 1.400 . S
C767 C766 1.385 . S
C768 C766 1.478 . S
C768 C770 1.381 . S
C768 C774 1.383 . S
C769 C765 1.495 . S
C769 H775 0.959 . S
C769 H776 0.961 . S
C769 H777 0.960 . S
C770 C768 1.381 . S
C770 C771 1.394 . S
C770 H778 0.930 . S
C771 C770 1.394 . S
C771 C772 1.383 . S
C771 H779 0.929 . S
C772 C771 1.383 . S
C772 C773 1.377 . S
C773 H757 0.930 . S
C773 C772 1.377 . S
C773 C774 1.379 . S
C774 H758 0.931 . S
C774 C768 1.383 . S
C774 C773 1.379 . S
H775 C769 0.959 . S
H776 C769 0.961 . S
H777 C769 0.960 . S
H778 C770 0.930 . S
H779 C771 0.929 . S
H780 C788 0.929 . S
H781 C790 0.930 . S
H782 C792 0.930 . S
H783 C795 0.929 . S
H784 C798 0.930 . S
H785 C800 0.960 . S
H786 C800 0.960 . S
H787 C800 0.960 . S
C788 H780 0.929 . S
C788 C789 1.377 . S
C788 C790 1.384 . S
C789 C788 1.377 . S
C789 C795 1.390 . S
C790 H781 0.930 . S
C790 C788 1.384 . S
C790 C791 1.372 . S
C791 C790 1.372 . S
C791 C792 1.400 . S
C791 C796 1.490 . S
C792 H782 0.930 . S
C792 C791 1.400 . S
C792 C795 1.386 . S
H793 C809 0.930 . S
H794 C810 0.931 . S
C795 H783 0.929 . S
C795 C789 1.390 . S
C795 C792 1.386 . S
C796 C791 1.490 . S
C796 C798 1.395 . S
C796 C799 1.403 . S
H797 C803 0.930 . S
C798 H784 0.930 . S
C798 C796 1.395 . S
C798 C801 1.403 . S
C799 C796 1.403 . S
C799 C800 1.524 . S
C799 C803 1.400 . S
C800 H785 0.960 . S
C800 H786 0.960 . S
C800 H787 0.960 . S
C800 C799 1.524 . S
C801 C798 1.403 . S
C801 C802 1.392 . S
C801 C805 1.495 . S
C802 C801 1.392 . S
C802 C803 1.385 . S
C802 C804 1.478 . S
C803 H797 0.930 . S
C803 C799 1.400 . S
C803 C802 1.385 . S
C804 C802 1.478 . S
C804 C806 1.381 . S
C804 C810 1.383 . S
C805 C801 1.495 . S
C805 H811 0.959 . S
C805 H812 0.961 . S
C805 H813 0.960 . S
C806 C804 1.381 . S
C806 C807 1.394 . S
C806 H814 0.930 . S
C807 C806 1.394 . S
C807 C808 1.383 . S
C807 H815 0.929 . S
C808 C807 1.383 . S
C808 C809 1.377 . S
C809 H793 0.930 . S
C809 C808 1.377 . S
C809 C810 1.379 . S
C810 H794 0.931 . S
C810 C804 1.383 . S
C810 C809 1.379 . S
H811 C805 0.959 . S
H812 C805 0.961 . S
H813 C805 0.960 . S
H814 C806 0.930 . S
H815 C807 0.929 . S
H816 C824 0.929 . S
H817 C826 0.930 . S
H818 C828 0.930 . S
H819 C831 0.929 . S
H820 C834 0.930 . S
H821 C836 0.960 . S
H822 C836 0.960 . S
H823 C836 0.960 . S
C824 H816 0.929 . S
C824 C825 1.377 . S
C824 C826 1.384 . S
C825 C824 1.377 . S
C825 C831 1.390 . S
C826 H817 0.930 . S
C826 C824 1.384 . S
C826 C827 1.372 . S
C827 C826 1.372 . S
C827 C828 1.400 . S
C827 C832 1.490 . S
C828 H818 0.930 . S
C828 C827 1.400 . S
C828 C831 1.386 . S
H829 C845 0.930 . S
H830 C846 0.931 . S
C831 H819 0.929 . S
C831 C825 1.390 . S
C831 C828 1.386 . S
C832 C827 1.490 . S
C832 C834 1.395 . S
C832 C835 1.403 . S
H833 C839 0.930 . S
C834 H820 0.930 . S
C834 C832 1.395 . S
C834 C837 1.403 . S
C835 C832 1.403 . S
C835 C836 1.524 . S
C835 C839 1.400 . S
C836 H821 0.960 . S
C836 H822 0.960 . S
C836 H823 0.960 . S
C836 C835 1.524 . S
C837 C834 1.403 . S
C837 C838 1.392 . S
C837 C841 1.495 . S
C838 C837 1.392 . S
C838 C839 1.385 . S
C838 C840 1.478 . S
C839 H833 0.930 . S
C839 C835 1.400 . S
C839 C838 1.385 . S
C840 C838 1.478 . S
C840 C842 1.381 . S
C840 C846 1.383 . S
C841 C837 1.495 . S
C841 H847 0.959 . S
C841 H848 0.961 . S
C841 H849 0.960 . S
C842 C840 1.381 . S
C842 C843 1.394 . S
C842 H850 0.930 . S
C843 C842 1.394 . S
C843 C844 1.383 . S
C843 H851 0.929 . S
C844 C843 1.383 . S
C844 C845 1.377 . S
C845 H829 0.930 . S
C845 C844 1.377 . S
C845 C846 1.379 . S
C846 H830 0.931 . S
C846 C840 1.383 . S
C846 C845 1.379 . S
H847 C841 0.959 . S
H848 C841 0.961 . S
H849 C841 0.960 . S
H850 C842 0.930 . S
H851 C843 0.929 . S
H852 C860 0.929 . S
H853 C862 0.930 . S
H854 C864 0.930 . S
H855 C867 0.929 . S
H856 C870 0.930 . S
H857 C872 0.960 . S
H858 C872 0.960 . S
H859 C872 0.960 . S
C860 H852 0.929 . S
C860 C861 1.377 . S
C860 C862 1.384 . S
C861 C860 1.377 . S
C861 C867 1.390 . S
C862 H853 0.930 . S
C862 C860 1.384 . S
C862 C863 1.372 . S
C863 C862 1.372 . S
C863 C864 1.400 . S
C863 C868 1.490 . S
C864 H854 0.930 . S
C864 C863 1.400 . S
C864 C867 1.386 . S
H865 C881 0.930 . S
H866 C882 0.931 . S
C867 H855 0.929 . S
C867 C861 1.390 . S
C867 C864 1.386 . S
C868 C863 1.490 . S
C868 C870 1.395 . S
C868 C871 1.403 . S
H869 C875 0.930 . S
C870 H856 0.930 . S
C870 C868 1.395 . S
C870 C873 1.403 . S
C871 C868 1.403 . S
C871 C872 1.524 . S
C871 C875 1.400 . S
C872 H857 0.960 . S
C872 H858 0.960 . S
C872 H859 0.960 . S
C872 C871 1.524 . S
C873 C870 1.403 . S
C873 C874 1.392 . S
C873 C877 1.495 . S
C874 C873 1.392 . S
C874 C875 1.385 . S
C874 C876 1.478 . S
C875 H869 0.930 . S
C875 C871 1.400 . S
C875 C874 1.385 . S
C876 C874 1.478 . S
C876 C878 1.381 . S
C876 C882 1.383 . S
C877 C873 1.495 . S
C877 H883 0.959 . S
C877 H884 0.961 . S
C877 H885 0.960 . S
C878 C876 1.381 . S
C878 C879 1.394 . S
C878 H886 0.930 . S
C879 C878 1.394 . S
C879 C880 1.383 . S
C879 H887 0.929 . S
C880 C879 1.383 . S
C880 C881 1.377 . S
C881 H865 0.930 . S
C881 C880 1.377 . S
C881 C882 1.379 . S
C882 H866 0.931 . S
C882 C876 1.383 . S
C882 C881 1.379 . S
H883 C877 0.959 . S
H884 C877 0.961 . S
H885 C877 0.960 . S
H886 C878 0.930 . S
H887 C879 0.929 . S
H888 C896 0.929 . S
H889 C898 0.930 . S
H890 C900 0.930 . S
H891 C903 0.929 . S
H892 C906 0.930 . S
H893 C908 0.960 . S
H894 C908 0.960 . S
H895 C908 0.960 . S
C896 H888 0.929 . S
C896 C897 1.377 . S
C896 C898 1.384 . S
C897 C896 1.377 . S
C897 C903 1.390 . S
C898 H889 0.930 . S
C898 C896 1.384 . S
C898 C899 1.372 . S
C899 C898 1.372 . S
C899 C900 1.400 . S
C899 C904 1.490 . S
C900 H890 0.930 . S
C900 C899 1.400 . S
C900 C903 1.386 . S
H901 C917 0.930 . S
H902 C918 0.931 . S
C903 H891 0.929 . S
C903 C897 1.390 . S
C903 C900 1.386 . S
C904 C899 1.490 . S
C904 C906 1.395 . S
C904 C907 1.403 . S
H905 C911 0.930 . S
C906 H892 0.930 . S
C906 C904 1.395 . S
C906 C909 1.403 . S
C907 C904 1.403 . S
C907 C908 1.524 . S
C907 C911 1.400 . S
C908 H893 0.960 . S
C908 H894 0.960 . S
C908 H895 0.960 . S
C908 C907 1.524 . S
C909 C906 1.403 . S
C909 C910 1.392 . S
C909 C913 1.495 . S
C910 C909 1.392 . S
C910 C911 1.385 . S
C910 C912 1.478 . S
C911 H905 0.930 . S
C911 C907 1.400 . S
C911 C910 1.385 . S
C912 C910 1.478 . S
C912 C914 1.381 . S
C912 C918 1.383 . S
C913 C909 1.495 . S
C913 H919 0.959 . S
C913 H920 0.961 . S
C913 H921 0.960 . S
C914 C912 1.381 . S
C914 C915 1.394 . S
C914 H922 0.930 . S
C915 C914 1.394 . S
C915 C916 1.383 . S
C915 H923 0.929 . S
C916 C915 1.383 . S
C916 C917 1.377 . S
C917 H901 0.930 . S
C917 C916 1.377 . S
C917 C918 1.379 . S
C918 H902 0.931 . S
C918 C912 1.383 . S
C918 C917 1.379 . S
H919 C913 0.959 . S
H920 C913 0.961 . S
H921 C913 0.960 . S
H922 C914 0.930 . S
H923 C915 0.929 . S
H924 C932 0.929 . S
H925 C934 0.930 . S
H926 C936 0.930 . S
H927 C939 0.929 . S
H928 C942 0.930 . S
H929 C944 0.960 . S
H930 C944 0.960 . S
H931 C944 0.960 . S
C932 H924 0.929 . S
C932 C933 1.377 . S
C932 C934 1.384 . S
C933 C932 1.377 . S
C933 C939 1.390 . S
C934 H925 0.930 . S
C934 C932 1.384 . S
C934 C935 1.372 . S
C935 C934 1.372 . S
C935 C936 1.400 . S
C935 C940 1.490 . S
C936 H926 0.930 . S
C936 C935 1.400 . S
C936 C939 1.386 . S
H937 C953 0.930 . S
H938 C954 0.931 . S
C939 H927 0.929 . S
C939 C933 1.390 . S
C939 C936 1.386 . S
C940 C935 1.490 . S
C940 C942 1.395 . S
C940 C943 1.403 . S
H941 C947 0.930 . S
C942 H928 0.930 . S
C942 C940 1.395 . S
C942 C945 1.403 . S
C943 C940 1.403 . S
C943 C944 1.524 . S
C943 C947 1.400 . S
C944 H929 0.960 . S
C944 H930 0.960 . S
C944 H931 0.960 . S
C944 C943 1.524 . S
C945 C942 1.403 . S
C945 C946 1.392 . S
C945 C949 1.495 . S
C946 C945 1.392 . S
C946 C947 1.385 . S
C946 C948 1.478 . S
C947 H941 0.930 . S
C947 C943 1.400 . S
C947 C946 1.385 . S
C948 C946 1.478 . S
C948 C950 1.381 . S
C948 C954 1.383 . S
C949 C945 1.495 . S
C949 H955 0.959 . S
C949 H956 0.961 . S
C949 H957 0.960 . S
C950 C948 1.381 . S
C950 C951 1.394 . S
C950 H958 0.930 . S
C951 C950 1.394 . S
C951 C952 1.383 . S
C951 H959 0.929 . S
C952 C951 1.383 . S
C952 C953 1.377 . S
C953 H937 0.930 . S
C953 C952 1.377 . S
C953 C954 1.379 . S
C954 H938 0.931 . S
C954 C948 1.383 . S
C954 C953 1.379 . S
H955 C949 0.959 . S
H956 C949 0.961 . S
H957 C949 0.960 . S
H958 C950 0.930 . S
H959 C951 0.929 . S
H960 C968 0.929 . S
H961 C970 0.930 . S
H962 C972 0.930 . S
H963 C975 0.929 . S
H964 C978 0.930 . S
H965 C980 0.960 . S
H966 C980 0.960 . S
H967 C980 0.960 . S
C968 H960 0.929 . S
C968 C969 1.377 . S
C968 C970 1.384 . S
C969 C968 1.377 . S
C969 C975 1.390 . S
C970 H961 0.930 . S
C970 C968 1.384 . S
C970 C971 1.372 . S
C971 C970 1.372 . S
C971 C972 1.400 . S
C971 C976 1.490 . S
C972 H962 0.930 . S
C972 C971 1.400 . S
C972 C975 1.386 . S
H973 C989 0.930 . S
H974 C990 0.931 . S
C975 H963 0.929 . S
C975 C969 1.390 . S
C975 C972 1.386 . S
C976 C971 1.490 . S
C976 C978 1.395 . S
C976 C979 1.403 . S
H977 C983 0.930 . S
C978 H964 0.930 . S
C978 C976 1.395 . S
C978 C981 1.403 . S
C979 C976 1.403 . S
C979 C980 1.524 . S
C979 C983 1.400 . S
C980 H965 0.960 . S
C980 H966 0.960 . S
C980 H967 0.960 . S
C980 C979 1.524 . S
C981 C978 1.403 . S
C981 C982 1.392 . S
C981 C985 1.495 . S
C982 C981 1.392 . S
C982 C983 1.385 . S
C982 C984 1.478 . S
C983 H977 0.930 . S
C983 C979 1.400 . S
C983 C982 1.385 . S
C984 C982 1.478 . S
C984 C986 1.381 . S
C984 C990 1.383 . S
C985 C981 1.495 . S
C985 H991 0.959 . S
C985 H992 0.961 . S
C985 H993 0.960 . S
C986 C984 1.381 . S
C986 C987 1.394 . S
C986 H994 0.930 . S
C987 C986 1.394 . S
C987 C988 1.383 . S
C987 H995 0.929 . S
C988 C987 1.383 . S
C988 C989 1.377 . S
C989 H973 0.930 . S
C989 C988 1.377 . S
C989 C990 1.379 . S
C990 H974 0.931 . S
C990 C984 1.383 . S
C990 C989 1.379 . S
H991 C985 0.959 . S
H992 C985 0.961 . S
H993 C985 0.960 . S
H994 C986 0.930 . S
H995 C987 0.929 . S
H996 C1004 0.929 . S
H997 C1006 0.930 . S
H998 C1008 0.930 . S
H999 C1011 0.929 . S
H1000 C1014 0.930 . S
H1001 C1016 0.960 . S
H1002 C1016 0.960 . S
H1003 C1016 0.960 . S
C1004 H996 0.929 . S
C1004 C1005 1.377 . S
C1004 C1006 1.384 . S
C1005 C1004 1.377 . S
C1005 C1011 1.390 . S
C1006 H997 0.930 . S
C1006 C1004 1.384 . S
C1006 C1007 1.372 . S
C1007 C1006 1.372 . S
C1007 C1008 1.400 . S
C1007 C1012 1.490 . S
C1008 H998 0.930 . S
C1008 C1007 1.400 . S
C1008 C1011 1.386 . S
H1009 C1025 0.930 . S
H1010 C1026 0.931 . S
C1011 H999 0.929 . S
C1011 C1005 1.390 . S
C1011 C1008 1.386 . S
C1012 C1007 1.490 . S
C1012 C1014 1.395 . S
C1012 C1015 1.403 . S
H1013 C1019 0.930 . S
C1014 H1000 0.930 . S
C1014 C1012 1.395 . S
C1014 C1017 1.403 . S
C1015 C1012 1.403 . S
C1015 C1016 1.524 . S
C1015 C1019 1.400 . S
C1016 H1001 0.960 . S
C1016 H1002 0.960 . S
C1016 H1003 0.960 . S
C1016 C1015 1.524 . S
C1017 C1014 1.403 . S
C1017 C1018 1.392 . S
C1017 C1021 1.495 . S
C1018 C1017 1.392 . S
C1018 C1019 1.385 . S
C1018 C1020 1.478 . S
C1019 H1013 0.930 . S
C1019 C1015 1.400 . S
C1019 C1018 1.385 . S
C1020 C1018 1.478 . S
C1020 C1022 1.381 . S
C1020 C1026 1.383 . S
C1021 C1017 1.495 . S
C1021 H1027 0.959 . S
C1021 H1028 0.961 . S
C1021 H1029 0.960 . S
C1022 C1020 1.381 . S
C1022 C1023 1.394 . S
C1022 H1030 0.930 . S
C1023 C1022 1.394 . S
C1023 C1024 1.383 . S
C1023 H1031 0.929 . S
C1024 C1023 1.383 . S
C1024 C1025 1.377 . S
C1025 H1009 0.930 . S
C1025 C1024 1.377 . S
C1025 C1026 1.379 . S
C1026 H1010 0.931 . S
C1026 C1020 1.383 . S
C1026 C1025 1.379 . S
H1027 C1021 0.959 . S
H1028 C1021 0.961 . S
H1029 C1021 0.960 . S
H1030 C1022 0.930 . S
H1031 C1023 0.929 . S
C177 C153 1.264 . S
C196 C13 1.316 . S
C213 C27 1.172 . S
C232 C167 1.112 . S
C249 C41 1.270 . S
C268 C97 1.222 . S
C285 C111 1.265 . S
C304 C55 1.318 . S
C321 C125 1.157 . S
C340 C69 1.161 . S
C357 C83 1.260 . S
C376 C139 1.259 . S
C393 C11 0.690 . S
C412 C109 0.689 . S
C429 C25 0.605 . S
C448 C123 0.595 . S
C465 C137 0.691 . S
C484 C39 0.679 . S
C501 C151 0.688 . S
C520 C53 0.685 . S
C537 C165 0.611 . S
C556 C67 0.611 . S
C573 C95 0.693 . S
C592 C81 0.723 . S
C609 C8 0.753 . S
C628 C63 0.779 . S
C645 C22 0.723 . S
C664 C77 0.658 . S
C681 C36 0.689 . S
C700 C7 0.762 . S
C717 C50 0.741 . S
C736 C21 0.806 . S
C753 C64 0.705 . S
C772 C35 0.739 . S
C789 C78 0.691 . S
C808 C49 0.627 . S
C825 C92 0.738 . S
C844 C119 0.802 . S
C861 C106 0.684 . S
C880 C133 0.757 . S
C897 C147 0.726 . S
C916 C120 0.744 . S
C933 C134 0.737 . S
C952 C161 0.699 . S
C969 C148 0.683 . S
C988 C91 0.657 . S
C1005 C162 0.721 . S
C1024 C105 0.768 . S
