# Generated by pormake.
# Topology mok, (4)-cn, num edge types: 1
# Building blocks:
#     Node 0, Type 0, BuildingBlock: AZAVOO_clean_sbu_0, # of connection points: 4
#     Node 1, Type 0, BuildingBlock: AZAVOO_clean_sbu_0, # of connection points: 4
#     Node 2, Type 0, BuildingBlock: AZAVOO_clean_sbu_0, # of connection points: 4
#     Node 3, Type 0, BuildingBlock: AZAVOO_clean_sbu_0, # of connection points: 4
#     Node 4, Type 0, BuildingBlock: AZAVOO_clean_sbu_0, # of connection points: 4
#     Node 5, Type 0, BuildingBlock: AZAVOO_clean_sbu_0, # of connection points: 4
#     Node 6, Type 0, BuildingBlock: AZAVOO_clean_sbu_0, # of connection points: 4
#     Node 7, Type 0, BuildingBlock: AZAVOO_clean_sbu_0, # of connection points: 4
#     Edge 8, Type (0, 0), BuildingBlock: XUDNAN_clean_linker_2, # of connection points: 2
#     Edge 9, Type (0, 0), BuildingBlock: XUDNAN_clean_linker_2, # of connection points: 2
#     Edge 10, Type (0, 0), BuildingBlock: XUDNAN_clean_linker_2, # of connection points: 2
#     Edge 11, Type (0, 0), BuildingBlock: XUDNAN_clean_linker_2, # of connection points: 2
#     Edge 12, Type (0, 0), BuildingBlock: XUDNAN_clean_linker_2, # of connection points: 2
#     Edge 13, Type (0, 0), BuildingBlock: XUDNAN_clean_linker_2, # of connection points: 2
#     Edge 14, Type (0, 0), BuildingBlock: XUDNAN_clean_linker_2, # of connection points: 2
#     Edge 15, Type (0, 0), BuildingBlock: XUDNAN_clean_linker_2, # of connection points: 2
#     Edge 16, Type (0, 0), BuildingBlock: XUDNAN_clean_linker_2, # of connection points: 2
#     Edge 17, Type (0, 0), BuildingBlock: XUDNAN_clean_linker_2, # of connection points: 2
#     Edge 18, Type (0, 0), BuildingBlock: XUDNAN_clean_linker_2, # of connection points: 2
#     Edge 19, Type (0, 0), BuildingBlock: XUDNAN_clean_linker_2, # of connection points: 2
#     Edge 20, Type (0, 0), BuildingBlock: XUDNAN_clean_linker_2, # of connection points: 2
#     Edge 21, Type (0, 0), BuildingBlock: XUDNAN_clean_linker_2, # of connection points: 2
#     Edge 22, Type (0, 0), BuildingBlock: XUDNAN_clean_linker_2, # of connection points: 2
#     Edge 23, Type (0, 0), BuildingBlock: XUDNAN_clean_linker_2, # of connection points: 2
# Relax obj value: 0.033
# Max RMSD: 0.042
# Mean RMSD: 0.042
data_MOF--net-mok--node1-AZAVOO_clean_sbu_0--edge1-XUDNAN_clean_linker_2
_symmetry_space_group_name_H-M    P1
_symmetry_Int_Tables_number       1
_symmetry_cell_setting            triclinic
loop_
_symmetry_equiv_pos_as_xyz
'x, y, z'
_cell_length_a     43.502801
_cell_length_b     21.764427
_cell_length_c     26.644499
_cell_angle_alpha  90.04996
_cell_angle_beta   89.661285
_cell_angle_gamma 90.3352211
loop_
_atom_site_label
_atom_site_type_symbol
_atom_site_fract_x
_atom_site_fract_y
_atom_site_fract_z
_atom_type_partial_charge
Mg0 Mg 0.56796 0.32044 0.06094 0.0
O1 O 0.61915 0.29412 0.06378 0.0
O2 O 0.62675 0.23643 0.1319 0.0
Mg3 Mg 0.58018 0.22049 0.16974 0.0
C4 C 0.63677 0.2639 0.09277 0.0
C5 C 0.56002 0.40682 0.96938 0.0
O6 O 0.53713 0.42482 -0.00188 0.0
O7 O 0.55552 0.22452 0.0301 0.0
O8 O 0.56249 0.17009 0.1001 0.0
O9 O 0.57614 0.4003 0.11252 0.0
O10 O 0.56351 0.3075 0.13881 0.0
C11 C 0.55472 0.17358 0.05402 0.0
C12 C 0.57111 0.36317 0.1496 0.0
O13 O 0.57632 0.36171 0.98336 0.0
Mg14 Mg 0.42464 0.64511 0.98155 0.0
O15 O 0.37597 0.67575 0.00805 0.0
O16 O 0.38268 0.70023 0.08884 0.0
Mg17 Mg 0.43228 0.6885 0.11366 0.0
C18 C 0.36545 0.69389 0.05051 0.0
C19 C 0.42243 0.59409 0.87881 0.0
O20 O 0.44019 0.55868 0.90592 0.0
O21 O 0.4415 0.74557 0.97695 0.0
O22 O 0.44895 0.76238 0.05874 0.0
O23 O 0.4144 0.54904 0.00695 0.0
O24 O 0.43606 0.61921 0.05491 0.0
C25 C 0.45101 0.7794 0.01298 0.0
C26 C 0.42475 0.56471 0.05051 0.0
O27 O 0.41079 0.64145 0.89933 0.0
Mg28 Mg 0.57631 0.65295 0.54476 0.0
O29 O 0.62301 0.69207 0.51643 0.0
O30 O 0.61396 0.71936 0.43695 0.0
Mg31 Mg 0.56474 0.69719 0.41358 0.0
C32 C 0.632 0.71468 0.47444 0.0
C33 C 0.57064 0.645 0.65902 0.0
O34 O 0.5419 0.65043 0.64484 0.0
O35 O 0.5563 0.75038 0.55111 0.0
O36 O 0.54604 0.76694 0.47012 0.0
O37 O 0.58893 0.55875 0.5182 0.0
O38 O 0.56512 0.62682 0.47147 0.0
C39 C 0.54456 0.78282 0.51622 0.0
C40 C 0.57787 0.57384 0.47503 0.0
O41 O 0.5918 0.6508 0.6262 0.0
Mg42 Mg 0.42902 0.31484 0.46504 0.0
O43 O 0.37679 0.29892 0.46429 0.0
O44 O 0.36574 0.23245 0.4029 0.0
Mg45 Mg 0.41045 0.21043 0.36123 0.0
C46 C 0.35754 0.26668 0.43946 0.0
C47 C 0.40794 0.40848 0.54396 0.0
O48 O 0.39436 0.42748 0.50294 0.0
O49 O 0.43751 0.21907 0.49849 0.0
O50 O 0.4286 0.16119 0.4308 0.0
O51 O 0.42446 0.39332 0.4121 0.0
O52 O 0.43092 0.2974 0.38751 0.0
C53 C 0.43693 0.16685 0.47648 0.0
C54 C 0.42621 0.35397 0.37583 0.0
O55 O 0.42433 0.36026 0.54198 0.0
Mg56 Mg 0.08471 0.83193 0.98796 0.0
O57 O 0.13227 0.79358 0.01227 0.0
O58 O 0.12424 0.76507 0.09194 0.0
Mg59 Mg 0.0754 0.78358 0.11877 0.0
C60 C 0.14186 0.77098 0.05369 0.0
C61 C 0.08455 0.88409 0.88558 0.0
O62 O 0.06511 0.91533 0.91344 0.0
O63 O 0.06465 0.73372 0.98074 0.0
O64 O 0.05635 0.71441 0.06209 0.0
O65 O 0.098 0.92534 0.01597 0.0
O66 O 0.0744 0.85584 0.06241 0.0
C67 C 0.05393 0.69962 0.01589 0.0
C68 C 0.08737 0.90901 0.05937 0.0
O69 O 0.09826 0.83861 0.90529 0.0
Mg70 Mg 0.92938 0.16299 0.05382 0.0
O71 O 0.87852 0.19303 0.05724 0.0
O72 O 0.87198 0.24914 0.1269 0.0
Mg73 Mg 0.91842 0.26019 0.16543 0.0
C74 C 0.86146 0.22369 0.08731 0.0
C75 C 0.90063 0.08664 0.96801 0.0
O76 O 0.88156 0.07609 0.00547 0.0
O77 O 0.94373 0.25935 0.02563 0.0
O78 O 0.93752 0.31176 0.09704 0.0
O79 O 0.91942 0.08129 0.10283 0.0
O80 O 0.93221 0.17265 0.13207 0.0
C81 C 0.94541 0.30935 0.05081 0.0
C82 C 0.92359 0.11706 0.14098 0.0
O83 O 0.92293 0.12391 0.97455 0.0
Mg84 Mg 0.06971 0.16224 0.47183 0.0
O85 O 0.119 0.20093 0.46977 0.0
O86 O 0.12226 0.26543 0.40435 0.0
Mg87 Mg 0.07718 0.26124 0.3605 0.0
C88 C 0.13385 0.23949 0.44272 0.0
C89 C 0.09819 0.08546 0.55588 0.0
O90 O 0.11516 0.0722 0.51644 0.0
O91 O 0.05056 0.25573 0.4991 0.0
O92 O 0.05192 0.30626 0.42604 0.0
O93 O 0.08349 0.08247 0.4234 0.0
O94 O 0.06767 0.17114 0.39356 0.0
C95 C 0.04422 0.30271 0.47227 0.0
C96 C 0.07852 0.11728 0.38508 0.0
O97 O 0.07706 0.12531 0.55141 0.0
Mg98 Mg 0.91675 0.83045 0.53792 0.0
O99 O 0.86727 0.8047 0.51202 0.0
O100 O 0.87243 0.78048 0.43073 0.0
Mg101 Mg 0.92246 0.78381 0.40601 0.0
C102 C 0.8558 0.78872 0.46977 0.0
C103 C 0.92012 0.87083 0.64532 0.0
O104 O 0.9452 0.8916 0.62325 0.0
O105 O 0.93014 0.72843 0.54357 0.0
O106 O 0.93424 0.70752 0.46178 0.0
O107 O 0.90947 0.92645 0.51139 0.0
O108 O 0.92914 0.85353 0.46386 0.0
C109 C 0.93625 0.69128 0.5077 0.0
C110 C 0.91904 0.90884 0.46768 0.0
O111 O 0.90187 0.8372 0.62 0.0
H112 H 0.815 0.238 0.15544 0.0
H113 H 0.83289 0.22078 0.99573 0.0
H114 H 0.77724 0.23234 0.97897 0.0
H115 H 0.74531 0.14919 0.15547 0.0
H116 H 0.727 0.19535 0.20309 0.0
H117 H 0.76822 0.18849 0.20179 0.0
H118 H 0.77353 0.3071 0.19799 0.0
H119 H 0.73232 0.31433 0.19911 0.0
H120 H 0.75438 0.34883 0.14896 0.0
H121 H 0.7194 0.25041 0.98025 0.0
H122 H 0.66392 0.26149 -0.00022 0.0
H123 H 0.68432 0.2582 0.15886 0.0
C124 C 0.80725 0.23703 0.11689 0.0
C125 C 0.82825 0.22923 0.07679 0.0
C126 C 0.81715 0.2269 0.02696 0.0
C127 C 0.78564 0.23366 0.01711 0.0
C128 C 0.76555 0.24164 0.05759 0.0
C129 C 0.77593 0.24239 0.10652 0.0
C130 C 0.74962 0.24862 0.14356 0.0
C131 C 0.74741 0.19204 0.17799 0.0
C132 C 0.75265 0.30827 0.1742 0.0
C133 C 0.72275 0.25145 0.10791 0.0
C134 C 0.73237 0.24835 0.05844 0.0
C135 C 0.71162 0.25229 0.01887 0.0
C136 C 0.68022 0.25882 0.03027 0.0
C137 C 0.66991 0.2601 0.08077 0.0
C138 C 0.69154 0.25651 0.11991 0.0
H139 H 0.18871 0.76571 0.98162 0.0
H140 H 0.16987 0.73901 0.14068 0.0
H141 H 0.22406 0.71627 0.1549 0.0
H142 H 0.2457 0.64247 0.9717 0.0
H143 H 0.27014 0.68395 0.92846 0.0
H144 H 0.22932 0.69767 0.92927 0.0
H145 H 0.23944 0.8137 0.94358 0.0
H146 H 0.28027 0.80031 0.94302 0.0
H147 H 0.26256 0.83792 0.99601 0.0
H148 H 0.27951 0.70177 0.15469 0.0
H149 H 0.33459 0.68871 0.13894 0.0
H150 H 0.32029 0.71936 0.97958 0.0
C151 C 0.196 0.75469 0.01932 0.0
C152 C 0.17475 0.75431 0.05994 0.0
C153 C 0.18536 0.73958 0.10872 0.0
C154 C 0.21626 0.72664 0.11738 0.0
C155 C 0.23652 0.72792 0.07694 0.0
C156 C 0.22703 0.74086 0.02875 0.0
C157 C 0.25415 0.73859 0.9924 0.0
C158 C 0.24955 0.68763 0.95313 0.0
C159 C 0.25941 0.80137 0.96727 0.0
C160 C 0.28021 0.72312 0.02806 0.0
C161 C 0.26924 0.71761 0.0766 0.0
C162 C 0.28844 0.70552 0.11682 0.0
C163 C 0.31982 0.69851 0.1074 0.0
C164 C 0.33193 0.70306 0.05801 0.0
C165 C 0.31173 0.71528 0.01768 0.0
H166 H 0.81116 0.76053 0.54149 0.0
H167 H 0.82408 0.80501 0.3838 0.0
H168 H 0.76853 0.79565 0.37026 0.0
H169 H 0.75272 0.64602 0.52147 0.0
H170 H 0.73044 0.66542 0.57644 0.0
H171 H 0.77131 0.67915 0.57549 0.0
H172 H 0.76224 0.79368 0.59709 0.0
H173 H 0.72131 0.78029 0.59805 0.0
H174 H 0.73746 0.8389 0.55787 0.0
H175 H 0.71275 0.78079 0.372 0.0
H176 H 0.65865 0.75528 0.38774 0.0
H177 H 0.67963 0.71582 0.54381 0.0
C178 C 0.80217 0.76876 0.50431 0.0
C179 C 0.82204 0.78352 0.46371 0.0
C180 C 0.80945 0.79324 0.41543 0.0
C181 C 0.77784 0.78839 0.40733 0.0
C182 C 0.75894 0.77335 0.44776 0.0
C183 C 0.77043 0.76322 0.49526 0.0
C184 C 0.74473 0.74471 0.53125 0.0
C185 C 0.75013 0.67997 0.5524 0.0
C186 C 0.74123 0.79224 0.57357 0.0
C187 C 0.71724 0.74567 0.49625 0.0
C188 C 0.72615 0.76305 0.44849 0.0
C189 C 0.70538 0.76717 0.40924 0.0
C190 C 0.67459 0.75254 0.41872 0.0
C191 C 0.66464 0.73339 0.46708 0.0
C192 C 0.68638 0.73037 0.50647 0.0
H193 H 0.18187 0.16153 0.43275 0.0
H194 H 0.15825 0.34737 0.47554 0.0
H195 H 0.21347 0.37172 0.4881 0.0
H196 H 0.24941 0.14268 0.51511 0.0
H197 H 0.27069 0.10131 0.46783 0.0
H198 H 0.22933 0.0962 0.46971 0.0
H199 H 0.22706 0.13195 0.37705 0.0
H200 H 0.26832 0.13733 0.37493 0.0
H201 H 0.2454 0.20323 0.35921 0.0
H202 H 0.27135 0.37655 0.49218 0.0
H203 H 0.32739 0.3653 0.47933 0.0
H204 H 0.31304 0.17878 0.42649 0.0
C205 C 0.18845 0.20679 0.44599 0.0
C206 C 0.16616 0.2524 0.45436 0.0
C207 C 0.17526 0.31184 0.46982 0.0
C208 C 0.20645 0.32589 0.47711 0.0
C209 C 0.22809 0.28009 0.46797 0.0
C210 C 0.2195 0.22188 0.45229 0.0
C211 C 0.24729 0.18306 0.43981 0.0
C212 C 0.2493 0.12753 0.47524 0.0
C213 C 0.24699 0.16274 0.38447 0.0
C214 C 0.27285 0.22887 0.44983 0.0
C215 C 0.26136 0.28406 0.46724 0.0
C216 C 0.2806 0.3335 0.47869 0.0
C217 C 0.31238 0.32667 0.47138 0.0
C218 C 0.32446 0.27131 0.45171 0.0
C219 C 0.30439 0.22172 0.44135 0.0
H220 H 0.578 0.48098 0.18502 0.0
H221 H 0.5706 0.29136 0.23422 0.0
H222 H 0.57536 0.3245 0.32189 0.0
H223 H 0.6315 0.53427 0.28079 0.0
H224 H 0.6127 0.60726 0.28859 0.0
H225 H 0.61152 0.5685 0.22883 0.0
H226 H 0.55171 0.57178 0.23013 0.0
H227 H 0.55315 0.61162 0.28935 0.0
H228 H 0.53139 0.54131 0.28387 0.0
H229 H 0.58018 0.37784 0.40468 0.0
H230 H 0.58003 0.449 0.47707 0.0
H231 H 0.58089 0.60404 0.37489 0.0
C232 C 0.57785 0.44634 0.21417 0.0
C233 C 0.5747 0.38329 0.20238 0.0
C234 C 0.57374 0.33967 0.24183 0.0
C235 C 0.57635 0.35809 0.29199 0.0
C236 C 0.57946 0.42045 0.3023 0.0
C237 C 0.57989 0.46405 0.26462 0.0
C238 C 0.58123 0.52844 0.28621 0.0
C239 C 0.61101 0.56155 0.27015 0.0
C240 C 0.55267 0.56548 0.27147 0.0
C241 C 0.58122 0.51406 0.34183 0.0
C242 C 0.58067 0.45147 0.35026 0.0
C243 C 0.58056 0.42699 0.39858 0.0
C244 C 0.58056 0.46768 0.43941 0.0
C245 C 0.5801 0.53197 0.43159 0.0
C246 C 0.58072 0.55524 0.38213 0.0
H247 H 0.43826 0.5895 0.14907 0.0
H248 H 0.40601 0.44433 0.05042 0.0
H249 H 0.40245 0.37386 0.12298 0.0
H250 H 0.48342 0.49723 0.22997 0.0
H251 H 0.47297 0.53925 0.2858 0.0
H252 H 0.47346 0.57736 0.22587 0.0
H253 H 0.41673 0.60995 0.23947 0.0
H254 H 0.41621 0.57176 0.29941 0.0
H255 H 0.388 0.55207 0.2527 0.0
H256 H 0.40443 0.31842 0.20643 0.0
H257 H 0.40892 0.28429 0.29441 0.0
H258 H 0.43645 0.46847 0.33818 0.0
C259 C 0.43015 0.54325 0.1425 0.0
C260 C 0.42224 0.52269 0.09398 0.0
C261 C 0.4121 0.46124 0.0873 0.0
C262 C 0.41003 0.42085 0.12826 0.0
C263 C 0.41787 0.44288 0.17564 0.0
C264 C 0.42747 0.50281 0.18295 0.0
C265 C 0.43406 0.51562 0.23764 0.0
C266 C 0.468 0.53339 0.24522 0.0
C267 C 0.41246 0.56528 0.25853 0.0
C268 C 0.42689 0.45335 0.26004 0.0
C269 C 0.41784 0.41181 0.22368 0.0
C270 C 0.41122 0.35071 0.23527 0.0
C271 C 0.41393 0.33167 0.28536 0.0
C272 C 0.42278 0.3738 0.3232 0.0
C273 C 0.42917 0.43542 0.31018 0.0
H274 H 0.43597 0.48588 0.83227 0.0
H275 H 0.39392 0.66341 0.80658 0.0
H276 H 0.384 0.63383 0.71831 0.0
H277 H 0.47409 0.47212 0.71568 0.0
H278 H 0.46697 0.39094 0.7085 0.0
H279 H 0.46951 0.42368 0.77029 0.0
H280 H 0.41598 0.38142 0.79384 0.0
H281 H 0.4131 0.34665 0.73265 0.0
H282 H 0.38358 0.3982 0.75438 0.0
H283 H 0.37986 0.58505 0.63242 0.0
H284 H 0.38237 0.52217 0.55541 0.0
H285 H 0.42756 0.37703 0.63824 0.0
C286 C 0.42473 0.51876 0.80816 0.0
C287 C 0.41587 0.57718 0.82619 0.0
C288 C 0.4009 0.61845 0.79351 0.0
C289 C 0.39519 0.60202 0.7434 0.0
C290 C 0.40441 0.54409 0.72685 0.0
C291 C 0.41879 0.50308 0.75835 0.0
C292 C 0.42655 0.44378 0.73147 0.0
C293 C 0.46136 0.43204 0.73148 0.0
C294 C 0.40873 0.38931 0.75445 0.0
C295 C 0.41512 0.45843 0.67942 0.0
C296 C 0.40207 0.51617 0.67763 0.0
C297 C 0.38998 0.53977 0.63344 0.0
C298 C 0.3915 0.50362 0.58991 0.0
C299 C 0.40526 0.44472 0.59076 0.0
C300 C 0.41701 0.42191 0.6363 0.0
H301 H 0.52439 0.48924 0.91848 0.0
H302 H 0.61438 0.40411 0.91712 0.0
H303 H 0.62894 0.4659 0.84289 0.0
H304 H 0.51536 0.48857 0.78626 0.0
H305 H 0.49484 0.56032 0.78478 0.0
H306 H 0.49309 0.51275 0.83994 0.0
H307 H 0.51236 0.60505 0.89306 0.0
H308 H 0.51501 0.65209 0.83757 0.0
H309 H 0.54826 0.64199 0.87672 0.0
H310 H 0.63332 0.53499 0.76769 0.0
H311 H 0.62498 0.59579 0.69091 0.0
H312 H 0.53144 0.63282 0.73937 0.0
C313 C 0.54726 0.48396 0.90282 0.0
C314 C 0.56832 0.44209 0.92375 0.0
C315 C 0.59784 0.43582 0.90167 0.0
C316 C 0.60643 0.47113 0.85979 0.0
C317 C 0.5852 0.51232 0.84029 0.0
C318 C 0.55609 0.51836 0.86071 0.0
C319 C 0.53674 0.56207 0.83014 0.0
C320 C 0.50831 0.52898 0.80901 0.0
C321 C 0.52757 0.61866 0.86125 0.0
C322 C 0.55937 0.57893 0.78889 0.0
C323 C 0.58738 0.5507 0.79599 0.0
C324 C 0.61154 0.55755 0.76183 0.0
C325 C 0.60661 0.59243 0.71839 0.0
C326 C 0.57756 0.61912 0.70907 0.0
C327 C 0.55396 0.61338 0.74552 0.0
H328 H 0.07387 0.88166 0.15784 0.0
H329 H 0.1086 0.02769 0.06173 0.0
H330 H 0.11255 0.09614 0.13549 0.0
H331 H 0.02869 0.97291 0.2368 0.0
H332 H 0.0371 0.93104 0.29342 0.0
H333 H 0.03834 0.89256 0.23364 0.0
H334 H 0.09449 0.85926 0.2498 0.0
H335 H 0.09345 0.89701 0.31 0.0
H336 H 0.12304 0.91658 0.26504 0.0
H337 H 0.109 0.15063 0.21893 0.0
H338 H 0.10067 0.18534 0.30625 0.0
H339 H 0.07127 0.00164 0.34801 0.0
C340 C 0.08275 0.92754 0.15216 0.0
C341 C 0.091 0.94906 0.10391 0.0
C342 C 0.10225 0.01003 0.09837 0.0
C343 C 0.1046 0.04925 0.14003 0.0
C344 C 0.09618 0.02649 0.18704 0.0
C345 C 0.08573 0.96683 0.19336 0.0
C346 C 0.07759 0.95382 0.24764 0.0
C347 C 0.04341 0.93655 0.2532 0.0
C348 C 0.09839 0.9037 0.2694 0.0
C349 C 0.08453 0.01586 0.27082 0.0
C350 C 0.09505 0.05725 0.23523 0.0
C351 C 0.10109 0.11846 0.2472 0.0
C352 C 0.09606 0.1379 0.29677 0.0
C353 C 0.08535 0.09614 0.33369 0.0
C354 C 0.07994 0.03423 0.32059 0.0
H355 H 0.93426 0.88286 0.36949 0.0
H356 H 0.89806 0.02693 0.46533 0.0
H357 H 0.89341 0.09477 0.39159 0.0
H358 H 0.97815 0.97834 0.2888 0.0
H359 H 0.9699 0.93494 0.23273 0.0
H360 H 0.96987 0.89724 0.29284 0.0
H361 H 0.91422 0.85858 0.27785 0.0
H362 H 0.91408 0.89596 0.21754 0.0
H363 H 0.88458 0.91313 0.26315 0.0
H364 H 0.89457 0.14809 0.30805 0.0
H365 H 0.90062 0.18255 0.22045 0.0
H366 H 0.9341 0.00236 0.17837 0.0
C367 C 0.92494 0.92827 0.37507 0.0
C368 C 0.91623 0.94929 0.42329 0.0
C369 C 0.90481 0.00967 0.42879 0.0
C370 C 0.90202 0.04853 0.38711 0.0
C371 C 0.91062 0.02614 0.34011 0.0
C372 C 0.92161 0.96732 0.33382 0.0
C373 C 0.92951 0.95466 0.27934 0.0
C374 C 0.9639 0.94045 0.27307 0.0
C375 C 0.90939 0.90249 0.25823 0.0
C376 C 0.92161 0.01587 0.25604 0.0
C377 C 0.91073 0.05648 0.29179 0.0
C378 C 0.90297 0.11664 0.27971 0.0
C379 C 0.90674 0.136 0.22987 0.0
C380 C 0.91802 0.09531 0.19272 0.0
C381 C 0.92511 0.03423 0.20595 0.0
H382 H 0.95561 0.94043 0.70808 0.0
H383 H 0.86619 0.85185 0.69771 0.0
H384 H 0.85144 0.89731 0.77948 0.0
H385 H 0.96378 0.92361 0.84538 0.0
H386 H 0.98386 -0.00372 0.84924 0.0
H387 H 0.98626 0.9506 0.7929 0.0
H388 H 0.96689 0.04703 0.74262 0.0
H389 H 0.96367 0.0895 0.80041 0.0
H390 H 0.93071 0.08079 0.76028 0.0
H391 H 0.84591 0.95625 0.86088 0.0
H392 H 0.85069 0.02043 0.93695 0.0
H393 H 0.94354 0.0718 0.8927 0.0
C394 C 0.93301 0.92993 0.72315 0.0
C395 C 0.91203 0.89253 0.69643 0.0
C396 C 0.88269 0.88012 0.71757 0.0
C397 C 0.87409 0.9059 0.76392 0.0
C398 C 0.89513 0.94369 0.78868 0.0
C399 C 0.92409 0.95515 0.76922 0.0
C400 C 0.94246 -0.00201 0.80276 0.0
C401 C 0.9707 0.96523 0.82382 0.0
C402 C 0.95146 0.05734 0.77486 0.0
C403 C 0.91896 0.01027 0.84361 0.0
C404 C 0.89185 0.97805 0.83505 0.0
C405 C 0.86693 0.98154 0.86797 0.0
C406 C 0.86993 0.01825 0.91103 0.0
C407 C 0.89741 0.05143 0.92068 0.0
C408 C 0.92211 0.04758 0.88616 0.0
H409 H 0.0596 0.98208 0.83671 0.0
H410 H 0.12447 0.83299 0.81691 0.0
H411 H 0.1361 0.87035 0.73109 0.0
H412 H 0.02934 0.98177 0.71411 0.0
H413 H 0.02667 0.0641 0.70843 0.0
H414 H 0.02393 0.02874 0.76924 0.0
H415 H 0.06819 0.09454 0.80317 0.0
H416 H 0.07108 0.13285 0.74341 0.0
H417 H 0.10441 0.09666 0.76998 0.0
H418 H 0.1407 0.92471 0.64769 0.0
H419 H 0.13643 0.98851 0.5717 0.0
H420 H 0.06835 0.1018 0.64642 0.0
C421 C 0.07625 0.95706 0.81443 0.0
C422 C 0.09114 0.90447 0.83356 0.0
C423 C 0.11277 0.87328 0.80304 0.0
C424 C 0.11957 0.89428 0.75434 0.0
C425 C 0.10462 0.94658 0.73689 0.0
C426 C 0.08338 0.97748 0.76601 0.0
C427 C 0.07057 0.03239 0.73851 0.0
C428 C 0.03559 0.02627 0.73213 0.0
C429 C 0.07908 0.09267 0.76537 0.0
C430 C 0.08731 0.02684 0.6888 0.0
C431 C 0.10706 0.97752 0.68886 0.0
C432 C 0.12518 0.96337 0.64724 0.0
C433 C 0.12275 7e-05 0.60425 0.0
C434 C 0.10205 0.05017 0.60296 0.0
C435 C 0.08434 0.06384 0.64611 0.0
H436 H 0.49489 0.83235 0.06994 0.0
H437 H 0.44297 0.86003 0.93355 0.0
H438 H 0.46787 0.96252 0.92294 0.0
H439 H 0.48938 0.98 0.11696 0.0
H440 H 0.52762 0.98154 0.14264 0.0
H441 H 0.50765 0.90957 0.13573 0.0
H442 H 0.55296 0.86719 0.08252 0.0
H443 H 0.57309 0.93928 0.08919 0.0
H444 H 0.56567 0.9086 0.02755 0.0
H445 H 0.49573 0.068 0.93405 0.0
H446 H 0.52287 0.16142 0.96455 0.0
H447 H 0.55709 0.05759 0.09121 0.0
C448 C 0.48884 0.85961 0.0375 0.0
C449 C 0.46679 0.8386 0.0028 0.0
C450 C 0.45985 0.87538 0.96057 0.0
C451 C 0.4739 0.93353 0.95432 0.0
C452 C 0.49523 0.95327 0.99005 0.0
C453 C 0.50283 0.91667 0.03045 0.0
C454 C 0.5253 0.94812 0.06502 0.0
C455 C 0.51166 0.95524 0.11819 0.0
C456 C 0.55608 0.91375 0.0661 0.0
C457 C 0.5287 0.00929 0.03896 0.0
C458 C 0.5115 0.01183 0.99557 0.0
C459 C 0.50962 0.06596 0.96756 0.0
C460 C 0.52517 0.1188 0.98508 0.0
C461 C 0.54218 0.11701 0.03029 0.0
C462 C 0.54445 0.06084 0.05644 0.0
H463 H 0.49631 0.8278 0.46517 0.0
H464 H 0.55413 0.86574 0.59354 0.0
H465 H 0.52768 0.96578 0.60553 0.0
H466 H 0.49739 0.97217 0.41443 0.0
H467 H 0.45809 0.9705 0.39338 0.0
H468 H 0.47889 0.89999 0.40001 0.0
H469 H 0.43646 0.85794 0.45979 0.0
H470 H 0.41548 0.92862 0.45338 0.0
H471 H 0.42586 0.90137 0.51482 0.0
H472 H 0.4989 0.06836 0.59487 0.0
H473 H 0.47106 0.15968 0.56367 0.0
H474 H 0.43166 0.04859 0.44477 0.0
C475 C 0.50316 0.85667 0.49635 0.0
C476 C 0.52737 0.83942 0.52825 0.0
C477 C 0.53552 0.87818 0.56879 0.0
C478 C 0.5206 0.93494 0.57583 0.0
C479 C 0.49721 0.95121 0.54267 0.0
C480 C 0.48835 0.91244 0.50418 0.0
C481 C 0.46414 0.94105 0.47146 0.0
C482 C 0.47532 0.94625 0.41662 0.0
C483 C 0.43368 0.9051 0.47511 0.0
C484 C 0.46168 0.00329 0.49602 0.0
C485 C 0.48055 0.00854 0.53739 0.0
C486 C 0.48363 0.06419 0.56312 0.0
C487 C 0.46767 0.11584 0.54521 0.0
C488 C 0.4491 0.11141 0.50177 0.0
C489 C 0.44548 0.05373 0.47821 0.0
H490 H 0.00887 0.64787 0.07209 0.0
H491 H 0.06066 0.62124 0.93438 0.0
H492 H 0.03451 0.52032 0.92224 0.0
H493 H 0.0129 0.49922 0.1163 0.0
H494 H 0.97467 0.49824 0.14274 0.0
H495 H 0.9952 0.56974 0.13666 0.0
H496 H 0.95027 0.61486 0.08508 0.0
H497 H 0.92954 0.5433 0.09103 0.0
H498 H 0.93717 0.5751 0.02974 0.0
H499 H 0.00567 0.41577 0.93188 0.0
H500 H 0.97758 0.32267 0.96113 0.0
H501 H 0.94463 0.42433 0.09065 0.0
C502 C 0.01456 0.62126 0.03897 0.0
C503 C 0.03695 0.64211 0.00434 0.0
C504 C 0.04348 0.60611 0.96131 0.0
C505 C 0.02875 0.54881 0.9542 0.0
C506 C 0.00718 0.52906 0.98996 0.0
C507 C -6e-05 0.56498 0.03113 0.0
C508 C 0.97723 0.53343 0.06567 0.0
C509 C 0.99083 0.52463 0.11842 0.0
C510 C 0.94675 0.56878 0.06798 0.0
C511 C 0.97344 0.47295 0.03867 0.0
C512 C 0.99056 0.47091 0.99483 0.0
C513 C 0.99186 0.41745 0.96577 0.0
C514 C 0.97578 0.36478 0.9826 0.0
C515 C 0.95883 0.36599 0.02821 0.0
C516 C 0.95723 0.42151 0.05555 0.0
H517 H 0.00618 0.37588 0.4201 0.0
H518 H 0.04063 0.34587 0.57037 0.0
H519 H 0.01236 0.4385 0.59978 0.0
H520 H 0.01368 0.53397 0.41812 0.0
H521 H 0.97926 0.54668 0.38236 0.0
H522 H -0.00032 0.47558 0.37585 0.0
H523 H 0.95009 0.41486 0.39893 0.0
H524 H 0.92945 0.48596 0.40552 0.0
H525 H 0.93013 0.43193 0.45672 0.0
H526 H 0.98352 0.54275 0.60902 0.0
H527 H 0.95774 0.64322 0.59728 0.0
H528 H 0.94235 0.59784 0.44082 0.0
C529 C 0.00766 0.38825 0.45941 0.0
C530 C 0.02581 0.35405 0.4929 0.0
C531 C 0.02679 0.37147 0.5441 0.0
C532 C 0.01082 0.42396 0.56102 0.0
C533 C 0.99361 0.45747 0.52639 0.0
C534 C 0.99178 0.43945 0.47674 0.0
C535 C 0.97313 0.48358 0.44587 0.0
C536 C 0.99261 0.5116 0.40307 0.0
C537 C 0.94397 0.4522 0.42559 0.0
C538 C 0.96539 0.53078 0.48533 0.0
C539 C 0.97703 0.51524 0.53177 0.0
C540 C 0.974 0.5547 0.57291 0.0
C541 C 0.95925 0.61164 0.56596 0.0
C542 C 0.94797 0.62859 0.51812 0.0
C543 C 0.95059 0.5866 0.47795 0.0
loop_
_geom_bond_atom_site_label_1
_geom_bond_atom_site_label_2
_geom_bond_distance
_geom_bond_site_symmetry_2
_ccdc_geom_bond_type
Mg0 O1 2.028 . S
Mg0 O7 1.986 . S
Mg0 O9 2.114 . S
Mg0 O10 2.251 . S
Mg0 O13 2.010 1_554 S
O1 Mg0 2.028 . S
O1 C4 1.250 . S
O2 Mg3 2.028 . S
O2 C4 1.248 . S
Mg3 O2 2.028 . S
Mg3 O8 2.032 . S
Mg3 O10 2.079 . S
C4 O1 1.250 . S
C4 O2 1.248 . S
C5 O6 1.264 . S
C5 O13 1.249 . S
O6 C5 1.264 . S
O7 Mg0 1.986 . S
O7 C11 1.246 . S
O8 Mg3 2.032 . S
O8 C11 1.259 . S
O9 Mg0 2.114 . S
O9 C12 1.252 . S
O10 Mg0 2.251 . S
O10 Mg3 2.079 . S
O10 C12 1.273 . S
C11 O7 1.246 . S
C11 O8 1.259 . S
C12 O9 1.252 . S
C12 O10 1.273 . S
O13 Mg0 2.010 1_556 S
O13 C5 1.249 . S
Mg14 O15 2.028 . S
Mg14 O21 1.986 . S
Mg14 O23 2.114 . S
Mg14 O24 2.251 . S
Mg14 O27 2.010 1_554 S
O15 Mg14 2.028 . S
O15 C18 1.250 . S
O16 Mg17 2.028 . S
O16 C18 1.248 . S
Mg17 O16 2.028 . S
Mg17 O22 2.032 . S
Mg17 O24 2.079 . S
C18 O15 1.250 . S
C18 O16 1.248 . S
C19 O20 1.264 . S
C19 O27 1.249 . S
O20 C19 1.264 . S
O21 Mg14 1.986 . S
O21 C25 1.246 . S
O22 Mg17 2.032 . S
O22 C25 1.259 . S
O23 Mg14 2.114 . S
O23 C26 1.252 . S
O24 Mg14 2.251 . S
O24 Mg17 2.079 . S
O24 C26 1.273 . S
C25 O21 1.246 . S
C25 O22 1.259 . S
C26 O23 1.252 . S
C26 O24 1.273 . S
O27 Mg14 2.010 1_556 S
O27 C19 1.249 . S
Mg28 O29 2.028 . S
Mg28 O35 1.986 . S
Mg28 O37 2.114 . S
Mg28 O38 2.251 . S
Mg28 O41 2.010 . S
O29 Mg28 2.028 . S
O29 C32 1.250 . S
O30 Mg31 2.028 . S
O30 C32 1.248 . S
Mg31 O30 2.028 . S
Mg31 O36 2.032 . S
Mg31 O38 2.079 . S
C32 O29 1.250 . S
C32 O30 1.248 . S
C33 O34 1.264 . S
C33 O41 1.249 . S
O34 C33 1.264 . S
O35 Mg28 1.986 . S
O35 C39 1.246 . S
O36 Mg31 2.032 . S
O36 C39 1.259 . S
O37 Mg28 2.114 . S
O37 C40 1.252 . S
O38 Mg28 2.251 . S
O38 Mg31 2.079 . S
O38 C40 1.273 . S
C39 O35 1.246 . S
C39 O36 1.259 . S
C40 O37 1.252 . S
C40 O38 1.273 . S
O41 Mg28 2.010 . S
O41 C33 1.249 . S
Mg42 O43 2.028 . S
Mg42 O49 1.986 . S
Mg42 O51 2.114 . S
Mg42 O52 2.251 . S
Mg42 O55 2.010 . S
O43 Mg42 2.028 . S
O43 C46 1.250 . S
O44 Mg45 2.028 . S
O44 C46 1.248 . S
Mg45 O44 2.028 . S
Mg45 O50 2.032 . S
Mg45 O52 2.079 . S
C46 O43 1.250 . S
C46 O44 1.248 . S
C47 O48 1.264 . S
C47 O55 1.249 . S
O48 C47 1.264 . S
O49 Mg42 1.986 . S
O49 C53 1.246 . S
O50 Mg45 2.032 . S
O50 C53 1.259 . S
O51 Mg42 2.114 . S
O51 C54 1.252 . S
O52 Mg42 2.251 . S
O52 Mg45 2.079 . S
O52 C54 1.273 . S
C53 O49 1.246 . S
C53 O50 1.259 . S
C54 O51 1.252 . S
C54 O52 1.273 . S
O55 Mg42 2.010 . S
O55 C47 1.249 . S
Mg56 O57 2.028 . S
Mg56 O63 1.986 . S
Mg56 O65 2.114 . S
Mg56 O66 2.251 . S
Mg56 O69 2.010 1_554 S
O57 Mg56 2.028 . S
O57 C60 1.250 . S
O58 Mg59 2.028 . S
O58 C60 1.248 . S
Mg59 O58 2.028 . S
Mg59 O64 2.032 . S
Mg59 O66 2.079 . S
C60 O57 1.250 . S
C60 O58 1.248 . S
C61 O62 1.264 . S
C61 O69 1.249 . S
O62 C61 1.264 . S
O63 Mg56 1.986 . S
O63 C67 1.246 . S
O64 Mg59 2.032 . S
O64 C67 1.259 . S
O65 Mg56 2.114 . S
O65 C68 1.252 . S
O66 Mg56 2.251 . S
O66 Mg59 2.079 . S
O66 C68 1.273 . S
C67 O63 1.246 . S
C67 O64 1.259 . S
C68 O65 1.252 . S
C68 O66 1.273 . S
O69 Mg56 2.010 1_556 S
O69 C61 1.249 . S
Mg70 O71 2.028 . S
Mg70 O77 1.986 . S
Mg70 O79 2.114 . S
Mg70 O80 2.251 . S
Mg70 O83 2.010 1_554 S
O71 Mg70 2.028 . S
O71 C74 1.250 . S
O72 Mg73 2.028 . S
O72 C74 1.248 . S
Mg73 O72 2.028 . S
Mg73 O78 2.032 . S
Mg73 O80 2.079 . S
C74 O71 1.250 . S
C74 O72 1.248 . S
C75 O76 1.264 . S
C75 O83 1.249 . S
O76 C75 1.264 . S
O77 Mg70 1.986 . S
O77 C81 1.246 . S
O78 Mg73 2.032 . S
O78 C81 1.259 . S
O79 Mg70 2.114 . S
O79 C82 1.252 . S
O80 Mg70 2.251 . S
O80 Mg73 2.079 . S
O80 C82 1.273 . S
C81 O77 1.246 . S
C81 O78 1.259 . S
C82 O79 1.252 . S
C82 O80 1.273 . S
O83 Mg70 2.010 1_556 S
O83 C75 1.249 . S
Mg84 O85 2.028 . S
Mg84 O91 1.986 . S
Mg84 O93 2.114 . S
Mg84 O94 2.251 . S
Mg84 O97 2.010 . S
O85 Mg84 2.028 . S
O85 C88 1.250 . S
O86 Mg87 2.028 . S
O86 C88 1.248 . S
Mg87 O86 2.028 . S
Mg87 O92 2.032 . S
Mg87 O94 2.079 . S
C88 O85 1.250 . S
C88 O86 1.248 . S
C89 O90 1.264 . S
C89 O97 1.249 . S
O90 C89 1.264 . S
O91 Mg84 1.986 . S
O91 C95 1.246 . S
O92 Mg87 2.032 . S
O92 C95 1.259 . S
O93 Mg84 2.114 . S
O93 C96 1.252 . S
O94 Mg84 2.251 . S
O94 Mg87 2.079 . S
O94 C96 1.273 . S
C95 O91 1.246 . S
C95 O92 1.259 . S
C96 O93 1.252 . S
C96 O94 1.273 . S
O97 Mg84 2.010 . S
O97 C89 1.249 . S
Mg98 O99 2.028 . S
Mg98 O105 1.986 . S
Mg98 O107 2.114 . S
Mg98 O108 2.251 . S
Mg98 O111 2.010 . S
O99 Mg98 2.028 . S
O99 C102 1.250 . S
O100 Mg101 2.028 . S
O100 C102 1.248 . S
Mg101 O100 2.028 . S
Mg101 O106 2.032 . S
Mg101 O108 2.079 . S
C102 O99 1.250 . S
C102 O100 1.248 . S
C103 O104 1.264 . S
C103 O111 1.249 . S
O104 C103 1.264 . S
O105 Mg98 1.986 . S
O105 C109 1.246 . S
O106 Mg101 2.032 . S
O106 C109 1.259 . S
O107 Mg98 2.114 . S
O107 C110 1.252 . S
O108 Mg98 2.251 . S
O108 Mg101 2.079 . S
O108 C110 1.273 . S
C109 O105 1.246 . S
C109 O106 1.259 . S
C110 O107 1.252 . S
C110 O108 1.273 . S
O111 Mg98 2.010 . S
O111 C103 1.249 . S
H112 C124 0.930 . S
H113 C126 0.930 . S
H114 C127 0.930 . S
H115 C131 0.959 . S
H116 C131 0.959 . S
H117 C131 0.961 . S
H118 C132 0.960 . S
H119 C132 0.961 . S
H120 C132 0.959 . S
H121 C135 0.929 . S
H122 C136 0.931 . S
H123 C138 0.930 . S
C124 H112 0.930 . S
C124 C125 1.399 1_556 S
C124 C129 1.399 1_556 S
C125 C124 1.399 1_554 S
C125 C126 1.376 . S
C126 H113 0.930 . S
C126 C125 1.376 . S
C126 C127 1.388 . S
C127 H114 0.930 . S
C127 C126 1.388 . S
C127 C128 1.390 . S
C128 C127 1.390 . S
C128 C129 1.394 . S
C128 C134 1.465 . S
C129 C124 1.399 1_554 S
C129 C128 1.394 . S
C129 C130 1.516 1_554 S
C130 C129 1.516 1_556 S
C130 C131 1.502 . S
C130 C132 1.561 . S
C130 C133 1.526 1_556 S
C131 H115 0.959 . S
C131 H116 0.959 . S
C131 H117 0.961 . S
C131 C130 1.502 . S
C132 H118 0.960 . S
C132 H119 0.961 . S
C132 H120 0.959 . S
C132 C130 1.561 . S
C133 C130 1.526 1_554 S
C133 C134 1.396 . S
C133 C138 1.390 1_554 S
C134 C128 1.465 . S
C134 C133 1.396 . S
C134 C135 1.399 . S
C135 H121 0.929 . S
C135 C134 1.399 . S
C135 C136 1.385 . S
C136 H122 0.931 . S
C136 C135 1.385 . S
C136 C137 1.389 . S
C137 C136 1.389 . S
C137 C138 1.387 1_554 S
C138 H123 0.930 . S
C138 C133 1.390 1_556 S
C138 C137 1.387 1_556 S
H139 C151 0.930 . S
H140 C153 0.930 . S
H141 C154 0.930 . S
H142 C158 0.959 . S
H143 C158 0.959 . S
H144 C158 0.961 . S
H145 C159 0.960 . S
H146 C159 0.961 . S
H147 C159 0.959 . S
H148 C162 0.929 . S
H149 C163 0.931 . S
H150 C165 0.930 . S
C151 H139 0.930 . S
C151 C152 1.399 1_556 S
C151 C156 1.399 1_556 S
C152 C151 1.399 1_554 S
C152 C153 1.376 . S
C153 H140 0.930 . S
C153 C152 1.376 . S
C153 C154 1.388 . S
C154 H141 0.930 . S
C154 C153 1.388 . S
C154 C155 1.390 . S
C155 C154 1.390 . S
C155 C156 1.394 . S
C155 C161 1.465 . S
C156 C151 1.399 1_554 S
C156 C155 1.394 . S
C156 C157 1.516 1_554 S
C157 C156 1.516 1_556 S
C157 C158 1.502 . S
C157 C159 1.561 . S
C157 C160 1.526 1_556 S
C158 H142 0.959 . S
C158 H143 0.959 . S
C158 H144 0.961 . S
C158 C157 1.502 . S
C159 H145 0.960 . S
C159 H146 0.961 . S
C159 H147 0.959 . S
C159 C157 1.561 . S
C160 C157 1.526 1_554 S
C160 C161 1.396 . S
C160 C165 1.390 1_554 S
C161 C155 1.465 . S
C161 C160 1.396 . S
C161 C162 1.399 . S
C162 H148 0.929 . S
C162 C161 1.399 . S
C162 C163 1.385 . S
C163 H149 0.931 . S
C163 C162 1.385 . S
C163 C164 1.389 . S
C164 C163 1.389 . S
C164 C165 1.387 1_554 S
C165 H150 0.930 . S
C165 C160 1.390 1_556 S
C165 C164 1.387 1_556 S
H166 C178 0.930 . S
H167 C180 0.930 . S
H168 C181 0.930 . S
H169 C185 0.959 . S
H170 C185 0.959 . S
H171 C185 0.961 . S
H172 C186 0.960 . S
H173 C186 0.961 . S
H174 C186 0.959 . S
H175 C189 0.929 . S
H176 C190 0.931 . S
H177 C192 0.930 . S
C178 H166 0.930 . S
C178 C179 1.399 . S
C178 C183 1.399 . S
C179 C178 1.399 . S
C179 C180 1.376 . S
C180 H167 0.930 . S
C180 C179 1.376 . S
C180 C181 1.388 . S
C181 H168 0.930 . S
C181 C180 1.388 . S
C181 C182 1.390 . S
C182 C181 1.390 . S
C182 C183 1.394 . S
C182 C188 1.465 . S
C183 C178 1.399 . S
C183 C182 1.394 . S
C183 C184 1.516 . S
C184 C183 1.516 . S
C184 C185 1.502 . S
C184 C186 1.561 . S
C184 C187 1.526 . S
C185 H169 0.959 . S
C185 H170 0.959 . S
C185 H171 0.961 . S
C185 C184 1.502 . S
C186 H172 0.960 . S
C186 H173 0.961 . S
C186 H174 0.959 . S
C186 C184 1.561 . S
C187 C184 1.526 . S
C187 C188 1.396 . S
C187 C192 1.390 . S
C188 C182 1.465 . S
C188 C187 1.396 . S
C188 C189 1.399 . S
C189 H175 0.929 . S
C189 C188 1.399 . S
C189 C190 1.385 . S
C190 H176 0.931 . S
C190 C189 1.385 . S
C190 C191 1.389 . S
C191 C190 1.389 . S
C191 C192 1.387 . S
C192 H177 0.930 . S
C192 C187 1.390 . S
C192 C191 1.387 . S
H193 C205 0.930 . S
H194 C207 0.930 . S
H195 C208 0.930 . S
H196 C212 0.959 . S
H197 C212 0.959 . S
H198 C212 0.961 . S
H199 C213 0.960 . S
H200 C213 0.961 . S
H201 C213 0.959 . S
H202 C216 0.929 . S
H203 C217 0.931 . S
H204 C219 0.930 . S
C205 H193 0.930 . S
C205 C206 1.399 . S
C205 C210 1.399 . S
C206 C205 1.399 . S
C206 C207 1.376 . S
C207 H194 0.930 . S
C207 C206 1.376 . S
C207 C208 1.388 . S
C208 H195 0.930 . S
C208 C207 1.388 . S
C208 C209 1.390 . S
C209 C208 1.390 . S
C209 C210 1.394 . S
C209 C215 1.465 . S
C210 C205 1.399 . S
C210 C209 1.394 . S
C210 C211 1.516 . S
C211 C210 1.516 . S
C211 C212 1.502 . S
C211 C213 1.561 . S
C211 C214 1.526 . S
C212 H196 0.959 . S
C212 H197 0.959 . S
C212 H198 0.961 . S
C212 C211 1.502 . S
C213 H199 0.960 . S
C213 H200 0.961 . S
C213 H201 0.959 . S
C213 C211 1.561 . S
C214 C211 1.526 . S
C214 C215 1.396 . S
C214 C219 1.390 . S
C215 C209 1.465 . S
C215 C214 1.396 . S
C215 C216 1.399 . S
C216 H202 0.929 . S
C216 C215 1.399 . S
C216 C217 1.385 . S
C217 H203 0.931 . S
C217 C216 1.385 . S
C217 C218 1.389 . S
C218 C217 1.389 . S
C218 C219 1.387 . S
C219 H204 0.930 . S
C219 C214 1.390 . S
C219 C218 1.387 . S
H220 C232 0.930 . S
H221 C234 0.930 . S
H222 C235 0.930 . S
H223 C239 0.959 . S
H224 C239 0.959 . S
H225 C239 0.961 . S
H226 C240 0.960 . S
H227 C240 0.961 . S
H228 C240 0.959 . S
H229 C243 0.929 . S
H230 C244 0.931 . S
H231 C246 0.930 . S
C232 H220 0.930 . S
C232 C233 1.399 . S
C232 C237 1.399 . S
C233 C232 1.399 . S
C233 C234 1.376 . S
C234 H221 0.930 . S
C234 C233 1.376 . S
C234 C235 1.388 . S
C235 H222 0.930 . S
C235 C234 1.388 . S
C235 C236 1.390 . S
C236 C235 1.390 . S
C236 C237 1.394 . S
C236 C242 1.465 . S
C237 C232 1.399 . S
C237 C236 1.394 . S
C237 C238 1.516 . S
C238 C237 1.516 . S
C238 C239 1.502 . S
C238 C240 1.561 . S
C238 C241 1.526 . S
C239 H223 0.959 . S
C239 H224 0.959 . S
C239 H225 0.961 . S
C239 C238 1.502 . S
C240 H226 0.960 . S
C240 H227 0.961 . S
C240 H228 0.959 . S
C240 C238 1.561 . S
C241 C238 1.526 . S
C241 C242 1.396 . S
C241 C246 1.390 . S
C242 C236 1.465 . S
C242 C241 1.396 . S
C242 C243 1.399 . S
C243 H229 0.929 . S
C243 C242 1.399 . S
C243 C244 1.385 . S
C244 H230 0.931 . S
C244 C243 1.385 . S
C244 C245 1.389 . S
C245 C244 1.389 . S
C245 C246 1.387 . S
C246 H231 0.930 . S
C246 C241 1.390 . S
C246 C245 1.387 . S
H247 C259 0.930 . S
H248 C261 0.930 . S
H249 C262 0.930 . S
H250 C266 0.959 . S
H251 C266 0.959 . S
H252 C266 0.961 . S
H253 C267 0.960 . S
H254 C267 0.961 . S
H255 C267 0.959 . S
H256 C270 0.929 . S
H257 C271 0.931 . S
H258 C273 0.930 . S
C259 H247 0.930 . S
C259 C260 1.399 . S
C259 C264 1.399 . S
C260 C259 1.399 . S
C260 C261 1.376 . S
C261 H248 0.930 . S
C261 C260 1.376 . S
C261 C262 1.388 . S
C262 H249 0.930 . S
C262 C261 1.388 . S
C262 C263 1.390 . S
C263 C262 1.390 . S
C263 C264 1.394 . S
C263 C269 1.465 . S
C264 C259 1.399 . S
C264 C263 1.394 . S
C264 C265 1.516 . S
C265 C264 1.516 . S
C265 C266 1.502 . S
C265 C267 1.561 . S
C265 C268 1.526 . S
C266 H250 0.959 . S
C266 H251 0.959 . S
C266 H252 0.961 . S
C266 C265 1.502 . S
C267 H253 0.960 . S
C267 H254 0.961 . S
C267 H255 0.959 . S
C267 C265 1.561 . S
C268 C265 1.526 . S
C268 C269 1.396 . S
C268 C273 1.390 . S
C269 C263 1.465 . S
C269 C268 1.396 . S
C269 C270 1.399 . S
C270 H256 0.929 . S
C270 C269 1.399 . S
C270 C271 1.385 . S
C271 H257 0.931 . S
C271 C270 1.385 . S
C271 C272 1.389 . S
C272 C271 1.389 . S
C272 C273 1.387 . S
C273 H258 0.930 . S
C273 C268 1.390 . S
C273 C272 1.387 . S
H274 C286 0.930 . S
H275 C288 0.930 . S
H276 C289 0.930 . S
H277 C293 0.959 . S
H278 C293 0.959 . S
H279 C293 0.961 . S
H280 C294 0.960 . S
H281 C294 0.961 . S
H282 C294 0.959 . S
H283 C297 0.929 . S
H284 C298 0.931 . S
H285 C300 0.930 . S
C286 H274 0.930 . S
C286 C287 1.399 . S
C286 C291 1.399 . S
C287 C286 1.399 . S
C287 C288 1.376 . S
C288 H275 0.930 . S
C288 C287 1.376 . S
C288 C289 1.388 . S
C289 H276 0.930 . S
C289 C288 1.388 . S
C289 C290 1.390 . S
C290 C289 1.390 . S
C290 C291 1.394 . S
C290 C296 1.465 . S
C291 C286 1.399 . S
C291 C290 1.394 . S
C291 C292 1.516 . S
C292 C291 1.516 . S
C292 C293 1.502 . S
C292 C294 1.561 . S
C292 C295 1.526 . S
C293 H277 0.959 . S
C293 H278 0.959 . S
C293 H279 0.961 . S
C293 C292 1.502 . S
C294 H280 0.960 . S
C294 H281 0.961 . S
C294 H282 0.959 . S
C294 C292 1.561 . S
C295 C292 1.526 . S
C295 C296 1.396 . S
C295 C300 1.390 . S
C296 C290 1.465 . S
C296 C295 1.396 . S
C296 C297 1.399 . S
C297 H283 0.929 . S
C297 C296 1.399 . S
C297 C298 1.385 . S
C298 H284 0.931 . S
C298 C297 1.385 . S
C298 C299 1.389 . S
C299 C298 1.389 . S
C299 C300 1.387 . S
C300 H285 0.930 . S
C300 C295 1.390 . S
C300 C299 1.387 . S
H301 C313 0.930 . S
H302 C315 0.930 . S
H303 C316 0.930 . S
H304 C320 0.959 . S
H305 C320 0.959 . S
H306 C320 0.961 . S
H307 C321 0.960 . S
H308 C321 0.961 . S
H309 C321 0.959 . S
H310 C324 0.929 . S
H311 C325 0.931 . S
H312 C327 0.930 . S
C313 H301 0.930 . S
C313 C314 1.399 . S
C313 C318 1.399 . S
C314 C313 1.399 . S
C314 C315 1.376 . S
C315 H302 0.930 . S
C315 C314 1.376 . S
C315 C316 1.388 . S
C316 H303 0.930 . S
C316 C315 1.388 . S
C316 C317 1.390 . S
C317 C316 1.390 . S
C317 C318 1.394 . S
C317 C323 1.465 . S
C318 C313 1.399 . S
C318 C317 1.394 . S
C318 C319 1.516 . S
C319 C318 1.516 . S
C319 C320 1.502 . S
C319 C321 1.561 . S
C319 C322 1.526 . S
C320 H304 0.959 . S
C320 H305 0.959 . S
C320 H306 0.961 . S
C320 C319 1.502 . S
C321 H307 0.960 . S
C321 H308 0.961 . S
C321 H309 0.959 . S
C321 C319 1.561 . S
C322 C319 1.526 . S
C322 C323 1.396 . S
C322 C327 1.390 . S
C323 C317 1.465 . S
C323 C322 1.396 . S
C323 C324 1.399 . S
C324 H310 0.929 . S
C324 C323 1.399 . S
C324 C325 1.385 . S
C325 H311 0.931 . S
C325 C324 1.385 . S
C325 C326 1.389 . S
C326 C325 1.389 . S
C326 C327 1.387 . S
C327 H312 0.930 . S
C327 C322 1.390 . S
C327 C326 1.387 . S
H328 C340 0.930 . S
H329 C342 0.930 . S
H330 C343 0.930 . S
H331 C347 0.959 . S
H332 C347 0.959 . S
H333 C347 0.961 . S
H334 C348 0.960 . S
H335 C348 0.961 . S
H336 C348 0.959 . S
H337 C351 0.929 . S
H338 C352 0.931 . S
H339 C354 0.930 . S
C340 H328 0.930 . S
C340 C341 1.399 . S
C340 C345 1.399 . S
C341 C340 1.399 . S
C341 C342 1.376 . S
C342 H329 0.930 . S
C342 C341 1.376 . S
C342 C343 1.388 1_565 S
C343 H330 0.930 . S
C343 C342 1.388 1_545 S
C343 C344 1.390 . S
C344 C343 1.390 . S
C344 C345 1.394 1_545 S
C344 C350 1.465 . S
C345 C340 1.399 . S
C345 C344 1.394 1_565 S
C345 C346 1.516 . S
C346 C345 1.516 . S
C346 C347 1.502 . S
C346 C348 1.561 . S
C346 C349 1.526 1_565 S
C347 H331 0.959 . S
C347 H332 0.959 . S
C347 H333 0.961 . S
C347 C346 1.502 . S
C348 H334 0.960 . S
C348 H335 0.961 . S
C348 H336 0.959 . S
C348 C346 1.561 . S
C349 C346 1.526 1_545 S
C349 C350 1.396 . S
C349 C354 1.390 . S
C350 C344 1.465 . S
C350 C349 1.396 . S
C350 C351 1.399 . S
C351 H337 0.929 . S
C351 C350 1.399 . S
C351 C352 1.385 . S
C352 H338 0.931 . S
C352 C351 1.385 . S
C352 C353 1.389 . S
C353 C352 1.389 . S
C353 C354 1.387 . S
C354 H339 0.930 . S
C354 C349 1.390 . S
C354 C353 1.387 . S
H355 C367 0.930 . S
H356 C369 0.930 . S
H357 C370 0.930 . S
H358 C374 0.959 . S
H359 C374 0.959 . S
H360 C374 0.961 . S
H361 C375 0.960 . S
H362 C375 0.961 . S
H363 C375 0.959 . S
H364 C378 0.929 . S
H365 C379 0.931 . S
H366 C381 0.930 . S
C367 H355 0.930 . S
C367 C368 1.399 . S
C367 C372 1.399 . S
C368 C367 1.399 . S
C368 C369 1.376 . S
C369 H356 0.930 . S
C369 C368 1.376 . S
C369 C370 1.388 1_565 S
C370 H357 0.930 . S
C370 C369 1.388 1_545 S
C370 C371 1.390 . S
C371 C370 1.390 . S
C371 C372 1.394 1_545 S
C371 C377 1.465 . S
C372 C367 1.399 . S
C372 C371 1.394 1_565 S
C372 C373 1.516 . S
C373 C372 1.516 . S
C373 C374 1.502 . S
C373 C375 1.561 . S
C373 C376 1.526 1_565 S
C374 H358 0.959 . S
C374 H359 0.959 . S
C374 H360 0.961 . S
C374 C373 1.502 . S
C375 H361 0.960 . S
C375 H362 0.961 . S
C375 H363 0.959 . S
C375 C373 1.561 . S
C376 C373 1.526 1_545 S
C376 C377 1.396 . S
C376 C381 1.390 . S
C377 C371 1.465 . S
C377 C376 1.396 . S
C377 C378 1.399 . S
C378 H364 0.929 . S
C378 C377 1.399 . S
C378 C379 1.385 . S
C379 H365 0.931 . S
C379 C378 1.385 . S
C379 C380 1.389 . S
C380 C379 1.389 . S
C380 C381 1.387 . S
C381 H366 0.930 . S
C381 C376 1.390 . S
C381 C380 1.387 . S
H382 C394 0.930 . S
H383 C396 0.930 . S
H384 C397 0.930 . S
H385 C401 0.959 1_565 S
H386 C401 0.959 . S
H387 C401 0.961 . S
H388 C402 0.960 . S
H389 C402 0.961 . S
H390 C402 0.959 . S
H391 C405 0.929 . S
H392 C406 0.931 . S
H393 C408 0.930 . S
C394 H382 0.930 . S
C394 C395 1.399 . S
C394 C399 1.399 . S
C395 C394 1.399 . S
C395 C396 1.376 . S
C396 H383 0.930 . S
C396 C395 1.376 . S
C396 C397 1.388 . S
C397 H384 0.930 . S
C397 C396 1.388 . S
C397 C398 1.390 . S
C398 C397 1.390 . S
C398 C399 1.394 . S
C398 C404 1.465 1_565 S
C399 C394 1.399 . S
C399 C398 1.394 . S
C399 C400 1.516 1_565 S
C400 C399 1.516 1_545 S
C400 C401 1.502 . S
C400 C402 1.561 . S
C400 C403 1.526 . S
C401 H385 0.959 1_545 S
C401 H386 0.959 . S
C401 H387 0.961 . S
C401 C400 1.502 . S
C402 H388 0.960 . S
C402 H389 0.961 . S
C402 H390 0.959 . S
C402 C400 1.561 . S
C403 C400 1.526 . S
C403 C404 1.396 . S
C403 C408 1.390 . S
C404 C398 1.465 1_545 S
C404 C403 1.396 . S
C404 C405 1.399 1_545 S
C405 H391 0.929 . S
C405 C404 1.399 1_565 S
C405 C406 1.385 1_565 S
C406 H392 0.931 . S
C406 C405 1.385 1_545 S
C406 C407 1.389 . S
C407 C406 1.389 . S
C407 C408 1.387 . S
C408 H393 0.930 . S
C408 C403 1.390 . S
C408 C407 1.387 . S
H409 C421 0.930 1_545 S
H410 C423 0.930 . S
H411 C424 0.930 . S
H412 C428 0.959 . S
H413 C428 0.959 . S
H414 C428 0.961 . S
H415 C429 0.960 . S
H416 C429 0.961 . S
H417 C429 0.959 . S
H418 C432 0.929 . S
H419 C433 0.931 1_565 S
H420 C435 0.930 . S
C421 H409 0.930 1_565 S
C421 C422 1.399 . S
C421 C426 1.399 1_565 S
C422 C421 1.399 . S
C422 C423 1.376 . S
C423 H410 0.930 . S
C423 C422 1.376 . S
C423 C424 1.388 . S
C424 H411 0.930 . S
C424 C423 1.388 . S
C424 C425 1.390 . S
C425 C424 1.390 . S
C425 C426 1.394 1_565 S
C425 C431 1.465 . S
C426 C421 1.399 1_545 S
C426 C425 1.394 1_545 S
C426 C427 1.516 . S
C427 C426 1.516 . S
C427 C428 1.502 . S
C427 C429 1.561 . S
C427 C430 1.526 . S
C428 H412 0.959 . S
C428 H413 0.959 . S
C428 H414 0.961 . S
C428 C427 1.502 . S
C429 H415 0.960 . S
C429 H416 0.961 . S
C429 H417 0.959 . S
C429 C427 1.561 . S
C430 C427 1.526 . S
C430 C431 1.396 1_545 S
C430 C435 1.390 . S
C431 C425 1.465 . S
C431 C430 1.396 1_565 S
C431 C432 1.399 . S
C432 H418 0.929 . S
C432 C431 1.399 . S
C432 C433 1.385 1_565 S
C433 H419 0.931 1_545 S
C433 C432 1.385 1_545 S
C433 C434 1.389 . S
C434 C433 1.389 . S
C434 C435 1.387 . S
C435 H420 0.930 . S
C435 C430 1.390 . S
C435 C434 1.387 . S
H436 C448 0.930 . S
H437 C450 0.930 . S
H438 C451 0.930 . S
H439 C455 0.959 . S
H440 C455 0.959 . S
H441 C455 0.961 . S
H442 C456 0.960 1_565 S
H443 C456 0.961 . S
H444 C456 0.959 . S
H445 C459 0.929 . S
H446 C460 0.931 . S
H447 C462 0.940 . S
C448 H436 0.930 . S
C448 C449 1.399 1_556 S
C448 C453 1.399 1_556 S
C449 C448 1.399 1_554 S
C449 C450 1.376 . S
C450 H437 0.930 . S
C450 C449 1.376 . S
C450 C451 1.388 . S
C451 H438 0.930 . S
C451 C450 1.388 . S
C451 C452 1.390 . S
C452 C451 1.390 . S
C452 C453 1.394 . S
C452 C458 1.465 1_565 S
C453 C448 1.399 1_554 S
C453 C452 1.394 . S
C453 C454 1.516 1_554 S
C454 C453 1.516 1_556 S
C454 C455 1.502 . S
C454 C456 1.561 1_565 S
C454 C457 1.526 1_566 S
C455 H439 0.959 . S
C455 H440 0.959 . S
C455 H441 0.961 . S
C455 C454 1.502 . S
C456 H442 0.960 1_545 S
C456 H443 0.961 . S
C456 H444 0.959 . S
C456 C454 1.561 1_545 S
C457 C454 1.526 1_544 S
C457 C458 1.396 . S
C457 C462 1.388 1_554 S
C458 C452 1.465 1_545 S
C458 C457 1.396 . S
C458 C459 1.399 . S
C459 H445 0.929 . S
C459 C458 1.399 . S
C459 C460 1.385 . S
C460 H446 0.931 . S
C460 C459 1.385 . S
C460 C461 1.389 . S
C461 C460 1.389 . S
C461 C462 1.378 1_554 S
C462 H447 0.940 . S
C462 C457 1.388 1_556 S
C462 C461 1.378 1_556 S
H463 C475 0.930 . S
H464 C477 0.930 . S
H465 C478 0.930 . S
H466 C482 0.959 . S
H467 C482 0.959 1_545 S
H468 C482 0.961 . S
H469 C483 0.960 1_565 S
H470 C483 0.961 . S
H471 C483 0.959 . S
H472 C486 0.929 . S
H473 C487 0.931 . S
H474 C489 0.930 . S
C475 H463 0.930 . S
C475 C476 1.399 . S
C475 C480 1.399 . S
C476 C475 1.399 . S
C476 C477 1.376 . S
C477 H464 0.930 . S
C477 C476 1.376 . S
C477 C478 1.388 . S
C478 H465 0.930 . S
C478 C477 1.388 . S
C478 C479 1.390 . S
C479 C478 1.390 . S
C479 C480 1.394 . S
C479 C485 1.465 1_565 S
C480 C475 1.399 . S
C480 C479 1.394 . S
C480 C481 1.516 . S
C481 C480 1.516 . S
C481 C482 1.502 . S
C481 C483 1.561 1_565 S
C481 C484 1.526 1_565 S
C482 H466 0.959 . S
C482 H467 0.959 1_565 S
C482 H468 0.961 . S
C482 C481 1.502 . S
C483 H469 0.960 1_545 S
C483 H470 0.961 . S
C483 H471 0.959 . S
C483 C481 1.561 1_545 S
C484 C481 1.526 1_545 S
C484 C485 1.396 . S
C484 C489 1.390 . S
C485 C479 1.465 1_545 S
C485 C484 1.396 . S
C485 C486 1.399 . S
C486 H472 0.929 . S
C486 C485 1.399 . S
C486 C487 1.385 . S
C487 H473 0.931 . S
C487 C486 1.385 . S
C487 C488 1.389 . S
C488 C487 1.389 . S
C488 C489 1.387 . S
C489 H474 0.930 . S
C489 C484 1.390 . S
C489 C488 1.387 . S
H490 C502 0.930 1_556 S
H491 C504 0.930 . S
H492 C505 0.930 . S
H493 C509 0.959 1_554 S
H494 C509 0.959 . S
H495 C509 0.961 . S
H496 C510 0.967 . S
H497 C510 0.961 . S
H498 C510 0.959 1_455 S
H499 C513 0.929 . S
H500 C514 0.931 . S
H501 C516 0.930 1_556 S
C502 H490 0.930 1_554 S
C502 C503 1.399 . S
C502 C507 1.399 . S
C503 C502 1.399 . S
C503 C504 1.376 . S
C504 H491 0.930 . S
C504 C503 1.376 . S
C504 C505 1.388 . S
C505 H492 0.930 . S
C505 C504 1.388 . S
C505 C506 1.390 . S
C506 C505 1.390 . S
C506 C507 1.394 . S
C506 C512 1.465 . S
C507 C502 1.399 . S
C507 C506 1.394 . S
C507 C508 1.516 1_454 S
C508 C507 1.516 1_656 S
C508 C509 1.502 . S
C508 C510 1.561 . S
C508 C511 1.526 1_556 S
C509 H493 0.959 1_556 S
C509 H494 0.959 . S
C509 H495 0.961 . S
C509 C508 1.502 . S
C510 H496 0.967 . S
C510 H497 0.961 . S
C510 H498 0.959 1_655 S
C510 C508 1.561 . S
C511 C508 1.526 1_554 S
C511 C512 1.396 1_655 S
C511 C516 1.390 . S
C512 C506 1.465 . S
C512 C511 1.396 1_455 S
C512 C513 1.399 . S
C513 H499 0.929 . S
C513 C512 1.399 . S
C513 C514 1.385 1_455 S
C514 H500 0.931 . S
C514 C513 1.385 1_655 S
C514 C515 1.389 . S
C515 C514 1.389 . S
C515 C516 1.387 . S
C516 H501 0.930 1_554 S
C516 C511 1.390 . S
C516 C515 1.387 . S
H517 C529 0.930 . S
H518 C531 0.930 . S
H519 C532 0.930 . S
H520 C536 0.959 . S
H521 C536 0.959 . S
H522 C536 0.961 . S
H523 C537 0.960 . S
H524 C537 0.961 . S
H525 C537 0.959 . S
H526 C540 0.929 1_455 S
H527 C541 0.931 . S
H528 C543 0.930 . S
C529 H517 0.930 . S
C529 C530 1.399 . S
C529 C534 1.399 . S
C530 C529 1.399 . S
C530 C531 1.376 . S
C531 H518 0.930 . S
C531 C530 1.376 . S
C531 C532 1.388 . S
C532 H519 0.930 . S
C532 C531 1.388 . S
C532 C533 1.390 . S
C533 C532 1.390 . S
C533 C534 1.394 . S
C533 C539 1.449 1_455 S
C534 C529 1.399 . S
C534 C533 1.394 . S
C534 C535 1.516 1_455 S
C535 C534 1.516 1_655 S
C535 C536 1.502 . S
C535 C537 1.561 1_655 S
C535 C538 1.526 . S
C536 H520 0.959 . S
C536 H521 0.959 . S
C536 H522 0.961 . S
C536 C535 1.502 . S
C537 H523 0.960 . S
C537 H524 0.961 . S
C537 H525 0.959 . S
C537 C535 1.561 1_455 S
C538 C535 1.526 . S
C538 C539 1.410 . S
C538 C543 1.390 . S
C539 C533 1.449 1_655 S
C539 C538 1.410 . S
C539 C540 1.403 . S
C540 H526 0.929 1_655 S
C540 C539 1.403 . S
C540 C541 1.385 . S
C541 H527 0.931 . S
C541 C540 1.385 . S
C541 C542 1.389 . S
C542 C541 1.389 . S
C542 C543 1.387 . S
C543 H528 0.930 . S
C543 C538 1.390 . S
C543 C542 1.387 . S
C125 C74 1.457 . S
C137 C4 1.448 . S
C152 C60 1.461 . S
C164 C18 1.448 . S
C179 C102 1.447 . S
C191 C32 1.455 . S
C206 C88 1.453 . S
C218 C46 1.449 . S
C233 C12 1.404 . S
C245 C40 1.402 . S
C260 C26 1.387 . S
C272 C54 1.389 . S
C287 C19 1.316 . S
C299 C47 1.308 . S
C314 C5 1.318 . S
C326 C33 1.299 . S
C341 C68 1.387 . S
C353 C96 1.390 . S
C368 C110 1.388 . S
C380 C82 1.390 . S
C395 C103 1.318 . S
C407 C75 1.300 . S
C422 C61 1.309 . S
C434 C89 1.264 . S
C449 C25 1.467 . S
C461 C11 1.493 . S
C476 C39 1.468 . S
C488 C53 1.485 . S
C503 C67 1.468 . S
C515 C81 1.498 . S
C530 C95 1.467 . S
C542 C109 1.487 . S
