# Generated by pormake.
# Topology utp, (3)-cn, num edge types: 1
# Building blocks:
#     Node 0, Type 0, BuildingBlock: OLANEW_clean_sbu_2, # of connection points: 3
#     Node 1, Type 0, BuildingBlock: OLANEW_clean_sbu_2, # of connection points: 3
#     Node 2, Type 0, BuildingBlock: OLANEW_clean_sbu_2, # of connection points: 3
#     Node 3, Type 0, BuildingBlock: OLANEW_clean_sbu_2, # of connection points: 3
#     Node 4, Type 0, BuildingBlock: OLANEW_clean_sbu_2, # of connection points: 3
#     Node 5, Type 0, BuildingBlock: OLANEW_clean_sbu_2, # of connection points: 3
#     Node 6, Type 0, BuildingBlock: OLANEW_clean_sbu_2, # of connection points: 3
#     Node 7, Type 0, BuildingBlock: OLANEW_clean_sbu_2, # of connection points: 3
#     Edge 8, Type (0, 0), BuildingBlock: XUDNAN_clean_linker_2, # of connection points: 2
#     Edge 9, Type (0, 0), BuildingBlock: XUDNAN_clean_linker_2, # of connection points: 2
#     Edge 10, Type (0, 0), BuildingBlock: XUDNAN_clean_linker_2, # of connection points: 2
#     Edge 11, Type (0, 0), BuildingBlock: XUDNAN_clean_linker_2, # of connection points: 2
#     Edge 12, Type (0, 0), BuildingBlock: XUDNAN_clean_linker_2, # of connection points: 2
#     Edge 13, Type (0, 0), BuildingBlock: XUDNAN_clean_linker_2, # of connection points: 2
#     Edge 14, Type (0, 0), BuildingBlock: XUDNAN_clean_linker_2, # of connection points: 2
#     Edge 15, Type (0, 0), BuildingBlock: XUDNAN_clean_linker_2, # of connection points: 2
#     Edge 16, Type (0, 0), BuildingBlock: XUDNAN_clean_linker_2, # of connection points: 2
#     Edge 17, Type (0, 0), BuildingBlock: XUDNAN_clean_linker_2, # of connection points: 2
#     Edge 18, Type (0, 0), BuildingBlock: XUDNAN_clean_linker_2, # of connection points: 2
#     Edge 19, Type (0, 0), BuildingBlock: XUDNAN_clean_linker_2, # of connection points: 2
# Relax obj value: 0.000
# Max RMSD: 0.045
# Mean RMSD: 0.045
data_MOF--net-utp--node1-OLANEW_clean_sbu_2--edge1-XUDNAN_clean_linker_2
_symmetry_space_group_name_H-M    P1
_symmetry_Int_Tables_number       1
_symmetry_cell_setting            triclinic
loop_
_symmetry_equiv_pos_as_xyz
'x, y, z'
_cell_length_a     41.117732
_cell_length_b     47.094153
_cell_length_c     38.953175
_cell_angle_alpha  90.031057
_cell_angle_beta   89.996985
_cell_angle_gamma 90.013079
loop_
_atom_site_label
_atom_site_type_symbol
_atom_site_fract_x
_atom_site_fract_y
_atom_site_fract_z
_atom_type_partial_charge
O0 O 0.12977 0.07233 0.2672 0.0
Cd1 Cd 0.09359 0.10666 0.29467 0.0
O2 O 0.09305 0.06822 0.22676 0.0
Cd3 Cd 0.0747 0.05308 0.17726 0.0
O4 O 0.06131 0.03315 0.12868 0.0
C5 C 0.08363 0.02481 0.10848 0.0
O6 O 0.11415 0.0288 0.11725 0.0
C7 C 0.1203 0.06085 0.23942 0.0
C8 C 0.11179 0.16308 0.28418 0.0
O9 O 0.1211 0.14952 0.31096 0.0
O10 O 0.09424 0.14983 0.26218 0.0
O11 O 0.32112 0.9546 0.14617 0.0
Cd12 Cd 0.37399 0.9356 0.12867 0.0
O13 O 0.29273 0.93011 0.10845 0.0
Cd14 Cd 0.33674 0.91459 0.08334 0.0
O15 O 0.38388 0.91057 0.05787 0.0
C16 C 0.39642 0.93347 0.04681 0.0
O17 O 0.38038 0.95735 0.05104 0.0
C18 C 0.29379 0.94744 0.13351 0.0
C19 C 0.38686 0.88349 0.16006 0.0
O20 O 0.39508 0.90689 0.17446 0.0
O21 O 0.37265 0.88474 0.13084 0.0
O22 O 0.1952 0.4515 0.32853 0.0
Cd23 Cd 0.14573 0.42283 0.33323 0.0
O24 O 0.17152 0.47598 0.3689 0.0
Cd25 Cd 0.15959 0.50988 0.40522 0.0
O26 O 0.12558 0.52915 0.44154 0.0
C27 C 0.09798 0.51701 0.44261 0.0
O28 O 0.09278 0.49512 0.4224 0.0
C29 C 0.19557 0.47269 0.34874 0.0
C30 C 0.14844 0.36729 0.30855 0.0
O31 O 0.14076 0.38797 0.28875 0.0
O32 O 0.15589 0.37303 0.33976 0.0
O33 O 0.37876 0.60145 0.25799 0.0
Cd34 Cd 0.425 0.62538 0.23121 0.0
O35 O 0.40238 0.607 0.30787 0.0
Cd36 Cd 0.41097 0.6005 0.36276 0.0
O37 O 0.42737 0.5941 0.41554 0.0
C38 C 0.45467 0.58211 0.42042 0.0
O39 O 0.47176 0.57396 0.39366 0.0
C40 C 0.37861 0.59762 0.29028 0.0
C41 C 0.41758 0.68411 0.22673 0.0
O42 O 0.40772 0.66774 0.20257 0.0
O43 O 0.43065 0.67266 0.25319 0.0
O44 O 0.8609 0.88679 0.78906 0.0
Cd45 Cd 0.89768 0.85243 0.76235 0.0
O46 O 0.9017 0.89471 0.8238 0.0
Cd47 Cd 0.92713 0.91438 0.86716 0.0
O48 O 0.95589 0.93364 0.9082 0.0
C49 C 0.98671 0.93356 0.90573 0.0
O50 O 0.00022 0.92191 0.87859 0.0
C51 C 0.87304 0.90077 0.81385 0.0
C52 C 0.86906 0.81149 0.72034 0.0
O53 O 0.87476 0.80642 0.75212 0.0
O54 O 0.87606 0.8362 0.70869 0.0
O55 O 0.7176 0.069 0.89134 0.0
Cd56 Cd 0.66942 0.09667 0.90641 0.0
O57 O 0.68672 0.03221 0.90099 0.0
Cd58 Cd 0.67055 0.98861 0.90997 0.0
O59 O 0.63049 0.96312 0.93021 0.0
C60 C 0.60541 0.97777 0.93735 0.0
O61 O 0.60619 0.00525 0.93157 0.0
C62 C 0.71434 0.04219 0.89262 0.0
C63 C 0.65353 0.13868 0.85893 0.0
O64 O 0.6715 0.14428 0.88497 0.0
O65 O 0.6435 0.1131 0.85509 0.0
O66 O 0.78315 0.5521 0.57714 0.0
Cd67 Cd 0.83164 0.58093 0.56556 0.0
O68 O 0.79507 0.54451 0.63154 0.0
Cd69 Cd 0.8444 0.5605 0.62451 0.0
O70 O 0.89343 0.56507 0.60354 0.0
C71 C 0.90062 0.54782 0.57962 0.0
O72 O 0.87869 0.52919 0.56983 0.0
C73 C 0.77558 0.54199 0.60636 0.0
C74 C 0.82863 0.63589 0.59281 0.0
O75 O 0.81875 0.63078 0.56222 0.0
O76 O 0.83954 0.61508 0.6105 0.0
O77 O 0.60361 0.39485 0.69288 0.0
Cd78 Cd 0.56402 0.36822 0.72672 0.0
O79 O 0.57627 0.43343 0.70581 0.0
Cd80 Cd 0.56619 0.47804 0.69513 0.0
O81 O 0.54642 0.51051 0.66118 0.0
C82 C 0.55659 0.51062 0.63037 0.0
O83 O 0.57973 0.4928 0.62156 0.0
C84 C 0.59994 0.42155 0.69056 0.0
C85 C 0.58521 0.31381 0.74377 0.0
O86 O 0.569 0.31827 0.71619 0.0
O87 O 0.59163 0.33514 0.76308 0.0
H88 H 0.13805 0.19962 0.33145 0.0
H89 H 0.10329 0.19526 0.22636 0.0
H90 H 0.11368 0.24661 0.21954 0.0
H91 H 0.10135 0.26466 0.35142 0.0
H92 H 0.13404 0.27736 0.37817 0.0
H93 H 0.12724 0.23981 0.3736 0.0
H94 H 0.18677 0.23312 0.35327 0.0
H95 H 0.19377 0.27072 0.35781 0.0
H96 H 0.20163 0.25345 0.31734 0.0
H97 H 0.1242 0.29893 0.22545 0.0
H98 H 0.13245 0.34851 0.24415 0.0
H99 H 0.15961 0.31876 0.34565 0.0
C100 C 0.13317 0.20935 0.3068 0.0
C101 C 0.12004 0.1934 0.27936 0.0
C102 C 0.11344 0.20704 0.24771 0.0
C103 C 0.11937 0.23618 0.24355 0.0
C104 C 0.1319 0.25136 0.27127 0.0
C105 C 0.13873 0.23842 0.30229 0.0
C106 C 0.14991 0.25987 0.32877 0.0
C107 C 0.12674 0.26046 0.35981 0.0
C108 C 0.18511 0.25393 0.33994 0.0
C109 C 0.14764 0.28697 0.30803 0.0
C110 C 0.13759 0.28158 0.27481 0.0
C111 C 0.13239 0.3034 0.2513 0.0
C112 C 0.13713 0.3315 0.26217 0.0
C113 C 0.14677 0.33754 0.29633 0.0
C114 C 0.15252 0.31486 0.31929 0.0
H115 H 0.37415 0.83042 0.13447 0.0
H116 H 0.41473 0.87394 0.22294 0.0
H117 H 0.42601 0.82764 0.25028 0.0
H118 H 0.33555 0.77354 0.18112 0.0
H119 H 0.3447 0.74717 0.14899 0.0
H120 H 0.3394 0.78374 0.1367 0.0
H121 H 0.3963 0.78359 0.10806 0.0
H122 H 0.40176 0.74703 0.12021 0.0
H123 H 0.43134 0.77326 0.1329 0.0
H124 H 0.43337 0.77646 0.26764 0.0
H125 H 0.43694 0.72432 0.27336 0.0
H126 H 0.39165 0.71456 0.17335 0.0
C127 C 0.38534 0.83026 0.15964 0.0
C128 C 0.39354 0.85581 0.17659 0.0
C129 C 0.40823 0.85464 0.20946 0.0
C130 C 0.4147 0.82845 0.22522 0.0
C131 C 0.40632 0.80367 0.20776 0.0
C132 C 0.39199 0.80436 0.17569 0.0
C133 C 0.38578 0.77471 0.16217 0.0
C134 C 0.34918 0.76949 0.15695 0.0
C135 C 0.40495 0.76934 0.12887 0.0
C136 C 0.39898 0.75719 0.19159 0.0
C137 C 0.41064 0.77427 0.21769 0.0
C138 C 0.42427 0.76288 0.24739 0.0
C139 C 0.42618 0.73323 0.2504 0.0
C140 C 0.41456 0.71534 0.22383 0.0
C141 C 0.40069 0.72762 0.19415 0.0
H142 H 0.86594 0.75443 0.73312 0.0
H143 H 0.84492 0.81765 0.65521 0.0
H144 H 0.82822 0.77958 0.6152 0.0
H145 H 0.90158 0.70502 0.67749 0.0
H146 H 0.88571 0.67413 0.69906 0.0
H147 H 0.89246 0.7064 0.72274 0.0
H148 H 0.83231 0.70631 0.74262 0.0
H149 H 0.82538 0.67392 0.71909 0.0
H150 H 0.80032 0.7046 0.71104 0.0
H151 H 0.81707 0.73433 0.58255 0.0
H152 H 0.81378 0.68551 0.55943 0.0
H153 H 0.84369 0.65218 0.65839 0.0
C154 C 0.8572 0.76033 0.70789 0.0
C155 C 0.85647 0.78902 0.69736 0.0
C156 C 0.84554 0.79581 0.66386 0.0
C157 C 0.83594 0.77434 0.64099 0.0
C158 C 0.8375 0.74622 0.652 0.0
C159 C 0.84786 0.73919 0.68467 0.0
C160 C 0.84948 0.70732 0.68941 0.0
C161 C 0.88438 0.69766 0.69764 0.0
C162 C 0.82543 0.69746 0.71718 0.0
C163 C 0.83897 0.6975 0.65412 0.0
C164 C 0.83178 0.72022 0.63301 0.0
C165 C 0.82241 0.71637 0.59893 0.0
C166 C 0.82062 0.68857 0.58602 0.0
C167 C 0.82847 0.66503 0.60708 0.0
C168 C 0.83745 0.66969 0.64164 0.0
H169 H 0.62139 0.29801 0.79969 0.0
H170 H 0.57184 0.26397 0.71025 0.0
H171 H 0.58651 0.21537 0.72833 0.0
H172 H 0.68801 0.24662 0.80058 0.0
H173 H 0.68913 0.24499 0.8468 0.0
H174 H 0.67631 0.27712 0.82569 0.0
H175 H 0.6222 0.27609 0.85981 0.0
H176 H 0.63481 0.24396 0.88096 0.0
H177 H 0.59683 0.2449 0.85788 0.0
H178 H 0.60348 0.17036 0.75826 0.0
H179 H 0.62247 0.1324 0.79717 0.0
H180 H 0.66177 0.19608 0.8663 0.0
C181 C 0.61389 0.28038 0.78369 0.0
C182 C 0.59547 0.2848 0.75354 0.0
C183 C 0.58603 0.26112 0.73342 0.0
C184 C 0.59426 0.23343 0.74346 0.0
C185 C 0.61213 0.22981 0.77353 0.0
C186 C 0.622 0.25265 0.79324 0.0
C187 C 0.64011 0.243 0.82499 0.0
C188 C 0.67549 0.25356 0.82446 0.0
C189 C 0.62242 0.25255 0.85784 0.0
C190 C 0.63838 0.21112 0.8204 0.0
C191 C 0.62224 0.20393 0.79052 0.0
C192 C 0.61644 0.17573 0.78156 0.0
C193 C 0.62726 0.15433 0.80385 0.0
C194 C 0.64374 0.16127 0.83467 0.0
C195 C 0.64957 0.19007 0.84276 0.0
H196 H 0.28773 0.99249 0.17764 0.0
H197 H 0.23113 0.93063 0.12045 0.0
H198 H 0.18048 0.95208 0.14268 0.0
H199 H 0.23577 0.99592 0.25247 0.0
H200 H 0.24125 0.03362 0.25806 0.0
H201 H 0.273 0.01266 0.23875 0.0
H202 H 0.27246 0.0455 0.18536 0.0
H203 H 0.2407 0.06653 0.20449 0.0
H204 H 0.23485 0.05115 0.16256 0.0
H205 H 0.13604 0.98015 0.17151 0.0
H206 H 0.1011 0.01406 0.2027 0.0
H207 H 0.1867 0.05905 0.23843 0.0
C208 C 0.26471 0.98326 0.16999 0.0
C209 C 0.2634 0.95977 0.14743 0.0
C210 C 0.23274 0.9486 0.13773 0.0
C211 C 0.20385 0.96059 0.15028 0.0
C212 C 0.20604 0.98381 0.17234 0.0
C213 C 0.23568 0.9951 0.18201 0.0
C214 C 0.23135 0.02073 0.20505 0.0
C215 C 0.24622 0.0154 0.2407 0.0
C216 C 0.24568 0.04756 0.18836 0.0
C217 C 0.19462 0.02216 0.20678 0.0
C218 C 0.18048 0.00057 0.18792 0.0
C219 C 0.14685 0.99738 0.18593 0.0
C220 C 0.12717 0.01702 0.20329 0.0
C221 C 0.14115 0.03979 0.2219 0.0
C222 C 0.17533 0.04202 0.22407 0.0
H223 H 0.3421 0.55603 0.26065 0.0
H224 H 0.35352 0.60338 0.35542 0.0
H225 H 0.30875 0.57579 0.38151 0.0
H226 H 0.2551 0.55276 0.26267 0.0
H227 H 0.25319 0.51743 0.24497 0.0
H228 H 0.28675 0.54036 0.23436 0.0
H229 H 0.3273 0.50216 0.25586 0.0
H230 H 0.29385 0.4791 0.26654 0.0
H231 H 0.32335 0.48844 0.29886 0.0
H232 H 0.262 0.54304 0.39686 0.0
H233 H 0.21733 0.50806 0.40012 0.0
H234 H 0.23587 0.48332 0.29464 0.0
C235 C 0.33523 0.56057 0.28694 0.0
C236 C 0.35182 0.58139 0.30631 0.0
C237 C 0.34199 0.58682 0.34052 0.0
C238 C 0.31632 0.57148 0.35542 0.0
C239 C 0.30068 0.55088 0.33567 0.0
C240 C 0.30978 0.54545 0.30215 0.0
C241 C 0.28892 0.52246 0.28624 0.0
C242 C 0.26986 0.53395 0.25523 0.0
C243 C 0.30959 0.49651 0.27631 0.0
C244 C 0.26655 0.51583 0.316 0.0
C245 C 0.27365 0.53243 0.34429 0.0
C246 C 0.25609 0.53009 0.37477 0.0
C247 C 0.2305 0.51036 0.37627 0.0
C248 C 0.22268 0.49334 0.34745 0.0
C249 C 0.24123 0.49604 0.31711 0.0
H250 H 0.71402 0.98732 0.86788 0.0
H251 H 0.77832 0.05558 0.89947 0.0
H252 H 0.82588 0.02592 0.88519 0.0
H253 H 0.76448 0.92863 0.89936 0.0
H254 H 0.75481 0.90606 0.8634 0.0
H255 H 0.72577 0.93204 0.87803 0.0
H256 H 0.72341 0.95354 0.81687 0.0
H257 H 0.75254 0.92775 0.8021 0.0
H258 H 0.7605 0.96511 0.79651 0.0
H259 H 0.86623 0.99014 0.86501 0.0
H260 H 0.89699 0.9505 0.83955 0.0
H261 H 0.80697 0.90469 0.82201 0.0
C262 C 0.73806 0.99575 0.87263 0.0
C263 C 0.74247 0.02359 0.88535 0.0
C264 C 0.7744 0.03426 0.88987 0.0
C265 C 0.80156 0.01756 0.88195 0.0
C266 C 0.7964 0.99025 0.86939 0.0
C267 C 0.7655 0.97937 0.86471 0.0
C268 C 0.76678 0.94982 0.84929 0.0
C269 C 0.75209 0.92784 0.874 0.0
C270 C 0.74981 0.94903 0.81411 0.0
C271 C 0.80322 0.94595 0.84576 0.0
C272 C 0.81981 0.96947 0.85774 0.0
C273 C 0.85358 0.97135 0.85618 0.0
C274 C 0.8709 0.94854 0.8421 0.0
C275 C 0.85448 0.9241 0.82995 0.0
C276 C 0.82017 0.92295 0.83161 0.0
H277 H 0.63242 0.46859 0.71137 0.0
H278 H 0.61944 0.41221 0.62456 0.0
H279 H 0.6591 0.44062 0.591 0.0
H280 H 0.64615 0.53475 0.66365 0.0
H281 H 0.67726 0.5468 0.69284 0.0
H282 H 0.6448 0.52442 0.70818 0.0
H283 H 0.68699 0.48834 0.73142 0.0
H284 H 0.71955 0.51059 0.71632 0.0
H285 H 0.71727 0.47405 0.70272 0.0
H286 H 0.70094 0.47479 0.56768 0.0
H287 H 0.74724 0.50753 0.55884 0.0
H288 H 0.73679 0.53819 0.66324 0.0
C289 C 0.6376 0.46262 0.68507 0.0
C290 C 0.62271 0.43865 0.67014 0.0
C291 C 0.63058 0.43073 0.63614 0.0
C292 C 0.65284 0.44681 0.61693 0.0
C293 C 0.66733 0.47034 0.63245 0.0
C294 C 0.66038 0.47794 0.66595 0.0
C295 C 0.68177 0.50215 0.67794 0.0
C296 C 0.66127 0.5286 0.68613 0.0
C297 C 0.70263 0.49323 0.70892 0.0
C298 C 0.70236 0.50665 0.6462 0.0
C299 C 0.69301 0.48866 0.61992 0.0
C300 C 0.70847 0.48895 0.58808 0.0
C301 C 0.73462 0.50766 0.58325 0.0
C302 C 0.74553 0.52522 0.61042 0.0
C303 C 0.72894 0.52489 0.64212 0.0
H304 H 0.96649 0.95975 0.96508 0.0
H305 H 0.05319 0.93611 0.90816 0.0
H306 H 0.08738 0.95708 0.95365 0.0
H307 H 0.99643 0.02683 0.99619 0.0
H308 H 0.97703 0.02354 0.03749 0.0
H309 H 0.95935 0.0067 0.0004 0.0
H310 H 0.96046 0.95819 0.0318 0.0
H311 H 0.97814 0.97489 0.06898 0.0
H312 H 0.99831 0.94517 0.04904 0.0
H313 H 0.11218 0.98036 0.00549 0.0
H314 H 0.12579 0.0044 0.05997 0.0
H315 H 0.02288 0.01292 0.08289 0.0
C316 C 0.99266 0.95898 0.96212 0.0
C317 C 0.00715 0.94627 0.93301 0.0
C318 C 0.04151 0.94573 0.9302 0.0
C319 C 0.06116 0.95759 0.9559 0.0
C320 C 0.04609 0.96993 0.98425 0.0
C321 C 0.01264 0.97072 0.98751 0.0
C322 C 0.00256 0.98519 0.02058 0.0
C323 C 0.98267 0.01217 0.01321 0.0
C324 C 0.98376 0.96463 0.04398 0.0
C325 C 0.03559 0.99236 0.03543 0.0
C326 C 0.06037 0.98338 0.01408 0.0
C327 C 0.09298 0.98753 0.02241 0.0
C328 C 0.10046 0.00121 0.05341 0.0
C329 C 0.07543 0.01059 0.0757 0.0
C330 C 0.04259 0.00606 0.06643 0.0
H331 H 0.42844 0.97903 0.01959 0.0
H332 H 0.43749 0.88821 0.03606 0.0
H333 H 0.49182 0.8891 0.00872 0.0
H334 H 0.46773 0.98101 0.93693 0.0
H335 H 0.48731 0.01458 0.94517 0.0
H336 H 0.44905 0.00643 0.9654 0.0
H337 H 0.47466 0.01579 0.02517 0.0
H338 H 0.51299 0.02396 0.00514 0.0
H339 H 0.51083 0.99673 0.03756 0.0
H340 H 0.54609 0.90055 0.98033 0.0
H341 H 0.59513 0.92153 0.9535 0.0
H342 H 0.54929 0.00454 0.95608 0.0
C343 C 0.44172 0.95925 0.0174 0.0
C344 C 0.42869 0.93354 0.02995 0.0
C345 C 0.44697 0.90818 0.02657 0.0
C346 C 0.47784 0.90847 0.01108 0.0
C347 C 0.48999 0.93427 0.99908 0.0
C348 C 0.47241 0.95916 0.00204 0.0
C349 C 0.4909 0.98418 0.98754 0.0
C350 C 0.47266 0.99731 0.95694 0.0
C351 C 0.49775 0.00647 0.01553 0.0
C352 C 0.52177 0.96956 0.97611 0.0
C353 C 0.52087 0.94078 0.98286 0.0
C354 C 0.54699 0.92306 0.97484 0.0
C355 C 0.57473 0.93515 0.95962 0.0
C356 C 0.57607 0.96466 0.95265 0.0
C357 C 0.54909 0.9819 0.96097 0.0
H358 H 0.92284 0.51265 0.52905 0.0
H359 H 0.95157 0.58425 0.59241 0.0
H360 H 0.00549 0.58467 0.56411 0.0
H361 H 0.99963 0.47701 0.52994 0.0
H362 H 0.99632 0.46503 0.48612 0.0
H363 H 0.96016 0.47076 0.51125 0.0
H364 H 0.93827 0.50534 0.46492 0.0
H365 H 0.97437 0.49973 0.43964 0.0
H366 H 0.96278 0.53521 0.45196 0.0
H367 H 0.05666 0.5768 0.52842 0.0
H368 H 0.10033 0.56121 0.48887 0.0
H369 H 0.03698 0.49492 0.44975 0.0
C370 C 0.94039 0.52848 0.53703 0.0
C371 C 0.93297 0.54843 0.56295 0.0
C372 C 0.95672 0.56874 0.5726 0.0
C373 C 0.98739 0.56915 0.55667 0.0
C374 C 0.99387 0.54912 0.53119 0.0
C375 C 0.97098 0.52917 0.5215 0.0
C376 C 0.98383 0.50984 0.49363 0.0
C377 C 0.98506 0.47883 0.50599 0.0
C378 C 0.96361 0.51272 0.46059 0.0
C379 C 0.01758 0.52196 0.48909 0.0
C380 C 0.02302 0.54462 0.51091 0.0
C381 C 0.05263 0.55909 0.51123 0.0
C382 C 0.07727 0.55009 0.48868 0.0
C383 C 0.0721 0.52685 0.46621 0.0
C384 C 0.04178 0.51276 0.46656 0.0
H385 H 0.50946 0.55293 0.43922 0.0
H386 H 0.42732 0.59929 0.48126 0.0
H387 H 0.44703 0.5893 0.53994 0.0
H388 H 0.50926 0.4979 0.50031 0.0
H389 H 0.5529 0.49453 0.5021 0.0
H390 H 0.5337 0.50728 0.46359 0.0
H391 H 0.5692 0.55274 0.46578 0.0
H392 H 0.58848 0.54014 0.50442 0.0
H393 H 0.56903 0.57443 0.50393 0.0
H394 H 0.47418 0.57201 0.59406 0.0
H395 H 0.50547 0.54737 0.63924 0.0
H396 H 0.56957 0.51229 0.56145 0.0
C397 C 0.49577 0.56128 0.46072 0.0
C398 C 0.46688 0.57697 0.45562 0.0
C399 C 0.44954 0.58724 0.48451 0.0
C400 C 0.46061 0.58177 0.51795 0.0
C401 C 0.48907 0.56607 0.52204 0.0
C402 C 0.5064 0.55596 0.49419 0.0
C403 C 0.53528 0.53837 0.5055 0.0
C404 C 0.5326 0.50771 0.49209 0.0
C405 C 0.56739 0.55226 0.49424 0.0
C406 C 0.53114 0.53967 0.54407 0.0
C407 C 0.50456 0.55599 0.55314 0.0
C408 C 0.49519 0.55937 0.58728 0.0
C409 C 0.51313 0.54529 0.61276 0.0
C410 C 0.54001 0.52792 0.60392 0.0
C411 C 0.54932 0.52555 0.56912 0.0
loop_
_geom_bond_atom_site_label_1
_geom_bond_atom_site_label_2
_geom_bond_distance
_geom_bond_site_symmetry_2
_ccdc_geom_bond_type
O0 Cd1 2.300 . S
O0 C7 1.275 . S
Cd1 O0 2.300 . S
Cd1 O9 2.381 . S
Cd1 O10 2.378 . S
O2 Cd3 2.385 . S
O2 C7 1.255 . S
Cd3 O2 2.385 . S
Cd3 O4 2.317 . S
O4 Cd3 2.317 . S
O4 C5 1.232 . S
C5 O4 1.232 . S
C5 O6 1.218 . S
O6 C5 1.218 . S
C7 O0 1.275 . S
C7 O2 1.255 . S
C8 O9 1.258 . S
C8 O10 1.256 . S
O9 Cd1 2.381 . S
O9 C8 1.258 . S
O10 Cd1 2.378 . S
O10 C8 1.256 . S
O11 Cd12 2.300 . S
O11 C18 1.275 . S
Cd12 O11 2.300 . S
Cd12 O20 2.381 . S
Cd12 O21 2.378 . S
O13 Cd14 2.385 . S
O13 C18 1.255 . S
Cd14 O13 2.385 . S
Cd14 O15 2.317 . S
O15 Cd14 2.317 . S
O15 C16 1.232 . S
C16 O15 1.232 . S
C16 O17 1.218 . S
O17 C16 1.218 . S
C18 O11 1.275 . S
C18 O13 1.255 . S
C19 O20 1.258 . S
C19 O21 1.256 . S
O20 Cd12 2.381 . S
O20 C19 1.258 . S
O21 Cd12 2.378 . S
O21 C19 1.256 . S
O22 Cd23 2.300 . S
O22 C29 1.275 . S
Cd23 O22 2.300 . S
Cd23 O31 2.381 . S
Cd23 O32 2.378 . S
O24 Cd25 2.385 . S
O24 C29 1.255 . S
Cd25 O24 2.385 . S
Cd25 O26 2.317 . S
O26 Cd25 2.317 . S
O26 C27 1.232 . S
C27 O26 1.232 . S
C27 O28 1.218 . S
O28 C27 1.218 . S
C29 O22 1.275 . S
C29 O24 1.255 . S
C30 O31 1.258 . S
C30 O32 1.256 . S
O31 Cd23 2.381 . S
O31 C30 1.258 . S
O32 Cd23 2.378 . S
O32 C30 1.256 . S
O33 Cd34 2.300 . S
O33 C40 1.275 . S
Cd34 O33 2.300 . S
Cd34 O42 2.381 . S
Cd34 O43 2.378 . S
O35 Cd36 2.385 . S
O35 C40 1.255 . S
Cd36 O35 2.385 . S
Cd36 O37 2.317 . S
O37 Cd36 2.317 . S
O37 C38 1.232 . S
C38 O37 1.232 . S
C38 O39 1.218 . S
O39 C38 1.218 . S
C40 O33 1.275 . S
C40 O35 1.255 . S
C41 O42 1.258 . S
C41 O43 1.256 . S
O42 Cd34 2.381 . S
O42 C41 1.258 . S
O43 Cd34 2.378 . S
O43 C41 1.256 . S
O44 Cd45 2.300 . S
O44 C51 1.275 . S
Cd45 O44 2.300 . S
Cd45 O53 2.381 . S
Cd45 O54 2.378 . S
O46 Cd47 2.385 . S
O46 C51 1.255 . S
Cd47 O46 2.385 . S
Cd47 O48 2.317 . S
O48 Cd47 2.317 . S
O48 C49 1.232 . S
C49 O48 1.232 . S
C49 O50 1.218 . S
O50 C49 1.218 . S
C51 O44 1.275 . S
C51 O46 1.255 . S
C52 O53 1.258 . S
C52 O54 1.256 . S
O53 Cd45 2.381 . S
O53 C52 1.258 . S
O54 Cd45 2.378 . S
O54 C52 1.256 . S
O55 Cd56 2.300 . S
O55 C62 1.275 . S
Cd56 O55 2.300 . S
Cd56 O64 2.381 . S
Cd56 O65 2.378 . S
O57 Cd58 2.385 . S
O57 C62 1.255 . S
Cd58 O57 2.385 . S
Cd58 O59 2.317 . S
O59 Cd58 2.317 . S
O59 C60 1.232 . S
C60 O59 1.232 . S
C60 O61 1.218 . S
O61 C60 1.218 . S
C62 O55 1.275 . S
C62 O57 1.255 . S
C63 O64 1.258 . S
C63 O65 1.256 . S
O64 Cd56 2.381 . S
O64 C63 1.258 . S
O65 Cd56 2.378 . S
O65 C63 1.256 . S
O66 Cd67 2.300 . S
O66 C73 1.275 . S
Cd67 O66 2.300 . S
Cd67 O75 2.381 . S
Cd67 O76 2.378 . S
O68 Cd69 2.385 . S
O68 C73 1.255 . S
Cd69 O68 2.385 . S
Cd69 O70 2.317 . S
O70 Cd69 2.317 . S
O70 C71 1.232 . S
C71 O70 1.232 . S
C71 O72 1.218 . S
O72 C71 1.218 . S
C73 O66 1.275 . S
C73 O68 1.255 . S
C74 O75 1.258 . S
C74 O76 1.256 . S
O75 Cd67 2.381 . S
O75 C74 1.258 . S
O76 Cd67 2.378 . S
O76 C74 1.256 . S
O77 Cd78 2.300 . S
O77 C84 1.275 . S
Cd78 O77 2.300 . S
Cd78 O86 2.381 . S
Cd78 O87 2.378 . S
O79 Cd80 2.385 . S
O79 C84 1.255 . S
Cd80 O79 2.385 . S
Cd80 O81 2.317 . S
O81 Cd80 2.317 . S
O81 C82 1.232 . S
C82 O81 1.232 . S
C82 O83 1.218 . S
O83 C82 1.218 . S
C84 O77 1.275 . S
C84 O79 1.255 . S
C85 O86 1.258 . S
C85 O87 1.256 . S
O86 Cd78 2.381 . S
O86 C85 1.258 . S
O87 Cd78 2.378 . S
O87 C85 1.256 . S
H88 C100 0.930 . S
H89 C102 0.930 . S
H90 C103 0.930 . S
H91 C107 0.959 . S
H92 C107 0.959 . S
H93 C107 0.961 . S
H94 C108 0.960 . S
H95 C108 0.961 . S
H96 C108 0.959 . S
H97 C111 0.929 . S
H98 C112 0.931 . S
H99 C114 0.930 . S
C100 H88 0.930 . S
C100 C101 1.399 . S
C100 C105 1.399 . S
C101 C100 1.399 . S
C101 C102 1.376 . S
C102 H89 0.930 . S
C102 C101 1.376 . S
C102 C103 1.388 . S
C103 H90 0.930 . S
C103 C102 1.388 . S
C103 C104 1.390 . S
C104 C103 1.390 . S
C104 C105 1.394 . S
C104 C110 1.465 . S
C105 C100 1.399 . S
C105 C104 1.394 . S
C105 C106 1.516 . S
C106 C105 1.516 . S
C106 C107 1.502 . S
C106 C108 1.561 . S
C106 C109 1.526 . S
C107 H91 0.959 . S
C107 H92 0.959 . S
C107 H93 0.961 . S
C107 C106 1.502 . S
C108 H94 0.960 . S
C108 H95 0.961 . S
C108 H96 0.959 . S
C108 C106 1.561 . S
C109 C106 1.526 . S
C109 C110 1.396 . S
C109 C114 1.390 . S
C110 C104 1.465 . S
C110 C109 1.396 . S
C110 C111 1.399 . S
C111 H97 0.929 . S
C111 C110 1.399 . S
C111 C112 1.385 . S
C112 H98 0.931 . S
C112 C111 1.385 . S
C112 C113 1.389 . S
C113 C112 1.389 . S
C113 C114 1.387 . S
C114 H99 0.930 . S
C114 C109 1.390 . S
C114 C113 1.387 . S
H115 C127 0.930 . S
H116 C129 0.930 . S
H117 C130 0.930 . S
H118 C134 0.959 . S
H119 C134 0.959 . S
H120 C134 0.961 . S
H121 C135 0.960 . S
H122 C135 0.961 . S
H123 C135 0.959 . S
H124 C138 0.929 . S
H125 C139 0.931 . S
H126 C141 0.930 . S
C127 H115 0.930 . S
C127 C128 1.399 . S
C127 C132 1.399 . S
C128 C127 1.399 . S
C128 C129 1.376 . S
C129 H116 0.930 . S
C129 C128 1.376 . S
C129 C130 1.388 . S
C130 H117 0.930 . S
C130 C129 1.388 . S
C130 C131 1.390 . S
C131 C130 1.390 . S
C131 C132 1.394 . S
C131 C137 1.465 . S
C132 C127 1.399 . S
C132 C131 1.394 . S
C132 C133 1.516 . S
C133 C132 1.516 . S
C133 C134 1.502 . S
C133 C135 1.561 . S
C133 C136 1.526 . S
C134 H118 0.959 . S
C134 H119 0.959 . S
C134 H120 0.961 . S
C134 C133 1.502 . S
C135 H121 0.960 . S
C135 H122 0.961 . S
C135 H123 0.959 . S
C135 C133 1.561 . S
C136 C133 1.526 . S
C136 C137 1.396 . S
C136 C141 1.390 . S
C137 C131 1.465 . S
C137 C136 1.396 . S
C137 C138 1.399 . S
C138 H124 0.929 . S
C138 C137 1.399 . S
C138 C139 1.385 . S
C139 H125 0.931 . S
C139 C138 1.385 . S
C139 C140 1.389 . S
C140 C139 1.389 . S
C140 C141 1.387 . S
C141 H126 0.930 . S
C141 C136 1.390 . S
C141 C140 1.387 . S
H142 C154 0.930 . S
H143 C156 0.930 . S
H144 C157 0.930 . S
H145 C161 0.959 . S
H146 C161 0.959 . S
H147 C161 0.961 . S
H148 C162 0.960 . S
H149 C162 0.961 . S
H150 C162 0.959 . S
H151 C165 0.929 . S
H152 C166 0.931 . S
H153 C168 0.930 . S
C154 H142 0.930 . S
C154 C155 1.399 . S
C154 C159 1.399 . S
C155 C154 1.399 . S
C155 C156 1.376 . S
C156 H143 0.930 . S
C156 C155 1.376 . S
C156 C157 1.388 . S
C157 H144 0.930 . S
C157 C156 1.388 . S
C157 C158 1.390 . S
C158 C157 1.390 . S
C158 C159 1.394 . S
C158 C164 1.465 . S
C159 C154 1.399 . S
C159 C158 1.394 . S
C159 C160 1.516 . S
C160 C159 1.516 . S
C160 C161 1.502 . S
C160 C162 1.561 . S
C160 C163 1.526 . S
C161 H145 0.959 . S
C161 H146 0.959 . S
C161 H147 0.961 . S
C161 C160 1.502 . S
C162 H148 0.960 . S
C162 H149 0.961 . S
C162 H150 0.959 . S
C162 C160 1.561 . S
C163 C160 1.526 . S
C163 C164 1.396 . S
C163 C168 1.390 . S
C164 C158 1.465 . S
C164 C163 1.396 . S
C164 C165 1.399 . S
C165 H151 0.929 . S
C165 C164 1.399 . S
C165 C166 1.385 . S
C166 H152 0.931 . S
C166 C165 1.385 . S
C166 C167 1.389 . S
C167 C166 1.389 . S
C167 C168 1.387 . S
C168 H153 0.930 . S
C168 C163 1.390 . S
C168 C167 1.387 . S
H169 C181 0.930 . S
H170 C183 0.930 . S
H171 C184 0.930 . S
H172 C188 0.959 . S
H173 C188 0.959 . S
H174 C188 0.961 . S
H175 C189 0.960 . S
H176 C189 0.961 . S
H177 C189 0.959 . S
H178 C192 0.929 . S
H179 C193 0.931 . S
H180 C195 0.930 . S
C181 H169 0.930 . S
C181 C182 1.399 . S
C181 C186 1.399 . S
C182 C181 1.399 . S
C182 C183 1.376 . S
C183 H170 0.930 . S
C183 C182 1.376 . S
C183 C184 1.388 . S
C184 H171 0.930 . S
C184 C183 1.388 . S
C184 C185 1.390 . S
C185 C184 1.390 . S
C185 C186 1.394 . S
C185 C191 1.465 . S
C186 C181 1.399 . S
C186 C185 1.394 . S
C186 C187 1.516 . S
C187 C186 1.516 . S
C187 C188 1.502 . S
C187 C189 1.561 . S
C187 C190 1.526 . S
C188 H172 0.959 . S
C188 H173 0.959 . S
C188 H174 0.961 . S
C188 C187 1.502 . S
C189 H175 0.960 . S
C189 H176 0.961 . S
C189 H177 0.959 . S
C189 C187 1.561 . S
C190 C187 1.526 . S
C190 C191 1.396 . S
C190 C195 1.390 . S
C191 C185 1.465 . S
C191 C190 1.396 . S
C191 C192 1.399 . S
C192 H178 0.929 . S
C192 C191 1.399 . S
C192 C193 1.385 . S
C193 H179 0.931 . S
C193 C192 1.385 . S
C193 C194 1.389 . S
C194 C193 1.389 . S
C194 C195 1.387 . S
C195 H180 0.930 . S
C195 C190 1.390 . S
C195 C194 1.387 . S
H196 C208 0.930 . S
H197 C210 0.930 . S
H198 C211 0.930 . S
H199 C215 0.959 . S
H200 C215 0.959 . S
H201 C215 0.961 . S
H202 C216 0.960 . S
H203 C216 0.961 . S
H204 C216 0.959 . S
H205 C219 0.929 . S
H206 C220 0.931 . S
H207 C222 0.930 . S
C208 H196 0.930 . S
C208 C209 1.399 . S
C208 C213 1.399 . S
C209 C208 1.399 . S
C209 C210 1.376 . S
C210 H197 0.930 . S
C210 C209 1.376 . S
C210 C211 1.388 . S
C211 H198 0.930 . S
C211 C210 1.388 . S
C211 C212 1.390 . S
C212 C211 1.390 . S
C212 C213 1.394 . S
C212 C218 1.465 . S
C213 C208 1.399 . S
C213 C212 1.394 . S
C213 C214 1.516 1_565 S
C214 C213 1.516 1_545 S
C214 C215 1.502 . S
C214 C216 1.561 . S
C214 C217 1.526 . S
C215 H199 0.959 . S
C215 H200 0.959 . S
C215 H201 0.961 . S
C215 C214 1.502 . S
C216 H202 0.960 . S
C216 H203 0.961 . S
C216 H204 0.959 . S
C216 C214 1.561 . S
C217 C214 1.526 . S
C217 C218 1.396 1_545 S
C217 C222 1.390 . S
C218 C212 1.465 . S
C218 C217 1.396 1_565 S
C218 C219 1.399 . S
C219 H205 0.929 . S
C219 C218 1.399 . S
C219 C220 1.385 1_565 S
C220 H206 0.931 . S
C220 C219 1.385 1_545 S
C220 C221 1.389 . S
C221 C220 1.389 . S
C221 C222 1.387 . S
C222 H207 0.930 . S
C222 C217 1.390 . S
C222 C221 1.387 . S
H223 C235 0.930 . S
H224 C237 0.930 . S
H225 C238 0.930 . S
H226 C242 0.959 . S
H227 C242 0.959 . S
H228 C242 0.961 . S
H229 C243 0.960 . S
H230 C243 0.961 . S
H231 C243 0.959 . S
H232 C246 0.929 . S
H233 C247 0.931 . S
H234 C249 0.930 . S
C235 H223 0.930 . S
C235 C236 1.399 . S
C235 C240 1.399 . S
C236 C235 1.399 . S
C236 C237 1.376 . S
C237 H224 0.930 . S
C237 C236 1.376 . S
C237 C238 1.388 . S
C238 H225 0.930 . S
C238 C237 1.388 . S
C238 C239 1.390 . S
C239 C238 1.390 . S
C239 C240 1.394 . S
C239 C245 1.465 . S
C240 C235 1.399 . S
C240 C239 1.394 . S
C240 C241 1.516 . S
C241 C240 1.516 . S
C241 C242 1.502 . S
C241 C243 1.561 . S
C241 C244 1.526 . S
C242 H226 0.959 . S
C242 H227 0.959 . S
C242 H228 0.961 . S
C242 C241 1.502 . S
C243 H229 0.960 . S
C243 H230 0.961 . S
C243 H231 0.959 . S
C243 C241 1.561 . S
C244 C241 1.526 . S
C244 C245 1.396 . S
C244 C249 1.390 . S
C245 C239 1.465 . S
C245 C244 1.396 . S
C245 C246 1.399 . S
C246 H232 0.929 . S
C246 C245 1.399 . S
C246 C247 1.385 . S
C247 H233 0.931 . S
C247 C246 1.385 . S
C247 C248 1.389 . S
C248 C247 1.389 . S
C248 C249 1.387 . S
C249 H234 0.930 . S
C249 C244 1.390 . S
C249 C248 1.387 . S
H250 C262 0.930 . S
H251 C264 0.930 . S
H252 C265 0.930 . S
H253 C269 0.959 . S
H254 C269 0.959 . S
H255 C269 0.961 . S
H256 C270 0.960 . S
H257 C270 0.961 1_565 S
H258 C270 0.959 . S
H259 C273 0.929 1_545 S
H260 C274 0.931 . S
H261 C276 0.930 . S
C262 H250 0.930 . S
C262 C263 1.399 . S
C262 C267 1.399 . S
C263 C262 1.399 . S
C263 C264 1.376 . S
C264 H251 0.930 . S
C264 C263 1.376 . S
C264 C265 1.388 . S
C265 H252 0.930 . S
C265 C264 1.388 . S
C265 C266 1.390 . S
C266 C265 1.390 . S
C266 C267 1.394 . S
C266 C272 1.465 1_545 S
C267 C262 1.399 . S
C267 C266 1.394 . S
C267 C268 1.516 1_545 S
C268 C267 1.516 1_565 S
C268 C269 1.502 . S
C268 C270 1.561 1_565 S
C268 C271 1.526 . S
C269 H253 0.959 . S
C269 H254 0.959 . S
C269 H255 0.961 . S
C269 C268 1.502 . S
C270 H256 0.960 . S
C270 H257 0.961 1_545 S
C270 H258 0.959 . S
C270 C268 1.561 1_545 S
C271 C268 1.526 . S
C271 C272 1.396 . S
C271 C276 1.390 . S
C272 C266 1.465 1_565 S
C272 C271 1.396 . S
C272 C273 1.399 . S
C273 H259 0.929 1_565 S
C273 C272 1.399 . S
C273 C274 1.385 . S
C274 H260 0.931 . S
C274 C273 1.385 . S
C274 C275 1.389 . S
C275 C274 1.389 . S
C275 C276 1.387 . S
C276 H261 0.930 . S
C276 C271 1.390 . S
C276 C275 1.387 . S
H277 C289 0.930 . S
H278 C291 0.930 . S
H279 C292 0.930 . S
H280 C296 0.959 . S
H281 C296 0.959 . S
H282 C296 0.961 . S
H283 C297 0.960 . S
H284 C297 0.961 . S
H285 C297 0.959 . S
H286 C300 0.929 . S
H287 C301 0.931 . S
H288 C303 0.930 . S
C289 H277 0.930 . S
C289 C290 1.399 . S
C289 C294 1.399 . S
C290 C289 1.399 . S
C290 C291 1.376 . S
C291 H278 0.930 . S
C291 C290 1.376 . S
C291 C292 1.388 . S
C292 H279 0.930 . S
C292 C291 1.388 . S
C292 C293 1.390 . S
C293 C292 1.390 . S
C293 C294 1.394 . S
C293 C299 1.465 . S
C294 C289 1.399 . S
C294 C293 1.394 . S
C294 C295 1.516 . S
C295 C294 1.516 . S
C295 C296 1.502 . S
C295 C297 1.561 . S
C295 C298 1.526 . S
C296 H280 0.959 . S
C296 H281 0.959 . S
C296 H282 0.961 . S
C296 C295 1.502 . S
C297 H283 0.960 . S
C297 H284 0.961 . S
C297 H285 0.959 . S
C297 C295 1.561 . S
C298 C295 1.526 . S
C298 C299 1.396 . S
C298 C303 1.390 . S
C299 C293 1.465 . S
C299 C298 1.396 . S
C299 C300 1.399 . S
C300 H286 0.929 . S
C300 C299 1.399 . S
C300 C301 1.385 . S
C301 H287 0.931 . S
C301 C300 1.385 . S
C301 C302 1.389 . S
C302 C301 1.389 . S
C302 C303 1.387 . S
C303 H288 0.930 . S
C303 C298 1.390 . S
C303 C302 1.387 . S
H304 C316 0.930 . S
H305 C318 0.930 . S
H306 C319 0.930 . S
H307 C323 0.959 . S
H308 C323 0.959 . S
H309 C323 0.961 . S
H310 C324 0.960 . S
H311 C324 0.961 . S
H312 C324 0.959 . S
H313 C327 0.942 . S
H314 C328 0.931 . S
H315 C330 0.930 . S
C316 H304 0.930 . S
C316 C317 1.399 . S
C316 C321 1.399 . S
C317 C316 1.399 . S
C317 C318 1.376 . S
C318 H305 0.930 . S
C318 C317 1.376 . S
C318 C319 1.388 1_556 S
C319 H306 0.930 . S
C319 C318 1.388 1_554 S
C319 C320 1.390 . S
C320 C319 1.390 . S
C320 C321 1.394 1_554 S
C320 C326 1.450 1_665 S
C321 C316 1.399 . S
C321 C320 1.394 1_556 S
C321 C322 1.516 1_665 S
C322 C321 1.516 1_445 S
C322 C323 1.502 . S
C322 C324 1.561 1_455 S
C322 C325 1.526 1_556 S
C323 H307 0.959 . S
C323 H308 0.959 . S
C323 H309 0.961 . S
C323 C322 1.502 . S
C324 H310 0.960 . S
C324 H311 0.961 . S
C324 H312 0.959 . S
C324 C322 1.561 1_655 S
C325 C322 1.526 1_554 S
C325 C326 1.419 . S
C325 C330 1.390 . S
C326 C320 1.450 1_445 S
C326 C325 1.419 . S
C326 C327 1.395 1_545 S
C327 H313 0.942 . S
C327 C326 1.395 1_565 S
C327 C328 1.385 1_565 S
C328 H314 0.931 . S
C328 C327 1.385 1_545 S
C328 C329 1.389 . S
C329 C328 1.389 . S
C329 C330 1.387 . S
C330 H315 0.930 . S
C330 C325 1.390 . S
C330 C329 1.387 . S
H331 C343 0.930 . S
H332 C345 0.930 . S
H333 C346 0.930 . S
H334 C350 0.959 . S
H335 C350 0.959 . S
H336 C350 0.961 . S
H337 C351 0.960 . S
H338 C351 0.961 1_545 S
H339 C351 0.959 . S
H340 C354 0.929 1_565 S
H341 C355 0.931 . S
H342 C357 0.930 . S
C343 H331 0.930 . S
C343 C344 1.399 . S
C343 C348 1.399 . S
C344 C343 1.399 . S
C344 C345 1.376 . S
C345 H332 0.930 . S
C345 C344 1.376 . S
C345 C346 1.388 1_554 S
C346 H333 0.930 . S
C346 C345 1.388 1_556 S
C346 C347 1.390 . S
C347 C346 1.390 . S
C347 C348 1.394 1_556 S
C347 C353 1.445 1_565 S
C348 C343 1.399 . S
C348 C347 1.394 1_554 S
C348 C349 1.516 1_565 S
C349 C348 1.516 1_545 S
C349 C350 1.502 . S
C349 C351 1.561 1_545 S
C349 C352 1.526 1_554 S
C350 H334 0.959 . S
C350 H335 0.959 . S
C350 H336 0.961 . S
C350 C349 1.502 . S
C351 H337 0.960 . S
C351 H338 0.961 1_565 S
C351 H339 0.959 . S
C351 C349 1.561 1_565 S
C352 C349 1.526 1_556 S
C352 C353 1.416 . S
C352 C357 1.390 . S
C353 C347 1.445 1_545 S
C353 C352 1.416 . S
C353 C354 1.402 . S
C354 H340 0.929 1_545 S
C354 C353 1.402 . S
C354 C355 1.385 . S
C355 H341 0.931 . S
C355 C354 1.385 . S
C355 C356 1.389 . S
C356 C355 1.389 . S
C356 C357 1.387 . S
C357 H342 0.930 . S
C357 C352 1.390 . S
C357 C356 1.387 . S
H358 C370 0.930 . S
H359 C372 0.930 . S
H360 C373 0.930 . S
H361 C377 0.959 . S
H362 C377 0.959 . S
H363 C377 0.961 . S
H364 C378 0.960 . S
H365 C378 0.961 . S
H366 C378 0.959 . S
H367 C381 0.929 . S
H368 C382 0.931 . S
H369 C384 0.930 . S
C370 H358 0.930 . S
C370 C371 1.399 . S
C370 C375 1.399 . S
C371 C370 1.399 . S
C371 C372 1.376 . S
C372 H359 0.930 . S
C372 C371 1.376 . S
C372 C373 1.388 . S
C373 H360 0.930 . S
C373 C372 1.388 . S
C373 C374 1.390 . S
C374 C373 1.390 . S
C374 C375 1.394 . S
C374 C380 1.465 1_655 S
C375 C370 1.399 . S
C375 C374 1.394 . S
C375 C376 1.524 . S
C376 C375 1.524 . S
C376 C377 1.514 . S
C376 C378 1.548 1_655 S
C376 C379 1.517 1_655 S
C377 H361 0.959 . S
C377 H362 0.959 . S
C377 H363 0.961 . S
C377 C376 1.514 . S
C378 H364 0.960 . S
C378 H365 0.961 . S
C378 H366 0.959 . S
C378 C376 1.548 1_455 S
C379 C376 1.517 1_455 S
C379 C380 1.396 . S
C379 C384 1.390 . S
C380 C374 1.465 1_455 S
C380 C379 1.396 . S
C380 C381 1.399 . S
C381 H367 0.929 . S
C381 C380 1.399 . S
C381 C382 1.385 . S
C382 H368 0.931 . S
C382 C381 1.385 . S
C382 C383 1.389 . S
C383 C382 1.389 . S
C383 C384 1.387 . S
C384 H369 0.930 . S
C384 C379 1.390 . S
C384 C383 1.387 . S
H385 C397 0.930 . S
H386 C399 0.930 . S
H387 C400 0.930 . S
H388 C404 0.959 . S
H389 C404 0.959 . S
H390 C404 0.961 . S
H391 C405 0.960 . S
H392 C405 0.961 . S
H393 C405 0.959 . S
H394 C408 0.929 . S
H395 C409 0.931 . S
H396 C411 0.930 . S
C397 H385 0.930 . S
C397 C398 1.399 . S
C397 C402 1.399 . S
C398 C397 1.399 . S
C398 C399 1.376 . S
C399 H386 0.930 . S
C399 C398 1.376 . S
C399 C400 1.388 . S
C400 H387 0.930 . S
C400 C399 1.388 . S
C400 C401 1.390 . S
C401 C400 1.390 . S
C401 C402 1.394 . S
C401 C407 1.465 . S
C402 C397 1.399 . S
C402 C401 1.394 . S
C402 C403 1.516 . S
C403 C402 1.516 . S
C403 C404 1.502 . S
C403 C405 1.561 . S
C403 C406 1.526 . S
C404 H388 0.959 . S
C404 H389 0.959 . S
C404 H390 0.961 . S
C404 C403 1.502 . S
C405 H391 0.960 . S
C405 H392 0.961 . S
C405 H393 0.959 . S
C405 C403 1.561 . S
C406 C403 1.526 . S
C406 C407 1.396 . S
C406 C411 1.390 . S
C407 C401 1.465 . S
C407 C406 1.396 . S
C407 C408 1.399 . S
C408 H394 0.929 . S
C408 C407 1.399 . S
C408 C409 1.385 . S
C409 H395 0.931 . S
C409 C408 1.385 . S
C409 C410 1.389 . S
C410 C409 1.389 . S
C410 C411 1.387 . S
C411 H396 0.930 . S
C411 C406 1.390 . S
C411 C410 1.387 . S
C101 C8 1.466 . S
C113 C30 1.487 . S
C128 C19 1.497 . S
C140 C41 1.488 . S
C155 C52 1.472 . S
C167 C74 1.498 . S
C182 C85 1.494 . S
C194 C63 1.470 . S
C209 C18 1.419 . S
C221 C7 1.485 . S
C236 C40 1.473 . S
C248 C29 1.433 . S
C263 C62 1.468 . S
C275 C51 1.480 . S
C290 C84 1.477 . S
C302 C73 1.485 . S
C317 C49 1.354 . S
C329 C5 1.357 . S
C344 C16 1.231 . S
C356 C60 1.227 . S
C371 C71 1.226 . S
C383 C27 1.231 . S
C398 C38 1.221 . S
C410 C82 1.280 . S
