# Generated by pormake.
# Topology afw, (4)-cn, num edge types: 1
# Building blocks:
#     Node 0, Type 0, BuildingBlock: TATPOV_clean_sbu_0, # of connection points: 4
#     Node 1, Type 0, BuildingBlock: TATPOV_clean_sbu_0, # of connection points: 4
#     Node 2, Type 0, BuildingBlock: TATPOV_clean_sbu_0, # of connection points: 4
#     Node 3, Type 0, BuildingBlock: TATPOV_clean_sbu_0, # of connection points: 4
#     Node 4, Type 0, BuildingBlock: TATPOV_clean_sbu_0, # of connection points: 4
#     Node 5, Type 0, BuildingBlock: TATPOV_clean_sbu_0, # of connection points: 4
#     Node 6, Type 0, BuildingBlock: TATPOV_clean_sbu_0, # of connection points: 4
#     Node 7, Type 0, BuildingBlock: TATPOV_clean_sbu_0, # of connection points: 4
#     Node 8, Type 0, BuildingBlock: TATPOV_clean_sbu_0, # of connection points: 4
#     Edge 9, Type (0, 0), BuildingBlock: TEMPAE_clean_linker_10, # of connection points: 2
#     Edge 10, Type (0, 0), BuildingBlock: TEMPAE_clean_linker_10, # of connection points: 2
#     Edge 11, Type (0, 0), BuildingBlock: TEMPAE_clean_linker_10, # of connection points: 2
#     Edge 12, Type (0, 0), BuildingBlock: TEMPAE_clean_linker_10, # of connection points: 2
#     Edge 13, Type (0, 0), BuildingBlock: TEMPAE_clean_linker_10, # of connection points: 2
#     Edge 14, Type (0, 0), BuildingBlock: TEMPAE_clean_linker_10, # of connection points: 2
#     Edge 15, Type (0, 0), BuildingBlock: TEMPAE_clean_linker_10, # of connection points: 2
#     Edge 16, Type (0, 0), BuildingBlock: TEMPAE_clean_linker_10, # of connection points: 2
#     Edge 17, Type (0, 0), BuildingBlock: TEMPAE_clean_linker_10, # of connection points: 2
#     Edge 18, Type (0, 0), BuildingBlock: TEMPAE_clean_linker_10, # of connection points: 2
#     Edge 19, Type (0, 0), BuildingBlock: TEMPAE_clean_linker_10, # of connection points: 2
#     Edge 20, Type (0, 0), BuildingBlock: TEMPAE_clean_linker_10, # of connection points: 2
#     Edge 21, Type (0, 0), BuildingBlock: TEMPAE_clean_linker_10, # of connection points: 2
#     Edge 22, Type (0, 0), BuildingBlock: TEMPAE_clean_linker_10, # of connection points: 2
#     Edge 23, Type (0, 0), BuildingBlock: TEMPAE_clean_linker_10, # of connection points: 2
#     Edge 24, Type (0, 0), BuildingBlock: TEMPAE_clean_linker_10, # of connection points: 2
#     Edge 25, Type (0, 0), BuildingBlock: TEMPAE_clean_linker_10, # of connection points: 2
#     Edge 26, Type (0, 0), BuildingBlock: TEMPAE_clean_linker_10, # of connection points: 2
# Relax obj value: 0.192
# Max RMSD: 0.220
# Mean RMSD: 0.215
data_MOF--net-afw--node1-TATPOV_clean_sbu_0--edge1-TEMPAE_clean_linker_10
_symmetry_space_group_name_H-M    P1
_symmetry_Int_Tables_number       1
_symmetry_cell_setting            triclinic
loop_
_symmetry_equiv_pos_as_xyz
'x, y, z'
_cell_length_a     40.797774
_cell_length_b     40.101612
_cell_length_c     36.225631
_cell_angle_alpha  90.790858
_cell_angle_beta   90.455494
_cell_angle_gamma 120.0532
loop_
_atom_site_label
_atom_site_type_symbol
_atom_site_fract_x
_atom_site_fract_y
_atom_site_fract_z
_atom_type_partial_charge
Zn0 Zn 0.02211 0.21566 0.10555 0.0
Zn1 Zn 0.03798 0.25586 0.04393 0.0
O2 O 0.08157 0.24439 0.04469 0.0
O3 O 0.0656 0.20706 0.09306 0.0
O4 O 0.04689 0.28768 -0.00143 0.0
O5 O 0.02975 0.26031 0.13697 0.0
O6 O 0.03947 0.29243 0.08559 0.0
C7 C 0.08718 0.22267 0.06598 0.0
C8 C 0.96277 0.17913 0.05253 0.0
O9 O 0.98683 0.2063 0.03271 0.0
O10 O 0.96977 0.1778 0.08637 0.0
C11 C 0.05268 0.27691 0.96734 0.0
O12 O 0.05274 0.24422 0.96469 0.0
C13 C 0.03636 0.29065 0.1206 0.0
Zn14 Zn 0.8356 0.87061 0.92231 0.0
Zn15 Zn 0.80506 0.83139 0.98432 0.0
O16 O 0.85766 0.83736 0.98777 0.0
O17 O 0.88419 0.87277 0.93908 0.0
O18 O 0.77772 0.80023 0.02881 0.0
O19 O 0.79793 0.82729 0.89015 0.0
O20 O 0.77235 0.79612 0.94115 0.0
C21 C 0.88644 0.85597 0.96758 0.0
C22 C 0.8154 0.91234 0.972 0.0
O23 O 0.80809 0.88397 0.99262 0.0
O24 O 0.82531 0.91252 0.93897 0.0
C25 C 0.74561 0.79536 0.03809 0.0
O26 O 0.73064 0.81224 0.01906 0.0
C27 C 0.77291 0.79768 0.90604 0.0
Zn28 Zn 0.20848 0.03122 0.10075 0.0
Zn29 Zn 0.22723 0.01737 0.03397 0.0
O30 O 0.17229 0.97396 0.03826 0.0
O31 O 0.15539 0.98686 0.09174 0.0
O32 O 0.24246 0.00659 0.98432 0.0
O33 O 0.24793 0.02364 0.12518 0.0
O34 O 0.26534 0.01464 0.07014 0.0
C35 C 0.14719 0.96634 0.06252 0.0
C36 C 0.22899 0.09347 0.05158 0.0
O37 O 0.23045 0.07015 0.02829 0.0
O38 O 0.22206 0.08438 0.08509 0.0
C39 C 0.26657 0.0326 0.96371 0.0
O40 O 0.28272 0.06885 0.9747 0.0
C41 C 0.26938 0.01709 0.10517 0.0
Zn42 Zn 0.61469 0.51189 0.22735 0.0
Zn43 Zn 0.6113 0.54484 0.28811 0.0
O44 O 0.57215 0.48578 0.29064 0.0
O45 O 0.56877 0.4606 0.23559 0.0
O46 O 0.60149 0.56586 0.335 0.0
O47 O 0.61301 0.55103 0.19521 0.0
O48 O 0.61191 0.58057 0.24637 0.0
C49 C 0.55786 0.45658 0.26861 0.0
C50 C 0.68114 0.54058 0.27671 0.0
O51 O 0.66431 0.55372 0.29634 0.0
O52 O 0.66558 0.5214 0.24726 0.0
C53 C 0.60015 0.54869 0.36468 0.0
O54 O 0.60549 0.51899 0.36318 0.0
C55 C 0.6132 0.57936 0.21117 0.0
Zn56 Zn 0.54826 0.1492 0.2769 0.0
Zn57 Zn 0.50982 0.12477 0.33577 0.0
O58 O 0.56577 0.14073 0.34937 0.0
O59 O 0.59325 0.14808 0.2959 0.0
O60 O 0.4799 0.09655 0.38085 0.0
O61 O 0.51304 0.10707 0.24339 0.0
O62 O 0.48013 0.08413 0.29369 0.0
C63 C 0.59472 0.14733 0.33066 0.0
C64 C 0.5237 0.20079 0.30811 0.0
O65 O 0.5055 0.1737 0.33071 0.0
O66 O 0.54433 0.19743 0.28403 0.0
C67 C 0.49437 0.10188 0.41315 0.0
O68 O 0.5299 0.12873 0.41861 0.0
C69 C 0.4843 0.081 0.25913 0.0
Zn70 Zn 0.8725 0.43838 0.25765 0.0
Zn71 Zn 0.90854 0.44275 0.32109 0.0
O72 O 0.89858 0.48798 0.32598 0.0
O73 O 0.87659 0.48921 0.27063 0.0
O74 O 0.9313 0.44251 0.37023 0.0
O75 O 0.91457 0.43727 0.23069 0.0
O76 O 0.94671 0.44563 0.28243 0.0
C77 C 0.88716 0.50366 0.30279 0.0
C78 C 0.83059 0.37263 0.30241 0.0
O79 O 0.86087 0.39012 0.32166 0.0
O80 O 0.82688 0.38791 0.27347 0.0
C81 C 0.90917 0.42729 0.39721 0.0
O82 O 0.87279 0.41462 0.3928 0.0
C83 C 0.94385 0.4415 0.24735 0.0
Zn84 Zn 0.37238 0.86463 0.75376 0.0
Zn85 Zn 0.36127 0.88878 0.69206 0.0
O86 O 0.40906 0.883 0.6877 0.0
O87 O 0.42399 0.87359 0.74332 0.0
O88 O 0.36425 0.91756 0.64537 0.0
O89 O 0.36614 0.90143 0.7856 0.0
O90 O 0.35574 0.92256 0.73364 0.0
C91 C 0.43093 0.87782 0.70925 0.0
C92 C 0.30754 0.80667 0.70915 0.0
O93 O 0.31504 0.8342 0.68728 0.0
O94 O 0.32752 0.81291 0.73821 0.0
C95 C 0.37444 0.9092 0.61516 0.0
O96 O 0.37946 0.87931 0.61386 0.0
C97 C 0.35847 0.92416 0.76886 0.0
Zn98 Zn 0.14363 0.45876 0.59354 0.0
Zn99 Zn 0.11364 0.44481 0.66137 0.0
O100 O 0.15525 0.43005 0.6595 0.0
O101 O 0.176 0.4351 0.6029 0.0
O102 O 0.09338 0.42699 0.71229 0.0
O103 O 0.09165 0.42597 0.57174 0.0
O104 O 0.06686 0.41746 0.62703 0.0
C105 C 0.17655 0.42645 0.63621 0.0
C106 C 0.15591 0.52719 0.63708 0.0
O107 O 0.13592 0.50307 0.66143 0.0
O108 O 0.16343 0.51565 0.6072 0.0
C109 C 0.11703 0.43713 0.73905 0.0
O110 O 0.15291 0.46163 0.73297 0.0
C111 C 0.06296 0.41211 0.59217 0.0
Zn112 Zn 0.46887 0.60461 0.74159 0.0
Zn113 Zn 0.50977 0.61368 0.68236 0.0
O114 O 0.46038 0.56126 0.67638 0.0
O115 O 0.43135 0.54936 0.72953 0.0
O116 O 0.53656 0.61511 0.63538 0.0
O117 O 0.51372 0.61767 0.77367 0.0
O118 O 0.54693 0.62086 0.72484 0.0
C119 C 0.4334 0.53879 0.69704 0.0
C120 C 0.48043 0.66874 0.6964 0.0
O121 O 0.50198 0.66018 0.67842 0.0
O122 O 0.46145 0.64809 0.72305 0.0
C123 C 0.51727 0.60853 0.60567 0.0
O124 O 0.48271 0.60291 0.60756 0.0
C125 C 0.54428 0.623 0.75976 0.0
C126 C 0.24042 0.15951 0.06331 0.0
C127 C 0.22749 0.12753 0.03933 0.0
C128 C 0.22642 0.18493 0.06022 0.0
C129 C 0.19802 0.17718 0.03332 0.0
C130 C 0.18942 0.14852 0.00564 0.0
C131 C 0.20463 0.12407 0.00881 0.0
C132 C 0.23781 0.21642 0.08912 0.0
C133 C 0.15981 0.13974 0.97605 0.0
C134 C 0.11402 0.17962 0.07331 0.0
C135 C 0.11671 0.21266 0.05777 0.0
C136 C 0.14006 0.1678 0.06497 0.0
C137 C 0.17025 0.19 0.04092 0.0
C138 C 0.17346 0.22365 0.02524 0.0
C139 C 0.1464 0.2345 0.03369 0.0
C140 C 0.13498 0.13127 0.08195 0.0
C141 C 0.20573 0.24862 0.00029 0.0
H142 H 0.2587 0.16257 0.08657 0.0
H143 H 0.19481 0.09947 0.99006 0.0
H144 H 0.23924 0.24236 0.07702 0.0
H145 H 0.21631 0.20613 0.11111 0.0
H146 H 0.26568 0.22458 0.10206 0.0
H147 H 0.16257 0.12342 0.95241 0.0
H148 H 0.13127 0.12195 0.98788 0.0
H149 H 0.1617 0.16655 0.96575 0.0
H150 H 0.09093 0.16232 0.0916 0.0
H151 H 0.14866 0.26016 0.02168 0.0
H152 H 0.15967 0.13805 0.10009 0.0
H153 H 0.13336 0.11089 0.06001 0.0
H154 H 0.10897 0.1165 0.09866 0.0
H155 H 0.23168 0.26625 0.01737 0.0
H156 H 0.19978 0.26846 0.98423 0.0
H157 H 0.21184 0.23091 0.98082 0.0
C158 C 0.8423 0.96309 0.02077 0.0
C159 C 0.82083 0.94869 0.98813 0.0
C160 C 0.85853 0.00213 0.03085 0.0
C161 C 0.85164 0.02682 0.00852 0.0
C162 C 0.82616 0.01122 0.97803 0.0
C163 C 0.81184 0.97245 0.96754 0.0
C164 C 0.88611 0.01758 0.06319 0.0
C165 C 0.81614 0.03595 0.95492 0.0
C166 C 0.89539 0.12629 0.05285 0.0
C167 C 0.93039 0.145 0.03525 0.0
C168 C 0.86742 0.08892 0.04172 0.0
C169 C 0.87573 0.06926 0.01389 0.0
C170 C 0.91022 0.08908 0.99456 0.0
C171 C 0.9368 0.1271 0.005 0.0
C172 C 0.83013 0.06974 0.06142 0.0
C173 C 0.92073 0.06905 0.96528 0.0
H174 H 0.84955 0.94477 0.03646 0.0
H175 H 0.79505 0.96118 0.94233 0.0
H176 H 0.91497 0.03769 0.05313 0.0
H177 H 0.8784 0.03401 0.08263 0.0
H178 H 0.88709 0.99431 0.07857 0.0
H179 H 0.78913 0.01822 0.93929 0.0
H180 H 0.8136 0.05749 0.97238 0.0
H181 H 0.83879 0.05184 0.9347 0.0
H182 H 0.89046 0.1403 0.07623 0.0
H183 H 0.96409 0.1415 0.99173 0.0
H184 H 0.83121 0.05173 0.08382 0.0
H185 H 0.8065 0.05071 0.04225 0.0
H186 H 0.82397 0.09137 0.07406 0.0
H187 H 0.92307 0.0452 0.97781 0.0
H188 H 0.94807 0.08892 0.95213 0.0
H189 H 0.89841 0.05621 0.94345 0.0
C190 C 0.92667 0.83782 0.00543 0.0
C191 C 0.9237 0.8618 0.97941 0.0
C192 C 0.96217 0.8463 0.01983 0.0
C193 C 0.99506 0.88016 0.00876 0.0
C194 C 0.99227 0.90349 0.98135 0.0
C195 C 0.9567 0.8937 0.96667 0.0
C196 C 0.96422 0.82 0.04799 0.0
C197 C 0.02656 0.94024 0.96917 0.0
C198 C 0.07837 0.93993 0.07235 0.0
C199 C 0.10726 0.93736 0.05419 0.0
C200 C 0.04083 0.91898 0.05947 0.0
C201 C 0.03188 0.89409 0.02828 0.0
C202 C 0.06019 0.88818 0.01238 0.0
C203 C 0.0978 0.91039 0.02518 0.0
C204 C 0.01161 0.92652 0.077 0.0
C205 C 0.05135 0.86063 0.9801 0.0
H206 H 0.90123 0.81287 0.01507 0.0
H207 H 0.95462 0.91239 0.9466 0.0
H208 H 0.98888 0.81605 0.04297 0.0
H209 H 0.96792 0.83305 0.07599 0.0
H210 H 0.93804 0.79129 0.04765 0.0
H211 H 0.01964 0.95448 0.94678 0.0
H212 H 0.03879 0.96076 0.99298 0.0
H213 H 0.04873 0.93419 0.95924 0.0
H214 H 0.08543 0.96057 0.09492 0.0
H215 H 0.11996 0.90781 0.01144 0.0
H216 H 0.98548 0.89904 0.08281 0.0
H217 H 0.00377 0.94264 0.05755 0.0
H218 H 0.0222 0.94362 0.10316 0.0
H219 H 0.02387 0.83379 0.98385 0.0
H220 H 0.07386 0.85306 0.97631 0.0
H221 H 0.04901 0.87417 0.95446 0.0
C222 C 0.8551 0.52523 0.34637 0.0
C223 C 0.87723 0.53253 0.3149 0.0
C224 C 0.82919 0.53846 0.34877 0.0
C225 C 0.82632 0.55972 0.3193 0.0
C226 C 0.85441 0.57399 0.29193 0.0
C227 C 0.87928 0.55955 0.28959 0.0
C228 C 0.80074 0.52404 0.37932 0.0
C229 C 0.85395 0.59901 0.26147 0.0
C230 C 0.72876 0.51958 0.27661 0.0
C231 C 0.71816 0.54604 0.28867 0.0
C232 C 0.76346 0.52347 0.28733 0.0
C233 C 0.78884 0.55534 0.31004 0.0
C234 C 0.77844 0.58239 0.32228 0.0
C235 C 0.74277 0.57701 0.31193 0.0
C236 C 0.77291 0.4934 0.27393 0.0
C237 C 0.80453 0.61679 0.34634 0.0
H238 H 0.85394 0.50474 0.3663 0.0
H239 H 0.89713 0.56589 0.26567 0.0
H240 H 0.79394 0.54643 0.38818 0.0
H241 H 0.77413 0.49857 0.36905 0.0
H242 H 0.81127 0.51531 0.4036 0.0
H243 H 0.88211 0.61527 0.24844 0.0
H244 H 0.83297 0.58054 0.23986 0.0
H245 H 0.84554 0.61969 0.27213 0.0
H246 H 0.70957 0.49533 0.25904 0.0
H247 H 0.73451 0.59747 0.3214 0.0
H248 H 0.78041 0.48116 0.29765 0.0
H249 H 0.79771 0.50681 0.25558 0.0
H250 H 0.74902 0.46933 0.25835 0.0
H251 H 0.80032 0.60822 0.37566 0.0
H252 H 0.79827 0.64058 0.34328 0.0
H253 H 0.83474 0.62778 0.33987 0.0
C254 C 0.55177 0.27038 0.29474 0.0
C255 C 0.52199 0.23688 0.30958 0.0
C256 C 0.55064 0.30465 0.29351 0.0
C257 C 0.51859 0.30558 0.30698 0.0
C258 C 0.48872 0.27215 0.32289 0.0
C259 C 0.49088 0.23815 0.32424 0.0
C260 C 0.58355 0.33971 0.2769 0.0
C261 C 0.45398 0.27186 0.33724 0.0
C262 C 0.54324 0.40937 0.31885 0.0
C263 C 0.53601 0.41698 0.28292 0.0
C264 C 0.53393 0.37188 0.32877 0.0
C265 C 0.51648 0.34138 0.30228 0.0
C266 C 0.50456 0.34817 0.26777 0.0
C267 C 0.51478 0.38597 0.25836 0.0
C268 C 0.54694 0.366 0.36597 0.0
C269 C 0.48491 0.31636 0.23906 0.0
H270 H 0.57616 0.26981 0.28383 0.0
H271 H 0.46775 0.21231 0.33569 0.0
H272 H 0.57396 0.34772 0.2515 0.0
H273 H 0.59452 0.36461 0.29654 0.0
H274 H 0.60721 0.33477 0.26963 0.0
H275 H 0.43595 0.24573 0.35341 0.0
H276 H 0.46202 0.29777 0.35483 0.0
H277 H 0.43691 0.27265 0.31363 0.0
H278 H 0.55958 0.43315 0.33806 0.0
H279 H 0.50867 0.3916 0.2307 0.0
H280 H 0.57366 0.36537 0.36269 0.0
H281 H 0.52572 0.33813 0.37773 0.0
H282 H 0.55238 0.38963 0.38586 0.0
H283 H 0.50604 0.31046 0.22595 0.0
H284 H 0.47105 0.3243 0.2171 0.0
H285 H 0.46328 0.28936 0.25188 0.0
C286 C 0.66128 0.16254 0.32961 0.0
C287 C 0.63271 0.16556 0.34791 0.0
C288 C 0.6988 0.19302 0.3312 0.0
C289 C 0.70735 0.22706 0.35117 0.0
C290 C 0.68003 0.22708 0.37503 0.0
C291 C 0.64279 0.19588 0.37339 0.0
C292 C 0.72766 0.19105 0.30688 0.0
C293 C 0.68836 0.26235 0.39772 0.0
C294 C 0.80498 0.31632 0.34465 0.0
C295 C 0.79951 0.33503 0.31469 0.0
C296 C 0.77549 0.28095 0.35694 0.0
C297 C 0.73956 0.26435 0.33924 0.0
C298 C 0.73391 0.28322 0.30905 0.0
C299 C 0.76399 0.31815 0.29705 0.0
C300 C 0.78279 0.26188 0.3891 0.0
C301 C 0.69595 0.2666 0.28934 0.0
H302 H 0.65356 0.13867 0.31039 0.0
H303 H 0.6208 0.19809 0.38794 0.0
H304 H 0.72949 0.20576 0.2806 0.0
H305 H 0.75614 0.20589 0.3203 0.0
H306 H 0.71968 0.16076 0.30021 0.0
H307 H 0.66769 0.2552 0.42025 0.0
H308 H 0.71735 0.27629 0.40992 0.0
H309 H 0.68662 0.28354 0.37961 0.0
H310 H 0.83237 0.32925 0.35857 0.0
H311 H 0.75948 0.33248 0.27405 0.0
H312 H 0.76873 0.23021 0.38467 0.0
H313 H 0.771 0.26733 0.41446 0.0
H314 H 0.81356 0.27339 0.39399 0.0
H315 H 0.68782 0.23792 0.27709 0.0
H316 H 0.69614 0.28534 0.26695 0.0
H317 H 0.67377 0.26253 0.30925 0.0
C318 C 0.44778 0.84564 0.65981 0.0
C319 C 0.45653 0.86507 0.69416 0.0
C320 C 0.45922 0.81863 0.65195 0.0
C321 C 0.48017 0.81153 0.67891 0.0
C322 C 0.49448 0.83592 0.71063 0.0
C323 C 0.48236 0.86242 0.71796 0.0
C324 C 0.44441 0.79412 0.6172 0.0
C325 C 0.51817 0.83037 0.73942 0.0
C326 C 0.44903 0.70816 0.70149 0.0
C327 C 0.47875 0.70386 0.68783 0.0
C328 C 0.44854 0.74254 0.69716 0.0
C329 C 0.47878 0.77373 0.67897 0.0
C330 C 0.50808 0.76907 0.66362 0.0
C331 C 0.50768 0.73407 0.66818 0.0
C332 C 0.41622 0.74586 0.71337 0.0
C333 C 0.54075 0.80146 0.64399 0.0
H334 H 0.42826 0.84792 0.64094 0.0
H335 H 0.48992 0.87804 0.7442 0.0
H336 H 0.46554 0.78715 0.60595 0.0
H337 H 0.41857 0.76656 0.62367 0.0
H338 H 0.43684 0.80866 0.59564 0.0
H339 H 0.53295 0.85585 0.75834 0.0
H340 H 0.49956 0.80492 0.75611 0.0
H341 H 0.53953 0.8249 0.72626 0.0
H342 H 0.42633 0.68478 0.71627 0.0
H343 H 0.53079 0.73095 0.65756 0.0
H344 H 0.40296 0.75506 0.69198 0.0
H345 H 0.42712 0.76808 0.73584 0.0
H346 H 0.39396 0.71826 0.72485 0.0
H347 H 0.53121 0.81794 0.62704 0.0
H348 H 0.55542 0.79061 0.62594 0.0
H349 H 0.56159 0.82172 0.66477 0.0
C350 C 0.25212 0.75759 0.67053 0.0
C351 C 0.27868 0.76635 0.69922 0.0
C352 C 0.22735 0.71909 0.65924 0.0
C353 C 0.23001 0.68896 0.67642 0.0
C354 C 0.25617 0.69769 0.70591 0.0
C355 C 0.27977 0.7361 0.71718 0.0
C356 C 0.1991 0.71074 0.62834 0.0
C357 C 0.26054 0.6666 0.72455 0.0
C358 C 0.15644 0.58251 0.67079 0.0
C359 C 0.17217 0.56903 0.64431 0.0
C360 C 0.17347 0.62201 0.67967 0.0
C361 C 0.20757 0.64844 0.66238 0.0
C362 C 0.2228 0.6351 0.6347 0.0
C363 C 0.20467 0.59563 0.62572 0.0
C364 C 0.15586 0.63524 0.70864 0.0
C365 C 0.25953 0.66215 0.61615 0.0
H366 H 0.25101 0.78077 0.65662 0.0
H367 H 0.30031 0.74248 0.73923 0.0
H368 H 0.20726 0.70032 0.60349 0.0
H369 H 0.17053 0.68759 0.63626 0.0
H370 H 0.19745 0.73666 0.62093 0.0
H371 H 0.28175 0.67818 0.74755 0.0
H372 H 0.23304 0.64441 0.73564 0.0
H373 H 0.26951 0.65202 0.70409 0.0
H374 H 0.13104 0.56213 0.68492 0.0
H375 H 0.21701 0.58541 0.60525 0.0
H376 H 0.15482 0.66092 0.69919 0.0
H377 H 0.17344 0.64377 0.73429 0.0
H378 H 0.12672 0.6123 0.71536 0.0
H379 H 0.25842 0.68714 0.6049 0.0
H380 H 0.26611 0.64774 0.59334 0.0
H381 H 0.28312 0.67355 0.63678 0.0
C382 C 0.22307 0.40397 0.62709 0.0
C383 C 0.20823 0.42191 0.64937 0.0
C384 C 0.25926 0.40936 0.63453 0.0
C385 C 0.28169 0.43527 0.66328 0.0
C386 C 0.26528 0.4505 0.6878 0.0
C387 C 0.22827 0.44265 0.68105 0.0
C388 C 0.27413 0.38951 0.60985 0.0
C389 C 0.28803 0.47867 0.71869 0.0
C390 C 0.37993 0.47133 0.70093 0.0
C391 C 0.39978 0.50522 0.68093 0.0
C392 C 0.34218 0.44434 0.69157 0.0
C393 C 0.32355 0.45314 0.6635 0.0
C394 C 0.34484 0.48539 0.64089 0.0
C395 C 0.38312 0.51055 0.6494 0.0
C396 C 0.32167 0.40828 0.71386 0.0
C397 C 0.32634 0.49613 0.6106 0.0
H398 H 0.20721 0.38729 0.60289 0.0
H399 H 0.21668 0.45641 0.69833 0.0
H400 H 0.28311 0.40476 0.5833 0.0
H401 H 0.2985 0.38865 0.62265 0.0
H402 H 0.25135 0.35955 0.6033 0.0
H403 H 0.27121 0.48878 0.73433 0.0
H404 H 0.29846 0.46504 0.73834 0.0
H405 H 0.31309 0.5042 0.70733 0.0
H406 H 0.39317 0.46696 0.72502 0.0
H407 H 0.39869 0.53681 0.63397 0.0
H408 H 0.29656 0.38527 0.6987 0.0
H409 H 0.31221 0.41496 0.74014 0.0
H410 H 0.341 0.39726 0.72105 0.0
H411 H 0.3124 0.47222 0.59003 0.0
H412 H 0.34696 0.52244 0.59599 0.0
H413 H 0.30418 0.5013 0.62238 0.0
C414 C 0.06986 0.29116 0.90095 0.0
C415 C 0.05994 0.30125 0.93455 0.0
C416 C 0.07777 0.31439 0.86991 0.0
C417 C 0.07552 0.34847 0.87243 0.0
C418 C 0.06499 0.35855 0.90608 0.0
C419 C 0.05743 0.33488 0.93678 0.0
C420 C 0.08905 0.30273 0.83453 0.0
C421 C 0.06209 0.39453 0.90976 0.0
C422 C 0.13282 0.4248 0.80241 0.0
C423 C 0.10544 0.41756 0.77498 0.0
C424 C 0.12322 0.40331 0.83479 0.0
C425 C 0.08527 0.37397 0.84001 0.0
C426 C 0.05717 0.36765 0.81321 0.0
C427 C 0.06759 0.38947 0.78097 0.0
C428 C 0.15402 0.41096 0.86271 0.0
C429 C 0.01633 0.33688 0.81796 0.0
H430 H 0.07188 0.26526 0.89895 0.0
H431 H 0.04965 0.34285 0.96258 0.0
H432 H 0.06946 0.29984 0.81169 0.0
H433 H 0.1179 0.32543 0.8268 0.0
H434 H 0.08885 0.27504 0.83693 0.0
H435 H 0.05227 0.39761 0.93745 0.0
H436 H 0.09011 0.42031 0.90492 0.0
H437 H 0.04215 0.39415 0.88853 0.0
H438 H 0.16212 0.44648 0.79811 0.0
H439 H 0.04621 0.38377 0.76001 0.0
H440 H 0.15763 0.38536 0.86426 0.0
H441 H 0.14599 0.41593 0.89057 0.0
H442 H 0.18166 0.43631 0.85564 0.0
H443 H 0.0139 0.30806 0.81707 0.0
H444 H -0.00254 0.33766 0.79613 0.0
H445 H 0.00615 0.34028 0.84529 0.0
C446 C 0.73167 0.77388 0.85005 0.0
C447 C 0.74322 0.76585 0.88362 0.0
C448 C 0.70105 0.74494 0.82983 0.0
C449 C 0.68238 0.70679 0.84296 0.0
C450 C 0.69574 0.69797 0.87547 0.0
C451 C 0.72562 0.72786 0.89593 0.0
C452 C 0.68712 0.75581 0.79579 0.0
C453 C 0.67753 0.65735 0.88942 0.0
C454 C 0.57858 0.65471 0.81811 0.0
C455 C 0.57811 0.63746 0.78401 0.0
C456 C 0.61211 0.67555 0.83872 0.0
C457 C 0.6458 0.67807 0.82556 0.0
C458 C 0.64481 0.65759 0.79301 0.0
C459 C 0.611 0.63804 0.77211 0.0
C460 C 0.61203 0.69768 0.87283 0.0
C461 C 0.67985 0.65815 0.77915 0.0
H462 H 0.74533 0.80328 0.84053 0.0
H463 H 0.73505 0.72158 0.92163 0.0
H464 H 0.68534 0.73743 0.77185 0.0
H465 H 0.6582 0.75093 0.80047 0.0
H466 H 0.7058 0.78645 0.78853 0.0
H467 H 0.69601 0.65394 0.90991 0.0
H468 H 0.65048 0.64992 0.90292 0.0
H469 H 0.67095 0.63644 0.86624 0.0
H470 H 0.55326 0.65434 0.82757 0.0
H471 H 0.61062 0.62426 0.74603 0.0
H472 H 0.62929 0.72908 0.86799 0.0
H473 H 0.62495 0.6912 0.89667 0.0
H474 H 0.58302 0.69093 0.88037 0.0
H475 H 0.69809 0.68574 0.7652 0.0
H476 H 0.67269 0.63421 0.75904 0.0
H477 H 0.69657 0.65604 0.8024 0.0
C478 C 0.36409 0.95949 0.82755 0.0
C479 C 0.35009 0.95009 0.79115 0.0
C480 C 0.35146 0.97791 0.85187 0.0
C481 C 0.32393 0.98704 0.8396 0.0
C482 C 0.31157 0.98007 0.80216 0.0
C483 C 0.32494 0.96171 0.77822 0.0
C484 C 0.3658 0.98524 0.89142 0.0
C485 C 0.28247 0.98968 0.78799 0.0
C486 C 0.26105 0.98293 0.91768 0.0
C487 C 0.27824 0.02174 0.929 0.0
C488 C 0.27423 0.97158 0.88708 0.0
C489 C 0.30541 -0.0003 0.86725 0.0
C490 C 0.3215 0.03915 0.87719 0.0
C491 C 0.30775 0.04972 0.90801 0.0
C492 C 0.25611 0.92919 0.8773 0.0
C493 C 0.35455 0.06999 0.85655 0.0
H494 H 0.38395 0.95104 0.83754 0.0
H495 H 0.31403 0.95448 0.75011 0.0
H496 H 0.37533 0.01543 0.9 0.0
H497 H 0.34248 0.96619 0.90988 0.0
H498 H 0.38968 0.97975 0.89563 0.0
H499 H 0.28052 0.98844 0.75735 0.0
H500 H 0.25429 0.96877 0.79887 0.0
H501 H 0.28924 0.01881 0.79777 0.0
H502 H 0.23795 0.96113 0.93342 0.0
H503 H 0.32099 0.07983 0.91632 0.0
H504 H 0.27641 0.91911 0.88331 0.0
H505 H 0.24899 0.9242 0.84738 0.0
H506 H 0.22992 0.91142 0.89308 0.0
H507 H 0.38041 0.06855 0.86316 0.0
H508 H 0.36003 0.09934 0.86399 0.0
H509 H 0.34946 0.06532 0.8263 0.0
C510 C 0.4581 0.05016 0.19769 0.0
C511 C 0.45304 0.05131 0.23589 0.0
C512 C 0.42693 0.03326 0.17332 0.0
C513 C 0.39008 0.01683 0.18771 0.0
C514 C 0.38489 0.01174 0.22625 0.0
C515 C 0.41659 0.02945 0.25011 0.0
C516 C 0.43367 0.03815 0.13236 0.0
C517 C 0.34583 0.99216 0.24244 0.0
C518 C 0.32657 0.04915 0.14433 0.0
C519 C 0.30159 0.01694 0.123 0.0
C520 C 0.35589 0.04946 0.16469 0.0
C521 C 0.35954 0.0161 0.16461 0.0
C522 C 0.33427 0.9833 0.14294 0.0
C523 C 0.3058 0.98439 0.12168 0.0
C524 C 0.3826 0.08549 0.18672 0.0
C525 C 0.33688 0.94708 0.14223 0.0
H526 H 0.48634 0.06581 0.18649 0.0
H527 H 0.41244 0.02915 0.27965 0.0
H528 H 0.413 0.01177 0.11686 0.0
H529 H 0.42983 0.06225 0.12301 0.0
H530 H 0.46278 0.04483 0.12537 0.0
H531 H 0.34612 0.98243 0.27094 0.0
H532 H 0.33516 0.01275 0.24349 0.0
H533 H 0.32582 0.96699 0.22502 0.0
H534 H 0.32299 0.0742 0.14515 0.0
H535 H 0.28603 0.9594 0.10525 0.0
H536 H 0.41237 0.09533 0.17928 0.0
H537 H 0.37977 0.07925 0.21663 0.0
H538 H 0.37697 0.1095 0.182 0.0
H539 H 0.34659 0.94219 0.16927 0.0
H540 H 0.35757 0.94972 0.12114 0.0
H541 H 0.30917 0.92139 0.13471 0.0
C542 C 0.01281 0.3127 0.17288 0.0
C543 C 0.03581 0.32194 0.14187 0.0
C544 C 0.00675 0.34033 0.1905 0.0
C545 C 0.02534 0.37859 0.17762 0.0
C546 C 0.05134 0.38892 0.14841 0.0
C547 C 0.05558 0.36017 0.1302 0.0
C548 C 0.97803 0.32765 0.22094 0.0
C549 C 0.07327 0.42974 0.13507 0.0
C550 C 0.96191 0.42052 0.18996 0.0
C551 C 0.97133 0.4353 0.22625 0.0
C552 C 0.98161 0.40484 0.17232 0.0
C553 C 0.01238 0.40516 0.19095 0.0
C554 C 0.02519 0.42463 0.22551 0.0
C555 C 0.00404 0.43892 0.24319 0.0
C556 C 0.96681 0.38426 0.13547 0.0
C557 C 0.05946 0.4278 0.24503 0.0
H558 H -0.00253 0.28314 0.18196 0.0
H559 H 0.07388 0.36748 0.10653 0.0
H560 H 0.99085 0.34576 0.24614 0.0
H561 H 0.95388 0.33128 0.21216 0.0
H562 H 0.9668 0.29703 0.22821 0.0
H563 H 0.10062 0.43575 0.12303 0.0
H564 H 0.05666 0.43395 0.11312 0.0
H565 H 0.07904 0.451 0.15772 0.0
H566 H 0.93712 0.41823 0.17628 0.0
H567 H 0.01206 0.45114 0.27089 0.0
H568 H 0.95537 0.35288 0.13876 0.0
H569 H 0.99 0.39452 0.11531 0.0
H570 H 0.94398 0.38858 0.12378 0.0
H571 H 0.05138 0.40056 0.25938 0.0
H572 H 0.07133 0.45164 0.26597 0.0
H573 H 0.08181 0.43264 0.22501 0.0
C574 C 0.61761 0.6094 0.1503 0.0
C575 C 0.62167 0.61342 0.18887 0.0
C576 C 0.63434 0.64164 0.12764 0.0
C577 C 0.65568 0.67891 0.1439 0.0
C578 C 0.65706 0.68342 0.18285 0.0
C579 C 0.63995 0.65055 0.20495 0.0
C580 C 0.63173 0.63546 0.08625 0.0
C581 C 0.67908 0.72269 0.20126 0.0
C582 C 0.73859 0.7478 0.0859 0.0
C583 C 0.724 0.76846 0.06795 0.0
C584 C 0.71715 0.71971 0.1118 0.0
C585 C 0.68018 0.7121 0.12016 0.0
C586 C 0.6659 0.73402 0.10339 0.0
C587 C 0.68793 0.76186 0.0774 0.0
C588 C 0.73353 0.69705 0.12909 0.0
C589 C 0.62681 0.72704 0.11183 0.0
H590 H 0.60319 0.58082 0.13766 0.0
H591 H 0.64327 0.65395 0.23472 0.0
H592 H 0.62389 0.65516 0.07267 0.0
H593 H 0.65981 0.64211 0.07572 0.0
H594 H 0.61067 0.60533 0.07796 0.0
H595 H 0.67209 0.722 0.23093 0.0
H596 H 0.70985 0.73319 0.19923 0.0
H597 H 0.67344 0.74376 0.18722 0.0
H598 H 0.76648 0.75279 0.07899 0.0
H599 H 0.67646 0.77784 0.06387 0.0
H600 H 0.71663 0.66636 0.12009 0.0
H601 H 0.73203 0.69809 0.15961 0.0
H602 H 0.76349 0.70805 0.12141 0.0
H603 H 0.60522 0.69854 0.10025 0.0
H604 H 0.62163 0.74943 0.09998 0.0
H605 H 0.62268 0.7264 0.1421 0.0
C606 C 0.01837 0.37606 0.54075 0.0
C607 C 0.02567 0.39665 0.57418 0.0
C608 C 0.99049 0.37333 0.51615 0.0
C609 C 0.97047 0.39267 0.52498 0.0
C610 C 0.97438 0.40917 0.56069 0.0
C611 C 0.00187 0.41062 0.5852 0.0
C612 C 0.98601 0.35405 0.4789 0.0
C613 C 0.95332 0.42979 0.57127 0.0
C614 C 0.96157 0.4441 0.44229 0.0
C615 C 0.92358 0.42039 0.43191 0.0
C616 C 0.97653 0.43622 0.47367 0.0
C617 C 0.95306 0.40324 0.4946 0.0
C618 C 0.91437 0.3797 0.48478 0.0
C619 C 0.89995 0.38879 0.4536 0.0
C620 C 0.01784 0.46258 0.48367 0.0
C621 C 0.88869 0.34393 0.5059 0.0
H622 H 0.03662 0.3649 0.53251 0.0
H623 H 0.00759 0.42658 0.61113 0.0
H624 H 0.9558 0.33782 0.47002 0.0
H625 H 0.00168 0.37635 0.45806 0.0
H626 H -0.00263 0.334 0.47918 0.0
H627 H 0.95313 0.43358 0.60169 0.0
H628 H 0.96744 0.45875 0.55882 0.0
H629 H 0.92369 0.41398 0.56066 0.0
H630 H 0.97971 0.46869 0.42565 0.0
H631 H 0.87056 0.3702 0.44534 0.0
H632 H 0.03358 0.44686 0.48006 0.0
H633 H 0.02095 0.47196 0.51308 0.0
H634 H 0.03124 0.48861 0.46635 0.0
H635 H 0.89522 0.32094 0.49861 0.0
H636 H 0.85833 0.33309 0.49925 0.0
H637 H 0.89335 0.34938 0.53611 0.0
C638 C 0.59274 0.59635 0.40407 0.0
C639 C 0.5913 0.56078 0.40026 0.0
C640 C 0.58338 0.60742 0.43754 0.0
C641 C 0.57171 0.58201 0.46762 0.0
C642 C 0.57064 0.54628 0.46403 0.0
C643 C 0.58072 0.53624 0.4305 0.0
C644 C 0.58543 0.64601 0.44055 0.0
C645 C 0.55785 0.51815 0.49529 0.0
C646 C 0.57047 0.61577 0.56595 0.0
C647 C 0.53208 0.60429 0.56979 0.0
C648 C 0.58413 0.60995 0.5324 0.0
C649 C 0.55865 0.59166 0.50227 0.0
C650 C 0.52002 0.58065 0.50583 0.0
C651 C 0.50729 0.58737 0.53944 0.0
C652 C 0.62563 0.62266 0.52941 0.0
C653 C 0.49184 0.56061 0.47453 0.0
H654 H 0.60118 0.61557 0.38088 0.0
H655 H 0.57944 0.50866 0.42776 0.0
H656 H 0.55667 0.64171 0.44469 0.0
H657 H 0.60304 0.66253 0.46492 0.0
H658 H 0.59749 0.66349 0.41553 0.0
H659 H 0.55951 0.49197 0.48835 0.0
H660 H 0.57549 0.53213 0.52039 0.0
H661 H 0.52815 0.50917 0.50223 0.0
H662 H 0.58982 0.6291 0.58924 0.0
H663 H 0.47755 0.57831 0.54219 0.0
H664 H 0.63773 0.64094 0.50491 0.0
H665 H 0.62907 0.5971 0.52553 0.0
H666 H 0.6422 0.63906 0.55435 0.0
H667 H 0.50129 0.57831 0.4494 0.0
H668 H 0.46303 0.55497 0.48139 0.0
H669 H 0.49013 0.53272 0.46768 0.0
C670 C 0.40299 0.9298 0.55282 0.0
C671 C 0.3855 0.93566 0.58346 0.0
C672 C 0.4177 0.95679 0.52453 0.0
C673 C 0.4146 0.99039 0.52665 0.0
C674 C 0.39544 0.99564 0.55662 0.0
C675 C 0.38125 0.9683 0.58475 0.0
C676 C 0.43799 0.95009 0.49312 0.0
C677 C 0.39109 0.03081 0.55964 0.0
C678 C 0.4908 0.07732 0.47705 0.0
C679 C 0.47269 0.07552 0.44338 0.0
C680 C 0.47187 0.05041 0.50471 0.0
C681 C 0.43371 0.02107 0.49878 0.0
C682 C 0.41478 0.01995 0.46544 0.0
C683 C 0.43453 0.04707 0.43808 0.0
C684 C 0.49317 0.05256 0.53978 0.0
C685 C 0.374 0.98943 0.45824 0.0
H686 H 0.40639 0.90469 0.55146 0.0
H687 H 0.36762 0.97302 0.60819 0.0
H688 H 0.42592 0.95202 0.46623 0.0
H689 H 0.46832 0.97281 0.49386 0.0
H690 H 0.43616 0.92154 0.49442 0.0
H691 H 0.37243 0.02887 0.58267 0.0
H692 H 0.41928 0.05684 0.56431 0.0
H693 H 0.37923 0.03481 0.53351 0.0
H694 H 0.52024 0.09916 0.48149 0.0
H695 H 0.42021 0.04552 0.41224 0.0
H696 H 0.49542 0.02621 0.54201 0.0
H697 H 0.47754 0.05379 0.56419 0.0
H698 H 0.52217 0.07808 0.54083 0.0
H699 H 0.37167 0.96069 0.45613 0.0
H700 H 0.36243 0.99439 0.43235 0.0
H701 H 0.35618 0.98862 0.48157 0.0
loop_
_geom_bond_atom_site_label_1
_geom_bond_atom_site_label_2
_geom_bond_distance
_geom_bond_site_symmetry_2
_ccdc_geom_bond_type
Zn0 O3 2.031 . S
Zn0 O5 2.049 1_455 S
Zn0 O10 2.067 1_455 S
Zn1 O2 1.962 . S
Zn1 O4 1.986 1_554 S
Zn1 O6 1.996 . S
Zn1 O9 1.943 1_454 S
O2 Zn1 1.962 . S
O2 C7 1.254 . S
O3 Zn0 2.031 . S
O3 C7 1.269 . S
O4 Zn1 1.986 1_556 S
O4 C11 1.262 . S
O5 Zn0 2.049 1_655 S
O5 C13 1.260 . S
O6 Zn1 1.996 . S
O6 C13 1.257 1_455 S
C7 O2 1.254 . S
C7 O3 1.269 . S
C8 O9 1.249 1_554 S
C8 O10 1.270 . S
O9 Zn1 1.943 1_656 S
O9 C8 1.249 1_556 S
O10 Zn0 2.067 1_655 S
O10 C8 1.270 . S
C11 O4 1.262 . S
C11 O12 1.232 . S
O12 C11 1.232 . S
C13 O5 1.260 . S
C13 O6 1.257 1_655 S
Zn14 O17 2.031 . S
Zn14 O19 2.049 . S
Zn14 O24 2.067 . S
Zn15 O16 1.962 . S
Zn15 O18 1.986 . S
Zn15 O20 1.996 1_554 S
Zn15 O23 1.943 . S
O16 Zn15 1.962 . S
O16 C21 1.247 1_554 S
O17 Zn14 2.031 . S
O17 C21 1.277 . S
O18 Zn15 1.986 . S
O18 C25 1.262 . S
O19 Zn14 2.049 . S
O19 C27 1.260 . S
O20 Zn15 1.996 1_556 S
O20 C27 1.257 . S
C21 O16 1.247 1_556 S
C21 O17 1.277 . S
C22 O23 1.249 . S
C22 O24 1.270 1_554 S
O23 Zn15 1.943 . S
O23 C22 1.249 . S
O24 Zn14 2.067 . S
O24 C22 1.270 1_556 S
C25 O18 1.262 . S
C25 O26 1.232 . S
O26 C25 1.232 . S
C27 O19 1.260 . S
C27 O20 1.257 . S
Zn28 O31 2.031 1_545 S
Zn28 O33 2.049 . S
Zn28 O38 2.067 . S
Zn29 O30 1.963 1_545 S
Zn29 O32 1.981 1_554 S
Zn29 O34 2.004 . S
Zn29 O37 1.941 1_554 S
O30 Zn29 1.963 1_565 S
O30 C35 1.254 . S
O31 Zn28 2.031 1_565 S
O31 C35 1.269 . S
O32 Zn29 1.981 1_556 S
O32 C39 1.262 1_545 S
O33 Zn28 2.049 . S
O33 C41 1.260 . S
O34 Zn29 2.004 . S
O34 C41 1.257 . S
C35 O30 1.254 . S
C35 O31 1.269 . S
C36 O37 1.249 1_554 S
C36 O38 1.270 . S
O37 Zn29 1.941 1_556 S
O37 C36 1.249 1_556 S
O38 Zn28 2.067 . S
O38 C36 1.270 . S
C39 O32 1.262 1_565 S
C39 O40 1.232 . S
O40 C39 1.232 . S
C41 O33 1.260 . S
C41 O34 1.257 . S
Zn42 O45 2.031 . S
Zn42 O47 2.049 . S
Zn42 O52 2.067 . S
Zn43 O44 1.962 . S
Zn43 O46 1.986 . S
Zn43 O48 1.996 . S
Zn43 O51 1.943 . S
O44 Zn43 1.962 . S
O44 C49 1.254 . S
O45 Zn42 2.031 . S
O45 C49 1.269 . S
O46 Zn43 1.986 . S
O46 C53 1.262 . S
O47 Zn42 2.049 . S
O47 C55 1.260 . S
O48 Zn43 1.996 . S
O48 C55 1.257 . S
C49 O44 1.254 . S
C49 O45 1.269 . S
C50 O51 1.249 . S
C50 O52 1.270 . S
O51 Zn43 1.943 . S
O51 C50 1.249 . S
O52 Zn42 2.067 . S
O52 C50 1.270 . S
C53 O46 1.262 . S
C53 O54 1.232 . S
O54 C53 1.232 . S
C55 O47 1.260 . S
C55 O48 1.257 . S
Zn56 O59 2.031 . S
Zn56 O61 2.049 . S
Zn56 O66 2.067 . S
Zn57 O58 1.962 . S
Zn57 O60 1.986 . S
Zn57 O62 1.996 . S
Zn57 O65 1.943 . S
O58 Zn57 1.962 . S
O58 C63 1.254 . S
O59 Zn56 2.031 . S
O59 C63 1.269 . S
O60 Zn57 1.986 . S
O60 C67 1.262 . S
O61 Zn56 2.049 . S
O61 C69 1.260 . S
O62 Zn57 1.996 . S
O62 C69 1.257 . S
C63 O58 1.254 . S
C63 O59 1.269 . S
C64 O65 1.249 . S
C64 O66 1.270 . S
O65 Zn57 1.943 . S
O65 C64 1.249 . S
O66 Zn56 2.067 . S
O66 C64 1.270 . S
C67 O60 1.262 . S
C67 O68 1.232 . S
O68 C67 1.232 . S
C69 O61 1.260 . S
C69 O62 1.257 . S
Zn70 O73 2.031 . S
Zn70 O75 2.049 . S
Zn70 O80 2.067 . S
Zn71 O72 1.962 . S
Zn71 O74 1.986 . S
Zn71 O76 1.996 . S
Zn71 O79 1.943 . S
O72 Zn71 1.962 . S
O72 C77 1.254 . S
O73 Zn70 2.031 . S
O73 C77 1.269 . S
O74 Zn71 1.986 . S
O74 C81 1.262 . S
O75 Zn70 2.049 . S
O75 C83 1.260 . S
O76 Zn71 1.996 . S
O76 C83 1.257 . S
C77 O72 1.254 . S
C77 O73 1.269 . S
C78 O79 1.249 . S
C78 O80 1.270 . S
O79 Zn71 1.943 . S
O79 C78 1.249 . S
O80 Zn70 2.067 . S
O80 C78 1.270 . S
C81 O74 1.262 . S
C81 O82 1.232 . S
O82 C81 1.232 . S
C83 O75 1.260 . S
C83 O76 1.257 . S
Zn84 O87 2.031 . S
Zn84 O89 2.049 . S
Zn84 O94 2.067 . S
Zn85 O86 1.962 . S
Zn85 O88 1.986 . S
Zn85 O90 1.996 . S
Zn85 O93 1.943 . S
O86 Zn85 1.962 . S
O86 C91 1.254 . S
O87 Zn84 2.031 . S
O87 C91 1.269 . S
O88 Zn85 1.986 . S
O88 C95 1.262 . S
O89 Zn84 2.049 . S
O89 C97 1.260 . S
O90 Zn85 1.996 . S
O90 C97 1.257 . S
C91 O86 1.254 . S
C91 O87 1.269 . S
C92 O93 1.249 . S
C92 O94 1.270 . S
O93 Zn85 1.943 . S
O93 C92 1.249 . S
O94 Zn84 2.067 . S
O94 C92 1.270 . S
C95 O88 1.262 . S
C95 O96 1.232 . S
O96 C95 1.232 . S
C97 O89 1.260 . S
C97 O90 1.257 . S
Zn98 O101 2.031 . S
Zn98 O103 2.049 . S
Zn98 O108 2.067 . S
Zn99 O100 1.962 . S
Zn99 O102 1.986 . S
Zn99 O104 1.996 . S
Zn99 O107 1.943 . S
O100 Zn99 1.962 . S
O100 C105 1.254 . S
O101 Zn98 2.031 . S
O101 C105 1.269 . S
O102 Zn99 1.986 . S
O102 C109 1.262 . S
O103 Zn98 2.049 . S
O103 C111 1.260 . S
O104 Zn99 1.996 . S
O104 C111 1.257 . S
C105 O100 1.254 . S
C105 O101 1.269 . S
C106 O107 1.249 . S
C106 O108 1.270 . S
O107 Zn99 1.943 . S
O107 C106 1.249 . S
O108 Zn98 2.067 . S
O108 C106 1.270 . S
C109 O102 1.262 . S
C109 O110 1.232 . S
O110 C109 1.232 . S
C111 O103 1.260 . S
C111 O104 1.257 . S
Zn112 O115 2.031 . S
Zn112 O117 2.049 . S
Zn112 O122 2.067 . S
Zn113 O114 1.962 . S
Zn113 O116 1.986 . S
Zn113 O118 1.996 . S
Zn113 O121 1.943 . S
O114 Zn113 1.962 . S
O114 C119 1.254 . S
O115 Zn112 2.031 . S
O115 C119 1.269 . S
O116 Zn113 1.986 . S
O116 C123 1.262 . S
O117 Zn112 2.049 . S
O117 C125 1.260 . S
O118 Zn113 1.996 . S
O118 C125 1.257 . S
C119 O114 1.254 . S
C119 O115 1.269 . S
C120 O121 1.249 . S
C120 O122 1.270 . S
O121 Zn113 1.943 . S
O121 C120 1.249 . S
O122 Zn112 2.067 . S
O122 C120 1.270 . S
C123 O116 1.262 . S
C123 O124 1.232 . S
O124 C123 1.232 . S
C125 O117 1.260 . S
C125 O118 1.257 . S
C126 C127 1.393 1_554 S
C126 C128 1.394 . S
C126 H142 0.931 . S
C127 C126 1.393 1_556 S
C127 C131 1.374 . S
C128 C126 1.394 . S
C128 C129 1.369 . S
C128 C132 1.531 . S
C129 C128 1.369 . S
C129 C130 1.410 1_554 S
C129 C137 1.503 . S
C130 C129 1.410 1_556 S
C130 C131 1.392 . S
C130 C133 1.511 . S
C131 C127 1.374 . S
C131 C130 1.392 . S
C131 H143 0.929 . S
C132 C128 1.531 . S
C132 H144 0.960 . S
C132 H145 0.962 . S
C132 H146 0.960 . S
C133 C130 1.511 . S
C133 H147 0.961 . S
C133 H148 0.961 . S
C133 H149 0.961 . S
C134 C135 1.370 . S
C134 C136 1.363 . S
C134 H150 0.931 . S
C135 C134 1.370 . S
C135 C139 1.408 . S
C136 C134 1.363 . S
C136 C137 1.370 . S
C136 C140 1.524 . S
C137 C129 1.503 . S
C137 C136 1.370 . S
C137 C138 1.403 . S
C138 C137 1.403 . S
C138 C139 1.404 . S
C138 C141 1.539 . S
C139 C135 1.408 . S
C139 C138 1.404 . S
C139 H151 0.930 . S
C140 C136 1.524 . S
C140 H152 0.956 . S
C140 H153 0.961 1_554 S
C140 H154 0.961 . S
C141 C138 1.539 . S
C141 H155 0.958 . S
C141 H156 0.961 . S
C141 H157 0.960 . S
H142 C126 0.931 . S
H143 C131 0.929 . S
H144 C132 0.960 . S
H145 C132 0.962 . S
H146 C132 0.960 . S
H147 C133 0.961 . S
H148 C133 0.961 . S
H149 C133 0.961 . S
H150 C134 0.931 . S
H151 C139 0.930 . S
H152 C140 0.956 . S
H153 C140 0.961 1_556 S
H154 C140 0.961 . S
H155 C141 0.958 . S
H156 C141 0.961 . S
H157 C141 0.960 . S
C158 C159 1.391 . S
C158 C160 1.394 . S
C158 H174 0.931 . S
C159 C158 1.391 . S
C159 C163 1.376 1_554 S
C160 C158 1.394 . S
C160 C161 1.369 . S
C160 C164 1.531 1_565 S
C161 C160 1.369 . S
C161 C162 1.410 1_554 S
C161 C169 1.503 1_565 S
C162 C161 1.410 1_556 S
C162 C163 1.392 . S
C162 C165 1.511 . S
C163 C159 1.376 1_556 S
C163 C162 1.392 . S
C163 H175 0.929 . S
C164 C160 1.531 1_545 S
C164 H176 0.960 . S
C164 H177 0.962 . S
C164 H178 0.960 1_545 S
C165 C162 1.511 . S
C165 H179 0.961 . S
C165 H180 0.961 1_565 S
C165 H181 0.961 . S
C166 C167 1.370 . S
C166 C168 1.364 . S
C166 H182 0.930 1_554 S
C167 C166 1.370 . S
C167 C171 1.408 . S
C168 C166 1.364 . S
C168 C169 1.370 . S
C168 C172 1.524 . S
C169 C161 1.503 1_545 S
C169 C168 1.370 . S
C169 C170 1.403 . S
C170 C169 1.403 . S
C170 C171 1.404 . S
C170 C173 1.539 . S
C171 C167 1.408 . S
C171 C170 1.404 . S
C171 H183 0.930 . S
C172 C168 1.524 . S
C172 H184 0.959 . S
C172 H185 0.958 1_554 S
C172 H186 0.959 1_554 S
C173 C170 1.539 . S
C173 H187 0.958 . S
C173 H188 0.961 . S
C173 H189 0.960 . S
H174 C158 0.931 . S
H175 C163 0.929 . S
H176 C164 0.960 . S
H177 C164 0.962 . S
H178 C164 0.960 1_565 S
H179 C165 0.961 . S
H180 C165 0.961 1_545 S
H181 C165 0.961 . S
H182 C166 0.930 1_556 S
H183 C171 0.930 . S
H184 C172 0.959 . S
H185 C172 0.958 1_556 S
H186 C172 0.959 1_556 S
H187 C173 0.958 . S
H188 C173 0.961 . S
H189 C173 0.960 . S
C190 C191 1.391 . S
C190 C192 1.394 . S
C190 H206 0.931 . S
C191 C190 1.391 . S
C191 C195 1.376 1_556 S
C192 C190 1.394 . S
C192 C193 1.369 1_556 S
C192 C196 1.531 . S
C193 C192 1.369 1_554 S
C193 C194 1.410 . S
C193 C201 1.503 1_655 S
C194 C193 1.410 . S
C194 C195 1.392 . S
C194 C197 1.511 . S
C195 C191 1.376 1_554 S
C195 C194 1.392 . S
C195 H207 0.929 . S
C196 C192 1.531 . S
C196 H208 0.960 1_655 S
C196 H209 0.963 . S
C196 H210 0.960 . S
C197 C194 1.511 . S
C197 H211 0.961 . S
C197 H212 0.961 1_655 S
C197 H213 0.961 . S
C198 C199 1.370 . S
C198 C200 1.363 . S
C198 H214 0.931 . S
C199 C198 1.370 . S
C199 C203 1.408 1_554 S
C200 C198 1.363 . S
C200 C201 1.370 . S
C200 C204 1.524 . S
C201 C193 1.503 1_455 S
C201 C200 1.370 . S
C201 C202 1.403 1_554 S
C202 C201 1.403 1_556 S
C202 C203 1.404 . S
C202 C205 1.539 . S
C203 C199 1.408 1_556 S
C203 C202 1.404 . S
C203 H215 0.930 . S
C204 C200 1.524 . S
C204 H216 0.956 . S
C204 H217 0.961 . S
C204 H218 0.961 . S
C205 C202 1.539 . S
C205 H219 0.958 . S
C205 H220 0.961 . S
C205 H221 0.960 . S
H206 C190 0.931 . S
H207 C195 0.929 . S
H208 C196 0.960 1_455 S
H209 C196 0.963 . S
H210 C196 0.960 . S
H211 C197 0.961 . S
H212 C197 0.961 1_455 S
H213 C197 0.961 . S
H214 C198 0.931 . S
H215 C203 0.930 . S
H216 C204 0.956 . S
H217 C204 0.961 . S
H218 C204 0.961 . S
H219 C205 0.958 . S
H220 C205 0.961 . S
H221 C205 0.960 . S
C222 C223 1.391 . S
C222 C224 1.394 . S
C222 H238 0.931 . S
C223 C222 1.391 . S
C223 C227 1.376 . S
C224 C222 1.394 . S
C224 C225 1.369 . S
C224 C228 1.531 . S
C225 C224 1.369 . S
C225 C226 1.410 . S
C225 C233 1.503 . S
C226 C225 1.410 . S
C226 C227 1.392 . S
C226 C229 1.511 . S
C227 C223 1.376 . S
C227 C226 1.392 . S
C227 H239 0.929 . S
C228 C224 1.531 . S
C228 H240 0.960 . S
C228 H241 0.962 . S
C228 H242 0.960 . S
C229 C226 1.511 . S
C229 H243 0.961 . S
C229 H244 0.961 . S
C229 H245 0.961 . S
C230 C231 1.370 . S
C230 C232 1.363 . S
C230 H246 0.931 . S
C231 C230 1.370 . S
C231 C235 1.408 . S
C232 C230 1.363 . S
C232 C233 1.370 . S
C232 C236 1.524 . S
C233 C225 1.503 . S
C233 C232 1.370 . S
C233 C234 1.403 . S
C234 C233 1.403 . S
C234 C235 1.404 . S
C234 C237 1.539 . S
C235 C231 1.408 . S
C235 C234 1.404 . S
C235 H247 0.930 . S
C236 C232 1.524 . S
C236 H248 0.956 . S
C236 H249 0.961 . S
C236 H250 0.961 . S
C237 C234 1.539 . S
C237 H251 0.958 . S
C237 H252 0.961 . S
C237 H253 0.960 . S
H238 C222 0.931 . S
H239 C227 0.929 . S
H240 C228 0.960 . S
H241 C228 0.962 . S
H242 C228 0.960 . S
H243 C229 0.961 . S
H244 C229 0.961 . S
H245 C229 0.961 . S
H246 C230 0.931 . S
H247 C235 0.930 . S
H248 C236 0.956 . S
H249 C236 0.961 . S
H250 C236 0.961 . S
H251 C237 0.958 . S
H252 C237 0.961 . S
H253 C237 0.960 . S
C254 C255 1.391 . S
C254 C256 1.394 . S
C254 H270 0.931 . S
C255 C254 1.391 . S
C255 C259 1.376 . S
C256 C254 1.394 . S
C256 C257 1.369 . S
C256 C260 1.531 . S
C257 C256 1.369 . S
C257 C258 1.410 . S
C257 C265 1.503 . S
C258 C257 1.410 . S
C258 C259 1.392 . S
C258 C261 1.511 . S
C259 C255 1.376 . S
C259 C258 1.392 . S
C259 H271 0.929 . S
C260 C256 1.531 . S
C260 H272 0.960 . S
C260 H273 0.962 . S
C260 H274 0.960 . S
C261 C258 1.511 . S
C261 H275 0.961 . S
C261 H276 0.961 . S
C261 H277 0.961 . S
C262 C263 1.370 . S
C262 C264 1.363 . S
C262 H278 0.931 . S
C263 C262 1.370 . S
C263 C267 1.408 . S
C264 C262 1.363 . S
C264 C265 1.370 . S
C264 C268 1.524 . S
C265 C257 1.503 . S
C265 C264 1.370 . S
C265 C266 1.403 . S
C266 C265 1.403 . S
C266 C267 1.404 . S
C266 C269 1.539 . S
C267 C263 1.408 . S
C267 C266 1.404 . S
C267 H279 0.930 . S
C268 C264 1.524 . S
C268 H280 0.956 . S
C268 H281 0.961 . S
C268 H282 0.961 . S
C269 C266 1.539 . S
C269 H283 0.958 . S
C269 H284 0.961 . S
C269 H285 0.960 . S
H270 C254 0.931 . S
H271 C259 0.929 . S
H272 C260 0.960 . S
H273 C260 0.962 . S
H274 C260 0.960 . S
H275 C261 0.961 . S
H276 C261 0.961 . S
H277 C261 0.961 . S
H278 C262 0.931 . S
H279 C267 0.930 . S
H280 C268 0.956 . S
H281 C268 0.961 . S
H282 C268 0.961 . S
H283 C269 0.958 . S
H284 C269 0.961 . S
H285 C269 0.960 . S
C286 C287 1.391 . S
C286 C288 1.394 . S
C286 H302 0.931 . S
C287 C286 1.391 . S
C287 C291 1.376 . S
C288 C286 1.394 . S
C288 C289 1.369 . S
C288 C292 1.531 . S
C289 C288 1.369 . S
C289 C290 1.410 . S
C289 C297 1.503 . S
C290 C289 1.410 . S
C290 C291 1.392 . S
C290 C293 1.511 . S
C291 C287 1.376 . S
C291 C290 1.392 . S
C291 H303 0.929 . S
C292 C288 1.531 . S
C292 H304 0.960 . S
C292 H305 0.962 . S
C292 H306 0.960 . S
C293 C290 1.511 . S
C293 H307 0.961 . S
C293 H308 0.961 . S
C293 H309 0.961 . S
C294 C295 1.370 . S
C294 C296 1.363 . S
C294 H310 0.931 . S
C295 C294 1.370 . S
C295 C299 1.408 . S
C296 C294 1.363 . S
C296 C297 1.370 . S
C296 C300 1.524 . S
C297 C289 1.503 . S
C297 C296 1.370 . S
C297 C298 1.403 . S
C298 C297 1.403 . S
C298 C299 1.404 . S
C298 C301 1.539 . S
C299 C295 1.408 . S
C299 C298 1.404 . S
C299 H311 0.930 . S
C300 C296 1.524 . S
C300 H312 0.956 . S
C300 H313 0.961 . S
C300 H314 0.961 . S
C301 C298 1.539 . S
C301 H315 0.958 . S
C301 H316 0.961 . S
C301 H317 0.960 . S
H302 C286 0.931 . S
H303 C291 0.929 . S
H304 C292 0.960 . S
H305 C292 0.962 . S
H306 C292 0.960 . S
H307 C293 0.961 . S
H308 C293 0.961 . S
H309 C293 0.961 . S
H310 C294 0.931 . S
H311 C299 0.930 . S
H312 C300 0.956 . S
H313 C300 0.961 . S
H314 C300 0.961 . S
H315 C301 0.958 . S
H316 C301 0.961 . S
H317 C301 0.960 . S
C318 C319 1.391 . S
C318 C320 1.394 . S
C318 H334 0.931 . S
C319 C318 1.391 . S
C319 C323 1.376 . S
C320 C318 1.394 . S
C320 C321 1.369 . S
C320 C324 1.531 . S
C321 C320 1.369 . S
C321 C322 1.410 . S
C321 C329 1.503 . S
C322 C321 1.410 . S
C322 C323 1.392 . S
C322 C325 1.511 . S
C323 C319 1.376 . S
C323 C322 1.392 . S
C323 H335 0.929 . S
C324 C320 1.531 . S
C324 H336 0.960 . S
C324 H337 0.962 . S
C324 H338 0.960 . S
C325 C322 1.511 . S
C325 H339 0.961 . S
C325 H340 0.961 . S
C325 H341 0.961 . S
C326 C327 1.370 . S
C326 C328 1.363 . S
C326 H342 0.931 . S
C327 C326 1.370 . S
C327 C331 1.408 . S
C328 C326 1.363 . S
C328 C329 1.370 . S
C328 C332 1.524 . S
C329 C321 1.503 . S
C329 C328 1.370 . S
C329 C330 1.403 . S
C330 C329 1.403 . S
C330 C331 1.404 . S
C330 C333 1.539 . S
C331 C327 1.408 . S
C331 C330 1.404 . S
C331 H343 0.930 . S
C332 C328 1.524 . S
C332 H344 0.956 . S
C332 H345 0.961 . S
C332 H346 0.961 . S
C333 C330 1.539 . S
C333 H347 0.958 . S
C333 H348 0.961 . S
C333 H349 0.960 . S
H334 C318 0.931 . S
H335 C323 0.929 . S
H336 C324 0.960 . S
H337 C324 0.962 . S
H338 C324 0.960 . S
H339 C325 0.961 . S
H340 C325 0.961 . S
H341 C325 0.961 . S
H342 C326 0.931 . S
H343 C331 0.930 . S
H344 C332 0.956 . S
H345 C332 0.961 . S
H346 C332 0.961 . S
H347 C333 0.958 . S
H348 C333 0.961 . S
H349 C333 0.960 . S
C350 C351 1.391 . S
C350 C352 1.394 . S
C350 H366 0.931 . S
C351 C350 1.391 . S
C351 C355 1.376 . S
C352 C350 1.394 . S
C352 C353 1.369 . S
C352 C356 1.531 . S
C353 C352 1.369 . S
C353 C354 1.410 . S
C353 C361 1.503 . S
C354 C353 1.410 . S
C354 C355 1.392 . S
C354 C357 1.511 . S
C355 C351 1.376 . S
C355 C354 1.392 . S
C355 H367 0.929 . S
C356 C352 1.531 . S
C356 H368 0.960 . S
C356 H369 0.962 . S
C356 H370 0.960 . S
C357 C354 1.511 . S
C357 H371 0.961 . S
C357 H372 0.961 . S
C357 H373 0.961 . S
C358 C359 1.370 . S
C358 C360 1.363 . S
C358 H374 0.931 . S
C359 C358 1.370 . S
C359 C363 1.408 . S
C360 C358 1.363 . S
C360 C361 1.370 . S
C360 C364 1.524 . S
C361 C353 1.503 . S
C361 C360 1.370 . S
C361 C362 1.403 . S
C362 C361 1.403 . S
C362 C363 1.404 . S
C362 C365 1.539 . S
C363 C359 1.408 . S
C363 C362 1.404 . S
C363 H375 0.930 . S
C364 C360 1.524 . S
C364 H376 0.956 . S
C364 H377 0.961 . S
C364 H378 0.961 . S
C365 C362 1.539 . S
C365 H379 0.958 . S
C365 H380 0.961 . S
C365 H381 0.960 . S
H366 C350 0.931 . S
H367 C355 0.929 . S
H368 C356 0.960 . S
H369 C356 0.962 . S
H370 C356 0.960 . S
H371 C357 0.961 . S
H372 C357 0.961 . S
H373 C357 0.961 . S
H374 C358 0.931 . S
H375 C363 0.930 . S
H376 C364 0.956 . S
H377 C364 0.961 . S
H378 C364 0.961 . S
H379 C365 0.958 . S
H380 C365 0.961 . S
H381 C365 0.960 . S
C382 C383 1.391 . S
C382 C384 1.394 . S
C382 H398 0.931 . S
C383 C382 1.391 . S
C383 C387 1.376 . S
C384 C382 1.394 . S
C384 C385 1.369 . S
C384 C388 1.531 . S
C385 C384 1.369 . S
C385 C386 1.410 . S
C385 C393 1.503 . S
C386 C385 1.410 . S
C386 C387 1.392 . S
C386 C389 1.511 . S
C387 C383 1.376 . S
C387 C386 1.392 . S
C387 H399 0.929 . S
C388 C384 1.531 . S
C388 H400 0.960 . S
C388 H401 0.962 . S
C388 H402 0.960 . S
C389 C386 1.511 . S
C389 H403 0.961 . S
C389 H404 0.961 . S
C389 H405 0.961 . S
C390 C391 1.370 . S
C390 C392 1.363 . S
C390 H406 0.931 . S
C391 C390 1.370 . S
C391 C395 1.408 . S
C392 C390 1.363 . S
C392 C393 1.370 . S
C392 C396 1.524 . S
C393 C385 1.503 . S
C393 C392 1.370 . S
C393 C394 1.403 . S
C394 C393 1.403 . S
C394 C395 1.404 . S
C394 C397 1.539 . S
C395 C391 1.408 . S
C395 C394 1.404 . S
C395 H407 0.930 . S
C396 C392 1.524 . S
C396 H408 0.956 . S
C396 H409 0.961 . S
C396 H410 0.961 . S
C397 C394 1.539 . S
C397 H411 0.958 . S
C397 H412 0.961 . S
C397 H413 0.960 . S
H398 C382 0.931 . S
H399 C387 0.929 . S
H400 C388 0.960 . S
H401 C388 0.962 . S
H402 C388 0.960 . S
H403 C389 0.961 . S
H404 C389 0.961 . S
H405 C389 0.961 . S
H406 C390 0.931 . S
H407 C395 0.930 . S
H408 C396 0.956 . S
H409 C396 0.961 . S
H410 C396 0.961 . S
H411 C397 0.958 . S
H412 C397 0.961 . S
H413 C397 0.960 . S
C414 C415 1.391 . S
C414 C416 1.394 . S
C414 H430 0.931 . S
C415 C414 1.391 . S
C415 C419 1.376 . S
C416 C414 1.394 . S
C416 C417 1.369 . S
C416 C420 1.531 . S
C417 C416 1.369 . S
C417 C418 1.410 . S
C417 C425 1.503 . S
C418 C417 1.410 . S
C418 C419 1.392 . S
C418 C421 1.511 . S
C419 C415 1.376 . S
C419 C418 1.392 . S
C419 H431 0.929 . S
C420 C416 1.531 . S
C420 H432 0.960 . S
C420 H433 0.962 . S
C420 H434 0.960 . S
C421 C418 1.511 . S
C421 H435 0.961 . S
C421 H436 0.961 . S
C421 H437 0.961 1_455 S
C422 C423 1.370 . S
C422 C424 1.363 . S
C422 H438 0.931 . S
C423 C422 1.370 . S
C423 C427 1.408 . S
C424 C422 1.363 . S
C424 C425 1.370 . S
C424 C428 1.524 . S
C425 C417 1.503 . S
C425 C424 1.370 . S
C425 C426 1.403 . S
C426 C425 1.403 . S
C426 C427 1.404 . S
C426 C429 1.539 . S
C427 C423 1.408 . S
C427 C426 1.404 . S
C427 H439 0.930 . S
C428 C424 1.524 . S
C428 H440 0.956 . S
C428 H441 0.961 . S
C428 H442 0.961 . S
C429 C426 1.539 . S
C429 H443 0.958 . S
C429 H444 0.961 1_455 S
C429 H445 0.961 . S
H430 C414 0.931 . S
H431 C419 0.929 . S
H432 C420 0.960 . S
H433 C420 0.962 . S
H434 C420 0.960 . S
H435 C421 0.961 . S
H436 C421 0.961 . S
H437 C421 0.961 1_655 S
H438 C422 0.931 . S
H439 C427 0.930 . S
H440 C428 0.956 . S
H441 C428 0.961 . S
H442 C428 0.961 . S
H443 C429 0.958 . S
H444 C429 0.961 1_655 S
H445 C429 0.961 . S
C446 C447 1.391 . S
C446 C448 1.394 . S
C446 H462 0.931 . S
C447 C446 1.391 . S
C447 C451 1.376 . S
C448 C446 1.394 . S
C448 C449 1.369 . S
C448 C452 1.531 . S
C449 C448 1.369 . S
C449 C450 1.410 . S
C449 C457 1.503 . S
C450 C449 1.410 . S
C450 C451 1.392 . S
C450 C453 1.511 . S
C451 C447 1.376 . S
C451 C450 1.392 . S
C451 H463 0.929 . S
C452 C448 1.531 . S
C452 H464 0.960 . S
C452 H465 0.962 . S
C452 H466 0.960 . S
C453 C450 1.511 . S
C453 H467 0.961 . S
C453 H468 0.961 . S
C453 H469 0.961 . S
C454 C455 1.370 . S
C454 C456 1.363 . S
C454 H470 0.931 . S
C455 C454 1.370 . S
C455 C459 1.408 . S
C456 C454 1.363 . S
C456 C457 1.370 . S
C456 C460 1.524 . S
C457 C449 1.503 . S
C457 C456 1.370 . S
C457 C458 1.403 . S
C458 C457 1.403 . S
C458 C459 1.404 . S
C458 C461 1.539 . S
C459 C455 1.408 . S
C459 C458 1.404 . S
C459 H471 0.930 . S
C460 C456 1.524 . S
C460 H472 0.956 . S
C460 H473 0.961 . S
C460 H474 0.961 . S
C461 C458 1.539 . S
C461 H475 0.958 . S
C461 H476 0.961 . S
C461 H477 0.960 . S
H462 C446 0.931 . S
H463 C451 0.929 . S
H464 C452 0.960 . S
H465 C452 0.962 . S
H466 C452 0.960 . S
H467 C453 0.961 . S
H468 C453 0.961 . S
H469 C453 0.961 . S
H470 C454 0.931 . S
H471 C459 0.930 . S
H472 C460 0.956 . S
H473 C460 0.961 . S
H474 C460 0.961 . S
H475 C461 0.958 . S
H476 C461 0.961 . S
H477 C461 0.960 . S
C478 C479 1.391 . S
C478 C480 1.394 . S
C478 H494 0.931 . S
C479 C478 1.391 . S
C479 C483 1.376 . S
C480 C478 1.394 . S
C480 C481 1.369 . S
C480 C484 1.531 1_565 S
C481 C480 1.369 . S
C481 C482 1.410 . S
C481 C489 1.503 . S
C482 C481 1.410 . S
C482 C483 1.392 . S
C482 C485 1.511 . S
C483 C479 1.376 . S
C483 C482 1.392 . S
C483 H495 0.929 . S
C484 C480 1.531 1_545 S
C484 H496 0.960 . S
C484 H497 0.962 . S
C484 H498 0.960 . S
C485 C482 1.511 . S
C485 H499 0.961 . S
C485 H500 0.961 . S
C485 H501 0.961 . S
C486 C487 1.370 . S
C486 C488 1.363 . S
C486 H502 0.931 . S
C487 C486 1.370 . S
C487 C491 1.408 . S
C488 C486 1.363 . S
C488 C489 1.370 . S
C488 C492 1.524 . S
C489 C481 1.503 . S
C489 C488 1.370 . S
C489 C490 1.403 . S
C490 C489 1.403 . S
C490 C491 1.404 . S
C490 C493 1.539 . S
C491 C487 1.408 . S
C491 C490 1.404 . S
C491 H503 0.930 1_565 S
C492 C488 1.524 . S
C492 H504 0.956 . S
C492 H505 0.961 . S
C492 H506 0.961 . S
C493 C490 1.539 . S
C493 H507 0.958 1_565 S
C493 H508 0.968 . S
C493 H509 0.960 . S
H494 C478 0.931 . S
H495 C483 0.929 . S
H496 C484 0.960 . S
H497 C484 0.962 . S
H498 C484 0.960 . S
H499 C485 0.961 . S
H500 C485 0.961 . S
H501 C485 0.961 . S
H502 C486 0.931 . S
H503 C491 0.930 1_545 S
H504 C492 0.956 . S
H505 C492 0.961 . S
H506 C492 0.961 . S
H507 C493 0.958 1_545 S
H508 C493 0.968 . S
H509 C493 0.960 . S
C510 C511 1.391 . S
C510 C512 1.394 . S
C510 H526 0.931 . S
C511 C510 1.391 . S
C511 C515 1.376 . S
C512 C510 1.394 . S
C512 C513 1.369 . S
C512 C516 1.531 . S
C513 C512 1.369 . S
C513 C514 1.410 . S
C513 C521 1.503 . S
C514 C513 1.410 . S
C514 C515 1.392 . S
C514 C517 1.511 . S
C515 C511 1.376 . S
C515 C514 1.392 . S
C515 H527 0.929 . S
C516 C512 1.531 . S
C516 H528 0.960 . S
C516 H529 0.962 . S
C516 H530 0.960 . S
C517 C514 1.511 . S
C517 H531 0.961 . S
C517 H532 0.961 . S
C517 H533 0.961 . S
C518 C519 1.370 . S
C518 C520 1.363 . S
C518 H534 0.931 . S
C519 C518 1.370 . S
C519 C523 1.408 . S
C520 C518 1.363 . S
C520 C521 1.370 . S
C520 C524 1.524 . S
C521 C513 1.503 . S
C521 C520 1.370 . S
C521 C522 1.403 . S
C522 C521 1.403 . S
C522 C523 1.404 . S
C522 C525 1.539 1_545 S
C523 C519 1.408 . S
C523 C522 1.404 . S
C523 H535 0.930 1_545 S
C524 C520 1.524 . S
C524 H536 0.956 . S
C524 H537 0.961 . S
C524 H538 0.961 . S
C525 C522 1.539 1_565 S
C525 H539 0.958 . S
C525 H540 0.961 . S
C525 H541 0.960 . S
H526 C510 0.931 . S
H527 C515 0.929 . S
H528 C516 0.960 . S
H529 C516 0.962 . S
H530 C516 0.960 . S
H531 C517 0.961 . S
H532 C517 0.961 . S
H533 C517 0.961 . S
H534 C518 0.931 . S
H535 C523 0.930 1_565 S
H536 C524 0.956 . S
H537 C524 0.961 . S
H538 C524 0.961 . S
H539 C525 0.958 . S
H540 C525 0.961 . S
H541 C525 0.960 . S
C542 C543 1.391 . S
C542 C544 1.394 . S
C542 H558 0.931 . S
C543 C542 1.391 . S
C543 C547 1.376 1_655 S
C544 C542 1.394 . S
C544 C545 1.369 . S
C544 C548 1.531 . S
C545 C544 1.369 . S
C545 C546 1.410 . S
C545 C553 1.503 . S
C546 C545 1.410 . S
C546 C547 1.392 1_655 S
C546 C549 1.511 1_655 S
C547 C543 1.376 1_455 S
C547 C546 1.392 1_455 S
C547 H559 0.929 . S
C548 C544 1.531 . S
C548 H560 0.960 . S
C548 H561 0.962 . S
C548 H562 0.960 . S
C549 C546 1.511 1_455 S
C549 H563 0.961 . S
C549 H564 0.961 . S
C549 H565 0.961 . S
C550 C551 1.370 . S
C550 C552 1.363 . S
C550 H566 0.931 . S
C551 C550 1.370 . S
C551 C555 1.408 . S
C552 C550 1.363 . S
C552 C553 1.370 . S
C552 C556 1.524 . S
C553 C545 1.503 . S
C553 C552 1.370 . S
C553 C554 1.403 . S
C554 C553 1.403 . S
C554 C555 1.404 . S
C554 C557 1.539 . S
C555 C551 1.408 . S
C555 C554 1.404 . S
C555 H567 0.930 . S
C556 C552 1.524 . S
C556 H568 0.956 . S
C556 H569 0.961 . S
C556 H570 0.961 . S
C557 C554 1.539 . S
C557 H571 0.958 . S
C557 H572 0.961 1_655 S
C557 H573 0.960 1_655 S
H558 C542 0.931 . S
H559 C547 0.929 . S
H560 C548 0.960 . S
H561 C548 0.962 . S
H562 C548 0.960 . S
H563 C549 0.961 . S
H564 C549 0.961 . S
H565 C549 0.961 . S
H566 C550 0.931 . S
H567 C555 0.930 . S
H568 C556 0.956 . S
H569 C556 0.961 . S
H570 C556 0.961 . S
H571 C557 0.958 . S
H572 C557 0.961 1_455 S
H573 C557 0.960 1_455 S
C574 C575 1.391 . S
C574 C576 1.394 . S
C574 H590 0.931 . S
C575 C574 1.391 . S
C575 C579 1.376 . S
C576 C574 1.394 . S
C576 C577 1.369 . S
C576 C580 1.531 . S
C577 C576 1.369 . S
C577 C578 1.410 . S
C577 C585 1.503 . S
C578 C577 1.410 . S
C578 C579 1.392 . S
C578 C581 1.511 . S
C579 C575 1.376 . S
C579 C578 1.392 . S
C579 H591 0.929 . S
C580 C576 1.531 . S
C580 H592 0.960 . S
C580 H593 0.962 . S
C580 H594 0.960 . S
C581 C578 1.511 . S
C581 H595 0.961 . S
C581 H596 0.961 . S
C581 H597 0.961 . S
C582 C583 1.370 . S
C582 C584 1.363 . S
C582 H598 0.931 . S
C583 C582 1.370 . S
C583 C587 1.408 . S
C584 C582 1.363 . S
C584 C585 1.370 . S
C584 C588 1.524 . S
C585 C577 1.503 . S
C585 C584 1.370 . S
C585 C586 1.403 . S
C586 C585 1.403 . S
C586 C587 1.404 . S
C586 C589 1.539 . S
C587 C583 1.408 . S
C587 C586 1.404 . S
C587 H599 0.930 . S
C588 C584 1.524 . S
C588 H600 0.956 . S
C588 H601 0.961 . S
C588 H602 0.961 . S
C589 C586 1.539 . S
C589 H603 0.958 . S
C589 H604 0.961 . S
C589 H605 0.960 . S
H590 C574 0.931 . S
H591 C579 0.929 . S
H592 C580 0.960 . S
H593 C580 0.962 . S
H594 C580 0.960 . S
H595 C581 0.961 . S
H596 C581 0.961 . S
H597 C581 0.961 . S
H598 C582 0.931 . S
H599 C587 0.930 . S
H600 C588 0.956 . S
H601 C588 0.961 . S
H602 C588 0.961 . S
H603 C589 0.958 . S
H604 C589 0.961 . S
H605 C589 0.960 . S
C606 C607 1.391 . S
C606 C608 1.394 . S
C606 H622 0.931 . S
C607 C606 1.391 . S
C607 C611 1.376 . S
C608 C606 1.394 . S
C608 C609 1.369 . S
C608 C612 1.531 . S
C609 C608 1.369 . S
C609 C610 1.410 . S
C609 C617 1.499 1_455 S
C610 C609 1.410 . S
C610 C611 1.392 . S
C610 C613 1.511 . S
C611 C607 1.376 . S
C611 C610 1.392 . S
C611 H623 0.929 . S
C612 C608 1.531 . S
C612 H624 0.982 . S
C612 H625 0.962 . S
C612 H626 0.960 . S
C613 C610 1.511 . S
C613 H627 0.961 . S
C613 H628 0.961 . S
C613 H629 0.961 1_455 S
C614 C615 1.370 . S
C614 C616 1.363 1_655 S
C614 H630 0.931 1_655 S
C615 C614 1.370 . S
C615 C619 1.408 . S
C616 C614 1.363 1_455 S
C616 C617 1.367 1_455 S
C616 C620 1.524 . S
C617 C609 1.499 1_655 S
C617 C616 1.367 1_655 S
C617 C618 1.411 . S
C618 C617 1.411 . S
C618 C619 1.404 . S
C618 C621 1.539 . S
C619 C615 1.408 . S
C619 C618 1.404 . S
C619 H631 0.930 . S
C620 C616 1.524 . S
C620 H632 0.956 . S
C620 H633 0.961 . S
C620 H634 0.961 . S
C621 C618 1.539 . S
C621 H635 0.958 . S
C621 H636 0.961 . S
C621 H637 0.960 . S
H622 C606 0.931 . S
H623 C611 0.929 . S
H624 C612 0.982 . S
H625 C612 0.962 . S
H626 C612 0.960 . S
H627 C613 0.961 . S
H628 C613 0.961 . S
H629 C613 0.961 1_655 S
H630 C614 0.931 1_455 S
H631 C619 0.930 . S
H632 C620 0.956 . S
H633 C620 0.961 . S
H634 C620 0.961 . S
H635 C621 0.958 . S
H636 C621 0.961 . S
H637 C621 0.960 . S
C638 C639 1.391 . S
C638 C640 1.394 . S
C638 H654 0.931 . S
C639 C638 1.391 . S
C639 C643 1.376 . S
C640 C638 1.394 . S
C640 C641 1.369 . S
C640 C644 1.531 . S
C641 C640 1.369 . S
C641 C642 1.410 . S
C641 C649 1.503 . S
C642 C641 1.410 . S
C642 C643 1.392 . S
C642 C645 1.511 . S
C643 C639 1.376 . S
C643 C642 1.392 . S
C643 H655 0.929 . S
C644 C640 1.531 . S
C644 H656 0.960 . S
C644 H657 0.962 . S
C644 H658 0.960 . S
C645 C642 1.511 . S
C645 H659 0.961 . S
C645 H660 0.961 . S
C645 H661 0.961 . S
C646 C647 1.370 . S
C646 C648 1.363 . S
C646 H662 0.931 . S
C647 C646 1.370 . S
C647 C651 1.408 . S
C648 C646 1.363 . S
C648 C649 1.370 . S
C648 C652 1.524 . S
C649 C641 1.503 . S
C649 C648 1.370 . S
C649 C650 1.403 . S
C650 C649 1.403 . S
C650 C651 1.404 . S
C650 C653 1.539 . S
C651 C647 1.408 . S
C651 C650 1.404 . S
C651 H663 0.930 . S
C652 C648 1.524 . S
C652 H664 0.956 . S
C652 H665 0.961 . S
C652 H666 0.961 . S
C653 C650 1.539 . S
C653 H667 0.958 . S
C653 H668 0.961 . S
C653 H669 0.960 . S
H654 C638 0.931 . S
H655 C643 0.929 . S
H656 C644 0.960 . S
H657 C644 0.962 . S
H658 C644 0.960 . S
H659 C645 0.961 . S
H660 C645 0.961 . S
H661 C645 0.961 . S
H662 C646 0.931 . S
H663 C651 0.930 . S
H664 C652 0.956 . S
H665 C652 0.961 . S
H666 C652 0.961 . S
H667 C653 0.958 . S
H668 C653 0.961 . S
H669 C653 0.960 . S
C670 C671 1.391 . S
C670 C672 1.394 . S
C670 H686 0.931 . S
C671 C670 1.391 . S
C671 C675 1.376 . S
C672 C670 1.394 . S
C672 C673 1.369 . S
C672 C676 1.531 . S
C673 C672 1.369 . S
C673 C674 1.410 1_565 S
C673 C681 1.503 1_565 S
C674 C673 1.410 1_545 S
C674 C675 1.392 1_545 S
C674 C677 1.511 . S
C675 C671 1.376 . S
C675 C674 1.392 1_565 S
C675 H687 0.929 . S
C676 C672 1.531 . S
C676 H688 0.960 . S
C676 H689 0.962 . S
C676 H690 0.960 . S
C677 C674 1.511 . S
C677 H691 0.961 . S
C677 H692 0.961 . S
C677 H693 0.961 . S
C678 C679 1.370 . S
C678 C680 1.363 . S
C678 H694 0.931 . S
C679 C678 1.370 . S
C679 C683 1.408 . S
C680 C678 1.363 . S
C680 C681 1.370 . S
C680 C684 1.524 . S
C681 C673 1.503 1_545 S
C681 C680 1.370 . S
C681 C682 1.403 . S
C682 C681 1.403 . S
C682 C683 1.404 . S
C682 C685 1.539 . S
C683 C679 1.408 . S
C683 C682 1.404 . S
C683 H695 0.930 . S
C684 C680 1.524 . S
C684 H696 0.956 . S
C684 H697 0.961 . S
C684 H698 0.961 . S
C685 C682 1.539 . S
C685 H699 0.958 1_545 S
C685 H700 0.961 . S
C685 H701 0.960 . S
H686 C670 0.931 . S
H687 C675 0.929 . S
H688 C676 0.960 . S
H689 C676 0.962 . S
H690 C676 0.960 . S
H691 C677 0.961 . S
H692 C677 0.961 . S
H693 C677 0.961 . S
H694 C678 0.931 . S
H695 C683 0.930 . S
H696 C684 0.956 . S
H697 C684 0.961 . S
H698 C684 0.961 . S
H699 C685 0.958 1_565 S
H700 C685 0.961 . S
H701 C685 0.960 . S
C127 C36 1.052 1_556 S
C135 C7 1.089 . S
C159 C22 1.043 . S
C167 C8 1.048 . S
C191 C21 0.960 . S
C199 C35 0.963 . S
C223 C77 1.028 . S
C231 C50 1.022 . S
C255 C64 0.965 . S
C263 C49 1.008 . S
C287 C63 1.037 . S
C295 C78 1.013 . S
C319 C91 0.989 . S
C327 C120 0.974 . S
C351 C92 1.081 . S
C359 C106 1.012 . S
C383 C105 0.944 . S
C391 C119 0.949 . S
C415 C11 1.355 . S
C423 C109 1.351 . S
C447 C27 1.243 . S
C455 C125 1.274 . S
C479 C97 1.303 . S
C487 C39 1.339 . S
C511 C69 1.277 . S
C519 C41 1.257 . S
C543 C13 1.285 . S
C551 C83 1.336 . S
C575 C55 1.316 . S
C583 C25 1.344 . S
C607 C111 1.305 . S
C615 C81 1.341 . S
C639 C53 1.277 . S
C647 C123 1.289 . S
C671 C95 1.371 . S
C679 C67 1.369 . S
