# Generated by pormake.
# Topology uni, (4)-cn, num edge types: 1
# Building blocks:
#     Node 0, Type 0, BuildingBlock: QUQFOY_clean_sbu_1, # of connection points: 4
#     Node 1, Type 0, BuildingBlock: QUQFOY_clean_sbu_1, # of connection points: 4
#     Node 2, Type 0, BuildingBlock: QUQFOY_clean_sbu_1, # of connection points: 4
#     Node 3, Type 0, BuildingBlock: QUQFOY_clean_sbu_1, # of connection points: 4
#     Node 4, Type 0, BuildingBlock: QUQFOY_clean_sbu_1, # of connection points: 4
#     Node 5, Type 0, BuildingBlock: QUQFOY_clean_sbu_1, # of connection points: 4
#     Edge 6, Type (0, 0), BuildingBlock: CIFDUS_clean_linker_0, # of connection points: 2
#     Edge 7, Type (0, 0), BuildingBlock: CIFDUS_clean_linker_0, # of connection points: 2
#     Edge 8, Type (0, 0), BuildingBlock: CIFDUS_clean_linker_0, # of connection points: 2
#     Edge 9, Type (0, 0), BuildingBlock: CIFDUS_clean_linker_0, # of connection points: 2
#     Edge 10, Type (0, 0), BuildingBlock: CIFDUS_clean_linker_0, # of connection points: 2
#     Edge 11, Type (0, 0), BuildingBlock: CIFDUS_clean_linker_0, # of connection points: 2
#     Edge 12, Type (0, 0), BuildingBlock: CIFDUS_clean_linker_0, # of connection points: 2
#     Edge 13, Type (0, 0), BuildingBlock: CIFDUS_clean_linker_0, # of connection points: 2
#     Edge 14, Type (0, 0), BuildingBlock: CIFDUS_clean_linker_0, # of connection points: 2
#     Edge 15, Type (0, 0), BuildingBlock: CIFDUS_clean_linker_0, # of connection points: 2
#     Edge 16, Type (0, 0), BuildingBlock: CIFDUS_clean_linker_0, # of connection points: 2
#     Edge 17, Type (0, 0), BuildingBlock: CIFDUS_clean_linker_0, # of connection points: 2
# Relax obj value: 0.076
# Max RMSD: 0.156
# Mean RMSD: 0.156
data_MOF--net-uni--node1-QUQFOY_clean_sbu_1--edge1-CIFDUS_clean_linker_0
_symmetry_space_group_name_H-M    P1
_symmetry_Int_Tables_number       1
_symmetry_cell_setting            triclinic
loop_
_symmetry_equiv_pos_as_xyz
'x, y, z'
_cell_length_a     37.200004
_cell_length_b     37.37263
_cell_length_c     20.642822
_cell_angle_alpha  91.195825
_cell_angle_beta   89.273295
_cell_angle_gamma 119.58365
loop_
_atom_site_label
_atom_site_type_symbol
_atom_site_fract_x
_atom_site_fract_y
_atom_site_fract_z
_atom_type_partial_charge
O0 O 0.6171 0.03411 0.95471 0.0
Cd1 Cd 0.6597 0.05219 0.02817 0.0
Cd2 Cd 0.61102 0.96537 0.04717 0.0
O3 O 0.58571 0.96646 0.95968 0.0
O4 O 0.69334 0.11123 0.00665 0.0
O5 O 0.71993 0.07005 0.00838 0.0
C6 C 0.72473 0.10606 -0.00223 0.0
C7 C 0.61279 0.90494 0.06964 0.0
C8 C 0.5907 0.99886 0.93289 0.0
C9 C 0.60879 0.02553 0.14783 0.0
O10 O 0.59424 0.98909 0.12535 0.0
O11 O 0.63817 0.05565 0.11904 0.0
O12 O 0.57875 0.90576 0.06602 0.0
O13 O 0.64673 0.93879 0.05953 0.0
O14 O 0.60343 0.60641 0.12308 0.0
Cd15 Cd 0.62712 0.64798 0.19914 0.0
Cd16 Cd 0.66557 0.59818 0.21673 0.0
O17 O 0.63935 0.57402 0.12787 0.0
O18 O 0.60071 0.68164 0.18087 0.0
O19 O 0.66832 0.70831 0.18318 0.0
C20 C 0.63677 0.71321 0.17424 0.0
C21 C 0.72758 0.59899 0.24036 0.0
C22 C 0.61232 0.57984 0.10057 0.0
C23 C 0.60315 0.59607 0.31646 0.0
O24 O 0.62511 0.58134 0.29379 0.0
O25 O 0.60229 0.62562 0.2887 0.0
O26 O 0.69297 0.56535 0.23468 0.0
O27 O 0.72755 0.63304 0.23133 0.0
O28 O 1.01684 0.58738 0.28245 0.0
Cd29 Cd 1.00084 0.61128 0.36085 0.0
Cd30 Cd 0.08917 0.65702 0.36774 0.0
O31 O 0.0843 0.62889 0.27858 0.0
O32 O 0.94014 0.58503 0.34874 0.0
O33 O 0.9809 0.65234 0.3481 0.0
C34 C 0.94425 0.62101 0.34208 0.0
C35 C 0.14902 0.72042 0.38746 0.0
C36 C 0.05158 0.59892 0.25529 0.0
C37 C 0.03937 0.59599 0.47397 0.0
O38 O 0.07374 0.62005 0.44739 0.0
O39 O 1.00564 0.58984 0.44938 0.0
O40 O 0.15008 0.68687 0.37817 0.0
O41 O 0.11364 0.71871 0.383 0.0
O42 O 0.43824 0.99466 0.46477 0.0
Cd43 Cd 0.40179 0.98573 0.54478 0.0
Cd44 Cd 0.45178 0.07342 0.54267 0.0
O45 O 0.47203 0.06213 0.4551 0.0
O46 O 0.36652 0.92525 0.5361 0.0
O47 O 0.34105 0.9673 0.53073 0.0
C48 C 0.33538 0.93039 0.52578 0.0
C49 C 0.44874 0.13419 0.55732 0.0
C50 C 0.46363 0.02658 0.43454 0.0
C51 C 0.45999 0.02576 0.65449 0.0
O52 O 0.47272 0.05911 0.62419 0.0
O53 O 0.42974 0.99245 0.63329 0.0
O54 O 0.48312 0.13436 0.54881 0.0
O55 O 0.41508 0.09913 0.55452 0.0
O56 O 0.46422 0.42667 0.62699 0.0
Cd57 Cd 0.43745 0.3914 0.70676 0.0
Cd58 Cd 0.39913 0.44186 0.70445 0.0
O59 O 0.43111 0.46166 0.61827 0.0
O60 O 0.46269 0.35557 0.69863 0.0
O61 O 0.39536 0.33091 0.69277 0.0
C62 C 0.4265 0.32471 0.68829 0.0
C63 C 0.33494 0.43896 0.71498 0.0
C64 C 0.45782 0.45242 0.59748 0.0
C65 C 0.45508 0.45024 0.8175 0.0
O66 O 0.43372 0.46259 0.78756 0.0
O67 O 0.4589 0.42028 0.79545 0.0
O68 O 0.36888 0.4732 0.70912 0.0
O69 O 0.33694 0.40545 0.71249 0.0
O70 O 0.04625 0.44975 0.77639 0.0
Cd71 Cd 0.06251 0.42606 0.85206 0.0
Cd72 Cd 0.97382 0.38025 0.8604 0.0
O73 O 0.97862 0.40923 0.77411 0.0
O74 O 0.12304 0.45234 0.8372 0.0
O75 O 0.0824 0.38496 0.8353 0.0
C76 C 0.11884 0.41631 0.82812 0.0
C77 C 0.91363 0.31664 0.87486 0.0
C78 C 1.01139 0.43873 0.75085 0.0
C79 C 0.02432 0.44092 -0.03074 0.0
O80 O 0.98977 0.4164 0.94326 0.0
O81 O 0.05799 0.44775 0.94247 0.0
O82 O 0.91284 0.35049 0.87075 0.0
O83 O 0.94899 0.31831 0.86907 0.0
H84 H 0.53732 0.9704 0.20448 0.0
H85 H 0.63352 0.09755 0.21702 0.0
H86 H 0.5961 0.10992 0.30513 0.0
H87 H 0.5356 0.08423 0.3785 0.0
H88 H 0.43996 0.95686 0.36302 0.0
H89 H 0.47747 0.94527 0.27534 0.0
C90 C 0.55042 1.00082 0.22667 0.0
C91 C 0.58831 0.03292 0.20438 0.0
C92 C 0.52856 1.00782 0.27629 0.0
C93 C 0.60447 0.07221 0.23344 0.0
C94 C 0.583 0.07936 0.2836 0.0
C95 C 0.52282 0.05411 0.35538 0.0
C96 C 0.48504 0.02149 0.37731 0.0
C97 C 0.54484 0.04741 0.30517 0.0
C98 C 0.46903 0.9825 0.34728 0.0
C99 C 0.4905 0.97575 0.29722 0.0
H100 H 0.58672 0.52426 0.37034 0.0
H101 H 0.55626 0.62161 0.38616 0.0
H102 H 0.50675 0.58474 0.47264 0.0
H103 H 0.47214 0.5245 0.54374 0.0
H104 H 0.50334 0.42769 0.52539 0.0
H105 H 0.55209 0.46456 0.43909 0.0
C106 C 0.56956 0.53771 0.39292 0.0
C107 C 0.57541 0.57578 0.37202 0.0
C108 C 0.54086 0.51618 0.44165 0.0
C109 C 0.55249 0.59241 0.40151 0.0
C110 C 0.52404 0.57126 0.45075 0.0
C111 C 0.48928 0.51131 0.52029 0.0
C112 C 0.48408 0.4734 0.541 0.0
C113 C 0.5178 0.53297 0.47096 0.0
C114 C 0.50681 0.45687 0.51057 0.0
C115 C 0.53482 0.47797 0.4613 0.0
H116 H 0.07328 0.51012 0.70491 0.0
H117 H 0.94414 0.42205 0.67605 0.0
H118 H 0.94061 0.46435 0.59011 0.0
H119 H 0.97478 0.52609 0.5223 0.0
H120 H 0.10403 0.61331 0.55288 0.0
H121 H 0.10664 0.57171 0.63992 0.0
C122 C 0.04432 0.49991 0.67972 0.0
C123 C 1.0091 0.46279 0.69664 0.0
C124 C 0.04241 0.52445 0.63112 0.0
C125 C 0.97179 0.4504 0.66378 0.0
C126 C 0.9697 0.47464 0.61483 0.0
C127 C 1.00335 0.53621 0.54859 0.0
C128 C 0.03915 0.57274 0.53108 0.0
C129 C 1.00485 0.51179 0.59817 0.0
C130 C 0.07605 0.58527 0.56521 0.0
C131 C 0.07764 0.56145 0.61488 0.0
H132 H 0.58327 0.06114 0.88311 0.0
H133 H 0.53603 0.93023 0.86324 0.0
H134 H 0.48898 0.9263 0.77795 0.0
H135 H 0.46236 0.96069 0.70766 0.0
H136 H 0.51069 0.09173 0.72947 0.0
H137 H 0.55577 0.09472 0.81633 0.0
C138 C 0.56291 0.03169 0.85999 0.0
C139 C 0.56346 0.9961 0.87916 0.0
C140 C 0.53579 0.0296 0.81183 0.0
C141 C 0.5364 0.95816 0.84913 0.0
C142 C 0.50939 0.95587 0.80056 0.0
C143 C 0.48235 0.98975 0.7321 0.0
C144 C 0.48321 0.02593 0.71208 0.0
C145 C 0.50881 0.99143 0.78155 0.0
C146 C 0.50955 0.06345 0.74376 0.0
C147 C 0.53546 0.06526 0.7933 0.0
H148 H 0.54296 0.57363 0.04919 0.0
H149 H 0.62657 0.52509 0.02949 0.0
H150 H 0.58369 0.47847 0.94262 0.0
H151 H 0.52272 0.45227 0.87133 0.0
H152 H 0.4399 0.5017 0.89294 0.0
H153 H 0.48199 0.54673 -0.01907 0.0
C154 C 0.5521 0.5531 0.02573 0.0
C155 C 0.58813 0.55313 0.0455 0.0
C156 C 0.52716 0.52616 -0.02333 0.0
C157 C 0.59909 0.52586 0.01498 0.0
C158 C 0.5745 0.49908 -0.0345 0.0
C159 C 0.51362 0.4725 0.89593 0.0
C160 C 0.47823 0.47363 0.87557 0.0
C161 C 0.53838 0.49891 0.94605 0.0
C162 C 0.46706 0.50031 0.90749 0.0
C163 C 0.49118 0.5262 0.95768 0.0
H164 H 0.08828 0.51229 0.01738 0.0
H165 H 0.96066 0.42202 0.05283 0.0
H166 H 0.95792 0.46355 0.14319 0.0
H167 H 0.99058 0.52598 0.20964 0.0
H168 H 0.11807 0.61709 0.17591 0.0
H169 H 0.12185 0.57483 0.08674 0.0
C170 C 0.06007 0.50148 0.04546 0.0
C171 C 0.02473 0.46411 0.02836 0.0
C172 C 0.05846 0.52587 0.09694 0.0
C173 C 0.98827 0.45071 0.06482 0.0
C174 C 0.9866 0.47449 0.11638 0.0
C175 C 0.01921 0.53686 0.18267 0.0
C176 C 0.05389 0.57483 0.19916 0.0
C177 C 0.02128 0.51233 0.13222 0.0
C178 C 0.09083 0.58808 0.16402 0.0
C179 C 0.09306 0.56386 0.11321 0.0
H180 H 0.57482 0.72777 0.14569 0.0
H181 H 0.70772 0.78805 0.15973 0.0
H182 H 0.71259 0.85309 0.12702 0.0
H183 H 0.67829 0.89274 0.09512 0.0
H184 H 0.54503 0.82987 0.08189 0.0
H185 H 0.54129 0.76593 0.11328 0.0
C186 C 0.60498 0.75507 0.1418 0.0
C187 C 0.64084 0.75307 0.15539 0.0
C188 C 0.60748 0.79194 0.12285 0.0
C189 C 0.67959 0.78879 0.14969 0.0
C190 C 0.68237 0.82595 0.13091 0.0
C191 C 0.64852 0.86497 0.09885 0.0
C192 C 0.61201 0.86623 0.08624 0.0
C193 C 0.64644 0.82789 0.11736 0.0
C194 C 0.57365 0.82997 0.09144 0.0
C195 C 0.57139 0.79327 0.10946 0.0
H196 H 0.86671 0.55952 0.31991 0.0
H197 H 0.94028 0.69196 0.3258 0.0
H198 H 0.87979 0.69733 0.29406 0.0
H199 H 0.80558 0.66369 0.26375 0.0
H200 H 0.73423 0.53087 0.25764 0.0
H201 H 0.79442 0.52654 0.28999 0.0
C202 C 0.86967 0.58968 0.31457 0.0
C203 C 0.90796 0.62528 0.32541 0.0
C204 C 0.83511 0.59246 0.29588 0.0
C205 C 0.9111 0.66403 0.31791 0.0
C206 C 0.87655 0.6671 0.29962 0.0
C207 C 0.80333 0.63387 0.26933 0.0
C208 C 0.76535 0.59769 0.2582 0.0
C209 C 0.83835 0.63144 0.28821 0.0
C210 C 0.76294 0.55926 0.2658 0.0
C211 C 0.79738 0.55666 0.28444 0.0
H212 H 0.15741 0.7943 0.43065 0.0
H213 H 0.22661 0.7317 0.38789 0.0
H214 H 0.28922 0.79048 0.42866 0.0
H215 H 0.32429 0.85823 0.47876 0.0
H216 H 0.25836 0.92403 0.5198 0.0
H217 H 0.19442 0.86529 0.47787 0.0
C218 C 0.18631 0.79379 0.42972 0.0
C219 C 0.18717 0.75848 0.4065 0.0
C220 C 0.22265 0.82797 0.45363 0.0
C221 C 0.22487 0.75828 0.4057 0.0
C222 C 0.26079 0.79187 0.42921 0.0
C223 C 0.29592 0.85977 0.47911 0.0
C224 C 0.29592 0.89518 0.50321 0.0
C225 C 0.25991 0.82655 0.45398 0.0
C226 C 0.25904 0.89691 0.50197 0.0
C227 C 0.22257 0.86341 0.47782 0.0
H228 H 0.48683 0.31178 0.6415 0.0
H229 H 0.35624 0.24842 0.68397 0.0
H230 H 0.35069 0.18346 0.64412 0.0
H231 H 0.38405 0.14477 0.59883 0.0
H232 H 0.51467 0.21109 0.55468 0.0
H233 H 0.51887 0.2749 0.59281 0.0
C234 C 0.4571 0.28376 0.64257 0.0
C235 C 0.42211 0.28478 0.66652 0.0
C236 C 0.45411 0.2471 0.61865 0.0
C237 C 0.38372 0.24832 0.66623 0.0
C238 C 0.38055 0.21126 0.64328 0.0
C239 C 0.41327 0.17329 0.59694 0.0
C240 C 0.44902 0.17301 0.57417 0.0
C241 C 0.41563 0.21028 0.61937 0.0
C242 C 0.48669 0.21024 0.57216 0.0
C243 C 0.48922 0.24684 0.59417 0.0
H244 H 0.19155 0.47624 0.78315 0.0
H245 H 0.1265 0.34666 0.82497 0.0
H246 H 0.18708 0.34131 0.79032 0.0
H247 H 0.25975 0.37462 0.75111 0.0
H248 H 0.32252 0.50436 0.70888 0.0
H249 H 0.26138 0.50825 0.7401 0.0
C250 C 0.19053 0.44675 0.78496 0.0
C251 C 0.15476 0.41201 0.80732 0.0
C252 C 0.22505 0.4439 0.7645 0.0
C253 C 0.1538 0.37395 0.80828 0.0
C254 C 0.1884 0.37089 0.7884 0.0
C255 C 0.25981 0.40358 0.74812 0.0
C256 C 0.29581 0.43917 0.72797 0.0
C257 C 0.22435 0.40578 0.76668 0.0
C258 C 0.29541 0.47651 0.72449 0.0
C259 C 0.26045 0.47885 0.74249 0.0
H260 H 0.90452 0.2427 0.91359 0.0
H261 H 0.83579 0.30429 0.86833 0.0
H262 H 0.77191 0.24444 0.90139 0.0
H263 H 0.73576 0.17651 0.94757 0.0
H264 H 0.80188 0.11264 -0.00641 0.0
H265 H 0.86659 0.17147 0.9558 0.0
C266 C 0.87547 0.24273 0.91032 0.0
C267 C 0.87503 0.27807 0.8889 0.0
C268 C 0.83847 0.20805 0.9301 0.0
C269 C 0.83715 0.27769 0.88505 0.0
C270 C 0.80051 0.24348 0.90404 0.0
C271 C 0.76429 0.17532 0.94953 0.0
C272 C 0.76412 0.14048 -0.02593 0.0
C273 C 0.80092 0.20886 0.92758 0.0
C274 C 0.80127 0.13926 -0.02479 0.0
C275 C 0.83822 0.17287 0.95359 0.0
loop_
_geom_bond_atom_site_label_1
_geom_bond_atom_site_label_2
_geom_bond_distance
_geom_bond_site_symmetry_2
_ccdc_geom_bond_type
O0 Cd1 2.223 . S
O0 C8 1.315 1_554 S
Cd1 O0 2.223 . S
Cd1 O4 2.297 . S
Cd1 O5 2.439 . S
Cd1 O11 2.240 . S
Cd2 O3 2.240 1_564 S
Cd2 O10 2.223 . S
Cd2 O12 2.297 . S
Cd2 O13 2.439 . S
O3 Cd2 2.240 1_546 S
O3 C8 1.279 . S
O4 Cd1 2.297 . S
O4 C6 1.247 . S
O5 Cd1 2.439 . S
O5 C6 1.208 . S
C6 O4 1.247 . S
C6 O5 1.208 . S
C7 O12 1.247 . S
C7 O13 1.208 . S
C8 O0 1.315 1_556 S
C8 O3 1.279 . S
C9 O10 1.315 . S
C9 O11 1.279 1_565 S
O10 Cd2 2.223 . S
O10 C9 1.315 . S
O11 Cd1 2.240 . S
O11 C9 1.279 1_545 S
O12 Cd2 2.297 . S
O12 C7 1.247 . S
O13 Cd2 2.439 . S
O13 C7 1.208 . S
O14 Cd15 2.223 . S
O14 C22 1.315 . S
Cd15 O14 2.223 . S
Cd15 O18 2.297 . S
Cd15 O19 2.439 . S
Cd15 O25 2.240 . S
Cd16 O17 2.240 . S
Cd16 O24 2.223 . S
Cd16 O26 2.297 . S
Cd16 O27 2.439 . S
O17 Cd16 2.240 . S
O17 C22 1.279 . S
O18 Cd15 2.297 . S
O18 C20 1.247 . S
O19 Cd15 2.439 . S
O19 C20 1.208 . S
C20 O18 1.247 . S
C20 O19 1.208 . S
C21 O26 1.247 . S
C21 O27 1.208 . S
C22 O14 1.315 . S
C22 O17 1.279 . S
C23 O24 1.315 . S
C23 O25 1.279 . S
O24 Cd16 2.223 . S
O24 C23 1.315 . S
O25 Cd15 2.240 . S
O25 C23 1.279 . S
O26 Cd16 2.297 . S
O26 C21 1.247 . S
O27 Cd16 2.439 . S
O27 C21 1.208 . S
O28 Cd29 2.223 . S
O28 C36 1.315 . S
Cd29 O28 2.223 . S
Cd29 O32 2.297 . S
Cd29 O33 2.439 . S
Cd29 O39 2.240 1_655 S
Cd30 O31 2.240 . S
Cd30 O38 2.223 . S
Cd30 O40 2.297 . S
Cd30 O41 2.439 . S
O31 Cd30 2.240 . S
O31 C36 1.279 1_455 S
O32 Cd29 2.297 . S
O32 C34 1.247 . S
O33 Cd29 2.439 . S
O33 C34 1.208 . S
C34 O32 1.247 . S
C34 O33 1.208 . S
C35 O40 1.247 . S
C35 O41 1.208 . S
C36 O28 1.315 . S
C36 O31 1.279 1_655 S
C37 O38 1.315 . S
C37 O39 1.279 . S
O38 Cd30 2.223 . S
O38 C37 1.315 . S
O39 Cd29 2.240 1_455 S
O39 C37 1.279 . S
O40 Cd30 2.297 . S
O40 C35 1.247 . S
O41 Cd30 2.439 . S
O41 C35 1.208 . S
O42 Cd43 2.223 . S
O42 C50 1.315 . S
Cd43 O42 2.223 . S
Cd43 O46 2.297 . S
Cd43 O47 2.439 . S
Cd43 O53 2.240 1_565 S
Cd44 O45 2.240 . S
Cd44 O52 2.223 . S
Cd44 O54 2.297 . S
Cd44 O55 2.439 . S
O45 Cd44 2.240 . S
O45 C50 1.279 1_545 S
O46 Cd43 2.297 . S
O46 C48 1.247 . S
O47 Cd43 2.439 . S
O47 C48 1.208 . S
C48 O46 1.247 . S
C48 O47 1.208 . S
C49 O54 1.247 . S
C49 O55 1.208 . S
C50 O42 1.315 . S
C50 O45 1.279 1_565 S
C51 O52 1.315 . S
C51 O53 1.279 . S
O52 Cd44 2.223 . S
O52 C51 1.315 . S
O53 Cd43 2.240 1_545 S
O53 C51 1.279 . S
O54 Cd44 2.297 . S
O54 C49 1.247 . S
O55 Cd44 2.439 . S
O55 C49 1.208 . S
O56 Cd57 2.223 . S
O56 C64 1.315 . S
Cd57 O56 2.223 . S
Cd57 O60 2.297 . S
Cd57 O61 2.439 . S
Cd57 O67 2.240 . S
Cd58 O59 2.240 . S
Cd58 O66 2.223 . S
Cd58 O68 2.297 . S
Cd58 O69 2.439 . S
O59 Cd58 2.240 . S
O59 C64 1.279 . S
O60 Cd57 2.297 . S
O60 C62 1.247 . S
O61 Cd57 2.439 . S
O61 C62 1.208 . S
C62 O60 1.247 . S
C62 O61 1.208 . S
C63 O68 1.247 . S
C63 O69 1.208 . S
C64 O56 1.315 . S
C64 O59 1.279 . S
C65 O66 1.315 . S
C65 O67 1.279 . S
O66 Cd58 2.223 . S
O66 C65 1.315 . S
O67 Cd57 2.240 . S
O67 C65 1.279 . S
O68 Cd58 2.297 . S
O68 C63 1.247 . S
O69 Cd58 2.439 . S
O69 C63 1.208 . S
O70 Cd71 2.223 . S
O70 C78 1.315 . S
Cd71 O70 2.223 . S
Cd71 O74 2.297 . S
Cd71 O75 2.439 . S
Cd71 O81 2.240 . S
Cd72 O73 2.240 1_655 S
Cd72 O80 2.223 . S
Cd72 O82 2.297 . S
Cd72 O83 2.439 . S
O73 Cd72 2.240 1_455 S
O73 C78 1.279 . S
O74 Cd71 2.297 . S
O74 C76 1.247 . S
O75 Cd71 2.439 . S
O75 C76 1.208 . S
C76 O74 1.247 . S
C76 O75 1.208 . S
C77 O82 1.247 . S
C77 O83 1.208 . S
C78 O70 1.315 . S
C78 O73 1.279 . S
C79 O80 1.315 . S
C79 O81 1.279 1_655 S
O80 Cd72 2.223 . S
O80 C79 1.315 . S
O81 Cd71 2.240 . S
O81 C79 1.279 1_455 S
O82 Cd72 2.297 . S
O82 C77 1.247 . S
O83 Cd72 2.439 . S
O83 C77 1.208 . S
H84 C90 0.930 . S
H85 C93 0.930 . S
H86 C94 0.930 . S
H87 C95 0.930 . S
H88 C98 0.930 . S
H89 C99 0.930 . S
C90 H84 0.930 . S
C90 C91 1.355 . S
C90 C92 1.415 . S
C91 C90 1.355 . S
C91 C93 1.419 1_565 S
C92 C90 1.415 . S
C92 C97 1.425 1_565 S
C92 C99 1.409 . S
C93 H85 0.930 . S
C93 C91 1.419 1_545 S
C93 C94 1.362 . S
C94 H86 0.930 . S
C94 C93 1.362 . S
C94 C97 1.409 . S
C95 H87 0.930 . S
C95 C96 1.355 1_545 S
C95 C97 1.415 . S
C96 C95 1.355 1_565 S
C96 C98 1.419 . S
C97 C92 1.425 1_545 S
C97 C94 1.409 . S
C97 C95 1.415 . S
C98 H88 0.930 . S
C98 C96 1.419 . S
C98 C99 1.362 . S
C99 H89 0.930 . S
C99 C92 1.409 . S
C99 C98 1.362 . S
H100 C106 0.930 . S
H101 C109 0.930 . S
H102 C110 0.930 . S
H103 C111 0.930 . S
H104 C114 0.930 . S
H105 C115 0.930 . S
C106 H100 0.930 . S
C106 C107 1.355 . S
C106 C108 1.415 . S
C107 C106 1.355 . S
C107 C109 1.419 . S
C108 C106 1.415 . S
C108 C113 1.425 . S
C108 C115 1.409 . S
C109 H101 0.930 . S
C109 C107 1.419 . S
C109 C110 1.362 . S
C110 H102 0.930 . S
C110 C109 1.362 . S
C110 C113 1.409 . S
C111 H103 0.930 . S
C111 C112 1.355 . S
C111 C113 1.415 . S
C112 C111 1.355 . S
C112 C114 1.419 . S
C113 C108 1.425 . S
C113 C110 1.409 . S
C113 C111 1.415 . S
C114 H104 0.930 . S
C114 C112 1.419 . S
C114 C115 1.362 . S
C115 H105 0.930 . S
C115 C108 1.409 . S
C115 C114 1.362 . S
H116 C122 0.930 . S
H117 C125 0.930 . S
H118 C126 0.930 . S
H119 C127 0.920 1_655 S
H120 C130 0.930 . S
H121 C131 0.930 . S
C122 H116 0.930 . S
C122 C123 1.355 . S
C122 C124 1.415 . S
C123 C122 1.355 . S
C123 C125 1.419 1_455 S
C124 C122 1.415 . S
C124 C129 1.425 . S
C124 C131 1.409 . S
C125 H117 0.930 . S
C125 C123 1.419 1_655 S
C125 C126 1.362 . S
C126 H118 0.930 . S
C126 C125 1.362 . S
C126 C129 1.409 1_655 S
C127 H119 0.920 1_455 S
C127 C128 1.359 . S
C127 C129 1.419 . S
C128 C127 1.359 . S
C128 C130 1.419 . S
C129 C124 1.425 . S
C129 C126 1.409 1_455 S
C129 C127 1.419 . S
C130 H120 0.930 . S
C130 C128 1.419 . S
C130 C131 1.362 . S
C131 H121 0.930 . S
C131 C124 1.409 . S
C131 C130 1.362 . S
H132 C138 0.930 . S
H133 C141 0.930 . S
H134 C142 0.930 . S
H135 C143 0.930 . S
H136 C146 0.930 . S
H137 C147 0.930 . S
C138 H132 0.930 . S
C138 C139 1.355 . S
C138 C140 1.415 . S
C139 C138 1.355 . S
C139 C141 1.419 . S
C140 C138 1.415 . S
C140 C145 1.425 . S
C140 C147 1.409 . S
C141 H133 0.930 . S
C141 C139 1.419 . S
C141 C142 1.362 . S
C142 H134 0.930 . S
C142 C141 1.362 . S
C142 C145 1.409 . S
C143 H135 0.930 . S
C143 C144 1.355 . S
C143 C145 1.415 . S
C144 C143 1.355 . S
C144 C146 1.419 . S
C145 C140 1.425 . S
C145 C142 1.409 . S
C145 C143 1.415 . S
C146 H136 0.930 . S
C146 C144 1.419 . S
C146 C147 1.362 . S
C147 H137 0.930 . S
C147 C140 1.409 . S
C147 C146 1.362 . S
H148 C154 0.930 . S
H149 C157 0.930 . S
H150 C158 0.930 . S
H151 C159 0.930 . S
H152 C162 0.930 . S
H153 C163 0.930 . S
C154 H148 0.930 . S
C154 C155 1.355 . S
C154 C156 1.415 . S
C155 C154 1.355 . S
C155 C157 1.419 . S
C156 C154 1.415 . S
C156 C161 1.425 1_554 S
C156 C163 1.409 . S
C157 H149 0.930 . S
C157 C155 1.419 . S
C157 C158 1.362 1_554 S
C158 H150 0.930 . S
C158 C157 1.362 1_556 S
C158 C161 1.409 . S
C159 H151 0.930 . S
C159 C160 1.355 . S
C159 C161 1.415 . S
C160 C159 1.355 . S
C160 C162 1.419 . S
C161 C156 1.425 1_556 S
C161 C158 1.409 . S
C161 C159 1.415 . S
C162 H152 0.930 . S
C162 C160 1.419 . S
C162 C163 1.362 1_556 S
C163 H153 0.930 . S
C163 C156 1.409 . S
C163 C162 1.362 1_554 S
H164 C170 0.930 . S
H165 C173 0.930 . S
H166 C174 0.930 . S
H167 C175 0.930 . S
H168 C178 0.930 . S
H169 C179 0.930 . S
C170 H164 0.930 . S
C170 C171 1.355 1_455 S
C170 C172 1.415 . S
C171 C170 1.355 1_655 S
C171 C173 1.419 . S
C172 C170 1.415 . S
C172 C177 1.425 1_455 S
C172 C179 1.409 . S
C173 H165 0.930 . S
C173 C171 1.419 . S
C173 C174 1.362 . S
C174 H166 0.930 . S
C174 C173 1.362 . S
C174 C177 1.409 . S
C175 H167 0.930 . S
C175 C176 1.355 1_655 S
C175 C177 1.415 . S
C176 C175 1.355 1_455 S
C176 C178 1.419 . S
C177 C172 1.425 1_655 S
C177 C174 1.409 . S
C177 C175 1.415 . S
C178 H168 0.930 . S
C178 C176 1.419 . S
C178 C179 1.362 . S
C179 H169 0.930 . S
C179 C172 1.409 . S
C179 C178 1.362 . S
H180 C186 0.930 . S
H181 C189 0.930 . S
H182 C190 0.930 . S
H183 C191 0.930 . S
H184 C194 0.930 . S
H185 C195 0.930 . S
C186 H180 0.930 . S
C186 C187 1.355 . S
C186 C188 1.415 . S
C187 C186 1.355 . S
C187 C189 1.419 . S
C188 C186 1.415 . S
C188 C193 1.425 . S
C188 C195 1.409 . S
C189 H181 0.930 . S
C189 C187 1.419 . S
C189 C190 1.362 . S
C190 H182 0.930 . S
C190 C189 1.362 . S
C190 C193 1.409 . S
C191 H183 0.930 . S
C191 C192 1.355 . S
C191 C193 1.415 . S
C192 C191 1.355 . S
C192 C194 1.419 . S
C193 C188 1.425 . S
C193 C190 1.409 . S
C193 C191 1.415 . S
C194 H184 0.930 . S
C194 C192 1.419 . S
C194 C195 1.362 . S
C195 H185 0.930 . S
C195 C188 1.409 . S
C195 C194 1.362 . S
H196 C202 0.930 . S
H197 C205 0.930 . S
H198 C206 0.930 . S
H199 C207 0.930 . S
H200 C210 0.930 . S
H201 C211 0.930 . S
C202 H196 0.930 . S
C202 C203 1.355 . S
C202 C204 1.415 . S
C203 C202 1.355 . S
C203 C205 1.419 . S
C204 C202 1.415 . S
C204 C209 1.425 . S
C204 C211 1.409 . S
C205 H197 0.930 . S
C205 C203 1.419 . S
C205 C206 1.362 . S
C206 H198 0.930 . S
C206 C205 1.362 . S
C206 C209 1.409 . S
C207 H199 0.930 . S
C207 C208 1.355 . S
C207 C209 1.415 . S
C208 C207 1.355 . S
C208 C210 1.419 . S
C209 C204 1.425 . S
C209 C206 1.409 . S
C209 C207 1.415 . S
C210 H200 0.930 . S
C210 C208 1.419 . S
C210 C211 1.362 . S
C211 H201 0.930 . S
C211 C204 1.409 . S
C211 C210 1.362 . S
H212 C218 0.930 . S
H213 C221 0.930 . S
H214 C222 0.930 . S
H215 C223 0.930 . S
H216 C226 0.930 . S
H217 C227 0.930 . S
C218 H212 0.930 . S
C218 C219 1.355 . S
C218 C220 1.415 . S
C219 C218 1.355 . S
C219 C221 1.419 . S
C220 C218 1.415 . S
C220 C225 1.425 . S
C220 C227 1.409 . S
C221 H213 0.930 . S
C221 C219 1.419 . S
C221 C222 1.362 . S
C222 H214 0.930 . S
C222 C221 1.362 . S
C222 C225 1.409 . S
C223 H215 0.930 . S
C223 C224 1.355 . S
C223 C225 1.415 . S
C224 C223 1.355 . S
C224 C226 1.419 . S
C225 C220 1.425 . S
C225 C222 1.409 . S
C225 C223 1.415 . S
C226 H216 0.930 . S
C226 C224 1.419 . S
C226 C227 1.362 . S
C227 H217 0.930 . S
C227 C220 1.409 . S
C227 C226 1.362 . S
H228 C234 0.930 . S
H229 C237 0.930 . S
H230 C238 0.930 . S
H231 C239 0.930 . S
H232 C242 0.930 . S
H233 C243 0.930 . S
C234 H228 0.930 . S
C234 C235 1.355 . S
C234 C236 1.415 . S
C235 C234 1.355 . S
C235 C237 1.419 . S
C236 C234 1.415 . S
C236 C241 1.425 . S
C236 C243 1.409 . S
C237 H229 0.930 . S
C237 C235 1.419 . S
C237 C238 1.362 . S
C238 H230 0.930 . S
C238 C237 1.362 . S
C238 C241 1.409 . S
C239 H231 0.930 . S
C239 C240 1.355 . S
C239 C241 1.415 . S
C240 C239 1.355 . S
C240 C242 1.419 . S
C241 C236 1.425 . S
C241 C238 1.409 . S
C241 C239 1.415 . S
C242 H232 0.930 . S
C242 C240 1.419 . S
C242 C243 1.362 . S
C243 H233 0.930 . S
C243 C236 1.409 . S
C243 C242 1.362 . S
H244 C250 0.930 . S
H245 C253 0.930 . S
H246 C254 0.930 . S
H247 C255 0.930 . S
H248 C258 0.930 . S
H249 C259 0.930 . S
C250 H244 0.930 . S
C250 C251 1.355 . S
C250 C252 1.415 . S
C251 C250 1.355 . S
C251 C253 1.419 . S
C252 C250 1.415 . S
C252 C257 1.425 . S
C252 C259 1.409 . S
C253 H245 0.930 . S
C253 C251 1.419 . S
C253 C254 1.362 . S
C254 H246 0.930 . S
C254 C253 1.362 . S
C254 C257 1.409 . S
C255 H247 0.930 . S
C255 C256 1.355 . S
C255 C257 1.415 . S
C256 C255 1.355 . S
C256 C258 1.419 . S
C257 C252 1.425 . S
C257 C254 1.409 . S
C257 C255 1.415 . S
C258 H248 0.930 . S
C258 C256 1.419 . S
C258 C259 1.362 . S
C259 H249 0.930 . S
C259 C252 1.409 . S
C259 C258 1.362 . S
H260 C266 0.930 . S
H261 C269 0.930 . S
H262 C270 0.930 . S
H263 C271 0.930 . S
H264 C274 0.930 . S
H265 C275 0.930 . S
C266 H260 0.930 . S
C266 C267 1.355 . S
C266 C268 1.415 . S
C267 C266 1.355 . S
C267 C269 1.419 1_556 S
C268 C266 1.415 . S
C268 C273 1.425 1_556 S
C268 C275 1.409 . S
C269 H261 0.930 . S
C269 C267 1.419 1_554 S
C269 C270 1.362 . S
C270 H262 0.930 . S
C270 C269 1.362 . S
C270 C273 1.409 . S
C271 H263 0.930 . S
C271 C272 1.355 1_554 S
C271 C273 1.415 . S
C272 C271 1.355 1_556 S
C272 C274 1.419 . S
C273 C268 1.425 1_554 S
C273 C270 1.409 . S
C273 C271 1.415 . S
C274 H264 0.930 . S
C274 C272 1.419 . S
C274 C275 1.362 . S
C275 H265 0.930 . S
C275 C268 1.409 . S
C275 C274 1.362 . S
C91 C9 1.789 . S
C96 C50 1.785 . S
C107 C23 1.793 . S
C112 C64 1.780 . S
C123 C78 1.795 . S
C128 C37 1.777 . S
C139 C8 1.788 . S
C144 C51 1.775 . S
C155 C22 1.789 . S
C160 C65 1.775 . S
C171 C79 1.774 1_554 S
C176 C36 1.790 1_455 S
C187 C20 1.453 . S
C192 C7 1.399 . S
C203 C34 1.475 . S
C208 C21 1.453 . S
C219 C35 1.404 . S
C224 C48 1.420 . S
C235 C62 1.478 . S
C240 C49 1.426 . S
C251 C76 1.440 . S
C256 C63 1.397 . S
C267 C77 1.414 . S
C272 C6 1.473 1_556 S
