# Generated by pormake.
# Topology snk, (6)-cn, num edge types: 1
# Building blocks:
#     Node 0, Type 0, BuildingBlock: BETFAJ_clean_sbu_0, # of connection points: 6
#     Node 1, Type 0, BuildingBlock: BETFAJ_clean_sbu_0, # of connection points: 6
#     Node 2, Type 0, BuildingBlock: BETFAJ_clean_sbu_0, # of connection points: 6
#     Node 3, Type 0, BuildingBlock: BETFAJ_clean_sbu_0, # of connection points: 6
#     Node 4, Type 0, BuildingBlock: BETFAJ_clean_sbu_0, # of connection points: 6
#     Node 5, Type 0, BuildingBlock: BETFAJ_clean_sbu_0, # of connection points: 6
#     Node 6, Type 0, BuildingBlock: BETFAJ_clean_sbu_0, # of connection points: 6
#     Node 7, Type 0, BuildingBlock: BETFAJ_clean_sbu_0, # of connection points: 6
#     Edge 8, Type (0, 0), BuildingBlock: XUDNAN_clean_linker_2, # of connection points: 2
#     Edge 9, Type (0, 0), BuildingBlock: XUDNAN_clean_linker_2, # of connection points: 2
#     Edge 10, Type (0, 0), BuildingBlock: XUDNAN_clean_linker_2, # of connection points: 2
#     Edge 11, Type (0, 0), BuildingBlock: XUDNAN_clean_linker_2, # of connection points: 2
#     Edge 12, Type (0, 0), BuildingBlock: XUDNAN_clean_linker_2, # of connection points: 2
#     Edge 13, Type (0, 0), BuildingBlock: XUDNAN_clean_linker_2, # of connection points: 2
#     Edge 14, Type (0, 0), BuildingBlock: XUDNAN_clean_linker_2, # of connection points: 2
#     Edge 15, Type (0, 0), BuildingBlock: XUDNAN_clean_linker_2, # of connection points: 2
#     Edge 16, Type (0, 0), BuildingBlock: XUDNAN_clean_linker_2, # of connection points: 2
#     Edge 17, Type (0, 0), BuildingBlock: XUDNAN_clean_linker_2, # of connection points: 2
#     Edge 18, Type (0, 0), BuildingBlock: XUDNAN_clean_linker_2, # of connection points: 2
#     Edge 19, Type (0, 0), BuildingBlock: XUDNAN_clean_linker_2, # of connection points: 2
#     Edge 20, Type (0, 0), BuildingBlock: XUDNAN_clean_linker_2, # of connection points: 2
#     Edge 21, Type (0, 0), BuildingBlock: XUDNAN_clean_linker_2, # of connection points: 2
#     Edge 22, Type (0, 0), BuildingBlock: XUDNAN_clean_linker_2, # of connection points: 2
#     Edge 23, Type (0, 0), BuildingBlock: XUDNAN_clean_linker_2, # of connection points: 2
#     Edge 24, Type (0, 0), BuildingBlock: XUDNAN_clean_linker_2, # of connection points: 2
#     Edge 25, Type (0, 0), BuildingBlock: XUDNAN_clean_linker_2, # of connection points: 2
#     Edge 26, Type (0, 0), BuildingBlock: XUDNAN_clean_linker_2, # of connection points: 2
#     Edge 27, Type (0, 0), BuildingBlock: XUDNAN_clean_linker_2, # of connection points: 2
#     Edge 28, Type (0, 0), BuildingBlock: XUDNAN_clean_linker_2, # of connection points: 2
#     Edge 29, Type (0, 0), BuildingBlock: XUDNAN_clean_linker_2, # of connection points: 2
#     Edge 30, Type (0, 0), BuildingBlock: XUDNAN_clean_linker_2, # of connection points: 2
#     Edge 31, Type (0, 0), BuildingBlock: XUDNAN_clean_linker_2, # of connection points: 2
# Relax obj value: 0.092
# Max RMSD: 0.154
# Mean RMSD: 0.126
data_MOF--net-snk--node1-BETFAJ_clean_sbu_0--edge1-XUDNAN_clean_linker_2
_symmetry_space_group_name_H-M    P1
_symmetry_Int_Tables_number       1
_symmetry_cell_setting            triclinic
loop_
_symmetry_equiv_pos_as_xyz
'x, y, z'
_cell_length_a     37.551084
_cell_length_b     37.804985
_cell_length_c     25.410157
_cell_angle_alpha  83.040667
_cell_angle_beta   96.803027
_cell_angle_gamma 88.995718
loop_
_atom_site_label
_atom_site_type_symbol
_atom_site_fract_x
_atom_site_fract_y
_atom_site_fract_z
_atom_type_partial_charge
Sm0 Sm 0.99496 0.99124 0.46036 0.0
Sm1 Sm 0.02648 0.0193 0.56559 0.0
C2 C 0.96672 0.98337 0.36199 0.0
C3 C 0.97215 0.99424 0.30581 0.0
C4 C 0.94267 0.00772 0.26937 0.0
C5 C 0.9466 0.01748 0.21561 0.0
C6 C 0.98014 0.01382 0.19706 0.0
C7 C 1.00976 1.00047 0.23371 0.0
C8 C 1.00585 0.99089 0.28768 0.0
C9 C 0.04803 0.9493 0.52287 0.0
C10 C 0.062 0.04639 0.46045 0.0
C11 C 0.0548 0.02725 0.6639 0.0
C12 C 0.04327 0.0282 0.71707 0.0
C13 C 0.06828 0.02003 0.76264 0.0
C14 C 0.05813 0.02176 0.81351 0.0
C15 C 0.02276 0.03181 0.81965 0.0
C16 C 0.9976 0.03939 0.77377 0.0
C17 C 1.00774 0.03749 0.72292 0.0
C18 C 0.97228 0.06073 0.50455 0.0
C19 C 0.95972 0.96274 0.56596 0.0
O20 O 0.9561 0.00843 0.38841 0.0
O21 O 0.99012 0.96065 0.39079 0.0
O22 O 0.04754 0.98269 0.51295 0.0
O23 O 0.02034 0.93602 0.49737 0.0
O24 O 0.03217 0.03682 0.43325 0.0
O25 O 0.06951 0.03662 0.51229 0.0
O26 O 0.05348 0.99641 0.6454 0.0
O27 O 0.04386 0.054 0.62754 0.0
O28 O 0.97366 0.02735 0.51376 0.0
O29 O 0.99934 0.07429 0.53095 0.0
O30 O 0.98772 0.97549 0.5936 0.0
O31 O 0.95333 0.96946 0.51345 0.0
H32 H 0.91643 0.01045 0.28247 0.0
H33 H 0.92317 0.02725 0.18834 0.0
H34 H 0.03602 0.99772 0.22076 0.0
H35 H 0.02911 0.98079 0.31507 0.0
H36 H 0.0958 0.01271 0.75884 0.0
H37 H 0.07822 0.01605 0.84795 0.0
H38 H 0.97003 0.0467 0.7772 0.0
H39 H 0.98794 0.04352 0.68818 0.0
Sm40 Sm 0.26448 0.73239 0.81458 0.0
Sm41 Sm 0.28484 0.77076 0.70708 0.0
C42 C 0.2646 0.69983 0.91316 0.0
C43 C 0.26558 0.70572 0.96959 0.0
C44 C 0.27628 0.67725 1.00924 0.0
C45 C 0.27516 0.6809 0.06308 0.0
C46 C 0.26333 0.7132 0.07852 0.0
C47 C 0.25385 0.74221 0.03873 0.0
C48 C 0.25487 0.73847 0.9846 0.0
C49 C 0.21533 0.78243 0.75949 0.0
C50 C 0.30964 0.80769 0.81309 0.0
C51 C 0.28429 0.80008 0.60668 0.0
C52 C 0.27811 0.78758 0.55367 0.0
C53 C 0.26838 0.812 0.5079 0.0
C54 C 0.26308 0.80035 0.45732 0.0
C55 C 0.26746 0.76398 0.45157 0.0
C56 C 0.27711 0.73963 0.49785 0.0
C57 C 0.28221 0.75128 0.54831 0.0
C58 C 0.33659 0.72512 0.76435 0.0
C59 C 0.23896 0.69634 0.70987 0.0
O60 O 0.29389 0.70579 0.89069 0.0
O61 O 0.23526 0.7099 0.88126 0.0
O62 O 0.24872 0.78488 0.76567 0.0
O63 O 0.20568 0.75298 0.78517 0.0
O64 O 0.29985 0.77823 0.84082 0.0
O65 O 0.30314 0.81373 0.76034 0.0
O66 O 0.25638 0.80113 0.63293 0.0
O67 O 0.31339 0.78742 0.63709 0.0
O68 O 0.30343 0.71934 0.75857 0.0
O69 O 0.3436 0.75426 0.7354 0.0
O70 O 0.24532 0.7272 0.68258 0.0
O71 O 0.24984 0.68909 0.76136 0.0
H72 H 0.28492 0.65187 0.99847 0.0
H73 H 0.28331 0.65825 0.0927 0.0
H74 H 0.24454 0.7674 0.04928 0.0
H75 H 0.24666 0.76085 0.9545 0.0
H76 H 0.2649 0.84011 0.51128 0.0
H77 H 0.25515 0.81981 0.42282 0.0
H78 H 0.28128 0.71153 0.49513 0.0
H79 H 0.28965 0.73195 0.58318 0.0
Sm80 Sm 0.52146 0.97953 0.08255 0.0
Sm81 Sm 0.50961 0.01721 0.96654 0.0
C82 C 0.54429 0.94855 0.18061 0.0
C83 C 0.53871 0.94995 0.23686 0.0
C84 C 0.53471 0.98249 0.25739 0.0
C85 C 0.53225 0.98298 0.3119 0.0
C86 C 0.5337 0.95094 0.34687 0.0
C87 C 0.53656 0.91846 0.32562 0.0
C88 C 0.53913 0.91801 0.27127 0.0
C89 C 0.46222 0.95935 0.02059 0.0
C90 C 0.46382 0.04485 0.05617 0.0
C91 C 0.49452 0.0362 0.86244 0.0
C92 C 0.49767 0.02146 0.81216 0.0
C93 C 0.50178 0.98463 0.81079 0.0
C94 C 0.50668 0.97145 0.76285 0.0
C95 C 0.50778 0.99492 0.71555 0.0
C96 C 0.50333 0.03179 0.71736 0.0
C97 C 0.4983 0.04486 0.76517 0.0
C98 C 0.55 0.05455 0.03693 0.0
C99 C 0.56691 0.9494 0.99229 0.0
O100 O 0.55982 0.97549 0.15664 0.0
O101 O 0.51843 0.93617 0.14962 0.0
O102 O 0.49265 0.96447 1.00519 0.0
O103 O 0.46244 0.96429 0.07031 0.0
O104 O 0.48887 0.02965 0.09347 0.0
O105 O 0.46255 0.03862 1.00569 0.0
O106 O 0.47112 0.02186 0.89244 0.0
O107 O 0.52481 0.04317 0.88979 0.0
O108 O 0.55173 0.02118 0.03669 0.0
O109 O 0.52868 0.06981 0.99641 0.0
O110 O 0.55152 0.97455 0.95581 0.0
O111 O 0.55961 0.94598 0.04226 0.0
H112 H 0.53421 0.00755 0.23158 0.0
H113 H 0.53032 0.00848 0.32688 0.0
H114 H 0.53705 0.89327 0.35108 0.0
H115 H 0.54203 0.89262 0.25622 0.0
H116 H 0.50155 0.96613 0.84683 0.0
H117 H 0.5096 0.9429 0.7629 0.0
H118 H 0.50467 0.05071 0.68213 0.0
H119 H 0.49552 0.0734 0.76564 0.0
Sm120 Sm 0.23522 0.26646 0.19091 0.0
Sm121 Sm 0.27669 0.24157 0.30323 0.0
C122 C 0.21739 0.2898 0.08814 0.0
C123 C 0.21818 0.27883 0.03424 0.0
C124 C 0.24948 0.26437 0.01853 0.0
C125 C 0.24996 0.25626 0.96617 0.0
C126 C 0.21911 0.26223 0.92854 0.0
C127 C 0.18779 0.27633 0.94473 0.0
C128 C 0.18739 0.28457 0.99688 0.0
C129 C 0.20424 0.21281 0.25073 0.0
C130 C 0.30121 0.20461 0.2041 0.0
C131 C 0.29498 0.21975 0.40652 0.0
C132 C 0.28291 0.22553 0.45818 0.0
C133 C 0.24754 0.237 0.46134 0.0
C134 C 0.23618 0.24092 0.51095 0.0
C135 C 0.25996 0.23349 0.55845 0.0
C136 C 0.2956 0.2228 0.55481 0.0
C137 C 0.3069 0.21883 0.50518 0.0
C138 C 0.30788 0.29446 0.24251 0.0
C139 C 0.21265 0.30484 0.28829 0.0
O140 O 0.24815 0.29584 0.11501 0.0
O141 O 0.19488 0.27403 0.11822 0.0
O142 O 0.23733 0.21559 0.24757 0.0
O143 O 0.18565 0.23776 0.21891 0.0
O144 O 0.27975 0.22878 0.17331 0.0
O145 O 0.30349 0.20143 0.25695 0.0
O146 O 0.2734 0.20255 0.37502 0.0
O147 O 0.30964 0.24665 0.38075 0.0
O148 O 0.27481 0.29228 0.24631 0.0
O149 O 0.32631 0.2692 0.274 0.0
O150 O 0.22908 0.27754 0.32012 0.0
O151 O 0.21548 0.30954 0.23664 0.0
H152 H 0.27367 0.25959 0.04652 0.0
H153 H 0.2744 0.24507 0.95527 0.0
H154 H 0.16369 0.28172 0.91672 0.0
H155 H 0.16304 0.29594 1.00786 0.0
H156 H 0.22859 0.24253 0.42553 0.0
H157 H 0.20871 0.24975 0.51209 0.0
H158 H 0.31454 0.21651 0.59047 0.0
H159 H 0.33431 0.20999 0.5036 0.0
Sm160 Sm 0.73896 0.24643 0.34479 0.0
Sm161 Sm 0.75131 0.28184 0.23261 0.0
C162 C 0.74513 0.21618 0.44523 0.0
C163 C 0.75177 0.22827 0.49817 0.0
C164 C 0.75873 0.20329 0.54384 0.0
C165 C 0.76389 0.21459 0.59455 0.0
C166 C 0.76212 0.25112 0.60035 0.0
C167 C 0.75547 0.27606 0.55414 0.0
C168 C 0.75044 0.26473 0.50352 0.0
C169 C 0.68653 0.29514 0.29635 0.0
C170 C 0.78685 0.31846 0.33239 0.0
C171 C 0.74709 0.31453 0.13361 0.0
C172 C 0.74773 0.30888 0.07762 0.0
C173 C 0.7417 0.3383 0.03821 0.0
C174 C 0.74513 0.33465 0.98505 0.0
C175 C 0.75473 0.30144 0.97028 0.0
C176 C 0.75952 0.27162 1.0097 0.0
C177 C 0.75616 0.27535 0.06314 0.0
C178 C 0.80071 0.22911 0.27956 0.0
C179 C 0.70128 0.21054 0.24471 0.0
O180 O 0.77198 0.21829 0.4166 0.0
O181 O 0.71442 0.22675 0.41744 0.0
O182 O 0.71979 0.29848 0.29553 0.0
O183 O 0.68019 0.26686 0.32771 0.0
O184 O 0.78235 0.28792 0.36178 0.0
O185 O 0.77101 0.32546 0.28297 0.0
O186 O 0.71893 0.30408 0.15635 0.0
O187 O 0.77726 0.30828 0.16515 0.0
O188 O 0.76746 0.22869 0.27964 0.0
O189 O 0.80981 0.25766 0.25123 0.0
O190 O 0.7084 0.2399 0.21406 0.0
O191 O 0.71543 0.20399 0.29523 0.0
H192 H 0.75998 0.17503 0.54031 0.0
H193 H 0.76949 0.19471 0.62916 0.0
H194 H 0.75343 0.30435 0.55707 0.0
H195 H 0.74506 0.28439 0.46856 0.0
H196 H 0.73508 0.36435 0.04875 0.0
H197 H 0.74062 0.35797 0.95551 0.0
H198 H 0.76706 0.24573 0.99956 0.0
H199 H 0.76092 0.25235 0.09324 0.0
Sm200 Sm 0.75285 0.7657 0.72852 0.0
Sm201 Sm 0.79689 0.73594 0.83828 0.0
C202 C 0.73366 0.78965 0.62583 0.0
C203 C 0.74283 0.78623 0.57111 0.0
C204 C 0.74903 0.81713 0.53734 0.0
C205 C 0.75412 0.81544 0.48392 0.0
C206 C 0.753 0.78274 0.46246 0.0
C207 C 0.74825 0.75151 0.49694 0.0
C208 C 0.74312 0.75323 0.55059 0.0
C209 C 0.72401 0.70896 0.78433 0.0
C210 C 0.82117 0.70699 0.73463 0.0
C211 C 0.81351 0.7118 0.94136 0.0
C212 C 0.80614 0.72289 0.99332 0.0
C213 C 0.80107 0.69703 0.03613 0.0
C214 C 0.79317 0.70705 0.08508 0.0
C215 C 0.7901 0.74329 0.09248 0.0
C216 C 0.79554 0.7691 0.04938 0.0
C217 C 0.80328 0.75905 1.00046 0.0
C218 C 0.82485 0.79384 0.78334 0.0
C219 C 0.72787 0.79508 0.8318 0.0
O220 O 0.75614 0.80596 0.65735 0.0
O221 O 0.71892 0.76268 0.65135 0.0
O222 O 0.75702 0.71233 0.78026 0.0
O223 O 0.70478 0.73497 0.75587 0.0
O224 O 0.80196 0.73478 0.70869 0.0
O225 O 0.82122 0.6979 0.78665 0.0
O226 O 0.78611 0.70093 0.91148 0.0
O227 O 0.83454 0.73174 0.91355 0.0
O228 O 0.79204 0.78929 0.78732 0.0
O229 O 0.84472 0.76834 0.81201 0.0
O230 O 0.74975 0.76966 0.85905 0.0
O231 O 0.72624 0.80253 0.77927 0.0
H232 H 0.7491 0.84289 0.55196 0.0
H233 H 0.75848 0.83999 0.45916 0.0
H234 H 0.74709 0.72587 0.482 0.0
H235 H 0.73853 0.72883 0.57555 0.0
H236 H 0.80288 0.66896 0.03154 0.0
H237 H 0.78869 0.68632 0.11669 0.0
H238 H 0.79404 0.79725 0.05337 0.0
H239 H 0.80686 0.77962 0.96811 0.0
Sm240 Sm 0.49553 0.50243 0.96258 0.0
Sm241 Sm 0.53562 0.50774 0.07481 0.0
C242 C 0.46292 0.51288 0.86324 0.0
C243 C 0.46953 0.51503 0.80695 0.0
C244 C 0.44571 0.53546 0.76793 0.0
C245 C 0.44895 0.53526 0.71377 0.0
C246 C 0.47604 0.51439 0.69744 0.0
C247 C 0.50085 0.495 0.7368 0.0
C248 C 0.4976 0.4953 0.79116 0.0
C249 C 0.53975 0.44478 1.00672 0.0
C250 C 0.57446 0.54003 0.97539 0.0
C251 C 0.56501 0.49733 0.17586 0.0
C252 C 0.55168 0.49819 0.2279 0.0
C253 C 0.57089 0.48027 0.27445 0.0
C254 C 0.55815 0.48096 0.32399 0.0
C255 C 0.52591 0.49958 0.32774 0.0
C256 C 0.50686 0.51755 0.28074 0.0
C257 C 0.51952 0.51671 0.23135 0.0
C258 C 0.49083 0.56512 0.03182 0.0
C259 C 0.45735 0.46906 0.06176 0.0
O260 O 0.47393 0.53901 0.88982 0.0
O261 O 0.46753 0.48155 0.8917 0.0
O262 O 0.54662 0.47702 1.0083 0.0
O263 O 0.50934 0.44184 0.9778 0.0
O264 O 0.54263 0.53957 0.94682 0.0
O265 O 0.58093 0.52293 0.02424 0.0
O266 O 0.55384 0.47134 0.14913 0.0
O267 O 0.56467 0.52797 0.14567 0.0
O268 O 0.48418 0.5329 0.02943 0.0
O269 O 0.52114 0.56811 0.06091 0.0
O270 O 0.48922 0.46954 0.09009 0.0
O271 O 0.45063 0.48673 1.0134 0.0
H272 H 0.42391 0.55089 0.77926 0.0
H273 H 0.42983 0.55106 0.68461 0.0
H274 H 0.5219 0.47853 0.72562 0.0
H275 H 0.51635 0.47935 0.82073 0.0
H276 H 0.59567 0.46565 0.27247 0.0
H277 H 0.57326 0.46644 0.35917 0.0
H278 H 0.48227 0.53263 0.28209 0.0
H279 H 0.50423 0.53065 0.1958 0.0
Sm280 Sm 0.02969 0.48674 0.56598 0.0
Sm281 Sm 1.00635 0.52831 0.45427 0.0
C282 C 0.05096 0.46882 0.66939 0.0
C283 C 0.04188 0.47989 0.72013 0.0
C284 C 0.03082 0.51517 0.72328 0.0
C285 C 0.02211 0.52524 0.77154 0.0
C286 C 0.02415 0.50023 0.81775 0.0
C287 C 0.03527 0.4649 0.8143 0.0
C288 C 0.04402 0.45487 0.76598 0.0
C289 C 0.97402 0.45819 0.5068 0.0
C290 C 0.96974 0.5543 0.55109 0.0
C291 C 0.98243 0.54781 0.35209 0.0
C292 C 0.99011 0.54593 0.29668 0.0
C293 C 0.9988 0.51348 0.27865 0.0
C294 C 1.0015 0.51196 0.22435 0.0
C295 C 0.99549 0.54284 0.18704 0.0
C296 C 0.9884 0.57547 0.20584 0.0
C297 C 0.98564 0.57694 0.25993 0.0
C298 C 0.06207 0.55698 0.51372 0.0
C299 C 0.06605 0.46104 0.46707 0.0
O300 O 0.06704 0.49218 0.63881 0.0
O301 O 0.02641 0.45184 0.64243 0.0
O302 O 0.97808 0.49097 0.50988 0.0
O303 O 0.99889 0.43884 0.53784 0.0
O304 O 0.99532 0.5353 0.58337 0.0
O305 O 0.96497 0.55185 0.49943 0.0
O306 O 0.97356 0.51839 0.37946 0.0
O307 O 1.00234 0.56804 0.38108 0.0
O308 O 0.05792 0.52427 0.51044 0.0
O309 O 0.0374 0.57629 0.48228 0.0
O310 O 0.04151 0.48208 0.43632 0.0
O311 O 0.06982 0.45942 0.51985 0.0
H312 H 0.029 0.53502 0.68849 0.0
H313 H 0.01417 0.55277 0.77271 0.0
H314 H 0.03666 0.44479 0.84872 0.0
H315 H 0.05233 0.42747 0.76435 0.0
H316 H 1.00248 0.4891 0.30617 0.0
H317 H 1.00686 0.48636 0.21136 0.0
H318 H 0.98438 0.59991 0.17854 0.0
H319 H 0.97899 0.60227 0.27285 0.0
H320 H 0.04948 0.10091 0.37823 0.0
H321 H 0.13437 0.03802 0.48018 0.0
H322 H 0.1798 0.07228 0.43472 0.0
H323 H 0.09309 0.11304 0.25743 0.0
H324 H 0.07725 0.15867 0.23925 0.0
H325 H 0.05123 0.12766 0.27716 0.0
H326 H 0.05188 0.16974 0.35046 0.0
H327 H 0.07789 0.20089 0.31285 0.0
H328 H 0.09421 0.18389 0.38095 0.0
H329 H 0.21577 0.11185 0.37703 0.0
H330 H 0.24064 0.1587 0.31693 0.0
H331 H 0.13301 0.2005 0.25849 0.0
C332 C 0.07766 0.0942 0.39039 0.0
C333 C 0.08861 0.06666 0.43216 0.0
C334 C 0.1256 0.05903 0.44811 0.0
C335 C 0.15153 0.07821 0.42243 0.0
C336 C 0.13998 0.10536 0.38156 0.0
C337 C 0.10398 0.11375 0.36605 0.0
C338 C 0.09898 0.14576 0.32338 0.0
C339 C 0.07896 0.13566 0.27121 0.0
C340 C 0.0796 0.17691 0.34311 0.0
C341 C 0.13779 0.15391 0.3173 0.0
C342 C 0.16092 0.1299 0.3507 0.0
C343 C 0.19799 0.13117 0.35128 0.0
C344 C 0.21188 0.15802 0.31731 0.0
C345 C 0.18883 0.18376 0.28425 0.0
C346 C 0.15128 0.18144 0.28393 0.0
H347 H 0.04996 0.87768 0.56175 0.0
H348 H 0.10791 0.97554 0.57172 0.0
H349 H 0.15415 0.94357 0.63773 0.0
H350 H 0.06987 0.84282 0.70318 0.0
H351 H 0.07526 0.79721 0.69074 0.0
H352 H 0.04545 0.82769 0.6451 0.0
H353 H 0.0796 0.81385 0.56673 0.0
H354 H 0.10935 0.78323 0.61208 0.0
H355 H 0.12743 0.81934 0.57143 0.0
H356 H 0.19534 0.90207 0.69754 0.0
H357 H 0.23083 0.8518 0.74988 0.0
H358 H 0.14713 0.77939 0.7057 0.0
C359 C 0.07241 0.89223 0.57799 0.0
C360 C 0.07544 0.92906 0.56172 0.0
C361 C 0.10507 0.94735 0.58372 0.0
C362 C 0.13144 0.92946 0.62134 0.0
C363 C 0.12775 0.89328 0.63673 0.0
C364 C 0.09913 0.87469 0.61599 0.0
C365 C 0.10255 0.83558 0.63899 0.0
C366 C 0.07143 0.82522 0.67143 0.0
C367 C 0.10488 0.81159 0.59466 0.0
C368 C 0.13791 0.83518 0.67498 0.0
C369 C 0.15168 0.86893 0.67294 0.0
C370 C 0.18476 0.87556 0.70004 0.0
C371 C 0.20472 0.84682 0.72953 0.0
C372 C 0.19149 0.81192 0.73207 0.0
C373 C 0.15741 0.806 0.70514 0.0
H374 H 0.36966 0.84667 0.79822 0.0
H375 H 0.28388 0.83056 0.89793 0.0
H376 H 0.31045 0.87375 0.95538 0.0
H377 H 0.4379 0.84791 0.9044 0.0
H378 H 0.46412 0.88125 0.87124 0.0
H379 H 0.43568 0.8536 0.83259 0.0
H380 H 0.40353 0.91001 0.77825 0.0
H381 H 0.43197 0.93779 0.81694 0.0
H382 H 0.38387 0.94291 0.81283 0.0
H383 H 0.34788 0.91387 1.00604 0.0
H384 H 0.39645 0.94637 0.05102 0.0
H385 H 0.46052 0.93541 0.92214 0.0
C386 C 0.35613 0.85314 0.83134 0.0
C387 C 0.32452 0.83588 0.84348 0.0
C388 C 0.30801 0.84381 0.88803 0.0
C389 C 0.32278 0.8684 0.92064 0.0
C390 C 0.35431 0.88456 0.90846 0.0
C391 C 0.37102 0.87725 0.86512 0.0
C392 C 0.40678 0.89542 0.86479 0.0
C393 C 0.43795 0.8679 0.8685 0.0
C394 C 0.4065 0.92318 0.81525 0.0
C395 C 0.40781 0.91322 0.91537 0.0
C396 C 0.3769 0.90708 0.93922 0.0
C397 C 0.37208 0.91918 0.98757 0.0
C398 C 0.39985 0.93753 1.01287 0.0
C399 C 0.43215 0.94332 0.99007 0.0
C400 C 0.43592 0.93157 0.9402 0.0
H401 H 0.45772 0.06782 0.15456 0.0
H402 H 0.40634 0.07637 0.99073 0.0
H403 H 0.35951 0.11616 1.01291 0.0
H404 H 0.37552 0.0682 0.21721 0.0
H405 H 0.393 0.0949 0.26795 0.0
H406 H 0.42289 0.06635 0.24027 0.0
H407 H 0.46142 0.12037 0.21438 0.0
H408 H 0.43171 0.14909 0.24207 0.0
H409 H 0.44041 0.15927 0.17371 0.0
H410 H 0.31904 0.15507 0.05026 0.0
H411 H 0.28615 0.19266 0.10102 0.0
H412 H 0.36178 0.16074 0.24288 0.0
C413 C 0.43654 0.07799 0.12343 0.0
C414 C 0.43582 0.06883 0.07078 0.0
C415 C 0.40768 0.08288 0.03126 0.0
C416 C 0.38082 0.10552 0.04346 0.0
C417 C 0.38229 0.11399 0.09544 0.0
C418 C 0.40931 0.10083 0.13494 0.0
C419 C 0.40439 0.11493 0.18737 0.0
C420 C 0.3986 0.08426 0.23077 0.0
C421 C 0.43638 0.13724 0.20543 0.0
C422 C 0.37044 0.13813 0.17082 0.0
C423 C 0.35839 0.13693 0.11753 0.0
C424 C 0.32813 0.15625 0.09203 0.0
C425 C 0.30969 0.1777 0.12145 0.0
C426 C 0.32135 0.17993 0.17614 0.0
C427 C 0.35205 0.1595 0.20132 0.0
H428 H 0.97423 0.90841 0.64745 0.0
H429 H 0.88712 0.96967 0.5482 0.0
H430 H 0.84305 0.93492 0.5964 0.0
H431 H 0.93041 0.82465 0.64728 0.0
H432 H 0.94847 0.80805 0.71484 0.0
H433 H 0.97311 0.83946 0.67536 0.0
H434 H 0.97515 0.88172 0.74853 0.0
H435 H 0.95042 0.85051 0.78827 0.0
H436 H 0.93387 0.89594 0.77046 0.0
H437 H 0.80886 0.89534 0.65791 0.0
H438 H 0.78618 0.84814 0.72021 0.0
H439 H 0.89511 0.80775 0.77195 0.0
C440 C 0.94585 0.9146 0.63639 0.0
C441 C 0.93383 0.94187 0.5948 0.0
C442 C 0.89663 0.94887 0.58021 0.0
C443 C 0.87151 0.92942 0.60746 0.0
C444 C 0.88413 0.90262 0.64835 0.0
C445 C 0.92039 0.89473 0.66216 0.0
C446 C 0.9267 0.86292 0.70495 0.0
C447 C 0.94579 0.83194 0.68436 0.0
C448 C 0.94778 0.87342 0.75608 0.0
C449 C 0.88834 0.85432 0.71325 0.0
C450 C 0.86426 0.87795 0.68087 0.0
C451 C 0.8274 0.87626 0.68275 0.0
C452 C 0.81474 0.84924 0.71794 0.0
C453 C 0.83878 0.8237 0.74953 0.0
C454 C 0.87607 0.82662 0.7476 0.0
H455 H 0.97036 0.13181 0.4638 0.0
H456 H 0.91002 0.03494 0.4622 0.0
H457 H 0.86196 0.06719 0.39942 0.0
H458 H 0.89504 0.19196 0.45957 0.0
H459 H 0.91226 0.22706 0.416 0.0
H460 H 0.9428 0.19623 0.45965 0.0
H461 H 0.97266 0.18037 0.37826 0.0
H462 H 0.94202 0.21104 0.33433 0.0
H463 H 0.94538 0.16505 0.32278 0.0
H464 H 0.81922 0.10938 0.34255 0.0
H465 H 0.7832 0.16023 0.29237 0.0
H466 H 0.87087 0.23059 0.32577 0.0
C467 C 0.94698 0.11753 0.45009 0.0
C468 C 0.94379 0.08093 0.46769 0.0
C469 C 0.91299 0.06296 0.44898 0.0
C470 C 0.88559 0.08101 0.41328 0.0
C471 C 0.88951 0.11698 0.39644 0.0
C472 C 0.91933 0.13518 0.41396 0.0
C473 C 0.91614 0.17408 0.38999 0.0
C474 C 0.91658 0.19878 0.43392 0.0
C475 C 0.94582 0.18316 0.35421 0.0
C476 C 0.87954 0.1749 0.35722 0.0
C477 C 0.86487 0.14152 0.36166 0.0
C478 C 0.83053 0.13555 0.33808 0.0
C479 C 0.8103 0.16457 0.30977 0.0
C480 C 0.82456 0.19903 0.30478 0.0
C481 C 0.85981 0.20426 0.32806 0.0
H482 H 0.67479 0.20788 0.13917 0.0
H483 H 0.67434 0.15251 0.29927 0.0
H484 H 0.63496 0.10766 0.26316 0.0
H485 H 0.58244 0.1926 0.09144 0.0
H486 H 0.59174 0.18572 0.02537 0.0
H487 H 0.61962 0.21418 0.06354 0.0
H488 H 0.67592 0.17644 0.05268 0.0
H489 H 0.64824 0.14786 1.01446 0.0
H490 H 0.67726 0.12902 0.07315 0.0
H491 H 0.59494 0.0695 0.21113 0.0
H492 H 0.5584 0.03882 0.14457 0.0
H493 H 0.58613 0.1162 1.01747 0.0
C494 C 0.66634 0.18637 0.16662 0.0
C495 C 0.67771 0.18376 0.22211 0.0
C496 C 0.66615 0.15509 0.25663 0.0
C497 C 0.64367 0.12947 0.23655 0.0
C498 C 0.63302 0.13277 0.18182 0.0
C499 C 0.64399 0.16033 0.14719 0.0
C500 C 0.62902 0.15707 0.08989 0.0
C501 C 0.60423 0.18931 0.06618 0.0
C502 C 0.65943 0.15231 0.05553 0.0
C503 C 0.60801 0.12333 0.09791 0.0
C504 C 0.61065 0.10992 0.15134 0.0
C505 C 0.59331 0.0793 0.16907 0.0
C506 C 0.57319 0.06155 0.13103 0.0
C507 C 0.57092 0.07407 0.07612 0.0
C508 C 0.58796 0.10578 0.05936 0.0
H509 H 0.6779 0.85099 0.79615 0.0
H510 H 0.72695 0.78495 0.93945 0.0
H511 H 0.6914 0.81711 0.99395 0.0
H512 H 0.67435 0.93282 0.85624 0.0
H513 H 0.63131 0.94797 0.82075 0.0
H514 H 0.66038 0.91965 0.79128 0.0
H515 H 0.60962 0.87464 0.78058 0.0
H516 H 0.58047 0.90289 0.81004 0.0
H517 H 0.58887 0.85699 0.83823 0.0
H518 H 0.65147 0.85529 0.03428 0.0
H519 H 0.60861 0.89865 0.05846 0.0
H520 H 0.58406 0.94152 0.89113 0.0
C521 C 0.68107 0.8433 0.83893 0.0
C522 C 0.7054 0.81529 0.86315 0.0
C523 C 0.70867 0.80618 0.91945 0.0
C524 C 0.68851 0.82431 0.95108 0.0
C525 C 0.66494 0.85164 0.92621 0.0
C526 C 0.66094 0.86126 0.87153 0.0
C527 C 0.63357 0.892 0.85571 0.0
C528 C 0.65096 0.92507 0.82945 0.0
C529 C 0.60122 0.88096 0.81897 0.0
C530 C 0.62313 0.89795 0.9101 0.0
C531 C 0.64161 0.87422 0.94998 0.0
C532 C 0.63676 0.87408 1.00347 0.0
C533 C 0.61228 0.89886 1.01679 0.0
C534 C 0.5929 0.92363 0.97686 0.0
C535 C 0.59853 0.92309 0.92271 0.0
H536 H 0.56626 0.59795 0.89963 0.0
H537 H 0.64719 0.52842 0.99901 0.0
H538 H 0.6949 0.56311 0.95919 0.0
H539 H 0.61138 0.61231 0.78224 0.0
H540 H 0.59713 0.65858 0.76723 0.0
H541 H 0.56973 0.62735 0.80211 0.0
H542 H 0.57107 0.66663 0.87913 0.0
H543 H 0.59842 0.69801 0.84446 0.0
H544 H 0.61366 0.6785 0.91182 0.0
H545 H 0.73359 0.60488 0.9058 0.0
H546 H 0.75999 0.6531 0.8492 0.0
H547 H 0.65326 0.69724 0.79069 0.0
C548 C 0.59403 0.58981 0.91265 0.0
C549 C 0.60314 0.56031 0.95186 0.0
C550 C 0.63973 0.55093 0.96883 0.0
C551 C 0.66694 0.57039 0.94635 0.0
C552 C 0.65701 0.59939 0.90765 0.0
C553 C 0.62141 0.60929 0.89146 0.0
C554 C 0.61773 0.64243 0.85116 0.0
C555 C 0.59782 0.63469 0.79751 0.0
C556 C 0.59913 0.67321 0.87297 0.0
C557 C 0.65684 0.64956 0.84679 0.0
C558 C 0.67914 0.62429 0.87922 0.0
C559 C 0.71638 0.62502 0.88073 0.0
C560 C 0.73114 0.65252 0.84865 0.0
C561 C 0.70869 0.67916 0.81641 0.0
C562 C 0.67111 0.67741 0.81536 0.0
H563 H 0.69243 0.35773 0.23188 0.0
H564 H 0.61896 0.27345 0.26849 0.0
H565 H 0.57422 0.30126 0.19551 0.0
H566 H 0.62435 0.42889 0.20155 0.0
H567 H 0.64611 0.45215 0.14864 0.0
H568 H 0.67245 0.42544 0.2036 0.0
H569 H 0.70015 0.38931 0.13707 0.0
H570 H 0.67377 0.41573 0.08184 0.0
H571 H 0.67095 0.36787 0.08993 0.0
H572 H 0.53823 0.33709 0.11688 0.0
H573 H 0.51123 0.38188 0.04321 0.0
H574 H 0.60706 0.44396 0.06007 0.0
C575 C 0.6668 0.34536 0.22468 0.0
C576 C 0.65904 0.31353 0.25565 0.0
C577 C 0.62529 0.298 0.24531 0.0
C578 C 0.59981 0.31345 0.20378 0.0
C579 C 0.60841 0.34459 0.17342 0.0
C580 C 0.64087 0.36068 0.18379 0.0
C581 C 0.64301 0.39454 0.14602 0.0
C582 C 0.64669 0.42718 0.17679 0.0
C583 C 0.6738 0.39168 0.11169 0.0
C584 C 0.60679 0.39487 0.11271 0.0
C585 C 0.58737 0.36564 0.12882 0.0
C586 C 0.55316 0.3601 0.10388 0.0
C587 C 0.53815 0.38549 0.06192 0.0
C588 C 0.55723 0.4161 0.04601 0.0
C589 C 0.59205 0.42063 0.07143 0.0
H590 H 0.95547 0.38824 0.50882 0.0
H591 H 0.92144 0.49545 0.43774 0.0
H592 H 0.8696 0.47139 0.3858 0.0
H593 H 0.93019 0.34349 0.39417 0.0
H594 H 0.91419 0.30471 0.43175 0.0
H595 H 0.94904 0.33029 0.4625 0.0
H596 H 0.91075 0.33847 0.53887 0.0
H597 H 0.87576 0.31296 0.50823 0.0
H598 H 0.86577 0.35731 0.52275 0.0
H599 H 0.82307 0.43548 0.33875 0.0
H600 H 0.78273 0.39049 0.30391 0.0
H601 H 0.84418 0.30698 0.41059 0.0
C602 C 0.93711 0.40661 0.48225 0.0
C603 C 0.94273 0.44367 0.47656 0.0
C604 C 0.91792 0.46693 0.442 0.0
C605 C 0.88833 0.45352 0.41252 0.0
C606 C 0.8836 0.41684 0.41882 0.0
C607 C 0.90705 0.39371 0.45325 0.0
C608 C 0.8953 0.35551 0.45356 0.0
C609 C 0.92388 0.33213 0.43434 0.0
C610 C 0.88636 0.34017 0.50916 0.0
C611 C 0.86182 0.36076 0.41347 0.0
C612 C 0.85572 0.39632 0.39364 0.0
C613 C 0.82734 0.40761 0.35439 0.0
C614 C 0.80463 0.38188 0.33479 0.0
C615 C 0.81014 0.34537 0.35498 0.0
C616 C 0.83897 0.3348 0.39512 0.0
H617 H 0.87621 0.65461 0.766 0.0
H618 H 0.81051 0.71048 0.62711 0.0
H619 H 0.84138 0.67749 0.56855 0.0
H620 H 0.95821 0.65255 0.70307 0.0
H621 H 0.97285 0.60836 0.73363 0.0
H622 H 0.9455 0.63569 0.76743 0.0
H623 H 0.89933 0.58603 0.77407 0.0
H624 H 0.92635 0.55848 0.74008 0.0
H625 H 0.88007 0.56885 0.71423 0.0
H626 H 0.87746 0.64042 0.52356 0.0
H627 H 0.91905 0.59946 0.49256 0.0
H628 H 0.96445 0.56523 0.65687 0.0
C629 C 0.86837 0.65971 0.72332 0.0
C630 C 0.84093 0.68548 0.70152 0.0
C631 C 0.83156 0.69136 0.64529 0.0
C632 C 0.84888 0.6726 0.61132 0.0
C633 C 0.87579 0.64783 0.63366 0.0
C634 C 0.88577 0.64112 0.68813 0.0
C635 C 0.91624 0.613 0.70029 0.0
C636 C 0.95022 0.62833 0.72773 0.0
C637 C 0.90479 0.57961 0.73418 0.0
C638 C 0.92136 0.60527 0.64409 0.0
C639 C 0.8975 0.62583 0.60672 0.0
C640 C 0.89635 0.62406 0.55229 0.0
C641 C 0.92022 0.60055 0.53512 0.0
C642 C 0.94518 0.5789 0.5721 0.0
C643 C 0.94578 0.58139 0.62753 0.0
H644 H 0.37912 0.30781 0.24087 0.0
H645 H 0.27247 0.34824 0.17369 0.0
H646 H 0.29903 0.39754 0.11985 0.0
H647 H 0.4169 0.39403 0.25249 0.0
H648 H 0.46021 0.38094 0.23601 0.0
H649 H 0.43284 0.34826 0.26803 0.0
H650 H 0.43634 0.30948 0.19124 0.0
H651 H 0.46374 0.34204 0.15904 0.0
H652 H 0.42281 0.32877 0.12323 0.0
H653 H 0.3374 0.44127 0.07125 0.0
H654 H 0.38476 0.4782 0.03507 0.0
H655 H 0.46607 0.41131 0.13841 0.0
C656 C 0.36139 0.32701 0.21472 0.0
C657 C 0.32378 0.32404 0.2108 0.0
C658 C 0.30139 0.34984 0.17669 0.0
C659 C 0.31622 0.37796 0.14611 0.0
C660 C 0.35345 0.38012 0.15076 0.0
C661 C 0.37574 0.35552 0.18455 0.0
C662 C 0.41482 0.3644 0.18316 0.0
C663 C 0.4322 0.37239 0.2382 0.0
C664 C 0.43564 0.33439 0.16295 0.0
C665 C 0.41102 0.39768 0.14305 0.0
C666 C 0.37543 0.40617 0.12453 0.0
C667 C 0.36534 0.43508 0.0858 0.0
C668 C 0.39238 0.45584 0.06544 0.0
C669 C 0.42896 0.44781 0.08439 0.0
C670 C 0.43827 0.41845 0.12386 0.0
H671 H 0.4238 0.5644 0.97643 0.0
H672 H 0.51326 0.63269 1.00977 0.0
H673 H 0.48226 0.68155 0.94677 0.0
H674 H 0.40562 0.59329 0.83875 0.0
H675 H 0.3575 0.59175 0.83601 0.0
H676 H 0.38567 0.56275 0.8861 0.0
H677 H 0.35448 0.58774 0.96046 0.0
H678 H 0.3262 0.61677 0.91043 0.0
H679 H 0.3531 0.63515 0.96343 0.0
H680 H 0.44444 0.72085 0.87566 0.0
H681 H 0.39973 0.75048 0.80446 0.0
H682 H 0.33293 0.65811 0.81911 0.0
C683 C 0.43654 0.58984 0.97095 0.0
C684 C 0.47083 0.59496 0.99785 0.0
C685 C 0.48688 0.62842 0.9897 0.0
C686 C 0.46953 0.65625 0.95398 0.0
C687 C 0.43596 0.65025 0.92745 0.0
C688 C 0.41933 0.6181 0.93597 0.0
C689 C 0.38346 0.61856 0.90144 0.0
C690 C 0.38304 0.58987 0.86332 0.0
C691 C 0.35248 0.6143 0.93601 0.0
C692 C 0.38295 0.65571 0.8713 0.0
C693 C 0.41356 0.67344 0.88701 0.0
C694 C 0.42017 0.70745 0.86342 0.0
C695 C 0.39472 0.72394 0.82282 0.0
C696 C 0.36297 0.70652 0.80652 0.0
C697 C 0.35693 0.67203 0.83121 0.0
H698 H 0.18425 0.7085 0.62781 0.0
H699 H 0.24585 0.62402 0.73209 0.0
H700 H 0.20894 0.57905 0.69015 0.0
H701 H 0.09978 0.66834 0.63579 0.0
H702 H 0.08209 0.68344 0.56754 0.0
H703 H 0.11537 0.70884 0.60212 0.0
H704 H 0.15613 0.70514 0.52743 0.0
H705 H 0.12293 0.6798 0.49245 0.0
H706 H 0.16828 0.66216 0.50974 0.0
H707 H 0.16551 0.54337 0.63678 0.0
H708 H 0.11555 0.51947 0.58075 0.0
H709 H 0.07855 0.62721 0.51695 0.0
C710 C 0.19031 0.68049 0.64108 0.0
C711 C 0.21818 0.66959 0.68261 0.0
C712 C 0.22473 0.63282 0.70008 0.0
C713 C 0.20398 0.60713 0.67643 0.0
C714 C 0.17643 0.61871 0.63595 0.0
C715 C 0.16931 0.65452 0.61873 0.0
C716 C 0.13656 0.65991 0.57717 0.0
C717 C 0.10669 0.6814 0.59685 0.0
C718 C 0.14659 0.6778 0.52352 0.0
C719 C 0.12634 0.62154 0.57382 0.0
C720 C 0.15002 0.5982 0.6075 0.0
C721 C 0.14659 0.56139 0.61067 0.0
C722 C 0.11801 0.54806 0.57896 0.0
C723 C 0.09278 0.57146 0.54544 0.0
C724 C 0.09722 0.60868 0.54267 0.0
H725 H 0.18728 0.30166 0.38758 0.0
H726 H 0.1927 0.37107 0.23938 0.0
H727 H 0.15979 0.41819 0.27322 0.0
H728 H 0.0975 0.32896 0.40406 0.0
H729 H 0.10552 0.32745 0.47567 0.0
H730 H 0.13159 0.29887 0.44195 0.0
H731 H 0.19008 0.32421 0.48477 0.0
H732 H 0.16423 0.35297 0.51861 0.0
H733 H 0.19617 0.37167 0.47621 0.0
H734 H 0.12569 0.45704 0.31872 0.0
H735 H 0.08815 0.48653 0.37372 0.0
H736 H 0.1018 0.39436 0.49524 0.0
C737 C 0.18169 0.32689 0.36254 0.0
C738 C 0.19265 0.33255 0.31066 0.0
C739 C 0.18453 0.36582 0.27898 0.0
C740 C 0.16598 0.39297 0.29797 0.0
C741 C 0.15549 0.38662 0.34881 0.0
C742 C 0.16271 0.35452 0.38083 0.0
C743 C 0.14653 0.35486 0.43307 0.0
C744 C 0.11862 0.32581 0.43901 0.0
C745 C 0.17602 0.35068 0.48101 0.0
C746 C 0.12885 0.39205 0.42471 0.0
C747 C 0.13488 0.40967 0.37579 0.0
C748 C 0.12081 0.44367 0.35719 0.0
C749 C 0.09935 0.46013 0.38882 0.0
C750 C 0.09186 0.44276 0.43875 0.0
C751 C 0.10737 0.4084 0.45752 0.0
H752 H 0.04079 0.98659 0.91279 0.0
H753 H 0.98158 0.08504 0.84852 0.0
H754 H 0.96504 0.09158 0.93813 0.0
H755 H 0.97931 0.95502 1.00495 0.0
H756 H 0.01408 0.93611 0.05617 0.0
H757 H 0.02125 0.93922 0.98695 0.0
H758 H 0.07878 0.97452 1.00716 0.0
H759 H 0.0717 0.97165 0.07641 0.0
H760 H 0.07614 0.01456 0.03869 0.0
H761 H 0.95519 0.08764 0.03469 0.0
H762 H 0.95145 0.07269 0.13118 0.0
H763 H 0.01703 0.97679 0.13276 0.0
C764 C 0.02453 0.00964 0.91763 0.0
C765 C 0.01242 0.03529 0.87356 0.0
C766 C 0.99078 0.06482 0.88149 0.0
C767 C 0.98145 0.06889 0.93231 0.0
C768 C 0.99391 0.0432 0.97485 0.0
C769 C 0.01488 0.01408 0.96806 0.0
C770 C 0.02435 0.99006 0.0203 0.0
C771 C 1.00881 0.95291 1.01687 0.0
C772 C 0.06517 0.98757 0.03659 0.0
C773 C 1.00557 0.01032 0.05757 0.0
C774 C 0.98818 0.04089 0.03053 0.0
C775 C 0.96863 0.06373 0.05627 0.0
C776 C 0.96654 0.05494 0.11102 0.0
C777 C 0.98388 0.02356 0.13954 0.0
C778 C 1.00385 1.00118 0.11227 0.0
H779 H 0.28587 0.79702 0.35567 0.0
H780 H 0.23646 0.70224 0.42518 0.0
H781 H 0.22966 0.67976 0.33765 0.0
H782 H 0.22818 0.8062 0.22814 0.0
H783 H 0.26371 0.82147 0.19002 0.0
H784 H 0.26447 0.83048 0.25818 0.0
H785 H 0.32773 0.80021 0.2813 0.0
H786 H 0.32713 0.79101 0.21332 0.0
H787 H 0.33466 0.75512 0.26736 0.0
H788 H 0.22964 0.66653 0.24362 0.0
H789 H 0.23502 0.66403 0.14839 0.0
H790 H 0.28283 0.76797 0.13807 0.0
C791 C 0.27316 0.77176 0.35245 0.0
C792 C 0.26199 0.75133 0.3978 0.0
C793 C 0.24593 0.71816 0.39159 0.0
C794 C 0.24167 0.70524 0.34184 0.0
C795 C 0.25328 0.72587 0.29828 0.0
C796 C 0.26847 0.75852 0.3029 0.0
C797 C 0.27884 0.77522 0.24966 0.0
C798 C 0.25753 0.81043 0.23036 0.0
C799 C 0.31951 0.7807 0.25314 0.0
C800 C 0.26751 0.74662 0.2146 0.0
C801 C 0.25281 0.71843 0.24358 0.0
C802 C 0.24103 0.68848 0.22049 0.0
C803 C 0.24442 0.68722 0.1664 0.0
C804 C 0.25949 0.7157 0.13569 0.0
C805 C 0.27092 0.74592 0.16027 0.0
H806 H 0.47772 0.01917 0.61284 0.0
H807 H 0.55412 0.94031 0.70316 0.0
H808 H 0.56754 0.91945 0.61911 0.0
H809 H 0.44455 0.9658 0.50975 0.0
H810 H 0.44102 1.0028 0.45731 0.0
H811 H 0.43611 0.01038 0.52475 0.0
H812 H 0.48686 0.05589 0.52228 0.0
H813 H 0.49199 0.04839 0.4549 0.0
H814 H 0.53006 0.04239 0.50582 0.0
H815 H 0.5745 0.90873 0.52509 0.0
H816 H 0.5741 0.9084 0.42808 0.0
H817 H 0.49351 0.99459 0.39862 0.0
C818 C 0.49735 0.99756 0.61508 0.0
C819 C 0.51473 0.98132 0.66489 0.0
C820 C 0.53993 0.95281 0.66576 0.0
C821 C 0.54795 0.94092 0.61815 0.0
C822 C 0.53059 0.95778 0.56987 0.0
C823 C 0.50578 0.98544 0.56796 0.0
C824 C 0.4915 0.99953 0.51078 0.0
C825 C 0.45089 0.9943 0.50003 0.0
C826 C 0.50066 0.03888 0.49769 0.0
C827 C 0.51234 0.97559 0.48077 0.0
C828 C 0.53466 0.95165 0.51564 0.0
C829 C 0.5569 0.92715 0.49743 0.0
C830 C 0.5563 0.92704 0.44216 0.0
C831 C 0.53357 0.95127 0.40547 0.0
C832 C 0.51136 0.97586 0.4254 0.0
H833 H 0.27211 0.27524 0.86253 0.0
H834 H 0.16663 0.2307 0.86757 0.0
H835 H 0.16549 0.21916 0.77388 0.0
H836 H 0.25613 0.31866 0.72793 0.0
H837 H 0.30061 0.30916 0.71226 0.0
H838 H 0.29351 0.3136 0.78006 0.0
H839 H 0.32294 0.25094 0.81146 0.0
H840 H 0.33026 0.24637 0.74379 0.0
H841 H 0.30583 0.21317 0.78057 0.0
H842 H 0.17531 0.21306 0.67923 0.0
H843 H 0.19609 0.21133 0.59102 0.0
H844 H 0.29531 0.25973 0.64671 0.0
C845 C 0.24894 0.26269 0.84414 0.0
C846 C 0.21936 0.25401 0.87256 0.0
C847 C 0.18938 0.23807 0.84658 0.0
C848 C 0.18855 0.23125 0.79338 0.0
C849 C 0.21791 0.24048 0.76642 0.0
C850 C 0.24762 0.25575 0.7909 0.0
C851 C 0.27547 0.26337 0.75265 0.0
C852 C 0.28179 0.30359 0.74264 0.0
C853 C 0.31071 0.24219 0.77336 0.0
C854 C 0.25685 0.24983 0.70298 0.0
C855 C 0.22362 0.23687 0.71179 0.0
C856 C 0.20127 0.2232 0.67185 0.0
C857 C 0.21322 0.22257 0.62168 0.0
C858 C 0.24731 0.23548 0.61161 0.0
C859 C 0.26928 0.24933 0.65309 0.0
H860 H 0.73253 0.24934 0.90769 0.0
H861 H 0.79146 0.34714 0.90644 0.0
H862 H 0.80106 0.34398 0.81277 0.0
H863 H 0.78777 0.20543 0.82457 0.0
H864 H 0.75025 0.18513 0.79013 0.0
H865 H 0.74886 0.19436 0.8578 0.0
H866 H 0.68949 0.23122 0.82836 0.0
H867 H 0.69069 0.22209 0.76067 0.0
H868 H 0.68783 0.26753 0.77501 0.0
H869 H 0.80364 0.33092 0.71917 0.0
H870 H 0.79811 0.30925 0.63094 0.0
H871 H 0.73649 0.22053 0.69192 0.0
C872 C 0.74778 0.26985 0.88784 0.0
C873 C 0.76112 0.29858 0.91432 0.0
C874 C 0.78057 0.32515 0.88675 0.0
C875 C 0.78637 0.32347 0.83365 0.0
C876 C 0.77262 0.29502 0.80858 0.0
C877 C 0.75372 0.26867 0.83464 0.0
C878 C 0.74103 0.24152 0.79788 0.0
C879 C 0.758 0.20441 0.81885 0.0
C880 C 0.69982 0.24056 0.79001 0.0
C881 C 0.7555 0.25693 0.74705 0.0
C882 C 0.77382 0.28766 0.75424 0.0
C883 C 0.7893 0.30689 0.71299 0.0
C884 C 0.7858 0.2945 0.66289 0.0
C885 C 0.76675 0.26325 0.65425 0.0
C886 C 0.75162 0.24422 0.69724 0.0
H887 H 0.78793 0.73318 0.41179 0.0
H888 H 0.72118 0.83014 0.3795 0.0
H889 H 0.72348 0.83023 0.28311 0.0
H890 H 0.84462 0.75541 0.30833 0.0
H891 H 0.8476 0.7107 0.29099 0.0
H892 H 0.8407 0.71778 0.35793 0.0
H893 H 0.78358 0.68044 0.35111 0.0
H894 H 0.7903 0.67326 0.2841 0.0
H895 H 0.74839 0.6925 0.29685 0.0
H896 H 0.73211 0.81995 0.18981 0.0
H897 H 0.74745 0.80058 0.10605 0.0
H898 H 0.80994 0.71076 0.19666 0.0
C899 C 0.77363 0.75432 0.38446 0.0
C900 C 0.75464 0.78189 0.40381 0.0
C901 C 0.73653 0.80911 0.36627 0.0
C902 C 0.73743 0.80926 0.31118 0.0
C903 C 0.75651 0.78198 0.29357 0.0
C904 C 0.77434 0.75498 0.32896 0.0
C905 C 0.7931 0.72904 0.29905 0.0
C906 C 0.83393 0.7282 0.31503 0.0
C907 C 0.77793 0.69159 0.30834 0.0
C908 C 0.78312 0.74582 0.24149 0.0
C909 C 0.76186 0.77624 0.23941 0.0
C910 C 0.74899 0.79629 0.191 0.0
C911 C 0.75817 0.78517 0.14345 0.0
C912 C 0.78037 0.75428 0.14408 0.0
C913 C 0.79277 0.73434 0.19421 0.0
H914 H 0.53503 0.5136 0.6418 0.0
H915 H 0.4189 0.50786 0.62235 0.0
H916 H 0.41933 0.50296 0.52666 0.0
H917 H 0.54212 0.56593 0.51592 0.0
H918 H 0.58234 0.54295 0.50416 0.0
H919 H 0.57314 0.54579 0.57152 0.0
H920 H 0.57844 0.47696 0.59201 0.0
H921 H 0.58758 0.47389 0.52466 0.0
H922 H 0.55099 0.45002 0.55052 0.0
H923 H 0.43194 0.4982 0.43354 0.0
H924 H 0.45592 0.49522 0.34801 0.0
H925 H 0.56395 0.50485 0.42642 0.0
C926 C 0.50973 0.51109 0.61747 0.0
C927 C 0.47689 0.5114 0.63967 0.0
C928 C 0.44435 0.50835 0.60624 0.0
C929 C 0.44431 0.50527 0.55185 0.0
C930 C 0.47704 0.50519 0.53126 0.0
C931 C 0.50917 0.50805 0.56288 0.0
C932 C 0.54052 0.50762 0.53033 0.0
C933 C 0.56071 0.54266 0.53049 0.0
C934 C 0.56587 0.47519 0.5506 0.0
C935 C 0.52091 0.50422 0.47552 0.0
C936 C 0.48433 0.50271 0.47712 0.0
C937 C 0.46053 0.49954 0.43169 0.0
C938 C 0.47444 0.49812 0.38315 0.0
C939 C 0.51184 0.50009 0.38013 0.0
C940 C 0.53529 0.50296 0.42727 0.0
H941 H 0.05654 0.47867 0.92044 0.0
H942 H 0.96928 0.54593 0.83151 0.0
H943 H 0.95318 0.56426 0.9157 0.0
H944 H 1.00909 0.44837 0.03259 0.0
H945 H 0.04811 0.44845 0.08128 0.0
H946 H 0.05318 0.44082 1.0139 0.0
H947 H 0.0965 0.49326 1.00606 0.0
H948 H 0.09153 0.50108 0.07337 0.0
H949 H 0.08202 0.5367 0.01927 0.0
H950 H 0.94613 0.57512 1.00936 0.0
H951 H 0.94839 0.57769 0.10608 0.0
H952 H 0.04003 0.50325 0.13521 0.0
C953 C 0.03383 0.497 0.91859 0.0
C954 C 0.01431 0.51092 0.869 0.0
C955 C 0.98508 0.53527 0.86866 0.0
C956 C 0.97554 0.5457 0.91639 0.0
C957 C 0.99538 0.53153 0.96439 0.0
C958 C 0.02387 0.50767 0.96594 0.0
C959 C 0.04074 0.49645 0.02298 0.0
C960 C 0.03758 0.45613 0.0386 0.0
C961 C 0.08003 0.50754 0.03086 0.0
C962 C 0.01727 0.51775 0.05323 0.0
C963 C 0.99131 0.5378 0.01858 0.0
C964 C 0.96646 0.55967 0.03685 0.0
C965 C 0.96816 0.56114 0.09196 0.0
C966 C 0.99459 0.54096 0.12852 0.0
C967 C 0.01937 0.51888 0.10855 0.0
loop_
_geom_bond_atom_site_label_1
_geom_bond_atom_site_label_2
_geom_bond_distance
_geom_bond_site_symmetry_2
_ccdc_geom_bond_type
Sm0 C2 2.846 1_655 S
Sm0 O20 2.543 1_565 S
Sm0 O21 2.450 1_655 S
Sm0 O22 2.681 1_655 S
Sm0 O23 2.464 1_655 S
Sm0 O24 2.396 1_665 S
Sm0 O28 2.386 1_565 S
Sm0 O31 2.408 . S
Sm1 C11 2.846 1_455 S
Sm1 O22 2.386 1_545 S
Sm1 O25 2.408 . S
Sm1 O26 2.543 1_545 S
Sm1 O27 2.450 1_455 S
Sm1 O28 2.681 1_455 S
Sm1 O29 2.464 1_455 S
Sm1 O30 2.396 1_445 S
C2 Sm0 2.846 1_455 S
C2 C3 1.506 . S
C2 O20 1.261 1_465 S
C2 O21 1.242 . S
C3 C2 1.506 . S
C3 C4 1.358 1_565 S
C3 C8 1.382 . S
C4 C3 1.358 1_545 S
C4 C5 1.385 . S
C4 H32 0.930 1_455 S
C5 C4 1.385 . S
C5 C6 1.394 . S
C5 H33 0.929 . S
C6 C5 1.394 . S
C6 C7 1.335 1_545 S
C7 C6 1.335 1_565 S
C7 C8 1.398 . S
C7 H34 0.930 . S
C8 C3 1.382 . S
C8 C7 1.398 . S
C8 H35 0.929 . S
C9 O22 1.271 . S
C9 O23 1.251 . S
C10 O24 1.252 . S
C10 O25 1.272 . S
C11 Sm1 2.846 1_655 S
C11 C12 1.506 . S
C11 O26 1.261 1_645 S
C11 O27 1.242 . S
C12 C11 1.506 . S
C12 C13 1.358 1_545 S
C12 C17 1.382 . S
C13 C12 1.358 1_565 S
C13 C14 1.385 . S
C13 H36 0.930 1_655 S
C14 C13 1.385 . S
C14 C15 1.394 1_565 S
C14 H37 0.936 . S
C15 C14 1.394 1_545 S
C15 C16 1.335 . S
C16 C15 1.335 . S
C16 C17 1.398 . S
C16 H38 0.930 . S
C17 C12 1.382 . S
C17 C16 1.398 . S
C17 H39 0.929 . S
C18 O28 1.271 . S
C18 O29 1.251 . S
C19 O30 1.252 . S
C19 O31 1.272 . S
O20 Sm0 2.543 1_545 S
O20 C2 1.261 1_645 S
O21 Sm0 2.450 1_455 S
O21 C2 1.242 . S
O22 Sm0 2.681 1_455 S
O22 Sm1 2.386 1_565 S
O22 C9 1.271 . S
O23 Sm0 2.464 1_455 S
O23 C9 1.251 . S
O24 Sm0 2.396 1_445 S
O24 C10 1.252 . S
O25 Sm1 2.408 . S
O25 C10 1.272 . S
O26 Sm1 2.543 1_565 S
O26 C11 1.261 1_465 S
O27 Sm1 2.450 1_655 S
O27 C11 1.242 . S
O28 Sm0 2.386 1_545 S
O28 Sm1 2.681 1_655 S
O28 C18 1.271 . S
O29 Sm1 2.464 1_655 S
O29 C18 1.251 . S
O30 Sm1 2.396 1_665 S
O30 C19 1.252 . S
O31 Sm0 2.408 . S
O31 C19 1.272 . S
H32 C4 0.930 1_655 S
H33 C5 0.929 . S
H34 C7 0.930 . S
H35 C8 0.929 . S
H36 C13 0.930 1_455 S
H37 C14 0.936 . S
H38 C16 0.930 . S
H39 C17 0.929 . S
Sm40 C42 2.846 . S
Sm40 O60 2.543 . S
Sm40 O61 2.450 . S
Sm40 O62 2.681 . S
Sm40 O63 2.464 . S
Sm40 O64 2.396 . S
Sm40 O68 2.386 . S
Sm40 O71 2.408 . S
Sm41 C51 2.846 . S
Sm41 O62 2.386 . S
Sm41 O65 2.408 . S
Sm41 O66 2.543 . S
Sm41 O67 2.450 . S
Sm41 O68 2.681 . S
Sm41 O69 2.464 . S
Sm41 O70 2.396 . S
C42 Sm40 2.846 . S
C42 C43 1.506 . S
C42 O60 1.261 . S
C42 O61 1.242 . S
C43 C42 1.506 . S
C43 C44 1.356 1_556 S
C43 C48 1.382 . S
C44 C43 1.356 1_554 S
C44 C45 1.391 . S
C44 H72 0.927 1_554 S
C45 C44 1.391 . S
C45 C46 1.395 . S
C45 H73 0.929 . S
C46 C45 1.395 . S
C46 C47 1.335 . S
C47 C46 1.335 . S
C47 C48 1.398 1_554 S
C47 H74 0.930 . S
C48 C43 1.382 . S
C48 C47 1.398 1_556 S
C48 H75 0.929 . S
C49 O62 1.271 . S
C49 O63 1.251 . S
C50 O64 1.252 . S
C50 O65 1.272 . S
C51 Sm41 2.846 . S
C51 C52 1.506 . S
C51 O66 1.261 . S
C51 O67 1.242 . S
C52 C51 1.506 . S
C52 C53 1.358 . S
C52 C57 1.382 . S
C53 C52 1.358 . S
C53 C54 1.385 . S
C53 H76 0.930 . S
C54 C53 1.385 . S
C54 C55 1.395 . S
C54 H77 0.929 . S
C55 C54 1.395 . S
C55 C56 1.335 . S
C56 C55 1.335 . S
C56 C57 1.398 . S
C56 H78 0.930 . S
C57 C52 1.382 . S
C57 C56 1.398 . S
C57 H79 0.929 . S
C58 O68 1.271 . S
C58 O69 1.251 . S
C59 O70 1.252 . S
C59 O71 1.272 . S
O60 Sm40 2.543 . S
O60 C42 1.261 . S
O61 Sm40 2.450 . S
O61 C42 1.242 . S
O62 Sm40 2.681 . S
O62 Sm41 2.386 . S
O62 C49 1.271 . S
O63 Sm40 2.464 . S
O63 C49 1.251 . S
O64 Sm40 2.396 . S
O64 C50 1.252 . S
O65 Sm41 2.408 . S
O65 C50 1.272 . S
O66 Sm41 2.543 . S
O66 C51 1.261 . S
O67 Sm41 2.450 . S
O67 C51 1.242 . S
O68 Sm40 2.386 . S
O68 Sm41 2.681 . S
O68 C58 1.271 . S
O69 Sm41 2.464 . S
O69 C58 1.251 . S
O70 Sm41 2.396 . S
O70 C59 1.252 . S
O71 Sm40 2.408 . S
O71 C59 1.272 . S
H72 C44 0.927 1_556 S
H73 C45 0.929 . S
H74 C47 0.930 . S
H75 C48 0.929 . S
H76 C53 0.930 . S
H77 C54 0.929 . S
H78 C56 0.930 . S
H79 C57 0.929 . S
Sm80 C82 2.846 . S
Sm80 O100 2.543 . S
Sm80 O101 2.450 . S
Sm80 O102 2.681 1_554 S
Sm80 O103 2.464 . S
Sm80 O104 2.396 1_565 S
Sm80 O108 2.386 1_565 S
Sm80 O111 2.408 . S
Sm81 C91 2.846 . S
Sm81 O102 2.386 1_545 S
Sm81 O105 2.408 . S
Sm81 O106 2.543 . S
Sm81 O107 2.450 . S
Sm81 O108 2.681 1_556 S
Sm81 O109 2.464 . S
Sm81 O110 2.396 1_545 S
C82 Sm80 2.846 . S
C82 C83 1.506 . S
C82 O100 1.261 . S
C82 O101 1.242 . S
C83 C82 1.506 . S
C83 C84 1.340 1_565 S
C83 C88 1.382 . S
C84 C83 1.340 1_545 S
C84 C85 1.389 . S
C84 H112 0.945 . S
C85 C84 1.389 . S
C85 C86 1.395 1_545 S
C85 H113 0.929 . S
C86 C85 1.395 1_565 S
C86 C87 1.335 . S
C87 C86 1.335 . S
C87 C88 1.398 . S
C87 H114 0.930 . S
C88 C83 1.382 . S
C88 C87 1.398 . S
C88 H115 0.929 . S
C89 O102 1.271 . S
C89 O103 1.251 1_556 S
C90 O104 1.252 . S
C90 O105 1.272 1_554 S
C91 Sm81 2.846 . S
C91 C92 1.506 . S
C91 O106 1.261 . S
C91 O107 1.242 . S
C92 C91 1.506 . S
C92 C93 1.347 1_545 S
C92 C97 1.382 . S
C93 C92 1.347 1_565 S
C93 C94 1.383 . S
C93 H116 0.939 . S
C94 C93 1.383 . S
C94 C95 1.373 1_565 S
C94 H117 0.956 . S
C95 C94 1.373 1_545 S
C95 C96 1.335 . S
C96 C95 1.335 . S
C96 C97 1.398 . S
C96 H118 0.930 . S
C97 C92 1.382 . S
C97 C96 1.398 . S
C97 H119 0.929 . S
C98 O108 1.271 . S
C98 O109 1.251 1_554 S
C99 O110 1.252 . S
C99 O111 1.272 1_556 S
O100 Sm80 2.543 . S
O100 C82 1.261 . S
O101 Sm80 2.450 . S
O101 C82 1.242 . S
O102 Sm80 2.681 1_556 S
O102 Sm81 2.386 1_565 S
O102 C89 1.271 . S
O103 Sm80 2.464 . S
O103 C89 1.251 1_554 S
O104 Sm80 2.396 1_545 S
O104 C90 1.252 . S
O105 Sm81 2.408 . S
O105 C90 1.272 1_556 S
O106 Sm81 2.543 . S
O106 C91 1.261 . S
O107 Sm81 2.450 . S
O107 C91 1.242 . S
O108 Sm80 2.386 1_545 S
O108 Sm81 2.681 1_554 S
O108 C98 1.271 . S
O109 Sm81 2.464 . S
O109 C98 1.251 1_556 S
O110 Sm81 2.396 1_565 S
O110 C99 1.252 . S
O111 Sm80 2.408 . S
O111 C99 1.272 1_554 S
H112 C84 0.945 . S
H113 C85 0.929 . S
H114 C87 0.930 . S
H115 C88 0.929 . S
H116 C93 0.939 . S
H117 C94 0.956 . S
H118 C96 0.930 . S
H119 C97 0.929 . S
Sm120 C122 2.846 . S
Sm120 O140 2.543 . S
Sm120 O141 2.450 . S
Sm120 O142 2.681 . S
Sm120 O143 2.464 . S
Sm120 O144 2.396 . S
Sm120 O148 2.386 . S
Sm120 O151 2.408 . S
Sm121 C131 2.846 . S
Sm121 O142 2.386 . S
Sm121 O145 2.408 . S
Sm121 O146 2.543 . S
Sm121 O147 2.450 . S
Sm121 O148 2.681 . S
Sm121 O149 2.464 . S
Sm121 O150 2.396 . S
C122 Sm120 2.846 . S
C122 C123 1.506 . S
C122 O140 1.261 . S
C122 O141 1.242 . S
C123 C122 1.506 . S
C123 C124 1.358 . S
C123 C128 1.382 . S
C124 C123 1.358 . S
C124 C125 1.385 1_554 S
C124 H152 0.930 . S
C125 C124 1.385 1_556 S
C125 C126 1.395 . S
C125 H153 0.929 . S
C126 C125 1.395 . S
C126 C127 1.335 . S
C127 C126 1.335 . S
C127 C128 1.398 1_556 S
C127 H154 0.930 . S
C128 C123 1.382 . S
C128 C127 1.398 1_554 S
C128 H155 0.929 . S
C129 O142 1.271 . S
C129 O143 1.251 . S
C130 O144 1.252 . S
C130 O145 1.272 . S
C131 Sm121 2.846 . S
C131 C132 1.506 . S
C131 O146 1.261 . S
C131 O147 1.242 . S
C132 C131 1.506 . S
C132 C133 1.358 . S
C132 C137 1.382 . S
C133 C132 1.358 . S
C133 C134 1.385 . S
C133 H156 0.930 . S
C134 C133 1.385 . S
C134 C135 1.395 . S
C134 H157 0.929 . S
C135 C134 1.395 . S
C135 C136 1.335 . S
C136 C135 1.335 . S
C136 C137 1.398 . S
C136 H158 0.930 . S
C137 C132 1.382 . S
C137 C136 1.398 . S
C137 H159 0.929 . S
C138 O148 1.271 . S
C138 O149 1.251 . S
C139 O150 1.252 . S
C139 O151 1.272 . S
O140 Sm120 2.543 . S
O140 C122 1.261 . S
O141 Sm120 2.450 . S
O141 C122 1.242 . S
O142 Sm120 2.681 . S
O142 Sm121 2.386 . S
O142 C129 1.271 . S
O143 Sm120 2.464 . S
O143 C129 1.251 . S
O144 Sm120 2.396 . S
O144 C130 1.252 . S
O145 Sm121 2.408 . S
O145 C130 1.272 . S
O146 Sm121 2.543 . S
O146 C131 1.261 . S
O147 Sm121 2.450 . S
O147 C131 1.242 . S
O148 Sm120 2.386 . S
O148 Sm121 2.681 . S
O148 C138 1.271 . S
O149 Sm121 2.464 . S
O149 C138 1.251 . S
O150 Sm121 2.396 . S
O150 C139 1.252 . S
O151 Sm120 2.408 . S
O151 C139 1.272 . S
H152 C124 0.930 . S
H153 C125 0.929 . S
H154 C127 0.930 . S
H155 C128 0.929 . S
H156 C133 0.930 . S
H157 C134 0.929 . S
H158 C136 0.930 . S
H159 C137 0.929 . S
Sm160 C162 2.846 . S
Sm160 O180 2.543 . S
Sm160 O181 2.450 . S
Sm160 O182 2.681 . S
Sm160 O183 2.464 . S
Sm160 O184 2.396 . S
Sm160 O188 2.386 . S
Sm160 O191 2.408 . S
Sm161 C171 2.846 . S
Sm161 O182 2.386 . S
Sm161 O185 2.408 . S
Sm161 O186 2.543 . S
Sm161 O187 2.450 . S
Sm161 O188 2.681 . S
Sm161 O189 2.464 . S
Sm161 O190 2.396 . S
C162 Sm160 2.846 . S
C162 C163 1.506 . S
C162 O180 1.261 . S
C162 O181 1.242 . S
C163 C162 1.506 . S
C163 C164 1.358 . S
C163 C168 1.382 . S
C164 C163 1.358 . S
C164 C165 1.385 . S
C164 H192 0.930 . S
C165 C164 1.385 . S
C165 C166 1.395 . S
C165 H193 0.929 . S
C166 C165 1.395 . S
C166 C167 1.335 . S
C167 C166 1.335 . S
C167 C168 1.398 . S
C167 H194 0.930 . S
C168 C163 1.382 . S
C168 C167 1.398 . S
C168 H195 0.929 . S
C169 O182 1.271 . S
C169 O183 1.251 . S
C170 O184 1.252 . S
C170 O185 1.272 . S
C171 Sm161 2.846 . S
C171 C172 1.506 . S
C171 O186 1.261 . S
C171 O187 1.242 . S
C172 C171 1.506 . S
C172 C173 1.357 1_554 S
C172 C177 1.382 . S
C173 C172 1.357 1_556 S
C173 C174 1.389 . S
C173 H196 0.928 1_556 S
C174 C173 1.389 . S
C174 C175 1.395 . S
C174 H197 0.929 . S
C175 C174 1.395 . S
C175 C176 1.335 . S
C176 C175 1.335 . S
C176 C177 1.398 1_556 S
C176 H198 0.930 . S
C177 C172 1.382 . S
C177 C176 1.398 1_554 S
C177 H199 0.929 . S
C178 O188 1.271 . S
C178 O189 1.251 . S
C179 O190 1.252 . S
C179 O191 1.272 . S
O180 Sm160 2.543 . S
O180 C162 1.261 . S
O181 Sm160 2.450 . S
O181 C162 1.242 . S
O182 Sm160 2.681 . S
O182 Sm161 2.386 . S
O182 C169 1.271 . S
O183 Sm160 2.464 . S
O183 C169 1.251 . S
O184 Sm160 2.396 . S
O184 C170 1.252 . S
O185 Sm161 2.408 . S
O185 C170 1.272 . S
O186 Sm161 2.543 . S
O186 C171 1.261 . S
O187 Sm161 2.450 . S
O187 C171 1.242 . S
O188 Sm160 2.386 . S
O188 Sm161 2.681 . S
O188 C178 1.271 . S
O189 Sm161 2.464 . S
O189 C178 1.251 . S
O190 Sm161 2.396 . S
O190 C179 1.252 . S
O191 Sm160 2.408 . S
O191 C179 1.272 . S
H192 C164 0.930 . S
H193 C165 0.929 . S
H194 C167 0.930 . S
H195 C168 0.929 . S
H196 C173 0.928 1_554 S
H197 C174 0.929 . S
H198 C176 0.930 . S
H199 C177 0.929 . S
Sm200 C202 2.846 . S
Sm200 O220 2.543 . S
Sm200 O221 2.450 . S
Sm200 O222 2.681 . S
Sm200 O223 2.464 . S
Sm200 O224 2.396 . S
Sm200 O228 2.386 . S
Sm200 O231 2.408 . S
Sm201 C211 2.846 . S
Sm201 O222 2.386 . S
Sm201 O225 2.408 . S
Sm201 O226 2.543 . S
Sm201 O227 2.450 . S
Sm201 O228 2.681 . S
Sm201 O229 2.464 . S
Sm201 O230 2.396 . S
C202 Sm200 2.846 . S
C202 C203 1.506 . S
C202 O220 1.261 . S
C202 O221 1.242 . S
C203 C202 1.506 . S
C203 C204 1.358 . S
C203 C208 1.382 . S
C204 C203 1.358 . S
C204 C205 1.385 . S
C204 H232 0.930 . S
C205 C204 1.385 . S
C205 C206 1.395 . S
C205 H233 0.929 . S
C206 C205 1.395 . S
C206 C207 1.335 . S
C207 C206 1.335 . S
C207 C208 1.398 . S
C207 H234 0.930 . S
C208 C203 1.382 . S
C208 C207 1.398 . S
C208 H235 0.929 . S
C209 O222 1.271 . S
C209 O223 1.251 . S
C210 O224 1.252 . S
C210 O225 1.272 . S
C211 Sm201 2.846 . S
C211 C212 1.506 . S
C211 O226 1.261 . S
C211 O227 1.242 . S
C212 C211 1.506 . S
C212 C213 1.358 . S
C212 C217 1.382 . S
C213 C212 1.358 . S
C213 C214 1.385 1_556 S
C213 H236 0.930 . S
C214 C213 1.385 1_554 S
C214 C215 1.395 . S
C214 H237 0.929 . S
C215 C214 1.395 . S
C215 C216 1.335 . S
C216 C215 1.335 . S
C216 C217 1.398 1_554 S
C216 H238 0.930 . S
C217 C212 1.382 . S
C217 C216 1.398 1_556 S
C217 H239 0.929 . S
C218 O228 1.271 . S
C218 O229 1.251 . S
C219 O230 1.252 . S
C219 O231 1.272 . S
O220 Sm200 2.543 . S
O220 C202 1.261 . S
O221 Sm200 2.450 . S
O221 C202 1.242 . S
O222 Sm200 2.681 . S
O222 Sm201 2.386 . S
O222 C209 1.271 . S
O223 Sm200 2.464 . S
O223 C209 1.251 . S
O224 Sm200 2.396 . S
O224 C210 1.252 . S
O225 Sm201 2.408 . S
O225 C210 1.272 . S
O226 Sm201 2.543 . S
O226 C211 1.261 . S
O227 Sm201 2.450 . S
O227 C211 1.242 . S
O228 Sm200 2.386 . S
O228 Sm201 2.681 . S
O228 C218 1.271 . S
O229 Sm201 2.464 . S
O229 C218 1.251 . S
O230 Sm201 2.396 . S
O230 C219 1.252 . S
O231 Sm200 2.408 . S
O231 C219 1.272 . S
H232 C204 0.930 . S
H233 C205 0.929 . S
H234 C207 0.930 . S
H235 C208 0.929 . S
H236 C213 0.930 . S
H237 C214 0.929 . S
H238 C216 0.930 . S
H239 C217 0.929 . S
Sm240 C242 2.846 . S
Sm240 O260 2.543 . S
Sm240 O261 2.450 . S
Sm240 O262 2.681 1_556 S
Sm240 O263 2.464 . S
Sm240 O264 2.396 . S
Sm240 O268 2.386 . S
Sm240 O271 2.408 1_556 S
Sm241 C251 2.846 . S
Sm241 O262 2.386 . S
Sm241 O265 2.408 1_554 S
Sm241 O266 2.543 . S
Sm241 O267 2.450 . S
Sm241 O268 2.681 1_554 S
Sm241 O269 2.464 . S
Sm241 O270 2.396 . S
C242 Sm240 2.846 . S
C242 C243 1.506 . S
C242 O260 1.261 . S
C242 O261 1.242 . S
C243 C242 1.506 . S
C243 C244 1.358 . S
C243 C248 1.382 . S
C244 C243 1.358 . S
C244 C245 1.385 . S
C244 H272 0.930 . S
C245 C244 1.385 . S
C245 C246 1.395 . S
C245 H273 0.929 . S
C246 C245 1.395 . S
C246 C247 1.335 . S
C247 C246 1.335 . S
C247 C248 1.398 . S
C247 H274 0.930 . S
C248 C243 1.382 . S
C248 C247 1.398 . S
C248 H275 0.929 . S
C249 O262 1.271 . S
C249 O263 1.251 1_554 S
C250 O264 1.252 . S
C250 O265 1.272 . S
C251 Sm241 2.846 . S
C251 C252 1.506 . S
C251 O266 1.261 . S
C251 O267 1.242 . S
C252 C251 1.506 . S
C252 C253 1.358 . S
C252 C257 1.382 . S
C253 C252 1.358 . S
C253 C254 1.385 . S
C253 H276 0.930 . S
C254 C253 1.385 . S
C254 C255 1.395 . S
C254 H277 0.929 . S
C255 C254 1.395 . S
C255 C256 1.335 . S
C256 C255 1.335 . S
C256 C257 1.398 . S
C256 H278 0.930 . S
C257 C252 1.382 . S
C257 C256 1.398 . S
C257 H279 0.929 . S
C258 O268 1.271 . S
C258 O269 1.251 1_556 S
C259 O270 1.252 . S
C259 O271 1.272 . S
O260 Sm240 2.543 . S
O260 C242 1.261 . S
O261 Sm240 2.450 . S
O261 C242 1.242 . S
O262 Sm240 2.681 1_554 S
O262 Sm241 2.386 . S
O262 C249 1.271 . S
O263 Sm240 2.464 . S
O263 C249 1.251 1_556 S
O264 Sm240 2.396 . S
O264 C250 1.252 . S
O265 Sm241 2.408 1_556 S
O265 C250 1.272 . S
O266 Sm241 2.543 . S
O266 C251 1.261 . S
O267 Sm241 2.450 . S
O267 C251 1.242 . S
O268 Sm240 2.386 . S
O268 Sm241 2.681 1_556 S
O268 C258 1.271 . S
O269 Sm241 2.464 . S
O269 C258 1.251 1_554 S
O270 Sm241 2.396 . S
O270 C259 1.252 . S
O271 Sm240 2.408 1_554 S
O271 C259 1.272 . S
H272 C244 0.930 . S
H273 C245 0.929 . S
H274 C247 0.930 . S
H275 C248 0.929 . S
H276 C253 0.930 . S
H277 C254 0.929 . S
H278 C256 0.930 . S
H279 C257 0.929 . S
Sm280 C282 2.846 1_455 S
Sm280 O300 2.543 . S
Sm280 O301 2.450 1_455 S
Sm280 O302 2.681 1_455 S
Sm280 O303 2.464 1_455 S
Sm280 O304 2.396 1_455 S
Sm280 O308 2.386 . S
Sm280 O311 2.408 . S
Sm281 C291 2.846 1_655 S
Sm281 O302 2.386 . S
Sm281 O305 2.408 . S
Sm281 O306 2.543 . S
Sm281 O307 2.450 1_655 S
Sm281 O308 2.681 1_655 S
Sm281 O309 2.464 1_655 S
Sm281 O310 2.396 1_655 S
C282 Sm280 2.846 1_655 S
C282 C283 1.506 . S
C282 O300 1.261 1_655 S
C282 O301 1.242 . S
C283 C282 1.506 . S
C283 C284 1.358 . S
C283 C288 1.382 . S
C284 C283 1.358 . S
C284 C285 1.385 . S
C284 H312 0.930 1_655 S
C285 C284 1.385 . S
C285 C286 1.395 . S
C285 H313 0.929 . S
C286 C285 1.395 . S
C286 C287 1.335 . S
C287 C286 1.335 . S
C287 C288 1.398 . S
C287 H314 0.930 . S
C288 C283 1.382 . S
C288 C287 1.398 . S
C288 H315 0.929 . S
C289 O302 1.271 . S
C289 O303 1.251 . S
C290 O304 1.252 . S
C290 O305 1.272 . S
C291 Sm281 2.846 1_455 S
C291 C292 1.506 . S
C291 O306 1.261 1_455 S
C291 O307 1.242 . S
C292 C291 1.506 . S
C292 C293 1.358 . S
C292 C297 1.382 . S
C293 C292 1.358 . S
C293 C294 1.385 . S
C293 H316 0.930 1_455 S
C294 C293 1.385 . S
C294 C295 1.395 . S
C294 H317 0.929 . S
C295 C294 1.395 . S
C295 C296 1.335 . S
C296 C295 1.335 . S
C296 C297 1.398 . S
C296 H318 0.930 . S
C297 C292 1.382 . S
C297 C296 1.398 . S
C297 H319 0.929 . S
C298 O308 1.271 . S
C298 O309 1.251 . S
C299 O310 1.252 . S
C299 O311 1.272 . S
O300 Sm280 2.543 . S
O300 C282 1.261 1_455 S
O301 Sm280 2.450 1_655 S
O301 C282 1.242 . S
O302 Sm280 2.681 1_655 S
O302 Sm281 2.386 . S
O302 C289 1.271 . S
O303 Sm280 2.464 1_655 S
O303 C289 1.251 . S
O304 Sm280 2.396 1_655 S
O304 C290 1.252 . S
O305 Sm281 2.408 . S
O305 C290 1.272 . S
O306 Sm281 2.543 . S
O306 C291 1.261 1_655 S
O307 Sm281 2.450 1_455 S
O307 C291 1.242 . S
O308 Sm280 2.386 . S
O308 Sm281 2.681 1_455 S
O308 C298 1.271 . S
O309 Sm281 2.464 1_455 S
O309 C298 1.251 . S
O310 Sm281 2.396 1_455 S
O310 C299 1.252 . S
O311 Sm280 2.408 . S
O311 C299 1.272 . S
H312 C284 0.930 1_455 S
H313 C285 0.929 . S
H314 C287 0.930 . S
H315 C288 0.929 . S
H316 C293 0.930 1_655 S
H317 C294 0.929 . S
H318 C296 0.930 . S
H319 C297 0.929 . S
H320 C332 0.930 . S
H321 C334 0.930 . S
H322 C335 0.930 . S
H323 C339 0.959 . S
H324 C339 0.959 . S
H325 C339 0.961 . S
H326 C340 0.960 . S
H327 C340 0.961 . S
H328 C340 0.959 . S
H329 C343 0.929 . S
H330 C344 0.931 . S
H331 C346 0.930 . S
C332 H320 0.930 . S
C332 C333 1.399 . S
C332 C337 1.399 . S
C333 C332 1.399 . S
C333 C334 1.376 . S
C334 H321 0.930 . S
C334 C333 1.376 . S
C334 C335 1.388 . S
C335 H322 0.930 . S
C335 C334 1.388 . S
C335 C336 1.390 . S
C336 C335 1.390 . S
C336 C337 1.394 . S
C336 C342 1.465 . S
C337 C332 1.399 . S
C337 C336 1.394 . S
C337 C338 1.516 . S
C338 C337 1.516 . S
C338 C339 1.502 . S
C338 C340 1.561 . S
C338 C341 1.526 . S
C339 H323 0.959 . S
C339 H324 0.959 . S
C339 H325 0.961 . S
C339 C338 1.502 . S
C340 H326 0.960 . S
C340 H327 0.961 . S
C340 H328 0.959 . S
C340 C338 1.561 . S
C341 C338 1.526 . S
C341 C342 1.396 . S
C341 C346 1.390 . S
C342 C336 1.465 . S
C342 C341 1.396 . S
C342 C343 1.399 . S
C343 H329 0.929 . S
C343 C342 1.399 . S
C343 C344 1.385 . S
C344 H330 0.931 . S
C344 C343 1.385 . S
C344 C345 1.389 . S
C345 C344 1.389 . S
C345 C346 1.387 . S
C346 H331 0.930 . S
C346 C341 1.390 . S
C346 C345 1.387 . S
H347 C359 0.930 . S
H348 C361 0.930 . S
H349 C362 0.930 . S
H350 C366 0.959 . S
H351 C366 0.959 . S
H352 C366 0.961 . S
H353 C367 0.960 . S
H354 C367 0.961 . S
H355 C367 0.959 . S
H356 C370 0.929 . S
H357 C371 0.931 . S
H358 C373 0.930 . S
C359 H347 0.930 . S
C359 C360 1.399 . S
C359 C364 1.399 . S
C360 C359 1.399 . S
C360 C361 1.376 . S
C361 H348 0.930 . S
C361 C360 1.376 . S
C361 C362 1.388 . S
C362 H349 0.930 . S
C362 C361 1.388 . S
C362 C363 1.390 . S
C363 C362 1.390 . S
C363 C364 1.394 . S
C363 C369 1.465 . S
C364 C359 1.399 . S
C364 C363 1.394 . S
C364 C365 1.516 . S
C365 C364 1.516 . S
C365 C366 1.502 . S
C365 C367 1.561 . S
C365 C368 1.526 . S
C366 H350 0.959 . S
C366 H351 0.959 . S
C366 H352 0.961 . S
C366 C365 1.502 . S
C367 H353 0.960 . S
C367 H354 0.961 . S
C367 H355 0.959 . S
C367 C365 1.561 . S
C368 C365 1.526 . S
C368 C369 1.396 . S
C368 C373 1.390 . S
C369 C363 1.465 . S
C369 C368 1.396 . S
C369 C370 1.399 . S
C370 H356 0.929 . S
C370 C369 1.399 . S
C370 C371 1.385 . S
C371 H357 0.931 . S
C371 C370 1.385 . S
C371 C372 1.389 . S
C372 C371 1.389 . S
C372 C373 1.387 . S
C373 H358 0.930 . S
C373 C368 1.390 . S
C373 C372 1.387 . S
H374 C386 0.930 . S
H375 C388 0.930 . S
H376 C389 0.930 . S
H377 C393 0.959 . S
H378 C393 0.959 . S
H379 C393 0.961 . S
H380 C394 0.960 . S
H381 C394 0.961 . S
H382 C394 0.959 . S
H383 C397 0.929 1_554 S
H384 C398 0.931 1_554 S
H385 C400 0.930 . S
C386 H374 0.930 . S
C386 C387 1.399 . S
C386 C391 1.399 . S
C387 C386 1.399 . S
C387 C388 1.376 . S
C388 H375 0.930 . S
C388 C387 1.376 . S
C388 C389 1.388 . S
C389 H376 0.930 . S
C389 C388 1.388 . S
C389 C390 1.390 . S
C390 C389 1.390 . S
C390 C391 1.394 . S
C390 C396 1.465 . S
C391 C386 1.399 . S
C391 C390 1.394 . S
C391 C392 1.516 . S
C392 C391 1.516 . S
C392 C393 1.502 . S
C392 C394 1.561 . S
C392 C395 1.526 . S
C393 H377 0.959 . S
C393 H378 0.959 . S
C393 H379 0.961 . S
C393 C392 1.502 . S
C394 H380 0.960 . S
C394 H381 0.961 . S
C394 H382 0.959 . S
C394 C392 1.561 . S
C395 C392 1.526 . S
C395 C396 1.396 . S
C395 C400 1.390 . S
C396 C390 1.465 . S
C396 C395 1.396 . S
C396 C397 1.399 . S
C397 H383 0.929 1_556 S
C397 C396 1.399 . S
C397 C398 1.385 . S
C398 H384 0.931 1_556 S
C398 C397 1.385 . S
C398 C399 1.389 . S
C399 C398 1.389 . S
C399 C400 1.387 . S
C400 H385 0.930 . S
C400 C395 1.390 . S
C400 C399 1.387 . S
H401 C413 0.930 . S
H402 C415 0.930 . S
H403 C416 0.930 . S
H404 C420 0.959 . S
H405 C420 0.959 . S
H406 C420 0.961 . S
H407 C421 0.960 . S
H408 C421 0.961 . S
H409 C421 0.959 . S
H410 C424 0.929 . S
H411 C425 0.931 . S
H412 C427 0.930 . S
C413 H401 0.930 . S
C413 C414 1.399 . S
C413 C418 1.399 . S
C414 C413 1.399 . S
C414 C415 1.376 . S
C415 H402 0.930 . S
C415 C414 1.376 . S
C415 C416 1.388 . S
C416 H403 0.930 . S
C416 C415 1.388 . S
C416 C417 1.390 . S
C417 C416 1.390 . S
C417 C418 1.394 . S
C417 C423 1.465 . S
C418 C413 1.399 . S
C418 C417 1.394 . S
C418 C419 1.516 . S
C419 C418 1.516 . S
C419 C420 1.502 . S
C419 C421 1.561 . S
C419 C422 1.526 . S
C420 H404 0.959 . S
C420 H405 0.959 . S
C420 H406 0.961 . S
C420 C419 1.502 . S
C421 H407 0.960 . S
C421 H408 0.961 . S
C421 H409 0.959 . S
C421 C419 1.561 . S
C422 C419 1.526 . S
C422 C423 1.396 . S
C422 C427 1.390 . S
C423 C417 1.465 . S
C423 C422 1.396 . S
C423 C424 1.399 . S
C424 H410 0.929 . S
C424 C423 1.399 . S
C424 C425 1.385 . S
C425 H411 0.931 . S
C425 C424 1.385 . S
C425 C426 1.389 . S
C426 C425 1.389 . S
C426 C427 1.387 . S
C427 H412 0.930 . S
C427 C422 1.390 . S
C427 C426 1.387 . S
H428 C440 0.930 . S
H429 C442 0.930 . S
H430 C443 0.930 . S
H431 C447 0.959 . S
H432 C447 0.959 . S
H433 C447 0.961 . S
H434 C448 0.960 . S
H435 C448 0.961 . S
H436 C448 0.959 . S
H437 C451 0.929 . S
H438 C452 0.931 . S
H439 C454 0.930 . S
C440 H428 0.930 . S
C440 C441 1.399 . S
C440 C445 1.399 . S
C441 C440 1.399 . S
C441 C442 1.376 . S
C442 H429 0.930 . S
C442 C441 1.376 . S
C442 C443 1.388 . S
C443 H430 0.930 . S
C443 C442 1.388 . S
C443 C444 1.390 . S
C444 C443 1.390 . S
C444 C445 1.394 . S
C444 C450 1.465 . S
C445 C440 1.399 . S
C445 C444 1.394 . S
C445 C446 1.516 . S
C446 C445 1.516 . S
C446 C447 1.502 . S
C446 C448 1.561 . S
C446 C449 1.526 . S
C447 H431 0.959 . S
C447 H432 0.959 . S
C447 H433 0.961 . S
C447 C446 1.502 . S
C448 H434 0.960 . S
C448 H435 0.961 . S
C448 H436 0.959 . S
C448 C446 1.561 . S
C449 C446 1.526 . S
C449 C450 1.396 . S
C449 C454 1.390 . S
C450 C444 1.465 . S
C450 C449 1.396 . S
C450 C451 1.399 . S
C451 H437 0.929 . S
C451 C450 1.399 . S
C451 C452 1.385 . S
C452 H438 0.931 . S
C452 C451 1.385 . S
C452 C453 1.389 . S
C453 C452 1.389 . S
C453 C454 1.387 . S
C454 H439 0.930 . S
C454 C449 1.390 . S
C454 C453 1.387 . S
H455 C467 0.930 . S
H456 C469 0.930 . S
H457 C470 0.930 . S
H458 C474 0.959 . S
H459 C474 0.959 . S
H460 C474 0.961 . S
H461 C475 0.960 . S
H462 C475 0.961 . S
H463 C475 0.959 . S
H464 C478 0.929 . S
H465 C479 0.931 . S
H466 C481 0.930 . S
C467 H455 0.930 . S
C467 C468 1.399 . S
C467 C472 1.399 . S
C468 C467 1.399 . S
C468 C469 1.376 . S
C469 H456 0.930 . S
C469 C468 1.376 . S
C469 C470 1.388 . S
C470 H457 0.930 . S
C470 C469 1.388 . S
C470 C471 1.390 . S
C471 C470 1.390 . S
C471 C472 1.394 . S
C471 C477 1.465 . S
C472 C467 1.399 . S
C472 C471 1.394 . S
C472 C473 1.516 . S
C473 C472 1.516 . S
C473 C474 1.502 . S
C473 C475 1.561 . S
C473 C476 1.526 . S
C474 H458 0.959 . S
C474 H459 0.959 . S
C474 H460 0.961 . S
C474 C473 1.502 . S
C475 H461 0.960 . S
C475 H462 0.961 . S
C475 H463 0.959 . S
C475 C473 1.561 . S
C476 C473 1.526 . S
C476 C477 1.396 . S
C476 C481 1.390 . S
C477 C471 1.465 . S
C477 C476 1.396 . S
C477 C478 1.399 . S
C478 H464 0.929 . S
C478 C477 1.399 . S
C478 C479 1.385 . S
C479 H465 0.931 . S
C479 C478 1.385 . S
C479 C480 1.389 . S
C480 C479 1.389 . S
C480 C481 1.387 . S
C481 H466 0.930 . S
C481 C476 1.390 . S
C481 C480 1.387 . S
H482 C494 0.930 . S
H483 C496 0.930 . S
H484 C497 0.930 . S
H485 C501 0.959 . S
H486 C501 0.959 . S
H487 C501 0.961 . S
H488 C502 0.960 . S
H489 C502 0.961 . S
H490 C502 0.959 . S
H491 C505 0.933 . S
H492 C506 0.931 1_556 S
H493 C508 0.930 . S
C494 H482 0.930 . S
C494 C495 1.399 . S
C494 C499 1.399 . S
C495 C494 1.399 . S
C495 C496 1.376 . S
C496 H483 0.930 . S
C496 C495 1.376 . S
C496 C497 1.388 . S
C497 H484 0.930 . S
C497 C496 1.388 . S
C497 C498 1.390 . S
C498 C497 1.390 . S
C498 C499 1.394 . S
C498 C504 1.465 . S
C499 C494 1.399 . S
C499 C498 1.394 . S
C499 C500 1.516 . S
C500 C499 1.516 . S
C500 C501 1.502 . S
C500 C502 1.561 . S
C500 C503 1.526 . S
C501 H485 0.959 . S
C501 H486 0.959 . S
C501 H487 0.961 . S
C501 C500 1.502 . S
C502 H488 0.960 . S
C502 H489 0.961 . S
C502 H490 0.959 . S
C502 C500 1.561 . S
C503 C500 1.526 . S
C503 C504 1.396 . S
C503 C508 1.390 . S
C504 C498 1.465 . S
C504 C503 1.396 . S
C504 C505 1.399 . S
C505 H491 0.933 . S
C505 C504 1.399 . S
C505 C506 1.385 . S
C506 H492 0.931 1_554 S
C506 C505 1.385 . S
C506 C507 1.389 . S
C507 C506 1.389 . S
C507 C508 1.387 . S
C508 H493 0.930 . S
C508 C503 1.390 . S
C508 C507 1.387 . S
H509 C521 0.930 . S
H510 C523 0.930 . S
H511 C524 0.930 . S
H512 C528 0.959 . S
H513 C528 0.959 . S
H514 C528 0.961 . S
H515 C529 0.960 . S
H516 C529 0.961 . S
H517 C529 0.959 . S
H518 C532 0.929 . S
H519 C533 0.931 . S
H520 C535 0.930 . S
C521 H509 0.930 . S
C521 C522 1.399 . S
C521 C526 1.399 . S
C522 C521 1.399 . S
C522 C523 1.376 . S
C523 H510 0.930 . S
C523 C522 1.376 . S
C523 C524 1.388 . S
C524 H511 0.930 . S
C524 C523 1.388 . S
C524 C525 1.390 . S
C525 C524 1.390 . S
C525 C526 1.394 . S
C525 C531 1.465 . S
C526 C521 1.399 . S
C526 C525 1.394 . S
C526 C527 1.516 . S
C527 C526 1.516 . S
C527 C528 1.502 . S
C527 C529 1.561 . S
C527 C530 1.526 . S
C528 H512 0.959 . S
C528 H513 0.959 . S
C528 H514 0.961 . S
C528 C527 1.502 . S
C529 H515 0.960 . S
C529 H516 0.961 . S
C529 H517 0.959 . S
C529 C527 1.561 . S
C530 C527 1.526 . S
C530 C531 1.396 . S
C530 C535 1.390 . S
C531 C525 1.465 . S
C531 C530 1.396 . S
C531 C532 1.399 . S
C532 H518 0.929 . S
C532 C531 1.399 . S
C532 C533 1.385 . S
C533 H519 0.931 . S
C533 C532 1.385 . S
C533 C534 1.389 . S
C534 C533 1.389 . S
C534 C535 1.387 . S
C535 H520 0.930 . S
C535 C530 1.390 . S
C535 C534 1.387 . S
H536 C548 0.930 . S
H537 C550 0.930 . S
H538 C551 0.930 . S
H539 C555 0.959 . S
H540 C555 0.959 . S
H541 C555 0.961 . S
H542 C556 0.960 . S
H543 C556 0.961 . S
H544 C556 0.959 . S
H545 C559 0.929 . S
H546 C560 0.931 . S
H547 C562 0.930 . S
C548 H536 0.930 . S
C548 C549 1.399 . S
C548 C553 1.399 . S
C549 C548 1.399 . S
C549 C550 1.376 . S
C550 H537 0.930 . S
C550 C549 1.376 . S
C550 C551 1.388 . S
C551 H538 0.930 . S
C551 C550 1.388 . S
C551 C552 1.390 . S
C552 C551 1.390 . S
C552 C553 1.394 . S
C552 C558 1.465 . S
C553 C548 1.399 . S
C553 C552 1.394 . S
C553 C554 1.516 . S
C554 C553 1.516 . S
C554 C555 1.502 . S
C554 C556 1.561 . S
C554 C557 1.526 . S
C555 H539 0.959 . S
C555 H540 0.959 . S
C555 H541 0.961 . S
C555 C554 1.502 . S
C556 H542 0.960 . S
C556 H543 0.961 . S
C556 H544 0.959 . S
C556 C554 1.561 . S
C557 C554 1.526 . S
C557 C558 1.396 . S
C557 C562 1.390 . S
C558 C552 1.465 . S
C558 C557 1.396 . S
C558 C559 1.399 . S
C559 H545 0.929 . S
C559 C558 1.399 . S
C559 C560 1.385 . S
C560 H546 0.931 . S
C560 C559 1.385 . S
C560 C561 1.389 . S
C561 C560 1.389 . S
C561 C562 1.387 . S
C562 H547 0.930 . S
C562 C557 1.390 . S
C562 C561 1.387 . S
H563 C575 0.930 . S
H564 C577 0.930 . S
H565 C578 0.930 . S
H566 C582 0.959 . S
H567 C582 0.959 . S
H568 C582 0.961 . S
H569 C583 0.960 . S
H570 C583 0.961 . S
H571 C583 0.959 . S
H572 C586 0.929 . S
H573 C587 0.931 1_556 S
H574 C589 0.930 . S
C575 H563 0.930 . S
C575 C576 1.399 . S
C575 C580 1.399 . S
C576 C575 1.399 . S
C576 C577 1.376 . S
C577 H564 0.930 . S
C577 C576 1.376 . S
C577 C578 1.388 . S
C578 H565 0.930 . S
C578 C577 1.388 . S
C578 C579 1.390 . S
C579 C578 1.390 . S
C579 C580 1.394 . S
C579 C585 1.465 . S
C580 C575 1.399 . S
C580 C579 1.394 . S
C580 C581 1.516 . S
C581 C580 1.516 . S
C581 C582 1.502 . S
C581 C583 1.561 . S
C581 C584 1.526 . S
C582 H566 0.959 . S
C582 H567 0.959 . S
C582 H568 0.961 . S
C582 C581 1.502 . S
C583 H569 0.960 . S
C583 H570 0.961 . S
C583 H571 0.959 . S
C583 C581 1.561 . S
C584 C581 1.526 . S
C584 C585 1.396 . S
C584 C589 1.390 . S
C585 C579 1.465 . S
C585 C584 1.396 . S
C585 C586 1.399 . S
C586 H572 0.929 . S
C586 C585 1.399 . S
C586 C587 1.385 . S
C587 H573 0.931 1_554 S
C587 C586 1.385 . S
C587 C588 1.389 . S
C588 C587 1.389 . S
C588 C589 1.387 . S
C589 H574 0.930 . S
C589 C584 1.390 . S
C589 C588 1.387 . S
H590 C602 0.930 . S
H591 C604 0.930 . S
H592 C605 0.930 . S
H593 C609 0.959 . S
H594 C609 0.959 . S
H595 C609 0.961 . S
H596 C610 0.960 . S
H597 C610 0.961 . S
H598 C610 0.959 . S
H599 C613 0.929 . S
H600 C614 0.931 . S
H601 C616 0.930 . S
C602 H590 0.930 . S
C602 C603 1.399 . S
C602 C607 1.399 . S
C603 C602 1.399 . S
C603 C604 1.376 . S
C604 H591 0.930 . S
C604 C603 1.376 . S
C604 C605 1.388 . S
C605 H592 0.930 . S
C605 C604 1.388 . S
C605 C606 1.390 . S
C606 C605 1.390 . S
C606 C607 1.394 . S
C606 C612 1.465 . S
C607 C602 1.399 . S
C607 C606 1.394 . S
C607 C608 1.516 . S
C608 C607 1.516 . S
C608 C609 1.502 . S
C608 C610 1.561 . S
C608 C611 1.526 . S
C609 H593 0.959 . S
C609 H594 0.959 . S
C609 H595 0.961 . S
C609 C608 1.502 . S
C610 H596 0.960 . S
C610 H597 0.961 . S
C610 H598 0.959 . S
C610 C608 1.561 . S
C611 C608 1.526 . S
C611 C612 1.396 . S
C611 C616 1.390 . S
C612 C606 1.465 . S
C612 C611 1.396 . S
C612 C613 1.399 . S
C613 H599 0.929 . S
C613 C612 1.399 . S
C613 C614 1.385 . S
C614 H600 0.931 . S
C614 C613 1.385 . S
C614 C615 1.389 . S
C615 C614 1.389 . S
C615 C616 1.387 . S
C616 H601 0.930 . S
C616 C611 1.390 . S
C616 C615 1.387 . S
H617 C629 0.930 . S
H618 C631 0.930 . S
H619 C632 0.930 . S
H620 C636 0.959 . S
H621 C636 0.959 . S
H622 C636 0.961 . S
H623 C637 0.960 . S
H624 C637 0.961 . S
H625 C637 0.959 . S
H626 C640 0.929 . S
H627 C641 0.931 . S
H628 C643 0.930 . S
C629 H617 0.930 . S
C629 C630 1.399 . S
C629 C634 1.399 . S
C630 C629 1.399 . S
C630 C631 1.376 . S
C631 H618 0.930 . S
C631 C630 1.376 . S
C631 C632 1.388 . S
C632 H619 0.930 . S
C632 C631 1.388 . S
C632 C633 1.390 . S
C633 C632 1.390 . S
C633 C634 1.394 . S
C633 C639 1.465 . S
C634 C629 1.399 . S
C634 C633 1.394 . S
C634 C635 1.516 . S
C635 C634 1.516 . S
C635 C636 1.502 . S
C635 C637 1.561 . S
C635 C638 1.526 . S
C636 H620 0.959 . S
C636 H621 0.959 . S
C636 H622 0.961 . S
C636 C635 1.502 . S
C637 H623 0.960 . S
C637 H624 0.961 . S
C637 H625 0.959 . S
C637 C635 1.561 . S
C638 C635 1.526 . S
C638 C639 1.396 . S
C638 C643 1.390 . S
C639 C633 1.465 . S
C639 C638 1.396 . S
C639 C640 1.399 . S
C640 H626 0.929 . S
C640 C639 1.399 . S
C640 C641 1.385 . S
C641 H627 0.931 . S
C641 C640 1.385 . S
C641 C642 1.389 . S
C642 C641 1.389 . S
C642 C643 1.387 . S
C643 H628 0.930 . S
C643 C638 1.390 . S
C643 C642 1.387 . S
H644 C656 0.930 . S
H645 C658 0.930 . S
H646 C659 0.930 . S
H647 C663 0.959 . S
H648 C663 0.959 . S
H649 C663 0.961 . S
H650 C664 0.960 . S
H651 C664 0.961 . S
H652 C664 0.959 . S
H653 C667 0.929 . S
H654 C668 0.931 . S
H655 C670 0.930 . S
C656 H644 0.930 . S
C656 C657 1.399 . S
C656 C661 1.399 . S
C657 C656 1.399 . S
C657 C658 1.376 . S
C658 H645 0.930 . S
C658 C657 1.376 . S
C658 C659 1.388 . S
C659 H646 0.930 . S
C659 C658 1.388 . S
C659 C660 1.390 . S
C660 C659 1.390 . S
C660 C661 1.394 . S
C660 C666 1.465 . S
C661 C656 1.399 . S
C661 C660 1.394 . S
C661 C662 1.516 . S
C662 C661 1.516 . S
C662 C663 1.502 . S
C662 C664 1.561 . S
C662 C665 1.526 . S
C663 H647 0.959 . S
C663 H648 0.959 . S
C663 H649 0.961 . S
C663 C662 1.502 . S
C664 H650 0.960 . S
C664 H651 0.961 . S
C664 H652 0.959 . S
C664 C662 1.561 . S
C665 C662 1.526 . S
C665 C666 1.396 . S
C665 C670 1.390 . S
C666 C660 1.465 . S
C666 C665 1.396 . S
C666 C667 1.399 . S
C667 H653 0.929 . S
C667 C666 1.399 . S
C667 C668 1.385 . S
C668 H654 0.931 . S
C668 C667 1.385 . S
C668 C669 1.389 . S
C669 C668 1.389 . S
C669 C670 1.387 . S
C670 H655 0.930 . S
C670 C665 1.390 . S
C670 C669 1.387 . S
H671 C683 0.930 . S
H672 C685 0.930 . S
H673 C686 0.930 . S
H674 C690 0.959 . S
H675 C690 0.959 . S
H676 C690 0.961 . S
H677 C691 0.960 . S
H678 C691 0.961 . S
H679 C691 0.959 . S
H680 C694 0.929 . S
H681 C695 0.931 . S
H682 C697 0.930 . S
C683 H671 0.930 . S
C683 C684 1.399 . S
C683 C688 1.399 . S
C684 C683 1.399 . S
C684 C685 1.376 . S
C685 H672 0.930 . S
C685 C684 1.376 . S
C685 C686 1.388 . S
C686 H673 0.930 . S
C686 C685 1.388 . S
C686 C687 1.390 . S
C687 C686 1.390 . S
C687 C688 1.394 . S
C687 C693 1.465 . S
C688 C683 1.399 . S
C688 C687 1.394 . S
C688 C689 1.516 . S
C689 C688 1.516 . S
C689 C690 1.502 . S
C689 C691 1.561 . S
C689 C692 1.526 . S
C690 H674 0.959 . S
C690 H675 0.959 . S
C690 H676 0.961 . S
C690 C689 1.502 . S
C691 H677 0.960 . S
C691 H678 0.961 . S
C691 H679 0.959 . S
C691 C689 1.561 . S
C692 C689 1.526 . S
C692 C693 1.396 . S
C692 C697 1.390 . S
C693 C687 1.465 . S
C693 C692 1.396 . S
C693 C694 1.399 . S
C694 H680 0.929 . S
C694 C693 1.399 . S
C694 C695 1.385 . S
C695 H681 0.931 . S
C695 C694 1.385 . S
C695 C696 1.389 . S
C696 C695 1.389 . S
C696 C697 1.387 . S
C697 H682 0.930 . S
C697 C692 1.390 . S
C697 C696 1.387 . S
H698 C710 0.930 . S
H699 C712 0.930 . S
H700 C713 0.930 . S
H701 C717 0.959 . S
H702 C717 0.959 . S
H703 C717 0.961 . S
H704 C718 0.960 . S
H705 C718 0.961 . S
H706 C718 0.959 . S
H707 C721 0.929 . S
H708 C722 0.931 . S
H709 C724 0.930 . S
C710 H698 0.930 . S
C710 C711 1.399 . S
C710 C715 1.399 . S
C711 C710 1.399 . S
C711 C712 1.376 . S
C712 H699 0.930 . S
C712 C711 1.376 . S
C712 C713 1.388 . S
C713 H700 0.930 . S
C713 C712 1.388 . S
C713 C714 1.390 . S
C714 C713 1.390 . S
C714 C715 1.394 . S
C714 C720 1.465 . S
C715 C710 1.399 . S
C715 C714 1.394 . S
C715 C716 1.516 . S
C716 C715 1.516 . S
C716 C717 1.502 . S
C716 C718 1.561 . S
C716 C719 1.526 . S
C717 H701 0.959 . S
C717 H702 0.959 . S
C717 H703 0.961 . S
C717 C716 1.502 . S
C718 H704 0.960 . S
C718 H705 0.961 . S
C718 H706 0.959 . S
C718 C716 1.561 . S
C719 C716 1.526 . S
C719 C720 1.396 . S
C719 C724 1.390 . S
C720 C714 1.465 . S
C720 C719 1.396 . S
C720 C721 1.399 . S
C721 H707 0.929 . S
C721 C720 1.399 . S
C721 C722 1.385 . S
C722 H708 0.931 . S
C722 C721 1.385 . S
C722 C723 1.389 . S
C723 C722 1.389 . S
C723 C724 1.387 . S
C724 H709 0.930 . S
C724 C719 1.390 . S
C724 C723 1.387 . S
H725 C737 0.930 . S
H726 C739 0.930 . S
H727 C740 0.930 . S
H728 C744 0.959 . S
H729 C744 0.959 . S
H730 C744 0.961 . S
H731 C745 0.960 . S
H732 C745 0.961 . S
H733 C745 0.959 . S
H734 C748 0.929 . S
H735 C749 0.931 . S
H736 C751 0.930 . S
C737 H725 0.930 . S
C737 C738 1.399 . S
C737 C742 1.399 . S
C738 C737 1.399 . S
C738 C739 1.376 . S
C739 H726 0.930 . S
C739 C738 1.376 . S
C739 C740 1.388 . S
C740 H727 0.930 . S
C740 C739 1.388 . S
C740 C741 1.390 . S
C741 C740 1.390 . S
C741 C742 1.394 . S
C741 C747 1.465 . S
C742 C737 1.399 . S
C742 C741 1.394 . S
C742 C743 1.516 . S
C743 C742 1.516 . S
C743 C744 1.502 . S
C743 C745 1.561 . S
C743 C746 1.526 . S
C744 H728 0.959 . S
C744 H729 0.959 . S
C744 H730 0.961 . S
C744 C743 1.502 . S
C745 H731 0.960 . S
C745 H732 0.961 . S
C745 H733 0.959 . S
C745 C743 1.561 . S
C746 C743 1.526 . S
C746 C747 1.396 . S
C746 C751 1.390 . S
C747 C741 1.465 . S
C747 C746 1.396 . S
C747 C748 1.399 . S
C748 H734 0.929 . S
C748 C747 1.399 . S
C748 C749 1.385 . S
C749 H735 0.931 . S
C749 C748 1.385 . S
C749 C750 1.389 . S
C750 C749 1.389 . S
C750 C751 1.387 . S
C751 H736 0.930 . S
C751 C746 1.390 . S
C751 C750 1.387 . S
H752 C764 0.930 . S
H753 C766 0.930 . S
H754 C767 0.930 . S
H755 C771 0.959 1_655 S
H756 C771 0.959 . S
H757 C771 0.961 1_556 S
H758 C772 0.960 1_556 S
H759 C772 0.961 . S
H760 C772 0.959 1_556 S
H761 C775 0.929 . S
H762 C776 0.931 . S
H763 C778 0.930 . S
C764 H752 0.930 . S
C764 C765 1.399 1_565 S
C764 C769 1.397 1_655 S
C765 C764 1.399 1_545 S
C765 C766 1.376 . S
C766 H753 0.930 . S
C766 C765 1.376 . S
C766 C767 1.388 . S
C767 H754 0.930 . S
C767 C766 1.388 . S
C767 C768 1.390 . S
C768 C767 1.390 . S
C768 C769 1.385 1_645 S
C768 C774 1.465 1_656 S
C769 C764 1.397 1_455 S
C769 C768 1.385 1_465 S
C769 C770 1.528 1_556 S
C770 C769 1.528 1_554 S
C770 C771 1.502 . S
C770 C772 1.561 . S
C770 C773 1.526 . S
C771 H755 0.959 1_455 S
C771 H756 0.959 . S
C771 H757 0.961 1_554 S
C771 C770 1.502 . S
C772 H758 0.960 1_554 S
C772 H759 0.961 . S
C772 H760 0.959 1_554 S
C772 C770 1.561 . S
C773 C770 1.526 . S
C773 C774 1.396 1_565 S
C773 C778 1.390 . S
C774 C768 1.465 1_454 S
C774 C773 1.396 1_545 S
C774 C775 1.399 1_455 S
C775 H761 0.929 . S
C775 C774 1.399 1_655 S
C775 C776 1.385 1_655 S
C776 H762 0.931 . S
C776 C775 1.385 1_455 S
C776 C777 1.389 . S
C777 C776 1.389 . S
C777 C778 1.387 1_545 S
C778 H763 0.930 . S
C778 C773 1.390 . S
C778 C777 1.387 1_565 S
H779 C791 0.930 . S
H780 C793 0.930 . S
H781 C794 0.930 . S
H782 C798 0.959 . S
H783 C798 0.959 . S
H784 C798 0.961 . S
H785 C799 0.960 . S
H786 C799 0.961 . S
H787 C799 0.959 . S
H788 C802 0.929 . S
H789 C803 0.931 . S
H790 C805 0.930 . S
C791 H779 0.930 . S
C791 C792 1.399 . S
C791 C796 1.399 . S
C792 C791 1.399 . S
C792 C793 1.376 . S
C793 H780 0.930 . S
C793 C792 1.376 . S
C793 C794 1.388 . S
C794 H781 0.930 . S
C794 C793 1.388 . S
C794 C795 1.390 . S
C795 C794 1.390 . S
C795 C796 1.394 . S
C795 C801 1.465 . S
C796 C791 1.399 . S
C796 C795 1.394 . S
C796 C797 1.516 . S
C797 C796 1.516 . S
C797 C798 1.502 . S
C797 C799 1.561 . S
C797 C800 1.526 . S
C798 H782 0.959 . S
C798 H783 0.959 . S
C798 H784 0.961 . S
C798 C797 1.502 . S
C799 H785 0.960 . S
C799 H786 0.961 . S
C799 H787 0.959 . S
C799 C797 1.561 . S
C800 C797 1.526 . S
C800 C801 1.396 . S
C800 C805 1.390 . S
C801 C795 1.465 . S
C801 C800 1.396 . S
C801 C802 1.399 . S
C802 H788 0.929 . S
C802 C801 1.399 . S
C802 C803 1.385 . S
C803 H789 0.931 . S
C803 C802 1.385 . S
C803 C804 1.389 . S
C804 C803 1.389 . S
C804 C805 1.387 . S
C805 H790 0.930 . S
C805 C800 1.390 . S
C805 C804 1.387 . S
H806 C818 0.930 . S
H807 C820 0.930 . S
H808 C821 0.930 . S
H809 C825 0.959 . S
H810 C825 0.959 . S
H811 C825 0.961 . S
H812 C826 0.960 . S
H813 C826 0.961 . S
H814 C826 0.959 . S
H815 C829 0.929 . S
H816 C830 0.931 . S
H817 C832 0.930 . S
C818 H806 0.930 . S
C818 C819 1.399 . S
C818 C823 1.399 . S
C819 C818 1.399 . S
C819 C820 1.376 1_545 S
C820 H807 0.930 . S
C820 C819 1.376 1_565 S
C820 C821 1.388 . S
C821 H808 0.930 . S
C821 C820 1.388 . S
C821 C822 1.390 . S
C822 C821 1.390 . S
C822 C823 1.394 1_565 S
C822 C828 1.465 . S
C823 C818 1.399 . S
C823 C822 1.394 1_545 S
C823 C824 1.516 . S
C824 C823 1.516 . S
C824 C825 1.502 . S
C824 C826 1.561 . S
C824 C827 1.526 . S
C825 H809 0.959 . S
C825 H810 0.959 . S
C825 H811 0.961 . S
C825 C824 1.502 . S
C826 H812 0.960 . S
C826 H813 0.961 . S
C826 H814 0.959 . S
C826 C824 1.561 . S
C827 C824 1.526 . S
C827 C828 1.396 1_545 S
C827 C832 1.390 . S
C828 C822 1.465 . S
C828 C827 1.396 1_565 S
C828 C829 1.399 . S
C829 H815 0.929 . S
C829 C828 1.399 . S
C829 C830 1.385 . S
C830 H816 0.931 . S
C830 C829 1.385 . S
C830 C831 1.389 . S
C831 C830 1.389 . S
C831 C832 1.387 1_565 S
C832 H817 0.930 . S
C832 C827 1.390 . S
C832 C831 1.387 1_545 S
H833 C845 0.930 . S
H834 C847 0.930 . S
H835 C848 0.930 . S
H836 C852 0.959 . S
H837 C852 0.959 . S
H838 C852 0.961 . S
H839 C853 0.960 . S
H840 C853 0.961 . S
H841 C853 0.959 . S
H842 C856 0.929 . S
H843 C857 0.931 . S
H844 C859 0.930 . S
C845 H833 0.930 . S
C845 C846 1.399 . S
C845 C850 1.399 . S
C846 C845 1.399 . S
C846 C847 1.376 . S
C847 H834 0.930 . S
C847 C846 1.376 . S
C847 C848 1.388 . S
C848 H835 0.930 . S
C848 C847 1.388 . S
C848 C849 1.390 . S
C849 C848 1.390 . S
C849 C850 1.394 . S
C849 C855 1.465 . S
C850 C845 1.399 . S
C850 C849 1.394 . S
C850 C851 1.516 . S
C851 C850 1.516 . S
C851 C852 1.502 . S
C851 C853 1.561 . S
C851 C854 1.526 . S
C852 H836 0.959 . S
C852 H837 0.959 . S
C852 H838 0.961 . S
C852 C851 1.502 . S
C853 H839 0.960 . S
C853 H840 0.961 . S
C853 H841 0.959 . S
C853 C851 1.561 . S
C854 C851 1.526 . S
C854 C855 1.396 . S
C854 C859 1.390 . S
C855 C849 1.465 . S
C855 C854 1.396 . S
C855 C856 1.399 . S
C856 H842 0.929 . S
C856 C855 1.399 . S
C856 C857 1.385 . S
C857 H843 0.931 . S
C857 C856 1.385 . S
C857 C858 1.389 . S
C858 C857 1.389 . S
C858 C859 1.387 . S
C859 H844 0.930 . S
C859 C854 1.390 . S
C859 C858 1.387 . S
H860 C872 0.930 . S
H861 C874 0.930 . S
H862 C875 0.930 . S
H863 C879 0.959 . S
H864 C879 0.959 . S
H865 C879 0.961 . S
H866 C880 0.960 . S
H867 C880 0.961 . S
H868 C880 0.959 . S
H869 C883 0.929 . S
H870 C884 0.931 . S
H871 C886 0.930 . S
C872 H860 0.930 . S
C872 C873 1.399 . S
C872 C877 1.399 . S
C873 C872 1.399 . S
C873 C874 1.376 . S
C874 H861 0.930 . S
C874 C873 1.376 . S
C874 C875 1.388 . S
C875 H862 0.930 . S
C875 C874 1.388 . S
C875 C876 1.390 . S
C876 C875 1.390 . S
C876 C877 1.394 . S
C876 C882 1.465 . S
C877 C872 1.399 . S
C877 C876 1.394 . S
C877 C878 1.516 . S
C878 C877 1.516 . S
C878 C879 1.502 . S
C878 C880 1.561 . S
C878 C881 1.526 . S
C879 H863 0.959 . S
C879 H864 0.959 . S
C879 H865 0.961 . S
C879 C878 1.502 . S
C880 H866 0.960 . S
C880 H867 0.961 . S
C880 H868 0.959 . S
C880 C878 1.561 . S
C881 C878 1.526 . S
C881 C882 1.396 . S
C881 C886 1.390 . S
C882 C876 1.465 . S
C882 C881 1.396 . S
C882 C883 1.399 . S
C883 H869 0.929 . S
C883 C882 1.399 . S
C883 C884 1.385 . S
C884 H870 0.931 . S
C884 C883 1.385 . S
C884 C885 1.389 . S
C885 C884 1.389 . S
C885 C886 1.387 . S
C886 H871 0.930 . S
C886 C881 1.390 . S
C886 C885 1.387 . S
H887 C899 0.930 . S
H888 C901 0.930 . S
H889 C902 0.930 . S
H890 C906 0.959 . S
H891 C906 0.959 . S
H892 C906 0.961 . S
H893 C907 0.960 . S
H894 C907 0.961 . S
H895 C907 0.959 . S
H896 C910 0.929 . S
H897 C911 0.931 . S
H898 C913 0.930 . S
C899 H887 0.930 . S
C899 C900 1.399 . S
C899 C904 1.399 . S
C900 C899 1.399 . S
C900 C901 1.376 . S
C901 H888 0.930 . S
C901 C900 1.376 . S
C901 C902 1.388 . S
C902 H889 0.930 . S
C902 C901 1.388 . S
C902 C903 1.390 . S
C903 C902 1.390 . S
C903 C904 1.394 . S
C903 C909 1.465 . S
C904 C899 1.399 . S
C904 C903 1.394 . S
C904 C905 1.516 . S
C905 C904 1.516 . S
C905 C906 1.502 . S
C905 C907 1.561 . S
C905 C908 1.526 . S
C906 H890 0.959 . S
C906 H891 0.959 . S
C906 H892 0.961 . S
C906 C905 1.502 . S
C907 H893 0.960 . S
C907 H894 0.961 . S
C907 H895 0.959 . S
C907 C905 1.561 . S
C908 C905 1.526 . S
C908 C909 1.396 . S
C908 C913 1.390 . S
C909 C903 1.465 . S
C909 C908 1.396 . S
C909 C910 1.399 . S
C910 H896 0.929 . S
C910 C909 1.399 . S
C910 C911 1.385 . S
C911 H897 0.931 . S
C911 C910 1.385 . S
C911 C912 1.389 . S
C912 C911 1.389 . S
C912 C913 1.387 . S
C913 H898 0.930 . S
C913 C908 1.390 . S
C913 C912 1.387 . S
H914 C926 0.930 . S
H915 C928 0.930 . S
H916 C929 0.930 . S
H917 C933 0.959 . S
H918 C933 0.959 . S
H919 C933 0.961 . S
H920 C934 0.960 . S
H921 C934 0.961 . S
H922 C934 0.959 . S
H923 C937 0.929 . S
H924 C938 0.931 . S
H925 C940 0.930 . S
C926 H914 0.930 . S
C926 C927 1.399 . S
C926 C931 1.399 . S
C927 C926 1.399 . S
C927 C928 1.376 . S
C928 H915 0.930 . S
C928 C927 1.376 . S
C928 C929 1.388 . S
C929 H916 0.930 . S
C929 C928 1.388 . S
C929 C930 1.390 . S
C930 C929 1.390 . S
C930 C931 1.394 . S
C930 C936 1.465 . S
C931 C926 1.399 . S
C931 C930 1.394 . S
C931 C932 1.516 . S
C932 C931 1.516 . S
C932 C933 1.502 . S
C932 C934 1.561 . S
C932 C935 1.526 . S
C933 H917 0.959 . S
C933 H918 0.959 . S
C933 H919 0.961 . S
C933 C932 1.502 . S
C934 H920 0.960 . S
C934 H921 0.961 . S
C934 H922 0.959 . S
C934 C932 1.561 . S
C935 C932 1.526 . S
C935 C936 1.396 . S
C935 C940 1.390 . S
C936 C930 1.465 . S
C936 C935 1.396 . S
C936 C937 1.399 . S
C937 H923 0.929 . S
C937 C936 1.399 . S
C937 C938 1.385 . S
C938 H924 0.931 . S
C938 C937 1.385 . S
C938 C939 1.389 . S
C939 C938 1.389 . S
C939 C940 1.387 . S
C940 H925 0.930 . S
C940 C935 1.390 . S
C940 C939 1.387 . S
H941 C953 0.943 . S
H942 C955 0.930 . S
H943 C956 0.930 . S
H944 C960 0.959 . S
H945 C960 0.959 . S
H946 C960 0.961 . S
H947 C961 0.960 1_556 S
H948 C961 0.961 . S
H949 C961 0.959 1_556 S
H950 C964 0.929 . S
H951 C965 0.931 . S
H952 C967 0.930 . S
C953 H941 0.943 . S
C953 C954 1.386 1_455 S
C953 C958 1.399 . S
C954 C953 1.386 1_655 S
C954 C955 1.376 . S
C955 H942 0.930 . S
C955 C954 1.376 . S
C955 C956 1.388 . S
C956 H943 0.930 . S
C956 C955 1.388 . S
C956 C957 1.390 . S
C957 C956 1.390 . S
C957 C958 1.394 1_655 S
C957 C963 1.465 1_556 S
C958 C953 1.399 . S
C958 C957 1.394 1_455 S
C958 C959 1.516 1_556 S
C959 C958 1.516 1_554 S
C959 C960 1.502 . S
C959 C961 1.561 . S
C959 C962 1.526 . S
C960 H944 0.959 . S
C960 H945 0.959 . S
C960 H946 0.961 . S
C960 C959 1.502 . S
C961 H947 0.960 1_554 S
C961 H948 0.961 . S
C961 H949 0.959 1_554 S
C961 C959 1.561 . S
C962 C959 1.526 . S
C962 C963 1.396 1_455 S
C962 C967 1.390 . S
C963 C957 1.465 1_554 S
C963 C962 1.396 1_655 S
C963 C964 1.399 . S
C964 H950 0.929 . S
C964 C963 1.399 . S
C964 C965 1.385 . S
C965 H951 0.931 . S
C965 C964 1.385 . S
C965 C966 1.389 1_655 S
C966 C965 1.389 1_455 S
C966 C967 1.387 . S
C967 H952 0.930 . S
C967 C962 1.390 . S
C967 C966 1.387 . S
C333 C10 1.511 . S
C345 C129 1.526 . S
C360 C9 0.923 . S
C372 C49 0.900 . S
C387 C50 1.533 . S
C399 C89 1.496 . S
C414 C90 2.041 . S
C426 C130 2.045 . S
C441 C19 1.511 . S
C453 C218 1.538 . S
C468 C18 0.895 . S
C480 C178 0.930 . S
C495 C179 1.542 . S
C507 C98 1.482 . S
C522 C219 2.058 . S
C534 C99 2.056 . S
C549 C250 1.510 . S
C561 C209 1.532 . S
C576 C169 0.931 . S
C588 C249 0.860 . S
C603 C289 1.522 . S
C615 C170 1.515 . S
C630 C210 2.048 . S
C642 C290 2.043 . S
C657 C138 1.525 . S
C669 C259 1.520 . S
C684 C258 0.908 . S
C696 C58 0.853 . S
C711 C59 1.537 . S
C723 C298 1.498 . S
C738 C139 2.040 . S
C750 C299 2.045 . S
C765 C15 1.417 . S
C777 C6 1.425 . S
C792 C55 1.444 . S
C804 C46 1.401 . S
C819 C95 1.610 . S
C831 C86 1.611 . S
C846 C126 1.627 . S
C858 C135 1.578 . S
C873 C175 1.412 . S
C885 C166 1.447 . S
C900 C206 1.600 . S
C912 C215 1.621 . S
C927 C246 1.398 . S
C939 C255 1.447 . S
C954 C286 1.595 . S
C966 C295 1.607 . S
