# Generated by pormake.
# Topology afw, (4)-cn, num edge types: 1
# Building blocks:
#     Node 0, Type 0, BuildingBlock: CEKHIL_clean_sbu_0, # of connection points: 4
#     Node 1, Type 0, BuildingBlock: CEKHIL_clean_sbu_0, # of connection points: 4
#     Node 2, Type 0, BuildingBlock: CEKHIL_clean_sbu_0, # of connection points: 4
#     Node 3, Type 0, BuildingBlock: CEKHIL_clean_sbu_0, # of connection points: 4
#     Node 4, Type 0, BuildingBlock: CEKHIL_clean_sbu_0, # of connection points: 4
#     Node 5, Type 0, BuildingBlock: CEKHIL_clean_sbu_0, # of connection points: 4
#     Node 6, Type 0, BuildingBlock: CEKHIL_clean_sbu_0, # of connection points: 4
#     Node 7, Type 0, BuildingBlock: CEKHIL_clean_sbu_0, # of connection points: 4
#     Node 8, Type 0, BuildingBlock: CEKHIL_clean_sbu_0, # of connection points: 4
#     Edge 9, Type (0, 0), BuildingBlock: KIFKEQ_clean_linker_1, # of connection points: 2
#     Edge 10, Type (0, 0), BuildingBlock: KIFKEQ_clean_linker_1, # of connection points: 2
#     Edge 11, Type (0, 0), BuildingBlock: KIFKEQ_clean_linker_1, # of connection points: 2
#     Edge 12, Type (0, 0), BuildingBlock: KIFKEQ_clean_linker_1, # of connection points: 2
#     Edge 13, Type (0, 0), BuildingBlock: KIFKEQ_clean_linker_1, # of connection points: 2
#     Edge 14, Type (0, 0), BuildingBlock: KIFKEQ_clean_linker_1, # of connection points: 2
#     Edge 15, Type (0, 0), BuildingBlock: KIFKEQ_clean_linker_1, # of connection points: 2
#     Edge 16, Type (0, 0), BuildingBlock: KIFKEQ_clean_linker_1, # of connection points: 2
#     Edge 17, Type (0, 0), BuildingBlock: KIFKEQ_clean_linker_1, # of connection points: 2
#     Edge 18, Type (0, 0), BuildingBlock: KIFKEQ_clean_linker_1, # of connection points: 2
#     Edge 19, Type (0, 0), BuildingBlock: KIFKEQ_clean_linker_1, # of connection points: 2
#     Edge 20, Type (0, 0), BuildingBlock: KIFKEQ_clean_linker_1, # of connection points: 2
#     Edge 21, Type (0, 0), BuildingBlock: KIFKEQ_clean_linker_1, # of connection points: 2
#     Edge 22, Type (0, 0), BuildingBlock: KIFKEQ_clean_linker_1, # of connection points: 2
#     Edge 23, Type (0, 0), BuildingBlock: KIFKEQ_clean_linker_1, # of connection points: 2
#     Edge 24, Type (0, 0), BuildingBlock: KIFKEQ_clean_linker_1, # of connection points: 2
#     Edge 25, Type (0, 0), BuildingBlock: KIFKEQ_clean_linker_1, # of connection points: 2
#     Edge 26, Type (0, 0), BuildingBlock: KIFKEQ_clean_linker_1, # of connection points: 2
# Relax obj value: 0.199
# Max RMSD: 0.209
# Mean RMSD: 0.200
data_MOF--net-afw--node1-CEKHIL_clean_sbu_0--edge1-KIFKEQ_clean_linker_1
_symmetry_space_group_name_H-M    P1
_symmetry_Int_Tables_number       1
_symmetry_cell_setting            triclinic
loop_
_symmetry_equiv_pos_as_xyz
'x, y, z'
_cell_length_a     43.400763
_cell_length_b     43.750102
_cell_length_c     31.618794
_cell_angle_alpha  90.714835
_cell_angle_beta   90.714432
_cell_angle_gamma 119.93059
loop_
_atom_site_label
_atom_site_type_symbol
_atom_site_fract_x
_atom_site_fract_y
_atom_site_fract_z
_atom_type_partial_charge
Co0 Co 0.03092 0.22351 0.01164 0.0
O1 O 0.0579 0.27074 0.99118 0.0
O2 O 0.00321 0.23174 0.96947 0.0
C3 C 0.07391 0.2091 0.00775 0.0
O4 O -0.00442 0.17205 0.02448 0.0
Co5 Co 0.05364 0.20434 0.09647 0.0
O6 O 0.01726 0.15555 0.07923 0.0
C7 C 0.01846 0.2468 0.09809 0.0
C8 C 0.03064 0.26328 0.96683 0.0
C9 C 0.99432 0.14844 0.04958 0.0
O10 O 0.01164 0.24081 0.05813 0.0
O11 O 0.03767 0.23719 0.11864 0.0
O12 O 0.05554 0.20734 0.9741 0.0
O13 O 0.06865 0.22346 0.04077 0.0
Co14 Co 0.82232 0.8153 0.03361 0.0
O15 O 0.80622 0.76915 0.05527 0.0
O16 O 0.78739 0.80527 0.07701 0.0
C17 C 0.88032 0.8322 0.0353 0.0
O18 O 0.83523 0.86589 0.02005 0.0
Co19 Co 0.86162 0.83573 0.94758 0.0
O20 O 0.87224 0.88372 0.96489 0.0
C21 C 0.7844 0.78745 0.94879 0.0
C22 C 0.78648 0.7752 0.08051 0.0
C23 C 0.85654 0.88993 0.99481 0.0
O24 O 0.78386 0.79498 0.98819 0.0
O25 O 0.81312 0.79827 0.92828 0.0
O26 O 0.86515 0.83431 0.06956 0.0
O27 O 0.85942 0.81702 0.00312 0.0
Co28 Co 0.20219 0.00146 0.01045 0.0
O29 O 0.22228 0.97361 0.99135 0.0
O30 O 0.23763 0.02698 0.96843 0.0
C31 C 0.14517 0.95843 0.00615 0.0
O32 O 0.18594 0.03717 0.02193 0.0
Co33 Co 0.15925 0.98218 0.09389 0.0
O34 O 0.14654 0.01745 0.07456 0.0
C35 C 0.23726 0.01475 0.09734 0.0
C36 C 0.24157 0.99939 0.96657 0.0
C37 C 0.16293 0.03922 0.04538 0.0
O38 O 0.23893 0.02189 0.05775 0.0
O39 O 0.20793 0.99632 0.11635 0.0
O40 O 0.16102 0.97546 0.97246 0.0
O41 O 0.16512 0.96547 0.03949 0.0
Co42 Co 0.64501 0.53319 0.35186 0.0
O43 O 0.61478 0.54952 0.37468 0.0
O44 O 0.67065 0.56862 0.3952 0.0
C45 C 0.60664 0.47473 0.35329 0.0
O46 O 0.68361 0.52167 0.33777 0.0
Co47 Co 0.62695 0.49418 0.2647 0.0
O48 O 0.6686 0.48838 0.27794 0.0
C49 C 0.65445 0.57037 0.26787 0.0
C50 C 0.64159 0.56994 0.39949 0.0
C51 C 0.68918 0.50349 0.30984 0.0
O52 O 0.66188 0.57065 0.30744 0.0
O53 O 0.63699 0.54189 0.24578 0.0
O54 O 0.62364 0.492 0.38748 0.0
O55 O 0.60963 0.49402 0.32113 0.0
Co56 Co 0.4947 0.14241 0.36567 0.0
O57 O 0.47348 0.09515 0.38601 0.0
O58 O 0.45827 0.13449 0.40595 0.0
C59 C 0.55176 0.15593 0.37231 0.0
O60 O 0.51172 0.19396 0.35231 0.0
Co61 Co 0.5391 0.16223 0.28347 0.0
O62 O 0.5519 0.21097 0.30064 0.0
C63 C 0.46106 0.11994 0.27764 0.0
C64 C 0.45363 0.10282 0.40904 0.0
C65 C 0.53511 0.21781 0.32856 0.0
O66 O 0.45901 0.12557 0.3173 0.0
O67 O 0.49051 0.12961 0.25919 0.0
O68 O 0.53516 0.15819 0.40509 0.0
O69 O 0.5323 0.14183 0.33876 0.0
Co70 Co 0.8805 0.37869 0.34339 0.0
O71 O 0.92893 0.40797 0.36287 0.0
O72 O 0.89056 0.35562 0.38823 0.0
C73 C 0.86513 0.42073 0.34204 0.0
O74 O 0.82875 0.3416 0.33425 0.0
Co75 Co 0.85225 0.38913 0.25733 0.0
O76 O 0.80485 0.35413 0.27843 0.0
C77 C 0.89965 0.35907 0.2592 0.0
C78 C 0.92205 0.38334 0.38999 0.0
C79 C 0.80199 0.33584 0.31074 0.0
O80 O 0.89625 0.35569 0.29955 0.0
O81 O 0.88679 0.37464 0.23726 0.0
O82 O 0.86575 0.40635 0.37753 0.0
O83 O 0.87735 0.41204 0.30979 0.0
Co84 Co 0.3618 0.88806 0.67744 0.0
O85 O 0.39012 0.93456 0.65575 0.0
O86 O 0.33406 0.89762 0.63669 0.0
C87 C 0.40258 0.87086 0.67125 0.0
O88 O 0.32495 0.8373 0.692 0.0
Co89 Co 0.38598 0.86788 0.76053 0.0
O90 O 0.34731 0.81965 0.7449 0.0
C91 C 0.35873 0.91736 0.76356 0.0
C92 C 0.36252 0.92829 0.63281 0.0
C93 C 0.32357 0.81328 0.71654 0.0
O94 O 0.34669 0.90845 0.72528 0.0
O95 O 0.3782 0.90678 0.78162 0.0
O96 O 0.38326 0.86914 0.63855 0.0
O97 O 0.39928 0.88635 0.70442 0.0
Co98 Co 0.14475 0.47803 0.69697 0.0
O99 O 0.12438 0.4305 0.71615 0.0
O100 O 0.10851 0.46877 0.73831 0.0
C101 C 0.20174 0.49132 0.70289 0.0
O102 O 0.16155 0.53002 0.68533 0.0
Co103 Co 0.18945 0.49977 0.61478 0.0
O104 O 0.20077 0.5479 0.63239 0.0
C105 C 0.11187 0.45247 0.61014 0.0
C106 C 0.10477 0.43739 0.74059 0.0
C107 C 0.1845 0.55426 0.66146 0.0
O108 O 0.10888 0.46091 0.64847 0.0
O109 O 0.14188 0.46212 0.59315 0.0
O110 O 0.18545 0.49348 0.73604 0.0
O111 O 0.18228 0.47821 0.66923 0.0
Co112 Co 0.52422 0.65878 0.68557 0.0
O113 O 0.54498 0.63145 0.66601 0.0
O114 O 0.55939 0.68479 0.64389 0.0
C115 C 0.46727 0.61556 0.68119 0.0
O116 O 0.50774 0.69427 0.6962 0.0
Co117 Co 0.48067 0.64056 0.76826 0.0
O118 O 0.4677 0.67545 0.748 0.0
C119 C 0.55868 0.67304 0.77285 0.0
C120 C 0.56365 0.65746 0.64114 0.0
C121 C 0.48447 0.69672 0.71854 0.0
O122 O 0.56069 0.67949 0.73303 0.0
O123 O 0.52919 0.6551 0.79172 0.0
O124 O 0.48325 0.6325 0.64749 0.0
O125 O 0.48705 0.62278 0.71475 0.0
H126 H 0.12682 0.05958 0.09776 0.0
H127 H 0.18037 0.08384 0.97808 0.0
H128 H 0.11083 0.10465 0.08655 0.0
H129 H 0.16437 0.1296 0.96709 0.0
H130 H 0.08132 0.16892 0.94614 0.0
H131 H 0.1079 0.13141 0.95397 0.0
H132 H 0.13876 0.16934 0.08294 0.0
H133 H 0.11191 0.20642 0.07534 0.0
C134 C 0.13542 0.07468 0.06911 0.0
C135 C 0.15484 0.06798 0.03876 0.0
C136 C 0.12647 0.10078 0.06289 0.0
C137 C 0.13655 0.12084 0.02609 0.0
C138 C 0.15618 0.11444 0.99572 0.0
C139 C 0.16545 0.08838 0.00212 0.0
C140 C 0.09427 0.16962 0.97594 0.0
C141 C 0.09413 0.19023 0.01032 0.0
C142 C 0.10963 0.14828 0.98034 0.0
C143 C 0.12503 0.14715 0.01922 0.0
C144 C 0.12654 0.16923 0.05282 0.0
C145 C 0.11126 0.19055 0.04841 0.0
H146 H 0.88477 0.94317 0.93842 0.0
H147 H 0.84959 0.92104 0.06736 0.0
H148 H 0.91041 0.00588 0.95294 0.0
H149 H 0.87489 0.98426 0.08177 0.0
H150 H 0.97854 0.09345 0.10172 0.0
H151 H 0.93675 0.03134 0.08883 0.0
H152 H 0.90289 0.05595 0.97135 0.0
H153 H 0.94547 0.11856 0.98386 0.0
C154 C 0.88184 0.95165 0.9697 0.0
C155 C 0.86562 0.92709 0.00193 0.0
C156 C 0.89631 0.9877 0.97792 0.0
C157 C 0.89507 0.00017 0.01864 0.0
C158 C 0.87673 0.97549 0.0502 0.0
C159 C 0.86201 0.93926 0.04188 0.0
C160 C 0.96199 0.08583 0.07328 0.0
C161 C 0.96582 0.11109 0.04351 0.0
C162 C 0.93765 0.0501 0.06614 0.0
C163 C 0.9165 0.03859 0.02901 0.0
C164 C 0.91909 0.06394 9e-05 0.0
C165 C 0.94343 0.09983 0.00732 0.0
H166 H 0.93147 0.87257 0.09459 0.0
H167 H 0.91647 0.82962 0.96728 0.0
H168 H -0.00414 0.90198 0.08647 0.0
H169 H 0.98057 0.85837 0.95948 0.0
H170 H 0.09546 0.94984 0.94621 0.0
H171 H 0.03095 0.91833 0.95362 0.0
H172 H 0.04308 0.88714 0.07911 0.0
H173 H 0.10737 0.91907 0.07202 0.0
C174 C 0.94194 0.86922 0.06507 0.0
C175 C 0.91908 0.84892 0.03157 0.0
C176 C 0.97873 0.88589 0.06045 0.0
C177 C 0.99316 0.88246 0.02229 0.0
C178 C 0.97019 0.86187 0.98901 0.0
C179 C 0.93351 0.84526 0.9936 0.0
C180 C 0.08426 0.93597 0.97516 0.0
C181 C 0.10631 0.93697 0.00859 0.0
C182 C 0.0474 0.91791 0.9794 0.0
C183 C 0.03208 0.90052 0.01709 0.0
C184 C 0.05419 0.90084 0.05003 0.0
C185 C 0.09096 0.9189 0.04582 0.0
H186 H 0.84868 0.45377 0.40399 0.0
H187 H 0.83754 0.43135 0.26961 0.0
H188 H 0.8119 0.48113 0.39716 0.0
H189 H 0.7984 0.45546 0.26299 0.0
H190 H 0.73917 0.51309 0.25261 0.0
H191 H 0.78797 0.50112 0.26154 0.0
H192 H 0.75405 0.46683 0.3891 0.0
H193 H 0.70759 0.48207 0.38082 0.0
C194 C 0.83824 0.45464 0.373 0.0
C195 C 0.84566 0.44013 0.33743 0.0
C196 C 0.81681 0.46999 0.36905 0.0
C197 C 0.80146 0.47021 0.32958 0.0
C198 C 0.80998 0.45654 0.29386 0.0
C199 C 0.83224 0.44221 0.29767 0.0
C200 C 0.74275 0.50351 0.28267 0.0
C201 C 0.71985 0.49839 0.31602 0.0
C202 C 0.77047 0.49627 0.2878 0.0
C203 C 0.77497 0.4824 0.3259 0.0
C204 C 0.75219 0.47805 0.35954 0.0
C205 C 0.72526 0.48647 0.3548 0.0
H206 H 0.5771 0.27319 0.27848 0.0
H207 H 0.51028 0.24645 0.38786 0.0
H208 H 0.59002 0.33382 0.28464 0.0
H209 H 0.5232 0.30758 0.39369 0.0
H210 H 0.59594 0.42947 0.41714 0.0
H211 H 0.57545 0.36654 0.41135 0.0
H212 H 0.5604 0.36925 0.27646 0.0
H213 H 0.58116 0.43238 0.2822 0.0
C214 C 0.56499 0.28013 0.30381 0.0
C215 C 0.5426 0.25478 0.33271 0.0
C216 C 0.57222 0.31494 0.30707 0.0
C217 C 0.55742 0.32546 0.33942 0.0
C218 C 0.53509 0.30026 0.36848 0.0
C219 C 0.52762 0.26523 0.36506 0.0
C220 C 0.58786 0.41656 0.38629 0.0
C221 C 0.59039 0.43594 0.35006 0.0
C222 C 0.57594 0.38045 0.38304 0.0
C223 C 0.56653 0.36296 0.34343 0.0
C224 C 0.56791 0.38211 0.30736 0.0
C225 C 0.5796 0.41821 0.31066 0.0
H226 H 0.59989 0.2052 0.42871 0.0
H227 H 0.59143 0.1526 0.30894 0.0
H228 H 0.66268 0.24661 0.41584 0.0
H229 H 0.65388 0.19379 0.29626 0.0
H230 H 0.74113 0.30613 0.26205 0.0
H231 H 0.68251 0.25875 0.28088 0.0
H232 H 0.72366 0.25244 0.4035 0.0
H233 H 0.78254 0.3 0.38486 0.0
C234 C 0.61165 0.20194 0.40022 0.0
C235 C 0.59075 0.17607 0.36952 0.0
C236 C 0.64751 0.22562 0.39285 0.0
C237 C 0.6628 0.22369 0.3547 0.0
C238 C 0.64249 0.19623 0.32553 0.0
C239 C 0.60682 0.17259 0.33291 0.0
C240 C 0.73778 0.29463 0.29298 0.0
C241 C 0.76651 0.3068 0.32189 0.0
C242 C 0.70428 0.26734 0.30364 0.0
C243 C 0.69873 0.25183 0.34352 0.0
C244 C 0.72731 0.26402 0.37258 0.0
C245 C 0.76097 0.29112 0.36177 0.0
H246 H 0.44454 0.87141 0.73587 0.0
H247 H 0.40313 0.82476 0.6121 0.0
H248 H 0.46878 0.83228 0.74507 0.0
H249 H 0.42747 0.78532 0.62152 0.0
H250 H 0.50005 0.73695 0.64763 0.0
H251 H 0.4851 0.78294 0.63298 0.0
H252 H 0.43614 0.76667 0.75488 0.0
H253 H 0.45089 0.72102 0.7696 0.0
C254 C 0.44098 0.85307 0.71039 0.0
C255 C 0.42151 0.85077 0.67351 0.0
C256 C 0.45479 0.83063 0.71574 0.0
C257 C 0.44953 0.80548 0.68427 0.0
C258 C 0.43195 0.80457 0.64623 0.0
C259 C 0.41797 0.82703 0.64091 0.0
C260 C 0.48631 0.74339 0.67139 0.0
C261 C 0.47666 0.72534 0.70981 0.0
C262 C 0.47763 0.76955 0.66287 0.0
C263 C 0.45968 0.77845 0.6929 0.0
C264 C 0.45043 0.76068 0.7314 0.0
C265 C 0.45868 0.73434 0.73969 0.0
H266 H 0.27552 0.78337 0.64999 0.0
H267 H 0.30565 0.75868 0.77006 0.0
H268 H 0.23313 0.7207 0.63728 0.0
H269 H 0.26405 0.69649 0.75704 0.0
H270 H 0.17692 0.58559 0.73359 0.0
H271 H 0.20255 0.6489 0.74811 0.0
H272 H 0.24115 0.67068 0.62053 0.0
H273 H 0.21528 0.60795 0.60595 0.0
C274 C 0.27276 0.76474 0.67395 0.0
C275 C 0.29436 0.77612 0.71081 0.0
C276 C 0.24858 0.72878 0.66658 0.0
C277 C 0.24531 0.70346 0.69601 0.0
C278 C 0.2655 0.71516 0.73387 0.0
C279 C 0.2897 0.75094 0.74113 0.0
C280 C 0.19016 0.60389 0.70842 0.0
C281 C 0.19443 0.5917 0.6688 0.0
C282 C 0.20507 0.64018 0.71679 0.0
C283 C 0.22423 0.66495 0.6856 0.0
C284 C 0.22638 0.65248 0.64522 0.0
C285 C 0.21177 0.6164 0.63698 0.0
H286 H 0.23942 0.48619 0.63832 0.0
H287 H 0.25149 0.53157 0.76384 0.0
H288 H 0.30364 0.51433 0.63301 0.0
H289 H 0.31615 0.5604 0.7582 0.0
H290 H 0.42872 0.57814 0.74792 0.0
H291 H 0.3643 0.54637 0.75407 0.0
H292 H 0.35352 0.57429 0.62629 0.0
H293 H 0.41807 0.60563 0.61987 0.0
C294 C 0.25585 0.50218 0.66483 0.0
C295 C 0.24054 0.50681 0.70148 0.0
C296 C 0.29263 0.51845 0.66165 0.0
C297 C 0.31488 0.53974 0.69503 0.0
C298 C 0.29958 0.54384 0.73211 0.0
C299 C 0.26265 0.52746 0.73532 0.0
C300 C 0.41257 0.57729 0.72103 0.0
C301 C 0.42833 0.59433 0.68339 0.0
C302 C 0.37573 0.55932 0.7247 0.0
C303 C 0.35393 0.55802 0.69078 0.0
C304 C 0.36969 0.57455 0.65283 0.0
C305 C 0.40659 0.59253 0.64915 0.0
H306 H 0.07602 0.33409 0.96862 0.0
H307 H 0.98859 0.2512 0.89613 0.0
H308 H 0.08407 0.37614 0.91408 0.0
H309 H -0.00311 0.29348 0.84107 0.0
H310 H 0.08366 0.44966 0.8172 0.0
H311 H 0.0567 0.40721 0.87412 0.0
H312 H 0.04839 0.32416 0.79117 0.0
H313 H 0.07547 0.36637 0.73485 0.0
C314 C 0.05814 0.32498 0.94129 0.0
C315 C 0.03195 0.28927 0.93638 0.0
C316 C 0.06254 0.34917 0.91022 0.0
C317 C 0.04116 0.33811 0.87324 0.0
C318 C 0.01383 0.3027 0.8692 0.0
C319 C 0.00906 0.27854 0.9007 0.0
C320 C 0.07514 0.42215 0.8109 0.0
C321 C 0.08193 0.41132 0.77182 0.0
C322 C 0.05992 0.39792 0.84348 0.0
C323 C 0.05065 0.36241 0.83716 0.0
C324 C 0.05497 0.35123 0.79696 0.0
C325 C 0.07069 0.37547 0.76477 0.0
H326 H 0.71756 0.77087 0.97332 0.0
H327 H 0.77451 0.75724 0.87022 0.0
H328 H 0.66275 0.74143 0.93076 0.0
H329 H 0.71974 0.72727 0.82831 0.0
H330 H 0.62674 0.71869 0.74866 0.0
H331 H 0.68073 0.74402 0.79251 0.0
H332 H 0.61962 0.68473 0.89899 0.0
H333 H 0.56557 0.66 0.85566 0.0
C334 C 0.71832 0.76121 0.94186 0.0
C335 C 0.75047 0.76677 0.92501 0.0
C336 C 0.68692 0.74426 0.91753 0.0
C337 C 0.68708 0.73239 0.87603 0.0
C338 C 0.71896 0.73681 0.85983 0.0
C339 C 0.7503 0.75384 0.884 0.0
C340 C 0.62481 0.71096 0.78137 0.0
C341 C 0.59179 0.68747 0.79866 0.0
C342 C 0.65577 0.72533 0.80644 0.0
C343 C 0.65436 0.71638 0.84921 0.0
C344 C 0.62145 0.69252 0.86631 0.0
C345 C 0.59051 0.67824 0.84134 0.0
H346 H 0.30702 0.93456 0.74586 0.0
H347 H 0.38698 0.94965 0.8398 0.0
H348 H 0.28454 0.9628 0.79408 0.0
H349 H 0.36466 0.97782 0.88732 0.0
H350 H 0.27194 0.95894 0.97546 0.0
H351 H 0.30581 0.94712 0.92374 0.0
H352 H 0.29873 0.01947 0.83786 0.0
H353 H 0.26471 0.03171 0.89042 0.0
C354 C 0.32022 0.94446 0.77634 0.0
C355 C 0.34823 0.93905 0.78935 0.0
C356 C 0.3075 0.96082 0.8038 0.0
C357 C 0.3226 0.97201 0.8446 0.0
C358 C 0.35218 0.96891 0.85629 0.0
C359 C 0.36486 0.95265 0.82902 0.0
C360 C 0.27803 0.97276 0.94582 0.0
C361 C 0.26569 0.99615 0.93684 0.0
C362 C 0.29761 0.96614 0.91629 0.0
C363 C 0.30492 0.98243 0.87683 0.0
C364 C 0.29334 0.00655 0.86806 0.0
C365 C 0.27416 0.01369 0.89813 0.0
H366 H 0.45329 0.0971 0.19527 0.0
H367 H 0.39415 0.10398 0.30056 0.0
H368 H 0.39947 0.07071 0.15129 0.0
H369 H 0.34054 0.07836 0.25612 0.0
H370 H 0.24474 0.99902 0.17865 0.0
H371 H 0.29877 0.02306 0.22167 0.0
H372 H 0.35925 0.08709 0.1176 0.0
H373 H 0.3051 0.06234 0.07384 0.0
C374 C 0.42885 0.09306 0.20906 0.0
C375 C 0.42804 0.10268 0.25149 0.0
C376 C 0.39806 0.07813 0.18371 0.0
C377 C 0.36582 0.07258 0.20017 0.0
C378 C 0.36491 0.0819 0.24267 0.0
C379 C 0.39567 0.0967 0.26811 0.0
C380 C 0.26952 0.01819 0.16477 0.0
C381 C 0.27054 0.0289 0.12279 0.0
C382 C 0.30048 0.0321 0.1896 0.0
C383 C 0.3332 0.05715 0.17316 0.0
C384 C 0.33443 0.06756 0.13102 0.0
C385 C 0.30339 0.0535 0.10602 0.0
H386 H 0.96774 0.26189 0.06998 0.0
H387 H 0.03262 0.2719 0.17997 0.0
H388 H 0.93972 0.28904 0.10969 0.0
H389 H 0.0053 0.30006 0.21927 0.0
H390 H 0.92068 0.3136 0.28937 0.0
H391 H 0.9499 0.28696 0.25057 0.0
H392 H 0.95196 0.34446 0.13946 0.0
H393 H 0.92192 0.37015 0.17762 0.0
C394 C 0.97631 0.27018 0.10249 0.0
C395 C 0.00242 0.26464 0.12175 0.0
C396 C 0.96033 0.28592 0.12524 0.0
C397 C 0.97027 0.29677 0.1677 0.0
C398 C -0.00338 0.29153 0.18684 0.0
C399 C 0.01245 0.27557 0.16418 0.0
C400 C 0.92745 0.3206 0.2567 0.0
C401 C 0.91872 0.34384 0.23657 0.0
C402 C 0.94436 0.30547 0.2345 0.0
C403 C 0.95312 0.31343 0.1918 0.0
C404 C 0.94497 0.33717 0.17202 0.0
C405 C 0.92788 0.35208 0.19405 0.0
H406 H 0.63105 0.58438 0.1937 0.0
H407 H 0.71213 0.63327 0.29208 0.0
H408 H 0.66093 0.63851 0.15293 0.0
H409 H 0.7422 0.68685 0.25069 0.0
H410 H 0.8038 0.73145 0.11997 0.0
H411 H 0.76902 0.6859 0.17057 0.0
H412 H 0.68643 0.71329 0.16334 0.0
H413 H 0.72212 0.76025 0.11329 0.0
C414 C 0.65488 0.60681 0.20691 0.0
C415 C 0.6694 0.60444 0.24595 0.0
C416 C 0.67176 0.6378 0.18373 0.0
C417 C 0.70373 0.66665 0.19883 0.0
C418 C 0.71744 0.6649 0.23859 0.0
C419 C 0.70022 0.63423 0.26218 0.0
C420 C 0.77839 0.72805 0.12946 0.0
C421 C 0.76554 0.74924 0.11272 0.0
C422 C 0.75864 0.70215 0.15854 0.0
C423 C 0.72524 0.69632 0.17079 0.0
C424 C 0.71225 0.71753 0.15434 0.0
C425 C 0.73259 0.74429 0.12592 0.0
H426 H 0.1074 0.42003 0.53464 0.0
H427 H 0.04412 0.44059 0.62285 0.0
H428 H 0.05894 0.39751 0.48275 0.0
H429 H -0.00483 0.41739 0.57031 0.0
H430 H 0.90919 0.34915 0.46479 0.0
H431 H 0.95235 0.35939 0.52178 0.0
H432 H 0.03652 0.43695 0.4461 0.0
H433 H 0.99355 0.42732 0.38963 0.0
C434 C 0.08297 0.41932 0.54325 0.0
C435 C 0.07992 0.43297 0.58253 0.0
C436 C 0.05526 0.40633 0.51349 0.0
C437 C 0.02378 0.40635 0.52245 0.0
C438 C 0.01937 0.41722 0.56283 0.0
C439 C 0.04735 0.43053 0.59276 0.0
C440 C 0.93698 0.36816 0.46029 0.0
C441 C 0.94817 0.38752 0.42291 0.0
C442 C 0.96149 0.37408 0.4929 0.0
C443 C -0.00244 0.39883 0.48809 0.0
C444 C 0.0088 0.4175 0.45031 0.0
C445 C 0.98428 0.41211 0.41813 0.0
H446 H 0.68335 0.59829 0.47044 0.0
H447 H 0.59209 0.59065 0.40399 0.0
H448 H 0.6728 0.62783 0.53018 0.0
H449 H 0.58202 0.62065 0.4633 0.0
H450 H 0.59084 0.61331 0.63995 0.0
H451 H 0.61795 0.60037 0.58024 0.0
H452 H 0.61179 0.68011 0.5076 0.0
H453 H 0.58518 0.69359 0.56769 0.0
C454 C 0.66153 0.60359 0.46824 0.0
C455 C 0.6383 0.59191 0.43283 0.0
C456 C 0.65551 0.62041 0.50239 0.0
C457 C 0.62665 0.62646 0.50121 0.0
C458 C 0.60468 0.61659 0.46478 0.0
C459 C 0.61028 0.59921 0.43102 0.0
C460 C 0.59607 0.62866 0.6116 0.0
C461 C 0.58568 0.65423 0.60826 0.0
C462 C 0.61174 0.62139 0.57756 0.0
C463 C 0.61672 0.63915 0.53936 0.0
C464 C 0.60807 0.66602 0.53674 0.0
C465 C 0.593 0.67377 0.57112 0.0
H466 H 0.32351 0.9169 0.55954 0.0
H467 H 0.40715 0.99895 0.63716 0.0
H468 H 0.3355 0.95967 0.50366 0.0
H469 H 0.41876 0.04146 0.58196 0.0
H470 H 0.42743 0.11561 0.48136 0.0
H471 H 0.39491 0.07322 0.53666 0.0
H472 H 0.3913 0.9895 0.45912 0.0
H473 H 0.42392 0.03166 0.40442 0.0
C474 C 0.34376 0.94421 0.56507 0.0
C475 C 0.36475 0.95458 0.60235 0.0
C476 C 0.35066 0.96861 0.53314 0.0
C477 C 0.37815 0.00385 0.53844 0.0
C478 C 0.39721 0.01462 0.57708 0.0
C479 C 0.39077 0.99018 0.60855 0.0
C480 C 0.41891 0.08801 0.47583 0.0
C481 C 0.42861 0.07695 0.43895 0.0
C482 C 0.40039 0.0638 0.50744 0.0
C483 C 0.39073 0.02811 0.50224 0.0
C484 C 0.39809 0.01674 0.46391 0.0
C485 C 0.41707 0.04095 0.43274 0.0
loop_
_geom_bond_atom_site_label_1
_geom_bond_atom_site_label_2
_geom_bond_distance
_geom_bond_site_symmetry_2
_ccdc_geom_bond_type
Co0 O1 2.216 1_554 S
Co0 O2 2.091 1_554 S
Co0 O4 2.004 1_454 S
Co0 O10 2.021 1_455 S
Co0 O12 2.137 1_554 S
Co0 O13 2.244 . S
O1 Co0 2.216 1_556 S
O1 C8 1.247 . S
O2 Co0 2.091 1_556 S
O2 C8 1.261 . S
C3 O12 1.247 1_554 S
C3 O13 1.272 . S
O4 Co0 2.004 1_656 S
O4 C9 1.259 1_556 S
Co5 O6 2.061 1_455 S
Co5 O11 2.052 . S
Co5 O13 2.135 . S
O6 Co5 2.061 1_655 S
O6 C9 1.235 . S
C7 O10 1.238 . S
C7 O11 1.241 1_655 S
C8 O1 1.247 . S
C8 O2 1.261 . S
C9 O4 1.259 1_554 S
C9 O6 1.235 . S
O10 Co0 2.021 1_655 S
O10 C7 1.238 . S
O11 Co5 2.052 . S
O11 C7 1.241 1_455 S
O12 Co0 2.137 1_556 S
O12 C3 1.247 1_556 S
O13 Co0 2.244 . S
O13 C3 1.272 . S
O13 Co5 2.135 . S
Co14 O15 2.216 . S
Co14 O16 2.091 . S
Co14 O18 2.004 . S
Co14 O24 2.021 . S
Co14 O26 2.137 . S
Co14 O27 2.244 1_554 S
O15 Co14 2.216 . S
O15 C22 1.247 . S
O16 Co14 2.091 . S
O16 C22 1.261 . S
C17 O26 1.247 . S
C17 O27 1.272 1_554 S
O18 Co14 2.004 . S
O18 C23 1.259 . S
Co19 O20 2.061 . S
Co19 O25 2.052 . S
Co19 O27 2.135 . S
O20 Co19 2.061 . S
O20 C23 1.235 1_556 S
C21 O24 1.238 1_556 S
C21 O25 1.241 . S
C22 O15 1.247 . S
C22 O16 1.261 . S
C23 O18 1.259 . S
C23 O20 1.235 1_554 S
O24 Co14 2.021 . S
O24 C21 1.238 1_554 S
O25 Co19 2.052 . S
O25 C21 1.241 . S
O26 Co14 2.137 . S
O26 C17 1.247 . S
O27 Co14 2.244 1_556 S
O27 C17 1.272 1_556 S
O27 Co19 2.135 . S
Co28 O29 2.216 1_544 S
Co28 O30 2.091 1_554 S
Co28 O32 2.004 1_554 S
Co28 O38 2.021 . S
Co28 O40 2.137 1_544 S
Co28 O41 2.244 1_545 S
O29 Co28 2.216 1_566 S
O29 C36 1.247 . S
O30 Co28 2.091 1_556 S
O30 C36 1.261 1_545 S
C31 O40 1.247 1_554 S
C31 O41 1.272 . S
O32 Co28 2.004 1_556 S
O32 C37 1.259 1_556 S
Co33 O34 2.061 . S
Co33 O39 2.052 . S
Co33 O41 2.135 1_545 S
O34 Co33 2.061 . S
O34 C37 1.235 . S
C35 O38 1.238 . S
C35 O39 1.241 . S
C36 O29 1.247 . S
C36 O30 1.261 1_565 S
C37 O32 1.259 1_554 S
C37 O34 1.235 . S
O38 Co28 2.021 . S
O38 C35 1.238 . S
O39 Co33 2.052 . S
O39 C35 1.241 . S
O40 Co28 2.137 1_566 S
O40 C31 1.247 1_556 S
O41 Co28 2.244 1_565 S
O41 C31 1.272 . S
O41 Co33 2.135 1_565 S
Co42 O43 2.216 . S
Co42 O44 2.091 . S
Co42 O46 2.004 . S
Co42 O52 2.021 . S
Co42 O54 2.137 . S
Co42 O55 2.244 . S
O43 Co42 2.216 . S
O43 C50 1.247 . S
O44 Co42 2.091 . S
O44 C50 1.261 . S
C45 O54 1.247 . S
C45 O55 1.272 . S
O46 Co42 2.004 . S
O46 C51 1.259 . S
Co47 O48 2.061 . S
Co47 O53 2.052 . S
Co47 O55 2.135 . S
O48 Co47 2.061 . S
O48 C51 1.235 . S
C49 O52 1.238 . S
C49 O53 1.241 . S
C50 O43 1.247 . S
C50 O44 1.261 . S
C51 O46 1.259 . S
C51 O48 1.235 . S
O52 Co42 2.021 . S
O52 C49 1.238 . S
O53 Co47 2.052 . S
O53 C49 1.241 . S
O54 Co42 2.137 . S
O54 C45 1.247 . S
O55 Co42 2.244 . S
O55 C45 1.272 . S
O55 Co47 2.135 . S
Co56 O57 2.216 . S
Co56 O58 2.091 . S
Co56 O60 2.004 . S
Co56 O66 2.021 . S
Co56 O68 2.137 . S
Co56 O69 2.244 . S
O57 Co56 2.216 . S
O57 C64 1.247 . S
O58 Co56 2.091 . S
O58 C64 1.261 . S
C59 O68 1.247 . S
C59 O69 1.272 . S
O60 Co56 2.004 . S
O60 C65 1.259 . S
Co61 O62 2.061 . S
Co61 O67 2.052 . S
Co61 O69 2.135 . S
O62 Co61 2.061 . S
O62 C65 1.235 . S
C63 O66 1.238 . S
C63 O67 1.241 . S
C64 O57 1.247 . S
C64 O58 1.261 . S
C65 O60 1.259 . S
C65 O62 1.235 . S
O66 Co56 2.021 . S
O66 C63 1.238 . S
O67 Co61 2.052 . S
O67 C63 1.241 . S
O68 Co56 2.137 . S
O68 C59 1.247 . S
O69 Co56 2.244 . S
O69 C59 1.272 . S
O69 Co61 2.135 . S
Co70 O71 2.216 . S
Co70 O72 2.091 . S
Co70 O74 2.004 . S
Co70 O80 2.021 . S
Co70 O82 2.137 . S
Co70 O83 2.244 . S
O71 Co70 2.216 . S
O71 C78 1.247 . S
O72 Co70 2.091 . S
O72 C78 1.261 . S
C73 O82 1.247 . S
C73 O83 1.272 . S
O74 Co70 2.004 . S
O74 C79 1.259 . S
Co75 O76 2.061 . S
Co75 O81 2.052 . S
Co75 O83 2.135 . S
O76 Co75 2.061 . S
O76 C79 1.235 . S
C77 O80 1.238 . S
C77 O81 1.241 . S
C78 O71 1.247 . S
C78 O72 1.261 . S
C79 O74 1.259 . S
C79 O76 1.235 . S
O80 Co70 2.021 . S
O80 C77 1.238 . S
O81 Co75 2.052 . S
O81 C77 1.241 . S
O82 Co70 2.137 . S
O82 C73 1.247 . S
O83 Co70 2.244 . S
O83 C73 1.272 . S
O83 Co75 2.135 . S
Co84 O85 2.216 . S
Co84 O86 2.091 . S
Co84 O88 2.004 . S
Co84 O94 2.021 . S
Co84 O96 2.137 . S
Co84 O97 2.244 . S
O85 Co84 2.216 . S
O85 C92 1.247 . S
O86 Co84 2.091 . S
O86 C92 1.261 . S
C87 O96 1.247 . S
C87 O97 1.272 . S
O88 Co84 2.004 . S
O88 C93 1.259 . S
Co89 O90 2.061 . S
Co89 O95 2.052 . S
Co89 O97 2.135 . S
O90 Co89 2.061 . S
O90 C93 1.235 . S
C91 O94 1.238 . S
C91 O95 1.241 . S
C92 O85 1.247 . S
C92 O86 1.261 . S
C93 O88 1.259 . S
C93 O90 1.235 . S
O94 Co84 2.021 . S
O94 C91 1.238 . S
O95 Co89 2.052 . S
O95 C91 1.241 . S
O96 Co84 2.137 . S
O96 C87 1.247 . S
O97 Co84 2.244 . S
O97 C87 1.272 . S
O97 Co89 2.135 . S
Co98 O99 2.216 . S
Co98 O100 2.091 . S
Co98 O102 2.004 . S
Co98 O108 2.021 . S
Co98 O110 2.137 . S
Co98 O111 2.244 . S
O99 Co98 2.216 . S
O99 C106 1.247 . S
O100 Co98 2.091 . S
O100 C106 1.261 . S
C101 O110 1.247 . S
C101 O111 1.272 . S
O102 Co98 2.004 . S
O102 C107 1.259 . S
Co103 O104 2.061 . S
Co103 O109 2.052 . S
Co103 O111 2.135 . S
O104 Co103 2.061 . S
O104 C107 1.235 . S
C105 O108 1.238 . S
C105 O109 1.241 . S
C106 O99 1.247 . S
C106 O100 1.261 . S
C107 O102 1.259 . S
C107 O104 1.235 . S
O108 Co98 2.021 . S
O108 C105 1.238 . S
O109 Co103 2.052 . S
O109 C105 1.241 . S
O110 Co98 2.137 . S
O110 C101 1.247 . S
O111 Co98 2.244 . S
O111 C101 1.272 . S
O111 Co103 2.135 . S
Co112 O113 2.216 . S
Co112 O114 2.091 . S
Co112 O116 2.004 . S
Co112 O122 2.021 . S
Co112 O124 2.137 . S
Co112 O125 2.244 . S
O113 Co112 2.216 . S
O113 C120 1.247 . S
O114 Co112 2.091 . S
O114 C120 1.261 . S
C115 O124 1.247 . S
C115 O125 1.272 . S
O116 Co112 2.004 . S
O116 C121 1.259 . S
Co117 O118 2.061 . S
Co117 O123 2.052 . S
Co117 O125 2.135 . S
O118 Co117 2.061 . S
O118 C121 1.235 . S
C119 O122 1.238 . S
C119 O123 1.241 . S
C120 O113 1.247 . S
C120 O114 1.261 . S
C121 O116 1.259 . S
C121 O118 1.235 . S
O122 Co112 2.021 . S
O122 C119 1.238 . S
O123 Co117 2.052 . S
O123 C119 1.241 . S
O124 Co112 2.137 . S
O124 C115 1.247 . S
O125 Co112 2.244 . S
O125 C115 1.272 . S
O125 Co117 2.135 . S
H126 C134 0.950 . S
H127 C139 0.950 1_556 S
H128 C136 0.950 . S
H129 C138 0.950 1_556 S
H130 C140 0.950 . S
H131 C142 0.949 1_556 S
H132 C144 0.950 . S
H133 C145 0.950 . S
C134 H126 0.950 . S
C134 C135 1.386 . S
C134 C136 1.391 . S
C135 C134 1.386 . S
C135 C139 1.393 . S
C136 H128 0.950 . S
C136 C134 1.391 . S
C136 C137 1.400 . S
C137 C136 1.400 . S
C137 C138 1.398 . S
C137 C143 1.491 . S
C138 H129 0.950 1_554 S
C138 C137 1.398 . S
C138 C139 1.391 . S
C139 H127 0.950 1_554 S
C139 C135 1.393 . S
C139 C138 1.391 . S
C140 H130 0.950 . S
C140 C141 1.386 . S
C140 C142 1.391 . S
C141 C140 1.386 . S
C141 C145 1.393 . S
C142 H131 0.949 1_554 S
C142 C140 1.391 . S
C142 C143 1.400 . S
C143 C137 1.491 . S
C143 C142 1.400 . S
C143 C144 1.398 . S
C144 H132 0.950 . S
C144 C143 1.398 . S
C144 C145 1.391 . S
C145 H133 0.950 . S
C145 C141 1.393 . S
C145 C144 1.391 . S
H146 C154 0.950 1_556 S
H147 C159 0.950 . S
H148 C156 0.950 1_556 S
H149 C158 0.950 . S
H150 C160 0.950 . S
H151 C162 0.950 . S
H152 C164 0.950 . S
H153 C165 0.950 . S
C154 H146 0.950 1_554 S
C154 C155 1.386 . S
C154 C156 1.391 . S
C155 C154 1.386 . S
C155 C159 1.393 . S
C156 H148 0.950 1_554 S
C156 C154 1.391 . S
C156 C157 1.400 . S
C157 C156 1.400 . S
C157 C158 1.398 . S
C157 C163 1.491 1_565 S
C158 H149 0.950 . S
C158 C157 1.398 . S
C158 C159 1.391 . S
C159 H147 0.950 . S
C159 C155 1.393 . S
C159 C158 1.391 . S
C160 H150 0.950 . S
C160 C161 1.386 . S
C160 C162 1.391 . S
C161 C160 1.386 . S
C161 C165 1.393 1_554 S
C162 H151 0.950 . S
C162 C160 1.391 . S
C162 C163 1.400 . S
C163 C157 1.491 1_545 S
C163 C162 1.400 . S
C163 C164 1.398 1_554 S
C164 H152 0.950 . S
C164 C163 1.398 1_556 S
C164 C165 1.391 . S
C165 H153 0.950 . S
C165 C161 1.393 1_556 S
C165 C164 1.391 . S
H166 C174 0.950 . S
H167 C179 0.950 . S
H168 C176 0.950 . S
H169 C178 0.950 . S
H170 C180 0.950 . S
H171 C182 0.950 . S
H172 C184 0.950 . S
H173 C185 0.950 . S
C174 H166 0.950 . S
C174 C175 1.386 . S
C174 C176 1.391 . S
C175 C174 1.386 . S
C175 C179 1.393 . S
C176 H168 0.950 . S
C176 C174 1.391 . S
C176 C177 1.400 . S
C177 C176 1.400 . S
C177 C178 1.398 . S
C177 C183 1.491 1_655 S
C178 H169 0.950 . S
C178 C177 1.398 . S
C178 C179 1.391 . S
C179 H167 0.950 . S
C179 C175 1.393 . S
C179 C178 1.391 . S
C180 H170 0.950 . S
C180 C181 1.386 . S
C180 C182 1.391 . S
C181 C180 1.386 . S
C181 C185 1.393 . S
C182 H171 0.950 . S
C182 C180 1.391 . S
C182 C183 1.400 . S
C183 C177 1.491 1_455 S
C183 C182 1.400 . S
C183 C184 1.398 . S
C184 H172 0.950 . S
C184 C183 1.398 . S
C184 C185 1.391 . S
C185 H173 0.950 . S
C185 C181 1.393 . S
C185 C184 1.391 . S
H186 C194 0.950 . S
H187 C199 0.950 . S
H188 C196 0.950 . S
H189 C198 0.950 . S
H190 C200 0.950 . S
H191 C202 0.950 . S
H192 C204 0.950 . S
H193 C205 0.950 . S
C194 H186 0.950 . S
C194 C195 1.386 . S
C194 C196 1.391 . S
C195 C194 1.386 . S
C195 C199 1.393 . S
C196 H188 0.950 . S
C196 C194 1.391 . S
C196 C197 1.400 . S
C197 C196 1.400 . S
C197 C198 1.398 . S
C197 C203 1.491 . S
C198 H189 0.950 . S
C198 C197 1.398 . S
C198 C199 1.391 . S
C199 H187 0.950 . S
C199 C195 1.393 . S
C199 C198 1.391 . S
C200 H190 0.950 . S
C200 C201 1.386 . S
C200 C202 1.391 . S
C201 C200 1.386 . S
C201 C205 1.393 . S
C202 H191 0.950 . S
C202 C200 1.391 . S
C202 C203 1.400 . S
C203 C197 1.491 . S
C203 C202 1.400 . S
C203 C204 1.398 . S
C204 H192 0.950 . S
C204 C203 1.398 . S
C204 C205 1.391 . S
C205 H193 0.950 . S
C205 C201 1.393 . S
C205 C204 1.391 . S
H206 C214 0.950 . S
H207 C219 0.950 . S
H208 C216 0.950 . S
H209 C218 0.950 . S
H210 C220 0.950 . S
H211 C222 0.950 . S
H212 C224 0.950 . S
H213 C225 0.950 . S
C214 H206 0.950 . S
C214 C215 1.386 . S
C214 C216 1.391 . S
C215 C214 1.386 . S
C215 C219 1.393 . S
C216 H208 0.950 . S
C216 C214 1.391 . S
C216 C217 1.400 . S
C217 C216 1.400 . S
C217 C218 1.398 . S
C217 C223 1.491 . S
C218 H209 0.950 . S
C218 C217 1.398 . S
C218 C219 1.391 . S
C219 H207 0.950 . S
C219 C215 1.393 . S
C219 C218 1.391 . S
C220 H210 0.950 . S
C220 C221 1.386 . S
C220 C222 1.391 . S
C221 C220 1.386 . S
C221 C225 1.393 . S
C222 H211 0.950 . S
C222 C220 1.391 . S
C222 C223 1.400 . S
C223 C217 1.491 . S
C223 C222 1.400 . S
C223 C224 1.398 . S
C224 H212 0.950 . S
C224 C223 1.398 . S
C224 C225 1.391 . S
C225 H213 0.950 . S
C225 C221 1.393 . S
C225 C224 1.391 . S
H226 C234 0.950 . S
H227 C239 0.950 . S
H228 C236 0.950 . S
H229 C238 0.950 . S
H230 C240 0.950 . S
H231 C242 0.950 . S
H232 C244 0.950 . S
H233 C245 0.950 . S
C234 H226 0.950 . S
C234 C235 1.386 . S
C234 C236 1.391 . S
C235 C234 1.386 . S
C235 C239 1.393 . S
C236 H228 0.950 . S
C236 C234 1.391 . S
C236 C237 1.400 . S
C237 C236 1.400 . S
C237 C238 1.398 . S
C237 C243 1.491 . S
C238 H229 0.950 . S
C238 C237 1.398 . S
C238 C239 1.391 . S
C239 H227 0.950 . S
C239 C235 1.393 . S
C239 C238 1.391 . S
C240 H230 0.950 . S
C240 C241 1.386 . S
C240 C242 1.391 . S
C241 C240 1.386 . S
C241 C245 1.393 . S
C242 H231 0.950 . S
C242 C240 1.391 . S
C242 C243 1.400 . S
C243 C237 1.491 . S
C243 C242 1.400 . S
C243 C244 1.398 . S
C244 H232 0.950 . S
C244 C243 1.398 . S
C244 C245 1.391 . S
C245 H233 0.950 . S
C245 C241 1.393 . S
C245 C244 1.391 . S
H246 C254 0.950 . S
H247 C259 0.950 . S
H248 C256 0.950 . S
H249 C258 0.950 . S
H250 C260 0.950 . S
H251 C262 0.950 . S
H252 C264 0.950 . S
H253 C265 0.950 . S
C254 H246 0.950 . S
C254 C255 1.386 . S
C254 C256 1.391 . S
C255 C254 1.386 . S
C255 C259 1.393 . S
C256 H248 0.950 . S
C256 C254 1.391 . S
C256 C257 1.400 . S
C257 C256 1.400 . S
C257 C258 1.398 . S
C257 C263 1.491 . S
C258 H249 0.950 . S
C258 C257 1.398 . S
C258 C259 1.391 . S
C259 H247 0.950 . S
C259 C255 1.393 . S
C259 C258 1.391 . S
C260 H250 0.950 . S
C260 C261 1.386 . S
C260 C262 1.391 . S
C261 C260 1.386 . S
C261 C265 1.393 . S
C262 H251 0.950 . S
C262 C260 1.391 . S
C262 C263 1.400 . S
C263 C257 1.491 . S
C263 C262 1.400 . S
C263 C264 1.398 . S
C264 H252 0.950 . S
C264 C263 1.398 . S
C264 C265 1.391 . S
C265 H253 0.950 . S
C265 C261 1.393 . S
C265 C264 1.391 . S
H266 C274 0.950 . S
H267 C279 0.950 . S
H268 C276 0.950 . S
H269 C278 0.950 . S
H270 C280 0.950 . S
H271 C282 0.950 . S
H272 C284 0.950 . S
H273 C285 0.950 . S
C274 H266 0.950 . S
C274 C275 1.386 . S
C274 C276 1.391 . S
C275 C274 1.386 . S
C275 C279 1.393 . S
C276 H268 0.950 . S
C276 C274 1.391 . S
C276 C277 1.400 . S
C277 C276 1.400 . S
C277 C278 1.398 . S
C277 C283 1.491 . S
C278 H269 0.950 . S
C278 C277 1.398 . S
C278 C279 1.391 . S
C279 H267 0.950 . S
C279 C275 1.393 . S
C279 C278 1.391 . S
C280 H270 0.950 . S
C280 C281 1.386 . S
C280 C282 1.391 . S
C281 C280 1.386 . S
C281 C285 1.393 . S
C282 H271 0.950 . S
C282 C280 1.391 . S
C282 C283 1.400 . S
C283 C277 1.491 . S
C283 C282 1.400 . S
C283 C284 1.398 . S
C284 H272 0.950 . S
C284 C283 1.398 . S
C284 C285 1.391 . S
C285 H273 0.950 . S
C285 C281 1.393 . S
C285 C284 1.391 . S
H286 C294 0.950 . S
H287 C299 0.950 . S
H288 C296 0.950 . S
H289 C298 0.950 . S
H290 C300 0.950 . S
H291 C302 0.950 . S
H292 C304 0.950 . S
H293 C305 0.950 . S
C294 H286 0.950 . S
C294 C295 1.386 . S
C294 C296 1.391 . S
C295 C294 1.386 . S
C295 C299 1.393 . S
C296 H288 0.950 . S
C296 C294 1.391 . S
C296 C297 1.400 . S
C297 C296 1.400 . S
C297 C298 1.398 . S
C297 C303 1.491 . S
C298 H289 0.950 . S
C298 C297 1.398 . S
C298 C299 1.391 . S
C299 H287 0.950 . S
C299 C295 1.393 . S
C299 C298 1.391 . S
C300 H290 0.950 . S
C300 C301 1.386 . S
C300 C302 1.391 . S
C301 C300 1.386 . S
C301 C305 1.393 . S
C302 H291 0.950 . S
C302 C300 1.391 . S
C302 C303 1.400 . S
C303 C297 1.491 . S
C303 C302 1.400 . S
C303 C304 1.398 . S
C304 H292 0.950 . S
C304 C303 1.398 . S
C304 C305 1.391 . S
C305 H293 0.950 . S
C305 C301 1.393 . S
C305 C304 1.391 . S
H306 C314 0.950 . S
H307 C319 0.950 . S
H308 C316 0.950 . S
H309 C318 0.950 . S
H310 C320 0.950 . S
H311 C322 0.950 . S
H312 C324 0.950 . S
H313 C325 0.950 . S
C314 H306 0.950 . S
C314 C315 1.386 . S
C314 C316 1.391 . S
C315 C314 1.386 . S
C315 C319 1.393 . S
C316 H308 0.950 . S
C316 C314 1.391 . S
C316 C317 1.400 . S
C317 C316 1.400 . S
C317 C318 1.398 . S
C317 C323 1.491 . S
C318 H309 0.950 . S
C318 C317 1.398 . S
C318 C319 1.391 . S
C319 H307 0.950 . S
C319 C315 1.393 . S
C319 C318 1.391 . S
C320 H310 0.950 . S
C320 C321 1.386 . S
C320 C322 1.391 . S
C321 C320 1.386 . S
C321 C325 1.393 . S
C322 H311 0.950 . S
C322 C320 1.391 . S
C322 C323 1.400 . S
C323 C317 1.491 . S
C323 C322 1.400 . S
C323 C324 1.398 . S
C324 H312 0.950 . S
C324 C323 1.398 . S
C324 C325 1.391 . S
C325 H313 0.950 . S
C325 C321 1.393 . S
C325 C324 1.391 . S
H326 C334 0.950 . S
H327 C339 0.950 . S
H328 C336 0.950 . S
H329 C338 0.950 . S
H330 C340 0.950 . S
H331 C342 0.950 . S
H332 C344 0.950 . S
H333 C345 0.950 . S
C334 H326 0.950 . S
C334 C335 1.386 . S
C334 C336 1.391 . S
C335 C334 1.386 . S
C335 C339 1.393 . S
C336 H328 0.950 . S
C336 C334 1.391 . S
C336 C337 1.400 . S
C337 C336 1.400 . S
C337 C338 1.398 . S
C337 C343 1.491 . S
C338 H329 0.950 . S
C338 C337 1.398 . S
C338 C339 1.391 . S
C339 H327 0.950 . S
C339 C335 1.393 . S
C339 C338 1.391 . S
C340 H330 0.950 . S
C340 C341 1.386 . S
C340 C342 1.391 . S
C341 C340 1.386 . S
C341 C345 1.393 . S
C342 H331 0.950 . S
C342 C340 1.391 . S
C342 C343 1.400 . S
C343 C337 1.491 . S
C343 C342 1.400 . S
C343 C344 1.398 . S
C344 H332 0.950 . S
C344 C343 1.398 . S
C344 C345 1.391 . S
C345 H333 0.950 . S
C345 C341 1.393 . S
C345 C344 1.391 . S
H346 C354 0.950 . S
H347 C359 0.950 . S
H348 C356 0.950 . S
H349 C358 0.950 . S
H350 C360 0.950 . S
H351 C362 0.950 . S
H352 C364 0.950 . S
H353 C365 0.950 . S
C354 H346 0.950 . S
C354 C355 1.386 . S
C354 C356 1.391 . S
C355 C354 1.386 . S
C355 C359 1.393 . S
C356 H348 0.950 . S
C356 C354 1.391 . S
C356 C357 1.400 . S
C357 C356 1.400 . S
C357 C358 1.398 . S
C357 C363 1.491 . S
C358 H349 0.950 . S
C358 C357 1.398 . S
C358 C359 1.391 . S
C359 H347 0.950 . S
C359 C355 1.393 . S
C359 C358 1.391 . S
C360 H350 0.950 . S
C360 C361 1.386 . S
C360 C362 1.391 . S
C361 C360 1.386 . S
C361 C365 1.393 . S
C362 H351 0.950 . S
C362 C360 1.391 . S
C362 C363 1.400 . S
C363 C357 1.491 . S
C363 C362 1.400 . S
C363 C364 1.398 . S
C364 H352 0.950 . S
C364 C363 1.398 . S
C364 C365 1.391 . S
C365 H353 0.950 . S
C365 C361 1.393 . S
C365 C364 1.391 . S
H366 C374 0.950 . S
H367 C379 0.950 . S
H368 C376 0.950 . S
H369 C378 0.950 . S
H370 C380 0.950 . S
H371 C382 0.950 . S
H372 C384 0.950 . S
H373 C385 0.950 . S
C374 H366 0.950 . S
C374 C375 1.386 . S
C374 C376 1.391 . S
C375 C374 1.386 . S
C375 C379 1.393 . S
C376 H368 0.950 . S
C376 C374 1.391 . S
C376 C377 1.400 . S
C377 C376 1.400 . S
C377 C378 1.398 . S
C377 C383 1.491 . S
C378 H369 0.950 . S
C378 C377 1.398 . S
C378 C379 1.391 . S
C379 H367 0.950 . S
C379 C375 1.393 . S
C379 C378 1.391 . S
C380 H370 0.950 . S
C380 C381 1.386 . S
C380 C382 1.391 . S
C381 C380 1.386 . S
C381 C385 1.393 . S
C382 H371 0.950 . S
C382 C380 1.391 . S
C382 C383 1.400 . S
C383 C377 1.491 . S
C383 C382 1.400 . S
C383 C384 1.398 . S
C384 H372 0.950 . S
C384 C383 1.398 . S
C384 C385 1.391 . S
C385 H373 0.950 . S
C385 C381 1.393 . S
C385 C384 1.391 . S
H386 C394 0.950 . S
H387 C399 0.950 1_455 S
H388 C396 0.950 . S
H389 C398 0.950 . S
H390 C400 0.950 . S
H391 C402 0.950 . S
H392 C404 0.950 . S
H393 C405 0.950 . S
C394 H386 0.950 . S
C394 C395 1.386 . S
C394 C396 1.391 . S
C395 C394 1.386 . S
C395 C399 1.393 . S
C396 H388 0.950 . S
C396 C394 1.391 . S
C396 C397 1.400 . S
C397 C396 1.400 . S
C397 C398 1.398 . S
C397 C403 1.491 . S
C398 H389 0.950 . S
C398 C397 1.398 . S
C398 C399 1.391 . S
C399 H387 0.950 1_655 S
C399 C395 1.393 . S
C399 C398 1.391 . S
C400 H390 0.950 . S
C400 C401 1.386 . S
C400 C402 1.391 . S
C401 C400 1.386 . S
C401 C405 1.393 . S
C402 H391 0.950 . S
C402 C400 1.391 . S
C402 C403 1.400 . S
C403 C397 1.491 . S
C403 C402 1.400 . S
C403 C404 1.398 . S
C404 H392 0.950 . S
C404 C403 1.398 . S
C404 C405 1.391 . S
C405 H393 0.950 . S
C405 C401 1.393 . S
C405 C404 1.391 . S
H406 C414 0.950 . S
H407 C419 0.950 . S
H408 C416 0.950 . S
H409 C418 0.950 . S
H410 C420 0.950 . S
H411 C422 0.950 . S
H412 C424 0.950 . S
H413 C425 0.950 . S
C414 H406 0.950 . S
C414 C415 1.386 . S
C414 C416 1.391 . S
C415 C414 1.386 . S
C415 C419 1.393 . S
C416 H408 0.950 . S
C416 C414 1.391 . S
C416 C417 1.400 . S
C417 C416 1.400 . S
C417 C418 1.398 . S
C417 C423 1.491 . S
C418 H409 0.950 . S
C418 C417 1.398 . S
C418 C419 1.391 . S
C419 H407 0.950 . S
C419 C415 1.393 . S
C419 C418 1.391 . S
C420 H410 0.950 . S
C420 C421 1.386 . S
C420 C422 1.391 . S
C421 C420 1.386 . S
C421 C425 1.393 . S
C422 H411 0.950 . S
C422 C420 1.391 . S
C422 C423 1.400 . S
C423 C417 1.491 . S
C423 C422 1.400 . S
C423 C424 1.398 . S
C424 H412 0.950 . S
C424 C423 1.398 . S
C424 C425 1.391 . S
C425 H413 0.950 . S
C425 C421 1.393 . S
C425 C424 1.391 . S
H426 C434 0.950 . S
H427 C439 0.950 . S
H428 C436 0.950 . S
H429 C438 0.950 . S
H430 C440 0.950 . S
H431 C442 0.950 . S
H432 C444 0.950 . S
H433 C445 0.950 . S
C434 H426 0.950 . S
C434 C435 1.386 . S
C434 C436 1.391 . S
C435 C434 1.386 . S
C435 C439 1.393 . S
C436 H428 0.950 . S
C436 C434 1.391 . S
C436 C437 1.400 . S
C437 C436 1.400 . S
C437 C438 1.398 . S
C437 C443 1.491 . S
C438 H429 0.950 . S
C438 C437 1.398 . S
C438 C439 1.391 . S
C439 H427 0.950 . S
C439 C435 1.393 . S
C439 C438 1.391 . S
C440 H430 0.950 . S
C440 C441 1.386 . S
C440 C442 1.391 . S
C441 C440 1.386 . S
C441 C445 1.393 . S
C442 H431 0.950 . S
C442 C440 1.391 . S
C442 C443 1.400 1_655 S
C443 C437 1.491 . S
C443 C442 1.400 1_455 S
C443 C444 1.398 . S
C444 H432 0.950 . S
C444 C443 1.398 . S
C444 C445 1.391 1_455 S
C445 H433 0.950 . S
C445 C441 1.393 . S
C445 C444 1.391 1_655 S
H446 C454 0.950 . S
H447 C459 0.950 . S
H448 C456 0.950 . S
H449 C458 0.950 . S
H450 C460 0.950 . S
H451 C462 0.950 . S
H452 C464 0.950 . S
H453 C465 0.950 . S
C454 H446 0.950 . S
C454 C455 1.386 . S
C454 C456 1.391 . S
C455 C454 1.386 . S
C455 C459 1.393 . S
C456 H448 0.950 . S
C456 C454 1.391 . S
C456 C457 1.400 . S
C457 C456 1.400 . S
C457 C458 1.398 . S
C457 C463 1.491 . S
C458 H449 0.950 . S
C458 C457 1.398 . S
C458 C459 1.391 . S
C459 H447 0.950 . S
C459 C455 1.393 . S
C459 C458 1.391 . S
C460 H450 0.950 . S
C460 C461 1.386 . S
C460 C462 1.391 . S
C461 C460 1.386 . S
C461 C465 1.393 . S
C462 H451 0.950 . S
C462 C460 1.391 . S
C462 C463 1.400 . S
C463 C457 1.491 . S
C463 C462 1.400 . S
C463 C464 1.398 . S
C464 H452 0.950 . S
C464 C463 1.398 . S
C464 C465 1.391 . S
C465 H453 0.950 . S
C465 C461 1.393 . S
C465 C464 1.391 . S
H466 C474 0.950 . S
H467 C479 0.950 . S
H468 C476 0.950 . S
H469 C478 0.950 . S
H470 C480 0.950 . S
H471 C482 0.950 . S
H472 C484 0.950 1_565 S
H473 C485 0.950 . S
C474 H466 0.950 . S
C474 C475 1.386 . S
C474 C476 1.391 . S
C475 C474 1.386 . S
C475 C479 1.393 . S
C476 H468 0.950 . S
C476 C474 1.391 . S
C476 C477 1.400 1_565 S
C477 C476 1.400 1_545 S
C477 C478 1.398 . S
C477 C483 1.491 . S
C478 H469 0.950 . S
C478 C477 1.398 . S
C478 C479 1.391 1_545 S
C479 H467 0.950 . S
C479 C475 1.393 . S
C479 C478 1.391 1_565 S
C480 H470 0.950 . S
C480 C481 1.386 . S
C480 C482 1.391 . S
C481 C480 1.386 . S
C481 C485 1.393 . S
C482 H471 0.950 . S
C482 C480 1.391 . S
C482 C483 1.400 . S
C483 C477 1.491 . S
C483 C482 1.400 . S
C483 C484 1.398 . S
C484 H472 0.950 1_545 S
C484 C483 1.398 . S
C484 C485 1.391 . S
C485 H473 0.950 . S
C485 C481 1.393 . S
C485 C484 1.391 . S
C135 C37 1.018 . S
C141 C3 1.022 . S
C155 C23 1.032 . S
C161 C9 1.013 . S
C175 C17 1.066 . S
C181 C31 1.069 . S
C195 C73 1.030 . S
C201 C51 0.985 . S
C215 C65 0.991 . S
C221 C45 0.997 . S
C235 C59 1.026 . S
C241 C79 0.996 . S
C255 C87 1.006 . S
C261 C121 1.019 . S
C275 C93 0.947 . S
C281 C107 0.980 . S
C295 C101 0.994 . S
C301 C115 1.016 . S
C315 C8 1.382 . S
C321 C106 1.381 . S
C335 C21 1.383 . S
C341 C119 1.397 . S
C355 C91 1.363 . S
C361 C36 1.398 . S
C375 C63 1.366 . S
C381 C35 1.361 . S
C395 C7 1.365 . S
C401 C77 1.372 . S
C415 C49 1.394 . S
C421 C22 1.411 . S
C435 C105 1.378 . S
C441 C78 1.395 . S
C455 C50 1.405 . S
C461 C120 1.404 . S
C475 C92 1.420 . S
C481 C64 1.417 . S
