# Generated by pormake.
# Topology wkl, (6)-cn, num edge types: 1
# Building blocks:
#     Node 0, Type 0, BuildingBlock: IZENUY_clean_sbu_0, # of connection points: 6
#     Node 1, Type 0, BuildingBlock: IZENUY_clean_sbu_0, # of connection points: 6
#     Node 2, Type 0, BuildingBlock: IZENUY_clean_sbu_0, # of connection points: 6
#     Node 3, Type 0, BuildingBlock: IZENUY_clean_sbu_0, # of connection points: 6
#     Node 4, Type 0, BuildingBlock: IZENUY_clean_sbu_0, # of connection points: 6
#     Node 5, Type 0, BuildingBlock: IZENUY_clean_sbu_0, # of connection points: 6
#     Node 6, Type 0, BuildingBlock: IZENUY_clean_sbu_0, # of connection points: 6
#     Node 7, Type 0, BuildingBlock: IZENUY_clean_sbu_0, # of connection points: 6
#     Node 8, Type 0, BuildingBlock: IZENUY_clean_sbu_0, # of connection points: 6
#     Node 9, Type 0, BuildingBlock: IZENUY_clean_sbu_0, # of connection points: 6
#     Node 10, Type 0, BuildingBlock: IZENUY_clean_sbu_0, # of connection points: 6
#     Node 11, Type 0, BuildingBlock: IZENUY_clean_sbu_0, # of connection points: 6
#     Edge 12, Type (0, 0), BuildingBlock: KIFKEQ_clean_linker_1, # of connection points: 2
#     Edge 13, Type (0, 0), BuildingBlock: KIFKEQ_clean_linker_1, # of connection points: 2
#     Edge 14, Type (0, 0), BuildingBlock: KIFKEQ_clean_linker_1, # of connection points: 2
#     Edge 15, Type (0, 0), BuildingBlock: KIFKEQ_clean_linker_1, # of connection points: 2
#     Edge 16, Type (0, 0), BuildingBlock: KIFKEQ_clean_linker_1, # of connection points: 2
#     Edge 17, Type (0, 0), BuildingBlock: KIFKEQ_clean_linker_1, # of connection points: 2
#     Edge 18, Type (0, 0), BuildingBlock: KIFKEQ_clean_linker_1, # of connection points: 2
#     Edge 19, Type (0, 0), BuildingBlock: KIFKEQ_clean_linker_1, # of connection points: 2
#     Edge 20, Type (0, 0), BuildingBlock: KIFKEQ_clean_linker_1, # of connection points: 2
#     Edge 21, Type (0, 0), BuildingBlock: KIFKEQ_clean_linker_1, # of connection points: 2
#     Edge 22, Type (0, 0), BuildingBlock: KIFKEQ_clean_linker_1, # of connection points: 2
#     Edge 23, Type (0, 0), BuildingBlock: KIFKEQ_clean_linker_1, # of connection points: 2
#     Edge 24, Type (0, 0), BuildingBlock: KIFKEQ_clean_linker_1, # of connection points: 2
#     Edge 25, Type (0, 0), BuildingBlock: KIFKEQ_clean_linker_1, # of connection points: 2
#     Edge 26, Type (0, 0), BuildingBlock: KIFKEQ_clean_linker_1, # of connection points: 2
#     Edge 27, Type (0, 0), BuildingBlock: KIFKEQ_clean_linker_1, # of connection points: 2
#     Edge 28, Type (0, 0), BuildingBlock: KIFKEQ_clean_linker_1, # of connection points: 2
#     Edge 29, Type (0, 0), BuildingBlock: KIFKEQ_clean_linker_1, # of connection points: 2
#     Edge 30, Type (0, 0), BuildingBlock: KIFKEQ_clean_linker_1, # of connection points: 2
#     Edge 31, Type (0, 0), BuildingBlock: KIFKEQ_clean_linker_1, # of connection points: 2
#     Edge 32, Type (0, 0), BuildingBlock: KIFKEQ_clean_linker_1, # of connection points: 2
#     Edge 33, Type (0, 0), BuildingBlock: KIFKEQ_clean_linker_1, # of connection points: 2
#     Edge 34, Type (0, 0), BuildingBlock: KIFKEQ_clean_linker_1, # of connection points: 2
#     Edge 35, Type (0, 0), BuildingBlock: KIFKEQ_clean_linker_1, # of connection points: 2
#     Edge 36, Type (0, 0), BuildingBlock: KIFKEQ_clean_linker_1, # of connection points: 2
#     Edge 37, Type (0, 0), BuildingBlock: KIFKEQ_clean_linker_1, # of connection points: 2
#     Edge 38, Type (0, 0), BuildingBlock: KIFKEQ_clean_linker_1, # of connection points: 2
#     Edge 39, Type (0, 0), BuildingBlock: KIFKEQ_clean_linker_1, # of connection points: 2
#     Edge 40, Type (0, 0), BuildingBlock: KIFKEQ_clean_linker_1, # of connection points: 2
#     Edge 41, Type (0, 0), BuildingBlock: KIFKEQ_clean_linker_1, # of connection points: 2
#     Edge 42, Type (0, 0), BuildingBlock: KIFKEQ_clean_linker_1, # of connection points: 2
#     Edge 43, Type (0, 0), BuildingBlock: KIFKEQ_clean_linker_1, # of connection points: 2
#     Edge 44, Type (0, 0), BuildingBlock: KIFKEQ_clean_linker_1, # of connection points: 2
#     Edge 45, Type (0, 0), BuildingBlock: KIFKEQ_clean_linker_1, # of connection points: 2
#     Edge 46, Type (0, 0), BuildingBlock: KIFKEQ_clean_linker_1, # of connection points: 2
#     Edge 47, Type (0, 0), BuildingBlock: KIFKEQ_clean_linker_1, # of connection points: 2
# Relax obj value: 0.387
# Max RMSD: 0.287
# Mean RMSD: 0.287
data_MOF--net-wkl--node1-IZENUY_clean_sbu_0--edge1-KIFKEQ_clean_linker_1
_symmetry_space_group_name_H-M    P1
_symmetry_Int_Tables_number       1
_symmetry_cell_setting            triclinic
loop_
_symmetry_equiv_pos_as_xyz
'x, y, z'
_cell_length_a     72.766936
_cell_length_b     72.779747
_cell_length_c     15.243126
_cell_angle_alpha  89.983299
_cell_angle_beta   90.034827
_cell_angle_gamma 120.00644
loop_
_atom_site_label
_atom_site_type_symbol
_atom_site_fract_x
_atom_site_fract_y
_atom_site_fract_z
_atom_type_partial_charge
Fe0 Fe 0.479 0.11046 0.09995 0.0
Fe1 Fe 0.48923 0.14692 0.97372 0.0
O2 O 0.47066 0.12562 0.03913 0.0
Fe3 Fe 0.44384 0.11947 0.04277 0.0
O4 O 0.44515 0.12375 0.16076 0.0
O5 O 0.46045 0.105 0.19116 0.0
O6 O 0.49824 0.13363 0.16063 0.0
C7 C 0.51359 0.14923 0.1236 0.0
C8 C 0.44078 0.07903 0.03945 0.0
O9 O 0.51224 0.1533 0.04391 0.0
C10 C 0.45266 0.12826 0.86804 0.0
O11 O 0.49896 0.11304 0.01928 0.0
O12 O 0.49422 0.12923 0.90725 0.0
O13 O 0.4327 0.09056 0.05627 0.0
O14 O 0.46055 0.08655 0.04301 0.0
C15 C 0.46747 0.16463 0.04485 0.0
O16 O 0.46986 0.14445 0.89069 0.0
O17 O 0.441 0.11476 0.92461 0.0
C18 C 0.50099 0.11764 0.93829 0.0
O19 O 0.48523 0.16569 0.03637 0.0
O20 O 0.4503 0.14735 0.03074 0.0
C21 C 0.45076 0.11451 0.21575 0.0
Fe22 Fe 0.3242 0.44375 0.22763 0.0
Fe23 Fe 0.3682 0.47901 0.28682 0.0
O24 O 0.34478 0.47065 0.22526 0.0
Fe25 Fe 0.34196 0.4893 0.16062 0.0
O26 O 0.31901 0.48491 0.22263 0.0
O27 O 0.30262 0.45002 0.21557 0.0
O28 O 0.321 0.44471 0.34569 0.0
C29 C 0.33577 0.45039 0.40117 0.0
C30 C 0.32444 0.45297 0.05328 0.0
O31 O 0.35502 0.46032 0.37738 0.0
C32 C 0.38314 0.50141 0.12586 0.0
O33 O 0.34209 0.43271 0.24068 0.0
O34 O 0.37395 0.46076 0.23053 0.0
O35 O 0.32539 0.47011 0.07639 0.0
O36 O 0.32628 0.44123 0.10948 0.0
C37 C 0.36364 0.51339 0.31183 0.0
O38 O 0.38568 0.49919 0.20675 0.0
O39 O 0.3648 0.49468 0.09471 0.0
C40 C 0.36188 0.44096 0.22741 0.0
O41 O 0.36404 0.498 0.3477 0.0
O42 O 0.35821 0.5122 0.23215 0.0
C43 C 0.30234 0.46709 0.22978 0.0
Fe44 Fe 0.8881 0.36866 0.4443 0.0
Fe45 Fe 0.85168 0.34207 0.31814 0.0
O46 O 0.87322 0.34515 0.38308 0.0
Fe47 Fe 0.87976 0.32474 0.38606 0.0
O48 O 0.87557 0.3216 0.50411 0.0
O49 O 0.89367 0.35565 0.53548 0.0
O50 O 0.86485 0.36438 0.50466 0.0
C51 C 0.84901 0.36379 0.46848 0.0
C52 C 0.9201 0.3626 0.38634 0.0
O53 O 0.84483 0.35827 0.38889 0.0
C54 C 0.8708 0.32477 0.2116 0.0
O55 O 0.88531 0.38595 0.36344 0.0
O56 O 0.86903 0.36488 0.25182 0.0
O57 O 0.90864 0.34279 0.39942 0.0
O58 O 0.91224 0.37456 0.38865 0.0
C59 C 0.83456 0.30257 0.38826 0.0
O60 O 0.85448 0.32549 0.23454 0.0
O61 O 0.88443 0.3268 0.26793 0.0
C62 C 0.88055 0.38327 0.28253 0.0
O63 O 0.83324 0.31914 0.38061 0.0
O64 O 0.85199 0.303 0.37398 0.0
C65 C 0.88452 0.33641 0.55945 0.0
Fe66 Fe 0.55502 0.87982 0.55697 0.0
Fe67 Fe 0.51929 0.88774 0.61801 0.0
O68 O 0.52813 0.87348 0.55369 0.0
Fe69 Fe 0.5098 0.85273 0.48517 0.0
O70 O 0.51366 0.83347 0.54462 0.0
O71 O 0.54867 0.85201 0.54294 0.0
O72 O 0.55391 0.87513 0.67482 0.0
C73 C 0.54809 0.88386 0.73131 0.0
C74 C 0.54669 0.87181 0.38145 0.0
O75 O 0.53762 0.8927 0.7091 0.0
C76 C 0.49793 0.88213 0.45586 0.0
O77 O 0.56588 0.90862 0.5722 0.0
O78 O 0.5377 0.91241 0.56592 0.0
O79 O 0.52928 0.85572 0.40223 0.0
O80 O 0.55808 0.88509 0.43912 0.0
C81 C 0.48487 0.84861 0.63518 0.0
O82 O 0.49941 0.88561 0.53776 0.0
O83 O 0.50505 0.87111 0.42188 0.0
C84 C 0.55751 0.92017 0.56176 0.0
O85 O 0.50009 0.86379 0.67485 0.0
O86 O 0.48653 0.8456 0.55456 0.0
C87 C 0.53143 0.83458 0.55413 0.0
Fe88 Fe 0.65705 0.5096 0.65088 0.0
Fe89 Fe 0.67455 0.55525 0.71497 0.0
O90 O 0.65396 0.52839 0.71294 0.0
Fe91 Fe 0.63035 0.52036 0.77233 0.0
O92 O 0.63403 0.50141 0.83596 0.0
O93 O 0.64069 0.48696 0.72334 0.0
O94 O 0.67989 0.51433 0.71539 0.0
C95 C 0.6965 0.53222 0.72149 0.0
C96 C 0.61592 0.49734 0.61253 0.0
O97 O 0.69613 0.54906 0.70317 0.0
C98 C 0.63725 0.55836 0.70948 0.0
O99 O 0.67369 0.52866 0.5661 0.0
O100 O 0.67244 0.5575 0.59671 0.0
O101 O 0.61309 0.49999 0.69259 0.0
O102 O 0.63434 0.5038 0.58299 0.0
C103 C 0.66263 0.54872 0.88775 0.0
O104 O 0.65678 0.56639 0.72765 0.0
O105 O 0.62503 0.53859 0.71248 0.0
C106 C 0.67428 0.54557 0.54144 0.0
O107 O 0.67756 0.55425 0.83314 0.0
O108 O 0.64345 0.53933 0.86251 0.0
C109 C 0.63477 0.48599 0.80217 0.0
Fe110 Fe 0.11886 0.67472 0.89062 0.0
Fe111 Fe 0.11045 0.63085 0.94976 0.0
O112 O 0.12547 0.65436 0.88893 0.0
Fe113 Fe 0.14731 0.65761 0.8259 0.0
O114 O 0.16536 0.68048 0.89012 0.0
O115 O 0.14661 0.6965 0.87883 0.0
O116 O 0.12287 0.67793 1.00879 0.0
C117 C 0.1139 0.66312 0.06417 0.0
C118 C 0.12826 0.67461 0.71705 0.0
O119 O 0.10468 0.64387 0.04024 0.0
C120 C 0.1186 0.61643 0.78875 0.0
O121 O 0.08997 0.65665 0.90327 0.0
O122 O 0.08646 0.62494 0.89271 0.0
O123 O 0.14468 0.67421 0.74153 0.0
O124 O 0.11443 0.6725 0.77242 0.0
C125 C 0.1495 0.63574 0.97665 0.0
O126 O 0.1135 0.61364 0.86932 0.0
O127 O 0.13033 0.63485 0.75862 0.0
C128 C 0.07857 0.63686 0.88978 0.0
O129 O 0.13351 0.63507 0.01163 0.0
O130 O 0.15398 0.64139 0.89737 0.0
C131 C 0.16391 0.69698 0.8969 0.0
Fe132 Fe 0.87913 0.55472 0.81459 0.0
Fe133 Fe 0.88749 0.51925 0.75539 0.0
O134 O 0.87248 0.52774 0.81627 0.0
Fe135 Fe 0.85065 0.50916 0.87932 0.0
O136 O 0.83259 0.51402 0.81531 0.0
O137 O 0.8514 0.54878 0.82656 0.0
O138 O 0.87509 0.55394 0.69643 0.0
C139 C 0.88406 0.5481 0.64105 0.0
C140 C 0.86975 0.5452 0.98819 0.0
O141 O 0.89329 0.53808 0.66501 0.0
C142 C 0.87935 0.49664 0.91628 0.0
O143 O 0.90801 0.56552 0.80184 0.0
O144 O 0.91148 0.5373 0.81256 0.0
O145 O 0.85333 0.52837 0.9638 0.0
O146 O 0.88358 0.55692 0.93278 0.0
C147 C 0.84843 0.48513 0.72842 0.0
O148 O 0.88442 0.49896 0.83569 0.0
O149 O 0.86762 0.50332 0.94648 0.0
C150 C 0.91939 0.55711 0.81552 0.0
O151 O 0.86442 0.50046 0.69347 0.0
O152 O 0.84394 0.48628 0.80771 0.0
C153 C 0.83406 0.532 0.80878 0.0
Fe154 Fe 0.32363 0.87944 0.9905 0.0
Fe155 Fe 0.36738 0.88767 0.93078 0.0
O156 O 0.34407 0.87297 0.99319 0.0
Fe157 Fe 0.34125 0.85172 0.05909 0.0
O158 O 0.3182 0.83302 0.99711 0.0
O159 O 0.30202 0.85172 1.0044 0.0
O160 O 0.3202 0.8749 0.87257 0.0
C161 C 0.33491 0.88393 0.81685 0.0
C162 C 0.32394 0.8709 0.16518 0.0
O163 O 0.35418 0.89321 0.8404 0.0
C164 C 0.38255 0.88078 0.09172 0.0
O165 O 0.34165 0.90822 0.9756 0.0
O166 O 0.37343 0.91189 0.98692 0.0
O167 O 0.32475 0.85459 0.1427 0.0
O168 O 0.32595 0.88443 0.10848 0.0
C169 C 0.36251 0.84857 0.90841 0.0
O170 O 0.38484 0.8849 0.01036 0.0
O171 O 0.3643 0.86948 0.12441 0.0
C172 C 0.36136 0.91962 0.99099 0.0
O173 O 0.36285 0.86417 0.87078 0.0
O174 O 0.35741 0.84488 0.98851 0.0
C175 C 0.30162 0.83436 0.98912 0.0
Fe176 Fe 0.44406 0.32374 0.14788 0.0
Fe177 Fe 0.47928 0.36776 0.08882 0.0
O178 O 0.47094 0.34435 0.15038 0.0
Fe179 Fe 0.48962 0.34158 0.21515 0.0
O180 O 0.48533 0.31868 0.15293 0.0
O181 O 0.45041 0.30223 0.15978 0.0
O182 O 0.44502 0.32055 0.02981 0.0
C183 C 0.45071 0.3353 0.97431 0.0
C184 C 0.45326 0.32395 0.32223 0.0
O185 O 0.46065 0.35456 0.99804 0.0
C186 C 0.50157 0.38271 0.25012 0.0
O187 O 0.43295 0.34156 0.13484 0.0
O188 O 0.46095 0.37347 0.14472 0.0
O189 O 0.47041 0.32492 0.29913 0.0
O190 O 0.44152 0.32579 0.26603 0.0
C191 C 0.51378 0.36339 0.06436 0.0
O192 O 0.49938 0.38525 0.1692 0.0
O193 O 0.49489 0.36438 0.2812 0.0
C194 C 0.44116 0.36136 0.14774 0.0
O195 O 0.49835 0.36366 0.02824 0.0
O196 O 0.51256 0.35793 0.14399 0.0
C197 C 0.46752 0.30201 0.14531 0.0
Fe198 Fe 0.11981 0.44481 0.32092 0.0
Fe199 Fe 0.11142 0.48031 0.26204 0.0
O200 O 0.12633 0.47176 0.32349 0.0
Fe201 Fe 0.14787 0.49028 0.38822 0.0
O202 O 0.16632 0.48576 0.326 0.0
O203 O 0.14759 0.45087 0.33307 0.0
O204 O 0.12399 0.44579 0.20287 0.0
C205 C 0.11501 0.4516 0.14741 0.0
C206 C 0.1288 0.45392 0.49528 0.0
O207 O 0.10582 0.46165 0.17122 0.0
C208 C 0.11895 0.50258 0.42339 0.0
O209 O 0.09091 0.43395 0.30761 0.0
O210 O 0.08732 0.46212 0.31803 0.0
O211 O 0.1451 0.47098 0.47219 0.0
O212 O 0.11517 0.44228 0.43906 0.0
C213 C 0.15046 0.51455 0.23741 0.0
O214 O 0.11422 0.50046 0.34247 0.0
O215 O 0.13052 0.49578 0.45431 0.0
C216 C 0.07946 0.4423 0.32068 0.0
O217 O 0.13464 0.49923 0.2014 0.0
O218 O 0.15468 0.51328 0.31702 0.0
C219 C 0.16501 0.46787 0.31875 0.0
Fe220 Fe 0.67552 0.1194 0.4821 0.0
Fe221 Fe 0.63171 0.1112 0.42231 0.0
O222 O 0.65501 0.1258 0.48507 0.0
Fe223 Fe 0.65775 0.14697 0.5516 0.0
O224 O 0.68067 0.1658 0.49004 0.0
O225 O 0.69708 0.14724 0.49475 0.0
O226 O 0.67885 0.12376 0.36412 0.0
C227 C 0.66417 0.11495 0.30814 0.0
C228 C 0.67543 0.12803 0.65691 0.0
O229 O 0.64489 0.10599 0.33108 0.0
C230 C 0.61659 0.11775 0.58466 0.0
O231 O 0.65754 0.09052 0.46823 0.0
O232 O 0.62566 0.08682 0.4761 0.0
O233 O 0.67447 0.14425 0.63466 0.0
O234 O 0.67342 0.11452 0.60015 0.0
C235 C 0.6362 0.15015 0.40196 0.0
O236 O 0.6142 0.11355 0.50324 0.0
O237 O 0.63489 0.12911 0.61678 0.0
C238 C 0.63766 0.07902 0.4798 0.0
O239 O 0.63618 0.13481 0.36369 0.0
O240 O 0.64133 0.15373 0.48203 0.0
C241 C 0.69733 0.16464 0.48166 0.0
Fe242 Fe 0.5544 0.67543 0.66056 0.0
Fe243 Fe 0.51963 0.63112 0.60369 0.0
O244 O 0.5276 0.65469 0.66339 0.0
Fe245 Fe 0.50878 0.65747 0.72675 0.0
O246 O 0.51307 0.68026 0.66348 0.0
O247 O 0.54793 0.69685 0.67179 0.0
O248 O 0.55324 0.67831 0.54245 0.0
C249 C 0.54779 0.66341 0.48789 0.0
C250 C 0.54503 0.67523 0.83469 0.0
O251 O 0.53845 0.64425 0.51315 0.0
C252 C 0.49699 0.61644 0.764 0.0
O253 O 0.56571 0.65779 0.64806 0.0
O254 O 0.538 0.62593 0.66287 0.0
O255 O 0.52789 0.67425 0.81098 0.0
O256 O 0.55694 0.67355 0.77885 0.0
C257 C 0.48506 0.63523 0.57546 0.0
O258 O 0.4994 0.61373 0.68357 0.0
O259 O 0.50344 0.63482 0.79402 0.0
C260 C 0.55776 0.63825 0.66605 0.0
O261 O 0.50053 0.63473 0.5409 0.0
O262 O 0.48606 0.64097 0.65465 0.0
C263 C 0.53084 0.69697 0.65608 0.0
H264 H 0.46617 0.15882 0.74215 0.0
H265 H 0.42643 0.09127 0.78056 0.0
H266 H 0.46131 0.15396 0.58415 0.0
H267 H 0.42158 0.08639 0.62137 0.0
H268 H 0.43938 0.14038 0.30217 0.0
H269 H 0.43517 0.14251 0.46054 0.0
H270 H 0.44716 0.09073 0.50132 0.0
H271 H 0.45134 0.08856 0.34381 0.0
C272 C 0.45606 0.14294 0.71688 0.0
C273 C 0.44676 0.12541 0.77389 0.0
C274 C 0.45318 0.14018 0.62623 0.0
C275 C 0.44114 0.11979 0.59016 0.0
C276 C 0.43107 0.1023 0.64729 0.0
C277 C 0.43372 0.1051 0.73838 0.0
C278 C 0.44077 0.12924 0.34484 0.0
C279 C 0.44585 0.11441 0.31032 0.0
C280 C 0.43845 0.13052 0.43553 0.0
C281 C 0.44086 0.11681 0.49347 0.0
C282 C 0.44497 0.10136 0.45849 0.0
C283 C 0.44754 0.10025 0.36813 0.0
H284 H 0.33439 0.42613 0.96597 0.0
H285 H 0.308 0.4671 0.92705 0.0
H286 H 0.33412 0.42103 0.80693 0.0
H287 H 0.30771 0.46199 0.76912 0.0
H288 H 0.29863 0.43959 0.48748 0.0
H289 H 0.29235 0.43562 0.646 0.0
H290 H 0.35569 0.44632 0.68652 0.0
H291 H 0.36199 0.45029 0.52898 0.0
C292 C 0.32812 0.43367 0.92372 0.0
C293 C 0.32134 0.44711 0.95907 0.0
C294 C 0.32809 0.43086 0.83271 0.0
C295 C 0.32097 0.44117 0.77546 0.0
C296 C 0.31311 0.45366 0.81134 0.0
C297 C 0.31341 0.4567 0.90194 0.0
C298 C 0.31107 0.44073 0.53015 0.0
C299 C 0.33086 0.4454 0.4956 0.0
C300 C 0.30751 0.43855 0.6209 0.0
C301 C 0.32354 0.4407 0.67878 0.0
C302 C 0.34294 0.44435 0.64374 0.0
C303 C 0.34659 0.4468 0.55337 0.0
H304 H 0.85867 0.29912 0.64579 0.0
H305 H 0.91052 0.3629 0.68735 0.0
H306 H 0.85651 0.29281 0.80427 0.0
H307 H 0.90834 0.35658 0.84487 0.0
H308 H 0.90776 0.33541 0.12421 0.0
H309 H 0.91262 0.33531 0.96511 0.0
H310 H 0.84508 0.30767 0.9276 0.0
H311 H 0.84022 0.30779 0.08554 0.0
C312 C 0.86983 0.31165 0.68847 0.0
C313 C 0.88466 0.33156 0.65394 0.0
C314 C 0.86853 0.30807 0.7792 0.0
C315 C 0.88224 0.32421 0.8371 0.0
C316 C 0.89771 0.34374 0.80207 0.0
C317 C 0.89883 0.34741 0.71172 0.0
C318 C 0.89393 0.32891 0.082 0.0
C319 C 0.87363 0.32173 0.11742 0.0
C320 C 0.89673 0.32897 0.99096 0.0
C321 C 0.87924 0.32155 0.93378 0.0
C322 C 0.85885 0.3133 0.96975 0.0
C323 C 0.85609 0.31351 0.06036 0.0
H324 H 0.57331 0.90876 0.29427 0.0
H325 H 0.53428 0.84109 0.25712 0.0
H326 H 0.57883 0.91337 0.13522 0.0
H327 H 0.53972 0.84567 0.09945 0.0
H328 H 0.56023 0.85839 0.81697 0.0
H329 H 0.56533 0.85688 0.97522 0.0
H330 H 0.55347 0.90877 0.01537 0.0
H331 H 0.54847 0.91034 0.85841 0.0
C332 C 0.56634 0.89486 0.25245 0.0
C333 C 0.55322 0.8746 0.28811 0.0
C334 C 0.56937 0.8975 0.16144 0.0
C335 C 0.55961 0.87989 0.10467 0.0
C336 C 0.54763 0.85954 0.14118 0.0
C337 C 0.54438 0.85694 0.23165 0.0
C338 C 0.55909 0.8697 0.85953 0.0
C339 C 0.55373 0.88434 0.82516 0.0
C340 C 0.56194 0.86879 0.95011 0.0
C341 C 0.55977 0.88269 1.00788 0.0
C342 C 0.5555 0.89801 0.97277 0.0
C343 C 0.55242 0.89875 0.88269 0.0
H344 H 0.69941 0.5586 0.97512 0.0
H345 H 0.63629 0.5486 0.01558 0.0
H346 H 0.7054 0.56189 0.13381 0.0
H347 H 0.64232 0.55193 0.17349 0.0
H348 H 0.66431 0.57231 0.45348 0.0
H349 H 0.66417 0.57708 0.2944 0.0
H350 H 0.68964 0.53532 0.25651 0.0
H351 H 0.68974 0.53052 0.41463 0.0
C352 C 0.68696 0.55747 0.01763 0.0
C353 C 0.66733 0.55323 0.98264 0.0
C354 C 0.69035 0.55924 0.1085 0.0
C355 C 0.67432 0.55713 0.16619 0.0
C356 C 0.65507 0.55385 0.13085 0.0
C357 C 0.65157 0.5518 0.04027 0.0
C358 C 0.67026 0.56449 0.41121 0.0
C359 C 0.67695 0.55098 0.44671 0.0
C360 C 0.67005 0.56711 0.32016 0.0
C361 C 0.67683 0.55652 0.26289 0.0
C362 C 0.6845 0.54386 0.29877 0.0
C363 C 0.68444 0.54101 0.38948 0.0
H364 H 0.09154 0.66474 0.6292 0.0
H365 H 0.15882 0.69044 0.59049 0.0
H366 H 0.08669 0.66487 0.47018 0.0
H367 H 0.15397 0.69059 0.43244 0.0
H368 H 0.08757 0.63693 0.1919 0.0
H369 H 0.09012 0.64311 0.34961 0.0
H370 H 0.14311 0.70625 0.30946 0.0
H371 H 0.14055 0.7001 0.15081 0.0
C372 C 0.10533 0.67081 0.58699 0.0
C373 C 0.12555 0.67747 0.62248 0.0
C374 C 0.10254 0.67076 0.49597 0.0
C375 C 0.11994 0.67768 0.43875 0.0
C376 C 0.14027 0.68536 0.47467 0.0
C377 C 0.14302 0.68514 0.56533 0.0
C378 C 0.09959 0.65226 0.21644 0.0
C379 C 0.11394 0.66798 0.15872 0.0
C380 C 0.10094 0.65585 0.30689 0.0
C381 C 0.11684 0.67515 0.34206 0.0
C382 C 0.13076 0.69117 0.28426 0.0
C383 C 0.12923 0.68768 0.19344 0.0
H384 H 0.90647 0.57201 0.07603 0.0
H385 H 0.83917 0.53054 0.11467 0.0
H386 H 0.91131 0.57702 0.23504 0.0
H387 H 0.84401 0.53557 0.27271 0.0
H388 H 0.85745 0.55848 0.55433 0.0
H389 H 0.8549 0.56209 0.39565 0.0
H390 H 0.90783 0.55184 0.35566 0.0
H391 H 0.91037 0.54821 0.51337 0.0
C392 C 0.89268 0.56432 0.11821 0.0
C393 C 0.87246 0.55079 0.08273 0.0
C394 C 0.89546 0.56708 0.20923 0.0
C395 C 0.87805 0.55663 0.26643 0.0
C396 C 0.85771 0.544 0.23049 0.0
C397 C 0.85497 0.54102 0.13984 0.0
C398 C 0.86876 0.55737 0.51172 0.0
C399 C 0.88403 0.55293 0.54649 0.0
C400 C 0.86724 0.55933 0.42089 0.0
C401 C 0.88114 0.55721 0.36312 0.0
C402 C 0.89702 0.55377 0.39834 0.0
C403 C 0.89837 0.55154 0.48881 0.0
H404 H 0.36116 0.91033 0.68959 0.0
H405 H 0.29762 0.85796 0.73034 0.0
H406 H 0.35483 0.90835 0.53222 0.0
H407 H 0.29128 0.85603 0.57186 0.0
H408 H 0.33432 0.90779 0.25271 0.0
H409 H 0.3338 0.91251 0.41177 0.0
H410 H 0.30614 0.84494 0.44837 0.0
H411 H 0.30662 0.84024 0.29055 0.0
C412 C 0.34571 0.89857 0.66507 0.0
C413 C 0.32994 0.88418 0.72257 0.0
C414 C 0.34203 0.89756 0.57477 0.0
C415 C 0.32257 0.88201 0.53946 0.0
C416 C 0.30649 0.86811 0.59713 0.0
C417 C 0.31009 0.86927 0.68785 0.0
C418 C 0.32771 0.89393 0.29471 0.0
C419 C 0.32065 0.87367 0.25911 0.0
C420 C 0.32753 0.89663 0.38574 0.0
C421 C 0.32001 0.8791 0.4427 0.0
C422 C 0.31184 0.85875 0.40644 0.0
C423 C 0.31227 0.85608 0.31588 0.0
H424 H 0.43997 0.29817 0.88804 0.0
H425 H 0.45053 0.36146 0.84648 0.0
H426 H 0.43598 0.29186 0.72952 0.0
H427 H 0.44653 0.35513 0.68895 0.0
H428 H 0.42635 0.3338 0.40953 0.0
H429 H 0.42123 0.33351 0.56857 0.0
H430 H 0.46232 0.30724 0.60635 0.0
H431 H 0.46744 0.30755 0.44843 0.0
C432 C 0.44107 0.31059 0.84535 0.0
C433 C 0.44571 0.33036 0.87988 0.0
C434 C 0.43888 0.307 0.7546 0.0
C435 C 0.44098 0.32301 0.6967 0.0
C436 C 0.4446 0.3424 0.73174 0.0
C437 C 0.44706 0.34607 0.8221 0.0
C438 C 0.43391 0.32756 0.45177 0.0
C439 C 0.44739 0.32082 0.41643 0.0
C440 C 0.43109 0.32751 0.54279 0.0
C441 C 0.44144 0.32043 0.60003 0.0
C442 C 0.45397 0.31261 0.56414 0.0
C443 C 0.45701 0.31292 0.47355 0.0
H444 H 0.08882 0.45174 0.01959 0.0
H445 H 0.14113 0.4405 0.06111 0.0
H446 H 0.09107 0.44769 0.86206 0.0
H447 H 0.14336 0.43645 0.90261 0.0
H448 H 0.15938 0.46783 0.62144 0.0
H449 H 0.15455 0.46278 0.77937 0.0
H450 H 0.08709 0.42228 0.74175 0.0
H451 H 0.09193 0.42733 0.58268 0.0
C452 C 0.10063 0.44811 0.9952 0.0
C453 C 0.1149 0.44659 0.05297 0.0
C454 C 0.10179 0.44562 0.90484 0.0
C455 C 0.11741 0.44178 0.86981 0.0
C456 C 0.13123 0.43952 0.9277 0.0
C457 C 0.12989 0.44175 0.01843 0.0
C458 C 0.14354 0.45753 0.64659 0.0
C459 C 0.12601 0.44807 0.5895 0.0
C460 C 0.1408 0.45453 0.73719 0.0
C461 C 0.12043 0.4422 0.77313 0.0
C462 C 0.10297 0.43199 0.71593 0.0
C463 C 0.10575 0.43477 0.62489 0.0
H464 H 0.69285 0.15868 0.78227 0.0
H465 H 0.6651 0.09113 0.74429 0.0
H466 H 0.69332 0.15395 0.94012 0.0
H467 H 0.66557 0.08638 0.90338 0.0
H468 H 0.63792 0.08871 0.18044 0.0
H469 H 0.6444 0.09068 0.0232 0.0
H470 H 0.70808 0.14268 0.064 0.0
H471 H 0.7016 0.14074 0.22237 0.0
C472 C 0.6872 0.14283 0.80759 0.0
C473 C 0.6788 0.12525 0.75078 0.0
C474 C 0.68761 0.14015 0.89815 0.0
C475 C 0.67939 0.11979 0.93436 0.0
C476 C 0.67187 0.10226 0.87736 0.0
C477 C 0.67173 0.10498 0.78633 0.0
C478 C 0.65343 0.1004 0.15621 0.0
C479 C 0.6692 0.1147 0.21398 0.0
C480 C 0.65719 0.1014 0.066 0.0
C481 C 0.67674 0.11685 0.03106 0.0
C482 C 0.69281 0.13067 0.089 0.0
C483 C 0.68913 0.1295 0.17965 0.0
H484 H 0.54747 0.63698 0.35985 0.0
H485 H 0.55816 0.70033 0.40089 0.0
H486 H 0.55109 0.64316 0.20206 0.0
H487 H 0.56176 0.70647 0.24235 0.0
H488 H 0.57167 0.66506 0.92233 0.0
H489 H 0.57645 0.6649 0.08147 0.0
H490 H 0.53528 0.69105 0.11937 0.0
H491 H 0.53047 0.69117 0.96129 0.0
C492 C 0.55088 0.65234 0.33532 0.0
C493 C 0.55241 0.66813 0.39307 0.0
C494 C 0.55311 0.65592 0.24482 0.0
C495 C 0.55667 0.67529 0.20967 0.0
C496 C 0.55889 0.69134 0.2675 0.0
C497 C 0.55693 0.68785 0.35829 0.0
C498 C 0.56401 0.67118 0.96464 0.0
C499 C 0.55063 0.67805 0.92921 0.0
C500 C 0.56663 0.67095 0.05571 0.0
C501 C 0.55618 0.67789 0.11299 0.0
C502 C 0.5437 0.68578 0.07712 0.0
C503 C 0.54085 0.68573 0.98643 0.0
H504 H 0.45251 0.05224 0.96873 0.0
H505 H 0.39838 0.05347 0.07828 0.0
H506 H 0.43185 0.0139 0.95783 0.0
H507 H 0.37763 0.01465 0.06905 0.0
H508 H 0.3438 0.94487 0.95975 0.0
H509 H 0.36162 0.98365 0.96856 0.0
H510 H 0.41843 0.98524 0.06252 0.0
H511 H 0.40096 0.94689 0.05201 0.0
C512 C 0.43615 0.0443 0.99052 0.0
C513 C 0.42718 0.0559 0.02547 0.0
C514 C 0.42432 0.02227 0.98473 0.0
C515 C 0.40322 0.01116 0.01433 0.0
C516 C 0.39386 0.02275 0.04575 0.0
C517 C 0.40574 0.04496 0.05114 0.0
C518 C 0.36004 0.95354 0.98289 0.0
C519 C 0.37106 0.94282 1.00394 0.0
C520 C 0.37022 0.97573 0.98811 0.0
C521 C 0.39157 0.98756 0.01468 0.0
C522 C 0.40217 0.97668 0.03944 0.0
C523 C 0.3921 0.95464 0.03386 0.0
H524 H 0.45207 0.40173 0.10703 0.0
H525 H 0.39978 0.34324 0.2056 0.0
H526 H 0.43134 0.41907 0.12368 0.0
H527 H 0.37897 0.36109 0.22601 0.0
H528 H 0.34332 0.39911 0.17531 0.0
H529 H 0.36103 0.37821 0.15418 0.0
H530 H 0.42006 0.43164 0.24269 0.0
H531 H 0.40282 0.45243 0.26013 0.0
C532 C 0.43614 0.39259 0.13319 0.0
C533 C 0.42769 0.37118 0.15629 0.0
C534 C 0.42424 0.40259 0.1431 0.0
C535 C 0.40362 0.39164 0.17807 0.0
C536 C 0.3948 0.36998 0.19882 0.0
C537 C 0.40672 0.3598 0.18759 0.0
C538 C 0.36008 0.40628 0.19008 0.0
C539 C 0.37173 0.42752 0.21789 0.0
C540 C 0.37019 0.3943 0.17844 0.0
C541 C 0.39207 0.40336 0.19517 0.0
C542 C 0.40337 0.42432 0.2264 0.0
C543 C 0.39342 0.43626 0.2368 0.0
H544 H 0.05032 0.45404 0.28508 0.0
H545 H 0.05574 0.40044 0.37196 0.0
H546 H 0.01219 0.43335 0.29871 0.0
H547 H 0.01702 0.37964 0.3895 0.0
H548 H 0.94379 0.34468 0.33209 0.0
H549 H 0.98253 0.36264 0.31516 0.0
H550 H 0.98739 0.42062 0.41347 0.0
H551 H 0.94923 0.40316 0.42642 0.0
C552 C 0.04336 0.43784 0.30816 0.0
C553 C 0.05612 0.42898 0.32864 0.0
C554 C 0.02141 0.42595 0.31639 0.0
C555 C 0.01148 0.40493 0.34702 0.0
C556 C 0.02414 0.39578 0.36557 0.0
C557 C 0.0463 0.4077 0.35603 0.0
C558 C 0.95325 0.36127 0.34983 0.0
C559 C 0.94344 0.3726 0.37902 0.0
C560 C 0.97542 0.37152 0.34065 0.0
C561 C 0.98809 0.3932 0.36144 0.0
C562 C 0.97817 0.40413 0.39404 0.0
C563 C 0.95621 0.39406 0.40185 0.0
H564 H 0.5464 0.94974 0.59864 0.0
H565 H 0.59904 0.94334 0.50622 0.0
H566 H 0.56728 0.98781 0.58113 0.0
H567 H 0.61998 0.98192 0.48513 0.0
H568 H 0.65575 0.05552 0.53503 0.0
H569 H 0.63771 0.01691 0.55675 0.0
H570 H 0.57929 0.01169 0.46193 0.0
H571 H 0.59686 0.04973 0.44375 0.0
C572 C 0.56244 0.95647 0.57374 0.0
C573 C 0.57096 0.94347 0.5527 0.0
C574 C 0.57442 0.97837 0.56331 0.0
C575 C 0.5952 0.98796 0.52998 0.0
C576 C 0.60404 0.97506 0.51112 0.0
C577 C 0.59204 0.95298 0.52275 0.0
C578 C 0.63907 0.04602 0.51891 0.0
C579 C 0.62766 0.05571 0.48911 0.0
C580 C 0.62876 0.02393 0.53094 0.0
C581 C 0.60694 0.01122 0.51263 0.0
C582 C 0.59592 0.02098 0.47942 0.0
C583 C 0.60606 0.04287 0.46857 0.0
H584 H 0.65484 0.60104 0.74383 0.0
H585 H 0.59809 0.54655 0.64467 0.0
H586 H 0.63708 0.62209 0.73621 0.0
H587 H 0.58069 0.56752 0.63566 0.0
H588 H 0.54621 0.59958 0.73505 0.0
H589 H 0.56704 0.58203 0.74406 0.0
H590 H 0.62117 0.63756 0.63569 0.0
H591 H 0.60025 0.65548 0.62806 0.0
C592 C 0.63872 0.59365 0.71933 0.0
C593 C 0.62777 0.57204 0.6961 0.0
C594 C 0.62857 0.60571 0.71486 0.0
C595 C 0.60734 0.59635 0.68698 0.0
C596 C 0.59685 0.57505 0.65976 0.0
C597 C 0.60689 0.56305 0.66448 0.0
C598 C 0.56259 0.60816 0.71353 0.0
C599 C 0.57148 0.62883 0.6797 0.0
C600 C 0.57451 0.59804 0.71825 0.0
C601 C 0.59562 0.60822 0.68879 0.0
C602 C 0.60492 0.62929 0.65876 0.0
C603 C 0.59294 0.63953 0.65433 0.0
H604 H 0.04937 0.59628 0.92918 0.0
H605 H 0.05499 0.65473 0.83328 0.0
H606 H 0.01124 0.57878 0.9141 0.0
H607 H 0.01631 0.63673 0.81416 0.0
H608 H 0.94299 0.59897 0.86686 0.0
H609 H 0.98165 0.61975 0.88644 0.0
H610 H 0.9867 0.56598 0.79844 0.0
H611 H 0.9486 0.5453 0.78283 0.0
C612 C 0.04244 0.60537 0.90382 0.0
C613 C 0.05525 0.62684 0.88121 0.0
C614 C 0.0205 0.59527 0.89477 0.0
C615 C 0.01065 0.60618 0.86109 0.0
C616 C 0.02336 0.62786 0.84047 0.0
C617 C 0.0455 0.63814 0.85092 0.0
C618 C 0.95247 0.59169 0.85198 0.0
C619 C 0.94271 0.5704 0.82476 0.0
C620 C 0.97459 0.6036 0.86268 0.0
C621 C 0.9873 0.59444 0.8455 0.0
C622 C 0.97744 0.5734 0.81508 0.0
C623 C 0.95551 0.56152 0.8057 0.0
H624 H 0.52402 0.09924 0.99042 0.0
H625 H 0.50955 0.12527 0.76298 0.0
H626 H 0.55009 0.09521 0.90517 0.0
H627 H 0.53587 0.12151 0.67837 0.0
H628 H 0.57536 0.10021 0.53059 0.0
H629 H 0.54517 0.09613 0.61536 0.0
H630 H 0.58509 0.12061 0.84482 0.0
H631 H 0.61524 0.12441 0.76068 0.0
C632 C 0.52619 0.10387 0.92198 0.0
C633 C 0.51483 0.11278 0.88372 0.0
C634 C 0.54124 0.10167 0.87337 0.0
C635 C 0.54516 0.1082 0.78534 0.0
C636 C 0.53309 0.11616 0.7459 0.0
C637 C 0.51809 0.11844 0.79457 0.0
C638 C 0.57765 0.10442 0.59948 0.0
C639 C 0.59778 0.11283 0.63867 0.0
C640 C 0.56036 0.10219 0.64783 0.0
C641 C 0.56278 0.10821 0.7365 0.0
C642 C 0.58266 0.11566 0.77677 0.0
C643 C 0.59998 0.11797 0.72837 0.0
H644 H 0.42451 0.52556 0.17811 0.0
H645 H 0.38402 0.50879 0.9496 0.0
H646 H 0.45439 0.55157 0.09128 0.0
H647 H 0.41381 0.53497 0.86346 0.0
H648 H 0.48872 0.61594 0.93932 0.0
H649 H 0.46301 0.58597 0.02612 0.0
H650 H 0.44881 0.54474 0.80183 0.0
H651 H 0.47433 0.57477 0.71435 0.0
C652 C 0.42202 0.52721 0.10916 0.0
C653 C 0.40181 0.51525 0.07101 0.0
C654 C 0.43913 0.54221 0.05961 0.0
C655 C 0.43642 0.54544 0.97077 0.0
C656 C 0.41647 0.53274 0.9316 0.0
C657 C 0.39934 0.51783 0.98117 0.0
C658 C 0.48031 0.60045 0.90869 0.0
C659 C 0.4834 0.59782 0.81957 0.0
C660 C 0.46567 0.58323 0.95866 0.0
C661 C 0.45378 0.56302 0.92061 0.0
C662 C 0.45754 0.56019 0.8326 0.0
C663 C 0.47225 0.57739 0.78267 0.0
H664 H 0.87178 0.48872 0.09185 0.0
H665 H 0.89791 0.47352 0.86703 0.0
H666 H 0.87598 0.46309 0.17952 0.0
H667 H 0.90238 0.44809 0.95543 0.0
H668 H 0.87386 0.38377 0.10623 0.0
H669 H 0.87738 0.41336 0.01884 0.0
H670 H 0.90161 0.45444 0.24501 0.0
H671 H 0.8978 0.42476 0.33313 0.0
C672 C 0.8787 0.48014 0.06141 0.0
C673 C 0.88427 0.483 0.97211 0.0
C674 C 0.88125 0.46555 0.1119 0.0
C675 C 0.88939 0.45347 0.07423 0.0
C676 C 0.8958 0.45697 0.98595 0.0
C677 C 0.89333 0.47162 0.93548 0.0
C678 C 0.88018 0.39916 0.13719 0.0
C679 C 0.88531 0.40182 0.22696 0.0
C680 C 0.88234 0.41617 0.08688 0.0
C681 C 0.88964 0.43621 0.12519 0.0
C682 C 0.89567 0.43911 0.21397 0.0
C683 C 0.89359 0.42212 0.26427 0.0
H684 H 0.46166 0.88013 0.51159 0.0
H685 H 0.50167 0.89406 0.28407 0.0
H686 H 0.43511 0.88218 0.42404 0.0
H687 H 0.47629 0.89878 0.19696 0.0
H688 H 0.41686 0.87876 0.03728 0.0
H689 H 0.44578 0.88162 0.12511 0.0
H690 H 0.42086 0.89831 0.3508 0.0
H691 H 0.39049 0.8928 0.26347 0.0
C692 C 0.46496 0.8842 0.44282 0.0
C693 C 0.48351 0.88658 0.40409 0.0
C694 C 0.44978 0.88568 0.39226 0.0
C695 C 0.45313 0.89048 0.30205 0.0
C696 C 0.47251 0.89426 0.265 0.0
C697 C 0.4873 0.89185 0.31503 0.0
C698 C 0.41761 0.88299 0.10584 0.0
C699 C 0.40132 0.88523 0.14412 0.0
C700 C 0.43445 0.88496 0.15653 0.0
C701 C 0.43597 0.89012 0.24637 0.0
C702 C 0.42012 0.89359 0.28305 0.0
C703 C 0.40276 0.8907 0.23292 0.0
H704 H 0.57424 0.47428 0.66189 0.0
H705 H 0.6156 0.48896 0.43744 0.0
H706 H 0.54439 0.44848 0.57433 0.0
H707 H 0.5858 0.46297 0.35056 0.0
H708 H 0.50898 0.38362 0.42643 0.0
H709 H 0.53498 0.41352 0.51277 0.0
H710 H 0.55132 0.45407 0.28507 0.0
H711 H 0.52549 0.4241 0.19808 0.0
C712 C 0.57694 0.4722 0.59366 0.0
C713 C 0.59737 0.48354 0.55692 0.0
C714 C 0.55984 0.45733 0.5437 0.0
C715 C 0.56277 0.45358 0.45581 0.0
C716 C 0.58298 0.46562 0.41792 0.0
C717 C 0.6001 0.48042 0.46793 0.0
C718 C 0.51792 0.39896 0.39493 0.0
C719 C 0.51531 0.4014 0.30509 0.0
C720 C 0.53273 0.41614 0.44461 0.0
C721 C 0.5453 0.43612 0.40553 0.0
C722 C 0.54205 0.43879 0.31667 0.0
C723 C 0.52716 0.42163 0.26703 0.0
H724 H 0.10126 0.5264 0.37246 0.0
H725 H 0.12568 0.50995 0.59959 0.0
H726 H 0.09702 0.55203 0.46031 0.0
H727 H 0.12172 0.53577 0.68672 0.0
H728 H 0.1004 0.57477 0.83814 0.0
H729 H 0.09631 0.54501 0.7499 0.0
H730 H 0.1223 0.58646 0.52562 0.0
H731 H 0.1261 0.61614 0.61311 0.0
C732 C 0.10549 0.52805 0.4413 0.0
C733 C 0.11403 0.51627 0.47877 0.0
C734 C 0.10316 0.54283 0.49145 0.0
C735 C 0.10918 0.54604 0.58023 0.0
C736 C 0.11676 0.53355 0.61868 0.0
C737 C 0.11918 0.51884 0.56852 0.0
C738 C 0.10495 0.57749 0.76966 0.0
C739 C 0.1138 0.5979 0.73295 0.0
C740 C 0.10271 0.56045 0.71929 0.0
C741 C 0.10913 0.56341 0.63103 0.0
C742 C 0.11703 0.5836 0.59324 0.0
C743 C 0.11935 0.60066 0.64363 0.0
H744 H 0.43421 0.16886 0.10396 0.0
H745 H 0.49951 0.2052 0.01972 0.0
H746 H 0.4337 0.20174 0.1296 0.0
H747 H 0.49877 0.23783 0.04097 0.0
H748 H 0.4995 0.29344 0.17106 0.0
H749 H 0.49876 0.26008 0.15024 0.0
H750 H 0.43366 0.23101 0.06179 0.0
H751 H 0.43417 0.26443 0.08703 0.0
C752 C 0.44839 0.18387 0.09034 0.0
C753 C 0.46693 0.18443 0.06043 0.0
C754 C 0.44808 0.20273 0.10443 0.0
C755 C 0.46623 0.22255 0.08781 0.0
C756 C 0.48463 0.22297 0.05665 0.0
C757 C 0.48504 0.2042 0.04394 0.0
C758 C 0.48502 0.27996 0.14699 0.0
C759 C 0.46691 0.28161 0.13035 0.0
C760 C 0.48462 0.26078 0.13452 0.0
C761 C 0.46621 0.24278 0.10346 0.0
C762 C 0.44804 0.24443 0.08685 0.0
C763 C 0.44835 0.26361 0.10071 0.0
H764 H 0.16908 0.43429 0.26216 0.0
H765 H 0.20559 0.49961 0.34596 0.0
H766 H 0.20193 0.43347 0.23953 0.0
H767 H 0.2381 0.49855 0.3278 0.0
H768 H 0.29388 0.49904 0.20176 0.0
H769 H 0.26049 0.49836 0.21984 0.0
H770 H 0.23105 0.43334 0.3093 0.0
H771 H 0.26454 0.43378 0.28674 0.0
C772 C 0.1841 0.44841 0.27629 0.0
C773 C 0.18474 0.46706 0.30506 0.0
C774 C 0.20294 0.44791 0.26395 0.0
C775 C 0.22278 0.46599 0.28124 0.0
C776 C 0.22324 0.48448 0.31151 0.0
C777 C 0.20452 0.48506 0.32244 0.0
C778 C 0.28032 0.48459 0.22552 0.0
C779 C 0.2819 0.46649 0.24328 0.0
C780 C 0.26112 0.48422 0.23641 0.0
C781 C 0.243 0.46586 0.26702 0.0
C782 C 0.24456 0.44769 0.28464 0.0
C783 C 0.26378 0.44796 0.27233 0.0
H784 H 0.73497 0.16907 0.42294 0.0
H785 H 0.70591 0.20508 0.51027 0.0
H786 H 0.76843 0.20208 0.39943 0.0
H787 H 0.7393 0.23777 0.49112 0.0
H788 H 0.79395 0.29378 0.36261 0.0
H789 H 0.76144 0.26025 0.38207 0.0
H790 H 0.79773 0.23132 0.46864 0.0
H791 H 0.83056 0.26494 0.44479 0.0
C792 C 0.73578 0.18402 0.43769 0.0
C793 C 0.71775 0.18446 0.4677 0.0
C794 C 0.75499 0.20295 0.42482 0.0
C795 C 0.75663 0.2227 0.44278 0.0
C796 C 0.7386 0.22298 0.47433 0.0
C797 C 0.71941 0.20416 0.48582 0.0
C798 C 0.79504 0.2803 0.38602 0.0
C799 C 0.81485 0.28206 0.40256 0.0
C800 C 0.77633 0.26103 0.3977 0.0
C801 C 0.77683 0.24301 0.42787 0.0
C802 C 0.79669 0.24475 0.44432 0.0
C803 C 0.81551 0.26405 0.43127 0.0
H804 H 0.56428 0.83008 0.61684 0.0
H805 H 0.49976 0.79416 0.52271 0.0
H806 H 0.5646 0.79708 0.64192 0.0
H807 H 0.50034 0.76143 0.5435 0.0
H808 H 0.49853 0.70535 0.67553 0.0
H809 H 0.49939 0.73874 0.65323 0.0
H810 H 0.56517 0.76807 0.57416 0.0
H811 H 0.56451 0.73464 0.60078 0.0
C812 C 0.55024 0.81515 0.60084 0.0
C813 C 0.53195 0.81473 0.56845 0.0
C814 C 0.55045 0.79622 0.61463 0.0
C815 C 0.53245 0.77648 0.59524 0.0
C816 C 0.51433 0.77622 0.56135 0.0
C817 C 0.51402 0.79505 0.5489 0.0
C818 C 0.51319 0.71889 0.65318 0.0
C819 C 0.53145 0.71732 0.63972 0.0
C820 C 0.51366 0.73809 0.63985 0.0
C821 C 0.53231 0.75618 0.61114 0.0
C822 C 0.5506 0.75459 0.59743 0.0
C823 C 0.5502 0.73539 0.61208 0.0
H824 H 0.79637 0.50075 0.74392 0.0
H825 H 0.82759 0.56558 0.83593 0.0
H826 H 0.76368 0.5016 0.7231 0.0
H827 H 0.7946 0.56621 0.81802 0.0
H828 H 0.73662 0.56574 0.6952 0.0
H829 H 0.77018 0.56629 0.7135 0.0
H830 H 0.73627 0.50157 0.80707 0.0
H831 H 0.70278 0.5008 0.78583 0.0
C832 C 0.79623 0.51518 0.76004 0.0
C833 C 0.81457 0.53306 0.79203 0.0
C834 C 0.77742 0.51562 0.74872 0.0
C835 C 0.77636 0.53389 0.7699 0.0
C836 C 0.79484 0.55193 0.8003 0.0
C837 C 0.81376 0.55155 0.81087 0.0
C838 C 0.73635 0.55166 0.72004 0.0
C839 C 0.71701 0.53317 0.73838 0.0
C840 C 0.75562 0.552 0.73086 0.0
C841 C 0.75598 0.53391 0.76101 0.0
C842 C 0.73662 0.51563 0.78169 0.0
C843 C 0.71738 0.51523 0.77012 0.0
H844 H 0.20116 0.70315 0.96557 0.0
H845 H 0.17079 0.73714 0.86821 0.0
H846 H 0.23387 0.73655 0.98828 0.0
H847 H 0.20384 0.77064 0.88791 0.0
H848 H 0.26151 0.82803 0.01215 0.0
H849 H 0.2279 0.79511 0.99302 0.0
H850 H 0.26181 0.76374 0.90629 0.0
H851 H 0.29533 0.79637 0.9285 0.0
C852 C 0.2015 0.71778 0.94865 0.0
C853 C 0.1834 0.71747 0.91463 0.0
C854 C 0.22033 0.73696 0.96107 0.0
C855 C 0.22164 0.75635 0.93892 0.0
C856 C 0.20339 0.75606 0.90646 0.0
C857 C 0.18444 0.73684 0.89485 0.0
C858 C 0.26177 0.81411 0.98874 0.0
C859 C 0.28111 0.81478 0.97252 0.0
C860 C 0.24247 0.79524 0.9774 0.0
C861 C 0.24208 0.77666 0.9488 0.0
C862 C 0.26146 0.77756 0.93045 0.0
C863 C 0.28072 0.79633 0.94259 0.0
H864 H 0.52708 0.16455 0.28926 0.0
H865 H 0.54748 0.15107 0.04433 0.0
H866 H 0.56072 0.17263 0.35667 0.0
H867 H 0.57987 0.15674 0.11203 0.0
H868 H 0.63805 0.16612 0.23765 0.0
H869 H 0.61208 0.1737 0.17094 0.0
H870 H 0.57662 0.15621 0.41468 0.0
H871 H 0.60371 0.15105 0.48186 0.0
C872 C 0.53892 0.16351 0.24993 0.0
C873 C 0.53484 0.15734 0.16184 0.0
C874 C 0.55813 0.16779 0.28861 0.0
C875 C 0.57321 0.16496 0.24108 0.0
C876 C 0.56921 0.1596 0.15149 0.0
C877 C 0.55044 0.15616 0.11224 0.0
C878 C 0.62498 0.16463 0.27701 0.0
C879 C 0.62288 0.15814 0.36466 0.0
C880 C 0.60982 0.16862 0.23869 0.0
C881 C 0.59166 0.16515 0.28608 0.0
C882 C 0.5903 0.15953 0.37535 0.0
C883 C 0.60586 0.1564 0.4143 0.0
H884 H 0.37941 0.55246 0.23559 0.0
H885 H 0.37471 0.52199 0.48463 0.0
H886 H 0.40569 0.58648 0.29794 0.0
H887 H 0.40096 0.55597 0.54657 0.0
H888 H 0.47686 0.62369 0.40298 0.0
H889 H 0.443 0.59736 0.34036 0.0
H890 H 0.41189 0.59342 0.58651 0.0
H891 H 0.44579 0.61977 0.64955 0.0
C892 C 0.38348 0.55309 0.30432 0.0
C893 C 0.37519 0.53444 0.35484 0.0
C894 C 0.39864 0.57258 0.33978 0.0
C895 C 0.40558 0.57385 0.42674 0.0
C896 C 0.39587 0.55555 0.47945 0.0
C897 C 0.38088 0.53603 0.44381 0.0
C898 C 0.46272 0.61767 0.44307 0.0
C899 C 0.46411 0.6236 0.53162 0.0
C900 C 0.44327 0.60264 0.40702 0.0
C901 C 0.42482 0.59313 0.45892 0.0
C902 C 0.4259 0.60032 0.54532 0.0
C903 C 0.44532 0.61551 0.58117 0.0
H904 H 0.85129 0.37495 0.64102 0.0
H905 H 0.82544 0.37917 0.39138 0.0
H906 H 0.84333 0.4011 0.70204 0.0
H907 H 0.81744 0.40533 0.45283 0.0
H908 H 0.85142 0.47667 0.556 0.0
H909 H 0.84375 0.44271 0.49425 0.0
H910 H 0.81677 0.41199 0.74129 0.0
H911 H 0.82448 0.44601 0.80347 0.0
C912 C 0.84335 0.38099 0.59988 0.0
C913 C 0.83932 0.37522 0.51099 0.0
C914 C 0.83867 0.39591 0.63501 0.0
C915 C 0.82999 0.40546 0.58184 0.0
C916 C 0.82435 0.3984 0.49501 0.0
C917 C 0.82884 0.38332 0.46005 0.0
C918 C 0.8433 0.46259 0.59646 0.0
C919 C 0.83889 0.46413 0.68503 0.0
C920 C 0.83879 0.44308 0.56091 0.0
C921 C 0.82989 0.42472 0.61334 0.0
C922 C 0.82386 0.42593 0.69971 0.0
C923 C 0.82818 0.44542 0.73507 0.0
H924 H 0.36227 0.83588 0.73905 0.0
H925 H 0.39144 0.84202 0.99135 0.0
H926 H 0.38716 0.82705 0.67324 0.0
H927 H 0.41811 0.83637 0.92647 0.0
H928 H 0.47175 0.83489 0.80298 0.0
H929 H 0.43793 0.82605 0.86773 0.0
H930 H 0.41739 0.83728 0.61552 0.0
H931 H 0.44977 0.84291 0.55131 0.0
C932 C 0.37415 0.83536 0.7802 0.0
C933 C 0.37511 0.83985 0.86983 0.0
C934 C 0.3889 0.83072 0.74238 0.0
C935 C 0.40584 0.83177 0.79233 0.0
C936 C 0.40576 0.83515 0.88357 0.0
C937 C 0.39038 0.83866 0.92172 0.0
C938 C 0.45956 0.83479 0.76175 0.0
C939 C 0.46343 0.83983 0.67264 0.0
C940 C 0.44012 0.83015 0.79901 0.0
C941 C 0.42452 0.83175 0.74917 0.0
C942 C 0.42829 0.83564 0.6583 0.0
C943 C 0.44723 0.83915 0.62058 0.0
H944 H 0.62271 0.47786 0.9742 0.0
H945 H 0.62021 0.44674 0.72937 0.0
H946 H 0.59672 0.44387 0.03686 0.0
H947 H 0.59419 0.41272 0.79242 0.0
H948 H 0.52253 0.37433 0.89157 0.0
H949 H 0.55639 0.40107 0.83042 0.0
H950 H 0.58668 0.40676 0.08055 0.0
H951 H 0.55279 0.37998 0.14207 0.0
C952 C 0.61707 0.4637 0.93453 0.0
C953 C 0.62331 0.46509 0.8464 0.0
C954 C 0.60225 0.44417 0.97061 0.0
C955 C 0.59323 0.42565 0.91915 0.0
C956 C 0.60071 0.42677 0.83326 0.0
C957 C 0.61571 0.44627 0.79741 0.0
C958 C 0.53652 0.38082 0.93289 0.0
C959 C 0.53488 0.37524 0.02198 0.0
C960 C 0.55596 0.39609 0.89772 0.0
C961 C 0.57414 0.4062 0.95107 0.0
C962 C 0.57287 0.39939 0.03823 0.0
C963 C 0.55346 0.38395 0.07321 0.0
H964 H 0.14817 0.5233 0.0647 0.0
H965 H 0.17359 0.55356 0.31441 0.0
H966 H 0.15565 0.55726 1.00346 0.0
H967 H 0.18111 0.58756 0.25275 0.0
H968 H 0.17375 0.62089 0.90188 0.0
H969 H 0.1818 0.59483 0.96422 0.0
H970 H 0.15442 0.59809 0.21088 0.0
H971 H 0.1464 0.62414 0.14897 0.0
C972 C 0.15593 0.5373 0.1058 0.0
C973 C 0.15996 0.53564 0.19477 0.0
C974 C 0.16033 0.55681 0.07056 0.0
C975 C 0.16873 0.57504 0.12368 0.0
C976 C 0.1744 0.57373 0.2106 0.0
C977 C 0.1702 0.55424 0.24567 0.0
C978 C 0.17002 0.61655 0.97023 0.0
C979 C 0.15911 0.62435 0.02012 0.0
C980 C 0.17454 0.60152 1.00569 0.0
C981 C 0.16851 0.59422 0.09201 0.0
C982 C 0.15938 0.60347 0.14427 0.0
C983 C 0.15467 0.61833 0.10863 0.0
loop_
_geom_bond_atom_site_label_1
_geom_bond_atom_site_label_2
_geom_bond_distance
_geom_bond_site_symmetry_2
_ccdc_geom_bond_type
Fe0 O2 1.918 . S
Fe0 O5 1.997 . S
Fe0 O6 2.002 . S
Fe0 O11 1.976 1_554 S
Fe0 O14 1.996 . S
Fe1 O2 1.918 1_556 S
Fe1 O9 1.997 1_556 S
Fe1 O12 1.996 . S
Fe1 O16 1.976 . S
Fe1 O19 2.002 . S
O2 Fe0 1.918 . S
O2 Fe1 1.918 1_554 S
O2 Fe3 1.918 . S
Fe3 O2 1.918 . S
Fe3 O4 2.002 . S
Fe3 O13 1.975 1_554 S
Fe3 O17 1.996 1_554 S
Fe3 O20 1.997 . S
O4 Fe3 2.002 . S
O4 C21 1.295 . S
O5 Fe0 1.997 . S
O5 C21 1.235 . S
O6 Fe0 2.002 . S
O6 C7 1.295 . S
C7 O6 1.295 . S
C7 O9 1.235 . S
C8 O13 1.286 1_554 S
C8 O14 1.255 . S
O9 Fe1 1.997 1_554 S
O9 C7 1.235 . S
C10 O16 1.287 . S
C10 O17 1.255 . S
O11 Fe0 1.976 1_556 S
O11 C18 1.287 . S
O12 Fe1 1.996 . S
O12 C18 1.255 . S
O13 Fe3 1.975 1_556 S
O13 C8 1.286 1_556 S
O14 Fe0 1.996 . S
O14 C8 1.255 . S
C15 O19 1.295 1_554 S
C15 O20 1.235 . S
O16 Fe1 1.976 . S
O16 C10 1.287 . S
O17 Fe3 1.996 1_556 S
O17 C10 1.255 . S
C18 O11 1.287 . S
C18 O12 1.255 . S
O19 Fe1 2.002 . S
O19 C15 1.295 1_556 S
O20 Fe3 1.997 . S
O20 C15 1.235 . S
C21 O4 1.295 . S
C21 O5 1.235 . S
Fe22 O24 1.918 . S
Fe22 O27 1.997 . S
Fe22 O28 2.002 . S
Fe22 O33 1.976 . S
Fe22 O36 1.996 . S
Fe23 O24 1.918 . S
Fe23 O31 1.997 . S
Fe23 O34 1.996 . S
Fe23 O38 1.976 . S
Fe23 O41 2.002 . S
O24 Fe22 1.918 . S
O24 Fe23 1.918 . S
O24 Fe25 1.918 . S
Fe25 O24 1.918 . S
Fe25 O26 2.002 . S
Fe25 O35 1.976 . S
Fe25 O39 1.996 . S
Fe25 O42 1.997 . S
O26 Fe25 2.002 . S
O26 C43 1.295 . S
O27 Fe22 1.997 . S
O27 C43 1.235 . S
O28 Fe22 2.002 . S
O28 C29 1.295 . S
C29 O28 1.295 . S
C29 O31 1.235 . S
C30 O35 1.287 . S
C30 O36 1.255 . S
O31 Fe23 1.997 . S
O31 C29 1.235 . S
C32 O38 1.287 . S
C32 O39 1.255 . S
O33 Fe22 1.976 . S
O33 C40 1.287 . S
O34 Fe23 1.996 . S
O34 C40 1.255 . S
O35 Fe25 1.976 . S
O35 C30 1.287 . S
O36 Fe22 1.996 . S
O36 C30 1.255 . S
C37 O41 1.295 . S
C37 O42 1.235 . S
O38 Fe23 1.976 . S
O38 C32 1.287 . S
O39 Fe25 1.996 . S
O39 C32 1.255 . S
C40 O33 1.287 . S
C40 O34 1.255 . S
O41 Fe23 2.002 . S
O41 C37 1.295 . S
O42 Fe25 1.997 . S
O42 C37 1.235 . S
C43 O26 1.295 . S
C43 O27 1.235 . S
Fe44 O46 1.918 . S
Fe44 O49 1.997 . S
Fe44 O50 2.002 . S
Fe44 O55 1.976 . S
Fe44 O58 1.996 . S
Fe45 O46 1.918 . S
Fe45 O53 1.997 . S
Fe45 O56 1.996 . S
Fe45 O60 1.976 . S
Fe45 O63 2.002 . S
O46 Fe44 1.918 . S
O46 Fe45 1.918 . S
O46 Fe47 1.918 . S
Fe47 O46 1.918 . S
Fe47 O48 2.002 . S
Fe47 O57 1.976 . S
Fe47 O61 1.996 . S
Fe47 O64 1.997 . S
O48 Fe47 2.002 . S
O48 C65 1.295 . S
O49 Fe44 1.997 . S
O49 C65 1.235 . S
O50 Fe44 2.002 . S
O50 C51 1.295 . S
C51 O50 1.295 . S
C51 O53 1.235 . S
C52 O57 1.287 . S
C52 O58 1.255 . S
O53 Fe45 1.997 . S
O53 C51 1.235 . S
C54 O60 1.287 . S
C54 O61 1.255 . S
O55 Fe44 1.976 . S
O55 C62 1.287 . S
O56 Fe45 1.996 . S
O56 C62 1.255 . S
O57 Fe47 1.976 . S
O57 C52 1.287 . S
O58 Fe44 1.996 . S
O58 C52 1.255 . S
C59 O63 1.295 . S
C59 O64 1.235 . S
O60 Fe45 1.976 . S
O60 C54 1.287 . S
O61 Fe47 1.996 . S
O61 C54 1.255 . S
C62 O55 1.287 . S
C62 O56 1.255 . S
O63 Fe45 2.002 . S
O63 C59 1.295 . S
O64 Fe47 1.997 . S
O64 C59 1.235 . S
C65 O48 1.295 . S
C65 O49 1.235 . S
Fe66 O68 1.918 . S
Fe66 O71 1.997 . S
Fe66 O72 2.002 . S
Fe66 O77 1.976 . S
Fe66 O80 1.996 . S
Fe67 O68 1.918 . S
Fe67 O75 1.997 . S
Fe67 O78 1.996 . S
Fe67 O82 1.976 . S
Fe67 O85 2.002 . S
O68 Fe66 1.918 . S
O68 Fe67 1.918 . S
O68 Fe69 1.918 . S
Fe69 O68 1.918 . S
Fe69 O70 2.002 . S
Fe69 O79 1.976 . S
Fe69 O83 1.996 . S
Fe69 O86 1.997 . S
O70 Fe69 2.002 . S
O70 C87 1.295 . S
O71 Fe66 1.997 . S
O71 C87 1.235 . S
O72 Fe66 2.002 . S
O72 C73 1.295 . S
C73 O72 1.295 . S
C73 O75 1.235 . S
C74 O79 1.287 . S
C74 O80 1.255 . S
O75 Fe67 1.997 . S
O75 C73 1.235 . S
C76 O82 1.287 . S
C76 O83 1.255 . S
O77 Fe66 1.976 . S
O77 C84 1.287 . S
O78 Fe67 1.996 . S
O78 C84 1.255 . S
O79 Fe69 1.976 . S
O79 C74 1.287 . S
O80 Fe66 1.996 . S
O80 C74 1.255 . S
C81 O85 1.295 . S
C81 O86 1.235 . S
O82 Fe67 1.976 . S
O82 C76 1.287 . S
O83 Fe69 1.996 . S
O83 C76 1.255 . S
C84 O77 1.287 . S
C84 O78 1.255 . S
O85 Fe67 2.002 . S
O85 C81 1.295 . S
O86 Fe69 1.997 . S
O86 C81 1.235 . S
C87 O70 1.295 . S
C87 O71 1.235 . S
Fe88 O90 1.918 . S
Fe88 O93 1.997 . S
Fe88 O94 2.002 . S
Fe88 O99 1.976 . S
Fe88 O102 1.996 . S
Fe89 O90 1.918 . S
Fe89 O97 1.997 . S
Fe89 O100 1.996 . S
Fe89 O104 1.976 . S
Fe89 O107 2.002 . S
O90 Fe88 1.918 . S
O90 Fe89 1.918 . S
O90 Fe91 1.918 . S
Fe91 O90 1.918 . S
Fe91 O92 2.002 . S
Fe91 O101 1.976 . S
Fe91 O105 1.996 . S
Fe91 O108 1.997 . S
O92 Fe91 2.002 . S
O92 C109 1.295 . S
O93 Fe88 1.997 . S
O93 C109 1.235 . S
O94 Fe88 2.002 . S
O94 C95 1.295 . S
C95 O94 1.295 . S
C95 O97 1.235 . S
C96 O101 1.287 . S
C96 O102 1.255 . S
O97 Fe89 1.997 . S
O97 C95 1.235 . S
C98 O104 1.287 . S
C98 O105 1.255 . S
O99 Fe88 1.976 . S
O99 C106 1.287 . S
O100 Fe89 1.996 . S
O100 C106 1.255 . S
O101 Fe91 1.976 . S
O101 C96 1.287 . S
O102 Fe88 1.996 . S
O102 C96 1.255 . S
C103 O107 1.295 . S
C103 O108 1.235 . S
O104 Fe89 1.976 . S
O104 C98 1.287 . S
O105 Fe91 1.996 . S
O105 C98 1.255 . S
C106 O99 1.287 . S
C106 O100 1.255 . S
O107 Fe89 2.002 . S
O107 C103 1.295 . S
O108 Fe91 1.997 . S
O108 C103 1.235 . S
C109 O92 1.295 . S
C109 O93 1.235 . S
Fe110 O112 1.918 . S
Fe110 O115 1.997 . S
Fe110 O116 2.002 . S
Fe110 O121 1.976 . S
Fe110 O124 1.996 . S
Fe111 O112 1.918 . S
Fe111 O119 1.997 1_556 S
Fe111 O122 1.996 . S
Fe111 O126 1.976 . S
Fe111 O129 2.002 . S
O112 Fe110 1.918 . S
O112 Fe111 1.918 . S
O112 Fe113 1.918 . S
Fe113 O112 1.918 . S
Fe113 O114 2.002 . S
Fe113 O123 1.976 . S
Fe113 O127 1.996 . S
Fe113 O130 1.997 . S
O114 Fe113 2.002 . S
O114 C131 1.295 . S
O115 Fe110 1.997 . S
O115 C131 1.235 . S
O116 Fe110 2.002 . S
O116 C117 1.295 1_556 S
C117 O116 1.295 1_554 S
C117 O119 1.235 . S
C118 O123 1.287 . S
C118 O124 1.255 . S
O119 Fe111 1.997 1_554 S
O119 C117 1.235 . S
C120 O126 1.287 . S
C120 O127 1.255 . S
O121 Fe110 1.976 . S
O121 C128 1.287 . S
O122 Fe111 1.996 . S
O122 C128 1.255 . S
O123 Fe113 1.976 . S
O123 C118 1.287 . S
O124 Fe110 1.996 . S
O124 C118 1.255 . S
C125 O129 1.295 . S
C125 O130 1.235 . S
O126 Fe111 1.976 . S
O126 C120 1.287 . S
O127 Fe113 1.996 . S
O127 C120 1.255 . S
C128 O121 1.287 . S
C128 O122 1.255 . S
O129 Fe111 2.002 . S
O129 C125 1.295 . S
O130 Fe113 1.997 . S
O130 C125 1.235 . S
C131 O114 1.295 . S
C131 O115 1.235 . S
Fe132 O134 1.918 . S
Fe132 O137 1.997 . S
Fe132 O138 2.002 . S
Fe132 O143 1.976 . S
Fe132 O146 1.996 . S
Fe133 O134 1.918 . S
Fe133 O141 1.997 . S
Fe133 O144 1.996 . S
Fe133 O148 1.976 . S
Fe133 O151 2.002 . S
O134 Fe132 1.918 . S
O134 Fe133 1.918 . S
O134 Fe135 1.918 . S
Fe135 O134 1.918 . S
Fe135 O136 2.002 . S
Fe135 O145 1.976 1_556 S
Fe135 O149 1.996 . S
Fe135 O152 1.997 . S
O136 Fe135 2.002 . S
O136 C153 1.295 . S
O137 Fe132 1.997 . S
O137 C153 1.235 . S
O138 Fe132 2.002 . S
O138 C139 1.295 . S
C139 O138 1.295 . S
C139 O141 1.235 . S
C140 O145 1.287 . S
C140 O146 1.255 1_554 S
O141 Fe133 1.997 . S
O141 C139 1.235 . S
C142 O148 1.287 . S
C142 O149 1.255 . S
O143 Fe132 1.976 . S
O143 C150 1.287 . S
O144 Fe133 1.996 . S
O144 C150 1.255 . S
O145 Fe135 1.976 1_554 S
O145 C140 1.287 . S
O146 Fe132 1.996 . S
O146 C140 1.255 1_556 S
C147 O151 1.295 . S
C147 O152 1.235 . S
O148 Fe133 1.976 . S
O148 C142 1.287 . S
O149 Fe135 1.996 . S
O149 C142 1.255 . S
C150 O143 1.287 . S
C150 O144 1.255 . S
O151 Fe133 2.002 . S
O151 C147 1.295 . S
O152 Fe135 1.997 . S
O152 C147 1.235 . S
C153 O136 1.295 . S
C153 O137 1.235 . S
Fe154 O156 1.918 . S
Fe154 O159 1.996 1_554 S
Fe154 O160 2.000 1_554 S
Fe154 O165 1.976 . S
Fe154 O168 1.998 . S
Fe155 O156 1.918 1_556 S
Fe155 O163 1.997 . S
Fe155 O166 1.996 . S
Fe155 O170 1.976 1_556 S
Fe155 O173 2.002 . S
O156 Fe154 1.918 . S
O156 Fe155 1.918 1_554 S
O156 Fe157 1.918 . S
Fe157 O156 1.918 . S
Fe157 O158 2.002 . S
Fe157 O167 1.976 . S
Fe157 O171 1.996 . S
Fe157 O174 1.997 1_554 S
O158 Fe157 2.002 . S
O158 C175 1.295 1_554 S
O159 Fe154 1.996 1_556 S
O159 C175 1.235 . S
O160 Fe154 2.000 1_556 S
O160 C161 1.295 . S
C161 O160 1.295 . S
C161 O163 1.235 . S
C162 O167 1.287 . S
C162 O168 1.255 . S
O163 Fe155 1.997 . S
O163 C161 1.235 . S
C164 O170 1.287 . S
C164 O171 1.255 . S
O165 Fe154 1.976 . S
O165 C172 1.287 . S
O166 Fe155 1.996 . S
O166 C172 1.255 1_556 S
O167 Fe157 1.976 . S
O167 C162 1.287 . S
O168 Fe154 1.998 . S
O168 C162 1.255 . S
C169 O173 1.295 . S
C169 O174 1.235 . S
O170 Fe155 1.976 1_554 S
O170 C164 1.287 . S
O171 Fe157 1.996 . S
O171 C164 1.255 . S
C172 O165 1.287 . S
C172 O166 1.255 1_554 S
O173 Fe155 2.002 . S
O173 C169 1.295 . S
O174 Fe157 1.997 1_556 S
O174 C169 1.235 . S
C175 O158 1.295 1_556 S
C175 O159 1.235 . S
Fe176 O178 1.918 . S
Fe176 O181 1.997 . S
Fe176 O182 2.002 . S
Fe176 O187 1.976 . S
Fe176 O190 1.996 . S
Fe177 O178 1.918 . S
Fe177 O185 1.997 . S
Fe177 O188 1.996 . S
Fe177 O192 1.976 . S
Fe177 O195 2.002 . S
O178 Fe176 1.918 . S
O178 Fe177 1.918 . S
O178 Fe179 1.918 . S
Fe179 O178 1.918 . S
Fe179 O180 2.002 . S
Fe179 O189 1.976 . S
Fe179 O193 1.996 . S
Fe179 O196 1.997 . S
O180 Fe179 2.002 . S
O180 C197 1.295 . S
O181 Fe176 1.997 . S
O181 C197 1.235 . S
O182 Fe176 2.002 . S
O182 C183 1.295 1_554 S
C183 O182 1.295 1_556 S
C183 O185 1.235 1_556 S
C184 O189 1.287 . S
C184 O190 1.255 . S
O185 Fe177 1.997 . S
O185 C183 1.235 1_554 S
C186 O192 1.287 . S
C186 O193 1.255 . S
O187 Fe176 1.976 . S
O187 C194 1.287 . S
O188 Fe177 1.996 . S
O188 C194 1.255 . S
O189 Fe179 1.976 . S
O189 C184 1.287 . S
O190 Fe176 1.996 . S
O190 C184 1.255 . S
C191 O195 1.295 . S
C191 O196 1.235 . S
O192 Fe177 1.976 . S
O192 C186 1.287 . S
O193 Fe179 1.996 . S
O193 C186 1.255 . S
C194 O187 1.287 . S
C194 O188 1.255 . S
O195 Fe177 2.002 . S
O195 C191 1.295 . S
O196 Fe179 1.997 . S
O196 C191 1.235 . S
C197 O180 1.295 . S
C197 O181 1.235 . S
Fe198 O200 1.918 . S
Fe198 O203 1.997 . S
Fe198 O204 2.002 . S
Fe198 O209 1.976 . S
Fe198 O212 1.996 . S
Fe199 O200 1.918 . S
Fe199 O207 1.997 . S
Fe199 O210 1.996 . S
Fe199 O214 1.976 . S
Fe199 O217 2.002 . S
O200 Fe198 1.918 . S
O200 Fe199 1.918 . S
O200 Fe201 1.918 . S
Fe201 O200 1.918 . S
Fe201 O202 2.002 . S
Fe201 O211 1.976 . S
Fe201 O215 1.996 . S
Fe201 O218 1.997 . S
O202 Fe201 2.002 . S
O202 C219 1.295 . S
O203 Fe198 1.997 . S
O203 C219 1.235 . S
O204 Fe198 2.002 . S
O204 C205 1.295 . S
C205 O204 1.295 . S
C205 O207 1.235 . S
C206 O211 1.287 . S
C206 O212 1.255 . S
O207 Fe199 1.997 . S
O207 C205 1.235 . S
C208 O214 1.287 . S
C208 O215 1.255 . S
O209 Fe198 1.976 . S
O209 C216 1.287 . S
O210 Fe199 1.996 . S
O210 C216 1.255 . S
O211 Fe201 1.976 . S
O211 C206 1.287 . S
O212 Fe198 1.996 . S
O212 C206 1.255 . S
C213 O217 1.295 . S
C213 O218 1.235 . S
O214 Fe199 1.976 . S
O214 C208 1.287 . S
O215 Fe201 1.996 . S
O215 C208 1.255 . S
C216 O209 1.287 . S
C216 O210 1.255 . S
O217 Fe199 2.002 . S
O217 C213 1.295 . S
O218 Fe201 1.997 . S
O218 C213 1.235 . S
C219 O202 1.295 . S
C219 O203 1.235 . S
Fe220 O222 1.918 . S
Fe220 O225 1.997 . S
Fe220 O226 2.002 . S
Fe220 O231 1.976 . S
Fe220 O234 1.996 . S
Fe221 O222 1.918 . S
Fe221 O229 1.997 . S
Fe221 O232 1.996 . S
Fe221 O236 1.976 . S
Fe221 O239 2.002 . S
O222 Fe220 1.918 . S
O222 Fe221 1.918 . S
O222 Fe223 1.918 . S
Fe223 O222 1.918 . S
Fe223 O224 2.002 . S
Fe223 O233 1.976 . S
Fe223 O237 1.996 . S
Fe223 O240 1.997 . S
O224 Fe223 2.002 . S
O224 C241 1.295 . S
O225 Fe220 1.997 . S
O225 C241 1.235 . S
O226 Fe220 2.002 . S
O226 C227 1.295 . S
C227 O226 1.295 . S
C227 O229 1.235 . S
C228 O233 1.287 . S
C228 O234 1.255 . S
O229 Fe221 1.997 . S
O229 C227 1.235 . S
C230 O236 1.287 . S
C230 O237 1.255 . S
O231 Fe220 1.976 . S
O231 C238 1.287 . S
O232 Fe221 1.996 . S
O232 C238 1.255 . S
O233 Fe223 1.976 . S
O233 C228 1.287 . S
O234 Fe220 1.996 . S
O234 C228 1.255 . S
C235 O239 1.295 . S
C235 O240 1.235 . S
O236 Fe221 1.976 . S
O236 C230 1.287 . S
O237 Fe223 1.996 . S
O237 C230 1.255 . S
C238 O231 1.287 . S
C238 O232 1.255 . S
O239 Fe221 2.002 . S
O239 C235 1.295 . S
O240 Fe223 1.997 . S
O240 C235 1.235 . S
C241 O224 1.295 . S
C241 O225 1.235 . S
Fe242 O244 1.918 . S
Fe242 O247 1.997 . S
Fe242 O248 2.002 . S
Fe242 O253 1.976 . S
Fe242 O256 1.996 . S
Fe243 O244 1.918 . S
Fe243 O251 1.997 . S
Fe243 O254 1.996 . S
Fe243 O258 1.976 . S
Fe243 O261 2.002 . S
O244 Fe242 1.918 . S
O244 Fe243 1.918 . S
O244 Fe245 1.918 . S
Fe245 O244 1.918 . S
Fe245 O246 2.002 . S
Fe245 O255 1.976 . S
Fe245 O259 1.996 . S
Fe245 O262 1.997 . S
O246 Fe245 2.002 . S
O246 C263 1.295 . S
O247 Fe242 1.997 . S
O247 C263 1.235 . S
O248 Fe242 2.002 . S
O248 C249 1.295 . S
C249 O248 1.295 . S
C249 O251 1.235 . S
C250 O255 1.287 . S
C250 O256 1.255 . S
O251 Fe243 1.997 . S
O251 C249 1.235 . S
C252 O258 1.287 . S
C252 O259 1.255 . S
O253 Fe242 1.976 . S
O253 C260 1.287 . S
O254 Fe243 1.996 . S
O254 C260 1.255 . S
O255 Fe245 1.976 . S
O255 C250 1.287 . S
O256 Fe242 1.996 . S
O256 C250 1.255 . S
C257 O261 1.295 . S
C257 O262 1.235 . S
O258 Fe243 1.976 . S
O258 C252 1.287 . S
O259 Fe245 1.996 . S
O259 C252 1.255 . S
C260 O253 1.287 . S
C260 O254 1.255 . S
O261 Fe243 2.002 . S
O261 C257 1.295 . S
O262 Fe245 1.997 . S
O262 C257 1.235 . S
C263 O246 1.295 . S
C263 O247 1.235 . S
H264 C272 0.950 . S
H265 C277 0.950 . S
H266 C274 0.950 . S
H267 C276 0.950 . S
H268 C278 0.950 . S
H269 C280 0.950 . S
H270 C282 0.950 . S
H271 C283 0.950 . S
C272 H264 0.950 . S
C272 C273 1.386 . S
C272 C274 1.391 . S
C273 C272 1.386 . S
C273 C277 1.393 . S
C274 H266 0.950 . S
C274 C272 1.391 . S
C274 C275 1.400 . S
C275 C274 1.400 . S
C275 C276 1.398 . S
C275 C281 1.491 . S
C276 H267 0.950 . S
C276 C275 1.398 . S
C276 C277 1.391 . S
C277 H265 0.950 . S
C277 C273 1.393 . S
C277 C276 1.391 . S
C278 H268 0.950 . S
C278 C279 1.386 . S
C278 C280 1.391 . S
C279 C278 1.386 . S
C279 C283 1.393 . S
C280 H269 0.950 . S
C280 C278 1.391 . S
C280 C281 1.400 . S
C281 C275 1.491 . S
C281 C280 1.400 . S
C281 C282 1.398 . S
C282 H270 0.950 . S
C282 C281 1.398 . S
C282 C283 1.391 . S
C283 H271 0.950 . S
C283 C279 1.393 . S
C283 C282 1.391 . S
H284 C292 0.950 . S
H285 C297 0.950 . S
H286 C294 0.950 . S
H287 C296 0.950 . S
H288 C298 0.950 . S
H289 C300 0.950 . S
H290 C302 0.950 . S
H291 C303 0.950 . S
C292 H284 0.950 . S
C292 C293 1.386 . S
C292 C294 1.391 . S
C293 C292 1.386 . S
C293 C297 1.393 . S
C294 H286 0.950 . S
C294 C292 1.391 . S
C294 C295 1.400 . S
C295 C294 1.400 . S
C295 C296 1.398 . S
C295 C301 1.491 . S
C296 H287 0.950 . S
C296 C295 1.398 . S
C296 C297 1.391 . S
C297 H285 0.950 . S
C297 C293 1.393 . S
C297 C296 1.391 . S
C298 H288 0.950 . S
C298 C299 1.386 . S
C298 C300 1.391 . S
C299 C298 1.386 . S
C299 C303 1.393 . S
C300 H289 0.950 . S
C300 C298 1.391 . S
C300 C301 1.400 . S
C301 C295 1.491 . S
C301 C300 1.400 . S
C301 C302 1.398 . S
C302 H290 0.950 . S
C302 C301 1.398 . S
C302 C303 1.391 . S
C303 H291 0.950 . S
C303 C299 1.393 . S
C303 C302 1.391 . S
H304 C312 0.950 . S
H305 C317 0.950 . S
H306 C314 0.950 . S
H307 C316 0.950 . S
H308 C318 0.950 . S
H309 C320 0.950 . S
H310 C322 0.950 . S
H311 C323 0.950 . S
C312 H304 0.950 . S
C312 C313 1.386 . S
C312 C314 1.391 . S
C313 C312 1.386 . S
C313 C317 1.393 . S
C314 H306 0.950 . S
C314 C312 1.391 . S
C314 C315 1.400 . S
C315 C314 1.400 . S
C315 C316 1.398 . S
C315 C321 1.491 . S
C316 H307 0.950 . S
C316 C315 1.398 . S
C316 C317 1.391 . S
C317 H305 0.950 . S
C317 C313 1.393 . S
C317 C316 1.391 . S
C318 H308 0.950 . S
C318 C319 1.386 . S
C318 C320 1.391 1_554 S
C319 C318 1.386 . S
C319 C323 1.393 . S
C320 H309 0.950 . S
C320 C318 1.391 1_556 S
C320 C321 1.400 . S
C321 C315 1.491 . S
C321 C320 1.400 . S
C321 C322 1.398 . S
C322 H310 0.950 . S
C322 C321 1.398 . S
C322 C323 1.391 1_556 S
C323 H311 0.950 . S
C323 C319 1.393 . S
C323 C322 1.391 1_554 S
H324 C332 0.950 . S
H325 C337 0.950 . S
H326 C334 0.950 . S
H327 C336 0.950 . S
H328 C338 0.950 . S
H329 C340 0.950 . S
H330 C342 0.950 . S
H331 C343 0.950 . S
C332 H324 0.950 . S
C332 C333 1.386 . S
C332 C334 1.391 . S
C333 C332 1.386 . S
C333 C337 1.393 . S
C334 H326 0.950 . S
C334 C332 1.391 . S
C334 C335 1.400 . S
C335 C334 1.400 . S
C335 C336 1.398 . S
C335 C341 1.491 1_554 S
C336 H327 0.950 . S
C336 C335 1.398 . S
C336 C337 1.391 . S
C337 H325 0.950 . S
C337 C333 1.393 . S
C337 C336 1.391 . S
C338 H328 0.950 . S
C338 C339 1.386 . S
C338 C340 1.391 . S
C339 C338 1.386 . S
C339 C343 1.393 . S
C340 H329 0.950 . S
C340 C338 1.391 . S
C340 C341 1.400 . S
C341 C335 1.491 1_556 S
C341 C340 1.400 . S
C341 C342 1.398 . S
C342 H330 0.950 . S
C342 C341 1.398 . S
C342 C343 1.391 . S
C343 H331 0.950 . S
C343 C339 1.393 . S
C343 C342 1.391 . S
H344 C352 0.950 . S
H345 C357 0.954 . S
H346 C354 0.950 . S
H347 C356 0.950 . S
H348 C358 0.950 . S
H349 C360 0.950 . S
H350 C362 0.950 . S
H351 C363 0.950 . S
C352 H344 0.950 . S
C352 C353 1.386 . S
C352 C354 1.391 1_556 S
C353 C352 1.386 . S
C353 C357 1.393 1_556 S
C354 H346 0.950 . S
C354 C352 1.391 1_554 S
C354 C355 1.400 . S
C355 C354 1.400 . S
C355 C356 1.398 . S
C355 C361 1.491 . S
C356 H347 0.950 . S
C356 C355 1.398 . S
C356 C357 1.391 . S
C357 H345 0.954 . S
C357 C353 1.393 1_554 S
C357 C356 1.391 . S
C358 H348 0.950 . S
C358 C359 1.386 . S
C358 C360 1.391 . S
C359 C358 1.386 . S
C359 C363 1.393 . S
C360 H349 0.950 . S
C360 C358 1.391 . S
C360 C361 1.400 . S
C361 C355 1.491 . S
C361 C360 1.400 . S
C361 C362 1.398 . S
C362 H350 0.950 . S
C362 C361 1.398 . S
C362 C363 1.391 . S
C363 H351 0.950 . S
C363 C359 1.393 . S
C363 C362 1.391 . S
H364 C372 0.950 . S
H365 C377 0.950 . S
H366 C374 0.950 . S
H367 C376 0.950 . S
H368 C378 0.950 . S
H369 C380 0.950 . S
H370 C382 0.950 . S
H371 C383 0.950 . S
C372 H364 0.950 . S
C372 C373 1.386 . S
C372 C374 1.391 . S
C373 C372 1.386 . S
C373 C377 1.393 . S
C374 H366 0.950 . S
C374 C372 1.391 . S
C374 C375 1.400 . S
C375 C374 1.400 . S
C375 C376 1.398 . S
C375 C381 1.491 . S
C376 H367 0.950 . S
C376 C375 1.398 . S
C376 C377 1.391 . S
C377 H365 0.950 . S
C377 C373 1.393 . S
C377 C376 1.391 . S
C378 H368 0.950 . S
C378 C379 1.386 . S
C378 C380 1.391 . S
C379 C378 1.386 . S
C379 C383 1.393 . S
C380 H369 0.950 . S
C380 C378 1.391 . S
C380 C381 1.400 . S
C381 C375 1.491 . S
C381 C380 1.400 . S
C381 C382 1.398 . S
C382 H370 0.950 . S
C382 C381 1.398 . S
C382 C383 1.391 . S
C383 H371 0.950 . S
C383 C379 1.393 . S
C383 C382 1.391 . S
H384 C392 0.950 . S
H385 C397 0.950 . S
H386 C394 0.950 . S
H387 C396 0.950 . S
H388 C398 0.950 . S
H389 C400 0.950 . S
H390 C402 0.950 . S
H391 C403 0.950 . S
C392 H384 0.950 . S
C392 C393 1.386 . S
C392 C394 1.391 . S
C393 C392 1.386 . S
C393 C397 1.393 . S
C394 H386 0.950 . S
C394 C392 1.391 . S
C394 C395 1.400 . S
C395 C394 1.400 . S
C395 C396 1.398 . S
C395 C401 1.491 . S
C396 H387 0.950 . S
C396 C395 1.398 . S
C396 C397 1.391 . S
C397 H385 0.950 . S
C397 C393 1.393 . S
C397 C396 1.391 . S
C398 H388 0.950 . S
C398 C399 1.386 . S
C398 C400 1.391 . S
C399 C398 1.386 . S
C399 C403 1.393 . S
C400 H389 0.950 . S
C400 C398 1.391 . S
C400 C401 1.400 . S
C401 C395 1.491 . S
C401 C400 1.400 . S
C401 C402 1.398 . S
C402 H390 0.950 . S
C402 C401 1.398 . S
C402 C403 1.391 . S
C403 H391 0.950 . S
C403 C399 1.393 . S
C403 C402 1.391 . S
H404 C412 0.950 . S
H405 C417 0.950 . S
H406 C414 0.950 . S
H407 C416 0.950 . S
H408 C418 0.950 . S
H409 C420 0.950 . S
H410 C422 0.950 . S
H411 C423 0.950 . S
C412 H404 0.950 . S
C412 C413 1.386 . S
C412 C414 1.391 . S
C413 C412 1.386 . S
C413 C417 1.393 . S
C414 H406 0.950 . S
C414 C412 1.391 . S
C414 C415 1.400 . S
C415 C414 1.400 . S
C415 C416 1.398 . S
C415 C421 1.491 . S
C416 H407 0.950 . S
C416 C415 1.398 . S
C416 C417 1.391 . S
C417 H405 0.950 . S
C417 C413 1.393 . S
C417 C416 1.391 . S
C418 H408 0.950 . S
C418 C419 1.386 . S
C418 C420 1.391 . S
C419 C418 1.386 . S
C419 C423 1.393 . S
C420 H409 0.950 . S
C420 C418 1.391 . S
C420 C421 1.400 . S
C421 C415 1.491 . S
C421 C420 1.400 . S
C421 C422 1.398 . S
C422 H410 0.950 . S
C422 C421 1.398 . S
C422 C423 1.391 . S
C423 H411 0.950 . S
C423 C419 1.393 . S
C423 C422 1.391 . S
H424 C432 0.950 . S
H425 C437 0.950 . S
H426 C434 0.950 . S
H427 C436 0.950 . S
H428 C438 0.950 . S
H429 C440 0.950 . S
H430 C442 0.950 . S
H431 C443 0.950 . S
C432 H424 0.950 . S
C432 C433 1.386 . S
C432 C434 1.391 . S
C433 C432 1.386 . S
C433 C437 1.393 . S
C434 H426 0.950 . S
C434 C432 1.391 . S
C434 C435 1.400 . S
C435 C434 1.400 . S
C435 C436 1.398 . S
C435 C441 1.491 . S
C436 H427 0.950 . S
C436 C435 1.398 . S
C436 C437 1.391 . S
C437 H425 0.950 . S
C437 C433 1.393 . S
C437 C436 1.391 . S
C438 H428 0.950 . S
C438 C439 1.386 . S
C438 C440 1.391 . S
C439 C438 1.386 . S
C439 C443 1.393 . S
C440 H429 0.950 . S
C440 C438 1.391 . S
C440 C441 1.400 . S
C441 C435 1.491 . S
C441 C440 1.400 . S
C441 C442 1.398 . S
C442 H430 0.950 . S
C442 C441 1.398 . S
C442 C443 1.391 . S
C443 H431 0.950 . S
C443 C439 1.393 . S
C443 C442 1.391 . S
H444 C452 0.950 . S
H445 C457 0.950 . S
H446 C454 0.950 . S
H447 C456 0.950 . S
H448 C458 0.950 . S
H449 C460 0.950 . S
H450 C462 0.950 . S
H451 C463 0.950 . S
C452 H444 0.950 . S
C452 C453 1.386 . S
C452 C454 1.391 1_554 S
C453 C452 1.386 . S
C453 C457 1.393 . S
C454 H446 0.950 . S
C454 C452 1.391 1_556 S
C454 C455 1.400 . S
C455 C454 1.400 . S
C455 C456 1.398 . S
C455 C461 1.491 . S
C456 H447 0.950 . S
C456 C455 1.398 . S
C456 C457 1.391 1_556 S
C457 H445 0.950 . S
C457 C453 1.393 . S
C457 C456 1.391 1_554 S
C458 H448 0.950 . S
C458 C459 1.386 . S
C458 C460 1.391 . S
C459 C458 1.386 . S
C459 C463 1.393 . S
C460 H449 0.950 . S
C460 C458 1.391 . S
C460 C461 1.400 . S
C461 C455 1.491 . S
C461 C460 1.400 . S
C461 C462 1.398 . S
C462 H450 0.950 . S
C462 C461 1.398 . S
C462 C463 1.391 . S
C463 H451 0.950 . S
C463 C459 1.393 . S
C463 C462 1.391 . S
H464 C472 0.950 . S
H465 C477 0.950 . S
H466 C474 0.950 . S
H467 C476 0.950 . S
H468 C478 0.950 . S
H469 C480 0.950 . S
H470 C482 0.950 . S
H471 C483 0.950 . S
C472 H464 0.950 . S
C472 C473 1.386 . S
C472 C474 1.391 . S
C473 C472 1.386 . S
C473 C477 1.393 . S
C474 H466 0.950 . S
C474 C472 1.391 . S
C474 C475 1.400 . S
C475 C474 1.400 . S
C475 C476 1.398 . S
C475 C481 1.491 1_556 S
C476 H467 0.950 . S
C476 C475 1.398 . S
C476 C477 1.391 . S
C477 H465 0.950 . S
C477 C473 1.393 . S
C477 C476 1.391 . S
C478 H468 0.950 . S
C478 C479 1.386 . S
C478 C480 1.391 . S
C479 C478 1.386 . S
C479 C483 1.393 . S
C480 H469 0.950 . S
C480 C478 1.391 . S
C480 C481 1.400 . S
C481 C475 1.491 1_554 S
C481 C480 1.400 . S
C481 C482 1.398 . S
C482 H470 0.950 . S
C482 C481 1.398 . S
C482 C483 1.391 . S
C483 H471 0.950 . S
C483 C479 1.393 . S
C483 C482 1.391 . S
H484 C492 0.950 . S
H485 C497 0.950 . S
H486 C494 0.950 . S
H487 C496 0.950 . S
H488 C498 0.950 . S
H489 C500 0.950 . S
H490 C502 0.950 . S
H491 C503 0.950 . S
C492 H484 0.950 . S
C492 C493 1.386 . S
C492 C494 1.391 . S
C493 C492 1.386 . S
C493 C497 1.393 . S
C494 H486 0.950 . S
C494 C492 1.391 . S
C494 C495 1.400 . S
C495 C494 1.400 . S
C495 C496 1.398 . S
C495 C501 1.491 . S
C496 H487 0.950 . S
C496 C495 1.398 . S
C496 C497 1.391 . S
C497 H485 0.950 . S
C497 C493 1.393 . S
C497 C496 1.391 . S
C498 H488 0.950 . S
C498 C499 1.386 . S
C498 C500 1.391 1_556 S
C499 C498 1.386 . S
C499 C503 1.393 . S
C500 H489 0.950 . S
C500 C498 1.391 1_554 S
C500 C501 1.400 . S
C501 C495 1.491 . S
C501 C500 1.400 . S
C501 C502 1.398 . S
C502 H490 0.950 . S
C502 C501 1.398 . S
C502 C503 1.391 1_554 S
C503 H491 0.950 . S
C503 C499 1.393 . S
C503 C502 1.391 1_556 S
H504 C512 0.950 . S
H505 C517 0.950 . S
H506 C514 0.950 . S
H507 C516 0.950 . S
H508 C518 0.950 . S
H509 C520 0.950 . S
H510 C522 0.950 . S
H511 C523 0.950 . S
C512 H504 0.950 . S
C512 C513 1.386 1_556 S
C512 C514 1.391 . S
C513 C512 1.386 1_554 S
C513 C517 1.393 . S
C514 H506 0.950 . S
C514 C512 1.391 . S
C514 C515 1.400 1_556 S
C515 C514 1.400 1_554 S
C515 C516 1.398 . S
C515 C521 1.491 1_545 S
C516 H507 0.950 . S
C516 C515 1.398 . S
C516 C517 1.391 . S
C517 H505 0.950 . S
C517 C513 1.393 . S
C517 C516 1.391 . S
C518 H508 0.950 . S
C518 C519 1.386 . S
C518 C520 1.391 . S
C519 C518 1.386 . S
C519 C523 1.393 1_554 S
C520 H509 0.950 . S
C520 C518 1.391 . S
C520 C521 1.400 . S
C521 C515 1.491 1_565 S
C521 C520 1.400 . S
C521 C522 1.398 1_554 S
C522 H510 0.950 . S
C522 C521 1.398 1_556 S
C522 C523 1.391 . S
C523 H511 0.950 . S
C523 C519 1.393 1_556 S
C523 C522 1.391 . S
H524 C532 0.950 . S
H525 C537 0.950 . S
H526 C534 0.950 . S
H527 C536 0.950 . S
H528 C538 0.950 . S
H529 C540 0.950 . S
H530 C542 0.950 . S
H531 C543 0.950 . S
C532 H524 0.950 . S
C532 C533 1.386 . S
C532 C534 1.391 . S
C533 C532 1.386 . S
C533 C537 1.393 . S
C534 H526 0.950 . S
C534 C532 1.391 . S
C534 C535 1.400 . S
C535 C534 1.400 . S
C535 C536 1.398 . S
C535 C541 1.491 . S
C536 H527 0.950 . S
C536 C535 1.398 . S
C536 C537 1.391 . S
C537 H525 0.950 . S
C537 C533 1.393 . S
C537 C536 1.391 . S
C538 H528 0.950 . S
C538 C539 1.386 . S
C538 C540 1.391 . S
C539 C538 1.386 . S
C539 C543 1.393 . S
C540 H529 0.950 . S
C540 C538 1.391 . S
C540 C541 1.400 . S
C541 C535 1.491 . S
C541 C540 1.400 . S
C541 C542 1.398 . S
C542 H530 0.950 . S
C542 C541 1.398 . S
C542 C543 1.391 . S
C543 H531 0.950 . S
C543 C539 1.393 . S
C543 C542 1.391 . S
H544 C552 0.950 . S
H545 C557 0.950 . S
H546 C554 0.950 . S
H547 C556 0.950 . S
H548 C558 0.950 . S
H549 C560 0.950 . S
H550 C562 0.950 . S
H551 C563 0.950 . S
C552 H544 0.950 . S
C552 C553 1.386 . S
C552 C554 1.391 . S
C553 C552 1.386 . S
C553 C557 1.393 . S
C554 H546 0.950 . S
C554 C552 1.391 . S
C554 C555 1.400 . S
C555 C554 1.400 . S
C555 C556 1.398 . S
C555 C561 1.491 1_455 S
C556 H547 0.950 . S
C556 C555 1.398 . S
C556 C557 1.391 . S
C557 H545 0.950 . S
C557 C553 1.393 . S
C557 C556 1.391 . S
C558 H548 0.950 . S
C558 C559 1.386 . S
C558 C560 1.391 . S
C559 C558 1.386 . S
C559 C563 1.393 . S
C560 H549 0.950 . S
C560 C558 1.391 . S
C560 C561 1.400 . S
C561 C555 1.491 1_655 S
C561 C560 1.400 . S
C561 C562 1.398 . S
C562 H550 0.950 . S
C562 C561 1.398 . S
C562 C563 1.391 . S
C563 H551 0.950 . S
C563 C559 1.393 . S
C563 C562 1.391 . S
H564 C572 0.950 . S
H565 C577 0.950 . S
H566 C574 0.950 . S
H567 C576 0.950 . S
H568 C578 0.950 . S
H569 C580 0.950 . S
H570 C582 0.950 . S
H571 C583 0.950 . S
C572 H564 0.950 . S
C572 C573 1.386 . S
C572 C574 1.391 . S
C573 C572 1.386 . S
C573 C577 1.393 . S
C574 H566 0.950 . S
C574 C572 1.391 . S
C574 C575 1.400 . S
C575 C574 1.400 . S
C575 C576 1.398 . S
C575 C581 1.491 1_565 S
C576 H567 0.950 . S
C576 C575 1.398 . S
C576 C577 1.391 . S
C577 H565 0.950 . S
C577 C573 1.393 . S
C577 C576 1.391 . S
C578 H568 0.950 . S
C578 C579 1.386 . S
C578 C580 1.391 . S
C579 C578 1.386 . S
C579 C583 1.393 . S
C580 H569 0.950 . S
C580 C578 1.391 . S
C580 C581 1.400 . S
C581 C575 1.491 1_545 S
C581 C580 1.400 . S
C581 C582 1.398 . S
C582 H570 0.950 . S
C582 C581 1.398 . S
C582 C583 1.391 . S
C583 H571 0.950 . S
C583 C579 1.393 . S
C583 C582 1.391 . S
H584 C592 0.950 . S
H585 C597 0.950 . S
H586 C594 0.950 . S
H587 C596 0.950 . S
H588 C598 0.950 . S
H589 C600 0.950 . S
H590 C602 0.950 . S
H591 C603 0.950 . S
C592 H584 0.950 . S
C592 C593 1.386 . S
C592 C594 1.391 . S
C593 C592 1.386 . S
C593 C597 1.393 . S
C594 H586 0.950 . S
C594 C592 1.391 . S
C594 C595 1.400 . S
C595 C594 1.400 . S
C595 C596 1.398 . S
C595 C601 1.491 . S
C596 H587 0.950 . S
C596 C595 1.398 . S
C596 C597 1.391 . S
C597 H585 0.950 . S
C597 C593 1.393 . S
C597 C596 1.391 . S
C598 H588 0.950 . S
C598 C599 1.386 . S
C598 C600 1.391 . S
C599 C598 1.386 . S
C599 C603 1.393 . S
C600 H589 0.950 . S
C600 C598 1.391 . S
C600 C601 1.400 . S
C601 C595 1.491 . S
C601 C600 1.400 . S
C601 C602 1.398 . S
C602 H590 0.950 . S
C602 C601 1.398 . S
C602 C603 1.391 . S
C603 H591 0.950 . S
C603 C599 1.393 . S
C603 C602 1.391 . S
H604 C612 0.950 . S
H605 C617 0.950 . S
H606 C614 0.950 . S
H607 C616 0.950 . S
H608 C618 0.950 . S
H609 C620 0.950 . S
H610 C622 0.950 . S
H611 C623 0.950 . S
C612 H604 0.950 . S
C612 C613 1.386 . S
C612 C614 1.391 . S
C613 C612 1.386 . S
C613 C617 1.393 . S
C614 H606 0.950 . S
C614 C612 1.391 . S
C614 C615 1.400 . S
C615 C614 1.400 . S
C615 C616 1.398 . S
C615 C621 1.491 1_455 S
C616 H607 0.950 . S
C616 C615 1.398 . S
C616 C617 1.391 . S
C617 H605 0.950 . S
C617 C613 1.393 . S
C617 C616 1.391 . S
C618 H608 0.950 . S
C618 C619 1.386 . S
C618 C620 1.391 . S
C619 C618 1.386 . S
C619 C623 1.393 . S
C620 H609 0.950 . S
C620 C618 1.391 . S
C620 C621 1.400 . S
C621 C615 1.491 1_655 S
C621 C620 1.400 . S
C621 C622 1.398 . S
C622 H610 0.950 . S
C622 C621 1.398 . S
C622 C623 1.391 . S
C623 H611 0.950 . S
C623 C619 1.393 . S
C623 C622 1.391 . S
H624 C632 0.950 . S
H625 C637 0.950 . S
H626 C634 0.950 . S
H627 C636 0.950 . S
H628 C638 0.950 . S
H629 C640 0.950 . S
H630 C642 0.950 . S
H631 C643 0.950 . S
C632 H624 0.950 . S
C632 C633 1.386 . S
C632 C634 1.391 . S
C633 C632 1.386 . S
C633 C637 1.393 . S
C634 H626 0.950 . S
C634 C632 1.391 . S
C634 C635 1.400 . S
C635 C634 1.400 . S
C635 C636 1.398 . S
C635 C641 1.491 . S
C636 H627 0.950 . S
C636 C635 1.398 . S
C636 C637 1.391 . S
C637 H625 0.950 . S
C637 C633 1.393 . S
C637 C636 1.391 . S
C638 H628 0.950 . S
C638 C639 1.386 . S
C638 C640 1.391 . S
C639 C638 1.386 . S
C639 C643 1.393 . S
C640 H629 0.950 . S
C640 C638 1.391 . S
C640 C641 1.400 . S
C641 C635 1.491 . S
C641 C640 1.400 . S
C641 C642 1.398 . S
C642 H630 0.950 . S
C642 C641 1.398 . S
C642 C643 1.391 . S
C643 H631 0.950 . S
C643 C639 1.393 . S
C643 C642 1.391 . S
H644 C652 0.950 . S
H645 C657 0.950 . S
H646 C654 0.950 . S
H647 C656 0.950 . S
H648 C658 0.950 . S
H649 C660 0.950 . S
H650 C662 0.950 . S
H651 C663 0.950 . S
C652 H644 0.950 . S
C652 C653 1.386 1_556 S
C652 C654 1.391 . S
C653 C652 1.386 1_554 S
C653 C657 1.393 . S
C654 H646 0.950 . S
C654 C652 1.391 . S
C654 C655 1.400 . S
C655 C654 1.400 . S
C655 C656 1.398 . S
C655 C661 1.491 . S
C656 H647 0.950 . S
C656 C655 1.398 . S
C656 C657 1.391 1_556 S
C657 H645 0.950 . S
C657 C653 1.393 . S
C657 C656 1.391 1_554 S
C658 H648 0.950 . S
C658 C659 1.386 . S
C658 C660 1.391 . S
C659 C658 1.386 . S
C659 C663 1.393 . S
C660 H649 0.950 . S
C660 C658 1.391 . S
C660 C661 1.400 . S
C661 C655 1.491 . S
C661 C660 1.400 . S
C661 C662 1.398 . S
C662 H650 0.950 . S
C662 C661 1.398 . S
C662 C663 1.391 . S
C663 H651 0.950 . S
C663 C659 1.393 . S
C663 C662 1.391 . S
H664 C672 0.950 . S
H665 C677 0.950 . S
H666 C674 0.950 . S
H667 C676 0.950 . S
H668 C678 0.950 . S
H669 C680 0.950 . S
H670 C682 0.950 . S
H671 C683 0.950 . S
C672 H664 0.950 . S
C672 C673 1.386 1_554 S
C672 C674 1.391 . S
C673 C672 1.386 1_556 S
C673 C677 1.393 . S
C674 H666 0.950 . S
C674 C672 1.391 . S
C674 C675 1.400 . S
C675 C674 1.400 . S
C675 C676 1.398 1_554 S
C675 C681 1.491 . S
C676 H667 0.950 . S
C676 C675 1.398 1_556 S
C676 C677 1.391 . S
C677 H665 0.950 . S
C677 C673 1.393 . S
C677 C676 1.391 . S
C678 H668 0.950 . S
C678 C679 1.386 . S
C678 C680 1.391 . S
C679 C678 1.386 . S
C679 C683 1.393 . S
C680 H669 0.950 . S
C680 C678 1.391 . S
C680 C681 1.400 . S
C681 C675 1.491 . S
C681 C680 1.400 . S
C681 C682 1.398 . S
C682 H670 0.950 . S
C682 C681 1.398 . S
C682 C683 1.391 . S
C683 H671 0.950 . S
C683 C679 1.393 . S
C683 C682 1.391 . S
H684 C692 0.950 . S
H685 C697 0.950 . S
H686 C694 0.950 . S
H687 C696 0.950 . S
H688 C698 0.950 . S
H689 C700 0.950 . S
H690 C702 0.950 . S
H691 C703 0.950 . S
C692 H684 0.950 . S
C692 C693 1.386 . S
C692 C694 1.391 . S
C693 C692 1.386 . S
C693 C697 1.393 . S
C694 H686 0.950 . S
C694 C692 1.391 . S
C694 C695 1.400 . S
C695 C694 1.400 . S
C695 C696 1.398 . S
C695 C701 1.491 . S
C696 H687 0.950 . S
C696 C695 1.398 . S
C696 C697 1.391 . S
C697 H685 0.950 . S
C697 C693 1.393 . S
C697 C696 1.391 . S
C698 H688 0.950 . S
C698 C699 1.386 . S
C698 C700 1.391 . S
C699 C698 1.386 . S
C699 C703 1.393 . S
C700 H689 0.950 . S
C700 C698 1.391 . S
C700 C701 1.400 . S
C701 C695 1.491 . S
C701 C700 1.400 . S
C701 C702 1.398 . S
C702 H690 0.950 . S
C702 C701 1.398 . S
C702 C703 1.391 . S
C703 H691 0.950 . S
C703 C699 1.393 . S
C703 C702 1.391 . S
H704 C712 0.950 . S
H705 C717 0.950 . S
H706 C714 0.950 . S
H707 C716 0.950 . S
H708 C718 0.950 . S
H709 C720 0.950 . S
H710 C722 0.950 . S
H711 C723 0.950 . S
C712 H704 0.950 . S
C712 C713 1.386 . S
C712 C714 1.391 . S
C713 C712 1.386 . S
C713 C717 1.393 . S
C714 H706 0.950 . S
C714 C712 1.391 . S
C714 C715 1.400 . S
C715 C714 1.400 . S
C715 C716 1.398 . S
C715 C721 1.491 . S
C716 H707 0.950 . S
C716 C715 1.398 . S
C716 C717 1.391 . S
C717 H705 0.950 . S
C717 C713 1.393 . S
C717 C716 1.391 . S
C718 H708 0.950 . S
C718 C719 1.386 . S
C718 C720 1.391 . S
C719 C718 1.386 . S
C719 C723 1.393 . S
C720 H709 0.950 . S
C720 C718 1.391 . S
C720 C721 1.400 . S
C721 C715 1.491 . S
C721 C720 1.400 . S
C721 C722 1.398 . S
C722 H710 0.950 . S
C722 C721 1.398 . S
C722 C723 1.391 . S
C723 H711 0.950 . S
C723 C719 1.393 . S
C723 C722 1.391 . S
H724 C732 0.950 . S
H725 C737 0.950 . S
H726 C734 0.950 . S
H727 C736 0.950 . S
H728 C738 0.950 . S
H729 C740 0.950 . S
H730 C742 0.950 . S
H731 C743 0.950 . S
C732 H724 0.950 . S
C732 C733 1.386 . S
C732 C734 1.391 . S
C733 C732 1.386 . S
C733 C737 1.393 . S
C734 H726 0.950 . S
C734 C732 1.391 . S
C734 C735 1.400 . S
C735 C734 1.400 . S
C735 C736 1.398 . S
C735 C741 1.491 . S
C736 H727 0.950 . S
C736 C735 1.398 . S
C736 C737 1.391 . S
C737 H725 0.950 . S
C737 C733 1.393 . S
C737 C736 1.391 . S
C738 H728 0.950 . S
C738 C739 1.386 . S
C738 C740 1.391 . S
C739 C738 1.386 . S
C739 C743 1.393 . S
C740 H729 0.950 . S
C740 C738 1.391 . S
C740 C741 1.400 . S
C741 C735 1.491 . S
C741 C740 1.400 . S
C741 C742 1.398 . S
C742 H730 0.950 . S
C742 C741 1.398 . S
C742 C743 1.391 . S
C743 H731 0.950 . S
C743 C739 1.393 . S
C743 C742 1.391 . S
H744 C752 0.950 . S
H745 C757 0.950 1_556 S
H746 C754 0.950 . S
H747 C756 0.950 1_556 S
H748 C758 0.950 . S
H749 C760 0.946 1_556 S
H750 C762 0.950 . S
H751 C763 0.950 . S
C752 H744 0.950 . S
C752 C753 1.386 . S
C752 C754 1.391 . S
C753 C752 1.386 . S
C753 C757 1.393 . S
C754 H746 0.950 . S
C754 C752 1.391 . S
C754 C755 1.400 . S
C755 C754 1.400 . S
C755 C756 1.398 . S
C755 C761 1.491 . S
C756 H747 0.950 1_554 S
C756 C755 1.398 . S
C756 C757 1.391 . S
C757 H745 0.950 1_554 S
C757 C753 1.393 . S
C757 C756 1.391 . S
C758 H748 0.950 . S
C758 C759 1.386 . S
C758 C760 1.391 . S
C759 C758 1.386 . S
C759 C763 1.393 . S
C760 H749 0.946 1_554 S
C760 C758 1.391 . S
C760 C761 1.400 . S
C761 C755 1.491 . S
C761 C760 1.400 . S
C761 C762 1.398 . S
C762 H750 0.950 . S
C762 C761 1.398 . S
C762 C763 1.391 . S
C763 H751 0.950 . S
C763 C759 1.393 . S
C763 C762 1.391 . S
H764 C772 0.950 . S
H765 C777 0.950 . S
H766 C774 0.950 . S
H767 C776 0.950 . S
H768 C778 0.950 . S
H769 C780 0.950 . S
H770 C782 0.950 . S
H771 C783 0.950 . S
C772 H764 0.950 . S
C772 C773 1.386 . S
C772 C774 1.391 . S
C773 C772 1.386 . S
C773 C777 1.393 . S
C774 H766 0.950 . S
C774 C772 1.391 . S
C774 C775 1.400 . S
C775 C774 1.400 . S
C775 C776 1.398 . S
C775 C781 1.491 . S
C776 H767 0.950 . S
C776 C775 1.398 . S
C776 C777 1.391 . S
C777 H765 0.950 . S
C777 C773 1.393 . S
C777 C776 1.391 . S
C778 H768 0.950 . S
C778 C779 1.386 . S
C778 C780 1.391 . S
C779 C778 1.386 . S
C779 C783 1.393 . S
C780 H769 0.950 . S
C780 C778 1.391 . S
C780 C781 1.400 . S
C781 C775 1.491 . S
C781 C780 1.400 . S
C781 C782 1.398 . S
C782 H770 0.950 . S
C782 C781 1.398 . S
C782 C783 1.391 . S
C783 H771 0.950 . S
C783 C779 1.393 . S
C783 C782 1.391 . S
H784 C792 0.950 . S
H785 C797 0.950 . S
H786 C794 0.950 . S
H787 C796 0.950 . S
H788 C798 0.950 . S
H789 C800 0.950 . S
H790 C802 0.950 . S
H791 C803 0.950 . S
C792 H784 0.950 . S
C792 C793 1.386 . S
C792 C794 1.391 . S
C793 C792 1.386 . S
C793 C797 1.393 . S
C794 H786 0.950 . S
C794 C792 1.391 . S
C794 C795 1.400 . S
C795 C794 1.400 . S
C795 C796 1.398 . S
C795 C801 1.491 . S
C796 H787 0.950 . S
C796 C795 1.398 . S
C796 C797 1.391 . S
C797 H785 0.950 . S
C797 C793 1.393 . S
C797 C796 1.391 . S
C798 H788 0.950 . S
C798 C799 1.386 . S
C798 C800 1.391 . S
C799 C798 1.386 . S
C799 C803 1.393 . S
C800 H789 0.950 . S
C800 C798 1.391 . S
C800 C801 1.400 . S
C801 C795 1.491 . S
C801 C800 1.400 . S
C801 C802 1.398 . S
C802 H790 0.950 . S
C802 C801 1.398 . S
C802 C803 1.391 . S
C803 H791 0.950 . S
C803 C799 1.393 . S
C803 C802 1.391 . S
H804 C812 0.950 . S
H805 C817 0.950 . S
H806 C814 0.950 . S
H807 C816 0.950 . S
H808 C818 0.950 . S
H809 C820 0.950 . S
H810 C822 0.950 . S
H811 C823 0.950 . S
C812 H804 0.950 . S
C812 C813 1.386 . S
C812 C814 1.391 . S
C813 C812 1.386 . S
C813 C817 1.393 . S
C814 H806 0.950 . S
C814 C812 1.391 . S
C814 C815 1.400 . S
C815 C814 1.400 . S
C815 C816 1.398 . S
C815 C821 1.491 . S
C816 H807 0.950 . S
C816 C815 1.398 . S
C816 C817 1.391 . S
C817 H805 0.950 . S
C817 C813 1.393 . S
C817 C816 1.391 . S
C818 H808 0.950 . S
C818 C819 1.386 . S
C818 C820 1.391 . S
C819 C818 1.386 . S
C819 C823 1.393 . S
C820 H809 0.950 . S
C820 C818 1.391 . S
C820 C821 1.400 . S
C821 C815 1.491 . S
C821 C820 1.400 . S
C821 C822 1.398 . S
C822 H810 0.950 . S
C822 C821 1.398 . S
C822 C823 1.391 . S
C823 H811 0.950 . S
C823 C819 1.393 . S
C823 C822 1.391 . S
H824 C832 0.950 . S
H825 C837 0.950 . S
H826 C834 0.950 . S
H827 C836 0.950 . S
H828 C838 0.950 . S
H829 C840 0.950 . S
H830 C842 0.950 . S
H831 C843 0.950 . S
C832 H824 0.950 . S
C832 C833 1.386 . S
C832 C834 1.391 . S
C833 C832 1.386 . S
C833 C837 1.393 . S
C834 H826 0.950 . S
C834 C832 1.391 . S
C834 C835 1.400 . S
C835 C834 1.400 . S
C835 C836 1.398 . S
C835 C841 1.491 . S
C836 H827 0.950 . S
C836 C835 1.398 . S
C836 C837 1.391 . S
C837 H825 0.950 . S
C837 C833 1.393 . S
C837 C836 1.391 . S
C838 H828 0.950 . S
C838 C839 1.386 . S
C838 C840 1.391 . S
C839 C838 1.386 . S
C839 C843 1.393 . S
C840 H829 0.950 . S
C840 C838 1.391 . S
C840 C841 1.400 . S
C841 C835 1.491 . S
C841 C840 1.400 . S
C841 C842 1.398 . S
C842 H830 0.950 . S
C842 C841 1.398 . S
C842 C843 1.391 . S
C843 H831 0.950 . S
C843 C839 1.393 . S
C843 C842 1.391 . S
H844 C852 0.950 . S
H845 C857 0.950 . S
H846 C854 0.950 . S
H847 C856 0.950 . S
H848 C858 0.950 1_554 S
H849 C860 0.950 . S
H850 C862 0.950 . S
H851 C863 0.950 . S
C852 H844 0.950 . S
C852 C853 1.386 . S
C852 C854 1.391 . S
C853 C852 1.386 . S
C853 C857 1.393 . S
C854 H846 0.950 . S
C854 C852 1.391 . S
C854 C855 1.400 . S
C855 C854 1.400 . S
C855 C856 1.398 . S
C855 C861 1.491 . S
C856 H847 0.950 . S
C856 C855 1.398 . S
C856 C857 1.391 . S
C857 H845 0.950 . S
C857 C853 1.393 . S
C857 C856 1.391 . S
C858 H848 0.950 1_556 S
C858 C859 1.386 . S
C858 C860 1.391 . S
C859 C858 1.386 . S
C859 C863 1.393 . S
C860 H849 0.950 . S
C860 C858 1.391 . S
C860 C861 1.400 . S
C861 C855 1.491 . S
C861 C860 1.400 . S
C861 C862 1.398 . S
C862 H850 0.950 . S
C862 C861 1.398 . S
C862 C863 1.391 . S
C863 H851 0.950 . S
C863 C859 1.393 . S
C863 C862 1.391 . S
H864 C872 0.950 . S
H865 C877 0.950 . S
H866 C874 0.950 . S
H867 C876 0.950 . S
H868 C878 0.950 . S
H869 C880 0.950 . S
H870 C882 0.950 . S
H871 C883 0.950 . S
C872 H864 0.950 . S
C872 C873 1.386 . S
C872 C874 1.391 . S
C873 C872 1.386 . S
C873 C877 1.393 . S
C874 H866 0.950 . S
C874 C872 1.391 . S
C874 C875 1.400 . S
C875 C874 1.400 . S
C875 C876 1.398 . S
C875 C881 1.491 . S
C876 H867 0.950 . S
C876 C875 1.398 . S
C876 C877 1.391 . S
C877 H865 0.950 . S
C877 C873 1.393 . S
C877 C876 1.391 . S
C878 H868 0.950 . S
C878 C879 1.386 . S
C878 C880 1.391 . S
C879 C878 1.386 . S
C879 C883 1.393 . S
C880 H869 0.950 . S
C880 C878 1.391 . S
C880 C881 1.400 . S
C881 C875 1.491 . S
C881 C880 1.400 . S
C881 C882 1.398 . S
C882 H870 0.950 . S
C882 C881 1.398 . S
C882 C883 1.391 . S
C883 H871 0.950 . S
C883 C879 1.393 . S
C883 C882 1.391 . S
H884 C892 0.950 . S
H885 C897 0.950 . S
H886 C894 0.950 . S
H887 C896 0.950 . S
H888 C898 0.950 . S
H889 C900 0.950 . S
H890 C902 0.950 . S
H891 C903 0.950 . S
C892 H884 0.950 . S
C892 C893 1.386 . S
C892 C894 1.391 . S
C893 C892 1.386 . S
C893 C897 1.393 . S
C894 H886 0.950 . S
C894 C892 1.391 . S
C894 C895 1.400 . S
C895 C894 1.400 . S
C895 C896 1.398 . S
C895 C901 1.491 . S
C896 H887 0.950 . S
C896 C895 1.398 . S
C896 C897 1.391 . S
C897 H885 0.950 . S
C897 C893 1.393 . S
C897 C896 1.391 . S
C898 H888 0.950 . S
C898 C899 1.386 . S
C898 C900 1.391 . S
C899 C898 1.386 . S
C899 C903 1.393 . S
C900 H889 0.950 . S
C900 C898 1.391 . S
C900 C901 1.400 . S
C901 C895 1.491 . S
C901 C900 1.400 . S
C901 C902 1.398 . S
C902 H890 0.950 . S
C902 C901 1.398 . S
C902 C903 1.391 . S
C903 H891 0.950 . S
C903 C899 1.393 . S
C903 C902 1.391 . S
H904 C912 0.950 . S
H905 C917 0.950 . S
H906 C914 0.950 . S
H907 C916 0.950 . S
H908 C918 0.950 . S
H909 C920 0.950 . S
H910 C922 0.950 . S
H911 C923 0.950 . S
C912 H904 0.950 . S
C912 C913 1.386 . S
C912 C914 1.391 . S
C913 C912 1.386 . S
C913 C917 1.393 . S
C914 H906 0.950 . S
C914 C912 1.391 . S
C914 C915 1.400 . S
C915 C914 1.400 . S
C915 C916 1.398 . S
C915 C921 1.491 . S
C916 H907 0.950 . S
C916 C915 1.398 . S
C916 C917 1.391 . S
C917 H905 0.950 . S
C917 C913 1.393 . S
C917 C916 1.391 . S
C918 H908 0.950 . S
C918 C919 1.386 . S
C918 C920 1.391 . S
C919 C918 1.386 . S
C919 C923 1.393 . S
C920 H909 0.950 . S
C920 C918 1.391 . S
C920 C921 1.400 . S
C921 C915 1.491 . S
C921 C920 1.400 . S
C921 C922 1.398 . S
C922 H910 0.950 . S
C922 C921 1.398 . S
C922 C923 1.391 . S
C923 H911 0.950 . S
C923 C919 1.393 . S
C923 C922 1.391 . S
H924 C932 0.950 . S
H925 C937 0.950 . S
H926 C934 0.950 . S
H927 C936 0.950 . S
H928 C938 0.950 . S
H929 C940 0.950 . S
H930 C942 0.950 . S
H931 C943 0.950 . S
C932 H924 0.950 . S
C932 C933 1.386 . S
C932 C934 1.391 . S
C933 C932 1.386 . S
C933 C937 1.393 . S
C934 H926 0.950 . S
C934 C932 1.391 . S
C934 C935 1.400 . S
C935 C934 1.400 . S
C935 C936 1.398 . S
C935 C941 1.491 . S
C936 H927 0.950 . S
C936 C935 1.398 . S
C936 C937 1.391 . S
C937 H925 0.950 . S
C937 C933 1.393 . S
C937 C936 1.391 . S
C938 H928 0.950 . S
C938 C939 1.386 . S
C938 C940 1.391 . S
C939 C938 1.386 . S
C939 C943 1.393 . S
C940 H929 0.950 . S
C940 C938 1.391 . S
C940 C941 1.400 . S
C941 C935 1.491 . S
C941 C940 1.400 . S
C941 C942 1.398 . S
C942 H930 0.950 . S
C942 C941 1.398 . S
C942 C943 1.391 . S
C943 H931 0.950 . S
C943 C939 1.393 . S
C943 C942 1.391 . S
H944 C952 0.950 . S
H945 C957 0.950 . S
H946 C954 0.950 1_554 S
H947 C956 0.950 . S
H948 C958 0.950 . S
H949 C960 0.950 . S
H950 C962 0.950 . S
H951 C963 0.950 . S
C952 H944 0.950 . S
C952 C953 1.386 . S
C952 C954 1.391 . S
C953 C952 1.386 . S
C953 C957 1.393 . S
C954 H946 0.950 1_556 S
C954 C952 1.391 . S
C954 C955 1.400 . S
C955 C954 1.400 . S
C955 C956 1.398 . S
C955 C961 1.491 . S
C956 H947 0.950 . S
C956 C955 1.398 . S
C956 C957 1.391 . S
C957 H945 0.950 . S
C957 C953 1.393 . S
C957 C956 1.391 . S
C958 H948 0.950 . S
C958 C959 1.386 1_556 S
C958 C960 1.391 . S
C959 C958 1.386 1_554 S
C959 C963 1.393 . S
C960 H949 0.950 . S
C960 C958 1.391 . S
C960 C961 1.400 . S
C961 C955 1.491 . S
C961 C960 1.400 . S
C961 C962 1.398 1_556 S
C962 H950 0.950 . S
C962 C961 1.398 1_554 S
C962 C963 1.391 . S
C963 H951 0.950 . S
C963 C959 1.393 . S
C963 C962 1.391 . S
H964 C972 0.950 . S
H965 C977 0.950 . S
H966 C974 0.950 . S
H967 C976 0.950 . S
H968 C978 0.950 . S
H969 C980 0.950 . S
H970 C982 0.950 1_556 S
H971 C983 0.950 . S
C972 H964 0.950 . S
C972 C973 1.386 . S
C972 C974 1.391 . S
C973 C972 1.386 . S
C973 C977 1.393 . S
C974 H966 0.950 . S
C974 C972 1.391 . S
C974 C975 1.400 . S
C975 C974 1.400 . S
C975 C976 1.398 . S
C975 C981 1.491 . S
C976 H967 0.950 . S
C976 C975 1.398 . S
C976 C977 1.391 . S
C977 H965 0.950 . S
C977 C973 1.393 . S
C977 C976 1.391 . S
C978 H968 0.950 . S
C978 C979 1.386 1_554 S
C978 C980 1.391 . S
C979 C978 1.386 1_556 S
C979 C983 1.393 . S
C980 H969 0.950 . S
C980 C978 1.391 . S
C980 C981 1.400 . S
C981 C975 1.491 . S
C981 C980 1.400 . S
C981 C982 1.398 . S
C982 H970 0.950 1_554 S
C982 C981 1.398 . S
C982 C983 1.391 1_554 S
C983 H971 0.950 . S
C983 C979 1.393 . S
C983 C982 1.391 1_556 S
C273 C10 1.423 . S
C279 C21 1.464 . S
C293 C30 1.444 1_556 S
C299 C29 1.458 . S
C313 C65 1.469 . S
C319 C54 1.423 . S
C333 C74 1.437 . S
C339 C73 1.457 . S
C353 C103 1.472 . S
C359 C106 1.432 . S
C373 C118 1.447 . S
C379 C117 1.464 . S
C393 C140 1.437 . S
C399 C139 1.457 . S
C413 C161 1.462 . S
C419 C162 1.425 . S
C433 C183 1.468 . S
C439 C184 1.423 . S
C453 C205 1.460 . S
C459 C206 1.446 . S
C473 C228 1.427 . S
C479 C227 1.471 . S
C493 C249 1.462 . S
C499 C250 1.425 . S
C513 C8 1.431 . S
C519 C172 1.434 . S
C533 C194 1.443 . S
C539 C40 1.430 . S
C553 C216 1.430 . S
C559 C52 1.440 . S
C573 C84 1.444 . S
C579 C238 1.431 . S
C593 C98 1.447 . S
C599 C260 1.439 . S
C613 C128 1.443 . S
C619 C150 1.430 . S
C633 C18 1.140 . S
C639 C230 1.124 . S
C653 C32 1.128 . S
C659 C252 1.138 . S
C673 C142 1.122 . S
C679 C62 1.141 . S
C693 C76 1.140 . S
C699 C164 1.125 . S
C713 C96 1.137 . S
C719 C186 1.128 . S
C733 C208 1.141 . S
C739 C120 1.120 . S
C753 C15 1.135 . S
C759 C197 1.134 . S
C773 C219 1.135 . S
C779 C43 1.136 . S
C793 C241 1.134 . S
C799 C59 1.135 . S
C813 C87 1.138 . S
C819 C263 1.138 . S
C833 C153 1.128 . S
C839 C95 1.127 . S
C853 C131 1.127 . S
C859 C175 1.127 . S
C873 C7 1.342 . S
C879 C235 1.364 . S
C893 C37 1.343 . S
C899 C257 1.363 . S
C913 C51 1.335 . S
C919 C147 1.364 . S
C933 C169 1.330 . S
C939 C81 1.348 . S
C953 C109 1.331 . S
C959 C191 1.362 . S
C973 C213 1.331 . S
C979 C125 1.345 . S
