# Generated by pormake.
# Topology sof, (5)-cn, num edge types: 1
# Building blocks:
#     Node 0, Type 0, BuildingBlock: BEQFEK_clean_sbu_0, # of connection points: 5
#     Node 1, Type 0, BuildingBlock: BEQFEK_clean_sbu_0, # of connection points: 5
#     Node 2, Type 0, BuildingBlock: BEQFEK_clean_sbu_0, # of connection points: 5
#     Node 3, Type 0, BuildingBlock: BEQFEK_clean_sbu_0, # of connection points: 5
#     Node 4, Type 0, BuildingBlock: BEQFEK_clean_sbu_0, # of connection points: 5
#     Node 5, Type 0, BuildingBlock: BEQFEK_clean_sbu_0, # of connection points: 5
#     Node 6, Type 0, BuildingBlock: BEQFEK_clean_sbu_0, # of connection points: 5
#     Node 7, Type 0, BuildingBlock: BEQFEK_clean_sbu_0, # of connection points: 5
#     Edge 8, Type (0, 0), BuildingBlock: AJUNOK_clean_linker_0, # of connection points: 2
#     Edge 9, Type (0, 0), BuildingBlock: AJUNOK_clean_linker_0, # of connection points: 2
#     Edge 10, Type (0, 0), BuildingBlock: AJUNOK_clean_linker_0, # of connection points: 2
#     Edge 11, Type (0, 0), BuildingBlock: AJUNOK_clean_linker_0, # of connection points: 2
#     Edge 12, Type (0, 0), BuildingBlock: AJUNOK_clean_linker_0, # of connection points: 2
#     Edge 13, Type (0, 0), BuildingBlock: AJUNOK_clean_linker_0, # of connection points: 2
#     Edge 14, Type (0, 0), BuildingBlock: AJUNOK_clean_linker_0, # of connection points: 2
#     Edge 15, Type (0, 0), BuildingBlock: AJUNOK_clean_linker_0, # of connection points: 2
#     Edge 16, Type (0, 0), BuildingBlock: AJUNOK_clean_linker_0, # of connection points: 2
#     Edge 17, Type (0, 0), BuildingBlock: AJUNOK_clean_linker_0, # of connection points: 2
#     Edge 18, Type (0, 0), BuildingBlock: AJUNOK_clean_linker_0, # of connection points: 2
#     Edge 19, Type (0, 0), BuildingBlock: AJUNOK_clean_linker_0, # of connection points: 2
#     Edge 20, Type (0, 0), BuildingBlock: AJUNOK_clean_linker_0, # of connection points: 2
#     Edge 21, Type (0, 0), BuildingBlock: AJUNOK_clean_linker_0, # of connection points: 2
#     Edge 22, Type (0, 0), BuildingBlock: AJUNOK_clean_linker_0, # of connection points: 2
#     Edge 23, Type (0, 0), BuildingBlock: AJUNOK_clean_linker_0, # of connection points: 2
#     Edge 24, Type (0, 0), BuildingBlock: AJUNOK_clean_linker_0, # of connection points: 2
#     Edge 25, Type (0, 0), BuildingBlock: AJUNOK_clean_linker_0, # of connection points: 2
#     Edge 26, Type (0, 0), BuildingBlock: AJUNOK_clean_linker_0, # of connection points: 2
#     Edge 27, Type (0, 0), BuildingBlock: AJUNOK_clean_linker_0, # of connection points: 2
# Relax obj value: 0.177
# Max RMSD: 0.183
# Mean RMSD: 0.183
data_MOF--net-sof--node1-BEQFEK_clean_sbu_0--edge1-AJUNOK_clean_linker_0
_symmetry_space_group_name_H-M    P1
_symmetry_Int_Tables_number       1
_symmetry_cell_setting            triclinic
loop_
_symmetry_equiv_pos_as_xyz
'x, y, z'
_cell_length_a     43.48508
_cell_length_b     14.875189
_cell_length_c     32.887043
_cell_angle_alpha  90.094743
_cell_angle_beta   90.001953
_cell_angle_gamma 90.002112
loop_
_atom_site_label
_atom_site_type_symbol
_atom_site_fract_x
_atom_site_fract_y
_atom_site_fract_z
_atom_type_partial_charge
Co0 Co 0.14185 0.1734 0.08323 0.0
Co1 Co 0.13516 0.98421 0.12276 0.0
C2 C 0.19403 0.04931 0.0803 0.0
O3 O 0.18307 0.12525 0.06994 0.0
O4 O 0.17816 0.9931 0.10065 0.0
C5 C 0.13498 0.36595 0.04338 0.0
O6 O 0.13466 0.35381 0.00382 0.0
C7 C 0.13504 0.79463 0.10677 0.0
C8 C 0.11081 0.73413 0.15891 0.0
C9 C 0.12383 0.71421 0.12147 0.0
N10 N 0.12834 0.85991 0.13349 0.0
N11 N 0.11403 0.8235 0.16489 0.0
C12 C 0.15377 0.80947 0.0693 0.0
H13 H 0.17798 0.81745 0.079 0.0
H14 H 0.1464 0.87221 0.05391 0.0
H15 H 0.15279 0.75212 0.04787 0.0
C16 C 0.08553 0.11191 0.039 0.0
N17 N 0.10906 0.0993 0.06512 0.0
N18 N 0.10537 0.02171 0.08368 0.0
C19 C 0.079 0.98357 0.07057 0.0
C20 C 0.06572 0.03902 0.04172 0.0
C21 C 0.08114 0.19466 0.01399 0.0
H22 H 0.07937 0.25385 0.03442 0.0
H23 H 0.10153 0.2041 0.99421 0.0
H24 H 0.06013 0.19041 0.99493 0.0
O25 O 0.139 0.18866 0.14244 0.0
O26 O 0.13155 0.05865 0.17341 0.0
H27 H 0.06774 0.89405 0.11933 0.0
H28 H 0.04223 0.88551 0.07613 0.0
C29 C 0.06639 0.89619 0.0857 0.0
H30 H 0.08026 0.84051 0.07302 0.0
H31 H 0.10582 0.85978 0.18981 0.0
O32 O 0.13752 0.29942 0.06712 0.0
C33 C 0.13455 0.14394 0.17474 0.0
Co34 Co 0.37552 0.83236 0.08411 0.0
Co35 Co 0.38322 0.01971 0.12556 0.0
C36 C 0.32358 0.95806 0.0846 0.0
O37 O 0.33421 0.88371 0.07137 0.0
O38 O 0.34033 0.0104 0.10573 0.0
C39 C 0.35918 0.65539 0.07847 0.0
O40 O 0.33479 0.69145 0.09554 0.0
C41 C 0.37821 0.21014 0.11278 0.0
C42 C 0.40158 0.27169 0.16549 0.0
C43 C 0.38602 0.29188 0.12984 0.0
N44 N 0.38842 0.14424 0.13714 0.0
N45 N 0.40233 0.18122 0.16876 0.0
C46 C 0.36365 0.19446 0.07212 0.0
H47 H 0.37204 0.13047 0.05874 0.0
H48 H 0.36864 0.25096 0.05111 0.0
H49 H 0.33839 0.18942 0.07589 0.0
C50 C 0.43141 0.89508 0.03979 0.0
N51 N 0.40814 0.90727 0.06632 0.0
N52 N 0.41186 0.98487 0.08495 0.0
C53 C 0.43779 0.0241 0.07124 0.0
C54 C 0.45103 0.96866 0.04219 0.0
C55 C 0.43589 0.81129 0.01535 0.0
H56 H 0.44261 0.75579 0.03604 0.0
H57 H 0.41385 0.79208 0.00069 0.0
H58 H 0.45401 0.81999 0.99193 0.0
O59 O 0.37914 0.8138 0.14338 0.0
O60 O 0.38782 0.94291 0.17485 0.0
H61 H 0.45023 0.1133 0.11971 0.0
H62 H 0.47311 0.12722 0.07414 0.0
C63 C 0.44978 0.11271 0.086 0.0
H64 H 0.43418 0.16691 0.07563 0.0
H65 H 0.41252 0.14489 0.19231 0.0
O66 O 0.38 0.7073 0.06489 0.0
C67 C 0.38445 0.8577 0.1758 0.0
Co68 Co 0.14171 0.33017 0.41723 0.0
Co69 Co 0.13675 0.51833 0.37393 0.0
C70 C 0.19514 0.45175 0.41583 0.0
O71 O 0.1837 0.37773 0.42806 0.0
O72 O 0.17927 0.50688 0.39512 0.0
C73 C 0.13326 0.13494 0.46041 0.0
O74 O 0.12809 0.13457 0.49977 0.0
C75 C 0.13596 0.7087 0.39175 0.0
C76 C 0.12633 0.77485 0.33316 0.0
C77 C 0.13174 0.79227 0.37403 0.0
N78 N 0.1328 0.64475 0.36307 0.0
N79 N 0.12717 0.6847 0.32796 0.0
C80 C 0.14431 0.68995 0.43516 0.0
H81 H 0.1528 0.62036 0.43893 0.0
H82 H 0.12379 0.69794 0.4548 0.0
H83 H 0.16201 0.73846 0.44572 0.0
C84 C 0.08691 0.40285 0.46075 0.0
N85 N 0.11035 0.411 0.43416 0.0
N86 N 0.10686 0.48607 0.41352 0.0
C87 C 0.08045 0.52614 0.42519 0.0
C88 C 0.06724 0.47562 0.45592 0.0
C89 C 0.08224 0.32319 0.48769 0.0
H90 H 0.07733 0.26335 0.46857 0.0
H91 H 0.10369 0.3098 0.50489 0.0
H92 H 0.06287 0.33364 0.50916 0.0
O93 O 0.13692 0.30758 0.35838 0.0
O94 O 0.13252 0.4374 0.32528 0.0
H95 H 0.07428 0.613 0.37354 0.0
H96 H 0.04171 0.60846 0.4074 0.0
C97 C 0.06716 0.60857 0.40582 0.0
H98 H 0.07533 0.66904 0.4223 0.0
H99 H 0.1239 0.65065 0.30053 0.0
O100 O 0.13666 0.20974 0.44235 0.0
C101 C 0.13318 0.35131 0.32552 0.0
Co102 Co 0.37624 0.67199 0.4185 0.0
Co103 Co 0.38417 0.48579 0.37542 0.0
C104 C 0.32446 0.54587 0.41705 0.0
O105 O 0.33471 0.6209 0.43008 0.0
O106 O 0.34128 0.49376 0.3959 0.0
C107 C 0.36172 0.85122 0.42379 0.0
O108 O 0.33724 0.8183 0.40567 0.0
C109 C 0.38419 0.29503 0.39111 0.0
C110 C 0.39825 0.23326 0.33302 0.0
C111 C 0.38953 0.21351 0.37253 0.0
N112 N 0.38969 0.36097 0.36418 0.0
N113 N 0.39819 0.32372 0.32941 0.0
C114 C 0.37555 0.30946 0.43468 0.0
H115 H 0.37172 0.38164 0.44134 0.0
H116 H 0.39428 0.28389 0.45445 0.0
H117 H 0.35467 0.26992 0.44207 0.0
C118 C 0.43177 0.60697 0.46283 0.0
N119 N 0.4087 0.59622 0.43587 0.0
N120 N 0.41284 0.52033 0.41602 0.0
C121 C 0.43888 0.48097 0.42927 0.0
C122 C 0.45151 0.53372 0.45979 0.0
C123 C 0.43516 0.68702 0.48999 0.0
H124 H 0.41218 0.71144 0.49965 0.0
H125 H 0.44931 0.67063 0.51708 0.0
H126 H 0.44664 0.74174 0.47283 0.0
O127 O 0.38031 0.69117 0.35949 0.0
O128 O 0.38843 0.56404 0.32611 0.0
H129 H 0.44849 0.39951 0.37673 0.0
H130 H 0.47868 0.40021 0.41451 0.0
C131 C 0.45341 0.40036 0.4098 0.0
H132 H 0.44388 0.3384 0.42358 0.0
H133 H 0.40357 0.35981 0.30318 0.0
O134 O 0.38131 0.79665 0.43835 0.0
C135 C 0.38549 0.6495 0.32647 0.0
Co136 Co 0.87576 0.83004 0.91555 0.0
Co137 Co 0.88255 0.01686 0.8743 0.0
C138 C 0.8233 0.9519 0.91559 0.0
O139 O 0.83448 0.87839 0.9287 0.0
O140 O 0.83951 0.00518 0.89428 0.0
C141 C 0.88245 0.63854 0.95636 0.0
O142 O 0.88506 0.65347 0.99557 0.0
C143 C 0.88397 0.20471 0.89536 0.0
C144 C 0.8972 0.27329 0.83852 0.0
C145 C 0.89046 0.28829 0.87921 0.0
N146 N 0.88752 0.14259 0.86599 0.0
N147 N 0.89534 0.18386 0.83196 0.0
C148 C 0.87353 0.18425 0.93783 0.0
H149 H 0.85713 0.12762 0.93805 0.0
H150 H 0.89358 0.16406 0.95652 0.0
H151 H 0.86253 0.24377 0.9521 0.0
C152 C 0.93186 0.89427 0.95997 0.0
N153 N 0.90839 0.90486 0.93357 0.0
N154 N 0.91236 0.98045 0.91351 0.0
C155 C 0.93905 0.0186 0.92541 0.0
C156 C 0.952 0.96617 0.95568 0.0
C157 C 0.93603 0.8137 0.98645 0.0
H158 H 0.93713 0.7526 0.96713 0.0
H159 H 0.91584 0.80732 0.00685 0.0
H160 H 0.95732 0.81839 0.00494 0.0
O161 O 0.87962 0.81496 0.85613 0.0
O162 O 0.887 0.94347 0.82366 0.0
H163 H 0.94612 0.10712 0.87461 0.0
H164 H 0.97791 0.10289 0.9097 0.0
C165 C 0.95252 0.10199 0.90713 0.0
H166 H 0.9437 0.16165 0.92359 0.0
H167 H 0.89945 0.15113 0.8044 0.0
O168 O 0.87944 0.70347 0.93177 0.0
C169 C 0.88449 0.85793 0.82341 0.0
Co170 Co 0.64206 0.17129 0.91788 0.0
Co171 Co 0.63468 0.98353 0.87571 0.0
C172 C 0.69393 0.0452 0.91804 0.0
O173 O 0.68343 0.1207 0.92998 0.0
O174 O 0.67745 0.99132 0.89726 0.0
C175 C 0.65815 0.34771 0.92138 0.0
O176 O 0.68149 0.30962 0.90273 0.0
C177 C 0.63425 0.79175 0.89054 0.0
C178 C 0.62251 0.73211 0.83114 0.0
C179 C 0.62997 0.71082 0.87093 0.0
N180 N 0.62915 0.85874 0.86401 0.0
N181 N 0.62193 0.82269 0.82848 0.0
C182 C 0.64304 0.80439 0.93415 0.0
H183 H 0.64619 0.8765 0.9416 0.0
H184 H 0.62477 0.77587 0.95384 0.0
H185 H 0.66434 0.76612 0.94072 0.0
C186 C 0.58604 0.10797 0.96139 0.0
N187 N 0.60942 0.09587 0.93505 0.0
N188 N 0.60526 0.01973 0.91534 0.0
C189 C 0.57869 0.98201 0.9278 0.0
C190 C 0.5658 0.03605 0.95769 0.0
C191 C 0.58205 0.19067 0.98676 0.0
H192 H 0.57812 0.24905 0.96645 0.0
H193 H 0.60351 0.20384 0.00404 0.0
H194 H 0.56234 0.18439 0.008 0.0
O195 O 0.63845 0.18882 0.85885 0.0
O196 O 0.6312 0.06093 0.82585 0.0
H197 H 0.5704 0.89223 0.87775 0.0
H198 H 0.54049 0.89185 0.91584 0.0
C199 C 0.56562 0.89668 0.9108 0.0
H200 H 0.57648 0.83861 0.92616 0.0
H201 H 0.61737 0.85973 0.80224 0.0
O202 O 0.63772 0.29707 0.9369 0.0
C203 C 0.63388 0.14646 0.82589 0.0
Co204 Co 0.87533 0.67627 0.58066 0.0
Co205 Co 0.88421 0.48859 0.6216 0.0
C206 C 0.82442 0.54658 0.58009 0.0
O207 O 0.83431 0.62294 0.56839 0.0
O208 O 0.8414 0.49382 0.60061 0.0
C209 C 0.85899 0.85153 0.58024 0.0
O210 O 0.83644 0.81164 0.59977 0.0
C211 C 0.8862 0.29609 0.60788 0.0
C212 C 0.89405 0.24087 0.66923 0.0
C213 C 0.88865 0.21639 0.62917 0.0
N214 N 0.89039 0.3648 0.63393 0.0
N215 N 0.89541 0.3314 0.67054 0.0
C216 C 0.87706 0.30677 0.56425 0.0
H217 H 0.85679 0.26396 0.55749 0.0
H218 H 0.87202 0.37802 0.55703 0.0
H219 H 0.89603 0.28359 0.54433 0.0
C220 C 0.93184 0.61702 0.53655 0.0
N221 N 0.90851 0.60302 0.56279 0.0
N222 N 0.91312 0.52644 0.58187 0.0
C223 C 0.9399 0.49047 0.56918 0.0
C224 C 0.95252 0.54619 0.53985 0.0
C225 C 0.93542 0.70031 0.51163 0.0
H226 H 0.94325 0.75593 0.53165 0.0
H227 H 0.91286 0.71987 0.49858 0.0
H228 H 0.95254 0.69065 0.48697 0.0
O229 O 0.87906 0.69437 0.63994 0.0
O230 O 0.8876 0.56545 0.67131 0.0
H231 H 0.9491 0.40097 0.61896 0.0
H232 H 0.97882 0.40271 0.58051 0.0
C233 C 0.95369 0.40591 0.58587 0.0
H234 H 0.94319 0.34723 0.57049 0.0
H235 H 0.89844 0.37034 0.69666 0.0
O236 O 0.87862 0.80239 0.56207 0.0
C237 C 0.88416 0.65061 0.67235 0.0
Co238 Co 0.64275 0.32623 0.58261 0.0
Co239 Co 0.63644 0.51394 0.62374 0.0
C240 C 0.69528 0.45032 0.58164 0.0
O241 O 0.6842 0.37539 0.56981 0.0
O242 O 0.67915 0.50526 0.60231 0.0
C243 C 0.65716 0.14776 0.57594 0.0
O244 O 0.68256 0.17983 0.59201 0.0
C245 C 0.63853 0.70472 0.61071 0.0
C246 C 0.61874 0.76366 0.66649 0.0
C247 C 0.63112 0.78546 0.62891 0.0
N248 N 0.63101 0.63775 0.63611 0.0
N249 N 0.61922 0.67317 0.66956 0.0
C250 C 0.65037 0.69116 0.56842 0.0
H251 H 0.64629 0.62122 0.55801 0.0
H252 H 0.63908 0.73901 0.54728 0.0
H253 H 0.6754 0.70496 0.56784 0.0
C254 C 0.58692 0.39038 0.53917 0.0
N255 N 0.61042 0.40228 0.56532 0.0
N256 N 0.607 0.47977 0.58405 0.0
C257 C 0.58095 0.51926 0.57087 0.0
C258 C 0.56736 0.46426 0.54185 0.0
C259 C 0.58354 0.30965 0.51238 0.0
H260 H 0.57446 0.25289 0.53066 0.0
H261 H 0.60638 0.28941 0.50042 0.0
H262 H 0.5676 0.32315 0.48674 0.0
O263 O 0.63949 0.30658 0.6418 0.0
O264 O 0.63254 0.4368 0.67305 0.0
H265 H 0.57174 0.60535 0.62184 0.0
H266 H 0.54269 0.60875 0.58273 0.0
C267 C 0.56776 0.60367 0.58857 0.0
H268 H 0.57929 0.66257 0.57466 0.0
H269 H 0.61135 0.63573 0.69427 0.0
O270 O 0.63708 0.20255 0.56286 0.0
C271 C 0.63508 0.35137 0.67419 0.0
C272 C 0.24866 0.08893 0.09231 0.0
C273 C 0.2271 0.03102 0.07443 0.0
C274 C 0.27985 0.06581 0.09411 0.0
C275 C 0.29085 0.98395 0.07783 0.0
H276 H 0.24115 0.15051 0.1069 0.0
H277 H 0.2952 0.11149 0.1098 0.0
S278 S 0.24382 0.81601 0.02186 0.0
N279 N 0.21895 0.89412 0.03578 0.0
N280 N 0.27757 0.84939 0.03933 0.0
C281 C 0.26962 0.92802 0.0576 0.0
C282 C 0.23775 0.9518 0.05592 0.0
C283 C 0.26889 0.58675 0.42566 0.0
C284 C 0.29181 0.52025 0.42354 0.0
C285 C 0.23758 0.56368 0.42492 0.0
C286 C 0.228 0.47321 0.42297 0.0
H287 H 0.27512 0.65727 0.42568 0.0
H288 H 0.22072 0.61733 0.42473 0.0
S289 S 0.27892 0.27333 0.42104 0.0
N290 N 0.30269 0.35982 0.42214 0.0
N291 N 0.24399 0.31675 0.42181 0.0
C292 C 0.25065 0.40598 0.42339 0.0
C293 C 0.2825 0.42945 0.42335 0.0
C294 C 0.78077 0.06534 0.91921 0.0
C295 C 0.79052 0.97523 0.92281 0.0
C296 C 0.74948 0.08841 0.92048 0.0
C297 C 0.7267 0.02204 0.92462 0.0
H298 H 0.79739 0.11843 0.9142 0.0
H299 H 0.74304 0.15804 0.91592 0.0
S300 S 0.73991 0.77796 0.93961 0.0
N301 N 0.77475 0.82051 0.93445 0.0
N302 N 0.71604 0.86381 0.93585 0.0
C303 C 0.73615 0.93248 0.93025 0.0
C304 C 0.76802 0.90909 0.92969 0.0
C305 C 0.73756 0.56346 0.57433 0.0
C306 C 0.7281 0.47281 0.57431 0.0
C307 C 0.7688 0.58708 0.5734 0.0
C308 C 0.79184 0.52085 0.57337 0.0
H309 H 0.72074 0.61683 0.57635 0.0
H310 H 0.77489 0.65761 0.57505 0.0
S311 S 0.77947 0.27389 0.56998 0.0
N312 N 0.74444 0.31664 0.57116 0.0
N313 N 0.80307 0.36082 0.57046 0.0
C314 C 0.78272 0.43005 0.57152 0.0
C315 C 0.75089 0.40605 0.57168 0.0
C316 C 0.03659 0.00501 0.97815 0.0
C317 C 0.03644 0.02401 0.01998 0.0
C318 C 0.00917 0.98489 0.95753 0.0
C319 C 0.98083 0.98384 0.97812 0.0
H320 H 0.05807 0.00436 0.96147 0.0
H321 H 0.01013 0.96976 0.92532 0.0
S322 S 0.96823 0.03181 0.08736 0.0
N323 N 1.00577 0.04229 0.08112 0.0
N324 N 0.95419 0.00495 0.04226 0.0
C325 C 0.98042 0.00322 0.01985 0.0
C326 C 1.00827 0.02353 0.04081 0.0
C327 C 0.48095 0.99853 0.97884 0.0
C328 C 0.48055 0.98299 0.02093 0.0
C329 C 0.50862 0.0173 0.95858 0.0
C330 C 0.53669 0.02043 0.9798 0.0
H331 H 0.4597 0.99736 0.96164 0.0
H332 H 0.5081 0.02952 0.92612 0.0
S333 S 0.54785 0.98169 0.09 0.0
N334 N 0.51042 0.97034 0.08304 0.0
N335 N 0.56247 0.00494 0.04485 0.0
C336 C 0.53654 0.00463 0.02182 0.0
C337 C 0.50843 0.98577 0.04242 0.0
C338 C 0.00996 0.4912 0.45688 0.0
C339 C 0.0382 0.49443 0.47766 0.0
C340 C 0.98226 0.51061 0.47698 0.0
C341 C 0.98205 0.53351 0.51843 0.0
H342 H 0.0093 0.47287 0.425 0.0
H343 H 0.96085 0.50607 0.46027 0.0
S344 S 0.04992 0.55458 0.58583 0.0
N345 N 0.0644 0.52441 0.5414 0.0
N346 N 0.01232 0.56112 0.57921 0.0
C347 C 0.01014 0.53808 0.53932 0.0
C348 C 0.03827 0.5182 0.51892 0.0
C349 C 0.50442 0.57975 0.48131 0.0
C350 C 0.48046 0.51649 0.48206 0.0
C351 C 0.53265 0.56171 0.50033 0.0
C352 C 0.53774 0.48001 0.52078 0.0
H353 H 0.50153 0.64277 0.4653 0.0
H354 H 0.55069 0.61181 0.49886 0.0
S355 S 0.48126 0.29582 0.5342 0.0
N356 N 0.46297 0.3712 0.50642 0.0
N357 N 0.51582 0.33793 0.54272 0.0
C358 C 0.51372 0.41705 0.52234 0.0
C359 C 0.4851 0.43522 0.50285 0.0
C360 C 0.14163 0.33667 0.2505 0.0
C361 C 0.13108 0.29924 0.28705 0.0
C362 C 0.14263 0.28557 0.21468 0.0
C363 C 0.13301 0.1948 0.21375 0.0
H364 H 0.14999 0.40526 0.24972 0.0
H365 H 0.15148 0.31766 0.18755 0.0
S366 S 0.09978 0.06848 0.30042 0.0
N367 N 0.10832 0.16809 0.31958 0.0
N368 N 0.11035 0.07217 0.25223 0.0
C369 C 0.1215 0.15735 0.24987 0.0
C370 C 0.12047 0.2095 0.28644 0.0
C371 C 0.38414 0.66135 0.25025 0.0
C372 C 0.38736 0.70317 0.28833 0.0
C373 C 0.38358 0.7119 0.21426 0.0
C374 C 0.38639 0.8066 0.21468 0.0
H375 H 0.3813 0.58913 0.24818 0.0
H376 H 0.38056 0.67597 0.18586 0.0
S377 S 0.39781 0.94857 0.30628 0.0
N378 N 0.39524 0.84521 0.3241 0.0
N379 N 0.39407 0.93944 0.25655 0.0
C380 C 0.39054 0.84907 0.25247 0.0
C381 C 0.39105 0.79767 0.28918 0.0
C382 C 0.8799 0.84583 0.74747 0.0
C383 C 0.88667 0.80547 0.78497 0.0
C384 C 0.87938 0.79516 0.71145 0.0
C385 C 0.88578 0.70192 0.71128 0.0
H386 H 0.87416 0.91663 0.74601 0.0
H387 H 0.87347 0.82968 0.68354 0.0
S388 S 0.90814 0.56595 0.80101 0.0
N389 N 0.90219 0.66775 0.81943 0.0
N390 N 0.90119 0.57307 0.7518 0.0
C391 C 0.89359 0.66138 0.74843 0.0
C392 C 0.89405 0.71293 0.78517 0.0
C393 C 0.63421 0.15658 0.74951 0.0
C394 C 0.63232 0.19954 0.7875 0.0
C395 C 0.63472 0.20627 0.71326 0.0
C396 C 0.63326 0.30123 0.71333 0.0
H397 H 0.6359 0.08403 0.74767 0.0
H398 H 0.63658 0.16945 0.68491 0.0
S399 S 0.626 0.44658 0.80461 0.0
N400 N 0.62736 0.34337 0.8228 0.0
N401 N 0.62851 0.43581 0.75482 0.0
C402 C 0.63056 0.34498 0.75104 0.0
C403 C 0.63006 0.29449 0.788 0.0
C404 C 0.13908 0.5533 0.1214 0.0
C405 C 0.12513 0.62562 0.10141 0.0
C406 C 0.14243 0.47011 0.10199 0.0
C407 C 0.13188 0.45621 0.06187 0.0
H408 H 0.14803 0.56159 0.15194 0.0
H409 H 0.15365 0.41642 0.11855 0.0
S410 S 0.09047 0.62248 0.99834 0.0
N411 N 0.09818 0.67684 0.04097 0.0
N412 N 0.10507 0.52073 0.00399 0.0
C413 C 0.1172 0.52771 0.04194 0.0
C414 C 0.11356 0.61227 0.06192 0.0
C415 C 0.4027 0.4443 0.10717 0.0
C416 C 0.37895 0.3822 0.11392 0.0
C417 C 0.3963 0.53113 0.09285 0.0
C418 C 0.36583 0.5592 0.08565 0.0
H419 H 0.42636 0.42578 0.11326 0.0
H420 H 0.41524 0.57775 0.08924 0.0
S421 S 0.29557 0.42058 0.0983 0.0
N422 N 0.32401 0.35335 0.11174 0.0
N423 N 0.31184 0.51671 0.08535 0.0
C424 C 0.34197 0.49681 0.0916 0.0
C425 C 0.34856 0.40824 0.10566 0.0
C426 C 0.11663 0.97506 0.45237 0.0
C427 C 0.13297 0.04932 0.43711 0.0
C428 C 0.11589 0.89306 0.43134 0.0
C429 C 0.13189 0.88129 0.39455 0.0
H430 H 0.10394 0.9805 0.48061 0.0
H431 H 0.1023 0.83885 0.44388 0.0
S432 S 0.17895 0.05343 0.34198 0.0
N433 N 0.16574 0.10552 0.38281 0.0
N434 N 0.16472 0.95049 0.34373 0.0
C435 C 0.14812 0.95499 0.37868 0.0
C436 C 0.14867 0.03906 0.39991 0.0
C437 C 0.34595 0.0084 0.40782 0.0
C438 C 0.36953 0.94725 0.41763 0.0
C439 C 0.3527 0.09545 0.39429 0.0
C440 C 0.38323 0.12394 0.38952 0.0
H441 H 0.32207 0.98796 0.40939 0.0
H442 H 0.33392 0.13985 0.38621 0.0
S443 S 0.45342 0.99347 0.41294 0.0
N444 N 0.42485 0.92418 0.42358 0.0
N445 N 0.43722 0.0878 0.3974 0.0
C446 C 0.40703 0.06546 0.40054 0.0
C447 C 0.40025 0.9771 0.41493 0.0
C448 C 0.86955 0.52986 0.90134 0.0
C449 C 0.88381 0.54679 0.93909 0.0
C450 C 0.87204 0.44618 0.88218 0.0
C451 C 0.88891 0.37627 0.89995 0.0
H452 H 0.85635 0.5819 0.8863 0.0
H453 H 0.86048 0.43594 0.85335 0.0
S454 S 0.93267 0.38745 0.9967 0.0
N455 N 0.91639 0.48741 0.99273 0.0
N456 N 0.92172 0.33038 0.95609 0.0
C457 C 0.90363 0.39222 0.93739 0.0
C458 C 0.90085 0.47738 0.95718 0.0
C459 C 0.61464 0.56507 0.90263 0.0
C460 C 0.63764 0.62119 0.88684 0.0
C461 C 0.62174 0.47819 0.91647 0.0
C462 C 0.65206 0.44472 0.91466 0.0
H463 H 0.59098 0.58779 0.90346 0.0
H464 H 0.6031 0.43569 0.92684 0.0
S465 S 0.72072 0.57045 0.87895 0.0
N466 N 0.69186 0.64117 0.87256 0.0
N467 N 0.70548 0.47836 0.89838 0.0
C468 C 0.67538 0.50253 0.90051 0.0
C469 C 0.66809 0.59067 0.88658 0.0
C470 C 0.84883 0.99179 0.61968 0.0
C471 C 0.86536 0.94793 0.58852 0.0
C472 C 0.85669 0.07842 0.63261 0.0
C473 C 0.88102 0.12537 0.61447 0.0
H474 H 0.83019 0.95808 0.6353 0.0
H475 H 0.84362 0.10895 0.65705 0.0
S476 S 0.93114 0.04374 0.53114 0.0
N477 N 0.907 0.95994 0.53932 0.0
N478 N 0.92144 0.12374 0.56359 0.0
C479 C 0.89729 0.08408 0.58266 0.0
C480 C 0.88953 0.99514 0.56967 0.0
C481 C 0.66607 0.90054 0.59914 0.0
C482 C 0.63653 0.87628 0.61253 0.0
C483 C 0.67224 0.98777 0.58539 0.0
C484 C 0.64892 0.05308 0.58375 0.0
H485 H 0.68484 0.85278 0.60072 0.0
H486 H 0.6956 0.00485 0.5769 0.0
S487 S 0.5674 0.02146 0.61415 0.0
N488 N 0.58363 0.92287 0.62266 0.0
N489 N 0.59487 0.08667 0.59597 0.0
C490 C 0.619 0.02858 0.59583 0.0
C491 C 0.61292 0.94022 0.6106 0.0
loop_
_geom_bond_atom_site_label_1
_geom_bond_atom_site_label_2
_geom_bond_distance
_geom_bond_site_symmetry_2
_ccdc_geom_bond_type
Co0 O3 1.970 . S
Co0 N17 1.989 . S
Co0 O25 1.967 . S
Co0 O32 1.920 . S
Co1 O4 1.966 . S
Co1 N10 2.022 . S
Co1 N18 1.993 1_565 S
Co1 O26 1.941 1_565 S
C2 O3 1.258 . S
C2 O4 1.263 1_545 S
O3 Co0 1.970 . S
O3 C2 1.258 . S
O4 Co1 1.966 . S
O4 C2 1.263 1_565 S
C5 O6 1.235 . S
C5 O32 1.289 . S
O6 C5 1.235 . S
C7 C9 1.400 . S
C7 N10 1.351 . S
C7 C12 1.501 . S
C8 C9 1.387 . S
C8 N11 1.341 . S
C9 C7 1.400 . S
C9 C8 1.387 . S
N10 Co1 2.022 . S
N10 C7 1.351 . S
N10 N11 1.365 . S
N11 C8 1.341 . S
N11 N10 1.365 . S
N11 H31 0.862 . S
C12 C7 1.501 . S
C12 H13 0.961 . S
C12 H14 0.961 . S
C12 H15 0.960 . S
H13 C12 0.961 . S
H14 C12 0.961 . S
H15 C12 0.960 . S
C16 N17 1.342 . S
C16 C20 1.401 . S
C16 C21 1.499 . S
N17 Co0 1.989 . S
N17 C16 1.342 . S
N17 N18 1.388 . S
N18 Co1 1.993 1_545 S
N18 N17 1.388 . S
N18 C19 1.346 1_545 S
C19 N18 1.346 1_565 S
C19 C20 1.396 1_565 S
C19 C29 1.510 . S
C20 C16 1.401 . S
C20 C19 1.396 1_545 S
C21 C16 1.499 . S
C21 H22 0.959 . S
C21 H23 0.960 . S
C21 H24 0.961 . S
H22 C21 0.959 . S
H23 C21 0.960 . S
H24 C21 0.961 . S
O25 Co0 1.967 . S
O25 C33 1.258 . S
O26 Co1 1.941 1_545 S
O26 C33 1.266 . S
H27 C29 0.959 . S
H28 C29 0.961 . S
C29 C19 1.510 . S
C29 H27 0.959 . S
C29 H28 0.961 . S
C29 H30 0.960 . S
H30 C29 0.960 . S
H31 N11 0.862 . S
O32 Co0 1.920 . S
O32 C5 1.289 . S
C33 O25 1.258 . S
C33 O26 1.266 . S
Co34 O37 1.970 . S
Co34 N51 1.989 . S
Co34 O59 1.967 . S
Co34 O66 1.920 . S
Co35 O38 1.966 . S
Co35 N44 2.022 . S
Co35 N52 1.993 1_545 S
Co35 O60 1.941 1_545 S
C36 O37 1.258 . S
C36 O38 1.263 1_565 S
O37 Co34 1.970 . S
O37 C36 1.258 . S
O38 Co35 1.966 . S
O38 C36 1.263 1_545 S
C39 O40 1.235 . S
C39 O66 1.289 . S
O40 C39 1.235 . S
C41 C43 1.400 . S
C41 N44 1.351 . S
C41 C46 1.501 . S
C42 C43 1.387 . S
C42 N45 1.341 . S
C43 C41 1.400 . S
C43 C42 1.387 . S
N44 Co35 2.022 . S
N44 C41 1.351 . S
N44 N45 1.365 . S
N45 C42 1.341 . S
N45 N44 1.365 . S
N45 H65 0.862 . S
C46 C41 1.501 . S
C46 H47 0.961 . S
C46 H48 0.961 . S
C46 H49 0.960 . S
H47 C46 0.961 . S
H48 C46 0.961 . S
H49 C46 0.960 . S
C50 N51 1.342 . S
C50 C54 1.401 . S
C50 C55 1.499 . S
N51 Co34 1.989 . S
N51 C50 1.342 . S
N51 N52 1.388 . S
N52 Co35 1.993 1_565 S
N52 N51 1.388 . S
N52 C53 1.346 1_565 S
C53 N52 1.346 1_545 S
C53 C54 1.396 1_545 S
C53 C63 1.510 . S
C54 C50 1.401 . S
C54 C53 1.396 1_565 S
C55 C50 1.499 . S
C55 H56 0.959 . S
C55 H57 0.960 . S
C55 H58 0.961 . S
H56 C55 0.959 . S
H57 C55 0.960 . S
H58 C55 0.961 . S
O59 Co34 1.967 . S
O59 C67 1.258 . S
O60 Co35 1.941 1_565 S
O60 C67 1.266 . S
H61 C63 0.959 . S
H62 C63 0.961 . S
C63 C53 1.510 . S
C63 H61 0.959 . S
C63 H62 0.961 . S
C63 H64 0.960 . S
H64 C63 0.960 . S
H65 N45 0.862 . S
O66 Co34 1.920 . S
O66 C39 1.289 . S
C67 O59 1.258 . S
C67 O60 1.266 . S
Co68 O71 1.970 . S
Co68 N85 1.989 . S
Co68 O93 1.967 . S
Co68 O100 1.920 . S
Co69 O72 1.966 . S
Co69 N78 2.022 . S
Co69 N86 1.993 . S
Co69 O94 1.941 . S
C70 O71 1.258 . S
C70 O72 1.263 . S
O71 Co68 1.970 . S
O71 C70 1.258 . S
O72 Co69 1.966 . S
O72 C70 1.263 . S
C73 O74 1.235 . S
C73 O100 1.289 . S
O74 C73 1.235 . S
C75 C77 1.400 . S
C75 N78 1.351 . S
C75 C80 1.501 . S
C76 C77 1.387 . S
C76 N79 1.341 . S
C77 C75 1.400 . S
C77 C76 1.387 . S
N78 Co69 2.022 . S
N78 C75 1.351 . S
N78 N79 1.365 . S
N79 C76 1.341 . S
N79 N78 1.365 . S
N79 H99 0.862 . S
C80 C75 1.501 . S
C80 H81 0.961 . S
C80 H82 0.961 . S
C80 H83 0.960 . S
H81 C80 0.961 . S
H82 C80 0.961 . S
H83 C80 0.960 . S
C84 N85 1.342 . S
C84 C88 1.401 . S
C84 C89 1.499 . S
N85 Co68 1.989 . S
N85 C84 1.342 . S
N85 N86 1.388 . S
N86 Co69 1.993 . S
N86 N85 1.388 . S
N86 C87 1.346 . S
C87 N86 1.346 . S
C87 C88 1.396 . S
C87 C97 1.510 . S
C88 C84 1.401 . S
C88 C87 1.396 . S
C89 C84 1.499 . S
C89 H90 0.959 . S
C89 H91 0.960 . S
C89 H92 0.961 . S
H90 C89 0.959 . S
H91 C89 0.960 . S
H92 C89 0.961 . S
O93 Co68 1.967 . S
O93 C101 1.258 . S
O94 Co69 1.941 . S
O94 C101 1.266 . S
H95 C97 0.959 . S
H96 C97 0.961 . S
C97 C87 1.510 . S
C97 H95 0.959 . S
C97 H96 0.961 . S
C97 H98 0.960 . S
H98 C97 0.960 . S
H99 N79 0.862 . S
O100 Co68 1.920 . S
O100 C73 1.289 . S
C101 O93 1.258 . S
C101 O94 1.266 . S
Co102 O105 1.970 . S
Co102 N119 1.989 . S
Co102 O127 1.967 . S
Co102 O134 1.920 . S
Co103 O106 1.966 . S
Co103 N112 2.022 . S
Co103 N120 1.993 . S
Co103 O128 1.941 . S
C104 O105 1.258 . S
C104 O106 1.263 . S
O105 Co102 1.970 . S
O105 C104 1.258 . S
O106 Co103 1.966 . S
O106 C104 1.263 . S
C107 O108 1.235 . S
C107 O134 1.289 . S
O108 C107 1.235 . S
C109 C111 1.400 . S
C109 N112 1.351 . S
C109 C114 1.501 . S
C110 C111 1.387 . S
C110 N113 1.341 . S
C111 C109 1.400 . S
C111 C110 1.387 . S
N112 Co103 2.022 . S
N112 C109 1.351 . S
N112 N113 1.365 . S
N113 C110 1.341 . S
N113 N112 1.365 . S
N113 H133 0.862 . S
C114 C109 1.501 . S
C114 H115 0.961 . S
C114 H116 0.961 . S
C114 H117 0.960 . S
H115 C114 0.961 . S
H116 C114 0.961 . S
H117 C114 0.960 . S
C118 N119 1.342 . S
C118 C122 1.401 . S
C118 C123 1.499 . S
N119 Co102 1.989 . S
N119 C118 1.342 . S
N119 N120 1.388 . S
N120 Co103 1.993 . S
N120 N119 1.388 . S
N120 C121 1.346 . S
C121 N120 1.346 . S
C121 C122 1.396 . S
C121 C131 1.510 . S
C122 C118 1.401 . S
C122 C121 1.396 . S
C123 C118 1.499 . S
C123 H124 0.959 . S
C123 H125 0.960 . S
C123 H126 0.961 . S
H124 C123 0.959 . S
H125 C123 0.960 . S
H126 C123 0.961 . S
O127 Co102 1.967 . S
O127 C135 1.258 . S
O128 Co103 1.941 . S
O128 C135 1.266 . S
H129 C131 0.959 . S
H130 C131 0.961 . S
C131 C121 1.510 . S
C131 H129 0.959 . S
C131 H130 0.961 . S
C131 H132 0.960 . S
H132 C131 0.960 . S
H133 N113 0.862 . S
O134 Co102 1.920 . S
O134 C107 1.289 . S
C135 O127 1.258 . S
C135 O128 1.266 . S
Co136 O139 1.970 . S
Co136 N153 1.989 . S
Co136 O161 1.967 . S
Co136 O168 1.920 . S
Co137 O140 1.966 . S
Co137 N146 2.022 . S
Co137 N154 1.993 1_545 S
Co137 O162 1.941 1_545 S
C138 O139 1.258 . S
C138 O140 1.263 1_565 S
O139 Co136 1.970 . S
O139 C138 1.258 . S
O140 Co137 1.966 . S
O140 C138 1.263 1_545 S
C141 O142 1.235 . S
C141 O168 1.289 . S
O142 C141 1.235 . S
C143 C145 1.400 . S
C143 N146 1.351 . S
C143 C148 1.501 . S
C144 C145 1.387 . S
C144 N147 1.341 . S
C145 C143 1.400 . S
C145 C144 1.387 . S
N146 Co137 2.022 . S
N146 C143 1.351 . S
N146 N147 1.365 . S
N147 C144 1.341 . S
N147 N146 1.365 . S
N147 H167 0.862 . S
C148 C143 1.501 . S
C148 H149 0.961 . S
C148 H150 0.961 . S
C148 H151 0.960 . S
H149 C148 0.961 . S
H150 C148 0.961 . S
H151 C148 0.960 . S
C152 N153 1.342 . S
C152 C156 1.401 . S
C152 C157 1.499 . S
N153 Co136 1.989 . S
N153 C152 1.342 . S
N153 N154 1.388 . S
N154 Co137 1.993 1_565 S
N154 N153 1.388 . S
N154 C155 1.346 1_565 S
C155 N154 1.346 1_545 S
C155 C156 1.396 1_545 S
C155 C165 1.510 . S
C156 C152 1.401 . S
C156 C155 1.396 1_565 S
C157 C152 1.499 . S
C157 H158 0.959 . S
C157 H159 0.960 . S
C157 H160 0.961 . S
H158 C157 0.959 . S
H159 C157 0.960 . S
H160 C157 0.961 . S
O161 Co136 1.967 . S
O161 C169 1.258 . S
O162 Co137 1.941 1_565 S
O162 C169 1.266 . S
H163 C165 0.959 . S
H164 C165 0.961 . S
C165 C155 1.510 . S
C165 H163 0.959 . S
C165 H164 0.961 . S
C165 H166 0.960 . S
H166 C165 0.960 . S
H167 N147 0.862 . S
O168 Co136 1.920 . S
O168 C141 1.289 . S
C169 O161 1.258 . S
C169 O162 1.266 . S
Co170 O173 1.970 . S
Co170 N187 1.989 . S
Co170 O195 1.967 . S
Co170 O202 1.920 . S
Co171 O174 1.966 . S
Co171 N180 2.022 . S
Co171 N188 1.993 1_565 S
Co171 O196 1.941 1_565 S
C172 O173 1.258 . S
C172 O174 1.263 1_545 S
O173 Co170 1.970 . S
O173 C172 1.258 . S
O174 Co171 1.966 . S
O174 C172 1.263 1_565 S
C175 O176 1.235 . S
C175 O202 1.289 . S
O176 C175 1.235 . S
C177 C179 1.400 . S
C177 N180 1.351 . S
C177 C182 1.501 . S
C178 C179 1.387 . S
C178 N181 1.341 . S
C179 C177 1.400 . S
C179 C178 1.387 . S
N180 Co171 2.022 . S
N180 C177 1.351 . S
N180 N181 1.365 . S
N181 C178 1.341 . S
N181 N180 1.365 . S
N181 H201 0.862 . S
C182 C177 1.501 . S
C182 H183 0.961 . S
C182 H184 0.961 . S
C182 H185 0.960 . S
H183 C182 0.961 . S
H184 C182 0.961 . S
H185 C182 0.960 . S
C186 N187 1.342 . S
C186 C190 1.401 . S
C186 C191 1.499 . S
N187 Co170 1.989 . S
N187 C186 1.342 . S
N187 N188 1.388 . S
N188 Co171 1.993 1_545 S
N188 N187 1.388 . S
N188 C189 1.346 1_545 S
C189 N188 1.346 1_565 S
C189 C190 1.396 1_565 S
C189 C199 1.510 . S
C190 C186 1.401 . S
C190 C189 1.396 1_545 S
C191 C186 1.499 . S
C191 H192 0.959 . S
C191 H193 0.960 . S
C191 H194 0.961 . S
H192 C191 0.959 . S
H193 C191 0.960 . S
H194 C191 0.961 . S
O195 Co170 1.967 . S
O195 C203 1.258 . S
O196 Co171 1.941 1_545 S
O196 C203 1.266 . S
H197 C199 0.959 . S
H198 C199 0.961 . S
C199 C189 1.510 . S
C199 H197 0.959 . S
C199 H198 0.961 . S
C199 H200 0.960 . S
H200 C199 0.960 . S
H201 N181 0.862 . S
O202 Co170 1.920 . S
O202 C175 1.289 . S
C203 O195 1.258 . S
C203 O196 1.266 . S
Co204 O207 1.970 . S
Co204 N221 1.989 . S
Co204 O229 1.967 . S
Co204 O236 1.920 . S
Co205 O208 1.966 . S
Co205 N214 2.022 . S
Co205 N222 1.993 . S
Co205 O230 1.941 . S
C206 O207 1.258 . S
C206 O208 1.263 . S
O207 Co204 1.970 . S
O207 C206 1.258 . S
O208 Co205 1.966 . S
O208 C206 1.263 . S
C209 O210 1.235 . S
C209 O236 1.289 . S
O210 C209 1.235 . S
C211 C213 1.400 . S
C211 N214 1.351 . S
C211 C216 1.501 . S
C212 C213 1.387 . S
C212 N215 1.341 . S
C213 C211 1.400 . S
C213 C212 1.387 . S
N214 Co205 2.022 . S
N214 C211 1.351 . S
N214 N215 1.365 . S
N215 C212 1.341 . S
N215 N214 1.365 . S
N215 H235 0.862 . S
C216 C211 1.501 . S
C216 H217 0.961 . S
C216 H218 0.961 . S
C216 H219 0.960 . S
H217 C216 0.961 . S
H218 C216 0.961 . S
H219 C216 0.960 . S
C220 N221 1.342 . S
C220 C224 1.401 . S
C220 C225 1.499 . S
N221 Co204 1.989 . S
N221 C220 1.342 . S
N221 N222 1.388 . S
N222 Co205 1.993 . S
N222 N221 1.388 . S
N222 C223 1.346 . S
C223 N222 1.346 . S
C223 C224 1.396 . S
C223 C233 1.510 . S
C224 C220 1.401 . S
C224 C223 1.396 . S
C225 C220 1.499 . S
C225 H226 0.959 . S
C225 H227 0.960 . S
C225 H228 0.961 . S
H226 C225 0.959 . S
H227 C225 0.960 . S
H228 C225 0.961 . S
O229 Co204 1.967 . S
O229 C237 1.258 . S
O230 Co205 1.941 . S
O230 C237 1.266 . S
H231 C233 0.959 . S
H232 C233 0.961 . S
C233 C223 1.510 . S
C233 H231 0.959 . S
C233 H232 0.961 . S
C233 H234 0.960 . S
H234 C233 0.960 . S
H235 N215 0.862 . S
O236 Co204 1.920 . S
O236 C209 1.289 . S
C237 O229 1.258 . S
C237 O230 1.266 . S
Co238 O241 1.970 . S
Co238 N255 1.989 . S
Co238 O263 1.967 . S
Co238 O270 1.920 . S
Co239 O242 1.966 . S
Co239 N248 2.022 . S
Co239 N256 1.993 . S
Co239 O264 1.941 . S
C240 O241 1.258 . S
C240 O242 1.263 . S
O241 Co238 1.970 . S
O241 C240 1.258 . S
O242 Co239 1.966 . S
O242 C240 1.263 . S
C243 O244 1.235 . S
C243 O270 1.289 . S
O244 C243 1.235 . S
C245 C247 1.400 . S
C245 N248 1.351 . S
C245 C250 1.501 . S
C246 C247 1.387 . S
C246 N249 1.341 . S
C247 C245 1.400 . S
C247 C246 1.387 . S
N248 Co239 2.022 . S
N248 C245 1.351 . S
N248 N249 1.365 . S
N249 C246 1.341 . S
N249 N248 1.365 . S
N249 H269 0.862 . S
C250 C245 1.501 . S
C250 H251 0.961 . S
C250 H252 0.961 . S
C250 H253 0.960 . S
H251 C250 0.961 . S
H252 C250 0.961 . S
H253 C250 0.960 . S
C254 N255 1.342 . S
C254 C258 1.401 . S
C254 C259 1.499 . S
N255 Co238 1.989 . S
N255 C254 1.342 . S
N255 N256 1.388 . S
N256 Co239 1.993 . S
N256 N255 1.388 . S
N256 C257 1.346 . S
C257 N256 1.346 . S
C257 C258 1.396 . S
C257 C267 1.510 . S
C258 C254 1.401 . S
C258 C257 1.396 . S
C259 C254 1.499 . S
C259 H260 0.959 . S
C259 H261 0.960 . S
C259 H262 0.961 . S
H260 C259 0.959 . S
H261 C259 0.960 . S
H262 C259 0.961 . S
O263 Co238 1.967 . S
O263 C271 1.258 . S
O264 Co239 1.941 . S
O264 C271 1.266 . S
H265 C267 0.959 . S
H266 C267 0.961 . S
C267 C257 1.510 . S
C267 H265 0.959 . S
C267 H266 0.961 . S
C267 H268 0.960 . S
H268 C267 0.960 . S
H269 N249 0.862 . S
O270 Co238 1.920 . S
O270 C243 1.289 . S
C271 O263 1.258 . S
C271 O264 1.266 . S
C272 C273 1.369 . S
C272 C274 1.419 . S
C272 H276 0.930 . S
C273 C272 1.369 . S
C273 C282 1.429 1_545 S
C274 C272 1.419 . S
C274 C275 1.363 1_545 S
C274 H277 0.929 . S
C275 C274 1.363 1_565 S
C275 C281 1.428 . S
H276 C272 0.930 . S
H277 C274 0.929 . S
S278 N279 1.613 . S
S278 N280 1.610 . S
N279 S278 1.613 . S
N279 C282 1.350 . S
N280 S278 1.610 . S
N280 C281 1.351 . S
C281 C275 1.428 . S
C281 N280 1.351 . S
C281 C282 1.434 . S
C282 C273 1.429 1_565 S
C282 N279 1.350 . S
C282 C281 1.434 . S
C283 C284 1.369 . S
C283 C285 1.419 . S
C283 H287 0.930 . S
C284 C283 1.369 . S
C284 C293 1.429 . S
C285 C283 1.419 . S
C285 C286 1.363 . S
C285 H288 0.929 . S
C286 C285 1.363 . S
C286 C292 1.428 . S
H287 C283 0.930 . S
H288 C285 0.929 . S
S289 N290 1.613 . S
S289 N291 1.610 . S
N290 S289 1.613 . S
N290 C293 1.350 . S
N291 S289 1.610 . S
N291 C292 1.351 . S
C292 C286 1.428 . S
C292 N291 1.351 . S
C292 C293 1.434 . S
C293 C284 1.429 . S
C293 N290 1.350 . S
C293 C292 1.434 . S
C294 C295 1.369 1_545 S
C294 C296 1.419 . S
C294 H298 0.930 . S
C295 C294 1.369 1_565 S
C295 C304 1.429 . S
C296 C294 1.419 . S
C296 C297 1.363 . S
C296 H299 0.929 . S
C297 C296 1.363 . S
C297 C303 1.428 1_545 S
H298 C294 0.930 . S
H299 C296 0.929 . S
S300 N301 1.613 . S
S300 N302 1.610 . S
N301 S300 1.613 . S
N301 C304 1.350 . S
N302 S300 1.610 . S
N302 C303 1.351 . S
C303 C297 1.428 1_565 S
C303 N302 1.351 . S
C303 C304 1.434 . S
C304 C295 1.429 . S
C304 N301 1.350 . S
C304 C303 1.434 . S
C305 C306 1.369 . S
C305 C307 1.419 . S
C305 H309 0.930 . S
C306 C305 1.369 . S
C306 C315 1.429 . S
C307 C305 1.419 . S
C307 C308 1.363 . S
C307 H310 0.929 . S
C308 C307 1.363 . S
C308 C314 1.428 . S
H309 C305 0.930 . S
H310 C307 0.929 . S
S311 N312 1.613 . S
S311 N313 1.610 . S
N312 S311 1.613 . S
N312 C315 1.350 . S
N313 S311 1.610 . S
N313 C314 1.351 . S
C314 C308 1.428 . S
C314 N313 1.351 . S
C314 C315 1.434 . S
C315 C306 1.429 . S
C315 N312 1.350 . S
C315 C314 1.434 . S
C316 C317 1.369 1_556 S
C316 C318 1.419 1_455 S
C316 H320 0.930 . S
C317 C316 1.369 1_554 S
C317 C326 1.429 1_545 S
C318 C316 1.419 1_655 S
C318 C319 1.363 1_545 S
C318 H321 0.929 . S
C319 C318 1.363 1_565 S
C319 C325 1.428 1_556 S
H320 C316 0.930 . S
H321 C318 0.929 . S
S322 N323 1.613 1_655 S
S322 N324 1.610 . S
N323 S322 1.613 1_455 S
N323 C326 1.350 . S
N324 S322 1.610 . S
N324 C325 1.351 . S
C325 C319 1.428 1_554 S
C325 N324 1.351 . S
C325 C326 1.434 1_655 S
C326 C317 1.429 1_565 S
C326 N323 1.350 . S
C326 C325 1.434 1_455 S
C327 C328 1.369 1_556 S
C327 C329 1.419 . S
C327 H331 0.930 . S
C328 C327 1.369 1_554 S
C328 C337 1.429 1_565 S
C329 C327 1.419 . S
C329 C330 1.363 1_565 S
C329 H332 0.929 . S
C330 C329 1.363 1_545 S
C330 C336 1.428 1_556 S
H331 C327 0.930 . S
H332 C329 0.929 . S
S333 N334 1.613 . S
S333 N335 1.610 . S
N334 S333 1.613 . S
N334 C337 1.350 . S
N335 S333 1.610 . S
N335 C336 1.351 . S
C336 C330 1.428 1_554 S
C336 N335 1.351 . S
C336 C337 1.434 . S
C337 C328 1.429 1_545 S
C337 N334 1.350 . S
C337 C336 1.434 . S
C338 C339 1.369 . S
C338 C340 1.419 1_455 S
C338 H342 0.930 . S
C339 C338 1.369 . S
C339 C348 1.429 . S
C340 C338 1.419 1_655 S
C340 C341 1.363 . S
C340 H343 0.929 . S
C341 C340 1.363 . S
C341 C347 1.428 . S
H342 C338 0.930 . S
H343 C340 0.929 . S
S344 N345 1.613 . S
S344 N346 1.610 1_455 S
N345 S344 1.613 . S
N345 C348 1.350 . S
N346 S344 1.610 1_655 S
N346 C347 1.351 . S
C347 C341 1.428 . S
C347 N346 1.351 . S
C347 C348 1.434 1_655 S
C348 C339 1.429 . S
C348 N345 1.350 . S
C348 C347 1.434 1_455 S
C349 C350 1.369 . S
C349 C351 1.419 . S
C349 H353 0.930 . S
C350 C349 1.369 . S
C350 C359 1.429 . S
C351 C349 1.419 . S
C351 C352 1.363 . S
C351 H354 0.929 . S
C352 C351 1.363 . S
C352 C358 1.428 . S
H353 C349 0.930 . S
H354 C351 0.929 . S
S355 N356 1.613 . S
S355 N357 1.610 . S
N356 S355 1.613 . S
N356 C359 1.350 . S
N357 S355 1.610 . S
N357 C358 1.351 . S
C358 C352 1.428 . S
C358 N357 1.351 . S
C358 C359 1.434 . S
C359 C350 1.429 . S
C359 N356 1.350 . S
C359 C358 1.434 . S
C360 C361 1.369 . S
C360 C362 1.419 . S
C360 H364 0.930 . S
C361 C360 1.369 . S
C361 C370 1.429 . S
C362 C360 1.419 . S
C362 C363 1.363 . S
C362 H365 0.929 . S
C363 C362 1.363 . S
C363 C369 1.428 . S
H364 C360 0.930 . S
H365 C362 0.929 . S
S366 N367 1.613 . S
S366 N368 1.610 . S
N367 S366 1.613 . S
N367 C370 1.350 . S
N368 S366 1.610 . S
N368 C369 1.351 . S
C369 C363 1.428 . S
C369 N368 1.351 . S
C369 C370 1.434 . S
C370 C361 1.429 . S
C370 N367 1.350 . S
C370 C369 1.434 . S
C371 C372 1.369 . S
C371 C373 1.419 . S
C371 H375 0.930 . S
C372 C371 1.369 . S
C372 C381 1.429 . S
C373 C371 1.419 . S
C373 C374 1.363 . S
C373 H376 0.929 . S
C374 C373 1.363 . S
C374 C380 1.428 . S
H375 C371 0.930 . S
H376 C373 0.929 . S
S377 N378 1.613 . S
S377 N379 1.610 . S
N378 S377 1.613 . S
N378 C381 1.350 . S
N379 S377 1.610 . S
N379 C380 1.351 . S
C380 C374 1.428 . S
C380 N379 1.351 . S
C380 C381 1.434 . S
C381 C372 1.429 . S
C381 N378 1.350 . S
C381 C380 1.434 . S
C382 C383 1.369 . S
C382 C384 1.419 . S
C382 H386 0.930 . S
C383 C382 1.369 . S
C383 C392 1.429 . S
C384 C382 1.419 . S
C384 C385 1.363 . S
C384 H387 0.929 . S
C385 C384 1.363 . S
C385 C391 1.428 . S
H386 C382 0.930 . S
H387 C384 0.929 . S
S388 N389 1.613 . S
S388 N390 1.610 . S
N389 S388 1.613 . S
N389 C392 1.350 . S
N390 S388 1.610 . S
N390 C391 1.351 . S
C391 C385 1.428 . S
C391 N390 1.351 . S
C391 C392 1.434 . S
C392 C383 1.429 . S
C392 N389 1.350 . S
C392 C391 1.434 . S
C393 C394 1.369 . S
C393 C395 1.419 . S
C393 H397 0.930 . S
C394 C393 1.369 . S
C394 C403 1.429 . S
C395 C393 1.419 . S
C395 C396 1.363 . S
C395 H398 0.929 . S
C396 C395 1.363 . S
C396 C402 1.428 . S
H397 C393 0.930 . S
H398 C395 0.929 . S
S399 N400 1.613 . S
S399 N401 1.610 . S
N400 S399 1.613 . S
N400 C403 1.350 . S
N401 S399 1.610 . S
N401 C402 1.351 . S
C402 C396 1.428 . S
C402 N401 1.351 . S
C402 C403 1.434 . S
C403 C394 1.429 . S
C403 N400 1.350 . S
C403 C402 1.434 . S
C404 C405 1.369 . S
C404 C406 1.419 . S
C404 H408 0.930 . S
C405 C404 1.369 . S
C405 C414 1.429 . S
C406 C404 1.419 . S
C406 C407 1.363 . S
C406 H409 0.929 . S
C407 C406 1.363 . S
C407 C413 1.428 . S
H408 C404 0.930 . S
H409 C406 0.929 . S
S410 N411 1.613 1_556 S
S410 N412 1.610 . S
N411 S410 1.613 1_554 S
N411 C414 1.350 . S
N412 S410 1.610 . S
N412 C413 1.351 1_556 S
C413 C407 1.428 . S
C413 N412 1.351 1_554 S
C413 C414 1.434 . S
C414 C405 1.429 . S
C414 N411 1.350 . S
C414 C413 1.434 . S
C415 C416 1.369 . S
C415 C417 1.419 . S
C415 H419 0.930 . S
C416 C415 1.369 . S
C416 C425 1.429 . S
C417 C415 1.419 . S
C417 C418 1.363 . S
C417 H420 0.929 . S
C418 C417 1.363 . S
C418 C424 1.428 . S
H419 C415 0.930 . S
H420 C417 0.929 . S
S421 N422 1.613 . S
S421 N423 1.610 . S
N422 S421 1.613 . S
N422 C425 1.350 . S
N423 S421 1.610 . S
N423 C424 1.351 . S
C424 C418 1.428 . S
C424 N423 1.351 . S
C424 C425 1.434 . S
C425 C416 1.429 . S
C425 N422 1.350 . S
C425 C424 1.434 . S
C426 C427 1.369 . S
C426 C428 1.419 1_545 S
C426 H430 0.930 . S
C427 C426 1.369 . S
C427 C436 1.429 . S
C428 C426 1.419 1_565 S
C428 C429 1.363 . S
C428 H431 0.929 . S
C429 C428 1.363 . S
C429 C435 1.428 . S
H430 C426 0.930 . S
H431 C428 0.929 . S
S432 N433 1.613 . S
S432 N434 1.610 1_545 S
N433 S432 1.613 . S
N433 C436 1.350 . S
N434 S432 1.610 1_565 S
N434 C435 1.351 . S
C435 C429 1.428 . S
C435 N434 1.351 . S
C435 C436 1.434 1_565 S
C436 C427 1.429 . S
C436 N433 1.350 . S
C436 C435 1.434 1_545 S
C437 C438 1.369 1_545 S
C437 C439 1.419 . S
C437 H441 0.930 1_545 S
C438 C437 1.369 1_565 S
C438 C447 1.429 . S
C439 C437 1.419 . S
C439 C440 1.363 . S
C439 H442 0.929 . S
C440 C439 1.363 . S
C440 C446 1.428 . S
H441 C437 0.930 1_565 S
H442 C439 0.929 . S
S443 N444 1.613 . S
S443 N445 1.610 1_565 S
N444 S443 1.613 . S
N444 C447 1.350 . S
N445 S443 1.610 1_545 S
N445 C446 1.351 . S
C446 C440 1.428 . S
C446 N445 1.351 . S
C446 C447 1.434 1_545 S
C447 C438 1.429 . S
C447 N444 1.350 . S
C447 C446 1.434 1_565 S
C448 C449 1.369 . S
C448 C450 1.419 . S
C448 H452 0.930 . S
C449 C448 1.369 . S
C449 C458 1.429 . S
C450 C448 1.419 . S
C450 C451 1.363 . S
C450 H453 0.929 . S
C451 C450 1.363 . S
C451 C457 1.428 . S
H452 C448 0.930 . S
H453 C450 0.929 . S
S454 N455 1.613 . S
S454 N456 1.610 1_554 S
N455 S454 1.613 . S
N455 C458 1.350 1_554 S
N456 S454 1.610 1_556 S
N456 C457 1.351 . S
C457 C451 1.428 . S
C457 N456 1.351 . S
C457 C458 1.434 . S
C458 C449 1.429 . S
C458 N455 1.350 1_556 S
C458 C457 1.434 . S
C459 C460 1.369 . S
C459 C461 1.419 . S
C459 H463 0.930 . S
C460 C459 1.369 . S
C460 C469 1.429 . S
C461 C459 1.419 . S
C461 C462 1.363 . S
C461 H464 0.929 . S
C462 C461 1.363 . S
C462 C468 1.428 . S
H463 C459 0.930 . S
H464 C461 0.929 . S
S465 N466 1.613 . S
S465 N467 1.610 . S
N466 S465 1.613 . S
N466 C469 1.350 . S
N467 S465 1.610 . S
N467 C468 1.351 . S
C468 C462 1.428 . S
C468 N467 1.351 . S
C468 C469 1.434 . S
C469 C460 1.429 . S
C469 N466 1.350 . S
C469 C468 1.434 . S
C470 C471 1.369 . S
C470 C472 1.419 1_565 S
C470 H474 0.930 . S
C471 C470 1.369 . S
C471 C480 1.429 1_565 S
C472 C470 1.419 1_545 S
C472 C473 1.363 . S
C472 H475 0.929 . S
C473 C472 1.363 . S
C473 C479 1.428 . S
H474 C470 0.930 . S
H475 C472 0.929 . S
S476 N477 1.613 1_545 S
S476 N478 1.610 . S
N477 S476 1.613 1_565 S
N477 C480 1.350 1_565 S
N478 S476 1.610 . S
N478 C479 1.351 . S
C479 C473 1.428 . S
C479 N478 1.351 . S
C479 C480 1.434 . S
C480 C471 1.429 1_545 S
C480 N477 1.350 1_545 S
C480 C479 1.434 . S
C481 C482 1.369 . S
C481 C483 1.419 1_565 S
C481 H485 0.930 . S
C482 C481 1.369 . S
C482 C491 1.429 . S
C483 C481 1.419 1_545 S
C483 C484 1.363 . S
C483 H486 0.929 . S
C484 C483 1.363 . S
C484 C490 1.428 . S
H485 C481 0.930 . S
H486 C483 0.929 . S
S487 N488 1.613 . S
S487 N489 1.610 1_565 S
N488 S487 1.613 . S
N488 C491 1.350 . S
N489 S487 1.610 1_545 S
N489 C490 1.351 . S
C490 C484 1.428 . S
C490 N489 1.351 . S
C490 C491 1.434 1_545 S
C491 C482 1.429 . S
C491 N488 1.350 . S
C491 C490 1.434 1_565 S
C273 C2 1.591 . S
C275 C36 1.595 . S
C284 C104 1.591 . S
C286 C70 1.594 . S
C295 C138 1.595 . S
C297 C172 1.592 . S
C306 C240 1.595 . S
C308 C206 1.592 . S
C317 C20 1.554 . S
C319 C156 1.557 . S
C328 C54 1.554 . S
C330 C190 1.557 . S
C339 C88 1.557 . S
C341 C224 1.554 . S
C350 C122 1.555 . S
C352 C258 1.556 . S
C361 C101 1.674 . S
C363 C33 1.679 . S
C372 C135 1.673 . S
C374 C67 1.679 . S
C383 C169 1.674 . S
C385 C237 1.679 . S
C394 C203 1.672 . S
C396 C271 1.680 . S
C405 C9 1.391 . S
C407 C5 1.368 . S
C416 C43 1.393 . S
C418 C39 1.367 . S
C427 C73 1.362 . S
C429 C77 1.391 . S
C438 C107 1.364 . S
C440 C111 1.390 . S
C449 C141 1.368 . S
C451 C145 1.391 . S
C460 C179 1.391 . S
C462 C175 1.363 . S
C471 C209 1.369 . S
C473 C213 1.392 . S
C482 C247 1.390 . S
C484 C243 1.366 . S
