# Generated by pormake.
# Topology qtz-e, (6)-cn, num edge types: 1
# Building blocks:
#     Node 0, Type 0, BuildingBlock: CUWYAW_clean_sbu_0, # of connection points: 6
#     Node 1, Type 0, BuildingBlock: CUWYAW_clean_sbu_0, # of connection points: 6
#     Node 2, Type 0, BuildingBlock: CUWYAW_clean_sbu_0, # of connection points: 6
#     Node 3, Type 0, BuildingBlock: CUWYAW_clean_sbu_0, # of connection points: 6
#     Node 4, Type 0, BuildingBlock: CUWYAW_clean_sbu_0, # of connection points: 6
#     Node 5, Type 0, BuildingBlock: CUWYAW_clean_sbu_0, # of connection points: 6
#     Edge 6, Type (0, 0), BuildingBlock: MIFKUJ_clean_linker_0, # of connection points: 2
#     Edge 7, Type (0, 0), BuildingBlock: MIFKUJ_clean_linker_0, # of connection points: 2
#     Edge 8, Type (0, 0), BuildingBlock: MIFKUJ_clean_linker_0, # of connection points: 2
#     Edge 9, Type (0, 0), BuildingBlock: MIFKUJ_clean_linker_0, # of connection points: 2
#     Edge 10, Type (0, 0), BuildingBlock: MIFKUJ_clean_linker_0, # of connection points: 2
#     Edge 11, Type (0, 0), BuildingBlock: MIFKUJ_clean_linker_0, # of connection points: 2
#     Edge 12, Type (0, 0), BuildingBlock: MIFKUJ_clean_linker_0, # of connection points: 2
#     Edge 13, Type (0, 0), BuildingBlock: MIFKUJ_clean_linker_0, # of connection points: 2
#     Edge 14, Type (0, 0), BuildingBlock: MIFKUJ_clean_linker_0, # of connection points: 2
#     Edge 15, Type (0, 0), BuildingBlock: MIFKUJ_clean_linker_0, # of connection points: 2
#     Edge 16, Type (0, 0), BuildingBlock: MIFKUJ_clean_linker_0, # of connection points: 2
#     Edge 17, Type (0, 0), BuildingBlock: MIFKUJ_clean_linker_0, # of connection points: 2
#     Edge 18, Type (0, 0), BuildingBlock: MIFKUJ_clean_linker_0, # of connection points: 2
#     Edge 19, Type (0, 0), BuildingBlock: MIFKUJ_clean_linker_0, # of connection points: 2
#     Edge 20, Type (0, 0), BuildingBlock: MIFKUJ_clean_linker_0, # of connection points: 2
#     Edge 21, Type (0, 0), BuildingBlock: MIFKUJ_clean_linker_0, # of connection points: 2
#     Edge 22, Type (0, 0), BuildingBlock: MIFKUJ_clean_linker_0, # of connection points: 2
#     Edge 23, Type (0, 0), BuildingBlock: MIFKUJ_clean_linker_0, # of connection points: 2
# Relax obj value: 0.147
# Max RMSD: 0.203
# Mean RMSD: 0.203
data_MOF--net-qtz-e--node1-CUWYAW_clean_sbu_0--edge1-MIFKUJ_clean_linker_0
_symmetry_space_group_name_H-M    P1
_symmetry_Int_Tables_number       1
_symmetry_cell_setting            triclinic
loop_
_symmetry_equiv_pos_as_xyz
'x, y, z'
_cell_length_a     32.90185
_cell_length_b     32.974355
_cell_length_c     63.324177
_cell_angle_alpha  89.954132
_cell_angle_beta   90.330385
_cell_angle_gamma 119.72579
loop_
_atom_site_label
_atom_site_type_symbol
_atom_site_fract_x
_atom_site_fract_y
_atom_site_fract_z
_atom_type_partial_charge
C0 C 0.17819 0.27417 1.00535 0.0
Eu1 Eu 0.17833 0.34591 0.02256 0.0
C2 C 0.19519 0.26582 0.98524 0.0
C3 C 0.16726 0.22463 0.97387 0.0
C4 C 0.18159 0.21762 0.95411 0.0
C5 C 0.22412 0.25183 0.94533 0.0
C6 C 0.25238 0.29275 0.95698 0.0
C7 C 0.23811 0.2996 0.97675 0.0
C8 C 0.12024 0.37947 0.01345 0.0
C9 C 0.24631 0.43988 0.99488 0.0
C10 C 0.2095 0.51568 0.0578 0.0
Eu11 Eu 0.20676 0.44278 0.0402 0.0
C12 C 0.20306 0.5295 0.07913 0.0
C13 C 0.22651 0.57682 0.08483 0.0
C14 C 0.22097 0.59057 0.10502 0.0
C15 C 0.1915 0.55723 0.11982 0.0
C16 C 0.16813 0.50977 0.1141 0.0
C17 C 0.17416 0.49605 0.09397 0.0
C18 C 0.26672 0.41156 0.04821 0.0
C19 C 0.13674 0.34777 0.06722 0.0
O20 O 0.21013 0.30213 0.01886 0.0
O21 O 0.1429 0.28186 1.00388 0.0
O22 O 0.10502 0.33568 0.01758 0.0
O23 O 0.16398 0.40188 0.01347 0.0
O24 O 0.23428 0.39611 0.99955 0.0
O25 O 0.23301 0.46401 1.0069 0.0
O26 O 0.17222 0.4824 0.04847 0.0
O27 O 0.2465 0.51125 0.05517 0.0
O28 O 0.27984 0.45473 0.04392 0.0
O29 O 0.22295 0.3873 0.04937 0.0
O30 O 0.15188 0.39258 0.06345 0.0
O31 O 0.14744 0.32245 0.05474 0.0
H32 H 0.13405 0.19812 0.98016 0.0
H33 H 0.1593 0.18544 0.94569 0.0
H34 H 0.285 0.32011 0.9506 0.0
H35 H 0.26034 0.33164 0.98525 0.0
H36 H 0.24909 0.60318 0.07365 0.0
H37 H 0.2392 0.6274 0.10896 0.0
H38 H 0.14551 0.4833 0.12523 0.0
H39 H 0.1562 0.4594 0.08995 0.0
C40 C 0.88579 0.17536 0.33772 0.0
Eu41 Eu 0.81543 0.17735 0.3552 0.0
C42 C 0.90476 0.18465 0.31591 0.0
C43 C 0.88903 0.14839 0.30094 0.0
C44 C 0.90486 0.15767 0.28008 0.0
C45 C 0.93696 0.20342 0.27368 0.0
C46 C 0.95342 0.2395 0.28876 0.0
C47 C 0.93764 0.23023 0.30961 0.0
C48 C 0.72476 0.11918 0.34482 0.0
C49 C 0.79083 0.24394 0.32496 0.0
C50 C 0.67843 0.21215 0.38666 0.0
Eu51 Eu 0.74798 0.20693 0.37006 0.0
C52 C 0.66011 0.21006 0.40816 0.0
C53 C 0.65608 0.24791 0.41562 0.0
C54 C 0.63928 0.24725 0.43591 0.0
C55 C 0.62554 0.2084 0.4492 0.0
C56 C 0.63 0.17055 0.44173 0.0
C57 C 0.64722 0.17142 0.42146 0.0
C58 C 0.8386 0.26751 0.38001 0.0
C59 C 0.77044 0.13864 0.39973 0.0
O60 O 0.89 0.21131 0.34837 0.0
O61 O 0.84493 0.13799 0.34044 0.0
O62 O 0.75263 0.10411 0.35092 0.0
O63 O 0.74613 0.16277 0.34405 0.0
O64 O 0.82146 0.23062 0.33027 0.0
O65 O 0.75371 0.23259 0.33673 0.0
O66 O 0.67431 0.1736 0.37875 0.0
O67 O 0.71893 0.24872 0.38252 0.0
O68 O 0.80847 0.27935 0.37373 0.0
O69 O 0.81913 0.22375 0.3815 0.0
O70 O 0.7399 0.1517 0.39402 0.0
O71 O 0.80849 0.15063 0.38852 0.0
H72 H 0.86389 0.11283 0.30524 0.0
H73 H 0.89118 0.12909 0.26885 0.0
H74 H -0.02118 0.27499 0.28449 0.0
H75 H 0.95094 0.25897 0.32075 0.0
H76 H 0.66615 0.27826 0.40575 0.0
H77 H 0.63742 0.27751 0.4412 0.0
H78 H 0.61943 0.13984 0.45138 0.0
H79 H 0.65022 0.14176 0.41621 0.0
C80 C 0.67113 0.87729 0.6705 0.0
Eu81 Eu 0.60521 0.80215 0.68836 0.0
C82 C 0.67893 0.89874 0.64925 0.0
C83 C 0.72225 0.91478 0.63932 0.0
C84 C 0.7298 0.93351 0.61891 0.0
C85 C 0.69403 0.93641 0.60789 0.0
C86 C 0.65067 0.9205 0.61794 0.0
C87 C 0.6433 0.90211 0.63842 0.0
C88 C 0.59414 0.71584 0.68379 0.0
C89 C 0.51437 0.75587 0.65583 0.0
C90 C 0.44668 0.64474 0.71976 0.0
Eu91 Eu 0.51112 0.72111 0.70222 0.0
C92 C 0.43583 0.63002 0.742 0.0
C93 C 0.44887 0.66343 0.75815 0.0
C94 C 0.4386 0.64953 0.77923 0.0
C95 C 0.41525 0.6019 0.78465 0.0
C96 C 0.40317 0.56854 0.76844 0.0
C97 C 0.41338 0.58252 0.7473 0.0
C98 C 0.52002 0.80624 0.70745 0.0
C99 C 0.60077 0.76876 0.73554 0.0
O100 O 0.63789 0.87684 0.68198 0.0
O101 O 0.67181 0.83803 0.67166 0.0
O102 O 0.6324 0.7508 0.69111 0.0
O103 O 0.56451 0.72808 0.67958 0.0
O104 O 0.55362 0.79342 0.66196 0.0
O105 O 0.49396 0.71817 0.66776 0.0
O106 O 0.48611 0.64958 0.71275 0.0
O107 O 0.43984 0.67891 0.71378 0.0
O108 O 0.48126 0.76939 0.70196 0.0
O109 O 0.5516 0.79614 0.71106 0.0
O110 O 0.55993 0.73267 0.72998 0.0
O111 O 0.62434 0.80457 0.72273 0.0
H112 H 0.75022 0.91242 0.6473 0.0
H113 H 0.76343 0.94493 0.61161 0.0
H114 H 0.62253 0.92271 0.61006 0.0
H115 H 0.60968 0.89042 0.64576 0.0
H116 H 0.46703 0.70036 0.75446 0.0
H117 H 0.44921 0.67617 0.79132 0.0
H118 H 0.38495 0.53159 0.77203 0.0
H119 H 0.40351 0.55622 0.73509 0.0
C120 C 0.75175 0.66991 1.00748 0.0
Eu121 Eu 0.76482 0.60337 0.02205 0.0
C122 C 0.74402 0.68345 0.98624 0.0
C123 C 0.77067 0.68384 0.96888 0.0
C124 C 0.76226 0.69577 0.94878 0.0
C125 C 0.72665 0.70695 0.94556 0.0
C126 C 0.69984 0.70627 0.96293 0.0
C127 C 0.70859 0.69479 0.98309 0.0
C128 C 0.83239 0.58581 1.0084 0.0
C129 C 0.70644 0.51091 0.99145 0.0
C130 C 0.76494 0.44433 0.05097 0.0
Eu131 Eu 0.75319 0.5108 0.03533 0.0
C132 C 0.76818 0.4304 0.07289 0.0
C133 C 0.73465 0.4244 0.0881 0.0
C134 C 0.73876 0.41244 0.1089 0.0
C135 C 0.77671 0.4066 0.1151 0.0
C136 C 0.81037 0.41297 0.09983 0.0
C137 C 0.80606 0.42463 0.07898 0.0
C138 C 0.68401 0.52627 0.04869 0.0
C139 C 0.81283 0.60296 0.06556 0.0
O140 O 0.71784 0.63066 0.0149 0.0
O141 O 0.79318 0.67506 0.01133 0.0
O142 O 0.84111 0.627 0.01429 0.0
O143 O 0.78946 0.55762 1.00905 0.0
O144 O 0.71234 0.55186 0.99779 0.0
O145 O 0.72607 0.49036 1.00198 0.0
O146 O 0.79978 0.48425 0.04464 0.0
O147 O 0.72421 0.43826 0.04486 0.0
O148 O 0.67801 0.48641 0.04232 0.0
O149 O 0.72688 0.55613 0.04875 0.0
O150 O 0.80542 0.5615 0.0594 0.0
O151 O 0.79486 0.62495 0.05495 0.0
H152 H 0.79781 0.6746 0.97079 0.0
H153 H 0.78305 0.69539 0.93566 0.0
H154 H 0.67238 0.71504 0.96095 0.0
H155 H 0.68749 0.69451 0.99622 0.0
H156 H 0.70518 0.429 0.08398 0.0
H157 H 0.71178 0.40724 0.12005 0.0
H158 H 0.84049 0.40958 0.10404 0.0
H159 H 0.83262 0.42956 0.06761 0.0
C160 C 0.0652 0.7936 0.33726 0.0
Eu161 Eu 0.1368 0.7953 0.35583 0.0
C162 C 0.04749 0.78329 0.31519 0.0
C163 C 0.07655 0.8073 0.29803 0.0
C164 C 0.06014 0.79534 0.27724 0.0
C165 C 0.01451 0.75878 0.27311 0.0
C166 C -0.01453 0.73486 0.29027 0.0
C167 C 0.00173 0.74713 0.31108 0.0
C168 C 0.2273 0.85953 0.34924 0.0
C169 C 0.17067 0.7397 0.32334 0.0
C170 C 0.27722 0.76284 0.3868 0.0
Eu171 Eu 0.20707 0.76724 0.36999 0.0
C172 C 0.29402 0.76236 0.40847 0.0
C173 C 0.29754 0.72372 0.41528 0.0
C174 C 0.31261 0.72209 0.43579 0.0
C175 C 0.32511 0.7594 0.44996 0.0
C176 C 0.32138 0.79805 0.44308 0.0
C177 C 0.30589 0.79947 0.42261 0.0
C178 C 0.11665 0.70124 0.37522 0.0
C179 C 0.17608 0.82543 0.40246 0.0
O180 O 0.06221 0.75829 0.348 0.0
O181 O 0.10494 0.83209 0.34052 0.0
O182 O 0.19633 0.87085 0.35486 0.0
O183 O 0.2087 0.81637 0.34646 0.0
O184 O 0.13684 0.7479 0.32927 0.0
O185 O 0.20767 0.75196 0.33551 0.0
O186 O 0.28002 0.80182 0.38021 0.0
O187 O 0.23802 0.72594 0.38115 0.0
O188 O 0.1491 0.69284 0.36891 0.0
O189 O 0.13354 0.74397 0.37943 0.0
O190 O 0.20688 0.81256 0.39706 0.0
O191 O 0.14075 0.81787 0.38984 0.0
H192 H 0.11225 0.83492 0.3006 0.0
H193 H 0.08355 0.81406 0.26437 0.0
H194 H 0.95001 0.70679 0.28762 0.0
H195 H -0.0213 0.72792 0.32399 0.0
H196 H 0.28829 0.69452 0.40473 0.0
H197 H 0.31394 0.69123 0.44055 0.0
H198 H 0.33105 0.82766 0.45338 0.0
H199 H 0.30336 0.82971 0.41789 0.0
C200 C 0.29389 0.08376 0.6748 0.0
Eu201 Eu 0.35248 0.16788 0.68867 0.0
C202 C 0.28078 0.06342 0.65336 0.0
C203 C 0.28706 0.09194 0.63577 0.0
C204 C 0.27509 0.07265 0.61545 0.0
C205 C 0.25695 0.02446 0.61224 0.0
C206 C 0.25105 -0.00392 0.6299 0.0
C207 C 0.26276 0.01539 0.65026 0.0
C208 C 0.33561 0.23965 0.67981 0.0
C209 C 0.43124 0.21834 0.65162 0.0
C210 C 0.49547 0.32713 0.71416 0.0
Eu211 Eu 0.42733 0.25267 0.69674 0.0
C212 C 0.51245 0.33785 0.7362 0.0
C213 C 0.49832 0.30193 0.75118 0.0
C214 C 0.51081 0.31247 0.77251 0.0
C215 C 0.53719 0.35917 0.7793 0.0
C216 C 0.55161 0.39493 0.76419 0.0
C217 C 0.53927 0.38439 0.74286 0.0
C218 C 0.44735 0.1727 0.69738 0.0
C219 C 0.35212 0.21007 0.73264 0.0
O220 O 0.33652 0.0967 0.68093 0.0
O221 O 0.28165 0.11457 0.67973 0.0
O222 O 0.30852 0.20364 0.69115 0.0
O223 O 0.3707 0.23693 0.6743 0.0
O224 O 0.39458 0.18002 0.65862 0.0
O225 O 0.45027 0.25665 0.66316 0.0
O226 O 0.4535 0.32115 0.71113 0.0
O227 O 0.50182 0.29593 0.70418 0.0
O228 O 0.41992 0.1848 0.70655 0.0
O229 O 0.42046 0.18542 0.70623 0.0
O230 O 0.37829 0.24876 0.72216 0.0
O231 O 0.34091 0.16958 0.72387 0.0
H232 H 0.30146 0.12924 0.63774 0.0
H233 H 0.28082 0.09562 0.6022 0.0
H234 H 0.23692 0.95883 0.62801 0.0
H235 H 0.25782 -0.0072 0.66358 0.0
H236 H 0.47681 0.26576 0.74644 0.0
H237 H 0.49882 0.28416 0.78376 0.0
H238 H 0.57264 0.43108 0.76892 0.0
H239 H 0.55005 0.41261 0.7316 0.0
H240 H 0.24124 0.7368 0.30219 0.0
H241 H 0.23798 0.70389 0.26725 0.0
H242 H 0.09171 0.66211 0.26184 0.0
H243 H 0.09474 0.69577 0.29679 0.0
H244 H 0.11791 0.59091 0.25047 0.0
H245 H 0.15588 0.74776 0.23486 0.0
H246 H 0.19971 0.83335 0.23904 0.0
H247 H 0.32694 0.83571 0.22186 0.0
H248 H 0.28393 0.74998 0.21785 0.0
H249 H 0.10947 0.53248 0.14044 0.0
H250 H 0.0997 0.56059 0.17487 0.0
H251 H 0.24986 0.64286 0.18171 0.0
H252 H 0.25949 0.6161 0.14711 0.0
H253 H 0.21397 0.6934 0.19211 0.0
H254 H 0.17575 0.53545 0.20779 0.0
H255 H 0.13266 0.44945 0.20601 0.0
H256 H 0.00688 0.44746 0.22543 0.0
H257 H 0.04851 0.53344 0.22623 0.0
C258 C 0.20829 0.72053 0.29364 0.0
C259 C 0.16823 0.71888 0.3023 0.0
C260 C 0.20654 0.70183 0.27365 0.0
C261 C 0.16464 0.68065 0.26199 0.0
C262 C 0.12434 0.67824 0.27065 0.0
C263 C 0.12621 0.69762 0.29057 0.0
C264 C 0.16358 0.6616 0.24065 0.0
C265 C 0.1382 0.61316 0.23751 0.0
C266 C 0.19082 0.6908 0.22402 0.0
C267 C 0.21673 0.7424 0.22621 0.0
C268 C 0.19326 0.76648 0.23212 0.0
C269 C 0.21795 0.81503 0.23443 0.0
C270 C 0.2661 0.83995 0.23076 0.0
C271 C 0.28964 0.81636 0.22471 0.0
C272 C 0.26511 0.76779 0.22239 0.0
C273 C 0.1403 0.55628 0.14943 0.0
C274 C 0.18526 0.5722 0.14111 0.0
C275 C 0.13472 0.57223 0.16913 0.0
C276 C 0.17406 0.60358 0.18108 0.0
C277 C 0.21892 0.61888 0.17283 0.0
C278 C 0.22446 0.60357 0.15305 0.0
C279 C 0.16905 0.62206 0.20181 0.0
C280 C 0.19332 0.67073 0.20489 0.0
C281 C 0.14077 0.59282 0.21838 0.0
C282 C 0.11521 0.54106 0.21679 0.0
C283 C 0.13868 0.51676 0.21124 0.0
C284 C 0.11446 0.46795 0.21039 0.0
C285 C 0.06695 0.44298 0.21543 0.0
C286 C 0.04354 0.4668 0.22128 0.0
C287 C 0.06737 0.51558 0.22183 0.0
H288 H 0.04833 0.40519 0.2149 0.0
H289 H 0.28517 0.87754 0.23257 0.0
H290 H 0.4 0.14377 0.62494 0.0
H291 H 0.43369 0.13879 0.59162 0.0
H292 H 0.54 0.28376 0.59729 0.0
H293 H 0.50697 0.28877 0.63113 0.0
H294 H 0.44361 0.17689 0.55555 0.0
H295 H 0.64132 0.30135 0.57508 0.0
H296 H 0.69408 0.3242 0.60603 0.0
H297 H 0.60008 0.19521 0.6367 0.0
H298 H 0.5471 0.17132 0.60584 0.0
H299 H 0.56832 0.2429 0.46085 0.0
H300 H 0.53709 0.24226 0.49566 0.0
H301 H 0.60426 0.16848 0.52072 0.0
H302 H 0.63781 0.17108 0.48607 0.0
H303 H 0.61293 0.23116 0.54805 0.0
H304 H 0.4884 0.11394 0.50893 0.0
H305 H 0.43112 0.07495 0.48026 0.0
H306 H 0.37291 0.16418 0.49137 0.0
H307 H 0.43047 0.20443 0.51987 0.0
C308 C 0.43056 0.17476 0.61917 0.0
C309 C 0.45087 0.21674 0.6308 0.0
C310 C 0.44975 0.1718 0.60002 0.0
C311 C 0.48973 0.2107 0.59198 0.0
C312 C 0.50963 0.25299 0.60333 0.0
C313 C 0.49053 0.25593 0.62261 0.0
C314 C 0.51013 0.20691 0.57163 0.0
C315 C 0.48065 0.1889 0.55389 0.0
C316 C 0.55814 0.22075 0.56963 0.0
C317 C 0.58999 0.23482 0.58822 0.0
C318 C 0.63198 0.27782 0.5884 0.0
C319 C 0.66191 0.29095 0.60594 0.0
C320 C 0.65035 0.26125 0.62335 0.0
C321 C 0.60889 0.21828 0.62324 0.0
C322 C 0.57887 0.20497 0.60574 0.0
C323 C 0.57721 0.22715 0.47377 0.0
C324 C 0.60592 0.20724 0.47054 0.0
C325 C 0.55876 0.22632 0.49368 0.0
C326 C 0.56778 0.20483 0.51081 0.0
C327 C 0.5967 0.18522 0.50775 0.0
C328 C 0.61551 0.18634 0.48783 0.0
C329 C 0.54663 0.20267 0.5318 0.0
C330 C 0.57591 0.21934 0.54967 0.0
C331 C 0.498 0.18567 0.53411 0.0
C332 C 0.46423 0.16264 0.51645 0.0
C333 C 0.46397 0.12588 0.50504 0.0
C334 C 0.4313 0.10339 0.48886 0.0
C335 C 0.3985 0.11718 0.48395 0.0
C336 C 0.39839 0.15357 0.49518 0.0
C337 C 0.43104 0.17623 0.51136 0.0
H338 H 0.37307 0.09956 0.47149 0.0
H339 H 0.67357 0.27149 0.63691 0.0
H340 H 0.25889 0.51926 0.97515 0.0
H341 H 0.29273 0.54848 0.94036 0.0
H342 H 0.32242 0.43564 0.93374 0.0
H343 H 0.28889 0.40633 0.96857 0.0
H344 H 0.39574 0.52197 0.91922 0.0
H345 H 0.22919 0.42491 0.9094 0.0
H346 H 0.14639 0.39887 0.91699 0.0
H347 H 0.16809 0.53465 0.90077 0.0
H348 H 0.25121 0.56166 0.89333 0.0
H349 H 0.4214 0.53286 0.8064 0.0
H350 H 0.39816 0.50781 0.84295 0.0
H351 H 0.35752 0.61286 0.85014 0.0
H352 H 0.37982 0.63746 0.81363 0.0
H353 H 0.29097 0.52969 0.86465 0.0
H354 H 0.45641 0.62619 0.87227 0.0
H355 H 0.5398 0.65364 0.86549 0.0
H356 H 0.52269 0.52266 0.88669 0.0
H357 H 0.43873 0.49355 0.89304 0.0
C358 C 0.27308 0.5009 0.96644 0.0
C359 C 0.27074 0.46013 0.97464 0.0
C360 C 0.29229 0.51758 0.94649 0.0
C361 C 0.3097 0.49398 0.93433 0.0
C362 C 0.30916 0.45439 0.94281 0.0
C363 C 0.28969 0.43751 0.96271 0.0
C364 C 0.32626 0.50934 0.91239 0.0
C365 C 0.37277 0.52312 0.90717 0.0
C366 C 0.29652 0.5117 0.89681 0.0
C367 C 0.24647 0.49541 0.90101 0.0
C368 C 0.21636 0.44929 0.90759 0.0
C369 C 0.16937 0.43434 0.91184 0.0
C370 C 0.15202 0.46513 0.90942 0.0
C371 C 0.18159 0.51087 0.90266 0.0
C372 C 0.22862 0.526 0.8984 0.0
C373 C 0.4074 0.55054 0.81576 0.0
C374 C 0.40252 0.58722 0.80706 0.0
C375 C 0.39453 0.53646 0.83671 0.0
C376 C 0.37639 0.55867 0.84938 0.0
C377 C 0.37153 0.59527 0.84072 0.0
C378 C 0.38462 0.60952 0.81986 0.0
C379 C 0.36073 0.54275 0.87137 0.0
C380 C 0.31416 0.52863 0.87661 0.0
C381 C 0.39061 0.54032 0.88693 0.0
C382 C 0.44098 0.55741 0.88285 0.0
C383 C 0.47017 0.6029 0.87522 0.0
C384 C 0.51758 0.61882 0.87151 0.0
C385 C 0.53643 0.58987 0.87563 0.0
C386 C 0.50789 0.54487 0.88344 0.0
C387 C 0.46038 0.52862 0.88706 0.0
H388 H 0.57318 0.60236 0.87282 0.0
H389 H 0.11564 0.45351 0.91273 0.0
H390 H 0.75013 0.29514 0.31294 0.0
H391 H 0.75271 0.32892 0.2783 0.0
H392 H 0.84282 0.27819 0.25558 0.0
H393 H 0.8421 0.24621 0.29056 0.0
H394 H 0.86907 0.35918 0.23869 0.0
H395 H 0.72079 0.21963 0.2462 0.0
H396 H 0.6465 0.16692 0.264 0.0
H397 H 0.60373 0.27018 0.25853 0.0
H398 H 0.67818 0.32386 0.24103 0.0
H399 H 0.80765 0.34743 0.12883 0.0
H400 H 0.81354 0.32563 0.16515 0.0
H401 H 0.76003 0.4127 0.18814 0.0
H402 H 0.75482 0.43579 0.15191 0.0
H403 H 0.71654 0.31611 0.20475 0.0
H404 H 0.86613 0.45303 0.19384 0.0
H405 H 0.93969 0.50094 0.1747 0.0
H406 H -0.02056 0.39651 0.18485 0.0
H407 H 0.90613 0.34801 0.20416 0.0
C408 C 0.77084 0.29154 0.30062 0.0
C409 C 0.79552 0.26759 0.30445 0.0
C410 C 0.77211 0.31067 0.28076 0.0
C411 C 0.79695 0.30512 0.26406 0.0
C412 C 0.82315 0.28279 0.2681 0.0
C413 C 0.82264 0.26441 0.28812 0.0
C414 C 0.79411 0.32098 0.24228 0.0
C415 C 0.83568 0.34932 0.23121 0.0
C416 C 0.75058 0.30863 0.23248 0.0
C417 C 0.70525 0.27593 0.24249 0.0
C418 C 0.69562 0.23116 0.24887 0.0
C419 C 0.65349 0.20111 0.25891 0.0
C420 C 0.62047 0.21525 0.26244 0.0
C421 C 0.62939 0.25933 0.25582 0.0
C422 C 0.67154 0.28958 0.24583 0.0
C423 C 0.79786 0.36269 0.14156 0.0
C424 C 0.78091 0.39361 0.13731 0.0
C425 C 0.80125 0.35008 0.16232 0.0
C426 C 0.78791 0.36802 0.17931 0.0
C427 C 0.77057 0.39848 0.17523 0.0
C428 C 0.76741 0.41142 0.15447 0.0
C429 C 0.79136 0.35423 0.2013 0.0
C430 C 0.74987 0.32609 0.21232 0.0
C431 C 0.8349 0.36613 0.21086 0.0
C432 C 0.87998 0.39626 0.20001 0.0
C433 C 0.89032 0.44004 0.19185 0.0
C434 C 0.93218 0.4675 0.18108 0.0
C435 C 0.96423 0.45177 0.1785 0.0
C436 C 0.95455 0.40863 0.18679 0.0
C437 C 0.91295 0.38125 0.19775 0.0
H438 H -0.00336 0.47309 0.17018 0.0
H439 H 0.58799 0.19209 0.27031 0.0
H440 H 0.54296 0.82903 0.62847 0.0
H441 H 0.50895 0.83033 0.59439 0.0
H442 H 0.40504 0.68507 0.60163 0.0
H443 H 0.43853 0.68375 0.63604 0.0
H444 H 0.50067 0.78617 0.55912 0.0
H445 H 0.30392 0.66352 0.57688 0.0
H446 H 0.24998 0.64083 0.60709 0.0
H447 H 0.3403 0.77217 0.63733 0.0
H448 H 0.39442 0.79588 0.6072 0.0
H449 H 0.37898 0.72118 0.46257 0.0
H450 H 0.40748 0.71938 0.49787 0.0
H451 H 0.34291 0.79615 0.52187 0.0
H452 H 0.3109 0.79482 0.48687 0.0
H453 H 0.33199 0.73364 0.54928 0.0
H454 H 0.46654 0.85115 0.51188 0.0
H455 H 0.52192 0.88133 0.48213 0.0
H456 H 0.5579 0.77415 0.49238 0.0
H457 H 0.50326 0.74383 0.52228 0.0
C458 C 0.51288 0.79733 0.62289 0.0
C459 C 0.49353 0.75632 0.63506 0.0
C460 C 0.49345 0.79812 0.60334 0.0
C461 C 0.45415 0.75794 0.59549 0.0
C462 C 0.43488 0.71676 0.6075 0.0
C463 C 0.45422 0.71601 0.62715 0.0
C464 C 0.43402 0.75914 0.57456 0.0
C465 C 0.46377 0.77471 0.55701 0.0
C466 C 0.38605 0.74495 0.57177 0.0
C467 C 0.35344 0.73123 0.58987 0.0
C468 C 0.31216 0.68761 0.58995 0.0
C469 C 0.28158 0.67457 0.60706 0.0
C470 C 0.29178 0.70497 0.62415 0.0
C471 C 0.33252 0.74857 0.62413 0.0
C472 C 0.36319 0.7618 0.60704 0.0
C473 C 0.36996 0.73698 0.47535 0.0
C474 C 0.34261 0.7583 0.47167 0.0
C475 C 0.38702 0.73657 0.49555 0.0
C476 C 0.37833 0.75856 0.51252 0.0
C477 C 0.35044 0.77922 0.50903 0.0
C478 C 0.33263 0.77895 0.48888 0.0
C479 C 0.39858 0.76024 0.53382 0.0
C480 C 0.36887 0.74515 0.55142 0.0
C481 C 0.44686 0.77604 0.5368 0.0
C482 C 0.4807 0.79511 0.51921 0.0
C483 C 0.48638 0.83414 0.50777 0.0
C484 C 0.51773 0.85135 0.49093 0.0
C485 C 0.54353 0.82976 0.48538 0.0
C486 C 0.53822 0.79111 0.49675 0.0
C487 C 0.50722 0.77401 0.5137 0.0
H488 H 0.56756 0.84294 0.47226 0.0
H489 H 0.26808 0.69479 0.63739 0.0
H490 H 0.70132 0.4366 0.96977 0.0
H491 H 0.66649 0.4071 0.93501 0.0
H492 H 0.62089 0.50902 0.93193 0.0
H493 H 0.65598 0.53908 0.96675 0.0
H494 H 0.55278 0.41963 0.91616 0.0
H495 H 0.71497 0.53179 0.90725 0.0
H496 H 0.79996 0.56769 0.91334 0.0
H497 H 0.79621 0.44275 0.89126 0.0
H498 H 0.71106 0.40573 0.88555 0.0
H499 H 0.52991 0.42462 0.80307 0.0
H500 H 0.55194 0.44509 0.84023 0.0
H501 H 0.59445 0.34088 0.8441 0.0
H502 H 0.572 0.31988 0.807 0.0
H503 H 0.66172 0.42994 0.85981 0.0
H504 H 0.49905 0.31938 0.86658 0.0
H505 H 0.41508 0.28628 0.85867 0.0
H506 H 0.41916 0.40925 0.88358 0.0
H507 H 0.5034 0.44335 0.89149 0.0
C508 C 0.68349 0.45253 0.96186 0.0
C509 C 0.68177 0.49047 0.97108 0.0
C510 C 0.6636 0.4356 0.94193 0.0
C511 C 0.64128 0.45598 0.93075 0.0
C512 C 0.63782 0.49264 0.94024 0.0
C513 C 0.65813 0.50993 0.96013 0.0
C514 C 0.62438 0.44094 0.90866 0.0
C515 C 0.57663 0.42231 0.90378 0.0
C516 C 0.65532 0.44374 0.89253 0.0
C517 C 0.70651 0.46577 0.89622 0.0
C518 C 0.73217 0.51176 0.90396 0.0
C519 C 0.78042 0.53235 0.90732 0.0
C520 C 0.8035 0.50748 0.90279 0.0
C521 C 0.77835 0.46196 0.89488 0.0
C522 C 0.73007 0.44113 0.89159 0.0
C523 C 0.5439 0.40602 0.81185 0.0
C524 C 0.54936 0.37071 0.80206 0.0
C525 C 0.5562 0.41756 0.83312 0.0
C526 C 0.57472 0.39443 0.84499 0.0
C527 C 0.58015 0.35913 0.83527 0.0
C528 C 0.56714 0.34704 0.8141 0.0
C529 C 0.59013 0.40832 0.86728 0.0
C530 C 0.63773 0.42696 0.87219 0.0
C531 C 0.55899 0.40559 0.88333 0.0
C532 C 0.50791 0.38445 0.87922 0.0
C533 C 0.48224 0.33964 0.87018 0.0
C534 C 0.43452 0.32061 0.86574 0.0
C535 C 0.41192 0.34585 0.87042 0.0
C536 C 0.43682 0.3899 0.87982 0.0
C537 C 0.48456 0.40909 0.8843 0.0
H538 H 0.37508 0.33119 0.86683 0.0
H539 H 0.84088 0.52361 0.9053 0.0
H540 H 0.26399 0.36553 0.08441 0.0
H541 H 0.33116 0.36255 0.10007 0.0
H542 H 0.4099 0.42254 0.04312 0.0
H543 H 0.34391 0.4267 0.02793 0.0
H544 H 0.43309 0.35973 0.06397 0.0
H545 H 0.4123 0.50074 0.0782 0.0
H546 H 0.36153 0.52888 0.09317 0.0
H547 H 0.35334 0.45856 0.15146 0.0
H548 H 0.4038 0.4298 0.13669 0.0
H549 H 0.62146 0.55502 0.04156 0.0
H550 H 0.5473 0.52456 0.06033 0.0
H551 H 0.59613 0.46385 0.10737 0.0
H552 H 0.67057 0.49468 0.08866 0.0
H553 H 0.50462 0.50227 0.10881 0.0
H554 H 0.5493 0.37678 0.09171 0.0
H555 H 0.60198 0.35933 0.07077 0.0
H556 H 0.56342 0.40486 0.01438 0.0
H557 H 0.51085 0.42286 0.03506 0.0
C558 C 0.29512 0.37619 0.07505 0.0
C559 C 0.29959 0.39672 0.05515 0.0
C560 C 0.33325 0.37443 0.08396 0.0
C561 C 0.37537 0.39247 0.07275 0.0
C562 C 0.37756 0.4081 0.05194 0.0
C563 C 0.3401 0.41079 0.04331 0.0
C564 C 0.42013 0.4056 0.08341 0.0
C565 C 0.44837 0.3892 0.07477 0.0
C566 C 0.44014 0.44448 0.09726 0.0
C567 C 0.41172 0.46334 0.10642 0.0
C568 C 0.39981 0.49159 0.09424 0.0
C569 C 0.37101 0.50748 0.10265 0.0
C570 C 0.35427 0.49556 0.12326 0.0
C571 C 0.36638 0.4678 0.13551 0.0
C572 C 0.39507 0.45172 0.12714 0.0
C573 C 0.61738 0.5378 0.05662 0.0
C574 C 0.65103 0.52684 0.06375 0.0
C575 C 0.57519 0.52056 0.06739 0.0
C576 C 0.56636 0.49166 0.08508 0.0
C577 C 0.60258 0.48634 0.09385 0.0
C578 C 0.64491 0.50381 0.08313 0.0
C579 C 0.51735 0.45651 0.08919 0.0
C580 C 0.48879 0.46973 0.10001 0.0
C581 C 0.49692 0.41439 0.07746 0.0
C582 C 0.5261 0.40083 0.06486 0.0
C583 C 0.55185 0.38266 0.07482 0.0
C584 C 0.58177 0.37284 0.06302 0.0
C585 C 0.58588 0.38079 0.04125 0.0
C586 C 0.56002 0.3985 0.03122 0.0
C587 C 0.53013 0.40843 0.04296 0.0
H588 H 0.60924 0.37342 0.03216 0.0
H589 H 0.33189 0.50781 0.12974 0.0
H590 H 0.0476 0.62732 0.35525 0.0
H591 H -0.00814 0.55352 0.37177 0.0
H592 H 0.03929 0.61539 0.43341 0.0
H593 H 0.09431 0.69006 0.41675 0.0
H594 H 0.05333 0.53778 0.42289 0.0
H595 H 0.92898 0.57335 0.42497 0.0
H596 H 0.8785 0.60252 0.41055 0.0
H597 H 0.82972 0.49805 0.36184 0.0
H598 H 0.88032 0.46865 0.37576 0.0
H599 H 0.83075 0.28444 0.42085 0.0
H600 H 0.87993 0.36003 0.43797 0.0
H601 H -0.02141 0.40013 0.38689 0.0
H602 H 0.92872 0.32516 0.36951 0.0
H603 H 0.88463 0.42981 0.40938 0.0
H604 H 0.08065 0.4855 0.40447 0.0
H605 H 0.13301 0.45511 0.41462 0.0
H606 H 0.03987 0.37602 0.46474 0.0
H607 H -0.01301 0.40602 0.45491 0.0
C608 C 0.04432 0.62568 0.37229 0.0
C609 C 0.07445 0.66395 0.38482 0.0
C610 C 0.01267 0.58364 0.38173 0.0
C611 C 0.01159 0.57921 0.40379 0.0
C612 C 0.03946 0.61845 0.41638 0.0
C613 C 0.07049 0.66097 0.40689 0.0
C614 C -0.01214 0.53194 0.41293 0.0
C615 C 0.01617 0.51423 0.42052 0.0
C616 C 0.9395 0.50155 0.40978 0.0
C617 C 0.90844 0.51872 0.40149 0.0
C618 C 0.90761 0.55669 0.41115 0.0
C619 C 0.87895 0.57326 0.40305 0.0
C620 C 0.85089 0.55212 0.38531 0.0
C621 C 0.85138 0.51432 0.37562 0.0
C622 C 0.87995 0.4976 0.38365 0.0
C623 C 0.8644 0.30838 0.414 0.0
C624 C 0.87634 0.29951 0.39397 0.0
C625 C 0.89234 0.3515 0.42375 0.0
C626 C 0.93265 0.38558 0.41363 0.0
C627 C 0.94785 0.374 0.39507 0.0
C628 C 0.91947 0.3312 0.38513 0.0
C629 C 0.95053 0.43541 0.41831 0.0
C630 C 0.92125 0.45359 0.41294 0.0
C631 C -0.00187 0.46602 0.42295 0.0
C632 C 0.02992 0.44808 0.42898 0.0
C633 C 0.07149 0.46186 0.41774 0.0
C634 C 0.10118 0.44458 0.42339 0.0
C635 C 0.08979 0.41367 0.44032 0.0
C636 C 0.04861 0.39988 0.4516 0.0
C637 C 0.01869 0.41689 0.44596 0.0
H638 H 0.11286 0.4004 0.44469 0.0
H639 H 0.82878 0.56504 0.37905 0.0
H640 H 0.44216 0.14595 0.73918 0.0
H641 H 0.47037 0.09499 0.75356 0.0
H642 H 0.50294 0.07113 0.69037 0.0
H643 H 0.47737 0.12358 0.6763 0.0
H644 H 0.44573 0.00856 0.74977 0.0
H645 H 0.59318 0.06149 0.68599 0.0
H646 H 0.65096 0.13367 0.66828 0.0
H647 H 0.64469 0.21556 0.7195 0.0
H648 H 0.58731 0.14386 0.7377 0.0
H649 H 0.45168 0.82839 0.70351 0.0
H650 H 0.45277 0.89881 0.71562 0.0
H651 H 0.59331 0.95229 0.73966 0.0
H652 H 0.59258 0.88136 0.72714 0.0
H653 H 0.58747 0.01688 0.71828 0.0
H654 H 0.50581 0.92572 0.77509 0.0
H655 H 0.45078 0.85636 0.79535 0.0
H656 H 0.3346 0.85711 0.76453 0.0
H657 H 0.38883 0.92597 0.7438 0.0
C658 C 0.45513 0.12943 0.72846 0.0
C659 C 0.45768 0.13822 0.70664 0.0
C660 C 0.4715 0.10071 0.73668 0.0
C661 C 0.49021 0.08051 0.72312 0.0
C662 C 0.4905 0.08784 0.70125 0.0
C663 C 0.4752 0.11713 0.69316 0.0
C664 C 0.50743 0.04961 0.73118 0.0
C665 C 0.47712 0.01068 0.74325 0.0
C666 C 0.54998 0.05391 0.72384 0.0
C667 C 0.58591 0.09713 0.71326 0.0
C668 C 0.60452 0.0948 0.69364 0.0
C669 C 0.63708 0.13569 0.68346 0.0
C670 C 0.65149 0.17917 0.69276 0.0
C671 C 0.63347 0.18186 0.7123 0.0
C672 C 0.60089 0.1411 0.72255 0.0
C673 C 0.48274 0.85499 0.71147 0.0
C674 C 0.522 0.84957 0.71444 0.0
C675 C 0.48314 0.89498 0.71864 0.0
C676 C 0.52264 0.9302 0.72909 0.0
C677 C 0.56224 0.92514 0.73193 0.0
C678 C 0.56188 0.8849 0.72469 0.0
C679 C 0.52312 0.97386 0.73482 0.0
C680 C 0.55706 0.01551 0.72556 0.0
C681 C 0.48483 0.97271 0.74543 0.0
C682 C 0.45157 0.93126 0.75789 0.0
C683 C 0.46854 0.91102 0.77254 0.0
C684 C 0.43745 0.87175 0.78412 0.0
C685 C 0.38922 0.85237 0.78125 0.0
C686 C 0.37198 0.87224 0.76678 0.0
C687 C 0.4029 0.91151 0.75515 0.0
H688 H 0.36521 0.82195 0.79022 0.0
H689 H 0.67659 0.21078 0.68482 0.0
H690 H 0.59129 0.67086 0.72026 0.0
H691 H 0.53761 0.58769 0.72629 0.0
H692 H 0.51147 0.56714 0.6591 0.0
H693 H 0.56149 0.65069 0.65351 0.0
H694 H 0.43374 0.5374 0.67754 0.0
H695 H 0.5701 0.51547 0.69274 0.0
H696 H 0.64216 0.5356 0.71293 0.0
H697 H 0.56628 0.50769 0.77105 0.0
H698 H 0.49375 0.48688 0.75116 0.0
H699 H 0.36902 0.30839 0.65109 0.0
H700 H 0.40059 0.39125 0.65861 0.0
H701 H 0.34722 0.35808 0.7221 0.0
H702 H 0.31312 0.27449 0.7142 0.0
H703 H 0.45038 0.41635 0.71687 0.0
H704 H 0.30982 0.41426 0.69851 0.0
H705 H 0.23878 0.39388 0.6776 0.0
H706 H 0.32328 0.46831 0.62439 0.0
H707 H 0.39484 0.48856 0.64485 0.0
C708 C 0.57546 0.64803 0.70679 0.0
C709 C 0.58002 0.66665 0.68645 0.0
C710 C 0.54468 0.60045 0.71022 0.0
C711 C 0.51981 0.57107 0.69317 0.0
C712 C 0.52938 0.58922 0.67257 0.0
C713 C 0.55855 0.63676 0.66929 0.0
C714 C 0.48007 0.52315 0.69643 0.0
C715 C 0.43761 0.51089 0.68602 0.0
C716 C 0.48366 0.48922 0.70871 0.0
C717 C 0.52677 0.49999 0.72052 0.0
C718 C 0.56889 0.51358 0.70983 0.0
C719 C 0.60975 0.52503 0.7212 0.0
C720 C 0.60883 0.52305 0.74326 0.0
C721 C 0.56697 0.50929 0.75397 0.0
C722 C 0.52593 0.49735 0.74266 0.0
C723 C 0.36199 0.31868 0.66628 0.0
C724 C 0.33901 0.28543 0.68209 0.0
C725 C 0.38024 0.36592 0.67062 0.0
C726 C 0.37653 0.38053 0.69096 0.0
C727 C 0.35031 0.34723 0.70632 0.0
C728 C 0.33067 0.29965 0.70175 0.0
C729 C 0.40608 0.43024 0.69642 0.0
C730 C 0.44633 0.44312 0.70872 0.0
C731 C 0.40071 0.46475 0.68567 0.0
C732 C 0.35776 0.45285 0.67324 0.0
C733 C 0.31328 0.42604 0.6823 0.0
C734 C 0.2729 0.41455 0.67053 0.0
C735 C 0.27651 0.42978 0.64968 0.0
C736 C 0.32053 0.45658 0.64056 0.0
C737 C 0.36103 0.46816 0.65226 0.0
H738 H 0.2452 0.42083 0.64059 0.0
H739 H 0.64052 0.53206 0.75205 0.0
H740 H 0.152 0.47062 1.00523 0.0
H741 H 0.10663 0.51034 1.00175 0.0
H742 H -0.021 0.37941 1.01019 0.0
H743 H 0.02467 0.33914 0.01437 0.0
H744 H -0.0154 0.44063 0.97382 0.0
H745 H 0.01114 0.44383 0.04947 0.0
H746 H 0.05688 0.46196 0.08256 0.0
H747 H 0.13135 0.60729 0.06616 0.0
H748 H 0.08667 0.58999 0.03279 0.0
H749 H 0.81413 0.49975 0.99683 0.0
H750 H 0.86927 0.47181 0.99289 0.0
H751 H -0.0159 0.61109 1.00433 0.0
H752 H 0.92808 0.63914 1.00919 0.0
H753 H -0.00709 0.55279 0.02819 0.0
H754 H 0.96693 0.55549 0.95503 0.0
H755 H 0.92501 0.54298 0.92117 0.0
H756 H 0.85649 0.3946 0.93032 0.0
H757 H 0.89754 0.40615 0.96438 0.0
C758 C 0.11428 0.45018 1.00646 0.0
C759 C 0.09171 0.40188 1.01031 0.0
C760 C 0.08853 0.47299 1.00446 0.0
C761 C 0.03978 0.44776 1.00593 0.0
C762 C 0.0168 0.39927 1.00913 0.0
C763 C 0.04274 0.3764 0.0115 0.0
C764 C 0.01305 0.4724 1.00394 0.0
C765 C -0.01427 0.46474 0.98577 0.0
C766 C 0.01707 0.50566 0.01906 0.0
C767 C 0.0458 0.51554 0.03853 0.0
C768 C 0.03779 0.47954 0.05274 0.0
C769 C 0.06338 0.4897 0.07159 0.0
C770 C 0.09675 0.53577 0.07647 0.0
C771 C 0.10532 0.57166 0.06237 0.0
C772 C 0.07992 0.5617 0.04349 0.0
C773 C 0.85115 0.52467 0.99824 0.0
C774 C 0.86698 0.57153 1.00349 0.0
C775 C 0.88273 0.50871 0.99573 0.0
C776 C 0.93089 0.53945 0.998 0.0
C777 C 0.94702 0.58684 1.00242 0.0
C778 C 0.91516 0.60283 1.00517 0.0
C779 C 0.96322 0.52045 0.99819 0.0
C780 C -0.00808 0.52918 0.01601 0.0
C781 C 0.96125 0.48893 0.9825 0.0
C782 C 0.93524 0.48174 0.96233 0.0
C783 C 0.94257 0.52019 0.94995 0.0
C784 C 0.91904 0.51327 0.93069 0.0
C785 C 0.8882 0.46803 0.9236 0.0
C786 C 0.88049 0.42961 0.93582 0.0
C787 C 0.90394 0.43633 0.95509 0.0
H788 H 0.87049 0.46272 0.90857 0.0
H789 H 0.11569 0.54378 0.09127 0.0
H790 H 0.29199 0.83554 0.33897 0.0
H791 H 0.37661 0.88534 0.33827 0.0
H792 H 0.3624 0.00483 0.35413 0.0
H793 H 0.27665 0.95434 0.35573 0.0
H794 H 0.42636 -0.00516 0.31335 0.0
H795 H 0.404 0.0031 0.38898 0.0
H796 H 0.36996 0.9699 0.42365 0.0
H797 H 0.42298 0.87461 0.41929 0.0
H798 H 0.45682 0.9069 0.38439 0.0
H799 H 0.66714 0.14999 0.33117 0.0
H800 H 0.58214 0.10786 0.33065 0.0
H801 H 0.58163 -0.01679 0.35199 0.0
H802 H 0.66765 0.02619 0.35325 0.0
H803 H 0.52337 -0.00079 0.37456 0.0
H804 H 0.55316 -0.0036 0.30087 0.0
H805 H 0.5873 0.02836 0.26608 0.0
H806 H 0.51879 0.11032 0.26534 0.0
H807 H 0.48529 0.07991 0.3004 0.0
C808 C 0.30669 0.87236 0.34243 0.0
C809 C 0.27794 0.89112 0.34765 0.0
C810 C 0.35498 0.90066 0.34198 0.0
C811 C 0.37529 0.94832 0.34636 0.0
C812 C 0.34689 0.96782 0.35091 0.0
C813 C 0.29823 0.93915 0.35175 0.0
C814 C 0.42647 0.9769 0.34598 0.0
C815 C 0.44793 -0.00299 0.32681 0.0
C816 C 0.45375 0.97749 0.36335 0.0
C817 C 0.43244 0.95705 0.384 0.0
C818 C 0.40781 0.97462 0.39527 0.0
C819 C 0.38877 0.95614 0.415 0.0
C820 C 0.39442 0.92028 0.42367 0.0
C821 C 0.41878 0.90251 0.41256 0.0
C822 C 0.43789 0.92089 0.39281 0.0
C823 C 0.649 0.11346 0.33557 0.0
C824 C 0.67379 0.09124 0.34234 0.0
C825 C 0.60039 0.08937 0.33514 0.0
C826 C 0.5756 0.04232 0.34107 0.0
C827 C 0.60027 0.01957 0.34732 0.0
C828 C 0.64921 0.04393 0.34793 0.0
C829 C 0.52398 0.01798 0.34187 0.0
C830 C 0.50224 -0.00206 0.36108 0.0
C831 C 0.4965 0.01747 0.32444 0.0
C832 C 0.51708 0.03619 0.3034 0.0
C833 C 0.54582 0.02167 0.29342 0.0
C834 C 0.56506 0.03952 0.27363 0.0
C835 C 0.55539 0.07152 0.26355 0.0
C836 C 0.52644 0.08572 0.27322 0.0
C837 C 0.50735 0.06822 0.29305 0.0
H838 H 0.57024 0.08523 0.24821 0.0
H839 H 0.38003 0.9064 0.43903 0.0
H840 H 0.36726 0.28891 0.75312 0.0
H841 H 0.34779 0.2966 0.78936 0.0
H842 H 0.28348 0.14749 0.79757 0.0
H843 H 0.3036 0.13947 0.76115 0.0
H844 H 0.26922 0.2664 0.80977 0.0
H845 H 0.30404 0.12524 0.84755 0.0
H846 H 0.35622 0.09236 0.84216 0.0
H847 H 0.4564 0.2187 0.81147 0.0
H848 H 0.40504 0.25244 0.81681 0.0
H849 H 0.16853 0.21569 0.91027 0.0
H850 H 0.19218 0.20849 0.87466 0.0
H851 H 0.33545 0.26832 0.8958 0.0
H852 H 0.31177 0.27412 0.93168 0.0
H853 H 0.31698 0.20085 0.86928 0.0
H854 H 0.29907 0.33458 0.8688 0.0
H855 H 0.26063 0.38137 0.87503 0.0
H856 H 0.14946 0.29341 0.83244 0.0
H857 H 0.187 0.24573 0.82613 0.0
C858 C 0.34876 0.25757 0.76254 0.0
C859 C 0.33703 0.21348 0.75423 0.0
C860 C 0.33756 0.26211 0.78329 0.0
C861 C 0.31453 0.22274 0.79626 0.0
C862 C 0.30183 0.17846 0.78792 0.0
C863 C 0.31307 0.17386 0.76707 0.0
C864 C 0.30427 0.22831 0.81856 0.0
C865 C 0.27946 0.25185 0.82277 0.0
C866 C 0.31931 0.21113 0.8356 0.0
C867 C 0.35041 0.19108 0.83237 0.0
C868 C 0.33723 0.14599 0.83968 0.0
C869 C 0.36665 0.12721 0.83661 0.0
C870 C 0.40949 0.15334 0.82639 0.0
C871 C 0.42308 0.19838 0.81926 0.0
C872 C 0.39377 0.2173 0.82225 0.0
C873 C 0.20498 0.22671 0.90744 0.0
C874 C 0.23829 0.24571 0.92383 0.0
C875 C 0.21854 0.22305 0.887 0.0
C876 C 0.26576 0.23875 0.88243 0.0
C877 C 0.29891 0.25644 0.89887 0.0
C878 C 0.28535 0.26004 0.91935 0.0
C879 C 0.28044 0.23743 0.86042 0.0
C880 C 0.30637 0.21501 0.85627 0.0
C881 C 0.26829 0.25758 0.84351 0.0
C882 C 0.24567 0.28631 0.84712 0.0
C883 C 0.26628 0.32501 0.86086 0.0
C884 C 0.24468 0.35174 0.86439 0.0
C885 C 0.20257 0.3403 0.85418 0.0
C886 C 0.18206 0.3022 0.84036 0.0
C887 C 0.20352 0.27535 0.83677 0.0
H888 H 0.18588 0.361 0.85695 0.0
H889 H 0.43222 0.13874 0.82405 0.0
H890 H 0.95058 0.27794 0.24934 0.0
H891 H -0.02089 0.29551 0.21308 0.0
H892 H -0.01277 0.16896 0.21096 0.0
H893 H 0.96021 0.15195 0.24749 0.0
H894 H 0.06433 0.24004 0.19508 0.0
H895 H 0.90007 0.17949 0.18725 0.0
H896 H 0.82265 0.17265 0.19206 0.0
H897 H 0.87345 0.30868 0.16503 0.0
H898 H 0.95155 0.31755 0.16122 0.0
H899 H 0.11526 0.26372 0.08511 0.0
H900 H 0.07542 0.23176 0.1186 0.0
H901 H 0.05833 0.35223 0.12719 0.0
H902 H 0.09601 0.38318 0.09337 0.0
H903 H -0.01821 0.27579 0.13865 0.0
H904 H 0.14778 0.3409 0.15201 0.0
H905 H 0.22521 0.34844 0.14589 0.0
H906 H 0.16981 0.20342 0.16075 0.0
H907 H 0.09188 0.1949 0.16668 0.0
C908 C 0.95875 0.25398 0.24123 0.0
C909 C 0.95318 0.21355 0.25138 0.0
C910 C 0.97457 0.26383 0.2204 0.0
C911 C -0.01515 0.23329 0.20918 0.0
C912 C -0.02064 0.19294 0.21926 0.0
C913 C 0.96356 0.18308 0.2401 0.0
C914 C 0.00269 0.2442 0.18718 0.0
C915 C 0.04586 0.2472 0.18268 0.0
C916 C -0.02101 0.25419 0.17102 0.0
C917 C 0.93208 0.24944 0.17419 0.0
C918 C 0.89503 0.2084 0.18275 0.0
C919 C 0.85091 0.20418 0.18534 0.0
C920 C 0.8431 0.24038 0.17905 0.0
C921 C 0.87941 0.28081 0.17014 0.0
C922 C 0.92374 0.28559 0.16789 0.0
C923 C 0.10264 0.28322 0.09403 0.0
C924 C 0.10977 0.32659 0.08674 0.0
C925 C 0.08015 0.26503 0.11326 0.0
C926 C 0.06478 0.29006 0.12567 0.0
C927 C 0.07025 0.33244 0.11802 0.0
C928 C 0.09234 0.35042 0.09874 0.0
C929 C 0.0438 0.27291 0.14682 0.0
C930 C 1e-05 0.26849 0.15111 0.0
C931 C 0.06693 0.26185 0.16282 0.0
C932 C 0.11393 0.26717 0.1596 0.0
C933 C 0.15207 0.31057 0.15386 0.0
C934 C 0.19604 0.31503 0.15043 0.0
C935 C 0.2024 0.2764 0.15288 0.0
C936 C 0.16482 0.23329 0.15883 0.0
C937 C 0.12076 0.22864 0.16225 0.0
H938 H 0.23645 0.27991 0.1502 0.0
H939 H 0.80888 0.23702 0.18094 0.0
H940 H 0.63416 0.90387 0.5738 0.0
H941 H 0.6476 0.93579 0.53797 0.0
H942 H 0.78541 0.04438 0.55649 0.0
H943 H 0.77188 0.01319 0.59241 0.0
H944 H 0.74313 0.08023 0.53322 0.0
H945 H 0.76939 0.95178 0.52836 0.0
H946 H 0.75428 0.87097 0.53105 0.0
H947 H 0.64094 0.82569 0.48664 0.0
H948 H 0.6538 0.90586 0.48441 0.0
H949 H 0.83602 0.13797 0.42636 0.0
H950 H 0.82264 0.10087 0.46125 0.0
H951 H 0.67392 0.04313 0.45313 0.0
H952 H 0.68701 0.08137 0.41865 0.0
H953 H 0.72386 0.98204 0.47046 0.0
H954 H 0.69589 0.11443 0.48028 0.0
H955 H 0.72059 0.19771 0.47543 0.0
H956 H 0.84841 0.23671 0.50914 0.0
H957 H 0.82502 0.15357 0.51365 0.0
C958 C 0.66721 0.93476 0.5703 0.0
C959 C 0.70197 0.95588 0.58603 0.0
C960 C 0.675 0.95276 0.54974 0.0
C961 C 0.71771 -0.00767 0.54442 0.0
C962 C 0.75222 0.0138 0.56015 0.0
C963 C 0.74456 -0.00432 0.58067 0.0
C964 C 0.72635 0.01151 0.52252 0.0
C965 C 0.7391 0.05862 0.51958 0.0
C966 C 0.72121 -0.01642 0.50456 0.0
C967 C 0.71209 0.93486 0.50649 0.0
C968 C 0.74055 0.92448 0.5195 0.0
C969 C 0.73236 0.87872 0.52095 0.0
C970 C 0.69629 0.8431 0.5092 0.0
C971 C 0.66835 0.85317 0.49598 0.0
C972 C 0.676 0.89875 0.49466 0.0
C973 C 0.80047 0.11695 0.43192 0.0
C974 C 0.76258 0.11268 0.4198 0.0
C975 C 0.7929 0.09588 0.45183 0.0
C976 C 0.74732 0.06938 0.45973 0.0
C977 C 0.70934 0.06345 0.4473 0.0
C978 C 0.71692 0.08542 0.42764 0.0
C979 C 0.73945 0.04991 0.48141 0.0
C980 C 0.72727 0.00308 0.48423 0.0
C981 C 0.74556 0.07803 0.49927 0.0
C982 C 0.759 0.12786 0.49707 0.0
C983 C 0.72947 0.14077 0.48647 0.0
C984 C 0.74317 0.18793 0.48381 0.0
C985 C 0.78604 0.22247 0.49196 0.0
C986 C 0.81524 0.20991 0.50282 0.0
C987 C 0.80181 0.16279 0.5054 0.0
H988 H 0.79659 0.25896 0.48989 0.0
H989 H 0.69021 0.80775 0.51023 0.0
H990 H 0.68897 0.82582 0.75193 0.0
H991 H 0.71676 0.82375 0.78784 0.0
H992 H 0.57997 0.71038 0.80366 0.0
H993 H 0.55226 0.71171 0.76812 0.0
H994 H 0.61852 0.78241 0.83427 0.0
H995 H 0.66208 0.68585 0.79268 0.0
H996 H 0.70253 0.67181 0.76332 0.0
H997 H 0.83463 0.78197 0.7861 0.0
H998 H 0.79482 0.79702 0.81546 0.0
H999 H 0.64193 0.67453 0.9259 0.0
H1000 H 0.62647 0.69333 0.89046 0.0
H1001 H 0.7745 0.7852 0.88136 0.0
H1002 H 0.79015 0.76575 0.91671 0.0
H1003 H 0.73858 0.73587 0.84727 0.0
H1004 H 0.69827 0.8257 0.8917 0.0
H1005 H 0.65984 0.84242 0.92102 0.0
H1006 H 0.52524 0.75251 0.89306 0.0
H1007 H 0.56277 0.73497 0.86365 0.0
C1008 C 0.66487 0.80056 0.7631 0.0
C1009 C 0.61845 0.7689 0.75713 0.0
C1010 C 0.68079 0.79938 0.78356 0.0
C1011 C 0.65036 0.76688 0.79837 0.0
C1012 C 0.60395 0.73582 0.7925 0.0
C1013 C 0.58827 0.73655 0.7721 0.0
C1014 C 0.66643 0.76417 0.81998 0.0
C1015 C 0.64456 0.77198 0.8372 0.0
C1016 C 0.70154 0.75216 0.82367 0.0
C1017 C 0.72544 0.74292 0.8061 0.0
C1018 C 0.6997 0.70733 0.79132 0.0
C1019 C 0.72252 0.69913 0.77471 0.0
C1020 C 0.77111 0.72608 0.77281 0.0
C1021 C 0.79699 0.76118 0.78756 0.0
C1022 C 0.77433 0.76954 0.8042 0.0
C1023 C 0.67113 0.69904 0.91641 0.0
C1024 C 0.71723 0.71885 0.92412 0.0
C1025 C 0.66227 0.70982 0.89615 0.0
C1026 C 0.69927 0.7413 0.88332 0.0
C1027 C 0.74538 0.76089 0.89095 0.0
C1028 C 0.75428 0.74973 0.91114 0.0
C1029 C 0.68977 0.75292 0.86179 0.0
C1030 C 0.71292 0.74688 0.84452 0.0
C1031 C 0.65615 0.76716 0.85808 0.0
C1032 C 0.63338 0.77822 0.87564 0.0
C1033 C 0.66045 0.80907 0.8919 0.0
C1034 C 0.63881 0.81885 0.90851 0.0
C1035 C 0.59011 0.79834 0.90897 0.0
C1036 C 0.56296 0.76823 0.89274 0.0
C1037 C 0.58441 0.75836 0.87609 0.0
H1038 H 0.57343 0.80594 0.92185 0.0
H1039 H 0.78871 0.71969 0.75993 0.0
H1040 H 0.96674 0.67088 0.25614 0.0
H1041 H 0.93811 0.64877 0.21983 0.0
H1042 H -0.0049 0.79396 0.20369 0.0
H1043 H 0.02371 0.8163 0.24003 0.0
H1044 H 0.90351 0.73791 0.18933 0.0
H1045 H 0.0496 0.73881 0.18696 0.0
H1046 H 0.10812 0.71794 0.19926 0.0
H1047 H 0.01023 0.57282 0.18883 0.0
H1048 H 0.95074 0.59265 0.17664 0.0
H1049 H 0.85484 0.69376 0.07965 0.0
H1050 H 0.89526 0.72467 0.11341 0.0
H1051 H 0.86701 0.58674 0.1312 0.0
H1052 H 0.8288 0.55633 0.09722 0.0
H1053 H 0.94915 0.64433 0.14419 0.0
H1054 H 0.80137 0.64068 0.14947 0.0
H1055 H 0.74 0.65895 0.13884 0.0
H1056 H 0.83741 0.80555 0.1455 0.0
H1057 H 0.89953 0.78814 0.15592 0.0
C1058 C 0.97303 0.69809 0.24488 0.0
C1059 C -0.00256 0.74535 0.25098 0.0
C1060 C 0.95696 0.68543 0.22409 0.0
C1061 C 0.96472 0.71973 0.20898 0.0
C1062 C -0.01119 0.76692 0.21505 0.0
C1063 C 0.00535 0.77964 0.23579 0.0
C1064 C 0.9468 0.70616 0.18699 0.0
C1065 C 0.91402 0.71809 0.1793 0.0
C1066 C 0.95969 0.67934 0.17411 0.0
C1067 C -0.00445 0.66723 0.18106 0.0
C1068 C 0.04039 0.70241 0.18741 0.0
C1069 C 0.07373 0.69076 0.19434 0.0
C1070 C 0.06273 0.64407 0.19488 0.0
C1071 C 0.01852 0.60892 0.18839 0.0
C1072 C -0.01498 0.62036 0.18144 0.0
C1073 C 0.85746 0.67013 0.09074 0.0
C1074 C 0.83843 0.62258 0.08574 0.0
C1075 C 0.88038 0.68777 0.11013 0.0
C1076 C 0.88358 0.65798 0.12518 0.0
C1077 C 0.86521 0.61062 0.11998 0.0
C1078 C 0.84317 0.59321 0.10049 0.0
C1079 C 0.90517 0.67555 0.14648 0.0
C1080 C 0.93871 0.66438 0.15409 0.0
C1081 C 0.89254 0.70261 0.15943 0.0
C1082 C 0.8552 0.71312 0.15325 0.0
C1083 C 0.80977 0.67682 0.14853 0.0
C1084 C 0.77484 0.68702 0.14256 0.0
C1085 C 0.78483 0.73339 0.14144 0.0
C1086 C 0.82974 0.76966 0.14634 0.0
C1087 C 0.86481 0.75965 0.15229 0.0
H1088 H 0.75775 0.74121 0.13681 0.0
H1089 H 0.08844 0.6351 0.2003 0.0
H1090 H 0.27641 0.96024 0.59454 0.0
H1091 H 0.25932 0.92892 0.55855 0.0
H1092 H 0.19391 0.01139 0.54462 0.0
H1093 H 0.21057 0.04265 0.58073 0.0
H1094 H 0.14331 0.91817 0.52878 0.0
H1095 H 0.29923 0.04906 0.52854 0.0
H1096 H 0.37871 0.0938 0.54354 0.0
H1097 H 0.40439 0.98136 0.529 0.0
H1098 H 0.3243 0.93508 0.51464 0.0
H1099 H 0.13549 0.87559 0.41739 0.0
H1100 H 0.14747 0.91325 0.45204 0.0
H1101 H 0.24033 0.86171 0.47001 0.0
H1102 H 0.22978 0.82566 0.43545 0.0
H1103 H 0.27672 0.94595 0.48313 0.0
H1104 H 0.12157 0.81214 0.48731 0.0
H1105 H 0.03945 0.76124 0.47632 0.0
H1106 H 0.01201 0.87465 0.48472 0.0
H1107 H 0.09417 0.92639 0.49552 0.0
C1108 C 0.25791 0.97134 0.58392 0.0
C1109 C 0.24504 0.00412 0.59052 0.0
C1110 C 0.24836 0.95357 0.5633 0.0
C1111 C 0.2256 0.96803 0.54882 0.0
C1112 C 0.21154 -0.00024 0.5555 0.0
C1113 C 0.22145 0.01789 0.57609 0.0
C1114 C 0.21825 0.95134 0.52651 0.0
C1115 C 0.17244 0.9248 0.51865 0.0
C1116 C 0.25627 0.9594 0.51341 0.0
C1117 C 0.30549 -0.01166 0.52074 0.0
C1118 C 0.32169 0.0337 0.52866 0.0
C1119 C 0.36679 0.05927 0.53714 0.0
C1120 C 0.39647 0.0403 0.53737 0.0
C1121 C 0.38125 -0.00411 0.52892 0.0
C1122 C 0.33594 0.96992 0.52065 0.0
C1123 C 0.15835 0.87224 0.42876 0.0
C1124 C 0.18162 0.84755 0.42357 0.0
C1125 C 0.16511 0.89369 0.44864 0.0
C1126 C 0.19451 0.89007 0.4639 0.0
C1127 C 0.21766 0.86539 0.45863 0.0
C1128 C 0.21143 0.84457 0.43877 0.0
C1129 C 0.20147 0.91166 0.48537 0.0
C1130 C 0.24741 0.93945 0.4931 0.0
C1131 C 0.1635 0.90431 0.49842 0.0
C1132 C 0.11412 0.87325 0.49198 0.0
C1133 C 0.0981 0.8263 0.48666 0.0
C1134 C 0.05154 0.79729 0.48049 0.0
C1135 C 0.02057 0.81474 0.47976 0.0
C1136 C 0.03606 0.86121 0.48526 0.0
C1137 C 0.08261 0.89038 0.49141 0.0
H1138 H -0.01546 0.79223 0.47498 0.0
H1139 H 0.4314 0.06018 0.54395 0.0
loop_
_geom_bond_atom_site_label_1
_geom_bond_atom_site_label_2
_geom_bond_distance
_geom_bond_site_symmetry_2
_ccdc_geom_bond_type
C0 Eu1 2.835 1_556 S
C0 C2 1.500 . S
C0 O20 1.257 . S
C0 O21 1.260 . S
Eu1 C0 2.835 1_554 S
Eu1 O20 2.473 1_554 S
Eu1 O21 2.480 1_554 S
Eu1 O22 2.430 . S
Eu1 O23 2.670 . S
Eu1 O24 2.394 1_554 S
Eu1 O29 2.355 . S
Eu1 O31 2.374 . S
C2 C0 1.500 . S
C2 C3 1.377 . S
C2 C7 1.377 . S
C3 C2 1.377 . S
C3 C4 1.395 . S
C3 H32 0.931 . S
C4 C3 1.395 . S
C4 C5 1.383 . S
C4 H33 0.931 . S
C5 C4 1.383 . S
C5 C6 1.394 . S
C6 C5 1.394 . S
C6 C7 1.378 . S
C6 H34 0.931 . S
C7 C2 1.377 . S
C7 C6 1.378 . S
C7 H35 0.931 . S
C8 O22 1.259 . S
C8 O23 1.270 . S
C9 O24 1.251 . S
C9 O25 1.251 1_556 S
C10 Eu11 2.835 . S
C10 C12 1.500 . S
C10 O26 1.257 . S
C10 O27 1.260 . S
Eu11 C10 2.835 . S
Eu11 O23 2.355 . S
Eu11 O25 2.374 . S
Eu11 O26 2.473 . S
Eu11 O27 2.480 . S
Eu11 O28 2.430 . S
Eu11 O29 2.670 . S
Eu11 O30 2.394 . S
C12 C10 1.500 . S
C12 C13 1.377 . S
C12 C17 1.377 . S
C13 C12 1.377 . S
C13 C14 1.395 . S
C13 H36 0.931 . S
C14 C13 1.395 . S
C14 C15 1.383 . S
C14 H37 0.931 . S
C15 C14 1.383 . S
C15 C16 1.394 . S
C16 C15 1.394 . S
C16 C17 1.378 . S
C16 H38 0.931 . S
C17 C12 1.377 . S
C17 C16 1.378 . S
C17 H39 0.931 . S
C18 O28 1.259 . S
C18 O29 1.270 . S
C19 O30 1.251 . S
C19 O31 1.251 . S
O20 C0 1.257 . S
O20 Eu1 2.473 1_556 S
O21 C0 1.260 . S
O21 Eu1 2.480 1_556 S
O22 Eu1 2.430 . S
O22 C8 1.259 . S
O23 Eu1 2.670 . S
O23 C8 1.270 . S
O23 Eu11 2.355 . S
O24 Eu1 2.394 1_556 S
O24 C9 1.251 . S
O25 C9 1.251 1_554 S
O25 Eu11 2.374 . S
O26 C10 1.257 . S
O26 Eu11 2.473 . S
O27 C10 1.260 . S
O27 Eu11 2.480 . S
O28 Eu11 2.430 . S
O28 C18 1.259 . S
O29 Eu1 2.355 . S
O29 Eu11 2.670 . S
O29 C18 1.270 . S
O30 Eu11 2.394 . S
O30 C19 1.251 . S
O31 Eu1 2.374 . S
O31 C19 1.251 . S
H32 C3 0.931 . S
H33 C4 0.931 . S
H34 C6 0.931 . S
H35 C7 0.931 . S
H36 C13 0.931 . S
H37 C14 0.931 . S
H38 C16 0.931 . S
H39 C17 0.931 . S
C40 Eu41 2.835 . S
C40 C42 1.500 . S
C40 O60 1.257 . S
C40 O61 1.260 . S
Eu41 C40 2.835 . S
Eu41 O60 2.473 . S
Eu41 O61 2.480 . S
Eu41 O62 2.430 . S
Eu41 O63 2.670 . S
Eu41 O64 2.394 . S
Eu41 O69 2.355 . S
Eu41 O71 2.374 . S
C42 C40 1.500 . S
C42 C43 1.377 . S
C42 C47 1.377 . S
C43 C42 1.377 . S
C43 C44 1.395 . S
C43 H72 0.931 . S
C44 C43 1.395 . S
C44 C45 1.383 . S
C44 H73 0.931 . S
C45 C44 1.383 . S
C45 C46 1.394 . S
C46 C45 1.394 . S
C46 C47 1.378 . S
C46 H74 0.931 . S
C47 C42 1.377 . S
C47 C46 1.378 . S
C47 H75 0.931 . S
C48 O62 1.259 . S
C48 O63 1.270 . S
C49 O64 1.251 . S
C49 O65 1.251 . S
C50 Eu51 2.835 . S
C50 C52 1.500 . S
C50 O66 1.257 . S
C50 O67 1.260 . S
Eu51 C50 2.835 . S
Eu51 O63 2.355 . S
Eu51 O65 2.374 . S
Eu51 O66 2.473 . S
Eu51 O67 2.480 . S
Eu51 O68 2.430 . S
Eu51 O69 2.670 . S
Eu51 O70 2.394 . S
C52 C50 1.500 . S
C52 C53 1.377 . S
C52 C57 1.377 . S
C53 C52 1.377 . S
C53 C54 1.395 . S
C53 H76 0.931 . S
C54 C53 1.395 . S
C54 C55 1.383 . S
C54 H77 0.931 . S
C55 C54 1.383 . S
C55 C56 1.394 . S
C56 C55 1.394 . S
C56 C57 1.378 . S
C56 H78 0.931 . S
C57 C52 1.377 . S
C57 C56 1.378 . S
C57 H79 0.931 . S
C58 O68 1.259 . S
C58 O69 1.270 . S
C59 O70 1.251 . S
C59 O71 1.251 . S
O60 C40 1.257 . S
O60 Eu41 2.473 . S
O61 C40 1.260 . S
O61 Eu41 2.480 . S
O62 Eu41 2.430 . S
O62 C48 1.259 . S
O63 Eu41 2.670 . S
O63 C48 1.270 . S
O63 Eu51 2.355 . S
O64 Eu41 2.394 . S
O64 C49 1.251 . S
O65 C49 1.251 . S
O65 Eu51 2.374 . S
O66 C50 1.257 . S
O66 Eu51 2.473 . S
O67 C50 1.260 . S
O67 Eu51 2.480 . S
O68 Eu51 2.430 . S
O68 C58 1.259 . S
O69 Eu41 2.355 . S
O69 Eu51 2.670 . S
O69 C58 1.270 . S
O70 Eu51 2.394 . S
O70 C59 1.251 . S
O71 Eu41 2.374 . S
O71 C59 1.251 . S
H72 C43 0.931 . S
H73 C44 0.931 . S
H74 C46 0.931 . S
H75 C47 0.931 . S
H76 C53 0.931 . S
H77 C54 0.931 . S
H78 C56 0.931 . S
H79 C57 0.931 . S
C80 Eu81 2.835 . S
C80 C82 1.500 . S
C80 O100 1.257 . S
C80 O101 1.260 . S
Eu81 C80 2.835 . S
Eu81 O100 2.473 . S
Eu81 O101 2.480 . S
Eu81 O102 2.430 . S
Eu81 O103 2.670 . S
Eu81 O104 2.394 . S
Eu81 O109 2.355 . S
Eu81 O111 2.374 . S
C82 C80 1.500 . S
C82 C83 1.377 . S
C82 C87 1.377 . S
C83 C82 1.377 . S
C83 C84 1.395 . S
C83 H112 0.931 . S
C84 C83 1.395 . S
C84 C85 1.383 . S
C84 H113 0.931 . S
C85 C84 1.383 . S
C85 C86 1.394 . S
C86 C85 1.394 . S
C86 C87 1.378 . S
C86 H114 0.931 . S
C87 C82 1.377 . S
C87 C86 1.378 . S
C87 H115 0.931 . S
C88 O102 1.259 . S
C88 O103 1.270 . S
C89 O104 1.251 . S
C89 O105 1.251 . S
C90 Eu91 2.835 . S
C90 C92 1.500 . S
C90 O106 1.257 . S
C90 O107 1.260 . S
Eu91 C90 2.835 . S
Eu91 O103 2.355 . S
Eu91 O105 2.374 . S
Eu91 O106 2.473 . S
Eu91 O107 2.480 . S
Eu91 O108 2.430 . S
Eu91 O109 2.670 . S
Eu91 O110 2.394 . S
C92 C90 1.500 . S
C92 C93 1.377 . S
C92 C97 1.377 . S
C93 C92 1.377 . S
C93 C94 1.395 . S
C93 H116 0.931 . S
C94 C93 1.395 . S
C94 C95 1.383 . S
C94 H117 0.931 . S
C95 C94 1.383 . S
C95 C96 1.394 . S
C96 C95 1.394 . S
C96 C97 1.378 . S
C96 H118 0.931 . S
C97 C92 1.377 . S
C97 C96 1.378 . S
C97 H119 0.931 . S
C98 O108 1.259 . S
C98 O109 1.270 . S
C99 O110 1.251 . S
C99 O111 1.251 . S
O100 C80 1.257 . S
O100 Eu81 2.473 . S
O101 C80 1.260 . S
O101 Eu81 2.480 . S
O102 Eu81 2.430 . S
O102 C88 1.259 . S
O103 Eu81 2.670 . S
O103 C88 1.270 . S
O103 Eu91 2.355 . S
O104 Eu81 2.394 . S
O104 C89 1.251 . S
O105 C89 1.251 . S
O105 Eu91 2.374 . S
O106 C90 1.257 . S
O106 Eu91 2.473 . S
O107 C90 1.260 . S
O107 Eu91 2.480 . S
O108 Eu91 2.430 . S
O108 C98 1.259 . S
O109 Eu81 2.355 . S
O109 Eu91 2.670 . S
O109 C98 1.270 . S
O110 Eu91 2.394 . S
O110 C99 1.251 . S
O111 Eu81 2.374 . S
O111 C99 1.251 . S
H112 C83 0.931 . S
H113 C84 0.931 . S
H114 C86 0.931 . S
H115 C87 0.931 . S
H116 C93 0.931 . S
H117 C94 0.931 . S
H118 C96 0.931 . S
H119 C97 0.931 . S
C120 Eu121 2.835 1_556 S
C120 C122 1.500 . S
C120 O140 1.257 . S
C120 O141 1.260 . S
Eu121 C120 2.835 1_554 S
Eu121 O140 2.473 1_554 S
Eu121 O141 2.480 1_554 S
Eu121 O142 2.430 . S
Eu121 O143 2.670 . S
Eu121 O144 2.394 1_554 S
Eu121 O149 2.355 . S
Eu121 O151 2.374 . S
C122 C120 1.500 . S
C122 C123 1.377 . S
C122 C127 1.377 . S
C123 C122 1.377 . S
C123 C124 1.395 . S
C123 H152 0.931 . S
C124 C123 1.395 . S
C124 C125 1.383 . S
C124 H153 0.931 . S
C125 C124 1.383 . S
C125 C126 1.394 . S
C126 C125 1.394 . S
C126 C127 1.378 . S
C126 H154 0.931 . S
C127 C122 1.377 . S
C127 C126 1.378 . S
C127 H155 0.931 . S
C128 O142 1.259 . S
C128 O143 1.270 . S
C129 O144 1.251 . S
C129 O145 1.251 1_556 S
C130 Eu131 2.835 . S
C130 C132 1.500 . S
C130 O146 1.257 . S
C130 O147 1.260 . S
Eu131 C130 2.835 . S
Eu131 O143 2.355 . S
Eu131 O145 2.374 . S
Eu131 O146 2.473 . S
Eu131 O147 2.480 . S
Eu131 O148 2.430 . S
Eu131 O149 2.670 . S
Eu131 O150 2.394 . S
C132 C130 1.500 . S
C132 C133 1.377 . S
C132 C137 1.377 . S
C133 C132 1.377 . S
C133 C134 1.395 . S
C133 H156 0.931 . S
C134 C133 1.395 . S
C134 C135 1.383 . S
C134 H157 0.931 . S
C135 C134 1.383 . S
C135 C136 1.394 . S
C136 C135 1.394 . S
C136 C137 1.378 . S
C136 H158 0.931 . S
C137 C132 1.377 . S
C137 C136 1.378 . S
C137 H159 0.931 . S
C138 O148 1.259 . S
C138 O149 1.270 . S
C139 O150 1.251 . S
C139 O151 1.251 . S
O140 C120 1.257 . S
O140 Eu121 2.473 1_556 S
O141 C120 1.260 . S
O141 Eu121 2.480 1_556 S
O142 Eu121 2.430 . S
O142 C128 1.259 . S
O143 Eu121 2.670 . S
O143 C128 1.270 . S
O143 Eu131 2.355 . S
O144 Eu121 2.394 1_556 S
O144 C129 1.251 . S
O145 C129 1.251 1_554 S
O145 Eu131 2.374 . S
O146 C130 1.257 . S
O146 Eu131 2.473 . S
O147 C130 1.260 . S
O147 Eu131 2.480 . S
O148 Eu131 2.430 . S
O148 C138 1.259 . S
O149 Eu121 2.355 . S
O149 Eu131 2.670 . S
O149 C138 1.270 . S
O150 Eu131 2.394 . S
O150 C139 1.251 . S
O151 Eu121 2.374 . S
O151 C139 1.251 . S
H152 C123 0.931 . S
H153 C124 0.931 . S
H154 C126 0.931 . S
H155 C127 0.931 . S
H156 C133 0.931 . S
H157 C134 0.931 . S
H158 C136 0.931 . S
H159 C137 0.931 . S
C160 Eu161 2.835 . S
C160 C162 1.500 . S
C160 O180 1.257 . S
C160 O181 1.260 . S
Eu161 C160 2.835 . S
Eu161 O180 2.473 . S
Eu161 O181 2.480 . S
Eu161 O182 2.430 . S
Eu161 O183 2.670 . S
Eu161 O184 2.394 . S
Eu161 O189 2.355 . S
Eu161 O191 2.374 . S
C162 C160 1.500 . S
C162 C163 1.377 . S
C162 C167 1.377 . S
C163 C162 1.377 . S
C163 C164 1.395 . S
C163 H192 0.931 . S
C164 C163 1.395 . S
C164 C165 1.383 . S
C164 H193 0.931 . S
C165 C164 1.383 . S
C165 C166 1.394 . S
C166 C165 1.394 . S
C166 C167 1.378 . S
C166 H194 0.931 . S
C167 C162 1.377 . S
C167 C166 1.378 . S
C167 H195 0.931 . S
C168 O182 1.259 . S
C168 O183 1.270 . S
C169 O184 1.251 . S
C169 O185 1.251 . S
C170 Eu171 2.835 . S
C170 C172 1.500 . S
C170 O186 1.257 . S
C170 O187 1.260 . S
Eu171 C170 2.835 . S
Eu171 O183 2.355 . S
Eu171 O185 2.374 . S
Eu171 O186 2.473 . S
Eu171 O187 2.480 . S
Eu171 O188 2.430 . S
Eu171 O189 2.670 . S
Eu171 O190 2.394 . S
C172 C170 1.500 . S
C172 C173 1.377 . S
C172 C177 1.377 . S
C173 C172 1.377 . S
C173 C174 1.395 . S
C173 H196 0.931 . S
C174 C173 1.395 . S
C174 C175 1.383 . S
C174 H197 0.931 . S
C175 C174 1.383 . S
C175 C176 1.394 . S
C176 C175 1.394 . S
C176 C177 1.378 . S
C176 H198 0.931 . S
C177 C172 1.377 . S
C177 C176 1.378 . S
C177 H199 0.931 . S
C178 O188 1.259 . S
C178 O189 1.270 . S
C179 O190 1.251 . S
C179 O191 1.251 . S
O180 C160 1.257 . S
O180 Eu161 2.473 . S
O181 C160 1.260 . S
O181 Eu161 2.480 . S
O182 Eu161 2.430 . S
O182 C168 1.259 . S
O183 Eu161 2.670 . S
O183 C168 1.270 . S
O183 Eu171 2.355 . S
O184 Eu161 2.394 . S
O184 C169 1.251 . S
O185 C169 1.251 . S
O185 Eu171 2.374 . S
O186 C170 1.257 . S
O186 Eu171 2.473 . S
O187 C170 1.260 . S
O187 Eu171 2.480 . S
O188 Eu171 2.430 . S
O188 C178 1.259 . S
O189 Eu161 2.355 . S
O189 Eu171 2.670 . S
O189 C178 1.270 . S
O190 Eu171 2.394 . S
O190 C179 1.251 . S
O191 Eu161 2.374 . S
O191 C179 1.251 . S
H192 C163 0.931 . S
H193 C164 0.931 . S
H194 C166 0.931 . S
H195 C167 0.931 . S
H196 C173 0.931 . S
H197 C174 0.931 . S
H198 C176 0.931 . S
H199 C177 0.931 . S
C200 Eu201 2.835 . S
C200 C202 1.500 . S
C200 O220 1.257 . S
C200 O221 1.260 . S
Eu201 C200 2.835 . S
Eu201 O220 2.473 . S
Eu201 O221 2.480 . S
Eu201 O222 2.430 . S
Eu201 O223 2.670 . S
Eu201 O224 2.394 . S
Eu201 O229 2.355 . S
Eu201 O231 2.374 . S
C202 C200 1.500 . S
C202 C203 1.377 . S
C202 C207 1.377 . S
C203 C202 1.377 . S
C203 C204 1.395 . S
C203 H232 0.931 . S
C204 C203 1.395 . S
C204 C205 1.383 . S
C204 H233 0.931 . S
C205 C204 1.383 . S
C205 C206 1.394 . S
C206 C205 1.394 . S
C206 C207 1.378 . S
C206 H234 0.931 . S
C207 C202 1.377 . S
C207 C206 1.378 . S
C207 H235 0.931 . S
C208 O222 1.259 . S
C208 O223 1.270 . S
C209 O224 1.251 . S
C209 O225 1.251 . S
C210 Eu211 2.835 . S
C210 C212 1.500 . S
C210 O226 1.257 . S
C210 O227 1.260 . S
Eu211 C210 2.835 . S
Eu211 O223 2.355 . S
Eu211 O225 2.374 . S
Eu211 O226 2.473 . S
Eu211 O227 2.480 . S
Eu211 O228 2.430 . S
Eu211 O229 2.670 . S
Eu211 O230 2.394 . S
C212 C210 1.500 . S
C212 C213 1.377 . S
C212 C217 1.377 . S
C213 C212 1.377 . S
C213 C214 1.395 . S
C213 H236 0.931 . S
C214 C213 1.395 . S
C214 C215 1.383 . S
C214 H237 0.931 . S
C215 C214 1.383 . S
C215 C216 1.394 . S
C216 C215 1.394 . S
C216 C217 1.378 . S
C216 H238 0.931 . S
C217 C212 1.377 . S
C217 C216 1.378 . S
C217 H239 0.931 . S
C218 O228 1.259 . S
C218 O229 1.270 . S
C219 O230 1.251 . S
C219 O231 1.251 . S
O220 C200 1.257 . S
O220 Eu201 2.473 . S
O221 C200 1.260 . S
O221 Eu201 2.480 . S
O222 Eu201 2.430 . S
O222 C208 1.259 . S
O223 Eu201 2.670 . S
O223 C208 1.270 . S
O223 Eu211 2.355 . S
O224 Eu201 2.394 . S
O224 C209 1.251 . S
O225 C209 1.251 . S
O225 Eu211 2.374 . S
O226 C210 1.257 . S
O226 Eu211 2.473 . S
O227 C210 1.260 . S
O227 Eu211 2.480 . S
O228 Eu211 2.430 . S
O228 C218 1.259 . S
O229 Eu201 2.355 . S
O229 Eu211 2.670 . S
O229 C218 1.270 . S
O230 Eu211 2.394 . S
O230 C219 1.251 . S
O231 Eu201 2.374 . S
O231 C219 1.251 . S
H232 C203 0.931 . S
H233 C204 0.931 . S
H234 C206 0.931 . S
H235 C207 0.931 . S
H236 C213 0.931 . S
H237 C214 0.931 . S
H238 C216 0.931 . S
H239 C217 0.931 . S
H240 C258 0.951 . S
H241 C260 0.951 . S
H242 C262 0.950 . S
H243 C263 0.950 . S
H244 C265 0.950 . S
H245 C268 0.950 . S
H246 C269 0.950 . S
H247 C271 0.950 . S
H248 C272 0.950 . S
H249 C273 0.951 . S
H250 C275 0.951 . S
H251 C277 0.950 . S
H252 C278 0.950 . S
H253 C280 0.950 . S
H254 C283 0.950 . S
H255 C284 0.950 . S
H256 C286 0.950 . S
H257 C287 0.950 . S
C258 H240 0.951 . S
C258 C259 1.366 . S
C258 C260 1.388 . S
C259 C258 1.366 . S
C259 C263 1.385 . S
C260 H241 0.951 . S
C260 C258 1.388 . S
C260 C261 1.366 . S
C261 C260 1.366 . S
C261 C262 1.414 . S
C261 C264 1.499 . S
C262 H242 0.950 . S
C262 C261 1.414 . S
C262 C263 1.374 . S
C263 H243 0.950 . S
C263 C259 1.385 . S
C263 C262 1.374 . S
C264 C261 1.499 . S
C264 C265 1.373 . S
C264 C266 1.389 . S
C265 H244 0.950 . S
C265 C264 1.373 . S
C265 C281 1.377 . S
C266 C264 1.389 . S
C266 C267 1.524 . S
C266 C280 1.377 . S
C267 C266 1.524 . S
C267 C268 1.397 . S
C267 C272 1.363 . S
C268 H245 0.950 . S
C268 C267 1.397 . S
C268 C269 1.334 . S
C269 H246 0.950 . S
C269 C268 1.334 . S
C269 C270 1.287 . S
C270 C269 1.287 . S
C270 C271 1.524 . S
C270 H289 0.913 . S
C271 H247 0.950 . S
C271 C270 1.524 . S
C271 C272 1.415 . S
C272 H248 0.950 . S
C272 C267 1.363 . S
C272 C271 1.415 . S
C273 H249 0.951 . S
C273 C274 1.366 . S
C273 C275 1.388 . S
C274 C273 1.366 . S
C274 C278 1.385 . S
C275 H250 0.951 . S
C275 C273 1.388 . S
C275 C276 1.366 . S
C276 C275 1.366 . S
C276 C277 1.414 . S
C276 C279 1.499 . S
C277 H251 0.950 . S
C277 C276 1.414 . S
C277 C278 1.374 . S
C278 H252 0.950 . S
C278 C274 1.385 . S
C278 C277 1.374 . S
C279 C276 1.499 . S
C279 C280 1.373 . S
C279 C281 1.389 . S
C280 H253 0.950 . S
C280 C266 1.377 . S
C280 C279 1.373 . S
C281 C265 1.377 . S
C281 C279 1.389 . S
C281 C282 1.524 . S
C282 C281 1.524 . S
C282 C283 1.397 . S
C282 C287 1.363 . S
C283 H254 0.950 . S
C283 C282 1.397 . S
C283 C284 1.334 . S
C284 H255 0.950 . S
C284 C283 1.334 . S
C284 C285 1.287 . S
C285 C284 1.287 . S
C285 C286 1.524 . S
C285 H288 0.999 . S
C286 H256 0.950 . S
C286 C285 1.524 . S
C286 C287 1.415 . S
C287 H257 0.950 . S
C287 C282 1.363 . S
C287 C286 1.415 . S
H288 C285 0.999 . S
H289 C270 0.913 . S
H290 C308 0.951 . S
H291 C310 0.951 . S
H292 C312 0.950 . S
H293 C313 0.950 . S
H294 C315 0.950 . S
H295 C318 0.950 . S
H296 C319 0.950 . S
H297 C321 0.950 . S
H298 C322 0.950 . S
H299 C323 0.951 . S
H300 C325 0.951 . S
H301 C327 0.950 . S
H302 C328 0.950 . S
H303 C330 0.950 . S
H304 C333 0.950 . S
H305 C334 0.950 . S
H306 C336 0.950 . S
H307 C337 0.950 . S
C308 H290 0.951 . S
C308 C309 1.366 . S
C308 C310 1.388 . S
C309 C308 1.366 . S
C309 C313 1.385 . S
C310 H291 0.951 . S
C310 C308 1.388 . S
C310 C311 1.366 . S
C311 C310 1.366 . S
C311 C312 1.414 . S
C311 C314 1.499 . S
C312 H292 0.950 . S
C312 C311 1.414 . S
C312 C313 1.374 . S
C313 H293 0.950 . S
C313 C309 1.385 . S
C313 C312 1.374 . S
C314 C311 1.499 . S
C314 C315 1.373 . S
C314 C316 1.389 . S
C315 H294 0.950 . S
C315 C314 1.373 . S
C315 C331 1.377 . S
C316 C314 1.389 . S
C316 C317 1.524 . S
C316 C330 1.377 . S
C317 C316 1.524 . S
C317 C318 1.397 . S
C317 C322 1.363 . S
C318 H295 0.950 . S
C318 C317 1.397 . S
C318 C319 1.334 . S
C319 H296 0.950 . S
C319 C318 1.334 . S
C319 C320 1.287 . S
C320 C319 1.287 . S
C320 C321 1.524 . S
C320 H339 0.913 . S
C321 H297 0.950 . S
C321 C320 1.524 . S
C321 C322 1.415 . S
C322 H298 0.950 . S
C322 C317 1.363 . S
C322 C321 1.415 . S
C323 H299 0.951 . S
C323 C324 1.366 . S
C323 C325 1.388 . S
C324 C323 1.366 . S
C324 C328 1.385 . S
C325 H300 0.951 . S
C325 C323 1.388 . S
C325 C326 1.366 . S
C326 C325 1.366 . S
C326 C327 1.414 . S
C326 C329 1.499 . S
C327 H301 0.950 . S
C327 C326 1.414 . S
C327 C328 1.374 . S
C328 H302 0.950 . S
C328 C324 1.385 . S
C328 C327 1.374 . S
C329 C326 1.499 . S
C329 C330 1.373 . S
C329 C331 1.389 . S
C330 H303 0.950 . S
C330 C316 1.377 . S
C330 C329 1.373 . S
C331 C315 1.377 . S
C331 C329 1.389 . S
C331 C332 1.524 . S
C332 C331 1.524 . S
C332 C333 1.397 . S
C332 C337 1.363 . S
C333 H304 0.950 . S
C333 C332 1.397 . S
C333 C334 1.334 . S
C334 H305 0.950 . S
C334 C333 1.334 . S
C334 C335 1.287 . S
C335 C334 1.287 . S
C335 C336 1.524 . S
C335 H338 0.999 . S
C336 H306 0.950 . S
C336 C335 1.524 . S
C336 C337 1.415 . S
C337 H307 0.950 . S
C337 C332 1.363 . S
C337 C336 1.415 . S
H338 C335 0.999 . S
H339 C320 0.913 . S
H340 C358 0.951 . S
H341 C360 0.951 . S
H342 C362 0.950 . S
H343 C363 0.950 . S
H344 C365 0.950 . S
H345 C368 0.950 . S
H346 C369 0.950 . S
H347 C371 0.950 . S
H348 C372 0.950 . S
H349 C373 0.951 . S
H350 C375 0.951 . S
H351 C377 0.950 . S
H352 C378 0.950 . S
H353 C380 0.950 . S
H354 C383 0.950 . S
H355 C384 0.950 . S
H356 C386 0.950 . S
H357 C387 0.950 . S
C358 H340 0.951 . S
C358 C359 1.366 . S
C358 C360 1.388 . S
C359 C358 1.366 . S
C359 C363 1.385 . S
C360 H341 0.951 . S
C360 C358 1.388 . S
C360 C361 1.366 . S
C361 C360 1.366 . S
C361 C362 1.414 . S
C361 C364 1.499 . S
C362 H342 0.950 . S
C362 C361 1.414 . S
C362 C363 1.374 . S
C363 H343 0.950 . S
C363 C359 1.385 . S
C363 C362 1.374 . S
C364 C361 1.499 . S
C364 C365 1.373 . S
C364 C366 1.389 . S
C365 H344 0.950 . S
C365 C364 1.373 . S
C365 C381 1.377 . S
C366 C364 1.389 . S
C366 C367 1.524 . S
C366 C380 1.377 . S
C367 C366 1.524 . S
C367 C368 1.397 . S
C367 C372 1.363 . S
C368 H345 0.950 . S
C368 C367 1.397 . S
C368 C369 1.334 . S
C369 H346 0.950 . S
C369 C368 1.334 . S
C369 C370 1.287 . S
C370 C369 1.287 . S
C370 C371 1.524 . S
C370 H389 0.913 . S
C371 H347 0.950 . S
C371 C370 1.524 . S
C371 C372 1.415 . S
C372 H348 0.950 . S
C372 C367 1.363 . S
C372 C371 1.415 . S
C373 H349 0.951 . S
C373 C374 1.366 . S
C373 C375 1.388 . S
C374 C373 1.366 . S
C374 C378 1.385 . S
C375 H350 0.951 . S
C375 C373 1.388 . S
C375 C376 1.366 . S
C376 C375 1.366 . S
C376 C377 1.414 . S
C376 C379 1.499 . S
C377 H351 0.950 . S
C377 C376 1.414 . S
C377 C378 1.374 . S
C378 H352 0.950 . S
C378 C374 1.385 . S
C378 C377 1.374 . S
C379 C376 1.499 . S
C379 C380 1.373 . S
C379 C381 1.389 . S
C380 H353 0.950 . S
C380 C366 1.377 . S
C380 C379 1.373 . S
C381 C365 1.377 . S
C381 C379 1.389 . S
C381 C382 1.524 . S
C382 C381 1.524 . S
C382 C383 1.397 . S
C382 C387 1.363 . S
C383 H354 0.950 . S
C383 C382 1.397 . S
C383 C384 1.334 . S
C384 H355 0.950 . S
C384 C383 1.334 . S
C384 C385 1.287 . S
C385 C384 1.287 . S
C385 C386 1.524 . S
C385 H388 0.999 . S
C386 H356 0.950 . S
C386 C385 1.524 . S
C386 C387 1.415 . S
C387 H357 0.950 . S
C387 C382 1.363 . S
C387 C386 1.415 . S
H388 C385 0.999 . S
H389 C370 0.913 . S
H390 C408 0.951 . S
H391 C410 0.951 . S
H392 C412 0.950 . S
H393 C413 0.950 . S
H394 C415 0.950 . S
H395 C418 0.950 . S
H396 C419 0.950 . S
H397 C421 0.950 . S
H398 C422 0.950 . S
H399 C423 0.951 . S
H400 C425 0.951 . S
H401 C427 0.950 . S
H402 C428 0.950 . S
H403 C430 0.950 . S
H404 C433 0.950 . S
H405 C434 0.950 . S
H406 C436 0.950 . S
H407 C437 0.950 . S
C408 H390 0.951 . S
C408 C409 1.366 . S
C408 C410 1.388 . S
C409 C408 1.366 . S
C409 C413 1.385 . S
C410 H391 0.951 . S
C410 C408 1.388 . S
C410 C411 1.366 . S
C411 C410 1.366 . S
C411 C412 1.414 . S
C411 C414 1.499 . S
C412 H392 0.950 . S
C412 C411 1.414 . S
C412 C413 1.374 . S
C413 H393 0.950 . S
C413 C409 1.385 . S
C413 C412 1.374 . S
C414 C411 1.499 . S
C414 C415 1.373 . S
C414 C416 1.389 . S
C415 H394 0.950 . S
C415 C414 1.373 . S
C415 C431 1.377 . S
C416 C414 1.389 . S
C416 C417 1.524 . S
C416 C430 1.377 . S
C417 C416 1.524 . S
C417 C418 1.397 . S
C417 C422 1.363 . S
C418 H395 0.950 . S
C418 C417 1.397 . S
C418 C419 1.334 . S
C419 H396 0.950 . S
C419 C418 1.334 . S
C419 C420 1.287 . S
C420 C419 1.287 . S
C420 C421 1.524 . S
C420 H439 0.913 . S
C421 H397 0.950 . S
C421 C420 1.524 . S
C421 C422 1.415 . S
C422 H398 0.950 . S
C422 C417 1.363 . S
C422 C421 1.415 . S
C423 H399 0.951 . S
C423 C424 1.366 . S
C423 C425 1.388 . S
C424 C423 1.366 . S
C424 C428 1.385 . S
C425 H400 0.951 . S
C425 C423 1.388 . S
C425 C426 1.366 . S
C426 C425 1.366 . S
C426 C427 1.414 . S
C426 C429 1.499 . S
C427 H401 0.950 . S
C427 C426 1.414 . S
C427 C428 1.374 . S
C428 H402 0.950 . S
C428 C424 1.385 . S
C428 C427 1.374 . S
C429 C426 1.499 . S
C429 C430 1.373 . S
C429 C431 1.389 . S
C430 H403 0.950 . S
C430 C416 1.377 . S
C430 C429 1.373 . S
C431 C415 1.377 . S
C431 C429 1.389 . S
C431 C432 1.524 . S
C432 C431 1.524 . S
C432 C433 1.397 . S
C432 C437 1.363 . S
C433 H404 0.950 . S
C433 C432 1.397 . S
C433 C434 1.334 . S
C434 H405 0.950 . S
C434 C433 1.334 . S
C434 C435 1.287 . S
C435 C434 1.287 . S
C435 C436 1.524 . S
C435 H438 0.999 1_655 S
C436 H406 0.950 . S
C436 C435 1.524 . S
C436 C437 1.415 . S
C437 H407 0.950 . S
C437 C432 1.363 . S
C437 C436 1.415 . S
H438 C435 0.999 1_455 S
H439 C420 0.913 . S
H440 C458 0.951 . S
H441 C460 0.951 . S
H442 C462 0.950 . S
H443 C463 0.950 . S
H444 C465 0.950 . S
H445 C468 0.950 . S
H446 C469 0.950 . S
H447 C471 0.950 . S
H448 C472 0.950 . S
H449 C473 0.951 . S
H450 C475 0.951 . S
H451 C477 0.950 . S
H452 C478 0.950 . S
H453 C480 0.950 . S
H454 C483 0.950 . S
H455 C484 0.950 . S
H456 C486 0.950 . S
H457 C487 0.950 . S
C458 H440 0.951 . S
C458 C459 1.366 . S
C458 C460 1.388 . S
C459 C458 1.366 . S
C459 C463 1.385 . S
C460 H441 0.951 . S
C460 C458 1.388 . S
C460 C461 1.366 . S
C461 C460 1.366 . S
C461 C462 1.414 . S
C461 C464 1.499 . S
C462 H442 0.950 . S
C462 C461 1.414 . S
C462 C463 1.374 . S
C463 H443 0.950 . S
C463 C459 1.385 . S
C463 C462 1.374 . S
C464 C461 1.499 . S
C464 C465 1.373 . S
C464 C466 1.389 . S
C465 H444 0.950 . S
C465 C464 1.373 . S
C465 C481 1.377 . S
C466 C464 1.389 . S
C466 C467 1.524 . S
C466 C480 1.377 . S
C467 C466 1.524 . S
C467 C468 1.397 . S
C467 C472 1.363 . S
C468 H445 0.950 . S
C468 C467 1.397 . S
C468 C469 1.334 . S
C469 H446 0.950 . S
C469 C468 1.334 . S
C469 C470 1.287 . S
C470 C469 1.287 . S
C470 C471 1.524 . S
C470 H489 0.913 . S
C471 H447 0.950 . S
C471 C470 1.524 . S
C471 C472 1.415 . S
C472 H448 0.950 . S
C472 C467 1.363 . S
C472 C471 1.415 . S
C473 H449 0.951 . S
C473 C474 1.366 . S
C473 C475 1.388 . S
C474 C473 1.366 . S
C474 C478 1.385 . S
C475 H450 0.951 . S
C475 C473 1.388 . S
C475 C476 1.366 . S
C476 C475 1.366 . S
C476 C477 1.414 . S
C476 C479 1.499 . S
C477 H451 0.950 . S
C477 C476 1.414 . S
C477 C478 1.374 . S
C478 H452 0.950 . S
C478 C474 1.385 . S
C478 C477 1.374 . S
C479 C476 1.499 . S
C479 C480 1.373 . S
C479 C481 1.389 . S
C480 H453 0.950 . S
C480 C466 1.377 . S
C480 C479 1.373 . S
C481 C465 1.377 . S
C481 C479 1.389 . S
C481 C482 1.524 . S
C482 C481 1.524 . S
C482 C483 1.397 . S
C482 C487 1.363 . S
C483 H454 0.950 . S
C483 C482 1.397 . S
C483 C484 1.334 . S
C484 H455 0.950 . S
C484 C483 1.334 . S
C484 C485 1.287 . S
C485 C484 1.287 . S
C485 C486 1.524 . S
C485 H488 0.999 . S
C486 H456 0.950 . S
C486 C485 1.524 . S
C486 C487 1.415 . S
C487 H457 0.950 . S
C487 C482 1.363 . S
C487 C486 1.415 . S
H488 C485 0.999 . S
H489 C470 0.913 . S
H490 C508 0.951 . S
H491 C510 0.951 . S
H492 C512 0.950 . S
H493 C513 0.950 . S
H494 C515 0.950 . S
H495 C518 0.950 . S
H496 C519 0.950 . S
H497 C521 0.950 . S
H498 C522 0.950 . S
H499 C523 0.951 . S
H500 C525 0.951 . S
H501 C527 0.950 . S
H502 C528 0.950 . S
H503 C530 0.950 . S
H504 C533 0.950 . S
H505 C534 0.950 . S
H506 C536 0.950 . S
H507 C537 0.950 . S
C508 H490 0.951 . S
C508 C509 1.366 . S
C508 C510 1.388 . S
C509 C508 1.366 . S
C509 C513 1.385 . S
C510 H491 0.951 . S
C510 C508 1.388 . S
C510 C511 1.366 . S
C511 C510 1.366 . S
C511 C512 1.414 . S
C511 C514 1.499 . S
C512 H492 0.950 . S
C512 C511 1.414 . S
C512 C513 1.374 . S
C513 H493 0.950 . S
C513 C509 1.385 . S
C513 C512 1.374 . S
C514 C511 1.499 . S
C514 C515 1.373 . S
C514 C516 1.389 . S
C515 H494 0.950 . S
C515 C514 1.373 . S
C515 C531 1.377 . S
C516 C514 1.389 . S
C516 C517 1.524 . S
C516 C530 1.377 . S
C517 C516 1.524 . S
C517 C518 1.397 . S
C517 C522 1.363 . S
C518 H495 0.950 . S
C518 C517 1.397 . S
C518 C519 1.334 . S
C519 H496 0.950 . S
C519 C518 1.334 . S
C519 C520 1.287 . S
C520 C519 1.287 . S
C520 C521 1.524 . S
C520 H539 0.913 . S
C521 H497 0.950 . S
C521 C520 1.524 . S
C521 C522 1.415 . S
C522 H498 0.950 . S
C522 C517 1.363 . S
C522 C521 1.415 . S
C523 H499 0.951 . S
C523 C524 1.366 . S
C523 C525 1.388 . S
C524 C523 1.366 . S
C524 C528 1.385 . S
C525 H500 0.951 . S
C525 C523 1.388 . S
C525 C526 1.366 . S
C526 C525 1.366 . S
C526 C527 1.414 . S
C526 C529 1.499 . S
C527 H501 0.950 . S
C527 C526 1.414 . S
C527 C528 1.374 . S
C528 H502 0.950 . S
C528 C524 1.385 . S
C528 C527 1.374 . S
C529 C526 1.499 . S
C529 C530 1.373 . S
C529 C531 1.389 . S
C530 H503 0.950 . S
C530 C516 1.377 . S
C530 C529 1.373 . S
C531 C515 1.377 . S
C531 C529 1.389 . S
C531 C532 1.524 . S
C532 C531 1.524 . S
C532 C533 1.397 . S
C532 C537 1.363 . S
C533 H504 0.950 . S
C533 C532 1.397 . S
C533 C534 1.334 . S
C534 H505 0.950 . S
C534 C533 1.334 . S
C534 C535 1.287 . S
C535 C534 1.287 . S
C535 C536 1.524 . S
C535 H538 0.999 . S
C536 H506 0.950 . S
C536 C535 1.524 . S
C536 C537 1.415 . S
C537 H507 0.950 . S
C537 C532 1.363 . S
C537 C536 1.415 . S
H538 C535 0.999 . S
H539 C520 0.913 . S
H540 C558 0.951 . S
H541 C560 0.951 . S
H542 C562 0.950 . S
H543 C563 0.950 . S
H544 C565 0.997 . S
H545 C568 0.950 . S
H546 C569 0.950 . S
H547 C571 0.950 . S
H548 C572 0.950 . S
H549 C573 0.951 . S
H550 C575 0.951 . S
H551 C577 0.950 . S
H552 C578 0.950 . S
H553 C580 0.950 . S
H554 C583 0.950 . S
H555 C584 0.950 . S
H556 C586 0.950 . S
H557 C587 0.950 . S
C558 H540 0.951 . S
C558 C559 1.366 . S
C558 C560 1.388 . S
C559 C558 1.366 . S
C559 C563 1.385 . S
C560 H541 0.951 . S
C560 C558 1.388 . S
C560 C561 1.366 . S
C561 C560 1.366 . S
C561 C562 1.414 . S
C561 C564 1.499 . S
C562 H542 0.950 . S
C562 C561 1.414 . S
C562 C563 1.374 . S
C563 H543 0.950 . S
C563 C559 1.385 . S
C563 C562 1.374 . S
C564 C561 1.499 . S
C564 C565 1.373 . S
C564 C566 1.389 . S
C565 H544 0.997 . S
C565 C564 1.373 . S
C565 C581 1.377 . S
C566 C564 1.389 . S
C566 C567 1.524 . S
C566 C580 1.377 . S
C567 C566 1.524 . S
C567 C568 1.397 . S
C567 C572 1.363 . S
C568 H545 0.950 . S
C568 C567 1.397 . S
C568 C569 1.334 . S
C569 H546 0.950 . S
C569 C568 1.334 . S
C569 C570 1.287 . S
C570 C569 1.287 . S
C570 C571 1.524 . S
C570 H589 0.913 . S
C571 H547 0.950 . S
C571 C570 1.524 . S
C571 C572 1.415 . S
C572 H548 0.950 . S
C572 C567 1.363 . S
C572 C571 1.415 . S
C573 H549 0.951 . S
C573 C574 1.366 . S
C573 C575 1.388 . S
C574 C573 1.366 . S
C574 C578 1.385 . S
C575 H550 0.951 . S
C575 C573 1.388 . S
C575 C576 1.366 . S
C576 C575 1.366 . S
C576 C577 1.414 . S
C576 C579 1.499 . S
C577 H551 0.950 . S
C577 C576 1.414 . S
C577 C578 1.374 . S
C578 H552 0.950 . S
C578 C574 1.385 . S
C578 C577 1.374 . S
C579 C576 1.499 . S
C579 C580 1.373 . S
C579 C581 1.389 . S
C580 H553 0.950 . S
C580 C566 1.377 . S
C580 C579 1.373 . S
C581 C565 1.377 . S
C581 C579 1.389 . S
C581 C582 1.524 1_554 S
C582 C581 1.524 1_556 S
C582 C583 1.397 . S
C582 C587 1.363 . S
C583 H554 0.950 . S
C583 C582 1.397 . S
C583 C584 1.334 . S
C584 H555 0.950 . S
C584 C583 1.334 . S
C584 C585 1.287 . S
C585 C584 1.287 . S
C585 C586 1.524 . S
C585 H588 0.999 . S
C586 H556 0.950 . S
C586 C585 1.524 . S
C586 C587 1.415 . S
C587 H557 0.950 . S
C587 C582 1.363 . S
C587 C586 1.415 . S
H588 C585 0.999 . S
H589 C570 0.913 . S
H590 C608 0.951 . S
H591 C610 0.951 . S
H592 C612 0.950 . S
H593 C613 0.950 . S
H594 C615 0.950 . S
H595 C618 0.950 . S
H596 C619 0.950 . S
H597 C621 0.950 . S
H598 C622 0.950 . S
H599 C623 0.951 . S
H600 C625 0.951 . S
H601 C627 0.950 . S
H602 C628 0.950 . S
H603 C630 0.950 . S
H604 C633 0.950 . S
H605 C634 0.950 . S
H606 C636 0.950 . S
H607 C637 0.950 . S
C608 H590 0.951 . S
C608 C609 1.366 . S
C608 C610 1.388 . S
C609 C608 1.366 . S
C609 C613 1.385 . S
C610 H591 0.951 . S
C610 C608 1.388 . S
C610 C611 1.366 . S
C611 C610 1.366 . S
C611 C612 1.414 . S
C611 C614 1.499 . S
C612 H592 0.950 . S
C612 C611 1.414 . S
C612 C613 1.374 . S
C613 H593 0.950 . S
C613 C609 1.385 . S
C613 C612 1.374 . S
C614 C611 1.499 . S
C614 C615 1.373 . S
C614 C616 1.389 1_455 S
C615 H594 0.950 . S
C615 C614 1.373 . S
C615 C631 1.377 . S
C616 C614 1.389 1_655 S
C616 C617 1.524 . S
C616 C630 1.377 . S
C617 C616 1.524 . S
C617 C618 1.397 . S
C617 C622 1.363 . S
C618 H595 0.950 . S
C618 C617 1.397 . S
C618 C619 1.334 . S
C619 H596 0.950 . S
C619 C618 1.334 . S
C619 C620 1.287 . S
C620 C619 1.287 . S
C620 C621 1.524 . S
C620 H639 0.913 . S
C621 H597 0.950 . S
C621 C620 1.524 . S
C621 C622 1.415 . S
C622 H598 0.950 . S
C622 C617 1.363 . S
C622 C621 1.415 . S
C623 H599 0.951 . S
C623 C624 1.366 . S
C623 C625 1.388 . S
C624 C623 1.366 . S
C624 C628 1.385 . S
C625 H600 0.951 . S
C625 C623 1.388 . S
C625 C626 1.366 . S
C626 C625 1.366 . S
C626 C627 1.414 . S
C626 C629 1.499 . S
C627 H601 0.950 . S
C627 C626 1.414 . S
C627 C628 1.374 . S
C628 H602 0.950 . S
C628 C624 1.385 . S
C628 C627 1.374 . S
C629 C626 1.499 . S
C629 C630 1.373 . S
C629 C631 1.389 1_655 S
C630 H603 0.950 . S
C630 C616 1.377 . S
C630 C629 1.373 . S
C631 C615 1.377 . S
C631 C629 1.389 1_455 S
C631 C632 1.524 . S
C632 C631 1.524 . S
C632 C633 1.397 . S
C632 C637 1.363 . S
C633 H604 0.950 . S
C633 C632 1.397 . S
C633 C634 1.334 . S
C634 H605 0.950 . S
C634 C633 1.334 . S
C634 C635 1.287 . S
C635 C634 1.287 . S
C635 C636 1.524 . S
C635 H638 0.999 . S
C636 H606 0.950 . S
C636 C635 1.524 . S
C636 C637 1.415 . S
C637 H607 0.950 . S
C637 C632 1.363 . S
C637 C636 1.415 . S
H638 C635 0.999 . S
H639 C620 0.913 . S
H640 C658 0.951 . S
H641 C660 0.951 . S
H642 C662 0.936 1_565 S
H643 C663 0.950 . S
H644 C665 0.950 . S
H645 C668 0.950 . S
H646 C669 0.950 . S
H647 C671 0.950 . S
H648 C672 0.950 . S
H649 C673 0.951 . S
H650 C675 0.951 . S
H651 C677 0.936 1_545 S
H652 C678 0.950 . S
H653 C680 0.950 . S
H654 C683 0.950 . S
H655 C684 0.950 . S
H656 C686 0.950 . S
H657 C687 0.950 . S
C658 H640 0.951 . S
C658 C659 1.366 . S
C658 C660 1.388 . S
C659 C658 1.366 . S
C659 C663 1.385 . S
C660 H641 0.951 . S
C660 C658 1.388 . S
C660 C661 1.366 . S
C661 C660 1.366 . S
C661 C662 1.414 . S
C661 C664 1.499 . S
C662 H642 0.936 1_545 S
C662 C661 1.414 . S
C662 C663 1.374 . S
C663 H643 0.950 . S
C663 C659 1.385 . S
C663 C662 1.374 . S
C664 C661 1.499 . S
C664 C665 1.373 1_545 S
C664 C666 1.389 . S
C665 H644 0.950 . S
C665 C664 1.373 1_565 S
C665 C681 1.377 . S
C666 C664 1.389 . S
C666 C667 1.524 . S
C666 C680 1.377 . S
C667 C666 1.524 . S
C667 C668 1.397 . S
C667 C672 1.363 . S
C668 H645 0.950 . S
C668 C667 1.397 . S
C668 C669 1.334 . S
C669 H646 0.950 . S
C669 C668 1.334 . S
C669 C670 1.287 . S
C670 C669 1.287 . S
C670 C671 1.524 . S
C670 H689 0.913 . S
C671 H647 0.950 . S
C671 C670 1.524 . S
C671 C672 1.415 . S
C672 H648 0.950 . S
C672 C667 1.363 . S
C672 C671 1.415 . S
C673 H649 0.951 . S
C673 C674 1.366 . S
C673 C675 1.388 . S
C674 C673 1.366 . S
C674 C678 1.385 . S
C675 H650 0.951 . S
C675 C673 1.388 . S
C675 C676 1.366 . S
C676 C675 1.366 . S
C676 C677 1.414 . S
C676 C679 1.499 . S
C677 H651 0.936 1_565 S
C677 C676 1.414 . S
C677 C678 1.374 . S
C678 H652 0.950 . S
C678 C674 1.385 . S
C678 C677 1.374 . S
C679 C676 1.499 . S
C679 C680 1.373 1_565 S
C679 C681 1.389 . S
C680 H653 0.950 . S
C680 C666 1.377 . S
C680 C679 1.373 1_545 S
C681 C665 1.377 . S
C681 C679 1.389 . S
C681 C682 1.524 . S
C682 C681 1.524 . S
C682 C683 1.397 . S
C682 C687 1.363 . S
C683 H654 0.950 . S
C683 C682 1.397 . S
C683 C684 1.334 . S
C684 H655 0.950 . S
C684 C683 1.334 . S
C684 C685 1.287 . S
C685 C684 1.287 . S
C685 C686 1.524 . S
C685 H688 0.999 . S
C686 H656 0.950 . S
C686 C685 1.524 . S
C686 C687 1.415 . S
C687 H657 0.950 . S
C687 C682 1.363 . S
C687 C686 1.415 . S
H688 C685 0.999 . S
H689 C670 0.913 . S
H690 C708 0.951 . S
H691 C710 0.951 . S
H692 C712 0.950 . S
H693 C713 0.950 . S
H694 C715 0.950 . S
H695 C718 0.950 . S
H696 C719 0.950 . S
H697 C721 0.950 . S
H698 C722 0.950 . S
H699 C723 0.951 . S
H700 C725 0.951 . S
H701 C727 0.950 . S
H702 C728 0.950 . S
H703 C730 0.950 . S
H704 C733 0.950 . S
H705 C734 0.950 . S
H706 C736 0.950 . S
H707 C737 0.950 . S
C708 H690 0.951 . S
C708 C709 1.366 . S
C708 C710 1.388 . S
C709 C708 1.366 . S
C709 C713 1.385 . S
C710 H691 0.951 . S
C710 C708 1.388 . S
C710 C711 1.366 . S
C711 C710 1.366 . S
C711 C712 1.414 . S
C711 C714 1.499 . S
C712 H692 0.950 . S
C712 C711 1.414 . S
C712 C713 1.374 . S
C713 H693 0.950 . S
C713 C709 1.385 . S
C713 C712 1.374 . S
C714 C711 1.499 . S
C714 C715 1.373 . S
C714 C716 1.389 . S
C715 H694 0.950 . S
C715 C714 1.373 . S
C715 C731 1.377 . S
C716 C714 1.389 . S
C716 C717 1.524 . S
C716 C730 1.377 . S
C717 C716 1.524 . S
C717 C718 1.397 . S
C717 C722 1.363 . S
C718 H695 0.950 . S
C718 C717 1.397 . S
C718 C719 1.334 . S
C719 H696 0.950 . S
C719 C718 1.334 . S
C719 C720 1.287 . S
C720 C719 1.287 . S
C720 C721 1.524 . S
C720 H739 0.913 . S
C721 H697 0.950 . S
C721 C720 1.524 . S
C721 C722 1.415 . S
C722 H698 0.950 . S
C722 C717 1.363 . S
C722 C721 1.415 . S
C723 H699 0.951 . S
C723 C724 1.366 . S
C723 C725 1.388 . S
C724 C723 1.366 . S
C724 C728 1.385 . S
C725 H700 0.951 . S
C725 C723 1.388 . S
C725 C726 1.366 . S
C726 C725 1.366 . S
C726 C727 1.414 . S
C726 C729 1.499 . S
C727 H701 0.950 . S
C727 C726 1.414 . S
C727 C728 1.374 . S
C728 H702 0.950 . S
C728 C724 1.385 . S
C728 C727 1.374 . S
C729 C726 1.499 . S
C729 C730 1.373 . S
C729 C731 1.389 . S
C730 H703 0.950 . S
C730 C716 1.377 . S
C730 C729 1.373 . S
C731 C715 1.377 . S
C731 C729 1.389 . S
C731 C732 1.524 . S
C732 C731 1.524 . S
C732 C733 1.397 . S
C732 C737 1.363 . S
C733 H704 0.950 . S
C733 C732 1.397 . S
C733 C734 1.334 . S
C734 H705 0.950 . S
C734 C733 1.334 . S
C734 C735 1.287 . S
C735 C734 1.287 . S
C735 C736 1.524 . S
C735 H738 0.999 . S
C736 H706 0.950 . S
C736 C735 1.524 . S
C736 C737 1.415 . S
C737 H707 0.950 . S
C737 C732 1.363 . S
C737 C736 1.415 . S
H738 C735 0.999 . S
H739 C720 0.913 . S
H740 C758 0.951 . S
H741 C760 0.951 . S
H742 C762 0.950 . S
H743 C763 0.950 . S
H744 C765 0.950 1_556 S
H745 C768 0.950 . S
H746 C769 0.950 . S
H747 C771 0.950 . S
H748 C772 0.950 . S
H749 C773 0.951 . S
H750 C775 0.951 . S
H751 C777 0.950 . S
H752 C778 0.950 . S
H753 C780 0.950 . S
H754 C783 0.950 . S
H755 C784 0.950 . S
H756 C786 0.950 . S
H757 C787 0.962 . S
C758 H740 0.951 . S
C758 C759 1.366 . S
C758 C760 1.388 . S
C759 C758 1.366 . S
C759 C763 1.385 . S
C760 H741 0.951 . S
C760 C758 1.388 . S
C760 C761 1.366 . S
C761 C760 1.366 . S
C761 C762 1.414 . S
C761 C764 1.499 . S
C762 H742 0.950 . S
C762 C761 1.414 . S
C762 C763 1.374 . S
C763 H743 0.950 . S
C763 C759 1.385 . S
C763 C762 1.374 . S
C764 C761 1.499 . S
C764 C765 1.373 1_455 S
C764 C766 1.389 . S
C765 H744 0.950 1_554 S
C765 C764 1.373 1_655 S
C765 C781 1.377 . S
C766 C764 1.389 . S
C766 C767 1.524 . S
C766 C780 1.377 . S
C767 C766 1.524 . S
C767 C768 1.397 . S
C767 C772 1.363 . S
C768 H745 0.950 . S
C768 C767 1.397 . S
C768 C769 1.334 . S
C769 H746 0.950 . S
C769 C768 1.334 . S
C769 C770 1.287 . S
C770 C769 1.287 . S
C770 C771 1.524 . S
C770 H789 0.913 . S
C771 H747 0.950 . S
C771 C770 1.524 . S
C771 C772 1.415 . S
C772 H748 0.950 . S
C772 C767 1.363 . S
C772 C771 1.415 . S
C773 H749 0.951 . S
C773 C774 1.366 . S
C773 C775 1.388 . S
C774 C773 1.366 . S
C774 C778 1.385 . S
C775 H750 0.951 . S
C775 C773 1.388 . S
C775 C776 1.366 . S
C776 C775 1.366 . S
C776 C777 1.414 . S
C776 C779 1.499 . S
C777 H751 0.950 . S
C777 C776 1.414 . S
C777 C778 1.374 . S
C778 H752 0.950 . S
C778 C774 1.385 . S
C778 C777 1.374 . S
C779 C776 1.499 . S
C779 C780 1.373 1_655 S
C779 C781 1.389 . S
C780 H753 0.950 . S
C780 C766 1.377 . S
C780 C779 1.373 1_455 S
C781 C765 1.377 . S
C781 C779 1.389 . S
C781 C782 1.524 1_554 S
C782 C781 1.524 1_556 S
C782 C783 1.397 . S
C782 C787 1.363 . S
C783 H754 0.950 . S
C783 C782 1.397 . S
C783 C784 1.334 . S
C784 H755 0.950 . S
C784 C783 1.334 . S
C784 C785 1.287 . S
C785 C784 1.287 . S
C785 C786 1.524 . S
C785 H788 0.999 . S
C786 H756 0.950 . S
C786 C785 1.524 . S
C786 C787 1.415 . S
C787 H757 0.962 . S
C787 C782 1.363 . S
C787 C786 1.415 . S
H788 C785 0.999 . S
H789 C770 0.913 . S
H790 C808 0.951 . S
H791 C810 0.951 . S
H792 C812 0.950 . S
H793 C813 0.950 . S
H794 C815 0.950 . S
H795 C818 0.950 . S
H796 C819 0.950 . S
H797 C821 0.950 . S
H798 C822 0.950 . S
H799 C823 0.951 . S
H800 C825 0.951 . S
H801 C827 0.950 . S
H802 C828 0.950 . S
H803 C830 0.950 . S
H804 C833 0.950 . S
H805 C834 0.950 . S
H806 C836 0.950 . S
H807 C837 0.950 . S
C808 H790 0.951 . S
C808 C809 1.366 . S
C808 C810 1.388 . S
C809 C808 1.366 . S
C809 C813 1.385 . S
C810 H791 0.951 . S
C810 C808 1.388 . S
C810 C811 1.366 . S
C811 C810 1.366 . S
C811 C812 1.414 . S
C811 C814 1.499 . S
C812 H792 0.950 . S
C812 C811 1.414 . S
C812 C813 1.374 . S
C813 H793 0.950 . S
C813 C809 1.385 . S
C813 C812 1.374 . S
C814 C811 1.499 . S
C814 C815 1.373 1_565 S
C814 C816 1.389 . S
C815 H794 0.950 . S
C815 C814 1.373 1_545 S
C815 C831 1.377 . S
C816 C814 1.389 . S
C816 C817 1.524 . S
C816 C830 1.377 . S
C817 C816 1.524 . S
C817 C818 1.397 . S
C817 C822 1.363 . S
C818 H795 0.950 . S
C818 C817 1.397 . S
C818 C819 1.334 . S
C819 H796 0.950 . S
C819 C818 1.334 . S
C819 C820 1.287 . S
C820 C819 1.287 . S
C820 C821 1.524 . S
C820 H839 0.913 . S
C821 H797 0.950 . S
C821 C820 1.524 . S
C821 C822 1.415 . S
C822 H798 0.950 . S
C822 C817 1.363 . S
C822 C821 1.415 . S
C823 H799 0.951 . S
C823 C824 1.366 . S
C823 C825 1.388 . S
C824 C823 1.366 . S
C824 C828 1.385 . S
C825 H800 0.951 . S
C825 C823 1.388 . S
C825 C826 1.366 . S
C826 C825 1.366 . S
C826 C827 1.414 . S
C826 C829 1.499 . S
C827 H801 0.950 . S
C827 C826 1.414 . S
C827 C828 1.374 . S
C828 H802 0.950 . S
C828 C824 1.385 . S
C828 C827 1.374 . S
C829 C826 1.499 . S
C829 C830 1.373 1_545 S
C829 C831 1.389 . S
C830 H803 0.950 . S
C830 C816 1.377 . S
C830 C829 1.373 1_565 S
C831 C815 1.377 . S
C831 C829 1.389 . S
C831 C832 1.524 . S
C832 C831 1.524 . S
C832 C833 1.397 . S
C832 C837 1.363 . S
C833 H804 0.950 . S
C833 C832 1.397 . S
C833 C834 1.334 . S
C834 H805 0.950 . S
C834 C833 1.334 . S
C834 C835 1.287 . S
C835 C834 1.287 . S
C835 C836 1.524 . S
C835 H838 0.999 . S
C836 H806 0.950 . S
C836 C835 1.524 . S
C836 C837 1.415 . S
C837 H807 0.950 . S
C837 C832 1.363 . S
C837 C836 1.415 . S
H838 C835 0.999 . S
H839 C820 0.913 . S
H840 C858 0.951 . S
H841 C860 0.951 . S
H842 C862 0.950 . S
H843 C863 0.950 . S
H844 C865 0.950 . S
H845 C868 0.950 . S
H846 C869 0.950 . S
H847 C871 0.950 . S
H848 C872 0.950 . S
H849 C873 0.951 . S
H850 C875 0.951 . S
H851 C877 0.950 . S
H852 C878 0.950 . S
H853 C880 0.950 . S
H854 C883 0.950 . S
H855 C884 0.950 . S
H856 C886 0.950 . S
H857 C887 0.950 . S
C858 H840 0.951 . S
C858 C859 1.366 . S
C858 C860 1.388 . S
C859 C858 1.366 . S
C859 C863 1.385 . S
C860 H841 0.951 . S
C860 C858 1.388 . S
C860 C861 1.366 . S
C861 C860 1.366 . S
C861 C862 1.414 . S
C861 C864 1.499 . S
C862 H842 0.950 . S
C862 C861 1.414 . S
C862 C863 1.374 . S
C863 H843 0.950 . S
C863 C859 1.385 . S
C863 C862 1.374 . S
C864 C861 1.499 . S
C864 C865 1.373 . S
C864 C866 1.389 . S
C865 H844 0.950 . S
C865 C864 1.373 . S
C865 C881 1.377 . S
C866 C864 1.389 . S
C866 C867 1.524 . S
C866 C880 1.377 . S
C867 C866 1.524 . S
C867 C868 1.397 . S
C867 C872 1.363 . S
C868 H845 0.950 . S
C868 C867 1.397 . S
C868 C869 1.334 . S
C869 H846 0.950 . S
C869 C868 1.334 . S
C869 C870 1.287 . S
C870 C869 1.287 . S
C870 C871 1.524 . S
C870 H889 0.913 . S
C871 H847 0.950 . S
C871 C870 1.524 . S
C871 C872 1.415 . S
C872 H848 0.950 . S
C872 C867 1.363 . S
C872 C871 1.415 . S
C873 H849 0.951 . S
C873 C874 1.366 . S
C873 C875 1.388 . S
C874 C873 1.366 . S
C874 C878 1.385 . S
C875 H850 0.951 . S
C875 C873 1.388 . S
C875 C876 1.366 . S
C876 C875 1.366 . S
C876 C877 1.414 . S
C876 C879 1.499 . S
C877 H851 0.950 . S
C877 C876 1.414 . S
C877 C878 1.374 . S
C878 H852 0.950 . S
C878 C874 1.385 . S
C878 C877 1.374 . S
C879 C876 1.499 . S
C879 C880 1.373 . S
C879 C881 1.389 . S
C880 H853 0.950 . S
C880 C866 1.377 . S
C880 C879 1.373 . S
C881 C865 1.377 . S
C881 C879 1.389 . S
C881 C882 1.524 . S
C882 C881 1.524 . S
C882 C883 1.397 . S
C882 C887 1.363 . S
C883 H854 0.950 . S
C883 C882 1.397 . S
C883 C884 1.334 . S
C884 H855 0.950 . S
C884 C883 1.334 . S
C884 C885 1.287 . S
C885 C884 1.287 . S
C885 C886 1.524 . S
C885 H888 0.999 . S
C886 H856 0.950 . S
C886 C885 1.524 . S
C886 C887 1.415 . S
C887 H857 0.950 . S
C887 C882 1.363 . S
C887 C886 1.415 . S
H888 C885 0.999 . S
H889 C870 0.913 . S
H890 C908 0.951 . S
H891 C910 0.951 . S
H892 C912 0.950 . S
H893 C913 0.950 . S
H894 C915 0.950 . S
H895 C918 0.950 . S
H896 C919 0.950 . S
H897 C921 0.950 . S
H898 C922 0.950 . S
H899 C923 0.951 . S
H900 C925 0.951 . S
H901 C927 0.950 . S
H902 C928 0.950 . S
H903 C930 0.950 . S
H904 C933 0.950 . S
H905 C934 0.950 . S
H906 C936 0.950 . S
H907 C937 0.950 . S
C908 H890 0.951 . S
C908 C909 1.366 . S
C908 C910 1.388 1_655 S
C909 C908 1.366 . S
C909 C913 1.385 . S
C910 H891 0.951 . S
C910 C908 1.388 1_455 S
C910 C911 1.366 . S
C911 C910 1.366 . S
C911 C912 1.414 1_455 S
C911 C914 1.499 . S
C912 H892 0.950 . S
C912 C911 1.414 1_655 S
C912 C913 1.374 . S
C913 H893 0.950 . S
C913 C909 1.385 . S
C913 C912 1.374 . S
C914 C911 1.499 . S
C914 C915 1.373 . S
C914 C916 1.389 . S
C915 H894 0.950 . S
C915 C914 1.373 . S
C915 C931 1.377 . S
C916 C914 1.389 . S
C916 C917 1.524 1_455 S
C916 C930 1.377 . S
C917 C916 1.524 1_655 S
C917 C918 1.397 . S
C917 C922 1.363 1_655 S
C918 H895 0.950 . S
C918 C917 1.397 . S
C918 C919 1.334 . S
C919 H896 0.950 . S
C919 C918 1.334 . S
C919 C920 1.287 . S
C920 C919 1.287 . S
C920 C921 1.524 . S
C920 H939 0.913 . S
C921 H897 0.950 . S
C921 C920 1.524 . S
C921 C922 1.415 1_655 S
C922 H898 0.950 . S
C922 C917 1.363 1_455 S
C922 C921 1.415 1_455 S
C923 H899 0.951 . S
C923 C924 1.366 . S
C923 C925 1.388 . S
C924 C923 1.366 . S
C924 C928 1.385 . S
C925 H900 0.951 . S
C925 C923 1.388 . S
C925 C926 1.366 . S
C926 C925 1.366 . S
C926 C927 1.414 . S
C926 C929 1.499 . S
C927 H901 0.950 . S
C927 C926 1.414 . S
C927 C928 1.374 . S
C928 H902 0.950 . S
C928 C924 1.385 . S
C928 C927 1.374 . S
C929 C926 1.499 . S
C929 C930 1.373 . S
C929 C931 1.389 . S
C930 H903 0.950 . S
C930 C916 1.377 . S
C930 C929 1.373 . S
C931 C915 1.377 . S
C931 C929 1.389 . S
C931 C932 1.524 . S
C932 C931 1.524 . S
C932 C933 1.397 . S
C932 C937 1.363 . S
C933 H904 0.950 . S
C933 C932 1.397 . S
C933 C934 1.334 . S
C934 H905 0.950 . S
C934 C933 1.334 . S
C934 C935 1.287 . S
C935 C934 1.287 . S
C935 C936 1.524 . S
C935 H938 0.999 . S
C936 H906 0.950 . S
C936 C935 1.524 . S
C936 C937 1.415 . S
C937 H907 0.950 . S
C937 C932 1.363 . S
C937 C936 1.415 . S
H938 C935 0.999 . S
H939 C920 0.913 . S
H940 C958 0.951 . S
H941 C960 0.951 . S
H942 C962 0.950 . S
H943 C963 0.950 . S
H944 C965 0.950 . S
H945 C968 0.950 . S
H946 C969 0.950 . S
H947 C971 0.950 . S
H948 C972 0.950 . S
H949 C973 0.951 . S
H950 C975 0.951 . S
H951 C977 0.950 . S
H952 C978 0.950 . S
H953 C980 0.950 . S
H954 C983 0.950 . S
H955 C984 0.950 . S
H956 C986 0.950 . S
H957 C987 0.950 . S
C958 H940 0.951 . S
C958 C959 1.366 . S
C958 C960 1.388 . S
C959 C958 1.366 . S
C959 C963 1.385 1_565 S
C960 H941 0.951 . S
C960 C958 1.388 . S
C960 C961 1.366 1_565 S
C961 C960 1.366 1_545 S
C961 C962 1.414 . S
C961 C964 1.499 . S
C962 H942 0.950 . S
C962 C961 1.414 . S
C962 C963 1.374 . S
C963 H943 0.950 . S
C963 C959 1.385 1_545 S
C963 C962 1.374 . S
C964 C961 1.499 . S
C964 C965 1.373 . S
C964 C966 1.389 . S
C965 H944 0.950 . S
C965 C964 1.373 . S
C965 C981 1.377 . S
C966 C964 1.389 . S
C966 C967 1.524 1_545 S
C966 C980 1.377 . S
C967 C966 1.524 1_565 S
C967 C968 1.397 . S
C967 C972 1.363 . S
C968 H945 0.950 . S
C968 C967 1.397 . S
C968 C969 1.334 . S
C969 H946 0.950 . S
C969 C968 1.334 . S
C969 C970 1.287 . S
C970 C969 1.287 . S
C970 C971 1.524 . S
C970 H989 0.913 . S
C971 H947 0.950 . S
C971 C970 1.524 . S
C971 C972 1.415 . S
C972 H948 0.950 . S
C972 C967 1.363 . S
C972 C971 1.415 . S
C973 H949 0.951 . S
C973 C974 1.366 . S
C973 C975 1.388 . S
C974 C973 1.366 . S
C974 C978 1.385 . S
C975 H950 0.951 . S
C975 C973 1.388 . S
C975 C976 1.366 . S
C976 C975 1.366 . S
C976 C977 1.414 . S
C976 C979 1.499 . S
C977 H951 0.950 . S
C977 C976 1.414 . S
C977 C978 1.374 . S
C978 H952 0.950 . S
C978 C974 1.385 . S
C978 C977 1.374 . S
C979 C976 1.499 . S
C979 C980 1.373 . S
C979 C981 1.389 . S
C980 H953 0.950 . S
C980 C966 1.377 . S
C980 C979 1.373 . S
C981 C965 1.377 . S
C981 C979 1.389 . S
C981 C982 1.524 . S
C982 C981 1.524 . S
C982 C983 1.397 . S
C982 C987 1.363 . S
C983 H954 0.950 . S
C983 C982 1.397 . S
C983 C984 1.334 . S
C984 H955 0.950 . S
C984 C983 1.334 . S
C984 C985 1.287 . S
C985 C984 1.287 . S
C985 C986 1.524 . S
C985 H988 0.999 . S
C986 H956 0.950 . S
C986 C985 1.524 . S
C986 C987 1.415 . S
C987 H957 0.950 . S
C987 C982 1.363 . S
C987 C986 1.415 . S
H988 C985 0.999 . S
H989 C970 0.913 . S
H990 C1008 0.951 . S
H991 C1010 0.951 . S
H992 C1012 0.950 . S
H993 C1013 0.950 . S
H994 C1015 0.950 . S
H995 C1018 0.950 . S
H996 C1019 0.950 . S
H997 C1021 0.950 . S
H998 C1022 0.950 . S
H999 C1023 0.951 . S
H1000 C1025 0.951 . S
H1001 C1027 0.950 . S
H1002 C1028 0.950 . S
H1003 C1030 0.950 . S
H1004 C1033 0.950 . S
H1005 C1034 0.950 . S
H1006 C1036 0.950 . S
H1007 C1037 0.950 . S
C1008 H990 0.951 . S
C1008 C1009 1.366 . S
C1008 C1010 1.388 . S
C1009 C1008 1.366 . S
C1009 C1013 1.385 . S
C1010 H991 0.951 . S
C1010 C1008 1.388 . S
C1010 C1011 1.366 . S
C1011 C1010 1.366 . S
C1011 C1012 1.414 . S
C1011 C1014 1.499 . S
C1012 H992 0.950 . S
C1012 C1011 1.414 . S
C1012 C1013 1.374 . S
C1013 H993 0.950 . S
C1013 C1009 1.385 . S
C1013 C1012 1.374 . S
C1014 C1011 1.499 . S
C1014 C1015 1.373 . S
C1014 C1016 1.389 . S
C1015 H994 0.950 . S
C1015 C1014 1.373 . S
C1015 C1031 1.377 . S
C1016 C1014 1.389 . S
C1016 C1017 1.524 . S
C1016 C1030 1.377 . S
C1017 C1016 1.524 . S
C1017 C1018 1.397 . S
C1017 C1022 1.363 . S
C1018 H995 0.950 . S
C1018 C1017 1.397 . S
C1018 C1019 1.334 . S
C1019 H996 0.950 . S
C1019 C1018 1.334 . S
C1019 C1020 1.287 . S
C1020 C1019 1.287 . S
C1020 C1021 1.524 . S
C1020 H1039 0.913 . S
C1021 H997 0.950 . S
C1021 C1020 1.524 . S
C1021 C1022 1.415 . S
C1022 H998 0.950 . S
C1022 C1017 1.363 . S
C1022 C1021 1.415 . S
C1023 H999 0.951 . S
C1023 C1024 1.366 . S
C1023 C1025 1.388 . S
C1024 C1023 1.366 . S
C1024 C1028 1.385 . S
C1025 H1000 0.951 . S
C1025 C1023 1.388 . S
C1025 C1026 1.366 . S
C1026 C1025 1.366 . S
C1026 C1027 1.414 . S
C1026 C1029 1.499 . S
C1027 H1001 0.950 . S
C1027 C1026 1.414 . S
C1027 C1028 1.374 . S
C1028 H1002 0.950 . S
C1028 C1024 1.385 . S
C1028 C1027 1.374 . S
C1029 C1026 1.499 . S
C1029 C1030 1.373 . S
C1029 C1031 1.389 . S
C1030 H1003 0.950 . S
C1030 C1016 1.377 . S
C1030 C1029 1.373 . S
C1031 C1015 1.377 . S
C1031 C1029 1.389 . S
C1031 C1032 1.524 . S
C1032 C1031 1.524 . S
C1032 C1033 1.397 . S
C1032 C1037 1.363 . S
C1033 H1004 0.950 . S
C1033 C1032 1.397 . S
C1033 C1034 1.334 . S
C1034 H1005 0.950 . S
C1034 C1033 1.334 . S
C1034 C1035 1.287 . S
C1035 C1034 1.287 . S
C1035 C1036 1.524 . S
C1035 H1038 0.999 . S
C1036 H1006 0.950 . S
C1036 C1035 1.524 . S
C1036 C1037 1.415 . S
C1037 H1007 0.950 . S
C1037 C1032 1.363 . S
C1037 C1036 1.415 . S
H1038 C1035 0.999 . S
H1039 C1020 0.913 . S
H1040 C1058 0.951 . S
H1041 C1060 0.951 . S
H1042 C1062 0.950 . S
H1043 C1063 0.950 . S
H1044 C1065 0.950 . S
H1045 C1068 0.950 . S
H1046 C1069 0.950 . S
H1047 C1071 0.950 . S
H1048 C1072 0.950 . S
H1049 C1073 0.951 . S
H1050 C1075 0.951 . S
H1051 C1077 0.950 . S
H1052 C1078 0.950 . S
H1053 C1080 0.950 . S
H1054 C1083 0.950 . S
H1055 C1084 0.950 . S
H1056 C1086 0.950 . S
H1057 C1087 0.950 . S
C1058 H1040 0.951 . S
C1058 C1059 1.366 . S
C1058 C1060 1.388 1_455 S
C1059 C1058 1.366 . S
C1059 C1063 1.385 . S
C1060 H1041 0.951 . S
C1060 C1058 1.388 1_655 S
C1060 C1061 1.366 . S
C1061 C1060 1.366 . S
C1061 C1062 1.414 1_655 S
C1061 C1064 1.499 . S
C1062 H1042 0.950 . S
C1062 C1061 1.414 1_455 S
C1062 C1063 1.374 . S
C1063 H1043 0.950 . S
C1063 C1059 1.385 . S
C1063 C1062 1.374 . S
C1064 C1061 1.499 . S
C1064 C1065 1.373 . S
C1064 C1066 1.389 . S
C1065 H1044 0.950 . S
C1065 C1064 1.373 . S
C1065 C1081 1.377 . S
C1066 C1064 1.389 . S
C1066 C1067 1.524 1_655 S
C1066 C1080 1.377 . S
C1067 C1066 1.524 1_455 S
C1067 C1068 1.397 . S
C1067 C1072 1.363 1_455 S
C1068 H1045 0.950 . S
C1068 C1067 1.397 . S
C1068 C1069 1.334 . S
C1069 H1046 0.950 . S
C1069 C1068 1.334 . S
C1069 C1070 1.287 . S
C1070 C1069 1.287 . S
C1070 C1071 1.524 . S
C1070 H1089 0.913 . S
C1071 H1047 0.950 . S
C1071 C1070 1.524 . S
C1071 C1072 1.415 1_455 S
C1072 H1048 0.950 . S
C1072 C1067 1.363 1_655 S
C1072 C1071 1.415 1_655 S
C1073 H1049 0.951 . S
C1073 C1074 1.366 . S
C1073 C1075 1.388 . S
C1074 C1073 1.366 . S
C1074 C1078 1.385 . S
C1075 H1050 0.951 . S
C1075 C1073 1.388 . S
C1075 C1076 1.366 . S
C1076 C1075 1.366 . S
C1076 C1077 1.414 . S
C1076 C1079 1.499 . S
C1077 H1051 0.950 . S
C1077 C1076 1.414 . S
C1077 C1078 1.374 . S
C1078 H1052 0.950 . S
C1078 C1074 1.385 . S
C1078 C1077 1.374 . S
C1079 C1076 1.499 . S
C1079 C1080 1.373 . S
C1079 C1081 1.389 . S
C1080 H1053 0.950 . S
C1080 C1066 1.377 . S
C1080 C1079 1.373 . S
C1081 C1065 1.377 . S
C1081 C1079 1.389 . S
C1081 C1082 1.524 . S
C1082 C1081 1.524 . S
C1082 C1083 1.397 . S
C1082 C1087 1.363 . S
C1083 H1054 0.950 . S
C1083 C1082 1.397 . S
C1083 C1084 1.334 . S
C1084 H1055 0.950 . S
C1084 C1083 1.334 . S
C1084 C1085 1.287 . S
C1085 C1084 1.287 . S
C1085 C1086 1.524 . S
C1085 H1088 0.999 . S
C1086 H1056 0.950 . S
C1086 C1085 1.524 . S
C1086 C1087 1.415 . S
C1087 H1057 0.950 . S
C1087 C1082 1.363 . S
C1087 C1086 1.415 . S
H1088 C1085 0.999 . S
H1089 C1070 0.913 . S
H1090 C1108 0.951 . S
H1091 C1110 0.951 . S
H1092 C1112 0.950 . S
H1093 C1113 0.950 . S
H1094 C1115 0.950 . S
H1095 C1118 0.950 . S
H1096 C1119 0.950 . S
H1097 C1121 0.950 . S
H1098 C1122 0.950 1_565 S
H1099 C1123 0.951 . S
H1100 C1125 0.951 . S
H1101 C1127 0.950 . S
H1102 C1128 0.950 . S
H1103 C1130 0.950 . S
H1104 C1133 0.950 . S
H1105 C1134 0.950 . S
H1106 C1136 0.950 . S
H1107 C1137 0.950 . S
C1108 H1090 0.951 . S
C1108 C1109 1.366 . S
C1108 C1110 1.388 1_545 S
C1109 C1108 1.366 . S
C1109 C1113 1.385 . S
C1110 H1091 0.951 . S
C1110 C1108 1.388 1_565 S
C1110 C1111 1.366 . S
C1111 C1110 1.366 . S
C1111 C1112 1.414 1_565 S
C1111 C1114 1.499 . S
C1112 H1092 0.950 . S
C1112 C1111 1.414 1_545 S
C1112 C1113 1.374 . S
C1113 H1093 0.950 . S
C1113 C1109 1.385 . S
C1113 C1112 1.374 . S
C1114 C1111 1.499 . S
C1114 C1115 1.373 . S
C1114 C1116 1.389 . S
C1115 H1094 0.950 . S
C1115 C1114 1.373 . S
C1115 C1131 1.377 . S
C1116 C1114 1.389 . S
C1116 C1117 1.524 1_565 S
C1116 C1130 1.377 . S
C1117 C1116 1.524 1_545 S
C1117 C1118 1.397 . S
C1117 C1122 1.363 . S
C1118 H1095 0.950 . S
C1118 C1117 1.397 . S
C1118 C1119 1.334 . S
C1119 H1096 0.950 . S
C1119 C1118 1.334 . S
C1119 C1120 1.287 . S
C1120 C1119 1.287 . S
C1120 C1121 1.524 . S
C1120 H1139 0.913 . S
C1121 H1097 0.950 . S
C1121 C1120 1.524 . S
C1121 C1122 1.415 . S
C1122 H1098 0.950 1_545 S
C1122 C1117 1.363 . S
C1122 C1121 1.415 . S
C1123 H1099 0.951 . S
C1123 C1124 1.366 . S
C1123 C1125 1.388 . S
C1124 C1123 1.366 . S
C1124 C1128 1.385 . S
C1125 H1100 0.951 . S
C1125 C1123 1.388 . S
C1125 C1126 1.366 . S
C1126 C1125 1.366 . S
C1126 C1127 1.414 . S
C1126 C1129 1.499 . S
C1127 H1101 0.950 . S
C1127 C1126 1.414 . S
C1127 C1128 1.374 . S
C1128 H1102 0.950 . S
C1128 C1124 1.385 . S
C1128 C1127 1.374 . S
C1129 C1126 1.499 . S
C1129 C1130 1.373 . S
C1129 C1131 1.389 . S
C1130 H1103 0.950 . S
C1130 C1116 1.377 . S
C1130 C1129 1.373 . S
C1131 C1115 1.377 . S
C1131 C1129 1.389 . S
C1131 C1132 1.524 . S
C1132 C1131 1.524 . S
C1132 C1133 1.397 . S
C1132 C1137 1.363 . S
C1133 H1104 0.950 . S
C1133 C1132 1.397 . S
C1133 C1134 1.334 . S
C1134 H1105 0.950 . S
C1134 C1133 1.334 . S
C1134 C1135 1.287 . S
C1135 C1134 1.287 . S
C1135 C1136 1.524 . S
C1135 H1138 0.999 1_455 S
C1136 H1106 0.950 . S
C1136 C1135 1.524 . S
C1136 C1137 1.415 . S
C1137 H1107 0.950 . S
C1137 C1132 1.363 . S
C1137 C1136 1.415 . S
H1138 C1135 0.999 1_655 S
H1139 C1120 0.913 . S
C259 C169 1.098 . S
C274 C15 1.099 . S
C309 C209 1.098 . S
C324 C55 1.099 . S
C359 C9 1.098 . S
C374 C95 1.099 . S
C409 C49 1.098 . S
C424 C135 1.099 . S
C459 C89 1.098 . S
C474 C175 1.099 . S
C509 C129 1.098 . S
C524 C215 1.099 . S
C559 C18 0.656 . S
C574 C138 0.656 . S
C609 C178 0.653 . S
C624 C58 0.653 . S
C659 C218 0.656 . S
C674 C98 0.656 . S
C709 C88 0.628 . S
C724 C208 0.628 . S
C759 C8 0.630 . S
C774 C128 0.630 . S
C809 C168 0.629 . S
C824 C48 0.629 . S
C859 C219 1.100 . S
C874 C5 1.088 . S
C909 C45 1.088 . S
C924 C19 1.100 . S
C959 C85 1.087 . S
C974 C59 1.100 . S
C1009 C99 1.100 . S
C1024 C125 1.088 . S
C1059 C165 1.088 . S
C1074 C139 1.100 . S
C1109 C205 1.088 . S
C1124 C179 1.100 . S
