# Generated by pormake.
# Topology smd, (6)-cn, num edge types: 1
# Building blocks:
#     Node 0, Type 0, BuildingBlock: OJICUG_clean_sbu_0, # of connection points: 6
#     Node 1, Type 0, BuildingBlock: OJICUG_clean_sbu_0, # of connection points: 6
#     Node 2, Type 0, BuildingBlock: OJICUG_clean_sbu_0, # of connection points: 6
#     Node 3, Type 0, BuildingBlock: OJICUG_clean_sbu_0, # of connection points: 6
#     Node 4, Type 0, BuildingBlock: OJICUG_clean_sbu_0, # of connection points: 6
#     Node 5, Type 0, BuildingBlock: OJICUG_clean_sbu_0, # of connection points: 6
#     Node 6, Type 0, BuildingBlock: OJICUG_clean_sbu_0, # of connection points: 6
#     Node 7, Type 0, BuildingBlock: OJICUG_clean_sbu_0, # of connection points: 6
#     Node 8, Type 0, BuildingBlock: OJICUG_clean_sbu_0, # of connection points: 6
#     Node 9, Type 0, BuildingBlock: OJICUG_clean_sbu_0, # of connection points: 6
#     Node 10, Type 0, BuildingBlock: OJICUG_clean_sbu_0, # of connection points: 6
#     Node 11, Type 0, BuildingBlock: OJICUG_clean_sbu_0, # of connection points: 6
#     Node 12, Type 0, BuildingBlock: OJICUG_clean_sbu_0, # of connection points: 6
#     Node 13, Type 0, BuildingBlock: OJICUG_clean_sbu_0, # of connection points: 6
#     Node 14, Type 0, BuildingBlock: OJICUG_clean_sbu_0, # of connection points: 6
#     Node 15, Type 0, BuildingBlock: OJICUG_clean_sbu_0, # of connection points: 6
#     Node 16, Type 0, BuildingBlock: OJICUG_clean_sbu_0, # of connection points: 6
#     Node 17, Type 0, BuildingBlock: OJICUG_clean_sbu_0, # of connection points: 6
#     Edge 18, Type (0, 0), BuildingBlock: UVAHIK_clean_linker_0, # of connection points: 2
#     Edge 19, Type (0, 0), BuildingBlock: UVAHIK_clean_linker_0, # of connection points: 2
#     Edge 20, Type (0, 0), BuildingBlock: UVAHIK_clean_linker_0, # of connection points: 2
#     Edge 21, Type (0, 0), BuildingBlock: UVAHIK_clean_linker_0, # of connection points: 2
#     Edge 22, Type (0, 0), BuildingBlock: UVAHIK_clean_linker_0, # of connection points: 2
#     Edge 23, Type (0, 0), BuildingBlock: UVAHIK_clean_linker_0, # of connection points: 2
#     Edge 24, Type (0, 0), BuildingBlock: UVAHIK_clean_linker_0, # of connection points: 2
#     Edge 25, Type (0, 0), BuildingBlock: UVAHIK_clean_linker_0, # of connection points: 2
#     Edge 26, Type (0, 0), BuildingBlock: UVAHIK_clean_linker_0, # of connection points: 2
#     Edge 27, Type (0, 0), BuildingBlock: UVAHIK_clean_linker_0, # of connection points: 2
#     Edge 28, Type (0, 0), BuildingBlock: UVAHIK_clean_linker_0, # of connection points: 2
#     Edge 29, Type (0, 0), BuildingBlock: UVAHIK_clean_linker_0, # of connection points: 2
#     Edge 30, Type (0, 0), BuildingBlock: UVAHIK_clean_linker_0, # of connection points: 2
#     Edge 31, Type (0, 0), BuildingBlock: UVAHIK_clean_linker_0, # of connection points: 2
#     Edge 32, Type (0, 0), BuildingBlock: UVAHIK_clean_linker_0, # of connection points: 2
#     Edge 33, Type (0, 0), BuildingBlock: UVAHIK_clean_linker_0, # of connection points: 2
#     Edge 34, Type (0, 0), BuildingBlock: UVAHIK_clean_linker_0, # of connection points: 2
#     Edge 35, Type (0, 0), BuildingBlock: UVAHIK_clean_linker_0, # of connection points: 2
#     Edge 36, Type (0, 0), BuildingBlock: UVAHIK_clean_linker_0, # of connection points: 2
#     Edge 37, Type (0, 0), BuildingBlock: UVAHIK_clean_linker_0, # of connection points: 2
#     Edge 38, Type (0, 0), BuildingBlock: UVAHIK_clean_linker_0, # of connection points: 2
#     Edge 39, Type (0, 0), BuildingBlock: UVAHIK_clean_linker_0, # of connection points: 2
#     Edge 40, Type (0, 0), BuildingBlock: UVAHIK_clean_linker_0, # of connection points: 2
#     Edge 41, Type (0, 0), BuildingBlock: UVAHIK_clean_linker_0, # of connection points: 2
#     Edge 42, Type (0, 0), BuildingBlock: UVAHIK_clean_linker_0, # of connection points: 2
#     Edge 43, Type (0, 0), BuildingBlock: UVAHIK_clean_linker_0, # of connection points: 2
#     Edge 44, Type (0, 0), BuildingBlock: UVAHIK_clean_linker_0, # of connection points: 2
#     Edge 45, Type (0, 0), BuildingBlock: UVAHIK_clean_linker_0, # of connection points: 2
#     Edge 46, Type (0, 0), BuildingBlock: UVAHIK_clean_linker_0, # of connection points: 2
#     Edge 47, Type (0, 0), BuildingBlock: UVAHIK_clean_linker_0, # of connection points: 2
#     Edge 48, Type (0, 0), BuildingBlock: UVAHIK_clean_linker_0, # of connection points: 2
#     Edge 49, Type (0, 0), BuildingBlock: UVAHIK_clean_linker_0, # of connection points: 2
#     Edge 50, Type (0, 0), BuildingBlock: UVAHIK_clean_linker_0, # of connection points: 2
#     Edge 51, Type (0, 0), BuildingBlock: UVAHIK_clean_linker_0, # of connection points: 2
#     Edge 52, Type (0, 0), BuildingBlock: UVAHIK_clean_linker_0, # of connection points: 2
#     Edge 53, Type (0, 0), BuildingBlock: UVAHIK_clean_linker_0, # of connection points: 2
#     Edge 54, Type (0, 0), BuildingBlock: UVAHIK_clean_linker_0, # of connection points: 2
#     Edge 55, Type (0, 0), BuildingBlock: UVAHIK_clean_linker_0, # of connection points: 2
#     Edge 56, Type (0, 0), BuildingBlock: UVAHIK_clean_linker_0, # of connection points: 2
#     Edge 57, Type (0, 0), BuildingBlock: UVAHIK_clean_linker_0, # of connection points: 2
#     Edge 58, Type (0, 0), BuildingBlock: UVAHIK_clean_linker_0, # of connection points: 2
#     Edge 59, Type (0, 0), BuildingBlock: UVAHIK_clean_linker_0, # of connection points: 2
#     Edge 60, Type (0, 0), BuildingBlock: UVAHIK_clean_linker_0, # of connection points: 2
#     Edge 61, Type (0, 0), BuildingBlock: UVAHIK_clean_linker_0, # of connection points: 2
#     Edge 62, Type (0, 0), BuildingBlock: UVAHIK_clean_linker_0, # of connection points: 2
#     Edge 63, Type (0, 0), BuildingBlock: UVAHIK_clean_linker_0, # of connection points: 2
#     Edge 64, Type (0, 0), BuildingBlock: UVAHIK_clean_linker_0, # of connection points: 2
#     Edge 65, Type (0, 0), BuildingBlock: UVAHIK_clean_linker_0, # of connection points: 2
#     Edge 66, Type (0, 0), BuildingBlock: UVAHIK_clean_linker_0, # of connection points: 2
#     Edge 67, Type (0, 0), BuildingBlock: UVAHIK_clean_linker_0, # of connection points: 2
#     Edge 68, Type (0, 0), BuildingBlock: UVAHIK_clean_linker_0, # of connection points: 2
#     Edge 69, Type (0, 0), BuildingBlock: UVAHIK_clean_linker_0, # of connection points: 2
#     Edge 70, Type (0, 0), BuildingBlock: UVAHIK_clean_linker_0, # of connection points: 2
#     Edge 71, Type (0, 0), BuildingBlock: UVAHIK_clean_linker_0, # of connection points: 2
# Relax obj value: 0.160
# Max RMSD: 0.216
# Mean RMSD: 0.216
data_MOF--net-smd--node1-OJICUG_clean_sbu_0--edge1-UVAHIK_clean_linker_0
_symmetry_space_group_name_H-M    P1
_symmetry_Int_Tables_number       1
_symmetry_cell_setting            triclinic
loop_
_symmetry_equiv_pos_as_xyz
'x, y, z'
_cell_length_a     96.684644
_cell_length_b     96.657975
_cell_length_c     20.220527
_cell_angle_alpha  89.978426
_cell_angle_beta   89.956609
_cell_angle_gamma 119.9694
loop_
_atom_site_label
_atom_site_type_symbol
_atom_site_fract_x
_atom_site_fract_y
_atom_site_fract_z
_atom_type_partial_charge
Sc0 Sc -0.0083 0.2284 0.4583 0.0
Sc1 Sc 0.00597 0.20304 0.50953 0.0
Sc2 Sc 0.02542 0.24314 0.56193 0.0
O3 O 0.00772 0.22487 0.50988 0.0
C4 C 0.0242 0.26145 0.43468 0.0
C5 C -0.00118 0.20743 0.35774 0.0
C6 C 0.0435 0.22601 0.50171 0.0
C7 C 0.96947 0.19331 0.51519 0.0
C8 C -0.00469 0.24769 0.58939 0.0
C9 C 0.0147 0.21386 0.66108 0.0
O10 O 0.00957 0.25166 0.42278 0.0
O11 O 0.00265 0.20068 0.40265 0.0
O12 O 0.04347 0.23786 0.52867 0.0
O13 O 0.97149 0.20596 0.4874 0.0
O14 O 0.00959 0.251 0.60075 0.0
O15 O 0.00907 0.20317 0.61621 0.0
O16 O 0.98699 0.23889 0.54191 0.0
O17 O 0.98087 0.1908 0.52788 0.0
O18 O 0.02077 0.22866 0.64866 0.0
O19 O -0.00499 0.21799 0.37031 0.0
O20 O 0.03191 0.25943 0.48082 0.0
O21 O 0.03088 0.21282 0.49126 0.0
Sc22 Sc 0.78677 0.77967 0.44662 0.0
Sc23 Sc 0.81159 0.81728 0.51918 0.0
Sc24 Sc 0.77237 0.7924 0.57885 0.0
O25 O 0.79027 0.79646 0.51506 0.0
C26 C 0.75246 0.77664 0.44766 0.0
C27 C 0.80664 0.8112 0.36248 0.0
C28 C 0.78587 0.82855 0.53294 0.0
C29 C 0.82249 0.79173 0.49664 0.0
C30 C 0.77067 0.75867 0.5757 0.0
C31 C 0.80248 0.81147 0.67325 0.0
O32 O 0.7633 0.77513 0.41884 0.0
O33 O 0.81403 0.81994 0.41191 0.0
O34 O 0.77496 0.81543 0.5572 0.0
O35 O 0.8098 0.78208 0.46592 0.0
O36 O 0.76821 0.76892 0.60488 0.0
O37 O 0.81264 0.81811 0.62697 0.0
O38 O 0.77706 0.76097 0.51883 0.0
O39 O 0.82476 0.80481 0.52133 0.0
O40 O 0.78787 0.80176 0.66203 0.0
O41 O 0.79593 0.79665 0.368 0.0
O42 O 0.75416 0.78249 0.50511 0.0
O43 O 0.79965 0.83097 0.51697 0.0
Sc44 Sc 0.23799 0.01877 0.413 0.0
Sc45 Sc 0.2011 0.00866 0.48459 0.0
Sc46 Sc 0.22551 -0.00417 0.55825 0.0
O47 O 0.22161 0.00776 0.48521 0.0
C48 C 0.23839 0.98618 0.43189 0.0
C49 C 0.20689 0.00772 0.32891 0.0
C50 C 0.18888 0.97276 0.51685 0.0
C51 C 0.22742 0.04418 0.45589 0.0
C52 C 0.26045 0.02588 0.53809 0.0
C53 C 0.20782 0.00967 0.64054 0.0
O54 O 0.24127 -0.00154 0.39812 0.0
O55 O 0.19899 0.0086 0.37739 0.0
O56 O 0.20113 0.976 0.55174 0.0
O57 O 0.2362 0.0402 0.42313 0.0
O58 O 0.25015 0.01419 0.57222 0.0
O59 O 0.19909 0.00888 0.59201 0.0
O60 O 0.25755 0.02915 0.48082 0.0
O61 O 0.2146 0.03414 0.48505 0.0
O62 O 0.21945 0.00722 0.63439 0.0
O63 O 0.22069 0.00947 0.33546 0.0
O64 O 0.2324 0.98351 0.48962 0.0
O65 O 0.18743 0.98317 0.48372 0.0
Sc66 Sc 0.01807 0.79022 0.58847 0.0
Sc67 Sc 0.00246 0.81422 0.53193 0.0
Sc68 Sc 0.99065 0.7769 0.45715 0.0
O69 O 0.00371 0.79378 0.52596 0.0
C70 C 0.02308 0.77588 0.45461 0.0
C71 C 0.03963 0.82707 0.55 0.0
C72 C 0.00174 0.80877 0.375 0.0
C73 C 0.00525 0.80743 0.68522 0.0
C74 C 0.98716 0.75545 0.5826 0.0
C75 C 0.96623 0.78788 0.50803 0.0
O76 O 0.0273 0.78185 0.5119 0.0
O77 O 0.02795 0.82895 0.53401 0.0
O78 O -0.00234 0.79414 0.37982 0.0
O79 O 0.01093 0.79836 0.67309 0.0
O80 O 0.98258 0.7578 0.52702 0.0
O81 O 0.97692 0.80119 0.53114 0.0
O82 O -0.00042 0.76607 0.61218 0.0
O83 O 0.00147 0.81402 0.63961 0.0
O84 O 0.96942 0.77819 0.47842 0.0
O85 O 0.03795 0.81386 0.57049 0.0
O86 O 0.01015 0.77338 0.4277 0.0
O87 O 0.00338 0.81752 0.42486 0.0
Sc88 Sc 0.22287 0.23741 0.53743 0.0
Sc89 Sc 0.20276 0.19837 0.47424 0.0
Sc90 Sc 0.24155 0.22578 0.4208 0.0
O91 O 0.22232 0.22048 0.47726 0.0
C92 C 0.24042 0.25842 0.41522 0.0
C93 C 0.18689 0.21986 0.48469 0.0
C94 C 0.2135 0.20567 0.32119 0.0
C95 C 0.2067 0.20689 0.62917 0.0
C96 C 0.25842 0.24339 0.55088 0.0
C97 C 0.23025 0.18995 0.46471 0.0
O98 O 0.22961 0.25435 0.45876 0.0
O99 O 0.18705 0.20777 0.46117 0.0
O100 O 0.22721 0.21755 0.3336 0.0
O101 O 0.21633 0.22169 0.62039 0.0
O102 O 0.25714 0.23405 0.50425 0.0
O103 O 0.21675 0.18698 0.48696 0.0
O104 O 0.24766 0.24688 0.56431 0.0
O105 O 0.19966 0.19717 0.58169 0.0
O106 O 0.23967 0.20284 0.43482 0.0
O107 O 0.19841 0.23062 0.51778 0.0
O108 O 0.24658 0.24986 0.40033 0.0
O109 O 0.20378 0.19705 0.36651 0.0
Sc110 Sc 0.77417 -0.00244 0.51802 0.0
Sc111 Sc 0.81225 0.00911 0.45417 0.0
Sc112 Sc 0.79061 0.02715 0.39521 0.0
O113 O 0.79233 0.01127 0.45559 0.0
C114 C 0.756 -0.00375 0.38542 0.0
C115 C 0.78534 0.97312 0.46877 0.0
C116 C 0.80889 0.01518 0.30055 0.0
C117 C 0.80395 0.00665 0.60947 0.0
C118 C 0.77287 0.02997 0.52191 0.0
C119 C 0.82625 0.04671 0.44999 0.0
O120 O 0.75718 0.99013 0.43928 0.0
O121 O 0.79866 0.98366 0.44517 0.0
O122 O 0.79995 0.02102 0.31182 0.0
O123 O 0.78987 0.00414 0.60115 0.0
O124 O 0.78095 0.03557 0.46949 0.0
O125 O 0.82731 0.03443 0.46387 0.0
O126 O 0.76944 0.01643 0.54537 0.0
O127 O 0.81299 0.00754 0.5617 0.0
O128 O 0.81401 0.046 0.42315 0.0
O129 O 0.77599 0.97655 0.49955 0.0
O130 O 0.7668 0.00972 0.3635 0.0
O131 O 0.81443 0.01036 0.34663 0.0
Sc132 Sc 0.66529 0.56041 0.76191 0.0
Sc133 Sc 0.68045 0.53794 0.83591 0.0
Sc134 Sc 0.6853 0.57236 0.91294 0.0
O135 O 0.67698 0.55695 0.83675 0.0
C136 C 0.69381 0.59584 0.79136 0.0
C137 C 0.68311 0.54627 0.68177 0.0
C138 C 0.71367 0.56517 0.88209 0.0
C139 C 0.64452 0.52286 0.79465 0.0
C140 C 0.6523 0.5713 0.88261 0.0
C141 C 0.67482 0.5409 0.99015 0.0
O142 O 0.68235 0.5857 0.75567 0.0
O143 O 0.68259 0.53734 0.72896 0.0
O144 O 0.70734 0.57164 0.91631 0.0
O145 O 0.64702 0.53534 0.76294 0.0
O146 O 0.66449 0.57508 0.91836 0.0
O147 O 0.67895 0.53498 0.94315 0.0
O148 O 0.65037 0.56492 0.82606 0.0
O149 O 0.65522 0.52212 0.82873 0.0
O150 O 0.67405 0.55353 0.98357 0.0
O151 O 0.67908 0.55679 0.68865 0.0
O152 O 0.69695 0.59251 0.8482 0.0
O153 O 0.70575 0.55354 0.84286 0.0
Sc154 Sc 0.45506 0.11406 0.79243 0.0
Sc155 Sc 0.4788 0.15175 0.866 0.0
Sc156 Sc 0.43999 0.12554 0.9265 0.0
O157 O 0.45796 0.13045 0.86181 0.0
C158 C 0.41999 0.10934 0.79613 0.0
C159 C 0.47363 0.14588 0.70916 0.0
C160 C 0.45218 0.1617 0.88313 0.0
C161 C 0.49126 0.1276 0.84025 0.0
C162 C 0.43977 0.09243 0.92044 0.0
C163 C 0.47003 0.1452 0.02033 0.0
O164 O 0.43101 0.10819 0.76689 0.0
O165 O 0.48102 0.1546 0.75866 0.0
O166 O 0.4417 0.14838 0.90771 0.0
O167 O 0.47872 0.1177 0.80927 0.0
O168 O 0.43655 0.10213 0.95005 0.0
O169 O 0.47996 0.15245 0.97386 0.0
O170 O 0.44644 0.09529 0.86403 0.0
O171 O 0.49287 0.14026 0.86668 0.0
O172 O 0.45557 0.13491 0.00935 0.0
O173 O 0.46322 0.13122 0.71441 0.0
O174 O 0.42174 0.11544 0.8531 0.0
O175 O 0.466 0.16457 0.86532 0.0
Sc176 Sc 0.90484 0.35578 0.77893 0.0
Sc177 Sc 0.86505 0.3382 0.83333 0.0
Sc178 Sc 0.89076 0.32594 0.8986 0.0
O179 O 0.88682 0.33997 0.83672 0.0
C180 C 0.90932 0.325 0.77493 0.0
C181 C 0.87567 0.34277 0.68013 0.0
C182 C 0.85498 0.30208 0.85121 0.0
C183 C 0.88769 0.3755 0.82047 0.0
C184 C 0.92421 0.35876 0.90588 0.0
C185 C 0.87104 0.33633 0.98881 0.0
O186 O 0.91351 0.33934 0.75914 0.0
O187 O 0.86534 0.3398 0.72545 0.0
O188 O 0.86734 0.30539 0.88488 0.0
O189 O 0.89881 0.37426 0.79251 0.0
O190 O 0.91508 0.34414 0.92071 0.0
O191 O 0.86249 0.33657 0.94111 0.0
O192 O 0.92089 0.36571 0.86062 0.0
O193 O 0.87507 0.36354 0.84251 0.0
O194 O 0.88274 0.33397 0.98069 0.0
O195 O 0.89023 0.34737 0.69252 0.0
O196 O 0.89907 0.31733 0.81963 0.0
O197 O 0.85296 0.31273 0.8235 0.0
Sc198 Sc 0.68513 0.12036 0.9237 0.0
Sc199 Sc 0.67318 0.14703 0.8627 0.0
Sc200 Sc 0.65816 0.10891 0.7912 0.0
O201 O 0.67215 0.12543 0.85932 0.0
C202 C 0.68787 0.10325 0.7939 0.0
C203 C 0.70959 0.15612 0.87738 0.0
C204 C 0.6717 0.14057 0.70615 0.0
C205 C 0.67585 0.14105 0.01705 0.0
C206 C 0.65187 0.08769 0.92094 0.0
C207 C 0.63633 0.12339 0.83976 0.0
O208 O 0.69227 0.1092 0.85102 0.0
O209 O 0.69877 0.15931 0.86108 0.0
O210 O 0.66692 0.1258 0.71201 0.0
O211 O 0.67992 0.13067 0.00617 0.0
O212 O 0.64814 0.0903 0.86389 0.0
O213 O 0.64771 0.13611 0.86418 0.0
O214 O 0.66479 0.09749 0.95019 0.0
O215 O 0.6729 0.14807 0.97052 0.0
O216 O 0.63846 0.11301 0.80979 0.0
O217 O 0.70659 0.14273 0.9018 0.0
O218 O 0.67603 0.10267 0.76412 0.0
O219 O 0.67369 0.14959 0.75538 0.0
Sc220 Sc 0.89148 0.57191 0.95387 0.0
Sc221 Sc 0.86204 0.53577 0.88329 0.0
Sc222 Sc 0.89907 0.5587 0.80383 0.0
O223 O 0.8842 0.55549 0.88034 0.0
C224 C 0.90616 0.59427 0.82731 0.0
C225 C 0.85538 0.56335 0.92432 0.0
C226 C 0.86643 0.54277 0.72681 0.0
C227 C 0.87077 0.5407 0.03813 0.0
C228 C 0.92324 0.57061 0.9254 0.0
C229 C 0.88377 0.52151 0.84105 0.0
O230 O 0.90117 0.59165 0.88657 0.0
O231 O 0.8512 0.55025 0.89438 0.0
O232 O 0.88113 0.55304 0.73059 0.0
O233 O 0.88299 0.5544 0.03115 0.0
O234 O 0.91902 0.5651 0.86739 0.0
O235 O 0.87201 0.52047 0.87354 0.0
O236 O 0.91454 0.57356 0.96345 0.0
O237 O 0.86164 0.533 0.9902 0.0
O238 O 0.89376 0.53411 0.81019 0.0
O239 O 0.8691 0.57196 0.9504 0.0
O240 O 0.90601 0.58354 0.79037 0.0
O241 O 0.85825 0.53482 0.77657 0.0
Sc242 Sc 0.43906 0.33104 0.89282 0.0
Sc243 Sc 0.47777 0.34339 0.83482 0.0
Sc244 Sc 0.45549 0.35984 0.76786 0.0
O245 O 0.4575 0.34481 0.83204 0.0
C246 C 0.42043 0.32929 0.76313 0.0
C247 C 0.45131 0.30705 0.85099 0.0
C248 C 0.47253 0.34581 0.67913 0.0
C249 C 0.46833 0.34096 0.98894 0.0
C250 C 0.43895 0.36429 0.89345 0.0
C251 C 0.49198 0.38039 0.81448 0.0
O252 O 0.42231 0.32263 0.81356 0.0
O253 O 0.46473 0.31781 0.829 0.0
O254 O 0.46246 0.35048 0.68678 0.0
O255 O 0.45418 0.33794 0.97749 0.0
O256 O 0.4481 0.3702 0.84371 0.0
O257 O 0.49264 0.36877 0.84047 0.0
O258 O 0.43416 0.35015 0.9142 0.0
O259 O 0.47808 0.34258 0.94289 0.0
O260 O 0.47979 0.37869 0.7835 0.0
O261 O 0.44138 0.31018 0.87861 0.0
O262 O 0.43081 0.34317 0.74363 0.0
O263 O 0.47996 0.34391 0.72718 0.0
Sc264 Sc 0.32653 0.89344 0.05307 0.0
Sc265 Sc 0.33649 0.86606 0.11874 0.0
Sc266 Sc 0.34742 0.90159 0.20217 0.0
O267 O 0.33686 0.88713 0.12443 0.0
C268 C 0.35823 0.92662 0.08537 0.0
C269 C 0.33963 0.87586 0.96593 0.0
C270 C 0.37145 0.88908 0.16217 0.0
C271 C 0.30139 0.85655 0.08259 0.0
C272 C 0.31687 0.90561 0.18029 0.0
C273 C 0.3328 0.86889 0.27438 0.0
O274 O 0.34604 0.91791 0.04982 0.0
O275 O 0.3376 0.86592 0.01135 0.0
O276 O 0.36726 0.89702 0.19933 0.0
O277 O 0.30574 0.86956 0.05113 0.0
O278 O 0.32885 0.90759 0.21382 0.0
O279 O 0.33528 0.86216 0.22541 0.0
O280 O 0.31394 0.89982 0.12234 0.0
O281 O 0.31102 0.85377 0.1151 0.0
O282 O 0.33449 0.88272 0.27092 0.0
O283 O 0.33822 0.88803 0.97605 0.0
O284 O 0.36093 0.92193 0.14007 0.0
O285 O 0.36198 0.87825 0.12255 0.0
Sc286 Sc 0.12291 0.44519 0.11433 0.0
Sc287 Sc 0.14498 0.4842 0.17686 0.0
Sc288 Sc 0.1057 0.45874 0.23036 0.0
O289 O 0.1246 0.46275 0.17402 0.0
C290 C 0.08811 0.44139 0.10086 0.0
C291 C 0.14048 0.47549 0.02201 0.0
C292 C 0.11925 0.49504 0.18628 0.0
C293 C 0.15891 0.46096 0.16641 0.0
C294 C 0.10486 0.42511 0.23819 0.0
C295 C 0.13419 0.47763 0.32994 0.0
O296 O 0.09825 0.43703 0.08759 0.0
O297 O 0.14789 0.48511 0.06936 0.0
O298 O 0.10907 0.48231 0.21525 0.0
O299 O 0.14709 0.4505 0.13349 0.0
O300 O 0.09938 0.4343 0.25248 0.0
O301 O 0.14424 0.48569 0.28461 0.0
O302 O 0.11535 0.42841 0.19382 0.0
O303 O 0.1594 0.47338 0.18963 0.0
O304 O 0.12008 0.46648 0.31751 0.0
O305 O 0.13025 0.46085 0.03094 0.0
O306 O 0.09004 0.45104 0.14717 0.0
O307 O 0.13247 0.49709 0.16468 0.0
Sc308 Sc 0.57205 0.68879 0.05221 0.0
Sc309 Sc 0.53453 0.67642 0.12297 0.0
Sc310 Sc 0.56106 0.66723 0.20088 0.0
O311 O 0.55597 0.67749 0.1251 0.0
C312 C 0.57498 0.6577 0.0776 0.0
C313 C 0.54073 0.67533 0.96776 0.0
C314 C 0.52499 0.64161 0.161 0.0
C315 C 0.55889 0.71242 0.09165 0.0
C316 C 0.5949 0.6985 0.17725 0.0
C317 C 0.54138 0.67913 0.27915 0.0
O318 O 0.57714 0.66943 0.04138 0.0
O319 O 0.53254 0.67592 0.01569 0.0
O320 O 0.53732 0.64631 0.19742 0.0
O321 O 0.56827 0.70918 0.05909 0.0
O322 O 0.58516 0.68674 0.21249 0.0
O323 O 0.53211 0.67666 0.2304 0.0
O324 O 0.59162 0.70098 0.11927 0.0
O325 O 0.54646 0.7019 0.12176 0.0
O326 O 0.55413 0.67859 0.27371 0.0
O327 O 0.55481 0.67787 0.97503 0.0
O328 O 0.56892 0.65526 0.13517 0.0
O329 O 0.52267 0.65091 0.12394 0.0
Sc330 Sc 0.35762 0.45993 0.29858 0.0
Sc331 Sc 0.34229 0.4844 0.24512 0.0
Sc332 Sc 0.32827 0.44637 0.17508 0.0
O333 O 0.34271 0.46358 0.23983 0.0
C334 C 0.3599 0.44357 0.16691 0.0
C335 C 0.37939 0.49649 0.25659 0.0
C336 C 0.34043 0.47762 0.08872 0.0
C337 C 0.34624 0.47793 0.39775 0.0
C338 C 0.32539 0.42594 0.30153 0.0
C339 C 0.30565 0.45971 0.22484 0.0
O340 O 0.36599 0.45141 0.21945 0.0
O341 O 0.36775 0.49846 0.24128 0.0
O342 O 0.33632 0.46299 0.09506 0.0
O343 O 0.3512 0.46829 0.38482 0.0
O344 O 0.31934 0.42852 0.25057 0.0
O345 O 0.3168 0.47243 0.24994 0.0
O346 O 0.3393 0.43576 0.32308 0.0
O347 O 0.34265 0.48484 0.35281 0.0
O348 O 0.30815 0.44977 0.19358 0.0
O349 O 0.37762 0.4834 0.27901 0.0
O350 O 0.34615 0.44027 0.14648 0.0
O351 O 0.34204 0.48666 0.13759 0.0
Sc352 Sc 0.55454 0.90377 0.26797 0.0
Sc353 Sc 0.53246 0.86502 0.20281 0.0
Sc354 Sc 0.56821 0.89296 0.12843 0.0
O355 O 0.55172 0.88729 0.19988 0.0
C356 C 0.56756 0.92572 0.14261 0.0
C357 C 0.5172 0.88636 0.23313 0.0
C358 C 0.5373 0.8724 0.04673 0.0
C359 C 0.54002 0.87297 0.35713 0.0
C360 C 0.58997 0.90949 0.2514 0.0
C361 C 0.55917 0.85721 0.16643 0.0
O362 O 0.55929 0.92169 0.1952 0.0
O363 O 0.51661 0.87442 0.20398 0.0
O364 O 0.55049 0.88532 0.05269 0.0
O365 O 0.55024 0.8876 0.34826 0.0
O366 O 0.58697 0.90103 0.19962 0.0
O367 O 0.54729 0.85439 0.20263 0.0
O368 O 0.5799 0.91253 0.27868 0.0
O369 O 0.53175 0.86375 0.31027 0.0
O370 O 0.56659 0.8698 0.1315 0.0
O371 O 0.52961 0.89709 0.26246 0.0
O372 O 0.57239 0.91699 0.11577 0.0
O373 O 0.53029 0.86299 0.09514 0.0
Sc374 Sc 0.1098 0.66664 0.23936 0.0
Sc375 Sc 0.14708 0.68026 0.16448 0.0
Sc376 Sc 0.11898 0.68811 0.0907 0.0
O377 O 0.12522 0.67833 0.16489 0.0
C378 C 0.08634 0.65552 0.11646 0.0
C379 C 0.12442 0.64425 0.20066 0.0
C380 C 0.13924 0.67719 0.00897 0.0
C381 C 0.14164 0.68189 0.32029 0.0
C382 C 0.10449 0.69636 0.21565 0.0
C383 C 0.15505 0.71481 0.12611 0.0
O384 O 0.09029 0.65335 0.17365 0.0
O385 O 0.13625 0.65483 0.16786 0.0
O386 O 0.12648 0.67769 0.0156 0.0
O387 O 0.12734 0.67879 0.31433 0.0
O388 O 0.11055 0.69937 0.15803 0.0
O389 O 0.15818 0.70572 0.16087 0.0
O390 O 0.10304 0.68473 0.25047 0.0
O391 O 0.14975 0.68138 0.27173 0.0
O392 O 0.14215 0.70975 0.09311 0.0
O393 O 0.11495 0.64723 0.2338 0.0
O394 O 0.09526 0.66762 0.08089 0.0
O395 O 0.14865 0.67951 0.05703 0.0
C396 C 0.08138 0.40138 0.28797 0.0
C397 C 0.09746 0.40909 0.26829 0.0
C398 C 0.07352 0.38525 0.30544 0.0
C399 C 0.07686 0.34895 0.28179 0.0
H400 H 0.04264 0.33092 0.41099 0.0
C401 C 0.04895 0.28553 0.39482 0.0
C402 C 0.03221 0.27679 0.399 0.0
C403 C 0.05672 0.30124 0.37187 0.0
C404 C 0.05207 0.33581 0.37427 0.0
H405 H 0.11824 0.40637 0.25583 0.0
H406 H 0.10478 0.37845 0.28951 0.0
H407 H 0.05728 0.35969 0.39281 0.0
H408 H 0.01043 0.27737 0.37968 0.0
H409 H 0.0241 0.30502 0.34065 0.0
H410 H 0.07192 0.32498 0.26552 0.0
C411 C 0.09801 0.38461 0.28883 0.0
C412 C 0.06046 0.35228 0.36377 0.0
C413 C 0.10579 0.40066 0.27024 0.0
C414 C 0.02334 0.28378 0.37664 0.0
C415 C 0.03113 0.29961 0.35486 0.0
C416 C 0.06863 0.3325 0.29317 0.0
C417 C 0.08165 0.37657 0.30466 0.0
C418 C 0.07296 0.35907 0.31731 0.0
C419 C 0.04788 0.30856 0.35384 0.0
C420 C 0.05614 0.32582 0.33931 0.0
H421 H 0.07462 0.40754 0.28626 0.0
H422 H 0.06089 0.37945 0.31663 0.0
H423 H 0.08615 0.35367 0.24452 0.0
H424 H 0.05606 0.2804 0.41159 0.0
H425 H 0.06965 0.30795 0.3716 0.0
C426 C 0.72331 0.76708 0.45301 0.0
C427 C 0.73688 0.7708 0.41481 0.0
C428 C 0.70841 0.76107 0.4234 0.0
C429 C 0.68629 0.74105 0.27108 0.0
H430 H 0.65485 0.75028 0.34652 0.0
C431 C 0.62375 0.71817 0.15855 0.0
C432 C 0.61114 0.70921 0.20279 0.0
C433 C 0.63936 0.72727 0.18161 0.0
C434 C 0.66355 0.74763 0.32509 0.0
H435 H 0.74554 0.77151 0.31526 0.0
H436 H 0.7195 0.7615 0.26286 0.0
H437 H 0.68206 0.76386 0.38942 0.0
H438 H 0.60493 0.70327 0.30609 0.0
H439 H 0.6323 0.71957 0.34652 0.0
H440 H 0.66769 0.72502 0.20596 0.0
C441 C 0.72033 0.76283 0.3161 0.0
C442 C 0.6791 0.75532 0.34975 0.0
C443 C 0.73526 0.76863 0.346 0.0
C444 C 0.6144 0.71 0.27084 0.0
C445 C 0.63001 0.71935 0.29398 0.0
C446 C 0.6708 0.73359 0.24568 0.0
C447 C 0.70669 0.75886 0.35458 0.0
C448 C 0.69059 0.75188 0.32399 0.0
C449 C 0.64263 0.72783 0.24939 0.0
C450 C 0.65926 0.73662 0.27326 0.0
H451 H 0.72411 0.76844 0.50629 0.0
H452 H 0.69817 0.7578 0.45494 0.0
H453 H 0.6947 0.7379 0.25063 0.0
H454 H 0.62165 0.71777 0.10579 0.0
H455 H 0.64892 0.73379 0.14643 0.0
C456 C 0.24514 0.96465 0.44814 0.0
C457 C 0.24316 0.97497 0.40511 0.0
C458 C 0.25109 0.95509 0.42469 0.0
C459 C 0.25655 0.93621 0.28001 0.0
H460 H 0.29529 0.94319 0.36675 0.0
C461 C 0.29743 0.9152 0.16632 0.0
C462 C 0.30625 0.91095 0.20843 0.0
C463 C 0.28819 0.92128 0.19217 0.0
C464 C 0.2843 0.94078 0.34279 0.0
H465 H 0.24511 0.98276 0.30316 0.0
H466 H 0.25529 0.96571 0.26193 0.0
H467 H 0.28142 0.95662 0.40781 0.0
H468 H 0.31176 0.90901 0.3107 0.0
H469 H 0.29508 0.91901 0.35625 0.0
H470 H 0.25917 0.92013 0.21569 0.0
C471 C 0.25233 0.96521 0.31388 0.0
C472 C 0.27643 0.94858 0.36612 0.0
C473 C 0.2466 0.975 0.33753 0.0
C474 C 0.30522 0.91238 0.27707 0.0
C475 C 0.29573 0.91819 0.30305 0.0
C476 C 0.26426 0.92816 0.2573 0.0
C477 C 0.25492 0.95546 0.35764 0.0
C478 C 0.26263 0.9465 0.33445 0.0
C479 C 0.28732 0.923 0.26084 0.0
C480 C 0.27837 0.93052 0.28787 0.0
H481 H 0.24263 0.96434 0.50051 0.0
H482 H 0.25294 0.94758 0.45915 0.0
H483 H 0.24582 0.93436 0.25527 0.0
H484 H 0.29808 0.91434 0.1131 0.0
H485 H 0.28215 0.92511 0.15799 0.0
C486 C 0.28002 0.03637 0.63204 0.0
C487 C 0.27683 0.0357 0.56397 0.0
C488 C 0.29567 0.04543 0.65536 0.0
C489 C 0.33678 0.06002 0.60779 0.0
H490 H 0.34772 0.09172 0.74537 0.0
C491 C 0.40186 0.0992 0.69717 0.0
C492 C 0.40405 0.10246 0.76522 0.0
C493 C 0.38654 0.09214 0.66961 0.0
C494 C 0.34486 0.08277 0.70756 0.0
H495 H 0.28755 0.0439 0.46701 0.0
H496 H 0.31482 0.05936 0.50787 0.0
H497 H 0.32029 0.07669 0.70565 0.0
H498 H 0.39188 0.10074 0.8578 0.0
H499 H 0.36539 0.088 0.81068 0.0
H500 H 0.36108 0.0655 0.61114 0.0
C501 C 0.30521 0.05302 0.543 0.0
C502 C 0.32916 0.07423 0.68477 0.0
C503 C 0.28958 0.04424 0.51981 0.0
C504 C 0.39066 0.09858 0.80499 0.0
C505 C 0.37541 0.09134 0.77778 0.0
C506 C 0.35243 0.06835 0.63138 0.0
C507 C 0.30838 0.05367 0.61087 0.0
C508 C 0.32499 0.06276 0.63487 0.0
C509 C 0.3731 0.088 0.70977 0.0
C510 C 0.35667 0.07977 0.68187 0.0
H511 H 0.27043 0.02995 0.6672 0.0
H512 H 0.29789 0.04574 0.708 0.0
H513 H 0.33379 0.05115 0.56944 0.0
H514 H 0.41196 0.10213 0.66523 0.0
H515 H 0.38526 0.08998 0.61684 0.0
C516 C 0.93425 0.32713 0.72874 0.0
C517 C 0.91818 0.3176 0.74734 0.0
C518 C 0.94358 0.32014 0.71536 0.0
C519 C 0.94444 0.283 0.75137 0.0
H520 H 0.97776 0.29898 0.61819 0.0
C521 C 0.97177 0.2475 0.63951 0.0
C522 C 0.98832 0.25547 0.62858 0.0
C523 C 0.96452 0.2557 0.66491 0.0
C524 C 0.96866 0.29459 0.65633 0.0
H525 H 0.89893 0.29329 0.76166 0.0
H526 H 0.91498 0.28105 0.73535 0.0
H527 H 0.96181 0.3119 0.63301 0.0
H528 H 0.01041 0.278 0.63839 0.0
H529 H -0.00242 0.29252 0.68181 0.0
H530 H 0.95089 0.26523 0.77237 0.0
C531 C 0.92059 0.29394 0.73375 0.0
C532 C 0.9595 0.30195 0.66474 0.0
C533 C 0.91134 0.30092 0.74804 0.0
C534 C -0.00236 0.27158 0.6469 0.0
C535 C 0.99032 0.27989 0.67115 0.0
C536 C 0.95346 0.27553 0.74234 0.0
C537 C 0.93695 0.30349 0.71952 0.0
C538 C 0.94712 0.29609 0.71171 0.0
C539 C 0.97366 0.27208 0.6787 0.0
C540 C 0.96551 0.28115 0.69424 0.0
H541 H 0.93988 0.34003 0.72844 0.0
H542 H 0.95615 0.32787 0.70487 0.0
H543 H 0.9353 0.27845 0.7893 0.0
H544 H 0.96436 0.23507 0.62578 0.0
H545 H 0.95164 0.24945 0.66997 0.0
C546 C 0.75381 0.73737 0.65791 0.0
C547 C 0.76523 0.74296 0.60696 0.0
C548 C 0.74739 0.72174 0.68141 0.0
C549 C 0.74039 0.68258 0.62593 0.0
H550 H 0.73006 0.67063 0.81001 0.0
C551 C 0.71653 0.62375 0.80489 0.0
C552 C 0.70344 0.61249 0.76767 0.0
C553 C 0.72492 0.63973 0.78563 0.0
C554 C 0.73301 0.67381 0.75848 0.0
H555 H 0.77967 0.73694 0.54395 0.0
H556 H 0.76866 0.70989 0.5856 0.0
H557 H 0.74378 0.69882 0.779 0.0
H558 H 0.68916 0.60918 0.67998 0.0
H559 H 0.70378 0.63713 0.64666 0.0
H560 H 0.72979 0.65763 0.60538 0.0
C561 C 0.76434 0.71738 0.60611 0.0
C562 C 0.74071 0.68992 0.7407 0.0
C563 C 0.77069 0.73292 0.58248 0.0
C564 C 0.6992 0.61752 0.70972 0.0
C565 C 0.70761 0.63353 0.6905 0.0
C566 C 0.73269 0.66649 0.64367 0.0
C567 C 0.75233 0.71149 0.65455 0.0
C568 C 0.74446 0.69446 0.67422 0.0
C569 C 0.72043 0.64483 0.72874 0.0
C570 C 0.72888 0.66193 0.71008 0.0
H571 H 0.74937 0.74481 0.67775 0.0
H572 H 0.73809 0.71749 0.71863 0.0
H573 H 0.74292 0.68569 0.57413 0.0
H574 H 0.72022 0.62029 0.84955 0.0
H575 H 0.73493 0.64812 0.81542 0.0
C576 C 0.97926 0.73644 0.67873 0.0
C577 C 0.97796 0.73927 0.61152 0.0
C578 C 0.97071 0.72094 0.70444 0.0
C579 C 0.93704 0.68017 0.66434 0.0
H580 H 0.95706 0.66684 0.79634 0.0
C581 C 0.91519 0.61413 0.73413 0.0
C582 C 0.91328 0.61081 0.80227 0.0
C583 C 0.92244 0.62992 0.7116 0.0
C584 C 0.95132 0.67046 0.75968 0.0
H585 H 0.96684 0.72802 0.51842 0.0
H586 H 0.95255 0.70118 0.56231 0.0
H587 H 0.97097 0.69437 0.75687 0.0
H588 H 0.91752 0.62146 0.90012 0.0
H589 H 0.9304 0.64892 0.86057 0.0
H590 H 0.91765 0.656 0.66581 0.0
C591 C 0.95966 0.71086 0.59602 0.0
C592 C 0.95921 0.68625 0.73739 0.0
C593 C 0.96798 0.72631 0.57067 0.0
C594 C 0.91872 0.62358 0.84726 0.0
C595 C 0.92619 0.63931 0.8248 0.0
C596 C 0.92929 0.66433 0.68587 0.0
C597 C 0.96088 0.70794 0.66322 0.0
C598 C 0.9522 0.69131 0.68924 0.0
C599 C 0.92815 0.64262 0.75687 0.0
C600 C 0.93637 0.65935 0.73366 0.0
H601 H 0.9868 0.74619 0.71148 0.0
H602 H 0.97177 0.71917 0.75667 0.0
H603 H 0.9311 0.68369 0.6283 0.0
H604 H 0.91109 0.60455 0.69831 0.0
H605 H 0.92389 0.63223 0.65889 0.0
C606 C 0.28318 0.24449 0.5923 0.0
C607 C 0.27375 0.25172 0.58602 0.0
C608 C 0.29871 0.25317 0.61666 0.0
C609 C 0.33219 0.29288 0.61615 0.0
H610 H 0.34948 0.27777 0.75293 0.0
C611 C 0.39747 0.32948 0.70802 0.0
C612 C 0.4048 0.32096 0.73033 0.0
C613 C 0.38145 0.32135 0.68888 0.0
C614 C 0.34492 0.28204 0.7138 0.0
H615 H 0.27288 0.27345 0.60204 0.0
H616 H 0.30029 0.28878 0.64339 0.0
H617 H 0.32101 0.26283 0.72857 0.0
H618 H 0.40172 0.29739 0.74533 0.0
H619 H 0.37408 0.28316 0.70851 0.0
H620 H 0.3561 0.3117 0.59913 0.0
C621 C 0.29554 0.27637 0.62998 0.0
C622 C 0.32861 0.27356 0.70052 0.0
C623 C 0.27988 0.26758 0.60689 0.0
C624 C 0.39624 0.30422 0.72893 0.0
C625 C 0.38036 0.2961 0.7086 0.0
C626 C 0.34858 0.30124 0.62864 0.0
C627 C 0.30513 0.26929 0.63389 0.0
C628 C 0.32214 0.27888 0.65144 0.0
C629 C 0.37259 0.30455 0.69071 0.0
C630 C 0.35517 0.29584 0.67729 0.0
H631 H 0.27871 0.23226 0.57663 0.0
H632 H 0.30594 0.24751 0.6191 0.0
H633 H 0.32744 0.29706 0.57742 0.0
H634 H 0.40381 0.34242 0.70929 0.0
H635 H 0.37584 0.32826 0.67578 0.0
C636 C 0.70367 0.08954 0.8044 0.0
C637 C 0.69662 0.09601 0.76342 0.0
C638 C 0.71223 0.08284 0.7774 0.0
C639 C 0.71941 0.06742 0.62069 0.0
H640 H 0.75586 0.0716 0.71837 0.0
C641 C 0.7642 0.05027 0.51497 0.0
C642 C 0.76594 0.039 0.55274 0.0
C643 C 0.75627 0.05777 0.54083 0.0
C644 C 0.74567 0.07031 0.69089 0.0
H645 H 0.69291 0.10055 0.66196 0.0
H646 H 0.70853 0.08942 0.61425 0.0
H647 H 0.74118 0.08417 0.76057 0.0
H648 H 0.76125 0.02721 0.6481 0.0
H649 H 0.74773 0.04082 0.69418 0.0
H650 H 0.72443 0.05401 0.54984 0.0
C651 C 0.70708 0.08913 0.66741 0.0
C652 C 0.73718 0.07741 0.71506 0.0
C653 C 0.6982 0.09558 0.69458 0.0
C654 C 0.76006 0.03581 0.61785 0.0
C655 C 0.75238 0.04359 0.6442 0.0
C656 C 0.72812 0.06058 0.59593 0.0
C657 C 0.71427 0.08274 0.70863 0.0
C658 C 0.7238 0.07589 0.68075 0.0
C659 C 0.75019 0.05439 0.60535 0.0
C660 C 0.7412 0.06185 0.63119 0.0
H661 H 0.70241 0.08945 0.85768 0.0
H662 H 0.71712 0.07761 0.81074 0.0
H663 H 0.70907 0.06576 0.5934 0.0
H664 H 0.7685 0.05294 0.46449 0.0
H665 H 0.75481 0.06616 0.51026 0.0
C666 C 0.61379 0.93357 0.296 0.0
C667 C 0.60651 0.9176 0.27532 0.0
C668 C 0.63028 0.94234 0.30548 0.0
C669 C 0.66695 0.94163 0.25611 0.0
H670 H 0.68713 0.97609 0.38322 0.0
C671 C 0.73197 0.97112 0.35069 0.0
C672 C 0.74059 0.98788 0.35125 0.0
C673 C 0.71602 0.96302 0.33112 0.0
C674 C 0.68159 0.96662 0.34696 0.0
H675 H 0.61036 0.89786 0.25323 0.0
H676 H 0.63898 0.91281 0.27385 0.0
H677 H 0.65809 0.96023 0.37889 0.0
H678 H 0.73971 0.00937 0.32923 0.0
H679 H 0.71151 -0.00491 0.29669 0.0
H680 H 0.69065 0.94762 0.22709 0.0
C681 C 0.63218 0.91886 0.27965 0.0
C682 C 0.66498 0.95752 0.34439 0.0
C683 C 0.61576 0.91022 0.26872 0.0
C684 C 0.73332 -0.00356 0.3285 0.0
C685 C 0.71723 0.98832 0.31043 0.0
C686 C 0.68357 0.95053 0.25971 0.0
C687 C 0.63974 0.93519 0.29572 0.0
C688 C 0.65743 0.94486 0.2991 0.0
C689 C 0.70841 0.97158 0.31332 0.0
C690 C 0.69097 0.96306 0.30516 0.0
H691 H 0.6069 0.93957 0.30059 0.0
H692 H 0.63565 0.9549 0.31725 0.0
H693 H 0.66161 0.93227 0.21937 0.0
H694 H 0.73737 0.96431 0.3682 0.0
H695 H 0.70937 0.9501 0.33393 0.0
C696 C 0.02724 0.7597 0.36809 0.0
C697 C 0.03325 0.77071 0.42043 0.0
C698 C 0.03623 0.75327 0.34216 0.0
C699 C 0.06066 0.74618 0.27883 0.0
H700 H 0.08181 0.73381 0.40969 0.0
C701 C 0.1003 0.71983 0.20533 0.0
C702 C 0.09817 0.70645 0.24148 0.0
C703 C 0.09339 0.72871 0.22675 0.0
C704 C 0.07591 0.73713 0.3726 0.0
H705 H 0.05388 0.78448 0.48333 0.0
H706 H 0.06957 0.77349 0.43741 0.0
H707 H 0.06775 0.74758 0.44465 0.0
H708 H 0.08741 0.69221 0.32953 0.0
H709 H 0.07524 0.70768 0.36659 0.0
H710 H 0.06843 0.73526 0.20704 0.0
C711 C 0.05776 0.76947 0.41765 0.0
C712 C 0.06802 0.74519 0.39248 0.0
C713 C 0.04877 0.77583 0.44371 0.0
C714 C 0.08932 0.70244 0.30054 0.0
C715 C 0.08239 0.71134 0.32192 0.0
C716 C 0.06856 0.7381 0.25893 0.0
C717 C 0.05142 0.75781 0.36789 0.0
C718 C 0.06026 0.74977 0.34586 0.0
C719 C 0.08419 0.72445 0.28479 0.0
C720 C 0.0762 0.73342 0.30568 0.0
H721 H 0.01532 0.75551 0.34909 0.0
H722 H 0.03099 0.74424 0.304 0.0
H723 H 0.05488 0.74963 0.24174 0.0
H724 H 0.10715 0.72336 0.15987 0.0
H725 H 0.09523 0.73891 0.19771 0.0
C726 C 0.32452 0.40205 0.35248 0.0
C727 C 0.31644 0.40994 0.33129 0.0
C728 C 0.31602 0.38568 0.36587 0.0
C729 C 0.27713 0.3515 0.4045 0.0
H730 H 0.28983 0.3276 0.28987 0.0
C731 C 0.23945 0.28326 0.3908 0.0
C732 C 0.24783 0.27486 0.38932 0.0
C733 C 0.2474 0.2997 0.37934 0.0
C734 C 0.28623 0.33404 0.32295 0.0
H735 H 0.29319 0.40737 0.3127 0.0
H736 H 0.2783 0.37885 0.33848 0.0
H737 H 0.30519 0.35668 0.28985 0.0
H738 H 0.27091 0.27692 0.37162 0.0
H739 H 0.28486 0.30556 0.35377 0.0
H740 H 0.25849 0.329 0.43937 0.0
C741 C 0.29117 0.38525 0.34364 0.0
C742 C 0.29505 0.35069 0.32287 0.0
C743 C 0.29968 0.40152 0.32889 0.0
C744 C 0.26409 0.28304 0.37245 0.0
C745 C 0.2721 0.29952 0.36219 0.0
C746 C 0.26847 0.33483 0.40555 0.0
C747 C 0.29933 0.37711 0.35972 0.0
C748 C 0.29053 0.35953 0.3635 0.0
C749 C 0.26396 0.30813 0.36739 0.0
C750 C 0.27287 0.32588 0.36455 0.0
H751 H 0.33745 0.40825 0.35416 0.0
H752 H 0.32251 0.3796 0.37863 0.0
H753 H 0.27345 0.35813 0.43619 0.0
H754 H 0.22687 0.27722 0.40319 0.0
H755 H 0.24064 0.30585 0.38176 0.0
C756 C 0.94774 0.35904 0.95799 0.0
C757 C 0.94026 0.36745 0.93579 0.0
C758 C 0.96386 0.36721 0.97538 0.0
C759 C 0.00064 0.40629 0.94796 0.0
H760 H 0.01805 0.3905 0.08158 0.0
C761 C 0.06399 0.44184 0.06047 0.0
C762 C 0.07262 0.43375 0.06637 0.0
C763 C 0.04825 0.43385 0.03795 0.0
C764 C 0.01333 0.39491 0.04363 0.0
H765 H 0.94346 0.39101 0.9186 0.0
H766 H 0.97137 0.40532 0.95218 0.0
H767 H 0.98931 0.3767 0.06309 0.0
H768 H 0.07183 0.41116 0.05113 0.0
H769 H 0.04408 0.39706 0.01291 0.0
H770 H 0.02476 0.42489 0.93079 0.0
C771 C 0.96501 0.39239 0.95357 0.0
C772 C -0.00313 0.38702 0.03293 0.0
C773 C 0.94896 0.38422 0.93505 0.0
C774 C 0.06548 0.4177 0.04658 0.0
C775 C 0.04961 0.40962 0.0253 0.0
C776 C 0.01707 0.41432 0.95953 0.0
C777 C 0.9728 0.38398 0.97205 0.0
C778 C 0.9903 0.3926 0.98488 0.0
C779 C 0.04079 0.41755 0.02214 0.0
C780 C 0.02354 0.40867 0.00731 0.0
H781 H 0.94139 0.34611 0.95838 0.0
H782 H 0.96944 0.36028 0.98858 0.0
H783 H -0.0039 0.41073 0.90947 0.0
H784 H 0.06924 0.45422 0.07533 0.0
H785 H 0.04166 0.44019 0.03609 0.0
C786 C 0.63184 0.57907 0.85742 0.0
C787 C 0.64075 0.57612 0.90445 0.0
C788 C 0.62279 0.586 0.87633 0.0
C789 C 0.62089 0.61083 0.0112 0.0
H790 H 0.58267 0.60381 0.91954 0.0
C791 C 0.58276 0.63718 0.10041 0.0
C792 C 0.58051 0.64678 0.0543 0.0
C793 C 0.58885 0.62749 0.08052 0.0
C794 C 0.59339 0.60589 0.94512 0.0
H795 H 0.64623 0.57696 0.00877 0.0
H796 H 0.62981 0.58833 0.04243 0.0
H797 H 0.59472 0.58752 0.89148 0.0
H798 H 0.58236 0.6533 0.95065 0.0
H799 H 0.59283 0.63594 0.91559 0.0
H800 H 0.61924 0.62888 0.06598 0.0
C801 C 0.63033 0.58594 0.99046 0.0
C802 C 0.60032 0.59662 0.92914 0.0
C803 C 0.63963 0.57929 0.97135 0.0
C804 C 0.58404 0.6461 0.98732 0.0
C805 C 0.58993 0.63614 0.96722 0.0
C806 C 0.61381 0.61985 0.02785 0.0
C807 C 0.62223 0.58989 0.94289 0.0
C808 C 0.61421 0.59903 0.96186 0.0
C809 C 0.59261 0.627 0.01401 0.0
C810 C 0.60006 0.6175 0.99485 0.0
H811 H 0.63253 0.57685 0.80535 0.0
H812 H 0.61689 0.58901 0.83813 0.0
H813 H 0.63181 0.61337 0.03625 0.0
H814 H 0.58021 0.63741 0.15244 0.0
H815 H 0.59074 0.62046 0.11732 0.0
C816 C 0.4407 0.06712 0.92419 0.0
C817 C 0.43458 0.07654 0.94954 0.0
C818 C 0.43422 0.05123 0.94341 0.0
C819 C 0.40859 0.02101 0.06611 0.0
H820 H 0.39909 0.99172 0.91939 0.0
C821 C 0.36586 0.94991 0.00941 0.0
C822 C 0.36911 0.94341 0.06551 0.0
C823 C 0.37512 0.9662 0.99535 0.0
C824 C 0.40163 -0.00025 0.9608 0.0
H825 H 0.41753 0.07693 0.01815 0.0
H826 H 0.40611 0.04901 0.05163 0.0
H827 H 0.41305 0.0204 0.89892 0.0
H828 H 0.38515 0.94889 0.14909 0.0
H829 H 0.40128 0.9772 0.12411 0.0
H830 H 0.3968 0.00028 0.12774 0.0
C831 C 0.41597 0.05401 0.01692 0.0
C832 C 0.40977 0.01617 0.94925 0.0
C833 C 0.42249 0.06998 0.99773 0.0
C834 C 0.38221 0.95347 0.10569 0.0
C835 C 0.39141 0.96974 0.09173 0.0
C836 C 0.40049 0.00456 0.07771 0.0
C837 C 0.42146 0.04437 0.98836 0.0
C838 C 0.41329 0.02697 1.00172 0.0
C839 C 0.38779 0.97632 0.03713 0.0
C840 C 0.39687 0.99377 0.02509 0.0
H841 H 0.45019 0.07187 0.88777 0.0
H842 H 0.43895 0.0442 0.92178 0.0
H843 H 0.41119 0.02905 0.10748 0.0
H844 H 0.35587 0.94253 0.9774 0.0
H845 H 0.372 0.97096 0.95306 0.0
C846 C 0.62584 0.06208 0.92439 0.0
C847 C 0.641 0.07206 0.95197 0.0
C848 C 0.61622 0.04657 0.94774 0.0
C849 C 0.60507 0.01167 0.97003 0.0
H850 H 0.60062 -0.0002 0.15522 0.0
C851 C 0.58302 0.94728 0.05937 0.0
C852 C 0.57301 0.94186 0.11522 0.0
C853 C 0.58975 0.96313 0.03856 0.0
C854 C 0.60161 0.00295 0.10333 0.0
H855 H 0.65759 0.07377 0.0281 0.0
H856 H 0.64075 0.04654 0.06871 0.0
H857 H 0.61524 0.028 0.12422 0.0
H858 H 0.56166 0.94872 0.19105 0.0
H859 H 0.57335 0.97631 0.1543 0.0
H860 H 0.59149 0.98666 0.94904 0.0
C861 C 0.63632 0.05082 0.02911 0.0
C862 C 0.61012 0.01907 0.08561 0.0
C863 C 0.64598 0.0664 0.00575 0.0
C864 C 0.56937 0.95249 0.14804 0.0
C865 C 0.57616 0.96834 0.12734 0.0
C866 C 0.59663 -0.00443 0.98771 0.0
C867 C 0.62151 0.04063 0.99919 0.0
C868 C 0.612 0.02359 0.01875 0.0
C869 C 0.58665 0.9739 0.07317 0.0
C870 C 0.59489 0.99102 0.0545 0.0
H871 H 0.6215 0.0661 0.88351 0.0
H872 H 0.60472 0.03911 0.92464 0.0
H873 H 0.60648 0.01476 0.91801 0.0
H874 H 0.58608 0.93945 0.03287 0.0
H875 H 0.59788 0.9671 0.99686 0.0
C876 C 0.06641 0.64233 0.02524 0.0
C877 C 0.07019 0.64391 0.09282 0.0
C878 C 0.0508 0.63187 1.00424 0.0
C879 C 0.01115 0.59904 0.064 0.0
H880 H -0.00479 0.61375 0.92034 0.0
C881 C 0.94461 0.57944 0.01214 0.0
C882 C 0.93961 0.57512 0.94637 0.0
C883 C 0.96062 0.58545 0.02928 0.0
C884 C -0.00043 0.60945 0.96016 0.0
H885 H 0.06066 0.63574 0.19136 0.0
H886 H 0.03352 0.61821 0.15536 0.0
H887 H 0.02332 0.62896 0.94985 0.0
H888 H 0.94741 0.57311 0.84767 0.0
H889 H 0.97528 0.58392 0.87769 0.0
H890 H 0.98699 0.57999 0.07616 0.0
C891 C 0.04256 0.6245 0.11802 0.0
C892 C 0.01571 0.61807 0.97683 0.0
C893 C 0.05816 0.63468 0.13881 0.0
C894 C 0.95081 0.57633 0.89881 0.0
C895 C 0.96679 0.58256 0.91575 0.0
C896 C -0.00507 0.59059 0.04811 0.0
C897 C 0.03862 0.62304 0.05053 0.0
C898 C 0.0217 0.61308 0.02938 0.0
C899 C 0.97187 0.58744 0.98073 0.0
C900 C 0.98904 0.5958 0.99632 0.0
H901 H 0.07548 0.64919 0.98867 0.0
H902 H 0.04829 0.63082 0.95174 0.0
H903 H 0.01537 0.59461 0.10383 0.0
H904 H 0.93627 0.57858 0.04992 0.0
H905 H 0.96436 0.58922 0.07975 0.0
C906 C 0.38451 0.4416 0.15069 0.0
C907 C 0.36895 0.43732 0.13064 0.0
C908 C 0.39263 0.43468 0.12109 0.0
C909 C 0.38517 0.39854 0.03223 0.0
H910 H 0.43082 0.42259 1.00047 0.0
C911 C 0.42134 0.36735 0.97647 0.0
C912 C 0.4326 0.37382 0.92499 0.0
C913 C 0.41411 0.37569 1.00122 0.0
C914 C 0.41805 0.41573 0.00864 0.0
H915 H 0.34996 0.42281 0.06173 0.0
H916 H 0.36426 0.41083 0.00951 0.0
H917 H 0.41699 0.43643 0.03811 0.0
H918 H 0.44547 0.39444 0.86084 0.0
H919 H 0.43279 0.40886 0.90371 0.0
H920 H 0.38619 0.37788 1.00187 0.0
C921 C 0.37005 0.41939 0.04896 0.0
C922 C 0.41015 0.42363 0.0307 0.0
C923 C 0.36191 0.42635 0.07856 0.0
C924 C 0.43686 0.38907 0.9005 0.0
C925 C 0.42962 0.39739 0.92523 0.0
C926 C 0.39307 0.39064 0.01016 0.0
C927 C 0.3854 0.42332 0.07063 0.0
C928 C 0.39364 0.41511 0.04317 0.0
C929 C 0.41798 0.39069 0.97511 0.0
C930 C 0.40962 0.39912 0.99853 0.0
H931 H 0.39036 0.45005 0.19047 0.0
H932 H 0.40437 0.43785 0.13944 0.0
H933 H 0.37247 0.39161 0.04209 0.0
H934 H 0.41782 0.35567 0.99673 0.0
H935 H 0.4054 0.37034 0.04054 0.0
C936 C 0.05908 0.21569 0.44203 0.0
C937 C 0.05886 0.22734 0.48293 0.0
C938 C 0.07337 0.21603 0.42857 0.0
C939 C 0.11731 0.24087 0.43853 0.0
H940 H 0.11496 0.2 0.4653 0.0
C941 C 0.17185 0.23446 0.50047 0.0
C942 C 0.17274 0.22156 0.47298 0.0
C943 C 0.15835 0.23589 0.49072 0.0
C944 C 0.11579 0.21145 0.45641 0.0
H945 H 0.07357 0.24895 0.53905 0.0
H946 H 0.09855 0.24935 0.51655 0.0
H947 H 0.09062 0.20149 0.4666 0.0
H948 H 0.16033 0.20034 0.41185 0.0
H949 H 0.1368 0.20293 0.39475 0.0
H950 H 0.14261 0.25085 0.43015 0.0
C951 C 0.08766 0.24006 0.49433 0.0
C952 C 0.10184 0.21231 0.45714 0.0
C953 C 0.07335 0.23977 0.50756 0.0
C954 C 0.15998 0.21034 0.43429 0.0
C955 C 0.14649 0.21179 0.42451 0.0
C956 C 0.13129 0.24001 0.4378 0.0
C957 C 0.08774 0.22798 0.45597 0.0
C958 C 0.10248 0.22705 0.44913 0.0
C959 C 0.14548 0.22449 0.45323 0.0
C960 C 0.13067 0.22532 0.44773 0.0
H961 H 0.04816 0.2061 0.42125 0.0
H962 H 0.07312 0.20674 0.39778 0.0
H963 H 0.1181 0.25236 0.43143 0.0
H964 H 0.18147 0.24335 0.53041 0.0
H965 H 0.15782 0.24568 0.51422 0.0
C966 C 0.76695 0.9441 0.49327 0.0
C967 C 0.78085 0.95614 0.46261 0.0
C968 C 0.76351 0.92825 0.49225 0.0
C969 C 0.77464 0.9007 0.41195 0.0
H970 H 0.7659 0.88052 0.5846 0.0
C971 C 0.79273 0.8548 0.48247 0.0
C972 C 0.78222 0.84146 0.52047 0.0
C973 C 0.78926 0.86688 0.4693 0.0
C974 C 0.76801 0.88583 0.5358 0.0
H975 H 0.80158 0.9608 0.40398 0.0
H976 H 0.79568 0.93328 0.40306 0.0
H977 H 0.76531 0.90525 0.57027 0.0
H978 H 0.75976 0.83032 0.57423 0.0
H979 H 0.75382 0.85166 0.55166 0.0
H980 H 0.77805 0.88163 0.37833 0.0
C981 C 0.78736 0.93604 0.42736 0.0
C982 C 0.76764 0.89997 0.52752 0.0
C983 C 0.79082 0.95187 0.42844 0.0
C984 C 0.76812 0.84046 0.54491 0.0
C985 C 0.76471 0.85265 0.53209 0.0
C986 C 0.77505 0.88659 0.42029 0.0
C987 C 0.77384 0.92412 0.46032 0.0
C988 C 0.77146 0.90781 0.46601 0.0
C989 C 0.77525 0.86595 0.49406 0.0
C990 C 0.77224 0.87932 0.48278 0.0
H991 H 0.75894 0.94695 0.51961 0.0
H992 H 0.75292 0.91926 0.51748 0.0
H993 H 0.77733 0.90632 0.3637 0.0
H994 H 0.80366 0.85594 0.46259 0.0
H995 H 0.79773 0.87714 0.4408 0.0
C996 C 0.06932 0.83908 0.54078 0.0
C997 C 0.05587 0.84101 0.5448 0.0
C998 C 0.08459 0.85239 0.5341 0.0
C999 C 0.10474 0.89507 0.48548 0.0
H1000 H 0.14111 0.8975 0.5769 0.0
C1001 C 0.16629 0.95041 0.45742 0.0
C1002 C 0.17555 0.95621 0.51489 0.0
C1003 C 0.15292 0.93517 0.45637 0.0
C1004 C 0.13106 0.89705 0.55138 0.0
H1005 H 0.0479 0.85838 0.54724 0.0
H1006 H 0.07441 0.88148 0.53789 0.0
H1007 H 0.11505 0.87342 0.58651 0.0
H1008 H 0.17852 0.95056 0.61565 0.0
H1009 H 0.15465 0.92414 0.61521 0.0
H1010 H 0.12031 0.91892 0.45357 0.0
C1011 C 0.07322 0.86973 0.53753 0.0
C1012 C 0.11616 0.88316 0.55617 0.0
C1013 C 0.058 0.85647 0.54331 0.0
C1014 C 0.17155 0.94631 0.57071 0.0
C1015 C 0.15793 0.93115 0.57019 0.0
C1016 C 0.11952 0.90898 0.48145 0.0
C1017 C 0.08669 0.86786 0.53202 0.0
C1018 C 0.10278 0.88211 0.52397 0.0
C1019 C 0.14828 0.92552 0.51335 0.0
C1020 C 0.13285 0.91023 0.51473 0.0
H1021 H 0.06802 0.82728 0.54152 0.0
H1022 H 0.0947 0.85052 0.52938 0.0
H1023 H 0.09478 0.89457 0.45888 0.0
H1024 H 0.16932 0.95773 0.41329 0.0
H1025 H 0.14607 0.93107 0.41111 0.0
C1026 C 0.22623 0.16445 0.5137 0.0
C1027 C 0.23509 0.17777 0.47275 0.0
C1028 C 0.23027 0.15253 0.51864 0.0
C1029 C 0.24795 0.13393 0.42156 0.0
H1030 H 0.24347 0.11096 0.58476 0.0
C1031 C 0.24558 0.07301 0.42612 0.0
C1032 C 0.23246 0.0613 0.46196 0.0
C1033 C 0.25011 0.08913 0.43224 0.0
C1034 C 0.24485 0.11732 0.53887 0.0
H1035 H 0.2555 0.18929 0.40664 0.0
H1036 H 0.26241 0.16828 0.41492 0.0
H1037 H 0.244 0.13647 0.58812 0.0
H1038 H 0.21406 0.05743 0.53347 0.0
H1039 H 0.22181 0.08533 0.54325 0.0
H1040 H 0.24796 0.1144 0.37194 0.0
C1041 C 0.25235 0.16713 0.443 0.0
C1042 C 0.24516 0.13188 0.54082 0.0
C1043 C 0.24838 0.17914 0.4384 0.0
C1044 C 0.22418 0.06608 0.50482 0.0
C1045 C 0.22874 0.08213 0.51112 0.0
C1046 C 0.2476 0.11933 0.41958 0.0
C1047 C 0.2432 0.15363 0.48253 0.0
C1048 C 0.2461 0.14001 0.48195 0.0
C1049 C 0.24168 0.09381 0.47471 0.0
C1050 C 0.24541 0.1106 0.47799 0.0
H1051 H 0.216 0.16308 0.54119 0.0
H1052 H 0.22287 0.14214 0.5488 0.0
H1053 H 0.24859 0.13991 0.37538 0.0
H1054 H 0.25226 0.06973 0.3929 0.0
H1055 H 0.26015 0.09793 0.40367 0.0
C1056 C 0.84112 0.07657 0.44187 0.0
C1057 C 0.83971 0.06247 0.46833 0.0
C1058 C 0.85401 0.09141 0.45924 0.0
C1059 C 0.89501 0.10899 0.52047 0.0
H1060 H 0.89185 0.14718 0.54288 0.0
C1061 C 0.95067 0.16811 0.57358 0.0
C1062 C 0.95312 0.18042 0.52982 0.0
C1063 C 0.93562 0.15464 0.57995 0.0
C1064 C 0.89286 0.13658 0.53682 0.0
H1065 H 0.85028 0.05292 0.5361 0.0
H1066 H 0.87254 0.07875 0.56697 0.0
H1067 H 0.86758 0.12136 0.52607 0.0
H1068 H 0.9415 0.18891 0.46255 0.0
H1069 H 0.9152 0.16513 0.47259 0.0
H1070 H 0.92018 0.12407 0.52967 0.0
C1071 C 0.86394 0.07834 0.53158 0.0
C1072 C 0.87902 0.12185 0.52698 0.0
C1073 C 0.85118 0.06353 0.51383 0.0
C1074 C 0.93998 0.17956 0.49635 0.0
C1075 C 0.9249 0.16598 0.50238 0.0
C1076 C 0.90876 0.12362 0.5305 0.0
C1077 C 0.86563 0.09241 0.50373 0.0
C1078 C 0.88001 0.10794 0.51808 0.0
C1079 C 0.92276 0.15315 0.5423 0.0
C1080 C 0.90786 0.13759 0.53818 0.0
H1081 H 0.83244 0.07612 0.40683 0.0
H1082 H 0.8551 0.10205 0.43638 0.0
H1083 H 0.89622 0.09857 0.51235 0.0
H1084 H 0.96051 0.1686 0.60115 0.0
H1085 H 0.93419 0.14505 0.6122 0.0
C1086 C 0.93712 0.77077 0.48092 0.0
C1087 C 0.94938 0.78375 0.51528 0.0
C1088 C 0.92138 0.76763 0.48506 0.0
C1089 C 0.89469 0.77711 0.58255 0.0
H1090 H 0.87353 0.7729 0.41479 0.0
C1091 C 0.84849 0.79682 0.54427 0.0
C1092 C 0.83514 0.78751 0.50416 0.0
C1093 C 0.86056 0.79301 0.55065 0.0
C1094 C 0.87911 0.77374 0.46217 0.0
H1095 H 0.95459 0.80318 0.5831 0.0
H1096 H 0.92733 0.79782 0.58962 0.0
H1097 H 0.89813 0.77173 0.41785 0.0
H1098 H 0.8239 0.7667 0.44017 0.0
H1099 H 0.84511 0.76016 0.45115 0.0
H1100 H 0.87602 0.7798 0.62643 0.0
C1101 C 0.9298 0.78998 0.55994 0.0
C1102 C 0.89319 0.77305 0.46394 0.0
C1103 C 0.94548 0.79315 0.55559 0.0
C1104 C 0.83404 0.77417 0.47129 0.0
C1105 C 0.84618 0.77042 0.47741 0.0
C1106 C 0.88065 0.77784 0.58075 0.0
C1107 C 0.91761 0.77733 0.52407 0.0
C1108 C 0.90137 0.77523 0.52388 0.0
C1109 C 0.85958 0.77985 0.51691 0.0
C1110 C 0.87301 0.77666 0.52027 0.0
H1111 H 0.93972 0.76325 0.44963 0.0
H1112 H 0.91218 0.75775 0.4572 0.0
H1113 H 0.9006 0.77854 0.62961 0.0
H1114 H 0.84971 0.80714 0.5705 0.0
H1115 H 0.87087 0.80064 0.58066 0.0
C1116 C 0.82726 0.55687 0.93748 0.0
C1117 C 0.84344 0.56845 0.93079 0.0
C1118 C 0.81573 0.56141 0.94234 0.0
C1119 C 0.79601 0.57636 0.98891 0.0
H1120 H 0.78953 0.59448 0.82869 0.0
C1121 C 0.739 0.57965 0.94699 0.0
C1122 C 0.73091 0.57115 0.88991 0.0
C1123 C 0.75502 0.58422 0.95666 0.0
C1124 C 0.79137 0.58969 0.87417 0.0
H1125 H 0.86036 0.59382 0.92423 0.0
H1126 H 0.83985 0.60178 0.92997 0.0
H1127 H 0.81413 0.59332 0.84253 0.0
H1128 H 0.73348 0.56161 0.79653 0.0
H1129 H 0.76148 0.56968 0.81336 0.0
H1130 H 0.77297 0.57195 0.01927 0.0
C1131 C 0.83629 0.58924 0.9328 0.0
C1132 C 0.80543 0.58913 0.88222 0.0
C1133 C 0.84793 0.5847 0.92955 0.0
C1134 C 0.73935 0.568 0.84128 0.0
C1135 C 0.75541 0.57278 0.85053 0.0
C1136 C 0.7821 0.57714 0.98136 0.0
C1137 C 0.82013 0.57759 0.93933 0.0
C1138 C 0.8075 0.58185 0.93843 0.0
C1139 C 0.76328 0.58061 0.90891 0.0
C1140 C 0.77938 0.5832 0.92273 0.0
H1141 H 0.82352 0.54427 0.93906 0.0
H1142 H 0.80329 0.55223 0.94657 0.0
H1143 H 0.79742 0.57067 0.03255 0.0
H1144 H 0.73281 0.58228 0.9853 0.0
H1145 H 0.76085 0.59023 1.00209 0.0
C1146 C 0.43364 0.27795 0.87704 0.0
C1147 C 0.44725 0.29017 0.84539 0.0
C1148 C 0.43037 0.26215 0.87461 0.0
C1149 C 0.44059 0.23509 0.7849 0.0
H1150 H 0.4329 0.21328 0.95351 0.0
C1151 C 0.45823 0.18796 0.83541 0.0
C1152 C 0.44817 0.17446 0.87362 0.0
C1153 C 0.45474 0.20017 0.82659 0.0
C1154 C 0.4347 0.21905 0.90582 0.0
H1155 H 0.46775 0.29522 0.78442 0.0
H1156 H 0.46211 0.26778 0.78073 0.0
H1157 H 0.43271 0.23839 0.94681 0.0
H1158 H 0.42638 0.16313 0.93185 0.0
H1159 H 0.42037 0.1847 0.91678 0.0
H1160 H 0.4432 0.21608 0.74446 0.0
C1161 C 0.4539 0.27038 0.80696 0.0
C1162 C 0.43459 0.23342 0.90196 0.0
C1163 C 0.45721 0.28615 0.80963 0.0
C1164 C 0.43439 0.17338 0.90223 0.0
C1165 C 0.43096 0.18572 0.89376 0.0
C1166 C 0.44071 0.22075 0.78877 0.0
C1167 C 0.44056 0.25824 0.84007 0.0
C1168 C 0.43805 0.24183 0.84188 0.0
C1169 C 0.44113 0.19924 0.85593 0.0
C1170 C 0.43828 0.21286 0.84969 0.0
H1171 H 0.42567 0.28061 0.90482 0.0
H1172 H 0.41995 0.25301 0.90019 0.0
H1173 H 0.44298 0.24117 0.73768 0.0
H1174 H 0.4689 0.18917 0.81233 0.0
H1175 H 0.46295 0.21056 0.7981 0.0
C1176 C 0.72991 0.18193 0.82692 0.0
C1177 C 0.7264 0.16867 0.86689 0.0
C1178 C 0.7456 0.19417 0.81845 0.0
C1179 C 0.78386 0.21369 0.9024 0.0
H1180 H 0.79868 0.23582 0.73471 0.0
C1181 C 0.84342 0.27307 0.87923 0.0
C1182 C 0.84226 0.28517 0.84528 0.0
C1183 C 0.83103 0.25723 0.87616 0.0
C1184 C 0.79471 0.22975 0.78184 0.0
H1185 H 0.73671 0.15768 0.92803 0.0
H1186 H 0.7643 0.17931 0.9136 0.0
H1187 H 0.77363 0.21045 0.73941 0.0
H1188 H 0.82734 0.28995 0.77982 0.0
H1189 H 0.80573 0.26242 0.77517 0.0
H1190 H 0.8046 0.2333 0.94535 0.0
C1191 C 0.75479 0.18013 0.88899 0.0
C1192 C 0.78041 0.21524 0.78451 0.0
C1193 C 0.73902 0.16776 0.89708 0.0
C1194 C 0.82863 0.28098 0.80676 0.0
C1195 C 0.81629 0.26515 0.80359 0.0
C1196 C 0.79817 0.22823 0.89976 0.0
C1197 C 0.75819 0.1935 0.84992 0.0
C1198 C 0.77459 0.20732 0.84516 0.0
C1199 C 0.81727 0.25314 0.83885 0.0
C1200 C 0.80348 0.23665 0.83979 0.0
H1201 H 0.72051 0.18298 0.80249 0.0
H1202 H 0.74782 0.20442 0.78886 0.0
H1203 H 0.7796 0.20792 0.94992 0.0
H1204 H 0.85378 0.27585 0.9091 0.0
H1205 H 0.83217 0.24819 0.90339 0.0
C1206 C 0.89892 0.50785 0.80626 0.0
C1207 C 0.88598 0.50743 0.84002 0.0
C1208 C 0.90098 0.49453 0.80637 0.0
C1209 C 0.88935 0.45728 0.8982 0.0
H1210 H 0.89874 0.44295 0.73386 0.0
C1211 C 0.87803 0.39359 0.86192 0.0
C1212 C 0.88941 0.39153 0.82669 0.0
C1213 C 0.87937 0.40861 0.86628 0.0
C1214 C 0.89636 0.44695 0.78032 0.0
H1215 H 0.86505 0.4926 0.9001 0.0
H1216 H 0.86857 0.46946 0.89949 0.0
H1217 H 0.89793 0.46779 0.73589 0.0
H1218 H 0.91128 0.40375 0.76912 0.0
H1219 H 0.91357 0.42999 0.77691 0.0
H1220 H 0.88744 0.43628 0.94232 0.0
C1221 C 0.87726 0.48015 0.87385 0.0
C1222 C 0.8959 0.46116 0.78149 0.0
C1223 C 0.87518 0.4934 0.87372 0.0
C1224 C 0.90228 0.40489 0.79656 0.0
C1225 C 0.90357 0.41992 0.80071 0.0
C1226 C 0.88978 0.44308 0.89701 0.0
C1227 C 0.89019 0.48057 0.84037 0.0
C1228 C 0.8921 0.4663 0.84019 0.0
C1229 C 0.89209 0.4219 0.83539 0.0
C1230 C 0.89302 0.43763 0.83783 0.0
H1231 H 0.90749 0.51847 0.77993 0.0
H1232 H 0.91112 0.49522 0.78047 0.0
H1233 H 0.8867 0.46112 0.94446 0.0
H1234 H 0.86798 0.38358 0.8858 0.0
H1235 H 0.87023 0.40974 0.89264 0.0
C1236 C 0.50715 0.40932 0.78231 0.0
C1237 C 0.50632 0.39644 0.81812 0.0
C1238 C 0.52118 0.42415 0.7821 0.0
C1239 C 0.55917 0.44817 0.87146 0.0
H1240 H 0.57526 0.4683 0.70099 0.0
C1241 C 0.6248 0.49518 0.83175 0.0
C1242 C 0.62824 0.50879 0.79432 0.0
C1243 C 0.60928 0.48228 0.83498 0.0
C1244 C 0.57082 0.46294 0.74903 0.0
H1245 H 0.51941 0.38924 0.88356 0.0
H1246 H 0.54379 0.41499 0.8827 0.0
H1247 H 0.54885 0.44454 0.70842 0.0
H1248 H 0.61804 0.51935 0.72978 0.0
H1249 H 0.5909 0.49673 0.73556 0.0
H1250 H 0.58124 0.46636 0.91189 0.0
C1251 C 0.53359 0.41367 0.8552 0.0
C1252 C 0.55569 0.44937 0.75332 0.0
C1253 C 0.51963 0.39886 0.85528 0.0
C1254 C 0.61583 0.50905 0.75906 0.0
C1255 C 0.60028 0.4961 0.76219 0.0
C1256 C 0.57427 0.46171 0.86716 0.0
C1257 C 0.53458 0.4264 0.81798 0.0
C1258 C 0.54985 0.44169 0.81442 0.0
C1259 C 0.59684 0.48267 0.8008 0.0
C1260 C 0.58036 0.46905 0.80574 0.0
H1261 H 0.49711 0.40788 0.75329 0.0
H1262 H 0.52157 0.43382 0.75351 0.0
H1263 H 0.55485 0.44266 0.91936 0.0
H1264 H 0.63404 0.49452 0.85936 0.0
H1265 H 0.60702 0.47196 0.86415 0.0
C1266 C 0.61705 0.1313 0.88321 0.0
C1267 C 0.61992 0.1207 0.84599 0.0
C1268 C 0.60174 0.12919 0.88752 0.0
C1269 C 0.56404 0.112 0.79761 0.0
H1270 H 0.54869 0.12078 0.96067 0.0
C1271 C 0.50389 0.11103 0.81356 0.0
C1272 C 0.5046 0.12429 0.84562 0.0
C1273 C 0.51668 0.10819 0.81755 0.0
C1274 C 0.55284 0.11832 0.91477 0.0
H1275 H 0.60878 0.09933 0.7852 0.0
H1276 H 0.58196 0.09569 0.79285 0.0
H1277 H 0.57345 0.11986 0.96103 0.0
H1278 H 0.51923 0.14478 0.90802 0.0
H1279 H 0.5415 0.13987 0.91435 0.0
H1280 H 0.54365 0.11088 0.751 0.0
C1281 C 0.59166 0.10569 0.81826 0.0
C1282 C 0.56699 0.11779 0.91498 0.0
C1283 C 0.60701 0.10776 0.81411 0.0
C1284 C 0.51826 0.13447 0.88259 0.0
C1285 C 0.53099 0.13158 0.88673 0.0
C1286 C 0.54987 0.11253 0.7974 0.0
C1287 C 0.58891 0.11645 0.85469 0.0
C1288 C 0.57293 0.11501 0.8561 0.0
C1289 C 0.53038 0.11848 0.85395 0.0
C1290 C 0.54434 0.11607 0.85569 0.0
H1291 H 0.62668 0.14138 0.90858 0.0
H1292 H 0.60004 0.13783 0.91517 0.0
H1293 H 0.56841 0.10998 0.75135 0.0
H1294 H 0.49352 0.10291 0.78485 0.0
H1295 H 0.51584 0.09792 0.79221 0.0
C1296 C 0.48774 0.87437 0.22455 0.0
C1297 C 0.50286 0.88799 0.2313 0.0
C1298 C 0.47419 0.87585 0.21877 0.0
C1299 C 0.45909 0.90414 0.24028 0.0
H1300 H 0.42632 0.8744 0.12114 0.0
C1301 C 0.39516 0.88944 0.11226 0.0
C1302 C 0.38788 0.89204 0.16715 0.0
C1303 C 0.41024 0.89101 0.11806 0.0
C1304 C 0.43544 0.88301 0.15372 0.0
H1305 H 0.51573 0.91382 0.23835 0.0
H1306 H 0.49208 0.91649 0.2257 0.0
H1307 H 0.45053 0.87323 0.13538 0.0
H1308 H 0.3907 0.89872 0.27064 0.0
H1309 H 0.41673 0.90074 0.28182 0.0
H1310 H 0.44419 0.91434 0.25633 0.0
C1311 C 0.49062 0.90463 0.22655 0.0
C1312 C 0.44923 0.88212 0.16294 0.0
C1313 C 0.50418 0.90312 0.23354 0.0
C1314 C 0.39612 0.89671 0.22749 0.0
C1315 C 0.41108 0.89796 0.23371 0.0
C1316 C 0.44535 0.90519 0.23025 0.0
C1317 C 0.47549 0.891 0.21822 0.0
C1318 C 0.46112 0.89249 0.20706 0.0
C1319 C 0.41819 0.89483 0.17932 0.0
C1320 C 0.43329 0.89452 0.18733 0.0
H1321 H 0.48637 0.86254 0.22366 0.0
H1322 H 0.46268 0.86507 0.21439 0.0
H1323 H 0.46797 0.91226 0.27494 0.0
H1324 H 0.38914 0.88607 0.06489 0.0
H1325 H 0.41554 0.88897 0.07466 0.0
C1326 C 0.10832 0.61533 0.23289 0.0
C1327 C 0.12123 0.62761 0.19809 0.0
C1328 C 0.10507 0.59957 0.22815 0.0
C1329 C 0.11275 0.57304 0.12238 0.0
H1330 H 0.10592 0.54839 0.28266 0.0
C1331 C 0.12594 0.52175 0.14127 0.0
C1332 C 0.11587 0.50829 0.17961 0.0
C1333 C 0.12352 0.53479 0.13864 0.0
C1334 C 0.10748 0.55498 0.23732 0.0
H1335 H 0.1409 0.6329 0.13135 0.0
H1336 H 0.13533 0.60554 0.12387 0.0
H1337 H 0.10754 0.57437 0.28871 0.0
H1338 H 0.09499 0.49774 0.24341 0.0
H1339 H 0.09082 0.52064 0.23881 0.0
H1340 H 0.1132 0.55389 0.07129 0.0
C1341 C 0.12757 0.60806 0.15395 0.0
C1342 C 0.10843 0.56986 0.2408 0.0
C1343 C 0.13085 0.62378 0.15879 0.0
C1344 C 0.103 0.50795 0.21358 0.0
C1345 C 0.10064 0.52106 0.21121 0.0
C1346 C 0.11181 0.55819 0.1189 0.0
C1347 C 0.11462 0.59579 0.18828 0.0
C1348 C 0.11152 0.57921 0.18361 0.0
C1349 C 0.111 0.53468 0.1744 0.0
C1350 C 0.1096 0.54922 0.17658 0.0
H1351 H 0.10064 0.61786 0.26347 0.0
H1352 H 0.09499 0.59031 0.255 0.0
H1353 H 0.11481 0.57986 0.07731 0.0
H1354 H 0.13591 0.52239 0.11421 0.0
H1355 H 0.13182 0.5452 0.11049 0.0
C1356 C 0.50293 0.61744 0.10775 0.0
C1357 C 0.51251 0.62468 0.16336 0.0
C1358 C 0.49024 0.6018 0.11131 0.0
C1359 C 0.45763 0.57535 0.14662 0.0
H1360 H 0.45569 0.54292 0.26541 0.0
C1361 C 0.39803 0.52557 0.24083 0.0
C1362 C 0.39566 0.51006 0.24655 0.0
C1363 C 0.41314 0.53841 0.22768 0.0
C1364 C 0.4561 0.55176 0.23131 0.0
H1365 H 0.51684 0.62118 0.26547 0.0
H1366 H 0.49417 0.59414 0.27296 0.0
H1367 H 0.48132 0.56684 0.2434 0.0
H1368 H 0.40733 0.49585 0.24421 0.0
H1369 H 0.43385 0.51841 0.2197 0.0
H1370 H 0.43257 0.56024 0.13333 0.0
C1371 C 0.49668 0.60029 0.22591 0.0
C1372 C 0.47075 0.56555 0.21929 0.0
C1373 C 0.5096 0.61583 0.22187 0.0
C1374 C 0.40882 0.5077 0.24023 0.0
C1375 C 0.42399 0.5206 0.22633 0.0
C1376 C 0.4431 0.56154 0.15798 0.0
C1377 C 0.48662 0.59322 0.17107 0.0
C1378 C 0.47161 0.57768 0.17796 0.0
C1379 C 0.42624 0.53606 0.21901 0.0
C1380 C 0.44207 0.54981 0.2019 0.0
H1381 H 0.50514 0.62393 0.06164 0.0
H1382 H 0.48303 0.59659 0.06757 0.0
H1383 H 0.45772 0.58446 0.11517 0.0
H1384 H 0.38819 0.52783 0.24643 0.0
H1385 H 0.41455 0.55023 0.2243 0.0
C1386 C 0.55509 0.73345 0.14576 0.0
C1387 C 0.56288 0.72926 0.0978 0.0
C1388 C 0.559 0.74928 0.15395 0.0
C1389 C 0.57404 0.78676 0.06729 0.0
H1390 H 0.57667 0.80322 0.24465 0.0
C1391 C 0.57549 0.84634 0.1158 0.0
C1392 C 0.56417 0.84506 0.16285 0.0
C1393 C 0.57932 0.83424 0.10953 0.0
C1394 C 0.57601 0.79881 0.19483 0.0
H1395 H 0.58089 0.73849 0.02054 0.0
H1396 H 0.58753 0.76635 0.03433 0.0
H1397 H 0.57608 0.7779 0.22903 0.0
H1398 H 0.5485 0.83035 0.24192 0.0
H1399 H 0.55506 0.80929 0.23057 0.0
H1400 H 0.5732 0.80729 0.03326 0.0
C1401 C 0.57847 0.75724 0.0657 0.0
C1402 C 0.57571 0.78437 0.18591 0.0
C1403 C 0.57467 0.74133 0.05789 0.0
C1404 C 0.55721 0.83171 0.20496 0.0
C1405 C 0.56109 0.81969 0.19888 0.0
C1406 C 0.57431 0.80123 0.07623 0.0
C1407 C 0.57072 0.76133 0.11418 0.0
C1408 C 0.57413 0.77793 0.12226 0.0
C1409 C 0.572 0.82071 0.15051 0.0
C1410 C 0.57471 0.80708 0.14027 0.0
H1411 H 0.546 0.72451 0.17764 0.0
H1412 H 0.55262 0.75205 0.19088 0.0
H1413 H 0.57275 0.78201 0.01773 0.0
H1414 H 0.58113 0.85649 0.08271 0.0
H1415 H 0.58785 0.83537 0.07213 0.0
C1416 C 0.27861 0.83229 0.13246 0.0
C1417 C 0.28427 0.84436 0.08417 0.0
C1418 C 0.26246 0.82099 0.13616 0.0
C1419 C 0.22685 0.79993 0.03775 0.0
H1420 H 0.20666 0.7865 0.20981 0.0
C1421 C 0.16638 0.74191 0.07399 0.0
C1422 C 0.16711 0.73196 0.12305 0.0
C1423 C 0.17842 0.75789 0.06912 0.0
C1424 C 0.21209 0.79018 0.16138 0.0
H1425 H 0.27739 0.85399 1.00165 0.0
H1426 H 0.24897 0.83381 0.00745 0.0
H1427 H 0.2325 0.81089 0.2002 0.0
H1428 H 0.18066 0.73117 0.2071 0.0
H1429 H 0.20157 0.75889 0.19837 0.0
H1430 H 0.20684 0.77874 0.99948 0.0
C1431 C 0.25716 0.83332 0.04263 0.0
C1432 C 0.22684 0.80411 0.1559 0.0
C1433 C 0.27338 0.84482 0.03939 0.0
C1434 C 0.17978 0.73846 0.16845 0.0
C1435 C 0.19169 0.75441 0.16391 0.0
C1436 C 0.21208 0.78593 0.04326 0.0
C1437 C 0.25158 0.82139 0.0914 0.0
C1438 C 0.23464 0.80874 0.09451 0.0
C1439 C 0.19125 0.76423 0.11373 0.0
C1440 C 0.20491 0.7806 0.10559 0.0
H1441 H 0.28663 0.83162 0.16801 0.0
H1442 H 0.25851 0.81173 0.17348 0.0
H1443 H 0.23267 0.80324 0.9899 0.0
H1444 H 0.15675 0.73726 0.03831 0.0
H1445 H 0.17779 0.76524 0.03009 0.0
C1446 C 0.27685 0.44508 0.19054 0.0
C1447 C 0.28918 0.45695 0.22899 0.0
C1448 C 0.26179 0.4438 0.189 0.0
C1449 C 0.24393 0.46903 0.21176 0.0
H1450 H 0.20345 0.42933 0.20952 0.0
C1451 C 0.18493 0.46899 0.22167 0.0
C1452 C 0.1728 0.45877 0.17801 0.0
C1453 C 0.19838 0.46749 0.23109 0.0
C1454 C 0.21468 0.44049 0.2095 0.0
H1455 H 0.29504 0.47605 0.29952 0.0
H1456 H 0.26882 0.47368 0.29719 0.0
H1457 H 0.22833 0.42871 0.22209 0.0
H1458 H 0.16511 0.43863 0.11139 0.0
H1459 H 0.18886 0.43621 0.12721 0.0
H1460 H 0.23049 0.48085 0.19841 0.0
C1461 C 0.27089 0.46562 0.26708 0.0
C1462 C 0.22889 0.44013 0.21679 0.0
C1463 C 0.2859 0.46693 0.26853 0.0
C1464 C 0.17426 0.44672 0.14525 0.0
C1465 C 0.18781 0.44527 0.15456 0.0
C1466 C 0.2298 0.46939 0.20438 0.0
C1467 C 0.25882 0.45435 0.22596 0.0
C1468 C 0.24364 0.45443 0.21849 0.0
C1469 C 0.20011 0.45581 0.19687 0.0
C1470 C 0.21502 0.45515 0.20366 0.0
H1471 H 0.27896 0.43717 0.15965 0.0
H1472 H 0.25272 0.43503 0.1567 0.0
H1473 H 0.25514 0.48023 0.21121 0.0
H1474 H 0.18411 0.47825 0.24849 0.0
H1475 H 0.20751 0.47558 0.26508 0.0
C1476 C 0.99055 0.20669 0.24001 0.0
C1477 C -0.00094 0.20323 0.28728 0.0
C1478 C -0.00846 0.20394 0.17288 0.0
C1479 C 0.01872 0.20248 0.05204 0.0
H1480 H 0.98223 0.18744 0.93501 0.0
C1481 C 0.0024 0.19374 0.75335 0.0
C1482 C 0.01384 0.20909 0.73144 0.0
C1483 C 0.00069 0.19001 0.82101 0.0
C1484 C -0.00749 0.19143 0.96697 0.0
H1485 H 0.01503 0.19379 0.30091 0.0
H1486 H 0.01695 0.18918 0.18284 0.0
H1487 H 0.97823 0.18578 0.0547 0.0
H1488 H 0.03295 0.23225 0.7632 0.0
H1489 H 0.03007 0.22572 0.88031 0.0
H1490 H 0.03305 0.20862 0.96429 0.0
C1491 C 0.00946 0.19399 0.19822 0.0
C1492 C 0.99024 0.19061 0.03553 0.0
C1493 C 0.0083 0.19656 0.2658 0.0
C1494 C 0.02395 0.22035 0.77832 0.0
C1495 C 0.02239 0.21656 0.84554 0.0
C1496 C 0.02101 0.20342 0.98347 0.0
C1497 C 0.0012 0.1978 0.15099 0.0
C1498 C 0.00335 0.19649 0.07882 0.0
C1499 C 0.01057 0.20146 0.86789 0.0
C1500 C 0.00797 0.19827 0.94016 0.0
H1501 H 0.98324 0.21176 0.25476 0.0
H1502 H 0.98518 0.20719 0.13781 0.0
H1503 H 0.02908 0.20719 0.084 0.0
H1504 H -0.00561 0.18482 0.71853 0.0
H1505 H -0.00848 0.17824 0.83675 0.0
C1506 C 0.82602 0.8277 0.27287 0.0
C1507 C 0.81025 0.8179 0.29491 0.0
C1508 C 0.82912 0.83199 0.2058 0.0
C1509 C 0.81002 0.83488 0.05248 0.0
H1510 H 0.83579 0.82074 0.9589 0.0
C1511 C 0.79524 0.81089 0.79206 0.0
C1512 C 0.80724 0.81572 0.74357 0.0
C1513 C 0.79909 0.81521 0.85795 0.0
C1514 C 0.82887 0.82512 0.98437 0.0
H1515 H 0.78539 0.80556 0.26545 0.0
H1516 H 0.79071 0.81336 0.1498 0.0
H1517 H 0.8364 0.82186 0.08024 0.0
H1518 H 0.83284 0.82873 0.72739 0.0
H1519 H 0.83962 0.83605 0.84447 0.0
H1520 H 0.80181 0.83733 0.95739 0.0
C1521 C 0.80071 0.81766 0.18358 0.0
C1522 C 0.82923 0.82577 0.05374 0.0
C1523 C 0.79766 0.81312 0.24976 0.0
C1524 C 0.82331 0.82483 0.76338 0.0
C1525 C 0.8272 0.82902 0.83023 0.0
C1526 C 0.80968 0.83426 0.98355 0.0
C1527 C 0.81645 0.82688 0.16049 0.0
C1528 C 0.81924 0.82998 0.0884 0.0
C1529 C 0.81505 0.82441 0.87789 0.0
C1530 C 0.81853 0.82867 0.9489 0.0
H1531 H 0.83593 0.83141 0.30672 0.0
H1532 H 0.84136 0.83909 0.18917 0.0
H1533 H 0.80237 0.83839 0.0779 0.0
H1534 H 0.78272 0.80388 0.77923 0.0
H1535 H 0.78948 0.8112 0.89366 0.0
C1536 C 0.19275 0.01394 0.23992 0.0
C1537 C 0.20051 0.00569 0.26103 0.0
C1538 C 0.1893 0.01421 0.17273 0.0
C1539 C 0.18419 -0.00584 0.01296 0.0
H1540 H 0.20649 0.03652 0.93526 0.0
C1541 C 0.216 0.02077 0.75416 0.0
C1542 C 0.20376 0.01225 0.70817 0.0
C1543 C 0.21243 0.02118 0.82082 0.0
C1544 C 0.19998 0.02464 0.95639 0.0
H1545 H 0.20984 0.99052 0.22958 0.0
H1546 H 0.20326 0.99049 0.11295 0.0
H1547 H 0.20486 0.03351 0.05585 0.0
H1548 H 0.17816 -0.00216 0.6953 0.0
H1549 H 0.17191 -0.00189 0.81297 0.0
H1550 H 0.17975 0.98527 0.91352 0.0
C1551 C 0.20004 -0.00311 0.14795 0.0
C1552 C 0.19898 0.02292 0.02523 0.0
C1553 C 0.20385 -0.00305 0.21459 0.0
C1554 C 0.1878 0.00463 0.72968 0.0
C1555 C 0.18424 0.0047 0.79687 0.0
C1556 C 0.18491 -0.00411 0.94413 0.0
C1557 C 0.19315 0.00587 0.12607 0.0
C1558 C 0.19152 0.00765 0.0541 0.0
C1559 C 0.19656 0.01276 0.84316 0.0
C1560 C 0.19325 0.01113 0.91523 0.0
H1561 H 0.1902 0.0209 0.27466 0.0
H1562 H 0.184 0.02123 0.15697 0.0
H1563 H 0.17839 0.98226 0.03407 0.0
H1564 H 0.22841 0.02673 0.73886 0.0
H1565 H 0.22216 0.02735 0.85552 0.0
C1566 C 0.01098 0.80593 0.80458 0.0
C1567 C 0.00426 0.81117 0.75585 0.0
C1568 C 0.01141 0.81022 0.87052 0.0
C1569 C -0.00766 0.82103 0.99711 0.0
H1570 H 0.03251 0.83496 0.0879 0.0
C1571 C -0.00155 0.82488 0.28484 0.0
C1572 C 0.00489 0.81555 0.3076 0.0
C1573 C -0.00053 0.82891 0.21749 0.0
C1574 C 0.02124 0.83125 0.06326 0.0
H1575 H -0.0078 0.82473 0.73942 0.0
H1576 H -0.00736 0.83197 0.85648 0.0
H1577 H 0.03145 0.833 0.96759 0.0
H1578 H 0.01809 0.8038 0.27928 0.0
H1579 H 0.02025 0.81112 0.16322 0.0
H1580 H 0.98197 0.8184 0.09357 0.0
C1581 C -0.00225 0.82466 0.8424 0.0
C1582 C 0.02064 0.83012 0.99445 0.0
C1583 C -0.00249 0.82051 0.77556 0.0
C1584 C 0.01304 0.81104 0.26299 0.0
C1585 C 0.01434 0.81529 0.19654 0.0
C1586 C -0.00706 0.82214 0.06638 0.0
C1587 C 0.00501 0.81978 0.89018 0.0
C1588 C 0.00606 0.82434 0.96087 0.0
C1589 C 0.0073 0.82398 0.17261 0.0
C1590 C 0.00728 0.82659 0.10018 0.0
H1591 H 0.01627 0.7987 0.79185 0.0
H1592 H 0.01679 0.80602 0.90644 0.0
H1593 H 0.98095 0.81653 0.97239 0.0
H1594 H -0.00804 0.82835 0.31829 0.0
H1595 H -0.00606 0.8356 0.20029 0.0
C1596 C 0.19373 0.19011 0.23041 0.0
C1597 C 0.2093 0.20144 0.25053 0.0
C1598 C 0.19032 0.18611 0.16325 0.0
C1599 C 0.2103 0.18671 0.00709 0.0
H1600 H 0.17743 0.19127 0.91679 0.0
C1601 C 0.21701 0.20845 0.74288 0.0
C1602 C 0.20427 0.201 0.69809 0.0
C1603 C 0.21497 0.20397 0.80915 0.0
C1604 C 0.1864 0.18956 0.94151 0.0
H1605 H 0.23341 0.21742 0.21529 0.0
H1606 H 0.22748 0.21043 0.09993 0.0
H1607 H 0.17851 0.19188 0.03817 0.0
H1608 H 0.1794 0.18285 0.68741 0.0
H1609 H 0.17567 0.17522 0.80531 0.0
H1610 H 0.21877 0.18531 0.91097 0.0
C1611 C 0.21793 0.20455 0.13571 0.0
C1612 C 0.18703 0.18992 0.01086 0.0
C1613 C 0.22128 0.20866 0.20207 0.0
C1614 C 0.18942 0.18872 0.72093 0.0
C1615 C 0.18728 0.18443 0.78816 0.0
C1616 C 0.20969 0.18637 0.9382 0.0
C1617 C 0.20248 0.19317 0.11545 0.0
C1618 C 0.19943 0.18921 0.04407 0.0
C1619 C 0.20008 0.19205 0.83278 0.0
C1620 C 0.19817 0.18849 0.90465 0.0
H1621 H 0.18422 0.18435 0.26641 0.0
H1622 H 0.17828 0.17735 0.14883 0.0
H1623 H 0.21981 0.18582 0.03145 0.0
H1624 H 0.22861 0.21789 0.72673 0.0
H1625 H 0.22499 0.2102 0.84248 0.0
C1626 C 0.81991 0.00541 0.20921 0.0
C1627 C 0.81321 0.01466 0.23037 0.0
C1628 C 0.82343 0.00499 0.14193 0.0
C1629 C 0.82986 0.02764 0.98542 0.0
H1630 H 0.81261 0.9868 0.89651 0.0
C1631 C 0.80506 0.01648 0.72401 0.0
C1632 C 0.80993 0.00885 0.67816 0.0
C1633 C 0.80969 0.0179 0.79004 0.0
C1634 C 0.81781 -0.0017 0.92084 0.0
H1635 H 0.80529 0.03097 0.19717 0.0
H1636 H 0.81128 0.03019 0.08195 0.0
H1637 H 0.81313 0.98784 0.01783 0.0
H1638 H 0.8235 -0.00326 0.66531 0.0
H1639 H 0.83122 -0.00123 0.78267 0.0
H1640 H 0.8335 0.03798 0.88881 0.0
C1641 C 0.81399 0.02334 0.11672 0.0
C1642 C 0.81813 -0.00109 0.9902 0.0
C1643 C 0.81038 0.02364 0.18309 0.0
C1644 C 0.81969 0.00277 0.69966 0.0
C1645 C 0.82402 0.00386 0.76657 0.0
C1646 C 0.82941 0.02701 0.91649 0.0
C1647 C 0.82055 0.01405 0.09508 0.0
C1648 C 0.82352 0.01354 0.02313 0.0
C1649 C 0.81904 0.01146 0.81221 0.0
C1650 C 0.82282 0.0123 0.88361 0.0
H1651 H 0.82222 -0.00166 0.24432 0.0
H1652 H 0.82844 -0.00232 0.12662 0.0
H1653 H 0.83442 0.03914 0.0093 0.0
H1654 H 0.79758 0.02132 0.70881 0.0
H1655 H 0.80558 0.02369 0.82433 0.0
C1656 C 0.66172 0.53511 0.1003 0.0
C1657 C 0.67274 0.53433 0.05756 0.0
C1658 C 0.66226 0.53279 0.16807 0.0
C1659 C 0.68125 0.52149 0.30191 0.0
H1660 H 0.67845 0.55511 0.39468 0.0
C1661 C 0.68026 0.52785 0.58918 0.0
C1662 C 0.68679 0.54345 0.61402 0.0
C1663 C 0.68018 0.52527 0.5209 0.0
C1664 C 0.67949 0.54576 0.36965 0.0
H1665 H 0.69218 0.52932 0.05109 0.0
H1666 H 0.69345 0.52569 0.17035 0.0
H1667 H 0.6734 0.55182 0.27721 0.0
H1668 H 0.69986 0.56856 0.58857 0.0
H1669 H 0.70035 0.56414 0.4703 0.0
H1670 H 0.68773 0.51577 0.39546 0.0
C1671 C 0.68421 0.52783 0.15138 0.0
C1672 C 0.67626 0.54366 0.30224 0.0
C1673 C 0.68348 0.52989 0.08309 0.0
C1674 C 0.69458 0.55641 0.5705 0.0
C1675 C 0.69473 0.55386 0.50275 0.0
C1676 C 0.68449 0.5236 0.37 0.0
C1677 C 0.67408 0.53001 0.19484 0.0
C1678 C 0.67703 0.53149 0.26739 0.0
C1679 C 0.68678 0.53828 0.47679 0.0
C1680 C 0.68375 0.53586 0.40445 0.0
H1681 H 0.65321 0.53835 0.08167 0.0
H1682 H 0.65395 0.53406 0.19996 0.0
H1683 H 0.68194 0.512 0.27646 0.0
H1684 H 0.6741 0.51765 0.6218 0.0
H1685 H 0.67397 0.51313 0.50251 0.0
C1686 C 0.49276 0.16295 0.61987 0.0
C1687 C 0.47706 0.15267 0.64169 0.0
C1688 C 0.49581 0.16724 0.55279 0.0
C1689 C 0.47616 0.16868 0.39811 0.0
H1690 H 0.50394 0.15667 0.30713 0.0
C1691 C 0.46284 0.1434 0.13979 0.0
C1692 C 0.47477 0.14944 0.0907 0.0
C1693 C 0.46655 0.14789 0.20559 0.0
C1694 C 0.49645 0.16045 0.3319 0.0
H1695 H 0.45226 0.1395 0.61176 0.0
H1696 H 0.45746 0.14726 0.49611 0.0
H1697 H 0.50428 0.15804 0.42845 0.0
H1698 H 0.50018 0.16469 0.07352 0.0
H1699 H 0.50674 0.17228 0.19057 0.0
H1700 H 0.46762 0.17015 0.30231 0.0
C1701 C 0.46745 0.15196 0.53007 0.0
C1702 C 0.49664 0.16125 0.40125 0.0
C1703 C 0.46447 0.14744 0.59628 0.0
C1704 C 0.49069 0.15984 0.10994 0.0
C1705 C 0.49446 0.16419 0.17675 0.0
C1706 C 0.47596 0.16787 0.32923 0.0
C1707 C 0.48316 0.16164 0.50717 0.0
C1708 C 0.48596 0.16467 0.435 0.0
C1709 C 0.48231 0.15845 0.22486 0.0
C1710 C 0.48557 0.16305 0.29558 0.0
H1711 H 0.50269 0.16702 0.65389 0.0
H1712 H 0.50802 0.17471 0.53638 0.0
H1713 H 0.46798 0.17158 0.42275 0.0
H1714 H 0.45044 0.13536 0.12748 0.0
H1715 H 0.45699 0.14303 0.24175 0.0
C1716 C 0.8519 0.33325 0.08002 0.0
C1717 C 0.8676 0.33905 0.0573 0.0
C1718 C 0.849 0.33458 0.14717 0.0
C1719 C 0.86872 0.357 0.29869 0.0
H1720 H 0.84244 0.31769 0.39528 0.0
C1721 C 0.88318 0.34854 0.56106 0.0
C1722 C 0.87111 0.34193 0.60944 0.0
C1723 C 0.87945 0.34874 0.49479 0.0
C1724 C 0.84951 0.32882 0.36892 0.0
H1725 H 0.89254 0.35139 0.08591 0.0
H1726 H 0.88754 0.354 0.20165 0.0
H1727 H 0.84165 0.31766 0.27391 0.0
H1728 H 0.8455 0.33 0.62516 0.0
H1729 H 0.83893 0.33007 0.50759 0.0
H1730 H 0.87725 0.368 0.39296 0.0
C1731 C 0.87745 0.34834 0.16828 0.0
C1732 C 0.84906 0.32881 0.29956 0.0
C1733 C 0.88031 0.34674 0.10203 0.0
C1734 C 0.85509 0.33521 0.58924 0.0
C1735 C 0.85132 0.33524 0.52212 0.0
C1736 C 0.86917 0.357 0.3676 0.0
C1737 C 0.86179 0.34209 0.1919 0.0
C1738 C 0.8592 0.34277 0.26389 0.0
C1739 C 0.86353 0.34224 0.47451 0.0
C1740 C 0.86013 0.34278 0.4033 0.0
H1741 H 0.84189 0.32719 0.04654 0.0
H1742 H 0.83681 0.32965 0.16423 0.0
H1743 H 0.87648 0.36798 0.27244 0.0
H1744 H 0.89567 0.35384 0.57429 0.0
H1745 H 0.88909 0.35394 0.45908 0.0
C1746 C 0.66954 0.15539 0.10718 0.0
C1747 C 0.67569 0.14556 0.08729 0.0
C1748 C 0.67012 0.1597 0.17406 0.0
C1749 C 0.69243 0.1635 0.32734 0.0
H1750 H 0.65381 0.15307 0.42429 0.0
C1751 C 0.68188 0.14149 0.59257 0.0
C1752 C 0.67501 0.14719 0.6384 0.0
C1753 C 0.68357 0.14612 0.52646 0.0
C1754 C 0.66477 0.15642 0.39771 0.0
H1755 H 0.68724 0.13257 0.12282 0.0
H1756 H 0.68827 0.14008 0.23715 0.0
H1757 H 0.65331 0.15222 0.30288 0.0
H1758 H 0.66469 0.1624 0.65138 0.0
H1759 H 0.66725 0.17023 0.53397 0.0
H1760 H 0.70365 0.16671 0.42165 0.0
C1761 C 0.6831 0.14458 0.20155 0.0
C1762 C 0.66448 0.15594 0.32831 0.0
C1763 C 0.68235 0.14015 0.13569 0.0
C1764 C 0.67016 0.15796 0.61702 0.0
C1765 C 0.67152 0.16234 0.55004 0.0
C1766 C 0.6927 0.16393 0.39628 0.0
C1767 C 0.67714 0.15448 0.22162 0.0
C1768 C 0.67815 0.15876 0.29271 0.0
C1769 C 0.67817 0.15636 0.50413 0.0
C1770 C 0.67871 0.15971 0.43224 0.0
H1771 H 0.66431 0.15974 0.07125 0.0
H1772 H 0.66534 0.16728 0.18842 0.0
H1773 H 0.70321 0.166 0.30109 0.0
H1774 H 0.68572 0.13317 0.60772 0.0
H1775 H 0.68856 0.14117 0.49214 0.0
C1776 C 0.87823 0.53802 0.15378 0.0
C1777 C 0.8663 0.53449 0.10638 0.0
C1778 C 0.8743 0.53467 0.22066 0.0
C1779 C 0.84686 0.53458 0.33989 0.0
H1780 H 0.86401 0.51521 0.45783 0.0
C1781 C 0.851 0.52303 0.63792 0.0
C1782 C 0.85942 0.53895 0.6598 0.0
C1783 C 0.84786 0.51961 0.57038 0.0
C1784 C 0.85892 0.52043 0.42545 0.0
H1785 H 0.84084 0.52431 0.09158 0.0
H1786 H 0.83401 0.51889 0.20931 0.0
H1787 H 0.86666 0.51366 0.33787 0.0
H1788 H 0.87021 0.56368 0.62935 0.0
H1789 H 0.86409 0.5577 0.51201 0.0
H1790 H 0.84009 0.54228 0.42757 0.0
C1791 C 0.84636 0.52399 0.19422 0.0
C1792 C 0.86051 0.51962 0.35695 0.0
C1793 C 0.85026 0.52698 0.12695 0.0
C1794 C 0.86359 0.55131 0.61378 0.0
C1795 C 0.86009 0.54788 0.54669 0.0
C1796 C 0.84557 0.53569 0.40843 0.0
C1797 C 0.85839 0.52807 0.24178 0.0
C1798 C 0.85474 0.52692 0.31357 0.0
C1799 C 0.85272 0.53204 0.52401 0.0
C1800 C 0.85183 0.52885 0.45187 0.0
H1801 H 0.89068 0.54387 0.13933 0.0
H1802 H 0.88381 0.53805 0.25633 0.0
H1803 H 0.84244 0.54044 0.30754 0.0
H1804 H 0.84788 0.5133 0.67228 0.0
H1805 H 0.84216 0.5073 0.55406 0.0
C1806 C 0.46119 0.33733 0.10874 0.0
C1807 C 0.47291 0.34145 0.05948 0.0
C1808 C 0.46462 0.33644 0.17483 0.0
C1809 C 0.49478 0.35123 0.3003 0.0
H1810 H 0.46307 0.31361 0.39407 0.0
C1811 C 0.49061 0.34587 0.58903 0.0
C1812 C 0.47539 0.34245 0.61071 0.0
C1813 C 0.49327 0.34414 0.52199 0.0
C1814 C 0.47214 0.32411 0.36859 0.0
H1815 H 0.4977 0.3484 0.04221 0.0
H1816 H 0.50381 0.34718 0.15965 0.0
H1817 H 0.46276 0.31418 0.27353 0.0
H1818 H 0.45094 0.33388 0.58024 0.0
H1819 H 0.45546 0.33055 0.46466 0.0
H1820 H 0.50353 0.36148 0.39611 0.0
C1821 C 0.4919 0.34445 0.14579 0.0
C1822 C 0.47197 0.32443 0.29969 0.0
C1823 C 0.48839 0.34515 0.07877 0.0
C1824 C 0.46281 0.33667 0.56498 0.0
C1825 C 0.46537 0.33466 0.4988 0.0
C1826 C 0.49495 0.3509 0.36969 0.0
C1827 C 0.4799 0.33977 0.1941 0.0
C1828 C 0.48281 0.33825 0.26499 0.0
C1829 C 0.48065 0.33857 0.47627 0.0
C1830 C 0.48315 0.33759 0.40439 0.0
H1831 H 0.44914 0.33445 0.0964 0.0
H1832 H 0.45523 0.33311 0.21117 0.0
H1833 H 0.50323 0.36202 0.27464 0.0
H1834 H 0.50053 0.35044 0.62328 0.0
H1835 H 0.50516 0.34725 0.50578 0.0
C1836 C 0.31799 0.86199 0.38029 0.0
C1837 C 0.3296 0.86153 0.34036 0.0
C1838 C 0.3177 0.85939 0.4482 0.0
C1839 C 0.33597 0.84863 0.58722 0.0
H1840 H 0.33194 0.88208 0.67529 0.0
C1841 C 0.33527 0.85671 0.87381 0.0
C1842 C 0.34204 0.87249 0.89689 0.0
C1843 C 0.33466 0.85362 0.80582 0.0
C1844 C 0.33327 0.87277 0.65157 0.0
H1845 H 0.34929 0.85688 0.33854 0.0
H1846 H 0.34917 0.8528 0.45814 0.0
H1847 H 0.32734 0.87827 0.55764 0.0
H1848 H 0.3549 0.89741 0.8679 0.0
H1849 H 0.35429 0.89208 0.7501 0.0
H1850 H 0.34239 0.84356 0.68223 0.0
C1851 C 0.34004 0.85482 0.43694 0.0
C1852 C 0.33031 0.87036 0.58406 0.0
C1853 C 0.34011 0.85712 0.36846 0.0
C1854 C 0.34937 0.88512 0.85146 0.0
C1855 C 0.34893 0.88205 0.78394 0.0
C1856 C 0.33894 0.85106 0.65539 0.0
C1857 C 0.32933 0.85673 0.47788 0.0
C1858 C 0.33162 0.85829 0.55082 0.0
C1859 C 0.34093 0.86629 0.76008 0.0
C1860 C 0.33779 0.8633 0.68806 0.0
H1861 H 0.30972 0.86531 0.35949 0.0
H1862 H 0.30897 0.86047 0.47804 0.0
H1863 H 0.33706 0.83923 0.56308 0.0
H1864 H 0.3295 0.84674 0.90777 0.0
H1865 H 0.32843 0.84135 0.789 0.0
C1866 C 0.13046 0.47447 0.90813 0.0
C1867 C 0.14321 0.48137 0.95306 0.0
C1868 C 0.13274 0.47899 0.84189 0.0
C1869 C 0.16128 0.4921 0.70976 0.0
H1870 H 0.1294 0.4984 0.62002 0.0
C1871 C 0.15431 0.49223 0.4209 0.0
C1872 C 0.13851 0.48169 0.40062 0.0
C1873 C 0.15785 0.49608 0.48811 0.0
C1874 C 0.13849 0.49679 0.64432 0.0
H1875 H 0.16839 0.49856 0.96401 0.0
H1876 H 0.17252 0.50622 0.84617 0.0
H1877 H 0.13037 0.4987 0.74052 0.0
H1878 H 0.11413 0.46699 0.43565 0.0
H1879 H 0.12029 0.47371 0.55103 0.0
H1880 H 0.16876 0.48926 0.61304 0.0
C1881 C 0.16072 0.49743 0.86319 0.0
C1882 C 0.13906 0.497 0.71322 0.0
C1883 C 0.15834 0.49312 0.93038 0.0
C1884 C 0.12644 0.47513 0.44897 0.0
C1885 C 0.12993 0.4791 0.51536 0.0
C1886 C 0.16068 0.49184 0.6404 0.0
C1887 C 0.14789 0.49037 0.81845 0.0
C1888 C 0.15 0.49399 0.74666 0.0
C1889 C 0.14561 0.48968 0.5358 0.0
C1890 C 0.1488 0.49348 0.60725 0.0
H1891 H 0.11864 0.46545 0.92418 0.0
H1892 H 0.12268 0.4732 0.80844 0.0
H1893 H 0.16979 0.48968 0.73442 0.0
H1894 H 0.1639 0.49746 0.38501 0.0
H1895 H 0.17007 0.50422 0.50267 0.0
C1896 C 0.53903 0.66529 0.85264 0.0
C1897 C 0.53438 0.67289 0.89961 0.0
C1898 C 0.53509 0.66497 0.786 0.0
C1899 C 0.53037 0.68936 0.66473 0.0
H1900 H 0.51541 0.6523 0.55093 0.0
C1901 C 0.52081 0.67143 0.36838 0.0
C1902 C 0.53662 0.68105 0.34648 0.0
C1903 C 0.51708 0.67086 0.43571 0.0
C1904 C 0.51935 0.66271 0.58212 0.0
H1905 H 0.52157 0.68574 0.914 0.0
H1906 H 0.51507 0.68559 0.79649 0.0
H1907 H 0.51454 0.64898 0.67124 0.0
H1908 H 0.56065 0.69837 0.37664 0.0
H1909 H 0.55403 0.69783 0.49354 0.0
H1910 H 0.53617 0.70321 0.57552 0.0
C1911 C 0.52156 0.67968 0.81179 0.0
C1912 C 0.51893 0.66082 0.65084 0.0
C1913 C 0.52519 0.67968 0.87892 0.0
C1914 C 0.54837 0.69088 0.39222 0.0
C1915 C 0.54457 0.6906 0.45905 0.0
C1916 C 0.53108 0.69128 0.59597 0.0
C1917 C 0.5267 0.67254 0.76462 0.0
C1918 C 0.52475 0.67416 0.69275 0.0
C1919 C 0.52901 0.68021 0.48182 0.0
C1920 C 0.52587 0.67802 0.55401 0.0
H1921 H 0.54613 0.65998 0.86721 0.0
H1922 H 0.53932 0.6595 0.75064 0.0
H1923 H 0.53506 0.69985 0.6959 0.0
H1924 H 0.51157 0.6636 0.33423 0.0
H1925 H 0.50499 0.66275 0.45208 0.0
C1926 C 0.33836 0.49431 0.99771 0.0
C1927 C 0.34377 0.48412 0.02084 0.0
C1928 C 0.33986 0.49848 0.93044 0.0
C1929 C 0.36179 0.50001 0.77842 0.0
H1930 H 0.32243 0.48752 0.68348 0.0
C1931 C 0.35243 0.47643 0.51653 0.0
C1932 C 0.34566 0.48179 0.46851 0.0
C1933 C 0.3529 0.48056 0.58274 0.0
C1934 C 0.33358 0.49141 0.70932 0.0
H1935 H 0.35563 0.47098 0.99317 0.0
H1936 H 0.3586 0.47854 0.87722 0.0
H1937 H 0.32276 0.48884 0.80471 0.0
H1938 H 0.33371 0.49549 0.45343 0.0
H1939 H 0.33428 0.50248 0.57076 0.0
H1940 H 0.37245 0.50179 0.68381 0.0
C1941 C 0.35311 0.48324 0.91026 0.0
C1942 C 0.33378 0.49219 0.77863 0.0
C1943 C 0.35134 0.47883 0.97661 0.0
C1944 C 0.33904 0.49118 0.48904 0.0
C1945 C 0.33936 0.49518 0.55606 0.0
C1946 C 0.3616 0.49923 0.70954 0.0
C1947 C 0.34715 0.49286 0.88607 0.0
C1948 C 0.34774 0.49582 0.81382 0.0
C1949 C 0.34653 0.49009 0.60331 0.0
C1950 C 0.34734 0.49424 0.67443 0.0
H1951 H 0.33237 0.49843 0.03087 0.0
H1952 H 0.33515 0.5059 0.91294 0.0
H1953 H 0.37277 0.50307 0.80426 0.0
H1954 H 0.35764 0.46917 0.50305 0.0
H1955 H 0.35821 0.47617 0.61815 0.0
C1956 C 0.53238 0.87936 0.93393 0.0
C1957 C 0.53091 0.86767 0.97916 0.0
C1958 C 0.52909 0.87567 0.86697 0.0
C1959 C 0.515 0.86162 0.73008 0.0
H1960 H 0.54373 0.84885 0.65354 0.0
C1961 C 0.52128 0.85618 0.44708 0.0
C1962 C 0.5369 0.86697 0.42589 0.0
C1963 C 0.51802 0.85249 0.51435 0.0
C1964 C 0.53546 0.85216 0.67434 0.0
H1965 H 0.52439 0.84285 0.99054 0.0
H1966 H 0.51912 0.83651 0.87234 0.0
H1967 H 0.54104 0.84913 0.77402 0.0
H1968 H 0.56145 0.88161 0.45756 0.0
H1969 H 0.55584 0.87469 0.57459 0.0
H1970 H 0.50976 0.86507 0.63039 0.0
C1971 C 0.52252 0.84842 0.88925 0.0
C1972 C 0.53386 0.85225 0.74307 0.0
C1973 C 0.52543 0.85202 0.95671 0.0
C1974 C 0.54931 0.87327 0.47257 0.0
C1975 C 0.54611 0.86928 0.5394 0.0
C1976 C 0.51634 0.86121 0.6613 0.0
C1977 C 0.52463 0.86031 0.8437 0.0
C1978 C 0.52397 0.85743 0.77154 0.0
C1979 C 0.53039 0.85919 0.56112 0.0
C1980 C 0.52694 0.85693 0.63293 0.0
H1981 H 0.53665 0.89152 0.95004 0.0
H1982 H 0.53094 0.88508 0.83278 0.0
H1983 H 0.50734 0.8657 0.75095 0.0
H1984 H 0.51147 0.85126 0.4122 0.0
H1985 H 0.5058 0.8447 0.53004 0.0
C1986 C 0.14393 0.69259 0.43441 0.0
C1987 C 0.14827 0.68462 0.38797 0.0
C1988 C 0.1477 0.69283 0.50123 0.0
C1989 C 0.16315 0.69616 0.63767 0.0
H1990 H 0.14391 0.65345 0.71158 0.0
C1991 C 0.15981 0.68452 0.91992 0.0
C1992 C 0.14387 0.67542 0.94111 0.0
C1993 C 0.16364 0.68518 0.85268 0.0
C1994 C 0.14955 0.66545 0.69153 0.0
H1995 H 0.16037 0.67106 0.37457 0.0
H1996 H 0.16655 0.67105 0.4924 0.0
H1997 H 0.14575 0.6571 0.5913 0.0
H1998 H 0.11964 0.65911 0.90954 0.0
H1999 H 0.12642 0.6598 0.79271 0.0
H2000 H 0.16652 0.70448 0.73787 0.0
C2001 C 0.16048 0.67733 0.47656 0.0
C2002 C 0.15068 0.66754 0.62285 0.0
C2003 C 0.15704 0.67744 0.40926 0.0
C2004 C 0.13202 0.6662 0.89457 0.0
C2005 C 0.1359 0.66656 0.82778 0.0
C2006 C 0.16231 0.69409 0.70634 0.0
C2007 C 0.15556 0.68478 0.52327 0.0
C2008 C 0.15706 0.68289 0.59529 0.0
C2009 C 0.15166 0.67643 0.80588 0.0
C2010 C 0.15507 0.67868 0.7339 0.0
H2011 H 0.13712 0.69818 0.41932 0.0
H2012 H 0.14365 0.69854 0.53621 0.0
H2013 H 0.16811 0.70811 0.61761 0.0
H2014 H 0.16915 0.69187 0.95466 0.0
H2015 H 0.17587 0.69287 0.83697 0.0
loop_
_geom_bond_atom_site_label_1
_geom_bond_atom_site_label_2
_geom_bond_distance
_geom_bond_site_symmetry_2
_ccdc_geom_bond_type
Sc0 O3 2.025 . S
Sc0 O10 2.105 . S
Sc0 O13 2.105 1_455 S
Sc0 O16 2.105 1_455 S
Sc0 O19 2.105 . S
Sc1 O3 2.025 . S
Sc1 O11 2.105 . S
Sc1 O15 2.105 . S
Sc1 O17 2.105 1_455 S
Sc1 O21 2.105 . S
Sc2 O3 2.025 . S
Sc2 O12 2.105 . S
Sc2 O14 2.105 . S
Sc2 O18 2.105 . S
Sc2 O20 2.105 . S
O3 Sc0 2.025 . S
O3 Sc1 2.025 . S
O3 Sc2 2.025 . S
C4 O10 1.268 . S
C4 O20 1.268 . S
C5 O11 1.268 . S
C5 O19 1.268 . S
C6 O12 1.268 . S
C6 O21 1.268 . S
C7 O13 1.268 . S
C7 O17 1.268 . S
C8 O14 1.268 1_655 S
C8 O16 1.268 . S
C9 O15 1.268 . S
C9 O18 1.268 . S
O10 Sc0 2.105 . S
O10 C4 1.268 . S
O11 Sc1 2.105 . S
O11 C5 1.268 . S
O12 Sc2 2.105 . S
O12 C6 1.268 . S
O13 Sc0 2.105 1_655 S
O13 C7 1.268 . S
O14 Sc2 2.105 . S
O14 C8 1.268 1_455 S
O15 Sc1 2.105 . S
O15 C9 1.268 . S
O16 Sc0 2.105 1_655 S
O16 C8 1.268 . S
O17 Sc1 2.105 1_655 S
O17 C7 1.268 . S
O18 Sc2 2.105 . S
O18 C9 1.268 . S
O19 Sc0 2.105 . S
O19 C5 1.268 . S
O20 Sc2 2.105 . S
O20 C4 1.268 . S
O21 Sc1 2.105 . S
O21 C6 1.268 . S
Sc22 O25 2.025 . S
Sc22 O32 2.105 . S
Sc22 O35 2.105 . S
Sc22 O38 2.105 . S
Sc22 O41 2.105 . S
Sc23 O25 2.025 . S
Sc23 O33 2.105 . S
Sc23 O37 2.105 . S
Sc23 O39 2.105 . S
Sc23 O43 2.105 . S
Sc24 O25 2.025 . S
Sc24 O34 2.105 . S
Sc24 O36 2.105 . S
Sc24 O40 2.105 . S
Sc24 O42 2.105 . S
O25 Sc22 2.025 . S
O25 Sc23 2.025 . S
O25 Sc24 2.025 . S
C26 O32 1.268 . S
C26 O42 1.268 . S
C27 O33 1.268 . S
C27 O41 1.268 . S
C28 O34 1.268 . S
C28 O43 1.268 . S
C29 O35 1.268 . S
C29 O39 1.268 . S
C30 O36 1.268 . S
C30 O38 1.268 . S
C31 O37 1.268 . S
C31 O40 1.268 . S
O32 Sc22 2.105 . S
O32 C26 1.268 . S
O33 Sc23 2.105 . S
O33 C27 1.268 . S
O34 Sc24 2.105 . S
O34 C28 1.268 . S
O35 Sc22 2.105 . S
O35 C29 1.268 . S
O36 Sc24 2.105 . S
O36 C30 1.268 . S
O37 Sc23 2.105 . S
O37 C31 1.268 . S
O38 Sc22 2.105 . S
O38 C30 1.268 . S
O39 Sc23 2.105 . S
O39 C29 1.268 . S
O40 Sc24 2.105 . S
O40 C31 1.268 . S
O41 Sc22 2.105 . S
O41 C27 1.268 . S
O42 Sc24 2.105 . S
O42 C26 1.268 . S
O43 Sc23 2.105 . S
O43 C28 1.268 . S
Sc44 O47 2.025 . S
Sc44 O54 2.105 . S
Sc44 O57 2.105 . S
Sc44 O60 2.105 . S
Sc44 O63 2.105 . S
Sc45 O47 2.025 . S
Sc45 O55 2.105 . S
Sc45 O59 2.105 . S
Sc45 O61 2.105 . S
Sc45 O65 2.105 1_545 S
Sc46 O47 2.025 . S
Sc46 O56 2.105 1_545 S
Sc46 O58 2.105 . S
Sc46 O62 2.105 . S
Sc46 O64 2.105 1_545 S
O47 Sc44 2.025 . S
O47 Sc45 2.025 . S
O47 Sc46 2.025 . S
C48 O54 1.268 1_565 S
C48 O64 1.268 . S
C49 O55 1.268 . S
C49 O63 1.268 . S
C50 O56 1.268 . S
C50 O65 1.268 . S
C51 O57 1.268 . S
C51 O61 1.268 . S
C52 O58 1.268 . S
C52 O60 1.268 . S
C53 O59 1.268 . S
C53 O62 1.268 . S
O54 Sc44 2.105 . S
O54 C48 1.268 1_545 S
O55 Sc45 2.105 . S
O55 C49 1.268 . S
O56 Sc46 2.105 1_565 S
O56 C50 1.268 . S
O57 Sc44 2.105 . S
O57 C51 1.268 . S
O58 Sc46 2.105 . S
O58 C52 1.268 . S
O59 Sc45 2.105 . S
O59 C53 1.268 . S
O60 Sc44 2.105 . S
O60 C52 1.268 . S
O61 Sc45 2.105 . S
O61 C51 1.268 . S
O62 Sc46 2.105 . S
O62 C53 1.268 . S
O63 Sc44 2.105 . S
O63 C49 1.268 . S
O64 Sc46 2.105 1_565 S
O64 C48 1.268 . S
O65 Sc45 2.105 1_565 S
O65 C50 1.268 . S
Sc66 O69 2.025 . S
Sc66 O76 2.105 . S
Sc66 O79 2.105 . S
Sc66 O82 2.105 . S
Sc66 O85 2.105 . S
Sc67 O69 2.025 . S
Sc67 O77 2.105 . S
Sc67 O81 2.105 1_455 S
Sc67 O83 2.105 . S
Sc67 O87 2.105 . S
Sc68 O69 2.025 . S
Sc68 O78 2.105 . S
Sc68 O80 2.105 1_455 S
Sc68 O84 2.105 1_455 S
Sc68 O86 2.105 . S
O69 Sc66 2.025 . S
O69 Sc67 2.025 . S
O69 Sc68 2.025 . S
C70 O76 1.268 . S
C70 O86 1.268 . S
C71 O77 1.268 . S
C71 O85 1.268 . S
C72 O78 1.268 . S
C72 O87 1.268 . S
C73 O79 1.268 . S
C73 O83 1.268 . S
C74 O80 1.268 . S
C74 O82 1.268 1_655 S
C75 O81 1.268 . S
C75 O84 1.268 . S
O76 Sc66 2.105 . S
O76 C70 1.268 . S
O77 Sc67 2.105 . S
O77 C71 1.268 . S
O78 Sc68 2.105 . S
O78 C72 1.268 . S
O79 Sc66 2.105 . S
O79 C73 1.268 . S
O80 Sc68 2.105 1_655 S
O80 C74 1.268 . S
O81 Sc67 2.105 1_655 S
O81 C75 1.268 . S
O82 Sc66 2.105 . S
O82 C74 1.268 1_455 S
O83 Sc67 2.105 . S
O83 C73 1.268 . S
O84 Sc68 2.105 1_655 S
O84 C75 1.268 . S
O85 Sc66 2.105 . S
O85 C71 1.268 . S
O86 Sc68 2.105 . S
O86 C70 1.268 . S
O87 Sc67 2.105 . S
O87 C72 1.268 . S
Sc88 O91 2.025 . S
Sc88 O98 2.105 . S
Sc88 O101 2.105 . S
Sc88 O104 2.105 . S
Sc88 O107 2.105 . S
Sc89 O91 2.025 . S
Sc89 O99 2.105 . S
Sc89 O103 2.105 . S
Sc89 O105 2.105 . S
Sc89 O109 2.105 . S
Sc90 O91 2.025 . S
Sc90 O100 2.105 . S
Sc90 O102 2.105 . S
Sc90 O106 2.105 . S
Sc90 O108 2.105 . S
O91 Sc88 2.025 . S
O91 Sc89 2.025 . S
O91 Sc90 2.025 . S
C92 O98 1.268 . S
C92 O108 1.268 . S
C93 O99 1.268 . S
C93 O107 1.268 . S
C94 O100 1.268 . S
C94 O109 1.268 . S
C95 O101 1.268 . S
C95 O105 1.268 . S
C96 O102 1.268 . S
C96 O104 1.268 . S
C97 O103 1.268 . S
C97 O106 1.268 . S
O98 Sc88 2.105 . S
O98 C92 1.268 . S
O99 Sc89 2.105 . S
O99 C93 1.268 . S
O100 Sc90 2.105 . S
O100 C94 1.268 . S
O101 Sc88 2.105 . S
O101 C95 1.268 . S
O102 Sc90 2.105 . S
O102 C96 1.268 . S
O103 Sc89 2.105 . S
O103 C97 1.268 . S
O104 Sc88 2.105 . S
O104 C96 1.268 . S
O105 Sc89 2.105 . S
O105 C95 1.268 . S
O106 Sc90 2.105 . S
O106 C97 1.268 . S
O107 Sc88 2.105 . S
O107 C93 1.268 . S
O108 Sc90 2.105 . S
O108 C92 1.268 . S
O109 Sc89 2.105 . S
O109 C94 1.268 . S
Sc110 O113 2.025 . S
Sc110 O120 2.105 1_545 S
Sc110 O123 2.105 . S
Sc110 O126 2.105 . S
Sc110 O129 2.105 1_545 S
Sc111 O113 2.025 . S
Sc111 O121 2.105 1_545 S
Sc111 O125 2.105 . S
Sc111 O127 2.105 . S
Sc111 O131 2.105 . S
Sc112 O113 2.025 . S
Sc112 O122 2.105 . S
Sc112 O124 2.105 . S
Sc112 O128 2.105 . S
Sc112 O130 2.105 . S
O113 Sc110 2.025 . S
O113 Sc111 2.025 . S
O113 Sc112 2.025 . S
C114 O120 1.268 . S
C114 O130 1.268 1_565 S
C115 O121 1.268 . S
C115 O129 1.268 . S
C116 O122 1.268 . S
C116 O131 1.268 . S
C117 O123 1.268 . S
C117 O127 1.268 . S
C118 O124 1.268 . S
C118 O126 1.268 . S
C119 O125 1.268 . S
C119 O128 1.268 . S
O120 Sc110 2.105 1_565 S
O120 C114 1.268 . S
O121 Sc111 2.105 1_565 S
O121 C115 1.268 . S
O122 Sc112 2.105 . S
O122 C116 1.268 . S
O123 Sc110 2.105 . S
O123 C117 1.268 . S
O124 Sc112 2.105 . S
O124 C118 1.268 . S
O125 Sc111 2.105 . S
O125 C119 1.268 . S
O126 Sc110 2.105 . S
O126 C118 1.268 . S
O127 Sc111 2.105 . S
O127 C117 1.268 . S
O128 Sc112 2.105 . S
O128 C119 1.268 . S
O129 Sc110 2.105 1_565 S
O129 C115 1.268 . S
O130 Sc112 2.105 . S
O130 C114 1.268 1_545 S
O131 Sc111 2.105 . S
O131 C116 1.268 . S
Sc132 O135 2.025 . S
Sc132 O142 2.105 . S
Sc132 O145 2.105 . S
Sc132 O148 2.105 . S
Sc132 O151 2.105 . S
Sc133 O135 2.025 . S
Sc133 O143 2.105 . S
Sc133 O147 2.105 . S
Sc133 O149 2.105 . S
Sc133 O153 2.105 . S
Sc134 O135 2.025 . S
Sc134 O144 2.105 . S
Sc134 O146 2.105 . S
Sc134 O150 2.105 . S
Sc134 O152 2.105 . S
O135 Sc132 2.025 . S
O135 Sc133 2.025 . S
O135 Sc134 2.025 . S
C136 O142 1.268 . S
C136 O152 1.268 . S
C137 O143 1.268 . S
C137 O151 1.268 . S
C138 O144 1.268 . S
C138 O153 1.268 . S
C139 O145 1.268 . S
C139 O149 1.268 . S
C140 O146 1.268 . S
C140 O148 1.268 . S
C141 O147 1.268 . S
C141 O150 1.268 . S
O142 Sc132 2.105 . S
O142 C136 1.268 . S
O143 Sc133 2.105 . S
O143 C137 1.268 . S
O144 Sc134 2.105 . S
O144 C138 1.268 . S
O145 Sc132 2.105 . S
O145 C139 1.268 . S
O146 Sc134 2.105 . S
O146 C140 1.268 . S
O147 Sc133 2.105 . S
O147 C141 1.268 . S
O148 Sc132 2.105 . S
O148 C140 1.268 . S
O149 Sc133 2.105 . S
O149 C139 1.268 . S
O150 Sc134 2.105 . S
O150 C141 1.268 . S
O151 Sc132 2.105 . S
O151 C137 1.268 . S
O152 Sc134 2.105 . S
O152 C136 1.268 . S
O153 Sc133 2.105 . S
O153 C138 1.268 . S
Sc154 O157 2.025 . S
Sc154 O164 2.105 . S
Sc154 O167 2.105 . S
Sc154 O170 2.105 . S
Sc154 O173 2.105 . S
Sc155 O157 2.025 . S
Sc155 O165 2.105 . S
Sc155 O169 2.105 . S
Sc155 O171 2.105 . S
Sc155 O175 2.105 . S
Sc156 O157 2.025 . S
Sc156 O166 2.105 . S
Sc156 O168 2.105 . S
Sc156 O172 2.105 . S
Sc156 O174 2.105 . S
O157 Sc154 2.025 . S
O157 Sc155 2.025 . S
O157 Sc156 2.025 . S
C158 O164 1.268 . S
C158 O174 1.268 . S
C159 O165 1.268 . S
C159 O173 1.268 . S
C160 O166 1.268 . S
C160 O175 1.268 . S
C161 O167 1.268 . S
C161 O171 1.268 . S
C162 O168 1.268 . S
C162 O170 1.268 . S
C163 O169 1.268 . S
C163 O172 1.268 . S
O164 Sc154 2.105 . S
O164 C158 1.268 . S
O165 Sc155 2.105 . S
O165 C159 1.268 . S
O166 Sc156 2.105 . S
O166 C160 1.268 . S
O167 Sc154 2.105 . S
O167 C161 1.268 . S
O168 Sc156 2.105 . S
O168 C162 1.268 . S
O169 Sc155 2.105 . S
O169 C163 1.268 . S
O170 Sc154 2.105 . S
O170 C162 1.268 . S
O171 Sc155 2.105 . S
O171 C161 1.268 . S
O172 Sc156 2.105 . S
O172 C163 1.268 . S
O173 Sc154 2.105 . S
O173 C159 1.268 . S
O174 Sc156 2.105 . S
O174 C158 1.268 . S
O175 Sc155 2.105 . S
O175 C160 1.268 . S
Sc176 O179 2.025 . S
Sc176 O186 2.105 . S
Sc176 O189 2.105 . S
Sc176 O192 2.105 . S
Sc176 O195 2.105 . S
Sc177 O179 2.025 . S
Sc177 O187 2.105 . S
Sc177 O191 2.105 . S
Sc177 O193 2.105 . S
Sc177 O197 2.105 . S
Sc178 O179 2.025 . S
Sc178 O188 2.105 . S
Sc178 O190 2.105 . S
Sc178 O194 2.105 . S
Sc178 O196 2.105 . S
O179 Sc176 2.025 . S
O179 Sc177 2.025 . S
O179 Sc178 2.025 . S
C180 O186 1.268 . S
C180 O196 1.268 . S
C181 O187 1.268 . S
C181 O195 1.268 . S
C182 O188 1.268 . S
C182 O197 1.268 . S
C183 O189 1.268 . S
C183 O193 1.268 . S
C184 O190 1.268 . S
C184 O192 1.268 . S
C185 O191 1.268 . S
C185 O194 1.268 . S
O186 Sc176 2.105 . S
O186 C180 1.268 . S
O187 Sc177 2.105 . S
O187 C181 1.268 . S
O188 Sc178 2.105 . S
O188 C182 1.268 . S
O189 Sc176 2.105 . S
O189 C183 1.268 . S
O190 Sc178 2.105 . S
O190 C184 1.268 . S
O191 Sc177 2.105 . S
O191 C185 1.268 . S
O192 Sc176 2.105 . S
O192 C184 1.268 . S
O193 Sc177 2.105 . S
O193 C183 1.268 . S
O194 Sc178 2.105 . S
O194 C185 1.268 . S
O195 Sc176 2.105 . S
O195 C181 1.268 . S
O196 Sc178 2.105 . S
O196 C180 1.268 . S
O197 Sc177 2.105 . S
O197 C182 1.268 . S
Sc198 O201 2.025 . S
Sc198 O208 2.105 . S
Sc198 O211 2.105 . S
Sc198 O214 2.105 . S
Sc198 O217 2.105 . S
Sc199 O201 2.025 . S
Sc199 O209 2.105 . S
Sc199 O213 2.105 . S
Sc199 O215 2.105 . S
Sc199 O219 2.105 . S
Sc200 O201 2.025 . S
Sc200 O210 2.105 . S
Sc200 O212 2.105 . S
Sc200 O216 2.105 . S
Sc200 O218 2.105 . S
O201 Sc198 2.025 . S
O201 Sc199 2.025 . S
O201 Sc200 2.025 . S
C202 O208 1.268 . S
C202 O218 1.268 . S
C203 O209 1.268 . S
C203 O217 1.268 . S
C204 O210 1.268 . S
C204 O219 1.268 . S
C205 O211 1.268 . S
C205 O215 1.268 . S
C206 O212 1.268 . S
C206 O214 1.268 . S
C207 O213 1.268 . S
C207 O216 1.268 . S
O208 Sc198 2.105 . S
O208 C202 1.268 . S
O209 Sc199 2.105 . S
O209 C203 1.268 . S
O210 Sc200 2.105 . S
O210 C204 1.268 . S
O211 Sc198 2.105 . S
O211 C205 1.268 . S
O212 Sc200 2.105 . S
O212 C206 1.268 . S
O213 Sc199 2.105 . S
O213 C207 1.268 . S
O214 Sc198 2.105 . S
O214 C206 1.268 . S
O215 Sc199 2.105 . S
O215 C205 1.268 . S
O216 Sc200 2.105 . S
O216 C207 1.268 . S
O217 Sc198 2.105 . S
O217 C203 1.268 . S
O218 Sc200 2.105 . S
O218 C202 1.268 . S
O219 Sc199 2.105 . S
O219 C204 1.268 . S
Sc220 O223 2.025 . S
Sc220 O230 2.105 . S
Sc220 O233 2.105 . S
Sc220 O236 2.105 . S
Sc220 O239 2.105 . S
Sc221 O223 2.025 . S
Sc221 O231 2.105 . S
Sc221 O235 2.105 . S
Sc221 O237 2.105 . S
Sc221 O241 2.105 . S
Sc222 O223 2.025 . S
Sc222 O232 2.105 . S
Sc222 O234 2.105 . S
Sc222 O238 2.105 . S
Sc222 O240 2.105 . S
O223 Sc220 2.025 . S
O223 Sc221 2.025 . S
O223 Sc222 2.025 . S
C224 O230 1.268 . S
C224 O240 1.268 . S
C225 O231 1.268 . S
C225 O239 1.268 . S
C226 O232 1.268 . S
C226 O241 1.268 . S
C227 O233 1.268 . S
C227 O237 1.268 . S
C228 O234 1.268 . S
C228 O236 1.268 . S
C229 O235 1.268 . S
C229 O238 1.268 . S
O230 Sc220 2.105 . S
O230 C224 1.268 . S
O231 Sc221 2.105 . S
O231 C225 1.268 . S
O232 Sc222 2.105 . S
O232 C226 1.268 . S
O233 Sc220 2.105 . S
O233 C227 1.268 . S
O234 Sc222 2.105 . S
O234 C228 1.268 . S
O235 Sc221 2.105 . S
O235 C229 1.268 . S
O236 Sc220 2.105 . S
O236 C228 1.268 . S
O237 Sc221 2.105 . S
O237 C227 1.268 . S
O238 Sc222 2.105 . S
O238 C229 1.268 . S
O239 Sc220 2.105 . S
O239 C225 1.268 . S
O240 Sc222 2.105 . S
O240 C224 1.268 . S
O241 Sc221 2.105 . S
O241 C226 1.268 . S
Sc242 O245 2.025 . S
Sc242 O252 2.105 . S
Sc242 O255 2.105 . S
Sc242 O258 2.105 . S
Sc242 O261 2.105 . S
Sc243 O245 2.025 . S
Sc243 O253 2.105 . S
Sc243 O257 2.105 . S
Sc243 O259 2.105 . S
Sc243 O263 2.105 . S
Sc244 O245 2.025 . S
Sc244 O254 2.105 . S
Sc244 O256 2.105 . S
Sc244 O260 2.105 . S
Sc244 O262 2.105 . S
O245 Sc242 2.025 . S
O245 Sc243 2.025 . S
O245 Sc244 2.025 . S
C246 O252 1.268 . S
C246 O262 1.268 . S
C247 O253 1.268 . S
C247 O261 1.268 . S
C248 O254 1.268 . S
C248 O263 1.268 . S
C249 O255 1.268 . S
C249 O259 1.268 . S
C250 O256 1.268 . S
C250 O258 1.268 . S
C251 O257 1.268 . S
C251 O260 1.268 . S
O252 Sc242 2.105 . S
O252 C246 1.268 . S
O253 Sc243 2.105 . S
O253 C247 1.268 . S
O254 Sc244 2.105 . S
O254 C248 1.268 . S
O255 Sc242 2.105 . S
O255 C249 1.268 . S
O256 Sc244 2.105 . S
O256 C250 1.268 . S
O257 Sc243 2.105 . S
O257 C251 1.268 . S
O258 Sc242 2.105 . S
O258 C250 1.268 . S
O259 Sc243 2.105 . S
O259 C249 1.268 . S
O260 Sc244 2.105 . S
O260 C251 1.268 . S
O261 Sc242 2.105 . S
O261 C247 1.268 . S
O262 Sc244 2.105 . S
O262 C246 1.268 . S
O263 Sc243 2.105 . S
O263 C248 1.268 . S
Sc264 O267 2.025 . S
Sc264 O274 2.105 . S
Sc264 O277 2.105 . S
Sc264 O280 2.105 . S
Sc264 O283 2.105 . S
Sc265 O267 2.025 . S
Sc265 O275 2.105 . S
Sc265 O279 2.105 . S
Sc265 O281 2.105 . S
Sc265 O285 2.105 . S
Sc266 O267 2.025 . S
Sc266 O276 2.105 . S
Sc266 O278 2.105 . S
Sc266 O282 2.105 . S
Sc266 O284 2.105 . S
O267 Sc264 2.025 . S
O267 Sc265 2.025 . S
O267 Sc266 2.025 . S
C268 O274 1.268 . S
C268 O284 1.268 . S
C269 O275 1.268 . S
C269 O283 1.268 . S
C270 O276 1.268 . S
C270 O285 1.268 . S
C271 O277 1.268 . S
C271 O281 1.268 . S
C272 O278 1.268 . S
C272 O280 1.268 . S
C273 O279 1.268 . S
C273 O282 1.268 . S
O274 Sc264 2.105 . S
O274 C268 1.268 . S
O275 Sc265 2.105 . S
O275 C269 1.268 . S
O276 Sc266 2.105 . S
O276 C270 1.268 . S
O277 Sc264 2.105 . S
O277 C271 1.268 . S
O278 Sc266 2.105 . S
O278 C272 1.268 . S
O279 Sc265 2.105 . S
O279 C273 1.268 . S
O280 Sc264 2.105 . S
O280 C272 1.268 . S
O281 Sc265 2.105 . S
O281 C271 1.268 . S
O282 Sc266 2.105 . S
O282 C273 1.268 . S
O283 Sc264 2.105 . S
O283 C269 1.268 . S
O284 Sc266 2.105 . S
O284 C268 1.268 . S
O285 Sc265 2.105 . S
O285 C270 1.268 . S
Sc286 O289 2.025 . S
Sc286 O296 2.105 . S
Sc286 O299 2.105 . S
Sc286 O302 2.105 . S
Sc286 O305 2.105 . S
Sc287 O289 2.025 . S
Sc287 O297 2.105 . S
Sc287 O301 2.105 . S
Sc287 O303 2.105 . S
Sc287 O307 2.105 . S
Sc288 O289 2.025 . S
Sc288 O298 2.105 . S
Sc288 O300 2.105 . S
Sc288 O304 2.105 . S
Sc288 O306 2.105 . S
O289 Sc286 2.025 . S
O289 Sc287 2.025 . S
O289 Sc288 2.025 . S
C290 O296 1.268 . S
C290 O306 1.268 . S
C291 O297 1.268 . S
C291 O305 1.268 . S
C292 O298 1.268 . S
C292 O307 1.268 . S
C293 O299 1.268 . S
C293 O303 1.268 . S
C294 O300 1.268 . S
C294 O302 1.268 . S
C295 O301 1.268 . S
C295 O304 1.268 . S
O296 Sc286 2.105 . S
O296 C290 1.268 . S
O297 Sc287 2.105 . S
O297 C291 1.268 . S
O298 Sc288 2.105 . S
O298 C292 1.268 . S
O299 Sc286 2.105 . S
O299 C293 1.268 . S
O300 Sc288 2.105 . S
O300 C294 1.268 . S
O301 Sc287 2.105 . S
O301 C295 1.268 . S
O302 Sc286 2.105 . S
O302 C294 1.268 . S
O303 Sc287 2.105 . S
O303 C293 1.268 . S
O304 Sc288 2.105 . S
O304 C295 1.268 . S
O305 Sc286 2.105 . S
O305 C291 1.268 . S
O306 Sc288 2.105 . S
O306 C290 1.268 . S
O307 Sc287 2.105 . S
O307 C292 1.268 . S
Sc308 O311 2.025 . S
Sc308 O318 2.105 . S
Sc308 O321 2.105 . S
Sc308 O324 2.105 . S
Sc308 O327 2.105 . S
Sc309 O311 2.025 . S
Sc309 O319 2.105 . S
Sc309 O323 2.105 . S
Sc309 O325 2.105 . S
Sc309 O329 2.105 . S
Sc310 O311 2.025 . S
Sc310 O320 2.105 . S
Sc310 O322 2.105 . S
Sc310 O326 2.105 . S
Sc310 O328 2.105 . S
O311 Sc308 2.025 . S
O311 Sc309 2.025 . S
O311 Sc310 2.025 . S
C312 O318 1.268 . S
C312 O328 1.268 . S
C313 O319 1.268 . S
C313 O327 1.268 . S
C314 O320 1.268 . S
C314 O329 1.268 . S
C315 O321 1.268 . S
C315 O325 1.268 . S
C316 O322 1.268 . S
C316 O324 1.268 . S
C317 O323 1.268 . S
C317 O326 1.268 . S
O318 Sc308 2.105 . S
O318 C312 1.268 . S
O319 Sc309 2.105 . S
O319 C313 1.268 . S
O320 Sc310 2.105 . S
O320 C314 1.268 . S
O321 Sc308 2.105 . S
O321 C315 1.268 . S
O322 Sc310 2.105 . S
O322 C316 1.268 . S
O323 Sc309 2.105 . S
O323 C317 1.268 . S
O324 Sc308 2.105 . S
O324 C316 1.268 . S
O325 Sc309 2.105 . S
O325 C315 1.268 . S
O326 Sc310 2.105 . S
O326 C317 1.268 . S
O327 Sc308 2.105 . S
O327 C313 1.268 . S
O328 Sc310 2.105 . S
O328 C312 1.268 . S
O329 Sc309 2.105 . S
O329 C314 1.268 . S
Sc330 O333 2.025 . S
Sc330 O340 2.105 . S
Sc330 O343 2.105 . S
Sc330 O346 2.105 . S
Sc330 O349 2.105 . S
Sc331 O333 2.025 . S
Sc331 O341 2.105 . S
Sc331 O345 2.105 . S
Sc331 O347 2.105 . S
Sc331 O351 2.105 . S
Sc332 O333 2.025 . S
Sc332 O342 2.105 . S
Sc332 O344 2.105 . S
Sc332 O348 2.105 . S
Sc332 O350 2.105 . S
O333 Sc330 2.025 . S
O333 Sc331 2.025 . S
O333 Sc332 2.025 . S
C334 O340 1.268 . S
C334 O350 1.268 . S
C335 O341 1.268 . S
C335 O349 1.268 . S
C336 O342 1.268 . S
C336 O351 1.268 . S
C337 O343 1.268 . S
C337 O347 1.268 . S
C338 O344 1.268 . S
C338 O346 1.268 . S
C339 O345 1.268 . S
C339 O348 1.268 . S
O340 Sc330 2.105 . S
O340 C334 1.268 . S
O341 Sc331 2.105 . S
O341 C335 1.268 . S
O342 Sc332 2.105 . S
O342 C336 1.268 . S
O343 Sc330 2.105 . S
O343 C337 1.268 . S
O344 Sc332 2.105 . S
O344 C338 1.268 . S
O345 Sc331 2.105 . S
O345 C339 1.268 . S
O346 Sc330 2.105 . S
O346 C338 1.268 . S
O347 Sc331 2.105 . S
O347 C337 1.268 . S
O348 Sc332 2.105 . S
O348 C339 1.268 . S
O349 Sc330 2.105 . S
O349 C335 1.268 . S
O350 Sc332 2.105 . S
O350 C334 1.268 . S
O351 Sc331 2.105 . S
O351 C336 1.268 . S
Sc352 O355 2.025 . S
Sc352 O362 2.105 . S
Sc352 O365 2.105 . S
Sc352 O368 2.105 . S
Sc352 O371 2.105 . S
Sc353 O355 2.025 . S
Sc353 O363 2.105 . S
Sc353 O367 2.105 . S
Sc353 O369 2.105 . S
Sc353 O373 2.105 . S
Sc354 O355 2.025 . S
Sc354 O364 2.105 . S
Sc354 O366 2.105 . S
Sc354 O370 2.105 . S
Sc354 O372 2.105 . S
O355 Sc352 2.025 . S
O355 Sc353 2.025 . S
O355 Sc354 2.025 . S
C356 O362 1.268 . S
C356 O372 1.268 . S
C357 O363 1.268 . S
C357 O371 1.268 . S
C358 O364 1.268 . S
C358 O373 1.268 . S
C359 O365 1.268 . S
C359 O369 1.268 . S
C360 O366 1.268 . S
C360 O368 1.268 . S
C361 O367 1.268 . S
C361 O370 1.268 . S
O362 Sc352 2.105 . S
O362 C356 1.268 . S
O363 Sc353 2.105 . S
O363 C357 1.268 . S
O364 Sc354 2.105 . S
O364 C358 1.268 . S
O365 Sc352 2.105 . S
O365 C359 1.268 . S
O366 Sc354 2.105 . S
O366 C360 1.268 . S
O367 Sc353 2.105 . S
O367 C361 1.268 . S
O368 Sc352 2.105 . S
O368 C360 1.268 . S
O369 Sc353 2.105 . S
O369 C359 1.268 . S
O370 Sc354 2.105 . S
O370 C361 1.268 . S
O371 Sc352 2.105 . S
O371 C357 1.268 . S
O372 Sc354 2.105 . S
O372 C356 1.268 . S
O373 Sc353 2.105 . S
O373 C358 1.268 . S
Sc374 O377 2.025 . S
Sc374 O384 2.105 . S
Sc374 O387 2.105 . S
Sc374 O390 2.105 . S
Sc374 O393 2.105 . S
Sc375 O377 2.025 . S
Sc375 O385 2.105 . S
Sc375 O389 2.105 . S
Sc375 O391 2.105 . S
Sc375 O395 2.105 . S
Sc376 O377 2.025 . S
Sc376 O386 2.105 . S
Sc376 O388 2.105 . S
Sc376 O392 2.105 . S
Sc376 O394 2.105 . S
O377 Sc374 2.025 . S
O377 Sc375 2.025 . S
O377 Sc376 2.025 . S
C378 O384 1.268 . S
C378 O394 1.268 . S
C379 O385 1.268 . S
C379 O393 1.268 . S
C380 O386 1.268 . S
C380 O395 1.268 . S
C381 O387 1.268 . S
C381 O391 1.268 . S
C382 O388 1.268 . S
C382 O390 1.268 . S
C383 O389 1.268 . S
C383 O392 1.268 . S
O384 Sc374 2.105 . S
O384 C378 1.268 . S
O385 Sc375 2.105 . S
O385 C379 1.268 . S
O386 Sc376 2.105 . S
O386 C380 1.268 . S
O387 Sc374 2.105 . S
O387 C381 1.268 . S
O388 Sc376 2.105 . S
O388 C382 1.268 . S
O389 Sc375 2.105 . S
O389 C383 1.268 . S
O390 Sc374 2.105 . S
O390 C382 1.268 . S
O391 Sc375 2.105 . S
O391 C381 1.268 . S
O392 Sc376 2.105 . S
O392 C383 1.268 . S
O393 Sc374 2.105 . S
O393 C379 1.268 . S
O394 Sc376 2.105 . S
O394 C378 1.268 . S
O395 Sc375 2.105 . S
O395 C380 1.268 . S
C396 C397 1.349 . S
C396 C398 1.327 . S
C396 H421 0.950 . S
C397 C396 1.349 . S
C397 C413 1.349 . S
C398 C396 1.327 . S
C398 C417 1.429 . S
C398 H422 0.950 . S
C399 C416 1.574 . S
C399 C418 1.368 . S
C399 H423 0.949 . S
H400 C404 0.949 . S
C401 C402 1.349 . S
C401 C403 1.327 . S
C401 H424 0.950 . S
C402 C401 1.349 . S
C402 C414 1.349 . S
C403 C401 1.327 . S
C403 C419 1.429 . S
C403 H425 0.950 . S
C404 H400 0.949 . S
C404 C412 1.574 . S
C404 C420 1.368 . S
H405 C413 0.950 . S
H406 C411 0.950 . S
H407 C412 0.949 . S
H408 C414 0.950 . S
H409 C415 0.950 . S
H410 C416 0.949 . S
C411 H406 0.950 . S
C411 C413 1.327 . S
C411 C417 1.429 . S
C412 C404 1.574 . S
C412 H407 0.949 . S
C412 C418 1.368 . S
C413 C397 1.349 . S
C413 H405 0.950 . S
C413 C411 1.327 . S
C414 C402 1.349 . S
C414 H408 0.950 . S
C414 C415 1.327 . S
C415 H409 0.950 . S
C415 C414 1.327 . S
C415 C419 1.429 . S
C416 C399 1.574 . S
C416 H410 0.949 . S
C416 C420 1.368 . S
C417 C398 1.429 . S
C417 C411 1.429 . S
C417 C418 1.523 . S
C418 C399 1.368 . S
C418 C412 1.368 . S
C418 C417 1.523 . S
C419 C403 1.429 . S
C419 C415 1.429 . S
C419 C420 1.523 . S
C420 C404 1.368 . S
C420 C416 1.368 . S
C420 C419 1.523 . S
H421 C396 0.950 . S
H422 C398 0.950 . S
H423 C399 0.949 . S
H424 C401 0.950 . S
H425 C403 0.950 . S
C426 C427 1.349 . S
C426 C428 1.327 . S
C426 H451 0.950 . S
C427 C426 1.349 . S
C427 C443 1.349 . S
C428 C426 1.327 . S
C428 C447 1.429 . S
C428 H452 0.950 . S
C429 C446 1.574 . S
C429 C448 1.368 . S
C429 H453 0.949 . S
H430 C434 0.949 . S
C431 C432 1.349 . S
C431 C433 1.327 . S
C431 H454 0.950 . S
C432 C431 1.349 . S
C432 C444 1.349 . S
C433 C431 1.327 . S
C433 C449 1.429 . S
C433 H455 0.950 . S
C434 H430 0.949 . S
C434 C442 1.574 . S
C434 C450 1.368 . S
H435 C443 0.950 . S
H436 C441 0.950 . S
H437 C442 0.949 . S
H438 C444 0.950 . S
H439 C445 0.950 . S
H440 C446 0.949 . S
C441 H436 0.950 . S
C441 C443 1.327 . S
C441 C447 1.429 . S
C442 C434 1.574 . S
C442 H437 0.949 . S
C442 C448 1.368 . S
C443 C427 1.349 . S
C443 H435 0.950 . S
C443 C441 1.327 . S
C444 C432 1.349 . S
C444 H438 0.950 . S
C444 C445 1.327 . S
C445 H439 0.950 . S
C445 C444 1.327 . S
C445 C449 1.429 . S
C446 C429 1.574 . S
C446 H440 0.949 . S
C446 C450 1.368 . S
C447 C428 1.429 . S
C447 C441 1.429 . S
C447 C448 1.523 . S
C448 C429 1.368 . S
C448 C442 1.368 . S
C448 C447 1.523 . S
C449 C433 1.429 . S
C449 C445 1.429 . S
C449 C450 1.523 . S
C450 C434 1.368 . S
C450 C446 1.368 . S
C450 C449 1.523 . S
H451 C426 0.950 . S
H452 C428 0.950 . S
H453 C429 0.949 . S
H454 C431 0.950 . S
H455 C433 0.950 . S
C456 C457 1.349 . S
C456 C458 1.327 . S
C456 H481 0.950 . S
C457 C456 1.349 . S
C457 C473 1.349 . S
C458 C456 1.327 . S
C458 C477 1.429 . S
C458 H482 0.950 . S
C459 C476 1.574 . S
C459 C478 1.368 . S
C459 H483 0.949 . S
H460 C464 0.949 . S
C461 C462 1.349 . S
C461 C463 1.327 . S
C461 H484 0.950 . S
C462 C461 1.349 . S
C462 C474 1.349 . S
C463 C461 1.327 . S
C463 C479 1.429 . S
C463 H485 0.950 . S
C464 H460 0.949 . S
C464 C472 1.574 . S
C464 C480 1.368 . S
H465 C473 0.950 . S
H466 C471 0.950 . S
H467 C472 0.949 . S
H468 C474 0.950 . S
H469 C475 0.950 . S
H470 C476 0.949 . S
C471 H466 0.950 . S
C471 C473 1.327 . S
C471 C477 1.429 . S
C472 C464 1.574 . S
C472 H467 0.949 . S
C472 C478 1.368 . S
C473 C457 1.349 . S
C473 H465 0.950 . S
C473 C471 1.327 . S
C474 C462 1.349 . S
C474 H468 0.950 . S
C474 C475 1.327 . S
C475 H469 0.950 . S
C475 C474 1.327 . S
C475 C479 1.429 . S
C476 C459 1.574 . S
C476 H470 0.949 . S
C476 C480 1.368 . S
C477 C458 1.429 . S
C477 C471 1.429 . S
C477 C478 1.523 . S
C478 C459 1.368 . S
C478 C472 1.368 . S
C478 C477 1.523 . S
C479 C463 1.429 . S
C479 C475 1.429 . S
C479 C480 1.523 . S
C480 C464 1.368 . S
C480 C476 1.368 . S
C480 C479 1.523 . S
H481 C456 0.950 . S
H482 C458 0.950 . S
H483 C459 0.949 . S
H484 C461 0.950 . S
H485 C463 0.950 . S
C486 C487 1.349 . S
C486 C488 1.327 . S
C486 H511 0.950 . S
C487 C486 1.349 . S
C487 C503 1.349 . S
C488 C486 1.327 . S
C488 C507 1.429 . S
C488 H512 0.950 . S
C489 C506 1.574 . S
C489 C508 1.368 . S
C489 H513 0.949 . S
H490 C494 0.949 . S
C491 C492 1.349 . S
C491 C493 1.327 . S
C491 H514 0.950 . S
C492 C491 1.349 . S
C492 C504 1.349 . S
C493 C491 1.327 . S
C493 C509 1.429 . S
C493 H515 0.950 . S
C494 H490 0.949 . S
C494 C502 1.574 . S
C494 C510 1.368 . S
H495 C503 0.950 . S
H496 C501 0.950 . S
H497 C502 0.949 . S
H498 C504 0.950 . S
H499 C505 0.950 . S
H500 C506 0.949 . S
C501 H496 0.950 . S
C501 C503 1.327 . S
C501 C507 1.429 . S
C502 C494 1.574 . S
C502 H497 0.949 . S
C502 C508 1.368 . S
C503 C487 1.349 . S
C503 H495 0.950 . S
C503 C501 1.327 . S
C504 C492 1.349 . S
C504 H498 0.950 . S
C504 C505 1.327 . S
C505 H499 0.950 . S
C505 C504 1.327 . S
C505 C509 1.429 . S
C506 C489 1.574 . S
C506 H500 0.949 . S
C506 C510 1.368 . S
C507 C488 1.429 . S
C507 C501 1.429 . S
C507 C508 1.523 . S
C508 C489 1.368 . S
C508 C502 1.368 . S
C508 C507 1.523 . S
C509 C493 1.429 . S
C509 C505 1.429 . S
C509 C510 1.523 . S
C510 C494 1.368 . S
C510 C506 1.368 . S
C510 C509 1.523 . S
H511 C486 0.950 . S
H512 C488 0.950 . S
H513 C489 0.949 . S
H514 C491 0.950 . S
H515 C493 0.950 . S
C516 C517 1.349 . S
C516 C518 1.327 . S
C516 H541 0.950 . S
C517 C516 1.349 . S
C517 C533 1.349 . S
C518 C516 1.327 . S
C518 C537 1.429 . S
C518 H542 0.950 . S
C519 C536 1.574 . S
C519 C538 1.368 . S
C519 H543 0.949 . S
H520 C524 0.949 . S
C521 C522 1.349 . S
C521 C523 1.327 . S
C521 H544 0.950 . S
C522 C521 1.349 . S
C522 C534 1.349 . S
C523 C521 1.327 . S
C523 C539 1.429 . S
C523 H545 0.950 . S
C524 H520 0.949 . S
C524 C532 1.574 . S
C524 C540 1.368 . S
H525 C533 0.950 . S
H526 C531 0.950 . S
H527 C532 0.949 . S
H528 C534 0.950 1_455 S
H529 C535 0.950 . S
H530 C536 0.949 . S
C531 H526 0.950 . S
C531 C533 1.327 . S
C531 C537 1.429 . S
C532 C524 1.574 . S
C532 H527 0.949 . S
C532 C538 1.368 . S
C533 C517 1.349 . S
C533 H525 0.950 . S
C533 C531 1.327 . S
C534 C522 1.349 . S
C534 H528 0.950 1_655 S
C534 C535 1.327 . S
C535 H529 0.950 . S
C535 C534 1.327 . S
C535 C539 1.429 . S
C536 C519 1.574 . S
C536 H530 0.949 . S
C536 C540 1.368 . S
C537 C518 1.429 . S
C537 C531 1.429 . S
C537 C538 1.523 . S
C538 C519 1.368 . S
C538 C532 1.368 . S
C538 C537 1.523 . S
C539 C523 1.429 . S
C539 C535 1.429 . S
C539 C540 1.523 . S
C540 C524 1.368 . S
C540 C536 1.368 . S
C540 C539 1.523 . S
H541 C516 0.950 . S
H542 C518 0.950 . S
H543 C519 0.949 . S
H544 C521 0.950 . S
H545 C523 0.950 . S
C546 C547 1.349 . S
C546 C548 1.327 . S
C546 H571 0.950 . S
C547 C546 1.349 . S
C547 C563 1.349 . S
C548 C546 1.327 . S
C548 C567 1.429 . S
C548 H572 0.950 . S
C549 C566 1.574 . S
C549 C568 1.368 . S
C549 H573 0.949 . S
H550 C554 0.949 . S
C551 C552 1.349 . S
C551 C553 1.327 . S
C551 H574 0.950 . S
C552 C551 1.349 . S
C552 C564 1.349 . S
C553 C551 1.327 . S
C553 C569 1.429 . S
C553 H575 0.950 . S
C554 H550 0.949 . S
C554 C562 1.574 . S
C554 C570 1.368 . S
H555 C563 0.950 . S
H556 C561 0.950 . S
H557 C562 0.949 . S
H558 C564 0.950 . S
H559 C565 0.950 . S
H560 C566 0.949 . S
C561 H556 0.950 . S
C561 C563 1.327 . S
C561 C567 1.429 . S
C562 C554 1.574 . S
C562 H557 0.949 . S
C562 C568 1.368 . S
C563 C547 1.349 . S
C563 H555 0.950 . S
C563 C561 1.327 . S
C564 C552 1.349 . S
C564 H558 0.950 . S
C564 C565 1.327 . S
C565 H559 0.950 . S
C565 C564 1.327 . S
C565 C569 1.429 . S
C566 C549 1.574 . S
C566 H560 0.949 . S
C566 C570 1.368 . S
C567 C548 1.429 . S
C567 C561 1.429 . S
C567 C568 1.523 . S
C568 C549 1.368 . S
C568 C562 1.368 . S
C568 C567 1.523 . S
C569 C553 1.429 . S
C569 C565 1.429 . S
C569 C570 1.523 . S
C570 C554 1.368 . S
C570 C566 1.368 . S
C570 C569 1.523 . S
H571 C546 0.950 . S
H572 C548 0.950 . S
H573 C549 0.949 . S
H574 C551 0.950 . S
H575 C553 0.950 . S
C576 C577 1.349 . S
C576 C578 1.327 . S
C576 H601 0.950 . S
C577 C576 1.349 . S
C577 C593 1.349 . S
C578 C576 1.327 . S
C578 C597 1.429 . S
C578 H602 0.950 . S
C579 C596 1.574 . S
C579 C598 1.368 . S
C579 H603 0.949 . S
H580 C584 0.949 . S
C581 C582 1.349 . S
C581 C583 1.327 . S
C581 H604 0.950 . S
C582 C581 1.349 . S
C582 C594 1.349 . S
C583 C581 1.327 . S
C583 C599 1.429 . S
C583 H605 0.950 . S
C584 H580 0.949 . S
C584 C592 1.574 . S
C584 C600 1.368 . S
H585 C593 0.950 . S
H586 C591 0.950 . S
H587 C592 0.949 . S
H588 C594 0.950 . S
H589 C595 0.950 . S
H590 C596 0.949 . S
C591 H586 0.950 . S
C591 C593 1.327 . S
C591 C597 1.429 . S
C592 C584 1.574 . S
C592 H587 0.949 . S
C592 C598 1.368 . S
C593 C577 1.349 . S
C593 H585 0.950 . S
C593 C591 1.327 . S
C594 C582 1.349 . S
C594 H588 0.950 . S
C594 C595 1.327 . S
C595 H589 0.950 . S
C595 C594 1.327 . S
C595 C599 1.429 . S
C596 C579 1.574 . S
C596 H590 0.949 . S
C596 C600 1.368 . S
C597 C578 1.429 . S
C597 C591 1.429 . S
C597 C598 1.523 . S
C598 C579 1.368 . S
C598 C592 1.368 . S
C598 C597 1.523 . S
C599 C583 1.429 . S
C599 C595 1.429 . S
C599 C600 1.523 . S
C600 C584 1.368 . S
C600 C596 1.368 . S
C600 C599 1.523 . S
H601 C576 0.950 . S
H602 C578 0.950 . S
H603 C579 0.949 . S
H604 C581 0.950 . S
H605 C583 0.950 . S
C606 C607 1.349 . S
C606 C608 1.327 . S
C606 H631 0.950 . S
C607 C606 1.349 . S
C607 C623 1.349 . S
C608 C606 1.327 . S
C608 C627 1.429 . S
C608 H632 0.950 . S
C609 C626 1.574 . S
C609 C628 1.368 . S
C609 H633 0.949 . S
H610 C614 0.949 . S
C611 C612 1.349 . S
C611 C613 1.327 . S
C611 H634 0.950 . S
C612 C611 1.349 . S
C612 C624 1.349 . S
C613 C611 1.327 . S
C613 C629 1.429 . S
C613 H635 0.950 . S
C614 H610 0.949 . S
C614 C622 1.574 . S
C614 C630 1.368 . S
H615 C623 0.950 . S
H616 C621 0.950 . S
H617 C622 0.949 . S
H618 C624 0.950 . S
H619 C625 0.950 . S
H620 C626 0.949 . S
C621 H616 0.950 . S
C621 C623 1.327 . S
C621 C627 1.429 . S
C622 C614 1.574 . S
C622 H617 0.949 . S
C622 C628 1.368 . S
C623 C607 1.349 . S
C623 H615 0.950 . S
C623 C621 1.327 . S
C624 C612 1.349 . S
C624 H618 0.950 . S
C624 C625 1.327 . S
C625 H619 0.950 . S
C625 C624 1.327 . S
C625 C629 1.429 . S
C626 C609 1.574 . S
C626 H620 0.949 . S
C626 C630 1.368 . S
C627 C608 1.429 . S
C627 C621 1.429 . S
C627 C628 1.523 . S
C628 C609 1.368 . S
C628 C622 1.368 . S
C628 C627 1.523 . S
C629 C613 1.429 . S
C629 C625 1.429 . S
C629 C630 1.523 . S
C630 C614 1.368 . S
C630 C626 1.368 . S
C630 C629 1.523 . S
H631 C606 0.950 . S
H632 C608 0.950 . S
H633 C609 0.949 . S
H634 C611 0.950 . S
H635 C613 0.950 . S
C636 C637 1.349 . S
C636 C638 1.327 . S
C636 H661 0.950 . S
C637 C636 1.349 . S
C637 C653 1.349 . S
C638 C636 1.327 . S
C638 C657 1.429 . S
C638 H662 0.950 . S
C639 C656 1.574 . S
C639 C658 1.368 . S
C639 H663 0.949 . S
H640 C644 0.949 . S
C641 C642 1.349 . S
C641 C643 1.327 . S
C641 H664 0.950 . S
C642 C641 1.349 . S
C642 C654 1.349 . S
C643 C641 1.327 . S
C643 C659 1.429 . S
C643 H665 0.950 . S
C644 H640 0.949 . S
C644 C652 1.574 . S
C644 C660 1.368 . S
H645 C653 0.950 . S
H646 C651 0.950 . S
H647 C652 0.949 . S
H648 C654 0.950 . S
H649 C655 0.950 . S
H650 C656 0.949 . S
C651 H646 0.950 . S
C651 C653 1.327 . S
C651 C657 1.429 . S
C652 C644 1.574 . S
C652 H647 0.949 . S
C652 C658 1.368 . S
C653 C637 1.349 . S
C653 H645 0.950 . S
C653 C651 1.327 . S
C654 C642 1.349 . S
C654 H648 0.950 . S
C654 C655 1.327 . S
C655 H649 0.950 . S
C655 C654 1.327 . S
C655 C659 1.429 . S
C656 C639 1.574 . S
C656 H650 0.949 . S
C656 C660 1.368 . S
C657 C638 1.429 . S
C657 C651 1.429 . S
C657 C658 1.523 . S
C658 C639 1.368 . S
C658 C652 1.368 . S
C658 C657 1.523 . S
C659 C643 1.429 . S
C659 C655 1.429 . S
C659 C660 1.523 . S
C660 C644 1.368 . S
C660 C656 1.368 . S
C660 C659 1.523 . S
H661 C636 0.950 . S
H662 C638 0.950 . S
H663 C639 0.949 . S
H664 C641 0.950 . S
H665 C643 0.950 . S
C666 C667 1.349 . S
C666 C668 1.327 . S
C666 H691 0.950 . S
C667 C666 1.349 . S
C667 C683 1.349 . S
C668 C666 1.327 . S
C668 C687 1.429 . S
C668 H692 0.950 . S
C669 C686 1.574 . S
C669 C688 1.368 . S
C669 H693 0.949 . S
H670 C674 0.949 . S
C671 C672 1.349 . S
C671 C673 1.327 . S
C671 H694 0.950 . S
C672 C671 1.349 . S
C672 C684 1.349 . S
C673 C671 1.327 . S
C673 C689 1.429 . S
C673 H695 0.950 . S
C674 H670 0.949 . S
C674 C682 1.574 . S
C674 C690 1.368 . S
H675 C683 0.950 . S
H676 C681 0.950 . S
H677 C682 0.949 . S
H678 C684 0.950 1_545 S
H679 C685 0.950 . S
H680 C686 0.949 . S
C681 H676 0.950 . S
C681 C683 1.327 . S
C681 C687 1.429 . S
C682 C674 1.574 . S
C682 H677 0.949 . S
C682 C688 1.368 . S
C683 C667 1.349 . S
C683 H675 0.950 . S
C683 C681 1.327 . S
C684 C672 1.349 . S
C684 H678 0.950 1_565 S
C684 C685 1.327 . S
C685 H679 0.950 . S
C685 C684 1.327 . S
C685 C689 1.429 . S
C686 C669 1.574 . S
C686 H680 0.949 . S
C686 C690 1.368 . S
C687 C668 1.429 . S
C687 C681 1.429 . S
C687 C688 1.523 . S
C688 C669 1.368 . S
C688 C682 1.368 . S
C688 C687 1.523 . S
C689 C673 1.429 . S
C689 C685 1.429 . S
C689 C690 1.523 . S
C690 C674 1.368 . S
C690 C686 1.368 . S
C690 C689 1.523 . S
H691 C666 0.950 . S
H692 C668 0.950 . S
H693 C669 0.949 . S
H694 C671 0.950 . S
H695 C673 0.950 . S
C696 C697 1.349 . S
C696 C698 1.327 . S
C696 H721 0.950 . S
C697 C696 1.349 . S
C697 C713 1.349 . S
C698 C696 1.327 . S
C698 C717 1.429 . S
C698 H722 0.950 . S
C699 C716 1.574 . S
C699 C718 1.368 . S
C699 H723 0.949 . S
H700 C704 0.949 . S
C701 C702 1.349 . S
C701 C703 1.327 . S
C701 H724 0.950 . S
C702 C701 1.349 . S
C702 C714 1.349 . S
C703 C701 1.327 . S
C703 C719 1.429 . S
C703 H725 0.950 . S
C704 H700 0.949 . S
C704 C712 1.574 . S
C704 C720 1.368 . S
H705 C713 0.950 . S
H706 C711 0.950 . S
H707 C712 0.949 . S
H708 C714 0.950 . S
H709 C715 0.950 . S
H710 C716 0.949 . S
C711 H706 0.950 . S
C711 C713 1.327 . S
C711 C717 1.429 . S
C712 C704 1.574 . S
C712 H707 0.949 . S
C712 C718 1.368 . S
C713 C697 1.349 . S
C713 H705 0.950 . S
C713 C711 1.327 . S
C714 C702 1.349 . S
C714 H708 0.950 . S
C714 C715 1.327 . S
C715 H709 0.950 . S
C715 C714 1.327 . S
C715 C719 1.429 . S
C716 C699 1.574 . S
C716 H710 0.949 . S
C716 C720 1.368 . S
C717 C698 1.429 . S
C717 C711 1.429 . S
C717 C718 1.523 . S
C718 C699 1.368 . S
C718 C712 1.368 . S
C718 C717 1.523 . S
C719 C703 1.429 . S
C719 C715 1.429 . S
C719 C720 1.523 . S
C720 C704 1.368 . S
C720 C716 1.368 . S
C720 C719 1.523 . S
H721 C696 0.950 . S
H722 C698 0.950 . S
H723 C699 0.949 . S
H724 C701 0.950 . S
H725 C703 0.950 . S
C726 C727 1.349 . S
C726 C728 1.327 . S
C726 H751 0.950 . S
C727 C726 1.349 . S
C727 C743 1.349 . S
C728 C726 1.327 . S
C728 C747 1.429 . S
C728 H752 0.950 . S
C729 C746 1.574 . S
C729 C748 1.368 . S
C729 H753 0.949 . S
H730 C734 0.949 . S
C731 C732 1.349 . S
C731 C733 1.327 . S
C731 H754 0.950 . S
C732 C731 1.349 . S
C732 C744 1.349 . S
C733 C731 1.327 . S
C733 C749 1.429 . S
C733 H755 0.950 . S
C734 H730 0.949 . S
C734 C742 1.574 . S
C734 C750 1.368 . S
H735 C743 0.950 . S
H736 C741 0.950 . S
H737 C742 0.949 . S
H738 C744 0.950 . S
H739 C745 0.950 . S
H740 C746 0.949 . S
C741 H736 0.950 . S
C741 C743 1.327 . S
C741 C747 1.429 . S
C742 C734 1.574 . S
C742 H737 0.949 . S
C742 C748 1.368 . S
C743 C727 1.349 . S
C743 H735 0.950 . S
C743 C741 1.327 . S
C744 C732 1.349 . S
C744 H738 0.950 . S
C744 C745 1.327 . S
C745 H739 0.950 . S
C745 C744 1.327 . S
C745 C749 1.429 . S
C746 C729 1.574 . S
C746 H740 0.949 . S
C746 C750 1.368 . S
C747 C728 1.429 . S
C747 C741 1.429 . S
C747 C748 1.523 . S
C748 C729 1.368 . S
C748 C742 1.368 . S
C748 C747 1.523 . S
C749 C733 1.429 . S
C749 C745 1.429 . S
C749 C750 1.523 . S
C750 C734 1.368 . S
C750 C746 1.368 . S
C750 C749 1.523 . S
H751 C726 0.950 . S
H752 C728 0.950 . S
H753 C729 0.949 . S
H754 C731 0.950 . S
H755 C733 0.950 . S
C756 C757 1.349 . S
C756 C758 1.327 . S
C756 H781 0.950 . S
C757 C756 1.349 . S
C757 C773 1.349 . S
C758 C756 1.327 . S
C758 C777 1.429 . S
C758 H782 0.950 . S
C759 C776 1.574 . S
C759 C778 1.368 . S
C759 H783 0.949 . S
H760 C764 0.949 . S
C761 C762 1.349 . S
C761 C763 1.327 . S
C761 H784 0.950 . S
C762 C761 1.349 . S
C762 C774 1.349 . S
C763 C761 1.327 . S
C763 C779 1.429 . S
C763 H785 0.950 . S
C764 H760 0.949 . S
C764 C772 1.574 . S
C764 C780 1.368 . S
H765 C773 0.950 . S
H766 C771 0.950 . S
H767 C772 0.949 1_655 S
H768 C774 0.950 . S
H769 C775 0.950 . S
H770 C776 0.949 . S
C771 H766 0.950 . S
C771 C773 1.327 . S
C771 C777 1.429 . S
C772 C764 1.574 . S
C772 H767 0.949 1_455 S
C772 C778 1.375 1_554 S
C773 C757 1.349 . S
C773 H765 0.950 . S
C773 C771 1.327 . S
C774 C762 1.349 . S
C774 H768 0.950 . S
C774 C775 1.327 . S
C775 H769 0.950 . S
C775 C774 1.327 . S
C775 C779 1.429 . S
C776 C759 1.574 . S
C776 H770 0.949 . S
C776 C780 1.368 1_556 S
C777 C758 1.429 . S
C777 C771 1.429 . S
C777 C778 1.515 1_655 S
C778 C759 1.368 . S
C778 C772 1.375 1_556 S
C778 C777 1.515 1_455 S
C779 C763 1.429 . S
C779 C775 1.429 . S
C779 C780 1.523 . S
C780 C764 1.368 . S
C780 C776 1.368 1_554 S
C780 C779 1.523 . S
H781 C756 0.950 . S
H782 C758 0.950 . S
H783 C759 0.949 . S
H784 C761 0.950 . S
H785 C763 0.950 . S
C786 C787 1.349 . S
C786 C788 1.327 . S
C786 H811 0.950 . S
C787 C786 1.349 . S
C787 C803 1.349 . S
C788 C786 1.327 . S
C788 C807 1.429 . S
C788 H812 0.950 . S
C789 C806 1.574 . S
C789 C808 1.368 1_554 S
C789 H813 0.949 . S
H790 C794 0.949 . S
C791 C792 1.349 . S
C791 C793 1.327 . S
C791 H814 0.950 . S
C792 C791 1.349 . S
C792 C804 1.349 . S
C793 C791 1.327 . S
C793 C809 1.429 . S
C793 H815 0.950 . S
C794 H790 0.949 . S
C794 C802 1.574 . S
C794 C810 1.368 1_556 S
H795 C803 0.950 1_554 S
H796 C801 0.950 . S
H797 C802 0.949 . S
H798 C804 0.950 1_556 S
H799 C805 0.950 . S
H800 C806 0.949 . S
C801 H796 0.950 . S
C801 C803 1.327 1_554 S
C801 C807 1.429 1_554 S
C802 C794 1.574 . S
C802 H797 0.949 . S
C802 C808 1.368 . S
C803 C787 1.349 . S
C803 H795 0.950 1_556 S
C803 C801 1.327 1_556 S
C804 C792 1.349 . S
C804 H798 0.950 1_554 S
C804 C805 1.327 1_554 S
C805 H799 0.950 . S
C805 C804 1.327 1_556 S
C805 C809 1.429 1_556 S
C806 C789 1.574 . S
C806 H800 0.949 . S
C806 C810 1.368 . S
C807 C788 1.429 . S
C807 C801 1.429 1_556 S
C807 C808 1.523 . S
C808 C789 1.368 1_556 S
C808 C802 1.368 . S
C808 C807 1.523 . S
C809 C793 1.429 . S
C809 C805 1.429 1_554 S
C809 C810 1.523 . S
C810 C794 1.368 1_554 S
C810 C806 1.368 . S
C810 C809 1.523 . S
H811 C786 0.950 . S
H812 C788 0.950 . S
H813 C789 0.949 . S
H814 C791 0.950 . S
H815 C793 0.950 . S
C816 C817 1.349 . S
C816 C818 1.327 . S
C816 H841 0.950 . S
C817 C816 1.349 . S
C817 C833 1.349 . S
C818 C816 1.327 . S
C818 C837 1.429 . S
C818 H842 0.950 . S
C819 C836 1.574 . S
C819 C838 1.368 1_554 S
C819 H843 0.949 . S
H820 C824 0.949 1_565 S
C821 C822 1.349 . S
C821 C823 1.327 . S
C821 H844 0.950 . S
C822 C821 1.349 . S
C822 C834 1.349 . S
C823 C821 1.327 . S
C823 C839 1.429 . S
C823 H845 0.950 . S
C824 H820 0.949 1_545 S
C824 C832 1.574 . S
C824 C840 1.368 1_556 S
H825 C833 0.950 1_554 S
H826 C831 0.950 . S
H827 C832 0.949 . S
H828 C834 0.950 1_556 S
H829 C835 0.950 . S
H830 C836 0.949 . S
C831 H826 0.950 . S
C831 C833 1.327 1_554 S
C831 C837 1.429 1_554 S
C832 C824 1.574 . S
C832 H827 0.949 . S
C832 C838 1.368 . S
C833 C817 1.349 . S
C833 H825 0.950 1_556 S
C833 C831 1.327 1_556 S
C834 C822 1.349 . S
C834 H828 0.950 1_554 S
C834 C835 1.327 1_554 S
C835 H829 0.950 . S
C835 C834 1.327 1_556 S
C835 C839 1.429 1_556 S
C836 C819 1.574 . S
C836 H830 0.949 . S
C836 C840 1.375 . S
C837 C818 1.429 . S
C837 C831 1.429 1_556 S
C837 C838 1.523 . S
C838 C819 1.368 1_556 S
C838 C832 1.368 . S
C838 C837 1.523 . S
C839 C823 1.429 . S
C839 C835 1.429 1_554 S
C839 C840 1.515 1_565 S
C840 C824 1.368 1_554 S
C840 C836 1.375 . S
C840 C839 1.515 1_545 S
H841 C816 0.950 . S
H842 C818 0.950 . S
H843 C819 0.949 . S
H844 C821 0.950 . S
H845 C823 0.950 . S
C846 C847 1.349 . S
C846 C848 1.327 . S
C846 H871 0.950 1_556 S
C847 C846 1.349 . S
C847 C863 1.349 . S
C848 C846 1.327 . S
C848 C867 1.429 . S
C848 H872 0.950 1_556 S
C849 C866 1.574 . S
C849 C868 1.368 . S
C849 H873 0.949 . S
H850 C854 0.949 . S
C851 C852 1.349 . S
C851 C853 1.327 . S
C851 H874 0.950 1_554 S
C852 C851 1.349 . S
C852 C864 1.349 . S
C853 C851 1.327 . S
C853 C869 1.429 . S
C853 H875 0.950 1_554 S
C854 H850 0.949 . S
C854 C862 1.574 . S
C854 C870 1.376 . S
H855 C863 0.950 . S
H856 C861 0.950 . S
H857 C862 0.949 . S
H858 C864 0.950 . S
H859 C865 0.950 . S
H860 C866 0.949 1_565 S
C861 H856 0.950 . S
C861 C863 1.327 . S
C861 C867 1.429 . S
C862 C854 1.574 . S
C862 H857 0.949 . S
C862 C868 1.368 1_554 S
C863 C847 1.349 . S
C863 H855 0.950 . S
C863 C861 1.327 . S
C864 C852 1.349 . S
C864 H858 0.950 . S
C864 C865 1.327 . S
C865 H859 0.950 . S
C865 C864 1.327 . S
C865 C869 1.429 . S
C866 C849 1.574 . S
C866 H860 0.949 1_545 S
C866 C870 1.367 1_556 S
C867 C848 1.429 . S
C867 C861 1.429 . S
C867 C868 1.523 . S
C868 C849 1.368 . S
C868 C862 1.368 1_556 S
C868 C867 1.523 . S
C869 C853 1.429 . S
C869 C865 1.429 . S
C869 C870 1.514 1_565 S
C870 C854 1.376 . S
C870 C866 1.367 1_554 S
C870 C869 1.514 1_545 S
H871 C846 0.950 1_554 S
H872 C848 0.950 1_554 S
H873 C849 0.949 . S
H874 C851 0.950 1_556 S
H875 C853 0.950 1_556 S
C876 C877 1.349 . S
C876 C878 1.327 1_554 S
C876 H901 0.950 1_554 S
C877 C876 1.349 . S
C877 C893 1.349 . S
C878 C876 1.327 1_556 S
C878 C897 1.429 1_556 S
C878 H902 0.950 . S
C879 C896 1.574 . S
C879 C898 1.368 . S
C879 H903 0.949 . S
H880 C884 0.949 . S
C881 C882 1.349 . S
C881 C883 1.327 1_556 S
C881 H904 0.950 1_556 S
C882 C881 1.349 . S
C882 C894 1.349 . S
C883 C881 1.327 1_554 S
C883 C899 1.429 1_554 S
C883 H905 0.950 . S
C884 H880 0.949 . S
C884 C892 1.574 . S
C884 C900 1.375 . S
H885 C893 0.950 . S
H886 C891 0.950 . S
H887 C892 0.949 . S
H888 C894 0.950 . S
H889 C895 0.950 . S
H890 C896 0.949 1_655 S
C891 H886 0.950 . S
C891 C893 1.327 . S
C891 C897 1.429 . S
C892 C884 1.574 . S
C892 H887 0.949 . S
C892 C898 1.368 1_556 S
C893 C877 1.349 . S
C893 H885 0.950 . S
C893 C891 1.327 . S
C894 C882 1.349 . S
C894 H888 0.950 . S
C894 C895 1.327 . S
C895 H889 0.950 . S
C895 C894 1.327 . S
C895 C899 1.429 . S
C896 C879 1.574 . S
C896 H890 0.949 1_455 S
C896 C900 1.369 1_554 S
C897 C878 1.429 1_554 S
C897 C891 1.429 . S
C897 C898 1.523 . S
C898 C879 1.368 . S
C898 C892 1.368 1_554 S
C898 C897 1.523 . S
C899 C883 1.429 1_556 S
C899 C895 1.429 . S
C899 C900 1.514 1_655 S
C900 C884 1.375 . S
C900 C896 1.369 1_556 S
C900 C899 1.514 1_455 S
H901 C876 0.950 1_556 S
H902 C878 0.950 . S
H903 C879 0.949 . S
H904 C881 0.950 1_554 S
H905 C883 0.950 . S
C906 C907 1.349 . S
C906 C908 1.327 . S
C906 H931 0.950 . S
C907 C906 1.349 . S
C907 C923 1.349 . S
C908 C906 1.327 . S
C908 C927 1.429 . S
C908 H932 0.950 . S
C909 C926 1.574 1_554 S
C909 C928 1.368 . S
C909 H933 0.949 . S
H910 C914 0.949 . S
C911 C912 1.349 . S
C911 C913 1.327 . S
C911 H934 0.950 . S
C912 C911 1.349 . S
C912 C924 1.349 . S
C913 C911 1.327 . S
C913 C929 1.429 . S
C913 H935 0.950 . S
C914 H910 0.949 . S
C914 C922 1.574 1_556 S
C914 C930 1.368 . S
H915 C923 0.950 . S
H916 C921 0.950 . S
H917 C922 0.949 . S
H918 C924 0.950 . S
H919 C925 0.950 . S
H920 C926 0.949 . S
C921 H916 0.950 . S
C921 C923 1.327 . S
C921 C927 1.429 . S
C922 C914 1.574 1_554 S
C922 H917 0.949 . S
C922 C928 1.368 . S
C923 C907 1.349 . S
C923 H915 0.950 . S
C923 C921 1.327 . S
C924 C912 1.349 . S
C924 H918 0.950 . S
C924 C925 1.327 . S
C925 H919 0.950 . S
C925 C924 1.327 . S
C925 C929 1.429 . S
C926 C909 1.574 1_556 S
C926 H920 0.949 . S
C926 C930 1.368 . S
C927 C908 1.429 . S
C927 C921 1.429 . S
C927 C928 1.523 . S
C928 C909 1.368 . S
C928 C922 1.368 . S
C928 C927 1.523 . S
C929 C913 1.429 . S
C929 C925 1.429 . S
C929 C930 1.523 . S
C930 C914 1.368 . S
C930 C926 1.368 . S
C930 C929 1.523 . S
H931 C906 0.950 . S
H932 C908 0.950 . S
H933 C909 0.949 . S
H934 C911 0.950 . S
H935 C913 0.950 . S
C936 C937 1.349 . S
C936 C938 1.327 . S
C936 H961 0.950 . S
C937 C936 1.349 . S
C937 C953 1.349 . S
C938 C936 1.327 . S
C938 C957 1.429 . S
C938 H962 0.950 . S
C939 C956 1.574 . S
C939 C958 1.368 . S
C939 H963 0.949 . S
H940 C944 0.949 . S
C941 C942 1.349 . S
C941 C943 1.327 . S
C941 H964 0.950 . S
C942 C941 1.349 . S
C942 C954 1.349 . S
C943 C941 1.327 . S
C943 C959 1.429 . S
C943 H965 0.950 . S
C944 H940 0.949 . S
C944 C952 1.574 . S
C944 C960 1.368 . S
H945 C953 0.950 . S
H946 C951 0.950 . S
H947 C952 0.949 . S
H948 C954 0.950 . S
H949 C955 0.950 . S
H950 C956 0.949 . S
C951 H946 0.950 . S
C951 C953 1.327 . S
C951 C957 1.429 . S
C952 C944 1.574 . S
C952 H947 0.949 . S
C952 C958 1.368 . S
C953 C937 1.349 . S
C953 H945 0.950 . S
C953 C951 1.327 . S
C954 C942 1.349 . S
C954 H948 0.950 . S
C954 C955 1.327 . S
C955 H949 0.950 . S
C955 C954 1.327 . S
C955 C959 1.429 . S
C956 C939 1.574 . S
C956 H950 0.949 . S
C956 C960 1.368 . S
C957 C938 1.429 . S
C957 C951 1.429 . S
C957 C958 1.523 . S
C958 C939 1.368 . S
C958 C952 1.368 . S
C958 C957 1.523 . S
C959 C943 1.429 . S
C959 C955 1.429 . S
C959 C960 1.523 . S
C960 C944 1.368 . S
C960 C956 1.368 . S
C960 C959 1.523 . S
H961 C936 0.950 . S
H962 C938 0.950 . S
H963 C939 0.949 . S
H964 C941 0.950 . S
H965 C943 0.950 . S
C966 C967 1.349 . S
C966 C968 1.327 . S
C966 H991 0.950 . S
C967 C966 1.349 . S
C967 C983 1.349 . S
C968 C966 1.327 . S
C968 C987 1.429 . S
C968 H992 0.950 . S
C969 C986 1.574 . S
C969 C988 1.368 . S
C969 H993 0.949 . S
H970 C974 0.949 . S
C971 C972 1.349 . S
C971 C973 1.327 . S
C971 H994 0.950 . S
C972 C971 1.349 . S
C972 C984 1.349 . S
C973 C971 1.327 . S
C973 C989 1.429 . S
C973 H995 0.950 . S
C974 H970 0.949 . S
C974 C982 1.574 . S
C974 C990 1.368 . S
H975 C983 0.950 . S
H976 C981 0.950 . S
H977 C982 0.949 . S
H978 C984 0.950 . S
H979 C985 0.950 . S
H980 C986 0.949 . S
C981 H976 0.950 . S
C981 C983 1.327 . S
C981 C987 1.429 . S
C982 C974 1.574 . S
C982 H977 0.949 . S
C982 C988 1.368 . S
C983 C967 1.349 . S
C983 H975 0.950 . S
C983 C981 1.327 . S
C984 C972 1.349 . S
C984 H978 0.950 . S
C984 C985 1.327 . S
C985 H979 0.950 . S
C985 C984 1.327 . S
C985 C989 1.429 . S
C986 C969 1.574 . S
C986 H980 0.949 . S
C986 C990 1.368 . S
C987 C968 1.429 . S
C987 C981 1.429 . S
C987 C988 1.523 . S
C988 C969 1.368 . S
C988 C982 1.368 . S
C988 C987 1.523 . S
C989 C973 1.429 . S
C989 C985 1.429 . S
C989 C990 1.523 . S
C990 C974 1.368 . S
C990 C986 1.368 . S
C990 C989 1.523 . S
H991 C966 0.950 . S
H992 C968 0.950 . S
H993 C969 0.949 . S
H994 C971 0.950 . S
H995 C973 0.950 . S
C996 C997 1.349 . S
C996 C998 1.327 . S
C996 H1021 0.950 . S
C997 C996 1.349 . S
C997 C1013 1.349 . S
C998 C996 1.327 . S
C998 C1017 1.429 . S
C998 H1022 0.950 . S
C999 C1016 1.574 . S
C999 C1018 1.368 . S
C999 H1023 0.949 . S
H1000 C1004 0.949 . S
C1001 C1002 1.349 . S
C1001 C1003 1.327 . S
C1001 H1024 0.950 . S
C1002 C1001 1.349 . S
C1002 C1014 1.349 . S
C1003 C1001 1.327 . S
C1003 C1019 1.429 . S
C1003 H1025 0.950 . S
C1004 H1000 0.949 . S
C1004 C1012 1.574 . S
C1004 C1020 1.368 . S
H1005 C1013 0.950 . S
H1006 C1011 0.950 . S
H1007 C1012 0.949 . S
H1008 C1014 0.950 . S
H1009 C1015 0.950 . S
H1010 C1016 0.949 . S
C1011 H1006 0.950 . S
C1011 C1013 1.327 . S
C1011 C1017 1.429 . S
C1012 C1004 1.574 . S
C1012 H1007 0.949 . S
C1012 C1018 1.368 . S
C1013 C997 1.349 . S
C1013 H1005 0.950 . S
C1013 C1011 1.327 . S
C1014 C1002 1.349 . S
C1014 H1008 0.950 . S
C1014 C1015 1.327 . S
C1015 H1009 0.950 . S
C1015 C1014 1.327 . S
C1015 C1019 1.429 . S
C1016 C999 1.574 . S
C1016 H1010 0.949 . S
C1016 C1020 1.368 . S
C1017 C998 1.429 . S
C1017 C1011 1.429 . S
C1017 C1018 1.523 . S
C1018 C999 1.368 . S
C1018 C1012 1.368 . S
C1018 C1017 1.523 . S
C1019 C1003 1.429 . S
C1019 C1015 1.429 . S
C1019 C1020 1.523 . S
C1020 C1004 1.368 . S
C1020 C1016 1.368 . S
C1020 C1019 1.523 . S
H1021 C996 0.950 . S
H1022 C998 0.950 . S
H1023 C999 0.949 . S
H1024 C1001 0.950 . S
H1025 C1003 0.950 . S
C1026 C1027 1.349 . S
C1026 C1028 1.327 . S
C1026 H1051 0.950 . S
C1027 C1026 1.349 . S
C1027 C1043 1.349 . S
C1028 C1026 1.327 . S
C1028 C1047 1.429 . S
C1028 H1052 0.950 . S
C1029 C1046 1.574 . S
C1029 C1048 1.368 . S
C1029 H1053 0.949 . S
H1030 C1034 0.949 . S
C1031 C1032 1.349 . S
C1031 C1033 1.327 . S
C1031 H1054 0.950 . S
C1032 C1031 1.349 . S
C1032 C1044 1.349 . S
C1033 C1031 1.327 . S
C1033 C1049 1.429 . S
C1033 H1055 0.950 . S
C1034 H1030 0.949 . S
C1034 C1042 1.574 . S
C1034 C1050 1.368 . S
H1035 C1043 0.950 . S
H1036 C1041 0.950 . S
H1037 C1042 0.949 . S
H1038 C1044 0.950 . S
H1039 C1045 0.950 . S
H1040 C1046 0.949 . S
C1041 H1036 0.950 . S
C1041 C1043 1.327 . S
C1041 C1047 1.429 . S
C1042 C1034 1.574 . S
C1042 H1037 0.949 . S
C1042 C1048 1.368 . S
C1043 C1027 1.349 . S
C1043 H1035 0.950 . S
C1043 C1041 1.327 . S
C1044 C1032 1.349 . S
C1044 H1038 0.950 . S
C1044 C1045 1.327 . S
C1045 H1039 0.950 . S
C1045 C1044 1.327 . S
C1045 C1049 1.429 . S
C1046 C1029 1.574 . S
C1046 H1040 0.949 . S
C1046 C1050 1.368 . S
C1047 C1028 1.429 . S
C1047 C1041 1.429 . S
C1047 C1048 1.523 . S
C1048 C1029 1.368 . S
C1048 C1042 1.368 . S
C1048 C1047 1.523 . S
C1049 C1033 1.429 . S
C1049 C1045 1.429 . S
C1049 C1050 1.523 . S
C1050 C1034 1.368 . S
C1050 C1046 1.368 . S
C1050 C1049 1.523 . S
H1051 C1026 0.950 . S
H1052 C1028 0.950 . S
H1053 C1029 0.949 . S
H1054 C1031 0.950 . S
H1055 C1033 0.950 . S
C1056 C1057 1.349 . S
C1056 C1058 1.327 . S
C1056 H1081 0.950 . S
C1057 C1056 1.349 . S
C1057 C1073 1.349 . S
C1058 C1056 1.327 . S
C1058 C1077 1.429 . S
C1058 H1082 0.950 . S
C1059 C1076 1.574 . S
C1059 C1078 1.368 . S
C1059 H1083 0.949 . S
H1060 C1064 0.949 . S
C1061 C1062 1.349 . S
C1061 C1063 1.327 . S
C1061 H1084 0.950 . S
C1062 C1061 1.349 . S
C1062 C1074 1.349 . S
C1063 C1061 1.327 . S
C1063 C1079 1.429 . S
C1063 H1085 0.950 . S
C1064 H1060 0.949 . S
C1064 C1072 1.574 . S
C1064 C1080 1.368 . S
H1065 C1073 0.950 . S
H1066 C1071 0.950 . S
H1067 C1072 0.949 . S
H1068 C1074 0.950 . S
H1069 C1075 0.950 . S
H1070 C1076 0.949 . S
C1071 H1066 0.950 . S
C1071 C1073 1.327 . S
C1071 C1077 1.429 . S
C1072 C1064 1.574 . S
C1072 H1067 0.949 . S
C1072 C1078 1.368 . S
C1073 C1057 1.349 . S
C1073 H1065 0.950 . S
C1073 C1071 1.327 . S
C1074 C1062 1.349 . S
C1074 H1068 0.950 . S
C1074 C1075 1.327 . S
C1075 H1069 0.950 . S
C1075 C1074 1.327 . S
C1075 C1079 1.429 . S
C1076 C1059 1.574 . S
C1076 H1070 0.949 . S
C1076 C1080 1.368 . S
C1077 C1058 1.429 . S
C1077 C1071 1.429 . S
C1077 C1078 1.523 . S
C1078 C1059 1.368 . S
C1078 C1072 1.368 . S
C1078 C1077 1.523 . S
C1079 C1063 1.429 . S
C1079 C1075 1.429 . S
C1079 C1080 1.523 . S
C1080 C1064 1.368 . S
C1080 C1076 1.368 . S
C1080 C1079 1.523 . S
H1081 C1056 0.950 . S
H1082 C1058 0.950 . S
H1083 C1059 0.949 . S
H1084 C1061 0.950 . S
H1085 C1063 0.950 . S
C1086 C1087 1.349 . S
C1086 C1088 1.327 . S
C1086 H1111 0.950 . S
C1087 C1086 1.349 . S
C1087 C1103 1.349 . S
C1088 C1086 1.327 . S
C1088 C1107 1.429 . S
C1088 H1112 0.950 . S
C1089 C1106 1.574 . S
C1089 C1108 1.368 . S
C1089 H1113 0.949 . S
H1090 C1094 0.949 . S
C1091 C1092 1.349 . S
C1091 C1093 1.327 . S
C1091 H1114 0.950 . S
C1092 C1091 1.349 . S
C1092 C1104 1.349 . S
C1093 C1091 1.327 . S
C1093 C1109 1.429 . S
C1093 H1115 0.950 . S
C1094 H1090 0.949 . S
C1094 C1102 1.574 . S
C1094 C1110 1.368 . S
H1095 C1103 0.950 . S
H1096 C1101 0.950 . S
H1097 C1102 0.949 . S
H1098 C1104 0.950 . S
H1099 C1105 0.950 . S
H1100 C1106 0.949 . S
C1101 H1096 0.950 . S
C1101 C1103 1.327 . S
C1101 C1107 1.429 . S
C1102 C1094 1.574 . S
C1102 H1097 0.949 . S
C1102 C1108 1.368 . S
C1103 C1087 1.349 . S
C1103 H1095 0.950 . S
C1103 C1101 1.327 . S
C1104 C1092 1.349 . S
C1104 H1098 0.950 . S
C1104 C1105 1.327 . S
C1105 H1099 0.950 . S
C1105 C1104 1.327 . S
C1105 C1109 1.429 . S
C1106 C1089 1.574 . S
C1106 H1100 0.949 . S
C1106 C1110 1.368 . S
C1107 C1088 1.429 . S
C1107 C1101 1.429 . S
C1107 C1108 1.523 . S
C1108 C1089 1.368 . S
C1108 C1102 1.368 . S
C1108 C1107 1.523 . S
C1109 C1093 1.429 . S
C1109 C1105 1.429 . S
C1109 C1110 1.523 . S
C1110 C1094 1.368 . S
C1110 C1106 1.368 . S
C1110 C1109 1.523 . S
H1111 C1086 0.950 . S
H1112 C1088 0.950 . S
H1113 C1089 0.949 . S
H1114 C1091 0.950 . S
H1115 C1093 0.950 . S
C1116 C1117 1.349 . S
C1116 C1118 1.327 . S
C1116 H1141 0.950 . S
C1117 C1116 1.349 . S
C1117 C1133 1.349 . S
C1118 C1116 1.327 . S
C1118 C1137 1.429 . S
C1118 H1142 0.950 . S
C1119 C1136 1.574 . S
C1119 C1138 1.368 . S
C1119 H1143 0.949 . S
H1120 C1124 0.949 . S
C1121 C1122 1.349 . S
C1121 C1123 1.327 . S
C1121 H1144 0.950 . S
C1122 C1121 1.349 . S
C1122 C1134 1.349 . S
C1123 C1121 1.327 . S
C1123 C1139 1.429 . S
C1123 H1145 0.950 . S
C1124 H1120 0.949 . S
C1124 C1132 1.574 . S
C1124 C1140 1.368 . S
H1125 C1133 0.950 . S
H1126 C1131 0.950 . S
H1127 C1132 0.949 . S
H1128 C1134 0.950 . S
H1129 C1135 0.950 . S
H1130 C1136 0.949 . S
C1131 H1126 0.950 . S
C1131 C1133 1.327 . S
C1131 C1137 1.429 . S
C1132 C1124 1.574 . S
C1132 H1127 0.949 . S
C1132 C1138 1.368 . S
C1133 C1117 1.349 . S
C1133 H1125 0.950 . S
C1133 C1131 1.327 . S
C1134 C1122 1.349 . S
C1134 H1128 0.950 . S
C1134 C1135 1.327 . S
C1135 H1129 0.950 . S
C1135 C1134 1.327 . S
C1135 C1139 1.429 . S
C1136 C1119 1.574 . S
C1136 H1130 0.949 . S
C1136 C1140 1.368 . S
C1137 C1118 1.429 . S
C1137 C1131 1.429 . S
C1137 C1138 1.523 . S
C1138 C1119 1.368 . S
C1138 C1132 1.368 . S
C1138 C1137 1.523 . S
C1139 C1123 1.429 . S
C1139 C1135 1.429 . S
C1139 C1140 1.523 . S
C1140 C1124 1.368 . S
C1140 C1136 1.368 . S
C1140 C1139 1.523 . S
H1141 C1116 0.950 . S
H1142 C1118 0.950 . S
H1143 C1119 0.949 . S
H1144 C1121 0.950 . S
H1145 C1123 0.950 . S
C1146 C1147 1.349 . S
C1146 C1148 1.327 . S
C1146 H1171 0.950 . S
C1147 C1146 1.349 . S
C1147 C1163 1.349 . S
C1148 C1146 1.327 . S
C1148 C1167 1.429 . S
C1148 H1172 0.950 . S
C1149 C1166 1.574 . S
C1149 C1168 1.368 . S
C1149 H1173 0.949 . S
H1150 C1154 0.949 . S
C1151 C1152 1.349 . S
C1151 C1153 1.327 . S
C1151 H1174 0.950 . S
C1152 C1151 1.349 . S
C1152 C1164 1.349 . S
C1153 C1151 1.327 . S
C1153 C1169 1.429 . S
C1153 H1175 0.950 . S
C1154 H1150 0.949 . S
C1154 C1162 1.574 . S
C1154 C1170 1.368 . S
H1155 C1163 0.950 . S
H1156 C1161 0.950 . S
H1157 C1162 0.949 . S
H1158 C1164 0.950 . S
H1159 C1165 0.950 . S
H1160 C1166 0.949 . S
C1161 H1156 0.950 . S
C1161 C1163 1.327 . S
C1161 C1167 1.429 . S
C1162 C1154 1.574 . S
C1162 H1157 0.949 . S
C1162 C1168 1.368 . S
C1163 C1147 1.349 . S
C1163 H1155 0.950 . S
C1163 C1161 1.327 . S
C1164 C1152 1.349 . S
C1164 H1158 0.950 . S
C1164 C1165 1.327 . S
C1165 H1159 0.950 . S
C1165 C1164 1.327 . S
C1165 C1169 1.429 . S
C1166 C1149 1.574 . S
C1166 H1160 0.949 . S
C1166 C1170 1.368 . S
C1167 C1148 1.429 . S
C1167 C1161 1.429 . S
C1167 C1168 1.523 . S
C1168 C1149 1.368 . S
C1168 C1162 1.368 . S
C1168 C1167 1.523 . S
C1169 C1153 1.429 . S
C1169 C1165 1.429 . S
C1169 C1170 1.523 . S
C1170 C1154 1.368 . S
C1170 C1166 1.368 . S
C1170 C1169 1.523 . S
H1171 C1146 0.950 . S
H1172 C1148 0.950 . S
H1173 C1149 0.949 . S
H1174 C1151 0.950 . S
H1175 C1153 0.950 . S
C1176 C1177 1.349 . S
C1176 C1178 1.327 . S
C1176 H1201 0.950 . S
C1177 C1176 1.349 . S
C1177 C1193 1.349 . S
C1178 C1176 1.327 . S
C1178 C1197 1.429 . S
C1178 H1202 0.950 . S
C1179 C1196 1.574 . S
C1179 C1198 1.368 . S
C1179 H1203 0.949 . S
H1180 C1184 0.949 . S
C1181 C1182 1.349 . S
C1181 C1183 1.327 . S
C1181 H1204 0.950 . S
C1182 C1181 1.349 . S
C1182 C1194 1.349 . S
C1183 C1181 1.327 . S
C1183 C1199 1.429 . S
C1183 H1205 0.950 . S
C1184 H1180 0.949 . S
C1184 C1192 1.574 . S
C1184 C1200 1.368 . S
H1185 C1193 0.950 . S
H1186 C1191 0.950 . S
H1187 C1192 0.949 . S
H1188 C1194 0.950 . S
H1189 C1195 0.950 . S
H1190 C1196 0.949 . S
C1191 H1186 0.950 . S
C1191 C1193 1.327 . S
C1191 C1197 1.429 . S
C1192 C1184 1.574 . S
C1192 H1187 0.949 . S
C1192 C1198 1.368 . S
C1193 C1177 1.349 . S
C1193 H1185 0.950 . S
C1193 C1191 1.327 . S
C1194 C1182 1.349 . S
C1194 H1188 0.950 . S
C1194 C1195 1.327 . S
C1195 H1189 0.950 . S
C1195 C1194 1.327 . S
C1195 C1199 1.429 . S
C1196 C1179 1.574 . S
C1196 H1190 0.949 . S
C1196 C1200 1.368 . S
C1197 C1178 1.429 . S
C1197 C1191 1.429 . S
C1197 C1198 1.523 . S
C1198 C1179 1.368 . S
C1198 C1192 1.368 . S
C1198 C1197 1.523 . S
C1199 C1183 1.429 . S
C1199 C1195 1.429 . S
C1199 C1200 1.523 . S
C1200 C1184 1.368 . S
C1200 C1196 1.368 . S
C1200 C1199 1.523 . S
H1201 C1176 0.950 . S
H1202 C1178 0.950 . S
H1203 C1179 0.949 . S
H1204 C1181 0.950 . S
H1205 C1183 0.950 . S
C1206 C1207 1.349 . S
C1206 C1208 1.327 . S
C1206 H1231 0.950 . S
C1207 C1206 1.349 . S
C1207 C1223 1.349 . S
C1208 C1206 1.327 . S
C1208 C1227 1.429 . S
C1208 H1232 0.950 . S
C1209 C1226 1.574 . S
C1209 C1228 1.368 . S
C1209 H1233 0.949 . S
H1210 C1214 0.949 . S
C1211 C1212 1.349 . S
C1211 C1213 1.327 . S
C1211 H1234 0.950 . S
C1212 C1211 1.349 . S
C1212 C1224 1.349 . S
C1213 C1211 1.327 . S
C1213 C1229 1.429 . S
C1213 H1235 0.950 . S
C1214 H1210 0.949 . S
C1214 C1222 1.574 . S
C1214 C1230 1.368 . S
H1215 C1223 0.950 . S
H1216 C1221 0.950 . S
H1217 C1222 0.949 . S
H1218 C1224 0.950 . S
H1219 C1225 0.950 . S
H1220 C1226 0.949 . S
C1221 H1216 0.950 . S
C1221 C1223 1.327 . S
C1221 C1227 1.429 . S
C1222 C1214 1.574 . S
C1222 H1217 0.949 . S
C1222 C1228 1.368 . S
C1223 C1207 1.349 . S
C1223 H1215 0.950 . S
C1223 C1221 1.327 . S
C1224 C1212 1.349 . S
C1224 H1218 0.950 . S
C1224 C1225 1.327 . S
C1225 H1219 0.950 . S
C1225 C1224 1.327 . S
C1225 C1229 1.429 . S
C1226 C1209 1.574 . S
C1226 H1220 0.949 . S
C1226 C1230 1.368 . S
C1227 C1208 1.429 . S
C1227 C1221 1.429 . S
C1227 C1228 1.523 . S
C1228 C1209 1.368 . S
C1228 C1222 1.368 . S
C1228 C1227 1.523 . S
C1229 C1213 1.429 . S
C1229 C1225 1.429 . S
C1229 C1230 1.523 . S
C1230 C1214 1.368 . S
C1230 C1226 1.368 . S
C1230 C1229 1.523 . S
H1231 C1206 0.950 . S
H1232 C1208 0.950 . S
H1233 C1209 0.949 . S
H1234 C1211 0.950 . S
H1235 C1213 0.950 . S
C1236 C1237 1.349 . S
C1236 C1238 1.327 . S
C1236 H1261 0.950 . S
C1237 C1236 1.349 . S
C1237 C1253 1.349 . S
C1238 C1236 1.327 . S
C1238 C1257 1.429 . S
C1238 H1262 0.950 . S
C1239 C1256 1.574 . S
C1239 C1258 1.368 . S
C1239 H1263 0.949 . S
H1240 C1244 0.949 . S
C1241 C1242 1.349 . S
C1241 C1243 1.327 . S
C1241 H1264 0.950 . S
C1242 C1241 1.349 . S
C1242 C1254 1.349 . S
C1243 C1241 1.327 . S
C1243 C1259 1.429 . S
C1243 H1265 0.950 . S
C1244 H1240 0.949 . S
C1244 C1252 1.574 . S
C1244 C1260 1.368 . S
H1245 C1253 0.950 . S
H1246 C1251 0.950 . S
H1247 C1252 0.949 . S
H1248 C1254 0.950 . S
H1249 C1255 0.950 . S
H1250 C1256 0.949 . S
C1251 H1246 0.950 . S
C1251 C1253 1.327 . S
C1251 C1257 1.429 . S
C1252 C1244 1.574 . S
C1252 H1247 0.949 . S
C1252 C1258 1.368 . S
C1253 C1237 1.349 . S
C1253 H1245 0.950 . S
C1253 C1251 1.327 . S
C1254 C1242 1.349 . S
C1254 H1248 0.950 . S
C1254 C1255 1.327 . S
C1255 H1249 0.950 . S
C1255 C1254 1.327 . S
C1255 C1259 1.429 . S
C1256 C1239 1.574 . S
C1256 H1250 0.949 . S
C1256 C1260 1.368 . S
C1257 C1238 1.429 . S
C1257 C1251 1.429 . S
C1257 C1258 1.523 . S
C1258 C1239 1.368 . S
C1258 C1252 1.368 . S
C1258 C1257 1.523 . S
C1259 C1243 1.429 . S
C1259 C1255 1.429 . S
C1259 C1260 1.523 . S
C1260 C1244 1.368 . S
C1260 C1256 1.368 . S
C1260 C1259 1.523 . S
H1261 C1236 0.950 . S
H1262 C1238 0.950 . S
H1263 C1239 0.949 . S
H1264 C1241 0.950 . S
H1265 C1243 0.950 . S
C1266 C1267 1.349 . S
C1266 C1268 1.327 . S
C1266 H1291 0.950 . S
C1267 C1266 1.349 . S
C1267 C1283 1.349 . S
C1268 C1266 1.327 . S
C1268 C1287 1.429 . S
C1268 H1292 0.950 . S
C1269 C1286 1.574 . S
C1269 C1288 1.368 . S
C1269 H1293 0.949 . S
H1270 C1274 0.949 . S
C1271 C1272 1.349 . S
C1271 C1273 1.327 . S
C1271 H1294 0.950 . S
C1272 C1271 1.349 . S
C1272 C1284 1.349 . S
C1273 C1271 1.327 . S
C1273 C1289 1.429 . S
C1273 H1295 0.950 . S
C1274 H1270 0.949 . S
C1274 C1282 1.574 . S
C1274 C1290 1.368 . S
H1275 C1283 0.950 . S
H1276 C1281 0.950 . S
H1277 C1282 0.949 . S
H1278 C1284 0.950 . S
H1279 C1285 0.950 . S
H1280 C1286 0.949 . S
C1281 H1276 0.950 . S
C1281 C1283 1.327 . S
C1281 C1287 1.429 . S
C1282 C1274 1.574 . S
C1282 H1277 0.949 . S
C1282 C1288 1.368 . S
C1283 C1267 1.349 . S
C1283 H1275 0.950 . S
C1283 C1281 1.327 . S
C1284 C1272 1.349 . S
C1284 H1278 0.950 . S
C1284 C1285 1.327 . S
C1285 H1279 0.950 . S
C1285 C1284 1.327 . S
C1285 C1289 1.429 . S
C1286 C1269 1.574 . S
C1286 H1280 0.949 . S
C1286 C1290 1.368 . S
C1287 C1268 1.429 . S
C1287 C1281 1.429 . S
C1287 C1288 1.523 . S
C1288 C1269 1.368 . S
C1288 C1282 1.368 . S
C1288 C1287 1.523 . S
C1289 C1273 1.429 . S
C1289 C1285 1.429 . S
C1289 C1290 1.523 . S
C1290 C1274 1.368 . S
C1290 C1286 1.368 . S
C1290 C1289 1.523 . S
H1291 C1266 0.950 . S
H1292 C1268 0.950 . S
H1293 C1269 0.949 . S
H1294 C1271 0.950 . S
H1295 C1273 0.950 . S
C1296 C1297 1.349 . S
C1296 C1298 1.327 . S
C1296 H1321 0.950 . S
C1297 C1296 1.349 . S
C1297 C1313 1.349 . S
C1298 C1296 1.327 . S
C1298 C1317 1.429 . S
C1298 H1322 0.950 . S
C1299 C1316 1.574 . S
C1299 C1318 1.368 . S
C1299 H1323 0.949 . S
H1300 C1304 0.949 . S
C1301 C1302 1.349 . S
C1301 C1303 1.327 . S
C1301 H1324 0.950 . S
C1302 C1301 1.349 . S
C1302 C1314 1.349 . S
C1303 C1301 1.327 . S
C1303 C1319 1.429 . S
C1303 H1325 0.950 . S
C1304 H1300 0.949 . S
C1304 C1312 1.574 . S
C1304 C1320 1.368 . S
H1305 C1313 0.950 . S
H1306 C1311 0.950 . S
H1307 C1312 0.949 . S
H1308 C1314 0.950 . S
H1309 C1315 0.950 . S
H1310 C1316 0.949 . S
C1311 H1306 0.950 . S
C1311 C1313 1.327 . S
C1311 C1317 1.429 . S
C1312 C1304 1.574 . S
C1312 H1307 0.949 . S
C1312 C1318 1.368 . S
C1313 C1297 1.349 . S
C1313 H1305 0.950 . S
C1313 C1311 1.327 . S
C1314 C1302 1.349 . S
C1314 H1308 0.950 . S
C1314 C1315 1.327 . S
C1315 H1309 0.950 . S
C1315 C1314 1.327 . S
C1315 C1319 1.429 . S
C1316 C1299 1.574 . S
C1316 H1310 0.949 . S
C1316 C1320 1.368 . S
C1317 C1298 1.429 . S
C1317 C1311 1.429 . S
C1317 C1318 1.523 . S
C1318 C1299 1.368 . S
C1318 C1312 1.368 . S
C1318 C1317 1.523 . S
C1319 C1303 1.429 . S
C1319 C1315 1.429 . S
C1319 C1320 1.523 . S
C1320 C1304 1.368 . S
C1320 C1316 1.368 . S
C1320 C1319 1.523 . S
H1321 C1296 0.950 . S
H1322 C1298 0.950 . S
H1323 C1299 0.949 . S
H1324 C1301 0.950 . S
H1325 C1303 0.950 . S
C1326 C1327 1.349 . S
C1326 C1328 1.327 . S
C1326 H1351 0.950 . S
C1327 C1326 1.349 . S
C1327 C1343 1.349 . S
C1328 C1326 1.327 . S
C1328 C1347 1.429 . S
C1328 H1352 0.950 . S
C1329 C1346 1.574 . S
C1329 C1348 1.368 . S
C1329 H1353 0.949 . S
H1330 C1334 0.949 . S
C1331 C1332 1.349 . S
C1331 C1333 1.327 . S
C1331 H1354 0.950 . S
C1332 C1331 1.349 . S
C1332 C1344 1.349 . S
C1333 C1331 1.327 . S
C1333 C1349 1.429 . S
C1333 H1355 0.950 . S
C1334 H1330 0.949 . S
C1334 C1342 1.574 . S
C1334 C1350 1.368 . S
H1335 C1343 0.950 . S
H1336 C1341 0.950 . S
H1337 C1342 0.949 . S
H1338 C1344 0.950 . S
H1339 C1345 0.950 . S
H1340 C1346 0.949 . S
C1341 H1336 0.950 . S
C1341 C1343 1.327 . S
C1341 C1347 1.429 . S
C1342 C1334 1.574 . S
C1342 H1337 0.949 . S
C1342 C1348 1.368 . S
C1343 C1327 1.349 . S
C1343 H1335 0.950 . S
C1343 C1341 1.327 . S
C1344 C1332 1.349 . S
C1344 H1338 0.950 . S
C1344 C1345 1.327 . S
C1345 H1339 0.950 . S
C1345 C1344 1.327 . S
C1345 C1349 1.429 . S
C1346 C1329 1.574 . S
C1346 H1340 0.949 . S
C1346 C1350 1.368 . S
C1347 C1328 1.429 . S
C1347 C1341 1.429 . S
C1347 C1348 1.523 . S
C1348 C1329 1.368 . S
C1348 C1342 1.368 . S
C1348 C1347 1.523 . S
C1349 C1333 1.429 . S
C1349 C1345 1.429 . S
C1349 C1350 1.523 . S
C1350 C1334 1.368 . S
C1350 C1346 1.368 . S
C1350 C1349 1.523 . S
H1351 C1326 0.950 . S
H1352 C1328 0.950 . S
H1353 C1329 0.949 . S
H1354 C1331 0.950 . S
H1355 C1333 0.950 . S
C1356 C1357 1.349 . S
C1356 C1358 1.327 . S
C1356 H1381 0.950 . S
C1357 C1356 1.349 . S
C1357 C1373 1.349 . S
C1358 C1356 1.327 . S
C1358 C1377 1.429 . S
C1358 H1382 0.950 . S
C1359 C1376 1.574 . S
C1359 C1378 1.368 . S
C1359 H1383 0.949 . S
H1360 C1364 0.949 . S
C1361 C1362 1.349 . S
C1361 C1363 1.327 . S
C1361 H1384 0.950 . S
C1362 C1361 1.349 . S
C1362 C1374 1.349 . S
C1363 C1361 1.327 . S
C1363 C1379 1.429 . S
C1363 H1385 0.950 . S
C1364 H1360 0.949 . S
C1364 C1372 1.574 . S
C1364 C1380 1.368 . S
H1365 C1373 0.950 . S
H1366 C1371 0.950 . S
H1367 C1372 0.949 . S
H1368 C1374 0.950 . S
H1369 C1375 0.950 . S
H1370 C1376 0.949 . S
C1371 H1366 0.950 . S
C1371 C1373 1.327 . S
C1371 C1377 1.429 . S
C1372 C1364 1.574 . S
C1372 H1367 0.949 . S
C1372 C1378 1.368 . S
C1373 C1357 1.349 . S
C1373 H1365 0.950 . S
C1373 C1371 1.327 . S
C1374 C1362 1.349 . S
C1374 H1368 0.950 . S
C1374 C1375 1.327 . S
C1375 H1369 0.950 . S
C1375 C1374 1.327 . S
C1375 C1379 1.429 . S
C1376 C1359 1.574 . S
C1376 H1370 0.949 . S
C1376 C1380 1.368 . S
C1377 C1358 1.429 . S
C1377 C1371 1.429 . S
C1377 C1378 1.523 . S
C1378 C1359 1.368 . S
C1378 C1372 1.368 . S
C1378 C1377 1.523 . S
C1379 C1363 1.429 . S
C1379 C1375 1.429 . S
C1379 C1380 1.523 . S
C1380 C1364 1.368 . S
C1380 C1376 1.368 . S
C1380 C1379 1.523 . S
H1381 C1356 0.950 . S
H1382 C1358 0.950 . S
H1383 C1359 0.949 . S
H1384 C1361 0.950 . S
H1385 C1363 0.950 . S
C1386 C1387 1.349 . S
C1386 C1388 1.327 . S
C1386 H1411 0.950 . S
C1387 C1386 1.349 . S
C1387 C1403 1.349 . S
C1388 C1386 1.327 . S
C1388 C1407 1.429 . S
C1388 H1412 0.950 . S
C1389 C1406 1.574 . S
C1389 C1408 1.368 . S
C1389 H1413 0.949 . S
H1390 C1394 0.949 . S
C1391 C1392 1.349 . S
C1391 C1393 1.327 . S
C1391 H1414 0.950 . S
C1392 C1391 1.349 . S
C1392 C1404 1.349 . S
C1393 C1391 1.327 . S
C1393 C1409 1.429 . S
C1393 H1415 0.950 . S
C1394 H1390 0.949 . S
C1394 C1402 1.574 . S
C1394 C1410 1.368 . S
H1395 C1403 0.950 . S
H1396 C1401 0.950 . S
H1397 C1402 0.949 . S
H1398 C1404 0.950 . S
H1399 C1405 0.950 . S
H1400 C1406 0.949 . S
C1401 H1396 0.950 . S
C1401 C1403 1.327 . S
C1401 C1407 1.429 . S
C1402 C1394 1.574 . S
C1402 H1397 0.949 . S
C1402 C1408 1.368 . S
C1403 C1387 1.349 . S
C1403 H1395 0.950 . S
C1403 C1401 1.327 . S
C1404 C1392 1.349 . S
C1404 H1398 0.950 . S
C1404 C1405 1.327 . S
C1405 H1399 0.950 . S
C1405 C1404 1.327 . S
C1405 C1409 1.429 . S
C1406 C1389 1.574 . S
C1406 H1400 0.949 . S
C1406 C1410 1.368 . S
C1407 C1388 1.429 . S
C1407 C1401 1.429 . S
C1407 C1408 1.523 . S
C1408 C1389 1.368 . S
C1408 C1402 1.368 . S
C1408 C1407 1.523 . S
C1409 C1393 1.429 . S
C1409 C1405 1.429 . S
C1409 C1410 1.523 . S
C1410 C1394 1.368 . S
C1410 C1406 1.368 . S
C1410 C1409 1.523 . S
H1411 C1386 0.950 . S
H1412 C1388 0.950 . S
H1413 C1389 0.949 . S
H1414 C1391 0.950 . S
H1415 C1393 0.950 . S
C1416 C1417 1.349 . S
C1416 C1418 1.327 . S
C1416 H1441 0.950 . S
C1417 C1416 1.349 . S
C1417 C1433 1.349 . S
C1418 C1416 1.327 . S
C1418 C1437 1.429 . S
C1418 H1442 0.950 . S
C1419 C1436 1.574 . S
C1419 C1438 1.368 . S
C1419 H1443 0.949 . S
H1420 C1424 0.949 . S
C1421 C1422 1.349 . S
C1421 C1423 1.327 . S
C1421 H1444 0.950 . S
C1422 C1421 1.349 . S
C1422 C1434 1.349 . S
C1423 C1421 1.327 . S
C1423 C1439 1.429 . S
C1423 H1445 0.950 . S
C1424 H1420 0.949 . S
C1424 C1432 1.574 . S
C1424 C1440 1.368 . S
H1425 C1433 0.950 . S
H1426 C1431 0.950 . S
H1427 C1432 0.949 . S
H1428 C1434 0.950 . S
H1429 C1435 0.950 . S
H1430 C1436 0.949 . S
C1431 H1426 0.950 . S
C1431 C1433 1.327 . S
C1431 C1437 1.429 . S
C1432 C1424 1.574 . S
C1432 H1427 0.949 . S
C1432 C1438 1.368 . S
C1433 C1417 1.349 . S
C1433 H1425 0.950 . S
C1433 C1431 1.327 . S
C1434 C1422 1.349 . S
C1434 H1428 0.950 . S
C1434 C1435 1.327 . S
C1435 H1429 0.950 . S
C1435 C1434 1.327 . S
C1435 C1439 1.429 . S
C1436 C1419 1.574 . S
C1436 H1430 0.949 . S
C1436 C1440 1.368 . S
C1437 C1418 1.429 . S
C1437 C1431 1.429 . S
C1437 C1438 1.523 . S
C1438 C1419 1.368 . S
C1438 C1432 1.368 . S
C1438 C1437 1.523 . S
C1439 C1423 1.429 . S
C1439 C1435 1.429 . S
C1439 C1440 1.523 . S
C1440 C1424 1.368 . S
C1440 C1436 1.368 . S
C1440 C1439 1.523 . S
H1441 C1416 0.950 . S
H1442 C1418 0.950 . S
H1443 C1419 0.949 . S
H1444 C1421 0.950 . S
H1445 C1423 0.950 . S
C1446 C1447 1.349 . S
C1446 C1448 1.327 . S
C1446 H1471 0.950 . S
C1447 C1446 1.349 . S
C1447 C1463 1.349 . S
C1448 C1446 1.327 . S
C1448 C1467 1.429 . S
C1448 H1472 0.950 . S
C1449 C1466 1.574 . S
C1449 C1468 1.368 . S
C1449 H1473 0.949 . S
H1450 C1454 0.949 . S
C1451 C1452 1.349 . S
C1451 C1453 1.327 . S
C1451 H1474 0.950 . S
C1452 C1451 1.349 . S
C1452 C1464 1.349 . S
C1453 C1451 1.327 . S
C1453 C1469 1.429 . S
C1453 H1475 0.950 . S
C1454 H1450 0.949 . S
C1454 C1462 1.574 . S
C1454 C1470 1.368 . S
H1455 C1463 0.950 . S
H1456 C1461 0.950 . S
H1457 C1462 0.949 . S
H1458 C1464 0.950 . S
H1459 C1465 0.950 . S
H1460 C1466 0.949 . S
C1461 H1456 0.950 . S
C1461 C1463 1.327 . S
C1461 C1467 1.429 . S
C1462 C1454 1.574 . S
C1462 H1457 0.949 . S
C1462 C1468 1.368 . S
C1463 C1447 1.349 . S
C1463 H1455 0.950 . S
C1463 C1461 1.327 . S
C1464 C1452 1.349 . S
C1464 H1458 0.950 . S
C1464 C1465 1.327 . S
C1465 H1459 0.950 . S
C1465 C1464 1.327 . S
C1465 C1469 1.429 . S
C1466 C1449 1.574 . S
C1466 H1460 0.949 . S
C1466 C1470 1.368 . S
C1467 C1448 1.429 . S
C1467 C1461 1.429 . S
C1467 C1468 1.523 . S
C1468 C1449 1.368 . S
C1468 C1462 1.368 . S
C1468 C1467 1.523 . S
C1469 C1453 1.429 . S
C1469 C1465 1.429 . S
C1469 C1470 1.523 . S
C1470 C1454 1.368 . S
C1470 C1466 1.368 . S
C1470 C1469 1.523 . S
H1471 C1446 0.950 . S
H1472 C1448 0.950 . S
H1473 C1449 0.949 . S
H1474 C1451 0.950 . S
H1475 C1453 0.950 . S
C1476 C1477 1.349 . S
C1476 C1478 1.327 . S
C1476 H1501 0.950 . S
C1477 C1476 1.349 . S
C1477 C1493 1.349 . S
C1478 C1476 1.327 . S
C1478 C1497 1.429 . S
C1478 H1502 0.950 . S
C1479 C1496 1.578 1_554 S
C1479 C1498 1.368 . S
C1479 H1503 0.949 1_455 S
H1480 C1484 0.949 . S
C1481 C1482 1.390 . S
C1481 C1483 1.327 . S
C1481 H1504 0.910 1_455 S
C1482 C1481 1.390 . S
C1482 C1494 1.349 . S
C1483 C1481 1.327 . S
C1483 C1499 1.472 . S
C1483 H1505 0.909 1_455 S
C1484 H1480 0.949 . S
C1484 C1492 1.574 1_556 S
C1484 C1500 1.368 . S
H1485 C1493 0.950 1_655 S
H1486 C1491 0.950 1_655 S
H1487 C1492 0.949 . S
H1488 C1494 0.950 . S
H1489 C1495 0.950 . S
H1490 C1496 0.906 1_655 S
C1491 H1486 0.950 1_455 S
C1491 C1493 1.327 . S
C1491 C1497 1.429 . S
C1492 C1484 1.574 1_554 S
C1492 H1487 0.949 . S
C1492 C1498 1.368 . S
C1493 C1477 1.349 . S
C1493 H1485 0.950 1_455 S
C1493 C1491 1.327 . S
C1494 C1482 1.349 . S
C1494 H1488 0.950 . S
C1494 C1495 1.327 . S
C1495 H1489 0.950 . S
C1495 C1494 1.327 . S
C1495 C1499 1.429 . S
C1496 C1479 1.578 1_556 S
C1496 H1490 0.906 1_455 S
C1496 C1500 1.419 . S
C1497 C1478 1.429 . S
C1497 C1491 1.429 . S
C1497 C1498 1.523 . S
C1498 C1479 1.368 . S
C1498 C1492 1.368 . S
C1498 C1497 1.523 . S
C1499 C1483 1.472 . S
C1499 C1495 1.429 . S
C1499 C1500 1.523 . S
C1500 C1484 1.368 . S
C1500 C1496 1.419 . S
C1500 C1499 1.523 . S
H1501 C1476 0.950 . S
H1502 C1478 0.950 . S
H1503 C1479 0.949 1_655 S
H1504 C1481 0.910 1_655 S
H1505 C1483 0.909 1_655 S
C1506 C1507 1.349 . S
C1506 C1508 1.327 . S
C1506 H1531 0.950 . S
C1507 C1506 1.349 . S
C1507 C1523 1.349 . S
C1508 C1506 1.327 . S
C1508 C1527 1.429 . S
C1508 H1532 0.950 . S
C1509 C1526 1.574 1_554 S
C1509 C1528 1.368 . S
C1509 H1533 0.949 . S
H1510 C1514 0.949 . S
C1511 C1512 1.349 . S
C1511 C1513 1.327 . S
C1511 H1534 0.950 . S
C1512 C1511 1.349 . S
C1512 C1524 1.349 . S
C1513 C1511 1.327 . S
C1513 C1529 1.429 . S
C1513 H1535 0.950 . S
C1514 H1510 0.949 . S
C1514 C1522 1.574 1_556 S
C1514 C1530 1.368 . S
H1515 C1523 0.950 . S
H1516 C1521 0.950 . S
H1517 C1522 0.949 . S
H1518 C1524 0.950 . S
H1519 C1525 0.950 . S
H1520 C1526 0.949 . S
C1521 H1516 0.950 . S
C1521 C1523 1.327 . S
C1521 C1527 1.429 . S
C1522 C1514 1.574 1_554 S
C1522 H1517 0.949 . S
C1522 C1528 1.368 . S
C1523 C1507 1.349 . S
C1523 H1515 0.950 . S
C1523 C1521 1.327 . S
C1524 C1512 1.349 . S
C1524 H1518 0.950 . S
C1524 C1525 1.327 . S
C1525 H1519 0.950 . S
C1525 C1524 1.327 . S
C1525 C1529 1.429 . S
C1526 C1509 1.574 1_556 S
C1526 H1520 0.949 . S
C1526 C1530 1.368 . S
C1527 C1508 1.429 . S
C1527 C1521 1.429 . S
C1527 C1528 1.523 . S
C1528 C1509 1.368 . S
C1528 C1522 1.368 . S
C1528 C1527 1.523 . S
C1529 C1513 1.429 . S
C1529 C1525 1.429 . S
C1529 C1530 1.523 . S
C1530 C1514 1.368 . S
C1530 C1526 1.368 . S
C1530 C1529 1.523 . S
H1531 C1506 0.950 . S
H1532 C1508 0.950 . S
H1533 C1509 0.949 . S
H1534 C1511 0.950 . S
H1535 C1513 0.950 . S
C1536 C1537 1.349 . S
C1536 C1538 1.327 . S
C1536 H1561 0.950 1_545 S
C1537 C1536 1.349 . S
C1537 C1553 1.349 . S
C1538 C1536 1.327 . S
C1538 C1557 1.429 . S
C1538 H1562 0.950 1_545 S
C1539 C1556 1.574 1_554 S
C1539 C1558 1.368 . S
C1539 H1563 0.949 . S
H1540 C1544 0.949 1_565 S
C1541 C1542 1.349 . S
C1541 C1543 1.327 . S
C1541 H1564 0.950 . S
C1542 C1541 1.349 . S
C1542 C1554 1.349 . S
C1543 C1541 1.327 . S
C1543 C1559 1.429 . S
C1543 H1565 0.950 . S
C1544 H1540 0.949 1_545 S
C1544 C1552 1.574 1_556 S
C1544 C1560 1.368 . S
H1545 C1553 0.950 . S
H1546 C1551 0.950 . S
H1547 C1552 0.949 1_565 S
H1548 C1554 0.950 1_565 S
H1549 C1555 0.950 1_565 S
H1550 C1556 0.949 . S
C1551 H1546 0.950 . S
C1551 C1553 1.327 . S
C1551 C1557 1.429 . S
C1552 C1544 1.574 1_554 S
C1552 H1547 0.949 1_545 S
C1552 C1558 1.368 . S
C1553 C1537 1.349 . S
C1553 H1545 0.950 . S
C1553 C1551 1.327 . S
C1554 C1542 1.349 . S
C1554 H1548 0.950 1_545 S
C1554 C1555 1.327 . S
C1555 H1549 0.950 1_545 S
C1555 C1554 1.327 . S
C1555 C1559 1.429 . S
C1556 C1539 1.574 1_556 S
C1556 H1550 0.949 . S
C1556 C1560 1.368 . S
C1557 C1538 1.429 . S
C1557 C1551 1.429 . S
C1557 C1558 1.523 . S
C1558 C1539 1.368 . S
C1558 C1552 1.368 . S
C1558 C1557 1.523 . S
C1559 C1543 1.429 . S
C1559 C1555 1.429 . S
C1559 C1560 1.523 . S
C1560 C1544 1.368 . S
C1560 C1556 1.368 . S
C1560 C1559 1.523 . S
H1561 C1536 0.950 1_565 S
H1562 C1538 0.950 1_565 S
H1563 C1539 0.949 . S
H1564 C1541 0.950 . S
H1565 C1543 0.950 . S
C1566 C1567 1.349 . S
C1566 C1568 1.327 . S
C1566 H1591 0.950 . S
C1567 C1566 1.349 . S
C1567 C1583 1.349 . S
C1568 C1566 1.327 . S
C1568 C1587 1.429 . S
C1568 H1592 0.950 . S
C1569 C1586 1.574 1_556 S
C1569 C1588 1.368 . S
C1569 H1593 0.949 . S
H1570 C1574 0.949 . S
C1571 C1572 1.349 . S
C1571 C1573 1.327 . S
C1571 H1594 0.950 . S
C1572 C1571 1.349 . S
C1572 C1584 1.349 . S
C1573 C1571 1.327 . S
C1573 C1589 1.429 . S
C1573 H1595 0.950 . S
C1574 H1570 0.949 . S
C1574 C1582 1.574 1_554 S
C1574 C1590 1.368 . S
H1575 C1583 0.950 . S
H1576 C1581 0.950 . S
H1577 C1582 0.949 . S
H1578 C1584 0.950 . S
H1579 C1585 0.950 . S
H1580 C1586 0.949 . S
C1581 H1576 0.950 . S
C1581 C1583 1.327 . S
C1581 C1587 1.429 . S
C1582 C1574 1.574 1_556 S
C1582 H1577 0.949 . S
C1582 C1588 1.368 . S
C1583 C1567 1.349 . S
C1583 H1575 0.950 . S
C1583 C1581 1.327 . S
C1584 C1572 1.349 . S
C1584 H1578 0.950 . S
C1584 C1585 1.327 . S
C1585 H1579 0.950 . S
C1585 C1584 1.327 . S
C1585 C1589 1.429 . S
C1586 C1569 1.574 1_554 S
C1586 H1580 0.949 . S
C1586 C1590 1.368 . S
C1587 C1568 1.429 . S
C1587 C1581 1.429 . S
C1587 C1588 1.523 . S
C1588 C1569 1.368 . S
C1588 C1582 1.368 . S
C1588 C1587 1.523 . S
C1589 C1573 1.429 . S
C1589 C1585 1.429 . S
C1589 C1590 1.523 . S
C1590 C1574 1.368 . S
C1590 C1586 1.368 . S
C1590 C1589 1.523 . S
H1591 C1566 0.950 . S
H1592 C1568 0.950 . S
H1593 C1569 0.949 . S
H1594 C1571 0.950 . S
H1595 C1573 0.950 . S
C1596 C1597 1.349 . S
C1596 C1598 1.327 . S
C1596 H1621 0.950 . S
C1597 C1596 1.349 . S
C1597 C1613 1.349 . S
C1598 C1596 1.327 . S
C1598 C1617 1.429 . S
C1598 H1622 0.950 . S
C1599 C1616 1.574 1_554 S
C1599 C1618 1.368 . S
C1599 H1623 0.949 . S
H1600 C1604 0.949 . S
C1601 C1602 1.349 . S
C1601 C1603 1.327 . S
C1601 H1624 0.950 . S
C1602 C1601 1.349 . S
C1602 C1614 1.349 . S
C1603 C1601 1.327 . S
C1603 C1619 1.429 . S
C1603 H1625 0.950 . S
C1604 H1600 0.949 . S
C1604 C1612 1.574 1_556 S
C1604 C1620 1.368 . S
H1605 C1613 0.950 . S
H1606 C1611 0.950 . S
H1607 C1612 0.949 . S
H1608 C1614 0.950 . S
H1609 C1615 0.950 . S
H1610 C1616 0.949 . S
C1611 H1606 0.950 . S
C1611 C1613 1.327 . S
C1611 C1617 1.429 . S
C1612 C1604 1.574 1_554 S
C1612 H1607 0.949 . S
C1612 C1618 1.368 . S
C1613 C1597 1.349 . S
C1613 H1605 0.950 . S
C1613 C1611 1.327 . S
C1614 C1602 1.349 . S
C1614 H1608 0.950 . S
C1614 C1615 1.327 . S
C1615 H1609 0.950 . S
C1615 C1614 1.327 . S
C1615 C1619 1.429 . S
C1616 C1599 1.574 1_556 S
C1616 H1610 0.949 . S
C1616 C1620 1.368 . S
C1617 C1598 1.429 . S
C1617 C1611 1.429 . S
C1617 C1618 1.523 . S
C1618 C1599 1.368 . S
C1618 C1612 1.368 . S
C1618 C1617 1.523 . S
C1619 C1603 1.429 . S
C1619 C1615 1.429 . S
C1619 C1620 1.523 . S
C1620 C1604 1.368 . S
C1620 C1616 1.368 . S
C1620 C1619 1.523 . S
H1621 C1596 0.950 . S
H1622 C1598 0.950 . S
H1623 C1599 0.949 . S
H1624 C1601 0.950 . S
H1625 C1603 0.950 . S
C1626 C1627 1.349 . S
C1626 C1628 1.327 . S
C1626 H1651 0.950 . S
C1627 C1626 1.349 . S
C1627 C1643 1.349 . S
C1628 C1626 1.327 . S
C1628 C1647 1.429 . S
C1628 H1652 0.950 . S
C1629 C1646 1.574 1_554 S
C1629 C1648 1.368 . S
C1629 H1653 0.949 1_545 S
H1630 C1634 0.949 . S
C1631 C1632 1.349 . S
C1631 C1633 1.327 . S
C1631 H1654 0.950 1_545 S
C1632 C1631 1.349 . S
C1632 C1644 1.349 . S
C1633 C1631 1.327 . S
C1633 C1649 1.429 . S
C1633 H1655 0.950 1_545 S
C1634 H1630 0.949 . S
C1634 C1642 1.574 1_556 S
C1634 C1650 1.368 . S
H1635 C1643 0.950 1_565 S
H1636 C1641 0.950 1_565 S
H1637 C1642 0.949 . S
H1638 C1644 0.950 . S
H1639 C1645 0.950 . S
H1640 C1646 0.949 1_565 S
C1641 H1636 0.950 1_545 S
C1641 C1643 1.327 . S
C1641 C1647 1.429 . S
C1642 C1634 1.574 1_554 S
C1642 H1637 0.949 . S
C1642 C1648 1.368 . S
C1643 C1627 1.349 . S
C1643 H1635 0.950 1_545 S
C1643 C1641 1.327 . S
C1644 C1632 1.349 . S
C1644 H1638 0.950 . S
C1644 C1645 1.327 . S
C1645 H1639 0.950 . S
C1645 C1644 1.327 . S
C1645 C1649 1.429 . S
C1646 C1629 1.574 1_556 S
C1646 H1640 0.949 1_545 S
C1646 C1650 1.368 . S
C1647 C1628 1.429 . S
C1647 C1641 1.429 . S
C1647 C1648 1.523 . S
C1648 C1629 1.368 . S
C1648 C1642 1.368 . S
C1648 C1647 1.523 . S
C1649 C1633 1.429 . S
C1649 C1645 1.429 . S
C1649 C1650 1.523 . S
C1650 C1634 1.368 . S
C1650 C1646 1.368 . S
C1650 C1649 1.523 . S
H1651 C1626 0.950 . S
H1652 C1628 0.950 . S
H1653 C1629 0.949 1_565 S
H1654 C1631 0.950 1_565 S
H1655 C1633 0.950 1_565 S
C1656 C1657 1.349 . S
C1656 C1658 1.327 . S
C1656 H1681 0.950 . S
C1657 C1656 1.349 . S
C1657 C1673 1.349 . S
C1658 C1656 1.327 . S
C1658 C1677 1.429 . S
C1658 H1682 0.950 . S
C1659 C1676 1.574 . S
C1659 C1678 1.368 . S
C1659 H1683 0.949 . S
H1660 C1664 0.949 . S
C1661 C1662 1.349 . S
C1661 C1663 1.327 . S
C1661 H1684 0.950 . S
C1662 C1661 1.349 . S
C1662 C1674 1.349 . S
C1663 C1661 1.327 . S
C1663 C1679 1.429 . S
C1663 H1685 0.950 . S
C1664 H1660 0.949 . S
C1664 C1672 1.574 . S
C1664 C1680 1.368 . S
H1665 C1673 0.950 . S
H1666 C1671 0.950 . S
H1667 C1672 0.949 . S
H1668 C1674 0.950 . S
H1669 C1675 0.950 . S
H1670 C1676 0.949 . S
C1671 H1666 0.950 . S
C1671 C1673 1.327 . S
C1671 C1677 1.429 . S
C1672 C1664 1.574 . S
C1672 H1667 0.949 . S
C1672 C1678 1.368 . S
C1673 C1657 1.349 . S
C1673 H1665 0.950 . S
C1673 C1671 1.327 . S
C1674 C1662 1.349 . S
C1674 H1668 0.950 . S
C1674 C1675 1.327 . S
C1675 H1669 0.950 . S
C1675 C1674 1.327 . S
C1675 C1679 1.429 . S
C1676 C1659 1.574 . S
C1676 H1670 0.949 . S
C1676 C1680 1.368 . S
C1677 C1658 1.429 . S
C1677 C1671 1.429 . S
C1677 C1678 1.523 . S
C1678 C1659 1.368 . S
C1678 C1672 1.368 . S
C1678 C1677 1.523 . S
C1679 C1663 1.429 . S
C1679 C1675 1.429 . S
C1679 C1680 1.523 . S
C1680 C1664 1.368 . S
C1680 C1676 1.368 . S
C1680 C1679 1.523 . S
H1681 C1656 0.950 . S
H1682 C1658 0.950 . S
H1683 C1659 0.949 . S
H1684 C1661 0.950 . S
H1685 C1663 0.950 . S
C1686 C1687 1.349 . S
C1686 C1688 1.327 . S
C1686 H1711 0.950 . S
C1687 C1686 1.349 . S
C1687 C1703 1.349 . S
C1688 C1686 1.327 . S
C1688 C1707 1.429 . S
C1688 H1712 0.950 . S
C1689 C1706 1.574 . S
C1689 C1708 1.368 . S
C1689 H1713 0.949 . S
H1690 C1694 0.949 . S
C1691 C1692 1.349 . S
C1691 C1693 1.327 . S
C1691 H1714 0.950 . S
C1692 C1691 1.349 . S
C1692 C1704 1.349 . S
C1693 C1691 1.327 . S
C1693 C1709 1.429 . S
C1693 H1715 0.950 . S
C1694 H1690 0.949 . S
C1694 C1702 1.574 . S
C1694 C1710 1.368 . S
H1695 C1703 0.950 . S
H1696 C1701 0.950 . S
H1697 C1702 0.949 . S
H1698 C1704 0.950 . S
H1699 C1705 0.950 . S
H1700 C1706 0.949 . S
C1701 H1696 0.950 . S
C1701 C1703 1.327 . S
C1701 C1707 1.429 . S
C1702 C1694 1.574 . S
C1702 H1697 0.949 . S
C1702 C1708 1.368 . S
C1703 C1687 1.349 . S
C1703 H1695 0.950 . S
C1703 C1701 1.327 . S
C1704 C1692 1.349 . S
C1704 H1698 0.950 . S
C1704 C1705 1.327 . S
C1705 H1699 0.950 . S
C1705 C1704 1.327 . S
C1705 C1709 1.429 . S
C1706 C1689 1.574 . S
C1706 H1700 0.949 . S
C1706 C1710 1.368 . S
C1707 C1688 1.429 . S
C1707 C1701 1.429 . S
C1707 C1708 1.523 . S
C1708 C1689 1.368 . S
C1708 C1702 1.368 . S
C1708 C1707 1.523 . S
C1709 C1693 1.429 . S
C1709 C1705 1.429 . S
C1709 C1710 1.523 . S
C1710 C1694 1.368 . S
C1710 C1706 1.368 . S
C1710 C1709 1.523 . S
H1711 C1686 0.950 . S
H1712 C1688 0.950 . S
H1713 C1689 0.949 . S
H1714 C1691 0.950 . S
H1715 C1693 0.950 . S
C1716 C1717 1.349 . S
C1716 C1718 1.327 . S
C1716 H1741 0.950 . S
C1717 C1716 1.349 . S
C1717 C1733 1.349 . S
C1718 C1716 1.327 . S
C1718 C1737 1.429 . S
C1718 H1742 0.950 . S
C1719 C1736 1.574 . S
C1719 C1738 1.368 . S
C1719 H1743 0.949 . S
H1720 C1724 0.949 . S
C1721 C1722 1.349 . S
C1721 C1723 1.327 . S
C1721 H1744 0.950 . S
C1722 C1721 1.349 . S
C1722 C1734 1.349 . S
C1723 C1721 1.327 . S
C1723 C1739 1.429 . S
C1723 H1745 0.950 . S
C1724 H1720 0.949 . S
C1724 C1732 1.574 . S
C1724 C1740 1.368 . S
H1725 C1733 0.950 . S
H1726 C1731 0.950 . S
H1727 C1732 0.949 . S
H1728 C1734 0.950 . S
H1729 C1735 0.950 . S
H1730 C1736 0.949 . S
C1731 H1726 0.950 . S
C1731 C1733 1.327 . S
C1731 C1737 1.429 . S
C1732 C1724 1.574 . S
C1732 H1727 0.949 . S
C1732 C1738 1.368 . S
C1733 C1717 1.349 . S
C1733 H1725 0.950 . S
C1733 C1731 1.327 . S
C1734 C1722 1.349 . S
C1734 H1728 0.950 . S
C1734 C1735 1.327 . S
C1735 H1729 0.950 . S
C1735 C1734 1.327 . S
C1735 C1739 1.429 . S
C1736 C1719 1.574 . S
C1736 H1730 0.949 . S
C1736 C1740 1.368 . S
C1737 C1718 1.429 . S
C1737 C1731 1.429 . S
C1737 C1738 1.523 . S
C1738 C1719 1.368 . S
C1738 C1732 1.368 . S
C1738 C1737 1.523 . S
C1739 C1723 1.429 . S
C1739 C1735 1.429 . S
C1739 C1740 1.523 . S
C1740 C1724 1.368 . S
C1740 C1736 1.368 . S
C1740 C1739 1.523 . S
H1741 C1716 0.950 . S
H1742 C1718 0.950 . S
H1743 C1719 0.949 . S
H1744 C1721 0.950 . S
H1745 C1723 0.950 . S
C1746 C1747 1.349 . S
C1746 C1748 1.327 . S
C1746 H1771 0.950 . S
C1747 C1746 1.349 . S
C1747 C1763 1.349 . S
C1748 C1746 1.327 . S
C1748 C1767 1.429 . S
C1748 H1772 0.950 . S
C1749 C1766 1.574 . S
C1749 C1768 1.368 . S
C1749 H1773 0.949 . S
H1750 C1754 0.949 . S
C1751 C1752 1.349 . S
C1751 C1753 1.327 . S
C1751 H1774 0.950 . S
C1752 C1751 1.349 . S
C1752 C1764 1.349 . S
C1753 C1751 1.327 . S
C1753 C1769 1.429 . S
C1753 H1775 0.950 . S
C1754 H1750 0.949 . S
C1754 C1762 1.574 . S
C1754 C1770 1.368 . S
H1755 C1763 0.950 . S
H1756 C1761 0.950 . S
H1757 C1762 0.949 . S
H1758 C1764 0.950 . S
H1759 C1765 0.950 . S
H1760 C1766 0.949 . S
C1761 H1756 0.950 . S
C1761 C1763 1.327 . S
C1761 C1767 1.429 . S
C1762 C1754 1.574 . S
C1762 H1757 0.949 . S
C1762 C1768 1.368 . S
C1763 C1747 1.349 . S
C1763 H1755 0.950 . S
C1763 C1761 1.327 . S
C1764 C1752 1.349 . S
C1764 H1758 0.950 . S
C1764 C1765 1.327 . S
C1765 H1759 0.950 . S
C1765 C1764 1.327 . S
C1765 C1769 1.429 . S
C1766 C1749 1.574 . S
C1766 H1760 0.949 . S
C1766 C1770 1.368 . S
C1767 C1748 1.429 . S
C1767 C1761 1.429 . S
C1767 C1768 1.523 . S
C1768 C1749 1.368 . S
C1768 C1762 1.368 . S
C1768 C1767 1.523 . S
C1769 C1753 1.429 . S
C1769 C1765 1.429 . S
C1769 C1770 1.523 . S
C1770 C1754 1.368 . S
C1770 C1766 1.368 . S
C1770 C1769 1.523 . S
H1771 C1746 0.950 . S
H1772 C1748 0.950 . S
H1773 C1749 0.949 . S
H1774 C1751 0.950 . S
H1775 C1753 0.950 . S
C1776 C1777 1.349 . S
C1776 C1778 1.327 . S
C1776 H1801 0.950 . S
C1777 C1776 1.349 . S
C1777 C1793 1.349 . S
C1778 C1776 1.327 . S
C1778 C1797 1.429 . S
C1778 H1802 0.950 . S
C1779 C1796 1.574 . S
C1779 C1798 1.368 . S
C1779 H1803 0.949 . S
H1780 C1784 0.949 . S
C1781 C1782 1.349 . S
C1781 C1783 1.327 . S
C1781 H1804 0.950 . S
C1782 C1781 1.349 . S
C1782 C1794 1.349 . S
C1783 C1781 1.327 . S
C1783 C1799 1.429 . S
C1783 H1805 0.950 . S
C1784 H1780 0.949 . S
C1784 C1792 1.574 . S
C1784 C1800 1.368 . S
H1785 C1793 0.950 . S
H1786 C1791 0.950 . S
H1787 C1792 0.949 . S
H1788 C1794 0.950 . S
H1789 C1795 0.950 . S
H1790 C1796 0.949 . S
C1791 H1786 0.950 . S
C1791 C1793 1.327 . S
C1791 C1797 1.429 . S
C1792 C1784 1.574 . S
C1792 H1787 0.949 . S
C1792 C1798 1.368 . S
C1793 C1777 1.349 . S
C1793 H1785 0.950 . S
C1793 C1791 1.327 . S
C1794 C1782 1.349 . S
C1794 H1788 0.950 . S
C1794 C1795 1.327 . S
C1795 H1789 0.950 . S
C1795 C1794 1.327 . S
C1795 C1799 1.429 . S
C1796 C1779 1.574 . S
C1796 H1790 0.949 . S
C1796 C1800 1.368 . S
C1797 C1778 1.429 . S
C1797 C1791 1.429 . S
C1797 C1798 1.523 . S
C1798 C1779 1.368 . S
C1798 C1792 1.368 . S
C1798 C1797 1.523 . S
C1799 C1783 1.429 . S
C1799 C1795 1.429 . S
C1799 C1800 1.523 . S
C1800 C1784 1.368 . S
C1800 C1796 1.368 . S
C1800 C1799 1.523 . S
H1801 C1776 0.950 . S
H1802 C1778 0.950 . S
H1803 C1779 0.949 . S
H1804 C1781 0.950 . S
H1805 C1783 0.950 . S
C1806 C1807 1.349 . S
C1806 C1808 1.327 . S
C1806 H1831 0.950 . S
C1807 C1806 1.349 . S
C1807 C1823 1.349 . S
C1808 C1806 1.327 . S
C1808 C1827 1.429 . S
C1808 H1832 0.950 . S
C1809 C1826 1.574 . S
C1809 C1828 1.368 . S
C1809 H1833 0.949 . S
H1810 C1814 0.949 . S
C1811 C1812 1.349 . S
C1811 C1813 1.327 . S
C1811 H1834 0.950 . S
C1812 C1811 1.349 . S
C1812 C1824 1.349 . S
C1813 C1811 1.327 . S
C1813 C1829 1.429 . S
C1813 H1835 0.950 . S
C1814 H1810 0.949 . S
C1814 C1822 1.574 . S
C1814 C1830 1.368 . S
H1815 C1823 0.950 . S
H1816 C1821 0.950 . S
H1817 C1822 0.949 . S
H1818 C1824 0.950 . S
H1819 C1825 0.950 . S
H1820 C1826 0.949 . S
C1821 H1816 0.950 . S
C1821 C1823 1.327 . S
C1821 C1827 1.429 . S
C1822 C1814 1.574 . S
C1822 H1817 0.949 . S
C1822 C1828 1.368 . S
C1823 C1807 1.349 . S
C1823 H1815 0.950 . S
C1823 C1821 1.327 . S
C1824 C1812 1.349 . S
C1824 H1818 0.950 . S
C1824 C1825 1.327 . S
C1825 H1819 0.950 . S
C1825 C1824 1.327 . S
C1825 C1829 1.429 . S
C1826 C1809 1.574 . S
C1826 H1820 0.949 . S
C1826 C1830 1.368 . S
C1827 C1808 1.429 . S
C1827 C1821 1.429 . S
C1827 C1828 1.523 . S
C1828 C1809 1.368 . S
C1828 C1822 1.368 . S
C1828 C1827 1.523 . S
C1829 C1813 1.429 . S
C1829 C1825 1.429 . S
C1829 C1830 1.523 . S
C1830 C1814 1.368 . S
C1830 C1826 1.368 . S
C1830 C1829 1.523 . S
H1831 C1806 0.950 . S
H1832 C1808 0.950 . S
H1833 C1809 0.949 . S
H1834 C1811 0.950 . S
H1835 C1813 0.950 . S
C1836 C1837 1.349 . S
C1836 C1838 1.327 . S
C1836 H1861 0.950 . S
C1837 C1836 1.349 . S
C1837 C1853 1.349 . S
C1838 C1836 1.327 . S
C1838 C1857 1.429 . S
C1838 H1862 0.950 . S
C1839 C1856 1.574 . S
C1839 C1858 1.368 . S
C1839 H1863 0.949 . S
H1840 C1844 0.949 . S
C1841 C1842 1.349 . S
C1841 C1843 1.327 . S
C1841 H1864 0.950 . S
C1842 C1841 1.349 . S
C1842 C1854 1.349 . S
C1843 C1841 1.327 . S
C1843 C1859 1.429 . S
C1843 H1865 0.950 . S
C1844 H1840 0.949 . S
C1844 C1852 1.574 . S
C1844 C1860 1.368 . S
H1845 C1853 0.950 . S
H1846 C1851 0.950 . S
H1847 C1852 0.949 . S
H1848 C1854 0.950 . S
H1849 C1855 0.950 . S
H1850 C1856 0.949 . S
C1851 H1846 0.950 . S
C1851 C1853 1.327 . S
C1851 C1857 1.429 . S
C1852 C1844 1.574 . S
C1852 H1847 0.949 . S
C1852 C1858 1.368 . S
C1853 C1837 1.349 . S
C1853 H1845 0.950 . S
C1853 C1851 1.327 . S
C1854 C1842 1.349 . S
C1854 H1848 0.950 . S
C1854 C1855 1.327 . S
C1855 H1849 0.950 . S
C1855 C1854 1.327 . S
C1855 C1859 1.429 . S
C1856 C1839 1.574 . S
C1856 H1850 0.949 . S
C1856 C1860 1.368 . S
C1857 C1838 1.429 . S
C1857 C1851 1.429 . S
C1857 C1858 1.523 . S
C1858 C1839 1.368 . S
C1858 C1852 1.368 . S
C1858 C1857 1.523 . S
C1859 C1843 1.429 . S
C1859 C1855 1.429 . S
C1859 C1860 1.523 . S
C1860 C1844 1.368 . S
C1860 C1856 1.368 . S
C1860 C1859 1.523 . S
H1861 C1836 0.950 . S
H1862 C1838 0.950 . S
H1863 C1839 0.949 . S
H1864 C1841 0.950 . S
H1865 C1843 0.950 . S
C1866 C1867 1.349 . S
C1866 C1868 1.327 . S
C1866 H1891 0.950 . S
C1867 C1866 1.349 . S
C1867 C1883 1.349 . S
C1868 C1866 1.327 . S
C1868 C1887 1.429 . S
C1868 H1892 0.950 . S
C1869 C1886 1.574 . S
C1869 C1888 1.368 . S
C1869 H1893 0.949 . S
H1870 C1874 0.949 . S
C1871 C1872 1.349 . S
C1871 C1873 1.327 . S
C1871 H1894 0.950 . S
C1872 C1871 1.349 . S
C1872 C1884 1.349 . S
C1873 C1871 1.327 . S
C1873 C1889 1.429 . S
C1873 H1895 0.950 . S
C1874 H1870 0.949 . S
C1874 C1882 1.574 . S
C1874 C1890 1.368 . S
H1875 C1883 0.950 . S
H1876 C1881 0.950 . S
H1877 C1882 0.949 . S
H1878 C1884 0.950 . S
H1879 C1885 0.950 . S
H1880 C1886 0.949 . S
C1881 H1876 0.950 . S
C1881 C1883 1.327 . S
C1881 C1887 1.429 . S
C1882 C1874 1.574 . S
C1882 H1877 0.949 . S
C1882 C1888 1.368 . S
C1883 C1867 1.349 . S
C1883 H1875 0.950 . S
C1883 C1881 1.327 . S
C1884 C1872 1.349 . S
C1884 H1878 0.950 . S
C1884 C1885 1.327 . S
C1885 H1879 0.950 . S
C1885 C1884 1.327 . S
C1885 C1889 1.429 . S
C1886 C1869 1.574 . S
C1886 H1880 0.949 . S
C1886 C1890 1.368 . S
C1887 C1868 1.429 . S
C1887 C1881 1.429 . S
C1887 C1888 1.523 . S
C1888 C1869 1.368 . S
C1888 C1882 1.368 . S
C1888 C1887 1.523 . S
C1889 C1873 1.429 . S
C1889 C1885 1.429 . S
C1889 C1890 1.523 . S
C1890 C1874 1.368 . S
C1890 C1886 1.368 . S
C1890 C1889 1.523 . S
H1891 C1866 0.950 . S
H1892 C1868 0.950 . S
H1893 C1869 0.949 . S
H1894 C1871 0.950 . S
H1895 C1873 0.950 . S
C1896 C1897 1.349 . S
C1896 C1898 1.327 . S
C1896 H1921 0.950 . S
C1897 C1896 1.349 . S
C1897 C1913 1.349 . S
C1898 C1896 1.327 . S
C1898 C1917 1.429 . S
C1898 H1922 0.950 . S
C1899 C1916 1.574 . S
C1899 C1918 1.368 . S
C1899 H1923 0.949 . S
H1900 C1904 0.949 . S
C1901 C1902 1.349 . S
C1901 C1903 1.327 . S
C1901 H1924 0.950 . S
C1902 C1901 1.349 . S
C1902 C1914 1.349 . S
C1903 C1901 1.327 . S
C1903 C1919 1.429 . S
C1903 H1925 0.950 . S
C1904 H1900 0.949 . S
C1904 C1912 1.574 . S
C1904 C1920 1.368 . S
H1905 C1913 0.950 . S
H1906 C1911 0.950 . S
H1907 C1912 0.949 . S
H1908 C1914 0.950 . S
H1909 C1915 0.950 . S
H1910 C1916 0.949 . S
C1911 H1906 0.950 . S
C1911 C1913 1.327 . S
C1911 C1917 1.429 . S
C1912 C1904 1.574 . S
C1912 H1907 0.949 . S
C1912 C1918 1.368 . S
C1913 C1897 1.349 . S
C1913 H1905 0.950 . S
C1913 C1911 1.327 . S
C1914 C1902 1.349 . S
C1914 H1908 0.950 . S
C1914 C1915 1.327 . S
C1915 H1909 0.950 . S
C1915 C1914 1.327 . S
C1915 C1919 1.429 . S
C1916 C1899 1.574 . S
C1916 H1910 0.949 . S
C1916 C1920 1.368 . S
C1917 C1898 1.429 . S
C1917 C1911 1.429 . S
C1917 C1918 1.523 . S
C1918 C1899 1.368 . S
C1918 C1912 1.368 . S
C1918 C1917 1.523 . S
C1919 C1903 1.429 . S
C1919 C1915 1.429 . S
C1919 C1920 1.523 . S
C1920 C1904 1.368 . S
C1920 C1916 1.368 . S
C1920 C1919 1.523 . S
H1921 C1896 0.950 . S
H1922 C1898 0.950 . S
H1923 C1899 0.949 . S
H1924 C1901 0.950 . S
H1925 C1903 0.950 . S
C1926 C1927 1.349 . S
C1926 C1928 1.327 . S
C1926 H1951 0.950 . S
C1927 C1926 1.349 . S
C1927 C1943 1.349 . S
C1928 C1926 1.327 . S
C1928 C1947 1.429 . S
C1928 H1952 0.950 . S
C1929 C1946 1.574 . S
C1929 C1948 1.368 . S
C1929 H1953 0.949 . S
H1930 C1934 0.949 . S
C1931 C1932 1.349 . S
C1931 C1933 1.327 . S
C1931 H1954 0.950 . S
C1932 C1931 1.349 . S
C1932 C1944 1.349 . S
C1933 C1931 1.327 . S
C1933 C1949 1.429 . S
C1933 H1955 0.950 . S
C1934 H1930 0.949 . S
C1934 C1942 1.574 . S
C1934 C1950 1.368 . S
H1935 C1943 0.950 . S
H1936 C1941 0.950 . S
H1937 C1942 0.949 . S
H1938 C1944 0.950 . S
H1939 C1945 0.950 . S
H1940 C1946 0.949 . S
C1941 H1936 0.950 . S
C1941 C1943 1.327 . S
C1941 C1947 1.429 . S
C1942 C1934 1.574 . S
C1942 H1937 0.949 . S
C1942 C1948 1.368 . S
C1943 C1927 1.349 . S
C1943 H1935 0.950 . S
C1943 C1941 1.327 . S
C1944 C1932 1.349 . S
C1944 H1938 0.950 . S
C1944 C1945 1.327 . S
C1945 H1939 0.950 . S
C1945 C1944 1.327 . S
C1945 C1949 1.429 . S
C1946 C1929 1.574 . S
C1946 H1940 0.949 . S
C1946 C1950 1.368 . S
C1947 C1928 1.429 . S
C1947 C1941 1.429 . S
C1947 C1948 1.523 . S
C1948 C1929 1.368 . S
C1948 C1942 1.368 . S
C1948 C1947 1.523 . S
C1949 C1933 1.429 . S
C1949 C1945 1.429 . S
C1949 C1950 1.523 . S
C1950 C1934 1.368 . S
C1950 C1946 1.368 . S
C1950 C1949 1.523 . S
H1951 C1926 0.950 . S
H1952 C1928 0.950 . S
H1953 C1929 0.949 . S
H1954 C1931 0.950 . S
H1955 C1933 0.950 . S
C1956 C1957 1.349 . S
C1956 C1958 1.327 . S
C1956 H1981 0.950 . S
C1957 C1956 1.349 . S
C1957 C1973 1.349 . S
C1958 C1956 1.327 . S
C1958 C1977 1.429 . S
C1958 H1982 0.950 . S
C1959 C1976 1.574 . S
C1959 C1978 1.368 . S
C1959 H1983 0.949 . S
H1960 C1964 0.949 . S
C1961 C1962 1.349 . S
C1961 C1963 1.327 . S
C1961 H1984 0.950 . S
C1962 C1961 1.349 . S
C1962 C1974 1.349 . S
C1963 C1961 1.327 . S
C1963 C1979 1.429 . S
C1963 H1985 0.950 . S
C1964 H1960 0.949 . S
C1964 C1972 1.574 . S
C1964 C1980 1.368 . S
H1965 C1973 0.950 . S
H1966 C1971 0.950 . S
H1967 C1972 0.949 . S
H1968 C1974 0.950 . S
H1969 C1975 0.950 . S
H1970 C1976 0.949 . S
C1971 H1966 0.950 . S
C1971 C1973 1.327 . S
C1971 C1977 1.429 . S
C1972 C1964 1.574 . S
C1972 H1967 0.949 . S
C1972 C1978 1.368 . S
C1973 C1957 1.349 . S
C1973 H1965 0.950 . S
C1973 C1971 1.327 . S
C1974 C1962 1.349 . S
C1974 H1968 0.950 . S
C1974 C1975 1.327 . S
C1975 H1969 0.950 . S
C1975 C1974 1.327 . S
C1975 C1979 1.429 . S
C1976 C1959 1.574 . S
C1976 H1970 0.949 . S
C1976 C1980 1.368 . S
C1977 C1958 1.429 . S
C1977 C1971 1.429 . S
C1977 C1978 1.523 . S
C1978 C1959 1.368 . S
C1978 C1972 1.368 . S
C1978 C1977 1.523 . S
C1979 C1963 1.429 . S
C1979 C1975 1.429 . S
C1979 C1980 1.523 . S
C1980 C1964 1.368 . S
C1980 C1976 1.368 . S
C1980 C1979 1.523 . S
H1981 C1956 0.950 . S
H1982 C1958 0.950 . S
H1983 C1959 0.949 . S
H1984 C1961 0.950 . S
H1985 C1963 0.950 . S
C1986 C1987 1.349 . S
C1986 C1988 1.327 . S
C1986 H2011 0.950 . S
C1987 C1986 1.349 . S
C1987 C2003 1.349 . S
C1988 C1986 1.327 . S
C1988 C2007 1.429 . S
C1988 H2012 0.950 . S
C1989 C2006 1.574 . S
C1989 C2008 1.368 . S
C1989 H2013 0.949 . S
H1990 C1994 0.949 . S
C1991 C1992 1.349 . S
C1991 C1993 1.327 . S
C1991 H2014 0.950 . S
C1992 C1991 1.349 . S
C1992 C2004 1.349 . S
C1993 C1991 1.327 . S
C1993 C2009 1.429 . S
C1993 H2015 0.950 . S
C1994 H1990 0.949 . S
C1994 C2002 1.574 . S
C1994 C2010 1.368 . S
H1995 C2003 0.950 . S
H1996 C2001 0.950 . S
H1997 C2002 0.949 . S
H1998 C2004 0.950 . S
H1999 C2005 0.950 . S
H2000 C2006 0.949 . S
C2001 H1996 0.950 . S
C2001 C2003 1.327 . S
C2001 C2007 1.429 . S
C2002 C1994 1.574 . S
C2002 H1997 0.949 . S
C2002 C2008 1.368 . S
C2003 C1987 1.349 . S
C2003 H1995 0.950 . S
C2003 C2001 1.327 . S
C2004 C1992 1.349 . S
C2004 H1998 0.950 . S
C2004 C2005 1.327 . S
C2005 H1999 0.950 . S
C2005 C2004 1.327 . S
C2005 C2009 1.429 . S
C2006 C1989 1.574 . S
C2006 H2000 0.949 . S
C2006 C2010 1.368 . S
C2007 C1988 1.429 . S
C2007 C2001 1.429 . S
C2007 C2008 1.523 . S
C2008 C1989 1.368 . S
C2008 C2002 1.368 . S
C2008 C2007 1.523 . S
C2009 C1993 1.429 . S
C2009 C2005 1.429 . S
C2009 C2010 1.523 . S
C2010 C1994 1.368 . S
C2010 C2006 1.368 . S
C2010 C2009 1.523 . S
H2011 C1986 0.950 . S
H2012 C1988 0.950 . S
H2013 C1989 0.949 . S
H2014 C1991 0.950 . S
H2015 C1993 0.950 . S
C397 C294 1.105 . S
C402 C4 1.105 . S
C427 C26 1.105 . S
C432 C316 1.105 . S
C457 C48 1.105 . S
C462 C272 1.105 . S
C487 C52 1.105 . S
C492 C158 1.105 . S
C517 C180 1.105 . S
C522 C8 1.105 . S
C547 C30 1.105 . S
C552 C136 1.105 . S
C577 C74 1.105 . S
C582 C224 1.105 . S
C607 C96 1.105 . S
C612 C246 1.105 . S
C637 C202 1.105 . S
C642 C118 1.105 . S
C667 C360 1.105 . S
C672 C114 1.105 . S
C697 C70 1.105 . S
C702 C382 1.105 . S
C727 C338 1.105 . S
C732 C92 1.105 . S
C757 C184 1.105 . S
C762 C290 1.105 . S
C787 C140 1.105 . S
C792 C312 1.105 . S
C817 C162 1.105 . S
C822 C268 1.105 . S
C847 C206 1.105 . S
C852 C356 1.105 . S
C877 C378 1.105 . S
C882 C228 1.105 . S
C907 C334 1.105 . S
C912 C250 1.105 . S
C937 C6 1.635 . S
C942 C93 1.634 . S
C967 C115 1.635 . S
C972 C28 1.635 . S
C997 C71 1.635 . S
C1002 C50 1.635 . S
C1027 C97 1.634 . S
C1032 C51 1.635 . S
C1057 C119 1.635 . S
C1062 C7 1.635 . S
C1087 C75 1.635 . S
C1092 C29 1.635 . S
C1117 C225 1.635 . S
C1122 C138 1.635 . S
C1147 C247 1.635 . S
C1152 C160 1.635 . S
C1177 C203 1.635 . S
C1182 C182 1.635 . S
C1207 C229 1.635 . S
C1212 C183 1.635 . S
C1237 C251 1.635 . S
C1242 C139 1.635 . S
C1267 C207 1.634 . S
C1272 C161 1.634 . S
C1297 C357 1.635 . S
C1302 C270 1.635 . S
C1327 C379 1.634 . S
C1332 C292 1.634 . S
C1357 C314 1.635 . S
C1362 C335 1.635 . S
C1387 C315 1.635 . S
C1392 C361 1.635 . S
C1417 C271 1.635 . S
C1422 C383 1.635 . S
C1447 C339 1.635 . S
C1452 C293 1.635 . S
C1477 C5 1.600 . S
C1482 C9 1.600 . S
C1507 C27 1.600 . S
C1512 C31 1.600 . S
C1537 C49 1.600 . S
C1542 C53 1.600 . S
C1567 C73 1.600 . S
C1572 C72 1.600 . S
C1597 C94 1.600 . S
C1602 C95 1.600 . S
C1627 C116 1.600 . S
C1632 C117 1.600 . S
C1657 C141 1.600 1_554 S
C1662 C137 1.600 . S
C1687 C159 1.600 . S
C1692 C163 1.600 1_554 S
C1717 C185 1.600 1_554 S
C1722 C181 1.600 . S
C1747 C205 1.600 1_554 S
C1752 C204 1.600 . S
C1777 C227 1.600 1_554 S
C1782 C226 1.600 . S
C1807 C249 1.600 1_554 S
C1812 C248 1.600 . S
C1837 C273 1.600 . S
C1842 C269 1.600 1_556 S
C1867 C291 1.600 1_556 S
C1872 C295 1.600 . S
C1897 C313 1.600 1_556 S
C1902 C317 1.600 . S
C1927 C336 1.600 1_556 S
C1932 C337 1.600 . S
C1957 C358 1.600 1_556 S
C1962 C359 1.600 . S
C1987 C381 1.600 . S
C1992 C380 1.600 1_556 S
