# Generated by pormake.
# Topology wkj, (6)-cn, num edge types: 1
# Building blocks:
#     Node 0, Type 0, BuildingBlock: NUHQIS_clean_sbu_0, # of connection points: 6
#     Node 1, Type 0, BuildingBlock: NUHQIS_clean_sbu_0, # of connection points: 6
#     Node 2, Type 0, BuildingBlock: NUHQIS_clean_sbu_0, # of connection points: 6
#     Node 3, Type 0, BuildingBlock: NUHQIS_clean_sbu_0, # of connection points: 6
#     Node 4, Type 0, BuildingBlock: NUHQIS_clean_sbu_0, # of connection points: 6
#     Node 5, Type 0, BuildingBlock: NUHQIS_clean_sbu_0, # of connection points: 6
#     Node 6, Type 0, BuildingBlock: NUHQIS_clean_sbu_0, # of connection points: 6
#     Node 7, Type 0, BuildingBlock: NUHQIS_clean_sbu_0, # of connection points: 6
#     Node 8, Type 0, BuildingBlock: NUHQIS_clean_sbu_0, # of connection points: 6
#     Node 9, Type 0, BuildingBlock: NUHQIS_clean_sbu_0, # of connection points: 6
#     Node 10, Type 0, BuildingBlock: NUHQIS_clean_sbu_0, # of connection points: 6
#     Node 11, Type 0, BuildingBlock: NUHQIS_clean_sbu_0, # of connection points: 6
#     Edge 12, Type (0, 0), BuildingBlock: UVAHIK_clean_linker_0, # of connection points: 2
#     Edge 13, Type (0, 0), BuildingBlock: UVAHIK_clean_linker_0, # of connection points: 2
#     Edge 14, Type (0, 0), BuildingBlock: UVAHIK_clean_linker_0, # of connection points: 2
#     Edge 15, Type (0, 0), BuildingBlock: UVAHIK_clean_linker_0, # of connection points: 2
#     Edge 16, Type (0, 0), BuildingBlock: UVAHIK_clean_linker_0, # of connection points: 2
#     Edge 17, Type (0, 0), BuildingBlock: UVAHIK_clean_linker_0, # of connection points: 2
#     Edge 18, Type (0, 0), BuildingBlock: UVAHIK_clean_linker_0, # of connection points: 2
#     Edge 19, Type (0, 0), BuildingBlock: UVAHIK_clean_linker_0, # of connection points: 2
#     Edge 20, Type (0, 0), BuildingBlock: UVAHIK_clean_linker_0, # of connection points: 2
#     Edge 21, Type (0, 0), BuildingBlock: UVAHIK_clean_linker_0, # of connection points: 2
#     Edge 22, Type (0, 0), BuildingBlock: UVAHIK_clean_linker_0, # of connection points: 2
#     Edge 23, Type (0, 0), BuildingBlock: UVAHIK_clean_linker_0, # of connection points: 2
#     Edge 24, Type (0, 0), BuildingBlock: UVAHIK_clean_linker_0, # of connection points: 2
#     Edge 25, Type (0, 0), BuildingBlock: UVAHIK_clean_linker_0, # of connection points: 2
#     Edge 26, Type (0, 0), BuildingBlock: UVAHIK_clean_linker_0, # of connection points: 2
#     Edge 27, Type (0, 0), BuildingBlock: UVAHIK_clean_linker_0, # of connection points: 2
#     Edge 28, Type (0, 0), BuildingBlock: UVAHIK_clean_linker_0, # of connection points: 2
#     Edge 29, Type (0, 0), BuildingBlock: UVAHIK_clean_linker_0, # of connection points: 2
#     Edge 30, Type (0, 0), BuildingBlock: UVAHIK_clean_linker_0, # of connection points: 2
#     Edge 31, Type (0, 0), BuildingBlock: UVAHIK_clean_linker_0, # of connection points: 2
#     Edge 32, Type (0, 0), BuildingBlock: UVAHIK_clean_linker_0, # of connection points: 2
#     Edge 33, Type (0, 0), BuildingBlock: UVAHIK_clean_linker_0, # of connection points: 2
#     Edge 34, Type (0, 0), BuildingBlock: UVAHIK_clean_linker_0, # of connection points: 2
#     Edge 35, Type (0, 0), BuildingBlock: UVAHIK_clean_linker_0, # of connection points: 2
#     Edge 36, Type (0, 0), BuildingBlock: UVAHIK_clean_linker_0, # of connection points: 2
#     Edge 37, Type (0, 0), BuildingBlock: UVAHIK_clean_linker_0, # of connection points: 2
#     Edge 38, Type (0, 0), BuildingBlock: UVAHIK_clean_linker_0, # of connection points: 2
#     Edge 39, Type (0, 0), BuildingBlock: UVAHIK_clean_linker_0, # of connection points: 2
#     Edge 40, Type (0, 0), BuildingBlock: UVAHIK_clean_linker_0, # of connection points: 2
#     Edge 41, Type (0, 0), BuildingBlock: UVAHIK_clean_linker_0, # of connection points: 2
#     Edge 42, Type (0, 0), BuildingBlock: UVAHIK_clean_linker_0, # of connection points: 2
#     Edge 43, Type (0, 0), BuildingBlock: UVAHIK_clean_linker_0, # of connection points: 2
#     Edge 44, Type (0, 0), BuildingBlock: UVAHIK_clean_linker_0, # of connection points: 2
#     Edge 45, Type (0, 0), BuildingBlock: UVAHIK_clean_linker_0, # of connection points: 2
#     Edge 46, Type (0, 0), BuildingBlock: UVAHIK_clean_linker_0, # of connection points: 2
#     Edge 47, Type (0, 0), BuildingBlock: UVAHIK_clean_linker_0, # of connection points: 2
# Relax obj value: 0.577
# Max RMSD: 0.176
# Mean RMSD: 0.176
data_MOF--net-wkj--node1-NUHQIS_clean_sbu_0--edge1-UVAHIK_clean_linker_0
_symmetry_space_group_name_H-M    P1
_symmetry_Int_Tables_number       1
_symmetry_cell_setting            triclinic
loop_
_symmetry_equiv_pos_as_xyz
'x, y, z'
_cell_length_a     61.692676
_cell_length_b     61.386959
_cell_length_c     37.136817
_cell_angle_alpha  89.950099
_cell_angle_beta   90.056853
_cell_angle_gamma 119.45121
loop_
_atom_site_label
_atom_site_type_symbol
_atom_site_fract_x
_atom_site_fract_y
_atom_site_fract_z
_atom_type_partial_charge
Tb0 Tb 0.47943 0.09302 0.35902 0.0
Eu1 Eu 0.53804 0.11175 0.34283 0.0
C2 C 0.51488 0.14783 0.33483 0.0
C3 C 0.49493 0.07586 0.28704 0.0
C4 C 0.41988 0.08205 0.39846 0.0
C5 C 0.38127 0.07828 0.42103 0.0
C6 C 0.39593 0.07841 0.3922 0.0
C7 C 0.42961 0.08701 0.43346 0.0
C8 C 0.41497 0.08661 0.46223 0.0
C9 C 0.39032 0.08153 0.45659 0.0
C10 C 0.43391 0.07875 0.36914 0.0
O11 O 0.48683 0.06212 0.36479 0.0
O12 O 0.52692 0.08049 0.38252 0.0
O13 O 0.53696 0.12401 0.40082 0.0
O14 O 0.49502 0.10216 0.41418 0.0
C15 C 0.50375 0.06309 0.38709 0.0
O16 O 0.56758 0.11521 0.30661 0.0
O17 O 0.57706 0.13344 0.35832 0.0
O18 O 0.52837 0.13977 0.31841 0.0
O19 O 0.49855 0.13378 0.35907 0.0
O20 O 0.48159 0.08532 0.30105 0.0
O21 O 0.51574 0.08004 0.30307 0.0
C22 C 0.51856 0.11545 0.42455 0.0
O23 O 0.44875 0.09872 0.35088 0.0
O24 O 0.44453 0.06559 0.37734 0.0
C25 C 0.60259 0.15543 0.31003 0.0
C26 C 0.63472 0.20142 0.27651 0.0
C27 C 0.64291 0.18418 0.28436 0.0
C28 C 0.62692 0.16132 0.30104 0.0
C29 C 0.59459 0.17278 0.30301 0.0
C30 C 0.61041 0.19547 0.28639 0.0
C31 C 0.58537 0.13147 0.32704 0.0
H32 H 0.36256 0.07472 0.41559 0.0
H33 H 0.38823 0.07477 0.36522 0.0
H34 H 0.44813 0.08995 0.43881 0.0
H35 H 0.42258 0.08874 0.4891 0.0
H36 H 0.66154 0.18822 0.27719 0.0
H37 H 0.63345 0.14818 0.30659 0.0
H38 H 0.57592 0.16864 0.30996 0.0
H39 H 0.60316 0.2079 0.28004 0.0
Tb40 Tb 0.40595 0.50282 0.69105 0.0
Eu41 Eu 0.44601 0.56144 0.67203 0.0
C42 C 0.38697 0.53839 0.66367 0.0
C43 C 0.4315 0.51663 0.61151 0.0
C44 C 0.36631 0.44097 0.73639 0.0
C45 C 0.33661 0.40092 0.76199 0.0
C46 C 0.34462 0.41775 0.73326 0.0
C47 C 0.38005 0.44735 0.76843 0.0
C48 C 0.37207 0.43053 0.79719 0.0
C49 C 0.35021 0.40716 0.7943 0.0
C50 C 0.37399 0.45837 0.70612 0.0
O51 O 0.44253 0.51392 0.71205 0.0
O52 O 0.4675 0.54034 0.67004 0.0
O53 O 0.44795 0.55915 0.73308 0.0
O54 O 0.41186 0.52219 0.74429 0.0
C55 C 0.46084 0.5202 0.68957 0.0
O56 O 0.46269 0.5917 0.63292 0.0
O57 O 0.47299 0.59954 0.68892 0.0
O58 O 0.40754 0.55791 0.67471 0.0
O59 O 0.38613 0.51691 0.65923 0.0
O60 O 0.41895 0.49952 0.63649 0.0
O61 O 0.44077 0.54078 0.61836 0.0
C62 C 0.43135 0.54325 0.756 0.0
O63 O 0.37028 0.47742 0.70988 0.0
O64 O 0.39571 0.46483 0.69215 0.0
C65 C 0.4651 0.62793 0.65588 0.0
C66 C 0.43827 0.65148 0.63287 0.0
C67 C 0.46178 0.65837 0.61805 0.0
C68 C 0.47503 0.64654 0.62936 0.0
C69 C 0.44331 0.62349 0.67401 0.0
C70 C 0.43002 0.63524 0.66264 0.0
C71 C 0.47309 0.60898 0.6574 0.0
H72 H 0.31962 0.3832 0.75909 0.0
H73 H 0.33381 0.41268 0.70862 0.0
H74 H 0.39687 0.46527 0.77113 0.0
H75 H 0.38318 0.43571 0.82154 0.0
H76 H 0.46858 0.67067 0.59489 0.0
H77 H 0.49167 0.65005 0.61484 0.0
H78 H 0.43521 0.6091 0.69448 0.0
H79 H 0.41206 0.6297 0.67469 0.0
Tb80 Tb 0.91549 0.39157 1.03012 0.0
Eu81 Eu 0.89617 0.43228 1.01052 0.0
C82 C 0.86139 0.37213 0.9978 0.0
C83 C 0.92353 0.41524 0.94908 0.0
C84 C 0.94361 0.3574 1.07686 0.0
C85 C 0.95803 0.33151 1.10605 0.0
C86 C 0.94592 0.33583 1.07745 0.0
C87 C 0.95363 0.37479 1.10496 0.0
C88 C 0.96578 0.37052 0.13356 0.0
C89 C 0.96799 0.34875 0.13451 0.0
C90 C 0.93059 0.36138 1.04686 0.0
O91 O 0.9417 0.42899 1.04786 0.0
O92 O 0.93804 0.45431 1.00793 0.0
O93 O 0.90307 0.43538 1.07108 0.0
O94 O 0.90218 0.39814 1.08279 0.0
C95 C 0.95224 0.44719 1.02457 0.0
O96 O 0.89291 0.45966 0.9766 0.0
O97 O 0.87461 0.44981 1.0282 0.0
O98 O 0.86234 0.39362 1.00447 0.0
O99 O 0.88084 0.36911 1.00173 0.0
O100 O 0.92859 0.40279 0.97387 0.0
O101 O 0.90914 0.42511 0.95628 0.0
C102 C 0.90175 0.41845 1.09422 0.0
O103 O 0.90825 0.35756 1.05374 0.0
O104 O 0.9435 0.38169 1.02814 0.0
C105 C 0.85328 0.45584 0.9804 0.0
C106 C 0.8101 0.44505 0.94083 0.0
C107 C 0.82741 0.4699 0.95024 0.0
C108 C 0.84891 0.47525 0.96982 0.0
C109 C 0.83556 0.43105 0.97257 0.0
C110 C 0.81424 0.42568 0.95302 0.0
C111 C 0.87681 0.46113 0.99764 0.0
H112 H 0.95917 0.31446 1.1062 0.0
H113 H 0.9382 0.32223 1.05588 0.0
H114 H 0.95202 0.39159 1.10475 0.0
H115 H 0.97358 0.38433 0.15481 0.0
H116 H 0.82473 0.48525 0.94154 0.0
H117 H 0.8624 0.49452 0.97579 0.0
H118 H 0.83867 0.41586 0.98046 0.0
H119 H 0.80176 0.40637 0.94575 0.0
Tb120 Tb 0.52082 0.92004 0.35528 0.0
Eu121 Eu 0.46138 0.89315 0.33732 0.0
C122 C 0.4923 0.86486 0.32372 0.0
C123 C 0.50357 0.93621 0.28309 0.0
C124 C 0.58316 0.94794 0.39915 0.0
C125 C 0.62291 0.96018 0.42764 0.0
C126 C 0.60717 0.95095 0.39779 0.0
C127 C 0.57502 0.95445 0.43042 0.0
C128 C 0.59074 0.96374 0.46023 0.0
C129 C 0.61479 0.96648 0.4593 0.0
C130 C 0.56653 0.93715 0.36826 0.0
O131 O 0.50853 0.94167 0.38664 0.0
O132 O 0.46951 0.92951 0.36289 0.0
O133 O 0.46165 0.88884 0.39822 0.0
O134 O 0.50368 0.90526 0.40915 0.0
C135 C 0.48786 0.94293 0.38526 0.0
O136 O 0.43231 0.88237 0.29657 0.0
O137 O 0.42203 0.87126 0.35175 0.0
O138 O 0.4711 0.8624 0.33453 0.0
O139 O 0.51215 0.8871 0.32209 0.0
O140 O 0.52072 0.9417 0.30802 0.0
O141 O 0.48097 0.91685 0.28715 0.0
C142 C 0.4803 0.89503 0.42083 0.0
O143 O 0.54977 0.91362 0.37143 0.0
O144 O 0.55722 0.95043 0.35485 0.0
C145 C 0.39991 0.8417 0.30639 0.0
C146 C 0.38082 0.79534 0.27091 0.0
C147 C 0.37303 0.81256 0.26095 0.0
C148 C 0.38258 0.8356 0.27851 0.0
C149 C 0.4061 0.82372 0.31839 0.0
C150 C 0.39657 0.8007 0.30088 0.0
C151 C 0.41456 0.86781 0.31842 0.0
H152 H 0.64121 0.96185 0.42621 0.0
H153 H 0.61362 0.94584 0.3738 0.0
H154 H 0.55647 0.95219 0.43184 0.0
H155 H 0.58408 0.96883 0.48399 0.0
H156 H 0.36117 0.80916 0.2377 0.0
H157 H 0.37774 0.84929 0.2687 0.0
H158 H 0.41952 0.82804 0.33982 0.0
H159 H 0.40274 0.78775 0.30934 0.0
Tb160 Tb 0.61583 0.52013 0.69399 0.0
Eu161 Eu 0.60012 0.46291 0.67293 0.0
C162 C 0.65575 0.50502 0.67188 0.0
C163 C 0.59903 0.50206 0.6121 0.0
C164 C 0.64667 0.58306 0.73603 0.0
C165 C 0.66786 0.59161 0.7936 0.0
C166 C 0.65317 0.5746 0.76711 0.0
C167 C 0.65581 0.60871 0.73097 0.0
C168 C 0.67058 0.62576 0.75738 0.0
C169 C 0.67636 0.61736 0.78931 0.0
C170 C 0.63045 0.56534 0.70873 0.0
O171 O 0.57653 0.50029 0.67699 0.0
O172 O 0.57061 0.46533 0.70312 0.0
O173 O 0.60507 0.46491 0.73501 0.0
O174 O 0.60657 0.50238 0.74752 0.0
C175 C 0.56117 0.47692 0.68579 0.0
O176 O 0.5746 0.42647 0.64983 0.0
O177 O 0.60853 0.43244 0.67647 0.0
O178 O 0.63855 0.48757 0.65213 0.0
O179 O 0.6494 0.51581 0.69723 0.0
O180 O 0.61269 0.52031 0.63483 0.0
O181 O 0.59051 0.47831 0.62159 0.0
C182 C 0.60455 0.48098 0.75854 0.0
O183 O 0.64154 0.55804 0.68577 0.0
O184 O 0.60957 0.54672 0.72039 0.0
C185 C 0.59646 0.40731 0.62497 0.0
C186 C 0.61778 0.39435 0.56769 0.0
C187 C 0.60732 0.40989 0.56181 0.0
C188 C 0.59693 0.41645 0.59019 0.0
C189 C 0.60555 0.39062 0.63059 0.0
C190 C 0.61611 0.38412 0.6021 0.0
C191 C 0.58975 0.41766 0.65599 0.0
H192 H 0.67164 0.58446 0.81807 0.0
H193 H 0.64642 0.55482 0.77122 0.0
H194 H 0.65119 0.61551 0.70684 0.0
H195 H 0.67707 0.64548 0.75313 0.0
H196 H 0.60787 0.41764 0.53539 0.0
H197 H 0.59019 0.42948 0.58513 0.0
H198 H 0.60553 0.38355 0.65734 0.0
H199 H 0.62404 0.37213 0.60739 0.0
Tb200 Tb 0.10207 0.59495 1.02806 0.0
Eu201 Eu 0.13981 0.57339 1.01016 0.0
C202 C 0.15733 0.63021 1.005 0.0
C203 C 0.10322 0.57623 0.94705 0.0
C204 C 0.07522 0.63141 1.06929 0.0
C205 C 0.07046 0.66713 1.08578 0.0
C206 C 0.07114 0.65117 1.0595 0.0
C207 C 0.07929 0.62818 1.10556 0.0
C208 C 0.07835 0.64389 0.13181 0.0
C209 C 0.07371 0.66346 0.12236 0.0
C210 C 0.07533 0.61446 1.04145 0.0
O211 O 0.07991 0.55558 1.01155 0.0
O212 O 0.10589 0.54509 1.03789 0.0
O213 O 0.14287 0.58045 1.07134 0.0
O214 O 0.10809 0.58415 1.08193 0.0
C215 C 0.08568 0.53817 1.01957 0.0
O216 O 0.15074 0.54768 0.98616 0.0
O217 O 0.1766 0.57827 1.02025 0.0
O218 O 0.15551 0.61139 0.9866 0.0
O219 O 0.14087 0.62621 1.03034 0.0
O220 O 0.09897 0.59065 0.96908 0.0
O221 O 0.11709 0.56625 0.95746 0.0
C222 C 0.12654 0.58105 1.0939 0.0
O223 O 0.09422 0.62419 1.01944 0.0
O224 O 0.07 0.59206 1.05197 0.0
C225 C 0.19306 0.5716 0.9681 0.0
C226 C 0.23034 0.6052 0.9213 0.0
C227 C 0.20524 0.59294 0.91063 0.0
C228 C 0.18676 0.57638 0.93382 0.0
C229 C 0.21831 0.58207 0.97755 0.0
C230 C 0.23691 0.59876 0.95419 0.0
C231 C 0.17395 0.56151 0.99642 0.0
H232 H 0.06714 0.68215 1.07747 0.0
H233 H 0.06826 0.65412 1.03153 0.0
H234 H 0.08275 0.61322 0.11378 0.0
H235 H 0.0804 0.64004 0.15969 0.0
H236 H 0.19977 0.59721 0.885 0.0
H237 H 0.16748 0.56884 0.92589 0.0
H238 H 0.22353 0.57889 1.00409 0.0
H239 H 0.25617 0.60789 0.96285 0.0
Tb240 Tb 0.9328 0.52277 0.54552 0.0
Eu241 Eu 0.90301 0.46338 0.56477 0.0
C242 C 0.87925 0.49765 0.58024 0.0
C243 C 0.94758 0.5049 0.61766 0.0
C244 C 0.96122 0.58543 0.50098 0.0
C245 C 0.97218 0.62517 0.47276 0.0
C246 C 0.96383 0.60939 0.50271 0.0
C247 C 0.9672 0.57734 0.46916 0.0
C248 C 0.97566 0.59313 0.43924 0.0
C249 C 0.97803 0.61715 0.4406 0.0
C250 C 0.95133 0.56881 0.53213 0.0
O251 O 0.95192 0.50795 0.51358 0.0
O252 O 0.93863 0.46927 0.5399 0.0
O253 O 0.89821 0.46318 0.50398 0.0
O254 O 0.91601 0.50549 0.49243 0.0
C255 C 0.95195 0.48657 0.51599 0.0
O256 O 0.8897 0.43478 0.6068 0.0
O257 O 0.88001 0.42374 0.55147 0.0
O258 O 0.87467 0.47621 0.56675 0.0
O259 O 0.90229 0.51594 0.58245 0.0
O260 O 0.95461 0.5215 0.59149 0.0
O261 O 0.92689 0.48313 0.61471 0.0
C262 C 0.90481 0.48185 0.48111 0.0
O263 O 0.92754 0.55284 0.53098 0.0
O264 O 0.96425 0.55854 0.54348 0.0
C265 C 0.84867 0.40408 0.5954 0.0
C266 C 0.80255 0.39014 0.62814 0.0
C267 C 0.81761 0.38044 0.64079 0.0
C268 C 0.84059 0.38747 0.6246 0.0
C269 C 0.8326 0.41186 0.58066 0.0
C270 C 0.8097 0.4049 0.59686 0.0
C271 C 0.8751 0.41694 0.58502 0.0
H272 H 0.97354 0.64341 0.47455 0.0
H273 H 0.95909 0.61577 0.52712 0.0
H274 H 0.96519 0.55881 0.46742 0.0
H275 H 0.98041 0.58654 0.41508 0.0
H276 H 0.8127 0.36924 0.6651 0.0
H277 H 0.85281 0.38145 0.63653 0.0
H278 H 0.83846 0.4248 0.55822 0.0
H279 H 0.7984 0.41253 0.58649 0.0
Tb280 Tb 0.3958 0.91382 0.87259 0.0
Eu281 Eu 0.43773 0.89634 0.89156 0.0
C282 C 0.37847 0.85996 0.90491 0.0
C283 C 0.41992 0.92288 0.95332 0.0
C284 C 0.35939 0.93959 0.8262 0.0
C285 C 0.3323 0.95271 0.79773 0.0
C286 C 0.33748 0.94112 0.82622 0.0
C287 C 0.37621 0.94983 0.79758 0.0
C288 C 0.37107 0.96145 0.76909 0.0
C289 C 0.34899 0.96292 0.76877 0.0
C290 C 0.36438 0.92727 0.85625 0.0
O291 O 0.43252 0.94087 0.85401 0.0
O292 O 0.45855 0.9385 0.89373 0.0
O293 O 0.44004 0.90267 0.83095 0.0
O294 O 0.40211 0.9 0.82009 0.0
C295 C 0.45068 0.95213 0.87707 0.0
O296 O 0.4646 0.89315 0.92641 0.0
O297 O 0.45737 0.87695 0.87327 0.0
O298 O 0.39991 0.8614 0.89702 0.0
O299 O 0.37507 0.87933 0.90228 0.0
O300 O 0.40702 0.92744 0.92871 0.0
O301 O 0.43036 0.90904 0.94585 0.0
C302 C 0.42254 0.90021 0.80822 0.0
O303 O 0.36129 0.90504 0.84976 0.0
O304 O 0.38471 0.94103 0.87432 0.0
C305 C 0.4617 0.85359 0.92091 0.0
C306 C 0.44379 0.80822 0.95926 0.0
C307 C 0.43588 0.80828 0.92375 0.0
C308 C 0.44463 0.83074 0.90482 0.0
C309 C 0.47126 0.8533 0.95504 0.0
C310 C 0.46234 0.8309 0.9741 0.0
C311 C 0.467 0.87776 0.90482 0.0
H312 H 0.31503 0.95328 0.79807 0.0
H313 H 0.32432 0.93324 0.8482 0.0
H314 H 0.39327 0.94883 0.79733 0.0
H315 H 0.38448 0.96946 0.74744 0.0
H316 H 0.422 0.79113 0.91119 0.0
H317 H 0.437 0.83025 0.87837 0.0
H318 H 0.48447 0.87063 0.96799 0.0
H319 H 0.46875 0.83178 1.00148 0.0
Tb320 Tb 0.49417 0.40515 0.20731 0.0
Eu321 Eu 0.55264 0.44146 0.22586 0.0
C322 C 0.52619 0.38364 0.24032 0.0
C323 C 0.50789 0.43911 0.2783 0.0
C324 C 0.4334 0.36239 0.16374 0.0
C325 C 0.39492 0.33034 0.13724 0.0
C326 C 0.41048 0.34039 0.16713 0.0
C327 C 0.44081 0.37426 0.13025 0.0
C328 C 0.42527 0.3643 1.1004 0.0
C329 C 0.40216 0.34221 1.10355 0.0
C330 C 0.44973 0.37228 0.19505 0.0
O331 O 0.50416 0.43709 0.17293 0.0
O332 O 0.54089 0.46682 0.19912 0.0
O333 O 0.55399 0.43431 0.16622 0.0
O334 O 0.51257 0.40689 0.15442 0.0
C335 C 0.52324 0.45987 0.17468 0.0
O336 O 0.58144 0.45362 0.26704 0.0
O337 O 0.59135 0.46852 0.21315 0.0
O338 O 0.546 0.402 0.22592 0.0
O339 O 0.50647 0.38606 0.24502 0.0
O340 O 0.4915 0.42685 0.25272 0.0
O341 O 0.53123 0.44404 0.27506 0.0
C342 C 0.53605 0.42062 0.14335 0.0
O343 O 0.46835 0.36784 0.19565 0.0
O344 O 0.45648 0.39529 0.20415 0.0
C345 C 0.61775 0.45688 0.24326 0.0
C346 C 0.64415 0.43137 0.25765 0.0
C347 C 0.65168 0.45494 0.27318 0.0
C348 C 0.63841 0.46753 0.26623 0.0
C349 C 0.61188 0.43469 0.22477 0.0
C350 C 0.62495 0.42199 0.23198 0.0
C351 C 0.5995 0.46565 0.24419 0.0
H352 H 0.37734 0.31324 0.14045 0.0
H353 H 0.40466 0.33093 0.19287 0.0
H354 H 0.45856 0.39124 0.12725 0.0
H355 H 0.43119 0.37418 1.075 0.0
H356 H 0.6662 0.46245 0.29344 0.0
H357 H 0.64305 0.48451 0.28094 0.0
H358 H 0.59591 0.42614 0.20698 0.0
H359 H 0.61876 0.40386 0.21971 0.0
Tb360 Tb 0.09713 0.48089 0.5467 0.0
Eu361 Eu 0.11066 0.53885 0.56017 0.0
C362 C 0.15011 0.52068 0.57213 0.0
C363 C 0.07789 0.49513 0.61766 0.0
C364 C 0.0894 0.42218 0.50781 0.0
C365 C 0.08599 0.38397 0.48333 0.0
C366 C 0.08661 0.39833 0.51299 0.0
C367 C 0.09284 0.43207 0.47297 0.0
C368 C 0.09204 0.41776 0.44342 0.0
C369 C 0.08799 0.39326 0.44809 0.0
C370 C 0.08674 0.43592 0.53818 0.0
O371 O 0.06461 0.48516 0.53824 0.0
O372 O 0.08044 0.52478 0.51841 0.0
O373 O 0.12322 0.53787 0.5025 0.0
O374 O 0.10581 0.4956 0.49096 0.0
C375 C 0.06445 0.50095 0.51464 0.0
O376 O 0.1066 0.56801 0.58831 0.0
O377 O 0.13515 0.57814 0.54787 0.0
O378 O 0.14002 0.53266 0.58774 0.0
O379 O 0.13752 0.50358 0.54789 0.0
O380 O 0.08891 0.48301 0.6044 0.0
O381 O 0.08048 0.51529 0.60107 0.0
C382 C 0.11712 0.51915 0.47974 0.0
O383 O 0.10728 0.45294 0.55293 0.0
O384 O 0.07113 0.44409 0.53291 0.0
C385 C 0.14662 0.60305 0.59896 0.0
C386 C 0.19111 0.62996 0.63826 0.0
C387 C 0.17132 0.60775 0.65218 0.0
C388 C 0.14938 0.59433 0.63262 0.0
C389 C 0.16557 0.62617 0.58619 0.0
C390 C 0.18768 0.63959 0.60574 0.0
C391 C 0.12693 0.58605 0.57419 0.0
H392 H 0.08313 0.36532 0.48794 0.0
H393 H 0.08405 0.39048 0.53981 0.0
H394 H 0.09494 0.45043 0.46842 0.0
H395 H 0.09313 0.42548 0.41682 0.0
H396 H 0.17316 0.60019 0.67763 0.0
H397 H 0.1352 0.57643 0.64296 0.0
H398 H 0.16392 0.63303 0.56002 0.0
H399 H 0.20258 0.65667 0.59442 0.0
Tb400 Tb 0.59457 0.09475 0.87535 0.0
Eu401 Eu 0.57407 0.13351 0.89321 0.0
C402 C 0.63115 0.15119 0.89694 0.0
C403 C 0.57669 0.09624 0.95642 0.0
C404 C 0.62895 0.06639 0.83235 0.0
C405 C 0.66456 0.06205 0.81459 0.0
C406 C 0.64905 0.0628 0.84144 0.0
C407 C 0.62488 0.06982 0.79615 0.0
C408 C 0.64015 0.06881 0.76934 0.0
C409 C 0.6601 0.06474 0.77812 0.0
C410 C 0.61264 0.06685 0.86085 0.0
O411 O 0.55542 0.07307 0.89287 0.0
O412 O 0.5459 0.09937 0.86565 0.0
O413 O 0.58247 0.13742 0.83242 0.0
O414 O 0.58392 0.10135 0.82155 0.0
C415 C 0.53847 0.07934 0.8847 0.0
O416 O 0.55305 0.14713 0.92481 0.0
O417 O 0.57145 0.16585 0.87554 0.0
O418 O 0.61275 0.15148 0.91355 0.0
O419 O 0.62687 0.13329 0.8736 0.0
O420 O 0.5909 0.09183 0.93434 0.0
O421 O 0.56694 0.11035 0.94594 0.0
C422 C 0.582 0.12059 0.80967 0.0
O423 O 0.62297 0.08572 0.88298 0.0
O424 O 0.5904 0.0621 0.85107 0.0
C425 C 0.57538 0.19148 0.92478 0.0
C426 C 0.60494 0.23318 0.96866 0.0
C427 C 0.5794 0.21785 0.97594 0.0
C428 C 0.56473 0.19711 0.95415 0.0
C429 C 0.60053 0.20784 0.91621 0.0
C430 C 0.61508 0.22848 0.93782 0.0
C431 C 0.56136 0.16748 0.90546 0.0
H432 H 0.67987 0.05917 0.82238 0.0
H433 H 0.65265 0.06041 0.86932 0.0
H434 H 0.60966 0.07289 0.78841 0.0
H435 H 0.6357 0.0704 0.7416 0.0
H436 H 0.57114 0.22086 0.99981 0.0
H437 H 0.54544 0.18478 0.9613 0.0
H438 H 0.60942 0.2041 0.89377 0.0
H439 H 0.63463 0.24007 0.93143 0.0
Tb440 Tb 0.53495 0.61363 0.21005 0.0
Eu441 Eu 0.47548 0.57877 0.22632 0.0
C442 C 0.50389 0.63814 0.238 0.0
C443 C 0.51749 0.58357 0.28414 0.0
C444 C 0.59948 0.64948 0.17197 0.0
C445 C 0.64241 0.67174 0.15197 0.0
C446 C 0.62495 0.66319 0.17978 0.0
C447 C 0.59148 0.64479 0.13608 0.0
C448 C 0.60892 0.65339 1.10822 0.0
C449 C 0.63458 0.66671 0.11592 0.0
C450 C 0.58168 0.63894 0.20161 0.0
O451 O 0.52256 0.57398 0.20404 0.0
O452 O 0.48308 0.55686 0.1848 0.0
O453 O 0.47796 0.59069 0.16692 0.0
O454 O 0.52004 0.60899 0.15437 0.0
C455 C 0.50538 0.55974 0.1809 0.0
O456 O 0.44322 0.54691 0.25088 0.0
O457 O 0.43859 0.57476 0.22116 0.0
O458 O 0.48835 0.61656 0.25267 0.0
O459 O 0.52037 0.63954 0.2145 0.0
O460 O 0.53241 0.60534 0.2686 0.0
O461 O 0.49561 0.56846 0.26946 0.0
C462 C 0.49664 0.60004 0.14349 0.0
O463 O 0.56751 0.64874 0.20741 0.0
O464 O 0.56914 0.61468 0.20299 0.0
C465 C 0.41521 0.55978 0.27368 0.0
C466 C 0.39886 0.58018 0.3282 0.0
C467 C 0.4156 0.57148 0.33614 0.0
C468 C 0.42385 0.56156 0.30912 0.0
C469 C 0.39674 0.56628 0.2664 0.0
C470 C 0.38863 0.57644 0.29345 0.0
C471 C 0.42843 0.55594 0.24345 0.0
H472 H 0.66203 0.68206 0.15864 0.0
H473 H 0.63135 0.66686 0.20745 0.0
H474 H 0.57183 0.634 0.12968 0.0
H475 H 0.60235 0.64887 1.08072 0.0
H476 H 0.42334 0.57355 0.36293 0.0
H477 H 0.4381 0.55675 0.3156 0.0
H478 H 0.3899 0.56516 0.2392 0.0
H479 H 0.37571 0.58294 0.28652 0.0
C480 C 0.5301 0.18584 0.29462 0.0
C481 C 0.51787 0.17292 0.32613 0.0
C482 C 0.53187 0.20896 0.28596 0.0
C483 C 0.50406 0.24966 0.31026 0.0
H484 H 0.5591 0.299 0.25376 0.0
C485 C 0.50341 0.33795 0.2565 0.0
C486 C 0.52604 0.36022 0.25156 0.0
C487 C 0.50305 0.31561 0.2657 0.0
C488 C 0.5437 0.28568 0.27 0.0
H489 H 0.49877 0.17486 0.37392 0.0
H490 H 0.50277 0.2153 0.35993 0.0
H491 H 0.55812 0.26028 0.27054 0.0
H492 H 0.56615 0.37646 0.25307 0.0
H493 H 0.56565 0.33794 0.27078 0.0
H494 H 0.49028 0.27546 0.31143 0.0
C495 C 0.51018 0.20732 0.34089 0.0
C496 C 0.54291 0.26307 0.27916 0.0
C497 C 0.50805 0.18406 0.34918 0.0
C498 C 0.54836 0.35963 0.25651 0.0
C499 C 0.54802 0.33735 0.2664 0.0
C500 C 0.50506 0.27237 0.30163 0.0
C501 C 0.5218 0.22009 0.30886 0.0
C502 C 0.523 0.24456 0.29934 0.0
C503 C 0.52533 0.31486 0.27099 0.0
C504 C 0.52477 0.29077 0.28107 0.0
H505 H 0.53786 0.17782 0.27617 0.0
H506 H 0.54067 0.21778 0.26082 0.0
H507 H 0.48811 0.23597 0.32523 0.0
H508 H 0.48586 0.33762 0.25247 0.0
H509 H 0.48514 0.29882 0.26799 0.0
C510 C 0.36424 0.56256 0.64988 0.0
C511 C 0.36392 0.53978 0.65601 0.0
C512 C 0.34214 0.56285 0.641 0.0
C513 C 0.27758 0.51975 0.60692 0.0
H514 H 0.26379 0.57219 0.63664 0.0
C515 C 0.18874 0.51865 0.55755 0.0
C516 C 0.17601 0.52647 0.58095 0.0
C517 C 0.2126 0.52282 0.5659 0.0
C518 C 0.26719 0.55723 0.62836 0.0
H519 H 0.33977 0.4996 0.65972 0.0
H520 H 0.30178 0.50014 0.64594 0.0
H521 H 0.30315 0.57446 0.65378 0.0
H522 H 0.17888 0.54553 0.63128 0.0
H523 H 0.22024 0.55198 0.64671 0.0
H524 H 0.2415 0.50181 0.5831 0.0
C525 C 0.319 0.51781 0.64619 0.0
C526 C 0.29001 0.55873 0.6378 0.0
C527 C 0.34094 0.51751 0.65441 0.0
C528 C 0.18811 0.53917 0.61268 0.0
C529 C 0.21196 0.54302 0.62139 0.0
C530 C 0.25482 0.51812 0.5979 0.0
C531 C 0.31919 0.54036 0.63854 0.0
C532 C 0.29547 0.53985 0.62747 0.0
C533 C 0.22445 0.53453 0.59835 0.0
C534 C 0.24915 0.5368 0.60833 0.0
H535 H 0.3816 0.58004 0.6512 0.0
H536 H 0.34318 0.58063 0.63526 0.0
H537 H 0.28107 0.50505 0.59762 0.0
H538 H 0.18025 0.5092 0.53255 0.0
H539 H 0.22169 0.51671 0.54672 0.0
C540 C 0.8177 0.35269 0.97209 0.0
C541 C 0.83781 0.35016 0.98493 0.0
C542 C 0.79603 0.33182 0.95907 0.0
C543 C 0.77141 0.26531 0.92828 0.0
H544 H 0.70743 0.26021 0.94767 0.0
C545 C 0.67664 0.18021 0.88066 0.0
C546 C 0.6565 0.17254 0.90454 0.0
C547 C 0.69939 0.20219 0.88753 0.0
C548 C 0.72511 0.26115 0.94218 0.0
H549 H 0.85046 0.32332 0.9946 0.0
H550 H 0.81281 0.28724 0.97319 0.0
H551 H 0.74523 0.29755 0.96577 0.0
H552 H 0.64512 0.18139 0.95532 0.0
H553 H 0.68419 0.21858 0.96741 0.0
H554 H 0.75106 0.22833 0.90608 0.0
C555 C 0.81387 0.30536 0.97201 0.0
C556 C 0.74694 0.28288 0.95215 0.0
C557 C 0.83552 0.32617 0.98468 0.0
C558 C 0.66 0.18679 0.9359 0.0
C559 C 0.6825 0.20843 0.94277 0.0
C560 C 0.74951 0.24346 0.91849 0.0
C561 C 0.79378 0.30779 0.95882 0.0
C562 C 0.77047 0.2852 0.94587 0.0
C563 C 0.70244 0.21686 0.91844 0.0
C564 C 0.726 0.24086 0.92589 0.0
H565 H 0.81879 0.37082 0.97158 0.0
H566 H 0.78117 0.33464 0.94877 0.0
H567 H 0.78911 0.26648 0.92223 0.0
H568 H 0.67458 0.16974 0.85623 0.0
H569 H 0.71432 0.20804 0.86812 0.0
C570 C 0.51541 0.68311 0.22635 0.0
C571 C 0.50256 0.66126 0.24721 0.0
C572 C 0.5141 0.70479 0.23437 0.0
C573 C 0.47785 0.72811 0.28863 0.0
H574 H 0.53396 0.79272 0.26474 0.0
C575 C 0.47199 0.8195 0.30466 0.0
C576 C 0.4937 0.84202 0.31314 0.0
C577 C 0.47306 0.79773 0.29616 0.0
C578 C 0.51813 0.77496 0.27214 0.0
H579 H 0.47827 0.64545 0.29334 0.0
H580 H 0.4767 0.68335 0.30823 0.0
H581 H 0.53619 0.75507 0.25307 0.0
H582 H 0.53363 0.85899 0.3195 0.0
H583 H 0.53552 0.82111 0.30616 0.0
H584 H 0.46029 0.7481 0.30938 0.0
C585 C 0.48734 0.68368 0.2849 0.0
C586 C 0.51924 0.75307 0.26475 0.0
C587 C 0.48839 0.66183 0.27653 0.0
C588 C 0.51654 0.84211 0.31276 0.0
C589 C 0.51759 0.82023 0.30486 0.0
C590 C 0.47686 0.75004 0.29647 0.0
C591 C 0.50017 0.70562 0.26393 0.0
C592 C 0.49907 0.72916 0.27263 0.0
C593 C 0.49586 0.79755 0.29645 0.0
C594 C 0.49695 0.77394 0.28823 0.0
H595 H 0.52633 0.68343 0.20332 0.0
H596 H 0.52382 0.72081 0.21683 0.0
H597 H 0.46169 0.71029 0.29483 0.0
H598 H 0.45405 0.81869 0.30436 0.0
H599 H 0.45589 0.78109 0.28907 0.0
C600 C 0.69822 0.51451 0.69491 0.0
C601 C 0.6819 0.51063 0.66607 0.0
C602 C 0.72134 0.5157 0.68881 0.0
C603 C 0.76879 0.52807 0.61891 0.0
H604 H 0.78338 0.48226 0.67167 0.0
C605 C 0.86105 0.52483 0.59945 0.0
C606 C 0.85822 0.50087 0.594 0.0
C607 C 0.84087 0.52772 0.61084 0.0
C608 C 0.77964 0.49524 0.65679 0.0
H609 H 0.67751 0.50595 0.60823 0.0
H610 H 0.71795 0.50906 0.59755 0.0
H611 H 0.74645 0.48556 0.68719 0.0
H612 H 0.83188 0.46118 0.59723 0.0
H613 H 0.79693 0.46623 0.61759 0.0
H614 H 0.80182 0.53767 0.58837 0.0
C615 C 0.7129 0.51087 0.62487 0.0
C616 C 0.75858 0.49727 0.66589 0.0
C617 C 0.68968 0.50907 0.63102 0.0
C618 C 0.83479 0.47991 0.60101 0.0
C619 C 0.81475 0.48279 0.61296 0.0
C620 C 0.79008 0.5264 0.61028 0.0
C621 C 0.72886 0.51369 0.65367 0.0
C622 C 0.75266 0.51343 0.64668 0.0
C623 C 0.81742 0.50673 0.61774 0.0
C624 C 0.79562 0.50968 0.62871 0.0
H625 H 0.69264 0.51545 0.72224 0.0
H626 H 0.73326 0.51796 0.71157 0.0
H627 H 0.76479 0.54071 0.60358 0.0
H628 H 0.87876 0.5414 0.59426 0.0
H629 H 0.84363 0.54643 0.61439 0.0
C630 C 0.35977 0.81559 0.92884 0.0
C631 C 0.357 0.836 0.91768 0.0
C632 C 0.3392 0.79358 0.94183 0.0
C633 C 0.2741 0.7692 0.97663 0.0
H634 H 0.26637 0.7046 0.95125 0.0
C635 C 0.18829 0.67495 1.02258 0.0
C636 C 0.17934 0.65518 0.99767 0.0
C637 C 0.21068 0.69729 1.01592 0.0
C638 C 0.26809 0.72247 0.95844 0.0
H639 H 0.33011 0.84881 0.91079 0.0
H640 H 0.29469 0.81077 0.93222 0.0
H641 H 0.30392 0.74249 0.93349 0.0
H642 H 0.18643 0.64396 0.94547 0.0
H643 H 0.22439 0.68253 0.93365 0.0
H644 H 0.23777 0.74917 1.00019 0.0
C645 C 0.31272 0.81179 0.93213 0.0
C646 C 0.2899 0.74429 0.94865 0.0
C647 C 0.33316 0.83368 0.91946 0.0
C648 C 0.19281 0.65861 0.96559 0.0
C649 C 0.21488 0.68078 0.95889 0.0
C650 C 0.25222 0.74737 0.98625 0.0
C651 C 0.31536 0.79143 0.9438 0.0
C652 C 0.29307 0.76803 0.957 0.0
C653 C 0.22448 0.70034 0.98414 0.0
C654 C 0.24865 0.72367 0.97671 0.0
H655 H 0.37785 0.81671 0.92801 0.0
H656 H 0.34209 0.7784 0.95078 0.0
H657 H 0.276 0.78706 0.9843 0.0
H658 H 0.17847 0.67288 1.04761 0.0
H659 H 0.21746 0.7119 1.0361 0.0
C660 C 0.64307 0.25035 1.00662 0.0
C661 C 0.62161 0.25115 0.99606 0.0
C662 C 0.65602 0.26277 1.03753 0.0
C663 C 0.68039 0.28669 1.10683 0.0
H664 H 0.62923 0.2696 0.17896 0.0
C665 C 0.6486 0.24612 0.26028 0.0
C666 C 0.64997 0.22417 0.25452 0.0
C667 C 0.65667 0.26464 0.23378 0.0
C668 C 0.64412 0.27528 0.15949 0.0
H669 H 0.59866 0.26802 1.00689 0.0
H670 H 0.62182 0.29056 1.06048 0.0
H671 H 0.62084 0.27554 0.11757 0.0
H672 H 0.66402 0.20612 0.2186 0.0
H673 H 0.6783 0.23841 0.17282 0.0
H674 H 0.7024 0.28323 0.14884 0.0
C675 C 0.62814 0.27956 1.04564 0.0
C676 C 0.63931 0.27877 0.12391 0.0
C677 C 0.61486 0.26672 1.01492 0.0
C678 C 0.66263 0.22272 0.22398 0.0
C679 C 0.67092 0.24135 0.19767 0.0
C680 C 0.685 0.28266 0.14242 0.0
C681 C 0.64797 0.27651 1.05859 0.0
C682 C 0.65667 0.28263 1.09663 0.0
C683 C 0.66652 0.26166 0.20129 0.0
C684 C 0.66622 0.27526 0.16851 0.0
H685 H 0.64869 0.2384 0.99279 0.0
H686 H 0.67093 0.25957 1.04642 0.0
H687 H 0.69463 0.29071 1.08683 0.0
H688 H 0.6396 0.24814 0.28407 0.0
H689 H 0.65334 0.28027 0.23742 0.0
C690 C 0.41472 0.61368 0.37471 0.0
C691 C 0.39449 0.59555 0.35497 0.0
C692 C 0.41123 0.62794 0.4007 0.0
C693 C 0.3638 0.62494 0.46263 0.0
H694 H 0.42192 0.68619 0.49251 0.0
C695 C 0.39762 0.63446 0.60158 0.0
C696 C 0.42026 0.65544 0.61124 0.0
C697 C 0.38471 0.63503 0.57115 0.0
C698 C 0.40498 0.66952 0.48493 0.0
H699 H 0.35481 0.57904 0.34568 0.0
H700 H 0.34863 0.60433 0.39134 0.0
H701 H 0.41844 0.67256 0.43122 0.0
H702 H 0.44458 0.69484 0.60096 0.0
H703 H 0.4211 0.69655 0.54929 0.0
H704 H 0.34985 0.62226 0.51592 0.0
C705 C 0.3672 0.60721 0.38691 0.0
C706 C 0.40325 0.66144 0.44943 0.0
C707 C 0.37073 0.59277 0.36073 0.0
C708 C 0.4275 0.67818 0.59348 0.0
C709 C 0.41414 0.67897 0.56346 0.0
C710 C 0.36507 0.63353 0.49788 0.0
C711 C 0.38742 0.62478 0.40755 0.0
C712 C 0.38396 0.6378 0.43901 0.0
C713 C 0.39398 0.65677 0.54973 0.0
C714 C 0.38699 0.65444 0.51062 0.0
H715 H 0.43338 0.61678 0.37031 0.0
H716 H 0.42725 0.64078 0.41641 0.0
H717 H 0.34817 0.60701 0.45529 0.0
H718 H 0.39139 0.61662 0.61473 0.0
H719 H 0.36921 0.61742 0.5626 0.0
C720 C 0.76736 0.4164 0.916 0.0
C721 C 0.78986 0.43926 0.91433 0.0
C722 C 0.75183 0.40741 0.88587 0.0
C723 C 0.74335 0.4215 0.79094 0.0
H724 H 0.75069 0.36363 0.77025 0.0
C725 C 0.78333 0.4117 0.66072 0.0
C726 C 0.78268 0.38922 0.65153 0.0
C727 C 0.76941 0.41264 0.68959 0.0
C728 C 0.74749 0.37919 0.77521 0.0
H729 H 0.81176 0.47209 0.88129 0.0
H730 H 0.78457 0.45668 0.82937 0.0
H731 H 0.75189 0.37653 0.83171 0.0
H732 H 0.76472 0.34948 0.66236 0.0
H733 H 0.7394 0.35075 0.71202 0.0
H734 H 0.73994 0.42473 0.73414 0.0
C735 C 0.77896 0.44557 0.85378 0.0
C736 C 0.74824 0.38665 0.81084 0.0
C737 C 0.79466 0.45442 0.88369 0.0
C738 C 0.7658 0.36713 0.66929 0.0
C739 C 0.75144 0.36795 0.69787 0.0
C740 C 0.74205 0.41371 0.75521 0.0
C741 C 0.75832 0.42131 0.85378 0.0
C742 C 0.74797 0.40886 0.81883 0.0
C743 C 0.75428 0.391 0.7099 0.0
C744 C 0.74611 0.39361 0.74673 0.0
H745 H 0.76271 0.40458 0.93962 0.0
H746 H 0.73583 0.38877 0.88673 0.0
H747 H 0.74267 0.43848 0.79646 0.0
H748 H 0.79637 0.4291 0.64781 0.0
H749 H 0.7725 0.43085 0.69782 0.0
C750 C 0.44276 0.78117 1.01089 0.0
C751 C 0.43032 0.78579 0.98271 0.0
C752 C 0.42933 0.76498 1.03896 0.0
C753 C 0.37118 0.74929 1.08351 0.0
H754 H 0.39807 0.72346 0.15562 0.0
C755 C 0.35361 0.76103 0.22797 0.0
C756 C 0.37642 0.77462 0.24609 0.0
C757 C 0.35186 0.74685 0.19753 0.0
C758 C 0.39008 0.73034 0.13569 0.0
H759 H 0.39387 0.77417 0.95953 0.0
H760 H 0.37066 0.74519 1.00744 0.0
H761 H 0.41129 0.72648 1.09297 0.0
H762 H 0.4145 0.78173 0.24891 0.0
H763 H 0.41169 0.75776 0.19592 0.0
H764 H 0.35155 0.7551 0.12603 0.0
C765 C 0.3908 0.7548 1.00859 0.0
C766 C 0.39767 0.73208 1.09978 0.0
C767 C 0.40421 0.77128 0.9808 0.0
C768 C 0.39659 0.77145 0.23567 0.0
C769 C 0.39493 0.75752 0.20512 0.0
C770 C 0.36366 0.7476 0.11924 0.0
C771 C 0.40314 0.75281 1.0392 0.0
C772 C 0.38948 0.74306 1.07373 0.0
C773 C 0.37302 0.74635 0.18436 0.0
C774 C 0.37424 0.73965 0.14617 0.0
H775 H 0.46288 0.79144 1.01265 0.0
H776 H 0.43959 0.76391 1.06192 0.0
H777 H 0.36447 0.75798 1.06446 0.0
H778 H 0.3376 0.7627 0.23589 0.0
H779 H 0.33449 0.73789 0.18275 0.0
C780 C 0.67685 0.42294 0.28393 0.0
C781 C 0.6519 0.4145 0.27479 0.0
C782 C 0.68284 0.41025 0.30998 0.0
C783 C 0.68688 0.40119 0.38778 0.0
H784 H 0.63139 0.34341 0.43134 0.0
C785 C 0.64798 0.41092 0.517 0.0
C786 C 0.63181 0.39049 0.53833 0.0
C787 C 0.65942 0.40752 0.48699 0.0
C788 C 0.64755 0.35933 0.41991 0.0
H789 H 0.61402 0.38458 0.28218 0.0
H790 H 0.62383 0.36357 0.32823 0.0
H791 H 0.63664 0.34501 0.36674 0.0
H792 H 0.61647 0.35065 0.54667 0.0
H793 H 0.63689 0.34461 0.49405 0.0
H794 H 0.69834 0.41496 0.44113 0.0
C795 C 0.63929 0.37941 0.3155 0.0
C796 C 0.65029 0.36055 0.38246 0.0
C797 C 0.63346 0.39162 0.28879 0.0
C798 C 0.62869 0.36672 0.53045 0.0
C799 C 0.64031 0.36327 0.50023 0.0
C800 C 0.68475 0.39947 0.42519 0.0
C801 C 0.66386 0.38962 0.32862 0.0
C802 C 0.66822 0.38283 0.36575 0.0
C803 C 0.65528 0.38357 0.4775 0.0
C804 C 0.66352 0.37989 0.44138 0.0
H805 H 0.6915 0.44028 0.27285 0.0
H806 H 0.70219 0.418 0.31748 0.0
H807 H 0.7017 0.41839 0.37681 0.0
H808 H 0.65125 0.42958 0.5229 0.0
H809 H 0.67034 0.42366 0.47011 0.0
C810 C 0.24313 0.64417 0.88665 0.0
C811 C 0.24883 0.62601 0.89901 0.0
C812 C 0.2571 0.66061 0.8594 0.0
C813 C 0.29151 0.65639 0.78146 0.0
H814 H 0.26751 0.70069 0.74937 0.0
C815 C 0.22459 0.62662 0.67099 0.0
C816 C 0.21556 0.64181 0.65685 0.0
C817 C 0.24544 0.63668 0.69316 0.0
C818 C 0.27512 0.68884 0.75719 0.0
H819 H 0.27588 0.6133 0.89705 0.0
H820 H 0.30107 0.64266 0.84986 0.0
H821 H 0.27844 0.70095 0.81172 0.0
H822 H 0.22312 0.68004 0.65105 0.0
H823 H 0.26025 0.69798 0.6891 0.0
H824 H 0.28947 0.64525 0.72662 0.0
C825 C 0.28505 0.64352 0.85991 0.0
C826 C 0.28097 0.68863 0.7935 0.0
C827 C 0.27076 0.62677 0.88716 0.0
C828 C 0.22941 0.66779 0.66221 0.0
C829 C 0.25062 0.67802 0.68424 0.0
C830 C 0.28697 0.65758 0.74487 0.0
C831 C 0.27734 0.65943 0.84377 0.0
C832 C 0.28569 0.66984 0.80672 0.0
C833 C 0.2582 0.6624 0.70157 0.0
C834 C 0.27541 0.67121 0.73325 0.0
H835 H 0.22673 0.64451 0.89634 0.0
H836 H 0.25022 0.6724 0.84854 0.0
H837 H 0.29645 0.64251 0.78977 0.0
H838 H 0.21482 0.60661 0.66626 0.0
H839 H 0.25016 0.62366 0.70575 0.0
C840 C 0.4455 0.93957 1.0111 0.0
C841 C 0.42491 0.93578 0.9899 0.0
C842 C 0.45173 0.95352 1.04351 0.0
C843 C 0.43836 0.9989 1.09734 0.0
H844 H 0.47662 0.98822 0.17071 0.0
C845 C 0.46427 0.05499 0.23464 0.0
C846 C 0.48624 0.05982 0.25307 0.0
C847 C 0.45606 0.03959 0.20353 0.0
C848 C 0.46646 0.99206 0.15034 0.0
H849 H 0.39455 0.94392 0.98782 0.0
H850 H 0.40436 0.9668 1.04471 0.0
H851 H 0.46393 0.96236 0.11701 0.0
H852 H 0.51654 0.05151 0.25201 0.0
H853 H 0.50253 0.02516 0.19868 0.0
H854 H 0.44122 0.02886 0.13056 0.0
C855 C 0.41636 0.95962 1.03597 0.0
C856 C 0.45894 0.97691 0.11904 0.0
C857 C 0.41046 0.94612 1.00308 0.0
C858 C 0.49958 0.04853 0.23898 0.0
C859 C 0.49134 0.03308 0.20805 0.0
C860 C 0.4462 0.01429 0.12843 0.0
C861 C 0.4374 0.96405 1.05687 0.0
C862 C 0.44484 0.98001 1.09144 0.0
C863 C 0.46938 0.02818 0.18938 0.0
C864 C 0.46058 0.01138 0.15575 0.0
H865 H 0.45749 0.93244 1.00199 0.0
H866 H 0.46837 0.95655 1.05752 0.0
H867 H 0.42754 1.00238 1.0776 0.0
H868 H 0.4532 0.06302 0.24438 0.0
H869 H 0.43887 0.03631 0.19102 0.0
C870 C 0.51418 0.45506 0.34363 0.0
C871 C 0.49962 0.44743 0.31193 0.0
C872 C 0.50611 0.46214 0.37508 0.0
C873 C 0.46212 0.48425 0.40848 0.0
H874 H 0.4757 0.46622 0.50231 0.0
C875 C 0.45234 0.52623 0.54906 0.0
C876 C 0.43715 0.50855 0.5753 0.0
C877 C 0.45898 0.51884 0.51652 0.0
C878 C 0.47146 0.47129 0.47648 0.0
H879 H 0.46486 0.44198 0.2895 0.0
H880 H 0.45122 0.45478 0.34347 0.0
H881 H 0.48855 0.45308 0.4481 0.0
H882 H 0.41681 0.4687 0.58602 0.0
H883 H 0.4282 0.45602 0.52963 0.0
H884 H 0.44561 0.50306 0.43728 0.0
C885 C 0.46893 0.45514 0.34423 0.0
C886 C 0.47913 0.4639 0.44501 0.0
C887 C 0.47678 0.44761 0.31301 0.0
C888 C 0.42854 0.4831 0.56705 0.0
C889 C 0.43532 0.47576 0.53463 0.0
C890 C 0.45488 0.49206 0.44007 0.0
C891 C 0.4833 0.46241 0.37616 0.0
C892 C 0.4746 0.47012 0.41017 0.0
C893 C 0.45099 0.49346 0.50891 0.0
C894 C 0.45915 0.48552 0.47478 0.0
H895 H 0.53184 0.45529 0.34438 0.0
H896 H 0.51807 0.46776 0.39854 0.0
H897 H 0.45841 0.48986 0.3826 0.0
H898 H 0.45952 0.546 0.55384 0.0
H899 H 0.47094 0.53314 0.49758 0.0
C900 C 0.04827 0.4973 0.6638 0.0
C901 C 0.06176 0.48573 0.65135 0.0
C902 C 0.03259 0.48831 0.69431 0.0
C903 C 0.01663 0.44474 0.77581 0.0
H904 H 0.96161 0.45791 0.78434 0.0
C905 C 0.94835 0.40706 0.90053 0.0
C906 C 0.93652 0.42042 0.91258 0.0
C907 C 0.96209 0.41329 0.86792 0.0
C908 C 0.97701 0.45419 0.78313 0.0
H909 H 0.06863 0.45502 0.66251 0.0
H910 H 0.0416 0.43947 0.7153 0.0
H911 H 0.98745 0.47107 0.73088 0.0
H912 H 0.93071 0.45143 0.89868 0.0
H913 H 0.95501 0.4628 0.8434 0.0
H914 H 1.00533 0.42643 0.82699 0.0
C915 C 0.04328 0.45584 0.70179 0.0
C916 C 0.99221 0.46206 0.75198 0.0
C917 C 0.05888 0.46475 0.67101 0.0
C918 C 0.939 0.44024 0.89046 0.0
C919 C 0.95308 0.44677 0.85821 0.0
C920 C 1.00111 0.43639 0.80667 0.0
C921 C 0.02967 0.46741 0.71431 0.0
C922 C 0.0127 0.45795 0.74765 0.0
C923 C 0.96513 0.43356 0.84603 0.0
C924 C 0.98115 0.44133 0.81161 0.0
H925 H 0.04963 0.51339 0.64974 0.0
H926 H 0.02287 0.49811 0.70221 0.0
H927 H 0.03206 0.44107 0.77457 0.0
H928 H 0.9472 0.39178 0.91654 0.0
H929 H 0.97046 0.40213 0.86012 0.0
C930 C 0.49515 0.94509 0.21824 0.0
C931 C 0.51012 0.95272 0.24954 0.0
C932 C 0.50157 0.96051 0.18714 0.0
C933 C 0.54176 0.0279 0.15533 0.0
H934 H 0.52764 0.99841 1.06014 0.0
C935 C 0.55694 0.08658 1.02019 0.0
C936 C 0.56896 0.08146 0.9917 0.0
C937 C 0.54905 0.07146 1.05181 0.0
C938 C 0.53175 1.00712 1.08645 0.0
H939 H 0.54383 0.98346 0.27158 0.0
H940 H 0.55461 0.01022 0.21838 0.0
H941 H 0.5159 0.97148 1.11332 0.0
H942 H 0.58119 0.05533 0.9751 0.0
H943 H 0.5672 0.02929 1.02879 0.0
H944 H 0.5574 0.06357 0.12818 0.0
C945 C 0.53781 0.99221 0.21758 0.0
C946 C 0.5248 0.99151 0.11732 0.0
C947 C 0.53165 0.9766 0.24838 0.0
C948 C 0.57239 0.06044 0.99613 0.0
C949 C 0.56407 0.04514 1.02713 0.0
C950 C 0.54821 0.04349 0.12444 0.0
C951 C 0.52298 0.98458 0.18608 0.0
C952 C 0.52986 1.00148 0.15261 0.0
C953 C 0.55226 0.05025 1.05578 0.0
C954 C 0.54369 0.03349 1.08926 0.0
H955 H 0.47844 0.92698 0.21758 0.0
H956 H 0.48935 0.9536 0.16403 0.0
H957 H 0.54595 0.03673 0.18155 0.0
H958 H 0.55354 0.10223 1.01806 0.0
H959 H 0.53992 0.07612 1.0729 0.0
C960 C 0.57621 0.49178 0.55039 0.0
C961 C 0.59135 0.50931 0.57672 0.0
C962 C 0.56839 0.49928 0.51881 0.0
C963 C 0.5799 0.55826 0.46549 0.0
H964 H 0.52151 0.51136 0.41282 0.0
C965 C 0.5506 0.58853 0.33065 0.0
C966 C 0.52574 0.57557 0.31825 0.0
C967 C 0.55854 0.58042 0.36127 0.0
C968 C 0.53765 0.52503 0.42723 0.0
H969 H 0.60932 0.54889 0.58937 0.0
H970 H 0.59553 0.56153 0.53652 0.0
H971 H 0.53418 0.49751 0.46611 0.0
H972 H 0.48981 0.54353 0.33013 0.0
H973 H 0.5031 0.53013 0.3835 0.0
H974 H 0.58276 0.58598 0.42762 0.0
C975 C 0.59014 0.54197 0.53889 0.0
C976 C 0.54537 0.51685 0.45804 0.0
C977 C 0.59809 0.53455 0.57001 0.0
C978 C 0.50913 0.55422 0.33826 0.0
C979 C 0.51698 0.54627 0.36914 0.0
C980 C 0.57197 0.56646 0.43499 0.0
C981 C 0.57515 0.52467 0.51214 0.0
C982 C 0.56674 0.53324 0.47822 0.0
C983 C 0.54197 0.55901 0.3815 0.0
C984 C 0.55059 0.5501 0.41485 0.0
H985 H 0.57022 0.47214 0.55421 0.0
H986 H 0.55714 0.48495 0.49951 0.0
H987 H 0.59673 0.57188 0.4788 0.0
H988 H 0.56425 0.60488 0.3162 0.0
H989 H 0.57801 0.59091 0.36849 0.0
C990 C 0.06902 0.57376 0.90597 0.0
C991 C 0.0889 0.56885 0.91155 0.0
C992 C 0.05406 0.56568 0.87473 0.0
C993 C 0.0521 0.54678 0.77858 0.0
H994 H 0.98092 0.52017 0.78802 0.0
C995 C 0.98837 0.53126 0.65189 0.0
C996 C 0.96363 0.5112 0.65146 0.0
C997 C 1.00346 0.53733 0.6831 0.0
C998 C 1.00071 0.52742 0.78449 0.0
H999 H 0.10809 0.5511 0.88705 0.0
H1000 H 0.08251 0.53772 0.8319 0.0
H1001 H 1.00712 0.53158 0.84172 0.0
H1002 H 0.93575 0.48208 0.68504 0.0
H1003 H 0.96156 0.49285 0.73925 0.0
H1004 H 0.04586 0.54308 0.72141 0.0
C1005 C 0.07851 0.54789 0.85219 0.0
C1006 C 0.01592 0.53421 0.81564 0.0
C1007 C 0.09331 0.55564 0.88398 0.0
C1008 C 0.95459 0.49761 0.68383 0.0
C1009 C 0.96953 0.50399 0.7153 0.0
C1010 C 0.03695 0.54043 0.74736 0.0
C1011 C 0.05839 0.55257 0.84708 0.0
C1012 C 0.04198 0.54415 0.81342 0.0
C1013 C 0.99444 0.5239 0.71567 0.0
C1014 C 1.01084 0.53059 0.74949 0.0
H1015 H 0.06454 0.58358 0.92626 0.0
H1016 H 0.03911 0.57001 0.87212 0.0
H1017 H 0.07197 0.55439 0.7753 0.0
H1018 H 0.99628 0.54234 0.62783 0.0
H1019 H 0.0222 0.553 0.68171 0.0
C1020 C 0.47066 0.04053 0.43322 0.0
C1021 C 0.49592 0.05265 0.42381 0.0
C1022 C 0.4632 0.03354 0.46875 0.0
C1023 C 0.49026 0.0176 0.54754 0.0
H1024 H 0.42962 0.96348 0.50989 0.0
C1025 C 0.50179 0.97278 0.43636 0.0
C1026 C 0.48234 0.95319 0.41753 0.0
C1027 C 0.4978 0.97928 0.47065 0.0
C1028 C 0.44682 0.97798 0.52132 0.0
H1029 H 0.53336 0.0685 0.44522 0.0
H1030 H 0.52068 0.05534 0.5064 0.0
H1031 H 0.43213 1.00293 0.52535 0.0
H1032 H 0.44381 0.92376 0.4208 0.0
H1033 H 0.43676 0.93494 0.48076 0.0
H1034 H 0.50555 0.99292 0.54541 0.0
C1035 C 0.50619 0.05099 0.48674 0.0
C1036 C 0.44842 1.00095 0.52969 0.0
C1037 C 0.51363 0.05826 0.45117 0.0
C1038 C 0.45889 0.93976 0.43405 0.0
C1039 C 0.45499 0.94586 0.4688 0.0
C1040 C 0.48907 0.99457 0.54091 0.0
C1041 C 0.48068 0.03728 0.49608 0.0
C1042 C 0.47241 0.02207 0.53041 0.0
C1043 C 0.47428 0.966 0.48749 0.0
C1044 C 0.469 0.97664 0.5203 0.0
H1045 H 0.45646 0.03644 0.41314 0.0
H1046 H 0.44341 0.02397 0.47394 0.0
H1047 H 0.50761 0.03293 0.55724 0.0
H1048 H 0.52022 0.98297 0.42464 0.0
H1049 H 0.51315 0.99538 0.48319 0.0
C1050 C 0.4753 0.50249 0.64049 0.0
C1051 C 0.46304 0.49937 0.6734 0.0
C1052 C 0.47118 0.48166 0.62022 0.0
C1053 C 0.44763 0.41328 0.62969 0.0
H1054 H 0.48466 0.43224 0.54104 0.0
C1055 C 0.52878 0.43495 0.66425 0.0
C1056 C 0.54049 0.46119 0.66114 0.0
C1057 C 0.51159 0.41946 0.63869 0.0
C1058 C 0.47342 0.42581 0.56521 0.0
H1059 H 0.43898 0.47191 0.71267 0.0
H1060 H 0.43003 0.43601 0.67644 0.0
H1061 H 0.46082 0.45229 0.55838 0.0
H1062 H 0.54426 0.49161 0.62733 0.0
H1063 H 0.51332 0.46515 0.58418 0.0
H1064 H 0.46065 0.38718 0.63535 0.0
C1065 C 0.44301 0.45424 0.66582 0.0
C1066 C 0.46014 0.43785 0.57553 0.0
C1067 C 0.44815 0.47502 0.6868 0.0
C1068 C 0.53503 0.47154 0.63123 0.0
C1069 C 0.51755 0.45605 0.60585 0.0
C1070 C 0.46044 0.40117 0.6178 0.0
C1071 C 0.45412 0.45712 0.63183 0.0
C1072 C 0.4513 0.43496 0.61123 0.0
C1073 C 0.50452 0.42967 0.61016 0.0
C1074 C 0.47962 0.41409 0.59266 0.0
H1075 H 0.48719 0.52098 0.62954 0.0
H1076 H 0.48144 0.48512 0.59532 0.0
H1077 H 0.43852 0.40788 0.65557 0.0
H1078 H 0.53298 0.4262 0.6865 0.0
H1079 H 0.50254 0.39941 0.64272 0.0
C1080 C 0.98038 0.46174 0.97108 0.0
C1081 C 0.97365 0.44908 1.0041 0.0
C1082 C 0.99476 0.4572 0.94652 0.0
C1083 C 0.03698 0.42939 0.94206 0.0
H1084 H 0.05548 0.47465 0.86194 0.0
C1085 C 0.09371 0.50566 0.99224 0.0
C1086 C 0.07997 0.51841 0.99246 0.0
C1087 C 0.09236 0.49068 0.96317 0.0
C1088 C 0.05047 0.46133 0.88379 0.0
H1089 H 0.9798 0.42453 1.03936 0.0
H1090 H 1.00278 0.41485 0.9962 0.0
H1091 H 0.0123 0.45171 0.88015 0.0
H1092 H 0.05435 0.52566 0.9617 0.0
H1093 H 0.05117 0.49936 0.91198 0.0
H1094 H 0.07555 0.44031 0.94439 0.0
C1095 C 0.99704 0.42816 0.98824 0.0
C1096 C 0.02549 0.44834 0.89468 0.0
C1097 C 0.98365 0.43367 1.01336 0.0
C1098 C 0.06479 0.51573 0.96288 0.0
C1099 C 0.06347 0.50085 0.93375 0.0
C1100 C 0.06159 0.44264 0.92988 0.0
C1101 C 1.00253 0.43946 0.95392 0.0
C1102 C 0.01972 0.43628 0.92861 0.0
C1103 C 0.07641 0.48709 0.93397 0.0
C1104 C 0.06816 0.46457 0.91013 0.0
H1105 H 0.97346 0.47422 0.96329 0.0
H1106 H 0.99948 0.46776 0.92174 0.0
H1107 H 0.03309 0.41715 0.96491 0.0
H1108 H 0.10601 0.50758 1.01433 0.0
H1109 H 0.10289 0.48086 0.96446 0.0
C1110 C 0.04655 0.46668 0.46881 0.0
C1111 C 0.05469 0.49171 0.478 0.0
C1112 C 0.04019 0.45839 0.43341 0.0
C1113 C 0.01938 0.48009 0.35255 0.0
H1114 H 0.96702 0.42128 0.39733 0.0
C1115 C 0.97938 0.49739 0.46248 0.0
C1116 C 0.9604 0.47909 0.48364 0.0
C1117 C 0.98425 0.49152 0.4283 0.0
C1118 C 0.98101 0.43789 0.38383 0.0
H1119 H 0.06427 0.52811 0.45629 0.0
H1120 H 0.05153 0.51371 0.39558 0.0
H1121 H 1.00645 0.42382 0.38375 0.0
H1122 H 0.93034 0.44064 0.4846 0.0
H1123 H 0.93887 0.43024 0.42492 0.0
H1124 H 0.99424 0.4948 0.35176 0.0
C1125 C 0.05018 0.50007 0.41518 0.0
C1126 C 1.00403 0.43957 0.37653 0.0
C1127 C 0.05711 0.50845 0.45052 0.0
C1128 C 0.9459 0.45487 0.46953 0.0
C1129 C 0.95044 0.44906 0.43494 0.0
C1130 C 0.99631 0.47875 0.35848 0.0
C1131 C 0.04027 0.47449 0.40617 0.0
C1132 C 0.02465 0.46377 0.37267 0.0
C1133 C 0.96998 0.46718 0.41396 0.0
C1134 C 0.97919 0.45985 0.38157 0.0
H1135 H 0.04514 0.45333 0.48891 0.0
H1136 H 0.03387 0.43886 0.42816 0.0
H1137 H 0.03431 0.49712 0.34119 0.0
H1138 H 0.9904 0.51637 0.47231 0.0
H1139 H 0.99993 0.50606 0.41387 0.0
C1140 C 0.43569 0.98257 0.88812 0.0
C1141 C 0.45168 0.9733 0.8975 0.0
C1142 C 0.42956 0.99559 0.91318 0.0
C1143 C 0.4478 0.02318 1.00744 0.0
H1144 H 0.44375 0.07557 0.9573 0.0
C1145 C 0.51589 0.05993 0.94212 0.0
C1146 C 0.51939 0.07513 0.91214 0.0
C1147 C 0.5014 0.05976 0.97104 0.0
C1148 C 0.44496 0.06092 0.97188 0.0
H1149 H 0.47705 0.97403 0.9385 0.0
H1150 H 0.46926 0.99931 0.98006 0.0
H1151 H 0.42037 0.03337 0.93478 0.0
H1152 H 0.51082 0.10281 0.88972 0.0
H1153 H 0.48483 0.10164 0.93906 0.0
H1154 H 0.47385 0.05231 1.04167 0.0
C1155 C 0.45887 0.9943 0.95513 0.0
C1156 C 0.43144 0.03645 0.95874 0.0
C1157 C 0.46415 0.98037 0.93061 0.0
C1158 C 0.50812 0.09031 0.91197 0.0
C1159 C 0.49358 0.09011 0.94079 0.0
C1160 C 0.46129 0.04809 1.01907 0.0
C1161 C 0.4407 1.00136 0.94753 0.0
C1162 C 0.43694 0.01827 0.97272 0.0
C1163 C 0.48881 0.07386 0.97008 0.0
C1164 C 0.46605 0.06642 0.99287 0.0
H1165 H 0.42664 0.97842 0.86207 0.0
H1166 H 0.4159 1.00083 0.90528 0.0
H1167 H 0.45022 0.00933 1.02194 0.0
H1168 H 0.52479 0.04851 0.94365 0.0
H1169 H 0.49914 0.04734 0.99314 0.0
C1170 C 0.53819 0.57063 0.13413 0.0
C1171 C 0.51309 0.55683 0.14421 0.0
C1172 C 0.54539 0.57151 1.09837 0.0
C1173 C 0.5191 0.53095 1.0168 0.0
H1174 H 0.58124 0.5374 1.04868 0.0
C1175 C 0.50866 0.47337 0.12141 0.0
C1176 C 0.52842 0.47479 0.14166 0.0
C1177 C 0.51273 0.48347 1.08687 0.0
C1178 C 0.56361 0.53481 1.03891 0.0
H1179 H 0.47564 0.53377 0.124 0.0
H1180 H 0.48793 0.53353 1.06241 0.0
H1181 H 0.57673 0.57407 1.04113 0.0
H1182 H 0.56762 0.48581 0.14059 0.0
H1183 H 0.57489 0.50332 1.08018 0.0
H1184 H 0.50574 0.49156 1.01249 0.0
C1185 C 0.50248 0.54429 1.08161 0.0
C1186 C 0.56087 0.556 1.03515 0.0
C1187 C 0.49527 0.54395 0.11741 0.0
C1188 C 0.55226 0.48565 0.12619 0.0
C1189 C 0.55629 0.49525 1.09118 0.0
C1190 C 0.52168 0.50954 1.01883 0.0
C1191 C 0.52787 0.55748 1.0714 0.0
C1192 C 0.53643 0.55229 1.03592 0.0
C1193 C 0.53673 0.49496 1.07119 0.0
C1194 C 0.54196 0.51111 1.03855 0.0
H1195 H 0.55246 0.58134 0.15373 0.0
H1196 H 0.56502 0.58263 1.09261 0.0
H1197 H 0.50133 0.52882 1.00856 0.0
H1198 H 0.48995 0.46433 0.1323 0.0
H1199 H 0.49698 0.48298 1.07332 0.0
C1200 C 0.34829 0.97043 0.70272 0.0
C1201 C 0.34328 0.97473 0.73806 0.0
C1202 C 0.34376 0.98206 0.67375 0.0
C1203 C 0.33906 0.03761 0.65089 0.0
H1204 H 0.32282 1.00466 0.55802 0.0
C1205 C 0.38298 0.08811 0.52119 0.0
C1206 C 0.37348 0.07613 0.48804 0.0
C1207 C 0.3699 0.07787 0.55303 0.0
C1208 C 0.3267 0.01423 0.58366 0.0
H1209 H 0.32915 0.99431 0.7707 0.0
H1210 H 0.32085 0.01441 0.71976 0.0
H1211 H 0.31692 0.98031 0.61184 0.0
H1212 H 0.34078 0.04638 0.46191 0.0
H1213 H 0.31735 0.02969 0.51697 0.0
H1214 H 0.34897 0.07161 0.62261 0.0
C1215 C 0.32848 1.00217 0.71461 0.0
C1216 C 0.32371 1.0002 0.61461 0.0
C1217 C 0.33307 0.99051 0.74372 0.0
C1218 C 0.34896 0.056 0.48689 0.0
C1219 C 0.3356 0.04613 0.51869 0.0
C1220 C 0.34171 0.05165 0.61987 0.0
C1221 C 0.33394 0.99818 0.6793 0.0
C1222 C 0.33124 0.01194 0.64828 0.0
C1223 C 0.34671 0.05573 0.55232 0.0
C1224 C 0.33695 0.04038 0.58564 0.0
H1225 H 0.35582 0.95811 0.6974 0.0
H1226 H 0.34866 0.97892 0.64701 0.0
H1227 H 0.34483 0.04723 0.67648 0.0
H1228 H 0.40143 0.10426 0.52294 0.0
H1229 H 0.37914 0.08611 0.5782 0.0
C1230 C 0.3598 0.32405 1.07533 0.0
C1231 C 0.3854 0.33239 1.07195 0.0
C1232 C 0.34489 0.31886 1.04469 0.0
C1233 C 0.34673 0.31689 0.94367 0.0
H1234 H 0.31234 0.35519 0.95127 0.0
C1235 C 0.33327 0.36373 0.81909 0.0
C1236 C 0.34189 0.38934 0.82483 0.0
C1237 C 0.32777 0.34745 0.84829 0.0
C1238 C 0.32168 0.34425 0.94865 0.0
H1239 H 0.41482 0.33912 1.03419 0.0
H1240 H 0.38938 0.33133 0.981 0.0
H1241 H 0.32355 0.34113 1.00554 0.0
H1242 H 0.34973 0.41761 0.86544 0.0
H1243 H 0.34116 0.38969 0.91614 0.0
H1244 H 0.34729 0.32247 0.88689 0.0
C1245 C 0.3805 0.3284 1.00705 0.0
C1246 C 0.32781 0.33582 0.97985 0.0
C1247 C 0.39529 0.33336 1.0376 0.0
C1248 C 0.34359 0.39807 0.86018 0.0
C1249 C 0.3382 0.38189 0.88927 0.0
C1250 C 0.34094 0.32569 0.91248 0.0
C1251 C 0.35534 0.32211 1.01013 0.0
C1252 C 0.34185 0.32344 0.97778 0.0
C1253 C 0.33081 0.35651 0.88374 0.0
C1254 C 0.32978 0.34084 0.91486 0.0
H1255 H 0.35158 0.32301 1.10147 0.0
H1256 H 0.32549 0.31361 1.04806 0.0
H1257 H 0.35683 0.3067 0.9411 0.0
H1258 H 0.33179 0.35645 0.79211 0.0
H1259 H 0.32192 0.32798 0.84311 0.0
C1260 C 0.99645 0.33415 0.16011 0.0
C1261 C 0.98026 0.34389 0.16542 0.0
C1262 C 1.00842 0.33025 0.18939 0.0
C1263 C 1.00674 0.3263 0.28942 0.0
H1264 H 0.07799 0.35293 0.28134 0.0
C1265 C 0.06281 0.35196 0.41708 0.0
C1266 C 0.08252 0.37677 0.41613 0.0
C1267 C 0.05291 0.33876 0.38513 0.0
C1268 C 0.05808 0.34528 0.28408 0.0
H1269 H 0.96332 0.35633 0.20567 0.0
H1270 H 0.98467 0.35037 0.25635 0.0
H1271 H 0.05349 0.34806 0.22744 0.0
H1272 H 0.10978 0.4056 0.38134 0.0
H1273 H 0.09168 0.38345 0.32586 0.0
H1274 H 1.01134 0.32567 0.34605 0.0
C1275 C 0.98788 0.34531 0.22975 0.0
C1276 C 0.04398 0.34222 0.25307 0.0
C1277 C 0.97594 0.34916 0.2006 0.0
C1278 C 0.09402 0.38685 0.38293 0.0
C1279 C 0.08381 0.37387 0.35098 0.0
C1280 C 0.02082 0.32967 0.32037 0.0
C1281 C 1.00436 0.33593 0.22454 0.0
C1282 C 0.01834 0.33386 0.25569 0.0
C1283 C 0.06215 0.35028 0.35159 0.0
C1284 C 0.04687 0.34036 0.31832 0.0
H1285 H 1.00027 0.33005 0.13326 0.0
H1286 H 0.02094 0.32294 0.1845 0.0
H1287 H 0.9869 0.31914 0.29221 0.0
H1288 H 0.05356 0.34342 0.44213 0.0
H1289 H 0.03679 0.32024 0.38671 0.0
C1290 C 0.6813 0.04246 0.7515 0.0
C1291 C 0.67454 0.06119 0.74889 0.0
C1292 C 0.68937 0.03508 0.72107 0.0
C1293 C 0.69836 0.046 0.62063 0.0
H1294 H 0.6589 0.97369 0.61944 0.0
C1295 C 0.65659 0.99281 0.48847 0.0
C1296 C 0.63105 0.97549 0.49154 0.0
C1297 C 0.67135 1.0024 0.5193 0.0
C1298 C 0.67009 0.9939 0.61924 0.0
H1299 H 0.67469 0.08945 0.71362 0.0
H1300 H 0.68672 0.07552 0.66044 0.0
H1301 H 0.6706 0.99533 0.67636 0.0
H1302 H 0.60133 0.95355 0.52916 0.0
H1303 H 0.62651 0.97087 0.58254 0.0
H1304 H 0.69519 0.04446 0.56328 0.0
C1305 C 0.68624 0.06652 0.68571 0.0
C1306 C 0.67726 1.00644 0.65209 0.0
C1307 C 0.67877 0.07426 0.71626 0.0
C1308 C 0.62083 0.96722 0.52589 0.0
C1309 C 0.63547 0.97684 0.55656 0.0
C1310 C 0.69065 0.03345 0.58772 0.0
C1311 C 0.69021 0.04581 0.68722 0.0
C1312 C 0.69012 0.03277 0.6533 0.0
C1313 C 0.66084 0.99484 0.55376 0.0
C1314 C 0.67508 1.00735 0.58686 0.0
H1315 H 0.6786 0.03213 0.77628 0.0
H1316 H 0.69319 0.01972 0.72367 0.0
H1317 H 0.70914 0.06623 0.62038 0.0
H1318 H 0.665 0.99957 0.46233 0.0
H1319 H 0.69085 0.0161 0.51617 0.0
C1320 C 0.6496 0.68371 1.05414 0.0
C1321 C 0.65301 0.6739 1.08645 0.0
C1322 C 0.66496 0.68727 1.02462 0.0
C1323 C 0.69757 0.65769 0.98606 0.0
H1324 H 0.71171 0.70646 0.91045 0.0
C1325 C 0.70574 0.63217 0.84205 0.0
C1326 C 0.68876 0.6348 0.8197 0.0
C1327 C 0.71348 0.64527 0.87455 0.0
C1328 C 0.70815 0.69282 0.93141 0.0
H1329 H 0.67606 0.6615 0.11395 0.0
H1330 H 0.70295 0.66775 1.06225 0.0
H1331 H 0.70255 0.71479 0.97125 0.0
H1332 H 0.66811 0.65467 0.81263 0.0
H1333 H 0.6813 0.67719 0.86896 0.0
H1334 H 0.70118 0.63483 0.94602 0.0
C1335 C 0.68836 0.67263 1.05978 0.0
C1336 C 0.70292 0.6976 0.96618 0.0
C1337 C 0.67304 0.66917 1.08939 0.0
C1338 C 0.68136 0.65234 0.82902 0.0
C1339 C 0.68904 0.66538 0.86143 0.0
C1340 C 0.70268 0.65287 0.95133 0.0
C1341 C 0.68398 0.68098 1.02677 0.0
C1342 C 0.69628 0.67948 0.99334 0.0
C1343 C 0.70431 0.66118 0.88531 0.0
C1344 C 0.70665 0.66976 0.92319 0.0
H1345 H 0.6345 0.68783 1.0513 0.0
H1346 H 0.66088 0.69345 0.99946 0.0
H1347 H 0.6924 0.64326 1.00632 0.0
H1348 H 0.71218 0.61916 0.83519 0.0
H1349 H 0.72559 0.64196 0.89211 0.0
C1350 C 0.05094 0.68435 0.14835 0.0
C1351 C 0.07004 0.6782 0.15111 0.0
C1352 C 0.04346 0.6925 0.17858 0.0
C1353 C 0.05462 0.70243 0.27891 0.0
H1354 H 0.98284 0.66114 0.28065 0.0
C1355 C 1.00311 0.65934 0.4114 0.0
C1356 C 0.98631 0.63355 0.40837 0.0
C1357 C 0.01206 0.67429 0.38058 0.0
C1358 C 1.0029 0.67283 0.2807 0.0
H1359 H 0.0988 0.67965 0.1863 0.0
H1360 H 0.08473 0.69179 0.23919 0.0
H1361 H 1.0041 0.67323 0.22358 0.0
H1362 H 0.96457 0.60358 0.37084 0.0
H1363 H 0.98087 0.62908 0.31744 0.0
H1364 H 0.0534 0.69934 0.33624 0.0
C1365 C 0.0755 0.69076 0.21395 0.0
C1366 C 0.01521 0.68024 0.24775 0.0
C1367 C 0.08334 0.68323 0.18358 0.0
C1368 C 0.97788 0.62327 0.37408 0.0
C1369 C 0.9869 0.63809 0.3434 0.0
C1370 C 0.04231 0.69447 0.31191 0.0
C1371 C 0.05445 0.69401 0.2124 0.0
C1372 C 0.0414 0.69375 0.24635 0.0
C1373 C 1.00442 0.66372 0.34615 0.0
C1374 C 0.01645 0.67821 0.31298 0.0
H1375 H 0.04042 0.68104 0.12367 0.0
H1376 H 0.02783 0.69579 0.17591 0.0
H1377 H 0.07471 0.71374 0.27901 0.0
H1378 H 1.01 0.66783 0.43748 0.0
H1379 H 0.02538 0.69397 0.3837 0.0
C1380 C 0.50636 0.10889 0.4914 0.0
C1381 C 0.52494 0.11843 0.46449 0.0
C1382 C 0.5125 0.10976 0.52837 0.0
C1383 C 0.56416 0.11659 0.59045 0.0
H1384 H 0.52697 0.12865 0.66424 0.0
C1385 C 0.57889 0.10567 0.74464 0.0
C1386 C 0.57718 0.12203 0.76976 0.0
C1387 C 0.5729 0.10573 0.70787 0.0
C1388 C 0.53777 0.1254 0.64415 0.0
H1389 H 0.56489 0.13638 0.45675 0.0
H1390 H 0.57545 0.13801 0.52034 0.0
H1391 H 0.51582 0.12785 0.60082 0.0
H1392 H 0.56757 0.15144 0.77452 0.0
H1393 H 0.55717 0.15156 0.71085 0.0
H1394 H 0.58614 0.1142 0.63363 0.0
C1395 C 0.55599 0.12967 0.51303 0.0
C1396 C 0.53113 0.12466 0.60745 0.0
C1397 C 0.54988 0.12898 0.4762 0.0
C1398 C 0.56933 0.13859 0.75639 0.0
C1399 C 0.56309 0.13848 0.71962 0.0
C1400 C 0.57062 0.11706 0.62712 0.0
C1401 C 0.53747 0.11998 0.54001 0.0
C1402 C 0.54425 0.12037 0.57971 0.0
C1403 C 0.56465 0.12198 0.6945 0.0
C1404 C 0.55764 0.12156 0.65487 0.0
H1405 H 0.48691 0.10024 0.48389 0.0
H1406 H 0.4975 0.10177 0.5478 0.0
H1407 H 0.57471 0.11293 0.57044 0.0
H1408 H 0.58467 0.09249 0.75343 0.0
H1409 H 0.5742 0.09249 0.69003 0.0
C1410 C 0.42417 0.5307 0.82321 0.0
C1411 C 0.43625 0.54895 0.79619 0.0
C1412 C 0.43044 0.53615 0.86025 0.0
C1413 C 0.48022 0.58547 0.92264 0.0
H1414 H 0.43266 0.54803 0.9973 0.0
C1415 C 0.50871 0.60239 1.07662 0.0
C1416 C 0.4904 0.59681 1.10331 0.0
C1417 C 0.50232 0.59663 1.03974 0.0
C1418 C 0.44632 0.5591 0.97715 0.0
H1419 H 0.4643 0.58776 0.78856 0.0
H1420 H 0.47443 0.59737 0.85179 0.0
H1421 H 0.42092 0.53844 0.93447 0.0
H1422 H 0.45062 0.58109 1.11038 0.0
H1423 H 0.43971 0.57219 1.04712 0.0
H1424 H 0.50533 0.60672 0.96521 0.0
C1425 C 0.46058 0.57845 0.84485 0.0
C1426 C 0.43958 0.5532 0.94043 0.0
C1427 C 0.4545 0.57294 0.808 0.0
C1428 C 0.4655 0.58583 1.09121 0.0
C1429 C 0.45913 0.58031 1.05439 0.0
C1430 C 0.4869 0.59149 0.95933 0.0
C1431 C 0.44898 0.56018 0.87208 0.0
C1432 C 0.4563 0.56627 0.91207 0.0
C1433 C 0.47729 0.58524 1.02759 0.0
C1434 C 0.47013 0.57854 0.98769 0.0
H1435 H 0.41019 0.51192 0.81571 0.0
H1436 H 0.42099 0.52115 0.87948 0.0
H1437 H 0.4942 0.59597 0.90256 0.0
H1438 H 0.52809 0.61055 1.08433 0.0
H1439 H 0.51719 0.60057 1.02096 0.0
C1440 C 0.89602 0.44254 0.14594 0.0
C1441 C 0.90101 0.42354 0.13432 0.0
C1442 C 0.89625 0.44844 0.18279 0.0
C1443 C 0.89784 0.42559 0.27829 0.0
H1444 H 0.9117 0.49238 0.30368 0.0
C1445 C 0.88861 0.45112 0.42836 0.0
C1446 C 0.90282 0.47594 0.44096 0.0
C1447 C 0.88855 0.44491 0.39163 0.0
C1448 C 0.90803 0.47364 0.29761 0.0
H1449 H 0.91033 0.39597 0.15405 0.0
H1450 H 0.91136 0.4065 0.21785 0.0
H1451 H 0.91218 0.48163 0.24103 0.0
H1452 H 0.92872 0.51356 0.42333 0.0
H1453 H 0.92901 0.50294 0.36004 0.0
H1454 H 0.89475 0.41796 0.33507 0.0
C1455 C 0.90664 0.41667 0.19848 0.0
C1456 C 0.90787 0.4672 0.26093 0.0
C1457 C 0.90615 0.41057 0.16144 0.0
C1458 C 0.91702 0.49431 0.41505 0.0
C1459 C 0.91716 0.48808 0.37828 0.0
C1460 C 0.8982 0.43209 0.31503 0.0
C1461 C 0.90182 0.4359 0.21016 0.0
C1462 C 0.90257 0.44293 0.25015 0.0
C1463 C 0.90296 0.46317 0.36555 0.0
C1464 C 0.90312 0.45625 0.32573 0.0
H1465 H 0.89179 0.45301 0.12638 0.0
H1466 H 0.89173 0.46287 0.18962 0.0
H1467 H 0.89345 0.40663 0.27212 0.0
H1468 H 0.87753 0.43621 0.44707 0.0
H1469 H 0.87691 0.42559 0.38382 0.0
C1470 C 0.49349 0.90858 0.48627 0.0
C1471 C 0.47486 0.89386 0.46104 0.0
C1472 C 0.48776 0.90954 0.52303 0.0
C1473 C 0.43283 0.89175 0.5875 0.0
H1474 H 0.48333 0.90795 0.66033 0.0
C1475 C 0.41343 0.90284 0.74095 0.0
C1476 C 0.42701 0.89866 0.76811 0.0
C1477 C 0.41895 0.90255 0.70383 0.0
C1478 C 0.46863 0.90302 0.64079 0.0
H1479 H 0.43523 0.86853 0.45611 0.0
H1480 H 0.42547 0.86921 0.51943 0.0
H1481 H 0.49312 0.90605 0.5977 0.0
H1482 H 0.45691 0.89023 0.77607 0.0
H1483 H 0.46576 0.88879 0.71279 0.0
H1484 H 0.40807 0.88775 0.63082 0.0
C1485 C 0.44461 0.88069 0.51108 0.0
C1486 C 0.47451 0.90236 0.60408 0.0
C1487 C 0.45031 0.87998 0.47431 0.0
C1488 C 0.446 0.89378 0.75648 0.0
C1489 C 0.45131 0.8932 0.71957 0.0
C1490 C 0.42688 0.89218 0.6243 0.0
C1491 C 0.46312 0.89564 0.53648 0.0
C1492 C 0.45678 0.89664 0.57634 0.0
C1493 C 0.43817 0.89783 0.69212 0.0
C1494 C 0.44459 0.89773 0.65204 0.0
H1495 H 0.51254 0.9201 0.47741 0.0
H1496 H 0.50279 0.9218 0.54067 0.0
H1497 H 0.41844 0.88772 0.56777 0.0
H1498 H 0.39879 0.90688 0.74836 0.0
H1499 H 0.40832 0.90657 0.6844 0.0
C1500 C 0.60003 0.49169 0.82373 0.0
C1501 C 0.59903 0.47407 0.79833 0.0
C1502 C 0.59328 0.48523 0.86023 0.0
C1503 C 0.55815 0.42983 0.92324 0.0
H1504 H 0.59146 0.47957 0.99755 0.0
C1505 C 0.5244 0.41313 1.07586 0.0
C1506 C 0.54256 0.42373 1.10329 0.0
C1507 C 0.5308 0.41837 1.03883 0.0
C1508 C 0.58191 0.46521 0.97745 0.0
H1509 H 0.58981 0.43532 0.79304 0.0
H1510 H 0.57826 0.42411 0.8563 0.0
H1511 H 0.60394 0.48997 0.93493 0.0
H1512 H 0.5821 0.44842 1.11165 0.0
H1513 H 0.59303 0.45724 1.04843 0.0
H1514 H 0.53628 0.40501 0.96608 0.0
C1515 C 0.58415 0.4431 0.84791 0.0
C1516 C 0.58897 0.47136 0.94096 0.0
C1517 C 0.59109 0.44964 0.81132 0.0
C1518 C 0.56735 0.4396 1.09194 0.0
C1519 C 0.57368 0.44496 1.05518 0.0
C1520 C 0.55096 0.42373 0.95982 0.0
C1521 C 0.585 0.46074 0.87329 0.0
C1522 C 0.57734 0.45384 0.91285 0.0
C1523 C 0.5556 0.43468 1.02762 0.0
C1524 C 0.56277 0.44123 0.98789 0.0
H1525 H 0.60582 0.51068 0.81535 0.0
H1526 H 0.59405 0.49953 0.87806 0.0
H1527 H 0.54831 0.41567 0.90299 0.0
H1528 H 0.50505 0.40113 1.08297 0.0
H1529 H 0.51607 0.4101 1.01901 0.0
C1530 C 0.11137 0.50611 0.41322 0.0
C1531 C 0.12044 0.52505 0.43973 0.0
C1532 C 0.11261 0.51193 0.37608 0.0
C1533 C 0.12017 0.56354 0.31276 0.0
H1534 H 0.13241 0.52547 0.2404 0.0
C1535 C 0.11129 0.5783 0.15844 0.0
C1536 C 0.12753 0.57611 0.13379 0.0
C1537 C 0.11088 0.57225 0.19523 0.0
C1538 C 0.12913 0.53652 0.2601 0.0
H1539 H 0.13817 0.56528 0.44662 0.0
H1540 H 0.14056 0.57528 0.38284 0.0
H1541 H 0.13091 0.51454 0.30407 0.0
H1542 H 0.15623 0.56561 0.12984 0.0
H1543 H 0.15562 0.55521 0.19368 0.0
H1544 H 0.11859 0.58565 0.26904 0.0
C1545 C 0.13216 0.55579 0.39053 0.0
C1546 C 0.12797 0.53 0.29692 0.0
C1547 C 0.13101 0.55 0.4275 0.0
C1548 C 0.1435 0.56774 0.14763 0.0
C1549 C 0.14296 0.56149 0.18447 0.0
C1550 C 0.12114 0.56992 0.27601 0.0
C1551 C 0.12282 0.53693 0.36394 0.0
C1552 C 0.12359 0.54346 0.32412 0.0
C1553 C 0.12657 0.56353 0.20911 0.0
C1554 C 0.1257 0.55662 0.2488 0.0
H1555 H 0.10275 0.48664 0.42116 0.0
H1556 H 0.10489 0.49669 0.35691 0.0
H1557 H 0.11642 0.57433 0.33233 0.0
H1558 H 0.09854 0.5845 0.14927 0.0
H1559 H 0.09772 0.57389 0.21268 0.0
loop_
_geom_bond_atom_site_label_1
_geom_bond_atom_site_label_2
_geom_bond_distance
_geom_bond_site_symmetry_2
_ccdc_geom_bond_type
Tb0 C10 2.825 . S
Tb0 O11 2.347 . S
Tb0 O14 2.366 . S
Tb0 O19 2.418 . S
Tb0 O20 2.384 . S
Tb0 O23 2.479 . S
Tb0 O24 2.471 . S
Eu1 O12 2.418 . S
Eu1 O13 2.384 . S
Eu1 O16 2.479 . S
Eu1 O17 2.471 . S
Eu1 O18 2.347 . S
Eu1 O21 2.366 . S
Eu1 C31 2.825 . S
C2 O18 1.259 . S
C2 O19 1.265 . S
C3 O20 1.255 . S
C3 O21 1.265 . S
C4 C6 1.380 . S
C4 C7 1.374 . S
C4 C10 1.507 . S
C5 C6 1.384 . S
C5 C9 1.387 . S
C5 H32 0.930 . S
C6 C4 1.380 . S
C6 C5 1.384 . S
C6 H33 0.931 . S
C7 C4 1.374 . S
C7 C8 1.390 . S
C7 H34 0.930 . S
C8 C7 1.390 . S
C8 C9 1.391 . S
C8 H35 0.930 . S
C9 C5 1.387 . S
C9 C8 1.391 . S
C10 Tb0 2.825 . S
C10 C4 1.507 . S
C10 O23 1.238 . S
C10 O24 1.247 . S
O11 Tb0 2.347 . S
O11 C15 1.259 . S
O12 Eu1 2.418 . S
O12 C15 1.265 . S
O13 Eu1 2.384 . S
O13 C22 1.255 . S
O14 Tb0 2.366 . S
O14 C22 1.265 . S
C15 O11 1.259 . S
C15 O12 1.265 . S
O16 Eu1 2.479 . S
O16 C31 1.238 . S
O17 Eu1 2.471 . S
O17 C31 1.247 . S
O18 Eu1 2.347 . S
O18 C2 1.259 . S
O19 Tb0 2.418 . S
O19 C2 1.265 . S
O20 Tb0 2.384 . S
O20 C3 1.255 . S
O21 Eu1 2.366 . S
O21 C3 1.265 . S
C22 O13 1.255 . S
C22 O14 1.265 . S
O23 Tb0 2.479 . S
O23 C10 1.238 . S
O24 Tb0 2.471 . S
O24 C10 1.247 . S
C25 C28 1.380 . S
C25 C29 1.374 . S
C25 C31 1.507 . S
C26 C27 1.387 . S
C26 C30 1.391 . S
C27 C26 1.387 . S
C27 C28 1.384 . S
C27 H36 0.930 . S
C28 C25 1.380 . S
C28 C27 1.384 . S
C28 H37 0.931 . S
C29 C25 1.374 . S
C29 C30 1.390 . S
C29 H38 0.930 . S
C30 C26 1.391 . S
C30 C29 1.390 . S
C30 H39 0.930 . S
C31 Eu1 2.825 . S
C31 O16 1.238 . S
C31 O17 1.247 . S
C31 C25 1.507 . S
H32 C5 0.930 . S
H33 C6 0.931 . S
H34 C7 0.930 . S
H35 C8 0.930 . S
H36 C27 0.930 . S
H37 C28 0.931 . S
H38 C29 0.930 . S
H39 C30 0.930 . S
Tb40 C50 2.825 . S
Tb40 O51 2.347 . S
Tb40 O54 2.366 . S
Tb40 O59 2.418 . S
Tb40 O60 2.384 . S
Tb40 O63 2.479 . S
Tb40 O64 2.471 . S
Eu41 O52 2.418 . S
Eu41 O53 2.384 . S
Eu41 O56 2.479 . S
Eu41 O57 2.471 . S
Eu41 O58 2.347 . S
Eu41 O61 2.366 . S
Eu41 C71 2.825 . S
C42 O58 1.259 . S
C42 O59 1.265 . S
C43 O60 1.255 . S
C43 O61 1.265 . S
C44 C46 1.380 . S
C44 C47 1.374 . S
C44 C50 1.507 . S
C45 C46 1.384 . S
C45 C49 1.387 . S
C45 H72 0.930 . S
C46 C44 1.380 . S
C46 C45 1.384 . S
C46 H73 0.931 . S
C47 C44 1.374 . S
C47 C48 1.390 . S
C47 H74 0.930 . S
C48 C47 1.390 . S
C48 C49 1.391 . S
C48 H75 0.930 . S
C49 C45 1.387 . S
C49 C48 1.391 . S
C50 Tb40 2.825 . S
C50 C44 1.507 . S
C50 O63 1.238 . S
C50 O64 1.247 . S
O51 Tb40 2.347 . S
O51 C55 1.259 . S
O52 Eu41 2.418 . S
O52 C55 1.265 . S
O53 Eu41 2.384 . S
O53 C62 1.255 . S
O54 Tb40 2.366 . S
O54 C62 1.265 . S
C55 O51 1.259 . S
C55 O52 1.265 . S
O56 Eu41 2.479 . S
O56 C71 1.238 . S
O57 Eu41 2.471 . S
O57 C71 1.247 . S
O58 Eu41 2.347 . S
O58 C42 1.259 . S
O59 Tb40 2.418 . S
O59 C42 1.265 . S
O60 Tb40 2.384 . S
O60 C43 1.255 . S
O61 Eu41 2.366 . S
O61 C43 1.265 . S
C62 O53 1.255 . S
C62 O54 1.265 . S
O63 Tb40 2.479 . S
O63 C50 1.238 . S
O64 Tb40 2.471 . S
O64 C50 1.247 . S
C65 C68 1.380 . S
C65 C69 1.374 . S
C65 C71 1.507 . S
C66 C67 1.387 . S
C66 C70 1.391 . S
C67 C66 1.387 . S
C67 C68 1.384 . S
C67 H76 0.930 . S
C68 C65 1.380 . S
C68 C67 1.384 . S
C68 H77 0.931 . S
C69 C65 1.374 . S
C69 C70 1.390 . S
C69 H78 0.930 . S
C70 C66 1.391 . S
C70 C69 1.390 . S
C70 H79 0.930 . S
C71 Eu41 2.825 . S
C71 O56 1.238 . S
C71 O57 1.247 . S
C71 C65 1.507 . S
H72 C45 0.930 . S
H73 C46 0.931 . S
H74 C47 0.930 . S
H75 C48 0.930 . S
H76 C67 0.930 . S
H77 C68 0.931 . S
H78 C69 0.930 . S
H79 C70 0.930 . S
Tb80 C90 2.825 . S
Tb80 O91 2.347 . S
Tb80 O94 2.366 . S
Tb80 O99 2.418 . S
Tb80 O100 2.384 . S
Tb80 O103 2.479 . S
Tb80 O104 2.471 . S
Eu81 O92 2.418 . S
Eu81 O93 2.384 . S
Eu81 O96 2.479 . S
Eu81 O97 2.471 . S
Eu81 O98 2.347 . S
Eu81 O101 2.366 . S
Eu81 C111 2.825 . S
C82 O98 1.259 . S
C82 O99 1.265 . S
C83 O100 1.255 . S
C83 O101 1.265 . S
C84 C86 1.380 . S
C84 C87 1.374 . S
C84 C90 1.507 1_554 S
C85 C86 1.384 . S
C85 C89 1.387 . S
C85 H112 0.930 . S
C86 C84 1.380 . S
C86 C85 1.384 . S
C86 H113 0.931 . S
C87 C84 1.374 . S
C87 C88 1.390 . S
C87 H114 0.930 . S
C88 C87 1.390 . S
C88 C89 1.391 . S
C88 H115 0.930 . S
C89 C85 1.387 . S
C89 C88 1.391 . S
C90 Tb80 2.825 . S
C90 C84 1.507 1_556 S
C90 O103 1.238 . S
C90 O104 1.247 . S
O91 Tb80 2.347 . S
O91 C95 1.259 . S
O92 Eu81 2.418 . S
O92 C95 1.265 . S
O93 Eu81 2.384 . S
O93 C102 1.255 . S
O94 Tb80 2.366 . S
O94 C102 1.265 . S
C95 O91 1.259 . S
C95 O92 1.265 . S
O96 Eu81 2.479 . S
O96 C111 1.238 . S
O97 Eu81 2.471 . S
O97 C111 1.247 . S
O98 Eu81 2.347 . S
O98 C82 1.259 . S
O99 Tb80 2.418 . S
O99 C82 1.265 . S
O100 Tb80 2.384 . S
O100 C83 1.255 . S
O101 Eu81 2.366 . S
O101 C83 1.265 . S
C102 O93 1.255 . S
C102 O94 1.265 . S
O103 Tb80 2.479 . S
O103 C90 1.238 . S
O104 Tb80 2.471 . S
O104 C90 1.247 . S
C105 C108 1.380 . S
C105 C109 1.374 . S
C105 C111 1.507 . S
C106 C107 1.387 . S
C106 C110 1.391 . S
C107 C106 1.387 . S
C107 C108 1.384 . S
C107 H116 0.930 . S
C108 C105 1.380 . S
C108 C107 1.384 . S
C108 H117 0.931 . S
C109 C105 1.374 . S
C109 C110 1.390 . S
C109 H118 0.930 . S
C110 C106 1.391 . S
C110 C109 1.390 . S
C110 H119 0.930 . S
C111 Eu81 2.825 . S
C111 O96 1.238 . S
C111 O97 1.247 . S
C111 C105 1.507 . S
H112 C85 0.930 . S
H113 C86 0.931 . S
H114 C87 0.930 . S
H115 C88 0.930 . S
H116 C107 0.930 . S
H117 C108 0.931 . S
H118 C109 0.930 . S
H119 C110 0.930 . S
Tb120 C130 2.825 . S
Tb120 O131 2.347 . S
Tb120 O134 2.366 . S
Tb120 O139 2.418 . S
Tb120 O140 2.384 . S
Tb120 O143 2.479 . S
Tb120 O144 2.471 . S
Eu121 O132 2.418 . S
Eu121 O133 2.384 . S
Eu121 O136 2.479 . S
Eu121 O137 2.471 . S
Eu121 O138 2.347 . S
Eu121 O141 2.366 . S
Eu121 C151 2.825 . S
C122 O138 1.259 . S
C122 O139 1.265 . S
C123 O140 1.255 . S
C123 O141 1.265 . S
C124 C126 1.380 . S
C124 C127 1.374 . S
C124 C130 1.507 . S
C125 C126 1.384 . S
C125 C129 1.387 . S
C125 H152 0.930 . S
C126 C124 1.380 . S
C126 C125 1.384 . S
C126 H153 0.931 . S
C127 C124 1.374 . S
C127 C128 1.390 . S
C127 H154 0.930 . S
C128 C127 1.390 . S
C128 C129 1.391 . S
C128 H155 0.930 . S
C129 C125 1.387 . S
C129 C128 1.391 . S
C130 Tb120 2.825 . S
C130 C124 1.507 . S
C130 O143 1.238 . S
C130 O144 1.247 . S
O131 Tb120 2.347 . S
O131 C135 1.259 . S
O132 Eu121 2.418 . S
O132 C135 1.265 . S
O133 Eu121 2.384 . S
O133 C142 1.255 . S
O134 Tb120 2.366 . S
O134 C142 1.265 . S
C135 O131 1.259 . S
C135 O132 1.265 . S
O136 Eu121 2.479 . S
O136 C151 1.238 . S
O137 Eu121 2.471 . S
O137 C151 1.247 . S
O138 Eu121 2.347 . S
O138 C122 1.259 . S
O139 Tb120 2.418 . S
O139 C122 1.265 . S
O140 Tb120 2.384 . S
O140 C123 1.255 . S
O141 Eu121 2.366 . S
O141 C123 1.265 . S
C142 O133 1.255 . S
C142 O134 1.265 . S
O143 Tb120 2.479 . S
O143 C130 1.238 . S
O144 Tb120 2.471 . S
O144 C130 1.247 . S
C145 C148 1.380 . S
C145 C149 1.374 . S
C145 C151 1.507 . S
C146 C147 1.387 . S
C146 C150 1.391 . S
C147 C146 1.387 . S
C147 C148 1.384 . S
C147 H156 0.930 . S
C148 C145 1.380 . S
C148 C147 1.384 . S
C148 H157 0.931 . S
C149 C145 1.374 . S
C149 C150 1.390 . S
C149 H158 0.930 . S
C150 C146 1.391 . S
C150 C149 1.390 . S
C150 H159 0.930 . S
C151 Eu121 2.825 . S
C151 O136 1.238 . S
C151 O137 1.247 . S
C151 C145 1.507 . S
H152 C125 0.930 . S
H153 C126 0.931 . S
H154 C127 0.930 . S
H155 C128 0.930 . S
H156 C147 0.930 . S
H157 C148 0.931 . S
H158 C149 0.930 . S
H159 C150 0.930 . S
Tb160 C170 2.825 . S
Tb160 O171 2.347 . S
Tb160 O174 2.366 . S
Tb160 O179 2.418 . S
Tb160 O180 2.384 . S
Tb160 O183 2.479 . S
Tb160 O184 2.471 . S
Eu161 O172 2.418 . S
Eu161 O173 2.384 . S
Eu161 O176 2.479 . S
Eu161 O177 2.471 . S
Eu161 O178 2.347 . S
Eu161 O181 2.366 . S
Eu161 C191 2.825 . S
C162 O178 1.259 . S
C162 O179 1.265 . S
C163 O180 1.255 . S
C163 O181 1.265 . S
C164 C166 1.380 . S
C164 C167 1.374 . S
C164 C170 1.507 . S
C165 C166 1.384 . S
C165 C169 1.387 . S
C165 H192 0.930 . S
C166 C164 1.380 . S
C166 C165 1.384 . S
C166 H193 0.931 . S
C167 C164 1.374 . S
C167 C168 1.390 . S
C167 H194 0.930 . S
C168 C167 1.390 . S
C168 C169 1.391 . S
C168 H195 0.930 . S
C169 C165 1.387 . S
C169 C168 1.391 . S
C170 Tb160 2.825 . S
C170 C164 1.507 . S
C170 O183 1.238 . S
C170 O184 1.247 . S
O171 Tb160 2.347 . S
O171 C175 1.259 . S
O172 Eu161 2.418 . S
O172 C175 1.265 . S
O173 Eu161 2.384 . S
O173 C182 1.255 . S
O174 Tb160 2.366 . S
O174 C182 1.265 . S
C175 O171 1.259 . S
C175 O172 1.265 . S
O176 Eu161 2.479 . S
O176 C191 1.238 . S
O177 Eu161 2.471 . S
O177 C191 1.247 . S
O178 Eu161 2.347 . S
O178 C162 1.259 . S
O179 Tb160 2.418 . S
O179 C162 1.265 . S
O180 Tb160 2.384 . S
O180 C163 1.255 . S
O181 Eu161 2.366 . S
O181 C163 1.265 . S
C182 O173 1.255 . S
C182 O174 1.265 . S
O183 Tb160 2.479 . S
O183 C170 1.238 . S
O184 Tb160 2.471 . S
O184 C170 1.247 . S
C185 C188 1.380 . S
C185 C189 1.374 . S
C185 C191 1.507 . S
C186 C187 1.387 . S
C186 C190 1.391 . S
C187 C186 1.387 . S
C187 C188 1.384 . S
C187 H196 0.930 . S
C188 C185 1.380 . S
C188 C187 1.384 . S
C188 H197 0.931 . S
C189 C185 1.374 . S
C189 C190 1.390 . S
C189 H198 0.930 . S
C190 C186 1.391 . S
C190 C189 1.390 . S
C190 H199 0.930 . S
C191 Eu161 2.825 . S
C191 O176 1.238 . S
C191 O177 1.247 . S
C191 C185 1.507 . S
H192 C165 0.930 . S
H193 C166 0.931 . S
H194 C167 0.930 . S
H195 C168 0.930 . S
H196 C187 0.930 . S
H197 C188 0.931 . S
H198 C189 0.930 . S
H199 C190 0.930 . S
Tb200 C210 2.825 . S
Tb200 O211 2.347 . S
Tb200 O214 2.366 . S
Tb200 O219 2.418 . S
Tb200 O220 2.384 . S
Tb200 O223 2.479 . S
Tb200 O224 2.471 . S
Eu201 O212 2.418 . S
Eu201 O213 2.384 . S
Eu201 O216 2.479 . S
Eu201 O217 2.471 . S
Eu201 O218 2.347 . S
Eu201 O221 2.366 . S
Eu201 C231 2.825 . S
C202 O218 1.259 . S
C202 O219 1.265 . S
C203 O220 1.255 . S
C203 O221 1.265 . S
C204 C206 1.380 . S
C204 C207 1.374 . S
C204 C210 1.507 1_554 S
C205 C206 1.384 . S
C205 C209 1.387 . S
C205 H232 0.930 . S
C206 C204 1.380 . S
C206 C205 1.384 . S
C206 H233 0.931 . S
C207 C204 1.374 . S
C207 C208 1.390 . S
C207 H234 0.930 . S
C208 C207 1.390 . S
C208 C209 1.391 . S
C208 H235 0.930 . S
C209 C205 1.387 . S
C209 C208 1.391 . S
C210 Tb200 2.825 . S
C210 C204 1.507 1_556 S
C210 O223 1.238 . S
C210 O224 1.247 . S
O211 Tb200 2.347 . S
O211 C215 1.259 . S
O212 Eu201 2.418 . S
O212 C215 1.265 . S
O213 Eu201 2.384 . S
O213 C222 1.255 . S
O214 Tb200 2.366 . S
O214 C222 1.265 . S
C215 O211 1.259 . S
C215 O212 1.265 . S
O216 Eu201 2.479 . S
O216 C231 1.238 . S
O217 Eu201 2.471 . S
O217 C231 1.247 . S
O218 Eu201 2.347 . S
O218 C202 1.259 . S
O219 Tb200 2.418 . S
O219 C202 1.265 . S
O220 Tb200 2.384 . S
O220 C203 1.255 . S
O221 Eu201 2.366 . S
O221 C203 1.265 . S
C222 O213 1.255 . S
C222 O214 1.265 . S
O223 Tb200 2.479 . S
O223 C210 1.238 . S
O224 Tb200 2.471 . S
O224 C210 1.247 . S
C225 C228 1.380 . S
C225 C229 1.374 . S
C225 C231 1.507 . S
C226 C227 1.387 . S
C226 C230 1.391 . S
C227 C226 1.387 . S
C227 C228 1.384 . S
C227 H236 0.930 . S
C228 C225 1.380 . S
C228 C227 1.384 . S
C228 H237 0.931 . S
C229 C225 1.374 . S
C229 C230 1.390 . S
C229 H238 0.930 . S
C230 C226 1.391 . S
C230 C229 1.390 . S
C230 H239 0.930 . S
C231 Eu201 2.825 . S
C231 O216 1.238 . S
C231 O217 1.247 . S
C231 C225 1.507 . S
H232 C205 0.930 . S
H233 C206 0.931 . S
H234 C207 0.930 . S
H235 C208 0.930 . S
H236 C227 0.930 . S
H237 C228 0.931 . S
H238 C229 0.930 . S
H239 C230 0.930 . S
Tb240 C250 2.825 . S
Tb240 O251 2.347 . S
Tb240 O254 2.366 . S
Tb240 O259 2.418 . S
Tb240 O260 2.384 . S
Tb240 O263 2.479 . S
Tb240 O264 2.471 . S
Eu241 O252 2.418 . S
Eu241 O253 2.384 . S
Eu241 O256 2.479 . S
Eu241 O257 2.471 . S
Eu241 O258 2.347 . S
Eu241 O261 2.366 . S
Eu241 C271 2.825 . S
C242 O258 1.259 . S
C242 O259 1.265 . S
C243 O260 1.255 . S
C243 O261 1.265 . S
C244 C246 1.380 . S
C244 C247 1.374 . S
C244 C250 1.507 . S
C245 C246 1.384 . S
C245 C249 1.387 . S
C245 H272 0.930 . S
C246 C244 1.380 . S
C246 C245 1.384 . S
C246 H273 0.931 . S
C247 C244 1.374 . S
C247 C248 1.390 . S
C247 H274 0.930 . S
C248 C247 1.390 . S
C248 C249 1.391 . S
C248 H275 0.930 . S
C249 C245 1.387 . S
C249 C248 1.391 . S
C250 Tb240 2.825 . S
C250 C244 1.507 . S
C250 O263 1.238 . S
C250 O264 1.247 . S
O251 Tb240 2.347 . S
O251 C255 1.259 . S
O252 Eu241 2.418 . S
O252 C255 1.265 . S
O253 Eu241 2.384 . S
O253 C262 1.255 . S
O254 Tb240 2.366 . S
O254 C262 1.265 . S
C255 O251 1.259 . S
C255 O252 1.265 . S
O256 Eu241 2.479 . S
O256 C271 1.238 . S
O257 Eu241 2.471 . S
O257 C271 1.247 . S
O258 Eu241 2.347 . S
O258 C242 1.259 . S
O259 Tb240 2.418 . S
O259 C242 1.265 . S
O260 Tb240 2.384 . S
O260 C243 1.255 . S
O261 Eu241 2.366 . S
O261 C243 1.265 . S
C262 O253 1.255 . S
C262 O254 1.265 . S
O263 Tb240 2.479 . S
O263 C250 1.238 . S
O264 Tb240 2.471 . S
O264 C250 1.247 . S
C265 C268 1.380 . S
C265 C269 1.374 . S
C265 C271 1.507 . S
C266 C267 1.387 . S
C266 C270 1.391 . S
C267 C266 1.387 . S
C267 C268 1.384 . S
C267 H276 0.930 . S
C268 C265 1.380 . S
C268 C267 1.384 . S
C268 H277 0.931 . S
C269 C265 1.374 . S
C269 C270 1.390 . S
C269 H278 0.930 . S
C270 C266 1.391 . S
C270 C269 1.390 . S
C270 H279 0.930 . S
C271 Eu241 2.825 . S
C271 O256 1.238 . S
C271 O257 1.247 . S
C271 C265 1.507 . S
H272 C245 0.930 . S
H273 C246 0.931 . S
H274 C247 0.930 . S
H275 C248 0.930 . S
H276 C267 0.930 . S
H277 C268 0.931 . S
H278 C269 0.930 . S
H279 C270 0.930 . S
Tb280 C290 2.825 . S
Tb280 O291 2.347 . S
Tb280 O294 2.366 . S
Tb280 O299 2.418 . S
Tb280 O300 2.384 . S
Tb280 O303 2.479 . S
Tb280 O304 2.471 . S
Eu281 O292 2.418 . S
Eu281 O293 2.384 . S
Eu281 O296 2.479 . S
Eu281 O297 2.471 . S
Eu281 O298 2.347 . S
Eu281 O301 2.366 . S
Eu281 C311 2.825 . S
C282 O298 1.259 . S
C282 O299 1.265 . S
C283 O300 1.255 . S
C283 O301 1.265 . S
C284 C286 1.380 . S
C284 C287 1.374 . S
C284 C290 1.507 . S
C285 C286 1.384 . S
C285 C289 1.387 . S
C285 H312 0.930 . S
C286 C284 1.380 . S
C286 C285 1.384 . S
C286 H313 0.931 . S
C287 C284 1.374 . S
C287 C288 1.390 . S
C287 H314 0.930 . S
C288 C287 1.390 . S
C288 C289 1.391 . S
C288 H315 0.930 . S
C289 C285 1.387 . S
C289 C288 1.391 . S
C290 Tb280 2.825 . S
C290 C284 1.507 . S
C290 O303 1.238 . S
C290 O304 1.247 . S
O291 Tb280 2.347 . S
O291 C295 1.259 . S
O292 Eu281 2.418 . S
O292 C295 1.265 . S
O293 Eu281 2.384 . S
O293 C302 1.255 . S
O294 Tb280 2.366 . S
O294 C302 1.265 . S
C295 O291 1.259 . S
C295 O292 1.265 . S
O296 Eu281 2.479 . S
O296 C311 1.238 . S
O297 Eu281 2.471 . S
O297 C311 1.247 . S
O298 Eu281 2.347 . S
O298 C282 1.259 . S
O299 Tb280 2.418 . S
O299 C282 1.265 . S
O300 Tb280 2.384 . S
O300 C283 1.255 . S
O301 Eu281 2.366 . S
O301 C283 1.265 . S
C302 O293 1.255 . S
C302 O294 1.265 . S
O303 Tb280 2.479 . S
O303 C290 1.238 . S
O304 Tb280 2.471 . S
O304 C290 1.247 . S
C305 C308 1.380 . S
C305 C309 1.374 . S
C305 C311 1.507 . S
C306 C307 1.387 . S
C306 C310 1.391 . S
C307 C306 1.387 . S
C307 C308 1.384 . S
C307 H316 0.930 . S
C308 C305 1.380 . S
C308 C307 1.384 . S
C308 H317 0.931 . S
C309 C305 1.374 . S
C309 C310 1.390 . S
C309 H318 0.930 . S
C310 C306 1.391 . S
C310 C309 1.390 . S
C310 H319 0.930 . S
C311 Eu281 2.825 . S
C311 O296 1.238 . S
C311 O297 1.247 . S
C311 C305 1.507 . S
H312 C285 0.930 . S
H313 C286 0.931 . S
H314 C287 0.930 . S
H315 C288 0.930 . S
H316 C307 0.930 . S
H317 C308 0.931 . S
H318 C309 0.930 . S
H319 C310 0.930 . S
Tb320 C330 2.825 . S
Tb320 O331 2.347 . S
Tb320 O334 2.366 . S
Tb320 O339 2.418 . S
Tb320 O340 2.384 . S
Tb320 O343 2.479 . S
Tb320 O344 2.471 . S
Eu321 O332 2.418 . S
Eu321 O333 2.384 . S
Eu321 O336 2.479 . S
Eu321 O337 2.471 . S
Eu321 O338 2.347 . S
Eu321 O341 2.366 . S
Eu321 C351 2.825 . S
C322 O338 1.259 . S
C322 O339 1.265 . S
C323 O340 1.255 . S
C323 O341 1.265 . S
C324 C326 1.380 . S
C324 C327 1.374 . S
C324 C330 1.507 1_556 S
C325 C326 1.384 . S
C325 C329 1.387 . S
C325 H352 0.930 . S
C326 C324 1.380 . S
C326 C325 1.384 . S
C326 H353 0.931 . S
C327 C324 1.374 . S
C327 C328 1.390 . S
C327 H354 0.930 . S
C328 C327 1.390 . S
C328 C329 1.391 . S
C328 H355 0.930 . S
C329 C325 1.387 . S
C329 C328 1.391 . S
C330 Tb320 2.825 . S
C330 C324 1.507 1_554 S
C330 O343 1.238 . S
C330 O344 1.247 . S
O331 Tb320 2.347 . S
O331 C335 1.259 . S
O332 Eu321 2.418 . S
O332 C335 1.265 . S
O333 Eu321 2.384 . S
O333 C342 1.255 . S
O334 Tb320 2.366 . S
O334 C342 1.265 . S
C335 O331 1.259 . S
C335 O332 1.265 . S
O336 Eu321 2.479 . S
O336 C351 1.238 . S
O337 Eu321 2.471 . S
O337 C351 1.247 . S
O338 Eu321 2.347 . S
O338 C322 1.259 . S
O339 Tb320 2.418 . S
O339 C322 1.265 . S
O340 Tb320 2.384 . S
O340 C323 1.255 . S
O341 Eu321 2.366 . S
O341 C323 1.265 . S
C342 O333 1.255 . S
C342 O334 1.265 . S
O343 Tb320 2.479 . S
O343 C330 1.238 . S
O344 Tb320 2.471 . S
O344 C330 1.247 . S
C345 C348 1.380 . S
C345 C349 1.374 . S
C345 C351 1.507 . S
C346 C347 1.387 . S
C346 C350 1.391 . S
C347 C346 1.387 . S
C347 C348 1.384 . S
C347 H356 0.930 . S
C348 C345 1.380 . S
C348 C347 1.384 . S
C348 H357 0.931 . S
C349 C345 1.374 . S
C349 C350 1.390 . S
C349 H358 0.930 . S
C350 C346 1.391 . S
C350 C349 1.390 . S
C350 H359 0.930 . S
C351 Eu321 2.825 . S
C351 O336 1.238 . S
C351 O337 1.247 . S
C351 C345 1.507 . S
H352 C325 0.930 . S
H353 C326 0.931 . S
H354 C327 0.930 . S
H355 C328 0.930 . S
H356 C347 0.930 . S
H357 C348 0.931 . S
H358 C349 0.930 . S
H359 C350 0.930 . S
Tb360 C370 2.825 . S
Tb360 O371 2.347 . S
Tb360 O374 2.366 . S
Tb360 O379 2.418 . S
Tb360 O380 2.384 . S
Tb360 O383 2.479 . S
Tb360 O384 2.471 . S
Eu361 O372 2.418 . S
Eu361 O373 2.384 . S
Eu361 O376 2.479 . S
Eu361 O377 2.471 . S
Eu361 O378 2.347 . S
Eu361 O381 2.366 . S
Eu361 C391 2.825 . S
C362 O378 1.259 . S
C362 O379 1.265 . S
C363 O380 1.255 . S
C363 O381 1.265 . S
C364 C366 1.380 . S
C364 C367 1.374 . S
C364 C370 1.507 . S
C365 C366 1.384 . S
C365 C369 1.387 . S
C365 H392 0.930 . S
C366 C364 1.380 . S
C366 C365 1.384 . S
C366 H393 0.931 . S
C367 C364 1.374 . S
C367 C368 1.390 . S
C367 H394 0.930 . S
C368 C367 1.390 . S
C368 C369 1.391 . S
C368 H395 0.930 . S
C369 C365 1.387 . S
C369 C368 1.391 . S
C370 Tb360 2.825 . S
C370 C364 1.507 . S
C370 O383 1.238 . S
C370 O384 1.247 . S
O371 Tb360 2.347 . S
O371 C375 1.259 . S
O372 Eu361 2.418 . S
O372 C375 1.265 . S
O373 Eu361 2.384 . S
O373 C382 1.255 . S
O374 Tb360 2.366 . S
O374 C382 1.265 . S
C375 O371 1.259 . S
C375 O372 1.265 . S
O376 Eu361 2.479 . S
O376 C391 1.238 . S
O377 Eu361 2.471 . S
O377 C391 1.247 . S
O378 Eu361 2.347 . S
O378 C362 1.259 . S
O379 Tb360 2.418 . S
O379 C362 1.265 . S
O380 Tb360 2.384 . S
O380 C363 1.255 . S
O381 Eu361 2.366 . S
O381 C363 1.265 . S
C382 O373 1.255 . S
C382 O374 1.265 . S
O383 Tb360 2.479 . S
O383 C370 1.238 . S
O384 Tb360 2.471 . S
O384 C370 1.247 . S
C385 C388 1.380 . S
C385 C389 1.374 . S
C385 C391 1.507 . S
C386 C387 1.387 . S
C386 C390 1.391 . S
C387 C386 1.387 . S
C387 C388 1.384 . S
C387 H396 0.930 . S
C388 C385 1.380 . S
C388 C387 1.384 . S
C388 H397 0.931 . S
C389 C385 1.374 . S
C389 C390 1.390 . S
C389 H398 0.930 . S
C390 C386 1.391 . S
C390 C389 1.390 . S
C390 H399 0.930 . S
C391 Eu361 2.825 . S
C391 O376 1.238 . S
C391 O377 1.247 . S
C391 C385 1.507 . S
H392 C365 0.930 . S
H393 C366 0.931 . S
H394 C367 0.930 . S
H395 C368 0.930 . S
H396 C387 0.930 . S
H397 C388 0.931 . S
H398 C389 0.930 . S
H399 C390 0.930 . S
Tb400 C410 2.825 . S
Tb400 O411 2.347 . S
Tb400 O414 2.366 . S
Tb400 O419 2.418 . S
Tb400 O420 2.384 . S
Tb400 O423 2.479 . S
Tb400 O424 2.471 . S
Eu401 O412 2.418 . S
Eu401 O413 2.384 . S
Eu401 O416 2.479 . S
Eu401 O417 2.471 . S
Eu401 O418 2.347 . S
Eu401 O421 2.366 . S
Eu401 C431 2.825 . S
C402 O418 1.259 . S
C402 O419 1.265 . S
C403 O420 1.255 . S
C403 O421 1.265 . S
C404 C406 1.380 . S
C404 C407 1.374 . S
C404 C410 1.507 . S
C405 C406 1.384 . S
C405 C409 1.387 . S
C405 H432 0.930 . S
C406 C404 1.380 . S
C406 C405 1.384 . S
C406 H433 0.931 . S
C407 C404 1.374 . S
C407 C408 1.390 . S
C407 H434 0.930 . S
C408 C407 1.390 . S
C408 C409 1.391 . S
C408 H435 0.930 . S
C409 C405 1.387 . S
C409 C408 1.391 . S
C410 Tb400 2.825 . S
C410 C404 1.507 . S
C410 O423 1.238 . S
C410 O424 1.247 . S
O411 Tb400 2.347 . S
O411 C415 1.259 . S
O412 Eu401 2.418 . S
O412 C415 1.265 . S
O413 Eu401 2.384 . S
O413 C422 1.255 . S
O414 Tb400 2.366 . S
O414 C422 1.265 . S
C415 O411 1.259 . S
C415 O412 1.265 . S
O416 Eu401 2.479 . S
O416 C431 1.238 . S
O417 Eu401 2.471 . S
O417 C431 1.247 . S
O418 Eu401 2.347 . S
O418 C402 1.259 . S
O419 Tb400 2.418 . S
O419 C402 1.265 . S
O420 Tb400 2.384 . S
O420 C403 1.255 . S
O421 Eu401 2.366 . S
O421 C403 1.265 . S
C422 O413 1.255 . S
C422 O414 1.265 . S
O423 Tb400 2.479 . S
O423 C410 1.238 . S
O424 Tb400 2.471 . S
O424 C410 1.247 . S
C425 C428 1.380 . S
C425 C429 1.374 . S
C425 C431 1.507 . S
C426 C427 1.387 . S
C426 C430 1.391 . S
C427 C426 1.387 . S
C427 C428 1.384 . S
C427 H436 0.930 . S
C428 C425 1.380 . S
C428 C427 1.384 . S
C428 H437 0.931 . S
C429 C425 1.374 . S
C429 C430 1.390 . S
C429 H438 0.930 . S
C430 C426 1.391 . S
C430 C429 1.390 . S
C430 H439 0.930 . S
C431 Eu401 2.825 . S
C431 O416 1.238 . S
C431 O417 1.247 . S
C431 C425 1.507 . S
H432 C405 0.930 . S
H433 C406 0.931 . S
H434 C407 0.930 . S
H435 C408 0.930 . S
H436 C427 0.930 . S
H437 C428 0.931 . S
H438 C429 0.930 . S
H439 C430 0.930 . S
Tb440 C450 2.825 . S
Tb440 O451 2.347 . S
Tb440 O454 2.366 . S
Tb440 O459 2.418 . S
Tb440 O460 2.384 . S
Tb440 O463 2.479 . S
Tb440 O464 2.471 . S
Eu441 O452 2.418 . S
Eu441 O453 2.384 . S
Eu441 O456 2.479 . S
Eu441 O457 2.471 . S
Eu441 O458 2.347 . S
Eu441 O461 2.366 . S
Eu441 C471 2.825 . S
C442 O458 1.259 . S
C442 O459 1.265 . S
C443 O460 1.255 . S
C443 O461 1.265 . S
C444 C446 1.380 . S
C444 C447 1.374 . S
C444 C450 1.507 1_556 S
C445 C446 1.384 . S
C445 C449 1.387 . S
C445 H472 0.930 . S
C446 C444 1.380 . S
C446 C445 1.384 . S
C446 H473 0.931 . S
C447 C444 1.374 . S
C447 C448 1.390 . S
C447 H474 0.930 . S
C448 C447 1.390 . S
C448 C449 1.391 . S
C448 H475 0.930 . S
C449 C445 1.387 . S
C449 C448 1.391 . S
C450 Tb440 2.825 . S
C450 C444 1.507 1_554 S
C450 O463 1.238 . S
C450 O464 1.247 . S
O451 Tb440 2.347 . S
O451 C455 1.259 . S
O452 Eu441 2.418 . S
O452 C455 1.265 . S
O453 Eu441 2.384 . S
O453 C462 1.255 . S
O454 Tb440 2.366 . S
O454 C462 1.265 . S
C455 O451 1.259 . S
C455 O452 1.265 . S
O456 Eu441 2.479 . S
O456 C471 1.238 . S
O457 Eu441 2.471 . S
O457 C471 1.247 . S
O458 Eu441 2.347 . S
O458 C442 1.259 . S
O459 Tb440 2.418 . S
O459 C442 1.265 . S
O460 Tb440 2.384 . S
O460 C443 1.255 . S
O461 Eu441 2.366 . S
O461 C443 1.265 . S
C462 O453 1.255 . S
C462 O454 1.265 . S
O463 Tb440 2.479 . S
O463 C450 1.238 . S
O464 Tb440 2.471 . S
O464 C450 1.247 . S
C465 C468 1.380 . S
C465 C469 1.374 . S
C465 C471 1.507 . S
C466 C467 1.387 . S
C466 C470 1.391 . S
C467 C466 1.387 . S
C467 C468 1.384 . S
C467 H476 0.930 . S
C468 C465 1.380 . S
C468 C467 1.384 . S
C468 H477 0.931 . S
C469 C465 1.374 . S
C469 C470 1.390 . S
C469 H478 0.930 . S
C470 C466 1.391 . S
C470 C469 1.390 . S
C470 H479 0.930 . S
C471 Eu441 2.825 . S
C471 O456 1.238 . S
C471 O457 1.247 . S
C471 C465 1.507 . S
H472 C445 0.930 . S
H473 C446 0.931 . S
H474 C447 0.930 . S
H475 C448 0.930 . S
H476 C467 0.930 . S
H477 C468 0.931 . S
H478 C469 0.930 . S
H479 C470 0.930 . S
C480 C481 1.349 . S
C480 C482 1.327 . S
C480 H505 0.950 . S
C481 C480 1.349 . S
C481 C497 1.349 . S
C482 C480 1.327 . S
C482 C501 1.429 . S
C482 H506 0.950 . S
C483 C500 1.574 . S
C483 C502 1.368 . S
C483 H507 0.949 . S
H484 C488 0.949 . S
C485 C486 1.349 . S
C485 C487 1.327 . S
C485 H508 0.950 . S
C486 C485 1.349 . S
C486 C498 1.349 . S
C487 C485 1.327 . S
C487 C503 1.429 . S
C487 H509 0.950 . S
C488 H484 0.949 . S
C488 C496 1.574 . S
C488 C504 1.368 . S
H489 C497 0.950 . S
H490 C495 0.950 . S
H491 C496 0.949 . S
H492 C498 0.950 . S
H493 C499 0.950 . S
H494 C500 0.949 . S
C495 H490 0.950 . S
C495 C497 1.327 . S
C495 C501 1.429 . S
C496 C488 1.574 . S
C496 H491 0.949 . S
C496 C502 1.368 . S
C497 C481 1.349 . S
C497 H489 0.950 . S
C497 C495 1.327 . S
C498 C486 1.349 . S
C498 H492 0.950 . S
C498 C499 1.327 . S
C499 H493 0.950 . S
C499 C498 1.327 . S
C499 C503 1.429 . S
C500 C483 1.574 . S
C500 H494 0.949 . S
C500 C504 1.368 . S
C501 C482 1.429 . S
C501 C495 1.429 . S
C501 C502 1.523 . S
C502 C483 1.368 . S
C502 C496 1.368 . S
C502 C501 1.523 . S
C503 C487 1.429 . S
C503 C499 1.429 . S
C503 C504 1.523 . S
C504 C488 1.368 . S
C504 C500 1.368 . S
C504 C503 1.523 . S
H505 C480 0.950 . S
H506 C482 0.950 . S
H507 C483 0.949 . S
H508 C485 0.950 . S
H509 C487 0.950 . S
C510 C511 1.349 . S
C510 C512 1.327 . S
C510 H535 0.950 . S
C511 C510 1.349 . S
C511 C527 1.349 . S
C512 C510 1.327 . S
C512 C531 1.429 . S
C512 H536 0.950 . S
C513 C530 1.574 . S
C513 C532 1.368 . S
C513 H537 0.949 . S
H514 C518 0.949 . S
C515 C516 1.349 . S
C515 C517 1.327 . S
C515 H538 0.950 . S
C516 C515 1.349 . S
C516 C528 1.349 . S
C517 C515 1.327 . S
C517 C533 1.429 . S
C517 H539 0.950 . S
C518 H514 0.949 . S
C518 C526 1.574 . S
C518 C534 1.368 . S
H519 C527 0.950 . S
H520 C525 0.950 . S
H521 C526 0.949 . S
H522 C528 0.950 . S
H523 C529 0.950 . S
H524 C530 0.949 . S
C525 H520 0.950 . S
C525 C527 1.327 . S
C525 C531 1.429 . S
C526 C518 1.574 . S
C526 H521 0.949 . S
C526 C532 1.368 . S
C527 C511 1.349 . S
C527 H519 0.950 . S
C527 C525 1.327 . S
C528 C516 1.349 . S
C528 H522 0.950 . S
C528 C529 1.327 . S
C529 H523 0.950 . S
C529 C528 1.327 . S
C529 C533 1.429 . S
C530 C513 1.574 . S
C530 H524 0.949 . S
C530 C534 1.368 . S
C531 C512 1.429 . S
C531 C525 1.429 . S
C531 C532 1.523 . S
C532 C513 1.368 . S
C532 C526 1.368 . S
C532 C531 1.523 . S
C533 C517 1.429 . S
C533 C529 1.429 . S
C533 C534 1.523 . S
C534 C518 1.368 . S
C534 C530 1.368 . S
C534 C533 1.523 . S
H535 C510 0.950 . S
H536 C512 0.950 . S
H537 C513 0.949 . S
H538 C515 0.950 . S
H539 C517 0.950 . S
C540 C541 1.349 . S
C540 C542 1.327 . S
C540 H565 0.950 . S
C541 C540 1.349 . S
C541 C557 1.349 . S
C542 C540 1.327 . S
C542 C561 1.429 . S
C542 H566 0.950 . S
C543 C560 1.574 . S
C543 C562 1.368 . S
C543 H567 0.949 . S
H544 C548 0.949 . S
C545 C546 1.349 . S
C545 C547 1.327 . S
C545 H568 0.950 . S
C546 C545 1.349 . S
C546 C558 1.349 . S
C547 C545 1.327 . S
C547 C563 1.429 . S
C547 H569 0.950 . S
C548 H544 0.949 . S
C548 C556 1.574 . S
C548 C564 1.368 . S
H549 C557 0.950 . S
H550 C555 0.950 . S
H551 C556 0.949 . S
H552 C558 0.950 . S
H553 C559 0.950 . S
H554 C560 0.949 . S
C555 H550 0.950 . S
C555 C557 1.327 . S
C555 C561 1.429 . S
C556 C548 1.574 . S
C556 H551 0.949 . S
C556 C562 1.368 . S
C557 C541 1.349 . S
C557 H549 0.950 . S
C557 C555 1.327 . S
C558 C546 1.349 . S
C558 H552 0.950 . S
C558 C559 1.327 . S
C559 H553 0.950 . S
C559 C558 1.327 . S
C559 C563 1.429 . S
C560 C543 1.574 . S
C560 H554 0.949 . S
C560 C564 1.368 . S
C561 C542 1.429 . S
C561 C555 1.429 . S
C561 C562 1.523 . S
C562 C543 1.368 . S
C562 C556 1.368 . S
C562 C561 1.523 . S
C563 C547 1.429 . S
C563 C559 1.429 . S
C563 C564 1.523 . S
C564 C548 1.368 . S
C564 C560 1.368 . S
C564 C563 1.523 . S
H565 C540 0.950 . S
H566 C542 0.950 . S
H567 C543 0.949 . S
H568 C545 0.950 . S
H569 C547 0.950 . S
C570 C571 1.349 . S
C570 C572 1.327 . S
C570 H595 0.950 . S
C571 C570 1.349 . S
C571 C587 1.349 . S
C572 C570 1.327 . S
C572 C591 1.429 . S
C572 H596 0.950 . S
C573 C590 1.574 . S
C573 C592 1.368 . S
C573 H597 0.949 . S
H574 C578 0.949 . S
C575 C576 1.349 . S
C575 C577 1.327 . S
C575 H598 0.950 . S
C576 C575 1.349 . S
C576 C588 1.349 . S
C577 C575 1.327 . S
C577 C593 1.429 . S
C577 H599 0.950 . S
C578 H574 0.949 . S
C578 C586 1.574 . S
C578 C594 1.368 . S
H579 C587 0.950 . S
H580 C585 0.950 . S
H581 C586 0.949 . S
H582 C588 0.950 . S
H583 C589 0.950 . S
H584 C590 0.949 . S
C585 H580 0.950 . S
C585 C587 1.327 . S
C585 C591 1.429 . S
C586 C578 1.574 . S
C586 H581 0.949 . S
C586 C592 1.368 . S
C587 C571 1.349 . S
C587 H579 0.950 . S
C587 C585 1.327 . S
C588 C576 1.349 . S
C588 H582 0.950 . S
C588 C589 1.327 . S
C589 H583 0.950 . S
C589 C588 1.327 . S
C589 C593 1.429 . S
C590 C573 1.574 . S
C590 H584 0.949 . S
C590 C594 1.368 . S
C591 C572 1.429 . S
C591 C585 1.429 . S
C591 C592 1.523 . S
C592 C573 1.368 . S
C592 C586 1.368 . S
C592 C591 1.523 . S
C593 C577 1.429 . S
C593 C589 1.429 . S
C593 C594 1.523 . S
C594 C578 1.368 . S
C594 C590 1.368 . S
C594 C593 1.523 . S
H595 C570 0.950 . S
H596 C572 0.950 . S
H597 C573 0.949 . S
H598 C575 0.950 . S
H599 C577 0.950 . S
C600 C601 1.349 . S
C600 C602 1.327 . S
C600 H625 0.950 . S
C601 C600 1.349 . S
C601 C617 1.349 . S
C602 C600 1.327 . S
C602 C621 1.429 . S
C602 H626 0.950 . S
C603 C620 1.574 . S
C603 C622 1.368 . S
C603 H627 0.949 . S
H604 C608 0.949 . S
C605 C606 1.349 . S
C605 C607 1.327 . S
C605 H628 0.950 . S
C606 C605 1.349 . S
C606 C618 1.349 . S
C607 C605 1.327 . S
C607 C623 1.429 . S
C607 H629 0.950 . S
C608 H604 0.949 . S
C608 C616 1.574 . S
C608 C624 1.368 . S
H609 C617 0.950 . S
H610 C615 0.950 . S
H611 C616 0.949 . S
H612 C618 0.950 . S
H613 C619 0.950 . S
H614 C620 0.949 . S
C615 H610 0.950 . S
C615 C617 1.327 . S
C615 C621 1.429 . S
C616 C608 1.574 . S
C616 H611 0.949 . S
C616 C622 1.368 . S
C617 C601 1.349 . S
C617 H609 0.950 . S
C617 C615 1.327 . S
C618 C606 1.349 . S
C618 H612 0.950 . S
C618 C619 1.327 . S
C619 H613 0.950 . S
C619 C618 1.327 . S
C619 C623 1.429 . S
C620 C603 1.574 . S
C620 H614 0.949 . S
C620 C624 1.368 . S
C621 C602 1.429 . S
C621 C615 1.429 . S
C621 C622 1.523 . S
C622 C603 1.368 . S
C622 C616 1.368 . S
C622 C621 1.523 . S
C623 C607 1.429 . S
C623 C619 1.429 . S
C623 C624 1.523 . S
C624 C608 1.368 . S
C624 C620 1.368 . S
C624 C623 1.523 . S
H625 C600 0.950 . S
H626 C602 0.950 . S
H627 C603 0.949 . S
H628 C605 0.950 . S
H629 C607 0.950 . S
C630 C631 1.349 . S
C630 C632 1.327 . S
C630 H655 0.950 . S
C631 C630 1.349 . S
C631 C647 1.349 . S
C632 C630 1.327 . S
C632 C651 1.429 . S
C632 H656 0.950 . S
C633 C650 1.574 . S
C633 C652 1.368 . S
C633 H657 0.949 . S
H634 C638 0.949 . S
C635 C636 1.349 . S
C635 C637 1.327 . S
C635 H658 0.950 . S
C636 C635 1.349 . S
C636 C648 1.349 . S
C637 C635 1.327 . S
C637 C653 1.429 . S
C637 H659 0.950 . S
C638 H634 0.949 . S
C638 C646 1.574 . S
C638 C654 1.368 . S
H639 C647 0.950 . S
H640 C645 0.950 . S
H641 C646 0.949 . S
H642 C648 0.950 . S
H643 C649 0.950 . S
H644 C650 0.949 . S
C645 H640 0.950 . S
C645 C647 1.327 . S
C645 C651 1.429 . S
C646 C638 1.574 . S
C646 H641 0.949 . S
C646 C652 1.368 . S
C647 C631 1.349 . S
C647 H639 0.950 . S
C647 C645 1.327 . S
C648 C636 1.349 . S
C648 H642 0.950 . S
C648 C649 1.327 . S
C649 H643 0.950 . S
C649 C648 1.327 . S
C649 C653 1.429 . S
C650 C633 1.574 . S
C650 H644 0.949 . S
C650 C654 1.368 . S
C651 C632 1.429 . S
C651 C645 1.429 . S
C651 C652 1.523 . S
C652 C633 1.368 . S
C652 C646 1.368 . S
C652 C651 1.523 . S
C653 C637 1.429 . S
C653 C649 1.429 . S
C653 C654 1.523 . S
C654 C638 1.368 . S
C654 C650 1.368 . S
C654 C653 1.523 . S
H655 C630 0.950 . S
H656 C632 0.950 . S
H657 C633 0.949 . S
H658 C635 0.950 . S
H659 C637 0.950 . S
C660 C661 1.349 . S
C660 C662 1.327 . S
C660 H685 0.950 . S
C661 C660 1.349 . S
C661 C677 1.349 . S
C662 C660 1.327 . S
C662 C681 1.429 . S
C662 H686 0.950 . S
C663 C680 1.574 1_556 S
C663 C682 1.368 . S
C663 H687 0.949 . S
H664 C668 0.949 . S
C665 C666 1.349 . S
C665 C667 1.327 . S
C665 H688 0.950 . S
C666 C665 1.349 . S
C666 C678 1.349 . S
C667 C665 1.327 . S
C667 C683 1.429 . S
C667 H689 0.950 . S
C668 H664 0.949 . S
C668 C676 1.574 1_554 S
C668 C684 1.368 . S
H669 C677 0.950 . S
H670 C675 0.950 . S
H671 C676 0.949 . S
H672 C678 0.950 . S
H673 C679 0.950 . S
H674 C680 0.949 . S
C675 H670 0.950 . S
C675 C677 1.327 . S
C675 C681 1.429 . S
C676 C668 1.574 1_556 S
C676 H671 0.949 . S
C676 C682 1.368 . S
C677 C661 1.349 . S
C677 H669 0.950 . S
C677 C675 1.327 . S
C678 C666 1.349 . S
C678 H672 0.950 . S
C678 C679 1.327 . S
C679 H673 0.950 . S
C679 C678 1.327 . S
C679 C683 1.429 . S
C680 C663 1.574 1_554 S
C680 H674 0.949 . S
C680 C684 1.368 . S
C681 C662 1.429 . S
C681 C675 1.429 . S
C681 C682 1.523 . S
C682 C663 1.368 . S
C682 C676 1.368 . S
C682 C681 1.523 . S
C683 C667 1.429 . S
C683 C679 1.429 . S
C683 C684 1.523 . S
C684 C668 1.368 . S
C684 C680 1.368 . S
C684 C683 1.523 . S
H685 C660 0.950 . S
H686 C662 0.950 . S
H687 C663 0.949 . S
H688 C665 0.950 . S
H689 C667 0.950 . S
C690 C691 1.349 . S
C690 C692 1.327 . S
C690 H715 0.950 . S
C691 C690 1.349 . S
C691 C707 1.349 . S
C692 C690 1.327 . S
C692 C711 1.429 . S
C692 H716 0.950 . S
C693 C710 1.574 . S
C693 C712 1.368 . S
C693 H717 0.949 . S
H694 C698 0.949 . S
C695 C696 1.349 . S
C695 C697 1.327 . S
C695 H718 0.950 . S
C696 C695 1.349 . S
C696 C708 1.349 . S
C697 C695 1.327 . S
C697 C713 1.429 . S
C697 H719 0.950 . S
C698 H694 0.949 . S
C698 C706 1.574 . S
C698 C714 1.368 . S
H699 C707 0.950 . S
H700 C705 0.950 . S
H701 C706 0.949 . S
H702 C708 0.950 . S
H703 C709 0.950 . S
H704 C710 0.949 . S
C705 H700 0.950 . S
C705 C707 1.327 . S
C705 C711 1.429 . S
C706 C698 1.574 . S
C706 H701 0.949 . S
C706 C712 1.368 . S
C707 C691 1.349 . S
C707 H699 0.950 . S
C707 C705 1.327 . S
C708 C696 1.349 . S
C708 H702 0.950 . S
C708 C709 1.327 . S
C709 H703 0.950 . S
C709 C708 1.327 . S
C709 C713 1.429 . S
C710 C693 1.574 . S
C710 H704 0.949 . S
C710 C714 1.368 . S
C711 C692 1.429 . S
C711 C705 1.429 . S
C711 C712 1.523 . S
C712 C693 1.368 . S
C712 C706 1.368 . S
C712 C711 1.523 . S
C713 C697 1.429 . S
C713 C709 1.429 . S
C713 C714 1.523 . S
C714 C698 1.368 . S
C714 C710 1.368 . S
C714 C713 1.523 . S
H715 C690 0.950 . S
H716 C692 0.950 . S
H717 C693 0.949 . S
H718 C695 0.950 . S
H719 C697 0.950 . S
C720 C721 1.349 . S
C720 C722 1.327 . S
C720 H745 0.950 . S
C721 C720 1.349 . S
C721 C737 1.349 . S
C722 C720 1.327 . S
C722 C741 1.429 . S
C722 H746 0.950 . S
C723 C740 1.574 . S
C723 C742 1.368 . S
C723 H747 0.949 . S
H724 C728 0.949 . S
C725 C726 1.349 . S
C725 C727 1.327 . S
C725 H748 0.950 . S
C726 C725 1.349 . S
C726 C738 1.349 . S
C727 C725 1.327 . S
C727 C743 1.429 . S
C727 H749 0.950 . S
C728 H724 0.949 . S
C728 C736 1.574 . S
C728 C744 1.368 . S
H729 C737 0.950 . S
H730 C735 0.950 . S
H731 C736 0.949 . S
H732 C738 0.950 . S
H733 C739 0.950 . S
H734 C740 0.949 . S
C735 H730 0.950 . S
C735 C737 1.327 . S
C735 C741 1.429 . S
C736 C728 1.574 . S
C736 H731 0.949 . S
C736 C742 1.368 . S
C737 C721 1.349 . S
C737 H729 0.950 . S
C737 C735 1.327 . S
C738 C726 1.349 . S
C738 H732 0.950 . S
C738 C739 1.327 . S
C739 H733 0.950 . S
C739 C738 1.327 . S
C739 C743 1.429 . S
C740 C723 1.574 . S
C740 H734 0.949 . S
C740 C744 1.368 . S
C741 C722 1.429 . S
C741 C735 1.429 . S
C741 C742 1.523 . S
C742 C723 1.368 . S
C742 C736 1.368 . S
C742 C741 1.523 . S
C743 C727 1.429 . S
C743 C739 1.429 . S
C743 C744 1.523 . S
C744 C728 1.368 . S
C744 C740 1.368 . S
C744 C743 1.523 . S
H745 C720 0.950 . S
H746 C722 0.950 . S
H747 C723 0.949 . S
H748 C725 0.950 . S
H749 C727 0.950 . S
C750 C751 1.349 . S
C750 C752 1.327 . S
C750 H775 0.950 . S
C751 C750 1.349 . S
C751 C767 1.349 . S
C752 C750 1.327 . S
C752 C771 1.429 . S
C752 H776 0.950 . S
C753 C770 1.574 1_556 S
C753 C772 1.368 . S
C753 H777 0.949 . S
H754 C758 0.949 . S
C755 C756 1.349 . S
C755 C757 1.327 . S
C755 H778 0.950 . S
C756 C755 1.349 . S
C756 C768 1.349 . S
C757 C755 1.327 . S
C757 C773 1.429 . S
C757 H779 0.950 . S
C758 H754 0.949 . S
C758 C766 1.574 1_554 S
C758 C774 1.368 . S
H759 C767 0.950 . S
H760 C765 0.950 . S
H761 C766 0.949 . S
H762 C768 0.950 . S
H763 C769 0.950 . S
H764 C770 0.949 . S
C765 H760 0.950 . S
C765 C767 1.327 . S
C765 C771 1.429 . S
C766 C758 1.574 1_556 S
C766 H761 0.949 . S
C766 C772 1.368 . S
C767 C751 1.349 . S
C767 H759 0.950 . S
C767 C765 1.327 . S
C768 C756 1.349 . S
C768 H762 0.950 . S
C768 C769 1.327 . S
C769 H763 0.950 . S
C769 C768 1.327 . S
C769 C773 1.429 . S
C770 C753 1.574 1_554 S
C770 H764 0.949 . S
C770 C774 1.368 . S
C771 C752 1.429 . S
C771 C765 1.429 . S
C771 C772 1.523 . S
C772 C753 1.368 . S
C772 C766 1.368 . S
C772 C771 1.523 . S
C773 C757 1.429 . S
C773 C769 1.429 . S
C773 C774 1.523 . S
C774 C758 1.368 . S
C774 C770 1.368 . S
C774 C773 1.523 . S
H775 C750 0.950 . S
H776 C752 0.950 . S
H777 C753 0.949 . S
H778 C755 0.950 . S
H779 C757 0.950 . S
C780 C781 1.349 . S
C780 C782 1.327 . S
C780 H805 0.950 . S
C781 C780 1.349 . S
C781 C797 1.349 . S
C782 C780 1.327 . S
C782 C801 1.429 . S
C782 H806 0.950 . S
C783 C800 1.574 . S
C783 C802 1.368 . S
C783 H807 0.949 . S
H784 C788 0.949 . S
C785 C786 1.349 . S
C785 C787 1.327 . S
C785 H808 0.950 . S
C786 C785 1.349 . S
C786 C798 1.349 . S
C787 C785 1.327 . S
C787 C803 1.429 . S
C787 H809 0.950 . S
C788 H784 0.949 . S
C788 C796 1.574 . S
C788 C804 1.368 . S
H789 C797 0.950 . S
H790 C795 0.950 . S
H791 C796 0.949 . S
H792 C798 0.950 . S
H793 C799 0.950 . S
H794 C800 0.949 . S
C795 H790 0.950 . S
C795 C797 1.327 . S
C795 C801 1.429 . S
C796 C788 1.574 . S
C796 H791 0.949 . S
C796 C802 1.368 . S
C797 C781 1.349 . S
C797 H789 0.950 . S
C797 C795 1.327 . S
C798 C786 1.349 . S
C798 H792 0.950 . S
C798 C799 1.327 . S
C799 H793 0.950 . S
C799 C798 1.327 . S
C799 C803 1.429 . S
C800 C783 1.574 . S
C800 H794 0.949 . S
C800 C804 1.368 . S
C801 C782 1.429 . S
C801 C795 1.429 . S
C801 C802 1.523 . S
C802 C783 1.368 . S
C802 C796 1.368 . S
C802 C801 1.523 . S
C803 C787 1.429 . S
C803 C799 1.429 . S
C803 C804 1.523 . S
C804 C788 1.368 . S
C804 C800 1.368 . S
C804 C803 1.523 . S
H805 C780 0.950 . S
H806 C782 0.950 . S
H807 C783 0.949 . S
H808 C785 0.950 . S
H809 C787 0.950 . S
C810 C811 1.349 . S
C810 C812 1.327 . S
C810 H835 0.950 . S
C811 C810 1.349 . S
C811 C827 1.349 . S
C812 C810 1.327 . S
C812 C831 1.429 . S
C812 H836 0.950 . S
C813 C830 1.574 . S
C813 C832 1.368 . S
C813 H837 0.949 . S
H814 C818 0.949 . S
C815 C816 1.349 . S
C815 C817 1.327 . S
C815 H838 0.950 . S
C816 C815 1.349 . S
C816 C828 1.349 . S
C817 C815 1.327 . S
C817 C833 1.429 . S
C817 H839 0.950 . S
C818 H814 0.949 . S
C818 C826 1.574 . S
C818 C834 1.368 . S
H819 C827 0.950 . S
H820 C825 0.950 . S
H821 C826 0.949 . S
H822 C828 0.950 . S
H823 C829 0.950 . S
H824 C830 0.949 . S
C825 H820 0.950 . S
C825 C827 1.327 . S
C825 C831 1.429 . S
C826 C818 1.574 . S
C826 H821 0.949 . S
C826 C832 1.368 . S
C827 C811 1.349 . S
C827 H819 0.950 . S
C827 C825 1.327 . S
C828 C816 1.349 . S
C828 H822 0.950 . S
C828 C829 1.327 . S
C829 H823 0.950 . S
C829 C828 1.327 . S
C829 C833 1.429 . S
C830 C813 1.574 . S
C830 H824 0.949 . S
C830 C834 1.368 . S
C831 C812 1.429 . S
C831 C825 1.429 . S
C831 C832 1.523 . S
C832 C813 1.368 . S
C832 C826 1.368 . S
C832 C831 1.523 . S
C833 C817 1.429 . S
C833 C829 1.429 . S
C833 C834 1.523 . S
C834 C818 1.368 . S
C834 C830 1.368 . S
C834 C833 1.523 . S
H835 C810 0.950 . S
H836 C812 0.950 . S
H837 C813 0.949 . S
H838 C815 0.950 . S
H839 C817 0.950 . S
C840 C841 1.349 . S
C840 C842 1.327 . S
C840 H865 0.950 . S
C841 C840 1.349 . S
C841 C857 1.349 . S
C842 C840 1.327 . S
C842 C861 1.429 . S
C842 H866 0.950 . S
C843 C860 1.574 1_556 S
C843 C862 1.368 1_545 S
C843 H867 0.949 . S
H844 C848 0.949 . S
C845 C846 1.349 . S
C845 C847 1.327 . S
C845 H868 0.950 . S
C846 C845 1.349 . S
C846 C858 1.349 . S
C847 C845 1.327 . S
C847 C863 1.429 . S
C847 H869 0.950 . S
C848 H844 0.949 . S
C848 C856 1.574 1_554 S
C848 C864 1.368 1_565 S
H849 C857 0.950 . S
H850 C855 0.950 . S
H851 C856 0.949 . S
H852 C858 0.950 . S
H853 C859 0.950 . S
H854 C860 0.949 . S
C855 H850 0.950 . S
C855 C857 1.327 . S
C855 C861 1.429 . S
C856 C848 1.574 1_556 S
C856 H851 0.949 . S
C856 C862 1.368 . S
C857 C841 1.349 . S
C857 H849 0.950 . S
C857 C855 1.327 . S
C858 C846 1.349 . S
C858 H852 0.950 . S
C858 C859 1.327 . S
C859 H853 0.950 . S
C859 C858 1.327 . S
C859 C863 1.429 . S
C860 C843 1.574 1_554 S
C860 H854 0.949 . S
C860 C864 1.368 . S
C861 C842 1.429 . S
C861 C855 1.429 . S
C861 C862 1.523 . S
C862 C843 1.368 1_565 S
C862 C856 1.368 . S
C862 C861 1.523 . S
C863 C847 1.429 . S
C863 C859 1.429 . S
C863 C864 1.523 . S
C864 C848 1.368 1_545 S
C864 C860 1.368 . S
C864 C863 1.523 . S
H865 C840 0.950 . S
H866 C842 0.950 . S
H867 C843 0.949 . S
H868 C845 0.950 . S
H869 C847 0.950 . S
C870 C871 1.349 . S
C870 C872 1.327 . S
C870 H895 0.950 . S
C871 C870 1.349 . S
C871 C887 1.349 . S
C872 C870 1.327 . S
C872 C891 1.429 . S
C872 H896 0.950 . S
C873 C890 1.574 . S
C873 C892 1.368 . S
C873 H897 0.949 . S
H874 C878 0.949 . S
C875 C876 1.349 . S
C875 C877 1.327 . S
C875 H898 0.950 . S
C876 C875 1.349 . S
C876 C888 1.349 . S
C877 C875 1.327 . S
C877 C893 1.429 . S
C877 H899 0.950 . S
C878 H874 0.949 . S
C878 C886 1.574 . S
C878 C894 1.368 . S
H879 C887 0.950 . S
H880 C885 0.950 . S
H881 C886 0.949 . S
H882 C888 0.950 . S
H883 C889 0.950 . S
H884 C890 0.949 . S
C885 H880 0.950 . S
C885 C887 1.327 . S
C885 C891 1.429 . S
C886 C878 1.574 . S
C886 H881 0.949 . S
C886 C892 1.368 . S
C887 C871 1.349 . S
C887 H879 0.950 . S
C887 C885 1.327 . S
C888 C876 1.349 . S
C888 H882 0.950 . S
C888 C889 1.327 . S
C889 H883 0.950 . S
C889 C888 1.327 . S
C889 C893 1.429 . S
C890 C873 1.574 . S
C890 H884 0.949 . S
C890 C894 1.368 . S
C891 C872 1.429 . S
C891 C885 1.429 . S
C891 C892 1.523 . S
C892 C873 1.368 . S
C892 C886 1.368 . S
C892 C891 1.523 . S
C893 C877 1.429 . S
C893 C889 1.429 . S
C893 C894 1.523 . S
C894 C878 1.368 . S
C894 C890 1.368 . S
C894 C893 1.523 . S
H895 C870 0.950 . S
H896 C872 0.950 . S
H897 C873 0.949 . S
H898 C875 0.950 . S
H899 C877 0.950 . S
C900 C901 1.349 . S
C900 C902 1.327 . S
C900 H925 0.950 . S
C901 C900 1.349 . S
C901 C917 1.349 . S
C902 C900 1.327 . S
C902 C921 1.429 . S
C902 H926 0.950 . S
C903 C920 1.574 1_455 S
C903 C922 1.368 . S
C903 H927 0.949 . S
H904 C908 0.949 . S
C905 C906 1.349 . S
C905 C907 1.327 . S
C905 H928 0.950 . S
C906 C905 1.349 . S
C906 C918 1.349 . S
C907 C905 1.327 . S
C907 C923 1.429 . S
C907 H929 0.950 . S
C908 H904 0.949 . S
C908 C916 1.574 1_655 S
C908 C924 1.368 . S
H909 C917 0.950 . S
H910 C915 0.950 . S
H911 C916 0.949 . S
H912 C918 0.950 . S
H913 C919 0.950 . S
H914 C920 0.949 . S
C915 H910 0.950 . S
C915 C917 1.327 . S
C915 C921 1.429 . S
C916 C908 1.574 1_455 S
C916 H911 0.949 . S
C916 C922 1.368 . S
C917 C901 1.349 . S
C917 H909 0.950 . S
C917 C915 1.327 . S
C918 C906 1.349 . S
C918 H912 0.950 . S
C918 C919 1.327 . S
C919 H913 0.950 . S
C919 C918 1.327 . S
C919 C923 1.429 . S
C920 C903 1.574 1_655 S
C920 H914 0.949 . S
C920 C924 1.368 . S
C921 C902 1.429 . S
C921 C915 1.429 . S
C921 C922 1.523 . S
C922 C903 1.368 . S
C922 C916 1.368 . S
C922 C921 1.523 . S
C923 C907 1.429 . S
C923 C919 1.429 . S
C923 C924 1.523 . S
C924 C908 1.368 . S
C924 C920 1.368 . S
C924 C923 1.523 . S
H925 C900 0.950 . S
H926 C902 0.950 . S
H927 C903 0.949 . S
H928 C905 0.950 . S
H929 C907 0.950 . S
C930 C931 1.349 . S
C930 C932 1.327 . S
C930 H955 0.950 . S
C931 C930 1.349 . S
C931 C947 1.349 . S
C932 C930 1.327 . S
C932 C951 1.429 . S
C932 H956 0.950 . S
C933 C950 1.574 1_554 S
C933 C952 1.368 1_545 S
C933 H957 0.949 . S
H934 C938 0.949 . S
C935 C936 1.349 . S
C935 C937 1.327 . S
C935 H958 0.950 . S
C936 C935 1.349 . S
C936 C948 1.349 . S
C937 C935 1.327 . S
C937 C953 1.429 . S
C937 H959 0.950 . S
C938 H934 0.949 . S
C938 C946 1.574 1_556 S
C938 C954 1.368 1_565 S
H939 C947 0.950 . S
H940 C945 0.950 1_545 S
H941 C946 0.949 . S
H942 C948 0.950 . S
H943 C949 0.950 1_565 S
H944 C950 0.949 . S
C945 H940 0.950 1_565 S
C945 C947 1.327 . S
C945 C951 1.429 . S
C946 C938 1.574 1_554 S
C946 H941 0.949 . S
C946 C952 1.368 . S
C947 C931 1.349 . S
C947 H939 0.950 . S
C947 C945 1.327 . S
C948 C936 1.349 . S
C948 H942 0.950 . S
C948 C949 1.327 . S
C949 H943 0.950 1_545 S
C949 C948 1.327 . S
C949 C953 1.429 . S
C950 C933 1.574 1_556 S
C950 H944 0.949 . S
C950 C954 1.368 . S
C951 C932 1.429 . S
C951 C945 1.429 . S
C951 C952 1.523 . S
C952 C933 1.368 1_565 S
C952 C946 1.368 . S
C952 C951 1.523 . S
C953 C937 1.429 . S
C953 C949 1.429 . S
C953 C954 1.523 . S
C954 C938 1.368 1_545 S
C954 C950 1.368 . S
C954 C953 1.523 . S
H955 C930 0.950 . S
H956 C932 0.950 . S
H957 C933 0.949 . S
H958 C935 0.950 . S
H959 C937 0.950 . S
C960 C961 1.349 . S
C960 C962 1.327 . S
C960 H985 0.950 . S
C961 C960 1.349 . S
C961 C977 1.349 . S
C962 C960 1.327 . S
C962 C981 1.429 . S
C962 H986 0.950 . S
C963 C980 1.574 . S
C963 C982 1.368 . S
C963 H987 0.949 . S
H964 C968 0.949 . S
C965 C966 1.349 . S
C965 C967 1.327 . S
C965 H988 0.950 . S
C966 C965 1.349 . S
C966 C978 1.349 . S
C967 C965 1.327 . S
C967 C983 1.429 . S
C967 H989 0.950 . S
C968 H964 0.949 . S
C968 C976 1.574 . S
C968 C984 1.368 . S
H969 C977 0.950 . S
H970 C975 0.950 . S
H971 C976 0.949 . S
H972 C978 0.950 . S
H973 C979 0.950 . S
H974 C980 0.949 . S
C975 H970 0.950 . S
C975 C977 1.327 . S
C975 C981 1.429 . S
C976 C968 1.574 . S
C976 H971 0.949 . S
C976 C982 1.368 . S
C977 C961 1.349 . S
C977 H969 0.950 . S
C977 C975 1.327 . S
C978 C966 1.349 . S
C978 H972 0.950 . S
C978 C979 1.327 . S
C979 H973 0.950 . S
C979 C978 1.327 . S
C979 C983 1.429 . S
C980 C963 1.574 . S
C980 H974 0.949 . S
C980 C984 1.368 . S
C981 C962 1.429 . S
C981 C975 1.429 . S
C981 C982 1.523 . S
C982 C963 1.368 . S
C982 C976 1.368 . S
C982 C981 1.523 . S
C983 C967 1.429 . S
C983 C979 1.429 . S
C983 C984 1.523 . S
C984 C968 1.368 . S
C984 C980 1.368 . S
C984 C983 1.523 . S
H985 C960 0.950 . S
H986 C962 0.950 . S
H987 C963 0.949 . S
H988 C965 0.950 . S
H989 C967 0.950 . S
C990 C991 1.349 . S
C990 C992 1.327 . S
C990 H1015 0.950 . S
C991 C990 1.349 . S
C991 C1007 1.349 . S
C992 C990 1.327 . S
C992 C1011 1.429 . S
C992 H1016 0.950 1_455 S
C993 C1010 1.574 . S
C993 C1012 1.368 . S
C993 H1017 0.949 . S
H994 C998 0.949 . S
C995 C996 1.349 . S
C995 C997 1.327 . S
C995 H1018 0.950 . S
C996 C995 1.349 . S
C996 C1008 1.349 . S
C997 C995 1.327 . S
C997 C1013 1.429 . S
C997 H1019 0.950 1_655 S
C998 H994 0.949 . S
C998 C1006 1.574 . S
C998 C1014 1.368 . S
H999 C1007 0.950 . S
H1000 C1005 0.950 . S
H1001 C1006 0.949 . S
H1002 C1008 0.950 . S
H1003 C1009 0.950 . S
H1004 C1010 0.949 . S
C1005 H1000 0.950 . S
C1005 C1007 1.327 . S
C1005 C1011 1.429 . S
C1006 C998 1.574 . S
C1006 H1001 0.949 . S
C1006 C1012 1.368 1_655 S
C1007 C991 1.349 . S
C1007 H999 0.950 . S
C1007 C1005 1.327 . S
C1008 C996 1.349 . S
C1008 H1002 0.950 . S
C1008 C1009 1.327 . S
C1009 H1003 0.950 . S
C1009 C1008 1.327 . S
C1009 C1013 1.429 . S
C1010 C993 1.574 . S
C1010 H1004 0.949 . S
C1010 C1014 1.368 1_455 S
C1011 C992 1.429 . S
C1011 C1005 1.429 . S
C1011 C1012 1.523 . S
C1012 C993 1.368 . S
C1012 C1006 1.368 1_455 S
C1012 C1011 1.523 . S
C1013 C997 1.429 . S
C1013 C1009 1.429 . S
C1013 C1014 1.523 . S
C1014 C998 1.368 . S
C1014 C1010 1.368 1_655 S
C1014 C1013 1.523 . S
H1015 C990 0.950 . S
H1016 C992 0.950 1_655 S
H1017 C993 0.949 . S
H1018 C995 0.950 . S
H1019 C997 0.950 1_455 S
C1020 C1021 1.349 . S
C1020 C1022 1.327 . S
C1020 H1045 0.950 . S
C1021 C1020 1.349 . S
C1021 C1037 1.349 . S
C1022 C1020 1.327 . S
C1022 C1041 1.429 . S
C1022 H1046 0.950 . S
C1023 C1040 1.574 1_545 S
C1023 C1042 1.368 . S
C1023 H1047 0.949 . S
H1024 C1028 0.949 . S
C1025 C1026 1.349 . S
C1025 C1027 1.327 . S
C1025 H1048 0.950 . S
C1026 C1025 1.349 . S
C1026 C1038 1.349 . S
C1027 C1025 1.327 . S
C1027 C1043 1.429 . S
C1027 H1049 0.950 . S
C1028 H1024 0.949 . S
C1028 C1036 1.574 1_565 S
C1028 C1044 1.368 . S
H1029 C1037 0.950 . S
H1030 C1035 0.950 . S
H1031 C1036 0.949 . S
H1032 C1038 0.950 . S
H1033 C1039 0.950 . S
H1034 C1040 0.949 . S
C1035 H1030 0.950 . S
C1035 C1037 1.327 . S
C1035 C1041 1.429 . S
C1036 C1028 1.574 1_545 S
C1036 H1031 0.949 . S
C1036 C1042 1.368 . S
C1037 C1021 1.349 . S
C1037 H1029 0.950 . S
C1037 C1035 1.327 . S
C1038 C1026 1.349 . S
C1038 H1032 0.950 . S
C1038 C1039 1.327 . S
C1039 H1033 0.950 . S
C1039 C1038 1.327 . S
C1039 C1043 1.429 . S
C1040 C1023 1.574 1_565 S
C1040 H1034 0.949 . S
C1040 C1044 1.368 . S
C1041 C1022 1.429 . S
C1041 C1035 1.429 . S
C1041 C1042 1.523 . S
C1042 C1023 1.368 . S
C1042 C1036 1.368 . S
C1042 C1041 1.523 . S
C1043 C1027 1.429 . S
C1043 C1039 1.429 . S
C1043 C1044 1.523 . S
C1044 C1028 1.368 . S
C1044 C1040 1.368 . S
C1044 C1043 1.523 . S
H1045 C1020 0.950 . S
H1046 C1022 0.950 . S
H1047 C1023 0.949 . S
H1048 C1025 0.950 . S
H1049 C1027 0.950 . S
C1050 C1051 1.349 . S
C1050 C1052 1.327 . S
C1050 H1075 0.950 . S
C1051 C1050 1.349 . S
C1051 C1067 1.349 . S
C1052 C1050 1.327 . S
C1052 C1071 1.429 . S
C1052 H1076 0.950 . S
C1053 C1070 1.574 . S
C1053 C1072 1.368 . S
C1053 H1077 0.949 . S
H1054 C1058 0.949 . S
C1055 C1056 1.349 . S
C1055 C1057 1.327 . S
C1055 H1078 0.950 . S
C1056 C1055 1.349 . S
C1056 C1068 1.349 . S
C1057 C1055 1.327 . S
C1057 C1073 1.429 . S
C1057 H1079 0.950 . S
C1058 H1054 0.949 . S
C1058 C1066 1.574 . S
C1058 C1074 1.368 . S
H1059 C1067 0.950 . S
H1060 C1065 0.950 . S
H1061 C1066 0.949 . S
H1062 C1068 0.950 . S
H1063 C1069 0.950 . S
H1064 C1070 0.949 . S
C1065 H1060 0.950 . S
C1065 C1067 1.327 . S
C1065 C1071 1.429 . S
C1066 C1058 1.574 . S
C1066 H1061 0.949 . S
C1066 C1072 1.368 . S
C1067 C1051 1.349 . S
C1067 H1059 0.950 . S
C1067 C1065 1.327 . S
C1068 C1056 1.349 . S
C1068 H1062 0.950 . S
C1068 C1069 1.327 . S
C1069 H1063 0.950 . S
C1069 C1068 1.327 . S
C1069 C1073 1.429 . S
C1070 C1053 1.574 . S
C1070 H1064 0.949 . S
C1070 C1074 1.368 . S
C1071 C1052 1.429 . S
C1071 C1065 1.429 . S
C1071 C1072 1.523 . S
C1072 C1053 1.368 . S
C1072 C1066 1.368 . S
C1072 C1071 1.523 . S
C1073 C1057 1.429 . S
C1073 C1069 1.429 . S
C1073 C1074 1.523 . S
C1074 C1058 1.368 . S
C1074 C1070 1.368 . S
C1074 C1073 1.523 . S
H1075 C1050 0.950 . S
H1076 C1052 0.950 . S
H1077 C1053 0.949 . S
H1078 C1055 0.950 . S
H1079 C1057 0.950 . S
C1080 C1081 1.349 . S
C1080 C1082 1.327 . S
C1080 H1105 0.950 . S
C1081 C1080 1.349 . S
C1081 C1097 1.349 . S
C1082 C1080 1.327 . S
C1082 C1101 1.429 . S
C1082 H1106 0.950 . S
C1083 C1100 1.574 1_655 S
C1083 C1102 1.368 . S
C1083 H1107 0.949 . S
H1084 C1088 0.949 . S
C1085 C1086 1.349 . S
C1085 C1087 1.327 . S
C1085 H1108 0.950 . S
C1086 C1085 1.349 . S
C1086 C1098 1.349 . S
C1087 C1085 1.327 . S
C1087 C1103 1.429 . S
C1087 H1109 0.950 . S
C1088 H1084 0.949 . S
C1088 C1096 1.574 1_455 S
C1088 C1104 1.368 . S
H1089 C1097 0.950 . S
H1090 C1095 0.950 . S
H1091 C1096 0.949 . S
H1092 C1098 0.950 . S
H1093 C1099 0.950 . S
H1094 C1100 0.949 . S
C1095 H1090 0.950 . S
C1095 C1097 1.327 . S
C1095 C1101 1.429 . S
C1096 C1088 1.574 1_655 S
C1096 H1091 0.949 . S
C1096 C1102 1.368 . S
C1097 C1081 1.349 . S
C1097 H1089 0.950 . S
C1097 C1095 1.327 . S
C1098 C1086 1.349 . S
C1098 H1092 0.950 . S
C1098 C1099 1.327 . S
C1099 H1093 0.950 . S
C1099 C1098 1.327 . S
C1099 C1103 1.429 . S
C1100 C1083 1.574 1_455 S
C1100 H1094 0.949 . S
C1100 C1104 1.368 . S
C1101 C1082 1.429 . S
C1101 C1095 1.429 . S
C1101 C1102 1.523 . S
C1102 C1083 1.368 . S
C1102 C1096 1.368 . S
C1102 C1101 1.523 . S
C1103 C1087 1.429 . S
C1103 C1099 1.429 . S
C1103 C1104 1.523 . S
C1104 C1088 1.368 . S
C1104 C1100 1.368 . S
C1104 C1103 1.523 . S
H1105 C1080 0.950 . S
H1106 C1082 0.950 . S
H1107 C1083 0.949 . S
H1108 C1085 0.950 . S
H1109 C1087 0.950 . S
C1110 C1111 1.349 . S
C1110 C1112 1.327 . S
C1110 H1135 0.950 . S
C1111 C1110 1.349 . S
C1111 C1127 1.349 . S
C1112 C1110 1.327 . S
C1112 C1131 1.429 . S
C1112 H1136 0.950 . S
C1113 C1130 1.574 1_455 S
C1113 C1132 1.368 . S
C1113 H1137 0.949 . S
H1114 C1118 0.949 . S
C1115 C1116 1.349 . S
C1115 C1117 1.327 . S
C1115 H1138 0.950 . S
C1116 C1115 1.349 . S
C1116 C1128 1.349 . S
C1117 C1115 1.327 . S
C1117 C1133 1.429 . S
C1117 H1139 0.950 . S
C1118 H1114 0.949 . S
C1118 C1126 1.574 1_655 S
C1118 C1134 1.368 . S
H1119 C1127 0.950 . S
H1120 C1125 0.950 . S
H1121 C1126 0.949 . S
H1122 C1128 0.950 . S
H1123 C1129 0.950 . S
H1124 C1130 0.949 . S
C1125 H1120 0.950 . S
C1125 C1127 1.327 . S
C1125 C1131 1.429 . S
C1126 C1118 1.574 1_455 S
C1126 H1121 0.949 . S
C1126 C1132 1.368 . S
C1127 C1111 1.349 . S
C1127 H1119 0.950 . S
C1127 C1125 1.327 . S
C1128 C1116 1.349 . S
C1128 H1122 0.950 . S
C1128 C1129 1.327 . S
C1129 H1123 0.950 . S
C1129 C1128 1.327 . S
C1129 C1133 1.429 . S
C1130 C1113 1.574 1_655 S
C1130 H1124 0.949 . S
C1130 C1134 1.368 . S
C1131 C1112 1.429 . S
C1131 C1125 1.429 . S
C1131 C1132 1.523 . S
C1132 C1113 1.368 . S
C1132 C1126 1.368 . S
C1132 C1131 1.523 . S
C1133 C1117 1.429 . S
C1133 C1129 1.429 . S
C1133 C1134 1.523 . S
C1134 C1118 1.368 . S
C1134 C1130 1.368 . S
C1134 C1133 1.523 . S
H1135 C1110 0.950 . S
H1136 C1112 0.950 . S
H1137 C1113 0.949 . S
H1138 C1115 0.950 . S
H1139 C1117 0.950 . S
C1140 C1141 1.349 . S
C1140 C1142 1.327 . S
C1140 H1165 0.950 . S
C1141 C1140 1.349 . S
C1141 C1157 1.349 . S
C1142 C1140 1.327 . S
C1142 C1161 1.429 . S
C1142 H1166 0.950 . S
C1143 C1160 1.574 1_565 S
C1143 C1162 1.368 . S
C1143 H1167 0.949 . S
H1144 C1148 0.949 . S
C1145 C1146 1.349 . S
C1145 C1147 1.327 . S
C1145 H1168 0.950 . S
C1146 C1145 1.349 . S
C1146 C1158 1.349 . S
C1147 C1145 1.327 . S
C1147 C1163 1.429 . S
C1147 H1169 0.950 . S
C1148 H1144 0.949 . S
C1148 C1156 1.574 1_545 S
C1148 C1164 1.368 . S
H1149 C1157 0.950 . S
H1150 C1155 0.950 . S
H1151 C1156 0.949 . S
H1152 C1158 0.950 . S
H1153 C1159 0.950 . S
H1154 C1160 0.949 . S
C1155 H1150 0.950 . S
C1155 C1157 1.327 . S
C1155 C1161 1.429 . S
C1156 C1148 1.574 1_565 S
C1156 H1151 0.949 . S
C1156 C1162 1.368 . S
C1157 C1141 1.349 . S
C1157 H1149 0.950 . S
C1157 C1155 1.327 . S
C1158 C1146 1.349 . S
C1158 H1152 0.950 . S
C1158 C1159 1.327 . S
C1159 H1153 0.950 . S
C1159 C1158 1.327 . S
C1159 C1163 1.429 . S
C1160 C1143 1.574 1_545 S
C1160 H1154 0.949 . S
C1160 C1164 1.368 . S
C1161 C1142 1.429 . S
C1161 C1155 1.429 . S
C1161 C1162 1.523 . S
C1162 C1143 1.368 . S
C1162 C1156 1.368 . S
C1162 C1161 1.523 . S
C1163 C1147 1.429 . S
C1163 C1159 1.429 . S
C1163 C1164 1.523 . S
C1164 C1148 1.368 . S
C1164 C1160 1.368 . S
C1164 C1163 1.523 . S
H1165 C1140 0.950 . S
H1166 C1142 0.950 . S
H1167 C1143 0.949 . S
H1168 C1145 0.950 . S
H1169 C1147 0.950 . S
C1170 C1171 1.349 . S
C1170 C1172 1.327 . S
C1170 H1195 0.950 . S
C1171 C1170 1.349 . S
C1171 C1187 1.349 . S
C1172 C1170 1.327 . S
C1172 C1191 1.429 . S
C1172 H1196 0.950 . S
C1173 C1190 1.574 . S
C1173 C1192 1.368 . S
C1173 H1197 0.949 . S
H1174 C1178 0.949 . S
C1175 C1176 1.349 . S
C1175 C1177 1.327 . S
C1175 H1198 0.950 . S
C1176 C1175 1.349 . S
C1176 C1188 1.349 . S
C1177 C1175 1.327 . S
C1177 C1193 1.429 . S
C1177 H1199 0.950 . S
C1178 H1174 0.949 . S
C1178 C1186 1.574 . S
C1178 C1194 1.368 . S
H1179 C1187 0.950 . S
H1180 C1185 0.950 . S
H1181 C1186 0.949 . S
H1182 C1188 0.950 . S
H1183 C1189 0.950 . S
H1184 C1190 0.949 . S
C1185 H1180 0.950 . S
C1185 C1187 1.327 . S
C1185 C1191 1.429 . S
C1186 C1178 1.574 . S
C1186 H1181 0.949 . S
C1186 C1192 1.368 . S
C1187 C1171 1.349 . S
C1187 H1179 0.950 . S
C1187 C1185 1.327 . S
C1188 C1176 1.349 . S
C1188 H1182 0.950 . S
C1188 C1189 1.327 . S
C1189 H1183 0.950 . S
C1189 C1188 1.327 . S
C1189 C1193 1.429 . S
C1190 C1173 1.574 . S
C1190 H1184 0.949 . S
C1190 C1194 1.368 . S
C1191 C1172 1.429 . S
C1191 C1185 1.429 . S
C1191 C1192 1.523 . S
C1192 C1173 1.368 . S
C1192 C1186 1.368 . S
C1192 C1191 1.523 . S
C1193 C1177 1.429 . S
C1193 C1189 1.429 . S
C1193 C1194 1.523 . S
C1194 C1178 1.368 . S
C1194 C1190 1.368 . S
C1194 C1193 1.523 . S
H1195 C1170 0.950 . S
H1196 C1172 0.950 . S
H1197 C1173 0.949 . S
H1198 C1175 0.950 . S
H1199 C1177 0.950 . S
C1200 C1201 1.349 . S
C1200 C1202 1.327 . S
C1200 H1225 0.950 . S
C1201 C1200 1.349 . S
C1201 C1217 1.349 . S
C1202 C1200 1.327 . S
C1202 C1221 1.429 . S
C1202 H1226 0.950 . S
C1203 C1220 1.574 . S
C1203 C1222 1.368 1_545 S
C1203 H1227 0.949 . S
H1204 C1208 0.949 . S
C1205 C1206 1.349 . S
C1205 C1207 1.327 . S
C1205 H1228 0.950 . S
C1206 C1205 1.349 . S
C1206 C1218 1.349 . S
C1207 C1205 1.327 . S
C1207 C1223 1.429 . S
C1207 H1229 0.950 . S
C1208 H1204 0.949 . S
C1208 C1216 1.574 . S
C1208 C1224 1.368 1_565 S
H1209 C1217 0.950 . S
H1210 C1215 0.950 . S
H1211 C1216 0.949 . S
H1212 C1218 0.950 . S
H1213 C1219 0.950 . S
H1214 C1220 0.949 . S
C1215 H1210 0.950 . S
C1215 C1217 1.327 . S
C1215 C1221 1.429 . S
C1216 C1208 1.574 . S
C1216 H1211 0.949 . S
C1216 C1222 1.368 . S
C1217 C1201 1.349 . S
C1217 H1209 0.950 . S
C1217 C1215 1.327 . S
C1218 C1206 1.349 . S
C1218 H1212 0.950 . S
C1218 C1219 1.327 . S
C1219 H1213 0.950 . S
C1219 C1218 1.327 . S
C1219 C1223 1.429 . S
C1220 C1203 1.574 . S
C1220 H1214 0.949 . S
C1220 C1224 1.368 . S
C1221 C1202 1.429 . S
C1221 C1215 1.429 . S
C1221 C1222 1.523 . S
C1222 C1203 1.368 1_565 S
C1222 C1216 1.368 . S
C1222 C1221 1.523 . S
C1223 C1207 1.429 . S
C1223 C1219 1.429 . S
C1223 C1224 1.523 . S
C1224 C1208 1.368 1_545 S
C1224 C1220 1.368 . S
C1224 C1223 1.523 . S
H1225 C1200 0.950 . S
H1226 C1202 0.950 . S
H1227 C1203 0.949 . S
H1228 C1205 0.950 . S
H1229 C1207 0.950 . S
C1230 C1231 1.349 . S
C1230 C1232 1.327 . S
C1230 H1255 0.950 . S
C1231 C1230 1.349 . S
C1231 C1247 1.349 . S
C1232 C1230 1.327 . S
C1232 C1251 1.429 . S
C1232 H1256 0.950 . S
C1233 C1250 1.574 . S
C1233 C1252 1.368 . S
C1233 H1257 0.949 . S
H1234 C1238 0.949 . S
C1235 C1236 1.349 . S
C1235 C1237 1.327 . S
C1235 H1258 0.950 . S
C1236 C1235 1.349 . S
C1236 C1248 1.349 . S
C1237 C1235 1.327 . S
C1237 C1253 1.429 . S
C1237 H1259 0.950 . S
C1238 H1234 0.949 . S
C1238 C1246 1.574 . S
C1238 C1254 1.368 . S
H1239 C1247 0.950 . S
H1240 C1245 0.950 . S
H1241 C1246 0.949 . S
H1242 C1248 0.950 . S
H1243 C1249 0.950 . S
H1244 C1250 0.949 . S
C1245 H1240 0.950 . S
C1245 C1247 1.327 . S
C1245 C1251 1.429 . S
C1246 C1238 1.574 . S
C1246 H1241 0.949 . S
C1246 C1252 1.368 . S
C1247 C1231 1.349 . S
C1247 H1239 0.950 . S
C1247 C1245 1.327 . S
C1248 C1236 1.349 . S
C1248 H1242 0.950 . S
C1248 C1249 1.327 . S
C1249 H1243 0.950 . S
C1249 C1248 1.327 . S
C1249 C1253 1.429 . S
C1250 C1233 1.574 . S
C1250 H1244 0.949 . S
C1250 C1254 1.368 . S
C1251 C1232 1.429 . S
C1251 C1245 1.429 . S
C1251 C1252 1.523 . S
C1252 C1233 1.368 . S
C1252 C1246 1.368 . S
C1252 C1251 1.523 . S
C1253 C1237 1.429 . S
C1253 C1249 1.429 . S
C1253 C1254 1.523 . S
C1254 C1238 1.368 . S
C1254 C1250 1.368 . S
C1254 C1253 1.523 . S
H1255 C1230 0.950 . S
H1256 C1232 0.950 . S
H1257 C1233 0.949 . S
H1258 C1235 0.950 . S
H1259 C1237 0.950 . S
C1260 C1261 1.349 . S
C1260 C1262 1.327 . S
C1260 H1285 0.950 . S
C1261 C1260 1.349 . S
C1261 C1277 1.349 . S
C1262 C1260 1.327 . S
C1262 C1281 1.429 . S
C1262 H1286 0.950 . S
C1263 C1280 1.574 . S
C1263 C1282 1.368 . S
C1263 H1287 0.949 . S
H1264 C1268 0.949 . S
C1265 C1266 1.349 . S
C1265 C1267 1.327 . S
C1265 H1288 0.950 . S
C1266 C1265 1.349 . S
C1266 C1278 1.349 . S
C1267 C1265 1.327 . S
C1267 C1283 1.429 . S
C1267 H1289 0.950 . S
C1268 H1264 0.949 . S
C1268 C1276 1.574 . S
C1268 C1284 1.368 . S
H1269 C1277 0.950 . S
H1270 C1275 0.950 . S
H1271 C1276 0.949 . S
H1272 C1278 0.950 . S
H1273 C1279 0.950 . S
H1274 C1280 0.949 . S
C1275 H1270 0.950 . S
C1275 C1277 1.327 . S
C1275 C1281 1.429 . S
C1276 C1268 1.574 . S
C1276 H1271 0.949 . S
C1276 C1282 1.368 1_455 S
C1277 C1261 1.349 . S
C1277 H1269 0.950 . S
C1277 C1275 1.327 . S
C1278 C1266 1.349 . S
C1278 H1272 0.950 . S
C1278 C1279 1.327 . S
C1279 H1273 0.950 . S
C1279 C1278 1.327 . S
C1279 C1283 1.429 . S
C1280 C1263 1.574 . S
C1280 H1274 0.949 . S
C1280 C1284 1.368 1_655 S
C1281 C1262 1.429 . S
C1281 C1275 1.429 . S
C1281 C1282 1.523 . S
C1282 C1263 1.368 . S
C1282 C1276 1.368 1_655 S
C1282 C1281 1.523 . S
C1283 C1267 1.429 . S
C1283 C1279 1.429 . S
C1283 C1284 1.523 . S
C1284 C1268 1.368 . S
C1284 C1280 1.368 1_455 S
C1284 C1283 1.523 . S
H1285 C1260 0.950 . S
H1286 C1262 0.950 . S
H1287 C1263 0.949 . S
H1288 C1265 0.950 . S
H1289 C1267 0.950 . S
C1290 C1291 1.349 . S
C1290 C1292 1.327 . S
C1290 H1315 0.950 . S
C1291 C1290 1.349 . S
C1291 C1307 1.349 . S
C1292 C1290 1.327 . S
C1292 C1311 1.429 . S
C1292 H1316 0.950 . S
C1293 C1310 1.574 . S
C1293 C1312 1.368 . S
C1293 H1317 0.949 . S
H1294 C1298 0.949 . S
C1295 C1296 1.349 . S
C1295 C1297 1.327 . S
C1295 H1318 0.950 . S
C1296 C1295 1.349 . S
C1296 C1308 1.349 . S
C1297 C1295 1.327 . S
C1297 C1313 1.429 . S
C1297 H1319 0.950 . S
C1298 H1294 0.949 . S
C1298 C1306 1.574 . S
C1298 C1314 1.368 . S
H1299 C1307 0.950 . S
H1300 C1305 0.950 . S
H1301 C1306 0.949 . S
H1302 C1308 0.950 . S
H1303 C1309 0.950 . S
H1304 C1310 0.949 . S
C1305 H1300 0.950 . S
C1305 C1307 1.327 . S
C1305 C1311 1.429 . S
C1306 C1298 1.574 . S
C1306 H1301 0.949 . S
C1306 C1312 1.368 1_565 S
C1307 C1291 1.349 . S
C1307 H1299 0.950 . S
C1307 C1305 1.327 . S
C1308 C1296 1.349 . S
C1308 H1302 0.950 . S
C1308 C1309 1.327 . S
C1309 H1303 0.950 . S
C1309 C1308 1.327 . S
C1309 C1313 1.429 . S
C1310 C1293 1.574 . S
C1310 H1304 0.949 . S
C1310 C1314 1.368 1_545 S
C1311 C1292 1.429 . S
C1311 C1305 1.429 . S
C1311 C1312 1.523 . S
C1312 C1293 1.368 . S
C1312 C1306 1.368 1_545 S
C1312 C1311 1.523 . S
C1313 C1297 1.429 . S
C1313 C1309 1.429 . S
C1313 C1314 1.523 . S
C1314 C1298 1.368 . S
C1314 C1310 1.368 1_565 S
C1314 C1313 1.523 . S
H1315 C1290 0.950 . S
H1316 C1292 0.950 . S
H1317 C1293 0.949 . S
H1318 C1295 0.950 . S
H1319 C1297 0.950 . S
C1320 C1321 1.349 . S
C1320 C1322 1.327 . S
C1320 H1345 0.950 . S
C1321 C1320 1.349 . S
C1321 C1337 1.349 . S
C1322 C1320 1.327 . S
C1322 C1341 1.429 . S
C1322 H1346 0.950 . S
C1323 C1340 1.574 . S
C1323 C1342 1.368 . S
C1323 H1347 0.949 . S
H1324 C1328 0.949 . S
C1325 C1326 1.349 . S
C1325 C1327 1.327 . S
C1325 H1348 0.950 . S
C1326 C1325 1.349 . S
C1326 C1338 1.349 . S
C1327 C1325 1.327 . S
C1327 C1343 1.429 . S
C1327 H1349 0.950 . S
C1328 H1324 0.949 . S
C1328 C1336 1.574 . S
C1328 C1344 1.368 . S
H1329 C1337 0.950 . S
H1330 C1335 0.950 . S
H1331 C1336 0.949 . S
H1332 C1338 0.950 . S
H1333 C1339 0.950 . S
H1334 C1340 0.949 . S
C1335 H1330 0.950 . S
C1335 C1337 1.327 . S
C1335 C1341 1.429 . S
C1336 C1328 1.574 . S
C1336 H1331 0.949 . S
C1336 C1342 1.368 . S
C1337 C1321 1.349 . S
C1337 H1329 0.950 . S
C1337 C1335 1.327 . S
C1338 C1326 1.349 . S
C1338 H1332 0.950 . S
C1338 C1339 1.327 . S
C1339 H1333 0.950 . S
C1339 C1338 1.327 . S
C1339 C1343 1.429 . S
C1340 C1323 1.574 . S
C1340 H1334 0.949 . S
C1340 C1344 1.368 . S
C1341 C1322 1.429 . S
C1341 C1335 1.429 . S
C1341 C1342 1.523 . S
C1342 C1323 1.368 . S
C1342 C1336 1.368 . S
C1342 C1341 1.523 . S
C1343 C1327 1.429 . S
C1343 C1339 1.429 . S
C1343 C1344 1.523 . S
C1344 C1328 1.368 . S
C1344 C1340 1.368 . S
C1344 C1343 1.523 . S
H1345 C1320 0.950 . S
H1346 C1322 0.950 . S
H1347 C1323 0.949 . S
H1348 C1325 0.950 . S
H1349 C1327 0.950 . S
C1350 C1351 1.349 . S
C1350 C1352 1.327 . S
C1350 H1375 0.950 . S
C1351 C1350 1.349 . S
C1351 C1367 1.349 . S
C1352 C1350 1.327 . S
C1352 C1371 1.429 . S
C1352 H1376 0.950 . S
C1353 C1370 1.574 . S
C1353 C1372 1.368 . S
C1353 H1377 0.949 . S
H1354 C1358 0.949 . S
C1355 C1356 1.349 . S
C1355 C1357 1.327 . S
C1355 H1378 0.950 . S
C1356 C1355 1.349 . S
C1356 C1368 1.349 . S
C1357 C1355 1.327 . S
C1357 C1373 1.429 . S
C1357 H1379 0.950 . S
C1358 H1354 0.949 . S
C1358 C1366 1.574 . S
C1358 C1374 1.368 . S
H1359 C1367 0.950 . S
H1360 C1365 0.950 . S
H1361 C1366 0.949 . S
H1362 C1368 0.950 . S
H1363 C1369 0.950 . S
H1364 C1370 0.949 . S
C1365 H1360 0.950 . S
C1365 C1367 1.327 . S
C1365 C1371 1.429 . S
C1366 C1358 1.574 . S
C1366 H1361 0.949 . S
C1366 C1372 1.368 1_655 S
C1367 C1351 1.349 . S
C1367 H1359 0.950 . S
C1367 C1365 1.327 . S
C1368 C1356 1.349 . S
C1368 H1362 0.950 . S
C1368 C1369 1.327 . S
C1369 H1363 0.950 . S
C1369 C1368 1.327 . S
C1369 C1373 1.429 . S
C1370 C1353 1.574 . S
C1370 H1364 0.949 . S
C1370 C1374 1.368 1_455 S
C1371 C1352 1.429 . S
C1371 C1365 1.429 . S
C1371 C1372 1.523 . S
C1372 C1353 1.368 . S
C1372 C1366 1.368 1_455 S
C1372 C1371 1.523 . S
C1373 C1357 1.429 . S
C1373 C1369 1.429 . S
C1373 C1374 1.523 . S
C1374 C1358 1.368 . S
C1374 C1370 1.368 1_655 S
C1374 C1373 1.523 . S
H1375 C1350 0.950 . S
H1376 C1352 0.950 . S
H1377 C1353 0.949 . S
H1378 C1355 0.950 . S
H1379 C1357 0.950 . S
C1380 C1381 1.349 . S
C1380 C1382 1.327 . S
C1380 H1405 0.950 . S
C1381 C1380 1.349 . S
C1381 C1397 1.349 . S
C1382 C1380 1.327 . S
C1382 C1401 1.429 . S
C1382 H1406 0.950 . S
C1383 C1400 1.574 . S
C1383 C1402 1.368 . S
C1383 H1407 0.949 . S
H1384 C1388 0.949 . S
C1385 C1386 1.349 . S
C1385 C1387 1.327 . S
C1385 H1408 0.950 . S
C1386 C1385 1.349 . S
C1386 C1398 1.349 . S
C1387 C1385 1.327 . S
C1387 C1403 1.429 . S
C1387 H1409 0.950 . S
C1388 H1384 0.949 . S
C1388 C1396 1.574 . S
C1388 C1404 1.368 . S
H1389 C1397 0.950 . S
H1390 C1395 0.950 . S
H1391 C1396 0.949 . S
H1392 C1398 0.950 . S
H1393 C1399 0.950 . S
H1394 C1400 0.949 . S
C1395 H1390 0.950 . S
C1395 C1397 1.327 . S
C1395 C1401 1.429 . S
C1396 C1388 1.574 . S
C1396 H1391 0.949 . S
C1396 C1402 1.368 . S
C1397 C1381 1.349 . S
C1397 H1389 0.950 . S
C1397 C1395 1.327 . S
C1398 C1386 1.349 . S
C1398 H1392 0.950 . S
C1398 C1399 1.327 . S
C1399 H1393 0.950 . S
C1399 C1398 1.327 . S
C1399 C1403 1.429 . S
C1400 C1383 1.574 . S
C1400 H1394 0.949 . S
C1400 C1404 1.368 . S
C1401 C1382 1.429 . S
C1401 C1395 1.429 . S
C1401 C1402 1.523 . S
C1402 C1383 1.368 . S
C1402 C1396 1.368 . S
C1402 C1401 1.523 . S
C1403 C1387 1.429 . S
C1403 C1399 1.429 . S
C1403 C1404 1.523 . S
C1404 C1388 1.368 . S
C1404 C1400 1.368 . S
C1404 C1403 1.523 . S
H1405 C1380 0.950 . S
H1406 C1382 0.950 . S
H1407 C1383 0.949 . S
H1408 C1385 0.950 . S
H1409 C1387 0.950 . S
C1410 C1411 1.349 . S
C1410 C1412 1.327 . S
C1410 H1435 0.950 . S
C1411 C1410 1.349 . S
C1411 C1427 1.349 . S
C1412 C1410 1.327 . S
C1412 C1431 1.429 . S
C1412 H1436 0.950 . S
C1413 C1430 1.574 . S
C1413 C1432 1.368 . S
C1413 H1437 0.949 . S
H1414 C1418 0.949 . S
C1415 C1416 1.349 . S
C1415 C1417 1.327 . S
C1415 H1438 0.950 . S
C1416 C1415 1.349 . S
C1416 C1428 1.349 . S
C1417 C1415 1.327 . S
C1417 C1433 1.429 . S
C1417 H1439 0.950 . S
C1418 H1414 0.949 . S
C1418 C1426 1.574 . S
C1418 C1434 1.368 . S
H1419 C1427 0.950 . S
H1420 C1425 0.950 . S
H1421 C1426 0.949 . S
H1422 C1428 0.950 . S
H1423 C1429 0.950 . S
H1424 C1430 0.949 . S
C1425 H1420 0.950 . S
C1425 C1427 1.327 . S
C1425 C1431 1.429 . S
C1426 C1418 1.574 . S
C1426 H1421 0.949 . S
C1426 C1432 1.368 . S
C1427 C1411 1.349 . S
C1427 H1419 0.950 . S
C1427 C1425 1.327 . S
C1428 C1416 1.349 . S
C1428 H1422 0.950 . S
C1428 C1429 1.327 . S
C1429 H1423 0.950 . S
C1429 C1428 1.327 . S
C1429 C1433 1.429 . S
C1430 C1413 1.574 . S
C1430 H1424 0.949 . S
C1430 C1434 1.368 . S
C1431 C1412 1.429 . S
C1431 C1425 1.429 . S
C1431 C1432 1.523 . S
C1432 C1413 1.368 . S
C1432 C1426 1.368 . S
C1432 C1431 1.523 . S
C1433 C1417 1.429 . S
C1433 C1429 1.429 . S
C1433 C1434 1.523 . S
C1434 C1418 1.368 . S
C1434 C1430 1.368 . S
C1434 C1433 1.523 . S
H1435 C1410 0.950 . S
H1436 C1412 0.950 . S
H1437 C1413 0.949 . S
H1438 C1415 0.950 . S
H1439 C1417 0.950 . S
C1440 C1441 1.349 . S
C1440 C1442 1.327 . S
C1440 H1465 0.950 . S
C1441 C1440 1.349 . S
C1441 C1457 1.349 . S
C1442 C1440 1.327 . S
C1442 C1461 1.429 . S
C1442 H1466 0.950 . S
C1443 C1460 1.574 . S
C1443 C1462 1.368 . S
C1443 H1467 0.949 . S
H1444 C1448 0.949 . S
C1445 C1446 1.349 . S
C1445 C1447 1.327 . S
C1445 H1468 0.950 . S
C1446 C1445 1.349 . S
C1446 C1458 1.349 . S
C1447 C1445 1.327 . S
C1447 C1463 1.429 . S
C1447 H1469 0.950 . S
C1448 H1444 0.949 . S
C1448 C1456 1.574 . S
C1448 C1464 1.368 . S
H1449 C1457 0.950 . S
H1450 C1455 0.950 . S
H1451 C1456 0.949 . S
H1452 C1458 0.950 . S
H1453 C1459 0.950 . S
H1454 C1460 0.949 . S
C1455 H1450 0.950 . S
C1455 C1457 1.327 . S
C1455 C1461 1.429 . S
C1456 C1448 1.574 . S
C1456 H1451 0.949 . S
C1456 C1462 1.368 . S
C1457 C1441 1.349 . S
C1457 H1449 0.950 . S
C1457 C1455 1.327 . S
C1458 C1446 1.349 . S
C1458 H1452 0.950 . S
C1458 C1459 1.327 . S
C1459 H1453 0.950 . S
C1459 C1458 1.327 . S
C1459 C1463 1.429 . S
C1460 C1443 1.574 . S
C1460 H1454 0.949 . S
C1460 C1464 1.368 . S
C1461 C1442 1.429 . S
C1461 C1455 1.429 . S
C1461 C1462 1.523 . S
C1462 C1443 1.368 . S
C1462 C1456 1.368 . S
C1462 C1461 1.523 . S
C1463 C1447 1.429 . S
C1463 C1459 1.429 . S
C1463 C1464 1.523 . S
C1464 C1448 1.368 . S
C1464 C1460 1.368 . S
C1464 C1463 1.523 . S
H1465 C1440 0.950 . S
H1466 C1442 0.950 . S
H1467 C1443 0.949 . S
H1468 C1445 0.950 . S
H1469 C1447 0.950 . S
C1470 C1471 1.349 . S
C1470 C1472 1.327 . S
C1470 H1495 0.950 . S
C1471 C1470 1.349 . S
C1471 C1487 1.349 . S
C1472 C1470 1.327 . S
C1472 C1491 1.429 . S
C1472 H1496 0.950 . S
C1473 C1490 1.574 . S
C1473 C1492 1.368 . S
C1473 H1497 0.949 . S
H1474 C1478 0.949 . S
C1475 C1476 1.349 . S
C1475 C1477 1.327 . S
C1475 H1498 0.950 . S
C1476 C1475 1.349 . S
C1476 C1488 1.349 . S
C1477 C1475 1.327 . S
C1477 C1493 1.429 . S
C1477 H1499 0.950 . S
C1478 H1474 0.949 . S
C1478 C1486 1.574 . S
C1478 C1494 1.368 . S
H1479 C1487 0.950 . S
H1480 C1485 0.950 . S
H1481 C1486 0.949 . S
H1482 C1488 0.950 . S
H1483 C1489 0.950 . S
H1484 C1490 0.949 . S
C1485 H1480 0.950 . S
C1485 C1487 1.327 . S
C1485 C1491 1.429 . S
C1486 C1478 1.574 . S
C1486 H1481 0.949 . S
C1486 C1492 1.368 . S
C1487 C1471 1.349 . S
C1487 H1479 0.950 . S
C1487 C1485 1.327 . S
C1488 C1476 1.349 . S
C1488 H1482 0.950 . S
C1488 C1489 1.327 . S
C1489 H1483 0.950 . S
C1489 C1488 1.327 . S
C1489 C1493 1.429 . S
C1490 C1473 1.574 . S
C1490 H1484 0.949 . S
C1490 C1494 1.368 . S
C1491 C1472 1.429 . S
C1491 C1485 1.429 . S
C1491 C1492 1.523 . S
C1492 C1473 1.368 . S
C1492 C1486 1.368 . S
C1492 C1491 1.523 . S
C1493 C1477 1.429 . S
C1493 C1489 1.429 . S
C1493 C1494 1.523 . S
C1494 C1478 1.368 . S
C1494 C1490 1.368 . S
C1494 C1493 1.523 . S
H1495 C1470 0.950 . S
H1496 C1472 0.950 . S
H1497 C1473 0.949 . S
H1498 C1475 0.950 . S
H1499 C1477 0.950 . S
C1500 C1501 1.349 . S
C1500 C1502 1.327 . S
C1500 H1525 0.950 . S
C1501 C1500 1.349 . S
C1501 C1517 1.349 . S
C1502 C1500 1.327 . S
C1502 C1521 1.429 . S
C1502 H1526 0.950 . S
C1503 C1520 1.574 . S
C1503 C1522 1.368 . S
C1503 H1527 0.949 . S
H1504 C1508 0.949 . S
C1505 C1506 1.349 . S
C1505 C1507 1.327 . S
C1505 H1528 0.950 . S
C1506 C1505 1.349 . S
C1506 C1518 1.349 . S
C1507 C1505 1.327 . S
C1507 C1523 1.429 . S
C1507 H1529 0.950 . S
C1508 H1504 0.949 . S
C1508 C1516 1.574 . S
C1508 C1524 1.368 . S
H1509 C1517 0.950 . S
H1510 C1515 0.950 . S
H1511 C1516 0.949 . S
H1512 C1518 0.950 . S
H1513 C1519 0.950 . S
H1514 C1520 0.949 . S
C1515 H1510 0.950 . S
C1515 C1517 1.327 . S
C1515 C1521 1.429 . S
C1516 C1508 1.574 . S
C1516 H1511 0.949 . S
C1516 C1522 1.368 . S
C1517 C1501 1.349 . S
C1517 H1509 0.950 . S
C1517 C1515 1.327 . S
C1518 C1506 1.349 . S
C1518 H1512 0.950 . S
C1518 C1519 1.327 . S
C1519 H1513 0.950 . S
C1519 C1518 1.327 . S
C1519 C1523 1.429 . S
C1520 C1503 1.574 . S
C1520 H1514 0.949 . S
C1520 C1524 1.368 . S
C1521 C1502 1.429 . S
C1521 C1515 1.429 . S
C1521 C1522 1.523 . S
C1522 C1503 1.368 . S
C1522 C1516 1.368 . S
C1522 C1521 1.523 . S
C1523 C1507 1.429 . S
C1523 C1519 1.429 . S
C1523 C1524 1.523 . S
C1524 C1508 1.368 . S
C1524 C1520 1.368 . S
C1524 C1523 1.523 . S
H1525 C1500 0.950 . S
H1526 C1502 0.950 . S
H1527 C1503 0.949 . S
H1528 C1505 0.950 . S
H1529 C1507 0.950 . S
C1530 C1531 1.349 . S
C1530 C1532 1.327 . S
C1530 H1555 0.950 . S
C1531 C1530 1.349 . S
C1531 C1547 1.349 . S
C1532 C1530 1.327 . S
C1532 C1551 1.429 . S
C1532 H1556 0.950 . S
C1533 C1550 1.574 . S
C1533 C1552 1.368 . S
C1533 H1557 0.949 . S
H1534 C1538 0.949 . S
C1535 C1536 1.349 . S
C1535 C1537 1.327 . S
C1535 H1558 0.950 . S
C1536 C1535 1.349 . S
C1536 C1548 1.349 . S
C1537 C1535 1.327 . S
C1537 C1553 1.429 . S
C1537 H1559 0.950 . S
C1538 H1534 0.949 . S
C1538 C1546 1.574 . S
C1538 C1554 1.368 . S
H1539 C1547 0.950 . S
H1540 C1545 0.950 . S
H1541 C1546 0.949 . S
H1542 C1548 0.950 . S
H1543 C1549 0.950 . S
H1544 C1550 0.949 . S
C1545 H1540 0.950 . S
C1545 C1547 1.327 . S
C1545 C1551 1.429 . S
C1546 C1538 1.574 . S
C1546 H1541 0.949 . S
C1546 C1552 1.368 . S
C1547 C1531 1.349 . S
C1547 H1539 0.950 . S
C1547 C1545 1.327 . S
C1548 C1536 1.349 . S
C1548 H1542 0.950 . S
C1548 C1549 1.327 . S
C1549 H1543 0.950 . S
C1549 C1548 1.327 . S
C1549 C1553 1.429 . S
C1550 C1533 1.574 . S
C1550 H1544 0.949 . S
C1550 C1554 1.368 . S
C1551 C1532 1.429 . S
C1551 C1545 1.429 . S
C1551 C1552 1.523 . S
C1552 C1533 1.368 . S
C1552 C1546 1.368 . S
C1552 C1551 1.523 . S
C1553 C1537 1.429 . S
C1553 C1549 1.429 . S
C1553 C1554 1.523 . S
C1554 C1538 1.368 . S
C1554 C1550 1.368 . S
C1554 C1553 1.523 . S
H1555 C1530 0.950 . S
H1556 C1532 0.950 . S
H1557 C1533 0.949 . S
H1558 C1535 0.950 . S
H1559 C1537 0.950 . S
C481 C2 0.981 . S
C486 C322 0.981 . S
C511 C42 0.981 . S
C516 C362 0.981 . S
C541 C82 0.981 . S
C546 C402 0.981 . S
C571 C442 0.981 . S
C576 C122 0.981 . S
C601 C162 0.981 . S
C606 C242 0.981 . S
C631 C282 0.981 . S
C636 C202 0.981 . S
C661 C426 1.684 . S
C666 C26 1.684 . S
C691 C466 1.684 . S
C696 C66 1.684 . S
C721 C106 1.684 . S
C726 C266 1.684 . S
C751 C306 1.684 . S
C756 C146 1.684 . S
C781 C346 1.684 . S
C786 C186 1.684 . S
C811 C226 1.684 . S
C816 C386 1.684 . S
C841 C283 4.310 . S
C846 C3 4.310 . S
C871 C323 4.310 . S
C876 C43 4.310 . S
C901 C363 4.310 . S
C906 C83 4.310 . S
C931 C123 4.310 . S
C936 C403 4.310 . S
C961 C163 4.310 . S
C966 C443 4.310 . S
C991 C203 4.310 . S
C996 C243 4.310 . S
C1021 C15 0.741 . S
C1026 C135 0.741 . S
C1051 C55 0.741 . S
C1056 C175 0.741 . S
C1081 C95 0.741 . S
C1086 C215 0.741 . S
C1111 C375 0.741 . S
C1116 C255 0.741 . S
C1141 C295 0.741 . S
C1146 C415 0.741 . S
C1171 C455 0.741 . S
C1176 C335 0.741 . S
C1201 C289 0.656 . S
C1206 C9 0.656 . S
C1231 C329 0.656 . S
C1236 C49 0.656 . S
C1261 C89 0.656 . S
C1266 C369 0.656 . S
C1291 C409 0.656 . S
C1296 C129 0.656 . S
C1321 C449 0.656 . S
C1326 C169 0.656 . S
C1351 C209 0.656 . S
C1356 C249 0.656 . S
C1381 C22 4.533 . S
C1386 C422 4.533 . S
C1411 C62 4.533 . S
C1416 C462 4.533 1_556 S
C1441 C102 4.533 1_554 S
C1446 C262 4.533 . S
C1471 C142 4.533 . S
C1476 C302 4.533 . S
C1501 C182 4.533 . S
C1506 C342 4.533 1_556 S
C1531 C382 4.533 . S
C1536 C222 4.533 1_554 S
