# Generated by pormake.
# Topology tfs, (6)-cn, num edge types: 1
# Building blocks:
#     Node 0, Type 0, BuildingBlock: BETDAH_clean_sbu_0, # of connection points: 6
#     Node 1, Type 0, BuildingBlock: BETDAH_clean_sbu_0, # of connection points: 6
#     Node 2, Type 0, BuildingBlock: BETDAH_clean_sbu_0, # of connection points: 6
#     Node 3, Type 0, BuildingBlock: BETDAH_clean_sbu_0, # of connection points: 6
#     Node 4, Type 0, BuildingBlock: BETDAH_clean_sbu_0, # of connection points: 6
#     Node 5, Type 0, BuildingBlock: BETDAH_clean_sbu_0, # of connection points: 6
#     Edge 6, Type (0, 0), BuildingBlock: EZIPEK_clean_linker_0, # of connection points: 2
#     Edge 7, Type (0, 0), BuildingBlock: EZIPEK_clean_linker_0, # of connection points: 2
#     Edge 8, Type (0, 0), BuildingBlock: EZIPEK_clean_linker_0, # of connection points: 2
#     Edge 9, Type (0, 0), BuildingBlock: EZIPEK_clean_linker_0, # of connection points: 2
#     Edge 10, Type (0, 0), BuildingBlock: EZIPEK_clean_linker_0, # of connection points: 2
#     Edge 11, Type (0, 0), BuildingBlock: EZIPEK_clean_linker_0, # of connection points: 2
#     Edge 12, Type (0, 0), BuildingBlock: EZIPEK_clean_linker_0, # of connection points: 2
#     Edge 13, Type (0, 0), BuildingBlock: EZIPEK_clean_linker_0, # of connection points: 2
#     Edge 14, Type (0, 0), BuildingBlock: EZIPEK_clean_linker_0, # of connection points: 2
#     Edge 15, Type (0, 0), BuildingBlock: EZIPEK_clean_linker_0, # of connection points: 2
#     Edge 16, Type (0, 0), BuildingBlock: EZIPEK_clean_linker_0, # of connection points: 2
#     Edge 17, Type (0, 0), BuildingBlock: EZIPEK_clean_linker_0, # of connection points: 2
#     Edge 18, Type (0, 0), BuildingBlock: EZIPEK_clean_linker_0, # of connection points: 2
#     Edge 19, Type (0, 0), BuildingBlock: EZIPEK_clean_linker_0, # of connection points: 2
#     Edge 20, Type (0, 0), BuildingBlock: EZIPEK_clean_linker_0, # of connection points: 2
#     Edge 21, Type (0, 0), BuildingBlock: EZIPEK_clean_linker_0, # of connection points: 2
#     Edge 22, Type (0, 0), BuildingBlock: EZIPEK_clean_linker_0, # of connection points: 2
#     Edge 23, Type (0, 0), BuildingBlock: EZIPEK_clean_linker_0, # of connection points: 2
# Relax obj value: 0.603
# Max RMSD: 0.480
# Mean RMSD: 0.367
data_MOF--net-tfs--node1-BETDAH_clean_sbu_0--edge1-EZIPEK_clean_linker_0
_symmetry_space_group_name_H-M    P1
_symmetry_Int_Tables_number       1
_symmetry_cell_setting            triclinic
loop_
_symmetry_equiv_pos_as_xyz
'x, y, z'
_cell_length_a     44.594774
_cell_length_b     41.474339
_cell_length_c     9.7124254
_cell_angle_alpha  98.112281
_cell_angle_beta   91.144628
_cell_angle_gamma 129.16797
loop_
_atom_site_label
_atom_site_type_symbol
_atom_site_fract_x
_atom_site_fract_y
_atom_site_fract_z
_atom_type_partial_charge
Ho0 Ho 0.33097 0.45995 0.50806 0.0
Ho1 Ho 0.3063 0.51268 0.44983 0.0
C2 C 0.23962 0.42056 0.50057 0.0
C3 C 0.34527 0.41277 0.58711 0.0
C4 C 0.36787 0.39786 0.55435 0.0
C5 C 0.39504 0.40567 0.6598 0.0
C6 C 0.41364 0.38827 0.63586 0.0
C7 C 0.40534 0.3623 0.50608 0.0
C8 C 0.37863 0.35493 0.39983 0.0
C9 C 0.36016 0.37249 0.42345 0.0
C10 C 0.31789 0.459 0.23341 0.0
C11 C 0.39765 0.55499 0.45383 0.0
C12 C 0.29512 0.56188 0.37191 0.0
C13 C 0.30903 0.60391 0.44259 0.0
C14 C 0.2962 0.6231 0.38489 0.0
C15 C 0.30537 0.66034 0.46057 0.0
C16 C 0.32739 0.67883 0.59531 0.0
C17 C 0.34147 0.66045 0.65075 0.0
C18 C 0.33246 0.62332 0.57472 0.0
C19 C 0.32404 0.51839 0.7269 0.0
O20 O 0.26841 0.42365 0.5643 0.0
O21 O 0.24733 0.44807 0.42276 0.0
O22 O 0.31586 0.39861 0.49418 0.0
O23 O 0.36451 0.45252 0.64685 0.0
O24 O 0.34439 0.45859 0.28733 0.0
O25 O 0.29887 0.45857 0.32844 0.0
O26 O 0.36907 0.55451 0.41012 0.0
O27 O 0.39097 0.52376 0.50956 0.0
O28 O 0.32172 0.56012 0.32851 0.0
O29 O 0.27062 0.53094 0.43578 0.0
O30 O 0.29976 0.52246 0.67788 0.0
O31 O 0.33961 0.51488 0.62636 0.0
H32 H 0.40131 0.4246 0.76215 0.0
H33 H 0.43413 0.39455 0.71954 0.0
H34 H 0.3717 0.33511 0.29882 0.0
H35 H 0.33928 0.36545 0.33978 0.0
H36 H 0.27796 0.6085 0.28359 0.0
H37 H 0.29399 0.67386 0.4165 0.0
H38 H 0.35815 0.67394 0.75487 0.0
H39 H 0.34253 0.60886 0.62124 0.0
Ho40 Ho 0.87895 0.17086 0.44333 0.0
Ho41 Ho 0.79316 0.14607 0.35253 0.0
C42 C 0.79756 0.07413 0.4304 0.0
C43 C 0.94698 0.20249 0.56998 0.0
C44 C 0.98951 0.2334 0.55337 0.0
C45 C 1.00546 0.27028 0.49927 0.0
C46 C 0.04586 0.29949 0.49028 0.0
C47 C 0.07143 0.29266 0.53486 0.0
C48 C 0.05536 0.25563 0.58771 0.0
C49 C 1.01506 0.22649 0.5967 0.0
C50 C 0.85402 0.148 0.1656 0.0
C51 C 0.87412 0.23878 0.33066 0.0
C52 C 0.73225 0.13304 0.23732 0.0
C53 C 0.71256 0.15202 0.26212 0.0
C54 C 0.72344 0.18664 0.20278 0.0
C55 C 0.70358 0.20284 0.22203 0.0
C56 C 0.672 0.18462 0.29975 0.0
C57 C 0.66103 0.15005 0.35861 0.0
C58 C 0.68114 0.13423 0.34096 0.0
C59 C 0.81877 0.16966 0.62775 0.0
O60 O 0.835 0.10432 0.48763 0.0
O61 O 0.77787 0.0821 0.35661 0.0
O62 O 0.92457 0.16646 0.47866 0.0
O63 O 0.92915 0.21775 0.60324 0.0
O64 O 0.88854 0.16327 0.21857 0.0
O65 O 0.83337 0.13805 0.26357 0.0
O66 O 0.83589 0.2138 0.33084 0.0
O67 O 0.89626 0.22959 0.37103 0.0
O68 O 0.73086 0.11239 0.33094 0.0
O69 O 0.76613 0.15529 0.19061 0.0
O70 O 0.78378 0.15331 0.57735 0.0
O71 O 0.83934 0.18032 0.52995 0.0
H72 H 0.98677 0.27673 0.46486 0.0
H73 H 0.05725 0.32769 0.44937 0.0
H74 H 0.07414 0.24943 0.62338 0.0
H75 H 1.00386 0.19858 0.63924 0.0
H76 H 0.74715 0.20107 0.14031 0.0
H77 H 0.71248 0.22923 0.17425 0.0
H78 H 0.63662 0.13505 0.4178 0.0
H79 H 0.67164 0.10752 0.38796 0.0
Ho80 Ho 0.64306 0.79341 0.42261 0.0
Ho81 Ho 0.5944 0.82231 0.5064 0.0
C82 C 0.68895 0.89464 0.47925 0.0
C83 C 0.66673 0.75659 0.28804 0.0
C84 C 0.70125 0.7604 0.2651 0.0
C85 C 0.69928 0.73641 0.14251 0.0
C86 C 0.72673 0.73043 0.13211 0.0
C87 C 0.75647 0.74844 0.24436 0.0
C88 C 0.76027 0.77511 0.36267 0.0
C89 C 0.73278 0.78111 0.37306 0.0
C90 C 0.64165 0.81014 0.69577 0.0
C91 C 0.54649 0.72205 0.43359 0.0
C92 C 0.57169 0.85519 0.66988 0.0
C93 C 0.59136 0.89585 0.76565 0.0
C94 C 0.56897 0.90564 0.82294 0.0
C95 C 0.58721 0.94434 0.91313 0.0
C96 C 0.62821 0.97409 0.94652 0.0
C97 C 0.65064 0.96361 0.89347 0.0
C98 C 0.63216 0.92452 0.80319 0.0
C99 C 0.59358 0.80333 0.23245 0.0
O100 O 0.69139 0.86438 0.43744 0.0
O101 O 0.65633 0.88558 0.51937 0.0
O102 O 0.65676 0.75213 0.4139 0.0
O103 O 0.66211 0.78054 0.2332 0.0
O104 O 0.67181 0.81646 0.64838 0.0
O105 O 0.61426 0.7928 0.59774 0.0
O106 O 0.54479 0.75257 0.4762 0.0
O107 O 0.57949 0.7307 0.39961 0.0
O108 O 0.57918 0.83164 0.70796 0.0
O109 O 0.57207 0.85599 0.53529 0.0
O110 O 0.56485 0.79987 0.28222 0.0
O111 O 0.62167 0.82104 0.32815 0.0
H112 H 0.67501 0.71995 0.0587 0.0
H113 H 0.72337 0.70963 0.04043 0.0
H114 H 0.78301 0.78907 0.45035 0.0
H115 H 0.73472 0.79961 0.46887 0.0
H116 H 0.53742 0.88354 0.79691 0.0
H117 H 0.56924 0.95148 0.95459 0.0
H118 H 0.68217 0.98581 0.91936 0.0
H119 H 0.6495 0.91665 0.76171 0.0
Ho120 Ho 0.91502 0.59386 0.18356 0.0
Ho121 Ho 0.93431 0.53696 0.06587 0.0
C122 C 0.99764 0.61981 0.27823 0.0
C123 C 0.90571 0.64407 0.32507 0.0
C124 C 0.88692 0.66224 0.3034 0.0
C125 C 0.88307 0.68263 0.42075 0.0
C126 C 0.86341 0.69819 0.40416 0.0
C127 C 0.84741 0.69356 0.26986 0.0
C128 C 0.85174 0.67371 0.15185 0.0
C129 C 0.87139 0.65803 0.16855 0.0
C130 C 0.93277 0.59815 0.91572 0.0
C131 C 0.84878 0.50661 -0.01887 0.0
C132 C 0.94627 0.48736 0.94432 0.0
C133 C 0.94094 0.45301 -0.00036 0.0
C134 C 0.91347 0.4326 0.09228 0.0
C135 C 0.90876 0.40097 0.1498 0.0
C136 C 0.93163 0.3894 0.11693 0.0
C137 C 0.95992 0.41045 0.0274 0.0
C138 C 0.96455 0.44219 0.96897 0.0
C139 C 0.9129 0.52846 0.32977 0.0
O140 O 0.9687 0.61764 0.32106 0.0
O141 O 0.9934 0.59812 0.15571 0.0
O142 O 0.88204 0.60308 0.31778 0.0
O143 O 0.93611 0.65744 0.26117 0.0
O144 O 0.90789 0.60165 0.96402 0.0
O145 O 0.9485 0.59482 0.01611 0.0
O146 O 0.87659 0.50639 0.93791 0.0
O147 O 0.85549 0.53492 0.08808 0.0
O148 O 0.97439 0.52552 0.01507 0.0
O149 O 0.91432 0.48155 0.91271 0.0
O150 O 0.9357 0.52222 0.2796 0.0
O151 O 0.90014 0.53528 0.23077 0.0
H152 H 0.8947 0.68587 0.52551 0.0
H153 H 0.86001 0.71314 0.49618 0.0
H154 H 0.83922 0.6696 0.04767 0.0
H155 H 0.87391 0.64206 0.07698 0.0
H156 H 0.89538 0.44089 0.11959 0.0
H157 H 0.88663 0.38481 0.21776 0.0
H158 H 0.97749 0.40148 -7e-05 0.0
H159 H 0.9863 0.45806 0.89955 0.0
Ho160 Ho 0.29287 0.85458 0.97276 0.0
Ho161 Ho 0.38115 0.9183 0.93561 0.0
C162 C 0.33383 0.95211 0.00192 0.0
C163 C 0.22293 0.80827 0.03611 0.0
C164 C 0.18661 0.77058 0.94974 0.0
C165 C 0.15061 0.76012 0.97125 0.0
C166 C 0.11809 0.73158 0.867 0.0
C167 C 0.12172 0.71378 0.74084 0.0
C168 C 0.15698 0.7223 0.72371 0.0
C169 C 0.1891 0.75058 0.82715 0.0
C170 C 0.30813 0.86057 0.70596 0.0
C171 C 0.33806 0.81992 0.87774 0.0
C172 C 0.45035 0.98122 0.89557 0.0
C173 C 0.49112 0.99997 0.93891 0.0
C174 C 0.50832 0.98626 0.8593 0.0
C175 C 0.54641 1.00322 0.90249 0.0
C176 C 0.5682 0.03423 0.02616 0.0
C177 C 0.55173 0.04936 0.10279 0.0
C178 C 0.51349 0.03243 0.05937 0.0
C179 C 0.36521 0.89266 0.18285 0.0
O180 O 0.30676 0.91723 0.0475 0.0
O181 O 0.3612 0.95607 0.93561 0.0
O182 O 0.24868 0.80436 0.0758 0.0
O183 O 0.23859 0.84256 -0.01457 0.0
O184 O 0.27735 0.82671 0.73869 0.0
O185 O 0.32577 0.88967 0.81214 0.0
O186 O 0.36395 0.85569 0.83279 0.0
O187 O 0.3137 0.81661 0.96353 0.0
O188 O 0.43244 0.98385 -0.00406 0.0
O189 O 0.42777 0.94444 0.80739 0.0
O190 O 0.39528 0.90202 0.12687 0.0
O191 O 0.348 0.90099 0.11254 0.0
H192 H 0.1483 0.77592 0.06398 0.0
H193 H 0.09089 0.72525 0.88103 0.0
H194 H 0.16028 0.70906 0.62658 0.0
H195 H 0.21664 0.75931 0.80628 0.0
H196 H 0.4923 0.9621 0.76435 0.0
H197 H 0.55875 0.99159 0.83966 0.0
H198 H 0.56816 0.0738 0.19674 0.0
H199 H 0.50132 0.04447 0.12107 0.0
Ho200 Ho 0.49301 0.2175 0.39842 0.0
Ho201 Ho 0.56643 0.30823 0.37418 0.0
C202 C 0.48281 0.28855 0.41809 0.0
C203 C 0.44746 0.14692 0.48454 0.0
C204 C 0.41963 0.12482 0.58224 0.0
C205 C 0.41565 0.14633 0.69603 0.0
C206 C 0.39365 0.12474 0.80012 0.0
C207 C 0.37647 0.08199 0.79169 0.0
C208 C 0.37906 0.06047 0.67395 0.0
C209 C 0.40036 0.08166 0.57016 0.0
C210 C 0.50376 0.23175 0.13726 0.0
C211 C 0.57796 0.23922 0.36413 0.0
C212 C 0.61231 0.37595 0.27498 0.0
C213 C 0.63993 0.3886 0.17309 0.0
C214 C 0.62927 0.36186 0.04242 0.0
C215 C 0.65695 0.37263 0.95207 0.0
C216 C 0.69576 0.40971 -0.00605 0.0
C217 C 0.70605 0.4371 0.12223 0.0
C218 C 0.67828 0.42671 0.21089 0.0
C219 C 0.55596 0.29242 0.63272 0.0
O220 O 0.46664 0.24959 0.43571 0.0
O221 O 0.51945 0.3148 0.3912 0.0
O222 O 0.43648 0.15484 0.37724 0.0
O223 O 0.48375 0.17782 0.54124 0.0
O224 O 0.46942 0.20389 0.17107 0.0
O225 O 0.52967 0.24587 0.23728 0.0
O226 O 0.59146 0.27523 0.32575 0.0
O227 O 0.54312 0.21497 0.40781 0.0
O228 O 0.62217 0.37102 0.39363 0.0
O229 O 0.57519 0.3461 0.22439 0.0
O230 O 0.59063 0.31939 0.59861 0.0
O231 O 0.53003 0.27962 0.53492 0.0
H232 H 0.43077 0.17991 0.70717 0.0
H233 H 0.39187 0.1418 0.89033 0.0
H234 H 0.36616 0.02761 0.66599 0.0
H235 H 0.40353 0.06476 0.4843 0.0
H236 H 0.59992 0.33215 0.01242 0.0
H237 H 0.64853 0.35136 0.85292 0.0
H238 H 0.73598 0.46599 0.1556 0.0
H239 H 0.68704 0.44772 0.31112 0.0
C240 C 0.43684 0.29603 0.54585 0.0
C241 C 0.4608 0.30522 0.43714 0.0
C242 C 0.45113 0.355 0.38385 0.0
C243 C 0.42424 0.34244 0.48182 0.0
N244 N 0.38496 0.2936 0.63344 0.0
N245 N 0.48171 0.33608 0.22935 0.0
C246 C 0.41513 0.3107 0.55583 0.0
C247 C 0.46538 0.33265 0.34966 0.0
N248 N 0.43619 0.27546 0.6454 0.0
N249 N 0.46418 0.38926 0.32601 0.0
H250 H 0.49108 0.31923 0.19566 0.0
H251 H 0.4819 0.35193 0.15466 0.0
H252 H 0.45484 0.40674 0.349 0.0
H253 H 0.48706 0.4028 0.26616 0.0
H254 H 0.42274 0.27239 0.73477 0.0
H255 H 0.45237 0.26539 0.64844 0.0
H256 H 0.37406 0.26708 0.67673 0.0
H257 H 0.36827 0.3032 0.64289 0.0
C258 C 0.17928 0.39585 0.61571 0.0
C259 C 0.19743 0.38635 0.51856 0.0
C260 C 0.13287 0.31589 0.42844 0.0
C261 C 0.11509 0.32471 0.53007 0.0
N262 N 0.12309 0.37018 0.7377 0.0
N263 N 0.19259 0.33493 0.34675 0.0
C264 C 0.13886 0.36394 0.62846 0.0
C265 C 0.17448 0.34552 0.42965 0.0
N266 N 0.20056 0.43589 0.69439 0.0
N267 N 0.10971 0.27988 0.3267 0.0
H268 H 0.22258 0.35604 0.34282 0.0
H269 H 0.17866 0.30445 0.29037 0.0
H270 H 0.07945 0.25765 0.32245 0.0
H271 H 0.11986 0.27345 0.24043 0.0
H272 H 0.1884 0.4468 0.75412 0.0
H273 H 0.23036 0.45923 0.69316 0.0
H274 H 0.13953 0.39577 0.82208 0.0
H275 H 0.09385 0.34782 0.75059 0.0
C276 C 0.75943 0.99547 0.32539 0.0
C277 C 0.77633 0.02859 0.44574 0.0
C278 C 0.74085 0.97388 0.59123 0.0
C279 C 0.72259 0.94055 0.47024 0.0
N280 N 0.72244 0.92294 0.21978 0.0
N281 N 0.79596 0.04667 0.69674 0.0
C282 C 0.73452 0.95224 0.33834 0.0
C283 C 0.77105 0.0171 0.57986 0.0
N284 N 0.76812 1.00395 0.19499 0.0
N285 N 0.72901 0.96464 0.71817 0.0
H286 H 0.81933 0.07809 0.69414 0.0
H287 H 0.7959 0.03905 0.79454 0.0
H288 H 0.70846 0.93368 0.73125 0.0
H289 H 0.73739 0.98759 0.80634 0.0
H290 H 0.78811 0.03457 0.17511 0.0
H291 H 0.78811 0.03457 0.17511 0.0
H292 H 0.70457 0.89033 0.21573 0.0
H293 H 0.70457 0.89033 0.21573 0.0
C294 C 0.78442 0.68001 0.28001 0.0
C295 C 0.82384 0.70707 0.25499 0.0
C296 C 0.81807 0.75978 0.20896 0.0
C297 C 0.77989 0.73438 0.24658 0.0
N298 N 0.72831 0.6733 0.33714 0.0
N299 N 0.88003 0.77422 0.20959 0.0
C300 C 0.76345 0.69524 0.28714 0.0
C301 C 0.84119 0.74739 0.22281 0.0
N302 N 0.76678 0.63936 0.29383 0.0
N303 N 0.83182 0.79523 0.15743 0.0
H304 H 0.89754 0.76573 0.21582 0.0
H305 H 0.89558 0.80576 0.20159 0.0
H306 H 0.81583 0.8055 0.14862 0.0
H307 H 0.85771 0.81277 0.11422 0.0
H308 H 0.73695 0.61654 0.29632 0.0
H309 H 0.78134 0.62719 0.29099 0.0
H310 H 0.717 0.64729 0.38387 0.0
H311 H 0.71165 0.68296 0.34245 0.0
C312 C 0.06944 0.64572 0.57534 0.0
C313 C 0.09044 0.68985 0.61913 0.0
C314 C 0.05449 0.68908 0.42311 0.0
C315 C 0.03413 0.64513 0.37732 0.0
N316 N 0.0282 0.58354 0.38922 0.0
N317 N 0.10976 0.75559 0.56908 0.0
C318 C 0.04363 0.62406 0.44658 0.0
C319 C 0.08493 0.71219 0.53858 0.0
N320 N 0.07342 0.62442 0.65926 0.0
N321 N 0.0443 0.70856 0.35692 0.0
H322 H 0.13248 0.77383 0.65296 0.0
H323 H 0.10996 0.7738 0.50487 0.0
H324 H 0.02447 0.69351 0.26455 0.0
H325 H 0.05416 0.73892 0.39658 0.0
H326 H 0.0563 0.59157 0.64035 0.0
H327 H 0.09177 0.63932 0.75521 0.0
H328 H 0.03661 0.5678 0.42811 0.0
H329 H 1.00977 0.56685 0.29403 0.0
C330 C 0.36974 0.02838 0.07855 0.0
C331 C 0.33413 0.98827 0.01657 0.0
C332 C 0.31884 0.02234 0.87929 0.0
C333 C 0.35874 0.05905 0.90811 0.0
N334 N 0.42143 0.1006 0.05158 0.0
N335 N 0.27103 0.94682 0.87742 0.0
C336 C 0.38363 0.06383 0.01719 0.0
C337 C 0.30681 0.98536 0.92671 0.0
N338 N 0.39098 0.03134 0.19006 0.0
N339 N 0.29358 0.02266 0.79918 0.0
H340 H 0.26134 0.91976 0.91477 0.0
H341 H 0.25139 0.94148 0.79858 0.0
H342 H 0.30294 0.04985 0.7631 0.0
H343 H 0.26354 0.99785 0.77889 0.0
H344 H 0.4168 0.05975 0.24487 0.0
H345 H 0.38036 1.00498 0.23415 0.0
H346 H 0.44251 0.10452 0.11829 0.0
H347 H 0.43211 0.12721 0.0095 0.0
C348 C 0.2989 0.74034 0.78465 0.0
C349 C 0.33564 0.78225 0.82479 0.0
C350 C 0.36793 0.75598 0.71693 0.0
C351 C 0.33148 0.71424 0.68383 0.0
N352 N 0.26489 0.66504 0.72751 0.0
N353 N 0.40585 0.82536 0.86865 0.0
C354 C 0.29791 0.70594 0.73183 0.0
C355 C 0.37045 0.78872 0.80272 0.0
N356 N 0.2646 0.73324 0.78531 0.0
N357 N 0.39993 0.76474 0.6636 0.0
H358 H 0.40864 0.84856 0.94082 0.0
H359 H 0.43179 0.83029 0.86525 0.0
H360 H 0.39922 0.74155 0.60141 0.0
H361 H 0.42621 0.7955 0.67192 0.0
H362 H 0.23753 0.70412 0.74233 0.0
H363 H 0.26331 0.75728 0.8119 0.0
H364 H 0.24092 0.65738 0.77483 0.0
H365 H 0.26306 0.63891 0.69012 0.0
C366 C 0.64075 0.25104 0.42602 0.0
C367 C 0.60194 0.2249 0.3523 0.0
C368 C 0.61245 0.1771 0.22999 0.0
C369 C 0.64906 0.20013 0.31464 0.0
N370 N 0.69625 0.25663 0.50683 0.0
N371 N 0.54834 0.1569 0.20702 0.0
C372 C 0.66273 0.23653 0.41641 0.0
C373 C 0.587 0.18607 0.26168 0.0
N374 N 0.65677 0.28976 0.50585 0.0
N375 N 0.60255 0.14766 0.11435 0.0
H376 H 0.52805 0.16106 0.22684 0.0
H377 H 0.53557 0.12651 0.15251 0.0
H378 H 0.62056 0.14057 0.08767 0.0
H379 H 0.57848 0.13344 0.03868 0.0
H380 H 0.68617 0.31228 0.54826 0.0
H381 H 0.64131 0.30065 0.52337 0.0
H382 H 0.70562 0.28024 0.59388 0.0
H383 H 0.71331 0.24745 0.50075 0.0
C384 C 0.49559 0.64106 0.33505 0.0
C385 C 0.51101 0.67713 0.44348 0.0
C386 C 0.45329 0.63156 0.56256 0.0
C387 C 0.43855 0.59549 0.45739 0.0
N388 N 0.44841 0.56408 0.25576 0.0
N389 N 0.50952 0.70171 0.68271 0.0
C390 C 0.46075 0.59971 0.34787 0.0
C391 C 0.49126 0.67083 0.56354 0.0
N392 N 0.51296 0.64629 0.21666 0.0
N393 N 0.43058 0.62881 0.66072 0.0
H394 H 0.53794 0.73013 0.69249 0.0
H395 H 0.49828 0.6972 0.77764 0.0
H396 H 0.40335 0.60052 0.66849 0.0
H397 H 0.43746 0.65525 0.72771 0.0
H398 H 0.50052 0.62273 0.12654 0.0
H399 H 0.53894 0.67503 0.20451 0.0
H400 H 0.46479 0.56382 0.18147 0.0
H401 H 0.42286 0.53388 0.2613 0.0
C402 C 0.93859 0.35584 0.29853 0.0
C403 C 0.92206 0.35171 0.16424 0.0
C404 C 0.87508 0.27457 0.13883 0.0
C405 C 0.89207 0.27797 0.27229 0.0
N406 N 0.9418 0.32184 0.4758 0.0
N407 N 0.88035 0.30795 0.94468 0.0
C408 C 0.92474 0.31862 0.35035 0.0
C409 C 0.89215 0.31129 0.08099 0.0
N410 N 0.96632 0.39548 0.37869 0.0
N411 N 0.8418 0.23642 0.06759 0.0
H412 H 0.89163 0.33411 0.89863 0.0
H413 H 0.86175 0.27935 0.87277 0.0
H414 H 0.83045 0.20743 0.09191 0.0
H415 H 0.82432 0.23336 -0.01471 0.0
H416 H 0.9766 0.40133 0.48377 0.0
H417 H 0.978 0.42313 0.34123 0.0
H418 H 0.96846 0.34953 0.52897 0.0
H419 H 0.93002 0.29638 0.5261 0.0
C420 C 0.61156 0.03092 0.17894 0.0
C421 C 0.60751 0.04855 0.0721 0.0
C422 C 0.65284 0.0461 0.94611 0.0
C423 C 0.64598 0.01683 0.02675 0.0
N424 N 0.64015 1.00085 0.25544 0.0
N425 N 0.63652 0.08942 0.89246 0.0
C426 C 0.63387 0.01751 0.15878 0.0
C427 C 0.63382 0.06331 0.97194 0.0
N428 N 0.59128 0.02333 0.29013 0.0
N429 N 0.6729 0.05242 0.835 0.0
H430 H 0.62016 0.09935 0.9061 0.0
H431 H 0.65567 0.10244 0.81892 0.0
H432 H 0.68561 0.03841 0.81528 0.0
H433 H 0.67705 0.07107 0.7641 0.0
H434 H 0.58984 1.00651 0.36343 0.0
H435 H 0.57588 0.03421 0.30924 0.0
H436 H 0.63338 1.00132 0.35728 0.0
H437 H 0.65507 0.98935 0.23369 0.0
C438 C 0.78729 0.48244 0.85124 0.0
C439 C 0.8079 0.47202 0.91743 0.0
C440 C 0.74635 0.40411 0.94027 0.0
C441 C 0.72735 0.42018 0.91189 0.0
N442 N 0.72546 0.46795 0.80791 0.0
N443 N 0.80801 0.42094 0.00938 0.0
C444 C 0.74639 0.45675 0.85256 0.0
C445 C 0.78768 0.4315 0.95256 0.0
N446 N 0.80734 0.51758 0.79225 0.0
N447 N 0.72487 0.3635 0.9614 0.0
H448 H 0.83827 0.43983 0.01724 0.0
H449 H 0.79518 0.39423 0.05367 0.0
H450 H 0.6945 0.3433 0.9535 0.0
H451 H 0.73648 0.34861 0.97289 0.0
H452 H 0.79435 0.52657 0.73681 0.0
H453 H 0.83736 0.53617 0.79112 0.0
H454 H 0.73762 0.49621 0.77478 0.0
H455 H 0.69516 0.44818 0.80536 0.0
C456 C 0.34669 0.48056 0.00969 0.0
C457 C 0.31663 0.46891 0.09287 0.0
C458 C 0.29697 0.49897 0.95373 0.0
C459 C 0.32638 0.50978 0.86862 0.0
N460 N 0.38907 0.52764 0.85759 0.0
N461 N 0.25343 0.45029 0.09886 0.0
C462 C 0.35416 0.5054 0.90842 0.0
C463 C 0.28893 0.47337 0.05242 0.0
N464 N 0.36572 0.46481 0.01752 0.0
N465 N 0.27879 0.51574 0.94917 0.0
H466 H 0.24432 0.42634 0.15399 0.0
H467 H 0.23106 0.45006 0.06352 0.0
H468 H 0.28798 0.53979 0.89462 0.0
H469 H 0.2591 0.51091 0.01727 0.0
H470 H 0.38598 0.47014 0.95162 0.0
H471 H 0.35682 0.441 0.07282 0.0
H472 H 0.41195 0.52876 0.89348 0.0
H473 H 0.39703 0.54959 0.79466 0.0
C474 C 0.87518 0.18922 0.96867 0.0
C475 C 0.84527 0.15355 0.02695 0.0
C476 C 0.79927 0.12657 0.81479 0.0
C477 C 0.82809 0.1638 0.76319 0.0
N478 N 0.88991 0.23482 0.80559 0.0
N479 N 0.77716 0.09107 0.0101 0.0
C480 C 0.86524 0.19597 0.84273 0.0
C481 C 0.80677 0.12351 0.95237 0.0
N482 N 0.91291 0.21824 0.03446 0.0
N483 N 0.76591 0.09215 0.72897 0.0
H484 H 0.78144 0.08208 0.09768 0.0
H485 H 0.74773 0.07378 0.97314 0.0
H486 H 0.76024 0.08973 0.62224 0.0
H487 H 0.74621 0.06279 0.7572 0.0
H488 H 0.9362 0.23824 -0.01871 0.0
H489 H 0.9217 0.22364 0.14056 0.0
H490 H 0.91527 0.26142 0.86968 0.0
H491 H 0.88332 0.24218 0.71764 0.0
C492 C 0.6277 0.84364 0.04768 0.0
C493 C 0.60013 0.80379 0.08542 0.0
C494 C 0.6055 0.76827 0.87692 0.0
C495 C 0.63399 0.80841 0.8419 0.0
N496 N 0.67962 0.88391 0.90804 0.0
N497 N 0.55656 0.72788 0.02785 0.0
C498 C 0.64714 0.84608 0.93132 0.0
C499 C 0.58722 0.76586 -0.00244 0.0
N500 N 0.63478 0.8788 0.12295 0.0
N501 N 0.59709 0.73294 0.79635 0.0
H502 H 0.54164 0.72615 0.11171 0.0
H503 H 0.54378 0.6985 0.96497 0.0
H504 H 0.61121 0.7345 0.70998 0.0
H505 H 0.57833 0.70273 0.81925 0.0
H506 H 0.6523 0.90836 0.09462 0.0
H507 H 0.62029 0.87739 0.20794 0.0
H508 H 0.69145 0.91332 0.96825 0.0
H509 H 0.69703 0.8849 0.83567 0.0
C510 C 0.95224 0.57074 0.71838 0.0
C511 C 0.93184 0.58529 0.76227 0.0
C512 C 0.89253 0.55345 0.52918 0.0
C513 C 0.91367 0.54017 0.48372 0.0
N514 N 0.95043 0.51942 0.55678 0.0
N515 N 0.89468 0.6054 0.68657 0.0
C516 C 0.9399 0.54401 0.58429 0.0
C517 C 0.90536 0.58091 0.66134 0.0
N518 N 0.98526 0.58502 0.79974 0.0
N519 N 0.8582 0.5369 0.45188 0.0
H520 H 0.9077 0.63026 0.77315 0.0
H521 H 0.87734 0.60509 0.61183 0.0
H522 H 0.84614 0.51354 0.36098 0.0
H523 H 0.83959 0.54234 0.48791 0.0
H524 H 1.00259 0.5773 0.76928 0.0
H525 H 0.9985 0.60954 0.88743 0.0
H526 H 0.96707 0.51859 0.63068 0.0
H527 H 0.93744 0.49492 0.46911 0.0
C528 C 0.36012 0.91735 0.41793 0.0
C529 C 0.3586 0.88658 0.32701 0.0
C530 C 0.32369 0.83679 0.48468 0.0
C531 C 0.32119 0.86617 0.56678 0.0
N532 N 0.32791 0.92931 0.58741 0.0
N533 N 0.33997 0.81734 0.26853 0.0
C534 C 0.33702 0.90516 0.52708 0.0
C535 C 0.34103 0.84646 0.35955 0.0
N536 N 0.38401 0.9584 0.39988 0.0
N537 N 0.31045 0.80032 0.52702 0.0
H538 H 0.35565 0.82515 0.18351 0.0
H539 H 0.32297 0.78547 0.27467 0.0
H540 H 0.29448 0.78997 0.60989 0.0
H541 H 0.31645 0.78088 0.48314 0.0
H542 H 0.38883 0.98309 0.47093 0.0
H543 H 0.4022 0.96827 0.32197 0.0
H544 H 0.33563 0.95581 0.55136 0.0
H545 H 0.30846 0.91991 0.66082 0.0
C546 C 0.50203 0.26308 0.9415 0.0
C547 C 0.51261 0.24133 -0.00318 0.0
C548 C 0.5543 0.25477 0.81463 0.0
C549 C 0.54655 0.28012 0.76912 0.0
N550 N 0.52141 0.31717 0.80955 0.0
N551 N 0.54696 0.2141 -0.01336 0.0
C552 C 0.52266 0.28666 0.83806 0.0
C553 C 0.53832 0.23655 0.9334 0.0
N554 N 0.47199 0.26076 -0.01406 0.0
N555 N 0.57589 0.24724 0.74208 0.0
H556 H 0.53141 0.19565 0.06025 0.0
H557 H 0.56934 0.21394 0.95971 0.0
H558 H 0.59012 0.26245 0.66071 0.0
H559 H 0.57885 0.22509 0.7588 0.0
H560 H 0.46073 0.27281 0.93864 0.0
H561 H 0.45601 0.24358 0.06175 0.0
H562 H 0.50777 0.32648 0.86758 0.0
H563 H 0.5373 0.33605 0.73679 0.0
loop_
_geom_bond_atom_site_label_1
_geom_bond_atom_site_label_2
_geom_bond_distance
_geom_bond_site_symmetry_2
_ccdc_geom_bond_type
Ho0 C3 2.811 . S
Ho0 O20 2.322 . S
Ho0 O22 2.378 . S
Ho0 O23 2.524 . S
Ho0 O24 2.381 . S
Ho0 O25 2.669 . S
Ho0 O27 2.346 . S
Ho0 O31 2.305 1_556 S
Ho1 C12 2.811 1_556 S
Ho1 O21 2.346 . S
Ho1 O25 2.305 . S
Ho1 O26 2.322 1_556 S
Ho1 O28 2.378 1_556 S
Ho1 O29 2.524 . S
Ho1 O30 2.381 1_556 S
Ho1 O31 2.669 1_556 S
C2 O20 1.259 . S
C2 O21 1.268 . S
C3 Ho0 2.811 . S
C3 C4 1.488 . S
C3 O22 1.215 . S
C3 O23 1.289 . S
C4 C3 1.488 . S
C4 C5 1.348 . S
C4 C9 1.413 . S
C5 C4 1.348 . S
C5 C6 1.442 . S
C5 H32 0.930 1_556 S
C6 C5 1.442 . S
C6 C7 1.381 . S
C6 H33 0.931 . S
C7 C6 1.381 . S
C7 C8 1.321 . S
C8 C7 1.321 . S
C8 C9 1.403 . S
C8 H34 0.934 . S
C9 C4 1.413 . S
C9 C8 1.403 . S
C9 H35 0.930 . S
C10 O24 1.275 . S
C10 O25 1.256 . S
C11 O26 1.259 . S
C11 O27 1.268 1_554 S
C12 Ho1 2.811 1_554 S
C12 C13 1.488 . S
C12 O28 1.215 . S
C12 O29 1.289 1_554 S
C13 C12 1.488 . S
C13 C14 1.348 1_554 S
C13 C18 1.413 . S
C14 C13 1.348 1_556 S
C14 C15 1.442 . S
C14 H36 0.930 . S
C15 C14 1.442 . S
C15 C16 1.381 1_556 S
C15 H37 0.931 . S
C16 C15 1.381 1_554 S
C16 C17 1.321 . S
C17 C16 1.321 . S
C17 C18 1.403 . S
C17 H38 0.934 . S
C18 C13 1.413 . S
C18 C17 1.403 . S
C18 H39 0.930 . S
C19 O30 1.275 . S
C19 O31 1.256 . S
O20 Ho0 2.322 . S
O20 C2 1.259 . S
O21 Ho1 2.346 . S
O21 C2 1.268 . S
O22 Ho0 2.378 . S
O22 C3 1.215 . S
O23 Ho0 2.524 . S
O23 C3 1.289 . S
O24 Ho0 2.381 . S
O24 C10 1.275 . S
O25 Ho0 2.669 . S
O25 Ho1 2.305 . S
O25 C10 1.256 . S
O26 Ho1 2.322 1_554 S
O26 C11 1.259 . S
O27 Ho0 2.346 . S
O27 C11 1.268 1_556 S
O28 Ho1 2.378 1_554 S
O28 C12 1.215 . S
O29 Ho1 2.524 . S
O29 C12 1.289 1_556 S
O30 Ho1 2.381 1_554 S
O30 C19 1.275 . S
O31 Ho0 2.305 1_554 S
O31 Ho1 2.669 1_554 S
O31 C19 1.256 . S
H32 C5 0.930 1_554 S
H33 C6 0.931 . S
H34 C8 0.934 . S
H35 C9 0.930 . S
H36 C14 0.930 . S
H37 C15 0.931 . S
H38 C17 0.934 . S
H39 C18 0.930 . S
Ho40 C43 2.811 . S
Ho40 O60 2.322 . S
Ho40 O62 2.378 . S
Ho40 O63 2.524 . S
Ho40 O64 2.381 1_554 S
Ho40 O65 2.669 1_554 S
Ho40 O67 2.346 . S
Ho40 O71 2.305 . S
Ho41 C52 2.811 1_554 S
Ho41 O61 2.346 . S
Ho41 O65 2.305 1_554 S
Ho41 O66 2.322 . S
Ho41 O68 2.378 . S
Ho41 O69 2.524 1_554 S
Ho41 O70 2.381 . S
Ho41 O71 2.669 . S
C42 O60 1.259 . S
C42 O61 1.268 . S
C43 Ho40 2.811 . S
C43 C44 1.488 . S
C43 O62 1.215 . S
C43 O63 1.289 . S
C44 C43 1.488 . S
C44 C45 1.348 . S
C44 C49 1.413 1_655 S
C45 C44 1.348 . S
C45 C46 1.442 1_655 S
C45 H72 0.930 . S
C46 C45 1.442 1_455 S
C46 C47 1.381 . S
C46 H73 0.931 . S
C47 C46 1.381 . S
C47 C48 1.321 . S
C48 C47 1.321 . S
C48 C49 1.403 . S
C48 H74 0.934 . S
C49 C44 1.413 1_455 S
C49 C48 1.403 . S
C49 H75 0.930 . S
C50 O64 1.275 . S
C50 O65 1.256 . S
C51 O66 1.259 . S
C51 O67 1.268 . S
C52 Ho41 2.811 1_556 S
C52 C53 1.488 . S
C52 O68 1.215 1_556 S
C52 O69 1.289 . S
C53 C52 1.488 . S
C53 C54 1.348 . S
C53 C58 1.413 . S
C54 C53 1.348 . S
C54 C55 1.442 . S
C54 H76 0.930 . S
C55 C54 1.442 . S
C55 C56 1.381 . S
C55 H77 0.931 . S
C56 C55 1.381 . S
C56 C57 1.321 . S
C57 C56 1.321 . S
C57 C58 1.403 . S
C57 H78 0.932 1_556 S
C58 C53 1.413 . S
C58 C57 1.403 . S
C58 H79 0.930 1_556 S
C59 O70 1.275 . S
C59 O71 1.256 . S
O60 Ho40 2.322 . S
O60 C42 1.259 . S
O61 Ho41 2.346 . S
O61 C42 1.268 . S
O62 Ho40 2.378 . S
O62 C43 1.215 . S
O63 Ho40 2.524 . S
O63 C43 1.289 . S
O64 Ho40 2.381 1_556 S
O64 C50 1.275 . S
O65 Ho40 2.669 1_556 S
O65 Ho41 2.305 1_556 S
O65 C50 1.256 . S
O66 Ho41 2.322 . S
O66 C51 1.259 . S
O67 Ho40 2.346 . S
O67 C51 1.268 . S
O68 Ho41 2.378 . S
O68 C52 1.215 1_554 S
O69 Ho41 2.524 1_556 S
O69 C52 1.289 . S
O70 Ho41 2.381 . S
O70 C59 1.275 . S
O71 Ho40 2.305 . S
O71 Ho41 2.669 . S
O71 C59 1.256 . S
H72 C45 0.930 . S
H73 C46 0.931 . S
H74 C48 0.934 . S
H75 C49 0.930 . S
H76 C54 0.930 . S
H77 C55 0.931 . S
H78 C57 0.932 1_554 S
H79 C58 0.930 1_554 S
Ho80 C83 2.811 . S
Ho80 O100 2.322 1_556 S
Ho80 O102 2.378 1_556 S
Ho80 O103 2.524 . S
Ho80 O104 2.381 1_556 S
Ho80 O105 2.669 1_556 S
Ho80 O107 2.346 1_556 S
Ho80 O111 2.305 . S
Ho81 C92 2.811 . S
Ho81 O101 2.346 1_554 S
Ho81 O105 2.305 . S
Ho81 O106 2.322 1_554 S
Ho81 O108 2.378 1_554 S
Ho81 O109 2.524 . S
Ho81 O110 2.381 1_554 S
Ho81 O111 2.669 1_554 S
C82 O100 1.259 1_556 S
C82 O101 1.268 . S
C83 Ho80 2.811 . S
C83 C84 1.488 . S
C83 O102 1.215 1_556 S
C83 O103 1.289 . S
C84 C83 1.488 . S
C84 C85 1.348 . S
C84 C89 1.413 . S
C85 C84 1.348 . S
C85 C86 1.442 . S
C85 H112 0.930 . S
C86 C85 1.442 . S
C86 C87 1.381 . S
C86 H113 0.931 . S
C87 C86 1.381 . S
C87 C88 1.321 . S
C88 C87 1.321 . S
C88 C89 1.403 . S
C88 H114 0.934 . S
C89 C84 1.413 . S
C89 C88 1.403 . S
C89 H115 0.930 1_556 S
C90 O104 1.275 . S
C90 O105 1.256 . S
C91 O106 1.259 1_554 S
C91 O107 1.268 . S
C92 Ho81 2.811 . S
C92 C93 1.488 . S
C92 O108 1.215 1_554 S
C92 O109 1.289 . S
C93 C92 1.488 . S
C93 C94 1.348 . S
C93 C98 1.413 . S
C94 C93 1.348 . S
C94 C95 1.442 . S
C94 H116 0.930 . S
C95 C94 1.442 . S
C95 C96 1.381 . S
C95 H117 0.931 . S
C96 C95 1.381 . S
C96 C97 1.321 . S
C97 C96 1.321 . S
C97 C98 1.403 . S
C97 H118 0.934 . S
C98 C93 1.413 . S
C98 C97 1.403 . S
C98 H119 0.930 1_554 S
C99 O110 1.275 . S
C99 O111 1.256 . S
O100 Ho80 2.322 1_554 S
O100 C82 1.259 1_554 S
O101 Ho81 2.346 1_556 S
O101 C82 1.268 . S
O102 Ho80 2.378 1_554 S
O102 C83 1.215 1_554 S
O103 Ho80 2.524 . S
O103 C83 1.289 . S
O104 Ho80 2.381 1_554 S
O104 C90 1.275 . S
O105 Ho80 2.669 1_554 S
O105 Ho81 2.305 . S
O105 C90 1.256 . S
O106 Ho81 2.322 1_556 S
O106 C91 1.259 1_556 S
O107 Ho80 2.346 1_554 S
O107 C91 1.268 . S
O108 Ho81 2.378 1_556 S
O108 C92 1.215 1_556 S
O109 Ho81 2.524 . S
O109 C92 1.289 . S
O110 Ho81 2.381 1_556 S
O110 C99 1.275 . S
O111 Ho80 2.305 . S
O111 Ho81 2.669 1_556 S
O111 C99 1.256 . S
H112 C85 0.930 . S
H113 C86 0.931 . S
H114 C88 0.934 . S
H115 C89 0.930 1_554 S
H116 C94 0.930 . S
H117 C95 0.931 . S
H118 C97 0.934 . S
H119 C98 0.930 1_556 S
Ho120 C123 2.811 . S
Ho120 O140 2.322 . S
Ho120 O142 2.378 1_554 S
Ho120 O143 2.524 . S
Ho120 O144 2.381 1_554 S
Ho120 O145 2.669 1_554 S
Ho120 O147 2.346 1_554 S
Ho120 O151 2.305 . S
Ho121 C132 2.811 . S
Ho121 O141 2.346 1_556 S
Ho121 O145 2.305 . S
Ho121 O146 2.322 . S
Ho121 O148 2.378 1_556 S
Ho121 O149 2.524 . S
Ho121 O150 2.381 1_556 S
Ho121 O151 2.669 1_556 S
C122 O140 1.259 . S
C122 O141 1.268 . S
C123 Ho120 2.811 . S
C123 C124 1.488 . S
C123 O142 1.215 1_554 S
C123 O143 1.289 . S
C124 C123 1.488 . S
C124 C125 1.348 . S
C124 C129 1.413 . S
C125 C124 1.348 . S
C125 C126 1.442 . S
C125 H152 0.930 . S
C126 C125 1.442 . S
C126 C127 1.381 . S
C126 H153 0.931 . S
C127 C126 1.381 . S
C127 C128 1.321 . S
C128 C127 1.321 . S
C128 C129 1.403 . S
C128 H154 0.934 . S
C129 C124 1.413 . S
C129 C128 1.403 . S
C129 H155 0.930 1_554 S
C130 O144 1.275 . S
C130 O145 1.256 . S
C131 O146 1.259 . S
C131 O147 1.268 . S
C132 Ho121 2.811 . S
C132 C133 1.488 . S
C132 O148 1.215 1_556 S
C132 O149 1.289 . S
C133 C132 1.488 . S
C133 C134 1.348 . S
C133 C138 1.413 . S
C134 C133 1.348 . S
C134 C135 1.442 . S
C134 H156 0.930 . S
C135 C134 1.442 . S
C135 C136 1.381 . S
C135 H157 0.931 . S
C136 C135 1.381 . S
C136 C137 1.321 . S
C137 C136 1.321 . S
C137 C138 1.403 . S
C137 H158 0.934 . S
C138 C133 1.413 . S
C138 C137 1.403 . S
C138 H159 0.930 1_556 S
C139 O150 1.275 . S
C139 O151 1.256 . S
O140 Ho120 2.322 . S
O140 C122 1.259 . S
O141 Ho121 2.346 1_554 S
O141 C122 1.268 . S
O142 Ho120 2.378 1_556 S
O142 C123 1.215 1_556 S
O143 Ho120 2.524 . S
O143 C123 1.289 . S
O144 Ho120 2.381 1_556 S
O144 C130 1.275 . S
O145 Ho120 2.669 1_556 S
O145 Ho121 2.305 . S
O145 C130 1.256 . S
O146 Ho121 2.322 . S
O146 C131 1.259 . S
O147 Ho120 2.346 1_556 S
O147 C131 1.268 . S
O148 Ho121 2.378 1_554 S
O148 C132 1.215 1_554 S
O149 Ho121 2.524 . S
O149 C132 1.289 . S
O150 Ho121 2.381 1_554 S
O150 C139 1.275 . S
O151 Ho120 2.305 . S
O151 Ho121 2.669 1_554 S
O151 C139 1.256 . S
H152 C125 0.930 . S
H153 C126 0.931 . S
H154 C128 0.934 . S
H155 C129 0.930 1_556 S
H156 C134 0.930 . S
H157 C135 0.931 . S
H158 C137 0.934 . S
H159 C138 0.930 1_554 S
Ho160 C163 2.811 . S
Ho160 O180 2.322 . S
Ho160 O182 2.378 . S
Ho160 O183 2.524 1_556 S
Ho160 O184 2.381 . S
Ho160 O185 2.669 . S
Ho160 O187 2.346 . S
Ho160 O191 2.305 1_556 S
Ho161 C172 2.811 . S
Ho161 O181 2.346 . S
Ho161 O185 2.305 1_554 S
Ho161 O186 2.322 . S
Ho161 O188 2.378 . S
Ho161 O189 2.524 1_554 S
Ho161 O190 2.381 . S
Ho161 O191 2.669 . S
C162 O180 1.259 . S
C162 O181 1.268 1_556 S
C163 Ho160 2.811 . S
C163 C164 1.488 . S
C163 O182 1.215 . S
C163 O183 1.289 1_556 S
C164 C163 1.488 . S
C164 C165 1.348 . S
C164 C169 1.413 . S
C165 C164 1.348 . S
C165 C166 1.442 . S
C165 H192 0.930 1_556 S
C166 C165 1.442 . S
C166 C167 1.381 . S
C166 H193 0.931 1_556 S
C167 C166 1.381 . S
C167 C168 1.321 . S
C168 C167 1.321 . S
C168 C169 1.403 . S
C168 H194 0.934 . S
C169 C164 1.413 . S
C169 C168 1.403 . S
C169 H195 0.930 . S
C170 O184 1.275 . S
C170 O185 1.256 . S
C171 O186 1.259 . S
C171 O187 1.268 1_554 S
C172 Ho161 2.811 . S
C172 C173 1.488 . S
C172 O188 1.215 . S
C172 O189 1.289 1_554 S
C173 C172 1.488 . S
C173 C174 1.348 . S
C173 C178 1.413 . S
C174 C173 1.348 . S
C174 C175 1.442 . S
C174 H196 0.930 1_554 S
C175 C174 1.442 . S
C175 C176 1.381 . S
C175 H197 0.931 1_554 S
C176 C175 1.381 . S
C176 C177 1.321 . S
C177 C176 1.321 . S
C177 C178 1.403 . S
C177 H198 0.934 . S
C178 C173 1.413 . S
C178 C177 1.403 . S
C178 H199 0.930 . S
C179 O190 1.275 . S
C179 O191 1.256 . S
O180 Ho160 2.322 . S
O180 C162 1.259 . S
O181 Ho161 2.346 . S
O181 C162 1.268 1_554 S
O182 Ho160 2.378 . S
O182 C163 1.215 . S
O183 Ho160 2.524 1_554 S
O183 C163 1.289 1_554 S
O184 Ho160 2.381 . S
O184 C170 1.275 . S
O185 Ho160 2.669 . S
O185 Ho161 2.305 1_556 S
O185 C170 1.256 . S
O186 Ho161 2.322 . S
O186 C171 1.259 . S
O187 Ho160 2.346 . S
O187 C171 1.268 1_556 S
O188 Ho161 2.378 . S
O188 C172 1.215 . S
O189 Ho161 2.524 1_556 S
O189 C172 1.289 1_556 S
O190 Ho161 2.381 . S
O190 C179 1.275 . S
O191 Ho160 2.305 1_554 S
O191 Ho161 2.669 . S
O191 C179 1.256 . S
H192 C165 0.930 1_554 S
H193 C166 0.931 1_554 S
H194 C168 0.934 . S
H195 C169 0.930 . S
H196 C174 0.930 1_556 S
H197 C175 0.931 1_556 S
H198 C177 0.934 . S
H199 C178 0.930 . S
Ho200 C203 2.811 1_556 S
Ho200 O220 2.322 . S
Ho200 O222 2.378 . S
Ho200 O223 2.524 1_556 S
Ho200 O224 2.381 . S
Ho200 O225 2.669 . S
Ho200 O227 2.346 . S
Ho200 O231 2.305 1_556 S
Ho201 C212 2.811 1_554 S
Ho201 O221 2.346 . S
Ho201 O225 2.305 1_554 S
Ho201 O226 2.322 . S
Ho201 O228 2.378 . S
Ho201 O229 2.524 1_554 S
Ho201 O230 2.381 . S
Ho201 O231 2.669 . S
C202 O220 1.259 1_554 S
C202 O221 1.268 . S
C203 Ho200 2.811 1_554 S
C203 C204 1.488 . S
C203 O222 1.215 1_554 S
C203 O223 1.289 . S
C204 C203 1.488 . S
C204 C205 1.348 . S
C204 C209 1.413 1_544 S
C205 C204 1.348 . S
C205 C206 1.442 1_545 S
C205 H232 0.930 . S
C206 C205 1.442 1_565 S
C206 C207 1.381 . S
C206 H233 0.931 . S
C207 C206 1.381 . S
C207 C208 1.321 1_554 S
C208 C207 1.321 1_556 S
C208 C209 1.403 . S
C208 H234 0.934 . S
C209 C204 1.413 1_566 S
C209 C208 1.403 . S
C209 H235 0.930 . S
C210 O224 1.275 . S
C210 O225 1.256 . S
C211 O226 1.259 1_556 S
C211 O227 1.268 . S
C212 Ho201 2.811 1_556 S
C212 C213 1.488 . S
C212 O228 1.215 1_556 S
C212 O229 1.289 . S
C213 C212 1.488 . S
C213 C214 1.348 . S
C213 C218 1.413 1_556 S
C214 C213 1.348 . S
C214 C215 1.442 . S
C214 H236 0.930 . S
C215 C214 1.442 . S
C215 C216 1.381 . S
C215 H237 0.931 . S
C216 C215 1.381 . S
C216 C217 1.321 1_556 S
C217 C216 1.321 1_554 S
C217 C218 1.403 . S
C217 H238 0.934 . S
C218 C213 1.413 1_554 S
C218 C217 1.403 . S
C218 H239 0.930 . S
C219 O230 1.275 . S
C219 O231 1.256 . S
O220 Ho200 2.322 . S
O220 C202 1.259 1_556 S
O221 Ho201 2.346 . S
O221 C202 1.268 . S
O222 Ho200 2.378 . S
O222 C203 1.215 1_556 S
O223 Ho200 2.524 1_554 S
O223 C203 1.289 . S
O224 Ho200 2.381 . S
O224 C210 1.275 . S
O225 Ho200 2.669 . S
O225 Ho201 2.305 1_556 S
O225 C210 1.256 . S
O226 Ho201 2.322 . S
O226 C211 1.259 1_554 S
O227 Ho200 2.346 . S
O227 C211 1.268 . S
O228 Ho201 2.378 . S
O228 C212 1.215 1_554 S
O229 Ho201 2.524 1_556 S
O229 C212 1.289 . S
O230 Ho201 2.381 . S
O230 C219 1.275 . S
O231 Ho200 2.305 1_554 S
O231 Ho201 2.669 . S
O231 C219 1.256 . S
H232 C205 0.930 . S
H233 C206 0.931 . S
H234 C208 0.934 . S
H235 C209 0.930 . S
H236 C214 0.930 . S
H237 C215 0.931 . S
H238 C217 0.934 . S
H239 C218 0.930 . S
C240 C241 1.363 . S
C240 C246 1.379 . S
C240 N248 1.356 . S
C241 C240 1.363 . S
C241 C247 1.363 . S
C242 C243 1.363 . S
C242 C247 1.379 . S
C242 N249 1.356 . S
C243 C242 1.363 . S
C243 C246 1.363 . S
N244 C246 1.356 . S
N244 H256 0.984 . S
N244 H257 0.985 . S
N245 C247 1.356 . S
N245 H250 0.984 . S
N245 H251 0.985 . S
C246 C240 1.379 . S
C246 C243 1.363 . S
C246 N244 1.356 . S
C247 C241 1.363 . S
C247 C242 1.379 . S
C247 N245 1.356 . S
N248 C240 1.356 . S
N248 H254 0.984 . S
N248 H255 0.984 . S
N249 C242 1.356 . S
N249 H252 0.984 . S
N249 H253 0.985 . S
H250 N245 0.984 . S
H251 N245 0.985 . S
H252 N249 0.984 . S
H253 N249 0.985 . S
H254 N248 0.984 . S
H255 N248 0.984 . S
H256 N244 0.984 . S
H257 N244 0.985 . S
C258 C259 1.363 . S
C258 C264 1.379 . S
C258 N266 1.356 . S
C259 C258 1.363 . S
C259 C265 1.363 . S
C260 C261 1.363 . S
C260 C265 1.379 . S
C260 N267 1.356 . S
C261 C260 1.363 . S
C261 C264 1.363 . S
N262 C264 1.356 . S
N262 H274 0.984 . S
N262 H275 0.985 . S
N263 C265 1.356 . S
N263 H268 0.984 . S
N263 H269 0.985 . S
C264 C258 1.379 . S
C264 C261 1.363 . S
C264 N262 1.356 . S
C265 C259 1.363 . S
C265 C260 1.379 . S
C265 N263 1.356 . S
N266 C258 1.356 . S
N266 H272 0.984 . S
N266 H273 0.984 . S
N267 C260 1.356 . S
N267 H270 0.984 . S
N267 H271 0.985 . S
H268 N263 0.984 . S
H269 N263 0.985 . S
H270 N267 0.984 . S
H271 N267 0.985 . S
H272 N266 0.984 . S
H273 N266 0.984 . S
H274 N262 0.984 . S
H275 N262 0.985 . S
C276 C277 1.363 . S
C276 C282 1.379 1_545 S
C276 N284 1.356 1_545 S
C277 C276 1.363 . S
C277 C283 1.363 . S
C278 C279 1.363 . S
C278 C283 1.379 . S
C278 N285 1.356 . S
C279 C278 1.363 . S
C279 C282 1.363 1_545 S
N280 C282 1.356 . S
N280 H292 0.984 . S
N280 H293 0.985 . S
N281 C283 1.356 . S
N281 H286 0.984 . S
N281 H287 0.985 . S
C282 C276 1.379 1_565 S
C282 C279 1.363 1_565 S
C282 N280 1.356 . S
C283 C277 1.363 . S
C283 C278 1.379 . S
C283 N281 1.356 . S
N284 C276 1.356 1_565 S
N284 H290 0.984 . S
N284 H291 0.996 . S
N285 C278 1.356 . S
N285 H288 0.984 . S
N285 H289 0.985 . S
H286 N281 0.984 . S
H287 N281 0.985 . S
H288 N285 0.984 . S
H289 N285 0.985 . S
H290 N284 0.984 . S
H291 N284 0.996 . S
H292 N280 0.984 . S
H293 N280 0.985 . S
C294 C295 1.363 . S
C294 C300 1.379 . S
C294 N302 1.356 . S
C295 C294 1.363 . S
C295 C301 1.363 . S
C296 C297 1.363 . S
C296 C301 1.379 . S
C296 N303 1.356 . S
C297 C296 1.363 . S
C297 C300 1.363 . S
N298 C300 1.356 . S
N298 H310 0.984 . S
N298 H311 0.985 . S
N299 C301 1.356 . S
N299 H304 0.984 . S
N299 H305 0.985 . S
C300 C294 1.379 . S
C300 C297 1.363 . S
C300 N298 1.356 . S
C301 C295 1.363 . S
C301 C296 1.379 . S
C301 N299 1.356 . S
N302 C294 1.356 . S
N302 H308 0.984 . S
N302 H309 0.984 . S
N303 C296 1.356 . S
N303 H306 0.984 . S
N303 H307 0.985 . S
H304 N299 0.984 . S
H305 N299 0.985 . S
H306 N303 0.984 . S
H307 N303 0.985 . S
H308 N302 0.984 . S
H309 N302 0.984 . S
H310 N298 0.984 . S
H311 N298 0.985 . S
C312 C313 1.363 1_655 S
C312 C318 1.379 . S
C312 N320 1.356 1_655 S
C313 C312 1.363 1_455 S
C313 C319 1.363 . S
C314 C315 1.363 . S
C314 C319 1.379 1_655 S
C314 N321 1.356 . S
C315 C314 1.363 . S
C315 C318 1.363 . S
N316 C318 1.356 . S
N316 H328 0.984 . S
N316 H329 0.985 . S
N317 C319 1.356 . S
N317 H322 0.984 . S
N317 H323 0.985 . S
C318 C312 1.379 . S
C318 C315 1.363 . S
C318 N316 1.356 . S
C319 C313 1.363 . S
C319 C314 1.379 1_455 S
C319 N317 1.356 . S
N320 C312 1.356 1_455 S
N320 H326 0.990 1_455 S
N320 H327 0.984 . S
N321 C314 1.356 . S
N321 H324 0.984 . S
N321 H325 0.985 . S
H322 N317 0.984 . S
H323 N317 0.985 . S
H324 N321 0.984 . S
H325 N321 0.985 . S
H326 N320 0.990 1_655 S
H327 N320 0.984 . S
H328 N316 0.984 . S
H329 N316 0.985 . S
C330 C331 1.363 . S
C330 C336 1.379 . S
C330 N338 1.356 1_565 S
C331 C330 1.363 . S
C331 C337 1.363 . S
C332 C333 1.363 . S
C332 C337 1.379 . S
C332 N339 1.356 . S
C333 C332 1.363 . S
C333 C336 1.363 . S
N334 C336 1.354 . S
N334 H346 0.987 1_565 S
N334 H347 0.984 . S
N335 C337 1.356 . S
N335 H340 0.984 . S
N335 H341 0.985 . S
C336 C330 1.379 . S
C336 C333 1.363 . S
C336 N334 1.354 . S
C337 C331 1.363 . S
C337 C332 1.379 . S
C337 N335 1.356 . S
N338 C330 1.356 1_545 S
N338 H344 0.984 . S
N338 H345 0.984 . S
N339 C332 1.356 . S
N339 H342 0.984 . S
N339 H343 0.985 . S
H340 N335 0.984 . S
H341 N335 0.985 . S
H342 N339 0.984 . S
H343 N339 0.985 . S
H344 N338 0.984 . S
H345 N338 0.984 . S
H346 N334 0.987 1_545 S
H347 N334 0.984 . S
C348 C349 1.363 . S
C348 C354 1.379 . S
C348 N356 1.356 1_554 S
C349 C348 1.363 . S
C349 C355 1.363 . S
C350 C351 1.363 . S
C350 C355 1.379 . S
C350 N357 1.356 . S
C351 C350 1.363 . S
C351 C354 1.363 . S
N352 C354 1.356 . S
N352 H364 0.984 1_554 S
N352 H365 0.985 . S
N353 C355 1.356 . S
N353 H358 0.984 . S
N353 H359 0.985 . S
C354 C348 1.379 . S
C354 C351 1.363 . S
C354 N352 1.356 . S
C355 C349 1.363 . S
C355 C350 1.379 . S
C355 N353 1.356 . S
N356 C348 1.356 1_556 S
N356 H362 0.984 . S
N356 H363 0.984 . S
N357 C350 1.356 . S
N357 H360 0.984 . S
N357 H361 0.985 . S
H358 N353 0.984 . S
H359 N353 0.985 . S
H360 N357 0.984 . S
H361 N357 0.985 . S
H362 N356 0.984 . S
H363 N356 0.984 . S
H364 N352 0.984 1_556 S
H365 N352 0.985 . S
C366 C367 1.363 . S
C366 C372 1.379 . S
C366 N374 1.356 1_556 S
C367 C366 1.363 . S
C367 C373 1.363 . S
C368 C369 1.363 . S
C368 C373 1.379 . S
C368 N375 1.356 . S
C369 C368 1.363 . S
C369 C372 1.363 . S
N370 C372 1.356 1_554 S
N370 H382 0.984 . S
N370 H383 0.985 1_554 S
N371 C373 1.356 . S
N371 H376 0.984 . S
N371 H377 0.985 . S
C372 C366 1.379 . S
C372 C369 1.363 . S
C372 N370 1.356 1_556 S
C373 C367 1.363 . S
C373 C368 1.379 . S
C373 N371 1.356 . S
N374 C366 1.356 1_554 S
N374 H380 0.984 . S
N374 H381 0.984 . S
N375 C368 1.356 . S
N375 H378 0.984 . S
N375 H379 0.985 . S
H376 N371 0.984 . S
H377 N371 0.985 . S
H378 N375 0.984 . S
H379 N375 0.985 . S
H380 N374 0.984 . S
H381 N374 0.984 . S
H382 N370 0.984 . S
H383 N370 0.985 1_556 S
C384 C385 1.363 1_556 S
C384 C390 1.379 . S
C384 N392 1.356 . S
C385 C384 1.363 1_554 S
C385 C391 1.363 . S
C386 C387 1.363 . S
C386 C391 1.379 . S
C386 N393 1.356 . S
C387 C386 1.363 . S
C387 C390 1.363 1_554 S
N388 C390 1.356 . S
N388 H400 0.984 . S
N388 H401 0.985 . S
N389 C391 1.356 . S
N389 H394 0.984 . S
N389 H395 0.985 . S
C390 C384 1.379 . S
C390 C387 1.363 1_556 S
C390 N388 1.356 . S
C391 C385 1.363 . S
C391 C386 1.379 . S
C391 N389 1.356 . S
N392 C384 1.356 . S
N392 H398 0.984 . S
N392 H399 0.984 . S
N393 C386 1.356 . S
N393 H396 0.984 . S
N393 H397 0.985 . S
H394 N389 0.984 . S
H395 N389 0.985 . S
H396 N393 0.984 . S
H397 N393 0.985 . S
H398 N392 0.984 . S
H399 N392 0.984 . S
H400 N388 0.984 . S
H401 N388 0.985 . S
C402 C403 1.363 . S
C402 C408 1.379 1_556 S
C402 N410 1.356 . S
C403 C402 1.363 . S
C403 C409 1.363 . S
C404 C405 1.363 . S
C404 C409 1.379 . S
C404 N411 1.356 . S
C405 C404 1.363 . S
C405 C408 1.363 1_556 S
N406 C408 1.356 . S
N406 H418 0.984 . S
N406 H419 0.985 . S
N407 C409 1.356 . S
N407 H412 0.984 . S
N407 H413 0.985 . S
C408 C402 1.379 1_554 S
C408 C405 1.363 1_554 S
C408 N406 1.356 . S
C409 C403 1.363 . S
C409 C404 1.379 . S
C409 N407 1.356 . S
N410 C402 1.356 . S
N410 H416 0.984 1_556 S
N410 H417 0.984 . S
N411 C404 1.356 . S
N411 H414 0.984 . S
N411 H415 0.985 . S
H412 N407 0.984 . S
H413 N407 0.985 . S
H414 N411 0.984 . S
H415 N411 0.985 . S
H416 N410 0.984 1_554 S
H417 N410 0.984 . S
H418 N406 0.984 . S
H419 N406 0.985 . S
C420 C421 1.363 . S
C420 C426 1.379 . S
C420 N428 1.356 . S
C421 C420 1.363 . S
C421 C427 1.363 . S
C422 C423 1.363 . S
C422 C427 1.379 . S
C422 N429 1.356 . S
C423 C422 1.363 . S
C423 C426 1.363 . S
N424 C426 1.356 . S
N424 H436 0.984 . S
N424 H437 0.985 . S
N425 C427 1.356 1_556 S
N425 H430 0.984 . S
N425 H431 0.985 . S
C426 C420 1.379 . S
C426 C423 1.363 . S
C426 N424 1.356 . S
C427 C421 1.363 . S
C427 C422 1.379 . S
C427 N425 1.356 1_554 S
N428 C420 1.356 . S
N428 H434 0.984 . S
N428 H435 0.984 . S
N429 C422 1.356 . S
N429 H432 0.984 . S
N429 H433 0.985 1_554 S
H430 N425 0.984 . S
H431 N425 0.985 . S
H432 N429 0.984 . S
H433 N429 0.985 1_556 S
H434 N428 0.984 . S
H435 N428 0.984 . S
H436 N424 0.984 . S
H437 N424 0.985 . S
C438 C439 1.363 . S
C438 C444 1.379 . S
C438 N446 1.356 . S
C439 C438 1.363 . S
C439 C445 1.363 . S
C440 C441 1.363 . S
C440 C445 1.379 . S
C440 N447 1.356 1_556 S
C441 C440 1.363 . S
C441 C444 1.363 . S
N442 C444 1.356 . S
N442 H454 0.984 . S
N442 H455 0.985 . S
N443 C445 1.356 1_554 S
N443 H448 0.984 . S
N443 H449 0.985 . S
C444 C438 1.379 . S
C444 C441 1.363 . S
C444 N442 1.356 . S
C445 C439 1.363 . S
C445 C440 1.379 . S
C445 N443 1.356 1_556 S
N446 C438 1.356 . S
N446 H452 0.984 . S
N446 H453 0.984 . S
N447 C440 1.356 1_554 S
N447 H450 0.984 . S
N447 H451 0.985 . S
H448 N443 0.984 . S
H449 N443 0.985 . S
H450 N447 0.984 . S
H451 N447 0.985 . S
H452 N446 0.984 . S
H453 N446 0.984 . S
H454 N442 0.984 . S
H455 N442 0.985 . S
C456 C457 1.363 . S
C456 C462 1.379 . S
C456 N464 1.356 . S
C457 C456 1.363 . S
C457 C463 1.363 . S
C458 C459 1.363 . S
C458 C463 1.379 . S
C458 N465 1.356 . S
C459 C458 1.363 . S
C459 C462 1.363 . S
N460 C462 1.356 . S
N460 H472 0.984 . S
N460 H473 0.985 . S
N461 C463 1.356 . S
N461 H466 0.984 . S
N461 H467 0.985 . S
C462 C456 1.379 . S
C462 C459 1.363 . S
C462 N460 1.356 . S
C463 C457 1.363 . S
C463 C458 1.379 . S
C463 N461 1.356 . S
N464 C456 1.356 . S
N464 H470 0.984 . S
N464 H471 0.984 . S
N465 C458 1.356 . S
N465 H468 0.984 . S
N465 H469 0.985 . S
H466 N461 0.984 . S
H467 N461 0.985 . S
H468 N465 0.984 . S
H469 N465 0.985 . S
H470 N464 0.984 . S
H471 N464 0.984 . S
H472 N460 0.984 . S
H473 N460 0.985 . S
C474 C475 1.363 . S
C474 C480 1.379 . S
C474 N482 1.356 . S
C475 C474 1.363 . S
C475 C481 1.363 . S
C476 C477 1.363 . S
C476 C481 1.379 . S
C476 N483 1.356 . S
C477 C476 1.363 . S
C477 C480 1.363 . S
N478 C480 1.356 . S
N478 H490 0.984 . S
N478 H491 0.985 . S
N479 C481 1.356 . S
N479 H484 0.984 . S
N479 H485 0.985 . S
C480 C474 1.379 . S
C480 C477 1.363 . S
C480 N478 1.356 . S
C481 C475 1.363 . S
C481 C476 1.379 . S
C481 N479 1.356 . S
N482 C474 1.356 . S
N482 H488 0.984 . S
N482 H489 0.984 . S
N483 C476 1.356 . S
N483 H486 0.984 . S
N483 H487 0.985 . S
H484 N479 0.984 . S
H485 N479 0.985 . S
H486 N483 0.984 . S
H487 N483 0.985 . S
H488 N482 0.984 . S
H489 N482 0.984 . S
H490 N478 0.984 . S
H491 N478 0.985 . S
C492 C493 1.363 . S
C492 C498 1.379 . S
C492 N500 1.356 . S
C493 C492 1.363 . S
C493 C499 1.363 . S
C494 C495 1.363 . S
C494 C499 1.379 . S
C494 N501 1.356 . S
C495 C494 1.363 . S
C495 C498 1.363 . S
N496 C498 1.356 . S
N496 H508 0.984 1_565 S
N496 H509 0.985 . S
N497 C499 1.356 . S
N497 H502 0.984 . S
N497 H503 0.985 . S
C498 C492 1.379 . S
C498 C495 1.363 . S
C498 N496 1.356 . S
C499 C493 1.363 . S
C499 C494 1.379 . S
C499 N497 1.356 . S
N500 C492 1.356 . S
N500 H506 0.984 . S
N500 H507 0.984 . S
N501 C494 1.356 . S
N501 H504 0.984 . S
N501 H505 0.985 . S
H502 N497 0.984 . S
H503 N497 0.985 . S
H504 N501 0.984 . S
H505 N501 0.985 . S
H506 N500 0.984 . S
H507 N500 0.984 . S
H508 N496 0.984 1_545 S
H509 N496 0.985 . S
C510 C511 1.363 . S
C510 C516 1.379 . S
C510 N518 1.356 . S
C511 C510 1.363 . S
C511 C517 1.363 . S
C512 C513 1.363 . S
C512 C517 1.379 . S
C512 N519 1.356 . S
C513 C512 1.363 . S
C513 C516 1.363 . S
N514 C516 1.356 . S
N514 H526 0.984 . S
N514 H527 0.985 . S
N515 C517 1.356 . S
N515 H520 0.984 . S
N515 H521 0.985 . S
C516 C510 1.379 . S
C516 C513 1.363 . S
C516 N514 1.356 . S
C517 C511 1.363 . S
C517 C512 1.379 . S
C517 N515 1.356 . S
N518 C510 1.356 . S
N518 H524 0.984 . S
N518 H525 0.984 . S
N519 C512 1.356 . S
N519 H522 0.984 . S
N519 H523 0.985 . S
H520 N515 0.984 . S
H521 N515 0.985 . S
H522 N519 0.984 . S
H523 N519 0.985 . S
H524 N518 0.984 . S
H525 N518 0.984 . S
H526 N514 0.984 . S
H527 N514 0.985 . S
C528 C529 1.363 . S
C528 C534 1.379 . S
C528 N536 1.356 . S
C529 C528 1.363 . S
C529 C535 1.363 . S
C530 C531 1.363 . S
C530 C535 1.379 . S
C530 N537 1.356 . S
C531 C530 1.363 . S
C531 C534 1.363 . S
N532 C534 1.356 . S
N532 H544 0.984 . S
N532 H545 0.985 . S
N533 C535 1.356 . S
N533 H538 0.984 . S
N533 H539 0.985 . S
C534 C528 1.379 . S
C534 C531 1.363 . S
C534 N532 1.356 . S
C535 C529 1.363 . S
C535 C530 1.379 . S
C535 N533 1.356 . S
N536 C528 1.356 . S
N536 H542 0.984 . S
N536 H543 0.984 . S
N537 C530 1.356 . S
N537 H540 0.984 . S
N537 H541 0.985 . S
H538 N533 0.984 . S
H539 N533 0.985 . S
H540 N537 0.984 . S
H541 N537 0.985 . S
H542 N536 0.984 . S
H543 N536 0.984 . S
H544 N532 0.984 . S
H545 N532 0.985 . S
C546 C547 1.363 . S
C546 C552 1.379 . S
C546 N554 1.356 . S
C547 C546 1.363 . S
C547 C553 1.363 . S
C548 C549 1.363 . S
C548 C553 1.379 . S
C548 N555 1.356 . S
C549 C548 1.363 . S
C549 C552 1.363 . S
N550 C552 1.356 . S
N550 H562 0.984 . S
N550 H563 0.985 . S
N551 C553 1.356 . S
N551 H556 0.984 . S
N551 H557 0.985 . S
C552 C546 1.379 . S
C552 C549 1.363 . S
C552 N550 1.356 . S
C553 C547 1.363 . S
C553 C548 1.379 . S
C553 N551 1.356 . S
N554 C546 1.356 . S
N554 H560 0.984 . S
N554 H561 0.984 . S
N555 C548 1.356 . S
N555 H558 0.984 . S
N555 H559 0.985 . S
H556 N551 0.984 . S
H557 N551 0.985 . S
H558 N555 0.984 . S
H559 N555 0.985 . S
H560 N554 0.984 . S
H561 N554 0.984 . S
H562 N550 0.984 . S
H563 N550 0.985 . S
C241 C202 3.700 . S
C243 C7 3.571 . S
C259 C2 3.766 . S
C261 C47 3.449 . S
C277 C42 3.217 . S
C279 C82 3.194 1_545 S
C295 C127 2.353 . S
C297 C87 2.152 . S
C313 C167 3.053 . S
C315 C122 3.622 . S
C331 C162 2.959 . S
C333 C207 2.791 . S
C349 C171 2.609 . S
C351 C16 2.501 . S
C367 C211 3.142 . S
C369 C56 3.099 . S
C385 C91 3.689 . S
C387 C11 3.711 . S
C403 C136 1.915 . S
C405 C51 2.083 1_556 S
C421 C176 0.772 . S
C423 C96 0.771 . S
C439 C131 1.155 . S
C441 C216 1.189 . S
C457 C10 0.861 . S
C459 C19 0.861 . S
C475 C50 0.946 . S
C477 C59 0.946 . S
C493 C99 0.975 . S
C495 C90 0.975 . S
C511 C130 0.802 . S
C513 C139 0.802 . S
C529 C179 1.028 . S
C531 C170 1.028 . S
C547 C210 0.977 . S
C549 C219 0.977 . S
