# Generated by pormake.
# Topology ure, (4)-cn, num edge types: 1
# Building blocks:
#     Node 0, Type 0, BuildingBlock: KUFVIS_clean_sbu_0, # of connection points: 4
#     Node 1, Type 0, BuildingBlock: KUFVIS_clean_sbu_0, # of connection points: 4
#     Node 2, Type 0, BuildingBlock: KUFVIS_clean_sbu_0, # of connection points: 4
#     Node 3, Type 0, BuildingBlock: KUFVIS_clean_sbu_0, # of connection points: 4
#     Node 4, Type 0, BuildingBlock: KUFVIS_clean_sbu_0, # of connection points: 4
#     Node 5, Type 0, BuildingBlock: KUFVIS_clean_sbu_0, # of connection points: 4
#     Node 6, Type 0, BuildingBlock: KUFVIS_clean_sbu_0, # of connection points: 4
#     Node 7, Type 0, BuildingBlock: KUFVIS_clean_sbu_0, # of connection points: 4
#     Node 8, Type 0, BuildingBlock: KUFVIS_clean_sbu_0, # of connection points: 4
#     Node 9, Type 0, BuildingBlock: KUFVIS_clean_sbu_0, # of connection points: 4
#     Node 10, Type 0, BuildingBlock: KUFVIS_clean_sbu_0, # of connection points: 4
#     Node 11, Type 0, BuildingBlock: KUFVIS_clean_sbu_0, # of connection points: 4
#     Node 12, Type 0, BuildingBlock: KUFVIS_clean_sbu_0, # of connection points: 4
#     Node 13, Type 0, BuildingBlock: KUFVIS_clean_sbu_0, # of connection points: 4
#     Node 14, Type 0, BuildingBlock: KUFVIS_clean_sbu_0, # of connection points: 4
#     Node 15, Type 0, BuildingBlock: KUFVIS_clean_sbu_0, # of connection points: 4
#     Edge 16, Type (0, 0), BuildingBlock: UVAHIK_clean_linker_0, # of connection points: 2
#     Edge 17, Type (0, 0), BuildingBlock: UVAHIK_clean_linker_0, # of connection points: 2
#     Edge 18, Type (0, 0), BuildingBlock: UVAHIK_clean_linker_0, # of connection points: 2
#     Edge 19, Type (0, 0), BuildingBlock: UVAHIK_clean_linker_0, # of connection points: 2
#     Edge 20, Type (0, 0), BuildingBlock: UVAHIK_clean_linker_0, # of connection points: 2
#     Edge 21, Type (0, 0), BuildingBlock: UVAHIK_clean_linker_0, # of connection points: 2
#     Edge 22, Type (0, 0), BuildingBlock: UVAHIK_clean_linker_0, # of connection points: 2
#     Edge 23, Type (0, 0), BuildingBlock: UVAHIK_clean_linker_0, # of connection points: 2
#     Edge 24, Type (0, 0), BuildingBlock: UVAHIK_clean_linker_0, # of connection points: 2
#     Edge 25, Type (0, 0), BuildingBlock: UVAHIK_clean_linker_0, # of connection points: 2
#     Edge 26, Type (0, 0), BuildingBlock: UVAHIK_clean_linker_0, # of connection points: 2
#     Edge 27, Type (0, 0), BuildingBlock: UVAHIK_clean_linker_0, # of connection points: 2
#     Edge 28, Type (0, 0), BuildingBlock: UVAHIK_clean_linker_0, # of connection points: 2
#     Edge 29, Type (0, 0), BuildingBlock: UVAHIK_clean_linker_0, # of connection points: 2
#     Edge 30, Type (0, 0), BuildingBlock: UVAHIK_clean_linker_0, # of connection points: 2
#     Edge 31, Type (0, 0), BuildingBlock: UVAHIK_clean_linker_0, # of connection points: 2
#     Edge 32, Type (0, 0), BuildingBlock: UVAHIK_clean_linker_0, # of connection points: 2
#     Edge 33, Type (0, 0), BuildingBlock: UVAHIK_clean_linker_0, # of connection points: 2
#     Edge 34, Type (0, 0), BuildingBlock: UVAHIK_clean_linker_0, # of connection points: 2
#     Edge 35, Type (0, 0), BuildingBlock: UVAHIK_clean_linker_0, # of connection points: 2
#     Edge 36, Type (0, 0), BuildingBlock: UVAHIK_clean_linker_0, # of connection points: 2
#     Edge 37, Type (0, 0), BuildingBlock: UVAHIK_clean_linker_0, # of connection points: 2
#     Edge 38, Type (0, 0), BuildingBlock: UVAHIK_clean_linker_0, # of connection points: 2
#     Edge 39, Type (0, 0), BuildingBlock: UVAHIK_clean_linker_0, # of connection points: 2
#     Edge 40, Type (0, 0), BuildingBlock: UVAHIK_clean_linker_0, # of connection points: 2
#     Edge 41, Type (0, 0), BuildingBlock: UVAHIK_clean_linker_0, # of connection points: 2
#     Edge 42, Type (0, 0), BuildingBlock: UVAHIK_clean_linker_0, # of connection points: 2
#     Edge 43, Type (0, 0), BuildingBlock: UVAHIK_clean_linker_0, # of connection points: 2
#     Edge 44, Type (0, 0), BuildingBlock: UVAHIK_clean_linker_0, # of connection points: 2
#     Edge 45, Type (0, 0), BuildingBlock: UVAHIK_clean_linker_0, # of connection points: 2
#     Edge 46, Type (0, 0), BuildingBlock: UVAHIK_clean_linker_0, # of connection points: 2
#     Edge 47, Type (0, 0), BuildingBlock: UVAHIK_clean_linker_0, # of connection points: 2
# Relax obj value: 0.175
# Max RMSD: 0.110
# Mean RMSD: 0.107
data_MOF--net-ure--node1-KUFVIS_clean_sbu_0--edge1-UVAHIK_clean_linker_0
_symmetry_space_group_name_H-M    P1
_symmetry_Int_Tables_number       1
_symmetry_cell_setting            triclinic
loop_
_symmetry_equiv_pos_as_xyz
'x, y, z'
_cell_length_a     35.486781
_cell_length_b     42.199291
_cell_length_c     42.1821
_cell_angle_alpha  89.995886
_cell_angle_beta   89.977768
_cell_angle_gamma 90.018747
loop_
_atom_site_label
_atom_site_type_symbol
_atom_site_fract_x
_atom_site_fract_y
_atom_site_fract_z
_atom_type_partial_charge
Mn0 Mn 0.23917 0.28869 0.27633 0.0
Mn1 Mn 0.26733 0.3153 0.20453 0.0
C2 C 0.29701 0.27379 0.25607 0.0
C3 C 0.23628 0.29502 0.33143 0.0
C4 C 0.20976 0.26268 0.21321 0.0
O5 O 0.20453 0.32644 0.26851 0.0
O6 O 0.22798 0.3439 0.22196 0.0
C7 C 0.30299 0.37609 0.22281 0.0
N8 N 0.30547 0.347 0.20897 0.0
C9 C 0.36965 0.35667 0.19319 0.0
C10 C 0.36769 0.3868 0.2071 0.0
C11 C 0.33424 0.39651 0.22203 0.0
C12 C 0.33749 0.33746 0.19445 0.0
H13 H 0.27732 0.38369 0.23427 0.0
C14 C 0.2056 0.34638 0.24571 0.0
O15 O 0.2121 0.27737 0.31648 0.0
O16 O 0.26107 0.3097 0.31431 0.0
N17 N 0.30593 0.28994 0.18549 0.0
C18 C 0.3039 0.25951 0.17482 0.0
C19 C 0.33561 0.24567 0.16049 0.0
C20 C 0.36892 0.26333 0.15705 0.0
C21 C 0.37024 0.29468 0.16798 0.0
C22 C 0.33775 0.30723 0.18204 0.0
H23 H 0.27839 0.2458 0.17743 0.0
O24 O 0.2807 0.25678 0.27774 0.0
O25 O 0.27895 0.29893 0.24688 0.0
O26 O 0.21062 0.2616 0.24347 0.0
O27 O 0.22895 0.28245 0.19695 0.0
C28 C 0.40272 0.31379 0.16598 0.0
C29 C 0.40242 0.34477 0.17855 0.0
H30 H 0.39177 0.40259 0.20665 0.0
H31 H 0.33255 0.4197 0.23291 0.0
H32 H 0.3344 0.22143 0.15218 0.0
H33 H 0.39339 0.2525 0.14616 0.0
H34 H 0.42823 0.30475 0.15516 0.0
H35 H 0.42771 0.35909 0.1772 0.0
Mn36 Mn 0.00362 0.02786 0.53712 0.0
Mn37 Mn 0.97355 0.95592 0.56179 0.0
C38 C 0.94573 0.00869 0.52102 0.0
C39 C 0.00734 0.0828 0.54424 0.0
C40 C 0.032 0.96476 0.51 0.0
O41 O 0.03723 0.01901 0.57533 0.0
O42 O 0.01346 0.97181 0.59072 0.0
C43 C 0.93835 0.97384 0.6229 0.0
N44 N 0.93554 0.9605 0.59359 0.0
C45 C 0.87096 0.94578 0.60298 0.0
C46 C 0.87324 0.95919 0.63333 0.0
C47 C 0.90706 0.97335 0.64329 0.0
C48 C 0.90314 0.94677 0.58379 0.0
H49 H 0.96431 0.9847 0.63069 0.0
C50 C 0.03599 0.99531 0.59417 0.0
O51 O 0.03166 0.06777 0.52679 0.0
O52 O 0.98194 0.06581 0.55834 0.0
N53 N 0.93447 0.93813 0.53608 0.0
C54 C 0.93626 0.9279 0.50547 0.0
C55 C 0.90424 0.91432 0.49141 0.0
C56 C 0.87086 0.91112 0.50903 0.0
C57 C 0.86979 0.92156 0.54057 0.0
C58 C 0.90258 0.93491 0.55333 0.0
H59 H 0.96185 0.9303 0.49182 0.0
O60 O 0.96286 0.03034 0.50457 0.0
O61 O 0.96306 0.99879 0.54626 0.0
O62 O 0.03222 0.99505 0.50992 0.0
O63 O 0.01172 0.94835 0.52884 0.0
C64 C 0.8373 0.91974 0.55968 0.0
C65 C 0.83786 0.93187 0.59085 0.0
H66 H 0.84913 0.95895 0.6491 0.0
H67 H 0.90901 0.98383 0.66665 0.0
H68 H 0.90526 0.90637 0.46704 0.0
H69 H 0.84615 0.9008 0.49804 0.0
H70 H 0.81157 0.90941 0.5505 0.0
H71 H 0.81254 0.93071 0.60516 0.0
Mn72 Mn 0.25643 0.72243 0.7796 0.0
Mn73 Mn 0.22611 0.69792 0.70778 0.0
C74 C 0.19799 0.73784 0.76103 0.0
C75 C 0.26044 0.7147 0.83443 0.0
C76 C 0.28488 0.74955 0.71667 0.0
O77 O 0.29049 0.68462 0.77007 0.0
O78 O 0.26535 0.66833 0.72369 0.0
C79 C 0.18966 0.63726 0.72535 0.0
N80 N 0.18739 0.66672 0.7123 0.0
C81 C 0.12211 0.65892 0.69892 0.0
C82 C 0.12382 0.62843 0.71207 0.0
C83 C 0.15774 0.61758 0.72536 0.0
C84 C 0.15495 0.67733 0.69926 0.0
H85 H 0.21563 0.62883 0.73568 0.0
C86 C 0.2884 0.66514 0.7469 0.0
O87 O 0.28448 0.73259 0.81958 0.0
O88 O 0.23526 0.70052 0.81733 0.0
N89 N 0.18747 0.72442 0.69044 0.0
C90 C 0.18983 0.75514 0.68067 0.0
C91 C 0.15782 0.77007 0.66805 0.0
C92 C 0.12379 0.75326 0.66549 0.0
C93 C 0.12209 0.72162 0.67553 0.0
C94 C 0.15497 0.70792 0.68774 0.0
H95 H 0.21585 0.76824 0.68274 0.0
O96 O 0.21494 0.75444 0.78266 0.0
O97 O 0.21602 0.71315 0.75075 0.0
O98 O 0.2844 0.75013 0.74695 0.0
O99 O 0.26511 0.73034 0.70023 0.0
C100 C 0.08885 0.70337 0.67455 0.0
C101 C 0.08888 0.67202 0.68617 0.0
H102 H 0.09918 0.61327 0.71235 0.0
H103 H 0.15923 0.59413 0.73567 0.0
H104 H 0.15931 0.79454 0.66045 0.0
H105 H 0.09905 0.76496 0.65604 0.0
H106 H 0.06297 0.71337 0.66534 0.0
H107 H 0.06303 0.65837 0.68567 0.0
Mn108 Mn 0.48461 0.97855 0.03776 0.0
Mn109 Mn 0.51518 0.05031 0.06239 0.0
C110 C 0.54356 0.99668 0.02318 0.0
C111 C 0.48026 0.92372 0.04566 0.0
C112 C 0.45807 0.04166 0.00946 0.0
O113 O 0.44982 0.98834 0.07506 0.0
O114 O 0.47434 0.03517 0.09085 0.0
C115 C 0.54871 0.03259 0.12418 0.0
N116 N 0.55243 0.04555 0.09477 0.0
C117 C 0.61747 0.05849 0.10456 0.0
C118 C 0.61425 0.04546 0.13502 0.0
C119 C 0.57974 0.03242 0.14484 0.0
C120 C 0.58548 0.05829 0.08513 0.0
H121 H 0.52226 0.02248 0.13183 0.0
C122 C 0.45116 0.01205 0.09391 0.0
O123 O 0.45665 0.93852 0.02734 0.0
O124 O 0.50507 0.94089 0.06019 0.0
N125 N 0.5552 0.06715 0.037 0.0
C126 C 0.55427 0.07695 0.00622 0.0
C127 C 0.58704 0.08938 0.99228 0.0
C128 C 0.62032 0.09176 0.01014 0.0
C129 C 0.62052 0.08174 0.04183 0.0
C130 C 0.58695 0.06971 0.05451 0.0
H131 H 0.52882 0.07507 0.99234 0.0
O132 O 0.52675 0.97513 0.0064 0.0
O133 O 0.52515 0.00718 0.0476 0.0
O134 O 0.45756 0.01136 0.00939 0.0
O135 O 0.47787 0.05795 0.02877 0.0
C136 C 0.65291 0.08259 0.06111 0.0
C137 C 0.65137 0.07103 0.09248 0.0
H138 H 0.63818 0.04508 0.15095 0.0
H139 H 0.57708 0.0222 0.16827 0.0
H140 H 0.58669 0.09698 0.96778 0.0
H141 H 0.64564 0.10106 0.9992 0.0
H142 H 0.6793 0.09166 0.05191 0.0
H143 H 0.67658 0.07144 0.10693 0.0
Mn144 Mn 0.24099 0.72373 0.23067 0.0
Mn145 Mn 0.27066 0.7001 0.30302 0.0
C146 C 0.29943 0.73901 0.2493 0.0
C147 C 0.23728 0.71549 0.1759 0.0
C148 C 0.21262 0.752 0.2932 0.0
O149 O 0.20662 0.68619 0.24044 0.0
O150 O 0.2306 0.67099 0.28769 0.0
C151 C 0.30561 0.63857 0.28642 0.0
N152 N 0.30861 0.66819 0.29899 0.0
C153 C 0.37368 0.6595 0.31254 0.0
C154 C 0.37121 0.62884 0.2999 0.0
C155 C 0.33704 0.61836 0.28675 0.0
C156 C 0.3413 0.67846 0.31188 0.0
H157 H 0.27943 0.63043 0.27623 0.0
C158 C 0.20782 0.66754 0.26433 0.0
O159 O 0.21327 0.73362 0.19049 0.0
O160 O 0.26225 0.70135 0.19325 0.0
N161 N 0.30994 0.72621 0.31997 0.0
C162 C 0.30829 0.75708 0.32932 0.0
C163 C 0.34064 0.77166 0.34176 0.0
C164 C 0.37426 0.75433 0.34459 0.0
C165 C 0.37521 0.72253 0.33499 0.0
C166 C 0.34203 0.70921 0.32293 0.0
H167 H 0.28258 0.77057 0.32706 0.0
O168 O 0.28271 0.75549 0.22746 0.0
O169 O 0.28114 0.71453 0.25982 0.0
O170 O 0.21294 0.75191 0.26291 0.0
O171 O 0.23246 0.7332 0.31001 0.0
C172 C 0.40799 0.70375 0.33628 0.0
C173 C 0.40721 0.67223 0.32513 0.0
H174 H 0.39546 0.61325 0.2999 0.0
H175 H 0.33496 0.59477 0.27684 0.0
H176 H 0.33972 0.79624 0.34902 0.0
H177 H 0.39926 0.76575 0.3539 0.0
H178 H 0.4341 0.71344 0.34539 0.0
H179 H 0.43271 0.65815 0.32588 0.0
Mn180 Mn 0.48611 0.02925 0.4718 0.0
Mn181 Mn 0.51638 0.95813 0.44529 0.0
C182 C 0.54546 0.01115 0.48514 0.0
C183 C 0.48096 0.08414 0.46462 0.0
C184 C 0.45997 0.96572 0.49906 0.0
O185 O 0.45026 0.01973 0.43516 0.0
O186 O 0.47579 0.97417 0.41711 0.0
C187 C 0.55009 0.97677 0.3838 0.0
N188 N 0.5537 0.96331 0.41299 0.0
C189 C 0.61856 0.95003 0.40287 0.0
C190 C 0.61546 0.96358 0.37264 0.0
C191 C 0.58108 0.97705 0.36309 0.0
C192 C 0.5866 0.95013 0.42236 0.0
H193 H 0.52374 0.98719 0.37636 0.0
C194 C 0.45208 0.99702 0.41511 0.0
O195 O 0.45838 0.06895 0.48355 0.0
O196 O 0.50536 0.06729 0.44921 0.0
N197 N 0.55625 0.94062 0.47035 0.0
C198 C 0.55527 0.93035 0.50098 0.0
C199 C 0.58793 0.91751 0.51468 0.0
C200 C 0.62117 0.91521 0.49674 0.0
C201 C 0.62143 0.92572 0.4652 0.0
C202 C 0.58797 0.93816 0.45276 0.0
H203 H 0.52986 0.93217 0.51494 0.0
O204 O 0.529 0.03253 0.50237 0.0
O205 O 0.52661 1.00096 0.46083 0.0
O206 O 0.46013 0.99599 0.50024 0.0
O207 O 0.47891 0.94989 0.47877 0.0
C208 C 0.6538 0.92497 0.44586 0.0
C209 C 0.65234 0.93704 0.41469 0.0
H210 H 0.63937 0.96403 0.35667 0.0
H211 H 0.57851 0.98766 0.33984 0.0
H212 H 0.58754 0.90954 0.53906 0.0
H213 H 0.64641 0.90558 0.50749 0.0
H214 H 0.68009 0.91557 0.45487 0.0
H215 H 0.67753 0.93669 0.40018 0.0
Mn216 Mn 0.25774 0.28535 0.72803 0.0
Mn217 Mn 0.22898 0.30899 0.80068 0.0
C218 C 0.2001 0.2691 0.74767 0.0
C219 C 0.26051 0.29323 0.67312 0.0
C220 C 0.28755 0.25763 0.79039 0.0
O221 O 0.29147 0.3235 0.73702 0.0
O222 O 0.26827 0.33843 0.7846 0.0
C223 C 0.19276 0.36997 0.78398 0.0
N224 N 0.19053 0.3405 0.79701 0.0
C225 C 0.12595 0.34895 0.81228 0.0
C226 C 0.12763 0.37946 0.79918 0.0
C227 C 0.16116 0.38998 0.78492 0.0
C228 C 0.15843 0.33016 0.81086 0.0
H229 H 0.21847 0.37816 0.77299 0.0
C230 C 0.29043 0.34218 0.76088 0.0
O231 O 0.28508 0.27559 0.68761 0.0
O232 O 0.23542 0.30707 0.69062 0.0
N233 N 0.19049 0.28267 0.81854 0.0
C234 C 0.19277 0.25191 0.82818 0.0
C235 C 0.16107 0.23731 0.84175 0.0
C236 C 0.12749 0.25453 0.84549 0.0
C237 C 0.1259 0.28621 0.83558 0.0
C238 C 0.15841 0.29953 0.82227 0.0
H239 H 0.21849 0.23855 0.82534 0.0
O240 O 0.21681 0.25288 0.72562 0.0
O241 O 0.21781 0.29408 0.75772 0.0
O242 O 0.2869 0.25773 0.7601 0.0
O243 O 0.26772 0.27629 0.80737 0.0
C244 C 0.09314 0.30492 0.83786 0.0
C245 C 0.09314 0.33625 0.82618 0.0
H246 H 0.10327 0.39492 0.79971 0.0
H247 H 0.16264 0.41345 0.77466 0.0
H248 H 0.16249 0.21282 0.84926 0.0
H249 H 0.10303 0.24311 0.85577 0.0
H250 H 0.06762 0.29528 0.84814 0.0
H251 H 0.0676 0.35023 0.82764 0.0
Mn252 Mn 0.0018 0.9808 0.97466 0.0
Mn253 Mn 0.973 0.05284 0.94953 0.0
C254 C 0.94432 1.00077 0.99085 0.0
C255 C 0.00443 0.92584 0.96749 0.0
C256 C 0.03234 0.04351 1.00057 0.0
O257 O 0.03543 0.98917 0.93631 0.0
O258 O 0.01131 0.03578 0.91971 0.0
C259 C 0.93507 0.03509 0.88957 0.0
N260 N 0.93369 0.0487 0.91883 0.0
C261 C 0.86896 0.06396 0.91131 0.0
C262 C 0.86976 0.05026 0.88103 0.0
C263 C 0.90295 0.03572 0.87015 0.0
C264 C 0.90195 0.06286 0.92949 0.0
H265 H 0.96051 0.02388 0.8811 0.0
C266 C 0.03372 0.01214 0.91659 0.0
O267 O 0.02911 0.94051 0.98489 0.0
O268 O 0.97928 0.94315 0.95355 0.0
N269 N 0.93535 0.07144 0.97619 0.0
C270 C 0.93848 0.08164 0.00672 0.0
C271 C 0.90723 0.09553 0.02168 0.0
C272 C 0.87319 0.09897 0.00505 0.0
C273 C 0.87071 0.08846 0.97359 0.0
C274 C 0.90281 0.07488 0.95988 0.0
H275 H 0.96454 0.079 0.01965 0.0
O276 O 0.96104 0.97894 0.00735 0.0
O277 O 0.96189 0.01032 0.9656 0.0
O278 O 0.03113 0.01327 1.00155 0.0
O279 O 0.01268 0.06006 0.98139 0.0
C280 C 0.83742 0.09037 0.9555 0.0
C281 C 0.83654 0.07812 0.92439 0.0
H282 H 0.84498 0.05053 0.86604 0.0
H283 H 0.90374 0.025 0.84685 0.0
H284 H 0.90934 0.1035 0.046 0.0
H285 H 0.84906 0.10949 0.01674 0.0
H286 H 0.81217 0.10081 0.96546 0.0
H287 H 0.81061 0.07932 0.9109 0.0
Mn288 Mn 0.73971 0.22364 0.72964 0.0
Mn289 Mn 0.77129 0.19783 0.80061 0.0
C290 C 0.79887 0.23807 0.74739 0.0
C291 C 0.73463 0.21642 0.67479 0.0
C292 C 0.71354 0.25054 0.79337 0.0
O293 O 0.70508 0.18624 0.73931 0.0
O294 O 0.731 0.16906 0.78505 0.0
C295 C 0.8059 0.13685 0.78163 0.0
N296 N 0.80915 0.16608 0.79506 0.0
C297 C 0.87451 0.15704 0.80731 0.0
C298 C 0.87179 0.12677 0.79378 0.0
C299 C 0.83734 0.11667 0.78086 0.0
C300 C 0.84212 0.17598 0.80773 0.0
H301 H 0.77951 0.12899 0.7716 0.0
C302 C 0.70732 0.16647 0.76222 0.0
O303 O 0.71118 0.23453 0.69004 0.0
O304 O 0.75971 0.20173 0.69153 0.0
N305 N 0.81095 0.22348 0.81764 0.0
C306 C 0.80953 0.25409 0.82789 0.0
C307 C 0.84216 0.26831 0.84023 0.0
C308 C 0.87582 0.25091 0.84205 0.0
C309 C 0.87654 0.21939 0.83155 0.0
C310 C 0.84309 0.2064 0.81964 0.0
H311 H 0.78379 0.26764 0.82642 0.0
O312 O 0.78176 0.25511 0.72622 0.0
O313 O 0.78064 0.21349 0.7577 0.0
O314 O 0.71307 0.25144 0.76308 0.0
O315 O 0.73334 0.2308 0.80914 0.0
C316 C 0.90934 0.20059 0.83179 0.0
C317 C 0.90831 0.16941 0.81974 0.0
H318 H 0.89605 0.11122 0.79291 0.0
H319 H 0.83507 0.09339 0.77025 0.0
H320 H 0.84141 0.29268 0.84819 0.0
H321 H 0.90103 0.26207 0.85128 0.0
H322 H 0.93565 0.21003 0.84076 0.0
H323 H 0.93383 0.15534 0.81968 0.0
Mn324 Mn 0.99114 0.52943 0.97221 0.0
Mn325 Mn 0.02373 0.45827 0.94769 0.0
C326 C 0.05008 0.51206 0.98766 0.0
C327 C 0.98564 0.58419 0.96464 0.0
C328 C 0.96517 0.46576 0.99966 0.0
O329 O 0.95744 0.51934 0.93432 0.0
O330 O 0.98323 0.47295 0.91871 0.0
C331 C 0.05832 0.47702 0.88659 0.0
N332 N 0.06163 0.46386 0.91594 0.0
C333 C 0.12716 0.45206 0.90711 0.0
C334 C 0.12438 0.46532 0.87672 0.0
C335 C 0.08982 0.47789 0.86645 0.0
C336 C 0.09471 0.45158 0.92602 0.0
H337 H 0.03184 0.48678 0.87861 0.0
C338 C 0.95964 0.49572 0.91541 0.0
O339 O 0.96198 0.56883 0.98246 0.0
O340 O 0.01126 0.56761 0.95041 0.0
N341 N 0.06351 0.44185 0.97358 0.0
C342 C 0.06205 0.4317 1.00423 0.0
C343 C 0.09473 0.4196 0.01857 0.0
C344 C 0.12847 0.4179 1.00124 0.0
C345 C 0.12921 0.42825 0.96966 0.0
C346 C 0.09572 0.43991 0.95655 0.0
H347 H 0.03624 0.43305 0.01771 0.0
O348 O 0.03246 0.53328 1.00429 0.0
O349 O 0.03247 0.50146 0.96288 0.0
O350 O 0.9641 0.49604 0.99986 0.0
O351 O 0.9858 0.44982 0.98066 0.0
C352 C 0.16207 0.42808 0.95089 0.0
C353 C 0.16103 0.43993 0.91963 0.0
H354 H 0.14868 0.46624 0.86119 0.0
H355 H 0.08751 0.48829 0.84307 0.0
H356 H 0.09395 0.41173 0.04298 0.0
H357 H 0.15371 0.40886 0.01249 0.0
H358 H 0.18842 0.41932 0.96043 0.0
H359 H 0.18659 0.44005 0.90558 0.0
Mn360 Mn 0.75799 0.78785 0.23124 0.0
Mn361 Mn 0.72917 0.81147 0.3039 0.0
C362 C 0.70035 0.77157 0.25085 0.0
C363 C 0.76093 0.79578 0.17635 0.0
C364 C 0.78783 0.76018 0.29358 0.0
O365 O 0.7917 0.82599 0.24028 0.0
O366 O 0.76841 0.84097 0.28782 0.0
C367 C 0.69289 0.87249 0.28741 0.0
N368 N 0.69067 0.84294 0.30029 0.0
C369 C 0.62612 0.85135 0.31569 0.0
C370 C 0.62779 0.88193 0.30275 0.0
C371 C 0.6613 0.89251 0.2885 0.0
C372 C 0.6586 0.83256 0.31415 0.0
H373 H 0.71859 0.88074 0.27645 0.0
C374 C 0.79061 0.84469 0.26411 0.0
O375 O 0.78544 0.77812 0.19089 0.0
O376 O 0.73574 0.80958 0.19379 0.0
N377 N 0.69073 0.7851 0.32174 0.0
C378 C 0.69307 0.75433 0.33136 0.0
C379 C 0.6614 0.73967 0.34493 0.0
C380 C 0.6278 0.75684 0.34869 0.0
C381 C 0.62615 0.78854 0.33882 0.0
C382 C 0.65862 0.80191 0.3255 0.0
H383 H 0.71882 0.741 0.3285 0.0
O384 O 0.71707 0.75538 0.22879 0.0
O385 O 0.71802 0.79657 0.26092 0.0
O386 O 0.78714 0.76026 0.2633 0.0
O387 O 0.76797 0.77882 0.31056 0.0
C388 C 0.59337 0.80722 0.34115 0.0
C389 C 0.59334 0.83859 0.32959 0.0
H390 H 0.60345 0.8974 0.30343 0.0
H391 H 0.66277 0.91604 0.27838 0.0
H392 H 0.66287 0.71518 0.35242 0.0
H393 H 0.60336 0.74539 0.35897 0.0
H394 H 0.56786 0.79753 0.35142 0.0
H395 H 0.5678 0.85256 0.33113 0.0
Mn396 Mn 0.9917 0.47956 0.53492 0.0
Mn397 Mn 0.02144 0.551 0.56106 0.0
C398 C 0.0496 0.49913 0.51921 0.0
C399 C 0.98817 0.42454 0.54156 0.0
C400 C 0.96273 0.54293 0.50926 0.0
O401 O 0.95782 0.48783 0.57313 0.0
O402 O 0.98246 0.53402 0.59031 0.0
C403 C 0.05825 0.53203 0.62114 0.0
N404 N 0.06021 0.54609 0.59212 0.0
C405 C 0.12486 0.56106 0.6007 0.0
C406 C 0.12347 0.5469 0.63075 0.0
C407 C 0.09004 0.53227 0.64097 0.0
C408 C 0.09222 0.56029 0.58207 0.0
H409 H 0.03261 0.52077 0.62912 0.0
C410 C 0.95968 0.51059 0.59307 0.0
O411 O 0.96389 0.43962 0.52412 0.0
O412 O 0.01344 0.44149 0.55583 0.0
N413 N 0.05973 0.56963 0.53507 0.0
C414 C 0.05718 0.58035 0.50467 0.0
C415 C 0.08875 0.59443 0.49034 0.0
C416 C 0.12247 0.59756 0.50747 0.0
C417 C 0.12434 0.58656 0.53879 0.0
C418 C 0.09197 0.57276 0.55184 0.0
H419 H 0.03134 0.578 0.49137 0.0
O420 O 0.03269 0.4776 0.50246 0.0
O421 O 0.03207 0.50857 0.54453 0.0
O422 O 0.9632 0.51267 0.50809 0.0
O423 O 0.98245 0.55896 0.52884 0.0
C424 C 0.15725 0.58822 0.55738 0.0
C425 C 0.15754 0.57544 0.58829 0.0
H426 H 0.14796 0.54691 0.64606 0.0
H427 H 0.08878 0.52119 0.66409 0.0
H428 H 0.0871 0.60279 0.46613 0.0
H429 H 0.14683 0.60826 0.49627 0.0
H430 H 0.18267 0.59888 0.54796 0.0
H431 H 0.1832 0.57644 0.60216 0.0
Mn432 Mn 0.50771 0.52761 0.03899 0.0
Mn433 Mn 0.48023 0.45458 0.06253 0.0
C434 C 0.45048 0.50729 0.02271 0.0
C435 C 0.50934 0.58253 0.04682 0.0
C436 C 0.5385 0.4657 0.01105 0.0
O437 O 0.54161 0.51901 0.07709 0.0
O438 O 0.51953 0.471 0.09181 0.0
C439 C 0.44434 0.47032 0.12396 0.0
N440 N 0.44196 0.45769 0.09431 0.0
C441 C 0.37762 0.44183 0.10304 0.0
C442 C 0.37947 0.45449 0.13374 0.0
C443 C 0.41296 0.46883 0.14421 0.0
C444 C 0.40993 0.44369 0.08405 0.0
H445 H 0.47002 0.48135 0.13213 0.0
C446 C 0.54121 0.49502 0.09561 0.0
O447 O 0.53425 0.56839 0.02922 0.0
O448 O 0.48465 0.56469 0.06073 0.0
N449 N 0.44179 0.43645 0.03636 0.0
C450 C 0.44398 0.427 0.00552 0.0
C451 C 0.41229 0.41339 0.99096 0.0
C452 C 0.37881 0.40944 0.00829 0.0
C453 C 0.37732 0.41914 0.04006 0.0
C454 C 0.40982 0.43248 0.05334 0.0
H455 H 0.46961 0.43007 0.99206 0.0
O456 O 0.46686 0.52953 0.00651 0.0
O457 O 0.46826 0.49743 0.04775 0.0
O458 O 0.53747 0.49597 0.01134 0.0
O459 O 0.51884 0.44843 0.02958 0.0
C460 C 0.34466 0.41662 0.05889 0.0
C461 C 0.34482 0.42792 0.09037 0.0
H462 H 0.35528 0.45353 0.14938 0.0
H463 H 0.41456 0.47873 0.16784 0.0
H464 H 0.41363 0.40605 0.96641 0.0
H465 H 0.35434 0.39915 0.99691 0.0
H466 H 0.31911 0.40638 0.04927 0.0
H467 H 0.3194 0.42617 0.10449 0.0
Mn468 Mn 0.73969 0.78784 0.77984 0.0
Mn469 Mn 0.76789 0.81144 0.70699 0.0
C470 C 0.79722 0.77166 0.75994 0.0
C471 C 0.73716 0.79577 0.83474 0.0
C472 C 0.7095 0.75998 0.71767 0.0
O473 O 0.70581 0.82587 0.77095 0.0
O474 O 0.72857 0.84078 0.72321 0.0
C475 C 0.80392 0.87265 0.72323 0.0
N476 N 0.80624 0.84309 0.71039 0.0
C477 C 0.87066 0.85175 0.69475 0.0
C478 C 0.86889 0.88235 0.70764 0.0
C479 C 0.83539 0.8928 0.72199 0.0
C480 C 0.83829 0.83283 0.69643 0.0
H481 H 0.77823 0.8808 0.73427 0.0
C482 C 0.70657 0.84449 0.74704 0.0
O483 O 0.71258 0.77806 0.82034 0.0
O484 O 0.76217 0.80964 0.81716 0.0
N485 N 0.80637 0.78522 0.689 0.0
C486 C 0.80413 0.75444 0.67943 0.0
C487 C 0.83582 0.7399 0.66578 0.0
C488 C 0.86932 0.7572 0.6619 0.0
C489 C 0.87085 0.78892 0.67172 0.0
C490 C 0.83837 0.80217 0.68511 0.0
H491 H 0.77847 0.74101 0.68241 0.0
O492 O 0.78068 0.75545 0.7821 0.0
O493 O 0.77943 0.79663 0.74993 0.0
O494 O 0.71037 0.76014 0.74795 0.0
O495 O 0.72921 0.77861 0.70055 0.0
C496 C 0.90354 0.80772 0.66927 0.0
C497 C 0.90345 0.83911 0.68078 0.0
H498 H 0.89315 0.89792 0.70686 0.0
H499 H 0.83385 0.91635 0.73208 0.0
H500 H 0.83444 0.71538 0.65834 0.0
H501 H 0.89378 0.74583 0.65156 0.0
H502 H 0.92906 0.79812 0.65895 0.0
H503 H 0.92891 0.85318 0.67914 0.0
Mn504 Mn 0.75512 0.22452 0.27834 0.0
Mn505 Mn 0.72675 0.19939 0.20615 0.0
C506 C 0.69717 0.23969 0.25857 0.0
C507 C 0.75784 0.21723 0.33328 0.0
C508 C 0.7851 0.25121 0.21574 0.0
O509 O 0.78953 0.18674 0.26971 0.0
O510 O 0.76568 0.17003 0.223 0.0
C511 C 0.69009 0.13873 0.22343 0.0
N512 N 0.68805 0.16811 0.21016 0.0
C513 C 0.6232 0.15998 0.19552 0.0
C514 C 0.62469 0.12958 0.20888 0.0
C515 C 0.65827 0.11894 0.22292 0.0
C516 C 0.65594 0.17851 0.1964 0.0
H517 H 0.71581 0.13045 0.23432 0.0
C518 C 0.78814 0.16709 0.24664 0.0
O519 O 0.78217 0.23504 0.31868 0.0
O520 O 0.73308 0.20287 0.31588 0.0
N521 N 0.68848 0.22566 0.1879 0.0
C522 C 0.69097 0.25632 0.178 0.0
C523 C 0.65924 0.27107 0.16466 0.0
C524 C 0.62537 0.25413 0.16154 0.0
C525 C 0.62354 0.22254 0.17174 0.0
C526 C 0.65613 0.20903 0.18468 0.0
H527 H 0.71686 0.26952 0.18048 0.0
O528 O 0.71351 0.25647 0.28039 0.0
O529 O 0.71549 0.21493 0.24882 0.0
O530 O 0.78383 0.25202 0.24599 0.0
O531 O 0.76582 0.23185 0.19907 0.0
C532 C 0.59043 0.20417 0.17022 0.0
C533 C 0.59028 0.17289 0.18203 0.0
H534 H 0.60013 0.11433 0.20875 0.0
H535 H 0.6596 0.09555 0.23338 0.0
H536 H 0.66084 0.29549 0.15695 0.0
H537 H 0.60085 0.26569 0.15154 0.0
H538 H 0.56477 0.21403 0.16043 0.0
H539 H 0.56452 0.15914 0.18109 0.0
Mn540 Mn 0.50975 0.47971 0.47341 0.0
Mn541 Mn 0.47943 0.55087 0.44707 0.0
C542 C 0.4502 0.49758 0.48649 0.0
C543 C 0.51512 0.42488 0.46592 0.0
C544 C 0.53544 0.54316 0.50109 0.0
O545 O 0.54586 0.48951 0.43699 0.0
O546 O 0.52023 0.53505 0.41899 0.0
C547 C 0.44618 0.53241 0.38538 0.0
N548 N 0.44234 0.54577 0.4146 0.0
C549 C 0.37748 0.55889 0.40429 0.0
C550 C 0.38082 0.54546 0.37402 0.0
C551 C 0.41531 0.53212 0.36456 0.0
C552 C 0.40933 0.55881 0.42389 0.0
H553 H 0.47261 0.52209 0.378 0.0
C554 C 0.54404 0.51226 0.417 0.0
O555 O 0.5375 0.44 0.48508 0.0
O556 O 0.49081 0.44177 0.45049 0.0
N557 N 0.43933 0.56817 0.47206 0.0
C558 C 0.44006 0.57828 0.50273 0.0
C559 C 0.40726 0.59097 0.51636 0.0
C560 C 0.37414 0.59328 0.49829 0.0
C561 C 0.37413 0.58292 0.46671 0.0
C562 C 0.40772 0.57063 0.45435 0.0
H563 H 0.46538 0.57646 0.51679 0.0
O564 O 0.46658 0.47616 0.50372 0.0
O565 O 0.46925 0.50795 0.46235 0.0
O566 O 0.53537 0.51289 0.50215 0.0
O567 O 0.51662 0.55902 0.48076 0.0
C568 C 0.34188 0.58367 0.44725 0.0
C569 C 0.34358 0.57173 0.41604 0.0
H570 H 0.35701 0.54498 0.35797 0.0
H571 H 0.41806 0.52159 0.34128 0.0
H572 H 0.40747 0.59883 0.54078 0.0
H573 H 0.34879 0.60279 0.50899 0.0
H574 H 0.31548 0.59295 0.4562 0.0
H575 H 0.31848 0.57206 0.40144 0.0
C576 C 0.17782 0.20933 0.20874 0.0
C577 C 0.18791 0.23862 0.19521 0.0
C578 C 0.1621 0.18523 0.18993 0.0
C579 C 0.15799 0.16044 0.10571 0.0
H580 H 0.07498 0.10663 0.13172 0.0
C581 C 0.0674 0.09224 0.0166 0.0
C582 C 0.05608 0.06108 0.02358 0.0
C583 C 0.08648 0.11045 0.03904 0.0
C584 C 0.09858 0.12115 0.12434 0.0
H585 H 0.18707 0.26614 0.15173 0.0
H586 H 0.15923 0.22478 0.11947 0.0
H587 H 0.1006 0.14579 0.16887 0.0
H588 H 0.0564 0.02449 0.05966 0.0
H589 H 0.08975 0.05669 0.09926 0.0
H590 H 0.15548 0.13653 0.06105 0.0
C591 C 0.16444 0.2199 0.14429 0.0
C592 C 0.11321 0.14361 0.14559 0.0
C593 C 0.18017 0.24377 0.16292 0.0
C594 C 0.06502 0.04833 0.05347 0.0
C595 C 0.08378 0.06682 0.07622 0.0
C596 C 0.14334 0.13819 0.08456 0.0
C597 C 0.15616 0.19002 0.15727 0.0
C598 C 0.14248 0.16407 0.1362 0.0
C599 C 0.0945 0.09817 0.06925 0.0
C600 C 0.11292 0.11878 0.09332 0.0
H601 H 0.18354 0.20452 0.23349 0.0
H602 H 0.15599 0.1625 0.20068 0.0
H603 H 0.18126 0.17514 0.09797 0.0
H604 H 0.06099 0.10283 0.99383 0.0
H605 H 0.09396 0.1346 0.03301 0.0
C606 C 0.06489 0.96076 0.45699 0.0
C607 C 0.05417 0.94698 0.48601 0.0
C608 C 0.08098 0.94213 0.43292 0.0
C609 C 0.08522 0.8581 0.40755 0.0
H610 H 0.16966 0.884 0.35527 0.0
C611 C 0.17786 0.76898 0.34172 0.0
C612 C 0.18922 0.77547 0.31046 0.0
C613 C 0.15854 0.79161 0.35948 0.0
C614 C 0.14567 0.87667 0.36936 0.0
H615 H 0.05431 0.90328 0.51315 0.0
H616 H 0.08282 0.87133 0.47189 0.0
H617 H 0.14317 0.92113 0.39408 0.0
H618 H 0.18889 0.81089 0.27324 0.0
H619 H 0.15521 0.85094 0.30474 0.0
H620 H 0.08828 0.81346 0.38366 0.0
C621 C 0.07779 0.8962 0.46715 0.0
C622 C 0.13054 0.8979 0.39161 0.0
C623 C 0.06167 0.91464 0.49097 0.0
C624 C 0.18024 0.80511 0.29718 0.0
C625 C 0.16129 0.82809 0.31526 0.0
C626 C 0.10038 0.83696 0.38554 0.0
C627 C 0.08668 0.90941 0.43749 0.0
C628 C 0.10076 0.88852 0.41156 0.0
C629 C 0.15035 0.82154 0.34665 0.0
C630 C 0.13134 0.84569 0.36674 0.0
H631 H 0.05936 0.98558 0.45237 0.0
H632 H 0.08758 0.95306 0.41037 0.0
H633 H 0.06157 0.85037 0.42183 0.0
H634 H 0.18427 0.7464 0.35268 0.0
H635 H 0.15088 0.78594 0.38369 0.0
C636 C 0.42908 0.9603 0.55282 0.0
C637 C 0.43892 0.94722 0.52326 0.0
C638 C 0.41367 0.9411 0.57678 0.0
C639 C 0.40932 0.85641 0.60026 0.0
H640 H 0.32697 0.88191 0.655 0.0
C641 C 0.31849 0.76662 0.6675 0.0
C642 C 0.30801 0.77297 0.69901 0.0
C643 C 0.33735 0.78933 0.64944 0.0
C644 C 0.35037 0.87466 0.6402 0.0
H645 H 0.43804 0.90412 0.49517 0.0
H646 H 0.41071 0.87122 0.53625 0.0
H647 H 0.35264 0.9196 0.61637 0.0
H648 H 0.3095 0.80827 0.73634 0.0
H649 H 0.34239 0.84836 0.70439 0.0
H650 H 0.40649 0.81131 0.62332 0.0
C651 C 0.41591 0.89597 0.54147 0.0
C652 C 0.36505 0.89622 0.61805 0.0
C653 C 0.43135 0.91497 0.51776 0.0
C654 C 0.31745 0.80256 0.71221 0.0
C655 C 0.33596 0.82558 0.69388 0.0
C656 C 0.39459 0.83493 0.62217 0.0
C657 C 0.40776 0.9085 0.57157 0.0
C658 C 0.39411 0.88705 0.59726 0.0
C659 C 0.34596 0.8192 0.66223 0.0
C660 C 0.3644 0.84352 0.6419 0.0
H661 H 0.43466 0.98502 0.55789 0.0
H662 H 0.40768 0.95153 0.59969 0.0
H663 H 0.43242 0.84879 0.5853 0.0
H664 H 0.31169 0.7441 0.65656 0.0
H665 H 0.34428 0.78376 0.62506 0.0
C666 C 0.42977 0.0921 0.98979 0.0
C667 C 0.43692 0.05968 0.98497 0.0
C668 C 0.41486 0.11079 0.96562 0.0
C669 C 0.36458 0.11023 0.88903 0.0
H670 H 0.40968 0.19371 0.88195 0.0
C671 C 0.31895 0.2041 0.79434 0.0
C672 C 0.31089 0.23399 0.80749 0.0
C673 C 0.33713 0.18077 0.81252 0.0
C674 C 0.39677 0.17049 0.88358 0.0
H675 H 0.43223 0.02121 0.95114 0.0
H676 H 0.406 0.05417 0.90853 0.0
H677 H 0.43418 0.15618 0.92056 0.0
H678 H 0.31679 0.26312 0.84956 0.0
H679 H 0.34882 0.22297 0.88077 0.0
H680 H 0.32678 0.12506 0.8521 0.0
C681 C 0.41203 0.06497 0.93126 0.0
C682 C 0.4107 0.14899 0.90582 0.0
C683 C 0.42696 0.04608 0.95567 0.0
C684 C 0.32254 0.24038 0.83869 0.0
C685 C 0.34108 0.21737 0.85657 0.0
C686 C 0.35065 0.13184 0.86658 0.0
C687 C 0.40679 0.09775 0.93574 0.0
C688 C 0.39411 0.11893 0.90952 0.0
C689 C 0.34818 0.18716 0.84392 0.0
C690 C 0.366 0.16252 0.86425 0.0
H691 H 0.43654 0.10335 0.01217 0.0
H692 H 0.41015 0.13572 0.97027 0.0
H693 H 0.35118 0.08728 0.89125 0.0
H694 H 0.31001 0.19838 0.77047 0.0
H695 H 0.34238 0.15773 0.80212 0.0
C696 C 0.68139 0.30376 0.79864 0.0
C697 C 0.69236 0.2746 0.81195 0.0
C698 C 0.66607 0.32776 0.81783 0.0
C699 C 0.66447 0.35263 0.90214 0.0
H700 H 0.57926 0.40496 0.87841 0.0
C701 C 0.57441 0.41794 0.99368 0.0
C702 C 0.5622 0.44899 0.98738 0.0
C703 C 0.59342 0.40043 0.97065 0.0
C704 C 0.60348 0.39087 0.88514 0.0
H705 H 0.69356 0.24722 0.85551 0.0
H706 H 0.66645 0.28837 0.88842 0.0
H707 H 0.60461 0.36642 0.84048 0.0
H708 H 0.56082 0.48615 0.95192 0.0
H709 H 0.59399 0.45513 0.91122 0.0
H710 H 0.66279 0.37627 0.94698 0.0
C711 C 0.67066 0.29325 0.86346 0.0
C712 C 0.61796 0.36877 0.86344 0.0
C713 C 0.68598 0.26949 0.84446 0.0
C714 C 0.57016 0.46238 0.95757 0.0
C715 C 0.58881 0.44456 0.93421 0.0
C716 C 0.64996 0.37451 0.92374 0.0
C717 C 0.66143 0.32299 0.85065 0.0
C718 C 0.64802 0.34879 0.87204 0.0
C719 C 0.60044 0.4133 0.94051 0.0
C720 C 0.61874 0.39335 0.91582 0.0
H721 H 0.68604 0.30853 0.77371 0.0
H722 H 0.65919 0.35038 0.8072 0.0
H723 H 0.68833 0.33831 0.90926 0.0
H724 H 0.56875 0.4069 0.01638 0.0
H725 H 0.60162 0.37632 0.97617 0.0
C726 C 0.9321 0.4609 0.05252 0.0
C727 C 0.94343 0.44742 0.02353 0.0
C728 C 0.91609 0.4419 0.07636 0.0
C729 C 0.91243 0.35757 0.10119 0.0
H730 H 0.82751 0.3829 0.15316 0.0
C731 C 0.82025 0.26786 0.16722 0.0
C732 C 0.8086 0.27455 0.19836 0.0
C733 C 0.83949 0.29048 0.14934 0.0
C734 C 0.85161 0.37571 0.13914 0.0
H735 H 0.94458 0.40384 0.99622 0.0
H736 H 0.91617 0.37129 0.03705 0.0
H737 H 0.85401 0.42027 0.11462 0.0
H738 H 0.8084 0.31033 0.23525 0.0
H739 H 0.84193 0.35028 0.20359 0.0
H740 H 0.90946 0.31282 0.12491 0.0
C741 C 0.92067 0.39619 0.04197 0.0
C742 C 0.86677 0.39709 0.11705 0.0
C743 C 0.93673 0.41499 0.01839 0.0
C744 C 0.81726 0.30437 0.21141 0.0
C745 C 0.83614 0.3273 0.19323 0.0
C746 C 0.89722 0.33626 0.12303 0.0
C747 C 0.91105 0.40914 0.07159 0.0
C748 C 0.89679 0.38796 0.09725 0.0
C749 C 0.8473 0.32059 0.16194 0.0
C750 C 0.86612 0.34479 0.14176 0.0
H751 H 0.93699 0.48578 0.05729 0.0
H752 H 0.90895 0.45265 0.09889 0.0
H753 H 0.93625 0.35001 0.08702 0.0
H754 H 0.81407 0.24515 0.15642 0.0
H755 H 0.84734 0.28467 0.12521 0.0
C756 C 0.93079 0.54816 0.45598 0.0
C757 C 0.94078 0.56122 0.48551 0.0
C758 C 0.91526 0.56737 0.43211 0.0
C759 C 0.91202 0.65189 0.40856 0.0
H760 H 0.82901 0.62744 0.35408 0.0
C761 C 0.82254 0.74284 0.342 0.0
C762 C 0.81129 0.73662 0.31066 0.0
C763 C 0.84135 0.71989 0.35976 0.0
C764 C 0.85262 0.63439 0.36879 0.0
H765 H 0.93986 0.60423 0.51372 0.0
H766 H 0.91235 0.63718 0.47275 0.0
H767 H 0.85405 0.58945 0.39271 0.0
H768 H 0.81144 0.70139 0.27327 0.0
H769 H 0.84429 0.66086 0.30469 0.0
H770 H 0.91012 0.69695 0.38539 0.0
C771 C 0.9175 0.61243 0.46751 0.0
C772 C 0.86691 0.61266 0.39094 0.0
C773 C 0.93304 0.59341 0.49115 0.0
C774 C 0.82002 0.70698 0.29726 0.0
C775 C 0.83849 0.68371 0.31531 0.0
C776 C 0.89773 0.67351 0.38662 0.0
C777 C 0.90942 0.59995 0.43738 0.0
C778 C 0.89616 0.62149 0.41167 0.0
C779 C 0.84915 0.68993 0.34684 0.0
C780 C 0.86729 0.66532 0.36699 0.0
H781 H 0.93653 0.52349 0.45081 0.0
H782 H 0.90928 0.557 0.40918 0.0
H783 H 0.93529 0.65921 0.42348 0.0
H784 H 0.81629 0.7654 0.35307 0.0
H785 H 0.84877 0.72534 0.38407 0.0
C786 C 0.56648 0.54827 0.55484 0.0
C787 C 0.55616 0.56164 0.52552 0.0
C788 C 0.58159 0.56736 0.57901 0.0
C789 C 0.58378 0.65163 0.60388 0.0
H790 H 0.66826 0.6274 0.65683 0.0
C791 C 0.67409 0.74265 0.6696 0.0
C792 C 0.68591 0.73637 0.70077 0.0
C793 C 0.65507 0.71971 0.65199 0.0
C794 C 0.64425 0.63427 0.64257 0.0
H795 H 0.55586 0.60519 0.49812 0.0
H796 H 0.58256 0.6379 0.5396 0.0
H797 H 0.64288 0.58959 0.61819 0.0
H798 H 0.68662 0.70099 0.73803 0.0
H799 H 0.65344 0.66043 0.70684 0.0
H800 H 0.58571 0.69649 0.62745 0.0
C801 C 0.57802 0.61298 0.54444 0.0
C802 C 0.62974 0.61264 0.62041 0.0
C803 C 0.56293 0.59409 0.52049 0.0
C804 C 0.67758 0.70663 0.71416 0.0
C805 C 0.65893 0.68335 0.69625 0.0
C806 C 0.59831 0.67316 0.62582 0.0
C807 C 0.58665 0.60013 0.57429 0.0
C808 C 0.59997 0.62141 0.6002 0.0
C809 C 0.64766 0.68965 0.66489 0.0
C810 C 0.62928 0.66506 0.64487 0.0
H811 H 0.56155 0.52338 0.55954 0.0
H812 H 0.58801 0.55669 0.60173 0.0
H813 H 0.56014 0.65889 0.58937 0.0
H814 H 0.68003 0.76529 0.65855 0.0
H815 H 0.64716 0.72522 0.62781 0.0
C816 C 0.20579 0.28933 0.38502 0.0
C817 C 0.23749 0.29684 0.36649 0.0
C818 C 0.20787 0.29029 0.41821 0.0
C819 C 0.27084 0.27793 0.48364 0.0
H820 H 0.20863 0.33497 0.53304 0.0
C821 C 0.29087 0.28902 0.61941 0.0
C822 C 0.25916 0.29577 0.63811 0.0
C823 C 0.28869 0.29043 0.58625 0.0
C824 C 0.22579 0.31838 0.51985 0.0
H825 H 0.29626 0.31092 0.36818 0.0
H826 H 0.30011 0.31144 0.42606 0.0
H827 H 0.20227 0.33373 0.4755 0.0
H828 H 0.20015 0.30884 0.63678 0.0
H829 H 0.19564 0.30963 0.57943 0.0
H830 H 0.29331 0.26131 0.52754 0.0
C831 C 0.27359 0.30537 0.41488 0.0
C832 C 0.22222 0.31791 0.48679 0.0
C833 C 0.27128 0.3052 0.38179 0.0
C834 C 0.22525 0.30389 0.62302 0.0
C835 C 0.22278 0.30456 0.58995 0.0
C836 C 0.27382 0.2778 0.51673 0.0
C837 C 0.24195 0.29794 0.43338 0.0
C838 C 0.24485 0.29782 0.46842 0.0
C839 C 0.25444 0.29786 0.57093 0.0
C840 C 0.25146 0.29814 0.53544 0.0
H841 H 0.17941 0.28282 0.37387 0.0
H842 H 0.18313 0.28442 0.43207 0.0
H843 H 0.28847 0.26209 0.46991 0.0
H844 H 0.31745 0.28285 0.63041 0.0
H845 H 0.31401 0.28581 0.57273 0.0
C846 C 0.06949 0.98083 0.87581 0.0
C847 C 0.05537 0.01005 0.88657 0.0
C848 C 0.08278 0.97767 0.84472 0.0
C849 C 0.10801 0.02217 0.77123 0.0
H850 H 0.05592 0.95316 0.72942 0.0
C851 C 0.06418 0.02493 0.63974 0.0
C852 C 0.0582 0.99616 0.62379 0.0
C853 C 0.07665 0.02501 0.67122 0.0
C854 C 0.07162 0.97213 0.74055 0.0
H855 H 0.04747 0.0595 0.87399 0.0
H856 H 0.0704 0.05392 0.82004 0.0
H857 H 0.05594 0.95603 0.78669 0.0
H858 H 0.06436 0.94517 0.62695 0.0
H859 H 0.08768 0.94533 0.68123 0.0
H860 H 0.12261 0.03881 0.72481 0.0
C861 C 0.07125 0.03343 0.83548 0.0
C862 C 0.07157 0.97377 0.77358 0.0
C863 C 0.05779 0.03655 0.86643 0.0
C864 C 0.06826 0.9677 0.63884 0.0
C865 C 0.08133 0.9678 0.67005 0.0
C866 C 0.10829 0.02042 0.73807 0.0
C867 C 0.08249 1.0037 0.82387 0.0
C868 C 0.08881 0.99927 0.78931 0.0
C869 C 0.08388 0.99632 0.68719 0.0
C870 C 0.08916 0.99584 0.72227 0.0
H871 H 0.06817 0.95994 0.8907 0.0
H872 H 0.09175 0.95453 0.83656 0.0
H873 H 0.12189 0.04195 0.7827 0.0
H874 H 0.05643 0.04722 0.62879 0.0
H875 H 0.07802 0.04745 0.68361 0.0
C876 C 0.2913 0.71981 0.8879 0.0
C877 C 0.25955 0.71234 0.86945 0.0
C878 C 0.28935 0.71863 0.9211 0.0
C879 C 0.22709 0.73122 0.98659 0.0
H880 H 0.28748 0.67266 0.03577 0.0
C881 C 0.20677 0.72016 0.12231 0.0
C882 C 0.23836 0.71283 0.14091 0.0
C883 C 0.20884 0.7187 0.08914 0.0
C884 C 0.27085 0.68966 0.02263 0.0
H885 H 0.20085 0.69802 0.87126 0.0
H886 H 0.19725 0.69707 0.92913 0.0
H887 H 0.29395 0.67399 0.97822 0.0
H888 H 0.29703 0.69869 0.13943 0.0
H889 H 0.30136 0.69781 0.0821 0.0
H890 H 0.20509 0.74815 0.03055 0.0
C891 C 0.2237 0.7033 0.91789 0.0
C892 C 0.27448 0.69018 0.98958 0.0
C893 C 0.22588 0.7037 0.88481 0.0
C894 C 0.27202 0.70409 0.12574 0.0
C895 C 0.27438 0.70337 0.09268 0.0
C896 C 0.22408 0.73129 0.01967 0.0
C897 C 0.25536 0.71077 0.9363 0.0
C898 C 0.25249 0.71085 0.97132 0.0
C899 C 0.24286 0.71065 0.07375 0.0
C900 C 0.24579 0.7104 0.03829 0.0
H901 H 0.31758 0.72655 0.8767 0.0
H902 H 0.3141 0.72453 0.93492 0.0
H903 H 0.20996 0.74748 0.97291 0.0
H904 H 0.1804 0.72683 0.13338 0.0
H905 H 0.18362 0.72381 0.07567 0.0
C906 C 0.42651 0.97224 0.36572 0.0
C907 C 0.42928 0.99884 0.3857 0.0
C908 C 0.41279 0.97526 0.33485 0.0
C909 C 0.41311 0.03474 0.27284 0.0
H910 H 0.36229 0.9697 0.22396 0.0
C911 C 0.41842 0.04013 0.13807 0.0
C912 C 0.42833 0.01153 0.12323 0.0
C913 C 0.4049 0.04027 0.16917 0.0
C914 C 0.37656 0.98808 0.23724 0.0
H915 H 0.41665 0.04897 0.38973 0.0
H916 H 0.39257 0.05421 0.33574 0.0
H917 H 0.36236 0.96678 0.28186 0.0
H918 H 0.42939 0.96048 0.12847 0.0
H919 H 0.40703 0.96066 0.18308 0.0
H920 H 0.4294 0.05511 0.22871 0.0
C921 C 0.40147 0.03107 0.34395 0.0
C922 C 0.37646 0.98647 0.27041 0.0
C923 C 0.41502 0.02801 0.37497 0.0
C924 C 0.42175 0.98288 0.13924 0.0
C925 C 0.40884 0.98304 0.17062 0.0
C926 C 0.41345 0.03624 0.23979 0.0
C927 C 0.40164 0.00498 0.32316 0.0
C928 C 0.39557 0.00936 0.28855 0.0
C929 C 0.40176 0.01185 0.18642 0.0
C930 C 0.39602 0.01252 0.22147 0.0
H931 H 0.43696 0.94933 0.3733 0.0
H932 H 0.41351 0.95471 0.31948 0.0
H933 H 0.42869 0.05247 0.28598 0.0
H934 H 0.42282 0.06257 0.12614 0.0
H935 H 0.39867 0.06285 0.18018 0.0
C936 C 0.35204 0.23911 0.244 0.0
C937 C 0.33733 0.26939 0.24974 0.0
C938 C 0.39092 0.23487 0.24072 0.0
C939 C 0.47965 0.27518 0.22311 0.0
H940 H 0.52452 0.21512 0.28144 0.0
C941 C 0.63993 0.27235 0.24757 0.0
C942 C 0.65645 0.24282 0.25355 0.0
C943 C 0.60079 0.27488 0.24437 0.0
C944 C 0.5126 0.23151 0.26444 0.0
H945 H 0.35124 0.31853 0.25874 0.0
H946 H 0.41911 0.31139 0.25184 0.0
H947 H 0.45636 0.21974 0.27854 0.0
H948 H 0.64557 0.1933 0.26323 0.0
H949 H 0.57787 0.19711 0.25596 0.0
H950 H 0.53576 0.28664 0.20849 0.0
C951 C 0.40065 0.29112 0.24908 0.0
C952 C 0.47349 0.23418 0.26292 0.0
C953 C 0.36193 0.29522 0.25284 0.0
C954 C 0.63343 0.21613 0.25743 0.0
C955 C 0.59454 0.2185 0.25384 0.0
C956 C 0.51885 0.27208 0.22414 0.0
C957 C 0.4155 0.26087 0.24329 0.0
C958 C 0.45671 0.25627 0.24254 0.0
C959 C 0.57759 0.24792 0.24743 0.0
C960 C 0.53586 0.25046 0.24513 0.0
H961 H 0.3335 0.21878 0.24229 0.0
H962 H 0.40185 0.21128 0.23651 0.0
H963 H 0.46723 0.29238 0.20719 0.0
H964 H 0.65727 0.29337 0.24535 0.0
H965 H 0.58874 0.29807 0.24019 0.0
C966 C 0.02267 0.37397 0.55168 0.0
C967 C 0.98894 0.38951 0.54363 0.0
C968 C 0.02452 0.34089 0.55223 0.0
C969 C 0.97212 0.26977 0.5664 0.0
H970 H 0.04219 0.22743 0.51001 0.0
C971 C 0.97294 0.13342 0.55433 0.0
C972 C 0.00658 0.11783 0.5463 0.0
C973 C 0.971 0.1665 0.55454 0.0
C974 C 0.02298 0.23869 0.52644 0.0
H975 H 0.9305 0.38258 0.53051 0.0
H976 H 0.93342 0.32439 0.53276 0.0
H977 H 0.03819 0.28509 0.50991 0.0
H978 H 0.06492 0.12468 0.53304 0.0
H979 H 0.0624 0.18242 0.53518 0.0
H980 H 0.95799 0.22394 0.58426 0.0
C981 C 0.95848 0.33805 0.53811 0.0
C982 C 0.02048 0.27179 0.52607 0.0
C983 C 0.95685 0.37124 0.53677 0.0
C984 C 0.03855 0.13606 0.53916 0.0
C985 C 0.03689 0.16925 0.5401 0.0
C986 C 0.97521 0.2367 0.56736 0.0
C987 C 0.99248 0.32264 0.54549 0.0
C988 C 0.99485 0.28758 0.54587 0.0
C989 C 0.00293 0.18505 0.54745 0.0
C990 C 0.0005 0.22054 0.5472 0.0
H991 H 0.04795 0.38739 0.5569 0.0
H992 H 0.05099 0.32952 0.5581 0.0
H993 H 0.95246 0.2815 0.58217 0.0
H994 H 0.94765 0.12002 0.55957 0.0
H995 H 0.94406 0.17739 0.55957 0.0
C996 C 0.85249 0.73667 0.74939 0.0
C997 C 0.83763 0.76708 0.75412 0.0
C998 C 0.89142 0.73244 0.74642 0.0
C999 C 0.97995 0.77295 0.7279 0.0
H1000 H 0.02543 0.71345 0.78647 0.0
C1001 C 0.14048 0.77054 0.75112 0.0
C1002 C 0.15713 0.74101 0.75683 0.0
C1003 C 0.10128 0.77306 0.74849 0.0
C1004 C 0.01333 0.72969 0.76943 0.0
H1005 H 0.85134 0.81649 0.76173 0.0
H1006 H 0.91926 0.80933 0.75543 0.0
H1007 H 0.95721 0.71787 0.78385 0.0
H1008 H 0.14648 0.69149 0.76671 0.0
H1009 H 0.07861 0.69531 0.76054 0.0
H1010 H 0.03593 0.78445 0.71296 0.0
C1011 C 0.90091 0.78893 0.7532 0.0
C1012 C 0.97418 0.73225 0.76806 0.0
C1013 C 0.86215 0.79304 0.75661 0.0
C1014 C 0.1342 0.71433 0.76112 0.0
C1015 C 0.09524 0.71669 0.75815 0.0
C1016 C 0.01917 0.76997 0.7288 0.0
C1017 C 0.91591 0.75857 0.74831 0.0
C1018 C 0.95718 0.75412 0.74756 0.0
C1019 C 0.07816 0.74608 0.75188 0.0
C1020 C 0.0364 0.74856 0.74987 0.0
H1021 H 0.83402 0.71627 0.74815 0.0
H1022 H 0.90245 0.70877 0.74288 0.0
H1023 H 0.9674 0.78998 0.71188 0.0
H1024 H 0.15777 0.79155 0.74859 0.0
H1025 H 0.08913 0.79622 0.74441 0.0
C1026 C 0.53838 0.63675 0.04235 0.0
C1027 C 0.50706 0.61751 0.04913 0.0
C1028 C 0.53526 0.66987 0.04352 0.0
C1029 C 0.47132 0.73415 0.03007 0.0
H1030 H 0.5299 0.78401 0.08938 0.0
C1031 C 0.44991 0.87002 0.04028 0.0
C1032 C 0.48128 0.8887 0.04813 0.0
C1033 C 0.45203 0.83685 0.0418 0.0
C1034 C 0.51377 0.7707 0.07216 0.0
H1035 H 0.4479 0.61783 0.06209 0.0
H1036 H 0.44228 0.6756 0.06299 0.0
H1037 H 0.5373 0.72661 0.08815 0.0
H1038 H 0.53965 0.88732 0.06315 0.0
H1039 H 0.54409 0.83008 0.06415 0.0
H1040 H 0.44897 0.77786 0.01282 0.0
C1041 C 0.46928 0.66502 0.05734 0.0
C1042 C 0.51792 0.73772 0.07172 0.0
C1043 C 0.47261 0.63201 0.05698 0.0
C1044 C 0.51477 0.87359 0.05737 0.0
C1045 C 0.5172 0.84056 0.05817 0.0
C1046 C 0.46781 0.7672 0.02993 0.0
C1047 C 0.50054 0.68423 0.05063 0.0
C1048 C 0.49667 0.71918 0.05074 0.0
C1049 C 0.48588 0.82155 0.05048 0.0
C1050 C 0.48895 0.78608 0.05101 0.0
H1051 H 0.56525 0.62623 0.03622 0.0
H1052 H 0.55973 0.68428 0.03822 0.0
H1053 H 0.45473 0.72027 0.01358 0.0
H1054 H 0.42367 0.88104 0.03318 0.0
H1055 H 0.42698 0.82331 0.0363 0.0
C1056 C 0.63544 0.79294 0.25373 0.0
C1057 C 0.6599 0.76699 0.25645 0.0
C1058 C 0.59666 0.78888 0.25707 0.0
C1059 C 0.52319 0.73205 0.2428 0.0
H1060 H 0.4617 0.78531 0.29705 0.0
C1061 C 0.36298 0.71506 0.24979 0.0
C1062 C 0.3403 0.74196 0.25356 0.0
C1063 C 0.40196 0.71722 0.25282 0.0
C1064 C 0.47839 0.77053 0.28145 0.0
H1065 H 0.66341 0.71621 0.26271 0.0
H1066 H 0.59494 0.70878 0.26788 0.0
H1067 H 0.53023 0.79061 0.29809 0.0
H1068 H 0.34014 0.79265 0.26089 0.0
H1069 H 0.4088 0.79695 0.26517 0.0
H1070 H 0.47183 0.71316 0.22465 0.0
C1071 C 0.60602 0.73242 0.2642 0.0
C1072 C 0.51762 0.77337 0.28233 0.0
C1073 C 0.64497 0.73661 0.26129 0.0
C1074 C 0.35722 0.77148 0.25878 0.0
C1075 C 0.39643 0.77379 0.26147 0.0
C1076 C 0.48403 0.72961 0.24145 0.0
C1077 C 0.58159 0.75857 0.26212 0.0
C1078 C 0.5403 0.75419 0.26296 0.0
C1079 C 0.4193 0.74662 0.25861 0.0
C1080 C 0.46106 0.74888 0.26068 0.0
H1081 H 0.6463 0.81637 0.24855 0.0
H1082 H 0.57837 0.80929 0.25468 0.0
H1083 H 0.54009 0.71738 0.22723 0.0
H1084 H 0.35049 0.69222 0.24457 0.0
H1085 H 0.41839 0.69571 0.25084 0.0
C1086 C 0.50513 0.13427 0.4403 0.0
C1087 C 0.4812 0.11921 0.46221 0.0
C1088 C 0.50824 0.16728 0.43962 0.0
C1089 C 0.49523 0.23799 0.48983 0.0
H1090 H 0.50361 0.28327 0.41013 0.0
C1091 C 0.53631 0.37091 0.48403 0.0
C1092 C 0.51502 0.38982 0.46327 0.0
C1093 C 0.53315 0.33779 0.4832 0.0
C1094 C 0.50117 0.27103 0.43261 0.0
H1095 H 0.4411 0.12715 0.50014 0.0
H1096 H 0.44633 0.18498 0.49883 0.0
H1097 H 0.49341 0.22612 0.4099 0.0
H1098 H 0.47448 0.38872 0.42479 0.0
H1099 H 0.46907 0.33126 0.42332 0.0
H1100 H 0.50251 0.28302 0.51252 0.0
C1101 C 0.46301 0.17113 0.48238 0.0
C1102 C 0.49562 0.2382 0.43248 0.0
C1103 C 0.45975 0.13802 0.48296 0.0
C1104 C 0.49136 0.37488 0.4411 0.0
C1105 C 0.48835 0.34187 0.44016 0.0
C1106 C 0.50096 0.27083 0.48996 0.0
C1107 C 0.4876 0.18615 0.4609 0.0
C1108 C 0.49254 0.22125 0.46108 0.0
C1109 C 0.50882 0.32289 0.46145 0.0
C1110 C 0.50394 0.28778 0.46135 0.0
H1111 H 0.52213 0.12052 0.42401 0.0
H1112 H 0.52771 0.17798 0.42299 0.0
H1113 H 0.49344 0.22565 0.51229 0.0
H1114 H 0.55475 0.38169 0.50141 0.0
H1115 H 0.54968 0.32385 0.49966 0.0
C1116 C 0.13527 0.29064 0.75047 0.0
C1117 C 0.15961 0.26461 0.75319 0.0
C1118 C 0.09647 0.28669 0.75375 0.0
C1119 C 0.02268 0.23054 0.73898 0.0
H1120 H 0.96172 0.28289 0.79451 0.0
C1121 C 0.86235 0.21401 0.74628 0.0
C1122 C 0.83983 0.24082 0.75112 0.0
C1123 C 0.90138 0.21599 0.74894 0.0
C1124 C 0.97825 0.26839 0.77853 0.0
H1125 H 0.16289 0.2138 0.75933 0.0
H1126 H 0.09436 0.20658 0.76433 0.0
H1127 H 0.03025 0.28795 0.7954 0.0
H1128 H 0.83995 0.29128 0.75987 0.0
H1129 H 0.90866 0.29533 0.76348 0.0
H1130 H 0.97116 0.21224 0.72056 0.0
C1131 C 0.10557 0.23019 0.76075 0.0
C1132 C 0.01748 0.27107 0.77934 0.0
C1133 C 0.14455 0.23427 0.75793 0.0
C1134 C 0.85693 0.27015 0.75695 0.0
C1135 C 0.89618 0.2723 0.75926 0.0
C1136 C 0.9835 0.2283 0.73767 0.0
C1137 C 0.08127 0.25642 0.75871 0.0
C1138 C 0.03998 0.25219 0.75954 0.0
C1139 C 0.91891 0.24516 0.75543 0.0
C1140 C 0.96071 0.24725 0.75737 0.0
H1141 H 0.14624 0.31405 0.74533 0.0
H1142 H 0.07826 0.30716 0.7514 0.0
H1143 H 0.03946 0.21611 0.72309 0.0
H1144 H 0.84969 0.19135 0.74057 0.0
H1145 H 0.91769 0.1945 0.74619 0.0
C1146 C 0.03512 0.87226 0.97156 0.0
C1147 C 0.00315 0.89084 0.96516 0.0
C1148 C 0.03305 0.83911 0.97002 0.0
C1149 C 0.97079 0.77316 0.98241 0.0
H1150 H 0.03197 0.7255 0.92313 0.0
C1151 C 0.95362 0.63714 0.96999 0.0
C1152 C 0.9857 0.61923 0.96242 0.0
C1153 C 0.95479 0.67035 0.96887 0.0
C1154 C 0.01512 0.7382 0.94033 0.0
H1155 H 0.94392 0.8893 0.95252 0.0
H1156 H 0.94014 0.83145 0.95099 0.0
H1157 H 0.03756 0.78303 0.92527 0.0
H1158 H 0.04431 0.62201 0.94823 0.0
H1159 H 0.04707 0.67935 0.94792 0.0
H1160 H 0.94949 0.72873 0.99874 0.0
C1161 C 0.96683 0.84257 0.95664 0.0
C1162 C 0.01824 0.77125 0.94131 0.0
C1163 C 0.96911 0.87564 0.95738 0.0
C1164 C 0.01892 0.63514 0.9538 0.0
C1165 C 0.02038 0.66822 0.9534 0.0
C1166 C 0.9683 0.74005 0.98202 0.0
C1167 C -0.00124 0.82402 0.96291 0.0
C1168 C 0.99603 0.789 0.96228 0.0
C1169 C 0.98836 0.68646 0.96088 0.0
C1170 C 0.99039 0.72197 0.96092 0.0
H1171 H 0.0617 0.88334 0.9776 0.0
H1172 H 0.05802 0.82521 0.975 0.0
H1173 H 0.95348 0.78641 0.9989 0.0
H1174 H 0.92757 0.62549 0.97659 0.0
H1175 H 0.92923 0.68329 0.97416 0.0
C1176 C 0.16994 0.38654 0.27783 0.0
C1177 C 0.18347 0.37608 0.24829 0.0
C1178 C 0.15675 0.41759 0.28148 0.0
C1179 C 0.13136 0.49171 0.23812 0.0
H1180 H 0.18607 0.53231 0.30643 0.0
C1181 C 0.17804 0.6224 0.23514 0.0
C1182 C 0.18515 0.63815 0.26385 0.0
C1183 C 0.16486 0.59113 0.23519 0.0
C1184 C 0.16965 0.52153 0.28769 0.0
H1185 H 0.19022 0.38905 0.1988 0.0
H1186 H 0.16744 0.44292 0.20522 0.0
H1187 H 0.18483 0.4751 0.30317 0.0
H1188 H 0.18029 0.63487 0.31495 0.0
H1189 H 0.15577 0.58098 0.31506 0.0
H1190 H 0.11728 0.53841 0.22206 0.0
C1191 C 0.16701 0.4273 0.22559 0.0
C1192 C 0.16898 0.48853 0.28582 0.0
C1193 C 0.18036 0.3964 0.22197 0.0
C1194 C 0.17554 0.62314 0.29246 0.0
C1195 C 0.16177 0.59214 0.2925 0.0
C1196 C 0.1318 0.52484 0.2401 0.0
C1197 C 0.15655 0.43867 0.25563 0.0
C1198 C 0.15081 0.47323 0.26053 0.0
C1199 C 0.15803 0.57517 0.26397 0.0
C1200 C 0.15191 0.5402 0.26441 0.0
H1201 H 0.1718 0.37151 0.29858 0.0
H1202 H 0.14837 0.42555 0.30485 0.0
H1203 H 0.11677 0.48057 0.21852 0.0
H1204 H 0.1854 0.63331 0.21272 0.0
H1205 H 0.16259 0.57887 0.21273 0.0
C1206 C 0.68307 0.11679 0.78741 0.0
C1207 C 0.68501 0.13677 0.76075 0.0
C1208 C 0.66958 0.08583 0.78463 0.0
C1209 C 0.66888 0.02379 0.72518 0.0
H1210 H 0.61969 0.97478 0.79105 0.0
C1211 C 0.67387 0.88904 0.71956 0.0
C1212 C 0.68438 0.87412 0.74798 0.0
C1213 C 0.66056 0.92017 0.71969 0.0
C1214 C 0.63351 0.98809 0.77244 0.0
H1215 H 0.67116 0.14067 0.71081 0.0
H1216 H 0.6475 0.08652 0.706 0.0
H1217 H 0.61965 0.03265 0.79398 0.0
H1218 H 0.68678 0.87931 0.79903 0.0
H1219 H 0.66479 0.93399 0.79929 0.0
H1220 H 0.68483 0.97973 0.70453 0.0
C1221 C 0.65689 0.09481 0.72899 0.0
C1222 C 0.63334 0.02125 0.77406 0.0
C1223 C 0.67021 0.12591 0.73181 0.0
C1224 C 0.67869 0.89014 0.77676 0.0
C1225 C 0.66597 0.92155 0.77686 0.0
C1226 C 0.66929 0.99077 0.72367 0.0
C1227 C 0.65783 0.07406 0.75509 0.0
C1228 C 0.65185 0.03943 0.75085 0.0
C1229 C 0.6582 0.93738 0.74819 0.0
C1230 C 0.65244 0.9724 0.74766 0.0
H1231 H 0.69393 0.12445 0.81015 0.0
H1232 H 0.67091 0.07048 0.80518 0.0
H1233 H 0.68401 0.03698 0.7072 0.0
H1234 H 0.67754 0.8771 0.69703 0.0
H1235 H 0.65379 0.93122 0.69723 0.0
C1236 C 0.38556 0.50372 0.04406 0.0
C1237 C 0.41011 0.50138 0.01809 0.0
C1238 C 0.34678 0.50063 0.03984 0.0
C1239 C 0.27421 0.51773 0.98344 0.0
H1240 H 0.21084 0.46257 0.03417 0.0
C1241 C 0.11413 0.5131 0.96467 0.0
C1242 C 0.09096 0.50838 0.99114 0.0
C1243 C 0.15307 0.51005 0.96724 0.0
C1244 C 0.22808 0.47843 0.02013 0.0
H1245 H 0.41378 0.49591 0.9672 0.0
H1246 H 0.34531 0.49131 0.95953 0.0
H1247 H 0.27935 0.45997 0.03973 0.0
H1248 H 0.08983 0.49949 0.04159 0.0
H1249 H 0.15842 0.495 0.04662 0.0
H1250 H 0.22351 0.53758 0.96502 0.0
C1251 C 0.35634 0.49442 0.98327 0.0
C1252 C 0.26725 0.47668 0.02312 0.0
C1253 C 0.39528 0.49701 0.98761 0.0
C1254 C 0.10732 0.50235 0.02073 0.0
C1255 C 0.14648 0.49955 0.02345 0.0
C1256 C 0.23512 0.51993 0.98088 0.0
C1257 C 0.33181 0.49629 0.00939 0.0
C1258 C 0.29058 0.49636 0.00481 0.0
C1259 C 0.16983 0.50315 0.99664 0.0
C1260 C 0.2115 0.50038 0.99924 0.0
H1261 H 0.39634 0.50859 0.06758 0.0
H1262 H 0.3284 0.50284 0.06023 0.0
H1263 H 0.29165 0.53354 0.96949 0.0
H1264 H 0.10204 0.5189 0.94181 0.0
H1265 H 0.1699 0.51267 0.946 0.0
C1266 C 0.82411 0.12648 0.27797 0.0
C1267 C 0.81007 0.13723 0.24872 0.0
C1268 C 0.83738 0.09541 0.28116 0.0
C1269 C 0.86241 0.02183 0.23675 0.0
H1270 H 0.81013 0.98026 0.30585 0.0
C1271 C 0.8185 0.89033 0.23436 0.0
C1272 C 0.81259 0.87444 0.26319 0.0
C1273 C 0.83088 0.92184 0.23418 0.0
C1274 C 0.82588 0.99132 0.28685 0.0
H1275 H 0.80234 0.12466 0.19923 0.0
H1276 H 0.82522 0.07073 0.20486 0.0
H1277 H 0.81033 0.0375 0.30285 0.0
H1278 H 0.81873 0.87778 0.31418 0.0
H1279 H 0.84187 0.9321 0.31386 0.0
H1280 H 0.87688 0.97537 0.22022 0.0
C1281 C 0.82603 0.08617 0.22536 0.0
C1282 C 0.82594 0.02434 0.28514 0.0
C1283 C 0.81261 0.11711 0.2222 0.0
C1284 C 0.82258 0.88961 0.29161 0.0
C1285 C 0.83554 0.92085 0.29141 0.0
C1286 C 0.86258 0.98868 0.23857 0.0
C1287 C 0.83712 0.07455 0.25514 0.0
C1288 C 0.84327 0.03998 0.25962 0.0
C1289 C 0.83807 0.9379 0.26283 0.0
C1290 C 0.84339 0.97297 0.26319 0.0
H1291 H 0.82271 0.14135 0.29887 0.0
H1292 H 0.84625 0.08725 0.30434 0.0
H1293 H 0.87637 0.03322 0.21696 0.0
H1294 H 0.81081 0.8793 0.21209 0.0
H1295 H 0.83223 0.93415 0.21169 0.0
C1296 C 0.87934 1.00302 0.96961 0.0
C1297 C 0.90389 0.00642 0.99544 0.0
C1298 C 0.84056 0.00623 0.97373 0.0
C1299 C 0.76754 0.99182 0.03053 0.0
H1300 H 0.70529 0.04559 0.97746 0.0
C1301 C 0.60708 0.99688 0.04722 0.0
C1302 C 0.58445 1.00089 0.02032 0.0
C1303 C 0.64605 1.00012 0.04515 0.0
C1304 C 0.72219 0.03011 0.99218 0.0
H1305 H 0.90758 0.01373 0.04609 0.0
H1306 H 0.83907 0.01858 0.05363 0.0
H1307 H 0.7738 0.04741 0.97219 0.0
H1308 H 0.58435 0.00873 0.9697 0.0
H1309 H 0.65297 0.01338 0.96554 0.0
H1310 H 0.71646 0.97294 0.04927 0.0
C1311 C 0.85011 0.01455 0.03002 0.0
C1312 C 0.7614 0.03145 0.98937 0.0
C1313 C 0.88907 0.01181 0.02576 0.0
C1314 C 0.6014 0.00644 0.99087 0.0
C1315 C 0.6406 0.00936 0.98865 0.0
C1316 C 0.7284 0.98997 0.03291 0.0
C1317 C 0.82559 0.01178 1.00399 0.0
C1318 C 0.78434 0.01226 0.00848 0.0
C1319 C 0.66342 0.0064 0.01585 0.0
C1320 C 0.70515 0.009 0.01369 0.0
H1321 H 0.89013 0.99737 0.94626 0.0
H1322 H 0.82219 1.00331 0.95343 0.0
H1323 H 0.78468 0.97639 0.04514 0.0
H1324 H 0.59456 0.99138 0.07 0.0
H1325 H 0.66244 0.99802 0.06669 0.0
C1326 C 0.32462 0.62401 0.77733 0.0
C1327 C 0.31019 0.63517 0.74836 0.0
C1328 C 0.3377 0.59282 0.78 0.0
C1329 C 0.36165 0.51968 0.73444 0.0
H1330 H 0.31035 0.47745 0.80365 0.0
C1331 C 0.31785 0.38811 0.73124 0.0
C1332 C 0.31238 0.37195 0.75999 0.0
C1333 C 0.33013 0.41965 0.73122 0.0
C1334 C 0.32582 0.48869 0.7846 0.0
H1335 H 0.30157 0.62322 0.69883 0.0
H1336 H 0.32417 0.56912 0.70355 0.0
H1337 H 0.31065 0.53473 0.80128 0.0
H1338 H 0.31916 0.37487 0.81095 0.0
H1339 H 0.34215 0.42924 0.81088 0.0
H1340 H 0.37577 0.47339 0.71726 0.0
C1341 C 0.3254 0.58431 0.72423 0.0
C1342 C 0.32594 0.52173 0.78325 0.0
C1343 C 0.31216 0.61535 0.72158 0.0
C1344 C 0.32269 0.3869 0.78844 0.0
C1345 C 0.33555 0.41817 0.7884 0.0
C1346 C 0.36177 0.48652 0.7359 0.0
C1347 C 0.33689 0.57228 0.75373 0.0
C1348 C 0.34293 0.53763 0.75772 0.0
C1349 C 0.33766 0.43549 0.75994 0.0
C1350 C 0.34294 0.47056 0.76057 0.0
H1351 H 0.32364 0.63863 0.79841 0.0
H1352 H 0.34689 0.58435 0.80297 0.0
H1353 H 0.37534 0.53128 0.71463 0.0
H1354 H 0.30989 0.37725 0.70896 0.0
H1355 H 0.33115 0.43216 0.70884 0.0
C1356 C 0.1045 0.51062 0.48406 0.0
C1357 C 0.08998 0.50491 0.51445 0.0
C1358 C 0.14339 0.51365 0.47958 0.0
C1359 C 0.23207 0.53131 0.51981 0.0
H1360 H 0.27765 0.47371 0.45942 0.0
C1361 C 0.39218 0.5078 0.51829 0.0
C1362 C 0.40933 0.50208 0.48895 0.0
C1363 C 0.35299 0.51062 0.52034 0.0
C1364 C 0.26552 0.49052 0.47589 0.0
H1365 H 0.10423 0.49552 0.56345 0.0
H1366 H 0.17208 0.502 0.55591 0.0
H1367 H 0.20939 0.47628 0.46384 0.0
H1368 H 0.39957 0.49227 0.4393 0.0
H1369 H 0.33163 0.49887 0.44226 0.0
H1370 H 0.28795 0.54614 0.53155 0.0
C1371 C 0.15349 0.50493 0.53574 0.0
C1372 C 0.22636 0.49184 0.47845 0.0
C1373 C 0.11478 0.50142 0.54008 0.0
C1374 C 0.38689 0.49793 0.46197 0.0
C1375 C 0.34789 0.50113 0.46385 0.0
C1376 C 0.27126 0.53051 0.51681 0.0
C1377 C 0.16815 0.51086 0.50544 0.0
C1378 C 0.20935 0.5119 0.50073 0.0
C1379 C 0.33033 0.50746 0.49307 0.0
C1380 C 0.28855 0.50972 0.49515 0.0
H1381 H 0.08579 0.5126 0.46387 0.0
H1382 H 0.15418 0.51797 0.45595 0.0
H1383 H 0.2195 0.54698 0.53715 0.0
H1384 H 0.40908 0.51017 0.53954 0.0
H1385 H 0.3405 0.51465 0.5434 0.0
C1386 C 0.77255 0.80667 0.88478 0.0
C1387 C 0.73857 0.79839 0.86974 0.0
C1388 C 0.77505 0.80733 0.91785 0.0
C1389 C 0.72382 0.8208 0.98991 0.0
H1390 H 0.79483 0.7643 0.0309 0.0
C1391 C 0.72602 0.80658 0.1261 0.0
C1392 C 0.75983 0.79844 0.14135 0.0
C1393 C 0.72381 0.80736 0.09302 0.0
C1394 C 0.77537 0.78077 0.02003 0.0
H1395 H 0.68034 0.78505 0.87756 0.0
H1396 H 0.6844 0.7875 0.93569 0.0
H1397 H 0.79014 0.76495 0.97327 0.0
H1398 H 0.8182 0.78561 0.13392 0.0
H1399 H 0.8152 0.78875 0.07623 0.0
H1400 H 0.71007 0.83791 0.03611 0.0
C1401 C 0.70914 0.79295 0.92166 0.0
C1402 C 0.77249 0.78084 0.98693 0.0
C1403 C 0.70686 0.79151 0.8885 0.0
C1404 C 0.79169 0.79179 0.1228 0.0
C1405 C 0.78976 0.79331 0.08963 0.0
C1406 C 0.7273 0.82132 0.02297 0.0
C1407 C 0.74341 0.80047 0.93658 0.0
C1408 C 0.74649 0.80065 0.97162 0.0
C1409 C 0.75563 0.80076 0.07415 0.0
C1410 C 0.75291 0.80109 0.03865 0.0
H1411 H 0.79754 0.8119 0.87098 0.0
H1412 H 0.80171 0.81329 0.92884 0.0
H1413 H 0.70385 0.83655 0.97856 0.0
H1414 H 0.70081 0.81146 0.13975 0.0
H1415 H 0.69674 0.81245 0.08237 0.0
C1416 C 0.56922 0.53702 0.36744 0.0
C1417 C 0.5668 0.51049 0.38755 0.0
C1418 C 0.58256 0.5339 0.33645 0.0
C1419 C 0.58154 0.47398 0.27486 0.0
H1420 H 0.63049 0.53914 0.22476 0.0
C1421 C 0.57413 0.4676 0.14012 0.0
C1422 C 0.56361 0.49599 0.12516 0.0
C1423 C 0.58792 0.46782 0.17112 0.0
C1424 C 0.61673 0.52072 0.23839 0.0
H1425 H 0.57985 0.46044 0.39171 0.0
H1426 H 0.60333 0.45506 0.33755 0.0
H1427 H 0.63169 0.54241 0.28263 0.0
H1428 H 0.56166 0.54706 0.13012 0.0
H1429 H 0.58451 0.54748 0.18457 0.0
H1430 H 0.56454 0.4532 0.23112 0.0
C1431 C 0.59438 0.4782 0.34573 0.0
C1432 C 0.61757 0.52254 0.27154 0.0
C1433 C 0.58118 0.48134 0.37685 0.0
C1434 C 0.56972 0.52481 0.14099 0.0
C1435 C 0.58294 0.525 0.17226 0.0
C1436 C 0.58049 0.47227 0.24184 0.0
C1437 C 0.59371 0.50417 0.32479 0.0
C1438 C 0.59913 0.4996 0.29012 0.0
C1439 C 0.59079 0.49639 0.18815 0.0
C1440 C 0.59723 0.49602 0.2231 0.0
H1441 H 0.55868 0.5599 0.37498 0.0
H1442 H 0.58147 0.55437 0.32099 0.0
H1443 H 0.56644 0.45621 0.28835 0.0
H1444 H 0.57017 0.44503 0.12833 0.0
H1445 H 0.59471 0.4454 0.18222 0.0
C1446 C 0.72228 0.20677 0.38329 0.0
C1447 C 0.7563 0.21502 0.36829 0.0
C1448 C 0.71963 0.20634 0.41635 0.0
C1449 C 0.76947 0.19196 0.48819 0.0
H1450 H 0.70137 0.25069 0.5296 0.0
C1451 C 0.76845 0.20526 0.6242 0.0
C1452 C 0.73515 0.21431 0.63975 0.0
C1453 C 0.7704 0.20476 0.59113 0.0
C1454 C 0.71998 0.23363 0.51859 0.0
H1455 H 0.81444 0.22859 0.37613 0.0
H1456 H 0.81013 0.22649 0.43429 0.0
H1457 H 0.70621 0.25035 0.47192 0.0
H1458 H 0.67741 0.22924 0.63285 0.0
H1459 H 0.67989 0.22666 0.57504 0.0
H1460 H 0.78213 0.17392 0.53422 0.0
C1461 C 0.78546 0.22093 0.42022 0.0
C1462 C 0.72298 0.23374 0.48549 0.0
C1463 C 0.78789 0.22216 0.38706 0.0
C1464 C 0.7035 0.22229 0.62148 0.0
C1465 C 0.70514 0.22107 0.58827 0.0
C1466 C 0.76585 0.19127 0.52122 0.0
C1467 C 0.75116 0.21338 0.43508 0.0
C1468 C 0.74799 0.21312 0.47008 0.0
C1469 C 0.73879 0.21257 0.57253 0.0
C1470 C 0.74134 0.21235 0.53705 0.0
H1471 H 0.69737 0.20136 0.36947 0.0
H1472 H 0.69295 0.20036 0.42733 0.0
H1473 H 0.7886 0.17557 0.47671 0.0
H1474 H 0.79353 0.19939 0.6376 0.0
H1475 H 0.79714 0.19891 0.58029 0.0
C1476 C 0.92439 0.47902 0.63393 0.0
C1477 C 0.93791 0.50839 0.62301 0.0
C1478 C 0.91133 0.4758 0.66509 0.0
C1479 C 0.88569 0.52016 0.73854 0.0
H1480 H 0.94 0.4524 0.78036 0.0
C1481 C 0.93023 0.52446 0.86984 0.0
C1482 C 0.93724 0.49591 0.88588 0.0
C1483 C 0.9176 0.52411 0.8384 0.0
C1484 C 0.92368 0.471 0.76924 0.0
H1485 H 0.94493 0.55799 0.63533 0.0
H1486 H 0.92232 0.55233 0.68939 0.0
H1487 H 0.93936 0.45497 0.72307 0.0
H1488 H 0.93279 0.4448 0.88295 0.0
H1489 H 0.90912 0.44416 0.82878 0.0
H1490 H 0.87103 0.53673 0.78495 0.0
C1491 C 0.92179 0.53176 0.67404 0.0
C1492 C 0.92338 0.47246 0.7362 0.0
C1493 C 0.93505 0.53494 0.64303 0.0
C1494 C 0.92806 0.46717 0.87099 0.0
C1495 C 0.91481 0.46682 0.83983 0.0
C1496 C 0.88574 0.51857 0.77171 0.0
C1497 C 0.91123 0.50192 0.68583 0.0
C1498 C 0.90532 0.49754 0.72045 0.0
C1499 C 0.91122 0.4952 0.82257 0.0
C1500 C 0.90567 0.49445 0.78752 0.0
H1501 H 0.9261 0.45809 0.61914 0.0
H1502 H 0.90291 0.45257 0.6734 0.0
H1503 H 0.87119 0.5396 0.72706 0.0
H1504 H 0.93731 0.54697 0.88066 0.0
H1505 H 0.91542 0.54646 0.82593 0.0
C1506 C 0.88037 0.006 0.54157 0.0
C1507 C 0.90535 1.0031 0.51597 0.0
C1508 C 0.84168 1.00267 0.53697 0.0
C1509 C 0.76932 0.01688 0.4793 0.0
H1510 H 0.70708 0.96197 0.53127 0.0
C1511 C 0.60909 0.01066 0.46116 0.0
C1512 C 0.58626 0.00646 0.48792 0.0
C1513 C 0.64806 0.0074 0.46339 0.0
C1514 C 0.72396 0.97775 0.51684 0.0
H1515 H 0.9099 0.9966 0.46525 0.0
H1516 H 0.8416 0.9915 0.45688 0.0
H1517 H 0.77547 0.96106 0.53742 0.0
H1518 H 0.5858 0.99817 0.53848 0.0
H1519 H 0.65433 0.99355 0.54294 0.0
H1520 H 0.71825 0.03513 0.45998 0.0
C1521 C 0.85219 0.99526 0.48066 0.0
C1522 C 0.76312 0.97695 0.52017 0.0
C1523 C 0.89105 0.99814 0.4854 0.0
C1524 C 0.603 1.00058 0.51739 0.0
C1525 C 0.64216 0.99769 0.51979 0.0
C1526 C 0.73019 0.01818 0.4764 0.0
C1527 C 0.82724 0.99748 0.50646 0.0
C1528 C 0.78607 0.99657 0.50149 0.0
C1529 C 0.6652 1.00096 0.49275 0.0
C1530 C 0.70694 0.99874 0.49523 0.0
H1531 H 0.89076 0.01131 0.56512 0.0
H1532 H 0.82295 0.00515 0.55711 0.0
H1533 H 0.78645 0.03261 0.46499 0.0
H1534 H 0.59674 0.01644 0.4384 0.0
H1535 H 0.66464 0.00975 0.44197 0.0
loop_
_geom_bond_atom_site_label_1
_geom_bond_atom_site_label_2
_geom_bond_distance
_geom_bond_site_symmetry_2
_ccdc_geom_bond_type
Mn0 O5 2.095 . S
Mn0 O15 2.162 . S
Mn0 O16 2.297 . S
Mn0 O24 2.385 . S
Mn0 O25 2.209 . S
Mn0 O26 2.094 . S
Mn1 O6 2.121 . S
Mn1 N8 2.257 . S
Mn1 N17 2.282 . S
Mn1 O25 2.215 . S
Mn1 O27 2.117 . S
C2 O24 1.234 . S
C2 O25 1.283 . S
C3 O15 1.281 . S
C3 O16 1.236 . S
C4 O26 1.240 . S
C4 O27 1.264 . S
O5 Mn0 2.095 . S
O5 C14 1.250 . S
O6 Mn1 2.121 . S
O6 C14 1.258 . S
C7 N8 1.326 . S
C7 C11 1.460 . S
C7 H13 0.929 . S
N8 Mn1 2.257 . S
N8 C7 1.326 . S
N8 C12 1.362 . S
C9 C10 1.258 . S
C9 C12 1.431 . S
C9 C29 1.449 . S
C10 C9 1.258 . S
C10 C11 1.477 . S
C10 H30 0.931 . S
C11 C7 1.460 . S
C11 C10 1.477 . S
C11 H31 0.930 . S
C12 N8 1.362 . S
C12 C9 1.431 . S
C12 C22 1.476 . S
H13 C7 0.929 . S
C14 O5 1.250 . S
C14 O6 1.258 . S
O15 Mn0 2.162 . S
O15 C3 1.281 . S
O16 Mn0 2.297 . S
O16 C3 1.236 . S
N17 Mn1 2.282 . S
N17 C18 1.328 . S
N17 C22 1.318 . S
C18 N17 1.328 . S
C18 C19 1.457 . S
C18 H23 0.929 . S
C19 C18 1.457 . S
C19 C20 1.291 . S
C19 H32 0.931 . S
C20 C19 1.291 . S
C20 C21 1.373 . S
C20 H33 0.929 . S
C21 C20 1.373 . S
C21 C22 1.396 . S
C21 C28 1.403 . S
C22 C12 1.476 . S
C22 N17 1.318 . S
C22 C21 1.396 . S
H23 C18 0.929 . S
O24 Mn0 2.385 . S
O24 C2 1.234 . S
O25 Mn0 2.209 . S
O25 Mn1 2.215 . S
O25 C2 1.283 . S
O26 Mn0 2.094 . S
O26 C4 1.240 . S
O27 Mn1 2.117 . S
O27 C4 1.264 . S
C28 C21 1.403 . S
C28 C29 1.399 . S
C28 H34 0.929 . S
C29 C9 1.449 . S
C29 C28 1.399 . S
C29 H35 0.930 . S
H30 C10 0.931 . S
H31 C11 0.930 . S
H32 C19 0.931 . S
H33 C20 0.929 . S
H34 C28 0.929 . S
H35 C29 0.930 . S
Mn36 O41 2.095 . S
Mn36 O51 2.162 . S
Mn36 O52 2.297 1_455 S
Mn36 O60 2.385 1_455 S
Mn36 O61 2.209 1_455 S
Mn36 O62 2.094 . S
Mn37 O42 2.121 . S
Mn37 N44 2.257 . S
Mn37 N53 2.282 . S
Mn37 O61 2.215 1_565 S
Mn37 O63 2.117 1_655 S
C38 O60 1.234 . S
C38 O61 1.283 . S
C39 O51 1.281 . S
C39 O52 1.236 1_455 S
C40 O62 1.240 1_565 S
C40 O63 1.264 . S
O41 Mn36 2.095 . S
O41 C50 1.234 1_545 S
O42 Mn37 2.121 . S
O42 C50 1.284 1_655 S
C43 N44 1.326 . S
C43 C47 1.460 . S
C43 H49 0.929 . S
N44 Mn37 2.257 . S
N44 C43 1.326 . S
N44 C48 1.362 . S
C45 C46 1.258 . S
C45 C48 1.431 . S
C45 C65 1.449 . S
C46 C45 1.258 . S
C46 C47 1.477 . S
C46 H66 0.931 . S
C47 C43 1.460 . S
C47 C46 1.477 . S
C47 H67 0.930 . S
C48 N44 1.362 . S
C48 C45 1.431 . S
C48 C58 1.476 . S
H49 C43 0.929 . S
C50 O41 1.234 1_565 S
C50 O42 1.284 1_455 S
O51 Mn36 2.162 . S
O51 C39 1.281 . S
O52 Mn36 2.297 1_655 S
O52 C39 1.236 1_655 S
N53 Mn37 2.282 . S
N53 C54 1.328 . S
N53 C58 1.318 . S
C54 N53 1.328 . S
C54 C55 1.457 . S
C54 H59 0.929 . S
C55 C54 1.457 . S
C55 C56 1.291 . S
C55 H68 0.931 . S
C56 C55 1.291 . S
C56 C57 1.373 . S
C56 H69 0.929 . S
C57 C56 1.373 . S
C57 C58 1.396 . S
C57 C64 1.403 . S
C58 C48 1.476 . S
C58 N53 1.318 . S
C58 C57 1.396 . S
H59 C54 0.929 . S
O60 Mn36 2.385 1_655 S
O60 C38 1.234 . S
O61 Mn36 2.209 1_655 S
O61 Mn37 2.215 1_545 S
O61 C38 1.283 . S
O62 Mn36 2.094 . S
O62 C40 1.240 1_545 S
O63 Mn37 2.117 1_455 S
O63 C40 1.264 . S
C64 C57 1.403 . S
C64 C65 1.399 . S
C64 H70 0.929 . S
C65 C45 1.449 . S
C65 C64 1.399 . S
C65 H71 0.930 . S
H66 C46 0.931 . S
H67 C47 0.930 . S
H68 C55 0.931 . S
H69 C56 0.929 . S
H70 C64 0.929 . S
H71 C65 0.930 . S
Mn72 O77 2.095 . S
Mn72 O87 2.162 . S
Mn72 O88 2.297 . S
Mn72 O96 2.385 . S
Mn72 O97 2.209 . S
Mn72 O98 2.094 . S
Mn73 O78 2.121 . S
Mn73 N80 2.257 . S
Mn73 N89 2.282 . S
Mn73 O97 2.215 . S
Mn73 O99 2.117 . S
C74 O96 1.234 . S
C74 O97 1.283 . S
C75 O87 1.281 . S
C75 O88 1.236 . S
C76 O98 1.240 . S
C76 O99 1.264 . S
O77 Mn72 2.095 . S
O77 C86 1.250 . S
O78 Mn73 2.121 . S
O78 C86 1.258 . S
C79 N80 1.326 . S
C79 C83 1.460 . S
C79 H85 0.929 . S
N80 Mn73 2.257 . S
N80 C79 1.326 . S
N80 C84 1.362 . S
C81 C82 1.258 . S
C81 C84 1.431 . S
C81 C101 1.449 . S
C82 C81 1.258 . S
C82 C83 1.477 . S
C82 H102 0.931 . S
C83 C79 1.460 . S
C83 C82 1.477 . S
C83 H103 0.930 . S
C84 N80 1.362 . S
C84 C81 1.431 . S
C84 C94 1.476 . S
H85 C79 0.929 . S
C86 O77 1.250 . S
C86 O78 1.258 . S
O87 Mn72 2.162 . S
O87 C75 1.281 . S
O88 Mn72 2.297 . S
O88 C75 1.236 . S
N89 Mn73 2.282 . S
N89 C90 1.328 . S
N89 C94 1.318 . S
C90 N89 1.328 . S
C90 C91 1.457 . S
C90 H95 0.929 . S
C91 C90 1.457 . S
C91 C92 1.291 . S
C91 H104 0.931 . S
C92 C91 1.291 . S
C92 C93 1.373 . S
C92 H105 0.929 . S
C93 C92 1.373 . S
C93 C94 1.396 . S
C93 C100 1.403 . S
C94 C84 1.476 . S
C94 N89 1.318 . S
C94 C93 1.396 . S
H95 C90 0.929 . S
O96 Mn72 2.385 . S
O96 C74 1.234 . S
O97 Mn72 2.209 . S
O97 Mn73 2.215 . S
O97 C74 1.283 . S
O98 Mn72 2.094 . S
O98 C76 1.240 . S
O99 Mn73 2.117 . S
O99 C76 1.264 . S
C100 C93 1.403 . S
C100 C101 1.399 . S
C100 H106 0.929 . S
C101 C81 1.449 . S
C101 C100 1.399 . S
C101 H107 0.930 . S
H102 C82 0.931 . S
H103 C83 0.930 . S
H104 C91 0.931 . S
H105 C92 0.929 . S
H106 C100 0.929 . S
H107 C101 0.930 . S
Mn108 O113 2.095 . S
Mn108 O123 2.162 . S
Mn108 O124 2.297 . S
Mn108 O132 2.385 . S
Mn108 O133 2.209 . S
Mn108 O134 2.094 . S
Mn109 O114 2.121 . S
Mn109 N116 2.257 . S
Mn109 N125 2.282 . S
Mn109 O133 2.215 1_545 S
Mn109 O135 2.117 . S
C110 O132 1.234 . S
C110 O133 1.283 . S
C111 O123 1.281 . S
C111 O124 1.236 . S
C112 O134 1.240 1_545 S
C112 O135 1.264 . S
O113 Mn108 2.095 . S
O113 C122 1.259 . S
O114 Mn109 2.121 . S
O114 C122 1.245 1_545 S
C115 N116 1.326 . S
C115 C119 1.460 . S
C115 H121 0.929 . S
N116 Mn109 2.257 . S
N116 C115 1.326 . S
N116 C120 1.362 . S
C117 C118 1.258 . S
C117 C120 1.431 . S
C117 C137 1.449 . S
C118 C117 1.258 . S
C118 C119 1.477 . S
C118 H138 0.931 . S
C119 C115 1.460 . S
C119 C118 1.477 . S
C119 H139 0.930 . S
C120 N116 1.362 . S
C120 C117 1.431 . S
C120 C130 1.476 . S
H121 C115 0.929 . S
C122 O113 1.259 . S
C122 O114 1.245 1_565 S
O123 Mn108 2.162 . S
O123 C111 1.281 . S
O124 Mn108 2.297 . S
O124 C111 1.236 . S
N125 Mn109 2.282 . S
N125 C126 1.328 1_554 S
N125 C130 1.318 . S
C126 N125 1.328 1_556 S
C126 C127 1.457 . S
C126 H131 0.929 . S
C127 C126 1.457 . S
C127 C128 1.291 . S
C127 H140 0.931 . S
C128 C127 1.291 . S
C128 C129 1.373 1_556 S
C128 H141 0.929 . S
C129 C128 1.373 1_554 S
C129 C130 1.396 . S
C129 C136 1.403 . S
C130 C120 1.476 . S
C130 N125 1.318 . S
C130 C129 1.396 . S
H131 C126 0.929 . S
O132 Mn108 2.385 . S
O132 C110 1.234 . S
O133 Mn108 2.209 . S
O133 Mn109 2.215 1_565 S
O133 C110 1.283 . S
O134 Mn108 2.094 . S
O134 C112 1.240 1_565 S
O135 Mn109 2.117 . S
O135 C112 1.264 . S
C136 C129 1.403 . S
C136 C137 1.399 . S
C136 H142 0.929 . S
C137 C117 1.449 . S
C137 C136 1.399 . S
C137 H143 0.930 . S
H138 C118 0.931 . S
H139 C119 0.930 . S
H140 C127 0.931 . S
H141 C128 0.929 . S
H142 C136 0.929 . S
H143 C137 0.930 . S
Mn144 O149 2.095 . S
Mn144 O159 2.162 . S
Mn144 O160 2.297 . S
Mn144 O168 2.385 . S
Mn144 O169 2.209 . S
Mn144 O170 2.094 . S
Mn145 O150 2.121 . S
Mn145 N152 2.257 . S
Mn145 N161 2.282 . S
Mn145 O169 2.215 . S
Mn145 O171 2.117 . S
C146 O168 1.234 . S
C146 O169 1.283 . S
C147 O159 1.281 . S
C147 O160 1.236 . S
C148 O170 1.240 . S
C148 O171 1.264 . S
O149 Mn144 2.095 . S
O149 C158 1.250 . S
O150 Mn145 2.121 . S
O150 C158 1.258 . S
C151 N152 1.326 . S
C151 C155 1.460 . S
C151 H157 0.929 . S
N152 Mn145 2.257 . S
N152 C151 1.326 . S
N152 C156 1.362 . S
C153 C154 1.258 . S
C153 C156 1.431 . S
C153 C173 1.449 . S
C154 C153 1.258 . S
C154 C155 1.477 . S
C154 H174 0.931 . S
C155 C151 1.460 . S
C155 C154 1.477 . S
C155 H175 0.930 . S
C156 N152 1.362 . S
C156 C153 1.431 . S
C156 C166 1.476 . S
H157 C151 0.929 . S
C158 O149 1.250 . S
C158 O150 1.258 . S
O159 Mn144 2.162 . S
O159 C147 1.281 . S
O160 Mn144 2.297 . S
O160 C147 1.236 . S
N161 Mn145 2.282 . S
N161 C162 1.328 . S
N161 C166 1.318 . S
C162 N161 1.328 . S
C162 C163 1.457 . S
C162 H167 0.929 . S
C163 C162 1.457 . S
C163 C164 1.291 . S
C163 H176 0.931 . S
C164 C163 1.291 . S
C164 C165 1.373 . S
C164 H177 0.929 . S
C165 C164 1.373 . S
C165 C166 1.396 . S
C165 C172 1.403 . S
C166 C156 1.476 . S
C166 N161 1.318 . S
C166 C165 1.396 . S
H167 C162 0.929 . S
O168 Mn144 2.385 . S
O168 C146 1.234 . S
O169 Mn144 2.209 . S
O169 Mn145 2.215 . S
O169 C146 1.283 . S
O170 Mn144 2.094 . S
O170 C148 1.240 . S
O171 Mn145 2.117 . S
O171 C148 1.264 . S
C172 C165 1.403 . S
C172 C173 1.399 . S
C172 H178 0.929 . S
C173 C153 1.449 . S
C173 C172 1.399 . S
C173 H179 0.930 . S
H174 C154 0.931 . S
H175 C155 0.930 . S
H176 C163 0.931 . S
H177 C164 0.929 . S
H178 C172 0.929 . S
H179 C173 0.930 . S
Mn180 O185 2.095 . S
Mn180 O195 2.162 . S
Mn180 O196 2.297 . S
Mn180 O204 2.385 . S
Mn180 O205 2.209 . S
Mn180 O206 2.094 . S
Mn181 O186 2.121 . S
Mn181 N188 2.257 . S
Mn181 N197 2.282 . S
Mn181 O205 2.215 1_565 S
Mn181 O207 2.117 . S
C182 O204 1.234 . S
C182 O205 1.283 . S
C183 O195 1.281 . S
C183 O196 1.236 . S
C184 O206 1.240 1_565 S
C184 O207 1.264 . S
O185 Mn180 2.095 . S
O185 C194 1.259 . S
O186 Mn181 2.121 . S
O186 C194 1.245 1_565 S
C187 N188 1.326 . S
C187 C191 1.460 . S
C187 H193 0.929 . S
N188 Mn181 2.257 . S
N188 C187 1.326 . S
N188 C192 1.362 . S
C189 C190 1.258 . S
C189 C192 1.431 . S
C189 C209 1.449 . S
C190 C189 1.258 . S
C190 C191 1.477 . S
C190 H210 0.931 . S
C191 C187 1.460 . S
C191 C190 1.477 . S
C191 H211 0.930 . S
C192 N188 1.362 . S
C192 C189 1.431 . S
C192 C202 1.476 . S
H193 C187 0.929 . S
C194 O185 1.259 . S
C194 O186 1.245 1_545 S
O195 Mn180 2.162 . S
O195 C183 1.281 . S
O196 Mn180 2.297 . S
O196 C183 1.236 . S
N197 Mn181 2.282 . S
N197 C198 1.328 . S
N197 C202 1.318 . S
C198 N197 1.328 . S
C198 C199 1.457 . S
C198 H203 0.929 . S
C199 C198 1.457 . S
C199 C200 1.291 . S
C199 H212 0.931 . S
C200 C199 1.291 . S
C200 C201 1.373 . S
C200 H213 0.929 . S
C201 C200 1.373 . S
C201 C202 1.396 . S
C201 C208 1.403 . S
C202 C192 1.476 . S
C202 N197 1.318 . S
C202 C201 1.396 . S
H203 C198 0.929 . S
O204 Mn180 2.385 . S
O204 C182 1.234 . S
O205 Mn180 2.209 . S
O205 Mn181 2.215 1_545 S
O205 C182 1.283 . S
O206 Mn180 2.094 . S
O206 C184 1.240 1_545 S
O207 Mn181 2.117 . S
O207 C184 1.264 . S
C208 C201 1.403 . S
C208 C209 1.399 . S
C208 H214 0.929 . S
C209 C189 1.449 . S
C209 C208 1.399 . S
C209 H215 0.930 . S
H210 C190 0.931 . S
H211 C191 0.930 . S
H212 C199 0.931 . S
H213 C200 0.929 . S
H214 C208 0.929 . S
H215 C209 0.930 . S
Mn216 O221 2.095 . S
Mn216 O231 2.162 . S
Mn216 O232 2.297 . S
Mn216 O240 2.385 . S
Mn216 O241 2.209 . S
Mn216 O242 2.094 . S
Mn217 O222 2.121 . S
Mn217 N224 2.257 . S
Mn217 N233 2.282 . S
Mn217 O241 2.215 . S
Mn217 O243 2.117 . S
C218 O240 1.234 . S
C218 O241 1.283 . S
C219 O231 1.281 . S
C219 O232 1.236 . S
C220 O242 1.240 . S
C220 O243 1.264 . S
O221 Mn216 2.095 . S
O221 C230 1.250 . S
O222 Mn217 2.121 . S
O222 C230 1.258 . S
C223 N224 1.326 . S
C223 C227 1.460 . S
C223 H229 0.929 . S
N224 Mn217 2.257 . S
N224 C223 1.326 . S
N224 C228 1.362 . S
C225 C226 1.258 . S
C225 C228 1.431 . S
C225 C245 1.449 . S
C226 C225 1.258 . S
C226 C227 1.477 . S
C226 H246 0.931 . S
C227 C223 1.460 . S
C227 C226 1.477 . S
C227 H247 0.930 . S
C228 N224 1.362 . S
C228 C225 1.431 . S
C228 C238 1.476 . S
H229 C223 0.929 . S
C230 O221 1.250 . S
C230 O222 1.258 . S
O231 Mn216 2.162 . S
O231 C219 1.281 . S
O232 Mn216 2.297 . S
O232 C219 1.236 . S
N233 Mn217 2.282 . S
N233 C234 1.328 . S
N233 C238 1.318 . S
C234 N233 1.328 . S
C234 C235 1.457 . S
C234 H239 0.929 . S
C235 C234 1.457 . S
C235 C236 1.291 . S
C235 H248 0.931 . S
C236 C235 1.291 . S
C236 C237 1.373 . S
C236 H249 0.929 . S
C237 C236 1.373 . S
C237 C238 1.396 . S
C237 C244 1.403 . S
C238 C228 1.476 . S
C238 N233 1.318 . S
C238 C237 1.396 . S
H239 C234 0.929 . S
O240 Mn216 2.385 . S
O240 C218 1.234 . S
O241 Mn216 2.209 . S
O241 Mn217 2.215 . S
O241 C218 1.283 . S
O242 Mn216 2.094 . S
O242 C220 1.240 . S
O243 Mn217 2.117 . S
O243 C220 1.264 . S
C244 C237 1.403 . S
C244 C245 1.399 . S
C244 H250 0.929 . S
C245 C225 1.449 . S
C245 C244 1.399 . S
C245 H251 0.930 . S
H246 C226 0.931 . S
H247 C227 0.930 . S
H248 C235 0.931 . S
H249 C236 0.929 . S
H250 C244 0.929 . S
H251 C245 0.930 . S
Mn252 O257 2.095 . S
Mn252 O267 2.162 . S
Mn252 O268 2.297 1_455 S
Mn252 O276 2.386 1_455 S
Mn252 O277 2.209 1_455 S
Mn252 O278 2.094 . S
Mn253 O258 2.121 . S
Mn253 N260 2.257 . S
Mn253 N269 2.282 . S
Mn253 O277 2.215 1_545 S
Mn253 O279 2.117 1_655 S
C254 O276 1.234 . S
C254 O277 1.283 . S
C255 O267 1.281 . S
C255 O268 1.236 1_455 S
C256 O278 1.240 1_545 S
C256 O279 1.264 . S
O257 Mn252 2.095 . S
O257 C266 1.234 1_565 S
O258 Mn253 2.121 . S
O258 C266 1.284 1_655 S
C259 N260 1.326 . S
C259 C263 1.460 . S
C259 H265 0.929 . S
N260 Mn253 2.257 . S
N260 C259 1.326 . S
N260 C264 1.362 . S
C261 C262 1.258 . S
C261 C264 1.431 . S
C261 C281 1.449 . S
C262 C261 1.258 . S
C262 C263 1.477 . S
C262 H282 0.931 . S
C263 C259 1.460 . S
C263 C262 1.477 . S
C263 H283 0.930 . S
C264 N260 1.362 . S
C264 C261 1.431 . S
C264 C274 1.476 . S
H265 C259 0.929 . S
C266 O257 1.234 1_545 S
C266 O258 1.284 1_455 S
O267 Mn252 2.162 . S
O267 C255 1.281 . S
O268 Mn252 2.297 1_655 S
O268 C255 1.236 1_655 S
N269 Mn253 2.282 . S
N269 C270 1.328 1_556 S
N269 C274 1.318 . S
C270 N269 1.328 1_554 S
C270 C271 1.457 . S
C270 H275 0.929 . S
C271 C270 1.457 . S
C271 C272 1.291 . S
C271 H284 0.931 . S
C272 C271 1.291 . S
C272 C273 1.373 1_554 S
C272 H285 0.929 . S
C273 C272 1.373 1_556 S
C273 C274 1.396 . S
C273 C280 1.403 . S
C274 C264 1.476 . S
C274 N269 1.318 . S
C274 C273 1.396 . S
H275 C270 0.929 . S
O276 Mn252 2.386 1_655 S
O276 C254 1.234 . S
O277 Mn252 2.209 1_655 S
O277 Mn253 2.215 1_565 S
O277 C254 1.283 . S
O278 Mn252 2.094 . S
O278 C256 1.240 1_565 S
O279 Mn253 2.117 1_455 S
O279 C256 1.264 . S
C280 C273 1.403 . S
C280 C281 1.399 . S
C280 H286 0.929 . S
C281 C261 1.449 . S
C281 C280 1.399 . S
C281 H287 0.930 . S
H282 C262 0.931 . S
H283 C263 0.930 . S
H284 C271 0.931 . S
H285 C272 0.929 . S
H286 C280 0.929 . S
H287 C281 0.930 . S
Mn288 O293 2.095 . S
Mn288 O303 2.162 . S
Mn288 O304 2.297 . S
Mn288 O312 2.385 . S
Mn288 O313 2.209 . S
Mn288 O314 2.094 . S
Mn289 O294 2.121 . S
Mn289 N296 2.257 . S
Mn289 N305 2.282 . S
Mn289 O313 2.215 . S
Mn289 O315 2.117 . S
C290 O312 1.234 . S
C290 O313 1.283 . S
C291 O303 1.281 . S
C291 O304 1.236 . S
C292 O314 1.240 . S
C292 O315 1.264 . S
O293 Mn288 2.095 . S
O293 C302 1.250 . S
O294 Mn289 2.121 . S
O294 C302 1.258 . S
C295 N296 1.326 . S
C295 C299 1.460 . S
C295 H301 0.929 . S
N296 Mn289 2.257 . S
N296 C295 1.326 . S
N296 C300 1.362 . S
C297 C298 1.258 . S
C297 C300 1.431 . S
C297 C317 1.449 . S
C298 C297 1.258 . S
C298 C299 1.477 . S
C298 H318 0.931 . S
C299 C295 1.460 . S
C299 C298 1.477 . S
C299 H319 0.930 . S
C300 N296 1.362 . S
C300 C297 1.431 . S
C300 C310 1.476 . S
H301 C295 0.929 . S
C302 O293 1.250 . S
C302 O294 1.258 . S
O303 Mn288 2.162 . S
O303 C291 1.281 . S
O304 Mn288 2.297 . S
O304 C291 1.236 . S
N305 Mn289 2.282 . S
N305 C306 1.328 . S
N305 C310 1.318 . S
C306 N305 1.328 . S
C306 C307 1.457 . S
C306 H311 0.929 . S
C307 C306 1.457 . S
C307 C308 1.291 . S
C307 H320 0.931 . S
C308 C307 1.291 . S
C308 C309 1.373 . S
C308 H321 0.929 . S
C309 C308 1.373 . S
C309 C310 1.396 . S
C309 C316 1.403 . S
C310 C300 1.476 . S
C310 N305 1.318 . S
C310 C309 1.396 . S
H311 C306 0.929 . S
O312 Mn288 2.385 . S
O312 C290 1.234 . S
O313 Mn288 2.209 . S
O313 Mn289 2.215 . S
O313 C290 1.283 . S
O314 Mn288 2.094 . S
O314 C292 1.240 . S
O315 Mn289 2.117 . S
O315 C292 1.264 . S
C316 C309 1.403 . S
C316 C317 1.399 . S
C316 H322 0.929 . S
C317 C297 1.449 . S
C317 C316 1.399 . S
C317 H323 0.930 . S
H318 C298 0.931 . S
H319 C299 0.930 . S
H320 C307 0.931 . S
H321 C308 0.929 . S
H322 C316 0.929 . S
H323 C317 0.930 . S
Mn324 O329 2.095 . S
Mn324 O339 2.162 . S
Mn324 O340 2.297 1_655 S
Mn324 O348 2.386 1_655 S
Mn324 O349 2.209 1_655 S
Mn324 O350 2.094 . S
Mn325 O330 2.121 . S
Mn325 N332 2.257 . S
Mn325 N341 2.282 . S
Mn325 O349 2.215 . S
Mn325 O351 2.117 1_455 S
C326 O348 1.234 . S
C326 O349 1.283 . S
C327 O339 1.281 . S
C327 O340 1.236 1_655 S
C328 O350 1.240 . S
C328 O351 1.264 . S
O329 Mn324 2.095 . S
O329 C338 1.250 . S
O330 Mn325 2.121 . S
O330 C338 1.258 1_455 S
C331 N332 1.326 . S
C331 C335 1.460 . S
C331 H337 0.929 . S
N332 Mn325 2.257 . S
N332 C331 1.326 . S
N332 C336 1.362 . S
C333 C334 1.258 . S
C333 C336 1.431 . S
C333 C353 1.449 . S
C334 C333 1.258 . S
C334 C335 1.477 . S
C334 H354 0.931 . S
C335 C331 1.460 . S
C335 C334 1.477 . S
C335 H355 0.930 . S
C336 N332 1.362 . S
C336 C333 1.431 . S
C336 C346 1.476 . S
H337 C331 0.929 . S
C338 O329 1.250 . S
C338 O330 1.258 1_655 S
O339 Mn324 2.162 . S
O339 C327 1.281 . S
O340 Mn324 2.297 1_455 S
O340 C327 1.236 1_455 S
N341 Mn325 2.282 . S
N341 C342 1.328 1_556 S
N341 C346 1.318 . S
C342 N341 1.328 1_554 S
C342 C343 1.457 . S
C342 H347 0.929 . S
C343 C342 1.457 . S
C343 C344 1.291 . S
C343 H356 0.931 . S
C344 C343 1.291 . S
C344 C345 1.373 1_554 S
C344 H357 0.929 . S
C345 C344 1.373 1_556 S
C345 C346 1.396 . S
C345 C352 1.403 . S
C346 C336 1.476 . S
C346 N341 1.318 . S
C346 C345 1.396 . S
H347 C342 0.929 . S
O348 Mn324 2.386 1_455 S
O348 C326 1.234 . S
O349 Mn324 2.209 1_455 S
O349 Mn325 2.215 . S
O349 C326 1.283 . S
O350 Mn324 2.094 . S
O350 C328 1.240 . S
O351 Mn325 2.117 1_655 S
O351 C328 1.264 . S
C352 C345 1.403 . S
C352 C353 1.399 . S
C352 H358 0.929 . S
C353 C333 1.449 . S
C353 C352 1.399 . S
C353 H359 0.930 . S
H354 C334 0.931 . S
H355 C335 0.930 . S
H356 C343 0.931 . S
H357 C344 0.929 . S
H358 C352 0.929 . S
H359 C353 0.930 . S
Mn360 O365 2.095 . S
Mn360 O375 2.162 . S
Mn360 O376 2.297 . S
Mn360 O384 2.385 . S
Mn360 O385 2.209 . S
Mn360 O386 2.094 . S
Mn361 O366 2.121 . S
Mn361 N368 2.257 . S
Mn361 N377 2.282 . S
Mn361 O385 2.215 . S
Mn361 O387 2.117 . S
C362 O384 1.234 . S
C362 O385 1.283 . S
C363 O375 1.281 . S
C363 O376 1.236 . S
C364 O386 1.240 . S
C364 O387 1.264 . S
O365 Mn360 2.095 . S
O365 C374 1.250 . S
O366 Mn361 2.121 . S
O366 C374 1.258 . S
C367 N368 1.326 . S
C367 C371 1.460 . S
C367 H373 0.929 . S
N368 Mn361 2.257 . S
N368 C367 1.326 . S
N368 C372 1.362 . S
C369 C370 1.258 . S
C369 C372 1.431 . S
C369 C389 1.449 . S
C370 C369 1.258 . S
C370 C371 1.477 . S
C370 H390 0.931 . S
C371 C367 1.460 . S
C371 C370 1.477 . S
C371 H391 0.930 . S
C372 N368 1.362 . S
C372 C369 1.431 . S
C372 C382 1.476 . S
H373 C367 0.929 . S
C374 O365 1.250 . S
C374 O366 1.258 . S
O375 Mn360 2.162 . S
O375 C363 1.281 . S
O376 Mn360 2.297 . S
O376 C363 1.236 . S
N377 Mn361 2.282 . S
N377 C378 1.328 . S
N377 C382 1.318 . S
C378 N377 1.328 . S
C378 C379 1.457 . S
C378 H383 0.929 . S
C379 C378 1.457 . S
C379 C380 1.291 . S
C379 H392 0.931 . S
C380 C379 1.291 . S
C380 C381 1.373 . S
C380 H393 0.929 . S
C381 C380 1.373 . S
C381 C382 1.396 . S
C381 C388 1.403 . S
C382 C372 1.476 . S
C382 N377 1.318 . S
C382 C381 1.396 . S
H383 C378 0.929 . S
O384 Mn360 2.385 . S
O384 C362 1.234 . S
O385 Mn360 2.209 . S
O385 Mn361 2.215 . S
O385 C362 1.283 . S
O386 Mn360 2.094 . S
O386 C364 1.240 . S
O387 Mn361 2.117 . S
O387 C364 1.264 . S
C388 C381 1.403 . S
C388 C389 1.399 . S
C388 H394 0.929 . S
C389 C369 1.449 . S
C389 C388 1.399 . S
C389 H395 0.930 . S
H390 C370 0.931 . S
H391 C371 0.930 . S
H392 C379 0.931 . S
H393 C380 0.929 . S
H394 C388 0.929 . S
H395 C389 0.930 . S
Mn396 O401 2.095 . S
Mn396 O411 2.162 . S
Mn396 O412 2.297 1_655 S
Mn396 O420 2.385 1_655 S
Mn396 O421 2.209 1_655 S
Mn396 O422 2.094 . S
Mn397 O402 2.121 . S
Mn397 N404 2.257 . S
Mn397 N413 2.282 . S
Mn397 O421 2.215 . S
Mn397 O423 2.117 1_455 S
C398 O420 1.234 . S
C398 O421 1.283 . S
C399 O411 1.281 . S
C399 O412 1.236 1_655 S
C400 O422 1.240 . S
C400 O423 1.264 . S
O401 Mn396 2.095 . S
O401 C410 1.250 . S
O402 Mn397 2.121 . S
O402 C410 1.258 1_455 S
C403 N404 1.326 . S
C403 C407 1.460 . S
C403 H409 0.929 . S
N404 Mn397 2.257 . S
N404 C403 1.326 . S
N404 C408 1.362 . S
C405 C406 1.258 . S
C405 C408 1.431 . S
C405 C425 1.449 . S
C406 C405 1.258 . S
C406 C407 1.477 . S
C406 H426 0.931 . S
C407 C403 1.460 . S
C407 C406 1.477 . S
C407 H427 0.930 . S
C408 N404 1.362 . S
C408 C405 1.431 . S
C408 C418 1.476 . S
H409 C403 0.929 . S
C410 O401 1.250 . S
C410 O402 1.258 1_655 S
O411 Mn396 2.162 . S
O411 C399 1.281 . S
O412 Mn396 2.297 1_455 S
O412 C399 1.236 1_455 S
N413 Mn397 2.282 . S
N413 C414 1.328 . S
N413 C418 1.318 . S
C414 N413 1.328 . S
C414 C415 1.457 . S
C414 H419 0.929 . S
C415 C414 1.457 . S
C415 C416 1.291 . S
C415 H428 0.931 . S
C416 C415 1.291 . S
C416 C417 1.373 . S
C416 H429 0.929 . S
C417 C416 1.373 . S
C417 C418 1.396 . S
C417 C424 1.403 . S
C418 C408 1.476 . S
C418 N413 1.318 . S
C418 C417 1.396 . S
H419 C414 0.929 . S
O420 Mn396 2.385 1_455 S
O420 C398 1.234 . S
O421 Mn396 2.209 1_455 S
O421 Mn397 2.215 . S
O421 C398 1.283 . S
O422 Mn396 2.094 . S
O422 C400 1.240 . S
O423 Mn397 2.117 1_655 S
O423 C400 1.264 . S
C424 C417 1.403 . S
C424 C425 1.399 . S
C424 H430 0.929 . S
C425 C405 1.449 . S
C425 C424 1.399 . S
C425 H431 0.930 . S
H426 C406 0.931 . S
H427 C407 0.930 . S
H428 C415 0.931 . S
H429 C416 0.929 . S
H430 C424 0.929 . S
H431 C425 0.930 . S
Mn432 O437 2.095 . S
Mn432 O447 2.162 . S
Mn432 O448 2.297 . S
Mn432 O456 2.385 . S
Mn432 O457 2.209 . S
Mn432 O458 2.094 . S
Mn433 O438 2.121 . S
Mn433 N440 2.257 . S
Mn433 N449 2.282 . S
Mn433 O457 2.215 . S
Mn433 O459 2.117 . S
C434 O456 1.234 . S
C434 O457 1.283 . S
C435 O447 1.281 . S
C435 O448 1.236 . S
C436 O458 1.240 . S
C436 O459 1.264 . S
O437 Mn432 2.095 . S
O437 C446 1.250 . S
O438 Mn433 2.121 . S
O438 C446 1.258 . S
C439 N440 1.326 . S
C439 C443 1.460 . S
C439 H445 0.929 . S
N440 Mn433 2.257 . S
N440 C439 1.326 . S
N440 C444 1.362 . S
C441 C442 1.258 . S
C441 C444 1.431 . S
C441 C461 1.449 . S
C442 C441 1.258 . S
C442 C443 1.477 . S
C442 H462 0.931 . S
C443 C439 1.460 . S
C443 C442 1.477 . S
C443 H463 0.930 . S
C444 N440 1.362 . S
C444 C441 1.431 . S
C444 C454 1.476 . S
H445 C439 0.929 . S
C446 O437 1.250 . S
C446 O438 1.258 . S
O447 Mn432 2.162 . S
O447 C435 1.281 . S
O448 Mn432 2.297 . S
O448 C435 1.236 . S
N449 Mn433 2.282 . S
N449 C450 1.328 1_554 S
N449 C454 1.318 . S
C450 N449 1.328 1_556 S
C450 C451 1.457 . S
C450 H455 0.929 . S
C451 C450 1.457 . S
C451 C452 1.291 . S
C451 H464 0.931 . S
C452 C451 1.291 . S
C452 C453 1.373 1_556 S
C452 H465 0.929 . S
C453 C452 1.373 1_554 S
C453 C454 1.396 . S
C453 C460 1.403 . S
C454 C444 1.476 . S
C454 N449 1.318 . S
C454 C453 1.396 . S
H455 C450 0.929 . S
O456 Mn432 2.385 . S
O456 C434 1.234 . S
O457 Mn432 2.209 . S
O457 Mn433 2.215 . S
O457 C434 1.283 . S
O458 Mn432 2.094 . S
O458 C436 1.240 . S
O459 Mn433 2.117 . S
O459 C436 1.264 . S
C460 C453 1.403 . S
C460 C461 1.399 . S
C460 H466 0.929 . S
C461 C441 1.449 . S
C461 C460 1.399 . S
C461 H467 0.930 . S
H462 C442 0.931 . S
H463 C443 0.930 . S
H464 C451 0.931 . S
H465 C452 0.929 . S
H466 C460 0.929 . S
H467 C461 0.930 . S
Mn468 O473 2.095 . S
Mn468 O483 2.162 . S
Mn468 O484 2.297 . S
Mn468 O492 2.385 . S
Mn468 O493 2.209 . S
Mn468 O494 2.094 . S
Mn469 O474 2.121 . S
Mn469 N476 2.257 . S
Mn469 N485 2.282 . S
Mn469 O493 2.215 . S
Mn469 O495 2.117 . S
C470 O492 1.234 . S
C470 O493 1.283 . S
C471 O483 1.281 . S
C471 O484 1.236 . S
C472 O494 1.240 . S
C472 O495 1.264 . S
O473 Mn468 2.095 . S
O473 C482 1.250 . S
O474 Mn469 2.121 . S
O474 C482 1.258 . S
C475 N476 1.326 . S
C475 C479 1.460 . S
C475 H481 0.929 . S
N476 Mn469 2.257 . S
N476 C475 1.326 . S
N476 C480 1.362 . S
C477 C478 1.258 . S
C477 C480 1.431 . S
C477 C497 1.449 . S
C478 C477 1.258 . S
C478 C479 1.477 . S
C478 H498 0.931 . S
C479 C475 1.460 . S
C479 C478 1.477 . S
C479 H499 0.930 . S
C480 N476 1.362 . S
C480 C477 1.431 . S
C480 C490 1.476 . S
H481 C475 0.929 . S
C482 O473 1.250 . S
C482 O474 1.258 . S
O483 Mn468 2.162 . S
O483 C471 1.281 . S
O484 Mn468 2.297 . S
O484 C471 1.236 . S
N485 Mn469 2.282 . S
N485 C486 1.328 . S
N485 C490 1.318 . S
C486 N485 1.328 . S
C486 C487 1.457 . S
C486 H491 0.929 . S
C487 C486 1.457 . S
C487 C488 1.291 . S
C487 H500 0.931 . S
C488 C487 1.291 . S
C488 C489 1.373 . S
C488 H501 0.929 . S
C489 C488 1.373 . S
C489 C490 1.396 . S
C489 C496 1.403 . S
C490 C480 1.476 . S
C490 N485 1.318 . S
C490 C489 1.396 . S
H491 C486 0.929 . S
O492 Mn468 2.385 . S
O492 C470 1.234 . S
O493 Mn468 2.209 . S
O493 Mn469 2.215 . S
O493 C470 1.283 . S
O494 Mn468 2.094 . S
O494 C472 1.240 . S
O495 Mn469 2.117 . S
O495 C472 1.264 . S
C496 C489 1.403 . S
C496 C497 1.399 . S
C496 H502 0.929 . S
C497 C477 1.449 . S
C497 C496 1.399 . S
C497 H503 0.930 . S
H498 C478 0.931 . S
H499 C479 0.930 . S
H500 C487 0.931 . S
H501 C488 0.929 . S
H502 C496 0.929 . S
H503 C497 0.930 . S
Mn504 O509 2.095 . S
Mn504 O519 2.162 . S
Mn504 O520 2.297 . S
Mn504 O528 2.385 . S
Mn504 O529 2.209 . S
Mn504 O530 2.094 . S
Mn505 O510 2.121 . S
Mn505 N512 2.257 . S
Mn505 N521 2.282 . S
Mn505 O529 2.215 . S
Mn505 O531 2.117 . S
C506 O528 1.234 . S
C506 O529 1.283 . S
C507 O519 1.281 . S
C507 O520 1.236 . S
C508 O530 1.240 . S
C508 O531 1.264 . S
O509 Mn504 2.095 . S
O509 C518 1.250 . S
O510 Mn505 2.121 . S
O510 C518 1.258 . S
C511 N512 1.326 . S
C511 C515 1.460 . S
C511 H517 0.929 . S
N512 Mn505 2.257 . S
N512 C511 1.326 . S
N512 C516 1.362 . S
C513 C514 1.258 . S
C513 C516 1.431 . S
C513 C533 1.449 . S
C514 C513 1.258 . S
C514 C515 1.477 . S
C514 H534 0.931 . S
C515 C511 1.460 . S
C515 C514 1.477 . S
C515 H535 0.930 . S
C516 N512 1.362 . S
C516 C513 1.431 . S
C516 C526 1.476 . S
H517 C511 0.929 . S
C518 O509 1.250 . S
C518 O510 1.258 . S
O519 Mn504 2.162 . S
O519 C507 1.281 . S
O520 Mn504 2.297 . S
O520 C507 1.236 . S
N521 Mn505 2.282 . S
N521 C522 1.328 . S
N521 C526 1.318 . S
C522 N521 1.328 . S
C522 C523 1.457 . S
C522 H527 0.929 . S
C523 C522 1.457 . S
C523 C524 1.291 . S
C523 H536 0.931 . S
C524 C523 1.291 . S
C524 C525 1.373 . S
C524 H537 0.929 . S
C525 C524 1.373 . S
C525 C526 1.396 . S
C525 C532 1.403 . S
C526 C516 1.476 . S
C526 N521 1.318 . S
C526 C525 1.396 . S
H527 C522 0.929 . S
O528 Mn504 2.385 . S
O528 C506 1.234 . S
O529 Mn504 2.209 . S
O529 Mn505 2.215 . S
O529 C506 1.283 . S
O530 Mn504 2.094 . S
O530 C508 1.240 . S
O531 Mn505 2.117 . S
O531 C508 1.264 . S
C532 C525 1.403 . S
C532 C533 1.399 . S
C532 H538 0.929 . S
C533 C513 1.449 . S
C533 C532 1.399 . S
C533 H539 0.930 . S
H534 C514 0.931 . S
H535 C515 0.930 . S
H536 C523 0.931 . S
H537 C524 0.929 . S
H538 C532 0.929 . S
H539 C533 0.930 . S
Mn540 O545 2.095 . S
Mn540 O555 2.162 . S
Mn540 O556 2.297 . S
Mn540 O564 2.385 . S
Mn540 O565 2.209 . S
Mn540 O566 2.094 . S
Mn541 O546 2.121 . S
Mn541 N548 2.257 . S
Mn541 N557 2.282 . S
Mn541 O565 2.215 . S
Mn541 O567 2.117 . S
C542 O564 1.234 . S
C542 O565 1.283 . S
C543 O555 1.281 . S
C543 O556 1.236 . S
C544 O566 1.240 . S
C544 O567 1.264 . S
O545 Mn540 2.095 . S
O545 C554 1.250 . S
O546 Mn541 2.121 . S
O546 C554 1.258 . S
C547 N548 1.326 . S
C547 C551 1.460 . S
C547 H553 0.929 . S
N548 Mn541 2.257 . S
N548 C547 1.326 . S
N548 C552 1.362 . S
C549 C550 1.258 . S
C549 C552 1.431 . S
C549 C569 1.449 . S
C550 C549 1.258 . S
C550 C551 1.477 . S
C550 H570 0.931 . S
C551 C547 1.460 . S
C551 C550 1.477 . S
C551 H571 0.930 . S
C552 N548 1.362 . S
C552 C549 1.431 . S
C552 C562 1.476 . S
H553 C547 0.929 . S
C554 O545 1.250 . S
C554 O546 1.258 . S
O555 Mn540 2.162 . S
O555 C543 1.281 . S
O556 Mn540 2.297 . S
O556 C543 1.236 . S
N557 Mn541 2.282 . S
N557 C558 1.328 . S
N557 C562 1.318 . S
C558 N557 1.328 . S
C558 C559 1.457 . S
C558 H563 0.929 . S
C559 C558 1.457 . S
C559 C560 1.291 . S
C559 H572 0.931 . S
C560 C559 1.291 . S
C560 C561 1.373 . S
C560 H573 0.929 . S
C561 C560 1.373 . S
C561 C562 1.396 . S
C561 C568 1.403 . S
C562 C552 1.476 . S
C562 N557 1.318 . S
C562 C561 1.396 . S
H563 C558 0.929 . S
O564 Mn540 2.385 . S
O564 C542 1.234 . S
O565 Mn540 2.209 . S
O565 Mn541 2.215 . S
O565 C542 1.283 . S
O566 Mn540 2.094 . S
O566 C544 1.240 . S
O567 Mn541 2.117 . S
O567 C544 1.264 . S
C568 C561 1.403 . S
C568 C569 1.399 . S
C568 H574 0.929 . S
C569 C549 1.449 . S
C569 C568 1.399 . S
C569 H575 0.930 . S
H570 C550 0.931 . S
H571 C551 0.930 . S
H572 C559 0.931 . S
H573 C560 0.929 . S
H574 C568 0.929 . S
H575 C569 0.930 . S
C576 C577 1.349 . S
C576 C578 1.327 . S
C576 H601 0.950 . S
C577 C576 1.349 . S
C577 C593 1.349 . S
C578 C576 1.327 . S
C578 C597 1.429 . S
C578 H602 0.950 . S
C579 C596 1.574 . S
C579 C598 1.368 . S
C579 H603 0.949 . S
H580 C584 0.949 . S
C581 C582 1.349 . S
C581 C583 1.327 . S
C581 H604 0.950 1_554 S
C582 C581 1.349 . S
C582 C594 1.349 . S
C583 C581 1.327 . S
C583 C599 1.429 . S
C583 H605 0.950 . S
C584 H580 0.949 . S
C584 C592 1.574 . S
C584 C600 1.368 . S
H585 C593 0.950 . S
H586 C591 0.950 . S
H587 C592 0.949 . S
H588 C594 0.950 . S
H589 C595 0.950 . S
H590 C596 0.949 . S
C591 H586 0.950 . S
C591 C593 1.327 . S
C591 C597 1.429 . S
C592 C584 1.574 . S
C592 H587 0.949 . S
C592 C598 1.368 . S
C593 C577 1.349 . S
C593 H585 0.950 . S
C593 C591 1.327 . S
C594 C582 1.349 . S
C594 H588 0.950 . S
C594 C595 1.327 . S
C595 H589 0.950 . S
C595 C594 1.327 . S
C595 C599 1.429 . S
C596 C579 1.574 . S
C596 H590 0.949 . S
C596 C600 1.368 . S
C597 C578 1.429 . S
C597 C591 1.429 . S
C597 C598 1.523 . S
C598 C579 1.368 . S
C598 C592 1.368 . S
C598 C597 1.523 . S
C599 C583 1.429 . S
C599 C595 1.429 . S
C599 C600 1.523 . S
C600 C584 1.368 . S
C600 C596 1.368 . S
C600 C599 1.523 . S
H601 C576 0.950 . S
H602 C578 0.950 . S
H603 C579 0.949 . S
H604 C581 0.950 1_556 S
H605 C583 0.950 . S
C606 C607 1.349 . S
C606 C608 1.327 . S
C606 H631 0.950 . S
C607 C606 1.349 . S
C607 C623 1.349 . S
C608 C606 1.327 . S
C608 C627 1.429 . S
C608 H632 0.950 . S
C609 C626 1.574 . S
C609 C628 1.368 . S
C609 H633 0.949 . S
H610 C614 0.949 . S
C611 C612 1.349 . S
C611 C613 1.327 . S
C611 H634 0.950 . S
C612 C611 1.349 . S
C612 C624 1.349 . S
C613 C611 1.327 . S
C613 C629 1.429 . S
C613 H635 0.950 . S
C614 H610 0.949 . S
C614 C622 1.574 . S
C614 C630 1.368 . S
H615 C623 0.950 . S
H616 C621 0.950 . S
H617 C622 0.949 . S
H618 C624 0.950 . S
H619 C625 0.950 . S
H620 C626 0.949 . S
C621 H616 0.950 . S
C621 C623 1.327 . S
C621 C627 1.429 . S
C622 C614 1.574 . S
C622 H617 0.949 . S
C622 C628 1.368 . S
C623 C607 1.349 . S
C623 H615 0.950 . S
C623 C621 1.327 . S
C624 C612 1.349 . S
C624 H618 0.950 . S
C624 C625 1.327 . S
C625 H619 0.950 . S
C625 C624 1.327 . S
C625 C629 1.429 . S
C626 C609 1.574 . S
C626 H620 0.949 . S
C626 C630 1.368 . S
C627 C608 1.429 . S
C627 C621 1.429 . S
C627 C628 1.523 . S
C628 C609 1.368 . S
C628 C622 1.368 . S
C628 C627 1.523 . S
C629 C613 1.429 . S
C629 C625 1.429 . S
C629 C630 1.523 . S
C630 C614 1.368 . S
C630 C626 1.368 . S
C630 C629 1.523 . S
H631 C606 0.950 . S
H632 C608 0.950 . S
H633 C609 0.949 . S
H634 C611 0.950 . S
H635 C613 0.950 . S
C636 C637 1.349 . S
C636 C638 1.327 . S
C636 H661 0.950 . S
C637 C636 1.349 . S
C637 C653 1.349 . S
C638 C636 1.327 . S
C638 C657 1.429 . S
C638 H662 0.950 . S
C639 C656 1.574 . S
C639 C658 1.368 . S
C639 H663 0.949 . S
H640 C644 0.949 . S
C641 C642 1.349 . S
C641 C643 1.327 . S
C641 H664 0.950 . S
C642 C641 1.349 . S
C642 C654 1.349 . S
C643 C641 1.327 . S
C643 C659 1.429 . S
C643 H665 0.950 . S
C644 H640 0.949 . S
C644 C652 1.574 . S
C644 C660 1.368 . S
H645 C653 0.950 . S
H646 C651 0.950 . S
H647 C652 0.949 . S
H648 C654 0.950 . S
H649 C655 0.950 . S
H650 C656 0.949 . S
C651 H646 0.950 . S
C651 C653 1.327 . S
C651 C657 1.429 . S
C652 C644 1.574 . S
C652 H647 0.949 . S
C652 C658 1.368 . S
C653 C637 1.349 . S
C653 H645 0.950 . S
C653 C651 1.327 . S
C654 C642 1.349 . S
C654 H648 0.950 . S
C654 C655 1.327 . S
C655 H649 0.950 . S
C655 C654 1.327 . S
C655 C659 1.429 . S
C656 C639 1.574 . S
C656 H650 0.949 . S
C656 C660 1.368 . S
C657 C638 1.429 . S
C657 C651 1.429 . S
C657 C658 1.523 . S
C658 C639 1.368 . S
C658 C652 1.368 . S
C658 C657 1.523 . S
C659 C643 1.429 . S
C659 C655 1.429 . S
C659 C660 1.523 . S
C660 C644 1.368 . S
C660 C656 1.368 . S
C660 C659 1.523 . S
H661 C636 0.950 . S
H662 C638 0.950 . S
H663 C639 0.949 . S
H664 C641 0.950 . S
H665 C643 0.950 . S
C666 C667 1.349 . S
C666 C668 1.327 . S
C666 H691 0.950 . S
C667 C666 1.349 . S
C667 C683 1.349 . S
C668 C666 1.327 . S
C668 C687 1.429 . S
C668 H692 0.950 . S
C669 C686 1.574 . S
C669 C688 1.368 . S
C669 H693 0.949 . S
H670 C674 0.949 . S
C671 C672 1.349 . S
C671 C673 1.327 . S
C671 H694 0.950 . S
C672 C671 1.349 . S
C672 C684 1.349 . S
C673 C671 1.327 . S
C673 C689 1.429 . S
C673 H695 0.950 . S
C674 H670 0.949 . S
C674 C682 1.574 . S
C674 C690 1.368 . S
H675 C683 0.950 . S
H676 C681 0.950 . S
H677 C682 0.949 . S
H678 C684 0.950 . S
H679 C685 0.950 . S
H680 C686 0.949 . S
C681 H676 0.950 . S
C681 C683 1.327 . S
C681 C687 1.429 . S
C682 C674 1.574 . S
C682 H677 0.949 . S
C682 C688 1.368 . S
C683 C667 1.349 . S
C683 H675 0.950 . S
C683 C681 1.327 . S
C684 C672 1.349 . S
C684 H678 0.950 . S
C684 C685 1.327 . S
C685 H679 0.950 . S
C685 C684 1.327 . S
C685 C689 1.429 . S
C686 C669 1.574 . S
C686 H680 0.949 . S
C686 C690 1.368 . S
C687 C668 1.429 . S
C687 C681 1.429 . S
C687 C688 1.523 . S
C688 C669 1.368 . S
C688 C682 1.368 . S
C688 C687 1.523 . S
C689 C673 1.429 . S
C689 C685 1.429 . S
C689 C690 1.523 . S
C690 C674 1.368 . S
C690 C686 1.368 . S
C690 C689 1.523 . S
H691 C666 0.950 . S
H692 C668 0.950 . S
H693 C669 0.949 . S
H694 C671 0.950 . S
H695 C673 0.950 . S
C696 C697 1.349 . S
C696 C698 1.327 . S
C696 H721 0.950 . S
C697 C696 1.349 . S
C697 C713 1.349 . S
C698 C696 1.327 . S
C698 C717 1.429 . S
C698 H722 0.950 . S
C699 C716 1.574 . S
C699 C718 1.368 . S
C699 H723 0.949 . S
H700 C704 0.949 . S
C701 C702 1.349 . S
C701 C703 1.327 . S
C701 H724 0.950 1_556 S
C702 C701 1.349 . S
C702 C714 1.349 . S
C703 C701 1.327 . S
C703 C719 1.429 . S
C703 H725 0.950 . S
C704 H700 0.949 . S
C704 C712 1.574 . S
C704 C720 1.368 . S
H705 C713 0.950 . S
H706 C711 0.950 . S
H707 C712 0.949 . S
H708 C714 0.950 . S
H709 C715 0.950 . S
H710 C716 0.949 . S
C711 H706 0.950 . S
C711 C713 1.327 . S
C711 C717 1.429 . S
C712 C704 1.574 . S
C712 H707 0.949 . S
C712 C718 1.368 . S
C713 C697 1.349 . S
C713 H705 0.950 . S
C713 C711 1.327 . S
C714 C702 1.349 . S
C714 H708 0.950 . S
C714 C715 1.327 . S
C715 H709 0.950 . S
C715 C714 1.327 . S
C715 C719 1.429 . S
C716 C699 1.574 . S
C716 H710 0.949 . S
C716 C720 1.368 . S
C717 C698 1.429 . S
C717 C711 1.429 . S
C717 C718 1.523 . S
C718 C699 1.368 . S
C718 C712 1.368 . S
C718 C717 1.523 . S
C719 C703 1.429 . S
C719 C715 1.429 . S
C719 C720 1.523 . S
C720 C704 1.368 . S
C720 C716 1.368 . S
C720 C719 1.523 . S
H721 C696 0.950 . S
H722 C698 0.950 . S
H723 C699 0.949 . S
H724 C701 0.950 1_554 S
H725 C703 0.950 . S
C726 C727 1.349 . S
C726 C728 1.327 . S
C726 H751 0.950 . S
C727 C726 1.349 . S
C727 C743 1.349 . S
C728 C726 1.327 . S
C728 C747 1.429 . S
C728 H752 0.950 . S
C729 C746 1.574 . S
C729 C748 1.368 . S
C729 H753 0.949 . S
H730 C734 0.949 . S
C731 C732 1.349 . S
C731 C733 1.327 . S
C731 H754 0.950 . S
C732 C731 1.349 . S
C732 C744 1.349 . S
C733 C731 1.327 . S
C733 C749 1.429 . S
C733 H755 0.950 . S
C734 H730 0.949 . S
C734 C742 1.574 . S
C734 C750 1.368 . S
H735 C743 0.950 . S
H736 C741 0.950 . S
H737 C742 0.949 . S
H738 C744 0.950 . S
H739 C745 0.950 . S
H740 C746 0.949 . S
C741 H736 0.950 . S
C741 C743 1.327 . S
C741 C747 1.429 . S
C742 C734 1.574 . S
C742 H737 0.949 . S
C742 C748 1.368 . S
C743 C727 1.349 . S
C743 H735 0.950 . S
C743 C741 1.327 . S
C744 C732 1.349 . S
C744 H738 0.950 . S
C744 C745 1.327 . S
C745 H739 0.950 . S
C745 C744 1.327 . S
C745 C749 1.429 . S
C746 C729 1.574 . S
C746 H740 0.949 . S
C746 C750 1.368 . S
C747 C728 1.429 . S
C747 C741 1.429 . S
C747 C748 1.523 . S
C748 C729 1.368 . S
C748 C742 1.368 . S
C748 C747 1.523 . S
C749 C733 1.429 . S
C749 C745 1.429 . S
C749 C750 1.523 . S
C750 C734 1.368 . S
C750 C746 1.368 . S
C750 C749 1.523 . S
H751 C726 0.950 . S
H752 C728 0.950 . S
H753 C729 0.949 . S
H754 C731 0.950 . S
H755 C733 0.950 . S
C756 C757 1.349 . S
C756 C758 1.327 . S
C756 H781 0.950 . S
C757 C756 1.349 . S
C757 C773 1.349 . S
C758 C756 1.327 . S
C758 C777 1.429 . S
C758 H782 0.950 . S
C759 C776 1.574 . S
C759 C778 1.368 . S
C759 H783 0.949 . S
H760 C764 0.949 . S
C761 C762 1.349 . S
C761 C763 1.327 . S
C761 H784 0.950 . S
C762 C761 1.349 . S
C762 C774 1.349 . S
C763 C761 1.327 . S
C763 C779 1.429 . S
C763 H785 0.950 . S
C764 H760 0.949 . S
C764 C772 1.574 . S
C764 C780 1.368 . S
H765 C773 0.950 . S
H766 C771 0.950 . S
H767 C772 0.949 . S
H768 C774 0.950 . S
H769 C775 0.950 . S
H770 C776 0.949 . S
C771 H766 0.950 . S
C771 C773 1.327 . S
C771 C777 1.429 . S
C772 C764 1.574 . S
C772 H767 0.949 . S
C772 C778 1.368 . S
C773 C757 1.349 . S
C773 H765 0.950 . S
C773 C771 1.327 . S
C774 C762 1.349 . S
C774 H768 0.950 . S
C774 C775 1.327 . S
C775 H769 0.950 . S
C775 C774 1.327 . S
C775 C779 1.429 . S
C776 C759 1.574 . S
C776 H770 0.949 . S
C776 C780 1.368 . S
C777 C758 1.429 . S
C777 C771 1.429 . S
C777 C778 1.523 . S
C778 C759 1.368 . S
C778 C772 1.368 . S
C778 C777 1.523 . S
C779 C763 1.429 . S
C779 C775 1.429 . S
C779 C780 1.523 . S
C780 C764 1.368 . S
C780 C776 1.368 . S
C780 C779 1.523 . S
H781 C756 0.950 . S
H782 C758 0.950 . S
H783 C759 0.949 . S
H784 C761 0.950 . S
H785 C763 0.950 . S
C786 C787 1.349 . S
C786 C788 1.327 . S
C786 H811 0.950 . S
C787 C786 1.349 . S
C787 C803 1.349 . S
C788 C786 1.327 . S
C788 C807 1.429 . S
C788 H812 0.950 . S
C789 C806 1.574 . S
C789 C808 1.368 . S
C789 H813 0.949 . S
H790 C794 0.949 . S
C791 C792 1.349 . S
C791 C793 1.327 . S
C791 H814 0.950 . S
C792 C791 1.349 . S
C792 C804 1.349 . S
C793 C791 1.327 . S
C793 C809 1.429 . S
C793 H815 0.950 . S
C794 H790 0.949 . S
C794 C802 1.574 . S
C794 C810 1.368 . S
H795 C803 0.950 . S
H796 C801 0.950 . S
H797 C802 0.949 . S
H798 C804 0.950 . S
H799 C805 0.950 . S
H800 C806 0.949 . S
C801 H796 0.950 . S
C801 C803 1.327 . S
C801 C807 1.429 . S
C802 C794 1.574 . S
C802 H797 0.949 . S
C802 C808 1.368 . S
C803 C787 1.349 . S
C803 H795 0.950 . S
C803 C801 1.327 . S
C804 C792 1.349 . S
C804 H798 0.950 . S
C804 C805 1.327 . S
C805 H799 0.950 . S
C805 C804 1.327 . S
C805 C809 1.429 . S
C806 C789 1.574 . S
C806 H800 0.949 . S
C806 C810 1.368 . S
C807 C788 1.429 . S
C807 C801 1.429 . S
C807 C808 1.523 . S
C808 C789 1.368 . S
C808 C802 1.368 . S
C808 C807 1.523 . S
C809 C793 1.429 . S
C809 C805 1.429 . S
C809 C810 1.523 . S
C810 C794 1.368 . S
C810 C806 1.368 . S
C810 C809 1.523 . S
H811 C786 0.950 . S
H812 C788 0.950 . S
H813 C789 0.949 . S
H814 C791 0.950 . S
H815 C793 0.950 . S
C816 C817 1.349 . S
C816 C818 1.327 . S
C816 H841 0.950 . S
C817 C816 1.349 . S
C817 C833 1.349 . S
C818 C816 1.327 . S
C818 C837 1.429 . S
C818 H842 0.950 . S
C819 C836 1.574 . S
C819 C838 1.368 . S
C819 H843 0.949 . S
H820 C824 0.949 . S
C821 C822 1.349 . S
C821 C823 1.327 . S
C821 H844 0.950 . S
C822 C821 1.349 . S
C822 C834 1.349 . S
C823 C821 1.327 . S
C823 C839 1.429 . S
C823 H845 0.950 . S
C824 H820 0.949 . S
C824 C832 1.574 . S
C824 C840 1.368 . S
H825 C833 0.950 . S
H826 C831 0.950 . S
H827 C832 0.949 . S
H828 C834 0.950 . S
H829 C835 0.950 . S
H830 C836 0.949 . S
C831 H826 0.950 . S
C831 C833 1.327 . S
C831 C837 1.429 . S
C832 C824 1.574 . S
C832 H827 0.949 . S
C832 C838 1.368 . S
C833 C817 1.349 . S
C833 H825 0.950 . S
C833 C831 1.327 . S
C834 C822 1.349 . S
C834 H828 0.950 . S
C834 C835 1.327 . S
C835 H829 0.950 . S
C835 C834 1.327 . S
C835 C839 1.429 . S
C836 C819 1.574 . S
C836 H830 0.949 . S
C836 C840 1.368 . S
C837 C818 1.429 . S
C837 C831 1.429 . S
C837 C838 1.523 . S
C838 C819 1.368 . S
C838 C832 1.368 . S
C838 C837 1.523 . S
C839 C823 1.429 . S
C839 C835 1.429 . S
C839 C840 1.523 . S
C840 C824 1.368 . S
C840 C836 1.368 . S
C840 C839 1.523 . S
H841 C816 0.950 . S
H842 C818 0.950 . S
H843 C819 0.949 . S
H844 C821 0.950 . S
H845 C823 0.950 . S
C846 C847 1.349 . S
C846 C848 1.327 . S
C846 H871 0.950 1_455 S
C847 C846 1.349 . S
C847 C863 1.349 1_565 S
C848 C846 1.327 . S
C848 C867 1.429 . S
C848 H872 0.950 1_455 S
C849 C866 1.574 . S
C849 C868 1.347 1_545 S
C849 H873 0.949 . S
H850 C854 0.949 1_655 S
C851 C852 1.349 . S
C851 C853 1.327 . S
C851 H874 0.950 . S
C852 C851 1.349 . S
C852 C864 1.349 1_545 S
C853 C851 1.327 . S
C853 C869 1.429 . S
C853 H875 0.950 . S
C854 H850 0.949 1_455 S
C854 C862 1.574 . S
C854 C870 1.347 1_565 S
H855 C863 0.950 . S
H856 C861 0.950 . S
H857 C862 0.949 1_655 S
H858 C864 0.950 1_655 S
H859 C865 0.950 1_655 S
H860 C866 0.949 . S
C861 H856 0.950 . S
C861 C863 1.327 . S
C861 C867 1.429 1_545 S
C862 C854 1.574 . S
C862 H857 0.949 1_455 S
C862 C868 1.390 . S
C863 C847 1.349 1_545 S
C863 H855 0.950 . S
C863 C861 1.327 . S
C864 C852 1.349 1_565 S
C864 H858 0.950 1_455 S
C864 C865 1.327 . S
C865 H859 0.950 1_455 S
C865 C864 1.327 . S
C865 C869 1.429 1_565 S
C866 C849 1.574 . S
C866 H860 0.949 . S
C866 C870 1.390 . S
C867 C848 1.429 . S
C867 C861 1.429 1_565 S
C867 C868 1.524 . S
C868 C849 1.347 1_565 S
C868 C862 1.390 . S
C868 C867 1.524 . S
C869 C853 1.429 . S
C869 C865 1.429 1_545 S
C869 C870 1.524 . S
C870 C854 1.347 1_545 S
C870 C866 1.390 . S
C870 C869 1.524 . S
H871 C846 0.950 1_655 S
H872 C848 0.950 1_655 S
H873 C849 0.949 . S
H874 C851 0.950 . S
H875 C853 0.950 . S
C876 C877 1.349 . S
C876 C878 1.327 . S
C876 H901 0.950 . S
C877 C876 1.349 . S
C877 C893 1.349 . S
C878 C876 1.327 . S
C878 C897 1.429 . S
C878 H902 0.950 . S
C879 C896 1.574 1_556 S
C879 C898 1.368 . S
C879 H903 0.949 . S
H880 C884 0.949 . S
C881 C882 1.349 . S
C881 C883 1.327 . S
C881 H904 0.950 . S
C882 C881 1.349 . S
C882 C894 1.349 . S
C883 C881 1.327 . S
C883 C899 1.429 . S
C883 H905 0.950 . S
C884 H880 0.949 . S
C884 C892 1.574 1_554 S
C884 C900 1.368 . S
H885 C893 0.950 . S
H886 C891 0.950 . S
H887 C892 0.949 . S
H888 C894 0.950 . S
H889 C895 0.950 . S
H890 C896 0.949 . S
C891 H886 0.950 . S
C891 C893 1.327 . S
C891 C897 1.429 . S
C892 C884 1.574 1_556 S
C892 H887 0.949 . S
C892 C898 1.368 . S
C893 C877 1.349 . S
C893 H885 0.950 . S
C893 C891 1.327 . S
C894 C882 1.349 . S
C894 H888 0.950 . S
C894 C895 1.327 . S
C895 H889 0.950 . S
C895 C894 1.327 . S
C895 C899 1.429 . S
C896 C879 1.574 1_554 S
C896 H890 0.949 . S
C896 C900 1.368 . S
C897 C878 1.429 . S
C897 C891 1.429 . S
C897 C898 1.523 . S
C898 C879 1.368 . S
C898 C892 1.368 . S
C898 C897 1.523 . S
C899 C883 1.429 . S
C899 C895 1.429 . S
C899 C900 1.523 . S
C900 C884 1.368 . S
C900 C896 1.368 . S
C900 C899 1.523 . S
H901 C876 0.950 . S
H902 C878 0.950 . S
H903 C879 0.949 . S
H904 C881 0.950 . S
H905 C883 0.950 . S
C906 C907 1.349 1_565 S
C906 C908 1.327 . S
C906 H931 0.950 . S
C907 C906 1.349 1_545 S
C907 C923 1.349 . S
C908 C906 1.327 . S
C908 C927 1.429 1_565 S
C908 H932 0.950 . S
C909 C926 1.574 . S
C909 C928 1.368 . S
C909 H933 0.949 . S
H910 C914 0.949 . S
C911 C912 1.349 1_545 S
C911 C913 1.327 . S
C911 H934 0.950 . S
C912 C911 1.349 1_565 S
C912 C924 1.349 . S
C913 C911 1.327 . S
C913 C929 1.429 1_545 S
C913 H935 0.950 . S
C914 H910 0.949 . S
C914 C922 1.574 . S
C914 C930 1.368 . S
H915 C923 0.950 . S
H916 C921 0.950 . S
H917 C922 0.949 . S
H918 C924 0.950 . S
H919 C925 0.950 . S
H920 C926 0.949 . S
C921 H916 0.950 . S
C921 C923 1.327 . S
C921 C927 1.429 . S
C922 C914 1.574 . S
C922 H917 0.949 . S
C922 C928 1.368 1_565 S
C923 C907 1.349 . S
C923 H915 0.950 . S
C923 C921 1.327 . S
C924 C912 1.349 . S
C924 H918 0.950 . S
C924 C925 1.327 . S
C925 H919 0.950 . S
C925 C924 1.327 . S
C925 C929 1.429 . S
C926 C909 1.574 . S
C926 H920 0.949 . S
C926 C930 1.368 1_545 S
C927 C908 1.429 1_545 S
C927 C921 1.429 . S
C927 C928 1.523 . S
C928 C909 1.368 . S
C928 C922 1.368 1_545 S
C928 C927 1.523 . S
C929 C913 1.429 1_565 S
C929 C925 1.429 . S
C929 C930 1.523 . S
C930 C914 1.368 . S
C930 C926 1.368 1_565 S
C930 C929 1.523 . S
H931 C906 0.950 . S
H932 C908 0.950 . S
H933 C909 0.949 . S
H934 C911 0.950 . S
H935 C913 0.950 . S
C936 C937 1.349 . S
C936 C938 1.327 . S
C936 H961 0.950 . S
C937 C936 1.349 . S
C937 C953 1.349 . S
C938 C936 1.327 . S
C938 C957 1.429 . S
C938 H962 0.950 . S
C939 C956 1.574 . S
C939 C958 1.368 . S
C939 H963 0.949 . S
H940 C944 0.949 . S
C941 C942 1.349 . S
C941 C943 1.327 . S
C941 H964 0.950 . S
C942 C941 1.349 . S
C942 C954 1.349 . S
C943 C941 1.327 . S
C943 C959 1.429 . S
C943 H965 0.950 . S
C944 H940 0.949 . S
C944 C952 1.574 . S
C944 C960 1.368 . S
H945 C953 0.950 . S
H946 C951 0.950 . S
H947 C952 0.949 . S
H948 C954 0.950 . S
H949 C955 0.950 . S
H950 C956 0.949 . S
C951 H946 0.950 . S
C951 C953 1.327 . S
C951 C957 1.429 . S
C952 C944 1.574 . S
C952 H947 0.949 . S
C952 C958 1.368 . S
C953 C937 1.349 . S
C953 H945 0.950 . S
C953 C951 1.327 . S
C954 C942 1.349 . S
C954 H948 0.950 . S
C954 C955 1.327 . S
C955 H949 0.950 . S
C955 C954 1.327 . S
C955 C959 1.429 . S
C956 C939 1.574 . S
C956 H950 0.949 . S
C956 C960 1.368 . S
C957 C938 1.429 . S
C957 C951 1.429 . S
C957 C958 1.523 . S
C958 C939 1.368 . S
C958 C952 1.368 . S
C958 C957 1.523 . S
C959 C943 1.429 . S
C959 C955 1.429 . S
C959 C960 1.523 . S
C960 C944 1.368 . S
C960 C956 1.368 . S
C960 C959 1.523 . S
H961 C936 0.950 . S
H962 C938 0.950 . S
H963 C939 0.949 . S
H964 C941 0.950 . S
H965 C943 0.950 . S
C966 C967 1.349 1_455 S
C966 C968 1.327 . S
C966 H991 0.950 . S
C967 C966 1.349 1_655 S
C967 C983 1.349 . S
C968 C966 1.327 . S
C968 C987 1.429 1_455 S
C968 H992 0.950 . S
C969 C986 1.574 . S
C969 C988 1.368 . S
C969 H993 0.949 . S
H970 C974 0.949 . S
C971 C972 1.349 1_655 S
C971 C973 1.327 . S
C971 H994 0.950 . S
C972 C971 1.349 1_455 S
C972 C984 1.349 . S
C973 C971 1.327 . S
C973 C989 1.429 1_655 S
C973 H995 0.950 . S
C974 H970 0.949 . S
C974 C982 1.574 . S
C974 C990 1.368 . S
H975 C983 0.950 . S
H976 C981 0.950 . S
H977 C982 0.949 . S
H978 C984 0.950 . S
H979 C985 0.950 . S
H980 C986 0.949 . S
C981 H976 0.950 . S
C981 C983 1.327 . S
C981 C987 1.429 . S
C982 C974 1.574 . S
C982 H977 0.949 . S
C982 C988 1.368 1_455 S
C983 C967 1.349 . S
C983 H975 0.950 . S
C983 C981 1.327 . S
C984 C972 1.349 . S
C984 H978 0.950 . S
C984 C985 1.327 . S
C985 H979 0.950 . S
C985 C984 1.327 . S
C985 C989 1.429 . S
C986 C969 1.574 . S
C986 H980 0.949 . S
C986 C990 1.368 1_655 S
C987 C968 1.429 1_655 S
C987 C981 1.429 . S
C987 C988 1.523 . S
C988 C969 1.368 . S
C988 C982 1.368 1_655 S
C988 C987 1.523 . S
C989 C973 1.429 1_455 S
C989 C985 1.429 . S
C989 C990 1.523 . S
C990 C974 1.368 . S
C990 C986 1.368 1_455 S
C990 C989 1.523 . S
H991 C966 0.950 . S
H992 C968 0.950 . S
H993 C969 0.949 . S
H994 C971 0.950 . S
H995 C973 0.950 . S
C996 C997 1.349 . S
C996 C998 1.327 . S
C996 H1021 0.950 . S
C997 C996 1.349 . S
C997 C1013 1.349 . S
C998 C996 1.327 . S
C998 C1017 1.429 . S
C998 H1022 0.950 . S
C999 C1016 1.574 1_655 S
C999 C1018 1.368 . S
C999 H1023 0.949 . S
H1000 C1004 0.949 . S
C1001 C1002 1.349 . S
C1001 C1003 1.327 . S
C1001 H1024 0.950 . S
C1002 C1001 1.349 . S
C1002 C1014 1.349 . S
C1003 C1001 1.327 . S
C1003 C1019 1.429 . S
C1003 H1025 0.950 . S
C1004 H1000 0.949 . S
C1004 C1012 1.574 1_455 S
C1004 C1020 1.368 . S
H1005 C1013 0.950 . S
H1006 C1011 0.950 . S
H1007 C1012 0.949 . S
H1008 C1014 0.950 . S
H1009 C1015 0.950 . S
H1010 C1016 0.949 . S
C1011 H1006 0.950 . S
C1011 C1013 1.327 . S
C1011 C1017 1.429 . S
C1012 C1004 1.574 1_655 S
C1012 H1007 0.949 . S
C1012 C1018 1.368 . S
C1013 C997 1.349 . S
C1013 H1005 0.950 . S
C1013 C1011 1.327 . S
C1014 C1002 1.349 . S
C1014 H1008 0.950 . S
C1014 C1015 1.327 . S
C1015 H1009 0.950 . S
C1015 C1014 1.327 . S
C1015 C1019 1.429 . S
C1016 C999 1.574 1_455 S
C1016 H1010 0.949 . S
C1016 C1020 1.368 . S
C1017 C998 1.429 . S
C1017 C1011 1.429 . S
C1017 C1018 1.523 . S
C1018 C999 1.368 . S
C1018 C1012 1.368 . S
C1018 C1017 1.523 . S
C1019 C1003 1.429 . S
C1019 C1015 1.429 . S
C1019 C1020 1.523 . S
C1020 C1004 1.368 . S
C1020 C1016 1.368 . S
C1020 C1019 1.523 . S
H1021 C996 0.950 . S
H1022 C998 0.950 . S
H1023 C999 0.949 . S
H1024 C1001 0.950 . S
H1025 C1003 0.950 . S
C1026 C1027 1.349 . S
C1026 C1028 1.327 . S
C1026 H1051 0.950 . S
C1027 C1026 1.349 . S
C1027 C1043 1.349 . S
C1028 C1026 1.327 . S
C1028 C1047 1.429 . S
C1028 H1052 0.950 . S
C1029 C1046 1.574 . S
C1029 C1048 1.368 . S
C1029 H1053 0.949 . S
H1030 C1034 0.949 . S
C1031 C1032 1.349 . S
C1031 C1033 1.327 . S
C1031 H1054 0.950 . S
C1032 C1031 1.349 . S
C1032 C1044 1.349 . S
C1033 C1031 1.327 . S
C1033 C1049 1.429 . S
C1033 H1055 0.950 . S
C1034 H1030 0.949 . S
C1034 C1042 1.574 . S
C1034 C1050 1.368 . S
H1035 C1043 0.950 . S
H1036 C1041 0.950 . S
H1037 C1042 0.949 . S
H1038 C1044 0.950 . S
H1039 C1045 0.950 . S
H1040 C1046 0.949 . S
C1041 H1036 0.950 . S
C1041 C1043 1.327 . S
C1041 C1047 1.429 . S
C1042 C1034 1.574 . S
C1042 H1037 0.949 . S
C1042 C1048 1.368 . S
C1043 C1027 1.349 . S
C1043 H1035 0.950 . S
C1043 C1041 1.327 . S
C1044 C1032 1.349 . S
C1044 H1038 0.950 . S
C1044 C1045 1.327 . S
C1045 H1039 0.950 . S
C1045 C1044 1.327 . S
C1045 C1049 1.429 . S
C1046 C1029 1.574 . S
C1046 H1040 0.949 . S
C1046 C1050 1.368 . S
C1047 C1028 1.429 . S
C1047 C1041 1.429 . S
C1047 C1048 1.523 . S
C1048 C1029 1.368 . S
C1048 C1042 1.368 . S
C1048 C1047 1.523 . S
C1049 C1033 1.429 . S
C1049 C1045 1.429 . S
C1049 C1050 1.523 . S
C1050 C1034 1.368 . S
C1050 C1046 1.368 . S
C1050 C1049 1.523 . S
H1051 C1026 0.950 . S
H1052 C1028 0.950 . S
H1053 C1029 0.949 . S
H1054 C1031 0.950 . S
H1055 C1033 0.950 . S
C1056 C1057 1.349 . S
C1056 C1058 1.327 . S
C1056 H1081 0.950 . S
C1057 C1056 1.349 . S
C1057 C1073 1.349 . S
C1058 C1056 1.327 . S
C1058 C1077 1.429 . S
C1058 H1082 0.950 . S
C1059 C1076 1.574 . S
C1059 C1078 1.368 . S
C1059 H1083 0.949 . S
H1060 C1064 0.949 . S
C1061 C1062 1.349 . S
C1061 C1063 1.327 . S
C1061 H1084 0.950 . S
C1062 C1061 1.349 . S
C1062 C1074 1.349 . S
C1063 C1061 1.327 . S
C1063 C1079 1.429 . S
C1063 H1085 0.950 . S
C1064 H1060 0.949 . S
C1064 C1072 1.574 . S
C1064 C1080 1.368 . S
H1065 C1073 0.950 . S
H1066 C1071 0.950 . S
H1067 C1072 0.949 . S
H1068 C1074 0.950 . S
H1069 C1075 0.950 . S
H1070 C1076 0.949 . S
C1071 H1066 0.950 . S
C1071 C1073 1.327 . S
C1071 C1077 1.429 . S
C1072 C1064 1.574 . S
C1072 H1067 0.949 . S
C1072 C1078 1.368 . S
C1073 C1057 1.349 . S
C1073 H1065 0.950 . S
C1073 C1071 1.327 . S
C1074 C1062 1.349 . S
C1074 H1068 0.950 . S
C1074 C1075 1.327 . S
C1075 H1069 0.950 . S
C1075 C1074 1.327 . S
C1075 C1079 1.429 . S
C1076 C1059 1.574 . S
C1076 H1070 0.949 . S
C1076 C1080 1.368 . S
C1077 C1058 1.429 . S
C1077 C1071 1.429 . S
C1077 C1078 1.523 . S
C1078 C1059 1.368 . S
C1078 C1072 1.368 . S
C1078 C1077 1.523 . S
C1079 C1063 1.429 . S
C1079 C1075 1.429 . S
C1079 C1080 1.523 . S
C1080 C1064 1.368 . S
C1080 C1076 1.368 . S
C1080 C1079 1.523 . S
H1081 C1056 0.950 . S
H1082 C1058 0.950 . S
H1083 C1059 0.949 . S
H1084 C1061 0.950 . S
H1085 C1063 0.950 . S
C1086 C1087 1.349 . S
C1086 C1088 1.327 . S
C1086 H1111 0.950 . S
C1087 C1086 1.349 . S
C1087 C1103 1.349 . S
C1088 C1086 1.327 . S
C1088 C1107 1.429 . S
C1088 H1112 0.950 . S
C1089 C1106 1.574 . S
C1089 C1108 1.368 . S
C1089 H1113 0.949 . S
H1090 C1094 0.949 . S
C1091 C1092 1.349 . S
C1091 C1093 1.327 . S
C1091 H1114 0.950 . S
C1092 C1091 1.349 . S
C1092 C1104 1.349 . S
C1093 C1091 1.327 . S
C1093 C1109 1.429 . S
C1093 H1115 0.950 . S
C1094 H1090 0.949 . S
C1094 C1102 1.574 . S
C1094 C1110 1.368 . S
H1095 C1103 0.950 . S
H1096 C1101 0.950 . S
H1097 C1102 0.949 . S
H1098 C1104 0.950 . S
H1099 C1105 0.950 . S
H1100 C1106 0.949 . S
C1101 H1096 0.950 . S
C1101 C1103 1.327 . S
C1101 C1107 1.429 . S
C1102 C1094 1.574 . S
C1102 H1097 0.949 . S
C1102 C1108 1.368 . S
C1103 C1087 1.349 . S
C1103 H1095 0.950 . S
C1103 C1101 1.327 . S
C1104 C1092 1.349 . S
C1104 H1098 0.950 . S
C1104 C1105 1.327 . S
C1105 H1099 0.950 . S
C1105 C1104 1.327 . S
C1105 C1109 1.429 . S
C1106 C1089 1.574 . S
C1106 H1100 0.949 . S
C1106 C1110 1.368 . S
C1107 C1088 1.429 . S
C1107 C1101 1.429 . S
C1107 C1108 1.523 . S
C1108 C1089 1.368 . S
C1108 C1102 1.368 . S
C1108 C1107 1.523 . S
C1109 C1093 1.429 . S
C1109 C1105 1.429 . S
C1109 C1110 1.523 . S
C1110 C1094 1.368 . S
C1110 C1106 1.368 . S
C1110 C1109 1.523 . S
H1111 C1086 0.950 . S
H1112 C1088 0.950 . S
H1113 C1089 0.949 . S
H1114 C1091 0.950 . S
H1115 C1093 0.950 . S
C1116 C1117 1.349 . S
C1116 C1118 1.327 . S
C1116 H1141 0.950 . S
C1117 C1116 1.349 . S
C1117 C1133 1.349 . S
C1118 C1116 1.327 . S
C1118 C1137 1.429 . S
C1118 H1142 0.950 . S
C1119 C1136 1.574 1_455 S
C1119 C1138 1.368 . S
C1119 H1143 0.949 . S
H1120 C1124 0.949 . S
C1121 C1122 1.349 . S
C1121 C1123 1.327 . S
C1121 H1144 0.950 . S
C1122 C1121 1.349 . S
C1122 C1134 1.349 . S
C1123 C1121 1.327 . S
C1123 C1139 1.429 . S
C1123 H1145 0.950 . S
C1124 H1120 0.949 . S
C1124 C1132 1.574 1_655 S
C1124 C1140 1.368 . S
H1125 C1133 0.950 . S
H1126 C1131 0.950 . S
H1127 C1132 0.949 . S
H1128 C1134 0.950 . S
H1129 C1135 0.950 . S
H1130 C1136 0.949 . S
C1131 H1126 0.950 . S
C1131 C1133 1.327 . S
C1131 C1137 1.429 . S
C1132 C1124 1.574 1_455 S
C1132 H1127 0.949 . S
C1132 C1138 1.368 . S
C1133 C1117 1.349 . S
C1133 H1125 0.950 . S
C1133 C1131 1.327 . S
C1134 C1122 1.349 . S
C1134 H1128 0.950 . S
C1134 C1135 1.327 . S
C1135 H1129 0.950 . S
C1135 C1134 1.327 . S
C1135 C1139 1.429 . S
C1136 C1119 1.574 1_655 S
C1136 H1130 0.949 . S
C1136 C1140 1.368 . S
C1137 C1118 1.429 . S
C1137 C1131 1.429 . S
C1137 C1138 1.523 . S
C1138 C1119 1.368 . S
C1138 C1132 1.368 . S
C1138 C1137 1.523 . S
C1139 C1123 1.429 . S
C1139 C1135 1.429 . S
C1139 C1140 1.523 . S
C1140 C1124 1.368 . S
C1140 C1136 1.368 . S
C1140 C1139 1.523 . S
H1141 C1116 0.950 . S
H1142 C1118 0.950 . S
H1143 C1119 0.949 . S
H1144 C1121 0.950 . S
H1145 C1123 0.950 . S
C1146 C1147 1.349 . S
C1146 C1148 1.327 . S
C1146 H1171 0.950 . S
C1147 C1146 1.349 . S
C1147 C1163 1.349 1_455 S
C1148 C1146 1.327 . S
C1148 C1167 1.429 . S
C1148 H1172 0.950 . S
C1149 C1166 1.574 . S
C1149 C1168 1.368 1_655 S
C1149 H1173 0.949 . S
H1150 C1154 0.949 . S
C1151 C1152 1.349 . S
C1151 C1153 1.327 . S
C1151 H1174 0.950 . S
C1152 C1151 1.349 . S
C1152 C1164 1.349 1_655 S
C1153 C1151 1.327 . S
C1153 C1169 1.429 . S
C1153 H1175 0.950 . S
C1154 H1150 0.949 . S
C1154 C1162 1.574 . S
C1154 C1170 1.368 1_455 S
H1155 C1163 0.950 . S
H1156 C1161 0.950 . S
H1157 C1162 0.949 . S
H1158 C1164 0.950 . S
H1159 C1165 0.950 . S
H1160 C1166 0.949 . S
C1161 H1156 0.950 . S
C1161 C1163 1.327 . S
C1161 C1167 1.429 1_655 S
C1162 C1154 1.574 . S
C1162 H1157 0.949 . S
C1162 C1168 1.368 . S
C1163 C1147 1.349 1_655 S
C1163 H1155 0.950 . S
C1163 C1161 1.327 . S
C1164 C1152 1.349 1_455 S
C1164 H1158 0.950 . S
C1164 C1165 1.327 . S
C1165 H1159 0.950 . S
C1165 C1164 1.327 . S
C1165 C1169 1.429 1_455 S
C1166 C1149 1.574 . S
C1166 H1160 0.949 . S
C1166 C1170 1.368 . S
C1167 C1148 1.429 . S
C1167 C1161 1.429 1_455 S
C1167 C1168 1.523 . S
C1168 C1149 1.368 1_455 S
C1168 C1162 1.368 . S
C1168 C1167 1.523 . S
C1169 C1153 1.429 . S
C1169 C1165 1.429 1_655 S
C1169 C1170 1.523 . S
C1170 C1154 1.368 1_655 S
C1170 C1166 1.368 . S
C1170 C1169 1.523 . S
H1171 C1146 0.950 . S
H1172 C1148 0.950 . S
H1173 C1149 0.949 . S
H1174 C1151 0.950 . S
H1175 C1153 0.950 . S
C1176 C1177 1.349 . S
C1176 C1178 1.327 . S
C1176 H1201 0.950 . S
C1177 C1176 1.349 . S
C1177 C1193 1.349 . S
C1178 C1176 1.327 . S
C1178 C1197 1.429 . S
C1178 H1202 0.950 . S
C1179 C1196 1.574 . S
C1179 C1198 1.368 . S
C1179 H1203 0.949 . S
H1180 C1184 0.949 . S
C1181 C1182 1.349 . S
C1181 C1183 1.327 . S
C1181 H1204 0.950 . S
C1182 C1181 1.349 . S
C1182 C1194 1.349 . S
C1183 C1181 1.327 . S
C1183 C1199 1.429 . S
C1183 H1205 0.950 . S
C1184 H1180 0.949 . S
C1184 C1192 1.574 . S
C1184 C1200 1.368 . S
H1185 C1193 0.950 . S
H1186 C1191 0.950 . S
H1187 C1192 0.949 . S
H1188 C1194 0.950 . S
H1189 C1195 0.950 . S
H1190 C1196 0.949 . S
C1191 H1186 0.950 . S
C1191 C1193 1.327 . S
C1191 C1197 1.429 . S
C1192 C1184 1.574 . S
C1192 H1187 0.949 . S
C1192 C1198 1.368 . S
C1193 C1177 1.349 . S
C1193 H1185 0.950 . S
C1193 C1191 1.327 . S
C1194 C1182 1.349 . S
C1194 H1188 0.950 . S
C1194 C1195 1.327 . S
C1195 H1189 0.950 . S
C1195 C1194 1.327 . S
C1195 C1199 1.429 . S
C1196 C1179 1.574 . S
C1196 H1190 0.949 . S
C1196 C1200 1.368 . S
C1197 C1178 1.429 . S
C1197 C1191 1.429 . S
C1197 C1198 1.523 . S
C1198 C1179 1.368 . S
C1198 C1192 1.368 . S
C1198 C1197 1.523 . S
C1199 C1183 1.429 . S
C1199 C1195 1.429 . S
C1199 C1200 1.523 . S
C1200 C1184 1.368 . S
C1200 C1196 1.368 . S
C1200 C1199 1.523 . S
H1201 C1176 0.950 . S
H1202 C1178 0.950 . S
H1203 C1179 0.949 . S
H1204 C1181 0.950 . S
H1205 C1183 0.950 . S
C1206 C1207 1.349 . S
C1206 C1208 1.327 . S
C1206 H1231 0.950 . S
C1207 C1206 1.349 . S
C1207 C1223 1.349 . S
C1208 C1206 1.327 . S
C1208 C1227 1.429 . S
C1208 H1232 0.950 . S
C1209 C1226 1.574 1_545 S
C1209 C1228 1.368 . S
C1209 H1233 0.949 . S
H1210 C1214 0.949 . S
C1211 C1212 1.349 . S
C1211 C1213 1.327 . S
C1211 H1234 0.950 . S
C1212 C1211 1.349 . S
C1212 C1224 1.349 . S
C1213 C1211 1.327 . S
C1213 C1229 1.429 . S
C1213 H1235 0.950 . S
C1214 H1210 0.949 . S
C1214 C1222 1.574 1_565 S
C1214 C1230 1.368 . S
H1215 C1223 0.950 . S
H1216 C1221 0.950 . S
H1217 C1222 0.949 . S
H1218 C1224 0.950 . S
H1219 C1225 0.950 . S
H1220 C1226 0.949 . S
C1221 H1216 0.950 . S
C1221 C1223 1.327 . S
C1221 C1227 1.429 . S
C1222 C1214 1.574 1_545 S
C1222 H1217 0.949 . S
C1222 C1228 1.368 . S
C1223 C1207 1.349 . S
C1223 H1215 0.950 . S
C1223 C1221 1.327 . S
C1224 C1212 1.349 . S
C1224 H1218 0.950 . S
C1224 C1225 1.327 . S
C1225 H1219 0.950 . S
C1225 C1224 1.327 . S
C1225 C1229 1.429 . S
C1226 C1209 1.574 1_565 S
C1226 H1220 0.949 . S
C1226 C1230 1.368 . S
C1227 C1208 1.429 . S
C1227 C1221 1.429 . S
C1227 C1228 1.523 . S
C1228 C1209 1.368 . S
C1228 C1222 1.368 . S
C1228 C1227 1.523 . S
C1229 C1213 1.429 . S
C1229 C1225 1.429 . S
C1229 C1230 1.523 . S
C1230 C1214 1.368 . S
C1230 C1226 1.368 . S
C1230 C1229 1.523 . S
H1231 C1206 0.950 . S
H1232 C1208 0.950 . S
H1233 C1209 0.949 . S
H1234 C1211 0.950 . S
H1235 C1213 0.950 . S
C1236 C1237 1.349 . S
C1236 C1238 1.327 . S
C1236 H1261 0.950 . S
C1237 C1236 1.349 . S
C1237 C1253 1.349 1_554 S
C1238 C1236 1.327 . S
C1238 C1257 1.429 . S
C1238 H1262 0.950 . S
C1239 C1256 1.574 . S
C1239 C1258 1.368 1_556 S
C1239 H1263 0.949 . S
H1240 C1244 0.949 . S
C1241 C1242 1.349 . S
C1241 C1243 1.327 . S
C1241 H1264 0.950 . S
C1242 C1241 1.349 . S
C1242 C1254 1.349 1_556 S
C1243 C1241 1.327 . S
C1243 C1259 1.429 . S
C1243 H1265 0.950 . S
C1244 H1240 0.949 . S
C1244 C1252 1.574 . S
C1244 C1260 1.368 1_554 S
H1245 C1253 0.950 . S
H1246 C1251 0.950 . S
H1247 C1252 0.949 . S
H1248 C1254 0.950 . S
H1249 C1255 0.950 . S
H1250 C1256 0.949 . S
C1251 H1246 0.950 . S
C1251 C1253 1.327 . S
C1251 C1257 1.429 1_556 S
C1252 C1244 1.574 . S
C1252 H1247 0.949 . S
C1252 C1258 1.368 . S
C1253 C1237 1.349 1_556 S
C1253 H1245 0.950 . S
C1253 C1251 1.327 . S
C1254 C1242 1.349 1_554 S
C1254 H1248 0.950 . S
C1254 C1255 1.327 . S
C1255 H1249 0.950 . S
C1255 C1254 1.327 . S
C1255 C1259 1.429 1_554 S
C1256 C1239 1.574 . S
C1256 H1250 0.949 . S
C1256 C1260 1.368 . S
C1257 C1238 1.429 . S
C1257 C1251 1.429 1_554 S
C1257 C1258 1.523 . S
C1258 C1239 1.368 1_554 S
C1258 C1252 1.368 . S
C1258 C1257 1.523 . S
C1259 C1243 1.429 . S
C1259 C1255 1.429 1_556 S
C1259 C1260 1.523 . S
C1260 C1244 1.368 1_556 S
C1260 C1256 1.368 . S
C1260 C1259 1.523 . S
H1261 C1236 0.950 . S
H1262 C1238 0.950 . S
H1263 C1239 0.949 . S
H1264 C1241 0.950 . S
H1265 C1243 0.950 . S
C1266 C1267 1.349 . S
C1266 C1268 1.327 . S
C1266 H1291 0.950 . S
C1267 C1266 1.349 . S
C1267 C1283 1.349 . S
C1268 C1266 1.327 . S
C1268 C1287 1.429 . S
C1268 H1292 0.950 . S
C1269 C1286 1.574 1_545 S
C1269 C1288 1.368 . S
C1269 H1293 0.949 . S
H1270 C1274 0.949 . S
C1271 C1272 1.349 . S
C1271 C1273 1.327 . S
C1271 H1294 0.950 . S
C1272 C1271 1.349 . S
C1272 C1284 1.349 . S
C1273 C1271 1.327 . S
C1273 C1289 1.429 . S
C1273 H1295 0.950 . S
C1274 H1270 0.949 . S
C1274 C1282 1.574 1_565 S
C1274 C1290 1.368 . S
H1275 C1283 0.950 . S
H1276 C1281 0.950 . S
H1277 C1282 0.949 . S
H1278 C1284 0.950 . S
H1279 C1285 0.950 . S
H1280 C1286 0.949 . S
C1281 H1276 0.950 . S
C1281 C1283 1.327 . S
C1281 C1287 1.429 . S
C1282 C1274 1.574 1_545 S
C1282 H1277 0.949 . S
C1282 C1288 1.368 . S
C1283 C1267 1.349 . S
C1283 H1275 0.950 . S
C1283 C1281 1.327 . S
C1284 C1272 1.349 . S
C1284 H1278 0.950 . S
C1284 C1285 1.327 . S
C1285 H1279 0.950 . S
C1285 C1284 1.327 . S
C1285 C1289 1.429 . S
C1286 C1269 1.574 1_565 S
C1286 H1280 0.949 . S
C1286 C1290 1.368 . S
C1287 C1268 1.429 . S
C1287 C1281 1.429 . S
C1287 C1288 1.523 . S
C1288 C1269 1.368 . S
C1288 C1282 1.368 . S
C1288 C1287 1.523 . S
C1289 C1273 1.429 . S
C1289 C1285 1.429 . S
C1289 C1290 1.523 . S
C1290 C1274 1.368 . S
C1290 C1286 1.368 . S
C1290 C1289 1.523 . S
H1291 C1266 0.950 . S
H1292 C1268 0.950 . S
H1293 C1269 0.949 . S
H1294 C1271 0.950 . S
H1295 C1273 0.950 . S
C1296 C1297 1.349 1_545 S
C1296 C1298 1.327 . S
C1296 H1321 0.950 . S
C1297 C1296 1.349 1_565 S
C1297 C1313 1.349 1_556 S
C1298 C1296 1.327 . S
C1298 C1317 1.429 1_545 S
C1298 H1322 0.950 . S
C1299 C1316 1.574 . S
C1299 C1318 1.368 1_554 S
C1299 H1323 0.949 . S
H1300 C1304 0.949 . S
C1301 C1302 1.349 . S
C1301 C1303 1.327 . S
C1301 H1324 0.950 . S
C1302 C1301 1.349 . S
C1302 C1314 1.343 1_564 S
C1303 C1301 1.327 . S
C1303 C1319 1.429 . S
C1303 H1325 0.950 . S
C1304 H1300 0.949 . S
C1304 C1312 1.574 . S
C1304 C1320 1.368 1_546 S
H1305 C1313 0.950 . S
H1306 C1311 0.950 . S
H1307 C1312 0.949 . S
H1308 C1314 0.954 . S
H1309 C1315 0.950 . S
H1310 C1316 0.949 . S
C1311 H1306 0.950 . S
C1311 C1313 1.327 . S
C1311 C1317 1.429 1_554 S
C1312 C1304 1.574 . S
C1312 H1307 0.949 . S
C1312 C1318 1.368 1_545 S
C1313 C1297 1.349 1_554 S
C1313 H1305 0.950 . S
C1313 C1311 1.327 . S
C1314 C1302 1.343 1_546 S
C1314 H1308 0.954 . S
C1314 C1315 1.329 . S
C1315 H1309 0.950 . S
C1315 C1314 1.329 . S
C1315 C1319 1.429 1_546 S
C1316 C1299 1.574 . S
C1316 H1310 0.949 . S
C1316 C1320 1.368 . S
C1317 C1298 1.429 1_565 S
C1317 C1311 1.429 1_556 S
C1317 C1318 1.523 . S
C1318 C1299 1.368 1_556 S
C1318 C1312 1.368 1_565 S
C1318 C1317 1.523 . S
C1319 C1303 1.429 . S
C1319 C1315 1.429 1_564 S
C1319 C1320 1.523 . S
C1320 C1304 1.368 1_564 S
C1320 C1316 1.368 . S
C1320 C1319 1.523 . S
H1321 C1296 0.950 . S
H1322 C1298 0.950 . S
H1323 C1299 0.949 . S
H1324 C1301 0.950 . S
H1325 C1303 0.950 . S
C1326 C1327 1.349 . S
C1326 C1328 1.327 . S
C1326 H1351 0.950 . S
C1327 C1326 1.349 . S
C1327 C1343 1.349 . S
C1328 C1326 1.327 . S
C1328 C1347 1.429 . S
C1328 H1352 0.950 . S
C1329 C1346 1.574 . S
C1329 C1348 1.368 . S
C1329 H1353 0.949 . S
H1330 C1334 0.949 . S
C1331 C1332 1.349 . S
C1331 C1333 1.327 . S
C1331 H1354 0.950 . S
C1332 C1331 1.349 . S
C1332 C1344 1.349 . S
C1333 C1331 1.327 . S
C1333 C1349 1.429 . S
C1333 H1355 0.950 . S
C1334 H1330 0.949 . S
C1334 C1342 1.574 . S
C1334 C1350 1.368 . S
H1335 C1343 0.950 . S
H1336 C1341 0.950 . S
H1337 C1342 0.949 . S
H1338 C1344 0.950 . S
H1339 C1345 0.950 . S
H1340 C1346 0.949 . S
C1341 H1336 0.950 . S
C1341 C1343 1.327 . S
C1341 C1347 1.429 . S
C1342 C1334 1.574 . S
C1342 H1337 0.949 . S
C1342 C1348 1.368 . S
C1343 C1327 1.349 . S
C1343 H1335 0.950 . S
C1343 C1341 1.327 . S
C1344 C1332 1.349 . S
C1344 H1338 0.950 . S
C1344 C1345 1.327 . S
C1345 H1339 0.950 . S
C1345 C1344 1.327 . S
C1345 C1349 1.429 . S
C1346 C1329 1.574 . S
C1346 H1340 0.949 . S
C1346 C1350 1.368 . S
C1347 C1328 1.429 . S
C1347 C1341 1.429 . S
C1347 C1348 1.523 . S
C1348 C1329 1.368 . S
C1348 C1342 1.368 . S
C1348 C1347 1.523 . S
C1349 C1333 1.429 . S
C1349 C1345 1.429 . S
C1349 C1350 1.523 . S
C1350 C1334 1.368 . S
C1350 C1346 1.368 . S
C1350 C1349 1.523 . S
H1351 C1326 0.950 . S
H1352 C1328 0.950 . S
H1353 C1329 0.949 . S
H1354 C1331 0.950 . S
H1355 C1333 0.950 . S
C1356 C1357 1.349 . S
C1356 C1358 1.327 . S
C1356 H1381 0.950 . S
C1357 C1356 1.349 . S
C1357 C1373 1.349 . S
C1358 C1356 1.327 . S
C1358 C1377 1.429 . S
C1358 H1382 0.950 . S
C1359 C1376 1.574 . S
C1359 C1378 1.368 . S
C1359 H1383 0.949 . S
H1360 C1364 0.949 . S
C1361 C1362 1.349 . S
C1361 C1363 1.327 . S
C1361 H1384 0.950 . S
C1362 C1361 1.349 . S
C1362 C1374 1.349 . S
C1363 C1361 1.327 . S
C1363 C1379 1.429 . S
C1363 H1385 0.950 . S
C1364 H1360 0.949 . S
C1364 C1372 1.574 . S
C1364 C1380 1.368 . S
H1365 C1373 0.950 . S
H1366 C1371 0.950 . S
H1367 C1372 0.949 . S
H1368 C1374 0.950 . S
H1369 C1375 0.950 . S
H1370 C1376 0.949 . S
C1371 H1366 0.950 . S
C1371 C1373 1.327 . S
C1371 C1377 1.429 . S
C1372 C1364 1.574 . S
C1372 H1367 0.949 . S
C1372 C1378 1.368 . S
C1373 C1357 1.349 . S
C1373 H1365 0.950 . S
C1373 C1371 1.327 . S
C1374 C1362 1.349 . S
C1374 H1368 0.950 . S
C1374 C1375 1.327 . S
C1375 H1369 0.950 . S
C1375 C1374 1.327 . S
C1375 C1379 1.429 . S
C1376 C1359 1.574 . S
C1376 H1370 0.949 . S
C1376 C1380 1.368 . S
C1377 C1358 1.429 . S
C1377 C1371 1.429 . S
C1377 C1378 1.523 . S
C1378 C1359 1.368 . S
C1378 C1372 1.368 . S
C1378 C1377 1.523 . S
C1379 C1363 1.429 . S
C1379 C1375 1.429 . S
C1379 C1380 1.523 . S
C1380 C1364 1.368 . S
C1380 C1376 1.368 . S
C1380 C1379 1.523 . S
H1381 C1356 0.950 . S
H1382 C1358 0.950 . S
H1383 C1359 0.949 . S
H1384 C1361 0.950 . S
H1385 C1363 0.950 . S
C1386 C1387 1.349 . S
C1386 C1388 1.327 . S
C1386 H1411 0.950 . S
C1387 C1386 1.349 . S
C1387 C1403 1.349 . S
C1388 C1386 1.327 . S
C1388 C1407 1.429 . S
C1388 H1412 0.950 . S
C1389 C1406 1.574 1_556 S
C1389 C1408 1.368 . S
C1389 H1413 0.949 . S
H1390 C1394 0.949 . S
C1391 C1392 1.349 . S
C1391 C1393 1.327 . S
C1391 H1414 0.950 . S
C1392 C1391 1.349 . S
C1392 C1404 1.349 . S
C1393 C1391 1.327 . S
C1393 C1409 1.429 . S
C1393 H1415 0.950 . S
C1394 H1390 0.949 . S
C1394 C1402 1.574 1_554 S
C1394 C1410 1.368 . S
H1395 C1403 0.950 . S
H1396 C1401 0.950 . S
H1397 C1402 0.949 . S
H1398 C1404 0.950 . S
H1399 C1405 0.950 . S
H1400 C1406 0.949 . S
C1401 H1396 0.950 . S
C1401 C1403 1.327 . S
C1401 C1407 1.429 . S
C1402 C1394 1.574 1_556 S
C1402 H1397 0.949 . S
C1402 C1408 1.368 . S
C1403 C1387 1.349 . S
C1403 H1395 0.950 . S
C1403 C1401 1.327 . S
C1404 C1392 1.349 . S
C1404 H1398 0.950 . S
C1404 C1405 1.327 . S
C1405 H1399 0.950 . S
C1405 C1404 1.327 . S
C1405 C1409 1.429 . S
C1406 C1389 1.574 1_554 S
C1406 H1400 0.949 . S
C1406 C1410 1.368 . S
C1407 C1388 1.429 . S
C1407 C1401 1.429 . S
C1407 C1408 1.523 . S
C1408 C1389 1.368 . S
C1408 C1402 1.368 . S
C1408 C1407 1.523 . S
C1409 C1393 1.429 . S
C1409 C1405 1.429 . S
C1409 C1410 1.523 . S
C1410 C1394 1.368 . S
C1410 C1406 1.368 . S
C1410 C1409 1.523 . S
H1411 C1386 0.950 . S
H1412 C1388 0.950 . S
H1413 C1389 0.949 . S
H1414 C1391 0.950 . S
H1415 C1393 0.950 . S
C1416 C1417 1.349 . S
C1416 C1418 1.327 . S
C1416 H1441 0.950 . S
C1417 C1416 1.349 . S
C1417 C1433 1.349 . S
C1418 C1416 1.327 . S
C1418 C1437 1.429 . S
C1418 H1442 0.950 . S
C1419 C1436 1.574 . S
C1419 C1438 1.368 . S
C1419 H1443 0.949 . S
H1420 C1424 0.949 . S
C1421 C1422 1.349 . S
C1421 C1423 1.327 . S
C1421 H1444 0.950 . S
C1422 C1421 1.349 . S
C1422 C1434 1.349 . S
C1423 C1421 1.327 . S
C1423 C1439 1.429 . S
C1423 H1445 0.950 . S
C1424 H1420 0.949 . S
C1424 C1432 1.574 . S
C1424 C1440 1.368 . S
H1425 C1433 0.950 . S
H1426 C1431 0.950 . S
H1427 C1432 0.949 . S
H1428 C1434 0.950 . S
H1429 C1435 0.950 . S
H1430 C1436 0.949 . S
C1431 H1426 0.950 . S
C1431 C1433 1.327 . S
C1431 C1437 1.429 . S
C1432 C1424 1.574 . S
C1432 H1427 0.949 . S
C1432 C1438 1.368 . S
C1433 C1417 1.349 . S
C1433 H1425 0.950 . S
C1433 C1431 1.327 . S
C1434 C1422 1.349 . S
C1434 H1428 0.950 . S
C1434 C1435 1.327 . S
C1435 H1429 0.950 . S
C1435 C1434 1.327 . S
C1435 C1439 1.429 . S
C1436 C1419 1.574 . S
C1436 H1430 0.949 . S
C1436 C1440 1.368 . S
C1437 C1418 1.429 . S
C1437 C1431 1.429 . S
C1437 C1438 1.523 . S
C1438 C1419 1.368 . S
C1438 C1432 1.368 . S
C1438 C1437 1.523 . S
C1439 C1423 1.429 . S
C1439 C1435 1.429 . S
C1439 C1440 1.523 . S
C1440 C1424 1.368 . S
C1440 C1436 1.368 . S
C1440 C1439 1.523 . S
H1441 C1416 0.950 . S
H1442 C1418 0.950 . S
H1443 C1419 0.949 . S
H1444 C1421 0.950 . S
H1445 C1423 0.950 . S
C1446 C1447 1.349 . S
C1446 C1448 1.327 . S
C1446 H1471 0.950 . S
C1447 C1446 1.349 . S
C1447 C1463 1.349 . S
C1448 C1446 1.327 . S
C1448 C1467 1.429 . S
C1448 H1472 0.950 . S
C1449 C1466 1.574 . S
C1449 C1468 1.368 . S
C1449 H1473 0.949 . S
H1450 C1454 0.949 . S
C1451 C1452 1.349 . S
C1451 C1453 1.327 . S
C1451 H1474 0.950 . S
C1452 C1451 1.349 . S
C1452 C1464 1.349 . S
C1453 C1451 1.327 . S
C1453 C1469 1.429 . S
C1453 H1475 0.950 . S
C1454 H1450 0.949 . S
C1454 C1462 1.574 . S
C1454 C1470 1.368 . S
H1455 C1463 0.950 . S
H1456 C1461 0.950 . S
H1457 C1462 0.949 . S
H1458 C1464 0.950 . S
H1459 C1465 0.950 . S
H1460 C1466 0.949 . S
C1461 H1456 0.950 . S
C1461 C1463 1.327 . S
C1461 C1467 1.429 . S
C1462 C1454 1.574 . S
C1462 H1457 0.949 . S
C1462 C1468 1.368 . S
C1463 C1447 1.349 . S
C1463 H1455 0.950 . S
C1463 C1461 1.327 . S
C1464 C1452 1.349 . S
C1464 H1458 0.950 . S
C1464 C1465 1.327 . S
C1465 H1459 0.950 . S
C1465 C1464 1.327 . S
C1465 C1469 1.429 . S
C1466 C1449 1.574 . S
C1466 H1460 0.949 . S
C1466 C1470 1.368 . S
C1467 C1448 1.429 . S
C1467 C1461 1.429 . S
C1467 C1468 1.523 . S
C1468 C1449 1.368 . S
C1468 C1462 1.368 . S
C1468 C1467 1.523 . S
C1469 C1453 1.429 . S
C1469 C1465 1.429 . S
C1469 C1470 1.523 . S
C1470 C1454 1.368 . S
C1470 C1466 1.368 . S
C1470 C1469 1.523 . S
H1471 C1446 0.950 . S
H1472 C1448 0.950 . S
H1473 C1449 0.949 . S
H1474 C1451 0.950 . S
H1475 C1453 0.950 . S
C1476 C1477 1.349 . S
C1476 C1478 1.327 . S
C1476 H1501 0.950 1_655 S
C1477 C1476 1.349 . S
C1477 C1493 1.349 . S
C1478 C1476 1.327 . S
C1478 C1497 1.429 . S
C1478 H1502 0.950 1_655 S
C1479 C1496 1.574 . S
C1479 C1498 1.368 . S
C1479 H1503 0.949 . S
H1480 C1484 0.949 1_455 S
C1481 C1482 1.349 . S
C1481 C1483 1.327 . S
C1481 H1504 0.950 . S
C1482 C1481 1.349 . S
C1482 C1494 1.349 . S
C1483 C1481 1.327 . S
C1483 C1499 1.429 . S
C1483 H1505 0.950 . S
C1484 H1480 0.949 1_655 S
C1484 C1492 1.574 . S
C1484 C1500 1.368 . S
H1485 C1493 0.950 . S
H1486 C1491 0.950 . S
H1487 C1492 0.949 1_455 S
H1488 C1494 0.950 1_455 S
H1489 C1495 0.950 1_455 S
H1490 C1496 0.949 . S
C1491 H1486 0.950 . S
C1491 C1493 1.327 . S
C1491 C1497 1.429 . S
C1492 C1484 1.574 . S
C1492 H1487 0.949 1_655 S
C1492 C1498 1.368 . S
C1493 C1477 1.349 . S
C1493 H1485 0.950 . S
C1493 C1491 1.327 . S
C1494 C1482 1.349 . S
C1494 H1488 0.950 1_655 S
C1494 C1495 1.327 . S
C1495 H1489 0.950 1_655 S
C1495 C1494 1.327 . S
C1495 C1499 1.429 . S
C1496 C1479 1.574 . S
C1496 H1490 0.949 . S
C1496 C1500 1.368 . S
C1497 C1478 1.429 . S
C1497 C1491 1.429 . S
C1497 C1498 1.523 . S
C1498 C1479 1.368 . S
C1498 C1492 1.368 . S
C1498 C1497 1.523 . S
C1499 C1483 1.429 . S
C1499 C1495 1.429 . S
C1499 C1500 1.523 . S
C1500 C1484 1.368 . S
C1500 C1496 1.368 . S
C1500 C1499 1.523 . S
H1501 C1476 0.950 1_455 S
H1502 C1478 0.950 1_455 S
H1503 C1479 0.949 . S
H1504 C1481 0.950 . S
H1505 C1483 0.950 . S
C1506 C1507 1.349 1_565 S
C1506 C1508 1.327 . S
C1506 H1531 0.950 . S
C1507 C1506 1.349 1_545 S
C1507 C1523 1.349 . S
C1508 C1506 1.327 . S
C1508 C1527 1.429 1_565 S
C1508 H1532 0.950 . S
C1509 C1526 1.574 . S
C1509 C1528 1.368 . S
C1509 H1533 0.949 . S
H1510 C1514 0.949 . S
C1511 C1512 1.349 . S
C1511 C1513 1.327 . S
C1511 H1534 0.950 . S
C1512 C1511 1.349 . S
C1512 C1524 1.349 1_545 S
C1513 C1511 1.327 . S
C1513 C1529 1.429 . S
C1513 H1535 0.950 . S
C1514 H1510 0.949 . S
C1514 C1522 1.574 . S
C1514 C1530 1.368 1_565 S
H1515 C1523 0.950 . S
H1516 C1521 0.950 . S
H1517 C1522 0.949 . S
H1518 C1524 0.950 . S
H1519 C1525 0.950 . S
H1520 C1526 0.949 . S
C1521 H1516 0.950 . S
C1521 C1523 1.327 . S
C1521 C1527 1.429 . S
C1522 C1514 1.574 . S
C1522 H1517 0.949 . S
C1522 C1528 1.368 1_565 S
C1523 C1507 1.349 . S
C1523 H1515 0.950 . S
C1523 C1521 1.327 . S
C1524 C1512 1.349 1_565 S
C1524 H1518 0.950 . S
C1524 C1525 1.327 . S
C1525 H1519 0.950 . S
C1525 C1524 1.327 . S
C1525 C1529 1.429 1_565 S
C1526 C1509 1.574 . S
C1526 H1520 0.949 . S
C1526 C1530 1.368 . S
C1527 C1508 1.429 1_545 S
C1527 C1521 1.429 . S
C1527 C1528 1.523 . S
C1528 C1509 1.368 . S
C1528 C1522 1.368 1_545 S
C1528 C1527 1.523 . S
C1529 C1513 1.429 . S
C1529 C1525 1.429 1_545 S
C1529 C1530 1.523 . S
C1530 C1514 1.368 1_545 S
C1530 C1526 1.368 . S
C1530 C1529 1.523 . S
H1531 C1506 0.950 . S
H1532 C1508 0.950 . S
H1533 C1509 0.949 . S
H1534 C1511 0.950 . S
H1535 C1513 0.950 . S
C577 C4 1.948 . S
C582 C256 1.951 1_554 S
C607 C40 1.949 . S
C612 C148 1.950 . S
C637 C184 1.922 . S
C642 C76 1.923 . S
C667 C112 1.922 1_556 S
C672 C220 1.923 . S
C697 C292 1.923 . S
C702 C436 1.922 1_556 S
C727 C328 1.949 1_554 S
C732 C508 1.950 . S
C757 C400 1.949 . S
C762 C364 1.950 . S
C787 C544 1.922 . S
C792 C472 1.923 . S
C817 C3 1.178 . S
C822 C219 1.177 . S
C847 C266 0.832 1_565 S
C852 C50 0.832 1_545 S
C877 C75 1.177 . S
C882 C147 1.178 . S
C907 C194 0.830 . S
C912 C122 0.830 . S
C937 C2 1.357 . S
C942 C506 1.357 . S
C967 C399 1.194 . S
C972 C39 1.194 . S
C997 C470 1.300 . S
C1002 C74 1.300 . S
C1027 C435 1.163 . S
C1032 C111 1.163 . S
C1057 C362 1.357 . S
C1062 C146 1.357 . S
C1087 C183 1.163 . S
C1092 C543 1.163 . S
C1117 C218 1.300 . S
C1122 C290 1.300 . S
C1147 C255 1.194 . S
C1152 C327 1.194 . S
C1177 C14 0.825 . S
C1182 C158 0.825 . S
C1207 C302 0.849 . S
C1212 C482 0.849 . S
C1237 C434 1.267 . S
C1242 C326 1.264 . S
C1267 C518 0.825 . S
C1272 C374 0.825 . S
C1297 C254 1.268 . S
C1302 C110 1.264 . S
C1327 C86 0.849 . S
C1332 C230 0.849 . S
C1357 C398 1.268 . S
C1362 C542 1.264 . S
C1387 C471 1.177 . S
C1392 C363 1.178 . S
C1417 C554 0.825 . S
C1422 C446 0.825 . S
C1447 C507 1.178 . S
C1452 C291 1.177 . S
C1477 C410 0.839 . S
C1482 C338 0.839 . S
C1507 C38 1.268 . S
C1512 C182 1.264 . S
