# Generated by pormake.
# Topology whv, (6)-cn, num edge types: 1
# Building blocks:
#     Node 0, Type 0, BuildingBlock: VOLQOD_clean_sbu_1, # of connection points: 6
#     Node 1, Type 0, BuildingBlock: VOLQOD_clean_sbu_1, # of connection points: 6
#     Node 2, Type 0, BuildingBlock: VOLQOD_clean_sbu_1, # of connection points: 6
#     Node 3, Type 0, BuildingBlock: VOLQOD_clean_sbu_1, # of connection points: 6
#     Node 4, Type 0, BuildingBlock: VOLQOD_clean_sbu_1, # of connection points: 6
#     Node 5, Type 0, BuildingBlock: VOLQOD_clean_sbu_1, # of connection points: 6
#     Node 6, Type 0, BuildingBlock: VOLQOD_clean_sbu_1, # of connection points: 6
#     Node 7, Type 0, BuildingBlock: VOLQOD_clean_sbu_1, # of connection points: 6
#     Node 8, Type 0, BuildingBlock: VOLQOD_clean_sbu_1, # of connection points: 6
#     Node 9, Type 0, BuildingBlock: VOLQOD_clean_sbu_1, # of connection points: 6
#     Node 10, Type 0, BuildingBlock: VOLQOD_clean_sbu_1, # of connection points: 6
#     Node 11, Type 0, BuildingBlock: VOLQOD_clean_sbu_1, # of connection points: 6
#     Node 12, Type 0, BuildingBlock: VOLQOD_clean_sbu_1, # of connection points: 6
#     Node 13, Type 0, BuildingBlock: VOLQOD_clean_sbu_1, # of connection points: 6
#     Node 14, Type 0, BuildingBlock: VOLQOD_clean_sbu_1, # of connection points: 6
#     Node 15, Type 0, BuildingBlock: VOLQOD_clean_sbu_1, # of connection points: 6
#     Edge 16, Type (0, 0), BuildingBlock: KIFKEQ_clean_linker_1, # of connection points: 2
#     Edge 17, Type (0, 0), BuildingBlock: KIFKEQ_clean_linker_1, # of connection points: 2
#     Edge 18, Type (0, 0), BuildingBlock: KIFKEQ_clean_linker_1, # of connection points: 2
#     Edge 19, Type (0, 0), BuildingBlock: KIFKEQ_clean_linker_1, # of connection points: 2
#     Edge 20, Type (0, 0), BuildingBlock: KIFKEQ_clean_linker_1, # of connection points: 2
#     Edge 21, Type (0, 0), BuildingBlock: KIFKEQ_clean_linker_1, # of connection points: 2
#     Edge 22, Type (0, 0), BuildingBlock: KIFKEQ_clean_linker_1, # of connection points: 2
#     Edge 23, Type (0, 0), BuildingBlock: KIFKEQ_clean_linker_1, # of connection points: 2
#     Edge 24, Type (0, 0), BuildingBlock: KIFKEQ_clean_linker_1, # of connection points: 2
#     Edge 25, Type (0, 0), BuildingBlock: KIFKEQ_clean_linker_1, # of connection points: 2
#     Edge 26, Type (0, 0), BuildingBlock: KIFKEQ_clean_linker_1, # of connection points: 2
#     Edge 27, Type (0, 0), BuildingBlock: KIFKEQ_clean_linker_1, # of connection points: 2
#     Edge 28, Type (0, 0), BuildingBlock: KIFKEQ_clean_linker_1, # of connection points: 2
#     Edge 29, Type (0, 0), BuildingBlock: KIFKEQ_clean_linker_1, # of connection points: 2
#     Edge 30, Type (0, 0), BuildingBlock: KIFKEQ_clean_linker_1, # of connection points: 2
#     Edge 31, Type (0, 0), BuildingBlock: KIFKEQ_clean_linker_1, # of connection points: 2
#     Edge 32, Type (0, 0), BuildingBlock: KIFKEQ_clean_linker_1, # of connection points: 2
#     Edge 33, Type (0, 0), BuildingBlock: KIFKEQ_clean_linker_1, # of connection points: 2
#     Edge 34, Type (0, 0), BuildingBlock: KIFKEQ_clean_linker_1, # of connection points: 2
#     Edge 35, Type (0, 0), BuildingBlock: KIFKEQ_clean_linker_1, # of connection points: 2
#     Edge 36, Type (0, 0), BuildingBlock: KIFKEQ_clean_linker_1, # of connection points: 2
#     Edge 37, Type (0, 0), BuildingBlock: KIFKEQ_clean_linker_1, # of connection points: 2
#     Edge 38, Type (0, 0), BuildingBlock: KIFKEQ_clean_linker_1, # of connection points: 2
#     Edge 39, Type (0, 0), BuildingBlock: KIFKEQ_clean_linker_1, # of connection points: 2
#     Edge 40, Type (0, 0), BuildingBlock: KIFKEQ_clean_linker_1, # of connection points: 2
#     Edge 41, Type (0, 0), BuildingBlock: KIFKEQ_clean_linker_1, # of connection points: 2
#     Edge 42, Type (0, 0), BuildingBlock: KIFKEQ_clean_linker_1, # of connection points: 2
#     Edge 43, Type (0, 0), BuildingBlock: KIFKEQ_clean_linker_1, # of connection points: 2
#     Edge 44, Type (0, 0), BuildingBlock: KIFKEQ_clean_linker_1, # of connection points: 2
#     Edge 45, Type (0, 0), BuildingBlock: KIFKEQ_clean_linker_1, # of connection points: 2
#     Edge 46, Type (0, 0), BuildingBlock: KIFKEQ_clean_linker_1, # of connection points: 2
#     Edge 47, Type (0, 0), BuildingBlock: KIFKEQ_clean_linker_1, # of connection points: 2
#     Edge 48, Type (0, 0), BuildingBlock: KIFKEQ_clean_linker_1, # of connection points: 2
#     Edge 49, Type (0, 0), BuildingBlock: KIFKEQ_clean_linker_1, # of connection points: 2
#     Edge 50, Type (0, 0), BuildingBlock: KIFKEQ_clean_linker_1, # of connection points: 2
#     Edge 51, Type (0, 0), BuildingBlock: KIFKEQ_clean_linker_1, # of connection points: 2
#     Edge 52, Type (0, 0), BuildingBlock: KIFKEQ_clean_linker_1, # of connection points: 2
#     Edge 53, Type (0, 0), BuildingBlock: KIFKEQ_clean_linker_1, # of connection points: 2
#     Edge 54, Type (0, 0), BuildingBlock: KIFKEQ_clean_linker_1, # of connection points: 2
#     Edge 55, Type (0, 0), BuildingBlock: KIFKEQ_clean_linker_1, # of connection points: 2
#     Edge 56, Type (0, 0), BuildingBlock: KIFKEQ_clean_linker_1, # of connection points: 2
#     Edge 57, Type (0, 0), BuildingBlock: KIFKEQ_clean_linker_1, # of connection points: 2
#     Edge 58, Type (0, 0), BuildingBlock: KIFKEQ_clean_linker_1, # of connection points: 2
#     Edge 59, Type (0, 0), BuildingBlock: KIFKEQ_clean_linker_1, # of connection points: 2
#     Edge 60, Type (0, 0), BuildingBlock: KIFKEQ_clean_linker_1, # of connection points: 2
#     Edge 61, Type (0, 0), BuildingBlock: KIFKEQ_clean_linker_1, # of connection points: 2
#     Edge 62, Type (0, 0), BuildingBlock: KIFKEQ_clean_linker_1, # of connection points: 2
#     Edge 63, Type (0, 0), BuildingBlock: KIFKEQ_clean_linker_1, # of connection points: 2
# Relax obj value: 0.298
# Max RMSD: 0.250
# Mean RMSD: 0.250
data_MOF--net-whv--node1-VOLQOD_clean_sbu_1--edge1-KIFKEQ_clean_linker_1
_symmetry_space_group_name_H-M    P1
_symmetry_Int_Tables_number       1
_symmetry_cell_setting            triclinic
loop_
_symmetry_equiv_pos_as_xyz
'x, y, z'
_cell_length_a     54.981039
_cell_length_b     54.926912
_cell_length_c     27.51225
_cell_angle_alpha  90.125097
_cell_angle_beta   90.06258
_cell_angle_gamma 90.053822
loop_
_atom_site_label
_atom_site_type_symbol
_atom_site_fract_x
_atom_site_fract_y
_atom_site_fract_z
_atom_type_partial_charge
O0 O 0.2967 0.18935 0.91612 0.0
Zn1 Zn 0.31189 0.16542 0.95977 0.0
O2 O 0.31708 0.18076 0.02238 0.0
Zn3 Zn 0.3516 0.18068 0.03744 0.0
Zn4 Zn 0.30353 0.21322 0.02363 0.0
Zn5 Zn 0.29923 0.1625 0.06941 0.0
O6 O 0.35853 0.15482 0.08937 0.0
O7 O 0.32156 0.1391 0.10124 0.0
O8 O 0.3431 0.15542 0.92619 0.0
O9 O 0.37024 0.1702 0.97823 0.0
O10 O 0.36389 0.21545 0.04967 0.0
O11 O 0.33099 0.2364 0.02769 0.0
O12 O 0.28336 0.21965 0.08353 0.0
O13 O 0.28568 0.13975 0.96209 0.0
O14 O 0.28594 0.18418 0.1214 0.0
O15 O 0.27117 0.1456 0.03649 0.0
C16 C 0.28562 0.20944 0.92125 0.0
C17 C 0.34445 0.13889 0.10838 0.0
C18 C 0.35328 0.2356 0.04004 0.0
C19 C 0.36506 0.1603 0.93764 0.0
C20 C 0.27958 0.20643 0.12072 0.0
C21 C 0.26899 0.13687 0.99374 0.0
O22 O 0.28509 0.2206 0.9619 0.0
O23 O 0.55262 0.54724 0.1685 0.0
Zn24 Zn 0.57629 0.56258 0.21317 0.0
O25 O 0.55998 0.56873 0.27456 0.0
Zn26 Zn 0.56107 0.60335 0.28902 0.0
Zn27 Zn 0.52705 0.5565 0.27404 0.0
Zn28 Zn 0.57676 0.55042 0.3231 0.0
O29 O 0.58709 0.60968 0.34104 0.0
O30 O 0.6006 0.57212 0.35589 0.0
O31 O 0.58717 0.59346 0.17925 0.0
O32 O 0.57236 0.6213 0.22968 0.0
O33 O 0.52671 0.61689 0.30058 0.0
O34 O 0.50493 0.58469 0.27728 0.0
O35 O 0.51904 0.53683 0.33375 0.0
O36 O 0.60204 0.53643 0.21855 0.0
O37 O 0.55418 0.53722 0.3733 0.0
O38 O 0.59327 0.52197 0.29176 0.0
C39 C 0.53174 0.53752 0.17225 0.0
C40 C 0.60206 0.59509 0.36156 0.0
C41 C 0.50632 0.60689 0.29016 0.0
C42 C 0.58261 0.61561 0.18978 0.0
C43 C 0.53168 0.53195 0.37127 0.0
C44 C 0.60348 0.51969 0.2505 0.0
O45 O 0.51975 0.53827 0.21187 0.0
O46 O 0.19428 0.80174 0.41638 0.0
Zn47 Zn 0.18073 0.82671 0.46019 0.0
O48 O 0.17484 0.81157 0.52269 0.0
Zn49 Zn 0.14075 0.81494 0.54065 0.0
Zn50 Zn 0.1854 0.77809 0.5234 0.0
Zn51 Zn 0.19519 0.82799 0.568 0.0
O52 O 0.13733 0.84182 0.59306 0.0
O53 O 0.17594 0.85379 0.59964 0.0
O54 O 0.14976 0.83798 0.42755 0.0
O55 O 0.12226 0.82655 0.48198 0.0
O56 O 0.12552 0.78121 0.55344 0.0
O57 O 0.15616 0.75763 0.529 0.0
O58 O 0.20542 0.76995 0.5826 0.0
O59 O 0.20807 0.8515 0.46204 0.0
O60 O 0.20773 0.80582 0.61933 0.0
O61 O 0.22384 0.84218 0.53387 0.0
C62 C 0.20301 0.78046 0.42061 0.0
C63 C 0.15348 0.85667 0.60917 0.0
C64 C 0.13428 0.76026 0.54291 0.0
C65 C 0.12766 0.83518 0.44043 0.0
C66 C 0.21161 0.78302 0.61883 0.0
C67 C 0.22565 0.85213 0.49233 0.0
O68 O 0.2023 0.76897 0.46079 0.0
O69 O 0.93846 0.44786 0.67031 0.0
Zn70 Zn 0.91522 0.43201 0.71461 0.0
O71 O 0.93175 0.4265 0.77599 0.0
Zn72 Zn 0.93099 0.392 0.79112 0.0
Zn73 Zn 0.96458 0.43894 0.77527 0.0
Zn74 Zn 0.91489 0.44518 0.82389 0.0
O75 O 0.90529 0.38597 0.84364 0.0
O76 O 0.89137 0.42355 0.85723 0.0
O77 O 0.90519 0.40075 0.68063 0.0
O78 O 0.91976 0.37341 0.73225 0.0
O79 O 0.96547 0.37885 0.80251 0.0
O80 O 0.98693 0.41087 0.77735 0.0
O81 O 0.97273 0.45838 0.83542 0.0
O82 O 0.88894 0.45774 0.71942 0.0
O83 O 0.93737 0.45883 0.87399 0.0
O84 O 0.89821 0.47326 0.79165 0.0
C85 C 0.95905 0.45818 0.67412 0.0
C86 C 0.89023 0.40062 0.86377 0.0
C87 C 0.98571 0.38878 0.7909 0.0
C88 C 0.90979 0.37871 0.69186 0.0
C89 C 0.95996 0.4637 0.87251 0.0
C90 C 0.88772 0.47496 0.75052 0.0
O91 O 0.97121 0.45765 0.7136 0.0
O92 O 0.69706 0.80406 0.1333 0.0
Zn93 Zn 0.68174 0.82789 0.08966 0.0
O94 O 0.6767 0.81255 0.02701 0.0
Zn95 Zn 0.64216 0.81316 0.01163 0.0
Zn96 Zn 0.68996 0.77992 0.026 0.0
Zn97 Zn 0.69509 0.83054 0.98029 0.0
O98 O 0.63579 0.83956 0.96026 0.0
O99 O 0.67321 0.85414 0.94809 0.0
O100 O 0.65051 0.83775 0.12325 0.0
O101 O 0.62328 0.82351 0.07087 0.0
O102 O 0.62965 0.77848 -0.00143 0.0
O103 O 0.66215 0.75714 0.02154 0.0
O104 O 0.71023 0.77316 0.96612 0.0
O105 O 0.70763 0.85383 0.08745 0.0
O106 O 0.70861 0.80878 0.9286 0.0
O107 O 0.72288 0.84761 0.01375 0.0
C108 C 0.70793 0.78383 0.12855 0.0
C109 C 0.65033 0.85508 0.94119 0.0
C110 C 0.63996 0.7582 0.00852 0.0
C111 C 0.62852 0.83317 0.11168 0.0
C112 C 0.71454 0.7864 0.92917 0.0
C113 C 0.72455 0.85668 0.0563 0.0
O114 O 0.70826 0.77246 0.08809 0.0
O115 O 0.44333 0.44331 0.88252 0.0
Zn116 Zn 0.41723 0.4319 0.83864 0.0
O117 O 0.43064 0.42693 0.77448 0.0
Zn118 Zn 0.42992 0.39238 0.75908 0.0
Zn119 Zn 0.46307 0.44047 0.7719 0.0
Zn120 Zn 0.4118 0.44519 0.72875 0.0
O121 O 0.40416 0.38598 0.70624 0.0
O122 O 0.3883 0.42306 0.69645 0.0
O123 O 0.40457 0.40118 0.86987 0.0
O124 O 0.41853 0.37373 0.81768 0.0
O125 O 0.46461 0.3796 0.74821 0.0
O126 O 0.48597 0.41281 0.76705 0.0
O127 O 0.46882 0.46095 0.71229 0.0
O128 O 0.39396 0.46013 0.83942 0.0
O129 O 0.43276 0.45914 0.67638 0.0
O130 O 0.39509 0.47296 0.76294 0.0
C131 C 0.46282 0.45529 0.87601 0.0
C132 C 0.38816 0.40026 0.68802 0.0
C133 C 0.48492 0.39029 0.75644 0.0
C134 C 0.40848 0.3791 0.85797 0.0
C135 C 0.45505 0.46532 0.67612 0.0
C136 C 0.38887 0.47596 0.80715 0.0
O137 O 0.47167 0.45846 0.8337 0.0
O138 O 0.79622 0.19073 0.63365 0.0
Zn139 Zn 0.81078 0.1667 0.58898 0.0
O140 O 0.81661 0.18287 0.52765 0.0
Zn141 Zn 0.85075 0.18059 0.51037 0.0
Zn142 Zn 0.80436 0.21574 0.52721 0.0
Zn143 Zn 0.7974 0.16632 0.4812 0.0
O144 O 0.85538 0.15335 0.45888 0.0
O145 O 0.81718 0.14012 0.45291 0.0
O146 O 0.84196 0.15561 0.62173 0.0
O147 O 0.86933 0.16941 0.56925 0.0
O148 O 0.86456 0.21494 0.49785 0.0
O149 O 0.833 0.23732 0.52251 0.0
O150 O 0.78416 0.22341 0.46737 0.0
O151 O 0.78391 0.1414 0.58449 0.0
O152 O 0.78657 0.18828 0.428 0.0
O153 O 0.76808 0.15252 0.5137 0.0
C154 C 0.78644 0.21158 0.62989 0.0
C155 C 0.83975 0.13763 0.44408 0.0
C156 C 0.85501 0.23553 0.50873 0.0
C157 C 0.86402 0.15966 0.60985 0.0
C158 C 0.78067 0.21063 0.42926 0.0
C159 C 0.76625 0.14164 0.55431 0.0
O160 O 0.78673 0.2234 0.59002 0.0
O161 O 0.04573 0.55279 0.38639 0.0
Zn162 Zn 0.07276 0.56294 0.34395 0.0
O163 O 0.06023 0.56744 0.27886 0.0
Zn164 Zn 0.06286 0.60158 0.26021 0.0
Zn165 Zn 0.02738 0.55513 0.27477 0.0
Zn166 Zn 0.07859 0.54743 0.2359 0.0
O167 O 0.08977 0.60558 0.20796 0.0
O168 O 0.10381 0.56757 0.20557 0.0
O169 O 0.08519 0.5941 0.37442 0.0
O170 O 0.07405 0.62093 0.31845 0.0
O171 O 0.02869 0.61557 0.24697 0.0
O172 O 0.00588 0.58362 0.26742 0.0
O173 O 0.02146 0.53421 0.21565 0.0
O174 O 0.0955 0.53401 0.34776 0.0
O175 O 0.05809 0.53388 0.18223 0.0
O176 O 0.09379 0.5198 0.27217 0.0
C177 C 0.02582 0.54162 0.37931 0.0
C178 C 0.10563 0.58991 0.19412 0.0
C179 C 0.00792 0.60585 0.25528 0.0
C180 C 0.08259 0.61605 0.36037 0.0
C181 C 0.03555 0.52878 0.18059 0.0
C182 C 0.1001 0.51747 0.31646 0.0
O183 O 0.01729 0.53832 0.33671 0.0
O184 O 0.80239 0.69653 0.41652 0.0
Zn185 Zn 0.81237 0.66957 0.45941 0.0
O186 O 0.81751 0.68237 0.52427 0.0
Zn187 Zn 0.8517 0.67888 0.54207 0.0
Zn188 Zn 0.80662 0.71567 0.52735 0.0
Zn189 Zn 0.7969 0.665 0.56817 0.0
O190 O 0.85508 0.6518 0.59406 0.0
O191 O 0.81657 0.63931 0.59902 0.0
O192 O 0.84294 0.65629 0.42833 0.0
O193 O 0.87039 0.66711 0.48349 0.0
O194 O 0.86691 0.71269 0.55503 0.0
O195 O 0.83583 0.73624 0.53287 0.0
O196 O 0.78718 0.72295 0.58747 0.0
O197 O 0.78306 0.64733 0.45661 0.0
O198 O 0.7836 0.68652 0.62107 0.0
O199 O 0.76889 0.65015 0.53201 0.0
C200 C 0.79175 0.71675 0.42341 0.0
C201 C 0.83901 0.63661 0.60903 0.0
C202 C 0.8579 0.73367 0.54559 0.0
C203 C 0.86503 0.65849 0.4418 0.0
C204 C 0.78041 0.70945 0.62248 0.0
C205 C 0.76641 0.64345 0.48794 0.0
O206 O 0.78919 0.72572 0.46586 0.0
O207 O 0.05415 0.04458 0.67156 0.0
Zn208 Zn 0.07778 0.06073 0.71525 0.0
O209 O 0.06178 0.06694 0.7769 0.0
Zn210 Zn 0.06281 0.10157 0.79141 0.0
Zn211 Zn 0.02903 0.05402 0.77764 0.0
Zn212 Zn 0.079 0.04894 0.82496 0.0
O213 O 0.08903 0.10809 0.84355 0.0
O214 O 0.10307 0.07056 0.85675 0.0
O215 O 0.08785 0.09169 0.68048 0.0
O216 O 0.07385 0.11953 0.73185 0.0
O217 O 0.02815 0.11472 0.80237 0.0
O218 O 0.0066 0.08208 0.78046 0.0
O219 O 0.02166 0.03428 0.83799 0.0
O220 O 0.10403 0.03507 0.72066 0.0
O221 O 0.05691 0.03675 0.87675 0.0
O222 O 0.09503 0.0202 0.79344 0.0
C223 C 0.03346 0.03453 0.67608 0.0
C224 C 0.10428 0.09348 0.86326 0.0
C225 C 0.00783 0.10444 0.79234 0.0
C226 C 0.08353 0.11385 0.69137 0.0
C227 C 0.03461 0.0307 0.87572 0.0
C228 C 0.10531 0.01812 0.75219 0.0
O229 O 0.02167 0.03538 0.71593 0.0
O230 O 0.69127 0.29915 0.91762 0.0
Zn231 Zn 0.6809 0.32594 0.96086 0.0
O232 O 0.67584 0.3131 0.02554 0.0
Zn233 Zn 0.6416 0.31619 0.04311 0.0
Zn234 Zn 0.68713 0.27993 0.02839 0.0
Zn235 Zn 0.69615 0.33076 0.06974 0.0
O236 O 0.63783 0.34278 0.09604 0.0
O237 O 0.67612 0.35589 0.10136 0.0
O238 O 0.65031 0.33916 0.92999 0.0
O239 O 0.62287 0.32822 0.98484 0.0
O240 O 0.62672 0.28224 0.05494 0.0
O241 O 0.65814 0.25899 0.03337 0.0
O242 O 0.70675 0.27293 0.0885 0.0
O243 O 0.70984 0.34856 0.95854 0.0
O244 O 0.70994 0.30947 0.1221 0.0
O245 O 0.72386 0.34617 0.03412 0.0
C246 C 0.70224 0.27913 0.92452 0.0
C247 C 0.65367 0.35811 0.1116 0.0
C248 C 0.63597 0.26136 0.04555 0.0
C249 C 0.62824 0.33699 0.94338 0.0
C250 C 0.71348 0.2866 0.12342 0.0
C251 C 0.72632 0.35281 0.9901 0.0
O252 O 0.7048 0.2702 0.96695 0.0
O253 O 0.45005 0.9405 0.16993 0.0
Zn254 Zn 0.42257 0.93094 0.21187 0.0
O255 O 0.4345 0.9259 0.27704 0.0
Zn256 Zn 0.43156 0.89164 0.2938 0.0
Zn257 Zn 0.46726 0.938 0.28202 0.0
Zn258 Zn 0.41607 0.94574 0.32023 0.0
O259 O 0.40435 0.88743 0.3451 0.0
O260 O 0.39016 0.92541 0.34792 0.0
O261 O 0.40871 0.90064 0.18079 0.0
O262 O 0.41995 0.87296 0.23494 0.0
O263 O 0.46558 0.87727 0.30664 0.0
O264 O 0.48863 0.90923 0.28715 0.0
O265 O 0.47313 0.9577 0.34284 0.0
O266 O 0.40081 0.96042 0.2084 0.0
O267 O 0.43635 0.95819 0.37558 0.0
O268 O 0.40187 0.97419 0.28436 0.0
C269 C 0.46922 0.95272 0.17834 0.0
C270 C 0.38821 0.90294 0.35834 0.0
C271 C 0.48642 0.88689 0.29843 0.0
C272 C 0.41096 0.87849 0.19372 0.0
C273 C 0.45898 0.96285 0.37797 0.0
C274 C 0.39621 0.9769 0.23979 0.0
O275 O 0.47696 0.95629 0.22146 0.0
O276 O 0.19163 0.29694 0.63202 0.0
Zn277 Zn 0.18065 0.32309 0.58821 0.0
O278 O 0.17556 0.30949 0.52411 0.0
Zn279 Zn 0.14106 0.31087 0.50865 0.0
Zn280 Zn 0.18776 0.27663 0.52202 0.0
Zn281 Zn 0.19468 0.32771 0.47843 0.0
O282 O 0.13545 0.33738 0.4574 0.0
O283 O 0.17304 0.35179 0.44636 0.0
O284 O 0.1501 0.336 0.61964 0.0
O285 O 0.12256 0.32203 0.56761 0.0
O286 O 0.12732 0.27657 0.49598 0.0
O287 O 0.15957 0.2545 0.51719 0.0
O288 O 0.20751 0.26997 0.4622 0.0
O289 O 0.20915 0.34612 0.58925 0.0
O290 O 0.20876 0.30612 0.42658 0.0
O291 O 0.22249 0.34424 0.51314 0.0
C292 C 0.20289 0.27702 0.62574 0.0
C293 C 0.15017 0.35295 0.43909 0.0
C294 C 0.13731 0.25603 0.50508 0.0
C295 C 0.12801 0.33207 0.60793 0.0
C296 C 0.21332 0.2834 0.42641 0.0
C297 C 0.22525 0.3508 0.55727 0.0
O298 O 0.20562 0.26776 0.58359 0.0
O299 O 0.94334 0.94243 0.38538 0.0
Zn300 Zn 0.91762 0.93012 0.34138 0.0
O301 O 0.93178 0.92506 0.27751 0.0
Zn302 Zn 0.92979 0.89068 0.26068 0.0
Zn303 Zn 0.9648 0.93708 0.27588 0.0
Zn304 Zn 0.91425 0.94458 0.23172 0.0
O305 O 0.90327 0.88582 0.20879 0.0
O306 O 0.88991 0.92381 0.19808 0.0
O307 O 0.90607 0.89891 0.37321 0.0
O308 O 0.91884 0.87172 0.31925 0.0
O309 O 0.96385 0.87684 0.24706 0.0
O310 O 0.98641 0.90864 0.26962 0.0
O311 O 0.97192 0.95741 0.21678 0.0
O312 O 0.89338 0.95791 0.3414 0.0
O313 O 0.93593 0.95871 0.18068 0.0
O314 O 0.89849 0.97239 0.26673 0.0
C315 C 0.96383 0.95276 0.37987 0.0
C316 C 0.88829 0.90102 0.19008 0.0
C317 C 0.98452 0.88654 0.25634 0.0
C318 C 0.90964 0.87687 0.36046 0.0
C319 C 0.95857 0.96337 0.18091 0.0
C320 C 0.8904 0.97465 0.30985 0.0
O321 O 0.97389 0.95433 0.33827 0.0
O322 O 0.29561 0.69059 0.13024 0.0
Zn323 Zn 0.30983 0.66619 0.08578 0.0
O324 O 0.31517 0.68156 0.02339 0.0
Zn325 Zn 0.3496 0.68118 0.00812 0.0
Zn326 Zn 0.30162 0.71398 0.02229 0.0
Zn327 Zn 0.29715 0.66365 0.97624 0.0
O328 O 0.35613 0.65556 0.95509 0.0
O329 O 0.31899 0.63996 0.94427 0.0
O330 O 0.34095 0.65542 0.11861 0.0
O331 O 0.3682 0.66999 0.06682 0.0
O332 O 0.36214 0.71603 -0.00204 0.0
O333 O 0.32929 0.73706 0.02007 0.0
O334 O 0.28178 0.72071 0.96194 0.0
O335 O 0.28328 0.64072 0.08275 0.0
O336 O 0.28423 0.68513 0.92426 0.0
O337 O 0.26881 0.6475 0.00859 0.0
C338 C 0.28416 0.71048 0.12483 0.0
C339 C 0.3418 0.63969 0.93633 0.0
C340 C 0.35166 0.73618 0.00842 0.0
C341 C 0.36295 0.65995 0.10713 0.0
C342 C 0.27799 0.70738 0.92475 0.0
C343 C 0.26656 0.63839 0.05086 0.0
O344 O 0.2828 0.72102 0.08367 0.0
O345 O 0.55197 0.05142 0.88849 0.0
Zn346 Zn 0.57654 0.06402 0.84332 0.0
O347 O 0.56132 0.06826 0.78041 0.0
Zn348 Zn 0.56335 0.1024 0.76148 0.0
Zn349 Zn 0.52825 0.05638 0.78089 0.0
Zn350 Zn 0.57838 0.04795 0.73556 0.0
O351 O 0.58981 0.10638 0.70885 0.0
O352 O 0.60282 0.06811 0.70209 0.0
O353 O 0.58782 0.0956 0.87369 0.0
O354 O 0.57452 0.12222 0.81923 0.0
O355 O 0.52914 0.11597 0.74763 0.0
O356 O 0.50672 0.08484 0.77405 0.0
O357 O 0.52048 0.03539 0.7226 0.0
O358 O 0.60096 0.03651 0.84397 0.0
O359 O 0.55621 0.03342 0.68559 0.0
O360 O 0.59469 0.02065 0.77074 0.0
C361 C 0.53142 0.04105 0.88499 0.0
C362 C 0.60493 0.09065 0.69234 0.0
C363 C 0.50855 0.10659 0.7587 0.0
C364 C 0.584 0.11749 0.86042 0.0
C365 C 0.53352 0.02893 0.6866 0.0
C366 C 0.60354 0.01922 0.81339 0.0
O367 O 0.52017 0.03969 0.84451 0.0
H368 H 0.25277 0.13047 0.90074 0.0
H369 H 0.23034 0.12335 0.05062 0.0
H370 H 0.21126 0.12227 0.87431 0.0
H371 H 0.18873 0.11491 0.02376 0.0
H372 H 0.12641 0.07199 0.94009 0.0
H373 H 0.16602 0.08213 0.97482 0.0
H374 H 0.17036 0.14514 0.88171 0.0
H375 H 0.13042 0.1351 0.84716 0.0
C376 C 0.23913 0.12669 0.92808 0.0
C377 C 0.24495 0.1275 0.97788 0.0
C378 C 0.21526 0.12237 0.91288 0.0
C379 C 0.19672 0.1184 0.94702 0.0
C380 C 0.20267 0.11805 0.9967 0.0
C381 C 0.22652 0.12274 0.01201 0.0
C382 C 0.13557 0.08835 0.92788 0.0
C383 C 0.12538 0.10277 0.89092 0.0
C384 C 0.15823 0.09412 0.94776 0.0
C385 C 0.17138 0.1142 0.93047 0.0
C386 C 0.16068 0.12936 0.89523 0.0
C387 C 0.13775 0.12381 0.87591 0.0
H388 H 0.60781 0.3721 0.14225 0.0
H389 H 0.68329 0.39454 0.14319 0.0
H390 H 0.59671 0.41094 0.18082 0.0
H391 H 0.67206 0.43287 0.18046 0.0
H392 H 0.63439 0.50929 0.17539 0.0
H393 H 0.64639 0.46898 0.1462 0.0
H394 H 0.60623 0.4355 0.26301 0.0
H395 H 0.59452 0.47574 0.29292 0.0
C396 C 0.622 0.38508 0.15102 0.0
C397 C 0.64639 0.38018 0.13922 0.0
C398 C 0.61567 0.40724 0.1731 0.0
C399 C 0.63357 0.4249 0.18304 0.0
C400 C 0.65791 0.41969 0.17261 0.0
C401 C 0.66427 0.39759 0.15134 0.0
C402 C 0.62847 0.49337 0.19533 0.0
C403 C 0.61365 0.49574 0.23661 0.0
C404 C 0.63526 0.47033 0.17856 0.0
C405 C 0.62702 0.44921 0.20222 0.0
C406 C 0.6126 0.45152 0.24394 0.0
C407 C 0.60618 0.47457 0.26129 0.0
H408 H 0.34983 0.93159 0.38273 0.0
H409 H 0.37499 0.85705 0.39034 0.0
H410 H 0.31114 0.91961 0.41697 0.0
H411 H 0.33569 0.84516 0.42573 0.0
H412 H 0.2697 0.84371 0.53483 0.0
H413 H 0.30981 0.85515 0.50457 0.0
H414 H 0.27632 0.89248 0.384 0.0
H415 H 0.23608 0.88082 0.41371 0.0
C416 C 0.34727 0.91261 0.39204 0.0
C417 C 0.36562 0.89522 0.38342 0.0
C418 C 0.32495 0.90581 0.41148 0.0
C419 C 0.32039 0.88149 0.42347 0.0
C420 C 0.33886 0.86409 0.4167 0.0
C421 C 0.36129 0.87087 0.39647 0.0
C422 C 0.27082 0.8546 0.50214 0.0
C423 C 0.24965 0.8615 0.47678 0.0
C424 C 0.29382 0.86087 0.48462 0.0
C425 C 0.2961 0.87452 0.44191 0.0
C426 C 0.27499 0.88196 0.41716 0.0
C427 C 0.25199 0.87535 0.43421 0.0
H428 H 0.80927 0.59924 0.63493 0.0
H429 H 0.8843 0.62274 0.64324 0.0
H430 H 0.82001 0.56085 0.67224 0.0
H431 H 0.89493 0.58381 0.68166 0.0
H432 H 0.89569 0.51928 0.79284 0.0
H433 H 0.8843 0.55924 0.7615 0.0
H434 H 0.84624 0.52485 0.64248 0.0
H435 H 0.85788 0.4848 0.67322 0.0
C436 C 0.82809 0.5964 0.64508 0.0
C437 C 0.84598 0.61419 0.63575 0.0
C438 C 0.83418 0.57424 0.66631 0.0
C439 C 0.85827 0.56931 0.67946 0.0
C440 C 0.87616 0.58726 0.6719 0.0
C441 C 0.8701 0.60949 0.64987 0.0
C442 C 0.88456 0.52017 0.76039 0.0
C443 C 0.87759 0.49879 0.7356 0.0
C444 C 0.87832 0.54308 0.74222 0.0
C445 C 0.8646 0.5451 0.69945 0.0
C446 C 0.85683 0.52378 0.67564 0.0
C447 C 0.86342 0.50086 0.6933 0.0
H448 H 0.74043 0.86232 0.14957 0.0
H449 H 0.7628 0.87211 0.00026 0.0
H450 H 0.78166 0.87134 0.17669 0.0
H451 H 0.80413 0.88151 0.02789 0.0
H452 H 0.86512 0.92473 0.11693 0.0
H453 H 0.82567 0.91468 0.08115 0.0
H454 H 0.8232 0.84868 0.16587 0.0
H455 H 0.86294 0.85856 0.20131 0.0
C456 C 0.75398 0.86689 0.12254 0.0
C457 C 0.74827 0.86655 0.07268 0.0
C458 C 0.77768 0.87171 0.13811 0.0
C459 C 0.79611 0.87668 0.1043 0.0
C460 C 0.79024 0.87758 0.05464 0.0
C461 C 0.76658 0.87233 0.03891 0.0
C462 C 0.85639 0.9078 0.1271 0.0
C463 C 0.86704 0.89242 0.16197 0.0
C464 C 0.83385 0.90208 0.10661 0.0
C465 C 0.82131 0.88111 0.12126 0.0
C466 C 0.83244 0.86513 0.15442 0.0
C467 C 0.85525 0.87062 0.17427 0.0
H468 H 0.37217 0.5133 0.75008 0.0
H469 H 0.3853 0.49341 0.89984 0.0
H470 H 0.36289 0.55493 0.77587 0.0
H471 H 0.37621 0.5349 0.92514 0.0
H472 H 0.38524 0.61621 0.94823 0.0
H473 H 0.39653 0.57668 0.9134 0.0
H474 H 0.33079 0.5766 0.82744 0.0
H475 H 0.31945 0.61585 0.86234 0.0
C476 C 0.37276 0.51768 0.78847 0.0
C477 C 0.37943 0.49997 0.82286 0.0
C478 C 0.36758 0.54153 0.80314 0.0
C479 C 0.36931 0.54819 0.85236 0.0
C480 C 0.37525 0.53036 0.88684 0.0
C481 C 0.3801 0.5065 0.87233 0.0
C482 C 0.37358 0.60802 0.92094 0.0
C483 C 0.35144 0.61898 0.90812 0.0
C484 C 0.37987 0.58533 0.90145 0.0
C485 C 0.36433 0.57349 0.86826 0.0
C486 C 0.34309 0.58531 0.85291 0.0
C487 C 0.33662 0.60774 0.87292 0.0
H488 H 0.64099 0.06136 0.65825 0.0
H489 H 0.61892 0.13692 0.66445 0.0
H490 H 0.67935 0.07316 0.62199 0.0
H491 H 0.65772 0.1486 0.62691 0.0
H492 H 0.72208 0.15245 0.51473 0.0
H493 H 0.68198 0.14065 0.5446 0.0
H494 H 0.71567 0.09808 0.65777 0.0
H495 H 0.75591 0.11015 0.62857 0.0
C496 C 0.64412 0.08052 0.65143 0.0
C497 C 0.62682 0.09824 0.66475 0.0
C498 C 0.66623 0.08721 0.63079 0.0
C499 C 0.67154 0.11174 0.62222 0.0
C500 C 0.65396 0.12951 0.63325 0.0
C501 C 0.6318 0.12283 0.65468 0.0
C502 C 0.721 0.14033 0.54565 0.0
C503 C 0.74222 0.13211 0.56919 0.0
C504 C 0.69802 0.13382 0.56295 0.0
C505 C 0.6958 0.11861 0.60351 0.0
C506 C 0.71695 0.10981 0.62626 0.0
C507 C 0.73995 0.11667 0.60953 0.0
H508 H 0.17364 0.37967 0.37058 0.0
H509 H 0.10619 0.37553 0.4505 0.0
H510 H 0.16194 0.41942 0.339 0.0
H511 H 0.09451 0.41553 0.4189 0.0
H512 H 0.10144 0.49948 0.40898 0.0
H513 H 0.11199 0.45821 0.43406 0.0
H514 H 0.1304 0.44007 0.28587 0.0
H515 H 0.11978 0.48131 0.26053 0.0
C516 C 0.1561 0.38708 0.38067 0.0
C517 C 0.14084 0.37453 0.41309 0.0
C518 C 0.14942 0.40983 0.36256 0.0
C519 C 0.12749 0.42067 0.37702 0.0
C520 C 0.11169 0.40768 0.40772 0.0
C521 C 0.11822 0.3847 0.4253 0.0
C522 C 0.10808 0.48683 0.38182 0.0
C523 C 0.10983 0.49372 0.33275 0.0
C524 C 0.11379 0.46311 0.39611 0.0
C525 C 0.12167 0.44587 0.36177 0.0
C526 C 0.12431 0.45298 0.31306 0.0
C527 C 0.1183 0.47661 0.29863 0.0
H528 H 0.62566 0.63845 0.34827 0.0
H529 H 0.62717 0.57258 0.43373 0.0
H530 H 0.66547 0.64995 0.38126 0.0
H531 H 0.66674 0.58412 0.46668 0.0
H532 H 0.72924 0.62607 0.54413 0.0
H533 H 0.68788 0.61619 0.51812 0.0
H534 H 0.70763 0.63104 0.3693 0.0
H535 H 0.74898 0.64085 0.39501 0.0
C536 C 0.63419 0.62676 0.37498 0.0
C537 C 0.62337 0.6046 0.38832 0.0
C538 C 0.65707 0.63318 0.39338 0.0
C539 C 0.66929 0.61774 0.42601 0.0
C540 C 0.65775 0.59636 0.44163 0.0
C541 C 0.6351 0.58977 0.42273 0.0
C542 C 0.72486 0.62693 0.50578 0.0
C543 C 0.74245 0.63417 0.47164 0.0
C544 C 0.70116 0.62135 0.49097 0.0
C545 C 0.69449 0.62322 0.44182 0.0
C546 C 0.71219 0.62988 0.40754 0.0
C547 C 0.73596 0.63515 0.42223 0.0
H548 H 0.10801 0.87101 0.64131 0.0
H549 H 0.18358 0.89306 0.63913 0.0
H550 H 0.09752 0.90979 0.68075 0.0
H551 H 0.17297 0.93134 0.67741 0.0
H552 H 0.13599 0.00801 0.67656 0.0
H553 H 0.14757 0.96784 0.64602 0.0
H554 H 0.10757 0.93382 0.76243 0.0
H555 H 0.09625 0.97392 0.79363 0.0
C556 C 0.12235 0.88391 0.64954 0.0
C557 C 0.14659 0.87888 0.63674 0.0
C558 C 0.11637 0.90604 0.67215 0.0
C559 C 0.13447 0.92356 0.68163 0.0
C560 C 0.15866 0.91827 0.66999 0.0
C561 C 0.16467 0.8962 0.64816 0.0
C562 C 0.13002 0.99199 0.69613 0.0
C563 C 0.11533 0.99419 0.73765 0.0
C564 C 0.13658 0.96903 0.6786 0.0
C565 C 0.12825 0.9478 0.70172 0.0
C566 C 0.114 0.94992 0.74374 0.0
C567 C 0.1078 0.9729 0.76182 0.0
H568 H 0.86686 0.35707 0.85171 0.0
H569 H 0.86548 0.42351 0.93596 0.0
H570 H 0.82715 0.34576 0.88508 0.0
H571 H 0.82599 0.41217 0.9693 0.0
H572 H 0.76328 0.37055 0.04669 0.0
H573 H 0.80471 0.3803 0.02109 0.0
H574 H 0.78515 0.36507 0.87209 0.0
H575 H 0.74376 0.35541 0.89736 0.0
C576 C 0.85839 0.36891 0.87828 0.0
C577 C 0.86917 0.3912 0.8911 0.0
C578 C 0.83557 0.3626 0.8969 0.0
C579 C 0.8234 0.37829 0.92919 0.0
C580 C 0.83496 0.39976 0.94447 0.0
C581 C 0.85754 0.40623 0.92536 0.0
C582 C 0.76772 0.36961 0.00839 0.0
C583 C 0.7502 0.36226 0.97406 0.0
C584 C 0.79145 0.37509 0.99382 0.0
C585 C 0.79818 0.37303 0.94477 0.0
C586 C 0.78053 0.36635 0.91029 0.0
C587 C 0.75674 0.36117 0.92471 0.0
H588 H 0.39497 0.99425 0.14691 0.0
H589 H 0.37789 0.01411 0.29515 0.0
H590 H 0.38467 0.03529 0.12044 0.0
H591 H 0.36747 0.05521 0.26831 0.0
H592 H 0.32222 0.11328 0.17998 0.0
H593 H 0.33514 0.07462 0.21481 0.0
H594 H 0.40187 0.07831 0.13256 0.0
H595 H 0.38896 0.11726 0.0977 0.0
C596 C 0.38872 0.00725 0.17379 0.0
C597 C 0.38714 0.00085 0.22315 0.0
C598 C 0.38316 0.03086 0.15867 0.0
C599 C 0.37561 0.04849 0.19244 0.0
C600 C 0.37332 0.04196 0.24156 0.0
C601 C 0.3792 0.01842 0.25684 0.0
C602 C 0.33988 0.10609 0.17007 0.0
C603 C 0.35456 0.1182 0.13597 0.0
C604 C 0.34727 0.08399 0.19009 0.0
C605 C 0.36935 0.07336 0.17591 0.0
C606 C 0.38461 0.08602 0.14362 0.0
C607 C 0.37737 0.10839 0.1241 0.0
H608 H 0.36366 0.42278 0.61523 0.0
H609 H 0.36532 0.35632 0.69874 0.0
H610 H 0.32466 0.41083 0.58 0.0
H611 H 0.32602 0.34445 0.66367 0.0
H612 H 0.2425 0.35424 0.65008 0.0
H613 H 0.28374 0.36405 0.67591 0.0
H614 H 0.30392 0.37811 0.52705 0.0
H615 H 0.26257 0.36803 0.50072 0.0
C616 C 0.35589 0.40536 0.62526 0.0
C617 C 0.36745 0.39049 0.65984 0.0
C618 C 0.3336 0.39855 0.60505 0.0
C619 C 0.32222 0.3769 0.61962 0.0
C620 C 0.33434 0.36139 0.6523 0.0
C621 C 0.3569 0.36803 0.67194 0.0
C622 C 0.25557 0.35973 0.62278 0.0
C623 C 0.24917 0.36039 0.57327 0.0
C624 C 0.27929 0.36501 0.63759 0.0
C625 C 0.29709 0.37141 0.60338 0.0
C626 C 0.29055 0.37308 0.55411 0.0
C627 C 0.26686 0.36743 0.53913 0.0
H628 H 0.81134 0.0984 0.42399 0.0
H629 H 0.88517 0.12471 0.40908 0.0
H630 H 0.82314 0.05956 0.38969 0.0
H631 H 0.89684 0.08526 0.37357 0.0
H632 H 0.89621 0.01848 0.26475 0.0
H633 H 0.88483 0.05867 0.29533 0.0
H634 H 0.852 0.0254 0.42116 0.0
H635 H 0.86369 0.98512 0.39121 0.0
C636 C 0.83011 0.09606 0.41299 0.0
C637 C 0.84736 0.1148 0.41948 0.0
C638 C 0.83681 0.07365 0.39355 0.0
C639 C 0.86086 0.06939 0.37938 0.0
C640 C 0.87812 0.08821 0.38425 0.0
C641 C 0.87146 0.11071 0.40457 0.0
C642 C 0.88628 0.01966 0.29867 0.0
C643 C 0.8807 -0.00144 0.32545 0.0
C644 C 0.88007 0.04271 0.31635 0.0
C645 C 0.86775 0.04508 0.36067 0.0
C646 C 0.86152 0.02401 0.38681 0.0
C647 C 0.86811 0.00098 0.3696 0.0
H648 H 0.11936 0.63566 0.16175 0.0
H649 H 0.14218 0.56027 0.16397 0.0
H650 H 0.15803 0.64657 0.12237 0.0
H651 H 0.18024 0.57129 0.12595 0.0
H652 H 0.25643 0.6089 0.1282 0.0
H653 H 0.21627 0.59762 0.15891 0.0
H654 H 0.18235 0.63587 0.04 0.0
H655 H 0.22247 0.64685 0.00858 0.0
C656 C 0.13239 0.62146 0.15356 0.0
C657 C 0.12765 0.59716 0.16647 0.0
C658 C 0.15444 0.62767 0.13102 0.0
C659 C 0.17212 0.60973 0.12173 0.0
C660 C 0.16705 0.58548 0.13331 0.0
C661 C 0.1451 0.57924 0.15505 0.0
C662 C 0.24044 0.61456 0.10816 0.0
C663 C 0.24265 0.62859 0.0658 0.0
C664 C 0.21749 0.6082 0.12581 0.0
C665 C 0.1963 0.61611 0.10196 0.0
C666 C 0.19844 0.62979 0.05923 0.0
C667 C 0.22141 0.63577 0.04102 0.0
H668 H 0.60774 0.87968 0.95608 0.0
H669 H 0.67244 0.87896 0.86726 0.0
H670 H 0.59696 0.91967 0.92296 0.0
H671 H 0.66163 0.91865 0.83409 0.0
H672 H 0.61976 0.98147 0.75724 0.0
H673 H 0.62926 0.94013 0.78384 0.0
H674 H 0.61753 0.96157 0.93301 0.0
H675 H 0.60814 0.00293 0.90668 0.0
C676 C 0.61927 0.88775 0.92856 0.0
C677 C 0.64092 0.87628 0.91425 0.0
C678 C 0.61329 0.91073 0.9101 0.0
C679 C 0.62866 0.92235 0.87647 0.0
C680 C 0.64947 0.91013 0.85993 0.0
C681 C 0.65563 0.88742 0.8789 0.0
C682 C 0.61959 0.97747 0.79578 0.0
C683 C 0.61329 0.99552 0.82985 0.0
C684 C 0.62492 0.95379 0.81093 0.0
C685 C 0.62372 0.9476 0.86037 0.0
C686 C 0.61815 0.96578 0.89457 0.0
C687 C 0.61315 0.98954 0.87952 0.0
H688 H 0.36149 0.14529 0.84247 0.0
H689 H 0.41382 0.16585 0.95252 0.0
H690 H 0.39458 0.13894 0.78464 0.0
H691 H 0.44668 0.15896 0.89551 0.0
H692 H 0.50432 0.15392 0.78867 0.0
H693 H 0.4674 0.17187 0.82297 0.0
H694 H 0.42604 0.10947 0.7741 0.0
H695 H 0.46258 0.09213 0.73899 0.0
C696 C 0.38001 0.14837 0.85442 0.0
C697 C 0.38497 0.15581 0.90237 0.0
C698 C 0.39899 0.14483 0.8212 0.0
C699 C 0.42334 0.1486 0.8352 0.0
C700 C 0.42818 0.15642 0.88294 0.0
C701 C 0.40928 0.16002 0.91599 0.0
C702 C 0.4871 0.1447 0.78323 0.0
C703 C 0.48632 0.12152 0.76177 0.0
C704 C 0.466 0.15475 0.80357 0.0
C705 C 0.44387 0.14176 0.80261 0.0
C706 C 0.44267 0.12001 0.77575 0.0
C707 C 0.46368 0.11002 0.75556 0.0
H708 H 0.57635 0.66451 0.20198 0.0
H709 H 0.60058 0.61121 0.09687 0.0
H710 H 0.58496 0.69689 0.14485 0.0
H711 H 0.60875 0.64385 0.03889 0.0
H712 H 0.65607 0.712 0.99598 0.0
H713 H 0.63841 0.67571 0.03156 0.0
H714 H 0.57398 0.71652 0.06954 0.0
H715 H 0.59216 0.75323 0.03484 0.0
C716 C 0.58336 0.65964 0.1665 0.0
C717 C 0.58805 0.6352 0.15433 0.0
C718 C 0.58798 0.67826 0.13335 0.0
C719 C 0.59735 0.67303 0.08699 0.0
C720 C 0.60164 0.64855 0.07439 0.0
C721 C 0.59704 0.62984 0.10769 0.0
C722 C 0.63778 0.71305 0.01045 0.0
C723 C 0.62567 0.73554 0.0134 0.0
C724 C 0.62759 0.69217 0.03081 0.0
C725 C 0.60502 0.69331 0.05458 0.0
C726 C 0.59169 0.7152 0.05254 0.0
C727 C 0.60192 0.73616 0.03202 0.0
H728 H 0.03056 0.90038 0.23544 0.0
H729 H 0.98862 0.84004 0.29058 0.0
H730 H 0.06701 0.88393 0.27273 0.0
H731 H 0.02541 0.82305 0.32722 0.0
H732 H 0.07876 0.83221 0.45649 0.0
H733 H 0.04595 0.83849 0.39892 0.0
H734 H 0.09828 0.85409 0.28611 0.0
H735 H 0.13135 0.84826 0.34431 0.0
C736 C 0.0294 0.88295 0.2537 0.0
C737 C 0.00673 0.87166 0.26073 0.0
C738 C 0.05034 0.8735 0.27518 0.0
C739 C 0.04902 0.85252 0.30417 0.0
C740 C 0.02688 0.8396 0.30611 0.0
C741 C 0.00586 0.84908 0.28443 0.0
C742 C 0.08337 0.83699 0.41945 0.0
C743 C 0.10775 0.84 0.40527 0.0
C744 C 0.0645 0.84022 0.38614 0.0
C745 C 0.06944 0.84649 0.33762 0.0
C746 C 0.09383 0.84932 0.32323 0.0
C747 C 0.11278 0.84611 0.35667 0.0
H748 H 0.90201 0.23946 0.54084 0.0
H749 H 0.84088 0.2818 0.49083 0.0
H750 H 0.91989 0.27613 0.57681 0.0
H751 H 0.85815 0.31808 0.5276 0.0
H752 H 0.89464 0.3824 0.59684 0.0
H753 H 0.88778 0.34933 0.53889 0.0
H754 H 0.90712 0.29698 0.64936 0.0
H755 H 0.91454 0.32981 0.70651 0.0
C756 C 0.89291 0.25676 0.53576 0.0
C757 C 0.86995 0.25776 0.51356 0.0
C758 C 0.90291 0.27771 0.55707 0.0
C759 C 0.89011 0.29995 0.55635 0.0
C760 C 0.86855 0.30137 0.52906 0.0
C761 C 0.85861 0.28051 0.50791 0.0
C762 C 0.89745 0.36382 0.60869 0.0
C763 C 0.90489 0.3588 0.65655 0.0
C764 C 0.89361 0.34486 0.57539 0.0
C765 C 0.89705 0.32043 0.58923 0.0
C766 C 0.90482 0.31552 0.63692 0.0
C767 C 0.90873 0.33442 0.67004 0.0
H768 H 0.57957 0.82912 0.09648 0.0
H769 H 0.6324 0.84691 0.20747 0.0
H770 H 0.54688 0.83616 0.15396 0.0
H771 H 0.59953 0.85332 0.26567 0.0
H772 H 0.53293 0.90009 0.31736 0.0
H773 H 0.56881 0.88304 0.27909 0.0
H774 H 0.52589 0.82269 0.22558 0.0
H775 H 0.48963 0.84037 0.26303 0.0
C776 C 0.58425 0.83438 0.13329 0.0
C777 C 0.60866 0.83775 0.14709 0.0
C778 C 0.56544 0.83807 0.16658 0.0
C779 C 0.57048 0.84512 0.21473 0.0
C780 C 0.59494 0.84807 0.22882 0.0
C781 C 0.6138 0.84448 0.19538 0.0
C782 C 0.53133 0.88269 0.29897 0.0
C783 C 0.50842 0.87174 0.29259 0.0
C784 C 0.55197 0.87287 0.27694 0.0
C785 C 0.55017 0.85181 0.24805 0.0
C786 C 0.52777 0.8393 0.24652 0.0
C787 C 0.50704 0.84918 0.2687 0.0
H788 H 0.33696 0.28165 0.0536 0.0
H789 H 0.40061 0.24091 0.01106 0.0
H790 H 0.35385 0.31809 0.01703 0.0
H791 H 0.41797 0.27774 0.97521 0.0
H792 H 0.39134 0.38296 0.95146 0.0
H793 H 0.38361 0.35002 0.00894 0.0
H794 H 0.40546 0.29747 0.9004 0.0
H795 H 0.41362 0.33018 0.84359 0.0
C796 C 0.35505 0.28075 0.0381 0.0
C797 C 0.36731 0.25837 0.03449 0.0
C798 C 0.36478 0.3017 0.01714 0.0
C799 C 0.387 0.30071 0.99208 0.0
C800 C 0.40052 0.27893 0.99328 0.0
C801 C 0.39077 0.25791 0.01445 0.0
C802 C 0.39449 0.36437 0.9399 0.0
C803 C 0.40287 0.35924 0.89269 0.0
C804 C 0.39016 0.3455 0.97293 0.0
C805 C 0.39412 0.32109 0.95949 0.0
C806 C 0.40275 0.31605 0.91246 0.0
C807 C 0.40708 0.33485 0.87955 0.0
H808 H 0.86059 0.14337 0.70411 0.0
H809 H 0.91285 0.16457 0.59481 0.0
H810 H 0.89379 0.13581 0.76121 0.0
H811 H 0.9458 0.15655 0.65116 0.0
H812 H 0.96162 0.08907 0.80714 0.0
H813 H 0.92531 0.10604 0.77029 0.0
H814 H 0.96649 0.169 0.72459 0.0
H815 H 0.0032 0.15149 0.76069 0.0
C816 C 0.87912 0.14633 0.69216 0.0
C817 C 0.884 0.15435 0.64464 0.0
C818 C 0.89816 0.14208 0.72496 0.0
C819 C 0.92252 0.14574 0.711 0.0
C820 C 0.9273 0.15406 0.66367 0.0
C821 C 0.90834 0.15833 0.63101 0.0
C822 C 0.96275 0.10694 0.79068 0.0
C823 C 0.98531 0.1188 0.7862 0.0
C824 C 0.94186 0.11673 0.76955 0.0
C825 C 0.94306 0.13862 0.74338 0.0
C826 C 0.96509 0.15179 0.74351 0.0
C827 C 0.98606 0.14197 0.76485 0.0
H828 H 0.09361 0.61352 0.45766 0.0
H829 H 0.08167 0.66483 0.34118 0.0
H830 H 0.09915 0.64727 0.51449 0.0
H831 H 0.08777 0.69837 0.39748 0.0
H832 H 0.08879 0.75735 0.50335 0.0
H833 H 0.07168 0.72065 0.466 0.0
H834 H 0.12921 0.67776 0.5301 0.0
H835 H 0.1457 0.71416 0.56798 0.0
C836 C 0.09235 0.63196 0.44405 0.0
C837 C 0.08743 0.63641 0.39467 0.0
C838 C 0.0954 0.65133 0.47672 0.0
C839 C 0.09367 0.6756 0.46078 0.0
C840 C 0.08864 0.67997 0.41143 0.0
C841 C 0.08552 0.66067 0.37888 0.0
C842 C 0.09696 0.73987 0.51144 0.0
C843 C 0.11864 0.73857 0.53822 0.0
C844 C 0.08747 0.71889 0.48931 0.0
C845 C 0.0995 0.69634 0.49384 0.0
C846 C 0.11945 0.69473 0.52562 0.0
C847 C 0.12891 0.71562 0.54753 0.0
H848 H 0.86145 0.64537 0.34555 0.0
H849 H 0.91398 0.66011 0.45889 0.0
H850 H 0.89456 0.63892 0.28784 0.0
H851 H 0.94686 0.65319 0.40173 0.0
H852 H 0.00429 0.65189 0.29254 0.0
H853 H 0.96782 0.66867 0.33083 0.0
H854 H 0.92545 0.60888 0.27329 0.0
H855 H 0.9616 0.59263 0.2344 0.0
C856 C 0.88002 0.64707 0.3583 0.0
C857 C 0.88499 0.65306 0.40706 0.0
C858 C 0.89901 0.64348 0.32512 0.0
C859 C 0.92342 0.64579 0.33991 0.0
C860 C 0.92832 0.65184 0.38864 0.0
C861 C 0.9094 0.65545 0.42171 0.0
C862 C 0.98695 0.64306 0.28612 0.0
C863 C 0.9858 0.62084 0.2609 0.0
C864 C 0.96612 0.6524 0.3088 0.0
C865 C 0.94383 0.63972 0.30637 0.0
C866 C 0.94223 0.61913 0.27616 0.0
C867 C 0.96299 0.6098 0.2537 0.0
H868 H 0.09033 0.25175 0.53696 0.0
H869 H 0.15203 0.20971 0.48859 0.0
H870 H 0.07284 0.21519 0.57364 0.0
H871 H 0.13513 0.17355 0.52612 0.0
H872 H 0.09885 0.10942 0.59657 0.0
H873 H 0.10565 0.14205 0.53789 0.0
H874 H 0.08594 0.19521 0.64692 0.0
H875 H 0.07863 0.16283 0.70479 0.0
C876 C 0.09966 0.23453 0.53243 0.0
C877 C 0.12268 0.23363 0.51052 0.0
C878 C 0.08987 0.21365 0.55413 0.0
C879 C 0.10293 0.19156 0.5541 0.0
C880 C 0.12454 0.19016 0.52707 0.0
C881 C 0.13428 0.21096 0.50551 0.0
C882 C 0.09594 0.12808 0.60794 0.0
C883 C 0.08841 0.13346 0.65561 0.0
C884 C 0.09975 0.14679 0.57423 0.0
C885 C 0.09616 0.17131 0.58745 0.0
C886 C 0.08834 0.17657 0.63495 0.0
C887 C 0.08449 0.15794 0.66849 0.0
H888 H 0.57928 0.33413 0.95944 0.0
H889 H 0.6319 0.35219 0.84855 0.0
H890 H 0.54646 0.34182 0.90243 0.0
H891 H 0.59886 0.35949 0.79102 0.0
H892 H 0.48973 0.34382 0.79076 0.0
H893 H 0.52631 0.32727 0.82902 0.0
H894 H 0.56736 0.38962 0.77984 0.0
H895 H 0.53112 0.40573 0.741 0.0
C896 C 0.5839 0.33969 0.92284 0.0
C897 C 0.6083 0.34277 0.90883 0.0
C898 C 0.56502 0.34375 0.88985 0.0
C899 C 0.56999 0.35098 0.84188 0.0
C900 C 0.59439 0.35399 0.82772 0.0
C901 C 0.61333 0.34991 0.86079 0.0
C902 C 0.50682 0.35339 0.78629 0.0
C903 C 0.50753 0.37619 0.76339 0.0
C904 C 0.5277 0.34413 0.80888 0.0
C905 C 0.54961 0.35746 0.80864 0.0
C906 C 0.55085 0.37887 0.78093 0.0
C907 C 0.53003 0.38813 0.75859 0.0
H908 H 0.33593 0.78264 -0.00211 0.0
H909 H 0.39894 0.7405 0.03867 0.0
H910 H 0.35351 0.81852 0.03594 0.0
H911 H 0.41692 0.77672 0.07619 0.0
H912 H 0.4145 0.82942 0.20833 0.0
H913 H 0.40498 0.79679 0.15172 0.0
H914 H 0.38445 0.8497 0.04325 0.0
H915 H 0.3936 0.88255 0.10039 0.0
C916 C 0.354 0.7813 0.01341 0.0
C917 C 0.36593 0.7587 0.01584 0.0
C918 C 0.36412 0.80192 0.03523 0.0
C919 C 0.38639 0.80038 0.06009 0.0
C920 C 0.39947 0.77835 0.0582 0.0
C921 C 0.38936 0.75768 0.03607 0.0
C922 C 0.40795 0.83419 0.17244 0.0
C923 C 0.40457 0.85867 0.15919 0.0
C924 C 0.40283 0.81542 0.13967 0.0
C925 C 0.39417 0.82059 0.09271 0.0
C926 C 0.391 0.84508 0.0792 0.0
C927 C 0.39617 0.86391 0.11204 0.0
H928 H 0.07908 0.32759 0.59343 0.0
H929 H 0.13209 0.34847 0.702 0.0
H930 H 0.0465 0.33582 0.6505 0.0
H931 H 0.09928 0.35624 0.75975 0.0
H932 H 0.98986 0.34144 0.7608 0.0
H933 H 0.02633 0.32341 0.72475 0.0
H934 H 0.06806 0.38647 0.76867 0.0
H935 H 0.03197 0.40398 0.80538 0.0
C936 C 0.08383 0.33382 0.62961 0.0
C937 C 0.10825 0.33765 0.64286 0.0
C938 C 0.0651 0.33819 0.66266 0.0
C939 C 0.07023 0.34646 0.70996 0.0
C940 C 0.09468 0.34998 0.72353 0.0
C941 C 0.11348 0.34564 0.69035 0.0
C942 C 0.00708 0.35086 0.76462 0.0
C943 C 0.00807 0.37422 0.78529 0.0
C944 C 0.0279 0.34075 0.74334 0.0
C945 C 0.04998 0.35381 0.74268 0.0
C946 C 0.05144 0.37588 0.76837 0.0
C947 C 0.0307 0.38597 0.78942 0.0
H948 H 0.84617 0.77999 0.56909 0.0
H949 H 0.90352 0.73658 0.5065 0.0
H950 H 0.86258 0.81614 0.53066 0.0
H951 H 0.92061 0.77308 0.46876 0.0
H952 H 0.91151 0.82796 0.34278 0.0
H953 H 0.90526 0.79483 0.39959 0.0
H954 H 0.89217 0.84677 0.51482 0.0
H955 H 0.89782 0.88011 0.45733 0.0
C956 C 0.86302 0.77843 0.54893 0.0
C957 C 0.87343 0.75545 0.54035 0.0
C958 C 0.87245 0.7992 0.52672 0.0
C959 C 0.89255 0.79747 0.49541 0.0
C960 C 0.9047 0.77493 0.49163 0.0
C961 C 0.89522 0.75406 0.514 0.0
C962 C 0.90727 0.8324 0.3802 0.0
C963 C 0.90489 0.85677 0.39525 0.0
C964 C 0.90405 0.81333 0.41308 0.0
C965 C 0.89847 0.81803 0.46208 0.0
C966 C 0.89632 0.84243 0.47733 0.0
C967 C 0.89945 0.86157 0.44429 0.0
H968 H 0.41177 0.66492 0.09231 0.0
H969 H 0.35927 0.64471 0.20194 0.0
H970 H 0.44457 0.65787 0.14951 0.0
H971 H 0.39231 0.63818 0.25989 0.0
H972 H 0.46027 0.59188 0.30723 0.0
H973 H 0.42385 0.60868 0.27057 0.0
H974 H 0.46497 0.67126 0.22254 0.0
H975 H 0.50179 0.65388 0.25842 0.0
C976 C 0.40718 0.6591 0.12876 0.0
C977 C 0.38284 0.65509 0.14226 0.0
C978 C 0.42604 0.65542 0.1619 0.0
C979 C 0.42113 0.6477 0.20957 0.0
C980 C 0.39676 0.64402 0.22339 0.0
C981 C 0.37782 0.64765 0.1901 0.0
C982 C 0.46134 0.60967 0.29038 0.0
C983 C 0.48391 0.62141 0.28499 0.0
C984 C 0.44041 0.61935 0.26935 0.0
C985 C 0.44159 0.64102 0.24245 0.0
C986 C 0.46361 0.6542 0.24201 0.0
C987 C 0.48464 0.64447 0.26322 0.0
H988 H 0.59618 0.11476 0.95702 0.0
H989 H 0.58176 0.16636 0.8422 0.0
H990 H 0.60197 0.14831 0.01413 0.0
H991 H 0.58822 0.19977 0.89874 0.0
H992 H 0.59034 0.25829 0.00634 0.0
H993 H 0.57326 0.22176 0.96826 0.0
H994 H 0.63167 0.17887 0.02912 0.0
H995 H 0.64808 0.21503 0.06785 0.0
C996 C 0.59443 0.13324 0.94383 0.0
C997 C 0.58876 0.13782 0.89482 0.0
C998 C 0.59765 0.1525 0.97666 0.0
C999 C 0.5954 0.17681 0.96126 0.0
C1000 C 0.58954 0.18133 0.91231 0.0
C1001 C 0.5862 0.16211 0.8796 0.0
C1002 C 0.59875 0.24083 0.01349 0.0
C1003 C 0.62063 0.23949 0.03968 0.0
C1004 C 0.58927 0.21996 0.99094 0.0
C1005 C 0.60149 0.19746 0.99441 0.0
C1006 C 0.62173 0.19577 0.02544 0.0
C1007 C 0.63117 0.21655 0.04782 0.0
H1008 H 0.25585 0.25003 0.12953 0.0
H1009 H 0.27986 0.18774 0.21235 0.0
H1010 H 0.2399 0.26852 0.20355 0.0
H1011 H 0.26496 0.20658 0.28639 0.0
H1012 H 0.21419 0.23521 0.40265 0.0
H1013 H 0.2292 0.2167 0.32831 0.0
H1014 H 0.25238 0.28739 0.27709 0.0
H1015 H 0.23633 0.30605 0.35081 0.0
C1016 C 0.25777 0.24032 0.16355 0.0
C1017 C 0.26901 0.21738 0.16503 0.0
C1018 C 0.24882 0.251 0.20607 0.0
C1019 C 0.25119 0.2391 0.25108 0.0
C1020 C 0.26241 0.21611 0.25236 0.0
C1021 C 0.27105 0.20532 0.20984 0.0
C1022 C 0.22263 0.2468 0.37568 0.0
C1023 C 0.22409 0.2721 0.38265 0.0
C1024 C 0.23132 0.23616 0.33303 0.0
C1025 C 0.24202 0.25052 0.29655 0.0
C1026 C 0.24385 0.27581 0.30395 0.0
C1027 C 0.23485 0.2865 0.34641 0.0
H1028 H 0.49827 0.48952 0.66685 0.0
H1029 H 0.43537 0.46581 0.58511 0.0
H1030 H 0.51615 0.50588 0.59284 0.0
H1031 H 0.45365 0.48112 0.51084 0.0
H1032 H 0.48326 0.53135 0.3934 0.0
H1033 H 0.46431 0.51652 0.46761 0.0
H1034 H 0.53455 0.49271 0.52002 0.0
H1035 H 0.55355 0.50854 0.44683 0.0
C1036 C 0.4883 0.48776 0.63304 0.0
C1037 C 0.46542 0.47639 0.63184 0.0
C1038 C 0.49862 0.49695 0.5905 0.0
C1039 C 0.48645 0.49466 0.54567 0.0
C1040 C 0.46342 0.48354 0.54471 0.0
C1041 C 0.45296 0.47465 0.58734 0.0
C1042 C 0.4946 0.52281 0.42068 0.0
C1043 C 0.51989 0.52117 0.41436 0.0
C1044 C 0.48374 0.51424 0.46322 0.0
C1045 C 0.49789 0.50353 0.50007 0.0
C1046 C 0.52313 0.50136 0.49302 0.0
C1047 C 0.53402 0.51024 0.45083 0.0
H1048 H 0.21079 0.73489 0.64346 0.0
H1049 H 0.23625 0.80521 0.69269 0.0
H1050 H 0.22573 0.71646 0.71813 0.0
H1051 H 0.25207 0.78668 0.76643 0.0
H1052 H 0.25505 0.75133 0.91498 0.0
H1053 H 0.23876 0.76918 0.84071 0.0
H1054 H 0.26183 0.70575 0.75965 0.0
H1055 H 0.27713 0.68758 0.83394 0.0
C1056 C 0.21991 0.74634 0.66991 0.0
C1057 C 0.22231 0.77149 0.66225 0.0
C1058 C 0.22853 0.73578 0.7127 0.0
C1059 C 0.24001 0.75011 0.74846 0.0
C1060 C 0.24285 0.77519 0.74019 0.0
C1061 C 0.23398 0.78578 0.69771 0.0
C1062 C 0.25649 0.74117 0.88131 0.0
C1063 C 0.26733 0.71805 0.88037 0.0
C1064 C 0.24733 0.75146 0.83866 0.0
C1065 C 0.24908 0.73894 0.7941 0.0
C1066 C 0.25981 0.71574 0.79337 0.0
C1067 C 0.26869 0.70536 0.83602 0.0
H1068 H 0.05639 0.52692 0.0908 0.0
H1069 H 0.9915 0.50635 0.16913 0.0
H1070 H 0.03842 0.51209 0.01563 0.0
H1071 H 0.97389 0.49042 0.09429 0.0
H1072 H 0.93819 0.48844 0.94655 0.0
H1073 H 0.95696 0.5039 0.02051 0.0
H1074 H 0.0268 0.47718 0.97181 0.0
H1075 H 0.00812 0.46274 0.8968 0.0
C1076 C 0.03842 0.51884 0.0921 0.0
C1077 C 0.02533 0.51786 0.13589 0.0
C1078 C 0.02813 0.51024 0.04895 0.0
C1079 C 0.00462 0.50014 0.04869 0.0
C1080 C 0.99181 0.49858 0.09285 0.0
C1081 C 0.00197 0.50751 0.13589 0.0
C1082 C 0.95759 0.48604 0.95152 0.0
C1083 C 0.97169 0.4744 0.91587 0.0
C1084 C 0.96834 0.4947 0.99416 0.0
C1085 C 0.99338 0.49158 0.00251 0.0
C1086 C 0.00753 0.4802 0.96643 0.0
C1087 C -0.00317 0.47186 0.92343 0.0
H1088 H 0.73647 0.74182 0.9197 0.0
H1089 H 0.71643 0.80594 0.83825 0.0
H1090 H 0.75258 0.72335 0.84576 0.0
H1091 H 0.73149 0.78718 0.76428 0.0
H1092 H 0.78181 0.75737 0.64861 0.0
H1093 H 0.76713 0.77579 0.72334 0.0
H1094 H 0.7403 0.70575 0.77085 0.0
H1095 H 0.75598 0.68713 0.69676 0.0
C1096 C 0.73546 0.75195 0.88602 0.0
C1097 C 0.72526 0.77539 0.88495 0.0
C1098 C 0.74451 0.74129 0.84351 0.0
C1099 C 0.7433 0.75372 0.79887 0.0
C1100 C 0.73315 0.7772 0.79802 0.0
C1101 C 0.7244 0.78795 0.84052 0.0
C1102 C 0.77266 0.74591 0.67486 0.0
C1103 C 0.77002 0.72079 0.66666 0.0
C1104 C 0.76415 0.7565 0.71775 0.0
C1105 C 0.75248 0.7423 0.7533 0.0
C1106 C 0.74957 0.7172 0.74476 0.0
C1107 C 0.75837 0.70654 0.70206 0.0
H1108 H 0.73746 0.30967 0.19763 0.0
H1109 H 0.71363 0.23866 0.14909 0.0
H1110 H 0.75393 0.29156 0.27144 0.0
H1111 H 0.72915 0.22072 0.22352 0.0
H1112 H 0.78068 0.19198 0.33751 0.0
H1113 H 0.76557 0.21069 0.2637 0.0
H1114 H 0.7421 0.27343 0.34636 0.0
H1115 H 0.75823 0.25501 0.42033 0.0
C1116 C 0.73569 0.2902 0.20277 0.0
C1117 C 0.72434 0.27558 0.16738 0.0
C1118 C 0.74495 0.27984 0.24529 0.0
C1119 C 0.74285 0.25467 0.2536 0.0
C1120 C 0.73151 0.2401 0.21805 0.0
C1121 C 0.72251 0.2504 0.17535 0.0
C1122 C 0.77222 0.20974 0.34008 0.0
C1123 C 0.77058 0.22197 0.38489 0.0
C1124 C 0.76344 0.22045 0.29766 0.0
C1125 C 0.75248 0.24355 0.29896 0.0
C1126 C 0.75074 0.25577 0.34386 0.0
C1127 C 0.75982 0.24515 0.38634 0.0
H1128 H 0.05324 0.03127 0.96741 0.0
H1129 H 0.99072 0.00738 0.88467 0.0
H1130 H 0.03463 0.01624 0.04139 0.0
H1131 H 0.97245 0.99129 0.95873 0.0
H1132 H 0.9357 0.98689 0.10634 0.0
H1133 H 0.95397 0.00341 0.03285 0.0
H1134 H 0.02485 0.98014 0.08267 0.0
H1135 H 0.0067 0.96461 0.15691 0.0
C1136 C 0.03562 0.02249 0.9649 0.0
C1137 C 0.02348 0.02046 0.9201 0.0
C1138 C 0.02498 0.01376 0.00741 0.0
C1139 C 0.00205 0.00246 0.00616 0.0
C1140 C 0.98996 0.00024 0.96121 0.0
C1141 C 0.0005 0.00928 0.91867 0.0
C1142 C 0.95521 0.98549 0.10171 0.0
C1143 C 0.96977 0.97452 0.13751 0.0
C1144 C 0.96567 0.99476 0.05936 0.0
C1145 C 0.99089 0.99303 0.0516 0.0
C1146 C 0.00543 0.98218 0.08768 0.0
C1147 C 0.99501 0.97319 0.13026 0.0
H1148 H 0.55555 0.00285 0.61459 0.0
H1149 H 0.48546 0.02949 0.66137 0.0
H1150 H 0.53711 0.98648 0.54103 0.0
H1151 H 0.46713 0.0141 0.5868 0.0
H1152 H 0.43772 0.96457 0.46755 0.0
H1153 H 0.45546 0.97903 0.54331 0.0
H1154 H 0.52085 -0.00035 0.46641 0.0
H1155 H 0.50346 0.98415 0.39107 0.0
C1156 C 0.53618 0.00522 0.6091 0.0
C1157 C 0.52196 0.01747 0.64375 0.0
C1158 C 0.52562 0.99603 0.56669 0.0
C1159 C 0.50064 -0.00082 0.55755 0.0
C1160 C 0.48635 0.01105 0.59277 0.0
C1161 C 0.49687 0.01995 0.63554 0.0
C1162 C 0.45584 0.9723 0.46679 0.0
C1163 C 0.4692 0.97318 0.4233 0.0
C1164 C 0.46601 0.98068 0.51027 0.0
C1165 C 0.48967 0.99044 0.51119 0.0
C1166 C 0.5028 0.99176 0.46738 0.0
C1167 C 0.49276 0.98307 0.42403 0.0
H1168 H 0.2389 0.24269 0.62846 0.0
H1169 H 0.19134 0.28539 0.72015 0.0
H1170 H 0.2589 0.22648 0.70071 0.0
H1171 H 0.21076 0.26873 0.79196 0.0
H1172 H 0.26945 0.25601 0.9066 0.0
H1173 H 0.24911 0.27177 0.83422 0.0
H1174 H 0.25153 0.20014 0.76892 0.0
H1175 H 0.27237 0.18466 0.84009 0.0
C1176 C 0.23252 0.24832 0.66398 0.0
C1177 C 0.2137 0.26538 0.66869 0.0
C1178 C 0.24392 0.23905 0.70533 0.0
C1179 C 0.23651 0.24653 0.75198 0.0
C1180 C 0.21723 0.26305 0.75653 0.0
C1181 C 0.206 0.27244 0.71535 0.0
C1182 C 0.26557 0.24371 0.87676 0.0
C1183 C 0.27263 0.21921 0.87882 0.0
C1184 C 0.25387 0.25266 0.83544 0.0
C1185 C 0.24884 0.23717 0.79584 0.0
C1186 C 0.2556 0.21261 0.79839 0.0
C1187 C 0.26744 0.20375 0.83933 0.0
H1188 H 0.49697 0.49162 0.87844 0.0
H1189 H 0.45473 0.44399 0.97064 0.0
H1190 H 0.51347 0.51175 0.95051 0.0
H1191 H 0.47164 0.46357 0.04222 0.0
H1192 H 0.485 0.52189 0.15714 0.0
H1193 H 0.46884 0.50201 0.08452 0.0
H1194 H 0.54014 0.50437 0.01859 0.0
H1195 H 0.55608 0.52475 0.09013 0.0
C1196 C 0.49146 0.48527 0.91402 0.0
C1197 C 0.47447 0.46636 0.9189 0.0
C1198 C 0.50091 0.49675 0.95526 0.0
C1199 C 0.49365 0.48936 0.00201 0.0
C1200 C 0.47715 0.47003 0.00673 0.0
C1201 C 0.46761 0.45871 0.96565 0.0
C1202 C 0.49717 0.51812 0.12713 0.0
C1203 C 0.52174 0.52495 0.1293 0.0
C1204 C 0.48798 0.50667 0.08564 0.0
C1205 C 0.50325 0.50168 0.04583 0.0
C1206 C 0.52784 0.50835 0.04828 0.0
C1207 C 0.53697 0.51992 0.08947 0.0
H1208 H 0.21416 0.73248 0.40444 0.0
H1209 H 0.21803 0.80401 0.3395 0.0
H1210 H 0.23261 0.71504 0.33147 0.0
H1211 H 0.23702 0.78683 0.26788 0.0
H1212 H 0.24923 0.74595 0.12711 0.0
H1213 H 0.22829 0.76181 0.19863 0.0
H1214 H 0.27121 0.71465 0.29054 0.0
H1215 H 0.29146 0.69832 0.21936 0.0
C1216 C 0.21909 0.74445 0.3748 0.0
C1217 C 0.2146 0.76955 0.3776 0.0
C1218 C 0.22969 0.73452 0.33312 0.0
C1219 C 0.23616 0.74959 0.29386 0.0
C1220 C 0.23178 0.77468 0.297 0.0
C1221 C 0.22103 0.78453 0.33828 0.0
C1222 C 0.25417 0.73904 0.16262 0.0
C1223 C 0.27196 0.72093 0.16763 0.0
C1224 C 0.24224 0.74812 0.20356 0.0
C1225 C 0.24808 0.7394 0.2502 0.0
C1226 C 0.26596 0.72139 0.25508 0.0
C1227 C 0.2777 0.71219 0.21424 0.0
H1228 H 0.03231 0.55464 0.47356 0.0
H1229 H 0.99183 0.5052 0.38142 0.0
H1230 H 0.01545 0.53524 0.5452 0.0
H1231 H 0.97535 0.48531 0.45353 0.0
H1232 H 0.93377 0.47065 0.59305 0.0
H1233 H 0.94852 0.49206 0.52197 0.0
H1234 H 0.02006 0.49662 0.5867 0.0
H1235 H 0.0051 0.47564 0.65888 0.0
C1236 C 0.01975 0.53962 0.46863 0.0
C1237 C 0.01349 0.53128 0.42192 0.0
C1238 C 0.01025 0.52842 0.5097 0.0
C1239 C 0.99439 0.50857 0.50496 0.0
C1240 C 0.98746 0.5007 0.45824 0.0
C1241 C -0.00313 0.51205 0.41699 0.0
C1242 C 0.95268 0.47618 0.59223 0.0
C1243 C 0.96834 0.4714 0.63153 0.0
C1244 C 0.96112 0.48836 0.55134 0.0
C1245 C 0.98542 0.49592 0.54871 0.0
C1246 C 0.00112 0.49126 0.58805 0.0
C1247 C 0.99262 0.47917 0.62924 0.0
H1248 H 0.71999 0.8086 0.21056 0.0
H1249 H 0.72553 0.73768 0.14282 0.0
H1250 H 0.74125 0.79356 0.28155 0.0
H1251 H 0.74634 0.72236 0.21505 0.0
H1252 H 0.80424 0.70995 0.32905 0.0
H1253 H 0.78455 0.7266 0.25746 0.0
H1254 H 0.73497 0.76676 0.34939 0.0
H1255 H 0.75524 0.75055 0.4214 0.0
C1256 C 0.72557 0.78969 0.21098 0.0
C1257 C 0.721 0.77424 0.17114 0.0
C1258 C 0.73767 0.78108 0.25186 0.0
C1259 C 0.74535 0.75679 0.25402 0.0
C1260 C 0.74088 0.7413 0.21414 0.0
C1261 C 0.72889 0.74999 0.1729 0.0
C1262 C 0.78924 0.72248 0.33402 0.0
C1263 C 0.78116 0.72889 0.38078 0.0
C1264 C 0.77785 0.73185 0.29297 0.0
C1265 C 0.75803 0.7477 0.29777 0.0
C1266 C 0.75035 0.75469 0.34457 0.0
C1267 C 0.76192 0.74545 0.38578 0.0
H1268 H 0.7746 0.18715 0.71229 0.0
H1269 H 0.7698 0.25806 0.64489 0.0
H1270 H 0.75361 0.20251 0.78335 0.0
H1271 H 0.74929 0.2737 0.7172 0.0
H1272 H 0.69064 0.28629 0.82976 0.0
H1273 H 0.71086 0.26976 0.75862 0.0
H1274 H 0.75962 0.22927 0.85158 0.0
H1275 H 0.73883 0.24537 0.92313 0.0
C1276 C 0.76925 0.20612 0.71279 0.0
C1277 C 0.77389 0.22144 0.67293 0.0
C1278 C 0.75732 0.21493 0.75374 0.0
C1279 C 0.74987 0.2393 0.75597 0.0
C1280 C 0.75455 0.2547 0.71622 0.0
C1281 C 0.76637 0.24582 0.67493 0.0
C1282 C 0.70559 0.27373 0.83507 0.0
C1283 C 0.71326 0.26717 0.88201 0.0
C1284 C 0.71729 0.26443 0.79427 0.0
C1285 C 0.73702 0.24849 0.79948 0.0
C1286 C 0.74433 0.24141 0.84642 0.0
C1287 C 0.73245 0.25059 0.88738 0.0
H1288 H 0.00017 0.98686 0.38316 0.0
H1289 H 0.95351 0.94304 0.47433 0.0
H1290 H 0.01692 0.00654 0.45548 0.0
H1291 H 0.9707 0.96204 0.54627 0.0
H1292 H 0.98632 0.02046 0.66014 0.0
H1293 H 0.97001 0.00047 0.58777 0.0
H1294 H 0.04204 -0.00136 0.52497 0.0
H1295 H 0.05812 0.01922 0.59621 0.0
C1296 C 0.99374 0.98123 0.4186 0.0
C1297 C 0.97545 0.96356 0.42308 0.0
C1298 C 0.00334 0.99243 0.46002 0.0
C1299 C 0.99498 0.98595 0.50659 0.0
C1300 C 0.97713 0.96783 0.51092 0.0
C1301 C 0.96741 0.95683 0.46965 0.0
C1302 C -0.00138 0.0157 0.63089 0.0
C1303 C 0.02343 0.02151 0.63371 0.0
C1304 C 0.98933 0.00419 0.58954 0.0
C1305 C 0.00475 -0.00194 0.55057 0.0
C1306 C 0.02961 0.00355 0.55389 0.0
C1307 C 0.03883 0.01523 0.5949 0.0
H1308 H 0.487 0.01898 0.89742 0.0
H1309 H 0.55429 0.036 0.97194 0.0
H1310 H 0.47261 -0.00221 0.96994 0.0
H1311 H 0.54032 0.01433 0.04297 0.0
H1312 H 0.49732 0.99374 0.17883 0.0
H1313 H 0.51152 0.01634 0.10801 0.0
H1314 H 0.48176 0.96078 0.01347 0.0
H1315 H 0.46698 0.93871 0.08396 0.0
C1316 C 0.49867 0.01822 0.92913 0.0
C1317 C 0.52174 0.02914 0.92885 0.0
C1318 C 0.49054 0.00597 0.9705 0.0
C1319 C 0.50542 0.00432 0.01205 0.0
C1320 C 0.5283 0.01556 0.01185 0.0
C1321 C 0.53632 0.02789 0.97086 0.0
C1322 C 0.49416 0.98625 0.14292 0.0
C1323 C 0.481 0.96459 0.13678 0.0
C1324 C 0.5022 -0.00082 0.10238 0.0
C1325 C 0.49743 0.99047 0.05516 0.0
C1326 C 0.48513 0.96828 0.0493 0.0
C1327 C 0.47692 0.95552 0.08968 0.0
loop_
_geom_bond_atom_site_label_1
_geom_bond_atom_site_label_2
_geom_bond_distance
_geom_bond_site_symmetry_2
_ccdc_geom_bond_type
O0 Zn1 1.953 . S
O0 C16 1.225 . S
Zn1 O0 1.953 . S
Zn1 O2 1.949 1_556 S
Zn1 O8 1.919 . S
Zn1 O13 1.924 . S
O2 Zn1 1.949 1_554 S
O2 Zn3 1.923 . S
O2 Zn4 1.950 . S
O2 Zn5 1.945 . S
Zn3 O2 1.923 . S
Zn3 O6 1.933 . S
Zn3 O9 1.941 1_554 S
Zn3 O10 1.965 . S
Zn4 O2 1.950 . S
Zn4 O11 1.938 . S
Zn4 O12 1.906 . S
Zn4 O22 1.953 1_554 S
Zn5 O2 1.945 . S
Zn5 O7 1.932 . S
Zn5 O14 1.977 . S
Zn5 O15 1.910 . S
O6 Zn3 1.933 . S
O6 C17 1.226 . S
O7 Zn5 1.932 . S
O7 C17 1.307 . S
O8 Zn1 1.919 . S
O8 C19 1.253 . S
O9 Zn3 1.941 1_556 S
O9 C19 1.283 . S
O10 Zn3 1.965 . S
O10 C18 1.303 . S
O11 Zn4 1.938 . S
O11 C18 1.247 . S
O12 Zn4 1.906 . S
O12 C20 1.304 . S
O13 Zn1 1.924 . S
O13 C21 1.311 . S
O14 Zn5 1.977 . S
O14 C20 1.272 . S
O15 Zn5 1.910 . S
O15 C21 1.231 1_554 S
C16 O0 1.225 . S
C16 O22 1.298 . S
C17 O6 1.226 . S
C17 O7 1.307 . S
C18 O10 1.303 . S
C18 O11 1.247 . S
C19 O8 1.253 . S
C19 O9 1.283 . S
C20 O12 1.304 . S
C20 O14 1.272 . S
C21 O13 1.311 . S
C21 O15 1.231 1_556 S
O22 Zn4 1.953 1_556 S
O22 C16 1.298 . S
O23 Zn24 1.953 . S
O23 C39 1.225 . S
Zn24 O23 1.953 . S
Zn24 O25 1.949 . S
Zn24 O31 1.919 . S
Zn24 O36 1.924 . S
O25 Zn24 1.949 . S
O25 Zn26 1.923 . S
O25 Zn27 1.950 . S
O25 Zn28 1.945 . S
Zn26 O25 1.923 . S
Zn26 O29 1.933 . S
Zn26 O32 1.941 . S
Zn26 O33 1.965 . S
Zn27 O25 1.950 . S
Zn27 O34 1.938 . S
Zn27 O35 1.906 . S
Zn27 O45 1.953 . S
Zn28 O25 1.945 . S
Zn28 O30 1.932 . S
Zn28 O37 1.977 . S
Zn28 O38 1.910 . S
O29 Zn26 1.933 . S
O29 C40 1.226 . S
O30 Zn28 1.932 . S
O30 C40 1.307 . S
O31 Zn24 1.919 . S
O31 C42 1.253 . S
O32 Zn26 1.941 . S
O32 C42 1.283 . S
O33 Zn26 1.965 . S
O33 C41 1.303 . S
O34 Zn27 1.938 . S
O34 C41 1.247 . S
O35 Zn27 1.906 . S
O35 C43 1.304 . S
O36 Zn24 1.924 . S
O36 C44 1.311 . S
O37 Zn28 1.977 . S
O37 C43 1.272 . S
O38 Zn28 1.910 . S
O38 C44 1.231 . S
C39 O23 1.225 . S
C39 O45 1.298 . S
C40 O29 1.226 . S
C40 O30 1.307 . S
C41 O33 1.303 . S
C41 O34 1.247 . S
C42 O31 1.253 . S
C42 O32 1.283 . S
C43 O35 1.304 . S
C43 O37 1.272 . S
C44 O36 1.311 . S
C44 O38 1.231 . S
O45 Zn27 1.953 . S
O45 C39 1.298 . S
O46 Zn47 1.953 . S
O46 C62 1.225 . S
Zn47 O46 1.953 . S
Zn47 O48 1.949 . S
Zn47 O54 1.919 . S
Zn47 O59 1.924 . S
O48 Zn47 1.949 . S
O48 Zn49 1.923 . S
O48 Zn50 1.950 . S
O48 Zn51 1.945 . S
Zn49 O48 1.923 . S
Zn49 O52 1.933 . S
Zn49 O55 1.941 . S
Zn49 O56 1.965 . S
Zn50 O48 1.950 . S
Zn50 O57 1.938 . S
Zn50 O58 1.906 . S
Zn50 O68 1.953 . S
Zn51 O48 1.945 . S
Zn51 O53 1.932 . S
Zn51 O60 1.977 . S
Zn51 O61 1.910 . S
O52 Zn49 1.933 . S
O52 C63 1.226 . S
O53 Zn51 1.932 . S
O53 C63 1.307 . S
O54 Zn47 1.919 . S
O54 C65 1.253 . S
O55 Zn49 1.941 . S
O55 C65 1.283 . S
O56 Zn49 1.965 . S
O56 C64 1.303 . S
O57 Zn50 1.938 . S
O57 C64 1.247 . S
O58 Zn50 1.906 . S
O58 C66 1.304 . S
O59 Zn47 1.924 . S
O59 C67 1.311 . S
O60 Zn51 1.977 . S
O60 C66 1.272 . S
O61 Zn51 1.910 . S
O61 C67 1.231 . S
C62 O46 1.225 . S
C62 O68 1.298 . S
C63 O52 1.226 . S
C63 O53 1.307 . S
C64 O56 1.303 . S
C64 O57 1.247 . S
C65 O54 1.253 . S
C65 O55 1.283 . S
C66 O58 1.304 . S
C66 O60 1.272 . S
C67 O59 1.311 . S
C67 O61 1.231 . S
O68 Zn50 1.953 . S
O68 C62 1.298 . S
O69 Zn70 1.953 . S
O69 C85 1.225 . S
Zn70 O69 1.953 . S
Zn70 O71 1.949 . S
Zn70 O77 1.919 . S
Zn70 O82 1.924 . S
O71 Zn70 1.949 . S
O71 Zn72 1.923 . S
O71 Zn73 1.950 . S
O71 Zn74 1.945 . S
Zn72 O71 1.923 . S
Zn72 O75 1.933 . S
Zn72 O78 1.941 . S
Zn72 O79 1.965 . S
Zn73 O71 1.950 . S
Zn73 O80 1.938 . S
Zn73 O81 1.906 . S
Zn73 O91 1.953 . S
Zn74 O71 1.945 . S
Zn74 O76 1.932 . S
Zn74 O83 1.977 . S
Zn74 O84 1.910 . S
O75 Zn72 1.933 . S
O75 C86 1.226 . S
O76 Zn74 1.932 . S
O76 C86 1.307 . S
O77 Zn70 1.919 . S
O77 C88 1.253 . S
O78 Zn72 1.941 . S
O78 C88 1.283 . S
O79 Zn72 1.965 . S
O79 C87 1.303 . S
O80 Zn73 1.938 . S
O80 C87 1.247 . S
O81 Zn73 1.906 . S
O81 C89 1.304 . S
O82 Zn70 1.924 . S
O82 C90 1.311 . S
O83 Zn74 1.977 . S
O83 C89 1.272 . S
O84 Zn74 1.910 . S
O84 C90 1.231 . S
C85 O69 1.225 . S
C85 O91 1.298 . S
C86 O75 1.226 . S
C86 O76 1.307 . S
C87 O79 1.303 . S
C87 O80 1.247 . S
C88 O77 1.253 . S
C88 O78 1.283 . S
C89 O81 1.304 . S
C89 O83 1.272 . S
C90 O82 1.311 . S
C90 O84 1.231 . S
O91 Zn73 1.953 . S
O91 C85 1.298 . S
O92 Zn93 1.953 . S
O92 C108 1.225 . S
Zn93 O92 1.953 . S
Zn93 O94 1.949 . S
Zn93 O100 1.919 . S
Zn93 O105 1.924 . S
O94 Zn93 1.949 . S
O94 Zn95 1.923 . S
O94 Zn96 1.950 . S
O94 Zn97 1.940 1_554 S
Zn95 O94 1.923 . S
Zn95 O98 1.933 1_554 S
Zn95 O101 1.941 . S
Zn95 O102 1.965 . S
Zn96 O94 1.950 . S
Zn96 O103 1.938 . S
Zn96 O104 1.906 1_554 S
Zn96 O114 1.953 . S
Zn97 O94 1.940 1_556 S
Zn97 O99 1.936 . S
Zn97 O106 1.981 . S
Zn97 O107 1.907 1_556 S
O98 Zn95 1.933 1_556 S
O98 C109 1.226 . S
O99 Zn97 1.936 . S
O99 C109 1.307 . S
O100 Zn93 1.919 . S
O100 C111 1.253 . S
O101 Zn95 1.941 . S
O101 C111 1.283 . S
O102 Zn95 1.965 . S
O102 C110 1.303 . S
O103 Zn96 1.938 . S
O103 C110 1.247 . S
O104 Zn96 1.906 1_556 S
O104 C112 1.304 . S
O105 Zn93 1.924 . S
O105 C113 1.311 . S
O106 Zn97 1.981 . S
O106 C112 1.272 . S
O107 Zn97 1.907 1_554 S
O107 C113 1.231 . S
C108 O92 1.225 . S
C108 O114 1.298 . S
C109 O98 1.226 . S
C109 O99 1.307 . S
C110 O102 1.303 . S
C110 O103 1.247 . S
C111 O100 1.253 . S
C111 O101 1.283 . S
C112 O104 1.304 . S
C112 O106 1.272 . S
C113 O105 1.311 . S
C113 O107 1.231 . S
O114 Zn96 1.953 . S
O114 C108 1.298 . S
O115 Zn116 1.953 . S
O115 C131 1.225 . S
Zn116 O115 1.953 . S
Zn116 O117 1.949 . S
Zn116 O123 1.919 . S
Zn116 O128 1.924 . S
O117 Zn116 1.949 . S
O117 Zn118 1.923 . S
O117 Zn119 1.950 . S
O117 Zn120 1.945 . S
Zn118 O117 1.923 . S
Zn118 O121 1.933 . S
Zn118 O124 1.941 . S
Zn118 O125 1.965 . S
Zn119 O117 1.950 . S
Zn119 O126 1.938 . S
Zn119 O127 1.906 . S
Zn119 O137 1.953 . S
Zn120 O117 1.945 . S
Zn120 O122 1.932 . S
Zn120 O129 1.977 . S
Zn120 O130 1.910 . S
O121 Zn118 1.933 . S
O121 C132 1.226 . S
O122 Zn120 1.932 . S
O122 C132 1.307 . S
O123 Zn116 1.919 . S
O123 C134 1.253 . S
O124 Zn118 1.941 . S
O124 C134 1.283 . S
O125 Zn118 1.965 . S
O125 C133 1.303 . S
O126 Zn119 1.938 . S
O126 C133 1.247 . S
O127 Zn119 1.906 . S
O127 C135 1.304 . S
O128 Zn116 1.924 . S
O128 C136 1.311 . S
O129 Zn120 1.977 . S
O129 C135 1.272 . S
O130 Zn120 1.910 . S
O130 C136 1.231 . S
C131 O115 1.225 . S
C131 O137 1.298 . S
C132 O121 1.226 . S
C132 O122 1.307 . S
C133 O125 1.303 . S
C133 O126 1.247 . S
C134 O123 1.253 . S
C134 O124 1.283 . S
C135 O127 1.304 . S
C135 O129 1.272 . S
C136 O128 1.311 . S
C136 O130 1.231 . S
O137 Zn119 1.953 . S
O137 C131 1.298 . S
O138 Zn139 1.953 . S
O138 C154 1.225 . S
Zn139 O138 1.953 . S
Zn139 O140 1.949 . S
Zn139 O146 1.919 . S
Zn139 O151 1.924 . S
O140 Zn139 1.949 . S
O140 Zn141 1.923 . S
O140 Zn142 1.950 . S
O140 Zn143 1.945 . S
Zn141 O140 1.923 . S
Zn141 O144 1.933 . S
Zn141 O147 1.941 . S
Zn141 O148 1.965 . S
Zn142 O140 1.950 . S
Zn142 O149 1.938 . S
Zn142 O150 1.906 . S
Zn142 O160 1.953 . S
Zn143 O140 1.945 . S
Zn143 O145 1.932 . S
Zn143 O152 1.977 . S
Zn143 O153 1.910 . S
O144 Zn141 1.933 . S
O144 C155 1.226 . S
O145 Zn143 1.932 . S
O145 C155 1.307 . S
O146 Zn139 1.919 . S
O146 C157 1.253 . S
O147 Zn141 1.941 . S
O147 C157 1.283 . S
O148 Zn141 1.965 . S
O148 C156 1.303 . S
O149 Zn142 1.938 . S
O149 C156 1.247 . S
O150 Zn142 1.906 . S
O150 C158 1.304 . S
O151 Zn139 1.924 . S
O151 C159 1.311 . S
O152 Zn143 1.977 . S
O152 C158 1.272 . S
O153 Zn143 1.910 . S
O153 C159 1.231 . S
C154 O138 1.225 . S
C154 O160 1.298 . S
C155 O144 1.226 . S
C155 O145 1.307 . S
C156 O148 1.303 . S
C156 O149 1.247 . S
C157 O146 1.253 . S
C157 O147 1.283 . S
C158 O150 1.304 . S
C158 O152 1.272 . S
C159 O151 1.311 . S
C159 O153 1.231 . S
O160 Zn142 1.953 . S
O160 C154 1.298 . S
O161 Zn162 1.953 . S
O161 C177 1.225 . S
Zn162 O161 1.953 . S
Zn162 O163 1.949 . S
Zn162 O169 1.919 . S
Zn162 O174 1.924 . S
O163 Zn162 1.949 . S
O163 Zn164 1.923 . S
O163 Zn165 1.950 . S
O163 Zn166 1.945 . S
Zn164 O163 1.923 . S
Zn164 O167 1.933 . S
Zn164 O170 1.941 . S
Zn164 O171 1.965 . S
Zn165 O163 1.950 . S
Zn165 O172 1.938 . S
Zn165 O173 1.906 . S
Zn165 O183 1.953 . S
Zn166 O163 1.945 . S
Zn166 O168 1.932 . S
Zn166 O175 1.977 . S
Zn166 O176 1.910 . S
O167 Zn164 1.933 . S
O167 C178 1.226 . S
O168 Zn166 1.932 . S
O168 C178 1.307 . S
O169 Zn162 1.919 . S
O169 C180 1.253 . S
O170 Zn164 1.941 . S
O170 C180 1.283 . S
O171 Zn164 1.965 . S
O171 C179 1.303 . S
O172 Zn165 1.938 . S
O172 C179 1.247 . S
O173 Zn165 1.906 . S
O173 C181 1.304 . S
O174 Zn162 1.924 . S
O174 C182 1.311 . S
O175 Zn166 1.977 . S
O175 C181 1.272 . S
O176 Zn166 1.910 . S
O176 C182 1.231 . S
C177 O161 1.225 . S
C177 O183 1.298 . S
C178 O167 1.226 . S
C178 O168 1.307 . S
C179 O171 1.303 . S
C179 O172 1.247 . S
C180 O169 1.253 . S
C180 O170 1.283 . S
C181 O173 1.304 . S
C181 O175 1.272 . S
C182 O174 1.311 . S
C182 O176 1.231 . S
O183 Zn165 1.953 . S
O183 C177 1.298 . S
O184 Zn185 1.953 . S
O184 C200 1.225 . S
Zn185 O184 1.953 . S
Zn185 O186 1.949 . S
Zn185 O192 1.919 . S
Zn185 O197 1.924 . S
O186 Zn185 1.949 . S
O186 Zn187 1.923 . S
O186 Zn188 1.950 . S
O186 Zn189 1.945 . S
Zn187 O186 1.923 . S
Zn187 O190 1.933 . S
Zn187 O193 1.941 . S
Zn187 O194 1.965 . S
Zn188 O186 1.950 . S
Zn188 O195 1.938 . S
Zn188 O196 1.906 . S
Zn188 O206 1.953 . S
Zn189 O186 1.945 . S
Zn189 O191 1.932 . S
Zn189 O198 1.977 . S
Zn189 O199 1.910 . S
O190 Zn187 1.933 . S
O190 C201 1.226 . S
O191 Zn189 1.932 . S
O191 C201 1.307 . S
O192 Zn185 1.919 . S
O192 C203 1.253 . S
O193 Zn187 1.941 . S
O193 C203 1.283 . S
O194 Zn187 1.965 . S
O194 C202 1.303 . S
O195 Zn188 1.938 . S
O195 C202 1.247 . S
O196 Zn188 1.906 . S
O196 C204 1.304 . S
O197 Zn185 1.924 . S
O197 C205 1.311 . S
O198 Zn189 1.977 . S
O198 C204 1.272 . S
O199 Zn189 1.910 . S
O199 C205 1.231 . S
C200 O184 1.225 . S
C200 O206 1.298 . S
C201 O190 1.226 . S
C201 O191 1.307 . S
C202 O194 1.303 . S
C202 O195 1.247 . S
C203 O192 1.253 . S
C203 O193 1.283 . S
C204 O196 1.304 . S
C204 O198 1.272 . S
C205 O197 1.311 . S
C205 O199 1.231 . S
O206 Zn188 1.953 . S
O206 C200 1.298 . S
O207 Zn208 1.953 . S
O207 C223 1.225 . S
Zn208 O207 1.953 . S
Zn208 O209 1.949 . S
Zn208 O215 1.919 . S
Zn208 O220 1.924 . S
O209 Zn208 1.949 . S
O209 Zn210 1.923 . S
O209 Zn211 1.950 . S
O209 Zn212 1.945 . S
Zn210 O209 1.923 . S
Zn210 O213 1.933 . S
Zn210 O216 1.941 . S
Zn210 O217 1.965 . S
Zn211 O209 1.950 . S
Zn211 O218 1.938 . S
Zn211 O219 1.906 . S
Zn211 O229 1.953 . S
Zn212 O209 1.945 . S
Zn212 O214 1.932 . S
Zn212 O221 1.977 . S
Zn212 O222 1.910 . S
O213 Zn210 1.933 . S
O213 C224 1.226 . S
O214 Zn212 1.932 . S
O214 C224 1.307 . S
O215 Zn208 1.919 . S
O215 C226 1.253 . S
O216 Zn210 1.941 . S
O216 C226 1.283 . S
O217 Zn210 1.965 . S
O217 C225 1.303 . S
O218 Zn211 1.938 . S
O218 C225 1.247 . S
O219 Zn211 1.906 . S
O219 C227 1.304 . S
O220 Zn208 1.924 . S
O220 C228 1.311 . S
O221 Zn212 1.977 . S
O221 C227 1.272 . S
O222 Zn212 1.910 . S
O222 C228 1.231 . S
C223 O207 1.225 . S
C223 O229 1.298 . S
C224 O213 1.226 . S
C224 O214 1.307 . S
C225 O217 1.303 . S
C225 O218 1.247 . S
C226 O215 1.253 . S
C226 O216 1.283 . S
C227 O219 1.304 . S
C227 O221 1.272 . S
C228 O220 1.311 . S
C228 O222 1.231 . S
O229 Zn211 1.953 . S
O229 C223 1.298 . S
O230 Zn231 1.953 . S
O230 C246 1.225 . S
Zn231 O230 1.953 . S
Zn231 O232 1.949 1_556 S
Zn231 O238 1.919 . S
Zn231 O243 1.924 . S
O232 Zn231 1.949 1_554 S
O232 Zn233 1.923 . S
O232 Zn234 1.950 . S
O232 Zn235 1.945 . S
Zn233 O232 1.923 . S
Zn233 O236 1.933 . S
Zn233 O239 1.941 1_554 S
Zn233 O240 1.965 . S
Zn234 O232 1.950 . S
Zn234 O241 1.938 . S
Zn234 O242 1.906 . S
Zn234 O252 1.953 1_554 S
Zn235 O232 1.945 . S
Zn235 O237 1.932 . S
Zn235 O244 1.977 . S
Zn235 O245 1.910 . S
O236 Zn233 1.933 . S
O236 C247 1.226 . S
O237 Zn235 1.932 . S
O237 C247 1.307 . S
O238 Zn231 1.919 . S
O238 C249 1.253 . S
O239 Zn233 1.941 1_556 S
O239 C249 1.283 . S
O240 Zn233 1.965 . S
O240 C248 1.303 . S
O241 Zn234 1.938 . S
O241 C248 1.247 . S
O242 Zn234 1.906 . S
O242 C250 1.304 . S
O243 Zn231 1.924 . S
O243 C251 1.311 . S
O244 Zn235 1.977 . S
O244 C250 1.272 . S
O245 Zn235 1.910 . S
O245 C251 1.231 1_554 S
C246 O230 1.225 . S
C246 O252 1.298 . S
C247 O236 1.226 . S
C247 O237 1.307 . S
C248 O240 1.303 . S
C248 O241 1.247 . S
C249 O238 1.253 . S
C249 O239 1.283 . S
C250 O242 1.304 . S
C250 O244 1.272 . S
C251 O243 1.311 . S
C251 O245 1.231 1_556 S
O252 Zn234 1.953 1_556 S
O252 C246 1.298 . S
O253 Zn254 1.953 . S
O253 C269 1.225 . S
Zn254 O253 1.953 . S
Zn254 O255 1.949 . S
Zn254 O261 1.919 . S
Zn254 O266 1.924 . S
O255 Zn254 1.949 . S
O255 Zn256 1.923 . S
O255 Zn257 1.950 . S
O255 Zn258 1.945 . S
Zn256 O255 1.923 . S
Zn256 O259 1.933 . S
Zn256 O262 1.941 . S
Zn256 O263 1.965 . S
Zn257 O255 1.950 . S
Zn257 O264 1.938 . S
Zn257 O265 1.906 . S
Zn257 O275 1.953 . S
Zn258 O255 1.945 . S
Zn258 O260 1.932 . S
Zn258 O267 1.977 . S
Zn258 O268 1.910 . S
O259 Zn256 1.933 . S
O259 C270 1.226 . S
O260 Zn258 1.932 . S
O260 C270 1.307 . S
O261 Zn254 1.919 . S
O261 C272 1.253 . S
O262 Zn256 1.941 . S
O262 C272 1.283 . S
O263 Zn256 1.965 . S
O263 C271 1.303 . S
O264 Zn257 1.938 . S
O264 C271 1.247 . S
O265 Zn257 1.906 . S
O265 C273 1.304 . S
O266 Zn254 1.924 . S
O266 C274 1.311 . S
O267 Zn258 1.977 . S
O267 C273 1.272 . S
O268 Zn258 1.910 . S
O268 C274 1.231 . S
C269 O253 1.225 . S
C269 O275 1.298 . S
C270 O259 1.226 . S
C270 O260 1.307 . S
C271 O263 1.303 . S
C271 O264 1.247 . S
C272 O261 1.253 . S
C272 O262 1.283 . S
C273 O265 1.304 . S
C273 O267 1.272 . S
C274 O266 1.311 . S
C274 O268 1.231 . S
O275 Zn257 1.953 . S
O275 C269 1.298 . S
O276 Zn277 1.953 . S
O276 C292 1.225 . S
Zn277 O276 1.953 . S
Zn277 O278 1.949 . S
Zn277 O284 1.919 . S
Zn277 O289 1.924 . S
O278 Zn277 1.949 . S
O278 Zn279 1.923 . S
O278 Zn280 1.950 . S
O278 Zn281 1.945 . S
Zn279 O278 1.923 . S
Zn279 O282 1.933 . S
Zn279 O285 1.941 . S
Zn279 O286 1.965 . S
Zn280 O278 1.950 . S
Zn280 O287 1.938 . S
Zn280 O288 1.906 . S
Zn280 O298 1.953 . S
Zn281 O278 1.945 . S
Zn281 O283 1.932 . S
Zn281 O290 1.977 . S
Zn281 O291 1.910 . S
O282 Zn279 1.933 . S
O282 C293 1.226 . S
O283 Zn281 1.932 . S
O283 C293 1.307 . S
O284 Zn277 1.919 . S
O284 C295 1.253 . S
O285 Zn279 1.941 . S
O285 C295 1.283 . S
O286 Zn279 1.965 . S
O286 C294 1.303 . S
O287 Zn280 1.938 . S
O287 C294 1.247 . S
O288 Zn280 1.906 . S
O288 C296 1.304 . S
O289 Zn277 1.924 . S
O289 C297 1.311 . S
O290 Zn281 1.977 . S
O290 C296 1.272 . S
O291 Zn281 1.910 . S
O291 C297 1.231 . S
C292 O276 1.225 . S
C292 O298 1.298 . S
C293 O282 1.226 . S
C293 O283 1.307 . S
C294 O286 1.303 . S
C294 O287 1.247 . S
C295 O284 1.253 . S
C295 O285 1.283 . S
C296 O288 1.304 . S
C296 O290 1.272 . S
C297 O289 1.311 . S
C297 O291 1.231 . S
O298 Zn280 1.953 . S
O298 C292 1.298 . S
O299 Zn300 1.953 . S
O299 C315 1.225 . S
Zn300 O299 1.953 . S
Zn300 O301 1.949 . S
Zn300 O307 1.919 . S
Zn300 O312 1.924 . S
O301 Zn300 1.949 . S
O301 Zn302 1.923 . S
O301 Zn303 1.950 . S
O301 Zn304 1.945 . S
Zn302 O301 1.923 . S
Zn302 O305 1.933 . S
Zn302 O308 1.941 . S
Zn302 O309 1.965 . S
Zn303 O301 1.950 . S
Zn303 O310 1.938 . S
Zn303 O311 1.906 . S
Zn303 O321 1.953 . S
Zn304 O301 1.945 . S
Zn304 O306 1.932 . S
Zn304 O313 1.977 . S
Zn304 O314 1.910 . S
O305 Zn302 1.933 . S
O305 C316 1.226 . S
O306 Zn304 1.932 . S
O306 C316 1.307 . S
O307 Zn300 1.919 . S
O307 C318 1.253 . S
O308 Zn302 1.941 . S
O308 C318 1.283 . S
O309 Zn302 1.965 . S
O309 C317 1.303 . S
O310 Zn303 1.938 . S
O310 C317 1.247 . S
O311 Zn303 1.906 . S
O311 C319 1.304 . S
O312 Zn300 1.924 . S
O312 C320 1.311 . S
O313 Zn304 1.977 . S
O313 C319 1.272 . S
O314 Zn304 1.910 . S
O314 C320 1.231 . S
C315 O299 1.225 . S
C315 O321 1.298 . S
C316 O305 1.226 . S
C316 O306 1.307 . S
C317 O309 1.303 . S
C317 O310 1.247 . S
C318 O307 1.253 . S
C318 O308 1.283 . S
C319 O311 1.304 . S
C319 O313 1.272 . S
C320 O312 1.311 . S
C320 O314 1.231 . S
O321 Zn303 1.953 . S
O321 C315 1.298 . S
O322 Zn323 1.953 . S
O322 C338 1.225 . S
Zn323 O322 1.953 . S
Zn323 O324 1.949 . S
Zn323 O330 1.919 . S
Zn323 O335 1.924 . S
O324 Zn323 1.949 . S
O324 Zn325 1.923 . S
O324 Zn326 1.950 . S
O324 Zn327 1.940 1_554 S
Zn325 O324 1.923 . S
Zn325 O328 1.933 1_554 S
Zn325 O331 1.941 . S
Zn325 O332 1.965 . S
Zn326 O324 1.950 . S
Zn326 O333 1.938 . S
Zn326 O334 1.906 1_554 S
Zn326 O344 1.953 . S
Zn327 O324 1.940 1_556 S
Zn327 O329 1.936 . S
Zn327 O336 1.981 . S
Zn327 O337 1.907 1_556 S
O328 Zn325 1.933 1_556 S
O328 C339 1.226 . S
O329 Zn327 1.936 . S
O329 C339 1.307 . S
O330 Zn323 1.919 . S
O330 C341 1.253 . S
O331 Zn325 1.941 . S
O331 C341 1.283 . S
O332 Zn325 1.965 . S
O332 C340 1.303 . S
O333 Zn326 1.938 . S
O333 C340 1.247 . S
O334 Zn326 1.906 1_556 S
O334 C342 1.304 . S
O335 Zn323 1.924 . S
O335 C343 1.311 . S
O336 Zn327 1.981 . S
O336 C342 1.272 . S
O337 Zn327 1.907 1_554 S
O337 C343 1.231 . S
C338 O322 1.225 . S
C338 O344 1.298 . S
C339 O328 1.226 . S
C339 O329 1.307 . S
C340 O332 1.303 . S
C340 O333 1.247 . S
C341 O330 1.253 . S
C341 O331 1.283 . S
C342 O334 1.304 . S
C342 O336 1.272 . S
C343 O335 1.311 . S
C343 O337 1.231 . S
O344 Zn326 1.953 . S
O344 C338 1.298 . S
O345 Zn346 1.953 . S
O345 C361 1.225 . S
Zn346 O345 1.953 . S
Zn346 O347 1.949 . S
Zn346 O353 1.919 . S
Zn346 O358 1.924 . S
O347 Zn346 1.949 . S
O347 Zn348 1.923 . S
O347 Zn349 1.950 . S
O347 Zn350 1.945 . S
Zn348 O347 1.923 . S
Zn348 O351 1.933 . S
Zn348 O354 1.941 . S
Zn348 O355 1.965 . S
Zn349 O347 1.950 . S
Zn349 O356 1.938 . S
Zn349 O357 1.906 . S
Zn349 O367 1.953 . S
Zn350 O347 1.945 . S
Zn350 O352 1.932 . S
Zn350 O359 1.977 . S
Zn350 O360 1.910 . S
O351 Zn348 1.933 . S
O351 C362 1.226 . S
O352 Zn350 1.932 . S
O352 C362 1.307 . S
O353 Zn346 1.919 . S
O353 C364 1.253 . S
O354 Zn348 1.941 . S
O354 C364 1.283 . S
O355 Zn348 1.965 . S
O355 C363 1.303 . S
O356 Zn349 1.938 . S
O356 C363 1.247 . S
O357 Zn349 1.906 . S
O357 C365 1.304 . S
O358 Zn346 1.924 . S
O358 C366 1.311 . S
O359 Zn350 1.977 . S
O359 C365 1.272 . S
O360 Zn350 1.910 . S
O360 C366 1.231 . S
C361 O345 1.225 . S
C361 O367 1.298 . S
C362 O351 1.226 . S
C362 O352 1.307 . S
C363 O355 1.303 . S
C363 O356 1.247 . S
C364 O353 1.253 . S
C364 O354 1.283 . S
C365 O357 1.304 . S
C365 O359 1.272 . S
C366 O358 1.311 . S
C366 O360 1.231 . S
O367 Zn349 1.953 . S
O367 C361 1.298 . S
H368 C376 0.950 . S
H369 C381 0.950 1_554 S
H370 C378 0.950 . S
H371 C380 0.950 . S
H372 C382 0.950 . S
H373 C384 0.950 . S
H374 C386 0.950 . S
H375 C387 0.950 . S
C376 H368 0.950 . S
C376 C377 1.386 . S
C376 C378 1.391 . S
C377 C376 1.386 . S
C377 C381 1.393 . S
C378 H370 0.950 . S
C378 C376 1.391 . S
C378 C379 1.400 . S
C379 C378 1.400 . S
C379 C380 1.398 . S
C379 C385 1.491 . S
C380 H371 0.950 . S
C380 C379 1.398 . S
C380 C381 1.391 . S
C381 H369 0.950 1_556 S
C381 C377 1.393 . S
C381 C380 1.391 . S
C382 H372 0.950 . S
C382 C383 1.386 . S
C382 C384 1.391 . S
C383 C382 1.386 . S
C383 C387 1.393 . S
C384 H373 0.950 . S
C384 C382 1.391 . S
C384 C385 1.400 . S
C385 C379 1.491 . S
C385 C384 1.400 . S
C385 C386 1.398 . S
C386 H374 0.950 . S
C386 C385 1.398 . S
C386 C387 1.391 . S
C387 H375 0.950 . S
C387 C383 1.393 . S
C387 C386 1.391 . S
H388 C396 0.950 . S
H389 C401 0.950 . S
H390 C398 0.950 . S
H391 C400 0.950 . S
H392 C402 0.950 . S
H393 C404 0.950 . S
H394 C406 0.950 . S
H395 C407 0.950 . S
C396 H388 0.950 . S
C396 C397 1.386 . S
C396 C398 1.391 . S
C397 C396 1.386 . S
C397 C401 1.393 . S
C398 H390 0.950 . S
C398 C396 1.391 . S
C398 C399 1.400 . S
C399 C398 1.400 . S
C399 C400 1.398 . S
C399 C405 1.491 . S
C400 H391 0.950 . S
C400 C399 1.398 . S
C400 C401 1.391 . S
C401 H389 0.950 . S
C401 C397 1.393 . S
C401 C400 1.391 . S
C402 H392 0.950 . S
C402 C403 1.386 . S
C402 C404 1.391 . S
C403 C402 1.386 . S
C403 C407 1.393 . S
C404 H393 0.950 . S
C404 C402 1.391 . S
C404 C405 1.400 . S
C405 C399 1.491 . S
C405 C404 1.400 . S
C405 C406 1.398 . S
C406 H394 0.950 . S
C406 C405 1.398 . S
C406 C407 1.391 . S
C407 H395 0.950 . S
C407 C403 1.393 . S
C407 C406 1.391 . S
H408 C416 0.950 . S
H409 C421 0.950 . S
H410 C418 0.950 . S
H411 C420 0.950 . S
H412 C422 0.950 . S
H413 C424 0.950 . S
H414 C426 0.950 . S
H415 C427 0.950 . S
C416 H408 0.950 . S
C416 C417 1.386 . S
C416 C418 1.391 . S
C417 C416 1.386 . S
C417 C421 1.393 . S
C418 H410 0.950 . S
C418 C416 1.391 . S
C418 C419 1.400 . S
C419 C418 1.400 . S
C419 C420 1.398 . S
C419 C425 1.491 . S
C420 H411 0.950 . S
C420 C419 1.398 . S
C420 C421 1.391 . S
C421 H409 0.950 . S
C421 C417 1.393 . S
C421 C420 1.391 . S
C422 H412 0.950 . S
C422 C423 1.386 . S
C422 C424 1.391 . S
C423 C422 1.386 . S
C423 C427 1.393 . S
C424 H413 0.950 . S
C424 C422 1.391 . S
C424 C425 1.400 . S
C425 C419 1.491 . S
C425 C424 1.400 . S
C425 C426 1.398 . S
C426 H414 0.950 . S
C426 C425 1.398 . S
C426 C427 1.391 . S
C427 H415 0.950 . S
C427 C423 1.393 . S
C427 C426 1.391 . S
H428 C436 0.950 . S
H429 C441 0.950 . S
H430 C438 0.950 . S
H431 C440 0.950 . S
H432 C442 0.950 . S
H433 C444 0.950 . S
H434 C446 0.950 . S
H435 C447 0.950 . S
C436 H428 0.950 . S
C436 C437 1.386 . S
C436 C438 1.391 . S
C437 C436 1.386 . S
C437 C441 1.393 . S
C438 H430 0.950 . S
C438 C436 1.391 . S
C438 C439 1.400 . S
C439 C438 1.400 . S
C439 C440 1.398 . S
C439 C445 1.491 . S
C440 H431 0.950 . S
C440 C439 1.398 . S
C440 C441 1.391 . S
C441 H429 0.950 . S
C441 C437 1.393 . S
C441 C440 1.391 . S
C442 H432 0.950 . S
C442 C443 1.386 . S
C442 C444 1.391 . S
C443 C442 1.386 . S
C443 C447 1.393 . S
C444 H433 0.950 . S
C444 C442 1.391 . S
C444 C445 1.400 . S
C445 C439 1.491 . S
C445 C444 1.400 . S
C445 C446 1.398 . S
C446 H434 0.950 . S
C446 C445 1.398 . S
C446 C447 1.391 . S
C447 H435 0.950 . S
C447 C443 1.393 . S
C447 C446 1.391 . S
H448 C456 0.950 . S
H449 C461 0.950 . S
H450 C458 0.950 . S
H451 C460 0.950 . S
H452 C462 0.950 . S
H453 C464 0.950 . S
H454 C466 0.950 . S
H455 C467 0.950 . S
C456 H448 0.950 . S
C456 C457 1.386 . S
C456 C458 1.391 . S
C457 C456 1.386 . S
C457 C461 1.393 . S
C458 H450 0.950 . S
C458 C456 1.391 . S
C458 C459 1.400 . S
C459 C458 1.400 . S
C459 C460 1.398 . S
C459 C465 1.491 . S
C460 H451 0.950 . S
C460 C459 1.398 . S
C460 C461 1.391 . S
C461 H449 0.950 . S
C461 C457 1.393 . S
C461 C460 1.391 . S
C462 H452 0.950 . S
C462 C463 1.386 . S
C462 C464 1.391 . S
C463 C462 1.386 . S
C463 C467 1.393 . S
C464 H453 0.950 . S
C464 C462 1.391 . S
C464 C465 1.400 . S
C465 C459 1.491 . S
C465 C464 1.400 . S
C465 C466 1.398 . S
C466 H454 0.950 . S
C466 C465 1.398 . S
C466 C467 1.391 . S
C467 H455 0.950 . S
C467 C463 1.393 . S
C467 C466 1.391 . S
H468 C476 0.950 . S
H469 C481 0.950 . S
H470 C478 0.950 . S
H471 C480 0.950 . S
H472 C482 0.950 . S
H473 C484 0.950 . S
H474 C486 0.950 . S
H475 C487 0.950 . S
C476 H468 0.950 . S
C476 C477 1.386 . S
C476 C478 1.391 . S
C477 C476 1.386 . S
C477 C481 1.393 . S
C478 H470 0.950 . S
C478 C476 1.391 . S
C478 C479 1.400 . S
C479 C478 1.400 . S
C479 C480 1.398 . S
C479 C485 1.491 . S
C480 H471 0.950 . S
C480 C479 1.398 . S
C480 C481 1.391 . S
C481 H469 0.950 . S
C481 C477 1.393 . S
C481 C480 1.391 . S
C482 H472 0.950 . S
C482 C483 1.386 . S
C482 C484 1.391 . S
C483 C482 1.386 . S
C483 C487 1.393 . S
C484 H473 0.950 . S
C484 C482 1.391 . S
C484 C485 1.400 . S
C485 C479 1.491 . S
C485 C484 1.400 . S
C485 C486 1.398 . S
C486 H474 0.950 . S
C486 C485 1.398 . S
C486 C487 1.391 . S
C487 H475 0.950 . S
C487 C483 1.393 . S
C487 C486 1.391 . S
H488 C496 0.950 . S
H489 C501 0.950 . S
H490 C498 0.950 . S
H491 C500 0.950 . S
H492 C502 0.950 . S
H493 C504 0.950 . S
H494 C506 0.950 . S
H495 C507 0.950 . S
C496 H488 0.950 . S
C496 C497 1.386 . S
C496 C498 1.391 . S
C497 C496 1.386 . S
C497 C501 1.393 . S
C498 H490 0.950 . S
C498 C496 1.391 . S
C498 C499 1.400 . S
C499 C498 1.400 . S
C499 C500 1.398 . S
C499 C505 1.491 . S
C500 H491 0.950 . S
C500 C499 1.398 . S
C500 C501 1.391 . S
C501 H489 0.950 . S
C501 C497 1.393 . S
C501 C500 1.391 . S
C502 H492 0.950 . S
C502 C503 1.386 . S
C502 C504 1.391 . S
C503 C502 1.386 . S
C503 C507 1.393 . S
C504 H493 0.950 . S
C504 C502 1.391 . S
C504 C505 1.400 . S
C505 C499 1.491 . S
C505 C504 1.400 . S
C505 C506 1.398 . S
C506 H494 0.950 . S
C506 C505 1.398 . S
C506 C507 1.391 . S
C507 H495 0.950 . S
C507 C503 1.393 . S
C507 C506 1.391 . S
H508 C516 0.950 . S
H509 C521 0.950 . S
H510 C518 0.950 . S
H511 C520 0.950 . S
H512 C522 0.950 . S
H513 C524 0.950 . S
H514 C526 0.950 . S
H515 C527 0.950 . S
C516 H508 0.950 . S
C516 C517 1.386 . S
C516 C518 1.391 . S
C517 C516 1.386 . S
C517 C521 1.393 . S
C518 H510 0.950 . S
C518 C516 1.391 . S
C518 C519 1.400 . S
C519 C518 1.400 . S
C519 C520 1.398 . S
C519 C525 1.491 . S
C520 H511 0.950 . S
C520 C519 1.398 . S
C520 C521 1.391 . S
C521 H509 0.950 . S
C521 C517 1.393 . S
C521 C520 1.391 . S
C522 H512 0.950 . S
C522 C523 1.386 . S
C522 C524 1.391 . S
C523 C522 1.386 . S
C523 C527 1.393 . S
C524 H513 0.950 . S
C524 C522 1.391 . S
C524 C525 1.400 . S
C525 C519 1.491 . S
C525 C524 1.400 . S
C525 C526 1.398 . S
C526 H514 0.950 . S
C526 C525 1.398 . S
C526 C527 1.391 . S
C527 H515 0.950 . S
C527 C523 1.393 . S
C527 C526 1.391 . S
H528 C536 0.950 . S
H529 C541 0.950 . S
H530 C538 0.950 . S
H531 C540 0.950 . S
H532 C542 0.950 . S
H533 C544 0.950 . S
H534 C546 0.950 . S
H535 C547 0.950 . S
C536 H528 0.950 . S
C536 C537 1.386 . S
C536 C538 1.391 . S
C537 C536 1.386 . S
C537 C541 1.393 . S
C538 H530 0.950 . S
C538 C536 1.391 . S
C538 C539 1.400 . S
C539 C538 1.400 . S
C539 C540 1.398 . S
C539 C545 1.491 . S
C540 H531 0.950 . S
C540 C539 1.398 . S
C540 C541 1.391 . S
C541 H529 0.950 . S
C541 C537 1.393 . S
C541 C540 1.391 . S
C542 H532 0.950 . S
C542 C543 1.386 . S
C542 C544 1.391 . S
C543 C542 1.386 . S
C543 C547 1.393 . S
C544 H533 0.950 . S
C544 C542 1.391 . S
C544 C545 1.400 . S
C545 C539 1.491 . S
C545 C544 1.400 . S
C545 C546 1.398 . S
C546 H534 0.950 . S
C546 C545 1.398 . S
C546 C547 1.391 . S
C547 H535 0.950 . S
C547 C543 1.393 . S
C547 C546 1.391 . S
H548 C556 0.950 . S
H549 C561 0.950 . S
H550 C558 0.950 . S
H551 C560 0.950 . S
H552 C562 0.950 . S
H553 C564 0.950 . S
H554 C566 0.950 . S
H555 C567 0.950 . S
C556 H548 0.950 . S
C556 C557 1.386 . S
C556 C558 1.391 . S
C557 C556 1.386 . S
C557 C561 1.393 . S
C558 H550 0.950 . S
C558 C556 1.391 . S
C558 C559 1.400 . S
C559 C558 1.400 . S
C559 C560 1.398 . S
C559 C565 1.491 . S
C560 H551 0.950 . S
C560 C559 1.398 . S
C560 C561 1.391 . S
C561 H549 0.950 . S
C561 C557 1.393 . S
C561 C560 1.391 . S
C562 H552 0.950 . S
C562 C563 1.386 . S
C562 C564 1.391 . S
C563 C562 1.386 . S
C563 C567 1.393 . S
C564 H553 0.950 . S
C564 C562 1.391 . S
C564 C565 1.400 . S
C565 C559 1.491 . S
C565 C564 1.400 . S
C565 C566 1.398 . S
C566 H554 0.950 . S
C566 C565 1.398 . S
C566 C567 1.391 . S
C567 H555 0.950 . S
C567 C563 1.393 . S
C567 C566 1.391 . S
H568 C576 0.950 . S
H569 C581 0.950 . S
H570 C578 0.950 . S
H571 C580 0.950 . S
H572 C582 0.926 1_554 S
H573 C584 0.950 1_554 S
H574 C586 0.950 . S
H575 C587 0.950 . S
C576 H568 0.950 . S
C576 C577 1.386 . S
C576 C578 1.391 . S
C577 C576 1.386 . S
C577 C581 1.393 . S
C578 H570 0.950 . S
C578 C576 1.391 . S
C578 C579 1.400 . S
C579 C578 1.400 . S
C579 C580 1.398 . S
C579 C585 1.491 . S
C580 H571 0.950 . S
C580 C579 1.398 . S
C580 C581 1.391 . S
C581 H569 0.950 . S
C581 C577 1.393 . S
C581 C580 1.391 . S
C582 H572 0.926 1_556 S
C582 C583 1.402 . S
C582 C584 1.399 . S
C583 C582 1.402 . S
C583 C587 1.393 . S
C584 H573 0.950 1_556 S
C584 C582 1.399 . S
C584 C585 1.400 . S
C585 C579 1.491 . S
C585 C584 1.400 . S
C585 C586 1.398 . S
C586 H574 0.950 . S
C586 C585 1.398 . S
C586 C587 1.391 . S
C587 H575 0.950 . S
C587 C583 1.393 . S
C587 C586 1.391 . S
H588 C596 0.950 . S
H589 C601 0.950 . S
H590 C598 0.950 . S
H591 C600 0.950 . S
H592 C602 0.950 . S
H593 C604 0.950 . S
H594 C606 0.950 . S
H595 C607 0.950 . S
C596 H588 0.950 . S
C596 C597 1.386 . S
C596 C598 1.391 . S
C597 C596 1.386 . S
C597 C601 1.393 . S
C598 H590 0.950 . S
C598 C596 1.391 . S
C598 C599 1.400 . S
C599 C598 1.400 . S
C599 C600 1.398 . S
C599 C605 1.491 . S
C600 H591 0.950 . S
C600 C599 1.398 . S
C600 C601 1.391 . S
C601 H589 0.950 . S
C601 C597 1.393 . S
C601 C600 1.391 . S
C602 H592 0.950 . S
C602 C603 1.386 . S
C602 C604 1.391 . S
C603 C602 1.386 . S
C603 C607 1.393 . S
C604 H593 0.950 . S
C604 C602 1.391 . S
C604 C605 1.400 . S
C605 C599 1.491 . S
C605 C604 1.400 . S
C605 C606 1.398 . S
C606 H594 0.950 . S
C606 C605 1.398 . S
C606 C607 1.391 . S
C607 H595 0.950 . S
C607 C603 1.393 . S
C607 C606 1.391 . S
H608 C616 0.950 . S
H609 C621 0.950 . S
H610 C618 0.950 . S
H611 C620 0.950 . S
H612 C622 0.950 . S
H613 C624 0.950 . S
H614 C626 0.950 . S
H615 C627 0.950 . S
C616 H608 0.950 . S
C616 C617 1.386 . S
C616 C618 1.391 . S
C617 C616 1.386 . S
C617 C621 1.393 . S
C618 H610 0.950 . S
C618 C616 1.391 . S
C618 C619 1.400 . S
C619 C618 1.400 . S
C619 C620 1.398 . S
C619 C625 1.491 . S
C620 H611 0.950 . S
C620 C619 1.398 . S
C620 C621 1.391 . S
C621 H609 0.950 . S
C621 C617 1.393 . S
C621 C620 1.391 . S
C622 H612 0.950 . S
C622 C623 1.386 . S
C622 C624 1.391 . S
C623 C622 1.386 . S
C623 C627 1.393 . S
C624 H613 0.950 . S
C624 C622 1.391 . S
C624 C625 1.400 . S
C625 C619 1.491 . S
C625 C624 1.400 . S
C625 C626 1.398 . S
C626 H614 0.950 . S
C626 C625 1.398 . S
C626 C627 1.391 . S
C627 H615 0.950 . S
C627 C623 1.393 . S
C627 C626 1.391 . S
H628 C636 0.950 . S
H629 C641 0.950 . S
H630 C638 0.950 . S
H631 C640 0.950 . S
H632 C642 0.950 . S
H633 C644 0.950 . S
H634 C646 0.950 . S
H635 C647 0.950 . S
C636 H628 0.950 . S
C636 C637 1.386 . S
C636 C638 1.391 . S
C637 C636 1.386 . S
C637 C641 1.393 . S
C638 H630 0.950 . S
C638 C636 1.391 . S
C638 C639 1.400 . S
C639 C638 1.400 . S
C639 C640 1.398 . S
C639 C645 1.491 . S
C640 H631 0.950 . S
C640 C639 1.398 . S
C640 C641 1.391 . S
C641 H629 0.950 . S
C641 C637 1.393 . S
C641 C640 1.391 . S
C642 H632 0.950 . S
C642 C643 1.386 . S
C642 C644 1.391 . S
C643 C642 1.386 . S
C643 C647 1.393 . S
C644 H633 0.950 . S
C644 C642 1.391 . S
C644 C645 1.400 . S
C645 C639 1.491 . S
C645 C644 1.400 . S
C645 C646 1.398 . S
C646 H634 0.950 . S
C646 C645 1.398 . S
C646 C647 1.391 . S
C647 H635 0.950 . S
C647 C643 1.393 . S
C647 C646 1.391 . S
H648 C656 0.950 . S
H649 C661 0.950 . S
H650 C658 0.950 . S
H651 C660 0.950 . S
H652 C662 0.950 . S
H653 C664 0.950 . S
H654 C666 0.950 . S
H655 C667 0.950 . S
C656 H648 0.950 . S
C656 C657 1.386 . S
C656 C658 1.391 . S
C657 C656 1.386 . S
C657 C661 1.393 . S
C658 H650 0.950 . S
C658 C656 1.391 . S
C658 C659 1.400 . S
C659 C658 1.400 . S
C659 C660 1.398 . S
C659 C665 1.491 . S
C660 H651 0.950 . S
C660 C659 1.398 . S
C660 C661 1.391 . S
C661 H649 0.950 . S
C661 C657 1.393 . S
C661 C660 1.391 . S
C662 H652 0.950 . S
C662 C663 1.386 . S
C662 C664 1.391 . S
C663 C662 1.386 . S
C663 C667 1.393 . S
C664 H653 0.950 . S
C664 C662 1.391 . S
C664 C665 1.400 . S
C665 C659 1.491 . S
C665 C664 1.400 . S
C665 C666 1.398 . S
C666 H654 0.950 . S
C666 C665 1.398 . S
C666 C667 1.391 . S
C667 H655 0.950 . S
C667 C663 1.393 . S
C667 C666 1.391 . S
H668 C676 0.950 . S
H669 C681 0.950 . S
H670 C678 0.950 . S
H671 C680 0.950 . S
H672 C682 0.950 . S
H673 C684 0.950 . S
H674 C686 0.950 . S
H675 C687 0.950 . S
C676 H668 0.950 . S
C676 C677 1.386 . S
C676 C678 1.391 . S
C677 C676 1.386 . S
C677 C681 1.393 . S
C678 H670 0.950 . S
C678 C676 1.391 . S
C678 C679 1.400 . S
C679 C678 1.400 . S
C679 C680 1.398 . S
C679 C685 1.491 . S
C680 H671 0.950 . S
C680 C679 1.398 . S
C680 C681 1.391 . S
C681 H669 0.950 . S
C681 C677 1.393 . S
C681 C680 1.391 . S
C682 H672 0.950 . S
C682 C683 1.386 . S
C682 C684 1.391 . S
C683 C682 1.386 . S
C683 C687 1.393 . S
C684 H673 0.950 . S
C684 C682 1.391 . S
C684 C685 1.400 . S
C685 C679 1.491 . S
C685 C684 1.400 . S
C685 C686 1.398 . S
C686 H674 0.950 . S
C686 C685 1.398 . S
C686 C687 1.391 . S
C687 H675 0.950 . S
C687 C683 1.393 . S
C687 C686 1.391 . S
H688 C696 0.950 . S
H689 C701 0.950 . S
H690 C698 0.950 . S
H691 C700 0.950 . S
H692 C702 0.950 . S
H693 C704 0.950 . S
H694 C706 0.950 . S
H695 C707 0.950 . S
C696 H688 0.950 . S
C696 C697 1.386 . S
C696 C698 1.391 . S
C697 C696 1.386 . S
C697 C701 1.393 . S
C698 H690 0.950 . S
C698 C696 1.391 . S
C698 C699 1.400 . S
C699 C698 1.400 . S
C699 C700 1.398 . S
C699 C705 1.491 . S
C700 H691 0.950 . S
C700 C699 1.398 . S
C700 C701 1.391 . S
C701 H689 0.950 . S
C701 C697 1.393 . S
C701 C700 1.391 . S
C702 H692 0.950 . S
C702 C703 1.386 . S
C702 C704 1.391 . S
C703 C702 1.386 . S
C703 C707 1.393 . S
C704 H693 0.950 . S
C704 C702 1.391 . S
C704 C705 1.400 . S
C705 C699 1.491 . S
C705 C704 1.400 . S
C705 C706 1.398 . S
C706 H694 0.950 . S
C706 C705 1.398 . S
C706 C707 1.391 . S
C707 H695 0.950 . S
C707 C703 1.393 . S
C707 C706 1.391 . S
H708 C716 0.950 . S
H709 C721 0.950 . S
H710 C718 0.950 . S
H711 C720 0.950 . S
H712 C722 0.925 1_556 S
H713 C724 0.950 . S
H714 C726 0.950 . S
H715 C727 0.950 . S
C716 H708 0.950 . S
C716 C717 1.386 . S
C716 C718 1.391 . S
C717 C716 1.386 . S
C717 C721 1.393 . S
C718 H710 0.950 . S
C718 C716 1.391 . S
C718 C719 1.400 . S
C719 C718 1.400 . S
C719 C720 1.398 . S
C719 C725 1.491 . S
C720 H711 0.950 . S
C720 C719 1.398 . S
C720 C721 1.391 . S
C721 H709 0.950 . S
C721 C717 1.393 . S
C721 C720 1.391 . S
C722 H712 0.925 1_554 S
C722 C723 1.386 . S
C722 C724 1.391 . S
C723 C722 1.386 . S
C723 C727 1.393 . S
C724 H713 0.950 . S
C724 C722 1.391 . S
C724 C725 1.400 . S
C725 C719 1.491 . S
C725 C724 1.400 . S
C725 C726 1.398 . S
C726 H714 0.950 . S
C726 C725 1.398 . S
C726 C727 1.391 . S
C727 H715 0.950 . S
C727 C723 1.393 . S
C727 C726 1.391 . S
H728 C736 0.950 . S
H729 C741 0.950 . S
H730 C738 0.950 . S
H731 C740 0.950 . S
H732 C742 0.950 . S
H733 C744 0.950 . S
H734 C746 0.950 . S
H735 C747 0.950 . S
C736 H728 0.950 . S
C736 C737 1.386 . S
C736 C738 1.391 . S
C737 C736 1.386 . S
C737 C741 1.393 . S
C738 H730 0.950 . S
C738 C736 1.391 . S
C738 C739 1.400 . S
C739 C738 1.400 . S
C739 C740 1.398 . S
C739 C745 1.491 . S
C740 H731 0.950 . S
C740 C739 1.398 . S
C740 C741 1.391 . S
C741 H729 0.950 . S
C741 C737 1.393 . S
C741 C740 1.391 . S
C742 H732 0.950 . S
C742 C743 1.386 . S
C742 C744 1.391 . S
C743 C742 1.386 . S
C743 C747 1.393 . S
C744 H733 0.950 . S
C744 C742 1.391 . S
C744 C745 1.400 . S
C745 C739 1.491 . S
C745 C744 1.400 . S
C745 C746 1.398 . S
C746 H734 0.950 . S
C746 C745 1.398 . S
C746 C747 1.391 . S
C747 H735 0.950 . S
C747 C743 1.393 . S
C747 C746 1.391 . S
H748 C756 0.950 . S
H749 C761 0.950 . S
H750 C758 0.950 . S
H751 C760 0.950 . S
H752 C762 0.950 . S
H753 C764 0.950 . S
H754 C766 0.950 . S
H755 C767 0.950 . S
C756 H748 0.950 . S
C756 C757 1.386 . S
C756 C758 1.391 . S
C757 C756 1.386 . S
C757 C761 1.393 . S
C758 H750 0.950 . S
C758 C756 1.391 . S
C758 C759 1.400 . S
C759 C758 1.400 . S
C759 C760 1.398 . S
C759 C765 1.491 . S
C760 H751 0.950 . S
C760 C759 1.398 . S
C760 C761 1.391 . S
C761 H749 0.950 . S
C761 C757 1.393 . S
C761 C760 1.391 . S
C762 H752 0.950 . S
C762 C763 1.386 . S
C762 C764 1.391 . S
C763 C762 1.386 . S
C763 C767 1.393 . S
C764 H753 0.950 . S
C764 C762 1.391 . S
C764 C765 1.400 . S
C765 C759 1.491 . S
C765 C764 1.400 . S
C765 C766 1.398 . S
C766 H754 0.950 . S
C766 C765 1.398 . S
C766 C767 1.391 . S
C767 H755 0.950 . S
C767 C763 1.393 . S
C767 C766 1.391 . S
H768 C776 0.950 . S
H769 C781 0.950 . S
H770 C778 0.950 . S
H771 C780 0.950 . S
H772 C782 0.950 . S
H773 C784 0.950 . S
H774 C786 0.950 . S
H775 C787 0.950 . S
C776 H768 0.950 . S
C776 C777 1.386 . S
C776 C778 1.391 . S
C777 C776 1.386 . S
C777 C781 1.393 . S
C778 H770 0.950 . S
C778 C776 1.391 . S
C778 C779 1.400 . S
C779 C778 1.400 . S
C779 C780 1.398 . S
C779 C785 1.491 . S
C780 H771 0.950 . S
C780 C779 1.398 . S
C780 C781 1.391 . S
C781 H769 0.950 . S
C781 C777 1.393 . S
C781 C780 1.391 . S
C782 H772 0.950 . S
C782 C783 1.386 . S
C782 C784 1.391 . S
C783 C782 1.386 . S
C783 C787 1.393 . S
C784 H773 0.950 . S
C784 C782 1.391 . S
C784 C785 1.400 . S
C785 C779 1.491 . S
C785 C784 1.400 . S
C785 C786 1.398 . S
C786 H774 0.950 . S
C786 C785 1.398 . S
C786 C787 1.391 . S
C787 H775 0.950 . S
C787 C783 1.393 . S
C787 C786 1.391 . S
H788 C796 0.950 . S
H789 C801 0.950 . S
H790 C798 0.950 . S
H791 C800 0.950 1_554 S
H792 C802 0.950 . S
H793 C804 0.950 . S
H794 C806 0.950 . S
H795 C807 0.950 . S
C796 H788 0.950 . S
C796 C797 1.386 . S
C796 C798 1.391 . S
C797 C796 1.386 . S
C797 C801 1.393 1_556 S
C798 H790 0.950 . S
C798 C796 1.391 . S
C798 C799 1.400 . S
C799 C798 1.400 . S
C799 C800 1.398 . S
C799 C805 1.491 . S
C800 H791 0.950 1_556 S
C800 C799 1.398 . S
C800 C801 1.391 1_556 S
C801 H789 0.950 . S
C801 C797 1.393 1_554 S
C801 C800 1.391 1_554 S
C802 H792 0.950 . S
C802 C803 1.386 . S
C802 C804 1.391 . S
C803 C802 1.386 . S
C803 C807 1.393 . S
C804 H793 0.950 . S
C804 C802 1.391 . S
C804 C805 1.400 . S
C805 C799 1.491 . S
C805 C804 1.400 . S
C805 C806 1.398 . S
C806 H794 0.950 . S
C806 C805 1.398 . S
C806 C807 1.391 . S
C807 H795 0.950 . S
C807 C803 1.393 . S
C807 C806 1.391 . S
H808 C816 0.950 . S
H809 C821 0.950 . S
H810 C818 0.950 . S
H811 C820 0.950 . S
H812 C822 0.950 . S
H813 C824 0.950 . S
H814 C826 0.950 . S
H815 C827 0.950 . S
C816 H808 0.950 . S
C816 C817 1.386 . S
C816 C818 1.391 . S
C817 C816 1.386 . S
C817 C821 1.393 . S
C818 H810 0.950 . S
C818 C816 1.391 . S
C818 C819 1.400 . S
C819 C818 1.400 . S
C819 C820 1.398 . S
C819 C825 1.491 . S
C820 H811 0.950 . S
C820 C819 1.398 . S
C820 C821 1.391 . S
C821 H809 0.950 . S
C821 C817 1.393 . S
C821 C820 1.391 . S
C822 H812 0.950 . S
C822 C823 1.386 . S
C822 C824 1.391 . S
C823 C822 1.386 . S
C823 C827 1.393 . S
C824 H813 0.950 . S
C824 C822 1.391 . S
C824 C825 1.400 . S
C825 C819 1.491 . S
C825 C824 1.400 . S
C825 C826 1.398 . S
C826 H814 0.950 . S
C826 C825 1.398 . S
C826 C827 1.391 . S
C827 H815 0.950 . S
C827 C823 1.393 . S
C827 C826 1.391 . S
H828 C836 0.950 . S
H829 C841 0.950 . S
H830 C838 0.950 . S
H831 C840 0.950 . S
H832 C842 0.950 . S
H833 C844 0.950 . S
H834 C846 0.950 . S
H835 C847 0.950 . S
C836 H828 0.950 . S
C836 C837 1.386 . S
C836 C838 1.391 . S
C837 C836 1.386 . S
C837 C841 1.393 . S
C838 H830 0.950 . S
C838 C836 1.391 . S
C838 C839 1.400 . S
C839 C838 1.400 . S
C839 C840 1.398 . S
C839 C845 1.491 . S
C840 H831 0.950 . S
C840 C839 1.398 . S
C840 C841 1.391 . S
C841 H829 0.950 . S
C841 C837 1.393 . S
C841 C840 1.391 . S
C842 H832 0.950 . S
C842 C843 1.386 . S
C842 C844 1.391 . S
C843 C842 1.386 . S
C843 C847 1.393 . S
C844 H833 0.950 . S
C844 C842 1.391 . S
C844 C845 1.400 . S
C845 C839 1.491 . S
C845 C844 1.400 . S
C845 C846 1.398 . S
C846 H834 0.950 . S
C846 C845 1.398 . S
C846 C847 1.391 . S
C847 H835 0.950 . S
C847 C843 1.393 . S
C847 C846 1.391 . S
H848 C856 0.950 . S
H849 C861 0.950 . S
H850 C858 0.950 . S
H851 C860 0.950 . S
H852 C862 0.950 . S
H853 C864 0.950 . S
H854 C866 0.950 . S
H855 C867 0.950 . S
C856 H848 0.950 . S
C856 C857 1.386 . S
C856 C858 1.391 . S
C857 C856 1.386 . S
C857 C861 1.393 . S
C858 H850 0.950 . S
C858 C856 1.391 . S
C858 C859 1.400 . S
C859 C858 1.400 . S
C859 C860 1.398 . S
C859 C865 1.491 . S
C860 H851 0.950 . S
C860 C859 1.398 . S
C860 C861 1.391 . S
C861 H849 0.950 . S
C861 C857 1.393 . S
C861 C860 1.391 . S
C862 H852 0.950 . S
C862 C863 1.386 . S
C862 C864 1.391 . S
C863 C862 1.386 . S
C863 C867 1.393 . S
C864 H853 0.950 . S
C864 C862 1.391 . S
C864 C865 1.400 . S
C865 C859 1.491 . S
C865 C864 1.400 . S
C865 C866 1.398 . S
C866 H854 0.950 . S
C866 C865 1.398 . S
C866 C867 1.391 . S
C867 H855 0.950 . S
C867 C863 1.393 . S
C867 C866 1.391 . S
H868 C876 0.950 . S
H869 C881 0.950 . S
H870 C878 0.950 . S
H871 C880 0.950 . S
H872 C882 0.950 . S
H873 C884 0.950 . S
H874 C886 0.950 . S
H875 C887 0.950 . S
C876 H868 0.950 . S
C876 C877 1.386 . S
C876 C878 1.391 . S
C877 C876 1.386 . S
C877 C881 1.393 . S
C878 H870 0.950 . S
C878 C876 1.391 . S
C878 C879 1.400 . S
C879 C878 1.400 . S
C879 C880 1.398 . S
C879 C885 1.491 . S
C880 H871 0.950 . S
C880 C879 1.398 . S
C880 C881 1.391 . S
C881 H869 0.950 . S
C881 C877 1.393 . S
C881 C880 1.391 . S
C882 H872 0.950 . S
C882 C883 1.386 . S
C882 C884 1.391 . S
C883 C882 1.386 . S
C883 C887 1.393 . S
C884 H873 0.950 . S
C884 C882 1.391 . S
C884 C885 1.400 . S
C885 C879 1.491 . S
C885 C884 1.400 . S
C885 C886 1.398 . S
C886 H874 0.950 . S
C886 C885 1.398 . S
C886 C887 1.391 . S
C887 H875 0.950 . S
C887 C883 1.393 . S
C887 C886 1.391 . S
H888 C896 0.950 . S
H889 C901 0.950 . S
H890 C898 0.950 . S
H891 C900 0.950 . S
H892 C902 0.950 . S
H893 C904 0.950 . S
H894 C906 0.950 . S
H895 C907 0.950 . S
C896 H888 0.950 . S
C896 C897 1.386 . S
C896 C898 1.391 . S
C897 C896 1.386 . S
C897 C901 1.393 . S
C898 H890 0.950 . S
C898 C896 1.391 . S
C898 C899 1.400 . S
C899 C898 1.400 . S
C899 C900 1.398 . S
C899 C905 1.491 . S
C900 H891 0.950 . S
C900 C899 1.398 . S
C900 C901 1.391 . S
C901 H889 0.950 . S
C901 C897 1.393 . S
C901 C900 1.391 . S
C902 H892 0.950 . S
C902 C903 1.386 . S
C902 C904 1.391 . S
C903 C902 1.386 . S
C903 C907 1.393 . S
C904 H893 0.950 . S
C904 C902 1.391 . S
C904 C905 1.400 . S
C905 C899 1.491 . S
C905 C904 1.400 . S
C905 C906 1.398 . S
C906 H894 0.950 . S
C906 C905 1.398 . S
C906 C907 1.391 . S
C907 H895 0.950 . S
C907 C903 1.393 . S
C907 C906 1.391 . S
H908 C916 0.950 . S
H909 C921 0.950 . S
H910 C918 0.950 . S
H911 C920 0.950 . S
H912 C922 0.950 . S
H913 C924 0.950 . S
H914 C926 0.950 . S
H915 C927 0.950 . S
C916 H908 0.950 . S
C916 C917 1.386 . S
C916 C918 1.391 . S
C917 C916 1.386 . S
C917 C921 1.393 . S
C918 H910 0.950 . S
C918 C916 1.391 . S
C918 C919 1.400 . S
C919 C918 1.400 . S
C919 C920 1.398 . S
C919 C925 1.491 . S
C920 H911 0.950 . S
C920 C919 1.398 . S
C920 C921 1.391 . S
C921 H909 0.950 . S
C921 C917 1.393 . S
C921 C920 1.391 . S
C922 H912 0.950 . S
C922 C923 1.386 . S
C922 C924 1.391 . S
C923 C922 1.386 . S
C923 C927 1.393 . S
C924 H913 0.950 . S
C924 C922 1.391 . S
C924 C925 1.400 . S
C925 C919 1.491 . S
C925 C924 1.400 . S
C925 C926 1.398 . S
C926 H914 0.950 . S
C926 C925 1.398 . S
C926 C927 1.391 . S
C927 H915 0.950 . S
C927 C923 1.393 . S
C927 C926 1.391 . S
H928 C936 0.950 . S
H929 C941 0.950 . S
H930 C938 0.950 . S
H931 C940 0.950 . S
H932 C942 0.950 . S
H933 C944 0.950 . S
H934 C946 0.950 . S
H935 C947 0.950 . S
C936 H928 0.950 . S
C936 C937 1.386 . S
C936 C938 1.391 . S
C937 C936 1.386 . S
C937 C941 1.393 . S
C938 H930 0.950 . S
C938 C936 1.391 . S
C938 C939 1.400 . S
C939 C938 1.400 . S
C939 C940 1.398 . S
C939 C945 1.491 . S
C940 H931 0.950 . S
C940 C939 1.398 . S
C940 C941 1.391 . S
C941 H929 0.950 . S
C941 C937 1.393 . S
C941 C940 1.391 . S
C942 H932 0.950 . S
C942 C943 1.386 . S
C942 C944 1.391 . S
C943 C942 1.386 . S
C943 C947 1.393 . S
C944 H933 0.950 . S
C944 C942 1.391 . S
C944 C945 1.400 . S
C945 C939 1.491 . S
C945 C944 1.400 . S
C945 C946 1.398 . S
C946 H934 0.950 . S
C946 C945 1.398 . S
C946 C947 1.391 . S
C947 H935 0.950 . S
C947 C943 1.393 . S
C947 C946 1.391 . S
H948 C956 0.950 . S
H949 C961 0.950 . S
H950 C958 0.950 . S
H951 C960 0.950 . S
H952 C962 0.950 . S
H953 C964 0.950 . S
H954 C966 0.950 . S
H955 C967 0.950 . S
C956 H948 0.950 . S
C956 C957 1.386 . S
C956 C958 1.391 . S
C957 C956 1.386 . S
C957 C961 1.393 . S
C958 H950 0.950 . S
C958 C956 1.391 . S
C958 C959 1.400 . S
C959 C958 1.400 . S
C959 C960 1.398 . S
C959 C965 1.491 . S
C960 H951 0.950 . S
C960 C959 1.398 . S
C960 C961 1.391 . S
C961 H949 0.950 . S
C961 C957 1.393 . S
C961 C960 1.391 . S
C962 H952 0.950 . S
C962 C963 1.386 . S
C962 C964 1.391 . S
C963 C962 1.386 . S
C963 C967 1.393 . S
C964 H953 0.950 . S
C964 C962 1.391 . S
C964 C965 1.400 . S
C965 C959 1.491 . S
C965 C964 1.400 . S
C965 C966 1.398 . S
C966 H954 0.950 . S
C966 C965 1.398 . S
C966 C967 1.391 . S
C967 H955 0.950 . S
C967 C963 1.393 . S
C967 C966 1.391 . S
H968 C976 0.950 . S
H969 C981 0.950 . S
H970 C978 0.950 . S
H971 C980 0.950 . S
H972 C982 0.950 . S
H973 C984 0.950 . S
H974 C986 0.950 . S
H975 C987 0.950 . S
C976 H968 0.950 . S
C976 C977 1.386 . S
C976 C978 1.391 . S
C977 C976 1.386 . S
C977 C981 1.393 . S
C978 H970 0.950 . S
C978 C976 1.391 . S
C978 C979 1.400 . S
C979 C978 1.400 . S
C979 C980 1.398 . S
C979 C985 1.491 . S
C980 H971 0.950 . S
C980 C979 1.398 . S
C980 C981 1.391 . S
C981 H969 0.950 . S
C981 C977 1.393 . S
C981 C980 1.391 . S
C982 H972 0.950 . S
C982 C983 1.386 . S
C982 C984 1.391 . S
C983 C982 1.386 . S
C983 C987 1.393 . S
C984 H973 0.950 . S
C984 C982 1.391 . S
C984 C985 1.400 . S
C985 C979 1.491 . S
C985 C984 1.400 . S
C985 C986 1.398 . S
C986 H974 0.950 . S
C986 C985 1.398 . S
C986 C987 1.391 . S
C987 H975 0.950 . S
C987 C983 1.393 . S
C987 C986 1.391 . S
H988 C996 0.950 . S
H989 C1001 0.950 . S
H990 C998 0.950 . S
H991 C1000 0.950 . S
H992 C1002 0.950 . S
H993 C1004 0.950 . S
H994 C1006 0.950 . S
H995 C1007 0.950 . S
C996 H988 0.950 . S
C996 C997 1.386 . S
C996 C998 1.391 . S
C997 C996 1.386 . S
C997 C1001 1.393 . S
C998 H990 0.950 . S
C998 C996 1.391 . S
C998 C999 1.400 . S
C999 C998 1.400 . S
C999 C1000 1.398 . S
C999 C1005 1.491 . S
C1000 H991 0.950 . S
C1000 C999 1.398 . S
C1000 C1001 1.391 . S
C1001 H989 0.950 . S
C1001 C997 1.393 . S
C1001 C1000 1.391 . S
C1002 H992 0.950 . S
C1002 C1003 1.386 . S
C1002 C1004 1.391 . S
C1003 C1002 1.386 . S
C1003 C1007 1.393 1_556 S
C1004 H993 0.950 . S
C1004 C1002 1.391 . S
C1004 C1005 1.400 . S
C1005 C999 1.491 . S
C1005 C1004 1.400 . S
C1005 C1006 1.398 1_556 S
C1006 H994 0.950 . S
C1006 C1005 1.398 1_554 S
C1006 C1007 1.391 . S
C1007 H995 0.950 . S
C1007 C1003 1.393 1_554 S
C1007 C1006 1.391 . S
H1008 C1016 0.950 . S
H1009 C1021 0.950 . S
H1010 C1018 0.950 . S
H1011 C1020 0.950 . S
H1012 C1022 0.950 . S
H1013 C1024 0.950 . S
H1014 C1026 0.950 . S
H1015 C1027 0.950 . S
C1016 H1008 0.950 . S
C1016 C1017 1.386 . S
C1016 C1018 1.391 . S
C1017 C1016 1.386 . S
C1017 C1021 1.393 . S
C1018 H1010 0.950 . S
C1018 C1016 1.391 . S
C1018 C1019 1.400 . S
C1019 C1018 1.400 . S
C1019 C1020 1.398 . S
C1019 C1025 1.491 . S
C1020 H1011 0.950 . S
C1020 C1019 1.398 . S
C1020 C1021 1.391 . S
C1021 H1009 0.950 . S
C1021 C1017 1.393 . S
C1021 C1020 1.391 . S
C1022 H1012 0.950 . S
C1022 C1023 1.386 . S
C1022 C1024 1.391 . S
C1023 C1022 1.386 . S
C1023 C1027 1.393 . S
C1024 H1013 0.950 . S
C1024 C1022 1.391 . S
C1024 C1025 1.400 . S
C1025 C1019 1.491 . S
C1025 C1024 1.400 . S
C1025 C1026 1.398 . S
C1026 H1014 0.950 . S
C1026 C1025 1.398 . S
C1026 C1027 1.391 . S
C1027 H1015 0.950 . S
C1027 C1023 1.393 . S
C1027 C1026 1.391 . S
H1028 C1036 0.950 . S
H1029 C1041 0.950 . S
H1030 C1038 0.950 . S
H1031 C1040 0.950 . S
H1032 C1042 0.950 . S
H1033 C1044 0.950 . S
H1034 C1046 0.950 . S
H1035 C1047 0.950 . S
C1036 H1028 0.950 . S
C1036 C1037 1.386 . S
C1036 C1038 1.391 . S
C1037 C1036 1.386 . S
C1037 C1041 1.393 . S
C1038 H1030 0.950 . S
C1038 C1036 1.391 . S
C1038 C1039 1.400 . S
C1039 C1038 1.400 . S
C1039 C1040 1.398 . S
C1039 C1045 1.491 . S
C1040 H1031 0.950 . S
C1040 C1039 1.398 . S
C1040 C1041 1.391 . S
C1041 H1029 0.950 . S
C1041 C1037 1.393 . S
C1041 C1040 1.391 . S
C1042 H1032 0.950 . S
C1042 C1043 1.386 . S
C1042 C1044 1.391 . S
C1043 C1042 1.386 . S
C1043 C1047 1.393 . S
C1044 H1033 0.950 . S
C1044 C1042 1.391 . S
C1044 C1045 1.400 . S
C1045 C1039 1.491 . S
C1045 C1044 1.400 . S
C1045 C1046 1.398 . S
C1046 H1034 0.950 . S
C1046 C1045 1.398 . S
C1046 C1047 1.391 . S
C1047 H1035 0.950 . S
C1047 C1043 1.393 . S
C1047 C1046 1.391 . S
H1048 C1056 0.950 . S
H1049 C1061 0.950 . S
H1050 C1058 0.950 . S
H1051 C1060 0.950 . S
H1052 C1062 0.950 . S
H1053 C1064 0.950 . S
H1054 C1066 0.950 . S
H1055 C1067 0.950 . S
C1056 H1048 0.950 . S
C1056 C1057 1.386 . S
C1056 C1058 1.391 . S
C1057 C1056 1.386 . S
C1057 C1061 1.393 . S
C1058 H1050 0.950 . S
C1058 C1056 1.391 . S
C1058 C1059 1.400 . S
C1059 C1058 1.400 . S
C1059 C1060 1.398 . S
C1059 C1065 1.491 . S
C1060 H1051 0.950 . S
C1060 C1059 1.398 . S
C1060 C1061 1.391 . S
C1061 H1049 0.950 . S
C1061 C1057 1.393 . S
C1061 C1060 1.391 . S
C1062 H1052 0.950 . S
C1062 C1063 1.386 . S
C1062 C1064 1.391 . S
C1063 C1062 1.386 . S
C1063 C1067 1.393 . S
C1064 H1053 0.950 . S
C1064 C1062 1.391 . S
C1064 C1065 1.400 . S
C1065 C1059 1.491 . S
C1065 C1064 1.400 . S
C1065 C1066 1.398 . S
C1066 H1054 0.950 . S
C1066 C1065 1.398 . S
C1066 C1067 1.391 . S
C1067 H1055 0.950 . S
C1067 C1063 1.393 . S
C1067 C1066 1.391 . S
H1068 C1076 0.950 . S
H1069 C1081 0.970 . S
H1070 C1078 0.950 . S
H1071 C1080 0.950 . S
H1072 C1082 0.950 . S
H1073 C1084 0.950 1_554 S
H1074 C1086 0.950 . S
H1075 C1087 0.970 . S
C1076 H1068 0.950 . S
C1076 C1077 1.386 . S
C1076 C1078 1.391 . S
C1077 C1076 1.386 . S
C1077 C1081 1.361 1_455 S
C1078 H1070 0.950 . S
C1078 C1076 1.391 . S
C1078 C1079 1.400 . S
C1079 C1078 1.400 . S
C1079 C1080 1.398 1_455 S
C1079 C1085 1.491 1_455 S
C1080 H1071 0.950 . S
C1080 C1079 1.398 1_655 S
C1080 C1081 1.403 . S
C1081 H1069 0.970 . S
C1081 C1077 1.361 1_655 S
C1081 C1080 1.403 . S
C1082 H1072 0.950 . S
C1082 C1083 1.386 . S
C1082 C1084 1.391 . S
C1083 C1082 1.386 . S
C1083 C1087 1.361 1_655 S
C1084 H1073 0.950 1_556 S
C1084 C1082 1.391 . S
C1084 C1085 1.400 1_556 S
C1085 C1079 1.491 1_655 S
C1085 C1084 1.400 1_554 S
C1085 C1086 1.398 1_654 S
C1086 H1074 0.950 . S
C1086 C1085 1.398 1_456 S
C1086 C1087 1.403 . S
C1087 H1075 0.970 . S
C1087 C1083 1.361 1_455 S
C1087 C1086 1.403 . S
H1088 C1096 0.950 . S
H1089 C1101 0.950 . S
H1090 C1098 0.950 . S
H1091 C1100 0.950 . S
H1092 C1102 0.950 . S
H1093 C1104 0.950 . S
H1094 C1106 0.950 . S
H1095 C1107 0.950 . S
C1096 H1088 0.950 . S
C1096 C1097 1.386 . S
C1096 C1098 1.391 . S
C1097 C1096 1.386 . S
C1097 C1101 1.393 . S
C1098 H1090 0.950 . S
C1098 C1096 1.391 . S
C1098 C1099 1.400 . S
C1099 C1098 1.400 . S
C1099 C1100 1.398 . S
C1099 C1105 1.491 . S
C1100 H1091 0.950 . S
C1100 C1099 1.398 . S
C1100 C1101 1.391 . S
C1101 H1089 0.950 . S
C1101 C1097 1.393 . S
C1101 C1100 1.391 . S
C1102 H1092 0.950 . S
C1102 C1103 1.386 . S
C1102 C1104 1.391 . S
C1103 C1102 1.386 . S
C1103 C1107 1.393 . S
C1104 H1093 0.950 . S
C1104 C1102 1.391 . S
C1104 C1105 1.400 . S
C1105 C1099 1.491 . S
C1105 C1104 1.400 . S
C1105 C1106 1.398 . S
C1106 H1094 0.950 . S
C1106 C1105 1.398 . S
C1106 C1107 1.391 . S
C1107 H1095 0.950 . S
C1107 C1103 1.393 . S
C1107 C1106 1.391 . S
H1108 C1116 0.950 . S
H1109 C1121 0.950 . S
H1110 C1118 0.950 . S
H1111 C1120 0.950 . S
H1112 C1122 0.950 . S
H1113 C1124 0.950 . S
H1114 C1126 0.950 . S
H1115 C1127 0.950 . S
C1116 H1108 0.950 . S
C1116 C1117 1.386 . S
C1116 C1118 1.391 . S
C1117 C1116 1.386 . S
C1117 C1121 1.393 . S
C1118 H1110 0.950 . S
C1118 C1116 1.391 . S
C1118 C1119 1.400 . S
C1119 C1118 1.400 . S
C1119 C1120 1.398 . S
C1119 C1125 1.491 . S
C1120 H1111 0.950 . S
C1120 C1119 1.398 . S
C1120 C1121 1.391 . S
C1121 H1109 0.950 . S
C1121 C1117 1.393 . S
C1121 C1120 1.391 . S
C1122 H1112 0.950 . S
C1122 C1123 1.386 . S
C1122 C1124 1.391 . S
C1123 C1122 1.386 . S
C1123 C1127 1.393 . S
C1124 H1113 0.950 . S
C1124 C1122 1.391 . S
C1124 C1125 1.400 . S
C1125 C1119 1.491 . S
C1125 C1124 1.400 . S
C1125 C1126 1.398 . S
C1126 H1114 0.950 . S
C1126 C1125 1.398 . S
C1126 C1127 1.391 . S
C1127 H1115 0.950 . S
C1127 C1123 1.393 . S
C1127 C1126 1.391 . S
H1128 C1136 0.950 . S
H1129 C1141 0.950 . S
H1130 C1138 0.950 1_554 S
H1131 C1140 0.950 . S
H1132 C1142 0.950 . S
H1133 C1144 0.950 . S
H1134 C1146 0.950 . S
H1135 C1147 0.950 . S
C1136 H1128 0.950 . S
C1136 C1137 1.386 . S
C1136 C1138 1.391 . S
C1137 C1136 1.386 . S
C1137 C1141 1.393 1_545 S
C1138 H1130 0.950 1_556 S
C1138 C1136 1.391 . S
C1138 C1139 1.400 1_556 S
C1139 C1138 1.400 1_554 S
C1139 C1140 1.398 1_444 S
C1139 C1145 1.491 1_445 S
C1140 H1131 0.950 . S
C1140 C1139 1.398 1_666 S
C1140 C1141 1.391 1_655 S
C1141 H1129 0.950 . S
C1141 C1137 1.393 1_565 S
C1141 C1140 1.391 1_455 S
C1142 H1132 0.950 . S
C1142 C1143 1.386 . S
C1142 C1144 1.391 . S
C1143 C1142 1.386 . S
C1143 C1147 1.393 1_565 S
C1144 H1133 0.950 . S
C1144 C1142 1.391 . S
C1144 C1145 1.400 . S
C1145 C1139 1.491 1_665 S
C1145 C1144 1.400 . S
C1145 C1146 1.398 1_665 S
C1146 H1134 0.950 . S
C1146 C1145 1.398 1_445 S
C1146 C1147 1.391 1_455 S
C1147 H1135 0.950 . S
C1147 C1143 1.393 1_545 S
C1147 C1146 1.391 1_655 S
H1148 C1156 0.950 . S
H1149 C1161 0.950 . S
H1150 C1158 0.950 . S
H1151 C1160 0.950 . S
H1152 C1162 0.950 . S
H1153 C1164 0.950 . S
H1154 C1166 0.950 . S
H1155 C1167 0.950 . S
C1156 H1148 0.950 . S
C1156 C1157 1.386 1_565 S
C1156 C1158 1.391 . S
C1157 C1156 1.386 1_545 S
C1157 C1161 1.393 . S
C1158 H1150 0.950 . S
C1158 C1156 1.391 . S
C1158 C1159 1.400 1_565 S
C1159 C1158 1.400 1_545 S
C1159 C1160 1.398 . S
C1159 C1165 1.491 1_545 S
C1160 H1151 0.950 . S
C1160 C1159 1.398 . S
C1160 C1161 1.391 . S
C1161 H1149 0.950 . S
C1161 C1157 1.393 . S
C1161 C1160 1.391 . S
C1162 H1152 0.950 . S
C1162 C1163 1.386 1_545 S
C1162 C1164 1.391 . S
C1163 C1162 1.386 1_565 S
C1163 C1167 1.393 . S
C1164 H1153 0.950 . S
C1164 C1162 1.391 . S
C1164 C1165 1.400 1_545 S
C1165 C1159 1.491 1_565 S
C1165 C1164 1.400 1_565 S
C1165 C1166 1.398 . S
C1166 H1154 0.950 . S
C1166 C1165 1.398 . S
C1166 C1167 1.391 . S
C1167 H1155 0.950 . S
C1167 C1163 1.393 . S
C1167 C1166 1.391 . S
H1168 C1176 0.950 . S
H1169 C1181 0.950 . S
H1170 C1178 0.950 . S
H1171 C1180 0.950 . S
H1172 C1182 0.950 . S
H1173 C1184 0.950 . S
H1174 C1186 0.950 . S
H1175 C1187 0.950 . S
C1176 H1168 0.950 . S
C1176 C1177 1.386 . S
C1176 C1178 1.391 . S
C1177 C1176 1.386 . S
C1177 C1181 1.393 . S
C1178 H1170 0.950 . S
C1178 C1176 1.391 . S
C1178 C1179 1.400 . S
C1179 C1178 1.400 . S
C1179 C1180 1.398 . S
C1179 C1185 1.491 . S
C1180 H1171 0.950 . S
C1180 C1179 1.398 . S
C1180 C1181 1.391 . S
C1181 H1169 0.950 . S
C1181 C1177 1.393 . S
C1181 C1180 1.391 . S
C1182 H1172 0.950 . S
C1182 C1183 1.386 . S
C1182 C1184 1.391 . S
C1183 C1182 1.386 . S
C1183 C1187 1.393 . S
C1184 H1173 0.950 . S
C1184 C1182 1.391 . S
C1184 C1185 1.400 . S
C1185 C1179 1.491 . S
C1185 C1184 1.400 . S
C1185 C1186 1.398 . S
C1186 H1174 0.950 . S
C1186 C1185 1.398 . S
C1186 C1187 1.391 . S
C1187 H1175 0.950 . S
C1187 C1183 1.393 . S
C1187 C1186 1.391 . S
H1188 C1196 0.950 . S
H1189 C1201 0.950 . S
H1190 C1198 0.950 . S
H1191 C1200 0.950 1_554 S
H1192 C1202 0.950 . S
H1193 C1204 0.950 . S
H1194 C1206 0.950 . S
H1195 C1207 0.950 . S
C1196 H1188 0.950 . S
C1196 C1197 1.386 . S
C1196 C1198 1.391 . S
C1197 C1196 1.386 . S
C1197 C1201 1.393 . S
C1198 H1190 0.950 . S
C1198 C1196 1.391 . S
C1198 C1199 1.400 1_556 S
C1199 C1198 1.400 1_554 S
C1199 C1200 1.398 1_554 S
C1199 C1205 1.491 . S
C1200 H1191 0.950 1_556 S
C1200 C1199 1.398 1_556 S
C1200 C1201 1.391 . S
C1201 H1189 0.950 . S
C1201 C1197 1.393 . S
C1201 C1200 1.391 . S
C1202 H1192 0.950 . S
C1202 C1203 1.386 . S
C1202 C1204 1.391 . S
C1203 C1202 1.386 . S
C1203 C1207 1.393 . S
C1204 H1193 0.950 . S
C1204 C1202 1.391 . S
C1204 C1205 1.400 . S
C1205 C1199 1.491 . S
C1205 C1204 1.400 . S
C1205 C1206 1.398 . S
C1206 H1194 0.950 . S
C1206 C1205 1.398 . S
C1206 C1207 1.391 . S
C1207 H1195 0.950 . S
C1207 C1203 1.393 . S
C1207 C1206 1.391 . S
H1208 C1216 0.950 . S
H1209 C1221 0.950 . S
H1210 C1218 0.950 . S
H1211 C1220 0.950 . S
H1212 C1222 0.950 . S
H1213 C1224 0.950 . S
H1214 C1226 0.950 . S
H1215 C1227 0.950 . S
C1216 H1208 0.950 . S
C1216 C1217 1.386 . S
C1216 C1218 1.391 . S
C1217 C1216 1.386 . S
C1217 C1221 1.393 . S
C1218 H1210 0.950 . S
C1218 C1216 1.391 . S
C1218 C1219 1.400 . S
C1219 C1218 1.400 . S
C1219 C1220 1.398 . S
C1219 C1225 1.491 . S
C1220 H1211 0.950 . S
C1220 C1219 1.398 . S
C1220 C1221 1.391 . S
C1221 H1209 0.950 . S
C1221 C1217 1.393 . S
C1221 C1220 1.391 . S
C1222 H1212 0.950 . S
C1222 C1223 1.386 . S
C1222 C1224 1.391 . S
C1223 C1222 1.386 . S
C1223 C1227 1.393 . S
C1224 H1213 0.950 . S
C1224 C1222 1.391 . S
C1224 C1225 1.400 . S
C1225 C1219 1.491 . S
C1225 C1224 1.400 . S
C1225 C1226 1.398 . S
C1226 H1214 0.950 . S
C1226 C1225 1.398 . S
C1226 C1227 1.391 . S
C1227 H1215 0.950 . S
C1227 C1223 1.393 . S
C1227 C1226 1.391 . S
H1228 C1236 0.950 . S
H1229 C1241 0.950 . S
H1230 C1238 0.950 . S
H1231 C1240 0.950 . S
H1232 C1242 0.950 . S
H1233 C1244 0.950 . S
H1234 C1246 0.950 . S
H1235 C1247 0.950 . S
C1236 H1228 0.950 . S
C1236 C1237 1.386 . S
C1236 C1238 1.391 . S
C1237 C1236 1.386 . S
C1237 C1241 1.393 1_455 S
C1238 H1230 0.950 . S
C1238 C1236 1.391 . S
C1238 C1239 1.400 . S
C1239 C1238 1.400 . S
C1239 C1240 1.398 1_455 S
C1239 C1245 1.491 1_455 S
C1240 H1231 0.950 . S
C1240 C1239 1.398 1_655 S
C1240 C1241 1.391 . S
C1241 H1229 0.950 . S
C1241 C1237 1.393 1_655 S
C1241 C1240 1.391 . S
C1242 H1232 0.950 . S
C1242 C1243 1.386 . S
C1242 C1244 1.391 . S
C1243 C1242 1.386 . S
C1243 C1247 1.393 1_655 S
C1244 H1233 0.950 . S
C1244 C1242 1.391 . S
C1244 C1245 1.400 . S
C1245 C1239 1.491 1_655 S
C1245 C1244 1.400 . S
C1245 C1246 1.398 1_655 S
C1246 H1234 0.950 . S
C1246 C1245 1.398 1_455 S
C1246 C1247 1.391 . S
C1247 H1235 0.950 . S
C1247 C1243 1.393 1_455 S
C1247 C1246 1.391 . S
H1248 C1256 0.950 . S
H1249 C1261 0.950 . S
H1250 C1258 0.950 . S
H1251 C1260 0.950 . S
H1252 C1262 0.950 . S
H1253 C1264 0.950 . S
H1254 C1266 0.950 . S
H1255 C1267 0.950 . S
C1256 H1248 0.950 . S
C1256 C1257 1.386 . S
C1256 C1258 1.391 . S
C1257 C1256 1.386 . S
C1257 C1261 1.393 . S
C1258 H1250 0.950 . S
C1258 C1256 1.391 . S
C1258 C1259 1.400 . S
C1259 C1258 1.400 . S
C1259 C1260 1.398 . S
C1259 C1265 1.491 . S
C1260 H1251 0.950 . S
C1260 C1259 1.398 . S
C1260 C1261 1.391 . S
C1261 H1249 0.950 . S
C1261 C1257 1.393 . S
C1261 C1260 1.391 . S
C1262 H1252 0.950 . S
C1262 C1263 1.386 . S
C1262 C1264 1.391 . S
C1263 C1262 1.386 . S
C1263 C1267 1.393 . S
C1264 H1253 0.950 . S
C1264 C1262 1.391 . S
C1264 C1265 1.400 . S
C1265 C1259 1.491 . S
C1265 C1264 1.400 . S
C1265 C1266 1.398 . S
C1266 H1254 0.950 . S
C1266 C1265 1.398 . S
C1266 C1267 1.391 . S
C1267 H1255 0.950 . S
C1267 C1263 1.393 . S
C1267 C1266 1.391 . S
H1268 C1276 0.950 . S
H1269 C1281 0.950 . S
H1270 C1278 0.950 . S
H1271 C1280 0.950 . S
H1272 C1282 0.950 . S
H1273 C1284 0.950 . S
H1274 C1286 0.950 . S
H1275 C1287 0.950 . S
C1276 H1268 0.950 . S
C1276 C1277 1.386 . S
C1276 C1278 1.391 . S
C1277 C1276 1.386 . S
C1277 C1281 1.393 . S
C1278 H1270 0.950 . S
C1278 C1276 1.391 . S
C1278 C1279 1.400 . S
C1279 C1278 1.400 . S
C1279 C1280 1.398 . S
C1279 C1285 1.491 . S
C1280 H1271 0.950 . S
C1280 C1279 1.398 . S
C1280 C1281 1.391 . S
C1281 H1269 0.950 . S
C1281 C1277 1.393 . S
C1281 C1280 1.391 . S
C1282 H1272 0.950 . S
C1282 C1283 1.386 . S
C1282 C1284 1.391 . S
C1283 C1282 1.386 . S
C1283 C1287 1.393 . S
C1284 H1273 0.950 . S
C1284 C1282 1.391 . S
C1284 C1285 1.400 . S
C1285 C1279 1.491 . S
C1285 C1284 1.400 . S
C1285 C1286 1.398 . S
C1286 H1274 0.950 . S
C1286 C1285 1.398 . S
C1286 C1287 1.391 . S
C1287 H1275 0.950 . S
C1287 C1283 1.393 . S
C1287 C1286 1.391 . S
H1288 C1296 0.950 . S
H1289 C1301 0.950 . S
H1290 C1298 0.950 . S
H1291 C1300 0.950 . S
H1292 C1302 0.950 . S
H1293 C1304 0.950 . S
H1294 C1306 0.950 . S
H1295 C1307 0.950 . S
C1296 H1288 0.950 . S
C1296 C1297 1.386 1_455 S
C1296 C1298 1.391 1_565 S
C1297 C1296 1.386 1_655 S
C1297 C1301 1.393 . S
C1298 H1290 0.950 . S
C1298 C1296 1.391 1_545 S
C1298 C1299 1.400 1_445 S
C1299 C1298 1.400 1_665 S
C1299 C1300 1.398 . S
C1299 C1305 1.491 1_665 S
C1300 H1291 0.950 . S
C1300 C1299 1.398 . S
C1300 C1301 1.391 . S
C1301 H1289 0.950 . S
C1301 C1297 1.393 . S
C1301 C1300 1.391 . S
C1302 H1292 0.950 . S
C1302 C1303 1.386 1_655 S
C1302 C1304 1.391 1_545 S
C1303 C1302 1.386 1_455 S
C1303 C1307 1.393 . S
C1304 H1293 0.950 . S
C1304 C1302 1.391 1_565 S
C1304 C1305 1.400 1_665 S
C1305 C1299 1.491 1_445 S
C1305 C1304 1.400 1_445 S
C1305 C1306 1.398 . S
C1306 H1294 0.950 . S
C1306 C1305 1.398 . S
C1306 C1307 1.391 . S
C1307 H1295 0.950 . S
C1307 C1303 1.393 . S
C1307 C1306 1.391 . S
H1308 C1316 0.950 . S
H1309 C1321 0.950 . S
H1310 C1318 0.950 . S
H1311 C1320 0.950 1_554 S
H1312 C1322 0.950 . S
H1313 C1324 0.950 . S
H1314 C1326 0.950 . S
H1315 C1327 0.950 . S
C1316 H1308 0.950 . S
C1316 C1317 1.386 1_565 S
C1316 C1318 1.391 . S
C1317 C1316 1.386 1_545 S
C1317 C1321 1.393 . S
C1318 H1310 0.950 . S
C1318 C1316 1.391 . S
C1318 C1319 1.400 1_566 S
C1319 C1318 1.400 1_544 S
C1319 C1320 1.398 1_554 S
C1319 C1325 1.491 1_545 S
C1320 H1311 0.950 1_556 S
C1320 C1319 1.398 1_556 S
C1320 C1321 1.391 . S
C1321 H1309 0.950 . S
C1321 C1317 1.393 . S
C1321 C1320 1.391 . S
C1322 H1312 0.950 . S
C1322 C1323 1.386 1_545 S
C1322 C1324 1.391 . S
C1323 C1322 1.386 1_565 S
C1323 C1327 1.393 . S
C1324 H1313 0.950 . S
C1324 C1322 1.391 . S
C1324 C1325 1.400 1_545 S
C1325 C1319 1.491 1_565 S
C1325 C1324 1.400 1_565 S
C1325 C1326 1.398 . S
C1326 H1314 0.950 . S
C1326 C1325 1.398 . S
C1326 C1327 1.391 . S
C1327 H1315 0.950 . S
C1327 C1323 1.393 . S
C1327 C1326 1.391 . S
C377 C21 1.678 . S
C383 C224 1.640 . S
C397 C247 1.639 . S
C403 C44 1.677 . S
C417 C270 1.629 . S
C423 C67 1.679 . S
C437 C201 1.633 . S
C443 C90 1.678 . S
C457 C113 1.677 . S
C463 C316 1.627 . S
C477 C136 1.677 . S
C483 C339 1.642 . S
C497 C362 1.640 . S
C503 C159 1.677 . S
C517 C293 1.639 . S
C523 C182 1.678 . S
C537 C40 1.641 . S
C543 C205 1.678 . S
C557 C63 1.634 . S
C563 C228 1.677 1_565 S
C577 C86 1.636 . S
C583 C251 1.678 . S
C597 C274 1.677 1_545 S
C603 C17 1.642 . S
C617 C132 1.639 . S
C623 C297 1.678 . S
C637 C155 1.631 . S
C643 C320 1.677 1_545 S
C657 C178 1.623 . S
C663 C343 1.678 . S
C677 C109 1.624 . S
C683 C366 1.677 1_565 S
C697 C19 1.516 . S
C703 C363 1.542 . S
C717 C42 1.537 . S
C723 C110 1.557 . S
C737 C317 1.547 1_455 S
C743 C65 1.523 . S
C757 C156 1.548 . S
C763 C88 1.526 . S
C777 C111 1.516 . S
C783 C271 1.541 . S
C797 C18 1.544 1_556 S
C803 C134 1.520 . S
C817 C157 1.535 . S
C823 C225 1.556 1_655 S
C837 C180 1.532 . S
C843 C64 1.553 . S
C857 C203 1.525 . S
C863 C179 1.549 1_655 S
C877 C294 1.545 . S
C883 C226 1.522 . S
C897 C249 1.534 . S
C903 C133 1.555 . S
C917 C340 1.556 . S
C923 C272 1.535 . S
C937 C295 1.517 . S
C943 C87 1.542 1_455 S
C957 C202 1.557 . S
C963 C318 1.538 . S
C977 C341 1.516 . S
C983 C41 1.542 . S
C997 C364 1.538 . S
C1003 C248 1.557 1_556 S
C1017 C20 1.484 . S
C1023 C296 1.484 . S
C1037 C135 1.483 . S
C1043 C43 1.483 . S
C1057 C66 1.483 . S
C1063 C342 1.483 . S
C1077 C181 1.483 . S
C1083 C89 1.483 . S
C1097 C112 1.484 . S
C1103 C204 1.484 . S
C1117 C250 1.483 . S
C1123 C158 1.483 . S
C1137 C227 1.483 . S
C1143 C319 1.483 . S
C1157 C365 1.483 . S
C1163 C273 1.483 . S
C1177 C292 0.753 . S
C1183 C16 0.753 . S
C1197 C131 0.734 . S
C1203 C39 0.734 . S
C1217 C62 0.746 . S
C1223 C338 0.746 . S
C1237 C177 0.762 . S
C1243 C85 0.762 . S
C1257 C108 0.776 . S
C1263 C200 0.776 . S
C1277 C154 0.776 . S
C1283 C246 0.776 . S
C1297 C315 0.751 . S
C1303 C223 0.751 . S
C1317 C361 0.735 . S
C1323 C269 0.735 . S
