# Generated by pormake.
# Topology unf, (4)-cn, num edge types: 1
# Building blocks:
#     Node 0, Type 0, BuildingBlock: QUQFOY_clean_sbu_3, # of connection points: 4
#     Node 1, Type 0, BuildingBlock: QUQFOY_clean_sbu_3, # of connection points: 4
#     Node 2, Type 0, BuildingBlock: QUQFOY_clean_sbu_3, # of connection points: 4
#     Node 3, Type 0, BuildingBlock: QUQFOY_clean_sbu_3, # of connection points: 4
#     Node 4, Type 0, BuildingBlock: QUQFOY_clean_sbu_3, # of connection points: 4
#     Node 5, Type 0, BuildingBlock: QUQFOY_clean_sbu_3, # of connection points: 4
#     Node 6, Type 0, BuildingBlock: QUQFOY_clean_sbu_3, # of connection points: 4
#     Node 7, Type 0, BuildingBlock: QUQFOY_clean_sbu_3, # of connection points: 4
#     Node 8, Type 0, BuildingBlock: QUQFOY_clean_sbu_3, # of connection points: 4
#     Node 9, Type 0, BuildingBlock: QUQFOY_clean_sbu_3, # of connection points: 4
#     Node 10, Type 0, BuildingBlock: QUQFOY_clean_sbu_3, # of connection points: 4
#     Node 11, Type 0, BuildingBlock: QUQFOY_clean_sbu_3, # of connection points: 4
#     Edge 12, Type (0, 0), BuildingBlock: EZIPEK_clean_linker_0, # of connection points: 2
#     Edge 13, Type (0, 0), BuildingBlock: EZIPEK_clean_linker_0, # of connection points: 2
#     Edge 14, Type (0, 0), BuildingBlock: EZIPEK_clean_linker_0, # of connection points: 2
#     Edge 15, Type (0, 0), BuildingBlock: EZIPEK_clean_linker_0, # of connection points: 2
#     Edge 16, Type (0, 0), BuildingBlock: EZIPEK_clean_linker_0, # of connection points: 2
#     Edge 17, Type (0, 0), BuildingBlock: EZIPEK_clean_linker_0, # of connection points: 2
#     Edge 18, Type (0, 0), BuildingBlock: EZIPEK_clean_linker_0, # of connection points: 2
#     Edge 19, Type (0, 0), BuildingBlock: EZIPEK_clean_linker_0, # of connection points: 2
#     Edge 20, Type (0, 0), BuildingBlock: EZIPEK_clean_linker_0, # of connection points: 2
#     Edge 21, Type (0, 0), BuildingBlock: EZIPEK_clean_linker_0, # of connection points: 2
#     Edge 22, Type (0, 0), BuildingBlock: EZIPEK_clean_linker_0, # of connection points: 2
#     Edge 23, Type (0, 0), BuildingBlock: EZIPEK_clean_linker_0, # of connection points: 2
#     Edge 24, Type (0, 0), BuildingBlock: EZIPEK_clean_linker_0, # of connection points: 2
#     Edge 25, Type (0, 0), BuildingBlock: EZIPEK_clean_linker_0, # of connection points: 2
#     Edge 26, Type (0, 0), BuildingBlock: EZIPEK_clean_linker_0, # of connection points: 2
#     Edge 27, Type (0, 0), BuildingBlock: EZIPEK_clean_linker_0, # of connection points: 2
#     Edge 28, Type (0, 0), BuildingBlock: EZIPEK_clean_linker_0, # of connection points: 2
#     Edge 29, Type (0, 0), BuildingBlock: EZIPEK_clean_linker_0, # of connection points: 2
#     Edge 30, Type (0, 0), BuildingBlock: EZIPEK_clean_linker_0, # of connection points: 2
#     Edge 31, Type (0, 0), BuildingBlock: EZIPEK_clean_linker_0, # of connection points: 2
#     Edge 32, Type (0, 0), BuildingBlock: EZIPEK_clean_linker_0, # of connection points: 2
#     Edge 33, Type (0, 0), BuildingBlock: EZIPEK_clean_linker_0, # of connection points: 2
#     Edge 34, Type (0, 0), BuildingBlock: EZIPEK_clean_linker_0, # of connection points: 2
#     Edge 35, Type (0, 0), BuildingBlock: EZIPEK_clean_linker_0, # of connection points: 2
# Relax obj value: 0.221
# Max RMSD: 0.170
# Mean RMSD: 0.170
data_MOF--net-unf--node1-QUQFOY_clean_sbu_3--edge1-EZIPEK_clean_linker_0
_symmetry_space_group_name_H-M    P1
_symmetry_Int_Tables_number       1
_symmetry_cell_setting            triclinic
loop_
_symmetry_equiv_pos_as_xyz
'x, y, z'
_cell_length_a     28.679736
_cell_length_b     28.474858
_cell_length_c     28.526191
_cell_angle_alpha  90.021327
_cell_angle_beta   89.774002
_cell_angle_gamma 119.96184
loop_
_atom_site_label
_atom_site_type_symbol
_atom_site_fract_x
_atom_site_fract_y
_atom_site_fract_z
_atom_type_partial_charge
C0 C 0.04347 0.44185 0.0108 0.0
O1 O 0.06432 0.43545 0.97371 0.0
Cd2 Cd 0.09768 0.3741 0.97928 0.0
O3 O 0.05496 0.43115 0.05099 0.0
Cd4 Cd 0.11305 0.40226 0.08954 0.0
C5 C -0.00297 0.2958 0.06034 0.0
O6 O 0.17426 0.41039 0.02821 0.0
O7 O 0.15419 0.34658 0.07913 0.0
O8 O 0.17023 0.48515 0.13441 0.0
C9 C 0.18218 0.3734 0.04404 0.0
O10 O 0.01676 0.30522 0.01904 0.0
C11 C 0.1604 0.45969 0.17312 0.0
O12 O 0.02449 0.32382 0.09503 0.0
O13 O 0.12693 0.40915 0.17283 0.0
C14 C 0.52513 0.59848 0.99474 0.0
O15 O 0.51861 0.6166 0.95616 0.0
Cd16 Cd 0.57 0.71199 0.94237 0.0
O17 O 0.54672 0.62976 0.02958 0.0
Cd18 Cd 0.58012 0.72569 0.05004 0.0
C19 C 0.68232 0.72485 -0.00046 0.0
O20 O 0.5511 0.76835 0.99146 0.0
O21 O 0.62994 0.81657 0.02321 0.0
O22 O 0.51486 0.71495 0.11083 0.0
C23 C 0.59243 0.81456 -0.00159 0.0
O24 O 0.65598 0.72031 0.96234 0.0
C25 C 0.55052 0.73787 0.14223 0.0
O26 O 0.66546 0.73039 0.03925 0.0
O27 O 0.59884 0.75249 0.13133 0.0
C28 C 0.38332 0.91274 0.0181 0.0
O29 O 0.3772 0.88367 0.98229 0.0
Cd30 Cd 0.2862 0.83731 0.95357 0.0
O31 O 0.3442 0.90072 0.04591 0.0
Cd32 Cd 0.24984 0.83239 0.06135 0.0
C33 C 0.26476 0.93798 0.00119 0.0
O34 O 0.22129 0.76429 -0.00017 0.0
O35 O 0.16442 0.78803 0.02497 0.0
O36 O 0.25851 0.78453 0.12923 0.0
C37 C 0.17413 0.75802 -0.00142 0.0
O38 O 0.27462 0.91538 0.96703 0.0
C39 C 0.22941 0.79557 0.15565 0.0
O40 O 0.25184 0.91589 0.04156 0.0
O41 O 0.21189 0.82509 0.13872 0.0
C42 C 0.54322 0.93842 0.47734 0.0
O43 O 0.56205 0.93072 0.51491 0.0
Cd44 Cd 0.60276 0.87593 0.52643 0.0
O45 O 0.5421 0.914 0.43959 0.0
Cd46 Cd 0.58457 0.86066 0.41645 0.0
C47 C 0.70086 0.96611 0.45699 0.0
O48 O 0.5625 0.79608 0.48025 0.0
O49 O 0.63099 0.81279 0.43656 0.0
O50 O 0.51752 0.80399 0.35797 0.0
C51 C 0.59798 0.78412 0.46835 0.0
O52 O 0.69031 0.94111 0.49604 0.0
C53 C 0.55196 0.81849 0.32498 0.0
O54 O 0.66711 0.94749 0.42359 0.0
O55 O 0.60011 0.85444 0.33404 0.0
C56 C 0.07619 0.58434 0.49859 0.0
O57 O 0.10758 0.60727 0.53279 0.0
Cd58 Cd 0.12696 0.69853 0.543 0.0
O59 O 0.07323 0.61215 0.46514 0.0
Cd60 Cd 0.11681 0.70631 0.43754 0.0
C61 C 0.0075 0.67813 0.49407 0.0
O62 O 0.18972 0.76452 0.4898 0.0
O63 O 0.13806 0.79432 0.46336 0.0
O64 O 0.17325 0.70442 0.37371 0.0
C65 C 0.18108 0.8038 0.48373 0.0
O66 O 0.03625 0.68252 0.52953 0.0
C67 C 0.15278 0.72091 0.34294 0.0
O68 O 0.02682 0.68639 0.45275 0.0
O69 O 0.11403 0.72771 0.3556 0.0
C70 C 0.35502 0.43205 0.49136 0.0
O71 O 0.33304 0.42328 0.53157 0.0
Cd72 Cd 0.23876 0.36313 0.53404 0.0
O73 O 0.32797 0.42549 0.45417 0.0
Cd74 Cd 0.23671 0.40267 0.4285 0.0
C75 C 0.2462 0.29241 0.43671 0.0
O76 O 0.19436 0.4057 0.5007 0.0
O77 O 0.1428 0.34595 0.45013 0.0
O78 O 0.25575 0.48655 0.38677 0.0
C79 C 0.14744 0.3695 0.48904 0.0
O80 O 0.24164 0.29727 0.48066 0.0
C81 C 0.23361 0.4608 0.34933 0.0
O82 O 0.24438 0.32523 0.4077 0.0
O83 O 0.21489 0.40994 0.34913 0.0
C84 C 0.87128 0.48732 0.98879 0.0
O85 O 0.84061 0.48946 0.01968 0.0
Cd86 Cd 0.85891 0.57985 0.00727 0.0
O87 O 0.87988 0.5136 0.95079 0.0
Cd88 Cd 0.84648 0.56698 0.90999 0.0
C89 C 0.97093 0.63524 0.93249 0.0
O90 O 0.79443 0.58964 0.96298 0.0
O91 O 0.85583 0.65619 0.92255 0.0
O92 O 0.76802 0.49296 0.87178 0.0
C93 C 0.81468 0.63828 0.94888 0.0
O94 O 0.95025 0.62785 0.97334 0.0
C95 C 0.78117 0.51483 0.83147 0.0
O96 O 0.94165 0.61685 0.8963 0.0
O97 O 0.82576 0.5588 0.82757 0.0
C98 C 0.48102 0.3788 0.98564 0.0
O99 O 0.48592 0.34976 0.01668 0.0
Cd100 Cd 0.40669 0.26224 0.01688 0.0
O101 O 0.45077 0.35691 0.95051 0.0
Cd102 Cd 0.39666 0.26702 0.91464 0.0
C103 C 0.31746 0.29796 0.97011 0.0
O104 O 0.39703 0.19525 0.96114 0.0
O105 O 0.32043 0.17975 0.93288 0.0
O106 O 0.46078 0.27201 0.85559 0.0
C107 C 0.34776 0.16159 0.95268 0.0
O108 O 0.33661 0.28596 0.00536 0.0
C109 C 0.42896 0.2626 0.82145 0.0
O110 O 0.33246 0.29605 0.9285 0.0
O111 O 0.38362 0.25855 0.83036 0.0
C112 C 0.57893 0.11101 0.02537 0.0
O113 O 0.60787 0.12039 0.06157 0.0
Cd114 Cd 0.69644 0.13408 0.05787 0.0
O115 O 0.60068 0.12066 0.98469 0.0
Cd116 Cd 0.6892 0.15907 0.94392 0.0
C117 C 0.65961 0.03362 0.97277 0.0
O118 O 0.74763 0.20777 0.00789 0.0
O119 O 0.78352 0.1837 0.95344 0.0
O120 O 0.68849 0.22905 0.89294 0.0
C121 C 0.78885 0.2075 0.99228 0.0
O122 O 0.67161 0.05082 0.01471 0.0
C123 C 0.69648 0.20918 0.85579 0.0
O124 O 0.66171 0.06407 0.93927 0.0
O125 O 0.69771 0.16543 0.85979 0.0
C126 C 0.48188 0.10317 0.48144 0.0
O127 O 0.46101 0.10481 0.4427 0.0
Cd128 Cd 0.39903 0.13526 0.42398 0.0
O129 O 0.47575 0.12473 0.51831 0.0
Cd130 Cd 0.4126 0.15551 0.54115 0.0
C131 C 0.31925 0.03193 0.49721 0.0
O132 O 0.40918 0.20526 0.47415 0.0
O133 O 0.34493 0.1798 0.52474 0.0
O134 O 0.46963 0.2238 0.59883 0.0
C135 C 0.36563 0.20337 0.48623 0.0
O136 O 0.32674 0.05237 0.45623 0.0
C137 C 0.43793 0.1989 0.63286 0.0
O138 O 0.34631 0.05937 0.5325 0.0
O139 O 0.39628 0.15356 0.62434 0.0
C140 C 0.89542 0.36717 0.50603 0.0
O141 O 0.87785 0.3393 0.46877 0.0
Cd142 Cd 0.85107 0.24575 0.47155 0.0
O143 O 0.88207 0.3454 0.54665 0.0
Cd144 Cd 0.82569 0.2588 0.58994 0.0
C145 C 0.9447 0.27247 0.56252 0.0
O146 O 0.78077 0.20596 0.52425 0.0
O147 O 0.78346 0.15959 0.58235 0.0
O148 O 0.76294 0.27847 0.63357 0.0
C149 C 0.77279 0.16085 0.5394 0.0
O150 O 0.92751 0.26269 0.52045 0.0
C151 C 0.77541 0.26695 0.67306 0.0
O152 O 0.91568 0.2724 0.5965 0.0
O153 O 0.81234 0.25466 0.67353 0.0
C154 C 0.56917 0.46683 0.49127 0.0
O155 O 0.5993 0.46728 0.4585 0.0
Cd156 Cd 0.68674 0.54417 0.46783 0.0
O157 O 0.58908 0.49033 0.52989 0.0
Cd158 Cd 0.67591 0.53793 0.56941 0.0
C159 C 0.65147 0.62809 0.5283 0.0
O160 O 0.74646 0.53778 0.52228 0.0
O161 O 0.76341 0.61431 0.55276 0.0
O162 O 0.66766 0.46725 0.62304 0.0
C163 C 0.781 0.5861 0.53335 0.0
O164 O 0.66504 0.61434 0.49038 0.0
C165 C 0.68128 0.49809 0.65864 0.0
O166 O 0.65022 0.6058 0.56719 0.0
O167 O 0.68718 0.54504 0.65324 0.0
C168 C 0.27027 0.39314 0.00894 0.0
C169 C 0.21513 0.35584 0.01787 0.0
C170 C 0.2253 0.28116 0.9875 0.0
C171 C 0.28032 0.31831 0.97894 0.0
N172 N 0.35256 0.41035 0.96971 0.0
N173 N 0.13671 0.26881 0.00247 0.0
C174 C 0.30185 0.37471 0.9855 0.0
C175 C 0.19148 0.30107 0.00313 0.0
N176 N 0.29317 0.44514 0.02527 0.0
N177 N 0.20579 0.22681 0.98187 0.0
H178 H 0.11059 0.28284 0.0118 0.0
H179 H 0.11708 0.23003 0.98813 0.0
H180 H 0.22901 0.21114 0.96816 0.0
H181 H 0.16768 0.19727 0.99307 0.0
H182 H 0.33419 0.47278 0.02356 0.0
H183 H 0.27182 0.45999 0.04371 0.0
H184 H 0.36873 0.45221 0.96929 0.0
H185 H 0.37694 0.39785 0.95299 0.0
C186 C 0.64706 0.89706 0.9509 0.0
C187 C 0.59945 0.86476 0.97718 0.0
C188 C 0.58259 0.94054 0.98139 0.0
C189 C 0.63565 0.97513 0.96492 0.0
N190 N 0.7183 0.98795 0.93135 0.0
N191 N 0.52076 0.85467 0.01763 0.0
C192 C 0.66757 0.95378 0.94791 0.0
C193 C 0.56596 0.88565 0.99141 0.0
N194 N 0.67249 0.87313 0.92932 0.0
N195 N 0.54852 0.96053 0.98779 0.0
H196 H 0.50661 0.81395 0.02518 0.0
H197 H 0.49886 0.87012 0.03421 0.0
H198 H 0.55993 0.00083 0.98071 0.0
H199 H 0.50776 0.93611 -0.00462 0.0
H200 H 0.70525 0.89355 0.90679 0.0
H201 H 0.65737 0.83132 0.93066 0.0
H202 H 0.74601 0.97561 0.92346 0.0
H203 H 0.73354 0.02956 0.92752 0.0
C204 C 0.1097 0.6681 0.96287 0.0
C205 C 0.1343 0.72531 0.96252 0.0
C206 C 0.05771 0.7208 0.92145 0.0
C207 C 0.02987 0.66417 0.92863 0.0
N208 N 0.03265 0.58204 0.93942 0.0
N209 N 0.14314 0.80498 0.92527 0.0
C210 C 0.05743 0.63713 0.9433 0.0
C211 C 0.11208 0.7512 0.9358 0.0
N212 N 0.13469 0.64386 0.98436 0.0
N213 N 0.03107 0.7455 0.90399 0.0
H214 H 0.1835 0.82713 0.93509 0.0
H215 H 0.13082 0.82597 0.90342 0.0
H216 H -0.00837 0.72354 0.89172 0.0
H217 H 0.04721 0.78733 0.903 0.0
H218 H 0.11741 0.60224 0.98889 0.0
H219 H 0.17339 0.66584 -0.00196 0.0
H220 H 0.05138 0.55956 0.9463 0.0
H221 H -0.00582 0.55929 0.9252 0.0
C222 C 0.58019 0.65237 0.5177 0.0
C223 C 0.63501 0.6692 0.52586 0.0
C224 C 0.6596 0.76344 0.51342 0.0
C225 C 0.60732 0.74553 0.4955 0.0
N226 N 0.51646 0.67336 0.48136 0.0
N227 N 0.72741 0.73986 0.53337 0.0
C228 C 0.56669 0.69021 0.49887 0.0
C229 C 0.67485 0.72463 0.52491 0.0
N230 N 0.54149 0.60014 0.52733 0.0
N231 N 0.69401 0.81751 0.52037 0.0
H232 H 0.73941 0.7125 0.54421 0.0
H233 H 0.7593 0.77892 0.5275 0.0
H234 H 0.68284 0.8466 0.51402 0.0
H235 H 0.73108 0.83295 0.53693 0.0
H236 H 0.5004 0.58649 0.52652 0.0
H237 H 0.5506 0.57142 0.54033 0.0
H238 H 0.48654 0.63292 0.47894 0.0
H239 H 0.50508 0.69966 0.46681 0.0
C240 C 0.27041 0.88548 0.4699 0.0
C241 C 0.22133 0.85982 0.49523 0.0
C242 C 0.23828 0.94714 0.52629 0.0
C243 C 0.28738 0.97258 0.501 0.0
N244 N 0.35734 0.96542 0.4598 0.0
N245 N 0.16361 0.86269 0.55535 0.0
C246 C 0.30576 0.94146 0.47648 0.0
C247 C 0.20694 0.88964 0.52611 0.0
N248 N 0.28171 0.85749 0.43703 0.0
N249 N 0.22056 0.97792 0.54847 0.0
H250 H 0.1404 0.82045 0.55612 0.0
H251 H 0.15355 0.88156 0.58154 0.0
H252 H 0.24306 0.02015 0.54961 0.0
H253 H 0.18236 0.96202 0.56321 0.0
H254 H 0.31342 0.87612 0.41318 0.0
H255 H 0.25717 0.81619 0.43072 0.0
H256 H 0.37492 0.94373 0.44666 0.0
H257 H 0.38431 0.00667 0.46323 0.0
C258 C 0.0256 0.26389 0.5538 0.0
C259 C 0.00301 0.2956 0.5683 0.0
C260 C 0.08354 0.37864 0.5435 0.0
C261 C 0.10319 0.34619 0.52359 0.0
N262 N 0.10421 0.26199 0.52484 0.0
N263 N 0.01697 0.38217 0.59399 0.0
C264 C 0.07793 0.28995 0.5339 0.0
C265 C 0.03478 0.35285 0.56959 0.0
N266 N -0.00465 0.20876 0.55675 0.0
N267 N 0.10908 0.4331 0.5346 0.0
H268 H -0.01839 0.36384 0.61374 0.0
H269 H 0.03953 0.42393 0.59876 0.0
H270 H 0.14456 0.45339 0.51517 0.0
H271 H 0.09374 0.45802 0.54415 0.0
H272 H 0.00623 0.18236 0.54153 0.0
H273 H 0.95812 0.18973 0.57388 0.0
H274 H 0.08953 0.22176 0.53455 0.0
H275 H 0.14332 0.2807 0.51145 0.0
C276 C 0.7357 0.68032 0.02519 0.0
C277 C 0.72938 0.71689 -0.00458 0.0
C278 C 0.78732 0.70943 0.93649 0.0
C279 C 0.79384 0.67327 0.96645 0.0
N280 N 0.7948 0.64637 0.04649 0.0
N281 N 0.76695 0.78222 0.93271 0.0
C282 C 0.77502 0.66623 0.0133 0.0
C283 C 0.76177 0.73722 0.9546 0.0
N284 N 0.70211 0.65515 0.06236 0.0
N285 N 0.80118 0.71439 0.89013 0.0
H286 H 0.74944 0.80395 0.94617 0.0
H287 H 0.79329 0.801 0.9047 0.0
H288 H 0.81732 0.6929 0.87401 0.0
H289 H 0.79169 0.73624 0.86651 0.0
H290 H 0.70255 0.62379 0.08086 0.0
H291 H 0.67074 0.66117 0.07263 0.0
H292 H 0.78493 0.64431 0.08195 0.0
H293 H 0.82619 0.63889 0.03939 0.0
C294 C 0.28717 0.06223 0.93675 0.0
C295 C 0.32198 0.10422 0.96771 0.0
C296 C 0.31667 0.03661 0.02336 0.0
C297 C 0.27784 -0.00532 0.99445 0.0
N298 N 0.21585 0.96889 0.92996 0.0
N299 N 0.35452 0.1298 0.04696 0.0
C300 C 0.25951 0.00804 0.9533 0.0
C301 C 0.33201 0.09102 0.01306 0.0
N302 N 0.28309 0.07319 0.89078 0.0
N303 N 0.34199 0.02565 0.05863 0.0
H304 H 0.36299 0.16949 0.0419 0.0
H305 H 0.3583 0.12077 0.08168 0.0
H306 H 0.33431 0.98695 0.0672 0.0
H307 H 0.37493 0.05607 0.07646 0.0
H308 H 0.26206 0.04294 0.86608 0.0
H309 H 0.30546 0.11165 0.87598 0.0
H310 H 0.19808 0.97741 0.9019 0.0
H311 H 0.19409 0.92896 0.94199 0.0
C312 C 0.90851 0.28931 0.07237 0.0
C313 C 0.93785 0.26217 0.06398 0.0
C314 C 0.85893 0.189 0.02571 0.0
C315 C 0.83671 0.2237 0.02205 0.0
N316 N 0.84199 0.30911 0.04129 0.0
N317 N 0.93995 0.18355 0.03664 0.0
C318 C 0.86119 0.27403 0.04611 0.0
C319 C 0.91227 0.21063 0.04249 0.0
N320 N 0.92641 0.33039 0.1043 0.0
N321 N 0.82869 0.13536 0.01445 0.0
H322 H 0.97802 0.19759 0.05118 0.0
H323 H 0.92612 0.14886 0.01614 0.0
H324 H 0.78831 0.1175 0.0049 0.0
H325 H 0.84166 0.10752 0.01974 0.0
H326 H 0.90447 0.34904 0.11388 0.0
H327 H 0.95937 0.34083 0.12583 0.0
H328 H 0.86174 0.34843 0.05453 0.0
H329 H 0.8093 0.30138 0.02031 0.0
C330 C 0.27731 0.18267 0.45243 0.0
C331 C 0.33405 0.21757 0.454 0.0
C332 C 0.32351 0.28457 0.40901 0.0
C333 C 0.26859 0.25785 0.42237 0.0
N334 N 0.19025 0.1774 0.44917 0.0
N335 N 0.41233 0.30177 0.42958 0.0
C336 C 0.24431 0.20481 0.44059 0.0
C337 C 0.35784 0.26794 0.42978 0.0
N338 N 0.25541 0.1288 0.46228 0.0
N339 N 0.3429 0.32667 0.37797 0.0
H340 H 0.43937 0.29208 0.44473 0.0
H341 H 0.43073 0.34141 0.41701 0.0
H342 H 0.31778 0.33773 0.36086 0.0
H343 H 0.38205 0.34568 0.36478 0.0
H344 H 0.21459 0.10081 0.45876 0.0
H345 H 0.27919 0.11137 0.46906 0.0
H346 H 0.17065 0.14104 0.46774 0.0
H347 H 0.16563 0.19284 0.43873 0.0
C348 C 0.73606 0.10482 0.46551 0.0
C349 C 0.76853 0.11844 0.50643 0.0
C350 C 0.78312 0.04198 0.4923 0.0
C351 C 0.74356 0.02407 0.45705 0.0
N352 N 0.71317 0.05501 0.39209 0.0
N353 N 0.84427 0.11636 0.54168 0.0
C354 C 0.73086 0.06157 0.43717 0.0
C355 C 0.79915 0.09229 0.51458 0.0
N356 N 0.70773 0.13027 0.45503 0.0
N357 N 0.80301 0.0094 0.50562 0.0
H358 H 0.85981 0.15543 0.55495 0.0
H359 H 0.8698 0.10056 0.54613 0.0
H360 H 0.79337 0.97392 0.48729 0.0
H361 H 0.82708 0.01662 0.53502 0.0
H362 H 0.68239 0.11993 0.42625 0.0
H363 H 0.70585 0.15868 0.47667 0.0
H364 H 0.70649 0.08326 0.37466 0.0
H365 H 0.71189 0.02455 0.37081 0.0
C366 C 0.9323 0.67673 0.5396 0.0
C367 C 0.9495 0.65727 0.50142 0.0
C368 C 0.85583 0.59733 0.4796 0.0
C369 C 0.83886 0.61013 0.52213 0.0
N370 N 0.86413 0.6514 0.59912 0.0
N371 N 0.92568 0.58599 0.44389 0.0
C372 C 0.87793 0.64696 0.5541 0.0
C373 C 0.91086 0.61386 0.47371 0.0
N374 N 0.9674 0.72393 0.56159 0.0
N375 N 0.82047 0.57149 0.44397 0.0
H376 H 0.96495 0.59325 0.44097 0.0
H377 H 0.8976 0.55107 0.42645 0.0
H378 H 0.78053 0.56242 0.4449 0.0
H379 H 0.8328 0.56543 0.41118 0.0
H380 H 0.95514 0.74162 0.58726 0.0
H381 H 0.00713 0.74838 0.55048 0.0
H382 H 0.89258 0.67473 0.62433 0.0
H383 H 0.82574 0.62669 0.61298 0.0
C384 C 0.178 0.48694 0.3013 0.0
C385 C 0.22702 0.48704 0.30734 0.0
C386 C 0.24243 0.49346 0.22278 0.0
C387 C 0.18986 0.48546 0.21659 0.0
N388 N 0.11565 0.49266 0.24705 0.0
N389 N 0.31361 0.50846 0.27744 0.0
C390 C 0.16053 0.48881 0.25514 0.0
C391 C 0.26215 0.49709 0.26905 0.0
N392 N 0.14695 0.48153 0.3396 0.0
N393 N 0.27146 0.49339 0.18469 0.0
H394 H 0.328 0.51103 0.31147 0.0
H395 H 0.34299 0.51977 0.25156 0.0
H396 H 0.2587 0.4925 0.15036 0.0
H397 H 0.30733 0.49273 0.18685 0.0
H398 H 0.10803 0.47527 0.33777 0.0
H399 H 0.16033 0.48229 0.37373 0.0
H400 H 0.09379 0.49863 0.27323 0.0
H401 H 0.10305 0.49439 0.21311 0.0
C402 C 0.52419 0.71804 0.22659 0.0
C403 C 0.53808 0.75358 0.18783 0.0
C404 C 0.54279 0.82508 0.2388 0.0
C405 C 0.53814 0.79283 0.27825 0.0
N406 N 0.52508 0.70887 0.31105 0.0
N407 N 0.55903 0.84006 0.15512 0.0
C408 C 0.52787 0.73888 0.2726 0.0
C409 C 0.54619 0.80669 0.19329 0.0
N410 N 0.50775 0.66457 0.21922 0.0
N411 N 0.54324 0.87291 0.24513 0.0
H412 H 0.55921 0.82702 0.12095 0.0
H413 H 0.57177 0.88121 0.15724 0.0
H414 H 0.54023 0.88684 0.27824 0.0
H415 H 0.5418 0.89636 0.21783 0.0
H416 H 0.49213 0.63522 0.24546 0.0
H417 H 0.50539 0.64866 0.18578 0.0
H418 H 0.52414 0.67191 0.30917 0.0
H419 H 0.52682 0.7223 0.34534 0.0
C420 C 0.23218 0.81327 0.24159 0.0
C421 C 0.21607 0.77528 0.20447 0.0
C422 C 0.16801 0.70053 0.26047 0.0
C423 C 0.1777 0.73899 0.29611 0.0
N424 N 0.21757 0.83203 0.32152 0.0
N425 N 0.16532 0.6829 0.17704 0.0
C426 C 0.20959 0.79543 0.28696 0.0
C427 C 0.18371 0.7188 0.21351 0.0
N428 N 0.2705 0.86615 0.23365 0.0
N429 N 0.14368 0.64666 0.27151 0.0
H430 H 0.1757 0.69453 0.14218 0.0
H431 H 0.13669 0.64206 0.18079 0.0
H432 H 0.13026 0.63195 0.30529 0.0
H433 H 0.14057 0.61704 0.24825 0.0
H434 H 0.28812 0.8949 0.26008 0.0
H435 H 0.28859 0.88029 0.20095 0.0
H436 H 0.23462 0.87348 0.31562 0.0
H437 H 0.20445 0.82078 0.35598 0.0
C438 C 0.69687 0.49433 0.78857 0.0
C439 C 0.74535 0.49238 0.79058 0.0
C440 C 0.7433 0.47874 0.70594 0.0
C441 C 0.69633 0.48354 0.70351 0.0
N442 N 0.61943 0.47847 0.74225 0.0
N443 N 0.80415 0.46493 0.75534 0.0
C444 C 0.66998 0.48523 0.74496 0.0
C445 C 0.76481 0.4783 0.75052 0.0
N446 N 0.67861 0.5086 0.82732 0.0
N447 N 0.76983 0.47897 0.66592 0.0
H448 H 0.8201 0.46404 0.78796 0.0
H449 H 0.81686 0.44957 0.7281 0.0
H450 H 0.75575 0.47899 0.63235 0.0
H451 H 0.80782 0.48262 0.66591 0.0
H452 H 0.64741 0.51729 0.82643 0.0
H453 H 0.69658 0.51483 0.86014 0.0
H454 H 0.59589 0.47452 0.7715 0.0
H455 H 0.5991 0.47141 0.71045 0.0
C456 C 0.44301 0.28576 0.73616 0.0
C457 C 0.44201 0.25258 0.77359 0.0
C458 C 0.45546 0.19481 0.71786 0.0
C459 C 0.44699 0.22231 0.68045 0.0
N460 N 0.42861 0.29172 0.65331 0.0
N461 N 0.44274 0.17236 0.80044 0.0
C462 C 0.44048 0.26778 0.68928 0.0
C463 C 0.4479 0.20668 0.7647 0.0
N464 N 0.447 0.33471 0.74555 0.0
N465 N 0.47113 0.15763 0.70847 0.0
H466 H 0.43654 0.17887 0.83529 0.0
H467 H 0.44034 0.13503 0.79511 0.0
H468 H 0.47713 0.14832 0.67438 0.0
H469 H 0.48322 0.14013 0.73427 0.0
H470 H 0.45322 0.36316 0.71975 0.0
H471 H 0.44938 0.34906 0.77964 0.0
H472 H 0.41742 0.32099 0.65828 0.0
H473 H 0.42591 0.27942 0.61854 0.0
C474 C 0.67333 0.20912 0.77182 0.0
C475 C 0.7081 0.23677 0.80965 0.0
C476 C 0.77657 0.29942 0.75431 0.0
C477 C 0.74675 0.2644 0.71717 0.0
N478 N 0.66518 0.18734 0.68897 0.0
N479 N 0.79191 0.31056 0.83815 0.0
C480 C 0.69397 0.22044 0.72522 0.0
C481 C 0.75896 0.28361 0.80133 0.0
N482 N 0.62077 0.17175 0.78089 0.0
N483 N 0.82193 0.34748 0.74426 0.0
H484 H 0.77986 0.30116 0.87302 0.0
H485 H 0.83197 0.34071 0.8343 0.0
H486 H 0.835 0.35964 0.70987 0.0
H487 H 0.84345 0.37724 0.76914 0.0
H488 H 0.59176 0.15313 0.75498 0.0
H489 H 0.6052 0.16337 0.81495 0.0
H490 H 0.62937 0.15086 0.6934 0.0
H491 H 0.67837 0.19515 0.65426 0.0
C492 C -0.00081 0.49555 0.03204 0.0
C493 C -0.00214 0.45186 0.00719 0.0
C494 C 0.90905 0.42649 0.97539 0.0
C495 C 0.90966 0.46926 0.0011 0.0
N496 N 0.95132 0.54026 0.05936 0.0
N497 N 0.94591 0.3671 0.96572 0.0
C498 C 0.95321 0.50205 0.03157 0.0
C499 C 0.95124 0.41485 0.98172 0.0
N500 N 0.0456 0.5327 0.05375 0.0
N501 N 0.86836 0.39738 0.94444 0.0
H502 H 0.97479 0.35569 0.97091 0.0
H503 H 0.9105 0.33611 0.95141 0.0
H504 H 0.83476 0.40222 0.94133 0.0
H505 H 0.86925 0.37049 0.92019 0.0
H506 H 0.05167 0.56912 0.06765 0.0
H507 H 0.08039 0.52974 0.05427 0.0
H508 H 0.97839 0.56039 0.08632 0.0
H509 H 0.9207 0.54971 0.05812 0.0
C510 C 0.55121 0.53095 0.96875 0.0
C511 C 0.51724 0.5431 -0.00358 0.0
C512 C 0.4707 0.45036 0.02723 0.0
C513 C 0.49973 0.43657 0.99463 0.0
N514 N 0.56555 0.46192 0.93297 0.0
N515 N 0.44492 0.51608 0.05197 0.0
C516 C 0.53964 0.47647 0.96518 0.0
C517 C 0.47757 0.50347 0.02628 0.0
N518 N 0.59584 0.57188 0.9474 0.0
N519 N 0.43561 0.41228 0.05822 0.0
H520 H 0.44883 0.55452 0.0518 0.0
H521 H 0.41196 0.48823 0.0715 0.0
H522 H 0.42692 0.37215 0.05848 0.0
H523 H 0.41719 0.42072 0.08583 0.0
H524 H 0.62535 0.56643 0.93111 0.0
H525 H 0.60619 0.61247 0.94959 0.0
H526 H 0.5899 0.48747 0.90631 0.0
H527 H 0.56047 0.42301 0.93143 0.0
C528 C 0.44118 0.00677 0.98525 0.0
C529 C 0.4307 0.96803 0.02151 0.0
C530 C 0.49896 0.04046 0.06977 0.0
C531 C 0.51938 0.07375 0.02948 0.0
N532 N 0.50103 0.09683 0.95361 0.0
N533 N 0.45028 0.94857 0.09903 0.0
C534 C 0.48718 0.05954 0.98873 0.0
C535 C 0.45935 0.9852 0.06427 0.0
N536 N 0.40621 -0.00602 0.94868 0.0
N537 N 0.51577 0.06225 0.11323 0.0
H538 H 0.42235 0.90735 0.09594 0.0
H539 H 0.47396 0.95842 0.12902 0.0
H540 H 0.54037 0.10393 0.11807 0.0
H541 H 0.49941 0.0405 0.14411 0.0
H542 H 0.40827 0.02192 0.92408 0.0
H543 H 0.37244 0.95596 0.94421 0.0
H544 H 0.48462 0.08791 0.92012 0.0
H545 H 0.52979 0.13756 0.95862 0.0
C546 C 0.55306 0.02614 0.44727 0.0
C547 C 0.52682 0.98019 0.47737 0.0
C548 C 0.4769 0.01891 0.51541 0.0
C549 C 0.50268 0.06485 0.4849 0.0
N550 N 0.57081 0.11673 0.42753 0.0
N551 N 0.45608 0.92695 0.53234 0.0
C552 C 0.54195 0.06938 0.45208 0.0
C553 C 0.48722 0.97536 0.50981 0.0
N554 N 0.58801 0.02814 0.41353 0.0
N555 N 0.44202 0.01611 0.54963 0.0
H556 H 0.4611 0.89338 0.52786 0.0
H557 H 0.42173 0.9177 0.55174 0.0
H558 H 0.42691 0.04234 0.55253 0.0
H559 H 0.42957 0.98869 0.57738 0.0
H560 H 0.60099 0.05508 0.38544 0.0
H561 H 0.60262 0.0013 0.41195 0.0
H562 H 0.60295 0.12521 0.40539 0.0
H563 H 0.56533 0.15002 0.43208 0.0
C564 C -0.01002 0.43272 0.48031 0.0
C565 C 0.94127 0.42307 0.50249 0.0
C566 C -0.01414 0.51683 0.52966 0.0
C567 C 0.0324 0.52778 0.50321 0.0
N568 N 0.07656 0.49887 0.44798 0.0
N569 N 0.88997 0.45771 0.54124 0.0
C570 C 0.03368 0.48657 0.47669 0.0
C571 C 0.93842 0.46566 0.52529 0.0
N572 N -0.00417 0.39038 0.46509 0.0
N573 N -0.01288 0.55507 0.55944 0.0
H574 H 0.85428 0.42073 0.53804 0.0
H575 H 0.88414 0.48888 0.55346 0.0
H576 H 0.02115 0.59293 0.56417 0.0
H577 H 0.95617 0.54754 0.58283 0.0
H578 H 0.03229 0.39487 0.45339 0.0
H579 H 0.96593 0.34995 0.46815 0.0
H580 H 0.07687 0.47175 0.42365 0.0
H581 H 0.11058 0.53743 0.44637 0.0
C582 C 0.41861 0.39772 0.50643 0.0
C583 C 0.40919 0.43835 0.4871 0.0
C584 C 0.50135 0.4866 0.45649 0.0
C585 C 0.51267 0.45065 0.48219 0.0
N586 N 0.484 0.37323 0.53246 0.0
N587 N 0.44078 0.52198 0.44455 0.0
C588 C 0.47174 0.40642 0.50725 0.0
C589 C 0.4501 0.48251 0.4616 0.0
N590 N 0.37647 0.34967 0.5219 0.0
N591 N 0.54005 0.52554 0.4283 0.0
H592 H 0.40432 0.52123 0.44902 0.0
H593 H 0.46998 0.5576 0.42881 0.0
H594 H 0.57894 0.53181 0.42526 0.0
H595 H 0.53295 0.54938 0.40505 0.0
H596 H 0.38026 0.31659 0.53194 0.0
H597 H 0.3365 0.34038 0.52026 0.0
H598 H 0.45769 0.34455 0.55635 0.0
H599 H 0.52175 0.37618 0.53105 0.0
loop_
_geom_bond_atom_site_label_1
_geom_bond_atom_site_label_2
_geom_bond_distance
_geom_bond_site_symmetry_2
_ccdc_geom_bond_type
C0 O1 1.306 . S
C0 O3 1.160 . S
O1 C0 1.306 . S
O1 Cd2 2.228 1_554 S
Cd2 O1 2.228 1_556 S
Cd2 O6 2.273 1_556 S
Cd2 O10 2.277 1_556 S
O3 C0 1.160 . S
O3 Cd4 2.203 . S
Cd4 O3 2.203 . S
Cd4 O6 2.411 . S
Cd4 O7 2.333 . S
Cd4 O8 2.352 . S
Cd4 O12 2.277 1_455 S
Cd4 O13 2.356 . S
C5 O10 1.209 1_655 S
C5 O12 1.226 . S
O6 Cd2 2.273 1_554 S
O6 Cd4 2.411 . S
O6 C9 1.320 . S
O7 Cd4 2.333 . S
O7 C9 1.214 . S
O8 Cd4 2.352 . S
O8 C11 1.258 . S
C9 O6 1.320 . S
C9 O7 1.214 . S
O10 Cd2 2.277 1_554 S
O10 C5 1.209 1_455 S
C11 O8 1.258 . S
C11 O13 1.282 . S
O12 Cd4 2.277 1_655 S
O12 C5 1.226 . S
O13 Cd4 2.356 . S
O13 C11 1.282 . S
C14 O15 1.306 . S
C14 O17 1.160 . S
O15 C14 1.306 . S
O15 Cd16 2.228 1_554 S
Cd16 O15 2.228 1_556 S
Cd16 O20 2.273 1_556 S
Cd16 O24 2.277 1_556 S
O17 C14 1.160 . S
O17 Cd18 2.203 . S
Cd18 O17 2.203 . S
Cd18 O20 2.411 . S
Cd18 O21 2.333 . S
Cd18 O22 2.352 . S
Cd18 O26 2.277 . S
Cd18 O27 2.356 . S
C19 O24 1.209 . S
C19 O26 1.226 . S
O20 Cd16 2.273 1_554 S
O20 Cd18 2.411 . S
O20 C23 1.320 . S
O21 Cd18 2.333 . S
O21 C23 1.214 . S
O22 Cd18 2.352 . S
O22 C25 1.258 . S
C23 O20 1.320 . S
C23 O21 1.214 . S
O24 Cd16 2.277 1_554 S
O24 C19 1.209 . S
C25 O22 1.258 . S
C25 O27 1.282 . S
O26 Cd18 2.277 . S
O26 C19 1.226 . S
O27 Cd18 2.356 . S
O27 C25 1.282 . S
C28 O29 1.306 . S
C28 O31 1.160 . S
O29 C28 1.306 . S
O29 Cd30 2.228 1_554 S
Cd30 O29 2.228 1_556 S
Cd30 O34 2.273 1_556 S
Cd30 O38 2.277 1_556 S
O31 C28 1.160 . S
O31 Cd32 2.203 . S
Cd32 O31 2.203 . S
Cd32 O34 2.411 . S
Cd32 O35 2.333 . S
Cd32 O36 2.352 . S
Cd32 O40 2.277 1_565 S
Cd32 O41 2.356 . S
C33 O38 1.209 1_545 S
C33 O40 1.226 . S
O34 Cd30 2.273 1_554 S
O34 Cd32 2.411 . S
O34 C37 1.320 . S
O35 Cd32 2.333 . S
O35 C37 1.214 . S
O36 Cd32 2.352 . S
O36 C39 1.258 . S
C37 O34 1.320 . S
C37 O35 1.214 . S
O38 Cd30 2.277 1_554 S
O38 C33 1.209 1_565 S
C39 O36 1.258 . S
C39 O41 1.282 . S
O40 Cd32 2.277 1_545 S
O40 C33 1.226 . S
O41 Cd32 2.356 . S
O41 C39 1.282 . S
C42 O43 1.306 . S
C42 O45 1.160 . S
O43 C42 1.306 . S
O43 Cd44 2.228 . S
Cd44 O43 2.228 . S
Cd44 O48 2.273 . S
Cd44 O52 2.277 . S
O45 C42 1.160 . S
O45 Cd46 2.203 . S
Cd46 O45 2.203 . S
Cd46 O48 2.411 . S
Cd46 O49 2.333 . S
Cd46 O50 2.352 . S
Cd46 O54 2.277 1_565 S
Cd46 O55 2.356 . S
C47 O52 1.209 1_545 S
C47 O54 1.226 . S
O48 Cd44 2.273 . S
O48 Cd46 2.411 . S
O48 C51 1.320 . S
O49 Cd46 2.333 . S
O49 C51 1.214 . S
O50 Cd46 2.352 . S
O50 C53 1.258 . S
C51 O48 1.320 . S
C51 O49 1.214 . S
O52 Cd44 2.277 . S
O52 C47 1.209 1_565 S
C53 O50 1.258 . S
C53 O55 1.282 . S
O54 Cd46 2.277 1_545 S
O54 C47 1.226 . S
O55 Cd46 2.356 . S
O55 C53 1.282 . S
C56 O57 1.306 . S
C56 O59 1.160 . S
O57 C56 1.306 . S
O57 Cd58 2.228 . S
Cd58 O57 2.228 . S
Cd58 O62 2.273 . S
Cd58 O66 2.277 . S
O59 C56 1.160 . S
O59 Cd60 2.203 . S
Cd60 O59 2.203 . S
Cd60 O62 2.411 . S
Cd60 O63 2.333 . S
Cd60 O64 2.352 . S
Cd60 O68 2.277 1_455 S
Cd60 O69 2.356 . S
C61 O66 1.209 1_655 S
C61 O68 1.226 . S
O62 Cd58 2.273 . S
O62 Cd60 2.411 . S
O62 C65 1.320 . S
O63 Cd60 2.333 . S
O63 C65 1.214 . S
O64 Cd60 2.352 . S
O64 C67 1.258 . S
C65 O62 1.320 . S
C65 O63 1.214 . S
O66 Cd58 2.277 . S
O66 C61 1.209 1_455 S
C67 O64 1.258 . S
C67 O69 1.282 . S
O68 Cd60 2.277 1_655 S
O68 C61 1.226 . S
O69 Cd60 2.356 . S
O69 C67 1.282 . S
C70 O71 1.306 . S
C70 O73 1.160 . S
O71 C70 1.306 . S
O71 Cd72 2.228 . S
Cd72 O71 2.228 . S
Cd72 O76 2.273 . S
Cd72 O80 2.277 . S
O73 C70 1.160 . S
O73 Cd74 2.203 . S
Cd74 O73 2.203 . S
Cd74 O76 2.411 . S
Cd74 O77 2.333 . S
Cd74 O78 2.352 . S
Cd74 O82 2.277 . S
Cd74 O83 2.356 . S
C75 O80 1.209 . S
C75 O82 1.226 . S
O76 Cd72 2.273 . S
O76 Cd74 2.411 . S
O76 C79 1.320 . S
O77 Cd74 2.333 . S
O77 C79 1.214 . S
O78 Cd74 2.352 . S
O78 C81 1.258 . S
C79 O76 1.320 . S
C79 O77 1.214 . S
O80 Cd72 2.277 . S
O80 C75 1.209 . S
C81 O78 1.258 . S
C81 O83 1.282 . S
O82 Cd74 2.277 . S
O82 C75 1.226 . S
O83 Cd74 2.356 . S
O83 C81 1.282 . S
C84 O85 1.306 . S
C84 O87 1.160 . S
O85 C84 1.306 . S
O85 Cd86 2.228 1_556 S
Cd86 O85 2.228 1_554 S
Cd86 O90 2.273 1_554 S
Cd86 O94 2.277 1_554 S
O87 C84 1.160 . S
O87 Cd88 2.203 . S
Cd88 O87 2.203 . S
Cd88 O90 2.411 . S
Cd88 O91 2.333 . S
Cd88 O92 2.352 . S
Cd88 O96 2.277 1_655 S
Cd88 O97 2.356 . S
C89 O94 1.209 1_455 S
C89 O96 1.226 . S
O90 Cd86 2.273 1_556 S
O90 Cd88 2.411 . S
O90 C93 1.320 . S
O91 Cd88 2.333 . S
O91 C93 1.214 . S
O92 Cd88 2.352 . S
O92 C95 1.258 . S
C93 O90 1.320 . S
C93 O91 1.214 . S
O94 Cd86 2.277 1_556 S
O94 C89 1.209 1_655 S
C95 O92 1.258 . S
C95 O97 1.282 . S
O96 Cd88 2.277 1_455 S
O96 C89 1.226 . S
O97 Cd88 2.356 . S
O97 C95 1.282 . S
C98 O99 1.306 . S
C98 O101 1.160 . S
O99 C98 1.306 . S
O99 Cd100 2.228 1_556 S
Cd100 O99 2.228 1_554 S
Cd100 O104 2.273 1_554 S
Cd100 O108 2.277 1_554 S
O101 C98 1.160 . S
O101 Cd102 2.203 . S
Cd102 O101 2.203 . S
Cd102 O104 2.411 . S
Cd102 O105 2.333 . S
Cd102 O106 2.352 . S
Cd102 O110 2.277 . S
Cd102 O111 2.356 . S
C103 O108 1.209 . S
C103 O110 1.226 . S
O104 Cd100 2.273 1_556 S
O104 Cd102 2.411 . S
O104 C107 1.320 . S
O105 Cd102 2.333 . S
O105 C107 1.214 . S
O106 Cd102 2.352 . S
O106 C109 1.258 . S
C107 O104 1.320 . S
C107 O105 1.214 . S
O108 Cd100 2.277 1_556 S
O108 C103 1.209 . S
C109 O106 1.258 . S
C109 O111 1.282 . S
O110 Cd102 2.277 . S
O110 C103 1.226 . S
O111 Cd102 2.356 . S
O111 C109 1.282 . S
C112 O113 1.306 . S
C112 O115 1.160 . S
O113 C112 1.306 . S
O113 Cd114 2.228 1_556 S
Cd114 O113 2.228 1_554 S
Cd114 O118 2.273 1_554 S
Cd114 O122 2.277 1_554 S
O115 C112 1.160 . S
O115 Cd116 2.203 . S
Cd116 O115 2.203 . S
Cd116 O118 2.411 . S
Cd116 O119 2.333 . S
Cd116 O120 2.352 . S
Cd116 O124 2.277 1_545 S
Cd116 O125 2.356 . S
C117 O122 1.209 1_565 S
C117 O124 1.226 . S
O118 Cd114 2.273 1_556 S
O118 Cd116 2.411 . S
O118 C121 1.320 . S
O119 Cd116 2.333 . S
O119 C121 1.214 . S
O120 Cd116 2.352 . S
O120 C123 1.258 . S
C121 O118 1.320 . S
C121 O119 1.214 . S
O122 Cd114 2.277 1_556 S
O122 C117 1.209 1_545 S
C123 O120 1.258 . S
C123 O125 1.282 . S
O124 Cd116 2.277 1_565 S
O124 C117 1.226 . S
O125 Cd116 2.356 . S
O125 C123 1.282 . S
C126 O127 1.306 . S
C126 O129 1.160 . S
O127 C126 1.306 . S
O127 Cd128 2.228 . S
Cd128 O127 2.228 . S
Cd128 O132 2.273 . S
Cd128 O136 2.277 . S
O129 C126 1.160 . S
O129 Cd130 2.203 . S
Cd130 O129 2.203 . S
Cd130 O132 2.411 . S
Cd130 O133 2.333 . S
Cd130 O134 2.352 . S
Cd130 O138 2.277 1_545 S
Cd130 O139 2.356 . S
C131 O136 1.209 1_565 S
C131 O138 1.226 . S
O132 Cd128 2.273 . S
O132 Cd130 2.411 . S
O132 C135 1.320 . S
O133 Cd130 2.333 . S
O133 C135 1.214 . S
O134 Cd130 2.352 . S
O134 C137 1.258 . S
C135 O132 1.320 . S
C135 O133 1.214 . S
O136 Cd128 2.277 . S
O136 C131 1.209 1_545 S
C137 O134 1.258 . S
C137 O139 1.282 . S
O138 Cd130 2.277 1_565 S
O138 C131 1.226 . S
O139 Cd130 2.356 . S
O139 C137 1.282 . S
C140 O141 1.306 . S
C140 O143 1.160 . S
O141 C140 1.306 . S
O141 Cd142 2.228 . S
Cd142 O141 2.228 . S
Cd142 O146 2.273 . S
Cd142 O150 2.277 . S
O143 C140 1.160 . S
O143 Cd144 2.203 . S
Cd144 O143 2.203 . S
Cd144 O146 2.411 . S
Cd144 O147 2.333 . S
Cd144 O148 2.352 . S
Cd144 O152 2.277 1_655 S
Cd144 O153 2.356 . S
C145 O150 1.209 1_455 S
C145 O152 1.226 . S
O146 Cd142 2.273 . S
O146 Cd144 2.411 . S
O146 C149 1.320 . S
O147 Cd144 2.333 . S
O147 C149 1.214 . S
O148 Cd144 2.352 . S
O148 C151 1.258 . S
C149 O146 1.320 . S
C149 O147 1.214 . S
O150 Cd142 2.277 . S
O150 C145 1.209 1_655 S
C151 O148 1.258 . S
C151 O153 1.282 . S
O152 Cd144 2.277 1_455 S
O152 C145 1.226 . S
O153 Cd144 2.356 . S
O153 C151 1.282 . S
C154 O155 1.306 . S
C154 O157 1.160 . S
O155 C154 1.306 . S
O155 Cd156 2.228 . S
Cd156 O155 2.228 . S
Cd156 O160 2.273 . S
Cd156 O164 2.277 . S
O157 C154 1.160 . S
O157 Cd158 2.203 . S
Cd158 O157 2.203 . S
Cd158 O160 2.411 . S
Cd158 O161 2.333 . S
Cd158 O162 2.352 . S
Cd158 O166 2.277 . S
Cd158 O167 2.356 . S
C159 O164 1.209 . S
C159 O166 1.226 . S
O160 Cd156 2.273 . S
O160 Cd158 2.411 . S
O160 C163 1.320 . S
O161 Cd158 2.333 . S
O161 C163 1.214 . S
O162 Cd158 2.352 . S
O162 C165 1.258 . S
C163 O160 1.320 . S
C163 O161 1.214 . S
O164 Cd156 2.277 . S
O164 C159 1.209 . S
C165 O162 1.258 . S
C165 O167 1.282 . S
O166 Cd158 2.277 . S
O166 C159 1.226 . S
O167 Cd158 2.356 . S
O167 C165 1.282 . S
C168 C169 1.363 1_556 S
C168 C174 1.379 . S
C168 N176 1.356 . S
C169 C168 1.363 1_554 S
C169 C175 1.363 . S
C170 C171 1.363 1_554 S
C170 C175 1.379 . S
C170 N177 1.356 . S
C171 C170 1.363 1_556 S
C171 C174 1.363 . S
N172 C174 1.356 . S
N172 H184 0.984 . S
N172 H185 0.985 . S
N173 C175 1.356 . S
N173 H178 0.984 . S
N173 H179 0.985 . S
C174 C168 1.379 . S
C174 C171 1.363 . S
C174 N172 1.356 . S
C175 C169 1.363 . S
C175 C170 1.379 . S
C175 N173 1.356 . S
N176 C168 1.356 . S
N176 H182 0.984 . S
N176 H183 0.984 . S
N177 C170 1.356 . S
N177 H180 0.984 . S
N177 H181 0.985 . S
H178 N173 0.984 . S
H179 N173 0.985 . S
H180 N177 0.984 . S
H181 N177 0.985 . S
H182 N176 0.984 . S
H183 N176 0.984 . S
H184 N172 0.984 . S
H185 N172 0.985 . S
C186 C187 1.363 1_556 S
C186 C192 1.379 . S
C186 N194 1.356 . S
C187 C186 1.363 1_554 S
C187 C193 1.363 . S
C188 C189 1.363 1_554 S
C188 C193 1.379 . S
C188 N195 1.356 . S
C189 C188 1.363 1_556 S
C189 C192 1.363 . S
N190 C192 1.356 . S
N190 H202 0.984 . S
N190 H203 0.985 . S
N191 C193 1.356 . S
N191 H196 0.984 . S
N191 H197 0.985 . S
C192 C186 1.379 . S
C192 C189 1.363 . S
C192 N190 1.356 . S
C193 C187 1.363 . S
C193 C188 1.379 . S
C193 N191 1.356 . S
N194 C186 1.356 . S
N194 H200 0.984 . S
N194 H201 0.984 . S
N195 C188 1.356 . S
N195 H198 0.984 . S
N195 H199 0.985 . S
H196 N191 0.984 . S
H197 N191 0.985 . S
H198 N195 0.984 . S
H199 N195 0.985 . S
H200 N194 0.984 . S
H201 N194 0.984 . S
H202 N190 0.984 . S
H203 N190 0.985 . S
C204 C205 1.363 . S
C204 C210 1.379 . S
C204 N212 1.356 . S
C205 C204 1.363 . S
C205 C211 1.363 1_554 S
C206 C207 1.363 . S
C206 C211 1.379 . S
C206 N213 1.356 . S
C207 C206 1.363 . S
C207 C210 1.363 1_556 S
N208 C210 1.356 . S
N208 H220 0.984 . S
N208 H221 0.975 1_554 S
N209 C211 1.356 . S
N209 H214 0.984 . S
N209 H215 0.985 . S
C210 C204 1.379 . S
C210 C207 1.363 1_554 S
C210 N208 1.356 . S
C211 C205 1.363 1_556 S
C211 C206 1.379 . S
C211 N209 1.356 . S
N212 C204 1.356 . S
N212 H218 0.984 . S
N212 H219 0.984 . S
N213 C206 1.356 . S
N213 H216 0.984 . S
N213 H217 0.985 . S
H214 N209 0.984 . S
H215 N209 0.985 . S
H216 N213 0.984 . S
H217 N213 0.985 . S
H218 N212 0.984 . S
H219 N212 0.984 . S
H220 N208 0.984 . S
H221 N208 0.975 1_556 S
C222 C223 1.363 . S
C222 C228 1.379 . S
C222 N230 1.356 . S
C223 C222 1.363 . S
C223 C229 1.363 . S
C224 C225 1.363 . S
C224 C229 1.379 . S
C224 N231 1.356 . S
C225 C224 1.363 . S
C225 C228 1.363 . S
N226 C228 1.356 . S
N226 H238 0.984 . S
N226 H239 0.985 . S
N227 C229 1.356 . S
N227 H232 0.984 . S
N227 H233 0.985 . S
C228 C222 1.379 . S
C228 C225 1.363 . S
C228 N226 1.356 . S
C229 C223 1.363 . S
C229 C224 1.379 . S
C229 N227 1.356 . S
N230 C222 1.356 . S
N230 H236 0.984 . S
N230 H237 0.984 . S
N231 C224 1.356 . S
N231 H234 0.984 . S
N231 H235 0.985 . S
H232 N227 0.984 . S
H233 N227 0.985 . S
H234 N231 0.984 . S
H235 N231 0.985 . S
H236 N230 0.984 . S
H237 N230 0.984 . S
H238 N226 0.984 . S
H239 N226 0.985 . S
C240 C241 1.363 . S
C240 C246 1.379 . S
C240 N248 1.356 . S
C241 C240 1.363 . S
C241 C247 1.363 . S
C242 C243 1.363 . S
C242 C247 1.379 . S
C242 N249 1.356 . S
C243 C242 1.363 . S
C243 C246 1.363 . S
N244 C246 1.356 . S
N244 H256 0.984 . S
N244 H257 0.985 1_565 S
N245 C247 1.356 . S
N245 H250 0.984 . S
N245 H251 0.985 . S
C246 C240 1.379 . S
C246 C243 1.363 . S
C246 N244 1.356 . S
C247 C241 1.363 . S
C247 C242 1.379 . S
C247 N245 1.356 . S
N248 C240 1.356 . S
N248 H254 0.984 . S
N248 H255 0.984 . S
N249 C242 1.356 . S
N249 H252 0.984 . S
N249 H253 0.985 . S
H250 N245 0.984 . S
H251 N245 0.985 . S
H252 N249 0.984 . S
H253 N249 0.985 . S
H254 N248 0.984 . S
H255 N248 0.984 . S
H256 N244 0.984 . S
H257 N244 0.985 1_545 S
C258 C259 1.363 . S
C258 C264 1.379 . S
C258 N266 1.356 . S
C259 C258 1.363 . S
C259 C265 1.363 . S
C260 C261 1.363 . S
C260 C265 1.379 . S
C260 N267 1.356 . S
C261 C260 1.363 . S
C261 C264 1.363 . S
N262 C264 1.356 . S
N262 H274 0.984 . S
N262 H275 0.985 . S
N263 C265 1.356 . S
N263 H268 0.984 . S
N263 H269 0.985 . S
C264 C258 1.379 . S
C264 C261 1.363 . S
C264 N262 1.356 . S
C265 C259 1.363 . S
C265 C260 1.379 . S
C265 N263 1.356 . S
N266 C258 1.356 . S
N266 H272 0.984 . S
N266 H273 0.984 1_455 S
N267 C260 1.356 . S
N267 H270 0.984 . S
N267 H271 0.985 . S
H268 N263 0.984 . S
H269 N263 0.985 . S
H270 N267 0.984 . S
H271 N267 0.985 . S
H272 N266 0.984 . S
H273 N266 0.984 1_655 S
H274 N262 0.984 . S
H275 N262 0.985 . S
C276 C277 1.363 . S
C276 C282 1.379 . S
C276 N284 1.356 . S
C277 C276 1.363 . S
C277 C283 1.363 1_554 S
C278 C279 1.363 . S
C278 C283 1.379 . S
C278 N285 1.356 . S
C279 C278 1.363 . S
C279 C282 1.363 1_556 S
N280 C282 1.356 . S
N280 H292 0.984 . S
N280 H293 0.985 . S
N281 C283 1.356 . S
N281 H286 0.984 . S
N281 H287 0.985 . S
C282 C276 1.379 . S
C282 C279 1.363 1_554 S
C282 N280 1.356 . S
C283 C277 1.363 1_556 S
C283 C278 1.379 . S
C283 N281 1.356 . S
N284 C276 1.356 . S
N284 H290 0.984 . S
N284 H291 0.984 . S
N285 C278 1.356 . S
N285 H288 0.984 . S
N285 H289 0.985 . S
H286 N281 0.984 . S
H287 N281 0.985 . S
H288 N285 0.984 . S
H289 N285 0.985 . S
H290 N284 0.984 . S
H291 N284 0.984 . S
H292 N280 0.984 . S
H293 N280 0.985 . S
C294 C295 1.363 . S
C294 C300 1.379 . S
C294 N302 1.356 . S
C295 C294 1.363 . S
C295 C301 1.363 1_556 S
C296 C297 1.363 . S
C296 C301 1.379 . S
C296 N303 1.356 . S
C297 C296 1.363 . S
C297 C300 1.363 1_554 S
N298 C300 1.356 . S
N298 H310 0.984 . S
N298 H311 0.985 1_545 S
N299 C301 1.356 . S
N299 H304 0.984 . S
N299 H305 0.985 . S
C300 C294 1.379 . S
C300 C297 1.363 1_556 S
C300 N298 1.356 . S
C301 C295 1.363 1_554 S
C301 C296 1.379 . S
C301 N299 1.356 . S
N302 C294 1.356 . S
N302 H308 0.984 . S
N302 H309 0.984 . S
N303 C296 1.356 . S
N303 H306 0.984 . S
N303 H307 0.985 . S
H304 N299 0.984 . S
H305 N299 0.985 . S
H306 N303 0.984 . S
H307 N303 0.985 . S
H308 N302 0.984 . S
H309 N302 0.984 . S
H310 N298 0.984 . S
H311 N298 0.985 1_565 S
C312 C313 1.363 1_556 S
C312 C318 1.379 . S
C312 N320 1.356 . S
C313 C312 1.363 1_554 S
C313 C319 1.363 . S
C314 C315 1.363 1_554 S
C314 C319 1.379 . S
C314 N321 1.356 . S
C315 C314 1.363 1_556 S
C315 C318 1.363 . S
N316 C318 1.356 . S
N316 H328 0.984 . S
N316 H329 0.985 . S
N317 C319 1.356 . S
N317 H322 0.984 . S
N317 H323 0.985 . S
C318 C312 1.379 . S
C318 C315 1.363 . S
C318 N316 1.356 . S
C319 C313 1.363 . S
C319 C314 1.379 . S
C319 N317 1.356 . S
N320 C312 1.356 . S
N320 H326 0.984 . S
N320 H327 0.984 . S
N321 C314 1.356 . S
N321 H324 0.984 . S
N321 H325 0.985 . S
H322 N317 0.984 . S
H323 N317 0.985 . S
H324 N321 0.984 . S
H325 N321 0.985 . S
H326 N320 0.984 . S
H327 N320 0.984 . S
H328 N316 0.984 . S
H329 N316 0.985 . S
C330 C331 1.363 . S
C330 C336 1.379 . S
C330 N338 1.356 . S
C331 C330 1.363 . S
C331 C337 1.363 . S
C332 C333 1.363 . S
C332 C337 1.379 . S
C332 N339 1.356 . S
C333 C332 1.363 . S
C333 C336 1.363 . S
N334 C336 1.356 . S
N334 H346 0.984 . S
N334 H347 0.985 . S
N335 C337 1.356 . S
N335 H340 0.984 . S
N335 H341 0.985 . S
C336 C330 1.379 . S
C336 C333 1.363 . S
C336 N334 1.356 . S
C337 C331 1.363 . S
C337 C332 1.379 . S
C337 N335 1.356 . S
N338 C330 1.356 . S
N338 H344 0.984 . S
N338 H345 0.984 . S
N339 C332 1.356 . S
N339 H342 0.984 . S
N339 H343 0.985 . S
H340 N335 0.984 . S
H341 N335 0.985 . S
H342 N339 0.984 . S
H343 N339 0.985 . S
H344 N338 0.984 . S
H345 N338 0.984 . S
H346 N334 0.984 . S
H347 N334 0.985 . S
C348 C349 1.363 . S
C348 C354 1.379 . S
C348 N356 1.356 . S
C349 C348 1.363 . S
C349 C355 1.363 . S
C350 C351 1.363 . S
C350 C355 1.379 . S
C350 N357 1.356 . S
C351 C350 1.363 . S
C351 C354 1.363 . S
N352 C354 1.356 . S
N352 H364 0.984 . S
N352 H365 0.985 . S
N353 C355 1.356 . S
N353 H358 0.984 . S
N353 H359 0.985 . S
C354 C348 1.379 . S
C354 C351 1.363 . S
C354 N352 1.356 . S
C355 C349 1.363 . S
C355 C350 1.379 . S
C355 N353 1.356 . S
N356 C348 1.356 . S
N356 H362 0.984 . S
N356 H363 0.984 . S
N357 C350 1.356 . S
N357 H360 0.984 1_545 S
N357 H361 0.985 . S
H358 N353 0.984 . S
H359 N353 0.985 . S
H360 N357 0.984 1_565 S
H361 N357 0.985 . S
H362 N356 0.984 . S
H363 N356 0.984 . S
H364 N352 0.984 . S
H365 N352 0.985 . S
C366 C367 1.363 . S
C366 C372 1.379 . S
C366 N374 1.356 . S
C367 C366 1.363 . S
C367 C373 1.363 . S
C368 C369 1.363 . S
C368 C373 1.379 . S
C368 N375 1.356 . S
C369 C368 1.363 . S
C369 C372 1.363 . S
N370 C372 1.356 . S
N370 H382 0.984 . S
N370 H383 0.985 . S
N371 C373 1.356 . S
N371 H376 0.984 . S
N371 H377 0.985 . S
C372 C366 1.379 . S
C372 C369 1.363 . S
C372 N370 1.356 . S
C373 C367 1.363 . S
C373 C368 1.379 . S
C373 N371 1.356 . S
N374 C366 1.356 . S
N374 H380 0.984 . S
N374 H381 0.984 1_655 S
N375 C368 1.356 . S
N375 H378 0.984 . S
N375 H379 0.985 . S
H376 N371 0.984 . S
H377 N371 0.985 . S
H378 N375 0.984 . S
H379 N375 0.985 . S
H380 N374 0.984 . S
H381 N374 0.984 1_455 S
H382 N370 0.984 . S
H383 N370 0.985 . S
C384 C385 1.363 . S
C384 C390 1.379 . S
C384 N392 1.356 . S
C385 C384 1.363 . S
C385 C391 1.363 . S
C386 C387 1.363 . S
C386 C391 1.379 . S
C386 N393 1.356 . S
C387 C386 1.363 . S
C387 C390 1.363 . S
N388 C390 1.356 . S
N388 H400 0.984 . S
N388 H401 0.985 . S
N389 C391 1.356 . S
N389 H394 0.984 . S
N389 H395 0.985 . S
C390 C384 1.379 . S
C390 C387 1.363 . S
C390 N388 1.356 . S
C391 C385 1.363 . S
C391 C386 1.379 . S
C391 N389 1.356 . S
N392 C384 1.356 . S
N392 H398 0.984 . S
N392 H399 0.984 . S
N393 C386 1.356 . S
N393 H396 0.984 . S
N393 H397 0.985 . S
H394 N389 0.984 . S
H395 N389 0.985 . S
H396 N393 0.984 . S
H397 N393 0.985 . S
H398 N392 0.984 . S
H399 N392 0.984 . S
H400 N388 0.984 . S
H401 N388 0.985 . S
C402 C403 1.363 . S
C402 C408 1.379 . S
C402 N410 1.356 . S
C403 C402 1.363 . S
C403 C409 1.363 . S
C404 C405 1.363 . S
C404 C409 1.379 . S
C404 N411 1.356 . S
C405 C404 1.363 . S
C405 C408 1.363 . S
N406 C408 1.356 . S
N406 H418 0.984 . S
N406 H419 0.985 . S
N407 C409 1.356 . S
N407 H412 0.984 . S
N407 H413 0.985 . S
C408 C402 1.379 . S
C408 C405 1.363 . S
C408 N406 1.356 . S
C409 C403 1.363 . S
C409 C404 1.379 . S
C409 N407 1.356 . S
N410 C402 1.356 . S
N410 H416 0.984 . S
N410 H417 0.984 . S
N411 C404 1.356 . S
N411 H414 0.984 . S
N411 H415 0.985 . S
H412 N407 0.984 . S
H413 N407 0.985 . S
H414 N411 0.984 . S
H415 N411 0.985 . S
H416 N410 0.984 . S
H417 N410 0.984 . S
H418 N406 0.984 . S
H419 N406 0.985 . S
C420 C421 1.363 . S
C420 C426 1.379 . S
C420 N428 1.356 . S
C421 C420 1.363 . S
C421 C427 1.363 . S
C422 C423 1.363 . S
C422 C427 1.379 . S
C422 N429 1.356 . S
C423 C422 1.363 . S
C423 C426 1.363 . S
N424 C426 1.356 . S
N424 H436 0.984 . S
N424 H437 0.985 . S
N425 C427 1.356 . S
N425 H430 0.984 . S
N425 H431 0.985 . S
C426 C420 1.379 . S
C426 C423 1.363 . S
C426 N424 1.356 . S
C427 C421 1.363 . S
C427 C422 1.379 . S
C427 N425 1.356 . S
N428 C420 1.356 . S
N428 H434 0.984 . S
N428 H435 0.984 . S
N429 C422 1.356 . S
N429 H432 0.984 . S
N429 H433 0.985 . S
H430 N425 0.984 . S
H431 N425 0.985 . S
H432 N429 0.984 . S
H433 N429 0.985 . S
H434 N428 0.984 . S
H435 N428 0.984 . S
H436 N424 0.984 . S
H437 N424 0.985 . S
C438 C439 1.363 . S
C438 C444 1.379 . S
C438 N446 1.356 . S
C439 C438 1.363 . S
C439 C445 1.363 . S
C440 C441 1.363 . S
C440 C445 1.379 . S
C440 N447 1.356 . S
C441 C440 1.363 . S
C441 C444 1.363 . S
N442 C444 1.356 . S
N442 H454 0.984 . S
N442 H455 0.985 . S
N443 C445 1.356 . S
N443 H448 0.984 . S
N443 H449 0.985 . S
C444 C438 1.379 . S
C444 C441 1.363 . S
C444 N442 1.356 . S
C445 C439 1.363 . S
C445 C440 1.379 . S
C445 N443 1.356 . S
N446 C438 1.356 . S
N446 H452 0.984 . S
N446 H453 0.984 . S
N447 C440 1.356 . S
N447 H450 0.984 . S
N447 H451 0.985 . S
H448 N443 0.984 . S
H449 N443 0.985 . S
H450 N447 0.984 . S
H451 N447 0.985 . S
H452 N446 0.984 . S
H453 N446 0.984 . S
H454 N442 0.984 . S
H455 N442 0.985 . S
C456 C457 1.363 . S
C456 C462 1.379 . S
C456 N464 1.356 . S
C457 C456 1.363 . S
C457 C463 1.363 . S
C458 C459 1.363 . S
C458 C463 1.379 . S
C458 N465 1.356 . S
C459 C458 1.363 . S
C459 C462 1.363 . S
N460 C462 1.356 . S
N460 H472 0.984 . S
N460 H473 0.985 . S
N461 C463 1.356 . S
N461 H466 0.984 . S
N461 H467 0.985 . S
C462 C456 1.379 . S
C462 C459 1.363 . S
C462 N460 1.356 . S
C463 C457 1.363 . S
C463 C458 1.379 . S
C463 N461 1.356 . S
N464 C456 1.356 . S
N464 H470 0.984 . S
N464 H471 0.984 . S
N465 C458 1.356 . S
N465 H468 0.984 . S
N465 H469 0.985 . S
H466 N461 0.984 . S
H467 N461 0.985 . S
H468 N465 0.984 . S
H469 N465 0.985 . S
H470 N464 0.984 . S
H471 N464 0.984 . S
H472 N460 0.984 . S
H473 N460 0.985 . S
C474 C475 1.363 . S
C474 C480 1.379 . S
C474 N482 1.356 . S
C475 C474 1.363 . S
C475 C481 1.363 . S
C476 C477 1.363 . S
C476 C481 1.379 . S
C476 N483 1.356 . S
C477 C476 1.363 . S
C477 C480 1.363 . S
N478 C480 1.356 . S
N478 H490 0.984 . S
N478 H491 0.985 . S
N479 C481 1.356 . S
N479 H484 0.984 . S
N479 H485 0.985 . S
C480 C474 1.379 . S
C480 C477 1.363 . S
C480 N478 1.356 . S
C481 C475 1.363 . S
C481 C476 1.379 . S
C481 N479 1.356 . S
N482 C474 1.356 . S
N482 H488 0.984 . S
N482 H489 0.984 . S
N483 C476 1.356 . S
N483 H486 0.984 . S
N483 H487 0.985 . S
H484 N479 0.984 . S
H485 N479 0.985 . S
H486 N483 0.984 . S
H487 N483 0.985 . S
H488 N482 0.984 . S
H489 N482 0.984 . S
H490 N478 0.984 . S
H491 N478 0.985 . S
C492 C493 1.363 . S
C492 C498 1.379 1_455 S
C492 N500 1.356 . S
C493 C492 1.363 . S
C493 C499 1.363 1_554 S
C494 C495 1.363 . S
C494 C499 1.379 1_655 S
C494 N501 1.356 . S
C495 C494 1.363 . S
C495 C498 1.363 1_556 S
N496 C498 1.356 . S
N496 H508 0.984 . S
N496 H509 0.985 1_554 S
N497 C499 1.356 . S
N497 H502 0.984 1_556 S
N497 H503 0.985 . S
C498 C492 1.379 1_655 S
C498 C495 1.363 1_554 S
C498 N496 1.356 . S
C499 C493 1.363 1_556 S
C499 C494 1.379 1_455 S
C499 N497 1.356 . S
N500 C492 1.356 . S
N500 H506 0.984 . S
N500 H507 0.984 . S
N501 C494 1.356 . S
N501 H504 0.984 . S
N501 H505 0.985 . S
H502 N497 0.984 1_554 S
H503 N497 0.985 . S
H504 N501 0.984 . S
H505 N501 0.985 . S
H506 N500 0.984 . S
H507 N500 0.984 . S
H508 N496 0.984 . S
H509 N496 0.985 1_556 S
C510 C511 1.363 1_556 S
C510 C516 1.379 . S
C510 N518 1.356 . S
C511 C510 1.363 1_554 S
C511 C517 1.363 . S
C512 C513 1.363 1_554 S
C512 C517 1.379 . S
C512 N519 1.356 . S
C513 C512 1.363 1_556 S
C513 C516 1.363 . S
N514 C516 1.356 . S
N514 H526 0.984 . S
N514 H527 0.985 . S
N515 C517 1.356 . S
N515 H520 0.984 . S
N515 H521 0.985 . S
C516 C510 1.379 . S
C516 C513 1.363 . S
C516 N514 1.356 . S
C517 C511 1.363 . S
C517 C512 1.379 . S
C517 N515 1.356 . S
N518 C510 1.356 . S
N518 H524 0.984 . S
N518 H525 0.984 1_556 S
N519 C512 1.356 . S
N519 H522 0.984 1_554 S
N519 H523 0.985 . S
H520 N515 0.984 . S
H521 N515 0.985 . S
H522 N519 0.984 1_556 S
H523 N519 0.985 . S
H524 N518 0.984 . S
H525 N518 0.984 1_554 S
H526 N514 0.984 . S
H527 N514 0.985 . S
C528 C529 1.363 1_556 S
C528 C534 1.379 . S
C528 N536 1.356 . S
C529 C528 1.363 1_554 S
C529 C535 1.363 1_565 S
C530 C531 1.363 1_554 S
C530 C535 1.379 . S
C530 N537 1.356 . S
C531 C530 1.363 1_556 S
C531 C534 1.363 1_545 S
N532 C534 1.356 . S
N532 H544 0.984 . S
N532 H545 0.985 1_565 S
N533 C535 1.356 . S
N533 H538 0.984 1_545 S
N533 H539 0.985 . S
C534 C528 1.379 . S
C534 C531 1.363 1_565 S
C534 N532 1.356 . S
C535 C529 1.363 1_545 S
C535 C530 1.379 . S
C535 N533 1.356 . S
N536 C528 1.356 . S
N536 H542 0.984 . S
N536 H543 0.984 1_556 S
N537 C530 1.356 . S
N537 H540 0.984 1_554 S
N537 H541 0.985 . S
H538 N533 0.984 1_565 S
H539 N533 0.985 . S
H540 N537 0.984 1_556 S
H541 N537 0.985 . S
H542 N536 0.984 . S
H543 N536 0.984 1_554 S
H544 N532 0.984 . S
H545 N532 0.985 1_545 S
C546 C547 1.363 1_545 S
C546 C552 1.379 . S
C546 N554 1.356 . S
C547 C546 1.363 1_565 S
C547 C553 1.363 . S
C548 C549 1.363 1_565 S
C548 C553 1.379 . S
C548 N555 1.356 . S
C549 C548 1.363 1_545 S
C549 C552 1.363 . S
N550 C552 1.356 . S
N550 H562 0.984 . S
N550 H563 0.985 . S
N551 C553 1.356 . S
N551 H556 0.984 . S
N551 H557 0.985 . S
C552 C546 1.379 . S
C552 C549 1.363 . S
C552 N550 1.356 . S
C553 C547 1.363 . S
C553 C548 1.379 . S
C553 N551 1.356 . S
N554 C546 1.356 . S
N554 H560 0.984 . S
N554 H561 0.984 . S
N555 C548 1.356 . S
N555 H558 0.984 . S
N555 H559 0.985 . S
H556 N551 0.984 . S
H557 N551 0.985 . S
H558 N555 0.984 . S
H559 N555 0.985 . S
H560 N554 0.984 . S
H561 N554 0.984 . S
H562 N550 0.984 . S
H563 N550 0.985 . S
C564 C565 1.363 . S
C564 C570 1.379 1_655 S
C564 N572 1.356 . S
C565 C564 1.363 . S
C565 C571 1.363 . S
C566 C567 1.363 . S
C566 C571 1.379 1_455 S
C566 N573 1.356 . S
C567 C566 1.363 . S
C567 C570 1.363 . S
N568 C570 1.356 . S
N568 H580 0.984 . S
N568 H581 0.985 . S
N569 C571 1.356 . S
N569 H574 0.984 . S
N569 H575 0.985 . S
C570 C564 1.379 1_455 S
C570 C567 1.363 . S
C570 N568 1.356 . S
C571 C565 1.363 . S
C571 C566 1.379 1_655 S
C571 N569 1.356 . S
N572 C564 1.356 . S
N572 H578 0.984 . S
N572 H579 0.984 . S
N573 C566 1.356 . S
N573 H576 0.984 . S
N573 H577 0.985 . S
H574 N569 0.984 . S
H575 N569 0.985 . S
H576 N573 0.984 . S
H577 N573 0.985 . S
H578 N572 0.984 . S
H579 N572 0.984 . S
H580 N568 0.984 . S
H581 N568 0.985 . S
C582 C583 1.363 . S
C582 C588 1.379 . S
C582 N590 1.356 . S
C583 C582 1.363 . S
C583 C589 1.363 . S
C584 C585 1.363 . S
C584 C589 1.379 . S
C584 N591 1.356 . S
C585 C584 1.363 . S
C585 C588 1.363 . S
N586 C588 1.356 . S
N586 H598 0.984 . S
N586 H599 0.985 . S
N587 C589 1.356 . S
N587 H592 0.984 . S
N587 H593 0.985 . S
C588 C582 1.379 . S
C588 C585 1.363 . S
C588 N586 1.356 . S
C589 C583 1.363 . S
C589 C584 1.379 . S
C589 N587 1.356 . S
N590 C582 1.356 . S
N590 H596 0.984 . S
N590 H597 0.984 . S
N591 C584 1.356 . S
N591 H594 0.984 . S
N591 H595 0.985 . S
H592 N587 0.984 . S
H593 N587 0.985 . S
H594 N591 0.984 . S
H595 N591 0.985 . S
H596 N590 0.984 . S
H597 N590 0.984 . S
H598 N586 0.984 . S
H599 N586 0.985 . S
C169 C9 0.971 . S
C171 C103 0.979 . S
C187 C23 0.971 . S
C189 C117 0.979 . S
C205 C37 0.971 . S
C207 C89 0.978 . S
C223 C159 0.979 . S
C225 C51 0.971 . S
C241 C65 0.971 . S
C243 C131 0.978 . S
C259 C145 0.979 . S
C261 C79 0.971 . S
C277 C19 0.979 . S
C279 C93 0.971 . S
C295 C107 0.971 . S
C297 C33 0.979 . S
C313 C5 0.978 . S
C315 C121 0.971 . S
C331 C135 0.971 . S
C333 C75 0.979 . S
C349 C149 0.971 . S
C351 C47 0.978 . S
C367 C61 0.979 . S
C369 C163 0.971 . S
C385 C81 1.618 . S
C387 C11 1.618 . S
C403 C25 1.618 . S
C405 C53 1.618 . S
C421 C39 1.618 . S
C423 C67 1.618 . S
C439 C95 1.618 . S
C441 C165 1.618 . S
C457 C109 1.618 . S
C459 C137 1.618 . S
C475 C123 1.618 . S
C477 C151 1.618 . S
C493 C0 1.632 . S
C495 C84 1.632 . S
C511 C14 1.631 . S
C513 C98 1.631 . S
C529 C28 1.632 . S
C531 C112 1.632 . S
C547 C42 1.632 . S
C549 C126 1.632 . S
C565 C140 1.632 . S
C567 C56 1.632 . S
C583 C70 1.632 . S
C585 C154 1.632 . S
