# Generated by pormake.
# Topology smi, (6)-cn, num edge types: 1
# Building blocks:
#     Node 0, Type 0, BuildingBlock: IZENUY_clean_sbu_0, # of connection points: 6
#     Node 1, Type 0, BuildingBlock: IZENUY_clean_sbu_0, # of connection points: 6
#     Node 2, Type 0, BuildingBlock: IZENUY_clean_sbu_0, # of connection points: 6
#     Node 3, Type 0, BuildingBlock: IZENUY_clean_sbu_0, # of connection points: 6
#     Node 4, Type 0, BuildingBlock: IZENUY_clean_sbu_0, # of connection points: 6
#     Node 5, Type 0, BuildingBlock: IZENUY_clean_sbu_0, # of connection points: 6
#     Edge 6, Type (0, 0), BuildingBlock: MIFKUJ_clean_linker_0, # of connection points: 2
#     Edge 7, Type (0, 0), BuildingBlock: MIFKUJ_clean_linker_0, # of connection points: 2
#     Edge 8, Type (0, 0), BuildingBlock: MIFKUJ_clean_linker_0, # of connection points: 2
#     Edge 9, Type (0, 0), BuildingBlock: MIFKUJ_clean_linker_0, # of connection points: 2
#     Edge 10, Type (0, 0), BuildingBlock: MIFKUJ_clean_linker_0, # of connection points: 2
#     Edge 11, Type (0, 0), BuildingBlock: MIFKUJ_clean_linker_0, # of connection points: 2
#     Edge 12, Type (0, 0), BuildingBlock: MIFKUJ_clean_linker_0, # of connection points: 2
#     Edge 13, Type (0, 0), BuildingBlock: MIFKUJ_clean_linker_0, # of connection points: 2
#     Edge 14, Type (0, 0), BuildingBlock: MIFKUJ_clean_linker_0, # of connection points: 2
#     Edge 15, Type (0, 0), BuildingBlock: MIFKUJ_clean_linker_0, # of connection points: 2
#     Edge 16, Type (0, 0), BuildingBlock: MIFKUJ_clean_linker_0, # of connection points: 2
#     Edge 17, Type (0, 0), BuildingBlock: MIFKUJ_clean_linker_0, # of connection points: 2
#     Edge 18, Type (0, 0), BuildingBlock: MIFKUJ_clean_linker_0, # of connection points: 2
#     Edge 19, Type (0, 0), BuildingBlock: MIFKUJ_clean_linker_0, # of connection points: 2
#     Edge 20, Type (0, 0), BuildingBlock: MIFKUJ_clean_linker_0, # of connection points: 2
#     Edge 21, Type (0, 0), BuildingBlock: MIFKUJ_clean_linker_0, # of connection points: 2
#     Edge 22, Type (0, 0), BuildingBlock: MIFKUJ_clean_linker_0, # of connection points: 2
#     Edge 23, Type (0, 0), BuildingBlock: MIFKUJ_clean_linker_0, # of connection points: 2
# Relax obj value: 0.337
# Max RMSD: 0.277
# Mean RMSD: 0.276
data_MOF--net-smi--node1-IZENUY_clean_sbu_0--edge1-MIFKUJ_clean_linker_0
_symmetry_space_group_name_H-M    P1
_symmetry_Int_Tables_number       1
_symmetry_cell_setting            triclinic
loop_
_symmetry_equiv_pos_as_xyz
'x, y, z'
_cell_length_a     34.562819
_cell_length_b     34.481967
_cell_length_c     51.343981
_cell_angle_alpha  90.000553
_cell_angle_beta   89.974726
_cell_angle_gamma 120.31033
loop_
_atom_site_label
_atom_site_type_symbol
_atom_site_fract_x
_atom_site_fract_y
_atom_site_fract_z
_atom_type_partial_charge
Fe0 Fe 0.10503 0.57487 0.11208 0.0
Fe1 Fe 0.19093 0.60464 0.08074 0.0
O2 O 0.13181 0.57293 0.083 0.0
Fe3 Fe 0.09967 0.53972 0.05626 0.0
O4 O 0.06976 0.56999 0.05418 0.0
O5 O 0.05417 0.56758 0.09581 0.0
O6 O 0.12844 0.63522 0.10955 0.0
C7 C 0.16997 0.66289 0.1085 0.0
C8 C 0.05475 0.48554 0.10074 0.0
O9 O 0.19713 0.65011 0.10203 0.0
C10 C 0.16967 0.52436 0.05399 0.0
O11 O 0.15062 0.58168 0.13372 0.0
O12 O 0.19698 0.57429 0.10768 0.0
O13 O 0.05559 0.49478 0.0767 0.0
O14 O 0.08016 0.51521 0.11674 0.0
C15 C 0.16753 0.62005 0.03269 0.0
O16 O 0.19606 0.56536 0.05903 0.0
O17 O 0.12781 0.50726 0.05585 0.0
C18 C 0.1813 0.57226 0.13014 0.0
O19 O 0.18841 0.63678 0.05364 0.0
O20 O 0.13766 0.57881 0.03133 0.0
C21 C 0.04773 0.57408 0.07234 0.0
Fe22 Fe 0.57597 0.10062 0.22061 0.0
Fe23 Fe 0.60485 0.18781 0.25063 0.0
O24 O 0.57256 0.12862 0.24879 0.0
Fe25 Fe 0.53725 0.09812 0.27525 0.0
O26 O 0.56601 0.06727 0.27957 0.0
O27 O 0.56899 0.05095 0.23846 0.0
O28 O 0.63608 0.12446 0.22393 0.0
C29 C 0.66365 0.16603 0.22449 0.0
C30 C 0.48587 0.05096 0.23068 0.0
O31 O 0.6509 0.19347 0.2302 0.0
C32 C 0.52392 0.16924 0.27553 0.0
O33 O 0.58312 0.14553 0.19801 0.0
O34 O 0.57589 0.1934 0.22306 0.0
O35 O 0.49331 0.05343 0.25497 0.0
O36 O 0.51659 0.07461 0.21478 0.0
C37 C 0.61684 0.16597 0.29948 0.0
O38 O 0.56547 0.19425 0.27149 0.0
O39 O 0.50582 0.12728 0.27305 0.0
C40 C 0.57446 0.177 0.20091 0.0
O41 O 0.63528 0.18498 0.27837 0.0
O42 O 0.57525 0.1371 0.30031 0.0
C43 C 0.57235 0.04481 0.26254 0.0
Fe44 Fe 0.3935 0.57275 0.41328 0.0
Fe45 Fe 0.42892 0.51956 0.44292 0.0
O46 O 0.42836 0.54884 0.41459 0.0
Fe47 Fe 0.46312 0.55402 0.38767 0.0
O48 O 0.47252 0.60851 0.37671 0.0
O49 O 0.44025 0.62847 0.40638 0.0
O50 O 0.40087 0.589 0.44771 0.0
C51 C 0.42917 0.59243 0.46459 0.0
C52 C 0.38557 0.53565 0.36266 0.0
O53 O 0.44793 0.56916 0.46305 0.0
C54 C 0.4318 0.4652 0.40543 0.0
O55 O 0.34319 0.51932 0.41997 0.0
O56 O 0.37067 0.49913 0.45215 0.0
O57 O 0.41512 0.52478 0.36605 0.0
O58 O 0.38063 0.56072 0.37872 0.0
C59 C 0.51977 0.56893 0.4284 0.0
O60 O 0.41 0.46774 0.42448 0.0
O61 O 0.46013 0.50024 0.39346 0.0
C62 C 0.33745 0.49615 0.44011 0.0
O63 O 0.48768 0.53545 0.43956 0.0
O64 O 0.51367 0.58404 0.40736 0.0
C65 C 0.46708 0.63822 0.3876 0.0
Fe66 Fe 0.80928 0.41037 0.58336 0.0
Fe67 Fe 0.89644 0.47829 0.55639 0.0
O68 O 0.86833 0.44406 0.58372 0.0
Fe69 Fe 0.89891 0.44343 0.6113 0.0
O70 O 0.87678 0.3833 0.60908 0.0
O71 O 0.80675 0.36574 0.60384 0.0
O72 O 0.81113 0.37932 0.55566 0.0
C73 C 0.82869 0.39679 0.53412 0.0
C74 C 0.82226 0.44198 0.63292 0.0
O75 O 0.8563 0.43864 0.53234 0.0
C76 C 0.94511 0.53297 0.59955 0.0
O77 O 0.8002 0.4485 0.56275 0.0
O78 O 0.86655 0.5088 0.55897 0.0
O79 O 0.85543 0.43587 0.63494 0.0
O80 O 0.80422 0.43937 0.61116 0.0
C81 C 0.9527 0.44675 0.56818 0.0
O82 O 0.94206 0.52372 0.57547 0.0
O83 O 0.92269 0.50291 0.61603 0.0
C84 C 0.82447 0.49001 0.55791 0.0
O85 O 0.92781 0.45027 0.55165 0.0
O86 O 0.94807 0.45129 0.59235 0.0
C87 C 0.8355 0.35471 0.60942 0.0
Fe88 Fe 0.43634 0.9008 0.72109 0.0
Fe89 Fe 0.41316 0.81108 0.74622 0.0
O90 O 0.44107 0.87032 0.74751 0.0
Fe91 Fe 0.47365 0.89888 0.77522 0.0
O92 O 0.43977 0.92392 0.78149 0.0
O93 O 0.43951 0.94647 0.74151 0.0
O94 O 0.37582 0.87278 0.72403 0.0
C95 C 0.35062 0.83074 0.72288 0.0
C96 C 0.52497 0.95437 0.73277 0.0
O97 O 0.36594 0.80476 0.72672 0.0
C98 C 0.49568 0.83387 0.77066 0.0
O99 O 0.43267 0.86081 0.69599 0.0
O100 O 0.44431 0.81254 0.71757 0.0
O101 O 0.51565 0.94863 0.75689 0.0
O102 O 0.49611 0.93057 0.716 0.0
C103 C 0.39664 0.82332 0.79657 0.0
O104 O 0.45499 0.8062 0.76557 0.0
O105 O 0.5099 0.87545 0.77114 0.0
C106 C 0.44409 0.83113 0.69647 0.0
O107 O 0.38035 0.80618 0.77473 0.0
O108 O 0.43721 0.85457 0.79855 0.0
C109 C 0.43376 0.9484 0.76579 0.0
Fe110 Fe 0.59186 0.40995 0.91747 0.0
Fe111 Fe 0.56545 0.47285 0.94439 0.0
O112 O 0.55955 0.43666 0.91816 0.0
Fe113 Fe 0.52118 0.42761 0.89263 0.0
O114 O 0.50753 0.37014 0.88539 0.0
O115 O 0.5426 0.35439 0.91541 0.0
O116 O 0.59004 0.40179 0.95271 0.0
C117 C 0.56542 0.40359 0.97038 0.0
C118 C 0.5935 0.43707 0.86523 0.0
O119 O 0.54781 0.42776 0.96788 0.0
C120 C 0.5605 0.52026 0.90325 0.0
O121 O 0.64425 0.46289 0.91934 0.0
O122 O 0.62462 0.49217 0.95084 0.0
O123 O 0.56551 0.44998 0.86841 0.0
O124 O 0.59912 0.41378 0.88219 0.0
C125 C 0.47226 0.42522 0.93492 0.0
O126 O 0.58358 0.52046 0.92238 0.0
O127 O 0.52819 0.48369 0.89486 0.0
C128 C 0.65472 0.49053 0.93773 0.0
O129 O 0.50706 0.45955 0.94343 0.0
O130 O 0.47409 0.40447 0.91513 0.0
C131 C 0.51337 0.34188 0.89779 0.0
H132 H 0.24482 0.54696 0.12991 0.0
H133 H 0.28096 0.53494 0.16753 0.0
H134 H 0.20171 0.56579 0.21918 0.0
H135 H 0.16556 0.57808 0.18179 0.0
H136 H 0.29082 0.6104 0.23233 0.0
H137 H 0.17631 0.46004 0.20913 0.0
H138 H 0.13708 0.39613 0.17902 0.0
H139 H 0.25664 0.38853 0.17054 0.0
H140 H 0.2971 0.45341 0.19997 0.0
H141 H 0.30843 0.53589 0.35376 0.0
H142 H 0.27532 0.53505 0.31178 0.0
H143 H 0.37317 0.51289 0.27299 0.0
H144 H 0.4069 0.51369 0.3153 0.0
H145 H 0.2829 0.46516 0.25064 0.0
H146 H 0.39686 0.61347 0.27508 0.0
H147 H 0.43636 0.67758 0.30514 0.0
H148 H 0.31864 0.68907 0.31101 0.0
H149 H 0.27813 0.62448 0.28141 0.0
C150 C 0.235 0.55113 0.14927 0.0
C151 C 0.20234 0.5636 0.15283 0.0
C152 C 0.25561 0.5441 0.17074 0.0
C153 C 0.2439 0.54934 0.19612 0.0
C154 C 0.21129 0.56168 0.19973 0.0
C155 C 0.19054 0.56852 0.17832 0.0
C156 C 0.26588 0.54261 0.21906 0.0
C157 C 0.28882 0.57856 0.23641 0.0
C158 C 0.26444 0.50144 0.2239 0.0
C159 C 0.23991 0.46197 0.20653 0.0
C160 C 0.19439 0.44504 0.20067 0.0
C161 C 0.17189 0.40858 0.18375 0.0
C162 C 0.19431 0.38823 0.1729 0.0
C163 C 0.23932 0.40434 0.17894 0.0
C164 C 0.26208 0.44103 0.1957 0.0
C165 C 0.32253 0.53001 0.33638 0.0
C166 C 0.36075 0.52559 0.3378 0.0
C167 C 0.30352 0.52952 0.31241 0.0
C168 C 0.32238 0.5248 0.28933 0.0
C169 C 0.35834 0.51679 0.29066 0.0
C170 C 0.3775 0.51721 0.31481 0.0
C171 C 0.30682 0.53264 0.26408 0.0
C172 C 0.28529 0.4971 0.24633 0.0
C173 C 0.3097 0.5743 0.25873 0.0
C174 C 0.3343 0.6138 0.27618 0.0
C175 C 0.37927 0.62943 0.28293 0.0
C176 C 0.40187 0.66589 0.29987 0.0
C177 C 0.37997 0.68728 0.31003 0.0
C178 C 0.33553 0.67242 0.30315 0.0
C179 C 0.31274 0.63589 0.28628 0.0
H180 H 0.39741 0.71537 0.32322 0.0
H181 H 0.1768 0.35997 0.15983 0.0
H182 H 0.59048 0.1331 0.34886 0.0
H183 H 0.62985 0.16696 0.38955 0.0
H184 H 0.73915 0.27276 0.34617 0.0
H185 H 0.70085 0.23856 0.30551 0.0
H186 H 0.77105 0.24949 0.38547 0.0
H187 H 0.65461 0.28569 0.37382 0.0
H188 H 0.57768 0.2714 0.36774 0.0
H189 H 0.53719 0.19748 0.43952 0.0
H190 H 0.61365 0.21066 0.44581 0.0
H191 H 0.85775 0.42106 0.48387 0.0
H192 H 0.82545 0.37604 0.44448 0.0
H193 H 0.72961 0.26505 0.49132 0.0
H194 H 0.7615 0.3094 0.53068 0.0
H195 H 0.69116 0.28842 0.45137 0.0
H196 H 0.811 0.25764 0.46359 0.0
H197 H 0.88967 0.27779 0.47003 0.0
H198 H 0.92552 0.34768 0.39687 0.0
H199 H 0.84714 0.32853 0.39017 0.0
C200 C 0.62311 0.1633 0.34799 0.0
C201 C 0.64226 0.18342 0.32397 0.0
C202 C 0.64547 0.18272 0.37125 0.0
C203 C 0.687 0.2229 0.37088 0.0
C204 C 0.70706 0.24187 0.34691 0.0
C205 C 0.685 0.22228 0.32367 0.0
C206 C 0.70887 0.24632 0.39539 0.0
C207 C 0.75368 0.25831 0.39978 0.0
C208 C 0.68601 0.25736 0.41421 0.0
C209 C 0.63976 0.24868 0.41012 0.0
C210 C 0.62919 0.26596 0.38816 0.0
C211 C 0.58567 0.25814 0.3847 0.0
C212 C 0.55255 0.23341 0.4032 0.0
C213 C 0.56286 0.21651 0.42518 0.0
C214 C 0.60625 0.22412 0.42869 0.0
C215 C 0.83008 0.38693 0.4858 0.0
C216 C 0.81195 0.36897 0.51038 0.0
C217 C 0.81183 0.36124 0.46331 0.0
C218 C 0.77524 0.31731 0.46511 0.0
C219 C 0.75783 0.29895 0.48961 0.0
C220 C 0.77617 0.3244 0.51206 0.0
C221 C 0.7531 0.2914 0.44139 0.0
C222 C 0.70831 0.27918 0.43712 0.0
C223 C 0.77614 0.28074 0.4226 0.0
C224 C 0.82324 0.29199 0.4265 0.0
C225 C 0.83571 0.27763 0.44897 0.0
C226 C 0.88025 0.28881 0.45265 0.0
C227 C 0.9126 0.3141 0.4339 0.0
C228 C 0.90044 0.32814 0.41139 0.0
C229 C 0.85595 0.31709 0.40763 0.0
H230 H 0.94707 0.32273 0.43679 0.0
H231 H 0.51892 0.22743 0.4006 0.0
H232 H 0.47761 0.77494 0.68985 0.0
H233 H 0.4809 0.73903 0.64952 0.0
H234 H 0.42715 0.80909 0.60694 0.0
H235 H 0.42375 0.84526 0.64717 0.0
H236 H 0.38174 0.71721 0.59765 0.0
H237 H 0.53383 0.83996 0.59924 0.0
H238 H 0.60829 0.88857 0.6187 0.0
H239 H 0.62692 0.77511 0.62685 0.0
H240 H 0.55224 0.72567 0.60778 0.0
H241 H 0.40487 0.65572 0.47094 0.0
H242 H 0.41315 0.70002 0.50972 0.0
H243 H 0.47825 0.63824 0.54951 0.0
H244 H 0.47111 0.59442 0.5104 0.0
H245 H 0.51856 0.72586 0.56063 0.0
H246 H 0.36759 0.60274 0.55979 0.0
H247 H 0.29345 0.55284 0.54039 0.0
H248 H 0.27137 0.66413 0.53244 0.0
H249 H 0.34585 0.71496 0.55136 0.0
C250 C 0.46692 0.7831 0.67187 0.0
C251 C 0.45026 0.81285 0.67174 0.0
C252 C 0.46897 0.76265 0.64884 0.0
C253 C 0.45433 0.77148 0.62528 0.0
C254 C 0.43858 0.80185 0.62496 0.0
C255 C 0.43686 0.82262 0.64795 0.0
C256 C 0.45328 0.74727 0.60123 0.0
C257 C 0.41171 0.7196 0.5893 0.0
C258 C 0.49225 0.74933 0.59094 0.0
C259 C 0.53724 0.77903 0.60231 0.0
C260 C 0.55363 0.8253 0.60539 0.0
C261 C 0.59591 0.85302 0.6163 0.0
C262 C 0.62227 0.83492 0.62407 0.0
C263 C 0.60644 0.78907 0.62086 0.0
C264 C 0.56415 0.76119 0.60997 0.0
C265 C 0.42112 0.6516 0.48788 0.0
C266 C 0.43683 0.6211 0.48769 0.0
C267 C 0.42572 0.6769 0.51007 0.0
C268 C 0.44546 0.67175 0.53269 0.0
C269 C 0.46267 0.64255 0.5323 0.0
C270 C 0.45847 0.61746 0.50997 0.0
C271 C 0.44702 0.69604 0.55687 0.0
C272 C 0.48857 0.72352 0.56893 0.0
C273 C 0.40792 0.69349 0.56747 0.0
C274 C 0.3626 0.66279 0.55669 0.0
C275 C 0.34708 0.61666 0.55374 0.0
C276 C 0.30499 0.5882 0.54281 0.0
C277 C 0.27789 0.6054 0.53497 0.0
C278 C 0.29256 0.65096 0.53836 0.0
C279 C 0.33471 0.6796 0.5492 0.0
H280 H 0.24548 0.58344 0.52632 0.0
H281 H 0.655 0.85644 0.63251 0.0
H282 H 0.67757 0.45251 0.85868 0.0
H283 H 0.71612 0.45869 0.8176 0.0
H284 H 0.60197 0.44381 0.77492 0.0
H285 H 0.56344 0.43881 0.8162 0.0
H286 H 0.64014 0.38111 0.76336 0.0
H287 H 0.67814 0.5361 0.76831 0.0
H288 H 0.70571 0.60865 0.79057 0.0
H289 H 0.83286 0.61797 0.80362 0.0
H290 H 0.80583 0.54515 0.78154 0.0
H291 H 0.73681 0.42579 0.63743 0.0
H292 H 0.69843 0.42728 0.67699 0.0
H293 H 0.81855 0.46756 0.72158 0.0
H294 H 0.8573 0.46547 0.68201 0.0
H295 H 0.77606 0.51838 0.73183 0.0
H296 H 0.74303 0.36751 0.72844 0.0
H297 H 0.71804 0.29211 0.71073 0.0
H298 H 0.58559 0.27079 0.69962 0.0
H299 H 0.60998 0.34649 0.71688 0.0
C300 C 0.66097 0.45121 0.84053 0.0
C301 C 0.61769 0.44532 0.84047 0.0
C302 C 0.68298 0.45476 0.81718 0.0
C303 C 0.66175 0.45172 0.79343 0.0
C304 C 0.61873 0.44636 0.7932 0.0
C305 C 0.59699 0.4438 0.81666 0.0
C306 C 0.6842 0.45203 0.76902 0.0
C307 C 0.66931 0.41117 0.75605 0.0
C308 C 0.72325 0.49105 0.76043 0.0
C309 C 0.73981 0.535 0.7735 0.0
C310 C 0.71185 0.55344 0.77612 0.0
C311 C 0.72741 0.59466 0.78866 0.0
C312 C 0.77096 0.61785 0.79863 0.0
C313 C 0.79911 0.59994 0.79593 0.0
C314 C 0.78372 0.55874 0.78334 0.0
C315 C 0.75524 0.43521 0.6556 0.0
C316 C 0.80011 0.4455 0.65664 0.0
C317 C 0.73314 0.43577 0.67818 0.0
C318 C 0.75563 0.44715 0.70211 0.0
C319 C 0.80072 0.45855 0.70321 0.0
C320 C 0.82271 0.45729 0.68065 0.0
C321 C 0.73181 0.44738 0.7259 0.0
C322 C 0.74663 0.48828 0.73889 0.0
C323 C 0.69313 0.4081 0.73483 0.0
C324 C 0.67858 0.3631 0.72354 0.0
C325 C 0.70876 0.3471 0.72181 0.0
C326 C 0.69465 0.30419 0.71195 0.0
C327 C 0.65032 0.27676 0.70391 0.0
C328 C 0.61998 0.29216 0.70576 0.0
C329 C 0.63394 0.33509 0.71557 0.0
H330 H 0.63944 0.24351 0.69634 0.0
H331 H 0.78291 0.64974 0.80837 0.0
H332 H 0.12259 0.60427 0.98644 0.0
H333 H 0.15235 0.64382 0.94512 0.0
H334 H 0.27702 0.7356 0.98306 0.0
H335 H 0.24708 0.6974 0.02444 0.0
H336 H 0.25707 0.77782 0.94569 0.0
H337 H 0.25272 0.63585 0.95596 0.0
H338 H 0.21338 0.5538 0.96206 0.0
H339 H 0.14589 0.53503 0.88898 0.0
H340 H 0.18311 0.61709 0.88303 0.0
H341 H 0.42152 0.84637 0.84747 0.0
H342 H 0.37549 0.81413 0.88636 0.0
H343 H 0.26275 0.72531 0.83832 0.0
H344 H 0.30875 0.75661 0.79936 0.0
H345 H 0.26878 0.6809 0.87842 0.0
H346 H 0.26871 0.81788 0.86683 0.0
H347 H 0.30202 0.89935 0.85979 0.0
H348 H 0.3726 0.92603 0.93238 0.0
H349 H 0.34023 0.84471 0.9397 0.0
C350 C 0.15609 0.63333 0.98603 0.0
C351 C 0.18285 0.64715 0.00857 0.0
C352 C 0.17298 0.65597 0.96244 0.0
C353 C 0.21729 0.69202 0.9609 0.0
C354 C 0.24284 0.70775 0.98376 0.0
C355 C 0.22574 0.68566 0.0074 0.0
C356 C 0.2391 0.71023 0.93537 0.0
C357 C 0.25977 0.75668 0.931 0.0
C358 C 0.2416 0.68234 0.91592 0.0
C359 C 0.2204 0.63284 0.91919 0.0
C360 C 0.22916 0.61433 0.94129 0.0
C361 C 0.20706 0.56777 0.94479 0.0
C362 C 0.17719 0.53923 0.92591 0.0
C363 C 0.16906 0.55719 0.9036 0.0
C364 C 0.19045 0.60375 0.90023 0.0
C365 C 0.38693 0.82003 0.84514 0.0
C366 C 0.36886 0.80416 0.82027 0.0
C367 C 0.36057 0.80175 0.86741 0.0
C368 C 0.31545 0.76771 0.86525 0.0
C369 C 0.29743 0.75158 0.84047 0.0
C370 C 0.32381 0.76964 0.8182 0.0
C371 C 0.28723 0.74859 0.88887 0.0
C372 C 0.26556 0.70199 0.89292 0.0
C373 C 0.28322 0.77617 0.90784 0.0
C374 C 0.30231 0.82515 0.90371 0.0
C375 C 0.29155 0.84111 0.88122 0.0
C376 C 0.31024 0.88727 0.87719 0.0
C377 C 0.3395 0.91784 0.89559 0.0
C378 C 0.34996 0.9023 0.91813 0.0
C379 C 0.33142 0.85617 0.92224 0.0
H380 H 0.35403 0.95356 0.8924 0.0
H381 H 0.16041 0.50319 0.92857 0.0
H382 H 0.59971 0.17521 0.15061 0.0
H383 H 0.59621 0.21835 0.11368 0.0
H384 H 0.53362 0.27279 0.1625 0.0
H385 H 0.5373 0.23025 0.19959 0.0
H386 H 0.4922 0.24181 0.11335 0.0
H387 H 0.63491 0.33705 0.15051 0.0
H388 H 0.71119 0.36469 0.16726 0.0
H389 H 0.75267 0.34308 0.09248 0.0
H390 H 0.67626 0.31403 0.07542 0.0
H391 H 0.5264 0.40837 0.01603 0.0
H392 H 0.5245 0.3725 0.05766 0.0
H393 H 0.5934 0.31082 0.02227 0.0
H394 H 0.59575 0.34634 0.98096 0.0
H395 H 0.63152 0.35381 0.06853 0.0
H396 H 0.48408 0.2495 0.03373 0.0
H397 H 0.40973 0.22969 0.0165 0.0
H398 H 0.37956 0.27507 0.08742 0.0
H399 H 0.45403 0.29564 0.10497 0.0
C400 C 0.58485 0.19605 0.15342 0.0
C401 C 0.56898 0.19956 0.17799 0.0
C402 C 0.58325 0.22091 0.13241 0.0
C403 C 0.56529 0.24912 0.13559 0.0
C404 C 0.54789 0.2514 0.1598 0.0
C405 C 0.55007 0.22712 0.18091 0.0
C406 C 0.56441 0.27595 0.11349 0.0
C407 C 0.52268 0.26675 0.10374 0.0
C408 C 0.60427 0.30838 0.10104 0.0
C409 C 0.64952 0.3228 0.11175 0.0
C410 C 0.65998 0.33732 0.13774 0.0
C411 C 0.70338 0.35354 0.14726 0.0
C412 C 0.73682 0.35589 0.13091 0.0
C413 C 0.72681 0.34155 0.10507 0.0
C414 C 0.68339 0.32498 0.09551 0.0
C415 C 0.54088 0.38694 0.01712 0.0
C416 C 0.56144 0.38039 0.99524 0.0
C417 C 0.53972 0.36651 0.04086 0.0
C418 C 0.55889 0.33917 0.04291 0.0
C419 C 0.57866 0.33203 0.02103 0.0
C420 C 0.57986 0.35233 0.99743 0.0
C421 C 0.55945 0.31833 0.06787 0.0
C422 C 0.60114 0.32892 0.07825 0.0
C423 C 0.51969 0.2874 0.08092 0.0
C424 C 0.47476 0.27453 0.07054 0.0
C425 C 0.46171 0.25554 0.04558 0.0
C426 C 0.41954 0.24412 0.03577 0.0
C427 C 0.39 0.25123 0.05083 0.0
C428 C 0.40251 0.26964 0.07577 0.0
C429 C 0.44467 0.28114 0.08567 0.0
H430 H 0.35739 0.24233 0.0432 0.0
H431 H 0.77041 0.36854 0.1383 0.0
H432 H 0.45449 0.43102 0.98556 0.0
H433 H 0.38723 0.42719 0.00363 0.0
H434 H 0.32542 0.39397 0.92772 0.0
H435 H 0.39266 0.39681 0.90957 0.0
H436 H 0.33519 0.47337 0.95109 0.0
H437 H 0.27588 0.31923 0.97285 0.0
H438 H 0.27675 0.2536 0.99119 0.0
H439 H 0.30242 0.31293 0.06734 0.0
H440 H 0.30231 0.37924 0.04943 0.0
H441 H 0.14887 0.48321 0.00669 0.0
H442 H 0.18939 0.45181 0.98367 0.0
H443 H 0.27406 0.47823 0.05085 0.0
H444 H 0.23487 0.51123 0.0734 0.0
H445 H 0.24159 0.39105 0.02738 0.0
H446 H 0.31524 0.54682 0.00774 0.0
H447 H 0.33283 0.62104 0.99132 0.0
H448 H 0.29539 0.5674 0.91405 0.0
H449 H 0.27609 0.49233 0.93016 0.0
C450 C 0.42606 0.42169 0.97287 0.0
C451 C 0.42872 0.41446 0.94618 0.0
C452 C 0.38758 0.41924 0.98324 0.0
C453 C 0.35133 0.41013 0.96702 0.0
C454 C 0.35298 0.40068 0.94056 0.0
C455 C 0.39127 0.40224 0.93024 0.0
C456 C 0.31544 0.4176 0.97706 0.0
C457 C 0.31345 0.45443 0.96718 0.0
C458 C 0.28895 0.39409 0.99886 0.0
C459 C 0.28926 0.35435 0.00974 0.0
C460 C 0.28208 0.31849 0.99347 0.0
C461 C 0.28235 0.28111 0.0038 0.0
C462 C 0.28961 0.2791 0.03041 0.0
C463 C 0.29673 0.31451 0.04674 0.0
C464 C 0.29648 0.35197 0.03651 0.0
C465 C 0.17554 0.48136 0.01664 0.0
C466 C 0.18858 0.49895 0.04185 0.0
C467 C 0.19881 0.46382 0.00346 0.0
C468 C 0.23468 0.46277 0.01559 0.0
C469 C 0.24636 0.4786 0.04122 0.0
C470 C 0.22399 0.49729 0.05408 0.0
C471 C 0.26142 0.44697 0.00136 0.0
C472 C 0.262 0.40895 0.01065 0.0
C473 C 0.28762 0.47012 0.97935 0.0
C474 C 0.29333 0.51361 0.97029 0.0
C475 C 0.30942 0.55042 0.9874 0.0
C476 C 0.32015 0.5928 0.97809 0.0
C477 C 0.31561 0.59899 0.95163 0.0
C478 C 0.29921 0.56259 0.93451 0.0
C479 C 0.28802 0.52004 0.94376 0.0
H480 H 0.32459 0.63198 0.94439 0.0
H481 H 0.28954 0.25003 0.03839 0.0
H482 H 0.03115 0.46441 0.15155 0.0
H483 H 0.96946 0.39629 0.16935 0.0
H484 H 0.93584 0.3379 0.09247 0.0
H485 H 0.99704 0.40793 0.07408 0.0
H486 H 0.8633 0.31966 0.11514 0.0
H487 H 0.98288 0.30062 0.14222 0.0
H488 H 0.05612 0.31936 0.16074 0.0
H489 H 0.01594 0.34336 0.23532 0.0
H490 H 0.94276 0.32551 0.2172 0.0
H491 H 0.69036 0.1316 0.18488 0.0
H492 H 0.76216 0.17052 0.16145 0.0
H493 H 0.81074 0.28025 0.21609 0.0
H494 H 0.73901 0.24215 0.23911 0.0
H495 H 0.87661 0.25531 0.19882 0.0
H496 H 0.75863 0.28205 0.16586 0.0
H497 H 0.68377 0.25347 0.14676 0.0
H498 H 0.72268 0.20696 0.07964 0.0
H499 H 0.79725 0.23336 0.09896 0.0
C500 C 0.01115 0.43704 0.1383 0.0
C501 C 0.0193 0.44175 0.1113 0.0
C502 C 0.97588 0.39767 0.14863 0.0
C503 C 0.94838 0.36118 0.13244 0.0
C504 C 0.95671 0.36538 0.10545 0.0
C505 C 0.99177 0.40536 0.09495 0.0
C506 C 0.90926 0.32046 0.14388 0.0
C507 C 0.86654 0.30489 0.13306 0.0
C508 C 0.91303 0.30063 0.16727 0.0
C509 C 0.95725 0.31178 0.17829 0.0
C510 C 0.98974 0.31019 0.16253 0.0
C511 C 0.03126 0.32062 0.17297 0.0
C512 C 0.04064 0.33248 0.1992 0.0
C513 C 0.00859 0.33408 0.21502 0.0
C514 C 0.96704 0.32373 0.20468 0.0
C515 C 0.71686 0.16342 0.19228 0.0
C516 C 0.70916 0.18408 0.2137 0.0
C517 C 0.75774 0.18561 0.17886 0.0
C518 C 0.79156 0.22834 0.18698 0.0
C519 C 0.78509 0.24726 0.20957 0.0
C520 C 0.74408 0.22558 0.22263 0.0
C521 C 0.83137 0.25627 0.17052 0.0
C522 C 0.87396 0.26942 0.18048 0.0
C523 C 0.82755 0.27304 0.14608 0.0
C524 C 0.7833 0.25894 0.1341 0.0
C525 C 0.75106 0.26509 0.14723 0.0
C526 C 0.70856 0.24909 0.1364 0.0
C527 C 0.69836 0.22817 0.11205 0.0
C528 C 0.73058 0.22305 0.09854 0.0
C529 C 0.77289 0.23829 0.10949 0.0
H530 H 0.6656 0.21617 0.10358 0.0
H531 H 0.0727 0.34035 0.20729 0.0
H532 H 0.54136 0.67893 0.35676 0.0
H533 H 0.56952 0.74905 0.33224 0.0
H534 H 0.46464 0.76723 0.36465 0.0
H535 H 0.43664 0.69753 0.38956 0.0
H536 H 0.47423 0.7758 0.30857 0.0
H537 H 0.56292 0.82881 0.38773 0.0
H538 H 0.61518 0.82948 0.42065 0.0
H539 H 0.71455 0.86118 0.36143 0.0
H540 H 0.66258 0.86007 0.32808 0.0
H541 H 0.58658 0.0275 0.31217 0.0
H542 H 0.58132 0.95924 0.32883 0.0
H543 H 0.56649 0.90792 0.25058 0.0
H544 H 0.57011 0.97625 0.23359 0.0
H545 H 0.62199 0.91199 0.32465 0.0
H546 H 0.48466 0.78895 0.25594 0.0
H547 H 0.4343 0.78916 0.22199 0.0
H548 H 0.43195 0.8986 0.26036 0.0
H549 H 0.47993 0.89716 0.29538 0.0
C550 C 0.52465 0.69819 0.35892 0.0
C551 C 0.48696 0.68291 0.3752 0.0
C552 C 0.54071 0.7381 0.34486 0.0
C553 C 0.51902 0.76308 0.34661 0.0
C554 C 0.48171 0.74824 0.36305 0.0
C555 C 0.46605 0.7087 0.37744 0.0
C556 C 0.5349 0.80459 0.33116 0.0
C557 C 0.50656 0.80558 0.31198 0.0
C558 C 0.57743 0.84299 0.33534 0.0
C559 C 0.60869 0.84383 0.35538 0.0
C560 C 0.59576 0.83551 0.3817 0.0
C561 C 0.62536 0.83606 0.40044 0.0
C562 C 0.66811 0.84522 0.39312 0.0
C563 C 0.6814 0.854 0.36706 0.0
C564 C 0.6519 0.85344 0.34823 0.0
C565 C 0.5827 0.00205 0.29834 0.0
C566 C 0.57758 0.00689 0.27156 0.0
C567 C 0.58013 0.96308 0.30794 0.0
C568 C 0.57262 0.92804 0.29104 0.0
C569 C 0.57153 0.93428 0.26403 0.0
C570 C 0.57367 0.97334 0.25434 0.0
C571 C 0.5608 0.88382 0.30242 0.0
C572 C 0.58991 0.88207 0.32085 0.0
C573 C 0.5188 0.84469 0.29759 0.0
C574 C 0.48672 0.84357 0.27798 0.0
C575 C 0.47287 0.81263 0.25733 0.0
C576 C 0.44452 0.81279 0.23797 0.0
C577 C 0.42993 0.84387 0.23901 0.0
C578 C 0.44297 0.8743 0.25967 0.0
C579 C 0.47051 0.87362 0.27938 0.0
H580 H 0.40863 0.84438 0.22375 0.0
H581 H 0.69099 0.84564 0.40766 0.0
H582 H 0.8625 0.56385 0.52582 0.0
H583 H 0.82317 0.59412 0.5009 0.0
H584 H 0.69912 0.49994 0.53866 0.0
H585 H 0.73785 0.46893 0.56297 0.0
H586 H 0.68732 0.49529 0.48859 0.0
H587 H 0.75605 0.61488 0.55156 0.0
H588 H 0.81872 0.67587 0.57591 0.0
H589 H 0.87601 0.74642 0.50443 0.0
H590 H 0.81392 0.68551 0.47962 0.0
H591 H 0.54283 0.57756 0.47897 0.0
H592 H 0.61172 0.58576 0.4972 0.0
H593 H 0.66734 0.60337 0.42003 0.0
H594 H 0.59799 0.59546 0.4015 0.0
H595 H 0.72269 0.6536 0.48288 0.0
H596 H 0.65135 0.51869 0.42088 0.0
H597 H 0.5803 0.45972 0.40151 0.0
H598 H 0.522 0.4211 0.47773 0.0
H599 H 0.59263 0.47994 0.49746 0.0
C600 C 0.82701 0.55024 0.52915 0.0
C601 C 0.80315 0.51376 0.5462 0.0
C602 C 0.80457 0.56756 0.51488 0.0
C603 C 0.7581 0.54912 0.51778 0.0
C604 C 0.73487 0.51437 0.53586 0.0
C605 C 0.75707 0.49678 0.54983 0.0
C606 C 0.73266 0.56348 0.50093 0.0
C607 C 0.69566 0.53007 0.48719 0.0
C608 C 0.74334 0.60883 0.49883 0.0
C609 C 0.78067 0.64538 0.51371 0.0
C610 C 0.78223 0.6432 0.54102 0.0
C611 C 0.8176 0.67779 0.55491 0.0
C612 C 0.85141 0.71492 0.54172 0.0
C613 C 0.84985 0.71759 0.51462 0.0
C614 C 0.81457 0.68306 0.50063 0.0
C615 C 0.57033 0.58474 0.46594 0.0
C616 C 0.56508 0.58538 0.43885 0.0
C617 C 0.60976 0.5898 0.47639 0.0
C618 C 0.64444 0.59518 0.45995 0.0
C619 C 0.64099 0.59975 0.43299 0.0
C620 C 0.60143 0.59512 0.42245 0.0
C621 C 0.67826 0.58548 0.47069 0.0
C622 C 0.71604 0.61932 0.48354 0.0
C623 C 0.66834 0.54054 0.4723 0.0
C624 C 0.62705 0.50355 0.46057 0.0
C625 C 0.62336 0.49746 0.43345 0.0
C626 C 0.58319 0.46422 0.42243 0.0
C627 C 0.54664 0.43695 0.43839 0.0
C628 C 0.55031 0.44243 0.46541 0.0
C629 C 0.59041 0.47556 0.47651 0.0
H630 H 0.51555 0.4113 0.42989 0.0
H631 H 0.87875 0.74168 0.5525 0.0
H632 H 0.32279 0.86295 0.68293 0.0
H633 H 0.25142 0.8224 0.65959 0.0
H634 H 0.20469 0.71414 0.71538 0.0
H635 H 0.2769 0.7535 0.7377 0.0
H636 H 0.18968 0.67997 0.67086 0.0
H637 H 0.16278 0.79059 0.7098 0.0
H638 H 0.17837 0.86673 0.72091 0.0
H639 H 0.17867 0.89682 0.63974 0.0
H640 H 0.16365 0.82101 0.62812 0.0
H641 H 0.95998 0.56207 0.64984 0.0
H642 H 0.02739 0.62581 0.66749 0.0
H643 H 0.07909 0.66824 0.58989 0.0
H644 H 0.01177 0.60341 0.57175 0.0
H645 H 0.09308 0.73902 0.64023 0.0
H646 H 0.11618 0.61906 0.60444 0.0
H647 H 0.08867 0.53814 0.59915 0.0
H648 H 0.08903 0.52297 0.68208 0.0
H649 H 0.11421 0.60331 0.68795 0.0
C650 C 0.29678 0.83097 0.69049 0.0
C651 C 0.30511 0.81124 0.71208 0.0
C652 C 0.25597 0.80778 0.67715 0.0
C653 C 0.22244 0.76509 0.68567 0.0
C654 C 0.23007 0.74676 0.70821 0.0
C655 C 0.27116 0.76935 0.72109 0.0
C656 C 0.1809 0.73772 0.67019 0.0
C657 C 0.16871 0.69315 0.66431 0.0
C658 C 0.15353 0.75471 0.66115 0.0
C659 C 0.16262 0.80031 0.66808 0.0
C660 C 0.16655 0.81357 0.69431 0.0
C661 C 0.17521 0.85664 0.7007 0.0
C662 C 0.17965 0.88664 0.68104 0.0
C663 C 0.17531 0.87358 0.65494 0.0
C664 C 0.1667 0.83056 0.64845 0.0
C665 C 0.9851 0.58534 0.63635 0.0
C666 C 0.98093 0.577 0.60936 0.0
C667 C 0.02347 0.62198 0.64654 0.0
C668 C 0.05813 0.6513 0.62997 0.0
C669 C 0.05244 0.64584 0.60291 0.0
C670 C 0.01409 0.60869 0.59262 0.0
C671 C 0.1025 0.682 0.64136 0.0
C672 C 0.11493 0.72671 0.64648 0.0
C673 C 0.12972 0.66501 0.65029 0.0
C674 C 0.11652 0.61713 0.64664 0.0
C675 C 0.10979 0.59837 0.62157 0.0
C676 C 0.09462 0.55261 0.61846 0.0
C677 C 0.08723 0.52548 0.64024 0.0
C678 C 0.09478 0.54403 0.66521 0.0
C679 C 0.1093 0.58963 0.66844 0.0
H680 H 0.07569 0.49012 0.63777 0.0
H681 H 0.18634 0.91997 0.68603 0.0
H682 H 0.54499 0.28382 0.90201 0.0
H683 H 0.52011 0.21469 0.87714 0.0
H684 H 0.41181 0.22686 0.84451 0.0
H685 H 0.43697 0.29664 0.86895 0.0
H686 H 0.38924 0.13629 0.85977 0.0
H687 H 0.49463 0.26237 0.8094 0.0
H688 H 0.56569 0.33235 0.80049 0.0
H689 H 0.63844 0.26294 0.81119 0.0
H690 H 0.56799 0.19282 0.82086 0.0
H691 H 0.43846 0.02092 0.74044 0.0
H692 H 0.43855 0.08555 0.76039 0.0
H693 H 0.41801 0.02335 0.83598 0.0
H694 H 0.41635 0.95856 0.81628 0.0
H695 H 0.49683 0.14257 0.79346 0.0
H696 H 0.36851 0.05706 0.87744 0.0
H697 H 0.29721 0.98671 0.88522 0.0
H698 H 0.26721 0.97584 0.8035 0.0
H699 H 0.33803 0.04644 0.79525 0.0
C700 C 0.51524 0.27127 0.89004 0.0
C701 C 0.49301 0.29575 0.88734 0.0
C702 C 0.5013 0.23198 0.87571 0.0
C703 C 0.46457 0.2162 0.85877 0.0
C704 C 0.44038 0.23874 0.85741 0.0
C705 C 0.45476 0.27849 0.87139 0.0
C706 C 0.45321 0.17771 0.8414 0.0
C707 C 0.41257 0.13755 0.84519 0.0
C708 C 0.48336 0.18004 0.82195 0.0
C709 C 0.52594 0.22236 0.81624 0.0
C710 C 0.5258 0.26212 0.81022 0.0
C711 C 0.56599 0.30183 0.80496 0.0
C712 C 0.60656 0.30213 0.80538 0.0
C713 C 0.607 0.2627 0.81097 0.0
C714 C 0.56695 0.22297 0.81637 0.0
C715 C 0.43286 0.02059 0.76121 0.0
C716 C 0.42758 0.98464 0.77675 0.0
C717 C 0.43317 0.05764 0.77261 0.0
C718 C 0.42795 0.05922 0.79968 0.0
C719 C 0.42119 0.02265 0.81502 0.0
C720 C 0.4206 0.98566 0.80369 0.0
C721 C 0.43337 0.10037 0.81236 0.0
C722 C 0.47306 0.14123 0.80776 0.0
C723 C 0.40214 0.09877 0.83086 0.0
C724 C 0.35872 0.05701 0.83573 0.0
C725 C 0.34653 0.03989 0.86115 0.0
C726 C 0.30624 0.9999 0.86564 0.0
C727 C 0.27775 0.97678 0.84486 0.0
C728 C 0.28938 0.99372 0.81957 0.0
C729 C 0.3296 0.03371 0.81497 0.0
H730 H 0.24666 0.94574 0.84837 0.0
H731 H 0.63764 0.33287 0.80134 0.0
H732 H 0.48656 0.75239 0.76137 0.0
H733 H 0.51724 0.71507 0.78736 0.0
H734 H 0.5962 0.83654 0.83144 0.0
H735 H 0.56564 0.87455 0.80527 0.0
H736 H 0.63534 0.77282 0.82054 0.0
H737 H 0.51361 0.78088 0.86053 0.0
H738 H 0.44133 0.77887 0.85977 0.0
H739 H 0.3755 0.64243 0.83272 0.0
H740 H 0.44763 0.64386 0.833 0.0
H741 H 0.61871 0.60785 0.91879 0.0
H742 H 0.62478 0.67659 0.90014 0.0
H743 H 0.52342 0.59645 0.84352 0.0
H744 H 0.51723 0.52868 0.86158 0.0
H745 H 0.50609 0.65619 0.87083 0.0
H746 H 0.63007 0.6522 0.82689 0.0
H747 H 0.70283 0.65512 0.82672 0.0
H748 H 0.76544 0.78558 0.86226 0.0
H749 H 0.69278 0.78302 0.86318 0.0
C750 C 0.51148 0.77164 0.77605 0.0
C751 C 0.52313 0.8161 0.78159 0.0
C752 C 0.52912 0.75034 0.7908 0.0
C753 C 0.55847 0.77298 0.81146 0.0
C754 C 0.57365 0.81867 0.8155 0.0
C755 C 0.55609 0.84024 0.80056 0.0
C756 C 0.56616 0.74624 0.83106 0.0
C757 C 0.60757 0.74801 0.8321 0.0
C758 C 0.52985 0.71416 0.84616 0.0
C759 C 0.48609 0.71258 0.84665 0.0
C760 C 0.48376 0.75053 0.85428 0.0
C761 C 0.44281 0.7495 0.85394 0.0
C762 C 0.40382 0.7106 0.84613 0.0
C763 C 0.40572 0.67256 0.83876 0.0
C764 C 0.44663 0.67343 0.83906 0.0
C765 C 0.59796 0.60506 0.90229 0.0
C766 C 0.56711 0.56269 0.8919 0.0
C767 C 0.6015 0.64428 0.89167 0.0
C768 C 0.57424 0.64141 0.87061 0.0
C769 C 0.54441 0.59932 0.85995 0.0
C770 C 0.54096 0.56053 0.87036 0.0
C771 C 0.5748 0.68133 0.85959 0.0
C772 C 0.53454 0.68196 0.8601 0.0
C773 C 0.61231 0.71566 0.84622 0.0
C774 C 0.6559 0.71715 0.84544 0.0
C775 C 0.65925 0.68131 0.83491 0.0
C776 C 0.70049 0.68293 0.83462 0.0
C777 C 0.73872 0.72046 0.84449 0.0
C778 C 0.73579 0.75649 0.85466 0.0
C779 C 0.69459 0.75495 0.85509 0.0
H780 H 0.77062 0.72165 0.84422 0.0
H781 H 0.37216 0.70992 0.84583 0.0
H782 H 0.96157 0.50885 0.07913 0.0
H783 H 0.89617 0.50317 0.05706 0.0
H784 H 0.97841 0.63775 0.02708 0.0
H785 H 0.04439 0.64179 0.04758 0.0
H786 H 0.84698 0.53658 0.05478 0.0
H787 H 0.94871 0.648 0.96687 0.0
H788 H 0.02095 0.67208 0.94494 0.0
H789 H 0.01919 0.55347 0.97217 0.0
H790 H 0.94663 0.52833 0.99388 0.0
H791 H 0.69021 0.55269 0.97687 0.0
H792 H 0.7602 0.57657 0.00023 0.0
H793 H 0.79325 0.50125 0.94665 0.0
H794 H 0.72385 0.47801 0.92283 0.0
H795 H 0.86681 0.57356 0.9605 0.0
H796 H 0.74326 0.45518 0.00417 0.0
H797 H 0.66864 0.41384 0.02458 0.0
H798 H 0.7089 0.51758 0.08207 0.0
H799 H 0.7838 0.55989 0.0618 0.0
C800 C 0.96524 0.53752 0.06832 0.0
C801 C 0.00763 0.57578 0.065 0.0
C802 C 0.92794 0.5343 0.05565 0.0
C803 C 0.9324 0.5696 0.03979 0.0
C804 C 0.97425 0.6095 0.0385 0.0
C805 C 0.01181 0.61211 0.05047 0.0
C806 C 0.89432 0.56314 0.02309 0.0
C807 C 0.85151 0.54507 0.03423 0.0
C808 C 0.89958 0.57247 0.99597 0.0
C809 C 0.9425 0.5866 0.98224 0.0
C810 C 0.96363 0.62695 0.96804 0.0
C811 C 0.00464 0.64079 0.95567 0.0
C812 C 0.02473 0.61441 0.95725 0.0
C813 C 0.00367 0.57394 0.97103 0.0
C814 C 0.96259 0.55988 0.98335 0.0
C815 C 0.71282 0.54201 0.96967 0.0
C816 C 0.70104 0.51288 0.94817 0.0
C817 C 0.75273 0.55548 0.98316 0.0
C818 C 0.78144 0.53977 0.9756 0.0
C819 C 0.7715 0.51358 0.95297 0.0
C820 C 0.73172 0.50032 0.93933 0.0
C821 C 0.81986 0.54773 0.99233 0.0
C822 C 0.86258 0.56582 0.98115 0.0
C823 C 0.81406 0.53596 0.01908 0.0
C824 C 0.76896 0.511 0.03126 0.0
C825 C 0.73608 0.46942 0.02101 0.0
C826 C 0.69374 0.44575 0.03258 0.0
C827 C 0.68392 0.46313 0.05454 0.0
C828 C 0.71651 0.5042 0.06502 0.0
C829 C 0.75894 0.52805 0.05351 0.0
H830 H 0.65112 0.44469 0.06348 0.0
H831 H 0.05657 0.62529 0.94777 0.0
H832 H 0.40136 0.01633 0.25169 0.0
H833 H 0.33016 0.95843 0.23246 0.0
H834 H 0.40304 0.94648 0.16754 0.0
H835 H 0.47282 0.00549 0.18571 0.0
H836 H 0.33473 0.94617 0.14946 0.0
H837 H 0.35424 0.86903 0.22751 0.0
H838 H 0.3549 0.85713 0.27505 0.0
H839 H 0.22746 0.84905 0.28267 0.0
H840 H 0.22575 0.86024 0.23529 0.0
H841 H 0.25315 0.73399 0.10017 0.0
H842 H 0.28847 0.80675 0.12154 0.0
H843 H 0.16513 0.76972 0.162 0.0
H844 H 0.12932 0.6958 0.14067 0.0
H845 H 0.23456 0.8032 0.19518 0.0
H846 H 0.20414 0.85409 0.11746 0.0
H847 H 0.19745 0.8614 0.07016 0.0
H848 H 0.33988 0.9212 0.06158 0.0
H849 H 0.34744 0.91365 0.10876 0.0
C850 C 0.40182 0.00125 0.23327 0.0
C851 C 0.44251 0.01558 0.22008 0.0
C852 C 0.36121 0.96801 0.22235 0.0
C853 C 0.36097 0.94765 0.19852 0.0
C854 C 0.40191 0.96183 0.18573 0.0
C855 C 0.44198 0.99559 0.19619 0.0
C856 C 0.31912 0.91142 0.18628 0.0
C857 C 0.31288 0.91488 0.15949 0.0
C858 C 0.28826 0.8716 0.19956 0.0
C859 C 0.29016 0.86595 0.228 0.0
C860 C 0.32655 0.8649 0.2394 0.0
C861 C 0.32708 0.85825 0.26625 0.0
C862 C 0.29149 0.8527 0.28183 0.0
C863 C 0.2551 0.85351 0.2706 0.0
C864 C 0.25427 0.85987 0.24376 0.0
C865 C 0.23319 0.74143 0.11329 0.0
C866 C 0.18849 0.70901 0.11881 0.0
C867 C 0.25338 0.78328 0.12538 0.0
C868 C 0.22936 0.79398 0.1432 0.0
C869 C 0.18421 0.76226 0.14821 0.0
C870 C 0.16377 0.72017 0.13593 0.0
C871 C 0.25346 0.83674 0.15801 0.0
C872 C 0.25577 0.83478 0.18523 0.0
C873 C 0.28046 0.87815 0.14518 0.0
C874 C 0.27632 0.88325 0.11673 0.0
C875 C 0.23404 0.86861 0.10549 0.0
C876 C 0.23009 0.87281 0.07868 0.0
C877 C 0.26822 0.89176 0.06288 0.0
C878 C 0.31038 0.9066 0.07385 0.0
C879 C 0.31453 0.90246 0.10065 0.0
H880 H 0.26508 0.89495 0.04212 0.0
H881 H 0.29202 0.8476 0.3026 0.0
H882 H 0.43776 0.12616 0.29536 0.0
H883 H 0.40351 0.15998 0.32229 0.0
H884 H 0.52132 0.29031 0.31218 0.0
H885 H 0.55523 0.25761 0.2852 0.0
H886 H 0.49336 0.25725 0.36614 0.0
H887 H 0.4379 0.2756 0.2819 0.0
H888 H 0.39292 0.24606 0.24188 0.0
H889 H 0.27391 0.17031 0.28777 0.0
H890 H 0.31839 0.19897 0.3281 0.0
H891 H 0.49844 0.45599 0.38461 0.0
H892 H 0.49609 0.38778 0.37034 0.0
H893 H 0.35891 0.30905 0.39612 0.0
H894 H 0.3613 0.37829 0.41114 0.0
H895 H 0.37491 0.29222 0.34336 0.0
H896 H 0.42795 0.28929 0.42731 0.0
H897 H 0.47182 0.31386 0.46795 0.0
H898 H 0.59303 0.35552 0.42483 0.0
H899 H 0.55008 0.33196 0.38389 0.0
C900 C 0.45593 0.16214 0.29847 0.0
C901 C 0.49948 0.18909 0.28835 0.0
C902 C 0.43634 0.18131 0.31387 0.0
C903 C 0.46018 0.22749 0.31934 0.0
C904 C 0.50258 0.25454 0.30827 0.0
C905 C 0.52187 0.23569 0.29281 0.0
C906 C 0.44347 0.24818 0.33809 0.0
C907 C 0.46721 0.26466 0.36141 0.0
C908 C 0.40809 0.25601 0.3322 0.0
C909 C 0.38153 0.23884 0.30798 0.0
C910 C 0.40223 0.25223 0.28345 0.0
C911 C 0.37681 0.23576 0.26072 0.0
C912 C 0.33061 0.20617 0.26228 0.0
C913 C 0.30971 0.19312 0.28659 0.0
C914 C 0.33501 0.20947 0.30939 0.0
C915 C 0.46774 0.42423 0.3875 0.0
C916 C 0.42992 0.42252 0.39888 0.0
C917 C 0.4666 0.38516 0.3795 0.0
C918 C 0.42749 0.34331 0.38237 0.0
C919 C 0.38955 0.34108 0.39396 0.0
C920 C 0.39096 0.38049 0.40254 0.0
C921 C 0.42654 0.30337 0.37097 0.0
C922 C 0.39976 0.28334 0.34887 0.0
C923 C 0.45911 0.29196 0.37807 0.0
C924 C 0.48565 0.3088 0.40246 0.0
C925 C 0.46401 0.30414 0.42643 0.0
C926 C 0.48871 0.31768 0.44956 0.0
C927 C 0.53514 0.33594 0.44899 0.0
C928 C 0.55703 0.34113 0.42527 0.0
C929 C 0.5325 0.32769 0.40209 0.0
H930 H 0.55419 0.3464 0.46691 0.0
H931 H 0.31098 0.19348 0.24466 0.0
H932 H 0.02099 0.44595 0.59582 0.0
H933 H 0.08495 0.44226 0.57785 0.0
H934 H 0.03426 0.43544 0.50014 0.0
H935 H 0.97043 0.43754 0.51772 0.0
H936 H 0.06176 0.38002 0.50254 0.0
H937 H 0.12528 0.536 0.52761 0.0
H938 H 0.14923 0.60191 0.55609 0.0
H939 H 0.22307 0.55946 0.6038 0.0
H940 H 0.19961 0.49334 0.57555 0.0
H941 H 0.25701 0.48245 0.42134 0.0
H942 H 0.18846 0.45914 0.44646 0.0
H943 H 0.24965 0.43808 0.514 0.0
H944 H 0.31787 0.46059 0.48913 0.0
H945 H 0.21812 0.49765 0.52209 0.0
H946 H 0.1651 0.35041 0.48778 0.0
H947 H 0.14768 0.29385 0.45351 0.0
H948 H 0.05561 0.32737 0.41837 0.0
H949 H 0.073 0.38466 0.45217 0.0
C950 C 0.02339 0.44324 0.57494 0.0
C951 C 0.99057 0.44219 0.55827 0.0
C952 C 0.06013 0.44147 0.56466 0.0
C953 C 0.06474 0.43896 0.53756 0.0
C954 C 0.03154 0.43715 0.52108 0.0
C955 C 0.99497 0.43857 0.53126 0.0
C956 C 0.10391 0.43857 0.5258 0.0
C957 C 0.09595 0.40594 0.50679 0.0
C958 C 0.14869 0.47158 0.53169 0.0
C959 C 0.16011 0.50939 0.54974 0.0
C960 C 0.1461 0.54041 0.54439 0.0
C961 C 0.15992 0.578 0.56035 0.0
C962 C 0.18767 0.58487 0.58173 0.0
C963 C 0.20151 0.55405 0.58727 0.0
C964 C 0.18802 0.51655 0.57128 0.0
C965 C 0.2555 0.47175 0.44133 0.0
C966 C 0.29313 0.47375 0.45322 0.0
C967 C 0.21628 0.4584 0.45566 0.0
C968 C 0.21412 0.44703 0.48211 0.0
C969 C 0.2507 0.44674 0.49363 0.0
C970 C 0.28964 0.45952 0.47928 0.0
C971 C 0.17574 0.44025 0.49836 0.0
C972 C 0.18394 0.47136 0.51825 0.0
C973 C 0.13121 0.40661 0.49281 0.0
C974 C 0.12065 0.37212 0.47243 0.0
C975 C 0.14144 0.34602 0.47262 0.0
C976 C 0.13151 0.31376 0.45329 0.0
C977 C 0.10063 0.30709 0.43374 0.0
C978 C 0.07955 0.3326 0.43351 0.0
C979 C 0.0894 0.36494 0.45277 0.0
H980 H 0.09298 0.28208 0.41881 0.0
H981 H 0.19841 0.61404 0.59402 0.0
H982 H 0.59155 0.02289 0.76173 0.0
H983 H 0.65782 0.09064 0.7452 0.0
H984 H 0.61964 0.04228 0.66652 0.0
H985 H 0.55471 0.9746 0.68274 0.0
H986 H 0.70518 0.07847 0.67071 0.0
H987 H 0.5962 0.11919 0.69625 0.0
H988 H 0.54647 0.13087 0.72557 0.0
H989 H 0.65961 0.22206 0.77188 0.0
H990 H 0.70996 0.21019 0.74313 0.0
H991 H 0.76696 0.27455 0.59347 0.0
H992 H 0.7292 0.20482 0.6188 0.0
H993 H 0.82654 0.26745 0.68017 0.0
H994 H 0.86551 0.33697 0.65439 0.0
H995 H 0.72469 0.22785 0.69118 0.0
H996 H 0.83367 0.19274 0.65842 0.0
H997 H 0.87869 0.18401 0.62415 0.0
H998 H 0.75849 0.0843 0.58635 0.0
H999 H 0.7127 0.09293 0.62018 0.0
C1000 C 0.59768 0.02647 0.74094 0.0
C1001 C 0.56757 0.9934 0.72357 0.0
C1002 C 0.63541 0.06535 0.73151 0.0
C1003 C 0.64345 0.0719 0.70457 0.0
C1004 C 0.61429 0.03811 0.68737 0.0
C1005 C 0.57693 0.99937 0.69673 0.0
C1006 C 0.68107 0.11423 0.69378 0.0
C1007 C 0.70942 0.11111 0.67529 0.0
C1008 C 0.68727 0.15709 0.70002 0.0
C1009 C 0.65678 0.16306 0.71782 0.0
C1010 C 0.61042 0.14117 0.71292 0.0
C1011 C 0.58212 0.14794 0.72939 0.0
C1012 C 0.59984 0.17699 0.75066 0.0
C1013 C 0.6459 0.19934 0.7555 0.0
C1014 C 0.67432 0.19253 0.73915 0.0
C1015 C 0.78112 0.27286 0.61197 0.0
C1016 C 0.8193 0.31076 0.62191 0.0
C1017 C 0.75951 0.23321 0.62643 0.0
C1018 C 0.77515 0.2312 0.6513 0.0
C1019 C 0.81424 0.26845 0.66093 0.0
C1020 C 0.8366 0.30786 0.64613 0.0
C1021 C 0.74771 0.19161 0.66793 0.0
C1022 C 0.72115 0.19528 0.68732 0.0
C1023 C 0.74233 0.14919 0.66209 0.0
C1024 C 0.76975 0.14374 0.64176 0.0
C1025 C 0.81682 0.16924 0.64268 0.0
C1026 C 0.84248 0.16425 0.62335 0.0
C1027 C 0.82146 0.13368 0.60306 0.0
C1028 C 0.77473 0.10797 0.60208 0.0
C1029 C 0.74891 0.11286 0.62135 0.0
H1030 H 0.84139 0.12986 0.58811 0.0
H1031 H 0.5779 0.18235 0.76332 0.0
loop_
_geom_bond_atom_site_label_1
_geom_bond_atom_site_label_2
_geom_bond_distance
_geom_bond_site_symmetry_2
_ccdc_geom_bond_type
Fe0 O2 1.918 . S
Fe0 O5 1.997 . S
Fe0 O6 2.002 . S
Fe0 O11 1.976 . S
Fe0 O14 1.996 . S
Fe1 O2 1.918 . S
Fe1 O9 1.997 . S
Fe1 O12 1.996 . S
Fe1 O16 1.976 . S
Fe1 O19 2.002 . S
O2 Fe0 1.918 . S
O2 Fe1 1.918 . S
O2 Fe3 1.918 . S
Fe3 O2 1.918 . S
Fe3 O4 2.002 . S
Fe3 O13 1.976 . S
Fe3 O17 1.996 . S
Fe3 O20 1.997 . S
O4 Fe3 2.002 . S
O4 C21 1.295 . S
O5 Fe0 1.997 . S
O5 C21 1.235 . S
O6 Fe0 2.002 . S
O6 C7 1.295 . S
C7 O6 1.295 . S
C7 O9 1.235 . S
C8 O13 1.287 . S
C8 O14 1.255 . S
O9 Fe1 1.997 . S
O9 C7 1.235 . S
C10 O16 1.287 . S
C10 O17 1.255 . S
O11 Fe0 1.976 . S
O11 C18 1.287 . S
O12 Fe1 1.996 . S
O12 C18 1.255 . S
O13 Fe3 1.976 . S
O13 C8 1.287 . S
O14 Fe0 1.996 . S
O14 C8 1.255 . S
C15 O19 1.295 . S
C15 O20 1.235 . S
O16 Fe1 1.976 . S
O16 C10 1.287 . S
O17 Fe3 1.996 . S
O17 C10 1.255 . S
C18 O11 1.287 . S
C18 O12 1.255 . S
O19 Fe1 2.002 . S
O19 C15 1.295 . S
O20 Fe3 1.997 . S
O20 C15 1.235 . S
C21 O4 1.295 . S
C21 O5 1.235 . S
Fe22 O24 1.918 . S
Fe22 O27 1.997 . S
Fe22 O28 2.002 . S
Fe22 O33 1.976 . S
Fe22 O36 1.996 . S
Fe23 O24 1.918 . S
Fe23 O31 1.997 . S
Fe23 O34 1.996 . S
Fe23 O38 1.976 . S
Fe23 O41 2.002 . S
O24 Fe22 1.918 . S
O24 Fe23 1.918 . S
O24 Fe25 1.918 . S
Fe25 O24 1.918 . S
Fe25 O26 2.002 . S
Fe25 O35 1.976 . S
Fe25 O39 1.996 . S
Fe25 O42 1.997 . S
O26 Fe25 2.002 . S
O26 C43 1.295 . S
O27 Fe22 1.997 . S
O27 C43 1.235 . S
O28 Fe22 2.002 . S
O28 C29 1.295 . S
C29 O28 1.295 . S
C29 O31 1.235 . S
C30 O35 1.287 . S
C30 O36 1.255 . S
O31 Fe23 1.997 . S
O31 C29 1.235 . S
C32 O38 1.287 . S
C32 O39 1.255 . S
O33 Fe22 1.976 . S
O33 C40 1.287 . S
O34 Fe23 1.996 . S
O34 C40 1.255 . S
O35 Fe25 1.976 . S
O35 C30 1.287 . S
O36 Fe22 1.996 . S
O36 C30 1.255 . S
C37 O41 1.295 . S
C37 O42 1.235 . S
O38 Fe23 1.976 . S
O38 C32 1.287 . S
O39 Fe25 1.996 . S
O39 C32 1.255 . S
C40 O33 1.287 . S
C40 O34 1.255 . S
O41 Fe23 2.002 . S
O41 C37 1.295 . S
O42 Fe25 1.997 . S
O42 C37 1.235 . S
C43 O26 1.295 . S
C43 O27 1.235 . S
Fe44 O46 1.918 . S
Fe44 O49 1.997 . S
Fe44 O50 2.002 . S
Fe44 O55 1.976 . S
Fe44 O58 1.996 . S
Fe45 O46 1.918 . S
Fe45 O53 1.997 . S
Fe45 O56 1.996 . S
Fe45 O60 1.976 . S
Fe45 O63 2.002 . S
O46 Fe44 1.918 . S
O46 Fe45 1.918 . S
O46 Fe47 1.918 . S
Fe47 O46 1.918 . S
Fe47 O48 2.002 . S
Fe47 O57 1.976 . S
Fe47 O61 1.996 . S
Fe47 O64 1.997 . S
O48 Fe47 2.002 . S
O48 C65 1.295 . S
O49 Fe44 1.997 . S
O49 C65 1.235 . S
O50 Fe44 2.002 . S
O50 C51 1.295 . S
C51 O50 1.295 . S
C51 O53 1.235 . S
C52 O57 1.287 . S
C52 O58 1.255 . S
O53 Fe45 1.997 . S
O53 C51 1.235 . S
C54 O60 1.287 . S
C54 O61 1.255 . S
O55 Fe44 1.976 . S
O55 C62 1.287 . S
O56 Fe45 1.996 . S
O56 C62 1.255 . S
O57 Fe47 1.976 . S
O57 C52 1.287 . S
O58 Fe44 1.996 . S
O58 C52 1.255 . S
C59 O63 1.295 . S
C59 O64 1.235 . S
O60 Fe45 1.976 . S
O60 C54 1.287 . S
O61 Fe47 1.996 . S
O61 C54 1.255 . S
C62 O55 1.287 . S
C62 O56 1.255 . S
O63 Fe45 2.002 . S
O63 C59 1.295 . S
O64 Fe47 1.997 . S
O64 C59 1.235 . S
C65 O48 1.295 . S
C65 O49 1.235 . S
Fe66 O68 1.918 . S
Fe66 O71 1.997 . S
Fe66 O72 2.002 . S
Fe66 O77 1.976 . S
Fe66 O80 1.996 . S
Fe67 O68 1.918 . S
Fe67 O75 1.997 . S
Fe67 O78 1.996 . S
Fe67 O82 1.976 . S
Fe67 O85 2.002 . S
O68 Fe66 1.918 . S
O68 Fe67 1.918 . S
O68 Fe69 1.918 . S
Fe69 O68 1.918 . S
Fe69 O70 2.002 . S
Fe69 O79 1.976 . S
Fe69 O83 1.996 . S
Fe69 O86 1.997 . S
O70 Fe69 2.002 . S
O70 C87 1.295 . S
O71 Fe66 1.997 . S
O71 C87 1.235 . S
O72 Fe66 2.002 . S
O72 C73 1.295 . S
C73 O72 1.295 . S
C73 O75 1.235 . S
C74 O79 1.287 . S
C74 O80 1.255 . S
O75 Fe67 1.997 . S
O75 C73 1.235 . S
C76 O82 1.287 . S
C76 O83 1.255 . S
O77 Fe66 1.976 . S
O77 C84 1.287 . S
O78 Fe67 1.996 . S
O78 C84 1.255 . S
O79 Fe69 1.976 . S
O79 C74 1.287 . S
O80 Fe66 1.996 . S
O80 C74 1.255 . S
C81 O85 1.295 . S
C81 O86 1.235 . S
O82 Fe67 1.976 . S
O82 C76 1.287 . S
O83 Fe69 1.996 . S
O83 C76 1.255 . S
C84 O77 1.287 . S
C84 O78 1.255 . S
O85 Fe67 2.002 . S
O85 C81 1.295 . S
O86 Fe69 1.997 . S
O86 C81 1.235 . S
C87 O70 1.295 . S
C87 O71 1.235 . S
Fe88 O90 1.918 . S
Fe88 O93 1.997 . S
Fe88 O94 2.002 . S
Fe88 O99 1.976 . S
Fe88 O102 1.996 . S
Fe89 O90 1.918 . S
Fe89 O97 1.997 . S
Fe89 O100 1.996 . S
Fe89 O104 1.976 . S
Fe89 O107 2.002 . S
O90 Fe88 1.918 . S
O90 Fe89 1.918 . S
O90 Fe91 1.918 . S
Fe91 O90 1.918 . S
Fe91 O92 2.002 . S
Fe91 O101 1.976 . S
Fe91 O105 1.996 . S
Fe91 O108 1.997 . S
O92 Fe91 2.002 . S
O92 C109 1.295 . S
O93 Fe88 1.997 . S
O93 C109 1.235 . S
O94 Fe88 2.002 . S
O94 C95 1.295 . S
C95 O94 1.295 . S
C95 O97 1.235 . S
C96 O101 1.287 . S
C96 O102 1.255 . S
O97 Fe89 1.997 . S
O97 C95 1.235 . S
C98 O104 1.287 . S
C98 O105 1.255 . S
O99 Fe88 1.976 . S
O99 C106 1.287 . S
O100 Fe89 1.996 . S
O100 C106 1.255 . S
O101 Fe91 1.976 . S
O101 C96 1.287 . S
O102 Fe88 1.996 . S
O102 C96 1.255 . S
C103 O107 1.295 . S
C103 O108 1.235 . S
O104 Fe89 1.976 . S
O104 C98 1.287 . S
O105 Fe91 1.996 . S
O105 C98 1.255 . S
C106 O99 1.287 . S
C106 O100 1.255 . S
O107 Fe89 2.002 . S
O107 C103 1.295 . S
O108 Fe91 1.997 . S
O108 C103 1.235 . S
C109 O92 1.295 . S
C109 O93 1.235 . S
Fe110 O112 1.918 . S
Fe110 O115 1.997 . S
Fe110 O116 2.002 . S
Fe110 O121 1.976 . S
Fe110 O124 1.996 . S
Fe111 O112 1.918 . S
Fe111 O119 1.997 . S
Fe111 O122 1.996 . S
Fe111 O126 1.976 . S
Fe111 O129 2.002 . S
O112 Fe110 1.918 . S
O112 Fe111 1.918 . S
O112 Fe113 1.918 . S
Fe113 O112 1.918 . S
Fe113 O114 2.002 . S
Fe113 O123 1.976 . S
Fe113 O127 1.996 . S
Fe113 O130 1.997 . S
O114 Fe113 2.002 . S
O114 C131 1.295 . S
O115 Fe110 1.997 . S
O115 C131 1.235 . S
O116 Fe110 2.002 . S
O116 C117 1.295 . S
C117 O116 1.295 . S
C117 O119 1.235 . S
C118 O123 1.287 . S
C118 O124 1.255 . S
O119 Fe111 1.997 . S
O119 C117 1.235 . S
C120 O126 1.287 . S
C120 O127 1.255 . S
O121 Fe110 1.976 . S
O121 C128 1.287 . S
O122 Fe111 1.996 . S
O122 C128 1.255 . S
O123 Fe113 1.976 . S
O123 C118 1.287 . S
O124 Fe110 1.996 . S
O124 C118 1.255 . S
C125 O129 1.295 . S
C125 O130 1.235 . S
O126 Fe111 1.976 . S
O126 C120 1.287 . S
O127 Fe113 1.996 . S
O127 C120 1.255 . S
C128 O121 1.287 . S
C128 O122 1.255 . S
O129 Fe111 2.002 . S
O129 C125 1.295 . S
O130 Fe113 1.997 . S
O130 C125 1.235 . S
C131 O114 1.295 . S
C131 O115 1.235 . S
H132 C150 0.951 . S
H133 C152 0.951 . S
H134 C154 0.950 . S
H135 C155 0.950 . S
H136 C157 0.950 . S
H137 C160 0.950 . S
H138 C161 0.950 . S
H139 C163 0.950 . S
H140 C164 0.950 . S
H141 C165 0.951 . S
H142 C167 0.951 . S
H143 C169 0.950 . S
H144 C170 0.950 . S
H145 C172 0.950 . S
H146 C175 0.950 . S
H147 C176 0.950 . S
H148 C178 0.950 . S
H149 C179 0.950 . S
C150 H132 0.951 . S
C150 C151 1.366 . S
C150 C152 1.388 . S
C151 C150 1.366 . S
C151 C155 1.385 . S
C152 H133 0.951 . S
C152 C150 1.388 . S
C152 C153 1.366 . S
C153 C152 1.366 . S
C153 C154 1.414 . S
C153 C156 1.499 . S
C154 H134 0.950 . S
C154 C153 1.414 . S
C154 C155 1.374 . S
C155 H135 0.950 . S
C155 C151 1.385 . S
C155 C154 1.374 . S
C156 C153 1.499 . S
C156 C157 1.373 . S
C156 C158 1.389 . S
C157 H136 0.950 . S
C157 C156 1.373 . S
C157 C173 1.377 . S
C158 C156 1.389 . S
C158 C159 1.524 . S
C158 C172 1.377 . S
C159 C158 1.524 . S
C159 C160 1.397 . S
C159 C164 1.363 . S
C160 H137 0.950 . S
C160 C159 1.397 . S
C160 C161 1.334 . S
C161 H138 0.950 . S
C161 C160 1.334 . S
C161 C162 1.287 . S
C162 C161 1.287 . S
C162 C163 1.524 . S
C162 H181 0.913 . S
C163 H139 0.950 . S
C163 C162 1.524 . S
C163 C164 1.415 . S
C164 H140 0.950 . S
C164 C159 1.363 . S
C164 C163 1.415 . S
C165 H141 0.951 . S
C165 C166 1.366 . S
C165 C167 1.388 . S
C166 C165 1.366 . S
C166 C170 1.385 . S
C167 H142 0.951 . S
C167 C165 1.388 . S
C167 C168 1.366 . S
C168 C167 1.366 . S
C168 C169 1.414 . S
C168 C171 1.499 . S
C169 H143 0.950 . S
C169 C168 1.414 . S
C169 C170 1.374 . S
C170 H144 0.950 . S
C170 C166 1.385 . S
C170 C169 1.374 . S
C171 C168 1.499 . S
C171 C172 1.373 . S
C171 C173 1.389 . S
C172 H145 0.950 . S
C172 C158 1.377 . S
C172 C171 1.373 . S
C173 C157 1.377 . S
C173 C171 1.389 . S
C173 C174 1.524 . S
C174 C173 1.524 . S
C174 C175 1.397 . S
C174 C179 1.363 . S
C175 H146 0.950 . S
C175 C174 1.397 . S
C175 C176 1.334 . S
C176 H147 0.950 . S
C176 C175 1.334 . S
C176 C177 1.287 . S
C177 C176 1.287 . S
C177 C178 1.524 . S
C177 H180 0.999 . S
C178 H148 0.950 . S
C178 C177 1.524 . S
C178 C179 1.415 . S
C179 H149 0.950 . S
C179 C174 1.363 . S
C179 C178 1.415 . S
H180 C177 0.999 . S
H181 C162 0.913 . S
H182 C200 0.951 . S
H183 C202 0.951 . S
H184 C204 0.950 . S
H185 C205 0.950 . S
H186 C207 0.950 . S
H187 C210 0.950 . S
H188 C211 0.950 . S
H189 C213 0.950 . S
H190 C214 0.950 . S
H191 C215 0.951 . S
H192 C217 0.951 . S
H193 C219 0.950 . S
H194 C220 0.950 . S
H195 C222 0.950 . S
H196 C225 0.950 . S
H197 C226 0.950 . S
H198 C228 0.950 . S
H199 C229 0.950 . S
C200 H182 0.951 . S
C200 C201 1.366 . S
C200 C202 1.388 . S
C201 C200 1.366 . S
C201 C205 1.385 . S
C202 H183 0.951 . S
C202 C200 1.388 . S
C202 C203 1.366 . S
C203 C202 1.366 . S
C203 C204 1.414 . S
C203 C206 1.499 . S
C204 H184 0.950 . S
C204 C203 1.414 . S
C204 C205 1.374 . S
C205 H185 0.950 . S
C205 C201 1.385 . S
C205 C204 1.374 . S
C206 C203 1.499 . S
C206 C207 1.373 . S
C206 C208 1.389 . S
C207 H186 0.950 . S
C207 C206 1.373 . S
C207 C223 1.377 . S
C208 C206 1.389 . S
C208 C209 1.524 . S
C208 C222 1.377 . S
C209 C208 1.524 . S
C209 C210 1.397 . S
C209 C214 1.363 . S
C210 H187 0.950 . S
C210 C209 1.397 . S
C210 C211 1.334 . S
C211 H188 0.950 . S
C211 C210 1.334 . S
C211 C212 1.287 . S
C212 C211 1.287 . S
C212 C213 1.524 . S
C212 H231 0.913 . S
C213 H189 0.950 . S
C213 C212 1.524 . S
C213 C214 1.415 . S
C214 H190 0.950 . S
C214 C209 1.363 . S
C214 C213 1.415 . S
C215 H191 0.951 . S
C215 C216 1.366 . S
C215 C217 1.388 . S
C216 C215 1.366 . S
C216 C220 1.385 . S
C217 H192 0.951 . S
C217 C215 1.388 . S
C217 C218 1.366 . S
C218 C217 1.366 . S
C218 C219 1.414 . S
C218 C221 1.499 . S
C219 H193 0.950 . S
C219 C218 1.414 . S
C219 C220 1.374 . S
C220 H194 0.950 . S
C220 C216 1.385 . S
C220 C219 1.374 . S
C221 C218 1.499 . S
C221 C222 1.373 . S
C221 C223 1.389 . S
C222 H195 0.950 . S
C222 C208 1.377 . S
C222 C221 1.373 . S
C223 C207 1.377 . S
C223 C221 1.389 . S
C223 C224 1.524 . S
C224 C223 1.524 . S
C224 C225 1.397 . S
C224 C229 1.363 . S
C225 H196 0.950 . S
C225 C224 1.397 . S
C225 C226 1.334 . S
C226 H197 0.950 . S
C226 C225 1.334 . S
C226 C227 1.287 . S
C227 C226 1.287 . S
C227 C228 1.524 . S
C227 H230 0.999 . S
C228 H198 0.950 . S
C228 C227 1.524 . S
C228 C229 1.415 . S
C229 H199 0.950 . S
C229 C224 1.363 . S
C229 C228 1.415 . S
H230 C227 0.999 . S
H231 C212 0.913 . S
H232 C250 0.951 . S
H233 C252 0.951 . S
H234 C254 0.950 . S
H235 C255 0.950 . S
H236 C257 0.950 . S
H237 C260 0.950 . S
H238 C261 0.950 . S
H239 C263 0.950 . S
H240 C264 0.950 . S
H241 C265 0.951 . S
H242 C267 0.951 . S
H243 C269 0.950 . S
H244 C270 0.950 . S
H245 C272 0.950 . S
H246 C275 0.950 . S
H247 C276 0.950 . S
H248 C278 0.950 . S
H249 C279 0.950 . S
C250 H232 0.951 . S
C250 C251 1.366 . S
C250 C252 1.388 . S
C251 C250 1.366 . S
C251 C255 1.385 . S
C252 H233 0.951 . S
C252 C250 1.388 . S
C252 C253 1.366 . S
C253 C252 1.366 . S
C253 C254 1.414 . S
C253 C256 1.499 . S
C254 H234 0.950 . S
C254 C253 1.414 . S
C254 C255 1.374 . S
C255 H235 0.950 . S
C255 C251 1.385 . S
C255 C254 1.374 . S
C256 C253 1.499 . S
C256 C257 1.373 . S
C256 C258 1.389 . S
C257 H236 0.950 . S
C257 C256 1.373 . S
C257 C273 1.377 . S
C258 C256 1.389 . S
C258 C259 1.524 . S
C258 C272 1.377 . S
C259 C258 1.524 . S
C259 C260 1.397 . S
C259 C264 1.363 . S
C260 H237 0.950 . S
C260 C259 1.397 . S
C260 C261 1.334 . S
C261 H238 0.950 . S
C261 C260 1.334 . S
C261 C262 1.287 . S
C262 C261 1.287 . S
C262 C263 1.524 . S
C262 H281 0.913 . S
C263 H239 0.950 . S
C263 C262 1.524 . S
C263 C264 1.415 . S
C264 H240 0.950 . S
C264 C259 1.363 . S
C264 C263 1.415 . S
C265 H241 0.951 . S
C265 C266 1.366 . S
C265 C267 1.388 . S
C266 C265 1.366 . S
C266 C270 1.385 . S
C267 H242 0.951 . S
C267 C265 1.388 . S
C267 C268 1.366 . S
C268 C267 1.366 . S
C268 C269 1.414 . S
C268 C271 1.499 . S
C269 H243 0.950 . S
C269 C268 1.414 . S
C269 C270 1.374 . S
C270 H244 0.950 . S
C270 C266 1.385 . S
C270 C269 1.374 . S
C271 C268 1.499 . S
C271 C272 1.373 . S
C271 C273 1.389 . S
C272 H245 0.950 . S
C272 C258 1.377 . S
C272 C271 1.373 . S
C273 C257 1.377 . S
C273 C271 1.389 . S
C273 C274 1.524 . S
C274 C273 1.524 . S
C274 C275 1.397 . S
C274 C279 1.363 . S
C275 H246 0.950 . S
C275 C274 1.397 . S
C275 C276 1.334 . S
C276 H247 0.950 . S
C276 C275 1.334 . S
C276 C277 1.287 . S
C277 C276 1.287 . S
C277 C278 1.524 . S
C277 H280 0.999 . S
C278 H248 0.950 . S
C278 C277 1.524 . S
C278 C279 1.415 . S
C279 H249 0.950 . S
C279 C274 1.363 . S
C279 C278 1.415 . S
H280 C277 0.999 . S
H281 C262 0.913 . S
H282 C300 0.951 . S
H283 C302 0.951 . S
H284 C304 0.950 . S
H285 C305 0.950 . S
H286 C307 0.950 . S
H287 C310 0.950 . S
H288 C311 0.950 . S
H289 C313 0.950 . S
H290 C314 0.950 . S
H291 C315 0.951 . S
H292 C317 0.951 . S
H293 C319 0.950 . S
H294 C320 0.950 . S
H295 C322 0.950 . S
H296 C325 0.950 . S
H297 C326 0.950 . S
H298 C328 0.950 . S
H299 C329 0.950 . S
C300 H282 0.951 . S
C300 C301 1.366 . S
C300 C302 1.388 . S
C301 C300 1.366 . S
C301 C305 1.385 . S
C302 H283 0.951 . S
C302 C300 1.388 . S
C302 C303 1.366 . S
C303 C302 1.366 . S
C303 C304 1.414 . S
C303 C306 1.499 . S
C304 H284 0.950 . S
C304 C303 1.414 . S
C304 C305 1.374 . S
C305 H285 0.950 . S
C305 C301 1.385 . S
C305 C304 1.374 . S
C306 C303 1.499 . S
C306 C307 1.373 . S
C306 C308 1.389 . S
C307 H286 0.950 . S
C307 C306 1.373 . S
C307 C323 1.377 . S
C308 C306 1.389 . S
C308 C309 1.524 . S
C308 C322 1.377 . S
C309 C308 1.524 . S
C309 C310 1.397 . S
C309 C314 1.363 . S
C310 H287 0.950 . S
C310 C309 1.397 . S
C310 C311 1.334 . S
C311 H288 0.950 . S
C311 C310 1.334 . S
C311 C312 1.287 . S
C312 C311 1.287 . S
C312 C313 1.524 . S
C312 H331 0.913 . S
C313 H289 0.950 . S
C313 C312 1.524 . S
C313 C314 1.415 . S
C314 H290 0.950 . S
C314 C309 1.363 . S
C314 C313 1.415 . S
C315 H291 0.951 . S
C315 C316 1.366 . S
C315 C317 1.388 . S
C316 C315 1.366 . S
C316 C320 1.385 . S
C317 H292 0.951 . S
C317 C315 1.388 . S
C317 C318 1.366 . S
C318 C317 1.366 . S
C318 C319 1.414 . S
C318 C321 1.499 . S
C319 H293 0.950 . S
C319 C318 1.414 . S
C319 C320 1.374 . S
C320 H294 0.950 . S
C320 C316 1.385 . S
C320 C319 1.374 . S
C321 C318 1.499 . S
C321 C322 1.373 . S
C321 C323 1.389 . S
C322 H295 0.950 . S
C322 C308 1.377 . S
C322 C321 1.373 . S
C323 C307 1.377 . S
C323 C321 1.389 . S
C323 C324 1.524 . S
C324 C323 1.524 . S
C324 C325 1.397 . S
C324 C329 1.363 . S
C325 H296 0.950 . S
C325 C324 1.397 . S
C325 C326 1.334 . S
C326 H297 0.950 . S
C326 C325 1.334 . S
C326 C327 1.287 . S
C327 C326 1.287 . S
C327 C328 1.524 . S
C327 H330 0.999 . S
C328 H298 0.950 . S
C328 C327 1.524 . S
C328 C329 1.415 . S
C329 H299 0.950 . S
C329 C324 1.363 . S
C329 C328 1.415 . S
H330 C327 0.999 . S
H331 C312 0.913 . S
H332 C350 0.951 . S
H333 C352 0.951 . S
H334 C354 0.950 . S
H335 C355 0.950 . S
H336 C357 0.950 . S
H337 C360 0.950 . S
H338 C361 0.950 . S
H339 C363 0.950 . S
H340 C364 0.950 . S
H341 C365 0.951 . S
H342 C367 0.951 . S
H343 C369 0.950 . S
H344 C370 0.950 . S
H345 C372 0.950 . S
H346 C375 0.950 . S
H347 C376 0.950 . S
H348 C378 0.950 . S
H349 C379 0.950 . S
C350 H332 0.951 . S
C350 C351 1.366 1_556 S
C350 C352 1.388 . S
C351 C350 1.366 1_554 S
C351 C355 1.385 . S
C352 H333 0.951 . S
C352 C350 1.388 . S
C352 C353 1.366 . S
C353 C352 1.366 . S
C353 C354 1.414 . S
C353 C356 1.499 . S
C354 H334 0.950 . S
C354 C353 1.414 . S
C354 C355 1.374 1_556 S
C355 H335 0.950 . S
C355 C351 1.385 . S
C355 C354 1.374 1_554 S
C356 C353 1.499 . S
C356 C357 1.373 . S
C356 C358 1.389 . S
C357 H336 0.950 . S
C357 C356 1.373 . S
C357 C373 1.377 . S
C358 C356 1.389 . S
C358 C359 1.524 . S
C358 C372 1.377 . S
C359 C358 1.524 . S
C359 C360 1.397 . S
C359 C364 1.363 . S
C360 H337 0.950 . S
C360 C359 1.397 . S
C360 C361 1.334 . S
C361 H338 0.950 . S
C361 C360 1.334 . S
C361 C362 1.287 . S
C362 C361 1.287 . S
C362 C363 1.524 . S
C362 H381 0.913 . S
C363 H339 0.950 . S
C363 C362 1.524 . S
C363 C364 1.415 . S
C364 H340 0.950 . S
C364 C359 1.363 . S
C364 C363 1.415 . S
C365 H341 0.951 . S
C365 C366 1.366 . S
C365 C367 1.388 . S
C366 C365 1.366 . S
C366 C370 1.385 . S
C367 H342 0.951 . S
C367 C365 1.388 . S
C367 C368 1.366 . S
C368 C367 1.366 . S
C368 C369 1.414 . S
C368 C371 1.499 . S
C369 H343 0.950 . S
C369 C368 1.414 . S
C369 C370 1.374 . S
C370 H344 0.950 . S
C370 C366 1.385 . S
C370 C369 1.374 . S
C371 C368 1.499 . S
C371 C372 1.373 . S
C371 C373 1.389 . S
C372 H345 0.950 . S
C372 C358 1.377 . S
C372 C371 1.373 . S
C373 C357 1.377 . S
C373 C371 1.389 . S
C373 C374 1.524 . S
C374 C373 1.524 . S
C374 C375 1.397 . S
C374 C379 1.363 . S
C375 H346 0.950 . S
C375 C374 1.397 . S
C375 C376 1.334 . S
C376 H347 0.950 . S
C376 C375 1.334 . S
C376 C377 1.287 . S
C377 C376 1.287 . S
C377 C378 1.524 . S
C377 H380 0.999 . S
C378 H348 0.950 . S
C378 C377 1.524 . S
C378 C379 1.415 . S
C379 H349 0.950 . S
C379 C374 1.363 . S
C379 C378 1.415 . S
H380 C377 0.999 . S
H381 C362 0.913 . S
H382 C400 0.951 . S
H383 C402 0.951 . S
H384 C404 0.950 . S
H385 C405 0.950 . S
H386 C407 0.950 . S
H387 C410 0.950 . S
H388 C411 0.950 . S
H389 C413 0.950 . S
H390 C414 0.950 . S
H391 C415 0.951 . S
H392 C417 0.951 . S
H393 C419 0.950 . S
H394 C420 0.950 . S
H395 C422 0.950 . S
H396 C425 0.950 . S
H397 C426 0.950 . S
H398 C428 0.950 . S
H399 C429 0.950 . S
C400 H382 0.951 . S
C400 C401 1.366 . S
C400 C402 1.388 . S
C401 C400 1.366 . S
C401 C405 1.385 . S
C402 H383 0.951 . S
C402 C400 1.388 . S
C402 C403 1.366 . S
C403 C402 1.366 . S
C403 C404 1.414 . S
C403 C406 1.499 . S
C404 H384 0.950 . S
C404 C403 1.414 . S
C404 C405 1.374 . S
C405 H385 0.950 . S
C405 C401 1.385 . S
C405 C404 1.374 . S
C406 C403 1.499 . S
C406 C407 1.373 . S
C406 C408 1.389 . S
C407 H386 0.950 . S
C407 C406 1.373 . S
C407 C423 1.377 . S
C408 C406 1.389 . S
C408 C409 1.524 . S
C408 C422 1.377 . S
C409 C408 1.524 . S
C409 C410 1.397 . S
C409 C414 1.363 . S
C410 H387 0.950 . S
C410 C409 1.397 . S
C410 C411 1.334 . S
C411 H388 0.950 . S
C411 C410 1.334 . S
C411 C412 1.287 . S
C412 C411 1.287 . S
C412 C413 1.524 . S
C412 H431 0.913 . S
C413 H389 0.950 . S
C413 C412 1.524 . S
C413 C414 1.415 . S
C414 H390 0.950 . S
C414 C409 1.363 . S
C414 C413 1.415 . S
C415 H391 0.951 . S
C415 C416 1.366 1_554 S
C415 C417 1.388 . S
C416 C415 1.366 1_556 S
C416 C420 1.385 . S
C417 H392 0.951 . S
C417 C415 1.388 . S
C417 C418 1.366 . S
C418 C417 1.366 . S
C418 C419 1.414 . S
C418 C421 1.499 . S
C419 H393 0.950 . S
C419 C418 1.414 . S
C419 C420 1.374 1_554 S
C420 H394 0.950 . S
C420 C416 1.385 . S
C420 C419 1.374 1_556 S
C421 C418 1.499 . S
C421 C422 1.373 . S
C421 C423 1.389 . S
C422 H395 0.950 . S
C422 C408 1.377 . S
C422 C421 1.373 . S
C423 C407 1.377 . S
C423 C421 1.389 . S
C423 C424 1.524 . S
C424 C423 1.524 . S
C424 C425 1.397 . S
C424 C429 1.363 . S
C425 H396 0.950 . S
C425 C424 1.397 . S
C425 C426 1.334 . S
C426 H397 0.950 . S
C426 C425 1.334 . S
C426 C427 1.287 . S
C427 C426 1.287 . S
C427 C428 1.524 . S
C427 H430 0.999 . S
C428 H398 0.950 . S
C428 C427 1.524 . S
C428 C429 1.415 . S
C429 H399 0.950 . S
C429 C424 1.363 . S
C429 C428 1.415 . S
H430 C427 0.999 . S
H431 C412 0.913 . S
H432 C450 0.951 . S
H433 C452 0.951 . S
H434 C454 0.950 . S
H435 C455 0.950 . S
H436 C457 0.950 . S
H437 C460 0.950 . S
H438 C461 0.950 . S
H439 C463 0.950 1_554 S
H440 C464 0.950 . S
H441 C465 0.951 . S
H442 C467 0.951 . S
H443 C469 0.950 . S
H444 C470 0.950 . S
H445 C472 0.950 . S
H446 C475 0.950 . S
H447 C476 0.950 . S
H448 C478 0.950 1_556 S
H449 C479 0.950 . S
C450 H432 0.951 . S
C450 C451 1.366 . S
C450 C452 1.388 . S
C451 C450 1.366 . S
C451 C455 1.385 . S
C452 H433 0.951 . S
C452 C450 1.388 . S
C452 C453 1.366 . S
C453 C452 1.366 . S
C453 C454 1.414 . S
C453 C456 1.499 . S
C454 H434 0.950 . S
C454 C453 1.414 . S
C454 C455 1.374 . S
C455 H435 0.950 . S
C455 C451 1.385 . S
C455 C454 1.374 . S
C456 C453 1.499 . S
C456 C457 1.373 . S
C456 C458 1.389 . S
C457 H436 0.950 . S
C457 C456 1.373 . S
C457 C473 1.377 1_556 S
C458 C456 1.389 . S
C458 C459 1.524 . S
C458 C472 1.377 1_556 S
C459 C458 1.524 . S
C459 C460 1.397 . S
C459 C464 1.363 1_556 S
C460 H437 0.950 . S
C460 C459 1.397 . S
C460 C461 1.334 . S
C461 H438 0.950 . S
C461 C460 1.334 . S
C461 C462 1.287 . S
C462 C461 1.287 . S
C462 C463 1.524 . S
C462 H481 0.913 . S
C463 H439 0.950 1_556 S
C463 C462 1.524 . S
C463 C464 1.415 1_556 S
C464 H440 0.950 . S
C464 C459 1.363 1_554 S
C464 C463 1.415 1_554 S
C465 H441 0.951 . S
C465 C466 1.366 . S
C465 C467 1.388 . S
C466 C465 1.366 . S
C466 C470 1.385 . S
C467 H442 0.951 . S
C467 C465 1.388 . S
C467 C468 1.366 . S
C468 C467 1.366 . S
C468 C469 1.414 . S
C468 C471 1.499 . S
C469 H443 0.950 . S
C469 C468 1.414 . S
C469 C470 1.374 . S
C470 H444 0.950 . S
C470 C466 1.385 . S
C470 C469 1.374 . S
C471 C468 1.499 . S
C471 C472 1.373 . S
C471 C473 1.389 . S
C472 H445 0.950 . S
C472 C458 1.377 1_554 S
C472 C471 1.373 . S
C473 C457 1.377 1_554 S
C473 C471 1.389 . S
C473 C474 1.524 . S
C474 C473 1.524 . S
C474 C475 1.397 . S
C474 C479 1.363 1_554 S
C475 H446 0.950 . S
C475 C474 1.397 . S
C475 C476 1.334 . S
C476 H447 0.950 . S
C476 C475 1.334 . S
C476 C477 1.287 . S
C477 C476 1.287 . S
C477 C478 1.524 . S
C477 H480 0.999 . S
C478 H448 0.950 1_554 S
C478 C477 1.524 . S
C478 C479 1.415 1_554 S
C479 H449 0.950 . S
C479 C474 1.363 1_556 S
C479 C478 1.415 1_556 S
H480 C477 0.999 . S
H481 C462 0.913 . S
H482 C500 0.951 . S
H483 C502 0.951 . S
H484 C504 0.950 . S
H485 C505 0.950 . S
H486 C507 0.950 . S
H487 C510 0.950 . S
H488 C511 0.950 . S
H489 C513 0.950 . S
H490 C514 0.950 . S
H491 C515 0.951 . S
H492 C517 0.951 . S
H493 C519 0.950 . S
H494 C520 0.950 . S
H495 C522 0.950 . S
H496 C525 0.950 . S
H497 C526 0.950 . S
H498 C528 0.950 . S
H499 C529 0.950 . S
C500 H482 0.951 . S
C500 C501 1.366 . S
C500 C502 1.388 1_455 S
C501 C500 1.366 . S
C501 C505 1.385 . S
C502 H483 0.951 . S
C502 C500 1.388 1_655 S
C502 C503 1.366 . S
C503 C502 1.366 . S
C503 C504 1.414 . S
C503 C506 1.499 . S
C504 H484 0.950 . S
C504 C503 1.414 . S
C504 C505 1.374 1_655 S
C505 H485 0.950 . S
C505 C501 1.385 . S
C505 C504 1.374 1_455 S
C506 C503 1.499 . S
C506 C507 1.373 . S
C506 C508 1.389 . S
C507 H486 0.950 . S
C507 C506 1.373 . S
C507 C523 1.377 . S
C508 C506 1.389 . S
C508 C509 1.524 . S
C508 C522 1.377 . S
C509 C508 1.524 . S
C509 C510 1.397 . S
C509 C514 1.363 . S
C510 H487 0.950 . S
C510 C509 1.397 . S
C510 C511 1.334 1_655 S
C511 H488 0.950 . S
C511 C510 1.334 1_455 S
C511 C512 1.287 . S
C512 C511 1.287 . S
C512 C513 1.524 1_455 S
C512 H531 0.913 . S
C513 H489 0.950 . S
C513 C512 1.524 1_655 S
C513 C514 1.415 . S
C514 H490 0.950 . S
C514 C509 1.363 . S
C514 C513 1.415 . S
C515 H491 0.951 . S
C515 C516 1.366 . S
C515 C517 1.388 . S
C516 C515 1.366 . S
C516 C520 1.385 . S
C517 H492 0.951 . S
C517 C515 1.388 . S
C517 C518 1.366 . S
C518 C517 1.366 . S
C518 C519 1.414 . S
C518 C521 1.499 . S
C519 H493 0.950 . S
C519 C518 1.414 . S
C519 C520 1.374 . S
C520 H494 0.950 . S
C520 C516 1.385 . S
C520 C519 1.374 . S
C521 C518 1.499 . S
C521 C522 1.373 . S
C521 C523 1.389 . S
C522 H495 0.950 . S
C522 C508 1.377 . S
C522 C521 1.373 . S
C523 C507 1.377 . S
C523 C521 1.389 . S
C523 C524 1.524 . S
C524 C523 1.524 . S
C524 C525 1.397 . S
C524 C529 1.363 . S
C525 H496 0.950 . S
C525 C524 1.397 . S
C525 C526 1.334 . S
C526 H497 0.950 . S
C526 C525 1.334 . S
C526 C527 1.287 . S
C527 C526 1.287 . S
C527 C528 1.524 . S
C527 H530 0.999 . S
C528 H498 0.950 . S
C528 C527 1.524 . S
C528 C529 1.415 . S
C529 H499 0.950 . S
C529 C524 1.363 . S
C529 C528 1.415 . S
H530 C527 0.999 . S
H531 C512 0.913 . S
H532 C550 0.951 . S
H533 C552 0.951 . S
H534 C554 0.950 . S
H535 C555 0.950 . S
H536 C557 0.950 . S
H537 C560 0.950 . S
H538 C561 0.950 . S
H539 C563 0.950 . S
H540 C564 0.950 . S
H541 C565 0.951 . S
H542 C567 0.951 . S
H543 C569 0.950 . S
H544 C570 0.950 . S
H545 C572 0.950 . S
H546 C575 0.950 . S
H547 C576 0.950 . S
H548 C578 0.950 . S
H549 C579 0.950 . S
C550 H532 0.951 . S
C550 C551 1.366 . S
C550 C552 1.388 . S
C551 C550 1.366 . S
C551 C555 1.385 . S
C552 H533 0.951 . S
C552 C550 1.388 . S
C552 C553 1.366 . S
C553 C552 1.366 . S
C553 C554 1.414 . S
C553 C556 1.499 . S
C554 H534 0.950 . S
C554 C553 1.414 . S
C554 C555 1.374 . S
C555 H535 0.950 . S
C555 C551 1.385 . S
C555 C554 1.374 . S
C556 C553 1.499 . S
C556 C557 1.373 . S
C556 C558 1.389 . S
C557 H536 0.950 . S
C557 C556 1.373 . S
C557 C573 1.377 . S
C558 C556 1.389 . S
C558 C559 1.524 . S
C558 C572 1.377 . S
C559 C558 1.524 . S
C559 C560 1.397 . S
C559 C564 1.363 . S
C560 H537 0.950 . S
C560 C559 1.397 . S
C560 C561 1.334 . S
C561 H538 0.950 . S
C561 C560 1.334 . S
C561 C562 1.287 . S
C562 C561 1.287 . S
C562 C563 1.524 . S
C562 H581 0.913 . S
C563 H539 0.950 . S
C563 C562 1.524 . S
C563 C564 1.415 . S
C564 H540 0.950 . S
C564 C559 1.363 . S
C564 C563 1.415 . S
C565 H541 0.951 . S
C565 C566 1.366 . S
C565 C567 1.388 1_545 S
C566 C565 1.366 . S
C566 C570 1.385 . S
C567 H542 0.951 . S
C567 C565 1.388 1_565 S
C567 C568 1.366 . S
C568 C567 1.366 . S
C568 C569 1.414 . S
C568 C571 1.499 . S
C569 H543 0.950 . S
C569 C568 1.414 . S
C569 C570 1.374 1_565 S
C570 H544 0.950 . S
C570 C566 1.385 . S
C570 C569 1.374 1_545 S
C571 C568 1.499 . S
C571 C572 1.373 . S
C571 C573 1.389 . S
C572 H545 0.950 . S
C572 C558 1.377 . S
C572 C571 1.373 . S
C573 C557 1.377 . S
C573 C571 1.389 . S
C573 C574 1.524 . S
C574 C573 1.524 . S
C574 C575 1.397 . S
C574 C579 1.363 . S
C575 H546 0.950 . S
C575 C574 1.397 . S
C575 C576 1.334 . S
C576 H547 0.950 . S
C576 C575 1.334 . S
C576 C577 1.287 . S
C577 C576 1.287 . S
C577 C578 1.524 . S
C577 H580 0.999 . S
C578 H548 0.950 . S
C578 C577 1.524 . S
C578 C579 1.415 . S
C579 H549 0.950 . S
C579 C574 1.363 . S
C579 C578 1.415 . S
H580 C577 0.999 . S
H581 C562 0.913 . S
H582 C600 0.951 . S
H583 C602 0.951 . S
H584 C604 0.950 . S
H585 C605 0.950 . S
H586 C607 0.950 . S
H587 C610 0.950 . S
H588 C611 0.950 . S
H589 C613 0.950 . S
H590 C614 0.950 . S
H591 C615 0.951 . S
H592 C617 0.951 . S
H593 C619 0.950 . S
H594 C620 0.950 . S
H595 C622 0.950 . S
H596 C625 0.950 . S
H597 C626 0.950 . S
H598 C628 0.950 . S
H599 C629 0.950 . S
C600 H582 0.951 . S
C600 C601 1.366 . S
C600 C602 1.388 . S
C601 C600 1.366 . S
C601 C605 1.385 . S
C602 H583 0.951 . S
C602 C600 1.388 . S
C602 C603 1.366 . S
C603 C602 1.366 . S
C603 C604 1.414 . S
C603 C606 1.499 . S
C604 H584 0.950 . S
C604 C603 1.414 . S
C604 C605 1.374 . S
C605 H585 0.950 . S
C605 C601 1.385 . S
C605 C604 1.374 . S
C606 C603 1.499 . S
C606 C607 1.373 . S
C606 C608 1.389 . S
C607 H586 0.950 . S
C607 C606 1.373 . S
C607 C623 1.377 . S
C608 C606 1.389 . S
C608 C609 1.524 . S
C608 C622 1.377 . S
C609 C608 1.524 . S
C609 C610 1.397 . S
C609 C614 1.363 . S
C610 H587 0.950 . S
C610 C609 1.397 . S
C610 C611 1.334 . S
C611 H588 0.950 . S
C611 C610 1.334 . S
C611 C612 1.287 . S
C612 C611 1.287 . S
C612 C613 1.524 . S
C612 H631 0.913 . S
C613 H589 0.950 . S
C613 C612 1.524 . S
C613 C614 1.415 . S
C614 H590 0.950 . S
C614 C609 1.363 . S
C614 C613 1.415 . S
C615 H591 0.951 . S
C615 C616 1.366 . S
C615 C617 1.388 . S
C616 C615 1.366 . S
C616 C620 1.385 . S
C617 H592 0.951 . S
C617 C615 1.388 . S
C617 C618 1.366 . S
C618 C617 1.366 . S
C618 C619 1.414 . S
C618 C621 1.499 . S
C619 H593 0.950 . S
C619 C618 1.414 . S
C619 C620 1.374 . S
C620 H594 0.950 . S
C620 C616 1.385 . S
C620 C619 1.374 . S
C621 C618 1.499 . S
C621 C622 1.373 . S
C621 C623 1.389 . S
C622 H595 0.950 . S
C622 C608 1.377 . S
C622 C621 1.373 . S
C623 C607 1.377 . S
C623 C621 1.389 . S
C623 C624 1.524 . S
C624 C623 1.524 . S
C624 C625 1.397 . S
C624 C629 1.363 . S
C625 H596 0.950 . S
C625 C624 1.397 . S
C625 C626 1.334 . S
C626 H597 0.950 . S
C626 C625 1.334 . S
C626 C627 1.287 . S
C627 C626 1.287 . S
C627 C628 1.524 . S
C627 H630 0.999 . S
C628 H598 0.950 . S
C628 C627 1.524 . S
C628 C629 1.415 . S
C629 H599 0.950 . S
C629 C624 1.363 . S
C629 C628 1.415 . S
H630 C627 0.999 . S
H631 C612 0.913 . S
H632 C650 0.951 . S
H633 C652 0.951 . S
H634 C654 0.950 . S
H635 C655 0.950 . S
H636 C657 0.950 . S
H637 C660 0.950 . S
H638 C661 0.950 . S
H639 C663 0.950 . S
H640 C664 0.950 . S
H641 C665 0.951 . S
H642 C667 0.951 . S
H643 C669 0.950 . S
H644 C670 0.950 . S
H645 C672 0.950 . S
H646 C675 0.950 . S
H647 C676 0.950 . S
H648 C678 0.950 . S
H649 C679 0.950 . S
C650 H632 0.951 . S
C650 C651 1.366 . S
C650 C652 1.388 . S
C651 C650 1.366 . S
C651 C655 1.385 . S
C652 H633 0.951 . S
C652 C650 1.388 . S
C652 C653 1.366 . S
C653 C652 1.366 . S
C653 C654 1.414 . S
C653 C656 1.499 . S
C654 H634 0.950 . S
C654 C653 1.414 . S
C654 C655 1.374 . S
C655 H635 0.950 . S
C655 C651 1.385 . S
C655 C654 1.374 . S
C656 C653 1.499 . S
C656 C657 1.373 . S
C656 C658 1.389 . S
C657 H636 0.950 . S
C657 C656 1.373 . S
C657 C673 1.377 . S
C658 C656 1.389 . S
C658 C659 1.524 . S
C658 C672 1.377 . S
C659 C658 1.524 . S
C659 C660 1.397 . S
C659 C664 1.363 . S
C660 H637 0.950 . S
C660 C659 1.397 . S
C660 C661 1.334 . S
C661 H638 0.950 . S
C661 C660 1.334 . S
C661 C662 1.287 . S
C662 C661 1.287 . S
C662 C663 1.524 . S
C662 H681 0.913 . S
C663 H639 0.950 . S
C663 C662 1.524 . S
C663 C664 1.415 . S
C664 H640 0.950 . S
C664 C659 1.363 . S
C664 C663 1.415 . S
C665 H641 0.951 . S
C665 C666 1.366 . S
C665 C667 1.388 1_655 S
C666 C665 1.366 . S
C666 C670 1.385 . S
C667 H642 0.951 . S
C667 C665 1.388 1_455 S
C667 C668 1.366 . S
C668 C667 1.366 . S
C668 C669 1.414 . S
C668 C671 1.499 . S
C669 H643 0.950 . S
C669 C668 1.414 . S
C669 C670 1.374 1_455 S
C670 H644 0.950 . S
C670 C666 1.385 . S
C670 C669 1.374 1_655 S
C671 C668 1.499 . S
C671 C672 1.373 . S
C671 C673 1.389 . S
C672 H645 0.950 . S
C672 C658 1.377 . S
C672 C671 1.373 . S
C673 C657 1.377 . S
C673 C671 1.389 . S
C673 C674 1.524 . S
C674 C673 1.524 . S
C674 C675 1.397 . S
C674 C679 1.363 . S
C675 H646 0.950 . S
C675 C674 1.397 . S
C675 C676 1.334 . S
C676 H647 0.950 . S
C676 C675 1.334 . S
C676 C677 1.287 . S
C677 C676 1.287 . S
C677 C678 1.524 . S
C677 H680 0.999 . S
C678 H648 0.950 . S
C678 C677 1.524 . S
C678 C679 1.415 . S
C679 H649 0.950 . S
C679 C674 1.363 . S
C679 C678 1.415 . S
H680 C677 0.999 . S
H681 C662 0.913 . S
H682 C700 0.951 . S
H683 C702 0.951 . S
H684 C704 0.950 . S
H685 C705 0.950 . S
H686 C707 0.950 . S
H687 C710 0.950 . S
H688 C711 0.950 . S
H689 C713 0.950 . S
H690 C714 0.950 . S
H691 C715 0.951 . S
H692 C717 0.951 . S
H693 C719 0.950 . S
H694 C720 0.950 . S
H695 C722 0.950 . S
H696 C725 0.950 . S
H697 C726 0.950 . S
H698 C728 0.950 . S
H699 C729 0.950 . S
C700 H682 0.951 . S
C700 C701 1.366 . S
C700 C702 1.388 . S
C701 C700 1.366 . S
C701 C705 1.385 . S
C702 H683 0.951 . S
C702 C700 1.388 . S
C702 C703 1.366 . S
C703 C702 1.366 . S
C703 C704 1.414 . S
C703 C706 1.499 . S
C704 H684 0.950 . S
C704 C703 1.414 . S
C704 C705 1.374 . S
C705 H685 0.950 . S
C705 C701 1.385 . S
C705 C704 1.374 . S
C706 C703 1.499 . S
C706 C707 1.373 . S
C706 C708 1.389 . S
C707 H686 0.950 . S
C707 C706 1.373 . S
C707 C723 1.377 . S
C708 C706 1.389 . S
C708 C709 1.524 . S
C708 C722 1.377 . S
C709 C708 1.524 . S
C709 C710 1.397 . S
C709 C714 1.363 . S
C710 H687 0.950 . S
C710 C709 1.397 . S
C710 C711 1.334 . S
C711 H688 0.950 . S
C711 C710 1.334 . S
C711 C712 1.287 . S
C712 C711 1.287 . S
C712 C713 1.524 . S
C712 H731 0.913 . S
C713 H689 0.950 . S
C713 C712 1.524 . S
C713 C714 1.415 . S
C714 H690 0.950 . S
C714 C709 1.363 . S
C714 C713 1.415 . S
C715 H691 0.951 . S
C715 C716 1.366 . S
C715 C717 1.388 1_565 S
C716 C715 1.366 . S
C716 C720 1.385 . S
C717 H692 0.951 . S
C717 C715 1.388 1_545 S
C717 C718 1.366 . S
C718 C717 1.366 . S
C718 C719 1.414 . S
C718 C721 1.499 . S
C719 H693 0.950 . S
C719 C718 1.414 . S
C719 C720 1.374 1_545 S
C720 H694 0.950 . S
C720 C716 1.385 . S
C720 C719 1.374 1_565 S
C721 C718 1.499 . S
C721 C722 1.373 . S
C721 C723 1.389 . S
C722 H695 0.950 . S
C722 C708 1.377 . S
C722 C721 1.373 . S
C723 C707 1.377 . S
C723 C721 1.389 . S
C723 C724 1.524 . S
C724 C723 1.524 . S
C724 C725 1.397 . S
C724 C729 1.363 . S
C725 H696 0.950 . S
C725 C724 1.397 . S
C725 C726 1.334 1_545 S
C726 H697 0.950 . S
C726 C725 1.334 1_565 S
C726 C727 1.287 . S
C727 C726 1.287 . S
C727 C728 1.524 . S
C727 H730 0.999 . S
C728 H698 0.950 . S
C728 C727 1.524 . S
C728 C729 1.415 1_565 S
C729 H699 0.950 . S
C729 C724 1.363 . S
C729 C728 1.415 1_545 S
H730 C727 0.999 . S
H731 C712 0.913 . S
H732 C750 0.951 . S
H733 C752 0.951 . S
H734 C754 0.950 . S
H735 C755 0.950 . S
H736 C757 0.950 . S
H737 C760 0.950 . S
H738 C761 0.950 . S
H739 C763 0.950 . S
H740 C764 0.950 . S
H741 C765 0.951 . S
H742 C767 0.951 . S
H743 C769 0.950 . S
H744 C770 0.950 . S
H745 C772 0.950 . S
H746 C775 0.950 . S
H747 C776 0.950 . S
H748 C778 0.950 . S
H749 C779 0.950 . S
C750 H732 0.951 . S
C750 C751 1.366 . S
C750 C752 1.388 . S
C751 C750 1.366 . S
C751 C755 1.385 . S
C752 H733 0.951 . S
C752 C750 1.388 . S
C752 C753 1.366 . S
C753 C752 1.366 . S
C753 C754 1.414 . S
C753 C756 1.499 . S
C754 H734 0.950 . S
C754 C753 1.414 . S
C754 C755 1.374 . S
C755 H735 0.950 . S
C755 C751 1.385 . S
C755 C754 1.374 . S
C756 C753 1.499 . S
C756 C757 1.373 . S
C756 C758 1.389 . S
C757 H736 0.950 . S
C757 C756 1.373 . S
C757 C773 1.377 . S
C758 C756 1.389 . S
C758 C759 1.524 . S
C758 C772 1.377 . S
C759 C758 1.524 . S
C759 C760 1.397 . S
C759 C764 1.363 . S
C760 H737 0.950 . S
C760 C759 1.397 . S
C760 C761 1.334 . S
C761 H738 0.950 . S
C761 C760 1.334 . S
C761 C762 1.287 . S
C762 C761 1.287 . S
C762 C763 1.524 . S
C762 H781 0.913 . S
C763 H739 0.950 . S
C763 C762 1.524 . S
C763 C764 1.415 . S
C764 H740 0.950 . S
C764 C759 1.363 . S
C764 C763 1.415 . S
C765 H741 0.951 . S
C765 C766 1.366 . S
C765 C767 1.388 . S
C766 C765 1.366 . S
C766 C770 1.385 . S
C767 H742 0.951 . S
C767 C765 1.388 . S
C767 C768 1.366 . S
C768 C767 1.366 . S
C768 C769 1.414 . S
C768 C771 1.499 . S
C769 H743 0.950 . S
C769 C768 1.414 . S
C769 C770 1.374 . S
C770 H744 0.950 . S
C770 C766 1.385 . S
C770 C769 1.374 . S
C771 C768 1.499 . S
C771 C772 1.373 . S
C771 C773 1.389 . S
C772 H745 0.950 . S
C772 C758 1.377 . S
C772 C771 1.373 . S
C773 C757 1.377 . S
C773 C771 1.389 . S
C773 C774 1.524 . S
C774 C773 1.524 . S
C774 C775 1.397 . S
C774 C779 1.363 . S
C775 H746 0.950 . S
C775 C774 1.397 . S
C775 C776 1.334 . S
C776 H747 0.950 . S
C776 C775 1.334 . S
C776 C777 1.287 . S
C777 C776 1.287 . S
C777 C778 1.524 . S
C777 H780 0.999 . S
C778 H748 0.950 . S
C778 C777 1.524 . S
C778 C779 1.415 . S
C779 H749 0.950 . S
C779 C774 1.363 . S
C779 C778 1.415 . S
H780 C777 0.999 . S
H781 C762 0.913 . S
H782 C800 0.951 . S
H783 C802 0.951 . S
H784 C804 0.950 1_655 S
H785 C805 0.950 . S
H786 C807 0.950 . S
H787 C810 0.950 . S
H788 C811 0.949 . S
H789 C813 0.950 . S
H790 C814 0.950 . S
H791 C815 0.951 . S
H792 C817 0.951 . S
H793 C819 0.950 . S
H794 C820 0.950 . S
H795 C822 0.950 . S
H796 C825 0.950 . S
H797 C826 0.950 . S
H798 C828 0.950 . S
H799 C829 0.950 . S
C800 H782 0.951 . S
C800 C801 1.366 . S
C800 C802 1.388 1_455 S
C801 C800 1.366 . S
C801 C805 1.385 . S
C802 H783 0.951 . S
C802 C800 1.388 1_655 S
C802 C803 1.366 . S
C803 C802 1.366 . S
C803 C804 1.414 1_655 S
C803 C806 1.499 . S
C804 H784 0.950 1_455 S
C804 C803 1.414 1_455 S
C804 C805 1.374 . S
C805 H785 0.950 . S
C805 C801 1.385 . S
C805 C804 1.374 . S
C806 C803 1.499 . S
C806 C807 1.373 . S
C806 C808 1.389 1_554 S
C807 H786 0.950 . S
C807 C806 1.373 . S
C807 C823 1.377 . S
C808 C806 1.389 1_556 S
C808 C809 1.524 . S
C808 C822 1.377 . S
C809 C808 1.524 . S
C809 C810 1.397 . S
C809 C814 1.363 . S
C810 H787 0.950 . S
C810 C809 1.397 . S
C810 C811 1.336 1_655 S
C811 H788 0.949 . S
C811 C810 1.336 1_455 S
C811 C812 1.287 1_455 S
C812 C811 1.287 1_655 S
C812 C813 1.524 . S
C812 H831 0.913 . S
C813 H789 0.950 . S
C813 C812 1.524 . S
C813 C814 1.415 . S
C814 H790 0.950 . S
C814 C809 1.363 . S
C814 C813 1.415 . S
C815 H791 0.951 . S
C815 C816 1.366 . S
C815 C817 1.388 . S
C816 C815 1.366 . S
C816 C820 1.385 . S
C817 H792 0.951 . S
C817 C815 1.388 . S
C817 C818 1.366 . S
C818 C817 1.366 . S
C818 C819 1.414 . S
C818 C821 1.499 . S
C819 H793 0.950 . S
C819 C818 1.414 . S
C819 C820 1.374 . S
C820 H794 0.950 . S
C820 C816 1.385 . S
C820 C819 1.374 . S
C821 C818 1.499 . S
C821 C822 1.373 . S
C821 C823 1.389 1_556 S
C822 H795 0.950 . S
C822 C808 1.377 . S
C822 C821 1.373 . S
C823 C807 1.377 . S
C823 C821 1.389 1_554 S
C823 C824 1.524 . S
C824 C823 1.524 . S
C824 C825 1.397 . S
C824 C829 1.363 . S
C825 H796 0.950 . S
C825 C824 1.397 . S
C825 C826 1.334 . S
C826 H797 0.950 . S
C826 C825 1.334 . S
C826 C827 1.287 . S
C827 C826 1.287 . S
C827 C828 1.524 . S
C827 H830 0.999 . S
C828 H798 0.950 . S
C828 C827 1.524 . S
C828 C829 1.415 . S
C829 H799 0.950 . S
C829 C824 1.363 . S
C829 C828 1.415 . S
H830 C827 0.999 . S
H831 C812 0.913 . S
H832 C850 0.951 . S
H833 C852 0.951 . S
H834 C854 0.950 . S
H835 C855 0.950 . S
H836 C857 0.950 . S
H837 C860 0.950 . S
H838 C861 0.950 . S
H839 C863 0.950 . S
H840 C864 0.950 . S
H841 C865 0.951 . S
H842 C867 0.951 . S
H843 C869 0.950 . S
H844 C870 0.950 . S
H845 C872 0.950 . S
H846 C875 0.950 . S
H847 C876 0.950 . S
H848 C878 0.950 . S
H849 C879 0.950 . S
C850 H832 0.951 . S
C850 C851 1.366 . S
C850 C852 1.388 1_545 S
C851 C850 1.366 . S
C851 C855 1.385 . S
C852 H833 0.951 . S
C852 C850 1.388 1_565 S
C852 C853 1.366 . S
C853 C852 1.366 . S
C853 C854 1.414 . S
C853 C856 1.499 . S
C854 H834 0.950 . S
C854 C853 1.414 . S
C854 C855 1.374 1_565 S
C855 H835 0.950 . S
C855 C851 1.385 . S
C855 C854 1.374 1_545 S
C856 C853 1.499 . S
C856 C857 1.373 . S
C856 C858 1.389 . S
C857 H836 0.950 . S
C857 C856 1.373 . S
C857 C873 1.377 . S
C858 C856 1.389 . S
C858 C859 1.524 . S
C858 C872 1.377 . S
C859 C858 1.524 . S
C859 C860 1.397 . S
C859 C864 1.363 . S
C860 H837 0.950 . S
C860 C859 1.397 . S
C860 C861 1.334 . S
C861 H838 0.950 . S
C861 C860 1.334 . S
C861 C862 1.287 . S
C862 C861 1.287 . S
C862 C863 1.524 . S
C862 H881 0.913 . S
C863 H839 0.950 . S
C863 C862 1.524 . S
C863 C864 1.415 . S
C864 H840 0.950 . S
C864 C859 1.363 . S
C864 C863 1.415 . S
C865 H841 0.951 . S
C865 C866 1.366 . S
C865 C867 1.388 . S
C866 C865 1.366 . S
C866 C870 1.385 . S
C867 H842 0.951 . S
C867 C865 1.388 . S
C867 C868 1.366 . S
C868 C867 1.366 . S
C868 C869 1.414 . S
C868 C871 1.499 . S
C869 H843 0.950 . S
C869 C868 1.414 . S
C869 C870 1.374 . S
C870 H844 0.950 . S
C870 C866 1.385 . S
C870 C869 1.374 . S
C871 C868 1.499 . S
C871 C872 1.373 . S
C871 C873 1.389 . S
C872 H845 0.950 . S
C872 C858 1.377 . S
C872 C871 1.373 . S
C873 C857 1.377 . S
C873 C871 1.389 . S
C873 C874 1.524 . S
C874 C873 1.524 . S
C874 C875 1.397 . S
C874 C879 1.363 . S
C875 H846 0.950 . S
C875 C874 1.397 . S
C875 C876 1.334 . S
C876 H847 0.950 . S
C876 C875 1.334 . S
C876 C877 1.287 . S
C877 C876 1.287 . S
C877 C878 1.524 . S
C877 H880 0.999 . S
C878 H848 0.950 . S
C878 C877 1.524 . S
C878 C879 1.415 . S
C879 H849 0.950 . S
C879 C874 1.363 . S
C879 C878 1.415 . S
H880 C877 0.999 . S
H881 C862 0.913 . S
H882 C900 0.951 . S
H883 C902 0.951 . S
H884 C904 0.950 . S
H885 C905 0.950 . S
H886 C907 0.950 . S
H887 C910 0.950 . S
H888 C911 0.950 . S
H889 C913 0.950 . S
H890 C914 0.950 . S
H891 C915 0.951 . S
H892 C917 0.951 . S
H893 C919 0.950 . S
H894 C920 0.950 . S
H895 C922 0.950 . S
H896 C925 0.950 . S
H897 C926 0.950 . S
H898 C928 0.950 . S
H899 C929 0.950 . S
C900 H882 0.951 . S
C900 C901 1.366 . S
C900 C902 1.388 . S
C901 C900 1.366 . S
C901 C905 1.385 . S
C902 H883 0.951 . S
C902 C900 1.388 . S
C902 C903 1.366 . S
C903 C902 1.366 . S
C903 C904 1.414 . S
C903 C906 1.499 . S
C904 H884 0.950 . S
C904 C903 1.414 . S
C904 C905 1.374 . S
C905 H885 0.950 . S
C905 C901 1.385 . S
C905 C904 1.374 . S
C906 C903 1.499 . S
C906 C907 1.373 . S
C906 C908 1.389 . S
C907 H886 0.950 . S
C907 C906 1.373 . S
C907 C923 1.377 . S
C908 C906 1.389 . S
C908 C909 1.524 . S
C908 C922 1.377 . S
C909 C908 1.524 . S
C909 C910 1.397 . S
C909 C914 1.363 . S
C910 H887 0.950 . S
C910 C909 1.397 . S
C910 C911 1.334 . S
C911 H888 0.950 . S
C911 C910 1.334 . S
C911 C912 1.287 . S
C912 C911 1.287 . S
C912 C913 1.524 . S
C912 H931 0.913 . S
C913 H889 0.950 . S
C913 C912 1.524 . S
C913 C914 1.415 . S
C914 H890 0.950 . S
C914 C909 1.363 . S
C914 C913 1.415 . S
C915 H891 0.951 . S
C915 C916 1.366 . S
C915 C917 1.388 . S
C916 C915 1.366 . S
C916 C920 1.385 . S
C917 H892 0.951 . S
C917 C915 1.388 . S
C917 C918 1.366 . S
C918 C917 1.366 . S
C918 C919 1.414 . S
C918 C921 1.499 . S
C919 H893 0.950 . S
C919 C918 1.414 . S
C919 C920 1.374 . S
C920 H894 0.950 . S
C920 C916 1.385 . S
C920 C919 1.374 . S
C921 C918 1.499 . S
C921 C922 1.373 . S
C921 C923 1.389 . S
C922 H895 0.950 . S
C922 C908 1.377 . S
C922 C921 1.373 . S
C923 C907 1.377 . S
C923 C921 1.389 . S
C923 C924 1.524 . S
C924 C923 1.524 . S
C924 C925 1.397 . S
C924 C929 1.363 . S
C925 H896 0.950 . S
C925 C924 1.397 . S
C925 C926 1.334 . S
C926 H897 0.950 . S
C926 C925 1.334 . S
C926 C927 1.287 . S
C927 C926 1.287 . S
C927 C928 1.524 . S
C927 H930 0.999 . S
C928 H898 0.950 . S
C928 C927 1.524 . S
C928 C929 1.415 . S
C929 H899 0.950 . S
C929 C924 1.363 . S
C929 C928 1.415 . S
H930 C927 0.999 . S
H931 C912 0.913 . S
H932 C950 0.951 . S
H933 C952 0.951 . S
H934 C954 0.950 . S
H935 C955 0.950 . S
H936 C957 0.950 . S
H937 C960 0.950 . S
H938 C961 0.950 . S
H939 C963 0.950 . S
H940 C964 0.950 . S
H941 C965 0.951 . S
H942 C967 0.951 . S
H943 C969 0.950 . S
H944 C970 0.950 . S
H945 C972 0.950 . S
H946 C975 0.950 . S
H947 C976 0.950 . S
H948 C978 0.950 . S
H949 C979 0.950 . S
C950 H932 0.951 . S
C950 C951 1.366 . S
C950 C952 1.388 1_655 S
C951 C950 1.366 . S
C951 C955 1.385 . S
C952 H933 0.951 . S
C952 C950 1.388 1_455 S
C952 C953 1.366 . S
C953 C952 1.366 . S
C953 C954 1.414 . S
C953 C956 1.499 . S
C954 H934 0.950 . S
C954 C953 1.414 . S
C954 C955 1.374 1_455 S
C955 H935 0.950 . S
C955 C951 1.385 . S
C955 C954 1.374 1_655 S
C956 C953 1.499 . S
C956 C957 1.373 . S
C956 C958 1.389 . S
C957 H936 0.950 . S
C957 C956 1.373 . S
C957 C973 1.377 . S
C958 C956 1.389 . S
C958 C959 1.524 . S
C958 C972 1.377 . S
C959 C958 1.524 . S
C959 C960 1.397 . S
C959 C964 1.363 . S
C960 H937 0.950 . S
C960 C959 1.397 . S
C960 C961 1.334 . S
C961 H938 0.950 . S
C961 C960 1.334 . S
C961 C962 1.287 . S
C962 C961 1.287 . S
C962 C963 1.524 . S
C962 H981 0.913 . S
C963 H939 0.950 . S
C963 C962 1.524 . S
C963 C964 1.415 . S
C964 H940 0.950 . S
C964 C959 1.363 . S
C964 C963 1.415 . S
C965 H941 0.951 . S
C965 C966 1.366 . S
C965 C967 1.388 . S
C966 C965 1.366 . S
C966 C970 1.385 . S
C967 H942 0.951 . S
C967 C965 1.388 . S
C967 C968 1.366 . S
C968 C967 1.366 . S
C968 C969 1.414 . S
C968 C971 1.499 . S
C969 H943 0.950 . S
C969 C968 1.414 . S
C969 C970 1.374 . S
C970 H944 0.950 . S
C970 C966 1.385 . S
C970 C969 1.374 . S
C971 C968 1.499 . S
C971 C972 1.373 . S
C971 C973 1.389 . S
C972 H945 0.950 . S
C972 C958 1.377 . S
C972 C971 1.373 . S
C973 C957 1.377 . S
C973 C971 1.389 . S
C973 C974 1.524 . S
C974 C973 1.524 . S
C974 C975 1.397 . S
C974 C979 1.363 . S
C975 H946 0.950 . S
C975 C974 1.397 . S
C975 C976 1.334 . S
C976 H947 0.950 . S
C976 C975 1.334 . S
C976 C977 1.287 . S
C977 C976 1.287 . S
C977 C978 1.524 . S
C977 H980 0.999 . S
C978 H948 0.950 . S
C978 C977 1.524 . S
C978 C979 1.415 . S
C979 H949 0.950 . S
C979 C974 1.363 . S
C979 C978 1.415 . S
H980 C977 0.999 . S
H981 C962 0.913 . S
H982 C1000 0.951 . S
H983 C1002 0.951 . S
H984 C1004 0.950 . S
H985 C1005 0.950 . S
H986 C1007 0.950 . S
H987 C1010 0.950 . S
H988 C1011 0.950 . S
H989 C1013 0.950 . S
H990 C1014 0.950 . S
H991 C1015 0.951 . S
H992 C1017 0.951 . S
H993 C1019 0.950 . S
H994 C1020 0.950 . S
H995 C1022 0.950 . S
H996 C1025 0.950 . S
H997 C1026 0.950 . S
H998 C1028 0.950 . S
H999 C1029 0.950 . S
C1000 H982 0.951 . S
C1000 C1001 1.366 . S
C1000 C1002 1.388 1_565 S
C1001 C1000 1.366 . S
C1001 C1005 1.385 . S
C1002 H983 0.951 . S
C1002 C1000 1.388 1_545 S
C1002 C1003 1.366 . S
C1003 C1002 1.366 . S
C1003 C1004 1.414 . S
C1003 C1006 1.499 . S
C1004 H984 0.950 . S
C1004 C1003 1.414 . S
C1004 C1005 1.374 1_545 S
C1005 H985 0.950 . S
C1005 C1001 1.385 . S
C1005 C1004 1.374 1_565 S
C1006 C1003 1.499 . S
C1006 C1007 1.373 . S
C1006 C1008 1.389 . S
C1007 H986 0.950 . S
C1007 C1006 1.373 . S
C1007 C1023 1.377 . S
C1008 C1006 1.389 . S
C1008 C1009 1.524 . S
C1008 C1022 1.377 . S
C1009 C1008 1.524 . S
C1009 C1010 1.397 . S
C1009 C1014 1.363 . S
C1010 H987 0.950 . S
C1010 C1009 1.397 . S
C1010 C1011 1.334 . S
C1011 H988 0.950 . S
C1011 C1010 1.334 . S
C1011 C1012 1.287 . S
C1012 C1011 1.287 . S
C1012 C1013 1.524 . S
C1012 H1031 0.913 . S
C1013 H989 0.950 . S
C1013 C1012 1.524 . S
C1013 C1014 1.415 . S
C1014 H990 0.950 . S
C1014 C1009 1.363 . S
C1014 C1013 1.415 . S
C1015 H991 0.951 . S
C1015 C1016 1.366 . S
C1015 C1017 1.388 . S
C1016 C1015 1.366 . S
C1016 C1020 1.385 . S
C1017 H992 0.951 . S
C1017 C1015 1.388 . S
C1017 C1018 1.366 . S
C1018 C1017 1.366 . S
C1018 C1019 1.414 . S
C1018 C1021 1.499 . S
C1019 H993 0.950 . S
C1019 C1018 1.414 . S
C1019 C1020 1.374 . S
C1020 H994 0.950 . S
C1020 C1016 1.385 . S
C1020 C1019 1.374 . S
C1021 C1018 1.499 . S
C1021 C1022 1.373 . S
C1021 C1023 1.389 . S
C1022 H995 0.950 . S
C1022 C1008 1.377 . S
C1022 C1021 1.373 . S
C1023 C1007 1.377 . S
C1023 C1021 1.389 . S
C1023 C1024 1.524 . S
C1024 C1023 1.524 . S
C1024 C1025 1.397 . S
C1024 C1029 1.363 . S
C1025 H996 0.950 . S
C1025 C1024 1.397 . S
C1025 C1026 1.334 . S
C1026 H997 0.950 . S
C1026 C1025 1.334 . S
C1026 C1027 1.287 . S
C1027 C1026 1.287 . S
C1027 C1028 1.524 . S
C1027 H1030 0.999 . S
C1028 H998 0.950 . S
C1028 C1027 1.524 . S
C1028 C1029 1.415 . S
C1029 H999 0.950 . S
C1029 C1024 1.363 . S
C1029 C1028 1.415 . S
H1030 C1027 0.999 . S
H1031 C1012 0.913 . S
C151 C18 0.654 . S
C166 C52 0.654 . S
C201 C37 0.819 . S
C216 C73 0.819 . S
C251 C106 0.737 . S
C266 C51 0.738 . S
C301 C118 0.654 . S
C316 C74 0.654 . S
C351 C15 0.820 . S
C366 C103 0.818 . S
C401 C40 0.738 . S
C416 C117 0.737 . S
C451 C125 1.245 . S
C466 C10 1.268 . S
C501 C8 1.254 . S
C516 C29 1.240 . S
C551 C65 1.268 . S
C566 C43 1.268 . S
C601 C84 1.268 . S
C616 C59 1.246 . S
C651 C95 1.239 . S
C666 C76 1.254 . S
C701 C131 1.269 . S
C716 C109 1.268 . S
C751 C98 1.230 . S
C766 C120 1.222 . S
C801 C21 1.238 . S
C816 C128 1.259 . S
C851 C30 1.245 . S
C866 C7 1.230 . S
C901 C32 1.229 . S
C916 C54 1.222 . S
C951 C81 1.238 . S
C966 C62 1.259 . S
C1001 C96 1.246 . S
C1016 C87 1.230 . S
