# Generated by pormake.
# Topology wfa, (4)-cn, num edge types: 1
# Building blocks:
#     Node 0, Type 0, BuildingBlock: ESEHIV_clean_sbu_0, # of connection points: 4
#     Node 1, Type 0, BuildingBlock: ESEHIV_clean_sbu_0, # of connection points: 4
#     Node 2, Type 0, BuildingBlock: ESEHIV_clean_sbu_0, # of connection points: 4
#     Node 3, Type 0, BuildingBlock: ESEHIV_clean_sbu_0, # of connection points: 4
#     Node 4, Type 0, BuildingBlock: ESEHIV_clean_sbu_0, # of connection points: 4
#     Node 5, Type 0, BuildingBlock: ESEHIV_clean_sbu_0, # of connection points: 4
#     Node 6, Type 0, BuildingBlock: ESEHIV_clean_sbu_0, # of connection points: 4
#     Node 7, Type 0, BuildingBlock: ESEHIV_clean_sbu_0, # of connection points: 4
#     Node 8, Type 0, BuildingBlock: ESEHIV_clean_sbu_0, # of connection points: 4
#     Node 9, Type 0, BuildingBlock: ESEHIV_clean_sbu_0, # of connection points: 4
#     Node 10, Type 0, BuildingBlock: ESEHIV_clean_sbu_0, # of connection points: 4
#     Node 11, Type 0, BuildingBlock: ESEHIV_clean_sbu_0, # of connection points: 4
#     Node 12, Type 0, BuildingBlock: ESEHIV_clean_sbu_0, # of connection points: 4
#     Node 13, Type 0, BuildingBlock: ESEHIV_clean_sbu_0, # of connection points: 4
#     Node 14, Type 0, BuildingBlock: ESEHIV_clean_sbu_0, # of connection points: 4
#     Node 15, Type 0, BuildingBlock: ESEHIV_clean_sbu_0, # of connection points: 4
#     Edge 16, Type (0, 0), BuildingBlock: AJUNOK_clean_linker_0, # of connection points: 2
#     Edge 17, Type (0, 0), BuildingBlock: AJUNOK_clean_linker_0, # of connection points: 2
#     Edge 18, Type (0, 0), BuildingBlock: AJUNOK_clean_linker_0, # of connection points: 2
#     Edge 19, Type (0, 0), BuildingBlock: AJUNOK_clean_linker_0, # of connection points: 2
#     Edge 20, Type (0, 0), BuildingBlock: AJUNOK_clean_linker_0, # of connection points: 2
#     Edge 21, Type (0, 0), BuildingBlock: AJUNOK_clean_linker_0, # of connection points: 2
#     Edge 22, Type (0, 0), BuildingBlock: AJUNOK_clean_linker_0, # of connection points: 2
#     Edge 23, Type (0, 0), BuildingBlock: AJUNOK_clean_linker_0, # of connection points: 2
#     Edge 24, Type (0, 0), BuildingBlock: AJUNOK_clean_linker_0, # of connection points: 2
#     Edge 25, Type (0, 0), BuildingBlock: AJUNOK_clean_linker_0, # of connection points: 2
#     Edge 26, Type (0, 0), BuildingBlock: AJUNOK_clean_linker_0, # of connection points: 2
#     Edge 27, Type (0, 0), BuildingBlock: AJUNOK_clean_linker_0, # of connection points: 2
#     Edge 28, Type (0, 0), BuildingBlock: AJUNOK_clean_linker_0, # of connection points: 2
#     Edge 29, Type (0, 0), BuildingBlock: AJUNOK_clean_linker_0, # of connection points: 2
#     Edge 30, Type (0, 0), BuildingBlock: AJUNOK_clean_linker_0, # of connection points: 2
#     Edge 31, Type (0, 0), BuildingBlock: AJUNOK_clean_linker_0, # of connection points: 2
#     Edge 32, Type (0, 0), BuildingBlock: AJUNOK_clean_linker_0, # of connection points: 2
#     Edge 33, Type (0, 0), BuildingBlock: AJUNOK_clean_linker_0, # of connection points: 2
#     Edge 34, Type (0, 0), BuildingBlock: AJUNOK_clean_linker_0, # of connection points: 2
#     Edge 35, Type (0, 0), BuildingBlock: AJUNOK_clean_linker_0, # of connection points: 2
#     Edge 36, Type (0, 0), BuildingBlock: AJUNOK_clean_linker_0, # of connection points: 2
#     Edge 37, Type (0, 0), BuildingBlock: AJUNOK_clean_linker_0, # of connection points: 2
#     Edge 38, Type (0, 0), BuildingBlock: AJUNOK_clean_linker_0, # of connection points: 2
#     Edge 39, Type (0, 0), BuildingBlock: AJUNOK_clean_linker_0, # of connection points: 2
#     Edge 40, Type (0, 0), BuildingBlock: AJUNOK_clean_linker_0, # of connection points: 2
#     Edge 41, Type (0, 0), BuildingBlock: AJUNOK_clean_linker_0, # of connection points: 2
#     Edge 42, Type (0, 0), BuildingBlock: AJUNOK_clean_linker_0, # of connection points: 2
#     Edge 43, Type (0, 0), BuildingBlock: AJUNOK_clean_linker_0, # of connection points: 2
#     Edge 44, Type (0, 0), BuildingBlock: AJUNOK_clean_linker_0, # of connection points: 2
#     Edge 45, Type (0, 0), BuildingBlock: AJUNOK_clean_linker_0, # of connection points: 2
#     Edge 46, Type (0, 0), BuildingBlock: AJUNOK_clean_linker_0, # of connection points: 2
#     Edge 47, Type (0, 0), BuildingBlock: AJUNOK_clean_linker_0, # of connection points: 2
# Relax obj value: 0.163
# Max RMSD: 0.166
# Mean RMSD: 0.153
data_MOF--net-wfa--node1-ESEHIV_clean_sbu_0--edge1-AJUNOK_clean_linker_0
_symmetry_space_group_name_H-M    P1
_symmetry_Int_Tables_number       1
_symmetry_cell_setting            triclinic
loop_
_symmetry_equiv_pos_as_xyz
'x, y, z'
_cell_length_a     38.562768
_cell_length_b     38.368589
_cell_length_c     17.371877
_cell_angle_alpha  87.806331
_cell_angle_beta   87.752672
_cell_angle_gamma 89.478506
loop_
_atom_site_label
_atom_site_type_symbol
_atom_site_fract_x
_atom_site_fract_y
_atom_site_fract_z
_atom_type_partial_charge
Cu0 Cu 0.71238 0.0696 0.99953 0.0
N1 N 0.70671 0.1147 0.03319 0.0
N2 N 0.68558 0.15495 0.11187 0.0
C3 C 0.68248 0.12235 0.08751 0.0
C4 C 0.71295 0.1687 0.07075 0.0
C5 C 0.72615 0.14354 0.02219 0.0
O6 O 0.66658 0.04892 1.01 0.0
C7 C 0.74406 0.04763 0.13855 0.0
O8 O 0.71508 0.05772 0.17354 0.0
H9 H 0.66345 0.10379 0.11058 0.0
H10 H 0.74906 0.14559 0.98437 0.0
N11 N 0.73136 0.06798 0.89949 0.0
N12 N 0.77051 0.05626 0.80571 0.0
C13 C 0.76399 0.05729 0.88237 0.0
C14 C 0.71669 0.0742 0.83124 0.0
C15 C 0.74089 0.06715 0.77316 0.0
C16 C 0.64132 0.06582 0.98089 0.0
O17 O 0.64783 0.09395 0.93748 0.0
H18 H 0.78247 0.04988 0.92548 0.0
H19 H 0.69032 0.08304 0.82385 0.0
O20 O 0.7461 0.04773 0.06539 0.0
H21 H 0.72365 0.1943 0.07778 0.0
H22 H 0.73716 0.0705 0.71189 0.0
Cu23 Cu 0.5131 0.6826 0.01571 0.0
N24 N 0.54874 0.66436 0.07813 0.0
N25 N 0.54964 0.62385 0.17591 0.0
C26 C 0.54778 0.63005 0.09928 0.0
C27 C 0.55641 0.65534 0.20353 0.0
C28 C 0.55634 0.67997 0.14353 0.0
O29 O 0.48379 0.64118 1.00734 0.0
C30 C 0.5092 0.74998 0.06882 0.0
O31 O 0.53539 0.75299 0.01844 0.0
H32 H 0.53896 0.61058 0.06268 0.0
H33 H 0.55481 0.70777 0.15096 0.0
N34 N 0.52677 0.70124 0.91628 0.0
N35 N 0.5257 0.73359 0.80525 0.0
C36 C 0.50845 0.72426 0.87231 0.0
C37 C 0.55653 0.69573 0.87543 0.0
C38 C 0.55583 0.71533 0.80708 0.0
C39 C 0.49438 0.6187 0.95908 0.0
O40 O 0.51585 0.62923 0.90273 0.0
H41 H 0.48297 0.73391 0.88942 0.0
H42 H 0.57736 0.67877 0.89424 0.0
O43 O 0.49314 0.72095 0.0755 0.0
H44 H 0.55559 0.66112 0.26404 0.0
H45 H 0.57636 0.71661 0.76275 0.0
Cu46 Cu 0.87637 0.56709 0.08247 0.0
N47 N 0.87392 0.5209 0.11923 0.0
N48 N 0.88088 0.4738 0.19626 0.0
C49 C 0.88941 0.50748 0.18178 0.0
C50 C 0.85904 0.46568 0.14109 0.0
C51 C 0.85494 0.49482 0.0932 0.0
O52 O 0.92717 0.57851 0.08404 0.0
C53 C 0.8145 0.58077 0.16944 0.0
O54 O 0.80503 0.55386 0.13101 0.0
H55 H 0.90593 0.5224 0.21701 0.0
H56 H 0.83872 0.49707 0.04381 0.0
N57 N 0.85883 0.56762 0.98223 0.0
N58 N 0.82147 0.56929 0.88578 0.0
C59 C 0.82773 0.57935 0.958 0.0
C60 C 0.87243 0.54941 0.92343 0.0
C61 C 0.84967 0.55049 0.86414 0.0
C62 C 0.94792 0.58741 0.02712 0.0
O63 O 0.9349 0.59418 0.95943 0.0
H64 H 0.8093 0.59331 0.99414 0.0
H65 H 0.89661 0.53494 0.92503 0.0
O66 O 0.84506 0.59292 0.15506 0.0
H67 H 0.84713 0.4405 0.1357 0.0
H68 H 0.85335 0.53791 0.80966 0.0
Cu69 Cu 0.07129 0.85302 0.0258 0.0
N70 N 0.11242 0.84746 0.07854 0.0
N71 N 0.1478 0.85193 0.17652 0.0
C72 C 0.12038 0.86575 0.13996 0.0
C73 C 0.15827 0.82446 0.13511 0.0
C74 C 0.13616 0.82158 0.07488 0.0
O75 O 0.06254 0.90341 0.01595 0.0
C76 C 0.03314 0.82686 0.15832 0.0
O77 O 0.04803 0.85213 0.19324 0.0
H78 H 0.10533 0.88789 0.15951 0.0
H79 H 0.13618 0.80098 0.03408 0.0
N80 N 0.0755 0.83372 0.92829 0.0
N81 N 0.07022 0.79688 0.83223 0.0
C82 C 0.0659 0.80153 0.9089 0.0
C83 C 0.08596 0.8501 0.86176 0.0
C84 C 0.08267 0.82757 0.80253 0.0
C85 C 0.03969 0.92052 0.05408 0.0
O86 O 1.01703 0.90346 0.09911 0.0
H87 H 0.05556 0.78205 0.95012 0.0
H88 H 0.09438 0.87693 0.85646 0.0
O89 O 0.03681 0.82558 0.08537 0.0
H90 H 0.17908 0.80661 0.14998 0.0
H91 H 0.08773 0.83391 0.74193 0.0
Cu92 Cu 0.20759 0.99414 0.55556 0.0
N93 N 0.20896 0.94705 0.53217 0.0
N94 N 0.19919 0.90275 0.45596 0.0
C95 C 0.18656 0.93256 0.48545 0.0
C96 C 0.23056 0.89794 0.4868 0.0
C97 C 0.2365 0.92531 0.53388 0.0
O98 O 0.15902 1.00889 0.55657 0.0
C99 C 0.24007 1.00909 0.40936 0.0
O100 O 0.21809 0.98632 0.38549 0.0
H101 H 0.16372 0.94611 0.46522 0.0
H102 H 0.26058 0.93081 0.56074 0.0
N103 N 0.22552 1.00185 0.65197 0.0
N104 N 0.26295 1.01198 0.74414 0.0
C105 C 0.2587 0.99892 0.6737 0.0
C106 C 0.20829 1.01751 0.70996 0.0
C107 C 0.23118 1.0239 0.76651 0.0
C108 C 0.14326 1.02266 0.49985 0.0
O109 O 0.16084 1.03019 0.43522 0.0
H110 H 0.27944 0.98839 0.63756 0.0
H111 H 0.18131 1.02543 0.70928 0.0
O112 O 0.23751 1.0184 0.4789 0.0
H113 H 0.24902 0.87768 0.47157 0.0
H114 H 0.22506 0.03808 0.81797 0.0
Cu115 Cu 0.49132 0.19871 0.43249 0.0
N116 N 0.53751 0.20737 0.4024 0.0
N117 N 0.58879 0.2059 0.33867 0.0
C118 C 0.55924 0.18847 0.35774 0.0
C119 C 0.58585 0.23661 0.37348 0.0
C120 C 0.55416 0.23743 0.41276 0.0
O121 O 0.48247 0.14715 0.43779 0.0
C122 C 0.47264 0.23375 0.29119 0.0
O123 O 0.49759 0.21388 0.26301 0.0
H124 H 0.5528 0.16341 0.33592 0.0
H125 H 0.54334 0.25906 0.44408 0.0
N126 N 0.48676 0.21361 0.53437 0.0
N127 N 0.4858 0.24547 0.64027 0.0
C128 C 0.48444 0.24607 0.56229 0.0
C129 C 0.49019 0.19208 0.59654 0.0
C130 C 0.48966 0.21148 0.6615 0.0
C131 C 0.48403 0.12601 0.3825 0.0
O132 O 0.48934 0.13887 0.3119 0.0
H133 H 0.4822 0.26959 0.52631 0.0
H134 H 0.49404 0.16416 0.5944 0.0
O135 O 0.4634 0.22916 0.36253 0.0
H136 H 0.60488 0.25723 0.36937 0.0
H137 H 0.49301 0.20134 0.71975 0.0
Cu138 Cu 0.39119 0.54735 0.47553 0.0
N139 N 0.41355 0.51606 0.4074 0.0
N140 N 0.45618 0.52141 0.31454 0.0
C141 C 0.44788 0.5203 0.39082 0.0
C142 C 0.42626 0.51387 0.28156 0.0
C143 C 0.40035 0.5101 0.33843 0.0
O144 O 0.42985 0.57826 0.49759 0.0
C145 C 0.32486 0.54931 0.41737 0.0
O146 O 0.323 0.52101 0.4622 0.0
H147 H 0.46542 0.52957 0.43148 0.0
H148 H 0.37294 0.51035 0.32773 0.0
N149 N 0.37149 0.52896 0.57017 0.0
N150 N 0.33869 0.52676 0.68042 0.0
C151 C 0.34868 0.54613 0.6167 0.0
C152 C 0.37628 0.49766 0.60593 0.0
C153 C 0.35633 0.49633 0.67394 0.0
C154 C 0.45095 0.56728 0.54845 0.0
O155 O 0.44008 0.5433 0.59936 0.0
H156 H 0.33989 0.57252 0.60409 0.0
H157 H 0.39318 0.47731 0.58424 0.0
O158 O 0.35273 0.56727 0.41562 0.0
H159 H 0.42195 0.51711 0.2205 0.0
H160 H 0.35454 0.47439 0.71494 0.0
Cu161 Cu 1.00875 0.35684 0.56607 0.0
N162 N 0.96425 0.36198 0.52831 0.0
N163 N 0.92694 0.3848 0.44477 0.0
C164 C 0.9526 0.39126 0.49264 0.0
C165 C 0.92089 0.3503 0.45368 0.0
C166 C 0.94409 0.33622 0.50512 0.0
O167 O 1.02556 0.40363 0.58551 0.0
C168 C 1.02835 0.3301 0.42058 0.0
O169 O 1.00997 0.35652 0.39391 0.0
H170 H 0.96489 0.4163 0.4958 0.0
H171 H 0.94868 0.30875 0.51738 0.0
N172 N 1.00666 0.33123 0.65924 0.0
N173 N 1.01805 0.29088 0.75116 0.0
C174 C 1.02598 0.30302 0.67862 0.0
C175 C 0.98596 0.3373 0.72137 0.0
C176 C 0.99295 0.31249 0.77822 0.0
C177 C 1.03189 0.42707 0.53313 0.0
O178 O 0.03289 0.41837 0.46072 0.0
H179 H 0.04578 0.29209 0.64062 0.0
H180 H 0.96709 0.35827 0.72486 0.0
O181 O 0.03489 0.32859 0.49203 0.0
H182 H 0.90366 0.33578 0.41928 0.0
H183 H 0.98012 0.31015 0.83472 0.0
Cu184 Cu 0.42945 1.02239 0.04234 0.0
N185 N 0.443 0.97665 0.02482 0.0
N186 N 0.4718 0.93656 0.95757 0.0
C187 C 0.47141 0.96947 0.98093 0.0
C188 C 0.4423 0.92215 0.98813 0.0
C189 C 0.42458 0.947 0.03033 0.0
O190 O 0.47229 0.0488 0.02893 0.0
C191 C 0.39222 1.02377 0.90204 0.0
O192 O 0.42018 1.00963 0.87038 0.0
H193 H 0.48893 0.98934 0.95714 0.0
H194 H 0.39859 0.9448 0.05568 0.0
N195 N 0.41012 1.02724 0.14148 0.0
N196 N 0.36932 1.03045 0.23598 0.0
C197 C 0.37672 1.02143 0.16272 0.0
C198 C 0.42443 0.04053 0.20331 0.0
C199 C 0.39949 0.04208 0.26205 0.0
C200 C 0.49697 0.03734 0.07007 0.0
O201 O 0.49029 1.01197 0.12128 0.0
H202 H 0.35798 1.01173 0.12423 0.0
H203 H 0.45084 0.04939 0.20524 0.0
O204 O 0.39291 1.03403 0.9709 0.0
H205 H 0.43248 0.89693 0.97394 0.0
H206 H 0.40354 0.05083 0.31944 0.0
Cu207 Cu 0.47076 0.42142 0.92291 0.0
N208 N 0.45025 0.45411 0.85206 0.0
N209 N 0.46405 0.50317 0.78057 0.0
C210 C 0.45905 0.48829 0.85182 0.0
C211 C 0.45624 0.47776 0.73293 0.0
C212 C 0.4474 0.44801 0.77657 0.0
O213 O 0.50179 0.45156 0.97685 0.0
C214 C 0.46925 0.36339 0.83653 0.0
O215 O 0.43639 0.36849 0.85609 0.0
H216 H 0.46753 0.50062 0.9015 0.0
H217 H 0.44534 0.42239 0.75357 0.0
N218 N 0.44415 0.3958 0.99993 0.0
N219 N 0.43515 0.35356 0.09244 0.0
C220 C 0.45759 0.36782 0.0385 0.0
C221 C 0.4117 0.39937 0.03028 0.0
C222 C 0.40612 0.37342 0.08741 0.0
C223 C 0.4889 0.46943 0.03209 0.0
O224 O 0.46148 0.45727 0.07104 0.0
H225 H 0.48376 0.3583 0.02753 0.0
H226 H 0.39346 0.41941 1.01254 0.0
O227 O 0.49165 0.38487 0.85875 0.0
H228 H 0.46146 0.4789 0.67121 0.0
H229 H 0.38232 0.3692 0.12142 0.0
Cu230 Cu 0.16784 0.54738 0.99716 0.0
N231 N 0.15468 0.50757 0.94727 0.0
N232 N 0.14441 0.50303 0.82206 0.0
C233 C 0.13265 0.51477 0.8905 0.0
C234 C 0.17249 0.48343 0.83852 0.0
C235 C 0.17846 0.4858 0.91594 0.0
O236 O 0.12349 0.57509 1.00466 0.0
C237 C 0.23645 0.54833 0.93102 0.0
O238 O 0.24099 0.5271 0.9909 0.0
H239 H 0.11352 0.53548 0.89446 0.0
H240 H 0.20246 0.47837 0.94234 0.0
N241 N 0.18498 0.53737 0.09584 0.0
N242 N 0.21698 0.5395 0.20075 0.0
C243 C 0.20879 0.55548 0.13296 0.0
C244 C 0.17784 0.50918 0.14188 0.0
C245 C 0.19729 0.51053 0.2066 0.0
C246 C 0.09867 0.56277 0.04899 0.0
O247 O 0.10542 0.53547 0.09397 0.0
H248 H 0.22027 0.57951 0.10995 0.0
H249 H 0.16032 0.48862 0.12838 0.0
O250 O 0.20693 0.56394 0.92595 0.0
H251 H 0.19088 0.47353 0.79583 0.0
H252 H 0.19785 0.49099 0.25319 0.0
Cu253 Cu 1.01882 0.1428 0.07029 0.0
N254 N 0.97548 0.15379 0.0314 0.0
N255 N 0.93896 0.16252 0.93578 0.0
C256 C 0.96453 0.14233 0.96444 0.0
C257 C 0.93289 0.18734 0.98751 0.0
C258 C 0.95553 0.18189 0.04666 0.0
O259 O 1.02372 0.09191 0.07629 0.0
C260 C 0.05097 0.16643 0.92819 0.0
O261 O 0.03959 0.13774 0.89944 0.0
H262 H 0.9775 0.12183 0.93306 0.0
H263 H 0.95975 0.19939 0.09269 0.0
N264 N 1.02153 0.16167 0.16742 0.0
N265 N 1.02722 0.2015 0.25696 0.0
C266 C 1.02996 0.19481 0.18106 0.0
C267 C 1.01353 0.1466 0.2369 0.0
C268 C 1.01715 0.17105 0.29227 0.0
C269 C 0.04689 0.07334 0.04286 0.0
O270 O 0.07191 0.08873 1.00126 0.0
H271 H 0.03778 0.21355 0.13575 0.0
H272 H 1.00486 0.11998 0.24638 0.0
O273 O 0.05106 0.1686 1.00114 0.0
H274 H 0.91614 0.20984 0.97897 0.0
H275 H 1.01154 0.16706 0.35351 0.0
Cu276 Cu 0.9257 0.06656 0.49192 0.0
N277 N 0.91618 0.11154 0.5237 0.0
N278 N 0.91144 0.14879 0.61944 0.0
C279 C 0.93151 0.12474 0.58414 0.0
C280 C 0.8829 0.15208 0.57713 0.0
C281 C 0.88584 0.12893 0.51824 0.0
O282 O 0.97571 0.0589 0.48803 0.0
C283 C 0.90046 0.04021 0.637 0.0
O284 O 0.92762 0.0553 0.66402 0.0
H285 H 0.95457 0.11323 0.60849 0.0
H286 H 0.8655 0.12232 0.48036 0.0
N287 N 0.90841 0.05985 0.3954 0.0
N288 N 0.87093 0.04907 0.30448 0.0
C289 C 0.87478 0.05848 0.37785 0.0
C290 C 0.92659 0.05128 0.33128 0.0
C291 C 0.90357 0.04477 0.27498 0.0
C292 C 0.99203 1.03496 0.52447 0.0
O293 O 0.97466 1.01263 0.56997 0.0
H294 H 0.85378 0.06447 0.41836 0.0
H295 H 0.95457 0.04919 0.3266 0.0
O296 O 0.89896 0.03705 0.56461 0.0
H297 H 0.86027 0.16778 0.5914 0.0
H298 H 0.91039 0.03682 0.2172 0.0
Cu299 Cu 0.51116 0.9057 0.49198 0.0
N300 N 0.54971 0.91628 0.54762 0.0
N301 N 0.55003 0.92089 0.67554 0.0
C302 C 0.54084 0.93591 0.60785 0.0
C303 C 0.5698 0.89323 0.65624 0.0
C304 C 0.57002 0.89075 0.5772 0.0
O305 O 0.48674 0.9518 0.4772 0.0
C306 C 0.50505 0.8371 0.55712 0.0
O307 O 0.52681 0.83174 0.49871 0.0
H308 H 0.52127 0.9562 0.60389 0.0
H309 H 0.57805 0.86784 0.54668 0.0
N310 N 0.52324 0.88756 0.39537 0.0
N311 N 0.52181 0.85583 0.29003 0.0
C312 C 0.50447 0.86551 0.35496 0.0
C313 C 0.55332 0.89195 0.3544 0.0
C314 C 0.55239 0.87267 0.28919 0.0
C315 C 0.50213 0.97437 0.43146 0.0
O316 O 0.53072 0.96471 0.39443 0.0
H317 H 0.479 0.85617 0.37373 0.0
H318 H 0.57474 0.90748 0.3717 0.0
O319 O 0.4909 0.86749 0.56157 0.0
H320 H 0.57833 0.87299 0.69654 0.0
H321 H 0.57312 0.87017 0.24583 0.0
Cu322 Cu 0.65046 0.59549 0.59206 0.0
N323 N 0.61889 0.62077 0.65687 0.0
N324 N 0.5679 0.60951 0.72246 0.0
C325 C 0.58439 0.61492 0.65305 0.0
C326 C 0.59247 0.61578 0.77305 0.0
C327 C 0.62338 0.62297 0.73312 0.0
O328 O 0.61844 0.5629 0.54686 0.0
C329 C 0.7065 0.59829 0.6857 0.0
O330 O 0.70278 0.63095 0.66176 0.0
H331 H 0.57252 0.60897 0.60105 0.0
H332 H 0.64827 0.62307 0.75939 0.0
N333 N 0.67615 0.6191 0.5107 0.0
N334 N 0.71596 0.6248 0.4124 0.0
C335 C 0.69779 0.60252 0.46067 0.0
C336 C 0.68066 0.6533 0.49329 0.0
C337 C 0.7051 0.65688 0.4327 0.0
C338 C 0.60128 0.57373 0.48879 0.0
O339 O 0.61514 0.59816 0.44275 0.0
H340 H 0.70076 0.57443 0.46105 0.0
H341 H 0.66764 0.67416 0.52336 0.0
O342 O 0.68595 0.57566 0.66055 0.0
H343 H 0.5899 0.61031 0.83442 0.0
H344 H 0.71385 0.68122 0.40536 0.0
Cu345 Cu 0.03684 0.63789 0.51547 0.0
N346 N 0.08037 0.6193 0.49312 0.0
N347 N 0.11975 0.58334 0.54522 0.0
C348 C 0.10063 0.61275 0.55279 0.0
C349 C 0.11251 0.57208 0.47486 0.0
C350 C 0.088 0.5942 0.44307 0.0
O351 O 1.01069 0.59627 0.5473 0.0
C352 C 1.02933 0.67864 0.65678 0.0
O353 O 1.00407 0.65814 0.68291 0.0
H354 H 0.09541 0.62508 0.60693 0.0
H355 H 0.07284 0.58893 0.39379 0.0
N356 N 1.01882 0.65908 0.42752 0.0
N357 N 1.00688 0.70028 0.338 0.0
C358 C 1.02337 0.69253 0.40371 0.0
C359 C 0.99902 0.64495 0.37501 0.0
C360 C 0.99177 0.67031 0.31929 0.0
C361 C 1.02185 0.57523 0.5995 0.0
O362 O 0.04165 0.58736 0.65195 0.0
H363 H 0.03937 0.71046 0.43295 0.0
H364 H 0.99073 0.61806 0.37687 0.0
O365 O 0.04379 0.67347 0.59103 0.0
H366 H 0.12078 0.54735 0.45218 0.0
H367 H 0.97669 0.66697 0.26886 0.0
C368 C 0.62805 0.1604 0.29006 0.0
C369 C 0.61593 0.19495 0.28577 0.0
C370 C 0.65214 0.14812 0.2351 0.0
C371 C 0.66466 0.16979 0.17301 0.0
H372 H 0.61842 0.14266 0.33582 0.0
H373 H 0.66053 0.12116 0.24045 0.0
S374 S 0.6407 0.26247 0.13572 0.0
N375 N 0.61834 0.25095 0.21557 0.0
N376 N 0.66335 0.2276 0.11111 0.0
C377 C 0.65347 0.20472 0.16923 0.0
C378 C 0.62908 0.21734 0.2258 0.0
C379 C 0.47522 0.58197 0.28987 0.0
C380 C 0.48103 0.5461 0.2808 0.0
C381 C 0.49843 0.60696 0.25794 0.0
C382 C 0.52883 0.59723 0.21639 0.0
H383 H 0.45208 0.59072 0.3211 0.0
H384 H 0.49195 0.63427 0.26359 0.0
S385 S 0.55619 0.50663 0.17647 0.0
N386 N 0.51929 0.50191 0.22747 0.0
N387 N 0.5632 0.54908 0.167 0.0
C388 C 0.53497 0.5614 0.20669 0.0
C389 C 0.51111 0.5358 0.23926 0.0
C390 C 0.8694 0.42936 0.30063 0.0
C391 C 0.89272 0.4513 0.258 0.0
C392 C 0.88068 0.40779 0.36203 0.0
C393 C 0.91559 0.40748 0.38252 0.0
H394 H 0.84224 0.42932 0.28705 0.0
H395 H 0.86201 0.39147 0.39418 0.0
S396 S 0.98756 0.45652 0.28097 0.0
N397 N 0.95251 0.46923 0.23576 0.0
N398 N 0.97394 0.42842 0.34963 0.0
C399 C 0.93928 0.42853 0.3384 0.0
C400 C 0.92776 0.45054 0.27652 0.0
C401 C 0.19634 0.86442 0.25982 0.0
C402 C 0.1605 0.86204 0.2493 0.0
C403 C 0.209 0.87643 0.32874 0.0
C404 C 0.18621 0.88618 0.38977 0.0
H405 H 0.21461 0.85812 0.21339 0.0
H406 H 0.23673 0.87942 0.333 0.0
S407 S 0.0903 0.8795 0.39529 0.0
N408 N 0.1026 0.86679 0.30861 0.0
N409 N 0.12634 0.88918 0.43787 0.0
C410 C 0.15041 0.88221 0.3812 0.0
C411 C 0.13756 0.87018 0.3111 0.0
C412 C 0.52704 0.92424 0.88779 0.0
C413 C 0.49063 0.92688 0.8889 0.0
C414 C 0.54639 0.92179 0.81787 0.0
C415 C 0.52993 0.9231 0.74703 0.0
H416 H 0.54051 0.92503 0.94121 0.0
H417 H 0.57441 0.91989 0.81883 0.0
S418 S 0.43468 0.92923 0.72063 0.0
N419 N 0.43882 0.93022 0.81467 0.0
N420 N 0.47451 0.92548 0.68346 0.0
C421 C 0.49332 0.9252 0.74806 0.0
C422 C 0.47385 0.92718 0.819 0.0
C423 C 0.54988 0.54795 0.73979 0.0
C424 C 0.54091 0.58363 0.73587 0.0
C425 C 0.52457 0.52199 0.75318 0.0
C426 C 0.48913 0.53053 0.76267 0.0
H427 H 0.57685 0.54018 0.73295 0.0
H428 H 0.53272 0.49492 0.75698 0.0
S429 S 0.45173 0.61979 0.75357 0.0
N430 N 0.4939 0.62599 0.73883 0.0
N431 N 0.44632 0.57719 0.76587 0.0
C432 C 0.4797 0.56602 0.75797 0.0
C433 C 0.50556 0.59255 0.74364 0.0
C434 C 0.1288 0.52591 0.61351 0.0
C435 C 0.13215 0.56262 0.61004 0.0
C436 C 0.13372 0.50631 0.68241 0.0
C437 C 0.14099 0.52282 0.75053 0.0
H438 H 0.12069 0.51226 0.56405 0.0
H439 H 0.13035 0.47831 0.6834 0.0
S440 S 0.15529 0.61766 0.77134 0.0
N441 N 0.14754 0.61378 0.67944 0.0
N442 N 0.15324 0.57768 0.80954 0.0
C443 C 0.14564 0.55923 0.74718 0.0
C444 C 0.14218 0.57887 0.67681 0.0
C445 C 0.95671 0.16791 0.79885 0.0
C446 C 0.93019 0.16441 0.8562 0.0
C447 C 0.94976 0.16552 0.72089 0.0
C448 C 0.91604 0.15916 0.69726 0.0
H449 H 0.98319 0.17138 0.81496 0.0
H450 H 0.97117 0.16699 0.67875 0.0
S451 S 0.83708 0.15042 0.82609 0.0
N452 N 0.86876 0.15682 0.88519 0.0
N453 N 0.85533 0.15115 0.73836 0.0
C454 C 0.88887 0.15737 0.75415 0.0
C455 C 0.89607 0.16024 0.83379 0.0
C456 C 0.83448 0.05756 0.79837 0.0
C457 C 0.8031 0.04759 0.7674 0.0
C458 C 0.86626 0.05285 0.75812 0.0
C459 C 0.86794 0.0376 0.68555 0.0
H460 H 0.83436 0.07064 0.85249 0.0
H461 H 0.88939 0.0629 0.78259 0.0
S462 S 0.79369 1.0004 0.58726 0.0
N463 N 0.77601 1.01722 0.66572 0.0
N464 N 0.83568 1.00807 0.58975 0.0
C465 C 0.83695 1.02497 0.65692 0.0
C466 C 0.80455 1.03009 0.69779 0.0
C467 C 0.5191 0.77662 0.60727 0.0
C468 C 0.50356 0.80944 0.6212 0.0
C469 C 0.52503 0.75181 0.667 0.0
C470 C 0.51542 0.75813 0.74414 0.0
H471 H 0.5281 0.77031 0.54959 0.0
H472 H 0.53794 0.7276 0.65272 0.0
S473 S 0.47049 0.83778 0.81261 0.0
N474 N 0.47604 0.84537 0.71865 0.0
N475 N 0.48723 0.79873 0.83092 0.0
C476 C 0.49799 0.78983 0.75894 0.0
C477 C 0.49203 0.81538 0.69767 0.0
C478 C 0.77882 0.55027 0.79216 0.0
C479 C 0.79089 0.57575 0.84109 0.0
C480 C 0.75055 0.5569 0.74438 0.0
C481 C 0.73359 0.58952 0.74268 0.0
H482 H 0.79152 0.52502 0.79038 0.0
H483 H 0.74275 0.5368 0.70665 0.0
S484 S 0.75388 0.66456 0.86214 0.0
N485 N 0.78265 0.63439 0.88634 0.0
N486 N 0.72987 0.64695 0.79755 0.0
C487 C 0.74482 0.61483 0.79295 0.0
C488 C 0.77329 0.60794 0.84189 0.0
C489 C 0.0324 0.746 0.81337 0.0
C490 C 0.06136 0.76651 0.79006 0.0
C491 C 1.02243 0.71749 0.77071 0.0
C492 C 0.04102 0.70823 0.7029 0.0
H493 H 1.01679 0.75253 0.864 0.0
H494 H 0.99965 0.70294 0.7906 0.0
S495 S 0.12121 0.75125 0.62187 0.0
N496 N 0.11015 0.7737 0.69829 0.0
N497 N 0.09145 0.72082 0.61779 0.0
C498 C 0.07069 0.72797 0.68038 0.0
C499 C 0.08081 0.75688 0.72389 0.0
C500 C 0.32709 1.01857 0.74319 0.0
C501 C 0.29497 1.01514 0.7844 0.0
C502 C 0.35833 1.02199 0.78139 0.0
C503 C 0.35873 1.0227 0.86234 0.0
H504 H 0.32815 1.01888 0.68084 0.0
H505 H 0.38237 1.02418 0.74716 0.0
S506 S 0.28239 1.01162 0.99785 0.0
N507 N 0.26621 1.01006 0.91152 0.0
N508 N 0.32439 1.01793 0.98259 0.0
C509 C 0.32688 1.01919 0.90426 0.0
C510 C 0.2952 1.01507 0.86555 0.0
C511 C 0.49957 0.30668 0.67095 0.0
C512 C 0.48359 0.27449 0.69133 0.0
C513 C 0.49715 0.33508 0.72044 0.0
C514 C 0.47832 0.33229 0.79145 0.0
H515 H 0.51386 0.30994 0.61629 0.0
H516 H 0.50874 0.35972 0.70156 0.0
S517 S 0.43203 0.25404 0.87227 0.0
N518 N 0.44856 0.24193 0.78828 0.0
N519 N 0.44426 0.2948 0.88033 0.0
C520 C 0.4629 0.30015 0.81288 0.0
C521 C 0.46547 0.2714 0.76317 0.0
C522 C 0.31988 0.52415 0.81868 0.0
C523 C 0.31426 0.53588 0.74249 0.0
C524 C 0.29544 0.53025 0.87903 0.0
C525 C 0.26379 0.54813 0.8665 0.0
H526 H 0.34332 0.50972 0.83176 0.0
H527 H 0.30118 0.51982 0.93597 0.0
S528 S 0.237 0.58543 0.67736 0.0
N529 N 0.27511 0.56722 0.65784 0.0
N530 N 0.22939 0.57884 0.77101 0.0
C531 C 0.25845 0.56112 0.79084 0.0
C532 C 0.28352 0.55495 0.72909 0.0
C533 C 0.03568 0.26141 0.87222 0.0
C534 C 1.03228 0.26087 0.79199 0.0
C535 C 0.0449 0.23134 0.91519 0.0
C536 C 0.05081 0.19927 0.87975 0.0
H537 H 1.03007 0.28508 0.90248 0.0
H538 H 0.04524 0.23293 0.97728 0.0
S539 S 0.0495 0.18486 0.66978 0.0
N540 N 0.03851 0.2263 0.67773 0.0
N541 N 0.05643 0.16985 0.75826 0.0
C542 C 0.05008 0.199 0.79877 0.0
C543 C 0.04059 0.22971 0.75494 0.0
C544 C 0.28152 0.99624 0.30028 0.0
C545 C 0.27146 1.01789 0.36094 0.0
C546 C 0.31322 1.00083 0.25945 0.0
C547 C 0.33614 1.02744 0.27702 0.0
H548 H 0.26544 0.9746 0.2859 0.0
H549 H 0.32026 0.98262 0.21531 0.0
S550 S 0.31992 0.09421 0.42376 0.0
N551 N 0.28562 0.06871 0.43264 0.0
N552 N 0.34484 0.07809 0.3541 0.0
C553 C 0.3257 0.05036 0.33515 0.0
C554 C 0.29346 0.04544 0.3774 0.0
C555 C 0.47008 0.266 0.16242 0.0
C556 C 0.45914 0.26339 0.24103 0.0
C557 C 0.46157 0.295 0.11458 0.0
C558 C 0.44144 0.32296 0.14235 0.0
H559 H 0.48609 0.2457 0.13742 0.0
H560 H 0.47108 0.29561 0.05506 0.0
S561 S 0.40554 0.32952 0.34288 0.0
N562 N 0.42635 0.29168 0.34385 0.0
N563 N 0.41033 0.34601 0.25387 0.0
C564 C 0.42944 0.32048 0.22016 0.0
C565 C 0.43828 0.29085 0.26934 0.0
C566 C 0.26254 0.54581 0.38692 0.0
C567 C 0.29647 0.55566 0.36287 0.0
C568 C 0.23631 0.54261 0.33402 0.0
C569 C 0.24278 0.54899 0.25451 0.0
H570 H 0.25659 0.53883 0.44701 0.0
H571 H 0.211 0.53371 0.3552 0.0
S572 S 0.32679 0.57713 0.16162 0.0
N573 N 0.33472 0.57353 0.25439 0.0
N574 N 0.28544 0.56726 0.15458 0.0
C575 C 0.27607 0.56081 0.2299 0.0
C576 C 0.30289 0.56423 0.28417 0.0
C577 C 0.04311 0.23539 0.3688 0.0
C578 C 1.03134 0.23454 0.29315 0.0
C579 C 0.04421 0.26672 0.40798 0.0
C580 C 0.03343 0.29862 0.3733 0.0
H581 H 0.05092 0.21147 0.3986 0.0
H582 H 0.05225 0.26559 0.46708 0.0
S583 S 1.00204 0.31102 0.17437 0.0
N584 N 1.00969 0.26875 0.1842 0.0
N585 N 1.01255 0.32752 0.25654 0.0
C586 C 1.02311 0.29836 0.29629 0.0
C587 C 1.02185 0.26642 0.25658 0.0
C588 C 0.80844 0.05137 0.14353 0.0
C589 C 0.77635 0.04389 0.18169 0.0
C590 C 0.83907 0.0525 0.18391 0.0
C591 C 0.83909 0.04578 0.26411 0.0
H592 H 0.80985 0.05787 0.08224 0.0
H593 H 0.86273 0.05984 0.15211 0.0
S594 S 0.76247 1.01999 0.38924 0.0
N595 N 0.74667 1.02694 0.303 0.0
N596 N 0.80451 1.02755 0.37882 0.0
C597 C 0.80738 0.03653 0.30248 0.0
C598 C 0.776 0.03592 0.26129 0.0
C599 C 0.51854 0.83789 0.15605 0.0
C600 C 0.51187 0.83081 0.23513 0.0
C601 C 0.51463 0.81214 0.10204 0.0
C602 C 0.5041 0.77809 0.12482 0.0
H603 H 0.52813 0.86324 0.13621 0.0
H604 H 0.52159 0.81854 0.04215 0.0
S605 S 0.48204 0.74655 0.32514 0.0
N606 N 0.4927 0.78781 0.33362 0.0
N607 N 0.48551 0.73919 0.23204 0.0
C608 C 0.49545 0.77115 0.20336 0.0
C609 C 0.49936 0.79755 0.25856 0.0
C610 C 0.73509 0.58604 0.30782 0.0
C611 C 0.74079 0.61552 0.3511 0.0
C612 C 0.75878 0.57579 0.24925 0.0
C613 C 0.78982 0.5942 0.23107 0.0
H614 H 0.71182 0.57078 0.31897 0.0
H615 H 0.75263 0.55277 0.21845 0.0
S616 S 0.81777 0.6731 0.3285 0.0
N617 N 0.78017 0.66305 0.37228 0.0
N618 N 0.82484 0.64365 0.26259 0.0
C619 C 0.79595 0.62385 0.27393 0.0
C620 C 0.77147 0.63455 0.33353 0.0
C621 C 1.01658 0.76382 0.16867 0.0
C622 C 1.0199 0.79599 0.20414 0.0
C623 C 1.01084 0.73282 0.21256 0.0
C624 C 1.00816 0.73279 0.29353 0.0
H625 H 1.02028 0.76215 0.10678 0.0
H626 H 1.01027 0.7085 0.18307 0.0
S627 S 1.00863 0.81063 0.41373 0.0
N628 N 1.01568 0.82631 0.32473 0.0
N629 N 1.00449 0.76809 0.40677 0.0
C630 C 1.00892 0.765 0.32935 0.0
C631 C 1.01481 0.79658 0.28478 0.0
C632 C 0.54286 0.06399 0.98041 0.0
C633 C 0.53367 0.04665 0.05095 0.0
C634 C 0.57777 0.06952 0.95778 0.0
C635 C 0.60486 0.05765 1.00441 0.0
H636 H 0.52302 0.07277 0.94153 0.0
H637 H 0.58358 0.08296 0.90287 0.0
S638 S 0.59474 1.01358 0.19777 0.0
N639 N 0.55468 1.01967 0.16972 0.0
N640 N 0.62007 1.02972 0.12658 0.0
C641 C 0.59607 0.04089 0.07573 0.0
C642 C 0.56055 0.03555 0.09917 0.0
C643 C 0.46666 0.53056 0.05096 0.0
C644 C 0.49417 0.50797 0.02863 0.0
C645 C 0.4666 0.56621 0.02828 0.0
C646 C 0.49387 0.58067 0.98184 0.0
H647 H 0.44394 0.52033 0.08234 0.0
H648 H 0.44463 0.58231 0.04545 0.0
S649 S 0.57593 0.5347 0.92528 0.0
N650 N 0.55182 0.50409 0.96906 0.0
N651 N 0.55212 0.57062 0.92706 0.0
C652 C 0.52269 0.55885 0.96446 0.0
C653 C 0.52282 0.52277 0.98803 0.0
C654 C 1.00148 0.57124 0.10162 0.0
C655 C 0.98695 0.5861 0.03464 0.0
C656 C 0.03759 0.56566 0.10656 0.0
C657 C 0.06136 0.57488 0.04521 0.0
H658 H 0.98475 0.56256 0.14997 0.0
H659 H 0.04685 0.55296 0.15869 0.0
S660 S 0.03772 0.61717 0.85859 0.0
N661 N 1.00014 0.61194 0.90649 0.0
N662 N 0.06755 0.60149 0.91647 0.0
C663 C 0.04751 0.59129 0.97922 0.0
C664 C 1.01058 0.59681 0.97379 0.0
C665 C 0.06457 1.0143 0.99575 0.0
C666 C 0.04469 1.03445 0.04763 0.0
C667 C 0.06244 0.97771 0.99761 0.0
C668 C 0.04036 0.95952 0.0515 0.0
H669 H 0.0818 1.02686 0.95268 0.0
H670 H 0.07833 0.9636 0.95627 0.0
S671 S 0.98419 0.99971 0.20308 0.0
N672 N 1.00299 1.03319 0.15646 0.0
N673 N 0.99902 0.9647 0.16 0.0
C674 C 1.02052 0.97933 0.10417 0.0
C675 C 1.02268 1.01662 0.10226 0.0
C676 C 0.08559 1.01211 0.56836 0.0
C677 C 0.10483 1.02736 0.50532 0.0
C678 C 0.04925 1.01455 0.57371 0.0
C679 C 1.03053 1.0327 0.51678 0.0
H680 H 0.0986 0.99769 0.61377 0.0
H681 H 0.03578 1.00225 0.62332 0.0
S682 S 0.06814 0.07741 0.33968 0.0
N683 N 0.10209 0.0613 0.38433 0.0
N684 N 0.03394 0.06613 0.39485 0.0
C685 C 0.04935 0.04835 0.45364 0.0
C686 C 0.0864 0.0456 0.44779 0.0
C687 C 0.49723 1.02865 0.3477 0.0
C688 C 0.49069 1.01177 0.42027 0.0
C689 C 0.49368 0.065 0.33621 0.0
C690 C 0.48372 0.08684 0.39689 0.0
H691 H 0.50626 1.01363 0.29922 0.0
H692 H 0.50012 0.07612 0.27926 0.0
S693 S 0.46156 0.0558 0.59823 0.0
N694 N 0.47205 1.01969 0.55355 0.0
N695 N 0.46554 0.08804 0.53263 0.0
C696 C 0.47579 0.0702 0.46955 0.0
C697 C 0.47912 1.03281 0.481 0.0
C698 C 0.5471 0.54267 0.53708 0.0
C699 C 0.56252 0.57015 0.49263 0.0
C700 C 0.51137 0.54267 0.55629 0.0
C701 C 0.48924 0.5703 0.53268 0.0
H702 H 0.56295 0.52139 0.55918 0.0
H703 H 0.50101 0.52044 0.58951 0.0
S704 S 0.51652 0.65016 0.42115 0.0
N705 N 0.5525 0.62676 0.42787 0.0
N706 N 0.48562 0.62646 0.46501 0.0
C707 C 0.5041 0.59785 0.48792 0.0
C708 C 0.54051 0.59779 0.4674 0.0
C709 C 1.01655 0.52504 0.51241 0.0
C710 C 1.02212 0.53702 0.58655 0.0
C711 C 1.02082 0.48976 0.49557 0.0
C712 C 1.0304 0.46464 0.55223 0.0
H713 H 1.00964 0.54317 0.46607 0.0
H714 H 1.01608 0.48212 0.43759 0.0
S715 S 0.048 0.4821 0.75578 0.0
N716 N 0.038 0.52073 0.7173 0.0
N717 N 0.0453 0.45431 0.68596 0.0
C718 C 0.0358 0.47611 0.62686 0.0
C719 C 1.03185 0.51223 0.64386 0.0
loop_
_geom_bond_atom_site_label_1
_geom_bond_atom_site_label_2
_geom_bond_distance
_geom_bond_site_symmetry_2
_ccdc_geom_bond_type
Cu0 N1 1.999 . S
Cu0 O6 1.974 1_554 S
Cu0 N11 1.985 1_544 S
Cu0 O20 1.959 . S
N1 Cu0 1.999 . S
N1 C3 1.263 . S
N1 C5 1.389 . S
N2 C3 1.358 . S
N2 C4 1.400 . S
C3 N1 1.263 . S
C3 N2 1.358 . S
C3 H9 0.930 . S
C4 N2 1.400 . S
C4 C5 1.351 . S
C4 H21 0.930 . S
C5 N1 1.389 . S
C5 C4 1.351 . S
C5 H10 0.930 . S
O6 Cu0 1.974 1_556 S
O6 C16 1.282 1_545 S
C7 O8 1.261 . S
C7 O20 1.251 1_565 S
O8 C7 1.261 . S
H9 C3 0.930 . S
H10 C5 0.930 . S
N11 Cu0 1.985 1_566 S
N11 C13 1.335 . S
N11 C14 1.390 . S
N12 C13 1.345 . S
N12 C15 1.336 . S
C13 N11 1.335 . S
C13 N12 1.345 . S
C13 H18 0.930 1_565 S
C14 N11 1.390 . S
C14 C15 1.346 . S
C14 H19 0.930 . S
C15 N12 1.336 . S
C15 C14 1.346 . S
C15 H22 0.929 . S
C16 O6 1.282 1_565 S
C16 O17 1.216 1_556 S
O17 C16 1.216 1_554 S
H18 C13 0.930 1_545 S
H19 C14 0.930 . S
O20 Cu0 1.959 . S
O20 C7 1.251 1_545 S
H21 C4 0.930 . S
H22 C15 0.929 . S
Cu23 N24 1.999 . S
Cu23 O29 1.974 1_554 S
Cu23 N34 1.985 1_554 S
Cu23 O43 1.959 . S
N24 Cu23 1.999 . S
N24 C26 1.263 . S
N24 C28 1.389 . S
N25 C26 1.358 . S
N25 C27 1.400 . S
C26 N24 1.263 . S
C26 N25 1.358 . S
C26 H32 0.930 . S
C27 N25 1.400 . S
C27 C28 1.351 . S
C27 H44 0.930 . S
C28 N24 1.389 . S
C28 C27 1.351 . S
C28 H33 0.930 . S
O29 Cu23 1.974 1_556 S
O29 C39 1.282 . S
C30 O31 1.261 . S
C30 O43 1.251 . S
O31 C30 1.261 . S
H32 C26 0.930 . S
H33 C28 0.930 . S
N34 Cu23 1.985 1_556 S
N34 C36 1.335 . S
N34 C37 1.390 . S
N35 C36 1.345 . S
N35 C38 1.336 . S
C36 N34 1.335 . S
C36 N35 1.345 . S
C36 H41 0.930 . S
C37 N34 1.390 . S
C37 C38 1.346 . S
C37 H42 0.930 . S
C38 N35 1.336 . S
C38 C37 1.346 . S
C38 H45 0.929 . S
C39 O29 1.282 . S
C39 O40 1.216 1_556 S
O40 C39 1.216 1_554 S
H41 C36 0.930 . S
H42 C37 0.930 . S
O43 Cu23 1.959 . S
O43 C30 1.251 . S
H44 C27 0.930 . S
H45 C38 0.929 . S
Cu46 N47 1.999 . S
Cu46 O52 1.974 1_554 S
Cu46 N57 1.985 1_554 S
Cu46 O66 1.959 . S
N47 Cu46 1.999 . S
N47 C49 1.263 . S
N47 C51 1.389 . S
N48 C49 1.358 . S
N48 C50 1.400 . S
C49 N47 1.263 . S
C49 N48 1.358 . S
C49 H55 0.930 . S
C50 N48 1.400 . S
C50 C51 1.351 . S
C50 H67 0.930 . S
C51 N47 1.389 . S
C51 C50 1.351 . S
C51 H56 0.930 . S
O52 Cu46 1.974 1_556 S
O52 C62 1.282 . S
C53 O54 1.261 . S
C53 O66 1.251 . S
O54 C53 1.261 . S
H55 C49 0.930 . S
H56 C51 0.930 . S
N57 Cu46 1.985 1_556 S
N57 C59 1.335 . S
N57 C60 1.390 . S
N58 C59 1.345 . S
N58 C61 1.336 . S
C59 N57 1.335 . S
C59 N58 1.345 . S
C59 H64 0.930 . S
C60 N57 1.390 . S
C60 C61 1.346 . S
C60 H65 0.930 . S
C61 N58 1.336 . S
C61 C60 1.346 . S
C61 H68 0.929 . S
C62 O52 1.282 . S
C62 O63 1.216 1_556 S
O63 C62 1.216 1_554 S
H64 C59 0.930 . S
H65 C60 0.930 . S
O66 Cu46 1.959 . S
O66 C53 1.251 . S
H67 C50 0.930 . S
H68 C61 0.929 . S
Cu69 N70 1.999 . S
Cu69 O75 1.974 1_554 S
Cu69 N80 1.985 1_454 S
Cu69 O89 1.959 . S
N70 Cu69 1.999 . S
N70 C72 1.263 . S
N70 C74 1.389 . S
N71 C72 1.358 . S
N71 C73 1.400 . S
C72 N70 1.263 . S
C72 N71 1.358 . S
C72 H78 0.930 . S
C73 N71 1.400 . S
C73 C74 1.351 . S
C73 H90 0.930 . S
C74 N70 1.389 . S
C74 C73 1.351 . S
C74 H79 0.930 . S
O75 Cu69 1.974 1_556 S
O75 C85 1.282 1_455 S
C76 O77 1.261 . S
C76 O89 1.251 1_655 S
O77 C76 1.261 . S
H78 C72 0.930 . S
H79 C74 0.930 . S
N80 Cu69 1.985 1_656 S
N80 C82 1.335 . S
N80 C83 1.390 . S
N81 C82 1.345 . S
N81 C84 1.336 . S
C82 N80 1.335 . S
C82 N81 1.345 . S
C82 H87 0.930 1_655 S
C83 N80 1.390 . S
C83 C84 1.346 . S
C83 H88 0.930 . S
C84 N81 1.336 . S
C84 C83 1.346 . S
C84 H91 0.929 . S
C85 O75 1.282 1_655 S
C85 O86 1.216 1_556 S
O86 C85 1.216 1_554 S
H87 C82 0.930 1_455 S
H88 C83 0.930 . S
O89 Cu69 1.959 . S
O89 C76 1.251 1_455 S
H90 C73 0.930 . S
H91 C84 0.929 . S
Cu92 N93 1.999 . S
Cu92 O98 1.974 . S
Cu92 N103 1.985 1_565 S
Cu92 O112 1.959 . S
N93 Cu92 1.999 . S
N93 C95 1.263 . S
N93 C97 1.389 . S
N94 C95 1.358 . S
N94 C96 1.400 . S
C95 N93 1.263 . S
C95 N94 1.358 . S
C95 H101 0.930 . S
C96 N94 1.400 . S
C96 C97 1.351 . S
C96 H113 0.930 . S
C97 N93 1.389 . S
C97 C96 1.351 . S
C97 H102 0.930 . S
O98 Cu92 1.974 . S
O98 C108 1.282 1_565 S
C99 O100 1.261 . S
C99 O112 1.251 1_545 S
O100 C99 1.261 . S
H101 C95 0.930 . S
H102 C97 0.930 . S
N103 Cu92 1.985 1_545 S
N103 C105 1.335 . S
N103 C106 1.390 . S
N104 C105 1.345 . S
N104 C107 1.336 . S
C105 N103 1.335 . S
C105 N104 1.345 . S
C105 H110 0.930 1_545 S
C106 N103 1.390 . S
C106 C107 1.346 . S
C106 H111 0.930 . S
C107 N104 1.336 . S
C107 C106 1.346 . S
C107 H114 0.929 . S
C108 O98 1.282 1_545 S
C108 O109 1.216 . S
O109 C108 1.216 . S
H110 C105 0.930 1_565 S
H111 C106 0.930 . S
O112 Cu92 1.959 . S
O112 C99 1.251 1_565 S
H113 C96 0.930 . S
H114 C107 0.929 . S
Cu115 N116 1.999 . S
Cu115 O121 1.974 . S
Cu115 N126 1.985 . S
Cu115 O135 1.959 . S
N116 Cu115 1.999 . S
N116 C118 1.263 . S
N116 C120 1.389 . S
N117 C118 1.358 . S
N117 C119 1.400 . S
C118 N116 1.263 . S
C118 N117 1.358 . S
C118 H124 0.930 . S
C119 N117 1.400 . S
C119 C120 1.351 . S
C119 H136 0.930 . S
C120 N116 1.389 . S
C120 C119 1.351 . S
C120 H125 0.930 . S
O121 Cu115 1.974 . S
O121 C131 1.282 . S
C122 O123 1.261 . S
C122 O135 1.251 . S
O123 C122 1.261 . S
H124 C118 0.930 . S
H125 C120 0.930 . S
N126 Cu115 1.985 . S
N126 C128 1.335 . S
N126 C129 1.390 . S
N127 C128 1.345 . S
N127 C130 1.336 . S
C128 N126 1.335 . S
C128 N127 1.345 . S
C128 H133 0.930 . S
C129 N126 1.390 . S
C129 C130 1.346 . S
C129 H134 0.930 . S
C130 N127 1.336 . S
C130 C129 1.346 . S
C130 H137 0.929 . S
C131 O121 1.282 . S
C131 O132 1.216 . S
O132 C131 1.216 . S
H133 C128 0.930 . S
H134 C129 0.930 . S
O135 Cu115 1.959 . S
O135 C122 1.251 . S
H136 C119 0.930 . S
H137 C130 0.929 . S
Cu138 N139 1.999 . S
Cu138 O144 1.974 . S
Cu138 N149 1.985 . S
Cu138 O158 1.959 . S
N139 Cu138 1.999 . S
N139 C141 1.263 . S
N139 C143 1.389 . S
N140 C141 1.358 . S
N140 C142 1.400 . S
C141 N139 1.263 . S
C141 N140 1.358 . S
C141 H147 0.930 . S
C142 N140 1.400 . S
C142 C143 1.351 . S
C142 H159 0.930 . S
C143 N139 1.389 . S
C143 C142 1.351 . S
C143 H148 0.930 . S
O144 Cu138 1.974 . S
O144 C154 1.282 . S
C145 O146 1.261 . S
C145 O158 1.251 . S
O146 C145 1.261 . S
H147 C141 0.930 . S
H148 C143 0.930 . S
N149 Cu138 1.985 . S
N149 C151 1.335 . S
N149 C152 1.390 . S
N150 C151 1.345 . S
N150 C153 1.336 . S
C151 N149 1.335 . S
C151 N150 1.345 . S
C151 H156 0.930 . S
C152 N149 1.390 . S
C152 C153 1.346 . S
C152 H157 0.930 . S
C153 N150 1.336 . S
C153 C152 1.346 . S
C153 H160 0.929 . S
C154 O144 1.282 . S
C154 O155 1.216 . S
O155 C154 1.216 . S
H156 C151 0.930 . S
H157 C152 0.930 . S
O158 Cu138 1.959 . S
O158 C145 1.251 . S
H159 C142 0.930 . S
H160 C153 0.929 . S
Cu161 N162 1.999 . S
Cu161 O167 1.974 . S
Cu161 N172 1.985 1_655 S
Cu161 O181 1.959 . S
N162 Cu161 1.999 . S
N162 C164 1.263 . S
N162 C166 1.389 . S
N163 C164 1.358 . S
N163 C165 1.400 . S
C164 N162 1.263 . S
C164 N163 1.358 . S
C164 H170 0.930 . S
C165 N163 1.400 . S
C165 C166 1.351 . S
C165 H182 0.930 . S
C166 N162 1.389 . S
C166 C165 1.351 . S
C166 H171 0.930 . S
O167 Cu161 1.974 . S
O167 C177 1.282 1_655 S
C168 O169 1.261 . S
C168 O181 1.251 1_455 S
O169 C168 1.261 . S
H170 C164 0.930 . S
H171 C166 0.930 . S
N172 Cu161 1.985 1_455 S
N172 C174 1.335 . S
N172 C175 1.390 . S
N173 C174 1.345 . S
N173 C176 1.336 . S
C174 N172 1.335 . S
C174 N173 1.345 . S
C174 H179 0.930 1_455 S
C175 N172 1.390 . S
C175 C176 1.346 . S
C175 H180 0.930 . S
C176 N173 1.336 . S
C176 C175 1.346 . S
C176 H183 0.929 . S
C177 O167 1.282 1_455 S
C177 O178 1.216 . S
O178 C177 1.216 . S
H179 C174 0.930 1_655 S
H180 C175 0.930 . S
O181 Cu161 1.959 . S
O181 C168 1.251 1_655 S
H182 C165 0.930 . S
H183 C176 0.929 . S
Cu184 N185 1.999 . S
Cu184 O190 1.974 1_556 S
Cu184 N195 1.985 1_566 S
Cu184 O204 1.959 . S
N185 Cu184 1.999 . S
N185 C187 1.263 . S
N185 C189 1.389 . S
N186 C187 1.358 . S
N186 C188 1.400 . S
C187 N185 1.263 . S
C187 N186 1.358 . S
C187 H193 0.930 . S
C188 N186 1.400 . S
C188 C189 1.351 . S
C188 H205 0.930 . S
C189 N185 1.389 . S
C189 C188 1.351 . S
C189 H194 0.930 . S
O190 Cu184 1.974 1_554 S
O190 C200 1.282 1_565 S
C191 O192 1.261 . S
C191 O204 1.251 1_545 S
O192 C191 1.261 . S
H193 C187 0.930 . S
H194 C189 0.930 . S
N195 Cu184 1.985 1_544 S
N195 C197 1.335 . S
N195 C198 1.390 . S
N196 C197 1.345 . S
N196 C199 1.336 . S
C197 N195 1.335 . S
C197 N196 1.345 . S
C197 H202 0.930 1_545 S
C198 N195 1.390 . S
C198 C199 1.346 . S
C198 H203 0.930 . S
C199 N196 1.336 . S
C199 C198 1.346 . S
C199 H206 0.929 . S
C200 O190 1.282 1_545 S
C200 O201 1.216 1_554 S
O201 C200 1.216 1_556 S
H202 C197 0.930 1_565 S
H203 C198 0.930 . S
O204 Cu184 1.959 . S
O204 C191 1.251 1_565 S
H205 C188 0.930 . S
H206 C199 0.929 . S
Cu207 N208 1.999 . S
Cu207 O213 1.974 1_556 S
Cu207 N218 1.985 1_556 S
Cu207 O227 1.959 . S
N208 Cu207 1.999 . S
N208 C210 1.263 . S
N208 C212 1.389 . S
N209 C210 1.358 . S
N209 C211 1.400 . S
C210 N208 1.263 . S
C210 N209 1.358 . S
C210 H216 0.930 . S
C211 N209 1.400 . S
C211 C212 1.351 . S
C211 H228 0.930 . S
C212 N208 1.389 . S
C212 C211 1.351 . S
C212 H217 0.930 . S
O213 Cu207 1.974 1_554 S
O213 C223 1.282 . S
C214 O215 1.261 . S
C214 O227 1.251 . S
O215 C214 1.261 . S
H216 C210 0.930 . S
H217 C212 0.930 . S
N218 Cu207 1.985 1_554 S
N218 C220 1.335 . S
N218 C221 1.390 . S
N219 C220 1.345 . S
N219 C222 1.336 . S
C220 N218 1.335 . S
C220 N219 1.345 . S
C220 H225 0.930 . S
C221 N218 1.390 . S
C221 C222 1.346 . S
C221 H226 0.930 . S
C222 N219 1.336 . S
C222 C221 1.346 . S
C222 H229 0.929 . S
C223 O213 1.282 . S
C223 O224 1.216 1_554 S
O224 C223 1.216 1_556 S
H225 C220 0.930 . S
H226 C221 0.930 . S
O227 Cu207 1.959 . S
O227 C214 1.251 . S
H228 C211 0.930 . S
H229 C222 0.929 . S
Cu230 N231 1.999 . S
Cu230 O236 1.974 1_556 S
Cu230 N241 1.985 1_556 S
Cu230 O250 1.959 . S
N231 Cu230 1.999 . S
N231 C233 1.263 . S
N231 C235 1.389 . S
N232 C233 1.358 . S
N232 C234 1.400 . S
C233 N231 1.263 . S
C233 N232 1.358 . S
C233 H239 0.930 . S
C234 N232 1.400 . S
C234 C235 1.351 . S
C234 H251 0.930 . S
C235 N231 1.389 . S
C235 C234 1.351 . S
C235 H240 0.930 . S
O236 Cu230 1.974 1_554 S
O236 C246 1.282 . S
C237 O238 1.261 . S
C237 O250 1.251 . S
O238 C237 1.261 . S
H239 C233 0.930 . S
H240 C235 0.930 . S
N241 Cu230 1.985 1_554 S
N241 C243 1.335 . S
N241 C244 1.390 . S
N242 C243 1.345 . S
N242 C245 1.336 . S
C243 N241 1.335 . S
C243 N242 1.345 . S
C243 H248 0.930 . S
C244 N241 1.390 . S
C244 C245 1.346 . S
C244 H249 0.930 . S
C245 N242 1.336 . S
C245 C244 1.346 . S
C245 H252 0.929 . S
C246 O236 1.282 . S
C246 O247 1.216 1_554 S
O247 C246 1.216 1_556 S
H248 C243 0.930 . S
H249 C244 0.930 . S
O250 Cu230 1.959 . S
O250 C237 1.251 . S
H251 C234 0.930 . S
H252 C245 0.929 . S
Cu253 N254 1.999 . S
Cu253 O259 1.974 1_556 S
Cu253 N264 1.985 1_656 S
Cu253 O273 1.959 . S
N254 Cu253 1.999 . S
N254 C256 1.263 . S
N254 C258 1.389 . S
N255 C256 1.358 . S
N255 C257 1.400 . S
C256 N254 1.263 . S
C256 N255 1.358 . S
C256 H262 0.930 . S
C257 N255 1.400 . S
C257 C258 1.351 . S
C257 H274 0.930 . S
C258 N254 1.389 . S
C258 C257 1.351 . S
C258 H263 0.930 . S
O259 Cu253 1.974 1_554 S
O259 C269 1.282 1_655 S
C260 O261 1.261 . S
C260 O273 1.251 1_455 S
O261 C260 1.261 . S
H262 C256 0.930 . S
H263 C258 0.930 . S
N264 Cu253 1.985 1_454 S
N264 C266 1.335 . S
N264 C267 1.390 . S
N265 C266 1.345 . S
N265 C268 1.336 . S
C266 N264 1.335 . S
C266 N265 1.345 . S
C266 H271 0.930 1_455 S
C267 N264 1.390 . S
C267 C268 1.346 . S
C267 H272 0.930 . S
C268 N265 1.336 . S
C268 C267 1.346 . S
C268 H275 0.929 . S
C269 O259 1.282 1_455 S
C269 O270 1.216 1_554 S
O270 C269 1.216 1_556 S
H271 C266 0.930 1_655 S
H272 C267 0.930 . S
O273 Cu253 1.959 . S
O273 C260 1.251 1_655 S
H274 C257 0.930 . S
H275 C268 0.929 . S
Cu276 N277 1.999 . S
Cu276 O282 1.974 . S
Cu276 N287 1.985 1_545 S
Cu276 O296 1.959 . S
N277 Cu276 1.999 . S
N277 C279 1.263 . S
N277 C281 1.389 . S
N278 C279 1.358 . S
N278 C280 1.400 . S
C279 N277 1.263 . S
C279 N278 1.358 . S
C279 H285 0.930 . S
C280 N278 1.400 . S
C280 C281 1.351 . S
C280 H297 0.930 . S
C281 N277 1.389 . S
C281 C280 1.351 . S
C281 H286 0.930 . S
O282 Cu276 1.974 . S
O282 C292 1.282 1_545 S
C283 O284 1.261 . S
C283 O296 1.251 1_565 S
O284 C283 1.261 . S
H285 C279 0.930 . S
H286 C281 0.930 . S
N287 Cu276 1.985 1_565 S
N287 C289 1.335 . S
N287 C290 1.390 . S
N288 C289 1.345 . S
N288 C291 1.336 . S
C289 N287 1.335 . S
C289 N288 1.345 . S
C289 H294 0.930 1_565 S
C290 N287 1.390 . S
C290 C291 1.346 . S
C290 H295 0.930 . S
C291 N288 1.336 . S
C291 C290 1.346 . S
C291 H298 0.929 . S
C292 O282 1.282 1_565 S
C292 O293 1.216 . S
O293 C292 1.216 . S
H294 C289 0.930 1_545 S
H295 C290 0.930 . S
O296 Cu276 1.959 . S
O296 C283 1.251 1_545 S
H297 C280 0.930 . S
H298 C291 0.929 . S
Cu299 N300 1.999 . S
Cu299 O305 1.974 . S
Cu299 N310 1.985 . S
Cu299 O319 1.959 . S
N300 Cu299 1.999 . S
N300 C302 1.263 . S
N300 C304 1.389 . S
N301 C302 1.358 . S
N301 C303 1.400 . S
C302 N300 1.263 . S
C302 N301 1.358 . S
C302 H308 0.930 . S
C303 N301 1.400 . S
C303 C304 1.351 . S
C303 H320 0.930 . S
C304 N300 1.389 . S
C304 C303 1.351 . S
C304 H309 0.930 . S
O305 Cu299 1.974 . S
O305 C315 1.282 . S
C306 O307 1.261 . S
C306 O319 1.251 . S
O307 C306 1.261 . S
H308 C302 0.930 . S
H309 C304 0.930 . S
N310 Cu299 1.985 . S
N310 C312 1.335 . S
N310 C313 1.390 . S
N311 C312 1.345 . S
N311 C314 1.336 . S
C312 N310 1.335 . S
C312 N311 1.345 . S
C312 H317 0.930 . S
C313 N310 1.390 . S
C313 C314 1.346 . S
C313 H318 0.930 . S
C314 N311 1.336 . S
C314 C313 1.346 . S
C314 H321 0.929 . S
C315 O305 1.282 . S
C315 O316 1.216 . S
O316 C315 1.216 . S
H317 C312 0.930 . S
H318 C313 0.930 . S
O319 Cu299 1.959 . S
O319 C306 1.251 . S
H320 C303 0.930 . S
H321 C314 0.929 . S
Cu322 N323 1.999 . S
Cu322 O328 1.974 . S
Cu322 N333 1.985 . S
Cu322 O342 1.959 . S
N323 Cu322 1.999 . S
N323 C325 1.263 . S
N323 C327 1.389 . S
N324 C325 1.358 . S
N324 C326 1.400 . S
C325 N323 1.263 . S
C325 N324 1.358 . S
C325 H331 0.930 . S
C326 N324 1.400 . S
C326 C327 1.351 . S
C326 H343 0.930 . S
C327 N323 1.389 . S
C327 C326 1.351 . S
C327 H332 0.930 . S
O328 Cu322 1.974 . S
O328 C338 1.282 . S
C329 O330 1.261 . S
C329 O342 1.251 . S
O330 C329 1.261 . S
H331 C325 0.930 . S
H332 C327 0.930 . S
N333 Cu322 1.985 . S
N333 C335 1.335 . S
N333 C336 1.390 . S
N334 C335 1.345 . S
N334 C337 1.336 . S
C335 N333 1.335 . S
C335 N334 1.345 . S
C335 H340 0.930 . S
C336 N333 1.390 . S
C336 C337 1.346 . S
C336 H341 0.930 . S
C337 N334 1.336 . S
C337 C336 1.346 . S
C337 H344 0.929 . S
C338 O328 1.282 . S
C338 O339 1.216 . S
O339 C338 1.216 . S
H340 C335 0.930 . S
H341 C336 0.930 . S
O342 Cu322 1.959 . S
O342 C329 1.251 . S
H343 C326 0.930 . S
H344 C337 0.929 . S
Cu345 N346 1.999 . S
Cu345 O351 1.974 . S
Cu345 N356 1.985 1_455 S
Cu345 O365 1.959 . S
N346 Cu345 1.999 . S
N346 C348 1.263 . S
N346 C350 1.389 . S
N347 C348 1.358 . S
N347 C349 1.400 . S
C348 N346 1.263 . S
C348 N347 1.358 . S
C348 H354 0.930 . S
C349 N347 1.400 . S
C349 C350 1.351 . S
C349 H366 0.930 . S
C350 N346 1.389 . S
C350 C349 1.351 . S
C350 H355 0.930 . S
O351 Cu345 1.974 . S
O351 C361 1.282 1_455 S
C352 O353 1.261 . S
C352 O365 1.251 1_655 S
O353 C352 1.261 . S
H354 C348 0.930 . S
H355 C350 0.930 . S
N356 Cu345 1.985 1_655 S
N356 C358 1.335 . S
N356 C359 1.390 . S
N357 C358 1.345 . S
N357 C360 1.336 . S
C358 N356 1.335 . S
C358 N357 1.345 . S
C358 H363 0.930 1_655 S
C359 N356 1.390 . S
C359 C360 1.346 . S
C359 H364 0.930 . S
C360 N357 1.336 . S
C360 C359 1.346 . S
C360 H367 0.929 . S
C361 O351 1.282 1_655 S
C361 O362 1.216 . S
O362 C361 1.216 . S
H363 C358 0.930 1_455 S
H364 C359 0.930 . S
O365 Cu345 1.959 . S
O365 C352 1.251 1_455 S
H366 C349 0.930 . S
H367 C360 0.929 . S
C368 C369 1.369 . S
C368 C370 1.419 . S
C368 H372 0.930 . S
C369 C368 1.369 . S
C369 C378 1.429 . S
C370 C368 1.419 . S
C370 C371 1.363 . S
C370 H373 0.924 1_545 S
C371 C370 1.363 . S
C371 C377 1.428 . S
H372 C368 0.930 . S
H373 C370 0.924 1_565 S
S374 N375 1.613 . S
S374 N376 1.610 . S
N375 S374 1.613 . S
N375 C378 1.350 . S
N376 S374 1.610 . S
N376 C377 1.351 . S
C377 C371 1.428 . S
C377 N376 1.351 . S
C377 C378 1.434 . S
C378 C369 1.429 . S
C378 N375 1.350 . S
C378 C377 1.434 . S
C379 C380 1.369 . S
C379 C381 1.419 . S
C379 H383 0.930 . S
C380 C379 1.369 . S
C380 C389 1.429 . S
C381 C379 1.419 . S
C381 C382 1.363 . S
C381 H384 0.929 . S
C382 C381 1.363 . S
C382 C388 1.428 . S
H383 C379 0.930 . S
H384 C381 0.929 . S
S385 N386 1.613 . S
S385 N387 1.610 . S
N386 S385 1.613 . S
N386 C389 1.350 . S
N387 S385 1.610 . S
N387 C388 1.351 . S
C388 C382 1.428 . S
C388 N387 1.351 . S
C388 C389 1.434 . S
C389 C380 1.429 . S
C389 N386 1.350 . S
C389 C388 1.434 . S
C390 C391 1.369 . S
C390 C392 1.419 . S
C390 H394 0.930 . S
C391 C390 1.369 . S
C391 C400 1.429 . S
C392 C390 1.419 . S
C392 C393 1.363 . S
C392 H395 0.929 . S
C393 C392 1.363 . S
C393 C399 1.428 . S
H394 C390 0.930 . S
H395 C392 0.929 . S
S396 N397 1.613 . S
S396 N398 1.610 . S
N397 S396 1.613 . S
N397 C400 1.350 . S
N398 S396 1.610 . S
N398 C399 1.351 . S
C399 C393 1.428 . S
C399 N398 1.351 . S
C399 C400 1.434 . S
C400 C391 1.429 . S
C400 N397 1.350 . S
C400 C399 1.434 . S
C401 C402 1.369 . S
C401 C403 1.419 . S
C401 H405 0.930 . S
C402 C401 1.369 . S
C402 C411 1.429 . S
C403 C401 1.419 . S
C403 C404 1.363 . S
C403 H406 0.929 . S
C404 C403 1.363 . S
C404 C410 1.428 . S
H405 C401 0.930 . S
H406 C403 0.929 . S
S407 N408 1.613 . S
S407 N409 1.610 . S
N408 S407 1.613 . S
N408 C411 1.350 . S
N409 S407 1.610 . S
N409 C410 1.351 . S
C410 C404 1.428 . S
C410 N409 1.351 . S
C410 C411 1.434 . S
C411 C402 1.429 . S
C411 N408 1.350 . S
C411 C410 1.434 . S
C412 C413 1.369 . S
C412 C414 1.419 . S
C412 H416 0.930 . S
C413 C412 1.369 . S
C413 C422 1.429 . S
C414 C412 1.419 . S
C414 C415 1.363 . S
C414 H417 0.929 . S
C415 C414 1.363 . S
C415 C421 1.428 . S
H416 C412 0.930 . S
H417 C414 0.929 . S
S418 N419 1.613 . S
S418 N420 1.610 . S
N419 S418 1.613 . S
N419 C422 1.350 . S
N420 S418 1.610 . S
N420 C421 1.351 . S
C421 C415 1.428 . S
C421 N420 1.351 . S
C421 C422 1.434 . S
C422 C413 1.429 . S
C422 N419 1.350 . S
C422 C421 1.434 . S
C423 C424 1.369 . S
C423 C425 1.419 . S
C423 H427 0.930 . S
C424 C423 1.369 . S
C424 C433 1.429 . S
C425 C423 1.419 . S
C425 C426 1.363 . S
C425 H428 0.929 . S
C426 C425 1.363 . S
C426 C432 1.428 . S
H427 C423 0.930 . S
H428 C425 0.929 . S
S429 N430 1.613 . S
S429 N431 1.610 . S
N430 S429 1.613 . S
N430 C433 1.350 . S
N431 S429 1.610 . S
N431 C432 1.351 . S
C432 C426 1.428 . S
C432 N431 1.351 . S
C432 C433 1.434 . S
C433 C424 1.429 . S
C433 N430 1.350 . S
C433 C432 1.434 . S
C434 C435 1.369 . S
C434 C436 1.419 . S
C434 H438 0.930 . S
C435 C434 1.369 . S
C435 C444 1.429 . S
C436 C434 1.419 . S
C436 C437 1.363 . S
C436 H439 0.929 . S
C437 C436 1.363 . S
C437 C443 1.428 . S
H438 C434 0.930 . S
H439 C436 0.929 . S
S440 N441 1.613 . S
S440 N442 1.610 . S
N441 S440 1.613 . S
N441 C444 1.350 . S
N442 S440 1.610 . S
N442 C443 1.351 . S
C443 C437 1.428 . S
C443 N442 1.351 . S
C443 C444 1.434 . S
C444 C435 1.429 . S
C444 N441 1.350 . S
C444 C443 1.434 . S
C445 C446 1.369 . S
C445 C447 1.419 . S
C445 H449 0.930 . S
C446 C445 1.369 . S
C446 C455 1.429 . S
C447 C445 1.419 . S
C447 C448 1.363 . S
C447 H450 0.929 . S
C448 C447 1.363 . S
C448 C454 1.428 . S
H449 C445 0.930 . S
H450 C447 0.929 . S
S451 N452 1.613 . S
S451 N453 1.610 . S
N452 S451 1.613 . S
N452 C455 1.350 . S
N453 S451 1.610 . S
N453 C454 1.351 . S
C454 C448 1.428 . S
C454 N453 1.351 . S
C454 C455 1.434 . S
C455 C446 1.429 . S
C455 N452 1.350 . S
C455 C454 1.434 . S
C456 C457 1.369 1_545 S
C456 C458 1.419 . S
C456 H460 0.930 . S
C457 C456 1.369 1_565 S
C457 C466 1.429 . S
C458 C456 1.419 . S
C458 C459 1.363 1_545 S
C458 H461 0.929 . S
C459 C458 1.363 1_565 S
C459 C465 1.428 . S
H460 C456 0.930 . S
H461 C458 0.929 . S
S462 N463 1.613 . S
S462 N464 1.610 . S
N463 S462 1.613 . S
N463 C466 1.350 . S
N464 S462 1.610 . S
N464 C465 1.351 . S
C465 C459 1.428 . S
C465 N464 1.351 . S
C465 C466 1.434 . S
C466 C457 1.429 . S
C466 N463 1.350 . S
C466 C465 1.434 . S
C467 C468 1.369 . S
C467 C469 1.419 . S
C467 H471 0.930 . S
C468 C467 1.369 . S
C468 C477 1.429 . S
C469 C467 1.419 . S
C469 C470 1.363 . S
C469 H472 0.929 . S
C470 C469 1.363 . S
C470 C476 1.428 . S
H471 C467 0.930 . S
H472 C469 0.929 . S
S473 N474 1.613 . S
S473 N475 1.610 . S
N474 S473 1.613 . S
N474 C477 1.350 . S
N475 S473 1.610 . S
N475 C476 1.351 . S
C476 C470 1.428 . S
C476 N475 1.351 . S
C476 C477 1.434 . S
C477 C468 1.429 . S
C477 N474 1.350 . S
C477 C476 1.434 . S
C478 C479 1.369 . S
C478 C480 1.419 . S
C478 H482 0.930 . S
C479 C478 1.369 . S
C479 C488 1.429 . S
C480 C478 1.419 . S
C480 C481 1.363 . S
C480 H483 0.929 . S
C481 C480 1.363 . S
C481 C487 1.428 . S
H482 C478 0.930 . S
H483 C480 0.929 . S
S484 N485 1.613 . S
S484 N486 1.610 . S
N485 S484 1.613 . S
N485 C488 1.350 . S
N486 S484 1.610 . S
N486 C487 1.351 . S
C487 C481 1.428 . S
C487 N486 1.351 . S
C487 C488 1.434 . S
C488 C479 1.429 . S
C488 N485 1.350 . S
C488 C487 1.434 . S
C489 C490 1.369 . S
C489 C491 1.419 . S
C489 H493 0.930 . S
C490 C489 1.369 . S
C490 C499 1.429 . S
C491 C489 1.419 . S
C491 C492 1.363 . S
C491 H494 0.929 . S
C492 C491 1.363 . S
C492 C498 1.428 1_655 S
H493 C489 0.930 . S
H494 C491 0.929 . S
S495 N496 1.613 . S
S495 N497 1.610 . S
N496 S495 1.613 . S
N496 C499 1.350 1_455 S
N497 S495 1.610 . S
N497 C498 1.351 . S
C498 C492 1.428 1_455 S
C498 N497 1.351 . S
C498 C499 1.434 1_455 S
C499 C490 1.429 . S
C499 N496 1.350 1_655 S
C499 C498 1.434 1_655 S
C500 C501 1.369 . S
C500 C502 1.419 . S
C500 H504 0.930 . S
C501 C500 1.369 . S
C501 C510 1.429 . S
C502 C500 1.419 . S
C502 C503 1.363 . S
C502 H505 0.929 . S
C503 C502 1.363 . S
C503 C509 1.428 . S
H504 C500 0.930 . S
H505 C502 0.929 . S
S506 N507 1.613 . S
S506 N508 1.610 . S
N507 S506 1.613 . S
N507 C510 1.350 . S
N508 S506 1.610 . S
N508 C509 1.351 . S
C509 C503 1.428 . S
C509 N508 1.351 . S
C509 C510 1.434 . S
C510 C501 1.429 . S
C510 N507 1.350 . S
C510 C509 1.434 . S
C511 C512 1.369 . S
C511 C513 1.419 . S
C511 H515 0.930 . S
C512 C511 1.369 . S
C512 C521 1.429 . S
C513 C511 1.419 . S
C513 C514 1.363 . S
C513 H516 0.929 . S
C514 C513 1.363 . S
C514 C520 1.428 . S
H515 C511 0.930 . S
H516 C513 0.929 . S
S517 N518 1.613 . S
S517 N519 1.610 . S
N518 S517 1.613 . S
N518 C521 1.350 . S
N519 S517 1.610 . S
N519 C520 1.351 . S
C520 C514 1.428 . S
C520 N519 1.351 . S
C520 C521 1.434 . S
C521 C512 1.429 . S
C521 N518 1.350 . S
C521 C520 1.434 . S
C522 C523 1.369 . S
C522 C524 1.419 . S
C522 H526 0.930 . S
C523 C522 1.369 . S
C523 C532 1.429 . S
C524 C522 1.419 . S
C524 C525 1.363 . S
C524 H527 0.929 . S
C525 C524 1.363 . S
C525 C531 1.428 . S
H526 C522 0.930 . S
H527 C524 0.929 . S
S528 N529 1.613 . S
S528 N530 1.610 . S
N529 S528 1.613 . S
N529 C532 1.350 . S
N530 S528 1.610 . S
N530 C531 1.351 . S
C531 C525 1.428 . S
C531 N530 1.351 . S
C531 C532 1.434 . S
C532 C523 1.429 . S
C532 N529 1.350 . S
C532 C531 1.434 . S
C533 C534 1.369 . S
C533 C535 1.419 . S
C533 H537 0.930 . S
C534 C533 1.369 . S
C534 C543 1.429 1_455 S
C535 C533 1.419 . S
C535 C536 1.363 . S
C535 H538 0.929 . S
C536 C535 1.363 . S
C536 C542 1.428 1_455 S
H537 C533 0.930 . S
H538 C535 0.929 . S
S539 N540 1.613 . S
S539 N541 1.610 . S
N540 S539 1.613 . S
N540 C543 1.350 . S
N541 S539 1.610 . S
N541 C542 1.351 . S
C542 C536 1.428 1_655 S
C542 N541 1.351 . S
C542 C543 1.434 . S
C543 C534 1.429 1_655 S
C543 N540 1.350 . S
C543 C542 1.434 . S
C544 C545 1.369 1_565 S
C544 C546 1.419 . S
C544 H548 0.930 . S
C545 C544 1.369 1_545 S
C545 C554 1.429 . S
C546 C544 1.419 . S
C546 C547 1.363 1_565 S
C546 H549 0.929 . S
C547 C546 1.363 1_545 S
C547 C553 1.428 . S
H548 C544 0.930 . S
H549 C546 0.929 . S
S550 N551 1.613 . S
S550 N552 1.610 . S
N551 S550 1.613 . S
N551 C554 1.350 . S
N552 S550 1.610 . S
N552 C553 1.351 . S
C553 C547 1.428 . S
C553 N552 1.351 . S
C553 C554 1.434 . S
C554 C545 1.429 . S
C554 N551 1.350 . S
C554 C553 1.434 . S
C555 C556 1.369 . S
C555 C557 1.419 . S
C555 H559 0.930 . S
C556 C555 1.369 . S
C556 C565 1.429 . S
C557 C555 1.419 . S
C557 C558 1.363 . S
C557 H560 0.929 . S
C558 C557 1.363 . S
C558 C564 1.428 . S
H559 C555 0.930 . S
H560 C557 0.929 . S
S561 N562 1.613 . S
S561 N563 1.610 . S
N562 S561 1.613 . S
N562 C565 1.350 . S
N563 S561 1.610 . S
N563 C564 1.351 . S
C564 C558 1.428 . S
C564 N563 1.351 . S
C564 C565 1.434 . S
C565 C556 1.429 . S
C565 N562 1.350 . S
C565 C564 1.434 . S
C566 C567 1.369 . S
C566 C568 1.419 . S
C566 H570 0.930 . S
C567 C566 1.369 . S
C567 C576 1.429 . S
C568 C566 1.419 . S
C568 C569 1.363 . S
C568 H571 0.929 . S
C569 C568 1.363 . S
C569 C575 1.428 . S
H570 C566 0.930 . S
H571 C568 0.929 . S
S572 N573 1.613 . S
S572 N574 1.610 . S
N573 S572 1.613 . S
N573 C576 1.350 . S
N574 S572 1.610 . S
N574 C575 1.351 . S
C575 C569 1.428 . S
C575 N574 1.351 . S
C575 C576 1.434 . S
C576 C567 1.429 . S
C576 N573 1.350 . S
C576 C575 1.434 . S
C577 C578 1.369 . S
C577 C579 1.419 . S
C577 H581 0.930 . S
C578 C577 1.369 . S
C578 C587 1.429 1_455 S
C579 C577 1.419 . S
C579 C580 1.363 . S
C579 H582 0.929 . S
C580 C579 1.363 . S
C580 C586 1.428 1_455 S
H581 C577 0.930 . S
H582 C579 0.929 . S
S583 N584 1.613 . S
S583 N585 1.610 . S
N584 S583 1.613 . S
N584 C587 1.350 . S
N585 S583 1.610 . S
N585 C586 1.351 . S
C586 C580 1.428 1_655 S
C586 N585 1.351 . S
C586 C587 1.434 . S
C587 C578 1.429 1_655 S
C587 N584 1.350 . S
C587 C586 1.434 . S
C588 C589 1.369 . S
C588 C590 1.419 . S
C588 H592 0.930 . S
C589 C588 1.369 . S
C589 C598 1.429 . S
C590 C588 1.419 . S
C590 C591 1.363 . S
C590 H593 0.929 . S
C591 C590 1.363 . S
C591 C597 1.428 . S
H592 C588 0.930 . S
H593 C590 0.929 . S
S594 N595 1.613 . S
S594 N596 1.610 . S
N595 S594 1.613 . S
N595 C598 1.350 . S
N596 S594 1.610 . S
N596 C597 1.351 . S
C597 C591 1.428 . S
C597 N596 1.351 . S
C597 C598 1.434 . S
C598 C589 1.429 . S
C598 N595 1.350 . S
C598 C597 1.434 . S
C599 C600 1.369 . S
C599 C601 1.419 . S
C599 H603 0.930 . S
C600 C599 1.369 . S
C600 C609 1.429 . S
C601 C599 1.419 . S
C601 C602 1.363 . S
C601 H604 0.929 . S
C602 C601 1.363 . S
C602 C608 1.428 . S
H603 C599 0.930 . S
H604 C601 0.929 . S
S605 N606 1.613 . S
S605 N607 1.610 . S
N606 S605 1.613 . S
N606 C609 1.350 . S
N607 S605 1.610 . S
N607 C608 1.351 . S
C608 C602 1.428 . S
C608 N607 1.351 . S
C608 C609 1.434 . S
C609 C600 1.429 . S
C609 N606 1.350 . S
C609 C608 1.434 . S
C610 C611 1.369 . S
C610 C612 1.419 . S
C610 H614 0.930 . S
C611 C610 1.369 . S
C611 C620 1.429 . S
C612 C610 1.419 . S
C612 C613 1.363 . S
C612 H615 0.929 . S
C613 C612 1.363 . S
C613 C619 1.428 . S
H614 C610 0.930 . S
H615 C612 0.929 . S
S616 N617 1.613 . S
S616 N618 1.610 . S
N617 S616 1.613 . S
N617 C620 1.350 . S
N618 S616 1.610 . S
N618 C619 1.351 . S
C619 C613 1.428 . S
C619 N618 1.351 . S
C619 C620 1.434 . S
C620 C611 1.429 . S
C620 N617 1.350 . S
C620 C619 1.434 . S
C621 C622 1.369 1_455 S
C621 C623 1.419 . S
C621 H625 0.930 . S
C622 C621 1.369 1_655 S
C622 C631 1.429 . S
C623 C621 1.419 . S
C623 C624 1.363 1_455 S
C623 H626 0.929 . S
C624 C623 1.363 1_655 S
C624 C630 1.428 . S
H625 C621 0.930 . S
H626 C623 0.929 . S
S627 N628 1.613 . S
S627 N629 1.610 . S
N628 S627 1.613 . S
N628 C631 1.350 . S
N629 S627 1.610 . S
N629 C630 1.351 . S
C630 C624 1.428 . S
C630 N629 1.351 . S
C630 C631 1.434 . S
C631 C622 1.429 . S
C631 N628 1.350 . S
C631 C630 1.434 . S
C632 C633 1.369 1_566 S
C632 C634 1.419 . S
C632 H636 0.930 . S
C633 C632 1.369 1_544 S
C633 C642 1.429 . S
C634 C632 1.419 . S
C634 C635 1.363 . S
C634 H637 0.929 . S
C635 C634 1.363 . S
C635 C641 1.428 1_566 S
H636 C632 0.930 . S
H637 C634 0.929 . S
S638 N639 1.613 . S
S638 N640 1.610 . S
N639 S638 1.613 . S
N639 C642 1.350 . S
N640 S638 1.610 . S
N640 C641 1.351 . S
C641 C635 1.428 1_544 S
C641 N640 1.351 . S
C641 C642 1.434 . S
C642 C633 1.429 . S
C642 N639 1.350 . S
C642 C641 1.434 . S
C643 C644 1.369 . S
C643 C645 1.419 . S
C643 H647 0.930 . S
C644 C643 1.369 . S
C644 C653 1.429 1_554 S
C645 C643 1.419 . S
C645 C646 1.363 1_554 S
C645 H648 0.929 . S
C646 C645 1.363 1_556 S
C646 C652 1.428 . S
H647 C643 0.930 . S
H648 C645 0.929 . S
S649 N650 1.613 . S
S649 N651 1.610 . S
N650 S649 1.613 . S
N650 C653 1.350 . S
N651 S649 1.610 . S
N651 C652 1.351 . S
C652 C646 1.428 . S
C652 N651 1.351 . S
C652 C653 1.434 . S
C653 C644 1.429 1_556 S
C653 N650 1.350 . S
C653 C652 1.434 . S
C654 C655 1.369 . S
C654 C656 1.418 . S
C654 H658 0.930 . S
C655 C654 1.369 . S
C655 C664 1.429 1_656 S
C656 C654 1.418 . S
C656 C657 1.364 1_656 S
C656 H659 0.929 . S
C657 C656 1.364 1_454 S
C657 C663 1.428 . S
H658 C654 0.930 . S
H659 C656 0.929 . S
S660 N661 1.613 . S
S660 N662 1.610 . S
N661 S660 1.613 . S
N661 C664 1.350 . S
N662 S660 1.610 . S
N662 C663 1.351 . S
C663 C657 1.428 . S
C663 N662 1.351 . S
C663 C664 1.434 . S
C664 C655 1.429 1_454 S
C664 N661 1.350 . S
C664 C663 1.434 . S
C665 C666 1.369 1_656 S
C665 C667 1.419 1_545 S
C665 H669 0.930 . S
C666 C665 1.369 1_454 S
C666 C675 1.429 . S
C667 C665 1.419 1_565 S
C667 C668 1.363 . S
C667 H670 0.929 . S
C668 C667 1.363 . S
C668 C674 1.428 1_656 S
H669 C665 0.930 . S
H670 C667 0.929 . S
S671 N672 1.613 1_565 S
S671 N673 1.610 . S
N672 S671 1.613 1_545 S
N672 C675 1.350 . S
N673 S671 1.610 . S
N673 C674 1.351 . S
C674 C668 1.428 1_454 S
C674 N673 1.351 . S
C674 C675 1.434 1_565 S
C675 C666 1.429 . S
C675 N672 1.350 . S
C675 C674 1.434 1_545 S
C676 C677 1.369 1_565 S
C676 C678 1.419 1_455 S
C676 H680 0.930 . S
C677 C676 1.369 1_545 S
C677 C686 1.429 . S
C678 C676 1.419 1_655 S
C678 C679 1.363 . S
C678 H681 0.929 . S
C679 C678 1.363 . S
C679 C685 1.428 1_565 S
H680 C676 0.930 . S
H681 C678 0.929 . S
S682 N683 1.613 . S
S682 N684 1.610 1_455 S
N683 S682 1.613 . S
N683 C686 1.350 . S
N684 S682 1.610 1_655 S
N684 C685 1.351 . S
C685 C679 1.428 1_545 S
C685 N684 1.351 . S
C685 C686 1.434 1_655 S
C686 C677 1.429 . S
C686 N683 1.350 . S
C686 C685 1.434 1_455 S
C687 C688 1.369 . S
C687 C689 1.419 1_565 S
C687 H691 0.930 . S
C688 C687 1.369 . S
C688 C697 1.429 . S
C689 C687 1.419 1_545 S
C689 C690 1.363 . S
C689 H692 0.929 . S
C690 C689 1.363 . S
C690 C696 1.428 . S
H691 C687 0.930 . S
H692 C689 0.929 . S
S693 N694 1.605 1_545 S
S693 N695 1.618 . S
N694 S693 1.605 1_565 S
N694 C697 1.350 . S
N695 S693 1.618 . S
N695 C696 1.351 . S
C696 C690 1.428 . S
C696 N695 1.351 . S
C696 C697 1.434 1_545 S
C697 C688 1.429 . S
C697 N694 1.350 . S
C697 C696 1.434 1_565 S
C698 C699 1.369 . S
C698 C700 1.419 . S
C698 H702 0.930 . S
C699 C698 1.369 . S
C699 C708 1.429 . S
C700 C698 1.419 . S
C700 C701 1.363 . S
C700 H703 0.929 . S
C701 C700 1.363 . S
C701 C707 1.428 . S
H702 C698 0.930 . S
H703 C700 0.929 . S
S704 N705 1.613 . S
S704 N706 1.610 . S
N705 S704 1.613 . S
N705 C708 1.350 . S
N706 S704 1.610 . S
N706 C707 1.351 . S
C707 C701 1.428 . S
C707 N706 1.351 . S
C707 C708 1.434 . S
C708 C699 1.429 . S
C708 N705 1.350 . S
C708 C707 1.434 . S
C709 C710 1.369 1_455 S
C709 C711 1.419 . S
C709 H713 0.930 . S
C710 C709 1.369 1_655 S
C710 C719 1.429 . S
C711 C709 1.419 . S
C711 C712 1.363 . S
C711 H714 0.929 . S
C712 C711 1.363 . S
C712 C718 1.428 1_455 S
H713 C709 0.930 . S
H714 C711 0.929 . S
S715 N716 1.613 . S
S715 N717 1.610 . S
N716 S715 1.613 . S
N716 C719 1.350 . S
N717 S715 1.610 . S
N717 C718 1.351 . S
C718 C712 1.428 1_655 S
C718 N717 1.351 . S
C718 C719 1.434 . S
C719 C710 1.429 . S
C719 N716 1.350 . S
C719 C718 1.434 . S
C369 N117 0.764 . S
C371 N2 0.778 . S
C380 N140 1.087 . S
C382 N25 1.087 . S
C391 N48 0.766 . S
C393 N163 0.790 . S
C402 N71 0.517 . S
C404 N94 0.510 . S
C413 N186 0.777 . S
C415 N301 0.756 . S
C424 N324 1.090 . S
C426 N209 1.084 . S
C435 N347 0.785 . S
C437 N232 0.758 . S
C446 N255 0.506 . S
C448 N278 0.507 . S
C457 N12 1.689 . S
C459 C283 1.699 . S
C468 C306 2.007 . S
C470 N35 1.981 . S
C479 N58 2.209 . S
C481 C329 2.246 . S
C490 N81 1.846 . S
C492 C352 1.862 . S
C501 N104 1.848 . S
C503 C191 1.862 . S
C512 N127 2.207 . S
C514 C214 2.248 . S
C523 N150 1.981 . S
C525 C237 2.007 . S
C534 N173 1.687 . S
C536 C260 1.699 . S
C545 C99 1.697 . S
C547 N196 1.690 . S
C556 C122 2.011 . S
C558 N219 1.979 . S
C567 C145 2.245 . S
C569 N242 2.206 . S
C578 N265 1.850 . S
C580 C168 1.859 . S
C589 C7 1.858 . S
C591 N288 1.851 . S
C600 N311 2.208 . S
C602 C30 2.246 . S
C611 N334 1.979 . S
C613 C53 2.010 . S
C622 C76 1.695 . S
C624 N357 1.692 . S
C633 C200 1.700 . S
C635 C16 1.693 . S
C644 C223 2.331 . S
C646 C39 2.337 . S
C655 C62 2.604 . S
C657 C246 2.603 . S
C666 C269 1.976 . S
C668 C85 1.968 . S
C677 C108 1.971 . S
C679 C292 1.972 . S
C688 C315 2.600 . S
C690 C131 2.605 . S
C699 C338 2.331 . S
C701 C154 2.337 . S
C710 C361 1.695 . S
C712 C177 1.697 . S
