# Generated by pormake.
# Topology umm, (4)-cn, num edge types: 1
# Building blocks:
#     Node 0, Type 0, BuildingBlock: MUDLON_clean_sbu_0, # of connection points: 4
#     Node 1, Type 0, BuildingBlock: MUDLON_clean_sbu_0, # of connection points: 4
#     Node 2, Type 0, BuildingBlock: MUDLON_clean_sbu_0, # of connection points: 4
#     Node 3, Type 0, BuildingBlock: MUDLON_clean_sbu_0, # of connection points: 4
#     Node 4, Type 0, BuildingBlock: MUDLON_clean_sbu_0, # of connection points: 4
#     Node 5, Type 0, BuildingBlock: MUDLON_clean_sbu_0, # of connection points: 4
#     Node 6, Type 0, BuildingBlock: MUDLON_clean_sbu_0, # of connection points: 4
#     Node 7, Type 0, BuildingBlock: MUDLON_clean_sbu_0, # of connection points: 4
#     Node 8, Type 0, BuildingBlock: MUDLON_clean_sbu_0, # of connection points: 4
#     Node 9, Type 0, BuildingBlock: MUDLON_clean_sbu_0, # of connection points: 4
#     Node 10, Type 0, BuildingBlock: MUDLON_clean_sbu_0, # of connection points: 4
#     Node 11, Type 0, BuildingBlock: MUDLON_clean_sbu_0, # of connection points: 4
#     Edge 12, Type (0, 0), BuildingBlock: CIFDUS_clean_linker_0, # of connection points: 2
#     Edge 13, Type (0, 0), BuildingBlock: CIFDUS_clean_linker_0, # of connection points: 2
#     Edge 14, Type (0, 0), BuildingBlock: CIFDUS_clean_linker_0, # of connection points: 2
#     Edge 15, Type (0, 0), BuildingBlock: CIFDUS_clean_linker_0, # of connection points: 2
#     Edge 16, Type (0, 0), BuildingBlock: CIFDUS_clean_linker_0, # of connection points: 2
#     Edge 17, Type (0, 0), BuildingBlock: CIFDUS_clean_linker_0, # of connection points: 2
#     Edge 18, Type (0, 0), BuildingBlock: CIFDUS_clean_linker_0, # of connection points: 2
#     Edge 19, Type (0, 0), BuildingBlock: CIFDUS_clean_linker_0, # of connection points: 2
#     Edge 20, Type (0, 0), BuildingBlock: CIFDUS_clean_linker_0, # of connection points: 2
#     Edge 21, Type (0, 0), BuildingBlock: CIFDUS_clean_linker_0, # of connection points: 2
#     Edge 22, Type (0, 0), BuildingBlock: CIFDUS_clean_linker_0, # of connection points: 2
#     Edge 23, Type (0, 0), BuildingBlock: CIFDUS_clean_linker_0, # of connection points: 2
#     Edge 24, Type (0, 0), BuildingBlock: CIFDUS_clean_linker_0, # of connection points: 2
#     Edge 25, Type (0, 0), BuildingBlock: CIFDUS_clean_linker_0, # of connection points: 2
#     Edge 26, Type (0, 0), BuildingBlock: CIFDUS_clean_linker_0, # of connection points: 2
#     Edge 27, Type (0, 0), BuildingBlock: CIFDUS_clean_linker_0, # of connection points: 2
#     Edge 28, Type (0, 0), BuildingBlock: CIFDUS_clean_linker_0, # of connection points: 2
#     Edge 29, Type (0, 0), BuildingBlock: CIFDUS_clean_linker_0, # of connection points: 2
#     Edge 30, Type (0, 0), BuildingBlock: CIFDUS_clean_linker_0, # of connection points: 2
#     Edge 31, Type (0, 0), BuildingBlock: CIFDUS_clean_linker_0, # of connection points: 2
#     Edge 32, Type (0, 0), BuildingBlock: CIFDUS_clean_linker_0, # of connection points: 2
#     Edge 33, Type (0, 0), BuildingBlock: CIFDUS_clean_linker_0, # of connection points: 2
#     Edge 34, Type (0, 0), BuildingBlock: CIFDUS_clean_linker_0, # of connection points: 2
#     Edge 35, Type (0, 0), BuildingBlock: CIFDUS_clean_linker_0, # of connection points: 2
# Relax obj value: 0.065
# Max RMSD: 0.172
# Mean RMSD: 0.171
data_MOF--net-umm--node1-MUDLON_clean_sbu_0--edge1-CIFDUS_clean_linker_0
_symmetry_space_group_name_H-M    P1
_symmetry_Int_Tables_number       1
_symmetry_cell_setting            triclinic
loop_
_symmetry_equiv_pos_as_xyz
'x, y, z'
_cell_length_a     51.6072
_cell_length_b     51.165848
_cell_length_c     26.064436
_cell_angle_alpha  89.694948
_cell_angle_beta   90.053432
_cell_angle_gamma 120.29772
loop_
_atom_site_label
_atom_site_type_symbol
_atom_site_fract_x
_atom_site_fract_y
_atom_site_fract_z
_atom_type_partial_charge
Mg0 Mg 0.40098 0.55257 0.10203 0.0
C1 C 0.4573 0.54915 0.10049 0.0
O2 O 0.46854 0.57855 0.09691 0.0
C3 C 0.33323 0.52298 0.0892 0.0
O4 O 0.33573 0.53958 0.12923 0.0
C5 C 0.42286 0.59215 0.19864 0.0
O6 O 0.44546 0.60976 0.16842 0.0
O7 O 0.40087 0.56827 0.18014 0.0
O8 O 0.42893 0.53198 0.10292 0.0
O9 O 0.41674 0.58481 0.03808 0.0
C10 C 0.41168 0.57035 0.99607 0.0
O11 O 0.40081 0.54097 0.99849 0.0
O12 O 0.35589 0.52133 0.07483 0.0
Mg13 Mg 0.88012 0.4092 0.43243 0.0
C14 C 0.93816 0.46256 0.43723 0.0
O15 O 0.91804 0.47109 0.43634 0.0
C16 C 0.8257 0.35252 0.4229 0.0
O17 O 0.81888 0.37311 0.43594 0.0
C18 C 0.85618 0.40731 0.53897 0.0
O19 O 0.85594 0.38152 0.54062 0.0
O20 O 0.86448 0.423 0.49804 0.0
O21 O 0.92896 0.43428 0.43645 0.0
O22 O 0.87067 0.42684 0.36446 0.0
C23 C 0.86916 0.4133 0.32293 0.0
O24 O 0.87278 0.38966 0.32431 0.0
O25 O 0.85333 0.36031 0.42122 0.0
Mg26 Mg 0.48373 0.86585 0.77814 0.0
C27 C 0.49445 0.92765 0.79006 0.0
O28 O 0.46508 0.91036 0.79057 0.0
C29 C 0.5163 0.83559 0.73118 0.0
O30 O 0.51445 0.84926 0.68977 0.0
C31 C 0.46916 0.84513 0.88662 0.0
O32 O 0.49442 0.84548 0.8781 0.0
O33 O 0.457 0.85123 0.84933 0.0
O34 O 0.51028 0.91503 0.78622 0.0
O35 O 0.46137 0.85811 0.703 0.0
C36 C 0.47715 0.87809 0.66935 0.0
O37 O 0.50285 0.90133 0.68367 0.0
O38 O 0.50779 0.84071 0.77391 0.0
Mg39 Mg 0.63538 0.49415 0.09644 0.0
C40 C 0.58567 0.50519 0.1041 0.0
O41 O 0.57358 0.47562 0.10572 0.0
C42 C 0.69853 0.50692 0.10018 0.0
O43 O 0.68519 0.48423 0.13274 0.0
C44 C 0.63418 0.47994 0.20906 0.0
O45 O 0.65479 0.50879 0.20874 0.0
O46 O 0.62271 0.46705 0.16664 0.0
O47 O 0.61411 0.52145 0.10082 0.0
O48 O 0.61601 0.46754 0.02759 0.0
C49 C 0.63124 0.46099 0.99739 0.0
O50 O 0.65816 0.46702 1.01129 0.0
O51 O 0.68358 0.51837 0.08196 0.0
Mg52 Mg 0.17391 0.62701 0.42705 0.0
C53 C 0.11691 0.57049 0.43786 0.0
O54 O 0.13748 0.56255 0.43868 0.0
C55 C 0.21818 0.69477 0.42407 0.0
O56 O 0.23115 0.68746 0.46026 0.0
C57 C 0.19255 0.62951 0.53683 0.0
O58 O 0.18259 0.64859 0.53907 0.0
O59 O 0.19313 0.61832 0.49382 0.0
O60 O 0.12541 0.59853 0.43389 0.0
O61 O 0.18438 0.60928 0.36073 0.0
C62 C 0.18202 0.62023 0.31835 0.0
O63 O 0.1743 0.64107 0.31872 0.0
O64 O 0.19248 0.67476 0.40793 0.0
Mg65 Mg 0.55447 0.1638 0.75806 0.0
C66 C 0.54224 0.10266 0.77655 0.0
O67 O 0.57148 0.11953 0.77105 0.0
C68 C 0.55096 0.21574 0.72338 0.0
O69 O 0.57812 0.22131 0.71267 0.0
C70 C 0.57635 0.1852 0.86329 0.0
O71 O 0.54923 0.18149 0.86367 0.0
O72 O 0.58643 0.18111 0.82135 0.0
O73 O 0.52655 0.1155 0.7741 0.0
O74 O 0.57138 0.16369 0.68152 0.0
C75 C 0.59695 0.18052 0.66111 0.0
O76 O 0.6191 0.20083 0.68908 0.0
O77 O 0.5333 0.19148 0.74764 0.0
Mg78 Mg 0.46768 0.6215 0.59995 0.0
C79 C 0.47308 0.56688 0.61013 0.0
O80 O 0.44466 0.55698 0.62017 0.0
C81 C 0.50999 0.68339 0.65135 0.0
O82 O 0.50981 0.66688 0.69029 0.0
C83 C 0.4262 0.59117 0.50562 0.0
O84 O 0.41226 0.56752 0.53609 0.0
O85 O 0.44786 0.61561 0.52331 0.0
O86 O 0.49018 0.59495 0.60014 0.0
O87 O 0.43721 0.60358 0.66594 0.0
C88 C 0.43521 0.61972 0.70108 0.0
O89 O 0.44781 0.64907 0.69416 0.0
O90 O 0.49656 0.67033 0.6101 0.0
Mg91 Mg 0.87119 0.47896 0.92733 0.0
C92 C 0.92785 0.48274 0.9087 0.0
O93 O 0.90698 0.45409 0.90468 0.0
C94 C 0.82231 0.48394 0.96664 0.0
O95 O 0.81304 0.45502 0.96129 0.0
C96 C 0.85054 0.46348 0.81896 0.0
O97 O 0.86008 0.49264 0.81836 0.0
O98 O 0.85107 0.45107 0.86091 0.0
O99 O 0.91966 0.502 0.91747 0.0
O100 O 0.86422 0.45063 0.99323 0.0
C101 C 0.86976 0.46492 0.03522 0.0
O102 O 0.87927 0.49407 0.03393 0.0
O103 O 0.84836 0.50319 0.95029 0.0
Mg104 Mg 0.42426 0.86948 0.27942 0.0
C105 C 0.48036 0.92932 0.28562 0.0
O106 O 0.4891 0.91083 0.30286 0.0
C107 C 0.35593 0.83147 0.28667 0.0
O108 O 0.35908 0.81915 0.24481 0.0
C109 C 0.41517 0.86031 0.16689 0.0
O110 O 0.40271 0.87649 0.1783 0.0
O111 O 0.4259 0.85194 0.20337 0.0
O112 O 0.45299 0.91847 0.27287 0.0
O113 O 0.44162 0.85755 0.34674 0.0
C114 C 0.42427 0.83634 0.37728 0.0
O115 O 0.39687 0.81689 0.36237 0.0
O116 O 0.3787 0.85474 0.30491 0.0
Mg117 Mg 0.56504 0.41904 0.60773 0.0
C118 C 0.55587 0.47011 0.59637 0.0
O119 O 0.58484 0.4808 0.59124 0.0
C120 C 0.55598 0.35766 0.59357 0.0
O121 O 0.57971 0.37495 0.56535 0.0
C122 C 0.58035 0.42451 0.49626 0.0
O123 O 0.55162 0.4041 0.49613 0.0
O124 O 0.59331 0.43477 0.53913 0.0
O125 O 0.53888 0.44175 0.60394 0.0
O126 O 0.589 0.43455 0.67954 0.0
C127 C 0.60613 0.4257 0.69783 0.0
O128 O 0.61296 0.40874 0.66983 0.0
O129 O 0.54239 0.36962 0.61507 0.0
Mg130 Mg 0.16076 0.54726 0.92499 0.0
C131 C 0.10536 0.54971 0.92054 0.0
O132 O 0.12675 0.57809 0.92526 0.0
C133 C 0.20259 0.52233 0.93308 0.0
O134 O 0.21774 0.54418 0.89975 0.0
C135 C 0.18368 0.56421 0.8158 0.0
O136 O 0.17433 0.53516 0.81279 0.0
O137 O 0.1818 0.5751 0.85832 0.0
O138 O 0.11266 0.52936 0.91877 0.0
O139 O 0.17407 0.57645 0.99057 0.0
C140 C 0.17056 0.56309 0.03334 0.0
O141 O 0.15918 0.53363 0.03406 0.0
O142 O 0.17617 0.51597 0.94524 0.0
Mg143 Mg 0.62609 0.16847 0.26288 0.0
C144 C 0.58137 0.10705 0.23096 0.0
O145 O 0.57185 0.12435 0.21112 0.0
C146 C 0.67669 0.22286 0.29383 0.0
O147 O 0.65439 0.22757 0.28383 0.0
C148 C 0.62824 0.18537 0.15173 0.0
O149 O 0.64876 0.17738 0.15301 0.0
O150 O 0.61542 0.18533 0.19349 0.0
O151 O 0.60643 0.11966 0.25448 0.0
O152 O 0.60697 0.17424 0.33354 0.0
C153 C 0.58641 0.15222 0.35879 0.0
O154 O 0.57225 0.12524 0.33799 0.0
O155 O 0.67339 0.19716 0.28263 0.0
H156 H 0.38642 0.55479 0.27496 0.0
H157 H 0.46404 0.64308 0.24882 0.0
H158 H 0.47061 0.65143 0.34118 0.0
H159 H 0.45647 0.63244 0.42951 0.0
H160 H 0.37995 0.54344 0.45586 0.0
H161 H 0.37077 0.53678 0.36361 0.0
C162 C 0.40457 0.57603 0.2894 0.0
C163 C 0.42475 0.59822 0.25474 0.0
C164 C 0.40856 0.58052 0.34279 0.0
C165 C 0.4482 0.62552 0.27439 0.0
C166 C 0.45203 0.63033 0.32733 0.0
C167 C 0.43757 0.61169 0.41521 0.0
C168 C 0.41902 0.58844 0.44984 0.0
C169 C 0.43267 0.60779 0.36192 0.0
C170 C 0.39469 0.56171 0.43031 0.0
C171 C 0.38943 0.55784 0.37743 0.0
H172 H 0.84022 0.38099 0.63338 0.0
H173 H 0.85888 0.46169 0.54951 0.0
H174 H 0.85543 0.48499 0.62856 0.0
H175 H 0.85229 0.48448 0.72234 0.0
H176 H 0.83486 0.40429 0.80658 0.0
H177 H 0.83224 0.37869 0.72644 0.0
C178 C 0.84319 0.40353 0.63227 0.0
C179 C 0.85022 0.4197 0.58571 0.0
C180 C 0.84154 0.41699 0.67798 0.0
C181 C 0.8537 0.44879 0.58489 0.0
C182 C 0.85178 0.4622 0.63012 0.0
C183 C 0.84749 0.46126 0.72319 0.0
C184 C 0.8442 0.44651 0.77043 0.0
C185 C 0.8465 0.44681 0.67704 0.0
C186 C 0.83773 0.4163 0.77077 0.0
C187 C 0.83633 0.40165 0.72495 0.0
H188 H 0.42745 0.85803 0.9255 0.0
H189 H 0.48584 0.82412 0.9689 0.0
H190 H 0.47286 0.82367 0.05887 0.0
H191 H 0.448 0.83665 0.1265 0.0
H192 H 0.39048 0.87165 0.08334 0.0
H193 H 0.39984 0.86771 0.99289 0.0
C194 C 0.43696 0.85009 0.95455 0.0
C195 C 0.45773 0.84129 0.94021 0.0
C196 C 0.42974 0.85031 1.00672 0.0
C197 C 0.46993 0.83122 0.97862 0.0
C198 C 0.46255 0.83099 0.03029 0.0
C199 C 0.43722 0.84306 0.09732 0.0
C200 C 0.41873 0.85464 0.11203 0.0
C201 C 0.44297 0.84108 0.04499 0.0
C202 C 0.405 0.86285 0.07344 0.0
C203 C 0.41034 0.86063 0.02148 0.0
H204 H 0.65751 0.49888 0.3045 0.0
H205 H 0.58432 0.42441 0.22491 0.0
H206 H 0.56217 0.39996 0.30681 0.0
H207 H 0.56177 0.40134 0.40095 0.0
H208 H 0.63507 0.47546 0.48083 0.0
H209 H 0.65908 0.49829 0.39888 0.0
C210 C 0.63683 0.47718 0.30501 0.0
C211 C 0.62248 0.46366 0.25853 0.0
C212 C 0.62416 0.46324 0.35232 0.0
C213 C 0.59585 0.43539 0.26 0.0
C214 C 0.58309 0.42142 0.30687 0.0
C215 C 0.58311 0.42239 0.4005 0.0
C216 C 0.59645 0.4368 0.44701 0.0
C217 C 0.59676 0.43539 0.35326 0.0
C218 C 0.62428 0.46389 0.44566 0.0
C219 C 0.63797 0.47702 0.39877 0.0
H220 H 0.198 0.65115 0.63348 0.0
H221 H 0.19896 0.57992 0.54699 0.0
H222 H 0.19928 0.55471 0.62644 0.0
H223 H 0.19339 0.54991 0.7201 0.0
H224 H 0.19247 0.62126 0.80639 0.0
H225 H 0.19838 0.64946 0.72747 0.0
C226 C 0.19871 0.63034 0.63202 0.0
C227 C 0.19796 0.61722 0.58445 0.0
C228 C 0.19865 0.6158 0.67782 0.0
C229 C 0.19934 0.59045 0.58314 0.0
C230 C 0.19938 0.57591 0.62857 0.0
C231 C 0.19488 0.57181 0.72169 0.0
C232 C 0.19197 0.58317 0.76896 0.0
C233 C 0.1981 0.5879 0.67609 0.0
C234 C 0.1944 0.61181 0.77047 0.0
C235 C 0.19768 0.62797 0.72532 0.0
H236 H 0.65081 0.18658 0.05665 0.0
H237 H 0.58192 0.19579 0.134 0.0
H238 H 0.56136 0.19899 0.05134 0.0
H239 H 0.56056 0.19526 0.95746 0.0
H240 H 0.62885 0.1852 0.87985 0.0
H241 H 0.65217 0.18659 0.96226 0.0
C242 C 0.63147 0.18959 0.05552 0.0
C243 C 0.61781 0.19068 0.10166 0.0
C244 C 0.61956 0.19114 1.00776 0.0
C245 C 0.59287 0.19478 0.09925 0.0
C246 C 0.58102 0.19653 0.05192 0.0
C247 C 0.58073 0.19368 0.9584 0.0
C248 C 0.59276 0.18987 0.9124 0.0
C249 C 0.59383 0.19414 1.00597 0.0
C250 C 0.61904 0.18808 0.91454 0.0
C251 C 0.63234 0.18875 0.96173 0.0
H252 H 0.27587 0.50826 0.11161 0.0
H253 H 0.33442 0.51876 0.9853 0.0
H254 H 0.2972 0.51584 0.9244 0.0
H255 H 0.25122 0.51782 0.90787 0.0
H256 H 0.1914 0.50466 0.03347 0.0
H257 H 0.2255 0.50055 0.09343 0.0
C258 C 0.28012 0.50916 0.0707 0.0
C259 C 0.30799 0.51409 0.05313 0.0
C260 C 0.25848 0.50726 0.03566 0.0
C261 C 0.31314 0.51493 0.99997 0.0
C262 C 0.29193 0.51349 0.965 0.0
C263 C 0.24532 0.51328 0.94818 0.0
C264 C 0.21907 0.51204 0.96623 0.0
C265 C 0.26499 0.51076 0.98251 0.0
C266 C 0.2115 0.50581 0.01848 0.0
C267 C 0.23113 0.50367 0.05296 0.0
H268 H 0.76646 0.3298 0.43347 0.0
H269 H 0.83064 0.30948 0.36668 0.0
H270 H 0.78976 0.2655 0.32295 0.0
H271 H 0.7356 0.23565 0.2975 0.0
H272 H 0.67385 0.26013 0.36254 0.0
H273 H 0.71388 0.29957 0.41271 0.0
C274 C 0.77164 0.31564 0.40976 0.0
C275 C 0.80158 0.32308 0.40305 0.0
C276 C 0.74834 0.29125 0.38375 0.0
C277 C 0.80773 0.30422 0.3726 0.0
C278 C 0.78437 0.27922 0.34726 0.0
C279 C 0.73104 0.24954 0.32298 0.0
C280 C 0.70185 0.24524 0.3256 0.0
C281 C 0.75457 0.27294 0.3515 0.0
C282 C 0.69618 0.2633 0.35892 0.0
C283 C 0.71904 0.28583 0.38795 0.0
H284 H 0.5267 0.8137 0.64354 0.0
H285 H 0.51895 0.79991 0.80762 0.0
H286 H 0.52039 0.75318 0.79767 0.0
H287 H 0.51758 0.71319 0.7416 0.0
H288 H 0.52238 0.72599 0.57735 0.0
H289 H 0.52868 0.77622 0.58825 0.0
C290 C 0.52583 0.8008 0.6773 0.0
C291 C 0.52241 0.81025 0.72624 0.0
C292 C 0.5259 0.77356 0.67121 0.0
C293 C 0.52142 0.79317 0.76945 0.0
C294 C 0.52213 0.76634 0.76377 0.0
C295 C 0.52069 0.72723 0.70822 0.0
C296 C 0.51934 0.71572 0.65867 0.0
C297 C 0.52346 0.75584 0.71472 0.0
C298 C 0.52316 0.73418 0.61588 0.0
C299 C 0.52667 0.76291 0.62208 0.0
H300 H 0.73473 0.48563 0.1297 0.0
H301 H 0.72638 0.5421 1.01516 0.0
H302 H 0.76739 0.54351 0.96582 0.0
H303 H 0.80095 0.5226 0.94952 0.0
H304 H 0.80585 0.46344 0.06255 0.0
H305 H 0.77121 0.46933 0.11819 0.0
C306 C 0.74218 0.49872 0.09441 0.0
C307 C 0.72721 0.5134 0.07594 0.0
C308 C 0.76508 0.49867 0.06557 0.0
C309 C 0.73742 0.53049 0.0303 0.0
C310 C 0.76077 0.53113 1.00182 0.0
C311 C 0.79485 0.51165 0.98684 0.0
C312 C 0.80567 0.49251 1.00202 0.0
C313 C 0.77408 0.51442 0.01817 0.0
C314 C 0.79753 0.47811 0.05013 0.0
C315 C 0.77772 0.48143 0.0819 0.0
H316 H 0.26577 0.74782 0.45614 0.0
H317 H 0.21218 0.70391 0.32262 0.0
H318 H 0.2489 0.74455 0.26788 0.0
H319 H 0.29973 0.78871 0.25681 0.0
H320 H 0.35219 0.83395 0.39075 0.0
H321 H 0.31233 0.79709 0.44624 0.0
C322 C 0.26182 0.74755 0.41521 0.0
C323 C 0.23651 0.72266 0.39348 0.0
C324 C 0.283 0.77114 0.38386 0.0
C325 C 0.23148 0.72275 0.34043 0.0
C326 C 0.25261 0.74592 0.30896 0.0
C327 C 0.30211 0.79089 0.29817 0.0
C328 C 0.32909 0.81376 0.31947 0.0
C329 C 0.27898 0.76965 0.33005 0.0
C330 C 0.33171 0.81654 0.37319 0.0
C331 C 0.30898 0.79531 0.40507 0.0
H332 H 0.56272 0.24045 0.62989 0.0
H333 H 0.51898 0.23841 0.77167 0.0
H334 H 0.51296 0.2807 0.7412 0.0
H335 H 0.52647 0.32244 0.67789 0.0
H336 H 0.57073 0.32304 0.53701 0.0
H337 H 0.56976 0.27686 0.56303 0.0
C338 C 0.55138 0.24894 0.65378 0.0
C339 C 0.54159 0.2367 0.70305 0.0
C340 C 0.54827 0.27312 0.63616 0.0
C341 C 0.52663 0.24753 0.7335 0.0
C342 C 0.52341 0.27181 0.71617 0.0
C343 C 0.53518 0.31199 0.65242 0.0
C344 C 0.54902 0.32643 0.60579 0.0
C345 C 0.535 0.28542 0.66809 0.0
C346 C 0.56029 0.31265 0.57329 0.0
C347 C 0.55983 0.28624 0.58818 0.0
H348 H 0.51847 0.57987 0.09818 0.0
H349 H 0.44145 0.48957 0.10645 0.0
H350 H 0.47448 0.46837 0.1091 0.0
H351 H 0.52492 0.47528 0.10848 0.0
H352 H 0.60225 0.5653 0.0999 0.0
H353 H 0.5693 0.5868 0.09815 0.0
C354 C 0.50887 0.55555 0.10056 0.0
C355 C 0.47746 0.53636 0.10205 0.0
C356 C 0.52803 0.54346 0.10208 0.0
C357 C 0.46549 0.50489 0.10521 0.0
C358 C 0.48437 0.49273 0.10675 0.0
C359 C 0.53467 0.49964 0.10633 0.0
C360 C 0.56607 0.51864 0.1043 0.0
C361 C 0.51564 0.51178 0.10515 0.0
C362 C 0.5782 0.55014 0.10152 0.0
C363 C 0.55935 0.56244 0.10046 0.0
H364 H 0.98681 0.45452 0.44215 0.0
H365 H 0.96227 0.52359 0.43418 0.0
H366 H 1.01489 0.56288 0.43436 0.0
H367 H 0.0682 0.57809 0.43575 0.0
H368 H 0.09314 0.50936 0.44409 0.0
H369 H 0.04041 0.46987 0.44493 0.0
C370 C 0.99299 0.47816 0.44051 0.0
C371 C 0.9705 0.48595 0.43808 0.0
C372 C 0.02351 0.50089 0.4407 0.0
C373 C 0.97899 0.51678 0.43608 0.0
C374 C 1.00917 0.53939 0.43616 0.0
C375 C 0.06211 0.55449 0.43788 0.0
C376 C 0.08468 0.54682 0.43976 0.0
C377 C 0.03165 0.53176 0.43833 0.0
C378 C 0.0763 0.51604 0.44256 0.0
C379 C 0.04608 0.49334 0.44301 0.0
H380 H 0.57092 0.07047 0.78046 0.0
H381 H 0.48252 0.05988 0.78637 0.0
H382 H 0.46019 1.00491 0.79284 0.0
H383 H 0.46575 0.95993 0.79412 0.0
H384 H 0.55421 0.97069 0.78681 0.0
H385 H 0.57655 0.02569 0.78374 0.0
C386 C 0.54675 0.05622 0.78336 0.0
C387 C 0.52842 0.06937 0.78279 0.0
C388 C 0.53409 0.02467 0.78672 0.0
C389 C 0.49716 0.05043 0.78667 0.0
C390 C 0.48438 0.01898 0.79031 0.0
C391 C 0.48995 0.97426 0.79209 0.0
C392 C 0.50827 0.9611 0.79061 0.0
C393 C 0.50263 1.00586 0.78997 0.0
C394 C 0.53957 0.98012 0.78799 0.0
C395 C 0.55236 1.01159 0.78616 0.0
H396 H 0.5294 0.57802 0.58634 0.0
H397 H 0.44151 0.5066 0.63279 0.0
H398 H 0.45877 0.47022 0.6315 0.0
H399 H 0.49899 0.45841 0.61786 0.0
H400 H 0.5869 0.53 0.5718 0.0
H401 H 0.56943 0.56618 0.57209 0.0
C402 C 0.51404 0.55452 0.59624 0.0
C403 C 0.48422 0.5452 0.60968 0.0
C404 C 0.52408 0.53354 0.59539 0.0
C405 C 0.46462 0.51455 0.62228 0.0
C406 C 0.47444 0.49362 0.62154 0.0
C407 C 0.51426 0.48188 0.60766 0.0
C408 C 0.54421 0.49136 0.59491 0.0
C409 C 0.50413 0.50282 0.60816 0.0
C410 C 0.56372 0.52196 0.58195 0.0
C411 C 0.55378 0.54278 0.5821 0.0
H412 H 0.05575 0.49463 0.90245 0.0
H413 H 0.08355 0.58794 0.93336 0.0
H414 H 0.03147 0.57598 0.93102 0.0
H415 H 0.97761 0.53875 0.92199 0.0
H416 H 0.95015 0.44556 0.89039 0.0
H417 H 1.00223 0.45783 0.89098 0.0
C418 C 0.05042 0.51235 0.90863 0.0
C419 C 0.07358 0.54208 0.91823 0.0
C420 C 1.02036 0.50538 0.90707 0.0
C421 C 0.06622 0.5648 0.9259 0.0
C422 C 0.03639 0.55801 0.9246 0.0
C423 C 0.98304 0.52118 0.91494 0.0
C424 C 0.9599 0.49128 0.90633 0.0
C425 C 1.01321 0.52834 0.91541 0.0
C426 C 0.96741 0.4688 0.89726 0.0
C427 C 0.99726 0.47575 0.89764 0.0
H428 H 0.47515 0.97137 0.22901 0.0
H429 H 0.5358 0.96054 0.32901 0.0
H430 H 0.57313 1.0141 0.31908 0.0
H431 H 0.5883 0.06449 0.28341 0.0
H432 H 0.52779 0.07486 0.18213 0.0
H433 H 0.49105 0.02119 0.19071 0.0
C434 C 0.49649 0.98077 0.24876 0.0
C435 C 0.50255 0.962 0.27994 0.0
C436 C 0.51808 1.01156 0.24239 0.0
C437 C 0.53049 0.97447 0.30478 0.0
C438 C 0.55192 1.00513 0.2991 0.0
C439 C 0.56723 0.05494 0.26276 0.0
C440 C 0.56087 0.07379 0.23231 0.0
C441 C 0.54597 0.02393 0.26804 0.0
C442 C 0.53335 0.06098 0.20598 0.0
C443 C 0.51219 0.03024 0.21096 0.0
H444 H 0.44564 0.64925 0.79254 0.0
H445 H 0.40113 0.55995 0.72598 0.0
H446 H 0.3892 0.53725 0.81149 0.0
H447 H 0.3942 0.5425 0.90437 0.0
H448 H 0.43959 0.63126 0.97266 0.0
H449 H 0.44841 0.65447 0.88706 0.0
C450 C 0.43287 0.62482 0.79672 0.0
C451 C 0.42428 0.60632 0.75275 0.0
C452 C 0.42663 0.61185 0.84623 0.0
C453 C 0.40803 0.57472 0.75901 0.0
C454 C 0.40131 0.56171 0.80794 0.0
C455 C 0.40604 0.56697 0.90078 0.0
C456 C 0.41653 0.58512 0.94498 0.0
C457 C 0.41104 0.58003 0.85171 0.0
C458 C 0.43144 0.61675 0.93934 0.0
C459 C 0.43645 0.63001 0.89039 0.0
H460 H 0.86229 0.38789 0.22928 0.0
H461 H 0.86878 0.46574 0.30545 0.0
H462 H 0.868 0.4878 0.22265 0.0
H463 H 0.86862 0.48639 0.12898 0.0
H464 H 0.86237 0.40882 0.0524 0.0
H465 H 0.85973 0.38507 0.13539 0.0
C466 C 0.86336 0.4096 0.22781 0.0
C467 C 0.86593 0.42532 0.27336 0.0
C468 C 0.86309 0.42223 0.18015 0.0
C469 C 0.86694 0.45326 0.27089 0.0
C470 C 0.86657 0.46592 0.22359 0.0
C471 C 0.86663 0.46426 0.13042 0.0
C472 C 0.8661 0.44953 0.08479 0.0
C473 C 0.8652 0.45085 0.17804 0.0
C474 C 0.86297 0.42064 0.08713 0.0
C475 C 0.86152 0.4071 0.1345 0.0
H476 H 0.43401 0.82751 0.61871 0.0
H477 H 0.50357 0.92048 0.59463 0.0
H478 H 0.49521 0.91493 0.50265 0.0
H479 H 0.46826 0.88431 0.42855 0.0
H480 H 0.39718 0.79195 0.45053 0.0
H481 H 0.40636 0.7965 0.54316 0.0
C482 C 0.44711 0.84659 0.59334 0.0
C483 C 0.46938 0.87437 0.61387 0.0
C484 C 0.44225 0.84328 0.53981 0.0
C485 C 0.48631 0.89878 0.5802 0.0
C486 C 0.48164 0.89566 0.52736 0.0
C487 C 0.45503 0.86498 0.45341 0.0
C488 C 0.43227 0.83773 0.43241 0.0
C489 C 0.45984 0.86801 0.50667 0.0
C490 C 0.41502 0.81315 0.46555 0.0
C491 C 0.42012 0.8158 0.51863 0.0
H492 H 0.57806 0.43765 0.77381 0.0
H493 H 0.65347 0.42533 0.74453 0.0
H494 H 0.66714 0.43364 0.83552 0.0
H495 H 0.65814 0.44559 0.9229 0.0
H496 H 0.58131 0.45583 0.95157 0.0
H497 H 0.56745 0.4466 0.86132 0.0
C498 C 0.59762 0.43697 0.78724 0.0
C499 C 0.61502 0.43135 0.7524 0.0
C500 C 0.6049 0.44108 0.83954 0.0
C501 C 0.63987 0.42985 0.77059 0.0
C502 C 0.64763 0.43452 0.82258 0.0
C503 C 0.6382 0.44552 0.90953 0.0
C504 C 0.62092 0.45158 0.94404 0.0
C505 C 0.63033 0.44023 0.85739 0.0
C506 C 0.59506 0.45124 0.926 0.0
C507 C 0.58718 0.44613 0.87427 0.0
H508 H 0.17653 0.54381 0.12689 0.0
H509 H 0.17997 0.61999 0.04827 0.0
H510 H 0.18634 0.64557 0.13013 0.0
H511 H 0.18681 0.64434 0.22401 0.0
H512 H 0.18319 0.56809 0.3027 0.0
H513 H 0.18136 0.54455 0.22045 0.0
C514 C 0.17883 0.56608 0.12767 0.0
C515 C 0.17735 0.57984 0.08185 0.0
C516 C 0.18239 0.58056 0.17471 0.0
C517 C 0.18091 0.60891 0.08318 0.0
C518 C 0.18446 0.62349 0.12991 0.0
C519 C 0.18586 0.62268 0.22316 0.0
C520 C 0.18471 0.60776 0.26923 0.0
C521 C 0.1846 0.60923 0.17592 0.0
C522 C 0.18397 0.57995 0.26766 0.0
C523 C 0.1828 0.56643 0.22071 0.0
H524 H 0.55566 0.14053 0.59449 0.0
H525 H 0.6451 0.21832 0.60056 0.0
H526 H 0.64873 0.21795 0.50701 0.0
H527 H 0.62669 0.195 0.42361 0.0
H528 H 0.53798 0.11611 0.41861 0.0
H529 H 0.53367 0.11784 0.51174 0.0
C530 C 0.57603 0.15741 0.57551 0.0
C531 C 0.60012 0.17939 0.60469 0.0
C532 C 0.57794 0.15707 0.52183 0.0
C533 C 0.62629 0.20103 0.57921 0.0
C534 C 0.62831 0.20093 0.52565 0.0
C535 C 0.60623 0.17846 0.44283 0.0
C536 C 0.58255 0.15557 0.41417 0.0
C537 C 0.60425 0.17909 0.49657 0.0
C538 C 0.55644 0.134 0.43976 0.0
C539 C 0.55403 0.13489 0.49301 0.0
loop_
_geom_bond_atom_site_label_1
_geom_bond_atom_site_label_2
_geom_bond_distance
_geom_bond_site_symmetry_2
_ccdc_geom_bond_type
Mg0 O7 2.141 . S
Mg0 O8 2.048 . S
Mg0 O9 2.048 1_554 S
Mg0 O12 2.141 . S
C1 O2 1.313 . S
C1 O8 1.195 . S
O2 C1 1.313 . S
C3 O4 1.245 . S
C3 O12 1.289 . S
O4 C3 1.245 . S
C5 O6 1.245 . S
C5 O7 1.289 . S
O6 C5 1.245 . S
O7 Mg0 2.141 . S
O7 C5 1.289 . S
O8 Mg0 2.048 . S
O8 C1 1.195 . S
O9 Mg0 2.048 1_556 S
O9 C10 1.195 . S
C10 O9 1.195 . S
C10 O11 1.313 . S
O11 C10 1.313 . S
O12 Mg0 2.141 . S
O12 C3 1.289 . S
Mg13 O20 2.141 . S
Mg13 O21 2.048 . S
Mg13 O22 2.048 . S
Mg13 O25 2.141 . S
C14 O15 1.313 . S
C14 O21 1.195 . S
O15 C14 1.313 . S
C16 O17 1.245 . S
C16 O25 1.289 . S
O17 C16 1.245 . S
C18 O19 1.245 . S
C18 O20 1.289 . S
O19 C18 1.245 . S
O20 Mg13 2.141 . S
O20 C18 1.289 . S
O21 Mg13 2.048 . S
O21 C14 1.195 . S
O22 Mg13 2.048 . S
O22 C23 1.195 . S
C23 O22 1.195 . S
C23 O24 1.313 . S
O24 C23 1.313 . S
O25 Mg13 2.141 . S
O25 C16 1.289 . S
Mg26 O33 2.141 . S
Mg26 O34 2.048 . S
Mg26 O35 2.048 . S
Mg26 O38 2.141 . S
C27 O28 1.313 . S
C27 O34 1.195 . S
O28 C27 1.313 . S
C29 O30 1.245 . S
C29 O38 1.289 . S
O30 C29 1.245 . S
C31 O32 1.245 . S
C31 O33 1.289 . S
O32 C31 1.245 . S
O33 Mg26 2.141 . S
O33 C31 1.289 . S
O34 Mg26 2.048 . S
O34 C27 1.195 . S
O35 Mg26 2.048 . S
O35 C36 1.195 . S
C36 O35 1.195 . S
C36 O37 1.313 . S
O37 C36 1.313 . S
O38 Mg26 2.141 . S
O38 C29 1.289 . S
Mg39 O46 2.141 . S
Mg39 O47 2.048 . S
Mg39 O48 2.048 1_554 S
Mg39 O51 2.141 . S
C40 O41 1.313 . S
C40 O47 1.195 . S
O41 C40 1.313 . S
C42 O43 1.245 . S
C42 O51 1.289 . S
O43 C42 1.245 . S
C44 O45 1.245 . S
C44 O46 1.289 . S
O45 C44 1.245 . S
O46 Mg39 2.141 . S
O46 C44 1.289 . S
O47 Mg39 2.048 . S
O47 C40 1.195 . S
O48 Mg39 2.048 1_556 S
O48 C49 1.195 . S
C49 O48 1.195 . S
C49 O50 1.313 . S
O50 C49 1.313 . S
O51 Mg39 2.141 . S
O51 C42 1.289 . S
Mg52 O59 2.141 . S
Mg52 O60 2.048 . S
Mg52 O61 2.048 . S
Mg52 O64 2.141 . S
C53 O54 1.313 . S
C53 O60 1.195 . S
O54 C53 1.313 . S
C55 O56 1.245 . S
C55 O64 1.289 . S
O56 C55 1.245 . S
C57 O58 1.245 . S
C57 O59 1.289 . S
O58 C57 1.245 . S
O59 Mg52 2.141 . S
O59 C57 1.289 . S
O60 Mg52 2.048 . S
O60 C53 1.195 . S
O61 Mg52 2.048 . S
O61 C62 1.195 . S
C62 O61 1.195 . S
C62 O63 1.313 . S
O63 C62 1.313 . S
O64 Mg52 2.141 . S
O64 C55 1.289 . S
Mg65 O72 2.141 . S
Mg65 O73 2.048 . S
Mg65 O74 2.048 . S
Mg65 O77 2.141 . S
C66 O67 1.313 . S
C66 O73 1.195 . S
O67 C66 1.313 . S
C68 O69 1.245 . S
C68 O77 1.289 . S
O69 C68 1.245 . S
C70 O71 1.245 . S
C70 O72 1.289 . S
O71 C70 1.245 . S
O72 Mg65 2.141 . S
O72 C70 1.289 . S
O73 Mg65 2.048 . S
O73 C66 1.195 . S
O74 Mg65 2.048 . S
O74 C75 1.195 . S
C75 O74 1.195 . S
C75 O76 1.313 . S
O76 C75 1.313 . S
O77 Mg65 2.141 . S
O77 C68 1.289 . S
Mg78 O85 2.141 . S
Mg78 O86 2.048 . S
Mg78 O87 2.048 . S
Mg78 O90 2.141 . S
C79 O80 1.313 . S
C79 O86 1.195 . S
O80 C79 1.313 . S
C81 O82 1.245 . S
C81 O90 1.289 . S
O82 C81 1.245 . S
C83 O84 1.245 . S
C83 O85 1.289 . S
O84 C83 1.245 . S
O85 Mg78 2.141 . S
O85 C83 1.289 . S
O86 Mg78 2.048 . S
O86 C79 1.195 . S
O87 Mg78 2.048 . S
O87 C88 1.195 . S
C88 O87 1.195 . S
C88 O89 1.313 . S
O89 C88 1.313 . S
O90 Mg78 2.141 . S
O90 C81 1.289 . S
Mg91 O98 2.141 . S
Mg91 O99 2.048 . S
Mg91 O100 2.048 1_556 S
Mg91 O103 2.141 . S
C92 O93 1.313 . S
C92 O99 1.195 . S
O93 C92 1.313 . S
C94 O95 1.245 . S
C94 O103 1.289 . S
O95 C94 1.245 . S
C96 O97 1.245 . S
C96 O98 1.289 . S
O97 C96 1.245 . S
O98 Mg91 2.141 . S
O98 C96 1.289 . S
O99 Mg91 2.048 . S
O99 C92 1.195 . S
O100 Mg91 2.048 1_554 S
O100 C101 1.195 . S
C101 O100 1.195 . S
C101 O102 1.313 . S
O102 C101 1.313 . S
O103 Mg91 2.141 . S
O103 C94 1.289 . S
Mg104 O111 2.141 . S
Mg104 O112 2.048 . S
Mg104 O113 2.048 . S
Mg104 O116 2.141 . S
C105 O106 1.313 . S
C105 O112 1.195 . S
O106 C105 1.313 . S
C107 O108 1.245 . S
C107 O116 1.289 . S
O108 C107 1.245 . S
C109 O110 1.245 . S
C109 O111 1.289 . S
O110 C109 1.245 . S
O111 Mg104 2.141 . S
O111 C109 1.289 . S
O112 Mg104 2.048 . S
O112 C105 1.195 . S
O113 Mg104 2.048 . S
O113 C114 1.195 . S
C114 O113 1.195 . S
C114 O115 1.313 . S
O115 C114 1.313 . S
O116 Mg104 2.141 . S
O116 C107 1.289 . S
Mg117 O124 2.141 . S
Mg117 O125 2.048 . S
Mg117 O126 2.048 . S
Mg117 O129 2.141 . S
C118 O119 1.313 . S
C118 O125 1.195 . S
O119 C118 1.313 . S
C120 O121 1.245 . S
C120 O129 1.289 . S
O121 C120 1.245 . S
C122 O123 1.245 . S
C122 O124 1.289 . S
O123 C122 1.245 . S
O124 Mg117 2.141 . S
O124 C122 1.289 . S
O125 Mg117 2.048 . S
O125 C118 1.195 . S
O126 Mg117 2.048 . S
O126 C127 1.195 . S
C127 O126 1.195 . S
C127 O128 1.313 . S
O128 C127 1.313 . S
O129 Mg117 2.141 . S
O129 C120 1.289 . S
Mg130 O137 2.141 . S
Mg130 O138 2.048 . S
Mg130 O139 2.048 1_556 S
Mg130 O142 2.141 . S
C131 O132 1.313 . S
C131 O138 1.195 . S
O132 C131 1.313 . S
C133 O134 1.245 . S
C133 O142 1.289 . S
O134 C133 1.245 . S
C135 O136 1.245 . S
C135 O137 1.289 . S
O136 C135 1.245 . S
O137 Mg130 2.141 . S
O137 C135 1.289 . S
O138 Mg130 2.048 . S
O138 C131 1.195 . S
O139 Mg130 2.048 1_554 S
O139 C140 1.195 . S
C140 O139 1.195 . S
C140 O141 1.313 . S
O141 C140 1.313 . S
O142 Mg130 2.141 . S
O142 C133 1.289 . S
Mg143 O150 2.141 . S
Mg143 O151 2.048 . S
Mg143 O152 2.048 . S
Mg143 O155 2.141 . S
C144 O145 1.313 . S
C144 O151 1.195 . S
O145 C144 1.313 . S
C146 O147 1.245 . S
C146 O155 1.289 . S
O147 C146 1.245 . S
C148 O149 1.245 . S
C148 O150 1.289 . S
O149 C148 1.245 . S
O150 Mg143 2.141 . S
O150 C148 1.289 . S
O151 Mg143 2.048 . S
O151 C144 1.195 . S
O152 Mg143 2.048 . S
O152 C153 1.195 . S
C153 O152 1.195 . S
C153 O154 1.313 . S
O154 C153 1.313 . S
O155 Mg143 2.141 . S
O155 C146 1.289 . S
H156 C162 0.930 . S
H157 C165 0.930 . S
H158 C166 0.930 . S
H159 C167 0.930 . S
H160 C170 0.930 . S
H161 C171 0.930 . S
C162 H156 0.930 . S
C162 C163 1.355 . S
C162 C164 1.415 . S
C163 C162 1.355 . S
C163 C165 1.419 . S
C164 C162 1.415 . S
C164 C169 1.425 . S
C164 C171 1.409 . S
C165 H157 0.930 . S
C165 C163 1.419 . S
C165 C166 1.362 . S
C166 H158 0.930 . S
C166 C165 1.362 . S
C166 C169 1.409 . S
C167 H159 0.930 . S
C167 C168 1.355 . S
C167 C169 1.415 . S
C168 C167 1.355 . S
C168 C170 1.419 . S
C169 C164 1.425 . S
C169 C166 1.409 . S
C169 C167 1.415 . S
C170 H160 0.930 . S
C170 C168 1.419 . S
C170 C171 1.362 . S
C171 H161 0.930 . S
C171 C164 1.409 . S
C171 C170 1.362 . S
H172 C178 0.930 . S
H173 C181 0.930 . S
H174 C182 0.930 . S
H175 C183 0.930 . S
H176 C186 0.930 . S
H177 C187 0.930 . S
C178 H172 0.930 . S
C178 C179 1.355 . S
C178 C180 1.415 . S
C179 C178 1.355 . S
C179 C181 1.419 . S
C180 C178 1.415 . S
C180 C185 1.425 . S
C180 C187 1.409 . S
C181 H173 0.930 . S
C181 C179 1.419 . S
C181 C182 1.362 . S
C182 H174 0.930 . S
C182 C181 1.362 . S
C182 C185 1.409 . S
C183 H175 0.930 . S
C183 C184 1.355 . S
C183 C185 1.415 . S
C184 C183 1.355 . S
C184 C186 1.419 . S
C185 C180 1.425 . S
C185 C182 1.409 . S
C185 C183 1.415 . S
C186 H176 0.930 . S
C186 C184 1.419 . S
C186 C187 1.362 . S
C187 H177 0.930 . S
C187 C180 1.409 . S
C187 C186 1.362 . S
H188 C194 0.930 . S
H189 C197 0.930 . S
H190 C198 0.930 . S
H191 C199 0.930 . S
H192 C202 0.930 . S
H193 C203 0.930 . S
C194 H188 0.930 . S
C194 C195 1.355 . S
C194 C196 1.415 . S
C195 C194 1.355 . S
C195 C197 1.419 . S
C196 C194 1.415 . S
C196 C201 1.425 1_556 S
C196 C203 1.409 1_556 S
C197 H189 0.930 . S
C197 C195 1.419 . S
C197 C198 1.362 . S
C198 H190 0.930 . S
C198 C197 1.362 . S
C198 C201 1.409 1_556 S
C199 H191 0.930 . S
C199 C200 1.355 . S
C199 C201 1.415 . S
C200 C199 1.355 . S
C200 C202 1.419 . S
C201 C196 1.425 1_554 S
C201 C198 1.409 1_554 S
C201 C199 1.415 . S
C202 H192 0.930 . S
C202 C200 1.419 . S
C202 C203 1.362 . S
C203 H193 0.930 . S
C203 C196 1.409 1_554 S
C203 C202 1.362 . S
H204 C210 0.930 . S
H205 C213 0.930 . S
H206 C214 0.930 . S
H207 C215 0.930 . S
H208 C218 0.930 . S
H209 C219 0.930 . S
C210 H204 0.930 . S
C210 C211 1.355 . S
C210 C212 1.415 . S
C211 C210 1.355 . S
C211 C213 1.419 . S
C212 C210 1.415 . S
C212 C217 1.425 . S
C212 C219 1.409 . S
C213 H205 0.930 . S
C213 C211 1.419 . S
C213 C214 1.362 . S
C214 H206 0.930 . S
C214 C213 1.362 . S
C214 C217 1.409 . S
C215 H207 0.930 . S
C215 C216 1.355 . S
C215 C217 1.415 . S
C216 C215 1.355 . S
C216 C218 1.419 . S
C217 C212 1.425 . S
C217 C214 1.409 . S
C217 C215 1.415 . S
C218 H208 0.930 . S
C218 C216 1.419 . S
C218 C219 1.362 . S
C219 H209 0.930 . S
C219 C212 1.409 . S
C219 C218 1.362 . S
H220 C226 0.930 . S
H221 C229 0.930 . S
H222 C230 0.930 . S
H223 C231 0.930 . S
H224 C234 0.930 . S
H225 C235 0.930 . S
C226 H220 0.930 . S
C226 C227 1.355 . S
C226 C228 1.415 . S
C227 C226 1.355 . S
C227 C229 1.419 . S
C228 C226 1.415 . S
C228 C233 1.425 . S
C228 C235 1.409 . S
C229 H221 0.930 . S
C229 C227 1.419 . S
C229 C230 1.362 . S
C230 H222 0.930 . S
C230 C229 1.362 . S
C230 C233 1.409 . S
C231 H223 0.930 . S
C231 C232 1.355 . S
C231 C233 1.415 . S
C232 C231 1.355 . S
C232 C234 1.419 . S
C233 C228 1.425 . S
C233 C230 1.409 . S
C233 C231 1.415 . S
C234 H224 0.930 . S
C234 C232 1.419 . S
C234 C235 1.362 . S
C235 H225 0.930 . S
C235 C228 1.409 . S
C235 C234 1.362 . S
H236 C242 0.930 . S
H237 C245 0.930 . S
H238 C246 0.930 . S
H239 C247 0.930 . S
H240 C250 0.930 . S
H241 C251 0.930 . S
C242 H236 0.930 . S
C242 C243 1.355 . S
C242 C244 1.415 . S
C243 C242 1.355 . S
C243 C245 1.419 . S
C244 C242 1.415 . S
C244 C249 1.425 1_554 S
C244 C251 1.409 1_554 S
C245 H237 0.930 . S
C245 C243 1.419 . S
C245 C246 1.362 . S
C246 H238 0.930 . S
C246 C245 1.362 . S
C246 C249 1.409 1_554 S
C247 H239 0.930 . S
C247 C248 1.355 . S
C247 C249 1.415 . S
C248 C247 1.355 . S
C248 C250 1.419 . S
C249 C244 1.425 1_556 S
C249 C246 1.409 1_556 S
C249 C247 1.415 . S
C250 H240 0.930 . S
C250 C248 1.419 . S
C250 C251 1.362 . S
C251 H241 0.930 . S
C251 C244 1.409 1_556 S
C251 C250 1.362 . S
H252 C258 0.930 . S
H253 C261 0.930 . S
H254 C262 0.930 . S
H255 C263 0.930 . S
H256 C266 0.930 . S
H257 C267 0.930 . S
C258 H252 0.930 . S
C258 C259 1.355 . S
C258 C260 1.415 . S
C259 C258 1.355 . S
C259 C261 1.419 1_554 S
C260 C258 1.415 . S
C260 C265 1.425 1_554 S
C260 C267 1.409 . S
C261 H253 0.930 . S
C261 C259 1.419 1_556 S
C261 C262 1.362 . S
C262 H254 0.930 . S
C262 C261 1.362 . S
C262 C265 1.409 . S
C263 H255 0.930 . S
C263 C264 1.355 . S
C263 C265 1.415 . S
C264 C263 1.355 . S
C264 C266 1.419 1_556 S
C265 C260 1.425 1_556 S
C265 C262 1.409 . S
C265 C263 1.415 . S
C266 H256 0.930 . S
C266 C264 1.419 1_554 S
C266 C267 1.362 . S
C267 H257 0.930 . S
C267 C260 1.409 . S
C267 C266 1.362 . S
H268 C274 0.930 . S
H269 C277 0.930 . S
H270 C278 0.930 . S
H271 C279 0.930 . S
H272 C282 0.930 . S
H273 C283 0.930 . S
C274 H268 0.930 . S
C274 C275 1.355 . S
C274 C276 1.415 . S
C275 C274 1.355 . S
C275 C277 1.419 . S
C276 C274 1.415 . S
C276 C281 1.425 . S
C276 C283 1.409 . S
C277 H269 0.930 . S
C277 C275 1.419 . S
C277 C278 1.362 . S
C278 H270 0.930 . S
C278 C277 1.362 . S
C278 C281 1.409 . S
C279 H271 0.930 . S
C279 C280 1.355 . S
C279 C281 1.415 . S
C280 C279 1.355 . S
C280 C282 1.419 . S
C281 C276 1.425 . S
C281 C278 1.409 . S
C281 C279 1.415 . S
C282 H272 0.930 . S
C282 C280 1.419 . S
C282 C283 1.362 . S
C283 H273 0.930 . S
C283 C276 1.409 . S
C283 C282 1.362 . S
H284 C290 0.930 . S
H285 C293 0.930 . S
H286 C294 0.930 . S
H287 C295 0.930 . S
H288 C298 0.930 . S
H289 C299 0.930 . S
C290 H284 0.930 . S
C290 C291 1.355 . S
C290 C292 1.415 . S
C291 C290 1.355 . S
C291 C293 1.419 . S
C292 C290 1.415 . S
C292 C297 1.425 . S
C292 C299 1.409 . S
C293 H285 0.930 . S
C293 C291 1.419 . S
C293 C294 1.362 . S
C294 H286 0.930 . S
C294 C293 1.362 . S
C294 C297 1.409 . S
C295 H287 0.930 . S
C295 C296 1.355 . S
C295 C297 1.415 . S
C296 C295 1.355 . S
C296 C298 1.419 . S
C297 C292 1.425 . S
C297 C294 1.409 . S
C297 C295 1.415 . S
C298 H288 0.930 . S
C298 C296 1.419 . S
C298 C299 1.362 . S
C299 H289 0.930 . S
C299 C292 1.409 . S
C299 C298 1.362 . S
H300 C306 0.930 . S
H301 C309 0.932 . S
H302 C310 0.930 . S
H303 C311 0.930 . S
H304 C314 0.932 . S
H305 C315 0.930 . S
C306 H300 0.930 . S
C306 C307 1.355 . S
C306 C308 1.415 . S
C307 C306 1.355 . S
C307 C309 1.410 1_554 S
C308 C306 1.415 . S
C308 C313 1.425 1_554 S
C308 C315 1.409 . S
C309 H301 0.932 . S
C309 C307 1.410 1_556 S
C309 C310 1.369 . S
C310 H302 0.930 . S
C310 C309 1.369 . S
C310 C313 1.409 . S
C311 H303 0.930 . S
C311 C312 1.355 . S
C311 C313 1.415 . S
C312 C311 1.355 . S
C312 C314 1.410 1_556 S
C313 C308 1.425 1_556 S
C313 C310 1.409 . S
C313 C311 1.415 . S
C314 H304 0.932 . S
C314 C312 1.410 1_554 S
C314 C315 1.369 . S
C315 H305 0.930 . S
C315 C308 1.409 . S
C315 C314 1.369 . S
H316 C322 0.930 . S
H317 C325 0.930 . S
H318 C326 0.930 . S
H319 C327 0.930 . S
H320 C330 0.930 . S
H321 C331 0.930 . S
C322 H316 0.930 . S
C322 C323 1.355 . S
C322 C324 1.415 . S
C323 C322 1.355 . S
C323 C325 1.419 . S
C324 C322 1.415 . S
C324 C329 1.425 . S
C324 C331 1.409 . S
C325 H317 0.930 . S
C325 C323 1.419 . S
C325 C326 1.362 . S
C326 H318 0.930 . S
C326 C325 1.362 . S
C326 C329 1.409 . S
C327 H319 0.930 . S
C327 C328 1.355 . S
C327 C329 1.415 . S
C328 C327 1.355 . S
C328 C330 1.419 . S
C329 C324 1.425 . S
C329 C326 1.409 . S
C329 C327 1.415 . S
C330 H320 0.930 . S
C330 C328 1.419 . S
C330 C331 1.362 . S
C331 H321 0.930 . S
C331 C324 1.409 . S
C331 C330 1.362 . S
H332 C338 0.930 . S
H333 C341 0.930 . S
H334 C342 0.930 . S
H335 C343 0.930 . S
H336 C346 0.930 . S
H337 C347 0.930 . S
C338 H332 0.930 . S
C338 C339 1.355 . S
C338 C340 1.415 . S
C339 C338 1.355 . S
C339 C341 1.419 . S
C340 C338 1.415 . S
C340 C345 1.425 . S
C340 C347 1.409 . S
C341 H333 0.930 . S
C341 C339 1.419 . S
C341 C342 1.362 . S
C342 H334 0.930 . S
C342 C341 1.362 . S
C342 C345 1.409 . S
C343 H335 0.930 . S
C343 C344 1.355 . S
C343 C345 1.415 . S
C344 C343 1.355 . S
C344 C346 1.419 . S
C345 C340 1.425 . S
C345 C342 1.409 . S
C345 C343 1.415 . S
C346 H336 0.930 . S
C346 C344 1.419 . S
C346 C347 1.362 . S
C347 H337 0.930 . S
C347 C340 1.409 . S
C347 C346 1.362 . S
H348 C354 0.930 . S
H349 C357 0.930 . S
H350 C358 0.930 . S
H351 C359 0.930 . S
H352 C362 0.930 1_556 S
H353 C363 0.930 1_556 S
C354 H348 0.930 . S
C354 C355 1.355 . S
C354 C356 1.415 . S
C355 C354 1.355 . S
C355 C357 1.419 . S
C356 C354 1.415 . S
C356 C361 1.425 . S
C356 C363 1.409 . S
C357 H349 0.930 . S
C357 C355 1.419 . S
C357 C358 1.362 . S
C358 H350 0.930 . S
C358 C357 1.362 . S
C358 C361 1.409 . S
C359 H351 0.930 . S
C359 C360 1.355 . S
C359 C361 1.415 . S
C360 C359 1.355 . S
C360 C362 1.419 . S
C361 C356 1.425 . S
C361 C358 1.409 . S
C361 C359 1.415 . S
C362 H352 0.930 1_554 S
C362 C360 1.419 . S
C362 C363 1.362 . S
C363 H353 0.930 1_554 S
C363 C356 1.409 . S
C363 C362 1.362 . S
H364 C370 0.930 . S
H365 C373 0.930 . S
H366 C374 0.930 . S
H367 C375 0.930 . S
H368 C378 0.930 . S
H369 C379 0.930 . S
C370 H364 0.930 . S
C370 C371 1.355 . S
C370 C372 1.415 . S
C371 C370 1.355 . S
C371 C373 1.419 . S
C372 C370 1.415 . S
C372 C377 1.425 1_655 S
C372 C379 1.409 1_655 S
C373 H365 0.930 . S
C373 C371 1.419 . S
C373 C374 1.362 . S
C374 H366 0.930 . S
C374 C373 1.362 . S
C374 C377 1.409 1_655 S
C375 H367 0.930 . S
C375 C376 1.355 . S
C375 C377 1.415 . S
C376 C375 1.355 . S
C376 C378 1.419 . S
C377 C372 1.425 1_455 S
C377 C374 1.409 1_455 S
C377 C375 1.415 . S
C378 H368 0.930 . S
C378 C376 1.419 . S
C378 C379 1.362 . S
C379 H369 0.930 . S
C379 C372 1.409 1_455 S
C379 C378 1.362 . S
H380 C386 0.930 . S
H381 C389 0.930 . S
H382 C390 0.930 . S
H383 C391 0.930 . S
H384 C394 0.930 . S
H385 C395 0.930 . S
C386 H380 0.930 . S
C386 C387 1.355 . S
C386 C388 1.415 . S
C387 C386 1.355 . S
C387 C389 1.419 . S
C388 C386 1.415 . S
C388 C393 1.425 1_545 S
C388 C395 1.409 1_545 S
C389 H381 0.930 . S
C389 C387 1.419 . S
C389 C390 1.362 . S
C390 H382 0.930 . S
C390 C389 1.362 . S
C390 C393 1.409 1_545 S
C391 H383 0.930 . S
C391 C392 1.355 . S
C391 C393 1.415 . S
C392 C391 1.355 . S
C392 C394 1.419 . S
C393 C388 1.425 1_565 S
C393 C390 1.409 1_565 S
C393 C391 1.415 . S
C394 H384 0.930 . S
C394 C392 1.419 . S
C394 C395 1.362 . S
C395 H385 0.930 . S
C395 C388 1.409 1_565 S
C395 C394 1.362 . S
H396 C402 0.930 . S
H397 C405 0.930 . S
H398 C406 0.930 . S
H399 C407 0.930 . S
H400 C410 0.930 . S
H401 C411 0.930 . S
C402 H396 0.930 . S
C402 C403 1.355 . S
C402 C404 1.415 . S
C403 C402 1.355 . S
C403 C405 1.419 . S
C404 C402 1.415 . S
C404 C409 1.425 . S
C404 C411 1.409 . S
C405 H397 0.930 . S
C405 C403 1.419 . S
C405 C406 1.362 . S
C406 H398 0.930 . S
C406 C405 1.362 . S
C406 C409 1.409 . S
C407 H399 0.930 . S
C407 C408 1.355 . S
C407 C409 1.415 . S
C408 C407 1.355 . S
C408 C410 1.419 . S
C409 C404 1.425 . S
C409 C406 1.409 . S
C409 C407 1.415 . S
C410 H400 0.930 . S
C410 C408 1.419 . S
C410 C411 1.362 . S
C411 H401 0.930 . S
C411 C404 1.409 . S
C411 C410 1.362 . S
H412 C418 0.930 . S
H413 C421 0.930 . S
H414 C422 0.930 . S
H415 C423 0.930 . S
H416 C426 0.930 . S
H417 C427 0.930 . S
C418 H412 0.930 . S
C418 C419 1.355 . S
C418 C420 1.415 . S
C419 C418 1.355 . S
C419 C421 1.419 . S
C420 C418 1.415 . S
C420 C425 1.425 1_455 S
C420 C427 1.409 1_455 S
C421 H413 0.930 . S
C421 C419 1.419 . S
C421 C422 1.362 . S
C422 H414 0.930 . S
C422 C421 1.362 . S
C422 C425 1.409 1_455 S
C423 H415 0.930 . S
C423 C424 1.355 . S
C423 C425 1.415 . S
C424 C423 1.355 . S
C424 C426 1.419 . S
C425 C420 1.425 1_655 S
C425 C422 1.409 1_655 S
C425 C423 1.415 . S
C426 H416 0.930 . S
C426 C424 1.419 . S
C426 C427 1.362 . S
C427 H417 0.930 . S
C427 C420 1.409 1_655 S
C427 C426 1.362 . S
H428 C434 0.930 . S
H429 C437 0.930 . S
H430 C438 0.930 . S
H431 C439 0.930 . S
H432 C442 0.930 . S
H433 C443 0.930 . S
C434 H428 0.930 . S
C434 C435 1.355 . S
C434 C436 1.415 . S
C435 C434 1.355 . S
C435 C437 1.419 . S
C436 C434 1.415 . S
C436 C441 1.425 1_565 S
C436 C443 1.409 1_565 S
C437 H429 0.930 . S
C437 C435 1.419 . S
C437 C438 1.362 . S
C438 H430 0.930 . S
C438 C437 1.362 . S
C438 C441 1.409 1_565 S
C439 H431 0.930 . S
C439 C440 1.355 . S
C439 C441 1.415 . S
C440 C439 1.355 . S
C440 C442 1.419 . S
C441 C436 1.425 1_545 S
C441 C438 1.409 1_545 S
C441 C439 1.415 . S
C442 H432 0.930 . S
C442 C440 1.419 . S
C442 C443 1.362 . S
C443 H433 0.930 . S
C443 C436 1.409 1_545 S
C443 C442 1.362 . S
H444 C450 0.930 . S
H445 C453 0.930 . S
H446 C454 0.930 . S
H447 C455 0.930 . S
H448 C458 0.930 . S
H449 C459 0.930 . S
C450 H444 0.930 . S
C450 C451 1.355 . S
C450 C452 1.415 . S
C451 C450 1.355 . S
C451 C453 1.419 . S
C452 C450 1.415 . S
C452 C457 1.425 . S
C452 C459 1.409 . S
C453 H445 0.930 . S
C453 C451 1.419 . S
C453 C454 1.362 . S
C454 H446 0.930 . S
C454 C453 1.362 . S
C454 C457 1.409 . S
C455 H447 0.930 . S
C455 C456 1.355 . S
C455 C457 1.415 . S
C456 C455 1.355 . S
C456 C458 1.419 . S
C457 C452 1.425 . S
C457 C454 1.409 . S
C457 C455 1.415 . S
C458 H448 0.930 . S
C458 C456 1.419 . S
C458 C459 1.362 . S
C459 H449 0.930 . S
C459 C452 1.409 . S
C459 C458 1.362 . S
H460 C466 0.930 . S
H461 C469 0.930 . S
H462 C470 0.930 . S
H463 C471 0.930 . S
H464 C474 0.930 . S
H465 C475 0.930 . S
C466 H460 0.930 . S
C466 C467 1.355 . S
C466 C468 1.415 . S
C467 C466 1.355 . S
C467 C469 1.419 . S
C468 C466 1.415 . S
C468 C473 1.425 . S
C468 C475 1.409 . S
C469 H461 0.930 . S
C469 C467 1.419 . S
C469 C470 1.362 . S
C470 H462 0.930 . S
C470 C469 1.362 . S
C470 C473 1.409 . S
C471 H463 0.930 . S
C471 C472 1.355 . S
C471 C473 1.415 . S
C472 C471 1.355 . S
C472 C474 1.419 . S
C473 C468 1.425 . S
C473 C470 1.409 . S
C473 C471 1.415 . S
C474 H464 0.930 . S
C474 C472 1.419 . S
C474 C475 1.362 . S
C475 H465 0.930 . S
C475 C468 1.409 . S
C475 C474 1.362 . S
H476 C482 0.930 . S
H477 C485 0.930 . S
H478 C486 0.930 . S
H479 C487 0.930 . S
H480 C490 0.930 . S
H481 C491 0.930 . S
C482 H476 0.930 . S
C482 C483 1.355 . S
C482 C484 1.415 . S
C483 C482 1.355 . S
C483 C485 1.419 . S
C484 C482 1.415 . S
C484 C489 1.425 . S
C484 C491 1.409 . S
C485 H477 0.930 . S
C485 C483 1.419 . S
C485 C486 1.362 . S
C486 H478 0.930 . S
C486 C485 1.362 . S
C486 C489 1.409 . S
C487 H479 0.930 . S
C487 C488 1.355 . S
C487 C489 1.415 . S
C488 C487 1.355 . S
C488 C490 1.419 . S
C489 C484 1.425 . S
C489 C486 1.409 . S
C489 C487 1.415 . S
C490 H480 0.930 . S
C490 C488 1.419 . S
C490 C491 1.362 . S
C491 H481 0.930 . S
C491 C484 1.409 . S
C491 C490 1.362 . S
H492 C498 0.930 . S
H493 C501 0.930 . S
H494 C502 0.930 . S
H495 C503 0.930 . S
H496 C506 0.930 . S
H497 C507 0.930 . S
C498 H492 0.930 . S
C498 C499 1.355 . S
C498 C500 1.415 . S
C499 C498 1.355 . S
C499 C501 1.419 . S
C500 C498 1.415 . S
C500 C505 1.425 . S
C500 C507 1.409 . S
C501 H493 0.930 . S
C501 C499 1.419 . S
C501 C502 1.362 . S
C502 H494 0.930 . S
C502 C501 1.362 . S
C502 C505 1.409 . S
C503 H495 0.930 . S
C503 C504 1.355 . S
C503 C505 1.415 . S
C504 C503 1.355 . S
C504 C506 1.419 . S
C505 C500 1.425 . S
C505 C502 1.409 . S
C505 C503 1.415 . S
C506 H496 0.930 . S
C506 C504 1.419 . S
C506 C507 1.362 . S
C507 H497 0.930 . S
C507 C500 1.409 . S
C507 C506 1.362 . S
H508 C514 0.930 . S
H509 C517 0.930 . S
H510 C518 0.930 . S
H511 C519 0.930 . S
H512 C522 0.930 . S
H513 C523 0.930 . S
C514 H508 0.930 . S
C514 C515 1.355 . S
C514 C516 1.415 . S
C515 C514 1.355 . S
C515 C517 1.419 . S
C516 C514 1.415 . S
C516 C521 1.425 . S
C516 C523 1.409 . S
C517 H509 0.930 . S
C517 C515 1.419 . S
C517 C518 1.362 . S
C518 H510 0.930 . S
C518 C517 1.362 . S
C518 C521 1.409 . S
C519 H511 0.930 . S
C519 C520 1.355 . S
C519 C521 1.415 . S
C520 C519 1.355 . S
C520 C522 1.419 . S
C521 C516 1.425 . S
C521 C518 1.409 . S
C521 C519 1.415 . S
C522 H512 0.930 . S
C522 C520 1.419 . S
C522 C523 1.362 . S
C523 H513 0.930 . S
C523 C516 1.409 . S
C523 C522 1.362 . S
H524 C530 0.930 . S
H525 C533 0.930 . S
H526 C534 0.930 . S
H527 C535 0.930 . S
H528 C538 0.930 . S
H529 C539 0.930 . S
C530 H524 0.930 . S
C530 C531 1.355 . S
C530 C532 1.415 . S
C531 C530 1.355 . S
C531 C533 1.419 . S
C532 C530 1.415 . S
C532 C537 1.425 . S
C532 C539 1.409 . S
C533 H525 0.930 . S
C533 C531 1.419 . S
C533 C534 1.362 . S
C534 H526 0.930 . S
C534 C533 1.362 . S
C534 C537 1.409 . S
C535 H527 0.930 . S
C535 C536 1.355 . S
C535 C537 1.415 . S
C536 C535 1.355 . S
C536 C538 1.419 . S
C537 C532 1.425 . S
C537 C534 1.409 . S
C537 C535 1.415 . S
C538 H528 0.930 . S
C538 C536 1.419 . S
C538 C539 1.362 . S
C539 H529 0.930 . S
C539 C532 1.409 . S
C539 C538 1.362 . S
C163 C5 1.706 . S
C168 C83 1.712 . S
C179 C18 1.745 . S
C184 C96 1.748 . S
C195 C31 1.713 . S
C200 C109 1.721 . S
C211 C44 1.739 . S
C216 C122 1.732 . S
C227 C57 1.744 . S
C232 C135 1.748 . S
C243 C148 1.741 . S
C248 C70 1.746 . S
C259 C3 1.771 . S
C264 C133 1.770 . S
C275 C16 1.790 . S
C280 C146 1.788 . S
C291 C29 1.800 . S
C296 C81 1.801 . S
C307 C42 1.781 . S
C312 C94 1.779 . S
C323 C55 1.789 . S
C328 C107 1.791 . S
C339 C68 1.802 . S
C344 C120 1.803 . S
C355 C1 1.781 . S
C360 C40 1.767 . S
C371 C14 1.795 . S
C376 C53 1.792 . S
C387 C66 1.764 . S
C392 C27 1.767 . S
C403 C79 1.792 . S
C408 C118 1.795 . S
C419 C131 1.795 . S
C424 C92 1.793 . S
C435 C105 1.792 . S
C440 C144 1.795 . S
C451 C88 0.999 . S
C456 C10 0.992 . S
C467 C23 1.005 . S
C472 C101 1.004 . S
C483 C36 0.976 . S
C488 C114 0.966 . S
C499 C127 0.951 . S
C504 C49 0.960 . S
C515 C140 0.985 . S
C520 C62 0.993 . S
C531 C75 0.942 . S
C536 C153 0.949 . S
