# Generated by pormake.
# Topology ukh, (4)-cn, num edge types: 1
# Building blocks:
#     Node 0, Type 0, BuildingBlock: QUQFOY_clean_sbu_3, # of connection points: 4
#     Node 1, Type 0, BuildingBlock: QUQFOY_clean_sbu_3, # of connection points: 4
#     Node 2, Type 0, BuildingBlock: QUQFOY_clean_sbu_3, # of connection points: 4
#     Node 3, Type 0, BuildingBlock: QUQFOY_clean_sbu_3, # of connection points: 4
#     Node 4, Type 0, BuildingBlock: QUQFOY_clean_sbu_3, # of connection points: 4
#     Node 5, Type 0, BuildingBlock: QUQFOY_clean_sbu_3, # of connection points: 4
#     Node 6, Type 0, BuildingBlock: QUQFOY_clean_sbu_3, # of connection points: 4
#     Node 7, Type 0, BuildingBlock: QUQFOY_clean_sbu_3, # of connection points: 4
#     Node 8, Type 0, BuildingBlock: QUQFOY_clean_sbu_3, # of connection points: 4
#     Node 9, Type 0, BuildingBlock: QUQFOY_clean_sbu_3, # of connection points: 4
#     Node 10, Type 0, BuildingBlock: QUQFOY_clean_sbu_3, # of connection points: 4
#     Node 11, Type 0, BuildingBlock: QUQFOY_clean_sbu_3, # of connection points: 4
#     Edge 12, Type (0, 0), BuildingBlock: CIFDUS_clean_linker_0, # of connection points: 2
#     Edge 13, Type (0, 0), BuildingBlock: CIFDUS_clean_linker_0, # of connection points: 2
#     Edge 14, Type (0, 0), BuildingBlock: CIFDUS_clean_linker_0, # of connection points: 2
#     Edge 15, Type (0, 0), BuildingBlock: CIFDUS_clean_linker_0, # of connection points: 2
#     Edge 16, Type (0, 0), BuildingBlock: CIFDUS_clean_linker_0, # of connection points: 2
#     Edge 17, Type (0, 0), BuildingBlock: CIFDUS_clean_linker_0, # of connection points: 2
#     Edge 18, Type (0, 0), BuildingBlock: CIFDUS_clean_linker_0, # of connection points: 2
#     Edge 19, Type (0, 0), BuildingBlock: CIFDUS_clean_linker_0, # of connection points: 2
#     Edge 20, Type (0, 0), BuildingBlock: CIFDUS_clean_linker_0, # of connection points: 2
#     Edge 21, Type (0, 0), BuildingBlock: CIFDUS_clean_linker_0, # of connection points: 2
#     Edge 22, Type (0, 0), BuildingBlock: CIFDUS_clean_linker_0, # of connection points: 2
#     Edge 23, Type (0, 0), BuildingBlock: CIFDUS_clean_linker_0, # of connection points: 2
#     Edge 24, Type (0, 0), BuildingBlock: CIFDUS_clean_linker_0, # of connection points: 2
#     Edge 25, Type (0, 0), BuildingBlock: CIFDUS_clean_linker_0, # of connection points: 2
#     Edge 26, Type (0, 0), BuildingBlock: CIFDUS_clean_linker_0, # of connection points: 2
#     Edge 27, Type (0, 0), BuildingBlock: CIFDUS_clean_linker_0, # of connection points: 2
#     Edge 28, Type (0, 0), BuildingBlock: CIFDUS_clean_linker_0, # of connection points: 2
#     Edge 29, Type (0, 0), BuildingBlock: CIFDUS_clean_linker_0, # of connection points: 2
#     Edge 30, Type (0, 0), BuildingBlock: CIFDUS_clean_linker_0, # of connection points: 2
#     Edge 31, Type (0, 0), BuildingBlock: CIFDUS_clean_linker_0, # of connection points: 2
#     Edge 32, Type (0, 0), BuildingBlock: CIFDUS_clean_linker_0, # of connection points: 2
#     Edge 33, Type (0, 0), BuildingBlock: CIFDUS_clean_linker_0, # of connection points: 2
#     Edge 34, Type (0, 0), BuildingBlock: CIFDUS_clean_linker_0, # of connection points: 2
#     Edge 35, Type (0, 0), BuildingBlock: CIFDUS_clean_linker_0, # of connection points: 2
# Relax obj value: 0.081
# Max RMSD: 0.104
# Mean RMSD: 0.098
data_MOF--net-ukh--node1-QUQFOY_clean_sbu_3--edge1-CIFDUS_clean_linker_0
_symmetry_space_group_name_H-M    P1
_symmetry_Int_Tables_number       1
_symmetry_cell_setting            triclinic
loop_
_symmetry_equiv_pos_as_xyz
'x, y, z'
_cell_length_a     28.298405
_cell_length_b     28.869136
_cell_length_c     57.467801
_cell_angle_alpha  89.863567
_cell_angle_beta   89.89873
_cell_angle_gamma 119.3992
loop_
_atom_site_label
_atom_site_type_symbol
_atom_site_fract_x
_atom_site_fract_y
_atom_site_fract_z
_atom_type_partial_charge
C0 C 0.17289 0.14367 0.03623 0.0
O1 O 0.15488 0.1149 0.05436 0.0
Cd2 Cd 0.21514 0.10816 0.08171 0.0
O3 O 0.22344 0.17542 0.0334 0.0
Cd4 Cd 0.31237 0.2117 0.05296 0.0
C5 C 0.29615 0.09047 0.04067 0.0
O6 O 0.27541 0.19779 0.09138 0.0
O7 O 0.35946 0.21841 0.09012 0.0
O8 O 0.32122 0.29662 0.04208 0.0
C9 C 0.31771 0.20675 0.10236 0.0
O10 O 0.26027 0.07271 0.05672 0.0
C11 C 0.36973 0.31707 0.03474 0.0
O12 O 0.32106 0.13972 0.03533 0.0
O13 O 0.39205 0.28811 0.03566 0.0
C14 C 0.18976 0.35922 0.32672 0.0
O15 O 0.1688 0.37399 0.3109 0.0
Cd16 Cd 0.08551 0.37437 0.31931 0.0
O17 O 0.16692 0.34491 0.34649 0.0
Cd18 Cd 0.08869 0.33591 0.36811 0.0
C19 C -0.00366 0.24488 0.33206 0.0
O20 O 0.09384 0.41933 0.35613 0.0
O21 O 0.02112 0.36291 0.37451 0.0
O22 O 0.14437 0.36791 0.40275 0.0
C23 C 0.05016 0.40946 0.36646 0.0
O24 O 0.01033 0.28235 0.3173 0.0
C25 C 0.11735 0.32556 0.41447 0.0
O26 O 0.02047 0.25331 0.35149 0.0
O27 O 0.07626 0.28801 0.40469 0.0
C28 C 0.82218 0.21217 0.65926 0.0
O29 O 0.78635 0.18563 0.64417 0.0
Cd30 Cd 0.71119 0.09956 0.6544 0.0
O31 O 0.81918 0.19353 0.67957 0.0
Cd32 Cd 0.76371 0.11813 0.70446 0.0
C33 C 0.77334 0.02791 0.67011 0.0
O34 O 0.67529 0.10376 0.69198 0.0
O35 O 0.67763 0.04774 0.71672 0.0
O36 O 0.77787 0.17825 0.73635 0.0
C37 C 0.65007 0.06336 0.70511 0.0
O38 O 0.74546 0.03691 0.65526 0.0
C39 C 0.80256 0.16127 0.74918 0.0
O40 O 0.78751 0.05324 0.68924 0.0
O41 O 0.81001 0.12449 0.741 0.0
C42 C 0.76521 0.81202 0.01738 0.0
O43 O 0.77278 0.84836 0.03178 0.0
Cd44 Cd 0.70421 0.84733 0.05652 0.0
O45 O 0.7185 0.77118 0.01489 0.0
Cd46 Cd 0.62441 0.73457 0.02996 0.0
C47 C 0.62508 0.84662 0.01099 0.0
O48 O 0.65489 0.75787 0.06902 0.0
O49 O 0.56959 0.72929 0.06481 0.0
O50 O 0.62016 0.64896 0.02521 0.0
C51 C 0.60984 0.74548 0.07839 0.0
O52 O 0.65325 0.86933 0.02895 0.0
C53 C 0.57158 0.62475 0.01798 0.0
O54 O 0.61152 0.79851 0.0063 0.0
O55 O 0.54819 0.65237 0.01522 0.0
C56 C 0.80786 0.67213 0.35656 0.0
O57 O 0.8263 0.65358 0.34124 0.0
Cd58 Cd 0.90339 0.64352 0.34892 0.0
O59 O 0.82882 0.68353 0.37678 0.0
Cd60 Cd 0.89885 0.67883 0.40064 0.0
C61 C -0.00463 0.77145 0.36639 0.0
O62 O 0.88313 0.59456 0.38484 0.0
O63 O 0.95654 0.63836 0.4047 0.0
O64 O 0.82959 0.65658 0.43038 0.0
C65 C 0.92442 0.5961 0.39409 0.0
O66 O 0.97951 0.73511 0.35103 0.0
C67 C 0.86269 0.67934 0.44685 0.0
O68 O 0.97178 0.76257 0.38607 0.0
O69 O 0.91289 0.70192 0.44194 0.0
C70 C 0.14637 0.80249 0.66673 0.0
O71 O 0.1796 0.82469 0.65007 0.0
Cd72 Cd 0.26162 0.90719 0.65683 0.0
O73 O 0.15602 0.82362 0.68679 0.0
Cd74 Cd 0.21941 0.89625 0.71127 0.0
C75 C 0.211 0.9878 0.67722 0.0
O76 O 0.29442 0.89242 0.69287 0.0
O77 O 0.31452 0.9501 0.72033 0.0
O78 O 0.17103 0.82259 0.73823 0.0
C79 C 0.33045 0.92955 0.70494 0.0
O80 O 0.23331 0.97436 0.66131 0.0
C81 C 0.1802 0.85158 0.75602 0.0
O82 O 0.19982 0.9649 0.69704 0.0
O83 O 0.2071 0.90158 0.75312 0.0
C84 C 0.83582 0.63304 0.66851 0.0
O85 O 0.80164 0.61661 0.68505 0.0
Cd86 Cd 0.71862 0.61846 0.67848 0.0
O87 O 0.82482 0.64795 0.64946 0.0
Cd88 Cd 0.75537 0.65627 0.62825 0.0
C89 C 0.7656 0.75021 0.6652 0.0
O90 O 0.67846 0.5734 0.64213 0.0
O91 O 0.66076 0.62982 0.62483 0.0
O92 O 0.79443 0.63035 0.59658 0.0
C93 C 0.64361 0.58375 0.63329 0.0
O94 O 0.74164 0.71266 0.67994 0.0
C95 C 0.79101 0.66075 0.58154 0.0
O96 O 0.77831 0.74106 0.64519 0.0
O97 O 0.76998 0.68862 0.58802 0.0
C98 C -0.00516 0.79389 0.94434 0.0
O99 O 0.02177 0.83376 0.93116 0.0
Cd100 Cd 0.10036 0.84542 0.91035 0.0
O101 O 0.00913 0.75874 0.9471 0.0
Cd102 Cd 0.07985 0.73766 0.93442 0.0
C103 C 0.17612 0.85152 0.95818 0.0
O104 O 0.07738 0.76064 0.89432 0.0
O105 O 0.14634 0.75173 0.9035 0.0
O106 O 0.00402 0.6483 0.93568 0.0
C107 C 0.11909 0.75877 0.88777 0.0
O108 O 0.17022 0.87431 0.94028 0.0
C109 C 0.02915 0.62718 0.94527 0.0
O110 O 0.14548 0.80186 0.96156 0.0
O111 O 0.07896 0.65768 0.94993 0.0
C112 C 0.36524 0.22145 0.32271 0.0
O113 O 0.38265 0.20374 0.33882 0.0
Cd114 Cd 0.38438 0.12205 0.33231 0.0
O115 O 0.35137 0.19752 0.30333 0.0
Cd116 Cd 0.34793 0.1222 0.28301 0.0
C117 C 0.25243 0.03348 0.31872 0.0
O118 O 0.42967 0.12185 0.29651 0.0
O119 O 0.36612 0.04967 0.28093 0.0
O120 O 0.39287 0.17446 0.2486 0.0
C121 C 0.41453 0.07595 0.28814 0.0
O122 O 0.29057 0.04886 0.33355 0.0
C123 C 0.352 0.15135 0.2354 0.0
O124 O 0.26089 0.05568 0.29883 0.0
O125 O 0.30877 0.11435 0.24435 0.0
C126 C 0.12036 0.35446 0.62396 0.0
O127 O 0.14661 0.36762 0.64292 0.0
Cd128 Cd 0.23184 0.36932 0.64695 0.0
O129 O 0.13985 0.34358 0.60621 0.0
Cd130 Cd 0.22221 0.34243 0.5943 0.0
C131 C 0.2016 0.24314 0.63119 0.0
O132 O 0.28916 0.41999 0.61507 0.0
O133 O 0.31626 0.36748 0.60085 0.0
O134 O 0.22894 0.38929 0.55837 0.0
C135 C 0.32793 0.4111 0.61067 0.0
O136 O 0.21485 0.27718 0.64745 0.0
C137 C 0.217 0.34991 0.5452 0.0
O138 O 0.19821 0.25578 0.61028 0.0
O139 O 0.20876 0.30693 0.55483 0.0
C140 C 0.95014 0.14248 0.95214 0.0
O141 O 0.94022 0.11421 0.93399 0.0
Cd142 Cd 0.88078 0.11245 0.90388 0.0
O143 O 0.93326 0.17583 0.95428 0.0
Cd144 Cd 0.8856 0.2134 0.93173 0.0
C145 C 0.77234 0.09451 0.93867 0.0
O146 O 0.91673 0.20327 0.89405 0.0
O147 O 0.85339 0.22403 0.89346 0.0
O148 O 0.95992 0.2985 0.94373 0.0
C149 C 0.88623 0.2146 0.88215 0.0
O150 O 0.7929 0.07728 0.92354 0.0
C151 C 0.93056 0.31907 0.94876 0.0
O152 O 0.79834 0.14247 0.9457 0.0
O153 O 0.87952 0.28951 0.94677 0.0
C154 C 0.64177 0.79497 0.30002 0.0
O155 O 0.62306 0.81393 0.31504 0.0
Cd156 Cd 0.60918 0.88784 0.30733 0.0
O157 O 0.65205 0.81352 0.27939 0.0
Cd158 Cd 0.64595 0.88088 0.25538 0.0
C159 C 0.73775 0.97999 0.28877 0.0
O160 O 0.56301 0.87346 0.27097 0.0
O161 O 0.61416 0.94431 0.25093 0.0
O162 O 0.6071 0.8237 0.22166 0.0
C163 C 0.57002 0.91637 0.2618 0.0
O164 O 0.70079 0.96445 0.30429 0.0
C165 C 0.64807 0.85027 0.20866 0.0
O166 O 0.72955 0.95527 0.26959 0.0
O167 O 0.68787 0.891 0.21747 0.0
H168 H 0.46292 0.56044 0.01399 0.0
H169 H 0.61383 0.55772 0.01749 0.0
H170 H 0.56421 0.46082 0.02052 0.0
H171 H 0.47811 0.378 0.02663 0.0
H172 H 0.32763 0.38196 0.02537 0.0
H173 H 0.37685 0.47701 0.01688 0.0
C174 C 0.48496 0.53859 0.01496 0.0
C175 C 0.54193 0.56623 0.01568 0.0
C176 C 0.45621 0.48306 0.0174 0.0
C177 C 0.56992 0.53736 0.01704 0.0
C178 C 0.54158 0.48195 0.01886 0.0
C179 C 0.45607 0.39955 0.02416 0.0
C180 C 0.39938 0.37307 0.02687 0.0
C181 C 0.48474 0.45453 0.01977 0.0
C182 C 0.37136 0.40151 0.02361 0.0
C183 C 0.39945 0.4559 0.01875 0.0
H184 H 0.94951 0.39528 0.37361 0.0
H185 H 0.11754 0.51638 0.36783 0.0
H186 H 0.09353 0.58497 0.37693 0.0
H187 H 0.02485 0.6101 0.38714 0.0
H188 H 0.85607 0.4901 0.38973 0.0
H189 H 0.88015 0.42107 0.38139 0.0
C190 C 0.98076 0.43674 0.37429 0.0
C191 C 0.03516 0.45093 0.37023 0.0
C192 C 0.96654 0.47589 0.37909 0.0
C193 C 0.07533 0.5047 0.37083 0.0
C194 C 0.06169 0.54382 0.37614 0.0
C195 C -0.00651 0.56875 0.386 0.0
C196 C 0.93895 0.55474 0.38933 0.0
C197 C 0.00749 0.52979 0.38046 0.0
C198 C 0.89837 0.50142 0.38731 0.0
C199 C 0.9121 0.46211 0.38254 0.0
H200 H 0.408 0.96333 0.73731 0.0
H201 H 0.38136 0.94121 0.66339 0.0
H202 H 0.47947 0.98329 0.65662 0.0
H203 H 0.57294 0.02864 0.67204 0.0
H204 H 0.59779 0.0421 0.74623 0.0
H205 H 0.49998 0.00129 0.7528 0.0
C206 C 0.42388 0.96755 0.71976 0.0
C207 C 0.3883 0.9499 0.70084 0.0
C208 C 0.47971 0.99045 0.71613 0.0
C209 C 0.40857 0.95459 0.67816 0.0
C210 C 0.46444 0.97882 0.6743 0.0
C211 C 0.55655 0.02256 0.68956 0.0
C212 C 0.59165 0.03862 0.70866 0.0
C213 C 0.50038 -0.00263 0.69317 0.0
C214 C 0.57084 0.02996 0.73137 0.0
C215 C 0.5152 0.00672 0.7351 0.0
H216 H 0.55986 0.60288 0.63022 0.0
H217 H 0.5984 0.47584 0.63383 0.0
H218 H 0.50289 0.41036 0.62764 0.0
H219 H 0.40973 0.39026 0.61879 0.0
H220 H 0.37105 0.51738 0.61702 0.0
H221 H 0.46569 0.58219 0.62499 0.0
C222 C 0.5472 0.5608 0.6298 0.0
C223 C 0.58582 0.544 0.63216 0.0
C224 C 0.49251 0.52367 0.62645 0.0
C225 C 0.56912 0.48949 0.632 0.0
C226 C 0.5147 0.45218 0.62836 0.0
C227 C 0.42213 0.43216 0.62024 0.0
C228 C 0.38399 0.44935 0.61704 0.0
C229 C 0.47627 0.46895 0.62515 0.0
C230 C 0.39998 0.50345 0.61936 0.0
C231 C 0.45398 0.54044 0.62386 0.0
H232 H 0.88097 0.37897 0.94899 0.0
H233 H 0.03605 0.38777 0.95971 0.0
H234 H 0.07995 0.4846 0.96196 0.0
H235 H 0.07561 0.56701 0.95662 0.0
H236 H 0.92093 0.55754 0.94362 0.0
H237 H 0.87561 0.46091 0.94666 0.0
C238 C 0.9242 0.402 0.95226 0.0
C239 C 0.95525 0.37631 0.95402 0.0
C240 C 0.9494 0.45766 0.95284 0.0
C241 C 0.01128 0.4067 0.95816 0.0
C242 C 0.03646 0.46207 0.95937 0.0
C243 C 0.03192 0.54379 0.95476 0.0
C244 C 0.00178 0.56933 0.94966 0.0
C245 C 0.00616 0.48806 0.95604 0.0
C246 C 0.94516 0.53877 0.94731 0.0
C247 C 0.91915 0.48349 0.94906 0.0
H248 H 0.38712 0.97279 0.28461 0.0
H249 H 0.52494 0.13116 0.2858 0.0
H250 H 0.58555 0.09538 0.27717 0.0
H251 H 0.59838 0.01934 0.26774 0.0
H252 H 0.46121 0.86063 0.2689 0.0
H253 H 0.40072 0.89632 0.27804 0.0
C254 C 0.43049 -0.00061 0.28312 0.0
C255 C 0.45171 0.05444 0.28561 0.0
C256 C 0.46484 0.97856 0.27837 0.0
C257 C 0.50789 0.08858 0.28398 0.0
C258 C 0.54241 0.0682 0.27891 0.0
C259 C 0.55518 0.9927 0.2699 0.0
C260 C 0.5338 0.93767 0.26732 0.0
C261 C 0.52117 0.01336 0.27574 0.0
C262 C 0.47817 0.90322 0.27069 0.0
C263 C 0.44375 0.92356 0.27592 0.0
H264 H 0.26799 0.1298 0.20665 0.0
H265 H 0.44275 0.20833 0.20908 0.0
H266 H 0.44785 0.23318 0.1681 0.0
H267 H 0.40243 0.23123 0.13137 0.0
H268 H 0.22769 0.15564 0.12958 0.0
H269 H 0.22284 0.13135 0.17053 0.0
C270 C 0.30715 0.15228 0.19818 0.0
C271 C 0.35486 0.16689 0.21076 0.0
C272 C 0.30981 0.1671 0.17475 0.0
C273 C 0.40541 0.19661 0.1997 0.0
C274 C 0.40838 0.21079 0.17628 0.0
C275 C 0.36336 0.2096 0.13999 0.0
C276 C 0.31555 0.19503 0.12746 0.0
C277 C 0.36082 0.19609 0.16362 0.0
C278 C 0.26515 0.16739 0.13886 0.0
C279 C 0.26228 0.15331 0.16226 0.0
H280 H 0.18971 0.40438 0.44192 0.0
H281 H 0.08002 0.23513 0.44055 0.0
H282 H 0.10514 0.22707 0.48042 0.0
H283 H 0.15525 0.26885 0.51621 0.0
H284 H 0.26018 0.43885 0.51823 0.0
H285 H 0.24049 0.44589 0.4774 0.0
C286 C 0.1715 0.36569 0.45031 0.0
C287 C 0.13303 0.32045 0.43838 0.0
C288 C 0.18541 0.36151 0.4733 0.0
C289 C 0.10954 0.27061 0.44947 0.0
C290 C 0.12397 0.26594 0.47222 0.0
C291 C 0.17433 0.30729 0.50758 0.0
C292 C 0.20921 0.35324 0.52008 0.0
C293 C 0.16151 0.3112 0.48436 0.0
C294 C 0.23313 0.40295 0.50888 0.0
C295 C 0.22181 0.40701 0.4856 0.0
H296 H 0.86945 0.14504 0.77759 0.0
H297 H 0.77238 0.22257 0.77416 0.0
H298 H 0.79244 0.24883 0.81485 0.0
H299 H 0.83233 0.24432 0.85207 0.0
H300 H 0.93054 0.16797 0.85534 0.0
H301 H 0.91566 0.14713 0.81397 0.0
C302 C 0.85304 0.16801 0.78572 0.0
C303 C 0.81905 0.18134 0.77302 0.0
C304 C 0.86478 0.18304 0.80908 0.0
C305 C 0.79856 0.21167 0.78363 0.0
C306 C 0.80986 0.22659 0.8069 0.0
C307 C 0.8508 0.2235 0.84366 0.0
C308 C 0.8819 0.20716 0.85674 0.0
C309 C 0.8421 0.21164 0.8199 0.0
C310 C 0.90622 0.18081 0.84562 0.0
C311 C 0.89761 0.16871 0.82199 0.0
H312 H 0.69376 0.80837 0.10602 0.0
H313 H 0.51941 0.71145 0.10573 0.0
H314 H 0.51586 0.73422 0.14653 0.0
H315 H 0.56277 0.78282 0.182 0.0
H316 H 0.73682 0.88303 0.18101 0.0
H317 H 0.74005 0.85772 0.14082 0.0
C318 C 0.65493 0.79197 0.11489 0.0
C319 C 0.6069 0.75809 0.10299 0.0
C320 C 0.65322 0.80593 0.13804 0.0
C321 C 0.5569 0.73765 0.1146 0.0
C322 C 0.55489 0.75062 0.13788 0.0
C323 C 0.60137 0.79892 0.17298 0.0
C324 C 0.64951 0.83459 0.18442 0.0
C325 C 0.60284 0.78488 0.14974 0.0
C326 C 0.69922 0.85562 0.17252 0.0
C327 C 0.70112 0.84112 0.14957 0.0
H328 H 0.74991 0.67691 0.54182 0.0
H329 H 0.87802 0.65168 0.56825 0.0
H330 H 0.91378 0.65852 0.52884 0.0
H331 H 0.90774 0.67053 0.48678 0.0
H332 H 0.77396 0.68585 0.4599 0.0
H333 H 0.7411 0.68418 0.49952 0.0
C334 C 0.78571 0.67308 0.53886 0.0
C335 C 0.81163 0.66418 0.55775 0.0
C336 C 0.80489 0.67528 0.51613 0.0
C337 C 0.85746 0.65842 0.55384 0.0
C338 C 0.87795 0.66246 0.53137 0.0
C339 C 0.87159 0.67377 0.4897 0.0
C340 C 0.84347 0.67882 0.47066 0.0
C341 C 0.85194 0.67078 0.51239 0.0
C342 C 0.79612 0.68198 0.47444 0.0
C343 C 0.77742 0.68107 0.49703 0.0
H344 H 0.06088 0.73645 0.84841 0.0
H345 H 0.22457 0.81952 0.87443 0.0
H346 H 0.25818 0.85723 0.83572 0.0
H347 H 0.2399 0.86971 0.79483 0.0
H348 H 0.07745 0.77974 0.76811 0.0
H349 H 0.04394 0.7415 0.80678 0.0
C350 C 0.10395 0.76235 0.84546 0.0
C351 C 0.14028 0.77557 0.86408 0.0
C352 C 0.12289 0.78295 0.82317 0.0
C353 C 0.19603 0.80867 0.8602 0.0
C354 C 0.21514 0.8305 0.83817 0.0
C355 C 0.19723 0.84172 0.79763 0.0
C356 C 0.16077 0.828 0.77905 0.0
C357 C 0.17881 0.81855 0.81962 0.0
C358 C 0.10583 0.79091 0.78241 0.0
C359 C 0.08681 0.76911 0.80443 0.0
H360 H 0.26135 0.95144 0.95405 0.0
H361 H 0.17176 0.82755 0.00442 0.0
H362 H 0.21239 0.89134 0.03601 0.0
H363 H 0.25656 0.98469 0.0482 0.0
H364 H 0.34305 0.10894 -0.00248 0.0
H365 H 0.3218 0.0425 0.96735 0.0
C366 C 0.25183 0.93813 0.97198 0.0
C367 C 0.21244 0.88525 0.97687 0.0
C368 C 0.27432 0.97525 0.99001 0.0
C369 C 0.20147 0.8682 0.00016 0.0
C370 C 0.2244 0.90477 0.01825 0.0
C371 C 0.2721 -0.00275 0.0307 0.0
C372 C 0.29979 0.05172 0.02498 0.0
C373 C 0.25835 0.95887 0.01326 0.0
C374 C 0.32086 0.06731 0.00237 0.0
C375 C 0.30833 0.0293 0.98501 0.0
H376 H 0.25398 0.34714 0.35815 0.0
H377 H 0.23169 0.35552 0.28426 0.0
H378 H 0.29503 0.32281 0.27645 0.0
H379 H 0.34184 0.27622 0.29079 0.0
H380 H 0.35931 0.26275 0.36474 0.0
H381 H 0.31381 0.31443 0.37235 0.0
C382 C 0.26376 0.34278 0.34031 0.0
C383 C 0.23712 0.35232 0.3218 0.0
C384 C 0.29897 0.32266 0.33599 0.0
C385 C 0.25117 0.34781 0.2988 0.0
C386 C 0.28715 0.32884 0.29433 0.0
C387 C 0.33678 0.28557 0.30858 0.0
C388 C 0.35255 0.26448 0.3272 0.0
C389 C 0.30905 0.31369 0.31282 0.0
C390 C 0.34695 0.27798 0.35011 0.0
C391 C 0.32055 0.30718 0.35447 0.0
H392 H 0.87001 0.23768 0.61675 0.0
H393 H 0.88838 0.29342 0.68749 0.0
H394 H 0.98468 0.35375 0.68081 0.0
H395 H 0.06546 0.37309 0.65813 0.0
H396 H 0.04794 0.3123 0.58824 0.0
H397 H 0.94978 0.27259 0.59115 0.0
C398 C 0.8947 0.26456 0.63039 0.0
C399 C 0.87275 0.26029 0.65271 0.0
C400 C 0.95056 0.29734 0.62675 0.0
C401 C 0.90491 0.29545 0.67025 0.0
C402 C 0.96001 0.32967 0.66651 0.0
C403 C 0.04029 0.35229 0.64332 0.0
C404 C 0.0638 0.34401 0.62336 0.0
C405 C 0.98378 0.32818 0.64534 0.0
C406 C 0.03077 0.31821 0.60407 0.0
C407 C 0.97452 0.2953 0.60571 0.0
H408 H 0.63347 0.94354 0.01698 0.0
H409 H 0.60984 0.82816 0.96419 0.0
H410 H 0.64315 0.89766 0.93452 0.0
H411 H 0.70202 0.99259 0.92615 0.0
H412 H 0.73181 0.10825 0.97975 0.0
H413 H 0.67222 0.03747 0.00628 0.0
C414 C 0.63376 0.93329 -0.00115 0.0
C415 C 0.62121 0.8812 -0.00708 0.0
C416 C 0.65542 0.97385 0.98207 0.0
C417 C 0.62019 0.86811 0.96932 0.0
C418 C 0.63991 0.90804 0.95234 0.0
C419 C 0.69422 0.00249 0.94341 0.0
C420 C 0.72299 0.05541 0.95126 0.0
C421 C 0.66142 0.96143 0.95887 0.0
C422 C 0.71115 0.06775 0.9734 0.0
C423 C 0.67727 0.0272 0.98868 0.0
H424 H 0.65413 0.76893 0.34408 0.0
H425 H 0.66975 0.73582 0.2721 0.0
H426 H 0.71678 0.68782 0.2838 0.0
H427 H 0.76475 0.66709 0.31385 0.0
H428 H 0.75408 0.70546 0.38559 0.0
H429 H 0.69334 0.73914 0.37456 0.0
C430 C 0.66672 0.75022 0.33097 0.0
C431 C 0.65923 0.75663 0.30725 0.0
C432 C 0.69534 0.7243 0.33774 0.0
C433 C 0.67565 0.732 0.29048 0.0
C434 C 0.70272 0.70472 0.29714 0.0
C435 C 0.74849 0.68203 0.32714 0.0
C436 C 0.76473 0.68466 0.35043 0.0
C437 C 0.71467 0.70253 0.32064 0.0
C438 C 0.74287 0.7037 0.36746 0.0
C439 C 0.70812 0.72299 0.36119 0.0
H440 H 0.07516 0.73866 0.6994 0.0
H441 H 0.09811 0.75986 0.62502 0.0
H442 H 0.00218 0.69664 0.61901 0.0
H443 H 0.91039 0.65167 0.63516 0.0
H444 H 0.88666 0.63744 0.70963 0.0
H445 H 0.98468 0.68043 0.71534 0.0
C446 C 0.05942 0.7287 0.68183 0.0
C447 C 0.09317 0.75511 0.66269 0.0
C448 C 0.00407 0.69394 0.67857 0.0
C449 C 0.07271 0.7407 0.64005 0.0
C450 C 0.01782 0.70476 0.63661 0.0
C451 C 0.9266 0.65688 0.65265 0.0
C452 C 0.89161 0.64302 0.67198 0.0
C453 C 0.98279 0.68361 0.65579 0.0
C454 C 0.91288 0.64851 0.69449 0.0
C455 C 0.96892 0.67348 0.69776 0.0
H456 H 0.04128 0.13596 0.94681 0.0
H457 H 0.93426 0.14162 -0.00123 0.0
H458 H -0.00798 0.13847 0.02975 0.0
H459 H 0.07505 0.13755 0.04189 0.0
H460 H 0.18716 0.14266 0.98972 0.0
H461 H 0.12555 0.13812 0.95888 0.0
C462 C 0.03054 0.13601 0.96494 0.0
C463 C 0.98366 0.1385 0.97066 0.0
C464 C 0.06499 0.13641 0.98253 0.0
C465 C 0.97035 0.13964 -0.00589 0.0
C466 C 0.00327 0.13785 0.01176 0.0
C467 C 0.0856 0.13733 0.02375 0.0
C468 C 0.13511 0.14014 0.01794 0.0
C469 C 0.05097 0.13673 0.00617 0.0
C470 C 0.14913 0.14069 -0.00554 0.0
C471 C 0.11397 0.13799 0.97688 0.0
H472 H 0.7847 0.02107 0.3302 0.0
H473 H 0.80779 0.04804 0.25617 0.0
H474 H 0.8907 0.13242 0.26289 0.0
H475 H 0.95441 0.20045 0.29001 0.0
H476 H 0.93306 0.17043 0.36395 0.0
H477 H 0.85189 0.08529 0.35705 0.0
C478 C 0.80804 0.04535 0.31555 0.0
C479 C 0.78998 0.02871 0.29276 0.0
C480 C 0.85589 0.09332 0.31952 0.0
C481 C 0.82097 0.06007 0.2739 0.0
C482 C 0.86822 0.10839 0.27773 0.0
C483 C 0.93204 0.17511 0.30457 0.0
C484 C 0.94945 0.1919 0.32744 0.0
C485 C 0.88571 0.12573 0.30048 0.0
C486 C 0.92055 0.1584 0.34616 0.0
C487 C 0.874 0.10977 0.34226 0.0
H488 H 0.78712 0.82971 0.63463 0.0
H489 H 0.76508 0.79178 0.70793 0.0
H490 H 0.77293 0.87835 0.71623 0.0
H491 H 0.77762 0.96118 0.70218 0.0
H492 H 0.79123 -0.00543 0.62853 0.0
H493 H 0.79596 0.91371 0.62083 0.0
C494 C 0.78475 0.84058 0.65248 0.0
C495 C 0.7753 0.80425 0.67063 0.0
C496 C 0.78769 0.88961 0.65702 0.0
C497 C 0.77197 0.81889 0.69363 0.0
C498 C 0.77648 0.86838 0.69838 0.0
C499 C 0.78273 0.9512 0.68451 0.0
C500 C 0.78422 0.98367 0.66593 0.0
C501 C 0.78319 0.90358 0.68016 0.0
C502 C 0.78992 0.97 0.64308 0.0
C503 C 0.79245 0.92377 0.63867 0.0
H504 H 0.77949 0.73289 -0.00035 0.0
H505 H 0.85406 0.90371 0.00359 0.0
H506 H 0.93055 0.91326 0.98019 0.0
H507 H 0.97705 0.87296 0.95925 0.0
H508 H 0.90592 0.70225 0.95796 0.0
H509 H 0.82715 0.69263 0.97963 0.0
C510 C 0.81242 0.77216 -0.00473 0.0
C511 C 0.81118 0.81751 0.00322 0.0
C512 C 0.85682 0.77733 0.98232 0.0
C513 C 0.85433 0.8682 -0.00227 0.0
C514 C 0.89796 0.8737 0.98431 0.0
C515 C 0.94407 0.8337 0.9636 0.0
C516 C 0.94696 0.78838 0.95694 0.0
C517 C 0.89973 0.82854 0.97659 0.0
C518 C 0.9045 0.73771 0.96297 0.0
C519 C 0.8595 0.73219 0.97531 0.0
H520 H 0.03142 0.81796 0.32418 0.0
H521 H 0.06497 0.84328 0.39766 0.0
H522 H 0.14648 0.92801 0.38948 0.0
H523 H 0.21063 0.99257 0.36131 0.0
H524 H 0.17483 0.969 0.28792 0.0
H525 H 0.09147 0.88623 0.29623 0.0
C526 C 0.05654 0.84214 0.33839 0.0
C527 C 0.04261 0.82416 0.36146 0.0
C528 C 0.10285 0.89111 0.33359 0.0
C529 C 0.07493 0.85626 0.37974 0.0
C530 C 0.12158 0.90463 0.37508 0.0
C531 C 0.18436 0.96951 0.34716 0.0
C532 C 0.19916 0.98668 0.32403 0.0
C533 C 0.13628 0.92212 0.35206 0.0
C534 C 0.16437 0.95673 0.30589 0.0
C535 C 0.11682 0.90922 0.3106 0.0
H536 H 0.20048 0.02485 0.63535 0.0
H537 H 0.19845 0.05118 0.70913 0.0
H538 H 0.19171 0.13113 0.70145 0.0
H539 H 0.19372 0.19722 0.67366 0.0
H540 H 0.19417 0.16907 0.59989 0.0
H541 H 0.19371 0.08594 0.60775 0.0
C542 C 0.19818 0.04787 0.64976 0.0
C543 C 0.20069 0.03253 0.67276 0.0
C544 C 0.19423 0.09358 0.64523 0.0
C545 C 0.19673 0.06223 0.69125 0.0
C546 C 0.1931 0.10806 0.68688 0.0
C547 C 0.1932 0.17266 0.6593 0.0
C548 C 0.19466 0.1898 0.63622 0.0
C549 C 0.19294 0.1247 0.66392 0.0
C550 C 0.19329 0.15709 0.61783 0.0
C551 C 0.19321 0.10955 0.62229 0.0
loop_
_geom_bond_atom_site_label_1
_geom_bond_atom_site_label_2
_geom_bond_distance
_geom_bond_site_symmetry_2
_ccdc_geom_bond_type
C0 O1 1.306 . S
C0 O3 1.160 . S
O1 C0 1.306 . S
O1 Cd2 2.228 . S
Cd2 O1 2.228 . S
Cd2 O6 2.273 . S
Cd2 O10 2.277 . S
O3 C0 1.160 . S
O3 Cd4 2.203 . S
Cd4 O3 2.203 . S
Cd4 O6 2.411 . S
Cd4 O7 2.333 . S
Cd4 O8 2.352 . S
Cd4 O12 2.277 . S
Cd4 O13 2.356 . S
C5 O10 1.209 . S
C5 O12 1.226 . S
O6 Cd2 2.273 . S
O6 Cd4 2.411 . S
O6 C9 1.320 . S
O7 Cd4 2.333 . S
O7 C9 1.214 . S
O8 Cd4 2.352 . S
O8 C11 1.258 . S
C9 O6 1.320 . S
C9 O7 1.214 . S
O10 Cd2 2.277 . S
O10 C5 1.209 . S
C11 O8 1.258 . S
C11 O13 1.282 . S
O12 Cd4 2.277 . S
O12 C5 1.226 . S
O13 Cd4 2.356 . S
O13 C11 1.282 . S
C14 O15 1.306 . S
C14 O17 1.160 . S
O15 C14 1.306 . S
O15 Cd16 2.228 . S
Cd16 O15 2.228 . S
Cd16 O20 2.273 . S
Cd16 O24 2.277 . S
O17 C14 1.160 . S
O17 Cd18 2.203 . S
Cd18 O17 2.203 . S
Cd18 O20 2.411 . S
Cd18 O21 2.333 . S
Cd18 O22 2.352 . S
Cd18 O26 2.277 . S
Cd18 O27 2.356 . S
C19 O24 1.209 . S
C19 O26 1.226 . S
O20 Cd16 2.273 . S
O20 Cd18 2.411 . S
O20 C23 1.320 . S
O21 Cd18 2.333 . S
O21 C23 1.214 . S
O22 Cd18 2.352 . S
O22 C25 1.258 . S
C23 O20 1.320 . S
C23 O21 1.214 . S
O24 Cd16 2.277 . S
O24 C19 1.209 . S
C25 O22 1.258 . S
C25 O27 1.282 . S
O26 Cd18 2.277 . S
O26 C19 1.226 . S
O27 Cd18 2.356 . S
O27 C25 1.282 . S
C28 O29 1.306 . S
C28 O31 1.160 . S
O29 C28 1.306 . S
O29 Cd30 2.228 . S
Cd30 O29 2.228 . S
Cd30 O34 2.273 . S
Cd30 O38 2.277 . S
O31 C28 1.160 . S
O31 Cd32 2.203 . S
Cd32 O31 2.203 . S
Cd32 O34 2.411 . S
Cd32 O35 2.333 . S
Cd32 O36 2.352 . S
Cd32 O40 2.277 . S
Cd32 O41 2.356 . S
C33 O38 1.209 . S
C33 O40 1.226 . S
O34 Cd30 2.273 . S
O34 Cd32 2.411 . S
O34 C37 1.320 . S
O35 Cd32 2.333 . S
O35 C37 1.214 . S
O36 Cd32 2.352 . S
O36 C39 1.258 . S
C37 O34 1.320 . S
C37 O35 1.214 . S
O38 Cd30 2.277 . S
O38 C33 1.209 . S
C39 O36 1.258 . S
C39 O41 1.282 . S
O40 Cd32 2.277 . S
O40 C33 1.226 . S
O41 Cd32 2.356 . S
O41 C39 1.282 . S
C42 O43 1.306 . S
C42 O45 1.160 . S
O43 C42 1.306 . S
O43 Cd44 2.228 . S
Cd44 O43 2.228 . S
Cd44 O48 2.273 . S
Cd44 O52 2.277 . S
O45 C42 1.160 . S
O45 Cd46 2.203 . S
Cd46 O45 2.203 . S
Cd46 O48 2.411 . S
Cd46 O49 2.333 . S
Cd46 O50 2.352 . S
Cd46 O54 2.277 . S
Cd46 O55 2.356 . S
C47 O52 1.209 . S
C47 O54 1.226 . S
O48 Cd44 2.273 . S
O48 Cd46 2.411 . S
O48 C51 1.320 . S
O49 Cd46 2.333 . S
O49 C51 1.214 . S
O50 Cd46 2.352 . S
O50 C53 1.258 . S
C51 O48 1.320 . S
C51 O49 1.214 . S
O52 Cd44 2.277 . S
O52 C47 1.209 . S
C53 O50 1.258 . S
C53 O55 1.282 . S
O54 Cd46 2.277 . S
O54 C47 1.226 . S
O55 Cd46 2.356 . S
O55 C53 1.282 . S
C56 O57 1.306 . S
C56 O59 1.160 . S
O57 C56 1.306 . S
O57 Cd58 2.228 . S
Cd58 O57 2.228 . S
Cd58 O62 2.273 . S
Cd58 O66 2.277 . S
O59 C56 1.160 . S
O59 Cd60 2.203 . S
Cd60 O59 2.203 . S
Cd60 O62 2.411 . S
Cd60 O63 2.333 . S
Cd60 O64 2.352 . S
Cd60 O68 2.277 . S
Cd60 O69 2.356 . S
C61 O66 1.209 . S
C61 O68 1.226 . S
O62 Cd58 2.273 . S
O62 Cd60 2.411 . S
O62 C65 1.320 . S
O63 Cd60 2.333 . S
O63 C65 1.214 . S
O64 Cd60 2.352 . S
O64 C67 1.258 . S
C65 O62 1.320 . S
C65 O63 1.214 . S
O66 Cd58 2.277 . S
O66 C61 1.209 . S
C67 O64 1.258 . S
C67 O69 1.282 . S
O68 Cd60 2.277 . S
O68 C61 1.226 . S
O69 Cd60 2.356 . S
O69 C67 1.282 . S
C70 O71 1.306 . S
C70 O73 1.160 . S
O71 C70 1.306 . S
O71 Cd72 2.228 . S
Cd72 O71 2.228 . S
Cd72 O76 2.273 . S
Cd72 O80 2.277 . S
O73 C70 1.160 . S
O73 Cd74 2.203 . S
Cd74 O73 2.203 . S
Cd74 O76 2.411 . S
Cd74 O77 2.333 . S
Cd74 O78 2.352 . S
Cd74 O82 2.277 . S
Cd74 O83 2.356 . S
C75 O80 1.209 . S
C75 O82 1.226 . S
O76 Cd72 2.273 . S
O76 Cd74 2.411 . S
O76 C79 1.320 . S
O77 Cd74 2.333 . S
O77 C79 1.214 . S
O78 Cd74 2.352 . S
O78 C81 1.258 . S
C79 O76 1.320 . S
C79 O77 1.214 . S
O80 Cd72 2.277 . S
O80 C75 1.209 . S
C81 O78 1.258 . S
C81 O83 1.282 . S
O82 Cd74 2.277 . S
O82 C75 1.226 . S
O83 Cd74 2.356 . S
O83 C81 1.282 . S
C84 O85 1.306 . S
C84 O87 1.160 . S
O85 C84 1.306 . S
O85 Cd86 2.228 . S
Cd86 O85 2.228 . S
Cd86 O90 2.273 . S
Cd86 O94 2.277 . S
O87 C84 1.160 . S
O87 Cd88 2.203 . S
Cd88 O87 2.203 . S
Cd88 O90 2.411 . S
Cd88 O91 2.333 . S
Cd88 O92 2.352 . S
Cd88 O96 2.277 . S
Cd88 O97 2.356 . S
C89 O94 1.209 . S
C89 O96 1.226 . S
O90 Cd86 2.273 . S
O90 Cd88 2.411 . S
O90 C93 1.320 . S
O91 Cd88 2.333 . S
O91 C93 1.214 . S
O92 Cd88 2.352 . S
O92 C95 1.258 . S
C93 O90 1.320 . S
C93 O91 1.214 . S
O94 Cd86 2.277 . S
O94 C89 1.209 . S
C95 O92 1.258 . S
C95 O97 1.282 . S
O96 Cd88 2.277 . S
O96 C89 1.226 . S
O97 Cd88 2.356 . S
O97 C95 1.282 . S
C98 O99 1.306 . S
C98 O101 1.160 . S
O99 C98 1.306 . S
O99 Cd100 2.228 . S
Cd100 O99 2.228 . S
Cd100 O104 2.273 . S
Cd100 O108 2.277 . S
O101 C98 1.160 . S
O101 Cd102 2.203 . S
Cd102 O101 2.203 . S
Cd102 O104 2.411 . S
Cd102 O105 2.333 . S
Cd102 O106 2.352 . S
Cd102 O110 2.277 . S
Cd102 O111 2.356 . S
C103 O108 1.209 . S
C103 O110 1.226 . S
O104 Cd100 2.273 . S
O104 Cd102 2.411 . S
O104 C107 1.320 . S
O105 Cd102 2.333 . S
O105 C107 1.214 . S
O106 Cd102 2.352 . S
O106 C109 1.258 . S
C107 O104 1.320 . S
C107 O105 1.214 . S
O108 Cd100 2.277 . S
O108 C103 1.209 . S
C109 O106 1.258 . S
C109 O111 1.282 . S
O110 Cd102 2.277 . S
O110 C103 1.226 . S
O111 Cd102 2.356 . S
O111 C109 1.282 . S
C112 O113 1.306 . S
C112 O115 1.160 . S
O113 C112 1.306 . S
O113 Cd114 2.228 . S
Cd114 O113 2.228 . S
Cd114 O118 2.273 . S
Cd114 O122 2.277 . S
O115 C112 1.160 . S
O115 Cd116 2.203 . S
Cd116 O115 2.203 . S
Cd116 O118 2.411 . S
Cd116 O119 2.333 . S
Cd116 O120 2.352 . S
Cd116 O124 2.277 . S
Cd116 O125 2.356 . S
C117 O122 1.209 . S
C117 O124 1.226 . S
O118 Cd114 2.273 . S
O118 Cd116 2.411 . S
O118 C121 1.320 . S
O119 Cd116 2.333 . S
O119 C121 1.214 . S
O120 Cd116 2.352 . S
O120 C123 1.258 . S
C121 O118 1.320 . S
C121 O119 1.214 . S
O122 Cd114 2.277 . S
O122 C117 1.209 . S
C123 O120 1.258 . S
C123 O125 1.282 . S
O124 Cd116 2.277 . S
O124 C117 1.226 . S
O125 Cd116 2.356 . S
O125 C123 1.282 . S
C126 O127 1.306 . S
C126 O129 1.160 . S
O127 C126 1.306 . S
O127 Cd128 2.228 . S
Cd128 O127 2.228 . S
Cd128 O132 2.273 . S
Cd128 O136 2.277 . S
O129 C126 1.160 . S
O129 Cd130 2.203 . S
Cd130 O129 2.203 . S
Cd130 O132 2.411 . S
Cd130 O133 2.333 . S
Cd130 O134 2.352 . S
Cd130 O138 2.277 . S
Cd130 O139 2.356 . S
C131 O136 1.209 . S
C131 O138 1.226 . S
O132 Cd128 2.273 . S
O132 Cd130 2.411 . S
O132 C135 1.320 . S
O133 Cd130 2.333 . S
O133 C135 1.214 . S
O134 Cd130 2.352 . S
O134 C137 1.258 . S
C135 O132 1.320 . S
C135 O133 1.214 . S
O136 Cd128 2.277 . S
O136 C131 1.209 . S
C137 O134 1.258 . S
C137 O139 1.282 . S
O138 Cd130 2.277 . S
O138 C131 1.226 . S
O139 Cd130 2.356 . S
O139 C137 1.282 . S
C140 O141 1.306 . S
C140 O143 1.160 . S
O141 C140 1.306 . S
O141 Cd142 2.228 . S
Cd142 O141 2.228 . S
Cd142 O146 2.273 . S
Cd142 O150 2.277 . S
O143 C140 1.160 . S
O143 Cd144 2.203 . S
Cd144 O143 2.203 . S
Cd144 O146 2.411 . S
Cd144 O147 2.333 . S
Cd144 O148 2.352 . S
Cd144 O152 2.277 . S
Cd144 O153 2.356 . S
C145 O150 1.209 . S
C145 O152 1.226 . S
O146 Cd142 2.273 . S
O146 Cd144 2.411 . S
O146 C149 1.320 . S
O147 Cd144 2.333 . S
O147 C149 1.214 . S
O148 Cd144 2.352 . S
O148 C151 1.258 . S
C149 O146 1.320 . S
C149 O147 1.214 . S
O150 Cd142 2.277 . S
O150 C145 1.209 . S
C151 O148 1.258 . S
C151 O153 1.282 . S
O152 Cd144 2.277 . S
O152 C145 1.226 . S
O153 Cd144 2.356 . S
O153 C151 1.282 . S
C154 O155 1.306 . S
C154 O157 1.160 . S
O155 C154 1.306 . S
O155 Cd156 2.228 . S
Cd156 O155 2.228 . S
Cd156 O160 2.273 . S
Cd156 O164 2.277 . S
O157 C154 1.160 . S
O157 Cd158 2.203 . S
Cd158 O157 2.203 . S
Cd158 O160 2.411 . S
Cd158 O161 2.333 . S
Cd158 O162 2.352 . S
Cd158 O166 2.277 . S
Cd158 O167 2.356 . S
C159 O164 1.209 . S
C159 O166 1.226 . S
O160 Cd156 2.273 . S
O160 Cd158 2.411 . S
O160 C163 1.320 . S
O161 Cd158 2.333 . S
O161 C163 1.214 . S
O162 Cd158 2.352 . S
O162 C165 1.258 . S
C163 O160 1.320 . S
C163 O161 1.214 . S
O164 Cd156 2.277 . S
O164 C159 1.209 . S
C165 O162 1.258 . S
C165 O167 1.282 . S
O166 Cd158 2.277 . S
O166 C159 1.226 . S
O167 Cd158 2.356 . S
O167 C165 1.282 . S
H168 C174 0.930 . S
H169 C177 0.930 . S
H170 C178 0.930 . S
H171 C179 0.930 . S
H172 C182 0.930 . S
H173 C183 0.930 . S
C174 H168 0.930 . S
C174 C175 1.355 . S
C174 C176 1.415 . S
C175 C174 1.355 . S
C175 C177 1.419 . S
C176 C174 1.415 . S
C176 C181 1.425 . S
C176 C183 1.409 . S
C177 H169 0.930 . S
C177 C175 1.419 . S
C177 C178 1.362 . S
C178 H170 0.930 . S
C178 C177 1.362 . S
C178 C181 1.409 . S
C179 H171 0.930 . S
C179 C180 1.355 . S
C179 C181 1.415 . S
C180 C179 1.355 . S
C180 C182 1.419 . S
C181 C176 1.425 . S
C181 C178 1.409 . S
C181 C179 1.415 . S
C182 H172 0.930 . S
C182 C180 1.419 . S
C182 C183 1.362 . S
C183 H173 0.930 . S
C183 C176 1.409 . S
C183 C182 1.362 . S
H184 C190 0.930 1_655 S
H185 C193 0.930 . S
H186 C194 0.930 . S
H187 C195 0.930 1_455 S
H188 C198 0.930 . S
H189 C199 0.930 . S
C190 H184 0.930 1_455 S
C190 C191 1.355 . S
C190 C192 1.415 1_455 S
C191 C190 1.355 . S
C191 C193 1.419 . S
C192 C190 1.415 1_655 S
C192 C197 1.425 1_655 S
C192 C199 1.409 . S
C193 H185 0.930 . S
C193 C191 1.419 . S
C193 C194 1.362 . S
C194 H186 0.930 . S
C194 C193 1.362 . S
C194 C197 1.409 . S
C195 H187 0.930 1_655 S
C195 C196 1.355 . S
C195 C197 1.415 1_655 S
C196 C195 1.355 . S
C196 C198 1.419 . S
C197 C192 1.425 1_455 S
C197 C194 1.409 . S
C197 C195 1.415 1_455 S
C198 H188 0.930 . S
C198 C196 1.419 . S
C198 C199 1.362 . S
C199 H189 0.930 . S
C199 C192 1.409 . S
C199 C198 1.362 . S
H200 C206 0.930 . S
H201 C209 0.930 . S
H202 C210 0.930 . S
H203 C211 0.930 . S
H204 C214 0.930 . S
H205 C215 0.930 . S
C206 H200 0.930 . S
C206 C207 1.355 . S
C206 C208 1.415 . S
C207 C206 1.355 . S
C207 C209 1.419 . S
C208 C206 1.415 . S
C208 C213 1.425 1_565 S
C208 C215 1.409 . S
C209 H201 0.930 . S
C209 C207 1.419 . S
C209 C210 1.362 1_565 S
C210 H202 0.930 . S
C210 C209 1.362 1_545 S
C210 C213 1.409 . S
C211 H203 0.930 . S
C211 C212 1.355 . S
C211 C213 1.415 . S
C212 C211 1.355 . S
C212 C214 1.419 . S
C213 C208 1.425 1_545 S
C213 C210 1.409 . S
C213 C211 1.415 . S
C214 H204 0.930 . S
C214 C212 1.419 . S
C214 C215 1.362 1_545 S
C215 H205 0.930 . S
C215 C208 1.409 . S
C215 C214 1.362 1_565 S
H216 C222 0.930 . S
H217 C225 0.930 . S
H218 C226 0.930 . S
H219 C227 0.930 . S
H220 C230 0.930 . S
H221 C231 0.930 . S
C222 H216 0.930 . S
C222 C223 1.355 . S
C222 C224 1.415 . S
C223 C222 1.355 . S
C223 C225 1.419 . S
C224 C222 1.415 . S
C224 C229 1.425 . S
C224 C231 1.409 . S
C225 H217 0.930 . S
C225 C223 1.419 . S
C225 C226 1.362 . S
C226 H218 0.930 . S
C226 C225 1.362 . S
C226 C229 1.409 . S
C227 H219 0.930 . S
C227 C228 1.355 . S
C227 C229 1.415 . S
C228 C227 1.355 . S
C228 C230 1.419 . S
C229 C224 1.425 . S
C229 C226 1.409 . S
C229 C227 1.415 . S
C230 H220 0.930 . S
C230 C228 1.419 . S
C230 C231 1.362 . S
C231 H221 0.930 . S
C231 C224 1.409 . S
C231 C230 1.362 . S
H232 C238 0.930 . S
H233 C241 0.930 1_455 S
H234 C242 0.930 . S
H235 C243 0.930 . S
H236 C246 0.930 1_655 S
H237 C247 0.930 . S
C238 H232 0.930 . S
C238 C239 1.355 . S
C238 C240 1.415 . S
C239 C238 1.355 . S
C239 C241 1.419 . S
C240 C238 1.415 . S
C240 C245 1.425 1_655 S
C240 C247 1.409 . S
C241 H233 0.930 1_655 S
C241 C239 1.419 . S
C241 C242 1.362 1_655 S
C242 H234 0.930 . S
C242 C241 1.362 1_455 S
C242 C245 1.409 . S
C243 H235 0.930 . S
C243 C244 1.355 . S
C243 C245 1.415 . S
C244 C243 1.355 . S
C244 C246 1.419 . S
C245 C240 1.425 1_455 S
C245 C242 1.409 . S
C245 C243 1.415 . S
C246 H236 0.930 1_455 S
C246 C244 1.419 . S
C246 C247 1.362 1_455 S
C247 H237 0.930 . S
C247 C240 1.409 . S
C247 C246 1.362 1_655 S
H248 C254 0.930 1_565 S
H249 C257 0.930 . S
H250 C258 0.930 . S
H251 C259 0.930 1_545 S
H252 C262 0.930 . S
H253 C263 0.930 . S
C254 H248 0.930 1_545 S
C254 C255 1.355 . S
C254 C256 1.415 1_545 S
C255 C254 1.355 . S
C255 C257 1.419 . S
C256 C254 1.415 1_565 S
C256 C261 1.425 1_565 S
C256 C263 1.409 . S
C257 H249 0.930 . S
C257 C255 1.419 . S
C257 C258 1.362 . S
C258 H250 0.930 . S
C258 C257 1.362 . S
C258 C261 1.409 . S
C259 H251 0.930 1_565 S
C259 C260 1.355 . S
C259 C261 1.415 1_565 S
C260 C259 1.355 . S
C260 C262 1.419 . S
C261 C256 1.425 1_545 S
C261 C258 1.409 . S
C261 C259 1.415 1_545 S
C262 H252 0.930 . S
C262 C260 1.419 . S
C262 C263 1.362 . S
C263 H253 0.930 . S
C263 C256 1.409 . S
C263 C262 1.362 . S
H264 C270 0.930 . S
H265 C273 0.930 . S
H266 C274 0.930 . S
H267 C275 0.930 . S
H268 C278 0.930 . S
H269 C279 0.930 . S
C270 H264 0.930 . S
C270 C271 1.355 . S
C270 C272 1.415 . S
C271 C270 1.355 . S
C271 C273 1.419 . S
C272 C270 1.415 . S
C272 C277 1.425 . S
C272 C279 1.409 . S
C273 H265 0.930 . S
C273 C271 1.419 . S
C273 C274 1.362 . S
C274 H266 0.930 . S
C274 C273 1.362 . S
C274 C277 1.409 . S
C275 H267 0.930 . S
C275 C276 1.355 . S
C275 C277 1.415 . S
C276 C275 1.355 . S
C276 C278 1.419 . S
C277 C272 1.425 . S
C277 C274 1.409 . S
C277 C275 1.415 . S
C278 H268 0.930 . S
C278 C276 1.419 . S
C278 C279 1.362 . S
C279 H269 0.930 . S
C279 C272 1.409 . S
C279 C278 1.362 . S
H280 C286 0.930 . S
H281 C289 0.930 . S
H282 C290 0.930 . S
H283 C291 0.930 . S
H284 C294 0.930 . S
H285 C295 0.930 . S
C286 H280 0.930 . S
C286 C287 1.355 . S
C286 C288 1.415 . S
C287 C286 1.355 . S
C287 C289 1.419 . S
C288 C286 1.415 . S
C288 C293 1.425 . S
C288 C295 1.409 . S
C289 H281 0.930 . S
C289 C287 1.419 . S
C289 C290 1.362 . S
C290 H282 0.930 . S
C290 C289 1.362 . S
C290 C293 1.409 . S
C291 H283 0.930 . S
C291 C292 1.355 . S
C291 C293 1.415 . S
C292 C291 1.355 . S
C292 C294 1.419 . S
C293 C288 1.425 . S
C293 C290 1.409 . S
C293 C291 1.415 . S
C294 H284 0.930 . S
C294 C292 1.419 . S
C294 C295 1.362 . S
C295 H285 0.930 . S
C295 C288 1.409 . S
C295 C294 1.362 . S
H296 C302 0.930 . S
H297 C305 0.930 . S
H298 C306 0.930 . S
H299 C307 0.930 . S
H300 C310 0.930 . S
H301 C311 0.930 . S
C302 H296 0.930 . S
C302 C303 1.355 . S
C302 C304 1.415 . S
C303 C302 1.355 . S
C303 C305 1.419 . S
C304 C302 1.415 . S
C304 C309 1.425 . S
C304 C311 1.409 . S
C305 H297 0.930 . S
C305 C303 1.419 . S
C305 C306 1.362 . S
C306 H298 0.930 . S
C306 C305 1.362 . S
C306 C309 1.409 . S
C307 H299 0.930 . S
C307 C308 1.355 . S
C307 C309 1.415 . S
C308 C307 1.355 . S
C308 C310 1.419 . S
C309 C304 1.425 . S
C309 C306 1.409 . S
C309 C307 1.415 . S
C310 H300 0.930 . S
C310 C308 1.419 . S
C310 C311 1.362 . S
C311 H301 0.930 . S
C311 C304 1.409 . S
C311 C310 1.362 . S
H312 C318 0.930 . S
H313 C321 0.930 . S
H314 C322 0.930 . S
H315 C323 0.930 . S
H316 C326 0.930 . S
H317 C327 0.930 . S
C318 H312 0.930 . S
C318 C319 1.355 . S
C318 C320 1.415 . S
C319 C318 1.355 . S
C319 C321 1.419 . S
C320 C318 1.415 . S
C320 C325 1.425 . S
C320 C327 1.409 . S
C321 H313 0.930 . S
C321 C319 1.419 . S
C321 C322 1.362 . S
C322 H314 0.930 . S
C322 C321 1.362 . S
C322 C325 1.409 . S
C323 H315 0.930 . S
C323 C324 1.355 . S
C323 C325 1.415 . S
C324 C323 1.355 . S
C324 C326 1.419 . S
C325 C320 1.425 . S
C325 C322 1.409 . S
C325 C323 1.415 . S
C326 H316 0.930 . S
C326 C324 1.419 . S
C326 C327 1.362 . S
C327 H317 0.930 . S
C327 C320 1.409 . S
C327 C326 1.362 . S
H328 C334 0.930 . S
H329 C337 0.930 . S
H330 C338 0.930 . S
H331 C339 0.930 . S
H332 C342 0.930 . S
H333 C343 0.930 . S
C334 H328 0.930 . S
C334 C335 1.355 . S
C334 C336 1.415 . S
C335 C334 1.355 . S
C335 C337 1.419 . S
C336 C334 1.415 . S
C336 C341 1.425 . S
C336 C343 1.409 . S
C337 H329 0.930 . S
C337 C335 1.419 . S
C337 C338 1.362 . S
C338 H330 0.930 . S
C338 C337 1.362 . S
C338 C341 1.409 . S
C339 H331 0.930 . S
C339 C340 1.355 . S
C339 C341 1.415 . S
C340 C339 1.355 . S
C340 C342 1.419 . S
C341 C336 1.425 . S
C341 C338 1.409 . S
C341 C339 1.415 . S
C342 H332 0.930 . S
C342 C340 1.419 . S
C342 C343 1.362 . S
C343 H333 0.930 . S
C343 C336 1.409 . S
C343 C342 1.362 . S
H344 C350 0.930 . S
H345 C353 0.930 . S
H346 C354 0.930 . S
H347 C355 0.930 . S
H348 C358 0.930 . S
H349 C359 0.930 . S
C350 H344 0.930 . S
C350 C351 1.355 . S
C350 C352 1.415 . S
C351 C350 1.355 . S
C351 C353 1.419 . S
C352 C350 1.415 . S
C352 C357 1.425 . S
C352 C359 1.409 . S
C353 H345 0.930 . S
C353 C351 1.419 . S
C353 C354 1.362 . S
C354 H346 0.930 . S
C354 C353 1.362 . S
C354 C357 1.409 . S
C355 H347 0.930 . S
C355 C356 1.355 . S
C355 C357 1.415 . S
C356 C355 1.355 . S
C356 C358 1.419 . S
C357 C352 1.425 . S
C357 C354 1.409 . S
C357 C355 1.415 . S
C358 H348 0.930 . S
C358 C356 1.419 . S
C358 C359 1.362 . S
C359 H349 0.930 . S
C359 C352 1.409 . S
C359 C358 1.362 . S
H360 C366 0.930 . S
H361 C369 0.930 . S
H362 C370 0.930 . S
H363 C371 0.930 . S
H364 C374 0.930 . S
H365 C375 0.930 . S
C366 H360 0.930 . S
C366 C367 1.355 . S
C366 C368 1.415 . S
C367 C366 1.355 . S
C367 C369 1.419 . S
C368 C366 1.415 . S
C368 C373 1.425 1_566 S
C368 C375 1.409 1_565 S
C369 H361 0.930 . S
C369 C367 1.419 . S
C369 C370 1.362 1_556 S
C370 H362 0.930 . S
C370 C369 1.362 1_554 S
C370 C373 1.409 1_565 S
C371 H363 0.930 . S
C371 C372 1.355 . S
C371 C373 1.415 . S
C372 C371 1.355 . S
C372 C374 1.419 . S
C373 C368 1.425 1_544 S
C373 C370 1.409 1_545 S
C373 C371 1.415 . S
C374 H364 0.930 . S
C374 C372 1.419 . S
C374 C375 1.362 1_554 S
C375 H365 0.930 . S
C375 C368 1.409 1_545 S
C375 C374 1.362 1_556 S
H376 C382 0.930 . S
H377 C385 0.930 . S
H378 C386 0.930 . S
H379 C387 0.930 . S
H380 C390 0.930 . S
H381 C391 0.930 . S
C382 H376 0.930 . S
C382 C383 1.355 . S
C382 C384 1.415 . S
C383 C382 1.355 . S
C383 C385 1.419 . S
C384 C382 1.415 . S
C384 C389 1.425 . S
C384 C391 1.409 . S
C385 H377 0.930 . S
C385 C383 1.419 . S
C385 C386 1.362 . S
C386 H378 0.930 . S
C386 C385 1.362 . S
C386 C389 1.409 . S
C387 H379 0.930 . S
C387 C388 1.355 . S
C387 C389 1.415 . S
C388 C387 1.355 . S
C388 C390 1.419 . S
C389 C384 1.425 . S
C389 C386 1.409 . S
C389 C387 1.415 . S
C390 H380 0.930 . S
C390 C388 1.419 . S
C390 C391 1.362 . S
C391 H381 0.930 . S
C391 C384 1.409 . S
C391 C390 1.362 . S
H392 C398 0.930 . S
H393 C401 0.930 . S
H394 C402 0.930 . S
H395 C403 0.930 . S
H396 C406 0.930 . S
H397 C407 0.930 . S
C398 H392 0.930 . S
C398 C399 1.355 . S
C398 C400 1.415 . S
C399 C398 1.355 . S
C399 C401 1.419 . S
C400 C398 1.415 . S
C400 C405 1.425 1_655 S
C400 C407 1.409 1_655 S
C401 H393 0.930 . S
C401 C399 1.419 . S
C401 C402 1.362 . S
C402 H394 0.930 . S
C402 C401 1.362 . S
C402 C405 1.409 1_655 S
C403 H395 0.930 . S
C403 C404 1.355 . S
C403 C405 1.415 . S
C404 C403 1.355 . S
C404 C406 1.419 . S
C405 C400 1.425 1_455 S
C405 C402 1.409 1_455 S
C405 C403 1.415 . S
C406 H396 0.930 . S
C406 C404 1.419 . S
C406 C407 1.362 . S
C407 H397 0.930 . S
C407 C400 1.409 1_455 S
C407 C406 1.362 . S
H408 C414 0.930 . S
H409 C417 0.930 . S
H410 C418 0.930 . S
H411 C419 0.930 . S
H412 C422 0.930 . S
H413 C423 0.930 . S
C414 H408 0.930 . S
C414 C415 1.355 . S
C414 C416 1.415 . S
C415 C414 1.355 . S
C415 C417 1.419 1_554 S
C416 C414 1.415 . S
C416 C421 1.425 1_564 S
C416 C423 1.409 1_565 S
C417 H409 0.930 . S
C417 C415 1.419 1_556 S
C417 C418 1.362 . S
C418 H410 0.930 . S
C418 C417 1.362 . S
C418 C421 1.409 1_565 S
C419 H411 0.930 . S
C419 C420 1.355 . S
C419 C421 1.415 . S
C420 C419 1.355 . S
C420 C422 1.419 1_556 S
C421 C416 1.425 1_546 S
C421 C418 1.409 1_545 S
C421 C419 1.415 . S
C422 H412 0.930 . S
C422 C420 1.419 1_554 S
C422 C423 1.362 . S
C423 H413 0.930 . S
C423 C416 1.409 1_545 S
C423 C422 1.362 . S
H424 C430 0.930 . S
H425 C433 0.930 . S
H426 C434 0.930 . S
H427 C435 0.930 . S
H428 C438 0.930 . S
H429 C439 0.930 . S
C430 H424 0.930 . S
C430 C431 1.355 . S
C430 C432 1.415 . S
C431 C430 1.355 . S
C431 C433 1.419 . S
C432 C430 1.415 . S
C432 C437 1.425 . S
C432 C439 1.409 . S
C433 H425 0.930 . S
C433 C431 1.419 . S
C433 C434 1.362 . S
C434 H426 0.930 . S
C434 C433 1.362 . S
C434 C437 1.409 . S
C435 H427 0.930 . S
C435 C436 1.355 . S
C435 C437 1.415 . S
C436 C435 1.355 . S
C436 C438 1.419 . S
C437 C432 1.425 . S
C437 C434 1.409 . S
C437 C435 1.415 . S
C438 H428 0.930 . S
C438 C436 1.419 . S
C438 C439 1.362 . S
C439 H429 0.930 . S
C439 C432 1.409 . S
C439 C438 1.362 . S
H440 C446 0.930 . S
H441 C449 0.930 . S
H442 C450 0.930 . S
H443 C451 0.930 . S
H444 C454 0.930 . S
H445 C455 0.930 . S
C446 H440 0.930 . S
C446 C447 1.355 . S
C446 C448 1.415 . S
C447 C446 1.355 . S
C447 C449 1.419 . S
C448 C446 1.415 . S
C448 C453 1.425 1_455 S
C448 C455 1.409 1_455 S
C449 H441 0.930 . S
C449 C447 1.419 . S
C449 C450 1.362 . S
C450 H442 0.930 . S
C450 C449 1.362 . S
C450 C453 1.409 1_455 S
C451 H443 0.930 . S
C451 C452 1.355 . S
C451 C453 1.415 . S
C452 C451 1.355 . S
C452 C454 1.419 . S
C453 C448 1.425 1_655 S
C453 C450 1.409 1_655 S
C453 C451 1.415 . S
C454 H444 0.930 . S
C454 C452 1.419 . S
C454 C455 1.362 . S
C455 H445 0.930 . S
C455 C448 1.409 1_655 S
C455 C454 1.362 . S
H456 C462 0.930 . S
H457 C465 0.930 1_655 S
H458 C466 0.930 . S
H459 C467 0.930 . S
H460 C470 0.930 . S
H461 C471 0.930 . S
C462 H456 0.930 . S
C462 C463 1.355 . S
C462 C464 1.415 . S
C463 C462 1.355 . S
C463 C465 1.419 1_556 S
C464 C462 1.415 . S
C464 C469 1.425 1_556 S
C464 C471 1.409 . S
C465 H457 0.930 1_455 S
C465 C463 1.419 1_554 S
C465 C466 1.362 . S
C466 H458 0.930 . S
C466 C465 1.362 . S
C466 C469 1.409 . S
C467 H459 0.930 . S
C467 C468 1.355 . S
C467 C469 1.415 . S
C468 C467 1.355 . S
C468 C470 1.419 1_554 S
C469 C464 1.425 1_554 S
C469 C466 1.409 . S
C469 C467 1.415 . S
C470 H460 0.930 . S
C470 C468 1.419 1_556 S
C470 C471 1.362 . S
C471 H461 0.930 . S
C471 C464 1.409 . S
C471 C470 1.362 . S
H472 C478 0.930 . S
H473 C481 0.930 . S
H474 C482 0.930 . S
H475 C483 0.930 . S
H476 C486 0.930 . S
H477 C487 0.930 . S
C478 H472 0.930 . S
C478 C479 1.355 . S
C478 C480 1.415 . S
C479 C478 1.355 . S
C479 C481 1.419 . S
C480 C478 1.415 . S
C480 C485 1.425 . S
C480 C487 1.409 . S
C481 H473 0.930 . S
C481 C479 1.419 . S
C481 C482 1.362 . S
C482 H474 0.930 . S
C482 C481 1.362 . S
C482 C485 1.409 . S
C483 H475 0.930 . S
C483 C484 1.355 . S
C483 C485 1.415 . S
C484 C483 1.355 . S
C484 C486 1.419 . S
C485 C480 1.425 . S
C485 C482 1.409 . S
C485 C483 1.415 . S
C486 H476 0.930 . S
C486 C484 1.419 . S
C486 C487 1.362 . S
C487 H477 0.930 . S
C487 C480 1.409 . S
C487 C486 1.362 . S
H488 C494 0.930 . S
H489 C497 0.930 . S
H490 C498 0.930 . S
H491 C499 0.930 . S
H492 C502 0.930 . S
H493 C503 0.930 . S
C494 H488 0.930 . S
C494 C495 1.355 . S
C494 C496 1.415 . S
C495 C494 1.355 . S
C495 C497 1.419 . S
C496 C494 1.415 . S
C496 C501 1.425 . S
C496 C503 1.409 . S
C497 H489 0.930 . S
C497 C495 1.419 . S
C497 C498 1.362 . S
C498 H490 0.930 . S
C498 C497 1.362 . S
C498 C501 1.409 . S
C499 H491 0.930 . S
C499 C500 1.355 . S
C499 C501 1.415 . S
C500 C499 1.355 . S
C500 C502 1.419 . S
C501 C496 1.425 . S
C501 C498 1.409 . S
C501 C499 1.415 . S
C502 H492 0.930 . S
C502 C500 1.419 . S
C502 C503 1.362 . S
C503 H493 0.930 . S
C503 C496 1.409 . S
C503 C502 1.362 . S
H504 C510 0.930 . S
H505 C513 0.930 . S
H506 C514 0.928 1_556 S
H507 C515 0.930 . S
H508 C518 0.930 . S
H509 C519 0.928 1_554 S
C510 H504 0.930 . S
C510 C511 1.355 . S
C510 C512 1.415 . S
C511 C510 1.355 . S
C511 C513 1.419 . S
C512 C510 1.415 . S
C512 C517 1.425 1_554 S
C512 C519 1.407 1_554 S
C513 H505 0.930 . S
C513 C511 1.419 . S
C513 C514 1.367 . S
C514 H506 0.928 1_554 S
C514 C513 1.367 . S
C514 C517 1.407 1_554 S
C515 H507 0.930 . S
C515 C516 1.355 . S
C515 C517 1.415 . S
C516 C515 1.355 . S
C516 C518 1.419 . S
C517 C512 1.425 1_556 S
C517 C514 1.407 1_556 S
C517 C515 1.415 . S
C518 H508 0.930 . S
C518 C516 1.419 . S
C518 C519 1.367 . S
C519 H509 0.928 1_556 S
C519 C512 1.407 1_556 S
C519 C518 1.367 . S
H520 C526 0.930 . S
H521 C529 0.914 1_655 S
H522 C530 0.930 . S
H523 C531 0.930 . S
H524 C534 0.930 . S
H525 C535 0.930 . S
C526 H520 0.930 . S
C526 C527 1.355 . S
C526 C528 1.415 . S
C527 C526 1.355 . S
C527 C529 1.419 . S
C528 C526 1.415 . S
C528 C533 1.425 . S
C528 C535 1.409 . S
C529 H521 0.914 1_455 S
C529 C527 1.419 . S
C529 C530 1.362 . S
C530 H522 0.930 . S
C530 C529 1.362 . S
C530 C533 1.409 . S
C531 H523 0.930 . S
C531 C532 1.355 . S
C531 C533 1.415 . S
C532 C531 1.355 . S
C532 C534 1.419 . S
C533 C528 1.425 . S
C533 C530 1.409 . S
C533 C531 1.415 . S
C534 H524 0.930 . S
C534 C532 1.419 . S
C534 C535 1.362 . S
C535 H525 0.930 . S
C535 C528 1.409 . S
C535 C534 1.362 . S
H536 C542 0.930 . S
H537 C545 0.930 . S
H538 C546 0.930 . S
H539 C547 0.930 . S
H540 C550 0.930 . S
H541 C551 0.930 . S
C542 H536 0.930 . S
C542 C543 1.355 . S
C542 C544 1.415 . S
C543 C542 1.355 . S
C543 C545 1.419 . S
C544 C542 1.415 . S
C544 C549 1.425 . S
C544 C551 1.409 . S
C545 H537 0.930 . S
C545 C543 1.419 . S
C545 C546 1.362 . S
C546 H538 0.930 . S
C546 C545 1.362 . S
C546 C549 1.409 . S
C547 H539 0.930 . S
C547 C548 1.355 . S
C547 C549 1.415 . S
C548 C547 1.355 . S
C548 C550 1.419 . S
C549 C544 1.425 . S
C549 C546 1.409 . S
C549 C547 1.415 . S
C550 H540 0.930 . S
C550 C548 1.419 . S
C550 C551 1.362 . S
C551 H541 0.930 . S
C551 C544 1.409 . S
C551 C550 1.362 . S
C175 C53 1.340 . S
C180 C11 1.336 . S
C191 C23 1.473 . S
C196 C65 1.478 . S
C207 C79 1.345 . S
C212 C37 1.324 . S
C223 C93 1.474 . S
C228 C135 1.478 . S
C239 C151 1.334 . S
C244 C109 1.334 . S
C255 C121 1.394 . S
C260 C163 1.370 . S
C271 C123 1.614 . S
C276 C9 1.618 . S
C287 C25 1.625 . S
C292 C137 1.645 . S
C303 C39 1.605 . S
C308 C149 1.614 . S
C319 C51 1.610 . S
C324 C165 1.594 . S
C335 C95 1.647 . S
C340 C67 1.631 . S
C351 C107 1.617 . S
C356 C81 1.609 . S
C367 C103 1.278 . S
C372 C5 1.227 . S
C383 C14 1.408 . S
C388 C112 1.369 . S
C399 C28 1.406 . S
C404 C126 1.363 . S
C415 C47 1.279 . S
C420 C145 1.231 . S
C431 C154 1.372 . S
C436 C56 1.404 . S
C447 C70 1.411 . S
C452 C84 1.357 . S
C463 C140 1.332 1_455 S
C468 C0 1.351 . S
C479 C159 1.483 1_545 S
C484 C19 1.488 1_655 S
C495 C89 1.485 . S
C500 C33 1.489 1_565 S
C511 C42 1.318 . S
C516 C98 1.354 1_655 S
C527 C61 1.476 1_455 S
C532 C117 1.490 1_565 S
C543 C75 1.482 1_545 S
C548 C131 1.489 . S
