# Generated by pormake.
# Topology uoc, (4)-cn, num edge types: 1
# Building blocks:
#     Node 0, Type 0, BuildingBlock: QUQFOY_clean_sbu_1, # of connection points: 4
#     Node 1, Type 0, BuildingBlock: QUQFOY_clean_sbu_1, # of connection points: 4
#     Node 2, Type 0, BuildingBlock: QUQFOY_clean_sbu_1, # of connection points: 4
#     Node 3, Type 0, BuildingBlock: QUQFOY_clean_sbu_1, # of connection points: 4
#     Node 4, Type 0, BuildingBlock: QUQFOY_clean_sbu_1, # of connection points: 4
#     Node 5, Type 0, BuildingBlock: QUQFOY_clean_sbu_1, # of connection points: 4
#     Node 6, Type 0, BuildingBlock: QUQFOY_clean_sbu_1, # of connection points: 4
#     Node 7, Type 0, BuildingBlock: QUQFOY_clean_sbu_1, # of connection points: 4
#     Edge 8, Type (0, 0), BuildingBlock: XUDNAN_clean_linker_2, # of connection points: 2
#     Edge 9, Type (0, 0), BuildingBlock: XUDNAN_clean_linker_2, # of connection points: 2
#     Edge 10, Type (0, 0), BuildingBlock: XUDNAN_clean_linker_2, # of connection points: 2
#     Edge 11, Type (0, 0), BuildingBlock: XUDNAN_clean_linker_2, # of connection points: 2
#     Edge 12, Type (0, 0), BuildingBlock: XUDNAN_clean_linker_2, # of connection points: 2
#     Edge 13, Type (0, 0), BuildingBlock: XUDNAN_clean_linker_2, # of connection points: 2
#     Edge 14, Type (0, 0), BuildingBlock: XUDNAN_clean_linker_2, # of connection points: 2
#     Edge 15, Type (0, 0), BuildingBlock: XUDNAN_clean_linker_2, # of connection points: 2
#     Edge 16, Type (0, 0), BuildingBlock: XUDNAN_clean_linker_2, # of connection points: 2
#     Edge 17, Type (0, 0), BuildingBlock: XUDNAN_clean_linker_2, # of connection points: 2
#     Edge 18, Type (0, 0), BuildingBlock: XUDNAN_clean_linker_2, # of connection points: 2
#     Edge 19, Type (0, 0), BuildingBlock: XUDNAN_clean_linker_2, # of connection points: 2
#     Edge 20, Type (0, 0), BuildingBlock: XUDNAN_clean_linker_2, # of connection points: 2
#     Edge 21, Type (0, 0), BuildingBlock: XUDNAN_clean_linker_2, # of connection points: 2
#     Edge 22, Type (0, 0), BuildingBlock: XUDNAN_clean_linker_2, # of connection points: 2
#     Edge 23, Type (0, 0), BuildingBlock: XUDNAN_clean_linker_2, # of connection points: 2
# Relax obj value: 0.072
# Max RMSD: 0.101
# Mean RMSD: 0.101
data_MOF--net-uoc--node1-QUQFOY_clean_sbu_1--edge1-XUDNAN_clean_linker_2
_symmetry_space_group_name_H-M    P1
_symmetry_Int_Tables_number       1
_symmetry_cell_setting            triclinic
loop_
_symmetry_equiv_pos_as_xyz
'x, y, z'
_cell_length_a     27.646853
_cell_length_b     27.619462
_cell_length_c     56.057181
_cell_angle_alpha  90.008951
_cell_angle_beta   90.00824
_cell_angle_gamma 111.79902
loop_
_atom_site_label
_atom_site_type_symbol
_atom_site_fract_x
_atom_site_fract_y
_atom_site_fract_z
_atom_type_partial_charge
O0 O 0.15398 0.20836 0.12625 0.0
Cd1 Cd 0.1995 0.28473 0.13245 0.0
Cd2 Cd 0.10445 0.28693 0.14333 0.0
O3 O 0.07552 0.20965 0.13186 0.0
O4 O 0.26444 0.29216 0.11468 0.0
O5 O 0.2132 0.33422 0.10469 0.0
C6 C 0.25277 0.32174 0.09979 0.0
C7 C 0.07085 0.34781 0.12926 0.0
C8 C 0.10484 0.1851 0.12631 0.0
C9 C 0.18408 0.30623 0.18326 0.0
O10 O 0.13815 0.30064 0.17689 0.0
O11 O 0.21717 0.30399 0.16793 0.0
O12 O 0.04691 0.31415 0.14538 0.0
O13 O 0.11332 0.34604 0.12042 0.0
O14 O 0.69514 0.63115 0.39894 0.0
Cd15 Cd 0.76948 0.68431 0.39445 0.0
Cd16 Cd 0.79359 0.59788 0.39771 0.0
O17 O 0.71855 0.56725 0.41143 0.0
O18 O 0.77151 0.75041 0.4096 0.0
O19 O 0.81134 0.70095 0.42473 0.0
C20 C 0.79696 0.74029 0.42702 0.0
C21 C 0.85723 0.56738 0.41159 0.0
C22 C 0.68351 0.58617 0.40808 0.0
C23 C 0.80401 0.65479 0.3495 0.0
O24 O 0.8016 0.61517 0.36171 0.0
O25 O 0.7972 0.69305 0.35959 0.0
O26 O 0.81973 0.53942 0.39803 0.0
O27 O 0.85775 0.6122 0.41841 0.0
O28 O 0.34977 0.28763 0.62759 0.0
Cd29 Cd 0.30471 0.21077 0.63308 0.0
Cd30 Cd 0.40126 0.20902 0.64276 0.0
O31 O 0.42871 0.28629 0.63132 0.0
O32 O 0.23679 0.20566 0.61884 0.0
O33 O 0.28556 0.16568 0.60355 0.0
C34 C 0.24523 0.17847 0.60181 0.0
C35 C 0.43513 0.14866 0.6283 0.0
C36 C 0.39889 0.31095 0.62686 0.0
C37 C 0.32374 0.18793 0.68348 0.0
O38 O 0.36978 0.19509 0.67672 0.0
O39 O 0.28966 0.18925 0.66849 0.0
O40 O 0.45964 0.18296 0.64409 0.0
O41 O 0.39196 0.14965 0.61991 0.0
O42 O 0.81661 0.86293 0.89848 0.0
Cd43 Cd 0.74199 0.81028 0.89399 0.0
Cd44 Cd 0.7184 0.89689 0.89761 0.0
O45 O 0.79351 0.92678 0.91131 0.0
O46 O 0.73889 0.74398 0.9093 0.0
O47 O 0.70005 0.79452 0.92423 0.0
C48 C 0.7137 0.75473 0.92664 0.0
C49 C 0.65529 0.92796 0.91166 0.0
C50 C 0.82841 0.90775 0.90782 0.0
C51 C 0.70716 0.84037 0.84925 0.0
O52 O 0.70994 0.87995 0.86158 0.0
O53 O 0.71394 0.80194 0.85918 0.0
O54 O 0.69291 0.9558 0.89814 0.0
O55 O 0.65441 0.88295 0.91838 0.0
O56 O 0.63231 0.70114 0.62652 0.0
Cd57 Cd 0.68998 0.77375 0.62804 0.0
Cd58 Cd 0.60514 0.8049 0.63191 0.0
O59 O 0.56564 0.72662 0.62357 0.0
O60 O 0.74773 0.77245 0.60685 0.0
O61 O 0.69869 0.81836 0.59893 0.0
C62 C 0.73462 0.80173 0.59226 0.0
C63 C 0.56949 0.86644 0.62016 0.0
C64 C 0.5839 0.6905 0.62358 0.0
C65 C 0.68217 0.82065 0.67409 0.0
O66 O 0.64108 0.82292 0.66484 0.0
O67 O 0.71157 0.80357 0.66211 0.0
O68 O 0.54946 0.8338 0.63712 0.0
O69 O 0.60871 0.863 0.60882 0.0
O70 O 0.22591 0.13492 0.91755 0.0
Cd71 Cd 0.2991 0.1874 0.91013 0.0
Cd72 Cd 0.30908 0.09314 0.89738 0.0
O73 O 0.23243 0.0595 0.90901 0.0
O74 O 0.29519 0.25267 0.92378 0.0
O75 O 0.34621 0.21492 0.93868 0.0
C76 C 0.32673 0.25067 0.9403 0.0
C77 C 0.37168 0.06023 0.90969 0.0
C78 C 0.20584 0.08554 0.91637 0.0
C79 C 0.32075 0.17332 0.85852 0.0
O80 O 0.32015 0.1286 0.86429 0.0
O81 O 0.31523 0.20408 0.87427 0.0
O82 O 0.33815 0.03738 0.89336 0.0
O83 O 0.3691 0.10139 0.91966 0.0
O84 O 0.87248 0.79459 0.12693 0.0
Cd85 Cd 0.81538 0.72167 0.12838 0.0
Cd86 Cd 0.90069 0.69141 0.13187 0.0
O87 O 0.93937 0.76964 0.12323 0.0
O88 O 0.75761 0.72218 0.107 0.0
O89 O 0.80768 0.67723 0.09928 0.0
C90 C 0.77147 0.69332 0.09246 0.0
C91 C 0.93671 0.63013 0.12024 0.0
C92 C 0.92081 0.80554 0.12356 0.0
C93 C 0.8242 0.67512 0.17431 0.0
O94 O 0.86544 0.67351 0.16494 0.0
O95 O 0.79417 0.69155 0.16242 0.0
O96 O 0.95695 0.6633 0.13699 0.0
O97 O 0.89713 0.63298 0.10899 0.0
O98 O 0.28515 0.35965 0.41749 0.0
Cd99 Cd 0.21143 0.30877 0.40985 0.0
Cd100 Cd 0.20319 0.40179 0.39688 0.0
O101 O 0.27988 0.43532 0.40851 0.0
O102 O 0.20989 0.24521 0.42729 0.0
O103 O 0.15964 0.28855 0.43686 0.0
C104 C 0.17679 0.25206 0.44177 0.0
C105 C 0.14079 0.43505 0.40911 0.0
C106 C 0.30592 0.40895 0.41612 0.0
C107 C 0.19105 0.32064 0.35826 0.0
O108 O 0.19179 0.36548 0.36395 0.0
O109 O 0.19638 0.28997 0.37411 0.0
O110 O 0.17424 0.45761 0.3927 0.0
O111 O 0.14336 0.394 0.41918 0.0
H112 H 0.31472 0.27615 0.07928 0.0
H113 H 0.24656 0.39209 0.0665 0.0
H114 H 0.27536 0.39886 0.02449 0.0
H115 H 0.42613 0.32711 0.03495 0.0
H116 H 0.41846 0.26165 0.02657 0.0
H117 H 0.4042 0.27533 0.05666 0.0
H118 H 0.31163 0.20426 0.05301 0.0
H119 H 0.32542 0.19059 0.02302 0.0
H120 H 0.26985 0.20798 0.02894 0.0
H121 H 0.29649 0.38121 0.98286 0.0
H122 H 0.30562 0.33922 0.94521 0.0
H123 H 0.35889 0.23338 0.98463 0.0
C124 C 0.30782 0.30464 0.06792 0.0
C125 C 0.27905 0.3342 0.07628 0.0
C126 C 0.2691 0.36957 0.06059 0.0
C127 C 0.28546 0.37374 0.03669 0.0
C128 C 0.31184 0.34238 0.02875 0.0
C129 C 0.32328 0.30872 0.04398 0.0
C130 C 0.34502 0.27377 0.03041 0.0
C131 C 0.40184 0.28517 0.03758 0.0
C132 C 0.31093 0.21576 0.03406 0.0
C133 C 0.34156 0.29111 1.00504 0.0
C134 C 0.32348 0.33158 1.00451 0.0
C135 C 0.31182 0.35041 0.98308 0.0
C136 C 0.31709 0.32624 0.96175 0.0
C137 C 0.33355 0.28339 0.96195 0.0
C138 C 0.34763 0.26694 0.98385 0.0
H139 H 0.78562 0.71629 0.31385 0.0
H140 H 0.83845 0.58835 0.32563 0.0
H141 H 0.84255 0.5767 0.28241 0.0
H142 H 0.70514 0.66068 0.2627 0.0
H143 H 0.72199 0.72134 0.2467 0.0
H144 H 0.72347 0.72133 0.27884 0.0
H145 H 0.8197 0.78523 0.27843 0.0
H146 H 0.81821 0.78609 0.24631 0.0
H147 H 0.86697 0.76883 0.26153 0.0
H148 H 0.84102 0.57724 0.23863 0.0
H149 H 0.84112 0.59533 0.19562 0.0
H150 H 0.78837 0.72197 0.21029 0.0
C151 C 0.79863 0.6863 0.3073 0.0
C152 C 0.81157 0.65317 0.32329 0.0
C153 C 0.82806 0.61413 0.3139 0.0
C154 C 0.8304 0.60699 0.28931 0.0
C155 C 0.81615 0.63916 0.2741 0.0
C156 C 0.80115 0.67845 0.28256 0.0
C157 C 0.78877 0.7078 0.26193 0.0
C158 C 0.73142 0.70245 0.26259 0.0
C159 C 0.82561 0.7654 0.26206 0.0
C160 C 0.79937 0.67881 0.2407 0.0
C161 C 0.81485 0.63922 0.24832 0.0
C162 C 0.82874 0.60795 0.2324 0.0
C163 C 0.82847 0.61838 0.208 0.0
C164 C 0.8141 0.6595 0.19962 0.0
C165 C 0.79825 0.68945 0.21618 0.0
H166 H 0.27125 0.15371 0.55756 0.0
H167 H 0.15099 0.18766 0.59558 0.0
H168 H 0.10988 0.19434 0.55733 0.0
H169 H 0.2909 0.24457 0.51512 0.0
H170 H 0.30229 0.20811 0.49053 0.0
H171 H 0.31497 0.19316 0.52049 0.0
H172 H 0.25301 0.09702 0.51471 0.0
H173 H 0.2404 0.11158 0.48452 0.0
H174 H 0.18701 0.08259 0.50491 0.0
H175 H 0.09296 0.21589 0.51562 0.0
H176 H 0.10026 0.24727 0.47398 0.0
H177 H 0.23006 0.19769 0.46267 0.0
C178 C 0.23492 0.16012 0.55786 0.0
C179 C 0.21405 0.16962 0.57958 0.0
C180 C 0.16746 0.17978 0.57919 0.0
C181 C 0.14373 0.18358 0.55751 0.0
C182 C 0.16675 0.17665 0.53632 0.0
C183 C 0.21092 0.16433 0.53632 0.0
C184 C 0.23188 0.16562 0.51124 0.0
C185 C 0.28831 0.20523 0.50925 0.0
C186 C 0.22781 0.11094 0.50338 0.0
C187 C 0.19437 0.18332 0.49735 0.0
C188 C 0.15652 0.18864 0.51205 0.0
C189 C 0.12144 0.21043 0.50379 0.0
C190 C 0.12591 0.22826 0.48011 0.0
C191 C 0.16517 0.22423 0.46495 0.0
C192 C 0.19868 0.2 0.47359 0.0
H193 H 0.72471 0.77909 0.81325 0.0
H194 H 0.67215 0.90694 0.82585 0.0
H195 H 0.66673 0.91867 0.7827 0.0
H196 H 0.80365 0.83496 0.76167 0.0
H197 H 0.7864 0.77434 0.7456 0.0
H198 H 0.78591 0.7743 0.77775 0.0
H199 H 0.68973 0.71026 0.77784 0.0
H200 H 0.69022 0.70946 0.74571 0.0
H201 H 0.64188 0.72659 0.76136 0.0
H202 H 0.66682 0.91815 0.73891 0.0
H203 H 0.66552 0.90021 0.69584 0.0
H204 H 0.71894 0.7737 0.70969 0.0
C205 C 0.71149 0.80909 0.80689 0.0
C206 C 0.699 0.84216 0.82308 0.0
C207 C 0.68222 0.88121 0.81395 0.0
C208 C 0.67912 0.88839 0.7894 0.0
C209 C 0.69291 0.85626 0.77398 0.0
C210 C 0.70823 0.81699 0.78219 0.0
C211 C 0.72003 0.78772 0.76138 0.0
C212 C 0.77742 0.79317 0.76162 0.0
C213 C 0.68327 0.73009 0.76158 0.0
C214 C 0.70872 0.8167 0.74033 0.0
C215 C 0.6934 0.85624 0.74819 0.0
C216 C 0.67897 0.88749 0.73247 0.0
C217 C 0.67855 0.87714 0.70804 0.0
C218 C 0.69276 0.8361 0.69942 0.0
C219 C 0.70914 0.80614 0.71576 0.0
H220 H 0.14463 0.35246 0.32143 0.0
H221 H 0.23891 0.26118 0.33723 0.0
H222 H 0.25095 0.25124 0.29403 0.0
H223 H 0.07931 0.27477 0.26944 0.0
H224 H 0.07724 0.33077 0.25361 0.0
H225 H 0.07574 0.32963 0.28573 0.0
H226 H 0.15587 0.41646 0.2865 0.0
H227 H 0.15828 0.4173 0.25439 0.0
H228 H 0.21477 0.42047 0.27136 0.0
H229 H 0.25943 0.25857 0.24912 0.0
H230 H 0.24982 0.26768 0.20567 0.0
H231 H 0.14414 0.34788 0.2191 0.0
C232 C 0.16713 0.32969 0.31577 0.0
C233 C 0.19086 0.30756 0.33265 0.0
C234 C 0.21995 0.27799 0.32459 0.0
C235 C 0.22743 0.2726 0.3001 0.0
C236 C 0.20472 0.29616 0.28392 0.0
C237 C 0.17396 0.32289 0.2914 0.0
C238 C 0.15248 0.34298 0.27035 0.0
C239 C 0.09264 0.31803 0.26975 0.0
C240 C 0.1715 0.40285 0.27068 0.0
C241 C 0.17652 0.32398 0.24985 0.0
C242 C 0.20727 0.29787 0.25807 0.0
C243 C 0.23495 0.27839 0.24249 0.0
C244 C 0.22968 0.28421 0.21785 0.0
C245 C 0.19624 0.30844 0.20904 0.0
C246 C 0.16989 0.32909 0.22533 0.0
H247 H 0.78405 0.74718 0.56804 0.0
H248 H 0.73025 0.87518 0.56032 0.0
H249 H 0.75394 0.88204 0.51759 0.0
H250 H 0.89216 0.79262 0.52313 0.0
H251 H 0.8785 0.72711 0.51272 0.0
H252 H 0.86627 0.73843 0.54341 0.0
H253 H 0.77045 0.67475 0.53895 0.0
H254 H 0.78235 0.66333 0.50833 0.0
H255 H 0.73066 0.6857 0.51567 0.0
H256 H 0.77246 0.86745 0.47487 0.0
H257 H 0.78101 0.83078 0.43566 0.0
H258 H 0.8216 0.71115 0.47083 0.0
C259 C 0.77893 0.77785 0.55756 0.0
C260 C 0.75601 0.81122 0.56764 0.0
C261 C 0.74825 0.84959 0.55308 0.0
C262 C 0.76173 0.85385 0.52878 0.0
C263 C 0.78292 0.8194 0.51924 0.0
C264 C 0.79161 0.78219 0.53321 0.0
C265 C 0.80913 0.74604 0.51814 0.0
C266 C 0.86484 0.75139 0.52475 0.0
C267 C 0.77086 0.68912 0.52041 0.0
C268 C 0.8073 0.7676 0.49341 0.0
C269 C 0.79296 0.81048 0.49448 0.0
C270 C 0.78459 0.8345 0.47386 0.0
C271 C 0.78958 0.81336 0.45162 0.0
C272 C 0.80255 0.7684 0.45009 0.0
C273 C 0.81287 0.74625 0.47133 0.0
H274 H 0.36606 0.14741 0.71893 0.0
H275 H 0.25731 0.22451 0.70644 0.0
H276 H 0.24847 0.23317 0.74995 0.0
H277 H 0.29722 0.07352 0.77118 0.0
H278 H 0.35667 0.07836 0.78603 0.0
H279 H 0.35377 0.07806 0.75393 0.0
H280 H 0.43345 0.16523 0.75303 0.0
H281 H 0.43594 0.16634 0.78514 0.0
H282 H 0.43078 0.22076 0.76909 0.0
H283 H 0.25804 0.24081 0.79466 0.0
H284 H 0.27124 0.23133 0.83775 0.0
H285 H 0.36744 0.14226 0.82143 0.0
C286 C 0.33981 0.16541 0.7254 0.0
C287 C 0.31236 0.18534 0.70934 0.0
C288 C 0.2783 0.20854 0.71843 0.0
C289 C 0.27344 0.2141 0.74311 0.0
C290 C 0.3021 0.19531 0.75845 0.0
C291 C 0.33348 0.1701 0.74999 0.0
C292 C 0.35846 0.15166 0.77035 0.0
C293 C 0.34043 0.09185 0.77037 0.0
C294 C 0.4182 0.17756 0.76933 0.0
C295 C 0.33677 0.17104 0.79156 0.0
C296 C 0.30515 0.19699 0.78427 0.0
C297 C 0.28221 0.22003 0.80058 0.0
C298 C 0.29036 0.21491 0.82501 0.0
C299 C 0.32033 0.18609 0.83291 0.0
C300 C 0.34428 0.16445 0.81589 0.0
H301 H 0.72296 0.7481 0.0678 0.0
H302 H 0.77635 0.61967 0.06076 0.0
H303 H 0.75378 0.61282 0.01789 0.0
H304 H 0.61609 0.70315 0.02225 0.0
H305 H 0.6304 0.76871 1.01177 0.0
H306 H 0.64169 0.75733 0.04257 0.0
H307 H 0.73779 0.82058 0.0386 0.0
H308 H 0.72683 0.83205 1.00788 0.0
H309 H 0.77807 0.80934 1.01564 0.0
H310 H 0.73636 0.62737 0.97502 0.0
H311 H 0.72896 0.66403 0.93566 0.0
H312 H 0.68832 0.78427 0.97024 0.0
C313 C 0.7282 0.71733 0.05743 0.0
C314 C 0.75066 0.68382 0.06775 0.0
C315 C 0.75866 0.64535 0.05333 0.0
C316 C 0.74582 0.64111 0.02896 0.0
C317 C 0.72507 0.67569 0.01919 0.0
C318 C 0.7162 0.71303 0.03301 0.0
C319 C 0.69934 0.74934 1.01772 0.0
C320 C 0.64356 0.74431 0.02395 0.0
C321 C 0.73781 0.80616 0.0201 0.0
C322 C 0.70173 0.72769 0.99306 0.0
C323 C 0.71577 0.68465 0.99434 0.0
C324 C 0.72448 0.66047 0.97384 0.0
C325 C 0.72015 0.6816 0.95151 0.0
C326 C 0.70751 0.72673 0.94977 0.0
C327 C 0.69684 0.74906 0.97089 0.0
H328 H 1.00422 0.11459 0.13307 0.0
H329 H 0.15705 0.12726 0.10785 0.0
H330 H 0.12534 0.03222 0.1026 0.0
H331 H 0.97836 0.00029 0.16662 0.0
H332 H 0.91003 0.97172 0.15938 0.0
H333 H 0.94294 0.04149 0.15928 0.0
H334 H 0.91385 0.04531 0.1156 0.0
H335 H 0.88048 0.97549 0.11563 0.0
H336 H 0.92874 0.00621 0.09314 0.0
H337 H 0.08018 0.93564 0.10334 0.0
H338 H 0.02214 0.84339 0.10809 0.0
H339 H 0.89809 0.89261 0.132 0.0
C340 C 0.03068 0.09746 0.12601 0.0
C341 C 0.08314 0.12853 0.12091 0.0
C342 C 0.11671 0.10442 0.11198 0.0
C343 C 0.09909 0.05037 0.10887 0.0
C344 C 0.04765 0.02074 0.11461 0.0
C345 C 0.0137 0.04331 0.12276 0.0
C346 C 0.96092 0.00208 0.12852 0.0
C347 C 0.94729 0.00403 0.15502 0.0
C348 C 0.91849 0.00761 0.11225 0.0
C349 C 0.97102 0.95302 0.12277 0.0
C350 C 0.02127 0.96469 0.11472 0.0
C351 C 0.04047 0.9259 0.10934 0.0
C352 C 0.00732 0.87364 0.11219 0.0
C353 C 0.95552 0.8607 0.12028 0.0
C354 C 0.93729 0.90113 0.12551 0.0
H355 H 0.08223 0.46527 0.3781 0.0
H356 H 0.10539 0.44758 0.45352 0.0
H357 H 0.03702 0.48296 0.46301 0.0
H358 H 0.05503 0.58225 0.38055 0.0
H359 H 0.00478 0.56103 0.35812 0.0
H360 H 0.05726 0.53729 0.35764 0.0
H361 H 0.9906 0.44204 0.35855 0.0
H362 H 0.93791 0.46547 0.35892 0.0
H363 H 0.9426 0.42197 0.38199 0.0
H364 H 0.9686 0.52578 0.46365 0.0
H365 H 0.89809 0.55915 0.45541 0.0
H366 H 0.91393 0.53765 0.3797 0.0
C367 C 0.07304 0.46917 0.39661 0.0
C368 C 0.09934 0.45457 0.41514 0.0
C369 C 0.08563 0.4589 0.43914 0.0
C370 C 0.04709 0.4791 0.44464 0.0
C371 C 0.0219 0.49344 0.42589 0.0
C372 C 0.0337 0.48757 0.40235 0.0
C373 C 0.99884 0.50231 0.3854 0.0
C374 C 0.03091 0.54846 0.3695 0.0
C375 C 0.96551 0.45513 0.37033 0.0
C376 C 0.96584 0.51798 0.403 0.0
C377 C 0.98023 0.51366 0.42629 0.0
C378 C 0.9566 0.52856 0.44549 0.0
C379 C 0.91684 0.54759 0.4407 0.0
C380 C 0.90048 0.55015 0.417 0.0
C381 C 0.92537 0.53522 0.39801 0.0
H382 H 0.50009 0.38125 0.63211 0.0
H383 H 0.34515 0.36926 0.61046 0.0
H384 H 0.3767 0.46435 0.60541 0.0
H385 H 0.52958 0.49567 0.66616 0.0
H386 H 0.59718 0.52392 0.65761 0.0
H387 H 0.56395 0.45418 0.65767 0.0
H388 H 0.58881 0.45024 0.61333 0.0
H389 H 0.62244 0.52002 0.61319 0.0
H390 H 0.57201 0.48946 0.59158 0.0
H391 H 0.42242 0.56094 0.6058 0.0
H392 H 0.48126 0.65306 0.60997 0.0
H393 H 0.60688 0.60311 0.63067 0.0
C394 C 0.47307 0.39854 0.62589 0.0
C395 C 0.42014 0.36763 0.62171 0.0
C396 C 0.38588 0.39196 0.61387 0.0
C397 C 0.40339 0.44605 0.61088 0.0
C398 C 0.45539 0.47549 0.61567 0.0
C399 C 0.48993 0.45272 0.6228 0.0
C400 C 0.54333 0.49377 0.62769 0.0
C401 C 0.55942 0.49175 0.65383 0.0
C402 C 0.58405 0.48802 0.61041 0.0
C403 C 0.53296 0.54297 0.62261 0.0
C404 C 0.48203 0.53152 0.61563 0.0
C405 C 0.46262 0.57049 0.61098 0.0
C406 C 0.49626 0.62269 0.61348 0.0
C407 C 0.54873 0.6354 0.62052 0.0
C408 C 0.56715 0.59479 0.62501 0.0
H409 H 0.60182 0.96257 0.88007 0.0
H410 H 0.61151 0.93183 0.95531 0.0
H411 H 0.54084 0.96486 0.9637 0.0
H412 H 0.57346 0.07819 0.8847 0.0
H413 H 0.52752 0.06104 0.86038 0.0
H414 H 0.58004 0.03735 0.86081 0.0
H415 H 0.51367 0.9423 0.85733 0.0
H416 H 0.46096 0.9657 0.85678 0.0
H417 H 0.46152 0.91827 0.87875 0.0
H418 H 0.4724 0.00775 0.96342 0.0
H419 H 0.40416 0.04343 0.95409 0.0
H420 H 0.4334 0.03476 0.87862 0.0
C421 C 0.5891 0.96303 0.89832 0.0
C422 C 0.6123 0.94556 0.91715 0.0
C423 C 0.59414 0.94543 0.94073 0.0
C424 C 0.55428 0.96426 0.94561 0.0
C425 C 0.53231 0.98164 0.92658 0.0
C426 C 0.54845 0.98 0.90334 0.0
C427 C 0.51676 -0.00229 0.88584 0.0
C428 C 0.55153 0.04647 0.87213 0.0
C429 C 0.48643 0.95334 0.86867 0.0
C430 C 0.48055 0.01033 0.90279 0.0
C431 C 0.4906 0.00183 0.92627 0.0
C432 C 0.46374 0.01371 0.94508 0.0
C433 C 0.42529 0.0341 0.93967 0.0
C434 C 0.41333 0.041 0.91568 0.0
C435 C 0.44133 0.02893 0.8971 0.0
H436 H 0.96116 0.57197 0.15346 0.0
H437 H 0.95454 0.59232 0.07708 0.0
H438 H 0.98972 0.52252 0.07053 0.0
H439 H 0.07695 0.54392 0.1561 0.0
H440 H 0.0525 0.4947 0.17885 0.0
H441 H 0.02901 0.54729 0.17716 0.0
H442 H 0.93408 0.48059 0.1742 0.0
H443 H 0.95726 0.42777 0.17595 0.0
H444 H 0.91716 0.43148 0.15119 0.0
H445 H 0.03227 0.454 0.07318 0.0
H446 H 0.06601 0.38528 0.08434 0.0
H447 H 0.03356 0.40385 0.15865 0.0
C448 C 0.96736 0.56182 0.13535 0.0
C449 C 0.95606 0.58782 0.11573 0.0
C450 C 0.96335 0.57286 0.09229 0.0
C451 C 0.9834 0.53346 0.08846 0.0
C452 C 0.99451 0.50867 0.10829 0.0
C453 C 0.98564 0.52167 0.13125 0.0
C454 C 0.99783 0.48753 0.14954 0.0
C455 C 0.04168 0.52033 0.1664 0.0
C456 C 0.94865 0.45491 0.16354 0.0
C457 C 0.01575 0.45363 0.13339 0.0
C458 C 0.01451 0.46686 0.10966 0.0
C459 C 0.0325 0.4428 0.09167 0.0
C460 C 0.05171 0.40401 0.09813 0.0
C461 C 0.05145 0.38889 0.12225 0.0
C462 C 0.03311 0.414 0.14 0.0
H463 H 0.37539 0.50452 0.40123 0.0
H464 H 0.36304 0.36896 0.44367 0.0
H465 H 0.45823 0.40326 0.44885 0.0
H466 H 0.48536 0.51111 0.36976 0.0
H467 H 0.51558 0.58123 0.36899 0.0
H468 H 0.4459 0.55036 0.37129 0.0
H469 H 0.44692 0.60258 0.40983 0.0
H470 H 0.5167 0.63414 0.4075 0.0
H471 H 0.48787 0.59996 0.43444 0.0
H472 H 0.55458 0.4459 0.44537 0.0
H473 H 0.6463 0.49745 0.43525 0.0
H474 H 0.59684 0.60591 0.39546 0.0
C475 C 0.39263 0.48292 0.41221 0.0
C476 C 0.3618 0.43418 0.4221 0.0
C477 C 0.38591 0.4064 0.43589 0.0
C478 C 0.43997 0.42558 0.439 0.0
C479 C 0.46948 0.47277 0.42832 0.0
C480 C 0.44677 0.50146 0.41543 0.0
C481 C 0.48783 0.5491 0.40437 0.0
C482 C 0.48338 0.54783 0.37699 0.0
C483 C 0.48464 0.59943 0.41466 0.0
C484 C 0.53692 0.54176 0.41252 0.0
C485 C 0.52547 0.49768 0.42644 0.0
C486 C 0.56418 0.48103 0.43482 0.0
C487 C 0.61612 0.51038 0.42886 0.0
C488 C 0.62879 0.55583 0.41468 0.0
C489 C 0.58852 0.57172 0.40659 0.0
H490 H 0.47558 0.09528 0.6576 0.0
H491 H 0.43683 0.1084 0.58363 0.0
H492 H 0.47033 0.03937 0.57266 0.0
H493 H 0.59181 0.06816 0.64876 0.0
H494 H 0.57717 0.02096 0.67255 0.0
H495 H 0.5536 0.07355 0.67396 0.0
H496 H 0.45911 0.00687 0.67887 0.0
H497 H 0.4824 0.9541 0.67752 0.0
H498 H 0.43276 0.95583 0.65705 0.0
H499 H 0.513 0.97086 0.5701 0.0
H500 H 0.54859 0.90142 0.57689 0.0
H501 H 0.54824 0.92733 0.65308 0.0
C502 C 0.47464 0.08392 0.63906 0.0
C503 C 0.45457 0.10757 0.62135 0.0
C504 C 0.4525 0.09083 0.59738 0.0
C505 C 0.47156 0.05186 0.59103 0.0
C506 C 0.49127 0.02926 0.60898 0.0
C507 C 0.49188 0.04411 0.63258 0.0
C508 C 0.51133 0.01148 0.64881 0.0
C509 C 0.56146 0.04558 0.66178 0.0
C510 C 0.46886 0.98021 0.66661 0.0
C511 C 0.52208 0.97612 0.6307 0.0
C512 C 0.51134 0.98748 0.60775 0.0
C513 C 0.52081 0.96124 0.58804 0.0
C514 C 0.54112 0.92207 0.592 0.0
C515 C 0.55028 0.90877 0.61548 0.0
C516 C 0.54066 0.93624 0.63496 0.0
H517 H 0.91519 0.88882 0.89455 0.0
H518 H 0.86548 0.99493 0.93597 0.0
H519 H 0.95712 0.04607 0.94635 0.0
H520 H 0.02438 0.89293 0.93303 0.0
H521 H 0.06507 0.89161 0.90811 0.0
H522 H 0.99527 0.86024 0.90581 0.0
H523 H 0.99591 0.91486 0.86814 0.0
H524 H 0.06559 0.94613 0.87025 0.0
H525 H 0.02569 0.98497 0.8696 0.0
H526 H 0.05336 0.08879 0.94994 0.0
H527 H 0.14857 0.12376 0.9447 0.0
H528 H 0.1367 0.99053 0.90065 0.0
C529 C 0.92347 0.92237 0.9061 0.0
C530 C 0.88313 0.93775 0.91457 0.0
C531 C 0.89571 0.98241 0.92929 0.0
C532 C 0.9476 0.0115 0.9354 0.0
C533 C 0.98639 0.9954 0.92665 0.0
C534 C 0.97505 0.95203 0.91224 0.0
C535 C 0.0243 0.94547 0.9037 0.0
C536 C 0.02742 0.89453 0.91324 0.0
C537 C 0.02808 0.94804 0.8763 0.0
C538 C 0.06521 0.99265 0.91515 0.0
C539 C 0.04236 0.02045 0.92856 0.0
C540 C 0.07174 0.06712 0.93971 0.0
C541 C 0.12579 0.08667 0.93658 0.0
C542 C 0.15004 0.05973 0.92234 0.0
C543 C 0.11936 0.01145 0.91198 0.0
loop_
_geom_bond_atom_site_label_1
_geom_bond_atom_site_label_2
_geom_bond_distance
_geom_bond_site_symmetry_2
_ccdc_geom_bond_type
O0 Cd1 2.223 . S
O0 C8 1.315 . S
Cd1 O0 2.223 . S
Cd1 O4 2.297 . S
Cd1 O5 2.439 . S
Cd1 O11 2.240 . S
Cd2 O3 2.240 . S
Cd2 O10 2.223 . S
Cd2 O12 2.297 . S
Cd2 O13 2.439 . S
O3 Cd2 2.240 . S
O3 C8 1.279 . S
O4 Cd1 2.297 . S
O4 C6 1.247 . S
O5 Cd1 2.439 . S
O5 C6 1.208 . S
C6 O4 1.247 . S
C6 O5 1.208 . S
C7 O12 1.247 . S
C7 O13 1.208 . S
C8 O0 1.315 . S
C8 O3 1.279 . S
C9 O10 1.315 . S
C9 O11 1.279 . S
O10 Cd2 2.223 . S
O10 C9 1.315 . S
O11 Cd1 2.240 . S
O11 C9 1.279 . S
O12 Cd2 2.297 . S
O12 C7 1.247 . S
O13 Cd2 2.439 . S
O13 C7 1.208 . S
O14 Cd15 2.223 . S
O14 C22 1.315 . S
Cd15 O14 2.223 . S
Cd15 O18 2.297 . S
Cd15 O19 2.439 . S
Cd15 O25 2.240 . S
Cd16 O17 2.240 . S
Cd16 O24 2.223 . S
Cd16 O26 2.297 . S
Cd16 O27 2.439 . S
O17 Cd16 2.240 . S
O17 C22 1.279 . S
O18 Cd15 2.297 . S
O18 C20 1.247 . S
O19 Cd15 2.439 . S
O19 C20 1.208 . S
C20 O18 1.247 . S
C20 O19 1.208 . S
C21 O26 1.247 . S
C21 O27 1.208 . S
C22 O14 1.315 . S
C22 O17 1.279 . S
C23 O24 1.315 . S
C23 O25 1.279 . S
O24 Cd16 2.223 . S
O24 C23 1.315 . S
O25 Cd15 2.240 . S
O25 C23 1.279 . S
O26 Cd16 2.297 . S
O26 C21 1.247 . S
O27 Cd16 2.439 . S
O27 C21 1.208 . S
O28 Cd29 2.223 . S
O28 C36 1.315 . S
Cd29 O28 2.223 . S
Cd29 O32 2.297 . S
Cd29 O33 2.439 . S
Cd29 O39 2.240 . S
Cd30 O31 2.240 . S
Cd30 O38 2.223 . S
Cd30 O40 2.297 . S
Cd30 O41 2.439 . S
O31 Cd30 2.240 . S
O31 C36 1.279 . S
O32 Cd29 2.297 . S
O32 C34 1.247 . S
O33 Cd29 2.439 . S
O33 C34 1.208 . S
C34 O32 1.247 . S
C34 O33 1.208 . S
C35 O40 1.247 . S
C35 O41 1.208 . S
C36 O28 1.315 . S
C36 O31 1.279 . S
C37 O38 1.315 . S
C37 O39 1.279 . S
O38 Cd30 2.223 . S
O38 C37 1.315 . S
O39 Cd29 2.240 . S
O39 C37 1.279 . S
O40 Cd30 2.297 . S
O40 C35 1.247 . S
O41 Cd30 2.439 . S
O41 C35 1.208 . S
O42 Cd43 2.223 . S
O42 C50 1.315 . S
Cd43 O42 2.223 . S
Cd43 O46 2.297 . S
Cd43 O47 2.439 . S
Cd43 O53 2.240 . S
Cd44 O45 2.240 . S
Cd44 O52 2.223 . S
Cd44 O54 2.297 . S
Cd44 O55 2.439 . S
O45 Cd44 2.240 . S
O45 C50 1.279 . S
O46 Cd43 2.297 . S
O46 C48 1.247 . S
O47 Cd43 2.439 . S
O47 C48 1.208 . S
C48 O46 1.247 . S
C48 O47 1.208 . S
C49 O54 1.247 . S
C49 O55 1.208 . S
C50 O42 1.315 . S
C50 O45 1.279 . S
C51 O52 1.315 . S
C51 O53 1.279 . S
O52 Cd44 2.223 . S
O52 C51 1.315 . S
O53 Cd43 2.240 . S
O53 C51 1.279 . S
O54 Cd44 2.297 . S
O54 C49 1.247 . S
O55 Cd44 2.439 . S
O55 C49 1.208 . S
O56 Cd57 2.223 . S
O56 C64 1.315 . S
Cd57 O56 2.223 . S
Cd57 O60 2.297 . S
Cd57 O61 2.439 . S
Cd57 O67 2.240 . S
Cd58 O59 2.240 . S
Cd58 O66 2.223 . S
Cd58 O68 2.297 . S
Cd58 O69 2.439 . S
O59 Cd58 2.240 . S
O59 C64 1.279 . S
O60 Cd57 2.297 . S
O60 C62 1.247 . S
O61 Cd57 2.439 . S
O61 C62 1.208 . S
C62 O60 1.247 . S
C62 O61 1.208 . S
C63 O68 1.247 . S
C63 O69 1.208 . S
C64 O56 1.315 . S
C64 O59 1.279 . S
C65 O66 1.315 . S
C65 O67 1.279 . S
O66 Cd58 2.223 . S
O66 C65 1.315 . S
O67 Cd57 2.240 . S
O67 C65 1.279 . S
O68 Cd58 2.297 . S
O68 C63 1.247 . S
O69 Cd58 2.439 . S
O69 C63 1.208 . S
O70 Cd71 2.223 . S
O70 C78 1.315 . S
Cd71 O70 2.223 . S
Cd71 O74 2.297 . S
Cd71 O75 2.439 . S
Cd71 O81 2.240 . S
Cd72 O73 2.240 . S
Cd72 O80 2.223 . S
Cd72 O82 2.297 . S
Cd72 O83 2.439 . S
O73 Cd72 2.240 . S
O73 C78 1.279 . S
O74 Cd71 2.297 . S
O74 C76 1.247 . S
O75 Cd71 2.439 . S
O75 C76 1.208 . S
C76 O74 1.247 . S
C76 O75 1.208 . S
C77 O82 1.247 . S
C77 O83 1.208 . S
C78 O70 1.315 . S
C78 O73 1.279 . S
C79 O80 1.315 . S
C79 O81 1.279 . S
O80 Cd72 2.223 . S
O80 C79 1.315 . S
O81 Cd71 2.240 . S
O81 C79 1.279 . S
O82 Cd72 2.297 . S
O82 C77 1.247 . S
O83 Cd72 2.439 . S
O83 C77 1.208 . S
O84 Cd85 2.223 . S
O84 C92 1.315 . S
Cd85 O84 2.223 . S
Cd85 O88 2.297 . S
Cd85 O89 2.439 . S
Cd85 O95 2.240 . S
Cd86 O87 2.240 . S
Cd86 O94 2.223 . S
Cd86 O96 2.297 . S
Cd86 O97 2.439 . S
O87 Cd86 2.240 . S
O87 C92 1.279 . S
O88 Cd85 2.297 . S
O88 C90 1.247 . S
O89 Cd85 2.439 . S
O89 C90 1.208 . S
C90 O88 1.247 . S
C90 O89 1.208 . S
C91 O96 1.247 . S
C91 O97 1.208 . S
C92 O84 1.315 . S
C92 O87 1.279 . S
C93 O94 1.315 . S
C93 O95 1.279 . S
O94 Cd86 2.223 . S
O94 C93 1.315 . S
O95 Cd85 2.240 . S
O95 C93 1.279 . S
O96 Cd86 2.297 . S
O96 C91 1.247 . S
O97 Cd86 2.439 . S
O97 C91 1.208 . S
O98 Cd99 2.223 . S
O98 C106 1.315 . S
Cd99 O98 2.223 . S
Cd99 O102 2.297 . S
Cd99 O103 2.439 . S
Cd99 O109 2.240 . S
Cd100 O101 2.240 . S
Cd100 O108 2.223 . S
Cd100 O110 2.297 . S
Cd100 O111 2.439 . S
O101 Cd100 2.240 . S
O101 C106 1.279 . S
O102 Cd99 2.297 . S
O102 C104 1.247 . S
O103 Cd99 2.439 . S
O103 C104 1.208 . S
C104 O102 1.247 . S
C104 O103 1.208 . S
C105 O110 1.247 . S
C105 O111 1.208 . S
C106 O98 1.315 . S
C106 O101 1.279 . S
C107 O108 1.315 . S
C107 O109 1.279 . S
O108 Cd100 2.223 . S
O108 C107 1.315 . S
O109 Cd99 2.240 . S
O109 C107 1.279 . S
O110 Cd100 2.297 . S
O110 C105 1.247 . S
O111 Cd100 2.439 . S
O111 C105 1.208 . S
H112 C124 0.930 . S
H113 C126 0.930 . S
H114 C127 0.930 . S
H115 C131 0.959 . S
H116 C131 0.959 . S
H117 C131 0.961 . S
H118 C132 0.960 . S
H119 C132 0.942 1_556 S
H120 C132 0.959 . S
H121 C135 0.929 . S
H122 C136 0.931 . S
H123 C138 0.930 . S
C124 H112 0.930 . S
C124 C125 1.399 . S
C124 C129 1.399 . S
C125 C124 1.399 . S
C125 C126 1.376 . S
C126 H113 0.930 . S
C126 C125 1.376 . S
C126 C127 1.388 . S
C127 H114 0.930 . S
C127 C126 1.388 . S
C127 C128 1.390 . S
C128 C127 1.390 . S
C128 C129 1.394 . S
C128 C134 1.465 1_554 S
C129 C124 1.399 . S
C129 C128 1.394 . S
C129 C130 1.516 . S
C130 C129 1.516 . S
C130 C131 1.502 . S
C130 C132 1.561 . S
C130 C133 1.526 1_554 S
C131 H115 0.959 . S
C131 H116 0.959 . S
C131 H117 0.961 . S
C131 C130 1.502 . S
C132 H118 0.960 . S
C132 H119 0.942 1_554 S
C132 H120 0.959 . S
C132 C130 1.561 . S
C133 C130 1.526 1_556 S
C133 C134 1.396 . S
C133 C138 1.390 . S
C134 C128 1.465 1_556 S
C134 C133 1.396 . S
C134 C135 1.399 . S
C135 H121 0.929 . S
C135 C134 1.399 . S
C135 C136 1.385 . S
C136 H122 0.931 . S
C136 C135 1.385 . S
C136 C137 1.389 . S
C137 C136 1.389 . S
C137 C138 1.387 . S
C138 H123 0.930 . S
C138 C133 1.390 . S
C138 C137 1.387 . S
H139 C151 0.930 . S
H140 C153 0.930 . S
H141 C154 0.930 . S
H142 C158 0.959 . S
H143 C158 0.959 . S
H144 C158 0.961 . S
H145 C159 0.960 . S
H146 C159 0.961 . S
H147 C159 0.959 . S
H148 C162 0.929 . S
H149 C163 0.931 . S
H150 C165 0.930 . S
C151 H139 0.930 . S
C151 C152 1.399 . S
C151 C156 1.399 . S
C152 C151 1.399 . S
C152 C153 1.376 . S
C153 H140 0.930 . S
C153 C152 1.376 . S
C153 C154 1.388 . S
C154 H141 0.930 . S
C154 C153 1.388 . S
C154 C155 1.390 . S
C155 C154 1.390 . S
C155 C156 1.394 . S
C155 C161 1.465 . S
C156 C151 1.399 . S
C156 C155 1.394 . S
C156 C157 1.516 . S
C157 C156 1.516 . S
C157 C158 1.502 . S
C157 C159 1.561 . S
C157 C160 1.526 . S
C158 H142 0.959 . S
C158 H143 0.959 . S
C158 H144 0.961 . S
C158 C157 1.502 . S
C159 H145 0.960 . S
C159 H146 0.961 . S
C159 H147 0.959 . S
C159 C157 1.561 . S
C160 C157 1.526 . S
C160 C161 1.396 . S
C160 C165 1.390 . S
C161 C155 1.465 . S
C161 C160 1.396 . S
C161 C162 1.399 . S
C162 H148 0.929 . S
C162 C161 1.399 . S
C162 C163 1.385 . S
C163 H149 0.931 . S
C163 C162 1.385 . S
C163 C164 1.389 . S
C164 C163 1.389 . S
C164 C165 1.387 . S
C165 H150 0.930 . S
C165 C160 1.390 . S
C165 C164 1.387 . S
H166 C178 0.930 . S
H167 C180 0.930 . S
H168 C181 0.930 . S
H169 C185 0.959 . S
H170 C185 0.959 . S
H171 C185 0.961 . S
H172 C186 0.960 . S
H173 C186 0.961 . S
H174 C186 0.959 . S
H175 C189 0.929 . S
H176 C190 0.931 . S
H177 C192 0.930 . S
C178 H166 0.930 . S
C178 C179 1.399 . S
C178 C183 1.399 . S
C179 C178 1.399 . S
C179 C180 1.376 . S
C180 H167 0.930 . S
C180 C179 1.376 . S
C180 C181 1.388 . S
C181 H168 0.930 . S
C181 C180 1.388 . S
C181 C182 1.390 . S
C182 C181 1.390 . S
C182 C183 1.394 . S
C182 C188 1.465 . S
C183 C178 1.399 . S
C183 C182 1.394 . S
C183 C184 1.516 . S
C184 C183 1.516 . S
C184 C185 1.502 . S
C184 C186 1.561 . S
C184 C187 1.526 . S
C185 H169 0.959 . S
C185 H170 0.959 . S
C185 H171 0.961 . S
C185 C184 1.502 . S
C186 H172 0.960 . S
C186 H173 0.961 . S
C186 H174 0.959 . S
C186 C184 1.561 . S
C187 C184 1.526 . S
C187 C188 1.396 . S
C187 C192 1.390 . S
C188 C182 1.465 . S
C188 C187 1.396 . S
C188 C189 1.399 . S
C189 H175 0.929 . S
C189 C188 1.399 . S
C189 C190 1.385 . S
C190 H176 0.931 . S
C190 C189 1.385 . S
C190 C191 1.389 . S
C191 C190 1.389 . S
C191 C192 1.387 . S
C192 H177 0.930 . S
C192 C187 1.390 . S
C192 C191 1.387 . S
H193 C205 0.930 . S
H194 C207 0.930 . S
H195 C208 0.930 . S
H196 C212 0.959 . S
H197 C212 0.959 . S
H198 C212 0.961 . S
H199 C213 0.960 . S
H200 C213 0.961 . S
H201 C213 0.959 . S
H202 C216 0.929 . S
H203 C217 0.931 . S
H204 C219 0.930 . S
C205 H193 0.930 . S
C205 C206 1.399 . S
C205 C210 1.399 . S
C206 C205 1.399 . S
C206 C207 1.376 . S
C207 H194 0.930 . S
C207 C206 1.376 . S
C207 C208 1.388 . S
C208 H195 0.930 . S
C208 C207 1.388 . S
C208 C209 1.390 . S
C209 C208 1.390 . S
C209 C210 1.394 . S
C209 C215 1.465 . S
C210 C205 1.399 . S
C210 C209 1.394 . S
C210 C211 1.516 . S
C211 C210 1.516 . S
C211 C212 1.502 . S
C211 C213 1.561 . S
C211 C214 1.526 . S
C212 H196 0.959 . S
C212 H197 0.959 . S
C212 H198 0.961 . S
C212 C211 1.502 . S
C213 H199 0.960 . S
C213 H200 0.961 . S
C213 H201 0.959 . S
C213 C211 1.561 . S
C214 C211 1.526 . S
C214 C215 1.396 . S
C214 C219 1.390 . S
C215 C209 1.465 . S
C215 C214 1.396 . S
C215 C216 1.399 . S
C216 H202 0.929 . S
C216 C215 1.399 . S
C216 C217 1.385 . S
C217 H203 0.931 . S
C217 C216 1.385 . S
C217 C218 1.389 . S
C218 C217 1.389 . S
C218 C219 1.387 . S
C219 H204 0.930 . S
C219 C214 1.390 . S
C219 C218 1.387 . S
H220 C232 0.930 . S
H221 C234 0.930 . S
H222 C235 0.930 . S
H223 C239 0.959 . S
H224 C239 0.959 . S
H225 C239 0.961 . S
H226 C240 0.960 . S
H227 C240 0.961 . S
H228 C240 0.959 . S
H229 C243 0.929 . S
H230 C244 0.931 . S
H231 C246 0.930 . S
C232 H220 0.930 . S
C232 C233 1.399 . S
C232 C237 1.399 . S
C233 C232 1.399 . S
C233 C234 1.376 . S
C234 H221 0.930 . S
C234 C233 1.376 . S
C234 C235 1.388 . S
C235 H222 0.930 . S
C235 C234 1.388 . S
C235 C236 1.390 . S
C236 C235 1.390 . S
C236 C237 1.394 . S
C236 C242 1.465 . S
C237 C232 1.399 . S
C237 C236 1.394 . S
C237 C238 1.516 . S
C238 C237 1.516 . S
C238 C239 1.502 . S
C238 C240 1.561 . S
C238 C241 1.526 . S
C239 H223 0.959 . S
C239 H224 0.959 . S
C239 H225 0.961 . S
C239 C238 1.502 . S
C240 H226 0.960 . S
C240 H227 0.961 . S
C240 H228 0.959 . S
C240 C238 1.561 . S
C241 C238 1.526 . S
C241 C242 1.396 . S
C241 C246 1.390 . S
C242 C236 1.465 . S
C242 C241 1.396 . S
C242 C243 1.399 . S
C243 H229 0.929 . S
C243 C242 1.399 . S
C243 C244 1.385 . S
C244 H230 0.931 . S
C244 C243 1.385 . S
C244 C245 1.389 . S
C245 C244 1.389 . S
C245 C246 1.387 . S
C246 H231 0.930 . S
C246 C241 1.390 . S
C246 C245 1.387 . S
H247 C259 0.930 . S
H248 C261 0.930 . S
H249 C262 0.930 . S
H250 C266 0.959 . S
H251 C266 0.959 . S
H252 C266 0.961 . S
H253 C267 0.960 . S
H254 C267 0.961 . S
H255 C267 0.959 . S
H256 C270 0.929 . S
H257 C271 0.931 . S
H258 C273 0.930 . S
C259 H247 0.930 . S
C259 C260 1.399 . S
C259 C264 1.399 . S
C260 C259 1.399 . S
C260 C261 1.376 . S
C261 H248 0.930 . S
C261 C260 1.376 . S
C261 C262 1.388 . S
C262 H249 0.930 . S
C262 C261 1.388 . S
C262 C263 1.390 . S
C263 C262 1.390 . S
C263 C264 1.394 . S
C263 C269 1.465 . S
C264 C259 1.399 . S
C264 C263 1.394 . S
C264 C265 1.516 . S
C265 C264 1.516 . S
C265 C266 1.502 . S
C265 C267 1.561 . S
C265 C268 1.526 . S
C266 H250 0.959 . S
C266 H251 0.959 . S
C266 H252 0.961 . S
C266 C265 1.502 . S
C267 H253 0.960 . S
C267 H254 0.961 . S
C267 H255 0.959 . S
C267 C265 1.561 . S
C268 C265 1.526 . S
C268 C269 1.396 . S
C268 C273 1.390 . S
C269 C263 1.465 . S
C269 C268 1.396 . S
C269 C270 1.399 . S
C270 H256 0.929 . S
C270 C269 1.399 . S
C270 C271 1.385 . S
C271 H257 0.931 . S
C271 C270 1.385 . S
C271 C272 1.389 . S
C272 C271 1.389 . S
C272 C273 1.387 . S
C273 H258 0.930 . S
C273 C268 1.390 . S
C273 C272 1.387 . S
H274 C286 0.930 . S
H275 C288 0.930 . S
H276 C289 0.930 . S
H277 C293 0.959 . S
H278 C293 0.959 . S
H279 C293 0.961 . S
H280 C294 0.960 . S
H281 C294 0.961 . S
H282 C294 0.959 . S
H283 C297 0.929 . S
H284 C298 0.931 . S
H285 C300 0.930 . S
C286 H274 0.930 . S
C286 C287 1.399 . S
C286 C291 1.399 . S
C287 C286 1.399 . S
C287 C288 1.376 . S
C288 H275 0.930 . S
C288 C287 1.376 . S
C288 C289 1.388 . S
C289 H276 0.930 . S
C289 C288 1.388 . S
C289 C290 1.390 . S
C290 C289 1.390 . S
C290 C291 1.394 . S
C290 C296 1.465 . S
C291 C286 1.399 . S
C291 C290 1.394 . S
C291 C292 1.516 . S
C292 C291 1.516 . S
C292 C293 1.502 . S
C292 C294 1.561 . S
C292 C295 1.526 . S
C293 H277 0.959 . S
C293 H278 0.959 . S
C293 H279 0.961 . S
C293 C292 1.502 . S
C294 H280 0.960 . S
C294 H281 0.961 . S
C294 H282 0.959 . S
C294 C292 1.561 . S
C295 C292 1.526 . S
C295 C296 1.396 . S
C295 C300 1.390 . S
C296 C290 1.465 . S
C296 C295 1.396 . S
C296 C297 1.399 . S
C297 H283 0.929 . S
C297 C296 1.399 . S
C297 C298 1.385 . S
C298 H284 0.931 . S
C298 C297 1.385 . S
C298 C299 1.389 . S
C299 C298 1.389 . S
C299 C300 1.387 . S
C300 H285 0.930 . S
C300 C295 1.390 . S
C300 C299 1.387 . S
H301 C313 0.930 . S
H302 C315 0.930 . S
H303 C316 0.930 . S
H304 C320 0.959 . S
H305 C320 0.959 . S
H306 C320 0.961 . S
H307 C321 0.960 . S
H308 C321 0.961 1_556 S
H309 C321 0.959 1_556 S
H310 C324 0.929 . S
H311 C325 0.931 . S
H312 C327 0.930 . S
C313 H301 0.930 . S
C313 C314 1.399 . S
C313 C318 1.399 . S
C314 C313 1.399 . S
C314 C315 1.376 . S
C315 H302 0.930 . S
C315 C314 1.376 . S
C315 C316 1.388 . S
C316 H303 0.930 . S
C316 C315 1.388 . S
C316 C317 1.390 . S
C317 C316 1.390 . S
C317 C318 1.394 . S
C317 C323 1.465 1_554 S
C318 C313 1.399 . S
C318 C317 1.394 . S
C318 C319 1.516 . S
C319 C318 1.516 . S
C319 C320 1.502 . S
C319 C321 1.561 . S
C319 C322 1.526 1_554 S
C320 H304 0.959 . S
C320 H305 0.959 . S
C320 H306 0.961 . S
C320 C319 1.502 . S
C321 H307 0.960 . S
C321 H308 0.961 1_554 S
C321 H309 0.959 1_554 S
C321 C319 1.561 . S
C322 C319 1.526 1_556 S
C322 C323 1.396 . S
C322 C327 1.390 . S
C323 C317 1.465 1_556 S
C323 C322 1.396 . S
C323 C324 1.399 . S
C324 H310 0.929 . S
C324 C323 1.399 . S
C324 C325 1.385 . S
C325 H311 0.931 . S
C325 C324 1.385 . S
C325 C326 1.389 . S
C326 C325 1.389 . S
C326 C327 1.387 . S
C327 H312 0.930 . S
C327 C322 1.390 . S
C327 C326 1.387 . S
H328 C340 0.930 . S
H329 C342 0.930 . S
H330 C343 0.930 . S
H331 C347 0.959 . S
H332 C347 0.959 1_565 S
H333 C347 0.961 . S
H334 C348 0.960 1_545 S
H335 C348 0.961 1_655 S
H336 C348 0.959 . S
H337 C351 0.929 1_455 S
H338 C352 0.931 . S
H339 C354 0.930 . S
C340 H328 0.930 . S
C340 C341 1.399 . S
C340 C345 1.399 . S
C341 C340 1.399 . S
C341 C342 1.376 . S
C342 H329 0.930 . S
C342 C341 1.376 . S
C342 C343 1.388 . S
C343 H330 0.930 . S
C343 C342 1.388 . S
C343 C344 1.390 . S
C344 C343 1.390 . S
C344 C345 1.394 . S
C344 C350 1.465 1_445 S
C345 C340 1.399 . S
C345 C344 1.394 . S
C345 C346 1.516 1_455 S
C346 C345 1.516 1_655 S
C346 C347 1.502 . S
C346 C348 1.561 1_645 S
C346 C349 1.526 1_545 S
C347 H331 0.959 . S
C347 H332 0.959 1_545 S
C347 H333 0.961 . S
C347 C346 1.502 . S
C348 H334 0.960 1_565 S
C348 H335 0.961 1_455 S
C348 H336 0.959 . S
C348 C346 1.561 1_465 S
C349 C346 1.526 1_565 S
C349 C350 1.396 . S
C349 C354 1.390 . S
C350 C344 1.465 1_665 S
C350 C349 1.396 . S
C350 C351 1.399 . S
C351 H337 0.929 1_655 S
C351 C350 1.399 . S
C351 C352 1.385 . S
C352 H338 0.931 . S
C352 C351 1.385 . S
C352 C353 1.389 . S
C353 C352 1.389 . S
C353 C354 1.387 . S
C354 H339 0.930 . S
C354 C349 1.390 . S
C354 C353 1.387 . S
H355 C367 0.930 . S
H356 C369 0.930 . S
H357 C370 0.930 1_655 S
H358 C374 0.959 . S
H359 C374 0.959 . S
H360 C374 0.961 . S
H361 C375 0.960 . S
H362 C375 0.961 . S
H363 C375 0.959 . S
H364 C378 0.929 . S
H365 C379 0.931 . S
H366 C381 0.930 . S
C367 H355 0.930 . S
C367 C368 1.399 . S
C367 C372 1.399 . S
C368 C367 1.399 . S
C368 C369 1.376 . S
C369 H356 0.930 . S
C369 C368 1.376 . S
C369 C370 1.388 . S
C370 H357 0.930 1_455 S
C370 C369 1.388 . S
C370 C371 1.390 . S
C371 C370 1.390 . S
C371 C372 1.394 . S
C371 C377 1.465 1_455 S
C372 C367 1.399 . S
C372 C371 1.394 . S
C372 C373 1.516 . S
C373 C372 1.516 . S
C373 C374 1.502 . S
C373 C375 1.561 1_455 S
C373 C376 1.526 1_455 S
C374 H358 0.959 . S
C374 H359 0.959 . S
C374 H360 0.961 . S
C374 C373 1.502 . S
C375 H361 0.960 . S
C375 H362 0.961 . S
C375 H363 0.959 . S
C375 C373 1.561 1_655 S
C376 C373 1.526 1_655 S
C376 C377 1.396 . S
C376 C381 1.390 . S
C377 C371 1.465 1_655 S
C377 C376 1.396 . S
C377 C378 1.399 . S
C378 H364 0.929 . S
C378 C377 1.399 . S
C378 C379 1.385 . S
C379 H365 0.931 . S
C379 C378 1.385 . S
C379 C380 1.389 . S
C380 C379 1.389 . S
C380 C381 1.387 . S
C381 H366 0.930 . S
C381 C376 1.390 . S
C381 C380 1.387 . S
H382 C394 0.930 . S
H383 C396 0.930 . S
H384 C397 0.930 . S
H385 C401 0.959 . S
H386 C401 0.959 . S
H387 C401 0.961 . S
H388 C402 0.960 . S
H389 C402 0.961 . S
H390 C402 0.959 . S
H391 C405 0.929 . S
H392 C406 0.931 . S
H393 C408 0.930 . S
C394 H382 0.930 . S
C394 C395 1.399 . S
C394 C399 1.399 . S
C395 C394 1.399 . S
C395 C396 1.376 . S
C396 H383 0.930 . S
C396 C395 1.376 . S
C396 C397 1.388 . S
C397 H384 0.930 . S
C397 C396 1.388 . S
C397 C398 1.390 . S
C398 C397 1.390 . S
C398 C399 1.394 . S
C398 C404 1.465 . S
C399 C394 1.399 . S
C399 C398 1.394 . S
C399 C400 1.516 . S
C400 C399 1.516 . S
C400 C401 1.502 . S
C400 C402 1.561 . S
C400 C403 1.526 . S
C401 H385 0.959 . S
C401 H386 0.959 . S
C401 H387 0.961 . S
C401 C400 1.502 . S
C402 H388 0.960 . S
C402 H389 0.961 . S
C402 H390 0.959 . S
C402 C400 1.561 . S
C403 C400 1.526 . S
C403 C404 1.396 . S
C403 C408 1.390 . S
C404 C398 1.465 . S
C404 C403 1.396 . S
C404 C405 1.399 . S
C405 H391 0.929 . S
C405 C404 1.399 . S
C405 C406 1.385 . S
C406 H392 0.931 . S
C406 C405 1.385 . S
C406 C407 1.389 . S
C407 C406 1.389 . S
C407 C408 1.387 . S
C408 H393 0.930 . S
C408 C403 1.390 . S
C408 C407 1.387 . S
H409 C421 0.930 . S
H410 C423 0.930 . S
H411 C424 0.930 . S
H412 C428 0.959 . S
H413 C428 0.959 . S
H414 C428 0.961 . S
H415 C429 0.960 . S
H416 C429 0.956 1_545 S
H417 C429 0.959 . S
H418 C432 0.929 1_565 S
H419 C433 0.931 . S
H420 C435 0.930 . S
C421 H409 0.930 . S
C421 C422 1.399 . S
C421 C426 1.399 . S
C422 C421 1.399 . S
C422 C423 1.376 . S
C423 H410 0.930 . S
C423 C422 1.376 . S
C423 C424 1.388 . S
C424 H411 0.930 . S
C424 C423 1.388 . S
C424 C425 1.390 . S
C425 C424 1.390 . S
C425 C426 1.394 . S
C425 C431 1.465 1_565 S
C426 C421 1.399 . S
C426 C425 1.394 . S
C426 C427 1.516 1_565 S
C427 C426 1.516 1_545 S
C427 C428 1.502 . S
C427 C429 1.561 1_545 S
C427 C430 1.526 . S
C428 H412 0.959 . S
C428 H413 0.959 . S
C428 H414 0.961 . S
C428 C427 1.502 . S
C429 H415 0.960 . S
C429 H416 0.956 1_565 S
C429 H417 0.959 . S
C429 C427 1.561 1_565 S
C430 C427 1.526 . S
C430 C431 1.396 . S
C430 C435 1.390 . S
C431 C425 1.465 1_545 S
C431 C430 1.396 . S
C431 C432 1.399 . S
C432 H418 0.929 1_545 S
C432 C431 1.399 . S
C432 C433 1.385 . S
C433 H419 0.931 . S
C433 C432 1.385 . S
C433 C434 1.389 . S
C434 C433 1.389 . S
C434 C435 1.387 . S
C435 H420 0.930 . S
C435 C430 1.390 . S
C435 C434 1.387 . S
H436 C448 0.930 . S
H437 C450 0.930 . S
H438 C451 0.930 . S
H439 C455 0.959 . S
H440 C455 0.959 . S
H441 C455 0.961 . S
H442 C456 0.960 1_655 S
H443 C456 0.961 . S
H444 C456 0.959 1_655 S
H445 C459 0.929 . S
H446 C460 0.931 . S
H447 C462 0.930 . S
C448 H436 0.930 . S
C448 C449 1.399 . S
C448 C453 1.399 . S
C449 C448 1.399 . S
C449 C450 1.376 . S
C450 H437 0.930 . S
C450 C449 1.376 . S
C450 C451 1.388 . S
C451 H438 0.930 . S
C451 C450 1.388 . S
C451 C452 1.390 . S
C452 C451 1.390 . S
C452 C453 1.394 . S
C452 C458 1.482 . S
C453 C448 1.399 . S
C453 C452 1.394 . S
C453 C454 1.516 1_655 S
C454 C453 1.516 1_455 S
C454 C455 1.502 . S
C454 C456 1.561 . S
C454 C457 1.526 . S
C455 H439 0.959 . S
C455 H440 0.959 . S
C455 H441 0.961 . S
C455 C454 1.502 . S
C456 H442 0.960 1_455 S
C456 H443 0.961 . S
C456 H444 0.959 1_455 S
C456 C454 1.561 . S
C457 C454 1.526 . S
C457 C458 1.385 1_455 S
C457 C462 1.390 . S
C458 C452 1.482 . S
C458 C457 1.385 1_655 S
C458 C459 1.393 . S
C459 H445 0.929 . S
C459 C458 1.393 . S
C459 C460 1.385 1_655 S
C460 H446 0.931 . S
C460 C459 1.385 1_455 S
C460 C461 1.389 . S
C461 C460 1.389 . S
C461 C462 1.387 . S
C462 H447 0.930 . S
C462 C457 1.390 . S
C462 C461 1.387 . S
H463 C475 0.930 . S
H464 C477 0.930 . S
H465 C478 0.930 . S
H466 C482 0.959 . S
H467 C482 0.959 . S
H468 C482 0.961 . S
H469 C483 0.960 . S
H470 C483 0.961 . S
H471 C483 0.959 . S
H472 C486 0.929 . S
H473 C487 0.931 . S
H474 C489 0.930 . S
C475 H463 0.930 . S
C475 C476 1.399 . S
C475 C480 1.399 . S
C476 C475 1.399 . S
C476 C477 1.376 . S
C477 H464 0.930 . S
C477 C476 1.376 . S
C477 C478 1.388 . S
C478 H465 0.930 . S
C478 C477 1.388 . S
C478 C479 1.390 . S
C479 C478 1.390 . S
C479 C480 1.394 . S
C479 C485 1.465 . S
C480 C475 1.399 . S
C480 C479 1.394 . S
C480 C481 1.516 . S
C481 C480 1.516 . S
C481 C482 1.502 . S
C481 C483 1.561 . S
C481 C484 1.526 . S
C482 H466 0.959 . S
C482 H467 0.959 . S
C482 H468 0.961 . S
C482 C481 1.502 . S
C483 H469 0.960 . S
C483 H470 0.961 . S
C483 H471 0.959 . S
C483 C481 1.561 . S
C484 C481 1.526 . S
C484 C485 1.396 . S
C484 C489 1.390 . S
C485 C479 1.465 . S
C485 C484 1.396 . S
C485 C486 1.399 . S
C486 H472 0.929 . S
C486 C485 1.399 . S
C486 C487 1.385 . S
C487 H473 0.931 . S
C487 C486 1.385 . S
C487 C488 1.389 . S
C488 C487 1.389 . S
C488 C489 1.387 . S
C489 H474 0.930 . S
C489 C484 1.390 . S
C489 C488 1.387 . S
H490 C502 0.930 . S
H491 C504 0.930 . S
H492 C505 0.930 . S
H493 C509 0.959 . S
H494 C509 0.959 . S
H495 C509 0.961 . S
H496 C510 0.960 . S
H497 C510 0.961 . S
H498 C510 0.959 . S
H499 C513 0.929 . S
H500 C514 0.931 . S
H501 C516 0.930 . S
C502 H490 0.930 . S
C502 C503 1.399 . S
C502 C507 1.399 . S
C503 C502 1.399 . S
C503 C504 1.376 . S
C504 H491 0.930 . S
C504 C503 1.376 . S
C504 C505 1.388 1_545 S
C505 H492 0.930 . S
C505 C504 1.388 1_565 S
C505 C506 1.390 . S
C506 C505 1.390 . S
C506 C507 1.394 1_565 S
C506 C512 1.465 . S
C507 C502 1.399 . S
C507 C506 1.394 1_545 S
C507 C508 1.516 . S
C508 C507 1.516 . S
C508 C509 1.502 . S
C508 C510 1.561 . S
C508 C511 1.526 1_545 S
C509 H493 0.959 . S
C509 H494 0.959 . S
C509 H495 0.961 . S
C509 C508 1.502 . S
C510 H496 0.960 . S
C510 H497 0.961 . S
C510 H498 0.959 . S
C510 C508 1.561 . S
C511 C508 1.526 1_565 S
C511 C512 1.396 . S
C511 C516 1.390 . S
C512 C506 1.465 . S
C512 C511 1.396 . S
C512 C513 1.399 . S
C513 H499 0.929 . S
C513 C512 1.399 . S
C513 C514 1.385 . S
C514 H500 0.931 . S
C514 C513 1.385 . S
C514 C515 1.389 . S
C515 C514 1.389 . S
C515 C516 1.387 . S
C516 H501 0.930 . S
C516 C511 1.390 . S
C516 C515 1.387 . S
H517 C529 0.930 . S
H518 C531 0.930 . S
H519 C532 0.930 1_545 S
H520 C536 0.959 . S
H521 C536 0.959 . S
H522 C536 0.961 1_655 S
H523 C537 0.969 1_565 S
H524 C537 0.949 1_455 S
H525 C537 0.966 . S
H526 C540 0.929 . S
H527 C541 0.931 . S
H528 C543 0.930 . S
C529 H517 0.930 . S
C529 C530 1.399 . S
C529 C534 1.399 . S
C530 C529 1.399 . S
C530 C531 1.376 . S
C531 H518 0.930 . S
C531 C530 1.376 . S
C531 C532 1.388 . S
C532 H519 0.930 1_565 S
C532 C531 1.388 . S
C532 C533 1.390 . S
C533 C532 1.390 . S
C533 C534 1.394 . S
C533 C539 1.465 1_665 S
C534 C529 1.399 . S
C534 C533 1.394 . S
C534 C535 1.516 1_655 S
C535 C534 1.516 1_455 S
C535 C536 1.502 . S
C535 C537 1.557 1_465 S
C535 C538 1.526 1_565 S
C536 H520 0.959 . S
C536 H521 0.959 . S
C536 H522 0.961 1_455 S
C536 C535 1.502 . S
C537 H523 0.969 1_545 S
C537 H524 0.949 1_655 S
C537 H525 0.966 . S
C537 C535 1.557 1_645 S
C538 C535 1.526 1_545 S
C538 C539 1.396 . S
C538 C543 1.390 . S
C539 C533 1.465 1_445 S
C539 C538 1.396 . S
C539 C540 1.399 . S
C540 H526 0.929 . S
C540 C539 1.399 . S
C540 C541 1.385 . S
C541 H527 0.931 . S
C541 C540 1.385 . S
C541 C542 1.389 . S
C542 C541 1.389 . S
C542 C543 1.387 . S
C543 H528 0.930 . S
C543 C538 1.390 . S
C543 C542 1.387 . S
C125 C6 1.393 . S
C137 C76 1.354 . S
C152 C23 1.192 . S
C164 C93 1.200 . S
C179 C34 1.352 . S
C191 C104 1.392 . S
C206 C51 1.189 . S
C218 C65 1.205 . S
C233 C107 1.269 . S
C245 C9 1.259 . S
C260 C62 1.393 . S
C272 C20 1.355 . S
C287 C37 1.272 . S
C299 C79 1.206 . S
C314 C90 1.393 . S
C326 C48 1.357 . S
C341 C8 1.573 . S
C353 C92 1.589 . S
C368 C105 1.637 . S
C380 C21 1.600 . S
C395 C36 1.575 . S
C407 C64 1.588 . S
C422 C49 1.638 . S
C434 C77 1.597 . S
C449 C91 1.641 . S
C461 C7 1.586 . S
C476 C106 1.574 . S
C488 C22 1.588 . S
C503 C35 1.639 . S
C515 C63 1.571 . S
C530 C50 1.567 . S
C542 C78 1.549 . S
