# Generated by pormake.
# Topology tsi, (8)-cn, num edge types: 1
# Building blocks:
#     Node 0, Type 0, BuildingBlock: LIZSOE_clean_sbu_0, # of connection points: 8
#     Node 1, Type 0, BuildingBlock: LIZSOE_clean_sbu_0, # of connection points: 8
#     Node 2, Type 0, BuildingBlock: LIZSOE_clean_sbu_0, # of connection points: 8
#     Node 3, Type 0, BuildingBlock: LIZSOE_clean_sbu_0, # of connection points: 8
#     Edge 4, Type (0, 0), BuildingBlock: OJICUG_clean_linker_0, # of connection points: 2
#     Edge 5, Type (0, 0), BuildingBlock: OJICUG_clean_linker_0, # of connection points: 2
#     Edge 6, Type (0, 0), BuildingBlock: OJICUG_clean_linker_0, # of connection points: 2
#     Edge 7, Type (0, 0), BuildingBlock: OJICUG_clean_linker_0, # of connection points: 2
#     Edge 8, Type (0, 0), BuildingBlock: OJICUG_clean_linker_0, # of connection points: 2
#     Edge 9, Type (0, 0), BuildingBlock: OJICUG_clean_linker_0, # of connection points: 2
#     Edge 10, Type (0, 0), BuildingBlock: OJICUG_clean_linker_0, # of connection points: 2
#     Edge 11, Type (0, 0), BuildingBlock: OJICUG_clean_linker_0, # of connection points: 2
#     Edge 12, Type (0, 0), BuildingBlock: OJICUG_clean_linker_0, # of connection points: 2
#     Edge 13, Type (0, 0), BuildingBlock: OJICUG_clean_linker_0, # of connection points: 2
#     Edge 14, Type (0, 0), BuildingBlock: OJICUG_clean_linker_0, # of connection points: 2
#     Edge 15, Type (0, 0), BuildingBlock: OJICUG_clean_linker_0, # of connection points: 2
#     Edge 16, Type (0, 0), BuildingBlock: OJICUG_clean_linker_0, # of connection points: 2
#     Edge 17, Type (0, 0), BuildingBlock: OJICUG_clean_linker_0, # of connection points: 2
#     Edge 18, Type (0, 0), BuildingBlock: OJICUG_clean_linker_0, # of connection points: 2
#     Edge 19, Type (0, 0), BuildingBlock: OJICUG_clean_linker_0, # of connection points: 2
# Relax obj value: 0.285
# Max RMSD: 0.259
# Mean RMSD: 0.255
data_MOF--net-tsi--node1-LIZSOE_clean_sbu_0--edge1-OJICUG_clean_linker_0
_symmetry_space_group_name_H-M    P1
_symmetry_Int_Tables_number       1
_symmetry_cell_setting            triclinic
loop_
_symmetry_equiv_pos_as_xyz
'x, y, z'
_cell_length_a     11.418776
_cell_length_b     11.484552
_cell_length_c     49.829471
_cell_angle_alpha  100.95185
_cell_angle_beta   100.63624
_cell_angle_gamma 89.341385
loop_
_atom_site_label
_atom_site_type_symbol
_atom_site_fract_x
_atom_site_fract_y
_atom_site_fract_z
_atom_type_partial_charge
Co0 Co 0.30356 0.50025 0.52713 0.0
N1 N 0.43369 0.44952 0.54998 0.0
C2 C 0.54635 0.49515 0.55604 0.0
N3 N 0.55237 0.33722 0.57501 0.0
C4 C 0.43995 0.35535 0.56272 0.0
C5 C 0.62006 0.42459 0.57095 0.0
Co6 Co 1.00667 0.60209 0.40694 0.0
N7 N 0.90838 0.6827 0.38314 0.0
N8 N 0.81867 0.71757 0.3413 0.0
C9 C 0.80864 0.81401 0.36093 0.0
C10 C 0.86381 0.79249 0.38655 0.0
C11 C 0.87758 0.63835 0.35566 0.0
Co12 Co 0.14964 0.54467 0.46726 0.0
C13 C 0.17017 0.53338 0.4067 0.0
H14 H 0.87072 0.85292 0.40628 0.0
O15 O 0.18102 0.5577 0.50908 0.0
O16 O 0.97453 0.54292 0.46874 0.0
O17 O 0.1546 0.36644 0.46447 0.0
O18 O 0.32062 0.54973 0.46332 0.0
O19 O 0.41023 0.53161 0.50515 0.0
O20 O 0.88785 0.59734 0.42868 0.0
O21 O 0.10901 0.51993 0.42577 0.0
O22 O 1.06687 0.74798 0.42916 0.0
O23 O 0.27269 0.34497 0.50495 0.0
O24 O 0.31733 0.65211 0.54467 0.0
O25 O 0.15144 0.7236 0.47164 0.0
O26 O 0.12641 0.59907 0.38889 0.0
C27 C 0.20947 0.30135 0.48112 0.0
C28 C 0.89909 0.51145 0.34378 0.0
H29 H 0.91864 0.45907 0.3606 0.0
H30 H 0.82026 0.4713 0.3284 0.0
H31 H 0.97739 0.50717 0.33338 0.0
C32 C 0.88233 0.57012 0.45215 0.0
C33 C 0.41491 0.54641 0.48102 0.0
H34 H 0.57419 0.57274 0.54926 0.0
H35 H 0.31885 0.30813 0.58689 0.0
H36 H 0.35146 0.18865 0.56108 0.0
H37 H 0.25252 0.30388 0.55105 0.0
C38 C 0.3339 0.28496 0.56516 0.0
C39 C 0.20613 0.63799 0.5321 0.0
C40 C 0.11988 0.79008 0.45374 0.0
H41 H 0.71582 0.43432 0.57751 0.0
H42 H 0.76333 0.89421 0.3571 0.0
Co43 Co 0.18614 0.57066 0.75054 0.0
N44 N 0.11828 0.44934 0.76357 0.0
C45 C 0.18694 0.36291 0.77277 0.0
N46 N 1.00544 0.32009 0.77703 0.0
C47 C 1.00749 0.42223 0.76718 0.0
C48 C 0.11829 0.28379 0.78091 0.0
Co49 Co 0.33485 0.72941 0.64352 0.0
N50 N 0.44521 0.78431 0.62539 0.0
N51 N 0.55285 0.9082 0.60934 0.0
C52 C 0.61424 0.80828 0.6104 0.0
C53 C 0.54768 0.73194 0.62023 0.0
C54 C 0.44971 0.8905 0.61768 0.0
Co55 Co 0.24577 0.67731 0.69964 0.0
C56 C 0.23116 0.5935 0.63442 0.0
H57 H 0.57467 0.64563 0.62448 0.0
O58 O 0.25503 0.69342 0.74196 0.0
O59 O 0.26085 0.85661 0.70465 0.0
O60 O 1.06954 0.68813 0.69498 0.0
O61 O 0.23503 0.49648 0.69173 0.0
O62 O 0.2835 0.46141 0.7343 0.0
O63 O 0.33 0.87846 0.66605 0.0
O64 O 0.22713 0.67047 0.65762 0.0
O65 O 0.46256 0.69406 0.66775 0.0
O66 O 1.0558 0.54413 0.71828 0.0
O67 O 0.10165 0.68291 0.76447 0.0
O68 O 0.42545 0.6628 0.70732 0.0
O69 O 0.33219 0.57968 0.62571 0.0
C70 C 1.00653 0.61537 0.70306 0.0
C71 C 0.3493 0.9761 0.61659 0.0
H72 H 0.26606 0.93647 0.6194 0.0
H73 H 0.37356 1.05606 0.63298 0.0
H74 H 0.33389 1.0056 0.59628 0.0
C75 C 0.29817 0.92103 0.68912 0.0
C76 C 0.2734 0.42716 0.70849 0.0
H77 H 0.28247 0.35872 0.7741 0.0
H78 H 0.88848 0.53913 0.78706 0.0
H79 H 0.82211 0.45766 0.75365 0.0
H80 H 0.91931 0.58091 0.75607 0.0
C81 C 0.90454 0.50516 0.76569 0.0
C82 C 0.18904 0.744 0.76025 0.0
C83 C 0.49799 0.67023 0.69124 0.0
H84 H 0.14941 0.20806 0.79003 0.0
H85 H 0.70214 0.79345 0.60537 0.0
Co86 Co 0.29655 0.87204 0.9797 0.0
N87 N 0.2137 0.97037 1.00334 0.0
C88 C 0.09872 1.00161 1.00135 0.0
N89 N 0.1825 1.05976 1.04569 0.0
C90 C 0.26271 1.00821 1.03037 0.0
C91 C 0.0797 1.05744 1.02722 0.0
Co92 Co 0.41666 0.55508 0.86332 0.0
N93 N 0.49002 0.42512 0.84537 0.0
N94 N 0.61235 0.29826 0.82486 0.0
C95 C 0.50591 0.24316 0.82099 0.0
C96 C 0.4313 0.32091 0.83372 0.0
C97 C 0.60045 0.40911 0.8391 0.0
Co98 Co 0.35986 0.72674 0.91965 0.0
C99 C 0.40338 0.72738 0.86012 0.0
H100 H 0.33827 0.30385 0.83362 0.0
O101 O 0.38164 0.76926 0.96128 0.0
O102 O 0.53565 0.74168 0.92347 0.0
O103 O 0.34596 0.90072 0.91726 0.0
O104 O 0.18113 0.70987 0.9153 0.0
O105 O 0.15122 0.81777 0.95559 0.0
O106 O 0.55803 0.57973 0.89257 0.0
O107 O 0.34395 0.68753 0.87727 0.0
O108 O 0.34557 0.45477 0.88046 0.0
O109 O 0.3116 0.99101 0.95939 0.0
O110 O 0.28952 0.75257 0.99653 0.0
O111 O 0.37131 0.55351 0.92389 0.0
O112 O 0.47613 0.65652 0.84835 0.0
C113 C 0.32985 0.99413 0.93501 0.0
C114 C 0.69305 0.5065 0.84302 0.0
H115 H 0.67282 0.59033 0.85593 0.0
H116 H 0.78101 0.47809 0.85281 0.0
H117 H 0.70228 0.52365 0.82232 0.0
C118 C 0.60198 0.66499 0.91209 0.0
C119 C 0.11194 0.75499 0.93181 0.0
H120 H 1.03192 0.98213 0.98269 0.0
H121 H 0.40601 0.91816 1.05138 0.0
H122 H 0.42969 0.07661 1.05627 0.0
H123 H 0.44272 0.98115 1.02357 0.0
C124 C 0.39305 0.99605 1.04105 0.0
C125 C 0.3612 0.70906 0.97995 0.0
C126 C 0.34727 0.45736 0.90589 0.0
H127 H 0.99611 0.09231 1.03215 0.0
H128 H 0.48276 0.15497 0.80894 0.0
Co129 Co 0.4787 0.3157 0.2558 0.0
N130 N 0.41115 0.252 0.28183 0.0
C131 C 0.45891 0.15884 0.29259 0.0
N132 N 0.36081 0.25603 0.32381 0.0
C133 C 0.34946 0.30825 0.30124 0.0
C134 C 0.42818 0.16102 0.31821 0.0
Co135 Co 0.57258 0.41007 0.13335 0.0
N136 N 0.63652 0.47807 0.10748 0.0
N137 N 0.63329 0.52898 1.06569 0.0
C138 C 0.72913 0.46254 0.07119 0.0
C139 C 0.73079 0.4314 0.09668 0.0
C140 C 0.58013 0.5395 0.08823 0.0
Co141 Co 0.5225 0.36564 0.19451 0.0
C142 C 0.40608 0.35264 0.13449 0.0
H143 H 0.78883 0.36681 0.10509 0.0
O144 O 0.55084 0.39087 0.23562 0.0
O145 O 0.52123 0.54265 0.19679 0.0
O146 O 0.34566 0.36571 0.19245 0.0
O147 O 0.52311 0.18766 0.19239 0.0
O148 O 0.48987 0.16327 0.23413 0.0
O149 O 0.55693 0.56292 0.15525 0.0
O150 O 0.49767 0.33699 0.15336 0.0
O151 O 0.7255 0.39927 0.15485 0.0
O152 O 0.32491 0.33062 0.23404 0.0
O153 O 0.47543 0.46369 0.27338 0.0
O154 O 0.70036 0.36599 0.19652 0.0
O155 O 0.42366 0.41287 0.11597 0.0
C156 C 0.28075 0.35046 0.20993 0.0
C157 C 0.46726 0.60627 0.09055 0.0
H158 H 0.45843 0.6361 0.11252 0.0
H159 H 0.46585 0.68465 0.08044 0.0
H160 H 0.38914 0.54847 0.07961 0.0
C161 C 0.53664 0.60737 0.17935 0.0
C162 C 0.50815 0.12119 0.20965 0.0
H163 H 0.52394 0.1012 0.28403 0.0
H164 H 0.33955 0.49817 0.31025 0.0
H165 H 0.2028 0.42109 0.30914 0.0
H166 H 0.25259 0.42937 0.27718 0.0
C167 C 0.28197 0.42031 0.2991 0.0
C168 C 0.53344 0.48205 0.25445 0.0
C169 C 0.76718 0.38099 0.17927 0.0
H170 H 0.46308 0.10468 0.33281 0.0
H171 H 0.78626 0.42831 1.05655 0.0
C172 C 0.1107 0.51963 0.55965 0.0
C173 C 0.13196 0.63203 0.55371 0.0
H174 H 0.12437 0.41618 0.59174 0.0
C175 C 0.1282 0.73137 0.57495 0.0
H176 H 0.10855 0.44112 0.54364 0.0
C177 C 0.12562 0.71675 0.6023 0.0
C178 C 0.13913 0.60356 0.60938 0.0
H179 H 0.14229 0.81963 0.57124 0.0
H180 H 0.13493 0.79451 0.61866 0.0
C181 C 0.11764 0.50506 0.58734 0.0
C182 C 0.69637 0.24721 0.78258 0.0
C183 C 0.71016 0.25881 0.8115 0.0
H184 H 0.78439 0.25373 0.74841 0.0
C185 C 0.82474 0.25994 0.82761 0.0
H186 H 0.60831 0.24523 0.76988 0.0
C187 C 0.92445 0.26904 0.81562 0.0
C188 C 0.90966 0.27498 0.78736 0.0
H189 H 0.83618 0.26729 0.84993 0.0
H190 H 1.01162 0.28311 0.82884 0.0
C191 C 0.79632 0.25404 0.77049 0.0
C192 C 0.56607 0.66608 1.00201 0.0
C193 C 0.44716 0.62659 0.99157 0.0
H194 H 0.71887 0.66721 1.03481 0.0
C195 C 0.40083 0.5378 1.00286 0.0
H196 H 0.60311 0.73687 0.9943 0.0
C197 C 0.46657 0.49865 1.02582 0.0
C198 C 0.57896 0.54961 1.03852 0.0
H199 H 0.30899 0.50709 0.99559 0.0
H200 H 0.426 0.43498 1.03502 0.0
C201 C 0.63151 0.62813 1.0255 0.0
C202 C 0.64477 0.73809 0.30502 0.0
C203 C 0.76054 0.69747 0.31237 0.0
H204 H 0.47859 0.70544 0.2768 0.0
C205 C 0.81008 0.62293 0.29168 0.0
H206 H 0.605 0.79922 0.31995 0.0
C207 C 0.73651 0.56757 0.26691 0.0
C208 C 0.61356 0.5875 0.26284 0.0
H209 H 0.90219 0.59768 0.2958 0.0
H210 H 0.77206 0.4954 0.25361 0.0
C211 C 0.57263 0.68561 0.27991 0.0
C212 C 0.25603 0.26071 0.36336 0.0
C213 C 0.33915 0.31046 0.35098 0.0
H214 H 0.14062 0.29334 0.39335 0.0
C215 C 0.39188 0.42148 0.364 0.0
H216 H 0.21534 0.17455 0.35377 0.0
C217 C 0.35015 0.48891 0.38657 0.0
C218 C 0.25595 0.446 0.39686 0.0
H219 H 0.45819 0.46024 0.35513 0.0
H220 H 0.38085 0.5804 0.39354 0.0
C221 C 0.21516 0.32793 0.38635 0.0
C222 C 0.36966 0.83458 0.79495 0.0
C223 C 0.24545 0.82211 0.78731 0.0
H224 H 0.52056 0.83205 0.82727 0.0
C225 C 0.17914 0.8432 0.80926 0.0
H226 H 0.42483 0.82468 0.7792 0.0
C227 C 0.23338 0.83408 0.8365 0.0
C228 C 0.35607 0.81617 0.84257 0.0
H229 H 0.08259 0.84248 0.80452 0.0
H230 H 0.17744 0.82329 0.85125 0.0
C231 C 0.42435 0.83805 0.82282 0.0
C232 C 0.2836 1.07162 0.09484 0.0
C233 C 0.20365 0.11778 0.07462 0.0
H234 H 0.40952 0.11351 0.13306 0.0
C235 C 0.15599 0.22962 0.08245 0.0
H236 H 0.31528 0.9823 0.09021 0.0
C237 C 0.20507 0.30247 0.10777 0.0
C238 C 0.30584 0.26607 0.1248 0.0
H239 H 0.09101 0.26619 1.06776 0.0
H240 H 0.17917 0.39442 0.11132 0.0
C241 C 0.33447 0.14557 0.11996 0.0
C242 C 0.59562 0.23064 0.61349 0.0
C243 C 0.59204 0.23332 0.58543 0.0
H244 H 0.58936 0.12029 0.6434 0.0
C245 C 0.59978 0.12742 0.56649 0.0
H246 H 0.58794 0.3118 0.62815 0.0
C247 C 0.59911 1.01853 0.57502 0.0
C248 C 0.59046 1.01548 0.60251 0.0
H249 H 0.59501 0.12896 0.54465 0.0
H250 H 0.59404 0.93706 0.55974 0.0
C251 C 0.59567 0.12189 0.62205 0.0
C252 C 0.23787 0.09684 0.49274 0.0
C253 C 0.19276 0.16968 0.47354 0.0
H254 H 0.24878 0.92154 0.5021 0.0
C255 C 0.12702 0.11551 0.44761 0.0
H256 H 0.29108 0.13451 0.51267 0.0
C257 C 0.10504 0.99284 0.44131 0.0
C258 C 0.1459 0.92051 0.46092 0.0
H259 H 0.09186 0.16778 0.43212 0.0
H260 H 1.05549 0.95511 0.4209 0.0
C261 C 0.21378 0.97416 0.48667 0.0
C262 C 0.7018 0.7524 0.69674 0.0
C263 C 0.62809 0.65882 0.69903 0.0
H264 H 0.87773 0.81171 0.69572 0.0
C265 C 0.67853 0.54822 0.70115 0.0
H266 H 0.66407 0.8373 0.69395 0.0
C267 C 0.8008 0.53217 0.70113 0.0
C268 C 0.87489 0.62664 0.69927 0.0
H269 H 0.62276 0.47317 0.70158 0.0
H270 H 0.83766 0.44587 0.70271 0.0
C271 C 0.82355 0.73681 0.69698 0.0
C272 C 0.38337 0.32385 0.94102 0.0
C273 C 0.33576 0.34091 0.91411 0.0
H274 H 0.41777 0.20107 0.96883 0.0
C275 C 0.28682 0.24176 0.8939 0.0
H276 H 0.42734 0.3963 0.95645 0.0
C277 C 0.28683 0.12856 0.90043 0.0
C278 C 0.33302 0.11237 0.92749 0.0
H279 H 0.24959 0.25123 0.87282 0.0
H280 H 0.24907 1.05417 0.88444 0.0
C281 C 0.38016 0.21132 0.94781 0.0
C282 C 0.09761 0.39475 0.1774 0.0
C283 C 0.1493 0.35821 0.2022 0.0
H284 H 0.93789 0.4314 0.15086 0.0
C285 C 1.07405 0.33075 0.21969 0.0
H286 H 0.1526 0.41802 0.1636 0.0
C287 C 0.95025 0.33933 0.21249 0.0
C288 C 0.89862 0.37495 0.18755 0.0
H289 H 0.11052 0.30182 0.23892 0.0
H290 H 0.8951 0.31685 0.22636 0.0
C291 C 0.97404 0.40282 0.17015 0.0
C292 C 0.19313 0.10758 0.70329 0.0
C293 C 0.29509 1.05138 0.69587 0.0
H294 H 0.10373 0.27213 0.71124 0.0
C295 C 0.38623 0.11973 0.69027 0.0
H296 H 0.12069 1.05666 0.70712 0.0
C297 C 0.37588 0.24242 0.69221 0.0
C298 C 0.2734 0.29816 0.69937 0.0
H299 H 0.46548 0.07784 0.68428 0.0
H300 H 0.4491 0.29399 0.68895 0.0
C301 C 0.18221 0.22992 0.70489 0.0
C302 C 0.8114 0.59262 0.91154 0.0
C303 C 0.73345 0.6853 0.91819 0.0
H304 H 0.99255 0.54219 0.90983 0.0
C305 C 0.78141 0.80091 0.928 0.0
H306 H 0.77726 0.50245 0.90398 0.0
C307 C 0.90363 0.8234 0.93097 0.0
C308 C 0.98157 0.73109 0.92451 0.0
H309 H 0.7241 0.87487 0.93274 0.0
H310 H 0.93728 0.91376 0.93815 0.0
C311 C 0.93427 0.61537 0.91452 0.0
C312 C 0.55924 0.81299 0.16964 0.0
C313 C 0.52918 0.73889 0.18703 0.0
H314 H 0.57578 0.99063 0.16288 0.0
C315 C 0.49049 0.79194 0.21158 0.0
H316 H 0.58988 0.7757 0.15058 0.0
C317 C 0.48315 0.91539 0.2187 0.0
C318 C 0.51367 0.98966 0.20141 0.0
H319 H 0.46482 0.73807 0.22525 0.0
H320 H 0.45288 0.95239 0.23783 0.0
C321 C 0.55122 0.93665 0.17669 0.0
C322 C 0.66371 0.61538 0.44484 0.0
C323 C 0.763 0.56668 0.45987 0.0
H324 H 0.47651 0.64998 0.44022 0.0
C325 C 0.74618 0.51199 0.48183 0.0
H326 H 0.67338 0.65881 0.42785 0.0
C327 C 0.63302 0.50499 0.48839 0.0
C328 C 0.5339 0.55385 0.47346 0.0
H329 H 0.82002 0.47257 0.49369 0.0
H330 H 0.62306 0.45914 0.50492 0.0
C331 C 0.55055 0.60952 0.45168 0.0
loop_
_geom_bond_atom_site_label_1
_geom_bond_atom_site_label_2
_geom_bond_distance
_geom_bond_site_symmetry_2
_ccdc_geom_bond_type
Co0 N1 2.034 . S
Co0 O15 2.262 . S
Co0 O19 1.958 . S
Co0 O23 1.950 . S
Co0 O24 2.057 . S
N1 Co0 2.034 . S
N1 C2 1.366 . S
N1 C4 1.332 . S
C2 N1 1.366 . S
C2 C5 1.377 . S
C2 H34 0.931 . S
N3 C4 1.346 . S
N3 C5 1.337 . S
C4 N1 1.332 . S
C4 N3 1.346 . S
C4 C38 1.361 . S
C5 C2 1.377 . S
C5 N3 1.337 . S
C5 H41 0.930 . S
Co6 N7 2.034 . S
Co6 O20 1.950 . S
Co6 O21 2.262 1_655 S
Co6 O22 1.958 1_655 S
Co6 O26 2.057 1_655 S
N7 Co6 2.034 . S
N7 C10 1.366 . S
N7 C11 1.332 . S
N8 C9 1.337 . S
N8 C11 1.346 . S
C9 N8 1.337 . S
C9 C10 1.377 . S
C9 H42 0.930 . S
C10 N7 1.366 . S
C10 C9 1.377 . S
C10 H14 0.931 . S
C11 N7 1.332 . S
C11 N8 1.346 . S
C11 C28 1.361 . S
Co12 O15 2.097 . S
Co12 O16 2.065 1_455 S
Co12 O17 2.065 . S
Co12 O18 2.042 . S
Co12 O21 2.097 . S
Co12 O25 2.042 . S
C13 O21 1.253 . S
C13 O26 1.263 . S
H14 C10 0.931 . S
O15 Co0 2.262 . S
O15 Co12 2.097 . S
O15 C39 1.253 . S
O16 Co12 2.065 1_655 S
O16 C32 1.221 . S
O17 Co12 2.065 . S
O17 C27 1.221 . S
O18 Co12 2.042 . S
O18 C33 1.237 . S
O19 Co0 1.958 . S
O19 C33 1.278 . S
O20 Co6 1.950 . S
O20 C32 1.277 . S
O21 Co6 2.262 1_455 S
O21 Co12 2.097 . S
O21 C13 1.253 . S
O22 Co6 1.958 1_455 S
O22 C40 1.278 . S
O23 Co0 1.950 . S
O23 C27 1.277 . S
O24 Co0 2.057 . S
O24 C39 1.263 . S
O25 Co12 2.042 . S
O25 C40 1.237 . S
O26 Co6 2.057 1_455 S
O26 C13 1.263 . S
C27 O17 1.221 . S
C27 O23 1.277 . S
C28 C11 1.361 . S
C28 H29 0.960 . S
C28 H30 0.961 . S
C28 H31 0.961 . S
H29 C28 0.960 . S
H30 C28 0.961 . S
H31 C28 0.961 . S
C32 O16 1.221 . S
C32 O20 1.277 . S
C33 O18 1.237 . S
C33 O19 1.278 . S
H34 C2 0.931 . S
H35 C38 0.961 . S
H36 C38 0.961 . S
H37 C38 0.960 . S
C38 C4 1.361 . S
C38 H35 0.961 . S
C38 H36 0.961 . S
C38 H37 0.960 . S
C39 O15 1.253 . S
C39 O24 1.263 . S
C40 O22 1.278 . S
C40 O25 1.237 . S
H41 C5 0.930 . S
H42 C9 0.930 . S
Co43 N44 2.034 . S
Co43 O58 2.262 . S
Co43 O62 1.958 . S
Co43 O66 1.950 1_455 S
Co43 O67 2.057 . S
N44 Co43 2.034 . S
N44 C45 1.366 . S
N44 C47 1.332 1_455 S
C45 N44 1.366 . S
C45 C48 1.377 1_455 S
C45 H77 0.931 . S
N46 C47 1.346 . S
N46 C48 1.337 . S
C47 N44 1.332 1_655 S
C47 N46 1.346 . S
C47 C81 1.361 . S
C48 C45 1.377 1_655 S
C48 N46 1.337 . S
C48 H84 0.930 . S
Co49 N50 2.034 . S
Co49 O63 1.950 . S
Co49 O64 2.262 . S
Co49 O65 1.958 . S
Co49 O69 2.057 . S
N50 Co49 2.034 . S
N50 C53 1.366 . S
N50 C54 1.332 . S
N51 C52 1.337 . S
N51 C54 1.346 . S
C52 N51 1.337 . S
C52 C53 1.377 . S
C52 H85 0.930 . S
C53 N50 1.366 . S
C53 C52 1.377 . S
C53 H57 0.931 . S
C54 N50 1.332 . S
C54 N51 1.346 . S
C54 C71 1.361 . S
Co55 O58 2.097 . S
Co55 O59 2.065 . S
Co55 O60 2.065 . S
Co55 O61 2.042 . S
Co55 O64 2.097 . S
Co55 O68 2.042 . S
C56 O64 1.253 . S
C56 O69 1.263 . S
H57 C53 0.931 . S
O58 Co43 2.262 . S
O58 Co55 2.097 . S
O58 C82 1.253 . S
O59 Co55 2.065 . S
O59 C75 1.221 . S
O60 Co55 2.065 . S
O60 C70 1.221 1_455 S
O61 Co55 2.042 . S
O61 C76 1.237 . S
O62 Co43 1.958 . S
O62 C76 1.278 . S
O63 Co49 1.950 . S
O63 C75 1.277 . S
O64 Co49 2.262 . S
O64 Co55 2.097 . S
O64 C56 1.253 . S
O65 Co49 1.958 . S
O65 C83 1.278 . S
O66 Co43 1.950 1_655 S
O66 C70 1.277 . S
O67 Co43 2.057 . S
O67 C82 1.263 . S
O68 Co55 2.042 . S
O68 C83 1.237 . S
O69 Co49 2.057 . S
O69 C56 1.263 . S
C70 O60 1.221 1_655 S
C70 O66 1.277 . S
C71 C54 1.361 . S
C71 H72 0.960 . S
C71 H73 0.961 . S
C71 H74 0.961 . S
H72 C71 0.960 . S
H73 C71 0.961 . S
H74 C71 0.961 . S
C75 O59 1.221 . S
C75 O63 1.277 . S
C76 O61 1.237 . S
C76 O62 1.278 . S
H77 C45 0.931 . S
H78 C81 0.961 . S
H79 C81 0.961 . S
H80 C81 0.960 . S
C81 C47 1.361 . S
C81 H78 0.961 . S
C81 H79 0.961 . S
C81 H80 0.960 . S
C82 O58 1.253 . S
C82 O67 1.263 . S
C83 O65 1.278 . S
C83 O68 1.237 . S
H84 C48 0.930 . S
H85 C52 0.930 . S
Co86 N87 2.034 . S
Co86 O101 2.262 . S
Co86 O105 1.958 . S
Co86 O109 1.950 . S
Co86 O110 2.057 . S
N87 Co86 2.034 . S
N87 C88 1.358 1_455 S
N87 C90 1.332 . S
C88 N87 1.358 1_655 S
C88 C91 1.380 . S
C88 H120 0.935 . S
N89 C90 1.346 1_545 S
N89 C91 1.337 1_445 S
C90 N87 1.332 . S
C90 N89 1.346 1_565 S
C90 C124 1.361 1_565 S
C91 C88 1.380 . S
C91 N89 1.337 1_665 S
C91 H127 0.930 . S
Co92 N93 2.034 . S
Co92 O106 1.950 . S
Co92 O107 2.262 . S
Co92 O108 1.958 . S
Co92 O112 2.057 . S
N93 Co92 2.034 . S
N93 C96 1.366 . S
N93 C97 1.332 . S
N94 C95 1.337 . S
N94 C97 1.346 . S
C95 N94 1.337 . S
C95 C96 1.377 . S
C95 H128 0.930 . S
C96 N93 1.366 . S
C96 C95 1.377 . S
C96 H100 0.931 . S
C97 N93 1.332 . S
C97 N94 1.346 . S
C97 C114 1.361 . S
Co98 O101 2.097 . S
Co98 O102 2.065 . S
Co98 O103 2.065 . S
Co98 O104 2.042 . S
Co98 O107 2.097 . S
Co98 O111 2.042 . S
C99 O107 1.253 . S
C99 O112 1.263 . S
H100 C96 0.931 . S
O101 Co86 2.262 . S
O101 Co98 2.097 . S
O101 C125 1.253 . S
O102 Co98 2.065 . S
O102 C118 1.221 . S
O103 Co98 2.065 . S
O103 C113 1.221 . S
O104 Co98 2.042 . S
O104 C119 1.237 . S
O105 Co86 1.958 . S
O105 C119 1.278 . S
O106 Co92 1.950 . S
O106 C118 1.277 . S
O107 Co92 2.262 . S
O107 Co98 2.097 . S
O107 C99 1.253 . S
O108 Co92 1.958 . S
O108 C126 1.278 . S
O109 Co86 1.950 . S
O109 C113 1.277 . S
O110 Co86 2.057 . S
O110 C125 1.263 . S
O111 Co98 2.042 . S
O111 C126 1.237 . S
O112 Co92 2.057 . S
O112 C99 1.263 . S
C113 O103 1.221 . S
C113 O109 1.277 . S
C114 C97 1.361 . S
C114 H115 0.960 . S
C114 H116 0.961 . S
C114 H117 0.961 . S
H115 C114 0.960 . S
H116 C114 0.961 . S
H117 C114 0.961 . S
C118 O102 1.221 . S
C118 O106 1.277 . S
C119 O104 1.237 . S
C119 O105 1.278 . S
H120 C88 0.935 . S
H121 C124 0.961 . S
H122 C124 0.961 . S
H123 C124 0.960 1_565 S
C124 C90 1.361 1_545 S
C124 H121 0.961 . S
C124 H122 0.961 . S
C124 H123 0.960 1_545 S
C125 O101 1.253 . S
C125 O110 1.263 . S
C126 O108 1.278 . S
C126 O111 1.237 . S
H127 C91 0.930 . S
H128 C95 0.930 . S
Co129 N130 2.034 . S
Co129 O144 2.262 . S
Co129 O148 1.958 . S
Co129 O152 1.950 . S
Co129 O153 2.057 . S
N130 Co129 2.034 . S
N130 C131 1.366 . S
N130 C133 1.332 . S
C131 N130 1.366 . S
C131 C134 1.377 . S
C131 H163 0.931 . S
N132 C133 1.346 . S
N132 C134 1.337 . S
C133 N130 1.332 . S
C133 N132 1.346 . S
C133 C167 1.361 . S
C134 C131 1.377 . S
C134 N132 1.337 . S
C134 H170 0.930 . S
Co135 N136 2.034 . S
Co135 O149 1.950 . S
Co135 O150 2.262 . S
Co135 O151 1.958 . S
Co135 O155 2.057 . S
N136 Co135 2.034 . S
N136 C139 1.366 . S
N136 C140 1.332 . S
N137 C138 1.337 . S
N137 C140 1.346 . S
C138 N137 1.337 . S
C138 C139 1.377 . S
C138 H171 0.930 . S
C139 N136 1.366 . S
C139 C138 1.377 . S
C139 H143 0.931 . S
C140 N136 1.332 . S
C140 N137 1.346 . S
C140 C157 1.361 . S
Co141 O144 2.097 . S
Co141 O145 2.065 . S
Co141 O146 2.065 . S
Co141 O147 2.042 . S
Co141 O150 2.097 . S
Co141 O154 2.042 . S
C142 O150 1.253 . S
C142 O155 1.263 . S
H143 C139 0.931 . S
O144 Co129 2.262 . S
O144 Co141 2.097 . S
O144 C168 1.253 . S
O145 Co141 2.065 . S
O145 C161 1.221 . S
O146 Co141 2.065 . S
O146 C156 1.221 . S
O147 Co141 2.042 . S
O147 C162 1.237 . S
O148 Co129 1.958 . S
O148 C162 1.278 . S
O149 Co135 1.950 . S
O149 C161 1.277 . S
O150 Co135 2.262 . S
O150 Co141 2.097 . S
O150 C142 1.253 . S
O151 Co135 1.958 . S
O151 C169 1.278 . S
O152 Co129 1.950 . S
O152 C156 1.277 . S
O153 Co129 2.057 . S
O153 C168 1.263 . S
O154 Co141 2.042 . S
O154 C169 1.237 . S
O155 Co135 2.057 . S
O155 C142 1.263 . S
C156 O146 1.221 . S
C156 O152 1.277 . S
C157 C140 1.361 . S
C157 H158 0.960 . S
C157 H159 0.961 . S
C157 H160 0.961 . S
H158 C157 0.960 . S
H159 C157 0.961 . S
H160 C157 0.961 . S
C161 O145 1.221 . S
C161 O149 1.277 . S
C162 O147 1.237 . S
C162 O148 1.278 . S
H163 C131 0.931 . S
H164 C167 0.961 . S
H165 C167 0.961 . S
H166 C167 0.960 . S
C167 C133 1.361 . S
C167 H164 0.961 . S
C167 H165 0.961 . S
C167 H166 0.960 . S
C168 O144 1.253 . S
C168 O153 1.263 . S
C169 O151 1.278 . S
C169 O154 1.237 . S
H170 C134 0.930 . S
H171 C138 0.930 . S
C172 C173 1.387 . S
C172 H176 0.950 . S
C172 C181 1.390 . S
C173 C172 1.387 . S
C173 C175 1.387 . S
H174 C181 0.950 . S
C175 C173 1.387 . S
C175 C177 1.390 . S
C175 H179 0.950 . S
H176 C172 0.950 . S
C177 C175 1.390 . S
C177 C178 1.387 . S
C177 H180 0.950 . S
C178 C177 1.387 . S
C178 C181 1.387 . S
H179 C175 0.950 . S
H180 C177 0.950 . S
C181 C172 1.390 . S
C181 H174 0.950 . S
C181 C178 1.387 . S
C182 C183 1.387 . S
C182 H186 0.950 . S
C182 C191 1.390 . S
C183 C182 1.387 . S
C183 C185 1.387 . S
H184 C191 0.950 . S
C185 C183 1.387 . S
C185 C187 1.390 . S
C185 H189 0.950 . S
H186 C182 0.950 . S
C187 C185 1.390 . S
C187 C188 1.387 . S
C187 H190 0.950 . S
C188 C187 1.387 . S
C188 C191 1.387 . S
H189 C185 0.950 . S
H190 C187 0.950 . S
C191 C182 1.390 . S
C191 H184 0.950 . S
C191 C188 1.387 . S
C192 C193 1.387 . S
C192 H196 0.950 . S
C192 C201 1.390 . S
C193 C192 1.387 . S
C193 C195 1.387 . S
H194 C201 0.950 . S
C195 C193 1.387 . S
C195 C197 1.390 . S
C195 H199 0.950 . S
H196 C192 0.950 . S
C197 C195 1.390 . S
C197 C198 1.387 . S
C197 H200 0.950 . S
C198 C197 1.387 . S
C198 C201 1.387 . S
H199 C195 0.950 . S
H200 C197 0.950 . S
C201 C192 1.390 . S
C201 H194 0.950 . S
C201 C198 1.387 . S
C202 C203 1.387 . S
C202 H206 0.950 . S
C202 C211 1.390 . S
C203 C202 1.387 . S
C203 C205 1.387 . S
H204 C211 0.950 . S
C205 C203 1.387 . S
C205 C207 1.390 . S
C205 H209 0.950 . S
H206 C202 0.950 . S
C207 C205 1.390 . S
C207 C208 1.387 . S
C207 H210 0.950 . S
C208 C207 1.387 . S
C208 C211 1.387 . S
H209 C205 0.950 . S
H210 C207 0.950 . S
C211 C202 1.390 . S
C211 H204 0.950 . S
C211 C208 1.387 . S
C212 C213 1.387 1_655 S
C212 H216 0.950 . S
C212 C221 1.388 . S
C213 C212 1.387 1_455 S
C213 C215 1.387 . S
H214 C221 0.960 . S
C215 C213 1.387 . S
C215 C217 1.390 . S
C215 H219 0.950 . S
H216 C212 0.950 . S
C217 C215 1.390 . S
C217 C218 1.387 . S
C217 H220 0.950 . S
C218 C217 1.387 . S
C218 C221 1.380 1_455 S
H219 C215 0.950 . S
H220 C217 0.950 . S
C221 C212 1.388 . S
C221 H214 0.960 . S
C221 C218 1.380 1_655 S
C222 C223 1.387 . S
C222 H226 0.950 . S
C222 C231 1.390 . S
C223 C222 1.387 . S
C223 C225 1.387 . S
H224 C231 0.950 . S
C225 C223 1.387 . S
C225 C227 1.390 . S
C225 H229 0.950 . S
H226 C222 0.950 . S
C227 C225 1.390 . S
C227 C228 1.387 . S
C227 H230 0.950 . S
C228 C227 1.387 . S
C228 C231 1.387 . S
H229 C225 0.950 . S
H230 C227 0.950 . S
C231 C222 1.390 . S
C231 H224 0.950 . S
C231 C228 1.387 . S
C232 C233 1.387 1_554 S
C232 H236 0.950 . S
C232 C241 1.390 . S
C233 C232 1.387 1_556 S
C233 C235 1.387 1_556 S
H234 C241 0.950 . S
C235 C233 1.387 1_554 S
C235 C237 1.390 . S
C235 H239 0.950 1_454 S
H236 C232 0.950 . S
C237 C235 1.390 . S
C237 C238 1.387 . S
C237 H240 0.950 . S
C238 C237 1.387 . S
C238 C241 1.387 . S
H239 C235 0.950 1_656 S
H240 C237 0.950 . S
C241 C232 1.390 . S
C241 H234 0.950 . S
C241 C238 1.387 . S
C242 C243 1.387 . S
C242 H246 0.950 . S
C242 C251 1.390 1_545 S
C243 C242 1.387 . S
C243 C245 1.387 1_545 S
H244 C251 0.950 . S
C245 C243 1.387 1_565 S
C245 C247 1.390 . S
C245 H249 0.950 . S
H246 C242 0.950 . S
C247 C245 1.390 . S
C247 C248 1.387 . S
C247 H250 0.950 . S
C248 C247 1.387 . S
C248 C251 1.387 . S
H249 C245 0.950 . S
H250 C247 0.950 . S
C251 C242 1.390 1_565 S
C251 H244 0.950 . S
C251 C248 1.387 . S
C252 C253 1.387 1_565 S
C252 H256 0.950 1_465 S
C252 C261 1.390 . S
C253 C252 1.387 1_545 S
C253 C255 1.387 1_545 S
H254 C261 0.950 . S
C255 C253 1.387 1_565 S
C255 C257 1.390 . S
C255 H259 0.950 . S
H256 C252 0.950 1_645 S
C257 C255 1.390 . S
C257 C258 1.387 . S
C257 H260 0.950 . S
C258 C257 1.387 . S
C258 C261 1.387 . S
H259 C255 0.950 . S
H260 C257 0.950 . S
C261 C252 1.390 . S
C261 H254 0.950 . S
C261 C258 1.387 . S
C262 C263 1.387 . S
C262 H266 0.950 . S
C262 C271 1.390 . S
C263 C262 1.387 . S
C263 C265 1.387 . S
H264 C271 0.950 . S
C265 C263 1.387 . S
C265 C267 1.390 . S
C265 H269 0.950 . S
H266 C262 0.950 . S
C267 C265 1.390 . S
C267 C268 1.387 . S
C267 H270 0.950 . S
C268 C267 1.387 . S
C268 C271 1.387 . S
H269 C265 0.950 . S
H270 C267 0.950 . S
C271 C262 1.390 . S
C271 H264 0.950 . S
C271 C268 1.387 . S
C272 C273 1.387 . S
C272 H276 0.950 . S
C272 C281 1.390 . S
C273 C272 1.387 . S
C273 C275 1.387 . S
H274 C281 0.950 . S
C275 C273 1.387 . S
C275 C277 1.390 . S
C275 H279 0.950 . S
H276 C272 0.950 . S
C277 C275 1.390 . S
C277 C278 1.387 . S
C277 H280 0.950 1_545 S
C278 C277 1.387 . S
C278 C281 1.387 . S
H279 C275 0.950 . S
H280 C277 0.950 1_565 S
C281 C272 1.390 . S
C281 H274 0.950 . S
C281 C278 1.387 . S
C282 C283 1.387 . S
C282 H286 0.950 . S
C282 C291 1.390 . S
C283 C282 1.387 . S
C283 C285 1.387 . S
H284 C291 0.950 . S
C285 C283 1.387 . S
C285 C287 1.390 . S
C285 H289 0.950 . S
H286 C282 0.950 . S
C287 C285 1.390 . S
C287 C288 1.387 . S
C287 H290 0.950 . S
C288 C287 1.387 . S
C288 C291 1.387 . S
H289 C285 0.950 . S
H290 C287 0.950 . S
C291 C282 1.390 . S
C291 H284 0.950 . S
C291 C288 1.387 . S
C292 C293 1.387 . S
C292 H296 0.950 . S
C292 C301 1.390 1_565 S
C293 C292 1.387 . S
C293 C295 1.387 . S
H294 C301 0.950 . S
C295 C293 1.387 . S
C295 C297 1.390 1_565 S
C295 H299 0.950 . S
H296 C292 0.950 . S
C297 C295 1.390 1_545 S
C297 C298 1.387 . S
C297 H300 0.950 . S
C298 C297 1.387 . S
C298 C301 1.387 . S
H299 C295 0.950 . S
H300 C297 0.950 . S
C301 C292 1.390 1_545 S
C301 H294 0.950 . S
C301 C298 1.387 . S
C302 C303 1.387 . S
C302 H306 0.950 . S
C302 C311 1.390 . S
C303 C302 1.387 . S
C303 C305 1.387 . S
H304 C311 0.950 . S
C305 C303 1.387 . S
C305 C307 1.390 . S
C305 H309 0.950 . S
H306 C302 0.950 . S
C307 C305 1.390 . S
C307 C308 1.387 . S
C307 H310 0.950 . S
C308 C307 1.387 . S
C308 C311 1.387 . S
H309 C305 0.950 . S
H310 C307 0.950 . S
C311 C302 1.390 . S
C311 H304 0.950 . S
C311 C308 1.387 . S
C312 C313 1.387 . S
C312 H316 0.950 . S
C312 C321 1.390 . S
C313 C312 1.387 . S
C313 C315 1.387 . S
H314 C321 0.950 1_545 S
C315 C313 1.387 . S
C315 C317 1.390 . S
C315 H319 0.950 . S
H316 C312 0.950 . S
C317 C315 1.390 . S
C317 C318 1.387 1_565 S
C317 H320 0.950 1_565 S
C318 C317 1.387 1_545 S
C318 C321 1.387 1_545 S
H319 C315 0.950 . S
H320 C317 0.950 1_545 S
C321 C312 1.390 . S
C321 H314 0.950 1_565 S
C321 C318 1.387 1_565 S
C322 C323 1.387 . S
C322 H326 0.950 . S
C322 C331 1.390 . S
C323 C322 1.387 . S
C323 C325 1.387 . S
H324 C331 0.950 . S
C325 C323 1.387 . S
C325 C327 1.390 . S
C325 H329 0.950 . S
H326 C322 0.950 . S
C327 C325 1.390 . S
C327 C328 1.387 . S
C327 H330 0.950 . S
C328 C327 1.387 . S
C328 C331 1.387 . S
H329 C325 0.950 . S
H330 C327 0.950 . S
C331 C322 1.390 . S
C331 H324 0.950 . S
C331 C328 1.387 . S
C173 C39 2.063 . S
C178 C56 2.050 . S
C183 N94 1.350 . S
C188 N46 1.342 . S
C193 C125 1.397 . S
C198 N137 1.615 1_556 S
C203 N8 1.859 . S
C208 C168 1.676 . S
C213 N132 1.615 . S
C218 C13 1.397 . S
C223 C82 2.050 . S
C228 C99 2.060 . S
C233 N89 1.859 . S
C238 C142 1.673 . S
C243 N3 1.347 . S
C248 N51 1.339 . S
C253 C27 1.484 . S
C258 C40 1.486 . S
C263 C83 1.493 . S
C268 C70 1.492 . S
C273 C126 1.736 . S
C278 C113 1.714 1_545 S
C283 C156 1.579 1_655 S
C288 C169 1.593 . S
C293 C75 1.492 . S
C298 C76 1.493 . S
C303 C118 1.488 . S
C308 C119 1.490 1_655 S
C313 C161 1.577 . S
C318 C162 1.591 . S
C323 C32 1.714 . S
C328 C33 1.736 . S
