# Generated by pormake.
# Topology wjh, (4)-cn, num edge types: 1
# Building blocks:
#     Node 0, Type 0, BuildingBlock: UXUYUI_clean_sbu_0, # of connection points: 4
#     Node 1, Type 0, BuildingBlock: UXUYUI_clean_sbu_0, # of connection points: 4
#     Node 2, Type 0, BuildingBlock: UXUYUI_clean_sbu_0, # of connection points: 4
#     Node 3, Type 0, BuildingBlock: UXUYUI_clean_sbu_0, # of connection points: 4
#     Node 4, Type 0, BuildingBlock: UXUYUI_clean_sbu_0, # of connection points: 4
#     Node 5, Type 0, BuildingBlock: UXUYUI_clean_sbu_0, # of connection points: 4
#     Node 6, Type 0, BuildingBlock: UXUYUI_clean_sbu_0, # of connection points: 4
#     Node 7, Type 0, BuildingBlock: UXUYUI_clean_sbu_0, # of connection points: 4
#     Node 8, Type 0, BuildingBlock: UXUYUI_clean_sbu_0, # of connection points: 4
#     Node 9, Type 0, BuildingBlock: UXUYUI_clean_sbu_0, # of connection points: 4
#     Node 10, Type 0, BuildingBlock: UXUYUI_clean_sbu_0, # of connection points: 4
#     Node 11, Type 0, BuildingBlock: UXUYUI_clean_sbu_0, # of connection points: 4
#     Edge 12, Type (0, 0), BuildingBlock: TEMPAE_clean_linker_10, # of connection points: 2
#     Edge 13, Type (0, 0), BuildingBlock: TEMPAE_clean_linker_10, # of connection points: 2
#     Edge 14, Type (0, 0), BuildingBlock: TEMPAE_clean_linker_10, # of connection points: 2
#     Edge 15, Type (0, 0), BuildingBlock: TEMPAE_clean_linker_10, # of connection points: 2
#     Edge 16, Type (0, 0), BuildingBlock: TEMPAE_clean_linker_10, # of connection points: 2
#     Edge 17, Type (0, 0), BuildingBlock: TEMPAE_clean_linker_10, # of connection points: 2
#     Edge 18, Type (0, 0), BuildingBlock: TEMPAE_clean_linker_10, # of connection points: 2
#     Edge 19, Type (0, 0), BuildingBlock: TEMPAE_clean_linker_10, # of connection points: 2
#     Edge 20, Type (0, 0), BuildingBlock: TEMPAE_clean_linker_10, # of connection points: 2
#     Edge 21, Type (0, 0), BuildingBlock: TEMPAE_clean_linker_10, # of connection points: 2
#     Edge 22, Type (0, 0), BuildingBlock: TEMPAE_clean_linker_10, # of connection points: 2
#     Edge 23, Type (0, 0), BuildingBlock: TEMPAE_clean_linker_10, # of connection points: 2
#     Edge 24, Type (0, 0), BuildingBlock: TEMPAE_clean_linker_10, # of connection points: 2
#     Edge 25, Type (0, 0), BuildingBlock: TEMPAE_clean_linker_10, # of connection points: 2
#     Edge 26, Type (0, 0), BuildingBlock: TEMPAE_clean_linker_10, # of connection points: 2
#     Edge 27, Type (0, 0), BuildingBlock: TEMPAE_clean_linker_10, # of connection points: 2
#     Edge 28, Type (0, 0), BuildingBlock: TEMPAE_clean_linker_10, # of connection points: 2
#     Edge 29, Type (0, 0), BuildingBlock: TEMPAE_clean_linker_10, # of connection points: 2
#     Edge 30, Type (0, 0), BuildingBlock: TEMPAE_clean_linker_10, # of connection points: 2
#     Edge 31, Type (0, 0), BuildingBlock: TEMPAE_clean_linker_10, # of connection points: 2
#     Edge 32, Type (0, 0), BuildingBlock: TEMPAE_clean_linker_10, # of connection points: 2
#     Edge 33, Type (0, 0), BuildingBlock: TEMPAE_clean_linker_10, # of connection points: 2
#     Edge 34, Type (0, 0), BuildingBlock: TEMPAE_clean_linker_10, # of connection points: 2
#     Edge 35, Type (0, 0), BuildingBlock: TEMPAE_clean_linker_10, # of connection points: 2
# Relax obj value: 0.245
# Max RMSD: 0.173
# Mean RMSD: 0.173
data_MOF--net-wjh--node1-UXUYUI_clean_sbu_0--edge1-TEMPAE_clean_linker_10
_symmetry_space_group_name_H-M    P1
_symmetry_Int_Tables_number       1
_symmetry_cell_setting            triclinic
loop_
_symmetry_equiv_pos_as_xyz
'x, y, z'
_cell_length_a     91.229762
_cell_length_b     91.226668
_cell_length_c     36.224447
_cell_angle_alpha  89.998526
_cell_angle_beta   90.003727
_cell_angle_gamma 120.02127
loop_
_atom_site_label
_atom_site_type_symbol
_atom_site_fract_x
_atom_site_fract_y
_atom_site_fract_z
_atom_type_partial_charge
Li0 Li 0.47776 0.1207 0.05879 0.0
Li1 Li 0.50478 0.14018 0.08902 0.0
Li2 Li 0.48905 0.15048 0.05698 0.0
Li3 Li 0.50266 0.13909 0.02231 0.0
C4 C 0.46984 0.13927 0.11534 0.0
N5 N 0.44635 0.14765 0.14066 0.0
C6 C 0.47424 0.15152 0.14289 0.0
C7 C 0.45348 0.13138 0.10055 0.0
C8 C 0.4622 0.15558 0.15528 0.0
C9 C 0.44177 0.13572 0.11384 0.0
C10 C 0.49805 0.10703 0.07458 0.0
C11 C 0.50129 0.08238 0.0774 0.0
N12 N 0.49461 0.07908 0.11201 0.0
C13 C 0.49124 0.10339 0.11021 0.0
C14 C 0.50312 0.09645 0.05802 0.0
C15 C 0.4896 0.08921 0.12866 0.0
C16 C 0.45639 0.08873 0.03043 0.0
N17 N 0.45911 0.09849 0.06077 0.0
C18 C 0.43798 0.07487 0.09451 0.0
C19 C 0.45017 0.092 0.09243 0.0
C20 C 0.4353 0.06427 0.06403 0.0
C21 C 0.44452 0.0715 0.03146 0.0
H22 H 0.46401 0.09423 0.00598 0.0
H23 H 0.45293 0.09998 0.11647 0.0
C24 C 0.51893 0.15149 0.15994 0.0
N25 N 0.51931 0.14293 0.12962 0.0
C26 C 0.52888 0.15317 0.19068 0.0
C27 C 0.53994 0.13772 0.1579 0.0
C28 C 0.52971 0.13627 0.12792 0.0
C29 C 0.53946 0.14608 0.19005 0.0
H30 H 0.5108 0.15689 0.16038 0.0
H31 H 0.53002 0.12971 0.10337 0.0
C32 C 0.47842 0.14241 0.98391 0.0
N33 N 0.47715 0.15839 0.92019 0.0
C34 C 0.49053 0.15936 0.97752 0.0
C35 C 0.46566 0.13361 0.95791 0.0
C36 C 0.48968 0.16721 0.94513 0.0
C37 C 0.46523 0.14191 0.92586 0.0
C38 C 0.531 0.16669 0.0528 0.0
C39 C 0.54138 0.1842 0.05665 0.0
C40 C 0.53836 0.1566 0.04732 0.0
C41 C 0.55895 0.19132 0.05508 0.0
C42 C 0.55597 0.1642 0.04591 0.0
N43 N 0.56582 0.18125 0.0498 0.0
C44 C 0.49486 0.18218 0.07651 0.0
C45 C 0.46793 0.16512 0.04885 0.0
C46 C 0.49081 0.19461 0.0849 0.0
N47 N 0.48334 0.1677 0.05949 0.0
C48 C 0.46322 0.17713 0.05732 0.0
C49 C 0.47468 0.19194 0.0761 0.0
H50 H 0.50687 0.18368 0.08516 0.0
H51 H 0.45901 0.15338 0.03552 0.0
C52 C 0.51141 0.12508 0.96374 0.0
N53 N 0.51404 0.13999 0.97786 0.0
C54 C 0.52016 0.12492 0.93232 0.0
C55 C 0.53384 0.15547 0.93009 0.0
C56 C 0.52483 0.15503 0.96158 0.0
C57 C 0.53169 0.14028 0.91532 0.0
H58 H 0.50261 0.11332 0.97716 0.0
H59 H 0.52671 0.16672 0.97345 0.0
O60 O 0.4816 0.13547 0.10187 0.0
O61 O 0.49954 0.12069 0.05561 0.0
O62 O 0.47896 0.13434 0.01529 0.0
O63 O 0.51377 0.15965 0.05436 0.0
H64 H 0.48686 0.15805 0.15424 0.0
H65 H 0.44995 0.12232 0.07835 0.0
H66 H 0.46549 0.16512 0.1764 0.0
H67 H 0.42912 0.12975 0.10249 0.0
H68 H 0.50516 0.07409 0.0649 0.0
H69 H 0.48722 0.1114 0.12353 0.0
H70 H 0.50842 0.09907 0.03047 0.0
H71 H 0.48433 0.08624 0.15621 0.0
H72 H 0.43108 0.06993 0.12006 0.0
H73 H 0.44322 0.06381 0.00755 0.0
H74 H 0.52799 0.15961 0.21495 0.0
H75 H 0.54814 0.13234 0.1559 0.0
H76 H 0.50051 0.16641 0.99726 0.0
H77 H 0.4562 0.12048 0.96246 0.0
H78 H 0.49898 0.1803 0.93983 0.0
H79 H 0.45542 0.13524 0.90549 0.0
H80 H 0.53592 0.19222 0.06078 0.0
H81 H 0.53062 0.14307 0.044 0.0
H82 H 0.56712 0.20485 0.05805 0.0
H83 H 0.56181 0.15652 0.04168 0.0
H84 H 0.49987 0.20577 0.09994 0.0
H85 H 0.45066 0.1747 0.05022 0.0
H86 H 0.51795 0.11292 0.92147 0.0
H87 H 0.54271 0.16759 0.91802 0.0
Li88 Li 0.36956 0.50082 0.27508 0.0
Li89 Li 0.36161 0.47672 0.23727 0.0
Li90 Li 0.36691 0.5041 0.20901 0.0
Li91 Li 0.34182 0.48575 0.24792 0.0
C92 C 0.39947 0.5084 0.24504 0.0
N93 N 0.4328 0.52799 0.26702 0.0
C94 C 0.40549 0.50362 0.27558 0.0
C95 C 0.41043 0.52311 0.22557 0.0
C96 C 0.42237 0.51372 0.28631 0.0
C97 C 0.42724 0.53284 0.23714 0.0
C98 C 0.34946 0.46257 0.29989 0.0
C99 C 0.33522 0.43201 0.3003 0.0
N100 N 0.34586 0.43262 0.32732 0.0
C101 C 0.36033 0.46286 0.32751 0.0
C102 C 0.33685 0.44699 0.28608 0.0
C103 C 0.35826 0.4476 0.34109 0.0
C104 C 0.3753 0.50722 0.35166 0.0
N105 N 0.3815 0.51377 0.31775 0.0
C106 C 0.40353 0.53916 0.34496 0.0
C107 C 0.39512 0.52959 0.3139 0.0
C108 C 0.3978 0.53238 0.38027 0.0
C109 C 0.38345 0.51624 0.38347 0.0
H110 H 0.36385 0.49509 0.35404 0.0
H111 H 0.39935 0.53487 0.28669 0.0
C112 C 0.35567 0.44648 0.2009 0.0
N113 N 0.36455 0.45783 0.228 0.0
C114 C 0.35736 0.43218 0.19592 0.0
C115 C 0.37723 0.44169 0.24672 0.0
C116 C 0.37546 0.45588 0.25015 0.0
C117 C 0.36804 0.42962 0.21953 0.0
H118 H 0.34726 0.44847 0.18333 0.0
H119 H 0.38252 0.46518 0.27104 0.0
C120 C 0.35708 0.52148 0.27559 0.0
N121 N 0.35792 0.54304 0.33025 0.0
C122 C 0.34625 0.51504 0.30601 0.0
C123 C 0.36839 0.53889 0.27307 0.0
C124 C 0.34685 0.52615 0.33331 0.0
C125 C 0.36861 0.54957 0.30097 0.0
C126 C 0.33325 0.47517 0.18091 0.0
C127 C 0.33096 0.48665 0.15962 0.0
C128 C 0.31999 0.45848 0.1845 0.0
C129 C 0.31539 0.48124 0.14236 0.0
C130 C 0.3046 0.45358 0.16684 0.0
N131 N 0.30264 0.46497 0.14633 0.0
C132 C 0.3809 0.51205 0.13899 0.0
C133 C 0.37656 0.53345 0.16497 0.0
C134 C 0.38812 0.52183 0.10751 0.0
N135 N 0.37547 0.51806 0.16696 0.0
C136 C 0.38387 0.54375 0.1341 0.0
C137 C 0.38984 0.53798 0.10501 0.0
H138 H 0.37984 0.49974 0.14151 0.0
H139 H 0.37187 0.53776 0.18739 0.0
C140 C 0.30799 0.46533 0.27349 0.0
N141 N 0.31884 0.4796 0.25477 0.0
C142 C 0.29169 0.46198 0.2818 0.0
C143 C 0.29802 0.48807 0.25128 0.0
C144 C 0.31409 0.49074 0.24299 0.0
C145 C 0.28667 0.47368 0.2716 0.0
H146 H 0.31211 0.45681 0.28313 0.0
H147 H 0.32308 0.50209 0.22849 0.0
O148 O 0.38299 0.49871 0.23398 0.0
O149 O 0.35136 0.47741 0.28591 0.0
O150 O 0.35704 0.51073 0.24918 0.0
O151 O 0.34825 0.48036 0.19887 0.0
H152 H 0.39713 0.49251 0.29146 0.0
H153 H 0.40603 0.527 0.20185 0.0
H154 H 0.42714 0.51025 0.3101 0.0
H155 H 0.43585 0.54427 0.22238 0.0
H156 H 0.3256 0.41991 0.28961 0.0
H157 H 0.37054 0.47468 0.33781 0.0
H158 H 0.32872 0.44643 0.2638 0.0
H159 H 0.36663 0.44767 0.36234 0.0
H160 H 0.41449 0.55164 0.34143 0.0
H161 H 0.37841 0.5108 0.4103 0.0
H162 H 0.35029 0.42317 0.17432 0.0
H163 H 0.38586 0.44022 0.26487 0.0
H164 H 0.33769 0.50158 0.30893 0.0
H165 H 0.37715 0.54408 0.25024 0.0
H166 H 0.33858 0.52132 0.35705 0.0
H167 H 0.37736 0.56305 0.29946 0.0
H168 H 0.34102 0.49964 0.15679 0.0
H169 H 0.32149 0.44945 0.20103 0.0
H170 H 0.31341 0.49001 0.12594 0.0
H171 H 0.29421 0.44074 0.16954 0.0
H172 H 0.39274 0.51702 0.08582 0.0
H173 H 0.38485 0.55608 0.13296 0.0
H174 H 0.28331 0.4506 0.297 0.0
H175 H 0.29488 0.49761 0.24336 0.0
Li176 Li 0.88077 0.36389 0.40752 0.0
Li177 Li 0.86293 0.37222 0.44403 0.0
Li178 Li 0.85168 0.34314 0.4196 0.0
Li179 Li 0.8587 0.36649 0.37871 0.0
C180 C 0.87427 0.34435 0.47189 0.0
N181 N 0.88293 0.32212 0.5032 0.0
C182 C 0.87605 0.34403 0.51013 0.0
C183 C 0.87686 0.33335 0.44954 0.0
C184 C 0.88046 0.3327 0.52544 0.0
C185 C 0.88124 0.32221 0.4659 0.0
C186 C 0.88422 0.39754 0.37938 0.0
C187 C 0.88191 0.42066 0.35354 0.0
N188 N 0.89333 0.42266 0.32704 0.0
C189 C 0.89603 0.3999 0.35209 0.0
C190 C 0.87719 0.40808 0.38035 0.0
C191 C 0.90045 0.41265 0.32583 0.0
C192 C 0.90881 0.36383 0.37375 0.0
N193 N 0.90292 0.36767 0.40456 0.0
C194 C 0.92966 0.37863 0.43433 0.0
C195 C 0.91285 0.37478 0.43464 0.0
C196 C 0.93633 0.37529 0.40257 0.0
C197 C 0.92563 0.36756 0.37214 0.0
H198 H 0.90054 0.35821 0.35024 0.0
H199 H 0.90771 0.37762 0.45874 0.0
C200 C 0.85063 0.37661 0.51141 0.0
N201 N 0.86236 0.3848 0.48464 0.0
C202 C 0.85007 0.38545 0.5423 0.0
C203 C 0.87368 0.41094 0.51732 0.0
C204 C 0.87378 0.4016 0.48691 0.0
C205 C 0.86175 0.40284 0.5456 0.0
H206 H 0.84173 0.36321 0.5087 0.0
H207 H 0.88306 0.4077 0.46528 0.0
C208 C 0.8536 0.33677 0.34544 0.0
N209 N 0.83246 0.31417 0.29272 0.0
C210 C 0.83675 0.33293 0.3428 0.0
C211 C 0.85969 0.32914 0.32118 0.0
C212 C 0.82627 0.32147 0.31599 0.0
C213 C 0.84881 0.31774 0.29474 0.0
C214 C 0.82745 0.35897 0.42297 0.0
C215 C 0.81146 0.34447 0.42093 0.0
C216 C 0.82883 0.3746 0.43096 0.0
C217 C 0.79707 0.34588 0.42656 0.0
C218 C 0.81413 0.37549 0.43643 0.0
N219 N 0.79869 0.36123 0.43412 0.0
C220 C 0.82831 0.31905 0.4657 0.0
C221 C 0.83464 0.30679 0.4148 0.0
C222 C 0.81711 0.30311 0.47987 0.0
N223 N 0.83666 0.32058 0.43363 0.0
C224 C 0.82335 0.29054 0.42774 0.0
C225 C 0.81444 0.28863 0.46065 0.0
H226 H 0.83039 0.33031 0.48019 0.0
H227 H 0.84179 0.30835 0.38991 0.0
C228 C 0.86177 0.37406 0.30317 0.0
N229 N 0.85313 0.37373 0.33403 0.0
C230 C 0.86013 0.38134 0.27071 0.0
C231 C 0.84021 0.3872 0.30192 0.0
C232 C 0.84224 0.37981 0.33377 0.0
C233 C 0.8495 0.38835 0.27007 0.0
H234 H 0.87052 0.36933 0.30428 0.0
H235 H 0.8356 0.37954 0.35855 0.0
O236 O 0.86981 0.35526 0.45658 0.0
O237 O 0.87932 0.38476 0.40455 0.0
O238 O 0.86421 0.34795 0.37139 0.0
O239 O 0.84165 0.3577 0.41831 0.0
H240 H 0.87403 0.35243 0.52777 0.0
H241 H 0.87544 0.33336 0.41989 0.0
H242 H 0.88188 0.33231 0.55501 0.0
H243 H 0.88327 0.31362 0.44896 0.0
H244 H 0.87644 0.42879 0.35371 0.0
H245 H 0.90155 0.39181 0.35092 0.0
H246 H 0.868 0.40638 0.40125 0.0
H247 H 0.90947 0.41454 0.30436 0.0
H248 H 0.93742 0.38436 0.45855 0.0
H249 H 0.93035 0.36493 0.34703 0.0
H250 H 0.84055 0.37877 0.56327 0.0
H251 H 0.88304 0.42427 0.51903 0.0
H252 H 0.83177 0.3387 0.36114 0.0
H253 H 0.87271 0.33199 0.32285 0.0
H254 H 0.81321 0.31838 0.31367 0.0
H255 H 0.85336 0.31173 0.27583 0.0
H256 H 0.81019 0.33225 0.41505 0.0
H257 H 0.84109 0.38596 0.43264 0.0
H258 H 0.78461 0.33476 0.42498 0.0
H259 H 0.815 0.38751 0.4425 0.0
H260 H 0.81031 0.3021 0.50513 0.0
H261 H 0.82165 0.27962 0.41238 0.0
H262 H 0.8677 0.38215 0.24692 0.0
H263 H 0.83173 0.39229 0.30245 0.0
Li264 Li 0.51859 0.8781 0.56106 0.0
Li265 Li 0.49165 0.85896 0.59415 0.0
Li266 Li 0.50729 0.84704 0.56381 0.0
Li267 Li 0.49281 0.85774 0.5292 0.0
C268 C 0.52067 0.85695 0.63055 0.0
N269 N 0.5319 0.84124 0.67888 0.0
C270 C 0.50933 0.84455 0.65487 0.0
C271 C 0.53772 0.86139 0.63086 0.0
C272 C 0.51526 0.83676 0.67909 0.0
C273 C 0.54315 0.85329 0.65549 0.0
C274 C 0.49059 0.88639 0.577 0.0
C275 C 0.46718 0.88935 0.59853 0.0
N276 N 0.47823 0.90373 0.61675 0.0
C277 C 0.50172 0.90125 0.59578 0.0
C278 C 0.47319 0.88043 0.57819 0.0
C279 C 0.49521 0.90982 0.61576 0.0
C280 C 0.53927 0.90989 0.53098 0.0
N281 N 0.53781 0.8999 0.56013 0.0
C282 C 0.56206 0.92263 0.58908 0.0
C283 C 0.54889 0.90582 0.58882 0.0
C284 C 0.56367 0.93337 0.55963 0.0
C285 C 0.5522 0.92672 0.53007 0.0
H286 H 0.52996 0.90493 0.50915 0.0
H287 H 0.54717 0.89767 0.61204 0.0
C288 C 0.46304 0.84462 0.64173 0.0
N289 N 0.47906 0.85773 0.63698 0.0
C290 C 0.45389 0.84374 0.67335 0.0
C291 C 0.47801 0.86972 0.69484 0.0
C292 C 0.4867 0.87005 0.66289 0.0
C293 C 0.46135 0.85644 0.70038 0.0
H294 H 0.45743 0.83475 0.62119 0.0
H295 H 0.49957 0.88017 0.65862 0.0
C296 C 0.51676 0.85852 0.48479 0.0
N297 N 0.51681 0.85101 0.4109 0.0
C298 C 0.51439 0.84274 0.47419 0.0
C299 C 0.51926 0.87051 0.45782 0.0
C300 C 0.51445 0.83919 0.43669 0.0
C301 C 0.51919 0.86645 0.42061 0.0
C302 C 0.46879 0.8269 0.54478 0.0
C303 C 0.46877 0.81337 0.52661 0.0
C304 C 0.45453 0.82881 0.54265 0.0
C305 C 0.45448 0.802 0.50649 0.0
C306 C 0.44052 0.81721 0.52216 0.0
N307 N 0.44078 0.80415 0.50467 0.0
C308 C 0.50221 0.81579 0.58597 0.0
C309 C 0.52992 0.83414 0.56329 0.0
C310 C 0.50652 0.80363 0.59504 0.0
N311 N 0.51385 0.83064 0.57041 0.0
C312 C 0.53491 0.82241 0.57265 0.0
C313 C 0.52308 0.80698 0.58874 0.0
H314 H 0.4897 0.81362 0.59237 0.0
H315 H 0.53897 0.84624 0.5515 0.0
C316 C 0.47517 0.86685 0.47939 0.0
N317 N 0.48023 0.85532 0.48495 0.0
C318 C 0.4656 0.86575 0.44841 0.0
C319 C 0.46685 0.84107 0.42887 0.0
C320 C 0.47637 0.84265 0.46029 0.0
C321 C 0.46128 0.85269 0.4227 0.0
H322 H 0.47849 0.87691 0.49912 0.0
H323 H 0.48063 0.8337 0.46496 0.0
O324 O 0.51497 0.86423 0.60563 0.0
O325 O 0.49667 0.87761 0.55785 0.0
O326 O 0.51672 0.86222 0.52137 0.0
O327 O 0.48267 0.83819 0.56459 0.0
H328 H 0.49605 0.84078 0.65465 0.0
H329 H 0.54661 0.87073 0.61177 0.0
H330 H 0.50661 0.82708 0.69791 0.0
H331 H 0.55628 0.8565 0.65584 0.0
H332 H 0.45374 0.88482 0.59988 0.0
H333 H 0.51521 0.90604 0.59532 0.0
H334 H 0.4644 0.86897 0.56378 0.0
H335 H 0.50367 0.92129 0.63058 0.0
H336 H 0.57062 0.92726 0.6124 0.0
H337 H 0.5527 0.93465 0.50729 0.0
H338 H 0.44121 0.8331 0.67683 0.0
H339 H 0.48421 0.87985 0.71479 0.0
H340 H 0.51234 0.83326 0.49462 0.0
H341 H 0.52104 0.88274 0.46549 0.0
H342 H 0.51255 0.827 0.42809 0.0
H343 H 0.52099 0.87557 0.39944 0.0
H344 H 0.47975 0.8118 0.52743 0.0
H345 H 0.45436 0.83926 0.55629 0.0
H346 H 0.45433 0.79153 0.49213 0.0
H347 H 0.42946 0.81861 0.5201 0.0
H348 H 0.4972 0.79198 0.60815 0.0
H349 H 0.54783 0.8254 0.56775 0.0
H350 H 0.46142 0.87488 0.44494 0.0
H351 H 0.464 0.83095 0.40949 0.0
Li352 Li 0.63263 0.51792 0.7312 0.0
Li353 Li 0.62191 0.49031 0.76825 0.0
Li354 Li 0.65 0.50541 0.74144 0.0
Li355 Li 0.62661 0.49129 0.70205 0.0
C356 C 0.65307 0.52173 0.80449 0.0
N357 N 0.67968 0.53736 0.85367 0.0
C358 C 0.65316 0.51343 0.83685 0.0
C359 C 0.66637 0.53809 0.79746 0.0
C360 C 0.66676 0.52152 0.8613 0.0
C361 C 0.67975 0.54575 0.82257 0.0
C362 C 0.59632 0.48758 0.70783 0.0
C363 C 0.57081 0.46176 0.69192 0.0
N364 N 0.56866 0.46969 0.66235 0.0
C365 C 0.59381 0.49551 0.67746 0.0
C366 C 0.58471 0.4706 0.71529 0.0
C367 C 0.57976 0.48623 0.65472 0.0
C368 C 0.62996 0.54376 0.69441 0.0
N369 N 0.63115 0.53769 0.72783 0.0
C370 C 0.62801 0.55894 0.7591 0.0
C371 C 0.63051 0.54508 0.75984 0.0
C372 C 0.62611 0.56519 0.72505 0.0
C373 C 0.62745 0.55763 0.69235 0.0
H374 H 0.63058 0.53759 0.66944 0.0
H375 H 0.63142 0.53986 0.78598 0.0
C376 C 0.61446 0.46817 0.82726 0.0
N377 N 0.60881 0.47726 0.80844 0.0
C378 C 0.60545 0.4584 0.85758 0.0
C379 C 0.5848 0.4673 0.84811 0.0
C380 C 0.59431 0.47702 0.81809 0.0
C381 C 0.59039 0.45786 0.8684 0.0
H382 H 0.6261 0.4687 0.81889 0.0
H383 H 0.59012 0.48434 0.80239 0.0
C384 C 0.66004 0.5259 0.67584 0.0
N385 N 0.68811 0.54994 0.63784 0.0
C386 C 0.66613 0.5212 0.64531 0.0
C387 C 0.66804 0.54289 0.68659 0.0
C388 C 0.6804 0.53352 0.62661 0.0
C389 C 0.68226 0.55483 0.66714 0.0
C390 C 0.63979 0.47123 0.72552 0.0
C391 C 0.6519 0.47785 0.69747 0.0
C392 C 0.63399 0.45475 0.73813 0.0
C393 C 0.65802 0.46786 0.68239 0.0
C394 C 0.64041 0.44514 0.72233 0.0
N395 N 0.65219 0.45184 0.69502 0.0
C396 C 0.67202 0.49958 0.78115 0.0
C397 C 0.68688 0.52196 0.73861 0.0
C398 C 0.68712 0.50162 0.79512 0.0
N399 N 0.67213 0.50976 0.75367 0.0
C400 C 0.70235 0.52431 0.75145 0.0
C401 C 0.70259 0.51409 0.78021 0.0
H402 H 0.6601 0.49006 0.79281 0.0
H403 H 0.68678 0.52997 0.71692 0.0
C404 C 0.61958 0.48645 0.62606 0.0
N405 N 0.61766 0.47828 0.6586 0.0
C406 C 0.61181 0.47726 0.59416 0.0
C407 C 0.60058 0.45143 0.62981 0.0
C408 C 0.60854 0.46113 0.66102 0.0
C409 C 0.602 0.45952 0.59592 0.0
H410 H 0.62679 0.50013 0.62514 0.0
H411 H 0.60699 0.45502 0.68746 0.0
O412 O 0.64008 0.51383 0.77975 0.0
O413 O 0.61031 0.49627 0.72964 0.0
O414 O 0.64591 0.51402 0.69405 0.0
O415 O 0.63354 0.48073 0.74066 0.0
H416 H 0.64293 0.50081 0.84285 0.0
H417 H 0.66642 0.54477 0.77282 0.0
H418 H 0.66706 0.51518 0.88629 0.0
H419 H 0.69019 0.55835 0.81731 0.0
H420 H 0.56178 0.44858 0.69718 0.0
H421 H 0.60274 0.50863 0.67123 0.0
H422 H 0.58656 0.46425 0.73855 0.0
H423 H 0.57773 0.49216 0.63093 0.0
H424 H 0.62677 0.56419 0.78496 0.0
H425 H 0.62619 0.56215 0.66556 0.0
H426 H 0.61039 0.45158 0.87271 0.0
H427 H 0.57316 0.46708 0.85514 0.0
H428 H 0.65988 0.50819 0.63599 0.0
H429 H 0.6634 0.54685 0.7097 0.0
H430 H 0.68529 0.53003 0.60306 0.0
H431 H 0.68863 0.568 0.67532 0.0
H432 H 0.65657 0.49059 0.68761 0.0
H433 H 0.6246 0.44944 0.75983 0.0
H434 H 0.66741 0.47285 0.66067 0.0
H435 H 0.63602 0.43236 0.73178 0.0
H436 H 0.68665 0.49366 0.8178 0.0
H437 H 0.71396 0.53395 0.73882 0.0
H438 H 0.61332 0.48396 0.56849 0.0
H439 H 0.59294 0.43781 0.63245 0.0
Li440 Li 0.13828 0.63486 0.86893 0.0
Li441 Li 0.14479 0.65782 0.90857 0.0
Li442 Li 0.1363 0.6304 0.93724 0.0
Li443 Li 0.11625 0.6368 0.90352 0.0
C444 C 0.173 0.65677 0.90187 0.0
N445 N 0.20584 0.68319 0.89413 0.0
C446 C 0.17998 0.66213 0.86672 0.0
C447 C 0.18275 0.66481 0.93308 0.0
C448 C 0.19661 0.6755 0.86339 0.0
C449 C 0.19931 0.67817 0.92859 0.0
C450 C 0.13588 0.66616 0.8448 0.0
C451 C 0.13683 0.69291 0.83784 0.0
N452 N 0.14675 0.69626 0.80742 0.0
C453 C 0.146 0.66981 0.81334 0.0
C454 C 0.13115 0.67773 0.85704 0.0
C455 C 0.15139 0.68512 0.79486 0.0
C456 C 0.13295 0.62469 0.79456 0.0
N457 N 0.14223 0.62613 0.82508 0.0
C458 C 0.15437 0.61133 0.79548 0.0
C459 C 0.15295 0.61985 0.82602 0.0
C460 C 0.14462 0.60926 0.76381 0.0
C461 C 0.134 0.6163 0.76337 0.0
H462 H 0.12428 0.62952 0.79499 0.0
H463 H 0.15997 0.621 0.85097 0.0
C464 C 0.15981 0.68634 0.95356 0.0
N465 N 0.1596 0.68138 0.9181 0.0
C466 C 0.17131 0.70281 0.96452 0.0
C467 C 0.18192 0.70903 0.902 0.0
C468 C 0.17032 0.69235 0.89235 0.0
C469 C 0.18273 0.71437 0.93871 0.0
H470 H 0.15149 0.67732 0.97379 0.0
H471 H 0.17034 0.68808 0.86462 0.0
C472 C 0.11277 0.60327 0.8765 0.0
N473 N 0.10087 0.57657 0.8274 0.0
C474 C 0.09995 0.60047 0.85151 0.0
C475 C 0.11947 0.59244 0.87671 0.0
C476 C 0.09411 0.5869 0.8269 0.0
C477 C 0.11331 0.57903 0.85159 0.0
C478 C 0.11739 0.64713 0.9725 0.0
C479 C 0.10987 0.63499 0.00034 0.0
C480 C 0.11256 0.65932 0.96766 0.0
C481 C 0.09741 0.6351 0.02255 0.0
C482 C 0.10003 0.65898 0.9904 0.0
N483 N 0.09277 0.64697 0.01712 0.0
C484 C 0.14992 0.62598 0.00366 0.0
C485 C 0.12594 0.6014 0.98028 0.0
C486 C 0.15027 0.61708 0.03469 0.0
N487 N 0.13787 0.61803 0.97734 0.0
C488 C 0.12578 0.59203 0.01086 0.0
C489 C 0.13799 0.5999 0.0387 0.0
H490 H 0.15899 0.63931 0.001 0.0
H491 H 0.11632 0.5955 0.95924 0.0
C492 C 0.08757 0.63928 0.88188 0.0
N493 N 0.09336 0.6312 0.90386 0.0
C494 C 0.07051 0.63472 0.8829 0.0
C495 C 0.06587 0.61377 0.92933 0.0
C496 C 0.08292 0.61857 0.92703 0.0
C497 C 0.0594 0.62177 0.90685 0.0
H498 H 0.09615 0.64911 0.86329 0.0
H499 H 0.0879 0.61226 0.94383 0.0
O500 O 0.15661 0.64394 0.90565 0.0
O501 O 0.13032 0.65116 0.86297 0.0
O502 O 0.1191 0.61686 0.89985 0.0
O503 O 0.1294 0.64706 0.95002 0.0
H504 H 0.17257 0.65621 0.84224 0.0
H505 H 0.1775 0.66097 0.96046 0.0
H506 H 0.20214 0.67983 0.83635 0.0
H507 H 0.20694 0.6846 0.95249 0.0
H508 H 0.13335 0.70203 0.84714 0.0
H509 H 0.14981 0.66102 0.8035 0.0
H510 H 0.12327 0.67508 0.88123 0.0
H511 H 0.1593 0.68816 0.7706 0.0
H512 H 0.16279 0.60619 0.79681 0.0
H513 H 0.12608 0.61475 0.73973 0.0
H514 H 0.17172 0.70619 0.99331 0.0
H515 H 0.19041 0.71751 0.88111 0.0
H516 H 0.09474 0.60883 0.85079 0.0
H517 H 0.12952 0.59455 0.89565 0.0
H518 H 0.08427 0.58464 0.80725 0.0
H519 H 0.11847 0.57064 0.8512 0.0
H520 H 0.11349 0.62549 0.00452 0.0
H521 H 0.11836 0.66887 0.94643 0.0
H522 H 0.09139 0.62571 0.04404 0.0
H523 H 0.09608 0.66827 0.9868 0.0
H524 H 0.15973 0.62368 0.05582 0.0
H525 H 0.11616 0.57879 0.01278 0.0
H526 H 0.06602 0.64103 0.86464 0.0
H527 H 0.05788 0.60391 0.94861 0.0
Li528 Li 0.84936 0.50724 0.91558 0.0
Li529 Li 0.86095 0.49299 0.94844 0.0
Li530 Li 0.87988 0.52111 0.91805 0.0
Li531 Li 0.86273 0.4942 0.88261 0.0
C532 C 0.8589 0.5253 0.97898 0.0
N533 N 0.84866 0.54472 0.01769 0.0
C534 C 0.84333 0.51758 0.99735 0.0
C535 C 0.8693 0.54289 0.98045 0.0
C536 C 0.83837 0.52763 0.0167 0.0
C537 C 0.86388 0.55249 0.00015 0.0
C538 C 0.83112 0.46888 0.93209 0.0
C539 C 0.82244 0.44071 0.954 0.0
N540 N 0.80975 0.44076 0.97361 0.0
C541 C 0.81798 0.46863 0.95244 0.0
C542 C 0.83335 0.45478 0.93277 0.0
C543 C 0.80731 0.45429 0.97323 0.0
C544 C 0.81794 0.49924 0.88953 0.0
N545 N 0.83104 0.51149 0.90915 0.0
C546 C 0.81877 0.52929 0.90626 0.0
C547 C 0.83171 0.52636 0.91765 0.0
C548 C 0.80545 0.51701 0.88504 0.0
C549 C 0.80496 0.50176 0.87702 0.0
H550 H 0.81799 0.4878 0.88199 0.0
H551 H 0.84264 0.53632 0.93141 0.0
C552 C 0.86932 0.4726 0.99206 0.0
N553 N 0.85933 0.47971 0.99057 0.0
C554 C 0.86801 0.4622 0.02161 0.0
C555 C 0.84636 0.46689 0.04798 0.0
C556 C 0.84813 0.47722 0.01795 0.0
C557 C 0.85634 0.45916 0.04998 0.0
H558 H 0.87826 0.47492 0.97021 0.0
H559 H 0.84041 0.48309 0.01628 0.0
C560 C 0.85835 0.52292 0.85077 0.0
N561 N 0.8417 0.53435 0.80579 0.0
C562 C 0.84728 0.51238 0.82343 0.0
C563 C 0.86104 0.53932 0.85509 0.0
C564 C 0.83896 0.51839 0.80101 0.0
C565 C 0.85248 0.54485 0.83209 0.0
C566 C 0.89127 0.49539 0.89785 0.0
C567 C 0.90618 0.50779 0.88117 0.0
C568 C 0.8861 0.47829 0.8927 0.0
C569 C 0.91562 0.50285 0.85946 0.0
C570 C 0.89587 0.47387 0.87072 0.0
N571 N 0.91031 0.48614 0.85469 0.0
C572 C 0.91138 0.54278 0.94838 0.0
C573 C 0.90592 0.55286 0.89267 0.0
C574 C 0.92803 0.55614 0.94872 0.0
N575 N 0.90088 0.54124 0.92025 0.0
C576 C 0.92242 0.56656 0.89214 0.0
C577 C 0.93389 0.56807 0.91987 0.0
H578 H 0.90701 0.53315 0.96958 0.0
H579 H 0.89736 0.55111 0.8703 0.0
C580 C 0.85011 0.46662 0.83303 0.0
N581 N 0.86247 0.48293 0.83841 0.0
C582 C 0.84981 0.45815 0.80074 0.0
C583 C 0.87477 0.48355 0.77984 0.0
C584 C 0.87456 0.49154 0.81252 0.0
C585 C 0.86229 0.46661 0.77369 0.0
H586 H 0.84047 0.46019 0.85376 0.0
H587 H 0.88405 0.50462 0.81733 0.0
O588 O 0.86414 0.51571 0.96033 0.0
O589 O 0.84192 0.48293 0.91212 0.0
O590 O 0.86619 0.51707 0.87378 0.0
O591 O 0.88165 0.49997 0.91861 0.0
H592 H 0.83503 0.50403 0.99614 0.0
H593 H 0.8814 0.54908 0.96652 0.0
H594 H 0.8263 0.52184 0.03081 0.0
H595 H 0.87178 0.56612 0.00147 0.0
H596 H 0.8241 0.42978 0.95501 0.0
H597 H 0.81615 0.47946 0.9526 0.0
H598 H 0.84358 0.45482 0.91763 0.0
H599 H 0.79714 0.45396 0.98924 0.0
H600 H 0.81957 0.54129 0.91235 0.0
H601 H 0.79483 0.49207 0.86056 0.0
H602 H 0.87587 0.45641 0.02194 0.0
H603 H 0.83738 0.46508 0.06955 0.0
H604 H 0.84492 0.49961 0.81992 0.0
H605 H 0.86934 0.54755 0.87653 0.0
H606 H 0.83025 0.51032 0.77994 0.0
H607 H 0.85432 0.55745 0.83535 0.0
H608 H 0.91036 0.52108 0.88462 0.0
H609 H 0.87449 0.46851 0.90499 0.0
H610 H 0.92715 0.51231 0.84629 0.0
H611 H 0.89193 0.46068 0.86626 0.0
H612 H 0.93645 0.55653 0.97026 0.0
H613 H 0.92632 0.57552 0.86957 0.0
H614 H 0.84002 0.44505 0.79719 0.0
H615 H 0.88447 0.4906 0.75944 0.0
Li616 Li 0.34254 0.85227 0.06379 0.0
Li617 Li 0.36583 0.8574 0.10113 0.0
Li618 Li 0.36489 0.88034 0.06808 0.0
Li619 Li 0.36909 0.85915 0.03248 0.0
C620 C 0.33653 0.86198 0.12981 0.0
N621 N 0.30804 0.8529 0.17207 0.0
C622 C 0.33308 0.85148 0.16055 0.0
C623 C 0.3256 0.86801 0.1208 0.0
C624 C 0.31858 0.84701 0.18152 0.0
C625 C 0.31122 0.86322 0.14242 0.0
C626 C 0.34156 0.82307 0.06836 0.0
C627 C 0.31827 0.79788 0.04197 0.0
N628 N 0.31363 0.79112 0.07635 0.0
C629 C 0.33655 0.81587 0.10344 0.0
C630 C 0.33238 0.814 0.03734 0.0
C631 C 0.32241 0.79969 0.10689 0.0
C632 C 0.31319 0.83847 0.02138 0.0
N633 N 0.31864 0.83864 0.05637 0.0
C634 C 0.29091 0.81721 0.07457 0.0
C635 C 0.30786 0.82838 0.08295 0.0
C636 C 0.28509 0.8163 0.03827 0.0
C637 C 0.29643 0.82736 0.01167 0.0
H638 H 0.32205 0.84639 0.00045 0.0
H639 H 0.3125 0.82826 0.11024 0.0
C640 C 0.37752 0.8628 0.17409 0.0
N641 N 0.37466 0.85283 0.14403 0.0
C642 C 0.38556 0.86101 0.20504 0.0
C643 C 0.38736 0.83856 0.17363 0.0
C644 C 0.37929 0.84081 0.14322 0.0
C645 C 0.39074 0.84886 0.20494 0.0
H646 H 0.37396 0.87247 0.17353 0.0
H647 H 0.37705 0.83325 0.11863 0.0
C648 C 0.3528 0.87954 0.00055 0.0
N649 N 0.35207 0.90424 0.95782 0.0
C650 C 0.36363 0.88634 0.97024 0.0
C651 C 0.34143 0.88512 0.00882 0.0
C652 C 0.3631 0.89886 0.94904 0.0
C653 C 0.34131 0.89767 0.98699 0.0
C654 C 0.39816 0.88063 0.08952 0.0
C655 C 0.4036 0.89371 0.11531 0.0
C656 C 0.40711 0.87199 0.08529 0.0
C657 C 0.41787 0.89786 0.1368 0.0
C658 C 0.42131 0.87651 0.10734 0.0
N659 N 0.42634 0.88923 0.13244 0.0
C660 C 0.36572 0.90985 0.09509 0.0
C661 C 0.38311 0.91368 0.04319 0.0
C662 C 0.37097 0.92709 0.09556 0.0
N663 N 0.37178 0.90356 0.06903 0.0
C664 C 0.38848 0.9309 0.04221 0.0
C665 C 0.3825 0.93788 0.0688 0.0
H666 H 0.35695 0.90153 0.11573 0.0
H667 H 0.38792 0.90832 0.02322 0.0
C668 C 0.37339 0.84304 0.96937 0.0
N669 N 0.38064 0.85696 0.9914 0.0
C670 C 0.38194 0.84221 0.93817 0.0
C671 C 0.40527 0.86997 0.95326 0.0
C672 C 0.39628 0.87026 0.9841 0.0
C673 C 0.39806 0.85586 0.92964 0.0
H674 H 0.36089 0.83272 0.97568 0.0
H675 H 0.40167 0.8812 0.00204 0.0
O676 O 0.35078 0.86668 0.10926 0.0
O677 O 0.35516 0.83905 0.06454 0.0
O678 O 0.3533 0.86746 0.02199 0.0
O679 O 0.38388 0.87597 0.06921 0.0
H680 H 0.34137 0.84666 0.16792 0.0
H681 H 0.32816 0.87626 0.09732 0.0
H682 H 0.3157 0.83881 0.20525 0.0
H683 H 0.3026 0.86772 0.13565 0.0
H684 H 0.31096 0.7908 0.01824 0.0
H685 H 0.34334 0.82277 0.1278 0.0
H686 H 0.33586 0.81948 0.01007 0.0
H687 H 0.31835 0.794 0.13388 0.0
H688 H 0.28261 0.80899 0.09604 0.0
H689 H 0.29266 0.82687 0.98314 0.0
H690 H 0.3882 0.86944 0.22829 0.0
H691 H 0.39104 0.82897 0.17252 0.0
H692 H 0.37244 0.88209 0.96334 0.0
H693 H 0.33287 0.87986 0.03197 0.0
H694 H 0.37149 0.90432 0.92565 0.0
H695 H 0.33266 0.9022 0.99323 0.0
H696 H 0.39673 0.90045 0.11899 0.0
H697 H 0.40296 0.86176 0.06556 0.0
H698 H 0.42218 0.90789 0.15706 0.0
H699 H 0.42828 0.86985 0.1046 0.0
H700 H 0.36629 0.93193 0.11704 0.0
H701 H 0.39717 0.93862 0.02072 0.0
H702 H 0.37584 0.83118 0.92048 0.0
H703 H 0.41774 0.88067 0.94798 0.0
Li704 Li 0.4865 0.339 0.23968 0.0
Li705 Li 0.50143 0.36456 0.27162 0.0
Li706 Li 0.47447 0.35737 0.23856 0.0
Li707 Li 0.50151 0.36522 0.20588 0.0
C708 C 0.46707 0.33101 0.29857 0.0
N709 N 0.44526 0.30019 0.33092 0.0
C710 C 0.47347 0.32198 0.31719 0.0
C711 C 0.44957 0.32442 0.29668 0.0
C712 C 0.46224 0.30641 0.33325 0.0
C713 C 0.43875 0.30881 0.31316 0.0
C714 C 0.52533 0.35885 0.25817 0.0
C715 C 0.55392 0.3791 0.27628 0.0
N716 N 0.55337 0.36806 0.30224 0.0
C717 C 0.52507 0.34771 0.28501 0.0
C718 C 0.53989 0.37467 0.25372 0.0
C719 C 0.53937 0.35259 0.30699 0.0
C720 C 0.49183 0.31153 0.22951 0.0
N721 N 0.47964 0.31568 0.23516 0.0
C722 C 0.45793 0.28763 0.21992 0.0
C723 C 0.46292 0.30408 0.23128 0.0
C724 C 0.47029 0.28318 0.21268 0.0
C725 C 0.4874 0.29519 0.21857 0.0
H726 H 0.50502 0.32115 0.23114 0.0
H727 H 0.45353 0.30788 0.23463 0.0
C728 C 0.52522 0.39271 0.31279 0.0
N729 N 0.51428 0.37577 0.31458 0.0
C730 C 0.53526 0.40133 0.34311 0.0
C731 C 0.52232 0.37498 0.37702 0.0
C732 C 0.51254 0.36686 0.34595 0.0
C733 C 0.53392 0.39244 0.37573 0.0
H734 H 0.52622 0.39954 0.28777 0.0
H735 H 0.50371 0.35342 0.34672 0.0
C736 C 0.47461 0.33454 0.16968 0.0
N737 N 0.46705 0.30936 0.11823 0.0
C738 C 0.48758 0.33289 0.15329 0.0
C739 C 0.45778 0.32339 0.15985 0.0
C740 C 0.4835 0.32008 0.12736 0.0
C741 C 0.45423 0.31075 0.13378 0.0
C742 C 0.50187 0.39396 0.22026 0.0
C743 C 0.49017 0.39822 0.20638 0.0
C744 C 0.51913 0.40467 0.21345 0.0
C745 C 0.49593 0.413 0.18562 0.0
C746 C 0.52438 0.41932 0.19249 0.0
N747 N 0.51277 0.42315 0.17912 0.0
C748 C 0.45125 0.36563 0.26755 0.0
C749 C 0.44602 0.35609 0.20543 0.0
C750 C 0.4382 0.36936 0.26616 0.0
N751 N 0.45501 0.35939 0.23726 0.0
C752 C 0.43277 0.35952 0.20288 0.0
C753 C 0.42904 0.36663 0.23325 0.0
H754 H 0.45879 0.36825 0.29232 0.0
H755 H 0.44962 0.35151 0.18156 0.0
C756 C 0.52852 0.37768 0.15348 0.0
N757 N 0.51302 0.3756 0.16126 0.0
C758 C 0.53686 0.38579 0.12097 0.0
C759 C 0.51288 0.38896 0.10469 0.0
C760 C 0.50498 0.38068 0.13732 0.0
C761 C 0.52911 0.39172 0.09625 0.0
H762 H 0.53438 0.37299 0.17239 0.0
H763 H 0.4925 0.37853 0.14394 0.0
O764 O 0.47785 0.34629 0.28257 0.0
O765 O 0.51127 0.35448 0.23706 0.0
O766 O 0.47831 0.34652 0.19637 0.0
O767 O 0.49643 0.3794 0.24032 0.0
H768 H 0.48695 0.3268 0.31872 0.0
H769 H 0.44436 0.33119 0.28242 0.0
H770 H 0.46702 0.29923 0.34748 0.0
H771 H 0.42518 0.30352 0.31177 0.0
H772 H 0.56522 0.39135 0.2733 0.0
H773 H 0.51389 0.3355 0.28924 0.0
H774 H 0.54029 0.38358 0.23355 0.0
H775 H 0.53929 0.34412 0.32798 0.0
H776 H 0.44463 0.27871 0.21537 0.0
H777 H 0.49731 0.29233 0.21241 0.0
H778 H 0.54384 0.41486 0.34117 0.0
H779 H 0.52097 0.36764 0.40159 0.0
H780 H 0.50064 0.34116 0.16111 0.0
H781 H 0.44755 0.32426 0.17274 0.0
H782 H 0.49341 0.31858 0.11468 0.0
H783 H 0.44126 0.30196 0.1261 0.0
H784 H 0.47679 0.39022 0.21145 0.0
H785 H 0.52838 0.40154 0.22348 0.0
H786 H 0.487 0.4164 0.17464 0.0
H787 H 0.53769 0.42761 0.18671 0.0
H788 H 0.43561 0.3748 0.29015 0.0
H789 H 0.42615 0.35752 0.1769 0.0
H790 H 0.54918 0.38729 0.11516 0.0
H791 H 0.50647 0.39341 0.08665 0.0
Li792 Li 0.13324 0.50523 0.4414 0.0
Li793 Li 0.14552 0.49235 0.40634 0.0
Li794 Li 0.13255 0.50638 0.37574 0.0
Li795 Li 0.11495 0.47819 0.40643 0.0
C796 C 0.16305 0.53025 0.42882 0.0
N797 N 0.18299 0.55727 0.47454 0.0
C798 C 0.17603 0.53033 0.4495 0.0
C799 C 0.16027 0.54397 0.4313 0.0
C800 C 0.18597 0.54411 0.47242 0.0
C801 C 0.17046 0.55748 0.45464 0.0
C802 C 0.13544 0.47248 0.46684 0.0
C803 C 0.13094 0.44511 0.48516 0.0
N804 N 0.14622 0.45278 0.5025 0.0
C805 C 0.15105 0.48009 0.48499 0.0
C806 C 0.12526 0.45485 0.467 0.0
C807 C 0.1563 0.46991 0.50277 0.0
C808 C 0.12417 0.52415 0.48806 0.0
N809 N 0.13411 0.51701 0.4856 0.0
C810 C 0.14642 0.52825 0.54448 0.0
C811 C 0.1449 0.51864 0.51326 0.0
C812 C 0.13658 0.53611 0.54739 0.0
C813 C 0.12522 0.53382 0.51883 0.0
H814 H 0.11558 0.52254 0.46591 0.0
H815 H 0.15258 0.51276 0.51079 0.0
C816 C 0.17802 0.50102 0.3846 0.0
N817 N 0.16373 0.48804 0.39939 0.0
C818 C 0.19114 0.49852 0.373 0.0
C819 C 0.17477 0.46934 0.39262 0.0
C820 C 0.16186 0.47237 0.40345 0.0
C821 C 0.18957 0.48246 0.37663 0.0
H822 H 0.17888 0.51314 0.38013 0.0
H823 H 0.15008 0.462 0.41343 0.0
C824 C 0.10351 0.50421 0.39064 0.0
N825 N 0.08485 0.51448 0.34904 0.0
C826 C 0.08883 0.49224 0.3725 0.0
C827 C 0.10862 0.5214 0.38783 0.0
C828 C 0.07958 0.49769 0.35158 0.0
C829 C 0.09905 0.52634 0.36658 0.0
C830 C 0.13755 0.47894 0.33893 0.0
C831 C 0.14988 0.4907 0.3151 0.0
C832 C 0.13381 0.4621 0.33842 0.0
C833 C 0.1584 0.48542 0.29133 0.0
C834 C 0.14261 0.45732 0.31422 0.0
N835 N 0.15463 0.46899 0.29142 0.0
C836 C 0.14532 0.53539 0.32983 0.0
C837 C 0.12187 0.51052 0.30585 0.0
C838 C 0.14599 0.54444 0.2982 0.0
N839 N 0.1333 0.51881 0.33313 0.0
C840 C 0.12209 0.51905 0.27371 0.0
C841 C 0.13427 0.53625 0.26962 0.0
H842 H 0.15451 0.54155 0.35154 0.0
H843 H 0.11259 0.49725 0.30912 0.0
C844 C 0.08408 0.45307 0.43482 0.0
N845 N 0.09423 0.45776 0.4046 0.0
C846 C 0.06768 0.43928 0.43298 0.0
C847 C 0.07278 0.43506 0.36935 0.0
C848 C 0.08908 0.44897 0.37241 0.0
C849 C 0.06171 0.43033 0.39964 0.0
H850 H 0.08853 0.4605 0.45984 0.0
H851 H 0.09735 0.45322 0.34866 0.0
O852 O 0.15294 0.5167 0.40677 0.0
O853 O 0.12996 0.48219 0.44954 0.0
O854 O 0.11293 0.49915 0.41067 0.0
O855 O 0.12946 0.48399 0.36322 0.0
H856 H 0.17829 0.51978 0.44826 0.0
H857 H 0.15015 0.54405 0.41593 0.0
H858 H 0.19601 0.54429 0.4887 0.0
H859 H 0.16834 0.5681 0.45705 0.0
H860 H 0.12322 0.43145 0.48543 0.0
H861 H 0.1592 0.49367 0.48474 0.0
H862 H 0.11313 0.44874 0.45314 0.0
H863 H 0.16841 0.47562 0.51667 0.0
H864 H 0.15516 0.52951 0.56612 0.0
H865 H 0.11749 0.53976 0.51987 0.0
H866 H 0.2021 0.50889 0.35992 0.0
H867 H 0.17302 0.45677 0.396 0.0
H868 H 0.08464 0.4789 0.37433 0.0
H869 H 0.12001 0.53086 0.40139 0.0
H870 H 0.06823 0.48856 0.3373 0.0
H871 H 0.10294 0.53961 0.36392 0.0
H872 H 0.15302 0.50382 0.31537 0.0
H873 H 0.12445 0.45288 0.35701 0.0
H874 H 0.16806 0.49441 0.27294 0.0
H875 H 0.13996 0.44437 0.31375 0.0
H876 H 0.15576 0.5576 0.29584 0.0
H877 H 0.11276 0.51231 0.25243 0.0
H878 H 0.05948 0.43628 0.45678 0.0
H879 H 0.06868 0.42846 0.34322 0.0
Li880 Li 0.62765 0.13644 0.59168 0.0
Li881 Li 0.65337 0.14483 0.55672 0.0
Li882 Li 0.62599 0.13555 0.52344 0.0
Li883 Li 0.63229 0.11568 0.55592 0.0
C884 C 0.63599 0.16874 0.5603 0.0
N885 N 0.6301 0.19551 0.5682 0.0
C886 C 0.64859 0.1842 0.57454 0.0
C887 C 0.6205 0.16703 0.54944 0.0
C888 C 0.64534 0.19755 0.57851 0.0
C889 C 0.61774 0.18067 0.55382 0.0
C890 C 0.65875 0.13513 0.62124 0.0
C891 C 0.68599 0.13797 0.63407 0.0
N892 N 0.68767 0.14778 0.66385 0.0
C893 C 0.66068 0.14514 0.65209 0.0
C894 C 0.67142 0.1314 0.61226 0.0
C895 C 0.67542 0.15145 0.67325 0.0
C896 C 0.60594 0.1242 0.65149 0.0
N897 N 0.61752 0.1389 0.6352 0.0
C898 C 0.61242 0.15506 0.67996 0.0
C899 C 0.62112 0.15419 0.6491 0.0
C900 C 0.59997 0.14004 0.69661 0.0
C901 C 0.59692 0.12447 0.68227 0.0
H902 H 0.60353 0.11223 0.6401 0.0
H903 H 0.63062 0.16571 0.63619 0.0
C904 C 0.68597 0.15949 0.52606 0.0
N905 N 0.6769 0.16046 0.55474 0.0
C906 C 0.70296 0.17174 0.52174 0.0
C907 C 0.70103 0.18554 0.57704 0.0
C908 C 0.68411 0.17295 0.58042 0.0
C909 C 0.71055 0.18518 0.54697 0.0
H910 H 0.67987 0.14956 0.50579 0.0
H911 H 0.67659 0.17338 0.60298 0.0
C912 C 0.59454 0.11104 0.55979 0.0
N913 N 0.55983 0.09757 0.56163 0.0
C914 C 0.58371 0.094 0.55104 0.0
C915 C 0.58768 0.12114 0.56996 0.0
C916 C 0.56621 0.08746 0.55196 0.0
C917 C 0.57012 0.11412 0.57064 0.0
C918 C 0.64572 0.11925 0.48937 0.0
C919 C 0.63584 0.11347 0.45742 0.0
C920 C 0.65706 0.11363 0.49765 0.0
C921 C 0.63732 0.10196 0.4345 0.0
C922 C 0.65815 0.1021 0.47406 0.0
N923 N 0.64834 0.09655 0.44325 0.0
C924 C 0.62378 0.15356 0.46268 0.0
C925 C 0.60016 0.12597 0.46998 0.0
C926 C 0.61647 0.15625 0.43142 0.0
N927 N 0.6155 0.13865 0.48132 0.0
C928 C 0.59233 0.12816 0.43911 0.0
C929 C 0.6005 0.14346 0.41946 0.0
H930 H 0.63606 0.16336 0.4722 0.0
H931 H 0.59407 0.11406 0.48455 0.0
C932 C 0.63393 0.0872 0.58151 0.0
N933 N 0.62769 0.09305 0.55487 0.0
C934 C 0.62974 0.07022 0.58161 0.0
C935 C 0.61311 0.06586 0.52642 0.0
C936 C 0.61754 0.08283 0.52753 0.0
C937 C 0.61899 0.05928 0.55405 0.0
H938 H 0.64186 0.09561 0.60311 0.0
H939 H 0.61268 0.08784 0.50685 0.0
O940 O 0.63904 0.15557 0.55608 0.0
O941 O 0.64449 0.12899 0.59998 0.0
O942 O 0.61173 0.1176 0.55907 0.0
O943 O 0.6443 0.13038 0.51235 0.0
H944 H 0.66074 0.1859 0.58263 0.0
H945 H 0.61077 0.1554 0.53733 0.0
H946 H 0.65495 0.20953 0.58974 0.0
H947 H 0.60579 0.17947 0.5456 0.0
H948 H 0.69596 0.13529 0.62731 0.0
H949 H 0.65097 0.14811 0.65945 0.0
H950 H 0.67009 0.12363 0.58852 0.0
H951 H 0.67714 0.15929 0.69709 0.0
H952 H 0.61514 0.16733 0.69016 0.0
H953 H 0.58766 0.1126 0.69471 0.0
H954 H 0.70983 0.17119 0.49789 0.0
H955 H 0.7065 0.19568 0.59714 0.0
H956 H 0.58872 0.08591 0.54353 0.0
H957 H 0.59577 0.13417 0.57795 0.0
H958 H 0.5577 0.07432 0.54506 0.0
H959 H 0.56468 0.12182 0.57851 0.0
H960 H 0.62706 0.11774 0.45049 0.0
H961 H 0.6648 0.11799 0.52225 0.0
H962 H 0.6297 0.09731 0.40978 0.0
H963 H 0.66678 0.09755 0.48028 0.0
H964 H 0.62314 0.16823 0.41697 0.0
H965 H 0.58016 0.11787 0.43029 0.0
H966 H 0.63438 0.06561 0.60366 0.0
H967 H 0.60499 0.05792 0.50439 0.0
Li968 Li 0.5054 0.65431 0.74273 0.0
Li969 Li 0.49025 0.62999 0.77946 0.0
Li970 Li 0.51733 0.63608 0.7471 0.0
Li971 Li 0.48985 0.62694 0.71364 0.0
C972 C 0.52334 0.66399 0.80448 0.0
N973 N 0.54245 0.69528 0.83745 0.0
C974 C 0.51545 0.67241 0.81939 0.0
C975 C 0.54094 0.67141 0.80658 0.0
C976 C 0.52534 0.68824 0.83584 0.0
C977 C 0.55038 0.68725 0.82333 0.0
C978 C 0.46599 0.6353 0.75991 0.0
C979 C 0.43724 0.61533 0.77751 0.0
N980 N 0.43656 0.62766 0.79719 0.0
C981 C 0.46497 0.6478 0.78023 0.0
C982 C 0.45198 0.61895 0.7584 0.0
C983 C 0.44999 0.64369 0.79888 0.0
C984 C 0.50033 0.68129 0.72428 0.0
N985 N 0.51241 0.67751 0.73428 0.0
C986 C 0.53429 0.70594 0.72255 0.0
C987 C 0.52914 0.68943 0.73374 0.0
C988 C 0.52207 0.71013 0.71193 0.0
C989 C 0.50489 0.69765 0.71333 0.0
H990 H 0.48722 0.67142 0.72317 0.0
H991 H 0.53854 0.68595 0.74039 0.0
C992 C 0.47166 0.60332 0.82881 0.0
N993 N 0.47747 0.62008 0.82334 0.0
C994 C 0.46204 0.59516 0.85994 0.0
C995 C 0.46457 0.62165 0.87953 0.0
C996 C 0.47434 0.62936 0.8482 0.0
C997 C 0.45833 0.60434 0.88564 0.0
H998 H 0.47453 0.59626 0.80906 0.0
H999 H 0.47935 0.64272 0.84371 0.0
C1000 C 0.51854 0.65711 0.67519 0.0
N1001 N 0.52947 0.6825 0.62294 0.0
C1002 C 0.50678 0.65894 0.65387 0.0
C1003 C 0.53585 0.66809 0.66975 0.0
C1004 C 0.51256 0.67188 0.62765 0.0
C1005 C 0.54112 0.68087 0.64322 0.0
C1006 C 0.48943 0.59868 0.73543 0.0
C1007 C 0.50085 0.59404 0.72166 0.0
C1008 C 0.47204 0.58733 0.73278 0.0
C1009 C 0.49467 0.57824 0.70489 0.0
C1010 C 0.46636 0.57166 0.71577 0.0
N1011 N 0.4777 0.56748 0.70226 0.0
C1012 C 0.54247 0.63146 0.78069 0.0
C1013 C 0.54455 0.63469 0.71558 0.0
C1014 C 0.55601 0.62843 0.78129 0.0
N1015 N 0.53694 0.63427 0.74809 0.0
C1016 C 0.55808 0.63166 0.71486 0.0
C1017 C 0.56375 0.62813 0.74795 0.0
H1018 H 0.53606 0.63115 0.80605 0.0
H1019 H 0.53964 0.63668 0.69006 0.0
C1020 C 0.46282 0.61447 0.66207 0.0
N1021 N 0.47753 0.61499 0.67098 0.0
C1022 C 0.45389 0.6059 0.63045 0.0
C1023 C 0.47557 0.59876 0.61755 0.0
C1024 C 0.48417 0.60765 0.64913 0.0
C1025 C 0.46019 0.59779 0.60777 0.0
H1026 H 0.45812 0.62092 0.67921 0.0
H1027 H 0.49615 0.60868 0.6563 0.0
O1028 O 0.51391 0.64849 0.78819 0.0
O1029 O 0.48063 0.63902 0.74179 0.0
O1030 O 0.5131 0.64488 0.70186 0.0
O1031 O 0.49525 0.6142 0.75158 0.0
H1032 H 0.50189 0.66694 0.81766 0.0
H1033 H 0.54726 0.66509 0.79514 0.0
H1034 H 0.51941 0.69497 0.84721 0.0
H1035 H 0.56402 0.69319 0.82501 0.0
H1036 H 0.42635 0.6027 0.7767 0.0
H1037 H 0.47571 0.66048 0.78218 0.0
H1038 H 0.4525 0.60914 0.7428 0.0
H1039 H 0.44908 0.65321 0.81489 0.0
H1040 H 0.54766 0.71522 0.72146 0.0
H1041 H 0.49513 0.70031 0.70438 0.0
H1042 H 0.4574 0.58176 0.86366 0.0
H1043 H 0.46212 0.62918 0.89902 0.0
H1044 H 0.49334 0.65064 0.65798 0.0
H1045 H 0.54511 0.66694 0.68627 0.0
H1046 H 0.50361 0.67354 0.61117 0.0
H1047 H 0.55447 0.68955 0.63891 0.0
H1048 H 0.51434 0.60254 0.72371 0.0
H1049 H 0.46301 0.59061 0.74356 0.0
H1050 H 0.50337 0.57453 0.69394 0.0
H1051 H 0.45293 0.56281 0.7133 0.0
H1052 H 0.5601 0.62591 0.80742 0.0
H1053 H 0.56346 0.63124 0.68851 0.0
H1054 H 0.44233 0.60587 0.62357 0.0
H1055 H 0.48088 0.59261 0.6012 0.0
C1056 C 0.5575 0.16166 0.24472 0.0
C1057 C 0.54952 0.14694 0.22308 0.0
C1058 C 0.56648 0.16233 0.27674 0.0
C1059 C 0.5676 0.14798 0.28718 0.0
C1060 C 0.55983 0.13319 0.26515 0.0
C1061 C 0.55083 0.13282 0.23348 0.0
C1062 C 0.57458 0.1783 0.29964 0.0
C1063 C 0.56078 0.11763 0.27536 0.0
C1064 C 0.60169 0.15212 0.35348 0.0
C1065 C 0.59244 0.14581 0.38623 0.0
C1066 C 0.59387 0.15328 0.32113 0.0
C1067 C 0.57643 0.14814 0.32176 0.0
C1068 C 0.56717 0.14229 0.35508 0.0
C1069 C 0.57528 0.14113 0.38689 0.0
C1070 C 0.6041 0.15945 0.28604 0.0
C1071 C 0.5486 0.13688 0.35692 0.0
H1072 H 0.55674 0.1727 0.23659 0.0
H1073 H 0.54448 0.12131 0.21729 0.0
H1074 H 0.56904 0.17554 0.32779 0.0
H1075 H 0.58834 0.18306 0.30266 0.0
H1076 H 0.57283 0.18848 0.28732 0.0
H1077 H 0.55467 0.10741 0.25444 0.0
H1078 H 0.57419 0.12093 0.27846 0.0
H1079 H 0.55448 0.11265 0.30234 0.0
H1080 H 0.61493 0.15561 0.35285 0.0
H1081 H 0.56817 0.13647 0.41234 0.0
H1082 H 0.60291 0.16997 0.2739 0.0
H1083 H 0.59912 0.14906 0.26542 0.0
H1084 H 0.61773 0.16389 0.29068 0.0
H1085 H 0.54655 0.14716 0.34652 0.0
H1086 H 0.54349 0.13357 0.38543 0.0
H1087 H 0.54125 0.1257 0.33892 0.0
C1088 C 0.4108 0.55901 0.41757 0.0
C1089 C 0.40673 0.5421 0.41365 0.0
C1090 C 0.41925 0.56833 0.44915 0.0
C1091 C 0.42393 0.5606 0.47709 0.0
C1092 C 0.4199 0.54354 0.47314 0.0
C1093 C 0.41122 0.53445 0.44155 0.0
C1094 C 0.4231 0.5864 0.45268 0.0
C1095 C 0.42491 0.53495 0.50207 0.0
C1096 C 0.45969 0.58897 0.54189 0.0
C1097 C 0.45086 0.58846 0.57405 0.0
C1098 C 0.45109 0.57995 0.51017 0.0
C1099 C 0.43319 0.57039 0.51035 0.0
C1100 C 0.42416 0.57 0.54244 0.0
C1101 C 0.4331 0.57893 0.57398 0.0
C1102 C 0.46116 0.58055 0.47653 0.0
C1103 C 0.40505 0.56006 0.54354 0.0
H1104 H 0.40717 0.56486 0.39613 0.0
H1105 H 0.4082 0.52142 0.43831 0.0
H1106 H 0.41731 0.5879 0.47831 0.0
H1107 H 0.43697 0.59504 0.45488 0.0
H1108 H 0.4183 0.59043 0.42881 0.0
H1109 H 0.42088 0.52164 0.49472 0.0
H1110 H 0.43886 0.54201 0.50576 0.0
H1111 H 0.4192 0.53503 0.52904 0.0
H1112 H 0.47338 0.59654 0.54135 0.0
H1113 H 0.42615 0.57823 0.5988 0.0
H1114 H 0.45761 0.58575 0.45267 0.0
H1115 H 0.45817 0.56756 0.46898 0.0
H1116 H 0.47503 0.58844 0.48102 0.0
H1117 H 0.39978 0.56419 0.52082 0.0
H1118 H 0.39992 0.56158 0.57017 0.0
H1119 H 0.40053 0.54641 0.53926 0.0
C1120 C 0.87743 0.45957 0.72538 0.0
C1121 C 0.86227 0.45777 0.7393 0.0
C1122 C 0.87754 0.45096 0.69338 0.0
C1123 C 0.86211 0.44032 0.67491 0.0
C1124 C 0.84679 0.43858 0.68859 0.0
C1125 C 0.84706 0.44734 0.72064 0.0
C1126 C 0.89411 0.45308 0.67963 0.0
C1127 C 0.83011 0.42739 0.66953 0.0
C1128 C 0.86382 0.42868 0.57502 0.0
C1129 C 0.86169 0.41242 0.57866 0.0
C1130 C 0.86397 0.43792 0.60612 0.0
C1131 C 0.86195 0.43071 0.64167 0.0
C1132 C 0.85976 0.41429 0.64553 0.0
C1133 C 0.85966 0.40535 0.61397 0.0
C1134 C 0.86628 0.45538 0.60096 0.0
C1135 C 0.85761 0.40621 0.68302 0.0
H1136 H 0.88919 0.46746 0.73995 0.0
H1137 H 0.83534 0.4461 0.73099 0.0
H1138 H 0.89361 0.44068 0.67987 0.0
H1139 H 0.89632 0.45764 0.65066 0.0
H1140 H 0.90504 0.46215 0.69667 0.0
H1141 H 0.81937 0.42765 0.68336 0.0
H1142 H 0.83074 0.43146 0.64043 0.0
H1143 H 0.82748 0.41413 0.66905 0.0
H1144 H 0.86519 0.43412 0.54776 0.0
H1145 H 0.85826 0.39289 0.61699 0.0
H1146 H 0.87764 0.46483 0.61624 0.0
H1147 H 0.85524 0.45581 0.61252 0.0
H1148 H 0.86771 0.45917 0.57145 0.0
H1149 H 0.86883 0.41418 0.70047 0.0
H1150 H 0.85596 0.39331 0.68124 0.0
H1151 H 0.84642 0.40535 0.6972 0.0
C1152 C 0.45996 0.86003 0.76869 0.0
C1153 C 0.45185 0.85581 0.73422 0.0
C1154 C 0.45121 0.85975 0.80077 0.0
C1155 C 0.43393 0.85508 0.79836 0.0
C1156 C 0.42562 0.85064 0.76375 0.0
C1157 C 0.43469 0.8511 0.73208 0.0
C1158 C 0.4605 0.86456 0.83722 0.0
C1159 C 0.40719 0.8456 0.76011 0.0
C1160 C 0.40737 0.84083 0.88575 0.0
C1161 C 0.40719 0.85557 0.89595 0.0
C1162 C 0.41599 0.84046 0.85398 0.0
C1163 C 0.42464 0.85519 0.83195 0.0
C1164 C 0.42447 0.87009 0.84205 0.0
C1165 C 0.41573 0.87009 0.87389 0.0
C1166 C 0.41591 0.82435 0.84407 0.0
C1167 C 0.43351 0.88604 0.81919 0.0
H1168 H 0.47314 0.86343 0.77064 0.0
H1169 H 0.4284 0.84803 0.70549 0.0
H1170 H 0.46029 0.87568 0.84903 0.0
H1171 H 0.45404 0.85402 0.85722 0.0
H1172 H 0.47388 0.86769 0.83445 0.0
H1173 H 0.40248 0.84207 0.73136 0.0
H1174 H 0.39933 0.83471 0.77848 0.0
H1175 H 0.40537 0.85622 0.76896 0.0
H1176 H 0.40095 0.82962 0.9029 0.0
H1177 H 0.41541 0.88144 0.88128 0.0
H1178 H 0.42907 0.82668 0.84345 0.0
H1179 H 0.41054 0.82012 0.81605 0.0
H1180 H 0.40845 0.81394 0.86391 0.0
H1181 H 0.44718 0.89018 0.81732 0.0
H1182 H 0.43218 0.89657 0.83089 0.0
H1183 H 0.42842 0.88352 0.79065 0.0
C1184 C 0.55535 0.41271 0.0627 0.0
C1185 C 0.53794 0.40092 0.06208 0.0
C1186 C 0.56379 0.42175 0.03088 0.0
C1187 C 0.55459 0.41905 0.9977 0.0
C1188 C 0.53705 0.40716 0.9968 0.0
C1189 C 0.52895 0.39818 0.02895 0.0
C1190 C 0.58254 0.43428 0.03283 0.0
C1191 C 0.52681 0.404 0.96193 0.0
C1192 C 0.5734 0.45396 0.92578 0.0
C1193 C 0.58073 0.44767 0.90094 0.0
C1194 C 0.56465 0.44467 0.95712 0.0
C1195 C 0.56333 0.42878 0.96398 0.0
C1196 C 0.57057 0.42229 0.93894 0.0
C1197 C 0.5791 0.43177 0.90763 0.0
C1198 C 0.557 0.45195 0.98313 0.0
C1199 C 0.56946 0.4054 0.94542 0.0
H1200 H 0.56234 0.4151 0.08829 0.0
H1201 H 0.51556 0.38891 0.02807 0.0
H1202 H 0.58939 0.43103 0.01204 0.0
H1203 H 0.58494 0.44717 0.02616 0.0
H1204 H 0.58792 0.4346 0.06053 0.0
H1205 H 0.51326 0.39436 0.96588 0.0
H1206 H 0.52764 0.41595 0.95242 0.0
H1207 H 0.53206 0.39965 0.93961 0.0
H1208 H 0.57479 0.46633 0.92113 0.0
H1209 H 0.58447 0.42668 0.88827 0.0
H1210 H 0.56294 0.45394 0.01077 0.0
H1211 H 0.54327 0.44291 0.98661 0.0
H1212 H 0.55866 0.46421 0.97318 0.0
H1213 H 0.57552 0.40561 0.97213 0.0
H1214 H 0.5757 0.40211 0.92317 0.0
H1215 H 0.55601 0.39525 0.94722 0.0
C1216 C 0.1332 0.53809 0.20081 0.0
C1217 C 0.13489 0.54556 0.23556 0.0
C1218 C 0.13384 0.54678 0.16836 0.0
C1219 C 0.13618 0.56331 0.17078 0.0
C1220 C 0.13789 0.57091 0.20576 0.0
C1221 C 0.13725 0.56195 0.23775 0.0
C1222 C 0.13203 0.5383 0.13151 0.0
C1223 C 0.1403 0.58848 0.20941 0.0
C1224 C 0.15254 0.59202 0.08687 0.0
C1225 C 0.13756 0.59039 0.07228 0.0
C1226 C 0.15228 0.58321 0.11885 0.0
C1227 C 0.13666 0.57259 0.13668 0.0
C1228 C 0.1215 0.57088 0.12208 0.0
C1229 C 0.12213 0.57979 0.09002 0.0
C1230 C 0.16869 0.58526 0.13355 0.0
C1231 C 0.10462 0.55974 0.14046 0.0
H1232 H 0.1316 0.52551 0.19897 0.0
H1233 H 0.13836 0.56768 0.26458 0.0
H1234 H 0.12096 0.53724 0.11643 0.0
H1235 H 0.14339 0.54611 0.11429 0.0
H1236 H 0.1304 0.52544 0.13441 0.0
H1237 H 0.14154 0.59262 0.23864 0.0
H1238 H 0.15181 0.5977 0.19418 0.0
H1239 H 0.12939 0.58885 0.19689 0.0
H1240 H 0.16447 0.60006 0.07302 0.0
H1241 H 0.11055 0.57869 0.07916 0.0
H1242 H 0.16796 0.57276 0.13476 0.0
H1243 H 0.17087 0.59031 0.16211 0.0
H1244 H 0.17974 0.59392 0.11629 0.0
H1245 H 0.10212 0.54654 0.14215 0.0
H1246 H 0.09399 0.55972 0.12545 0.0
H1247 H 0.10487 0.56414 0.16914 0.0
C1248 C 0.47311 0.25748 0.20731 0.0
C1249 C 0.46578 0.26689 0.19495 0.0
C1250 C 0.47144 0.2437 0.18689 0.0
C1251 C 0.46233 0.23936 0.15322 0.0
C1252 C 0.45394 0.24811 0.1419 0.0
C1253 C 0.45577 0.26181 0.16298 0.0
C1254 C 0.4804 0.23453 0.20012 0.0
C1255 C 0.44408 0.2438 0.10625 0.0
C1256 C 0.48038 0.22136 0.08501 0.0
C1257 C 0.46958 0.20396 0.08982 0.0
C1258 C 0.47747 0.23308 0.10374 0.0
C1259 C 0.46348 0.22717 0.12804 0.0
C1260 C 0.45188 0.20961 0.13106 0.0
C1261 C 0.45507 0.19815 0.11178 0.0
C1262 C 0.49002 0.25173 0.09942 0.0
C1263 C 0.43681 0.20287 0.15657 0.0
H1264 H 0.48071 0.26134 0.23224 0.0
H1265 H 0.45022 0.2692 0.15322 0.0
H1266 H 0.47169 0.22064 0.1995 0.0
H1267 H 0.49114 0.23739 0.18138 0.0
H1268 H 0.48543 0.23829 0.22859 0.0
H1269 H 0.43614 0.24986 0.10442 0.0
H1270 H 0.45302 0.24825 0.08262 0.0
H1271 H 0.43581 0.2299 0.10333 0.0
H1272 H 0.49152 0.22579 0.06773 0.0
H1273 H 0.4468 0.18466 0.11572 0.0
H1274 H 0.4972 0.25674 0.12551 0.0
H1275 H 0.48333 0.25884 0.09378 0.0
H1276 H 0.49919 0.25426 0.07676 0.0
H1277 H 0.44119 0.20423 0.1856 0.0
H1278 H 0.42764 0.18928 0.15132 0.0
H1279 H 0.43019 0.21021 0.15356 0.0
C1280 C 0.26462 0.4657 0.32068 0.0
C1281 C 0.27038 0.47173 0.28487 0.0
C1282 C 0.25033 0.46554 0.33525 0.0
C1283 C 0.2418 0.4719 0.31381 0.0
C1284 C 0.24708 0.47738 0.27718 0.0
C1285 C 0.26123 0.47707 0.26301 0.0
C1286 C 0.24486 0.45932 0.37424 0.0
C1287 C 0.23834 0.48437 0.2536 0.0
C1288 C 0.19863 0.46421 0.34335 0.0
C1289 C 0.20294 0.47931 0.36206 0.0
C1290 C 0.21115 0.46146 0.32796 0.0
C1291 C 0.22834 0.47424 0.33082 0.0
C1292 C 0.23279 0.48946 0.34986 0.0
C1293 C 0.22005 0.49173 0.36555 0.0
C1294 C 0.20601 0.44498 0.30833 0.0
C1295 C 0.25101 0.50343 0.35327 0.0
H1296 H 0.27169 0.46177 0.33808 0.0
H1297 H 0.26536 0.48142 0.23508 0.0
H1298 H 0.24758 0.47019 0.39241 0.0
H1299 H 0.23102 0.45039 0.37533 0.0
H1300 H 0.25151 0.4529 0.38552 0.0
H1301 H 0.24325 0.48699 0.22487 0.0
H1302 H 0.22451 0.47537 0.25276 0.0
H1303 H 0.24021 0.49633 0.2659 0.0
H1304 H 0.18543 0.45465 0.33999 0.0
H1305 H 0.2235 0.50331 0.3805 0.0
H1306 H 0.21276 0.43883 0.3204 0.0
H1307 H 0.20966 0.44744 0.27881 0.0
H1308 H 0.19216 0.43601 0.31004 0.0
H1309 H 0.2585 0.49869 0.36785 0.0
H1310 H 0.25229 0.51459 0.36852 0.0
H1311 H 0.25663 0.50762 0.32541 0.0
C1312 C 0.73031 0.21612 0.54043 0.0
C1313 C 0.72766 0.19962 0.53959 0.0
C1314 C 0.74575 0.2299 0.52922 0.0
C1315 C 0.75892 0.22709 0.51726 0.0
C1316 C 0.75661 0.21055 0.51794 0.0
C1317 C 0.7409 0.19695 0.52883 0.0
C1318 C 0.74768 0.24734 0.52856 0.0
C1319 C 0.7705 0.20717 0.50605 0.0
C1320 C 0.78897 0.26035 0.45027 0.0
C1321 C 0.80168 0.27169 0.47411 0.0
C1322 C 0.77535 0.24527 0.4637 0.0
C1323 C 0.7746 0.24142 0.50177 0.0
C1324 C 0.78799 0.2523 0.52548 0.0
C1325 C 0.80133 0.26742 0.51139 0.0
C1326 C 0.76123 0.23405 0.43761 0.0
C1327 C 0.78778 0.24843 0.56606 0.0
H1328 H 0.72001 0.21818 0.54826 0.0
H1329 H 0.73887 0.18418 0.52844 0.0
H1330 H 0.75902 0.25635 0.54455 0.0
H1331 H 0.74956 0.25205 0.49972 0.0
H1332 H 0.73646 0.24744 0.54016 0.0
H1333 H 0.76732 0.19395 0.51195 0.0
H1334 H 0.77273 0.20946 0.47596 0.0
H1335 H 0.78253 0.21597 0.52024 0.0
H1336 H 0.7892 0.26372 0.42148 0.0
H1337 H 0.8113 0.27614 0.52971 0.0
H1338 H 0.74959 0.23437 0.44503 0.0
H1339 H 0.75828 0.22073 0.44007 0.0
H1340 H 0.76442 0.2381 0.40838 0.0
H1341 H 0.77792 0.25009 0.58021 0.0
H1342 H 0.80016 0.25685 0.5795 0.0
H1343 H 0.78452 0.23507 0.5701 0.0
C1344 C 0.51803 0.77762 0.59119 0.0
C1345 C 0.52794 0.79463 0.60131 0.0
C1346 C 0.52028 0.76513 0.60822 0.0
C1347 C 0.53263 0.76982 0.63632 0.0
C1348 C 0.54348 0.78713 0.64479 0.0
C1349 C 0.54102 0.79941 0.62702 0.0
C1350 C 0.50861 0.74681 0.59801 0.0
C1351 C 0.5568 0.79259 0.67449 0.0
C1352 C 0.51857 0.73546 0.70819 0.0
C1353 C 0.52703 0.72701 0.69672 0.0
C1354 C 0.52117 0.75014 0.69016 0.0
C1355 C 0.53245 0.75642 0.6598 0.0
C1356 C 0.54185 0.74856 0.6496 0.0
C1357 C 0.53902 0.73389 0.66827 0.0
C1358 C 0.51104 0.75828 0.70215 0.0
C1359 C 0.55401 0.75493 0.61748 0.0
H1360 H 0.508 0.77403 0.57104 0.0
H1361 H 0.54861 0.8126 0.63493 0.0
H1362 H 0.51596 0.74031 0.59316 0.0
H1363 H 0.49976 0.74022 0.62116 0.0
H1364 H 0.50105 0.74548 0.57289 0.0
H1365 H 0.56596 0.80641 0.67336 0.0
H1366 H 0.55059 0.78958 0.70197 0.0
H1367 H 0.56384 0.78564 0.67205 0.0
H1368 H 0.50946 0.73023 0.73052 0.0
H1369 H 0.5455 0.72728 0.65924 0.0
H1370 H 0.50167 0.75641 0.68044 0.0
H1371 H 0.51945 0.77212 0.70579 0.0
H1372 H 0.50413 0.75287 0.7284 0.0
H1373 H 0.54675 0.75169 0.59128 0.0
H1374 H 0.56228 0.74922 0.61695 0.0
H1375 H 0.56209 0.76891 0.61851 0.0
C1376 C 0.71998 0.50212 0.80499 0.0
C1377 C 0.71878 0.51632 0.79478 0.0
C1378 C 0.73489 0.50391 0.82012 0.0
C1379 C 0.74912 0.52029 0.82446 0.0
C1380 C 0.74816 0.53469 0.81367 0.0
C1381 C 0.73294 0.53254 0.79918 0.0
C1382 C 0.73541 0.48823 0.83147 0.0
C1383 C 0.76319 0.55232 0.81744 0.0
C1384 C 0.7816 0.52263 0.89291 0.0
C1385 C 0.7924 0.52019 0.86958 0.0
C1386 C 0.76778 0.52347 0.87843 0.0
C1387 C 0.76501 0.52212 0.83978 0.0
C1388 C 0.77657 0.52072 0.81604 0.0
C1389 C 0.79006 0.51959 0.83132 0.0
C1390 C 0.75559 0.52476 0.90459 0.0
C1391 C 0.77422 0.51957 0.77467 0.0
H1392 H 0.70924 0.48953 0.80097 0.0
H1393 H 0.73206 0.54359 0.7918 0.0
H1394 H 0.74514 0.4872 0.81514 0.0
H1395 H 0.73904 0.48912 0.86098 0.0
H1396 H 0.72304 0.47647 0.82746 0.0
H1397 H 0.76047 0.56217 0.80707 0.0
H1398 H 0.76705 0.55501 0.84682 0.0
H1399 H 0.77413 0.55329 0.80192 0.0
H1400 H 0.7835 0.52305 0.92253 0.0
H1401 H 0.79862 0.51787 0.81342 0.0
H1402 H 0.74331 0.5127 0.90418 0.0
H1403 H 0.7531 0.53494 0.8957 0.0
H1404 H 0.7604 0.52732 0.93341 0.0
H1405 H 0.76297 0.50727 0.76734 0.0
H1406 H 0.78539 0.52058 0.76 0.0
H1407 H 0.77192 0.52972 0.76455 0.0
C1408 C 0.1931 0.74031 0.97825 0.0
C1409 C 0.19628 0.73134 0.9509 0.0
C1410 C 0.20629 0.7553 0.99326 0.0
C1411 C 0.22299 0.76155 0.98023 0.0
C1412 C 0.22614 0.75308 0.95128 0.0
C1413 C 0.21278 0.73801 0.93718 0.0
C1414 C 0.20249 0.76397 0.02423 0.0
C1415 C 0.24379 0.75948 0.93637 0.0
C1416 C 0.25873 0.80598 0.00019 0.0
C1417 C 0.26789 0.80284 0.02715 0.0
C1418 C 0.24363 0.79275 0.98564 0.0
C1419 C 0.23746 0.77608 0.99876 0.0
C1420 C 0.24607 0.773 0.02753 0.0
C1421 C 0.26125 0.78639 0.04115 0.0
C1422 C 0.23481 0.79649 0.95489 0.0
C1423 C 0.23976 0.75539 0.04255 0.0
H1424 H 0.18033 0.7354 0.98855 0.0
H1425 H 0.21545 0.73108 0.91649 0.0
H1426 H 0.20821 0.76271 0.05021 0.0
H1427 H 0.20821 0.7777 0.01848 0.0
H1428 H 0.18867 0.75849 0.02865 0.0
H1429 H 0.24384 0.75234 0.91158 0.0
H1430 H 0.24973 0.77308 0.92906 0.0
H1431 H 0.25178 0.75829 0.95793 0.0
H1432 H 0.26362 0.81871 0.98969 0.0
H1433 H 0.26831 0.78375 0.06155 0.0
H1434 H 0.22107 0.79061 0.96072 0.0
H1435 H 0.23614 0.7909 0.92878 0.0
H1436 H 0.24014 0.8103 0.95066 0.0
H1437 H 0.22614 0.74936 0.04976 0.0
H1438 H 0.2469 0.75543 0.06743 0.0
H1439 H 0.24105 0.74743 0.0211 0.0
C1440 C 0.59797 0.15204 0.75739 0.0
C1441 C 0.59001 0.14054 0.72843 0.0
C1442 C 0.58866 0.15242 0.78783 0.0
C1443 C 0.57099 0.14107 0.78921 0.0
C1444 C 0.56286 0.12955 0.75989 0.0
C1445 C 0.57247 0.12943 0.72984 0.0
C1446 C 0.59775 0.16484 0.81868 0.0
C1447 C 0.54402 0.1173 0.76034 0.0
C1448 C 0.54909 0.13021 0.88235 0.0
C1449 C 0.54169 0.14048 0.88289 0.0
C1450 C 0.55873 0.13034 0.85208 0.0
C1451 C 0.56101 0.141 0.82164 0.0
C1452 C 0.5536 0.15142 0.82201 0.0
C1453 C 0.54403 0.15104 0.85268 0.0
C1454 C 0.56649 0.11909 0.8527 0.0
C1455 C 0.55571 0.16289 0.78993 0.0
H1456 H 0.61155 0.16053 0.75656 0.0
H1457 H 0.56622 0.12071 0.70723 0.0
H1458 H 0.5921 0.17302 0.82296 0.0
H1459 H 0.59622 0.1579 0.84485 0.0
H1460 H 0.61149 0.17304 0.81303 0.0
H1461 H 0.53961 0.10934 0.73509 0.0
H1462 H 0.54064 0.10887 0.78475 0.0
H1463 H 0.53705 0.12434 0.76279 0.0
H1464 H 0.54754 0.12221 0.90588 0.0
H1465 H 0.53819 0.15887 0.85283 0.0
H1466 H 0.58044 0.12688 0.84974 0.0
H1467 H 0.56174 0.1102 0.829 0.0
H1468 H 0.56358 0.11162 0.87859 0.0
H1469 H 0.56935 0.17181 0.78491 0.0
H1470 H 0.54927 0.17033 0.79472 0.0
H1471 H 0.55048 0.15527 0.76446 0.0
C1472 C 0.45189 0.58534 0.9401 0.0
C1473 C 0.4481 0.59582 0.91878 0.0
C1474 C 0.44204 0.57672 0.97089 0.0
C1475 C 0.42795 0.5785 0.98032 0.0
C1476 C 0.42415 0.58922 0.9591 0.0
C1477 C 0.43436 0.59785 0.92863 0.0
C1478 C 0.44662 0.56558 0.99313 0.0
C1479 C 0.40912 0.59127 0.96812 0.0
C1480 C 0.39448 0.54226 0.03693 0.0
C1481 C 0.39846 0.54891 0.07276 0.0
C1482 C 0.40354 0.55203 0.00637 0.0
C1483 C 0.41701 0.56877 0.01189 0.0
C1484 C 0.42073 0.57573 0.04789 0.0
C1485 C 0.41134 0.56572 0.07793 0.0
C1486 C 0.39906 0.54424 0.96833 0.0
C1487 C 0.43509 0.59348 0.05487 0.0
H1488 H 0.46264 0.58393 0.93273 0.0
H1489 H 0.43135 0.60586 0.91194 0.0
H1490 H 0.44848 0.56952 0.02253 0.0
H1491 H 0.43611 0.55226 0.99203 0.0
H1492 H 0.45833 0.56605 0.9829 0.0
H1493 H 0.40818 0.60044 0.94949 0.0
H1494 H 0.39729 0.57886 0.9658 0.0
H1495 H 0.40998 0.59564 0.99702 0.0
H1496 H 0.38438 0.52932 0.03288 0.0
H1497 H 0.41453 0.57084 0.10566 0.0
H1498 H 0.40964 0.54285 0.95729 0.0
H1499 H 0.39717 0.55263 0.94913 0.0
H1500 H 0.38741 0.53159 0.96843 0.0
H1501 H 0.44731 0.59424 0.048 0.0
H1502 H 0.43557 0.59742 0.08408 0.0
H1503 H 0.43387 0.60262 0.03681 0.0
C1504 C 0.86913 0.44934 0.09823 0.0
C1505 C 0.85466 0.44809 0.0816 0.0
C1506 C 0.86777 0.43909 0.12836 0.0
C1507 C 0.85155 0.42731 0.14221 0.0
C1508 C 0.83689 0.42589 0.1254 0.0
C1509 C 0.83862 0.4363 0.09527 0.0
C1510 C 0.8837 0.441 0.14567 0.0
C1511 C 0.8194 0.41345 0.13939 0.0
C1512 C 0.8485 0.39157 0.20151 0.0
C1513 C 0.84896 0.39776 0.23719 0.0
C1514 C 0.849 0.40091 0.17027 0.0
C1515 C 0.85001 0.4168 0.17489 0.0
C1516 C 0.85017 0.42296 0.21081 0.0
C1517 C 0.84966 0.41338 0.24153 0.0
C1518 C 0.84876 0.39392 0.13234 0.0
C1519 C 0.85129 0.43988 0.21683 0.0
H1520 H 0.88156 0.45857 0.08808 0.0
H1521 H 0.8274 0.43512 0.08217 0.0
H1522 H 0.88453 0.44495 0.17491 0.0
H1523 H 0.88334 0.42866 0.14552 0.0
H1524 H 0.89532 0.45047 0.13105 0.0
H1525 H 0.80928 0.41369 0.12281 0.0
H1526 H 0.81743 0.40042 0.13879 0.0
H1527 H 0.81808 0.41636 0.16853 0.0
H1528 H 0.84779 0.37943 0.19804 0.0
H1529 H 0.85031 0.41836 0.26902 0.0
H1530 H 0.86071 0.40249 0.11764 0.0
H1531 H 0.83824 0.3933 0.11576 0.0
H1532 H 0.84727 0.38108 0.13349 0.0
H1533 H 0.8634 0.45014 0.20548 0.0
H1534 H 0.85057 0.44252 0.24652 0.0
H1535 H 0.8409 0.44032 0.2019 0.0
C1536 C 0.45399 0.8657 0.37016 0.0
C1537 C 0.45093 0.85119 0.3898 0.0
C1538 C 0.444 0.86458 0.33973 0.0
C1539 C 0.43066 0.84854 0.32856 0.0
C1540 C 0.42764 0.83381 0.34789 0.0
C1541 C 0.4378 0.83531 0.37835 0.0
C1542 C 0.44761 0.88058 0.31974 0.0
C1543 C 0.41354 0.8165 0.33669 0.0
C1544 C 0.39554 0.84873 0.27298 0.0
C1545 C 0.40025 0.84752 0.23675 0.0
C1546 C 0.40511 0.84868 0.30321 0.0
C1547 C 0.4197 0.84732 0.29702 0.0
C1548 C 0.42426 0.8456 0.26061 0.0
C1549 C 0.41449 0.84576 0.23088 0.0
C1550 C 0.39986 0.85052 0.34168 0.0
C1551 C 0.43971 0.84407 0.25299 0.0
H1552 H 0.46429 0.87797 0.37851 0.0
H1553 H 0.43524 0.82407 0.39369 0.0
H1554 H 0.45024 0.87968 0.29018 0.0
H1555 H 0.43634 0.88218 0.32096 0.0
H1556 H 0.45858 0.89203 0.33169 0.0
H1557 H 0.41321 0.80625 0.35387 0.0
H1558 H 0.40117 0.81597 0.3392 0.0
H1559 H 0.41504 0.81403 0.30733 0.0
H1560 H 0.3844 0.84984 0.27771 0.0
H1561 H 0.41833 0.84504 0.20293 0.0
H1562 H 0.40987 0.86244 0.35429 0.0
H1563 H 0.39838 0.83994 0.3594 0.0
H1564 H 0.38779 0.85072 0.34187 0.0
H1565 H 0.45127 0.85588 0.2615 0.0
H1566 H 0.4409 0.84174 0.22332 0.0
H1567 H 0.43923 0.83358 0.26944 0.0
C1568 C 0.59235 0.43437 0.55442 0.0
C1569 C 0.59272 0.44954 0.56299 0.0
C1570 C 0.58316 0.42458 0.52395 0.0
C1571 C 0.57411 0.4301 0.50166 0.0
C1572 C 0.57452 0.44546 0.51006 0.0
C1573 C 0.58383 0.45499 0.54062 0.0
C1574 C 0.58306 0.40831 0.5157 0.0
C1575 C 0.56497 0.45172 0.48699 0.0
C1576 C 0.5616 0.41356 0.40395 0.0
C1577 C 0.54442 0.40145 0.40831 0.0
C1578 C 0.57151 0.42275 0.43424 0.0
C1579 C 0.56405 0.41977 0.4697 0.0
C1580 C 0.54681 0.40734 0.47442 0.0
C1581 C 0.5372 0.39831 0.44364 0.0
C1582 C 0.58988 0.43584 0.4282 0.0
C1583 C 0.53841 0.40386 0.51183 0.0
H1584 H 0.59934 0.4302 0.57145 0.0
H1585 H 0.58386 0.46658 0.54749 0.0
H1586 H 0.56991 0.39748 0.5168 0.0
H1587 H 0.58786 0.40872 0.48736 0.0
H1588 H 0.59094 0.40591 0.53547 0.0
H1589 H 0.56677 0.46403 0.49698 0.0
H1590 H 0.5692 0.45321 0.45783 0.0
H1591 H 0.55124 0.44228 0.48742 0.0
H1592 H 0.56729 0.41584 0.37676 0.0
H1593 H 0.52389 0.3891 0.44708 0.0
H1594 H 0.59807 0.43321 0.44644 0.0
H1595 H 0.59204 0.44857 0.4356 0.0
H1596 H 0.59391 0.43616 0.39913 0.0
H1597 H 0.54552 0.40065 0.53199 0.0
H1598 H 0.52508 0.39333 0.51105 0.0
H1599 H 0.53858 0.4154 0.52215 0.0
C1600 C 0.12391 0.5456 0.59657 0.0
C1601 C 0.13832 0.54681 0.57976 0.0
C1602 C 0.12537 0.55589 0.62672 0.0
C1603 C 0.14164 0.56767 0.64034 0.0
C1604 C 0.15623 0.56889 0.62363 0.0
C1605 C 0.1544 0.55843 0.59352 0.0
C1606 C 0.10952 0.55417 0.64396 0.0
C1607 C 0.17378 0.58134 0.63737 0.0
C1608 C 0.14514 0.60456 0.69582 0.0
C1609 C 0.14484 0.59909 0.73212 0.0
C1610 C 0.14442 0.59459 0.66564 0.0
C1611 C 0.14333 0.57876 0.67197 0.0
C1612 C 0.14331 0.57329 0.70854 0.0
C1613 C 0.14406 0.58353 0.7382 0.0
C1614 C 0.14455 0.60087 0.627 0.0
C1615 C 0.1421 0.55646 0.71635 0.0
H1616 H 0.11146 0.53649 0.58631 0.0
H1617 H 0.16558 0.55956 0.5803 0.0
H1618 H 0.10895 0.55089 0.67362 0.0
H1619 H 0.10974 0.56643 0.64238 0.0
H1620 H 0.09783 0.54431 0.63022 0.0
H1621 H 0.18381 0.58056 0.6216 0.0
H1622 H 0.17599 0.59443 0.63518 0.0
H1623 H 0.17497 0.57897 0.66695 0.0
H1624 H 0.14592 0.61666 0.69103 0.0
H1625 H 0.14357 0.57913 0.76621 0.0
H1626 H 0.13255 0.59204 0.61275 0.0
H1627 H 0.15502 0.60118 0.6108 0.0
H1628 H 0.14604 0.61372 0.62679 0.0
H1629 H 0.12993 0.54605 0.70564 0.0
H1630 H 0.14291 0.55438 0.74632 0.0
H1631 H 0.1524 0.55568 0.70188 0.0
C1632 C 0.42397 0.0372 0.09969 0.0
C1633 C 0.42418 0.04561 0.06706 0.0
C1634 C 0.41529 0.01949 0.10154 0.0
C1635 C 0.40691 0.00994 0.06978 0.0
C1636 C 0.40635 0.01828 0.03733 0.0
C1637 C 0.41486 0.03602 0.03648 0.0
C1638 C 0.41592 0.01102 0.13687 0.0
C1639 C 0.39764 0.00851 0.00281 0.0
C1640 C 0.40548 0.96795 0.06006 0.0
C1641 C 0.38859 0.95634 0.06901 0.0
C1642 C 0.41147 0.98538 0.05967 0.0
C1643 C 0.40041 0.99143 0.06928 0.0
C1644 C 0.38341 0.97987 0.07879 0.0
C1645 C 0.37765 0.96244 0.07822 0.0
C1646 C 0.42969 0.99733 0.04909 0.0
C1647 C 0.37135 0.98593 0.08974 0.0
H1648 H 0.43127 0.04441 0.12337 0.0
H1649 H 0.41462 0.04239 0.01143 0.0
H1650 H 0.40313 0.00053 0.14418 0.0
H1651 H 0.42421 0.00547 0.13296 0.0
H1652 H 0.42092 0.02005 0.16035 0.0
H1653 H 0.39697 0.01675 0.98109 0.0
H1654 H 0.40467 0.00248 0.99158 0.0
H1655 H 0.38462 0.99823 0.0092 0.0
H1656 H 0.41416 0.96344 0.05372 0.0
H1657 H 0.36452 0.95358 0.08472 0.0
H1658 H 0.43653 0.0058 0.07261 0.0
H1659 H 0.43025 0.00547 0.02573 0.0
H1660 H 0.43643 0.99053 0.04094 0.0
H1661 H 0.37645 0.99448 0.11395 0.0
H1662 H 0.35857 0.9753 0.09676 0.0
H1663 H 0.37011 0.99334 0.06691 0.0
C1664 C 0.4009 0.3627 0.21381 0.0
C1665 C 0.41696 0.37285 0.22944 0.0
C1666 C 0.38973 0.36895 0.20917 0.0
C1667 C 0.39494 0.38578 0.21986 0.0
C1668 C 0.4112 0.39606 0.23546 0.0
C1669 C 0.42195 0.38943 0.24021 0.0
C1670 C 0.3724 0.35761 0.19297 0.0
C1671 C 0.41733 0.41416 0.24689 0.0
C1672 C 0.37837 0.41342 0.18363 0.0
C1673 C 0.37054 0.41499 0.21537 0.0
C1674 C 0.38506 0.40252 0.18324 0.0
C1675 C 0.38364 0.39297 0.21525 0.0
C1676 C 0.37406 0.39318 0.24578 0.0
C1677 C 0.36777 0.40437 0.24562 0.0
C1678 C 0.39523 0.40271 0.1502 0.0
C1679 C 0.37197 0.38293 0.28012 0.0
H1680 H 0.39707 0.34985 0.20552 0.0
H1681 H 0.43449 0.39738 0.25165 0.0
H1682 H 0.36251 0.35634 0.21263 0.0
H1683 H 0.3708 0.36332 0.16735 0.0
H1684 H 0.37023 0.34477 0.18642 0.0
H1685 H 0.43046 0.42052 0.25787 0.0
H1686 H 0.41694 0.42154 0.22294 0.0
H1687 H 0.40889 0.41451 0.26848 0.0
H1688 H 0.38052 0.42173 0.16034 0.0
H1689 H 0.36159 0.4056 0.27005 0.0
H1690 H 0.39259 0.38975 0.14347 0.0
H1691 H 0.40892 0.41047 0.15668 0.0
H1692 H 0.39254 0.40819 0.12548 0.0
H1693 H 0.36934 0.37002 0.27291 0.0
H1694 H 0.36158 0.38189 0.29794 0.0
H1695 H 0.38389 0.38915 0.2963 0.0
C1696 C 0.03456 0.40644 0.42432 0.0
C1697 C 0.0435 0.41762 0.39546 0.0
C1698 C 0.01683 0.39679 0.42368 0.0
C1699 C 0.00791 0.39842 0.39346 0.0
C1700 C 0.01693 0.40857 0.36286 0.0
C1701 C 0.03463 0.41809 0.36426 0.0
C1702 C 0.00765 0.38597 0.45668 0.0
C1703 C 0.00788 0.41059 0.33004 0.0
C1704 C 0.96017 0.37034 0.38517 0.0
C1705 C 0.95459 0.38079 0.40067 0.0
C1706 C 0.97752 0.37574 0.383 0.0
C1707 C 0.98946 0.39196 0.39652 0.0
C1708 C 0.98386 0.4025 0.41229 0.0
C1709 C 0.96652 0.3968 0.41408 0.0
C1710 C 0.98309 0.3642 0.36607 0.0
C1711 C 0.9962 0.41994 0.42686 0.0
H1712 H 0.04139 0.4058 0.44819 0.0
H1713 H 0.04141 0.42679 0.34194 0.0
H1714 H 0.00218 0.39233 0.47314 0.0
H1715 H 0.99703 0.37352 0.4478 0.0
H1716 H 0.01623 0.38383 0.4748 0.0
H1717 H 0.01655 0.41668 0.3063 0.0
H1718 H -0.00269 0.39814 0.32103 0.0
H1719 H 0.00237 0.41857 0.33796 0.0
H1720 H 0.95096 0.3579 0.37502 0.0
H1721 H 0.96229 0.40505 0.42543 0.0
H1722 H 0.99104 0.36198 0.38593 0.0
H1723 H 0.991 0.37031 0.34135 0.0
H1724 H 0.9722 0.35179 0.35781 0.0
H1725 H 0.00441 0.41907 0.44833 0.0
H1726 H 0.98972 0.42638 0.439 0.0
H1727 H 0.00456 0.42796 0.40422 0.0
C1728 C 0.58455 0.9605 0.52898 0.0
C1729 C 0.57608 0.95176 0.56106 0.0
C1730 C 0.59393 0.97824 0.52836 0.0
C1731 C 0.59486 0.9874 0.56064 0.0
C1732 C 0.58742 0.97863 0.59383 0.0
C1733 C 0.57808 0.9609 0.59363 0.0
C1734 C 0.60177 0.98714 0.49248 0.0
C1735 C 0.58822 0.98797 0.62888 0.0
C1736 C 0.62431 0.03506 0.56397 0.0
C1737 C 0.61313 0.04091 0.55516 0.0
C1738 C 0.61863 0.01765 0.56568 0.0
C1739 C 0.6014 0.00589 0.55841 0.0
C1740 C 0.59011 0.01174 0.54938 0.0
C1741 C 0.5961 0.02915 0.548 0.0
C1742 C 0.63098 0.01182 0.57541 0.0
C1743 C 0.57161 -0.00041 0.5415 0.0
H1744 H 0.58329 0.95347 0.50391 0.0
H1745 H 0.57147 0.95425 0.61847 0.0
H1746 H 0.59439 0.99279 0.48124 0.0
H1747 H 0.61491 0.99761 0.49701 0.0
H1748 H 0.60196 0.97836 0.47148 0.0
H1749 H 0.58396 0.97947 0.65332 0.0
H1750 H 0.6013 -0.00153 0.63391 0.0
H1751 H 0.57997 0.99362 0.62606 0.0
H1752 H 0.63752 0.04411 0.56925 0.0
H1753 H 0.58732 0.03357 0.54191 0.0
H1754 H 0.63134 0.00369 0.55306 0.0
H1755 H 0.62677 0.00402 0.60087 0.0
H1756 H 0.644 0.02258 0.57988 0.0
H1757 H 0.57036 0.99107 0.51835 0.0
H1758 H 0.5646 0.00623 0.53425 0.0
H1759 H 0.56552 0.99152 0.56603 0.0
C1760 C 0.62805 0.59191 0.74892 0.0
C1761 C 0.62102 0.57827 0.72409 0.0
C1762 C 0.62133 0.60272 0.75234 0.0
C1763 C 0.60725 0.59975 0.73049 0.0
C1764 C 0.60085 0.58672 0.70366 0.0
C1765 C 0.60781 0.57613 0.70081 0.0
C1766 C 0.62862 0.61663 0.78091 0.0
C1767 C 0.58586 0.58316 0.67976 0.0
C1768 C 0.57369 0.60841 0.76797 0.0
C1769 C 0.57643 0.62249 0.74708 0.0
C1770 C 0.5842 0.60142 0.7641 0.0
C1771 C 0.59778 0.60867 0.73863 0.0
C1772 C 0.60117 0.62341 0.71882 0.0
C1773 C 0.59041 0.63014 0.72323 0.0
C1774 C 0.58018 0.58569 0.78578 0.0
C1775 C 0.61565 0.63157 0.69172 0.0
H1776 H 0.63844 0.59377 0.76655 0.0
H1777 H 0.6022 0.56553 0.68181 0.0
H1778 H 0.63024 0.6286 0.76929 0.0
H1779 H 0.61973 0.61306 0.80451 0.0
H1780 H 0.64103 0.61893 0.7915 0.0
H1781 H 0.58357 0.57379 0.65772 0.0
H1782 H 0.57432 0.57814 0.69714 0.0
H1783 H 0.58778 0.59499 0.66669 0.0
H1784 H 0.56279 0.60228 0.78607 0.0
H1785 H 0.5927 0.64117 0.70738 0.0
H1786 H 0.59163 0.58743 0.80036 0.0
H1787 H 0.57606 0.57483 0.76662 0.0
H1788 H 0.56999 0.5824 0.80644 0.0
H1789 H 0.62745 0.63315 0.70424 0.0
H1790 H 0.61793 0.64412 0.68225 0.0
H1791 H 0.61277 0.62326 0.66725 0.0
C1792 C 0.02909 0.59898 0.91133 0.0
C1793 C 0.04108 0.61623 0.9078 0.0
C1794 C 0.01178 0.59341 0.91312 0.0
C1795 C 0.00622 0.60535 0.91059 0.0
C1796 C 0.01817 0.62276 0.90643 0.0
C1797 C 0.0355 0.62802 0.90531 0.0
C1798 C -0.00059 0.57471 0.91768 0.0
C1799 C 0.01264 0.63578 0.90314 0.0
C1800 C 0.96031 0.5839 0.88228 0.0
C1801 C 0.95222 0.58068 0.91673 0.0
C1802 C 0.97799 0.59327 0.87953 0.0
C1803 C 0.98781 0.5993 0.91206 0.0
C1804 C 0.97974 0.5972 0.94658 0.0
C1805 C 0.96202 0.58802 0.94846 0.0
C1806 C 0.98614 0.59551 0.84211 0.0
C1807 C 0.98979 0.60342 0.98191 0.0
H1808 H 0.03324 0.58974 0.91239 0.0
H1809 H 0.04469 0.64139 0.90293 0.0
H1810 H 0.99152 0.57253 0.94262 0.0
H1811 H 0.99075 0.56992 0.89361 0.0
H1812 H 0.00586 0.56716 0.92029 0.0
H1813 H 0.02351 0.64879 0.89926 0.0
H1814 H 0.00386 0.63265 0.87945 0.0
H1815 H 0.00562 0.63559 0.9283 0.0
H1816 H 0.95294 0.57822 0.85756 0.0
H1817 H 0.95585 0.58595 0.97507 0.0
H1818 H 0.99129 0.58681 0.83962 0.0
H1819 H 0.99687 0.60861 0.83872 0.0
H1820 H 0.97698 0.59271 0.81929 0.0
H1821 H 0.99544 0.59542 0.98853 0.0
H1822 H 0.9818 0.6029 0.00557 0.0
H1823 H 0.00035 0.61661 0.97873 0.0
loop_
_geom_bond_atom_site_label_1
_geom_bond_atom_site_label_2
_geom_bond_distance
_geom_bond_site_symmetry_2
_ccdc_geom_bond_type
Li0 N17 1.990 . S
Li0 O60 1.956 . S
Li0 O61 1.970 . S
Li0 O62 1.961 . S
Li1 N25 1.990 . S
Li1 O60 1.970 . S
Li1 O61 1.956 . S
Li1 O63 1.961 . S
Li2 N47 1.990 . S
Li2 O60 1.961 . S
Li2 O62 1.956 . S
Li2 O63 1.970 . S
Li3 N53 1.990 1_554 S
Li3 O61 1.961 . S
Li3 O62 1.970 . S
Li3 O63 1.956 . S
C4 C6 1.348 . S
C4 C7 1.356 . S
C4 O60 1.325 . S
N5 C8 1.314 . S
N5 C9 1.279 . S
C6 C4 1.348 . S
C6 C8 1.353 . S
C6 H64 0.929 . S
C7 C4 1.356 . S
C7 C9 1.358 . S
C7 H65 0.930 . S
C8 N5 1.314 . S
C8 C6 1.353 . S
C8 H66 0.930 . S
C9 N5 1.279 . S
C9 C7 1.358 . S
C9 H67 0.930 . S
C10 C13 1.348 . S
C10 C14 1.356 . S
C10 O61 1.325 . S
C11 N12 1.279 . S
C11 C14 1.358 . S
C11 H68 0.930 . S
N12 C11 1.279 . S
N12 C15 1.314 . S
C13 C10 1.348 . S
C13 C15 1.353 . S
C13 H69 0.929 . S
C14 C10 1.356 . S
C14 C11 1.358 . S
C14 H70 0.930 . S
C15 N12 1.314 . S
C15 C13 1.353 . S
C15 H71 0.930 . S
C16 N17 1.314 . S
C16 C21 1.353 . S
C16 H22 0.930 . S
N17 Li0 1.990 . S
N17 C16 1.314 . S
N17 C19 1.279 . S
C18 C19 1.358 . S
C18 C20 1.356 . S
C18 H72 0.930 . S
C19 N17 1.279 . S
C19 C18 1.358 . S
C19 H23 0.930 . S
C20 C18 1.356 . S
C20 C21 1.348 . S
C21 C16 1.353 . S
C21 C20 1.348 . S
C21 H73 0.929 . S
H22 C16 0.930 . S
H23 C19 0.930 . S
C24 N25 1.314 . S
C24 C26 1.353 . S
C24 H30 0.930 . S
N25 Li1 1.990 . S
N25 C24 1.314 . S
N25 C28 1.279 . S
C26 C24 1.353 . S
C26 C29 1.348 . S
C26 H74 0.929 . S
C27 C28 1.358 . S
C27 C29 1.356 . S
C27 H75 0.930 . S
C28 N25 1.279 . S
C28 C27 1.358 . S
C28 H31 0.930 . S
C29 C26 1.348 . S
C29 C27 1.356 . S
H30 C24 0.930 . S
H31 C28 0.930 . S
C32 C34 1.348 1_554 S
C32 C35 1.356 . S
C32 O62 1.325 . S
N33 C36 1.314 . S
N33 C37 1.279 . S
C34 C32 1.348 1_556 S
C34 C36 1.353 . S
C34 H76 0.929 . S
C35 C32 1.356 . S
C35 C37 1.358 1_554 S
C35 H77 0.930 . S
C36 N33 1.314 . S
C36 C34 1.353 . S
C36 H78 0.930 . S
C37 N33 1.279 . S
C37 C35 1.358 1_556 S
C37 H79 0.930 . S
C38 C39 1.348 . S
C38 C40 1.356 . S
C38 O63 1.325 . S
C39 C38 1.348 . S
C39 C41 1.353 . S
C39 H80 0.929 . S
C40 C38 1.356 . S
C40 C42 1.358 . S
C40 H81 0.930 . S
C41 C39 1.353 . S
C41 N43 1.314 . S
C41 H82 0.930 . S
C42 C40 1.358 . S
C42 N43 1.279 . S
C42 H83 0.930 . S
N43 C41 1.314 . S
N43 C42 1.279 . S
C44 C46 1.353 . S
C44 N47 1.314 . S
C44 H50 0.930 . S
C45 N47 1.279 . S
C45 C48 1.358 . S
C45 H51 0.930 . S
C46 C44 1.353 . S
C46 C49 1.348 . S
C46 H84 0.929 . S
N47 Li2 1.990 . S
N47 C44 1.314 . S
N47 C45 1.279 . S
C48 C45 1.358 . S
C48 C49 1.356 . S
C48 H85 0.930 . S
C49 C46 1.348 . S
C49 C48 1.356 . S
H50 C44 0.930 . S
H51 C45 0.930 . S
C52 N53 1.314 . S
C52 C54 1.353 . S
C52 H58 0.930 . S
N53 Li3 1.990 1_556 S
N53 C52 1.314 . S
N53 C56 1.279 . S
C54 C52 1.353 . S
C54 C57 1.348 . S
C54 H86 0.929 . S
C55 C56 1.358 . S
C55 C57 1.356 . S
C55 H87 0.930 . S
C56 N53 1.279 . S
C56 C55 1.358 . S
C56 H59 0.930 . S
C57 C54 1.348 . S
C57 C55 1.356 . S
H58 C52 0.930 . S
H59 C56 0.930 . S
O60 Li0 1.956 . S
O60 Li1 1.970 . S
O60 Li2 1.961 . S
O60 C4 1.325 . S
O61 Li0 1.970 . S
O61 Li1 1.956 . S
O61 Li3 1.961 . S
O61 C10 1.325 . S
O62 Li0 1.961 . S
O62 Li2 1.956 . S
O62 Li3 1.970 . S
O62 C32 1.325 . S
O63 Li1 1.961 . S
O63 Li2 1.970 . S
O63 Li3 1.956 . S
O63 C38 1.325 . S
H64 C6 0.929 . S
H65 C7 0.930 . S
H66 C8 0.930 . S
H67 C9 0.930 . S
H68 C11 0.930 . S
H69 C13 0.929 . S
H70 C14 0.930 . S
H71 C15 0.930 . S
H72 C18 0.930 . S
H73 C21 0.929 . S
H74 C26 0.929 . S
H75 C27 0.930 . S
H76 C34 0.929 . S
H77 C35 0.930 . S
H78 C36 0.930 . S
H79 C37 0.930 . S
H80 C39 0.929 . S
H81 C40 0.930 . S
H82 C41 0.930 . S
H83 C42 0.930 . S
H84 C46 0.929 . S
H85 C48 0.930 . S
H86 C54 0.929 . S
H87 C55 0.930 . S
Li88 N105 1.990 . S
Li88 O148 1.956 . S
Li88 O149 1.970 . S
Li88 O150 1.961 . S
Li89 N113 1.990 . S
Li89 O148 1.970 . S
Li89 O149 1.956 . S
Li89 O151 1.961 . S
Li90 N135 1.990 . S
Li90 O148 1.961 . S
Li90 O150 1.956 . S
Li90 O151 1.970 . S
Li91 N141 1.990 . S
Li91 O149 1.961 . S
Li91 O150 1.970 . S
Li91 O151 1.956 . S
C92 C94 1.348 . S
C92 C95 1.356 . S
C92 O148 1.325 . S
N93 C96 1.314 . S
N93 C97 1.279 . S
C94 C92 1.348 . S
C94 C96 1.353 . S
C94 H152 0.929 . S
C95 C92 1.356 . S
C95 C97 1.358 . S
C95 H153 0.930 . S
C96 N93 1.314 . S
C96 C94 1.353 . S
C96 H154 0.930 . S
C97 N93 1.279 . S
C97 C95 1.358 . S
C97 H155 0.930 . S
C98 C101 1.348 . S
C98 C102 1.356 . S
C98 O149 1.325 . S
C99 N100 1.279 . S
C99 C102 1.358 . S
C99 H156 0.930 . S
N100 C99 1.279 . S
N100 C103 1.314 . S
C101 C98 1.348 . S
C101 C103 1.353 . S
C101 H157 0.929 . S
C102 C98 1.356 . S
C102 C99 1.358 . S
C102 H158 0.930 . S
C103 N100 1.314 . S
C103 C101 1.353 . S
C103 H159 0.930 . S
C104 N105 1.314 . S
C104 C109 1.353 . S
C104 H110 0.930 . S
N105 Li88 1.990 . S
N105 C104 1.314 . S
N105 C107 1.279 . S
C106 C107 1.358 . S
C106 C108 1.356 . S
C106 H160 0.930 . S
C107 N105 1.279 . S
C107 C106 1.358 . S
C107 H111 0.930 . S
C108 C106 1.356 . S
C108 C109 1.348 . S
C109 C104 1.353 . S
C109 C108 1.348 . S
C109 H161 0.929 . S
H110 C104 0.930 . S
H111 C107 0.930 . S
C112 N113 1.314 . S
C112 C114 1.353 . S
C112 H118 0.930 . S
N113 Li89 1.990 . S
N113 C112 1.314 . S
N113 C116 1.279 . S
C114 C112 1.353 . S
C114 C117 1.348 . S
C114 H162 0.929 . S
C115 C116 1.358 . S
C115 C117 1.356 . S
C115 H163 0.930 . S
C116 N113 1.279 . S
C116 C115 1.358 . S
C116 H119 0.930 . S
C117 C114 1.348 . S
C117 C115 1.356 . S
H118 C112 0.930 . S
H119 C116 0.930 . S
C120 C122 1.348 . S
C120 C123 1.356 . S
C120 O150 1.325 . S
N121 C124 1.314 . S
N121 C125 1.279 . S
C122 C120 1.348 . S
C122 C124 1.353 . S
C122 H164 0.929 . S
C123 C120 1.356 . S
C123 C125 1.358 . S
C123 H165 0.930 . S
C124 N121 1.314 . S
C124 C122 1.353 . S
C124 H166 0.930 . S
C125 N121 1.279 . S
C125 C123 1.358 . S
C125 H167 0.930 . S
C126 C127 1.348 . S
C126 C128 1.356 . S
C126 O151 1.325 . S
C127 C126 1.348 . S
C127 C129 1.353 . S
C127 H168 0.929 . S
C128 C126 1.356 . S
C128 C130 1.358 . S
C128 H169 0.930 . S
C129 C127 1.353 . S
C129 N131 1.314 . S
C129 H170 0.930 . S
C130 C128 1.358 . S
C130 N131 1.279 . S
C130 H171 0.930 . S
N131 C129 1.314 . S
N131 C130 1.279 . S
C132 C134 1.353 . S
C132 N135 1.314 . S
C132 H138 0.930 . S
C133 N135 1.279 . S
C133 C136 1.358 . S
C133 H139 0.930 . S
C134 C132 1.353 . S
C134 C137 1.348 . S
C134 H172 0.929 . S
N135 Li90 1.990 . S
N135 C132 1.314 . S
N135 C133 1.279 . S
C136 C133 1.358 . S
C136 C137 1.356 . S
C136 H173 0.930 . S
C137 C134 1.348 . S
C137 C136 1.356 . S
H138 C132 0.930 . S
H139 C133 0.930 . S
C140 N141 1.314 . S
C140 C142 1.353 . S
C140 H146 0.930 . S
N141 Li91 1.990 . S
N141 C140 1.314 . S
N141 C144 1.279 . S
C142 C140 1.353 . S
C142 C145 1.348 . S
C142 H174 0.929 . S
C143 C144 1.358 . S
C143 C145 1.356 . S
C143 H175 0.930 . S
C144 N141 1.279 . S
C144 C143 1.358 . S
C144 H147 0.930 . S
C145 C142 1.348 . S
C145 C143 1.356 . S
H146 C140 0.930 . S
H147 C144 0.930 . S
O148 Li88 1.956 . S
O148 Li89 1.970 . S
O148 Li90 1.961 . S
O148 C92 1.325 . S
O149 Li88 1.970 . S
O149 Li89 1.956 . S
O149 Li91 1.961 . S
O149 C98 1.325 . S
O150 Li88 1.961 . S
O150 Li90 1.956 . S
O150 Li91 1.970 . S
O150 C120 1.325 . S
O151 Li89 1.961 . S
O151 Li90 1.970 . S
O151 Li91 1.956 . S
O151 C126 1.325 . S
H152 C94 0.929 . S
H153 C95 0.930 . S
H154 C96 0.930 . S
H155 C97 0.930 . S
H156 C99 0.930 . S
H157 C101 0.929 . S
H158 C102 0.930 . S
H159 C103 0.930 . S
H160 C106 0.930 . S
H161 C109 0.929 . S
H162 C114 0.929 . S
H163 C115 0.930 . S
H164 C122 0.929 . S
H165 C123 0.930 . S
H166 C124 0.930 . S
H167 C125 0.930 . S
H168 C127 0.929 . S
H169 C128 0.930 . S
H170 C129 0.930 . S
H171 C130 0.930 . S
H172 C134 0.929 . S
H173 C136 0.930 . S
H174 C142 0.929 . S
H175 C143 0.930 . S
Li176 N193 1.990 . S
Li176 O236 1.956 . S
Li176 O237 1.970 . S
Li176 O238 1.961 . S
Li177 N201 1.990 . S
Li177 O236 1.970 . S
Li177 O237 1.956 . S
Li177 O239 1.961 . S
Li178 N223 1.990 . S
Li178 O236 1.961 . S
Li178 O238 1.956 . S
Li178 O239 1.970 . S
Li179 N229 1.990 . S
Li179 O237 1.961 . S
Li179 O238 1.970 . S
Li179 O239 1.956 . S
C180 C182 1.348 . S
C180 C183 1.356 . S
C180 O236 1.325 . S
N181 C184 1.314 . S
N181 C185 1.279 . S
C182 C180 1.348 . S
C182 C184 1.353 . S
C182 H240 0.929 . S
C183 C180 1.356 . S
C183 C185 1.358 . S
C183 H241 0.930 . S
C184 N181 1.314 . S
C184 C182 1.353 . S
C184 H242 0.930 . S
C185 N181 1.279 . S
C185 C183 1.358 . S
C185 H243 0.930 . S
C186 C189 1.348 . S
C186 C190 1.356 . S
C186 O237 1.325 . S
C187 N188 1.279 . S
C187 C190 1.358 . S
C187 H244 0.930 . S
N188 C187 1.279 . S
N188 C191 1.314 . S
C189 C186 1.348 . S
C189 C191 1.353 . S
C189 H245 0.929 . S
C190 C186 1.356 . S
C190 C187 1.358 . S
C190 H246 0.930 . S
C191 N188 1.314 . S
C191 C189 1.353 . S
C191 H247 0.930 . S
C192 N193 1.314 . S
C192 C197 1.353 . S
C192 H198 0.930 . S
N193 Li176 1.990 . S
N193 C192 1.314 . S
N193 C195 1.279 . S
C194 C195 1.358 . S
C194 C196 1.356 . S
C194 H248 0.930 . S
C195 N193 1.279 . S
C195 C194 1.358 . S
C195 H199 0.930 . S
C196 C194 1.356 . S
C196 C197 1.348 . S
C197 C192 1.353 . S
C197 C196 1.348 . S
C197 H249 0.929 . S
H198 C192 0.930 . S
H199 C195 0.930 . S
C200 N201 1.314 . S
C200 C202 1.353 . S
C200 H206 0.930 . S
N201 Li177 1.990 . S
N201 C200 1.314 . S
N201 C204 1.279 . S
C202 C200 1.353 . S
C202 C205 1.348 . S
C202 H250 0.929 . S
C203 C204 1.358 . S
C203 C205 1.356 . S
C203 H251 0.930 . S
C204 N201 1.279 . S
C204 C203 1.358 . S
C204 H207 0.930 . S
C205 C202 1.348 . S
C205 C203 1.356 . S
H206 C200 0.930 . S
H207 C204 0.930 . S
C208 C210 1.348 . S
C208 C211 1.356 . S
C208 O238 1.325 . S
N209 C212 1.314 . S
N209 C213 1.279 . S
C210 C208 1.348 . S
C210 C212 1.353 . S
C210 H252 0.929 . S
C211 C208 1.356 . S
C211 C213 1.358 . S
C211 H253 0.930 . S
C212 N209 1.314 . S
C212 C210 1.353 . S
C212 H254 0.930 . S
C213 N209 1.279 . S
C213 C211 1.358 . S
C213 H255 0.930 . S
C214 C215 1.348 . S
C214 C216 1.356 . S
C214 O239 1.325 . S
C215 C214 1.348 . S
C215 C217 1.353 . S
C215 H256 0.929 . S
C216 C214 1.356 . S
C216 C218 1.358 . S
C216 H257 0.930 . S
C217 C215 1.353 . S
C217 N219 1.314 . S
C217 H258 0.930 . S
C218 C216 1.358 . S
C218 N219 1.279 . S
C218 H259 0.930 . S
N219 C217 1.314 . S
N219 C218 1.279 . S
C220 C222 1.353 . S
C220 N223 1.314 . S
C220 H226 0.930 . S
C221 N223 1.279 . S
C221 C224 1.358 . S
C221 H227 0.930 . S
C222 C220 1.353 . S
C222 C225 1.348 . S
C222 H260 0.929 . S
N223 Li178 1.990 . S
N223 C220 1.314 . S
N223 C221 1.279 . S
C224 C221 1.358 . S
C224 C225 1.356 . S
C224 H261 0.930 . S
C225 C222 1.348 . S
C225 C224 1.356 . S
H226 C220 0.930 . S
H227 C221 0.930 . S
C228 N229 1.314 . S
C228 C230 1.353 . S
C228 H234 0.930 . S
N229 Li179 1.990 . S
N229 C228 1.314 . S
N229 C232 1.279 . S
C230 C228 1.353 . S
C230 C233 1.348 . S
C230 H262 0.929 . S
C231 C232 1.358 . S
C231 C233 1.356 . S
C231 H263 0.930 . S
C232 N229 1.279 . S
C232 C231 1.358 . S
C232 H235 0.930 . S
C233 C230 1.348 . S
C233 C231 1.356 . S
H234 C228 0.930 . S
H235 C232 0.930 . S
O236 Li176 1.956 . S
O236 Li177 1.970 . S
O236 Li178 1.961 . S
O236 C180 1.325 . S
O237 Li176 1.970 . S
O237 Li177 1.956 . S
O237 Li179 1.961 . S
O237 C186 1.325 . S
O238 Li176 1.961 . S
O238 Li178 1.956 . S
O238 Li179 1.970 . S
O238 C208 1.325 . S
O239 Li177 1.961 . S
O239 Li178 1.970 . S
O239 Li179 1.956 . S
O239 C214 1.325 . S
H240 C182 0.929 . S
H241 C183 0.930 . S
H242 C184 0.930 . S
H243 C185 0.930 . S
H244 C187 0.930 . S
H245 C189 0.929 . S
H246 C190 0.930 . S
H247 C191 0.930 . S
H248 C194 0.930 . S
H249 C197 0.929 . S
H250 C202 0.929 . S
H251 C203 0.930 . S
H252 C210 0.929 . S
H253 C211 0.930 . S
H254 C212 0.930 . S
H255 C213 0.930 . S
H256 C215 0.929 . S
H257 C216 0.930 . S
H258 C217 0.930 . S
H259 C218 0.930 . S
H260 C222 0.929 . S
H261 C224 0.930 . S
H262 C230 0.929 . S
H263 C231 0.930 . S
Li264 N281 1.990 . S
Li264 O324 1.956 . S
Li264 O325 1.970 . S
Li264 O326 1.961 . S
Li265 N289 1.990 . S
Li265 O324 1.970 . S
Li265 O325 1.956 . S
Li265 O327 1.961 . S
Li266 N311 1.990 . S
Li266 O324 1.961 . S
Li266 O326 1.956 . S
Li266 O327 1.970 . S
Li267 N317 1.990 . S
Li267 O325 1.961 . S
Li267 O326 1.970 . S
Li267 O327 1.956 . S
C268 C270 1.348 . S
C268 C271 1.356 . S
C268 O324 1.325 . S
N269 C272 1.314 . S
N269 C273 1.279 . S
C270 C268 1.348 . S
C270 C272 1.353 . S
C270 H328 0.929 . S
C271 C268 1.356 . S
C271 C273 1.358 . S
C271 H329 0.930 . S
C272 N269 1.314 . S
C272 C270 1.353 . S
C272 H330 0.930 . S
C273 N269 1.279 . S
C273 C271 1.358 . S
C273 H331 0.930 . S
C274 C277 1.348 . S
C274 C278 1.356 . S
C274 O325 1.325 . S
C275 N276 1.279 . S
C275 C278 1.358 . S
C275 H332 0.930 . S
N276 C275 1.279 . S
N276 C279 1.314 . S
C277 C274 1.348 . S
C277 C279 1.353 . S
C277 H333 0.929 . S
C278 C274 1.356 . S
C278 C275 1.358 . S
C278 H334 0.930 . S
C279 N276 1.314 . S
C279 C277 1.353 . S
C279 H335 0.930 . S
C280 N281 1.314 . S
C280 C285 1.353 . S
C280 H286 0.930 . S
N281 Li264 1.990 . S
N281 C280 1.314 . S
N281 C283 1.279 . S
C282 C283 1.358 . S
C282 C284 1.356 . S
C282 H336 0.930 . S
C283 N281 1.279 . S
C283 C282 1.358 . S
C283 H287 0.930 . S
C284 C282 1.356 . S
C284 C285 1.348 . S
C285 C280 1.353 . S
C285 C284 1.348 . S
C285 H337 0.929 . S
H286 C280 0.930 . S
H287 C283 0.930 . S
C288 N289 1.314 . S
C288 C290 1.353 . S
C288 H294 0.930 . S
N289 Li265 1.990 . S
N289 C288 1.314 . S
N289 C292 1.279 . S
C290 C288 1.353 . S
C290 C293 1.348 . S
C290 H338 0.929 . S
C291 C292 1.358 . S
C291 C293 1.356 . S
C291 H339 0.930 . S
C292 N289 1.279 . S
C292 C291 1.358 . S
C292 H295 0.930 . S
C293 C290 1.348 . S
C293 C291 1.356 . S
H294 C288 0.930 . S
H295 C292 0.930 . S
C296 C298 1.348 . S
C296 C299 1.356 . S
C296 O326 1.325 . S
N297 C300 1.314 . S
N297 C301 1.279 . S
C298 C296 1.348 . S
C298 C300 1.353 . S
C298 H340 0.929 . S
C299 C296 1.356 . S
C299 C301 1.358 . S
C299 H341 0.930 . S
C300 N297 1.314 . S
C300 C298 1.353 . S
C300 H342 0.930 . S
C301 N297 1.279 . S
C301 C299 1.358 . S
C301 H343 0.930 . S
C302 C303 1.348 . S
C302 C304 1.356 . S
C302 O327 1.325 . S
C303 C302 1.348 . S
C303 C305 1.353 . S
C303 H344 0.929 . S
C304 C302 1.356 . S
C304 C306 1.358 . S
C304 H345 0.930 . S
C305 C303 1.353 . S
C305 N307 1.314 . S
C305 H346 0.930 . S
C306 C304 1.358 . S
C306 N307 1.279 . S
C306 H347 0.930 . S
N307 C305 1.314 . S
N307 C306 1.279 . S
C308 C310 1.353 . S
C308 N311 1.314 . S
C308 H314 0.930 . S
C309 N311 1.279 . S
C309 C312 1.358 . S
C309 H315 0.930 . S
C310 C308 1.353 . S
C310 C313 1.348 . S
C310 H348 0.929 . S
N311 Li266 1.990 . S
N311 C308 1.314 . S
N311 C309 1.279 . S
C312 C309 1.358 . S
C312 C313 1.356 . S
C312 H349 0.930 . S
C313 C310 1.348 . S
C313 C312 1.356 . S
H314 C308 0.930 . S
H315 C309 0.930 . S
C316 N317 1.314 . S
C316 C318 1.353 . S
C316 H322 0.930 . S
N317 Li267 1.990 . S
N317 C316 1.314 . S
N317 C320 1.279 . S
C318 C316 1.353 . S
C318 C321 1.348 . S
C318 H350 0.929 . S
C319 C320 1.358 . S
C319 C321 1.356 . S
C319 H351 0.930 . S
C320 N317 1.279 . S
C320 C319 1.358 . S
C320 H323 0.930 . S
C321 C318 1.348 . S
C321 C319 1.356 . S
H322 C316 0.930 . S
H323 C320 0.930 . S
O324 Li264 1.956 . S
O324 Li265 1.970 . S
O324 Li266 1.961 . S
O324 C268 1.325 . S
O325 Li264 1.970 . S
O325 Li265 1.956 . S
O325 Li267 1.961 . S
O325 C274 1.325 . S
O326 Li264 1.961 . S
O326 Li266 1.956 . S
O326 Li267 1.970 . S
O326 C296 1.325 . S
O327 Li265 1.961 . S
O327 Li266 1.970 . S
O327 Li267 1.956 . S
O327 C302 1.325 . S
H328 C270 0.929 . S
H329 C271 0.930 . S
H330 C272 0.930 . S
H331 C273 0.930 . S
H332 C275 0.930 . S
H333 C277 0.929 . S
H334 C278 0.930 . S
H335 C279 0.930 . S
H336 C282 0.930 . S
H337 C285 0.929 . S
H338 C290 0.929 . S
H339 C291 0.930 . S
H340 C298 0.929 . S
H341 C299 0.930 . S
H342 C300 0.930 . S
H343 C301 0.930 . S
H344 C303 0.929 . S
H345 C304 0.930 . S
H346 C305 0.930 . S
H347 C306 0.930 . S
H348 C310 0.929 . S
H349 C312 0.930 . S
H350 C318 0.929 . S
H351 C319 0.930 . S
Li352 N369 1.990 . S
Li352 O412 1.956 . S
Li352 O413 1.970 . S
Li352 O414 1.961 . S
Li353 N377 1.990 . S
Li353 O412 1.970 . S
Li353 O413 1.956 . S
Li353 O415 1.961 . S
Li354 N399 1.990 . S
Li354 O412 1.961 . S
Li354 O414 1.956 . S
Li354 O415 1.970 . S
Li355 N405 1.990 . S
Li355 O413 1.961 . S
Li355 O414 1.970 . S
Li355 O415 1.956 . S
C356 C358 1.348 . S
C356 C359 1.356 . S
C356 O412 1.325 . S
N357 C360 1.314 . S
N357 C361 1.279 . S
C358 C356 1.348 . S
C358 C360 1.353 . S
C358 H416 0.929 . S
C359 C356 1.356 . S
C359 C361 1.358 . S
C359 H417 0.930 . S
C360 N357 1.314 . S
C360 C358 1.353 . S
C360 H418 0.930 . S
C361 N357 1.279 . S
C361 C359 1.358 . S
C361 H419 0.930 . S
C362 C365 1.348 . S
C362 C366 1.356 . S
C362 O413 1.325 . S
C363 N364 1.279 . S
C363 C366 1.358 . S
C363 H420 0.930 . S
N364 C363 1.279 . S
N364 C367 1.314 . S
C365 C362 1.348 . S
C365 C367 1.353 . S
C365 H421 0.929 . S
C366 C362 1.356 . S
C366 C363 1.358 . S
C366 H422 0.930 . S
C367 N364 1.314 . S
C367 C365 1.353 . S
C367 H423 0.930 . S
C368 N369 1.314 . S
C368 C373 1.353 . S
C368 H374 0.930 . S
N369 Li352 1.990 . S
N369 C368 1.314 . S
N369 C371 1.279 . S
C370 C371 1.358 . S
C370 C372 1.356 . S
C370 H424 0.930 . S
C371 N369 1.279 . S
C371 C370 1.358 . S
C371 H375 0.930 . S
C372 C370 1.356 . S
C372 C373 1.348 . S
C373 C368 1.353 . S
C373 C372 1.348 . S
C373 H425 0.929 . S
H374 C368 0.930 . S
H375 C371 0.930 . S
C376 N377 1.314 . S
C376 C378 1.353 . S
C376 H382 0.930 . S
N377 Li353 1.990 . S
N377 C376 1.314 . S
N377 C380 1.279 . S
C378 C376 1.353 . S
C378 C381 1.348 . S
C378 H426 0.929 . S
C379 C380 1.358 . S
C379 C381 1.356 . S
C379 H427 0.930 . S
C380 N377 1.279 . S
C380 C379 1.358 . S
C380 H383 0.930 . S
C381 C378 1.348 . S
C381 C379 1.356 . S
H382 C376 0.930 . S
H383 C380 0.930 . S
C384 C386 1.348 . S
C384 C387 1.356 . S
C384 O414 1.325 . S
N385 C388 1.314 . S
N385 C389 1.279 . S
C386 C384 1.348 . S
C386 C388 1.353 . S
C386 H428 0.929 . S
C387 C384 1.356 . S
C387 C389 1.358 . S
C387 H429 0.930 . S
C388 N385 1.314 . S
C388 C386 1.353 . S
C388 H430 0.930 . S
C389 N385 1.279 . S
C389 C387 1.358 . S
C389 H431 0.930 . S
C390 C391 1.348 . S
C390 C392 1.356 . S
C390 O415 1.325 . S
C391 C390 1.348 . S
C391 C393 1.353 . S
C391 H432 0.929 . S
C392 C390 1.356 . S
C392 C394 1.358 . S
C392 H433 0.930 . S
C393 C391 1.353 . S
C393 N395 1.314 . S
C393 H434 0.930 . S
C394 C392 1.358 . S
C394 N395 1.279 . S
C394 H435 0.930 . S
N395 C393 1.314 . S
N395 C394 1.279 . S
C396 C398 1.353 . S
C396 N399 1.314 . S
C396 H402 0.930 . S
C397 N399 1.279 . S
C397 C400 1.358 . S
C397 H403 0.930 . S
C398 C396 1.353 . S
C398 C401 1.348 . S
C398 H436 0.929 . S
N399 Li354 1.990 . S
N399 C396 1.314 . S
N399 C397 1.279 . S
C400 C397 1.358 . S
C400 C401 1.356 . S
C400 H437 0.930 . S
C401 C398 1.348 . S
C401 C400 1.356 . S
H402 C396 0.930 . S
H403 C397 0.930 . S
C404 N405 1.314 . S
C404 C406 1.353 . S
C404 H410 0.930 . S
N405 Li355 1.990 . S
N405 C404 1.314 . S
N405 C408 1.279 . S
C406 C404 1.353 . S
C406 C409 1.348 . S
C406 H438 0.929 . S
C407 C408 1.358 . S
C407 C409 1.356 . S
C407 H439 0.930 . S
C408 N405 1.279 . S
C408 C407 1.358 . S
C408 H411 0.930 . S
C409 C406 1.348 . S
C409 C407 1.356 . S
H410 C404 0.930 . S
H411 C408 0.930 . S
O412 Li352 1.956 . S
O412 Li353 1.970 . S
O412 Li354 1.961 . S
O412 C356 1.325 . S
O413 Li352 1.970 . S
O413 Li353 1.956 . S
O413 Li355 1.961 . S
O413 C362 1.325 . S
O414 Li352 1.961 . S
O414 Li354 1.956 . S
O414 Li355 1.970 . S
O414 C384 1.325 . S
O415 Li353 1.961 . S
O415 Li354 1.970 . S
O415 Li355 1.956 . S
O415 C390 1.325 . S
H416 C358 0.929 . S
H417 C359 0.930 . S
H418 C360 0.930 . S
H419 C361 0.930 . S
H420 C363 0.930 . S
H421 C365 0.929 . S
H422 C366 0.930 . S
H423 C367 0.930 . S
H424 C370 0.930 . S
H425 C373 0.929 . S
H426 C378 0.929 . S
H427 C379 0.930 . S
H428 C386 0.929 . S
H429 C387 0.930 . S
H430 C388 0.930 . S
H431 C389 0.930 . S
H432 C391 0.929 . S
H433 C392 0.930 . S
H434 C393 0.930 . S
H435 C394 0.930 . S
H436 C398 0.929 . S
H437 C400 0.930 . S
H438 C406 0.929 . S
H439 C407 0.930 . S
Li440 N457 1.990 . S
Li440 O500 1.956 . S
Li440 O501 1.970 . S
Li440 O502 1.961 . S
Li441 N465 1.990 . S
Li441 O500 1.970 . S
Li441 O501 1.956 . S
Li441 O503 1.961 . S
Li442 N487 1.990 . S
Li442 O500 1.961 . S
Li442 O502 1.956 . S
Li442 O503 1.970 . S
Li443 N493 1.990 . S
Li443 O501 1.961 . S
Li443 O502 1.970 . S
Li443 O503 1.956 . S
C444 C446 1.348 . S
C444 C447 1.356 . S
C444 O500 1.325 . S
N445 C448 1.314 . S
N445 C449 1.279 . S
C446 C444 1.348 . S
C446 C448 1.353 . S
C446 H504 0.929 . S
C447 C444 1.356 . S
C447 C449 1.358 . S
C447 H505 0.930 . S
C448 N445 1.314 . S
C448 C446 1.353 . S
C448 H506 0.930 . S
C449 N445 1.279 . S
C449 C447 1.358 . S
C449 H507 0.930 . S
C450 C453 1.348 . S
C450 C454 1.356 . S
C450 O501 1.325 . S
C451 N452 1.279 . S
C451 C454 1.358 . S
C451 H508 0.930 . S
N452 C451 1.279 . S
N452 C455 1.314 . S
C453 C450 1.348 . S
C453 C455 1.353 . S
C453 H509 0.929 . S
C454 C450 1.356 . S
C454 C451 1.358 . S
C454 H510 0.930 . S
C455 N452 1.314 . S
C455 C453 1.353 . S
C455 H511 0.930 . S
C456 N457 1.314 . S
C456 C461 1.353 . S
C456 H462 0.930 . S
N457 Li440 1.990 . S
N457 C456 1.314 . S
N457 C459 1.279 . S
C458 C459 1.358 . S
C458 C460 1.356 . S
C458 H512 0.930 . S
C459 N457 1.279 . S
C459 C458 1.358 . S
C459 H463 0.930 . S
C460 C458 1.356 . S
C460 C461 1.348 . S
C461 C456 1.353 . S
C461 C460 1.348 . S
C461 H513 0.929 . S
H462 C456 0.930 . S
H463 C459 0.930 . S
C464 N465 1.314 . S
C464 C466 1.353 . S
C464 H470 0.930 . S
N465 Li441 1.990 . S
N465 C464 1.314 . S
N465 C468 1.279 . S
C466 C464 1.353 . S
C466 C469 1.348 . S
C466 H514 0.929 . S
C467 C468 1.358 . S
C467 C469 1.356 . S
C467 H515 0.930 . S
C468 N465 1.279 . S
C468 C467 1.358 . S
C468 H471 0.930 . S
C469 C466 1.348 . S
C469 C467 1.356 . S
H470 C464 0.930 . S
H471 C468 0.930 . S
C472 C474 1.348 . S
C472 C475 1.356 . S
C472 O502 1.325 . S
N473 C476 1.314 . S
N473 C477 1.279 . S
C474 C472 1.348 . S
C474 C476 1.353 . S
C474 H516 0.929 . S
C475 C472 1.356 . S
C475 C477 1.358 . S
C475 H517 0.930 . S
C476 N473 1.314 . S
C476 C474 1.353 . S
C476 H518 0.930 . S
C477 N473 1.279 . S
C477 C475 1.358 . S
C477 H519 0.930 . S
C478 C479 1.348 1_556 S
C478 C480 1.356 . S
C478 O503 1.325 . S
C479 C478 1.348 1_554 S
C479 C481 1.353 . S
C479 H520 0.929 . S
C480 C478 1.356 . S
C480 C482 1.358 1_556 S
C480 H521 0.930 . S
C481 C479 1.353 . S
C481 N483 1.314 . S
C481 H522 0.930 . S
C482 C480 1.358 1_554 S
C482 N483 1.279 . S
C482 H523 0.930 . S
N483 C481 1.314 . S
N483 C482 1.279 . S
C484 C486 1.353 . S
C484 N487 1.314 1_554 S
C484 H490 0.930 . S
C485 N487 1.279 . S
C485 C488 1.358 1_556 S
C485 H491 0.930 . S
C486 C484 1.353 . S
C486 C489 1.348 . S
C486 H524 0.929 . S
N487 Li442 1.990 . S
N487 C484 1.314 1_556 S
N487 C485 1.279 . S
C488 C485 1.358 1_554 S
C488 C489 1.356 . S
C488 H525 0.930 . S
C489 C486 1.348 . S
C489 C488 1.356 . S
H490 C484 0.930 . S
H491 C485 0.930 . S
C492 N493 1.314 . S
C492 C494 1.353 . S
C492 H498 0.930 . S
N493 Li443 1.990 . S
N493 C492 1.314 . S
N493 C496 1.279 . S
C494 C492 1.353 . S
C494 C497 1.348 . S
C494 H526 0.929 . S
C495 C496 1.358 . S
C495 C497 1.356 . S
C495 H527 0.930 . S
C496 N493 1.279 . S
C496 C495 1.358 . S
C496 H499 0.930 . S
C497 C494 1.348 . S
C497 C495 1.356 . S
H498 C492 0.930 . S
H499 C496 0.930 . S
O500 Li440 1.956 . S
O500 Li441 1.970 . S
O500 Li442 1.961 . S
O500 C444 1.325 . S
O501 Li440 1.970 . S
O501 Li441 1.956 . S
O501 Li443 1.961 . S
O501 C450 1.325 . S
O502 Li440 1.961 . S
O502 Li442 1.956 . S
O502 Li443 1.970 . S
O502 C472 1.325 . S
O503 Li441 1.961 . S
O503 Li442 1.970 . S
O503 Li443 1.956 . S
O503 C478 1.325 . S
H504 C446 0.929 . S
H505 C447 0.930 . S
H506 C448 0.930 . S
H507 C449 0.930 . S
H508 C451 0.930 . S
H509 C453 0.929 . S
H510 C454 0.930 . S
H511 C455 0.930 . S
H512 C458 0.930 . S
H513 C461 0.929 . S
H514 C466 0.929 . S
H515 C467 0.930 . S
H516 C474 0.929 . S
H517 C475 0.930 . S
H518 C476 0.930 . S
H519 C477 0.930 . S
H520 C479 0.929 . S
H521 C480 0.930 . S
H522 C481 0.930 . S
H523 C482 0.930 . S
H524 C486 0.929 . S
H525 C488 0.930 . S
H526 C494 0.929 . S
H527 C495 0.930 . S
Li528 N545 1.990 . S
Li528 O588 1.956 . S
Li528 O589 1.970 . S
Li528 O590 1.961 . S
Li529 N553 1.990 . S
Li529 O588 1.970 . S
Li529 O589 1.956 . S
Li529 O591 1.961 . S
Li530 N575 1.990 . S
Li530 O588 1.961 . S
Li530 O590 1.956 . S
Li530 O591 1.970 . S
Li531 N581 1.990 . S
Li531 O589 1.961 . S
Li531 O590 1.970 . S
Li531 O591 1.956 . S
C532 C534 1.348 . S
C532 C535 1.356 . S
C532 O588 1.325 . S
N533 C536 1.314 . S
N533 C537 1.279 1_554 S
C534 C532 1.348 . S
C534 C536 1.353 1_556 S
C534 H592 0.933 . S
C535 C532 1.356 . S
C535 C537 1.358 . S
C535 H593 0.930 . S
C536 N533 1.314 . S
C536 C534 1.353 1_554 S
C536 H594 0.930 . S
C537 N533 1.279 1_556 S
C537 C535 1.358 . S
C537 H595 0.930 . S
C538 C541 1.348 . S
C538 C542 1.356 . S
C538 O589 1.325 . S
C539 N540 1.279 . S
C539 C542 1.358 . S
C539 H596 0.930 . S
N540 C539 1.279 . S
N540 C543 1.314 . S
C541 C538 1.348 . S
C541 C543 1.353 . S
C541 H597 0.929 . S
C542 C538 1.356 . S
C542 C539 1.358 . S
C542 H598 0.930 . S
C543 N540 1.314 . S
C543 C541 1.353 . S
C543 H599 0.930 . S
C544 N545 1.314 . S
C544 C549 1.353 . S
C544 H550 0.930 . S
N545 Li528 1.990 . S
N545 C544 1.314 . S
N545 C547 1.279 . S
C546 C547 1.358 . S
C546 C548 1.356 . S
C546 H600 0.930 . S
C547 N545 1.279 . S
C547 C546 1.358 . S
C547 H551 0.930 . S
C548 C546 1.356 . S
C548 C549 1.348 . S
C549 C544 1.353 . S
C549 C548 1.348 . S
C549 H601 0.929 . S
H550 C544 0.930 . S
H551 C547 0.930 . S
C552 N553 1.310 1_554 S
C552 C554 1.359 . S
C552 H558 0.928 1_554 S
N553 Li529 1.990 . S
N553 C552 1.310 1_556 S
N553 C556 1.279 . S
C554 C552 1.359 . S
C554 C557 1.348 . S
C554 H602 0.929 . S
C555 C556 1.358 1_554 S
C555 C557 1.356 . S
C555 H603 0.930 . S
C556 N553 1.279 . S
C556 C555 1.358 1_556 S
C556 H559 0.930 . S
C557 C554 1.348 . S
C557 C555 1.356 . S
H558 C552 0.928 1_556 S
H559 C556 0.930 . S
C560 C562 1.348 . S
C560 C563 1.356 . S
C560 O590 1.325 . S
N561 C564 1.314 . S
N561 C565 1.279 . S
C562 C560 1.348 . S
C562 C564 1.353 . S
C562 H604 0.929 . S
C563 C560 1.356 . S
C563 C565 1.358 . S
C563 H605 0.930 . S
C564 N561 1.314 . S
C564 C562 1.353 . S
C564 H606 0.930 . S
C565 N561 1.279 . S
C565 C563 1.358 . S
C565 H607 0.930 . S
C566 C567 1.348 . S
C566 C568 1.356 . S
C566 O591 1.325 . S
C567 C566 1.348 . S
C567 C569 1.353 . S
C567 H608 0.929 . S
C568 C566 1.356 . S
C568 C570 1.358 . S
C568 H609 0.930 . S
C569 C567 1.353 . S
C569 N571 1.314 . S
C569 H610 0.930 . S
C570 C568 1.358 . S
C570 N571 1.279 . S
C570 H611 0.930 . S
N571 C569 1.314 . S
N571 C570 1.279 . S
C572 C574 1.353 . S
C572 N575 1.314 . S
C572 H578 0.930 . S
C573 N575 1.279 . S
C573 C576 1.358 . S
C573 H579 0.930 . S
C574 C572 1.353 . S
C574 C577 1.348 . S
C574 H612 0.929 . S
N575 Li530 1.990 . S
N575 C572 1.314 . S
N575 C573 1.279 . S
C576 C573 1.358 . S
C576 C577 1.356 . S
C576 H613 0.930 . S
C577 C574 1.348 . S
C577 C576 1.356 . S
H578 C572 0.930 . S
H579 C573 0.930 . S
C580 N581 1.314 . S
C580 C582 1.353 . S
C580 H586 0.930 . S
N581 Li531 1.990 . S
N581 C580 1.314 . S
N581 C584 1.279 . S
C582 C580 1.353 . S
C582 C585 1.348 . S
C582 H614 0.929 . S
C583 C584 1.358 . S
C583 C585 1.356 . S
C583 H615 0.930 . S
C584 N581 1.279 . S
C584 C583 1.358 . S
C584 H587 0.930 . S
C585 C582 1.348 . S
C585 C583 1.356 . S
H586 C580 0.930 . S
H587 C584 0.930 . S
O588 Li528 1.956 . S
O588 Li529 1.970 . S
O588 Li530 1.961 . S
O588 C532 1.325 . S
O589 Li528 1.970 . S
O589 Li529 1.956 . S
O589 Li531 1.961 . S
O589 C538 1.325 . S
O590 Li528 1.961 . S
O590 Li530 1.956 . S
O590 Li531 1.970 . S
O590 C560 1.325 . S
O591 Li529 1.961 . S
O591 Li530 1.970 . S
O591 Li531 1.956 . S
O591 C566 1.325 . S
H592 C534 0.933 . S
H593 C535 0.930 . S
H594 C536 0.930 . S
H595 C537 0.930 . S
H596 C539 0.930 . S
H597 C541 0.929 . S
H598 C542 0.930 . S
H599 C543 0.930 . S
H600 C546 0.930 . S
H601 C549 0.929 . S
H602 C554 0.929 . S
H603 C555 0.930 . S
H604 C562 0.929 . S
H605 C563 0.930 . S
H606 C564 0.930 . S
H607 C565 0.930 . S
H608 C567 0.929 . S
H609 C568 0.930 . S
H610 C569 0.930 . S
H611 C570 0.930 . S
H612 C574 0.929 . S
H613 C576 0.930 . S
H614 C582 0.929 . S
H615 C583 0.930 . S
Li616 N633 1.990 . S
Li616 O676 1.956 . S
Li616 O677 1.970 . S
Li616 O678 1.961 . S
Li617 N641 1.990 . S
Li617 O676 1.970 . S
Li617 O677 1.956 . S
Li617 O679 1.961 . S
Li618 N663 1.990 . S
Li618 O676 1.961 . S
Li618 O678 1.956 . S
Li618 O679 1.970 . S
Li619 N669 1.990 1_554 S
Li619 O677 1.961 . S
Li619 O678 1.970 . S
Li619 O679 1.956 . S
C620 C622 1.348 . S
C620 C623 1.356 . S
C620 O676 1.325 . S
N621 C624 1.314 . S
N621 C625 1.279 . S
C622 C620 1.348 . S
C622 C624 1.353 . S
C622 H680 0.929 . S
C623 C620 1.356 . S
C623 C625 1.358 . S
C623 H681 0.930 . S
C624 N621 1.314 . S
C624 C622 1.353 . S
C624 H682 0.930 . S
C625 N621 1.279 . S
C625 C623 1.358 . S
C625 H683 0.930 . S
C626 C629 1.348 . S
C626 C630 1.356 . S
C626 O677 1.325 . S
C627 N628 1.279 . S
C627 C630 1.358 . S
C627 H684 0.930 . S
N628 C627 1.279 . S
N628 C631 1.314 . S
C629 C626 1.348 . S
C629 C631 1.353 . S
C629 H685 0.929 . S
C630 C626 1.356 . S
C630 C627 1.358 . S
C630 H686 0.930 . S
C631 N628 1.314 . S
C631 C629 1.353 . S
C631 H687 0.930 . S
C632 N633 1.314 . S
C632 C637 1.353 . S
C632 H638 0.930 . S
N633 Li616 1.990 . S
N633 C632 1.314 . S
N633 C635 1.279 . S
C634 C635 1.358 . S
C634 C636 1.356 . S
C634 H688 0.930 . S
C635 N633 1.279 . S
C635 C634 1.358 . S
C635 H639 0.930 . S
C636 C634 1.356 . S
C636 C637 1.348 . S
C637 C632 1.353 . S
C637 C636 1.348 . S
C637 H689 0.929 1_554 S
H638 C632 0.930 . S
H639 C635 0.930 . S
C640 N641 1.314 . S
C640 C642 1.353 . S
C640 H646 0.930 . S
N641 Li617 1.990 . S
N641 C640 1.314 . S
N641 C644 1.279 . S
C642 C640 1.353 . S
C642 C645 1.348 . S
C642 H690 0.929 . S
C643 C644 1.358 . S
C643 C645 1.356 . S
C643 H691 0.930 . S
C644 N641 1.279 . S
C644 C643 1.358 . S
C644 H647 0.930 . S
C645 C642 1.348 . S
C645 C643 1.356 . S
H646 C640 0.930 . S
H647 C644 0.930 . S
C648 C650 1.348 . S
C648 C651 1.356 . S
C648 O678 1.325 1_556 S
N649 C652 1.314 . S
N649 C653 1.279 . S
C650 C648 1.348 . S
C650 C652 1.353 . S
C650 H692 0.929 . S
C651 C648 1.356 . S
C651 C653 1.358 . S
C651 H693 0.930 1_556 S
C652 N649 1.314 . S
C652 C650 1.353 . S
C652 H694 0.930 . S
C653 N649 1.279 . S
C653 C651 1.358 . S
C653 H695 0.930 . S
C654 C655 1.348 . S
C654 C656 1.356 . S
C654 O679 1.325 . S
C655 C654 1.348 . S
C655 C657 1.353 . S
C655 H696 0.929 . S
C656 C654 1.356 . S
C656 C658 1.358 . S
C656 H697 0.930 . S
C657 C655 1.353 . S
C657 N659 1.314 . S
C657 H698 0.930 . S
C658 C656 1.358 . S
C658 N659 1.279 . S
C658 H699 0.930 . S
N659 C657 1.314 . S
N659 C658 1.279 . S
C660 C662 1.353 . S
C660 N663 1.314 . S
C660 H666 0.930 . S
C661 N663 1.279 . S
C661 C664 1.358 . S
C661 H667 0.930 . S
C662 C660 1.353 . S
C662 C665 1.348 . S
C662 H700 0.929 . S
N663 Li618 1.990 . S
N663 C660 1.314 . S
N663 C661 1.279 . S
C664 C661 1.358 . S
C664 C665 1.356 . S
C664 H701 0.930 . S
C665 C662 1.348 . S
C665 C664 1.356 . S
H666 C660 0.930 . S
H667 C661 0.930 . S
C668 N669 1.314 . S
C668 C670 1.353 . S
C668 H674 0.930 . S
N669 Li619 1.990 1_556 S
N669 C668 1.314 . S
N669 C672 1.279 . S
C670 C668 1.353 . S
C670 C673 1.348 . S
C670 H702 0.929 . S
C671 C672 1.358 . S
C671 C673 1.356 . S
C671 H703 0.930 . S
C672 N669 1.279 . S
C672 C671 1.358 . S
C672 H675 0.930 . S
C673 C670 1.348 . S
C673 C671 1.356 . S
H674 C668 0.930 . S
H675 C672 0.930 . S
O676 Li616 1.956 . S
O676 Li617 1.970 . S
O676 Li618 1.961 . S
O676 C620 1.325 . S
O677 Li616 1.970 . S
O677 Li617 1.956 . S
O677 Li619 1.961 . S
O677 C626 1.325 . S
O678 Li616 1.961 . S
O678 Li618 1.956 . S
O678 Li619 1.970 . S
O678 C648 1.325 1_554 S
O679 Li617 1.961 . S
O679 Li618 1.970 . S
O679 Li619 1.956 . S
O679 C654 1.325 . S
H680 C622 0.929 . S
H681 C623 0.930 . S
H682 C624 0.930 . S
H683 C625 0.930 . S
H684 C627 0.930 . S
H685 C629 0.929 . S
H686 C630 0.930 . S
H687 C631 0.930 . S
H688 C634 0.930 . S
H689 C637 0.929 1_556 S
H690 C642 0.929 . S
H691 C643 0.930 . S
H692 C650 0.929 . S
H693 C651 0.930 1_554 S
H694 C652 0.930 . S
H695 C653 0.930 . S
H696 C655 0.929 . S
H697 C656 0.930 . S
H698 C657 0.930 . S
H699 C658 0.930 . S
H700 C662 0.929 . S
H701 C664 0.930 . S
H702 C670 0.929 . S
H703 C671 0.930 . S
Li704 N721 1.990 . S
Li704 O764 1.956 . S
Li704 O765 1.970 . S
Li704 O766 1.961 . S
Li705 N729 1.990 . S
Li705 O764 1.970 . S
Li705 O765 1.956 . S
Li705 O767 1.961 . S
Li706 N751 1.990 . S
Li706 O764 1.961 . S
Li706 O766 1.956 . S
Li706 O767 1.970 . S
Li707 N757 1.990 . S
Li707 O765 1.961 . S
Li707 O766 1.970 . S
Li707 O767 1.956 . S
C708 C710 1.348 . S
C708 C711 1.356 . S
C708 O764 1.325 . S
N709 C712 1.314 . S
N709 C713 1.279 . S
C710 C708 1.348 . S
C710 C712 1.353 . S
C710 H768 0.929 . S
C711 C708 1.356 . S
C711 C713 1.358 . S
C711 H769 0.930 . S
C712 N709 1.314 . S
C712 C710 1.353 . S
C712 H770 0.930 . S
C713 N709 1.279 . S
C713 C711 1.358 . S
C713 H771 0.930 . S
C714 C717 1.348 . S
C714 C718 1.356 . S
C714 O765 1.325 . S
C715 N716 1.279 . S
C715 C718 1.358 . S
C715 H772 0.930 . S
N716 C715 1.279 . S
N716 C719 1.314 . S
C717 C714 1.348 . S
C717 C719 1.353 . S
C717 H773 0.929 . S
C718 C714 1.356 . S
C718 C715 1.358 . S
C718 H774 0.930 . S
C719 N716 1.314 . S
C719 C717 1.353 . S
C719 H775 0.930 . S
C720 N721 1.314 . S
C720 C725 1.353 . S
C720 H726 0.930 . S
N721 Li704 1.990 . S
N721 C720 1.314 . S
N721 C723 1.279 . S
C722 C723 1.358 . S
C722 C724 1.356 . S
C722 H776 0.930 . S
C723 N721 1.279 . S
C723 C722 1.358 . S
C723 H727 0.930 . S
C724 C722 1.356 . S
C724 C725 1.348 . S
C725 C720 1.353 . S
C725 C724 1.348 . S
C725 H777 0.929 . S
H726 C720 0.930 . S
H727 C723 0.930 . S
C728 N729 1.314 . S
C728 C730 1.353 . S
C728 H734 0.930 . S
N729 Li705 1.990 . S
N729 C728 1.314 . S
N729 C732 1.279 . S
C730 C728 1.353 . S
C730 C733 1.348 . S
C730 H778 0.929 . S
C731 C732 1.358 . S
C731 C733 1.356 . S
C731 H779 0.930 . S
C732 N729 1.279 . S
C732 C731 1.358 . S
C732 H735 0.930 . S
C733 C730 1.348 . S
C733 C731 1.356 . S
H734 C728 0.930 . S
H735 C732 0.930 . S
C736 C738 1.348 . S
C736 C739 1.356 . S
C736 O766 1.325 . S
N737 C740 1.314 . S
N737 C741 1.279 . S
C738 C736 1.348 . S
C738 C740 1.353 . S
C738 H780 0.929 . S
C739 C736 1.356 . S
C739 C741 1.358 . S
C739 H781 0.930 . S
C740 N737 1.314 . S
C740 C738 1.353 . S
C740 H782 0.930 . S
C741 N737 1.279 . S
C741 C739 1.358 . S
C741 H783 0.930 . S
C742 C743 1.348 . S
C742 C744 1.356 . S
C742 O767 1.325 . S
C743 C742 1.348 . S
C743 C745 1.353 . S
C743 H784 0.929 . S
C744 C742 1.356 . S
C744 C746 1.358 . S
C744 H785 0.930 . S
C745 C743 1.353 . S
C745 N747 1.314 . S
C745 H786 0.930 . S
C746 C744 1.358 . S
C746 N747 1.279 . S
C746 H787 0.930 . S
N747 C745 1.314 . S
N747 C746 1.279 . S
C748 C750 1.353 . S
C748 N751 1.314 . S
C748 H754 0.930 . S
C749 N751 1.279 . S
C749 C752 1.358 . S
C749 H755 0.930 . S
C750 C748 1.353 . S
C750 C753 1.348 . S
C750 H788 0.929 . S
N751 Li706 1.990 . S
N751 C748 1.314 . S
N751 C749 1.279 . S
C752 C749 1.358 . S
C752 C753 1.356 . S
C752 H789 0.930 . S
C753 C750 1.348 . S
C753 C752 1.356 . S
H754 C748 0.930 . S
H755 C749 0.930 . S
C756 N757 1.314 . S
C756 C758 1.353 . S
C756 H762 0.930 . S
N757 Li707 1.990 . S
N757 C756 1.314 . S
N757 C760 1.279 . S
C758 C756 1.353 . S
C758 C761 1.348 . S
C758 H790 0.929 . S
C759 C760 1.358 . S
C759 C761 1.356 . S
C759 H791 0.930 . S
C760 N757 1.279 . S
C760 C759 1.358 . S
C760 H763 0.930 . S
C761 C758 1.348 . S
C761 C759 1.356 . S
H762 C756 0.930 . S
H763 C760 0.930 . S
O764 Li704 1.956 . S
O764 Li705 1.970 . S
O764 Li706 1.961 . S
O764 C708 1.325 . S
O765 Li704 1.970 . S
O765 Li705 1.956 . S
O765 Li707 1.961 . S
O765 C714 1.325 . S
O766 Li704 1.961 . S
O766 Li706 1.956 . S
O766 Li707 1.970 . S
O766 C736 1.325 . S
O767 Li705 1.961 . S
O767 Li706 1.970 . S
O767 Li707 1.956 . S
O767 C742 1.325 . S
H768 C710 0.929 . S
H769 C711 0.930 . S
H770 C712 0.930 . S
H771 C713 0.930 . S
H772 C715 0.930 . S
H773 C717 0.929 . S
H774 C718 0.930 . S
H775 C719 0.930 . S
H776 C722 0.930 . S
H777 C725 0.929 . S
H778 C730 0.929 . S
H779 C731 0.930 . S
H780 C738 0.929 . S
H781 C739 0.930 . S
H782 C740 0.930 . S
H783 C741 0.930 . S
H784 C743 0.929 . S
H785 C744 0.930 . S
H786 C745 0.930 . S
H787 C746 0.930 . S
H788 C750 0.929 . S
H789 C752 0.930 . S
H790 C758 0.929 . S
H791 C759 0.930 . S
Li792 N809 1.990 . S
Li792 O852 1.956 . S
Li792 O853 1.970 . S
Li792 O854 1.961 . S
Li793 N817 1.990 . S
Li793 O852 1.970 . S
Li793 O853 1.956 . S
Li793 O855 1.961 . S
Li794 N839 1.990 . S
Li794 O852 1.961 . S
Li794 O854 1.956 . S
Li794 O855 1.970 . S
Li795 N845 1.990 . S
Li795 O853 1.961 . S
Li795 O854 1.970 . S
Li795 O855 1.956 . S
C796 C798 1.348 . S
C796 C799 1.356 . S
C796 O852 1.325 . S
N797 C800 1.314 . S
N797 C801 1.279 . S
C798 C796 1.348 . S
C798 C800 1.353 . S
C798 H856 0.929 . S
C799 C796 1.356 . S
C799 C801 1.358 . S
C799 H857 0.930 . S
C800 N797 1.314 . S
C800 C798 1.353 . S
C800 H858 0.930 . S
C801 N797 1.279 . S
C801 C799 1.358 . S
C801 H859 0.930 . S
C802 C805 1.348 . S
C802 C806 1.356 . S
C802 O853 1.325 . S
C803 N804 1.279 . S
C803 C806 1.358 . S
C803 H860 0.930 . S
N804 C803 1.279 . S
N804 C807 1.314 . S
C805 C802 1.348 . S
C805 C807 1.353 . S
C805 H861 0.929 . S
C806 C802 1.356 . S
C806 C803 1.358 . S
C806 H862 0.930 . S
C807 N804 1.314 . S
C807 C805 1.353 . S
C807 H863 0.930 . S
C808 N809 1.314 . S
C808 C813 1.353 . S
C808 H814 0.930 . S
N809 Li792 1.990 . S
N809 C808 1.314 . S
N809 C811 1.279 . S
C810 C811 1.358 . S
C810 C812 1.356 . S
C810 H864 0.930 . S
C811 N809 1.279 . S
C811 C810 1.358 . S
C811 H815 0.930 . S
C812 C810 1.356 . S
C812 C813 1.348 . S
C813 C808 1.353 . S
C813 C812 1.348 . S
C813 H865 0.929 . S
H814 C808 0.930 . S
H815 C811 0.930 . S
C816 N817 1.314 . S
C816 C818 1.353 . S
C816 H822 0.930 . S
N817 Li793 1.990 . S
N817 C816 1.314 . S
N817 C820 1.279 . S
C818 C816 1.353 . S
C818 C821 1.348 . S
C818 H866 0.929 . S
C819 C820 1.358 . S
C819 C821 1.356 . S
C819 H867 0.930 . S
C820 N817 1.279 . S
C820 C819 1.358 . S
C820 H823 0.930 . S
C821 C818 1.348 . S
C821 C819 1.356 . S
H822 C816 0.930 . S
H823 C820 0.930 . S
C824 C826 1.348 . S
C824 C827 1.356 . S
C824 O854 1.325 . S
N825 C828 1.314 . S
N825 C829 1.279 . S
C826 C824 1.348 . S
C826 C828 1.353 . S
C826 H868 0.929 . S
C827 C824 1.356 . S
C827 C829 1.358 . S
C827 H869 0.930 . S
C828 N825 1.314 . S
C828 C826 1.353 . S
C828 H870 0.930 . S
C829 N825 1.279 . S
C829 C827 1.358 . S
C829 H871 0.930 . S
C830 C831 1.348 . S
C830 C832 1.356 . S
C830 O855 1.325 . S
C831 C830 1.348 . S
C831 C833 1.353 . S
C831 H872 0.929 . S
C832 C830 1.356 . S
C832 C834 1.358 . S
C832 H873 0.930 . S
C833 C831 1.353 . S
C833 N835 1.314 . S
C833 H874 0.930 . S
C834 C832 1.358 . S
C834 N835 1.279 . S
C834 H875 0.930 . S
N835 C833 1.314 . S
N835 C834 1.279 . S
C836 C838 1.353 . S
C836 N839 1.314 . S
C836 H842 0.930 . S
C837 N839 1.279 . S
C837 C840 1.358 . S
C837 H843 0.930 . S
C838 C836 1.353 . S
C838 C841 1.348 . S
C838 H876 0.929 . S
N839 Li794 1.990 . S
N839 C836 1.314 . S
N839 C837 1.279 . S
C840 C837 1.358 . S
C840 C841 1.356 . S
C840 H877 0.930 . S
C841 C838 1.348 . S
C841 C840 1.356 . S
H842 C836 0.930 . S
H843 C837 0.930 . S
C844 N845 1.314 . S
C844 C846 1.353 . S
C844 H850 0.930 . S
N845 Li795 1.990 . S
N845 C844 1.314 . S
N845 C848 1.279 . S
C846 C844 1.353 . S
C846 C849 1.348 . S
C846 H878 0.929 . S
C847 C848 1.358 . S
C847 C849 1.356 . S
C847 H879 0.930 . S
C848 N845 1.279 . S
C848 C847 1.358 . S
C848 H851 0.930 . S
C849 C846 1.348 . S
C849 C847 1.356 . S
H850 C844 0.930 . S
H851 C848 0.930 . S
O852 Li792 1.956 . S
O852 Li793 1.970 . S
O852 Li794 1.961 . S
O852 C796 1.325 . S
O853 Li792 1.970 . S
O853 Li793 1.956 . S
O853 Li795 1.961 . S
O853 C802 1.325 . S
O854 Li792 1.961 . S
O854 Li794 1.956 . S
O854 Li795 1.970 . S
O854 C824 1.325 . S
O855 Li793 1.961 . S
O855 Li794 1.970 . S
O855 Li795 1.956 . S
O855 C830 1.325 . S
H856 C798 0.929 . S
H857 C799 0.930 . S
H858 C800 0.930 . S
H859 C801 0.930 . S
H860 C803 0.930 . S
H861 C805 0.929 . S
H862 C806 0.930 . S
H863 C807 0.930 . S
H864 C810 0.930 . S
H865 C813 0.929 . S
H866 C818 0.929 . S
H867 C819 0.930 . S
H868 C826 0.929 . S
H869 C827 0.930 . S
H870 C828 0.930 . S
H871 C829 0.930 . S
H872 C831 0.929 . S
H873 C832 0.930 . S
H874 C833 0.930 . S
H875 C834 0.930 . S
H876 C838 0.929 . S
H877 C840 0.930 . S
H878 C846 0.929 . S
H879 C847 0.930 . S
Li880 N897 1.990 . S
Li880 O940 1.956 . S
Li880 O941 1.970 . S
Li880 O942 1.961 . S
Li881 N905 1.990 . S
Li881 O940 1.970 . S
Li881 O941 1.956 . S
Li881 O943 1.961 . S
Li882 N927 1.990 . S
Li882 O940 1.961 . S
Li882 O942 1.956 . S
Li882 O943 1.970 . S
Li883 N933 1.990 . S
Li883 O941 1.961 . S
Li883 O942 1.970 . S
Li883 O943 1.956 . S
C884 C886 1.348 . S
C884 C887 1.356 . S
C884 O940 1.325 . S
N885 C888 1.314 . S
N885 C889 1.279 . S
C886 C884 1.348 . S
C886 C888 1.353 . S
C886 H944 0.929 . S
C887 C884 1.356 . S
C887 C889 1.358 . S
C887 H945 0.930 . S
C888 N885 1.314 . S
C888 C886 1.353 . S
C888 H946 0.930 . S
C889 N885 1.279 . S
C889 C887 1.358 . S
C889 H947 0.930 . S
C890 C893 1.348 . S
C890 C894 1.356 . S
C890 O941 1.325 . S
C891 N892 1.279 . S
C891 C894 1.358 . S
C891 H948 0.930 . S
N892 C891 1.279 . S
N892 C895 1.314 . S
C893 C890 1.348 . S
C893 C895 1.353 . S
C893 H949 0.929 . S
C894 C890 1.356 . S
C894 C891 1.358 . S
C894 H950 0.930 . S
C895 N892 1.314 . S
C895 C893 1.353 . S
C895 H951 0.930 . S
C896 N897 1.314 . S
C896 C901 1.353 . S
C896 H902 0.930 . S
N897 Li880 1.990 . S
N897 C896 1.314 . S
N897 C899 1.279 . S
C898 C899 1.358 . S
C898 C900 1.356 . S
C898 H952 0.930 . S
C899 N897 1.279 . S
C899 C898 1.358 . S
C899 H903 0.930 . S
C900 C898 1.356 . S
C900 C901 1.348 . S
C901 C896 1.353 . S
C901 C900 1.348 . S
C901 H953 0.929 . S
H902 C896 0.930 . S
H903 C899 0.930 . S
C904 N905 1.314 . S
C904 C906 1.353 . S
C904 H910 0.930 . S
N905 Li881 1.990 . S
N905 C904 1.314 . S
N905 C908 1.279 . S
C906 C904 1.353 . S
C906 C909 1.348 . S
C906 H954 0.929 . S
C907 C908 1.358 . S
C907 C909 1.356 . S
C907 H955 0.930 . S
C908 N905 1.279 . S
C908 C907 1.358 . S
C908 H911 0.930 . S
C909 C906 1.348 . S
C909 C907 1.356 . S
H910 C904 0.930 . S
H911 C908 0.930 . S
C912 C914 1.348 . S
C912 C915 1.356 . S
C912 O942 1.325 . S
N913 C916 1.314 . S
N913 C917 1.279 . S
C914 C912 1.348 . S
C914 C916 1.353 . S
C914 H956 0.929 . S
C915 C912 1.356 . S
C915 C917 1.358 . S
C915 H957 0.930 . S
C916 N913 1.314 . S
C916 C914 1.353 . S
C916 H958 0.930 . S
C917 N913 1.279 . S
C917 C915 1.358 . S
C917 H959 0.930 . S
C918 C919 1.348 . S
C918 C920 1.356 . S
C918 O943 1.325 . S
C919 C918 1.348 . S
C919 C921 1.353 . S
C919 H960 0.929 . S
C920 C918 1.356 . S
C920 C922 1.358 . S
C920 H961 0.930 . S
C921 C919 1.353 . S
C921 N923 1.314 . S
C921 H962 0.930 . S
C922 C920 1.358 . S
C922 N923 1.279 . S
C922 H963 0.930 . S
N923 C921 1.314 . S
N923 C922 1.279 . S
C924 C926 1.353 . S
C924 N927 1.314 . S
C924 H930 0.930 . S
C925 N927 1.279 . S
C925 C928 1.358 . S
C925 H931 0.930 . S
C926 C924 1.353 . S
C926 C929 1.348 . S
C926 H964 0.929 . S
N927 Li882 1.990 . S
N927 C924 1.314 . S
N927 C925 1.279 . S
C928 C925 1.358 . S
C928 C929 1.356 . S
C928 H965 0.930 . S
C929 C926 1.348 . S
C929 C928 1.356 . S
H930 C924 0.930 . S
H931 C925 0.930 . S
C932 N933 1.314 . S
C932 C934 1.353 . S
C932 H938 0.930 . S
N933 Li883 1.990 . S
N933 C932 1.314 . S
N933 C936 1.279 . S
C934 C932 1.353 . S
C934 C937 1.348 . S
C934 H966 0.929 . S
C935 C936 1.358 . S
C935 C937 1.356 . S
C935 H967 0.930 . S
C936 N933 1.279 . S
C936 C935 1.358 . S
C936 H939 0.930 . S
C937 C934 1.348 . S
C937 C935 1.356 . S
H938 C932 0.930 . S
H939 C936 0.930 . S
O940 Li880 1.956 . S
O940 Li881 1.970 . S
O940 Li882 1.961 . S
O940 C884 1.325 . S
O941 Li880 1.970 . S
O941 Li881 1.956 . S
O941 Li883 1.961 . S
O941 C890 1.325 . S
O942 Li880 1.961 . S
O942 Li882 1.956 . S
O942 Li883 1.970 . S
O942 C912 1.325 . S
O943 Li881 1.961 . S
O943 Li882 1.970 . S
O943 Li883 1.956 . S
O943 C918 1.325 . S
H944 C886 0.929 . S
H945 C887 0.930 . S
H946 C888 0.930 . S
H947 C889 0.930 . S
H948 C891 0.930 . S
H949 C893 0.929 . S
H950 C894 0.930 . S
H951 C895 0.930 . S
H952 C898 0.930 . S
H953 C901 0.929 . S
H954 C906 0.929 . S
H955 C907 0.930 . S
H956 C914 0.929 . S
H957 C915 0.930 . S
H958 C916 0.930 . S
H959 C917 0.930 . S
H960 C919 0.929 . S
H961 C920 0.930 . S
H962 C921 0.930 . S
H963 C922 0.930 . S
H964 C926 0.929 . S
H965 C928 0.930 . S
H966 C934 0.929 . S
H967 C935 0.930 . S
Li968 N985 1.990 . S
Li968 O1028 1.956 . S
Li968 O1029 1.970 . S
Li968 O1030 1.961 . S
Li969 N993 1.990 . S
Li969 O1028 1.970 . S
Li969 O1029 1.956 . S
Li969 O1031 1.961 . S
Li970 N1015 1.990 . S
Li970 O1028 1.961 . S
Li970 O1030 1.956 . S
Li970 O1031 1.970 . S
Li971 N1021 1.990 . S
Li971 O1029 1.961 . S
Li971 O1030 1.970 . S
Li971 O1031 1.956 . S
C972 C974 1.348 . S
C972 C975 1.356 . S
C972 O1028 1.325 . S
N973 C976 1.314 . S
N973 C977 1.279 . S
C974 C972 1.348 . S
C974 C976 1.353 . S
C974 H1032 0.929 . S
C975 C972 1.356 . S
C975 C977 1.358 . S
C975 H1033 0.930 . S
C976 N973 1.314 . S
C976 C974 1.353 . S
C976 H1034 0.930 . S
C977 N973 1.279 . S
C977 C975 1.358 . S
C977 H1035 0.930 . S
C978 C981 1.348 . S
C978 C982 1.356 . S
C978 O1029 1.325 . S
C979 N980 1.279 . S
C979 C982 1.358 . S
C979 H1036 0.930 . S
N980 C979 1.279 . S
N980 C983 1.314 . S
C981 C978 1.348 . S
C981 C983 1.353 . S
C981 H1037 0.929 . S
C982 C978 1.356 . S
C982 C979 1.358 . S
C982 H1038 0.930 . S
C983 N980 1.314 . S
C983 C981 1.353 . S
C983 H1039 0.930 . S
C984 N985 1.314 . S
C984 C989 1.353 . S
C984 H990 0.930 . S
N985 Li968 1.990 . S
N985 C984 1.314 . S
N985 C987 1.279 . S
C986 C987 1.358 . S
C986 C988 1.356 . S
C986 H1040 0.930 . S
C987 N985 1.279 . S
C987 C986 1.358 . S
C987 H991 0.930 . S
C988 C986 1.356 . S
C988 C989 1.348 . S
C989 C984 1.353 . S
C989 C988 1.348 . S
C989 H1041 0.929 . S
H990 C984 0.930 . S
H991 C987 0.930 . S
C992 N993 1.314 . S
C992 C994 1.353 . S
C992 H998 0.930 . S
N993 Li969 1.990 . S
N993 C992 1.314 . S
N993 C996 1.279 . S
C994 C992 1.353 . S
C994 C997 1.348 . S
C994 H1042 0.929 . S
C995 C996 1.358 . S
C995 C997 1.356 . S
C995 H1043 0.930 . S
C996 N993 1.279 . S
C996 C995 1.358 . S
C996 H999 0.930 . S
C997 C994 1.348 . S
C997 C995 1.356 . S
H998 C992 0.930 . S
H999 C996 0.930 . S
C1000 C1002 1.348 . S
C1000 C1003 1.356 . S
C1000 O1030 1.325 . S
N1001 C1004 1.314 . S
N1001 C1005 1.279 . S
C1002 C1000 1.348 . S
C1002 C1004 1.353 . S
C1002 H1044 0.929 . S
C1003 C1000 1.356 . S
C1003 C1005 1.358 . S
C1003 H1045 0.930 . S
C1004 N1001 1.314 . S
C1004 C1002 1.353 . S
C1004 H1046 0.930 . S
C1005 N1001 1.279 . S
C1005 C1003 1.358 . S
C1005 H1047 0.930 . S
C1006 C1007 1.348 . S
C1006 C1008 1.356 . S
C1006 O1031 1.325 . S
C1007 C1006 1.348 . S
C1007 C1009 1.353 . S
C1007 H1048 0.929 . S
C1008 C1006 1.356 . S
C1008 C1010 1.358 . S
C1008 H1049 0.930 . S
C1009 C1007 1.353 . S
C1009 N1011 1.314 . S
C1009 H1050 0.930 . S
C1010 C1008 1.358 . S
C1010 N1011 1.279 . S
C1010 H1051 0.930 . S
N1011 C1009 1.314 . S
N1011 C1010 1.279 . S
C1012 C1014 1.353 . S
C1012 N1015 1.314 . S
C1012 H1018 0.930 . S
C1013 N1015 1.279 . S
C1013 C1016 1.358 . S
C1013 H1019 0.930 . S
C1014 C1012 1.353 . S
C1014 C1017 1.348 . S
C1014 H1052 0.929 . S
N1015 Li970 1.990 . S
N1015 C1012 1.314 . S
N1015 C1013 1.279 . S
C1016 C1013 1.358 . S
C1016 C1017 1.356 . S
C1016 H1053 0.930 . S
C1017 C1014 1.348 . S
C1017 C1016 1.356 . S
H1018 C1012 0.930 . S
H1019 C1013 0.930 . S
C1020 N1021 1.314 . S
C1020 C1022 1.353 . S
C1020 H1026 0.930 . S
N1021 Li971 1.990 . S
N1021 C1020 1.314 . S
N1021 C1024 1.279 . S
C1022 C1020 1.353 . S
C1022 C1025 1.348 . S
C1022 H1054 0.929 . S
C1023 C1024 1.358 . S
C1023 C1025 1.356 . S
C1023 H1055 0.930 . S
C1024 N1021 1.279 . S
C1024 C1023 1.358 . S
C1024 H1027 0.930 . S
C1025 C1022 1.348 . S
C1025 C1023 1.356 . S
H1026 C1020 0.930 . S
H1027 C1024 0.930 . S
O1028 Li968 1.956 . S
O1028 Li969 1.970 . S
O1028 Li970 1.961 . S
O1028 C972 1.325 . S
O1029 Li968 1.970 . S
O1029 Li969 1.956 . S
O1029 Li971 1.961 . S
O1029 C978 1.325 . S
O1030 Li968 1.961 . S
O1030 Li970 1.956 . S
O1030 Li971 1.970 . S
O1030 C1000 1.325 . S
O1031 Li969 1.961 . S
O1031 Li970 1.970 . S
O1031 Li971 1.956 . S
O1031 C1006 1.325 . S
H1032 C974 0.929 . S
H1033 C975 0.930 . S
H1034 C976 0.930 . S
H1035 C977 0.930 . S
H1036 C979 0.930 . S
H1037 C981 0.929 . S
H1038 C982 0.930 . S
H1039 C983 0.930 . S
H1040 C986 0.930 . S
H1041 C989 0.929 . S
H1042 C994 0.929 . S
H1043 C995 0.930 . S
H1044 C1002 0.929 . S
H1045 C1003 0.930 . S
H1046 C1004 0.930 . S
H1047 C1005 0.930 . S
H1048 C1007 0.929 . S
H1049 C1008 0.930 . S
H1050 C1009 0.930 . S
H1051 C1010 0.930 . S
H1052 C1014 0.929 . S
H1053 C1016 0.930 . S
H1054 C1022 0.929 . S
H1055 C1023 0.930 . S
C1056 C1057 1.391 . S
C1056 C1058 1.394 . S
C1056 H1072 0.931 . S
C1057 C1056 1.391 . S
C1057 C1061 1.376 . S
C1058 C1056 1.394 . S
C1058 C1059 1.369 . S
C1058 C1062 1.531 . S
C1059 C1058 1.369 . S
C1059 C1060 1.410 . S
C1059 C1067 1.503 . S
C1060 C1059 1.410 . S
C1060 C1061 1.392 . S
C1060 C1063 1.511 . S
C1061 C1057 1.376 . S
C1061 C1060 1.392 . S
C1061 H1073 0.929 . S
C1062 C1058 1.531 . S
C1062 H1074 0.960 . S
C1062 H1075 0.962 . S
C1062 H1076 0.960 . S
C1063 C1060 1.511 . S
C1063 H1077 0.961 . S
C1063 H1078 0.961 . S
C1063 H1079 0.961 . S
C1064 C1065 1.370 . S
C1064 C1066 1.363 . S
C1064 H1080 0.931 . S
C1065 C1064 1.370 . S
C1065 C1069 1.408 . S
C1066 C1064 1.363 . S
C1066 C1067 1.370 . S
C1066 C1070 1.524 . S
C1067 C1059 1.503 . S
C1067 C1066 1.370 . S
C1067 C1068 1.403 . S
C1068 C1067 1.403 . S
C1068 C1069 1.404 . S
C1068 C1071 1.539 . S
C1069 C1065 1.408 . S
C1069 C1068 1.404 . S
C1069 H1081 0.930 . S
C1070 C1066 1.524 . S
C1070 H1082 0.956 . S
C1070 H1083 0.961 . S
C1070 H1084 0.961 . S
C1071 C1068 1.539 . S
C1071 H1085 0.958 . S
C1071 H1086 0.961 . S
C1071 H1087 0.960 . S
H1072 C1056 0.931 . S
H1073 C1061 0.929 . S
H1074 C1062 0.960 . S
H1075 C1062 0.962 . S
H1076 C1062 0.960 . S
H1077 C1063 0.961 . S
H1078 C1063 0.961 . S
H1079 C1063 0.961 . S
H1080 C1064 0.931 . S
H1081 C1069 0.930 . S
H1082 C1070 0.956 . S
H1083 C1070 0.961 . S
H1084 C1070 0.961 . S
H1085 C1071 0.958 . S
H1086 C1071 0.961 . S
H1087 C1071 0.960 . S
C1088 C1089 1.391 . S
C1088 C1090 1.394 . S
C1088 H1104 0.931 . S
C1089 C1088 1.391 . S
C1089 C1093 1.376 . S
C1090 C1088 1.394 . S
C1090 C1091 1.369 . S
C1090 C1094 1.531 . S
C1091 C1090 1.369 . S
C1091 C1092 1.410 . S
C1091 C1099 1.503 . S
C1092 C1091 1.410 . S
C1092 C1093 1.392 . S
C1092 C1095 1.511 . S
C1093 C1089 1.376 . S
C1093 C1092 1.392 . S
C1093 H1105 0.929 . S
C1094 C1090 1.531 . S
C1094 H1106 0.960 . S
C1094 H1107 0.962 . S
C1094 H1108 0.960 . S
C1095 C1092 1.511 . S
C1095 H1109 0.961 . S
C1095 H1110 0.961 . S
C1095 H1111 0.961 . S
C1096 C1097 1.370 . S
C1096 C1098 1.363 . S
C1096 H1112 0.931 . S
C1097 C1096 1.370 . S
C1097 C1101 1.408 . S
C1098 C1096 1.363 . S
C1098 C1099 1.370 . S
C1098 C1102 1.524 . S
C1099 C1091 1.503 . S
C1099 C1098 1.370 . S
C1099 C1100 1.403 . S
C1100 C1099 1.403 . S
C1100 C1101 1.404 . S
C1100 C1103 1.539 . S
C1101 C1097 1.408 . S
C1101 C1100 1.404 . S
C1101 H1113 0.930 . S
C1102 C1098 1.524 . S
C1102 H1114 0.956 . S
C1102 H1115 0.961 . S
C1102 H1116 0.961 . S
C1103 C1100 1.539 . S
C1103 H1117 0.958 . S
C1103 H1118 0.961 . S
C1103 H1119 0.960 . S
H1104 C1088 0.931 . S
H1105 C1093 0.929 . S
H1106 C1094 0.960 . S
H1107 C1094 0.962 . S
H1108 C1094 0.960 . S
H1109 C1095 0.961 . S
H1110 C1095 0.961 . S
H1111 C1095 0.961 . S
H1112 C1096 0.931 . S
H1113 C1101 0.930 . S
H1114 C1102 0.956 . S
H1115 C1102 0.961 . S
H1116 C1102 0.961 . S
H1117 C1103 0.958 . S
H1118 C1103 0.961 . S
H1119 C1103 0.960 . S
C1120 C1121 1.391 . S
C1120 C1122 1.394 . S
C1120 H1136 0.931 . S
C1121 C1120 1.391 . S
C1121 C1125 1.376 . S
C1122 C1120 1.394 . S
C1122 C1123 1.369 . S
C1122 C1126 1.531 . S
C1123 C1122 1.369 . S
C1123 C1124 1.410 . S
C1123 C1131 1.503 . S
C1124 C1123 1.410 . S
C1124 C1125 1.392 . S
C1124 C1127 1.511 . S
C1125 C1121 1.376 . S
C1125 C1124 1.392 . S
C1125 H1137 0.929 . S
C1126 C1122 1.531 . S
C1126 H1138 0.960 . S
C1126 H1139 0.962 . S
C1126 H1140 0.960 . S
C1127 C1124 1.511 . S
C1127 H1141 0.961 . S
C1127 H1142 0.961 . S
C1127 H1143 0.961 . S
C1128 C1129 1.370 . S
C1128 C1130 1.363 . S
C1128 H1144 0.931 . S
C1129 C1128 1.370 . S
C1129 C1133 1.408 . S
C1130 C1128 1.363 . S
C1130 C1131 1.370 . S
C1130 C1134 1.524 . S
C1131 C1123 1.503 . S
C1131 C1130 1.370 . S
C1131 C1132 1.403 . S
C1132 C1131 1.403 . S
C1132 C1133 1.404 . S
C1132 C1135 1.539 . S
C1133 C1129 1.408 . S
C1133 C1132 1.404 . S
C1133 H1145 0.930 . S
C1134 C1130 1.524 . S
C1134 H1146 0.956 . S
C1134 H1147 0.961 . S
C1134 H1148 0.961 . S
C1135 C1132 1.539 . S
C1135 H1149 0.958 . S
C1135 H1150 0.961 . S
C1135 H1151 0.960 . S
H1136 C1120 0.931 . S
H1137 C1125 0.929 . S
H1138 C1126 0.960 . S
H1139 C1126 0.962 . S
H1140 C1126 0.960 . S
H1141 C1127 0.961 . S
H1142 C1127 0.961 . S
H1143 C1127 0.961 . S
H1144 C1128 0.931 . S
H1145 C1133 0.930 . S
H1146 C1134 0.956 . S
H1147 C1134 0.961 . S
H1148 C1134 0.961 . S
H1149 C1135 0.958 . S
H1150 C1135 0.961 . S
H1151 C1135 0.960 . S
C1152 C1153 1.391 . S
C1152 C1154 1.394 . S
C1152 H1168 0.931 . S
C1153 C1152 1.391 . S
C1153 C1157 1.376 . S
C1154 C1152 1.394 . S
C1154 C1155 1.369 . S
C1154 C1158 1.531 . S
C1155 C1154 1.369 . S
C1155 C1156 1.410 . S
C1155 C1163 1.503 . S
C1156 C1155 1.410 . S
C1156 C1157 1.392 . S
C1156 C1159 1.511 . S
C1157 C1153 1.376 . S
C1157 C1156 1.392 . S
C1157 H1169 0.929 . S
C1158 C1154 1.531 . S
C1158 H1170 0.960 . S
C1158 H1171 0.962 . S
C1158 H1172 0.960 . S
C1159 C1156 1.511 . S
C1159 H1173 0.961 . S
C1159 H1174 0.961 . S
C1159 H1175 0.961 . S
C1160 C1161 1.370 . S
C1160 C1162 1.363 . S
C1160 H1176 0.931 . S
C1161 C1160 1.370 . S
C1161 C1165 1.408 . S
C1162 C1160 1.363 . S
C1162 C1163 1.370 . S
C1162 C1166 1.524 . S
C1163 C1155 1.503 . S
C1163 C1162 1.370 . S
C1163 C1164 1.403 . S
C1164 C1163 1.403 . S
C1164 C1165 1.404 . S
C1164 C1167 1.539 . S
C1165 C1161 1.408 . S
C1165 C1164 1.404 . S
C1165 H1177 0.930 . S
C1166 C1162 1.524 . S
C1166 H1178 0.956 . S
C1166 H1179 0.961 . S
C1166 H1180 0.961 . S
C1167 C1164 1.539 . S
C1167 H1181 0.958 . S
C1167 H1182 0.961 . S
C1167 H1183 0.960 . S
H1168 C1152 0.931 . S
H1169 C1157 0.929 . S
H1170 C1158 0.960 . S
H1171 C1158 0.962 . S
H1172 C1158 0.960 . S
H1173 C1159 0.961 . S
H1174 C1159 0.961 . S
H1175 C1159 0.961 . S
H1176 C1160 0.931 . S
H1177 C1165 0.930 . S
H1178 C1166 0.956 . S
H1179 C1166 0.961 . S
H1180 C1166 0.961 . S
H1181 C1167 0.958 . S
H1182 C1167 0.961 . S
H1183 C1167 0.960 . S
C1184 C1185 1.391 . S
C1184 C1186 1.394 . S
C1184 H1200 0.931 . S
C1185 C1184 1.391 . S
C1185 C1189 1.376 . S
C1186 C1184 1.394 . S
C1186 C1187 1.392 . S
C1186 C1190 1.531 . S
C1187 C1186 1.392 . S
C1187 C1188 1.407 1_554 S
C1187 C1195 1.484 1_554 S
C1188 C1187 1.407 1_556 S
C1188 C1189 1.392 1_556 S
C1188 C1191 1.511 . S
C1189 C1185 1.376 . S
C1189 C1188 1.392 1_554 S
C1189 H1201 0.929 . S
C1190 C1186 1.531 . S
C1190 H1202 0.960 . S
C1190 H1203 0.962 . S
C1190 H1204 0.960 . S
C1191 C1188 1.511 . S
C1191 H1205 0.961 . S
C1191 H1206 0.961 . S
C1191 H1207 0.961 . S
C1192 C1193 1.370 . S
C1192 C1194 1.363 . S
C1192 H1208 0.931 . S
C1193 C1192 1.370 . S
C1193 C1197 1.408 . S
C1194 C1192 1.363 . S
C1194 C1195 1.370 . S
C1194 C1198 1.524 . S
C1195 C1187 1.484 1_556 S
C1195 C1194 1.370 . S
C1195 C1196 1.403 . S
C1196 C1195 1.403 . S
C1196 C1197 1.404 . S
C1196 C1199 1.539 . S
C1197 C1193 1.408 . S
C1197 C1196 1.404 . S
C1197 H1209 0.930 . S
C1198 C1194 1.524 . S
C1198 H1210 0.956 1_556 S
C1198 H1211 0.961 . S
C1198 H1212 0.961 . S
C1199 C1196 1.539 . S
C1199 H1213 0.958 . S
C1199 H1214 0.961 . S
C1199 H1215 0.960 . S
H1200 C1184 0.931 . S
H1201 C1189 0.929 . S
H1202 C1190 0.960 . S
H1203 C1190 0.962 . S
H1204 C1190 0.960 . S
H1205 C1191 0.961 . S
H1206 C1191 0.961 . S
H1207 C1191 0.961 . S
H1208 C1192 0.931 . S
H1209 C1197 0.930 . S
H1210 C1198 0.956 1_554 S
H1211 C1198 0.961 . S
H1212 C1198 0.961 . S
H1213 C1199 0.958 . S
H1214 C1199 0.961 . S
H1215 C1199 0.960 . S
C1216 C1217 1.391 . S
C1216 C1218 1.394 . S
C1216 H1232 0.931 . S
C1217 C1216 1.391 . S
C1217 C1221 1.376 . S
C1218 C1216 1.394 . S
C1218 C1219 1.369 . S
C1218 C1222 1.531 . S
C1219 C1218 1.369 . S
C1219 C1220 1.410 . S
C1219 C1227 1.503 . S
C1220 C1219 1.410 . S
C1220 C1221 1.392 . S
C1220 C1223 1.511 . S
C1221 C1217 1.376 . S
C1221 C1220 1.392 . S
C1221 H1233 0.929 . S
C1222 C1218 1.531 . S
C1222 H1234 0.960 . S
C1222 H1235 0.962 . S
C1222 H1236 0.960 . S
C1223 C1220 1.511 . S
C1223 H1237 0.961 . S
C1223 H1238 0.961 . S
C1223 H1239 0.961 . S
C1224 C1225 1.370 . S
C1224 C1226 1.363 . S
C1224 H1240 0.931 . S
C1225 C1224 1.370 . S
C1225 C1229 1.408 . S
C1226 C1224 1.363 . S
C1226 C1227 1.370 . S
C1226 C1230 1.524 . S
C1227 C1219 1.503 . S
C1227 C1226 1.370 . S
C1227 C1228 1.403 . S
C1228 C1227 1.403 . S
C1228 C1229 1.404 . S
C1228 C1231 1.539 . S
C1229 C1225 1.408 . S
C1229 C1228 1.404 . S
C1229 H1241 0.930 . S
C1230 C1226 1.524 . S
C1230 H1242 0.956 . S
C1230 H1243 0.961 . S
C1230 H1244 0.961 . S
C1231 C1228 1.539 . S
C1231 H1245 0.958 . S
C1231 H1246 0.961 . S
C1231 H1247 0.960 . S
H1232 C1216 0.931 . S
H1233 C1221 0.929 . S
H1234 C1222 0.960 . S
H1235 C1222 0.962 . S
H1236 C1222 0.960 . S
H1237 C1223 0.961 . S
H1238 C1223 0.961 . S
H1239 C1223 0.961 . S
H1240 C1224 0.931 . S
H1241 C1229 0.930 . S
H1242 C1230 0.956 . S
H1243 C1230 0.961 . S
H1244 C1230 0.961 . S
H1245 C1231 0.958 . S
H1246 C1231 0.961 . S
H1247 C1231 0.960 . S
C1248 C1249 1.391 . S
C1248 C1250 1.394 . S
C1248 H1264 0.931 . S
C1249 C1248 1.391 . S
C1249 C1253 1.376 . S
C1250 C1248 1.394 . S
C1250 C1251 1.369 . S
C1250 C1254 1.531 . S
C1251 C1250 1.369 . S
C1251 C1252 1.410 . S
C1251 C1259 1.503 . S
C1252 C1251 1.410 . S
C1252 C1253 1.392 . S
C1252 C1255 1.511 . S
C1253 C1249 1.376 . S
C1253 C1252 1.392 . S
C1253 H1265 0.929 . S
C1254 C1250 1.531 . S
C1254 H1266 0.960 . S
C1254 H1267 0.962 . S
C1254 H1268 0.960 . S
C1255 C1252 1.511 . S
C1255 H1269 0.961 . S
C1255 H1270 0.961 . S
C1255 H1271 0.961 . S
C1256 C1257 1.370 . S
C1256 C1258 1.363 . S
C1256 H1272 0.931 . S
C1257 C1256 1.370 . S
C1257 C1261 1.408 . S
C1258 C1256 1.363 . S
C1258 C1259 1.370 . S
C1258 C1262 1.524 . S
C1259 C1251 1.503 . S
C1259 C1258 1.370 . S
C1259 C1260 1.403 . S
C1260 C1259 1.403 . S
C1260 C1261 1.404 . S
C1260 C1263 1.539 . S
C1261 C1257 1.408 . S
C1261 C1260 1.404 . S
C1261 H1273 0.930 . S
C1262 C1258 1.524 . S
C1262 H1274 0.956 . S
C1262 H1275 0.961 . S
C1262 H1276 0.961 . S
C1263 C1260 1.539 . S
C1263 H1277 0.958 . S
C1263 H1278 0.961 . S
C1263 H1279 0.960 . S
H1264 C1248 0.931 . S
H1265 C1253 0.929 . S
H1266 C1254 0.960 . S
H1267 C1254 0.962 . S
H1268 C1254 0.960 . S
H1269 C1255 0.961 . S
H1270 C1255 0.961 . S
H1271 C1255 0.961 . S
H1272 C1256 0.931 . S
H1273 C1261 0.930 . S
H1274 C1262 0.956 . S
H1275 C1262 0.961 . S
H1276 C1262 0.961 . S
H1277 C1263 0.958 . S
H1278 C1263 0.961 . S
H1279 C1263 0.960 . S
C1280 C1281 1.391 . S
C1280 C1282 1.394 . S
C1280 H1296 0.931 . S
C1281 C1280 1.391 . S
C1281 C1285 1.376 . S
C1282 C1280 1.394 . S
C1282 C1283 1.369 . S
C1282 C1286 1.531 . S
C1283 C1282 1.369 . S
C1283 C1284 1.410 . S
C1283 C1291 1.503 . S
C1284 C1283 1.410 . S
C1284 C1285 1.392 . S
C1284 C1287 1.511 . S
C1285 C1281 1.376 . S
C1285 C1284 1.392 . S
C1285 H1297 0.929 . S
C1286 C1282 1.531 . S
C1286 H1298 0.960 . S
C1286 H1299 0.962 . S
C1286 H1300 0.960 . S
C1287 C1284 1.511 . S
C1287 H1301 0.961 . S
C1287 H1302 0.961 . S
C1287 H1303 0.961 . S
C1288 C1289 1.370 . S
C1288 C1290 1.363 . S
C1288 H1304 0.931 . S
C1289 C1288 1.370 . S
C1289 C1293 1.408 . S
C1290 C1288 1.363 . S
C1290 C1291 1.370 . S
C1290 C1294 1.524 . S
C1291 C1283 1.503 . S
C1291 C1290 1.370 . S
C1291 C1292 1.403 . S
C1292 C1291 1.403 . S
C1292 C1293 1.404 . S
C1292 C1295 1.539 . S
C1293 C1289 1.408 . S
C1293 C1292 1.404 . S
C1293 H1305 0.930 . S
C1294 C1290 1.524 . S
C1294 H1306 0.956 . S
C1294 H1307 0.961 . S
C1294 H1308 0.961 . S
C1295 C1292 1.539 . S
C1295 H1309 0.958 . S
C1295 H1310 0.961 . S
C1295 H1311 0.960 . S
H1296 C1280 0.931 . S
H1297 C1285 0.929 . S
H1298 C1286 0.960 . S
H1299 C1286 0.962 . S
H1300 C1286 0.960 . S
H1301 C1287 0.961 . S
H1302 C1287 0.961 . S
H1303 C1287 0.961 . S
H1304 C1288 0.931 . S
H1305 C1293 0.930 . S
H1306 C1294 0.956 . S
H1307 C1294 0.961 . S
H1308 C1294 0.961 . S
H1309 C1295 0.958 . S
H1310 C1295 0.961 . S
H1311 C1295 0.960 . S
C1312 C1313 1.391 . S
C1312 C1314 1.394 . S
C1312 H1328 0.931 . S
C1313 C1312 1.391 . S
C1313 C1317 1.376 . S
C1314 C1312 1.394 . S
C1314 C1315 1.369 . S
C1314 C1318 1.531 . S
C1315 C1314 1.369 . S
C1315 C1316 1.410 . S
C1315 C1323 1.503 . S
C1316 C1315 1.410 . S
C1316 C1317 1.392 . S
C1316 C1319 1.511 . S
C1317 C1313 1.376 . S
C1317 C1316 1.392 . S
C1317 H1329 0.929 . S
C1318 C1314 1.531 . S
C1318 H1330 0.960 . S
C1318 H1331 0.962 . S
C1318 H1332 0.960 . S
C1319 C1316 1.511 . S
C1319 H1333 0.961 . S
C1319 H1334 0.961 . S
C1319 H1335 0.961 . S
C1320 C1321 1.370 . S
C1320 C1322 1.363 . S
C1320 H1336 0.931 . S
C1321 C1320 1.370 . S
C1321 C1325 1.408 . S
C1322 C1320 1.363 . S
C1322 C1323 1.370 . S
C1322 C1326 1.524 . S
C1323 C1315 1.503 . S
C1323 C1322 1.370 . S
C1323 C1324 1.403 . S
C1324 C1323 1.403 . S
C1324 C1325 1.404 . S
C1324 C1327 1.539 . S
C1325 C1321 1.408 . S
C1325 C1324 1.404 . S
C1325 H1337 0.930 . S
C1326 C1322 1.524 . S
C1326 H1338 0.956 . S
C1326 H1339 0.961 . S
C1326 H1340 0.961 . S
C1327 C1324 1.539 . S
C1327 H1341 0.958 . S
C1327 H1342 0.961 . S
C1327 H1343 0.960 . S
H1328 C1312 0.931 . S
H1329 C1317 0.929 . S
H1330 C1318 0.960 . S
H1331 C1318 0.962 . S
H1332 C1318 0.960 . S
H1333 C1319 0.961 . S
H1334 C1319 0.961 . S
H1335 C1319 0.961 . S
H1336 C1320 0.931 . S
H1337 C1325 0.930 . S
H1338 C1326 0.956 . S
H1339 C1326 0.961 . S
H1340 C1326 0.961 . S
H1341 C1327 0.958 . S
H1342 C1327 0.961 . S
H1343 C1327 0.960 . S
C1344 C1345 1.391 . S
C1344 C1346 1.394 . S
C1344 H1360 0.931 . S
C1345 C1344 1.391 . S
C1345 C1349 1.376 . S
C1346 C1344 1.394 . S
C1346 C1347 1.369 . S
C1346 C1350 1.531 . S
C1347 C1346 1.369 . S
C1347 C1348 1.410 . S
C1347 C1355 1.503 . S
C1348 C1347 1.410 . S
C1348 C1349 1.392 . S
C1348 C1351 1.511 . S
C1349 C1345 1.376 . S
C1349 C1348 1.392 . S
C1349 H1361 0.929 . S
C1350 C1346 1.531 . S
C1350 H1362 0.960 . S
C1350 H1363 0.962 . S
C1350 H1364 0.960 . S
C1351 C1348 1.511 . S
C1351 H1365 0.961 . S
C1351 H1366 0.961 . S
C1351 H1367 0.961 . S
C1352 C1353 1.370 . S
C1352 C1354 1.363 . S
C1352 H1368 0.931 . S
C1353 C1352 1.370 . S
C1353 C1357 1.408 . S
C1354 C1352 1.363 . S
C1354 C1355 1.370 . S
C1354 C1358 1.524 . S
C1355 C1347 1.503 . S
C1355 C1354 1.370 . S
C1355 C1356 1.403 . S
C1356 C1355 1.403 . S
C1356 C1357 1.404 . S
C1356 C1359 1.539 . S
C1357 C1353 1.408 . S
C1357 C1356 1.404 . S
C1357 H1369 0.930 . S
C1358 C1354 1.524 . S
C1358 H1370 0.956 . S
C1358 H1371 0.961 . S
C1358 H1372 0.961 . S
C1359 C1356 1.539 . S
C1359 H1373 0.958 . S
C1359 H1374 0.961 . S
C1359 H1375 0.960 . S
H1360 C1344 0.931 . S
H1361 C1349 0.929 . S
H1362 C1350 0.960 . S
H1363 C1350 0.962 . S
H1364 C1350 0.960 . S
H1365 C1351 0.961 . S
H1366 C1351 0.961 . S
H1367 C1351 0.961 . S
H1368 C1352 0.931 . S
H1369 C1357 0.930 . S
H1370 C1358 0.956 . S
H1371 C1358 0.961 . S
H1372 C1358 0.961 . S
H1373 C1359 0.958 . S
H1374 C1359 0.961 . S
H1375 C1359 0.960 . S
C1376 C1377 1.391 . S
C1376 C1378 1.394 . S
C1376 H1392 0.931 . S
C1377 C1376 1.391 . S
C1377 C1381 1.376 . S
C1378 C1376 1.394 . S
C1378 C1379 1.369 . S
C1378 C1382 1.531 . S
C1379 C1378 1.369 . S
C1379 C1380 1.410 . S
C1379 C1387 1.503 . S
C1380 C1379 1.410 . S
C1380 C1381 1.392 . S
C1380 C1383 1.511 . S
C1381 C1377 1.376 . S
C1381 C1380 1.392 . S
C1381 H1393 0.929 . S
C1382 C1378 1.531 . S
C1382 H1394 0.960 . S
C1382 H1395 0.962 . S
C1382 H1396 0.960 . S
C1383 C1380 1.511 . S
C1383 H1397 0.961 . S
C1383 H1398 0.961 . S
C1383 H1399 0.961 . S
C1384 C1385 1.370 . S
C1384 C1386 1.363 . S
C1384 H1400 0.931 . S
C1385 C1384 1.370 . S
C1385 C1389 1.408 . S
C1386 C1384 1.363 . S
C1386 C1387 1.370 . S
C1386 C1390 1.524 . S
C1387 C1379 1.503 . S
C1387 C1386 1.370 . S
C1387 C1388 1.403 . S
C1388 C1387 1.403 . S
C1388 C1389 1.404 . S
C1388 C1391 1.539 . S
C1389 C1385 1.408 . S
C1389 C1388 1.404 . S
C1389 H1401 0.930 . S
C1390 C1386 1.524 . S
C1390 H1402 0.956 . S
C1390 H1403 0.961 . S
C1390 H1404 0.961 . S
C1391 C1388 1.539 . S
C1391 H1405 0.958 . S
C1391 H1406 0.961 . S
C1391 H1407 0.960 . S
H1392 C1376 0.931 . S
H1393 C1381 0.929 . S
H1394 C1382 0.960 . S
H1395 C1382 0.962 . S
H1396 C1382 0.960 . S
H1397 C1383 0.961 . S
H1398 C1383 0.961 . S
H1399 C1383 0.961 . S
H1400 C1384 0.931 . S
H1401 C1389 0.930 . S
H1402 C1390 0.956 . S
H1403 C1390 0.961 . S
H1404 C1390 0.961 . S
H1405 C1391 0.958 . S
H1406 C1391 0.961 . S
H1407 C1391 0.960 . S
C1408 C1409 1.391 . S
C1408 C1410 1.394 . S
C1408 H1424 0.931 . S
C1409 C1408 1.391 . S
C1409 C1413 1.376 . S
C1410 C1408 1.394 . S
C1410 C1411 1.369 . S
C1410 C1414 1.531 1_556 S
C1411 C1410 1.369 . S
C1411 C1412 1.410 . S
C1411 C1419 1.503 . S
C1412 C1411 1.410 . S
C1412 C1413 1.392 . S
C1412 C1415 1.511 . S
C1413 C1409 1.376 . S
C1413 C1412 1.392 . S
C1413 H1425 0.929 . S
C1414 C1410 1.531 1_554 S
C1414 H1426 0.960 . S
C1414 H1427 0.962 . S
C1414 H1428 0.960 . S
C1415 C1412 1.511 . S
C1415 H1429 0.961 . S
C1415 H1430 0.961 . S
C1415 H1431 0.961 . S
C1416 C1417 1.370 . S
C1416 C1418 1.363 1_554 S
C1416 H1432 0.931 . S
C1417 C1416 1.370 . S
C1417 C1421 1.408 . S
C1418 C1416 1.363 1_556 S
C1418 C1419 1.370 . S
C1418 C1422 1.524 . S
C1419 C1411 1.503 . S
C1419 C1418 1.370 . S
C1419 C1420 1.403 1_556 S
C1420 C1419 1.403 1_554 S
C1420 C1421 1.404 . S
C1420 C1423 1.539 . S
C1421 C1417 1.408 . S
C1421 C1420 1.404 . S
C1421 H1433 0.930 . S
C1422 C1418 1.524 . S
C1422 H1434 0.956 . S
C1422 H1435 0.961 . S
C1422 H1436 0.961 . S
C1423 C1420 1.539 . S
C1423 H1437 0.958 . S
C1423 H1438 0.961 . S
C1423 H1439 0.960 1_554 S
H1424 C1408 0.931 . S
H1425 C1413 0.929 . S
H1426 C1414 0.960 . S
H1427 C1414 0.962 . S
H1428 C1414 0.960 . S
H1429 C1415 0.961 . S
H1430 C1415 0.961 . S
H1431 C1415 0.961 . S
H1432 C1416 0.931 . S
H1433 C1421 0.930 . S
H1434 C1422 0.956 . S
H1435 C1422 0.961 . S
H1436 C1422 0.961 . S
H1437 C1423 0.958 . S
H1438 C1423 0.961 . S
H1439 C1423 0.960 1_556 S
C1440 C1441 1.391 . S
C1440 C1442 1.394 . S
C1440 H1456 0.931 . S
C1441 C1440 1.391 . S
C1441 C1445 1.376 . S
C1442 C1440 1.394 . S
C1442 C1443 1.369 . S
C1442 C1446 1.531 . S
C1443 C1442 1.369 . S
C1443 C1444 1.410 . S
C1443 C1451 1.503 . S
C1444 C1443 1.410 . S
C1444 C1445 1.392 . S
C1444 C1447 1.511 . S
C1445 C1441 1.376 . S
C1445 C1444 1.392 . S
C1445 H1457 0.929 . S
C1446 C1442 1.531 . S
C1446 H1458 0.960 . S
C1446 H1459 0.962 . S
C1446 H1460 0.960 . S
C1447 C1444 1.511 . S
C1447 H1461 0.961 . S
C1447 H1462 0.961 . S
C1447 H1463 0.961 . S
C1448 C1449 1.370 . S
C1448 C1450 1.363 . S
C1448 H1464 0.931 . S
C1449 C1448 1.370 . S
C1449 C1453 1.408 . S
C1450 C1448 1.363 . S
C1450 C1451 1.370 . S
C1450 C1454 1.524 . S
C1451 C1443 1.503 . S
C1451 C1450 1.370 . S
C1451 C1452 1.403 . S
C1452 C1451 1.403 . S
C1452 C1453 1.404 . S
C1452 C1455 1.539 . S
C1453 C1449 1.408 . S
C1453 C1452 1.404 . S
C1453 H1465 0.930 . S
C1454 C1450 1.524 . S
C1454 H1466 0.956 . S
C1454 H1467 0.961 . S
C1454 H1468 0.961 . S
C1455 C1452 1.539 . S
C1455 H1469 0.958 . S
C1455 H1470 0.961 . S
C1455 H1471 0.960 . S
H1456 C1440 0.931 . S
H1457 C1445 0.929 . S
H1458 C1446 0.960 . S
H1459 C1446 0.962 . S
H1460 C1446 0.960 . S
H1461 C1447 0.961 . S
H1462 C1447 0.961 . S
H1463 C1447 0.961 . S
H1464 C1448 0.931 . S
H1465 C1453 0.930 . S
H1466 C1454 0.956 . S
H1467 C1454 0.961 . S
H1468 C1454 0.961 . S
H1469 C1455 0.958 . S
H1470 C1455 0.961 . S
H1471 C1455 0.960 . S
C1472 C1473 1.391 . S
C1472 C1474 1.394 . S
C1472 H1488 0.931 . S
C1473 C1472 1.391 . S
C1473 C1477 1.376 . S
C1474 C1472 1.394 . S
C1474 C1475 1.369 . S
C1474 C1478 1.531 . S
C1475 C1474 1.369 . S
C1475 C1476 1.410 . S
C1475 C1483 1.503 1_556 S
C1476 C1475 1.410 . S
C1476 C1477 1.392 . S
C1476 C1479 1.511 . S
C1477 C1473 1.376 . S
C1477 C1476 1.392 . S
C1477 H1489 0.929 . S
C1478 C1474 1.531 . S
C1478 H1490 0.960 1_556 S
C1478 H1491 0.962 . S
C1478 H1492 0.960 . S
C1479 C1476 1.511 . S
C1479 H1493 0.961 . S
C1479 H1494 0.961 . S
C1479 H1495 0.961 . S
C1480 C1481 1.370 . S
C1480 C1482 1.363 1_554 S
C1480 H1496 0.931 . S
C1481 C1480 1.370 . S
C1481 C1485 1.408 . S
C1482 C1480 1.363 1_556 S
C1482 C1483 1.370 1_556 S
C1482 C1486 1.524 . S
C1483 C1475 1.503 1_554 S
C1483 C1482 1.370 1_554 S
C1483 C1484 1.403 . S
C1484 C1483 1.403 . S
C1484 C1485 1.404 . S
C1484 C1487 1.539 . S
C1485 C1481 1.408 . S
C1485 C1484 1.404 . S
C1485 H1497 0.930 . S
C1486 C1482 1.524 . S
C1486 H1498 0.956 . S
C1486 H1499 0.961 . S
C1486 H1500 0.961 . S
C1487 C1484 1.539 . S
C1487 H1501 0.958 . S
C1487 H1502 0.961 . S
C1487 H1503 0.960 . S
H1488 C1472 0.931 . S
H1489 C1477 0.929 . S
H1490 C1478 0.960 1_554 S
H1491 C1478 0.962 . S
H1492 C1478 0.960 . S
H1493 C1479 0.961 . S
H1494 C1479 0.961 . S
H1495 C1479 0.961 . S
H1496 C1480 0.931 . S
H1497 C1485 0.930 . S
H1498 C1486 0.956 . S
H1499 C1486 0.961 . S
H1500 C1486 0.961 . S
H1501 C1487 0.958 . S
H1502 C1487 0.961 . S
H1503 C1487 0.960 . S
C1504 C1505 1.391 . S
C1504 C1506 1.394 . S
C1504 H1520 0.931 . S
C1505 C1504 1.391 . S
C1505 C1509 1.376 . S
C1506 C1504 1.394 . S
C1506 C1507 1.369 . S
C1506 C1510 1.531 . S
C1507 C1506 1.369 . S
C1507 C1508 1.410 . S
C1507 C1515 1.503 . S
C1508 C1507 1.410 . S
C1508 C1509 1.392 . S
C1508 C1511 1.511 . S
C1509 C1505 1.376 . S
C1509 C1508 1.392 . S
C1509 H1521 0.929 . S
C1510 C1506 1.531 . S
C1510 H1522 0.960 . S
C1510 H1523 0.962 . S
C1510 H1524 0.960 . S
C1511 C1508 1.511 . S
C1511 H1525 0.961 . S
C1511 H1526 0.961 . S
C1511 H1527 0.961 . S
C1512 C1513 1.370 . S
C1512 C1514 1.363 . S
C1512 H1528 0.931 . S
C1513 C1512 1.370 . S
C1513 C1517 1.408 . S
C1514 C1512 1.363 . S
C1514 C1515 1.370 . S
C1514 C1518 1.524 . S
C1515 C1507 1.503 . S
C1515 C1514 1.370 . S
C1515 C1516 1.403 . S
C1516 C1515 1.403 . S
C1516 C1517 1.404 . S
C1516 C1519 1.539 . S
C1517 C1513 1.408 . S
C1517 C1516 1.404 . S
C1517 H1529 0.930 . S
C1518 C1514 1.524 . S
C1518 H1530 0.956 . S
C1518 H1531 0.961 . S
C1518 H1532 0.961 . S
C1519 C1516 1.539 . S
C1519 H1533 0.958 . S
C1519 H1534 0.961 . S
C1519 H1535 0.960 . S
H1520 C1504 0.931 . S
H1521 C1509 0.929 . S
H1522 C1510 0.960 . S
H1523 C1510 0.962 . S
H1524 C1510 0.960 . S
H1525 C1511 0.961 . S
H1526 C1511 0.961 . S
H1527 C1511 0.961 . S
H1528 C1512 0.931 . S
H1529 C1517 0.930 . S
H1530 C1518 0.956 . S
H1531 C1518 0.961 . S
H1532 C1518 0.961 . S
H1533 C1519 0.958 . S
H1534 C1519 0.961 . S
H1535 C1519 0.960 . S
C1536 C1537 1.391 . S
C1536 C1538 1.394 . S
C1536 H1552 0.931 . S
C1537 C1536 1.391 . S
C1537 C1541 1.376 . S
C1538 C1536 1.394 . S
C1538 C1539 1.369 . S
C1538 C1542 1.531 . S
C1539 C1538 1.369 . S
C1539 C1540 1.410 . S
C1539 C1547 1.503 . S
C1540 C1539 1.410 . S
C1540 C1541 1.392 . S
C1540 C1543 1.511 . S
C1541 C1537 1.376 . S
C1541 C1540 1.392 . S
C1541 H1553 0.929 . S
C1542 C1538 1.531 . S
C1542 H1554 0.960 . S
C1542 H1555 0.962 . S
C1542 H1556 0.960 . S
C1543 C1540 1.511 . S
C1543 H1557 0.961 . S
C1543 H1558 0.961 . S
C1543 H1559 0.961 . S
C1544 C1545 1.370 . S
C1544 C1546 1.363 . S
C1544 H1560 0.931 . S
C1545 C1544 1.370 . S
C1545 C1549 1.408 . S
C1546 C1544 1.363 . S
C1546 C1547 1.370 . S
C1546 C1550 1.524 . S
C1547 C1539 1.503 . S
C1547 C1546 1.370 . S
C1547 C1548 1.403 . S
C1548 C1547 1.403 . S
C1548 C1549 1.404 . S
C1548 C1551 1.539 . S
C1549 C1545 1.408 . S
C1549 C1548 1.404 . S
C1549 H1561 0.930 . S
C1550 C1546 1.524 . S
C1550 H1562 0.956 . S
C1550 H1563 0.961 . S
C1550 H1564 0.961 . S
C1551 C1548 1.539 . S
C1551 H1565 0.958 . S
C1551 H1566 0.961 . S
C1551 H1567 0.960 . S
H1552 C1536 0.931 . S
H1553 C1541 0.929 . S
H1554 C1542 0.960 . S
H1555 C1542 0.962 . S
H1556 C1542 0.960 . S
H1557 C1543 0.961 . S
H1558 C1543 0.961 . S
H1559 C1543 0.961 . S
H1560 C1544 0.931 . S
H1561 C1549 0.930 . S
H1562 C1550 0.956 . S
H1563 C1550 0.961 . S
H1564 C1550 0.961 . S
H1565 C1551 0.958 . S
H1566 C1551 0.961 . S
H1567 C1551 0.960 . S
C1568 C1569 1.391 . S
C1568 C1570 1.394 . S
C1568 H1584 0.931 . S
C1569 C1568 1.391 . S
C1569 C1573 1.376 . S
C1570 C1568 1.394 . S
C1570 C1571 1.369 . S
C1570 C1574 1.531 . S
C1571 C1570 1.369 . S
C1571 C1572 1.410 . S
C1571 C1579 1.503 . S
C1572 C1571 1.410 . S
C1572 C1573 1.392 . S
C1572 C1575 1.511 . S
C1573 C1569 1.376 . S
C1573 C1572 1.392 . S
C1573 H1585 0.929 . S
C1574 C1570 1.531 . S
C1574 H1586 0.960 . S
C1574 H1587 0.962 . S
C1574 H1588 0.960 . S
C1575 C1572 1.511 . S
C1575 H1589 0.961 . S
C1575 H1590 0.961 . S
C1575 H1591 0.961 . S
C1576 C1577 1.370 . S
C1576 C1578 1.363 . S
C1576 H1592 0.931 . S
C1577 C1576 1.370 . S
C1577 C1581 1.408 . S
C1578 C1576 1.363 . S
C1578 C1579 1.370 . S
C1578 C1582 1.524 . S
C1579 C1571 1.503 . S
C1579 C1578 1.370 . S
C1579 C1580 1.403 . S
C1580 C1579 1.403 . S
C1580 C1581 1.404 . S
C1580 C1583 1.539 . S
C1581 C1577 1.408 . S
C1581 C1580 1.404 . S
C1581 H1593 0.930 . S
C1582 C1578 1.524 . S
C1582 H1594 0.956 . S
C1582 H1595 0.961 . S
C1582 H1596 0.961 . S
C1583 C1580 1.539 . S
C1583 H1597 0.958 . S
C1583 H1598 0.961 . S
C1583 H1599 0.960 . S
H1584 C1568 0.931 . S
H1585 C1573 0.929 . S
H1586 C1574 0.960 . S
H1587 C1574 0.962 . S
H1588 C1574 0.960 . S
H1589 C1575 0.961 . S
H1590 C1575 0.961 . S
H1591 C1575 0.961 . S
H1592 C1576 0.931 . S
H1593 C1581 0.930 . S
H1594 C1582 0.956 . S
H1595 C1582 0.961 . S
H1596 C1582 0.961 . S
H1597 C1583 0.958 . S
H1598 C1583 0.961 . S
H1599 C1583 0.960 . S
C1600 C1601 1.391 . S
C1600 C1602 1.394 . S
C1600 H1616 0.931 . S
C1601 C1600 1.391 . S
C1601 C1605 1.376 . S
C1602 C1600 1.394 . S
C1602 C1603 1.369 . S
C1602 C1606 1.531 . S
C1603 C1602 1.369 . S
C1603 C1604 1.410 . S
C1603 C1611 1.503 . S
C1604 C1603 1.410 . S
C1604 C1605 1.392 . S
C1604 C1607 1.511 . S
C1605 C1601 1.376 . S
C1605 C1604 1.392 . S
C1605 H1617 0.929 . S
C1606 C1602 1.531 . S
C1606 H1618 0.960 . S
C1606 H1619 0.962 . S
C1606 H1620 0.960 . S
C1607 C1604 1.511 . S
C1607 H1621 0.961 . S
C1607 H1622 0.961 . S
C1607 H1623 0.961 . S
C1608 C1609 1.370 . S
C1608 C1610 1.363 . S
C1608 H1624 0.931 . S
C1609 C1608 1.370 . S
C1609 C1613 1.408 . S
C1610 C1608 1.363 . S
C1610 C1611 1.370 . S
C1610 C1614 1.524 . S
C1611 C1603 1.503 . S
C1611 C1610 1.370 . S
C1611 C1612 1.403 . S
C1612 C1611 1.403 . S
C1612 C1613 1.404 . S
C1612 C1615 1.539 . S
C1613 C1609 1.408 . S
C1613 C1612 1.404 . S
C1613 H1625 0.930 . S
C1614 C1610 1.524 . S
C1614 H1626 0.956 . S
C1614 H1627 0.961 . S
C1614 H1628 0.961 . S
C1615 C1612 1.539 . S
C1615 H1629 0.958 . S
C1615 H1630 0.961 . S
C1615 H1631 0.960 . S
H1616 C1600 0.931 . S
H1617 C1605 0.929 . S
H1618 C1606 0.960 . S
H1619 C1606 0.962 . S
H1620 C1606 0.960 . S
H1621 C1607 0.961 . S
H1622 C1607 0.961 . S
H1623 C1607 0.961 . S
H1624 C1608 0.931 . S
H1625 C1613 0.930 . S
H1626 C1614 0.956 . S
H1627 C1614 0.961 . S
H1628 C1614 0.961 . S
H1629 C1615 0.958 . S
H1630 C1615 0.961 . S
H1631 C1615 0.960 . S
C1632 C1633 1.391 . S
C1632 C1634 1.394 . S
C1632 H1648 0.931 . S
C1633 C1632 1.391 . S
C1633 C1637 1.376 . S
C1634 C1632 1.394 . S
C1634 C1635 1.369 . S
C1634 C1638 1.531 . S
C1635 C1634 1.369 . S
C1635 C1636 1.410 . S
C1635 C1643 1.503 1_545 S
C1636 C1635 1.410 . S
C1636 C1637 1.392 . S
C1636 C1639 1.511 . S
C1637 C1633 1.376 . S
C1637 C1636 1.392 . S
C1637 H1649 0.929 . S
C1638 C1634 1.531 . S
C1638 H1650 0.960 1_545 S
C1638 H1651 0.962 . S
C1638 H1652 0.960 . S
C1639 C1636 1.511 . S
C1639 H1653 0.961 1_554 S
C1639 H1654 0.961 1_545 S
C1639 H1655 0.961 . S
C1640 C1641 1.370 . S
C1640 C1642 1.363 . S
C1640 H1656 0.931 . S
C1641 C1640 1.370 . S
C1641 C1645 1.408 . S
C1642 C1640 1.363 . S
C1642 C1643 1.370 . S
C1642 C1646 1.524 . S
C1643 C1635 1.503 1_565 S
C1643 C1642 1.370 . S
C1643 C1644 1.403 . S
C1644 C1643 1.403 . S
C1644 C1645 1.404 . S
C1644 C1647 1.539 . S
C1645 C1641 1.408 . S
C1645 C1644 1.404 . S
C1645 H1657 0.930 . S
C1646 C1642 1.524 . S
C1646 H1658 0.968 . S
C1646 H1659 0.961 1_565 S
C1646 H1660 0.961 . S
C1647 C1644 1.539 . S
C1647 H1661 0.958 . S
C1647 H1662 0.961 . S
C1647 H1663 0.979 . S
H1648 C1632 0.931 . S
H1649 C1637 0.929 . S
H1650 C1638 0.960 1_565 S
H1651 C1638 0.962 . S
H1652 C1638 0.960 . S
H1653 C1639 0.961 1_556 S
H1654 C1639 0.961 1_565 S
H1655 C1639 0.961 . S
H1656 C1640 0.931 . S
H1657 C1645 0.930 . S
H1658 C1646 0.968 . S
H1659 C1646 0.961 1_545 S
H1660 C1646 0.961 . S
H1661 C1647 0.958 . S
H1662 C1647 0.961 . S
H1663 C1647 0.979 . S
C1664 C1665 1.391 . S
C1664 C1666 1.394 . S
C1664 H1680 0.931 . S
C1665 C1664 1.391 . S
C1665 C1669 1.376 . S
C1666 C1664 1.394 . S
C1666 C1667 1.369 . S
C1666 C1670 1.531 . S
C1667 C1666 1.369 . S
C1667 C1668 1.410 . S
C1667 C1675 1.503 . S
C1668 C1667 1.410 . S
C1668 C1669 1.392 . S
C1668 C1671 1.511 . S
C1669 C1665 1.376 . S
C1669 C1668 1.392 . S
C1669 H1681 0.929 . S
C1670 C1666 1.531 . S
C1670 H1682 0.960 . S
C1670 H1683 0.962 . S
C1670 H1684 0.960 . S
C1671 C1668 1.511 . S
C1671 H1685 0.961 . S
C1671 H1686 0.961 . S
C1671 H1687 0.961 . S
C1672 C1673 1.370 . S
C1672 C1674 1.363 . S
C1672 H1688 0.931 . S
C1673 C1672 1.370 . S
C1673 C1677 1.408 . S
C1674 C1672 1.363 . S
C1674 C1675 1.370 . S
C1674 C1678 1.524 . S
C1675 C1667 1.503 . S
C1675 C1674 1.370 . S
C1675 C1676 1.403 . S
C1676 C1675 1.403 . S
C1676 C1677 1.404 . S
C1676 C1679 1.539 . S
C1677 C1673 1.408 . S
C1677 C1676 1.404 . S
C1677 H1689 0.930 . S
C1678 C1674 1.524 . S
C1678 H1690 0.956 . S
C1678 H1691 0.961 . S
C1678 H1692 0.961 . S
C1679 C1676 1.539 . S
C1679 H1693 0.958 . S
C1679 H1694 0.961 . S
C1679 H1695 0.960 . S
H1680 C1664 0.931 . S
H1681 C1669 0.929 . S
H1682 C1670 0.960 . S
H1683 C1670 0.962 . S
H1684 C1670 0.960 . S
H1685 C1671 0.961 . S
H1686 C1671 0.961 . S
H1687 C1671 0.961 . S
H1688 C1672 0.931 . S
H1689 C1677 0.930 . S
H1690 C1678 0.956 . S
H1691 C1678 0.961 . S
H1692 C1678 0.961 . S
H1693 C1679 0.958 . S
H1694 C1679 0.961 . S
H1695 C1679 0.960 . S
C1696 C1697 1.391 . S
C1696 C1698 1.394 . S
C1696 H1712 0.931 . S
C1697 C1696 1.391 . S
C1697 C1701 1.376 . S
C1698 C1696 1.394 . S
C1698 C1699 1.369 . S
C1698 C1702 1.531 . S
C1699 C1698 1.369 . S
C1699 C1700 1.410 . S
C1699 C1707 1.503 1_455 S
C1700 C1699 1.410 . S
C1700 C1701 1.392 . S
C1700 C1703 1.511 . S
C1701 C1697 1.376 . S
C1701 C1700 1.392 . S
C1701 H1713 0.929 . S
C1702 C1698 1.531 . S
C1702 H1714 0.960 1_455 S
C1702 H1715 0.962 . S
C1702 H1716 0.960 . S
C1703 C1700 1.511 . S
C1703 H1717 0.961 . S
C1703 H1718 0.961 1_455 S
C1703 H1719 0.961 . S
C1704 C1705 1.370 . S
C1704 C1706 1.363 . S
C1704 H1720 0.931 . S
C1705 C1704 1.370 . S
C1705 C1709 1.408 . S
C1706 C1704 1.363 . S
C1706 C1707 1.370 . S
C1706 C1710 1.524 . S
C1707 C1699 1.503 1_655 S
C1707 C1706 1.370 . S
C1707 C1708 1.403 . S
C1708 C1707 1.403 . S
C1708 C1709 1.404 . S
C1708 C1711 1.539 . S
C1709 C1705 1.408 . S
C1709 C1708 1.404 . S
C1709 H1721 0.930 . S
C1710 C1706 1.524 . S
C1710 H1722 1.000 . S
C1710 H1723 0.942 1_655 S
C1710 H1724 0.961 . S
C1711 C1708 1.539 . S
C1711 H1725 0.958 . S
C1711 H1726 0.961 . S
C1711 H1727 0.959 . S
H1712 C1696 0.931 . S
H1713 C1701 0.929 . S
H1714 C1702 0.960 1_655 S
H1715 C1702 0.962 . S
H1716 C1702 0.960 . S
H1717 C1703 0.961 . S
H1718 C1703 0.961 1_655 S
H1719 C1703 0.961 . S
H1720 C1704 0.931 . S
H1721 C1709 0.930 . S
H1722 C1710 1.000 . S
H1723 C1710 0.942 1_455 S
H1724 C1710 0.961 . S
H1725 C1711 0.958 . S
H1726 C1711 0.961 . S
H1727 C1711 0.959 . S
C1728 C1729 1.391 . S
C1728 C1730 1.394 . S
C1728 H1744 0.931 . S
C1729 C1728 1.391 . S
C1729 C1733 1.376 . S
C1730 C1728 1.394 . S
C1730 C1731 1.369 . S
C1730 C1734 1.531 . S
C1731 C1730 1.369 . S
C1731 C1732 1.410 . S
C1731 C1739 1.503 1_565 S
C1732 C1731 1.410 . S
C1732 C1733 1.392 . S
C1732 C1735 1.511 . S
C1733 C1729 1.376 . S
C1733 C1732 1.392 . S
C1733 H1745 0.929 . S
C1734 C1730 1.531 . S
C1734 H1746 0.960 1_565 S
C1734 H1747 0.962 . S
C1734 H1748 0.960 . S
C1735 C1732 1.511 . S
C1735 H1749 0.961 . S
C1735 H1750 0.961 1_565 S
C1735 H1751 0.961 . S
C1736 C1737 1.370 . S
C1736 C1738 1.363 . S
C1736 H1752 0.931 . S
C1737 C1736 1.370 . S
C1737 C1741 1.408 . S
C1738 C1736 1.363 . S
C1738 C1739 1.370 . S
C1738 C1742 1.524 . S
C1739 C1731 1.503 1_545 S
C1739 C1738 1.370 . S
C1739 C1740 1.403 . S
C1740 C1739 1.403 . S
C1740 C1741 1.404 . S
C1740 C1743 1.539 . S
C1741 C1737 1.408 . S
C1741 C1740 1.404 . S
C1741 H1753 0.930 . S
C1742 C1738 1.524 . S
C1742 H1754 1.009 . S
C1742 H1755 0.946 1_545 S
C1742 H1756 0.961 . S
C1743 C1740 1.539 . S
C1743 H1757 0.958 . S
C1743 H1758 0.961 . S
C1743 H1759 0.956 . S
H1744 C1728 0.931 . S
H1745 C1733 0.929 . S
H1746 C1734 0.960 1_545 S
H1747 C1734 0.962 . S
H1748 C1734 0.960 . S
H1749 C1735 0.961 . S
H1750 C1735 0.961 1_545 S
H1751 C1735 0.961 . S
H1752 C1736 0.931 . S
H1753 C1741 0.930 . S
H1754 C1742 1.009 . S
H1755 C1742 0.946 1_565 S
H1756 C1742 0.961 . S
H1757 C1743 0.958 . S
H1758 C1743 0.961 . S
H1759 C1743 0.956 . S
C1760 C1761 1.391 . S
C1760 C1762 1.394 . S
C1760 H1776 0.931 . S
C1761 C1760 1.391 . S
C1761 C1765 1.376 . S
C1762 C1760 1.394 . S
C1762 C1763 1.369 . S
C1762 C1766 1.531 . S
C1763 C1762 1.369 . S
C1763 C1764 1.410 . S
C1763 C1771 1.503 . S
C1764 C1763 1.410 . S
C1764 C1765 1.392 . S
C1764 C1767 1.511 . S
C1765 C1761 1.376 . S
C1765 C1764 1.392 . S
C1765 H1777 0.929 . S
C1766 C1762 1.531 . S
C1766 H1778 0.960 . S
C1766 H1779 0.962 . S
C1766 H1780 0.960 . S
C1767 C1764 1.511 . S
C1767 H1781 0.961 . S
C1767 H1782 0.961 . S
C1767 H1783 0.961 . S
C1768 C1769 1.370 . S
C1768 C1770 1.363 . S
C1768 H1784 0.931 . S
C1769 C1768 1.370 . S
C1769 C1773 1.408 . S
C1770 C1768 1.363 . S
C1770 C1771 1.370 . S
C1770 C1774 1.524 . S
C1771 C1763 1.503 . S
C1771 C1770 1.370 . S
C1771 C1772 1.403 . S
C1772 C1771 1.403 . S
C1772 C1773 1.404 . S
C1772 C1775 1.539 . S
C1773 C1769 1.408 . S
C1773 C1772 1.404 . S
C1773 H1785 0.930 . S
C1774 C1770 1.524 . S
C1774 H1786 0.956 . S
C1774 H1787 0.961 . S
C1774 H1788 0.961 . S
C1775 C1772 1.539 . S
C1775 H1789 0.958 . S
C1775 H1790 0.961 . S
C1775 H1791 0.960 . S
H1776 C1760 0.931 . S
H1777 C1765 0.929 . S
H1778 C1766 0.960 . S
H1779 C1766 0.962 . S
H1780 C1766 0.960 . S
H1781 C1767 0.961 . S
H1782 C1767 0.961 . S
H1783 C1767 0.961 . S
H1784 C1768 0.931 . S
H1785 C1773 0.930 . S
H1786 C1774 0.956 . S
H1787 C1774 0.961 . S
H1788 C1774 0.961 . S
H1789 C1775 0.958 . S
H1790 C1775 0.961 . S
H1791 C1775 0.960 . S
C1792 C1793 1.391 . S
C1792 C1794 1.394 . S
C1792 H1808 0.931 . S
C1793 C1792 1.391 . S
C1793 C1797 1.376 . S
C1794 C1792 1.394 . S
C1794 C1795 1.369 . S
C1794 C1798 1.531 . S
C1795 C1794 1.369 . S
C1795 C1796 1.410 . S
C1795 C1803 1.503 1_455 S
C1796 C1795 1.410 . S
C1796 C1797 1.392 . S
C1796 C1799 1.511 . S
C1797 C1793 1.376 . S
C1797 C1796 1.392 . S
C1797 H1809 0.929 . S
C1798 C1794 1.531 . S
C1798 H1810 0.960 1_455 S
C1798 H1811 0.962 . S
C1798 H1812 0.960 . S
C1799 C1796 1.511 . S
C1799 H1813 0.961 . S
C1799 H1814 0.961 1_455 S
C1799 H1815 0.961 . S
C1800 C1801 1.370 . S
C1800 C1802 1.363 . S
C1800 H1816 0.931 . S
C1801 C1800 1.370 . S
C1801 C1805 1.408 . S
C1802 C1800 1.363 . S
C1802 C1803 1.370 . S
C1802 C1806 1.524 . S
C1803 C1795 1.503 1_655 S
C1803 C1802 1.370 . S
C1803 C1804 1.403 . S
C1804 C1803 1.403 . S
C1804 C1805 1.404 . S
C1804 C1807 1.539 . S
C1805 C1801 1.408 . S
C1805 C1804 1.404 . S
C1805 H1817 0.930 . S
C1806 C1802 1.524 . S
C1806 H1818 0.986 . S
C1806 H1819 0.961 1_655 S
C1806 H1820 0.961 . S
C1807 C1804 1.539 . S
C1807 H1821 0.958 . S
C1807 H1822 0.961 . S
C1807 H1823 0.987 . S
H1808 C1792 0.931 . S
H1809 C1797 0.929 . S
H1810 C1798 0.960 1_655 S
H1811 C1798 0.962 . S
H1812 C1798 0.960 . S
H1813 C1799 0.961 . S
H1814 C1799 0.961 1_655 S
H1815 C1799 0.961 . S
H1816 C1800 0.931 . S
H1817 C1805 0.930 . S
H1818 C1806 0.986 . S
H1819 C1806 0.961 1_455 S
H1820 C1806 0.961 . S
H1821 C1807 0.958 . S
H1822 C1807 0.961 . S
H1823 C1807 0.987 . S
C1057 C29 1.201 . S
C1065 C929 1.200 . S
C1089 C108 1.204 . S
C1097 C1025 1.203 . S
C1121 C585 1.201 . S
C1129 C205 1.204 . S
C1153 C293 1.193 . S
C1161 C673 1.201 . S
C1185 C761 1.204 . S
C1193 C381 1.203 . S
C1217 C841 1.193 . S
C1225 C489 1.200 . S
C1249 C724 1.180 . S
C1257 C49 1.137 . S
C1281 C145 1.141 . S
C1289 C821 1.130 . S
C1313 C909 1.181 . S
C1321 C225 1.139 . S
C1345 C313 1.179 . S
C1353 C988 1.137 . S
C1377 C401 1.168 . S
C1385 C548 1.129 . S
C1409 C469 1.113 . S
C1417 C636 1.140 . S
C1441 C900 1.769 . S
C1449 C57 1.781 . S
C1473 C997 1.786 . S
C1481 C137 1.772 . S
C1505 C557 1.786 . S
C1513 C233 1.774 . S
C1537 C321 1.783 . S
C1545 C645 1.777 . S
C1569 C409 1.759 . S
C1577 C733 1.781 . S
C1601 C812 1.785 . S
C1609 C460 1.771 . S
C1633 C20 1.168 . S
C1641 C665 1.158 . S
C1665 C753 1.150 . S
C1673 C117 1.143 . S
C1697 C849 1.119 . S
C1705 C196 1.133 . S
C1729 C284 1.123 . S
C1737 C937 1.136 . S
C1761 C372 1.172 . S
C1769 C1017 1.156 . S
C1793 C497 1.148 . S
C1801 C577 1.152 . S
