# Generated by pormake.
# Topology uov, (4)-cn, num edge types: 1
# Building blocks:
#     Node 0, Type 0, BuildingBlock: NAHDIM_clean_sbu_0, # of connection points: 4
#     Node 1, Type 0, BuildingBlock: NAHDIM_clean_sbu_0, # of connection points: 4
#     Node 2, Type 0, BuildingBlock: NAHDIM_clean_sbu_0, # of connection points: 4
#     Node 3, Type 0, BuildingBlock: NAHDIM_clean_sbu_0, # of connection points: 4
#     Node 4, Type 0, BuildingBlock: NAHDIM_clean_sbu_0, # of connection points: 4
#     Node 5, Type 0, BuildingBlock: NAHDIM_clean_sbu_0, # of connection points: 4
#     Node 6, Type 0, BuildingBlock: NAHDIM_clean_sbu_0, # of connection points: 4
#     Node 7, Type 0, BuildingBlock: NAHDIM_clean_sbu_0, # of connection points: 4
#     Edge 8, Type (0, 0), BuildingBlock: TEMPAE_clean_linker_10, # of connection points: 2
#     Edge 9, Type (0, 0), BuildingBlock: TEMPAE_clean_linker_10, # of connection points: 2
#     Edge 10, Type (0, 0), BuildingBlock: TEMPAE_clean_linker_10, # of connection points: 2
#     Edge 11, Type (0, 0), BuildingBlock: TEMPAE_clean_linker_10, # of connection points: 2
#     Edge 12, Type (0, 0), BuildingBlock: TEMPAE_clean_linker_10, # of connection points: 2
#     Edge 13, Type (0, 0), BuildingBlock: TEMPAE_clean_linker_10, # of connection points: 2
#     Edge 14, Type (0, 0), BuildingBlock: TEMPAE_clean_linker_10, # of connection points: 2
#     Edge 15, Type (0, 0), BuildingBlock: TEMPAE_clean_linker_10, # of connection points: 2
#     Edge 16, Type (0, 0), BuildingBlock: TEMPAE_clean_linker_10, # of connection points: 2
#     Edge 17, Type (0, 0), BuildingBlock: TEMPAE_clean_linker_10, # of connection points: 2
#     Edge 18, Type (0, 0), BuildingBlock: TEMPAE_clean_linker_10, # of connection points: 2
#     Edge 19, Type (0, 0), BuildingBlock: TEMPAE_clean_linker_10, # of connection points: 2
#     Edge 20, Type (0, 0), BuildingBlock: TEMPAE_clean_linker_10, # of connection points: 2
#     Edge 21, Type (0, 0), BuildingBlock: TEMPAE_clean_linker_10, # of connection points: 2
#     Edge 22, Type (0, 0), BuildingBlock: TEMPAE_clean_linker_10, # of connection points: 2
#     Edge 23, Type (0, 0), BuildingBlock: TEMPAE_clean_linker_10, # of connection points: 2
# Relax obj value: 0.256
# Max RMSD: 0.233
# Mean RMSD: 0.233
data_MOF--net-uov--node1-NAHDIM_clean_sbu_0--edge1-TEMPAE_clean_linker_10
_symmetry_space_group_name_H-M    P1
_symmetry_Int_Tables_number       1
_symmetry_cell_setting            triclinic
loop_
_symmetry_equiv_pos_as_xyz
'x, y, z'
_cell_length_a     30.551255
_cell_length_b     30.493399
_cell_length_c     41.67497
_cell_angle_alpha  90.069407
_cell_angle_beta   90.059044
_cell_angle_gamma 89.933626
loop_
_atom_site_label
_atom_site_type_symbol
_atom_site_fract_x
_atom_site_fract_y
_atom_site_fract_z
_atom_type_partial_charge
C0 C 0.99142 0.34324 0.62944 0.0
O1 O 0.97605 0.31519 0.65051 0.0
O2 O 0.9678 0.23652 0.57728 0.0
Zn3 Zn 0.02011 0.26478 0.5976 0.0
O4 O 0.03357 0.2349 0.63925 0.0
C5 C 0.10754 0.24198 0.57589 0.0
O6 O 0.11579 0.23786 0.60668 0.0
O7 O 0.01108 0.32899 0.60468 0.0
C8 C 0.02971 0.19357 0.64181 0.0
O9 O 0.01537 0.17088 0.61713 0.0
C10 C 0.92747 0.24515 0.58114 0.0
O11 O 0.91571 0.27689 0.60065 0.0
O12 O 0.06989 0.25486 0.56695 0.0
C13 C 0.32892 0.97607 0.35839 0.0
O14 O 0.29879 0.99449 0.34036 0.0
O15 O 0.23298 0.00974 0.4154 0.0
Zn16 Zn 0.25556 0.95243 0.39843 0.0
O17 O 0.2176 0.93046 0.36266 0.0
C18 C 0.24491 0.86904 0.43014 0.0
O19 O 0.24429 0.85382 0.40064 0.0
O20 O 0.3177 0.95673 0.38406 0.0
C21 C 0.19599 0.95457 0.34351 0.0
O22 O 0.19833 -0.00258 0.34626 0.0
C23 C 0.25607 0.04337 0.42153 0.0
O24 O 0.29801 0.04305 0.41461 0.0
O25 O 0.25111 0.90974 0.43475 0.0
C26 C 0.96578 0.67057 0.64534 0.0
O27 O 0.98712 0.69406 0.66667 0.0
O28 O 0.01182 0.76926 0.59494 0.0
Zn29 Zn 0.95433 0.75428 0.61511 0.0
O30 O 0.94688 0.78604 0.65673 0.0
C31 C 0.89418 0.75328 0.56108 0.0
O32 O 0.9058 0.71193 0.55845 0.0
O33 O 0.94861 0.68954 0.62131 0.0
C34 C 0.94649 0.8277 0.65706 0.0
O35 O 0.95249 0.84905 0.63005 0.0
C36 C 0.047 0.74702 0.59445 0.0
O37 O 0.04918 0.70971 0.61008 0.0
O38 O 0.90919 0.7761 0.58412 0.0
C39 C 0.6528 0.00539 0.34057 0.0
O40 O 0.67809 0.97846 0.32434 0.0
O41 O 0.74314 0.96452 0.39539 0.0
Zn42 Zn 0.73216 0.0233 0.3751 0.0
O43 O 0.77079 0.0339 0.33707 0.0
C44 C 0.73906 0.06305 0.43758 0.0
O45 O 0.72044 0.02634 0.44678 0.0
O46 O 0.66927 0.02827 0.36299 0.0
C47 C 0.81163 0.03931 0.34136 0.0
O48 O 0.82778 0.03562 0.37048 0.0
C49 C 0.76978 0.9356 0.38538 0.0
O50 O 0.79136 0.94224 0.35859 0.0
O51 O 0.74617 0.06932 0.4079 0.0
C52 C 0.00304 0.33653 0.14247 0.0
O53 O 0.03058 0.31058 0.15751 0.0
O54 O 0.01764 0.23264 0.08922 0.0
Zn55 Zn 0.96944 0.25528 0.11727 0.0
O56 O 0.96665 0.22326 0.15909 0.0
C57 C 0.90842 0.25631 0.06531 0.0
O58 O 0.93753 0.28321 0.05309 0.0
O59 O 0.97433 0.31992 0.12407 0.0
C60 C 0.96825 0.18162 0.15928 0.0
O61 O 0.97511 0.16069 0.13216 0.0
C62 C 0.05601 0.22105 0.09735 0.0
O63 O 0.06836 0.225 0.12742 0.0
O64 O 0.9142 0.2418 0.09355 0.0
C65 C 0.33528 0.0135 0.83922 0.0
O66 O 0.31288 0.98438 0.82274 0.0
O67 O 0.2429 0.96456 0.87914 0.0
Zn68 Zn 0.25184 0.02776 0.86746 0.0
O69 O 0.21686 0.04486 0.82872 0.0
C70 C 0.21932 0.04738 0.93113 0.0
O71 O 0.21916 0.00447 0.93365 0.0
O72 O 0.31547 0.03725 0.85961 0.0
C73 C 0.17639 0.05375 0.83152 0.0
O74 O 0.15779 0.05041 0.85983 0.0
C75 C 0.21162 0.94028 0.86982 0.0
O76 O 0.185 0.9546 0.84739 0.0
O77 O 0.23264 0.06495 0.90523 0.0
C78 C 0.02592 0.66512 0.13917 0.0
O79 O 0.01211 0.69112 0.1622 0.0
O80 O 0.98314 0.77105 0.09327 0.0
Zn81 Zn 0.04177 0.74625 0.10507 0.0
O82 O 0.06637 0.77847 0.14297 0.0
C83 C 0.08424 0.79799 0.05974 0.0
O84 O 0.0652 0.82769 0.07787 0.0
O85 O 0.03942 0.68167 0.11305 0.0
C86 C 0.04223 0.79806 0.16326 0.0
O87 O -0.00052 0.79597 0.16021 0.0
C88 C 0.94608 0.75223 0.09289 0.0
O89 O 0.94281 0.71131 0.10239 0.0
O90 O 0.08016 0.75783 0.06713 0.0
C91 C 0.661 0.9933 0.86282 0.0
O92 O 0.68994 0.01288 0.84447 0.0
O93 O 0.76116 0.02222 0.91589 0.0
Zn94 Zn 0.73816 0.96702 0.89594 0.0
O95 O 0.77026 0.95487 0.8551 0.0
C96 C 0.73983 0.91968 0.95574 0.0
O97 O 0.71725 0.9536 0.96601 0.0
O98 O 0.67412 0.97143 0.88691 0.0
C99 C 0.81142 0.96008 0.85316 0.0
O100 O 0.833 0.97463 0.8783 0.0
C101 C 0.73827 0.05465 0.92514 0.0
O102 O 0.69567 0.05408 0.92087 0.0
O103 O 0.75074 0.91781 0.92636 0.0
C104 C 0.99423 0.60019 0.66784 0.0
C105 C 0.96514 0.62225 0.64743 0.0
C106 C -0.00295 0.55427 0.66752 0.0
C107 C 0.96975 0.53003 0.64656 0.0
C108 C 0.93884 0.55205 0.62706 0.0
C109 C 0.93709 0.59795 0.62759 0.0
C110 C 0.03064 0.53186 0.68847 0.0
C111 C 0.90878 0.52724 0.6047 0.0
C112 C 0.00965 0.42049 0.61527 0.0
C113 C 0.98619 0.39093 0.63439 0.0
C114 C 0.00505 0.46584 0.6194 0.0
C115 C 0.97591 0.48201 0.643 0.0
C116 C 0.9522 0.45242 0.66247 0.0
C117 C 0.95782 0.40712 0.65805 0.0
C118 C 0.03122 0.49644 0.59837 0.0
C119 C 0.92052 0.46861 0.68763 0.0
H120 H 0.01601 0.61881 0.68322 0.0
H121 H 0.91422 0.61485 0.61198 0.0
H122 H 0.01516 0.50531 0.70264 0.0
H123 H 0.05607 0.51645 0.67315 0.0
H124 H 0.04688 0.55506 0.70524 0.0
H125 H 0.88395 0.54892 0.59338 0.0
H126 H 0.92831 0.51148 0.58543 0.0
H127 H 0.89162 0.50076 0.61787 0.0
H128 H 0.03185 0.40821 0.59708 0.0
H129 H 0.93952 0.3844 0.67284 0.0
H130 H 0.05104 0.51892 0.61346 0.0
H131 H 0.00877 0.51699 0.58381 0.0
H132 H 0.05352 0.47853 0.58187 0.0
H133 H 0.93759 0.49048 0.70485 0.0
H134 H 0.90519 0.4413 0.70118 0.0
H135 H 0.89426 0.48823 0.6761 0.0
C136 C 0.57865 0.03509 0.35286 0.0
C137 C 0.60491 0.00564 0.33557 0.0
C138 C 0.53296 0.03204 0.35199 0.0
C139 C 0.51308 -0.00126 0.33337 0.0
C140 C 0.53922 0.97077 0.31419 0.0
C141 C 0.58497 0.97455 0.31551 0.0
C142 C 0.50615 0.06268 0.37266 0.0
C143 C 0.51907 0.93511 0.29385 0.0
C144 C 0.40702 0.95697 0.36834 0.0
C145 C 0.37576 0.97948 0.35001 0.0
C146 C 0.45178 0.96181 0.3623 0.0
C147 C 0.46567 0.98993 0.33733 0.0
C148 C 0.43434 0.01161 0.31797 0.0
C149 C 0.38961 0.0061 0.32454 0.0
C150 C 0.48423 0.93796 0.38341 0.0
C151 C 0.44809 0.04175 0.29111 0.0
H152 H 0.5938 0.0596 0.3681 0.0
H153 H 0.60506 0.95191 0.30188 0.0
H154 H 0.47901 0.07725 0.35854 0.0
H155 H 0.49129 0.04397 0.3927 0.0
H156 H 0.52619 0.08963 0.38297 0.0
H157 H 0.5431 0.92044 0.27696 0.0
H158 H 0.50638 0.90875 0.30963 0.0
H159 H 0.49097 0.9481 0.2799 0.0
H160 H 0.39658 0.93602 0.38788 0.0
H161 H 0.3656 0.02347 0.31021 0.0
H162 H 0.50383 0.96208 0.39725 0.0
H163 H 0.50733 0.91865 0.36849 0.0
H164 H 0.46799 0.91544 0.40061 0.0
H165 H 0.46432 0.07118 0.30128 0.0
H166 H 0.41984 0.05263 0.2763 0.0
H167 H 0.47221 0.02519 0.27532 0.0
C168 C 0.0413 0.40395 0.16222 0.0
C169 C 0.00602 0.38469 0.14592 0.0
C170 C 0.04553 0.44972 0.16399 0.0
C171 C 0.0136 0.47669 0.14924 0.0
C172 C 0.97724 0.45743 0.13363 0.0
C173 C 0.97395 0.41167 0.13209 0.0
C174 C 0.08482 0.4692 0.18073 0.0
C175 C 0.9424 0.48514 0.11775 0.0
C176 C 0.00415 0.59774 0.1695 0.0
C177 C 0.02476 0.61694 0.14296 0.0
C178 C 0.00117 0.55196 0.17235 0.0
C179 C 0.01945 0.52496 0.14817 0.0
C180 C 0.04135 0.54415 0.12182 0.0
C181 C 0.04363 0.58989 0.11949 0.0
C182 C 0.97747 0.53253 0.20074 0.0
C183 C 0.06147 0.5164 0.09563 0.0
H184 H 0.06616 0.38329 0.17301 0.0
H185 H 0.9464 0.39706 0.11966 0.0
H186 H 0.10555 0.48663 0.16302 0.0
H187 H 0.07422 0.4937 0.19883 0.0
H188 H 0.10509 0.44387 0.19285 0.0
H189 H 0.91485 0.46513 0.10835 0.0
H190 H 0.92917 0.50946 0.13504 0.0
H191 H 0.95692 0.50374 0.09753 0.0
H192 H 0.98956 0.61844 0.18775 0.0
H193 H 0.05993 0.60446 0.09902 0.0
H194 H -0.00141 0.50813 0.213 0.0
H195 H 0.94777 0.51499 0.19236 0.0
H196 H 0.96744 0.5579 0.21843 0.0
H197 H 0.08445 0.49214 0.10614 0.0
H198 H 0.07943 0.53638 0.07769 0.0
H199 H 0.03546 0.49774 0.08301 0.0
C200 C 0.40706 0.04616 0.8549 0.0
C201 C 0.38351 0.01519 0.83695 0.0
C202 C 0.45286 0.04489 0.85618 0.0
C203 C 0.47559 0.01182 0.83914 0.0
C204 C 0.45219 0.98191 0.81963 0.0
C205 C 0.40634 0.98398 0.81873 0.0
C206 C 0.47675 0.07756 0.87709 0.0
C207 C 0.47541 0.9463 0.80104 0.0
C208 C 0.59871 0.02333 0.83053 0.0
C209 C 0.61369 -0.00271 0.85602 0.0
C210 C 0.55377 0.02801 0.82439 0.0
C211 C 0.52329 0.00606 0.84421 0.0
C212 C 0.53824 0.97931 0.8697 0.0
C213 C 0.58325 0.97529 0.87531 0.0
C214 C 0.53888 0.05683 0.79704 0.0
C215 C 0.50666 0.95532 0.89132 0.0
H216 H 0.38967 0.07065 0.86882 0.0
H217 H 0.38839 0.96009 0.80466 0.0
H218 H 0.49156 0.06033 0.89788 0.0
H219 H 0.50379 0.09313 0.86352 0.0
H220 H 0.4547 0.10368 0.88629 0.0
H221 H 0.45302 0.92865 0.78445 0.0
H222 H 0.5028 0.96029 0.78692 0.0
H223 H 0.4897 0.92218 0.81801 0.0
H224 H 0.62206 0.0404 0.8155 0.0
H225 H 0.59456 0.955 0.89499 0.0
H226 H 0.51906 0.08448 0.80648 0.0
H227 H 0.51762 0.03794 0.78045 0.0
H228 H 0.5668 0.07044 0.7832 0.0
H229 H 0.48534 0.97925 0.90393 0.0
H230 H 0.52368 0.93495 0.90957 0.0
H231 H 0.48507 0.93376 0.87684 0.0
C232 C 0.26085 0.11816 0.44652 0.0
C233 C 0.23675 0.07997 0.44011 0.0
C234 C 0.24401 0.15104 0.46672 0.0
C235 C 0.20252 0.14512 0.48115 0.0
C236 C 0.17756 0.10728 0.47394 0.0
C237 C 0.19482 0.0754 0.45334 0.0
C238 C 0.27109 0.19142 0.47335 0.0
C239 C 0.13322 0.09958 0.48897 0.0
C240 C 0.17065 0.19408 0.56114 0.0
C241 C 0.13828 0.2241 0.55183 0.0
C242 C 0.19417 0.1701 0.53817 0.0
C243 C 0.18556 0.17692 0.50515 0.0
C244 C 0.15578 0.21001 0.49562 0.0
C245 C 0.13216 0.23298 0.51911 0.0
C246 C 0.22548 0.13491 0.54933 0.0
C247 C 0.14651 0.219 0.46065 0.0
H248 H 0.29317 0.12204 0.43621 0.0
H249 H 0.17591 0.04607 0.44851 0.0
H250 H 0.25106 0.22145 0.46997 0.0
H251 H 0.28229 0.19115 0.49867 0.0
H252 H 0.30029 0.19336 0.45755 0.0
H253 H 0.11767 0.06882 0.48034 0.0
H254 H 0.13658 0.09772 0.51545 0.0
H255 H 0.11098 0.12737 0.48353 0.0
H256 H 0.17565 0.18715 0.58639 0.0
H257 H 0.10759 0.25663 0.51177 0.0
H258 H 0.25688 0.13703 0.53611 0.0
H259 H 0.21119 0.10217 0.54425 0.0
H260 H 0.23234 0.13718 0.57546 0.0
H261 H 0.17737 0.21995 0.44666 0.0
H262 H 0.12877 0.25047 0.45722 0.0
H263 H 0.1261 0.19218 0.45066 0.0
C264 C 0.20577 0.80327 0.4511 0.0
C265 C 0.22975 0.84157 0.45711 0.0
C266 C 0.18247 0.78257 0.47577 0.0
C267 C 0.18378 0.80036 0.50716 0.0
C268 C 0.2117 0.83617 0.51397 0.0
C269 C 0.23417 0.85658 0.48877 0.0
C270 C 0.15302 0.74446 0.4675 0.0
C271 C 0.21475 0.85552 0.54725 0.0
C272 C 0.07702 0.79699 0.5528 0.0
C273 C 0.08346 0.76159 0.57372 0.0
C274 C 0.10962 0.8099 0.53129 0.0
C275 C 0.15008 0.78725 0.53092 0.0
C276 C 0.15742 0.75222 0.55253 0.0
C277 C 0.12381 0.73955 0.5736 0.0
C278 C 0.10031 0.84734 0.50851 0.0
C279 C 0.20044 0.72786 0.55306 0.0
H280 H 0.20247 0.79128 0.42672 0.0
H281 H 0.25331 0.88576 0.49365 0.0
H282 H 0.15544 0.71835 0.48591 0.0
H283 H 0.11851 0.75588 0.46699 0.0
H284 H 0.16101 0.73015 0.44369 0.0
H285 H 0.24375 0.87717 0.5499 0.0
H286 H 0.18497 0.87527 0.55216 0.0
H287 H 0.21649 0.82929 0.56564 0.0
H288 H 0.04596 0.81422 0.55264 0.0
H289 H 0.12905 0.71225 0.58979 0.0
H290 H 0.10331 0.83584 0.48333 0.0
H291 H 0.12464 0.87388 0.51205 0.0
H292 H 0.06705 0.86136 0.51187 0.0
H293 H 0.20532 0.71055 0.52992 0.0
H294 H 0.20202 0.70343 0.57278 0.0
H295 H 0.22795 0.75128 0.55588 0.0
C296 C 0.82283 0.87914 0.40451 0.0
C297 C 0.78146 0.89877 0.40671 0.0
C298 C 0.83759 0.8502 0.42833 0.0
C299 C 0.80992 0.84013 0.45455 0.0
C300 C 0.76677 0.85699 0.45541 0.0
C301 C 0.7532 0.88652 0.43162 0.0
C302 C 0.884 0.83326 0.42673 0.0
C303 C 0.73593 0.84617 0.48254 0.0
C304 C 0.84873 0.75019 0.51097 0.0
C305 C 0.86882 0.77488 0.53529 0.0
C306 C 0.82799 0.77089 0.48495 0.0
C307 C 0.82815 0.81723 0.48303 0.0
C308 C 0.84743 0.84226 0.50792 0.0
C309 C 0.86716 0.8208 0.53385 0.0
C310 C 0.80683 0.74325 0.45919 0.0
C311 C 0.8486 0.89179 0.50666 0.0
H312 H 0.84481 0.88852 0.3853 0.0
H313 H 0.72095 0.90125 0.43319 0.0
H314 H 0.9038 0.84903 0.44587 0.0
H315 H 0.88488 0.79739 0.43099 0.0
H316 H 0.89961 0.84021 0.40321 0.0
H317 H 0.70167 0.85577 0.47695 0.0
H318 H 0.73681 0.81057 0.48797 0.0
H319 H 0.74632 0.86388 0.50453 0.0
H320 H 0.84969 0.71469 0.51205 0.0
H321 H 0.88265 0.84016 0.55249 0.0
H322 H 0.82516 0.74683 0.43639 0.0
H323 H 0.77287 0.75464 0.45468 0.0
H324 H 0.80599 0.70794 0.46569 0.0
H325 H 0.86674 0.90261 0.48502 0.0
H326 H 0.86451 0.90636 0.52815 0.0
H327 H 0.81488 0.90507 0.50478 0.0
C328 C 0.7736 0.13472 0.45158 0.0
C329 C 0.75669 0.09422 0.46151 0.0
C330 C 0.79601 0.16201 0.47309 0.0
C331 C 0.8019 0.14828 0.50524 0.0
C332 C 0.78255 0.10876 0.51591 0.0
C333 C 0.75999 0.08221 0.4939 0.0
C334 C 0.81584 0.20413 0.46086 0.0
C335 C 0.78819 0.093 0.55 0.0
C336 C 0.90809 0.18459 0.54357 0.0
C337 C 0.8945 0.21966 0.56299 0.0
C338 C 0.87806 0.16073 0.52521 0.0
C339 C 0.83318 0.17213 0.52621 0.0
C340 C 0.81896 0.20692 0.54618 0.0
C341 C 0.84986 0.23034 0.56441 0.0
C342 C 0.89457 0.12374 0.50427 0.0
C343 C 0.77131 0.21983 0.54783 0.0
H344 H 0.7707 0.14447 0.42665 0.0
H345 H 0.74685 0.05104 0.50179 0.0
H346 H 0.80852 0.23164 0.47746 0.0
H347 H 0.85196 0.20063 0.45972 0.0
H348 H 0.80366 0.2128 0.43655 0.0
H349 H 0.76627 0.06501 0.55562 0.0
H350 H 0.82255 0.0823 0.55371 0.0
H351 H 0.7816 0.11995 0.56724 0.0
H352 H 0.94247 0.17588 0.54244 0.0
H353 H 0.8391 0.25732 0.57941 0.0
H354 H 0.88765 0.13113 0.4787 0.0
H355 H 0.87724 0.09286 0.51025 0.0
H356 H 0.93032 0.1182 0.50702 0.0
H357 H 0.76019 0.23151 0.52397 0.0
H358 H 0.76527 0.24616 0.56574 0.0
H359 H 0.75098 0.19097 0.55409 0.0
C360 C 0.80394 0.08795 0.95093 0.0
C361 C 0.75943 0.09089 0.94294 0.0
C362 C 0.82409 0.12002 0.96988 0.0
C363 C 0.79927 0.15623 0.98091 0.0
C364 C 0.75475 0.16035 0.972 0.0
C365 C 0.73523 0.12744 0.95319 0.0
C366 C 0.87168 0.11432 0.97897 0.0
C367 C 0.7275 0.19883 0.98302 0.0
C368 C 0.84673 0.20392 0.05697 0.0
C369 C 0.87404 0.23685 0.04474 0.0
C370 C 0.81973 0.1793 0.03662 0.0
C371 C 0.81984 0.18805 0.00328 0.0
C372 C 0.84456 0.22357 0.99116 0.0
C373 C 0.8715 0.24756 0.01207 0.0
C374 C 0.79376 0.14173 0.0505 0.0
C375 C 0.84502 0.23426 0.9558 0.0
H376 H 0.82296 0.05991 0.94307 0.0
H377 H 0.70088 0.13005 0.94696 0.0
H378 H 0.8907 0.1437 0.97186 0.0
H379 H 0.87468 0.11091 0.00539 0.0
H380 H 0.88669 0.08504 0.96751 0.0
H381 H 0.69465 0.19932 0.97157 0.0
H382 H 0.72316 0.19736 0.00942 0.0
H383 H 0.74446 0.23008 0.97754 0.0
H384 H 0.8481 0.19573 0.08226 0.0
H385 H 0.89215 0.27326 0.00246 0.0
H386 H 0.80861 0.11019 0.04281 0.0
H387 H 0.75962 0.14231 0.04144 0.0
H388 H 0.79305 0.14256 0.07715 0.0
H389 H 0.86423 0.20898 0.9428 0.0
H390 H 0.85993 0.26681 0.95101 0.0
H391 H 0.81134 0.23387 0.94583 0.0
C392 C 0.17711 0.05483 0.98204 0.0
C393 C 0.20127 0.07457 0.95738 0.0
C394 C 0.15691 0.08016 0.00589 0.0
C395 C 0.16145 0.12634 0.00531 0.0
C396 C 0.18726 0.14637 0.98124 0.0
C397 C 0.20662 0.12024 0.95738 0.0
C398 C 0.12919 0.05758 0.03089 0.0
C399 C 0.19328 0.19548 0.98013 0.0
C400 C 0.06827 0.19046 0.04256 0.0
C401 C 0.08467 0.19973 0.07331 0.0
C402 C 0.09335 0.16743 0.02005 0.0
C403 C 0.13614 0.15366 0.02828 0.0
C404 C 0.15353 0.16413 0.05885 0.0
C405 C 0.12747 0.1869 0.08112 0.0
C406 C 0.07347 0.15663 0.98777 0.0
C407 C 0.19924 0.15036 0.06828 0.0
H408 H 0.17275 0.01955 0.98219 0.0
H409 H 0.22554 0.13566 0.93853 0.0
H410 H 0.13944 0.06777 0.05532 0.0
H411 H 0.09445 0.06745 0.02788 0.0
H412 H 0.13127 0.02128 0.02922 0.0
H413 H 0.21768 0.20552 0.96182 0.0
H414 H 0.16159 0.21149 0.97444 0.0
H415 H 0.20397 0.20792 0.00391 0.0
H416 H 0.03526 0.20025 0.03624 0.0
H417 H 0.14043 0.19411 0.10476 0.0
H418 H 0.07111 0.12052 0.9849 0.0
H419 H 0.09469 0.169 0.96821 0.0
H420 H 0.04025 0.17093 0.98478 0.0
H421 H 0.2012 0.11406 0.06933 0.0
H422 H 0.20908 0.16383 0.09199 0.0
H423 H 0.22312 0.16141 0.04995 0.0
C424 C 0.12324 0.77972 0.00848 0.0
C425 C 0.10743 0.81123 0.03018 0.0
C426 C 0.14311 0.79236 0.97955 0.0
C427 C 0.14719 0.83748 0.9723 0.0
C428 C 0.13204 0.86937 0.99441 0.0
C429 C 0.11235 0.85584 0.02303 0.0
C430 C 0.1591 0.75757 0.95657 0.0
C431 C 0.13613 0.91792 0.98768 0.0
C432 C 0.22707 0.88897 0.91492 0.0
C433 C 0.19871 0.90317 0.89054 0.0
C434 C 0.21159 0.8636 0.9405 0.0
C435 C 0.16676 0.8522 0.94157 0.0
C436 C 0.13923 0.86212 0.9152 0.0
C437 C 0.15562 0.88746 0.88985 0.0
C438 C 0.24222 0.85307 0.96788 0.0
C439 C 0.09133 0.85005 0.91528 0.0
H440 H 0.11952 0.74516 0.01386 0.0
H441 H 0.10041 0.88038 0.03971 0.0
H442 H 0.14027 0.75944 0.93384 0.0
H443 H 0.19399 0.76324 0.95051 0.0
H444 H 0.15568 0.72399 0.96657 0.0
H445 H 0.12295 0.93842 0.0075 0.0
H446 H 0.171 0.92669 0.98397 0.0
H447 H 0.11826 0.92631 0.96532 0.0
H448 H 0.26068 0.90036 0.91531 0.0
H449 H 0.1336 0.89788 0.87092 0.0
H450 H 0.23676 0.81927 0.97681 0.0
H451 H 0.23578 0.87594 0.98807 0.0
H452 H 0.27709 0.85649 0.96077 0.0
H453 H 0.08662 0.81601 0.92394 0.0
H454 H 0.07645 0.85315 0.89105 0.0
H455 H 0.07348 0.8722 0.9319 0.0
C456 C 0.75361 0.89385 0.01191 0.0
C457 C 0.75851 0.88774 0.97873 0.0
C458 C 0.77749 0.86833 0.03384 0.0
C459 C 0.80699 0.83621 0.02223 0.0
C460 C 0.80941 0.82762 0.9889 0.0
C461 C 0.78505 0.85342 0.96756 0.0
C462 C 0.77349 0.87794 0.06925 0.0
C463 C 0.84038 0.79356 0.97551 0.0
C464 C 0.91418 0.81731 0.06535 0.0
C465 C 0.90832 0.77528 0.07829 0.0
C466 C 0.88076 0.83805 0.04812 0.0
C467 C 0.84014 0.81651 0.04399 0.0
C468 C 0.83305 0.77513 0.05843 0.0
C469 C 0.8674 0.75481 0.07532 0.0
C470 C 0.88976 0.88219 0.03304 0.0
C471 C 0.78989 0.75158 0.05497 0.0
H472 H 0.73279 0.91998 0.02078 0.0
H473 H 0.7886 0.84804 0.94197 0.0
H474 H 0.7721 0.84708 0.08328 0.0
H475 H 0.80276 0.89638 0.07741 0.0
H476 H 0.74397 0.89788 0.07474 0.0
H477 H 0.83461 0.78731 0.94958 0.0
H478 H 0.87462 0.80495 0.97863 0.0
H479 H 0.83704 0.76218 0.9887 0.0
H480 H 0.94555 0.83359 0.06768 0.0
H481 H 0.8625 0.72247 0.08545 0.0
H482 H 0.86434 0.90622 0.0403 0.0
H483 H 0.88843 0.87924 0.00651 0.0
H484 H 0.92234 0.89542 0.03986 0.0
H485 H 0.76226 0.7742 0.06002 0.0
H486 H 0.78751 0.72288 0.07127 0.0
H487 H 0.78607 0.73989 0.02991 0.0
C488 C 0.04238 0.12528 0.67379 0.0
C489 C 0.04509 0.17106 0.67115 0.0
C490 C 0.0602 0.10336 0.70037 0.0
C491 C 0.08133 0.12785 0.72472 0.0
C492 C 0.0828 0.17415 0.72273 0.0
C493 C 0.06458 0.1952 0.696 0.0
C494 C 0.05769 0.05395 0.70187 0.0
C495 C 0.10503 0.20139 0.74827 0.0
C496 C 0.10638 0.0793 0.8065 0.0
C497 C 0.15109 0.06956 0.80355 0.0
C498 C 0.08274 0.09696 0.78066 0.0
C499 C 0.10445 0.10519 0.75131 0.0
C500 C 0.14922 0.09418 0.74789 0.0
C501 C 0.17198 0.07642 0.77403 0.0
C502 C 0.03493 0.10799 0.78506 0.0
C503 C 0.17347 0.10246 0.71691 0.0
H504 H 0.02715 0.10642 0.65476 0.0
H505 H 0.06666 0.2306 0.69423 0.0
H506 H 0.09106 0.03985 0.69976 0.0
H507 H 0.04428 0.04334 0.72533 0.0
H508 H 0.03698 0.04007 0.68243 0.0
H509 H 0.1012 0.23716 0.74403 0.0
H510 H 0.09145 0.19347 0.77225 0.0
H511 H 0.14049 0.19353 0.74889 0.0
H512 H 0.08993 0.07383 0.82917 0.0
H513 H 0.20647 0.06881 0.7715 0.0
H514 H 0.01513 0.09301 0.7656 0.0
H515 H 0.03028 0.14402 0.78355 0.0
H516 H 0.02211 0.09652 0.80853 0.0
H517 H 0.15616 0.08659 0.69658 0.0
H518 H 0.20763 0.08998 0.71765 0.0
H519 H 0.17436 0.1382 0.71195 0.0
C520 C 0.03644 0.84076 0.21443 0.0
C521 C 0.06231 0.8235 0.18966 0.0
C522 C 0.05543 0.86434 0.23983 0.0
C523 C 0.10127 0.87099 0.24025 0.0
C524 C 0.12741 0.8544 0.21498 0.0
C525 C 0.10764 0.83071 0.19006 0.0
C526 C 0.02661 0.88135 0.26651 0.0
C527 C 0.1764 0.86111 0.21449 0.0
C528 C 0.15256 0.95911 0.29259 0.0
C529 C 0.16934 0.93403 0.31797 0.0
C530 C 0.12932 0.93921 0.2674 0.0
C531 C 0.12247 0.8933 0.26785 0.0
C532 C 0.13811 0.86808 0.29394 0.0
C533 C 0.16151 0.88872 0.31859 0.0
C534 C 0.11325 0.96706 0.23986 0.0
C535 C 0.13106 0.81909 0.29543 0.0
H536 H 0.00138 0.83538 0.21425 0.0
H537 H 0.12783 0.81779 0.17087 0.0
H538 H 0.03598 0.86559 0.2895 0.0
H539 H 0.03133 0.91718 0.26953 0.0
H540 H 0.99136 0.8749 0.26196 0.0
H541 H 0.19172 0.84797 0.1923 0.0
H542 H 0.18416 0.89655 0.2164 0.0
H543 H 0.1915 0.84458 0.23546 0.0
H544 H 0.15846 0.99414 0.292 0.0
H545 H 0.174 0.86916 0.33829 0.0
H546 H 0.07772 0.96182 0.23598 0.0
H547 H 0.13022 0.95719 0.21746 0.0
H548 H 0.11907 0.00258 0.24399 0.0
H549 H 0.09577 0.81137 0.2927 0.0
H550 H 0.1429 0.80472 0.31834 0.0
H551 H 0.14859 0.80294 0.27533 0.0
C552 C 0.92891 0.82835 0.71553 0.0
C553 C 0.93487 0.85147 0.6868 0.0
C554 C 0.91303 0.84939 0.74306 0.0
C555 C 0.9028 0.89464 0.7418 0.0
C556 C 0.91093 0.91869 0.71342 0.0
C557 C 0.92693 0.89679 0.6862 0.0
C558 C 0.90512 0.82269 0.773 0.0
C559 C 0.90064 0.96704 0.71127 0.0
C560 C 0.81156 0.92932 0.79767 0.0
C561 C 0.83489 0.94692 0.82366 0.0
C562 C 0.83333 0.91349 0.77047 0.0
C563 C 0.87958 0.91542 0.76914 0.0
C564 C 0.90329 0.93462 0.79473 0.0
C565 C 0.88063 0.95011 0.82177 0.0
C566 C 0.80686 0.89333 0.7436 0.0
C567 C 0.95262 0.93751 0.79398 0.0
H568 H 0.93541 0.7934 0.71629 0.0
H569 H 0.9317 0.91495 0.66414 0.0
H570 H 0.92032 0.83883 0.79411 0.0
H571 H 0.86942 0.82056 0.77765 0.0
H572 H 0.91838 0.78886 0.77095 0.0
H573 H 0.91358 0.98197 0.68891 0.0
H574 H 0.86465 0.97186 0.71181 0.0
H575 H 0.91452 0.98482 0.73217 0.0
H576 H 0.7762 0.92695 0.79883 0.0
H577 H 0.89887 0.96389 0.84168 0.0
H578 H 0.81504 0.85799 0.74135 0.0
H579 H 0.81512 0.90915 0.72043 0.0
H580 H 0.77105 0.89646 0.74761 0.0
H581 H 0.96683 0.90403 0.79485 0.0
H582 H 0.96586 0.95675 0.81445 0.0
H583 H 0.96369 0.95282 0.77127 0.0
C584 C 0.88528 0.05716 0.31861 0.0
C585 C 0.83987 0.05323 0.31445 0.0
C586 C 0.91181 0.07416 0.29412 0.0
C587 C 0.8923 0.08795 0.26502 0.0
C588 C 0.84673 0.08251 0.26027 0.0
C589 C 0.82111 0.06501 0.28498 0.0
C590 C 0.9604 0.07881 0.2998 0.0
C591 C 0.82467 0.09695 0.22957 0.0
C592 C 0.94017 0.17992 0.21549 0.0
C593 C 0.95554 0.1572 0.18847 0.0
C594 C 0.92148 0.15748 0.24138 0.0
C595 C 0.9185 0.11118 0.24036 0.0
C596 C 0.93669 0.08786 0.21419 0.0
C597 C 0.95486 0.11119 0.18843 0.0
C598 C 0.90248 0.18355 0.2689 0.0
C599 C 0.9348 0.03843 0.21257 0.0
H600 H 0.90006 0.04776 0.34124 0.0
H601 H 0.78608 0.06196 0.28153 0.0
H602 H 0.97904 0.06495 0.27933 0.0
H603 H 0.96899 0.11407 0.30157 0.0
H604 H 0.97111 0.06222 0.32219 0.0
H605 H 0.78933 0.08842 0.22906 0.0
H606 H 0.82788 0.133 0.22686 0.0
H607 H 0.84084 0.08153 0.20858 0.0
H608 H 0.94085 0.21546 0.21584 0.0
H609 H 0.96707 0.09336 0.16778 0.0
H610 H 0.91461 0.17071 0.29215 0.0
H611 H 0.86631 0.18017 0.26889 0.0
H612 H 0.9107 0.21897 0.26735 0.0
H613 H 0.94544 0.02381 0.23566 0.0
H614 H 0.95561 0.02507 0.19301 0.0
H615 H 0.90054 0.02789 0.20827 0.0
loop_
_geom_bond_atom_site_label_1
_geom_bond_atom_site_label_2
_geom_bond_distance
_geom_bond_site_symmetry_2
_ccdc_geom_bond_type
C0 O1 1.160 . S
C0 O7 1.185 . S
O1 C0 1.160 . S
O2 Zn3 1.899 1_655 S
O2 C10 1.284 . S
Zn3 O2 1.899 1_455 S
Zn3 O4 2.032 . S
Zn3 O7 2.086 . S
Zn3 O12 1.977 . S
O4 Zn3 2.032 . S
O4 C8 1.278 . S
C5 O6 1.203 . S
C5 O12 1.267 . S
O6 C5 1.203 . S
O7 C0 1.185 . S
O7 Zn3 2.086 . S
C8 O4 1.278 . S
C8 O9 1.211 . S
O9 C8 1.211 . S
C10 O2 1.284 . S
C10 O11 1.273 . S
O11 C10 1.273 . S
O12 Zn3 1.977 . S
O12 C5 1.267 . S
C13 O14 1.160 . S
C13 O20 1.185 . S
O14 C13 1.160 . S
O15 Zn16 1.899 1_545 S
O15 C23 1.284 . S
Zn16 O15 1.899 1_565 S
Zn16 O17 2.032 . S
Zn16 O20 2.086 . S
Zn16 O25 1.977 . S
O17 Zn16 2.032 . S
O17 C21 1.278 . S
C18 O19 1.203 . S
C18 O25 1.267 . S
O19 C18 1.203 . S
O20 C13 1.185 . S
O20 Zn16 2.086 . S
C21 O17 1.278 . S
C21 O22 1.211 . S
O22 C21 1.211 . S
C23 O15 1.284 . S
C23 O24 1.273 . S
O24 C23 1.273 . S
O25 Zn16 1.977 . S
O25 C18 1.267 . S
C26 O27 1.160 . S
C26 O33 1.185 . S
O27 C26 1.160 . S
O28 Zn29 1.899 1_455 S
O28 C36 1.284 . S
Zn29 O28 1.899 1_655 S
Zn29 O30 2.032 . S
Zn29 O33 2.086 . S
Zn29 O38 1.977 . S
O30 Zn29 2.032 . S
O30 C34 1.278 . S
C31 O32 1.203 . S
C31 O38 1.267 . S
O32 C31 1.203 . S
O33 C26 1.185 . S
O33 Zn29 2.086 . S
C34 O30 1.278 . S
C34 O35 1.211 . S
O35 C34 1.211 . S
C36 O28 1.284 . S
C36 O37 1.273 . S
O37 C36 1.273 . S
O38 Zn29 1.977 . S
O38 C31 1.267 . S
C39 O40 1.160 . S
C39 O46 1.185 . S
O40 C39 1.160 . S
O41 Zn42 1.899 1_565 S
O41 C49 1.284 . S
Zn42 O41 1.899 1_545 S
Zn42 O43 2.032 . S
Zn42 O46 2.086 . S
Zn42 O51 1.977 . S
O43 Zn42 2.032 . S
O43 C47 1.278 . S
C44 O45 1.203 . S
C44 O51 1.267 . S
O45 C44 1.203 . S
O46 C39 1.185 . S
O46 Zn42 2.086 . S
C47 O43 1.278 . S
C47 O48 1.211 . S
O48 C47 1.211 . S
C49 O41 1.284 . S
C49 O50 1.273 . S
O50 C49 1.273 . S
O51 Zn42 1.977 . S
O51 C44 1.267 . S
C52 O53 1.160 . S
C52 O59 1.185 . S
O53 C52 1.160 . S
O54 Zn55 1.899 1_455 S
O54 C62 1.284 . S
Zn55 O54 1.899 1_655 S
Zn55 O56 2.032 . S
Zn55 O59 2.086 . S
Zn55 O64 1.977 . S
O56 Zn55 2.032 . S
O56 C60 1.278 . S
C57 O58 1.203 . S
C57 O64 1.267 . S
O58 C57 1.203 . S
O59 C52 1.185 . S
O59 Zn55 2.086 . S
C60 O56 1.278 . S
C60 O61 1.211 . S
O61 C60 1.211 . S
C62 O54 1.284 . S
C62 O63 1.273 . S
O63 C62 1.273 . S
O64 Zn55 1.977 . S
O64 C57 1.267 . S
C65 O66 1.160 . S
C65 O72 1.185 . S
O66 C65 1.160 . S
O67 Zn68 1.899 1_565 S
O67 C75 1.284 . S
Zn68 O67 1.899 1_545 S
Zn68 O69 2.032 . S
Zn68 O72 2.086 . S
Zn68 O77 1.977 . S
O69 Zn68 2.032 . S
O69 C73 1.278 . S
C70 O71 1.203 . S
C70 O77 1.267 . S
O71 C70 1.203 . S
O72 C65 1.185 . S
O72 Zn68 2.086 . S
C73 O69 1.278 . S
C73 O74 1.211 . S
O74 C73 1.211 . S
C75 O67 1.284 . S
C75 O76 1.273 . S
O76 C75 1.273 . S
O77 Zn68 1.977 . S
O77 C70 1.267 . S
C78 O79 1.160 . S
C78 O85 1.185 . S
O79 C78 1.160 . S
O80 Zn81 1.899 1_655 S
O80 C88 1.284 . S
Zn81 O80 1.899 1_455 S
Zn81 O82 2.032 . S
Zn81 O85 2.086 . S
Zn81 O90 1.977 . S
O82 Zn81 2.032 . S
O82 C86 1.278 . S
C83 O84 1.203 . S
C83 O90 1.267 . S
O84 C83 1.203 . S
O85 C78 1.185 . S
O85 Zn81 2.086 . S
C86 O82 1.278 . S
C86 O87 1.211 . S
O87 C86 1.211 . S
C88 O80 1.284 . S
C88 O89 1.273 . S
O89 C88 1.273 . S
O90 Zn81 1.977 . S
O90 C83 1.267 . S
C91 O92 1.160 . S
C91 O98 1.185 . S
O92 C91 1.160 . S
O93 Zn94 1.899 1_545 S
O93 C101 1.284 . S
Zn94 O93 1.899 1_565 S
Zn94 O95 2.032 . S
Zn94 O98 2.086 . S
Zn94 O103 1.977 . S
O95 Zn94 2.032 . S
O95 C99 1.278 . S
C96 O97 1.203 . S
C96 O103 1.267 . S
O97 C96 1.203 . S
O98 C91 1.185 . S
O98 Zn94 2.086 . S
C99 O95 1.278 . S
C99 O100 1.211 . S
O100 C99 1.211 . S
C101 O93 1.284 . S
C101 O102 1.273 . S
O102 C101 1.273 . S
O103 Zn94 1.977 . S
O103 C96 1.267 . S
C104 C105 1.391 . S
C104 C106 1.394 . S
C104 H120 0.931 . S
C105 C104 1.391 . S
C105 C109 1.376 . S
C106 C104 1.394 . S
C106 C107 1.369 . S
C106 C110 1.531 1_655 S
C107 C106 1.369 . S
C107 C108 1.410 . S
C107 C115 1.503 1_655 S
C108 C107 1.410 . S
C108 C109 1.392 . S
C108 C111 1.511 . S
C109 C105 1.376 . S
C109 C108 1.392 . S
C109 H121 0.929 . S
C110 C106 1.531 1_455 S
C110 H122 0.960 . S
C110 H123 0.962 . S
C110 H124 0.960 . S
C111 C108 1.511 . S
C111 H125 0.961 . S
C111 H126 0.961 . S
C111 H127 0.961 . S
C112 C113 1.370 . S
C112 C114 1.363 . S
C112 H128 0.931 . S
C113 C112 1.370 . S
C113 C117 1.408 1_455 S
C114 C112 1.363 . S
C114 C115 1.370 . S
C114 C118 1.524 . S
C115 C107 1.503 1_455 S
C115 C114 1.370 . S
C115 C116 1.403 1_455 S
C116 C115 1.403 1_655 S
C116 C117 1.404 . S
C116 C119 1.539 . S
C117 C113 1.408 1_655 S
C117 C116 1.404 . S
C117 H129 0.930 . S
C118 C114 1.524 . S
C118 H130 0.956 . S
C118 H131 0.961 . S
C118 H132 0.961 . S
C119 C116 1.539 . S
C119 H133 0.958 . S
C119 H134 0.961 . S
C119 H135 0.960 . S
H120 C104 0.931 . S
H121 C109 0.929 . S
H122 C110 0.960 . S
H123 C110 0.962 . S
H124 C110 0.960 . S
H125 C111 0.961 . S
H126 C111 0.961 . S
H127 C111 0.961 . S
H128 C112 0.931 . S
H129 C117 0.930 . S
H130 C118 0.956 . S
H131 C118 0.961 . S
H132 C118 0.961 . S
H133 C119 0.958 . S
H134 C119 0.961 . S
H135 C119 0.960 . S
C136 C137 1.391 . S
C136 C138 1.394 . S
C136 H152 0.931 . S
C137 C136 1.391 . S
C137 C141 1.376 . S
C138 C136 1.394 . S
C138 C139 1.369 . S
C138 C142 1.531 . S
C139 C138 1.369 . S
C139 C140 1.410 1_545 S
C139 C147 1.503 1_545 S
C140 C139 1.410 1_565 S
C140 C141 1.392 1_565 S
C140 C143 1.511 . S
C141 C137 1.376 . S
C141 C140 1.392 1_545 S
C141 H153 0.925 1_545 S
C142 C138 1.531 . S
C142 H154 0.960 . S
C142 H155 0.962 . S
C142 H156 0.960 . S
C143 C140 1.511 . S
C143 H157 0.961 . S
C143 H158 0.961 . S
C143 H159 0.961 . S
C144 C145 1.370 . S
C144 C146 1.363 . S
C144 H160 0.931 . S
C145 C144 1.370 . S
C145 C149 1.407 1_565 S
C146 C144 1.363 . S
C146 C147 1.370 . S
C146 C150 1.524 . S
C147 C139 1.503 1_565 S
C147 C146 1.370 . S
C147 C148 1.403 1_565 S
C148 C147 1.403 1_545 S
C148 C149 1.405 . S
C148 C151 1.539 . S
C149 C145 1.407 1_545 S
C149 C148 1.405 . S
C149 H161 0.931 . S
C150 C146 1.524 . S
C150 H162 0.956 . S
C150 H163 0.961 . S
C150 H164 0.961 . S
C151 C148 1.539 . S
C151 H165 0.958 . S
C151 H166 0.961 . S
C151 H167 0.960 . S
H152 C136 0.931 . S
H153 C141 0.925 1_565 S
H154 C142 0.960 . S
H155 C142 0.962 . S
H156 C142 0.960 . S
H157 C143 0.961 . S
H158 C143 0.961 . S
H159 C143 0.961 . S
H160 C144 0.931 . S
H161 C149 0.931 . S
H162 C150 0.956 . S
H163 C150 0.961 . S
H164 C150 0.961 . S
H165 C151 0.958 . S
H166 C151 0.961 . S
H167 C151 0.960 . S
C168 C169 1.391 1_455 S
C168 C170 1.394 . S
C168 H184 0.931 . S
C169 C168 1.391 1_655 S
C169 C173 1.376 . S
C170 C168 1.394 . S
C170 C171 1.369 1_455 S
C170 C174 1.531 . S
C171 C170 1.369 1_655 S
C171 C172 1.410 . S
C171 C179 1.503 1_655 S
C172 C171 1.410 . S
C172 C173 1.392 . S
C172 C175 1.511 . S
C173 C169 1.376 . S
C173 C172 1.392 . S
C173 H185 0.929 . S
C174 C170 1.531 . S
C174 H186 0.960 . S
C174 H187 0.962 . S
C174 H188 0.960 . S
C175 C172 1.511 . S
C175 H189 0.961 . S
C175 H190 0.961 . S
C175 H191 0.961 . S
C176 C177 1.370 . S
C176 C178 1.363 . S
C176 H192 0.931 . S
C177 C176 1.370 . S
C177 C181 1.408 . S
C178 C176 1.363 . S
C178 C179 1.370 . S
C178 C182 1.524 . S
C179 C171 1.503 1_455 S
C179 C178 1.370 . S
C179 C180 1.403 . S
C180 C179 1.403 . S
C180 C181 1.404 . S
C180 C183 1.539 1_455 S
C181 C177 1.408 . S
C181 C180 1.404 . S
C181 H193 0.930 . S
C182 C178 1.524 . S
C182 H194 0.956 . S
C182 H195 0.972 . S
C182 H196 0.961 . S
C183 C180 1.539 1_655 S
C183 H197 0.958 1_655 S
C183 H198 0.961 . S
C183 H199 0.960 . S
H184 C168 0.931 . S
H185 C173 0.929 . S
H186 C174 0.960 . S
H187 C174 0.962 . S
H188 C174 0.960 . S
H189 C175 0.961 . S
H190 C175 0.961 . S
H191 C175 0.961 . S
H192 C176 0.931 . S
H193 C181 0.930 . S
H194 C182 0.956 . S
H195 C182 0.972 . S
H196 C182 0.961 . S
H197 C183 0.958 1_455 S
H198 C183 0.961 . S
H199 C183 0.960 . S
C200 C201 1.391 . S
C200 C202 1.394 . S
C200 H216 0.931 . S
C201 C200 1.391 . S
C201 C205 1.376 1_545 S
C202 C200 1.394 . S
C202 C203 1.369 . S
C202 C206 1.531 . S
C203 C202 1.369 . S
C203 C204 1.410 1_545 S
C203 C211 1.503 1_545 S
C204 C203 1.410 1_565 S
C204 C205 1.392 . S
C204 C207 1.511 . S
C205 C201 1.376 1_565 S
C205 C204 1.392 . S
C205 H217 0.929 . S
C206 C202 1.531 . S
C206 H218 0.960 . S
C206 H219 0.962 . S
C206 H220 0.960 . S
C207 C204 1.511 . S
C207 H221 0.961 . S
C207 H222 0.961 . S
C207 H223 0.961 . S
C208 C209 1.370 . S
C208 C210 1.363 . S
C208 H224 0.931 . S
C209 C208 1.370 . S
C209 C213 1.408 . S
C210 C208 1.363 . S
C210 C211 1.370 . S
C210 C214 1.524 1_565 S
C211 C203 1.503 1_565 S
C211 C210 1.370 . S
C211 C212 1.403 . S
C212 C211 1.403 . S
C212 C213 1.404 . S
C212 C215 1.539 . S
C213 C209 1.408 . S
C213 C212 1.404 . S
C213 H225 0.930 . S
C214 C210 1.524 1_545 S
C214 H226 0.956 . S
C214 H227 0.961 1_545 S
C214 H228 0.961 1_545 S
C215 C212 1.539 . S
C215 H229 0.958 1_565 S
C215 H230 0.961 . S
C215 H231 0.960 . S
H216 C200 0.931 . S
H217 C205 0.929 . S
H218 C206 0.960 . S
H219 C206 0.962 . S
H220 C206 0.960 . S
H221 C207 0.961 . S
H222 C207 0.961 . S
H223 C207 0.961 . S
H224 C208 0.931 . S
H225 C213 0.930 . S
H226 C214 0.956 . S
H227 C214 0.961 1_565 S
H228 C214 0.961 1_565 S
H229 C215 0.958 1_545 S
H230 C215 0.961 . S
H231 C215 0.960 . S
C232 C233 1.391 . S
C232 C234 1.394 . S
C232 H248 0.931 . S
C233 C232 1.391 . S
C233 C237 1.376 . S
C234 C232 1.394 . S
C234 C235 1.369 . S
C234 C238 1.531 . S
C235 C234 1.369 . S
C235 C236 1.410 . S
C235 C243 1.503 . S
C236 C235 1.410 . S
C236 C237 1.392 . S
C236 C239 1.511 . S
C237 C233 1.376 . S
C237 C236 1.392 . S
C237 H249 0.929 . S
C238 C234 1.531 . S
C238 H250 0.960 . S
C238 H251 0.962 . S
C238 H252 0.960 . S
C239 C236 1.511 . S
C239 H253 0.961 . S
C239 H254 0.961 . S
C239 H255 0.961 . S
C240 C241 1.370 . S
C240 C242 1.363 . S
C240 H256 0.931 . S
C241 C240 1.370 . S
C241 C245 1.408 . S
C242 C240 1.363 . S
C242 C243 1.370 . S
C242 C246 1.524 . S
C243 C235 1.503 . S
C243 C242 1.370 . S
C243 C244 1.403 . S
C244 C243 1.403 . S
C244 C245 1.404 . S
C244 C247 1.539 . S
C245 C241 1.408 . S
C245 C244 1.404 . S
C245 H257 0.930 . S
C246 C242 1.524 . S
C246 H258 0.956 . S
C246 H259 0.961 . S
C246 H260 0.961 . S
C247 C244 1.539 . S
C247 H261 0.958 . S
C247 H262 0.961 . S
C247 H263 0.960 . S
H248 C232 0.931 . S
H249 C237 0.929 . S
H250 C238 0.960 . S
H251 C238 0.962 . S
H252 C238 0.960 . S
H253 C239 0.961 . S
H254 C239 0.961 . S
H255 C239 0.961 . S
H256 C240 0.931 . S
H257 C245 0.930 . S
H258 C246 0.956 . S
H259 C246 0.961 . S
H260 C246 0.961 . S
H261 C247 0.958 . S
H262 C247 0.961 . S
H263 C247 0.960 . S
C264 C265 1.391 . S
C264 C266 1.394 . S
C264 H280 0.931 . S
C265 C264 1.391 . S
C265 C269 1.376 . S
C266 C264 1.394 . S
C266 C267 1.369 . S
C266 C270 1.531 . S
C267 C266 1.369 . S
C267 C268 1.410 . S
C267 C275 1.503 . S
C268 C267 1.410 . S
C268 C269 1.392 . S
C268 C271 1.511 . S
C269 C265 1.376 . S
C269 C268 1.392 . S
C269 H281 0.929 . S
C270 C266 1.531 . S
C270 H282 0.960 . S
C270 H283 0.962 . S
C270 H284 0.960 . S
C271 C268 1.511 . S
C271 H285 0.961 . S
C271 H286 0.961 . S
C271 H287 0.961 . S
C272 C273 1.370 . S
C272 C274 1.363 . S
C272 H288 0.931 . S
C273 C272 1.370 . S
C273 C277 1.408 . S
C274 C272 1.363 . S
C274 C275 1.370 . S
C274 C278 1.524 . S
C275 C267 1.503 . S
C275 C274 1.370 . S
C275 C276 1.403 . S
C276 C275 1.403 . S
C276 C277 1.404 . S
C276 C279 1.539 . S
C277 C273 1.408 . S
C277 C276 1.404 . S
C277 H289 0.930 . S
C278 C274 1.524 . S
C278 H290 0.956 . S
C278 H291 0.961 . S
C278 H292 0.961 . S
C279 C276 1.539 . S
C279 H293 0.958 . S
C279 H294 0.961 . S
C279 H295 0.960 . S
H280 C264 0.931 . S
H281 C269 0.929 . S
H282 C270 0.960 . S
H283 C270 0.962 . S
H284 C270 0.960 . S
H285 C271 0.961 . S
H286 C271 0.961 . S
H287 C271 0.961 . S
H288 C272 0.931 . S
H289 C277 0.930 . S
H290 C278 0.956 . S
H291 C278 0.961 . S
H292 C278 0.961 . S
H293 C279 0.958 . S
H294 C279 0.961 . S
H295 C279 0.960 . S
C296 C297 1.391 . S
C296 C298 1.394 . S
C296 H312 0.931 . S
C297 C296 1.391 . S
C297 C301 1.376 . S
C298 C296 1.394 . S
C298 C299 1.369 . S
C298 C302 1.531 . S
C299 C298 1.369 . S
C299 C300 1.410 . S
C299 C307 1.503 . S
C300 C299 1.410 . S
C300 C301 1.392 . S
C300 C303 1.511 . S
C301 C297 1.376 . S
C301 C300 1.392 . S
C301 H313 0.929 . S
C302 C298 1.531 . S
C302 H314 0.960 . S
C302 H315 0.962 . S
C302 H316 0.960 . S
C303 C300 1.511 . S
C303 H317 0.961 . S
C303 H318 0.961 . S
C303 H319 0.961 . S
C304 C305 1.370 . S
C304 C306 1.363 . S
C304 H320 0.931 . S
C305 C304 1.370 . S
C305 C309 1.408 . S
C306 C304 1.363 . S
C306 C307 1.370 . S
C306 C310 1.524 . S
C307 C299 1.503 . S
C307 C306 1.370 . S
C307 C308 1.403 . S
C308 C307 1.403 . S
C308 C309 1.404 . S
C308 C311 1.539 . S
C309 C305 1.408 . S
C309 C308 1.404 . S
C309 H321 0.930 . S
C310 C306 1.524 . S
C310 H322 0.956 . S
C310 H323 0.961 . S
C310 H324 0.961 . S
C311 C308 1.539 . S
C311 H325 0.958 . S
C311 H326 0.961 . S
C311 H327 0.960 . S
H312 C296 0.931 . S
H313 C301 0.929 . S
H314 C302 0.960 . S
H315 C302 0.962 . S
H316 C302 0.960 . S
H317 C303 0.961 . S
H318 C303 0.961 . S
H319 C303 0.961 . S
H320 C304 0.931 . S
H321 C309 0.930 . S
H322 C310 0.956 . S
H323 C310 0.961 . S
H324 C310 0.961 . S
H325 C311 0.958 . S
H326 C311 0.961 . S
H327 C311 0.960 . S
C328 C329 1.391 . S
C328 C330 1.394 . S
C328 H344 0.931 . S
C329 C328 1.391 . S
C329 C333 1.376 . S
C330 C328 1.394 . S
C330 C331 1.369 . S
C330 C334 1.531 . S
C331 C330 1.369 . S
C331 C332 1.410 . S
C331 C339 1.503 . S
C332 C331 1.410 . S
C332 C333 1.392 . S
C332 C335 1.511 . S
C333 C329 1.376 . S
C333 C332 1.392 . S
C333 H345 0.929 . S
C334 C330 1.531 . S
C334 H346 0.960 . S
C334 H347 0.962 . S
C334 H348 0.960 . S
C335 C332 1.511 . S
C335 H349 0.961 . S
C335 H350 0.961 . S
C335 H351 0.961 . S
C336 C337 1.370 . S
C336 C338 1.363 . S
C336 H352 0.931 . S
C337 C336 1.370 . S
C337 C341 1.408 . S
C338 C336 1.363 . S
C338 C339 1.370 . S
C338 C342 1.524 . S
C339 C331 1.503 . S
C339 C338 1.370 . S
C339 C340 1.403 . S
C340 C339 1.403 . S
C340 C341 1.404 . S
C340 C343 1.539 . S
C341 C337 1.408 . S
C341 C340 1.404 . S
C341 H353 0.930 . S
C342 C338 1.524 . S
C342 H354 0.956 . S
C342 H355 0.961 . S
C342 H356 0.961 . S
C343 C340 1.539 . S
C343 H357 0.958 . S
C343 H358 0.961 . S
C343 H359 0.960 . S
H344 C328 0.931 . S
H345 C333 0.929 . S
H346 C334 0.960 . S
H347 C334 0.962 . S
H348 C334 0.960 . S
H349 C335 0.961 . S
H350 C335 0.961 . S
H351 C335 0.961 . S
H352 C336 0.931 . S
H353 C341 0.930 . S
H354 C342 0.956 . S
H355 C342 0.961 . S
H356 C342 0.961 . S
H357 C343 0.958 . S
H358 C343 0.961 . S
H359 C343 0.960 . S
C360 C361 1.391 . S
C360 C362 1.394 . S
C360 H376 0.931 . S
C361 C360 1.391 . S
C361 C365 1.376 . S
C362 C360 1.394 . S
C362 C363 1.369 . S
C362 C366 1.531 . S
C363 C362 1.369 . S
C363 C364 1.410 . S
C363 C371 1.503 . S
C364 C363 1.410 . S
C364 C365 1.392 . S
C364 C367 1.511 . S
C365 C361 1.376 . S
C365 C364 1.392 . S
C365 H377 0.929 . S
C366 C362 1.531 . S
C366 H378 0.960 1_556 S
C366 H379 0.962 1_556 S
C366 H380 0.960 . S
C367 C364 1.511 . S
C367 H381 0.961 . S
C367 H382 0.961 . S
C367 H383 0.961 . S
C368 C369 1.370 . S
C368 C370 1.363 . S
C368 H384 0.931 . S
C369 C368 1.370 . S
C369 C373 1.408 . S
C370 C368 1.363 . S
C370 C371 1.370 1_554 S
C370 C374 1.524 . S
C371 C363 1.503 . S
C371 C370 1.370 1_556 S
C371 C372 1.403 . S
C372 C371 1.403 . S
C372 C373 1.404 1_556 S
C372 C375 1.539 . S
C373 C369 1.408 . S
C373 C372 1.404 1_554 S
C373 H385 0.930 . S
C374 C370 1.524 . S
C374 H386 0.956 . S
C374 H387 0.961 . S
C374 H388 0.961 . S
C375 C372 1.539 . S
C375 H389 0.958 . S
C375 H390 0.961 . S
C375 H391 0.960 . S
H376 C360 0.931 . S
H377 C365 0.929 . S
H378 C366 0.960 1_554 S
H379 C366 0.962 1_554 S
H380 C366 0.960 . S
H381 C367 0.961 . S
H382 C367 0.961 . S
H383 C367 0.961 . S
H384 C368 0.931 . S
H385 C373 0.930 . S
H386 C374 0.956 . S
H387 C374 0.961 . S
H388 C374 0.961 . S
H389 C375 0.958 . S
H390 C375 0.961 . S
H391 C375 0.960 . S
C392 C393 1.391 . S
C392 C394 1.394 . S
C392 H408 0.931 . S
C393 C392 1.391 . S
C393 C397 1.376 . S
C394 C392 1.394 . S
C394 C395 1.369 1_556 S
C394 C398 1.531 1_556 S
C395 C394 1.369 1_554 S
C395 C396 1.410 1_554 S
C395 C403 1.503 . S
C396 C395 1.410 1_556 S
C396 C397 1.392 . S
C396 C399 1.511 1_556 S
C397 C393 1.376 . S
C397 C396 1.392 . S
C397 H409 0.929 . S
C398 C394 1.531 1_554 S
C398 H410 0.960 . S
C398 H411 0.962 . S
C398 H412 0.960 . S
C399 C396 1.511 1_554 S
C399 H413 0.961 1_554 S
C399 H414 0.961 . S
C399 H415 0.961 . S
C400 C401 1.370 . S
C400 C402 1.363 . S
C400 H416 0.931 . S
C401 C400 1.370 . S
C401 C405 1.408 . S
C402 C400 1.363 . S
C402 C403 1.370 . S
C402 C406 1.524 1_554 S
C403 C395 1.503 . S
C403 C402 1.370 . S
C403 C404 1.403 . S
C404 C403 1.403 . S
C404 C405 1.404 . S
C404 C407 1.539 . S
C405 C401 1.408 . S
C405 C404 1.404 . S
C405 H417 0.930 . S
C406 C402 1.524 1_556 S
C406 H418 0.956 . S
C406 H419 0.961 . S
C406 H420 0.961 . S
C407 C404 1.539 . S
C407 H421 0.958 . S
C407 H422 0.961 . S
C407 H423 0.960 . S
H408 C392 0.931 . S
H409 C397 0.929 . S
H410 C398 0.960 . S
H411 C398 0.962 . S
H412 C398 0.960 . S
H413 C399 0.961 1_556 S
H414 C399 0.961 . S
H415 C399 0.961 . S
H416 C400 0.931 . S
H417 C405 0.930 . S
H418 C406 0.956 . S
H419 C406 0.961 . S
H420 C406 0.961 . S
H421 C407 0.958 . S
H422 C407 0.961 . S
H423 C407 0.960 . S
C424 C425 1.391 . S
C424 C426 1.394 1_554 S
C424 H440 0.931 . S
C425 C424 1.391 . S
C425 C429 1.376 . S
C426 C424 1.394 1_556 S
C426 C427 1.369 . S
C426 C430 1.531 . S
C427 C426 1.369 . S
C427 C428 1.410 1_556 S
C427 C435 1.503 . S
C428 C427 1.410 1_554 S
C428 C429 1.392 . S
C428 C431 1.511 . S
C429 C425 1.376 . S
C429 C428 1.392 . S
C429 H441 0.929 . S
C430 C426 1.531 . S
C430 H442 0.960 . S
C430 H443 0.962 . S
C430 H444 0.960 . S
C431 C428 1.511 . S
C431 H445 0.961 . S
C431 H446 0.961 . S
C431 H447 0.961 1_554 S
C432 C433 1.370 . S
C432 C434 1.363 . S
C432 H448 0.931 . S
C433 C432 1.370 . S
C433 C437 1.408 . S
C434 C432 1.363 . S
C434 C435 1.370 . S
C434 C438 1.524 1_556 S
C435 C427 1.503 . S
C435 C434 1.370 . S
C435 C436 1.403 . S
C436 C435 1.403 . S
C436 C437 1.404 . S
C436 C439 1.539 . S
C437 C433 1.408 . S
C437 C436 1.404 . S
C437 H449 0.930 . S
C438 C434 1.524 1_554 S
C438 H450 0.956 . S
C438 H451 0.961 . S
C438 H452 0.961 . S
C439 C436 1.539 . S
C439 H453 0.958 . S
C439 H454 0.961 . S
C439 H455 0.960 . S
H440 C424 0.931 . S
H441 C429 0.929 . S
H442 C430 0.960 . S
H443 C430 0.962 . S
H444 C430 0.960 . S
H445 C431 0.961 . S
H446 C431 0.961 . S
H447 C431 0.961 1_556 S
H448 C432 0.931 . S
H449 C437 0.930 . S
H450 C438 0.956 . S
H451 C438 0.961 . S
H452 C438 0.961 . S
H453 C439 0.958 . S
H454 C439 0.961 . S
H455 C439 0.960 . S
C456 C457 1.391 . S
C456 C458 1.394 . S
C456 H472 0.931 . S
C457 C456 1.391 . S
C457 C461 1.376 . S
C458 C456 1.394 . S
C458 C459 1.369 1_556 S
C458 C462 1.531 1_556 S
C459 C458 1.369 1_554 S
C459 C460 1.410 1_554 S
C459 C467 1.503 . S
C460 C459 1.410 1_556 S
C460 C461 1.392 . S
C460 C463 1.511 1_556 S
C461 C457 1.376 . S
C461 C460 1.392 . S
C461 H473 0.929 . S
C462 C458 1.531 1_554 S
C462 H474 0.960 . S
C462 H475 0.962 1_554 S
C462 H476 0.960 . S
C463 C460 1.511 1_554 S
C463 H477 0.961 1_554 S
C463 H478 0.961 . S
C463 H479 0.961 . S
C464 C465 1.370 . S
C464 C466 1.363 . S
C464 H480 0.931 . S
C465 C464 1.370 . S
C465 C469 1.408 . S
C466 C464 1.363 . S
C466 C467 1.370 . S
C466 C470 1.524 1_554 S
C467 C459 1.503 . S
C467 C466 1.370 . S
C467 C468 1.403 . S
C468 C467 1.403 . S
C468 C469 1.404 . S
C468 C471 1.539 . S
C469 C465 1.408 . S
C469 C468 1.404 . S
C469 H481 0.930 . S
C470 C466 1.524 1_556 S
C470 H482 0.956 . S
C470 H483 0.961 . S
C470 H484 0.961 . S
C471 C468 1.539 . S
C471 H485 0.958 . S
C471 H486 0.961 . S
C471 H487 0.960 . S
H472 C456 0.931 . S
H473 C461 0.929 . S
H474 C462 0.960 . S
H475 C462 0.962 1_556 S
H476 C462 0.960 . S
H477 C463 0.961 1_556 S
H478 C463 0.961 . S
H479 C463 0.961 . S
H480 C464 0.931 . S
H481 C469 0.930 . S
H482 C470 0.956 . S
H483 C470 0.961 . S
H484 C470 0.961 . S
H485 C471 0.958 . S
H486 C471 0.961 . S
H487 C471 0.960 . S
C488 C489 1.391 . S
C488 C490 1.394 . S
C488 H504 0.931 . S
C489 C488 1.391 . S
C489 C493 1.376 . S
C490 C488 1.394 . S
C490 C491 1.369 . S
C490 C494 1.531 . S
C491 C490 1.369 . S
C491 C492 1.410 . S
C491 C499 1.503 . S
C492 C491 1.410 . S
C492 C493 1.392 . S
C492 C495 1.511 . S
C493 C489 1.376 . S
C493 C492 1.392 . S
C493 H505 0.929 . S
C494 C490 1.531 . S
C494 H506 0.960 . S
C494 H507 0.962 . S
C494 H508 0.960 . S
C495 C492 1.511 . S
C495 H509 0.961 . S
C495 H510 0.961 . S
C495 H511 0.961 . S
C496 C497 1.370 . S
C496 C498 1.363 . S
C496 H512 0.931 . S
C497 C496 1.370 . S
C497 C501 1.408 . S
C498 C496 1.363 . S
C498 C499 1.370 . S
C498 C502 1.524 . S
C499 C491 1.503 . S
C499 C498 1.370 . S
C499 C500 1.403 . S
C500 C499 1.403 . S
C500 C501 1.404 . S
C500 C503 1.539 . S
C501 C497 1.408 . S
C501 C500 1.404 . S
C501 H513 0.930 . S
C502 C498 1.524 . S
C502 H514 0.956 . S
C502 H515 0.961 . S
C502 H516 0.961 . S
C503 C500 1.539 . S
C503 H517 0.958 . S
C503 H518 0.961 . S
C503 H519 0.960 . S
H504 C488 0.931 . S
H505 C493 0.929 . S
H506 C494 0.960 . S
H507 C494 0.962 . S
H508 C494 0.960 . S
H509 C495 0.961 . S
H510 C495 0.961 . S
H511 C495 0.961 . S
H512 C496 0.931 . S
H513 C501 0.930 . S
H514 C502 0.956 . S
H515 C502 0.961 . S
H516 C502 0.961 . S
H517 C503 0.958 . S
H518 C503 0.961 . S
H519 C503 0.960 . S
C520 C521 1.391 . S
C520 C522 1.394 . S
C520 H536 0.931 . S
C521 C520 1.391 . S
C521 C525 1.376 . S
C522 C520 1.394 . S
C522 C523 1.369 . S
C522 C526 1.531 . S
C523 C522 1.369 . S
C523 C524 1.410 . S
C523 C531 1.503 . S
C524 C523 1.410 . S
C524 C525 1.392 . S
C524 C527 1.511 . S
C525 C521 1.376 . S
C525 C524 1.392 . S
C525 H537 0.929 . S
C526 C522 1.531 . S
C526 H538 0.960 . S
C526 H539 0.962 . S
C526 H540 0.960 . S
C527 C524 1.511 . S
C527 H541 0.961 . S
C527 H542 0.961 . S
C527 H543 0.961 . S
C528 C529 1.370 . S
C528 C530 1.363 . S
C528 H544 0.931 . S
C529 C528 1.370 . S
C529 C533 1.408 . S
C530 C528 1.363 . S
C530 C531 1.370 . S
C530 C534 1.524 . S
C531 C523 1.503 . S
C531 C530 1.370 . S
C531 C532 1.403 . S
C532 C531 1.403 . S
C532 C533 1.404 . S
C532 C535 1.539 . S
C533 C529 1.408 . S
C533 C532 1.404 . S
C533 H545 0.930 . S
C534 C530 1.524 . S
C534 H546 0.956 . S
C534 H547 0.961 . S
C534 H548 0.961 . S
C535 C532 1.539 . S
C535 H549 0.958 . S
C535 H550 0.961 . S
C535 H551 0.960 . S
H536 C520 0.931 . S
H537 C525 0.929 . S
H538 C526 0.960 . S
H539 C526 0.962 . S
H540 C526 0.960 . S
H541 C527 0.961 . S
H542 C527 0.961 . S
H543 C527 0.961 . S
H544 C528 0.931 . S
H545 C533 0.930 . S
H546 C534 0.956 . S
H547 C534 0.961 . S
H548 C534 0.961 . S
H549 C535 0.958 . S
H550 C535 0.961 . S
H551 C535 0.960 . S
C552 C553 1.391 . S
C552 C554 1.394 . S
C552 H568 0.931 . S
C553 C552 1.391 . S
C553 C557 1.376 . S
C554 C552 1.394 . S
C554 C555 1.369 . S
C554 C558 1.531 . S
C555 C554 1.369 . S
C555 C556 1.410 . S
C555 C563 1.503 . S
C556 C555 1.410 . S
C556 C557 1.392 . S
C556 C559 1.511 . S
C557 C553 1.376 . S
C557 C556 1.392 . S
C557 H569 0.929 . S
C558 C554 1.531 . S
C558 H570 0.960 . S
C558 H571 0.962 . S
C558 H572 0.960 . S
C559 C556 1.511 . S
C559 H573 0.961 . S
C559 H574 0.961 . S
C559 H575 0.961 . S
C560 C561 1.370 . S
C560 C562 1.363 . S
C560 H576 0.931 . S
C561 C560 1.370 . S
C561 C565 1.408 . S
C562 C560 1.363 . S
C562 C563 1.370 . S
C562 C566 1.524 . S
C563 C555 1.503 . S
C563 C562 1.370 . S
C563 C564 1.403 . S
C564 C563 1.403 . S
C564 C565 1.404 . S
C564 C567 1.539 . S
C565 C561 1.408 . S
C565 C564 1.404 . S
C565 H577 0.930 . S
C566 C562 1.524 . S
C566 H578 0.956 . S
C566 H579 0.961 . S
C566 H580 0.961 . S
C567 C564 1.539 . S
C567 H581 0.958 . S
C567 H582 0.961 . S
C567 H583 0.960 . S
H568 C552 0.931 . S
H569 C557 0.929 . S
H570 C558 0.960 . S
H571 C558 0.962 . S
H572 C558 0.960 . S
H573 C559 0.961 . S
H574 C559 0.961 . S
H575 C559 0.961 . S
H576 C560 0.931 . S
H577 C565 0.930 . S
H578 C566 0.956 . S
H579 C566 0.961 . S
H580 C566 0.961 . S
H581 C567 0.958 . S
H582 C567 0.961 . S
H583 C567 0.960 . S
C584 C585 1.391 . S
C584 C586 1.394 . S
C584 H600 0.931 . S
C585 C584 1.391 . S
C585 C589 1.376 . S
C586 C584 1.394 . S
C586 C587 1.369 . S
C586 C590 1.531 . S
C587 C586 1.369 . S
C587 C588 1.410 . S
C587 C595 1.503 . S
C588 C587 1.410 . S
C588 C589 1.392 . S
C588 C591 1.511 . S
C589 C585 1.376 . S
C589 C588 1.392 . S
C589 H601 0.929 . S
C590 C586 1.531 . S
C590 H602 0.960 . S
C590 H603 0.962 . S
C590 H604 0.960 . S
C591 C588 1.511 . S
C591 H605 0.961 . S
C591 H606 0.961 . S
C591 H607 0.961 . S
C592 C593 1.370 . S
C592 C594 1.363 . S
C592 H608 0.931 . S
C593 C592 1.370 . S
C593 C597 1.408 . S
C594 C592 1.363 . S
C594 C595 1.370 . S
C594 C598 1.524 . S
C595 C587 1.503 . S
C595 C594 1.370 . S
C595 C596 1.403 . S
C596 C595 1.403 . S
C596 C597 1.404 . S
C596 C599 1.539 . S
C597 C593 1.408 . S
C597 C596 1.404 . S
C597 H609 0.930 . S
C598 C594 1.524 . S
C598 H610 0.956 . S
C598 H611 0.961 . S
C598 H612 0.961 . S
C599 C596 1.539 . S
C599 H613 0.958 . S
C599 H614 0.961 . S
C599 H615 0.960 . S
H600 C584 0.931 . S
H601 C589 0.929 . S
H602 C590 0.960 . S
H603 C590 0.962 . S
H604 C590 0.960 . S
H605 C591 0.961 . S
H606 C591 0.961 . S
H607 C591 0.961 . S
H608 C592 0.931 . S
H609 C597 0.930 . S
H610 C598 0.956 . S
H611 C598 0.961 . S
H612 C598 0.961 . S
H613 C599 0.958 . S
H614 C599 0.961 . S
H615 C599 0.960 . S
C105 C26 1.298 . S
C113 C0 1.245 . S
C137 C39 1.296 . S
C145 C13 1.252 . S
C169 C52 1.260 . S
C177 C78 1.246 . S
C201 C65 1.240 . S
C209 C91 1.259 . S
C233 C23 0.865 . S
C241 C5 0.820 . S
C265 C18 0.882 . S
C273 C36 0.856 . S
C297 C49 0.820 . S
C305 C31 0.803 . S
C329 C44 0.847 . S
C337 C10 0.854 . S
C361 C101 0.850 . S
C369 C57 0.809 . S
C393 C70 0.841 . S
C401 C62 0.856 . S
C425 C83 0.802 . S
C433 C75 0.849 . S
C457 C96 0.829 . S
C465 C88 0.855 . S
C489 C8 1.592 . S
C497 C73 1.645 . S
C521 C86 1.645 . S
C529 C21 1.621 . S
C553 C34 1.603 . S
C561 C99 1.643 . S
C585 C47 1.657 . S
C593 C60 1.616 . S
