# Generated by pormake.
# Topology ukk, (4)-cn, num edge types: 1
# Building blocks:
#     Node 0, Type 0, BuildingBlock: QUQFOY_clean_sbu_1, # of connection points: 4
#     Node 1, Type 0, BuildingBlock: QUQFOY_clean_sbu_1, # of connection points: 4
#     Node 2, Type 0, BuildingBlock: QUQFOY_clean_sbu_1, # of connection points: 4
#     Node 3, Type 0, BuildingBlock: QUQFOY_clean_sbu_1, # of connection points: 4
#     Node 4, Type 0, BuildingBlock: QUQFOY_clean_sbu_1, # of connection points: 4
#     Node 5, Type 0, BuildingBlock: QUQFOY_clean_sbu_1, # of connection points: 4
#     Node 6, Type 0, BuildingBlock: QUQFOY_clean_sbu_1, # of connection points: 4
#     Node 7, Type 0, BuildingBlock: QUQFOY_clean_sbu_1, # of connection points: 4
#     Node 8, Type 0, BuildingBlock: QUQFOY_clean_sbu_1, # of connection points: 4
#     Node 9, Type 0, BuildingBlock: QUQFOY_clean_sbu_1, # of connection points: 4
#     Node 10, Type 0, BuildingBlock: QUQFOY_clean_sbu_1, # of connection points: 4
#     Node 11, Type 0, BuildingBlock: QUQFOY_clean_sbu_1, # of connection points: 4
#     Node 12, Type 0, BuildingBlock: QUQFOY_clean_sbu_1, # of connection points: 4
#     Node 13, Type 0, BuildingBlock: QUQFOY_clean_sbu_1, # of connection points: 4
#     Node 14, Type 0, BuildingBlock: QUQFOY_clean_sbu_1, # of connection points: 4
#     Node 15, Type 0, BuildingBlock: QUQFOY_clean_sbu_1, # of connection points: 4
#     Edge 16, Type (0, 0), BuildingBlock: KIFKEQ_clean_linker_1, # of connection points: 2
#     Edge 17, Type (0, 0), BuildingBlock: KIFKEQ_clean_linker_1, # of connection points: 2
#     Edge 18, Type (0, 0), BuildingBlock: KIFKEQ_clean_linker_1, # of connection points: 2
#     Edge 19, Type (0, 0), BuildingBlock: KIFKEQ_clean_linker_1, # of connection points: 2
#     Edge 20, Type (0, 0), BuildingBlock: KIFKEQ_clean_linker_1, # of connection points: 2
#     Edge 21, Type (0, 0), BuildingBlock: KIFKEQ_clean_linker_1, # of connection points: 2
#     Edge 22, Type (0, 0), BuildingBlock: KIFKEQ_clean_linker_1, # of connection points: 2
#     Edge 23, Type (0, 0), BuildingBlock: KIFKEQ_clean_linker_1, # of connection points: 2
#     Edge 24, Type (0, 0), BuildingBlock: KIFKEQ_clean_linker_1, # of connection points: 2
#     Edge 25, Type (0, 0), BuildingBlock: KIFKEQ_clean_linker_1, # of connection points: 2
#     Edge 26, Type (0, 0), BuildingBlock: KIFKEQ_clean_linker_1, # of connection points: 2
#     Edge 27, Type (0, 0), BuildingBlock: KIFKEQ_clean_linker_1, # of connection points: 2
#     Edge 28, Type (0, 0), BuildingBlock: KIFKEQ_clean_linker_1, # of connection points: 2
#     Edge 29, Type (0, 0), BuildingBlock: KIFKEQ_clean_linker_1, # of connection points: 2
#     Edge 30, Type (0, 0), BuildingBlock: KIFKEQ_clean_linker_1, # of connection points: 2
#     Edge 31, Type (0, 0), BuildingBlock: KIFKEQ_clean_linker_1, # of connection points: 2
#     Edge 32, Type (0, 0), BuildingBlock: KIFKEQ_clean_linker_1, # of connection points: 2
#     Edge 33, Type (0, 0), BuildingBlock: KIFKEQ_clean_linker_1, # of connection points: 2
#     Edge 34, Type (0, 0), BuildingBlock: KIFKEQ_clean_linker_1, # of connection points: 2
#     Edge 35, Type (0, 0), BuildingBlock: KIFKEQ_clean_linker_1, # of connection points: 2
#     Edge 36, Type (0, 0), BuildingBlock: KIFKEQ_clean_linker_1, # of connection points: 2
#     Edge 37, Type (0, 0), BuildingBlock: KIFKEQ_clean_linker_1, # of connection points: 2
#     Edge 38, Type (0, 0), BuildingBlock: KIFKEQ_clean_linker_1, # of connection points: 2
#     Edge 39, Type (0, 0), BuildingBlock: KIFKEQ_clean_linker_1, # of connection points: 2
#     Edge 40, Type (0, 0), BuildingBlock: KIFKEQ_clean_linker_1, # of connection points: 2
#     Edge 41, Type (0, 0), BuildingBlock: KIFKEQ_clean_linker_1, # of connection points: 2
#     Edge 42, Type (0, 0), BuildingBlock: KIFKEQ_clean_linker_1, # of connection points: 2
#     Edge 43, Type (0, 0), BuildingBlock: KIFKEQ_clean_linker_1, # of connection points: 2
#     Edge 44, Type (0, 0), BuildingBlock: KIFKEQ_clean_linker_1, # of connection points: 2
#     Edge 45, Type (0, 0), BuildingBlock: KIFKEQ_clean_linker_1, # of connection points: 2
#     Edge 46, Type (0, 0), BuildingBlock: KIFKEQ_clean_linker_1, # of connection points: 2
#     Edge 47, Type (0, 0), BuildingBlock: KIFKEQ_clean_linker_1, # of connection points: 2
# Relax obj value: 0.045
# Max RMSD: 0.180
# Mean RMSD: 0.180
data_MOF--net-ukk--node1-QUQFOY_clean_sbu_1--edge1-KIFKEQ_clean_linker_1
_symmetry_space_group_name_H-M    P1
_symmetry_Int_Tables_number       1
_symmetry_cell_setting            triclinic
loop_
_symmetry_equiv_pos_as_xyz
'x, y, z'
_cell_length_a     51.945005
_cell_length_b     51.944491
_cell_length_c     24.130891
_cell_angle_alpha  89.937098
_cell_angle_beta   89.967373
_cell_angle_gamma 89.935323
loop_
_atom_site_label
_atom_site_type_symbol
_atom_site_fract_x
_atom_site_fract_y
_atom_site_fract_z
_atom_type_partial_charge
O0 O 0.33773 0.16146 0.11135 0.0
Cd1 Cd 0.35554 0.12679 0.09754 0.0
Cd2 Cd 0.34732 0.12456 0.20454 0.0
O3 O 0.31925 0.15247 0.19126 0.0
O4 O 0.34911 0.12013 1.01667 0.0
O5 O 0.33042 0.09796 0.08375 0.0
C6 C 0.33193 0.10353 0.03163 0.0
C7 C 0.34418 0.08357 0.24392 0.0
C8 C 0.32194 0.16733 0.14957 0.0
C9 C 0.40107 0.13557 0.16673 0.0
O10 O 0.38408 0.13876 0.20399 0.0
O11 O 0.39472 0.12616 0.11978 0.0
O12 O 0.34359 0.10393 0.27468 0.0
O13 O 0.34433 0.08673 0.19076 0.0
O14 O 0.16248 0.68151 0.9431 0.0
Cd15 Cd 0.1285 0.66323 0.96084 0.0
Cd16 Cd 0.12277 0.66998 0.85106 0.0
O17 O 0.15413 0.69456 0.85774 0.0
O18 O 0.1224 0.67081 0.0412 0.0
O19 O 0.09899 0.68767 0.9737 0.0
C20 C 0.10501 0.6871 1.02569 0.0
C21 C 0.08353 0.67709 0.80659 0.0
C22 C 0.16868 0.69433 0.90026 0.0
C23 C 0.13132 0.61574 0.89312 0.0
O24 O 0.1315 0.6316 0.85307 0.0
O25 O 0.12784 0.6237 0.94259 0.0
O26 O 0.10445 0.67383 0.77852 0.0
O27 O 0.08542 0.67891 0.85988 0.0
O28 O 0.6768 0.8601 0.1097 0.0
Cd29 Cd 0.66057 0.89532 0.0947 0.0
Cd30 Cd 0.66901 0.89921 0.2031 0.0
O31 O 0.69378 0.86803 0.19168 0.0
O32 O 0.66831 0.90233 1.01466 0.0
O33 O 0.68663 0.92346 0.08369 0.0
C34 C 0.68564 0.91839 0.03129 0.0
C35 C 0.67679 0.93838 0.24724 0.0
C36 C 0.69123 0.85337 0.14967 0.0
C37 C 0.61403 0.89284 0.16419 0.0
O38 O 0.63043 0.89074 0.20298 0.0
O39 O 0.62143 0.89777 0.11488 0.0
O40 O 0.67408 0.91742 0.27552 0.0
O41 O 0.67767 0.93653 0.19385 0.0
O42 O 0.85924 0.3343 0.93333 0.0
Cd43 Cd 0.89321 0.35309 0.94989 0.0
Cd44 Cd 0.89636 0.34755 0.84122 0.0
O45 O 0.86767 0.32013 0.84898 0.0
O46 O 0.89903 0.34587 0.03062 0.0
O47 O 0.92285 0.32886 0.96408 0.0
C48 C 0.91654 0.32957 1.01589 0.0
C49 C 0.93692 0.34438 0.79988 0.0
C50 C 0.85325 0.32057 0.89172 0.0
C51 C 0.88459 0.40031 0.88499 0.0
O52 O 0.88265 0.38439 0.84534 0.0
O53 O 0.89289 0.39282 0.93214 0.0
O54 O 0.9163 0.34577 0.77008 0.0
O55 O 0.93424 0.34261 0.85304 0.0
O56 O 0.33785 0.35963 0.18527 0.0
Cd57 Cd 0.35551 0.39445 0.1983 0.0
Cd58 Cd 0.34662 0.39638 0.09132 0.0
O59 O 0.31912 0.36807 0.10537 0.0
O60 O 0.3497 0.40105 0.27936 0.0
O61 O 0.33043 0.42328 0.21311 0.0
C62 C 0.3324 0.41768 0.26515 0.0
C63 C 0.34248 0.43672 0.04927 0.0
C64 C 0.32207 0.35344 0.14734 0.0
C65 C 0.40084 0.38612 0.12827 0.0
O66 O 0.38373 0.38284 0.09136 0.0
O67 O 0.39457 0.39532 0.17545 0.0
O68 O 0.34265 0.41592 1.01992 0.0
O69 O 0.3424 0.43434 0.10263 0.0
O70 O 0.36077 0.68009 0.8668 0.0
Cd71 Cd 0.39415 0.66151 0.84536 0.0
Cd72 Cd 0.40163 0.66658 0.95588 0.0
O73 O 0.37022 0.69135 0.95276 0.0
O74 O 0.39853 0.66976 0.76468 0.0
O75 O 0.42355 0.68586 0.83015 0.0
C76 C 0.41635 0.68578 0.77883 0.0
C77 C 0.44113 0.67318 0.99976 0.0
C78 C 0.35523 0.69214 0.911 0.0
C79 C 0.39211 0.61299 0.91073 0.0
O80 O 0.39295 0.62822 0.95181 0.0
O81 O 0.39454 0.62169 0.8615 0.0
O82 O 0.4204 0.66932 0.02808 0.0
O83 O 0.43892 0.67579 0.94666 0.0
O84 O 0.68115 0.65889 0.19209 0.0
Cd85 Cd 0.66491 0.62365 0.20652 0.0
Cd86 Cd 0.67359 0.62024 0.09804 0.0
O87 O 0.69811 0.6515 0.10981 0.0
O88 O 0.67195 0.6168 0.28692 0.0
O89 O 0.69086 0.59542 0.2189 0.0
C90 C 0.68938 0.6006 0.2712 0.0
C91 C 0.68159 0.58113 0.05371 0.0
C92 C 0.69545 0.66594 0.15215 0.0
C93 C 0.61856 0.62672 0.13655 0.0
O94 O 0.63505 0.62886 0.09792 0.0
O95 O 0.62583 0.62148 0.18579 0.0
O96 O 0.67894 0.60213 1.02556 0.0
O97 O 0.68228 0.58289 0.10714 0.0
O98 O 0.66229 0.33821 0.86604 0.0
Cd99 Cd 0.62934 0.35783 0.84594 0.0
Cd100 Cd 0.62165 0.3516 0.95553 0.0
O101 O 0.65218 0.32569 0.9509 0.0
O102 O 0.6245 0.35063 0.76494 0.0
O103 O 0.59938 0.3344 0.83021 0.0
C104 C 0.6064 0.33485 0.77879 0.0
C105 C 0.58072 0.34562 0.99355 0.0
C106 C 0.66732 0.32522 0.90932 0.0
C107 C 0.6329 0.40532 0.91427 0.0
O108 O 0.63192 0.38957 0.95452 0.0
O109 O 0.6298 0.39736 0.86466 0.0
O110 O 0.60074 0.3476 1.02498 0.0
O111 O 0.58437 0.34462 0.94058 0.0
O112 O 0.844 0.65867 0.61354 0.0
Cd113 Cd 0.86133 0.6241 0.59739 0.0
Cd114 Cd 0.85292 0.61915 0.70581 0.0
O115 O 0.82748 0.64986 0.6956 0.0
O116 O 0.85455 0.61805 0.51659 0.0
O117 O 0.83627 0.5953 0.58338 0.0
C118 C 0.83762 0.60118 0.53137 0.0
C119 C 0.84567 0.57909 0.74683 0.0
C120 C 0.82959 0.66484 0.65395 0.0
C121 C 0.90765 0.62761 0.66767 0.0
O122 O 0.89118 0.62876 0.70654 0.0
O123 O 0.90045 0.62281 0.61818 0.0
O124 O 0.84755 0.59962 0.77671 0.0
O125 O 0.8455 0.58179 0.69356 0.0
O126 O 0.66032 0.1789 0.43596 0.0
Cd127 Cd 0.62587 0.16178 0.45375 0.0
Cd128 Cd 0.62024 0.16951 0.34537 0.0
O129 O 0.65084 0.19518 0.354 0.0
O130 O 0.62032 0.16913 0.53452 0.0
O131 O 0.59735 0.18721 0.46782 0.0
C132 C 0.60353 0.18618 0.51967 0.0
C133 C 0.5798 0.17611 0.30553 0.0
C134 C 0.66612 0.19324 0.39515 0.0
C135 C 0.62905 0.11503 0.3847 0.0
O136 O 0.63013 0.1313 0.34541 0.0
O137 O 0.62438 0.12251 0.43407 0.0
O138 O 0.60018 0.17437 0.27502 0.0
O139 O 0.58285 0.17659 0.3587 0.0
O140 O 0.17856 0.36086 0.61447 0.0
Cd141 Cd 0.16172 0.39566 0.59776 0.0
Cd142 Cd 0.16944 0.40031 0.70682 0.0
O143 O 0.19437 0.36918 0.69735 0.0
O144 O 0.16882 0.40136 0.51694 0.0
O145 O 0.18728 0.42408 0.58336 0.0
C146 C 0.18595 0.41805 0.53145 0.0
C147 C 0.17712 0.43944 0.75129 0.0
C148 C 0.19252 0.35439 0.65542 0.0
C149 C 0.11474 0.39302 0.66657 0.0
O150 O 0.1309 0.39163 0.70597 0.0
O151 O 0.12242 0.39751 0.61725 0.0
O152 O 0.17416 0.41846 0.77935 0.0
O153 O 0.1782 0.43766 0.69788 0.0
O154 O 0.35994 0.84226 0.44098 0.0
Cd155 Cd 0.39479 0.85963 0.45495 0.0
Cd156 Cd 0.39725 0.85077 0.34825 0.0
O157 O 0.36881 0.82342 0.36143 0.0
O158 O 0.4015 0.85292 0.53569 0.0
O159 O 0.42334 0.83409 0.46825 0.0
C160 C 0.41784 0.83552 0.52043 0.0
C161 C 0.43733 0.84635 0.30549 0.0
C162 C 0.35394 0.82647 0.40293 0.0
C163 C 0.38691 0.90506 0.38514 0.0
O164 O 0.3839 0.88791 0.34822 0.0
O165 O 0.39585 0.89881 0.4326 0.0
O166 O 0.41643 0.84694 0.27649 0.0
O167 O 0.43518 0.84605 0.35887 0.0
O168 O 0.84516 0.85826 0.70208 0.0
Cd169 Cd 0.86173 0.89332 0.71641 0.0
Cd170 Cd 0.85257 0.89738 0.60839 0.0
O171 O 0.82746 0.86662 0.62097 0.0
O172 O 0.85444 0.90066 0.79655 0.0
O173 O 0.83596 0.92175 0.7275 0.0
C174 C 0.83716 0.91686 0.77997 0.0
C175 C 0.845 0.93693 0.56537 0.0
C176 C 0.83031 0.85179 0.6627 0.0
C177 C 0.90764 0.89017 0.64505 0.0
O178 O 0.89091 0.88814 0.60692 0.0
O179 O 0.9007 0.8954 0.69452 0.0
O180 O 0.84671 0.91604 0.53658 0.0
O181 O 0.84506 0.93484 0.61876 0.0
O182 O 0.85847 0.17553 0.35305 0.0
Cd183 Cd 0.89341 0.15792 0.34143 0.0
Cd184 Cd 0.895 0.16774 0.44766 0.0
O185 O 0.86714 0.19553 0.4313 0.0
O186 O 0.90102 0.16373 0.26069 0.0
O187 O 0.92211 0.18318 0.32826 0.0
C188 C 0.91723 0.1812 0.27593 0.0
C189 C 0.93566 0.17164 0.48816 0.0
C190 C 0.85241 0.19199 0.38975 0.0
C191 C 0.88449 0.11342 0.41332 0.0
O192 O 0.88091 0.13094 0.44921 0.0
O193 O 0.89426 0.11911 0.36628 0.0
O194 O 0.91506 0.17256 0.51821 0.0
O195 O 0.9329 0.17066 0.43497 0.0
O196 O 0.17559 0.16126 0.69506 0.0
Cd197 Cd 0.1588 0.12596 0.70722 0.0
Cd198 Cd 0.16866 0.12435 0.60096 0.0
O199 O 0.19553 0.15305 0.6164 0.0
O200 O 0.16519 0.11845 0.78777 0.0
O201 O 0.1848 0.09777 0.71968 0.0
C202 C 0.18297 0.10262 0.77207 0.0
C203 C 0.17393 0.08451 0.55768 0.0
C204 C 0.19177 0.16768 0.65801 0.0
C205 C 0.11389 0.1334 0.63592 0.0
O206 O 0.13132 0.13713 0.59986 0.0
O207 O 0.11988 0.12419 0.6833 0.0
O208 O 0.1734 0.10553 0.529 0.0
O209 O 0.17372 0.08643 0.61108 0.0
O210 O 0.16137 0.84483 0.35899 0.0
Cd211 Cd 0.12638 0.86161 0.34402 0.0
Cd212 Cd 0.12213 0.8528 0.45235 0.0
O213 O 0.15296 0.82772 0.4407 0.0
O214 O 0.11941 0.85428 0.26386 0.0
O215 O 0.09794 0.83592 0.33252 0.0
C216 C 0.10311 0.83708 0.28015 0.0
C217 C 0.08331 0.84498 0.49795 0.0
C218 C 0.16775 0.83014 0.39883 0.0
C219 C 0.12905 0.90789 0.41414 0.0
O220 O 0.13086 0.89133 0.45273 0.0
O221 O 0.12425 0.9007 0.36467 0.0
O222 O 0.10448 0.84763 0.52537 0.0
O223 O 0.08471 0.84425 0.44447 0.0
H224 H 0.4024 0.95136 0.43184 0.0
H225 H 0.35216 0.91913 0.30751 0.0
H226 H 0.39037 0.99489 0.40096 0.0
H227 H 0.33963 0.96187 0.27838 0.0
H228 H 0.34866 0.03788 0.18928 0.0
H229 H 0.35837 0.99581 0.22765 0.0
H230 H 0.35662 0.02756 0.39303 0.0
H231 H 0.34756 0.07018 0.35409 0.0
C232 C 0.38861 0.95354 0.39852 0.0
C233 C 0.37863 0.93176 0.37154 0.0
C234 C 0.38161 0.97845 0.38091 0.0
C235 C 0.36434 0.98198 0.33636 0.0
C236 C 0.35356 0.96006 0.31155 0.0
C237 C 0.3607 0.93543 0.32856 0.0
C238 C 0.35003 0.03593 0.23388 0.0
C239 C 0.34715 0.05746 0.26851 0.0
C240 C 0.35555 0.01169 0.25605 0.0
C241 C 0.35821 1.00811 0.31366 0.0
C242 C 0.35498 0.02959 0.3485 0.0
C243 C 0.3495 0.05398 0.32619 0.0
H244 H 0.03625 0.6868 0.85182 0.0
H245 H 0.07289 0.66178 0.70046 0.0
H246 H 0.99438 0.67581 0.81331 0.0
H247 H 0.03102 0.64991 0.66252 0.0
H248 H 0.94602 0.64695 0.60016 0.0
H249 H 0.98863 0.66224 0.62936 0.0
H250 H 0.97292 0.63624 0.79615 0.0
H251 H 0.93064 0.62183 0.76752 0.0
C252 C 0.03535 0.67926 0.81003 0.0
C253 C 0.05796 0.67501 0.77946 0.0
C254 C 0.01134 0.67266 0.78808 0.0
C255 C 1.0093 0.66133 0.73522 0.0
C256 C 0.03179 0.65856 0.70329 0.0
C257 C 0.05584 0.66539 0.72512 0.0
C258 C 0.95191 0.64425 0.64282 0.0
C259 C 0.93487 0.63338 0.68159 0.0
C260 C 0.97627 0.65308 0.65966 0.0
C261 C 0.98404 0.65107 0.71551 0.0
C262 C 0.96736 0.63898 0.75329 0.0
C263 C 0.94314 0.63041 0.73668 0.0
H264 H 0.66203 0.94927 0.35375 0.0
H265 H 0.68683 0.98546 0.20166 0.0
H266 H 0.65065 0.99136 0.39164 0.0
H267 H 0.67633 0.02748 0.24005 0.0
H268 H 0.62273 0.09163 0.28557 0.0
H269 H 0.63678 0.04912 0.25753 0.0
H270 H 0.6634 0.03391 0.42401 0.0
H271 H 0.6485 0.0768 0.45265 0.0
C272 C 0.66572 0.96626 0.32893 0.0
C273 C 0.67511 0.96397 0.2744 0.0
C274 C 0.65917 0.99043 0.35072 0.0
C275 C 0.66198 0.01284 0.31852 0.0
C276 C 0.67313 0.0106 0.26548 0.0
C277 C 0.67945 0.98649 0.2436 0.0
C278 C 0.63139 0.0792 0.31648 0.0
C279 C 0.63465 0.0877 0.3713 0.0
C280 C 0.63974 0.05484 0.3002 0.0
C281 C 0.6519 0.03823 0.33804 0.0
C282 C 0.65419 0.04622 0.39367 0.0
C283 C 0.64558 0.07074 0.41019 0.0
H284 H 0.09097 0.40048 0.76512 0.0
H285 H 0.07652 0.37367 0.5988 0.0
H286 H 0.04815 0.38728 0.79298 0.0
H287 H 0.0334 0.35952 0.62727 0.0
H288 H 0.94869 0.35977 0.69409 0.0
H289 H 0.99085 0.37205 0.65785 0.0
H290 H 0.02594 0.3486 0.8122 0.0
H291 H 0.98381 0.33725 0.84888 0.0
C292 C 0.07855 0.39178 0.73433 0.0
C293 C 0.08726 0.38799 0.67978 0.0
C294 C 0.054 0.38392 0.75052 0.0
C295 C 0.0374 0.37167 0.71288 0.0
C296 C 0.04563 0.36884 0.65748 0.0
C297 C 0.07031 0.37701 0.64104 0.0
C298 C 0.96548 0.3569 0.71998 0.0
C299 C 0.96282 0.34771 0.77462 0.0
C300 C 0.9897 0.36393 0.69913 0.0
C301 C 0.01186 0.36184 0.73235 0.0
C302 C 1.00927 0.35124 0.78586 0.0
C303 C 0.9851 0.34444 0.80681 0.0
H304 H 0.35323 0.44793 0.94038 0.0
H305 H 0.33923 0.48383 0.0989 0.0
H306 H 0.36554 0.48967 0.90152 0.0
H307 H 0.35083 0.52543 0.05993 0.0
H308 H 0.4048 0.58692 1.00375 0.0
H309 H 0.39093 0.54442 0.03241 0.0
H310 H 0.35273 0.5339 0.8751 0.0
H311 H 0.36731 0.57685 0.84568 0.0
C312 C 0.35222 0.4648 0.96664 0.0
C313 C 0.34546 0.46246 1.02297 0.0
C314 C 0.35929 0.48875 0.9443 0.0
C315 C 0.35973 0.51089 0.97781 0.0
C316 C 0.35144 0.5087 0.03321 0.0
C317 C 0.34452 0.48484 0.05553 0.0
C318 C 0.39368 0.57549 0.97485 0.0
C319 C 0.38699 0.58539 0.92256 0.0
C320 C 0.38547 0.55115 0.99157 0.0
C321 C 0.37006 0.53593 0.95678 0.0
C322 C 0.36447 0.54516 0.9031 0.0
C323 C 0.3729 0.5697 0.88609 0.0
H324 H 0.48813 0.68389 0.95413 0.0
H325 H 0.4524 0.65693 0.10501 0.0
H326 H 0.53032 0.67348 0.99193 0.0
H327 H 0.4946 0.64562 0.14216 0.0
H328 H 0.57952 0.64429 0.20454 0.0
H329 H 0.53649 0.6586 0.17569 0.0
H330 H 0.55319 0.63469 1.00799 0.0
H331 H 0.59589 0.62128 0.03631 0.0
C332 C 0.48929 0.67601 0.99564 0.0
C333 C 0.46685 0.67111 0.0263 0.0
C334 C 0.5135 0.66975 1.01718 0.0
C335 C 0.51592 0.65809 0.06971 0.0
C336 C 0.49355 0.65456 0.10168 0.0
C337 C 0.46931 0.66105 0.08027 0.0
C338 C 0.57376 0.64183 0.16175 0.0
C339 C 0.59119 0.63185 0.12266 0.0
C340 C 0.54915 0.65011 0.1451 0.0
C341 C 0.5415 0.6484 0.08913 0.0
C342 C 0.55861 0.63719 0.05098 0.0
C343 C 0.58307 0.62919 0.06741 0.0
H344 H 0.62447 0.42984 1.01142 0.0
H345 H 0.65533 0.44241 0.84743 0.0
H346 H 0.63908 0.47205 0.03976 0.0
H347 H 0.67062 0.48512 0.87648 0.0
H348 H 0.66872 0.57049 0.94589 0.0
H349 H 0.65743 0.52857 0.907 0.0
H350 H 0.67956 0.49204 0.06066 0.0
H351 H 0.69012 0.53386 0.09989 0.0
C352 C 0.63436 0.4417 0.98121 0.0
C353 C 0.63892 0.43261 0.92723 0.0
C354 C 0.643 0.46589 0.99773 0.0
C355 C 0.65669 0.48179 0.96096 0.0
C356 C 0.66025 0.47331 0.90598 0.0
C357 C 0.65142 0.44891 0.88922 0.0
C358 C 0.67167 0.55344 0.97098 0.0
C359 C 0.68007 0.55558 0.02629 0.0
C360 C 0.66518 0.52938 0.94861 0.0
C361 C 0.667 0.50695 0.98105 0.0
C362 C 0.67719 0.50899 0.03496 0.0
C363 C 0.68352 0.53297 0.05736 0.0
H364 H 0.41538 0.35104 0.05165 0.0
H365 H 0.44679 0.40224 0.17509 0.0
H366 H 0.45836 0.33851 1.02394 0.0
H367 H 0.49047 0.39033 0.14557 0.0
H368 H 0.56642 0.34931 0.10294 0.0
H369 H 0.52336 0.35745 0.14001 0.0
H370 H 0.49264 0.3562 0.97363 0.0
H371 H 0.53524 0.34728 0.93714 0.0
C372 C 0.43155 0.35979 0.07277 0.0
C373 C 0.4276 0.37795 0.11515 0.0
C374 C 0.45632 0.35265 0.05658 0.0
C375 C 0.47806 0.36371 0.08161 0.0
C376 C 0.47421 0.3813 0.12543 0.0
C377 C 0.4492 0.38825 0.14226 0.0
C378 C 0.55036 0.35033 0.07442 0.0
C379 C 0.55431 0.34745 1.01702 0.0
C380 C 0.52569 0.35531 0.09566 0.0
C381 C 0.50437 0.35756 0.05999 0.0
C382 C 0.50838 0.35417 1.00269 0.0
C383 C 0.53293 0.34909 0.98158 0.0
H384 H 0.84621 0.41487 0.8168 0.0
H385 H 0.90254 0.44603 0.92965 0.0
H386 H 0.83353 0.45796 0.78962 0.0
H387 H 0.89042 0.48981 0.90063 0.0
H388 H 0.85077 0.56662 0.85703 0.0
H389 H 0.85797 0.5239 0.89703 0.0
H390 H 0.85199 0.49038 0.73375 0.0
H391 H 0.84417 0.53265 0.69438 0.0
C392 C 0.85593 0.43105 0.83588 0.0
C393 C 0.87567 0.42704 0.87479 0.0
C394 C 0.84872 0.45582 0.82 0.0
C395 C 0.86131 0.47746 0.84183 0.0
C396 C 0.88026 0.47359 0.88296 0.0
C397 C 0.88728 0.44855 0.89956 0.0
C398 C 0.85053 0.55003 0.82988 0.0
C399 C 0.84673 0.55308 0.77246 0.0
C400 C 0.85495 0.52557 0.85278 0.0
C401 C 0.8556 0.50359 0.81879 0.0
C402 C 0.8512 0.50671 0.76155 0.0
C403 C 0.84676 0.53105 0.73879 0.0
H404 H 0.53369 0.17576 0.35965 0.0
H405 H 0.5667 0.17164 0.19559 0.0
H406 H 0.49141 0.16708 0.32144 0.0
H407 H 0.52396 0.16365 0.15677 0.0
H408 H 0.44723 0.11861 0.12199 0.0
H409 H 0.49077 0.13077 0.15195 0.0
H410 H 0.45799 0.18495 0.26808 0.0
H411 H 0.41516 0.17223 0.23995 0.0
C412 C 0.53186 0.17354 0.31519 0.0
C413 C 0.55365 0.17452 0.28077 0.0
C414 C 0.5075 0.1686 0.29309 0.0
C415 C 0.50411 0.16466 0.23579 0.0
C416 C 0.52583 0.16626 0.20109 0.0
C417 C 0.55031 0.17114 0.22332 0.0
C418 C 0.44947 0.13321 0.15362 0.0
C419 C 0.42774 0.14409 0.17924 0.0
C420 C 0.47439 0.14029 0.1707 0.0
C421 C 0.47798 0.15857 0.21328 0.0
C422 C 0.45612 0.17027 0.2365 0.0
C423 C 0.43145 0.16302 0.22007 0.0
H424 H 0.15301 0.57799 0.95938 0.0
H425 H 0.12167 0.59158 0.79626 0.0
H426 H 0.16737 0.53504 0.92956 0.0
H427 H 0.13534 0.54911 0.76714 0.0
H428 H 0.18561 0.48675 0.70525 0.0
H429 H 0.17546 0.52858 0.74507 0.0
H430 H 0.15355 0.49192 0.89874 0.0
H431 H 0.16443 0.44999 0.85927 0.0
C432 C 0.14875 0.57164 0.91765 0.0
C433 C 0.13644 0.58829 0.88005 0.0
C434 C 0.15707 0.54711 0.90044 0.0
C435 C 0.15313 0.53885 0.84542 0.0
C436 C 0.13954 0.55509 0.80916 0.0
C437 C 0.13143 0.57941 0.82611 0.0
C438 C 0.17912 0.4876 0.74788 0.0
C439 C 0.17564 0.46497 0.77881 0.0
C440 C 0.17303 0.5116 0.77063 0.0
C441 C 0.16305 0.51361 0.82476 0.0
C442 C 0.16114 0.49113 0.85698 0.0
C443 C 0.1674 0.46706 0.83426 0.0
H444 H 0.44813 0.86038 0.19839 0.0
H445 H 0.48456 0.83922 0.35265 0.0
H446 H 0.49 0.87216 0.15987 0.0
H447 H 0.52638 0.85003 0.31374 0.0
H448 H 0.59089 0.9015 0.26277 0.0
H449 H 0.54819 0.88869 0.29236 0.0
H450 H 0.5324 0.85941 0.12831 0.0
H451 H 0.57539 0.87321 0.09806 0.0
C452 C 0.46514 0.85766 0.22366 0.0
C453 C 0.46296 0.84907 0.27882 0.0
C454 C 0.48919 0.86443 0.20152 0.0
C455 C 0.51162 0.86261 0.23397 0.0
C456 C 0.50949 0.85248 0.28798 0.0
C457 C 0.4855 0.84598 0.31022 0.0
C458 C 0.57824 0.89258 0.23272 0.0
C459 C 0.5866 0.88823 0.17814 0.0
C460 C 0.55378 0.88493 0.2499 0.0
C461 C 0.53696 0.87233 0.21326 0.0
C462 C 0.54483 0.869 0.15775 0.0
C463 C 0.56942 0.87697 0.14029 0.0
H464 H 0.84434 0.98394 0.61549 0.0
H465 H 0.84954 0.94811 0.45443 0.0
H466 H 0.85261 0.02562 0.57382 0.0
H467 H 0.85716 0.99025 0.41211 0.0
H468 H 0.90216 0.06673 0.3728 0.0
H469 H 0.89002 0.02361 0.40571 0.0
H470 H 0.83451 0.05782 0.51697 0.0
H471 H 0.84717 0.10028 0.48593 0.0
C472 C 0.8467 0.98501 0.57094 0.0
C473 C 0.84616 0.96263 0.53839 0.0
C474 C 0.85141 1.00902 0.54686 0.0
C475 C 0.85557 0.01144 0.48939 0.0
C476 C 0.85436 0.98911 0.45652 0.0
C477 C 0.84968 0.96499 0.48074 0.0
C478 C 0.88726 0.06488 0.40397 0.0
C479 C 0.87599 0.08693 0.42745 0.0
C480 C 0.8802 0.04021 0.42273 0.0
C481 C 0.86156 0.03719 0.46484 0.0
C482 C 0.84945 0.05931 0.48582 0.0
C483 C 0.85667 0.08374 0.46773 0.0
H484 H 0.94822 0.16912 0.59886 0.0
H485 H 0.98182 0.16765 0.43514 0.0
H486 H 0.9907 0.1611 0.63943 0.0
H487 H 0.02378 0.15902 0.47517 0.0
H488 H 0.09959 0.16774 0.55752 0.0
H489 H 0.05678 0.17913 0.52681 0.0
H490 H 0.02406 0.12778 0.64885 0.0
H491 H 0.06762 0.11684 0.68125 0.0
C492 C 0.96467 0.16732 0.57154 0.0
C493 C 0.96161 0.16926 0.51369 0.0
C494 C 0.98898 0.16244 0.5948 0.0
C495 C 0.01078 0.15944 0.56073 0.0
C496 C 1.00761 0.16167 0.50295 0.0
C497 C 0.98344 0.16657 0.47984 0.0
C498 C 0.08334 0.15882 0.57813 0.0
C499 C 0.08711 0.14103 0.62138 0.0
C500 C 0.05868 0.16532 0.56022 0.0
C501 C 0.03684 0.15403 0.58442 0.0
C502 C 0.04044 0.13691 0.62926 0.0
C503 C 0.06537 0.13054 0.64774 0.0
H504 H 0.12062 0.93057 0.51329 0.0
H505 H 0.1485 0.9469 0.34845 0.0
H506 H 0.13318 0.97323 0.54333 0.0
H507 H 0.16206 0.98987 0.37916 0.0
H508 H 0.1602 0.07393 0.45038 0.0
H509 H 0.14898 0.03203 0.41133 0.0
H510 H 0.17156 0.9954 0.56467 0.0
H511 H 0.18178 0.03723 0.60411 0.0
C512 C 0.12943 0.94338 0.48331 0.0
C513 C 0.13371 0.93526 0.42855 0.0
C514 C 0.13693 0.96783 0.50075 0.0
C515 C 0.14933 0.98489 0.4642 0.0
C516 C 0.15263 0.97725 0.40855 0.0
C517 C 0.1448 0.95267 0.39083 0.0
C518 C 0.16315 0.05686 0.4754 0.0
C519 C 0.17167 0.05895 0.53059 0.0
C520 C 0.15671 0.0328 0.45296 0.0
C521 C 0.15879 0.01028 0.48512 0.0
C522 C 0.1689 0.01235 0.53913 0.0
C523 C 0.17506 0.03635 0.56167 0.0
H524 H 0.94692 0.87136 0.71083 0.0
H525 H 0.92977 0.89713 0.54477 0.0
H526 H 0.98968 0.85714 0.67969 0.0
H527 H 0.97216 0.88382 0.51425 0.0
H528 H 0.03587 0.83477 0.45451 0.0
H529 H 0.99415 0.84475 0.49516 0.0
H530 H 0.0316 0.87032 0.64513 0.0
H531 H 0.07337 0.85941 0.60501 0.0
C532 C 0.95246 0.87444 0.66806 0.0
C533 C 0.9349 0.88514 0.63017 0.0
C534 C 0.9769 0.86622 0.65011 0.0
C535 C 0.9842 0.86871 0.59404 0.0
C536 C 0.96698 0.8807 0.55721 0.0
C537 C 0.9427 0.88863 0.57491 0.0
C538 C 0.03519 0.84203 0.49656 0.0
C539 C 0.05798 0.84646 0.52627 0.0
C540 C 0.01127 0.84805 0.51975 0.0
C541 C 1.00948 0.859 0.57302 0.0
C542 C 0.03218 0.86194 0.60408 0.0
C543 C 0.05617 0.85567 0.581 0.0
H544 H 0.32134 0.32094 0.23564 0.0
H545 H 0.29529 0.32741 0.06621 0.0
H546 H 0.31112 0.27566 0.23573 0.0
H547 H 0.28373 0.2818 0.06701 0.0
H548 H 0.31965 0.19964 0.06114 0.0
H549 H 0.30959 0.24499 0.06171 0.0
H550 H 0.2849 0.23908 0.23244 0.0
H551 H 0.29631 0.1934 0.23246 0.0
C552 C 0.31272 0.31282 0.19872 0.0
C553 C 0.3098 0.32769 0.15037 0.0
C554 C 0.30652 0.28672 0.19901 0.0
C555 C 0.29699 0.27474 0.15104 0.0
C556 C 0.29165 0.29021 0.10432 0.0
C557 C 0.29809 0.31642 0.10391 0.0
C558 C 0.31164 0.20783 0.09866 0.0
C559 C 0.30947 0.19301 0.14726 0.0
C560 C 0.30553 0.23396 0.09878 0.0
C561 C 0.29686 0.24603 0.14745 0.0
C562 C 0.29218 0.23061 0.19456 0.0
C563 C 0.29851 0.20435 0.19454 0.0
H564 H 0.19411 0.717 0.9855 0.0
H565 H 0.20171 0.69711 0.8128 0.0
H566 H 0.23991 0.7268 0.98999 0.0
H567 H 0.2477 0.70519 0.8176 0.0
H568 H 0.33025 0.71832 0.82983 0.0
H569 H 0.28466 0.72926 0.82715 0.0
H570 H 0.2765 0.70176 0.99564 0.0
H571 H 0.32236 0.69257 0.99891 0.0
C572 C 0.20559 0.7152 0.94819 0.0
C573 C 0.19448 0.70613 0.89889 0.0
C574 C 0.23191 0.72052 0.95086 0.0
C575 C 0.24787 0.71621 0.90464 0.0
C576 C 0.23623 0.70903 0.85412 0.0
C577 C 0.20976 0.70429 0.85118 0.0
C578 C 0.31875 0.71547 0.86681 0.0
C579 C 0.32969 0.70446 0.91447 0.0
C580 C 0.29254 0.72144 0.86513 0.0
C581 C 0.27651 0.71583 0.91059 0.0
C582 C 0.28803 0.70665 0.95979 0.0
C583 C 0.31441 0.70127 0.96184 0.0
H584 H 0.71719 0.82744 0.23239 0.0
H585 H 0.6915 0.82007 0.06287 0.0
H586 H 0.72901 0.78186 0.2329 0.0
H587 H 0.70198 0.77485 0.06412 0.0
H588 H 0.71963 0.69295 0.06859 0.0
H589 H 0.72923 0.73901 0.06795 0.0
H590 H 0.70407 0.74447 0.23841 0.0
H591 H 0.69584 0.69879 0.23973 0.0
C592 C 0.71444 0.81625 0.19505 0.0
C593 C 0.70287 0.8273 0.14809 0.0
C594 C 0.72105 0.79006 0.19535 0.0
C595 C 0.71603 0.7744 0.14887 0.0
C596 C 0.70639 0.78609 0.10062 0.0
C597 C 0.70003 0.81216 0.10018 0.0
C598 C 0.71688 0.70392 0.1063 0.0
C599 C 0.7064 0.69228 0.15376 0.0
C600 C 0.72219 0.73038 0.10588 0.0
C601 C 0.7169 0.74573 0.15276 0.0
C602 C 0.70858 0.7335 0.20153 0.0
C603 C 0.70352 0.70716 0.20208 0.0
H604 H 0.70068 0.32391 0.99619 0.0
H605 H 0.69111 0.29844 0.82751 0.0
H606 H 0.74632 0.31383 0.99138 0.0
H607 H 0.73644 0.28652 0.82331 0.0
H608 H 0.82845 0.29813 0.97832 0.0
H609 H 0.78262 0.28868 0.98469 0.0
H610 H 0.77379 0.30948 0.81198 0.0
H611 H 0.81978 0.31712 0.80535 0.0
C612 C 0.70819 0.31504 0.95891 0.0
C613 C 0.69252 0.31218 0.91209 0.0
C614 C 0.73446 0.30916 0.95595 0.0
C615 C 0.74548 0.29978 0.90639 0.0
C616 C 0.729 0.29449 0.86154 0.0
C617 C 0.70292 0.30099 0.8641 0.0
C618 C 0.81673 0.29975 0.94134 0.0
C619 C 0.82757 0.30848 0.89141 0.0
C620 C 0.79037 0.29467 0.94509 0.0
C621 C 0.7741 0.29894 0.89936 0.0
C622 C 0.78546 0.30569 0.8482 0.0
C623 C 0.81196 0.31015 0.84419 0.0
H624 H 0.82745 0.6984 0.5676 0.0
H625 H 0.80537 0.69046 0.73941 0.0
H626 H 0.81806 0.74384 0.57102 0.0
H627 H 0.7946 0.73626 0.74225 0.0
H628 H 0.83089 0.81795 0.7487 0.0
H629 H 0.82101 0.77263 0.74644 0.0
H630 H 0.79244 0.78067 0.57899 0.0
H631 H 0.80368 0.82635 0.58047 0.0
C632 C 0.81988 0.70624 0.60588 0.0
C633 C 0.81784 0.69088 0.65372 0.0
C634 C 0.81416 0.73244 0.60764 0.0
C635 C 0.80598 0.74404 0.65722 0.0
C636 C 0.8015 0.72814 0.70369 0.0
C637 C 0.80748 0.70182 0.70203 0.0
C638 C 0.82213 0.81024 0.71153 0.0
C639 C 0.81873 0.8257 0.66418 0.0
C640 C 0.81611 0.78411 0.71049 0.0
C641 C 0.80628 0.77268 0.6622 0.0
C642 C 0.8006 0.78866 0.61649 0.0
C643 C 0.80687 0.81491 0.61738 0.0
H644 H 0.81936 0.19075 0.30254 0.0
H645 H 0.82698 0.22085 0.46854 0.0
H646 H 0.77408 0.20107 0.30289 0.0
H647 H 0.78138 0.23254 0.46798 0.0
H648 H 0.69939 0.19722 0.48147 0.0
H649 H 0.74474 0.20692 0.47769 0.0
H650 H 0.73743 0.22724 0.30455 0.0
H651 H 0.6917 0.21617 0.3079 0.0
C652 C 0.8115 0.20028 0.33871 0.0
C653 C 0.82668 0.2043 0.38617 0.0
C654 C 0.7854 0.20653 0.33864 0.0
C655 C 0.77374 0.21723 0.38588 0.0
C656 C 0.78953 0.22368 0.43135 0.0
C657 C 0.81574 0.21717 0.4316 0.0
C658 C 0.70727 0.20416 0.44266 0.0
C659 C 0.69202 0.20523 0.39456 0.0
C660 C 0.73341 0.21008 0.44066 0.0
C661 C 0.74507 0.21747 0.39055 0.0
C662 C 0.72926 0.22098 0.34359 0.0
C663 C 0.70299 0.21483 0.34552 0.0
H664 H 0.19555 0.32132 0.56847 0.0
H665 H 0.21574 0.32826 0.74148 0.0
H666 H 0.20516 0.2759 0.57121 0.0
H667 H 0.22666 0.28248 0.74372 0.0
H668 H 0.19019 0.2006 0.74539 0.0
H669 H 0.20018 0.24595 0.74537 0.0
H670 H 0.23125 0.23926 0.5797 0.0
H671 H 0.21998 0.19358 0.57887 0.0
C672 C 0.20273 0.31327 0.60691 0.0
C673 C 0.2042 0.32833 0.6552 0.0
C674 C 0.20859 0.28709 0.60829 0.0
C675 C 0.21631 0.27523 0.65795 0.0
C676 C 0.22016 0.29083 0.70504 0.0
C677 C 0.21408 0.31712 0.70374 0.0
C678 C 0.19956 0.20862 0.70915 0.0
C679 C 0.20363 0.19357 0.6615 0.0
C680 C 0.20562 0.23475 0.70941 0.0
C681 C 0.21614 0.24656 0.66215 0.0
C682 C 0.22256 0.23095 0.61637 0.0
C683 C 0.21627 0.20471 0.61596 0.0
H684 H 0.19287 0.80349 0.48162 0.0
H685 H 0.20133 0.82946 0.31241 0.0
H686 H 0.23826 0.79103 0.48278 0.0
H687 H 0.24639 0.81828 0.31427 0.0
H688 H 0.32793 0.80096 0.32007 0.0
H689 H 0.28204 0.79062 0.31905 0.0
H690 H 0.27566 0.81609 0.48907 0.0
H691 H 0.32121 0.82512 0.49072 0.0
C692 C 0.20425 0.80615 0.44445 0.0
C693 C 0.1936 0.81803 0.39743 0.0
C694 C 0.23033 0.79915 0.44514 0.0
C695 C 0.24626 0.80407 0.39898 0.0
C696 C 0.23491 0.81394 0.35055 0.0
C697 C 0.20895 0.82072 0.34974 0.0
C698 C 0.31682 0.80355 0.35765 0.0
C699 C 0.32808 0.81448 0.40498 0.0
C700 C 0.29046 0.79782 0.35702 0.0
C701 C 0.27488 0.8031 0.40356 0.0
C702 C 0.28683 0.81163 0.45242 0.0
C703 C 0.31307 0.81713 0.45316 0.0
H704 H 0.22866 0.07856 0.74841 0.0
H705 H 0.18366 0.10777 0.88512 0.0
H706 H 0.26536 0.07248 0.81036 0.0
H707 H 0.22032 0.10173 0.9469 0.0
H708 H 0.28703 0.07792 0.05437 0.0
H709 H 0.2505 0.07136 0.99223 0.0
H710 H 0.29448 0.10334 0.85689 0.0
H711 H 0.33097 0.10987 0.91887 0.0
C712 C 0.22634 0.0831 0.79192 0.0
C713 C 0.20316 0.09377 0.81164 0.0
C714 C 0.24751 0.07982 0.82736 0.0
C715 C 0.24595 0.08685 0.88357 0.0
C716 C 0.22222 0.09593 0.904 0.0
C717 C 0.20115 0.09945 0.86847 0.0
C718 C 0.28917 0.08297 1.01106 0.0
C719 C 0.31198 0.09453 0.99176 0.0
C720 C 0.2681 0.07941 0.97552 0.0
C721 C 0.2694 0.08704 0.91961 0.0
C722 C 0.2928 0.09705 0.89954 0.0
C723 C 0.31376 0.10085 0.93519 0.0
H724 H 0.10801 0.83577 0.16717 0.0
H725 H 0.07867 0.79182 0.3054 0.0
H726 H 0.10173 0.7988 0.1065 0.0
H727 H 0.07235 0.75479 0.24453 0.0
H728 H 0.11085 0.68876 0.13836 0.0
H729 H 0.10361 0.72552 0.19915 0.0
H730 H 0.07136 0.76826 0.06223 0.0
H731 H 0.07863 0.73142 1.00122 0.0
C732 C 0.09959 0.81844 0.18438 0.0
C733 C 0.09399 0.81679 0.24131 0.0
C734 C 0.09592 0.79721 0.14948 0.0
C735 C 0.08677 0.77368 0.17069 0.0
C736 C 0.07973 0.7725 0.22697 0.0
C737 C 0.08316 0.79384 0.26178 0.0
C738 C 0.10161 0.70574 0.12145 0.0
C739 C 0.09546 0.70712 0.06477 0.0
C740 C 0.09739 0.72685 0.15641 0.0
C741 C 0.08712 0.75 0.13552 0.0
C742 C 0.07959 0.75086 0.07953 0.0
C743 C 0.08356 0.72962 0.04466 0.0
H744 H 0.73075 0.94287 0.05733 0.0
H745 H 0.68769 0.91315 0.91845 0.0
H746 H 0.76812 0.94916 0.99728 0.0
H747 H 0.725 0.91935 0.85862 0.0
H748 H 0.79261 0.94254 0.75434 0.0
H749 H 0.75546 0.94959 0.81456 0.0
H750 H 0.79798 0.91834 0.95285 0.0
H751 H 0.8351 0.91137 0.89283 0.0
C752 C 0.72901 0.93827 1.01373 0.0
C753 C 0.70619 0.92737 0.99284 0.0
C754 C 0.75054 0.94167 0.97939 0.0
C755 C 0.74971 0.93452 0.92318 0.0
C756 C 0.72633 0.92525 0.90155 0.0
C757 C 0.7049 0.92163 0.93597 0.0
C758 C 0.79429 0.93776 0.7979 0.0
C759 C 0.81686 0.92624 0.81861 0.0
C760 C 0.77287 0.94162 0.83233 0.0
C761 C 0.77357 0.93429 0.88847 0.0
C762 C 0.79675 0.92439 0.90997 0.0
C763 C 0.81808 0.92032 0.87544 0.0
H764 H 0.94233 0.22632 0.2987 0.0
H765 H 0.91188 0.18168 0.16289 0.0
H766 H 0.94877 0.26281 0.23632 0.0
H767 H 0.91834 0.21816 0.10063 0.0
H768 H 0.94232 0.28478 0.99268 0.0
H769 H 0.94911 0.24815 0.05475 0.0
H770 H 0.91743 0.29204 0.19048 0.0
H771 H 0.91062 0.32856 0.12861 0.0
C772 C 0.93762 0.22402 0.25527 0.0
C773 C 0.92644 0.20104 0.23596 0.0
C774 C 0.94112 0.24506 0.21959 0.0
C775 C 0.93383 0.24356 0.16354 0.0
C776 C 0.92433 0.21998 0.14343 0.0
C777 C 0.92058 0.19903 0.17922 0.0
C778 C 0.93742 0.28687 0.03608 0.0
C779 C 0.92583 0.30964 0.05555 0.0
C780 C 0.9411 0.26576 0.07155 0.0
C781 C 0.93361 0.26702 0.12754 0.0
C782 C 0.92362 0.2904 0.14776 0.0
C783 C 0.91965 0.31137 0.11218 0.0
H784 H 0.18594 0.41243 0.41864 0.0
H785 H 0.23163 0.44245 0.55323 0.0
H786 H 0.22198 0.41872 0.35532 0.0
H787 H 0.26777 0.44876 0.48969 0.0
H788 H 0.33275 0.41163 0.37798 0.0
H789 H 0.2969 0.41805 0.44181 0.0
H790 H 0.25122 0.44954 0.30857 0.0
H791 H 0.28712 0.44309 0.24457 0.0
C792 C 0.20346 0.42096 0.43451 0.0
C793 C 0.20584 0.42684 0.49116 0.0
C794 C 0.22417 0.42463 0.39808 0.0
C795 C 0.24792 0.43405 0.41741 0.0
C796 C 0.24987 0.4412 0.47351 0.0
C797 C 0.22904 0.43778 0.50985 0.0
C798 C 0.31531 0.42052 0.36251 0.0
C799 C 0.31286 0.42672 0.30598 0.0
C800 C 0.29471 0.42427 0.39922 0.0
C801 C 0.27101 0.43408 0.38029 0.0
C802 C 0.26906 0.44164 0.32442 0.0
C803 C 0.28976 0.43814 0.2878 0.0
H804 H 0.41229 0.83463 0.63342 0.0
H805 H 0.44194 0.78987 0.49686 0.0
H806 H 0.41812 0.79784 0.69514 0.0
H807 H 0.44771 0.75302 0.55868 0.0
H808 H 0.44226 0.73047 0.80197 0.0
H809 H 0.44883 0.76728 0.74027 0.0
H810 H 0.41599 0.72415 0.6049 0.0
H811 H 0.40935 0.68747 0.66644 0.0
C812 C 0.42066 0.81716 0.6168 0.0
C813 C 0.42655 0.81526 0.56003 0.0
C814 C 0.42405 0.79602 0.65228 0.0
C815 C 0.43316 0.77233 0.63183 0.0
C816 C 0.44037 0.77087 0.57569 0.0
C817 C 0.43726 0.79211 0.54033 0.0
C818 C 0.43702 0.72859 0.75873 0.0
C819 C 0.42521 0.70596 0.73927 0.0
C820 C 0.44059 0.74981 0.72346 0.0
C821 C 0.43277 0.7488 0.66766 0.0
C822 C 0.42244 0.7256 0.64746 0.0
C823 C 0.41857 0.70453 0.68285 0.0
H824 H 0.73494 0.57633 0.2474 0.0
H825 H 0.68994 0.60548 0.38419 0.0
H826 H 0.77153 0.56989 0.30952 0.0
H827 H 0.72647 0.59908 0.44611 0.0
H828 H 0.79289 0.57521 0.55374 0.0
H829 H 0.75652 0.56846 0.49124 0.0
H830 H 0.80056 0.60082 0.35639 0.0
H831 H 0.83687 0.60753 0.4187 0.0
C832 C 0.7326 0.58077 0.29096 0.0
C833 C 0.70948 0.59155 0.31068 0.0
C834 C 0.75369 0.57728 0.32649 0.0
C835 C 0.75208 0.58419 0.38276 0.0
C836 C 0.72839 0.59336 0.40316 0.0
C837 C 0.70741 0.59709 0.36755 0.0
C838 C 0.79507 0.58029 0.51045 0.0
C839 C 0.81782 0.59204 0.49137 0.0
C840 C 0.77411 0.57662 0.47471 0.0
C841 C 0.77547 0.58432 0.41886 0.0
C842 C 0.79884 0.59448 0.399 0.0
C843 C 0.81969 0.59839 0.43484 0.0
H844 H 0.60923 0.18696 0.63252 0.0
H845 H 0.57951 0.23186 0.49607 0.0
H846 H 0.60345 0.22371 0.69424 0.0
H847 H 0.57386 0.26869 0.5579 0.0
H848 H 0.61337 0.33363 0.66631 0.0
H849 H 0.60617 0.29727 0.6043 0.0
H850 H 0.57236 0.25427 0.73902 0.0
H851 H 0.57944 0.29073 0.80114 0.0
C852 C 0.60087 0.20446 0.61594 0.0
C853 C 0.59493 0.20642 0.55922 0.0
C854 C 0.5975 0.22556 0.65141 0.0
C855 C 0.5884 0.24926 0.63095 0.0
C856 C 0.58116 0.25081 0.57487 0.0
C857 C 0.58421 0.22959 0.53953 0.0
C858 C 0.60379 0.31669 0.68244 0.0
C859 C 0.59707 0.31514 0.73882 0.0
C860 C 0.59961 0.29581 0.64681 0.0
C861 C 0.58889 0.27272 0.66677 0.0
C862 C 0.5809 0.27166 0.72245 0.0
C863 C 0.58477 0.29268 0.75794 0.0
loop_
_geom_bond_atom_site_label_1
_geom_bond_atom_site_label_2
_geom_bond_distance
_geom_bond_site_symmetry_2
_ccdc_geom_bond_type
O0 Cd1 2.223 . S
O0 C8 1.315 . S
Cd1 O0 2.223 . S
Cd1 O4 2.297 . S
Cd1 O5 2.439 . S
Cd1 O11 2.240 . S
Cd2 O3 2.240 . S
Cd2 O10 2.223 . S
Cd2 O12 2.297 . S
Cd2 O13 2.439 . S
O3 Cd2 2.240 . S
O3 C8 1.279 . S
O4 Cd1 2.297 . S
O4 C6 1.247 . S
O5 Cd1 2.439 . S
O5 C6 1.208 . S
C6 O4 1.247 . S
C6 O5 1.208 . S
C7 O12 1.247 . S
C7 O13 1.208 . S
C8 O0 1.315 . S
C8 O3 1.279 . S
C9 O10 1.315 . S
C9 O11 1.279 . S
O10 Cd2 2.223 . S
O10 C9 1.315 . S
O11 Cd1 2.240 . S
O11 C9 1.279 . S
O12 Cd2 2.297 . S
O12 C7 1.247 . S
O13 Cd2 2.439 . S
O13 C7 1.208 . S
O14 Cd15 2.223 . S
O14 C22 1.315 . S
Cd15 O14 2.223 . S
Cd15 O18 2.297 . S
Cd15 O19 2.439 . S
Cd15 O25 2.240 . S
Cd16 O17 2.240 . S
Cd16 O24 2.223 . S
Cd16 O26 2.297 . S
Cd16 O27 2.439 . S
O17 Cd16 2.240 . S
O17 C22 1.279 . S
O18 Cd15 2.297 . S
O18 C20 1.247 . S
O19 Cd15 2.439 . S
O19 C20 1.208 . S
C20 O18 1.247 . S
C20 O19 1.208 . S
C21 O26 1.247 . S
C21 O27 1.208 . S
C22 O14 1.315 . S
C22 O17 1.279 . S
C23 O24 1.315 . S
C23 O25 1.279 . S
O24 Cd16 2.223 . S
O24 C23 1.315 . S
O25 Cd15 2.240 . S
O25 C23 1.279 . S
O26 Cd16 2.297 . S
O26 C21 1.247 . S
O27 Cd16 2.439 . S
O27 C21 1.208 . S
O28 Cd29 2.223 . S
O28 C36 1.315 . S
Cd29 O28 2.223 . S
Cd29 O32 2.297 . S
Cd29 O33 2.439 . S
Cd29 O39 2.240 . S
Cd30 O31 2.240 . S
Cd30 O38 2.223 . S
Cd30 O40 2.297 . S
Cd30 O41 2.439 . S
O31 Cd30 2.240 . S
O31 C36 1.279 . S
O32 Cd29 2.297 . S
O32 C34 1.247 . S
O33 Cd29 2.439 . S
O33 C34 1.208 . S
C34 O32 1.247 . S
C34 O33 1.208 . S
C35 O40 1.247 . S
C35 O41 1.208 . S
C36 O28 1.315 . S
C36 O31 1.279 . S
C37 O38 1.315 . S
C37 O39 1.279 . S
O38 Cd30 2.223 . S
O38 C37 1.315 . S
O39 Cd29 2.240 . S
O39 C37 1.279 . S
O40 Cd30 2.297 . S
O40 C35 1.247 . S
O41 Cd30 2.439 . S
O41 C35 1.208 . S
O42 Cd43 2.223 . S
O42 C50 1.315 . S
Cd43 O42 2.223 . S
Cd43 O46 2.297 . S
Cd43 O47 2.439 . S
Cd43 O53 2.240 . S
Cd44 O45 2.240 . S
Cd44 O52 2.223 . S
Cd44 O54 2.297 . S
Cd44 O55 2.439 . S
O45 Cd44 2.240 . S
O45 C50 1.279 . S
O46 Cd43 2.297 . S
O46 C48 1.247 . S
O47 Cd43 2.439 . S
O47 C48 1.208 . S
C48 O46 1.247 . S
C48 O47 1.208 . S
C49 O54 1.247 . S
C49 O55 1.208 . S
C50 O42 1.315 . S
C50 O45 1.279 . S
C51 O52 1.315 . S
C51 O53 1.279 . S
O52 Cd44 2.223 . S
O52 C51 1.315 . S
O53 Cd43 2.240 . S
O53 C51 1.279 . S
O54 Cd44 2.297 . S
O54 C49 1.247 . S
O55 Cd44 2.439 . S
O55 C49 1.208 . S
O56 Cd57 2.223 . S
O56 C64 1.315 . S
Cd57 O56 2.223 . S
Cd57 O60 2.297 . S
Cd57 O61 2.439 . S
Cd57 O67 2.240 . S
Cd58 O59 2.240 . S
Cd58 O66 2.223 . S
Cd58 O68 2.297 1_554 S
Cd58 O69 2.439 . S
O59 Cd58 2.240 . S
O59 C64 1.279 . S
O60 Cd57 2.297 . S
O60 C62 1.247 . S
O61 Cd57 2.439 . S
O61 C62 1.208 . S
C62 O60 1.247 . S
C62 O61 1.208 . S
C63 O68 1.247 1_554 S
C63 O69 1.208 . S
C64 O56 1.315 . S
C64 O59 1.279 . S
C65 O66 1.315 . S
C65 O67 1.279 . S
O66 Cd58 2.223 . S
O66 C65 1.315 . S
O67 Cd57 2.240 . S
O67 C65 1.279 . S
O68 Cd58 2.297 1_556 S
O68 C63 1.247 1_556 S
O69 Cd58 2.439 . S
O69 C63 1.208 . S
O70 Cd71 2.223 . S
O70 C78 1.315 . S
Cd71 O70 2.223 . S
Cd71 O74 2.297 . S
Cd71 O75 2.439 . S
Cd71 O81 2.240 . S
Cd72 O73 2.240 . S
Cd72 O80 2.223 . S
Cd72 O82 2.297 1_556 S
Cd72 O83 2.439 . S
O73 Cd72 2.240 . S
O73 C78 1.279 . S
O74 Cd71 2.297 . S
O74 C76 1.247 . S
O75 Cd71 2.439 . S
O75 C76 1.208 . S
C76 O74 1.247 . S
C76 O75 1.208 . S
C77 O82 1.247 1_556 S
C77 O83 1.208 . S
C78 O70 1.315 . S
C78 O73 1.279 . S
C79 O80 1.315 . S
C79 O81 1.279 . S
O80 Cd72 2.223 . S
O80 C79 1.315 . S
O81 Cd71 2.240 . S
O81 C79 1.279 . S
O82 Cd72 2.297 1_554 S
O82 C77 1.247 1_554 S
O83 Cd72 2.439 . S
O83 C77 1.208 . S
O84 Cd85 2.223 . S
O84 C92 1.315 . S
Cd85 O84 2.223 . S
Cd85 O88 2.297 . S
Cd85 O89 2.439 . S
Cd85 O95 2.240 . S
Cd86 O87 2.240 . S
Cd86 O94 2.223 . S
Cd86 O96 2.297 1_554 S
Cd86 O97 2.439 . S
O87 Cd86 2.240 . S
O87 C92 1.279 . S
O88 Cd85 2.297 . S
O88 C90 1.247 . S
O89 Cd85 2.439 . S
O89 C90 1.208 . S
C90 O88 1.247 . S
C90 O89 1.208 . S
C91 O96 1.247 1_554 S
C91 O97 1.208 . S
C92 O84 1.315 . S
C92 O87 1.279 . S
C93 O94 1.315 . S
C93 O95 1.279 . S
O94 Cd86 2.223 . S
O94 C93 1.315 . S
O95 Cd85 2.240 . S
O95 C93 1.279 . S
O96 Cd86 2.297 1_556 S
O96 C91 1.247 1_556 S
O97 Cd86 2.439 . S
O97 C91 1.208 . S
O98 Cd99 2.223 . S
O98 C106 1.315 . S
Cd99 O98 2.223 . S
Cd99 O102 2.297 . S
Cd99 O103 2.439 . S
Cd99 O109 2.240 . S
Cd100 O101 2.240 . S
Cd100 O108 2.223 . S
Cd100 O110 2.297 1_556 S
Cd100 O111 2.439 . S
O101 Cd100 2.240 . S
O101 C106 1.279 . S
O102 Cd99 2.297 . S
O102 C104 1.247 . S
O103 Cd99 2.439 . S
O103 C104 1.208 . S
C104 O102 1.247 . S
C104 O103 1.208 . S
C105 O110 1.247 1_556 S
C105 O111 1.208 . S
C106 O98 1.315 . S
C106 O101 1.279 . S
C107 O108 1.315 . S
C107 O109 1.279 . S
O108 Cd100 2.223 . S
O108 C107 1.315 . S
O109 Cd99 2.240 . S
O109 C107 1.279 . S
O110 Cd100 2.297 1_554 S
O110 C105 1.247 1_554 S
O111 Cd100 2.439 . S
O111 C105 1.208 . S
O112 Cd113 2.223 . S
O112 C120 1.315 . S
Cd113 O112 2.223 . S
Cd113 O116 2.297 . S
Cd113 O117 2.439 . S
Cd113 O123 2.240 . S
Cd114 O115 2.240 . S
Cd114 O122 2.223 . S
Cd114 O124 2.297 . S
Cd114 O125 2.439 . S
O115 Cd114 2.240 . S
O115 C120 1.279 . S
O116 Cd113 2.297 . S
O116 C118 1.247 . S
O117 Cd113 2.439 . S
O117 C118 1.208 . S
C118 O116 1.247 . S
C118 O117 1.208 . S
C119 O124 1.247 . S
C119 O125 1.208 . S
C120 O112 1.315 . S
C120 O115 1.279 . S
C121 O122 1.315 . S
C121 O123 1.279 . S
O122 Cd114 2.223 . S
O122 C121 1.315 . S
O123 Cd113 2.240 . S
O123 C121 1.279 . S
O124 Cd114 2.297 . S
O124 C119 1.247 . S
O125 Cd114 2.439 . S
O125 C119 1.208 . S
O126 Cd127 2.223 . S
O126 C134 1.315 . S
Cd127 O126 2.223 . S
Cd127 O130 2.297 . S
Cd127 O131 2.439 . S
Cd127 O137 2.240 . S
Cd128 O129 2.240 . S
Cd128 O136 2.223 . S
Cd128 O138 2.297 . S
Cd128 O139 2.439 . S
O129 Cd128 2.240 . S
O129 C134 1.279 . S
O130 Cd127 2.297 . S
O130 C132 1.247 . S
O131 Cd127 2.439 . S
O131 C132 1.208 . S
C132 O130 1.247 . S
C132 O131 1.208 . S
C133 O138 1.247 . S
C133 O139 1.208 . S
C134 O126 1.315 . S
C134 O129 1.279 . S
C135 O136 1.315 . S
C135 O137 1.279 . S
O136 Cd128 2.223 . S
O136 C135 1.315 . S
O137 Cd127 2.240 . S
O137 C135 1.279 . S
O138 Cd128 2.297 . S
O138 C133 1.247 . S
O139 Cd128 2.439 . S
O139 C133 1.208 . S
O140 Cd141 2.223 . S
O140 C148 1.315 . S
Cd141 O140 2.223 . S
Cd141 O144 2.297 . S
Cd141 O145 2.439 . S
Cd141 O151 2.240 . S
Cd142 O143 2.240 . S
Cd142 O150 2.223 . S
Cd142 O152 2.297 . S
Cd142 O153 2.439 . S
O143 Cd142 2.240 . S
O143 C148 1.279 . S
O144 Cd141 2.297 . S
O144 C146 1.247 . S
O145 Cd141 2.439 . S
O145 C146 1.208 . S
C146 O144 1.247 . S
C146 O145 1.208 . S
C147 O152 1.247 . S
C147 O153 1.208 . S
C148 O140 1.315 . S
C148 O143 1.279 . S
C149 O150 1.315 . S
C149 O151 1.279 . S
O150 Cd142 2.223 . S
O150 C149 1.315 . S
O151 Cd141 2.240 . S
O151 C149 1.279 . S
O152 Cd142 2.297 . S
O152 C147 1.247 . S
O153 Cd142 2.439 . S
O153 C147 1.208 . S
O154 Cd155 2.223 . S
O154 C162 1.315 . S
Cd155 O154 2.223 . S
Cd155 O158 2.297 . S
Cd155 O159 2.439 . S
Cd155 O165 2.240 . S
Cd156 O157 2.240 . S
Cd156 O164 2.223 . S
Cd156 O166 2.297 . S
Cd156 O167 2.439 . S
O157 Cd156 2.240 . S
O157 C162 1.279 . S
O158 Cd155 2.297 . S
O158 C160 1.247 . S
O159 Cd155 2.439 . S
O159 C160 1.208 . S
C160 O158 1.247 . S
C160 O159 1.208 . S
C161 O166 1.247 . S
C161 O167 1.208 . S
C162 O154 1.315 . S
C162 O157 1.279 . S
C163 O164 1.315 . S
C163 O165 1.279 . S
O164 Cd156 2.223 . S
O164 C163 1.315 . S
O165 Cd155 2.240 . S
O165 C163 1.279 . S
O166 Cd156 2.297 . S
O166 C161 1.247 . S
O167 Cd156 2.439 . S
O167 C161 1.208 . S
O168 Cd169 2.223 . S
O168 C176 1.315 . S
Cd169 O168 2.223 . S
Cd169 O172 2.297 . S
Cd169 O173 2.439 . S
Cd169 O179 2.240 . S
Cd170 O171 2.240 . S
Cd170 O178 2.223 . S
Cd170 O180 2.297 . S
Cd170 O181 2.439 . S
O171 Cd170 2.240 . S
O171 C176 1.279 . S
O172 Cd169 2.297 . S
O172 C174 1.247 . S
O173 Cd169 2.439 . S
O173 C174 1.208 . S
C174 O172 1.247 . S
C174 O173 1.208 . S
C175 O180 1.247 . S
C175 O181 1.208 . S
C176 O168 1.315 . S
C176 O171 1.279 . S
C177 O178 1.315 . S
C177 O179 1.279 . S
O178 Cd170 2.223 . S
O178 C177 1.315 . S
O179 Cd169 2.240 . S
O179 C177 1.279 . S
O180 Cd170 2.297 . S
O180 C175 1.247 . S
O181 Cd170 2.439 . S
O181 C175 1.208 . S
O182 Cd183 2.223 . S
O182 C190 1.315 . S
Cd183 O182 2.223 . S
Cd183 O186 2.297 . S
Cd183 O187 2.439 . S
Cd183 O193 2.240 . S
Cd184 O185 2.240 . S
Cd184 O192 2.223 . S
Cd184 O194 2.297 . S
Cd184 O195 2.439 . S
O185 Cd184 2.240 . S
O185 C190 1.279 . S
O186 Cd183 2.297 . S
O186 C188 1.247 . S
O187 Cd183 2.439 . S
O187 C188 1.208 . S
C188 O186 1.247 . S
C188 O187 1.208 . S
C189 O194 1.247 . S
C189 O195 1.208 . S
C190 O182 1.315 . S
C190 O185 1.279 . S
C191 O192 1.315 . S
C191 O193 1.279 . S
O192 Cd184 2.223 . S
O192 C191 1.315 . S
O193 Cd183 2.240 . S
O193 C191 1.279 . S
O194 Cd184 2.297 . S
O194 C189 1.247 . S
O195 Cd184 2.439 . S
O195 C189 1.208 . S
O196 Cd197 2.223 . S
O196 C204 1.315 . S
Cd197 O196 2.223 . S
Cd197 O200 2.297 . S
Cd197 O201 2.439 . S
Cd197 O207 2.240 . S
Cd198 O199 2.240 . S
Cd198 O206 2.223 . S
Cd198 O208 2.297 . S
Cd198 O209 2.439 . S
O199 Cd198 2.240 . S
O199 C204 1.279 . S
O200 Cd197 2.297 . S
O200 C202 1.247 . S
O201 Cd197 2.439 . S
O201 C202 1.208 . S
C202 O200 1.247 . S
C202 O201 1.208 . S
C203 O208 1.247 . S
C203 O209 1.208 . S
C204 O196 1.315 . S
C204 O199 1.279 . S
C205 O206 1.315 . S
C205 O207 1.279 . S
O206 Cd198 2.223 . S
O206 C205 1.315 . S
O207 Cd197 2.240 . S
O207 C205 1.279 . S
O208 Cd198 2.297 . S
O208 C203 1.247 . S
O209 Cd198 2.439 . S
O209 C203 1.208 . S
O210 Cd211 2.223 . S
O210 C218 1.315 . S
Cd211 O210 2.223 . S
Cd211 O214 2.297 . S
Cd211 O215 2.439 . S
Cd211 O221 2.240 . S
Cd212 O213 2.240 . S
Cd212 O220 2.223 . S
Cd212 O222 2.297 . S
Cd212 O223 2.439 . S
O213 Cd212 2.240 . S
O213 C218 1.279 . S
O214 Cd211 2.297 . S
O214 C216 1.247 . S
O215 Cd211 2.439 . S
O215 C216 1.208 . S
C216 O214 1.247 . S
C216 O215 1.208 . S
C217 O222 1.247 . S
C217 O223 1.208 . S
C218 O210 1.315 . S
C218 O213 1.279 . S
C219 O220 1.315 . S
C219 O221 1.279 . S
O220 Cd212 2.223 . S
O220 C219 1.315 . S
O221 Cd211 2.240 . S
O221 C219 1.279 . S
O222 Cd212 2.297 . S
O222 C217 1.247 . S
O223 Cd212 2.439 . S
O223 C217 1.208 . S
H224 C232 0.950 . S
H225 C237 0.950 . S
H226 C234 0.950 . S
H227 C236 0.950 . S
H228 C238 0.950 . S
H229 C240 0.950 . S
H230 C242 0.950 . S
H231 C243 0.950 . S
C232 H224 0.950 . S
C232 C233 1.386 . S
C232 C234 1.391 . S
C233 C232 1.386 . S
C233 C237 1.393 . S
C234 H226 0.950 . S
C234 C232 1.391 . S
C234 C235 1.400 . S
C235 C234 1.400 . S
C235 C236 1.398 . S
C235 C241 1.491 . S
C236 H227 0.950 . S
C236 C235 1.398 . S
C236 C237 1.391 . S
C237 H225 0.950 . S
C237 C233 1.393 . S
C237 C236 1.391 . S
C238 H228 0.950 . S
C238 C239 1.386 . S
C238 C240 1.391 1_545 S
C239 C238 1.386 . S
C239 C243 1.393 . S
C240 H229 0.950 . S
C240 C238 1.391 1_565 S
C240 C241 1.400 . S
C241 C235 1.491 . S
C241 C240 1.400 . S
C241 C242 1.398 1_565 S
C242 H230 0.950 . S
C242 C241 1.398 1_545 S
C242 C243 1.391 . S
C243 H231 0.950 . S
C243 C239 1.393 . S
C243 C242 1.391 . S
H244 C252 0.950 . S
H245 C257 0.950 . S
H246 C254 0.950 . S
H247 C256 0.950 1_655 S
H248 C258 0.950 . S
H249 C260 0.950 . S
H250 C262 0.950 . S
H251 C263 0.950 . S
C252 H244 0.950 . S
C252 C253 1.386 . S
C252 C254 1.391 1_455 S
C253 C252 1.386 . S
C253 C257 1.393 . S
C254 H246 0.950 . S
C254 C252 1.391 1_655 S
C254 C255 1.400 . S
C255 C254 1.400 . S
C255 C256 1.398 1_655 S
C255 C261 1.491 . S
C256 H247 0.950 1_455 S
C256 C255 1.398 1_455 S
C256 C257 1.391 . S
C257 H245 0.950 . S
C257 C253 1.393 . S
C257 C256 1.391 . S
C258 H248 0.950 . S
C258 C259 1.386 . S
C258 C260 1.391 . S
C259 C258 1.386 . S
C259 C263 1.393 . S
C260 H249 0.950 . S
C260 C258 1.391 . S
C260 C261 1.400 . S
C261 C255 1.491 . S
C261 C260 1.400 . S
C261 C262 1.398 . S
C262 H250 0.950 . S
C262 C261 1.398 . S
C262 C263 1.391 . S
C263 H251 0.950 . S
C263 C259 1.393 . S
C263 C262 1.391 . S
H264 C272 0.950 . S
H265 C277 0.950 . S
H266 C274 0.950 . S
H267 C276 0.950 1_545 S
H268 C278 0.950 . S
H269 C280 0.950 . S
H270 C282 0.950 . S
H271 C283 0.950 . S
C272 H264 0.950 . S
C272 C273 1.386 . S
C272 C274 1.391 1_565 S
C273 C272 1.386 . S
C273 C277 1.393 . S
C274 H266 0.950 . S
C274 C272 1.391 1_545 S
C274 C275 1.400 . S
C275 C274 1.400 . S
C275 C276 1.398 1_545 S
C275 C281 1.491 . S
C276 H267 0.950 1_565 S
C276 C275 1.398 1_565 S
C276 C277 1.391 . S
C277 H265 0.950 . S
C277 C273 1.393 . S
C277 C276 1.391 . S
C278 H268 0.950 . S
C278 C279 1.386 . S
C278 C280 1.391 . S
C279 C278 1.386 . S
C279 C283 1.393 . S
C280 H269 0.950 . S
C280 C278 1.391 . S
C280 C281 1.400 . S
C281 C275 1.491 . S
C281 C280 1.400 . S
C281 C282 1.398 . S
C282 H270 0.950 . S
C282 C281 1.398 . S
C282 C283 1.391 . S
C283 H271 0.950 . S
C283 C279 1.393 . S
C283 C282 1.391 . S
H284 C292 0.950 . S
H285 C297 0.950 . S
H286 C294 0.950 . S
H287 C296 0.950 . S
H288 C298 0.950 . S
H289 C300 0.949 . S
H290 C302 0.950 . S
H291 C303 0.950 . S
C292 H284 0.950 . S
C292 C293 1.386 . S
C292 C294 1.391 . S
C293 C292 1.386 . S
C293 C297 1.393 . S
C294 H286 0.950 . S
C294 C292 1.391 . S
C294 C295 1.400 . S
C295 C294 1.400 . S
C295 C296 1.398 . S
C295 C301 1.491 . S
C296 H287 0.950 . S
C296 C295 1.398 . S
C296 C297 1.391 . S
C297 H285 0.950 . S
C297 C293 1.393 . S
C297 C296 1.391 . S
C298 H288 0.950 . S
C298 C299 1.386 . S
C298 C300 1.391 . S
C299 C298 1.386 . S
C299 C303 1.393 . S
C300 H289 0.949 . S
C300 C298 1.391 . S
C300 C301 1.400 1_655 S
C301 C295 1.491 . S
C301 C300 1.400 1_455 S
C301 C302 1.398 . S
C302 H290 0.950 . S
C302 C301 1.398 . S
C302 C303 1.391 1_455 S
C303 H291 0.950 . S
C303 C299 1.393 . S
C303 C302 1.391 1_655 S
H304 C312 0.950 . S
H305 C317 0.950 . S
H306 C314 0.950 . S
H307 C316 0.950 . S
H308 C318 0.950 . S
H309 C320 0.950 1_554 S
H310 C322 0.950 . S
H311 C323 0.950 . S
C312 H304 0.950 . S
C312 C313 1.386 1_556 S
C312 C314 1.391 . S
C313 C312 1.386 1_554 S
C313 C317 1.393 . S
C314 H306 0.950 . S
C314 C312 1.391 . S
C314 C315 1.400 . S
C315 C314 1.400 . S
C315 C316 1.398 1_556 S
C315 C321 1.491 . S
C316 H307 0.950 . S
C316 C315 1.398 1_554 S
C316 C317 1.391 . S
C317 H305 0.950 . S
C317 C313 1.393 . S
C317 C316 1.391 . S
C318 H308 0.950 . S
C318 C319 1.386 . S
C318 C320 1.391 . S
C319 C318 1.386 . S
C319 C323 1.393 . S
C320 H309 0.950 1_556 S
C320 C318 1.391 . S
C320 C321 1.400 . S
C321 C315 1.491 . S
C321 C320 1.400 . S
C321 C322 1.398 . S
C322 H310 0.950 . S
C322 C321 1.398 . S
C322 C323 1.391 . S
C323 H311 0.950 . S
C323 C319 1.393 . S
C323 C322 1.391 . S
H324 C332 0.950 . S
H325 C337 0.950 . S
H326 C334 0.950 . S
H327 C336 0.950 . S
H328 C338 0.950 . S
H329 C340 0.950 . S
H330 C342 0.950 . S
H331 C343 0.950 1_556 S
C332 H324 0.950 . S
C332 C333 1.386 . S
C332 C334 1.391 . S
C333 C332 1.386 . S
C333 C337 1.393 1_556 S
C334 H326 0.950 . S
C334 C332 1.391 . S
C334 C335 1.400 1_556 S
C335 C334 1.400 1_554 S
C335 C336 1.398 . S
C335 C341 1.491 . S
C336 H327 0.950 . S
C336 C335 1.398 . S
C336 C337 1.391 . S
C337 H325 0.950 . S
C337 C333 1.393 1_554 S
C337 C336 1.391 . S
C338 H328 0.950 . S
C338 C339 1.386 . S
C338 C340 1.391 . S
C339 C338 1.386 . S
C339 C343 1.393 . S
C340 H329 0.950 . S
C340 C338 1.391 . S
C340 C341 1.400 . S
C341 C335 1.491 . S
C341 C340 1.400 . S
C341 C342 1.398 1_554 S
C342 H330 0.950 . S
C342 C341 1.398 1_556 S
C342 C343 1.391 1_556 S
C343 H331 0.950 1_554 S
C343 C339 1.393 . S
C343 C342 1.391 1_554 S
H344 C352 0.950 . S
H345 C357 0.950 . S
H346 C354 0.950 . S
H347 C356 0.950 . S
H348 C358 0.950 . S
H349 C360 0.950 . S
H350 C362 0.950 . S
H351 C363 0.950 . S
C352 H344 0.950 . S
C352 C353 1.386 . S
C352 C354 1.391 . S
C353 C352 1.386 . S
C353 C357 1.393 . S
C354 H346 0.950 . S
C354 C352 1.391 . S
C354 C355 1.400 . S
C355 C354 1.400 . S
C355 C356 1.398 . S
C355 C361 1.491 . S
C356 H347 0.950 . S
C356 C355 1.398 . S
C356 C357 1.391 . S
C357 H345 0.950 . S
C357 C353 1.393 . S
C357 C356 1.391 . S
C358 H348 0.950 . S
C358 C359 1.386 1_556 S
C358 C360 1.391 . S
C359 C358 1.386 1_554 S
C359 C363 1.393 . S
C360 H349 0.950 . S
C360 C358 1.391 . S
C360 C361 1.400 . S
C361 C355 1.491 . S
C361 C360 1.400 . S
C361 C362 1.398 1_556 S
C362 H350 0.950 . S
C362 C361 1.398 1_554 S
C362 C363 1.391 . S
C363 H351 0.950 . S
C363 C359 1.393 . S
C363 C362 1.391 . S
H364 C372 0.950 1_556 S
H365 C377 0.950 . S
H366 C374 0.950 1_556 S
H367 C376 0.950 . S
H368 C378 0.950 . S
H369 C380 0.950 . S
H370 C382 0.950 . S
H371 C383 0.950 . S
C372 H364 0.950 1_554 S
C372 C373 1.386 . S
C372 C374 1.391 . S
C373 C372 1.386 . S
C373 C377 1.393 . S
C374 H366 0.950 1_554 S
C374 C372 1.391 . S
C374 C375 1.400 . S
C375 C374 1.400 . S
C375 C376 1.398 . S
C375 C381 1.491 . S
C376 H367 0.950 . S
C376 C375 1.398 . S
C376 C377 1.391 . S
C377 H365 0.950 . S
C377 C373 1.393 . S
C377 C376 1.391 . S
C378 H368 0.950 . S
C378 C379 1.386 1_554 S
C378 C380 1.391 . S
C379 C378 1.386 1_556 S
C379 C383 1.393 . S
C380 H369 0.950 . S
C380 C378 1.391 . S
C380 C381 1.400 . S
C381 C375 1.491 . S
C381 C380 1.400 . S
C381 C382 1.398 1_554 S
C382 H370 0.950 . S
C382 C381 1.398 1_556 S
C382 C383 1.391 . S
C383 H371 0.950 . S
C383 C379 1.393 . S
C383 C382 1.391 . S
H384 C392 0.950 . S
H385 C397 0.950 . S
H386 C394 0.950 . S
H387 C396 0.950 . S
H388 C398 0.950 . S
H389 C400 0.950 . S
H390 C402 0.950 . S
H391 C403 0.950 . S
C392 H384 0.950 . S
C392 C393 1.386 . S
C392 C394 1.391 . S
C393 C392 1.386 . S
C393 C397 1.393 . S
C394 H386 0.950 . S
C394 C392 1.391 . S
C394 C395 1.400 . S
C395 C394 1.400 . S
C395 C396 1.398 . S
C395 C401 1.491 . S
C396 H387 0.950 . S
C396 C395 1.398 . S
C396 C397 1.391 . S
C397 H385 0.950 . S
C397 C393 1.393 . S
C397 C396 1.391 . S
C398 H388 0.950 . S
C398 C399 1.386 . S
C398 C400 1.391 . S
C399 C398 1.386 . S
C399 C403 1.393 . S
C400 H389 0.950 . S
C400 C398 1.391 . S
C400 C401 1.400 . S
C401 C395 1.491 . S
C401 C400 1.400 . S
C401 C402 1.398 . S
C402 H390 0.950 . S
C402 C401 1.398 . S
C402 C403 1.391 . S
C403 H391 0.950 . S
C403 C399 1.393 . S
C403 C402 1.391 . S
H404 C412 0.950 . S
H405 C417 0.950 . S
H406 C414 0.950 . S
H407 C416 0.950 . S
H408 C418 0.950 . S
H409 C420 0.950 . S
H410 C422 0.950 . S
H411 C423 0.950 . S
C412 H404 0.950 . S
C412 C413 1.386 . S
C412 C414 1.391 . S
C413 C412 1.386 . S
C413 C417 1.393 . S
C414 H406 0.950 . S
C414 C412 1.391 . S
C414 C415 1.400 . S
C415 C414 1.400 . S
C415 C416 1.398 . S
C415 C421 1.491 . S
C416 H407 0.950 . S
C416 C415 1.398 . S
C416 C417 1.391 . S
C417 H405 0.950 . S
C417 C413 1.393 . S
C417 C416 1.391 . S
C418 H408 0.950 . S
C418 C419 1.386 . S
C418 C420 1.391 . S
C419 C418 1.386 . S
C419 C423 1.393 . S
C420 H409 0.950 . S
C420 C418 1.391 . S
C420 C421 1.400 . S
C421 C415 1.491 . S
C421 C420 1.400 . S
C421 C422 1.398 . S
C422 H410 0.950 . S
C422 C421 1.398 . S
C422 C423 1.391 . S
C423 H411 0.950 . S
C423 C419 1.393 . S
C423 C422 1.391 . S
H424 C432 0.950 . S
H425 C437 0.950 . S
H426 C434 0.950 . S
H427 C436 0.950 . S
H428 C438 0.950 . S
H429 C440 0.950 . S
H430 C442 0.950 . S
H431 C443 0.950 . S
C432 H424 0.950 . S
C432 C433 1.386 . S
C432 C434 1.391 . S
C433 C432 1.386 . S
C433 C437 1.393 . S
C434 H426 0.950 . S
C434 C432 1.391 . S
C434 C435 1.400 . S
C435 C434 1.400 . S
C435 C436 1.398 . S
C435 C441 1.491 . S
C436 H427 0.950 . S
C436 C435 1.398 . S
C436 C437 1.391 . S
C437 H425 0.950 . S
C437 C433 1.393 . S
C437 C436 1.391 . S
C438 H428 0.950 . S
C438 C439 1.386 . S
C438 C440 1.391 . S
C439 C438 1.386 . S
C439 C443 1.393 . S
C440 H429 0.950 . S
C440 C438 1.391 . S
C440 C441 1.400 . S
C441 C435 1.491 . S
C441 C440 1.400 . S
C441 C442 1.398 . S
C442 H430 0.950 . S
C442 C441 1.398 . S
C442 C443 1.391 . S
C443 H431 0.950 . S
C443 C439 1.393 . S
C443 C442 1.391 . S
H444 C452 0.950 . S
H445 C457 0.950 . S
H446 C454 0.950 . S
H447 C456 0.950 . S
H448 C458 0.950 . S
H449 C460 0.950 . S
H450 C462 0.950 . S
H451 C463 0.950 . S
C452 H444 0.950 . S
C452 C453 1.386 . S
C452 C454 1.391 . S
C453 C452 1.386 . S
C453 C457 1.393 . S
C454 H446 0.950 . S
C454 C452 1.391 . S
C454 C455 1.400 . S
C455 C454 1.400 . S
C455 C456 1.398 . S
C455 C461 1.491 . S
C456 H447 0.950 . S
C456 C455 1.398 . S
C456 C457 1.391 . S
C457 H445 0.950 . S
C457 C453 1.393 . S
C457 C456 1.391 . S
C458 H448 0.950 . S
C458 C459 1.386 . S
C458 C460 1.391 . S
C459 C458 1.386 . S
C459 C463 1.393 . S
C460 H449 0.950 . S
C460 C458 1.391 . S
C460 C461 1.400 . S
C461 C455 1.491 . S
C461 C460 1.400 . S
C461 C462 1.398 . S
C462 H450 0.950 . S
C462 C461 1.398 . S
C462 C463 1.391 . S
C463 H451 0.950 . S
C463 C459 1.393 . S
C463 C462 1.391 . S
H464 C472 0.950 . S
H465 C477 0.950 . S
H466 C474 0.950 . S
H467 C476 0.950 . S
H468 C478 0.950 . S
H469 C480 0.950 . S
H470 C482 0.950 . S
H471 C483 0.950 . S
C472 H464 0.950 . S
C472 C473 1.386 . S
C472 C474 1.391 1_565 S
C473 C472 1.386 . S
C473 C477 1.393 . S
C474 H466 0.950 . S
C474 C472 1.391 1_545 S
C474 C475 1.400 . S
C475 C474 1.400 . S
C475 C476 1.398 1_545 S
C475 C481 1.491 . S
C476 H467 0.950 . S
C476 C475 1.398 1_565 S
C476 C477 1.391 . S
C477 H465 0.950 . S
C477 C473 1.393 . S
C477 C476 1.391 . S
C478 H468 0.950 . S
C478 C479 1.386 . S
C478 C480 1.391 . S
C479 C478 1.386 . S
C479 C483 1.393 . S
C480 H469 0.950 . S
C480 C478 1.391 . S
C480 C481 1.400 . S
C481 C475 1.491 . S
C481 C480 1.400 . S
C481 C482 1.398 . S
C482 H470 0.950 . S
C482 C481 1.398 . S
C482 C483 1.391 . S
C483 H471 0.950 . S
C483 C479 1.393 . S
C483 C482 1.391 . S
H484 C492 0.950 . S
H485 C497 0.950 . S
H486 C494 0.950 . S
H487 C496 0.950 . S
H488 C498 0.950 . S
H489 C500 0.950 . S
H490 C502 0.950 . S
H491 C503 0.950 . S
C492 H484 0.950 . S
C492 C493 1.386 . S
C492 C494 1.391 . S
C493 C492 1.386 . S
C493 C497 1.393 . S
C494 H486 0.950 . S
C494 C492 1.391 . S
C494 C495 1.400 1_655 S
C495 C494 1.400 1_455 S
C495 C496 1.398 . S
C495 C501 1.491 . S
C496 H487 0.950 . S
C496 C495 1.398 . S
C496 C497 1.391 1_455 S
C497 H485 0.950 . S
C497 C493 1.393 . S
C497 C496 1.391 1_655 S
C498 H488 0.950 . S
C498 C499 1.386 . S
C498 C500 1.391 . S
C499 C498 1.386 . S
C499 C503 1.393 . S
C500 H489 0.950 . S
C500 C498 1.391 . S
C500 C501 1.400 . S
C501 C495 1.491 . S
C501 C500 1.400 . S
C501 C502 1.398 . S
C502 H490 0.950 . S
C502 C501 1.398 . S
C502 C503 1.391 . S
C503 H491 0.950 . S
C503 C499 1.393 . S
C503 C502 1.391 . S
H504 C512 0.950 . S
H505 C517 0.950 . S
H506 C514 0.950 . S
H507 C516 0.950 . S
H508 C518 0.950 . S
H509 C520 0.960 . S
H510 C522 0.950 . S
H511 C523 0.950 . S
C512 H504 0.950 . S
C512 C513 1.386 . S
C512 C514 1.391 . S
C513 C512 1.386 . S
C513 C517 1.393 . S
C514 H506 0.950 . S
C514 C512 1.391 . S
C514 C515 1.400 . S
C515 C514 1.400 . S
C515 C516 1.398 . S
C515 C521 1.491 . S
C516 H507 0.950 . S
C516 C515 1.398 . S
C516 C517 1.391 . S
C517 H505 0.950 . S
C517 C513 1.393 . S
C517 C516 1.391 . S
C518 H508 0.950 . S
C518 C519 1.386 . S
C518 C520 1.370 1_545 S
C519 C518 1.386 . S
C519 C523 1.393 . S
C520 H509 0.960 . S
C520 C518 1.370 1_565 S
C520 C521 1.412 . S
C521 C515 1.491 . S
C521 C520 1.412 . S
C521 C522 1.398 . S
C522 H510 0.950 . S
C522 C521 1.398 . S
C522 C523 1.391 1_565 S
C523 H511 0.950 . S
C523 C519 1.393 . S
C523 C522 1.391 1_545 S
H524 C532 0.950 . S
H525 C537 0.950 . S
H526 C534 0.950 . S
H527 C536 0.950 . S
H528 C538 0.950 . S
H529 C540 0.967 . S
H530 C542 0.950 . S
H531 C543 0.950 . S
C532 H524 0.950 . S
C532 C533 1.386 . S
C532 C534 1.391 . S
C533 C532 1.386 . S
C533 C537 1.393 . S
C534 H526 0.950 . S
C534 C532 1.391 . S
C534 C535 1.400 . S
C535 C534 1.400 . S
C535 C536 1.398 . S
C535 C541 1.491 . S
C536 H527 0.950 . S
C536 C535 1.398 . S
C536 C537 1.391 . S
C537 H525 0.950 . S
C537 C533 1.393 . S
C537 C536 1.391 . S
C538 H528 0.950 . S
C538 C539 1.386 . S
C538 C540 1.355 1_455 S
C539 C538 1.386 . S
C539 C543 1.393 . S
C540 H529 0.967 . S
C540 C538 1.355 1_655 S
C540 C541 1.420 . S
C541 C535 1.491 . S
C541 C540 1.420 . S
C541 C542 1.398 . S
C542 H530 0.950 . S
C542 C541 1.398 . S
C542 C543 1.391 1_655 S
C543 H531 0.950 . S
C543 C539 1.393 . S
C543 C542 1.391 1_455 S
H544 C552 0.950 . S
H545 C557 0.950 . S
H546 C554 0.950 . S
H547 C556 0.950 . S
H548 C558 0.950 . S
H549 C560 0.950 . S
H550 C562 0.950 . S
H551 C563 0.950 . S
C552 H544 0.950 . S
C552 C553 1.386 . S
C552 C554 1.391 . S
C553 C552 1.386 . S
C553 C557 1.393 . S
C554 H546 0.950 . S
C554 C552 1.391 . S
C554 C555 1.400 . S
C555 C554 1.400 . S
C555 C556 1.398 . S
C555 C561 1.491 . S
C556 H547 0.950 . S
C556 C555 1.398 . S
C556 C557 1.391 . S
C557 H545 0.950 . S
C557 C553 1.393 . S
C557 C556 1.391 . S
C558 H548 0.950 . S
C558 C559 1.386 . S
C558 C560 1.391 . S
C559 C558 1.386 . S
C559 C563 1.393 . S
C560 H549 0.950 . S
C560 C558 1.391 . S
C560 C561 1.400 . S
C561 C555 1.491 . S
C561 C560 1.400 . S
C561 C562 1.398 . S
C562 H550 0.950 . S
C562 C561 1.398 . S
C562 C563 1.391 . S
C563 H551 0.950 . S
C563 C559 1.393 . S
C563 C562 1.391 . S
H564 C572 0.950 . S
H565 C577 0.950 . S
H566 C574 0.950 . S
H567 C576 0.950 . S
H568 C578 0.950 . S
H569 C580 0.950 . S
H570 C582 0.950 . S
H571 C583 0.950 . S
C572 H564 0.950 . S
C572 C573 1.386 . S
C572 C574 1.391 . S
C573 C572 1.386 . S
C573 C577 1.393 . S
C574 H566 0.950 . S
C574 C572 1.391 . S
C574 C575 1.400 . S
C575 C574 1.400 . S
C575 C576 1.398 . S
C575 C581 1.491 . S
C576 H567 0.950 . S
C576 C575 1.398 . S
C576 C577 1.391 . S
C577 H565 0.950 . S
C577 C573 1.393 . S
C577 C576 1.391 . S
C578 H568 0.950 . S
C578 C579 1.386 . S
C578 C580 1.391 . S
C579 C578 1.386 . S
C579 C583 1.393 . S
C580 H569 0.950 . S
C580 C578 1.391 . S
C580 C581 1.400 . S
C581 C575 1.491 . S
C581 C580 1.400 . S
C581 C582 1.398 . S
C582 H570 0.950 . S
C582 C581 1.398 . S
C582 C583 1.391 . S
C583 H571 0.950 . S
C583 C579 1.393 . S
C583 C582 1.391 . S
H584 C592 0.950 . S
H585 C597 0.950 . S
H586 C594 0.950 . S
H587 C596 0.950 . S
H588 C598 0.950 . S
H589 C600 0.950 . S
H590 C602 0.950 . S
H591 C603 0.950 . S
C592 H584 0.950 . S
C592 C593 1.386 . S
C592 C594 1.391 . S
C593 C592 1.386 . S
C593 C597 1.393 . S
C594 H586 0.950 . S
C594 C592 1.391 . S
C594 C595 1.400 . S
C595 C594 1.400 . S
C595 C596 1.398 . S
C595 C601 1.491 . S
C596 H587 0.950 . S
C596 C595 1.398 . S
C596 C597 1.391 . S
C597 H585 0.950 . S
C597 C593 1.393 . S
C597 C596 1.391 . S
C598 H588 0.950 . S
C598 C599 1.386 . S
C598 C600 1.391 . S
C599 C598 1.386 . S
C599 C603 1.393 . S
C600 H589 0.950 . S
C600 C598 1.391 . S
C600 C601 1.400 . S
C601 C595 1.491 . S
C601 C600 1.400 . S
C601 C602 1.398 . S
C602 H590 0.950 . S
C602 C601 1.398 . S
C602 C603 1.391 . S
C603 H591 0.950 . S
C603 C599 1.393 . S
C603 C602 1.391 . S
H604 C612 0.950 . S
H605 C617 0.950 . S
H606 C614 0.950 . S
H607 C616 0.950 . S
H608 C618 0.950 . S
H609 C620 0.950 . S
H610 C622 0.950 . S
H611 C623 0.950 . S
C612 H604 0.950 . S
C612 C613 1.386 . S
C612 C614 1.391 . S
C613 C612 1.386 . S
C613 C617 1.393 . S
C614 H606 0.950 . S
C614 C612 1.391 . S
C614 C615 1.400 . S
C615 C614 1.400 . S
C615 C616 1.398 . S
C615 C621 1.491 . S
C616 H607 0.950 . S
C616 C615 1.398 . S
C616 C617 1.391 . S
C617 H605 0.950 . S
C617 C613 1.393 . S
C617 C616 1.391 . S
C618 H608 0.950 . S
C618 C619 1.386 . S
C618 C620 1.391 . S
C619 C618 1.386 . S
C619 C623 1.393 . S
C620 H609 0.950 . S
C620 C618 1.391 . S
C620 C621 1.400 . S
C621 C615 1.491 . S
C621 C620 1.400 . S
C621 C622 1.398 . S
C622 H610 0.950 . S
C622 C621 1.398 . S
C622 C623 1.391 . S
C623 H611 0.950 . S
C623 C619 1.393 . S
C623 C622 1.391 . S
H624 C632 0.950 . S
H625 C637 0.950 . S
H626 C634 0.950 . S
H627 C636 0.950 . S
H628 C638 0.950 . S
H629 C640 0.950 . S
H630 C642 0.950 . S
H631 C643 0.950 . S
C632 H624 0.950 . S
C632 C633 1.386 . S
C632 C634 1.391 . S
C633 C632 1.386 . S
C633 C637 1.393 . S
C634 H626 0.950 . S
C634 C632 1.391 . S
C634 C635 1.400 . S
C635 C634 1.400 . S
C635 C636 1.398 . S
C635 C641 1.491 . S
C636 H627 0.950 . S
C636 C635 1.398 . S
C636 C637 1.391 . S
C637 H625 0.950 . S
C637 C633 1.393 . S
C637 C636 1.391 . S
C638 H628 0.950 . S
C638 C639 1.386 . S
C638 C640 1.391 . S
C639 C638 1.386 . S
C639 C643 1.393 . S
C640 H629 0.950 . S
C640 C638 1.391 . S
C640 C641 1.400 . S
C641 C635 1.491 . S
C641 C640 1.400 . S
C641 C642 1.398 . S
C642 H630 0.950 . S
C642 C641 1.398 . S
C642 C643 1.391 . S
C643 H631 0.950 . S
C643 C639 1.393 . S
C643 C642 1.391 . S
H644 C652 0.950 . S
H645 C657 0.950 . S
H646 C654 0.950 . S
H647 C656 0.950 . S
H648 C658 0.950 . S
H649 C660 0.950 . S
H650 C662 0.950 . S
H651 C663 0.950 . S
C652 H644 0.950 . S
C652 C653 1.386 . S
C652 C654 1.391 . S
C653 C652 1.386 . S
C653 C657 1.393 . S
C654 H646 0.950 . S
C654 C652 1.391 . S
C654 C655 1.400 . S
C655 C654 1.400 . S
C655 C656 1.398 . S
C655 C661 1.491 . S
C656 H647 0.950 . S
C656 C655 1.398 . S
C656 C657 1.391 . S
C657 H645 0.950 . S
C657 C653 1.393 . S
C657 C656 1.391 . S
C658 H648 0.950 . S
C658 C659 1.386 . S
C658 C660 1.391 . S
C659 C658 1.386 . S
C659 C663 1.393 . S
C660 H649 0.950 . S
C660 C658 1.391 . S
C660 C661 1.400 . S
C661 C655 1.491 . S
C661 C660 1.400 . S
C661 C662 1.398 . S
C662 H650 0.950 . S
C662 C661 1.398 . S
C662 C663 1.391 . S
C663 H651 0.950 . S
C663 C659 1.393 . S
C663 C662 1.391 . S
H664 C672 0.950 . S
H665 C677 0.950 . S
H666 C674 0.950 . S
H667 C676 0.950 . S
H668 C678 0.950 . S
H669 C680 0.950 . S
H670 C682 0.950 . S
H671 C683 0.950 . S
C672 H664 0.950 . S
C672 C673 1.386 . S
C672 C674 1.391 . S
C673 C672 1.386 . S
C673 C677 1.393 . S
C674 H666 0.950 . S
C674 C672 1.391 . S
C674 C675 1.400 . S
C675 C674 1.400 . S
C675 C676 1.398 . S
C675 C681 1.491 . S
C676 H667 0.950 . S
C676 C675 1.398 . S
C676 C677 1.391 . S
C677 H665 0.950 . S
C677 C673 1.393 . S
C677 C676 1.391 . S
C678 H668 0.950 . S
C678 C679 1.386 . S
C678 C680 1.391 . S
C679 C678 1.386 . S
C679 C683 1.393 . S
C680 H669 0.950 . S
C680 C678 1.391 . S
C680 C681 1.400 . S
C681 C675 1.491 . S
C681 C680 1.400 . S
C681 C682 1.398 . S
C682 H670 0.950 . S
C682 C681 1.398 . S
C682 C683 1.391 . S
C683 H671 0.950 . S
C683 C679 1.393 . S
C683 C682 1.391 . S
H684 C692 0.950 . S
H685 C697 0.950 . S
H686 C694 0.950 . S
H687 C696 0.950 . S
H688 C698 0.950 . S
H689 C700 0.950 . S
H690 C702 0.950 . S
H691 C703 0.950 . S
C692 H684 0.950 . S
C692 C693 1.386 . S
C692 C694 1.391 . S
C693 C692 1.386 . S
C693 C697 1.393 . S
C694 H686 0.950 . S
C694 C692 1.391 . S
C694 C695 1.400 . S
C695 C694 1.400 . S
C695 C696 1.398 . S
C695 C701 1.491 . S
C696 H687 0.950 . S
C696 C695 1.398 . S
C696 C697 1.391 . S
C697 H685 0.950 . S
C697 C693 1.393 . S
C697 C696 1.391 . S
C698 H688 0.950 . S
C698 C699 1.386 . S
C698 C700 1.391 . S
C699 C698 1.386 . S
C699 C703 1.393 . S
C700 H689 0.950 . S
C700 C698 1.391 . S
C700 C701 1.400 . S
C701 C695 1.491 . S
C701 C700 1.400 . S
C701 C702 1.398 . S
C702 H690 0.950 . S
C702 C701 1.398 . S
C702 C703 1.391 . S
C703 H691 0.950 . S
C703 C699 1.393 . S
C703 C702 1.391 . S
H704 C712 0.950 . S
H705 C717 0.950 . S
H706 C714 0.950 . S
H707 C716 0.950 . S
H708 C718 0.950 1_554 S
H709 C720 0.950 . S
H710 C722 0.950 . S
H711 C723 0.950 . S
C712 H704 0.950 . S
C712 C713 1.386 . S
C712 C714 1.391 . S
C713 C712 1.386 . S
C713 C717 1.393 . S
C714 H706 0.950 . S
C714 C712 1.391 . S
C714 C715 1.400 . S
C715 C714 1.400 . S
C715 C716 1.398 . S
C715 C721 1.491 . S
C716 H707 0.950 . S
C716 C715 1.398 . S
C716 C717 1.391 . S
C717 H705 0.950 . S
C717 C713 1.393 . S
C717 C716 1.391 . S
C718 H708 0.950 1_556 S
C718 C719 1.386 . S
C718 C720 1.391 . S
C719 C718 1.386 . S
C719 C723 1.393 . S
C720 H709 0.950 . S
C720 C718 1.391 . S
C720 C721 1.400 . S
C721 C715 1.491 . S
C721 C720 1.400 . S
C721 C722 1.398 . S
C722 H710 0.950 . S
C722 C721 1.398 . S
C722 C723 1.391 . S
C723 H711 0.950 . S
C723 C719 1.393 . S
C723 C722 1.391 . S
H724 C732 0.950 . S
H725 C737 0.950 . S
H726 C734 0.950 . S
H727 C736 0.950 . S
H728 C738 0.950 . S
H729 C740 0.950 . S
H730 C742 0.950 . S
H731 C743 0.950 1_556 S
C732 H724 0.950 . S
C732 C733 1.386 . S
C732 C734 1.391 . S
C733 C732 1.386 . S
C733 C737 1.393 . S
C734 H726 0.950 . S
C734 C732 1.391 . S
C734 C735 1.400 . S
C735 C734 1.400 . S
C735 C736 1.398 . S
C735 C741 1.491 . S
C736 H727 0.950 . S
C736 C735 1.398 . S
C736 C737 1.391 . S
C737 H725 0.950 . S
C737 C733 1.393 . S
C737 C736 1.391 . S
C738 H728 0.950 . S
C738 C739 1.386 . S
C738 C740 1.391 . S
C739 C738 1.386 . S
C739 C743 1.393 . S
C740 H729 0.950 . S
C740 C738 1.391 . S
C740 C741 1.400 . S
C741 C735 1.491 . S
C741 C740 1.400 . S
C741 C742 1.398 . S
C742 H730 0.950 . S
C742 C741 1.398 . S
C742 C743 1.391 . S
C743 H731 0.950 1_554 S
C743 C739 1.393 . S
C743 C742 1.391 . S
H744 C752 0.950 1_554 S
H745 C757 0.950 . S
H746 C754 0.950 . S
H747 C756 0.950 . S
H748 C758 0.950 . S
H749 C760 0.950 . S
H750 C762 0.950 . S
H751 C763 0.950 . S
C752 H744 0.950 1_556 S
C752 C753 1.386 . S
C752 C754 1.391 . S
C753 C752 1.386 . S
C753 C757 1.393 . S
C754 H746 0.950 . S
C754 C752 1.391 . S
C754 C755 1.400 . S
C755 C754 1.400 . S
C755 C756 1.398 . S
C755 C761 1.491 . S
C756 H747 0.950 . S
C756 C755 1.398 . S
C756 C757 1.391 . S
C757 H745 0.950 . S
C757 C753 1.393 . S
C757 C756 1.391 . S
C758 H748 0.950 . S
C758 C759 1.386 . S
C758 C760 1.391 . S
C759 C758 1.386 . S
C759 C763 1.393 . S
C760 H749 0.950 . S
C760 C758 1.391 . S
C760 C761 1.400 . S
C761 C755 1.491 . S
C761 C760 1.400 . S
C761 C762 1.398 . S
C762 H750 0.950 . S
C762 C761 1.398 . S
C762 C763 1.391 . S
C763 H751 0.950 . S
C763 C759 1.393 . S
C763 C762 1.391 . S
H764 C772 0.950 . S
H765 C777 0.950 . S
H766 C774 0.950 . S
H767 C776 0.950 . S
H768 C778 0.950 1_556 S
H769 C780 0.950 . S
H770 C782 0.950 . S
H771 C783 0.950 . S
C772 H764 0.950 . S
C772 C773 1.386 . S
C772 C774 1.391 . S
C773 C772 1.386 . S
C773 C777 1.393 . S
C774 H766 0.950 . S
C774 C772 1.391 . S
C774 C775 1.400 . S
C775 C774 1.400 . S
C775 C776 1.398 . S
C775 C781 1.491 . S
C776 H767 0.950 . S
C776 C775 1.398 . S
C776 C777 1.391 . S
C777 H765 0.950 . S
C777 C773 1.393 . S
C777 C776 1.391 . S
C778 H768 0.950 1_554 S
C778 C779 1.386 . S
C778 C780 1.391 . S
C779 C778 1.386 . S
C779 C783 1.393 . S
C780 H769 0.950 . S
C780 C778 1.391 . S
C780 C781 1.400 . S
C781 C775 1.491 . S
C781 C780 1.400 . S
C781 C782 1.398 . S
C782 H770 0.950 . S
C782 C781 1.398 . S
C782 C783 1.391 . S
C783 H771 0.950 . S
C783 C779 1.393 . S
C783 C782 1.391 . S
H784 C792 0.950 . S
H785 C797 0.950 . S
H786 C794 0.950 . S
H787 C796 0.950 . S
H788 C798 0.950 . S
H789 C800 0.950 . S
H790 C802 0.950 . S
H791 C803 0.950 . S
C792 H784 0.950 . S
C792 C793 1.386 . S
C792 C794 1.391 . S
C793 C792 1.386 . S
C793 C797 1.393 . S
C794 H786 0.950 . S
C794 C792 1.391 . S
C794 C795 1.400 . S
C795 C794 1.400 . S
C795 C796 1.398 . S
C795 C801 1.491 . S
C796 H787 0.950 . S
C796 C795 1.398 . S
C796 C797 1.391 . S
C797 H785 0.950 . S
C797 C793 1.393 . S
C797 C796 1.391 . S
C798 H788 0.950 . S
C798 C799 1.386 . S
C798 C800 1.391 . S
C799 C798 1.386 . S
C799 C803 1.393 . S
C800 H789 0.950 . S
C800 C798 1.391 . S
C800 C801 1.400 . S
C801 C795 1.491 . S
C801 C800 1.400 . S
C801 C802 1.398 . S
C802 H790 0.950 . S
C802 C801 1.398 . S
C802 C803 1.391 . S
C803 H791 0.950 . S
C803 C799 1.393 . S
C803 C802 1.391 . S
H804 C812 0.950 . S
H805 C817 0.950 . S
H806 C814 0.950 . S
H807 C816 0.950 . S
H808 C818 0.950 . S
H809 C820 0.950 . S
H810 C822 0.950 . S
H811 C823 0.950 . S
C812 H804 0.950 . S
C812 C813 1.386 . S
C812 C814 1.391 . S
C813 C812 1.386 . S
C813 C817 1.393 . S
C814 H806 0.950 . S
C814 C812 1.391 . S
C814 C815 1.400 . S
C815 C814 1.400 . S
C815 C816 1.398 . S
C815 C821 1.491 . S
C816 H807 0.950 . S
C816 C815 1.398 . S
C816 C817 1.391 . S
C817 H805 0.950 . S
C817 C813 1.393 . S
C817 C816 1.391 . S
C818 H808 0.950 . S
C818 C819 1.386 . S
C818 C820 1.391 . S
C819 C818 1.386 . S
C819 C823 1.393 . S
C820 H809 0.950 . S
C820 C818 1.391 . S
C820 C821 1.400 . S
C821 C815 1.491 . S
C821 C820 1.400 . S
C821 C822 1.398 . S
C822 H810 0.950 . S
C822 C821 1.398 . S
C822 C823 1.391 . S
C823 H811 0.950 . S
C823 C819 1.393 . S
C823 C822 1.391 . S
H824 C832 0.950 . S
H825 C837 0.950 . S
H826 C834 0.950 . S
H827 C836 0.950 . S
H828 C838 0.950 . S
H829 C840 0.950 . S
H830 C842 0.950 . S
H831 C843 0.950 . S
C832 H824 0.950 . S
C832 C833 1.386 . S
C832 C834 1.391 . S
C833 C832 1.386 . S
C833 C837 1.393 . S
C834 H826 0.950 . S
C834 C832 1.391 . S
C834 C835 1.400 . S
C835 C834 1.400 . S
C835 C836 1.398 . S
C835 C841 1.491 . S
C836 H827 0.950 . S
C836 C835 1.398 . S
C836 C837 1.391 . S
C837 H825 0.950 . S
C837 C833 1.393 . S
C837 C836 1.391 . S
C838 H828 0.950 . S
C838 C839 1.386 . S
C838 C840 1.391 . S
C839 C838 1.386 . S
C839 C843 1.393 . S
C840 H829 0.950 . S
C840 C838 1.391 . S
C840 C841 1.400 . S
C841 C835 1.491 . S
C841 C840 1.400 . S
C841 C842 1.398 . S
C842 H830 0.950 . S
C842 C841 1.398 . S
C842 C843 1.391 . S
C843 H831 0.950 . S
C843 C839 1.393 . S
C843 C842 1.391 . S
H844 C852 0.950 . S
H845 C857 0.950 . S
H846 C854 0.950 . S
H847 C856 0.950 . S
H848 C858 0.950 . S
H849 C860 0.950 . S
H850 C862 0.950 . S
H851 C863 0.950 . S
C852 H844 0.950 . S
C852 C853 1.386 . S
C852 C854 1.391 . S
C853 C852 1.386 . S
C853 C857 1.393 . S
C854 H846 0.950 . S
C854 C852 1.391 . S
C854 C855 1.400 . S
C855 C854 1.400 . S
C855 C856 1.398 . S
C855 C861 1.491 . S
C856 H847 0.950 . S
C856 C855 1.398 . S
C856 C857 1.391 . S
C857 H845 0.950 . S
C857 C853 1.393 . S
C857 C856 1.391 . S
C858 H848 0.950 . S
C858 C859 1.386 . S
C858 C860 1.391 . S
C859 C858 1.386 . S
C859 C863 1.393 . S
C860 H849 0.950 . S
C860 C858 1.391 . S
C860 C861 1.400 . S
C861 C855 1.491 . S
C861 C860 1.400 . S
C861 C862 1.398 . S
C862 H850 0.950 . S
C862 C861 1.398 . S
C862 C863 1.391 . S
C863 H851 0.950 . S
C863 C859 1.393 . S
C863 C862 1.391 . S
C233 C163 1.400 . S
C239 C7 1.417 . S
C253 C21 1.421 . S
C259 C121 1.407 . S
C273 C35 1.416 . S
C279 C135 1.416 . S
C293 C149 1.408 . S
C299 C49 1.421 . S
C313 C63 1.421 . S
C319 C79 1.413 . S
C333 C77 1.420 . S
C339 C93 1.405 . S
C353 C107 1.399 . S
C359 C91 1.407 . S
C373 C65 1.403 . S
C379 C105 1.419 . S
C393 C51 1.414 . S
C399 C119 1.410 . S
C413 C133 1.411 . S
C419 C9 1.397 . S
C433 C23 1.411 . S
C439 C147 1.421 . S
C453 C161 1.408 . S
C459 C37 1.397 . S
C473 C175 1.407 . S
C479 C191 1.411 . S
C493 C189 1.407 . S
C499 C205 1.410 . S
C513 C219 1.402 . S
C519 C203 1.405 . S
C533 C177 1.399 . S
C539 C217 1.406 . S
C553 C64 1.247 . S
C559 C8 1.239 . S
C573 C22 1.250 . S
C579 C78 1.263 . S
C593 C36 1.267 . S
C599 C92 1.277 . S
C613 C106 1.279 . S
C619 C50 1.280 . S
C633 C120 1.280 . S
C639 C176 1.277 . S
C653 C190 1.275 . S
C659 C134 1.280 . S
C673 C148 1.279 . S
C679 C204 1.271 . S
C693 C218 1.249 . S
C699 C162 1.239 . S
C713 C202 1.352 . S
C719 C6 1.363 1_556 S
C733 C216 1.358 . S
C739 C20 1.368 1_554 S
C753 C34 1.353 1_556 S
C759 C174 1.365 . S
C773 C188 1.367 . S
C779 C48 1.356 1_554 S
C793 C146 1.368 . S
C799 C62 1.359 . S
C813 C160 1.364 . S
C819 C76 1.367 . S
C833 C90 1.357 . S
C839 C118 1.368 . S
C853 C132 1.357 . S
C859 C104 1.368 . S
