# Generated by pormake.
# Topology uop, (4)-cn, num edge types: 1
# Building blocks:
#     Node 0, Type 0, BuildingBlock: KOZSID_clean_sbu_0, # of connection points: 4
#     Node 1, Type 0, BuildingBlock: KOZSID_clean_sbu_0, # of connection points: 4
#     Node 2, Type 0, BuildingBlock: KOZSID_clean_sbu_0, # of connection points: 4
#     Node 3, Type 0, BuildingBlock: KOZSID_clean_sbu_0, # of connection points: 4
#     Node 4, Type 0, BuildingBlock: KOZSID_clean_sbu_0, # of connection points: 4
#     Node 5, Type 0, BuildingBlock: KOZSID_clean_sbu_0, # of connection points: 4
#     Node 6, Type 0, BuildingBlock: KOZSID_clean_sbu_0, # of connection points: 4
#     Node 7, Type 0, BuildingBlock: KOZSID_clean_sbu_0, # of connection points: 4
#     Node 8, Type 0, BuildingBlock: KOZSID_clean_sbu_0, # of connection points: 4
#     Node 9, Type 0, BuildingBlock: KOZSID_clean_sbu_0, # of connection points: 4
#     Node 10, Type 0, BuildingBlock: KOZSID_clean_sbu_0, # of connection points: 4
#     Node 11, Type 0, BuildingBlock: KOZSID_clean_sbu_0, # of connection points: 4
#     Edge 12, Type (0, 0), None
#     Edge 13, Type (0, 0), None
#     Edge 14, Type (0, 0), None
#     Edge 15, Type (0, 0), None
#     Edge 16, Type (0, 0), None
#     Edge 17, Type (0, 0), None
#     Edge 18, Type (0, 0), None
#     Edge 19, Type (0, 0), None
#     Edge 20, Type (0, 0), None
#     Edge 21, Type (0, 0), None
#     Edge 22, Type (0, 0), None
#     Edge 23, Type (0, 0), None
#     Edge 24, Type (0, 0), None
#     Edge 25, Type (0, 0), None
#     Edge 26, Type (0, 0), None
#     Edge 27, Type (0, 0), None
#     Edge 28, Type (0, 0), None
#     Edge 29, Type (0, 0), None
#     Edge 30, Type (0, 0), None
#     Edge 31, Type (0, 0), None
#     Edge 32, Type (0, 0), None
#     Edge 33, Type (0, 0), None
#     Edge 34, Type (0, 0), None
#     Edge 35, Type (0, 0), None
# Relax obj value: 0.105
# Max RMSD: 0.289
# Mean RMSD: 0.251
data_MOF--net-uop--node1-KOZSID_clean_sbu_0--edge1-none
_symmetry_space_group_name_H-M    P1
_symmetry_Int_Tables_number       1
_symmetry_cell_setting            triclinic
loop_
_symmetry_equiv_pos_as_xyz
'x, y, z'
_cell_length_a     21.386273
_cell_length_b     19.570427
_cell_length_c     36.471979
_cell_angle_alpha  89.999995
_cell_angle_beta   90.000053
_cell_angle_gamma 123.08632
loop_
_atom_site_label
_atom_site_type_symbol
_atom_site_fract_x
_atom_site_fract_y
_atom_site_fract_z
_atom_type_partial_charge
C0 C 0.46763 0.45189 0.22249 0.0
C1 C 0.5081 0.42427 0.20545 0.0
C2 C 0.47147 0.38685 0.17419 0.0
C3 C 0.41035 0.39218 0.17431 0.0
N4 N 0.4056 0.4326 0.20309 0.0
Co5 Co 0.31422 0.4325 0.21776 0.0
N6 N 0.25604 0.36426 0.1737 0.0
C7 C 0.28141 0.33454 0.14831 0.0
C8 C 0.24477 0.31459 0.11557 0.0
C9 C 0.19348 0.33387 0.1196 0.0
C10 C 0.19724 0.35842 0.15581 0.0
N11 N 0.22301 0.43296 0.22999 0.0
C12 C 0.15988 0.40958 0.20977 0.0
C13 C 0.11292 0.42437 0.22949 0.0
C14 C 0.14865 0.46091 0.26185 0.0
C15 C 0.21523 0.46596 0.26063 0.0
N16 N 0.37334 0.49715 0.26146 0.0
C17 C 0.34487 0.51687 0.28934 0.0
C18 C 0.39431 0.55459 0.3176 0.0
C19 C 0.45772 0.55762 0.3075 0.0
C20 C 0.44353 0.52086 0.27338 0.0
N21 N 0.3451 0.53683 0.18961 0.0
C22 C 0.31256 0.65041 0.15759 0.0
C23 C 0.33817 0.65823 0.19381 0.0
C24 C 0.35456 0.60271 0.20882 0.0
C25 C 0.32243 0.59584 0.13618 0.0
C26 C 0.3365 0.53913 0.15247 0.0
N27 N 0.28089 0.33404 0.25121 0.0
C28 C 0.23588 0.2923 0.3144 0.0
C29 C 0.29231 0.27862 0.32318 0.0
C30 C 0.33474 0.28104 0.2929 0.0
C31 C 0.32634 0.30564 0.25752 0.0
C32 C 0.22938 0.31619 0.27848 0.0
H33 H 0.35942 0.30392 0.23588 0.0
H34 H 0.18369 0.32333 0.27391 0.0
H35 H 0.37146 0.61263 0.23691 0.0
H36 H 0.33749 0.49548 0.13487 0.0
C37 C 0.35141 0.34863 0.15096 0.0
C38 C 0.49581 0.50278 0.25542 0.0
C39 C 0.14328 0.37473 0.17171 0.0
C40 C 0.27246 0.50148 0.28707 0.0
H41 H 0.55896 0.43058 0.21487 0.0
H42 H 0.48524 0.3551 0.15482 0.0
H43 H 0.25998 0.29817 0.09029 0.0
H44 H 0.16011 0.33371 0.09733 0.0
H45 H 0.05865 0.41085 0.22143 0.0
H46 H 0.12869 0.48217 0.28348 0.0
H47 H 0.38414 0.57548 0.34281 0.0
H48 H 0.5075 0.58081 0.32396 0.0
H49 H 0.34647 0.70697 0.21115 0.0
H50 H 0.3179 0.59469 0.10668 0.0
H51 H 0.19669 0.28526 0.3352 0.0
H52 H 0.37678 0.26702 0.29639 0.0
C53 C 0.03896 0.44677 0.57524 0.0
C54 C 0.11269 0.48253 0.56461 0.0
C55 C 0.11366 0.43804 0.53645 0.0
C56 C 0.0412 0.37471 0.53248 0.0
N57 N 0.99333 0.37532 0.55644 0.0
Co58 Co 0.88955 0.27738 0.5677 0.0
N59 N 0.89855 0.20384 0.53173 0.0
C60 C 0.9589 0.22745 0.51069 0.0
C61 C 0.95131 0.16983 0.48664 0.0
C62 C 0.88078 0.10466 0.4918 0.0
C63 C 0.84926 0.12586 0.51927 0.0
N64 N 0.78547 0.17834 0.57691 0.0
C65 C 0.74439 0.10228 0.56022 0.0
C66 C 0.67113 0.0599 0.57247 0.0
C67 C 0.66503 0.11057 0.59616 0.0
C68 C 0.73473 0.18138 0.59745 0.0
N69 N 0.88336 0.35201 0.60296 0.0
C70 C 0.82063 0.33117 0.62102 0.0
C71 C 0.82888 0.39305 0.64245 0.0
C72 C 0.90177 0.45724 0.63794 0.0
C73 C 0.93435 0.43221 0.61302 0.0
N74 N 0.84112 0.3085 0.5294 0.0
C75 C 0.7155 0.3224 0.5218 0.0
C76 C 0.78698 0.39042 0.5306 0.0
C77 C 0.84919 0.38246 0.53286 0.0
C78 C 0.71345 0.2529 0.5096 0.0
C79 C 0.77767 0.24924 0.51173 0.0
N80 N 0.93185 0.24797 0.61079 0.0
C81 C 0.91517 0.21692 0.67671 0.0
C82 C 0.99227 0.26177 0.68379 0.0
C83 C 0.03809 0.29213 0.65221 0.0
C84 C 1.00722 0.28364 0.61648 0.0
C85 C 0.88683 0.21015 0.64088 0.0
H86 H 0.04579 0.3096 0.59401 0.0
H87 H 0.82743 0.17727 0.63882 0.0
H88 H 0.90237 0.43332 0.54128 0.0
H89 H 0.77295 0.19483 0.50226 0.0
C90 C 1.02087 0.30572 0.51264 0.0
C91 C 1.0141 0.48748 0.59996 0.0
C92 C 0.76988 0.07125 0.52964 0.0
C93 C 0.75519 0.25318 0.61656 0.0
H94 H 0.16193 0.53396 0.57648 0.0
H95 H 0.16244 0.44689 0.52268 0.0
H96 H 0.99148 0.17571 0.46669 0.0
H97 H 0.85458 0.04876 0.47605 0.0
H98 H 0.62586 1.00026 0.56362 0.0
H99 H 0.61489 0.09823 0.60976 0.0
H100 H 0.7861 0.3915 0.65891 0.0
H101 H 0.92771 0.51685 0.65049 0.0
H102 H 0.79421 0.44798 0.53771 0.0
H103 H 0.66201 0.20056 0.49918 0.0
H104 H 0.87565 0.18783 0.69894 0.0
H105 H 0.09816 0.32573 0.65496 0.0
C106 C 0.69579 0.91044 0.02742 0.0
C107 C 0.67647 0.89235 0.06418 0.0
C108 C 0.63277 0.80934 0.06736 0.0
C109 C 0.62229 0.78004 0.0323 0.0
N110 N 0.65621 0.83979 1.00709 0.0
Co111 Co 0.62762 0.82422 0.95391 0.0
N112 N 0.53027 0.71962 0.96286 0.0
C113 C 0.52044 0.66991 0.99083 0.0
C114 C 0.46011 0.59185 0.98652 0.0
C115 C 0.4295 0.59223 0.95369 0.0
C116 C 0.47053 0.67204 0.94056 0.0
N117 N 0.59752 0.8099 0.90175 0.0
C118 C 0.52938 0.75801 0.88505 0.0
C119 C 0.54127 0.75983 0.8474 0.0
C120 C 0.6163 0.81615 0.84093 0.0
C121 C 0.64824 0.84503 0.87472 0.0
N122 N 0.72575 0.92848 0.94739 0.0
C123 C 0.76285 0.94937 0.91543 0.0
C124 C 0.83377 1.01769 0.91913 0.0
C125 C 0.84004 0.04117 0.95552 0.0
C126 C 0.77107 0.98896 0.97219 0.0
N127 N 0.67508 0.76124 0.94284 0.0
C128 C 0.75379 0.71257 0.89691 0.0
C129 C 0.79016 0.78459 0.91825 0.0
C130 C 0.7511 0.80126 0.94398 0.0
C131 C 0.67574 0.66365 0.90075 0.0
C132 C 0.63774 0.69048 0.9223 0.0
N133 N 0.58486 0.88951 0.95934 0.0
C134 C 0.60327 1.01872 0.94445 0.0
C135 C 0.54514 1.0017 0.96724 0.0
C136 C 0.50008 0.92298 0.98202 0.0
C137 C 0.52447 0.86937 0.98036 0.0
C138 C 0.61728 0.95909 0.93845 0.0
H139 H 0.49387 0.81171 0.99465 0.0
H140 H 0.65521 0.97079 0.9166 0.0
H141 H 0.78325 0.85318 0.96177 0.0
H142 H 0.57799 0.65529 0.92033 0.0
C143 C 0.56453 0.70148 1.02221 0.0
C144 C 0.7527 0.99392 1.01235 0.0
C145 C 0.45666 0.69752 0.9048 0.0
C146 C 0.72417 0.90702 0.88282 0.0
H147 H 0.68792 0.93355 0.08655 0.0
H148 H 0.60483 0.77507 0.09192 0.0
H149 H 0.44105 0.54056 1.00481 0.0
H150 H 0.38392 0.53854 0.94045 0.0
H151 H 0.50234 0.72047 0.8266 0.0
H152 H 0.64433 0.83222 0.81465 0.0
H153 H 0.87558 0.04803 0.89791 0.0
H154 H 0.88926 0.09236 0.9681 0.0
H155 H 0.84983 0.82771 0.91617 0.0
H156 H 0.64358 0.60597 0.88647 0.0
H157 H 0.63362 0.0751 0.92894 0.0
H158 H 0.44701 0.90364 0.99434 0.0
C159 C 0.60011 0.60941 0.22246 0.0
C160 C 0.55961 0.63699 0.20541 0.0
C161 C 0.59626 0.67443 0.17415 0.0
C162 C 0.6574 0.66914 0.17429 0.0
N163 N 0.66216 0.62874 0.20307 0.0
Co164 Co 0.75354 0.62885 0.21776 0.0
N165 N 0.81172 0.69709 0.1737 0.0
C166 C 0.78636 0.72682 0.1483 0.0
C167 C 0.82301 0.74677 0.11556 0.0
C168 C 0.8743 0.72749 0.11959 0.0
C169 C 0.87052 0.70294 0.1558 0.0
N170 N 0.84477 0.62842 0.22999 0.0
C171 C 0.9079 0.6518 0.20977 0.0
C172 C 0.95487 0.63703 0.2295 0.0
C173 C 0.91915 0.60051 0.26186 0.0
C174 C 0.85256 0.59545 0.26064 0.0
N175 N 0.69443 0.56421 0.26146 0.0
C176 C 0.72292 0.54451 0.28935 0.0
C177 C 0.67349 0.50683 0.31762 0.0
C178 C 0.61007 0.50379 0.30752 0.0
C179 C 0.62426 0.5405 0.27338 0.0
N180 N 0.72269 0.52453 0.18961 0.0
C181 C 0.75521 0.41093 0.15759 0.0
C182 C 0.72963 0.40313 0.19381 0.0
C183 C 0.71325 0.45866 0.20882 0.0
C184 C 0.74534 0.4655 0.13618 0.0
C185 C 0.73128 0.52222 0.15247 0.0
N186 N 0.78686 0.72732 0.2512 0.0
C187 C 0.83186 0.76908 0.31439 0.0
C188 C 0.77542 0.78272 0.32317 0.0
C189 C 0.73297 0.78027 0.29289 0.0
C190 C 0.74137 0.75567 0.25752 0.0
C191 C 0.83838 0.74519 0.27847 0.0
H192 H 0.70827 0.75737 0.23588 0.0
H193 H 0.88408 0.73808 0.2739 0.0
H194 H 0.69636 0.44875 0.23692 0.0
H195 H 0.73027 0.56586 0.13487 0.0
C196 C 0.71635 0.71271 0.15094 0.0
C197 C 0.57201 0.5586 0.2554 0.0
C198 C 0.92449 0.68663 0.17171 0.0
C199 C 0.79534 0.55993 0.28708 0.0
H200 H 0.50874 0.63066 0.21482 0.0
H201 H 0.58248 0.70616 0.15477 0.0
H202 H 0.80779 0.76319 0.09028 0.0
H203 H 0.90767 0.72765 0.09732 0.0
H204 H 1.00914 0.65056 0.22143 0.0
H205 H 0.93912 0.57926 0.28349 0.0
H206 H 0.68368 0.48599 0.34284 0.0
H207 H 0.5603 0.48062 0.32398 0.0
H208 H 0.72133 0.3544 0.21116 0.0
H209 H 0.74986 0.46664 0.10668 0.0
H210 H 0.87107 0.77614 0.33519 0.0
H211 H 0.6909 0.79426 0.29638 0.0
C212 C 1.02879 0.61456 0.57523 0.0
C213 C 0.95506 0.57879 0.56459 0.0
C214 C 0.95409 0.6233 0.53643 0.0
C215 C 1.02655 0.68663 0.53247 0.0
N216 N 0.07442 0.68603 0.55643 0.0
Co217 Co 0.1782 0.78397 0.5677 0.0
N218 N 0.16921 0.8575 0.53172 0.0
C219 C 0.10886 0.83389 0.51068 0.0
C220 C 0.11646 0.89152 0.48663 0.0
C221 C 0.18699 0.95668 0.49179 0.0
C222 C 0.21851 0.93548 0.51926 0.0
N223 N 0.28228 0.88301 0.57691 0.0
C224 C 0.32336 0.95907 0.56023 0.0
C225 C 0.39661 1.00145 0.57249 0.0
C226 C 0.4027 0.95079 0.59619 0.0
C227 C 0.333 0.87998 0.59747 0.0
N228 N 0.18438 0.70935 0.60298 0.0
C229 C 0.2471 0.7302 0.62105 0.0
C230 C 0.23884 0.66833 0.64249 0.0
C231 C 0.16595 0.60412 0.63797 0.0
C232 C 0.13339 0.62915 0.61303 0.0
N233 N 0.22664 0.75284 0.52941 0.0
C234 C 0.35227 0.73894 0.52182 0.0
C235 C 0.28079 0.67092 0.53062 0.0
C236 C 0.21858 0.67888 0.53289 0.0
C237 C 0.35431 0.80844 0.50961 0.0
C238 C 0.29009 0.81209 0.51174 0.0
N239 N 0.13588 0.81338 0.61078 0.0
C240 C 0.15255 0.84447 0.6767 0.0
C241 C 0.07546 0.79958 0.68378 0.0
C242 C 1.02964 0.76918 0.6522 0.0
C243 C 0.0605 0.77768 0.61648 0.0
C244 C 0.1809 0.85124 0.64087 0.0
H245 H 1.02194 0.75169 0.594 0.0
H246 H 0.2403 0.88415 0.63881 0.0
H247 H 0.1654 0.62802 0.54131 0.0
H248 H 0.29481 0.8665 0.50227 0.0
C249 C 0.04688 0.75563 0.51263 0.0
C250 C 0.05368 0.57387 0.59993 0.0
C251 C 0.29788 0.99009 0.52964 0.0
C252 C 0.31254 0.80819 0.61659 0.0
H253 H 0.90581 0.52735 0.57645 0.0
H254 H 0.90532 0.61445 0.52266 0.0
H255 H 0.07629 0.88564 0.46668 0.0
H256 H 0.2132 1.01259 0.47604 0.0
H257 H 0.44188 0.0611 0.56364 0.0
H258 H 0.45284 0.96314 0.6098 0.0
H259 H 0.28161 0.66989 0.65896 0.0
H260 H 0.14002 0.54452 0.65051 0.0
H261 H 0.27356 0.61336 0.53774 0.0
H262 H 0.40575 0.86077 0.4992 0.0
H263 H 0.19207 0.87358 0.69893 0.0
H264 H 0.96956 0.73555 0.65496 0.0
C265 C 0.37198 0.15091 0.02742 0.0
C266 C 0.3913 0.169 0.06418 0.0
C267 C 0.435 0.25201 0.06736 0.0
C268 C 0.44548 0.2813 0.0323 0.0
N269 N 0.41157 0.22156 1.00709 0.0
Co270 Co 0.44016 0.23712 0.95391 0.0
N271 N 0.5375 0.34172 0.96286 0.0
C272 C 0.54732 0.39143 0.99083 0.0
C273 C 0.60765 0.4695 0.98651 0.0
C274 C 0.63827 0.46911 0.95369 0.0
C275 C 0.59724 0.3893 0.94055 0.0
N276 N 0.47025 0.25143 0.90175 0.0
C277 C 0.53839 0.30333 0.88505 0.0
C278 C 0.5265 0.3015 0.8474 0.0
C279 C 0.45147 0.24518 0.84093 0.0
C280 C 0.41953 0.21631 0.87472 0.0
N281 N 0.34202 0.13286 0.94739 0.0
C282 C 0.30492 0.11197 0.91543 0.0
C283 C 0.234 0.04365 0.91913 0.0
C284 C 0.22773 1.02017 0.95552 0.0
C285 C 0.2967 0.07238 0.97219 0.0
N286 N 0.39268 0.3001 0.94284 0.0
C287 C 0.31396 0.34876 0.89691 0.0
C288 C 0.2776 0.27673 0.91825 0.0
C289 C 0.31667 0.26007 0.94398 0.0
C290 C 0.39202 0.39767 0.90075 0.0
C291 C 0.43003 0.37085 0.9223 0.0
N292 N 0.48291 0.17183 0.95934 0.0
C293 C 0.4645 0.04262 0.94445 0.0
C294 C 0.52265 0.05966 0.96724 0.0
C295 C 0.5677 0.13838 0.98202 0.0
C296 C 0.54331 0.19199 0.98035 0.0
C297 C 0.45049 0.10224 0.93846 0.0
H298 H 0.57391 0.24965 0.99465 0.0
H299 H 0.41255 0.09054 0.9166 0.0
H300 H 0.28452 0.20816 0.96178 0.0
H301 H 0.48977 0.40604 0.92032 0.0
C302 C 0.50324 0.35986 1.0222 0.0
C303 C 0.31508 0.06742 1.01235 0.0
C304 C 0.61111 0.36382 0.9048 0.0
C305 C 0.3436 0.15432 0.88282 0.0
H306 H 0.37985 0.12779 0.08655 0.0
H307 H 0.46294 0.28628 0.09192 0.0
H308 H 0.62671 0.52078 1.0048 0.0
H309 H 0.68384 0.5228 0.94044 0.0
H310 H 0.56544 0.34085 0.8266 0.0
H311 H 0.42344 0.22911 0.81465 0.0
H312 H 0.19219 1.01331 0.89792 0.0
H313 H 0.17851 0.96898 0.9681 0.0
H314 H 0.21793 0.23361 0.91618 0.0
H315 H 0.42417 0.45536 0.88647 0.0
H316 H 0.43415 0.98623 0.92894 0.0
H317 H 0.62078 0.15772 0.99434 0.0
C318 C 0.62283 0.6145 0.47119 0.0
C319 C 0.66078 0.57867 0.4818 0.0
C320 C 0.70619 0.62308 0.50999 0.0
C321 C 0.69703 0.68644 0.51399 0.0
N322 N 0.64861 0.68592 0.49002 0.0
Co323 Co 0.64278 0.78394 0.47879 0.0
N324 N 0.72525 0.85737 0.51479 0.0
C325 C 0.76189 0.83364 0.53584 0.0
C326 C 0.81186 0.8912 0.55993 0.0
C327 C 0.80656 0.95644 0.55476 0.0
C328 C 0.75393 0.93535 0.52726 0.0
N329 N 0.63776 0.88306 0.4696 0.0
C330 C 0.67275 0.95912 0.48629 0.0
C331 C 0.64191 1.00157 0.47405 0.0
C332 C 0.58516 0.95095 0.45036 0.0
C333 C 0.58402 0.88009 0.44907 0.0
N334 N 0.56204 0.70941 0.4435 0.0
C335 C 0.52019 0.73033 0.42545 0.0
C336 C 0.46662 0.66851 0.40398 0.0
C337 C 0.4753 0.60426 0.40849 0.0
C338 C 0.53285 0.62921 0.43343 0.0
N339 N 0.56325 0.75284 0.51708 0.0
C340 C 0.42375 0.73894 0.52469 0.0
C341 C 0.42726 0.67092 0.51589 0.0
C342 C 0.49743 0.67888 0.51361 0.0
C343 C 0.49115 0.80845 0.53688 0.0
C344 C 0.55901 0.81211 0.53474 0.0
N345 N 0.71449 0.81335 0.43571 0.0
C346 C 0.72888 0.84448 0.3698 0.0
C347 C 0.76108 0.79956 0.3627 0.0
C348 C 0.77652 0.76912 0.39427 0.0
C349 C 0.75416 0.77761 0.43 0.0
C350 C 0.70732 0.85125 0.40563 0.0
H351 H 0.76674 0.75159 0.45247 0.0
H352 H 0.68083 0.88419 0.4077 0.0
H353 H 0.49978 0.62801 0.50519 0.0
H354 H 0.60867 0.86654 0.54418 0.0
C355 C 0.74563 0.75536 0.53387 0.0
C356 C 0.55728 0.57385 0.44648 0.0
C357 C 0.7293 0.99009 0.51684 0.0
C358 C 0.53272 0.80834 0.42992 0.0
H359 H 0.65859 0.52723 0.46992 0.0
H360 H 0.74608 0.61416 0.52376 0.0
H361 H 0.84608 0.88523 0.57988 0.0
H362 H 0.83624 1.01233 0.57052 0.0
H363 H 0.65631 0.06125 0.48289 0.0
H364 H 0.54739 0.96337 0.43676 0.0
H365 H 0.42545 0.67013 0.38751 0.0
H366 H 0.44167 0.54468 0.39592 0.0
H367 H 0.37698 0.61336 0.50879 0.0
H368 H 0.492 0.86079 0.54728 0.0
H369 H 0.71846 0.87363 0.34758 0.0
H370 H 0.80298 0.73547 0.3915 0.0
C371 C 0.04636 0.60945 0.82396 0.0
C372 C 0.11444 0.63708 0.84098 0.0
C373 C 0.1152 0.67447 0.87226 0.0
C374 C 0.04875 0.66912 0.87215 0.0
N375 N 1.0036 0.6287 0.84338 0.0
Co376 Co 0.91232 0.62881 0.82871 0.0
N377 N 0.92234 0.69705 0.87277 0.0
C378 C 0.97741 0.72677 0.89816 0.0
C379 C 0.96068 0.74663 0.93092 0.0
C380 C 0.89011 0.72727 0.92691 0.0
C381 C 0.86935 0.70279 0.89069 0.0
N382 N 0.82066 0.62837 0.81649 0.0
C383 C 0.78087 0.65169 0.83673 0.0
C384 C 0.71913 0.63691 0.81702 0.0
C385 C 0.71835 0.60041 0.78464 0.0
C386 C 0.7799 0.59539 0.78585 0.0
N387 N 0.90682 0.56416 0.78501 0.0
C388 C 0.85864 0.54444 0.75713 0.0
C389 C 0.87041 0.50676 0.72886 0.0
C390 C 0.9308 0.50374 0.73895 0.0
C391 C 0.95332 0.54047 0.77308 0.0
N392 N 0.83895 0.5245 0.85687 0.0
C393 C 0.69293 0.41104 0.88892 0.0
C394 C 0.71066 0.40319 0.8527 0.0
C395 C 0.78253 0.45866 0.83767 0.0
C396 C 0.75736 0.46556 0.91032 0.0
C397 C 0.8281 0.5222 0.89402 0.0
N398 N 0.97737 0.72727 0.79526 0.0
C399 C 0.97413 0.769 0.73206 0.0
C400 C 0.04425 0.78272 0.72331 0.0
C401 C 0.08423 0.78032 0.7536 0.0
C402 C 0.05122 0.75571 0.78897 0.0
C403 C 0.94371 0.74509 0.76797 0.0
H404 H 0.086 0.75746 0.81063 0.0
H405 H 0.89087 0.73792 0.77252 0.0
H406 H 0.78947 0.44872 0.80957 0.0
H407 H 0.87274 0.5658 0.9116 0.0
C408 C 1.03334 0.71268 0.8955 0.0
C409 C 1.02369 0.55857 0.79103 0.0
C410 C 0.79908 0.68646 0.8748 0.0
C411 C 0.80162 0.55985 0.75941 0.0
H412 H 0.159 0.6308 0.83155 0.0
H413 H 0.1607 0.70622 0.89163 0.0
H414 H 0.99231 0.76301 0.9562 0.0
H415 H 0.85687 0.72731 0.9492 0.0
H416 H 0.67835 0.65039 0.8251 0.0
H417 H 0.67713 0.57915 0.76303 0.0
H418 H 0.83938 0.48591 0.70365 0.0
H419 H 0.95742 0.48057 0.72248 0.0
H420 H 0.67022 0.35448 0.83536 0.0
H421 H 0.75401 0.46672 0.93982 0.0
H422 H 0.94198 0.77603 0.71125 0.0
H423 H 0.1403 0.79437 0.75014 0.0
C424 C 0.25184 0.91077 1.01913 0.0
C425 C 0.25304 0.89265 0.98237 0.0
C426 C 0.21368 0.80963 0.9792 0.0
C427 C 0.19486 0.78036 1.01426 0.0
N428 N 0.22073 0.84012 0.03947 0.0
Co429 Co 0.23379 0.82456 0.09265 0.0
N430 N 0.2265 0.71989 0.08369 0.0
C431 C 0.18659 0.67019 0.05572 0.0
C432 C 0.16884 0.59209 0.06004 0.0
C433 C 0.19984 0.59243 0.09286 0.0
C434 C 0.23864 0.67225 0.10598 0.0
N435 N 0.24961 0.81024 0.1448 0.0
C436 C 0.26584 0.7583 0.16149 0.0
C437 C 0.25586 0.76019 0.19915 0.0
C438 C 0.2372 0.81659 0.20562 0.0
C439 C 0.23408 0.84545 0.17183 0.0
N440 N 0.23993 0.92887 0.09915 0.0
C441 C 0.22378 0.94983 0.13112 0.0
C442 C 0.22127 1.01825 0.12742 0.0
C443 C 0.23848 0.04171 0.09103 0.0
C444 C 0.25515 0.98939 0.07436 0.0
N445 N 0.12339 0.76166 0.10375 0.0
C446 C 0.99592 0.71284 0.14963 0.0
C447 C 1.03157 0.78494 0.12834 0.0
C448 C 0.08739 0.80173 0.10264 0.0
C449 C 1.02515 0.66397 0.14578 0.0
C450 C 0.09 0.69086 0.12426 0.0
N451 N 0.34179 0.88976 0.08719 0.0
C452 C 0.45258 1.0189 0.10205 0.0
C453 C 0.49367 1.00173 0.07931 0.0
C454 C 0.45997 0.92297 0.06456 0.0
C455 C 0.382 0.86947 0.06621 0.0
C456 C 0.37896 0.95938 0.10805 0.0
H457 H 0.35493 0.81178 0.05194 0.0
H458 H 0.35277 0.97119 0.12989 0.0
H459 H 0.10715 0.8537 0.08488 0.0
H460 H 0.11458 0.65566 0.12623 0.0
C461 C 0.17405 0.70178 1.02436 0.0
C462 C 0.27846 0.9943 0.0342 0.0
C463 C 0.27795 0.69768 0.14174 0.0
C464 C 0.22016 0.9075 0.16373 0.0
H465 H 0.28281 0.93382 0.96 0.0
H466 H 0.20733 0.77533 0.95464 0.0
H467 H 0.13659 0.5408 0.04176 0.0
H468 H 0.1917 0.53872 0.10611 0.0
H469 H 0.25544 0.72082 0.21995 0.0
H470 H 0.22529 0.83272 0.2319 0.0
H471 H 0.20989 0.04868 0.14864 0.0
H472 H 0.24053 0.09298 0.07845 0.0
H473 H 1.01494 0.82802 0.13042 0.0
H474 H 0.99966 0.60625 0.16004 0.0
H475 H 0.47864 0.07532 0.11755 0.0
H476 H 0.49366 0.90352 0.05226 0.0
C477 C 0.44493 0.44685 0.4712 0.0
C478 C 0.40699 0.48268 0.48182 0.0
C479 C 0.36156 0.43826 0.51 0.0
C480 C 0.37071 0.3749 0.51399 0.0
N481 N 0.41913 0.37541 0.49003 0.0
Co482 Co 0.42496 0.27739 0.47879 0.0
N483 N 0.34251 0.20397 0.51479 0.0
C484 C 0.30586 0.22769 0.53585 0.0
C485 C 0.2559 0.17013 0.55994 0.0
C486 C 0.26121 0.1049 0.55477 0.0
C487 C 0.31383 0.12599 0.52727 0.0
N488 N 0.42997 0.17828 0.46959 0.0
C489 C 0.39499 0.10222 0.48628 0.0
C490 C 0.42582 0.05975 0.47403 0.0
C491 C 0.48255 0.11036 0.45033 0.0
C492 C 0.4837 0.18123 0.44904 0.0
N493 N 0.50569 0.35191 0.44349 0.0
C494 C 0.54751 0.33098 0.42541 0.0
C495 C 0.60106 0.39279 0.40394 0.0
C496 C 0.5924 0.45705 0.40846 0.0
C497 C 0.53488 0.43211 0.43341 0.0
N498 N 0.50451 0.3085 0.51706 0.0
C499 C 0.64402 0.3224 0.52467 0.0
C500 C 0.64051 0.39042 0.51586 0.0
C501 C 0.57034 0.38246 0.51359 0.0
C502 C 0.57662 0.25289 0.53686 0.0
C503 C 0.50875 0.24924 0.53472 0.0
N504 N 0.35323 0.24798 0.43572 0.0
C505 C 0.33881 0.21681 0.36981 0.0
C506 C 0.30664 0.26178 0.36271 0.0
C507 C 0.29123 0.29224 0.39427 0.0
C508 C 0.31359 0.28375 0.43 0.0
C509 C 0.36036 0.21004 0.40564 0.0
H510 H 0.30102 0.30979 0.45247 0.0
H511 H 0.38682 0.17706 0.40771 0.0
H512 H 0.56799 0.43332 0.50516 0.0
H513 H 0.4591 0.19481 0.54417 0.0
C514 C 0.32212 0.30596 0.53387 0.0
C515 C 0.51048 0.48747 0.44651 0.0
C516 C 0.33846 0.07125 0.51684 0.0
C517 C 0.53497 0.25297 0.42989 0.0
H518 H 0.40918 0.53414 0.46995 0.0
H519 H 0.32168 0.44718 0.52378 0.0
H520 H 0.22167 0.17609 0.57989 0.0
H521 H 0.23154 0.04901 0.57052 0.0
H522 H 0.41141 1.00008 0.48287 0.0
H523 H 0.5203 0.09794 0.43672 0.0
H524 H 0.64221 0.39116 0.38746 0.0
H525 H 0.62603 0.51663 0.3959 0.0
H526 H 0.69078 0.44797 0.50876 0.0
H527 H 0.57577 0.20055 0.54727 0.0
H528 H 0.34919 0.18764 0.34759 0.0
H529 H 0.2648 0.32592 0.3915 0.0
C530 C 1.02141 0.45193 0.82399 0.0
C531 C 0.95336 0.42434 0.84103 0.0
C532 C 0.95259 0.38693 0.87229 0.0
C533 C 1.01902 0.39224 0.87217 0.0
N534 N 0.06416 0.43264 0.8434 0.0
Co535 Co 0.15543 0.43251 0.82872 0.0
N536 N 0.14541 0.36428 0.87278 0.0
C537 C 0.09034 0.33455 0.89817 0.0
C538 C 0.10707 0.31469 0.93093 0.0
C539 C 0.17765 0.33405 0.92692 0.0
C540 C 0.1984 0.35853 0.8907 0.0
N541 N 0.24708 0.43293 0.81649 0.0
C542 C 0.28687 0.40961 0.83673 0.0
C543 C 0.3486 0.42437 0.81701 0.0
C544 C 0.34937 0.46085 0.78464 0.0
C545 C 0.28782 0.46589 0.78584 0.0
N546 N 0.16094 0.49717 0.78501 0.0
C547 C 0.2091 0.51685 0.75712 0.0
C548 C 0.19731 0.5545 0.72885 0.0
C549 C 0.13693 0.55754 0.73894 0.0
C550 C 0.11444 0.52085 0.77308 0.0
N551 N 0.22882 0.53683 0.85687 0.0
C552 C 0.37484 0.65029 0.88892 0.0
C553 C 0.35711 0.65812 0.85269 0.0
C554 C 0.28525 0.60266 0.83767 0.0
C555 C 0.31041 0.59578 0.91032 0.0
C556 C 0.23967 0.53913 0.89402 0.0
N557 N 0.09036 0.33405 0.79527 0.0
C558 C 0.09358 0.2923 0.73207 0.0
C559 C 1.02347 0.27861 0.72332 0.0
C560 C 0.98351 0.28105 0.75361 0.0
C561 C 1.01652 0.30565 0.78898 0.0
C562 C 0.124 0.3162 0.76798 0.0
H563 H 0.98174 0.30393 0.81063 0.0
H564 H 0.17682 0.32334 0.77253 0.0
H565 H 0.27831 0.61257 0.80956 0.0
H566 H 0.19503 0.49554 0.91161 0.0
C567 C 0.03443 0.34866 0.89552 0.0
C568 C 0.0441 0.50274 0.79105 0.0
C569 C 0.26867 0.37486 0.8748 0.0
C570 C 0.26611 0.50142 0.7594 0.0
H571 H 0.9088 0.43065 0.8316 0.0
H572 H 0.9071 0.35519 0.89167 0.0
H573 H 0.07546 0.29832 0.95621 0.0
H574 H 0.21089 0.33402 0.9492 0.0
H575 H 0.38937 0.41088 0.8251 0.0
H576 H 0.39058 0.48209 0.76301 0.0
H577 H 0.22831 0.5753 0.70362 0.0
H578 H 0.11029 0.58067 0.72247 0.0
H579 H 0.39755 0.70683 0.83536 0.0
H580 H 0.31376 0.59463 0.93982 0.0
H581 H 0.12571 0.28525 0.71126 0.0
H582 H 0.92745 0.26703 0.75014 0.0
C583 C 0.81593 0.15057 1.01913 0.0
C584 C 0.81472 0.16869 0.98237 0.0
C585 C 0.85408 0.25171 0.9792 0.0
C586 C 0.87291 0.28098 1.01425 0.0
N587 N 0.84704 0.22122 0.03946 0.0
Co588 Co 0.83398 0.23679 0.09264 0.0
N589 N 0.84126 0.34145 0.08369 0.0
C590 C 0.88117 0.39115 0.05572 0.0
C591 C 0.89892 0.46925 0.06004 0.0
C592 C 0.86793 0.46891 0.09285 0.0
C593 C 0.82913 0.38909 0.10598 0.0
N594 N 0.81817 0.2511 0.1448 0.0
C595 C 0.80193 0.30305 0.16149 0.0
C596 C 0.81192 0.30116 0.19915 0.0
C597 C 0.83059 0.24476 0.20562 0.0
C598 C 0.8337 0.2159 0.17182 0.0
N599 N 0.82784 0.13247 0.09915 0.0
C600 C 0.844 0.11152 0.13112 0.0
C601 C 0.84651 0.0431 0.12742 0.0
C602 C 0.82929 1.01963 0.09103 0.0
C603 C 0.81263 0.07195 0.07435 0.0
N604 N 0.94439 0.29969 0.10374 0.0
C605 C 0.07185 0.34852 0.14963 0.0
C606 C 0.0362 0.27642 0.12834 0.0
C607 C 0.98038 0.25963 0.10264 0.0
C608 C 0.04262 0.39738 0.14578 0.0
C609 C 0.97777 0.37049 0.12425 0.0
N610 N 0.72598 0.17158 0.08719 0.0
C611 C 0.61519 0.04243 0.10205 0.0
C612 C 0.57411 0.05961 0.07931 0.0
C613 C 0.60779 0.13836 0.06456 0.0
C614 C 0.68577 0.19187 0.06621 0.0
C615 C 0.68881 0.10195 0.10804 0.0
H616 H 0.71283 0.24956 0.05194 0.0
H617 H 0.715 0.09015 0.12989 0.0
H618 H 0.96063 0.20765 0.08489 0.0
H619 H 0.95319 0.40569 0.12622 0.0
C620 C 0.89371 0.35956 1.02435 0.0
C621 C 0.78931 0.06705 0.03419 0.0
C622 C 0.78982 0.36367 0.14174 0.0
C623 C 0.84762 0.15385 0.16373 0.0
H624 H 0.78495 0.12752 0.96 0.0
H625 H 0.86043 0.28601 0.95464 0.0
H626 H 0.93117 0.52053 0.04175 0.0
H627 H 0.87606 0.52262 0.1061 0.0
H628 H 0.81235 0.34053 0.21994 0.0
H629 H 0.8425 0.22863 0.2319 0.0
H630 H 0.85789 1.01267 0.14864 0.0
H631 H 0.82724 0.96837 0.07845 0.0
H632 H 0.05283 0.23334 0.13042 0.0
H633 H 0.06811 0.45511 0.16003 0.0
H634 H 0.58914 0.98601 0.11754 0.0
H635 H 0.57411 0.15782 0.05226 0.0
loop_
_geom_bond_atom_site_label_1
_geom_bond_atom_site_label_2
_geom_bond_distance
_geom_bond_site_symmetry_2
_ccdc_geom_bond_type
C0 C1 1.443 . S
C0 N4 1.376 . S
C0 C38 1.389 . S
C1 C0 1.443 . S
C1 C2 1.340 . S
C1 H41 0.951 . S
C2 C1 1.340 . S
C2 C3 1.439 . S
C2 H42 0.950 . S
C3 C2 1.439 . S
C3 N4 1.374 . S
C3 C37 1.395 . S
N4 C0 1.376 . S
N4 C3 1.374 . S
N4 Co5 2.008 . S
Co5 N4 2.008 . S
Co5 N6 1.995 . S
Co5 N11 2.008 . S
Co5 N16 1.995 . S
Co5 N21 2.282 . S
Co5 N27 2.282 . S
N6 Co5 1.995 . S
N6 C7 1.376 . S
N6 C10 1.383 . S
C7 N6 1.376 . S
C7 C8 1.446 . S
C7 C37 1.391 . S
C8 C7 1.446 . S
C8 C9 1.339 . S
C8 H43 0.949 . S
C9 C8 1.339 . S
C9 C10 1.439 . S
C9 H44 0.950 . S
C10 N6 1.383 . S
C10 C9 1.439 . S
C10 C39 1.392 . S
N11 Co5 2.008 . S
N11 C12 1.376 . S
N11 C15 1.374 . S
C12 N11 1.376 . S
C12 C13 1.443 . S
C12 C39 1.389 . S
C13 C12 1.443 . S
C13 C14 1.340 . S
C13 H45 0.951 . S
C14 C13 1.340 . S
C14 C15 1.439 . S
C14 H46 0.950 . S
C15 N11 1.374 . S
C15 C14 1.439 . S
C15 C40 1.395 . S
N16 Co5 1.995 . S
N16 C17 1.376 . S
N16 C20 1.383 . S
C17 N16 1.376 . S
C17 C18 1.446 . S
C17 C40 1.391 . S
C18 C17 1.446 . S
C18 C19 1.339 . S
C18 H47 0.949 . S
C19 C18 1.339 . S
C19 C20 1.439 . S
C19 H48 0.950 . S
C20 N16 1.383 . S
C20 C19 1.439 . S
C20 C38 1.392 . S
N21 Co5 2.282 . S
N21 C24 1.332 . S
N21 C26 1.332 . S
C22 C23 1.386 . S
C22 C25 1.388 . S
C23 C22 1.386 . S
C23 C24 1.382 . S
C23 H49 0.950 . S
C24 N21 1.332 . S
C24 C23 1.382 . S
C24 H35 0.952 . S
C25 C22 1.388 . S
C25 C26 1.382 . S
C25 H50 0.950 . S
C26 N21 1.332 . S
C26 C25 1.382 . S
C26 H36 0.948 . S
N27 Co5 2.282 . S
N27 C31 1.332 . S
N27 C32 1.332 . S
C28 C29 1.388 . S
C28 C32 1.382 . S
C28 H51 0.950 . S
C29 C28 1.388 . S
C29 C30 1.386 . S
C30 C29 1.386 . S
C30 C31 1.382 . S
C30 H52 0.950 . S
C31 N27 1.332 . S
C31 C30 1.382 . S
C31 H33 0.952 . S
C32 N27 1.332 . S
C32 C28 1.382 . S
C32 H34 0.948 . S
H33 C31 0.952 . S
H34 C32 0.948 . S
H35 C24 0.952 . S
H36 C26 0.948 . S
C37 C3 1.395 . S
C37 C7 1.391 . S
C38 C0 1.389 . S
C38 C20 1.392 . S
C39 C10 1.392 . S
C39 C12 1.389 . S
C40 C15 1.395 . S
C40 C17 1.391 . S
H41 C1 0.951 . S
H42 C2 0.950 . S
H43 C8 0.949 . S
H44 C9 0.950 . S
H45 C13 0.951 . S
H46 C14 0.950 . S
H47 C18 0.949 . S
H48 C19 0.950 . S
H49 C23 0.950 . S
H50 C25 0.950 . S
H51 C28 0.950 . S
H52 C30 0.950 . S
C53 C54 1.443 1_655 S
C53 N57 1.376 . S
C53 C91 1.389 . S
C54 C53 1.443 1_455 S
C54 C55 1.340 . S
C54 H94 0.951 . S
C55 C54 1.340 . S
C55 C56 1.439 1_455 S
C55 H95 0.950 . S
C56 C55 1.439 1_655 S
C56 N57 1.374 . S
C56 C90 1.395 . S
N57 C53 1.376 . S
N57 C56 1.374 . S
N57 Co58 2.008 . S
Co58 N57 2.008 . S
Co58 N59 1.995 . S
Co58 N64 2.008 . S
Co58 N69 1.995 . S
Co58 N74 2.282 . S
Co58 N80 2.282 . S
N59 Co58 1.995 . S
N59 C60 1.376 . S
N59 C63 1.383 . S
C60 N59 1.376 . S
C60 C61 1.446 . S
C60 C90 1.391 . S
C61 C60 1.446 . S
C61 C62 1.339 . S
C61 H96 0.949 . S
C62 C61 1.339 . S
C62 C63 1.439 . S
C62 H97 0.950 . S
C63 N59 1.383 . S
C63 C62 1.439 . S
C63 C92 1.392 . S
N64 Co58 2.008 . S
N64 C65 1.376 . S
N64 C68 1.374 . S
C65 N64 1.376 . S
C65 C66 1.443 . S
C65 C92 1.389 . S
C66 C65 1.443 . S
C66 C67 1.340 . S
C66 H98 0.951 1_545 S
C67 C66 1.340 . S
C67 C68 1.439 . S
C67 H99 0.950 . S
C68 N64 1.374 . S
C68 C67 1.439 . S
C68 C93 1.395 . S
N69 Co58 1.995 . S
N69 C70 1.376 . S
N69 C73 1.383 . S
C70 N69 1.376 . S
C70 C71 1.446 . S
C70 C93 1.391 . S
C71 C70 1.446 . S
C71 C72 1.339 . S
C71 H100 0.949 . S
C72 C71 1.339 . S
C72 C73 1.439 . S
C72 H101 0.950 . S
C73 N69 1.383 . S
C73 C72 1.439 . S
C73 C91 1.392 . S
N74 Co58 2.282 . S
N74 C77 1.332 . S
N74 C79 1.332 . S
C75 C76 1.386 . S
C75 C78 1.388 . S
C76 C75 1.386 . S
C76 C77 1.382 . S
C76 H102 0.950 . S
C77 N74 1.332 . S
C77 C76 1.382 . S
C77 H88 0.952 . S
C78 C75 1.388 . S
C78 C79 1.382 . S
C78 H103 0.950 . S
C79 N74 1.332 . S
C79 C78 1.382 . S
C79 H89 0.948 . S
N80 Co58 2.282 . S
N80 C84 1.332 . S
N80 C85 1.332 . S
C81 C82 1.388 1_655 S
C81 C85 1.382 . S
C81 H104 0.950 . S
C82 C81 1.388 1_455 S
C82 C83 1.386 . S
C83 C82 1.386 . S
C83 C84 1.382 1_455 S
C83 H105 0.950 . S
C84 N80 1.332 . S
C84 C83 1.382 1_655 S
C84 H86 0.952 . S
C85 N80 1.332 . S
C85 C81 1.382 . S
C85 H87 0.948 . S
H86 C84 0.952 . S
H87 C85 0.948 . S
H88 C77 0.952 . S
H89 C79 0.948 . S
C90 C56 1.395 . S
C90 C60 1.391 . S
C91 C53 1.389 . S
C91 C73 1.392 . S
C92 C63 1.392 . S
C92 C65 1.389 . S
C93 C68 1.395 . S
C93 C70 1.391 . S
H94 C54 0.951 . S
H95 C55 0.950 . S
H96 C61 0.949 . S
H97 C62 0.950 . S
H98 C66 0.951 1_565 S
H99 C67 0.950 . S
H100 C71 0.949 . S
H101 C72 0.950 . S
H102 C76 0.950 . S
H103 C78 0.950 . S
H104 C81 0.950 . S
H105 C83 0.950 . S
C106 C107 1.454 . S
C106 N110 1.372 1_554 S
C106 C144 1.383 1_554 S
C107 C106 1.454 . S
C107 C108 1.340 . S
C107 H147 0.951 . S
C108 C107 1.340 . S
C108 C109 1.439 . S
C108 H148 0.950 . S
C109 C108 1.439 . S
C109 N110 1.374 1_554 S
C109 C143 1.395 . S
N110 C106 1.372 1_556 S
N110 C109 1.374 1_556 S
N110 Co111 2.008 . S
Co111 N110 2.008 . S
Co111 N112 1.995 . S
Co111 N117 2.008 . S
Co111 N122 1.995 . S
Co111 N127 2.282 . S
Co111 N133 2.282 . S
N112 Co111 1.995 . S
N112 C113 1.376 . S
N112 C116 1.383 . S
C113 N112 1.376 . S
C113 C114 1.446 . S
C113 C143 1.391 1_556 S
C114 C113 1.446 . S
C114 C115 1.339 . S
C114 H149 0.949 . S
C115 C114 1.339 . S
C115 C116 1.439 . S
C115 H150 0.950 . S
C116 N112 1.383 . S
C116 C115 1.439 . S
C116 C145 1.392 . S
N117 Co111 2.008 . S
N117 C118 1.376 . S
N117 C121 1.374 . S
C118 N117 1.376 . S
C118 C119 1.443 . S
C118 C145 1.389 . S
C119 C118 1.443 . S
C119 C120 1.340 . S
C119 H151 0.951 . S
C120 C119 1.340 . S
C120 C121 1.439 . S
C120 H152 0.950 . S
C121 N117 1.374 . S
C121 C120 1.439 . S
C121 C146 1.395 . S
N122 Co111 1.995 . S
N122 C123 1.376 . S
N122 C126 1.383 . S
C123 N122 1.376 . S
C123 C124 1.446 1_565 S
C123 C146 1.391 . S
C124 C123 1.446 1_545 S
C124 C125 1.339 . S
C124 H153 0.949 . S
C125 C124 1.339 . S
C125 C126 1.439 1_545 S
C125 H154 0.950 . S
C126 N122 1.383 . S
C126 C125 1.439 1_565 S
C126 C144 1.392 . S
N127 Co111 2.282 . S
N127 C130 1.332 . S
N127 C132 1.332 . S
C128 C129 1.386 . S
C128 C131 1.388 . S
C129 C128 1.386 . S
C129 C130 1.382 . S
C129 H155 0.950 . S
C130 N127 1.332 . S
C130 C129 1.382 . S
C130 H141 0.952 . S
C131 C128 1.388 . S
C131 C132 1.382 . S
C131 H156 0.950 . S
C132 N127 1.332 . S
C132 C131 1.382 . S
C132 H142 0.948 . S
N133 Co111 2.282 . S
N133 C137 1.332 . S
N133 C138 1.332 . S
C134 C135 1.388 . S
C134 C138 1.382 . S
C134 H157 0.950 1_565 S
C135 C134 1.388 . S
C135 C136 1.386 . S
C136 C135 1.386 . S
C136 C137 1.382 . S
C136 H158 0.950 . S
C137 N133 1.332 . S
C137 C136 1.382 . S
C137 H139 0.952 . S
C138 N133 1.332 . S
C138 C134 1.382 . S
C138 H140 0.948 . S
H139 C137 0.952 . S
H140 C138 0.948 . S
H141 C130 0.952 . S
H142 C132 0.948 . S
C143 C109 1.395 . S
C143 C113 1.391 1_554 S
C144 C106 1.383 1_556 S
C144 C126 1.392 . S
C145 C116 1.392 . S
C145 C118 1.389 . S
C146 C121 1.395 . S
C146 C123 1.391 . S
H147 C107 0.951 . S
H148 C108 0.950 . S
H149 C114 0.949 . S
H150 C115 0.950 . S
H151 C119 0.951 . S
H152 C120 0.950 . S
H153 C124 0.949 . S
H154 C125 0.950 . S
H155 C129 0.950 . S
H156 C131 0.950 . S
H157 C134 0.950 1_545 S
H158 C136 0.950 . S
C159 C160 1.443 . S
C159 N163 1.376 . S
C159 C197 1.389 . S
C160 C159 1.443 . S
C160 C161 1.340 . S
C160 H200 0.951 . S
C161 C160 1.340 . S
C161 C162 1.439 . S
C161 H201 0.950 . S
C162 C161 1.439 . S
C162 N163 1.374 . S
C162 C196 1.395 . S
N163 C159 1.376 . S
N163 C162 1.374 . S
N163 Co164 2.008 . S
Co164 N163 2.008 . S
Co164 N165 1.995 . S
Co164 N170 2.008 . S
Co164 N175 1.995 . S
Co164 N180 2.282 . S
Co164 N186 2.282 . S
N165 Co164 1.995 . S
N165 C166 1.376 . S
N165 C169 1.383 . S
C166 N165 1.376 . S
C166 C167 1.446 . S
C166 C196 1.391 . S
C167 C166 1.446 . S
C167 C168 1.339 . S
C167 H202 0.949 . S
C168 C167 1.339 . S
C168 C169 1.439 . S
C168 H203 0.950 . S
C169 N165 1.383 . S
C169 C168 1.439 . S
C169 C198 1.392 . S
N170 Co164 2.008 . S
N170 C171 1.376 . S
N170 C174 1.374 . S
C171 N170 1.376 . S
C171 C172 1.443 . S
C171 C198 1.389 . S
C172 C171 1.443 . S
C172 C173 1.340 . S
C172 H204 0.951 . S
C173 C172 1.340 . S
C173 C174 1.439 . S
C173 H205 0.950 . S
C174 N170 1.374 . S
C174 C173 1.439 . S
C174 C199 1.395 . S
N175 Co164 1.995 . S
N175 C176 1.376 . S
N175 C179 1.383 . S
C176 N175 1.376 . S
C176 C177 1.446 . S
C176 C199 1.391 . S
C177 C176 1.446 . S
C177 C178 1.339 . S
C177 H206 0.949 . S
C178 C177 1.339 . S
C178 C179 1.439 . S
C178 H207 0.950 . S
C179 N175 1.383 . S
C179 C178 1.439 . S
C179 C197 1.392 . S
N180 Co164 2.282 . S
N180 C183 1.332 . S
N180 C185 1.332 . S
C181 C182 1.386 . S
C181 C184 1.388 . S
C182 C181 1.386 . S
C182 C183 1.382 . S
C182 H208 0.950 . S
C183 N180 1.332 . S
C183 C182 1.382 . S
C183 H194 0.952 . S
C184 C181 1.388 . S
C184 C185 1.382 . S
C184 H209 0.950 . S
C185 N180 1.332 . S
C185 C184 1.382 . S
C185 H195 0.948 . S
N186 Co164 2.282 . S
N186 C190 1.332 . S
N186 C191 1.332 . S
C187 C188 1.388 . S
C187 C191 1.382 . S
C187 H210 0.950 . S
C188 C187 1.388 . S
C188 C189 1.386 . S
C189 C188 1.386 . S
C189 C190 1.382 . S
C189 H211 0.950 . S
C190 N186 1.332 . S
C190 C189 1.382 . S
C190 H192 0.952 . S
C191 N186 1.332 . S
C191 C187 1.382 . S
C191 H193 0.948 . S
H192 C190 0.952 . S
H193 C191 0.948 . S
H194 C183 0.952 . S
H195 C185 0.948 . S
C196 C162 1.395 . S
C196 C166 1.391 . S
C197 C159 1.389 . S
C197 C179 1.392 . S
C198 C169 1.392 . S
C198 C171 1.389 . S
C199 C174 1.395 . S
C199 C176 1.391 . S
H200 C160 0.951 . S
H201 C161 0.950 . S
H202 C167 0.949 . S
H203 C168 0.950 . S
H204 C172 0.951 . S
H205 C173 0.950 . S
H206 C177 0.949 . S
H207 C178 0.950 . S
H208 C182 0.950 . S
H209 C184 0.950 . S
H210 C187 0.950 . S
H211 C189 0.950 . S
C212 C213 1.443 1_455 S
C212 N216 1.376 . S
C212 C250 1.389 . S
C213 C212 1.443 1_655 S
C213 C214 1.340 . S
C213 H253 0.951 . S
C214 C213 1.340 . S
C214 C215 1.439 1_655 S
C214 H254 0.950 . S
C215 C214 1.439 1_455 S
C215 N216 1.374 . S
C215 C249 1.395 . S
N216 C212 1.376 . S
N216 C215 1.374 . S
N216 Co217 2.008 . S
Co217 N216 2.008 . S
Co217 N218 1.995 . S
Co217 N223 2.008 . S
Co217 N228 1.995 . S
Co217 N233 2.282 . S
Co217 N239 2.282 . S
N218 Co217 1.995 . S
N218 C219 1.376 . S
N218 C222 1.383 . S
C219 N218 1.376 . S
C219 C220 1.446 . S
C219 C249 1.391 . S
C220 C219 1.446 . S
C220 C221 1.339 . S
C220 H255 0.949 . S
C221 C220 1.339 . S
C221 C222 1.439 . S
C221 H256 0.950 . S
C222 N218 1.383 . S
C222 C221 1.439 . S
C222 C251 1.392 . S
N223 Co217 2.008 . S
N223 C224 1.376 . S
N223 C227 1.374 . S
C224 N223 1.376 . S
C224 C225 1.443 . S
C224 C251 1.389 . S
C225 C224 1.443 . S
C225 C226 1.340 . S
C225 H257 0.951 1_565 S
C226 C225 1.340 . S
C226 C227 1.439 . S
C226 H258 0.950 . S
C227 N223 1.374 . S
C227 C226 1.439 . S
C227 C252 1.395 . S
N228 Co217 1.995 . S
N228 C229 1.376 . S
N228 C232 1.383 . S
C229 N228 1.376 . S
C229 C230 1.446 . S
C229 C252 1.391 . S
C230 C229 1.446 . S
C230 C231 1.339 . S
C230 H259 0.949 . S
C231 C230 1.339 . S
C231 C232 1.439 . S
C231 H260 0.950 . S
C232 N228 1.383 . S
C232 C231 1.439 . S
C232 C250 1.392 . S
N233 Co217 2.282 . S
N233 C236 1.332 . S
N233 C238 1.332 . S
C234 C235 1.386 . S
C234 C237 1.388 . S
C235 C234 1.386 . S
C235 C236 1.382 . S
C235 H261 0.950 . S
C236 N233 1.332 . S
C236 C235 1.382 . S
C236 H247 0.952 . S
C237 C234 1.388 . S
C237 C238 1.382 . S
C237 H262 0.950 . S
C238 N233 1.332 . S
C238 C237 1.382 . S
C238 H248 0.948 . S
N239 Co217 2.282 . S
N239 C243 1.332 . S
N239 C244 1.332 . S
C240 C241 1.388 1_455 S
C240 C244 1.382 . S
C240 H263 0.950 . S
C241 C240 1.388 1_655 S
C241 C242 1.386 . S
C242 C241 1.386 . S
C242 C243 1.382 1_655 S
C242 H264 0.950 . S
C243 N239 1.332 . S
C243 C242 1.382 1_455 S
C243 H245 0.952 . S
C244 N239 1.332 . S
C244 C240 1.382 . S
C244 H246 0.948 . S
H245 C243 0.952 . S
H246 C244 0.948 . S
H247 C236 0.952 . S
H248 C238 0.948 . S
C249 C215 1.395 . S
C249 C219 1.391 . S
C250 C212 1.389 . S
C250 C232 1.392 . S
C251 C222 1.392 . S
C251 C224 1.389 . S
C252 C227 1.395 . S
C252 C229 1.391 . S
H253 C213 0.951 . S
H254 C214 0.950 . S
H255 C220 0.949 . S
H256 C221 0.950 . S
H257 C225 0.951 1_545 S
H258 C226 0.950 . S
H259 C230 0.949 . S
H260 C231 0.950 . S
H261 C235 0.950 . S
H262 C237 0.950 . S
H263 C240 0.950 . S
H264 C242 0.950 . S
C265 C266 1.454 . S
C265 N269 1.372 1_554 S
C265 C303 1.383 1_554 S
C266 C265 1.454 . S
C266 C267 1.340 . S
C266 H306 0.951 . S
C267 C266 1.340 . S
C267 C268 1.439 . S
C267 H307 0.950 . S
C268 C267 1.439 . S
C268 N269 1.374 1_554 S
C268 C302 1.395 . S
N269 C265 1.372 1_556 S
N269 C268 1.374 1_556 S
N269 Co270 2.008 . S
Co270 N269 2.008 . S
Co270 N271 1.995 . S
Co270 N276 2.008 . S
Co270 N281 1.995 . S
Co270 N286 2.282 . S
Co270 N292 2.282 . S
N271 Co270 1.995 . S
N271 C272 1.376 . S
N271 C275 1.383 . S
C272 N271 1.376 . S
C272 C273 1.446 . S
C272 C302 1.391 1_556 S
C273 C272 1.446 . S
C273 C274 1.339 . S
C273 H308 0.949 . S
C274 C273 1.339 . S
C274 C275 1.439 . S
C274 H309 0.950 . S
C275 N271 1.383 . S
C275 C274 1.439 . S
C275 C304 1.392 . S
N276 Co270 2.008 . S
N276 C277 1.376 . S
N276 C280 1.374 . S
C277 N276 1.376 . S
C277 C278 1.443 . S
C277 C304 1.389 . S
C278 C277 1.443 . S
C278 C279 1.340 . S
C278 H310 0.951 . S
C279 C278 1.340 . S
C279 C280 1.439 . S
C279 H311 0.950 . S
C280 N276 1.374 . S
C280 C279 1.439 . S
C280 C305 1.395 . S
N281 Co270 1.995 . S
N281 C282 1.376 . S
N281 C285 1.383 . S
C282 N281 1.376 . S
C282 C283 1.446 1_545 S
C282 C305 1.391 . S
C283 C282 1.446 1_565 S
C283 C284 1.339 . S
C283 H312 0.949 . S
C284 C283 1.339 . S
C284 C285 1.439 1_565 S
C284 H313 0.950 . S
C285 N281 1.383 . S
C285 C284 1.439 1_545 S
C285 C303 1.392 . S
N286 Co270 2.282 . S
N286 C289 1.332 . S
N286 C291 1.332 . S
C287 C288 1.386 . S
C287 C290 1.388 . S
C288 C287 1.386 . S
C288 C289 1.382 . S
C288 H314 0.950 . S
C289 N286 1.332 . S
C289 C288 1.382 . S
C289 H300 0.952 . S
C290 C287 1.388 . S
C290 C291 1.382 . S
C290 H315 0.950 . S
C291 N286 1.332 . S
C291 C290 1.382 . S
C291 H301 0.948 . S
N292 Co270 2.282 . S
N292 C296 1.332 . S
N292 C297 1.332 . S
C293 C294 1.388 . S
C293 C297 1.382 . S
C293 H316 0.950 1_545 S
C294 C293 1.388 . S
C294 C295 1.386 . S
C295 C294 1.386 . S
C295 C296 1.382 . S
C295 H317 0.950 . S
C296 N292 1.332 . S
C296 C295 1.382 . S
C296 H298 0.952 . S
C297 N292 1.332 . S
C297 C293 1.382 . S
C297 H299 0.948 . S
H298 C296 0.952 . S
H299 C297 0.948 . S
H300 C289 0.952 . S
H301 C291 0.948 . S
C302 C268 1.395 . S
C302 C272 1.391 1_554 S
C303 C265 1.383 1_556 S
C303 C285 1.392 . S
C304 C275 1.392 . S
C304 C277 1.389 . S
C305 C280 1.395 . S
C305 C282 1.391 . S
H306 C266 0.951 . S
H307 C267 0.950 . S
H308 C273 0.949 . S
H309 C274 0.950 . S
H310 C278 0.951 . S
H311 C279 0.950 . S
H312 C283 0.949 . S
H313 C284 0.950 . S
H314 C288 0.950 . S
H315 C290 0.950 . S
H316 C293 0.950 1_565 S
H317 C295 0.950 . S
C318 C319 1.443 . S
C318 N322 1.376 . S
C318 C356 1.389 . S
C319 C318 1.443 . S
C319 C320 1.340 . S
C319 H359 0.951 . S
C320 C319 1.340 . S
C320 C321 1.439 . S
C320 H360 0.950 . S
C321 C320 1.439 . S
C321 N322 1.374 . S
C321 C355 1.395 . S
N322 C318 1.376 . S
N322 C321 1.374 . S
N322 Co323 2.008 . S
Co323 N322 2.008 . S
Co323 N324 1.995 . S
Co323 N329 2.008 . S
Co323 N334 1.995 . S
Co323 N339 2.282 . S
Co323 N345 2.282 . S
N324 Co323 1.995 . S
N324 C325 1.376 . S
N324 C328 1.383 . S
C325 N324 1.376 . S
C325 C326 1.446 . S
C325 C355 1.391 . S
C326 C325 1.446 . S
C326 C327 1.339 . S
C326 H361 0.949 . S
C327 C326 1.339 . S
C327 C328 1.439 . S
C327 H362 0.950 . S
C328 N324 1.383 . S
C328 C327 1.439 . S
C328 C357 1.392 . S
N329 Co323 2.008 . S
N329 C330 1.376 . S
N329 C333 1.374 . S
C330 N329 1.376 . S
C330 C331 1.443 . S
C330 C357 1.389 . S
C331 C330 1.443 . S
C331 C332 1.340 . S
C331 H363 0.951 1_565 S
C332 C331 1.340 . S
C332 C333 1.439 . S
C332 H364 0.950 . S
C333 N329 1.374 . S
C333 C332 1.439 . S
C333 C358 1.395 . S
N334 Co323 1.995 . S
N334 C335 1.376 . S
N334 C338 1.383 . S
C335 N334 1.376 . S
C335 C336 1.446 . S
C335 C358 1.391 . S
C336 C335 1.446 . S
C336 C337 1.339 . S
C336 H365 0.949 . S
C337 C336 1.339 . S
C337 C338 1.439 . S
C337 H366 0.950 . S
C338 N334 1.383 . S
C338 C337 1.439 . S
C338 C356 1.392 . S
N339 Co323 2.282 . S
N339 C342 1.332 . S
N339 C344 1.332 . S
C340 C341 1.386 . S
C340 C343 1.388 . S
C341 C340 1.386 . S
C341 C342 1.382 . S
C341 H367 0.950 . S
C342 N339 1.332 . S
C342 C341 1.382 . S
C342 H353 0.952 . S
C343 C340 1.388 . S
C343 C344 1.382 . S
C343 H368 0.950 . S
C344 N339 1.332 . S
C344 C343 1.382 . S
C344 H354 0.948 . S
N345 Co323 2.282 . S
N345 C349 1.332 . S
N345 C350 1.332 . S
C346 C347 1.388 . S
C346 C350 1.382 . S
C346 H369 0.950 . S
C347 C346 1.388 . S
C347 C348 1.386 . S
C348 C347 1.386 . S
C348 C349 1.382 . S
C348 H370 0.950 . S
C349 N345 1.332 . S
C349 C348 1.382 . S
C349 H351 0.952 . S
C350 N345 1.332 . S
C350 C346 1.382 . S
C350 H352 0.948 . S
H351 C349 0.952 . S
H352 C350 0.948 . S
H353 C342 0.952 . S
H354 C344 0.948 . S
C355 C321 1.395 . S
C355 C325 1.391 . S
C356 C318 1.389 . S
C356 C338 1.392 . S
C357 C328 1.392 . S
C357 C330 1.389 . S
C358 C333 1.395 . S
C358 C335 1.391 . S
H359 C319 0.951 . S
H360 C320 0.950 . S
H361 C326 0.949 . S
H362 C327 0.950 . S
H363 C331 0.951 1_545 S
H364 C332 0.950 . S
H365 C336 0.949 . S
H366 C337 0.950 . S
H367 C341 0.950 . S
H368 C343 0.950 . S
H369 C346 0.950 . S
H370 C348 0.950 . S
C371 C372 1.443 1_655 S
C371 N375 1.376 . S
C371 C409 1.389 . S
C372 C371 1.443 1_455 S
C372 C373 1.340 . S
C372 H412 0.951 . S
C373 C372 1.340 . S
C373 C374 1.439 1_455 S
C373 H413 0.950 . S
C374 C373 1.439 1_655 S
C374 N375 1.374 . S
C374 C408 1.395 . S
N375 C371 1.376 . S
N375 C374 1.374 . S
N375 Co376 2.008 . S
Co376 N375 2.008 . S
Co376 N377 1.995 . S
Co376 N382 2.008 . S
Co376 N387 1.995 . S
Co376 N392 2.282 . S
Co376 N398 2.282 . S
N377 Co376 1.995 . S
N377 C378 1.376 . S
N377 C381 1.383 . S
C378 N377 1.376 . S
C378 C379 1.446 . S
C378 C408 1.391 . S
C379 C378 1.446 . S
C379 C380 1.339 . S
C379 H414 0.949 . S
C380 C379 1.339 . S
C380 C381 1.439 . S
C380 H415 0.950 . S
C381 N377 1.383 . S
C381 C380 1.439 . S
C381 C410 1.392 . S
N382 Co376 2.008 . S
N382 C383 1.376 . S
N382 C386 1.374 . S
C383 N382 1.376 . S
C383 C384 1.443 . S
C383 C410 1.389 . S
C384 C383 1.443 . S
C384 C385 1.340 . S
C384 H416 0.951 . S
C385 C384 1.340 . S
C385 C386 1.439 . S
C385 H417 0.950 . S
C386 N382 1.374 . S
C386 C385 1.439 . S
C386 C411 1.395 . S
N387 Co376 1.995 . S
N387 C388 1.376 . S
N387 C391 1.383 . S
C388 N387 1.376 . S
C388 C389 1.446 . S
C388 C411 1.391 . S
C389 C388 1.446 . S
C389 C390 1.339 . S
C389 H418 0.949 . S
C390 C389 1.339 . S
C390 C391 1.439 . S
C390 H419 0.950 . S
C391 N387 1.383 . S
C391 C390 1.439 . S
C391 C409 1.392 . S
N392 Co376 2.282 . S
N392 C395 1.332 . S
N392 C397 1.332 . S
C393 C394 1.386 . S
C393 C396 1.388 . S
C394 C393 1.386 . S
C394 C395 1.382 . S
C394 H420 0.950 . S
C395 N392 1.332 . S
C395 C394 1.382 . S
C395 H406 0.952 . S
C396 C393 1.388 . S
C396 C397 1.382 . S
C396 H421 0.950 . S
C397 N392 1.332 . S
C397 C396 1.382 . S
C397 H407 0.948 . S
N398 Co376 2.282 . S
N398 C402 1.332 . S
N398 C403 1.332 . S
C399 C400 1.388 1_655 S
C399 C403 1.382 . S
C399 H422 0.950 . S
C400 C399 1.388 1_455 S
C400 C401 1.386 . S
C401 C400 1.386 . S
C401 C402 1.382 1_455 S
C401 H423 0.950 . S
C402 N398 1.332 . S
C402 C401 1.382 1_655 S
C402 H404 0.952 . S
C403 N398 1.332 . S
C403 C399 1.382 . S
C403 H405 0.948 . S
H404 C402 0.952 . S
H405 C403 0.948 . S
H406 C395 0.952 . S
H407 C397 0.948 . S
C408 C374 1.395 . S
C408 C378 1.391 . S
C409 C371 1.389 . S
C409 C391 1.392 . S
C410 C381 1.392 . S
C410 C383 1.389 . S
C411 C386 1.395 . S
C411 C388 1.391 . S
H412 C372 0.951 . S
H413 C373 0.950 . S
H414 C379 0.949 . S
H415 C380 0.950 . S
H416 C384 0.951 . S
H417 C385 0.950 . S
H418 C389 0.949 . S
H419 C390 0.950 . S
H420 C394 0.950 . S
H421 C396 0.950 . S
H422 C399 0.950 . S
H423 C401 0.950 . S
C424 C425 1.443 . S
C424 N428 1.376 1_556 S
C424 C462 1.389 1_556 S
C425 C424 1.443 . S
C425 C426 1.340 . S
C425 H465 0.951 . S
C426 C425 1.340 . S
C426 C427 1.439 . S
C426 H466 0.950 . S
C427 C426 1.439 . S
C427 N428 1.374 1_556 S
C427 C461 1.395 . S
N428 C424 1.376 1_554 S
N428 C427 1.374 1_554 S
N428 Co429 2.008 . S
Co429 N428 2.008 . S
Co429 N430 1.995 . S
Co429 N435 2.008 . S
Co429 N440 1.995 . S
Co429 N445 2.282 . S
Co429 N451 2.282 . S
N430 Co429 1.995 . S
N430 C431 1.376 . S
N430 C434 1.383 . S
C431 N430 1.376 . S
C431 C432 1.446 . S
C431 C461 1.391 1_554 S
C432 C431 1.446 . S
C432 C433 1.339 . S
C432 H467 0.949 . S
C433 C432 1.339 . S
C433 C434 1.439 . S
C433 H468 0.950 . S
C434 N430 1.383 . S
C434 C433 1.439 . S
C434 C463 1.392 . S
N435 Co429 2.008 . S
N435 C436 1.376 . S
N435 C439 1.374 . S
C436 N435 1.376 . S
C436 C437 1.443 . S
C436 C463 1.389 . S
C437 C436 1.443 . S
C437 C438 1.340 . S
C437 H469 0.951 . S
C438 C437 1.340 . S
C438 C439 1.439 . S
C438 H470 0.950 . S
C439 N435 1.374 . S
C439 C438 1.439 . S
C439 C464 1.395 . S
N440 Co429 1.995 . S
N440 C441 1.376 . S
N440 C444 1.383 . S
C441 N440 1.376 . S
C441 C442 1.446 1_565 S
C441 C464 1.391 . S
C442 C441 1.446 1_545 S
C442 C443 1.339 . S
C442 H471 0.949 . S
C443 C442 1.339 . S
C443 C444 1.439 1_545 S
C443 H472 0.950 . S
C444 N440 1.383 . S
C444 C443 1.439 1_565 S
C444 C462 1.392 . S
N445 Co429 2.282 . S
N445 C448 1.332 . S
N445 C450 1.332 . S
C446 C447 1.386 . S
C446 C449 1.388 . S
C447 C446 1.386 . S
C447 C448 1.382 1_655 S
C447 H473 0.950 . S
C448 N445 1.332 . S
C448 C447 1.382 1_455 S
C448 H459 0.952 . S
C449 C446 1.388 . S
C449 C450 1.382 1_655 S
C449 H474 0.950 . S
C450 N445 1.332 . S
C450 C449 1.382 1_455 S
C450 H460 0.948 . S
N451 Co429 2.282 . S
N451 C455 1.332 . S
N451 C456 1.332 . S
C452 C453 1.388 . S
C452 C456 1.382 . S
C452 H475 0.950 1_565 S
C453 C452 1.388 . S
C453 C454 1.386 . S
C454 C453 1.386 . S
C454 C455 1.382 . S
C454 H476 0.950 1_554 S
C455 N451 1.332 . S
C455 C454 1.382 . S
C455 H457 0.952 . S
C456 N451 1.332 . S
C456 C452 1.382 . S
C456 H458 0.948 . S
H457 C455 0.952 . S
H458 C456 0.948 . S
H459 C448 0.952 . S
H460 C450 0.948 . S
C461 C427 1.395 . S
C461 C431 1.391 1_556 S
C462 C424 1.389 1_554 S
C462 C444 1.392 . S
C463 C434 1.392 . S
C463 C436 1.389 . S
C464 C439 1.395 . S
C464 C441 1.391 . S
H465 C425 0.951 . S
H466 C426 0.950 . S
H467 C432 0.949 . S
H468 C433 0.950 . S
H469 C437 0.951 . S
H470 C438 0.950 . S
H471 C442 0.949 . S
H472 C443 0.950 . S
H473 C447 0.950 . S
H474 C449 0.950 . S
H475 C452 0.950 1_545 S
H476 C454 0.950 1_556 S
C477 C478 1.443 . S
C477 N481 1.376 . S
C477 C515 1.389 . S
C478 C477 1.443 . S
C478 C479 1.340 . S
C478 H518 0.951 . S
C479 C478 1.340 . S
C479 C480 1.439 . S
C479 H519 0.950 . S
C480 C479 1.439 . S
C480 N481 1.374 . S
C480 C514 1.395 . S
N481 C477 1.376 . S
N481 C480 1.374 . S
N481 Co482 2.008 . S
Co482 N481 2.008 . S
Co482 N483 1.995 . S
Co482 N488 2.008 . S
Co482 N493 1.995 . S
Co482 N498 2.282 . S
Co482 N504 2.282 . S
N483 Co482 1.995 . S
N483 C484 1.376 . S
N483 C487 1.383 . S
C484 N483 1.376 . S
C484 C485 1.446 . S
C484 C514 1.391 . S
C485 C484 1.446 . S
C485 C486 1.339 . S
C485 H520 0.949 . S
C486 C485 1.339 . S
C486 C487 1.439 . S
C486 H521 0.950 . S
C487 N483 1.383 . S
C487 C486 1.439 . S
C487 C516 1.392 . S
N488 Co482 2.008 . S
N488 C489 1.376 . S
N488 C492 1.374 . S
C489 N488 1.376 . S
C489 C490 1.443 . S
C489 C516 1.389 . S
C490 C489 1.443 . S
C490 C491 1.340 . S
C490 H522 0.951 1_545 S
C491 C490 1.340 . S
C491 C492 1.439 . S
C491 H523 0.950 . S
C492 N488 1.374 . S
C492 C491 1.439 . S
C492 C517 1.395 . S
N493 Co482 1.995 . S
N493 C494 1.376 . S
N493 C497 1.383 . S
C494 N493 1.376 . S
C494 C495 1.446 . S
C494 C517 1.391 . S
C495 C494 1.446 . S
C495 C496 1.339 . S
C495 H524 0.949 . S
C496 C495 1.339 . S
C496 C497 1.439 . S
C496 H525 0.950 . S
C497 N493 1.383 . S
C497 C496 1.439 . S
C497 C515 1.392 . S
N498 Co482 2.282 . S
N498 C501 1.332 . S
N498 C503 1.332 . S
C499 C500 1.386 . S
C499 C502 1.388 . S
C500 C499 1.386 . S
C500 C501 1.382 . S
C500 H526 0.950 . S
C501 N498 1.332 . S
C501 C500 1.382 . S
C501 H512 0.952 . S
C502 C499 1.388 . S
C502 C503 1.382 . S
C502 H527 0.950 . S
C503 N498 1.332 . S
C503 C502 1.382 . S
C503 H513 0.948 . S
N504 Co482 2.282 . S
N504 C508 1.332 . S
N504 C509 1.332 . S
C505 C506 1.388 . S
C505 C509 1.382 . S
C505 H528 0.950 . S
C506 C505 1.388 . S
C506 C507 1.386 . S
C507 C506 1.386 . S
C507 C508 1.382 . S
C507 H529 0.950 . S
C508 N504 1.332 . S
C508 C507 1.382 . S
C508 H510 0.952 . S
C509 N504 1.332 . S
C509 C505 1.382 . S
C509 H511 0.948 . S
H510 C508 0.952 . S
H511 C509 0.948 . S
H512 C501 0.952 . S
H513 C503 0.948 . S
C514 C480 1.395 . S
C514 C484 1.391 . S
C515 C477 1.389 . S
C515 C497 1.392 . S
C516 C487 1.392 . S
C516 C489 1.389 . S
C517 C492 1.395 . S
C517 C494 1.391 . S
H518 C478 0.951 . S
H519 C479 0.950 . S
H520 C485 0.949 . S
H521 C486 0.950 . S
H522 C490 0.951 1_565 S
H523 C491 0.950 . S
H524 C495 0.949 . S
H525 C496 0.950 . S
H526 C500 0.950 . S
H527 C502 0.950 . S
H528 C505 0.950 . S
H529 C507 0.950 . S
C530 C531 1.443 1_455 S
C530 N534 1.376 . S
C530 C568 1.389 . S
C531 C530 1.443 1_655 S
C531 C532 1.340 . S
C531 H571 0.951 . S
C532 C531 1.340 . S
C532 C533 1.439 1_655 S
C532 H572 0.950 . S
C533 C532 1.439 1_455 S
C533 N534 1.374 . S
C533 C567 1.395 . S
N534 C530 1.376 . S
N534 C533 1.374 . S
N534 Co535 2.008 . S
Co535 N534 2.008 . S
Co535 N536 1.995 . S
Co535 N541 2.008 . S
Co535 N546 1.995 . S
Co535 N551 2.282 . S
Co535 N557 2.282 . S
N536 Co535 1.995 . S
N536 C537 1.376 . S
N536 C540 1.383 . S
C537 N536 1.376 . S
C537 C538 1.446 . S
C537 C567 1.391 . S
C538 C537 1.446 . S
C538 C539 1.339 . S
C538 H573 0.949 . S
C539 C538 1.339 . S
C539 C540 1.439 . S
C539 H574 0.950 . S
C540 N536 1.383 . S
C540 C539 1.439 . S
C540 C569 1.392 . S
N541 Co535 2.008 . S
N541 C542 1.376 . S
N541 C545 1.374 . S
C542 N541 1.376 . S
C542 C543 1.443 . S
C542 C569 1.389 . S
C543 C542 1.443 . S
C543 C544 1.340 . S
C543 H575 0.951 . S
C544 C543 1.340 . S
C544 C545 1.439 . S
C544 H576 0.950 . S
C545 N541 1.374 . S
C545 C544 1.439 . S
C545 C570 1.395 . S
N546 Co535 1.995 . S
N546 C547 1.376 . S
N546 C550 1.383 . S
C547 N546 1.376 . S
C547 C548 1.446 . S
C547 C570 1.391 . S
C548 C547 1.446 . S
C548 C549 1.339 . S
C548 H577 0.949 . S
C549 C548 1.339 . S
C549 C550 1.439 . S
C549 H578 0.950 . S
C550 N546 1.383 . S
C550 C549 1.439 . S
C550 C568 1.392 . S
N551 Co535 2.282 . S
N551 C554 1.332 . S
N551 C556 1.332 . S
C552 C553 1.386 . S
C552 C555 1.388 . S
C553 C552 1.386 . S
C553 C554 1.382 . S
C553 H579 0.950 . S
C554 N551 1.332 . S
C554 C553 1.382 . S
C554 H565 0.952 . S
C555 C552 1.388 . S
C555 C556 1.382 . S
C555 H580 0.950 . S
C556 N551 1.332 . S
C556 C555 1.382 . S
C556 H566 0.948 . S
N557 Co535 2.282 . S
N557 C561 1.332 . S
N557 C562 1.332 . S
C558 C559 1.388 1_455 S
C558 C562 1.382 . S
C558 H581 0.950 . S
C559 C558 1.388 1_655 S
C559 C560 1.386 . S
C560 C559 1.386 . S
C560 C561 1.382 1_655 S
C560 H582 0.950 . S
C561 N557 1.332 . S
C561 C560 1.382 1_455 S
C561 H563 0.952 . S
C562 N557 1.332 . S
C562 C558 1.382 . S
C562 H564 0.948 . S
H563 C561 0.952 . S
H564 C562 0.948 . S
H565 C554 0.952 . S
H566 C556 0.948 . S
C567 C533 1.395 . S
C567 C537 1.391 . S
C568 C530 1.389 . S
C568 C550 1.392 . S
C569 C540 1.392 . S
C569 C542 1.389 . S
C570 C545 1.395 . S
C570 C547 1.391 . S
H571 C531 0.951 . S
H572 C532 0.950 . S
H573 C538 0.949 . S
H574 C539 0.950 . S
H575 C543 0.951 . S
H576 C544 0.950 . S
H577 C548 0.949 . S
H578 C549 0.950 . S
H579 C553 0.950 . S
H580 C555 0.950 . S
H581 C558 0.950 . S
H582 C560 0.950 . S
C583 C584 1.443 . S
C583 N587 1.376 1_556 S
C583 C621 1.389 1_556 S
C584 C583 1.443 . S
C584 C585 1.340 . S
C584 H624 0.951 . S
C585 C584 1.340 . S
C585 C586 1.439 . S
C585 H625 0.950 . S
C586 C585 1.439 . S
C586 N587 1.374 1_556 S
C586 C620 1.395 . S
N587 C583 1.376 1_554 S
N587 C586 1.374 1_554 S
N587 Co588 2.008 . S
Co588 N587 2.008 . S
Co588 N589 1.995 . S
Co588 N594 2.008 . S
Co588 N599 1.995 . S
Co588 N604 2.282 . S
Co588 N610 2.282 . S
N589 Co588 1.995 . S
N589 C590 1.376 . S
N589 C593 1.383 . S
C590 N589 1.376 . S
C590 C591 1.446 . S
C590 C620 1.391 1_554 S
C591 C590 1.446 . S
C591 C592 1.339 . S
C591 H626 0.949 . S
C592 C591 1.339 . S
C592 C593 1.439 . S
C592 H627 0.950 . S
C593 N589 1.383 . S
C593 C592 1.439 . S
C593 C622 1.392 . S
N594 Co588 2.008 . S
N594 C595 1.376 . S
N594 C598 1.374 . S
C595 N594 1.376 . S
C595 C596 1.443 . S
C595 C622 1.389 . S
C596 C595 1.443 . S
C596 C597 1.340 . S
C596 H628 0.951 . S
C597 C596 1.340 . S
C597 C598 1.439 . S
C597 H629 0.950 . S
C598 N594 1.374 . S
C598 C597 1.439 . S
C598 C623 1.395 . S
N599 Co588 1.995 . S
N599 C600 1.376 . S
N599 C603 1.383 . S
C600 N599 1.376 . S
C600 C601 1.446 1_545 S
C600 C623 1.391 . S
C601 C600 1.446 1_565 S
C601 C602 1.339 . S
C601 H630 0.949 . S
C602 C601 1.339 . S
C602 C603 1.439 1_565 S
C602 H631 0.950 . S
C603 N599 1.383 . S
C603 C602 1.439 1_545 S
C603 C621 1.392 . S
N604 Co588 2.282 . S
N604 C607 1.332 . S
N604 C609 1.332 . S
C605 C606 1.386 . S
C605 C608 1.388 . S
C606 C605 1.386 . S
C606 C607 1.382 1_455 S
C606 H632 0.950 . S
C607 N604 1.332 . S
C607 C606 1.382 1_655 S
C607 H618 0.952 . S
C608 C605 1.388 . S
C608 C609 1.382 1_455 S
C608 H633 0.950 . S
C609 N604 1.332 . S
C609 C608 1.382 1_655 S
C609 H619 0.948 . S
N610 Co588 2.282 . S
N610 C614 1.332 . S
N610 C615 1.332 . S
C611 C612 1.388 . S
C611 C615 1.382 . S
C611 H634 0.950 1_545 S
C612 C611 1.388 . S
C612 C613 1.386 . S
C613 C612 1.386 . S
C613 C614 1.382 . S
C613 H635 0.950 1_554 S
C614 N610 1.332 . S
C614 C613 1.382 . S
C614 H616 0.952 . S
C615 N610 1.332 . S
C615 C611 1.382 . S
C615 H617 0.948 . S
H616 C614 0.952 . S
H617 C615 0.948 . S
H618 C607 0.952 . S
H619 C609 0.948 . S
C620 C586 1.395 . S
C620 C590 1.391 1_556 S
C621 C583 1.389 1_554 S
C621 C603 1.392 . S
C622 C593 1.392 . S
C622 C595 1.389 . S
C623 C598 1.395 . S
C623 C600 1.391 . S
H624 C584 0.951 . S
H625 C585 0.950 . S
H626 C591 0.949 . S
H627 C592 0.950 . S
H628 C596 0.951 . S
H629 C597 0.950 . S
H630 C601 0.949 . S
H631 C602 0.950 . S
H632 C606 0.950 . S
H633 C608 0.950 . S
H634 C611 0.950 1_565 S
H635 C613 0.950 1_556 S
C463 C22 2.804 . S
C75 C499 3.919 . S
C145 C552 2.805 . S
C181 C622 2.804 . S
C340 C234 3.919 . S
C304 C393 2.805 . S
C197 C38 2.927 . S
C250 C91 2.712 1_455 S
C294 C135 1.222 1_545 S
C356 C515 2.712 . S
C409 C568 2.927 1_655 S
C453 C612 1.222 1_565 S
C29 C506 3.336 . S
C82 C559 3.336 1_455 S
C144 C621 1.615 1_566 S
C347 C188 3.336 . S
C241 C400 3.336 1_655 S
C462 C303 1.615 1_564 S
C605 C39 2.950 . S
C92 C357 3.343 1_545 S
C410 C128 2.950 . S
C198 C446 2.950 . S
C251 C516 3.343 1_565 S
C569 C287 2.950 . S
