# Generated by pormake.
# Topology wme, (6)-cn, num edge types: 1
# Building blocks:
#     Node 0, Type 0, BuildingBlock: KUMJIN_clean_sbu_1, # of connection points: 6
#     Node 1, Type 0, BuildingBlock: KUMJIN_clean_sbu_1, # of connection points: 6
#     Node 2, Type 0, BuildingBlock: KUMJIN_clean_sbu_1, # of connection points: 6
#     Node 3, Type 0, BuildingBlock: KUMJIN_clean_sbu_1, # of connection points: 6
#     Node 4, Type 0, BuildingBlock: KUMJIN_clean_sbu_1, # of connection points: 6
#     Node 5, Type 0, BuildingBlock: KUMJIN_clean_sbu_1, # of connection points: 6
#     Node 6, Type 0, BuildingBlock: KUMJIN_clean_sbu_1, # of connection points: 6
#     Node 7, Type 0, BuildingBlock: KUMJIN_clean_sbu_1, # of connection points: 6
#     Node 8, Type 0, BuildingBlock: KUMJIN_clean_sbu_1, # of connection points: 6
#     Node 9, Type 0, BuildingBlock: KUMJIN_clean_sbu_1, # of connection points: 6
#     Node 10, Type 0, BuildingBlock: KUMJIN_clean_sbu_1, # of connection points: 6
#     Node 11, Type 0, BuildingBlock: KUMJIN_clean_sbu_1, # of connection points: 6
#     Edge 12, Type (0, 0), BuildingBlock: CIFDUS_clean_linker_0, # of connection points: 2
#     Edge 13, Type (0, 0), BuildingBlock: CIFDUS_clean_linker_0, # of connection points: 2
#     Edge 14, Type (0, 0), BuildingBlock: CIFDUS_clean_linker_0, # of connection points: 2
#     Edge 15, Type (0, 0), BuildingBlock: CIFDUS_clean_linker_0, # of connection points: 2
#     Edge 16, Type (0, 0), BuildingBlock: CIFDUS_clean_linker_0, # of connection points: 2
#     Edge 17, Type (0, 0), BuildingBlock: CIFDUS_clean_linker_0, # of connection points: 2
#     Edge 18, Type (0, 0), BuildingBlock: CIFDUS_clean_linker_0, # of connection points: 2
#     Edge 19, Type (0, 0), BuildingBlock: CIFDUS_clean_linker_0, # of connection points: 2
#     Edge 20, Type (0, 0), BuildingBlock: CIFDUS_clean_linker_0, # of connection points: 2
#     Edge 21, Type (0, 0), BuildingBlock: CIFDUS_clean_linker_0, # of connection points: 2
#     Edge 22, Type (0, 0), BuildingBlock: CIFDUS_clean_linker_0, # of connection points: 2
#     Edge 23, Type (0, 0), BuildingBlock: CIFDUS_clean_linker_0, # of connection points: 2
#     Edge 24, Type (0, 0), BuildingBlock: CIFDUS_clean_linker_0, # of connection points: 2
#     Edge 25, Type (0, 0), BuildingBlock: CIFDUS_clean_linker_0, # of connection points: 2
#     Edge 26, Type (0, 0), BuildingBlock: CIFDUS_clean_linker_0, # of connection points: 2
#     Edge 27, Type (0, 0), BuildingBlock: CIFDUS_clean_linker_0, # of connection points: 2
#     Edge 28, Type (0, 0), BuildingBlock: CIFDUS_clean_linker_0, # of connection points: 2
#     Edge 29, Type (0, 0), BuildingBlock: CIFDUS_clean_linker_0, # of connection points: 2
#     Edge 30, Type (0, 0), BuildingBlock: CIFDUS_clean_linker_0, # of connection points: 2
#     Edge 31, Type (0, 0), BuildingBlock: CIFDUS_clean_linker_0, # of connection points: 2
#     Edge 32, Type (0, 0), BuildingBlock: CIFDUS_clean_linker_0, # of connection points: 2
#     Edge 33, Type (0, 0), BuildingBlock: CIFDUS_clean_linker_0, # of connection points: 2
#     Edge 34, Type (0, 0), BuildingBlock: CIFDUS_clean_linker_0, # of connection points: 2
#     Edge 35, Type (0, 0), BuildingBlock: CIFDUS_clean_linker_0, # of connection points: 2
#     Edge 36, Type (0, 0), BuildingBlock: CIFDUS_clean_linker_0, # of connection points: 2
#     Edge 37, Type (0, 0), BuildingBlock: CIFDUS_clean_linker_0, # of connection points: 2
#     Edge 38, Type (0, 0), BuildingBlock: CIFDUS_clean_linker_0, # of connection points: 2
#     Edge 39, Type (0, 0), BuildingBlock: CIFDUS_clean_linker_0, # of connection points: 2
#     Edge 40, Type (0, 0), BuildingBlock: CIFDUS_clean_linker_0, # of connection points: 2
#     Edge 41, Type (0, 0), BuildingBlock: CIFDUS_clean_linker_0, # of connection points: 2
#     Edge 42, Type (0, 0), BuildingBlock: CIFDUS_clean_linker_0, # of connection points: 2
#     Edge 43, Type (0, 0), BuildingBlock: CIFDUS_clean_linker_0, # of connection points: 2
#     Edge 44, Type (0, 0), BuildingBlock: CIFDUS_clean_linker_0, # of connection points: 2
#     Edge 45, Type (0, 0), BuildingBlock: CIFDUS_clean_linker_0, # of connection points: 2
#     Edge 46, Type (0, 0), BuildingBlock: CIFDUS_clean_linker_0, # of connection points: 2
#     Edge 47, Type (0, 0), BuildingBlock: CIFDUS_clean_linker_0, # of connection points: 2
# Relax obj value: 0.062
# Max RMSD: 0.174
# Mean RMSD: 0.174
data_MOF--net-wme--node1-KUMJIN_clean_sbu_1--edge1-CIFDUS_clean_linker_0
_symmetry_space_group_name_H-M    P1
_symmetry_Int_Tables_number       1
_symmetry_cell_setting            triclinic
loop_
_symmetry_equiv_pos_as_xyz
'x, y, z'
_cell_length_a     35.775735
_cell_length_b     35.781142
_cell_length_c     46.800256
_cell_angle_alpha  89.937319
_cell_angle_beta   90.112677
_cell_angle_gamma 120.01342
loop_
_atom_site_label
_atom_site_type_symbol
_atom_site_fract_x
_atom_site_fract_y
_atom_site_fract_z
_atom_type_partial_charge
Eu0 Eu 0.25081 0.29825 0.13793 0.0
C1 C 0.10328 0.31158 0.07802 0.0
N2 N 0.1447 0.32821 0.06886 0.0
C3 C 0.12 0.30171 0.0216 0.0
C4 C 0.06839 0.28886 0.05903 0.0
C5 C 0.15357 0.32415 0.04111 0.0
C6 C 0.07723 0.28386 0.0306 0.0
C7 C 0.05298 0.30032 0.11636 0.0
C8 C 0.09572 0.31727 0.10651 0.0
C9 C 0.01825 0.27766 0.09746 0.0
C10 C 0.02593 0.27196 0.0689 0.0
Eu11 Eu 0.19862 0.36727 0.10301 0.0
N12 N 0.12993 0.33884 0.12459 0.0
C13 C 0.04632 0.3066 0.14498 0.0
C14 C 0.12355 0.34708 0.15206 0.0
C15 C 0.08176 0.33038 0.16282 0.0
H16 H 0.18651 0.3388 0.03386 0.0
H17 H 0.07692 0.33646 0.18477 0.0
H18 H 0.2282 0.2871 0.20821 0.0
H19 H 0.40246 0.33959 0.08525 0.0
H20 H 0.15032 0.36749 0.16562 0.0
H21 H 0.01399 0.29382 0.15338 0.0
H22 H 0.32426 0.31403 0.08838 0.0
H23 H 0.12712 0.29847 0.99958 0.0
H24 H 0.98526 0.26425 0.10475 0.0
H25 H 0.99875 0.25435 0.05462 0.0
H26 H 0.26729 0.31003 0.25417 0.0
H27 H 0.05132 0.26654 0.0154 0.0
H28 H 0.44781 0.36551 0.12881 0.0
N29 N 0.28517 0.31492 0.18309 0.0
C30 C 0.32877 0.333 0.18303 0.0
C31 C 0.28505 0.31718 0.23431 0.0
C32 C 0.35246 0.34494 0.2088 0.0
C33 C 0.26299 0.30508 0.20823 0.0
C34 C 0.33007 0.33775 0.23459 0.0
N35 N 0.32559 0.32505 0.13287 0.0
C36 C 0.34382 0.32487 0.10734 0.0
C37 C 0.39432 0.35299 0.1565 0.0
C38 C 0.34951 0.33736 0.15722 0.0
C39 C 0.41352 0.35398 0.13024 0.0
C40 C 0.38803 0.33937 0.1056 0.0
H41 H 0.34709 0.34661 0.25483 0.0
H42 H 0.41621 0.37206 0.22762 0.0
H43 H 0.45282 0.37877 0.18184 0.0
O44 O 0.23211 0.23737 0.11585 0.0
O45 O 0.30162 0.36859 0.12675 0.0
O46 O 0.27083 0.40657 0.1062 0.0
O47 O 0.24437 0.24226 0.16118 0.0
O48 O 0.23638 0.2927 0.09031 0.0
O49 O 0.24192 0.3554 0.07179 0.0
O50 O 0.19596 0.42488 0.11513 0.0
O51 O 0.16291 0.29302 0.1034 0.0
O52 O 0.18088 0.27767 0.1466 0.0
O53 O 0.19753 0.4113 0.07053 0.0
O54 O 0.22212 0.38321 0.14971 0.0
O55 O 0.21229 0.31835 0.16561 0.0
C56 C 0.30394 0.4041 0.11609 0.0
C57 C 0.25298 0.18964 0.1362 0.0
C58 C 0.2444 0.11739 0.13643 0.0
C59 C 0.28899 0.13585 0.13206 0.0
C60 C 0.2975 0.20748 0.13205 0.0
C61 C 0.31533 0.18063 0.12994 0.0
C62 C 0.22647 0.14447 0.13848 0.0
C63 C 0.248 0.32164 0.06982 0.0
C64 C 0.23373 0.21752 0.13879 0.0
C65 C 0.39743 0.36243 0.20807 0.0
C66 C 0.41828 0.36623 0.182 0.0
C67 C 0.15201 0.26914 0.12658 0.0
C68 C 0.16008 0.44863 0.08413 0.0
C69 C 0.13419 0.50025 0.09045 0.0
C70 C 0.09418 0.46946 0.07891 0.0
C71 C 0.12015 0.41927 0.07194 0.0
C72 C 0.16716 0.4895 0.09305 0.0
C73 C 0.08741 0.4295 0.06959 0.0
C74 C 0.21953 0.35748 0.17075 0.0
C75 C 0.1935 0.43624 0.08912 0.0
H76 H 0.3034 0.11555 0.13041 0.0
H77 H 0.31844 0.24205 0.13059 0.0
H78 H 0.34972 0.1946 0.12673 0.0
H79 H 0.19205 0.13044 0.14187 0.0
H80 H 0.06843 0.47678 0.07631 0.0
H81 H 0.11412 0.38837 0.06422 0.0
H82 H 0.19802 0.51262 0.10228 0.0
H83 H 0.05666 0.40638 0.0603 0.0
Eu84 Eu 0.95432 0.24461 0.63735 0.0
C85 C 0.79514 0.10739 0.566 0.0
N86 N 0.81875 0.1508 0.56178 0.0
C87 C 0.81818 0.14032 0.5112 0.0
C88 C 0.78256 0.07866 0.54269 0.0
C89 C 0.82989 0.16763 0.53491 0.0
C90 C 0.79452 0.09567 0.5151 0.0
C91 C 0.76014 0.04661 0.59873 0.0
C92 C 0.78402 0.09149 0.5938 0.0
C93 C 0.74745 0.01801 0.57549 0.0
C94 C 0.75862 0.03401 0.5476 0.0
Eu95 Eu 0.83459 0.19334 0.60317 0.0
N96 N 0.79787 0.11982 0.61605 0.0
C97 C 0.75017 0.03179 0.62693 0.0
C98 C 0.78697 0.10568 0.64348 0.0
C99 C 0.76347 0.06146 0.64937 0.0
H100 H 0.847 0.2021 0.53159 0.0
H101 H 0.75547 0.05028 0.6712 0.0
H102 H 0.96301 0.23399 0.70783 0.0
H103 H 0.04727 0.39021 0.57322 0.0
H104 H 0.79624 0.12831 0.66085 0.0
H105 H 0.73214 0.99755 0.63159 0.0
H106 H 1.00478 0.31223 0.58278 0.0
H107 H 0.82709 0.15372 0.48991 0.0
H108 H 0.72917 0.98343 0.57887 0.0
H109 H 0.74867 0.01161 0.52992 0.0
H110 H 0.98434 0.27922 0.75137 0.0
H111 H 0.78551 0.0747 0.49664 0.0
H112 H 0.06787 0.44193 0.61333 0.0
N113 N 0.97988 0.2862 0.67965 0.0
C114 C 1.00133 0.32977 0.6766 0.0
C115 C 0.98866 0.29388 0.7305 0.0
C116 C 0.01611 0.35725 0.70062 0.0
C117 C 0.97537 0.26814 0.70596 0.0
C118 C 1.00848 0.33867 0.72786 0.0
N119 N 0.99726 0.31922 0.62677 0.0
C120 C 1.01147 0.33427 0.59995 0.0
C121 C 0.03611 0.39185 0.64522 0.0
C122 C 1.01095 0.34685 0.64931 0.0
C123 C 0.04832 0.40761 0.6174 0.0
C124 C 0.03658 0.37857 0.5947 0.0
H125 H 0.01925 0.35863 0.74686 0.0
H126 H 0.05052 0.42383 0.71485 0.0
H127 H 0.06827 0.45415 0.66628 0.0
O128 O 1.00686 0.24161 0.61511 0.0
O129 O 0.92473 0.2894 0.63673 0.0
O130 O 0.87321 0.26559 0.6006 0.0
O131 O 0.99779 0.22935 0.66049 0.0
O132 O 0.94142 0.22624 0.59028 0.0
O133 O 0.88965 0.24034 0.57345 0.0
O134 O 0.77505 0.18583 0.62193 0.0
O135 O 0.87023 0.15502 0.60227 0.0
O136 O 0.90803 0.17259 0.6442 0.0
O137 O 0.78446 0.19346 0.5763 0.0
O138 O 0.84116 0.21022 0.65119 0.0
O139 O 0.89959 0.20548 0.66811 0.0
C140 C 0.89688 0.29366 0.62025 0.0
C141 C 0.06784 0.2535 0.64293 0.0
C142 C 0.13309 0.24772 0.64369 0.0
C143 C 0.15501 0.28779 0.65768 0.0
C144 C 0.09037 0.29372 0.65656 0.0
C145 C 0.13383 0.31078 0.66379 0.0
C146 C 0.08948 0.23092 0.63614 0.0
C147 C 0.92759 0.24261 0.57061 0.0
C148 C 0.02095 0.23245 0.6383 0.0
C149 C 0.03922 0.4022 0.69666 0.0
C150 C 0.04933 0.41947 0.66901 0.0
C151 C 0.88678 0.14459 0.62384 0.0
C152 C 0.73306 0.20985 0.59663 0.0
C153 C 0.66417 0.20779 0.60409 0.0
C154 C 0.68252 0.24963 0.59275 0.0
C155 C 0.75064 0.25167 0.58542 0.0
C156 C 0.68967 0.18798 0.60603 0.0
C157 C 0.72539 0.27131 0.58345 0.0
C158 C 0.86374 0.20666 0.67238 0.0
C159 C 0.75853 0.18764 0.5975 0.0
H160 H 0.18862 0.30145 0.66365 0.0
H161 H 0.07415 0.31139 0.66212 0.0
H162 H 0.15102 0.34167 0.67451 0.0
H163 H 0.07197 0.19957 0.62593 0.0
H164 H 0.66353 0.26546 0.59098 0.0
H165 H 0.78375 0.26899 0.57802 0.0
H166 H 0.67565 0.1555 0.61448 0.0
H167 H 0.7391 0.30351 0.57466 0.0
Eu168 Eu 0.71556 0.95067 0.1491 0.0
C169 C 0.69386 0.79738 0.06845 0.0
N170 N 0.67502 0.82199 0.06469 0.0
C171 C 0.68636 0.82374 0.01416 0.0
C172 C 0.71046 0.78564 0.04499 0.0
C173 C 0.67007 0.8343 0.03804 0.0
C174 C 0.70689 0.79954 0.01765 0.0
C175 C 0.7146 0.75713 0.10033 0.0
C176 C 0.6956 0.78293 0.0958 0.0
C177 C 0.73153 0.74576 0.07701 0.0
C178 C 0.72942 0.75992 0.04944 0.0
Eu179 Eu 0.64645 0.83554 0.10615 0.0
N180 N 0.67981 0.7952 0.1181 0.0
C181 C 0.7163 0.74382 0.12822 0.0
C182 C 0.68052 0.78166 0.14518 0.0
C183 C 0.69911 0.75608 0.15073 0.0
H184 H 0.6522 0.85092 0.03507 0.0
H185 H 0.70011 0.7458 0.17234 0.0
H186 H 0.73635 0.93687 0.21674 0.0
H187 H 0.65368 0.05102 0.10501 0.0
H188 H 0.66722 0.79112 0.16242 0.0
H189 H 0.73075 0.72407 0.1326 0.0
H190 H 0.68001 0.99916 0.1033 0.0
H191 H 0.68246 0.83368 0.99304 0.0
H192 H 0.7463 0.72599 0.08008 0.0
H193 H 0.74234 0.7506 0.03166 0.0
H194 H 0.72878 0.96008 0.26518 0.0
H195 H 0.71914 0.7911 0.99907 0.0
H196 H 0.64406 0.0775 0.15167 0.0
N197 N 0.70999 0.97128 0.19587 0.0
C198 C 0.69387 0.9983 0.19854 0.0
C199 C 0.71885 0.97105 0.24663 0.0
C200 C 0.68955 0.01281 0.22568 0.0
C201 C 0.72288 0.95781 0.21927 0.0
C202 C 0.70199 0.99857 0.24986 0.0
N203 N 0.68673 0.99746 0.14816 0.0
C204 C 0.67745 0.01173 0.12357 0.0
C205 C 0.66659 0.04115 0.17611 0.0
C206 C 0.68228 0.01208 0.17403 0.0
C207 C 0.65625 0.05523 0.15096 0.0
C208 C 0.66181 0.04052 0.12457 0.0
H209 H 0.69903 0.00889 0.27109 0.0
H210 H 0.6698 0.05275 0.24849 0.0
H211 H 0.64992 0.07771 0.20511 0.0
O212 O 0.77343 0.99322 0.1243 0.0
O213 O 0.64374 0.92892 0.14209 0.0
O214 O 0.61565 0.87723 0.10562 0.0
O215 O 0.77585 0.99643 0.17031 0.0
O216 O 0.724 0.94243 0.10205 0.0
O217 O 0.66269 0.89543 0.07836 0.0
O218 O 0.59099 0.77405 0.12033 0.0
O219 O 0.7202 0.8661 0.11215 0.0
O220 O 0.73074 0.89746 0.15609 0.0
O221 O 0.59528 0.7935 0.07639 0.0
O222 O 0.62776 0.83677 0.15322 0.0
O223 O 0.69015 0.88929 0.17473 0.0
C224 C 0.61271 0.90317 0.12421 0.0
C225 C 0.82408 0.06007 0.14532 0.0
C226 C 0.895 0.12434 0.13836 0.0
C227 C 0.87745 0.15019 0.14632 0.0
C228 C 0.80712 0.08656 0.15284 0.0
C229 C 0.83373 0.13139 0.15327 0.0
C230 C 0.86802 0.07913 0.13771 0.0
C231 C 0.69686 0.93458 0.08109 0.0
C232 C 0.79691 0.01266 0.14666 0.0
C233 C 0.67335 0.04126 0.22782 0.0
C234 C 0.66202 0.05547 0.20311 0.0
C235 C 0.7438 0.8821 0.13542 0.0
C236 C 0.56031 0.71774 0.08551 0.0
C237 C 0.50925 0.63924 0.08738 0.0
C238 C 0.53426 0.63351 0.06655 0.0
C239 C 0.58387 0.71042 0.0645 0.0
C240 C 0.52262 0.68187 0.0968 0.0
C241 C 0.57108 0.66872 0.05529 0.0
C242 C 0.64957 0.8584 0.17609 0.0
C243 C 0.57428 0.76269 0.09487 0.0
H244 H 0.89763 0.18501 0.14705 0.0
H245 H 0.7735 0.07258 0.15872 0.0
H246 H 0.8205 0.15163 0.15929 0.0
H247 H 0.88142 0.05887 0.132 0.0
H248 H 0.52469 0.60171 0.05826 0.0
H249 H 0.61191 0.73694 0.05476 0.0
H250 H 0.50386 0.68715 0.11277 0.0
H251 H 0.58953 0.66371 0.03897 0.0
Eu252 Eu 0.77367 0.71219 0.63731 0.0
C253 C 0.92176 0.70209 0.57179 0.0
N254 N 0.87882 0.67815 0.56594 0.0
C255 C 0.89355 0.69106 0.51576 0.0
C256 C 0.95203 0.72351 0.54981 0.0
C257 C 0.86487 0.66999 0.53823 0.0
C258 C 0.93718 0.71885 0.52163 0.0
C259 C 0.98045 0.72218 0.60555 0.0
C260 C 0.93593 0.70168 0.59936 0.0
C261 C 1.01048 0.74612 0.58417 0.0
C262 C 0.99625 0.74693 0.55638 0.0
Eu263 Eu 0.83302 0.6462 0.60599 0.0
N264 N 0.90618 0.67874 0.61975 0.0
C265 C 0.99343 0.7166 0.63273 0.0
C266 C 0.91855 0.67041 0.64549 0.0
C267 C 0.96234 0.68987 0.6526 0.0
H268 H 0.83147 0.64717 0.53335 0.0
H269 H 0.97206 0.68423 0.67332 0.0
H270 H 0.8189 0.7564 0.70049 0.0
H271 H 0.60364 0.62167 0.60645 0.0
H272 H 0.89437 0.64931 0.66054 0.0
H273 H 0.02734 0.73167 0.63826 0.0
H274 H 0.68239 0.66059 0.59845 0.0
H275 H 0.88204 0.68548 0.49391 0.0
H276 H 0.04481 0.76283 0.58864 0.0
H277 H 0.01977 0.76424 0.53986 0.0
H278 H 0.79557 0.7568 0.75014 0.0
H279 H 0.95939 0.73479 0.50416 0.0
H280 H 0.57495 0.61464 0.65543 0.0
N281 N 0.75532 0.71378 0.68541 0.0
C282 C 0.71241 0.69244 0.69142 0.0
C283 C 0.77191 0.73833 0.73388 0.0
C284 C 0.69769 0.69194 0.71944 0.0
C285 C 0.785 0.73785 0.70582 0.0
C286 C 0.72811 0.71486 0.74081 0.0
N287 N 0.69798 0.67535 0.64229 0.0
C288 C 0.67017 0.65824 0.61977 0.0
C289 C 0.63825 0.65062 0.67488 0.0
C290 C 0.68298 0.67245 0.66932 0.0
C291 C 0.60953 0.63187 0.65199 0.0
C292 C 0.62558 0.63589 0.6243 0.0
H293 H 0.71807 0.71529 0.76258 0.0
H294 H 0.64133 0.66842 0.74658 0.0
H295 H 0.58934 0.63193 0.70764 0.0
O296 O 0.75181 0.75729 0.62505 0.0
O297 O 0.7326 0.63705 0.63544 0.0
O298 O 0.76241 0.62044 0.59732 0.0
O299 O 0.81207 0.78118 0.64773 0.0
O300 O 0.76324 0.70198 0.59022 0.0
O301 O 0.80309 0.67178 0.57123 0.0
O302 O 0.81624 0.58214 0.62309 0.0
O303 O 0.87223 0.70831 0.63067 0.0
O304 O 0.83689 0.74019 0.61272 0.0
O305 O 0.84776 0.60228 0.58247 0.0
O306 O 0.80937 0.63263 0.65253 0.0
O307 O 0.8124 0.69567 0.66801 0.0
C308 C 0.73185 0.60893 0.61654 0.0
C309 C 0.77568 0.82117 0.65294 0.0
C310 C 0.79233 0.89515 0.6646 0.0
C311 C 0.75884 0.87762 0.68488 0.0
C312 C 0.74232 0.80507 0.67312 0.0
C313 C 0.73411 0.83311 0.689 0.0
C314 C 0.80048 0.86643 0.64848 0.0
C315 C 0.77868 0.69049 0.56859 0.0
C316 C 0.78465 0.79099 0.63657 0.0
C317 C 0.6532 0.66945 0.72514 0.0
C318 C 0.62358 0.64872 0.70295 0.0
C319 C 0.87192 0.74359 0.62409 0.0
C320 C 0.81398 0.52708 0.59265 0.0
C321 C 0.80991 0.45646 0.59564 0.0
C322 C 0.77857 0.44142 0.57385 0.0
C323 C 0.78365 0.51138 0.57042 0.0
C324 C 0.82762 0.49964 0.60498 0.0
C325 C 0.76579 0.46871 0.5613 0.0
C326 C 0.80745 0.65718 0.67294 0.0
C327 C 0.83357 0.57258 0.60201 0.0
H328 H 0.75126 0.89842 0.69739 0.0
H329 H 0.72235 0.77076 0.67653 0.0
H330 H 0.70828 0.82024 0.70455 0.0
H331 H 0.82628 0.87919 0.63287 0.0
H332 H 0.76437 0.40853 0.56617 0.0
H333 H 0.77422 0.53228 0.55982 0.0
H334 H 0.85167 0.51174 0.62183 0.0
H335 H 0.74218 0.45679 0.54423 0.0
Eu336 Eu 0.06924 0.76794 0.14153 0.0
C337 C 0.22724 0.90406 0.06516 0.0
N338 N 0.20493 0.86076 0.0606 0.0
C339 C 0.2079 0.87217 0.00993 0.0
C340 C 0.24004 0.93322 0.04201 0.0
C341 C 0.19608 0.84452 0.03347 0.0
C342 C 0.22976 0.91673 0.01421 0.0
C343 C 0.26047 0.96429 0.09828 0.0
C344 C 0.2373 0.9194 0.09305 0.0
C345 C 0.27307 0.99331 0.07526 0.0
C346 C 0.26278 0.97782 0.04724 0.0
Eu347 Eu 0.18665 0.8169 0.10175 0.0
N348 N 0.22358 0.89065 0.11506 0.0
C349 C 0.2698 0.97878 0.12654 0.0
C350 C 0.23242 0.90471 0.1426 0.0
C351 C 0.25575 0.94883 0.14879 0.0
H352 H 0.1802 0.81013 0.0298 0.0
H353 H 0.26229 0.95971 0.17075 0.0
H354 H 0.07605 0.81365 0.20496 0.0
H355 H 0.96703 0.59979 0.10902 0.0
H356 H 0.22067 0.88221 0.15986 0.0
H357 H 0.28731 0.01296 0.13142 0.0
H358 H 0.01518 0.67794 0.10197 0.0
H359 H 0.20039 0.85909 0.9885 0.0
H360 H 0.29056 0.02784 0.07894 0.0
H361 H 0.27259 1.0006 0.02972 0.0
H362 H 0.0539 0.79099 0.25511 0.0
H363 H 0.23899 0.9381 0.9959 0.0
H364 H 0.94706 0.57033 0.15801 0.0
N365 N 0.04863 0.74943 0.18955 0.0
C366 C 0.0245 0.70665 0.19554 0.0
C367 C 0.04559 0.76697 0.23856 0.0
C368 C 1.01077 0.69226 0.22366 0.0
C369 C 0.05824 0.77969 0.21028 0.0
C370 C 0.02221 0.72305 0.24535 0.0
N371 N 0.02316 0.69255 0.14619 0.0
C372 C 1.00649 0.6655 0.12327 0.0
C373 C 0.98365 0.6329 0.17831 0.0
C374 C 1.01115 0.67736 0.17317 0.0
C375 C 0.96822 0.60469 0.15495 0.0
C376 C 0.97928 0.62118 0.12727 0.0
H377 H 0.01233 0.7133 0.26725 0.0
H378 H 0.97438 0.63612 0.25058 0.0
H379 H 0.95063 0.58416 0.21085 0.0
O380 O 0.03757 0.79424 0.11468 0.0
O381 O 0.09244 0.71887 0.13656 0.0
O382 O 0.1517 0.74476 0.10588 0.0
O383 O 1.01026 0.76644 0.15566 0.0
O384 O 0.06527 0.7554 0.09384 0.0
O385 O 0.1311 0.77949 0.07018 0.0
O386 O 0.25367 0.83374 0.1127 0.0
O387 O 0.14356 0.84664 0.09856 0.0
O388 O 0.11917 0.83928 0.14392 0.0
O389 O 0.22348 0.79963 0.07305 0.0
O390 O 0.18464 0.80114 0.14973 0.0
O391 O 0.12815 0.80649 0.16948 0.0
C392 C 0.12118 0.71424 0.12147 0.0
C393 C 1.00085 0.82374 0.13985 0.0
C394 C 0.9537 0.85528 0.141 0.0
C395 C 0.9877 0.89264 0.15355 0.0
C396 C 0.0337 0.86105 0.15289 0.0
C397 C 0.02727 0.89541 0.1594 0.0
C398 C 0.96081 0.82093 0.13382 0.0
C399 C 0.08837 0.76064 0.07075 0.0
C400 C 1.00794 0.78732 0.13356 0.0
C401 C 0.98498 0.64783 0.22908 0.0
C402 C 0.97143 0.61822 0.20645 0.0
C403 C 0.13323 0.86229 0.12051 0.0
C404 C 0.2974 0.81543 0.08095 0.0
C405 C 0.37194 0.83159 0.08918 0.0
C406 C 0.37104 0.81298 0.06262 0.0
C407 C 0.29777 0.79686 0.05455 0.0
C408 C 0.33478 0.83256 0.09852 0.0
C409 C 0.33422 0.79562 0.04556 0.0
C410 C 0.16257 0.80229 0.17206 0.0
C411 C 0.25776 0.81654 0.08921 0.0
H412 H 0.98375 0.91994 0.1588 0.0
H413 H 0.06423 0.86347 0.15827 0.0
H414 H 0.053 0.92424 0.16922 0.0
H415 H 0.93506 0.79179 0.12426 0.0
H416 H 0.39897 0.81156 0.05516 0.0
H417 H 0.26978 0.78327 0.04065 0.0
H418 H 0.33517 0.84678 0.11902 0.0
H419 H 0.33394 0.78118 0.0252 0.0
Eu420 Eu 0.31225 0.07064 0.64212 0.0
C421 C 0.3228 0.22279 0.56735 0.0
N422 N 0.34369 0.20055 0.56201 0.0
C423 C 0.32702 0.19758 0.51215 0.0
C424 C 0.30266 0.23289 0.54512 0.0
C425 C 0.34696 0.18877 0.53484 0.0
C426 C 0.30452 0.21947 0.51733 0.0
C427 C 0.30321 0.26168 0.60109 0.0
C428 C 0.32291 0.23692 0.59503 0.0
C429 C 0.28246 0.27112 0.57909 0.0
C430 C 0.28207 0.25665 0.5512 0.0
Eu431 Eu 0.37576 0.18699 0.60185 0.0
N432 N 0.34242 0.22651 0.61603 0.0
C433 C 0.30498 0.27619 0.62911 0.0
C434 C 0.34571 0.24187 0.64307 0.0
C435 C 0.32664 0.26653 0.65014 0.0
H436 H 0.3657 0.17338 0.5305 0.0
H437 H 0.32864 0.27802 0.67178 0.0
H438 H 0.28757 0.07401 0.71063 0.0
H439 H 0.39466 0.99282 0.59235 0.0
H440 H 0.36287 0.23493 0.65912 0.0
H441 H 0.29001 0.29508 0.63467 0.0
H442 H 0.35916 0.03665 0.59333 0.0
H443 H 0.32946 0.18794 0.49064 0.0
H444 H 0.26676 0.28972 0.58339 0.0
H445 H 0.26624 0.26452 0.53442 0.0
H446 H 0.29822 0.04876 0.75763 0.0
H447 H 0.28945 0.22659 0.49965 0.0
H448 H 0.4072 0.96472 0.63747 0.0
N449 N 0.32024 0.04773 0.68764 0.0
C450 C 0.34107 0.02476 0.68862 0.0
C451 C 0.31041 0.04181 0.73841 0.0
C452 C 0.34752 0.00947 0.71491 0.0
C453 C 0.30463 0.05622 0.71188 0.0
C454 C 0.33209 0.01848 0.73995 0.0
N455 N 0.34943 0.03158 0.63817 0.0
C456 C 0.36252 0.02283 0.61289 0.0
C457 C 0.37681 0.99175 0.66377 0.0
C458 C 0.35567 0.0161 0.66326 0.0
C459 C 0.39075 0.98321 0.63793 0.0
C460 C 0.38356 0.99883 0.6124 0.0
H461 H 0.33652 1.00736 0.76055 0.0
H462 H 0.37414 0.97357 0.73542 0.0
H463 H 0.39966 0.95798 0.69071 0.0
O464 O 0.25465 0.02601 0.61761 0.0
O465 O 0.38634 0.10086 0.63646 0.0
O466 O 0.40384 0.14372 0.59609 0.0
O467 O 0.25673 0.01585 0.66264 0.0
O468 O 0.30005 0.07861 0.59543 0.0
O469 O 0.36033 0.12876 0.5719 0.0
O470 O 0.43426 0.24352 0.61858 0.0
O471 O 0.30234 0.15251 0.60857 0.0
O472 O 0.28986 0.1183 0.65191 0.0
O473 O 0.42405 0.23594 0.57322 0.0
O474 O 0.3932 0.18396 0.64936 0.0
O475 O 0.33196 0.12854 0.67053 0.0
C476 C 0.4138 0.12468 0.61618 0.0
C477 C 0.18856 0.99699 0.64293 0.0
C478 C 0.10948 0.95059 0.64124 0.0
C479 C 0.10564 0.98662 0.64871 0.0
C480 C 0.18326 0.03184 0.65079 0.0
C481 C 0.1422 0.02676 0.65346 0.0
C482 C 0.15145 0.95611 0.63837 0.0
C483 C 0.32604 0.08924 0.57347 0.0
C484 C 0.23282 1.00374 0.63978 0.0
C485 C 0.36887 0.98554 0.71542 0.0
C486 C 0.3834 0.97665 0.68994 0.0
C487 C 0.28057 0.13914 0.63262 0.0
C488 C 0.45915 0.30818 0.59157 0.0
C489 C 0.50688 0.38573 0.60212 0.0
C490 C 0.47652 0.39419 0.58905 0.0
C491 C 0.43047 0.31857 0.57802 0.0
C492 C 0.49807 0.34231 0.60335 0.0
C493 C 0.43892 0.36099 0.57698 0.0
C494 C 0.3709 0.16257 0.67222 0.0
C495 C 0.44754 0.26183 0.59372 0.0
H496 H 0.07421 0.98358 0.65165 0.0
H497 H 0.2109 0.06301 0.65515 0.0
H498 H 0.1387 0.05404 0.65955 0.0
H499 H 0.15525 0.9289 0.63252 0.0
H500 H 0.48237 0.42692 0.58765 0.0
H501 H 0.40137 0.29388 0.56805 0.0
H502 H 0.52095 0.33515 0.61358 0.0
H503 H 0.4162 0.36822 0.5666 0.0
Eu504 Eu 0.70723 0.76229 0.36882 0.0
C505 C 0.69207 0.90695 0.4406 0.0
N506 N 0.67253 0.86382 0.44578 0.0
C507 C 0.6866 0.87707 0.4959 0.0
C508 C 0.71027 0.93698 0.4631 0.0
C509 C 0.66913 0.84851 0.47292 0.0
C510 C 0.70735 0.92147 0.49097 0.0
C511 C 0.71689 0.96574 0.40641 0.0
C512 C 0.69525 0.92118 0.41256 0.0
C513 C 0.73452 0.99571 0.42883 0.0
C514 C 0.73122 0.98135 0.45708 0.0
Eu515 Eu 0.64315 0.81837 0.40572 0.0
N516 N 0.6796 0.89143 0.39116 0.0
C517 C 0.72116 0.97883 0.37782 0.0
C518 C 0.68344 0.90397 0.36333 0.0
C519 C 0.70438 0.94779 0.3562 0.0
H520 H 0.6522 0.81425 0.477 0.0
H521 H 0.70778 0.95758 0.33402 0.0
H522 H 0.72714 0.7792 0.29876 0.0
H523 H 0.63273 0.61217 0.43004 0.0
H524 H 0.6712 0.8803 0.34663 0.0
H525 H 0.73775 0.01275 0.37221 0.0
H526 H 0.66824 0.69091 0.42296 0.0
H527 H 0.6839 0.86482 0.51741 0.0
H528 H 0.75133 0.03007 0.42452 0.0
H529 H 0.74536 1.00482 0.4741 0.0
H530 H 0.71525 0.73621 0.25484 0.0
H531 H 0.72101 0.94339 0.50884 0.0
H532 H 0.61704 0.56402 0.38836 0.0
N533 N 0.69707 0.72426 0.32588 0.0
C534 C 0.67726 0.68064 0.32803 0.0
C535 C 0.70442 0.72019 0.27528 0.0
C536 C 0.66999 0.65488 0.30358 0.0
C537 C 0.71106 0.7444 0.30013 0.0
C538 C 0.6837 0.67522 0.27699 0.0
N539 N 0.67209 0.68745 0.37797 0.0
C540 C 0.66157 0.67032 0.40474 0.0
C541 C 0.64446 0.6165 0.3578 0.0
C542 C 0.66468 0.6617 0.35482 0.0
C543 C 0.63266 0.5986 0.38518 0.0
C544 C 0.64145 0.62567 0.40876 0.0
H545 H 0.67866 0.65655 0.2577 0.0
H546 H 0.64369 0.58949 0.28789 0.0
H547 H 0.62132 0.55589 0.33534 0.0
O548 O 0.76101 0.75849 0.38885 0.0
O549 O 0.63304 0.71889 0.36914 0.0
O550 O 0.6193 0.74716 0.40852 0.0
O551 O 0.76885 0.78735 0.34711 0.0
O552 O 0.71933 0.78407 0.41535 0.0
O553 O 0.65647 0.77448 0.43512 0.0
O554 O 0.58621 0.82244 0.39072 0.0
O555 O 0.71683 0.85797 0.40312 0.0
O556 O 0.7264 0.83186 0.36128 0.0
O557 O 0.59373 0.81153 0.43572 0.0
O558 O 0.6278 0.80037 0.358 0.0
O559 O 0.68526 0.79608 0.33782 0.0
C560 C 0.60544 0.7203 0.38708 0.0
C561 C 0.81531 0.76033 0.35801 0.0
C562 C 0.88862 0.77025 0.35643 0.0
C563 C 0.87461 0.74055 0.33344 0.0
C564 C 0.80238 0.72988 0.33602 0.0
C565 C 0.83189 0.72004 0.32391 0.0
C566 C 0.85785 0.77942 0.3687 0.0
C567 C 0.69211 0.77178 0.43673 0.0
C568 C 0.78695 0.77689 0.3673 0.0
C569 C 0.64959 0.60982 0.30644 0.0
C570 C 0.63687 0.59069 0.33347 0.0
C571 C 0.74112 0.86157 0.38111 0.0
C572 C 0.52905 0.81458 0.42412 0.0
C573 C 0.47142 0.83199 0.41627 0.0
C574 C 0.45311 0.81231 0.44251 0.0
C575 C 0.50948 0.795 0.45016 0.0
C576 C 0.50938 0.8326 0.40681 0.0
C577 C 0.47182 0.79377 0.45915 0.0
C578 C 0.64814 0.79555 0.33586 0.0
C579 C 0.5705 0.81682 0.41648 0.0
H580 H 0.89641 0.73343 0.32193 0.0
H581 H 0.76995 0.71486 0.3275 0.0
H582 H 0.82197 0.69734 0.30636 0.0
H583 H 0.86661 0.80206 0.38616 0.0
H584 H 0.4239 0.81108 0.4501 0.0
H585 H 0.52341 0.78062 0.46378 0.0
H586 H 0.52397 0.84792 0.38669 0.0
H587 H 0.45719 0.7786 0.47927 0.0
Eu588 Eu 0.9437 0.71435 0.8715 0.0
C589 C 0.78866 0.68758 0.94073 0.0
N590 N 0.81515 0.67087 0.94485 0.0
C591 C 0.8248 0.69354 0.99397 0.0
C592 C 0.7807 0.70943 0.96291 0.0
C593 C 0.83088 0.67129 0.97159 0.0
C594 C 0.80026 0.71339 0.98948 0.0
C595 C 0.73622 0.6935 0.9108 0.0
C596 C 0.7667 0.67997 0.91497 0.0
C597 C 0.72972 0.71686 0.93237 0.0
C598 C 0.75202 0.72494 0.95833 0.0
Eu599 Eu 0.82339 0.63458 0.9047 0.0
N600 N 0.77389 0.65775 0.89431 0.0
C601 C 0.71229 0.68205 0.88536 0.0
C602 C 0.74916 0.64446 0.87014 0.0
C603 C 0.71837 0.65688 0.86512 0.0
H604 H 0.84695 0.65341 0.97638 0.0
H605 H 0.69939 0.64708 0.84568 0.0
H606 H 0.93577 0.72995 0.80114 0.0
H607 H 0.04329 0.661 0.92724 0.0
H608 H 0.75378 0.6247 0.85469 0.0
H609 H 0.68846 0.69169 0.88142 0.0
H610 H 0.99244 0.68812 0.92344 0.0
H611 H 0.83816 0.69441 0.01489 0.0
H612 H 0.70675 0.72789 0.92948 0.0
H613 H 0.74578 0.74198 0.97507 0.0
H614 H 0.96384 0.71919 0.75566 0.0
H615 H 0.79498 0.72993 0.00703 0.0
H616 H 0.07278 0.64685 0.88346 0.0
N617 N 0.96698 0.70433 0.82667 0.0
C618 C 0.99534 0.6895 0.82739 0.0
C619 C 0.97266 0.71037 0.77564 0.0
C620 C 0.01243 0.68325 0.80185 0.0
C621 C 0.95642 0.71594 0.80145 0.0
C622 C 1.00037 0.69349 0.77581 0.0
N623 N 0.9919 0.68829 0.87818 0.0
C624 C 1.0045 0.68164 0.90428 0.0
C625 C 0.03779 0.66623 0.85492 0.0
C626 C 1.00822 0.68141 0.85375 0.0
C627 C 0.0502 0.65857 0.88168 0.0
C628 C 0.03357 0.66645 0.90645 0.0
H629 H 0.01288 0.68921 0.75576 0.0
H630 H 0.05478 0.6626 0.78364 0.0
H631 H 0.07672 0.64743 0.83001 0.0
O632 O 1.00823 0.76942 0.88019 0.0
O633 O 0.91888 0.64076 0.87006 0.0
O634 O 0.87327 0.6142 0.90875 0.0
O635 O 0.96515 0.77622 0.85056 0.0
O636 O 0.93964 0.71739 0.91944 0.0
O637 O 0.88194 0.65212 0.93492 0.0
O638 O 0.77557 0.57094 0.88767 0.0
O639 O 0.8366 0.69499 0.88059 0.0
O640 O 0.90463 0.73792 0.89604 0.0
O641 O 0.77207 0.58671 0.93187 0.0
O642 O 0.83281 0.62446 0.85742 0.0
O643 O 0.88664 0.69157 0.84136 0.0
C644 C 0.89378 0.60865 0.88748 0.0
C645 C 0.04032 0.82769 0.84663 0.0
C646 C 0.10551 0.89942 0.84505 0.0
C647 C 0.10619 0.89504 0.81511 0.0
C648 C 0.04252 0.82425 0.81695 0.0
C649 C 0.07542 0.8576 0.80137 0.0
C650 C 0.07227 0.86495 0.86065 0.0
C651 C 0.9201 0.6877 0.93915 0.0
C652 C 1.00289 0.7952 0.86307 0.0
C653 C 0.04151 0.66774 0.80305 0.0
C654 C 0.05408 0.65919 0.82948 0.0
C655 C 0.86877 0.73375 0.88566 0.0
C656 C 0.72643 0.51289 0.91811 0.0
C657 C 0.65739 0.44607 0.9125 0.0
C658 C 0.67049 0.42644 0.93311 0.0
C659 C 0.73897 0.49285 0.93872 0.0
C660 C 0.68559 0.48932 0.90498 0.0
C661 C 0.71108 0.44971 0.94608 0.0
C662 C 0.85551 0.6516 0.83676 0.0
C663 C 0.75359 0.55901 0.91128 0.0
H664 H 0.12973 0.92092 0.8019 0.0
H665 H 0.01827 0.7965 0.80559 0.0
H666 H 0.07639 0.85493 0.77837 0.0
H667 H 0.07053 0.86713 0.88363 0.0
H668 H 0.64919 0.39315 0.93925 0.0
H669 H 0.77007 0.51058 0.94921 0.0
H670 H 0.67549 0.5048 0.88927 0.0
H671 H 0.72082 0.43434 0.96204 0.0
Eu672 Eu 0.23806 0.94181 0.36462 0.0
C673 C 0.11997 0.78568 0.4471 0.0
N674 N 0.162 0.81683 0.45025 0.0
C675 C 0.1496 0.82549 0.49946 0.0
C676 C 0.09071 0.77401 0.47003 0.0
C677 C 0.17743 0.83553 0.47618 0.0
C678 C 0.10593 0.79495 0.49629 0.0
C679 C 0.06437 0.72901 0.41801 0.0
C680 C 0.10683 0.7638 0.42129 0.0
C681 C 0.03461 0.71845 0.44038 0.0
C682 C 0.04774 0.74095 0.46632 0.0
Eu683 Eu 0.20671 0.83166 0.40985 0.0
N684 N 0.13635 0.77478 0.40003 0.0
C685 C 0.05369 0.70465 0.39284 0.0
C686 C 0.12725 0.74887 0.3767 0.0
C687 C 0.08558 0.71401 0.3724 0.0
H688 H 0.2114 0.85698 0.47919 0.0
H689 H 0.07823 0.6942 0.35346 0.0
H690 H 0.2044 0.92216 0.29634 0.0
H691 H 0.39994 0.04425 0.40844 0.0
H692 H 0.15223 0.75478 0.36152 0.0
H693 H 0.02149 0.67755 0.38953 0.0
H694 H 0.322 0.9917 0.41022 0.0
H695 H 0.162 0.84068 0.51997 0.0
H696 H 1.00173 0.69209 0.43815 0.0
H697 H 0.02477 0.73166 0.48367 0.0
H698 H 0.23584 0.94237 0.24797 0.0
H699 H 0.08465 0.78677 0.51449 0.0
H700 H 0.43609 0.07007 0.36172 0.0
N701 N 0.2646 0.95949 0.31755 0.0
C702 C 0.30763 0.98738 0.31488 0.0
C703 C 0.25637 0.95525 0.2666 0.0
C704 C 0.32676 1.00044 0.28767 0.0
C705 C 0.23876 0.9436 0.294 0.0
C706 C 0.30056 0.98379 0.26341 0.0
N707 N 0.31359 0.98906 0.36537 0.0
C708 C 0.33707 1.00383 0.38992 0.0
C709 C 0.37741 0.03242 0.33731 0.0
C710 C 0.33272 1.00305 0.33943 0.0
C711 C 0.40168 0.04751 0.36246 0.0
C712 C 0.3814 0.03312 0.38888 0.0
H713 H 0.31409 0.99289 0.24214 0.0
H714 H 0.38648 0.0401 0.26479 0.0
H715 H 0.43075 0.06822 0.30822 0.0
O716 O 0.22974 0.99189 0.38589 0.0
O717 O 0.28958 0.92049 0.36571 0.0
O718 O 0.27572 0.88465 0.40836 0.0
O719 O 0.21771 0.98134 0.34077 0.0
O720 O 0.2258 0.93832 0.41265 0.0
O721 O 0.24716 0.89541 0.43563 0.0
O722 O 0.21706 0.77755 0.39847 0.0
O723 O 0.15656 0.85373 0.40664 0.0
O724 O 0.1682 0.88767 0.36293 0.0
O725 O 0.22508 0.79933 0.44194 0.0
O726 O 0.21556 0.83015 0.36065 0.0
O727 O 0.19927 0.87954 0.3402 0.0
C728 C 0.29909 0.90002 0.38539 0.0
C729 C 0.23856 0.05165 0.35802 0.0
C730 C 0.23424 0.11818 0.36151 0.0
C731 C 0.27328 0.13998 0.34624 0.0
C732 C 0.27742 0.07455 0.34295 0.0
C733 C 0.29459 0.11837 0.33716 0.0
C734 C 0.21719 0.0737 0.36754 0.0
C735 C 0.24599 0.93198 0.43392 0.0
C736 C 0.21921 1.0045 0.36265 0.0
C737 C 0.37125 0.02965 0.28551 0.0
C738 C 0.39647 0.04568 0.31025 0.0
C739 C 0.14259 0.86528 0.38411 0.0
C740 C 0.19347 0.72317 0.43493 0.0
C741 C 0.16687 0.64449 0.43197 0.0
C742 C 0.14179 0.63892 0.4565 0.0
C743 C 0.16688 0.71529 0.4589 0.0
C744 C 0.19331 0.68736 0.42141 0.0
C745 C 0.14157 0.67374 0.46953 0.0
C746 C 0.2066 0.84707 0.33817 0.0
C747 C 0.2213 0.76882 0.42488 0.0
H748 H 0.2877 0.17407 0.34151 0.0
H749 H 0.29429 0.05845 0.33538 0.0
H750 H 0.32457 0.13571 0.32544 0.0
H751 H 0.1869 0.05605 0.37893 0.0
H752 H 0.12248 0.60743 0.46613 0.0
H753 H 0.16585 0.74137 0.46986 0.0
H754 H 0.2133 0.69285 0.40276 0.0
H755 H 0.12182 0.6685 0.48826 0.0
Eu756 Eu 0.30929 0.23231 0.86434 0.0
C757 C 0.35643 0.10666 0.93957 0.0
N758 N 0.3703 0.14876 0.94555 0.0
C759 C 0.3604 0.13282 0.99563 0.0
C760 C 0.34304 0.07564 0.96157 0.0
C761 C 0.37348 0.16241 0.9731 0.0
C762 C 0.34477 0.08918 0.98984 0.0
C763 C 0.34453 0.05177 0.90457 0.0
C764 C 0.35676 0.09479 0.91139 0.0
C765 C 0.32992 0.02051 0.9263 0.0
C766 C 0.32909 0.03239 0.95472 0.0
Eu767 Eu 0.39035 0.19605 0.9061 0.0
N768 N 0.37051 0.12565 0.89078 0.0
C769 C 0.34863 0.04179 0.87625 0.0
C770 C 0.37767 0.1168 0.86375 0.0
C771 C 0.36621 0.07469 0.85587 0.0
H772 H 0.38653 0.19626 0.97778 0.0
H773 H 0.3712 0.06774 0.83416 0.0
H774 H 0.2857 0.19241 0.79817 0.0
H775 H 0.36844 0.39658 0.90234 0.0
H776 H 0.3929 0.1423 0.84849 0.0
H777 H 0.33977 0.00919 0.87013 0.0
H778 H 0.34453 0.31893 0.90642 0.0
H779 H 0.36265 0.14372 0.01746 0.0
H780 H 0.32002 0.98723 0.92143 0.0
H781 H 0.31839 0.00805 0.97132 0.0
H782 H 0.28689 0.21805 0.74881 0.0
H783 H 0.33493 0.0664 0.00736 0.0
H784 H 0.37252 0.42865 0.85473 0.0
N785 N 0.31012 0.25452 0.8167 0.0
C786 C 0.32397 0.29692 0.81229 0.0
C787 C 0.29733 0.24056 0.76649 0.0
C788 C 0.3251 0.31299 0.78461 0.0
C789 C 0.29674 0.22618 0.79439 0.0
C790 C 0.3117 0.28421 0.76155 0.0
N791 N 0.3344 0.3072 0.86194 0.0
C792 C 0.34528 0.33251 0.88575 0.0
C793 C 0.34998 0.36824 0.83218 0.0
C794 C 0.33616 0.32408 0.83568 0.0
C795 C 0.36167 0.39453 0.8565 0.0
C796 C 0.3593 0.37654 0.88341 0.0
H797 H 0.31215 0.29528 0.73992 0.0
H798 H 0.34027 0.37006 0.75979 0.0
H799 H 0.36208 0.41847 0.80149 0.0
O800 O 0.25159 0.22388 0.88716 0.0
O801 O 0.38115 0.28435 0.86442 0.0
O802 O 0.39797 0.26231 0.90533 0.0
O803 O 0.2454 0.19729 0.8451 0.0
O804 O 0.31013 0.23681 0.91314 0.0
O805 O 0.359 0.22239 0.93774 0.0
O806 O 0.45224 0.20125 0.8938 0.0
O807 O 0.31806 0.14681 0.90604 0.0
O808 O 0.3024 0.16604 0.86363 0.0
O809 O 0.44586 0.22396 0.93498 0.0
O810 O 0.40351 0.21441 0.85801 0.0
O811 O 0.33606 0.19531 0.84093 0.0
C812 C 0.41006 0.28806 0.88336 0.0
C813 C 0.19491 0.21831 0.85702 0.0
C814 C 0.12158 0.20816 0.85564 0.0
C815 C 0.13538 0.23855 0.83313 0.0
C816 C 0.20767 0.25014 0.83588 0.0
C817 C 0.17802 0.2598 0.82385 0.0
C818 C 0.15185 0.19761 0.8672 0.0
C819 C 0.32831 0.23336 0.93693 0.0
C820 C 0.22546 0.20396 0.86591 0.0
C821 C 0.33913 0.35705 0.78089 0.0
C822 C 0.35152 0.38461 0.80464 0.0
C823 C 0.2912 0.1385 0.88471 0.0
C824 C 0.49364 0.19513 0.93217 0.0
C825 C 0.5397 0.16176 0.92982 0.0
C826 C 0.53924 0.16013 0.95985 0.0
C827 C 0.49421 0.19259 0.96216 0.0
C828 C 0.51712 0.17995 0.91593 0.0
C829 C 0.51683 0.17539 0.97575 0.0
C830 C 0.37734 0.20966 0.83653 0.0
C831 C 0.47015 0.21546 0.91863 0.0
H832 H 0.1132 0.24605 0.82229 0.0
H833 H 0.2403 0.2665 0.82786 0.0
H834 H 0.18797 0.28344 0.80687 0.0
H835 H 0.14219 0.17352 0.88388 0.0
H836 H 0.55647 0.1469 0.97118 0.0
H837 H 0.47733 0.20423 0.97536 0.0
H838 H 0.51733 0.1817 0.89281 0.0
H839 H 0.517 0.17384 0.99885 0.0
Eu840 Eu 0.06121 0.30132 0.37569 0.0
C841 C 0.23408 0.32384 0.42164 0.0
N842 N 0.2087 0.33859 0.43262 0.0
C843 C 0.21138 0.31107 0.47882 0.0
C844 C 0.24761 0.30033 0.43879 0.0
C845 C 0.19851 0.33397 0.46096 0.0
C846 C 0.23561 0.29373 0.46762 0.0
C847 C 0.27248 0.31695 0.38118 0.0
C848 C 0.24614 0.33193 0.39309 0.0
C849 C 0.28508 0.29258 0.398 0.0
C850 C 0.27271 0.28432 0.42672 0.0
Eu851 Eu 0.18699 0.37542 0.40083 0.0
N852 N 0.23276 0.35493 0.37711 0.0
C853 C 0.28579 0.32728 0.35277 0.0
C854 C 0.24831 0.36761 0.35004 0.0
C855 C 0.2742 0.35328 0.3373 0.0
H856 H 0.18039 0.34785 0.46986 0.0
H857 H 0.28567 0.36279 0.31565 0.0
H858 H 0.06627 0.29896 0.30306 0.0
H859 H 0.95266 0.33543 0.4366 0.0
H860 H 0.24194 0.38972 0.33828 0.0
H861 H 0.30593 0.3163 0.34284 0.0
H862 H 0.99736 0.30166 0.42643 0.0
H863 H 0.20267 0.30686 0.5012 0.0
H864 H 0.30483 0.28039 0.38907 0.0
H865 H 0.28304 0.26583 0.43949 0.0
H866 H 0.05707 0.33645 0.26184 0.0
H867 H 0.2454 0.27587 0.48148 0.0
H868 H 0.94499 0.38096 0.39975 0.0
N869 N 0.04743 0.33013 0.33371 0.0
C870 C 0.02689 0.35301 0.33766 0.0
C871 C 0.04927 0.34218 0.28313 0.0
C872 C 0.01879 0.37336 0.31457 0.0
C873 C 0.05565 0.32189 0.30667 0.0
C874 C 0.0317 0.36892 0.28718 0.0
N875 N 0.01652 0.33046 0.38563 0.0
C876 C 0.99476 0.32243 0.41079 0.0
C877 C 0.98483 0.37196 0.36885 0.0
C878 C 1.01018 0.35247 0.36437 0.0
C879 C 0.96486 0.36664 0.39546 0.0
C880 C 0.96916 0.34102 0.41634 0.0
H881 H 0.0261 0.38404 0.26886 0.0
H882 H 0.99008 0.41176 0.30191 0.0
H883 H 0.96024 0.41046 0.34951 0.0
O884 O 0.01742 0.24053 0.39727 0.0
O885 O 0.08397 0.36843 0.39524 0.0
O886 O 0.15233 0.40494 0.3778 0.0
O887 O 1.00494 0.24986 0.35371 0.0
O888 O 0.07651 0.29656 0.42197 0.0
O889 O 0.13551 0.36188 0.43596 0.0
O890 O 0.25427 0.42816 0.39738 0.0
O891 O 0.15081 0.30198 0.40706 0.0
O892 O 0.10824 0.27692 0.3675 0.0
O893 O 0.21262 0.4304 0.43052 0.0
O894 O 0.17407 0.3793 0.35265 0.0
O895 O 0.11333 0.31309 0.34366 0.0
C896 C 0.11913 0.40529 0.38916 0.0
C897 C 0.98844 0.17972 0.36716 0.0
C898 C 0.94516 0.10072 0.36743 0.0
C899 C 0.97936 0.09923 0.35364 0.0
C900 C 0.02155 0.17711 0.35294 0.0
C901 C 0.0171 0.1371 0.34644 0.0
C902 C 0.95023 0.14144 0.37445 0.0
C903 C 0.09713 0.32712 0.441 0.0
C904 C 0.9943 0.2224 0.3746 0.0
C905 C 0.99612 0.39548 0.31931 0.0
C906 C 0.97906 0.39467 0.3464 0.0
C907 C 0.13482 0.27438 0.38584 0.0
C908 C 0.28693 0.49155 0.42855 0.0
C909 C 0.36172 0.55167 0.42474 0.0
C910 C 0.35252 0.57381 0.44586 0.0
C911 C 0.2791 0.51463 0.44967 0.0
C912 C 0.32873 0.51011 0.41629 0.0
C913 C 0.31169 0.55533 0.45826 0.0
C914 C 0.14866 0.34785 0.33493 0.0
C915 C 0.25066 0.44951 0.41857 0.0
H916 H 0.97711 0.06864 0.34856 0.0
H917 H 0.0509 0.20599 0.3468 0.0
H918 H 0.04303 0.13545 0.33573 0.0
H919 H 0.92442 0.14344 0.38511 0.0
H920 H 0.37719 0.60551 0.45297 0.0
H921 H 0.24751 0.50146 0.45935 0.0
H922 H 0.33531 0.49291 0.39984 0.0
H923 H 0.30517 0.57283 0.4745 0.0
Eu924 Eu 0.78321 0.07026 0.86667 0.0
C925 C 0.89681 0.2228 0.95011 0.0
N926 N 0.85352 0.19537 0.95194 0.0
C927 C 0.86062 0.18682 1.00222 0.0
C928 C 0.924 0.23157 0.97406 0.0
C929 C 0.83503 0.18021 0.97802 0.0
C930 C 0.90546 0.21175 1.00008 0.0
C931 C 0.95666 0.27909 0.92349 0.0
C932 C 0.91307 0.24626 0.92524 0.0
C933 C 0.98451 0.28576 0.94653 0.0
C934 C 0.96822 0.26193 0.97177 0.0
Eu935 Eu 0.81275 0.18372 0.90921 0.0
N936 N 0.8852 0.23918 0.90346 0.0
C937 C 0.97032 0.30554 0.89921 0.0
C938 C 0.89755 0.26649 0.88057 0.0
C939 C 0.9404 0.29981 0.87795 0.0
H940 H 0.8004 0.1638 0.9804 0.0
H941 H 0.95036 0.32083 0.85949 0.0
H942 H 0.81952 0.09521 0.79889 0.0
H943 H 0.61819 0.97354 0.90697 0.0
H944 H 0.87441 0.2619 0.8641 0.0
H945 H 1.00349 0.33131 0.89713 0.0
H946 H 0.69619 0.02428 0.91057 0.0
H947 H 0.84569 0.17359 0.02265 0.0
H948 H 0.01827 0.31043 0.94549 0.0
H949 H 0.98963 0.26877 0.98986 0.0
H950 H 0.7895 0.07885 0.75008 0.0
H951 H 0.92518 0.21762 0.01898 0.0
H952 H 0.58431 0.94868 0.8595 0.0
N953 N 0.7585 0.05797 0.81907 0.0
C954 C 0.7155 0.03011 0.81558 0.0
C955 C 0.76833 0.06513 0.7683 0.0
C956 C 0.69721 0.01908 0.78798 0.0
C957 C 0.78512 0.07488 0.79602 0.0
C958 C 0.72419 0.03715 0.76425 0.0
N959 N 0.70745 0.02517 0.86606 0.0
C960 C 0.68239 0.0119 0.88998 0.0
C961 C 0.6445 0.98504 0.83648 0.0
C962 C 0.68938 0.01296 0.83964 0.0
C963 C 0.61889 0.97007 0.86105 0.0
C964 C 0.63789 0.98387 0.88789 0.0
H965 H 0.71132 0.02952 0.74273 0.0
H966 H 0.63814 0.98172 0.76383 0.0
H967 H 0.59206 0.95213 0.80623 0.0
O968 O 0.77187 1.00448 0.87336 0.0
O969 O 0.73643 0.09766 0.86284 0.0
O970 O 0.74601 0.12658 0.90721 0.0
O971 O 0.82261 0.04812 0.84493 0.0
O972 O 0.77734 0.06204 0.91403 0.0
O973 O 0.78061 0.12112 0.93794 0.0
O974 O 0.79711 0.2324 0.89313 0.0
O975 O 0.86662 0.17785 0.88924 0.0
O976 O 0.84621 0.10639 0.89293 0.0
O977 O 0.79613 0.22143 0.93803 0.0
O978 O 0.80536 0.18184 0.85943 0.0
O979 O 0.82581 0.13269 0.84455 0.0
C980 C 0.72473 0.11521 0.88326 0.0
C981 C 0.79744 0.97298 0.83891 0.0
C982 C 0.80232 0.90717 0.8335 0.0
C983 C 0.79015 0.9052 0.80468 0.0
C984 C 0.78505 0.96978 0.81017 0.0
C985 C 0.78171 0.93625 0.79317 0.0
C986 C 0.8064 0.94166 0.85052 0.0
C987 C 0.77379 0.08068 0.93719 0.0
C988 C 0.80323 0.00984 0.85657 0.0
C989 C 0.65268 0.99059 0.78486 0.0
C990 C 0.62644 0.97364 0.80902 0.0
C991 C 0.87646 0.14716 0.89002 0.0
C992 C 0.82853 0.29465 0.92312 0.0
C993 C 0.85611 0.37209 0.91393 0.0
C994 C 0.89279 0.38181 0.93038 0.0
C995 C 0.86497 0.30634 0.94039 0.0
C996 C 0.8238 0.32803 0.9102 0.0
C997 C 0.89696 0.34926 0.94358 0.0
C998 C 0.81867 0.16466 0.83941 0.0
C999 C 0.79728 0.24768 0.91834 0.0
H1000 H 0.787 0.87937 0.79099 0.0
H1001 H 0.77827 0.99334 0.80075 0.0
H1002 H 0.7724 0.93421 0.77095 0.0
H1003 H 0.81581 0.94375 0.87275 0.0
H1004 H 0.91774 0.41498 0.93398 0.0
H1005 H 0.869 0.2822 0.95158 0.0
H1006 H 0.79551 0.31986 0.89736 0.0
H1007 H 0.92498 0.35739 0.95669 0.0
H1008 H 0.1515 0.91827 0.16542 0.0
H1009 H 0.14205 0.91036 0.07348 0.0
H1010 H 0.17273 0.9883 0.07035 0.0
H1011 H 0.20908 0.05984 0.09331 0.0
H1012 H 0.22058 0.06895 0.1849 0.0
H1013 H 0.18264 0.98989 0.18871 0.0
C1014 C 0.15529 0.93354 0.14477 0.0
C1015 C 0.14496 0.90849 0.1197 0.0
C1016 C 0.17388 0.97881 0.14306 0.0
C1017 C 0.15015 0.92886 0.0931 0.0
C1018 C 0.16781 0.97353 0.09126 0.0
C1019 C 0.20248 0.04431 0.11407 0.0
C1020 C 0.21718 0.06984 0.1388 0.0
C1021 C 0.18093 0.99898 0.11601 0.0
C1022 C 0.20912 0.04969 0.16563 0.0
C1023 C 0.18754 1.00457 0.16777 0.0
H1024 H 0.23039 0.15421 0.59602 0.0
H1025 H 0.26141 0.15698 0.68536 0.0
H1026 H 0.21786 0.19012 0.69684 0.0
H1027 H 0.17476 0.22285 0.68103 0.0
H1028 H 0.14186 0.21817 0.59199 0.0
H1029 H 0.18242 0.18153 0.58075 0.0
C1030 C 0.22712 0.16161 0.61803 0.0
C1031 C 0.24946 0.15363 0.63976 0.0
C1032 C 0.20198 0.18067 0.62447 0.0
C1033 C 0.24452 0.1628 0.66824 0.0
C1034 C 0.21987 0.18205 0.6748 0.0
C1035 C 0.17638 0.21356 0.65921 0.0
C1036 C 0.1557 0.22341 0.6373 0.0
C1037 C 0.19916 0.19193 0.65302 0.0
C1038 C 0.1575 0.2108 0.60916 0.0
C1039 C 0.18066 0.18989 0.60276 0.0
H1040 H 0.96191 0.16491 0.17504 0.0
H1041 H 0.9323 0.13118 0.08635 0.0
H1042 H 1.00956 0.17178 0.07452 0.0
H1043 H 0.08572 0.22012 0.08946 0.0
H1044 H 0.11401 0.25097 0.17876 0.0
H1045 H 0.03768 0.20806 0.19037 0.0
C1046 C 0.97257 0.16609 0.1532 0.0
C1047 C 0.94172 0.14512 0.13158 0.0
C1048 C 0.01689 0.18907 0.14669 0.0
C1049 C 0.95566 0.14682 0.10333 0.0
C1050 C 0.99976 0.17011 0.0966 0.0
C1051 C 0.07508 0.2171 0.11145 0.0
C1052 C 0.10563 0.23933 0.13317 0.0
C1053 C 0.03073 0.19182 0.11807 0.0
C1054 C 0.09139 0.23449 0.16161 0.0
C1055 C 0.04758 0.21001 0.16829 0.0
H1056 H 0.81409 0.94271 0.61486 0.0
H1057 H 0.82722 0.95624 0.70643 0.0
H1058 H 0.86015 0.03441 0.70207 0.0
H1059 H 0.88061 0.09908 0.67258 0.0
H1060 H 0.86694 0.08585 0.58104 0.0
H1061 H 0.83947 0.00834 0.58502 0.0
C1062 C 0.82493 0.96285 0.63379 0.0
C1063 C 0.81785 0.94329 0.66095 0.0
C1064 C 0.8436 0.00817 0.63118 0.0
C1065 C 0.83176 0.97014 0.68526 0.0
C1066 C 0.85069 0.015 0.6828 0.0
C1067 C 0.87242 0.07938 0.65347 0.0
C1068 C 0.87566 0.09848 0.62656 0.0
C1069 C 0.8561 0.03442 0.65593 0.0
C1070 C 0.86453 0.07216 0.60207 0.0
C1071 C 0.84874 0.02766 0.60432 0.0
H1072 H 0.91015 0.87874 0.17745 0.0
H1073 H 0.90157 0.82626 0.09326 0.0
H1074 H 0.8355 0.82915 0.08391 0.0
H1075 H 0.78292 0.85153 0.09876 0.0
H1076 H 0.79251 0.90279 0.18371 0.0
H1077 H 0.856 0.89671 0.19315 0.0
C1078 C 0.89394 0.86801 0.15698 0.0
C1079 C 0.91124 0.85287 0.13596 0.0
C1080 C 0.85637 0.87016 0.1517 0.0
C1081 C 0.88905 0.83804 0.10986 0.0
C1082 C 0.85143 0.84002 0.10442 0.0
C1083 C 0.7985 0.86081 0.11946 0.0
C1084 C 0.78249 0.87748 0.14046 0.0
C1085 C 0.83515 0.85673 0.12504 0.0
C1086 C 0.80381 0.88995 0.16701 0.0
C1087 C 0.84024 0.88639 0.17254 0.0
H1088 H 0.94777 0.76191 0.64981 0.0
H1089 H 0.88907 0.82082 0.6005 0.0
H1090 H 0.9576 0.88912 0.60025 0.0
H1091 H 0.0344 0.93213 0.61391 0.0
H1092 H 0.09361 0.87214 0.66168 0.0
H1093 H 0.02535 0.80363 0.66132 0.0
C1094 C 0.9501 0.78931 0.63844 0.0
C1095 C 0.91327 0.7857 0.62473 0.0
C1096 C 0.98998 0.8282 0.63776 0.0
C1097 C 0.91673 0.82235 0.61113 0.0
C1098 C 0.95605 0.86144 0.61085 0.0
C1099 C 0.03247 0.90403 0.62418 0.0
C1100 C 0.06931 0.90755 0.63793 0.0
C1101 C 0.99293 0.86471 0.62403 0.0
C1102 C 0.06615 0.87048 0.6507 0.0
C1103 C 0.02692 0.83132 0.65072 0.0
H1104 H 0.08286 0.88743 0.40167 0.0
H1105 H 0.09782 0.7952 0.35188 0.0
H1106 H 0.0205 0.75382 0.34292 0.0
H1107 H 0.94935 0.74468 0.3487 0.0
H1108 H 0.93567 0.84713 0.38738 0.0
H1109 H 1.01066 0.88256 0.40212 0.0
C1110 C 0.06887 0.8581 0.38904 0.0
C1111 C 0.09556 0.84265 0.37869 0.0
C1112 C 0.02437 0.83629 0.38212 0.0
C1113 C 0.07751 0.80589 0.36137 0.0
C1114 C 0.03333 0.78271 0.35593 0.0
C1115 C 0.96216 0.77534 0.35952 0.0
C1116 C 0.93521 0.79245 0.36641 0.0
C1117 C 1.00642 0.79769 0.3661 0.0
C1118 C 0.95399 0.83166 0.38193 0.0
C1119 C 0.99759 0.85267 0.39018 0.0
H1120 H 0.18888 0.95492 0.82865 0.0
H1121 H 0.09656 0.93794 0.89408 0.0
H1122 H 0.14812 1.00763 0.91458 0.0
H1123 H 0.21756 0.07737 0.91129 0.0
H1124 H 0.3005 0.09816 0.8392 0.0
H1125 H 0.25459 0.02392 0.82378 0.0
C1126 C 0.17927 0.96637 0.84708 0.0
C1127 C 0.13815 0.94064 0.85933 0.0
C1128 C 0.20784 0.00774 0.85768 0.0
C1129 C 0.12788 0.95615 0.8841 0.0
C1130 C 0.1573 0.99651 0.89576 0.0
C1131 C 0.22558 0.06524 0.89244 0.0
C1132 C 0.26314 0.09267 0.87695 0.0
C1133 C 0.1971 0.02307 0.88239 0.0
C1134 C 0.27261 0.07719 0.85203 0.0
C1135 C 0.24609 0.03483 0.843 0.0
H1136 H 0.1455 0.21643 0.41903 0.0
H1137 H 0.17008 0.27345 0.33527 0.0
H1138 H 0.20112 0.22982 0.32004 0.0
H1139 H 0.2216 0.17531 0.33022 0.0
H1140 H 0.19713 0.11621 0.4135 0.0
H1141 H 0.16551 0.15989 0.42909 0.0
C1142 C 0.15754 0.21904 0.39745 0.0
C1143 C 0.15456 0.24764 0.37802 0.0
C1144 C 0.17533 0.19321 0.38873 0.0
C1145 C 0.17048 0.25073 0.35022 0.0
C1146 C 0.18874 0.22603 0.34161 0.0
C1147 C 0.20944 0.17193 0.35184 0.0
C1148 C 0.21202 0.14245 0.37064 0.0
C1149 C 0.19118 0.197 0.36059 0.0
C1150 C 0.19533 0.13825 0.39843 0.0
C1151 C 0.17748 0.16351 0.40743 0.0
H1152 H 0.07313 0.24687 0.8582 0.0
H1153 H 0.06623 0.12592 0.87828 0.0
H1154 H 0.99008 0.09543 0.89201 0.0
H1155 H 0.92333 0.10309 0.8961 0.0
H1156 H 0.93347 0.22116 0.86446 0.0
H1157 H 1.00912 0.25177 0.85674 0.0
C1158 C 0.05518 0.21334 0.86474 0.0
C1159 C 0.07586 0.18878 0.86636 0.0
C1160 C 1.01118 0.19528 0.87072 0.0
C1161 C 0.05168 0.14606 0.87669 0.0
C1162 C 1.00778 0.12836 0.88429 0.0
C1163 C 0.94216 0.13538 0.88744 0.0
C1164 C 0.92231 0.16061 0.88264 0.0
C1165 C 0.98676 0.15254 0.88099 0.0
C1166 C 0.9475 0.20186 0.87052 0.0
C1167 C 0.99118 0.21942 0.86549 0.0
H1168 H 0.9032 0.02978 0.33366 0.0
H1169 H 0.89581 0.07897 0.41629 0.0
H1170 H 0.8323 0.0094 0.42807 0.0
H1171 H 0.78101 0.93329 0.4156 0.0
H1172 H 0.78938 0.88553 0.33251 0.0
H1173 H 0.85142 0.95526 0.32082 0.0
C1174 C 0.88797 0.0253 0.35437 0.0
C1175 C 0.90468 0.05956 0.37415 0.0
C1176 C 0.85196 0.98517 0.36112 0.0
C1177 C 0.88364 0.05334 0.40057 0.0
C1178 C 0.84751 0.0134 0.40742 0.0
C1179 C 0.7961 0.93821 0.39483 0.0
C1180 C 0.78003 0.90404 0.37492 0.0
C1181 C 0.83167 0.97888 0.38797 0.0
C1182 C 0.80075 0.911 0.34832 0.0
C1183 C 0.83625 0.95104 0.34151 0.0
H1184 H 0.80007 0.73379 0.86113 0.0
H1185 H 0.92702 0.82054 0.8942 0.0
H1186 H 0.91744 0.88229 0.88269 0.0
H1187 H 0.87248 0.91161 0.86196 0.0
H1188 H 0.74474 0.82191 0.83091 0.0
H1189 H 0.75435 0.76135 0.84405 0.0
C1190 C 0.82537 0.76594 0.86655 0.0
C1191 C 0.86389 0.77205 0.87902 0.0
C1192 C 0.81924 0.80097 0.8604 0.0
C1193 C 0.89684 0.81456 0.88478 0.0
C1194 C 0.8913 0.84995 0.87825 0.0
C1195 C 0.84662 0.87877 0.85853 0.0
C1196 C 0.80793 0.87137 0.84528 0.0
C1197 C 0.85253 0.8436 0.86599 0.0
C1198 C 0.77487 0.82856 0.8408 0.0
C1199 C 0.78038 0.79386 0.84827 0.0
H1200 H 0.1779 0.69429 0.09615 0.0
H1201 H 0.06239 0.6378 0.14755 0.0
H1202 H 0.05685 0.56715 0.14336 0.0
H1203 H 0.08297 0.52041 0.12283 0.0
H1204 H 0.20122 0.57848 0.07437 0.0
H1205 H 0.20809 0.64959 0.08032 0.0
C1206 C 0.15136 0.66669 0.10653 0.0
C1207 C 0.11943 0.67147 0.12118 0.0
C1208 C 0.14915 0.62632 0.10474 0.0
C1209 C 0.08634 0.63515 0.13512 0.0
C1210 C 0.08344 0.59466 0.13298 0.0
C1211 C 0.11047 0.54874 0.11382 0.0
C1212 C 0.14143 0.54401 0.09797 0.0
C1213 C 0.11427 0.58969 0.11742 0.0
C1214 C 0.17712 0.58113 0.08678 0.0
C1215 C 0.18085 0.62179 0.08998 0.0
H1216 H 0.59361 0.15877 0.57149 0.0
H1217 H 0.63209 0.2087 0.65666 0.0
H1218 H 0.55633 0.18154 0.66976 0.0
H1219 H 0.47952 0.15065 0.65504 0.0
H1220 H 0.44273 0.10441 0.56885 0.0
H1221 H 0.51657 0.12185 0.55824 0.0
C1222 C 0.58515 0.16275 0.59308 0.0
C1223 C 0.61818 0.18532 0.61318 0.0
C1224 C 0.54161 0.1477 0.60022 0.0
C1225 C 0.60706 0.19101 0.64096 0.0
C1226 C 0.56377 0.17565 0.64837 0.0
C1227 C 0.48757 0.14326 0.63426 0.0
C1228 C 0.45568 0.126 0.61279 0.0
C1229 C 0.53074 0.1548 0.62799 0.0
C1230 C 0.4667 0.11749 0.58573 0.0
C1231 C 0.50901 0.12774 0.57959 0.0
H1232 H 0.4962 0.55905 0.10111 0.0
H1233 H 0.42976 0.63159 0.09603 0.0
H1234 H 0.36109 0.56584 0.10562 0.0
H1235 H 0.31914 0.48681 0.11169 0.0
H1236 H 0.38564 0.41454 0.11706 0.0
H1237 H 0.45475 0.48077 0.11081 0.0
C1238 C 0.46674 0.56061 0.1022 0.0
C1239 C 0.46838 0.60048 0.09751 0.0
C1240 C 0.42718 0.52247 0.10739 0.0
C1241 C 0.4298 0.60172 0.09967 0.0
C1242 C 0.39036 0.56393 0.10489 0.0
C1243 C 0.3487 0.48535 0.11153 0.0
C1244 C 0.34675 0.44499 0.11436 0.0
C1245 C 0.38853 0.52395 0.10815 0.0
C1246 C 0.38574 0.4445 0.11472 0.0
C1247 C 0.42543 0.48263 0.11112 0.0
H1248 H 0.89094 0.46526 0.59953 0.0
H1249 H 0.75703 0.37836 0.61937 0.0
H1250 H 0.77366 0.3223 0.63272 0.0
H1251 H 0.82375 0.29416 0.63188 0.0
H1252 H 0.95749 0.37898 0.61168 0.0
H1253 H 0.94378 0.43924 0.60517 0.0
C1254 C 0.86564 0.4343 0.60729 0.0
C1255 C 0.82265 0.42596 0.60823 0.0
C1256 C 0.8753 0.40144 0.61425 0.0
C1257 C 0.79022 0.38554 0.6182 0.0
C1258 C 0.79967 0.35333 0.62567 0.0
C1259 C 0.8501 0.32617 0.62675 0.0
C1260 C 0.8917 0.33225 0.62247 0.0
C1261 C 0.84168 0.36032 0.62275 0.0
C1262 C 0.92546 0.37369 0.6156 0.0
C1263 C 0.91739 0.40802 0.61155 0.0
H1264 H 0.53666 0.85048 0.15025 0.0
H1265 H 0.59796 0.95744 0.09185 0.0
H1266 H 0.52778 0.94911 0.07927 0.0
H1267 H 0.44835 0.90396 0.07913 0.0
H1268 H 0.38636 0.79501 0.13587 0.0
H1269 H 0.45684 0.81145 0.15511 0.0
C1270 C 0.53459 0.87286 0.13556 0.0
C1271 C 0.5725 0.90527 0.1225 0.0
C1272 C 0.49379 0.86697 0.12784 0.0
C1273 C 0.56945 0.93321 0.10282 0.0
C1274 C 0.52919 0.92802 0.09534 0.0
C1275 C 0.45033 0.88487 0.09646 0.0
C1276 C 0.41224 0.84869 0.10637 0.0
C1277 C 0.49105 0.89409 0.10695 0.0
C1278 C 0.41515 0.82349 0.12834 0.0
C1279 C 0.45552 0.83264 0.13908 0.0
H1280 H 0.65286 0.56982 0.64552 0.0
H1281 H 0.72471 0.5454 0.58162 0.0
H1282 H 0.66499 0.47289 0.57461 0.0
H1283 H 0.58938 0.41716 0.58324 0.0
H1284 H 0.51456 0.44146 0.64451 0.0
H1285 H 0.57734 0.51192 0.65588 0.0
C1286 C 0.65551 0.54863 0.63015 0.0
C1287 C 0.69384 0.56385 0.61408 0.0
C1288 C 0.62001 0.5063 0.62566 0.0
C1289 C 0.69614 0.53524 0.59438 0.0
C1290 C 0.6617 0.49339 0.59025 0.0
C1291 C 0.58723 0.43736 0.59968 0.0
C1292 C 0.54745 0.42357 0.61335 0.0
C1293 C 0.62317 0.47861 0.60542 0.0
C1294 C 0.54496 0.45091 0.63399 0.0
C1295 C 0.58083 0.49148 0.64031 0.0
H1296 H 0.33044 0.85768 0.3536 0.0
H1297 H 0.36293 0.94899 0.42223 0.0
H1298 H 0.42501 0.94144 0.43483 0.0
H1299 H 0.46216 0.89956 0.43182 0.0
H1300 H 0.42857 0.80519 0.36522 0.0
H1301 H 0.37562 0.82335 0.34606 0.0
C1302 C 0.35225 0.87716 0.37052 0.0
C1303 C 0.34262 0.9046 0.38659 0.0
C1304 C 0.38731 0.87139 0.37836 0.0
C1305 C 0.37024 0.92853 0.40912 0.0
C1306 C 0.40548 0.92378 0.41657 0.0
C1307 C 0.44428 0.88409 0.41251 0.0
C1308 C 0.44944 0.85128 0.39984 0.0
C1309 C 0.41328 0.89403 0.40212 0.0
C1310 C 0.42563 0.83096 0.37509 0.0
C1311 C 0.39498 0.84105 0.36436 0.0
H1312 H 0.58292 0.44092 0.93031 0.0
H1313 H 0.63515 0.39455 0.8657 0.0
H1314 H 0.56226 0.34554 0.84746 0.0
H1315 H 0.48304 0.30964 0.85388 0.0
H1316 H 0.43109 0.3538 0.92009 0.0
H1317 H 0.50393 0.41033 0.93344 0.0
C1318 C 0.57818 0.42059 0.91191 0.0
C1319 C 0.61404 0.4211 0.89929 0.0
C1320 C 0.53613 0.39211 0.90188 0.0
C1321 C 0.60782 0.39454 0.87563 0.0
C1322 C 0.5662 0.36652 0.86528 0.0
C1323 C 0.48782 0.33271 0.87052 0.0
C1324 C 0.45196 0.32829 0.88567 0.0
C1325 C 0.52999 0.3642 0.87868 0.0
C1326 C 0.45832 0.35733 0.90782 0.0
C1327 C 0.49998 0.38929 0.91565 0.0
H1328 H 0.09664 0.56315 0.42701 0.0
H1329 H 0.23243 0.63554 0.407 0.0
H1330 H 0.2297 0.56889 0.39097 0.0
H1331 H 0.18915 0.48855 0.38525 0.0
H1332 H 0.05536 0.41777 0.41051 0.0
H1333 H 0.05728 0.48477 0.42232 0.0
C1334 C 0.126 0.56471 0.41944 0.0
C1335 C 0.16491 0.60493 0.41873 0.0
C1336 C 0.12454 0.52606 0.41125 0.0
C1337 C 0.2019 0.60559 0.40776 0.0
C1338 C 0.20042 0.56721 0.39882 0.0
C1339 C 0.16032 0.48776 0.39319 0.0
C1340 C 0.12169 0.4475 0.39635 0.0
C1341 C 0.162 0.52701 0.40086 0.0
C1342 C 0.08513 0.44766 0.40714 0.0
C1343 C 0.0863 0.48624 0.41411 0.0
H1344 H 0.64322 0.06661 0.90336 0.0
H1345 H 0.72577 0.18482 0.85871 0.0
H1346 H 0.67328 0.209 0.86615 0.0
H1347 H 0.6078 0.20028 0.89152 0.0
H1348 H 0.5254 0.08042 0.93499 0.0
H1349 H 0.57276 0.05277 0.92126 0.0
C1350 C 0.64888 0.09684 0.89423 0.0
C1351 C 0.68812 0.12354 0.88011 0.0
C1352 C 0.6185 0.11053 0.89871 0.0
C1353 C 0.69556 0.16334 0.86925 0.0
C1354 C 0.66561 0.17734 0.87374 0.0
C1355 C 0.59953 0.16763 0.89713 0.0
C1356 C 0.56303 0.14261 0.91448 0.0
C1357 C 0.62746 0.1518 0.88928 0.0
C1358 C 0.55324 0.10047 0.92179 0.0
C1359 C 0.5805 0.08466 0.91407 0.0
H1360 H 0.40486 0.6311 0.40083 0.0
H1361 H 0.4182 0.52086 0.42082 0.0
H1362 H 0.49492 0.56157 0.40752 0.0
H1363 H 0.56044 0.63217 0.39545 0.0
H1364 H 0.54483 0.74128 0.37613 0.0
H1365 H 0.46726 0.69777 0.38369 0.0
C1366 C 0.42443 0.61576 0.40184 0.0
C1367 C 0.40592 0.57311 0.41199 0.0
C1368 C 0.46838 0.63946 0.39441 0.0
C1369 C 0.4316 0.55356 0.41296 0.0
C1370 C 0.47557 0.57699 0.40554 0.0
C1371 C 0.53974 0.64586 0.39212 0.0
C1372 C 0.55833 0.68999 0.38521 0.0
C1373 C 0.49468 0.62042 0.39691 0.0
C1374 C 0.5313 0.70756 0.38149 0.0
C1375 C 0.48688 0.68266 0.38588 0.0
H1376 H 0.82699 0.53115 0.90392 0.0
H1377 H 0.95332 0.58884 0.86569 0.0
H1378 H 0.95069 0.51908 0.86738 0.0
H1379 H 0.91512 0.44315 0.88417 0.0
H1380 H 0.78794 0.38544 0.92115 0.0
H1381 H 0.78764 0.45319 0.91468 0.0
C1382 C 0.85388 0.52846 0.89574 0.0
C1383 C 0.89082 0.56562 0.88526 0.0
C1384 C 0.85178 0.48803 0.89643 0.0
C1385 C 0.92482 0.56114 0.87416 0.0
C1386 C 0.92326 0.52114 0.87515 0.0
C1387 C 0.88695 0.44517 0.89026 0.0
C1388 C 0.8516 0.40914 0.90329 0.0
C1389 C 0.8873 0.48457 0.88683 0.0
C1390 C 0.81532 0.41231 0.91088 0.0
C1391 C 0.81542 0.45132 0.90753 0.0
H1392 H 0.20325 0.41494 0.29767 0.0
H1393 H 0.12191 0.27615 0.30319 0.0
H1394 H 0.13594 0.26851 0.25416 0.0
H1395 H 0.16847 0.29891 0.2093 0.0
H1396 H 0.25121 0.436 0.1994 0.0
H1397 H 0.23851 0.44661 0.24989 0.0
C1398 C 0.18903 0.38313 0.28814 0.0
C1399 C 0.16161 0.34628 0.3047 0.0
C1400 C 0.19687 0.37848 0.25888 0.0
C1401 C 0.1433 0.30536 0.2916 0.0
C1402 C 0.15104 0.30069 0.26323 0.0
C1403 C 0.18428 0.33127 0.21801 0.0
C1404 C 0.21135 0.36643 0.20058 0.0
C1405 C 0.17738 0.33681 0.24669 0.0
C1406 C 0.23032 0.40819 0.21235 0.0
C1407 C 0.22321 0.41417 0.24128 0.0
H1408 H 0.89796 0.19154 0.71954 0.0
H1409 H 0.79057 0.20613 0.69377 0.0
H1410 H 0.76714 0.1981 0.74402 0.0
H1411 H 0.77777 0.18467 0.796 0.0
H1412 H 0.8966 0.18852 0.81884 0.0
H1413 H 0.91789 0.1968 0.7692 0.0
C1414 C 0.87133 0.19632 0.72463 0.0
C1415 C 0.84771 0.20163 0.70258 0.0
C1416 C 0.86056 0.19587 0.75341 0.0
C1417 C 0.81007 0.20263 0.71012 0.0
C1418 C 0.79683 0.19841 0.73897 0.0
C1419 C 0.80913 0.18935 0.79016 0.0
C1420 C 0.83555 0.18589 0.81134 0.0
C1421 C 0.82206 0.19519 0.76099 0.0
C1422 C 0.87578 0.1913 0.80321 0.0
C1423 C 0.88775 0.19532 0.77467 0.0
H1424 H 0.63026 0.78288 0.20309 0.0
H1425 H 0.62974 0.90193 0.21453 0.0
H1426 H 0.62253 0.89033 0.26625 0.0
H1427 H 0.62827 0.85199 0.30852 0.0
H1428 H 0.62999 0.73355 0.29683 0.0
H1429 H 0.62408 0.73859 0.24511 0.0
C1430 C 0.62754 0.80572 0.21678 0.0
C1431 C 0.63164 0.8438 0.20509 0.0
C1432 C 0.62428 0.79918 0.2466 0.0
C1433 C 0.62746 0.87278 0.22318 0.0
C1434 C 0.62341 0.86618 0.25277 0.0
C1435 C 0.62674 0.827 0.29476 0.0
C1436 C 0.63176 0.79347 0.30639 0.0
C1437 C 0.62379 0.83046 0.26487 0.0
C1438 C 0.6282 0.76067 0.28818 0.0
C1439 C 0.62452 0.7634 0.25862 0.0
H1440 H 0.86051 0.63681 0.70377 0.0
H1441 H 0.74408 0.64313 0.71019 0.0
H1442 H 0.74671 0.64065 0.76229 0.0
H1443 H 0.78811 0.64603 0.80619 0.0
H1444 H 0.89724 0.6267 0.80001 0.0
H1445 H 0.89132 0.62379 0.74776 0.0
C1446 C 0.8353 0.63677 0.71649 0.0
C1447 C 0.80374 0.64341 0.70326 0.0
C1448 C 0.83601 0.63314 0.74654 0.0
C1449 C 0.77051 0.64166 0.7201 0.0
C1450 C 0.77161 0.6394 0.74988 0.0
C1451 C 0.80974 0.63993 0.7934 0.0
C1452 C 0.84405 0.63817 0.80667 0.0
C1453 C 0.80525 0.63692 0.76342 0.0
C1454 C 0.87147 0.6296 0.79 0.0
C1455 C 0.86801 0.62781 0.76016 0.0
H1456 H 0.12149 0.76122 0.22075 0.0
H1457 H 0.24775 0.853 0.18953 0.0
H1458 H 0.27385 0.87335 0.23859 0.0
H1459 H 0.25809 0.87064 0.29082 0.0
H1460 H 0.13196 0.77618 0.32093 0.0
H1461 H 0.10889 0.75099 0.27258 0.0
C1462 C 0.15451 0.78607 0.22469 0.0
C1463 C 0.18152 0.80776 0.20136 0.0
C1464 C 0.16955 0.79686 0.25304 0.0
C1465 C 0.22535 0.8373 0.20689 0.0
C1466 C 0.24048 0.84878 0.23508 0.0
C1467 C 0.22592 0.84381 0.28679 0.0
C1468 C 0.19696 0.82512 0.30984 0.0
C1469 C 0.21247 0.82974 0.25839 0.0
C1470 C 0.15526 0.79081 0.3041 0.0
C1471 C 0.14177 0.77664 0.27615 0.0
H1472 H 0.39197 0.15462 0.80341 0.0
H1473 H 0.39389 0.27584 0.80093 0.0
H1474 H 0.39692 0.27574 0.74862 0.0
H1475 H 0.38766 0.23485 0.70369 0.0
H1476 H 0.39467 0.11825 0.707 0.0
H1477 H 0.40077 0.12338 0.75902 0.0
C1478 C 0.39485 0.18197 0.79179 0.0
C1479 C 0.39209 0.21498 0.80629 0.0
C1480 C 0.39755 0.18212 0.76171 0.0
C1481 C 0.3953 0.24972 0.7903 0.0
C1482 C 0.39701 0.24965 0.76034 0.0
C1483 C 0.39192 0.21135 0.71562 0.0
C1484 C 0.38921 0.17527 0.70149 0.0
C1485 C 0.39638 0.21507 0.74571 0.0
C1486 C 0.39527 0.14549 0.71747 0.0
C1487 C 0.39885 0.14847 0.74725 0.0
H1488 H 0.30164 0.29308 0.9449 0.0
H1489 H 0.32331 0.20122 0.99101 0.0
H1490 H 0.2993 0.21926 0.03513 0.0
H1491 H 0.27068 0.25978 0.06049 0.0
H1492 H 0.2586 0.35912 0.0162 0.0
H1493 H 0.27994 0.33922 0.97151 0.0
C1494 C 0.30195 0.2774 0.96457 0.0
C1495 C 0.31514 0.24597 0.96429 0.0
C1496 C 0.28933 0.28909 0.99026 0.0
C1497 C 0.3143 0.22588 0.99031 0.0
C1498 C 0.3002 0.23606 0.01563 0.0
C1499 C 0.27325 0.27783 0.04128 0.0
C1500 C 0.26274 0.31121 0.04218 0.0
C1501 C 0.28758 0.26756 0.01587 0.0
C1502 C 0.26609 0.33332 0.01656 0.0
C1503 C 0.27847 0.32194 0.99089 0.0
H1504 H 0.04031 0.34983 0.46305 0.0
H1505 H 0.10543 0.27925 0.48272 0.0
H1506 H 0.05801 0.24596 0.52388 0.0
H1507 H 0.99441 0.23234 0.55212 0.0
H1508 H 0.92456 0.29783 0.53056 0.0
H1509 H 0.97553 0.33562 0.49152 0.0
C1510 C 0.04433 0.3275 0.47657 0.0
C1511 C 0.07706 0.31769 0.46999 0.0
C1512 C 0.01493 0.30629 0.49928 0.0
C1513 C 0.08162 0.28852 0.48772 0.0
C1514 C 0.05383 0.26877 0.51096 0.0
C1515 C 0.98994 0.25461 0.5388 0.0
C1516 C 0.9551 0.26178 0.54438 0.0
C1517 C 0.01965 0.27651 0.51651 0.0
C1518 C 0.95039 0.29101 0.52671 0.0
C1519 C 0.97998 0.31309 0.50454 0.0
H1520 H 0.68144 0.92178 0.02305 0.0
H1521 H 0.74789 0.02253 0.08529 0.0
H1522 H 0.77367 0.07679 0.04789 0.0
H1523 H 0.7803 0.09627 0.99651 0.0
H1524 H 0.72699 0.99269 0.93476 0.0
H1525 H 0.69401 0.94038 0.97225 0.0
C1526 C 0.70124 0.95546 0.02858 0.0
C1527 C 0.71134 0.96739 0.0574 0.0
C1528 C 0.71865 0.98681 0.00661 0.0
C1529 C 0.73846 0.01169 0.06358 0.0
C1530 C 0.75358 0.04315 0.04203 0.0
C1531 C 0.76103 0.06258 0.99108 0.0
C1532 C 0.75478 0.04984 0.96213 0.0
C1533 C 0.7442 0.03122 0.01327 0.0
C1534 C 0.73116 1.00493 0.95634 0.0
C1535 C 0.71237 0.97424 0.97799 0.0
H1536 H 0.7064 0.69387 0.55528 0.0
H1537 H 0.82367 0.7112 0.51735 0.0
H1538 H 0.80711 0.73724 0.47335 0.0
H1539 H 0.76134 0.75973 0.44684 0.0
H1540 H 0.64453 0.74256 0.48597 0.0
H1541 H 0.65959 0.71292 0.52857 0.0
C1542 C 0.72828 0.70268 0.53738 0.0
C1543 C 0.76616 0.69966 0.53985 0.0
C1544 C 0.71902 0.71874 0.51247 0.0
C1545 C 0.79381 0.71169 0.51611 0.0
C1546 C 0.7846 0.72738 0.49101 0.0
C1547 C 0.73905 0.74954 0.46463 0.0
C1548 C 0.70195 0.75417 0.46306 0.0
C1549 C 0.74764 0.73178 0.48913 0.0
C1550 C 0.67356 0.74024 0.48646 0.0
C1551 C 0.68203 0.72293 0.51085 0.0
H1552 H 0.996 0.75863 0.95507 0.0
H1553 H 0.90278 0.63079 0.98414 0.0
H1554 H 0.94752 0.6408 0.02641 0.0
H1555 H 0.01351 0.68625 0.05516 0.0
H1556 H 0.10688 0.81269 0.02457 0.0
H1557 H 0.06241 0.80216 0.98237 0.0
C1558 C 0.98504 0.73275 0.9706 0.0
C1559 C 0.94531 0.69403 0.96629 0.0
C1560 C 0.01159 0.73823 0.99439 0.0
C1561 C 0.93251 0.66117 0.98686 0.0
C1562 C 0.95842 0.66677 0.01098 0.0
C1563 C 0.02435 0.7114 0.03924 0.0
C1564 C 0.06415 0.75011 0.04307 0.0
C1565 C 0.99812 0.70517 0.01497 0.0
C1566 C 0.07741 0.7821 0.02189 0.0
C1567 C 0.0515 0.77633 0.99792 0.0
H1568 H 0.25569 0.92405 0.49255 0.0
H1569 H 0.27881 0.01917 0.42801 0.0
H1570 H 0.30985 0.07612 0.46354 0.0
H1571 H 0.32902 0.10006 0.5141 0.0
H1572 H 0.28876 1.00214 0.57918 0.0
H1573 H 0.26632 0.94652 0.54308 0.0
C1574 C 0.26721 0.95697 0.48605 0.0
C1575 C 0.26501 0.96638 0.45699 0.0
C1576 C 0.28262 0.98994 0.50718 0.0
C1577 C 0.27997 0.01002 0.44982 0.0
C1578 C 0.29798 0.04311 0.47032 0.0
C1579 C 0.31593 0.06672 0.52042 0.0
C1580 C 0.31303 0.05628 0.54978 0.0
C1581 C 0.29941 0.03363 0.49924 0.0
C1582 C 0.29352 0.01213 0.55707 0.0
C1583 C 0.28009 0.97979 0.53627 0.0
loop_
_geom_bond_atom_site_label_1
_geom_bond_atom_site_label_2
_geom_bond_distance
_geom_bond_site_symmetry_2
_ccdc_geom_bond_type
Eu0 N29 2.600 . S
Eu0 N35 2.562 . S
Eu0 O44 2.462 . S
Eu0 O45 2.373 . S
Eu0 O47 2.432 . S
Eu0 O48 2.291 . S
Eu0 O52 2.335 . S
Eu0 O55 2.372 . S
Eu0 C64 2.787 . S
C1 N2 1.365 . S
C1 C4 1.405 . S
C1 C8 1.448 . S
N2 C1 1.365 . S
N2 C5 1.319 . S
N2 Eu11 2.600 . S
C3 C5 1.397 1_556 S
C3 C6 1.367 . S
C3 H23 0.931 . S
C4 C1 1.405 . S
C4 C6 1.403 1_554 S
C4 C10 1.439 1_455 S
C5 N2 1.319 . S
C5 C3 1.397 1_554 S
C5 H16 0.930 . S
C6 C3 1.367 . S
C6 C4 1.403 1_556 S
C6 H27 0.929 . S
C7 C8 1.430 . S
C7 C9 1.387 1_455 S
C7 C13 1.404 1_455 S
C8 C1 1.448 . S
C8 C7 1.430 . S
C8 N12 1.351 . S
C9 C7 1.387 1_655 S
C9 C10 1.374 . S
C9 H24 0.931 . S
C10 C4 1.439 1_655 S
C10 C9 1.374 . S
C10 H25 0.931 . S
Eu11 N2 2.600 . S
Eu11 N12 2.562 . S
Eu11 O46 2.335 . S
Eu11 O49 2.372 . S
Eu11 O50 2.462 . S
Eu11 O51 2.373 . S
Eu11 O53 2.432 . S
Eu11 O54 2.291 . S
Eu11 C75 2.787 . S
N12 C8 1.351 . S
N12 Eu11 2.562 . S
N12 C14 1.325 . S
C13 C7 1.404 1_655 S
C13 C15 1.366 1_655 S
C13 H21 0.930 . S
C14 N12 1.325 . S
C14 C15 1.416 . S
C14 H20 0.929 . S
C15 C13 1.366 1_455 S
C15 C14 1.416 . S
C15 H17 0.930 . S
H16 C5 0.930 . S
H17 C15 0.930 . S
H18 C33 0.930 . S
H19 C40 0.930 . S
H20 C14 0.929 . S
H21 C13 0.930 . S
H22 C36 0.929 . S
H23 C3 0.931 . S
H24 C9 0.931 . S
H25 C10 0.931 . S
H26 C31 0.931 . S
H27 C6 0.929 . S
H28 C39 0.930 . S
N29 Eu0 2.600 . S
N29 C30 1.365 . S
N29 C33 1.319 . S
C30 N29 1.365 . S
C30 C32 1.405 . S
C30 C38 1.448 . S
C31 H26 0.931 . S
C31 C33 1.397 . S
C31 C34 1.367 . S
C32 C30 1.405 . S
C32 C34 1.403 . S
C32 C65 1.439 . S
C33 H18 0.930 . S
C33 N29 1.319 . S
C33 C31 1.397 . S
C34 C31 1.367 . S
C34 C32 1.403 . S
C34 H41 0.929 . S
N35 Eu0 2.562 . S
N35 C36 1.325 . S
N35 C38 1.351 . S
C36 H22 0.929 . S
C36 N35 1.325 . S
C36 C40 1.416 . S
C37 C38 1.430 . S
C37 C39 1.404 . S
C37 C66 1.387 . S
C38 C30 1.448 . S
C38 N35 1.351 . S
C38 C37 1.430 . S
C39 H28 0.930 . S
C39 C37 1.404 . S
C39 C40 1.366 . S
C40 H19 0.930 . S
C40 C36 1.416 . S
C40 C39 1.366 . S
H41 C34 0.929 . S
H42 C65 0.931 . S
H43 C66 0.931 . S
O44 Eu0 2.462 . S
O44 C64 1.252 . S
O45 Eu0 2.373 . S
O45 C56 1.249 . S
O46 Eu11 2.335 . S
O46 C56 1.264 . S
O47 Eu0 2.432 . S
O47 C64 1.268 . S
O48 Eu0 2.291 . S
O48 C63 1.255 . S
O49 Eu11 2.372 . S
O49 C63 1.257 . S
O50 Eu11 2.462 . S
O50 C75 1.252 . S
O51 Eu11 2.373 . S
O51 C67 1.249 . S
O52 Eu0 2.335 . S
O52 C67 1.264 . S
O53 Eu11 2.432 . S
O53 C75 1.268 . S
O54 Eu11 2.291 . S
O54 C74 1.255 . S
O55 Eu0 2.372 . S
O55 C74 1.257 . S
C56 O45 1.249 . S
C56 O46 1.264 . S
C57 C60 1.382 . S
C57 C62 1.390 . S
C57 C64 1.506 . S
C58 C59 1.398 . S
C58 C62 1.392 . S
C59 C58 1.398 . S
C59 C61 1.372 . S
C59 H76 0.931 . S
C60 C57 1.382 . S
C60 C61 1.390 . S
C60 H77 0.931 . S
C61 C59 1.372 . S
C61 C60 1.390 . S
C61 H78 0.929 . S
C62 C57 1.390 . S
C62 C58 1.392 . S
C62 H79 0.930 . S
C63 O48 1.255 . S
C63 O49 1.257 . S
C64 Eu0 2.787 . S
C64 O44 1.252 . S
C64 O47 1.268 . S
C64 C57 1.506 . S
C65 C32 1.439 . S
C65 H42 0.931 . S
C65 C66 1.374 . S
C66 C37 1.387 . S
C66 H43 0.931 . S
C66 C65 1.374 . S
C67 O51 1.249 . S
C67 O52 1.264 . S
C68 C71 1.382 . S
C68 C72 1.390 . S
C68 C75 1.506 . S
C69 C70 1.398 . S
C69 C72 1.392 . S
C70 C69 1.398 . S
C70 C73 1.372 . S
C70 H80 0.931 . S
C71 C68 1.382 . S
C71 C73 1.390 . S
C71 H81 0.931 . S
C72 C68 1.390 . S
C72 C69 1.392 . S
C72 H82 0.930 . S
C73 C70 1.372 . S
C73 C71 1.390 . S
C73 H83 0.929 . S
C74 O54 1.255 . S
C74 O55 1.257 . S
C75 Eu11 2.787 . S
C75 O50 1.252 . S
C75 O53 1.268 . S
C75 C68 1.506 . S
H76 C59 0.931 . S
H77 C60 0.931 . S
H78 C61 0.929 . S
H79 C62 0.930 . S
H80 C70 0.931 . S
H81 C71 0.931 . S
H82 C72 0.930 . S
H83 C73 0.929 . S
Eu84 N113 2.600 . S
Eu84 N119 2.562 . S
Eu84 O128 2.462 . S
Eu84 O129 2.373 . S
Eu84 O131 2.432 . S
Eu84 O132 2.291 . S
Eu84 O136 2.335 . S
Eu84 O139 2.372 . S
Eu84 C148 2.787 . S
C85 N86 1.365 . S
C85 C88 1.405 . S
C85 C92 1.448 . S
N86 C85 1.365 . S
N86 C89 1.319 . S
N86 Eu95 2.600 . S
C87 C89 1.397 . S
C87 C90 1.367 . S
C87 H107 0.931 . S
C88 C85 1.405 . S
C88 C90 1.403 . S
C88 C94 1.439 1_545 S
C89 N86 1.319 . S
C89 C87 1.397 . S
C89 H100 0.930 . S
C90 C87 1.367 . S
C90 C88 1.403 . S
C90 H111 0.929 . S
C91 C92 1.430 . S
C91 C93 1.387 1_545 S
C91 C97 1.404 1_545 S
C92 C85 1.448 . S
C92 C91 1.430 . S
C92 N96 1.351 . S
C93 C91 1.387 1_565 S
C93 C94 1.374 . S
C93 H108 0.931 . S
C94 C88 1.439 1_565 S
C94 C93 1.374 . S
C94 H109 0.931 . S
Eu95 N86 2.600 . S
Eu95 N96 2.562 . S
Eu95 O130 2.335 . S
Eu95 O133 2.372 . S
Eu95 O134 2.462 . S
Eu95 O135 2.373 . S
Eu95 O137 2.432 . S
Eu95 O138 2.291 . S
Eu95 C159 2.787 . S
N96 C92 1.351 . S
N96 Eu95 2.562 . S
N96 C98 1.325 . S
C97 C91 1.404 1_565 S
C97 C99 1.366 1_565 S
C97 H105 0.930 . S
C98 N96 1.325 . S
C98 C99 1.416 . S
C98 H104 0.929 . S
C99 C97 1.366 1_545 S
C99 C98 1.416 . S
C99 H101 0.930 . S
H100 C89 0.930 . S
H101 C99 0.930 . S
H102 C117 0.930 . S
H103 C124 0.930 . S
H104 C98 0.929 . S
H105 C97 0.930 . S
H106 C120 0.929 . S
H107 C87 0.931 . S
H108 C93 0.931 . S
H109 C94 0.931 . S
H110 C115 0.931 . S
H111 C90 0.929 . S
H112 C123 0.930 . S
N113 Eu84 2.600 . S
N113 C114 1.365 . S
N113 C117 1.319 . S
C114 N113 1.365 . S
C114 C116 1.405 . S
C114 C122 1.448 . S
C115 H110 0.931 . S
C115 C117 1.397 . S
C115 C118 1.367 . S
C116 C114 1.405 . S
C116 C118 1.403 . S
C116 C149 1.439 1_655 S
C117 H102 0.930 . S
C117 N113 1.319 . S
C117 C115 1.397 . S
C118 C115 1.367 . S
C118 C116 1.403 . S
C118 H125 0.929 . S
N119 Eu84 2.562 . S
N119 C120 1.325 . S
N119 C122 1.351 . S
C120 H106 0.929 . S
C120 N119 1.325 . S
C120 C124 1.416 1_655 S
C121 C122 1.430 1_455 S
C121 C123 1.404 . S
C121 C150 1.387 . S
C122 C114 1.448 . S
C122 N119 1.351 . S
C122 C121 1.430 1_655 S
C123 H112 0.930 . S
C123 C121 1.404 . S
C123 C124 1.366 . S
C124 H103 0.930 . S
C124 C120 1.416 1_455 S
C124 C123 1.366 . S
H125 C118 0.929 . S
H126 C149 0.931 . S
H127 C150 0.931 . S
O128 Eu84 2.462 . S
O128 C148 1.252 . S
O129 Eu84 2.373 . S
O129 C140 1.249 . S
O130 Eu95 2.335 . S
O130 C140 1.264 . S
O131 Eu84 2.432 . S
O131 C148 1.268 . S
O132 Eu84 2.291 . S
O132 C147 1.255 . S
O133 Eu95 2.372 . S
O133 C147 1.257 . S
O134 Eu95 2.462 . S
O134 C159 1.252 . S
O135 Eu95 2.373 . S
O135 C151 1.249 . S
O136 Eu84 2.335 . S
O136 C151 1.264 . S
O137 Eu95 2.432 . S
O137 C159 1.268 . S
O138 Eu95 2.291 . S
O138 C158 1.255 . S
O139 Eu84 2.372 . S
O139 C158 1.257 . S
C140 O129 1.249 . S
C140 O130 1.264 . S
C141 C144 1.382 . S
C141 C146 1.390 . S
C141 C148 1.506 1_455 S
C142 C143 1.398 . S
C142 C146 1.392 . S
C143 C142 1.398 . S
C143 C145 1.372 . S
C143 H160 0.931 . S
C144 C141 1.382 . S
C144 C145 1.390 . S
C144 H161 0.931 . S
C145 C143 1.372 . S
C145 C144 1.390 . S
C145 H162 0.929 . S
C146 C141 1.390 . S
C146 C142 1.392 . S
C146 H163 0.930 . S
C147 O132 1.255 . S
C147 O133 1.257 . S
C148 Eu84 2.787 . S
C148 O128 1.252 . S
C148 O131 1.268 . S
C148 C141 1.506 1_655 S
C149 C116 1.439 1_455 S
C149 H126 0.931 . S
C149 C150 1.374 . S
C150 C121 1.387 . S
C150 H127 0.931 . S
C150 C149 1.374 . S
C151 O135 1.249 . S
C151 O136 1.264 . S
C152 C155 1.382 . S
C152 C156 1.390 . S
C152 C159 1.506 . S
C153 C154 1.398 . S
C153 C156 1.392 . S
C154 C153 1.398 . S
C154 C157 1.372 . S
C154 H164 0.931 . S
C155 C152 1.382 . S
C155 C157 1.390 . S
C155 H165 0.931 . S
C156 C152 1.390 . S
C156 C153 1.392 . S
C156 H166 0.930 . S
C157 C154 1.372 . S
C157 C155 1.390 . S
C157 H167 0.929 . S
C158 O138 1.255 . S
C158 O139 1.257 . S
C159 Eu95 2.787 . S
C159 O134 1.252 . S
C159 O137 1.268 . S
C159 C152 1.506 . S
H160 C143 0.931 . S
H161 C144 0.931 . S
H162 C145 0.929 . S
H163 C146 0.930 . S
H164 C154 0.931 . S
H165 C155 0.931 . S
H166 C156 0.930 . S
H167 C157 0.929 . S
Eu168 N197 2.600 . S
Eu168 N203 2.562 . S
Eu168 O212 2.462 . S
Eu168 O213 2.373 . S
Eu168 O215 2.432 . S
Eu168 O216 2.291 . S
Eu168 O220 2.335 . S
Eu168 O223 2.372 . S
Eu168 C232 2.787 . S
C169 N170 1.365 . S
C169 C172 1.405 . S
C169 C176 1.448 . S
N170 C169 1.365 . S
N170 C173 1.319 . S
N170 Eu179 2.600 . S
C171 C173 1.397 1_556 S
C171 C174 1.367 . S
C171 H191 0.931 . S
C172 C169 1.405 . S
C172 C174 1.403 1_554 S
C172 C178 1.439 . S
C173 N170 1.319 . S
C173 C171 1.397 1_554 S
C173 H184 0.930 . S
C174 C171 1.367 . S
C174 C172 1.403 1_556 S
C174 H195 0.929 . S
C175 C176 1.430 . S
C175 C177 1.387 . S
C175 C181 1.404 . S
C176 C169 1.448 . S
C176 C175 1.430 . S
C176 N180 1.351 . S
C177 C175 1.387 . S
C177 C178 1.374 . S
C177 H192 0.931 . S
C178 C172 1.439 . S
C178 C177 1.374 . S
C178 H193 0.931 . S
Eu179 N170 2.600 . S
Eu179 N180 2.562 . S
Eu179 O214 2.335 . S
Eu179 O217 2.372 . S
Eu179 O218 2.462 . S
Eu179 O219 2.373 . S
Eu179 O221 2.432 . S
Eu179 O222 2.291 . S
Eu179 C243 2.787 . S
N180 C176 1.351 . S
N180 Eu179 2.562 . S
N180 C182 1.325 . S
C181 C175 1.404 . S
C181 C183 1.366 . S
C181 H189 0.930 . S
C182 N180 1.325 . S
C182 C183 1.416 . S
C182 H188 0.929 . S
C183 C181 1.366 . S
C183 C182 1.416 . S
C183 H185 0.930 . S
H184 C173 0.930 . S
H185 C183 0.930 . S
H186 C201 0.930 . S
H187 C208 0.930 . S
H188 C182 0.929 . S
H189 C181 0.930 . S
H190 C204 0.929 . S
H191 C171 0.931 . S
H192 C177 0.931 . S
H193 C178 0.931 . S
H194 C199 0.931 . S
H195 C174 0.929 . S
H196 C207 0.930 . S
N197 Eu168 2.600 . S
N197 C198 1.365 . S
N197 C201 1.319 . S
C198 N197 1.365 . S
C198 C200 1.405 . S
C198 C206 1.448 . S
C199 H194 0.931 . S
C199 C201 1.397 . S
C199 C202 1.367 . S
C200 C198 1.405 . S
C200 C202 1.403 . S
C200 C233 1.439 1_565 S
C201 H186 0.930 . S
C201 N197 1.319 . S
C201 C199 1.397 . S
C202 C199 1.367 . S
C202 C200 1.403 . S
C202 H209 0.929 . S
N203 Eu168 2.562 . S
N203 C204 1.325 . S
N203 C206 1.351 . S
C204 H190 0.929 . S
C204 N203 1.325 . S
C204 C208 1.416 1_565 S
C205 C206 1.430 1_545 S
C205 C207 1.404 . S
C205 C234 1.387 . S
C206 C198 1.448 . S
C206 N203 1.351 . S
C206 C205 1.430 1_565 S
C207 H196 0.930 . S
C207 C205 1.404 . S
C207 C208 1.366 . S
C208 H187 0.930 . S
C208 C204 1.416 1_545 S
C208 C207 1.366 . S
H209 C202 0.929 . S
H210 C233 0.931 . S
H211 C234 0.931 . S
O212 Eu168 2.462 . S
O212 C232 1.252 . S
O213 Eu168 2.373 . S
O213 C224 1.249 . S
O214 Eu179 2.335 . S
O214 C224 1.264 . S
O215 Eu168 2.432 . S
O215 C232 1.268 . S
O216 Eu168 2.291 . S
O216 C231 1.255 . S
O217 Eu179 2.372 . S
O217 C231 1.257 . S
O218 Eu179 2.462 . S
O218 C243 1.252 . S
O219 Eu179 2.373 . S
O219 C235 1.249 . S
O220 Eu168 2.335 . S
O220 C235 1.264 . S
O221 Eu179 2.432 . S
O221 C243 1.268 . S
O222 Eu179 2.291 . S
O222 C242 1.255 . S
O223 Eu168 2.372 . S
O223 C242 1.257 . S
C224 O213 1.249 . S
C224 O214 1.264 . S
C225 C228 1.382 . S
C225 C230 1.390 . S
C225 C232 1.506 1_545 S
C226 C227 1.398 . S
C226 C230 1.392 . S
C227 C226 1.398 . S
C227 C229 1.372 . S
C227 H244 0.931 . S
C228 C225 1.382 . S
C228 C229 1.390 . S
C228 H245 0.931 . S
C229 C227 1.372 . S
C229 C228 1.390 . S
C229 H246 0.929 . S
C230 C225 1.390 . S
C230 C226 1.392 . S
C230 H247 0.930 . S
C231 O216 1.255 . S
C231 O217 1.257 . S
C232 Eu168 2.787 . S
C232 O212 1.252 . S
C232 O215 1.268 . S
C232 C225 1.506 1_565 S
C233 C200 1.439 1_545 S
C233 H210 0.931 . S
C233 C234 1.374 . S
C234 C205 1.387 . S
C234 H211 0.931 . S
C234 C233 1.374 . S
C235 O219 1.249 . S
C235 O220 1.264 . S
C236 C239 1.382 . S
C236 C240 1.390 . S
C236 C243 1.506 . S
C237 C238 1.398 . S
C237 C240 1.392 . S
C238 C237 1.398 . S
C238 C241 1.372 . S
C238 H248 0.931 . S
C239 C236 1.382 . S
C239 C241 1.390 . S
C239 H249 0.931 . S
C240 C236 1.390 . S
C240 C237 1.392 . S
C240 H250 0.930 . S
C241 C238 1.372 . S
C241 C239 1.390 . S
C241 H251 0.929 . S
C242 O222 1.255 . S
C242 O223 1.257 . S
C243 Eu179 2.787 . S
C243 O218 1.252 . S
C243 O221 1.268 . S
C243 C236 1.506 . S
H244 C227 0.931 . S
H245 C228 0.931 . S
H246 C229 0.929 . S
H247 C230 0.930 . S
H248 C238 0.931 . S
H249 C239 0.931 . S
H250 C240 0.930 . S
H251 C241 0.929 . S
Eu252 N281 2.600 . S
Eu252 N287 2.562 . S
Eu252 O296 2.462 . S
Eu252 O297 2.373 . S
Eu252 O299 2.432 . S
Eu252 O300 2.291 . S
Eu252 O304 2.335 . S
Eu252 O307 2.372 . S
Eu252 C316 2.787 . S
C253 N254 1.365 . S
C253 C256 1.405 . S
C253 C260 1.448 . S
N254 C253 1.365 . S
N254 C257 1.319 . S
N254 Eu263 2.600 . S
C255 C257 1.397 . S
C255 C258 1.367 . S
C255 H275 0.931 . S
C256 C253 1.405 . S
C256 C258 1.403 . S
C256 C262 1.439 1_655 S
C257 N254 1.319 . S
C257 C255 1.397 . S
C257 H268 0.930 . S
C258 C255 1.367 . S
C258 C256 1.403 . S
C258 H279 0.929 . S
C259 C260 1.430 . S
C259 C261 1.387 1_655 S
C259 C265 1.404 1_655 S
C260 C253 1.448 . S
C260 C259 1.430 . S
C260 N264 1.351 . S
C261 C259 1.387 1_455 S
C261 C262 1.374 . S
C261 H276 0.931 . S
C262 C256 1.439 1_455 S
C262 C261 1.374 . S
C262 H277 0.931 . S
Eu263 N254 2.600 . S
Eu263 N264 2.562 . S
Eu263 O298 2.335 . S
Eu263 O301 2.372 . S
Eu263 O302 2.462 . S
Eu263 O303 2.373 . S
Eu263 O305 2.432 . S
Eu263 O306 2.291 . S
Eu263 C327 2.787 . S
N264 C260 1.351 . S
N264 Eu263 2.562 . S
N264 C266 1.325 . S
C265 C259 1.404 1_455 S
C265 C267 1.366 1_455 S
C265 H273 0.930 . S
C266 N264 1.325 . S
C266 C267 1.416 . S
C266 H272 0.929 . S
C267 C265 1.366 1_655 S
C267 C266 1.416 . S
C267 H269 0.930 . S
H268 C257 0.930 . S
H269 C267 0.930 . S
H270 C285 0.930 . S
H271 C292 0.930 . S
H272 C266 0.929 . S
H273 C265 0.930 . S
H274 C288 0.929 . S
H275 C255 0.931 . S
H276 C261 0.931 . S
H277 C262 0.931 . S
H278 C283 0.931 . S
H279 C258 0.929 . S
H280 C291 0.930 . S
N281 Eu252 2.600 . S
N281 C282 1.365 . S
N281 C285 1.319 . S
C282 N281 1.365 . S
C282 C284 1.405 . S
C282 C290 1.448 . S
C283 H278 0.931 . S
C283 C285 1.397 . S
C283 C286 1.367 . S
C284 C282 1.405 . S
C284 C286 1.403 . S
C284 C317 1.439 . S
C285 H270 0.930 . S
C285 N281 1.319 . S
C285 C283 1.397 . S
C286 C283 1.367 . S
C286 C284 1.403 . S
C286 H293 0.929 . S
N287 Eu252 2.562 . S
N287 C288 1.325 . S
N287 C290 1.351 . S
C288 H274 0.929 . S
C288 N287 1.325 . S
C288 C292 1.416 . S
C289 C290 1.430 . S
C289 C291 1.404 . S
C289 C318 1.387 . S
C290 C282 1.448 . S
C290 N287 1.351 . S
C290 C289 1.430 . S
C291 H280 0.930 . S
C291 C289 1.404 . S
C291 C292 1.366 . S
C292 H271 0.930 . S
C292 C288 1.416 . S
C292 C291 1.366 . S
H293 C286 0.929 . S
H294 C317 0.931 . S
H295 C318 0.931 . S
O296 Eu252 2.462 . S
O296 C316 1.252 . S
O297 Eu252 2.373 . S
O297 C308 1.249 . S
O298 Eu263 2.335 . S
O298 C308 1.264 . S
O299 Eu252 2.432 . S
O299 C316 1.268 . S
O300 Eu252 2.291 . S
O300 C315 1.255 . S
O301 Eu263 2.372 . S
O301 C315 1.257 . S
O302 Eu263 2.462 . S
O302 C327 1.252 . S
O303 Eu263 2.373 . S
O303 C319 1.249 . S
O304 Eu252 2.335 . S
O304 C319 1.264 . S
O305 Eu263 2.432 . S
O305 C327 1.268 . S
O306 Eu263 2.291 . S
O306 C326 1.255 . S
O307 Eu252 2.372 . S
O307 C326 1.257 . S
C308 O297 1.249 . S
C308 O298 1.264 . S
C309 C312 1.382 . S
C309 C314 1.390 . S
C309 C316 1.506 . S
C310 C311 1.398 . S
C310 C314 1.392 . S
C311 C310 1.398 . S
C311 C313 1.372 . S
C311 H328 0.931 . S
C312 C309 1.382 . S
C312 C313 1.390 . S
C312 H329 0.931 . S
C313 C311 1.372 . S
C313 C312 1.390 . S
C313 H330 0.929 . S
C314 C309 1.390 . S
C314 C310 1.392 . S
C314 H331 0.930 . S
C315 O300 1.255 . S
C315 O301 1.257 . S
C316 Eu252 2.787 . S
C316 O296 1.252 . S
C316 O299 1.268 . S
C316 C309 1.506 . S
C317 C284 1.439 . S
C317 H294 0.931 . S
C317 C318 1.374 . S
C318 C289 1.387 . S
C318 H295 0.931 . S
C318 C317 1.374 . S
C319 O303 1.249 . S
C319 O304 1.264 . S
C320 C323 1.382 . S
C320 C324 1.390 . S
C320 C327 1.506 . S
C321 C322 1.398 . S
C321 C324 1.392 . S
C322 C321 1.398 . S
C322 C325 1.372 . S
C322 H332 0.931 . S
C323 C320 1.382 . S
C323 C325 1.390 . S
C323 H333 0.931 . S
C324 C320 1.390 . S
C324 C321 1.392 . S
C324 H334 0.930 . S
C325 C322 1.372 . S
C325 C323 1.390 . S
C325 H335 0.929 . S
C326 O306 1.255 . S
C326 O307 1.257 . S
C327 Eu263 2.787 . S
C327 O302 1.252 . S
C327 O305 1.268 . S
C327 C320 1.506 . S
H328 C311 0.931 . S
H329 C312 0.931 . S
H330 C313 0.929 . S
H331 C314 0.930 . S
H332 C322 0.931 . S
H333 C323 0.931 . S
H334 C324 0.930 . S
H335 C325 0.929 . S
Eu336 N365 2.600 . S
Eu336 N371 2.562 . S
Eu336 O380 2.462 . S
Eu336 O381 2.373 . S
Eu336 O383 2.432 . S
Eu336 O384 2.291 . S
Eu336 O388 2.335 . S
Eu336 O391 2.372 . S
Eu336 C400 2.787 . S
C337 N338 1.365 . S
C337 C340 1.405 . S
C337 C344 1.448 . S
N338 C337 1.365 . S
N338 C341 1.319 . S
N338 Eu347 2.600 . S
C339 C341 1.397 1_556 S
C339 C342 1.367 . S
C339 H359 0.931 . S
C340 C337 1.405 . S
C340 C342 1.403 1_554 S
C340 C346 1.439 1_565 S
C341 N338 1.319 . S
C341 C339 1.397 1_554 S
C341 H352 0.930 . S
C342 C339 1.367 . S
C342 C340 1.403 1_556 S
C342 H363 0.929 . S
C343 C344 1.430 . S
C343 C345 1.387 1_565 S
C343 C349 1.404 1_565 S
C344 C337 1.448 . S
C344 C343 1.430 . S
C344 N348 1.351 . S
C345 C343 1.387 1_545 S
C345 C346 1.374 . S
C345 H360 0.931 . S
C346 C340 1.439 1_545 S
C346 C345 1.374 . S
C346 H361 0.931 . S
Eu347 N338 2.600 . S
Eu347 N348 2.562 . S
Eu347 O382 2.335 . S
Eu347 O385 2.372 . S
Eu347 O386 2.462 . S
Eu347 O387 2.373 . S
Eu347 O389 2.432 . S
Eu347 O390 2.291 . S
Eu347 C411 2.787 . S
N348 C344 1.351 . S
N348 Eu347 2.562 . S
N348 C350 1.325 . S
C349 C343 1.404 1_545 S
C349 C351 1.366 1_545 S
C349 H357 0.930 . S
C350 N348 1.325 . S
C350 C351 1.416 . S
C350 H356 0.929 . S
C351 C349 1.366 1_565 S
C351 C350 1.416 . S
C351 H353 0.930 . S
H352 C341 0.930 . S
H353 C351 0.930 . S
H354 C369 0.930 . S
H355 C376 0.930 . S
H356 C350 0.929 . S
H357 C349 0.930 . S
H358 C372 0.929 . S
H359 C339 0.931 . S
H360 C345 0.931 . S
H361 C346 0.931 . S
H362 C367 0.931 . S
H363 C342 0.929 . S
H364 C375 0.930 . S
N365 Eu336 2.600 . S
N365 C366 1.365 . S
N365 C369 1.319 . S
C366 N365 1.365 . S
C366 C368 1.405 . S
C366 C374 1.448 . S
C367 H362 0.931 . S
C367 C369 1.397 . S
C367 C370 1.367 . S
C368 C366 1.405 . S
C368 C370 1.403 . S
C368 C401 1.439 1_455 S
C369 H354 0.930 . S
C369 N365 1.319 . S
C369 C367 1.397 . S
C370 C367 1.367 . S
C370 C368 1.403 . S
C370 H377 0.929 . S
N371 Eu336 2.562 . S
N371 C372 1.325 . S
N371 C374 1.351 . S
C372 H358 0.929 . S
C372 N371 1.325 . S
C372 C376 1.416 1_455 S
C373 C374 1.430 1_655 S
C373 C375 1.404 . S
C373 C402 1.387 . S
C374 C366 1.448 . S
C374 N371 1.351 . S
C374 C373 1.430 1_455 S
C375 H364 0.930 . S
C375 C373 1.404 . S
C375 C376 1.366 . S
C376 H355 0.930 . S
C376 C372 1.416 1_655 S
C376 C375 1.366 . S
H377 C370 0.929 . S
H378 C401 0.931 . S
H379 C402 0.931 . S
O380 Eu336 2.462 . S
O380 C400 1.252 . S
O381 Eu336 2.373 . S
O381 C392 1.249 . S
O382 Eu347 2.335 . S
O382 C392 1.264 . S
O383 Eu336 2.432 . S
O383 C400 1.268 . S
O384 Eu336 2.291 . S
O384 C399 1.255 . S
O385 Eu347 2.372 . S
O385 C399 1.257 . S
O386 Eu347 2.462 . S
O386 C411 1.252 . S
O387 Eu347 2.373 . S
O387 C403 1.249 . S
O388 Eu336 2.335 . S
O388 C403 1.264 . S
O389 Eu347 2.432 . S
O389 C411 1.268 . S
O390 Eu347 2.291 . S
O390 C410 1.255 . S
O391 Eu336 2.372 . S
O391 C410 1.257 . S
C392 O381 1.249 . S
C392 O382 1.264 . S
C393 C396 1.382 . S
C393 C398 1.390 . S
C393 C400 1.506 1_655 S
C394 C395 1.398 . S
C394 C398 1.392 . S
C395 C394 1.398 . S
C395 C397 1.372 . S
C395 H412 0.931 . S
C396 C393 1.382 . S
C396 C397 1.390 . S
C396 H413 0.931 . S
C397 C395 1.372 . S
C397 C396 1.390 . S
C397 H414 0.929 . S
C398 C393 1.390 . S
C398 C394 1.392 . S
C398 H415 0.930 . S
C399 O384 1.255 . S
C399 O385 1.257 . S
C400 Eu336 2.787 . S
C400 O380 1.252 . S
C400 O383 1.268 . S
C400 C393 1.506 1_455 S
C401 C368 1.439 1_655 S
C401 H378 0.931 . S
C401 C402 1.374 . S
C402 C373 1.387 . S
C402 H379 0.931 . S
C402 C401 1.374 . S
C403 O387 1.249 . S
C403 O388 1.264 . S
C404 C407 1.382 . S
C404 C408 1.390 . S
C404 C411 1.506 . S
C405 C406 1.398 . S
C405 C408 1.392 . S
C406 C405 1.398 . S
C406 C409 1.372 . S
C406 H416 0.931 . S
C407 C404 1.382 . S
C407 C409 1.390 . S
C407 H417 0.931 . S
C408 C404 1.390 . S
C408 C405 1.392 . S
C408 H418 0.930 . S
C409 C406 1.372 . S
C409 C407 1.390 . S
C409 H419 0.929 . S
C410 O390 1.255 . S
C410 O391 1.257 . S
C411 Eu347 2.787 . S
C411 O386 1.252 . S
C411 O389 1.268 . S
C411 C404 1.506 . S
H412 C395 0.931 . S
H413 C396 0.931 . S
H414 C397 0.929 . S
H415 C398 0.930 . S
H416 C406 0.931 . S
H417 C407 0.931 . S
H418 C408 0.930 . S
H419 C409 0.929 . S
Eu420 N449 2.600 . S
Eu420 N455 2.562 . S
Eu420 O464 2.462 . S
Eu420 O465 2.373 . S
Eu420 O467 2.432 . S
Eu420 O468 2.291 . S
Eu420 O472 2.335 . S
Eu420 O475 2.372 . S
Eu420 C484 2.787 . S
C421 N422 1.365 . S
C421 C424 1.405 . S
C421 C428 1.448 . S
N422 C421 1.365 . S
N422 C425 1.319 . S
N422 Eu431 2.600 . S
C423 C425 1.397 . S
C423 C426 1.367 . S
C423 H443 0.931 . S
C424 C421 1.405 . S
C424 C426 1.403 . S
C424 C430 1.439 . S
C425 N422 1.319 . S
C425 C423 1.397 . S
C425 H436 0.930 . S
C426 C423 1.367 . S
C426 C424 1.403 . S
C426 H447 0.929 . S
C427 C428 1.430 . S
C427 C429 1.387 . S
C427 C433 1.404 . S
C428 C421 1.448 . S
C428 C427 1.430 . S
C428 N432 1.351 . S
C429 C427 1.387 . S
C429 C430 1.374 . S
C429 H444 0.931 . S
C430 C424 1.439 . S
C430 C429 1.374 . S
C430 H445 0.931 . S
Eu431 N422 2.600 . S
Eu431 N432 2.562 . S
Eu431 O466 2.335 . S
Eu431 O469 2.372 . S
Eu431 O470 2.462 . S
Eu431 O471 2.373 . S
Eu431 O473 2.432 . S
Eu431 O474 2.291 . S
Eu431 C495 2.787 . S
N432 C428 1.351 . S
N432 Eu431 2.562 . S
N432 C434 1.325 . S
C433 C427 1.404 . S
C433 C435 1.366 . S
C433 H441 0.930 . S
C434 N432 1.325 . S
C434 C435 1.416 . S
C434 H440 0.929 . S
C435 C433 1.366 . S
C435 C434 1.416 . S
C435 H437 0.930 . S
H436 C425 0.930 . S
H437 C435 0.930 . S
H438 C453 0.930 . S
H439 C460 0.930 . S
H440 C434 0.929 . S
H441 C433 0.930 . S
H442 C456 0.929 . S
H443 C423 0.931 . S
H444 C429 0.931 . S
H445 C430 0.931 . S
H446 C451 0.931 . S
H447 C426 0.929 . S
H448 C459 0.930 . S
N449 Eu420 2.600 . S
N449 C450 1.365 . S
N449 C453 1.319 . S
C450 N449 1.365 . S
C450 C452 1.405 . S
C450 C458 1.448 . S
C451 H446 0.931 . S
C451 C453 1.397 . S
C451 C454 1.367 . S
C452 C450 1.405 . S
C452 C454 1.403 . S
C452 C485 1.439 1_545 S
C453 H438 0.930 . S
C453 N449 1.319 . S
C453 C451 1.397 . S
C454 C451 1.367 . S
C454 C452 1.403 . S
C454 H461 0.929 . S
N455 Eu420 2.562 . S
N455 C456 1.325 . S
N455 C458 1.351 . S
C456 H442 0.929 . S
C456 N455 1.325 . S
C456 C460 1.416 1_545 S
C457 C458 1.430 1_565 S
C457 C459 1.404 . S
C457 C486 1.387 . S
C458 C450 1.448 . S
C458 N455 1.351 . S
C458 C457 1.430 1_545 S
C459 H448 0.930 . S
C459 C457 1.404 . S
C459 C460 1.366 . S
C460 H439 0.930 . S
C460 C456 1.416 1_565 S
C460 C459 1.366 . S
H461 C454 0.929 . S
H462 C485 0.931 . S
H463 C486 0.931 . S
O464 Eu420 2.462 . S
O464 C484 1.252 . S
O465 Eu420 2.373 . S
O465 C476 1.249 . S
O466 Eu431 2.335 . S
O466 C476 1.264 . S
O467 Eu420 2.432 . S
O467 C484 1.268 . S
O468 Eu420 2.291 . S
O468 C483 1.255 . S
O469 Eu431 2.372 . S
O469 C483 1.257 . S
O470 Eu431 2.462 . S
O470 C495 1.252 . S
O471 Eu431 2.373 . S
O471 C487 1.249 . S
O472 Eu420 2.335 . S
O472 C487 1.264 . S
O473 Eu431 2.432 . S
O473 C495 1.268 . S
O474 Eu431 2.291 . S
O474 C494 1.255 . S
O475 Eu420 2.372 . S
O475 C494 1.257 . S
C476 O465 1.249 . S
C476 O466 1.264 . S
C477 C480 1.382 . S
C477 C482 1.390 . S
C477 C484 1.506 1_565 S
C478 C479 1.398 . S
C478 C482 1.392 . S
C479 C478 1.398 . S
C479 C481 1.372 . S
C479 H496 0.931 . S
C480 C477 1.382 . S
C480 C481 1.390 . S
C480 H497 0.931 . S
C481 C479 1.372 . S
C481 C480 1.390 . S
C481 H498 0.929 . S
C482 C477 1.390 . S
C482 C478 1.392 . S
C482 H499 0.930 . S
C483 O468 1.255 . S
C483 O469 1.257 . S
C484 Eu420 2.787 . S
C484 O464 1.252 . S
C484 O467 1.268 . S
C484 C477 1.506 1_545 S
C485 C452 1.439 1_565 S
C485 H462 0.931 . S
C485 C486 1.374 . S
C486 C457 1.387 . S
C486 H463 0.931 . S
C486 C485 1.374 . S
C487 O471 1.249 . S
C487 O472 1.264 . S
C488 C491 1.382 . S
C488 C492 1.390 . S
C488 C495 1.506 . S
C489 C490 1.398 . S
C489 C492 1.392 . S
C490 C489 1.398 . S
C490 C493 1.372 . S
C490 H500 0.931 . S
C491 C488 1.382 . S
C491 C493 1.390 . S
C491 H501 0.931 . S
C492 C488 1.390 . S
C492 C489 1.392 . S
C492 H502 0.930 . S
C493 C490 1.372 . S
C493 C491 1.390 . S
C493 H503 0.929 . S
C494 O474 1.255 . S
C494 O475 1.257 . S
C495 Eu431 2.787 . S
C495 O470 1.252 . S
C495 O473 1.268 . S
C495 C488 1.506 . S
H496 C479 0.931 . S
H497 C480 0.931 . S
H498 C481 0.929 . S
H499 C482 0.930 . S
H500 C490 0.931 . S
H501 C491 0.931 . S
H502 C492 0.930 . S
H503 C493 0.929 . S
Eu504 N533 2.600 . S
Eu504 N539 2.562 . S
Eu504 O548 2.462 . S
Eu504 O549 2.373 . S
Eu504 O551 2.432 . S
Eu504 O552 2.291 . S
Eu504 O556 2.335 . S
Eu504 O559 2.372 . S
Eu504 C568 2.787 . S
C505 N506 1.365 . S
C505 C508 1.405 . S
C505 C512 1.448 . S
N506 C505 1.365 . S
N506 C509 1.319 . S
N506 Eu515 2.600 . S
C507 C509 1.397 . S
C507 C510 1.367 . S
C507 H527 0.931 . S
C508 C505 1.405 . S
C508 C510 1.403 . S
C508 C514 1.439 1_565 S
C509 N506 1.319 . S
C509 C507 1.397 . S
C509 H520 0.930 . S
C510 C507 1.367 . S
C510 C508 1.403 . S
C510 H531 0.929 . S
C511 C512 1.430 . S
C511 C513 1.387 1_565 S
C511 C517 1.404 1_565 S
C512 C505 1.448 . S
C512 C511 1.430 . S
C512 N516 1.351 . S
C513 C511 1.387 1_545 S
C513 C514 1.374 . S
C513 H528 0.931 . S
C514 C508 1.439 1_545 S
C514 C513 1.374 . S
C514 H529 0.931 . S
Eu515 N506 2.600 . S
Eu515 N516 2.562 . S
Eu515 O550 2.335 . S
Eu515 O553 2.372 . S
Eu515 O554 2.462 . S
Eu515 O555 2.373 . S
Eu515 O557 2.432 . S
Eu515 O558 2.291 . S
Eu515 C579 2.787 . S
N516 C512 1.351 . S
N516 Eu515 2.562 . S
N516 C518 1.325 . S
C517 C511 1.404 1_545 S
C517 C519 1.366 1_545 S
C517 H525 0.930 . S
C518 N516 1.325 . S
C518 C519 1.416 . S
C518 H524 0.929 . S
C519 C517 1.366 1_565 S
C519 C518 1.416 . S
C519 H521 0.930 . S
H520 C509 0.930 . S
H521 C519 0.930 . S
H522 C537 0.930 . S
H523 C544 0.930 . S
H524 C518 0.929 . S
H525 C517 0.930 . S
H526 C540 0.929 . S
H527 C507 0.931 . S
H528 C513 0.931 . S
H529 C514 0.931 . S
H530 C535 0.931 . S
H531 C510 0.929 . S
H532 C543 0.930 . S
N533 Eu504 2.600 . S
N533 C534 1.365 . S
N533 C537 1.319 . S
C534 N533 1.365 . S
C534 C536 1.405 . S
C534 C542 1.448 . S
C535 H530 0.931 . S
C535 C537 1.397 . S
C535 C538 1.367 . S
C536 C534 1.405 . S
C536 C538 1.403 . S
C536 C569 1.439 . S
C537 H522 0.930 . S
C537 N533 1.319 . S
C537 C535 1.397 . S
C538 C535 1.367 . S
C538 C536 1.403 . S
C538 H545 0.929 . S
N539 Eu504 2.562 . S
N539 C540 1.325 . S
N539 C542 1.351 . S
C540 H526 0.929 . S
C540 N539 1.325 . S
C540 C544 1.416 . S
C541 C542 1.430 . S
C541 C543 1.404 . S
C541 C570 1.387 . S
C542 C534 1.448 . S
C542 N539 1.351 . S
C542 C541 1.430 . S
C543 H532 0.930 . S
C543 C541 1.404 . S
C543 C544 1.366 . S
C544 H523 0.930 . S
C544 C540 1.416 . S
C544 C543 1.366 . S
H545 C538 0.929 . S
H546 C569 0.931 . S
H547 C570 0.931 . S
O548 Eu504 2.462 . S
O548 C568 1.252 . S
O549 Eu504 2.373 . S
O549 C560 1.249 . S
O550 Eu515 2.335 . S
O550 C560 1.264 . S
O551 Eu504 2.432 . S
O551 C568 1.268 . S
O552 Eu504 2.291 . S
O552 C567 1.255 . S
O553 Eu515 2.372 . S
O553 C567 1.257 . S
O554 Eu515 2.462 . S
O554 C579 1.252 . S
O555 Eu515 2.373 . S
O555 C571 1.249 . S
O556 Eu504 2.335 . S
O556 C571 1.264 . S
O557 Eu515 2.432 . S
O557 C579 1.268 . S
O558 Eu515 2.291 . S
O558 C578 1.255 . S
O559 Eu504 2.372 . S
O559 C578 1.257 . S
C560 O549 1.249 . S
C560 O550 1.264 . S
C561 C564 1.382 . S
C561 C566 1.390 . S
C561 C568 1.506 . S
C562 C563 1.398 . S
C562 C566 1.392 . S
C563 C562 1.398 . S
C563 C565 1.372 . S
C563 H580 0.931 . S
C564 C561 1.382 . S
C564 C565 1.390 . S
C564 H581 0.931 . S
C565 C563 1.372 . S
C565 C564 1.390 . S
C565 H582 0.929 . S
C566 C561 1.390 . S
C566 C562 1.392 . S
C566 H583 0.930 . S
C567 O552 1.255 . S
C567 O553 1.257 . S
C568 Eu504 2.787 . S
C568 O548 1.252 . S
C568 O551 1.268 . S
C568 C561 1.506 . S
C569 C536 1.439 . S
C569 H546 0.931 . S
C569 C570 1.374 . S
C570 C541 1.387 . S
C570 H547 0.931 . S
C570 C569 1.374 . S
C571 O555 1.249 . S
C571 O556 1.264 . S
C572 C575 1.382 . S
C572 C576 1.390 . S
C572 C579 1.506 . S
C573 C574 1.398 . S
C573 C576 1.392 . S
C574 C573 1.398 . S
C574 C577 1.372 . S
C574 H584 0.931 . S
C575 C572 1.382 . S
C575 C577 1.390 . S
C575 H585 0.931 . S
C576 C572 1.390 . S
C576 C573 1.392 . S
C576 H586 0.930 . S
C577 C574 1.372 . S
C577 C575 1.390 . S
C577 H587 0.929 . S
C578 O558 1.255 . S
C578 O559 1.257 . S
C579 Eu515 2.787 . S
C579 O554 1.252 . S
C579 O557 1.268 . S
C579 C572 1.506 . S
H580 C563 0.931 . S
H581 C564 0.931 . S
H582 C565 0.929 . S
H583 C566 0.930 . S
H584 C574 0.931 . S
H585 C575 0.931 . S
H586 C576 0.930 . S
H587 C577 0.929 . S
Eu588 N617 2.600 . S
Eu588 N623 2.562 . S
Eu588 O632 2.462 . S
Eu588 O633 2.373 . S
Eu588 O635 2.432 . S
Eu588 O636 2.291 . S
Eu588 O640 2.335 . S
Eu588 O643 2.372 . S
Eu588 C652 2.787 . S
C589 N590 1.365 . S
C589 C592 1.405 . S
C589 C596 1.448 . S
N590 C589 1.365 . S
N590 C593 1.319 . S
N590 Eu599 2.600 . S
C591 C593 1.397 1_554 S
C591 C594 1.367 . S
C591 H611 0.931 . S
C592 C589 1.405 . S
C592 C594 1.403 1_556 S
C592 C598 1.439 . S
C593 N590 1.319 . S
C593 C591 1.397 1_556 S
C593 H604 0.930 . S
C594 C591 1.367 . S
C594 C592 1.403 1_554 S
C594 H615 0.929 . S
C595 C596 1.430 . S
C595 C597 1.387 . S
C595 C601 1.404 . S
C596 C589 1.448 . S
C596 C595 1.430 . S
C596 N600 1.351 . S
C597 C595 1.387 . S
C597 C598 1.374 . S
C597 H612 0.931 . S
C598 C592 1.439 . S
C598 C597 1.374 . S
C598 H613 0.931 . S
Eu599 N590 2.600 . S
Eu599 N600 2.562 . S
Eu599 O634 2.335 . S
Eu599 O637 2.372 . S
Eu599 O638 2.462 . S
Eu599 O639 2.373 . S
Eu599 O641 2.432 . S
Eu599 O642 2.291 . S
Eu599 C663 2.787 . S
N600 C596 1.351 . S
N600 Eu599 2.562 . S
N600 C602 1.325 . S
C601 C595 1.404 . S
C601 C603 1.366 . S
C601 H609 0.930 . S
C602 N600 1.325 . S
C602 C603 1.416 . S
C602 H608 0.929 . S
C603 C601 1.366 . S
C603 C602 1.416 . S
C603 H605 0.930 . S
H604 C593 0.930 . S
H605 C603 0.930 . S
H606 C621 0.930 . S
H607 C628 0.930 . S
H608 C602 0.929 . S
H609 C601 0.930 . S
H610 C624 0.929 . S
H611 C591 0.931 . S
H612 C597 0.931 . S
H613 C598 0.931 . S
H614 C619 0.931 . S
H615 C594 0.929 . S
H616 C627 0.930 . S
N617 Eu588 2.600 . S
N617 C618 1.365 . S
N617 C621 1.319 . S
C618 N617 1.365 . S
C618 C620 1.405 . S
C618 C626 1.448 . S
C619 H614 0.931 . S
C619 C621 1.397 . S
C619 C622 1.367 . S
C620 C618 1.405 . S
C620 C622 1.403 . S
C620 C653 1.439 1_655 S
C621 H606 0.930 . S
C621 N617 1.319 . S
C621 C619 1.397 . S
C622 C619 1.367 . S
C622 C620 1.403 . S
C622 H629 0.929 . S
N623 Eu588 2.562 . S
N623 C624 1.325 . S
N623 C626 1.351 . S
C624 H610 0.929 . S
C624 N623 1.325 . S
C624 C628 1.416 1_655 S
C625 C626 1.430 1_455 S
C625 C627 1.404 . S
C625 C654 1.387 . S
C626 C618 1.448 . S
C626 N623 1.351 . S
C626 C625 1.430 1_655 S
C627 H616 0.930 . S
C627 C625 1.404 . S
C627 C628 1.366 . S
C628 H607 0.930 . S
C628 C624 1.416 1_455 S
C628 C627 1.366 . S
H629 C622 0.929 . S
H630 C653 0.931 . S
H631 C654 0.931 . S
O632 Eu588 2.462 . S
O632 C652 1.252 . S
O633 Eu588 2.373 . S
O633 C644 1.249 . S
O634 Eu599 2.335 . S
O634 C644 1.264 . S
O635 Eu588 2.432 . S
O635 C652 1.268 . S
O636 Eu588 2.291 . S
O636 C651 1.255 . S
O637 Eu599 2.372 . S
O637 C651 1.257 . S
O638 Eu599 2.462 . S
O638 C663 1.252 . S
O639 Eu599 2.373 . S
O639 C655 1.249 . S
O640 Eu588 2.335 . S
O640 C655 1.264 . S
O641 Eu599 2.432 . S
O641 C663 1.268 . S
O642 Eu599 2.291 . S
O642 C662 1.255 . S
O643 Eu588 2.372 . S
O643 C662 1.257 . S
C644 O633 1.249 . S
C644 O634 1.264 . S
C645 C648 1.382 . S
C645 C650 1.390 . S
C645 C652 1.506 1_455 S
C646 C647 1.398 . S
C646 C650 1.392 . S
C647 C646 1.398 . S
C647 C649 1.372 . S
C647 H664 0.931 . S
C648 C645 1.382 . S
C648 C649 1.390 . S
C648 H665 0.931 . S
C649 C647 1.372 . S
C649 C648 1.390 . S
C649 H666 0.929 . S
C650 C645 1.390 . S
C650 C646 1.392 . S
C650 H667 0.930 . S
C651 O636 1.255 . S
C651 O637 1.257 . S
C652 Eu588 2.787 . S
C652 O632 1.252 . S
C652 O635 1.268 . S
C652 C645 1.506 1_655 S
C653 C620 1.439 1_455 S
C653 H630 0.931 . S
C653 C654 1.374 . S
C654 C625 1.387 . S
C654 H631 0.931 . S
C654 C653 1.374 . S
C655 O639 1.249 . S
C655 O640 1.264 . S
C656 C659 1.382 . S
C656 C660 1.390 . S
C656 C663 1.506 . S
C657 C658 1.398 . S
C657 C660 1.392 . S
C658 C657 1.398 . S
C658 C661 1.372 . S
C658 H668 0.931 . S
C659 C656 1.382 . S
C659 C661 1.390 . S
C659 H669 0.931 . S
C660 C656 1.390 . S
C660 C657 1.392 . S
C660 H670 0.930 . S
C661 C658 1.372 . S
C661 C659 1.390 . S
C661 H671 0.929 . S
C662 O642 1.255 . S
C662 O643 1.257 . S
C663 Eu599 2.787 . S
C663 O638 1.252 . S
C663 O641 1.268 . S
C663 C656 1.506 . S
H664 C647 0.931 . S
H665 C648 0.931 . S
H666 C649 0.929 . S
H667 C650 0.930 . S
H668 C658 0.931 . S
H669 C659 0.931 . S
H670 C660 0.930 . S
H671 C661 0.929 . S
Eu672 N701 2.600 . S
Eu672 N707 2.562 . S
Eu672 O716 2.462 . S
Eu672 O717 2.373 . S
Eu672 O719 2.432 . S
Eu672 O720 2.291 . S
Eu672 O724 2.335 . S
Eu672 O727 2.372 . S
Eu672 C736 2.787 . S
C673 N674 1.365 . S
C673 C676 1.405 . S
C673 C680 1.448 . S
N674 C673 1.365 . S
N674 C677 1.319 . S
N674 Eu683 2.600 . S
C675 C677 1.397 . S
C675 C678 1.367 . S
C675 H695 0.931 . S
C676 C673 1.405 . S
C676 C678 1.403 . S
C676 C682 1.439 1_455 S
C677 N674 1.319 . S
C677 C675 1.397 . S
C677 H688 0.930 . S
C678 C675 1.367 . S
C678 C676 1.403 . S
C678 H699 0.929 . S
C679 C680 1.430 . S
C679 C681 1.387 1_455 S
C679 C685 1.404 1_455 S
C680 C673 1.448 . S
C680 C679 1.430 . S
C680 N684 1.351 . S
C681 C679 1.387 1_655 S
C681 C682 1.374 . S
C681 H696 0.931 . S
C682 C676 1.439 1_655 S
C682 C681 1.374 . S
C682 H697 0.931 . S
Eu683 N674 2.600 . S
Eu683 N684 2.562 . S
Eu683 O718 2.335 . S
Eu683 O721 2.372 . S
Eu683 O722 2.462 . S
Eu683 O723 2.373 . S
Eu683 O725 2.432 . S
Eu683 O726 2.291 . S
Eu683 C747 2.787 . S
N684 C680 1.351 . S
N684 Eu683 2.562 . S
N684 C686 1.325 . S
C685 C679 1.404 1_655 S
C685 C687 1.366 1_655 S
C685 H693 0.930 . S
C686 N684 1.325 . S
C686 C687 1.416 . S
C686 H692 0.929 . S
C687 C685 1.366 1_455 S
C687 C686 1.416 . S
C687 H689 0.930 . S
H688 C677 0.930 . S
H689 C687 0.930 . S
H690 C705 0.930 . S
H691 C712 0.930 . S
H692 C686 0.929 . S
H693 C685 0.930 . S
H694 C708 0.929 . S
H695 C675 0.931 . S
H696 C681 0.931 . S
H697 C682 0.931 . S
H698 C703 0.931 . S
H699 C678 0.929 . S
H700 C711 0.930 . S
N701 Eu672 2.600 . S
N701 C702 1.365 . S
N701 C705 1.319 . S
C702 N701 1.365 . S
C702 C704 1.405 . S
C702 C710 1.448 . S
C703 H698 0.931 . S
C703 C705 1.397 . S
C703 C706 1.367 . S
C704 C702 1.405 . S
C704 C706 1.403 . S
C704 C737 1.439 1_565 S
C705 H690 0.930 . S
C705 N701 1.319 . S
C705 C703 1.397 . S
C706 C703 1.367 . S
C706 C704 1.403 . S
C706 H713 0.929 . S
N707 Eu672 2.562 . S
N707 C708 1.325 . S
N707 C710 1.351 . S
C708 H694 0.929 . S
C708 N707 1.325 . S
C708 C712 1.416 1_565 S
C709 C710 1.430 1_545 S
C709 C711 1.404 . S
C709 C738 1.387 . S
C710 C702 1.448 . S
C710 N707 1.351 . S
C710 C709 1.430 1_565 S
C711 H700 0.930 . S
C711 C709 1.404 . S
C711 C712 1.366 . S
C712 H691 0.930 . S
C712 C708 1.416 1_545 S
C712 C711 1.366 . S
H713 C706 0.929 . S
H714 C737 0.931 . S
H715 C738 0.931 . S
O716 Eu672 2.462 . S
O716 C736 1.252 . S
O717 Eu672 2.373 . S
O717 C728 1.249 . S
O718 Eu683 2.335 . S
O718 C728 1.264 . S
O719 Eu672 2.432 . S
O719 C736 1.268 . S
O720 Eu672 2.291 . S
O720 C735 1.255 . S
O721 Eu683 2.372 . S
O721 C735 1.257 . S
O722 Eu683 2.462 . S
O722 C747 1.252 . S
O723 Eu683 2.373 . S
O723 C739 1.249 . S
O724 Eu672 2.335 . S
O724 C739 1.264 . S
O725 Eu683 2.432 . S
O725 C747 1.268 . S
O726 Eu683 2.291 . S
O726 C746 1.255 . S
O727 Eu672 2.372 . S
O727 C746 1.257 . S
C728 O717 1.249 . S
C728 O718 1.264 . S
C729 C732 1.382 . S
C729 C734 1.390 . S
C729 C736 1.506 1_545 S
C730 C731 1.398 . S
C730 C734 1.392 . S
C731 C730 1.398 . S
C731 C733 1.372 . S
C731 H748 0.931 . S
C732 C729 1.382 . S
C732 C733 1.390 . S
C732 H749 0.931 . S
C733 C731 1.372 . S
C733 C732 1.390 . S
C733 H750 0.929 . S
C734 C729 1.390 . S
C734 C730 1.392 . S
C734 H751 0.930 . S
C735 O720 1.255 . S
C735 O721 1.257 . S
C736 Eu672 2.787 . S
C736 O716 1.252 . S
C736 O719 1.268 . S
C736 C729 1.506 1_565 S
C737 C704 1.439 1_545 S
C737 H714 0.931 . S
C737 C738 1.374 . S
C738 C709 1.387 . S
C738 H715 0.931 . S
C738 C737 1.374 . S
C739 O723 1.249 . S
C739 O724 1.264 . S
C740 C743 1.382 . S
C740 C744 1.390 . S
C740 C747 1.506 . S
C741 C742 1.398 . S
C741 C744 1.392 . S
C742 C741 1.398 . S
C742 C745 1.372 . S
C742 H752 0.931 . S
C743 C740 1.382 . S
C743 C745 1.390 . S
C743 H753 0.931 . S
C744 C740 1.390 . S
C744 C741 1.392 . S
C744 H754 0.930 . S
C745 C742 1.372 . S
C745 C743 1.390 . S
C745 H755 0.929 . S
C746 O726 1.255 . S
C746 O727 1.257 . S
C747 Eu683 2.787 . S
C747 O722 1.252 . S
C747 O725 1.268 . S
C747 C740 1.506 . S
H748 C731 0.931 . S
H749 C732 0.931 . S
H750 C733 0.929 . S
H751 C734 0.930 . S
H752 C742 0.931 . S
H753 C743 0.931 . S
H754 C744 0.930 . S
H755 C745 0.929 . S
Eu756 N785 2.600 . S
Eu756 N791 2.562 . S
Eu756 O800 2.462 . S
Eu756 O801 2.373 . S
Eu756 O803 2.432 . S
Eu756 O804 2.291 . S
Eu756 O808 2.335 . S
Eu756 O811 2.372 . S
Eu756 C820 2.787 . S
C757 N758 1.365 . S
C757 C760 1.405 . S
C757 C764 1.448 . S
N758 C757 1.365 . S
N758 C761 1.319 . S
N758 Eu767 2.600 . S
C759 C761 1.397 1_554 S
C759 C762 1.367 . S
C759 H779 0.931 . S
C760 C757 1.405 . S
C760 C762 1.403 1_556 S
C760 C766 1.439 1_545 S
C761 N758 1.319 . S
C761 C759 1.397 1_556 S
C761 H772 0.930 . S
C762 C759 1.367 . S
C762 C760 1.403 1_554 S
C762 H783 0.929 . S
C763 C764 1.430 . S
C763 C765 1.387 1_545 S
C763 C769 1.404 1_545 S
C764 C757 1.448 . S
C764 C763 1.430 . S
C764 N768 1.351 . S
C765 C763 1.387 1_565 S
C765 C766 1.374 . S
C765 H780 0.931 . S
C766 C760 1.439 1_565 S
C766 C765 1.374 . S
C766 H781 0.931 . S
Eu767 N758 2.600 . S
Eu767 N768 2.562 . S
Eu767 O802 2.335 . S
Eu767 O805 2.372 . S
Eu767 O806 2.462 . S
Eu767 O807 2.373 . S
Eu767 O809 2.432 . S
Eu767 O810 2.291 . S
Eu767 C831 2.787 . S
N768 C764 1.351 . S
N768 Eu767 2.562 . S
N768 C770 1.325 . S
C769 C763 1.404 1_565 S
C769 C771 1.366 1_565 S
C769 H777 0.930 . S
C770 N768 1.325 . S
C770 C771 1.416 . S
C770 H776 0.929 . S
C771 C769 1.366 1_545 S
C771 C770 1.416 . S
C771 H773 0.930 . S
H772 C761 0.930 . S
H773 C771 0.930 . S
H774 C789 0.930 . S
H775 C796 0.930 . S
H776 C770 0.929 . S
H777 C769 0.930 . S
H778 C792 0.929 . S
H779 C759 0.931 . S
H780 C765 0.931 . S
H781 C766 0.931 . S
H782 C787 0.931 . S
H783 C762 0.929 . S
H784 C795 0.930 . S
N785 Eu756 2.600 . S
N785 C786 1.365 . S
N785 C789 1.319 . S
C786 N785 1.365 . S
C786 C788 1.405 . S
C786 C794 1.448 . S
C787 H782 0.931 . S
C787 C789 1.397 . S
C787 C790 1.367 . S
C788 C786 1.405 . S
C788 C790 1.403 . S
C788 C821 1.439 . S
C789 H774 0.930 . S
C789 N785 1.319 . S
C789 C787 1.397 . S
C790 C787 1.367 . S
C790 C788 1.403 . S
C790 H797 0.929 . S
N791 Eu756 2.562 . S
N791 C792 1.325 . S
N791 C794 1.351 . S
C792 H778 0.929 . S
C792 N791 1.325 . S
C792 C796 1.416 . S
C793 C794 1.430 . S
C793 C795 1.404 . S
C793 C822 1.387 . S
C794 C786 1.448 . S
C794 N791 1.351 . S
C794 C793 1.430 . S
C795 H784 0.930 . S
C795 C793 1.404 . S
C795 C796 1.366 . S
C796 H775 0.930 . S
C796 C792 1.416 . S
C796 C795 1.366 . S
H797 C790 0.929 . S
H798 C821 0.931 . S
H799 C822 0.931 . S
O800 Eu756 2.462 . S
O800 C820 1.252 . S
O801 Eu756 2.373 . S
O801 C812 1.249 . S
O802 Eu767 2.335 . S
O802 C812 1.264 . S
O803 Eu756 2.432 . S
O803 C820 1.268 . S
O804 Eu756 2.291 . S
O804 C819 1.255 . S
O805 Eu767 2.372 . S
O805 C819 1.257 . S
O806 Eu767 2.462 . S
O806 C831 1.252 . S
O807 Eu767 2.373 . S
O807 C823 1.249 . S
O808 Eu756 2.335 . S
O808 C823 1.264 . S
O809 Eu767 2.432 . S
O809 C831 1.268 . S
O810 Eu767 2.291 . S
O810 C830 1.255 . S
O811 Eu756 2.372 . S
O811 C830 1.257 . S
C812 O801 1.249 . S
C812 O802 1.264 . S
C813 C816 1.382 . S
C813 C818 1.390 . S
C813 C820 1.506 . S
C814 C815 1.398 . S
C814 C818 1.392 . S
C815 C814 1.398 . S
C815 C817 1.372 . S
C815 H832 0.931 . S
C816 C813 1.382 . S
C816 C817 1.390 . S
C816 H833 0.931 . S
C817 C815 1.372 . S
C817 C816 1.390 . S
C817 H834 0.929 . S
C818 C813 1.390 . S
C818 C814 1.392 . S
C818 H835 0.930 . S
C819 O804 1.255 . S
C819 O805 1.257 . S
C820 Eu756 2.787 . S
C820 O800 1.252 . S
C820 O803 1.268 . S
C820 C813 1.506 . S
C821 C788 1.439 . S
C821 H798 0.931 . S
C821 C822 1.374 . S
C822 C793 1.387 . S
C822 H799 0.931 . S
C822 C821 1.374 . S
C823 O807 1.249 . S
C823 O808 1.264 . S
C824 C827 1.382 . S
C824 C828 1.390 . S
C824 C831 1.506 . S
C825 C826 1.398 . S
C825 C828 1.392 . S
C826 C825 1.398 . S
C826 C829 1.372 . S
C826 H836 0.931 . S
C827 C824 1.382 . S
C827 C829 1.390 . S
C827 H837 0.931 . S
C828 C824 1.390 . S
C828 C825 1.392 . S
C828 H838 0.930 . S
C829 C826 1.372 . S
C829 C827 1.390 . S
C829 H839 0.929 . S
C830 O810 1.255 . S
C830 O811 1.257 . S
C831 Eu767 2.787 . S
C831 O806 1.252 . S
C831 O809 1.268 . S
C831 C824 1.506 . S
H832 C815 0.931 . S
H833 C816 0.931 . S
H834 C817 0.929 . S
H835 C818 0.930 . S
H836 C826 0.931 . S
H837 C827 0.931 . S
H838 C828 0.930 . S
H839 C829 0.929 . S
Eu840 N869 2.600 . S
Eu840 N875 2.562 . S
Eu840 O884 2.462 . S
Eu840 O885 2.373 . S
Eu840 O887 2.432 . S
Eu840 O888 2.291 . S
Eu840 O892 2.335 . S
Eu840 O895 2.372 . S
Eu840 C904 2.787 . S
C841 N842 1.365 . S
C841 C844 1.405 . S
C841 C848 1.448 . S
N842 C841 1.365 . S
N842 C845 1.319 . S
N842 Eu851 2.600 . S
C843 C845 1.397 . S
C843 C846 1.367 . S
C843 H863 0.931 . S
C844 C841 1.405 . S
C844 C846 1.403 . S
C844 C850 1.439 . S
C845 N842 1.319 . S
C845 C843 1.397 . S
C845 H856 0.930 . S
C846 C843 1.367 . S
C846 C844 1.403 . S
C846 H867 0.929 . S
C847 C848 1.430 . S
C847 C849 1.387 . S
C847 C853 1.404 . S
C848 C841 1.448 . S
C848 C847 1.430 . S
C848 N852 1.351 . S
C849 C847 1.387 . S
C849 C850 1.374 . S
C849 H864 0.931 . S
C850 C844 1.439 . S
C850 C849 1.374 . S
C850 H865 0.931 . S
Eu851 N842 2.600 . S
Eu851 N852 2.562 . S
Eu851 O886 2.335 . S
Eu851 O889 2.372 . S
Eu851 O890 2.462 . S
Eu851 O891 2.373 . S
Eu851 O893 2.432 . S
Eu851 O894 2.291 . S
Eu851 C915 2.787 . S
N852 C848 1.351 . S
N852 Eu851 2.562 . S
N852 C854 1.325 . S
C853 C847 1.404 . S
C853 C855 1.366 . S
C853 H861 0.930 . S
C854 N852 1.325 . S
C854 C855 1.416 . S
C854 H860 0.929 . S
C855 C853 1.366 . S
C855 C854 1.416 . S
C855 H857 0.930 . S
H856 C845 0.930 . S
H857 C855 0.930 . S
H858 C873 0.930 . S
H859 C880 0.930 . S
H860 C854 0.929 . S
H861 C853 0.930 . S
H862 C876 0.929 . S
H863 C843 0.931 . S
H864 C849 0.931 . S
H865 C850 0.931 . S
H866 C871 0.931 . S
H867 C846 0.929 . S
H868 C879 0.930 . S
N869 Eu840 2.600 . S
N869 C870 1.365 . S
N869 C873 1.319 . S
C870 N869 1.365 . S
C870 C872 1.405 . S
C870 C878 1.448 . S
C871 H866 0.931 . S
C871 C873 1.397 . S
C871 C874 1.367 . S
C872 C870 1.405 . S
C872 C874 1.403 . S
C872 C905 1.439 1_455 S
C873 H858 0.930 . S
C873 N869 1.319 . S
C873 C871 1.397 . S
C874 C871 1.367 . S
C874 C872 1.403 . S
C874 H881 0.929 . S
N875 Eu840 2.562 . S
N875 C876 1.325 . S
N875 C878 1.351 . S
C876 H862 0.929 . S
C876 N875 1.325 . S
C876 C880 1.416 1_455 S
C877 C878 1.430 1_655 S
C877 C879 1.404 . S
C877 C906 1.387 . S
C878 C870 1.448 . S
C878 N875 1.351 . S
C878 C877 1.430 1_455 S
C879 H868 0.930 . S
C879 C877 1.404 . S
C879 C880 1.366 . S
C880 H859 0.930 . S
C880 C876 1.416 1_655 S
C880 C879 1.366 . S
H881 C874 0.929 . S
H882 C905 0.931 . S
H883 C906 0.931 . S
O884 Eu840 2.462 . S
O884 C904 1.252 . S
O885 Eu840 2.373 . S
O885 C896 1.249 . S
O886 Eu851 2.335 . S
O886 C896 1.264 . S
O887 Eu840 2.432 . S
O887 C904 1.268 . S
O888 Eu840 2.291 . S
O888 C903 1.255 . S
O889 Eu851 2.372 . S
O889 C903 1.257 . S
O890 Eu851 2.462 . S
O890 C915 1.252 . S
O891 Eu851 2.373 . S
O891 C907 1.249 . S
O892 Eu840 2.335 . S
O892 C907 1.264 . S
O893 Eu851 2.432 . S
O893 C915 1.268 . S
O894 Eu851 2.291 . S
O894 C914 1.255 . S
O895 Eu840 2.372 . S
O895 C914 1.257 . S
C896 O885 1.249 . S
C896 O886 1.264 . S
C897 C900 1.382 . S
C897 C902 1.390 . S
C897 C904 1.506 1_655 S
C898 C899 1.398 . S
C898 C902 1.392 . S
C899 C898 1.398 . S
C899 C901 1.372 . S
C899 H916 0.931 . S
C900 C897 1.382 . S
C900 C901 1.390 . S
C900 H917 0.931 . S
C901 C899 1.372 . S
C901 C900 1.390 . S
C901 H918 0.929 . S
C902 C897 1.390 . S
C902 C898 1.392 . S
C902 H919 0.930 . S
C903 O888 1.255 . S
C903 O889 1.257 . S
C904 Eu840 2.787 . S
C904 O884 1.252 . S
C904 O887 1.268 . S
C904 C897 1.506 1_455 S
C905 C872 1.439 1_655 S
C905 H882 0.931 . S
C905 C906 1.374 . S
C906 C877 1.387 . S
C906 H883 0.931 . S
C906 C905 1.374 . S
C907 O891 1.249 . S
C907 O892 1.264 . S
C908 C911 1.382 . S
C908 C912 1.390 . S
C908 C915 1.506 . S
C909 C910 1.398 . S
C909 C912 1.392 . S
C910 C909 1.398 . S
C910 C913 1.372 . S
C910 H920 0.931 . S
C911 C908 1.382 . S
C911 C913 1.390 . S
C911 H921 0.931 . S
C912 C908 1.390 . S
C912 C909 1.392 . S
C912 H922 0.930 . S
C913 C910 1.372 . S
C913 C911 1.390 . S
C913 H923 0.929 . S
C914 O894 1.255 . S
C914 O895 1.257 . S
C915 Eu851 2.787 . S
C915 O890 1.252 . S
C915 O893 1.268 . S
C915 C908 1.506 . S
H916 C899 0.931 . S
H917 C900 0.931 . S
H918 C901 0.929 . S
H919 C902 0.930 . S
H920 C910 0.931 . S
H921 C911 0.931 . S
H922 C912 0.930 . S
H923 C913 0.929 . S
Eu924 N953 2.600 . S
Eu924 N959 2.562 . S
Eu924 O968 2.462 . S
Eu924 O969 2.373 . S
Eu924 O971 2.432 . S
Eu924 O972 2.291 . S
Eu924 O976 2.335 . S
Eu924 O979 2.372 . S
Eu924 C988 2.787 . S
C925 N926 1.365 . S
C925 C928 1.405 . S
C925 C932 1.448 . S
N926 C925 1.365 . S
N926 C929 1.319 . S
N926 Eu935 2.600 . S
C927 C929 1.397 1_554 S
C927 C930 1.367 . S
C927 H947 0.931 . S
C928 C925 1.405 . S
C928 C930 1.403 1_556 S
C928 C934 1.439 1_655 S
C929 N926 1.319 . S
C929 C927 1.397 1_556 S
C929 H940 0.930 . S
C930 C927 1.367 . S
C930 C928 1.403 1_554 S
C930 H951 0.929 . S
C931 C932 1.430 . S
C931 C933 1.387 1_655 S
C931 C937 1.404 1_655 S
C932 C925 1.448 . S
C932 C931 1.430 . S
C932 N936 1.351 . S
C933 C931 1.387 1_455 S
C933 C934 1.374 . S
C933 H948 0.931 . S
C934 C928 1.439 1_455 S
C934 C933 1.374 . S
C934 H949 0.931 . S
Eu935 N926 2.600 . S
Eu935 N936 2.562 . S
Eu935 O970 2.335 . S
Eu935 O973 2.372 . S
Eu935 O974 2.462 . S
Eu935 O975 2.373 . S
Eu935 O977 2.432 . S
Eu935 O978 2.291 . S
Eu935 C999 2.787 . S
N936 C932 1.351 . S
N936 Eu935 2.562 . S
N936 C938 1.325 . S
C937 C931 1.404 1_455 S
C937 C939 1.366 1_455 S
C937 H945 0.930 . S
C938 N936 1.325 . S
C938 C939 1.416 . S
C938 H944 0.929 . S
C939 C937 1.366 1_655 S
C939 C938 1.416 . S
C939 H941 0.930 . S
H940 C929 0.930 . S
H941 C939 0.930 . S
H942 C957 0.930 . S
H943 C964 0.930 . S
H944 C938 0.929 . S
H945 C937 0.930 . S
H946 C960 0.929 . S
H947 C927 0.931 . S
H948 C933 0.931 . S
H949 C934 0.931 . S
H950 C955 0.931 . S
H951 C930 0.929 . S
H952 C963 0.930 . S
N953 Eu924 2.600 . S
N953 C954 1.365 . S
N953 C957 1.319 . S
C954 N953 1.365 . S
C954 C956 1.405 . S
C954 C962 1.448 . S
C955 H950 0.931 . S
C955 C957 1.397 . S
C955 C958 1.367 . S
C956 C954 1.405 . S
C956 C958 1.403 . S
C956 C989 1.439 1_545 S
C957 H942 0.930 . S
C957 N953 1.319 . S
C957 C955 1.397 . S
C958 C955 1.367 . S
C958 C956 1.403 . S
C958 H965 0.929 . S
N959 Eu924 2.562 . S
N959 C960 1.325 . S
N959 C962 1.351 . S
C960 H946 0.929 . S
C960 N959 1.325 . S
C960 C964 1.416 1_545 S
C961 C962 1.430 1_565 S
C961 C963 1.404 . S
C961 C990 1.387 . S
C962 C954 1.448 . S
C962 N959 1.351 . S
C962 C961 1.430 1_545 S
C963 H952 0.930 . S
C963 C961 1.404 . S
C963 C964 1.366 . S
C964 H943 0.930 . S
C964 C960 1.416 1_565 S
C964 C963 1.366 . S
H965 C958 0.929 . S
H966 C989 0.931 . S
H967 C990 0.931 . S
O968 Eu924 2.462 . S
O968 C988 1.252 . S
O969 Eu924 2.373 . S
O969 C980 1.249 . S
O970 Eu935 2.335 . S
O970 C980 1.264 . S
O971 Eu924 2.432 . S
O971 C988 1.268 . S
O972 Eu924 2.291 . S
O972 C987 1.255 . S
O973 Eu935 2.372 . S
O973 C987 1.257 . S
O974 Eu935 2.462 . S
O974 C999 1.252 . S
O975 Eu935 2.373 . S
O975 C991 1.249 . S
O976 Eu924 2.335 . S
O976 C991 1.264 . S
O977 Eu935 2.432 . S
O977 C999 1.268 . S
O978 Eu935 2.291 . S
O978 C998 1.255 . S
O979 Eu924 2.372 . S
O979 C998 1.257 . S
C980 O969 1.249 . S
C980 O970 1.264 . S
C981 C984 1.382 . S
C981 C986 1.390 . S
C981 C988 1.506 1_565 S
C982 C983 1.398 . S
C982 C986 1.392 . S
C983 C982 1.398 . S
C983 C985 1.372 . S
C983 H1000 0.931 . S
C984 C981 1.382 . S
C984 C985 1.390 . S
C984 H1001 0.931 . S
C985 C983 1.372 . S
C985 C984 1.390 . S
C985 H1002 0.929 . S
C986 C981 1.390 . S
C986 C982 1.392 . S
C986 H1003 0.930 . S
C987 O972 1.255 . S
C987 O973 1.257 . S
C988 Eu924 2.787 . S
C988 O968 1.252 . S
C988 O971 1.268 . S
C988 C981 1.506 1_545 S
C989 C956 1.439 1_565 S
C989 H966 0.931 . S
C989 C990 1.374 . S
C990 C961 1.387 . S
C990 H967 0.931 . S
C990 C989 1.374 . S
C991 O975 1.249 . S
C991 O976 1.264 . S
C992 C995 1.382 . S
C992 C996 1.390 . S
C992 C999 1.506 . S
C993 C994 1.398 . S
C993 C996 1.392 . S
C994 C993 1.398 . S
C994 C997 1.372 . S
C994 H1004 0.931 . S
C995 C992 1.382 . S
C995 C997 1.390 . S
C995 H1005 0.931 . S
C996 C992 1.390 . S
C996 C993 1.392 . S
C996 H1006 0.930 . S
C997 C994 1.372 . S
C997 C995 1.390 . S
C997 H1007 0.929 . S
C998 O978 1.255 . S
C998 O979 1.257 . S
C999 Eu935 2.787 . S
C999 O974 1.252 . S
C999 O977 1.268 . S
C999 C992 1.506 . S
H1000 C983 0.931 . S
H1001 C984 0.931 . S
H1002 C985 0.929 . S
H1003 C986 0.930 . S
H1004 C994 0.931 . S
H1005 C995 0.931 . S
H1006 C996 0.930 . S
H1007 C997 0.929 . S
H1008 C1014 0.930 . S
H1009 C1017 0.930 . S
H1010 C1018 0.930 1_545 S
H1011 C1019 0.930 . S
H1012 C1022 0.930 . S
H1013 C1023 0.930 . S
C1014 H1008 0.930 . S
C1014 C1015 1.355 . S
C1014 C1016 1.415 . S
C1015 C1014 1.355 . S
C1015 C1017 1.419 . S
C1016 C1014 1.415 . S
C1016 C1021 1.425 1_565 S
C1016 C1023 1.409 1_565 S
C1017 H1009 0.930 . S
C1017 C1015 1.419 . S
C1017 C1018 1.362 . S
C1018 H1010 0.930 1_565 S
C1018 C1017 1.362 . S
C1018 C1021 1.409 1_565 S
C1019 H1011 0.930 . S
C1019 C1020 1.355 . S
C1019 C1021 1.415 . S
C1020 C1019 1.355 . S
C1020 C1022 1.419 . S
C1021 C1016 1.425 1_545 S
C1021 C1018 1.409 1_545 S
C1021 C1019 1.415 . S
C1022 H1012 0.930 . S
C1022 C1020 1.419 . S
C1022 C1023 1.362 . S
C1023 H1013 0.930 . S
C1023 C1016 1.409 1_545 S
C1023 C1022 1.362 . S
H1024 C1030 0.930 . S
H1025 C1033 0.930 . S
H1026 C1034 0.930 . S
H1027 C1035 0.930 . S
H1028 C1038 0.930 . S
H1029 C1039 0.930 . S
C1030 H1024 0.930 . S
C1030 C1031 1.355 . S
C1030 C1032 1.415 . S
C1031 C1030 1.355 . S
C1031 C1033 1.419 . S
C1032 C1030 1.415 . S
C1032 C1037 1.425 . S
C1032 C1039 1.409 . S
C1033 H1025 0.930 . S
C1033 C1031 1.419 . S
C1033 C1034 1.362 . S
C1034 H1026 0.930 . S
C1034 C1033 1.362 . S
C1034 C1037 1.409 . S
C1035 H1027 0.930 . S
C1035 C1036 1.355 . S
C1035 C1037 1.415 . S
C1036 C1035 1.355 . S
C1036 C1038 1.419 . S
C1037 C1032 1.425 . S
C1037 C1034 1.409 . S
C1037 C1035 1.415 . S
C1038 H1028 0.930 . S
C1038 C1036 1.419 . S
C1038 C1039 1.362 . S
C1039 H1029 0.930 . S
C1039 C1032 1.409 . S
C1039 C1038 1.362 . S
H1040 C1046 0.930 . S
H1041 C1049 0.930 . S
H1042 C1050 0.930 . S
H1043 C1051 0.930 . S
H1044 C1054 0.930 . S
H1045 C1055 0.930 . S
C1046 H1040 0.930 . S
C1046 C1047 1.355 . S
C1046 C1048 1.415 . S
C1047 C1046 1.355 . S
C1047 C1049 1.419 . S
C1048 C1046 1.415 . S
C1048 C1053 1.429 1_655 S
C1048 C1055 1.409 1_655 S
C1049 H1041 0.930 . S
C1049 C1047 1.419 . S
C1049 C1050 1.362 . S
C1050 H1042 0.930 . S
C1050 C1049 1.362 . S
C1050 C1053 1.390 1_655 S
C1051 H1043 0.930 . S
C1051 C1052 1.355 . S
C1051 C1053 1.430 . S
C1052 C1051 1.355 . S
C1052 C1054 1.419 . S
C1053 C1048 1.429 1_455 S
C1053 C1050 1.390 1_455 S
C1053 C1051 1.430 . S
C1054 H1044 0.930 . S
C1054 C1052 1.419 . S
C1054 C1055 1.362 . S
C1055 H1045 0.930 . S
C1055 C1048 1.409 1_455 S
C1055 C1054 1.362 . S
H1056 C1062 0.930 . S
H1057 C1065 0.930 . S
H1058 C1066 0.930 1_545 S
H1059 C1067 0.930 . S
H1060 C1070 0.930 . S
H1061 C1071 0.930 1_565 S
C1062 H1056 0.930 . S
C1062 C1063 1.355 . S
C1062 C1064 1.415 . S
C1063 C1062 1.355 . S
C1063 C1065 1.419 . S
C1064 C1062 1.415 . S
C1064 C1069 1.425 1_565 S
C1064 C1071 1.409 1_565 S
C1065 H1057 0.930 . S
C1065 C1063 1.419 . S
C1065 C1066 1.362 . S
C1066 H1058 0.930 1_565 S
C1066 C1065 1.362 . S
C1066 C1069 1.409 1_565 S
C1067 H1059 0.930 . S
C1067 C1068 1.355 . S
C1067 C1069 1.415 . S
C1068 C1067 1.355 . S
C1068 C1070 1.419 . S
C1069 C1064 1.425 1_545 S
C1069 C1066 1.409 1_545 S
C1069 C1067 1.415 . S
C1070 H1060 0.930 . S
C1070 C1068 1.419 . S
C1070 C1071 1.362 . S
C1071 H1061 0.930 1_545 S
C1071 C1064 1.409 1_545 S
C1071 C1070 1.362 . S
H1072 C1078 0.930 . S
H1073 C1081 0.930 . S
H1074 C1082 0.930 . S
H1075 C1083 0.930 . S
H1076 C1086 0.930 . S
H1077 C1087 0.930 . S
C1078 H1072 0.930 . S
C1078 C1079 1.355 . S
C1078 C1080 1.415 . S
C1079 C1078 1.355 . S
C1079 C1081 1.419 . S
C1080 C1078 1.415 . S
C1080 C1085 1.425 . S
C1080 C1087 1.409 . S
C1081 H1073 0.930 . S
C1081 C1079 1.419 . S
C1081 C1082 1.362 . S
C1082 H1074 0.930 . S
C1082 C1081 1.362 . S
C1082 C1085 1.409 . S
C1083 H1075 0.930 . S
C1083 C1084 1.355 . S
C1083 C1085 1.415 . S
C1084 C1083 1.355 . S
C1084 C1086 1.419 . S
C1085 C1080 1.425 . S
C1085 C1082 1.409 . S
C1085 C1083 1.415 . S
C1086 H1076 0.930 . S
C1086 C1084 1.419 . S
C1086 C1087 1.362 . S
C1087 H1077 0.930 . S
C1087 C1080 1.409 . S
C1087 C1086 1.362 . S
H1088 C1094 0.930 . S
H1089 C1097 0.930 . S
H1090 C1098 0.930 . S
H1091 C1099 0.930 . S
H1092 C1102 0.930 . S
H1093 C1103 0.930 . S
C1094 H1088 0.930 . S
C1094 C1095 1.355 . S
C1094 C1096 1.415 1_655 S
C1095 C1094 1.355 . S
C1095 C1097 1.419 . S
C1096 C1094 1.415 1_455 S
C1096 C1101 1.425 . S
C1096 C1103 1.409 . S
C1097 H1089 0.930 . S
C1097 C1095 1.419 . S
C1097 C1098 1.362 . S
C1098 H1090 0.930 . S
C1098 C1097 1.362 . S
C1098 C1101 1.409 1_655 S
C1099 H1091 0.930 . S
C1099 C1100 1.355 . S
C1099 C1101 1.415 . S
C1100 C1099 1.355 . S
C1100 C1102 1.419 . S
C1101 C1096 1.425 . S
C1101 C1098 1.409 1_455 S
C1101 C1099 1.415 . S
C1102 H1092 0.930 . S
C1102 C1100 1.419 . S
C1102 C1103 1.362 . S
C1103 H1093 0.930 . S
C1103 C1096 1.409 . S
C1103 C1102 1.362 . S
H1104 C1110 0.930 . S
H1105 C1113 0.930 . S
H1106 C1114 0.930 1_655 S
H1107 C1115 0.930 . S
H1108 C1118 0.930 . S
H1109 C1119 0.930 1_455 S
C1110 H1104 0.930 . S
C1110 C1111 1.355 . S
C1110 C1112 1.415 . S
C1111 C1110 1.355 . S
C1111 C1113 1.419 . S
C1112 C1110 1.415 . S
C1112 C1117 1.425 1_455 S
C1112 C1119 1.409 1_455 S
C1113 H1105 0.930 . S
C1113 C1111 1.419 . S
C1113 C1114 1.362 . S
C1114 H1106 0.930 1_455 S
C1114 C1113 1.362 . S
C1114 C1117 1.409 1_455 S
C1115 H1107 0.930 . S
C1115 C1116 1.355 . S
C1115 C1117 1.415 . S
C1116 C1115 1.355 . S
C1116 C1118 1.419 . S
C1117 C1112 1.425 1_655 S
C1117 C1114 1.409 1_655 S
C1117 C1115 1.415 . S
C1118 H1108 0.930 . S
C1118 C1116 1.419 . S
C1118 C1119 1.362 . S
C1119 H1109 0.930 1_655 S
C1119 C1112 1.409 1_655 S
C1119 C1118 1.362 . S
H1120 C1126 0.930 . S
H1121 C1129 0.930 . S
H1122 C1130 0.930 1_545 S
H1123 C1131 0.930 . S
H1124 C1134 0.930 . S
H1125 C1135 0.930 1_565 S
C1126 H1120 0.930 . S
C1126 C1127 1.355 . S
C1126 C1128 1.415 . S
C1127 C1126 1.355 . S
C1127 C1129 1.419 . S
C1128 C1126 1.415 . S
C1128 C1133 1.425 1_565 S
C1128 C1135 1.409 1_565 S
C1129 H1121 0.930 . S
C1129 C1127 1.419 . S
C1129 C1130 1.362 . S
C1130 H1122 0.930 1_565 S
C1130 C1129 1.362 . S
C1130 C1133 1.409 1_565 S
C1131 H1123 0.930 . S
C1131 C1132 1.355 . S
C1131 C1133 1.415 . S
C1132 C1131 1.355 . S
C1132 C1134 1.419 . S
C1133 C1128 1.425 1_545 S
C1133 C1130 1.409 1_545 S
C1133 C1131 1.415 . S
C1134 H1124 0.930 . S
C1134 C1132 1.419 . S
C1134 C1135 1.362 . S
C1135 H1125 0.930 1_545 S
C1135 C1128 1.409 1_545 S
C1135 C1134 1.362 . S
H1136 C1142 0.930 . S
H1137 C1145 0.930 . S
H1138 C1146 0.930 . S
H1139 C1147 0.930 . S
H1140 C1150 0.930 . S
H1141 C1151 0.930 . S
C1142 H1136 0.930 . S
C1142 C1143 1.355 . S
C1142 C1144 1.415 . S
C1143 C1142 1.355 . S
C1143 C1145 1.419 . S
C1144 C1142 1.415 . S
C1144 C1149 1.425 . S
C1144 C1151 1.409 . S
C1145 H1137 0.930 . S
C1145 C1143 1.419 . S
C1145 C1146 1.362 . S
C1146 H1138 0.930 . S
C1146 C1145 1.362 . S
C1146 C1149 1.409 . S
C1147 H1139 0.930 . S
C1147 C1148 1.355 . S
C1147 C1149 1.415 . S
C1148 C1147 1.355 . S
C1148 C1150 1.419 . S
C1149 C1144 1.425 . S
C1149 C1146 1.409 . S
C1149 C1147 1.415 . S
C1150 H1140 0.930 . S
C1150 C1148 1.419 . S
C1150 C1151 1.362 . S
C1151 H1141 0.930 . S
C1151 C1144 1.409 . S
C1151 C1150 1.362 . S
H1152 C1158 0.930 . S
H1153 C1161 0.930 . S
H1154 C1162 0.930 1_655 S
H1155 C1163 0.930 . S
H1156 C1166 0.930 . S
H1157 C1167 0.930 1_455 S
C1158 H1152 0.930 . S
C1158 C1159 1.355 . S
C1158 C1160 1.415 . S
C1159 C1158 1.355 . S
C1159 C1161 1.419 . S
C1160 C1158 1.415 . S
C1160 C1165 1.425 1_455 S
C1160 C1167 1.409 1_455 S
C1161 H1153 0.930 . S
C1161 C1159 1.419 . S
C1161 C1162 1.362 . S
C1162 H1154 0.930 1_455 S
C1162 C1161 1.362 . S
C1162 C1165 1.409 1_455 S
C1163 H1155 0.930 . S
C1163 C1164 1.355 . S
C1163 C1165 1.415 . S
C1164 C1163 1.355 . S
C1164 C1166 1.419 . S
C1165 C1160 1.425 1_655 S
C1165 C1162 1.409 1_655 S
C1165 C1163 1.415 . S
C1166 H1156 0.930 . S
C1166 C1164 1.419 . S
C1166 C1167 1.362 . S
C1167 H1157 0.930 1_655 S
C1167 C1160 1.409 1_655 S
C1167 C1166 1.362 . S
H1168 C1174 0.930 . S
H1169 C1177 0.930 . S
H1170 C1178 0.930 . S
H1171 C1179 0.930 . S
H1172 C1182 0.930 . S
H1173 C1183 0.917 1_545 S
C1174 H1168 0.930 . S
C1174 C1175 1.355 . S
C1174 C1176 1.415 . S
C1175 C1174 1.355 . S
C1175 C1177 1.419 . S
C1176 C1174 1.415 . S
C1176 C1181 1.425 1_545 S
C1176 C1183 1.409 1_545 S
C1177 H1169 0.930 . S
C1177 C1175 1.419 . S
C1177 C1178 1.362 . S
C1178 H1170 0.930 . S
C1178 C1177 1.362 . S
C1178 C1181 1.409 1_545 S
C1179 H1171 0.930 . S
C1179 C1180 1.355 . S
C1179 C1181 1.415 . S
C1180 C1179 1.355 . S
C1180 C1182 1.419 . S
C1181 C1176 1.425 1_565 S
C1181 C1178 1.409 1_565 S
C1181 C1179 1.415 . S
C1182 H1172 0.930 . S
C1182 C1180 1.419 . S
C1182 C1183 1.362 . S
C1183 H1173 0.917 1_565 S
C1183 C1176 1.409 1_565 S
C1183 C1182 1.362 . S
H1184 C1190 0.930 . S
H1185 C1193 0.930 . S
H1186 C1194 0.930 . S
H1187 C1195 0.930 . S
H1188 C1198 0.930 . S
H1189 C1199 0.930 . S
C1190 H1184 0.930 . S
C1190 C1191 1.355 . S
C1190 C1192 1.415 . S
C1191 C1190 1.355 . S
C1191 C1193 1.419 . S
C1192 C1190 1.415 . S
C1192 C1197 1.425 . S
C1192 C1199 1.409 . S
C1193 H1185 0.930 . S
C1193 C1191 1.419 . S
C1193 C1194 1.362 . S
C1194 H1186 0.930 . S
C1194 C1193 1.362 . S
C1194 C1197 1.409 . S
C1195 H1187 0.930 . S
C1195 C1196 1.355 . S
C1195 C1197 1.415 . S
C1196 C1195 1.355 . S
C1196 C1198 1.419 . S
C1197 C1192 1.425 . S
C1197 C1194 1.409 . S
C1197 C1195 1.415 . S
C1198 H1188 0.930 . S
C1198 C1196 1.419 . S
C1198 C1199 1.362 . S
C1199 H1189 0.930 . S
C1199 C1192 1.409 . S
C1199 C1198 1.362 . S
H1200 C1206 0.930 . S
H1201 C1209 0.930 . S
H1202 C1210 0.930 . S
H1203 C1211 0.930 . S
H1204 C1214 0.930 . S
H1205 C1215 0.930 . S
C1206 H1200 0.930 . S
C1206 C1207 1.355 . S
C1206 C1208 1.415 . S
C1207 C1206 1.355 . S
C1207 C1209 1.419 . S
C1208 C1206 1.415 . S
C1208 C1213 1.425 . S
C1208 C1215 1.409 . S
C1209 H1201 0.930 . S
C1209 C1207 1.419 . S
C1209 C1210 1.362 . S
C1210 H1202 0.930 . S
C1210 C1209 1.362 . S
C1210 C1213 1.409 . S
C1211 H1203 0.930 . S
C1211 C1212 1.355 . S
C1211 C1213 1.415 . S
C1212 C1211 1.355 . S
C1212 C1214 1.419 . S
C1213 C1208 1.425 . S
C1213 C1210 1.409 . S
C1213 C1211 1.415 . S
C1214 H1204 0.930 . S
C1214 C1212 1.419 . S
C1214 C1215 1.362 . S
C1215 H1205 0.930 . S
C1215 C1208 1.409 . S
C1215 C1214 1.362 . S
H1216 C1222 0.930 . S
H1217 C1225 0.930 . S
H1218 C1226 0.930 . S
H1219 C1227 0.930 . S
H1220 C1230 0.930 . S
H1221 C1231 0.930 . S
C1222 H1216 0.930 . S
C1222 C1223 1.355 . S
C1222 C1224 1.415 . S
C1223 C1222 1.355 . S
C1223 C1225 1.419 . S
C1224 C1222 1.415 . S
C1224 C1229 1.425 . S
C1224 C1231 1.409 . S
C1225 H1217 0.930 . S
C1225 C1223 1.419 . S
C1225 C1226 1.362 . S
C1226 H1218 0.930 . S
C1226 C1225 1.362 . S
C1226 C1229 1.409 . S
C1227 H1219 0.930 . S
C1227 C1228 1.355 . S
C1227 C1229 1.415 . S
C1228 C1227 1.355 . S
C1228 C1230 1.419 . S
C1229 C1224 1.425 . S
C1229 C1226 1.409 . S
C1229 C1227 1.415 . S
C1230 H1220 0.930 . S
C1230 C1228 1.419 . S
C1230 C1231 1.362 . S
C1231 H1221 0.930 . S
C1231 C1224 1.409 . S
C1231 C1230 1.362 . S
H1232 C1238 0.930 . S
H1233 C1241 0.930 . S
H1234 C1242 0.930 . S
H1235 C1243 0.930 . S
H1236 C1246 0.930 . S
H1237 C1247 0.930 . S
C1238 H1232 0.930 . S
C1238 C1239 1.355 . S
C1238 C1240 1.415 . S
C1239 C1238 1.355 . S
C1239 C1241 1.419 . S
C1240 C1238 1.415 . S
C1240 C1245 1.425 . S
C1240 C1247 1.409 . S
C1241 H1233 0.930 . S
C1241 C1239 1.419 . S
C1241 C1242 1.362 . S
C1242 H1234 0.930 . S
C1242 C1241 1.362 . S
C1242 C1245 1.409 . S
C1243 H1235 0.930 . S
C1243 C1244 1.355 . S
C1243 C1245 1.415 . S
C1244 C1243 1.355 . S
C1244 C1246 1.419 . S
C1245 C1240 1.425 . S
C1245 C1242 1.409 . S
C1245 C1243 1.415 . S
C1246 H1236 0.930 . S
C1246 C1244 1.419 . S
C1246 C1247 1.362 . S
C1247 H1237 0.930 . S
C1247 C1240 1.409 . S
C1247 C1246 1.362 . S
H1248 C1254 0.930 . S
H1249 C1257 0.930 . S
H1250 C1258 0.930 . S
H1251 C1259 0.930 . S
H1252 C1262 0.930 . S
H1253 C1263 0.930 . S
C1254 H1248 0.930 . S
C1254 C1255 1.355 . S
C1254 C1256 1.415 . S
C1255 C1254 1.355 . S
C1255 C1257 1.419 . S
C1256 C1254 1.415 . S
C1256 C1261 1.425 . S
C1256 C1263 1.409 . S
C1257 H1249 0.930 . S
C1257 C1255 1.419 . S
C1257 C1258 1.362 . S
C1258 H1250 0.930 . S
C1258 C1257 1.362 . S
C1258 C1261 1.409 . S
C1259 H1251 0.930 . S
C1259 C1260 1.355 . S
C1259 C1261 1.415 . S
C1260 C1259 1.355 . S
C1260 C1262 1.419 . S
C1261 C1256 1.425 . S
C1261 C1258 1.409 . S
C1261 C1259 1.415 . S
C1262 H1252 0.930 . S
C1262 C1260 1.419 . S
C1262 C1263 1.362 . S
C1263 H1253 0.930 . S
C1263 C1256 1.409 . S
C1263 C1262 1.362 . S
H1264 C1270 0.930 . S
H1265 C1273 0.930 . S
H1266 C1274 0.930 . S
H1267 C1275 0.930 . S
H1268 C1278 0.930 . S
H1269 C1279 0.930 . S
C1270 H1264 0.930 . S
C1270 C1271 1.355 . S
C1270 C1272 1.415 . S
C1271 C1270 1.355 . S
C1271 C1273 1.419 . S
C1272 C1270 1.415 . S
C1272 C1277 1.425 . S
C1272 C1279 1.409 . S
C1273 H1265 0.930 . S
C1273 C1271 1.419 . S
C1273 C1274 1.362 . S
C1274 H1266 0.930 . S
C1274 C1273 1.362 . S
C1274 C1277 1.409 . S
C1275 H1267 0.930 . S
C1275 C1276 1.355 . S
C1275 C1277 1.415 . S
C1276 C1275 1.355 . S
C1276 C1278 1.419 . S
C1277 C1272 1.425 . S
C1277 C1274 1.409 . S
C1277 C1275 1.415 . S
C1278 H1268 0.930 . S
C1278 C1276 1.419 . S
C1278 C1279 1.362 . S
C1279 H1269 0.930 . S
C1279 C1272 1.409 . S
C1279 C1278 1.362 . S
H1280 C1286 0.930 . S
H1281 C1289 0.930 . S
H1282 C1290 0.930 . S
H1283 C1291 0.930 . S
H1284 C1294 0.930 . S
H1285 C1295 0.930 . S
C1286 H1280 0.930 . S
C1286 C1287 1.355 . S
C1286 C1288 1.415 . S
C1287 C1286 1.355 . S
C1287 C1289 1.419 . S
C1288 C1286 1.415 . S
C1288 C1293 1.425 . S
C1288 C1295 1.409 . S
C1289 H1281 0.930 . S
C1289 C1287 1.419 . S
C1289 C1290 1.362 . S
C1290 H1282 0.930 . S
C1290 C1289 1.362 . S
C1290 C1293 1.409 . S
C1291 H1283 0.930 . S
C1291 C1292 1.355 . S
C1291 C1293 1.415 . S
C1292 C1291 1.355 . S
C1292 C1294 1.419 . S
C1293 C1288 1.425 . S
C1293 C1290 1.409 . S
C1293 C1291 1.415 . S
C1294 H1284 0.930 . S
C1294 C1292 1.419 . S
C1294 C1295 1.362 . S
C1295 H1285 0.930 . S
C1295 C1288 1.409 . S
C1295 C1294 1.362 . S
H1296 C1302 0.930 . S
H1297 C1305 0.930 . S
H1298 C1306 0.930 . S
H1299 C1307 0.930 . S
H1300 C1310 0.930 . S
H1301 C1311 0.930 . S
C1302 H1296 0.930 . S
C1302 C1303 1.355 . S
C1302 C1304 1.415 . S
C1303 C1302 1.355 . S
C1303 C1305 1.419 . S
C1304 C1302 1.415 . S
C1304 C1309 1.425 . S
C1304 C1311 1.409 . S
C1305 H1297 0.930 . S
C1305 C1303 1.419 . S
C1305 C1306 1.362 . S
C1306 H1298 0.930 . S
C1306 C1305 1.362 . S
C1306 C1309 1.409 . S
C1307 H1299 0.930 . S
C1307 C1308 1.355 . S
C1307 C1309 1.415 . S
C1308 C1307 1.355 . S
C1308 C1310 1.419 . S
C1309 C1304 1.425 . S
C1309 C1306 1.409 . S
C1309 C1307 1.415 . S
C1310 H1300 0.930 . S
C1310 C1308 1.419 . S
C1310 C1311 1.362 . S
C1311 H1301 0.930 . S
C1311 C1304 1.409 . S
C1311 C1310 1.362 . S
H1312 C1318 0.930 . S
H1313 C1321 0.930 . S
H1314 C1322 0.930 . S
H1315 C1323 0.930 . S
H1316 C1326 0.930 . S
H1317 C1327 0.930 . S
C1318 H1312 0.930 . S
C1318 C1319 1.355 . S
C1318 C1320 1.415 . S
C1319 C1318 1.355 . S
C1319 C1321 1.419 . S
C1320 C1318 1.415 . S
C1320 C1325 1.425 . S
C1320 C1327 1.409 . S
C1321 H1313 0.930 . S
C1321 C1319 1.419 . S
C1321 C1322 1.362 . S
C1322 H1314 0.930 . S
C1322 C1321 1.362 . S
C1322 C1325 1.409 . S
C1323 H1315 0.930 . S
C1323 C1324 1.355 . S
C1323 C1325 1.415 . S
C1324 C1323 1.355 . S
C1324 C1326 1.419 . S
C1325 C1320 1.425 . S
C1325 C1322 1.409 . S
C1325 C1323 1.415 . S
C1326 H1316 0.930 . S
C1326 C1324 1.419 . S
C1326 C1327 1.362 . S
C1327 H1317 0.930 . S
C1327 C1320 1.409 . S
C1327 C1326 1.362 . S
H1328 C1334 0.930 . S
H1329 C1337 0.930 . S
H1330 C1338 0.930 . S
H1331 C1339 0.930 . S
H1332 C1342 0.930 . S
H1333 C1343 0.930 . S
C1334 H1328 0.930 . S
C1334 C1335 1.355 . S
C1334 C1336 1.415 . S
C1335 C1334 1.355 . S
C1335 C1337 1.419 . S
C1336 C1334 1.415 . S
C1336 C1341 1.425 . S
C1336 C1343 1.409 . S
C1337 H1329 0.930 . S
C1337 C1335 1.419 . S
C1337 C1338 1.362 . S
C1338 H1330 0.930 . S
C1338 C1337 1.362 . S
C1338 C1341 1.409 . S
C1339 H1331 0.930 . S
C1339 C1340 1.355 . S
C1339 C1341 1.415 . S
C1340 C1339 1.355 . S
C1340 C1342 1.419 . S
C1341 C1336 1.425 . S
C1341 C1338 1.409 . S
C1341 C1339 1.415 . S
C1342 H1332 0.930 . S
C1342 C1340 1.419 . S
C1342 C1343 1.362 . S
C1343 H1333 0.930 . S
C1343 C1336 1.409 . S
C1343 C1342 1.362 . S
H1344 C1350 0.930 . S
H1345 C1353 0.930 . S
H1346 C1354 0.930 . S
H1347 C1355 0.930 . S
H1348 C1358 0.930 . S
H1349 C1359 0.930 . S
C1350 H1344 0.930 . S
C1350 C1351 1.355 . S
C1350 C1352 1.415 . S
C1351 C1350 1.355 . S
C1351 C1353 1.419 . S
C1352 C1350 1.415 . S
C1352 C1357 1.425 . S
C1352 C1359 1.409 . S
C1353 H1345 0.930 . S
C1353 C1351 1.419 . S
C1353 C1354 1.362 . S
C1354 H1346 0.930 . S
C1354 C1353 1.362 . S
C1354 C1357 1.409 . S
C1355 H1347 0.930 . S
C1355 C1356 1.355 . S
C1355 C1357 1.415 . S
C1356 C1355 1.355 . S
C1356 C1358 1.419 . S
C1357 C1352 1.425 . S
C1357 C1354 1.409 . S
C1357 C1355 1.415 . S
C1358 H1348 0.930 . S
C1358 C1356 1.419 . S
C1358 C1359 1.362 . S
C1359 H1349 0.930 . S
C1359 C1352 1.409 . S
C1359 C1358 1.362 . S
H1360 C1366 0.930 . S
H1361 C1369 0.930 . S
H1362 C1370 0.930 . S
H1363 C1371 0.930 . S
H1364 C1374 0.930 . S
H1365 C1375 0.930 . S
C1366 H1360 0.930 . S
C1366 C1367 1.355 . S
C1366 C1368 1.415 . S
C1367 C1366 1.355 . S
C1367 C1369 1.419 . S
C1368 C1366 1.415 . S
C1368 C1373 1.425 . S
C1368 C1375 1.409 . S
C1369 H1361 0.930 . S
C1369 C1367 1.419 . S
C1369 C1370 1.362 . S
C1370 H1362 0.930 . S
C1370 C1369 1.362 . S
C1370 C1373 1.409 . S
C1371 H1363 0.930 . S
C1371 C1372 1.355 . S
C1371 C1373 1.415 . S
C1372 C1371 1.355 . S
C1372 C1374 1.419 . S
C1373 C1368 1.425 . S
C1373 C1370 1.409 . S
C1373 C1371 1.415 . S
C1374 H1364 0.930 . S
C1374 C1372 1.419 . S
C1374 C1375 1.362 . S
C1375 H1365 0.930 . S
C1375 C1368 1.409 . S
C1375 C1374 1.362 . S
H1376 C1382 0.930 . S
H1377 C1385 0.930 . S
H1378 C1386 0.930 . S
H1379 C1387 0.930 . S
H1380 C1390 0.930 . S
H1381 C1391 0.930 . S
C1382 H1376 0.930 . S
C1382 C1383 1.355 . S
C1382 C1384 1.415 . S
C1383 C1382 1.355 . S
C1383 C1385 1.419 . S
C1384 C1382 1.415 . S
C1384 C1389 1.425 . S
C1384 C1391 1.409 . S
C1385 H1377 0.930 . S
C1385 C1383 1.419 . S
C1385 C1386 1.362 . S
C1386 H1378 0.930 . S
C1386 C1385 1.362 . S
C1386 C1389 1.409 . S
C1387 H1379 0.930 . S
C1387 C1388 1.355 . S
C1387 C1389 1.415 . S
C1388 C1387 1.355 . S
C1388 C1390 1.419 . S
C1389 C1384 1.425 . S
C1389 C1386 1.409 . S
C1389 C1387 1.415 . S
C1390 H1380 0.930 . S
C1390 C1388 1.419 . S
C1390 C1391 1.362 . S
C1391 H1381 0.930 . S
C1391 C1384 1.409 . S
C1391 C1390 1.362 . S
H1392 C1398 0.930 . S
H1393 C1401 0.930 . S
H1394 C1402 0.930 . S
H1395 C1403 0.930 . S
H1396 C1406 0.930 . S
H1397 C1407 0.930 . S
C1398 H1392 0.930 . S
C1398 C1399 1.355 . S
C1398 C1400 1.415 . S
C1399 C1398 1.355 . S
C1399 C1401 1.419 . S
C1400 C1398 1.415 . S
C1400 C1405 1.425 . S
C1400 C1407 1.409 . S
C1401 H1393 0.930 . S
C1401 C1399 1.419 . S
C1401 C1402 1.362 . S
C1402 H1394 0.930 . S
C1402 C1401 1.362 . S
C1402 C1405 1.409 . S
C1403 H1395 0.930 . S
C1403 C1404 1.355 . S
C1403 C1405 1.415 . S
C1404 C1403 1.355 . S
C1404 C1406 1.419 . S
C1405 C1400 1.425 . S
C1405 C1402 1.409 . S
C1405 C1403 1.415 . S
C1406 H1396 0.930 . S
C1406 C1404 1.419 . S
C1406 C1407 1.362 . S
C1407 H1397 0.930 . S
C1407 C1400 1.409 . S
C1407 C1406 1.362 . S
H1408 C1414 0.930 . S
H1409 C1417 0.930 . S
H1410 C1418 0.930 . S
H1411 C1419 0.930 . S
H1412 C1422 0.930 . S
H1413 C1423 0.930 . S
C1414 H1408 0.930 . S
C1414 C1415 1.355 . S
C1414 C1416 1.415 . S
C1415 C1414 1.355 . S
C1415 C1417 1.419 . S
C1416 C1414 1.415 . S
C1416 C1421 1.425 . S
C1416 C1423 1.409 . S
C1417 H1409 0.930 . S
C1417 C1415 1.419 . S
C1417 C1418 1.362 . S
C1418 H1410 0.930 . S
C1418 C1417 1.362 . S
C1418 C1421 1.409 . S
C1419 H1411 0.930 . S
C1419 C1420 1.355 . S
C1419 C1421 1.415 . S
C1420 C1419 1.355 . S
C1420 C1422 1.419 . S
C1421 C1416 1.425 . S
C1421 C1418 1.409 . S
C1421 C1419 1.415 . S
C1422 H1412 0.930 . S
C1422 C1420 1.419 . S
C1422 C1423 1.362 . S
C1423 H1413 0.930 . S
C1423 C1416 1.409 . S
C1423 C1422 1.362 . S
H1424 C1430 0.930 . S
H1425 C1433 0.930 . S
H1426 C1434 0.930 . S
H1427 C1435 0.930 . S
H1428 C1438 0.930 . S
H1429 C1439 0.930 . S
C1430 H1424 0.930 . S
C1430 C1431 1.355 . S
C1430 C1432 1.415 . S
C1431 C1430 1.355 . S
C1431 C1433 1.419 . S
C1432 C1430 1.415 . S
C1432 C1437 1.425 . S
C1432 C1439 1.409 . S
C1433 H1425 0.930 . S
C1433 C1431 1.419 . S
C1433 C1434 1.362 . S
C1434 H1426 0.930 . S
C1434 C1433 1.362 . S
C1434 C1437 1.409 . S
C1435 H1427 0.930 . S
C1435 C1436 1.355 . S
C1435 C1437 1.415 . S
C1436 C1435 1.355 . S
C1436 C1438 1.419 . S
C1437 C1432 1.425 . S
C1437 C1434 1.409 . S
C1437 C1435 1.415 . S
C1438 H1428 0.930 . S
C1438 C1436 1.419 . S
C1438 C1439 1.362 . S
C1439 H1429 0.930 . S
C1439 C1432 1.409 . S
C1439 C1438 1.362 . S
H1440 C1446 0.930 . S
H1441 C1449 0.930 . S
H1442 C1450 0.930 . S
H1443 C1451 0.930 . S
H1444 C1454 0.930 . S
H1445 C1455 0.930 . S
C1446 H1440 0.930 . S
C1446 C1447 1.355 . S
C1446 C1448 1.415 . S
C1447 C1446 1.355 . S
C1447 C1449 1.419 . S
C1448 C1446 1.415 . S
C1448 C1453 1.425 . S
C1448 C1455 1.409 . S
C1449 H1441 0.930 . S
C1449 C1447 1.419 . S
C1449 C1450 1.362 . S
C1450 H1442 0.930 . S
C1450 C1449 1.362 . S
C1450 C1453 1.409 . S
C1451 H1443 0.930 . S
C1451 C1452 1.355 . S
C1451 C1453 1.415 . S
C1452 C1451 1.355 . S
C1452 C1454 1.419 . S
C1453 C1448 1.425 . S
C1453 C1450 1.409 . S
C1453 C1451 1.415 . S
C1454 H1444 0.930 . S
C1454 C1452 1.419 . S
C1454 C1455 1.362 . S
C1455 H1445 0.930 . S
C1455 C1448 1.409 . S
C1455 C1454 1.362 . S
H1456 C1462 0.930 . S
H1457 C1465 0.930 . S
H1458 C1466 0.930 . S
H1459 C1467 0.930 . S
H1460 C1470 0.930 . S
H1461 C1471 0.930 . S
C1462 H1456 0.930 . S
C1462 C1463 1.355 . S
C1462 C1464 1.415 . S
C1463 C1462 1.355 . S
C1463 C1465 1.419 . S
C1464 C1462 1.415 . S
C1464 C1469 1.425 . S
C1464 C1471 1.409 . S
C1465 H1457 0.930 . S
C1465 C1463 1.419 . S
C1465 C1466 1.362 . S
C1466 H1458 0.930 . S
C1466 C1465 1.362 . S
C1466 C1469 1.409 . S
C1467 H1459 0.930 . S
C1467 C1468 1.355 . S
C1467 C1469 1.415 . S
C1468 C1467 1.355 . S
C1468 C1470 1.419 . S
C1469 C1464 1.425 . S
C1469 C1466 1.409 . S
C1469 C1467 1.415 . S
C1470 H1460 0.930 . S
C1470 C1468 1.419 . S
C1470 C1471 1.362 . S
C1471 H1461 0.930 . S
C1471 C1464 1.409 . S
C1471 C1470 1.362 . S
H1472 C1478 0.930 . S
H1473 C1481 0.930 . S
H1474 C1482 0.930 . S
H1475 C1483 0.930 . S
H1476 C1486 0.930 . S
H1477 C1487 0.930 . S
C1478 H1472 0.930 . S
C1478 C1479 1.355 . S
C1478 C1480 1.415 . S
C1479 C1478 1.355 . S
C1479 C1481 1.419 . S
C1480 C1478 1.415 . S
C1480 C1485 1.425 . S
C1480 C1487 1.409 . S
C1481 H1473 0.930 . S
C1481 C1479 1.419 . S
C1481 C1482 1.362 . S
C1482 H1474 0.930 . S
C1482 C1481 1.362 . S
C1482 C1485 1.409 . S
C1483 H1475 0.930 . S
C1483 C1484 1.355 . S
C1483 C1485 1.415 . S
C1484 C1483 1.355 . S
C1484 C1486 1.419 . S
C1485 C1480 1.425 . S
C1485 C1482 1.409 . S
C1485 C1483 1.415 . S
C1486 H1476 0.930 . S
C1486 C1484 1.419 . S
C1486 C1487 1.362 . S
C1487 H1477 0.930 . S
C1487 C1480 1.409 . S
C1487 C1486 1.362 . S
H1488 C1494 0.930 . S
H1489 C1497 0.923 1_554 S
H1490 C1498 0.930 . S
H1491 C1499 0.930 . S
H1492 C1502 0.923 1_556 S
H1493 C1503 0.930 . S
C1494 H1488 0.930 . S
C1494 C1495 1.355 . S
C1494 C1496 1.415 . S
C1495 C1494 1.355 . S
C1495 C1497 1.451 . S
C1496 C1494 1.415 . S
C1496 C1501 1.425 1_556 S
C1496 C1503 1.409 . S
C1497 H1489 0.923 1_556 S
C1497 C1495 1.451 . S
C1497 C1498 1.338 1_556 S
C1498 H1490 0.930 . S
C1498 C1497 1.338 1_554 S
C1498 C1501 1.409 . S
C1499 H1491 0.930 . S
C1499 C1500 1.355 . S
C1499 C1501 1.415 . S
C1500 C1499 1.355 . S
C1500 C1502 1.451 . S
C1501 C1496 1.425 1_554 S
C1501 C1498 1.409 . S
C1501 C1499 1.415 . S
C1502 H1492 0.923 1_554 S
C1502 C1500 1.451 . S
C1502 C1503 1.338 1_554 S
C1503 H1493 0.930 . S
C1503 C1496 1.409 . S
C1503 C1502 1.338 1_556 S
H1504 C1510 0.930 . S
H1505 C1513 0.930 . S
H1506 C1514 0.930 . S
H1507 C1515 0.930 . S
H1508 C1518 0.930 . S
H1509 C1519 0.930 . S
C1510 H1504 0.930 . S
C1510 C1511 1.355 . S
C1510 C1512 1.415 . S
C1511 C1510 1.355 . S
C1511 C1513 1.419 . S
C1512 C1510 1.415 . S
C1512 C1517 1.425 1_455 S
C1512 C1519 1.409 1_455 S
C1513 H1505 0.930 . S
C1513 C1511 1.419 . S
C1513 C1514 1.362 . S
C1514 H1506 0.930 . S
C1514 C1513 1.362 . S
C1514 C1517 1.409 1_455 S
C1515 H1507 0.930 . S
C1515 C1516 1.355 . S
C1515 C1517 1.415 . S
C1516 C1515 1.355 . S
C1516 C1518 1.419 . S
C1517 C1512 1.425 1_655 S
C1517 C1514 1.409 1_655 S
C1517 C1515 1.415 . S
C1518 H1508 0.930 . S
C1518 C1516 1.419 . S
C1518 C1519 1.362 . S
C1519 H1509 0.930 . S
C1519 C1512 1.409 1_655 S
C1519 C1518 1.362 . S
H1520 C1526 0.930 1_556 S
H1521 C1529 0.930 . S
H1522 C1530 0.930 . S
H1523 C1531 0.930 1_554 S
H1524 C1534 0.930 . S
H1525 C1535 0.930 . S
C1526 H1520 0.930 1_554 S
C1526 C1527 1.355 . S
C1526 C1528 1.415 1_554 S
C1527 C1526 1.355 . S
C1527 C1529 1.419 . S
C1528 C1526 1.415 1_556 S
C1528 C1533 1.425 1_566 S
C1528 C1535 1.409 . S
C1529 H1521 0.930 . S
C1529 C1527 1.419 . S
C1529 C1530 1.362 1_565 S
C1530 H1522 0.930 . S
C1530 C1529 1.362 1_545 S
C1530 C1533 1.409 . S
C1531 H1523 0.930 1_556 S
C1531 C1532 1.355 . S
C1531 C1533 1.415 1_556 S
C1532 C1531 1.355 . S
C1532 C1534 1.419 . S
C1533 C1528 1.425 1_544 S
C1533 C1530 1.409 . S
C1533 C1531 1.415 1_554 S
C1534 H1524 0.930 . S
C1534 C1532 1.419 . S
C1534 C1535 1.362 1_545 S
C1535 H1525 0.930 . S
C1535 C1528 1.409 . S
C1535 C1534 1.362 1_565 S
H1536 C1542 0.930 . S
H1537 C1545 0.930 . S
H1538 C1546 0.930 . S
H1539 C1547 0.930 . S
H1540 C1550 0.930 . S
H1541 C1551 0.930 . S
C1542 H1536 0.930 . S
C1542 C1543 1.355 . S
C1542 C1544 1.415 . S
C1543 C1542 1.355 . S
C1543 C1545 1.419 . S
C1544 C1542 1.415 . S
C1544 C1549 1.425 . S
C1544 C1551 1.409 . S
C1545 H1537 0.930 . S
C1545 C1543 1.419 . S
C1545 C1546 1.362 . S
C1546 H1538 0.930 . S
C1546 C1545 1.362 . S
C1546 C1549 1.409 . S
C1547 H1539 0.930 . S
C1547 C1548 1.355 . S
C1547 C1549 1.415 . S
C1548 C1547 1.355 . S
C1548 C1550 1.419 . S
C1549 C1544 1.425 . S
C1549 C1546 1.409 . S
C1549 C1547 1.415 . S
C1550 H1540 0.930 . S
C1550 C1548 1.419 . S
C1550 C1551 1.362 . S
C1551 H1541 0.930 . S
C1551 C1544 1.409 . S
C1551 C1550 1.362 . S
H1552 C1558 0.930 . S
H1553 C1561 0.930 . S
H1554 C1562 0.930 . S
H1555 C1563 0.930 . S
H1556 C1566 0.930 . S
H1557 C1567 0.930 . S
C1558 H1552 0.930 . S
C1558 C1559 1.355 . S
C1558 C1560 1.415 1_655 S
C1559 C1558 1.355 . S
C1559 C1561 1.419 . S
C1560 C1558 1.415 1_455 S
C1560 C1565 1.425 1_456 S
C1560 C1567 1.409 . S
C1561 H1553 0.930 . S
C1561 C1559 1.419 . S
C1561 C1562 1.362 1_556 S
C1562 H1554 0.930 . S
C1562 C1561 1.362 1_554 S
C1562 C1565 1.409 . S
C1563 H1555 0.930 . S
C1563 C1564 1.355 . S
C1563 C1565 1.415 1_455 S
C1564 C1563 1.355 . S
C1564 C1566 1.419 . S
C1565 C1560 1.425 1_654 S
C1565 C1562 1.409 . S
C1565 C1563 1.415 1_655 S
C1566 H1556 0.930 . S
C1566 C1564 1.419 . S
C1566 C1567 1.362 1_554 S
C1567 H1557 0.930 . S
C1567 C1560 1.409 . S
C1567 C1566 1.362 1_556 S
H1568 C1574 0.930 . S
H1569 C1577 0.930 . S
H1570 C1578 0.930 . S
H1571 C1579 0.930 . S
H1572 C1582 0.930 . S
H1573 C1583 0.930 . S
C1574 H1568 0.930 . S
C1574 C1575 1.355 . S
C1574 C1576 1.415 . S
C1575 C1574 1.355 . S
C1575 C1577 1.419 . S
C1576 C1574 1.415 . S
C1576 C1581 1.425 1_565 S
C1576 C1583 1.409 . S
C1577 H1569 0.930 . S
C1577 C1575 1.419 . S
C1577 C1578 1.362 1_565 S
C1578 H1570 0.930 . S
C1578 C1577 1.362 1_545 S
C1578 C1581 1.409 . S
C1579 H1571 0.930 . S
C1579 C1580 1.355 . S
C1579 C1581 1.415 . S
C1580 C1579 1.355 . S
C1580 C1582 1.419 . S
C1581 C1576 1.425 1_545 S
C1581 C1578 1.409 . S
C1581 C1579 1.415 . S
C1582 H1572 0.930 . S
C1582 C1580 1.419 . S
C1582 C1583 1.362 1_545 S
C1583 H1573 0.930 . S
C1583 C1576 1.409 . S
C1583 C1582 1.362 1_565 S
C1015 C403 1.356 . S
C1020 C58 1.151 . S
C1031 C487 1.392 . S
C1036 C142 1.274 . S
C1047 C226 1.265 . S
C1052 C67 1.392 . S
C1063 C310 1.193 . S
C1068 C151 1.361 . S
C1079 C394 1.276 . S
C1084 C235 1.383 . S
C1095 C319 1.384 . S
C1100 C478 1.219 . S
C1111 C739 1.358 . S
C1116 C562 1.177 . S
C1127 C646 1.222 . S
C1132 C823 1.367 . S
C1143 C907 1.357 . S
C1148 C730 1.169 . S
C1159 C814 1.207 . S
C1164 C991 1.364 . S
C1175 C898 1.283 . S
C1180 C571 1.388 . S
C1191 C655 1.388 . S
C1196 C982 1.239 . S
C1207 C392 1.435 . S
C1212 C69 1.237 . S
C1223 C153 1.349 . S
C1228 C476 1.457 . S
C1239 C237 1.334 . S
C1244 C56 1.459 . S
C1255 C321 1.294 . S
C1260 C140 1.455 . S
C1271 C224 1.459 . S
C1276 C405 1.334 . S
C1287 C308 1.433 . S
C1292 C489 1.338 . S
C1303 C728 1.453 . S
C1308 C573 1.354 . S
C1319 C657 1.308 . S
C1324 C812 1.457 . S
C1335 C741 1.335 . S
C1340 C896 1.459 . S
C1351 C980 1.413 . S
C1356 C825 1.253 . S
C1367 C909 1.346 . S
C1372 C560 1.438 . S
C1383 C644 1.447 . S
C1388 C993 1.265 . S
C1399 C914 1.773 . S
C1404 C74 1.818 . S
C1415 C158 1.833 . S
C1420 C998 1.777 . S
C1431 C242 1.807 . S
C1436 C578 1.775 . S
C1447 C326 1.791 . S
C1452 C662 1.783 . S
C1463 C410 1.832 . S
C1468 C746 1.844 . S
C1479 C830 1.799 . S
C1484 C494 1.778 . S
C1495 C819 1.964 . S
C1500 C63 1.980 . S
C1511 C903 1.976 . S
C1516 C147 1.950 . S
C1527 C231 1.955 . S
C1532 C987 1.941 . S
C1543 C315 1.980 . S
C1548 C567 1.962 . S
C1559 C651 1.959 . S
C1564 C399 1.980 . S
C1575 C735 1.951 . S
C1580 C483 1.942 . S
