# Generated by pormake.
# Topology snp, (6)-cn, num edge types: 1
# Building blocks:
#     Node 0, Type 0, BuildingBlock: KUMBUR_clean_sbu_0, # of connection points: 6
#     Node 1, Type 0, BuildingBlock: KUMBUR_clean_sbu_0, # of connection points: 6
#     Node 2, Type 0, BuildingBlock: KUMBUR_clean_sbu_0, # of connection points: 6
#     Node 3, Type 0, BuildingBlock: KUMBUR_clean_sbu_0, # of connection points: 6
#     Edge 4, Type (0, 0), BuildingBlock: CIFDUS_clean_linker_0, # of connection points: 2
#     Edge 5, Type (0, 0), BuildingBlock: CIFDUS_clean_linker_0, # of connection points: 2
#     Edge 6, Type (0, 0), BuildingBlock: CIFDUS_clean_linker_0, # of connection points: 2
#     Edge 7, Type (0, 0), BuildingBlock: CIFDUS_clean_linker_0, # of connection points: 2
#     Edge 8, Type (0, 0), BuildingBlock: CIFDUS_clean_linker_0, # of connection points: 2
#     Edge 9, Type (0, 0), BuildingBlock: CIFDUS_clean_linker_0, # of connection points: 2
#     Edge 10, Type (0, 0), BuildingBlock: CIFDUS_clean_linker_0, # of connection points: 2
#     Edge 11, Type (0, 0), BuildingBlock: CIFDUS_clean_linker_0, # of connection points: 2
#     Edge 12, Type (0, 0), BuildingBlock: CIFDUS_clean_linker_0, # of connection points: 2
#     Edge 13, Type (0, 0), BuildingBlock: CIFDUS_clean_linker_0, # of connection points: 2
#     Edge 14, Type (0, 0), BuildingBlock: CIFDUS_clean_linker_0, # of connection points: 2
#     Edge 15, Type (0, 0), BuildingBlock: CIFDUS_clean_linker_0, # of connection points: 2
# Relax obj value: 0.239
# Max RMSD: 0.271
# Mean RMSD: 0.243
data_MOF--net-snp--node1-KUMBUR_clean_sbu_0--edge1-CIFDUS_clean_linker_0
_symmetry_space_group_name_H-M    P1
_symmetry_Int_Tables_number       1
_symmetry_cell_setting            triclinic
loop_
_symmetry_equiv_pos_as_xyz
'x, y, z'
_cell_length_a     21.721994
_cell_length_b     23.507033
_cell_length_c     29.666356
_cell_angle_alpha  117.50016
_cell_angle_beta   95.763531
_cell_angle_gamma 96.132982
loop_
_atom_site_label
_atom_site_type_symbol
_atom_site_fract_x
_atom_site_fract_y
_atom_site_fract_z
_atom_type_partial_charge
Tb0 Tb 0.39721 0.17979 0.27349 0.0
C1 C 0.45734 0.91709 0.24041 0.0
C2 C 0.41796 0.83612 0.1517 0.0
C3 C 0.50692 0.82184 0.19984 0.0
C4 C 0.41519 0.89522 0.19548 0.0
C5 C 0.50373 0.88075 0.24328 0.0
C6 C 0.46417 0.79962 0.15408 0.0
C7 C 0.54064 0.96402 0.33147 0.0
N8 N 0.454 0.97545 0.28088 0.0
C9 C 0.49396 0.9985 0.32669 0.0
C10 C 0.54573 0.90502 0.28955 0.0
Tb11 Tb 0.37224 0.02489 0.27009 0.0
N12 N 0.37133 0.93192 0.1948 0.0
C13 C 0.32723 0.91087 0.15172 0.0
C14 C 0.37407 0.81544 0.10699 0.0
C15 C 0.32835 0.85293 0.1071 0.0
H16 H 0.49095 0.04403 0.35945 0.0
H17 H 0.29373 0.83712 0.07291 0.0
H18 H 0.46713 0.75411 0.12084 0.0
H19 H 0.5727 0.98302 0.36753 0.0
H20 H 0.29105 0.93855 0.1513 0.0
H21 H 0.58606 0.24564 0.43684 0.0
H22 H 0.3747 0.77045 0.07244 0.0
H23 H 0.27375 0.24921 0.2684 0.0
H24 H 0.5234 0.17338 0.35395 0.0
H25 H 0.228 0.3418 0.32564 0.0
H26 H 0.54232 0.79324 0.20118 0.0
H27 H 0.55563 0.35019 0.49362 0.0
H28 H 0.47668 0.42363 0.51076 0.0
H29 H 0.58211 0.87861 0.29335 0.0
H30 H 0.37673 0.44685 0.48254 0.0
N31 N 0.46068 0.23925 0.35532 0.0
C32 C 0.51084 0.22055 0.37423 0.0
C33 C 0.52868 0.31959 0.45527 0.0
C34 C 0.47427 0.336 0.43875 0.0
C35 C 0.54619 0.26092 0.42324 0.0
C36 C 0.44054 0.29424 0.38833 0.0
H37 H 0.28311 0.41571 0.4146 0.0
N38 N 0.35104 0.26469 0.32548 0.0
C39 C 0.27128 0.33205 0.33992 0.0
C40 C 0.38358 0.3067 0.37314 0.0
C41 C 0.29681 0.27841 0.30788 0.0
C42 C 0.30271 0.37382 0.38987 0.0
C43 C 0.35994 0.36205 0.40686 0.0
O44 O 0.35311 0.19721 0.21541 0.0
O45 O 0.37107 0.07541 0.22478 0.0
O46 O 0.46951 0.04159 0.25594 0.0
O47 O 0.4894 0.15007 0.27128 0.0
O48 O 0.42813 0.12357 0.19955 0.0
O49 O 0.44152 0.25582 0.26318 0.0
O50 O 0.34594 0.01091 0.33125 0.0
O51 O 0.36337 0.12604 0.30944 0.0
O52 O 0.29549 0.14781 0.26673 0.0
O53 O 0.2858 0.03535 0.22964 0.0
O54 O 0.40127 0.09267 0.35345 0.0
O55 O 0.29227 0.95482 0.25527 0.0
C56 C 0.39788 0.06674 0.18657 0.0
C57 C 0.38097 0.3008 0.21996 0.0
C58 C 0.36188 0.3504 0.1644 0.0
C59 C 0.37079 0.29574 0.17047 0.0
C60 C 0.36045 0.40953 0.20829 0.0
C61 C 0.38058 0.36066 0.26334 0.0
C62 C 0.36914 0.41433 0.25733 0.0
C63 C 0.50671 0.09264 0.25895 0.0
C64 C 0.39801 0.24462 0.2249 0.0
C65 C 0.39418 0.40425 0.45623 0.0
C66 C 0.45126 0.39128 0.47213 0.0
C67 C 0.37801 0.14192 0.3561 0.0
C68 C 0.28847 0.90987 0.31351 0.0
C69 C 0.26919 0.91913 0.36037 0.0
C70 C 0.25657 0.86634 0.37094 0.0
C71 C 0.26401 0.80422 0.33299 0.0
C72 C 0.29668 0.84772 0.27754 0.0
C73 C 0.28444 0.79539 0.28733 0.0
C74 C 0.2609 0.0886 0.23981 0.0
C75 C 0.29832 0.96564 0.30287 0.0
H76 H 0.3733 0.25024 0.13696 0.0
H77 H 0.35374 0.45234 0.20466 0.0
H78 H 0.39039 0.36645 0.30184 0.0
H79 H 0.36879 0.46035 0.29094 0.0
H80 H 0.26427 0.96768 0.38839 0.0
H81 H 0.25283 0.7615 0.33765 0.0
H82 H 0.31192 0.83945 0.24165 0.0
H83 H 0.28998 0.74728 0.25896 0.0
Tb84 Tb 0.06046 0.31773 0.61114 0.0
C85 C 0.34316 0.35519 0.68997 0.0
C86 C 0.37722 0.25961 0.62684 0.0
C87 C 0.45184 0.36065 0.67681 0.0
C88 C 0.32966 0.29072 0.6526 0.0
C89 C 0.40463 0.39069 0.70334 0.0
C90 C 0.43812 0.29521 0.63856 0.0
C91 C 0.36915 0.4811 0.77064 0.0
N92 N 0.2964 0.38235 0.71472 0.0
C93 C 0.30904 0.44367 0.75613 0.0
C94 C 0.41705 0.45474 0.74376 0.0
Tb95 Tb 0.19975 0.31749 0.68887 0.0
N96 N 0.27021 0.25812 0.64247 0.0
C97 C 0.25627 0.19275 0.60851 0.0
C98 C 0.36235 0.19351 0.59062 0.0
C99 C 0.30174 0.15985 0.58178 0.0
H100 H 0.27219 0.4643 0.77711 0.0
H101 H 0.28991 0.10846 0.55432 0.0
H102 H 0.47516 0.27231 0.6189 0.0
H103 H 0.37851 0.53014 0.80262 0.0
H104 H 0.20993 0.16532 0.60061 0.0
H105 H 0.96287 0.50545 0.75973 0.0
H106 H 0.39745 0.16787 0.56986 0.0
H107 H 0.98995 0.17804 0.51045 0.0
H108 H 0.04268 0.46123 0.70593 0.0
H109 H 0.88703 0.10547 0.48203 0.0
H110 H 0.49929 0.38721 0.68621 0.0
H111 H 0.86119 0.43568 0.74466 0.0
H112 H 0.78875 0.32821 0.69043 0.0
H113 H 0.46367 0.48369 0.75523 0.0
H114 H 0.76776 0.21921 0.61438 0.0
N115 N 0.98846 0.36574 0.66192 0.0
C116 C -0.00108 0.42973 0.69896 0.0
C117 C 0.89637 0.41566 0.72112 0.0
C118 C 0.88429 0.35149 0.68096 0.0
C119 C 0.95363 0.45522 0.72964 0.0
C120 C 0.93179 0.32787 0.65162 0.0
H121 H 0.80387 0.13598 0.53588 0.0
N122 N 0.96627 0.24759 0.58083 0.0
C123 C 0.89584 0.1505 0.5181 0.0
C124 C 0.91999 0.26677 0.6092 0.0
C125 C 0.95408 0.19174 0.53431 0.0
C126 C 0.84906 0.16783 0.54865 0.0
C127 C 0.86041 0.2272 0.59439 0.0
O128 O 0.05375 0.30231 0.53479 0.0
O129 O 0.1577 0.30517 0.61533 0.0
O130 O 0.22284 0.39571 0.66994 0.0
O131 O 0.12106 0.41362 0.65432 0.0
O132 O 0.09862 0.24369 0.54839 0.0
O133 O 0.02761 0.3877 0.59344 0.0
O134 O 0.21729 0.34705 0.76845 0.0
O135 O 0.10178 0.3275 0.68479 0.0
O136 O 0.03812 0.23335 0.62042 0.0
O137 O 0.13785 0.22154 0.64988 0.0
O138 O 0.16166 0.3954 0.7483 0.0
O139 O 0.21484 0.24731 0.71213 0.0
C140 C 0.15638 0.25942 0.57053 0.0
C141 C 0.9678 0.33887 0.50838 0.0
C142 C 0.91219 0.29914 0.4199 0.0
C143 C 0.96873 0.31824 0.45555 0.0
C144 C 0.85496 0.30231 0.43883 0.0
C145 C 0.90985 0.34154 0.52566 0.0
C146 C 0.85401 0.32366 0.49112 0.0
C147 C 0.18296 0.43095 0.66332 0.0
C148 C 0.02693 0.35241 0.5441 0.0
C149 C 0.81372 0.24911 0.62478 0.0
C150 C 0.82569 0.31116 0.66809 0.0
C151 C 0.10287 0.37395 0.72938 0.0
C152 C 0.27998 0.2872 0.79343 0.0
C153 C 0.27415 0.29226 0.84198 0.0
C154 C 0.32629 0.29106 0.87373 0.0
C155 C 0.38423 0.28479 0.85621 0.0
C156 C 0.33814 0.28033 0.77664 0.0
C157 C 0.38991 0.2792 0.80793 0.0
C158 C 0.07718 0.20003 0.63025 0.0
C159 C 0.22507 0.28951 0.76111 0.0
H160 H 0.01358 0.31648 0.44241 0.0
H161 H 0.81038 0.28655 0.41311 0.0
H162 H 0.9075 0.357 0.56583 0.0
H163 H 0.80956 0.3254 0.50484 0.0
H164 H 0.22927 0.29756 0.85514 0.0
H165 H 0.42499 0.2833 0.87964 0.0
H166 H 0.34354 0.27537 0.7393 0.0
H167 H 0.43462 0.27381 0.79464 0.0
Tb168 Tb 0.87141 0.11795 0.03389 0.0
C169 C 0.87379 0.82972 0.96001 0.0
C170 C 0.77651 0.78477 0.89866 0.0
C171 C 0.85978 0.72052 0.88733 0.0
C172 C 0.81393 0.83633 0.94391 0.0
C173 C 0.8971 0.77166 0.93208 0.0
C174 C 0.7997 0.72709 0.87064 0.0
C175 C 0.99257 0.81835 0.99499 0.0
N176 N 0.90973 0.88073 1.00254 0.0
C177 C 0.96765 0.87491 1.02131 0.0
C178 C 0.95737 0.76666 0.94991 0.0
Tb179 Tb 0.86406 0.97047 0.04389 0.0
N180 N 0.79329 0.89355 0.97139 0.0
C181 C 0.73503 0.90127 0.95447 0.0
C182 C 0.7171 0.79276 0.88227 0.0
C183 C 0.69646 0.85126 0.91019 0.0
H184 H 0.99442 0.91419 0.05684 0.0
H185 H 0.65094 0.85835 0.8972 0.0
H186 H 0.77157 0.68727 0.83583 0.0
H187 H 0.03878 0.81458 1.00966 0.0
H188 H 0.71777 0.94646 0.97278 0.0
H189 H 0.02029 0.30857 0.20647 0.0
H190 H 0.68714 0.75438 0.84772 0.0
H191 H 0.72789 0.11045 0.97628 0.0
H192 H 0.99374 0.2041 0.12614 0.0
H193 H 0.64664 0.17927 0.99255 0.0
H194 H 0.87699 0.67571 0.86527 0.0
H195 H 0.94118 0.3809 0.23334 0.0
H196 H 0.83379 0.40313 0.21338 0.0
H197 H 0.97685 0.72288 0.92947 0.0
H198 H 0.7329 0.36883 0.15437 0.0
N199 N 0.90045 0.21481 0.10861 0.0
C200 C 0.95898 0.23456 0.13761 0.0
C201 C 0.92935 0.33468 0.1982 0.0
C202 C 0.87042 0.31583 0.16694 0.0
C203 C 0.9741 0.29408 0.18314 0.0
C204 C 0.85739 0.25496 0.1218 0.0
H205 H 0.66301 0.28578 0.07162 0.0
N206 N 0.79083 0.17676 0.04574 0.0
C207 C 0.68984 0.19573 1.02 0.0
C208 C 0.80098 0.23588 0.08873 0.0
C209 C 0.73639 0.15677 1.01088 0.0
C210 C 0.69925 0.25585 0.06465 0.0
C211 C 0.75544 0.27675 0.09966 0.0
O212 O 0.86372 0.13109 0.96788 0.0
O213 O 0.86764 0.01377 0.99397 0.0
O214 O 0.9534 0.98608 1.0186 0.0
O215 O 0.96772 0.09688 0.04208 0.0
O216 O 0.8112 0.04979 0.96007 0.0
O217 O 0.94659 0.1757 1.0257 0.0
O218 O 0.8324 0.98535 0.11341 0.0
O219 O 0.88151 0.076 0.08582 0.0
O220 O 0.79377 0.11197 0.07488 0.0
O221 O 0.77283 1.00212 0.05373 0.0
O222 O 0.94248 0.02841 0.1063 0.0
O223 O 0.86181 0.89662 0.0658 0.0
C224 C 0.83278 0.99779 0.95208 0.0
C225 C 0.91964 0.2287 0.97603 0.0
C226 C 0.93945 0.28743 0.92638 0.0
C227 C 0.93896 0.23053 0.9322 0.0
C228 C 0.91866 0.34108 0.96463 0.0
C229 C 0.90077 0.2839 1.01348 0.0
C230 C 0.8999 0.3393 1.00763 0.0
C231 C 0.98981 0.04152 1.02942 0.0
C232 C 0.91802 0.16915 0.98223 0.0
C233 C 0.76745 0.33687 0.14509 0.0
C234 C 0.82481 0.35633 0.17875 0.0
C235 C 0.92757 0.08501 0.1197 0.0
C236 C 0.88257 0.93318 0.15551 0.0
C237 C 0.85339 0.9124 0.18712 0.0
C238 C 0.88928 0.91418 0.23044 0.0
C239 C 0.95406 0.93852 0.24237 0.0
C240 C 0.94815 0.95324 0.16688 0.0
C241 C 0.98319 0.95745 0.21059 0.0
C242 C 0.75912 0.0617 0.07477 0.0
C243 C 0.845 0.93082 0.10972 0.0
H244 H 0.95434 0.1883 0.90334 0.0
H245 H 0.91631 0.38477 0.96127 0.0
H246 H 0.88648 0.28431 0.04733 0.0
H247 H 0.88447 0.38127 0.03669 0.0
H248 H 0.80331 0.89407 0.17767 0.0
H249 H 0.98287 0.93991 0.27499 0.0
H250 H 0.97335 0.96436 0.1418 0.0
H251 H 0.03353 0.97377 0.21906 0.0
Tb252 Tb 0.99411 0.77205 0.61025 0.0
C253 C 0.2016 0.00817 0.71003 0.0
C254 C 0.27656 0.98567 0.65199 0.0
C255 C 0.25622 0.09601 0.69977 0.0
C256 C 0.23117 0.96447 0.67424 0.0
C257 C 0.2151 0.07495 0.72485 0.0
C258 C 0.28706 0.05133 0.66331 0.0
C259 C 0.1542 0.0951 0.79286 0.0
N260 N 0.16361 0.98549 0.73366 0.0
C261 C 0.14235 0.02815 0.77646 0.0
C262 C 0.18922 0.1184 0.76596 0.0
Tb263 Tb 0.14006 0.87465 0.70094 0.0
N264 N 0.22013 0.90224 0.6656 0.0
C265 C 0.25853 0.86019 0.63956 0.0
C266 C 0.31232 0.94116 0.62161 0.0
C267 C 0.30452 0.87869 0.61668 0.0
H268 H 0.11395 0.01025 0.79664 0.0
H269 H 0.33346 0.84447 0.59481 0.0
H270 H 0.32089 0.06853 0.64593 0.0
H271 H 0.13552 0.1285 0.8257 0.0
H272 H 0.25302 0.81153 0.63486 0.0
H273 H 0.82323 0.74649 0.72273 0.0
H274 H 0.34783 0.95534 0.60383 0.0
H275 H 0.01102 0.65916 0.49138 0.0
H276 H 0.88478 0.80213 0.68403 0.0
H277 H 0.99316 0.54039 0.44098 0.0
H278 H 0.26669 0.14689 0.70988 0.0
H279 H 0.82167 0.62872 0.69195 0.0
H280 H 0.8479 0.52357 0.62508 0.0
H281 H 0.1976 0.16998 0.77828 0.0
H282 H 0.89182 0.46687 0.54569 0.0
N283 N 0.92764 0.72146 0.64127 0.0
C284 C 0.88872 0.75275 0.67444 0.0
C285 C 0.85108 0.65407 0.67712 0.0
C286 C 0.88343 0.62015 0.63699 0.0
C287 C 0.85199 0.72051 0.6947 0.0
C288 C 0.92093 0.65574 0.61921 0.0
H289 H 0.9447 0.47245 0.47588 0.0
N290 N 0.97525 0.66077 0.55654 0.0
C291 C 0.97988 0.56328 0.47879 0.0
C292 C 0.94468 0.62392 0.57446 0.0
C293 C 0.99023 0.63128 0.50802 0.0
C294 C 0.95267 0.52507 0.49863 0.0
C295 C 0.93337 0.55534 0.54657 0.0
O296 O 0.96908 0.80991 0.56026 0.0
O297 O 0.08763 0.8251 0.62386 0.0
O298 O 0.0766 0.93151 0.6847 0.0
O299 O 0.97788 0.86704 0.66543 0.0
O300 O 0.04522 0.76862 0.54902 0.0
O301 O 0.89804 0.76819 0.58652 0.0
O302 O 0.17183 0.90575 0.77963 0.0
O303 O 0.0458 0.82173 0.68953 0.0
O304 O 0.05675 0.70636 0.61208 0.0
O305 O 0.15488 0.77497 0.65322 0.0
O306 O 0.0885 0.88663 0.76308 0.0
O307 O 0.21279 0.83361 0.72063 0.0
C308 C 0.09537 0.80839 0.57787 0.0
C309 C 0.86968 0.76795 0.50613 0.0
C310 C 0.83548 0.78238 0.43093 0.0
C311 C 0.87695 0.80121 0.47725 0.0
C312 C 0.7868 0.72865 0.41393 0.0
C313 C 0.82129 0.71411 0.48773 0.0
C314 C 0.78034 0.69463 0.44183 0.0
C315 C 0.01438 0.92316 0.67984 0.0
C316 C 0.90934 0.79446 0.55744 0.0
C317 C 0.90065 0.51949 0.56636 0.0
C318 C 0.87575 0.55184 0.61163 0.0
C319 C 0.03876 0.84503 0.73678 0.0
C320 C 0.27665 0.89837 0.8033 0.0
C321 C 0.28585 0.90401 0.8531 0.0
C322 C 0.34554 0.92948 0.88479 0.0
C323 C 0.39559 0.94973 0.86591 0.0
C324 C 0.32721 0.91969 0.78575 0.0
C325 C 0.38631 0.94512 0.81695 0.0
C326 C 0.11827 0.71709 0.62746 0.0
C327 C 0.21442 0.86879 0.77009 0.0
H328 H 0.91504 0.84211 0.49139 0.0
H329 H 0.75273 0.71325 0.37953 0.0
H330 H 0.8143 0.68779 0.50917 0.0
H331 H 0.74261 0.65354 0.42821 0.0
H332 H 0.24683 0.88767 0.86682 0.0
H333 H 0.44182 0.97033 0.88946 0.0
H334 H 0.32115 0.91644 0.74792 0.0
H335 H 0.42516 0.96141 0.80315 0.0
H336 H 0.06555 0.14648 0.10752 0.0
H337 H 0.06425 0.94684 0.99778 0.0
H338 H 0.14414 0.93918 0.05844 0.0
H339 H 0.20296 0.98617 0.1472 0.0
H340 H 0.18603 0.17981 0.26009 0.0
H341 H 0.11913 0.19143 0.19504 0.0
C342 C 0.08255 0.10137 0.09652 0.0
C343 C 0.05621 0.0464 0.04952 0.0
C344 C 0.12265 0.09551 0.1333 0.0
C345 C 0.08256 0.98955 0.03459 0.0
C346 C 0.12686 0.98462 0.06973 0.0
C347 C 0.1834 0.03022 0.15792 0.0
C348 C 0.20231 0.08367 0.20766 0.0
C349 C 0.14426 0.0362 0.1203 0.0
C350 C 0.17514 0.13965 0.2212 0.0
C351 C 0.13742 0.14652 0.18398 0.0
H352 H 0.9566 0.93249 0.60114 0.0
H353 H 0.0105 0.03463 0.76611 0.0
H354 H 0.03593 0.13733 0.7645 0.0
H355 H 0.07065 0.18807 0.7136 0.0
H356 H 0.01609 0.08753 0.54835 0.0
H357 H 0.96564 0.99105 0.55152 0.0
C358 C 0.97039 0.97788 0.63682 0.0
C359 C 0.98533 0.97703 0.68336 0.0
C360 C 0.98852 0.03512 0.63486 0.0
C361 C 0.00117 0.03525 0.72979 0.0
C362 C 0.01685 0.09336 0.7287 0.0
C363 C 0.04678 0.1452 0.67852 0.0
C364 C 0.04834 0.14249 0.63073 0.0
C365 C 0.01601 0.09225 0.68107 0.0
C366 C 0.01655 0.08842 0.58522 0.0
C367 C 0.98709 0.03425 0.58718 0.0
H368 H 0.70073 0.98296 0.10869 0.0
H369 H 0.70936 0.17296 0.11884 0.0
H370 H 0.64009 0.20214 0.18243 0.0
H371 H 0.57586 0.17391 0.2339 0.0
H372 H 0.56244 0.98309 0.22276 0.0
H373 H 0.63691 0.9552 0.16246 0.0
C374 C 0.68698 0.03053 0.12429 0.0
C375 C 0.71023 0.07554 0.10832 0.0
C376 C 0.64737 0.04745 0.16167 0.0
C377 C 0.69223 0.13713 0.12979 0.0
C378 C 0.65286 0.15412 0.16665 0.0
C379 C 0.58969 0.12641 0.21921 0.0
C380 C 0.5629 0.08062 0.23311 0.0
C381 C 0.63044 0.10983 0.18303 0.0
C382 C 0.58196 0.01946 0.21307 0.0
C383 C 0.62413 1.00319 0.17802 0.0
H384 H 0.16028 0.441 0.57865 0.0
H385 H 0.25269 0.54659 0.73697 0.0
H386 H 0.25349 0.6499 0.735 0.0
H387 H 0.20325 0.70789 0.69487 0.0
H388 H 0.09951 0.60071 0.54001 0.0
H389 H 0.12709 0.49943 0.53333 0.0
C390 C 0.18269 0.48675 0.61196 0.0
C391 C 0.20581 0.48744 0.65797 0.0
C392 C 0.17904 0.54514 0.61132 0.0
C393 C 0.23496 0.54585 0.70122 0.0
C394 C 0.23452 0.60462 0.70019 0.0
C395 C 0.18862 0.66266 0.65911 0.0
C396 C 0.14787 0.66068 0.61839 0.0
C397 C 0.20299 0.60478 0.6565 0.0
C398 C 0.12893 0.60227 0.57225 0.0
C399 C 0.14515 0.54472 0.56839 0.0
H400 H 0.15123 0.16225 0.4753 0.0
H401 H 0.27259 0.33721 0.59147 0.0
H402 H 0.35398 0.31598 0.53705 0.0
H403 H 0.39098 0.24451 0.45502 0.0
H404 H 0.25703 0.08506 0.33349 0.0
H405 H 0.18021 0.10355 0.39049 0.0
C406 C 0.19564 0.19568 0.48893 0.0
C407 C 0.20737 0.24881 0.53896 0.0
C408 C 0.23983 0.18606 0.4558 0.0
C409 C 0.26384 0.29343 0.55474 0.0
C410 C 0.31003 0.28193 0.52308 0.0
C411 C 0.34454 0.21496 0.44084 0.0
C412 C 0.33014 0.16302 0.39005 0.0
C413 C 0.29872 0.22794 0.47342 0.0
C414 C 0.26967 0.125 0.37236 0.0
C415 C 0.22555 0.13539 0.40504 0.0
H416 H 0.01348 0.27203 0.7179 0.0
H417 H 0.10068 0.46982 0.82464 0.0
H418 H 0.05843 0.46054 0.89454 0.0
H419 H 0.00749 0.39338 0.92776 0.0
H420 H 0.92076 0.1943 0.82322 0.0
H421 H 0.95336 0.20636 0.7508 0.0
C422 C 0.0227 0.31312 0.7563 0.0
C423 C 0.06138 0.37127 0.76598 0.0
C424 C -9e-05 0.30661 0.7972 0.0
C425 C 0.07138 0.42452 0.81596 0.0
C426 C 0.04783 0.41897 0.8562 0.0
C427 C 0.99498 0.35245 0.88916 0.0
C428 C 0.96152 0.29282 0.88156 0.0
C429 C 0.01393 0.35965 0.84769 0.0
C430 C 0.94724 0.24047 0.83091 0.0
C431 C 0.96564 0.24748 0.78926 0.0
H432 H 0.80612 0.73512 0.32592 0.0
H433 H 0.88005 0.91311 0.4675 0.0
H434 H 0.89901 0.97034 0.41845 0.0
H435 H 0.90025 0.9689 0.33489 0.0
H436 H 0.81992 0.79348 0.19418 0.0
H437 H 0.7947 0.7374 0.2437 0.0
C438 C 0.82505 0.78673 0.34655 0.0
C439 C 0.84271 0.81878 0.40079 0.0
C440 C 0.83404 0.8203 0.31816 0.0
C441 C 0.86797 0.88585 0.42592 0.0
C442 C 0.87814 0.91916 0.39786 0.0
C443 C 0.87619 0.9187 0.3152 0.0
C444 C 0.86216 0.88528 0.26091 0.0
C445 C 0.86229 0.88666 0.34393 0.0
C446 C 0.83067 0.82044 0.23589 0.0
C447 C 0.81693 0.78816 0.2642 0.0
H448 H 0.27453 0.98131 0.9602 0.0
H449 H 0.44146 0.89556 0.92916 0.0
H450 H 0.46718 0.92068 1.01932 0.0
H451 H 0.44893 0.97919 0.10949 0.0
H452 H 0.28973 0.07633 0.14074 0.0
H453 H 0.25276 0.03302 0.04887 0.0
C454 C 0.31574 0.96679 0.97292 0.0
C455 C 0.35616 0.93695 0.93795 0.0
C456 C 0.33107 0.98278 1.0252 0.0
C457 C 0.40992 0.9193 0.95537 0.0
C458 C 0.42461 0.93352 1.00695 0.0
C459 C 0.4048 0.98833 0.09575 0.0
C460 C 0.36915 0.02671 0.1317 0.0
C461 C 0.38645 0.96683 0.0426 0.0
C462 C 0.31432 0.04183 0.11373 0.0
C463 C 0.29445 0.01877 0.06109 0.0
H464 H 0.90945 0.9051 0.92454 0.0
H465 H 0.80464 0.00782 0.86463 0.0
H466 H 0.85578 0.96636 0.78898 0.0
H467 H 0.94143 0.91377 0.74785 0.0
H468 H 0.02338 0.78607 0.79438 0.0
H469 H 0.96699 0.82212 0.86753 0.0
C470 C 0.89342 0.91431 0.89364 0.0
C471 C 0.85191 0.95873 0.90088 0.0
C472 C 0.91902 0.88595 0.84799 0.0
C473 C 0.83627 0.97382 0.86081 0.0
C474 C 0.86557 0.95011 0.8173 0.0
C475 C 0.9439 0.88967 0.77117 0.0
C476 C 0.98474 0.84424 0.76333 0.0
C477 C 0.90837 0.90749 0.81124 0.0
C478 C 0.99006 0.81839 0.79759 0.0
C479 C 0.95851 0.83978 0.83997 0.0
H480 H 0.27327 0.79478 0.42212 0.0
H481 H 0.18696 0.95656 0.43177 0.0
H482 H 0.14141 0.96213 0.50517 0.0
H483 H 0.11298 0.91118 0.55913 0.0
H484 H 0.1841 0.73795 0.53748 0.0
H485 H 0.24715 0.74589 0.47618 0.0
C486 C 0.24395 0.831 0.43945 0.0
C487 C 0.23335 0.87436 0.41975 0.0
C488 C 0.21485 0.83188 0.48017 0.0
C489 C 0.19702 0.92244 0.44531 0.0
C490 C 0.17018 0.9254 0.48739 0.0
C491 C 0.1445 0.87698 0.54257 0.0
C492 C 0.14692 0.82628 0.55533 0.0
C493 C 0.17736 0.87931 0.50437 0.0
C494 C 0.18406 0.7793 0.53045 0.0
C495 C 0.21936 0.78331 0.49475 0.0
H496 H 0.40125 0.37358 0.96501 0.0
H497 H 0.23974 0.21996 0.89739 0.0
H498 H 0.23618 0.22368 0.98114 0.0
H499 H 0.28168 0.26914 0.07383 0.0
H500 H 0.44011 0.4264 0.1409 0.0
H501 H 0.44262 0.42262 0.05743 0.0
C502 C 0.36522 0.34103 0.96871 0.0
C503 C 0.32108 0.29631 0.9251 0.0
C504 C 0.36317 0.34396 1.01694 0.0
C505 C 0.27407 0.255 0.93051 0.0
C506 C 0.27227 0.2569 0.97831 0.0
C507 C 0.31652 0.30252 0.06994 0.0
C508 C 0.36074 0.34795 0.11335 0.0
C509 C 0.31695 0.30085 1.02179 0.0
C510 C 0.40543 0.39133 0.10808 0.0
C511 C 0.40697 0.38908 0.06035 0.0
H512 H 0.85369 0.17383 0.17555 0.0
H513 H 0.02089 0.09631 0.19088 0.0
H514 H 0.03423 0.15844 0.28413 0.0
H515 H 0.99339 0.22653 0.36164 0.0
H516 H 0.82959 0.31053 0.34841 0.0
H517 H 0.82014 0.25441 0.25473 0.0
C518 C 0.89414 0.17233 0.19923 0.0
C519 C 0.93768 0.13214 0.17579 0.0
C520 C 0.90152 0.20844 0.2536 0.0
C521 C 0.98823 0.12882 0.20757 0.0
C522 C 0.99544 0.16373 0.26115 0.0
C523 C 0.95645 0.23427 0.33876 0.0
C524 C 0.9117 0.27215 0.36289 0.0
C525 C 0.95183 0.20288 0.2847 0.0
C526 C 0.86384 0.28022 0.33148 0.0
C527 C 0.85852 0.24843 0.27761 0.0
loop_
_geom_bond_atom_site_label_1
_geom_bond_atom_site_label_2
_geom_bond_distance
_geom_bond_site_symmetry_2
_ccdc_geom_bond_type
Tb0 N31 2.660 . S
Tb0 N38 2.600 . S
Tb0 O44 2.546 . S
Tb0 O45 2.610 1_545 S
Tb0 O47 2.320 . S
Tb0 O48 2.552 . S
Tb0 O49 2.413 . S
Tb0 O51 2.362 . S
Tb0 O52 2.421 . S
Tb0 C64 2.833 . S
C1 C4 1.432 . S
C1 C5 1.414 . S
C1 N8 1.359 . S
C2 C4 1.417 . S
C2 C6 1.432 . S
C2 C14 1.410 . S
C3 C5 1.444 . S
C3 C6 1.317 . S
C3 H26 0.929 . S
C4 C1 1.432 . S
C4 C2 1.417 . S
C4 N12 1.360 . S
C5 C1 1.414 . S
C5 C3 1.444 . S
C5 C10 1.385 . S
C6 C2 1.432 . S
C6 C3 1.317 . S
C6 H18 0.930 1_554 S
C7 C9 1.392 . S
C7 C10 1.370 . S
C7 H19 0.931 . S
N8 C1 1.359 . S
N8 C9 1.327 . S
N8 Tb11 2.600 . S
C9 C7 1.392 . S
C9 N8 1.327 . S
C9 H16 0.930 . S
C10 C5 1.385 . S
C10 C7 1.370 . S
C10 H29 0.930 . S
Tb11 N8 2.600 . S
Tb11 N12 2.660 . S
Tb11 O45 2.362 . S
Tb11 O46 2.421 . S
Tb11 O50 2.546 . S
Tb11 O51 2.610 1_565 S
Tb11 O53 2.320 . S
Tb11 O54 2.552 1_565 S
Tb11 O55 2.413 . S
Tb11 C75 2.833 . S
N12 C4 1.360 . S
N12 Tb11 2.660 . S
N12 C13 1.305 . S
C13 N12 1.305 . S
C13 C15 1.407 . S
C13 H20 0.930 . S
C14 C2 1.410 . S
C14 C15 1.345 . S
C14 H22 0.930 1_554 S
C15 C13 1.407 . S
C15 C14 1.345 . S
C15 H17 0.930 . S
H16 C9 0.930 . S
H17 C15 0.930 . S
H18 C6 0.930 1_556 S
H19 C7 0.931 . S
H20 C13 0.930 . S
H21 C35 0.930 . S
H22 C14 0.930 1_556 S
H23 C41 0.930 . S
H24 C32 0.930 . S
H25 C39 0.931 . S
H26 C3 0.929 . S
H27 C33 0.930 . S
H28 C66 0.930 . S
H29 C10 0.930 . S
H30 C65 0.929 . S
N31 Tb0 2.660 . S
N31 C32 1.305 . S
N31 C36 1.360 . S
C32 H24 0.930 . S
C32 N31 1.305 . S
C32 C35 1.407 . S
C33 H27 0.930 . S
C33 C34 1.410 . S
C33 C35 1.345 . S
C34 C33 1.410 . S
C34 C36 1.417 . S
C34 C66 1.432 . S
C35 H21 0.930 . S
C35 C32 1.407 . S
C35 C33 1.345 . S
C36 N31 1.360 . S
C36 C34 1.417 . S
C36 C40 1.432 . S
H37 C42 0.930 . S
N38 Tb0 2.600 . S
N38 C40 1.359 . S
N38 C41 1.327 . S
C39 H25 0.931 . S
C39 C41 1.392 . S
C39 C42 1.370 . S
C40 C36 1.432 . S
C40 N38 1.359 . S
C40 C43 1.414 . S
C41 H23 0.930 . S
C41 N38 1.327 . S
C41 C39 1.392 . S
C42 H37 0.930 . S
C42 C39 1.370 . S
C42 C43 1.385 . S
C43 C40 1.414 . S
C43 C42 1.385 . S
C43 C65 1.444 . S
O44 Tb0 2.546 . S
O44 C64 1.251 . S
O45 Tb0 2.610 1_565 S
O45 Tb11 2.362 . S
O45 C56 1.283 . S
O46 Tb11 2.421 . S
O46 C63 1.262 1_565 S
O47 Tb0 2.320 . S
O47 C63 1.260 . S
O48 Tb0 2.552 . S
O48 C56 1.243 1_545 S
O49 Tb0 2.413 . S
O49 C64 1.256 . S
O50 Tb11 2.546 . S
O50 C75 1.251 . S
O51 Tb0 2.362 . S
O51 Tb11 2.610 1_545 S
O51 C67 1.283 . S
O52 Tb0 2.421 . S
O52 C74 1.262 . S
O53 Tb11 2.320 . S
O53 C74 1.260 1_565 S
O54 Tb11 2.552 1_545 S
O54 C67 1.243 . S
O55 Tb11 2.413 . S
O55 C75 1.256 . S
C56 O45 1.283 . S
C56 O48 1.243 1_565 S
C57 C59 1.382 . S
C57 C61 1.393 . S
C57 C64 1.500 . S
C58 C59 1.400 . S
C58 C60 1.384 . S
C59 C57 1.382 . S
C59 C58 1.400 . S
C59 H76 0.930 . S
C60 C58 1.384 . S
C60 C62 1.392 . S
C60 H77 0.931 . S
C61 C57 1.393 . S
C61 C62 1.401 . S
C61 H78 0.930 . S
C62 C60 1.392 . S
C62 C61 1.401 . S
C62 H79 0.930 . S
C63 O46 1.262 1_545 S
C63 O47 1.260 . S
C64 Tb0 2.833 . S
C64 O44 1.251 . S
C64 O49 1.256 . S
C64 C57 1.500 . S
C65 H30 0.929 . S
C65 C43 1.444 . S
C65 C66 1.317 . S
C66 H28 0.930 . S
C66 C34 1.432 . S
C66 C65 1.317 . S
C67 O51 1.283 . S
C67 O54 1.243 . S
C68 C69 1.382 . S
C68 C72 1.393 . S
C68 C75 1.500 . S
C69 C68 1.382 . S
C69 C70 1.400 . S
C69 H80 0.930 . S
C70 C69 1.400 . S
C70 C71 1.384 . S
C71 C70 1.384 . S
C71 C73 1.392 . S
C71 H81 0.931 . S
C72 C68 1.393 . S
C72 C73 1.401 . S
C72 H82 0.930 . S
C73 C71 1.392 . S
C73 C72 1.401 . S
C73 H83 0.930 . S
C74 O52 1.262 . S
C74 O53 1.260 1_545 S
C75 Tb11 2.833 . S
C75 O50 1.251 . S
C75 O55 1.256 . S
C75 C68 1.500 . S
H76 C59 0.930 . S
H77 C60 0.931 . S
H78 C61 0.930 . S
H79 C62 0.930 . S
H80 C69 0.930 . S
H81 C71 0.931 . S
H82 C72 0.930 . S
H83 C73 0.930 . S
Tb84 N115 2.660 . S
Tb84 N122 2.600 . S
Tb84 O128 2.546 . S
Tb84 O129 2.610 . S
Tb84 O131 2.320 . S
Tb84 O132 2.552 . S
Tb84 O133 2.413 . S
Tb84 O135 2.362 . S
Tb84 O136 2.421 . S
Tb84 C148 2.833 . S
C85 C88 1.432 . S
C85 C89 1.414 . S
C85 N92 1.359 . S
C86 C88 1.417 . S
C86 C90 1.432 . S
C86 C98 1.410 . S
C87 C89 1.444 . S
C87 C90 1.317 . S
C87 H110 0.929 . S
C88 C85 1.432 . S
C88 C86 1.417 . S
C88 N96 1.360 . S
C89 C85 1.414 . S
C89 C87 1.444 . S
C89 C94 1.385 . S
C90 C86 1.432 . S
C90 C87 1.317 . S
C90 H102 0.930 . S
C91 C93 1.392 . S
C91 C94 1.370 . S
C91 H103 0.931 . S
N92 C85 1.359 . S
N92 C93 1.327 . S
N92 Tb95 2.600 . S
C93 C91 1.392 . S
C93 N92 1.327 . S
C93 H100 0.930 . S
C94 C89 1.385 . S
C94 C91 1.370 . S
C94 H113 0.930 . S
Tb95 N92 2.600 . S
Tb95 N96 2.660 . S
Tb95 O129 2.362 . S
Tb95 O130 2.421 . S
Tb95 O134 2.546 . S
Tb95 O135 2.610 . S
Tb95 O137 2.320 . S
Tb95 O138 2.552 . S
Tb95 O139 2.413 . S
Tb95 C159 2.833 . S
N96 C88 1.360 . S
N96 Tb95 2.660 . S
N96 C97 1.305 . S
C97 N96 1.305 . S
C97 C99 1.407 . S
C97 H104 0.930 . S
C98 C86 1.410 . S
C98 C99 1.345 . S
C98 H106 0.930 . S
C99 C97 1.407 . S
C99 C98 1.345 . S
C99 H101 0.930 . S
H100 C93 0.930 . S
H101 C99 0.930 . S
H102 C90 0.930 . S
H103 C91 0.931 . S
H104 C97 0.930 . S
H105 C119 0.930 . S
H106 C98 0.930 . S
H107 C125 0.930 . S
H108 C116 0.930 . S
H109 C123 0.931 . S
H110 C87 0.929 . S
H111 C117 0.930 . S
H112 C150 0.930 . S
H113 C94 0.930 . S
H114 C149 0.929 . S
N115 Tb84 2.660 . S
N115 C116 1.305 . S
N115 C120 1.360 1_455 S
C116 H108 0.930 . S
C116 N115 1.305 . S
C116 C119 1.407 1_455 S
C117 H111 0.930 . S
C117 C118 1.410 . S
C117 C119 1.345 . S
C118 C117 1.410 . S
C118 C120 1.417 . S
C118 C150 1.432 . S
C119 H105 0.930 . S
C119 C116 1.407 1_655 S
C119 C117 1.345 . S
C120 N115 1.360 1_655 S
C120 C118 1.417 . S
C120 C124 1.432 . S
H121 C126 0.930 . S
N122 Tb84 2.600 . S
N122 C124 1.359 1_455 S
N122 C125 1.327 . S
C123 H109 0.931 . S
C123 C125 1.392 1_655 S
C123 C126 1.370 . S
C124 C120 1.432 . S
C124 N122 1.359 1_655 S
C124 C127 1.414 . S
C125 H107 0.930 . S
C125 N122 1.327 . S
C125 C123 1.392 1_455 S
C126 H121 0.930 . S
C126 C123 1.370 . S
C126 C127 1.385 . S
C127 C124 1.414 . S
C127 C126 1.385 . S
C127 C149 1.444 . S
O128 Tb84 2.546 . S
O128 C148 1.251 . S
O129 Tb84 2.610 . S
O129 Tb95 2.362 . S
O129 C140 1.283 . S
O130 Tb95 2.421 . S
O130 C147 1.262 . S
O131 Tb84 2.320 . S
O131 C147 1.260 . S
O132 Tb84 2.552 . S
O132 C140 1.243 . S
O133 Tb84 2.413 . S
O133 C148 1.256 . S
O134 Tb95 2.546 . S
O134 C159 1.251 . S
O135 Tb84 2.362 . S
O135 Tb95 2.610 . S
O135 C151 1.283 . S
O136 Tb84 2.421 . S
O136 C158 1.262 . S
O137 Tb95 2.320 . S
O137 C158 1.260 . S
O138 Tb95 2.552 . S
O138 C151 1.243 . S
O139 Tb95 2.413 . S
O139 C159 1.256 . S
C140 O129 1.283 . S
C140 O132 1.243 . S
C141 C143 1.382 . S
C141 C145 1.393 1_455 S
C141 C148 1.500 . S
C142 C143 1.400 . S
C142 C144 1.384 1_455 S
C143 C141 1.382 . S
C143 C142 1.400 . S
C143 H160 0.930 . S
C144 C142 1.384 1_655 S
C144 C146 1.392 . S
C144 H161 0.931 . S
C145 C141 1.393 1_655 S
C145 C146 1.401 . S
C145 H162 0.930 . S
C146 C144 1.392 . S
C146 C145 1.401 . S
C146 H163 0.930 . S
C147 O130 1.262 . S
C147 O131 1.260 . S
C148 Tb84 2.833 . S
C148 O128 1.251 . S
C148 O133 1.256 . S
C148 C141 1.500 . S
C149 H114 0.929 . S
C149 C127 1.444 . S
C149 C150 1.317 . S
C150 H112 0.930 . S
C150 C118 1.432 . S
C150 C149 1.317 . S
C151 O135 1.283 . S
C151 O138 1.243 . S
C152 C153 1.382 . S
C152 C156 1.393 . S
C152 C159 1.500 . S
C153 C152 1.382 . S
C153 C154 1.400 . S
C153 H164 0.930 . S
C154 C153 1.400 . S
C154 C155 1.384 . S
C155 C154 1.384 . S
C155 C157 1.392 . S
C155 H165 0.931 . S
C156 C152 1.393 . S
C156 C157 1.401 . S
C156 H166 0.930 . S
C157 C155 1.392 . S
C157 C156 1.401 . S
C157 H167 0.930 . S
C158 O136 1.262 . S
C158 O137 1.260 . S
C159 Tb95 2.833 . S
C159 O134 1.251 . S
C159 O139 1.256 . S
C159 C152 1.500 . S
H160 C143 0.930 . S
H161 C144 0.931 . S
H162 C145 0.930 . S
H163 C146 0.930 . S
H164 C153 0.930 . S
H165 C155 0.931 . S
H166 C156 0.930 . S
H167 C157 0.930 . S
Tb168 N199 2.660 . S
Tb168 N206 2.600 . S
Tb168 O212 2.546 . S
Tb168 O213 2.610 . S
Tb168 O215 2.320 . S
Tb168 O216 2.552 1_554 S
Tb168 O217 2.413 . S
Tb168 O219 2.362 . S
Tb168 O220 2.421 . S
Tb168 C232 2.833 . S
C169 C172 1.432 . S
C169 C173 1.414 . S
C169 N176 1.359 1_556 S
C170 C172 1.417 . S
C170 C174 1.432 . S
C170 C182 1.410 . S
C171 C173 1.444 . S
C171 C174 1.317 . S
C171 H194 0.929 . S
C172 C169 1.432 . S
C172 C170 1.417 . S
C172 N180 1.360 1_556 S
C173 C169 1.414 . S
C173 C171 1.444 . S
C173 C178 1.385 . S
C174 C170 1.432 . S
C174 C171 1.317 . S
C174 H186 0.930 . S
C175 C177 1.392 1_455 S
C175 C178 1.370 1_454 S
C175 H187 0.931 . S
N176 C169 1.359 1_554 S
N176 C177 1.327 . S
N176 Tb179 2.600 1_565 S
C177 C175 1.392 1_655 S
C177 N176 1.327 . S
C177 H184 0.930 1_655 S
C178 C173 1.385 . S
C178 C175 1.370 1_656 S
C178 H197 0.930 1_655 S
Tb179 N176 2.600 1_545 S
Tb179 N180 2.660 1_545 S
Tb179 O213 2.362 . S
Tb179 O214 2.421 . S
Tb179 O218 2.546 1_545 S
Tb179 O219 2.610 . S
Tb179 O221 2.320 . S
Tb179 O222 2.552 . S
Tb179 O223 2.413 1_545 S
Tb179 C243 2.833 1_545 S
N180 C172 1.360 1_554 S
N180 Tb179 2.660 1_565 S
N180 C181 1.305 1_554 S
C181 N180 1.305 1_556 S
C181 C183 1.407 . S
C181 H188 0.930 1_556 S
C182 C170 1.410 . S
C182 C183 1.345 . S
C182 H190 0.930 . S
C183 C181 1.407 . S
C183 C182 1.345 . S
C183 H185 0.930 . S
H184 C177 0.930 1_455 S
H185 C183 0.930 . S
H186 C174 0.930 . S
H187 C175 0.931 . S
H188 C181 0.930 1_554 S
H189 C203 0.930 . S
H190 C182 0.930 . S
H191 C209 0.930 . S
H192 C200 0.930 . S
H193 C207 0.931 . S
H194 C171 0.929 . S
H195 C201 0.930 . S
H196 C234 0.930 . S
H197 C178 0.930 1_455 S
H198 C233 0.929 . S
N199 Tb168 2.660 . S
N199 C200 1.305 1_655 S
N199 C204 1.360 . S
C200 H192 0.930 . S
C200 N199 1.305 1_455 S
C200 C203 1.407 . S
C201 H195 0.930 . S
C201 C202 1.410 1_455 S
C201 C203 1.345 . S
C202 C201 1.410 1_655 S
C202 C204 1.417 . S
C202 C234 1.432 . S
C203 H189 0.930 . S
C203 C200 1.407 . S
C203 C201 1.345 . S
C204 N199 1.360 . S
C204 C202 1.417 . S
C204 C208 1.432 . S
H205 C210 0.930 . S
N206 Tb168 2.600 . S
N206 C208 1.359 . S
N206 C209 1.327 . S
C207 H193 0.931 . S
C207 C209 1.392 . S
C207 C210 1.370 . S
C208 C204 1.432 . S
C208 N206 1.359 . S
C208 C211 1.414 . S
C209 H191 0.930 . S
C209 N206 1.327 . S
C209 C207 1.392 . S
C210 H205 0.930 . S
C210 C207 1.370 . S
C210 C211 1.385 . S
C211 C208 1.414 . S
C211 C210 1.385 . S
C211 C233 1.444 . S
O212 Tb168 2.546 . S
O212 C232 1.251 . S
O213 Tb168 2.610 . S
O213 Tb179 2.362 . S
O213 C224 1.283 1_554 S
O214 Tb179 2.421 . S
O214 C231 1.262 1_655 S
O215 Tb168 2.320 . S
O215 C231 1.260 1_655 S
O216 Tb168 2.552 1_556 S
O216 C224 1.243 . S
O217 Tb168 2.413 . S
O217 C232 1.256 . S
O218 Tb179 2.546 1_565 S
O218 C243 1.251 . S
O219 Tb168 2.362 . S
O219 Tb179 2.610 . S
O219 C235 1.283 . S
O220 Tb168 2.421 . S
O220 C242 1.262 . S
O221 Tb179 2.320 . S
O221 C242 1.260 . S
O222 Tb179 2.552 . S
O222 C235 1.243 . S
O223 Tb179 2.413 1_565 S
O223 C243 1.256 . S
C224 O213 1.283 1_556 S
C224 O216 1.243 . S
C225 C227 1.382 . S
C225 C229 1.393 . S
C225 C232 1.500 1_556 S
C226 C227 1.400 . S
C226 C228 1.384 . S
C227 C225 1.382 . S
C227 C226 1.400 . S
C227 H244 0.930 . S
C228 C226 1.384 . S
C228 C230 1.392 . S
C228 H245 0.931 . S
C229 C225 1.393 . S
C229 C230 1.401 . S
C229 H246 0.930 . S
C230 C228 1.392 . S
C230 C229 1.401 . S
C230 H247 0.930 . S
C231 O214 1.262 1_455 S
C231 O215 1.260 1_455 S
C232 Tb168 2.833 . S
C232 O212 1.251 . S
C232 O217 1.256 . S
C232 C225 1.500 1_554 S
C233 H198 0.929 . S
C233 C211 1.444 . S
C233 C234 1.317 . S
C234 H196 0.930 . S
C234 C202 1.432 . S
C234 C233 1.317 . S
C235 O219 1.283 . S
C235 O222 1.243 . S
C236 C237 1.382 . S
C236 C240 1.393 . S
C236 C243 1.500 . S
C237 C236 1.382 . S
C237 C238 1.400 . S
C237 H248 0.930 . S
C238 C237 1.400 . S
C238 C239 1.384 . S
C239 C238 1.384 . S
C239 C241 1.392 . S
C239 H249 0.931 . S
C240 C236 1.393 . S
C240 C241 1.401 . S
C240 H250 0.930 . S
C241 C239 1.392 . S
C241 C240 1.401 . S
C241 H251 0.930 . S
C242 O220 1.262 . S
C242 O221 1.260 . S
C243 Tb179 2.833 1_565 S
C243 O218 1.251 . S
C243 O223 1.256 . S
C243 C236 1.500 . S
H244 C227 0.930 . S
H245 C228 0.931 . S
H246 C229 0.930 . S
H247 C230 0.930 . S
H248 C237 0.930 . S
H249 C239 0.931 . S
H250 C240 0.930 . S
H251 C241 0.930 . S
Tb252 N283 2.660 . S
Tb252 N290 2.600 . S
Tb252 O296 2.546 . S
Tb252 O297 2.610 1_655 S
Tb252 O299 2.320 . S
Tb252 O300 2.552 1_655 S
Tb252 O301 2.413 . S
Tb252 O303 2.362 . S
Tb252 O304 2.421 . S
Tb252 C316 2.833 . S
C253 C256 1.432 . S
C253 C257 1.414 . S
C253 N260 1.359 . S
C254 C256 1.417 . S
C254 C258 1.432 . S
C254 C266 1.410 . S
C255 C257 1.444 . S
C255 C258 1.317 . S
C255 H278 0.929 . S
C256 C253 1.432 . S
C256 C254 1.417 . S
C256 N264 1.360 . S
C257 C253 1.414 . S
C257 C255 1.444 . S
C257 C262 1.385 1_565 S
C258 C254 1.432 . S
C258 C255 1.317 . S
C258 H270 0.930 . S
C259 C261 1.392 1_545 S
C259 C262 1.370 . S
C259 H271 0.931 . S
N260 C253 1.359 . S
N260 C261 1.327 . S
N260 Tb263 2.600 . S
C261 C259 1.392 1_565 S
C261 N260 1.327 . S
C261 H268 0.930 1_565 S
C262 C257 1.385 1_545 S
C262 C259 1.370 . S
C262 H281 0.930 . S
Tb263 N260 2.600 . S
Tb263 N264 2.660 . S
Tb263 O297 2.362 . S
Tb263 O298 2.421 . S
Tb263 O302 2.546 . S
Tb263 O303 2.610 1_455 S
Tb263 O305 2.320 . S
Tb263 O306 2.552 . S
Tb263 O307 2.413 . S
Tb263 C327 2.833 . S
N264 C256 1.360 . S
N264 Tb263 2.660 . S
N264 C265 1.305 . S
C265 N264 1.305 . S
C265 C267 1.407 . S
C265 H272 0.930 . S
C266 C254 1.410 . S
C266 C267 1.345 . S
C266 H274 0.930 . S
C267 C265 1.407 . S
C267 C266 1.345 . S
C267 H269 0.930 . S
H268 C261 0.930 1_545 S
H269 C267 0.930 . S
H270 C258 0.930 . S
H271 C259 0.931 . S
H272 C265 0.930 . S
H273 C287 0.930 . S
H274 C266 0.930 . S
H275 C293 0.930 . S
H276 C284 0.930 . S
H277 C291 0.931 . S
H278 C255 0.929 . S
H279 C285 0.930 . S
H280 C318 0.930 . S
H281 C262 0.930 . S
H282 C317 0.929 . S
N283 Tb252 2.660 . S
N283 C284 1.305 . S
N283 C288 1.360 . S
C284 H276 0.930 . S
C284 N283 1.305 . S
C284 C287 1.407 . S
C285 H279 0.930 . S
C285 C286 1.410 . S
C285 C287 1.345 . S
C286 C285 1.410 . S
C286 C288 1.417 . S
C286 C318 1.432 . S
C287 H273 0.930 . S
C287 C284 1.407 . S
C287 C285 1.345 . S
C288 N283 1.360 . S
C288 C286 1.417 . S
C288 C292 1.432 . S
H289 C294 0.930 . S
N290 Tb252 2.600 . S
N290 C292 1.359 . S
N290 C293 1.327 . S
C291 H277 0.931 . S
C291 C293 1.392 . S
C291 C294 1.370 . S
C292 C288 1.432 . S
C292 N290 1.359 . S
C292 C295 1.414 . S
C293 H275 0.930 . S
C293 N290 1.327 . S
C293 C291 1.392 . S
C294 H289 0.930 . S
C294 C291 1.370 . S
C294 C295 1.385 . S
C295 C292 1.414 . S
C295 C294 1.385 . S
C295 C317 1.444 . S
O296 Tb252 2.546 . S
O296 C316 1.251 . S
O297 Tb252 2.610 1_455 S
O297 Tb263 2.362 . S
O297 C308 1.283 . S
O298 Tb263 2.421 . S
O298 C315 1.262 . S
O299 Tb252 2.320 . S
O299 C315 1.260 1_655 S
O300 Tb252 2.552 1_455 S
O300 C308 1.243 . S
O301 Tb252 2.413 . S
O301 C316 1.256 . S
O302 Tb263 2.546 . S
O302 C327 1.251 . S
O303 Tb252 2.362 . S
O303 Tb263 2.610 1_655 S
O303 C319 1.283 . S
O304 Tb252 2.421 . S
O304 C326 1.262 1_655 S
O305 Tb263 2.320 . S
O305 C326 1.260 . S
O306 Tb263 2.552 . S
O306 C319 1.243 1_455 S
O307 Tb263 2.413 . S
O307 C327 1.256 . S
C308 O297 1.283 . S
C308 O300 1.243 . S
C309 C311 1.382 . S
C309 C313 1.393 . S
C309 C316 1.500 . S
C310 C311 1.400 . S
C310 C312 1.384 . S
C311 C309 1.382 . S
C311 C310 1.400 . S
C311 H328 0.930 . S
C312 C310 1.384 . S
C312 C314 1.392 . S
C312 H329 0.931 . S
C313 C309 1.393 . S
C313 C314 1.401 . S
C313 H330 0.930 . S
C314 C312 1.392 . S
C314 C313 1.401 . S
C314 H331 0.930 . S
C315 O298 1.262 . S
C315 O299 1.260 1_455 S
C316 Tb252 2.833 . S
C316 O296 1.251 . S
C316 O301 1.256 . S
C316 C309 1.500 . S
C317 H282 0.929 . S
C317 C295 1.444 . S
C317 C318 1.317 . S
C318 H280 0.930 . S
C318 C286 1.432 . S
C318 C317 1.317 . S
C319 O303 1.283 . S
C319 O306 1.243 1_655 S
C320 C321 1.382 . S
C320 C324 1.393 . S
C320 C327 1.500 . S
C321 C320 1.382 . S
C321 C322 1.400 . S
C321 H332 0.930 . S
C322 C321 1.400 . S
C322 C323 1.384 . S
C323 C322 1.384 . S
C323 C325 1.392 . S
C323 H333 0.931 . S
C324 C320 1.393 . S
C324 C325 1.401 . S
C324 H334 0.930 . S
C325 C323 1.392 . S
C325 C324 1.401 . S
C325 H335 0.930 . S
C326 O304 1.262 1_455 S
C326 O305 1.260 . S
C327 Tb263 2.833 . S
C327 O302 1.251 . S
C327 O307 1.256 . S
C327 C320 1.500 . S
H328 C311 0.930 . S
H329 C312 0.931 . S
H330 C313 0.930 . S
H331 C314 0.930 . S
H332 C321 0.930 . S
H333 C323 0.931 . S
H334 C324 0.930 . S
H335 C325 0.930 . S
H336 C342 0.930 . S
H337 C345 0.930 1_655 S
H338 C346 0.930 1_565 S
H339 C347 0.930 1_565 S
H340 C350 0.930 . S
H341 C351 0.930 . S
C342 H336 0.930 . S
C342 C343 1.355 . S
C342 C344 1.415 . S
C343 C342 1.355 . S
C343 C345 1.419 . S
C344 C342 1.415 . S
C344 C349 1.425 . S
C344 C351 1.409 . S
C345 H337 0.930 1_455 S
C345 C343 1.419 . S
C345 C346 1.362 . S
C346 H338 0.930 1_545 S
C346 C345 1.362 . S
C346 C349 1.409 . S
C347 H339 0.930 1_545 S
C347 C348 1.355 . S
C347 C349 1.415 . S
C348 C347 1.355 . S
C348 C350 1.419 . S
C349 C344 1.425 . S
C349 C346 1.409 . S
C349 C347 1.415 . S
C350 H340 0.930 . S
C350 C348 1.419 . S
C350 C351 1.362 . S
C351 H341 0.930 . S
C351 C344 1.409 . S
C351 C350 1.362 . S
H352 C358 0.930 . S
H353 C361 0.930 1_665 S
H354 C362 0.930 . S
H355 C363 0.930 . S
H356 C366 0.930 . S
H357 C367 0.930 . S
C358 H352 0.930 . S
C358 C359 1.355 . S
C358 C360 1.415 1_565 S
C359 C358 1.355 . S
C359 C361 1.419 1_565 S
C360 C358 1.415 1_545 S
C360 C365 1.425 . S
C360 C367 1.409 . S
C361 H353 0.930 1_445 S
C361 C359 1.419 1_545 S
C361 C362 1.362 . S
C362 H354 0.930 . S
C362 C361 1.362 . S
C362 C365 1.409 . S
C363 H355 0.930 . S
C363 C364 1.355 . S
C363 C365 1.415 . S
C364 C363 1.355 . S
C364 C366 1.419 . S
C365 C360 1.425 . S
C365 C362 1.409 . S
C365 C363 1.415 . S
C366 H356 0.930 . S
C366 C364 1.419 . S
C366 C367 1.362 . S
C367 H357 0.930 . S
C367 C360 1.409 . S
C367 C366 1.362 . S
H368 C374 0.930 . S
H369 C377 0.930 . S
H370 C378 0.930 . S
H371 C379 0.930 . S
H372 C382 0.930 1_565 S
H373 C383 0.930 . S
C374 H368 0.930 . S
C374 C375 1.355 . S
C374 C376 1.415 . S
C375 C374 1.355 . S
C375 C377 1.419 . S
C376 C374 1.415 . S
C376 C381 1.425 . S
C376 C383 1.409 . S
C377 H369 0.930 . S
C377 C375 1.419 . S
C377 C378 1.362 . S
C378 H370 0.930 . S
C378 C377 1.362 . S
C378 C381 1.409 . S
C379 H371 0.930 . S
C379 C380 1.355 . S
C379 C381 1.415 . S
C380 C379 1.355 . S
C380 C382 1.419 . S
C381 C376 1.425 . S
C381 C378 1.409 . S
C381 C379 1.415 . S
C382 H372 0.930 1_545 S
C382 C380 1.419 . S
C382 C383 1.362 . S
C383 H373 0.930 . S
C383 C376 1.409 . S
C383 C382 1.362 . S
H384 C390 0.930 . S
H385 C393 0.930 . S
H386 C394 0.930 . S
H387 C395 0.930 . S
H388 C398 0.930 1_655 S
H389 C399 0.930 . S
C390 H384 0.930 . S
C390 C391 1.355 . S
C390 C392 1.415 . S
C391 C390 1.355 . S
C391 C393 1.419 . S
C392 C390 1.415 . S
C392 C397 1.425 . S
C392 C399 1.409 . S
C393 H385 0.930 . S
C393 C391 1.419 . S
C393 C394 1.362 . S
C394 H386 0.930 . S
C394 C393 1.362 . S
C394 C397 1.409 . S
C395 H387 0.930 . S
C395 C396 1.355 . S
C395 C397 1.415 . S
C396 C395 1.355 . S
C396 C398 1.419 . S
C397 C392 1.425 . S
C397 C394 1.409 . S
C397 C395 1.415 . S
C398 H388 0.930 1_455 S
C398 C396 1.419 . S
C398 C399 1.362 . S
C399 H389 0.930 . S
C399 C392 1.409 . S
C399 C398 1.362 . S
H400 C406 0.930 . S
H401 C409 0.930 . S
H402 C410 0.930 . S
H403 C411 0.930 . S
H404 C414 0.930 . S
H405 C415 0.930 . S
C406 H400 0.930 . S
C406 C407 1.355 . S
C406 C408 1.415 . S
C407 C406 1.355 . S
C407 C409 1.419 . S
C408 C406 1.415 . S
C408 C413 1.425 . S
C408 C415 1.409 . S
C409 H401 0.930 . S
C409 C407 1.419 . S
C409 C410 1.362 . S
C410 H402 0.930 . S
C410 C409 1.362 . S
C410 C413 1.409 . S
C411 H403 0.930 . S
C411 C412 1.355 . S
C411 C413 1.415 . S
C412 C411 1.355 . S
C412 C414 1.419 . S
C413 C408 1.425 . S
C413 C410 1.409 . S
C413 C411 1.415 . S
C414 H404 0.930 . S
C414 C412 1.419 . S
C414 C415 1.362 . S
C415 H405 0.930 . S
C415 C408 1.409 . S
C415 C414 1.362 . S
H416 C422 0.930 . S
H417 C425 0.930 . S
H418 C426 0.930 . S
H419 C427 0.930 . S
H420 C430 0.930 . S
H421 C431 0.930 . S
C422 H416 0.930 . S
C422 C423 1.355 . S
C422 C424 1.415 . S
C423 C422 1.355 . S
C423 C425 1.419 . S
C424 C422 1.415 . S
C424 C429 1.425 . S
C424 C431 1.409 1_455 S
C425 H417 0.930 . S
C425 C423 1.419 . S
C425 C426 1.362 . S
C426 H418 0.930 . S
C426 C425 1.362 . S
C426 C429 1.409 . S
C427 H419 0.930 . S
C427 C428 1.355 . S
C427 C429 1.415 . S
C428 C427 1.355 . S
C428 C430 1.419 1_455 S
C429 C424 1.425 . S
C429 C426 1.409 . S
C429 C427 1.415 . S
C430 H420 0.930 . S
C430 C428 1.419 1_655 S
C430 C431 1.362 . S
C431 H421 0.930 . S
C431 C424 1.409 1_655 S
C431 C430 1.362 . S
H432 C438 0.930 . S
H433 C441 0.930 . S
H434 C442 0.930 . S
H435 C443 0.930 . S
H436 C446 0.930 . S
H437 C447 0.930 . S
C438 H432 0.930 . S
C438 C439 1.355 . S
C438 C440 1.415 . S
C439 C438 1.355 . S
C439 C441 1.419 . S
C440 C438 1.415 . S
C440 C445 1.425 . S
C440 C447 1.409 . S
C441 H433 0.930 . S
C441 C439 1.419 . S
C441 C442 1.362 . S
C442 H434 0.930 . S
C442 C441 1.362 . S
C442 C445 1.409 . S
C443 H435 0.930 . S
C443 C444 1.355 . S
C443 C445 1.415 . S
C444 C443 1.355 . S
C444 C446 1.419 . S
C445 C440 1.425 . S
C445 C442 1.409 . S
C445 C443 1.415 . S
C446 H436 0.930 . S
C446 C444 1.419 . S
C446 C447 1.362 . S
C447 H437 0.930 . S
C447 C440 1.409 . S
C447 C446 1.362 . S
H448 C454 0.930 . S
H449 C457 0.930 . S
H450 C458 0.930 . S
H451 C459 0.930 . S
H452 C462 0.930 1_545 S
H453 C463 0.930 1_556 S
C454 H448 0.930 . S
C454 C455 1.355 . S
C454 C456 1.415 . S
C455 C454 1.355 . S
C455 C457 1.419 . S
C456 C454 1.415 . S
C456 C461 1.425 . S
C456 C463 1.409 1_556 S
C457 H449 0.930 . S
C457 C455 1.419 . S
C457 C458 1.362 . S
C458 H450 0.930 . S
C458 C457 1.362 . S
C458 C461 1.409 . S
C459 H451 0.930 . S
C459 C460 1.355 . S
C459 C461 1.415 1_554 S
C460 C459 1.355 . S
C460 C462 1.419 . S
C461 C456 1.425 . S
C461 C458 1.409 . S
C461 C459 1.415 1_556 S
C462 H452 0.930 1_565 S
C462 C460 1.419 . S
C462 C463 1.362 . S
C463 H453 0.930 1_554 S
C463 C456 1.409 1_554 S
C463 C462 1.362 . S
H464 C470 0.930 . S
H465 C473 0.930 . S
H466 C474 0.930 . S
H467 C475 0.930 . S
H468 C478 0.930 . S
H469 C479 0.930 . S
C470 H464 0.930 . S
C470 C471 1.355 . S
C470 C472 1.415 . S
C471 C470 1.355 . S
C471 C473 1.419 1_565 S
C472 C470 1.415 . S
C472 C477 1.425 . S
C472 C479 1.409 . S
C473 H465 0.930 . S
C473 C471 1.419 1_545 S
C473 C474 1.362 . S
C474 H466 0.930 . S
C474 C473 1.362 . S
C474 C477 1.409 1_545 S
C475 H467 0.930 . S
C475 C476 1.355 . S
C475 C477 1.415 . S
C476 C475 1.355 . S
C476 C478 1.419 . S
C477 C472 1.425 . S
C477 C474 1.409 1_565 S
C477 C475 1.415 . S
C478 H468 0.930 . S
C478 C476 1.419 . S
C478 C479 1.362 . S
C479 H469 0.930 . S
C479 C472 1.409 . S
C479 C478 1.362 . S
H480 C486 0.930 . S
H481 C489 0.930 . S
H482 C490 0.930 . S
H483 C491 0.930 . S
H484 C494 0.930 . S
H485 C495 0.930 . S
C486 H480 0.930 . S
C486 C487 1.355 . S
C486 C488 1.415 . S
C487 C486 1.355 . S
C487 C489 1.419 . S
C488 C486 1.415 . S
C488 C493 1.425 . S
C488 C495 1.409 . S
C489 H481 0.930 . S
C489 C487 1.419 . S
C489 C490 1.362 . S
C490 H482 0.930 . S
C490 C489 1.362 . S
C490 C493 1.409 . S
C491 H483 0.930 . S
C491 C492 1.355 . S
C491 C493 1.415 . S
C492 C491 1.355 . S
C492 C494 1.419 . S
C493 C488 1.425 . S
C493 C490 1.409 . S
C493 C491 1.415 . S
C494 H484 0.930 . S
C494 C492 1.419 . S
C494 C495 1.362 . S
C495 H485 0.930 . S
C495 C488 1.409 . S
C495 C494 1.362 . S
H496 C502 0.930 . S
H497 C505 0.930 . S
H498 C506 0.930 . S
H499 C507 0.930 . S
H500 C510 0.930 . S
H501 C511 0.930 . S
C502 H496 0.930 . S
C502 C503 1.355 . S
C502 C504 1.415 . S
C503 C502 1.355 . S
C503 C505 1.419 . S
C504 C502 1.415 . S
C504 C509 1.425 . S
C504 C511 1.409 1_556 S
C505 H497 0.930 . S
C505 C503 1.419 . S
C505 C506 1.362 . S
C506 H498 0.930 . S
C506 C505 1.362 . S
C506 C509 1.409 . S
C507 H499 0.930 . S
C507 C508 1.355 1_556 S
C507 C509 1.415 . S
C508 C507 1.355 1_554 S
C508 C510 1.419 . S
C509 C504 1.425 . S
C509 C506 1.409 . S
C509 C507 1.415 . S
C510 H500 0.930 . S
C510 C508 1.419 . S
C510 C511 1.362 . S
C511 H501 0.930 . S
C511 C504 1.409 1_554 S
C511 C510 1.362 . S
H512 C518 0.930 . S
H513 C521 0.930 . S
H514 C522 0.930 . S
H515 C523 0.930 . S
H516 C526 0.930 . S
H517 C527 0.930 . S
C518 H512 0.930 . S
C518 C519 1.355 . S
C518 C520 1.415 . S
C519 C518 1.355 . S
C519 C521 1.419 . S
C520 C518 1.415 . S
C520 C525 1.425 . S
C520 C527 1.409 . S
C521 H513 0.930 . S
C521 C519 1.419 . S
C521 C522 1.362 . S
C522 H514 0.930 . S
C522 C521 1.362 . S
C522 C525 1.409 . S
C523 H515 0.930 . S
C523 C524 1.355 . S
C523 C525 1.415 1_455 S
C524 C523 1.355 . S
C524 C526 1.419 1_455 S
C525 C520 1.425 . S
C525 C522 1.409 . S
C525 C523 1.415 1_655 S
C526 H516 0.930 . S
C526 C524 1.419 1_655 S
C526 C527 1.362 . S
C527 H517 0.930 . S
C527 C520 1.409 . S
C527 C526 1.362 . S
C343 C231 0.948 . S
C348 C74 0.948 . S
C359 C315 0.923 . S
C364 C158 0.923 . S
C375 C242 1.360 . S
C380 C63 1.360 . S
C391 C147 1.485 . S
C396 C326 1.485 . S
C407 C140 1.960 . S
C412 C67 2.100 . S
C423 C151 1.968 . S
C428 C226 2.013 1_455 S
C439 C310 1.170 . S
C444 C238 0.903 . S
C455 C322 0.867 . S
C460 C56 0.854 . S
C471 C224 2.066 1_565 S
C476 C319 1.964 . S
C487 C70 2.043 . S
C492 C308 2.002 . S
C503 C154 1.135 . S
C508 C58 0.848 . S
C519 C235 0.993 . S
C524 C142 0.722 . S
