# Generated by pormake.
# Topology bmn, (3)-cn, num edge types: 1
# Building blocks:
#     Node 0, Type 0, BuildingBlock: WUSLED_clean_sbu_0, # of connection points: 3
#     Node 1, Type 0, BuildingBlock: WUSLED_clean_sbu_0, # of connection points: 3
#     Node 2, Type 0, BuildingBlock: WUSLED_clean_sbu_0, # of connection points: 3
#     Node 3, Type 0, BuildingBlock: WUSLED_clean_sbu_0, # of connection points: 3
#     Node 4, Type 0, BuildingBlock: WUSLED_clean_sbu_0, # of connection points: 3
#     Node 5, Type 0, BuildingBlock: WUSLED_clean_sbu_0, # of connection points: 3
#     Node 6, Type 0, BuildingBlock: WUSLED_clean_sbu_0, # of connection points: 3
#     Node 7, Type 0, BuildingBlock: WUSLED_clean_sbu_0, # of connection points: 3
#     Node 8, Type 0, BuildingBlock: WUSLED_clean_sbu_0, # of connection points: 3
#     Node 9, Type 0, BuildingBlock: WUSLED_clean_sbu_0, # of connection points: 3
#     Node 10, Type 0, BuildingBlock: WUSLED_clean_sbu_0, # of connection points: 3
#     Node 11, Type 0, BuildingBlock: WUSLED_clean_sbu_0, # of connection points: 3
#     Node 12, Type 0, BuildingBlock: WUSLED_clean_sbu_0, # of connection points: 3
#     Node 13, Type 0, BuildingBlock: WUSLED_clean_sbu_0, # of connection points: 3
#     Node 14, Type 0, BuildingBlock: WUSLED_clean_sbu_0, # of connection points: 3
#     Node 15, Type 0, BuildingBlock: WUSLED_clean_sbu_0, # of connection points: 3
#     Node 16, Type 0, BuildingBlock: WUSLED_clean_sbu_0, # of connection points: 3
#     Node 17, Type 0, BuildingBlock: WUSLED_clean_sbu_0, # of connection points: 3
#     Node 18, Type 0, BuildingBlock: WUSLED_clean_sbu_0, # of connection points: 3
#     Node 19, Type 0, BuildingBlock: WUSLED_clean_sbu_0, # of connection points: 3
#     Node 20, Type 0, BuildingBlock: WUSLED_clean_sbu_0, # of connection points: 3
#     Node 21, Type 0, BuildingBlock: WUSLED_clean_sbu_0, # of connection points: 3
#     Node 22, Type 0, BuildingBlock: WUSLED_clean_sbu_0, # of connection points: 3
#     Node 23, Type 0, BuildingBlock: WUSLED_clean_sbu_0, # of connection points: 3
#     Edge 24, Type (0, 0), BuildingBlock: KIFKEQ_clean_linker_1, # of connection points: 2
#     Edge 25, Type (0, 0), BuildingBlock: KIFKEQ_clean_linker_1, # of connection points: 2
#     Edge 26, Type (0, 0), BuildingBlock: KIFKEQ_clean_linker_1, # of connection points: 2
#     Edge 27, Type (0, 0), BuildingBlock: KIFKEQ_clean_linker_1, # of connection points: 2
#     Edge 28, Type (0, 0), BuildingBlock: KIFKEQ_clean_linker_1, # of connection points: 2
#     Edge 29, Type (0, 0), BuildingBlock: KIFKEQ_clean_linker_1, # of connection points: 2
#     Edge 30, Type (0, 0), BuildingBlock: KIFKEQ_clean_linker_1, # of connection points: 2
#     Edge 31, Type (0, 0), BuildingBlock: KIFKEQ_clean_linker_1, # of connection points: 2
#     Edge 32, Type (0, 0), BuildingBlock: KIFKEQ_clean_linker_1, # of connection points: 2
#     Edge 33, Type (0, 0), BuildingBlock: KIFKEQ_clean_linker_1, # of connection points: 2
#     Edge 34, Type (0, 0), BuildingBlock: KIFKEQ_clean_linker_1, # of connection points: 2
#     Edge 35, Type (0, 0), BuildingBlock: KIFKEQ_clean_linker_1, # of connection points: 2
#     Edge 36, Type (0, 0), BuildingBlock: KIFKEQ_clean_linker_1, # of connection points: 2
#     Edge 37, Type (0, 0), BuildingBlock: KIFKEQ_clean_linker_1, # of connection points: 2
#     Edge 38, Type (0, 0), BuildingBlock: KIFKEQ_clean_linker_1, # of connection points: 2
#     Edge 39, Type (0, 0), BuildingBlock: KIFKEQ_clean_linker_1, # of connection points: 2
#     Edge 40, Type (0, 0), BuildingBlock: KIFKEQ_clean_linker_1, # of connection points: 2
#     Edge 41, Type (0, 0), BuildingBlock: KIFKEQ_clean_linker_1, # of connection points: 2
#     Edge 42, Type (0, 0), BuildingBlock: KIFKEQ_clean_linker_1, # of connection points: 2
#     Edge 43, Type (0, 0), BuildingBlock: KIFKEQ_clean_linker_1, # of connection points: 2
#     Edge 44, Type (0, 0), BuildingBlock: KIFKEQ_clean_linker_1, # of connection points: 2
#     Edge 45, Type (0, 0), BuildingBlock: KIFKEQ_clean_linker_1, # of connection points: 2
#     Edge 46, Type (0, 0), BuildingBlock: KIFKEQ_clean_linker_1, # of connection points: 2
#     Edge 47, Type (0, 0), BuildingBlock: KIFKEQ_clean_linker_1, # of connection points: 2
#     Edge 48, Type (0, 0), BuildingBlock: KIFKEQ_clean_linker_1, # of connection points: 2
#     Edge 49, Type (0, 0), BuildingBlock: KIFKEQ_clean_linker_1, # of connection points: 2
#     Edge 50, Type (0, 0), BuildingBlock: KIFKEQ_clean_linker_1, # of connection points: 2
#     Edge 51, Type (0, 0), BuildingBlock: KIFKEQ_clean_linker_1, # of connection points: 2
#     Edge 52, Type (0, 0), BuildingBlock: KIFKEQ_clean_linker_1, # of connection points: 2
#     Edge 53, Type (0, 0), BuildingBlock: KIFKEQ_clean_linker_1, # of connection points: 2
#     Edge 54, Type (0, 0), BuildingBlock: KIFKEQ_clean_linker_1, # of connection points: 2
#     Edge 55, Type (0, 0), BuildingBlock: KIFKEQ_clean_linker_1, # of connection points: 2
#     Edge 56, Type (0, 0), BuildingBlock: KIFKEQ_clean_linker_1, # of connection points: 2
#     Edge 57, Type (0, 0), BuildingBlock: KIFKEQ_clean_linker_1, # of connection points: 2
#     Edge 58, Type (0, 0), BuildingBlock: KIFKEQ_clean_linker_1, # of connection points: 2
#     Edge 59, Type (0, 0), BuildingBlock: KIFKEQ_clean_linker_1, # of connection points: 2
# Relax obj value: 0.187
# Max RMSD: 0.300
# Mean RMSD: 0.113
data_MOF--net-bmn--node1-WUSLED_clean_sbu_0--edge1-KIFKEQ_clean_linker_1
_symmetry_space_group_name_H-M    P1
_symmetry_Int_Tables_number       1
_symmetry_cell_setting            triclinic
loop_
_symmetry_equiv_pos_as_xyz
'x, y, z'
_cell_length_a     78.903884
_cell_length_b     79.243991
_cell_length_c     79.438489
_cell_angle_alpha  67.982333
_cell_angle_beta   68.973663
_cell_angle_gamma 69.137996
loop_
_atom_site_label
_atom_site_type_symbol
_atom_site_fract_x
_atom_site_fract_y
_atom_site_fract_z
_atom_type_partial_charge
C0 C 0.10428 0.23801 0.52599 0.0
C1 C 0.09289 0.23414 0.5185 0.0
C2 C 0.11359 0.20253 0.5199 0.0
C3 C 0.09747 0.2165 0.51556 0.0
C4 C 0.1247 0.20653 0.52767 0.0
C5 C 0.12005 0.22405 0.53071 0.0
U6 U 0.0834 0.2915 0.51284 0.0
O7 O 0.07281 0.31102 0.53038 0.0
O8 O 0.09828 0.31259 0.50687 0.0
C9 C 0.08656 0.31934 0.52083 0.0
C10 C 0.10097 0.25682 0.52768 0.0
C11 C 0.08258 0.33969 0.51784 0.0
C12 C 0.08431 0.36405 0.52826 0.0
C13 C 0.08436 0.34544 0.53166 0.0
C14 C 0.07947 0.37184 0.49749 0.0
C15 C 0.08236 0.37734 0.51097 0.0
C16 C 0.07972 0.35306 0.50085 0.0
C17 C 0.05324 0.31094 0.47639 0.0
C18 C 0.04867 0.33959 0.45077 0.0
C19 C 0.03079 0.317 0.45914 0.0
C20 C 0.03947 0.30572 0.47359 0.0
C21 C 0.03572 0.33375 0.44719 0.0
C22 C 0.05743 0.32822 0.46526 0.0
C23 C 0.0645 0.29689 0.48922 0.0
O24 O 0.10904 0.26832 0.51257 0.0
O25 O 0.08372 0.2649 0.53565 0.0
O26 O 0.05685 0.29435 0.50737 0.0
O27 O 0.08251 0.29607 0.48415 0.0
H28 H 0.08072 0.24485 0.51462 0.0
H29 H 0.08849 0.21388 0.50972 0.0
H30 H 0.13744 0.19638 0.53079 0.0
H31 H 0.12911 0.22689 0.53629 0.0
H32 H 0.08631 0.36793 0.53898 0.0
H33 H 0.08669 0.3353 0.54481 0.0
H34 H 0.07797 0.38182 0.48402 0.0
H35 H 0.07846 0.34884 0.48995 0.0
H36 H 0.05279 0.35241 0.44176 0.0
H37 H 0.02064 0.3123 0.45691 0.0
H38 H 0.03605 0.29243 0.48205 0.0
H39 H 0.06805 0.3325 0.46719 0.0
C40 C 0.07118 0.88849 0.86845 0.0
C41 C 0.08876 0.87538 0.86795 0.0
C42 C 0.10157 0.89775 0.87081 0.0
C43 C 0.10379 0.87993 0.86919 0.0
C44 C 0.0838 0.91073 0.87154 0.0
C45 C 0.06878 0.90612 0.87036 0.0
U46 U 0.05443 0.8584 0.85356 0.0
O47 O 0.02869 0.84849 0.86459 0.0
O48 O 0.03575 0.86611 0.83544 0.0
C49 C 0.02355 0.85734 0.84881 0.0
C50 C 0.05568 0.88431 0.86583 0.0
C51 C 1.00361 0.86737 0.85033 0.0
C52 C 0.97508 0.8899 0.86141 0.0
C53 C 0.994 0.8804 0.86083 0.0
C54 C 0.97532 0.87329 0.84117 0.0
C55 C 0.96562 0.8866 0.85136 0.0
C56 C 0.99408 0.8638 0.84067 0.0
C57 C 0.09165 0.81791 0.83559 0.0
C58 C 0.08885 0.80434 0.81418 0.0
C59 C 0.11545 0.79054 0.82775 0.0
C60 C 0.10833 0.80398 0.83764 0.0
C61 C 0.10607 0.79085 0.81549 0.0
C62 C 0.08168 0.81773 0.82417 0.0
C63 C 0.08571 0.83333 0.84418 0.0
O64 O 0.0565 0.887 0.84822 0.0
O65 O 0.0514 0.86848 0.87709 0.0
O66 O 0.07439 0.83077 0.86122 0.0
O67 O 0.08083 0.8503 0.83302 0.0
H68 H 0.09093 0.86171 0.86636 0.0
H69 H 0.11715 0.86948 0.86885 0.0
H70 H 0.0816 0.92466 0.87249 0.0
H71 H 0.05536 0.91649 0.87058 0.0
H72 H 0.968 0.90015 0.86931 0.0
H73 H 1.00114 0.88334 0.86838 0.0
H74 H 0.96841 0.8702 0.83352 0.0
H75 H 1.00123 0.85371 0.83257 0.0
H76 H 0.08131 0.80513 0.80478 0.0
H77 H 0.12855 0.78014 0.82938 0.0
H78 H 0.11615 0.80385 0.84648 0.0
H79 H 0.06873 0.82837 0.82244 0.0
C80 C 0.85142 0.72643 0.9774 0.0
C81 C 0.84009 0.71611 0.97757 0.0
C82 C 0.8671 0.68922 0.97489 0.0
C83 C 0.84789 0.6977 0.9762 0.0
C84 C 0.87824 0.69932 0.97554 0.0
C85 C 0.87045 0.71783 0.97671 0.0
U86 U 0.80926 0.76598 0.98849 0.0
O87 O 0.80569 0.78994 0.99837 0.0
O88 O 0.80001 0.79493 0.97154 0.0
C89 C 0.80202 0.80238 0.98275 0.0
C90 C 0.84358 0.74627 0.97736 0.0
C91 C 0.81251 0.81709 0.97361 0.0
C92 C 0.83027 0.83606 0.94556 0.0
C93 C 0.82258 0.82051 0.95455 0.0
C94 C 0.81908 0.84433 0.97478 0.0
C95 C 0.82817 0.84848 0.95542 0.0
C96 C 0.81123 0.8289 0.98372 0.0
C97 C 0.76194 0.75247 0.01138 0.0
C98 C 0.73184 0.77236 0.02367 0.0
C99 C 0.73312 0.74383 0.0181 0.0
C100 C 0.75266 0.74008 0.01189 0.0
C101 C 0.72241 0.76004 0.02401 0.0
C102 C 0.75145 0.76863 0.01734 0.0
C103 C 0.78246 0.74831 1.00409 0.0
O104 O 0.8326 0.75642 0.96603 0.0
O105 O 0.83679 0.74927 0.99401 0.0
O106 O 0.79184 0.75021 0.01375 0.0
O107 O 0.78868 0.75499 0.98583 0.0
H108 H 0.82528 0.72245 0.97833 0.0
H109 H 0.83897 0.69017 0.97591 0.0
H110 H 0.89312 0.69317 0.9744 0.0
H111 H 0.87937 0.72557 0.97665 0.0
H112 H 0.83704 0.83881 0.93064 0.0
H113 H 0.82394 0.8116 0.94637 0.0
H114 H 0.81758 0.85331 0.98295 0.0
H115 H 0.80365 0.82651 0.99844 0.0
H116 H 0.72407 0.78487 0.02829 0.0
H117 H 0.72639 0.73422 0.01779 0.0
H118 H 0.76055 0.7276 1.00723 0.0
H119 H 0.7584 0.77838 0.01698 0.0
C120 C 0.57507 0.51173 0.13998 0.0
C121 C 0.5925 0.50199 0.14407 0.0
C122 C 0.59116 0.52722 0.15536 0.0
C123 C 0.60045 0.50964 0.15176 0.0
C124 C 0.57367 0.53688 0.15127 0.0
C125 C 0.56569 0.52917 0.14367 0.0
U126 U 0.58013 0.47767 0.11419 0.0
O127 O 0.56108 0.46154 0.11722 0.0
O128 O 0.56941 0.48229 0.09034 0.0
C129 C 0.55881 0.47048 0.10019 0.0
C130 C 0.56689 0.50413 0.13129 0.0
C131 C 0.53936 0.4772 0.09857 0.0
C132 C 0.50624 0.49219 0.10928 0.0
C133 C 0.52474 0.48682 0.11073 0.0
C134 C 0.51698 0.47881 0.08324 0.0
C135 C 0.50212 0.48802 0.09565 0.0
C136 C 0.53537 0.47343 0.08473 0.0
C137 C 0.62838 0.44345 0.10191 0.0
C138 C 0.63988 0.42822 0.07699 0.0
C139 C 0.65662 0.41764 0.10089 0.0
C140 C 0.64335 0.43116 0.10955 0.0
C141 C 0.65522 0.41619 0.08434 0.0
C142 C 0.62653 0.44169 0.08574 0.0
C143 C 0.61544 0.45846 0.11055 0.0
O144 O 0.57338 0.50748 0.11296 0.0
O145 O 0.5655 0.48672 0.13992 0.0
O146 O 0.60187 0.45355 0.12533 0.0
O147 O 0.60986 0.47485 0.09883 0.0
H148 H 0.60004 0.48858 0.14113 0.0
H149 H 0.61405 0.50197 0.15451 0.0
H150 H 0.5661 0.55036 0.15404 0.0
H151 H 0.55225 0.53689 0.14054 0.0
H152 H 0.49513 0.49917 0.11912 0.0
H153 H 0.52759 0.48991 0.12148 0.0
H154 H 0.5144 0.47572 0.07233 0.0
H155 H 0.54651 0.46613 0.07514 0.0
H156 H 0.63827 0.42731 0.06441 0.0
H157 H 0.66835 0.40875 0.10681 0.0
H158 H 0.64501 0.4323 0.12201 0.0
H159 H 0.61498 0.45094 0.07969 0.0
C160 C 0.22195 0.75101 0.58424 0.0
C161 C 0.21735 0.76274 0.59563 0.0
C162 C 0.2289 0.787 0.56835 0.0
C163 C 0.22078 0.78059 0.58776 0.0
C164 C 0.23412 0.77486 0.55715 0.0
C165 C 0.23062 0.75702 0.56505 0.0
U166 U 0.20149 0.71502 0.62649 0.0
O167 O 0.1802 0.70095 0.63078 0.0
O168 O 0.20842 0.68407 0.63367 0.0
C169 C 0.19208 0.68421 0.6327 0.0
C170 C 0.21662 0.7331 0.59214 0.0
C171 C 0.19277 0.67382 0.62043 0.0
C172 C 0.19714 0.6719 0.58925 0.0
C173 C 0.19784 0.68119 0.6008 0.0
C174 C 0.18679 0.64751 0.61685 0.0
C175 C 0.1914 0.65504 0.59715 0.0
C176 C 0.18746 0.65684 0.62837 0.0
C177 C 0.18662 0.72713 0.67394 0.0
C178 C 0.15958 0.72555 0.70117 0.0
C179 C 0.18707 0.73154 0.70243 0.0
C180 C 0.19598 0.73024 0.6841 0.0
C181 C 0.16855 0.72979 0.71099 0.0
C182 C 0.16854 0.72423 0.6828 0.0
C183 C 0.19503 0.7296 0.6536 0.0
O184 O 0.22659 0.71952 0.60317 0.0
O185 O 0.19847 0.7348 0.59903 0.0
O186 O 0.18341 0.73461 0.64315 0.0
O187 O 0.21079 0.71733 0.64848 0.0
H188 H 0.2106 0.7583 0.61051 0.0
H189 H 0.21638 0.78962 0.59676 0.0
H190 H 0.24067 0.77925 0.54223 0.0
H191 H 0.23431 0.74809 0.55609 0.0
H192 H 0.20101 0.67796 0.57415 0.0
H193 H 0.20203 0.6943 0.59443 0.0
H194 H 0.18209 0.6347 0.62342 0.0
H195 H 0.18344 0.651 0.64351 0.0
H196 H 0.14542 0.72385 0.70747 0.0
H197 H 0.19435 0.73502 0.70944 0.0
H198 H 0.20987 0.73265 0.6775 0.0
H199 H 0.16102 0.72173 0.67529 0.0
C200 C 0.47451 0.86644 0.98214 0.0
C201 C 0.47557 0.86635 0.96415 0.0
C202 C 0.44208 0.88125 0.96863 0.0
C203 C 0.45953 0.87377 0.95743 0.0
C204 C 0.44088 0.88079 0.98686 0.0
C205 C 0.457 0.87356 0.99352 0.0
U206 U 0.52219 0.8471 1.00019 0.0
O207 O 0.54793 0.8532 0.97921 0.0
O208 O 0.53371 0.8685 1.00075 0.0
C209 C 0.54814 0.86556 0.98642 0.0
C210 C 0.4917 0.85946 0.98876 0.0
C211 C 0.55635 0.88121 0.97358 0.0
C212 C 0.56342 0.90383 0.94297 0.0
C213 C 0.55251 0.89149 0.95604 0.0
C214 C 0.58151 0.89595 0.96516 0.0
C215 C 0.57838 0.90563 0.9473 0.0
C216 C 0.57053 0.88394 0.9782 0.0
C217 C 0.5479 0.80769 0.03188 0.0
C218 C 0.57633 0.81315 0.03182 0.0
C219 C 0.57239 0.78144 0.04362 0.0
C220 C 0.55472 0.78837 0.03982 0.0
C221 C 0.5835 0.79376 0.03944 0.0
C222 C 0.55878 0.82 0.0281 0.0
C223 C 0.5306 0.81519 0.02551 0.0
O224 O 0.49253 0.86342 1.0031 0.0
O225 O 0.50729 0.84896 0.98057 0.0
O226 O 0.53341 0.81628 1.00784 0.0
O227 O 0.51939 0.83063 0.02992 0.0
H228 H 0.48886 0.8609 0.95509 0.0
H229 H 0.4608 0.8738 0.94338 0.0
H230 H 0.42761 0.88657 0.99573 0.0
H231 H 0.45578 0.8737 1.00749 0.0
H232 H 0.56086 0.91115 0.9292 0.0
H233 H 0.5417 0.8894 0.9522 0.0
H234 H 0.59294 0.89718 0.96878 0.0
H235 H 0.57378 0.87598 0.99161 0.0
H236 H 0.58459 0.82303 0.02797 0.0
H237 H 0.57747 0.76644 0.04958 0.0
H238 H 0.54661 0.77864 0.04262 0.0
H239 H 0.55394 0.83494 0.02167 0.0
C240 C 0.88869 0.31266 0.93366 0.0
C241 C 0.87901 0.33018 0.93716 0.0
C242 C 0.9082 0.33997 0.92461 0.0
C243 C 0.88865 0.34373 0.93261 0.0
C244 C 0.91785 0.32224 0.92142 0.0
C245 C 0.90817 0.30873 0.92589 0.0
U246 U 0.84532 0.29435 0.95969 0.0
O247 O 0.82922 0.28339 0.9505 0.0
O248 O 0.84201 0.26546 0.97384 0.0
C249 C 0.83288 0.26655 0.96234 0.0
C250 C 0.87853 0.2985 0.9381 0.0
C251 C 0.83924 0.25058 0.95441 0.0
C252 C 0.85952 0.2344 0.93073 0.0
C253 C 0.85458 0.24923 0.93858 0.0
C254 C 0.83415 0.22199 0.95473 0.0
C255 C 0.84915 0.22076 0.93856 0.0
C256 C 0.82926 0.23675 0.96252 0.0
C257 C 0.80627 0.32404 0.99164 0.0
C258 C 0.77235 0.32861 1.00192 0.0
C259 C 0.7875 0.33922 0.01633 0.0
C260 C 0.80494 0.33248 1.00487 0.0
C261 C 0.77092 0.33764 0.01483 0.0
C262 C 0.78988 0.32185 0.99042 0.0
C263 C 0.82472 0.31912 0.97847 0.0
O264 O 0.87589 0.28766 0.95553 0.0
O265 O 0.86347 0.30475 0.93182 0.0
O266 O 0.82476 0.32143 0.96119 0.0
O267 O 0.83684 0.30372 0.98507 0.0
H268 H 0.86396 0.33345 0.94325 0.0
H269 H 0.8807 0.35727 0.93505 0.0
H270 H 0.93293 0.31873 0.91559 0.0
H271 H 0.91588 0.29522 0.92325 0.0
H272 H 0.87109 0.23393 0.91824 0.0
H273 H 0.86248 0.2598 0.93213 0.0
H274 H 0.8261 0.21155 0.96135 0.0
H275 H 0.81745 0.2375 0.9748 0.0
H276 H 0.7599 0.32694 1.00056 0.0
H277 H 0.78699 0.34633 0.02585 0.0
H278 H 0.8174 0.33441 1.00596 0.0
H279 H 0.79059 0.31531 0.98033 0.0
C280 C 0.96256 0.48599 0.21858 0.0
C281 C 0.95066 0.48552 0.23672 0.0
C282 C 0.92334 0.4998 0.22404 0.0
C283 C 0.93123 0.49248 0.23941 0.0
C284 C 0.93526 0.49978 0.20595 0.0
C285 C 0.95475 0.49298 0.20324 0.0
U286 U 1.00326 0.45565 0.23902 0.0
O287 O 0.031 0.43838 0.22773 0.0
O288 O 0.02894 0.46136 0.23806 0.0
C289 C 0.04006 0.44823 0.22985 0.0
C290 C 0.98306 0.4792 0.21575 0.0
C291 C 0.05575 0.45365 0.21396 0.0
C292 C 0.06908 0.46812 0.18095 0.0
C293 C 0.05368 0.46317 0.19565 0.0
C294 C 0.08851 0.45425 0.20287 0.0
C295 C 0.08673 0.46362 0.1844 0.0
C296 C 0.07321 0.44929 0.21743 0.0
C297 C 0.99038 0.42711 0.29062 0.0
C298 C 0.01339 0.40953 0.30878 0.0
C299 C 0.98041 0.41074 0.32366 0.0
C300 C 0.97613 0.4219 0.30659 0.0
C301 C 0.99906 0.40462 0.325 0.0
C302 C 0.00907 0.42073 0.29171 0.0
C303 C 0.98537 0.4399 0.27322 0.0
O304 O 0.9898 0.48464 0.22522 0.0
O305 O 0.99014 0.46127 0.21654 0.0
O306 O 0.99073 0.43256 0.25921 0.0
O307 O 0.98838 0.45661 0.26802 0.0
H308 H 0.95641 0.47993 0.24881 0.0
H309 H 0.92237 0.49212 0.25352 0.0
H310 H 0.92955 0.50546 0.19383 0.0
H311 H 0.96371 0.49334 0.18917 0.0
H312 H 0.06722 0.47526 0.16691 0.0
H313 H 0.04023 0.46674 0.19273 0.0
H314 H 0.10169 0.45097 0.20621 0.0
H315 H 0.07501 0.44209 0.23152 0.0
H316 H 0.02787 0.40517 0.3094 0.0
H317 H 0.96911 0.40697 0.33583 0.0
H318 H 0.96163 0.42669 0.30594 0.0
H319 H 0.02023 0.42471 0.27946 0.0
C320 C 0.52151 0.09739 0.33884 0.0
C321 C 0.5103 0.08639 0.35376 0.0
C322 C 0.5158 0.09678 0.37619 0.0
C323 C 0.50752 0.08602 0.37232 0.0
C324 C 0.52748 0.10729 0.36118 0.0
C325 C 0.53029 0.10758 0.34269 0.0
U326 U 0.50773 0.08968 0.30114 0.0
O327 O 0.50088 0.1116 0.27593 0.0
O328 O 0.52447 0.08661 0.27295 0.0
C329 C 0.51472 0.10291 0.2644 0.0
C330 C 0.52285 0.09986 0.31918 0.0
C331 C 0.51149 0.10495 0.24656 0.0
C332 C 0.51537 0.122 0.21348 0.0
C333 C 0.51892 0.1182 0.23066 0.0
C334 C 0.49714 0.09886 0.22768 0.0
C335 C 0.50436 0.11249 0.21168 0.0
C336 C 0.50065 0.09513 0.24506 0.0
C337 C 0.47182 0.05802 0.32187 0.0
C338 C 0.44101 0.05907 0.32082 0.0
C339 C 0.45929 0.03052 0.33817 0.0
C340 C 0.47385 0.03912 0.33263 0.0
C341 C 0.44237 0.0407 0.33307 0.0
C342 C 0.4556 0.06771 0.31531 0.0
C343 C 0.48479 0.06795 0.32122 0.0
O344 O 0.53089 0.08479 0.31316 0.0
O345 O 0.50748 0.11009 0.31381 0.0
O346 O 0.47937 0.08644 0.31706 0.0
O347 O 0.5029 0.06126 0.3146 0.0
H348 H 0.50327 0.07857 0.351 0.0
H349 H 0.49833 0.07791 0.38356 0.0
H350 H 0.53426 0.1155 0.3637 0.0
H351 H 0.53893 0.1162 0.33132 0.0
H352 H 0.52077 0.13293 0.20177 0.0
H353 H 0.52717 0.12605 0.23162 0.0
H354 H 0.48869 0.09118 0.22681 0.0
H355 H 0.49473 0.08488 0.25727 0.0
H356 H 0.42812 0.06728 0.3167 0.0
H357 H 0.46084 0.01625 0.34738 0.0
H358 H 0.48618 0.03137 0.33793 0.0
H359 H 0.45364 0.08233 0.30701 0.0
C360 C 0.50225 0.1517 0.57982 0.0
C361 C 0.49256 0.1563 0.59681 0.0
C362 C 0.51884 0.16667 0.59522 0.0
C363 C 0.50075 0.1638 0.60441 0.0
C364 C 0.52845 0.16207 0.57817 0.0
C365 C 0.5202 0.15467 0.57053 0.0
U366 U 0.46691 0.12616 0.5858 0.0
O367 O 0.45027 0.12988 0.56695 0.0
O368 O 0.47031 0.10279 0.57537 0.0
C369 C 0.45875 0.11301 0.56463 0.0
C370 C 0.49405 0.14326 0.57197 0.0
C371 C 0.46561 0.11208 0.54506 0.0
C372 C 0.49035 0.11121 0.51605 0.0
C373 C 0.48397 0.11299 0.53435 0.0
C374 C 0.45993 0.10811 0.51885 0.0
C375 C 0.47844 0.10855 0.50814 0.0
C376 C 0.45362 0.10982 0.53712 0.0
C377 C 0.43324 0.11349 0.63511 0.0
C378 C 0.41311 0.09243 0.64525 0.0
C379 C 0.41208 0.1084 0.66646 0.0
C380 C 0.42567 0.11716 0.65262 0.0
C381 C 0.4058 0.09573 0.66306 0.0
C382 C 0.42676 0.10123 0.63138 0.0
C383 C 0.44838 0.12203 0.62136 0.0
O384 O 0.49693 0.12488 0.57857 0.0
O385 O 0.4767 0.15198 0.57079 0.0
O386 O 0.44349 0.1369 0.60774 0.0
O387 O 0.46419 0.11017 0.61557 0.0
H388 H 0.47875 0.15392 0.60428 0.0
H389 H 0.49309 0.16696 0.61768 0.0
H390 H 0.54232 0.16427 0.57068 0.0
H391 H 0.52789 0.15116 0.55742 0.0
H392 H 0.50471 0.11151 0.50828 0.0
H393 H 0.49344 0.11482 0.54022 0.0
H394 H 0.45023 0.10651 0.51311 0.0
H395 H 0.43936 0.10922 0.54512 0.0
H396 H 0.40868 0.08267 0.64221 0.0
H397 H 0.40653 0.11152 0.67986 0.0
H398 H 0.43046 0.12664 0.6557 0.0
H399 H 0.43248 0.09823 0.61791 0.0
C400 C 0.58991 0.2158 0.68726 0.0
C401 C 0.60084 0.20161 0.67839 0.0
C402 C 0.57671 0.20875 0.66255 0.0
C403 C 0.5943 0.19814 0.66607 0.0
C404 C 0.56631 0.22353 0.67079 0.0
C405 C 0.57286 0.22699 0.68302 0.0
U406 U 0.62419 0.21133 0.71445 0.0
O407 O 0.62236 0.23099 0.72911 0.0
O408 O 0.6205 0.20198 0.74491 0.0
C409 C 0.61899 0.21872 0.74573 0.0
C410 C 0.59493 0.2182 0.7022 0.0
C411 C 0.60323 0.22553 0.7606 0.0
C412 C 0.57501 0.22155 0.78595 0.0
C413 C 0.58807 0.21719 0.76981 0.0
C414 C 0.59118 0.24376 0.78304 0.0
C415 C 0.57677 0.23444 0.79312 0.0
C416 C 0.60434 0.23926 0.76701 0.0
C417 C 0.67609 0.18966 0.70316 0.0
C418 C 0.69308 0.18814 0.72408 0.0
C419 C 0.70782 0.16964 0.70186 0.0
C420 C 0.69166 0.17691 0.69525 0.0
C421 C 0.70863 0.17501 0.7165 0.0
C422 C 0.67696 0.19534 0.71751 0.0
C423 C 0.65842 0.19578 0.69769 0.0
O424 O 0.60056 0.20263 0.71484 0.0
O425 O 0.60468 0.23055 0.69708 0.0
O426 O 0.65091 0.21408 0.69311 0.0
O427 O 0.64615 0.18608 0.70903 0.0
H428 H 0.61407 0.19282 0.68149 0.0
H429 H 0.6026 0.18662 0.66 0.0
H430 H 0.55288 0.23216 0.6681 0.0
H431 H 0.56427 0.23804 0.68969 0.0
H432 H 0.56421 0.21398 0.79335 0.0
H433 H 0.58676 0.20664 0.7651 0.0
H434 H 0.59271 0.25408 0.78789 0.0
H435 H 0.61584 0.24596 0.76005 0.0
H436 H 0.69311 0.19236 0.73555 0.0
H437 H 0.71961 0.15969 0.69562 0.0
H438 H 0.69118 0.17227 0.68426 0.0
H439 H 0.66496 0.20498 0.72399 0.0
C440 C 0.4904 0.21971 0.96802 0.0
C441 C 0.48551 0.23725 0.95506 0.0
C442 C 0.50631 0.22447 0.92908 0.0
C443 C 0.49341 0.23963 0.93576 0.0
C444 C 0.51071 0.20678 0.94216 0.0
C445 C 0.50285 0.20445 0.96145 0.0
U446 U 0.45702 0.23955 1.00783 0.0
O447 O 0.44055 0.22651 0.03574 0.0
O448 O 0.4614 0.24025 0.03337 0.0
C449 C 0.44929 0.23033 0.04466 0.0
C450 C 0.483 0.21745 0.98833 0.0
C451 C 0.45539 0.21503 0.06053 0.0
C452 C 0.47131 0.18279 0.07453 0.0
C453 C 0.46604 0.19699 0.05889 0.0
C454 C 0.45557 0.20469 0.09336 0.0
C455 C 0.466 0.18646 0.09202 0.0
C456 C 0.4503 0.21876 0.07782 0.0
C457 C 0.42422 0.28856 0.99469 0.0
C458 C 0.40323 0.30482 0.01798 0.0
C459 C 0.40468 0.32011 0.98493 0.0
C460 C 0.41808 0.30418 0.98047 0.0
C461 C 0.39717 0.32068 1.00373 0.0
C462 C 0.41666 0.28889 0.01349 0.0
C463 C 0.43882 0.27226 0.98964 0.0
O464 O 0.48669 0.22885 0.99427 0.0
O465 O 0.46553 0.21617 0.99546 0.0
O466 O 0.43347 0.25669 0.99509 0.0
O467 O 0.45508 0.26946 0.99261 0.0
H468 H 0.47585 0.2492 0.95992 0.0
H469 H 0.48983 0.25347 0.92614 0.0
H470 H 0.52032 0.19473 0.93749 0.0
H471 H 0.50668 0.19078 0.97126 0.0
H472 H 0.47929 0.16892 0.07299 0.0
H473 H 0.47018 0.19389 0.04558 0.0
H474 H 0.45162 0.20822 0.1064 0.0
H475 H 0.44222 0.23264 0.07931 0.0
H476 H 0.39794 0.30488 0.03257 0.0
H477 H 0.40016 0.33198 0.97364 0.0
H478 H 0.42378 0.30412 0.96588 0.0
H479 H 0.42132 0.27692 0.02464 0.0
C480 C 0.33246 0.52405 0.0849 0.0
C481 C 0.34616 0.50819 0.08039 0.0
C482 C 0.37003 0.51813 0.08435 0.0
C483 C 0.36479 0.50523 0.08015 0.0
C484 C 0.35639 0.53443 0.088 0.0
C485 C 0.33774 0.53732 0.08833 0.0
U486 U 0.29331 0.5093 0.08091 0.0
O487 O 0.26824 0.50387 0.10359 0.0
O488 O 0.26509 0.52569 0.07698 0.0
C489 C 0.25664 0.51695 0.094 0.0
C490 C 0.31248 0.52589 0.08792 0.0
C491 C 0.23888 0.51295 0.09681 0.0
C492 C 0.20607 0.51649 0.11394 0.0
C493 C 0.22309 0.52082 0.10935 0.0
C494 C 0.22021 0.49661 0.09302 0.0
C495 C 0.20433 0.50425 0.10596 0.0
C496 C 0.23742 0.50089 0.08851 0.0
C497 C 0.31209 0.47014 0.05447 0.0
C498 C 0.30777 0.43969 0.059 0.0
C499 C 0.32724 0.45466 0.02962 0.0
C500 C 0.32324 0.47006 0.0362 0.0
C501 C 0.32016 0.43894 0.04122 0.0
C502 C 0.30381 0.45513 0.06561 0.0
C503 C 0.31235 0.48417 0.06234 0.0
O504 O 0.30614 0.53278 0.07284 0.0
O505 O 0.30656 0.51116 0.0999 0.0
O506 O 0.30848 0.48014 0.08074 0.0
O507 O 0.30602 0.50208 0.05401 0.0
H508 H 0.34233 0.49779 0.07768 0.0
H509 H 0.37504 0.49269 0.07701 0.0
H510 H 0.35995 0.54455 0.0914 0.0
H511 H 0.3273 0.54959 0.09192 0.0
H512 H 0.19445 0.52227 0.12433 0.0
H513 H 0.22404 0.53 0.11604 0.0
H514 H 0.21938 0.48722 0.08651 0.0
H515 H 0.24956 0.49461 0.07885 0.0
H516 H 0.30179 0.42798 0.06815 0.0
H517 H 0.33696 0.45456 0.01595 0.0
H518 H 0.32991 0.4814 0.02742 0.0
H519 H 0.29512 0.45485 0.07976 0.0
C520 C 0.68481 0.59384 0.20798 0.0
C521 C 0.67544 0.60564 0.194 0.0
C522 C 0.66001 0.58148 0.19988 0.0
C523 C 0.66306 0.59951 0.19001 0.0
C524 C 0.66876 0.57018 0.21445 0.0
C525 C 0.68104 0.57631 0.21844 0.0
U526 U 0.71261 0.62732 0.20441 0.0
O527 O 0.72759 0.62422 0.22459 0.0
O528 O 0.74311 0.62326 0.19571 0.0
C529 C 0.74412 0.62089 0.21263 0.0
C530 C 0.69983 0.5985 0.21083 0.0
C531 C 0.75842 0.60416 0.21954 0.0
C532 C 0.77802 0.57266 0.21906 0.0
C533 C 0.76246 0.58738 0.21502 0.0
C534 C 0.78483 0.59074 0.23348 0.0
C535 C 0.78966 0.57441 0.22787 0.0
C536 C 0.76936 0.60553 0.22927 0.0
C537 C 0.70213 0.67963 0.18211 0.0
C538 C 0.72201 0.69687 0.18243 0.0
C539 C 0.70378 0.71018 0.15947 0.0
C540 C 0.69649 0.69439 0.16702 0.0
C541 C 0.71682 0.71148 0.16694 0.0
C542 C 0.71482 0.68105 0.18988 0.0
C543 C 0.69639 0.66203 0.18835 0.0
O544 O 0.71252 0.6043 0.19552 0.0
O545 O 0.69486 0.6079 0.22315 0.0
O546 O 0.69181 0.65422 0.20664 0.0
O547 O 0.70743 0.64988 0.17889 0.0
H548 H 0.67821 0.61924 0.18577 0.0
H549 H 0.65657 0.6085 0.17866 0.0
H550 H 0.66644 0.55638 0.22251 0.0
H551 H 0.68812 0.56705 0.22931 0.0
H552 H 0.78129 0.56014 0.21479 0.0
H553 H 0.75406 0.58596 0.20766 0.0
H554 H 0.7936 0.59253 0.24018 0.0
H555 H 0.76643 0.61836 0.23289 0.0
H556 H 0.73222 0.69732 0.18834 0.0
H557 H 0.69941 0.72127 0.14763 0.0
H558 H 0.68684 0.69345 0.16073 0.0
H559 H 0.71963 0.66965 0.20133 0.0
C560 C 0.14755 0.57779 0.50687 0.0
C561 C 0.14493 0.59735 0.50167 0.0
C562 C 0.16149 0.59358 0.52405 0.0
C563 C 0.15183 0.60518 0.51019 0.0
C564 C 0.16441 0.57394 0.52887 0.0
C565 C 0.15748 0.56614 0.52037 0.0
U566 U 0.12228 0.58349 0.47175 0.0
O567 O 0.1262 0.5652 0.45475 0.0
O568 O 0.09912 0.57235 0.475 0.0
C569 C 0.10938 0.56226 0.4632 0.0
C570 C 0.13951 0.56954 0.49867 0.0
C571 C 0.10825 0.54255 0.46925 0.0
C572 C 0.0999 0.51473 0.49343 0.0
C573 C 0.1025 0.53278 0.48831 0.0
C574 C 0.10948 0.51571 0.46058 0.0
C575 C 0.10308 0.50608 0.47959 0.0
C576 C 0.11195 0.53375 0.4555 0.0
C577 C 0.10923 0.63344 0.43864 0.0
C578 C 0.08914 0.64322 0.41776 0.0
C579 C 0.1034 0.66545 0.41828 0.0
C580 C 0.11209 0.65153 0.43186 0.0
C581 C 0.09163 0.66156 0.41122 0.0
C582 C 0.09786 0.62926 0.43141 0.0
C583 C 0.1178 0.61949 0.45367 0.0
O584 O 0.12114 0.57521 0.50174 0.0
O585 O 0.14822 0.56919 0.48121 0.0
O586 O 0.13273 0.60644 0.44854 0.0
O587 O 0.10604 0.61289 0.46946 0.0
H588 H 0.13728 0.60658 0.49126 0.0
H589 H 0.14913 0.62036 0.50628 0.0
H590 H 0.17204 0.56457 0.53926 0.0
H591 H 0.1597 0.551 0.52447 0.0
H592 H 0.09487 0.50783 0.50819 0.0
H593 H 0.0996 0.53922 0.49924 0.0
H594 H 0.11251 0.50937 0.44955 0.0
H595 H 0.11646 0.54099 0.44072 0.0
H596 H 0.08007 0.63979 0.41271 0.0
H597 H 0.10591 0.6793 0.41331 0.0
H598 H 0.1209 0.65497 0.43723 0.0
H599 H 0.09551 0.61532 0.43652 0.0
C600 C 0.79541 0.96269 0.83674 0.0
C601 C 0.81115 0.96314 0.8212 0.0
C602 C 0.83195 0.94995 0.84207 0.0
C603 C 0.82925 0.95682 0.82383 0.0
C604 C 0.81602 0.94992 0.85754 0.0
C605 C 0.79795 0.95622 0.85489 0.0
U606 U 0.76085 0.98452 0.80601 0.0
O607 O 0.73895 0.97363 0.80575 0.0
O608 O 0.73125 1.00061 0.81191 0.0
C609 C 0.72529 0.98764 0.81076 0.0
C610 C 0.77638 0.96796 0.83432 0.0
C611 C 0.70912 0.98221 0.82581 0.0
C612 C 0.69278 0.97241 0.85881 0.0
C613 C 0.70812 0.97827 0.84484 0.0
C614 C 0.67942 0.97443 0.83479 0.0
C615 C 0.67831 0.97025 0.85394 0.0
C616 C 0.69463 0.9804 0.8209 0.0
C617 C 0.77588 1.00564 0.75353 0.0
C618 C 0.75745 0.00883 0.73316 0.0
C619 C 0.78312 0.02376 0.72072 0.0
C620 C 0.78672 0.01681 0.73843 0.0
C621 C 0.76869 0.01953 0.71782 0.0
C622 C 0.76094 1.00204 0.75089 0.0
C623 C 0.78056 0.99724 0.77176 0.0
O624 O 0.7683 0.98611 0.82951 0.0
O625 O 0.77414 0.95876 0.82485 0.0
O626 O 0.78045 0.97942 0.77962 0.0
O627 O 0.77226 0.00745 0.78366 0.0
H628 H 0.80946 0.96801 0.80706 0.0
H629 H 0.84113 0.95679 0.81157 0.0
H630 H 0.81747 0.94493 0.87175 0.0
H631 H 0.78594 0.95578 0.86706 0.0
H632 H 0.69231 0.96952 0.87339 0.0
H633 H 0.71924 0.97956 0.84888 0.0
H634 H 0.6688 0.97258 0.83047 0.0
H635 H 0.69526 0.98328 0.80626 0.0
H636 H 0.74612 1.00552 0.73139 0.0
H637 H 0.79212 0.03183 0.70912 0.0
H638 H 0.79824 0.01979 0.74023 0.0
H639 H 0.75225 0.99362 0.76246 0.0
C640 C 0.22012 0.96461 0.50019 0.0
C641 C 0.23669 0.95228 0.49293 0.0
C642 C 0.22483 0.92533 0.51479 0.0
C643 C 0.23903 0.93281 0.50016 0.0
C644 C 0.20822 0.93781 0.52197 0.0
C645 C 0.20591 0.95729 0.51472 0.0
U646 U 0.2397 1.00541 0.46614 0.0
O647 O 0.22655 0.0333 0.44971 0.0
O648 O 0.24069 0.03104 0.47006 0.0
C649 C 0.23051 0.04226 0.45822 0.0
C650 C 0.21784 0.98504 0.49282 0.0
C651 C 0.21512 0.05737 0.46476 0.0
C652 C 0.18406 0.06868 0.48397 0.0
C653 C 0.19832 0.05391 0.47786 0.0
C654 C 0.20338 0.09033 0.46394 0.0
C655 C 0.18644 0.0871 0.47705 0.0
C656 C 0.21752 0.07563 0.45785 0.0
C657 C 0.28807 0.99442 0.43267 0.0
C658 C 0.30468 0.01868 0.41376 0.0
C659 C 0.31933 0.9865 0.41232 0.0
C660 C 0.30334 0.98112 0.42526 0.0
C661 C 0.32031 1.00528 0.40669 0.0
C662 C 0.28868 0.0133 0.42664 0.0
C663 C 0.27206 0.98831 0.44742 0.0
O664 O 0.22954 0.99112 0.49603 0.0
O665 O 0.21618 0.99247 0.47547 0.0
O666 O 0.25638 0.99347 0.4424 0.0
O667 O 0.2695 0.9907 0.46374 0.0
H668 H 0.24786 0.95773 0.48173 0.0
H669 H 0.25207 0.92362 0.49446 0.0
H670 H 0.19691 0.93253 0.53305 0.0
H671 H 0.19303 0.96664 0.52046 0.0
H672 H 0.17117 0.06571 0.49398 0.0
H673 H 0.19627 0.03983 0.48337 0.0
H674 H 0.20592 0.10418 0.45862 0.0
H675 H 0.23046 0.0785 0.44783 0.0
H676 H 0.30495 0.03329 0.40951 0.0
H677 H 0.3312 0.97582 0.40729 0.0
H678 H 0.30308 0.96647 0.42985 0.0
H679 H 0.27695 0.02376 0.43221 0.0
C680 C 0.24341 0.94548 0.86948 0.0
C681 C 0.2348 0.95508 0.85461 0.0
C682 C 0.2118 0.93629 0.86974 0.0
C683 C 0.21911 0.95054 0.85475 0.0
C684 C 0.22057 0.92677 0.88457 0.0
C685 C 0.23618 0.93135 0.88442 0.0
U686 U 0.28359 0.97028 0.84698 0.0
O687 O 0.29539 0.98206 0.86003 0.0
O688 O 0.31312 0.95873 0.84791 0.0
C689 C 0.31194 0.97007 0.85706 0.0
C690 C 0.26005 0.9497 0.86966 0.0
C691 C 0.32103 0.96152 0.87259 0.0
C692 C 0.32447 0.93961 0.90302 0.0
C693 C 0.31471 0.94792 0.88899 0.0
C694 C 0.34668 0.95859 0.88431 0.0
C695 C 0.34062 0.94485 0.90079 0.0
C696 C 0.33696 0.96683 0.87043 0.0
C697 C 0.29192 1.00343 0.79796 0.0
C698 C 0.31814 0.01764 0.78641 0.0
C699 C 0.30005 0.02204 0.76538 0.0
C700 C 0.28861 0.01119 0.78008 0.0
C701 C 0.31503 0.02533 0.76834 0.0
C702 C 0.30672 0.00677 0.80106 0.0
C703 C 0.2804 0.99133 0.81317 0.0
O704 O 0.27594 0.94328 0.85827 0.0
O705 O 0.25784 0.96695 0.86968 0.0
O706 O 0.27138 0.9971 0.82832 0.0
O707 O 0.28875 0.97324 0.81702 0.0
H708 H 0.24021 0.96605 0.84294 0.0
H709 H 0.21262 0.9583 0.8432 0.0
H710 H 0.21559 0.91552 0.89617 0.0
H711 H 0.24271 0.92373 0.89597 0.0
H712 H 0.31939 0.92914 0.91556 0.0
H713 H 0.30241 0.94364 0.89083 0.0
H714 H 0.35928 0.96267 0.88184 0.0
H715 H 0.34211 0.9772 0.85779 0.0
H716 H 0.32968 0.01966 0.78914 0.0
H717 H 0.29712 0.02793 0.75172 0.0
H718 H 0.27725 0.00873 0.77743 0.0
H719 H 0.30958 1.00076 0.81477 0.0
C720 C 0.97549 0.48125 0.88174 0.0
C721 C 0.96439 0.48054 0.87168 0.0
C722 C 0.96792 0.44695 0.88727 0.0
C723 C 0.96065 0.46359 0.87442 0.0
C724 C 0.98002 0.44748 0.89636 0.0
C725 C 0.98367 0.46445 0.89369 0.0
U726 U 0.98766 0.53003 0.86276 0.0
O727 O 0.96846 0.55659 0.86774 0.0
O728 O 0.99365 0.54411 0.87846 0.0
C729 C 0.97827 0.55782 0.87736 0.0
C730 C 0.97601 0.49943 0.88253 0.0
C731 C 0.96752 0.56401 0.89429 0.0
C732 C 0.93991 0.56679 0.92061 0.0
C733 C 0.95129 0.55827 0.90631 0.0
C734 C 0.96135 0.58617 0.91137 0.0
C735 C 0.94458 0.58119 0.923 0.0
C736 C 0.97268 0.57763 0.89722 0.0
C737 C 0.01212 0.55491 0.81631 0.0
C738 C 1.00413 0.58877 0.81085 0.0
C739 C 0.0336 0.57332 0.79275 0.0
C740 C 0.02913 0.55588 0.80241 0.0
C741 C 0.021 0.58995 0.79683 0.0
C742 C 0.99979 0.57152 0.82049 0.0
C743 C 0.0074 0.53681 0.82778 0.0
O744 O 0.99221 0.50117 0.88199 0.0
O745 O 0.9659 0.51482 0.87317 0.0
O746 O 0.98938 0.53768 0.83269 0.0
O747 O 0.01525 0.52761 0.84186 0.0
H748 H 0.95775 0.49324 0.86244 0.0
H749 H 0.95116 0.46379 0.86727 0.0
H750 H 0.98616 0.43488 0.90606 0.0
H751 H 0.99217 0.46459 0.90172 0.0
H752 H 0.92722 0.56246 0.92945 0.0
H753 H 0.94711 0.54772 0.90424 0.0
H754 H 0.96528 0.59742 0.91247 0.0
H755 H 0.98509 0.58232 0.88796 0.0
H756 H 0.99437 0.60121 0.81468 0.0
H757 H 0.04677 0.57384 0.78208 0.0
H758 H 0.03899 0.5432 0.7992 0.0
H759 H 0.9868 0.57118 0.83145 0.0
C760 C 0.95854 0.84023 0.79783 0.0
C761 C 0.95856 0.82451 0.81372 0.0
C762 C 0.94448 0.84506 0.8343 0.0
C763 C 0.95157 0.82689 0.83177 0.0
C764 C 0.94492 0.86074 0.81824 0.0
C765 C 0.95189 0.85833 0.80019 0.0
U766 U 0.98255 0.80998 0.76373 0.0
O767 O 0.97287 0.80883 0.74159 0.0
O768 O 0.99906 0.81691 0.73418 0.0
C769 C 0.98662 0.81503 0.72802 0.0
C770 C 0.9645 0.83797 0.77882 0.0
C771 C 0.98083 0.83046 0.71214 0.0
C772 C 0.96244 0.86185 0.69956 0.0
C773 C 0.96891 0.84784 0.71459 0.0
C774 C 0.98008 0.84133 0.67944 0.0
C775 C 0.96777 0.85867 0.68184 0.0
C776 C 0.98654 0.82738 0.69446 0.0
C777 C 0.00492 0.75761 0.78107 0.0
C778 C 0.01799 0.73765 0.76013 0.0
C779 C 0.0141 0.72364 0.79369 0.0
C780 C 0.00691 0.74156 0.79639 0.0
C781 C 0.01948 0.7214 0.77556 0.0
C782 C 0.01071 0.7556 0.76288 0.0
C783 C 0.99558 0.77618 0.78445 0.0
O784 O 0.9827 0.83417 0.77103 0.0
O785 O 0.95608 0.82769 0.77649 0.0
O786 O 0.97805 0.78283 0.78344 0.0
O787 O 0.00532 0.78888 0.77589 0.0
H788 H 0.9636 0.81041 0.81216 0.0
H789 H 0.95119 0.81447 0.84372 0.0
H790 H 0.93984 0.87491 0.81957 0.0
H791 H 0.9518 0.87063 0.78807 0.0
H792 H 0.95318 0.87512 0.70183 0.0
H793 H 0.96437 0.85044 0.72819 0.0
H794 H 0.98427 0.83828 0.66611 0.0
H795 H 0.99568 0.81399 0.69237 0.0
H796 H 0.02217 0.7365 0.74597 0.0
H797 H 0.01467 0.71152 0.80595 0.0
H798 H 1.00237 0.74286 0.81054 0.0
H799 H 0.0092 0.76789 0.75087 0.0
C800 C 0.87885 0.87514 0.08169 0.0
C801 C 0.87289 0.86357 0.09984 0.0
C802 C 0.88712 0.87732 0.11244 0.0
C803 C 0.87701 0.86463 0.11509 0.0
C804 C 0.89228 0.88946 0.09432 0.0
C805 C 0.88822 0.88832 0.0791 0.0
U806 U 0.8564 0.85701 0.05862 0.0
O807 O 0.85077 0.86888 0.03045 0.0
O808 O 0.87126 0.84123 0.0377 0.0
C809 C 0.86326 0.85449 0.02486 0.0
C810 C 0.87687 0.87256 0.06516 0.0
C811 C 0.86756 0.85254 1.00584 0.0
C812 C 0.88792 0.83632 0.98225 0.0
C813 C 0.88133 0.83688 1.0009 0.0
C814 C 0.86645 0.86669 0.97308 0.0
C815 C 0.88089 0.85139 0.96802 0.0
C816 C 0.85985 0.86725 0.99182 0.0
C817 C 0.81688 0.8321 0.09323 0.0
C818 C 0.80265 0.81214 0.08852 0.0
C819 C 0.79348 0.81789 0.11885 0.0
C820 C 0.80576 0.82941 0.1118 0.0
C821 C 0.79203 0.80883 0.10743 0.0
C822 C 0.81511 0.82365 0.08147 0.0
C823 C 0.83096 0.84273 0.08728 0.0
O824 O 0.88218 0.85504 0.06462 0.0
O825 O 0.86114 0.88216 0.06021 0.0
O826 O 0.82726 0.86008 0.07637 0.0
O827 O 0.84861 0.83339 0.08263 0.0
H828 H 0.86563 0.85328 0.10211 0.0
H829 H 0.87294 0.85499 0.12879 0.0
H830 H 0.89974 0.89964 0.09184 0.0
H831 H 0.89286 0.89741 0.06519 0.0
H832 H 0.89917 0.82441 0.97887 0.0
H833 H 0.88767 0.82537 0.01132 0.0
H834 H 0.86052 0.87839 0.96251 0.0
H835 H 0.84925 0.87954 0.99518 0.0
H836 H 0.80185 0.80528 0.07942 0.0
H837 H 0.78529 0.81585 0.13337 0.0
H838 H 0.80694 0.83586 0.12106 0.0
H839 H 0.82364 0.82557 0.06708 0.0
C840 C 0.94323 0.87053 0.24991 0.0
C841 C 0.94881 0.85447 0.24375 0.0
C842 C 0.93149 0.87178 0.21974 0.0
C843 C 0.94299 0.85509 0.22875 0.0
C844 C 0.92623 0.88787 0.22588 0.0
C845 C 0.93204 0.88722 0.24082 0.0
U846 U 0.96943 0.84705 0.28892 0.0
O847 O 0.98236 0.86012 0.29959 0.0
O848 O 0.95905 0.84754 0.31836 0.0
C849 C 0.97033 0.85745 0.31623 0.0
C850 C 0.94845 0.87019 0.26605 0.0
C851 C 0.96154 0.87376 0.32384 0.0
C852 C 0.93452 0.89895 0.33214 0.0
C853 C 0.94328 0.8848 0.323 0.0
C854 C 0.96252 0.89177 0.3422 0.0
C855 C 0.94394 0.90235 0.34212 0.0
C856 C 0.9712 0.87759 0.33317 0.0
C857 C 1.0012 0.79789 0.29726 0.0
C858 C 0.01481 0.78541 0.32387 0.0
C859 C 0.02018 0.76562 0.30453 0.0
C860 C 0.00939 0.78053 0.29324 0.0
C861 C 0.02295 0.76785 0.32005 0.0
C862 C 1.00404 0.80028 0.3126 0.0
C863 C 0.98919 0.8133 0.28592 0.0
O864 O 0.94209 0.85859 0.28222 0.0
O865 O 0.96601 0.87002 0.26307 0.0
O866 O 0.99547 0.82845 0.27648 0.0
O867 O 0.97124 0.81716 0.29466 0.0
H868 H 0.95745 0.84144 0.25065 0.0
H869 H 0.94717 0.84241 0.22448 0.0
H870 H 0.91769 0.90103 0.21906 0.0
H871 H 0.92768 0.89977 0.24537 0.0
H872 H 0.92028 0.90701 0.33166 0.0
H873 H 0.93562 0.88216 0.31573 0.0
H874 H 0.97008 0.89389 0.34993 0.0
H875 H 0.98529 0.8692 0.33397 0.0
H876 H 0.01642 0.78757 0.33585 0.0
H877 H 0.02641 0.75237 0.30105 0.0
H878 H 0.00733 0.77845 0.28145 0.0
H879 H 0.99771 0.81358 0.31598 0.0
C880 C 0.86915 0.98186 0.47476 0.0
C881 C 0.86099 0.97059 0.47159 0.0
C882 C 0.88433 0.97031 0.44163 0.0
C883 C 0.86845 0.96494 0.45515 0.0
C884 C 0.89244 0.98167 0.44478 0.0
C885 C 0.88485 0.98748 0.46115 0.0
U886 U 0.84709 0.99816 0.52291 0.0
O887 O 0.85288 0.97699 0.54887 0.0
O888 O 0.86702 1.0 0.5354 0.0
C889 C 0.86495 0.98466 0.54929 0.0
C890 C 0.86123 0.9878 0.49215 0.0
C891 C 0.88163 0.97199 0.55592 0.0
C892 C 0.8985 0.94052 0.57063 0.0
C893 C 0.88568 0.95232 0.55997 0.0
C894 C 0.90429 0.96784 0.57223 0.0
C895 C 0.90735 0.94819 0.5775 0.0
C896 C 0.89154 0.9796 0.56158 0.0
C897 C 0.80537 0.02864 0.54719 0.0
C898 C 0.80836 0.03214 0.575 0.0
C899 C 0.77749 0.03712 0.57159 0.0
C900 C 0.78577 0.03325 0.55414 0.0
C901 C 0.78874 0.03641 0.58229 0.0
C902 C 0.81656 0.02825 0.55771 0.0
C903 C 0.81445 0.02207 0.53024 0.0
O904 O 0.86471 1.00216 0.49366 0.0
O905 O 0.85033 0.97891 0.50725 0.0
O906 O 0.81627 1.00411 0.53331 0.0
O907 O 0.82986 0.0274 0.5196 0.0
H908 H 0.84882 0.96614 0.48182 0.0
H909 H 0.86202 0.95602 0.45321 0.0
H910 H 0.90461 0.98612 0.43454 0.0
H911 H 0.89139 0.99621 0.46324 0.0
H912 H 0.90053 0.92543 0.57451 0.0
H913 H 0.87818 0.94604 0.55589 0.0
H914 H 0.91112 0.97415 0.57706 0.0
H915 H 0.88857 0.9947 0.55876 0.0
H916 H 0.8175 0.03098 0.58302 0.0
H917 H 0.76234 0.04038 0.57683 0.0
H918 H 0.77692 0.03335 0.54635 0.0
H919 H 0.83174 0.02429 0.55285 0.0
C920 C 0.87002 0.0814 0.87966 0.0
C921 C 0.86791 0.09935 0.86666 0.0
C922 C 0.87063 0.11254 0.88855 0.0
C923 C 0.86829 0.11474 0.87102 0.0
C924 C 0.87323 0.09439 0.90133 0.0
C925 C 0.8729 0.07898 0.89692 0.0
U926 U 0.85324 0.06493 0.8512 0.0
O927 O 0.86444 0.04028 0.84014 0.0
O928 O 0.83623 0.04504 0.85938 0.0
C929 C 0.84934 0.03401 0.84959 0.0
C930 C 0.86779 0.0656 0.87582 0.0
C931 C 0.85212 0.01367 0.85887 0.0
C932 C 0.86032 0.9856 0.884 0.0
C933 C 0.85985 1.00462 0.8744 0.0
C934 C 0.84579 0.98456 0.86233 0.0
C935 C 0.85284 0.97556 0.8783 0.0
C936 C 0.8455 1.0034 0.8527 0.0
C937 C 0.83044 0.10376 0.81347 0.0
C938 C 0.81551 0.09776 0.79507 0.0
C939 C 0.81295 0.12984 0.79297 0.0
C940 C 0.82382 0.12314 0.80578 0.0
C941 C 0.80849 0.11726 0.78757 0.0
C942 C 0.82638 0.09107 0.80796 0.0
C943 C 0.8405 0.0972 0.82806 0.0
O944 O 0.85028 0.06515 0.87974 0.0
O945 O 0.87798 0.06255 0.85951 0.0
O946 O 0.85786 0.08688 0.82418 0.0
O947 O 0.83075 0.0906 0.84522 0.0
H948 H 0.86556 0.10154 0.85328 0.0
H949 H 0.86652 0.12841 0.86071 0.0
H950 H 0.87482 0.09218 0.91504 0.0
H951 H 0.8744 0.06527 0.9072 0.0
H952 H 0.8657 0.97901 0.89636 0.0
H953 H 0.86496 0.01238 0.8794 0.0
H954 H 0.84001 0.97716 0.8576 0.0
H955 H 0.8395 0.01014 0.84074 0.0
H956 H 0.81252 0.08768 0.79108 0.0
H957 H 0.80754 0.14491 0.78777 0.0
H958 H 0.8267 0.13313 0.81003 0.0
H959 H 0.83135 0.07602 0.81384 0.0
H960 H 0.9799 0.41094 0.35924 0.0
H961 H 0.02818 0.37373 0.33231 0.0
H962 H 0.98748 0.39353 0.38939 0.0
H963 H 0.03599 0.3566 0.36239 0.0
H964 H 0.03343 0.31898 0.4224 0.0
H965 H 0.02344 0.33576 0.39345 0.0
H966 H 0.01267 0.38875 0.40403 0.0
H967 H 0.02238 0.37189 0.43328 0.0
C968 C 0.99206 0.39896 0.35979 0.0
C969 C 1.00345 0.3937 0.34339 0.0
C970 C 0.9965 0.38913 0.37701 0.0
C971 C 0.01235 0.37375 0.37825 0.0
C972 C 0.02359 0.36831 0.36191 0.0
C973 C 0.01923 0.37822 0.34465 0.0
C974 C 0.02866 0.3342 0.4187 0.0
C975 C 0.02865 0.34413 0.43014 0.0
C976 C 0.02314 0.34381 0.40202 0.0
C977 C 0.01737 0.36356 0.39642 0.0
C978 C 0.01694 0.3735 0.40805 0.0
C979 C 0.02263 0.36388 0.4247 0.0
H980 H 0.13225 0.75024 0.72082 0.0
H981 H 0.18136 0.7201 0.74212 0.0
H982 H 0.1167 0.76181 0.74838 0.0
H983 H 0.16576 0.73176 0.76976 0.0
H984 H 0.14311 0.78077 0.79709 0.0
H985 H 0.15735 0.76266 0.77445 0.0
H986 H 0.10341 0.7545 0.78241 0.0
H987 H 0.08907 0.77262 0.8053 0.0
C988 C 0.13957 0.74566 0.73162 0.0
C989 C 0.15813 0.73434 0.72916 0.0
C990 C 0.13063 0.75233 0.74745 0.0
C991 C 0.14005 0.74786 0.7612 0.0
C992 C 0.15824 0.73574 0.75924 0.0
C993 C 0.16718 0.72905 0.74342 0.0
C994 C 0.13432 0.77476 0.7944 0.0
C995 C 0.11491 0.77821 0.80303 0.0
C996 C 0.14251 0.76434 0.78137 0.0
C997 C 0.13153 0.75713 0.77658 0.0
C998 C 0.11222 0.76007 0.78562 0.0
C999 C 0.104 0.77047 0.79871 0.0
H1000 H 0.70015 0.7354 0.04439 0.0
H1001 H 0.69725 0.79445 0.01639 0.0
H1002 H 0.66608 0.7422 0.05109 0.0
H1003 H 0.66323 0.8012 0.02353 0.0
H1004 H 0.60111 0.80938 0.05171 0.0
H1005 H 0.63435 0.80054 0.05057 0.0
H1006 H 0.64333 0.75312 0.03123 0.0
H1007 H 0.61018 0.76216 0.03192 0.0
C1008 C 0.69228 0.74983 0.0397 0.0
C1009 C 0.70152 0.76436 0.02972 0.0
C1010 C 0.67276 0.7537 0.04361 0.0
C1011 C 0.662 0.77221 0.03782 0.0
C1012 C 0.67112 0.78682 0.02841 0.0
C1013 C 0.69065 0.78294 0.02435 0.0
C1014 C 0.61014 0.79702 0.04727 0.0
C1015 C 0.60299 0.78663 0.04167 0.0
C1016 C 0.62917 0.79196 0.04665 0.0
C1017 C 0.64146 0.77627 0.04063 0.0
C1018 C 0.63416 0.76522 0.03606 0.0
C1019 C 0.61513 0.77038 0.03652 0.0
H1020 H 0.76108 0.33836 0.05143 0.0
H1021 H 0.73853 0.35705 1.00342 0.0
H1022 H 0.73207 0.35608 0.06819 0.0
H1023 H 0.70908 0.37398 0.02058 0.0
H1024 H 0.67157 0.42265 0.04655 0.0
H1025 H 0.69805 0.40195 0.03036 0.0
H1026 H 0.69949 0.35874 0.08328 0.0
H1027 H 0.67311 0.37964 0.09949 0.0
C1028 C 0.74986 0.34608 0.04451 0.0
C1029 C 0.75228 0.34641 0.02596 0.0
C1030 C 0.73308 0.35608 0.05423 0.0
C1031 C 0.7182 0.3666 0.04573 0.0
C1032 C 0.72033 0.36629 0.02748 0.0
C1033 C 0.73716 0.35634 0.01771 0.0
C1034 C 0.67732 0.40862 0.05469 0.0
C1035 C 0.67027 0.40285 0.07433 0.0
C1036 C 0.69252 0.3967 0.0454 0.0
C1037 C 0.70102 0.37864 0.05549 0.0
C1038 C 0.69355 0.37266 0.07508 0.0
C1039 C 0.6784 0.38462 0.08438 0.0
H1040 H 0.3434 0.9952 0.37481 0.0
H1041 H 0.3373 0.02712 0.4113 0.0
H1042 H 0.37354 1.00262 0.35605 0.0
H1043 H 0.36713 0.03465 0.39251 0.0
H1044 H 0.43023 0.02416 0.37037 0.0
H1045 H 0.40088 0.01505 0.38718 0.0
H1046 H 0.38628 0.03201 0.33473 0.0
H1047 H 0.41598 0.0411 0.3177 0.0
C1048 C 0.34845 1.00384 0.37876 0.0
C1049 C 0.33799 0.01059 0.39451 0.0
C1050 C 0.3656 0.00817 0.36797 0.0
C1051 C 0.37268 0.01909 0.37292 0.0
C1052 C 0.36209 0.02603 0.3885 0.0
C1053 C 0.34492 0.02188 0.39913 0.0
C1054 C 0.42098 0.0256 0.36233 0.0
C1055 C 0.42544 0.0333 0.34269 0.0
C1056 C 0.40407 0.02057 0.372 0.0
C1057 C 0.39125 0.02301 0.36227 0.0
C1058 C 0.39596 0.02998 0.34255 0.0
C1059 C 0.41287 0.03524 0.33284 0.0
H1060 H 0.40512 0.08012 0.7003 0.0
H1061 H 0.37551 0.08841 0.6603 0.0
H1062 H 0.3828 0.06378 0.72535 0.0
H1063 H 0.35302 0.07209 0.68546 0.0
H1064 H 0.32924 0.0239 0.73182 0.0
H1065 H 0.35063 0.04119 0.70631 0.0
H1066 H 0.35065 0.06914 0.74369 0.0
H1067 H 0.32936 0.05176 0.76921 0.0
C1068 C 0.39371 0.07865 0.69688 0.0
C1069 C 0.39208 0.08567 0.67827 0.0
C1070 C 0.38087 0.06927 0.71127 0.0
C1071 C 0.36602 0.06667 0.70749 0.0
C1072 C 0.36441 0.07363 0.68886 0.0
C1073 C 0.3773 0.083 0.67442 0.0
C1074 C 0.33363 0.0339 0.73454 0.0
C1075 C 0.32759 0.03639 0.7526 0.0
C1076 C 0.34591 0.04383 0.71989 0.0
C1077 C 0.35244 0.05654 0.72291 0.0
C1078 C 0.34619 0.05922 0.74092 0.0
C1079 C 0.33395 0.04926 0.75557 0.0
H1080 H 0.72606 0.19234 0.72703 0.0
H1081 H 0.72849 0.13802 0.72441 0.0
H1082 H 0.75145 0.17767 0.74265 0.0
H1083 H 0.75429 0.12344 0.73952 0.0
H1084 H 0.78032 0.10316 0.79005 0.0
H1085 H 0.75782 0.11667 0.77106 0.0
H1086 H 0.78506 0.16168 0.73767 0.0
H1087 H 0.80774 0.14806 0.75653 0.0
C1088 C 0.73211 0.17729 0.72966 0.0
C1089 C 0.72518 0.16635 0.72453 0.0
C1090 C 0.7468 0.1689 0.73844 0.0
C1091 C 0.75487 0.14937 0.74237 0.0
C1092 C 0.74824 0.13849 0.73686 0.0
C1093 C 0.7336 0.14689 0.72801 0.0
C1094 C 0.78178 0.11572 0.77843 0.0
C1095 C 0.7958 0.12457 0.77492 0.0
C1096 C 0.76883 0.12349 0.76754 0.0
C1097 C 0.76956 0.14033 0.75292 0.0
C1098 C 0.78392 0.14887 0.74904 0.0
C1099 C 0.79691 0.14106 0.75987 0.0
H1100 H 0.39796 0.35736 0.98498 0.0
H1101 H 0.36558 0.32309 0.0331 0.0
H1102 H 0.37668 0.38558 0.99353 0.0
H1103 H 0.34425 0.35139 0.04168 0.0
H1104 H 0.3298 0.40303 0.06351 0.0
H1105 H 0.34619 0.37445 0.05386 0.0
H1106 H 0.34458 0.40581 0.9965 0.0
H1107 H 0.32795 0.43456 1.0062 0.0
C1108 C 0.38611 0.35586 0.99721 0.0
C1109 C 0.38353 0.33794 0.0084 0.0
C1110 C 0.37388 0.37207 1.0021 0.0
C1111 C 0.35876 0.37075 0.01831 0.0
C1112 C 0.35591 0.35287 0.02925 0.0
C1113 C 0.36815 0.33665 0.02436 0.0
C1114 C 0.33242 0.40381 0.04893 0.0
C1115 C 0.32756 0.42116 0.03564 0.0
C1116 C 0.3419 0.38737 0.04337 0.0
C1117 C 0.34682 0.38785 0.02439 0.0
C1118 C 0.34127 0.40503 0.0112 0.0
C1119 C 0.33171 0.42149 0.01677 0.0
H1120 H 0.7668 0.80574 0.09297 0.0
H1121 H 0.79068 0.78116 0.14058 0.0
H1122 H 0.74693 0.78366 0.10734 0.0
H1123 H 0.77137 0.75889 0.1547 0.0
H1124 H 0.7233 0.73181 0.18422 0.0
H1125 H 0.74014 0.75637 0.16965 0.0
H1126 H 0.74816 0.75122 0.11485 0.0
H1127 H 0.73093 0.72699 0.12945 0.0
C1128 C 0.76789 0.79552 0.10643 0.0
C1129 C 0.78019 0.79526 0.11571 0.0
C1130 C 0.75654 0.78285 0.11467 0.0
C1131 C 0.7574 0.76954 0.13228 0.0
C1132 C 0.76992 0.76921 0.14138 0.0
C1133 C 0.78109 0.78194 0.13324 0.0
C1134 C 0.7286 0.73601 0.16905 0.0
C1135 C 0.72583 0.72742 0.158 0.0
C1136 C 0.73832 0.75004 0.16068 0.0
C1137 C 0.74572 0.7557 0.14104 0.0
C1138 C 0.7425 0.74743 0.12997 0.0
C1139 C 0.73263 0.7335 0.13834 0.0
H1140 H 0.08619 0.65956 0.37979 0.0
H1141 H 0.07441 0.69808 0.41162 0.0
H1142 H 0.0703 0.68493 0.35708 0.0
H1143 H 0.05855 0.72331 0.38907 0.0
H1144 H 0.04835 0.76879 0.33563 0.0
H1145 H 0.06526 0.74295 0.35702 0.0
H1146 H 0.03927 0.70484 0.35409 0.0
H1147 H 0.02236 0.73071 0.33265 0.0
C1148 C 0.0801 0.67339 0.38202 0.0
C1149 C 0.08169 0.67681 0.39746 0.0
C1150 C 0.07099 0.68794 0.369 0.0
C1151 C 0.06325 0.70622 0.37116 0.0
C1152 C 0.0647 0.70953 0.38672 0.0
C1153 C 0.07379 0.69504 0.39968 0.0
C1154 C 0.04617 0.75492 0.3396 0.0
C1155 C 0.03392 0.75187 0.33246 0.0
C1156 C 0.05587 0.74009 0.35189 0.0
C1157 C 0.05355 0.7218 0.35739 0.0
C1158 C 0.04157 0.71867 0.34999 0.0
C1159 C 0.03187 0.73352 0.33768 0.0
H1160 H 0.76023 0.02246 0.61 0.0
H1161 H 0.79884 0.05515 0.59838 0.0
H1162 H 0.75054 0.02167 0.64303 0.0
H1163 H 0.79006 0.05344 0.63142 0.0
H1164 H 0.76813 0.0537 0.69114 0.0
H1165 H 0.76805 0.06137 0.65838 0.0
H1166 H 0.76482 1.00496 0.66828 0.0
H1167 H 0.76433 0.99761 0.70099 0.0
C1168 C 0.7664 0.02978 0.61441 0.0
C1169 C 0.78051 0.03864 0.60159 0.0
C1170 C 0.76104 0.02911 0.63342 0.0
C1171 C 0.76973 0.03721 0.64003 0.0
C1172 C 0.78293 0.04713 0.62693 0.0
C1173 C 0.78817 0.04791 0.60796 0.0
C1174 C 0.76717 0.04306 0.6863 0.0
C1175 C 0.76638 0.02502 0.69858 0.0
C1176 C 0.76716 0.04742 0.66753 0.0
C1177 C 0.76662 0.03375 0.66056 0.0
C1178 C 0.76496 0.01597 0.67313 0.0
C1179 C 0.76477 0.0117 0.69192 0.0
H1180 H 0.04092 0.68875 0.79421 0.0
H1181 H 0.01073 0.71038 0.75146 0.0
H1182 H 0.0449 0.65677 0.79452 0.0
H1183 H 0.01576 0.67848 0.75091 0.0
H1184 H 0.99776 0.62263 0.78182 0.0
H1185 H 1.00141 0.65426 0.77234 0.0
H1186 H 0.05749 0.63146 0.78029 0.0
H1187 H 0.0534 0.59955 0.79056 0.0
C1188 C 0.03541 0.68672 0.78463 0.0
C1189 C 0.02512 0.70219 0.77313 0.0
C1190 C 0.03796 0.66834 0.78459 0.0
C1191 C 0.0304 0.66496 0.77294 0.0
C1192 C 0.02143 0.68051 0.76036 0.0
C1193 C 0.01874 0.69888 0.76052 0.0
C1194 C 0.01099 0.62436 0.78125 0.0
C1195 C 0.02518 0.60864 0.7872 0.0
C1196 C 0.01319 0.64253 0.77562 0.0
C1197 C 0.02971 0.64551 0.77568 0.0
C1198 C 0.04447 0.6297 0.78036 0.0
C1199 C 0.04223 0.61141 0.78604 0.0
H1200 H 0.1095 0.47539 0.50991 0.0
H1201 H 0.08789 0.49427 0.46123 0.0
H1202 H 0.10321 0.44493 0.51828 0.0
H1203 H 0.08279 0.46349 0.46887 0.0
H1204 H 0.06006 0.41151 0.4961 0.0
H1205 H 0.06406 0.44277 0.48952 0.0
H1206 H 0.11458 0.41717 0.50897 0.0
H1207 H 0.11011 0.38616 0.5161 0.0
C1208 C 0.10341 0.47308 0.50097 0.0
C1209 C 0.09932 0.48734 0.48482 0.0
C1210 C 0.10002 0.45548 0.50564 0.0
C1211 C 0.09257 0.4516 0.49421 0.0
C1212 C 0.08833 0.46594 0.47816 0.0
C1213 C 0.09157 0.48356 0.47359 0.0
C1214 C 0.07198 0.41265 0.49894 0.0
C1215 C 0.08469 0.39643 0.5067 0.0
C1216 C 0.07435 0.43055 0.49513 0.0
C1217 C 0.08965 0.4326 0.49873 0.0
C1218 C 0.10241 0.41627 0.50638 0.0
C1219 C 0.0999 0.39844 0.51039 0.0
H1220 H 0.8446 0.91949 0.86988 0.0
H1221 H 0.86326 0.96302 0.82078 0.0
H1222 H 0.87659 0.9058 0.87319 0.0
H1223 H 0.89533 0.94894 0.82388 0.0
H1224 H 0.95127 0.90264 0.82081 0.0
H1225 H 0.9189 0.91892 0.81973 0.0
H1226 H 0.90291 0.91169 0.87948 0.0
H1227 H 0.93543 0.8948 0.88069 0.0
C1228 C 0.85543 0.92631 0.85991 0.0
C1229 C 0.85129 0.94228 0.84489 0.0
C1230 C 0.87382 0.91839 0.86181 0.0
C1231 C 0.88854 0.92614 0.84867 0.0
C1232 C 0.88434 0.94244 0.83404 0.0
C1233 C 0.86595 0.95045 0.83222 0.0
C1234 C 0.94087 0.90445 0.83376 0.0
C1235 C 0.94592 0.89732 0.85085 0.0
C1236 C 0.92234 0.91397 0.83309 0.0
C1237 C 0.90835 0.91665 0.84952 0.0
C1238 C 0.91338 0.90974 0.86662 0.0
C1239 C 0.93201 0.90023 0.86728 0.0
H1240 H 0.8915 0.65913 0.99242 0.0
H1241 H 0.86255 0.67726 0.94927 0.0
H1242 H 0.90799 0.62946 0.98446 0.0
H1243 H 0.87942 0.64815 0.94075 0.0
H1244 H 0.90612 0.59262 0.93085 0.0
H1245 H 0.88518 0.61548 0.94772 0.0
H1246 H 0.93247 0.61937 0.9602 0.0
H1247 H 0.95307 0.59546 0.94467 0.0
C1248 C 0.88863 0.6567 0.98129 0.0
C1249 C 0.87581 0.67049 0.97142 0.0
C1250 C 0.89811 0.63975 0.97666 0.0
C1251 C 0.89518 0.63636 0.96186 0.0
C1252 C 0.88184 0.64999 0.95246 0.0
C1253 C 0.8722 0.66678 0.95726 0.0
C1254 C 0.91196 0.59784 0.93776 0.0
C1255 C 0.93138 0.5924 0.9361 0.0
C1256 C 0.89997 0.61123 0.94719 0.0
C1257 C 0.90713 0.61967 0.95499 0.0
C1258 C 0.92634 0.61321 0.95447 0.0
C1259 C 0.93826 0.59965 0.94528 0.0
H1260 H 0.66903 0.54665 0.19542 0.0
H1261 H 0.626 0.59911 0.19124 0.0
H1262 H 0.65153 0.53395 0.18554 0.0
H1263 H 0.60814 0.58625 0.18163 0.0
H1264 H 0.59329 0.56371 0.14424 0.0
H1265 H 0.60891 0.57708 0.15575 0.0
H1266 H 0.62411 0.52304 0.19555 0.0
H1267 H 0.60878 0.50965 0.18377 0.0
C1268 C 0.65565 0.55538 0.19267 0.0
C1269 C 0.64884 0.57385 0.19423 0.0
C1270 C 0.64557 0.54807 0.18703 0.0
C1271 C 0.62833 0.559 0.18289 0.0
C1272 C 0.62147 0.5775 0.18449 0.0
C1273 C 0.63166 0.58487 0.19004 0.0
C1274 C 0.5998 0.55475 0.15559 0.0
C1275 C 0.59989 0.53559 0.16302 0.0
C1276 C 0.60873 0.56243 0.16223 0.0
C1277 C 0.61788 0.55114 0.17653 0.0
C1278 C 0.61755 0.53208 0.18426 0.0
C1279 C 0.60874 0.52438 0.17754 0.0
H1280 H 0.17694 0.67177 0.56646 0.0
H1281 H 0.20113 0.61731 0.60047 0.0
H1282 H 0.17146 0.65655 0.54803 0.0
H1283 H 0.19568 0.60207 0.58199 0.0
H1284 H 0.15989 0.58272 0.56149 0.0
H1285 H 0.16895 0.59712 0.57801 0.0
H1286 H 0.18639 0.63805 0.52568 0.0
H1287 H 0.17733 0.62358 0.50908 0.0
C1288 C 0.18139 0.65655 0.56981 0.0
C1289 C 0.18938 0.64576 0.58503 0.0
C1290 C 0.17824 0.64782 0.55922 0.0
C1291 C 0.18302 0.62807 0.56358 0.0
C1292 C 0.19151 0.61729 0.57846 0.0
C1293 C 0.19464 0.62603 0.58906 0.0
C1294 C 0.16594 0.5946 0.55342 0.0
C1295 C 0.16786 0.60197 0.53393 0.0
C1296 C 0.17114 0.60287 0.56292 0.0
C1297 C 0.17841 0.61876 0.5532 0.0
C1298 C 0.18059 0.626 0.53365 0.0
C1299 C 0.17539 0.6177 0.52414 0.0
H1300 H 0.6798 0.94286 0.88742 0.0
H1301 H 0.64122 0.98044 0.85379 0.0
H1302 H 0.65486 0.92878 0.91019 0.0
H1303 H 0.61659 0.96536 0.8759 0.0
H1304 H 0.5719 0.94312 0.92804 0.0
H1305 H 0.59547 0.96025 0.9063 0.0
H1306 H 0.63885 0.90791 0.91221 0.0
H1307 H 0.61546 0.89125 0.93442 0.0
C1308 C 0.66597 0.94825 0.88492 0.0
C1309 C 0.66262 0.96271 0.86863 0.0
C1310 C 0.6517 0.93993 0.89786 0.0
C1311 C 0.63376 0.94565 0.89474 0.0
C1312 C 0.6302 0.96059 0.87882 0.0
C1313 C 0.64443 0.96908 0.86598 0.0
C1314 C 0.5865 0.93541 0.92452 0.0
C1315 C 0.59199 0.91598 0.93289 0.0
C1316 C 0.6 0.94515 0.91209 0.0
C1317 C 0.61915 0.93552 0.90767 0.0
C1318 C 0.62437 0.91592 0.91568 0.0
C1319 C 0.61097 0.90631 0.92824 0.0
H1320 H 0.90238 0.36486 0.9438 0.0
H1321 H 0.93708 0.34833 0.89354 0.0
H1322 H 0.91787 0.38977 0.93447 0.0
H1323 H 0.95329 0.37262 0.88473 0.0
H1324 H 0.96151 0.43257 0.86416 0.0
H1325 H 0.94789 0.40622 0.87334 0.0
H1326 H 0.94678 0.39543 0.93118 0.0
H1327 H 0.9594 0.42232 0.92219 0.0
C1328 C 0.91336 0.36648 0.93078 0.0
C1329 C 0.91838 0.3546 0.91939 0.0
C1330 C 0.92244 0.38063 0.92555 0.0
C1331 C 0.93689 0.38323 0.90884 0.0
C1332 C 0.9421 0.37118 0.89758 0.0
C1333 C 0.93295 0.35707 0.90277 0.0
C1334 C 0.95833 0.4246 0.87884 0.0
C1335 C 0.96153 0.42966 0.89241 0.0
C1336 C 0.9507 0.40934 0.88409 0.0
C1337 C 0.94612 0.39872 0.90304 0.0
C1338 C 0.94985 0.40345 0.91651 0.0
C1339 C 0.95739 0.41873 0.91128 0.0
H1340 H 0.90067 0.52442 0.24441 0.0
H1341 H 0.89973 0.494 0.20978 0.0
H1342 H 0.86749 0.54 0.24706 0.0
H1343 H 0.86629 0.50907 0.21291 0.0
H1344 H 0.81571 0.55889 0.20076 0.0
H1345 H 0.84709 0.53884 0.20149 0.0
H1346 H 0.83611 0.53773 0.25925 0.0
H1347 H 0.80476 0.55843 0.25819 0.0
C1348 C 0.89324 0.52081 0.23766 0.0
C1349 C 0.9028 0.50812 0.22676 0.0
C1350 C 0.87416 0.52967 0.23925 0.0
C1351 C 0.86413 0.5259 0.23014 0.0
C1352 C 0.87361 0.51264 0.2198 0.0
C1353 C 0.89276 0.50396 0.21803 0.0
C1354 C 0.81987 0.55406 0.21373 0.0
C1355 C 0.8078 0.56025 0.22941 0.0
C1356 C 0.8379 0.5425 0.21419 0.0
C1357 C 0.84426 0.53667 0.23041 0.0
C1358 C 0.83185 0.54223 0.24638 0.0
C1359 C 0.81385 0.554 0.24584 0.0
H1360 H 0.47086 0.08453 0.49603 0.0
H1361 H 0.50151 0.1268 0.47662 0.0
H1362 H 0.48051 0.08146 0.4644 0.0
H1363 H 0.51202 0.12299 0.44511 0.0
H1364 H 0.50757 0.1281 0.38731 0.0
H1365 H 0.49968 0.13034 0.41908 0.0
H1366 H 0.50657 0.07015 0.44093 0.0
H1367 H 0.51418 0.06801 0.40904 0.0
C1368 C 0.47969 0.09316 0.48502 0.0
C1369 C 0.48523 0.10606 0.4889 0.0
C1370 C 0.48547 0.09119 0.46689 0.0
C1371 C 0.49705 0.10198 0.45213 0.0
C1372 C 0.5029 0.11462 0.45606 0.0
C1373 C 0.49705 0.11665 0.47421 0.0
C1374 C 0.50762 0.1153 0.39888 0.0
C1375 C 0.51155 0.09786 0.39564 0.0
C1376 C 0.50313 0.11658 0.41712 0.0
C1377 C 0.5025 0.10043 0.43263 0.0
C1378 C 0.50662 0.08293 0.42937 0.0
C1379 C 0.51103 0.08168 0.41109 0.0
H1380 H 0.555 0.15428 0.59826 0.0
H1381 H 0.50289 0.19575 0.6112 0.0
H1382 H 0.56925 0.16535 0.6134 0.0
H1383 H 0.51718 0.2071 0.62603 0.0
H1384 H 0.54091 0.20621 0.67105 0.0
H1385 H 0.52736 0.19704 0.6538 0.0
H1386 H 0.58037 0.1906 0.61164 0.0
H1387 H 0.59405 0.19951 0.62923 0.0
C1388 C 0.54667 0.16595 0.6041 0.0
C1389 C 0.52778 0.17406 0.60363 0.0
C1390 C 0.55486 0.17235 0.61274 0.0
C1391 C 0.54437 0.18708 0.62104 0.0
C1392 C 0.52559 0.19548 0.62014 0.0
C1393 C 0.51738 0.189 0.61161 0.0
C1394 C 0.54962 0.20308 0.65797 0.0
C1395 C 0.56853 0.20369 0.65145 0.0
C1396 C 0.54183 0.19784 0.64803 0.0
C1397 C 0.55271 0.19315 0.63124 0.0
C1398 C 0.57164 0.19388 0.62464 0.0
C1399 C 0.57948 0.19902 0.63468 0.0
H1400 H 0.58759 0.23812 0.82036 0.0
H1401 H 0.53928 0.23512 0.80895 0.0
H1402 H 0.56966 0.23793 0.85238 0.0
H1403 H 0.52161 0.23386 0.8415 0.0
H1404 H 0.4911 0.24551 0.89899 0.0
H1405 H 0.5072 0.25055 0.86554 0.0
H1406 H 0.55884 0.21421 0.87972 0.0
H1407 H 0.54308 0.2099 0.91291 0.0
C1408 C 0.57305 0.23771 0.82455 0.0
C1409 C 0.56494 0.23655 0.812 0.0
C1410 C 0.56284 0.23729 0.84307 0.0
C1411 C 0.5443 0.23552 0.84964 0.0
C1412 C 0.53586 0.23524 0.83691 0.0
C1413 C 0.54606 0.23576 0.81829 0.0
C1414 C 0.50594 0.23875 0.89493 0.0
C1415 C 0.51578 0.22726 0.90867 0.0
C1416 C 0.51511 0.24151 0.87577 0.0
C1417 C 0.53434 0.23288 0.86993 0.0
C1418 C 0.5441 0.22134 0.88368 0.0
C1419 C 0.53497 0.21862 0.90277 0.0
H1420 H 0.49927 0.15914 0.0939 0.0
H1421 H 0.44474 0.18002 0.12849 0.0
H1422 H 0.50866 0.13686 0.122 0.0
H1423 H 0.45446 0.15887 0.15649 0.0
H1424 H 0.47106 0.11512 0.20582 0.0
H1425 H 0.46205 0.12867 0.17631 0.0
H1426 H 0.51755 0.13726 0.14681 0.0
H1427 H 0.52695 0.12232 0.17595 0.0
C1428 C 0.48922 0.15889 0.10746 0.0
C1429 C 0.47133 0.17161 0.1089 0.0
C1430 C 0.49468 0.14625 0.12364 0.0
C1431 C 0.48243 0.1461 0.14167 0.0
C1432 C 0.46428 0.1583 0.14296 0.0
C1433 C 0.45878 0.17075 0.12683 0.0
C1434 C 0.48153 0.11935 0.19297 0.0
C1435 C 0.49965 0.11793 0.19342 0.0
C1436 C 0.47626 0.12744 0.17602 0.0
C1437 C 0.48889 0.13454 0.1591 0.0
C1438 C 0.50737 0.13197 0.15941 0.0
C1439 C 0.5127 0.12364 0.17628 0.0
H1440 H 0.39256 0.54235 0.07121 0.0
H1441 H 0.39102 0.48468 0.10163 0.0
H1442 H 0.4242 0.53541 0.07441 0.0
H1443 H 0.4224 0.47778 0.10507 0.0
H1444 H 0.48576 0.46643 0.08963 0.0
H1445 H 0.45415 0.47421 0.08655 0.0
H1446 H 0.44175 0.52759 0.09709 0.0
H1447 H 0.47388 0.52013 0.09928 0.0
C1448 C 0.39895 0.52823 0.07866 0.0
C1449 C 0.38937 0.51402 0.086 0.0
C1450 C 0.41704 0.52426 0.08057 0.0
C1451 C 0.42591 0.50601 0.08994 0.0
C1452 C 0.41619 0.49189 0.09744 0.0
C1453 C 0.39818 0.49583 0.09545 0.0
C1454 C 0.4764 0.47993 0.09108 0.0
C1455 C 0.48245 0.49271 0.09455 0.0
C1456 C 0.45814 0.4843 0.08957 0.0
C1457 C 0.44535 0.50152 0.09161 0.0
C1458 C 0.45131 0.51428 0.09524 0.0
C1459 C 0.46965 0.50991 0.09672 0.0
H1460 H 0.21509 0.90482 0.55161 0.0
H1461 H 0.2401 0.89897 0.49532 0.0
H1462 H 0.21776 0.87106 0.56403 0.0
H1463 H 0.24344 0.8651 0.50783 0.0
H1464 H 0.2219 0.81131 0.5351 0.0
H1465 H 0.22266 0.8442 0.52194 0.0
H1466 H 0.24053 0.84041 0.56895 0.0
H1467 H 0.23986 0.80736 0.58215 0.0
C1468 C 0.2212 0.89632 0.54189 0.0
C1469 C 0.22726 0.90462 0.52246 0.0
C1470 C 0.22296 0.87693 0.54903 0.0
C1471 C 0.2308 0.86538 0.53692 0.0
C1472 C 0.23716 0.87363 0.51752 0.0
C1473 C 0.23542 0.89302 0.51038 0.0
C1474 C 0.22636 0.81735 0.54247 0.0
C1475 C 0.2308 0.80667 0.5597 0.0
C1476 C 0.22676 0.83625 0.53492 0.0
C1477 C 0.2316 0.84496 0.54442 0.0
C1478 C 0.23646 0.83419 0.56144 0.0
C1479 C 0.23608 0.81525 0.56899 0.0
H1480 H 0.10163 0.91857 0.89175 0.0
H1481 H 0.13837 0.88895 0.85067 0.0
H1482 H 0.1278 0.92842 0.89117 0.0
H1483 H 0.16473 0.89796 0.85085 0.0
H1484 H 0.20362 0.93382 0.84005 0.0
H1485 H 0.17694 0.92483 0.84051 0.0
H1486 H 0.15637 0.91706 0.90047 0.0
H1487 H 0.18249 0.92699 0.89985 0.0
C1488 C 0.11528 0.91411 0.88261 0.0
C1489 C 0.1178 0.90301 0.8712 0.0
C1490 C 0.13038 0.91958 0.88245 0.0
C1491 C 0.14843 0.91405 0.87092 0.0
C1492 C 0.151 0.90274 0.8597 0.0
C1493 C 0.13589 0.89732 0.85981 0.0
C1494 C 0.19327 0.93046 0.8533 0.0
C1495 C 0.19528 0.93114 0.86991 0.0
C1496 C 0.17808 0.92503 0.85361 0.0
C1497 C 0.1645 0.92009 0.87055 0.0
C1498 C 0.16642 0.92092 0.88713 0.0
C1499 C 0.18157 0.92641 0.88681 0.0
H1500 H 0.87945 0.9443 0.89157 0.0
H1501 H 0.82107 0.96379 0.89109 0.0
H1502 H 0.8749 0.91285 0.91085 0.0
H1503 H 0.81657 0.93268 0.91007 0.0
H1504 H 0.80963 0.88299 0.96143 0.0
H1505 H 0.81707 0.91303 0.94343 0.0
H1506 H 0.86601 0.88569 0.90729 0.0
H1507 H 0.85917 0.8552 0.92592 0.0
C1508 C 0.86569 0.94186 0.89564 0.0
C1509 C 0.85061 0.95643 0.88984 0.0
C1510 C 0.86311 0.9239 0.90653 0.0
C1511 C 0.84535 0.92039 0.91204 0.0
C1512 C 0.83035 0.93502 0.90623 0.0
C1513 C 0.83296 0.95279 0.89524 0.0
C1514 C 0.8223 0.88317 0.95001 0.0
C1515 C 0.83382 0.86654 0.94524 0.0
C1516 C 0.82641 0.90048 0.93953 0.0
C1517 C 0.84212 0.90169 0.92397 0.0
C1518 C 0.85394 0.88511 0.91938 0.0
C1519 C 0.84987 0.8677 0.92992 0.0
H1520 H 0.164 0.08651 0.51282 0.0
H1521 H 0.17549 0.1236 0.45638 0.0
H1522 H 0.14229 0.11317 0.5241 0.0
H1523 H 0.15489 0.15032 0.46777 0.0
H1524 H 0.11113 0.19611 0.48927 0.0
H1525 H 0.12453 0.16716 0.47996 0.0
H1526 H 0.14452 0.13904 0.53014 0.0
H1527 H 0.12991 0.16752 0.5401 0.0
C1528 C 0.16176 0.1003 0.50277 0.0
C1529 C 0.17172 0.10292 0.48372 0.0
C1530 C 0.14948 0.11566 0.50928 0.0
C1531 C 0.14694 0.13402 0.49693 0.0
C1532 C 0.15627 0.13645 0.47774 0.0
C1533 C 0.16838 0.12111 0.47122 0.0
C1534 C 0.11789 0.18362 0.49861 0.0
C1535 C 0.11965 0.1843 0.51533 0.0
C1536 C 0.12585 0.16704 0.49311 0.0
C1537 C 0.13595 0.15076 0.50409 0.0
C1538 C 0.1368 0.15118 0.52131 0.0
C1539 C 0.12865 0.16768 0.52691 0.0
H1540 H 0.82419 0.20785 0.93331 0.0
H1541 H 0.8837 0.1994 0.92369 0.0
H1542 H 0.83059 0.18231 0.92026 0.0
H1543 H 0.8902 0.17409 0.90989 0.0
H1544 H 0.8913 0.11531 0.90848 0.0
H1545 H 0.88702 0.14194 0.91938 0.0
H1546 H 0.84302 0.17444 0.89103 0.0
H1547 H 0.84667 0.14767 0.8809 0.0
C1548 C 0.83868 0.20053 0.92839 0.0
C1549 C 0.85342 0.2056 0.92972 0.0
C1550 C 0.84237 0.18601 0.92066 0.0
C1551 C 0.86092 0.17614 0.91395 0.0
C1552 C 0.87573 0.1813 0.91507 0.0
C1553 C 0.87202 0.19592 0.92281 0.0
C1554 C 0.88067 0.12812 0.90462 0.0
C1555 C 0.86926 0.12924 0.8939 0.0
C1556 C 0.87838 0.14348 0.91069 0.0
C1557 C 0.86457 0.16031 0.90621 0.0
C1558 C 0.85359 0.16161 0.895 0.0
C1559 C 0.85586 0.14629 0.88897 0.0
H1560 H 0.12339 0.44304 0.17905 0.0
H1561 H 0.08768 0.49605 0.15496 0.0
H1562 H 0.15089 0.45302 0.157 0.0
H1563 H 0.11525 0.50557 0.13181 0.0
H1564 H 0.1684 0.52633 0.11453 0.0
H1565 H 0.13975 0.5161 0.13072 0.0
H1566 H 0.17017 0.45974 0.12667 0.0
H1567 H 0.19922 0.46968 0.11189 0.0
C1568 C 0.12138 0.45678 0.16888 0.0
C1569 C 0.10328 0.46887 0.16908 0.0
C1570 C 0.13721 0.46241 0.15593 0.0
C1571 C 0.13545 0.4802 0.14256 0.0
C1572 C 0.11725 0.49191 0.14209 0.0
C1573 C 0.10137 0.48634 0.15523 0.0
C1574 C 0.16904 0.51172 0.11712 0.0
C1575 C 0.18631 0.49875 0.1123 0.0
C1576 C 0.15245 0.50588 0.12618 0.0
C1577 C 0.15255 0.48696 0.13036 0.0
C1578 C 0.16957 0.47432 0.12418 0.0
C1579 C 0.18625 0.4801 0.11538 0.0
H1580 H 0.34931 0.90748 0.92089 0.0
H1581 H 0.35747 0.96141 0.91276 0.0
H1582 H 0.372 0.89201 0.94 0.0
H1583 H 0.38049 0.94585 0.93122 0.0
H1584 H 0.44022 0.90748 0.9351 0.0
H1585 H 0.41325 0.92287 0.92172 0.0
H1586 H 0.37938 0.89126 0.97094 0.0
H1587 H 0.40655 0.87585 0.98453 0.0
C1588 C 0.3556 0.91608 0.92348 0.0
C1589 C 0.35184 0.93567 0.91495 0.0
C1590 C 0.36862 0.9072 0.93438 0.0
C1591 C 0.37818 0.91774 0.93678 0.0
C1592 C 0.37353 0.93739 0.9293 0.0
C1593 C 0.36041 0.94626 0.91865 0.0
C1594 C 0.42705 0.90378 0.94306 0.0
C1595 C 0.42548 0.89044 0.9608 0.0
C1596 C 0.41159 0.91268 0.93548 0.0
C1597 C 0.39425 0.9083 0.94536 0.0
C1598 C 0.39263 0.89485 0.96307 0.0
C1599 C 0.40809 0.88613 0.97084 0.0
H1600 H 0.91366 0.87225 0.84607 0.0
H1601 H 0.95606 0.82355 0.86639 0.0
H1602 H 0.89845 0.87463 0.87809 0.0
H1603 H 0.94044 0.82578 0.8984 0.0
H1604 H 0.89188 0.82191 0.95315 0.0
H1605 H 0.90811 0.82139 0.92072 0.0
H1606 H 0.90533 0.88048 0.90491 0.0
H1607 H 0.88949 0.881 0.93747 0.0
C1608 C 0.91992 0.8622 0.85725 0.0
C1609 C 0.93603 0.84754 0.85358 0.0
C1610 C 0.91113 0.86358 0.87561 0.0
C1611 C 0.91817 0.8503 0.89071 0.0
C1612 C 0.93455 0.83602 0.88703 0.0
C1613 C 0.94344 0.83472 0.86869 0.0
C1614 C 0.89483 0.83478 0.94281 0.0
C1615 C 0.88944 0.85147 0.94797 0.0
C1616 C 0.90413 0.83447 0.92424 0.0
C1617 C 0.9081 0.85086 0.91034 0.0
C1618 C 0.9024 0.86766 0.91534 0.0
C1619 C 0.89324 0.86795 0.93397 0.0
H1620 H 0.95122 0.85603 0.19063 0.0
H1621 H 0.89656 0.88907 0.21354 0.0
H1622 H 0.94017 0.85734 0.16505 0.0
H1623 H 0.88577 0.89105 0.18756 0.0
H1624 H 0.86715 0.87358 0.1494 0.0
H1625 H 0.87785 0.87182 0.17541 0.0
H1626 H 0.9313 0.8796 0.13707 0.0
H1627 H 0.92094 0.88052 0.11128 0.0
C1628 C 0.93684 0.86354 0.19024 0.0
C1629 C 0.9248 0.87247 0.20414 0.0
C1630 C 0.93057 0.86449 0.17544 0.0
C1631 C 0.91209 0.87437 0.17419 0.0
C1632 C 0.90002 0.88318 0.18817 0.0
C1633 C 0.90629 0.88223 0.20295 0.0
C1634 C 0.88122 0.8748 0.14655 0.0
C1635 C 0.89316 0.8772 0.12823 0.0
C1636 C 0.8873 0.87398 0.16143 0.0
C1637 C 0.90546 0.87552 0.15835 0.0
C1638 C 0.91732 0.87811 0.14 0.0
C1639 C 0.91126 0.87891 0.12515 0.0
H1640 H 0.90838 0.9066 0.36519 0.0
H1641 H 0.95735 0.92813 0.34546 0.0
H1642 H 0.89361 0.92548 0.3872 0.0
H1643 H 0.94246 0.94735 0.36731 0.0
H1644 H 0.92138 0.95553 0.4267 0.0
H1645 H 0.93509 0.94179 0.40052 0.0
H1646 H 0.88003 0.95607 0.39184 0.0
H1647 H 0.86631 0.96945 0.41837 0.0
C1648 C 0.91581 0.91573 0.36523 0.0
C1649 C 0.93409 0.91577 0.35367 0.0
C1650 C 0.90733 0.9266 0.37787 0.0
C1651 C 0.91689 0.93785 0.37917 0.0
C1652 C 0.93484 0.93855 0.36696 0.0
C1653 C 0.94336 0.92759 0.3544 0.0
C1654 C 0.91226 0.95598 0.41901 0.0
C1655 C 0.89277 0.96345 0.42466 0.0
C1656 C 0.92011 0.94816 0.40394 0.0
C1657 C 0.90867 0.94774 0.39407 0.0
C1658 C 0.88922 0.95583 0.39933 0.0
C1659 C 0.88136 0.96353 0.41451 0.0
H1660 H 0.9858 0.86873 0.64427 0.0
H1661 H 0.93181 0.88078 0.68383 0.0
H1662 H 0.97227 0.89083 0.61843 0.0
H1663 H 0.91844 0.903 0.65806 0.0
H1664 H 0.90487 0.95439 0.60987 0.0
H1665 H 0.92051 0.93368 0.6345 0.0
H1666 H 0.94891 0.89318 0.60259 0.0
H1667 H 0.93347 0.91418 0.57763 0.0
C1668 C 0.97106 0.87606 0.64747 0.0
C1669 C 0.9599 0.87296 0.66616 0.0
C1670 C 0.96332 0.88872 0.63266 0.0
C1671 C 0.9443 0.89865 0.63621 0.0
C1672 C 0.93322 0.89577 0.65489 0.0
C1673 C 0.94091 0.88306 0.66968 0.0
C1674 C 0.91471 0.94123 0.60792 0.0
C1675 C 0.91801 0.93596 0.59174 0.0
C1676 C 0.9235 0.92927 0.62214 0.0
C1677 C 0.93586 0.91176 0.62053 0.0
C1678 C 0.93954 0.90665 0.60416 0.0
C1679 C 0.93062 0.91859 0.58995 0.0
loop_
_geom_bond_atom_site_label_1
_geom_bond_atom_site_label_2
_geom_bond_distance
_geom_bond_site_symmetry_2
_ccdc_geom_bond_type
C0 C1 1.264 . S
C0 C5 1.479 . S
C0 C10 1.465 . S
C1 C0 1.264 . S
C1 C3 1.339 . S
C1 H28 0.931 . S
C2 C3 1.395 . S
C2 C4 1.320 . S
C3 C1 1.339 . S
C3 C2 1.395 . S
C3 H29 0.929 . S
C4 C2 1.320 . S
C4 C5 1.405 . S
C4 H30 0.930 . S
C5 C0 1.479 . S
C5 C4 1.405 . S
C5 H31 0.931 . S
U6 O7 2.454 . S
U6 O8 2.458 . S
U6 C9 2.984 . S
U6 C10 2.847 . S
U6 C23 2.882 . S
U6 O24 2.441 . S
U6 O25 2.420 . S
U6 O26 2.455 . S
U6 O27 2.449 . S
O7 U6 2.454 . S
O7 C9 1.353 . S
O8 U6 2.458 . S
O8 C9 1.286 . S
C9 U6 2.984 . S
C9 O7 1.353 . S
C9 O8 1.286 . S
C9 C11 1.363 . S
C10 C0 1.465 . S
C10 U6 2.847 . S
C10 O24 1.249 . S
C10 O25 1.202 . S
C11 C9 1.363 . S
C11 C13 1.408 . S
C11 C16 1.342 . S
C12 C13 1.310 . S
C12 C15 1.461 . S
C12 H32 0.932 . S
C13 C11 1.408 . S
C13 C12 1.310 . S
C13 H33 0.930 . S
C14 C15 1.474 . S
C14 C16 1.285 . S
C14 H34 0.929 . S
C15 C12 1.461 . S
C15 C14 1.474 . S
C16 C11 1.342 . S
C16 C14 1.285 . S
C16 H35 0.930 . S
C17 C20 1.424 . S
C17 C22 1.241 1_455 S
C17 C23 1.428 . S
C18 C21 1.260 . S
C18 C22 1.505 . S
C18 H36 0.932 . S
C19 C20 1.384 1_655 S
C19 C21 1.479 . S
C19 H37 0.929 . S
C20 C17 1.424 . S
C20 C19 1.384 1_455 S
C20 H38 0.928 . S
C21 C18 1.260 . S
C21 C19 1.479 . S
C22 C17 1.241 1_655 S
C22 C18 1.505 . S
C22 H39 0.878 1_655 S
C23 U6 2.882 . S
C23 C17 1.428 . S
C23 O26 1.301 . S
C23 O27 1.282 . S
O24 U6 2.441 . S
O24 C10 1.249 . S
O25 U6 2.420 . S
O25 C10 1.202 . S
O26 U6 2.455 . S
O26 C23 1.301 . S
O27 U6 2.449 . S
O27 C23 1.282 . S
H28 C1 0.931 . S
H29 C3 0.929 . S
H30 C4 0.930 . S
H31 C5 0.931 . S
H32 C12 0.932 . S
H33 C13 0.930 . S
H34 C14 0.929 . S
H35 C16 0.930 . S
H36 C18 0.932 . S
H37 C19 0.929 . S
H38 C20 0.928 . S
H39 C22 0.878 1_455 S
C40 C41 1.264 . S
C40 C45 1.479 . S
C40 C50 1.465 . S
C41 C40 1.264 . S
C41 C43 1.339 . S
C41 H68 0.931 . S
C42 C43 1.395 . S
C42 C44 1.320 . S
C43 C41 1.339 . S
C43 C42 1.395 . S
C43 H69 0.929 . S
C44 C42 1.320 . S
C44 C45 1.405 . S
C44 H70 0.930 . S
C45 C40 1.479 . S
C45 C44 1.405 . S
C45 H71 0.931 . S
U46 O47 2.454 . S
U46 O48 2.458 . S
U46 C49 2.984 . S
U46 C50 2.847 . S
U46 C63 2.882 . S
U46 O64 2.441 . S
U46 O65 2.420 . S
U46 O66 2.455 . S
U46 O67 2.449 . S
O47 U46 2.454 . S
O47 C49 1.353 . S
O48 U46 2.458 . S
O48 C49 1.286 . S
C49 U46 2.984 . S
C49 O47 1.353 . S
C49 O48 1.286 . S
C49 C51 1.363 1_455 S
C50 C40 1.465 . S
C50 U46 2.847 . S
C50 O64 1.249 . S
C50 O65 1.202 . S
C51 C49 1.363 1_655 S
C51 C53 1.408 . S
C51 C56 1.342 . S
C52 C53 1.310 . S
C52 C55 1.461 . S
C52 H72 0.932 . S
C53 C51 1.408 . S
C53 C52 1.310 . S
C53 H73 0.930 . S
C54 C55 1.474 . S
C54 C56 1.285 . S
C54 H74 0.929 . S
C55 C52 1.461 . S
C55 C54 1.474 . S
C56 C51 1.342 . S
C56 C54 1.285 . S
C56 H75 0.930 . S
C57 C60 1.424 . S
C57 C62 1.245 . S
C57 C63 1.428 . S
C58 C61 1.260 . S
C58 C62 1.477 . S
C58 H76 0.932 . S
C59 C60 1.384 . S
C59 C61 1.479 . S
C59 H77 0.929 . S
C60 C57 1.424 . S
C60 C59 1.384 . S
C60 H78 0.928 . S
C61 C58 1.260 . S
C61 C59 1.479 . S
C62 C57 1.245 . S
C62 C58 1.477 . S
C62 H79 0.932 . S
C63 U46 2.882 . S
C63 C57 1.428 . S
C63 O66 1.301 . S
C63 O67 1.282 . S
O64 U46 2.441 . S
O64 C50 1.249 . S
O65 U46 2.420 . S
O65 C50 1.202 . S
O66 U46 2.455 . S
O66 C63 1.301 . S
O67 U46 2.449 . S
O67 C63 1.282 . S
H68 C41 0.931 . S
H69 C43 0.929 . S
H70 C44 0.930 . S
H71 C45 0.931 . S
H72 C52 0.932 . S
H73 C53 0.930 . S
H74 C54 0.929 . S
H75 C56 0.930 . S
H76 C58 0.932 . S
H77 C59 0.929 . S
H78 C60 0.928 . S
H79 C62 0.932 . S
C80 C81 1.272 1_556 S
C80 C85 1.490 . S
C80 C90 1.445 1_556 S
C81 C80 1.272 1_554 S
C81 C83 1.341 1_554 S
C81 H108 0.931 . S
C82 C83 1.393 . S
C82 C84 1.320 . S
C83 C81 1.341 1_556 S
C83 C82 1.393 . S
C83 H109 0.928 1_556 S
C84 C82 1.320 . S
C84 C85 1.405 . S
C84 H110 0.930 . S
C85 C80 1.490 . S
C85 C84 1.405 . S
C85 H111 0.931 . S
U86 O87 2.454 1_554 S
U86 O88 2.458 . S
U86 C89 2.984 1_554 S
U86 C90 2.847 . S
U86 C103 2.882 . S
U86 O104 2.441 1_554 S
U86 O105 2.420 . S
U86 O106 2.455 . S
U86 O107 2.449 . S
O87 U86 2.454 1_556 S
O87 C89 1.353 . S
O88 U86 2.458 . S
O88 C89 1.286 1_554 S
C89 U86 2.984 1_556 S
C89 O87 1.353 . S
C89 O88 1.286 1_556 S
C89 C91 1.363 . S
C90 C80 1.445 1_554 S
C90 U86 2.847 . S
C90 O104 1.249 1_554 S
C90 O105 1.202 . S
C91 C89 1.363 . S
C91 C93 1.408 . S
C91 C96 1.342 . S
C92 C93 1.310 . S
C92 C95 1.461 . S
C92 H112 0.932 . S
C93 C91 1.408 . S
C93 C92 1.310 . S
C93 H113 0.930 . S
C94 C95 1.474 . S
C94 C96 1.285 . S
C94 H114 0.929 . S
C95 C92 1.461 . S
C95 C94 1.474 . S
C96 C91 1.342 . S
C96 C94 1.285 . S
C96 H115 0.930 . S
C97 C100 1.424 . S
C97 C102 1.245 . S
C97 C103 1.428 . S
C98 C101 1.260 . S
C98 C102 1.477 . S
C98 H116 0.932 . S
C99 C100 1.384 . S
C99 C101 1.479 . S
C99 H117 0.929 . S
C100 C97 1.424 . S
C100 C99 1.384 . S
C100 H118 0.928 . S
C101 C98 1.260 . S
C101 C99 1.479 . S
C102 C97 1.245 . S
C102 C98 1.477 . S
C102 H119 0.932 . S
C103 U86 2.882 . S
C103 C97 1.428 . S
C103 O106 1.301 . S
C103 O107 1.282 . S
O104 U86 2.441 1_556 S
O104 C90 1.249 1_556 S
O105 U86 2.420 . S
O105 C90 1.202 . S
O106 U86 2.455 . S
O106 C103 1.301 . S
O107 U86 2.449 . S
O107 C103 1.282 . S
H108 C81 0.931 . S
H109 C83 0.928 1_554 S
H110 C84 0.930 . S
H111 C85 0.931 . S
H112 C92 0.932 . S
H113 C93 0.930 . S
H114 C94 0.929 . S
H115 C96 0.930 . S
H116 C98 0.932 . S
H117 C99 0.929 . S
H118 C100 0.928 . S
H119 C102 0.932 . S
C120 C121 1.264 . S
C120 C125 1.479 . S
C120 C130 1.465 . S
C121 C120 1.264 . S
C121 C123 1.339 . S
C121 H148 0.931 . S
C122 C123 1.395 . S
C122 C124 1.320 . S
C123 C121 1.339 . S
C123 C122 1.395 . S
C123 H149 0.929 . S
C124 C122 1.320 . S
C124 C125 1.405 . S
C124 H150 0.930 . S
C125 C120 1.479 . S
C125 C124 1.405 . S
C125 H151 0.931 . S
U126 O127 2.454 . S
U126 O128 2.458 . S
U126 C129 2.984 . S
U126 C130 2.847 . S
U126 C143 2.882 . S
U126 O144 2.441 . S
U126 O145 2.420 . S
U126 O146 2.455 . S
U126 O147 2.449 . S
O127 U126 2.454 . S
O127 C129 1.353 . S
O128 U126 2.458 . S
O128 C129 1.286 . S
C129 U126 2.984 . S
C129 O127 1.353 . S
C129 O128 1.286 . S
C129 C131 1.363 . S
C130 C120 1.465 . S
C130 U126 2.847 . S
C130 O144 1.249 . S
C130 O145 1.202 . S
C131 C129 1.363 . S
C131 C133 1.408 . S
C131 C136 1.342 . S
C132 C133 1.310 . S
C132 C135 1.461 . S
C132 H152 0.932 . S
C133 C131 1.408 . S
C133 C132 1.310 . S
C133 H153 0.930 . S
C134 C135 1.474 . S
C134 C136 1.285 . S
C134 H154 0.929 . S
C135 C132 1.461 . S
C135 C134 1.474 . S
C136 C131 1.342 . S
C136 C134 1.285 . S
C136 H155 0.930 . S
C137 C140 1.424 . S
C137 C142 1.245 . S
C137 C143 1.428 . S
C138 C141 1.260 . S
C138 C142 1.477 . S
C138 H156 0.932 . S
C139 C140 1.384 . S
C139 C141 1.479 . S
C139 H157 0.929 . S
C140 C137 1.424 . S
C140 C139 1.384 . S
C140 H158 0.928 . S
C141 C138 1.260 . S
C141 C139 1.479 . S
C142 C137 1.245 . S
C142 C138 1.477 . S
C142 H159 0.932 . S
C143 U126 2.882 . S
C143 C137 1.428 . S
C143 O146 1.301 . S
C143 O147 1.282 . S
O144 U126 2.441 . S
O144 C130 1.249 . S
O145 U126 2.420 . S
O145 C130 1.202 . S
O146 U126 2.455 . S
O146 C143 1.301 . S
O147 U126 2.449 . S
O147 C143 1.282 . S
H148 C121 0.931 . S
H149 C123 0.929 . S
H150 C124 0.930 . S
H151 C125 0.931 . S
H152 C132 0.932 . S
H153 C133 0.930 . S
H154 C134 0.929 . S
H155 C136 0.930 . S
H156 C138 0.932 . S
H157 C139 0.929 . S
H158 C140 0.928 . S
H159 C142 0.932 . S
C160 C161 1.264 . S
C160 C165 1.479 . S
C160 C170 1.465 . S
C161 C160 1.264 . S
C161 C163 1.339 . S
C161 H188 0.931 . S
C162 C163 1.395 . S
C162 C164 1.320 . S
C163 C161 1.339 . S
C163 C162 1.395 . S
C163 H189 0.929 . S
C164 C162 1.320 . S
C164 C165 1.405 . S
C164 H190 0.930 . S
C165 C160 1.479 . S
C165 C164 1.405 . S
C165 H191 0.931 . S
U166 O167 2.454 . S
U166 O168 2.458 . S
U166 C169 2.984 . S
U166 C170 2.847 . S
U166 C183 2.882 . S
U166 O184 2.441 . S
U166 O185 2.420 . S
U166 O186 2.455 . S
U166 O187 2.449 . S
O167 U166 2.454 . S
O167 C169 1.353 . S
O168 U166 2.458 . S
O168 C169 1.286 . S
C169 U166 2.984 . S
C169 O167 1.353 . S
C169 O168 1.286 . S
C169 C171 1.363 . S
C170 C160 1.465 . S
C170 U166 2.847 . S
C170 O184 1.249 . S
C170 O185 1.202 . S
C171 C169 1.363 . S
C171 C173 1.408 . S
C171 C176 1.342 . S
C172 C173 1.310 . S
C172 C175 1.461 . S
C172 H192 0.932 . S
C173 C171 1.408 . S
C173 C172 1.310 . S
C173 H193 0.930 . S
C174 C175 1.474 . S
C174 C176 1.285 . S
C174 H194 0.929 . S
C175 C172 1.461 . S
C175 C174 1.474 . S
C176 C171 1.342 . S
C176 C174 1.285 . S
C176 H195 0.930 . S
C177 C180 1.424 . S
C177 C182 1.245 . S
C177 C183 1.428 . S
C178 C181 1.260 . S
C178 C182 1.477 . S
C178 H196 0.932 . S
C179 C180 1.384 . S
C179 C181 1.479 . S
C179 H197 0.929 . S
C180 C177 1.424 . S
C180 C179 1.384 . S
C180 H198 0.928 . S
C181 C178 1.260 . S
C181 C179 1.479 . S
C182 C177 1.245 . S
C182 C178 1.477 . S
C182 H199 0.932 . S
C183 U166 2.882 . S
C183 C177 1.428 . S
C183 O186 1.301 . S
C183 O187 1.282 . S
O184 U166 2.441 . S
O184 C170 1.249 . S
O185 U166 2.420 . S
O185 C170 1.202 . S
O186 U166 2.455 . S
O186 C183 1.301 . S
O187 U166 2.449 . S
O187 C183 1.282 . S
H188 C161 0.931 . S
H189 C163 0.929 . S
H190 C164 0.930 . S
H191 C165 0.931 . S
H192 C172 0.932 . S
H193 C173 0.930 . S
H194 C174 0.929 . S
H195 C176 0.930 . S
H196 C178 0.932 . S
H197 C179 0.929 . S
H198 C180 0.928 . S
H199 C182 0.932 . S
C200 C201 1.264 1_556 S
C200 C205 1.479 . S
C200 C210 1.465 . S
C201 C200 1.264 1_554 S
C201 C203 1.339 . S
C201 H228 0.931 . S
C202 C203 1.395 1_556 S
C202 C204 1.320 . S
C203 C201 1.339 . S
C203 C202 1.395 1_554 S
C203 H229 0.929 . S
C204 C202 1.320 . S
C204 C205 1.405 . S
C204 H230 0.930 . S
C205 C200 1.479 . S
C205 C204 1.405 . S
C205 H231 0.931 . S
U206 O207 2.454 . S
U206 O208 2.458 . S
U206 C209 2.984 . S
U206 C210 2.847 . S
U206 C223 2.882 1_556 S
U206 O224 2.441 . S
U206 O225 2.420 . S
U206 O226 2.455 1_556 S
U206 O227 2.449 1_556 S
O207 U206 2.454 . S
O207 C209 1.353 . S
O208 U206 2.458 . S
O208 C209 1.286 . S
C209 U206 2.984 . S
C209 O207 1.353 . S
C209 O208 1.286 . S
C209 C211 1.363 . S
C210 C200 1.465 . S
C210 U206 2.847 . S
C210 O224 1.249 . S
C210 O225 1.202 . S
C211 C209 1.363 . S
C211 C213 1.408 . S
C211 C216 1.342 . S
C212 C213 1.310 . S
C212 C215 1.461 . S
C212 H232 0.932 . S
C213 C211 1.408 . S
C213 C212 1.310 . S
C213 H233 0.930 . S
C214 C215 1.474 . S
C214 C216 1.285 . S
C214 H234 0.929 . S
C215 C212 1.461 . S
C215 C214 1.474 . S
C216 C211 1.342 . S
C216 C214 1.285 . S
C216 H235 0.930 . S
C217 C220 1.424 . S
C217 C222 1.245 . S
C217 C223 1.428 . S
C218 C221 1.260 . S
C218 C222 1.477 . S
C218 H236 0.932 . S
C219 C220 1.384 . S
C219 C221 1.479 . S
C219 H237 0.929 . S
C220 C217 1.424 . S
C220 C219 1.384 . S
C220 H238 0.928 . S
C221 C218 1.260 . S
C221 C219 1.479 . S
C222 C217 1.245 . S
C222 C218 1.477 . S
C222 H239 0.932 . S
C223 U206 2.882 1_554 S
C223 C217 1.428 . S
C223 O226 1.301 . S
C223 O227 1.282 . S
O224 U206 2.441 . S
O224 C210 1.249 . S
O225 U206 2.420 . S
O225 C210 1.202 . S
O226 U206 2.455 1_554 S
O226 C223 1.301 . S
O227 U206 2.449 1_554 S
O227 C223 1.282 . S
H228 C201 0.931 . S
H229 C203 0.929 . S
H230 C204 0.930 . S
H231 C205 0.931 . S
H232 C212 0.932 . S
H233 C213 0.930 . S
H234 C214 0.929 . S
H235 C216 0.930 . S
H236 C218 0.932 . S
H237 C219 0.929 . S
H238 C220 0.928 . S
H239 C222 0.932 . S
C240 C241 1.264 . S
C240 C245 1.479 . S
C240 C250 1.465 . S
C241 C240 1.264 . S
C241 C243 1.339 . S
C241 H268 0.931 . S
C242 C243 1.395 . S
C242 C244 1.320 . S
C243 C241 1.339 . S
C243 C242 1.395 . S
C243 H269 0.929 . S
C244 C242 1.320 . S
C244 C245 1.405 . S
C244 H270 0.930 . S
C245 C240 1.479 . S
C245 C244 1.405 . S
C245 H271 0.931 . S
U246 O247 2.454 . S
U246 O248 2.458 . S
U246 C249 2.984 . S
U246 C250 2.847 . S
U246 C263 2.882 . S
U246 O264 2.441 . S
U246 O265 2.420 . S
U246 O266 2.455 . S
U246 O267 2.449 . S
O247 U246 2.454 . S
O247 C249 1.353 . S
O248 U246 2.458 . S
O248 C249 1.286 . S
C249 U246 2.984 . S
C249 O247 1.353 . S
C249 O248 1.286 . S
C249 C251 1.363 . S
C250 C240 1.465 . S
C250 U246 2.847 . S
C250 O264 1.249 . S
C250 O265 1.202 . S
C251 C249 1.363 . S
C251 C253 1.408 . S
C251 C256 1.342 . S
C252 C253 1.310 . S
C252 C255 1.461 . S
C252 H272 0.932 . S
C253 C251 1.408 . S
C253 C252 1.310 . S
C253 H273 0.930 . S
C254 C255 1.474 . S
C254 C256 1.285 . S
C254 H274 0.929 . S
C255 C252 1.461 . S
C255 C254 1.474 . S
C256 C251 1.342 . S
C256 C254 1.285 . S
C256 H275 0.930 . S
C257 C260 1.424 1_556 S
C257 C262 1.245 1_556 S
C257 C263 1.428 . S
C258 C261 1.260 . S
C258 C262 1.477 . S
C258 H276 0.932 . S
C259 C260 1.384 . S
C259 C261 1.479 . S
C259 H277 0.929 . S
C260 C257 1.424 1_554 S
C260 C259 1.384 . S
C260 H278 0.924 . S
C261 C258 1.260 . S
C261 C259 1.479 . S
C262 C257 1.245 1_554 S
C262 C258 1.477 . S
C262 H279 0.932 . S
C263 U246 2.882 . S
C263 C257 1.428 . S
C263 O266 1.301 . S
C263 O267 1.282 . S
O264 U246 2.441 . S
O264 C250 1.249 . S
O265 U246 2.420 . S
O265 C250 1.202 . S
O266 U246 2.455 . S
O266 C263 1.301 . S
O267 U246 2.449 . S
O267 C263 1.282 . S
H268 C241 0.931 . S
H269 C243 0.929 . S
H270 C244 0.930 . S
H271 C245 0.931 . S
H272 C252 0.932 . S
H273 C253 0.930 . S
H274 C254 0.929 . S
H275 C256 0.930 . S
H276 C258 0.932 . S
H277 C259 0.929 . S
H278 C260 0.924 . S
H279 C262 0.932 . S
C280 C281 1.264 . S
C280 C285 1.479 . S
C280 C290 1.465 . S
C281 C280 1.264 . S
C281 C283 1.339 . S
C281 H308 0.931 . S
C282 C283 1.395 . S
C282 C284 1.320 . S
C283 C281 1.339 . S
C283 C282 1.395 . S
C283 H309 0.929 . S
C284 C282 1.320 . S
C284 C285 1.405 . S
C284 H310 0.930 . S
C285 C280 1.479 . S
C285 C284 1.405 . S
C285 H311 0.931 . S
U286 O287 2.477 . S
U286 O288 2.511 . S
U286 C289 3.026 . S
U286 C290 2.797 1_455 S
U286 C303 2.893 . S
U286 O304 2.404 1_455 S
U286 O305 2.366 1_455 S
U286 O306 2.487 . S
U286 O307 2.435 1_455 S
O287 U286 2.477 . S
O287 C289 1.353 . S
O288 U286 2.511 . S
O288 C289 1.286 . S
C289 U286 3.026 . S
C289 O287 1.353 . S
C289 O288 1.286 . S
C289 C291 1.363 . S
C290 C280 1.465 . S
C290 U286 2.797 1_655 S
C290 O304 1.249 . S
C290 O305 1.202 . S
C291 C289 1.363 . S
C291 C293 1.408 . S
C291 C296 1.342 . S
C292 C293 1.310 . S
C292 C295 1.461 . S
C292 H312 0.932 . S
C293 C291 1.408 . S
C293 C292 1.310 . S
C293 H313 0.930 . S
C294 C295 1.474 . S
C294 C296 1.285 . S
C294 H314 0.929 . S
C295 C292 1.461 . S
C295 C294 1.474 . S
C296 C291 1.342 . S
C296 C294 1.285 . S
C296 H315 0.930 . S
C297 C300 1.424 1_455 S
C297 C302 1.245 . S
C297 C303 1.428 . S
C298 C301 1.260 . S
C298 C302 1.477 . S
C298 H316 0.932 . S
C299 C300 1.384 . S
C299 C301 1.479 1_655 S
C299 H317 0.929 . S
C300 C297 1.424 1_655 S
C300 C299 1.384 . S
C300 H318 0.928 . S
C301 C298 1.260 . S
C301 C299 1.479 1_455 S
C302 C297 1.245 . S
C302 C298 1.477 . S
C302 H319 0.932 . S
C303 U286 2.893 . S
C303 C297 1.428 . S
C303 O306 1.301 . S
C303 O307 1.282 1_455 S
O304 U286 2.404 1_655 S
O304 C290 1.249 . S
O305 U286 2.366 1_655 S
O305 C290 1.202 . S
O306 U286 2.487 . S
O306 C303 1.301 . S
O307 U286 2.435 1_655 S
O307 C303 1.282 1_655 S
H308 C281 0.931 . S
H309 C283 0.929 . S
H310 C284 0.930 . S
H311 C285 0.931 . S
H312 C292 0.932 . S
H313 C293 0.930 . S
H314 C294 0.929 . S
H315 C296 0.930 . S
H316 C298 0.932 . S
H317 C299 0.929 . S
H318 C300 0.928 . S
H319 C302 0.932 . S
C320 C321 1.264 . S
C320 C325 1.479 . S
C320 C330 1.465 . S
C321 C320 1.264 . S
C321 C323 1.339 . S
C321 H348 0.931 . S
C322 C323 1.395 . S
C322 C324 1.320 . S
C323 C321 1.339 . S
C323 C322 1.395 . S
C323 H349 0.929 . S
C324 C322 1.320 . S
C324 C325 1.405 . S
C324 H350 0.930 . S
C325 C320 1.479 . S
C325 C324 1.405 . S
C325 H351 0.931 . S
U326 O327 2.454 . S
U326 O328 2.458 . S
U326 C329 2.984 . S
U326 C330 2.847 . S
U326 C343 2.882 . S
U326 O344 2.441 . S
U326 O345 2.420 . S
U326 O346 2.455 . S
U326 O347 2.449 . S
O327 U326 2.454 . S
O327 C329 1.353 . S
O328 U326 2.458 . S
O328 C329 1.286 . S
C329 U326 2.984 . S
C329 O327 1.353 . S
C329 O328 1.286 . S
C329 C331 1.363 . S
C330 C320 1.465 . S
C330 U326 2.847 . S
C330 O344 1.249 . S
C330 O345 1.202 . S
C331 C329 1.363 . S
C331 C333 1.408 . S
C331 C336 1.342 . S
C332 C333 1.310 . S
C332 C335 1.461 . S
C332 H352 0.932 . S
C333 C331 1.408 . S
C333 C332 1.310 . S
C333 H353 0.930 . S
C334 C335 1.474 . S
C334 C336 1.285 . S
C334 H354 0.929 . S
C335 C332 1.461 . S
C335 C334 1.474 . S
C336 C331 1.342 . S
C336 C334 1.285 . S
C336 H355 0.930 . S
C337 C340 1.424 . S
C337 C342 1.245 . S
C337 C343 1.428 . S
C338 C341 1.260 1_545 S
C338 C342 1.477 . S
C338 H356 0.957 . S
C339 C340 1.384 1_565 S
C339 C341 1.479 . S
C339 H357 0.929 . S
C340 C337 1.424 . S
C340 C339 1.384 1_545 S
C340 H358 0.928 . S
C341 C338 1.260 1_565 S
C341 C339 1.479 . S
C342 C337 1.245 . S
C342 C338 1.477 . S
C342 H359 0.932 . S
C343 U326 2.882 . S
C343 C337 1.428 . S
C343 O346 1.301 . S
C343 O347 1.282 . S
O344 U326 2.441 . S
O344 C330 1.249 . S
O345 U326 2.420 . S
O345 C330 1.202 . S
O346 U326 2.455 . S
O346 C343 1.301 . S
O347 U326 2.449 . S
O347 C343 1.282 . S
H348 C321 0.931 . S
H349 C323 0.929 . S
H350 C324 0.930 . S
H351 C325 0.931 . S
H352 C332 0.932 . S
H353 C333 0.930 . S
H354 C334 0.929 . S
H355 C336 0.930 . S
H356 C338 0.957 . S
H357 C339 0.929 . S
H358 C340 0.928 . S
H359 C342 0.932 . S
C360 C361 1.264 . S
C360 C365 1.479 . S
C360 C370 1.465 . S
C361 C360 1.264 . S
C361 C363 1.339 . S
C361 H388 0.931 . S
C362 C363 1.395 . S
C362 C364 1.320 . S
C363 C361 1.339 . S
C363 C362 1.395 . S
C363 H389 0.929 . S
C364 C362 1.320 . S
C364 C365 1.405 . S
C364 H390 0.930 . S
C365 C360 1.479 . S
C365 C364 1.405 . S
C365 H391 0.931 . S
U366 O367 2.454 . S
U366 O368 2.458 . S
U366 C369 2.984 . S
U366 C370 2.847 . S
U366 C383 2.882 . S
U366 O384 2.441 . S
U366 O385 2.420 . S
U366 O386 2.455 . S
U366 O387 2.449 . S
O367 U366 2.454 . S
O367 C369 1.353 . S
O368 U366 2.458 . S
O368 C369 1.286 . S
C369 U366 2.984 . S
C369 O367 1.353 . S
C369 O368 1.286 . S
C369 C371 1.363 . S
C370 C360 1.465 . S
C370 U366 2.847 . S
C370 O384 1.249 . S
C370 O385 1.202 . S
C371 C369 1.363 . S
C371 C373 1.408 . S
C371 C376 1.342 . S
C372 C373 1.310 . S
C372 C375 1.461 . S
C372 H392 0.932 . S
C373 C371 1.408 . S
C373 C372 1.310 . S
C373 H393 0.930 . S
C374 C375 1.474 . S
C374 C376 1.285 . S
C374 H394 0.929 . S
C375 C372 1.461 . S
C375 C374 1.474 . S
C376 C371 1.342 . S
C376 C374 1.285 . S
C376 H395 0.930 . S
C377 C380 1.424 . S
C377 C382 1.245 . S
C377 C383 1.428 . S
C378 C381 1.260 . S
C378 C382 1.477 . S
C378 H396 0.932 . S
C379 C380 1.384 . S
C379 C381 1.479 . S
C379 H397 0.929 . S
C380 C377 1.424 . S
C380 C379 1.384 . S
C380 H398 0.928 . S
C381 C378 1.260 . S
C381 C379 1.479 . S
C382 C377 1.245 . S
C382 C378 1.477 . S
C382 H399 0.932 . S
C383 U366 2.882 . S
C383 C377 1.428 . S
C383 O386 1.301 . S
C383 O387 1.282 . S
O384 U366 2.441 . S
O384 C370 1.249 . S
O385 U366 2.420 . S
O385 C370 1.202 . S
O386 U366 2.455 . S
O386 C383 1.301 . S
O387 U366 2.449 . S
O387 C383 1.282 . S
H388 C361 0.931 . S
H389 C363 0.929 . S
H390 C364 0.930 . S
H391 C365 0.931 . S
H392 C372 0.932 . S
H393 C373 0.930 . S
H394 C374 0.929 . S
H395 C376 0.930 . S
H396 C378 0.932 . S
H397 C379 0.929 . S
H398 C380 0.928 . S
H399 C382 0.932 . S
C400 C401 1.264 . S
C400 C405 1.479 . S
C400 C410 1.465 . S
C401 C400 1.264 . S
C401 C403 1.339 . S
C401 H428 0.931 . S
C402 C403 1.395 . S
C402 C404 1.320 . S
C403 C401 1.339 . S
C403 C402 1.395 . S
C403 H429 0.929 . S
C404 C402 1.320 . S
C404 C405 1.405 . S
C404 H430 0.930 . S
C405 C400 1.479 . S
C405 C404 1.405 . S
C405 H431 0.931 . S
U406 O407 2.454 . S
U406 O408 2.458 . S
U406 C409 2.984 . S
U406 C410 2.847 . S
U406 C423 2.882 . S
U406 O424 2.441 . S
U406 O425 2.420 . S
U406 O426 2.455 . S
U406 O427 2.449 . S
O407 U406 2.454 . S
O407 C409 1.353 . S
O408 U406 2.458 . S
O408 C409 1.286 . S
C409 U406 2.984 . S
C409 O407 1.353 . S
C409 O408 1.286 . S
C409 C411 1.363 . S
C410 C400 1.465 . S
C410 U406 2.847 . S
C410 O424 1.249 . S
C410 O425 1.202 . S
C411 C409 1.363 . S
C411 C413 1.408 . S
C411 C416 1.342 . S
C412 C413 1.310 . S
C412 C415 1.461 . S
C412 H432 0.932 . S
C413 C411 1.408 . S
C413 C412 1.310 . S
C413 H433 0.930 . S
C414 C415 1.474 . S
C414 C416 1.285 . S
C414 H434 0.929 . S
C415 C412 1.461 . S
C415 C414 1.474 . S
C416 C411 1.342 . S
C416 C414 1.285 . S
C416 H435 0.930 . S
C417 C420 1.424 . S
C417 C422 1.245 . S
C417 C423 1.428 . S
C418 C421 1.260 . S
C418 C422 1.477 . S
C418 H436 0.932 . S
C419 C420 1.384 . S
C419 C421 1.479 . S
C419 H437 0.929 . S
C420 C417 1.424 . S
C420 C419 1.384 . S
C420 H438 0.928 . S
C421 C418 1.260 . S
C421 C419 1.479 . S
C422 C417 1.245 . S
C422 C418 1.477 . S
C422 H439 0.932 . S
C423 U406 2.882 . S
C423 C417 1.428 . S
C423 O426 1.301 . S
C423 O427 1.282 . S
O424 U406 2.441 . S
O424 C410 1.249 . S
O425 U406 2.420 . S
O425 C410 1.202 . S
O426 U406 2.455 . S
O426 C423 1.301 . S
O427 U406 2.449 . S
O427 C423 1.282 . S
H428 C401 0.931 . S
H429 C403 0.929 . S
H430 C404 0.930 . S
H431 C405 0.931 . S
H432 C412 0.932 . S
H433 C413 0.930 . S
H434 C414 0.929 . S
H435 C416 0.930 . S
H436 C418 0.932 . S
H437 C419 0.929 . S
H438 C420 0.928 . S
H439 C422 0.932 . S
C440 C441 1.264 . S
C440 C445 1.479 . S
C440 C450 1.465 . S
C441 C440 1.264 . S
C441 C443 1.339 . S
C441 H468 0.931 . S
C442 C443 1.395 . S
C442 C444 1.320 . S
C443 C441 1.339 . S
C443 C442 1.395 . S
C443 H469 0.929 . S
C444 C442 1.320 . S
C444 C445 1.405 . S
C444 H470 0.930 . S
C445 C440 1.479 . S
C445 C444 1.405 . S
C445 H471 0.931 . S
U446 O447 2.454 . S
U446 O448 2.458 . S
U446 C449 2.984 . S
U446 C450 2.847 1_554 S
U446 C463 2.882 . S
U446 O464 2.441 1_554 S
U446 O465 2.420 1_554 S
U446 O466 2.455 . S
U446 O467 2.449 1_554 S
O447 U446 2.454 . S
O447 C449 1.353 . S
O448 U446 2.458 . S
O448 C449 1.286 . S
C449 U446 2.984 . S
C449 O447 1.353 . S
C449 O448 1.286 . S
C449 C451 1.363 . S
C450 C440 1.465 . S
C450 U446 2.847 1_556 S
C450 O464 1.249 . S
C450 O465 1.202 . S
C451 C449 1.363 . S
C451 C453 1.408 . S
C451 C456 1.342 . S
C452 C453 1.310 . S
C452 C455 1.461 . S
C452 H472 0.932 . S
C453 C451 1.408 . S
C453 C452 1.310 . S
C453 H473 0.930 . S
C454 C455 1.474 . S
C454 C456 1.285 . S
C454 H474 0.929 . S
C455 C452 1.461 . S
C455 C454 1.474 . S
C456 C451 1.342 . S
C456 C454 1.285 . S
C456 H475 0.930 . S
C457 C460 1.424 1_554 S
C457 C462 1.245 . S
C457 C463 1.428 . S
C458 C461 1.260 . S
C458 C462 1.477 . S
C458 H476 0.932 . S
C459 C460 1.384 . S
C459 C461 1.479 1_556 S
C459 H477 0.929 . S
C460 C457 1.424 1_556 S
C460 C459 1.384 . S
C460 H478 0.928 . S
C461 C458 1.260 . S
C461 C459 1.479 1_554 S
C462 C457 1.245 . S
C462 C458 1.477 . S
C462 H479 0.932 . S
C463 U446 2.882 . S
C463 C457 1.428 . S
C463 O466 1.301 . S
C463 O467 1.282 1_554 S
O464 U446 2.441 1_556 S
O464 C450 1.249 . S
O465 U446 2.420 1_556 S
O465 C450 1.202 . S
O466 U446 2.455 . S
O466 C463 1.301 . S
O467 U446 2.449 1_556 S
O467 C463 1.282 1_556 S
H468 C441 0.931 . S
H469 C443 0.929 . S
H470 C444 0.930 . S
H471 C445 0.931 . S
H472 C452 0.932 . S
H473 C453 0.930 . S
H474 C454 0.929 . S
H475 C456 0.930 . S
H476 C458 0.932 . S
H477 C459 0.929 . S
H478 C460 0.928 . S
H479 C462 0.932 . S
C480 C481 1.264 . S
C480 C485 1.479 . S
C480 C490 1.465 . S
C481 C480 1.264 . S
C481 C483 1.339 . S
C481 H508 0.931 . S
C482 C483 1.395 . S
C482 C484 1.320 . S
C483 C481 1.339 . S
C483 C482 1.395 . S
C483 H509 0.929 . S
C484 C482 1.320 . S
C484 C485 1.405 . S
C484 H510 0.930 . S
C485 C480 1.479 . S
C485 C484 1.405 . S
C485 H511 0.931 . S
U486 O487 2.454 . S
U486 O488 2.458 . S
U486 C489 2.984 . S
U486 C490 2.847 . S
U486 C503 2.882 . S
U486 O504 2.441 . S
U486 O505 2.420 . S
U486 O506 2.455 . S
U486 O507 2.449 . S
O487 U486 2.454 . S
O487 C489 1.353 . S
O488 U486 2.458 . S
O488 C489 1.286 . S
C489 U486 2.984 . S
C489 O487 1.353 . S
C489 O488 1.286 . S
C489 C491 1.363 . S
C490 C480 1.465 . S
C490 U486 2.847 . S
C490 O504 1.249 . S
C490 O505 1.202 . S
C491 C489 1.363 . S
C491 C493 1.408 . S
C491 C496 1.342 . S
C492 C493 1.310 . S
C492 C495 1.461 . S
C492 H512 0.932 . S
C493 C491 1.408 . S
C493 C492 1.310 . S
C493 H513 0.930 . S
C494 C495 1.474 . S
C494 C496 1.285 . S
C494 H514 0.929 . S
C495 C492 1.461 . S
C495 C494 1.474 . S
C496 C491 1.342 . S
C496 C494 1.285 . S
C496 H515 0.930 . S
C497 C500 1.424 . S
C497 C502 1.245 . S
C497 C503 1.428 . S
C498 C501 1.260 . S
C498 C502 1.477 1_556 S
C498 H516 0.932 . S
C499 C500 1.384 1_556 S
C499 C501 1.479 . S
C499 H517 0.929 . S
C500 C497 1.424 . S
C500 C499 1.384 1_554 S
C500 H518 0.928 . S
C501 C498 1.260 . S
C501 C499 1.479 . S
C502 C497 1.245 . S
C502 C498 1.477 1_554 S
C502 H519 0.932 . S
C503 U486 2.882 . S
C503 C497 1.428 . S
C503 O506 1.301 . S
C503 O507 1.282 . S
O504 U486 2.441 . S
O504 C490 1.249 . S
O505 U486 2.420 . S
O505 C490 1.202 . S
O506 U486 2.455 . S
O506 C503 1.301 . S
O507 U486 2.449 . S
O507 C503 1.282 . S
H508 C481 0.931 . S
H509 C483 0.929 . S
H510 C484 0.930 . S
H511 C485 0.931 . S
H512 C492 0.932 . S
H513 C493 0.930 . S
H514 C494 0.929 . S
H515 C496 0.930 . S
H516 C498 0.932 . S
H517 C499 0.929 . S
H518 C500 0.928 . S
H519 C502 0.932 . S
C520 C521 1.264 . S
C520 C525 1.479 . S
C520 C530 1.465 . S
C521 C520 1.264 . S
C521 C523 1.339 . S
C521 H548 0.931 . S
C522 C523 1.395 . S
C522 C524 1.320 . S
C523 C521 1.339 . S
C523 C522 1.395 . S
C523 H549 0.929 . S
C524 C522 1.320 . S
C524 C525 1.405 . S
C524 H550 0.930 . S
C525 C520 1.479 . S
C525 C524 1.405 . S
C525 H551 0.931 . S
U526 O527 2.454 . S
U526 O528 2.458 . S
U526 C529 2.984 . S
U526 C530 2.847 . S
U526 C543 2.882 . S
U526 O544 2.441 . S
U526 O545 2.420 . S
U526 O546 2.455 . S
U526 O547 2.449 . S
O527 U526 2.454 . S
O527 C529 1.353 . S
O528 U526 2.458 . S
O528 C529 1.286 . S
C529 U526 2.984 . S
C529 O527 1.353 . S
C529 O528 1.286 . S
C529 C531 1.363 . S
C530 C520 1.465 . S
C530 U526 2.847 . S
C530 O544 1.249 . S
C530 O545 1.202 . S
C531 C529 1.363 . S
C531 C533 1.408 . S
C531 C536 1.342 . S
C532 C533 1.310 . S
C532 C535 1.461 . S
C532 H552 0.932 . S
C533 C531 1.408 . S
C533 C532 1.310 . S
C533 H553 0.930 . S
C534 C535 1.474 . S
C534 C536 1.285 . S
C534 H554 0.929 . S
C535 C532 1.461 . S
C535 C534 1.474 . S
C536 C531 1.342 . S
C536 C534 1.285 . S
C536 H555 0.930 . S
C537 C540 1.424 . S
C537 C542 1.245 . S
C537 C543 1.428 . S
C538 C541 1.260 . S
C538 C542 1.477 . S
C538 H556 0.932 . S
C539 C540 1.384 . S
C539 C541 1.479 . S
C539 H557 0.929 . S
C540 C537 1.424 . S
C540 C539 1.384 . S
C540 H558 0.928 . S
C541 C538 1.260 . S
C541 C539 1.479 . S
C542 C537 1.245 . S
C542 C538 1.477 . S
C542 H559 0.932 . S
C543 U526 2.882 . S
C543 C537 1.428 . S
C543 O546 1.301 . S
C543 O547 1.282 . S
O544 U526 2.441 . S
O544 C530 1.249 . S
O545 U526 2.420 . S
O545 C530 1.202 . S
O546 U526 2.455 . S
O546 C543 1.301 . S
O547 U526 2.449 . S
O547 C543 1.282 . S
H548 C521 0.931 . S
H549 C523 0.929 . S
H550 C524 0.930 . S
H551 C525 0.931 . S
H552 C532 0.932 . S
H553 C533 0.930 . S
H554 C534 0.929 . S
H555 C536 0.930 . S
H556 C538 0.932 . S
H557 C539 0.929 . S
H558 C540 0.928 . S
H559 C542 0.932 . S
C560 C561 1.264 . S
C560 C565 1.479 . S
C560 C570 1.465 . S
C561 C560 1.264 . S
C561 C563 1.339 . S
C561 H588 0.931 . S
C562 C563 1.395 . S
C562 C564 1.320 . S
C563 C561 1.339 . S
C563 C562 1.395 . S
C563 H589 0.929 . S
C564 C562 1.320 . S
C564 C565 1.405 . S
C564 H590 0.930 . S
C565 C560 1.479 . S
C565 C564 1.405 . S
C565 H591 0.931 . S
U566 O567 2.454 . S
U566 O568 2.458 . S
U566 C569 2.984 . S
U566 C570 2.847 . S
U566 C583 2.882 . S
U566 O584 2.441 . S
U566 O585 2.420 . S
U566 O586 2.455 . S
U566 O587 2.449 . S
O567 U566 2.454 . S
O567 C569 1.353 . S
O568 U566 2.458 . S
O568 C569 1.286 . S
C569 U566 2.984 . S
C569 O567 1.353 . S
C569 O568 1.286 . S
C569 C571 1.363 . S
C570 C560 1.465 . S
C570 U566 2.847 . S
C570 O584 1.249 . S
C570 O585 1.202 . S
C571 C569 1.363 . S
C571 C573 1.408 . S
C571 C576 1.342 . S
C572 C573 1.310 . S
C572 C575 1.461 . S
C572 H592 0.932 . S
C573 C571 1.408 . S
C573 C572 1.310 . S
C573 H593 0.930 . S
C574 C575 1.474 . S
C574 C576 1.285 . S
C574 H594 0.929 . S
C575 C572 1.461 . S
C575 C574 1.474 . S
C576 C571 1.342 . S
C576 C574 1.285 . S
C576 H595 0.930 . S
C577 C580 1.424 . S
C577 C582 1.245 . S
C577 C583 1.428 . S
C578 C581 1.260 . S
C578 C582 1.477 . S
C578 H596 0.932 . S
C579 C580 1.384 . S
C579 C581 1.479 . S
C579 H597 0.929 . S
C580 C577 1.424 . S
C580 C579 1.384 . S
C580 H598 0.928 . S
C581 C578 1.260 . S
C581 C579 1.479 . S
C582 C577 1.245 . S
C582 C578 1.477 . S
C582 H599 0.932 . S
C583 U566 2.882 . S
C583 C577 1.428 . S
C583 O586 1.301 . S
C583 O587 1.282 . S
O584 U566 2.441 . S
O584 C570 1.249 . S
O585 U566 2.420 . S
O585 C570 1.202 . S
O586 U566 2.455 . S
O586 C583 1.301 . S
O587 U566 2.449 . S
O587 C583 1.282 . S
H588 C561 0.931 . S
H589 C563 0.929 . S
H590 C564 0.930 . S
H591 C565 0.931 . S
H592 C572 0.932 . S
H593 C573 0.930 . S
H594 C574 0.929 . S
H595 C576 0.930 . S
H596 C578 0.932 . S
H597 C579 0.929 . S
H598 C580 0.928 . S
H599 C582 0.932 . S
C600 C601 1.264 . S
C600 C605 1.479 . S
C600 C610 1.465 . S
C601 C600 1.264 . S
C601 C603 1.339 . S
C601 H628 0.931 . S
C602 C603 1.395 . S
C602 C604 1.320 . S
C603 C601 1.339 . S
C603 C602 1.395 . S
C603 H629 0.929 . S
C604 C602 1.320 . S
C604 C605 1.405 . S
C604 H630 0.930 . S
C605 C600 1.479 . S
C605 C604 1.405 . S
C605 H631 0.931 . S
U606 O607 2.454 . S
U606 O608 2.458 . S
U606 C609 2.984 . S
U606 C610 2.847 . S
U606 C623 2.882 1_565 S
U606 O624 2.441 . S
U606 O625 2.420 . S
U606 O626 2.455 1_565 S
U606 O627 2.449 . S
O607 U606 2.454 . S
O607 C609 1.353 . S
O608 U606 2.458 . S
O608 C609 1.286 . S
C609 U606 2.984 . S
C609 O607 1.353 . S
C609 O608 1.286 . S
C609 C611 1.363 . S
C610 C600 1.465 . S
C610 U606 2.847 . S
C610 O624 1.249 . S
C610 O625 1.202 . S
C611 C609 1.363 . S
C611 C613 1.408 . S
C611 C616 1.342 . S
C612 C613 1.310 . S
C612 C615 1.461 . S
C612 H632 0.932 . S
C613 C611 1.408 . S
C613 C612 1.310 . S
C613 H633 0.930 . S
C614 C615 1.474 . S
C614 C616 1.285 . S
C614 H634 0.929 . S
C615 C612 1.461 . S
C615 C614 1.474 . S
C616 C611 1.342 . S
C616 C614 1.285 . S
C616 H635 0.937 . S
C617 C620 1.424 . S
C617 C622 1.245 . S
C617 C623 1.428 . S
C618 C621 1.260 . S
C618 C622 1.477 . S
C618 H636 0.932 . S
C619 C620 1.384 . S
C619 C621 1.479 . S
C619 H637 0.929 . S
C620 C617 1.424 . S
C620 C619 1.384 . S
C620 H638 0.928 . S
C621 C618 1.260 . S
C621 C619 1.479 . S
C622 C617 1.245 . S
C622 C618 1.477 . S
C622 H639 0.932 . S
C623 U606 2.882 1_545 S
C623 C617 1.428 . S
C623 O626 1.302 . S
C623 O627 1.282 1_545 S
O624 U606 2.441 . S
O624 C610 1.249 . S
O625 U606 2.420 . S
O625 C610 1.202 . S
O626 U606 2.455 1_545 S
O626 C623 1.302 . S
O627 U606 2.449 . S
O627 C623 1.282 1_565 S
H628 C601 0.931 . S
H629 C603 0.929 . S
H630 C604 0.930 . S
H631 C605 0.931 . S
H632 C612 0.932 . S
H633 C613 0.930 . S
H634 C614 0.929 . S
H635 C616 0.937 . S
H636 C618 0.932 . S
H637 C619 0.929 . S
H638 C620 0.928 . S
H639 C622 0.932 . S
C640 C641 1.264 . S
C640 C645 1.479 . S
C640 C650 1.465 . S
C641 C640 1.264 . S
C641 C643 1.339 . S
C641 H668 0.931 . S
C642 C643 1.395 . S
C642 C644 1.320 . S
C643 C641 1.339 . S
C643 C642 1.395 . S
C643 H669 0.929 . S
C644 C642 1.320 . S
C644 C645 1.405 . S
C644 H670 0.930 . S
C645 C640 1.479 . S
C645 C644 1.405 . S
C645 H671 0.931 . S
U646 O647 2.454 . S
U646 O648 2.458 . S
U646 C649 2.984 . S
U646 C650 2.847 1_545 S
U646 C663 2.882 . S
U646 O664 2.441 1_545 S
U646 O665 2.420 1_545 S
U646 O666 2.455 . S
U646 O667 2.449 1_545 S
O647 U646 2.454 . S
O647 C649 1.353 . S
O648 U646 2.458 . S
O648 C649 1.286 . S
C649 U646 2.984 . S
C649 O647 1.353 . S
C649 O648 1.286 . S
C649 C651 1.363 . S
C650 C640 1.465 . S
C650 U646 2.847 1_565 S
C650 O664 1.249 . S
C650 O665 1.202 . S
C651 C649 1.363 . S
C651 C653 1.408 . S
C651 C656 1.342 . S
C652 C653 1.310 . S
C652 C655 1.461 . S
C652 H672 0.932 . S
C653 C651 1.408 . S
C653 C652 1.310 . S
C653 H673 0.930 . S
C654 C655 1.474 . S
C654 C656 1.285 . S
C654 H674 0.929 . S
C655 C652 1.461 . S
C655 C654 1.474 . S
C656 C651 1.342 . S
C656 C654 1.285 . S
C656 H675 0.930 . S
C657 C660 1.424 1_545 S
C657 C662 1.245 . S
C657 C663 1.428 . S
C658 C661 1.260 . S
C658 C662 1.477 . S
C658 H676 0.932 . S
C659 C660 1.384 . S
C659 C661 1.479 1_565 S
C659 H677 0.929 . S
C660 C657 1.424 1_565 S
C660 C659 1.384 . S
C660 H678 0.928 . S
C661 C658 1.260 . S
C661 C659 1.479 1_545 S
C662 C657 1.245 . S
C662 C658 1.477 . S
C662 H679 0.932 . S
C663 U646 2.882 . S
C663 C657 1.428 . S
C663 O666 1.301 . S
C663 O667 1.282 1_545 S
O664 U646 2.441 1_565 S
O664 C650 1.249 . S
O665 U646 2.420 1_565 S
O665 C650 1.202 . S
O666 U646 2.455 . S
O666 C663 1.301 . S
O667 U646 2.449 1_565 S
O667 C663 1.282 1_565 S
H668 C641 0.931 . S
H669 C643 0.929 . S
H670 C644 0.930 . S
H671 C645 0.931 . S
H672 C652 0.932 . S
H673 C653 0.930 . S
H674 C654 0.929 . S
H675 C656 0.930 . S
H676 C658 0.932 . S
H677 C659 0.929 . S
H678 C660 0.928 . S
H679 C662 0.932 . S
C680 C681 1.264 . S
C680 C685 1.479 . S
C680 C690 1.465 . S
C681 C680 1.264 . S
C681 C683 1.339 . S
C681 H708 0.931 . S
C682 C683 1.395 . S
C682 C684 1.320 . S
C683 C681 1.339 . S
C683 C682 1.395 . S
C683 H709 0.929 . S
C684 C682 1.320 . S
C684 C685 1.405 . S
C684 H710 0.930 . S
C685 C680 1.479 . S
C685 C684 1.405 . S
C685 H711 0.931 . S
U686 O687 2.454 . S
U686 O688 2.458 . S
U686 C689 2.984 . S
U686 C690 2.847 . S
U686 C703 2.882 1_565 S
U686 O704 2.441 . S
U686 O705 2.420 . S
U686 O706 2.421 1_565 S
U686 O707 2.449 1_565 S
O687 U686 2.454 . S
O687 C689 1.353 . S
O688 U686 2.458 . S
O688 C689 1.286 . S
C689 U686 2.984 . S
C689 O687 1.353 . S
C689 O688 1.286 . S
C689 C691 1.363 . S
C690 C680 1.465 . S
C690 U686 2.847 . S
C690 O704 1.249 . S
C690 O705 1.202 . S
C691 C689 1.363 . S
C691 C693 1.408 . S
C691 C696 1.342 . S
C692 C693 1.310 . S
C692 C695 1.461 . S
C692 H712 0.932 . S
C693 C691 1.408 . S
C693 C692 1.310 . S
C693 H713 0.930 . S
C694 C695 1.474 . S
C694 C696 1.285 . S
C694 H714 0.929 . S
C695 C692 1.461 . S
C695 C694 1.474 . S
C696 C691 1.342 . S
C696 C694 1.285 . S
C696 H715 0.930 . S
C697 C700 1.424 . S
C697 C702 1.245 . S
C697 C703 1.428 . S
C698 C701 1.260 . S
C698 C702 1.477 . S
C698 H716 0.932 . S
C699 C700 1.384 . S
C699 C701 1.479 . S
C699 H717 0.929 . S
C700 C697 1.424 . S
C700 C699 1.384 . S
C700 H718 0.928 . S
C701 C698 1.260 . S
C701 C699 1.479 . S
C702 C697 1.245 . S
C702 C698 1.477 . S
C702 H719 0.932 . S
C703 U686 2.882 1_545 S
C703 C697 1.428 . S
C703 O706 1.300 . S
C703 O707 1.282 . S
O704 U686 2.441 . S
O704 C690 1.249 . S
O705 U686 2.420 . S
O705 C690 1.202 . S
O706 U686 2.421 1_545 S
O706 C703 1.300 . S
O707 U686 2.449 1_545 S
O707 C703 1.282 . S
H708 C681 0.931 . S
H709 C683 0.929 . S
H710 C684 0.930 . S
H711 C685 0.931 . S
H712 C692 0.932 . S
H713 C693 0.930 . S
H714 C694 0.929 . S
H715 C696 0.930 . S
H716 C698 0.932 . S
H717 C699 0.929 . S
H718 C700 0.928 . S
H719 C702 0.932 . S
C720 C721 1.258 1_655 S
C720 C725 1.479 . S
C720 C730 1.465 . S
C721 C720 1.258 1_455 S
C721 C723 1.329 . S
C721 H748 0.951 . S
C722 C723 1.395 1_655 S
C722 C724 1.320 . S
C723 C721 1.329 . S
C723 C722 1.395 1_455 S
C723 H749 0.929 . S
C724 C722 1.320 . S
C724 C725 1.405 . S
C724 H750 0.930 . S
C725 C720 1.479 . S
C725 C724 1.405 . S
C725 H751 0.931 . S
U726 O727 2.454 . S
U726 O728 2.458 . S
U726 C729 2.984 . S
U726 C730 2.847 . S
U726 C743 2.882 1_655 S
U726 O744 2.441 . S
U726 O745 2.420 . S
U726 O746 2.455 1_655 S
U726 O747 2.449 1_655 S
O727 U726 2.454 . S
O727 C729 1.353 . S
O728 U726 2.458 . S
O728 C729 1.286 . S
C729 U726 2.984 . S
C729 O727 1.353 . S
C729 O728 1.286 . S
C729 C731 1.363 . S
C730 C720 1.465 . S
C730 U726 2.847 . S
C730 O744 1.249 . S
C730 O745 1.202 . S
C731 C729 1.363 . S
C731 C733 1.408 . S
C731 C736 1.342 . S
C732 C733 1.310 . S
C732 C735 1.461 . S
C732 H752 0.932 . S
C733 C731 1.408 . S
C733 C732 1.310 . S
C733 H753 0.930 . S
C734 C735 1.474 . S
C734 C736 1.285 . S
C734 H754 0.929 . S
C735 C732 1.461 . S
C735 C734 1.474 . S
C736 C731 1.342 . S
C736 C734 1.285 . S
C736 H755 0.930 . S
C737 C740 1.424 . S
C737 C742 1.245 . S
C737 C743 1.428 . S
C738 C741 1.260 . S
C738 C742 1.477 . S
C738 H756 0.932 . S
C739 C740 1.384 . S
C739 C741 1.479 . S
C739 H757 0.929 . S
C740 C737 1.424 . S
C740 C739 1.384 . S
C740 H758 0.928 . S
C741 C738 1.260 . S
C741 C739 1.479 . S
C742 C737 1.245 . S
C742 C738 1.477 . S
C742 H759 0.932 . S
C743 U726 2.882 1_455 S
C743 C737 1.428 . S
C743 O746 1.301 . S
C743 O747 1.282 . S
O744 U726 2.441 . S
O744 C730 1.249 . S
O745 U726 2.420 . S
O745 C730 1.202 . S
O746 U726 2.455 1_455 S
O746 C743 1.301 . S
O747 U726 2.449 1_455 S
O747 C743 1.282 . S
H748 C721 0.951 . S
H749 C723 0.929 . S
H750 C724 0.930 . S
H751 C725 0.931 . S
H752 C732 0.932 . S
H753 C733 0.930 . S
H754 C734 0.929 . S
H755 C736 0.930 . S
H756 C738 0.932 . S
H757 C739 0.929 . S
H758 C740 0.928 . S
H759 C742 0.932 . S
C760 C761 1.264 . S
C760 C765 1.479 . S
C760 C770 1.465 . S
C761 C760 1.264 . S
C761 C763 1.339 . S
C761 H788 0.931 . S
C762 C763 1.395 . S
C762 C764 1.320 . S
C763 C761 1.339 . S
C763 C762 1.395 . S
C763 H789 0.929 . S
C764 C762 1.320 . S
C764 C765 1.405 . S
C764 H790 0.930 . S
C765 C760 1.479 . S
C765 C764 1.405 . S
C765 H791 0.931 . S
U766 O767 2.454 . S
U766 O768 2.458 . S
U766 C769 2.984 . S
U766 C770 2.847 . S
U766 C783 2.882 1_655 S
U766 O784 2.441 . S
U766 O785 2.420 . S
U766 O786 2.457 1_655 S
U766 O787 2.449 . S
O767 U766 2.454 . S
O767 C769 1.353 . S
O768 U766 2.458 . S
O768 C769 1.286 . S
C769 U766 2.984 . S
C769 O767 1.353 . S
C769 O768 1.286 . S
C769 C771 1.363 . S
C770 C760 1.465 . S
C770 U766 2.847 . S
C770 O784 1.249 . S
C770 O785 1.202 . S
C771 C769 1.363 . S
C771 C773 1.408 . S
C771 C776 1.342 . S
C772 C773 1.310 . S
C772 C775 1.461 . S
C772 H792 0.932 . S
C773 C771 1.408 . S
C773 C772 1.310 . S
C773 H793 0.930 . S
C774 C775 1.474 . S
C774 C776 1.285 . S
C774 H794 0.929 . S
C775 C772 1.461 . S
C775 C774 1.474 . S
C776 C771 1.342 . S
C776 C774 1.285 . S
C776 H795 0.930 . S
C777 C780 1.424 . S
C777 C782 1.245 . S
C777 C783 1.428 . S
C778 C781 1.260 . S
C778 C782 1.477 . S
C778 H796 0.932 . S
C779 C780 1.384 . S
C779 C781 1.479 . S
C779 H797 0.929 . S
C780 C777 1.424 . S
C780 C779 1.384 . S
C780 H798 0.928 . S
C781 C778 1.260 . S
C781 C779 1.479 . S
C782 C777 1.245 . S
C782 C778 1.477 . S
C782 H799 0.932 . S
C783 U766 2.882 1_455 S
C783 C777 1.428 . S
C783 O786 1.309 . S
C783 O787 1.282 1_455 S
O784 U766 2.441 . S
O784 C770 1.249 . S
O785 U766 2.420 . S
O785 C770 1.202 . S
O786 U766 2.457 1_455 S
O786 C783 1.309 . S
O787 U766 2.449 . S
O787 C783 1.282 1_655 S
H788 C761 0.931 . S
H789 C763 0.929 . S
H790 C764 0.930 . S
H791 C765 0.931 . S
H792 C772 0.932 . S
H793 C773 0.930 . S
H794 C774 0.929 . S
H795 C776 0.930 . S
H796 C778 0.932 . S
H797 C779 0.929 . S
H798 C780 0.928 . S
H799 C782 0.932 . S
C800 C801 1.264 . S
C800 C805 1.479 . S
C800 C810 1.465 . S
C801 C800 1.264 . S
C801 C803 1.339 . S
C801 H828 0.931 . S
C802 C803 1.395 . S
C802 C804 1.320 . S
C803 C801 1.339 . S
C803 C802 1.395 . S
C803 H829 0.929 . S
C804 C802 1.320 . S
C804 C805 1.405 . S
C804 H830 0.930 . S
C805 C800 1.479 . S
C805 C804 1.405 . S
C805 H831 0.931 . S
U806 O807 2.454 . S
U806 O808 2.458 . S
U806 C809 3.042 . S
U806 C810 2.847 . S
U806 C823 2.882 . S
U806 O824 2.441 . S
U806 O825 2.420 . S
U806 O826 2.455 . S
U806 O827 2.449 . S
O807 U806 2.454 . S
O807 C809 1.411 . S
O808 U806 2.458 . S
O808 C809 1.299 . S
C809 U806 3.042 . S
C809 O807 1.411 . S
C809 O808 1.299 . S
C809 C811 1.306 1_554 S
C810 C800 1.465 . S
C810 U806 2.847 . S
C810 O824 1.249 . S
C810 O825 1.202 . S
C811 C809 1.306 1_556 S
C811 C813 1.408 . S
C811 C816 1.342 . S
C812 C813 1.310 . S
C812 C815 1.461 . S
C812 H832 0.932 . S
C813 C811 1.408 . S
C813 C812 1.310 . S
C813 H833 0.930 . S
C814 C815 1.474 . S
C814 C816 1.285 . S
C814 H834 0.929 . S
C815 C812 1.461 . S
C815 C814 1.474 . S
C816 C811 1.342 . S
C816 C814 1.285 . S
C816 H835 0.930 . S
C817 C820 1.424 . S
C817 C822 1.245 . S
C817 C823 1.428 . S
C818 C821 1.260 . S
C818 C822 1.477 . S
C818 H836 0.932 . S
C819 C820 1.384 . S
C819 C821 1.479 . S
C819 H837 0.929 . S
C820 C817 1.424 . S
C820 C819 1.384 . S
C820 H838 0.928 . S
C821 C818 1.260 . S
C821 C819 1.479 . S
C822 C817 1.245 . S
C822 C818 1.477 . S
C822 H839 0.932 . S
C823 U806 2.882 . S
C823 C817 1.428 . S
C823 O826 1.301 . S
C823 O827 1.282 . S
O824 U806 2.441 . S
O824 C810 1.249 . S
O825 U806 2.420 . S
O825 C810 1.202 . S
O826 U806 2.455 . S
O826 C823 1.301 . S
O827 U806 2.449 . S
O827 C823 1.282 . S
H828 C801 0.931 . S
H829 C803 0.929 . S
H830 C804 0.930 . S
H831 C805 0.931 . S
H832 C812 0.932 . S
H833 C813 0.930 . S
H834 C814 0.929 . S
H835 C816 0.930 . S
H836 C818 0.932 . S
H837 C819 0.929 . S
H838 C820 0.928 . S
H839 C822 0.932 . S
C840 C841 1.264 . S
C840 C845 1.479 . S
C840 C850 1.465 . S
C841 C840 1.264 . S
C841 C843 1.339 . S
C841 H868 0.931 . S
C842 C843 1.395 . S
C842 C844 1.320 . S
C843 C841 1.339 . S
C843 C842 1.395 . S
C843 H869 0.929 . S
C844 C842 1.320 . S
C844 C845 1.405 . S
C844 H870 0.930 . S
C845 C840 1.479 . S
C845 C844 1.405 . S
C845 H871 0.931 . S
U846 O847 2.454 . S
U846 O848 2.458 . S
U846 C849 2.984 . S
U846 C850 2.847 . S
U846 C863 2.882 1_655 S
U846 O864 2.441 . S
U846 O865 2.420 . S
U846 O866 2.455 . S
U846 O867 2.449 1_655 S
O847 U846 2.454 . S
O847 C849 1.353 . S
O848 U846 2.458 . S
O848 C849 1.286 . S
C849 U846 2.984 . S
C849 O847 1.353 . S
C849 O848 1.286 . S
C849 C851 1.363 . S
C850 C840 1.465 . S
C850 U846 2.847 . S
C850 O864 1.249 . S
C850 O865 1.202 . S
C851 C849 1.363 . S
C851 C853 1.408 . S
C851 C856 1.342 . S
C852 C853 1.310 . S
C852 C855 1.461 . S
C852 H872 0.932 . S
C853 C851 1.408 . S
C853 C852 1.310 . S
C853 H873 0.930 . S
C854 C855 1.474 . S
C854 C856 1.285 . S
C854 H874 0.929 . S
C855 C852 1.461 . S
C855 C854 1.474 . S
C856 C851 1.342 . S
C856 C854 1.285 . S
C856 H875 0.930 . S
C857 C860 1.424 . S
C857 C862 1.245 . S
C857 C863 1.428 . S
C858 C861 1.260 . S
C858 C862 1.477 . S
C858 H876 0.932 . S
C859 C860 1.384 . S
C859 C861 1.479 . S
C859 H877 0.929 . S
C860 C857 1.424 . S
C860 C859 1.384 . S
C860 H878 0.928 . S
C861 C858 1.260 . S
C861 C859 1.479 . S
C862 C857 1.245 . S
C862 C858 1.477 . S
C862 H879 0.932 . S
C863 U846 2.882 1_455 S
C863 C857 1.428 . S
C863 O866 1.301 1_455 S
C863 O867 1.282 . S
O864 U846 2.441 . S
O864 C850 1.249 . S
O865 U846 2.420 . S
O865 C850 1.202 . S
O866 U846 2.455 . S
O866 C863 1.301 1_655 S
O867 U846 2.449 1_455 S
O867 C863 1.282 . S
H868 C841 0.931 . S
H869 C843 0.929 . S
H870 C844 0.930 . S
H871 C845 0.931 . S
H872 C852 0.932 . S
H873 C853 0.930 . S
H874 C854 0.929 . S
H875 C856 0.930 . S
H876 C858 0.932 . S
H877 C859 0.929 . S
H878 C860 0.928 . S
H879 C862 0.932 . S
C880 C881 1.264 1_565 S
C880 C885 1.479 . S
C880 C890 1.465 . S
C881 C880 1.264 1_545 S
C881 C883 1.339 . S
C881 H908 0.931 . S
C882 C883 1.395 1_565 S
C882 C884 1.320 . S
C883 C881 1.339 . S
C883 C882 1.395 1_545 S
C883 H909 0.929 . S
C884 C882 1.320 . S
C884 C885 1.405 . S
C884 H910 0.930 . S
C885 C880 1.479 . S
C885 C884 1.405 . S
C885 H911 0.931 . S
U886 O887 2.454 . S
U886 O888 2.458 . S
U886 C889 2.984 . S
U886 C890 2.847 . S
U886 C903 2.882 1_565 S
U886 O904 2.441 . S
U886 O905 2.420 . S
U886 O906 2.455 1_565 S
U886 O907 2.449 1_565 S
O887 U886 2.454 . S
O887 C889 1.353 . S
O888 U886 2.458 . S
O888 C889 1.286 . S
C889 U886 2.984 . S
C889 O887 1.353 . S
C889 O888 1.286 . S
C889 C891 1.363 . S
C890 C880 1.465 . S
C890 U886 2.847 . S
C890 O904 1.249 . S
C890 O905 1.202 . S
C891 C889 1.363 . S
C891 C893 1.408 . S
C891 C896 1.342 . S
C892 C893 1.310 . S
C892 C895 1.461 . S
C892 H912 0.932 . S
C893 C891 1.408 . S
C893 C892 1.310 . S
C893 H913 0.930 . S
C894 C895 1.474 . S
C894 C896 1.285 . S
C894 H914 0.929 . S
C895 C892 1.461 . S
C895 C894 1.474 . S
C896 C891 1.342 . S
C896 C894 1.285 . S
C896 H915 0.930 . S
C897 C900 1.424 . S
C897 C902 1.245 . S
C897 C903 1.428 . S
C898 C901 1.260 . S
C898 C902 1.477 . S
C898 H916 0.932 . S
C899 C900 1.384 . S
C899 C901 1.479 . S
C899 H917 0.929 . S
C900 C897 1.424 . S
C900 C899 1.384 . S
C900 H918 0.928 . S
C901 C898 1.260 . S
C901 C899 1.479 . S
C902 C897 1.245 . S
C902 C898 1.477 . S
C902 H919 0.932 . S
C903 U886 2.882 1_545 S
C903 C897 1.428 . S
C903 O906 1.301 . S
C903 O907 1.282 . S
O904 U886 2.441 . S
O904 C890 1.249 . S
O905 U886 2.420 . S
O905 C890 1.202 . S
O906 U886 2.455 1_545 S
O906 C903 1.301 . S
O907 U886 2.449 1_545 S
O907 C903 1.282 . S
H908 C881 0.931 . S
H909 C883 0.929 . S
H910 C884 0.930 . S
H911 C885 0.931 . S
H912 C892 0.932 . S
H913 C893 0.930 . S
H914 C894 0.929 . S
H915 C896 0.930 . S
H916 C898 0.932 . S
H917 C899 0.929 . S
H918 C900 0.928 . S
H919 C902 0.932 . S
C920 C921 1.264 . S
C920 C925 1.479 . S
C920 C930 1.465 . S
C921 C920 1.264 . S
C921 C923 1.339 . S
C921 H948 0.931 . S
C922 C923 1.395 . S
C922 C924 1.320 . S
C923 C921 1.339 . S
C923 C922 1.395 . S
C923 H949 0.929 . S
C924 C922 1.320 . S
C924 C925 1.405 . S
C924 H950 0.930 . S
C925 C920 1.479 . S
C925 C924 1.405 . S
C925 H951 0.931 . S
U926 O927 2.454 . S
U926 O928 2.458 . S
U926 C929 2.984 . S
U926 C930 2.847 . S
U926 C943 2.882 . S
U926 O944 2.441 . S
U926 O945 2.420 . S
U926 O946 2.455 . S
U926 O947 2.449 . S
O927 U926 2.454 . S
O927 C929 1.353 . S
O928 U926 2.458 . S
O928 C929 1.286 . S
C929 U926 2.984 . S
C929 O927 1.353 . S
C929 O928 1.286 . S
C929 C931 1.363 1_545 S
C930 C920 1.465 . S
C930 U926 2.847 . S
C930 O944 1.249 . S
C930 O945 1.202 . S
C931 C929 1.363 1_565 S
C931 C933 1.408 . S
C931 C936 1.342 . S
C932 C933 1.310 . S
C932 C935 1.461 . S
C932 H952 0.932 . S
C933 C931 1.408 . S
C933 C932 1.310 . S
C933 H953 0.930 . S
C934 C935 1.474 . S
C934 C936 1.285 . S
C934 H954 0.929 . S
C935 C932 1.461 . S
C935 C934 1.474 . S
C936 C931 1.342 . S
C936 C934 1.285 . S
C936 H955 0.930 . S
C937 C940 1.424 . S
C937 C942 1.245 . S
C937 C943 1.428 . S
C938 C941 1.260 . S
C938 C942 1.477 . S
C938 H956 0.932 . S
C939 C940 1.384 . S
C939 C941 1.479 . S
C939 H957 0.929 . S
C940 C937 1.424 . S
C940 C939 1.384 . S
C940 H958 0.928 . S
C941 C938 1.260 . S
C941 C939 1.479 . S
C942 C937 1.245 . S
C942 C938 1.477 . S
C942 H959 0.932 . S
C943 U926 2.882 . S
C943 C937 1.428 . S
C943 O946 1.301 . S
C943 O947 1.282 . S
O944 U926 2.441 . S
O944 C930 1.249 . S
O945 U926 2.420 . S
O945 C930 1.202 . S
O946 U926 2.455 . S
O946 C943 1.301 . S
O947 U926 2.449 . S
O947 C943 1.282 . S
H948 C921 0.931 . S
H949 C923 0.929 . S
H950 C924 0.930 . S
H951 C925 0.931 . S
H952 C932 0.932 . S
H953 C933 0.930 . S
H954 C934 0.929 . S
H955 C936 0.930 . S
H956 C938 0.932 . S
H957 C939 0.929 . S
H958 C940 0.928 . S
H959 C942 0.932 . S
H960 C968 0.950 . S
H961 C973 0.950 . S
H962 C970 0.950 . S
H963 C972 0.950 . S
H964 C974 0.950 . S
H965 C976 0.950 . S
H966 C978 0.950 . S
H967 C979 0.950 . S
C968 H960 0.950 . S
C968 C969 1.386 1_655 S
C968 C970 1.391 . S
C969 C968 1.386 1_455 S
C969 C973 1.393 . S
C970 H962 0.950 . S
C970 C968 1.391 . S
C970 C971 1.428 . S
C971 C970 1.428 . S
C971 C972 1.379 1_655 S
C971 C977 1.486 . S
C972 H963 0.950 . S
C972 C971 1.379 1_455 S
C972 C973 1.391 . S
C973 H961 0.950 . S
C973 C969 1.393 . S
C973 C972 1.391 . S
C974 H964 0.950 . S
C974 C975 1.386 1_455 S
C974 C976 1.391 . S
C975 C974 1.386 1_655 S
C975 C979 1.393 . S
C976 H965 0.950 . S
C976 C974 1.391 . S
C976 C977 1.400 1_455 S
C977 C971 1.486 . S
C977 C976 1.400 1_655 S
C977 C978 1.398 . S
C978 H966 0.950 . S
C978 C977 1.398 . S
C978 C979 1.391 . S
C979 H967 0.950 . S
C979 C975 1.393 . S
C979 C978 1.391 . S
H980 C988 0.950 . S
H981 C993 0.950 . S
H982 C990 0.950 . S
H983 C992 0.950 . S
H984 C994 0.950 . S
H985 C996 0.950 . S
H986 C998 0.950 . S
H987 C999 0.950 . S
C988 H980 0.950 . S
C988 C989 1.386 . S
C988 C990 1.391 . S
C989 C988 1.386 . S
C989 C993 1.393 . S
C990 H982 0.950 . S
C990 C988 1.391 . S
C990 C991 1.400 . S
C991 C990 1.400 . S
C991 C992 1.398 . S
C991 C997 1.491 . S
C992 H983 0.950 . S
C992 C991 1.398 . S
C992 C993 1.391 . S
C993 H981 0.950 . S
C993 C989 1.393 . S
C993 C992 1.391 . S
C994 H984 0.950 . S
C994 C995 1.386 . S
C994 C996 1.391 . S
C995 C994 1.386 . S
C995 C999 1.393 . S
C996 H985 0.950 . S
C996 C994 1.391 . S
C996 C997 1.400 . S
C997 C991 1.491 . S
C997 C996 1.400 . S
C997 C998 1.398 . S
C998 H986 0.950 . S
C998 C997 1.398 . S
C998 C999 1.391 . S
C999 H987 0.950 . S
C999 C995 1.393 . S
C999 C998 1.391 . S
H1000 C1008 0.950 . S
H1001 C1013 0.950 . S
H1002 C1010 0.950 . S
H1003 C1012 0.950 . S
H1004 C1014 0.950 . S
H1005 C1016 0.950 . S
H1006 C1018 0.950 . S
H1007 C1019 0.950 . S
C1008 H1000 0.950 . S
C1008 C1009 1.386 . S
C1008 C1010 1.391 . S
C1009 C1008 1.386 . S
C1009 C1013 1.393 . S
C1010 H1002 0.950 . S
C1010 C1008 1.391 . S
C1010 C1011 1.400 . S
C1011 C1010 1.400 . S
C1011 C1012 1.398 . S
C1011 C1017 1.491 . S
C1012 H1003 0.950 . S
C1012 C1011 1.398 . S
C1012 C1013 1.391 . S
C1013 H1001 0.950 . S
C1013 C1009 1.393 . S
C1013 C1012 1.391 . S
C1014 H1004 0.950 . S
C1014 C1015 1.386 . S
C1014 C1016 1.391 . S
C1015 C1014 1.386 . S
C1015 C1019 1.393 . S
C1016 H1005 0.950 . S
C1016 C1014 1.391 . S
C1016 C1017 1.400 . S
C1017 C1011 1.491 . S
C1017 C1016 1.400 . S
C1017 C1018 1.398 . S
C1018 H1006 0.950 . S
C1018 C1017 1.398 . S
C1018 C1019 1.391 . S
C1019 H1007 0.950 . S
C1019 C1015 1.393 . S
C1019 C1018 1.391 . S
H1020 C1028 0.950 . S
H1021 C1033 0.950 . S
H1022 C1030 0.950 . S
H1023 C1032 0.950 . S
H1024 C1034 0.950 . S
H1025 C1036 0.950 . S
H1026 C1038 0.950 . S
H1027 C1039 0.950 . S
C1028 H1020 0.950 . S
C1028 C1029 1.386 . S
C1028 C1030 1.391 . S
C1029 C1028 1.386 . S
C1029 C1033 1.393 . S
C1030 H1022 0.950 . S
C1030 C1028 1.391 . S
C1030 C1031 1.400 . S
C1031 C1030 1.400 . S
C1031 C1032 1.398 . S
C1031 C1037 1.491 . S
C1032 H1023 0.950 . S
C1032 C1031 1.398 . S
C1032 C1033 1.391 . S
C1033 H1021 0.950 . S
C1033 C1029 1.393 . S
C1033 C1032 1.391 . S
C1034 H1024 0.950 . S
C1034 C1035 1.386 . S
C1034 C1036 1.391 . S
C1035 C1034 1.386 . S
C1035 C1039 1.393 . S
C1036 H1025 0.950 . S
C1036 C1034 1.391 . S
C1036 C1037 1.400 . S
C1037 C1031 1.491 . S
C1037 C1036 1.400 . S
C1037 C1038 1.398 . S
C1038 H1026 0.950 . S
C1038 C1037 1.398 . S
C1038 C1039 1.391 . S
C1039 H1027 0.950 . S
C1039 C1035 1.393 . S
C1039 C1038 1.391 . S
H1040 C1048 0.950 . S
H1041 C1053 0.950 . S
H1042 C1050 0.950 . S
H1043 C1052 0.950 . S
H1044 C1054 0.950 . S
H1045 C1056 0.950 . S
H1046 C1058 0.950 . S
H1047 C1059 0.950 . S
C1048 H1040 0.950 . S
C1048 C1049 1.386 1_565 S
C1048 C1050 1.391 . S
C1049 C1048 1.386 1_545 S
C1049 C1053 1.393 . S
C1050 H1042 0.950 . S
C1050 C1048 1.391 . S
C1050 C1051 1.400 . S
C1051 C1050 1.400 . S
C1051 C1052 1.398 1_565 S
C1051 C1057 1.491 . S
C1052 H1043 0.950 . S
C1052 C1051 1.398 1_545 S
C1052 C1053 1.391 . S
C1053 H1041 0.950 . S
C1053 C1049 1.393 . S
C1053 C1052 1.391 . S
C1054 H1044 0.950 . S
C1054 C1055 1.386 1_545 S
C1054 C1056 1.391 . S
C1055 C1054 1.386 1_565 S
C1055 C1059 1.393 . S
C1056 H1045 0.950 . S
C1056 C1054 1.391 . S
C1056 C1057 1.400 1_545 S
C1057 C1051 1.491 . S
C1057 C1056 1.400 1_565 S
C1057 C1058 1.398 . S
C1058 H1046 0.950 . S
C1058 C1057 1.398 . S
C1058 C1059 1.391 . S
C1059 H1047 0.950 . S
C1059 C1055 1.393 . S
C1059 C1058 1.391 . S
H1060 C1068 0.950 . S
H1061 C1073 0.950 . S
H1062 C1070 0.950 . S
H1063 C1072 0.950 . S
H1064 C1074 0.950 . S
H1065 C1076 0.950 . S
H1066 C1078 0.950 . S
H1067 C1079 0.950 . S
C1068 H1060 0.950 . S
C1068 C1069 1.386 . S
C1068 C1070 1.391 . S
C1069 C1068 1.386 . S
C1069 C1073 1.393 . S
C1070 H1062 0.950 . S
C1070 C1068 1.391 . S
C1070 C1071 1.400 . S
C1071 C1070 1.400 . S
C1071 C1072 1.398 . S
C1071 C1077 1.491 . S
C1072 H1063 0.950 . S
C1072 C1071 1.398 . S
C1072 C1073 1.391 . S
C1073 H1061 0.950 . S
C1073 C1069 1.393 . S
C1073 C1072 1.391 . S
C1074 H1064 0.950 . S
C1074 C1075 1.386 . S
C1074 C1076 1.391 . S
C1075 C1074 1.386 . S
C1075 C1079 1.393 . S
C1076 H1065 0.950 . S
C1076 C1074 1.391 . S
C1076 C1077 1.400 . S
C1077 C1071 1.491 . S
C1077 C1076 1.400 . S
C1077 C1078 1.398 . S
C1078 H1066 0.950 . S
C1078 C1077 1.398 . S
C1078 C1079 1.391 . S
C1079 H1067 0.950 . S
C1079 C1075 1.393 . S
C1079 C1078 1.391 . S
H1080 C1088 0.950 . S
H1081 C1093 0.950 . S
H1082 C1090 0.950 . S
H1083 C1092 0.950 . S
H1084 C1094 0.950 . S
H1085 C1096 0.950 . S
H1086 C1098 0.950 . S
H1087 C1099 0.950 . S
C1088 H1080 0.950 . S
C1088 C1089 1.386 . S
C1088 C1090 1.391 . S
C1089 C1088 1.386 . S
C1089 C1093 1.393 . S
C1090 H1082 0.950 . S
C1090 C1088 1.391 . S
C1090 C1091 1.400 . S
C1091 C1090 1.400 . S
C1091 C1092 1.398 . S
C1091 C1097 1.491 . S
C1092 H1083 0.950 . S
C1092 C1091 1.398 . S
C1092 C1093 1.391 . S
C1093 H1081 0.950 . S
C1093 C1089 1.393 . S
C1093 C1092 1.391 . S
C1094 H1084 0.950 . S
C1094 C1095 1.386 . S
C1094 C1096 1.391 . S
C1095 C1094 1.386 . S
C1095 C1099 1.393 . S
C1096 H1085 0.950 . S
C1096 C1094 1.391 . S
C1096 C1097 1.400 . S
C1097 C1091 1.491 . S
C1097 C1096 1.400 . S
C1097 C1098 1.398 . S
C1098 H1086 0.950 . S
C1098 C1097 1.398 . S
C1098 C1099 1.391 . S
C1099 H1087 0.950 . S
C1099 C1095 1.393 . S
C1099 C1098 1.391 . S
H1100 C1108 0.950 . S
H1101 C1113 0.950 . S
H1102 C1110 0.950 . S
H1103 C1112 0.950 . S
H1104 C1114 0.945 1_554 S
H1105 C1116 0.950 . S
H1106 C1118 0.950 . S
H1107 C1119 0.950 . S
C1108 H1100 0.950 . S
C1108 C1109 1.386 1_556 S
C1108 C1110 1.391 . S
C1109 C1108 1.386 1_554 S
C1109 C1113 1.393 . S
C1110 H1102 0.950 . S
C1110 C1108 1.391 . S
C1110 C1111 1.400 . S
C1111 C1110 1.400 . S
C1111 C1112 1.398 1_556 S
C1111 C1117 1.491 . S
C1112 H1103 0.950 . S
C1112 C1111 1.398 1_554 S
C1112 C1113 1.391 . S
C1113 H1101 0.950 . S
C1113 C1109 1.393 . S
C1113 C1112 1.391 . S
C1114 H1104 0.945 1_556 S
C1114 C1115 1.390 . S
C1114 C1116 1.391 1_556 S
C1115 C1114 1.390 . S
C1115 C1119 1.393 . S
C1116 H1105 0.950 . S
C1116 C1114 1.391 1_554 S
C1116 C1117 1.400 1_554 S
C1117 C1111 1.491 . S
C1117 C1116 1.400 1_556 S
C1117 C1118 1.398 . S
C1118 H1106 0.950 . S
C1118 C1117 1.398 . S
C1118 C1119 1.391 . S
C1119 H1107 0.950 . S
C1119 C1115 1.393 . S
C1119 C1118 1.391 . S
H1120 C1128 0.950 . S
H1121 C1133 0.950 . S
H1122 C1130 0.950 . S
H1123 C1132 0.950 . S
H1124 C1134 0.950 . S
H1125 C1136 0.950 . S
H1126 C1138 0.950 . S
H1127 C1139 0.950 . S
C1128 H1120 0.950 . S
C1128 C1129 1.386 . S
C1128 C1130 1.391 . S
C1129 C1128 1.386 . S
C1129 C1133 1.393 . S
C1130 H1122 0.950 . S
C1130 C1128 1.391 . S
C1130 C1131 1.400 . S
C1131 C1130 1.400 . S
C1131 C1132 1.398 . S
C1131 C1137 1.491 . S
C1132 H1123 0.950 . S
C1132 C1131 1.398 . S
C1132 C1133 1.391 . S
C1133 H1121 0.950 . S
C1133 C1129 1.393 . S
C1133 C1132 1.391 . S
C1134 H1124 0.950 . S
C1134 C1135 1.386 . S
C1134 C1136 1.391 . S
C1135 C1134 1.386 . S
C1135 C1139 1.393 . S
C1136 H1125 0.950 . S
C1136 C1134 1.391 . S
C1136 C1137 1.400 . S
C1137 C1131 1.491 . S
C1137 C1136 1.400 . S
C1137 C1138 1.398 . S
C1138 H1126 0.950 . S
C1138 C1137 1.398 . S
C1138 C1139 1.391 . S
C1139 H1127 0.950 . S
C1139 C1135 1.393 . S
C1139 C1138 1.391 . S
H1140 C1148 0.950 . S
H1141 C1153 0.950 . S
H1142 C1150 0.950 . S
H1143 C1152 0.950 . S
H1144 C1154 0.950 . S
H1145 C1156 0.950 . S
H1146 C1158 0.950 . S
H1147 C1159 0.950 . S
C1148 H1140 0.950 . S
C1148 C1149 1.386 . S
C1148 C1150 1.391 . S
C1149 C1148 1.386 . S
C1149 C1153 1.393 . S
C1150 H1142 0.950 . S
C1150 C1148 1.391 . S
C1150 C1151 1.400 . S
C1151 C1150 1.400 . S
C1151 C1152 1.398 . S
C1151 C1157 1.491 . S
C1152 H1143 0.950 . S
C1152 C1151 1.398 . S
C1152 C1153 1.391 . S
C1153 H1141 0.950 . S
C1153 C1149 1.393 . S
C1153 C1152 1.391 . S
C1154 H1144 0.950 . S
C1154 C1155 1.386 . S
C1154 C1156 1.391 . S
C1155 C1154 1.386 . S
C1155 C1159 1.393 . S
C1156 H1145 0.950 . S
C1156 C1154 1.391 . S
C1156 C1157 1.400 . S
C1157 C1151 1.491 . S
C1157 C1156 1.400 . S
C1157 C1158 1.398 . S
C1158 H1146 0.950 . S
C1158 C1157 1.398 . S
C1158 C1159 1.391 . S
C1159 H1147 0.950 . S
C1159 C1155 1.393 . S
C1159 C1158 1.391 . S
H1160 C1168 0.950 . S
H1161 C1173 0.950 . S
H1162 C1170 0.950 . S
H1163 C1172 0.950 . S
H1164 C1174 0.950 . S
H1165 C1176 0.950 . S
H1166 C1178 0.950 . S
H1167 C1179 0.950 . S
C1168 H1160 0.950 . S
C1168 C1169 1.386 . S
C1168 C1170 1.391 . S
C1169 C1168 1.386 . S
C1169 C1173 1.393 . S
C1170 H1162 0.950 . S
C1170 C1168 1.391 . S
C1170 C1171 1.400 . S
C1171 C1170 1.400 . S
C1171 C1172 1.398 . S
C1171 C1177 1.491 . S
C1172 H1163 0.950 . S
C1172 C1171 1.398 . S
C1172 C1173 1.391 . S
C1173 H1161 0.950 . S
C1173 C1169 1.393 . S
C1173 C1172 1.391 . S
C1174 H1164 0.950 . S
C1174 C1175 1.386 . S
C1174 C1176 1.391 . S
C1175 C1174 1.386 . S
C1175 C1179 1.393 . S
C1176 H1165 0.950 . S
C1176 C1174 1.391 . S
C1176 C1177 1.400 . S
C1177 C1171 1.491 . S
C1177 C1176 1.400 . S
C1177 C1178 1.398 . S
C1178 H1166 0.950 . S
C1178 C1177 1.398 . S
C1178 C1179 1.391 . S
C1179 H1167 0.950 . S
C1179 C1175 1.393 . S
C1179 C1178 1.391 . S
H1180 C1188 0.950 . S
H1181 C1193 0.950 . S
H1182 C1190 0.950 . S
H1183 C1192 0.950 . S
H1184 C1194 0.950 . S
H1185 C1196 0.950 . S
H1186 C1198 0.950 . S
H1187 C1199 0.950 . S
C1188 H1180 0.950 . S
C1188 C1189 1.386 . S
C1188 C1190 1.391 . S
C1189 C1188 1.386 . S
C1189 C1193 1.393 . S
C1190 H1182 0.950 . S
C1190 C1188 1.391 . S
C1190 C1191 1.400 . S
C1191 C1190 1.400 . S
C1191 C1192 1.398 . S
C1191 C1197 1.491 . S
C1192 H1183 0.950 . S
C1192 C1191 1.398 . S
C1192 C1193 1.391 . S
C1193 H1181 0.950 . S
C1193 C1189 1.393 . S
C1193 C1192 1.391 . S
C1194 H1184 0.950 . S
C1194 C1195 1.386 . S
C1194 C1196 1.391 . S
C1195 C1194 1.386 . S
C1195 C1199 1.393 . S
C1196 H1185 0.950 . S
C1196 C1194 1.391 . S
C1196 C1197 1.400 . S
C1197 C1191 1.491 . S
C1197 C1196 1.400 . S
C1197 C1198 1.398 . S
C1198 H1186 0.950 . S
C1198 C1197 1.398 . S
C1198 C1199 1.391 . S
C1199 H1187 0.950 . S
C1199 C1195 1.393 . S
C1199 C1198 1.391 . S
H1200 C1208 0.950 . S
H1201 C1213 0.950 . S
H1202 C1210 0.950 . S
H1203 C1212 0.950 . S
H1204 C1214 0.950 . S
H1205 C1216 0.950 . S
H1206 C1218 0.950 . S
H1207 C1219 0.950 . S
C1208 H1200 0.950 . S
C1208 C1209 1.386 . S
C1208 C1210 1.391 . S
C1209 C1208 1.386 . S
C1209 C1213 1.393 . S
C1210 H1202 0.950 . S
C1210 C1208 1.391 . S
C1210 C1211 1.400 . S
C1211 C1210 1.400 . S
C1211 C1212 1.398 . S
C1211 C1217 1.491 . S
C1212 H1203 0.950 . S
C1212 C1211 1.398 . S
C1212 C1213 1.391 . S
C1213 H1201 0.950 . S
C1213 C1209 1.393 . S
C1213 C1212 1.391 . S
C1214 H1204 0.950 . S
C1214 C1215 1.386 . S
C1214 C1216 1.391 . S
C1215 C1214 1.386 . S
C1215 C1219 1.393 . S
C1216 H1205 0.950 . S
C1216 C1214 1.391 . S
C1216 C1217 1.400 . S
C1217 C1211 1.491 . S
C1217 C1216 1.400 . S
C1217 C1218 1.398 . S
C1218 H1206 0.950 . S
C1218 C1217 1.398 . S
C1218 C1219 1.391 . S
C1219 H1207 0.950 . S
C1219 C1215 1.393 . S
C1219 C1218 1.391 . S
H1220 C1228 0.950 . S
H1221 C1233 0.950 . S
H1222 C1230 0.950 . S
H1223 C1232 0.950 . S
H1224 C1234 0.950 . S
H1225 C1236 0.950 . S
H1226 C1238 0.950 . S
H1227 C1239 0.950 . S
C1228 H1220 0.950 . S
C1228 C1229 1.386 . S
C1228 C1230 1.391 . S
C1229 C1228 1.386 . S
C1229 C1233 1.393 . S
C1230 H1222 0.950 . S
C1230 C1228 1.391 . S
C1230 C1231 1.400 . S
C1231 C1230 1.400 . S
C1231 C1232 1.398 . S
C1231 C1237 1.491 . S
C1232 H1223 0.950 . S
C1232 C1231 1.398 . S
C1232 C1233 1.391 . S
C1233 H1221 0.950 . S
C1233 C1229 1.393 . S
C1233 C1232 1.391 . S
C1234 H1224 0.950 . S
C1234 C1235 1.386 . S
C1234 C1236 1.391 . S
C1235 C1234 1.386 . S
C1235 C1239 1.393 . S
C1236 H1225 0.950 . S
C1236 C1234 1.391 . S
C1236 C1237 1.400 . S
C1237 C1231 1.491 . S
C1237 C1236 1.400 . S
C1237 C1238 1.398 . S
C1238 H1226 0.950 . S
C1238 C1237 1.398 . S
C1238 C1239 1.391 . S
C1239 H1227 0.950 . S
C1239 C1235 1.393 . S
C1239 C1238 1.391 . S
H1240 C1248 0.950 . S
H1241 C1253 0.950 . S
H1242 C1250 0.950 . S
H1243 C1252 0.950 . S
H1244 C1254 0.950 . S
H1245 C1256 0.950 . S
H1246 C1258 0.950 . S
H1247 C1259 0.950 . S
C1248 H1240 0.950 . S
C1248 C1249 1.386 . S
C1248 C1250 1.391 . S
C1249 C1248 1.386 . S
C1249 C1253 1.393 . S
C1250 H1242 0.950 . S
C1250 C1248 1.391 . S
C1250 C1251 1.400 . S
C1251 C1250 1.400 . S
C1251 C1252 1.398 . S
C1251 C1257 1.491 . S
C1252 H1243 0.950 . S
C1252 C1251 1.398 . S
C1252 C1253 1.391 . S
C1253 H1241 0.950 . S
C1253 C1249 1.393 . S
C1253 C1252 1.391 . S
C1254 H1244 0.950 . S
C1254 C1255 1.386 . S
C1254 C1256 1.391 . S
C1255 C1254 1.386 . S
C1255 C1259 1.393 . S
C1256 H1245 0.950 . S
C1256 C1254 1.391 . S
C1256 C1257 1.400 . S
C1257 C1251 1.491 . S
C1257 C1256 1.400 . S
C1257 C1258 1.398 . S
C1258 H1246 0.950 . S
C1258 C1257 1.398 . S
C1258 C1259 1.391 . S
C1259 H1247 0.950 . S
C1259 C1255 1.393 . S
C1259 C1258 1.391 . S
H1260 C1268 0.950 . S
H1261 C1273 0.950 . S
H1262 C1270 0.950 . S
H1263 C1272 0.950 . S
H1264 C1274 0.950 . S
H1265 C1276 0.950 . S
H1266 C1278 0.950 . S
H1267 C1279 0.950 . S
C1268 H1260 0.950 . S
C1268 C1269 1.386 . S
C1268 C1270 1.391 . S
C1269 C1268 1.386 . S
C1269 C1273 1.393 . S
C1270 H1262 0.950 . S
C1270 C1268 1.391 . S
C1270 C1271 1.400 . S
C1271 C1270 1.400 . S
C1271 C1272 1.398 . S
C1271 C1277 1.491 . S
C1272 H1263 0.950 . S
C1272 C1271 1.398 . S
C1272 C1273 1.391 . S
C1273 H1261 0.950 . S
C1273 C1269 1.393 . S
C1273 C1272 1.391 . S
C1274 H1264 0.950 . S
C1274 C1275 1.386 . S
C1274 C1276 1.391 . S
C1275 C1274 1.386 . S
C1275 C1279 1.393 . S
C1276 H1265 0.950 . S
C1276 C1274 1.391 . S
C1276 C1277 1.400 . S
C1277 C1271 1.491 . S
C1277 C1276 1.400 . S
C1277 C1278 1.398 . S
C1278 H1266 0.950 . S
C1278 C1277 1.398 . S
C1278 C1279 1.391 . S
C1279 H1267 0.950 . S
C1279 C1275 1.393 . S
C1279 C1278 1.391 . S
H1280 C1288 0.950 . S
H1281 C1293 0.950 . S
H1282 C1290 0.950 . S
H1283 C1292 0.950 . S
H1284 C1294 0.950 . S
H1285 C1296 0.950 . S
H1286 C1298 0.950 . S
H1287 C1299 0.950 . S
C1288 H1280 0.950 . S
C1288 C1289 1.386 . S
C1288 C1290 1.391 . S
C1289 C1288 1.386 . S
C1289 C1293 1.393 . S
C1290 H1282 0.950 . S
C1290 C1288 1.391 . S
C1290 C1291 1.400 . S
C1291 C1290 1.400 . S
C1291 C1292 1.398 . S
C1291 C1297 1.491 . S
C1292 H1283 0.950 . S
C1292 C1291 1.398 . S
C1292 C1293 1.391 . S
C1293 H1281 0.950 . S
C1293 C1289 1.393 . S
C1293 C1292 1.391 . S
C1294 H1284 0.950 . S
C1294 C1295 1.386 . S
C1294 C1296 1.391 . S
C1295 C1294 1.386 . S
C1295 C1299 1.393 . S
C1296 H1285 0.950 . S
C1296 C1294 1.391 . S
C1296 C1297 1.400 . S
C1297 C1291 1.491 . S
C1297 C1296 1.400 . S
C1297 C1298 1.398 . S
C1298 H1286 0.950 . S
C1298 C1297 1.398 . S
C1298 C1299 1.391 . S
C1299 H1287 0.950 . S
C1299 C1295 1.393 . S
C1299 C1298 1.391 . S
H1300 C1308 0.950 . S
H1301 C1313 0.950 . S
H1302 C1310 0.950 . S
H1303 C1312 0.950 . S
H1304 C1314 0.950 . S
H1305 C1316 0.950 . S
H1306 C1318 0.950 . S
H1307 C1319 0.950 . S
C1308 H1300 0.950 . S
C1308 C1309 1.386 . S
C1308 C1310 1.391 . S
C1309 C1308 1.386 . S
C1309 C1313 1.393 . S
C1310 H1302 0.950 . S
C1310 C1308 1.391 . S
C1310 C1311 1.400 . S
C1311 C1310 1.400 . S
C1311 C1312 1.398 . S
C1311 C1317 1.491 . S
C1312 H1303 0.950 . S
C1312 C1311 1.398 . S
C1312 C1313 1.391 . S
C1313 H1301 0.950 . S
C1313 C1309 1.393 . S
C1313 C1312 1.391 . S
C1314 H1304 0.950 . S
C1314 C1315 1.386 . S
C1314 C1316 1.391 . S
C1315 C1314 1.386 . S
C1315 C1319 1.393 . S
C1316 H1305 0.950 . S
C1316 C1314 1.391 . S
C1316 C1317 1.400 . S
C1317 C1311 1.491 . S
C1317 C1316 1.400 . S
C1317 C1318 1.398 . S
C1318 H1306 0.950 . S
C1318 C1317 1.398 . S
C1318 C1319 1.391 . S
C1319 H1307 0.950 . S
C1319 C1315 1.393 . S
C1319 C1318 1.391 . S
H1320 C1328 0.950 . S
H1321 C1333 0.950 . S
H1322 C1330 0.950 . S
H1323 C1332 0.950 . S
H1324 C1334 0.950 . S
H1325 C1336 0.950 . S
H1326 C1338 0.950 . S
H1327 C1339 0.950 . S
C1328 H1320 0.950 . S
C1328 C1329 1.386 . S
C1328 C1330 1.391 . S
C1329 C1328 1.386 . S
C1329 C1333 1.393 . S
C1330 H1322 0.950 . S
C1330 C1328 1.391 . S
C1330 C1331 1.400 . S
C1331 C1330 1.400 . S
C1331 C1332 1.398 . S
C1331 C1337 1.491 . S
C1332 H1323 0.950 . S
C1332 C1331 1.398 . S
C1332 C1333 1.391 . S
C1333 H1321 0.950 . S
C1333 C1329 1.393 . S
C1333 C1332 1.391 . S
C1334 H1324 0.950 . S
C1334 C1335 1.386 . S
C1334 C1336 1.391 . S
C1335 C1334 1.386 . S
C1335 C1339 1.393 . S
C1336 H1325 0.950 . S
C1336 C1334 1.391 . S
C1336 C1337 1.400 . S
C1337 C1331 1.491 . S
C1337 C1336 1.400 . S
C1337 C1338 1.398 . S
C1338 H1326 0.950 . S
C1338 C1337 1.398 . S
C1338 C1339 1.391 . S
C1339 H1327 0.950 . S
C1339 C1335 1.393 . S
C1339 C1338 1.391 . S
H1340 C1348 0.950 . S
H1341 C1353 0.950 . S
H1342 C1350 0.950 . S
H1343 C1352 0.950 . S
H1344 C1354 0.950 . S
H1345 C1356 0.950 . S
H1346 C1358 0.950 . S
H1347 C1359 0.950 . S
C1348 H1340 0.950 . S
C1348 C1349 1.386 . S
C1348 C1350 1.391 . S
C1349 C1348 1.386 . S
C1349 C1353 1.393 . S
C1350 H1342 0.950 . S
C1350 C1348 1.391 . S
C1350 C1351 1.400 . S
C1351 C1350 1.400 . S
C1351 C1352 1.398 . S
C1351 C1357 1.491 . S
C1352 H1343 0.950 . S
C1352 C1351 1.398 . S
C1352 C1353 1.391 . S
C1353 H1341 0.950 . S
C1353 C1349 1.393 . S
C1353 C1352 1.391 . S
C1354 H1344 0.950 . S
C1354 C1355 1.386 . S
C1354 C1356 1.391 . S
C1355 C1354 1.386 . S
C1355 C1359 1.393 . S
C1356 H1345 0.950 . S
C1356 C1354 1.391 . S
C1356 C1357 1.400 . S
C1357 C1351 1.491 . S
C1357 C1356 1.400 . S
C1357 C1358 1.398 . S
C1358 H1346 0.950 . S
C1358 C1357 1.398 . S
C1358 C1359 1.391 . S
C1359 H1347 0.950 . S
C1359 C1355 1.393 . S
C1359 C1358 1.391 . S
H1360 C1368 0.950 . S
H1361 C1373 0.950 . S
H1362 C1370 0.950 . S
H1363 C1372 0.950 . S
H1364 C1374 0.950 . S
H1365 C1376 0.950 . S
H1366 C1378 0.950 . S
H1367 C1379 0.950 . S
C1368 H1360 0.950 . S
C1368 C1369 1.386 . S
C1368 C1370 1.391 . S
C1369 C1368 1.386 . S
C1369 C1373 1.393 . S
C1370 H1362 0.950 . S
C1370 C1368 1.391 . S
C1370 C1371 1.400 . S
C1371 C1370 1.400 . S
C1371 C1372 1.398 . S
C1371 C1377 1.491 . S
C1372 H1363 0.950 . S
C1372 C1371 1.398 . S
C1372 C1373 1.391 . S
C1373 H1361 0.950 . S
C1373 C1369 1.393 . S
C1373 C1372 1.391 . S
C1374 H1364 0.950 . S
C1374 C1375 1.386 . S
C1374 C1376 1.391 . S
C1375 C1374 1.386 . S
C1375 C1379 1.393 . S
C1376 H1365 0.950 . S
C1376 C1374 1.391 . S
C1376 C1377 1.400 . S
C1377 C1371 1.491 . S
C1377 C1376 1.400 . S
C1377 C1378 1.398 . S
C1378 H1366 0.950 . S
C1378 C1377 1.398 . S
C1378 C1379 1.391 . S
C1379 H1367 0.950 . S
C1379 C1375 1.393 . S
C1379 C1378 1.391 . S
H1380 C1388 0.950 . S
H1381 C1393 0.950 . S
H1382 C1390 0.950 . S
H1383 C1392 0.950 . S
H1384 C1394 0.950 . S
H1385 C1396 0.950 . S
H1386 C1398 0.950 . S
H1387 C1399 0.950 . S
C1388 H1380 0.950 . S
C1388 C1389 1.386 . S
C1388 C1390 1.391 . S
C1389 C1388 1.386 . S
C1389 C1393 1.393 . S
C1390 H1382 0.950 . S
C1390 C1388 1.391 . S
C1390 C1391 1.400 . S
C1391 C1390 1.400 . S
C1391 C1392 1.398 . S
C1391 C1397 1.491 . S
C1392 H1383 0.950 . S
C1392 C1391 1.398 . S
C1392 C1393 1.391 . S
C1393 H1381 0.950 . S
C1393 C1389 1.393 . S
C1393 C1392 1.391 . S
C1394 H1384 0.950 . S
C1394 C1395 1.386 . S
C1394 C1396 1.391 . S
C1395 C1394 1.386 . S
C1395 C1399 1.393 . S
C1396 H1385 0.950 . S
C1396 C1394 1.391 . S
C1396 C1397 1.400 . S
C1397 C1391 1.491 . S
C1397 C1396 1.400 . S
C1397 C1398 1.398 . S
C1398 H1386 0.950 . S
C1398 C1397 1.398 . S
C1398 C1399 1.391 . S
C1399 H1387 0.950 . S
C1399 C1395 1.393 . S
C1399 C1398 1.391 . S
H1400 C1408 0.950 . S
H1401 C1413 0.950 . S
H1402 C1410 0.950 . S
H1403 C1412 0.950 . S
H1404 C1414 0.950 . S
H1405 C1416 0.950 . S
H1406 C1418 0.950 . S
H1407 C1419 0.950 . S
C1408 H1400 0.950 . S
C1408 C1409 1.386 . S
C1408 C1410 1.391 . S
C1409 C1408 1.386 . S
C1409 C1413 1.393 . S
C1410 H1402 0.950 . S
C1410 C1408 1.391 . S
C1410 C1411 1.400 . S
C1411 C1410 1.400 . S
C1411 C1412 1.398 . S
C1411 C1417 1.491 . S
C1412 H1403 0.950 . S
C1412 C1411 1.398 . S
C1412 C1413 1.391 . S
C1413 H1401 0.950 . S
C1413 C1409 1.393 . S
C1413 C1412 1.391 . S
C1414 H1404 0.950 . S
C1414 C1415 1.386 . S
C1414 C1416 1.391 . S
C1415 C1414 1.386 . S
C1415 C1419 1.393 . S
C1416 H1405 0.950 . S
C1416 C1414 1.391 . S
C1416 C1417 1.400 . S
C1417 C1411 1.491 . S
C1417 C1416 1.400 . S
C1417 C1418 1.398 . S
C1418 H1406 0.950 . S
C1418 C1417 1.398 . S
C1418 C1419 1.391 . S
C1419 H1407 0.950 . S
C1419 C1415 1.393 . S
C1419 C1418 1.391 . S
H1420 C1428 0.950 . S
H1421 C1433 0.950 . S
H1422 C1430 0.950 . S
H1423 C1432 0.950 . S
H1424 C1434 0.950 . S
H1425 C1436 0.950 . S
H1426 C1438 0.950 . S
H1427 C1439 0.950 . S
C1428 H1420 0.950 . S
C1428 C1429 1.386 . S
C1428 C1430 1.391 . S
C1429 C1428 1.386 . S
C1429 C1433 1.393 . S
C1430 H1422 0.950 . S
C1430 C1428 1.391 . S
C1430 C1431 1.400 . S
C1431 C1430 1.400 . S
C1431 C1432 1.398 . S
C1431 C1437 1.491 . S
C1432 H1423 0.950 . S
C1432 C1431 1.398 . S
C1432 C1433 1.391 . S
C1433 H1421 0.950 . S
C1433 C1429 1.393 . S
C1433 C1432 1.391 . S
C1434 H1424 0.950 . S
C1434 C1435 1.386 . S
C1434 C1436 1.391 . S
C1435 C1434 1.386 . S
C1435 C1439 1.393 . S
C1436 H1425 0.950 . S
C1436 C1434 1.391 . S
C1436 C1437 1.400 . S
C1437 C1431 1.491 . S
C1437 C1436 1.400 . S
C1437 C1438 1.398 . S
C1438 H1426 0.950 . S
C1438 C1437 1.398 . S
C1438 C1439 1.391 . S
C1439 H1427 0.950 . S
C1439 C1435 1.393 . S
C1439 C1438 1.391 . S
H1440 C1448 0.950 . S
H1441 C1453 0.950 . S
H1442 C1450 0.950 . S
H1443 C1452 0.950 . S
H1444 C1454 0.950 . S
H1445 C1456 0.950 . S
H1446 C1458 0.950 . S
H1447 C1459 0.950 . S
C1448 H1440 0.950 . S
C1448 C1449 1.386 . S
C1448 C1450 1.391 . S
C1449 C1448 1.386 . S
C1449 C1453 1.393 . S
C1450 H1442 0.950 . S
C1450 C1448 1.391 . S
C1450 C1451 1.400 . S
C1451 C1450 1.400 . S
C1451 C1452 1.398 . S
C1451 C1457 1.491 . S
C1452 H1443 0.950 . S
C1452 C1451 1.398 . S
C1452 C1453 1.391 . S
C1453 H1441 0.950 . S
C1453 C1449 1.393 . S
C1453 C1452 1.391 . S
C1454 H1444 0.950 . S
C1454 C1455 1.386 . S
C1454 C1456 1.391 . S
C1455 C1454 1.386 . S
C1455 C1459 1.393 . S
C1456 H1445 0.950 . S
C1456 C1454 1.391 . S
C1456 C1457 1.400 . S
C1457 C1451 1.491 . S
C1457 C1456 1.400 . S
C1457 C1458 1.398 . S
C1458 H1446 0.950 . S
C1458 C1457 1.398 . S
C1458 C1459 1.391 . S
C1459 H1447 0.950 . S
C1459 C1455 1.393 . S
C1459 C1458 1.391 . S
H1460 C1468 0.950 . S
H1461 C1473 0.950 . S
H1462 C1470 0.950 . S
H1463 C1472 0.950 . S
H1464 C1474 0.950 . S
H1465 C1476 0.950 . S
H1466 C1478 0.950 . S
H1467 C1479 0.950 . S
C1468 H1460 0.950 . S
C1468 C1469 1.386 . S
C1468 C1470 1.391 . S
C1469 C1468 1.386 . S
C1469 C1473 1.393 . S
C1470 H1462 0.950 . S
C1470 C1468 1.391 . S
C1470 C1471 1.400 . S
C1471 C1470 1.400 . S
C1471 C1472 1.398 . S
C1471 C1477 1.491 . S
C1472 H1463 0.950 . S
C1472 C1471 1.398 . S
C1472 C1473 1.391 . S
C1473 H1461 0.950 . S
C1473 C1469 1.393 . S
C1473 C1472 1.391 . S
C1474 H1464 0.950 . S
C1474 C1475 1.386 . S
C1474 C1476 1.391 . S
C1475 C1474 1.386 . S
C1475 C1479 1.393 . S
C1476 H1465 0.950 . S
C1476 C1474 1.391 . S
C1476 C1477 1.400 . S
C1477 C1471 1.491 . S
C1477 C1476 1.400 . S
C1477 C1478 1.398 . S
C1478 H1466 0.950 . S
C1478 C1477 1.398 . S
C1478 C1479 1.391 . S
C1479 H1467 0.950 . S
C1479 C1475 1.393 . S
C1479 C1478 1.391 . S
H1480 C1488 0.950 . S
H1481 C1493 0.950 . S
H1482 C1490 0.950 . S
H1483 C1492 0.950 . S
H1484 C1494 0.950 . S
H1485 C1496 0.950 . S
H1486 C1498 0.950 . S
H1487 C1499 0.950 . S
C1488 H1480 0.950 . S
C1488 C1489 1.386 . S
C1488 C1490 1.391 . S
C1489 C1488 1.386 . S
C1489 C1493 1.393 . S
C1490 H1482 0.950 . S
C1490 C1488 1.391 . S
C1490 C1491 1.400 . S
C1491 C1490 1.400 . S
C1491 C1492 1.398 . S
C1491 C1497 1.491 . S
C1492 H1483 0.950 . S
C1492 C1491 1.398 . S
C1492 C1493 1.391 . S
C1493 H1481 0.950 . S
C1493 C1489 1.393 . S
C1493 C1492 1.391 . S
C1494 H1484 0.950 . S
C1494 C1495 1.386 . S
C1494 C1496 1.391 . S
C1495 C1494 1.386 . S
C1495 C1499 1.393 . S
C1496 H1485 0.950 . S
C1496 C1494 1.391 . S
C1496 C1497 1.400 . S
C1497 C1491 1.491 . S
C1497 C1496 1.400 . S
C1497 C1498 1.398 . S
C1498 H1486 0.950 . S
C1498 C1497 1.398 . S
C1498 C1499 1.391 . S
C1499 H1487 0.950 . S
C1499 C1495 1.393 . S
C1499 C1498 1.391 . S
H1500 C1508 0.950 . S
H1501 C1513 0.950 . S
H1502 C1510 0.950 . S
H1503 C1512 0.950 . S
H1504 C1514 0.950 . S
H1505 C1516 0.950 . S
H1506 C1518 0.950 . S
H1507 C1519 0.950 . S
C1508 H1500 0.950 . S
C1508 C1509 1.386 . S
C1508 C1510 1.391 . S
C1509 C1508 1.386 . S
C1509 C1513 1.393 . S
C1510 H1502 0.950 . S
C1510 C1508 1.391 . S
C1510 C1511 1.400 . S
C1511 C1510 1.400 . S
C1511 C1512 1.398 . S
C1511 C1517 1.491 . S
C1512 H1503 0.950 . S
C1512 C1511 1.398 . S
C1512 C1513 1.391 . S
C1513 H1501 0.950 . S
C1513 C1509 1.393 . S
C1513 C1512 1.391 . S
C1514 H1504 0.950 . S
C1514 C1515 1.386 . S
C1514 C1516 1.391 . S
C1515 C1514 1.386 . S
C1515 C1519 1.393 . S
C1516 H1505 0.950 . S
C1516 C1514 1.391 . S
C1516 C1517 1.400 . S
C1517 C1511 1.491 . S
C1517 C1516 1.400 . S
C1517 C1518 1.398 . S
C1518 H1506 0.950 . S
C1518 C1517 1.398 . S
C1518 C1519 1.391 . S
C1519 H1507 0.950 . S
C1519 C1515 1.393 . S
C1519 C1518 1.391 . S
H1520 C1528 0.950 . S
H1521 C1533 0.950 . S
H1522 C1530 0.950 . S
H1523 C1532 0.950 . S
H1524 C1534 0.950 . S
H1525 C1536 0.950 . S
H1526 C1538 0.950 . S
H1527 C1539 0.950 . S
C1528 H1520 0.950 . S
C1528 C1529 1.386 . S
C1528 C1530 1.391 . S
C1529 C1528 1.386 . S
C1529 C1533 1.393 . S
C1530 H1522 0.950 . S
C1530 C1528 1.391 . S
C1530 C1531 1.400 . S
C1531 C1530 1.400 . S
C1531 C1532 1.398 . S
C1531 C1537 1.491 . S
C1532 H1523 0.950 . S
C1532 C1531 1.398 . S
C1532 C1533 1.391 . S
C1533 H1521 0.950 . S
C1533 C1529 1.393 . S
C1533 C1532 1.391 . S
C1534 H1524 0.950 . S
C1534 C1535 1.386 . S
C1534 C1536 1.391 . S
C1535 C1534 1.386 . S
C1535 C1539 1.393 . S
C1536 H1525 0.950 . S
C1536 C1534 1.391 . S
C1536 C1537 1.400 . S
C1537 C1531 1.491 . S
C1537 C1536 1.400 . S
C1537 C1538 1.398 . S
C1538 H1526 0.950 . S
C1538 C1537 1.398 . S
C1538 C1539 1.391 . S
C1539 H1527 0.950 . S
C1539 C1535 1.393 . S
C1539 C1538 1.391 . S
H1540 C1548 0.950 . S
H1541 C1553 0.950 . S
H1542 C1550 0.950 . S
H1543 C1552 0.950 . S
H1544 C1554 0.950 . S
H1545 C1556 0.950 . S
H1546 C1558 0.950 . S
H1547 C1559 0.950 . S
C1548 H1540 0.950 . S
C1548 C1549 1.386 . S
C1548 C1550 1.391 . S
C1549 C1548 1.386 . S
C1549 C1553 1.393 . S
C1550 H1542 0.950 . S
C1550 C1548 1.391 . S
C1550 C1551 1.400 . S
C1551 C1550 1.400 . S
C1551 C1552 1.398 . S
C1551 C1557 1.491 . S
C1552 H1543 0.950 . S
C1552 C1551 1.398 . S
C1552 C1553 1.391 . S
C1553 H1541 0.950 . S
C1553 C1549 1.393 . S
C1553 C1552 1.391 . S
C1554 H1544 0.950 . S
C1554 C1555 1.386 . S
C1554 C1556 1.391 . S
C1555 C1554 1.386 . S
C1555 C1559 1.393 . S
C1556 H1545 0.950 . S
C1556 C1554 1.391 . S
C1556 C1557 1.400 . S
C1557 C1551 1.491 . S
C1557 C1556 1.400 . S
C1557 C1558 1.398 . S
C1558 H1546 0.950 . S
C1558 C1557 1.398 . S
C1558 C1559 1.391 . S
C1559 H1547 0.950 . S
C1559 C1555 1.393 . S
C1559 C1558 1.391 . S
H1560 C1568 0.950 . S
H1561 C1573 0.950 . S
H1562 C1570 0.950 . S
H1563 C1572 0.950 . S
H1564 C1574 0.950 . S
H1565 C1576 0.950 . S
H1566 C1578 0.950 . S
H1567 C1579 0.950 . S
C1568 H1560 0.950 . S
C1568 C1569 1.386 . S
C1568 C1570 1.391 . S
C1569 C1568 1.386 . S
C1569 C1573 1.393 . S
C1570 H1562 0.950 . S
C1570 C1568 1.391 . S
C1570 C1571 1.400 . S
C1571 C1570 1.400 . S
C1571 C1572 1.398 . S
C1571 C1577 1.491 . S
C1572 H1563 0.950 . S
C1572 C1571 1.398 . S
C1572 C1573 1.391 . S
C1573 H1561 0.950 . S
C1573 C1569 1.393 . S
C1573 C1572 1.391 . S
C1574 H1564 0.950 . S
C1574 C1575 1.386 . S
C1574 C1576 1.391 . S
C1575 C1574 1.386 . S
C1575 C1579 1.393 . S
C1576 H1565 0.950 . S
C1576 C1574 1.391 . S
C1576 C1577 1.400 . S
C1577 C1571 1.491 . S
C1577 C1576 1.400 . S
C1577 C1578 1.398 . S
C1578 H1566 0.950 . S
C1578 C1577 1.398 . S
C1578 C1579 1.391 . S
C1579 H1567 0.950 . S
C1579 C1575 1.393 . S
C1579 C1578 1.391 . S
H1580 C1588 0.950 . S
H1581 C1593 0.950 . S
H1582 C1590 0.950 . S
H1583 C1592 0.950 . S
H1584 C1594 0.950 . S
H1585 C1596 0.950 . S
H1586 C1598 0.950 . S
H1587 C1599 0.950 1_554 S
C1588 H1580 0.950 . S
C1588 C1589 1.386 . S
C1588 C1590 1.391 . S
C1589 C1588 1.386 . S
C1589 C1593 1.393 . S
C1590 H1582 0.950 . S
C1590 C1588 1.391 . S
C1590 C1591 1.400 . S
C1591 C1590 1.400 . S
C1591 C1592 1.398 . S
C1591 C1597 1.491 . S
C1592 H1583 0.950 . S
C1592 C1591 1.398 . S
C1592 C1593 1.391 . S
C1593 H1581 0.950 . S
C1593 C1589 1.393 . S
C1593 C1592 1.391 . S
C1594 H1584 0.950 . S
C1594 C1595 1.386 . S
C1594 C1596 1.391 . S
C1595 C1594 1.386 . S
C1595 C1599 1.393 . S
C1596 H1585 0.950 . S
C1596 C1594 1.391 . S
C1596 C1597 1.400 . S
C1597 C1591 1.491 . S
C1597 C1596 1.400 . S
C1597 C1598 1.398 . S
C1598 H1586 0.950 . S
C1598 C1597 1.398 . S
C1598 C1599 1.391 . S
C1599 H1587 0.950 1_556 S
C1599 C1595 1.393 . S
C1599 C1598 1.391 . S
H1600 C1608 0.950 . S
H1601 C1613 0.950 . S
H1602 C1610 0.950 . S
H1603 C1612 0.950 . S
H1604 C1614 0.950 . S
H1605 C1616 0.950 . S
H1606 C1618 0.950 . S
H1607 C1619 0.950 . S
C1608 H1600 0.950 . S
C1608 C1609 1.386 . S
C1608 C1610 1.391 . S
C1609 C1608 1.386 . S
C1609 C1613 1.393 . S
C1610 H1602 0.950 . S
C1610 C1608 1.391 . S
C1610 C1611 1.400 . S
C1611 C1610 1.400 . S
C1611 C1612 1.398 . S
C1611 C1617 1.491 . S
C1612 H1603 0.950 . S
C1612 C1611 1.398 . S
C1612 C1613 1.391 . S
C1613 H1601 0.950 . S
C1613 C1609 1.393 . S
C1613 C1612 1.391 . S
C1614 H1604 0.950 . S
C1614 C1615 1.386 . S
C1614 C1616 1.391 . S
C1615 C1614 1.386 . S
C1615 C1619 1.393 . S
C1616 H1605 0.950 . S
C1616 C1614 1.391 . S
C1616 C1617 1.400 . S
C1617 C1611 1.491 . S
C1617 C1616 1.400 . S
C1617 C1618 1.398 . S
C1618 H1606 0.950 . S
C1618 C1617 1.398 . S
C1618 C1619 1.391 . S
C1619 H1607 0.950 . S
C1619 C1615 1.393 . S
C1619 C1618 1.391 . S
H1620 C1628 0.950 . S
H1621 C1633 0.950 . S
H1622 C1630 0.950 . S
H1623 C1632 0.950 . S
H1624 C1634 0.950 . S
H1625 C1636 0.950 . S
H1626 C1638 0.950 . S
H1627 C1639 0.950 . S
C1628 H1620 0.950 . S
C1628 C1629 1.386 . S
C1628 C1630 1.391 . S
C1629 C1628 1.386 . S
C1629 C1633 1.393 . S
C1630 H1622 0.950 . S
C1630 C1628 1.391 . S
C1630 C1631 1.400 . S
C1631 C1630 1.400 . S
C1631 C1632 1.398 . S
C1631 C1637 1.491 . S
C1632 H1623 0.950 . S
C1632 C1631 1.398 . S
C1632 C1633 1.391 . S
C1633 H1621 0.950 . S
C1633 C1629 1.393 . S
C1633 C1632 1.391 . S
C1634 H1624 0.950 . S
C1634 C1635 1.386 . S
C1634 C1636 1.391 . S
C1635 C1634 1.386 . S
C1635 C1639 1.393 . S
C1636 H1625 0.950 . S
C1636 C1634 1.391 . S
C1636 C1637 1.400 . S
C1637 C1631 1.491 . S
C1637 C1636 1.400 . S
C1637 C1638 1.398 . S
C1638 H1626 0.950 . S
C1638 C1637 1.398 . S
C1638 C1639 1.391 . S
C1639 H1627 0.950 . S
C1639 C1635 1.393 . S
C1639 C1638 1.391 . S
H1640 C1648 0.950 . S
H1641 C1653 0.950 . S
H1642 C1650 0.950 . S
H1643 C1652 0.950 . S
H1644 C1654 0.950 . S
H1645 C1656 0.950 . S
H1646 C1658 0.950 . S
H1647 C1659 0.950 1_545 S
C1648 H1640 0.950 . S
C1648 C1649 1.386 . S
C1648 C1650 1.391 . S
C1649 C1648 1.386 . S
C1649 C1653 1.393 . S
C1650 H1642 0.950 . S
C1650 C1648 1.391 . S
C1650 C1651 1.400 . S
C1651 C1650 1.400 . S
C1651 C1652 1.398 . S
C1651 C1657 1.491 . S
C1652 H1643 0.950 . S
C1652 C1651 1.398 . S
C1652 C1653 1.391 . S
C1653 H1641 0.950 . S
C1653 C1649 1.393 . S
C1653 C1652 1.391 . S
C1654 H1644 0.950 . S
C1654 C1655 1.386 . S
C1654 C1656 1.391 . S
C1655 C1654 1.386 . S
C1655 C1659 1.393 . S
C1656 H1645 0.950 . S
C1656 C1654 1.391 . S
C1656 C1657 1.400 . S
C1657 C1651 1.491 . S
C1657 C1656 1.400 . S
C1657 C1658 1.398 . S
C1658 H1646 0.950 . S
C1658 C1657 1.398 . S
C1658 C1659 1.391 . S
C1659 H1647 0.950 1_565 S
C1659 C1655 1.393 . S
C1659 C1658 1.391 . S
H1660 C1668 0.950 . S
H1661 C1673 0.950 . S
H1662 C1670 0.950 . S
H1663 C1672 0.950 . S
H1664 C1674 0.950 . S
H1665 C1676 0.950 . S
H1666 C1678 0.950 . S
H1667 C1679 0.950 . S
C1668 H1660 0.950 . S
C1668 C1669 1.386 . S
C1668 C1670 1.391 . S
C1669 C1668 1.386 . S
C1669 C1673 1.393 . S
C1670 H1662 0.950 . S
C1670 C1668 1.391 . S
C1670 C1671 1.400 . S
C1671 C1670 1.400 . S
C1671 C1672 1.398 . S
C1671 C1677 1.491 . S
C1672 H1663 0.950 . S
C1672 C1671 1.398 . S
C1672 C1673 1.391 . S
C1673 H1661 0.950 . S
C1673 C1669 1.393 . S
C1673 C1672 1.391 . S
C1674 H1664 0.950 . S
C1674 C1675 1.386 . S
C1674 C1676 1.391 . S
C1675 C1674 1.386 . S
C1675 C1679 1.393 . S
C1676 H1665 0.950 . S
C1676 C1674 1.391 . S
C1676 C1677 1.400 . S
C1677 C1671 1.491 . S
C1677 C1676 1.400 . S
C1677 C1678 1.398 . S
C1678 H1666 0.950 . S
C1678 C1677 1.398 . S
C1678 C1679 1.391 . S
C1679 H1667 0.950 . S
C1679 C1675 1.393 . S
C1679 C1678 1.391 . S
C969 C301 1.167 . S
C975 C21 1.128 . S
C989 C181 1.671 . S
C995 C61 1.793 . S
C1009 C101 2.274 . S
C1015 C221 1.914 . S
C1029 C261 1.879 . S
C1035 C141 1.957 . S
C1049 C661 1.118 . S
C1055 C341 0.993 . S
C1069 C381 2.017 . S
C1075 C701 2.025 . S
C1089 C421 1.762 . S
C1095 C941 1.784 . S
C1109 C461 1.109 . S
C1115 C501 0.974 . S
C1129 C821 1.843 . S
C1135 C541 1.833 . S
C1149 C581 1.993 . S
C1155 C861 2.000 . S
C1169 C901 1.866 . S
C1175 C621 2.136 . S
C1189 C781 2.081 . S
C1195 C741 1.842 . S
C1209 C575 2.368 . S
C1215 C15 2.208 . S
C1229 C602 2.614 . S
C1235 C55 2.710 . S
C1249 C82 1.402 . S
C1255 C735 1.394 . S
C1269 C522 1.734 . S
C1275 C122 1.775 . S
C1289 C175 1.771 . S
C1295 C562 1.826 . S
C1309 C615 1.350 . S
C1315 C215 1.380 . S
C1329 C242 1.927 . S
C1335 C722 1.791 . S
C1349 C282 2.067 . S
C1355 C535 1.981 . S
C1369 C375 2.388 . S
C1375 C322 2.147 . S
C1389 C362 1.803 . S
C1395 C402 1.759 . S
C1409 C415 1.934 . S
C1415 C442 2.025 . S
C1429 C455 2.494 . S
C1435 C335 2.363 . S
C1449 C482 2.042 . S
C1455 C135 2.287 . S
C1469 C642 1.973 . S
C1475 C162 1.810 . S
C1489 C42 2.293 . S
C1495 C682 2.289 . S
C1509 C935 2.712 . S
C1515 C95 2.729 . S
C1529 C655 2.472 . S
C1535 C2 2.440 . S
C1549 C255 2.288 . S
C1555 C922 2.284 . S
C1569 C295 2.530 . S
C1575 C495 2.392 . S
C1589 C695 2.053 . S
C1595 C202 1.884 . S
C1609 C762 2.625 . S
C1615 C815 2.714 . S
C1629 C842 2.306 . S
C1635 C802 2.309 . S
C1649 C855 1.999 . S
C1655 C882 1.840 . S
C1669 C775 1.324 . S
C1675 C895 1.363 . S
