# Generated by pormake.
# Topology wkb, (5)-cn, num edge types: 1
# Building blocks:
#     Node 0, Type 0, BuildingBlock: BEQFEK_clean_sbu_0, # of connection points: 5
#     Node 1, Type 0, BuildingBlock: BEQFEK_clean_sbu_0, # of connection points: 5
#     Node 2, Type 0, BuildingBlock: BEQFEK_clean_sbu_0, # of connection points: 5
#     Node 3, Type 0, BuildingBlock: BEQFEK_clean_sbu_0, # of connection points: 5
#     Node 4, Type 0, BuildingBlock: BEQFEK_clean_sbu_0, # of connection points: 5
#     Node 5, Type 0, BuildingBlock: BEQFEK_clean_sbu_0, # of connection points: 5
#     Node 6, Type 0, BuildingBlock: BEQFEK_clean_sbu_0, # of connection points: 5
#     Node 7, Type 0, BuildingBlock: BEQFEK_clean_sbu_0, # of connection points: 5
#     Node 8, Type 0, BuildingBlock: BEQFEK_clean_sbu_0, # of connection points: 5
#     Node 9, Type 0, BuildingBlock: BEQFEK_clean_sbu_0, # of connection points: 5
#     Node 10, Type 0, BuildingBlock: BEQFEK_clean_sbu_0, # of connection points: 5
#     Node 11, Type 0, BuildingBlock: BEQFEK_clean_sbu_0, # of connection points: 5
#     Edge 12, Type (0, 0), BuildingBlock: XIVTED_clean_linker_0, # of connection points: 2
#     Edge 13, Type (0, 0), BuildingBlock: XIVTED_clean_linker_0, # of connection points: 2
#     Edge 14, Type (0, 0), BuildingBlock: XIVTED_clean_linker_0, # of connection points: 2
#     Edge 15, Type (0, 0), BuildingBlock: XIVTED_clean_linker_0, # of connection points: 2
#     Edge 16, Type (0, 0), BuildingBlock: XIVTED_clean_linker_0, # of connection points: 2
#     Edge 17, Type (0, 0), BuildingBlock: XIVTED_clean_linker_0, # of connection points: 2
#     Edge 18, Type (0, 0), BuildingBlock: XIVTED_clean_linker_0, # of connection points: 2
#     Edge 19, Type (0, 0), BuildingBlock: XIVTED_clean_linker_0, # of connection points: 2
#     Edge 20, Type (0, 0), BuildingBlock: XIVTED_clean_linker_0, # of connection points: 2
#     Edge 21, Type (0, 0), BuildingBlock: XIVTED_clean_linker_0, # of connection points: 2
#     Edge 22, Type (0, 0), BuildingBlock: XIVTED_clean_linker_0, # of connection points: 2
#     Edge 23, Type (0, 0), BuildingBlock: XIVTED_clean_linker_0, # of connection points: 2
#     Edge 24, Type (0, 0), BuildingBlock: XIVTED_clean_linker_0, # of connection points: 2
#     Edge 25, Type (0, 0), BuildingBlock: XIVTED_clean_linker_0, # of connection points: 2
#     Edge 26, Type (0, 0), BuildingBlock: XIVTED_clean_linker_0, # of connection points: 2
#     Edge 27, Type (0, 0), BuildingBlock: XIVTED_clean_linker_0, # of connection points: 2
#     Edge 28, Type (0, 0), BuildingBlock: XIVTED_clean_linker_0, # of connection points: 2
#     Edge 29, Type (0, 0), BuildingBlock: XIVTED_clean_linker_0, # of connection points: 2
#     Edge 30, Type (0, 0), BuildingBlock: XIVTED_clean_linker_0, # of connection points: 2
#     Edge 31, Type (0, 0), BuildingBlock: XIVTED_clean_linker_0, # of connection points: 2
#     Edge 32, Type (0, 0), BuildingBlock: XIVTED_clean_linker_0, # of connection points: 2
#     Edge 33, Type (0, 0), BuildingBlock: XIVTED_clean_linker_0, # of connection points: 2
#     Edge 34, Type (0, 0), BuildingBlock: XIVTED_clean_linker_0, # of connection points: 2
#     Edge 35, Type (0, 0), BuildingBlock: XIVTED_clean_linker_0, # of connection points: 2
#     Edge 36, Type (0, 0), BuildingBlock: XIVTED_clean_linker_0, # of connection points: 2
#     Edge 37, Type (0, 0), BuildingBlock: XIVTED_clean_linker_0, # of connection points: 2
#     Edge 38, Type (0, 0), BuildingBlock: XIVTED_clean_linker_0, # of connection points: 2
#     Edge 39, Type (0, 0), BuildingBlock: XIVTED_clean_linker_0, # of connection points: 2
#     Edge 40, Type (0, 0), BuildingBlock: XIVTED_clean_linker_0, # of connection points: 2
#     Edge 41, Type (0, 0), BuildingBlock: XIVTED_clean_linker_0, # of connection points: 2
# Relax obj value: 0.115
# Max RMSD: 0.136
# Mean RMSD: 0.136
data_MOF--net-wkb--node1-BEQFEK_clean_sbu_0--edge1-XIVTED_clean_linker_0
_symmetry_space_group_name_H-M    P1
_symmetry_Int_Tables_number       1
_symmetry_cell_setting            triclinic
loop_
_symmetry_equiv_pos_as_xyz
'x, y, z'
_cell_length_a     44.426545
_cell_length_b     44.412643
_cell_length_c     41.577629
_cell_angle_alpha  89.962186
_cell_angle_beta   90.152127
_cell_angle_gamma 119.98165
loop_
_atom_site_label
_atom_site_type_symbol
_atom_site_fract_x
_atom_site_fract_y
_atom_site_fract_z
_atom_type_partial_charge
Co0 Co 0.02959 0.35534 0.01212 0.0
Co1 Co 0.06656 0.36015 0.07737 0.0
C2 C 0.99352 0.30516 0.06777 0.0
O3 O 0.99359 0.31636 0.0394 0.0
O4 O 0.02056 0.31947 0.08551 0.0
C5 C 1.00418 0.32165 0.95213 0.0
O6 O 1.00383 0.29567 0.96759 0.0
C7 C 0.09619 0.3484 0.13667 0.0
C8 C 0.14841 0.39535 0.13624 0.0
C9 C 0.12783 0.36471 0.15263 0.0
N10 N 0.09818 0.36844 0.11159 0.0
N11 N 0.12926 0.39665 0.11178 0.0
C12 C 0.06572 0.31325 0.14332 0.0
H13 H 0.05776 0.29768 0.12084 0.0
H14 H 0.07176 0.29929 0.16212 0.0
H15 H 0.04356 0.31626 0.15133 0.0
C16 C 0.09273 0.35473 0.98747 0.0
N17 N 0.07252 0.35534 0.01142 0.0
N18 N 0.08585 0.35366 0.03913 0.0
C19 C 0.11356 0.34962 0.03374 0.0
C20 C 0.11922 0.35061 0.00077 0.0
C21 C 0.08908 0.36158 0.95284 0.0
H22 H 0.07636 0.37752 0.95058 0.0
H23 H 0.07324 0.3365 0.94018 0.0
H24 H 0.1149 0.37544 0.94106 0.0
O25 O 0.03698 0.40031 0.02843 0.0
O26 O 0.06201 0.40264 0.07531 0.0
H27 H 0.1535 0.3662 0.06942 0.0
H28 H 0.1434 0.32611 0.04976 0.0
C29 C 0.13213 0.34158 0.05948 0.0
H30 H 0.11392 0.32663 0.07911 0.0
H31 H 0.13776 0.41628 0.09453 0.0
O32 O 1.01244 0.34953 0.96736 0.0
C33 C 0.05018 0.4156 0.05495 0.0
Co34 Co 0.68285 0.02622 0.17963 0.0
Co35 Co 0.71021 0.06313 0.24594 0.0
C36 C 0.69582 0.99052 0.23531 0.0
O37 O 0.68664 0.99044 0.20615 0.0
O38 O 0.7058 0.01708 0.25333 0.0
C39 C 0.68604 0.99576 0.11923 0.0
O40 O 0.70669 0.98749 0.13478 0.0
C41 C 0.7564 0.09735 0.30163 0.0
C42 C 0.73962 0.13496 0.31473 0.0
C43 C 0.76347 0.12462 0.32228 0.0
N44 N 0.7298 0.09219 0.28245 0.0
N45 N 0.71953 0.11433 0.29083 0.0
C46 C 0.7765 0.07878 0.29805 0.0
H47 H 0.77207 0.06663 0.27389 0.0
H48 H 0.80465 0.097 0.3019 0.0
H49 H 0.76761 0.05804 0.31652 0.0
C50 C 0.74807 0.08937 0.15745 0.0
N51 N 0.72538 0.06985 0.18064 0.0
N52 N 0.73699 0.0853 0.2086 0.0
C53 C 0.7674 0.11507 0.20405 0.0
C54 C 0.77554 0.11857 0.17154 0.0
C55 C 0.74481 0.07896 0.12282 0.0
H56 H 0.71847 0.07153 0.11385 0.0
H57 H 0.74875 0.05631 0.12071 0.0
H58 H 0.7644 0.09991 0.10745 0.0
O59 O 0.64298 0.0313 0.19518 0.0
O60 O 0.66314 0.05652 0.2424 0.0
H61 H 0.77025 0.14576 0.24487 0.0
H62 H 0.80849 0.16547 0.2201 0.0
C63 C 0.78779 0.14049 0.23008 0.0
H64 H 0.79991 0.12926 0.24572 0.0
H65 H 0.69967 0.11627 0.27934 0.0
O66 O 0.67229 0.01068 0.13432 0.0
C67 C 0.63912 0.04378 0.22141 0.0
Co68 Co 0.66618 0.67899 0.34663 0.0
Co69 Co 0.65929 0.70977 0.41177 0.0
C70 C 0.71572 0.69376 0.4033 0.0
O71 O 0.70526 0.68275 0.37472 0.0
O72 O 0.70051 0.70573 0.42065 0.0
C73 C 0.70039 0.68785 0.28651 0.0
O74 O 0.72631 0.71384 0.30173 0.0
C75 C 0.66896 0.75364 0.46898 0.0
C76 C 0.61628 0.74707 0.4718 0.0
C77 C 0.64904 0.76455 0.48556 0.0
N78 N 0.6488 0.73104 0.44612 0.0
N79 N 0.61727 0.72684 0.44835 0.0
C80 C 0.70711 0.76705 0.47246 0.0
H81 H 0.71829 0.76495 0.44932 0.0
H82 H 0.72078 0.79451 0.48068 0.0
H83 H 0.71122 0.75117 0.49066 0.0
C84 C 0.66567 0.74245 0.32202 0.0
N85 N 0.66497 0.72145 0.34592 0.0
N86 N 0.66529 0.73574 0.37367 0.0
C87 C 0.6682 0.76707 0.36842 0.0
C88 C 0.66825 0.77236 0.33543 0.0
C89 C 0.66049 0.73277 0.28715 0.0
H90 H 0.64492 0.70416 0.2843 0.0
H91 H 0.68615 0.74252 0.27557 0.0
H92 H 0.64694 0.74478 0.27473 0.0
O93 O 0.62129 0.64025 0.36215 0.0
O94 O 0.61812 0.66226 0.40899 0.0
H95 H 0.64869 0.78582 0.40566 0.0
H96 H 0.68628 0.81959 0.38519 0.0
C97 C 0.67397 0.79263 0.39451 0.0
H98 H 0.69122 0.79162 0.41318 0.0
H99 H 0.59674 0.7111 0.43298 0.0
O100 O 0.67272 0.66815 0.3019 0.0
C101 C 0.60577 0.63759 0.38859 0.0
Co102 Co 0.99143 0.65886 0.51703 0.0
Co103 Co 0.95715 0.65056 0.58418 0.0
C104 C 0.03079 0.70812 0.56964 0.0
O105 O 0.02985 0.69883 0.54041 0.0
O106 O 1.00477 0.69169 0.58828 0.0
C107 C 0.02625 0.67724 0.45326 0.0
O108 O 0.05471 0.70212 0.46655 0.0
C109 C 0.92955 0.66758 0.64182 0.0
C110 C 0.90282 0.61603 0.6653 0.0
C111 C 0.91102 0.65025 0.66905 0.0
N112 N 0.93229 0.64449 0.62291 0.0
N113 N 0.91603 0.61374 0.63702 0.0
C114 C 0.94641 0.70565 0.63496 0.0
H115 H 0.96304 0.71253 0.61326 0.0
H116 H 0.92612 0.71283 0.63085 0.0
H117 H 0.96212 0.72068 0.65603 0.0
C118 C 0.93054 0.6658 0.49787 0.0
N119 N 0.9492 0.66026 0.52033 0.0
N120 N 0.93378 0.65544 0.54833 0.0
C121 C 0.90428 0.65675 0.54445 0.0
C122 C 0.90123 0.66342 0.51225 0.0
C123 C 0.94224 0.67632 0.46393 0.0
H124 H 0.93634 0.65285 0.44977 0.0
H125 H 0.97067 0.69452 0.46339 0.0
H126 H 0.92901 0.68921 0.45259 0.0
O127 O 0.9872 0.61477 0.53383 0.0
O128 O 0.96017 0.60803 0.5802 0.0
H129 H 0.87707 0.62979 0.58713 0.0
H130 H 0.85271 0.64236 0.56095 0.0
C131 C 0.87889 0.65036 0.57079 0.0
H132 H 0.88805 0.67459 0.58488 0.0
H133 H 0.91448 0.59123 0.62762 0.0
O134 O 1.00005 0.65829 0.47061 0.0
C135 C 0.97348 0.59744 0.55928 0.0
Co136 Co 0.34135 0.99084 0.67876 0.0
Co137 Co 0.31423 0.95489 0.74546 0.0
C138 C 0.32883 0.02746 0.73363 0.0
O139 O 0.33785 0.02719 0.70453 0.0
O140 O 0.31886 1.00111 0.75188 0.0
C141 C 0.33889 0.0216 0.61823 0.0
O142 O 0.32046 0.03221 0.63428 0.0
C143 C 0.26712 0.92186 0.8003 0.0
C144 C 0.28401 0.88505 0.81611 0.0
C145 C 0.25975 0.89526 0.8218 0.0
N146 N 0.29444 0.92691 0.78242 0.0
N147 N 0.30482 0.90533 0.79245 0.0
C148 C 0.2466 0.9397 0.79469 0.0
H149 H 0.25203 0.95172 0.77043 0.0
H150 H 0.21838 0.92103 0.79732 0.0
H151 H 0.25408 0.9604 0.81302 0.0
C152 C 0.27566 0.92775 0.65718 0.0
N153 N 0.29866 0.94737 0.68023 0.0
N154 N 0.28743 0.93205 0.70825 0.0
C155 C 0.25715 0.90207 0.70385 0.0
C156 C 0.24852 0.89845 0.6714 0.0
C157 C 0.27821 0.93834 0.62266 0.0
H158 H 0.30377 0.9442 0.61287 0.0
H159 H 0.27605 0.96209 0.62117 0.0
H160 H 0.25729 0.91813 0.60762 0.0
O161 O 0.38134 0.98604 0.69516 0.0
O162 O 0.36114 0.96139 0.74253 0.0
H163 H 0.21789 0.8509 0.71986 0.0
H164 H 0.22393 0.88661 0.74491 0.0
C165 C 0.23746 0.87646 0.72989 0.0
H166 H 0.25564 0.87263 0.74527 0.0
H167 H 0.32515 0.90335 0.78214 0.0
O168 O 0.35136 1.00523 0.63305 0.0
C169 C 0.38521 0.97397 0.72172 0.0
Co170 Co 0.35984 0.3384 0.84464 0.0
Co171 Co 0.36732 0.30983 0.91073 0.0
C172 C 0.3105 0.32519 0.90035 0.0
O173 O 0.32018 0.33463 0.87137 0.0
O174 O 0.32641 0.3146 0.91853 0.0
C175 C 0.32514 0.32819 0.78467 0.0
O176 O 0.29919 0.30295 0.80043 0.0
C177 C 0.35718 0.27059 0.97088 0.0
C178 C 0.41099 0.28183 0.97956 0.0
C179 C 0.37779 0.26482 0.9922 0.0
N180 N 0.37747 0.29019 0.94662 0.0
N181 N 0.4095 0.29663 0.95189 0.0
C182 C 0.31973 0.26021 0.97447 0.0
H183 H 0.31801 0.28337 0.98163 0.0
H184 H 0.30619 0.25103 0.95101 0.0
H185 H 0.30665 0.23978 0.993 0.0
C186 C 0.36038 0.27438 0.82218 0.0
N187 N 0.36135 0.29612 0.8454 0.0
N188 N 0.36147 0.2828 0.87358 0.0
C189 C 0.3588 0.25145 0.86934 0.0
C190 C 0.35817 0.24501 0.83651 0.0
C191 C 0.36491 0.28292 0.78706 0.0
H192 H 0.38064 0.31141 0.78347 0.0
H193 H 0.33905 0.27308 0.77572 0.0
H194 H 0.37803 0.27035 0.77496 0.0
O195 O 0.40456 0.37812 0.86008 0.0
O196 O 0.40829 0.357 0.90724 0.0
H197 H 0.3801 0.23496 0.907 0.0
H198 H 0.34202 0.1999 0.88803 0.0
C199 C 0.35432 0.22725 0.89634 0.0
H200 H 0.33775 0.22898 0.91525 0.0
H201 H 0.43046 0.31163 0.93677 0.0
O202 O 0.3532 0.34794 0.79961 0.0
C203 C 0.42029 0.38136 0.8866 0.0
Co204 Co 0.66522 0.98967 0.81909 0.0
Co205 Co 0.65721 0.95325 0.75298 0.0
C206 C 0.71587 0.02501 0.76462 0.0
O207 O 0.7052 0.02553 0.79301 0.0
O208 O 0.70009 0.99822 0.74678 0.0
C209 C 0.69899 0.01932 0.87943 0.0
O210 O 0.72754 0.02688 0.86372 0.0
C211 C 0.66994 0.92186 0.69588 0.0
C212 C 0.61654 0.89194 0.67637 0.0
C213 C 0.65063 0.90089 0.67048 0.0
N214 N 0.64809 0.92522 0.71592 0.0
N215 N 0.61622 0.90701 0.70425 0.0
C216 C 0.70858 0.94078 0.69968 0.0
H217 H 0.72021 0.96279 0.68246 0.0
H218 H 0.7161 0.95099 0.72452 0.0
H219 H 0.71899 0.92331 0.69407 0.0
C220 C 0.6658 0.92555 0.84153 0.0
N221 N 0.6634 0.94553 0.81825 0.0
N222 N 0.66015 0.93036 0.79026 0.0
C223 C 0.66062 0.90051 0.79477 0.0
C224 C 0.66433 0.89647 0.8274 0.0
C225 C 0.67214 0.9355 0.87632 0.0
H226 H 0.65361 0.94367 0.88461 0.0
H227 H 0.69897 0.95755 0.87917 0.0
H228 H 0.66958 0.91406 0.89178 0.0
O229 O 0.62095 0.98549 0.80274 0.0
O230 O 0.61767 0.96157 0.75523 0.0
H231 H 0.63455 0.871 0.75276 0.0
H232 H 0.65256 0.85082 0.77794 0.0
C233 C 0.65684 0.87597 0.76835 0.0
H234 H 0.6807 0.88799 0.75345 0.0
H235 H 0.59431 0.90555 0.71495 0.0
O236 O 0.67018 1.00507 0.86443 0.0
C237 C 0.60579 0.97405 0.77579 0.0
Co238 Co 0.68357 0.6612 0.98655 0.0
Co239 Co 0.71227 0.65291 0.92077 0.0
C240 C 0.69771 0.71088 0.93142 0.0
O241 O 0.68677 0.70047 0.95992 0.0
O242 O 0.70914 0.69528 0.91387 0.0
C243 C 0.68571 0.69496 0.04643 0.0
O244 O 0.70504 0.72378 0.03035 0.0
C245 C 0.75972 0.66674 0.86635 0.0
C246 C 0.74406 0.61297 0.85181 0.0
C247 C 0.76769 0.64748 0.84547 0.0
N248 N 0.73268 0.64446 0.8845 0.0
N249 N 0.72304 0.61243 0.87524 0.0
C250 C 0.77939 0.70526 0.87109 0.0
H251 H 0.77494 0.71206 0.89563 0.0
H252 H 0.80759 0.71573 0.86709 0.0
H253 H 0.77011 0.71745 0.85329 0.0
C254 C 0.74893 0.6638 0.00975 0.0
N255 N 0.72639 0.66052 0.98623 0.0
N256 N 0.73826 0.65665 0.95849 0.0
C257 C 0.76861 0.65725 0.96352 0.0
C258 C 0.77652 0.66202 0.99611 0.0
C259 C 0.74546 0.67123 0.04423 0.0
H260 H 0.74852 0.69751 0.04596 0.0
H261 H 0.76545 0.67076 0.05981 0.0
H262 H 0.71933 0.65191 0.05319 0.0
O263 O 0.64426 0.6163 0.97039 0.0
O264 O 0.66484 0.61253 0.923 0.0
H265 H 0.8094 0.64727 0.94816 0.0
H266 H 0.80198 0.67573 0.92257 0.0
C267 C 0.7892 0.65216 0.93783 0.0
H268 H 0.7717 0.62969 0.92258 0.0
H269 H 0.70304 0.59013 0.88591 0.0
O270 O 0.67278 0.66601 0.03179 0.0
C271 C 0.64065 0.60066 0.94375 0.0
Co272 Co 0.03603 0.68163 0.14973 0.0
Co273 Co 0.0681 0.70721 0.08171 0.0
C274 C 0.9951 0.69097 0.0975 0.0
O275 O 0.99655 0.68186 0.12638 0.0
O276 O 0.02096 0.70149 0.07852 0.0
C277 C 1.00071 0.66087 0.21343 0.0
O278 O 0.9703 0.64981 0.1997 0.0
C279 C 0.09548 0.75141 0.02366 0.0
C280 C 0.12106 0.72562 -0.00013 0.0
C281 C 0.11358 0.75216 0.99624 0.0
N282 N 0.09234 0.72537 0.04254 0.0
N283 N 0.10788 0.71027 0.02821 0.0
C284 C 0.07938 0.77327 0.03075 0.0
H285 H 0.06212 0.76321 0.05201 0.0
H286 H 0.10009 0.80034 0.03574 0.0
H287 H 0.06452 0.77383 0.00947 0.0
C288 C 0.09674 0.74989 0.16763 0.0
N289 N 0.07766 0.72549 0.14551 0.0
N290 N 0.09254 0.73574 0.11725 0.0
C291 C 0.12218 0.76655 0.12067 0.0
C292 C 0.12586 0.77656 0.15281 0.0
C293 C 0.08576 0.74914 0.20176 0.0
H294 H 0.05724 0.73814 0.20298 0.0
H295 H 0.09861 0.77555 0.21247 0.0
H296 H 0.09293 0.73258 0.21604 0.0
O297 O 0.04197 0.64243 0.13397 0.0
O298 O 0.06362 0.66096 0.08546 0.0
H299 H 0.17362 0.80309 0.10348 0.0
H300 H 0.13819 0.80079 0.08034 0.0
C301 C 0.14718 0.78528 0.09398 0.0
H302 H 0.14829 0.76638 0.07735 0.0
H303 H 0.10903 0.68906 0.03756 0.0
O304 O 0.02796 0.67352 0.19635 0.0
C305 C 0.05309 0.63791 0.10726 0.0
Co306 Co 0.35931 0.02734 0.31774 0.0
Co307 Co 0.36777 0.06592 0.2527 0.0
C308 C 0.31031 0.99395 0.26032 0.0
O309 O 0.32031 0.99284 0.28899 0.0
O310 O 0.32606 0.02132 0.24325 0.0
C311 C 0.32448 1.00202 0.37783 0.0
O312 O 0.29893 1.00289 0.36267 0.0
C313 C 0.36034 0.1025 0.19608 0.0
C314 C 0.41398 0.14713 0.19403 0.0
C315 C 0.38138 0.13358 0.1802 0.0
N316 N 0.37971 0.09837 0.21869 0.0
N317 N 0.41181 0.1248 0.21688 0.0
C318 C 0.32196 0.07916 0.19229 0.0
H319 H 0.31044 0.06445 0.21477 0.0
H320 H 0.30925 0.09442 0.18581 0.0
H321 H 0.31702 0.0603 0.17268 0.0
C322 C 0.36107 0.09193 0.34246 0.0
N323 N 0.36157 0.07153 0.31856 0.0
N324 N 0.36194 0.08589 0.29082 0.0
C325 C 0.35973 0.1147 0.29605 0.0
C326 C 0.35944 0.11979 0.32901 0.0
C327 C 0.36543 0.0869 0.3774 0.0
H328 H 0.38047 0.07333 0.3805 0.0
H329 H 0.33948 0.07127 0.38855 0.0
H330 H 0.37915 0.1123 0.39004 0.0
O331 O 0.40394 0.0325 0.30254 0.0
O332 O 0.40798 0.05811 0.25574 0.0
H333 H 0.38009 0.15278 0.25862 0.0
H334 H 0.34321 0.15042 0.27922 0.0
C335 C 0.35469 0.135 0.26994 0.0
H336 H 0.33693 0.11697 0.25143 0.0
H337 H 0.43194 0.12828 0.23222 0.0
O338 O 0.35203 0.00951 0.36244 0.0
C339 C 0.41969 0.04515 0.27614 0.0
Co340 Co 0.34189 0.35713 0.48511 0.0
Co341 Co 0.31353 0.36554 0.41901 0.0
C342 C 0.32962 0.30848 0.42971 0.0
O343 O 0.33868 0.31789 0.45881 0.0
O344 O 0.31924 0.32456 0.41145 0.0
C345 C 0.33959 0.32324 0.54475 0.0
O346 O 0.31952 0.29452 0.52873 0.0
C347 C 0.26856 0.35147 0.36223 0.0
C348 C 0.27749 0.40424 0.35225 0.0
C349 C 0.25836 0.36992 0.34253 0.0
N350 N 0.29242 0.37392 0.38304 0.0
N351 N 0.29803 0.40546 0.37659 0.0
C352 C 0.25399 0.31299 0.36313 0.0
H353 H 0.25383 0.30433 0.38821 0.0
H354 H 0.2273 0.29908 0.35296 0.0
H355 H 0.27082 0.3064 0.34858 0.0
C356 C 0.27619 0.35352 0.50774 0.0
N357 N 0.29887 0.35705 0.48443 0.0
N358 N 0.28659 0.3599 0.45647 0.0
C359 C 0.25558 0.35796 0.46108 0.0
C360 C 0.24792 0.35379 0.49369 0.0
C361 C 0.28037 0.34759 0.54251 0.0
H362 H 0.30683 0.36697 0.55082 0.0
H363 H 0.27686 0.32121 0.5453 0.0
H364 H 0.26096 0.34914 0.55797 0.0
O365 O 0.38091 0.40231 0.46927 0.0
O366 O 0.36016 0.40703 0.4222 0.0
H367 H 0.21082 0.36105 0.44438 0.0
H368 H 0.22622 0.33974 0.41751 0.0
C369 C 0.23426 0.36134 0.4349 0.0
H370 H 0.25013 0.38621 0.42207 0.0
H371 H 0.31504 0.42766 0.38958 0.0
O372 O 0.35285 0.35221 0.53017 0.0
C373 C 0.3843 0.41865 0.44311 0.0
Co374 Co 0.99505 0.33593 0.65233 0.0
Co375 Co 0.95666 0.30792 0.58673 0.0
C376 C 0.03012 0.3234 0.59659 0.0
O377 O 0.03076 0.33294 0.62565 0.0
O378 O 1.00312 0.31305 0.57906 0.0
C379 C 0.02679 0.33365 0.71232 0.0
O380 O 0.0362 0.31413 0.69645 0.0
C381 C 0.9257 0.2642 0.52896 0.0
C382 C 0.8936 0.28598 0.51113 0.0
C383 C 0.90395 0.2621 0.50402 0.0
N384 N 0.92818 0.2885 0.54981 0.0
N385 N 0.90865 0.30111 0.53913 0.0
C386 C 0.94601 0.24577 0.53158 0.0
H387 H 0.95866 0.25031 0.55552 0.0
H388 H 0.92872 0.21747 0.52781 0.0
H389 H 0.96616 0.2554 0.51253 0.0
C390 C 0.93241 0.2702 0.67493 0.0
N391 N 0.95149 0.29291 0.65158 0.0
N392 N 0.93568 0.281 0.62381 0.0
C393 C 0.90621 0.25045 0.62852 0.0
C394 C 0.90315 0.24249 0.66108 0.0
C395 C 0.94332 0.27371 0.70945 0.0
H396 H 0.94996 0.2998 0.7185 0.0
H397 H 0.96664 0.27085 0.71124 0.0
H398 H 0.92298 0.25361 0.72495 0.0
O399 O 0.99001 0.37572 0.63679 0.0
O400 O 0.961 0.35409 0.59129 0.0
H401 H 0.87506 0.24745 0.58795 0.0
H402 H 0.85623 0.20869 0.61228 0.0
C403 C 0.88089 0.23002 0.60243 0.0
H404 H 0.89269 0.21887 0.58633 0.0
H405 H 0.90627 0.32071 0.55059 0.0
O406 O 1.01076 0.34648 0.69754 0.0
C407 C 0.97506 0.37851 0.61175 0.0
H408 H 0.25345 0.33086 0.29004 0.0
H409 H 0.09767 0.34722 0.21181 0.0
H410 H 0.20373 0.38069 0.33745 0.0
H411 H 0.18416 0.35658 0.15703 0.0
H412 H 0.12321 0.33767 0.26067 0.0
H413 H 0.2144 0.31855 0.24363 0.0
C414 C 0.2337 0.33835 0.29092 0.0
C415 C 0.23173 0.35698 0.3172 0.0
C416 C 0.13608 0.34103 0.23777 0.0
C417 C 0.18724 0.34279 0.26502 0.0
C418 C 0.12153 0.34631 0.21004 0.0
C419 C 0.13911 0.35281 0.18071 0.0
C420 C 0.16799 0.34174 0.23577 0.0
C421 C 0.1701 0.35183 0.17943 0.0
C422 C 0.21164 0.33148 0.26456 0.0
C423 C 0.20607 0.36651 0.31734 0.0
N424 N 0.18371 0.34655 0.20667 0.0
N425 N 0.18482 0.35941 0.29153 0.0
H426 H 0.78674 0.09713 0.36892 0.0
H427 H 0.90972 0.28573 0.44337 0.0
H428 H 0.8056 0.19394 0.32726 0.0
H429 H 0.87521 0.19145 0.4977 0.0
H430 H 0.88386 0.25117 0.39504 0.0
H431 H 0.83021 0.13006 0.41086 0.0
C432 C 0.80059 0.12527 0.36826 0.0
C433 C 0.79254 0.143 0.34495 0.0
C434 C 0.88238 0.23792 0.41736 0.0
C435 C 0.84184 0.1805 0.39231 0.0
C436 C 0.89723 0.25766 0.44488 0.0
C437 C 0.8945 0.24131 0.47436 0.0
C438 C 0.86397 0.20149 0.41948 0.0
C439 C 0.87816 0.20494 0.47522 0.0
C440 C 0.82517 0.14399 0.39219 0.0
C441 C 0.81081 0.17937 0.34514 0.0
N442 N 0.86292 0.18609 0.44817 0.0
N443 N 0.83445 0.19689 0.36853 0.0
H444 H 0.69025 0.77613 0.53892 0.0
H445 H 0.63831 0.91099 0.60909 0.0
H446 H 0.63149 0.81452 0.48812 0.0
H447 H 0.68787 0.86711 0.66633 0.0
H448 H 0.64768 0.88529 0.5611 0.0
H449 H 0.70087 0.8178 0.58244 0.0
C450 C 0.68024 0.79382 0.53668 0.0
C451 C 0.65978 0.79187 0.51015 0.0
C452 C 0.65708 0.88164 0.58401 0.0
C453 C 0.67153 0.83908 0.55949 0.0
C454 C 0.6518 0.89642 0.61132 0.0
C455 C 0.66239 0.89107 0.64144 0.0
C456 C 0.67228 0.86061 0.58698 0.0
C457 C 0.67972 0.87204 0.64332 0.0
C458 C 0.68615 0.81742 0.5615 0.0
C459 C 0.64701 0.81495 0.50843 0.0
N460 N 0.68366 0.85692 0.61642 0.0
N461 N 0.65292 0.83742 0.53283 0.0
H462 H 0.88148 0.69181 0.67104 0.0
H463 H 0.81584 0.62767 0.8477 0.0
H464 H 0.91763 0.63722 0.73122 0.0
H465 H 0.78753 0.69365 0.79541 0.0
H466 H 0.86082 0.63978 0.80818 0.0
H467 H 0.85486 0.70207 0.71832 0.0
C468 C 0.88481 0.68305 0.69438 0.0
C469 C 0.90157 0.66354 0.69738 0.0
C470 C 0.84523 0.65212 0.80539 0.0
C471 C 0.8707 0.67436 0.75112 0.0
C472 C 0.81954 0.64511 0.82794 0.0
C473 C 0.79797 0.65942 0.82438 0.0
C474 C 0.84871 0.67282 0.77851 0.0
C475 C 0.80379 0.68211 0.7987 0.0
C476 C 0.86938 0.68863 0.7213 0.0
C477 C 0.90454 0.65205 0.72794 0.0
N478 N 0.82827 0.68763 0.77624 0.0
N479 N 0.88891 0.65729 0.75353 0.0
H480 H 0.21232 0.82712 0.81909 0.0
H481 H 0.14335 0.82335 0.99473 0.0
H482 H 0.23866 0.92075 0.87154 0.0
H483 H 0.10827 0.73327 0.93393 0.0
H484 H 0.1708 0.86073 0.94793 0.0
H485 H 0.1669 0.79356 0.85806 0.0
C486 C 0.20809 0.84056 0.83876 0.0
C487 C 0.22923 0.87647 0.84254 0.0
C488 C 0.15634 0.8328 0.9447 0.0
C489 C 0.17797 0.83835 0.88777 0.0
C490 C 0.14042 0.81149 0.97135 0.0
C491 C 0.12368 0.77525 0.96807 0.0
C492 C 0.15557 0.81755 0.91485 0.0
C493 C 0.12131 0.76115 0.93745 0.0
C494 C 0.18216 0.82149 0.86101 0.0
C495 C 0.22275 0.89295 0.8681 0.0
N496 N 0.13742 0.7823 0.91213 0.0
N497 N 0.19802 0.87361 0.89026 0.0
H498 H 0.32772 0.19728 0.00316 0.0
H499 H 0.4037 0.20233 0.17853 0.0
H500 H 0.40808 0.28909 0.04988 0.0
H501 H 0.33824 0.10682 0.12749 0.0
H502 H 0.39445 0.23455 0.13603 0.0
H503 H 0.32044 0.16406 0.05275 0.0
C504 C 0.34309 0.21054 0.02419 0.0
C505 C 0.36843 0.24583 0.02278 0.0
C506 C 0.38175 0.20651 0.13419 0.0
C507 C 0.36074 0.20832 0.07888 0.0
C508 C 0.38709 0.18813 0.15841 0.0
C509 C 0.37193 0.15195 0.1563 0.0
C510 C 0.36153 0.18868 0.1073 0.0
C511 C 0.35023 0.13472 0.13003 0.0
C512 C 0.33916 0.19161 0.05229 0.0
C513 C 0.38831 0.26185 0.05019 0.0
N514 N 0.34602 0.15334 0.1062 0.0
N515 N 0.38417 0.24294 0.07708 0.0
H516 H 0.04113 0.4586 0.01375 0.0
H517 H 0.04488 0.587 0.15008 0.0
H518 H 0.06135 0.44798 0.11353 0.0
H519 H 0.06121 0.61395 0.04934 0.0
H520 H 0.04466 0.53284 0.13775 0.0
H521 H 0.04207 0.51267 0.02695 0.0
C522 C 0.04576 0.46761 0.03844 0.0
C523 C 0.05124 0.44872 0.06255 0.0
C524 C 0.04838 0.55073 0.11843 0.0
C525 C 0.05206 0.51053 0.07786 0.0
C526 C 0.0484 0.58156 0.12542 0.0
C527 C 0.05312 0.60511 0.10073 0.0
C528 C 0.05257 0.54319 0.08648 0.0
C529 C 0.05762 0.5967 0.0692 0.0
C530 C 0.0464 0.49855 0.04594 0.0
C531 C 0.05718 0.46177 0.09414 0.0
N532 N 0.05704 0.5664 0.06298 0.0
N533 N 0.05724 0.49177 0.10092 0.0
H534 H 0.46149 0.03368 0.31712 0.0
H535 H 0.58674 0.0336 0.17946 0.0
H536 H 0.4509 0.05428 0.21747 0.0
H537 H 0.61607 0.05203 0.27968 0.0
H538 H 0.53268 0.0332 0.1926 0.0
H539 H 0.51441 0.03237 0.30345 0.0
C540 C 0.47023 0.03786 0.29238 0.0
C541 C 0.45179 0.04425 0.26845 0.0
C542 C 0.55104 0.03735 0.21163 0.0
C543 C 0.51209 0.04243 0.2526 0.0
C544 C 0.5818 0.03746 0.20418 0.0
C545 C 0.60605 0.04299 0.22846 0.0
C546 C 0.54428 0.04222 0.24365 0.0
C547 C 0.59828 0.0479 0.26012 0.0
C548 C 0.50047 0.0372 0.28461 0.0
C549 C 0.4644 0.0495 0.23676 0.0
N550 N 0.56806 0.04724 0.26679 0.0
N551 N 0.49366 0.04832 0.22973 0.0
H552 H 0.56278 0.58517 0.34747 0.0
H553 H 0.43685 0.4605 0.48494 0.0
H554 H 0.57442 0.61589 0.44728 0.0
H555 H 0.40677 0.45078 0.38498 0.0
H556 H 0.49108 0.51392 0.47183 0.0
H557 H 0.50895 0.53178 0.36103 0.0
C558 C 0.55407 0.58069 0.37222 0.0
C559 C 0.5731 0.60512 0.39624 0.0
C560 C 0.47251 0.50005 0.45284 0.0
C561 C 0.51174 0.54395 0.41194 0.0
C562 C 0.44163 0.46955 0.46028 0.0
C563 C 0.41716 0.45117 0.43606 0.0
C564 C 0.47919 0.51191 0.42089 0.0
C565 C 0.42475 0.46416 0.40449 0.0
C566 C 0.5233 0.55027 0.37992 0.0
C567 C 0.5605 0.5979 0.42794 0.0
N568 N 0.45513 0.49358 0.39781 0.0
N569 N 0.53072 0.5679 0.4349 0.0
H570 H 0.02498 0.58265 0.54589 0.0
H571 H 0.92106 0.38416 0.58807 0.0
H572 H 0.9227 0.53862 0.58741 0.0
H573 H 0.02707 0.44573 0.62069 0.0
H574 H 0.92053 0.43785 0.5751 0.0
H575 H 0.02591 0.52927 0.5602 0.0
C576 C 1.00262 0.56159 0.55764 0.0
C577 C 0.97369 0.56485 0.56548 0.0
C578 C 0.94381 0.43948 0.58519 0.0
C579 C 0.97446 0.50416 0.58132 0.0
C580 C 0.94416 0.40902 0.59255 0.0
C581 C 0.97408 0.4107 0.60566 0.0
C582 C 0.97395 0.4717 0.58993 0.0
C583 C 1.00342 0.44348 0.61093 0.0
C584 C 1.00331 0.53144 0.566 0.0
C585 C 0.9455 0.53705 0.58103 0.0
N586 N 1.00281 0.47283 0.60261 0.0
N587 N 0.94639 0.50764 0.58814 0.0
H588 H 0.40762 0.96618 0.78062 0.0
H589 H 0.57625 0.96661 0.71646 0.0
H590 H 0.43856 0.98476 0.68092 0.0
H591 H 0.56299 0.98485 0.81605 0.0
H592 H 0.52354 0.96815 0.70288 0.0
H593 H 0.46189 0.9678 0.79381 0.0
C594 C 0.4258 0.97056 0.76143 0.0
C595 C 0.41841 0.97525 0.72952 0.0
C596 C 0.53224 0.97196 0.72767 0.0
C597 C 0.48072 0.97697 0.74463 0.0
C598 C 0.56226 0.97093 0.73552 0.0
C599 C 0.57407 0.97552 0.76752 0.0
C600 C 0.51349 0.97711 0.75201 0.0
C601 C 0.55491 0.98122 0.79109 0.0
C602 C 0.45689 0.97164 0.76907 0.0
C603 C 0.44316 0.98105 0.70581 0.0
N604 N 0.52541 0.98159 0.78289 0.0
N605 N 0.47313 0.98149 0.71381 0.0
H606 H 0.46281 0.43428 0.84565 0.0
H607 H 0.58786 0.55816 0.98481 0.0
H608 H 0.45141 0.40332 0.94537 0.0
H609 H 0.6181 0.56997 0.88494 0.0
H610 H 0.53375 0.50498 0.97083 0.0
H611 H 0.5162 0.48815 0.85968 0.0
C612 C 0.47147 0.43881 0.87046 0.0
C613 C 0.45265 0.41417 0.89432 0.0
C614 C 0.55231 0.51927 0.95203 0.0
C615 C 0.51343 0.4758 0.91055 0.0
C616 C 0.58312 0.54965 0.95998 0.0
C617 C 0.60764 0.56851 0.93606 0.0
C618 C 0.54573 0.50797 0.91988 0.0
C619 C 0.60008 0.55619 0.90424 0.0
C620 C 0.50197 0.46948 0.87843 0.0
C621 C 0.46516 0.42144 0.92612 0.0
N622 N 0.56978 0.52683 0.89707 0.0
N623 N 0.49464 0.45163 0.93332 0.0
H624 H 0.04006 0.29334 0.75342 0.0
H625 H 1.00229 0.36993 0.91252 0.0
H626 H 0.01351 0.3745 0.75222 0.0
H627 H 1.00582 0.27456 0.91075 0.0
H628 H 1.00953 0.37414 0.85417 0.0
H629 H 0.03283 0.28943 0.81185 0.0
C630 C 0.03321 0.31069 0.76546 0.0
C631 C 0.02735 0.33427 0.74789 0.0
C632 C 1.00844 0.35214 0.86652 0.0
C633 C 0.0186 0.32961 0.81466 0.0
C634 C 1.00414 0.34963 0.89982 0.0
C635 C 1.00341 0.32183 0.91656 0.0
C636 C 1.01242 0.32687 0.84983 0.0
C637 C 1.00606 0.29636 0.89884 0.0
C638 C 0.02875 0.3082 0.79878 0.0
C639 C 0.01823 0.3559 0.76479 0.0
N640 N 1.01075 0.29965 0.86647 0.0
N641 N 0.01407 0.353 0.7972 0.0
H642 H 0.75049 0.02673 0.92065 0.0
H643 H 0.6409 1.00342 0.07997 0.0
H644 H 0.64655 0.01135 0.91918 0.0
H645 H 0.72997 0.98892 0.07759 0.0
H646 H 0.6446 0.01084 0.0216 0.0
H647 H 0.7464 0.01929 0.97909 0.0
C648 C 0.72701 0.02232 0.93265 0.0
C649 C 0.69881 0.01967 0.915 0.0
C650 C 0.66315 1.00574 0.03382 0.0
C651 C 0.69385 0.01074 0.98177 0.0
C652 C 0.66099 1.00138 0.06712 0.0
C653 C 0.68511 0.99545 0.08368 0.0
C654 C 0.68992 1.00465 0.01695 0.0
C655 C 0.71067 0.9932 0.06579 0.0
C656 C 0.72457 0.01771 0.96596 0.0
C657 C 0.66891 0.01355 0.93182 0.0
N658 N 0.7126 0.99812 0.03341 0.0
N659 N 0.66721 0.00928 0.96425 0.0
H660 H 0.72551 0.74927 0.08698 0.0
H661 H 0.6525 0.63656 0.24746 0.0
H662 H 0.64629 0.64084 0.08695 0.0
H663 H 0.7464 0.73661 0.24453 0.0
H664 H 0.64767 0.6386 0.18904 0.0
H665 H 0.73014 0.74679 0.14543 0.0
C666 C 0.70874 0.72507 0.09928 0.0
C667 C 0.68548 0.6952 0.08202 0.0
C668 C 0.66949 0.65998 0.20116 0.0
C669 C 0.69098 0.69209 0.14886 0.0
C670 C 0.67236 0.65877 0.2345 0.0
C671 C 0.69993 0.68644 0.25094 0.0
C672 C 0.69415 0.68925 0.18411 0.0
C673 C 0.72481 0.7146 0.23287 0.0
C674 C 0.71164 0.72359 0.13263 0.0
C675 C 0.66461 0.66449 0.09926 0.0
N676 N 0.72117 0.71541 0.20046 0.0
N677 N 0.6679 0.66372 0.1317 0.0
H678 H 0.96875 0.63178 0.41898 0.0
H679 H 0.0603 0.68254 0.24816 0.0
H680 H 0.07598 0.7117 0.40691 0.0
H681 H 0.94955 0.63844 0.25954 0.0
H682 H 0.06701 0.68579 0.30637 0.0
H683 H 0.96211 0.62643 0.36075 0.0
C684 C 0.99097 0.64825 0.40414 0.0
C685 C 0.02295 0.67257 0.41794 0.0
C686 C 0.04127 0.67548 0.29612 0.0
C687 C 0.01545 0.66603 0.35112 0.0
C688 C 0.03733 0.67365 0.26284 0.0
C689 C 1.00431 0.66073 0.24882 0.0
C690 C 1.01192 0.66373 0.3157 0.0
C691 C 0.9755 0.6488 0.26926 0.0
C692 C 0.98706 0.64514 0.37086 0.0
C693 C 0.05085 0.69276 0.39735 0.0
N694 N 0.97997 0.65055 0.30173 0.0
N695 N 0.04647 0.68899 0.36492 0.0
H696 H 0.30019 0.03765 0.57768 0.0
H697 H 0.37144 0.99676 0.41682 0.0
H698 H 0.37664 1.00472 0.57763 0.0
H699 H 0.27898 1.0055 0.41994 0.0
H700 H 0.37598 1.00265 0.47534 0.0
H701 H 0.2955 0.03088 0.51921 0.0
C702 C 0.31632 0.02943 0.56537 0.0
C703 C 0.33886 0.02176 0.58262 0.0
C704 C 0.35454 1.00299 0.46324 0.0
C705 C 0.33331 0.01359 0.51571 0.0
C706 C 0.35184 0.99949 0.42983 0.0
C707 C 0.32476 1.0006 0.41341 0.0
C708 C 0.33022 1.00805 0.48038 0.0
C709 C 0.30019 1.00431 0.43156 0.0
C710 C 0.31338 0.02526 0.532 0.0
C711 C 0.35891 0.01092 0.56534 0.0
N712 N 0.30368 1.00821 0.46403 0.0
N713 N 0.35564 1.00714 0.53286 0.0
H714 H 0.38187 0.37661 0.5848 0.0
H715 H 0.27726 0.27944 0.74362 0.0
H716 H 0.29824 0.27002 0.58559 0.0
H717 H 0.37318 0.37782 0.74477 0.0
H718 H 0.28176 0.27742 0.68515 0.0
H719 H 0.37749 0.37863 0.64316 0.0
C720 C 0.36285 0.35348 0.5973 0.0
C721 C 0.34039 0.32308 0.58028 0.0
C722 C 0.30173 0.29951 0.69821 0.0
C723 C 0.33482 0.32543 0.64708 0.0
C724 C 0.299 0.30086 0.73156 0.0
C725 C 0.3249 0.32885 0.74913 0.0
C726 C 0.33042 0.32645 0.68231 0.0
C727 C 0.35264 0.35572 0.73222 0.0
C728 C 0.36027 0.3547 0.63062 0.0
C729 C 0.3162 0.29394 0.59774 0.0
N730 N 0.35469 0.35381 0.69977 0.0
N731 N 0.31386 0.29591 0.63018 0.0
H732 H 0.29972 0.33299 0.96341 0.0
H733 H 0.11457 0.31489 0.94523 0.0
H734 H 0.25582 0.32535 0.86898 0.0
H735 H 0.18783 0.38041 0.01762 0.0
H736 H 0.16117 0.30975 0.91887 0.0
H737 H 0.25334 0.34036 0.98649 0.0
C738 C 0.28018 0.33263 0.94752 0.0
C739 C 0.28165 0.32856 0.91418 0.0
C740 C 0.16692 0.32533 0.94046 0.0
C741 C 0.22833 0.33671 0.94062 0.0
C742 C 0.14045 0.32846 0.95543 0.0
C743 C 0.14724 0.34798 0.98382 0.0
C744 C 0.20013 0.34119 0.9544 0.0
C745 C 0.18116 0.3644 0.99627 0.0
C746 C 0.25388 0.33708 0.96073 0.0
C747 C 0.25571 0.32855 0.89478 0.0
N748 N 0.20623 0.36032 0.98171 0.0
N749 N 0.22984 0.33227 0.90833 0.0
H750 H 0.92705 0.2754 0.04343 0.0
H751 H 0.84238 0.13861 0.18774 0.0
H752 H 0.98595 0.26833 0.12292 0.0
H753 H 0.78173 0.16013 0.12031 0.0
H754 H 0.89556 0.183 0.16166 0.0
H755 H 0.87373 0.22948 0.0681 0.0
C756 C 0.92885 0.26408 0.06592 0.0
C757 C 0.96111 0.27591 0.08115 0.0
C758 C 0.87065 0.17804 0.15249 0.0
C759 C 0.90014 0.22338 0.10952 0.0
C760 C 0.84036 0.1528 0.16743 0.0
C761 C 0.80775 0.14567 0.15599 0.0
C762 C 0.86833 0.19621 0.12579 0.0
C763 C 0.80644 0.16459 0.12953 0.0
C764 C 0.89836 0.23798 0.08007 0.0
C765 C 0.96173 0.26027 0.11035 0.0
N766 N 0.8363 0.18894 0.11523 0.0
N767 N 0.93178 0.23488 0.12353 0.0
H768 H 0.70688 0.80544 0.2819 0.0
H769 H 0.68633 0.97119 0.29834 0.0
H770 H 0.63626 0.80968 0.35033 0.0
H771 H 0.69769 0.93664 0.20449 0.0
H772 H 0.67839 0.91703 0.32143 0.0
H773 H 0.71292 0.85777 0.25582 0.0
C774 C 0.69238 0.81712 0.29127 0.0
C775 C 0.67116 0.80323 0.3185 0.0
C776 C 0.68266 0.92137 0.2958 0.0
C777 C 0.67899 0.86363 0.28947 0.0
C778 C 0.68745 0.95233 0.28261 0.0
C779 C 0.69267 0.95842 0.24941 0.0
C780 C 0.6839 0.89659 0.27583 0.0
C781 C 0.6936 0.9329 0.23018 0.0
C782 C 0.69604 0.84706 0.27649 0.0
C783 C 0.65353 0.81992 0.3299 0.0
N784 N 0.68956 0.90315 0.24371 0.0
N785 N 0.65817 0.84947 0.31561 0.0
H786 H 0.74961 0.66124 0.37863 0.0
H787 H 0.87363 0.70306 0.53269 0.0
H788 H 0.74834 0.71982 0.46095 0.0
H789 H 0.86659 0.63439 0.45616 0.0
H790 H 0.82943 0.71155 0.50556 0.0
H791 H 0.79503 0.65402 0.40489 0.0
C792 C 0.759 0.67279 0.40209 0.0
C793 C 0.74496 0.69106 0.4176 0.0
C794 C 0.83749 0.69458 0.49467 0.0
C795 C 0.79686 0.68275 0.44787 0.0
C796 C 0.86254 0.68957 0.51028 0.0
C797 C 0.87369 0.66798 0.49664 0.0
C798 C 0.82355 0.67795 0.46512 0.0
C799 C 0.85891 0.65153 0.46731 0.0
C800 C 0.78484 0.66853 0.41714 0.0
C801 C 0.75818 0.70539 0.44806 0.0
N802 N 0.83465 0.65689 0.45249 0.0
N803 N 0.78328 0.70087 0.46216 0.0
H804 H 0.18164 0.87616 0.6891 0.0
H805 H 0.09624 0.74159 0.54315 0.0
H806 H 0.24229 0.85817 0.61909 0.0
H807 H 0.03894 0.74227 0.6266 0.0
H808 H 0.14946 0.78851 0.5673 0.0
H809 H 0.12845 0.83077 0.66362 0.0
C810 C 0.18368 0.86255 0.66835 0.0
C811 C 0.21629 0.87094 0.65604 0.0
C812 C 0.1252 0.77838 0.58026 0.0
C813 C 0.15566 0.8193 0.62651 0.0
C814 C 0.09477 0.75171 0.56642 0.0
C815 C 0.06303 0.73782 0.58289 0.0
C816 C 0.12384 0.79151 0.61063 0.0
C817 C 0.06279 0.75197 0.61305 0.0
C818 C 0.15337 0.83674 0.65376 0.0
C819 C 0.21757 0.85275 0.629 0.0
N820 N 0.09267 0.77799 0.62589 0.0
N821 N 0.18768 0.82783 0.61504 0.0
H822 H 0.39061 0.20827 0.85235 0.0
H823 H 0.32632 0.08086 0.70247 0.0
H824 H 0.31874 0.21048 0.78372 0.0
H825 H 0.33969 0.04769 0.79639 0.0
H826 H 0.33383 0.13476 0.72676 0.0
H827 H 0.38284 0.15508 0.82693 0.0
C828 C 0.37312 0.19754 0.83203 0.0
C829 C 0.35503 0.21369 0.82038 0.0
C830 C 0.33501 0.11553 0.74192 0.0
C831 C 0.34707 0.15366 0.79052 0.0
C832 C 0.33082 0.08491 0.72813 0.0
C833 C 0.33221 0.05972 0.74748 0.0
C834 C 0.34161 0.1213 0.77505 0.0
C835 C 0.33812 0.06627 0.78061 0.0
C836 C 0.36887 0.16735 0.81746 0.0
C837 C 0.33353 0.19918 0.79329 0.0
N838 N 0.34296 0.09655 0.79329 0.0
N839 N 0.33023 0.17005 0.77916 0.0
H840 H 0.72783 0.74687 0.87617 0.0
H841 H 0.62742 0.85431 0.87756 0.0
H842 H 0.66172 0.74182 0.95438 0.0
H843 H 0.71152 0.87641 0.81278 0.0
H844 H 0.63704 0.8106 0.90442 0.0
H845 H 0.72011 0.79232 0.8512 0.0
C846 C 0.71181 0.75543 0.88822 0.0
C847 C 0.69534 0.74038 0.91744 0.0
C848 C 0.65347 0.82507 0.8844 0.0
C849 C 0.68611 0.79233 0.88868 0.0
C850 C 0.64802 0.85 0.86914 0.0
C851 C 0.66895 0.86912 0.84319 0.0
C852 C 0.67979 0.81893 0.87332 0.0
C853 C 0.6948 0.86211 0.83271 0.0
C854 C 0.70744 0.78143 0.87391 0.0
C855 C 0.67499 0.75269 0.9319 0.0
N856 N 0.69948 0.83757 0.84778 0.0
N857 N 0.67075 0.77775 0.91726 0.0
H858 H 0.84332 0.70834 0.97985 0.0
H859 H 0.92943 0.65678 0.12383 0.0
H860 H 0.78281 0.62755 0.0482 0.0
H861 H 0.98653 0.71904 0.04212 0.0
H862 H 0.87583 0.65033 0.10019 0.0
H863 H 0.89655 0.71676 0.00571 0.0
C864 C 0.84133 0.69238 0.00035 0.0
C865 C 0.80874 0.66732 0.01201 0.0
C866 C 0.90015 0.66546 0.08754 0.0
C867 C 0.86944 0.67694 0.04199 0.0
C868 C 0.93078 0.6693 0.10108 0.0
C869 C 0.96257 0.68836 0.0849 0.0
C870 C 0.90138 0.68109 0.05778 0.0
C871 C 0.96266 0.70391 0.05542 0.0
C872 C 0.87166 0.69722 0.01516 0.0
C873 C 0.80751 0.64746 0.03877 0.0
N874 N 0.93262 0.69993 0.04287 0.0
N875 N 0.83744 0.65272 0.05293 0.0
H876 H 0.16097 0.78128 0.20824 0.0
H877 H 0.27813 0.98873 0.20266 0.0
H878 H 0.15422 0.84414 0.13267 0.0
H879 H 0.27642 0.92693 0.28361 0.0
H880 H 0.23362 0.93612 0.17633 0.0
H881 H 0.20455 0.83414 0.23546 0.0
C882 C 0.16873 0.80629 0.19739 0.0
C883 C 0.15391 0.80841 0.16825 0.0
C884 C 0.24283 0.93403 0.19991 0.0
C885 C 0.20394 0.86904 0.19912 0.0
C886 C 0.26828 0.96412 0.21504 0.0
C887 C 0.28121 0.96235 0.24546 0.0
C888 C 0.23019 0.90172 0.21511 0.0
C889 C 0.26726 0.92964 0.26023 0.0
C890 C 0.19361 0.83644 0.21292 0.0
C891 C 0.16522 0.84137 0.15497 0.0
N892 N 0.24266 0.90062 0.24484 0.0
N893 N 0.18952 0.8704 0.17053 0.0
H894 H 0.32705 0.25306 0.46161 0.0
H895 H 0.3935 0.18917 0.31446 0.0
H896 H 0.34068 0.29836 0.36715 0.0
H897 H 0.32031 0.11507 0.3819 0.0
H898 H 0.3856 0.23469 0.33939 0.0
H899 H 0.33504 0.20659 0.43835 0.0
C900 C 0.33171 0.25322 0.43603 0.0
C901 C 0.33309 0.27952 0.41624 0.0
C902 C 0.37139 0.20844 0.34874 0.0
C903 C 0.34306 0.22721 0.38986 0.0
C904 C 0.37575 0.18245 0.33449 0.0
C905 C 0.35712 0.14813 0.34577 0.0
C906 C 0.34897 0.20031 0.37507 0.0
C907 C 0.33536 0.14119 0.37254 0.0
C908 C 0.33617 0.22673 0.42284 0.0
C909 C 0.33917 0.27847 0.38324 0.0
N910 N 0.33191 0.16708 0.38636 0.0
N911 N 0.34431 0.25298 0.37115 0.0
H912 H 0.03569 0.29482 0.5401 0.0
H913 H 0.24303 0.39143 0.54333 0.0
H914 H 0.09681 0.35758 0.62024 0.0
H915 H 0.1806 0.30565 0.47995 0.0
H916 H 0.18989 0.38266 0.56971 0.0
H917 H 0.0886 0.30149 0.51552 0.0
C918 C 0.06021 0.30992 0.55261 0.0
C919 C 0.06176 0.3257 0.5823 0.0
C920 C 0.18781 0.36566 0.55011 0.0
C921 C 0.12254 0.33369 0.55406 0.0
C922 C 0.21807 0.37062 0.53515 0.0
C923 C 0.21606 0.34906 0.50965 0.0
C924 C 0.15528 0.33924 0.53917 0.0
C925 C 0.18316 0.32289 0.49949 0.0
C926 C 0.0904 0.31365 0.53856 0.0
C927 C 0.09431 0.34487 0.59738 0.0
N928 N 0.15403 0.31877 0.5142 0.0
N929 N 0.12343 0.34853 0.58298 0.0
H930 H 0.86279 0.23804 0.71244 0.0
H931 H 0.75199 0.03037 0.7097 0.0
H932 H 0.88162 0.175 0.64587 0.0
H933 H 0.74788 0.09188 0.78813 0.0
H934 H 0.7981 0.08315 0.6851 0.0
H935 H 0.81888 0.18505 0.73941 0.0
C936 C 0.85773 0.21297 0.70366 0.0
C937 C 0.87593 0.21075 0.67713 0.0
C938 C 0.78729 0.08513 0.70778 0.0
C939 C 0.82556 0.15013 0.70743 0.0
C940 C 0.7609 0.05496 0.72189 0.0
C941 C 0.74589 0.05663 0.75104 0.0
C942 C 0.79866 0.11741 0.72269 0.0
C943 C 0.75869 0.08929 0.76569 0.0
C944 C 0.83269 0.18278 0.71898 0.0
C945 C 0.86803 0.17773 0.66623 0.0
N946 N 0.78415 0.11842 0.75124 0.0
N947 N 0.8434 0.14871 0.68139 0.0
loop_
_geom_bond_atom_site_label_1
_geom_bond_atom_site_label_2
_geom_bond_distance
_geom_bond_site_symmetry_2
_ccdc_geom_bond_type
Co0 O3 1.970 . S
Co0 N17 1.989 . S
Co0 O25 1.967 . S
Co0 O32 1.920 1_554 S
Co1 O4 1.966 . S
Co1 N10 2.022 . S
Co1 N18 1.993 . S
Co1 O26 1.941 . S
C2 O3 1.258 . S
C2 O4 1.263 . S
O3 Co0 1.970 . S
O3 C2 1.258 . S
O4 Co1 1.966 . S
O4 C2 1.263 . S
C5 O6 1.235 . S
C5 O32 1.289 . S
O6 C5 1.235 . S
C7 C9 1.400 . S
C7 N10 1.351 . S
C7 C12 1.501 . S
C8 C9 1.387 . S
C8 N11 1.341 . S
C9 C7 1.400 . S
C9 C8 1.387 . S
N10 Co1 2.022 . S
N10 C7 1.351 . S
N10 N11 1.365 . S
N11 C8 1.341 . S
N11 N10 1.365 . S
N11 H31 0.862 . S
C12 C7 1.501 . S
C12 H13 0.961 . S
C12 H14 0.961 . S
C12 H15 0.960 . S
H13 C12 0.961 . S
H14 C12 0.961 . S
H15 C12 0.960 . S
C16 N17 1.342 1_556 S
C16 C20 1.401 1_556 S
C16 C21 1.499 . S
N17 Co0 1.989 . S
N17 C16 1.342 1_554 S
N17 N18 1.388 . S
N18 Co1 1.993 . S
N18 N17 1.388 . S
N18 C19 1.346 . S
C19 N18 1.346 . S
C19 C20 1.396 . S
C19 C29 1.510 . S
C20 C16 1.401 1_554 S
C20 C19 1.396 . S
C21 C16 1.499 . S
C21 H22 0.959 . S
C21 H23 0.960 . S
C21 H24 0.961 . S
H22 C21 0.959 . S
H23 C21 0.960 . S
H24 C21 0.961 . S
O25 Co0 1.967 . S
O25 C33 1.258 . S
O26 Co1 1.941 . S
O26 C33 1.266 . S
H27 C29 0.959 . S
H28 C29 0.961 . S
C29 C19 1.510 . S
C29 H27 0.959 . S
C29 H28 0.961 . S
C29 H30 0.960 . S
H30 C29 0.960 . S
H31 N11 0.862 . S
O32 Co0 1.920 1_556 S
O32 C5 1.289 . S
C33 O25 1.258 . S
C33 O26 1.266 . S
Co34 O37 1.970 . S
Co34 N51 1.989 . S
Co34 O59 1.967 . S
Co34 O66 1.920 . S
Co35 O38 1.966 . S
Co35 N44 2.022 . S
Co35 N52 1.993 . S
Co35 O60 1.941 . S
C36 O37 1.258 . S
C36 O38 1.263 . S
O37 Co34 1.970 . S
O37 C36 1.258 . S
O38 Co35 1.966 . S
O38 C36 1.263 . S
C39 O40 1.235 . S
C39 O66 1.289 . S
O40 C39 1.235 . S
C41 C43 1.400 . S
C41 N44 1.351 . S
C41 C46 1.501 . S
C42 C43 1.387 . S
C42 N45 1.341 . S
C43 C41 1.400 . S
C43 C42 1.387 . S
N44 Co35 2.022 . S
N44 C41 1.351 . S
N44 N45 1.365 . S
N45 C42 1.341 . S
N45 N44 1.365 . S
N45 H65 0.862 . S
C46 C41 1.501 . S
C46 H47 0.961 . S
C46 H48 0.961 . S
C46 H49 0.960 . S
H47 C46 0.961 . S
H48 C46 0.961 . S
H49 C46 0.960 . S
C50 N51 1.342 . S
C50 C54 1.401 . S
C50 C55 1.499 . S
N51 Co34 1.989 . S
N51 C50 1.342 . S
N51 N52 1.388 . S
N52 Co35 1.993 . S
N52 N51 1.388 . S
N52 C53 1.346 . S
C53 N52 1.346 . S
C53 C54 1.396 . S
C53 C63 1.510 . S
C54 C50 1.401 . S
C54 C53 1.396 . S
C55 C50 1.499 . S
C55 H56 0.959 . S
C55 H57 0.960 . S
C55 H58 0.961 . S
H56 C55 0.959 . S
H57 C55 0.960 . S
H58 C55 0.961 . S
O59 Co34 1.967 . S
O59 C67 1.258 . S
O60 Co35 1.941 . S
O60 C67 1.266 . S
H61 C63 0.959 . S
H62 C63 0.961 . S
C63 C53 1.510 . S
C63 H61 0.959 . S
C63 H62 0.961 . S
C63 H64 0.960 . S
H64 C63 0.960 . S
H65 N45 0.862 . S
O66 Co34 1.920 . S
O66 C39 1.289 . S
C67 O59 1.258 . S
C67 O60 1.266 . S
Co68 O71 1.970 . S
Co68 N85 1.989 . S
Co68 O93 1.967 . S
Co68 O100 1.920 . S
Co69 O72 1.966 . S
Co69 N78 2.022 . S
Co69 N86 1.993 . S
Co69 O94 1.941 . S
C70 O71 1.258 . S
C70 O72 1.263 . S
O71 Co68 1.970 . S
O71 C70 1.258 . S
O72 Co69 1.966 . S
O72 C70 1.263 . S
C73 O74 1.235 . S
C73 O100 1.289 . S
O74 C73 1.235 . S
C75 C77 1.400 . S
C75 N78 1.351 . S
C75 C80 1.501 . S
C76 C77 1.387 . S
C76 N79 1.341 . S
C77 C75 1.400 . S
C77 C76 1.387 . S
N78 Co69 2.022 . S
N78 C75 1.351 . S
N78 N79 1.365 . S
N79 C76 1.341 . S
N79 N78 1.365 . S
N79 H99 0.862 . S
C80 C75 1.501 . S
C80 H81 0.961 . S
C80 H82 0.961 . S
C80 H83 0.960 . S
H81 C80 0.961 . S
H82 C80 0.961 . S
H83 C80 0.960 . S
C84 N85 1.342 . S
C84 C88 1.401 . S
C84 C89 1.499 . S
N85 Co68 1.989 . S
N85 C84 1.342 . S
N85 N86 1.388 . S
N86 Co69 1.993 . S
N86 N85 1.388 . S
N86 C87 1.346 . S
C87 N86 1.346 . S
C87 C88 1.396 . S
C87 C97 1.510 . S
C88 C84 1.401 . S
C88 C87 1.396 . S
C89 C84 1.499 . S
C89 H90 0.959 . S
C89 H91 0.960 . S
C89 H92 0.961 . S
H90 C89 0.959 . S
H91 C89 0.960 . S
H92 C89 0.961 . S
O93 Co68 1.967 . S
O93 C101 1.258 . S
O94 Co69 1.941 . S
O94 C101 1.266 . S
H95 C97 0.959 . S
H96 C97 0.961 . S
C97 C87 1.510 . S
C97 H95 0.959 . S
C97 H96 0.961 . S
C97 H98 0.960 . S
H98 C97 0.960 . S
H99 N79 0.862 . S
O100 Co68 1.920 . S
O100 C73 1.289 . S
C101 O93 1.258 . S
C101 O94 1.266 . S
Co102 O105 1.970 . S
Co102 N119 1.989 . S
Co102 O127 1.967 . S
Co102 O134 1.920 . S
Co103 O106 1.966 . S
Co103 N112 2.022 . S
Co103 N120 1.993 . S
Co103 O128 1.941 . S
C104 O105 1.258 . S
C104 O106 1.263 . S
O105 Co102 1.970 . S
O105 C104 1.258 . S
O106 Co103 1.966 . S
O106 C104 1.263 . S
C107 O108 1.235 . S
C107 O134 1.289 . S
O108 C107 1.235 . S
C109 C111 1.400 . S
C109 N112 1.351 . S
C109 C114 1.501 . S
C110 C111 1.387 . S
C110 N113 1.341 . S
C111 C109 1.400 . S
C111 C110 1.387 . S
N112 Co103 2.022 . S
N112 C109 1.351 . S
N112 N113 1.365 . S
N113 C110 1.341 . S
N113 N112 1.365 . S
N113 H133 0.862 . S
C114 C109 1.501 . S
C114 H115 0.961 . S
C114 H116 0.961 . S
C114 H117 0.960 . S
H115 C114 0.961 . S
H116 C114 0.961 . S
H117 C114 0.960 . S
C118 N119 1.342 . S
C118 C122 1.401 . S
C118 C123 1.499 . S
N119 Co102 1.989 . S
N119 C118 1.342 . S
N119 N120 1.388 . S
N120 Co103 1.993 . S
N120 N119 1.388 . S
N120 C121 1.346 . S
C121 N120 1.346 . S
C121 C122 1.396 . S
C121 C131 1.510 . S
C122 C118 1.401 . S
C122 C121 1.396 . S
C123 C118 1.499 . S
C123 H124 0.959 . S
C123 H125 0.960 . S
C123 H126 0.961 . S
H124 C123 0.959 . S
H125 C123 0.960 . S
H126 C123 0.961 . S
O127 Co102 1.967 . S
O127 C135 1.258 . S
O128 Co103 1.941 . S
O128 C135 1.266 . S
H129 C131 0.959 . S
H130 C131 0.961 . S
C131 C121 1.510 . S
C131 H129 0.959 . S
C131 H130 0.961 . S
C131 H132 0.960 . S
H132 C131 0.960 . S
H133 N113 0.862 . S
O134 Co102 1.920 . S
O134 C107 1.289 . S
C135 O127 1.258 . S
C135 O128 1.266 . S
Co136 O139 1.970 . S
Co136 N153 1.989 . S
Co136 O161 1.967 . S
Co136 O168 1.920 . S
Co137 O140 1.966 . S
Co137 N146 2.022 . S
Co137 N154 1.993 . S
Co137 O162 1.941 . S
C138 O139 1.258 . S
C138 O140 1.263 . S
O139 Co136 1.970 . S
O139 C138 1.258 . S
O140 Co137 1.966 . S
O140 C138 1.263 . S
C141 O142 1.235 . S
C141 O168 1.289 . S
O142 C141 1.235 . S
C143 C145 1.400 . S
C143 N146 1.351 . S
C143 C148 1.501 . S
C144 C145 1.387 . S
C144 N147 1.341 . S
C145 C143 1.400 . S
C145 C144 1.387 . S
N146 Co137 2.022 . S
N146 C143 1.351 . S
N146 N147 1.365 . S
N147 C144 1.341 . S
N147 N146 1.365 . S
N147 H167 0.862 . S
C148 C143 1.501 . S
C148 H149 0.961 . S
C148 H150 0.961 . S
C148 H151 0.960 . S
H149 C148 0.961 . S
H150 C148 0.961 . S
H151 C148 0.960 . S
C152 N153 1.342 . S
C152 C156 1.401 . S
C152 C157 1.499 . S
N153 Co136 1.989 . S
N153 C152 1.342 . S
N153 N154 1.388 . S
N154 Co137 1.993 . S
N154 N153 1.388 . S
N154 C155 1.346 . S
C155 N154 1.346 . S
C155 C156 1.396 . S
C155 C165 1.510 . S
C156 C152 1.401 . S
C156 C155 1.396 . S
C157 C152 1.499 . S
C157 H158 0.959 . S
C157 H159 0.960 . S
C157 H160 0.961 . S
H158 C157 0.959 . S
H159 C157 0.960 . S
H160 C157 0.961 . S
O161 Co136 1.967 . S
O161 C169 1.258 . S
O162 Co137 1.941 . S
O162 C169 1.266 . S
H163 C165 0.959 . S
H164 C165 0.961 . S
C165 C155 1.510 . S
C165 H163 0.959 . S
C165 H164 0.961 . S
C165 H166 0.960 . S
H166 C165 0.960 . S
H167 N147 0.862 . S
O168 Co136 1.920 . S
O168 C141 1.289 . S
C169 O161 1.258 . S
C169 O162 1.266 . S
Co170 O173 1.970 . S
Co170 N187 1.989 . S
Co170 O195 1.967 . S
Co170 O202 1.920 . S
Co171 O174 1.966 . S
Co171 N180 2.022 . S
Co171 N188 1.993 . S
Co171 O196 1.941 . S
C172 O173 1.258 . S
C172 O174 1.263 . S
O173 Co170 1.970 . S
O173 C172 1.258 . S
O174 Co171 1.966 . S
O174 C172 1.263 . S
C175 O176 1.235 . S
C175 O202 1.289 . S
O176 C175 1.235 . S
C177 C179 1.400 . S
C177 N180 1.351 . S
C177 C182 1.501 . S
C178 C179 1.387 . S
C178 N181 1.341 . S
C179 C177 1.400 . S
C179 C178 1.387 . S
N180 Co171 2.022 . S
N180 C177 1.351 . S
N180 N181 1.365 . S
N181 C178 1.341 . S
N181 N180 1.365 . S
N181 H201 0.862 . S
C182 C177 1.501 . S
C182 H183 0.961 . S
C182 H184 0.961 . S
C182 H185 0.990 . S
H183 C182 0.961 . S
H184 C182 0.961 . S
H185 C182 0.990 . S
C186 N187 1.342 . S
C186 C190 1.401 . S
C186 C191 1.499 . S
N187 Co170 1.989 . S
N187 C186 1.342 . S
N187 N188 1.388 . S
N188 Co171 1.993 . S
N188 N187 1.388 . S
N188 C189 1.346 . S
C189 N188 1.346 . S
C189 C190 1.396 . S
C189 C199 1.510 . S
C190 C186 1.401 . S
C190 C189 1.396 . S
C191 C186 1.499 . S
C191 H192 0.959 . S
C191 H193 0.960 . S
C191 H194 0.961 . S
H192 C191 0.959 . S
H193 C191 0.960 . S
H194 C191 0.961 . S
O195 Co170 1.967 . S
O195 C203 1.258 . S
O196 Co171 1.941 . S
O196 C203 1.266 . S
H197 C199 0.959 . S
H198 C199 0.961 . S
C199 C189 1.510 . S
C199 H197 0.959 . S
C199 H198 0.961 . S
C199 H200 0.960 . S
H200 C199 0.960 . S
H201 N181 0.862 . S
O202 Co170 1.920 . S
O202 C175 1.289 . S
C203 O195 1.258 . S
C203 O196 1.266 . S
Co204 O207 1.970 . S
Co204 N221 1.989 . S
Co204 O229 1.967 . S
Co204 O236 1.920 . S
Co205 O208 1.966 . S
Co205 N214 2.022 . S
Co205 N222 1.993 . S
Co205 O230 1.941 . S
C206 O207 1.258 . S
C206 O208 1.263 . S
O207 Co204 1.970 . S
O207 C206 1.258 . S
O208 Co205 1.966 . S
O208 C206 1.263 . S
C209 O210 1.235 . S
C209 O236 1.289 . S
O210 C209 1.235 . S
C211 C213 1.400 . S
C211 N214 1.351 . S
C211 C216 1.501 . S
C212 C213 1.387 . S
C212 N215 1.341 . S
C213 C211 1.400 . S
C213 C212 1.387 . S
N214 Co205 2.022 . S
N214 C211 1.351 . S
N214 N215 1.365 . S
N215 C212 1.341 . S
N215 N214 1.365 . S
N215 H235 0.862 . S
C216 C211 1.501 . S
C216 H217 0.961 . S
C216 H218 0.961 . S
C216 H219 0.960 . S
H217 C216 0.961 . S
H218 C216 0.961 . S
H219 C216 0.960 . S
C220 N221 1.342 . S
C220 C224 1.401 . S
C220 C225 1.499 . S
N221 Co204 1.989 . S
N221 C220 1.342 . S
N221 N222 1.388 . S
N222 Co205 1.993 . S
N222 N221 1.388 . S
N222 C223 1.346 . S
C223 N222 1.346 . S
C223 C224 1.396 . S
C223 C233 1.510 . S
C224 C220 1.401 . S
C224 C223 1.396 . S
C225 C220 1.499 . S
C225 H226 0.959 . S
C225 H227 0.960 . S
C225 H228 0.961 . S
H226 C225 0.959 . S
H227 C225 0.960 . S
H228 C225 0.961 . S
O229 Co204 1.967 . S
O229 C237 1.258 . S
O230 Co205 1.941 . S
O230 C237 1.266 . S
H231 C233 0.959 . S
H232 C233 0.961 . S
C233 C223 1.510 . S
C233 H231 0.959 . S
C233 H232 0.961 . S
C233 H234 0.960 . S
H234 C233 0.960 . S
H235 N215 0.862 . S
O236 Co204 1.920 . S
O236 C209 1.289 . S
C237 O229 1.258 . S
C237 O230 1.266 . S
Co238 O241 1.970 . S
Co238 N255 1.989 . S
Co238 O263 1.967 . S
Co238 O270 1.920 1_556 S
Co239 O242 1.966 . S
Co239 N248 2.022 . S
Co239 N256 1.993 . S
Co239 O264 1.941 . S
C240 O241 1.258 . S
C240 O242 1.263 . S
O241 Co238 1.970 . S
O241 C240 1.258 . S
O242 Co239 1.966 . S
O242 C240 1.263 . S
C243 O244 1.235 . S
C243 O270 1.289 . S
O244 C243 1.235 . S
C245 C247 1.400 . S
C245 N248 1.351 . S
C245 C250 1.501 . S
C246 C247 1.387 . S
C246 N249 1.341 . S
C247 C245 1.400 . S
C247 C246 1.387 . S
N248 Co239 2.022 . S
N248 C245 1.351 . S
N248 N249 1.365 . S
N249 C246 1.341 . S
N249 N248 1.365 . S
N249 H269 0.862 . S
C250 C245 1.501 . S
C250 H251 0.961 . S
C250 H252 0.961 . S
C250 H253 0.960 . S
H251 C250 0.961 . S
H252 C250 0.961 . S
H253 C250 0.960 . S
C254 N255 1.342 1_554 S
C254 C258 1.401 1_554 S
C254 C259 1.499 . S
N255 Co238 1.989 . S
N255 C254 1.342 1_556 S
N255 N256 1.388 . S
N256 Co239 1.993 . S
N256 N255 1.388 . S
N256 C257 1.346 . S
C257 N256 1.346 . S
C257 C258 1.396 . S
C257 C267 1.510 . S
C258 C254 1.401 1_556 S
C258 C257 1.396 . S
C259 C254 1.499 . S
C259 H260 0.959 . S
C259 H261 0.960 . S
C259 H262 0.961 . S
H260 C259 0.959 . S
H261 C259 0.960 . S
H262 C259 0.961 . S
O263 Co238 1.967 . S
O263 C271 1.258 . S
O264 Co239 1.941 . S
O264 C271 1.266 . S
H265 C267 0.959 . S
H266 C267 0.961 . S
C267 C257 1.510 . S
C267 H265 0.959 . S
C267 H266 0.961 . S
C267 H268 0.960 . S
H268 C267 0.960 . S
H269 N249 0.862 . S
O270 Co238 1.920 1_554 S
O270 C243 1.289 . S
C271 O263 1.258 . S
C271 O264 1.266 . S
Co272 O275 1.970 . S
Co272 N289 1.989 . S
Co272 O297 1.967 . S
Co272 O304 1.920 . S
Co273 O276 1.966 . S
Co273 N282 2.022 . S
Co273 N290 1.993 . S
Co273 O298 1.941 . S
C274 O275 1.258 . S
C274 O276 1.263 . S
O275 Co272 1.970 . S
O275 C274 1.258 . S
O276 Co273 1.966 . S
O276 C274 1.263 . S
C277 O278 1.235 . S
C277 O304 1.289 . S
O278 C277 1.235 . S
C279 C281 1.400 . S
C279 N282 1.351 . S
C279 C284 1.501 . S
C280 C281 1.387 . S
C280 N283 1.341 . S
C281 C279 1.400 . S
C281 C280 1.387 . S
N282 Co273 2.022 . S
N282 C279 1.351 . S
N282 N283 1.365 . S
N283 C280 1.341 . S
N283 N282 1.365 . S
N283 H303 0.862 . S
C284 C279 1.501 . S
C284 H285 0.961 . S
C284 H286 0.961 . S
C284 H287 0.989 . S
H285 C284 0.961 . S
H286 C284 0.961 . S
H287 C284 0.989 . S
C288 N289 1.342 . S
C288 C292 1.401 . S
C288 C293 1.499 . S
N289 Co272 1.989 . S
N289 C288 1.342 . S
N289 N290 1.388 . S
N290 Co273 1.993 . S
N290 N289 1.388 . S
N290 C291 1.346 . S
C291 N290 1.346 . S
C291 C292 1.396 . S
C291 C301 1.510 . S
C292 C288 1.401 . S
C292 C291 1.396 . S
C293 C288 1.499 . S
C293 H294 0.959 . S
C293 H295 0.960 . S
C293 H296 0.961 . S
H294 C293 0.959 . S
H295 C293 0.960 . S
H296 C293 0.961 . S
O297 Co272 1.967 . S
O297 C305 1.258 . S
O298 Co273 1.941 . S
O298 C305 1.266 . S
H299 C301 0.959 . S
H300 C301 0.961 . S
C301 C291 1.510 . S
C301 H299 0.959 . S
C301 H300 0.961 . S
C301 H302 0.960 . S
H302 C301 0.960 . S
H303 N283 0.862 . S
O304 Co272 1.920 . S
O304 C277 1.289 . S
C305 O297 1.258 . S
C305 O298 1.266 . S
Co306 O309 1.970 . S
Co306 N323 1.989 . S
Co306 O331 1.967 . S
Co306 O338 1.920 . S
Co307 O310 1.966 . S
Co307 N316 2.022 . S
Co307 N324 1.993 . S
Co307 O332 1.941 . S
C308 O309 1.258 . S
C308 O310 1.263 . S
O309 Co306 1.970 . S
O309 C308 1.258 . S
O310 Co307 1.966 . S
O310 C308 1.263 . S
C311 O312 1.235 . S
C311 O338 1.289 . S
O312 C311 1.235 . S
C313 C315 1.400 . S
C313 N316 1.351 . S
C313 C318 1.501 . S
C314 C315 1.387 . S
C314 N317 1.341 . S
C315 C313 1.400 . S
C315 C314 1.387 . S
N316 Co307 2.022 . S
N316 C313 1.351 . S
N316 N317 1.365 . S
N317 C314 1.341 . S
N317 N316 1.365 . S
N317 H337 0.862 . S
C318 C313 1.501 . S
C318 H319 0.961 . S
C318 H320 0.961 . S
C318 H321 0.960 . S
H319 C318 0.961 . S
H320 C318 0.961 . S
H321 C318 0.960 . S
C322 N323 1.342 . S
C322 C326 1.401 . S
C322 C327 1.499 . S
N323 Co306 1.989 . S
N323 C322 1.342 . S
N323 N324 1.388 . S
N324 Co307 1.993 . S
N324 N323 1.388 . S
N324 C325 1.346 . S
C325 N324 1.346 . S
C325 C326 1.396 . S
C325 C335 1.510 . S
C326 C322 1.401 . S
C326 C325 1.396 . S
C327 C322 1.499 . S
C327 H328 0.959 . S
C327 H329 0.960 . S
C327 H330 0.961 . S
H328 C327 0.959 . S
H329 C327 0.960 . S
H330 C327 0.961 . S
O331 Co306 1.967 . S
O331 C339 1.258 . S
O332 Co307 1.941 . S
O332 C339 1.266 . S
H333 C335 0.959 . S
H334 C335 0.961 . S
C335 C325 1.510 . S
C335 H333 0.959 . S
C335 H334 0.961 . S
C335 H336 0.960 . S
H336 C335 0.960 . S
H337 N317 0.862 . S
O338 Co306 1.920 . S
O338 C311 1.289 . S
C339 O331 1.258 . S
C339 O332 1.266 . S
Co340 O343 1.970 . S
Co340 N357 1.989 . S
Co340 O365 1.967 . S
Co340 O372 1.920 . S
Co341 O344 1.966 . S
Co341 N350 2.022 . S
Co341 N358 1.993 . S
Co341 O366 1.941 . S
C342 O343 1.258 . S
C342 O344 1.263 . S
O343 Co340 1.970 . S
O343 C342 1.258 . S
O344 Co341 1.966 . S
O344 C342 1.263 . S
C345 O346 1.235 . S
C345 O372 1.289 . S
O346 C345 1.235 . S
C347 C349 1.400 . S
C347 N350 1.351 . S
C347 C352 1.501 . S
C348 C349 1.387 . S
C348 N351 1.341 . S
C349 C347 1.400 . S
C349 C348 1.387 . S
N350 Co341 2.022 . S
N350 C347 1.351 . S
N350 N351 1.365 . S
N351 C348 1.341 . S
N351 N350 1.365 . S
N351 H371 0.862 . S
C352 C347 1.501 . S
C352 H353 0.961 . S
C352 H354 0.961 . S
C352 H355 0.960 . S
H353 C352 0.961 . S
H354 C352 0.961 . S
H355 C352 0.960 . S
C356 N357 1.342 . S
C356 C360 1.401 . S
C356 C361 1.499 . S
N357 Co340 1.989 . S
N357 C356 1.342 . S
N357 N358 1.388 . S
N358 Co341 1.993 . S
N358 N357 1.388 . S
N358 C359 1.346 . S
C359 N358 1.346 . S
C359 C360 1.396 . S
C359 C369 1.510 . S
C360 C356 1.401 . S
C360 C359 1.396 . S
C361 C356 1.499 . S
C361 H362 0.959 . S
C361 H363 0.960 . S
C361 H364 0.961 . S
H362 C361 0.959 . S
H363 C361 0.960 . S
H364 C361 0.961 . S
O365 Co340 1.967 . S
O365 C373 1.258 . S
O366 Co341 1.941 . S
O366 C373 1.266 . S
H367 C369 0.959 . S
H368 C369 0.961 . S
C369 C359 1.510 . S
C369 H367 0.959 . S
C369 H368 0.961 . S
C369 H370 0.960 . S
H370 C369 0.960 . S
H371 N351 0.862 . S
O372 Co340 1.920 . S
O372 C345 1.289 . S
C373 O365 1.258 . S
C373 O366 1.266 . S
Co374 O377 1.970 . S
Co374 N391 1.989 . S
Co374 O399 1.967 . S
Co374 O406 1.920 . S
Co375 O378 1.966 . S
Co375 N384 2.022 . S
Co375 N392 1.993 . S
Co375 O400 1.941 . S
C376 O377 1.258 . S
C376 O378 1.263 . S
O377 Co374 1.970 . S
O377 C376 1.258 . S
O378 Co375 1.966 . S
O378 C376 1.263 . S
C379 O380 1.235 . S
C379 O406 1.289 . S
O380 C379 1.235 . S
C381 C383 1.400 . S
C381 N384 1.351 . S
C381 C386 1.501 . S
C382 C383 1.387 . S
C382 N385 1.341 . S
C383 C381 1.400 . S
C383 C382 1.387 . S
N384 Co375 2.022 . S
N384 C381 1.351 . S
N384 N385 1.365 . S
N385 C382 1.341 . S
N385 N384 1.365 . S
N385 H405 0.862 . S
C386 C381 1.501 . S
C386 H387 0.961 . S
C386 H388 0.961 . S
C386 H389 0.960 . S
H387 C386 0.961 . S
H388 C386 0.961 . S
H389 C386 0.960 . S
C390 N391 1.342 . S
C390 C394 1.401 . S
C390 C395 1.499 . S
N391 Co374 1.989 . S
N391 C390 1.342 . S
N391 N392 1.388 . S
N392 Co375 1.993 . S
N392 N391 1.388 . S
N392 C393 1.346 . S
C393 N392 1.346 . S
C393 C394 1.396 . S
C393 C403 1.510 . S
C394 C390 1.401 . S
C394 C393 1.396 . S
C395 C390 1.499 . S
C395 H396 0.959 . S
C395 H397 0.960 . S
C395 H398 0.961 . S
H396 C395 0.959 . S
H397 C395 0.960 . S
H398 C395 0.961 . S
O399 Co374 1.967 . S
O399 C407 1.258 . S
O400 Co375 1.941 . S
O400 C407 1.266 . S
H401 C403 0.959 . S
H402 C403 0.961 . S
C403 C393 1.510 . S
C403 H401 0.959 . S
C403 H402 0.961 . S
C403 H404 0.960 . S
H404 C403 0.960 . S
H405 N385 0.862 . S
O406 Co374 1.920 . S
O406 C379 1.289 . S
C407 O399 1.258 . S
C407 O400 1.266 . S
H408 C414 0.930 . S
H409 C418 0.930 . S
H410 C423 0.929 . S
H411 C421 0.929 . S
H412 C416 0.929 . S
H413 C422 0.929 . S
C414 H408 0.930 . S
C414 C415 1.367 . S
C414 C422 1.378 . S
C415 C414 1.367 . S
C415 C423 1.433 . S
C416 H412 0.929 . S
C416 C418 1.378 . S
C416 C420 1.350 . S
C417 C420 1.463 . S
C417 C422 1.350 . S
C417 N425 1.427 . S
C418 H409 0.930 . S
C418 C416 1.378 . S
C418 C419 1.367 . S
C419 C418 1.367 . S
C419 C421 1.433 . S
C420 C416 1.350 . S
C420 C417 1.463 . S
C420 N424 1.427 . S
C421 H411 0.929 . S
C421 C419 1.433 . S
C421 N424 1.384 . S
C422 H413 0.929 . S
C422 C414 1.378 . S
C422 C417 1.350 . S
C423 H410 0.929 . S
C423 C415 1.433 . S
C423 N425 1.384 . S
N424 C420 1.427 . S
N424 C421 1.384 . S
N425 C417 1.427 . S
N425 C423 1.384 . S
H426 C432 0.930 . S
H427 C436 0.930 . S
H428 C441 0.929 . S
H429 C439 0.929 . S
H430 C434 0.929 . S
H431 C440 0.929 . S
C432 H426 0.930 . S
C432 C433 1.367 . S
C432 C440 1.378 . S
C433 C432 1.367 . S
C433 C441 1.433 . S
C434 H430 0.929 . S
C434 C436 1.378 . S
C434 C438 1.350 . S
C435 C438 1.463 . S
C435 C440 1.350 . S
C435 N443 1.427 . S
C436 H427 0.930 . S
C436 C434 1.378 . S
C436 C437 1.367 . S
C437 C436 1.367 . S
C437 C439 1.433 . S
C438 C434 1.350 . S
C438 C435 1.463 . S
C438 N442 1.427 . S
C439 H429 0.929 . S
C439 C437 1.433 . S
C439 N442 1.384 . S
C440 H431 0.929 . S
C440 C432 1.378 . S
C440 C435 1.350 . S
C441 H428 0.929 . S
C441 C433 1.433 . S
C441 N443 1.384 . S
N442 C438 1.427 . S
N442 C439 1.384 . S
N443 C435 1.427 . S
N443 C441 1.384 . S
H444 C450 0.930 . S
H445 C454 0.930 . S
H446 C459 0.929 . S
H447 C457 0.929 . S
H448 C452 0.929 . S
H449 C458 0.929 . S
C450 H444 0.930 . S
C450 C451 1.367 . S
C450 C458 1.378 . S
C451 C450 1.367 . S
C451 C459 1.433 . S
C452 H448 0.929 . S
C452 C454 1.378 . S
C452 C456 1.350 . S
C453 C456 1.463 . S
C453 C458 1.350 . S
C453 N461 1.427 . S
C454 H445 0.930 . S
C454 C452 1.378 . S
C454 C455 1.367 . S
C455 C454 1.367 . S
C455 C457 1.433 . S
C456 C452 1.350 . S
C456 C453 1.463 . S
C456 N460 1.427 . S
C457 H447 0.929 . S
C457 C455 1.433 . S
C457 N460 1.384 . S
C458 H449 0.929 . S
C458 C450 1.378 . S
C458 C453 1.350 . S
C459 H446 0.929 . S
C459 C451 1.433 . S
C459 N461 1.384 . S
N460 C456 1.427 . S
N460 C457 1.384 . S
N461 C453 1.427 . S
N461 C459 1.384 . S
H462 C468 0.930 . S
H463 C472 0.930 . S
H464 C477 0.929 . S
H465 C475 0.929 . S
H466 C470 0.929 . S
H467 C476 0.929 . S
C468 H462 0.930 . S
C468 C469 1.367 . S
C468 C476 1.378 . S
C469 C468 1.367 . S
C469 C477 1.433 . S
C470 H466 0.929 . S
C470 C472 1.378 . S
C470 C474 1.350 . S
C471 C474 1.463 . S
C471 C476 1.350 . S
C471 N479 1.427 . S
C472 H463 0.930 . S
C472 C470 1.378 . S
C472 C473 1.367 . S
C473 C472 1.367 . S
C473 C475 1.433 . S
C474 C470 1.350 . S
C474 C471 1.463 . S
C474 N478 1.427 . S
C475 H465 0.929 . S
C475 C473 1.433 . S
C475 N478 1.384 . S
C476 H467 0.929 . S
C476 C468 1.378 . S
C476 C471 1.350 . S
C477 H464 0.929 . S
C477 C469 1.433 . S
C477 N479 1.384 . S
N478 C474 1.427 . S
N478 C475 1.384 . S
N479 C471 1.427 . S
N479 C477 1.384 . S
H480 C486 0.930 . S
H481 C490 0.930 . S
H482 C495 0.929 . S
H483 C493 0.929 . S
H484 C488 0.929 . S
H485 C494 0.929 . S
C486 H480 0.930 . S
C486 C487 1.367 . S
C486 C494 1.378 . S
C487 C486 1.367 . S
C487 C495 1.433 . S
C488 H484 0.929 . S
C488 C490 1.378 . S
C488 C492 1.350 . S
C489 C492 1.463 . S
C489 C494 1.350 . S
C489 N497 1.427 . S
C490 H481 0.930 . S
C490 C488 1.378 . S
C490 C491 1.367 . S
C491 C490 1.367 . S
C491 C493 1.433 . S
C492 C488 1.350 . S
C492 C489 1.463 . S
C492 N496 1.427 . S
C493 H483 0.929 . S
C493 C491 1.433 . S
C493 N496 1.384 . S
C494 H485 0.929 . S
C494 C486 1.378 . S
C494 C489 1.350 . S
C495 H482 0.929 . S
C495 C487 1.433 . S
C495 N497 1.384 . S
N496 C492 1.427 . S
N496 C493 1.384 . S
N497 C489 1.427 . S
N497 C495 1.384 . S
H498 C504 0.930 . S
H499 C508 0.930 . S
H500 C513 0.929 . S
H501 C511 0.929 . S
H502 C506 0.929 . S
H503 C512 0.929 . S
C504 H498 0.930 . S
C504 C505 1.367 . S
C504 C512 1.378 . S
C505 C504 1.367 . S
C505 C513 1.433 . S
C506 H502 0.929 . S
C506 C508 1.378 . S
C506 C510 1.350 . S
C507 C510 1.463 . S
C507 C512 1.350 . S
C507 N515 1.427 . S
C508 H499 0.930 . S
C508 C506 1.378 . S
C508 C509 1.367 . S
C509 C508 1.367 . S
C509 C511 1.433 . S
C510 C506 1.350 . S
C510 C507 1.463 . S
C510 N514 1.427 . S
C511 H501 0.929 . S
C511 C509 1.433 . S
C511 N514 1.384 . S
C512 H503 0.929 . S
C512 C504 1.378 . S
C512 C507 1.350 . S
C513 H500 0.929 . S
C513 C505 1.433 . S
C513 N515 1.384 . S
N514 C510 1.427 . S
N514 C511 1.384 . S
N515 C507 1.427 . S
N515 C513 1.384 . S
H516 C522 0.930 . S
H517 C526 0.930 . S
H518 C531 0.929 . S
H519 C529 0.929 . S
H520 C524 0.929 . S
H521 C530 0.929 . S
C522 H516 0.930 . S
C522 C523 1.367 . S
C522 C530 1.378 . S
C523 C522 1.367 . S
C523 C531 1.433 . S
C524 H520 0.929 . S
C524 C526 1.378 . S
C524 C528 1.350 . S
C525 C528 1.463 . S
C525 C530 1.350 . S
C525 N533 1.427 . S
C526 H517 0.930 . S
C526 C524 1.378 . S
C526 C527 1.367 . S
C527 C526 1.367 . S
C527 C529 1.433 . S
C528 C524 1.350 . S
C528 C525 1.463 . S
C528 N532 1.427 . S
C529 H519 0.929 . S
C529 C527 1.433 . S
C529 N532 1.384 . S
C530 H521 0.929 . S
C530 C522 1.378 . S
C530 C525 1.350 . S
C531 H518 0.929 . S
C531 C523 1.433 . S
C531 N533 1.384 . S
N532 C528 1.427 . S
N532 C529 1.384 . S
N533 C525 1.427 . S
N533 C531 1.384 . S
H534 C540 0.930 . S
H535 C544 0.930 . S
H536 C549 0.929 . S
H537 C547 0.929 . S
H538 C542 0.929 . S
H539 C548 0.929 . S
C540 H534 0.930 . S
C540 C541 1.367 . S
C540 C548 1.378 . S
C541 C540 1.367 . S
C541 C549 1.433 . S
C542 H538 0.929 . S
C542 C544 1.378 . S
C542 C546 1.350 . S
C543 C546 1.463 . S
C543 C548 1.350 . S
C543 N551 1.427 . S
C544 H535 0.930 . S
C544 C542 1.378 . S
C544 C545 1.367 . S
C545 C544 1.367 . S
C545 C547 1.433 . S
C546 C542 1.350 . S
C546 C543 1.463 . S
C546 N550 1.427 . S
C547 H537 0.929 . S
C547 C545 1.433 . S
C547 N550 1.384 . S
C548 H539 0.929 . S
C548 C540 1.378 . S
C548 C543 1.350 . S
C549 H536 0.929 . S
C549 C541 1.433 . S
C549 N551 1.384 . S
N550 C546 1.427 . S
N550 C547 1.384 . S
N551 C543 1.427 . S
N551 C549 1.384 . S
H552 C558 0.930 . S
H553 C562 0.930 . S
H554 C567 0.929 . S
H555 C565 0.929 . S
H556 C560 0.929 . S
H557 C566 0.929 . S
C558 H552 0.930 . S
C558 C559 1.367 . S
C558 C566 1.378 . S
C559 C558 1.367 . S
C559 C567 1.433 . S
C560 H556 0.929 . S
C560 C562 1.378 . S
C560 C564 1.350 . S
C561 C564 1.463 . S
C561 C566 1.350 . S
C561 N569 1.427 . S
C562 H553 0.930 . S
C562 C560 1.378 . S
C562 C563 1.367 . S
C563 C562 1.367 . S
C563 C565 1.433 . S
C564 C560 1.350 . S
C564 C561 1.463 . S
C564 N568 1.427 . S
C565 H555 0.929 . S
C565 C563 1.433 . S
C565 N568 1.384 . S
C566 H557 0.929 . S
C566 C558 1.378 . S
C566 C561 1.350 . S
C567 H554 0.929 . S
C567 C559 1.433 . S
C567 N569 1.384 . S
N568 C564 1.427 . S
N568 C565 1.384 . S
N569 C561 1.427 . S
N569 C567 1.384 . S
H570 C576 0.930 . S
H571 C580 0.930 . S
H572 C585 0.929 . S
H573 C583 0.929 . S
H574 C578 0.929 . S
H575 C584 0.929 . S
C576 H570 0.930 . S
C576 C577 1.367 . S
C576 C584 1.378 . S
C577 C576 1.367 . S
C577 C585 1.433 . S
C578 H574 0.929 . S
C578 C580 1.378 . S
C578 C582 1.350 . S
C579 C582 1.463 . S
C579 C584 1.350 . S
C579 N587 1.427 . S
C580 H571 0.930 . S
C580 C578 1.378 . S
C580 C581 1.367 . S
C581 C580 1.367 . S
C581 C583 1.433 . S
C582 C578 1.350 . S
C582 C579 1.463 . S
C582 N586 1.427 . S
C583 H573 0.929 . S
C583 C581 1.433 . S
C583 N586 1.384 . S
C584 H575 0.929 . S
C584 C576 1.378 . S
C584 C579 1.350 . S
C585 H572 0.929 . S
C585 C577 1.433 . S
C585 N587 1.384 . S
N586 C582 1.427 . S
N586 C583 1.384 . S
N587 C579 1.427 . S
N587 C585 1.384 . S
H588 C594 0.930 . S
H589 C598 0.930 . S
H590 C603 0.929 . S
H591 C601 0.929 . S
H592 C596 0.929 . S
H593 C602 0.929 . S
C594 H588 0.930 . S
C594 C595 1.367 . S
C594 C602 1.378 . S
C595 C594 1.367 . S
C595 C603 1.433 . S
C596 H592 0.929 . S
C596 C598 1.378 . S
C596 C600 1.350 . S
C597 C600 1.463 . S
C597 C602 1.350 . S
C597 N605 1.427 . S
C598 H589 0.930 . S
C598 C596 1.378 . S
C598 C599 1.367 . S
C599 C598 1.367 . S
C599 C601 1.433 . S
C600 C596 1.350 . S
C600 C597 1.463 . S
C600 N604 1.427 . S
C601 H591 0.929 . S
C601 C599 1.433 . S
C601 N604 1.384 . S
C602 H593 0.929 . S
C602 C594 1.378 . S
C602 C597 1.350 . S
C603 H590 0.929 . S
C603 C595 1.433 . S
C603 N605 1.384 . S
N604 C600 1.427 . S
N604 C601 1.384 . S
N605 C597 1.427 . S
N605 C603 1.384 . S
H606 C612 0.930 . S
H607 C616 0.930 . S
H608 C621 0.929 . S
H609 C619 0.929 . S
H610 C614 0.929 . S
H611 C620 0.929 . S
C612 H606 0.930 . S
C612 C613 1.367 . S
C612 C620 1.378 . S
C613 C612 1.367 . S
C613 C621 1.433 . S
C614 H610 0.929 . S
C614 C616 1.378 . S
C614 C618 1.350 . S
C615 C618 1.463 . S
C615 C620 1.350 . S
C615 N623 1.427 . S
C616 H607 0.930 . S
C616 C614 1.378 . S
C616 C617 1.367 . S
C617 C616 1.367 . S
C617 C619 1.433 . S
C618 C614 1.350 . S
C618 C615 1.463 . S
C618 N622 1.427 . S
C619 H609 0.929 . S
C619 C617 1.433 . S
C619 N622 1.384 . S
C620 H611 0.929 . S
C620 C612 1.378 . S
C620 C615 1.350 . S
C621 H608 0.929 . S
C621 C613 1.433 . S
C621 N623 1.384 . S
N622 C618 1.427 . S
N622 C619 1.384 . S
N623 C615 1.427 . S
N623 C621 1.384 . S
H624 C630 0.929 . S
H625 C634 0.928 . S
H626 C639 0.929 . S
H627 C637 0.929 . S
H628 C632 0.929 . S
H629 C638 0.929 . S
C630 H624 0.929 . S
C630 C631 1.367 . S
C630 C638 1.378 1_655 S
C631 C630 1.367 . S
C631 C639 1.433 . S
C632 H628 0.929 . S
C632 C634 1.378 1_655 S
C632 C636 1.350 1_655 S
C633 C636 1.463 1_655 S
C633 C638 1.350 1_655 S
C633 N641 1.427 . S
C634 H625 0.928 . S
C634 C632 1.378 1_455 S
C634 C635 1.367 . S
C635 C634 1.367 . S
C635 C637 1.433 . S
C636 C632 1.350 1_455 S
C636 C633 1.463 1_455 S
C636 N640 1.427 . S
C637 H627 0.929 . S
C637 C635 1.433 . S
C637 N640 1.384 . S
C638 H629 0.929 . S
C638 C630 1.378 1_455 S
C638 C633 1.350 1_455 S
C639 H626 0.929 . S
C639 C631 1.433 . S
C639 N641 1.384 . S
N640 C636 1.427 . S
N640 C637 1.384 . S
N641 C633 1.427 . S
N641 C639 1.384 . S
H642 C648 0.930 . S
H643 C652 0.930 . S
H644 C657 0.929 . S
H645 C655 0.929 . S
H646 C650 0.929 . S
H647 C656 0.929 . S
C648 H642 0.930 . S
C648 C649 1.367 . S
C648 C656 1.378 . S
C649 C648 1.367 . S
C649 C657 1.433 1_565 S
C650 H646 0.929 . S
C650 C652 1.378 . S
C650 C654 1.350 . S
C651 C654 1.463 1_566 S
C651 C656 1.350 . S
C651 N659 1.427 1_565 S
C652 H643 0.930 . S
C652 C650 1.378 . S
C652 C653 1.367 . S
C653 C652 1.367 . S
C653 C655 1.433 1_545 S
C654 C650 1.350 . S
C654 C651 1.463 1_544 S
C654 N658 1.427 1_545 S
C655 H645 0.929 . S
C655 C653 1.433 1_565 S
C655 N658 1.384 . S
C656 H647 0.929 . S
C656 C648 1.378 . S
C656 C651 1.350 . S
C657 H644 0.929 . S
C657 C649 1.433 1_545 S
C657 N659 1.384 . S
N658 C654 1.427 1_565 S
N658 C655 1.384 . S
N659 C651 1.427 1_545 S
N659 C657 1.384 . S
H660 C666 0.930 . S
H661 C670 0.930 . S
H662 C675 0.929 . S
H663 C673 0.929 . S
H664 C668 0.929 . S
H665 C674 0.929 . S
C666 H660 0.930 . S
C666 C667 1.367 . S
C666 C674 1.378 . S
C667 C666 1.367 . S
C667 C675 1.433 . S
C668 H664 0.929 . S
C668 C670 1.378 . S
C668 C672 1.350 . S
C669 C672 1.463 . S
C669 C674 1.350 . S
C669 N677 1.427 . S
C670 H661 0.930 . S
C670 C668 1.378 . S
C670 C671 1.367 . S
C671 C670 1.367 . S
C671 C673 1.433 . S
C672 C668 1.350 . S
C672 C669 1.463 . S
C672 N676 1.427 . S
C673 H663 0.929 . S
C673 C671 1.433 . S
C673 N676 1.384 . S
C674 H665 0.929 . S
C674 C666 1.378 . S
C674 C669 1.350 . S
C675 H662 0.929 . S
C675 C667 1.433 . S
C675 N677 1.384 . S
N676 C672 1.427 . S
N676 C673 1.384 . S
N677 C669 1.427 . S
N677 C675 1.384 . S
H678 C684 0.930 . S
H679 C688 0.930 . S
H680 C693 0.929 . S
H681 C691 0.929 . S
H682 C686 0.929 . S
H683 C692 0.929 . S
C684 H678 0.930 . S
C684 C685 1.367 . S
C684 C692 1.378 . S
C685 C684 1.367 . S
C685 C693 1.433 1_655 S
C686 H682 0.929 . S
C686 C688 1.378 . S
C686 C690 1.350 . S
C687 C690 1.463 1_655 S
C687 C692 1.350 . S
C687 N695 1.427 1_655 S
C688 H679 0.930 . S
C688 C686 1.378 . S
C688 C689 1.367 . S
C689 C688 1.367 . S
C689 C691 1.433 1_455 S
C690 C686 1.350 . S
C690 C687 1.463 1_455 S
C690 N694 1.427 1_455 S
C691 H681 0.929 . S
C691 C689 1.433 1_655 S
C691 N694 1.384 . S
C692 H683 0.929 . S
C692 C684 1.378 . S
C692 C687 1.350 . S
C693 H680 0.929 . S
C693 C685 1.433 1_455 S
C693 N695 1.384 . S
N694 C690 1.427 1_655 S
N694 C691 1.384 . S
N695 C687 1.427 1_455 S
N695 C693 1.384 . S
H696 C702 0.930 . S
H697 C706 0.930 . S
H698 C711 0.929 . S
H699 C709 0.929 . S
H700 C704 0.929 . S
H701 C710 0.929 . S
C702 H696 0.930 . S
C702 C703 1.367 . S
C702 C710 1.378 . S
C703 C702 1.367 . S
C703 C711 1.433 1_565 S
C704 H700 0.929 . S
C704 C706 1.378 . S
C704 C708 1.350 . S
C705 C708 1.463 1_565 S
C705 C710 1.350 . S
C705 N713 1.427 1_565 S
C706 H697 0.930 . S
C706 C704 1.378 . S
C706 C707 1.367 . S
C707 C706 1.367 . S
C707 C709 1.433 1_545 S
C708 C704 1.350 . S
C708 C705 1.463 1_545 S
C708 N712 1.427 1_545 S
C709 H699 0.929 . S
C709 C707 1.433 1_565 S
C709 N712 1.384 . S
C710 H701 0.929 . S
C710 C702 1.378 . S
C710 C705 1.350 . S
C711 H698 0.929 . S
C711 C703 1.433 1_545 S
C711 N713 1.384 . S
N712 C708 1.427 1_565 S
N712 C709 1.384 . S
N713 C705 1.427 1_545 S
N713 C711 1.384 . S
H714 C720 0.930 . S
H715 C724 0.930 . S
H716 C729 0.929 . S
H717 C727 0.929 . S
H718 C722 0.929 . S
H719 C728 0.929 . S
C720 H714 0.930 . S
C720 C721 1.367 . S
C720 C728 1.378 . S
C721 C720 1.367 . S
C721 C729 1.433 . S
C722 H718 0.929 . S
C722 C724 1.378 . S
C722 C726 1.350 . S
C723 C726 1.463 . S
C723 C728 1.350 . S
C723 N731 1.427 . S
C724 H715 0.930 . S
C724 C722 1.378 . S
C724 C725 1.367 . S
C725 C724 1.367 . S
C725 C727 1.433 . S
C726 C722 1.350 . S
C726 C723 1.463 . S
C726 N730 1.427 . S
C727 H717 0.929 . S
C727 C725 1.433 . S
C727 N730 1.384 . S
C728 H719 0.929 . S
C728 C720 1.378 . S
C728 C723 1.350 . S
C729 H716 0.929 . S
C729 C721 1.433 . S
C729 N731 1.384 . S
N730 C726 1.427 . S
N730 C727 1.384 . S
N731 C723 1.427 . S
N731 C729 1.384 . S
H732 C738 0.930 . S
H733 C742 0.930 . S
H734 C747 0.929 . S
H735 C745 0.938 . S
H736 C740 0.929 . S
H737 C746 0.929 . S
C738 H732 0.930 . S
C738 C739 1.367 . S
C738 C746 1.378 . S
C739 C738 1.367 . S
C739 C747 1.433 . S
C740 H736 0.929 . S
C740 C742 1.378 . S
C740 C744 1.350 . S
C741 C744 1.463 . S
C741 C746 1.350 . S
C741 N749 1.427 . S
C742 H733 0.930 . S
C742 C740 1.378 . S
C742 C743 1.367 . S
C743 C742 1.367 . S
C743 C745 1.433 . S
C744 C740 1.350 . S
C744 C741 1.463 . S
C744 N748 1.427 . S
C745 H735 0.938 . S
C745 C743 1.433 . S
C745 N748 1.384 . S
C746 H737 0.929 . S
C746 C738 1.378 . S
C746 C741 1.350 . S
C747 H734 0.929 . S
C747 C739 1.433 . S
C747 N749 1.384 . S
N748 C744 1.427 . S
N748 C745 1.384 . S
N749 C741 1.427 . S
N749 C747 1.384 . S
H750 C756 0.930 . S
H751 C760 0.930 . S
H752 C765 0.929 . S
H753 C763 0.929 . S
H754 C758 0.929 . S
H755 C764 0.929 . S
C756 H750 0.930 . S
C756 C757 1.367 . S
C756 C764 1.378 . S
C757 C756 1.367 . S
C757 C765 1.433 . S
C758 H754 0.929 . S
C758 C760 1.378 . S
C758 C762 1.350 . S
C759 C762 1.463 . S
C759 C764 1.350 . S
C759 N767 1.427 . S
C760 H751 0.930 . S
C760 C758 1.378 . S
C760 C761 1.367 . S
C761 C760 1.367 . S
C761 C763 1.433 . S
C762 C758 1.350 . S
C762 C759 1.463 . S
C762 N766 1.427 . S
C763 H753 0.929 . S
C763 C761 1.433 . S
C763 N766 1.384 . S
C764 H755 0.929 . S
C764 C756 1.378 . S
C764 C759 1.350 . S
C765 H752 0.929 . S
C765 C757 1.433 . S
C765 N767 1.384 . S
N766 C762 1.427 . S
N766 C763 1.384 . S
N767 C759 1.427 . S
N767 C765 1.384 . S
H768 C774 0.930 . S
H769 C778 0.930 . S
H770 C783 0.929 . S
H771 C781 0.929 . S
H772 C776 0.929 . S
H773 C782 0.929 . S
C774 H768 0.930 . S
C774 C775 1.367 . S
C774 C782 1.378 . S
C775 C774 1.367 . S
C775 C783 1.433 . S
C776 H772 0.929 . S
C776 C778 1.378 . S
C776 C780 1.350 . S
C777 C780 1.463 . S
C777 C782 1.350 . S
C777 N785 1.427 . S
C778 H769 0.930 . S
C778 C776 1.378 . S
C778 C779 1.367 . S
C779 C778 1.367 . S
C779 C781 1.433 . S
C780 C776 1.350 . S
C780 C777 1.463 . S
C780 N784 1.427 . S
C781 H771 0.929 . S
C781 C779 1.433 . S
C781 N784 1.384 . S
C782 H773 0.929 . S
C782 C774 1.378 . S
C782 C777 1.350 . S
C783 H770 0.929 . S
C783 C775 1.433 . S
C783 N785 1.384 . S
N784 C780 1.427 . S
N784 C781 1.384 . S
N785 C777 1.427 . S
N785 C783 1.384 . S
H786 C792 0.930 . S
H787 C796 0.930 . S
H788 C801 0.929 . S
H789 C799 0.929 . S
H790 C794 0.929 . S
H791 C800 0.929 . S
C792 H786 0.930 . S
C792 C793 1.367 . S
C792 C800 1.378 . S
C793 C792 1.367 . S
C793 C801 1.433 . S
C794 H790 0.929 . S
C794 C796 1.378 . S
C794 C798 1.350 . S
C795 C798 1.463 . S
C795 C800 1.350 . S
C795 N803 1.427 . S
C796 H787 0.930 . S
C796 C794 1.378 . S
C796 C797 1.367 . S
C797 C796 1.367 . S
C797 C799 1.433 . S
C798 C794 1.350 . S
C798 C795 1.463 . S
C798 N802 1.427 . S
C799 H789 0.929 . S
C799 C797 1.433 . S
C799 N802 1.384 . S
C800 H791 0.929 . S
C800 C792 1.378 . S
C800 C795 1.350 . S
C801 H788 0.929 . S
C801 C793 1.433 . S
C801 N803 1.384 . S
N802 C798 1.427 . S
N802 C799 1.384 . S
N803 C795 1.427 . S
N803 C801 1.384 . S
H804 C810 0.930 . S
H805 C814 0.930 . S
H806 C819 0.929 . S
H807 C817 0.929 . S
H808 C812 0.929 . S
H809 C818 0.929 . S
C810 H804 0.930 . S
C810 C811 1.367 . S
C810 C818 1.378 . S
C811 C810 1.367 . S
C811 C819 1.433 . S
C812 H808 0.929 . S
C812 C814 1.378 . S
C812 C816 1.350 . S
C813 C816 1.463 . S
C813 C818 1.350 . S
C813 N821 1.427 . S
C814 H805 0.930 . S
C814 C812 1.378 . S
C814 C815 1.367 . S
C815 C814 1.367 . S
C815 C817 1.433 . S
C816 C812 1.350 . S
C816 C813 1.463 . S
C816 N820 1.427 . S
C817 H807 0.929 . S
C817 C815 1.433 . S
C817 N820 1.384 . S
C818 H809 0.929 . S
C818 C810 1.378 . S
C818 C813 1.350 . S
C819 H806 0.929 . S
C819 C811 1.433 . S
C819 N821 1.384 . S
N820 C816 1.427 . S
N820 C817 1.384 . S
N821 C813 1.427 . S
N821 C819 1.384 . S
H822 C828 0.930 . S
H823 C832 0.930 . S
H824 C837 0.929 . S
H825 C835 0.929 . S
H826 C830 0.929 . S
H827 C836 0.929 . S
C828 H822 0.930 . S
C828 C829 1.367 . S
C828 C836 1.378 . S
C829 C828 1.367 . S
C829 C837 1.433 . S
C830 H826 0.929 . S
C830 C832 1.378 . S
C830 C834 1.350 . S
C831 C834 1.463 . S
C831 C836 1.350 . S
C831 N839 1.427 . S
C832 H823 0.930 . S
C832 C830 1.378 . S
C832 C833 1.367 . S
C833 C832 1.367 . S
C833 C835 1.433 . S
C834 C830 1.350 . S
C834 C831 1.463 . S
C834 N838 1.427 . S
C835 H825 0.929 . S
C835 C833 1.433 . S
C835 N838 1.384 . S
C836 H827 0.929 . S
C836 C828 1.378 . S
C836 C831 1.350 . S
C837 H824 0.929 . S
C837 C829 1.433 . S
C837 N839 1.384 . S
N838 C834 1.427 . S
N838 C835 1.384 . S
N839 C831 1.427 . S
N839 C837 1.384 . S
H840 C846 0.930 . S
H841 C850 0.930 . S
H842 C855 0.929 . S
H843 C853 0.929 . S
H844 C848 0.929 . S
H845 C854 0.929 . S
C846 H840 0.930 . S
C846 C847 1.367 . S
C846 C854 1.378 . S
C847 C846 1.367 . S
C847 C855 1.433 . S
C848 H844 0.929 . S
C848 C850 1.378 . S
C848 C852 1.350 . S
C849 C852 1.463 . S
C849 C854 1.350 . S
C849 N857 1.427 . S
C850 H841 0.930 . S
C850 C848 1.378 . S
C850 C851 1.367 . S
C851 C850 1.367 . S
C851 C853 1.433 . S
C852 C848 1.350 . S
C852 C849 1.463 . S
C852 N856 1.427 . S
C853 H843 0.929 . S
C853 C851 1.433 . S
C853 N856 1.384 . S
C854 H845 0.929 . S
C854 C846 1.378 . S
C854 C849 1.350 . S
C855 H842 0.929 . S
C855 C847 1.433 . S
C855 N857 1.384 . S
N856 C852 1.427 . S
N856 C853 1.384 . S
N857 C849 1.427 . S
N857 C855 1.384 . S
H858 C864 0.930 . S
H859 C868 0.930 . S
H860 C873 0.929 . S
H861 C871 0.929 . S
H862 C866 0.929 . S
H863 C872 0.929 1_556 S
C864 H858 0.930 . S
C864 C865 1.367 1_556 S
C864 C872 1.378 1_556 S
C865 C864 1.367 1_554 S
C865 C873 1.433 . S
C866 H862 0.929 . S
C866 C868 1.378 . S
C866 C870 1.350 . S
C867 C870 1.463 . S
C867 C872 1.350 . S
C867 N875 1.427 . S
C868 H859 0.930 . S
C868 C866 1.378 . S
C868 C869 1.367 . S
C869 C868 1.367 . S
C869 C871 1.433 . S
C870 C866 1.350 . S
C870 C867 1.463 . S
C870 N874 1.427 . S
C871 H861 0.929 . S
C871 C869 1.433 . S
C871 N874 1.384 . S
C872 H863 0.929 1_554 S
C872 C864 1.378 1_554 S
C872 C867 1.350 . S
C873 H860 0.929 . S
C873 C865 1.433 . S
C873 N875 1.384 . S
N874 C870 1.427 . S
N874 C871 1.384 . S
N875 C867 1.427 . S
N875 C873 1.384 . S
H876 C882 0.930 . S
H877 C886 0.930 . S
H878 C891 0.929 . S
H879 C889 0.929 . S
H880 C884 0.929 . S
H881 C890 0.929 . S
C882 H876 0.930 . S
C882 C883 1.367 . S
C882 C890 1.378 . S
C883 C882 1.367 . S
C883 C891 1.433 . S
C884 H880 0.929 . S
C884 C886 1.378 . S
C884 C888 1.350 . S
C885 C888 1.463 . S
C885 C890 1.350 . S
C885 N893 1.427 . S
C886 H877 0.930 . S
C886 C884 1.378 . S
C886 C887 1.367 . S
C887 C886 1.367 . S
C887 C889 1.433 . S
C888 C884 1.350 . S
C888 C885 1.463 . S
C888 N892 1.427 . S
C889 H879 0.929 . S
C889 C887 1.433 . S
C889 N892 1.384 . S
C890 H881 0.929 . S
C890 C882 1.378 . S
C890 C885 1.350 . S
C891 H878 0.929 . S
C891 C883 1.433 . S
C891 N893 1.384 . S
N892 C888 1.427 . S
N892 C889 1.384 . S
N893 C885 1.427 . S
N893 C891 1.384 . S
H894 C900 0.930 . S
H895 C904 0.930 . S
H896 C909 0.929 . S
H897 C907 0.929 . S
H898 C902 0.929 . S
H899 C908 0.929 . S
C900 H894 0.930 . S
C900 C901 1.367 . S
C900 C908 1.378 . S
C901 C900 1.367 . S
C901 C909 1.433 . S
C902 H898 0.929 . S
C902 C904 1.378 . S
C902 C906 1.350 . S
C903 C906 1.463 . S
C903 C908 1.350 . S
C903 N911 1.427 . S
C904 H895 0.930 . S
C904 C902 1.378 . S
C904 C905 1.367 . S
C905 C904 1.367 . S
C905 C907 1.433 . S
C906 C902 1.350 . S
C906 C903 1.463 . S
C906 N910 1.427 . S
C907 H897 0.929 . S
C907 C905 1.433 . S
C907 N910 1.384 . S
C908 H899 0.929 . S
C908 C900 1.378 . S
C908 C903 1.350 . S
C909 H896 0.929 . S
C909 C901 1.433 . S
C909 N911 1.384 . S
N910 C906 1.427 . S
N910 C907 1.384 . S
N911 C903 1.427 . S
N911 C909 1.384 . S
H912 C918 0.930 . S
H913 C922 0.930 . S
H914 C927 0.929 . S
H915 C925 0.929 . S
H916 C920 0.929 . S
H917 C926 0.929 . S
C918 H912 0.930 . S
C918 C919 1.367 . S
C918 C926 1.378 . S
C919 C918 1.367 . S
C919 C927 1.433 . S
C920 H916 0.929 . S
C920 C922 1.378 . S
C920 C924 1.350 . S
C921 C924 1.463 . S
C921 C926 1.350 . S
C921 N929 1.427 . S
C922 H913 0.930 . S
C922 C920 1.378 . S
C922 C923 1.367 . S
C923 C922 1.367 . S
C923 C925 1.433 . S
C924 C920 1.350 . S
C924 C921 1.463 . S
C924 N928 1.427 . S
C925 H915 0.929 . S
C925 C923 1.433 . S
C925 N928 1.384 . S
C926 H917 0.929 . S
C926 C918 1.378 . S
C926 C921 1.350 . S
C927 H914 0.929 . S
C927 C919 1.433 . S
C927 N929 1.384 . S
N928 C924 1.427 . S
N928 C925 1.384 . S
N929 C921 1.427 . S
N929 C927 1.384 . S
H930 C936 0.930 . S
H931 C940 0.930 . S
H932 C945 0.929 . S
H933 C943 0.929 . S
H934 C938 0.929 . S
H935 C944 0.929 . S
C936 H930 0.930 . S
C936 C937 1.367 . S
C936 C944 1.378 . S
C937 C936 1.367 . S
C937 C945 1.433 . S
C938 H934 0.929 . S
C938 C940 1.378 . S
C938 C942 1.350 . S
C939 C942 1.463 . S
C939 C944 1.350 . S
C939 N947 1.427 . S
C940 H931 0.930 . S
C940 C938 1.378 . S
C940 C941 1.367 . S
C941 C940 1.367 . S
C941 C943 1.433 . S
C942 C938 1.350 . S
C942 C939 1.463 . S
C942 N946 1.427 . S
C943 H933 0.929 . S
C943 C941 1.433 . S
C943 N946 1.384 . S
C944 H935 0.929 . S
C944 C936 1.378 . S
C944 C939 1.350 . S
C945 H932 0.929 . S
C945 C937 1.433 . S
C945 N947 1.384 . S
N946 C942 1.427 . S
N946 C943 1.384 . S
N947 C939 1.427 . S
N947 C945 1.384 . S
C415 C349 0.903 . S
C419 C9 0.902 . S
C433 C43 0.915 . S
C437 C383 0.890 . S
C451 C77 0.915 . S
C455 C213 0.890 . S
C469 C111 0.913 . S
C473 C247 0.892 . S
C487 C145 0.890 . S
C491 C281 0.915 1_556 S
C505 C179 0.915 1_554 S
C509 C315 0.890 . S
C523 C33 1.324 . S
C527 C305 1.325 . S
C541 C339 1.321 . S
C545 C67 1.322 . S
C559 C101 1.324 . S
C563 C373 1.324 . S
C577 C135 1.319 . S
C581 C407 1.319 . S
C595 C169 1.317 . S
C599 C237 1.317 . S
C613 C203 1.323 . S
C617 C271 1.324 . S
C631 C379 1.567 . S
C635 C5 1.574 . S
C649 C209 1.566 . S
C653 C39 1.571 . S
C667 C243 1.566 . S
C671 C73 1.574 . S
C685 C107 1.568 . S
C689 C277 1.568 . S
C703 C141 1.565 . S
C707 C311 1.572 . S
C721 C345 1.574 . S
C725 C175 1.568 . S
C739 C172 2.069 . S
C743 C20 2.049 1_556 S
C757 C2 2.069 1_655 S
C761 C54 2.049 . S
C775 C88 2.049 . S
C779 C36 2.069 1_565 S
C793 C70 2.069 . S
C797 C122 2.049 . S
C811 C156 2.051 . S
C815 C104 2.068 1_455 S
C829 C190 2.053 . S
C833 C138 2.067 1_545 S
C847 C240 2.068 . S
C851 C224 2.054 . S
C865 C258 2.051 1_554 S
C869 C274 2.068 1_655 S
C883 C292 2.053 . S
C887 C308 2.068 1_565 S
C901 C342 2.067 . S
C905 C326 2.053 . S
C919 C376 2.068 1_455 S
C923 C360 2.053 . S
C937 C394 2.055 . S
C941 C206 2.067 1_545 S
