# Generated by pormake.
# Topology uni, (4)-cn, num edge types: 1
# Building blocks:
#     Node 0, Type 0, BuildingBlock: AZAVOO_clean_sbu_0, # of connection points: 4
#     Node 1, Type 0, BuildingBlock: AZAVOO_clean_sbu_0, # of connection points: 4
#     Node 2, Type 0, BuildingBlock: AZAVOO_clean_sbu_0, # of connection points: 4
#     Node 3, Type 0, BuildingBlock: AZAVOO_clean_sbu_0, # of connection points: 4
#     Node 4, Type 0, BuildingBlock: AZAVOO_clean_sbu_0, # of connection points: 4
#     Node 5, Type 0, BuildingBlock: AZAVOO_clean_sbu_0, # of connection points: 4
#     Edge 6, Type (0, 0), BuildingBlock: XUDNAN_clean_linker_2, # of connection points: 2
#     Edge 7, Type (0, 0), BuildingBlock: XUDNAN_clean_linker_2, # of connection points: 2
#     Edge 8, Type (0, 0), BuildingBlock: XUDNAN_clean_linker_2, # of connection points: 2
#     Edge 9, Type (0, 0), BuildingBlock: XUDNAN_clean_linker_2, # of connection points: 2
#     Edge 10, Type (0, 0), BuildingBlock: XUDNAN_clean_linker_2, # of connection points: 2
#     Edge 11, Type (0, 0), BuildingBlock: XUDNAN_clean_linker_2, # of connection points: 2
#     Edge 12, Type (0, 0), BuildingBlock: XUDNAN_clean_linker_2, # of connection points: 2
#     Edge 13, Type (0, 0), BuildingBlock: XUDNAN_clean_linker_2, # of connection points: 2
#     Edge 14, Type (0, 0), BuildingBlock: XUDNAN_clean_linker_2, # of connection points: 2
#     Edge 15, Type (0, 0), BuildingBlock: XUDNAN_clean_linker_2, # of connection points: 2
#     Edge 16, Type (0, 0), BuildingBlock: XUDNAN_clean_linker_2, # of connection points: 2
#     Edge 17, Type (0, 0), BuildingBlock: XUDNAN_clean_linker_2, # of connection points: 2
# Relax obj value: 0.054
# Max RMSD: 0.095
# Mean RMSD: 0.095
data_MOF--net-uni--node1-AZAVOO_clean_sbu_0--edge1-XUDNAN_clean_linker_2
_symmetry_space_group_name_H-M    P1
_symmetry_Int_Tables_number       1
_symmetry_cell_setting            triclinic
loop_
_symmetry_equiv_pos_as_xyz
'x, y, z'
_cell_length_a     39.934207
_cell_length_b     40.071421
_cell_length_c     21.802544
_cell_angle_alpha  89.83981
_cell_angle_beta   90.071918
_cell_angle_gamma 120.09006
loop_
_atom_site_label
_atom_site_type_symbol
_atom_site_fract_x
_atom_site_fract_y
_atom_site_fract_z
_atom_type_partial_charge
Mg0 Mg 0.63659 0.01992 0.03365 0.0
O1 O 0.61008 0.03454 0.1153 0.0
O2 O 0.59998 0.08197 0.08334 0.0
Mg3 Mg 0.61422 0.09317 0.98118 0.0
C4 C 0.59933 0.05918 0.12493 0.0
C5 C 0.65078 0.95716 0.06432 0.0
O6 O 0.63941 0.95402 0.00697 0.0
O7 O 0.69353 0.07632 0.04474 0.0
O8 O 0.67876 0.11883 0.00503 0.0
O9 O 0.57835 0.97453 0.00371 0.0
O10 O 0.60619 0.03494 0.97189 0.0
C11 C 0.70317 0.11058 0.02821 0.0
C12 C 0.57643 0.00064 0.97139 0.0
O13 O 0.65574 0.9863 0.09471 0.0
Mg14 Mg 0.65083 0.64285 0.18583 0.0
O15 O 0.60222 0.61269 0.25683 0.0
O16 O 0.54774 0.60379 0.21242 0.0
Mg17 Mg 0.55969 0.62102 0.11133 0.0
C18 C 0.56619 0.60162 0.25868 0.0
C19 C 0.69635 0.63145 0.2887 0.0
O20 O 0.66746 0.59635 0.27915 0.0
O21 O 0.64946 0.6993 0.19572 0.0
O22 O 0.59671 0.68396 0.13977 0.0
O23 O 0.64187 0.58633 0.15123 0.0
O24 O 0.61131 0.61516 0.115 0.0
C25 C 0.62644 0.70844 0.1697 0.0
C26 C 0.6165 0.58599 0.11391 0.0
O27 O 0.69691 0.6593 0.25973 0.0
Mg28 Mg 0.01787 0.64813 0.34776 0.0
O29 O 0.01155 0.60944 0.42902 0.0
O30 O 0.96612 0.5489 0.40801 0.0
Mg31 Mg 0.94367 0.5493 0.31138 0.0
C32 C 0.99146 0.57396 0.44394 0.0
C33 C 0.05006 0.72659 0.42952 0.0
O34 O 0.01745 0.72621 0.41935 0.0
O35 O 0.96186 0.64632 0.37302 0.0
O36 O 0.9179 0.58639 0.34523 0.0
O37 O 0.06163 0.6366 0.30829 0.0
O38 O -0.00083 0.60124 0.28736 0.0
C39 C 0.92675 0.6196 0.3663 0.0
C40 C 0.03377 0.60676 0.28164 0.0
O41 O 0.05514 0.70014 0.40749 0.0
Mg42 Mg 0.38016 0.02111 0.53825 0.0
O43 O 0.40485 0.00086 0.61513 0.0
O44 O 0.4102 0.95152 0.57913 0.0
Mg45 Mg 0.3934 0.94374 0.47754 0.0
C46 C 0.41338 0.9744 0.62227 0.0
C47 C 0.39273 0.0796 0.63897 0.0
O48 O 0.42732 0.08352 0.6341 0.0
O49 O 0.32094 0.96769 0.54837 0.0
O50 O 0.32995 0.92244 0.50463 0.0
O51 O 0.43941 0.06371 0.50813 0.0
O52 O 0.40667 0.00423 0.47237 0.0
C53 C 0.30806 0.93316 0.53013 0.0
C54 C 0.4384 0.03705 0.47346 0.0
O55 O 0.36524 0.05405 0.60704 0.0
Mg56 Mg 0.38932 0.39305 0.69226 0.0
O57 O 0.44129 0.42349 0.75707 0.0
O58 O 0.49321 0.42845 0.70942 0.0
Mg59 Mg 0.47508 0.40428 0.61281 0.0
C60 C 0.47708 0.43343 0.75624 0.0
C61 C 0.31332 0.35606 0.76977 0.0
O62 O 0.3015 0.33214 0.7231 0.0
O63 O 0.38729 0.33621 0.70972 0.0
O64 O 0.43902 0.34446 0.65727 0.0
O65 O 0.40102 0.44909 0.65336 0.0
O66 O 0.42617 0.41513 0.61656 0.0
C67 C 0.40938 0.32395 0.69082 0.0
C68 C 0.42389 0.4461 0.61455 0.0
O69 O 0.34841 0.38302 0.77155 0.0
Mg70 Mg 0.02529 0.386 0.85782 0.0
O71 O 0.03745 0.42807 0.93792 0.0
O72 O 0.09144 0.4831 0.91344 0.0
Mg73 Mg 0.11098 0.47836 0.81748 0.0
C74 C 0.0639 0.46249 0.9504 0.0
C75 C 0.95302 0.3351 0.93625 0.0
O76 O 0.94855 0.36472 0.92368 0.0
O77 O 0.07625 0.37846 0.88621 0.0
O78 O 0.12679 0.43497 0.85691 0.0
O79 O 0.9884 0.40558 0.81063 0.0
O80 O 0.05158 0.43251 0.79759 0.0
C81 C 0.11261 0.40133 0.88035 0.0
C82 C 0.01996 0.43254 0.78614 0.0
O83 O 0.98317 0.33531 0.9171 0.0
H84 H 0.5424 0.00048 0.1916 0.0
H85 H 0.62328 0.12349 0.19346 0.0
H86 H 0.59611 0.12903 0.2923 0.0
H87 H 0.4637 0.00805 0.24051 0.0
H88 H 0.4416 0.96458 0.28604 0.0
H89 H 0.47182 0.96885 0.22197 0.0
H90 H 0.51492 0.95431 0.29332 0.0
H91 H 0.48474 0.95 0.35778 0.0
H92 H 0.5361 0.98337 0.36072 0.0
H93 H 0.55732 0.12235 0.38518 0.0
H94 H 0.50557 0.10559 0.46088 0.0
H95 H 0.44615 0.98742 0.39529 0.0
C96 C 0.55498 0.02828 0.214 0.0
C97 C 0.58531 0.06151 0.18611 0.0
C98 C 0.60028 0.09777 0.21492 0.0
C99 C 0.58519 0.1011 0.27104 0.0
C100 C 0.55479 0.06793 0.29711 0.0
C101 C 0.53955 0.03224 0.26935 0.0
C102 C 0.50369 0.00221 0.30278 0.0
C103 C 0.46811 0.98493 0.2603 0.0
C104 C 0.51027 0.9706 0.33029 0.0
C105 C 0.50059 0.02684 0.35258 0.0
C106 C 0.53093 0.06441 0.34931 0.0
C107 C 0.53359 0.09296 0.38859 0.0
C108 C 0.50398 0.08311 0.43145 0.0
C109 C 0.47177 0.04517 0.43406 0.0
C110 C 0.47054 0.01656 0.39482 0.0
H111 H 0.56939 0.54905 0.33493 0.0
H112 H 0.51398 0.61754 0.31039 0.0
H113 H 0.4758 0.58919 0.40493 0.0
H114 H 0.48387 0.46446 0.38045 0.0
H115 H 0.50741 0.44887 0.43457 0.0
H116 H 0.53386 0.47798 0.36966 0.0
H117 H 0.586 0.52814 0.44258 0.0
H118 H 0.55964 0.49915 0.50781 0.0
H119 H 0.57168 0.54887 0.50324 0.0
H120 H 0.44267 0.55244 0.4999 0.0
H121 H 0.41146 0.50484 0.58303 0.0
H122 H 0.48437 0.45611 0.54098 0.0
C123 C 0.5497 0.5585 0.35031 0.0
C124 C 0.54484 0.58578 0.31629 0.0
C125 C 0.5181 0.59677 0.33634 0.0
C126 C 0.4965 0.581 0.38999 0.0
C127 C 0.50161 0.55384 0.42235 0.0
C128 C 0.52716 0.54226 0.40293 0.0
C129 C 0.5243 0.50983 0.44264 0.0
C130 C 0.51159 0.47312 0.40455 0.0
C131 C 0.56269 0.52225 0.47606 0.0
C132 C 0.49295 0.50481 0.48707 0.0
C133 C 0.48084 0.53101 0.47525 0.0
C134 C 0.45193 0.53181 0.50969 0.0
C135 C 0.43443 0.50468 0.5569 0.0
C136 C 0.44542 0.47669 0.56854 0.0
C137 C 0.47534 0.4771 0.5334 0.0
H138 H 0.96411 0.42217 0.70429 0.0
H139 H 0.07551 0.50859 0.77597 0.0
H140 H 0.07737 0.55609 0.70154 0.0
H141 H 0.98738 0.44696 0.55011 0.0
H142 H 0.94013 0.43795 0.52753 0.0
H143 H 0.945 0.41233 0.59162 0.0
H144 H 0.90897 0.4364 0.66135 0.0
H145 H 0.90384 0.46203 0.5973 0.0
H146 H 0.92646 0.48741 0.66708 0.0
H147 H 0.06892 0.59279 0.61566 0.0
H148 H 0.05289 0.61529 0.52071 0.0
H149 H 0.94823 0.50386 0.50145 0.0
C150 C 0.98842 0.45138 0.70514 0.0
C151 C 0.01962 0.46191 0.74587 0.0
C152 C 0.05148 0.49997 0.74481 0.0
C153 C 0.05262 0.52719 0.70304 0.0
C154 C 0.02177 0.5157 0.66248 0.0
C155 C 0.99031 0.47866 0.663 0.0
C156 C 0.96271 0.47266 0.61092 0.0
C157 C 0.95859 0.44058 0.56749 0.0
C158 C 0.92316 0.46413 0.63566 0.0
C159 C 0.98394 0.51186 0.58033 0.0
C160 C 0.01757 0.53646 0.61145 0.0
C161 C 0.04254 0.57389 0.5911 0.0
C162 C 0.03314 0.58638 0.53707 0.0
C163 C -0.00069 0.56133 0.50346 0.0
C164 C 0.97428 0.52372 0.526 0.0
H165 H 0.56173 0.04875 0.90007 0.0
H166 H 0.51541 0.92866 0.95079 0.0
H167 H 0.46445 0.90931 0.87274 0.0
H168 H 0.46541 0.04003 0.86535 0.0
H169 H 0.48516 0.07356 0.80225 0.0
H170 H 0.51512 0.07849 0.86746 0.0
H171 H 0.56529 0.07617 0.79506 0.0
H172 H 0.53541 0.07084 0.72984 0.0
H173 H 0.55002 0.03565 0.74423 0.0
H174 H 0.42605 0.90204 0.77865 0.0
H175 H 0.39758 0.90815 0.68137 0.0
H176 H 0.46479 0.03273 0.69572 0.0
C177 C 0.54024 0.01851 0.89593 0.0
C178 C 0.5426 0.99025 0.93158 0.0
C179 C 0.51415 0.95088 0.92423 0.0
C180 C 0.48505 0.93955 0.87995 0.0
C181 C 0.48427 0.96796 0.84416 0.0
C182 C 0.51056 0.0067 0.85246 0.0
C183 C 0.50444 0.03119 0.80565 0.0
C184 C 0.49177 0.05736 0.83706 0.0
C185 C 0.54096 0.05483 0.76639 0.0
C186 C 0.47178 3e-05 0.76823 0.0
C187 C 0.46057 0.96375 0.79129 0.0
C188 C 0.43377 0.93027 0.76104 0.0
C189 C 0.41795 0.93398 0.70576 0.0
C190 C 0.42862 0.97084 0.68193 0.0
C191 C 0.45546 0.00423 0.714 0.0
H192 H 0.54898 0.56599 0.05268 0.0
H193 H 0.63896 0.53615 0.07189 0.0
H194 H 0.6108 0.49068 0.98529 0.0
H195 H 0.47078 0.46801 0.00971 0.0
H196 H 0.44943 0.48687 0.95718 0.0
H197 H 0.47463 0.51407 0.02431 0.0
H198 H 0.51882 0.5726 0.95531 0.0
H199 H 0.49417 0.54551 0.88799 0.0
H200 H 0.54591 0.56676 0.89434 0.0
H201 H 0.57837 0.45584 0.88802 0.0
H202 H 0.5391 0.42776 0.79458 0.0
H203 H 0.46806 0.47749 0.84298 0.0
C204 C 0.5624 0.54945 0.03954 0.0
C205 C 0.59624 0.55471 0.06886 0.0
C206 C 0.61284 0.53235 0.05027 0.0
C207 C 0.59715 0.50658 0.00102 0.0
C208 C 0.56444 0.50301 0.97183 0.0
C209 C 0.54675 0.52321 0.99124 0.0
C210 C 0.51256 0.51504 0.95101 0.0
C211 C 0.4746 0.49478 0.98775 0.0
C212 C 0.51823 0.55219 0.92036 0.0
C213 C 0.51457 0.48812 0.90461 0.0
C214 C 0.54475 0.48161 0.91732 0.0
C215 C 0.55417 0.46007 0.87829 0.0
C216 C 0.53193 0.44451 0.82516 0.0
C217 C 0.50044 0.45025 0.812 0.0
C218 C 0.49158 0.47213 0.85253 0.0
H219 H 0.00281 0.46208 0.00862 0.0
H220 H 0.1254 0.50208 0.02497 0.0
H221 H 0.12811 0.53592 0.12084 0.0
H222 H 0.0104 0.54908 0.05092 0.0
H223 H 0.96543 0.52879 0.09265 0.0
H224 H 0.97105 0.5018 0.03175 0.0
H225 H 0.95308 0.44484 0.10636 0.0
H226 H 0.94733 0.4717 0.16762 0.0
H227 H 0.97988 0.45315 0.1767 0.0
H228 H 0.11974 0.57035 0.20723 0.0
H229 H 0.10202 0.60727 0.27655 0.0
H230 H 0.98511 0.54833 0.20342 0.0
C231 C 0.02985 0.47709 0.03361 0.0
C232 C 0.06383 0.4792 0.01032 0.0
C233 C 0.09909 0.50007 0.04262 0.0
C234 C 0.10083 0.51914 0.09717 0.0
C235 C 0.06709 0.51732 0.11846 0.0
C236 C 0.03225 0.49704 0.08771 0.0
C237 C 0.00157 0.50377 0.11659 0.0
C238 C 0.98624 0.52195 0.07022 0.0
C239 C 0.96851 0.46612 0.14342 0.0
C240 C 0.02502 0.53194 0.16698 0.0
C241 C 0.06249 0.5386 0.16786 0.0
C242 C 0.09038 0.56509 0.20758 0.0
C243 C 0.08002 0.58602 0.24667 0.0
C244 C 0.04217 0.58067 0.24546 0.0
C245 C 0.01411 0.55267 0.20592 0.0
H246 H 0.6007 0.74055 0.08671 0.0
H247 H 0.67319 0.76832 0.24846 0.0
H248 H 0.68758 0.83627 0.24167 0.0
H249 H 0.66156 0.82669 0.00561 0.0
H250 H 0.62176 0.829 0.97097 0.0
H251 H 0.61635 0.78302 0.99147 0.0
H252 H 0.55633 0.76756 0.05779 0.0
H253 H 0.56146 0.81344 0.03733 0.0
H254 H 0.5605 0.80078 0.11696 0.0
H255 H 0.692 0.90196 0.21576 0.0
H256 H 0.68937 0.95765 0.1703 0.0
H257 H 0.61687 0.88383 0.0236 0.0
C258 C 0.61929 0.76064 0.12138 0.0
C259 C 0.6354 0.74903 0.16866 0.0
C260 C 0.66035 0.77662 0.21203 0.0
C261 C 0.6686 0.81517 0.20853 0.0
C262 C 0.65206 0.82552 0.16094 0.0
C263 C 0.62819 0.79885 0.11798 0.0
C264 C 0.61501 0.81668 0.06962 0.0
C265 C 0.62956 0.81367 0.00566 0.0
C266 C 0.57071 0.79854 0.07053 0.0
C267 C 0.63498 0.85775 0.09184 0.0
C268 C 0.65598 0.8626 0.14484 0.0
C269 C 0.67586 0.89839 0.17402 0.0
C270 C 0.6742 0.92979 0.14803 0.0
C271 C 0.6533 0.92509 0.0931 0.0
C272 C 0.63361 0.88857 0.06509 0.0
H273 H 0.84868 0.56888 0.36694 0.0
H274 H 0.93359 0.69029 0.38784 0.0
H275 H 0.88113 0.70581 0.38785 0.0
H276 H 0.79278 0.57977 0.26211 0.0
H277 H 0.74674 0.542 0.29008 0.0
H278 H 0.78976 0.5396 0.3044 0.0
H279 H 0.77611 0.53441 0.42126 0.0
H280 H 0.73275 0.53661 0.40723 0.0
H281 H 0.7692 0.57056 0.45874 0.0
H282 H 0.82127 0.70926 0.36521 0.0
H283 H 0.75897 0.69978 0.32598 0.0
H284 H 0.71301 0.57608 0.32383 0.0
C285 C 0.85624 0.59863 0.37342 0.0
C286 C 0.89531 0.62832 0.37734 0.0
C287 C 0.90389 0.66694 0.38511 0.0
C288 C 0.87424 0.67607 0.38528 0.0
C289 C 0.83612 0.64621 0.3788 0.0
C290 C 0.82702 0.60817 0.37406 0.0
C291 C 0.78438 0.58185 0.36126 0.0
C292 C 0.77808 0.55953 0.30089 0.0
C293 C 0.76444 0.55423 0.41536 0.0
C294 C 0.7713 0.61123 0.35593 0.0
C295 C 0.80137 0.64817 0.36713 0.0
C296 C 0.79724 0.6804 0.35796 0.0
C297 C 0.7618 0.67476 0.33549 0.0
C298 C 0.73102 0.63719 0.32238 0.0
C299 C 0.73565 0.60511 0.33466 0.0
H300 H 0.12093 0.73522 0.45336 0.0
H301 H 0.05385 0.79245 0.47567 0.0
H302 H 0.11174 0.84964 0.51788 0.0
H303 H 0.18414 0.77702 0.58964 0.0
H304 H 0.22534 0.78087 0.54939 0.0
H305 H 0.17727 0.74267 0.53072 0.0
H306 H 0.18859 0.76438 0.41683 0.0
H307 H 0.23649 0.8026 0.43509 0.0
H308 H 0.20278 0.81355 0.39788 0.0
H309 H 0.17915 0.90308 0.54653 0.0
H310 H 0.24949 0.94825 0.55525 0.0
H311 H 0.27134 0.85528 0.51126 0.0
C312 C 0.11799 0.75937 0.46832 0.0
C313 C 0.08278 0.75931 0.46132 0.0
C314 C 0.08047 0.79177 0.48088 0.0
C315 C 0.11317 0.82431 0.50506 0.0
C316 C 0.14774 0.82372 0.50971 0.0
C317 C 0.15018 0.79191 0.49208 0.0
C318 C 0.19122 0.79951 0.49579 0.0
C319 C 0.19468 0.77347 0.54429 0.0
C320 C 0.2056 0.79475 0.43265 0.0
C321 C 0.21194 0.84113 0.51598 0.0
C322 C 0.18639 0.85446 0.52504 0.0
C323 C 0.19931 0.89277 0.54037 0.0
C324 C 0.23935 0.91822 0.54524 0.0
C325 C 0.26599 0.90533 0.53387 0.0
C326 C 0.25182 0.86606 0.52046 0.0
H327 H 0.45903 0.29615 0.69566 0.0
H328 H 0.33804 0.26196 0.7171 0.0
H329 H 0.32126 0.19373 0.72526 0.0
H330 H 0.44686 0.22537 0.60017 0.0
H331 H 0.48444 0.21788 0.63122 0.0
H332 H 0.48756 0.26387 0.63965 0.0
H333 H 0.493 0.25982 0.75763 0.0
H334 H 0.48997 0.21361 0.74952 0.0
H335 H 0.45643 0.21846 0.79873 0.0
H336 H 0.31661 0.1296 0.70894 0.0
H337 H 0.32491 0.07541 0.67474 0.0
H338 H 0.44931 0.15168 0.67038 0.0
C339 C 0.42913 0.27438 0.70378 0.0
C340 C 0.3998 0.28418 0.70554 0.0
C341 C 0.36098 0.25501 0.71602 0.0
C342 C 0.35122 0.21622 0.72083 0.0
C343 C 0.38075 0.20736 0.71665 0.0
C344 C 0.41905 0.23576 0.70958 0.0
C345 C 0.44493 0.21871 0.70036 0.0
C346 C 0.46721 0.23225 0.63923 0.0
C347 C 0.47272 0.22821 0.75482 0.0
C348 C 0.41496 0.17628 0.69909 0.0
C349 C 0.37814 0.17018 0.70954 0.0
C350 C 0.34536 0.13385 0.70256 0.0
C351 C 0.35032 0.10329 0.68291 0.0
C352 C 0.38777 0.10933 0.6706 0.0
C353 C 0.42041 0.14597 0.68095 0.0
H354 H 0.11295 0.33896 0.83382 0.0
H355 H 0.1753 0.43656 0.9546 0.0
H356 H 0.22987 0.42407 0.95846 0.0
H357 H 0.15754 0.27816 0.89172 0.0
H358 H 0.15958 0.26367 0.81426 0.0
H359 H 0.1208 0.27171 0.83718 0.0
H360 H 0.13815 0.32042 0.74788 0.0
H361 H 0.177 0.31292 0.72515 0.0
H362 H 0.1867 0.36095 0.74228 0.0
H363 H 0.28204 0.41117 0.93111 0.0
H364 H 0.32857 0.4009 0.87198 0.0
H365 H 0.23423 0.31319 0.76408 0.0
C366 C 0.13725 0.35614 0.86378 0.0
C367 C 0.13977 0.38794 0.8954 0.0
C368 C 0.17273 0.4115 0.93137 0.0
C369 C 0.20373 0.40452 0.93388 0.0
C370 C 0.2014 0.37407 0.89964 0.0
C371 C 0.16885 0.35004 0.86544 0.0
C372 C 0.17648 0.32448 0.82345 0.0
C373 C 0.15216 0.28198 0.84284 0.0
C374 C 0.16918 0.33008 0.75574 0.0
C375 C 0.21906 0.33986 0.83601 0.0
C376 C 0.23251 0.36746 0.88167 0.0
C377 C 0.2717 0.38894 0.89638 0.0
C378 C 0.29797 0.38302 0.86228 0.0
C379 C 0.28503 0.35623 0.81337 0.0
C380 C 0.24493 0.33342 0.8018 0.0
H381 H 0.87896 0.31902 0.95638 0.0
H382 H 0.95517 0.27202 0.98078 0.0
H383 H 0.9001 0.21127 0.01995 0.0
H384 H 0.81458 0.27043 0.08959 0.0
H385 H 0.77227 0.26253 0.0477 0.0
H386 H 0.81872 0.3041 0.03093 0.0
H387 H 0.81116 0.28384 0.91667 0.0
H388 H 0.76489 0.24224 0.93306 0.0
H389 H 0.80226 0.23636 0.89721 0.0
H390 H 0.83536 0.15346 0.04632 0.0
H391 H 0.76649 0.10295 0.05358 0.0
H392 H 0.73311 0.18797 0.00906 0.0
C393 C 0.88435 0.29636 0.97143 0.0
C394 C 0.92141 0.30034 0.96596 0.0
C395 C 0.92703 0.26964 0.98485 0.0
C396 C 0.89596 0.2351 0.00737 0.0
C397 C 0.85955 0.23179 0.01076 0.0
C398 C 0.85368 0.26168 0.99338 0.0
C399 C 0.81124 0.24969 0.99551 0.0
C400 C 0.80378 0.27308 0.04383 0.0
C401 C 0.79655 0.25323 0.93184 0.0
C402 C 0.79396 0.208 0.01489 0.0
C403 C 0.82226 0.19835 0.02459 0.0
C404 C 0.81298 0.16082 0.03959 0.0
C405 C 0.77375 0.13231 0.04362 0.0
C406 C 0.74431 0.14142 0.03186 0.0
C407 C 0.75481 0.17999 0.01856 0.0
loop_
_geom_bond_atom_site_label_1
_geom_bond_atom_site_label_2
_geom_bond_distance
_geom_bond_site_symmetry_2
_ccdc_geom_bond_type
Mg0 O1 2.028 . S
Mg0 O7 1.986 . S
Mg0 O9 2.114 1_544 S
Mg0 O10 2.251 1_554 S
Mg0 O13 2.010 1_545 S
O1 Mg0 2.028 . S
O1 C4 1.250 . S
O2 Mg3 2.028 . S
O2 C4 1.248 . S
Mg3 O2 2.028 . S
Mg3 O8 2.032 . S
Mg3 O10 2.079 1_554 S
C4 O1 1.250 . S
C4 O2 1.248 . S
C5 O6 1.264 . S
C5 O13 1.249 . S
O6 C5 1.264 . S
O7 Mg0 1.986 . S
O7 C11 1.246 . S
O8 Mg3 2.032 . S
O8 C11 1.259 . S
O9 Mg0 2.114 1_566 S
O9 C12 1.252 1_565 S
O10 Mg0 2.251 1_556 S
O10 Mg3 2.079 1_556 S
O10 C12 1.273 . S
C11 O7 1.246 . S
C11 O8 1.259 . S
C12 O9 1.252 1_545 S
C12 O10 1.273 . S
O13 Mg0 2.010 1_565 S
O13 C5 1.249 . S
Mg14 O15 2.028 . S
Mg14 O21 1.986 . S
Mg14 O23 2.114 . S
Mg14 O24 2.251 . S
Mg14 O27 2.010 . S
O15 Mg14 2.028 . S
O15 C18 1.250 . S
O16 Mg17 2.028 . S
O16 C18 1.248 . S
Mg17 O16 2.028 . S
Mg17 O22 2.032 . S
Mg17 O24 2.079 . S
C18 O15 1.250 . S
C18 O16 1.248 . S
C19 O20 1.264 . S
C19 O27 1.249 . S
O20 C19 1.264 . S
O21 Mg14 1.986 . S
O21 C25 1.246 . S
O22 Mg17 2.032 . S
O22 C25 1.259 . S
O23 Mg14 2.114 . S
O23 C26 1.252 . S
O24 Mg14 2.251 . S
O24 Mg17 2.079 . S
O24 C26 1.273 . S
C25 O21 1.246 . S
C25 O22 1.259 . S
C26 O23 1.252 . S
C26 O24 1.273 . S
O27 Mg14 2.010 . S
O27 C19 1.249 . S
Mg28 O29 2.028 . S
Mg28 O35 1.986 1_455 S
Mg28 O37 2.114 . S
Mg28 O38 2.251 1_455 S
Mg28 O41 2.010 . S
O29 Mg28 2.028 . S
O29 C32 1.250 . S
O30 Mg31 2.028 . S
O30 C32 1.248 1_655 S
Mg31 O30 2.028 . S
Mg31 O36 2.032 . S
Mg31 O38 2.079 . S
C32 O29 1.250 . S
C32 O30 1.248 1_455 S
C33 O34 1.264 . S
C33 O41 1.249 . S
O34 C33 1.264 . S
O35 Mg28 1.986 1_655 S
O35 C39 1.246 . S
O36 Mg31 2.032 . S
O36 C39 1.259 . S
O37 Mg28 2.114 . S
O37 C40 1.252 . S
O38 Mg28 2.251 1_655 S
O38 Mg31 2.079 . S
O38 C40 1.273 1_655 S
C39 O35 1.246 . S
C39 O36 1.259 . S
C40 O37 1.252 . S
C40 O38 1.273 1_455 S
O41 Mg28 2.010 . S
O41 C33 1.249 . S
Mg42 O43 2.028 . S
Mg42 O49 1.986 1_545 S
Mg42 O51 2.114 . S
Mg42 O52 2.251 1_545 S
Mg42 O55 2.010 . S
O43 Mg42 2.028 . S
O43 C46 1.250 . S
O44 Mg45 2.028 . S
O44 C46 1.248 1_565 S
Mg45 O44 2.028 . S
Mg45 O50 2.032 . S
Mg45 O52 2.079 . S
C46 O43 1.250 . S
C46 O44 1.248 1_545 S
C47 O48 1.264 . S
C47 O55 1.249 . S
O48 C47 1.264 . S
O49 Mg42 1.986 1_565 S
O49 C53 1.246 . S
O50 Mg45 2.032 . S
O50 C53 1.259 . S
O51 Mg42 2.114 . S
O51 C54 1.252 . S
O52 Mg42 2.251 1_565 S
O52 Mg45 2.079 . S
O52 C54 1.273 1_565 S
C53 O49 1.246 . S
C53 O50 1.259 . S
C54 O51 1.252 . S
C54 O52 1.273 1_545 S
O55 Mg42 2.010 . S
O55 C47 1.249 . S
Mg56 O57 2.028 . S
Mg56 O63 1.986 . S
Mg56 O65 2.114 . S
Mg56 O66 2.251 . S
Mg56 O69 2.010 . S
O57 Mg56 2.028 . S
O57 C60 1.250 . S
O58 Mg59 2.028 . S
O58 C60 1.248 . S
Mg59 O58 2.028 . S
Mg59 O64 2.032 . S
Mg59 O66 2.079 . S
C60 O57 1.250 . S
C60 O58 1.248 . S
C61 O62 1.264 . S
C61 O69 1.249 . S
O62 C61 1.264 . S
O63 Mg56 1.986 . S
O63 C67 1.246 . S
O64 Mg59 2.032 . S
O64 C67 1.259 . S
O65 Mg56 2.114 . S
O65 C68 1.252 . S
O66 Mg56 2.251 . S
O66 Mg59 2.079 . S
O66 C68 1.273 . S
C67 O63 1.246 . S
C67 O64 1.259 . S
C68 O65 1.252 . S
C68 O66 1.273 . S
O69 Mg56 2.010 . S
O69 C61 1.249 . S
Mg70 O71 2.028 . S
Mg70 O77 1.986 . S
Mg70 O79 2.114 1_455 S
Mg70 O80 2.251 . S
Mg70 O83 2.010 1_455 S
O71 Mg70 2.028 . S
O71 C74 1.250 . S
O72 Mg73 2.028 . S
O72 C74 1.248 . S
Mg73 O72 2.028 . S
Mg73 O78 2.032 . S
Mg73 O80 2.079 . S
C74 O71 1.250 . S
C74 O72 1.248 . S
C75 O76 1.264 . S
C75 O83 1.249 . S
O76 C75 1.264 . S
O77 Mg70 1.986 . S
O77 C81 1.246 . S
O78 Mg73 2.032 . S
O78 C81 1.259 . S
O79 Mg70 2.114 1_655 S
O79 C82 1.252 1_655 S
O80 Mg70 2.251 . S
O80 Mg73 2.079 . S
O80 C82 1.273 . S
C81 O77 1.246 . S
C81 O78 1.259 . S
C82 O79 1.252 1_455 S
C82 O80 1.273 . S
O83 Mg70 2.010 1_655 S
O83 C75 1.249 . S
H84 C96 0.930 1_565 S
H85 C98 0.930 . S
H86 C99 0.930 . S
H87 C103 0.959 1_545 S
H88 C103 0.959 . S
H89 C103 0.961 . S
H90 C104 0.960 . S
H91 C104 0.961 . S
H92 C104 0.959 . S
H93 C107 0.929 . S
H94 C108 0.931 . S
H95 C110 0.930 1_565 S
C96 H84 0.930 1_545 S
C96 C97 1.399 . S
C96 C101 1.399 . S
C97 C96 1.399 . S
C97 C98 1.376 . S
C98 H85 0.930 . S
C98 C97 1.376 . S
C98 C99 1.388 . S
C99 H86 0.930 . S
C99 C98 1.388 . S
C99 C100 1.390 . S
C100 C99 1.390 . S
C100 C101 1.394 . S
C100 C106 1.465 . S
C101 C96 1.399 . S
C101 C100 1.394 . S
C101 C102 1.516 1_545 S
C102 C101 1.516 1_565 S
C102 C103 1.502 . S
C102 C104 1.561 . S
C102 C105 1.526 1_565 S
C103 H87 0.959 1_565 S
C103 H88 0.959 . S
C103 H89 0.961 . S
C103 C102 1.502 . S
C104 H90 0.960 . S
C104 H91 0.961 . S
C104 H92 0.959 . S
C104 C102 1.561 . S
C105 C102 1.526 1_545 S
C105 C106 1.396 . S
C105 C110 1.390 . S
C106 C100 1.465 . S
C106 C105 1.396 . S
C106 C107 1.399 . S
C107 H93 0.929 . S
C107 C106 1.399 . S
C107 C108 1.385 . S
C108 H94 0.931 . S
C108 C107 1.385 . S
C108 C109 1.389 . S
C109 C108 1.389 . S
C109 C110 1.387 . S
C110 H95 0.930 1_545 S
C110 C105 1.390 . S
C110 C109 1.387 . S
H111 C123 0.930 . S
H112 C125 0.930 . S
H113 C126 0.930 . S
H114 C130 0.959 . S
H115 C130 0.959 . S
H116 C130 0.961 . S
H117 C131 0.960 . S
H118 C131 0.961 . S
H119 C131 0.959 . S
H120 C134 0.929 . S
H121 C135 0.931 . S
H122 C137 0.930 . S
C123 H111 0.930 . S
C123 C124 1.399 . S
C123 C128 1.399 . S
C124 C123 1.399 . S
C124 C125 1.376 . S
C125 H112 0.930 . S
C125 C124 1.376 . S
C125 C126 1.388 . S
C126 H113 0.930 . S
C126 C125 1.388 . S
C126 C127 1.390 . S
C127 C126 1.390 . S
C127 C128 1.394 . S
C127 C133 1.465 . S
C128 C123 1.399 . S
C128 C127 1.394 . S
C128 C129 1.516 . S
C129 C128 1.516 . S
C129 C130 1.502 . S
C129 C131 1.561 . S
C129 C132 1.526 . S
C130 H114 0.959 . S
C130 H115 0.959 . S
C130 H116 0.961 . S
C130 C129 1.502 . S
C131 H117 0.960 . S
C131 H118 0.961 . S
C131 H119 0.959 . S
C131 C129 1.561 . S
C132 C129 1.526 . S
C132 C133 1.396 . S
C132 C137 1.390 . S
C133 C127 1.465 . S
C133 C132 1.396 . S
C133 C134 1.399 . S
C134 H120 0.929 . S
C134 C133 1.399 . S
C134 C135 1.385 . S
C135 H121 0.931 . S
C135 C134 1.385 . S
C135 C136 1.389 . S
C136 C135 1.389 . S
C136 C137 1.387 . S
C137 H122 0.930 . S
C137 C132 1.390 . S
C137 C136 1.387 . S
H138 C150 0.930 . S
H139 C152 0.930 1_655 S
H140 C153 0.923 1_655 S
H141 C157 0.959 . S
H142 C157 0.959 . S
H143 C157 0.961 . S
H144 C158 0.960 . S
H145 C158 0.961 . S
H146 C158 0.959 . S
H147 C161 0.937 . S
H148 C162 0.931 . S
H149 C164 0.930 . S
C150 H138 0.930 . S
C150 C151 1.399 . S
C150 C155 1.399 . S
C151 C150 1.399 . S
C151 C152 1.376 . S
C152 H139 0.930 1_455 S
C152 C151 1.376 . S
C152 C153 1.394 . S
C153 H140 0.923 1_455 S
C153 C152 1.394 . S
C153 C154 1.391 . S
C154 C153 1.391 . S
C154 C155 1.394 . S
C154 C160 1.465 . S
C155 C150 1.399 . S
C155 C154 1.394 . S
C155 C156 1.516 . S
C156 C155 1.516 . S
C156 C157 1.502 . S
C156 C158 1.561 1_455 S
C156 C159 1.526 . S
C157 H141 0.959 . S
C157 H142 0.959 . S
C157 H143 0.961 . S
C157 C156 1.502 . S
C158 H144 0.960 . S
C158 H145 0.961 . S
C158 H146 0.959 . S
C158 C156 1.561 1_655 S
C159 C156 1.526 . S
C159 C160 1.396 . S
C159 C164 1.390 . S
C160 C154 1.465 . S
C160 C159 1.396 . S
C160 C161 1.399 . S
C161 H147 0.937 . S
C161 C160 1.399 . S
C161 C162 1.385 . S
C162 H148 0.931 . S
C162 C161 1.385 . S
C162 C163 1.389 . S
C163 C162 1.389 . S
C163 C164 1.387 . S
C164 H149 0.930 . S
C164 C159 1.390 . S
C164 C163 1.387 . S
H165 C177 0.930 . S
H166 C179 0.930 . S
H167 C180 0.930 . S
H168 C184 0.959 . S
H169 C184 0.959 . S
H170 C184 0.961 . S
H171 C185 0.960 . S
H172 C185 0.961 . S
H173 C185 0.959 . S
H174 C188 0.929 . S
H175 C189 0.931 . S
H176 C191 0.930 . S
C177 H165 0.930 . S
C177 C178 1.399 . S
C177 C182 1.399 . S
C178 C177 1.399 . S
C178 C179 1.376 1_545 S
C179 H166 0.930 . S
C179 C178 1.376 1_565 S
C179 C180 1.388 . S
C180 H167 0.930 . S
C180 C179 1.388 . S
C180 C181 1.390 . S
C181 C180 1.390 . S
C181 C182 1.394 1_565 S
C181 C187 1.465 . S
C182 C177 1.399 . S
C182 C181 1.394 1_545 S
C182 C183 1.516 . S
C183 C182 1.516 . S
C183 C184 1.502 . S
C183 C185 1.561 . S
C183 C186 1.526 . S
C184 H168 0.959 . S
C184 H169 0.959 . S
C184 H170 0.961 . S
C184 C183 1.502 . S
C185 H171 0.960 . S
C185 H172 0.961 . S
C185 H173 0.959 . S
C185 C183 1.561 . S
C186 C183 1.526 . S
C186 C187 1.396 1_545 S
C186 C191 1.390 . S
C187 C181 1.465 . S
C187 C186 1.396 1_565 S
C187 C188 1.399 . S
C188 H174 0.929 . S
C188 C187 1.399 . S
C188 C189 1.385 . S
C189 H175 0.931 . S
C189 C188 1.385 . S
C189 C190 1.389 1_565 S
C190 C189 1.389 1_545 S
C190 C191 1.387 . S
C191 H176 0.930 . S
C191 C186 1.390 . S
C191 C190 1.387 . S
H192 C204 0.930 . S
H193 C206 0.930 . S
H194 C207 0.930 . S
H195 C211 0.959 . S
H196 C211 0.959 . S
H197 C211 0.961 . S
H198 C212 0.960 . S
H199 C212 0.961 . S
H200 C212 0.959 . S
H201 C215 0.929 . S
H202 C216 0.931 . S
H203 C218 0.930 . S
C204 H192 0.930 . S
C204 C205 1.399 . S
C204 C209 1.399 1_554 S
C205 C204 1.399 . S
C205 C206 1.376 . S
C206 H193 0.930 . S
C206 C205 1.376 . S
C206 C207 1.388 . S
C207 H194 0.930 . S
C207 C206 1.388 . S
C207 C208 1.390 . S
C208 C207 1.390 . S
C208 C209 1.394 1_554 S
C208 C214 1.465 1_554 S
C209 C204 1.399 1_556 S
C209 C208 1.394 1_556 S
C209 C210 1.516 . S
C210 C209 1.516 . S
C210 C211 1.502 . S
C210 C212 1.561 . S
C210 C213 1.526 . S
C211 H195 0.959 . S
C211 H196 0.959 . S
C211 H197 0.961 . S
C211 C210 1.502 . S
C212 H198 0.960 . S
C212 H199 0.961 . S
C212 H200 0.959 . S
C212 C210 1.561 . S
C213 C210 1.526 . S
C213 C214 1.396 . S
C213 C218 1.390 . S
C214 C208 1.465 1_556 S
C214 C213 1.396 . S
C214 C215 1.399 . S
C215 H201 0.929 . S
C215 C214 1.399 . S
C215 C216 1.385 . S
C216 H202 0.931 . S
C216 C215 1.385 . S
C216 C217 1.389 . S
C217 C216 1.389 . S
C217 C218 1.387 . S
C218 H203 0.930 . S
C218 C213 1.390 . S
C218 C217 1.387 . S
H219 C231 0.915 1_655 S
H220 C233 0.930 1_556 S
H221 C234 0.930 . S
H222 C238 0.959 . S
H223 C238 0.959 . S
H224 C238 0.961 . S
H225 C239 0.960 . S
H226 C239 0.961 . S
H227 C239 0.959 1_455 S
H228 C242 0.929 . S
H229 C243 0.931 . S
H230 C245 0.930 1_655 S
C231 H219 0.915 1_455 S
C231 C232 1.419 . S
C231 C236 1.395 . S
C232 C231 1.419 . S
C232 C233 1.376 . S
C233 H220 0.930 1_554 S
C233 C232 1.376 . S
C233 C234 1.388 . S
C234 H221 0.930 . S
C234 C233 1.388 . S
C234 C235 1.390 . S
C235 C234 1.390 . S
C235 C236 1.394 . S
C235 C241 1.465 . S
C236 C231 1.395 . S
C236 C235 1.394 . S
C236 C237 1.516 1_455 S
C237 C236 1.516 1_655 S
C237 C238 1.502 . S
C237 C239 1.561 . S
C237 C240 1.526 1_655 S
C238 H222 0.959 . S
C238 H223 0.959 . S
C238 H224 0.961 . S
C238 C237 1.502 . S
C239 H225 0.960 . S
C239 H226 0.961 . S
C239 H227 0.959 1_655 S
C239 C237 1.561 . S
C240 C237 1.526 1_455 S
C240 C241 1.396 . S
C240 C245 1.390 . S
C241 C235 1.465 . S
C241 C240 1.396 . S
C241 C242 1.399 . S
C242 H228 0.929 . S
C242 C241 1.399 . S
C242 C243 1.385 . S
C243 H229 0.931 . S
C243 C242 1.385 . S
C243 C244 1.389 . S
C244 C243 1.389 . S
C244 C245 1.387 . S
C245 H230 0.930 1_455 S
C245 C240 1.390 . S
C245 C244 1.387 . S
H246 C258 0.930 . S
H247 C260 0.930 . S
H248 C261 0.930 . S
H249 C265 0.959 . S
H250 C265 0.972 . S
H251 C265 0.961 . S
H252 C266 0.960 . S
H253 C266 0.961 . S
H254 C266 0.959 . S
H255 C269 0.929 . S
H256 C270 0.931 . S
H257 C272 0.930 . S
C258 H246 0.930 . S
C258 C259 1.399 . S
C258 C263 1.399 . S
C259 C258 1.399 . S
C259 C260 1.376 . S
C260 H247 0.930 . S
C260 C259 1.376 . S
C260 C261 1.388 . S
C261 H248 0.930 . S
C261 C260 1.388 . S
C261 C262 1.390 . S
C262 C261 1.390 . S
C262 C263 1.394 . S
C262 C268 1.465 . S
C263 C258 1.399 . S
C263 C262 1.394 . S
C263 C264 1.516 . S
C264 C263 1.516 . S
C264 C265 1.502 . S
C264 C266 1.561 . S
C264 C267 1.526 . S
C265 H249 0.959 . S
C265 H250 0.972 . S
C265 H251 0.961 . S
C265 C264 1.502 . S
C266 H252 0.960 . S
C266 H253 0.961 . S
C266 H254 0.959 . S
C266 C264 1.561 . S
C267 C264 1.526 . S
C267 C268 1.396 . S
C267 C272 1.390 . S
C268 C262 1.465 . S
C268 C267 1.396 . S
C268 C269 1.399 . S
C269 H255 0.929 . S
C269 C268 1.399 . S
C269 C270 1.385 . S
C270 H256 0.931 . S
C270 C269 1.385 . S
C270 C271 1.389 . S
C271 C270 1.389 . S
C271 C272 1.387 . S
C272 H257 0.930 . S
C272 C267 1.390 . S
C272 C271 1.387 . S
H273 C285 0.930 . S
H274 C287 0.930 . S
H275 C288 0.930 . S
H276 C292 0.959 . S
H277 C292 0.959 . S
H278 C292 0.961 . S
H279 C293 0.960 . S
H280 C293 0.961 . S
H281 C293 0.959 . S
H282 C296 0.929 . S
H283 C297 0.931 . S
H284 C299 0.930 . S
C285 H273 0.930 . S
C285 C286 1.399 . S
C285 C290 1.399 . S
C286 C285 1.399 . S
C286 C287 1.376 . S
C287 H274 0.930 . S
C287 C286 1.376 . S
C287 C288 1.388 . S
C288 H275 0.930 . S
C288 C287 1.388 . S
C288 C289 1.390 . S
C289 C288 1.390 . S
C289 C290 1.394 . S
C289 C295 1.465 . S
C290 C285 1.399 . S
C290 C289 1.394 . S
C290 C291 1.516 . S
C291 C290 1.516 . S
C291 C292 1.502 . S
C291 C293 1.561 . S
C291 C294 1.526 . S
C292 H276 0.959 . S
C292 H277 0.959 . S
C292 H278 0.961 . S
C292 C291 1.502 . S
C293 H279 0.960 . S
C293 H280 0.961 . S
C293 H281 0.959 . S
C293 C291 1.561 . S
C294 C291 1.526 . S
C294 C295 1.396 . S
C294 C299 1.390 . S
C295 C289 1.465 . S
C295 C294 1.396 . S
C295 C296 1.399 . S
C296 H282 0.929 . S
C296 C295 1.399 . S
C296 C297 1.385 . S
C297 H283 0.931 . S
C297 C296 1.385 . S
C297 C298 1.389 . S
C298 C297 1.389 . S
C298 C299 1.387 . S
C299 H284 0.930 . S
C299 C294 1.390 . S
C299 C298 1.387 . S
H300 C312 0.930 . S
H301 C314 0.930 . S
H302 C315 0.930 . S
H303 C319 0.959 . S
H304 C319 0.959 . S
H305 C319 0.961 . S
H306 C320 0.960 . S
H307 C320 0.961 . S
H308 C320 0.959 . S
H309 C323 0.929 . S
H310 C324 0.931 . S
H311 C326 0.930 . S
C312 H300 0.930 . S
C312 C313 1.399 . S
C312 C317 1.399 . S
C313 C312 1.399 . S
C313 C314 1.376 . S
C314 H301 0.930 . S
C314 C313 1.376 . S
C314 C315 1.388 . S
C315 H302 0.930 . S
C315 C314 1.388 . S
C315 C316 1.390 . S
C316 C315 1.390 . S
C316 C317 1.394 . S
C316 C322 1.465 . S
C317 C312 1.399 . S
C317 C316 1.394 . S
C317 C318 1.516 . S
C318 C317 1.516 . S
C318 C319 1.502 . S
C318 C320 1.561 . S
C318 C321 1.526 . S
C319 H303 0.959 . S
C319 H304 0.959 . S
C319 H305 0.961 . S
C319 C318 1.502 . S
C320 H306 0.960 . S
C320 H307 0.961 . S
C320 H308 0.959 . S
C320 C318 1.561 . S
C321 C318 1.526 . S
C321 C322 1.396 . S
C321 C326 1.390 . S
C322 C316 1.465 . S
C322 C321 1.396 . S
C322 C323 1.399 . S
C323 H309 0.929 . S
C323 C322 1.399 . S
C323 C324 1.385 . S
C324 H310 0.931 . S
C324 C323 1.385 . S
C324 C325 1.389 . S
C325 C324 1.389 . S
C325 C326 1.387 . S
C326 H311 0.930 . S
C326 C321 1.390 . S
C326 C325 1.387 . S
H327 C339 0.930 . S
H328 C341 0.930 . S
H329 C342 0.930 . S
H330 C346 0.959 . S
H331 C346 0.959 . S
H332 C346 0.961 . S
H333 C347 0.960 . S
H334 C347 0.961 . S
H335 C347 0.959 . S
H336 C350 0.929 . S
H337 C351 0.931 . S
H338 C353 0.930 . S
C339 H327 0.930 . S
C339 C340 1.399 . S
C339 C344 1.399 . S
C340 C339 1.399 . S
C340 C341 1.376 . S
C341 H328 0.930 . S
C341 C340 1.376 . S
C341 C342 1.388 . S
C342 H329 0.930 . S
C342 C341 1.388 . S
C342 C343 1.390 . S
C343 C342 1.390 . S
C343 C344 1.394 . S
C343 C349 1.465 . S
C344 C339 1.399 . S
C344 C343 1.394 . S
C344 C345 1.516 . S
C345 C344 1.516 . S
C345 C346 1.502 . S
C345 C347 1.561 . S
C345 C348 1.526 . S
C346 H330 0.959 . S
C346 H331 0.959 . S
C346 H332 0.961 . S
C346 C345 1.502 . S
C347 H333 0.960 . S
C347 H334 0.961 . S
C347 H335 0.959 . S
C347 C345 1.561 . S
C348 C345 1.526 . S
C348 C349 1.396 . S
C348 C353 1.390 . S
C349 C343 1.465 . S
C349 C348 1.396 . S
C349 C350 1.399 . S
C350 H336 0.929 . S
C350 C349 1.399 . S
C350 C351 1.385 . S
C351 H337 0.931 . S
C351 C350 1.385 . S
C351 C352 1.389 . S
C352 C351 1.389 . S
C352 C353 1.387 . S
C353 H338 0.930 . S
C353 C348 1.390 . S
C353 C352 1.387 . S
H354 C366 0.930 . S
H355 C368 0.930 . S
H356 C369 0.930 . S
H357 C373 0.959 . S
H358 C373 0.959 . S
H359 C373 0.961 . S
H360 C374 0.960 . S
H361 C374 0.961 . S
H362 C374 0.959 . S
H363 C377 0.929 . S
H364 C378 0.931 . S
H365 C380 0.930 . S
C366 H354 0.930 . S
C366 C367 1.399 . S
C366 C371 1.399 . S
C367 C366 1.399 . S
C367 C368 1.376 . S
C368 H355 0.930 . S
C368 C367 1.376 . S
C368 C369 1.388 . S
C369 H356 0.930 . S
C369 C368 1.388 . S
C369 C370 1.390 . S
C370 C369 1.390 . S
C370 C371 1.394 . S
C370 C376 1.465 . S
C371 C366 1.399 . S
C371 C370 1.394 . S
C371 C372 1.516 . S
C372 C371 1.516 . S
C372 C373 1.502 . S
C372 C374 1.561 . S
C372 C375 1.526 . S
C373 H357 0.959 . S
C373 H358 0.959 . S
C373 H359 0.961 . S
C373 C372 1.502 . S
C374 H360 0.960 . S
C374 H361 0.961 . S
C374 H362 0.959 . S
C374 C372 1.561 . S
C375 C372 1.526 . S
C375 C376 1.396 . S
C375 C380 1.390 . S
C376 C370 1.465 . S
C376 C375 1.396 . S
C376 C377 1.399 . S
C377 H363 0.929 . S
C377 C376 1.399 . S
C377 C378 1.385 . S
C378 H364 0.931 . S
C378 C377 1.385 . S
C378 C379 1.389 . S
C379 C378 1.389 . S
C379 C380 1.387 . S
C380 H365 0.930 . S
C380 C375 1.390 . S
C380 C379 1.387 . S
H381 C393 0.930 . S
H382 C395 0.930 1_554 S
H383 C396 0.930 . S
H384 C400 0.959 . S
H385 C400 0.959 . S
H386 C400 0.961 . S
H387 C401 0.960 . S
H388 C401 0.961 . S
H389 C401 0.959 . S
H390 C404 0.929 . S
H391 C405 0.931 . S
H392 C407 0.930 . S
C393 H381 0.930 . S
C393 C394 1.399 . S
C393 C398 1.399 . S
C394 C393 1.399 . S
C394 C395 1.376 . S
C395 H382 0.930 1_556 S
C395 C394 1.376 . S
C395 C396 1.388 1_556 S
C396 H383 0.930 . S
C396 C395 1.388 1_554 S
C396 C397 1.388 1_554 S
C397 C396 1.388 1_556 S
C397 C398 1.397 . S
C397 C403 1.464 1_556 S
C398 C393 1.399 . S
C398 C397 1.397 . S
C398 C399 1.516 . S
C399 C398 1.516 . S
C399 C400 1.502 . S
C399 C401 1.561 . S
C399 C402 1.526 . S
C400 H384 0.959 . S
C400 H385 0.959 . S
C400 H386 0.961 . S
C400 C399 1.502 . S
C401 H387 0.960 . S
C401 H388 0.961 . S
C401 H389 0.959 . S
C401 C399 1.561 . S
C402 C399 1.526 . S
C402 C403 1.396 1_556 S
C402 C407 1.390 . S
C403 C397 1.464 1_554 S
C403 C402 1.396 1_554 S
C403 C404 1.399 . S
C404 H390 0.929 . S
C404 C403 1.399 . S
C404 C405 1.385 . S
C405 H391 0.931 . S
C405 C404 1.385 . S
C405 C406 1.389 . S
C406 C405 1.389 . S
C406 C407 1.387 1_554 S
C407 H392 0.930 . S
C407 C402 1.390 . S
C407 C406 1.387 1_556 S
C97 C4 1.335 . S
C109 C54 1.357 . S
C124 C18 1.356 . S
C136 C68 1.351 . S
C151 C82 1.355 . S
C163 C32 1.345 . S
C178 C12 1.363 . S
C190 C46 1.284 . S
C205 C26 1.359 . S
C217 C60 1.325 . S
C232 C74 1.297 1_554 S
C244 C40 1.363 . S
C259 C25 1.431 . S
C271 C5 1.340 . S
C286 C39 1.453 . S
C298 C19 1.275 . S
C313 C33 1.277 . S
C325 C53 1.385 . S
C340 C67 1.447 . S
C352 C47 1.308 . S
C367 C81 1.383 . S
C379 C61 1.315 . S
C394 C75 1.288 . S
C406 C11 1.451 . S
