# Generated by pormake.
# Topology snp, (6)-cn, num edge types: 1
# Building blocks:
#     Node 0, Type 0, BuildingBlock: MIFKUJ_clean_sbu_0, # of connection points: 6
#     Node 1, Type 0, BuildingBlock: MIFKUJ_clean_sbu_0, # of connection points: 6
#     Node 2, Type 0, BuildingBlock: MIFKUJ_clean_sbu_0, # of connection points: 6
#     Node 3, Type 0, BuildingBlock: MIFKUJ_clean_sbu_0, # of connection points: 6
#     Edge 4, Type (0, 0), BuildingBlock: FUNLAD_clean_linker_1, # of connection points: 2
#     Edge 5, Type (0, 0), BuildingBlock: FUNLAD_clean_linker_1, # of connection points: 2
#     Edge 6, Type (0, 0), BuildingBlock: FUNLAD_clean_linker_1, # of connection points: 2
#     Edge 7, Type (0, 0), BuildingBlock: FUNLAD_clean_linker_1, # of connection points: 2
#     Edge 8, Type (0, 0), BuildingBlock: FUNLAD_clean_linker_1, # of connection points: 2
#     Edge 9, Type (0, 0), BuildingBlock: FUNLAD_clean_linker_1, # of connection points: 2
#     Edge 10, Type (0, 0), BuildingBlock: FUNLAD_clean_linker_1, # of connection points: 2
#     Edge 11, Type (0, 0), BuildingBlock: FUNLAD_clean_linker_1, # of connection points: 2
#     Edge 12, Type (0, 0), BuildingBlock: FUNLAD_clean_linker_1, # of connection points: 2
#     Edge 13, Type (0, 0), BuildingBlock: FUNLAD_clean_linker_1, # of connection points: 2
#     Edge 14, Type (0, 0), BuildingBlock: FUNLAD_clean_linker_1, # of connection points: 2
#     Edge 15, Type (0, 0), BuildingBlock: FUNLAD_clean_linker_1, # of connection points: 2
# Relax obj value: 0.281
# Max RMSD: 0.225
# Mean RMSD: 0.224
data_MOF--net-snp--node1-MIFKUJ_clean_sbu_0--edge1-FUNLAD_clean_linker_1
_symmetry_space_group_name_H-M    P1
_symmetry_Int_Tables_number       1
_symmetry_cell_setting            triclinic
loop_
_symmetry_equiv_pos_as_xyz
'x, y, z'
_cell_length_a     24.979385
_cell_length_b     24.799534
_cell_length_c     31.864481
_cell_angle_alpha  90.603001
_cell_angle_beta   89.717306
_cell_angle_gamma 90.867537
loop_
_atom_site_label
_atom_site_type_symbol
_atom_site_fract_x
_atom_site_fract_y
_atom_site_fract_z
_atom_type_partial_charge
Zn0 Zn 0.29614 0.95218 0.07512 0.0
Zn1 Zn 0.29646 0.94092 0.93935 0.0
C2 C 0.25744 0.9055 0.14546 0.0
O3 O 0.23045 0.95001 0.14022 0.0
C4 C 0.31316 0.01859 0.87469 0.0
O5 O 0.34205 0.97983 0.8582 0.0
O6 O 0.3114 0.02124 0.10685 0.0
O7 O 0.34827 0.94291 0.02533 0.0
O8 O 0.37267 0.93159 0.95904 0.0
C9 C 0.34968 0.02426 0.13292 0.0
O10 O 0.38327 0.98426 0.13533 0.0
O11 O 0.29403 0.89379 0.11908 0.0
C12 C 0.22202 0.86414 0.90168 0.0
O13 O 0.19251 0.87707 0.9343 0.0
O14 O 0.26931 0.88344 0.89859 0.0
O15 O 0.2549 0.94688 0.99197 0.0
O16 O 0.22008 0.95731 0.05359 0.0
O17 O 0.29107 0.01174 0.91017 0.0
C18 C 0.38503 0.93851 0.9976 0.0
C19 C 0.214 0.95577 0.01424 0.0
Zn20 Zn 0.15768 0.31409 0.56483 0.0
Zn21 Zn 0.16338 0.32663 0.42953 0.0
C22 C 0.20036 0.26593 0.63318 0.0
O23 O 0.14895 0.25399 0.63461 0.0
C24 C 0.09253 0.34551 0.36073 0.0
O25 O 0.138 0.35516 0.3411 0.0
O26 O 0.09644 0.34092 0.60076 0.0
O27 O 0.17588 0.36361 0.51601 0.0
O28 O 0.18822 0.3995 0.45421 0.0
C29 C 0.10624 0.3683 0.63387 0.0
O30 O 0.15536 0.38549 0.64094 0.0
O31 O 0.21839 0.29441 0.60313 0.0
C32 C 0.19301 0.24504 0.37511 0.0
O33 O 0.14534 0.22998 0.38838 0.0
O34 O 0.21383 0.28858 0.38951 0.0
O35 O 0.14827 0.28048 0.4788 0.0
O36 O 0.13379 0.24294 0.53911 0.0
O37 O 0.09303 0.33492 0.39961 0.0
C38 C 0.18363 0.40537 0.49393 0.0
C39 C 0.13344 0.23972 0.49935 0.0
Zn40 Zn 0.81578 0.15625 0.07271 0.0
Zn41 Zn 0.81527 0.19016 0.94286 0.0
C42 C 0.8649 0.2557 0.10429 0.0
O43 O 0.89013 0.25571 0.06811 0.0
C44 C 0.80593 0.10977 0.8796 0.0
O45 O 0.76511 0.13985 0.86968 0.0
O46 O 0.79695 0.09437 0.11069 0.0
O47 O 0.76035 0.16514 0.02639 0.0
O48 O 0.73745 0.18451 0.96127 0.0
C49 C 0.76665 0.10232 0.14227 0.0
O50 O 0.74354 0.14919 0.14699 0.0
O51 O 0.82834 0.22061 0.11106 0.0
C52 C 0.87661 0.24822 0.88465 0.0
O53 O 0.90899 0.20992 0.896 0.0
O54 O 0.83121 0.25151 0.90263 0.0
O55 O 0.85539 0.19182 0.9964 0.0
O56 O 0.88534 0.13873 0.04443 0.0
O57 O 0.83358 0.12211 0.91166 0.0
C58 C 0.72459 0.17005 0.99838 0.0
C59 C 0.88958 0.15772 0.00776 0.0
Zn60 Zn 0.95721 0.80211 0.56602 0.0
Zn61 Zn 0.93072 0.77754 0.43221 0.0
C62 C 0.92134 0.86119 0.6325 0.0
O63 O 0.97053 0.87851 0.62542 0.0
C64 C -0.00753 0.75688 0.35744 0.0
O65 O 0.94548 0.74278 0.3423 0.0
O66 O 0.02512 0.78101 0.59594 0.0
O67 O 0.93354 0.75022 0.5198 0.0
O68 O 0.91592 0.70592 0.4619 0.0
C69 C 0.02236 0.76183 0.63272 0.0
O70 O 0.97523 0.74973 0.64884 0.0
O71 O 0.90215 0.82346 0.60945 0.0
C72 C 0.87631 0.85356 0.38426 0.0
O73 O 0.91504 0.88313 0.40072 0.0
O74 O 0.87146 0.80451 0.39502 0.0
O75 O 0.95166 0.83085 0.47689 0.0
O76 O 0.97354 0.87126 0.53556 0.0
O77 O -0.00366 0.77102 0.39573 0.0
C78 C 0.92711 0.70531 0.50091 0.0
C79 C 0.96769 0.87287 0.49603 0.0
H80 H 0.94966 0.16759 0.95731 0.0
C81 C 0.93249 0.1394 0.97953 0.0
H82 H 0.93965 0.06399 0.00868 0.0
H83 H 0.11393 0.96285 0.89193 0.0
H84 H 0.03786 0.93587 0.84816 0.0
H85 H 0.94886 0.97575 0.85984 0.0
H86 H 0.93523 0.04266 0.91548 0.0
C87 C 0.95643 0.09233 0.9862 0.0
C88 C 0.01081 0.08107 0.97004 0.0
C89 C 0.01801 0.04303 0.93712 0.0
C90 C 0.0692 0.02024 0.93021 0.0
C91 C 0.0755 0.98102 0.89819 0.0
C92 C 0.03235 0.96548 0.87295 0.0
C93 C 0.9822 -0.01205 0.87954 0.0
C94 C 0.9748 0.02608 0.91148 0.0
H95 H 0.12865 0.97173 0.01818 0.0
C96 C 0.16279 0.97256 0.99681 0.0
H97 H 0.19295 0.00452 0.93976 0.0
H98 H 0.0126 0.15997 0.03159 0.0
H99 H 0.0906 0.19321 0.06914 0.0
H100 H 0.18017 0.15699 0.05382 0.0
H101 H 0.19173 0.08637 1.00105 0.0
C102 C 0.15911 0.00028 0.96098 0.0
C103 C 0.11242 0.03591 0.9562 0.0
C104 C 0.10701 0.08001 0.98443 0.0
C105 C 0.05579 0.10184 0.99224 0.0
C106 C 0.0507 0.14249 0.02356 0.0
C107 C 0.09523 0.16198 0.04546 0.0
C108 C 0.14564 0.14155 0.03689 0.0
C109 C 0.15169 0.10098 0.00677 0.0
H110 H 0.0227 0.91619 0.45446 0.0
C111 C -0.01327 0.92028 0.47349 0.0
H112 H 0.93418 0.97154 0.50538 0.0
H113 H 0.11323 0.12836 0.56968 0.0
H114 H 0.07903 0.08918 0.63351 0.0
H115 H 0.0122 0.01507 0.63135 0.0
H116 H 0.97907 0.98025 0.56531 0.0
C117 C 0.96986 0.96886 0.48579 0.0
C118 C 0.00798 0.01505 0.48613 0.0
C119 C 0.02722 0.03447 0.52544 0.0
C120 C 0.06684 0.07596 0.52671 0.0
C121 C 0.08422 0.09585 0.56644 0.0
C122 C 0.06463 0.07394 0.6036 0.0
C123 C 0.02701 0.03231 0.60237 0.0
C124 C 0.00829 0.01273 0.56397 0.0
H125 H 0.0762 0.19665 0.45881 0.0
C126 C 0.111 0.19185 0.47869 0.0
H127 H 0.16096 0.13962 0.51108 0.0
H128 H 0.97624 -0.01017 0.40602 0.0
H129 H 0.01546 0.02458 0.34161 0.0
H130 H 0.09022 0.09074 0.34381 0.0
H131 H 0.12536 0.12345 0.41053 0.0
C132 C 0.12607 0.14306 0.49105 0.0
C133 C 0.08794 0.09693 0.48869 0.0
C134 C 0.0698 0.0765 0.44946 0.0
C135 C 0.02862 0.03644 0.44818 0.0
C136 C 0.00889 0.01881 0.40869 0.0
C137 C 0.03082 0.03864 0.37152 0.0
C138 C 0.07276 0.07608 0.37277 0.0
C139 C 0.09227 0.09484 0.41122 0.0
H140 H 0.6366 0.17203 0.99324 0.0
C141 C 0.66988 0.15038 0.00653 0.0
H142 H 0.69601 0.07945 0.03527 0.0
H143 H 0.48424 0.98276 0.10825 0.0
H144 H 0.53953 -0.00692 0.17036 0.0
H145 H 0.62607 0.04224 0.16719 0.0
H146 H 0.65809 0.0806 0.10196 0.0
C147 C 0.66197 0.10138 0.0234 0.0
C148 C 0.6083 0.0743 0.02543 0.0
C149 C 0.5893 0.05377 0.06428 0.0
C150 C 0.53866 0.02683 0.06646 0.0
C151 C 0.52174 0.00469 0.10517 0.0
C152 C 0.55318 0.01017 0.141 0.0
C153 C 0.60194 0.03774 0.1392 0.0
C154 C 0.61995 0.05943 0.10143 0.0
H155 H 0.47192 0.93547 0.98728 0.0
C156 C 0.44101 0.95197 0.00762 0.0
H157 H 0.42203 0.01297 0.05179 0.0
H158 H 0.63775 0.09349 0.9432 0.0
H159 H 0.57924 0.0911 0.88295 0.0
H160 H 0.48451 0.06287 0.89016 0.0
H161 H 0.44903 0.03401 0.95717 0.0
C162 C 0.45293 -0.0055 0.03256 0.0
C163 C 0.50614 0.02235 0.03025 0.0
C164 C 0.52418 0.04499 0.99181 0.0
C165 C 0.57673 0.06735 0.9887 0.0
C166 C 0.59655 0.0814 0.94843 0.0
C167 C 0.56358 0.0794 0.91332 0.0
C168 C 0.51044 0.06309 0.9173 0.0
C169 C 0.49077 0.04599 0.95596 0.0
H170 H 0.19051 0.4939 0.49737 0.0
C171 C 0.17028 0.45889 0.51066 0.0
H172 H 0.10214 0.42965 0.54302 0.0
H173 H 0.00068 0.63635 0.61842 0.0
H174 H 0.02453 0.58853 0.68174 0.0
H175 H 0.08268 0.50898 0.678 0.0
H176 H 0.11719 0.47697 0.61093 0.0
C177 C 0.12351 0.4649 0.53116 0.0
C178 C 0.09502 0.5172 0.53358 0.0
C179 C 0.07734 0.53714 0.57315 0.0
C180 C 0.04484 0.58366 0.57546 0.0
C181 C 0.02585 0.60141 0.61512 0.0
C182 C 0.03928 0.5744 0.65164 0.0
C183 C 0.07198 0.5296 0.64953 0.0
C184 C 0.09112 0.51126 0.61086 0.0
H185 H 0.93573 0.61764 0.50381 0.0
C186 C 0.94875 0.65559 0.51813 0.0
H187 H 0.01023 0.69534 0.55228 0.0
H188 H 0.10996 0.48485 0.45067 0.0
H189 H 0.0956 0.53868 0.38928 0.0
H190 H 0.05697 0.62944 0.39557 0.0
H191 H 0.02976 0.66491 0.46336 0.0
C192 C -0.00524 0.65743 0.53982 0.0
C193 C 0.03183 0.61124 0.53838 0.0
C194 C 0.05344 0.59423 0.49925 0.0
C195 C 0.08151 0.54504 0.49632 0.0
C196 C 0.09394 0.52452 0.45573 0.0
C197 C 0.08496 0.5547 0.41988 0.0
C198 C 0.06281 0.60552 0.42336 0.0
C199 C 0.0469 0.62514 0.46246 0.0
H200 H 0.19667 0.17708 0.33085 0.0
C201 C 0.2185 0.21282 0.34174 0.0
H202 H 0.28637 0.26308 0.33212 0.0
H203 H 0.30941 0.02178 0.23256 0.0
H204 H 0.31253 0.98361 0.30195 0.0
H205 H 0.30617 0.04165 0.36507 0.0
H206 H 0.29508 0.13833 0.35883 0.0
C207 C 0.26494 0.2264 0.32297 0.0
C208 C 0.28394 0.19442 0.286 0.0
C209 C 0.29484 0.13872 0.29013 0.0
C210 C 0.30207 0.10585 0.25376 0.0
C211 C 0.30704 0.04941 0.25891 0.0
C212 C 0.30841 0.02676 0.29869 0.0
C213 C 0.30453 0.05938 0.33421 0.0
C214 C 0.29778 0.11471 0.33018 0.0
H215 H 0.38502 0.06944 0.1863 0.0
C216 C 0.35045 0.06657 0.16577 0.0
H217 H 0.27162 0.09249 0.15471 0.0
H218 H 0.26764 0.30041 0.26704 0.0
H219 H 0.26885 0.3397 0.19769 0.0
H220 H 0.28672 0.28373 0.13486 0.0
H221 H 0.30303 0.18792 0.14099 0.0
C222 C 0.30656 0.09524 0.17487 0.0
C223 C 0.30243 0.12957 0.21334 0.0
C224 C 0.29469 0.1858 0.20942 0.0
C225 C 0.28521 0.21823 0.24574 0.0
C226 C 0.27561 0.27393 0.24063 0.0
C227 C 0.27618 0.29704 0.20097 0.0
C228 C 0.28619 0.26553 0.16559 0.0
C229 C 0.29539 0.21056 0.16956 0.0
H230 H 0.08074 0.38587 0.69862 0.0
C231 C 0.06727 0.36901 0.66878 0.0
H232 H 0.00753 0.32312 0.63768 0.0
H233 H 0.94965 0.18616 0.79723 0.0
H234 H 0.98306 0.11878 0.74857 0.0
H235 H 0.02103 0.14513 0.68014 0.0
H236 H 0.02586 0.23876 0.65986 0.0
C237 C 0.02037 0.34175 0.66703 0.0
C238 C -0.00805 0.326 0.7064 0.0
C239 C -0.01057 0.27077 0.71763 0.0
C240 C 0.96876 0.25567 0.75753 0.0
C241 C 0.96635 0.20015 0.76782 0.0
C242 C -0.01481 0.16094 0.74012 0.0
C243 C 0.00644 0.17576 0.70155 0.0
C244 C 0.00873 0.22986 0.69027 0.0
H245 H 0.85748 0.30019 0.83062 0.0
C246 C 0.88956 0.28017 0.84694 0.0
H247 H 0.97061 0.2582 0.84671 0.0
H248 H 0.98216 0.43376 0.69166 0.0
H249 H 0.95084 0.50165 0.74107 0.0
H250 H 0.92096 0.47629 0.81222 0.0
H251 H 0.92141 0.38293 0.83417 0.0
C252 C 0.9392 0.2793 0.83037 0.0
C253 C 0.95168 0.29577 0.78654 0.0
C254 C 0.95199 0.35073 0.77464 0.0
C255 C 0.9712 0.36569 0.73417 0.0
C256 C 0.96968 0.42056 0.7225 0.0
C257 C 0.95152 0.45984 0.75046 0.0
C258 C 0.93456 0.44552 0.79048 0.0
C259 C 0.93482 0.3917 0.80264 0.0
H260 H 0.82551 0.84528 0.32777 0.0
C261 C 0.84608 0.87409 0.34822 0.0
H262 H 0.87076 0.95474 0.35804 0.0
H263 H 0.89545 0.03299 0.17548 0.0
H264 H -0.0126 0.03092 0.19868 0.0
H265 H 0.01098 -0.01152 0.26557 0.0
H266 H 0.9425 0.94883 0.31008 0.0
C267 C 0.84915 0.92646 0.33778 0.0
C268 C 0.83421 0.94595 0.29539 0.0
C269 C 0.87506 0.96758 0.26907 0.0
C270 C 0.86169 -0.00953 0.22984 0.0
C271 C 0.90318 0.0138 0.2051 0.0
C272 C 0.95631 0.01306 0.21808 0.0
C273 C 0.96955 -0.01064 0.25581 0.0
C274 C 0.92966 0.96691 0.28113 0.0
H275 H 0.74721 0.07745 0.20673 0.0
C276 C 0.76604 0.06437 0.1776 0.0
H277 H 0.8143 0.00606 0.1481 0.0
H278 H 0.74566 0.91016 0.33867 0.0
H279 H 0.65423 0.90703 0.31336 0.0
H280 H 0.63228 0.9399 0.24275 0.0
H281 H 0.7016 0.97705 0.19737 0.0
C282 C 0.79401 0.0185 0.17677 0.0
C283 C 0.8076 -0.00939 0.21644 0.0
C284 C 0.7671 0.96663 0.24178 0.0
C285 C 0.7802 0.94538 0.28175 0.0
C286 C 0.73839 0.92491 0.30745 0.0
C287 C 0.68564 0.92317 0.29338 0.0
C288 C 0.67324 0.94184 0.25369 0.0
C289 C 0.71333 0.96337 0.22806 0.0
H290 H 0.10934 0.76927 0.64471 0.0
C291 C 0.07035 0.76394 0.65952 0.0
H292 H 0.02689 0.76276 0.71646 0.0
H293 H 0.2083 0.72553 0.84553 0.0
H294 H 0.16542 0.63692 0.84477 0.0
H295 H 0.09829 0.61266 0.79096 0.0
H296 H 0.07363 0.67674 0.7376 0.0
C297 C 0.06583 0.76771 0.70151 0.0
C298 C 0.11216 0.77994 0.72953 0.0
C299 C 0.12629 0.74203 0.76039 0.0
C300 C 0.16467 0.75612 0.79162 0.0
C301 C 0.17838 0.71726 0.82179 0.0
C302 C 0.1544 0.66617 0.82149 0.0
C303 C 0.11663 0.65249 0.79117 0.0
C304 C 0.10266 0.68975 0.76085 0.0
H305 H 0.15526 0.82147 0.87048 0.0
C306 C 0.19684 0.83413 0.86655 0.0
H307 H 0.26151 0.84177 0.82402 0.0
H308 H 0.09411 0.86391 0.67558 0.0
H309 H 0.14302 0.94856 0.67279 0.0
H310 H 0.21509 0.96936 0.72321 0.0
H311 H 0.23602 0.90714 0.77863 0.0
C312 C 0.22071 0.82733 0.82896 0.0
C313 C 0.18881 0.80823 0.79204 0.0
C314 C 0.17834 0.84441 0.75899 0.0
C315 C 0.13881 0.831 0.72837 0.0
C316 C 0.12564 0.87024 0.69821 0.0
C317 C 0.15309 0.91947 0.69649 0.0
C318 C 0.19335 0.93139 0.72511 0.0
C319 C 0.20523 0.89502 0.75659 0.0
H320 H 0.86083 0.0459 0.85889 0.0
C321 C 0.82414 0.06656 0.85118 0.0
H322 H 0.76416 0.07759 0.80576 0.0
H323 H 0.91373 0.01434 0.65402 0.0
H324 H 0.90556 0.11066 0.64436 0.0
H325 H 0.86061 0.16712 0.69768 0.0
H326 H 0.82363 0.12758 0.76091 0.0
C327 C 0.79962 0.05563 0.81463 0.0
C328 C 0.82528 0.02073 0.78239 0.0
C329 C 0.84653 0.04461 0.74554 0.0
C330 C 0.87325 0.01227 0.7152 0.0
C331 C 0.89389 0.03712 0.67852 0.0
C332 C 0.88919 0.09237 0.67243 0.0
C333 C 0.86378 0.12411 0.70239 0.0
C334 C 0.84269 0.1008 0.73857 0.0
H335 H 0.8469 0.87593 0.66882 0.0
C336 C 0.88907 0.8867 0.66587 0.0
H337 H 0.95298 0.93591 0.6879 0.0
H338 H 0.78522 0.96174 0.84789 0.0
H339 H 0.79756 0.86615 0.85941 0.0
H340 H 0.84854 0.81096 0.80873 0.0
H341 H 0.88675 0.85079 0.74598 0.0
C342 C 0.91109 0.92424 0.69152 0.0
C343 C 0.87908 0.95623 0.72192 0.0
C344 C 0.85789 0.93232 0.75879 0.0
C345 C 0.83017 0.96451 0.78877 0.0
C346 C 0.80799 0.93946 0.82474 0.0
C347 C 0.81457 0.88459 0.83163 0.0
C348 C 0.84314 0.85349 0.80304 0.0
C349 C 0.86467 0.87684 0.76701 0.0
H350 H 0.27264 0.84011 0.191 0.0
C351 C 0.24454 0.87064 0.18153 0.0
H352 H 0.1709 0.90857 0.1928 0.0
H353 H 0.11578 0.69263 0.30286 0.0
H354 H 0.13885 0.63789 0.24183 0.0
H355 H 0.1799 0.6795 0.17922 0.0
H356 H 0.19951 0.77529 0.17759 0.0
C357 C 0.19816 0.87735 0.20253 0.0
C358 C 0.18272 0.84865 0.24163 0.0
C359 C 0.17029 0.7926 0.2412 0.0
C360 C 0.14384 0.769 0.27631 0.0
C361 C 0.13374 0.7127 0.27615 0.0
C362 C 0.14706 0.68087 0.24151 0.0
C363 C 0.17035 0.70428 0.20632 0.0
C364 C 0.18171 0.75947 0.20591 0.0
H365 H 0.02955 0.7617 0.29495 0.0
C366 C 0.03784 0.76487 0.32836 0.0
H367 H 0.09497 0.78548 0.37459 0.0
H368 H 0.21031 0.95445 0.25586 0.0
H369 H 0.18663 0.0088 0.31683 0.0
H370 H 0.13544 0.96912 0.37557 0.0
H371 H 0.10767 0.87523 0.37383 0.0
C372 C 0.08674 0.78115 0.34127 0.0
C373 C 0.12687 0.80191 0.31037 0.0
C374 C 0.14323 0.85689 0.31232 0.0
C375 C 0.17174 0.88004 0.27809 0.0
C376 C 0.18748 0.93516 0.28062 0.0
C377 C 0.17444 0.96674 0.3155 0.0
C378 C 0.14562 0.94441 0.34857 0.0
C379 C 0.12998 0.89026 0.34715 0.0
H380 H 0.27531 0.22878 0.65446 0.0
C381 C 0.23594 0.24215 0.66432 0.0
H382 H 0.17774 0.24595 0.71202 0.0
H383 H 0.21949 0.0288 0.80035 0.0
H384 H 0.12846 0.01789 0.77585 0.0
H385 H 0.08903 0.08444 0.72862 0.0
H386 H 0.13973 0.16303 0.70675 0.0
C387 C 0.21707 0.23144 0.70298 0.0
C388 C 0.24228 0.19153 0.73092 0.0
C389 C 0.21206 0.14502 0.74272 0.0
C390 C 0.2351 0.10604 0.76923 0.0
C391 C 0.20396 0.06016 0.78071 0.0
C392 C 0.15162 0.05312 0.76663 0.0
C393 C 0.12941 0.09059 0.74009 0.0
C394 C 0.1591 0.13584 0.72796 0.0
H395 H 0.2724 0.0954 0.86437 0.0
C396 C 0.29924 0.06624 0.85014 0.0
H397 H 0.33964 0.04249 0.79458 0.0
H398 H 0.30826 0.27974 0.71982 0.0
H399 H 0.39918 0.29086 0.74518 0.0
H400 H 0.44089 0.22034 0.78758 0.0
H401 H 0.39149 0.13853 0.80539 0.0
C402 C 0.31313 0.07121 0.80964 0.0
C403 C 0.2886 0.11307 0.78323 0.0
C404 C 0.31861 0.15956 0.77178 0.0
C405 C 0.29509 0.19946 0.74626 0.0
C406 C 0.32486 0.24711 0.73756 0.0
C407 C 0.37696 0.25423 0.75227 0.0
C408 C 0.40041 0.21458 0.77622 0.0
C409 C 0.37169 0.16779 0.78612 0.0
H410 H 0.92422 0.3107 0.13301 0.0
C411 C 0.88819 0.28701 0.13948 0.0
H412 H 0.83747 0.25489 0.18638 0.0
H413 H 0.0322 0.23688 0.31143 0.0
H414 H 0.00058 0.14444 0.30491 0.0
H415 H 0.9262 0.12029 0.25739 0.0
H416 H 0.88354 0.18819 0.21573 0.0
C417 C 0.87234 0.28003 0.1795 0.0
C418 C 0.90842 0.29659 0.21464 0.0
C419 C 0.93191 0.25631 0.2397 0.0
C420 C 0.97434 0.27037 0.26758 0.0
C421 C -0.00097 0.22891 0.29051 0.0
C422 C 0.98147 0.17549 0.28691 0.0
C423 C 0.93969 0.16186 0.26008 0.0
C424 C 0.91539 0.20146 0.23641 0.0
H425 H 0.00553 0.33003 0.35449 0.0
C426 C 0.04213 0.3391 0.33718 0.0
H427 H 0.07766 0.34809 0.27731 0.0
H428 H 0.86393 0.38453 0.17835 0.0
H429 H 0.89281 0.47797 0.18725 0.0
H430 H 0.96756 0.5022 0.23452 0.0
H431 H 0.01358 0.43324 0.27343 0.0
C432 C 0.04149 0.3388 0.29506 0.0
C433 C -0.00762 0.32482 0.27087 0.0
C434 C 0.9662 0.36546 0.2482 0.0
C435 C 0.92377 0.35143 0.2204 0.0
C436 C 0.89746 0.39296 0.19888 0.0
C437 C 0.91336 0.44672 0.20397 0.0
C438 C 0.9554 0.46036 0.23063 0.0
C439 C 0.9816 0.4204 0.25264 0.0
loop_
_geom_bond_atom_site_label_1
_geom_bond_atom_site_label_2
_geom_bond_distance
_geom_bond_site_symmetry_2
_ccdc_geom_bond_type
Zn0 O6 1.969 . S
Zn0 O7 1.965 . S
Zn0 O11 2.024 1_545 S
Zn0 O16 1.969 . S
Zn1 O8 1.969 . S
Zn1 O14 1.969 . S
Zn1 O15 1.965 . S
Zn1 O17 2.024 1_565 S
C2 O3 1.229 . S
C2 O11 1.058 . S
O3 C2 1.229 . S
C4 O5 1.229 . S
C4 O17 1.058 . S
O5 C4 1.229 . S
O6 Zn0 1.969 . S
O6 C9 1.267 . S
O7 Zn0 1.965 . S
O7 C18 1.243 1_554 S
O8 Zn1 1.969 . S
O8 C18 1.284 1_565 S
C9 O6 1.267 . S
C9 O10 1.228 . S
O10 C9 1.228 . S
O11 Zn0 2.024 1_565 S
O11 C2 1.058 . S
C12 O13 1.228 . S
C12 O14 1.267 . S
O13 C12 1.228 . S
O14 Zn1 1.969 . S
O14 C12 1.267 . S
O15 Zn1 1.965 . S
O15 C19 1.253 1_566 S
O16 Zn0 1.969 . S
O16 C19 1.261 . S
O17 Zn1 2.024 1_545 S
O17 C4 1.058 . S
C18 O7 1.243 1_556 S
C18 O8 1.284 1_545 S
C19 O15 1.253 1_544 S
C19 O16 1.261 . S
Zn20 O26 1.969 . S
Zn20 O27 1.965 . S
Zn20 O31 2.024 . S
Zn20 O36 1.969 . S
Zn21 O28 1.969 . S
Zn21 O34 1.969 . S
Zn21 O35 1.965 . S
Zn21 O37 2.024 . S
C22 O23 1.229 . S
C22 O31 1.058 . S
O23 C22 1.229 . S
C24 O25 1.229 . S
C24 O37 1.058 . S
O25 C24 1.229 . S
O26 Zn20 1.969 . S
O26 C29 1.267 . S
O27 Zn20 1.965 . S
O27 C38 1.260 . S
O28 Zn21 1.969 . S
O28 C38 1.258 . S
C29 O26 1.267 . S
C29 O30 1.228 . S
O30 C29 1.228 . S
O31 Zn20 2.024 . S
O31 C22 1.058 . S
C32 O33 1.228 . S
C32 O34 1.267 . S
O33 C32 1.228 . S
O34 Zn21 1.969 . S
O34 C32 1.267 . S
O35 Zn21 1.965 . S
O35 C39 1.260 . S
O36 Zn20 1.969 . S
O36 C39 1.258 . S
O37 Zn21 2.024 . S
O37 C24 1.058 . S
C38 O27 1.260 . S
C38 O28 1.258 . S
C39 O35 1.260 . S
C39 O36 1.258 . S
Zn40 O46 1.969 . S
Zn40 O47 1.965 . S
Zn40 O51 2.024 . S
Zn40 O56 1.969 . S
Zn41 O48 1.969 . S
Zn41 O54 1.969 . S
Zn41 O55 1.965 . S
Zn41 O57 2.024 . S
C42 O43 1.229 . S
C42 O51 1.058 . S
O43 C42 1.229 . S
C44 O45 1.229 . S
C44 O57 1.058 . S
O45 C44 1.229 . S
O46 Zn40 1.969 . S
O46 C49 1.267 . S
O47 Zn40 1.965 . S
O47 C58 1.243 1_554 S
O48 Zn41 1.969 . S
O48 C58 1.284 . S
C49 O46 1.267 . S
C49 O50 1.228 . S
O50 C49 1.228 . S
O51 Zn40 2.024 . S
O51 C42 1.058 . S
C52 O53 1.228 . S
C52 O54 1.267 . S
O53 C52 1.228 . S
O54 Zn41 1.969 . S
O54 C52 1.267 . S
O55 Zn41 1.965 . S
O55 C59 1.260 1_556 S
O56 Zn40 1.969 . S
O56 C59 1.258 . S
O57 Zn41 2.024 . S
O57 C44 1.058 . S
C58 O47 1.243 1_556 S
C58 O48 1.284 . S
C59 O55 1.260 1_554 S
C59 O56 1.258 . S
Zn60 O66 1.969 . S
Zn60 O67 1.965 . S
Zn60 O71 2.024 1_455 S
Zn60 O76 1.969 . S
Zn61 O68 1.969 . S
Zn61 O74 1.969 . S
Zn61 O75 1.965 . S
Zn61 O77 2.024 1_655 S
C62 O63 1.229 . S
C62 O71 1.058 . S
O63 C62 1.229 . S
C64 O65 1.229 . S
C64 O77 1.058 . S
O65 C64 1.229 . S
O66 Zn60 1.969 . S
O66 C69 1.267 . S
O67 Zn60 1.965 . S
O67 C78 1.260 . S
O68 Zn61 1.969 . S
O68 C78 1.258 1_655 S
C69 O66 1.267 . S
C69 O70 1.228 . S
O70 C69 1.228 . S
O71 Zn60 2.024 1_655 S
O71 C62 1.058 . S
C72 O73 1.228 . S
C72 O74 1.267 . S
O73 C72 1.228 . S
O74 Zn61 1.969 . S
O74 C72 1.267 . S
O75 Zn61 1.965 . S
O75 C79 1.257 1_655 S
O76 Zn60 1.969 . S
O76 C79 1.259 . S
O77 Zn61 2.024 1_455 S
O77 C64 1.058 . S
C78 O67 1.260 . S
C78 O68 1.258 1_455 S
C79 O75 1.257 1_455 S
C79 O76 1.259 . S
H80 C81 0.951 1_554 S
C81 H80 0.951 1_556 S
C81 C87 1.265 . S
H82 C87 0.950 . S
H83 C91 0.949 . S
H84 C92 0.950 1_565 S
H85 C93 0.951 . S
H86 C94 0.951 1_655 S
C87 C81 1.265 . S
C87 H82 0.950 . S
C87 C88 1.478 1_655 S
C88 C87 1.478 1_455 S
C88 C89 1.397 . S
C88 C105 1.394 1_556 S
C89 C88 1.397 . S
C89 C90 1.438 . S
C89 C94 1.429 . S
C90 C89 1.438 . S
C90 C91 1.428 . S
C90 C103 1.394 . S
C91 H83 0.949 . S
C91 C90 1.428 . S
C91 C92 1.345 . S
C92 H84 0.950 1_545 S
C92 C91 1.345 . S
C92 C93 1.424 . S
C93 H85 0.951 . S
C93 C92 1.424 . S
C93 C94 1.347 . S
C94 H86 0.951 1_455 S
C94 C89 1.429 . S
C94 C93 1.347 . S
H95 C96 0.951 . S
C96 H95 0.951 . S
C96 C102 1.267 1_565 S
H97 C102 0.947 1_554 S
H98 C106 0.949 1_655 S
H99 C107 0.950 . S
H100 C108 0.951 . S
H101 C109 0.951 . S
C102 C96 1.267 1_545 S
C102 H97 0.947 1_556 S
C102 C103 1.479 . S
C103 C90 1.394 . S
C103 C102 1.479 . S
C103 C104 1.397 1_556 S
C104 C103 1.397 1_554 S
C104 C105 1.438 . S
C104 C109 1.429 . S
C105 C88 1.394 1_554 S
C105 C104 1.438 . S
C105 C106 1.428 . S
C106 H98 0.949 1_455 S
C106 C105 1.428 . S
C106 C107 1.345 . S
C107 H99 0.950 . S
C107 C106 1.345 . S
C107 C108 1.424 . S
C108 H100 0.951 . S
C108 C107 1.424 . S
C108 C109 1.347 . S
C109 H101 0.951 . S
C109 C104 1.429 . S
C109 C108 1.347 . S
H110 C111 0.951 . S
C111 H110 0.951 . S
C111 C117 1.265 1_455 S
H112 C117 0.950 . S
H113 C121 0.949 . S
H114 C122 0.950 . S
H115 C123 0.951 1_655 S
H116 C124 0.951 1_655 S
C117 C111 1.265 1_655 S
C117 H112 0.950 . S
C117 C118 1.478 1_665 S
C118 C117 1.478 1_445 S
C118 C119 1.397 . S
C118 C135 1.394 . S
C119 C118 1.397 . S
C119 C120 1.438 . S
C119 C124 1.429 . S
C120 C119 1.438 . S
C120 C121 1.428 . S
C120 C133 1.394 . S
C121 H113 0.949 . S
C121 C120 1.428 . S
C121 C122 1.345 . S
C122 H114 0.950 . S
C122 C121 1.345 . S
C122 C123 1.424 . S
C123 H115 0.951 1_455 S
C123 C122 1.424 . S
C123 C124 1.347 . S
C124 H116 0.951 1_455 S
C124 C119 1.429 . S
C124 C123 1.347 . S
H125 C126 0.951 . S
C126 H125 0.951 . S
C126 C132 1.265 . S
H127 C132 0.950 . S
H128 C136 0.949 1_565 S
H129 C137 0.950 1_565 S
H130 C138 0.951 . S
H131 C139 0.951 . S
C132 C126 1.265 . S
C132 H127 0.950 . S
C132 C133 1.478 . S
C133 C120 1.394 . S
C133 C132 1.478 . S
C133 C134 1.397 . S
C134 C133 1.397 . S
C134 C135 1.438 . S
C134 C139 1.429 . S
C135 C118 1.394 . S
C135 C134 1.438 . S
C135 C136 1.428 . S
C136 H128 0.949 1_545 S
C136 C135 1.428 . S
C136 C137 1.345 . S
C137 H129 0.950 1_545 S
C137 C136 1.345 . S
C137 C138 1.424 . S
C138 H130 0.951 . S
C138 C137 1.424 . S
C138 C139 1.347 . S
C139 H131 0.951 . S
C139 C134 1.429 . S
C139 C138 1.347 . S
H140 C141 0.951 . S
C141 H140 0.951 . S
C141 C147 1.265 . S
H142 C147 0.950 . S
H143 C151 0.949 . S
H144 C152 0.950 1_565 S
H145 C153 0.951 . S
H146 C154 0.951 . S
C147 C141 1.265 . S
C147 H142 0.950 . S
C147 C148 1.478 . S
C148 C147 1.478 . S
C148 C149 1.397 . S
C148 C165 1.394 1_554 S
C149 C148 1.397 . S
C149 C150 1.438 . S
C149 C154 1.429 . S
C150 C149 1.438 . S
C150 C151 1.428 . S
C150 C163 1.394 . S
C151 H143 0.949 . S
C151 C150 1.428 . S
C151 C152 1.345 . S
C152 H144 0.950 1_545 S
C152 C151 1.345 . S
C152 C153 1.424 . S
C153 H145 0.951 . S
C153 C152 1.424 . S
C153 C154 1.347 . S
C154 H146 0.951 . S
C154 C149 1.429 . S
C154 C153 1.347 . S
H155 C156 0.951 . S
C156 H155 0.951 . S
C156 C162 1.265 1_565 S
H157 C162 0.950 . S
H158 C166 0.949 . S
H159 C167 0.950 . S
H160 C168 0.951 . S
H161 C169 0.951 . S
C162 C156 1.265 1_545 S
C162 H157 0.950 . S
C162 C163 1.478 . S
C163 C150 1.394 . S
C163 C162 1.478 . S
C163 C164 1.397 1_554 S
C164 C163 1.397 1_556 S
C164 C165 1.438 . S
C164 C169 1.429 . S
C165 C148 1.394 1_556 S
C165 C164 1.438 . S
C165 C166 1.428 . S
C166 H158 0.949 . S
C166 C165 1.428 . S
C166 C167 1.345 . S
C167 H159 0.950 . S
C167 C166 1.345 . S
C167 C168 1.424 . S
C168 H160 0.951 . S
C168 C167 1.424 . S
C168 C169 1.347 . S
C169 H161 0.951 . S
C169 C164 1.429 . S
C169 C168 1.347 . S
H170 C171 0.951 . S
C171 H170 0.951 . S
C171 C177 1.265 . S
H172 C177 0.950 . S
H173 C181 0.949 . S
H174 C182 0.950 1_655 S
H175 C183 0.951 . S
H176 C184 0.951 . S
C177 C171 1.265 . S
C177 H172 0.950 . S
C177 C178 1.478 . S
C178 C177 1.478 . S
C178 C179 1.397 . S
C178 C195 1.394 . S
C179 C178 1.397 . S
C179 C180 1.438 . S
C179 C184 1.429 . S
C180 C179 1.438 . S
C180 C181 1.428 . S
C180 C193 1.394 . S
C181 H173 0.949 . S
C181 C180 1.428 . S
C181 C182 1.345 . S
C182 H174 0.950 1_455 S
C182 C181 1.345 . S
C182 C183 1.424 . S
C183 H175 0.951 . S
C183 C182 1.424 . S
C183 C184 1.347 . S
C184 H176 0.951 . S
C184 C179 1.429 . S
C184 C183 1.347 . S
H185 C186 0.951 . S
C186 H185 0.951 . S
C186 C192 1.265 1_655 S
H187 C192 0.950 . S
H188 C196 0.949 . S
H189 C197 0.950 . S
H190 C198 0.951 . S
H191 C199 0.951 . S
C192 C186 1.265 1_455 S
C192 H187 0.950 . S
C192 C193 1.478 . S
C193 C180 1.394 . S
C193 C192 1.478 . S
C193 C194 1.397 . S
C194 C193 1.397 . S
C194 C195 1.438 . S
C194 C199 1.429 . S
C195 C178 1.394 . S
C195 C194 1.438 . S
C195 C196 1.428 . S
C196 H188 0.949 . S
C196 C195 1.428 . S
C196 C197 1.345 . S
C197 H189 0.950 . S
C197 C196 1.345 . S
C197 C198 1.424 . S
C198 H190 0.951 . S
C198 C197 1.424 . S
C198 C199 1.347 . S
C199 H191 0.951 . S
C199 C194 1.429 . S
C199 C198 1.347 . S
H200 C201 0.951 . S
C201 H200 0.951 . S
C201 C207 1.265 . S
H202 C207 0.950 . S
H203 C211 0.949 . S
H204 C212 0.950 . S
H205 C213 0.951 . S
H206 C214 0.951 . S
C207 C201 1.265 . S
C207 H202 0.950 . S
C207 C208 1.478 . S
C208 C207 1.478 . S
C208 C209 1.397 . S
C208 C225 1.394 . S
C209 C208 1.397 . S
C209 C210 1.438 . S
C209 C214 1.429 . S
C210 C209 1.438 . S
C210 C211 1.428 . S
C210 C223 1.394 . S
C211 H203 0.949 . S
C211 C210 1.428 . S
C211 C212 1.345 . S
C212 H204 0.950 . S
C212 C211 1.345 . S
C212 C213 1.424 . S
C213 H205 0.951 . S
C213 C212 1.424 . S
C213 C214 1.347 . S
C214 H206 0.951 . S
C214 C209 1.429 . S
C214 C213 1.347 . S
H215 C216 0.951 . S
C216 H215 0.951 . S
C216 C222 1.265 . S
H217 C222 0.950 . S
H218 C226 0.949 . S
H219 C227 0.950 . S
H220 C228 0.951 . S
H221 C229 0.951 . S
C222 C216 1.265 . S
C222 H217 0.950 . S
C222 C223 1.478 . S
C223 C210 1.394 . S
C223 C222 1.478 . S
C223 C224 1.397 . S
C224 C223 1.397 . S
C224 C225 1.438 . S
C224 C229 1.429 . S
C225 C208 1.394 . S
C225 C224 1.438 . S
C225 C226 1.428 . S
C226 H218 0.949 . S
C226 C225 1.428 . S
C226 C227 1.345 . S
C227 H219 0.950 . S
C227 C226 1.345 . S
C227 C228 1.424 . S
C228 H220 0.951 . S
C228 C227 1.424 . S
C228 C229 1.347 . S
C229 H221 0.951 . S
C229 C224 1.429 . S
C229 C228 1.347 . S
H230 C231 0.951 . S
C231 H230 0.951 . S
C231 C237 1.265 1_455 S
H232 C237 0.950 . S
H233 C241 0.949 . S
H234 C242 0.950 . S
H235 C243 0.948 1_455 S
H236 C244 0.951 1_455 S
C237 C231 1.265 1_655 S
C237 H232 0.950 . S
C237 C238 1.478 . S
C238 C237 1.478 . S
C238 C239 1.397 . S
C238 C255 1.394 . S
C239 C238 1.397 . S
C239 C240 1.438 . S
C239 C244 1.429 . S
C240 C239 1.438 . S
C240 C241 1.428 . S
C240 C253 1.394 . S
C241 H233 0.949 . S
C241 C240 1.428 . S
C241 C242 1.345 . S
C242 H234 0.950 . S
C242 C241 1.345 . S
C242 C243 1.427 . S
C243 H235 0.948 1_655 S
C243 C242 1.427 . S
C243 C244 1.347 . S
C244 H236 0.951 1_655 S
C244 C239 1.429 . S
C244 C243 1.347 . S
H245 C246 0.951 . S
C246 H245 0.951 . S
C246 C252 1.265 . S
H247 C252 0.950 . S
H248 C256 0.949 . S
H249 C257 0.950 . S
H250 C258 0.951 . S
H251 C259 0.951 . S
C252 C246 1.265 . S
C252 H247 0.950 . S
C252 C253 1.478 . S
C253 C240 1.394 . S
C253 C252 1.478 . S
C253 C254 1.397 . S
C254 C253 1.397 . S
C254 C255 1.438 . S
C254 C259 1.429 . S
C255 C238 1.394 . S
C255 C254 1.438 . S
C255 C256 1.428 . S
C256 H248 0.949 . S
C256 C255 1.428 . S
C256 C257 1.345 . S
C257 H249 0.950 . S
C257 C256 1.345 . S
C257 C258 1.424 . S
C258 H250 0.951 . S
C258 C257 1.424 . S
C258 C259 1.347 . S
C259 H251 0.951 . S
C259 C254 1.429 . S
C259 C258 1.347 . S
H260 C261 0.951 . S
C261 H260 0.951 . S
C261 C267 1.265 . S
H262 C267 0.950 . S
H263 C271 0.949 . S
H264 C272 0.950 . S
H265 C273 0.951 1_455 S
H266 C274 0.950 1_565 S
C267 C261 1.265 . S
C267 H262 0.950 . S
C267 C268 1.478 . S
C268 C267 1.478 . S
C268 C269 1.397 . S
C268 C285 1.394 . S
C269 C268 1.397 . S
C269 C270 1.438 . S
C269 C274 1.428 1_565 S
C270 C269 1.438 . S
C270 C271 1.428 1_565 S
C270 C283 1.394 . S
C271 H263 0.949 . S
C271 C270 1.428 1_545 S
C271 C272 1.345 . S
C272 H264 0.950 . S
C272 C271 1.345 . S
C272 C273 1.424 . S
C273 H265 0.951 1_655 S
C273 C272 1.424 . S
C273 C274 1.349 . S
C274 H266 0.950 1_545 S
C274 C269 1.428 1_545 S
C274 C273 1.349 . S
H275 C276 0.951 . S
C276 H275 0.951 . S
C276 C282 1.265 1_545 S
H277 C282 0.950 . S
H278 C286 0.949 . S
H279 C287 0.950 . S
H280 C288 0.951 . S
H281 C289 0.951 . S
C282 C276 1.265 1_565 S
C282 H277 0.950 . S
C282 C283 1.478 . S
C283 C270 1.394 . S
C283 C282 1.478 . S
C283 C284 1.397 . S
C284 C283 1.397 . S
C284 C285 1.438 . S
C284 C289 1.429 . S
C285 C268 1.394 . S
C285 C284 1.438 . S
C285 C286 1.428 . S
C286 H278 0.949 . S
C286 C285 1.428 . S
C286 C287 1.345 . S
C287 H279 0.950 . S
C287 C286 1.345 . S
C287 C288 1.424 . S
C288 H280 0.951 . S
C288 C287 1.424 . S
C288 C289 1.347 . S
C289 H281 0.951 . S
C289 C284 1.429 . S
C289 C288 1.347 . S
H290 C291 0.951 . S
C291 H290 0.951 . S
C291 C297 1.265 . S
H292 C297 0.950 . S
H293 C301 0.949 . S
H294 C302 0.950 . S
H295 C303 0.951 . S
H296 C304 0.951 . S
C297 C291 1.265 . S
C297 H292 0.950 . S
C297 C298 1.478 . S
C298 C297 1.478 . S
C298 C299 1.397 . S
C298 C315 1.394 . S
C299 C298 1.397 . S
C299 C300 1.438 . S
C299 C304 1.429 . S
C300 C299 1.438 . S
C300 C301 1.428 . S
C300 C313 1.394 . S
C301 H293 0.949 . S
C301 C300 1.428 . S
C301 C302 1.345 . S
C302 H294 0.950 . S
C302 C301 1.345 . S
C302 C303 1.424 . S
C303 H295 0.951 . S
C303 C302 1.424 . S
C303 C304 1.347 . S
C304 H296 0.951 . S
C304 C299 1.429 . S
C304 C303 1.347 . S
H305 C306 0.951 . S
C306 H305 0.951 . S
C306 C312 1.265 . S
H307 C312 0.950 . S
H308 C316 0.949 . S
H309 C317 0.950 . S
H310 C318 0.951 . S
H311 C319 0.951 . S
C312 C306 1.265 . S
C312 H307 0.950 . S
C312 C313 1.478 . S
C313 C300 1.394 . S
C313 C312 1.478 . S
C313 C314 1.397 . S
C314 C313 1.397 . S
C314 C315 1.438 . S
C314 C319 1.429 . S
C315 C298 1.394 . S
C315 C314 1.438 . S
C315 C316 1.428 . S
C316 H308 0.949 . S
C316 C315 1.428 . S
C316 C317 1.345 . S
C317 H309 0.950 . S
C317 C316 1.345 . S
C317 C318 1.424 . S
C318 H310 0.951 . S
C318 C317 1.424 . S
C318 C319 1.347 . S
C319 H311 0.951 . S
C319 C314 1.429 . S
C319 C318 1.347 . S
H320 C321 0.951 . S
C321 H320 0.951 . S
C321 C327 1.265 . S
H322 C327 0.950 . S
H323 C331 0.949 1_565 S
H324 C332 0.950 . S
H325 C333 0.951 . S
H326 C334 0.951 . S
C327 C321 1.265 . S
C327 H322 0.950 . S
C327 C328 1.478 1_545 S
C328 C327 1.478 1_565 S
C328 C329 1.397 1_565 S
C328 C345 1.394 . S
C329 C328 1.397 1_545 S
C329 C330 1.438 1_545 S
C329 C334 1.429 . S
C330 C329 1.438 1_565 S
C330 C331 1.428 1_565 S
C330 C343 1.394 . S
C331 H323 0.949 1_545 S
C331 C330 1.428 1_545 S
C331 C332 1.345 . S
C332 H324 0.950 . S
C332 C331 1.345 . S
C332 C333 1.424 . S
C333 H325 0.951 . S
C333 C332 1.424 . S
C333 C334 1.347 . S
C334 H326 0.951 . S
C334 C329 1.429 . S
C334 C333 1.347 . S
H335 C336 0.951 . S
C336 H335 0.951 . S
C336 C342 1.265 . S
H337 C342 0.950 . S
H338 C346 0.949 . S
H339 C347 0.950 . S
H340 C348 0.951 . S
H341 C349 0.951 . S
C342 C336 1.265 . S
C342 H337 0.950 . S
C342 C343 1.478 . S
C343 C330 1.394 . S
C343 C342 1.478 . S
C343 C344 1.397 . S
C344 C343 1.397 . S
C344 C345 1.438 . S
C344 C349 1.429 . S
C345 C328 1.394 . S
C345 C344 1.438 . S
C345 C346 1.428 . S
C346 H338 0.949 . S
C346 C345 1.428 . S
C346 C347 1.345 . S
C347 H339 0.950 . S
C347 C346 1.345 . S
C347 C348 1.424 . S
C348 H340 0.951 . S
C348 C347 1.424 . S
C348 C349 1.347 . S
C349 H341 0.951 . S
C349 C344 1.429 . S
C349 C348 1.347 . S
H350 C351 0.951 . S
C351 H350 0.951 . S
C351 C357 1.265 . S
H352 C357 0.950 . S
H353 C361 0.949 . S
H354 C362 0.950 . S
H355 C363 0.951 . S
H356 C364 0.951 . S
C357 C351 1.265 . S
C357 H352 0.950 . S
C357 C358 1.478 . S
C358 C357 1.478 . S
C358 C359 1.397 . S
C358 C375 1.394 . S
C359 C358 1.397 . S
C359 C360 1.438 . S
C359 C364 1.429 . S
C360 C359 1.438 . S
C360 C361 1.428 . S
C360 C373 1.394 . S
C361 H353 0.949 . S
C361 C360 1.428 . S
C361 C362 1.345 . S
C362 H354 0.950 . S
C362 C361 1.345 . S
C362 C363 1.424 . S
C363 H355 0.951 . S
C363 C362 1.424 . S
C363 C364 1.347 . S
C364 H356 0.951 . S
C364 C359 1.429 . S
C364 C363 1.347 . S
H365 C366 0.951 . S
C366 H365 0.951 . S
C366 C372 1.265 . S
H367 C372 0.950 . S
H368 C376 0.949 . S
H369 C377 0.950 . S
H370 C378 0.951 . S
H371 C379 0.951 . S
C372 C366 1.265 . S
C372 H367 0.950 . S
C372 C373 1.478 . S
C373 C360 1.394 . S
C373 C372 1.478 . S
C373 C374 1.397 . S
C374 C373 1.397 . S
C374 C375 1.438 . S
C374 C379 1.429 . S
C375 C358 1.394 . S
C375 C374 1.438 . S
C375 C376 1.428 . S
C376 H368 0.949 . S
C376 C375 1.428 . S
C376 C377 1.345 1_565 S
C377 H369 0.950 . S
C377 C376 1.345 1_545 S
C377 C378 1.424 . S
C378 H370 0.951 . S
C378 C377 1.424 . S
C378 C379 1.347 1_545 S
C379 H371 0.951 . S
C379 C374 1.429 . S
C379 C378 1.347 1_565 S
H380 C381 0.951 . S
C381 H380 0.951 . S
C381 C387 1.265 . S
H382 C387 0.950 . S
H383 C391 0.949 . S
H384 C392 0.950 . S
H385 C393 0.951 . S
H386 C394 0.951 . S
C387 C381 1.265 . S
C387 H382 0.950 . S
C387 C388 1.478 . S
C388 C387 1.478 . S
C388 C389 1.397 . S
C388 C405 1.394 . S
C389 C388 1.397 . S
C389 C390 1.438 . S
C389 C394 1.429 . S
C390 C389 1.438 . S
C390 C391 1.428 . S
C390 C403 1.394 . S
C391 H383 0.949 . S
C391 C390 1.428 . S
C391 C392 1.345 . S
C392 H384 0.950 . S
C392 C391 1.345 . S
C392 C393 1.424 . S
C393 H385 0.951 . S
C393 C392 1.424 . S
C393 C394 1.347 . S
C394 H386 0.951 . S
C394 C389 1.429 . S
C394 C393 1.347 . S
H395 C396 0.951 . S
C396 H395 0.951 . S
C396 C402 1.265 . S
H397 C402 0.950 . S
H398 C406 0.949 . S
H399 C407 0.950 . S
H400 C408 0.951 . S
H401 C409 0.951 . S
C402 C396 1.265 . S
C402 H397 0.950 . S
C402 C403 1.478 . S
C403 C390 1.394 . S
C403 C402 1.478 . S
C403 C404 1.397 . S
C404 C403 1.397 . S
C404 C405 1.438 . S
C404 C409 1.429 . S
C405 C388 1.394 . S
C405 C404 1.438 . S
C405 C406 1.428 . S
C406 H398 0.949 . S
C406 C405 1.428 . S
C406 C407 1.345 . S
C407 H399 0.950 . S
C407 C406 1.345 . S
C407 C408 1.424 . S
C408 H400 0.951 . S
C408 C407 1.424 . S
C408 C409 1.347 . S
C409 H401 0.951 . S
C409 C404 1.429 . S
C409 C408 1.347 . S
H410 C411 0.951 . S
C411 H410 0.951 . S
C411 C417 1.265 . S
H412 C417 0.950 . S
H413 C421 0.949 . S
H414 C422 0.950 . S
H415 C423 0.951 . S
H416 C424 0.951 . S
C417 C411 1.265 . S
C417 H412 0.950 . S
C417 C418 1.478 . S
C418 C417 1.478 . S
C418 C419 1.397 . S
C418 C435 1.394 . S
C419 C418 1.397 . S
C419 C420 1.438 . S
C419 C424 1.429 . S
C420 C419 1.438 . S
C420 C421 1.428 . S
C420 C433 1.394 . S
C421 H413 0.949 . S
C421 C420 1.428 . S
C421 C422 1.345 . S
C422 H414 0.950 . S
C422 C421 1.345 . S
C422 C423 1.424 . S
C423 H415 0.951 . S
C423 C422 1.424 . S
C423 C424 1.347 . S
C424 H416 0.951 . S
C424 C419 1.429 . S
C424 C423 1.347 . S
H425 C426 0.951 1_655 S
C426 H425 0.951 1_455 S
C426 C432 1.265 . S
H427 C432 0.950 . S
H428 C436 0.949 . S
H429 C437 0.950 . S
H430 C438 0.951 1_455 S
H431 C439 0.951 . S
C432 C426 1.265 . S
C432 H427 0.950 . S
C432 C433 1.478 1_455 S
C433 C420 1.394 . S
C433 C432 1.478 1_655 S
C433 C434 1.397 . S
C434 C433 1.397 . S
C434 C435 1.438 . S
C434 C439 1.429 1_655 S
C435 C418 1.394 . S
C435 C434 1.438 . S
C435 C436 1.428 . S
C436 H428 0.949 . S
C436 C435 1.428 . S
C436 C437 1.345 . S
C437 H429 0.950 . S
C437 C436 1.345 . S
C437 C438 1.424 . S
C438 H430 0.951 1_655 S
C438 C437 1.424 . S
C438 C439 1.347 1_655 S
C439 H431 0.951 . S
C439 C434 1.429 1_455 S
C439 C438 1.347 1_455 S
C81 C59 0.434 1_556 S
C96 C19 0.443 1_566 S
C111 C79 0.269 . S
C126 C39 0.264 . S
C141 C58 1.218 1_554 S
C156 C18 1.219 1_564 S
C171 C38 1.221 . S
C186 C78 1.222 1_655 S
C201 C32 1.071 . S
C216 C9 1.230 . S
C231 C29 1.177 . S
C246 C52 1.128 . S
C261 C72 1.170 . S
C276 C49 1.153 . S
C291 C69 1.268 . S
C306 C12 1.109 . S
C321 C44 1.634 . S
C336 C62 1.576 . S
C351 C2 1.510 . S
C366 C64 1.576 . S
C381 C22 1.573 . S
C396 C4 1.638 . S
C411 C42 1.503 . S
C426 C24 1.682 . S
